# Generated by pormake.
# Topology soh, (5)-cn, num edge types: 1
# Building blocks:
#     Node 0, Type 0, BuildingBlock: XOMCOT_clean_sbu_0, # of connection points: 5
#     Node 1, Type 0, BuildingBlock: XOMCOT_clean_sbu_0, # of connection points: 5
#     Node 2, Type 0, BuildingBlock: XOMCOT_clean_sbu_0, # of connection points: 5
#     Node 3, Type 0, BuildingBlock: XOMCOT_clean_sbu_0, # of connection points: 5
#     Node 4, Type 0, BuildingBlock: XOMCOT_clean_sbu_0, # of connection points: 5
#     Node 5, Type 0, BuildingBlock: XOMCOT_clean_sbu_0, # of connection points: 5
#     Node 6, Type 0, BuildingBlock: XOMCOT_clean_sbu_0, # of connection points: 5
#     Node 7, Type 0, BuildingBlock: XOMCOT_clean_sbu_0, # of connection points: 5
#     Node 8, Type 0, BuildingBlock: XOMCOT_clean_sbu_0, # of connection points: 5
#     Node 9, Type 0, BuildingBlock: XOMCOT_clean_sbu_0, # of connection points: 5
#     Node 10, Type 0, BuildingBlock: XOMCOT_clean_sbu_0, # of connection points: 5
#     Node 11, Type 0, BuildingBlock: XOMCOT_clean_sbu_0, # of connection points: 5
#     Node 12, Type 0, BuildingBlock: XOMCOT_clean_sbu_0, # of connection points: 5
#     Node 13, Type 0, BuildingBlock: XOMCOT_clean_sbu_0, # of connection points: 5
#     Node 14, Type 0, BuildingBlock: XOMCOT_clean_sbu_0, # of connection points: 5
#     Node 15, Type 0, BuildingBlock: XOMCOT_clean_sbu_0, # of connection points: 5
#     Node 16, Type 0, BuildingBlock: XOMCOT_clean_sbu_0, # of connection points: 5
#     Node 17, Type 0, BuildingBlock: XOMCOT_clean_sbu_0, # of connection points: 5
#     Node 18, Type 0, BuildingBlock: XOMCOT_clean_sbu_0, # of connection points: 5
#     Node 19, Type 0, BuildingBlock: XOMCOT_clean_sbu_0, # of connection points: 5
#     Node 20, Type 0, BuildingBlock: XOMCOT_clean_sbu_0, # of connection points: 5
#     Node 21, Type 0, BuildingBlock: XOMCOT_clean_sbu_0, # of connection points: 5
#     Node 22, Type 0, BuildingBlock: XOMCOT_clean_sbu_0, # of connection points: 5
#     Node 23, Type 0, BuildingBlock: XOMCOT_clean_sbu_0, # of connection points: 5
#     Node 24, Type 0, BuildingBlock: XOMCOT_clean_sbu_0, # of connection points: 5
#     Node 25, Type 0, BuildingBlock: XOMCOT_clean_sbu_0, # of connection points: 5
#     Node 26, Type 0, BuildingBlock: XOMCOT_clean_sbu_0, # of connection points: 5
#     Node 27, Type 0, BuildingBlock: XOMCOT_clean_sbu_0, # of connection points: 5
#     Node 28, Type 0, BuildingBlock: XOMCOT_clean_sbu_0, # of connection points: 5
#     Node 29, Type 0, BuildingBlock: XOMCOT_clean_sbu_0, # of connection points: 5
#     Node 30, Type 0, BuildingBlock: XOMCOT_clean_sbu_0, # of connection points: 5
#     Node 31, Type 0, BuildingBlock: XOMCOT_clean_sbu_0, # of connection points: 5
#     Edge 32, Type (0, 0), BuildingBlock: EZIPEK_clean_linker_0, # of connection points: 2
#     Edge 33, Type (0, 0), BuildingBlock: EZIPEK_clean_linker_0, # of connection points: 2
#     Edge 34, Type (0, 0), BuildingBlock: EZIPEK_clean_linker_0, # of connection points: 2
#     Edge 35, Type (0, 0), BuildingBlock: EZIPEK_clean_linker_0, # of connection points: 2
#     Edge 36, Type (0, 0), BuildingBlock: EZIPEK_clean_linker_0, # of connection points: 2
#     Edge 37, Type (0, 0), BuildingBlock: EZIPEK_clean_linker_0, # of connection points: 2
#     Edge 38, Type (0, 0), BuildingBlock: EZIPEK_clean_linker_0, # of connection points: 2
#     Edge 39, Type (0, 0), BuildingBlock: EZIPEK_clean_linker_0, # of connection points: 2
#     Edge 40, Type (0, 0), BuildingBlock: EZIPEK_clean_linker_0, # of connection points: 2
#     Edge 41, Type (0, 0), BuildingBlock: EZIPEK_clean_linker_0, # of connection points: 2
#     Edge 42, Type (0, 0), BuildingBlock: EZIPEK_clean_linker_0, # of connection points: 2
#     Edge 43, Type (0, 0), BuildingBlock: EZIPEK_clean_linker_0, # of connection points: 2
#     Edge 44, Type (0, 0), BuildingBlock: EZIPEK_clean_linker_0, # of connection points: 2
#     Edge 45, Type (0, 0), BuildingBlock: EZIPEK_clean_linker_0, # of connection points: 2
#     Edge 46, Type (0, 0), BuildingBlock: EZIPEK_clean_linker_0, # of connection points: 2
#     Edge 47, Type (0, 0), BuildingBlock: EZIPEK_clean_linker_0, # of connection points: 2
#     Edge 48, Type (0, 0), BuildingBlock: EZIPEK_clean_linker_0, # of connection points: 2
#     Edge 49, Type (0, 0), BuildingBlock: EZIPEK_clean_linker_0, # of connection points: 2
#     Edge 50, Type (0, 0), BuildingBlock: EZIPEK_clean_linker_0, # of connection points: 2
#     Edge 51, Type (0, 0), BuildingBlock: EZIPEK_clean_linker_0, # of connection points: 2
#     Edge 52, Type (0, 0), BuildingBlock: EZIPEK_clean_linker_0, # of connection points: 2
#     Edge 53, Type (0, 0), BuildingBlock: EZIPEK_clean_linker_0, # of connection points: 2
#     Edge 54, Type (0, 0), BuildingBlock: EZIPEK_clean_linker_0, # of connection points: 2
#     Edge 55, Type (0, 0), BuildingBlock: EZIPEK_clean_linker_0, # of connection points: 2
#     Edge 56, Type (0, 0), BuildingBlock: EZIPEK_clean_linker_0, # of connection points: 2
#     Edge 57, Type (0, 0), BuildingBlock: EZIPEK_clean_linker_0, # of connection points: 2
#     Edge 58, Type (0, 0), BuildingBlock: EZIPEK_clean_linker_0, # of connection points: 2
#     Edge 59, Type (0, 0), BuildingBlock: EZIPEK_clean_linker_0, # of connection points: 2
#     Edge 60, Type (0, 0), BuildingBlock: EZIPEK_clean_linker_0, # of connection points: 2
#     Edge 61, Type (0, 0), BuildingBlock: EZIPEK_clean_linker_0, # of connection points: 2
#     Edge 62, Type (0, 0), BuildingBlock: EZIPEK_clean_linker_0, # of connection points: 2
#     Edge 63, Type (0, 0), BuildingBlock: EZIPEK_clean_linker_0, # of connection points: 2
#     Edge 64, Type (0, 0), BuildingBlock: EZIPEK_clean_linker_0, # of connection points: 2
#     Edge 65, Type (0, 0), BuildingBlock: EZIPEK_clean_linker_0, # of connection points: 2
#     Edge 66, Type (0, 0), BuildingBlock: EZIPEK_clean_linker_0, # of connection points: 2
#     Edge 67, Type (0, 0), BuildingBlock: EZIPEK_clean_linker_0, # of connection points: 2
#     Edge 68, Type (0, 0), BuildingBlock: EZIPEK_clean_linker_0, # of connection points: 2
#     Edge 69, Type (0, 0), BuildingBlock: EZIPEK_clean_linker_0, # of connection points: 2
#     Edge 70, Type (0, 0), BuildingBlock: EZIPEK_clean_linker_0, # of connection points: 2
#     Edge 71, Type (0, 0), BuildingBlock: EZIPEK_clean_linker_0, # of connection points: 2
#     Edge 72, Type (0, 0), BuildingBlock: EZIPEK_clean_linker_0, # of connection points: 2
#     Edge 73, Type (0, 0), BuildingBlock: EZIPEK_clean_linker_0, # of connection points: 2
#     Edge 74, Type (0, 0), BuildingBlock: EZIPEK_clean_linker_0, # of connection points: 2
#     Edge 75, Type (0, 0), BuildingBlock: EZIPEK_clean_linker_0, # of connection points: 2
#     Edge 76, Type (0, 0), BuildingBlock: EZIPEK_clean_linker_0, # of connection points: 2
#     Edge 77, Type (0, 0), BuildingBlock: EZIPEK_clean_linker_0, # of connection points: 2
#     Edge 78, Type (0, 0), BuildingBlock: EZIPEK_clean_linker_0, # of connection points: 2
#     Edge 79, Type (0, 0), BuildingBlock: EZIPEK_clean_linker_0, # of connection points: 2
#     Edge 80, Type (0, 0), BuildingBlock: EZIPEK_clean_linker_0, # of connection points: 2
#     Edge 81, Type (0, 0), BuildingBlock: EZIPEK_clean_linker_0, # of connection points: 2
#     Edge 82, Type (0, 0), BuildingBlock: EZIPEK_clean_linker_0, # of connection points: 2
#     Edge 83, Type (0, 0), BuildingBlock: EZIPEK_clean_linker_0, # of connection points: 2
#     Edge 84, Type (0, 0), BuildingBlock: EZIPEK_clean_linker_0, # of connection points: 2
#     Edge 85, Type (0, 0), BuildingBlock: EZIPEK_clean_linker_0, # of connection points: 2
#     Edge 86, Type (0, 0), BuildingBlock: EZIPEK_clean_linker_0, # of connection points: 2
#     Edge 87, Type (0, 0), BuildingBlock: EZIPEK_clean_linker_0, # of connection points: 2
#     Edge 88, Type (0, 0), BuildingBlock: EZIPEK_clean_linker_0, # of connection points: 2
#     Edge 89, Type (0, 0), BuildingBlock: EZIPEK_clean_linker_0, # of connection points: 2
#     Edge 90, Type (0, 0), BuildingBlock: EZIPEK_clean_linker_0, # of connection points: 2
#     Edge 91, Type (0, 0), BuildingBlock: EZIPEK_clean_linker_0, # of connection points: 2
#     Edge 92, Type (0, 0), BuildingBlock: EZIPEK_clean_linker_0, # of connection points: 2
#     Edge 93, Type (0, 0), BuildingBlock: EZIPEK_clean_linker_0, # of connection points: 2
#     Edge 94, Type (0, 0), BuildingBlock: EZIPEK_clean_linker_0, # of connection points: 2
#     Edge 95, Type (0, 0), BuildingBlock: EZIPEK_clean_linker_0, # of connection points: 2
#     Edge 96, Type (0, 0), BuildingBlock: EZIPEK_clean_linker_0, # of connection points: 2
#     Edge 97, Type (0, 0), BuildingBlock: EZIPEK_clean_linker_0, # of connection points: 2
#     Edge 98, Type (0, 0), BuildingBlock: EZIPEK_clean_linker_0, # of connection points: 2
#     Edge 99, Type (0, 0), BuildingBlock: EZIPEK_clean_linker_0, # of connection points: 2
#     Edge 100, Type (0, 0), BuildingBlock: EZIPEK_clean_linker_0, # of connection points: 2
#     Edge 101, Type (0, 0), BuildingBlock: EZIPEK_clean_linker_0, # of connection points: 2
#     Edge 102, Type (0, 0), BuildingBlock: EZIPEK_clean_linker_0, # of connection points: 2
#     Edge 103, Type (0, 0), BuildingBlock: EZIPEK_clean_linker_0, # of connection points: 2
#     Edge 104, Type (0, 0), BuildingBlock: EZIPEK_clean_linker_0, # of connection points: 2
#     Edge 105, Type (0, 0), BuildingBlock: EZIPEK_clean_linker_0, # of connection points: 2
#     Edge 106, Type (0, 0), BuildingBlock: EZIPEK_clean_linker_0, # of connection points: 2
#     Edge 107, Type (0, 0), BuildingBlock: EZIPEK_clean_linker_0, # of connection points: 2
#     Edge 108, Type (0, 0), BuildingBlock: EZIPEK_clean_linker_0, # of connection points: 2
#     Edge 109, Type (0, 0), BuildingBlock: EZIPEK_clean_linker_0, # of connection points: 2
#     Edge 110, Type (0, 0), BuildingBlock: EZIPEK_clean_linker_0, # of connection points: 2
#     Edge 111, Type (0, 0), BuildingBlock: EZIPEK_clean_linker_0, # of connection points: 2
# Relax obj value: 0.234
# Max RMSD: 0.200
# Mean RMSD: 0.200
data_MOF--net-soh--node1-XOMCOT_clean_sbu_0--edge1-EZIPEK_clean_linker_0
_symmetry_space_group_name_H-M    P1
_symmetry_Int_Tables_number       1
_symmetry_cell_setting            triclinic
loop_
_symmetry_equiv_pos_as_xyz
'x, y, z'
_cell_length_a     64.804465
_cell_length_b     33.383169
_cell_length_c     35.224816
_cell_angle_alpha  89.997267
_cell_angle_beta   90.056182
_cell_angle_gamma 90.227121
loop_
_atom_site_label
_atom_site_type_symbol
_atom_site_fract_x
_atom_site_fract_y
_atom_site_fract_z
_atom_type_partial_charge
Co0 Co 0.30495 0.32257 0.21871 0.0
C1 C 0.30098 0.2496 0.1697 0.0
C2 C 0.33206 0.2612 0.18739 0.0
C3 C 0.33146 0.22435 0.17019 0.0
N4 N 0.31306 0.2777 0.18668 0.0
N5 N 0.31195 0.21694 0.15934 0.0
H6 H 0.2844 0.25134 0.16755 0.0
H7 H 0.34516 0.27296 0.2028 0.0
C8 C 0.34754 0.35165 0.18888 0.0
O9 O 0.34024 0.3493 0.15414 0.0
N10 N 0.29696 0.36626 0.25102 0.0
C11 C 0.27104 0.38755 0.25113 0.0
C12 C 0.27409 0.43906 0.28336 0.0
C13 C 0.31548 0.39592 0.27755 0.0
N14 N 0.30156 0.43874 0.29739 0.0
C15 C 0.27874 0.34306 0.15325 0.0
C16 C 0.29385 0.41985 0.14243 0.0
C17 C 0.27704 0.40767 0.1199 0.0
C18 C 0.26958 0.36845 0.12574 0.0
C19 C 0.30244 0.39374 0.16979 0.0
N20 N 0.29522 0.35537 0.17478 0.0
H21 H 0.2719 0.31406 0.15827 0.0
H22 H 0.31453 0.40517 0.18797 0.0
H23 H 0.25747 0.37505 0.23763 0.0
H24 H 0.33048 0.38602 0.28648 0.0
O25 O 0.27928 0.29413 0.23374 0.0
O26 O 0.30878 0.28754 0.26292 0.0
O27 O 0.33496 0.34521 0.21658 0.0
C28 C 0.28944 0.27721 0.26149 0.0
H29 H 0.34402 0.20311 0.16859 0.0
H30 H 0.262 0.45709 0.29571 0.0
H31 H 0.29995 0.44996 0.13972 0.0
H32 H 0.25641 0.35774 0.10968 0.0
Co33 Co 0.97205 0.95405 0.21871 0.0
C34 C 0.97765 0.02654 0.1688 0.0
C35 C 0.94591 1.01073 0.17695 0.0
C36 C 0.94674 0.04709 0.15879 0.0
N37 N 0.96523 0.99699 0.18283 0.0
N38 N 0.96663 0.05726 0.15375 0.0
H39 H 0.99422 0.02733 0.17243 0.0
H40 H 0.93204 0.99783 0.18866 0.0
C41 C 0.93029 0.9188 0.18784 0.0
O42 O 0.93697 0.92077 0.15267 0.0
N43 N 0.97821 0.91316 0.25587 0.0
C44 C 0.99638 0.89621 0.26436 0.0
C45 C 0.99532 0.88141 0.30105 0.0
C46 C 0.96647 0.90795 0.28689 0.0
N47 N 0.97627 0.88848 0.31556 0.0
C48 C 1.00106 0.93013 0.15856 0.0
C49 C 0.98343 0.85707 0.14071 0.0
C50 C 1.0016 0.86756 0.12084 0.0
C51 C 1.01053 0.90477 0.13124 0.0
C52 C 0.97538 0.88185 0.16979 0.0
N53 N 0.98344 0.91905 0.1774 0.0
H54 H 1.00835 0.9584 0.16534 0.0
H55 H 0.96265 0.87052 0.18637 0.0
H56 H 1.01014 0.89883 0.24717 0.0
H57 H 0.95212 0.92384 0.28961 0.0
O58 O 0.99708 0.98416 0.23489 0.0
O59 O 0.96681 0.99137 0.26094 0.0
O60 O 0.94232 0.93017 0.21505 0.0
C61 C 0.98617 1.00166 0.26123 0.0
H62 H 0.93373 0.06629 0.15262 0.0
H63 H 1.00855 0.87112 0.31688 0.0
H64 H 0.97571 0.82894 0.13475 0.0
H65 H 0.02485 0.91443 0.11831 0.0
Co66 Co 0.3014 0.95648 0.04597 0.0
C67 C 0.298 0.02738 0.09822 0.0
C68 C 0.32912 1.01195 0.08462 0.0
C69 C 0.32932 0.04823 0.10285 0.0
N70 N 0.30955 0.99808 0.08208 0.0
N71 N 0.30978 0.05815 0.11107 0.0
H72 H 0.28137 0.02786 0.09812 0.0
H73 H 0.34225 0.99937 0.07017 0.0
C74 C 0.34183 0.91814 0.0765 0.0
O75 O 0.33363 0.91691 0.11057 0.0
N76 N 0.29455 0.91684 0.00821 0.0
C77 C 0.27604 0.90244 0.99783 0.0
C78 C 0.27797 0.8856 0.96216 0.0
C79 C 0.3073 0.90835 0.97938 0.0
N80 N 0.29783 0.88908 0.95022 0.0
C81 C 0.27794 0.93378 0.11509 0.0
C82 C 0.28518 0.85235 0.11175 0.0
C83 C 0.27236 0.86613 0.14134 0.0
C84 C 0.26913 0.90787 0.14265 0.0
C85 C 0.29421 0.87939 0.08541 0.0
N86 N 0.29067 0.91991 0.08694 0.0
H87 H 0.27397 0.96497 0.1162 0.0
H88 H 0.30391 0.86734 0.06326 0.0
H89 H 0.26181 0.90773 0.01301 0.0
H90 H 0.32236 0.92194 0.9781 0.0
O91 O 0.27599 0.98693 0.03219 0.0
O92 O 0.30568 0.99584 1.0043 0.0
O93 O 0.33103 0.93206 0.04865 0.0
C94 C 0.28628 1.00581 1.00577 0.0
H95 H 0.34256 0.06776 0.10638 0.0
H96 H 0.265 0.87642 0.9449 0.0
H97 H 0.28815 0.82061 0.1088 0.0
H98 H 0.25933 0.92047 0.16445 0.0
Co99 Co 0.97128 0.32353 0.04481 0.0
C100 C 0.97556 0.24834 0.09108 0.0
C101 C 0.94425 0.26017 0.07525 0.0
C102 C 0.94508 0.22277 0.09156 0.0
N103 N 0.96326 0.27694 0.07542 0.0
N104 N 0.96473 0.21522 0.10131 0.0
H105 H 0.9922 0.25017 0.09235 0.0
H106 H 0.93087 0.27241 0.06123 0.0
C107 C 0.92831 0.35148 0.07364 0.0
O108 O 0.9355 0.3496 0.10848 0.0
N109 N 0.97935 0.36857 0.01367 0.0
C110 C 1.00603 0.38573 0.00932 0.0
C111 C 1.00394 0.43706 0.97684 0.0
C112 C 0.9611 0.4009 0.98943 0.0
N113 N 0.97608 0.44115 0.96688 0.0
C114 C 0.99544 0.3423 0.11403 0.0
C115 C 0.98134 0.41978 0.12329 0.0
C116 C 0.99694 0.40671 0.14816 0.0
C117 C 1.00384 0.36704 0.14308 0.0
C118 C 0.97338 0.39421 0.09468 0.0
N119 N 0.98012 0.35552 0.09027 0.0
H120 H 1.00195 0.31299 0.10986 0.0
H121 H 0.96207 0.4062 0.07525 0.0
H122 H 0.01955 0.37146 0.02106 0.0
H123 H 0.94528 0.39372 0.98322 0.0
O124 O 0.99726 0.2958 0.03109 0.0
O125 O 0.96848 0.2902 0.99902 0.0
O126 O 0.94102 0.34489 0.04615 0.0
C127 C 0.98766 0.27943 1.00232 0.0
H128 H 0.93241 0.20171 0.09413 0.0
H129 H 0.01626 0.45304 0.96259 0.0
H130 H 0.97562 0.45014 0.12537 0.0
H131 H 0.01609 0.3555 0.16086 0.0
Co132 Co 0.72039 0.70512 0.79879 0.0
C133 C 0.72521 0.78415 0.83903 0.0
C134 C 0.70677 0.74239 0.87046 0.0
C135 C 0.70648 0.77867 0.88907 0.0
N136 N 0.71827 0.74568 0.8387 0.0
N137 N 0.71794 0.80493 0.86914 0.0
H138 H 0.73488 0.79734 0.81744 0.0
H139 H 0.69845 0.71594 0.879 0.0
C140 C 0.68015 0.65447 0.80261 0.0
O141 O 0.69032 0.62418 0.78818 0.0
N142 N 0.7226 0.66569 0.75838 0.0
C143 C 0.73842 0.64103 0.75094 0.0
C144 C 0.73672 0.62761 0.71411 0.0
C145 C 0.71159 0.66667 0.7259 0.0
N146 N 0.71948 0.64302 0.69804 0.0
C147 C 0.75363 0.66277 0.83922 0.0
C148 C 0.72953 0.61704 0.88731 0.0
C149 C 0.751 0.61135 0.88925 0.0
C150 C 0.76301 0.63502 0.86439 0.0
C151 C 0.72077 0.64404 0.86093 0.0
N152 N 0.7326 0.66653 0.83658 0.0
H153 H 0.76344 0.68069 0.8211 0.0
H154 H 0.70436 0.64668 0.86097 0.0
H155 H 0.75163 0.63645 0.76902 0.0
H156 H 0.69936 0.68806 0.72191 0.0
O157 O 0.7456 0.73157 0.77806 0.0
O158 O 0.71434 0.74619 0.75984 0.0
O159 O 0.68988 0.68752 0.81005 0.0
C160 C 0.73399 0.75248 0.75517 0.0
H161 H 0.69784 0.78575 0.91447 0.0
H162 H 0.74889 0.61178 0.69976 0.0
H163 H 0.71942 0.60035 0.90603 0.0
H164 H 0.77965 0.63233 0.86455 0.0
Co165 Co 0.05277 0.07258 0.79862 0.0
C166 C 0.05013 0.99934 0.84612 0.0
C167 C 0.07956 0.02838 0.85123 0.0
C168 C 0.0809 0.99111 0.8674 0.0
N169 N 0.06037 0.03349 0.83705 0.0
N170 N 0.06252 0.97267 0.86369 0.0
H171 H 0.03452 0.99245 0.83733 0.0
H172 H 0.0924 0.04874 0.84791 0.0
C173 C 0.08921 0.1335 0.80225 0.0
O174 O 0.07609 0.16318 0.79883 0.0
N175 N 0.04563 0.11012 0.75849 0.0
C176 C 0.0262 0.11541 0.74546 0.0
C177 C 0.02661 0.11992 0.70687 0.0
C178 C 0.05757 0.11408 0.72715 0.0
N179 N 0.04629 0.11779 0.69505 0.0
C180 C 0.02088 0.11757 0.83935 0.0
C181 C 0.04556 0.1495 0.89563 0.0
C182 C 0.0248 0.16207 0.89424 0.0
C183 C 0.01247 0.14496 0.86561 0.0
C184 C 0.05347 0.12265 0.86807 0.0
N185 N 0.04149 0.10856 0.83889 0.0
H186 H 1.01047 0.1028 0.82014 0.0
H187 H 0.06923 0.11271 0.87063 0.0
H188 H 0.01225 0.10909 0.76079 0.0
H189 H 0.074 0.10912 0.72734 0.0
O190 O 0.02794 0.04031 0.7856 0.0
O191 O 0.05757 0.03212 0.75855 0.0
O192 O 0.08232 0.0972 0.8025 0.0
C193 C 0.0383 0.02107 0.75975 0.0
H194 H 0.09469 0.97755 0.87899 0.0
H195 H 0.01324 0.11971 0.68838 0.0
H196 H 0.05564 0.16039 0.91792 0.0
H197 H 0.99621 0.1521 0.86396 0.0
Co198 Co 0.72069 0.07374 0.9702 0.0
C199 C 0.72218 1.00108 0.92005 0.0
C200 C 0.69231 1.01188 0.94388 0.0
C201 C 0.69191 0.97516 0.92654 0.0
N202 N 0.71108 0.02893 0.93929 0.0
N203 N 0.71067 0.96809 0.9119 0.0
H204 H 0.7386 1.00333 0.91495 0.0
H205 H 0.68026 0.02329 0.96201 0.0
C206 C 0.67716 0.10068 0.9434 0.0
O207 O 0.68303 0.09407 0.90825 0.0
N208 N 0.73043 0.11725 1.00148 0.0
C209 C 0.75786 0.12904 1.00649 0.0
C210 C 0.75823 0.1815 0.03766 0.0
C211 C 0.71381 0.15374 0.02418 0.0
N212 N 0.73064 0.19138 0.04641 0.0
C213 C 0.74926 0.0963 0.90946 0.0
C214 C 0.73018 0.16621 0.8869 0.0
C215 C 0.74963 0.15802 0.87072 0.0
C216 C 0.75913 0.12226 0.88312 0.0
C217 C 0.72153 0.14094 0.91507 0.0
N218 N 0.73058 0.10546 0.92543 0.0
H219 H 0.75728 0.06962 0.91846 0.0
H220 H 0.70791 0.15128 0.9295 0.0
H221 H 0.77064 0.11133 0.99628 0.0
H222 H 0.69752 0.15066 0.02897 0.0
O223 O 0.74596 0.04369 0.984 0.0
O224 O 0.71706 0.03914 0.01491 0.0
O225 O 0.69094 0.09791 0.96981 0.0
C226 C 0.7361 0.0274 0.01239 0.0
H227 H 0.67935 0.9537 0.9274 0.0
H228 H 0.77117 0.19504 0.05234 0.0
H229 H 0.72205 0.1933 0.87918 0.0
H230 H 0.77432 0.11445 0.87281 0.0
Co231 Co 0.05306 0.70686 0.9633 0.0
C232 C 0.05029 0.78451 0.92144 0.0
C233 C 0.0714 0.7437 0.89536 0.0
C234 C 0.07246 0.77965 0.87631 0.0
N235 N 0.05783 0.74693 0.92425 0.0
N236 N 0.05929 0.80518 0.89298 0.0
H237 H 0.03887 0.79717 0.94014 0.0
H238 H 0.08047 0.71752 0.88916 0.0
C239 C 0.09445 0.66026 0.97246 0.0
O240 O 0.08623 0.63946 1.00016 0.0
N241 N 0.04791 0.66655 1.00208 0.0
C242 C 0.03859 0.63027 0.99899 0.0
C243 C 0.0362 0.61397 0.03466 0.0
C244 C 0.0507 0.67173 0.03967 0.0
N245 N 0.04333 0.64079 0.05996 0.0
C246 C 0.02334 0.67869 0.90713 0.0
C247 C 0.04286 0.6091 0.88598 0.0
C248 C 0.02227 0.6138 0.87298 0.0
C249 C 0.01374 0.65198 0.88131 0.0
C250 C 0.05205 0.63653 0.91154 0.0
N251 N 0.04192 0.67017 0.92347 0.0
H252 H 0.01572 0.70651 0.91405 0.0
H253 H 0.06695 0.6292 0.92296 0.0
H254 H 0.03266 0.617 0.97332 0.0
H255 H 0.05711 0.69838 0.05257 0.0
O256 O 0.02748 0.73475 0.98075 0.0
O257 O 0.05805 0.74816 1.00331 0.0
O258 O 0.08342 0.68687 0.95503 0.0
C259 C 0.03836 0.75564 1.00496 0.0
H260 H 0.08277 0.78712 0.85317 0.0
H261 H 0.02836 0.58625 0.04167 0.0
H262 H 0.05224 0.58426 0.87683 0.0
H263 H 0.99983 0.66245 0.86787 0.0
Co264 Co 0.30137 0.82225 0.71826 0.0
C265 C 0.29558 0.74391 0.67798 0.0
C266 C 0.32424 0.77228 0.66354 0.0
C267 C 0.32371 0.73506 0.64688 0.0
N268 N 0.30669 0.77792 0.68352 0.0
N269 N 0.30581 0.71718 0.65626 0.0
H270 H 0.28079 0.73782 0.69057 0.0
H271 H 0.33704 0.79296 0.66184 0.0
C272 C 0.33986 0.87734 0.70669 0.0
O273 O 0.32769 0.90872 0.70576 0.0
N274 N 0.29635 0.86614 0.7534 0.0
C275 C 0.27219 0.8941 0.75636 0.0
C276 C 0.27923 0.94202 0.79115 0.0
C277 C 0.31707 0.88882 0.7809 0.0
N278 N 0.30651 0.93364 0.8037 0.0
C279 C 0.2697 0.86106 0.6721 0.0
C280 C 0.29521 0.896 0.61872 0.0
C281 C 0.2741 0.9059 0.61744 0.0
C282 C 0.26127 0.88643 0.64399 0.0
C283 C 0.30285 0.86923 0.64653 0.0
N284 N 0.2905 0.85464 0.67494 0.0
H285 H 0.25932 0.84667 0.69183 0.0
H286 H 0.31876 0.86032 0.64495 0.0
H287 H 0.25744 0.88588 0.74437 0.0
H288 H 0.33156 0.87481 0.78788 0.0
O289 O 0.27567 0.79655 0.73644 0.0
O290 O 0.30575 0.78553 0.76161 0.0
O291 O 0.33177 0.84207 0.71056 0.0
C292 C 0.28605 0.77745 0.76237 0.0
H293 H 0.33582 0.72153 0.6301 0.0
H294 H 0.26859 0.96177 0.80555 0.0
H295 H 0.30581 0.90874 0.59821 0.0
H296 H 0.24478 0.89147 0.64356 0.0
Co297 Co 0.9708 0.45357 0.71737 0.0
C298 C 0.97275 0.53349 0.67841 0.0
C299 C 0.95525 0.49111 0.64599 0.0
C300 C 0.95449 0.52768 0.62785 0.0
N301 N 0.96641 0.49461 0.67821 0.0
N302 N 0.96543 0.5543 0.64839 0.0
H303 H 0.9823 0.54695 0.70005 0.0
H304 H 0.94809 0.46409 0.6359 0.0
C305 C 0.92963 0.41197 0.68899 0.0
O306 O 0.93794 0.39874 0.65749 0.0
N307 N 0.97485 0.41452 0.75723 0.0
C308 C 0.99221 0.3949 0.76621 0.0
C309 C 0.99089 0.38289 0.80363 0.0
C310 C 0.96332 0.4139 0.78897 0.0
N311 N 0.97255 0.39466 0.8184 0.0
C312 C 0.99605 0.42922 0.65256 0.0
C313 C 0.98572 0.34877 0.6519 0.0
C314 C 0.99983 0.36238 0.6243 0.0
C315 C 1.00503 0.40337 0.62537 0.0
C316 C 0.97738 0.37545 0.67908 0.0
N317 N 0.982 0.4156 0.67868 0.0
H318 H 1.00062 0.4604 0.65279 0.0
H319 H 0.96694 0.36369 0.70029 0.0
H320 H 1.00583 0.39376 0.7485 0.0
H321 H 0.94981 0.43235 0.79103 0.0
O322 O 0.99652 0.48095 0.73393 0.0
O323 O 0.96604 0.49377 0.75732 0.0
O324 O 0.9404 0.43325 0.71251 0.0
C325 C 0.98578 0.50074 0.75906 0.0
H326 H 0.9463 0.53442 0.60184 0.0
H327 H 1.00374 0.37109 0.81965 0.0
H328 H 0.98138 0.31743 0.65283 0.0
H329 H 0.01606 0.41542 0.60527 0.0
Co330 Co 0.30169 0.45711 0.54351 0.0
C331 C 0.29651 0.52566 0.59734 0.0
C332 C 0.32813 0.51245 0.58543 0.0
C333 C 0.3274 0.54806 0.60472 0.0
N334 N 0.30883 0.4977 0.5811 0.0
N335 N 0.30756 0.55657 0.61186 0.0
H336 H 0.27989 0.52538 0.59577 0.0
H337 H 0.34173 0.50112 0.57154 0.0
C338 C 0.34306 0.42107 0.57239 0.0
O339 O 0.33583 0.42024 0.60722 0.0
N340 N 0.29551 0.41827 0.50483 0.0
C341 C 0.27717 0.40249 0.49536 0.0
C342 C 0.2786 0.38789 0.45882 0.0
C343 C 0.30775 0.41261 0.47466 0.0
N344 N 0.29801 0.39401 0.44541 0.0
C345 C 0.27636 0.42969 0.60824 0.0
C346 C 0.29002 0.35171 0.6097 0.0
C347 C 0.27302 0.36051 0.63375 0.0
C348 C 0.26762 0.40177 0.63408 0.0
C349 C 0.298 0.38007 0.5837 0.0
N350 N 0.29135 0.41888 0.58297 0.0
H351 H 0.27067 0.45998 0.60831 0.0
H352 H 0.30976 0.37046 0.56407 0.0
H353 H 0.26321 0.40565 0.51188 0.0
H354 H 0.32242 0.42767 0.47293 0.0
O355 O 0.27594 0.48612 0.52972 0.0
O356 O 0.30579 0.498 0.50351 0.0
O357 O 0.33152 0.43438 0.54537 0.0
C358 C 0.28619 0.50636 0.50415 0.0
H359 H 0.34025 0.56823 0.60968 0.0
H360 H 0.26542 0.37854 0.4422 0.0
H361 H 0.29795 0.32355 0.61045 0.0
H362 H 0.2566 0.41319 0.65434 0.0
Co363 Co 0.9692 0.8234 0.5473 0.0
C364 C 0.9728 0.75012 0.5969 0.0
C365 C 0.94155 0.76678 0.58514 0.0
C366 C 0.94135 0.73009 0.60253 0.0
N367 N 0.96123 0.77971 0.58128 0.0
N368 N 0.96092 0.71924 0.60947 0.0
H369 H 0.98944 0.75009 0.59743 0.0
H370 H 0.92807 0.78098 0.57332 0.0
C371 C 0.92859 0.87869 0.55101 0.0
O372 O 0.93827 0.91288 0.54594 0.0
N373 N 0.97663 0.86588 0.51209 0.0
C374 C 1.00188 0.89073 0.51271 0.0
C375 C 0.99739 0.9408 0.47786 0.0
C376 C 0.95764 0.89143 0.48318 0.0
N377 N 0.97026 0.93555 0.46267 0.0
C378 C 0.9999 0.84656 0.60512 0.0
C379 C 0.9805 0.9134 0.63372 0.0
C380 C 1.00028 0.90513 0.64817 0.0
C381 C 1.00963 0.87 0.63386 0.0
C382 C 0.97085 0.88784 0.60704 0.0
N383 N 0.98067 0.85563 0.59118 0.0
H384 H 1.00804 0.82091 0.5941 0.0
H385 H 0.95533 0.89447 0.60034 0.0
H386 H 1.00663 0.91745 0.49846 0.0
H387 H 0.94301 0.87905 0.47429 0.0
O388 O 0.99452 0.79461 0.53173 0.0
O389 O 0.96482 0.78643 0.50388 0.0
O390 O 0.9388 0.84534 0.55309 0.0
C391 C 0.98421 0.77612 0.50523 0.0
H392 H 0.92791 0.71139 0.60734 0.0
H393 H 1.00806 0.96341 0.4651 0.0
H394 H 0.97214 0.93943 0.64356 0.0
H395 H 0.02461 0.86091 0.6443 0.0
Co396 Co 0.71708 0.20601 0.29482 0.0
C397 C 0.72386 0.27673 0.34565 0.0
C398 C 0.69188 0.2636 0.33662 0.0
C399 C 0.69342 0.30011 0.35441 0.0
N400 N 0.7109 0.24811 0.33163 0.0
N401 N 0.71349 0.30854 0.35982 0.0
H402 H 0.74046 0.27617 0.34255 0.0
H403 H 0.67789 0.25176 0.32432 0.0
C404 C 0.67644 0.17011 0.32626 0.0
O405 O 0.68483 0.16866 0.36019 0.0
N406 N 0.72261 0.16655 0.25628 0.0
C407 C 0.74057 0.14847 0.24864 0.0
C408 C 0.74034 0.13691 0.21107 0.0
C409 C 0.71171 0.16505 0.22384 0.0
N410 N 0.72209 0.14735 0.19496 0.0
C411 C 0.74077 0.18114 0.36267 0.0
C412 C 0.73099 0.10053 0.35966 0.0
C413 C 0.74447 0.11316 0.38876 0.0
C414 C 0.74906 0.15446 0.38994 0.0
C415 C 0.7226 0.12833 0.33353 0.0
N416 N 0.72738 0.16842 0.33498 0.0
H417 H 0.74562 0.21196 0.36365 0.0
H418 H 0.71236 0.11726 0.31164 0.0
H419 H 0.75384 0.14859 0.2673 0.0
H420 H 0.69775 0.18199 0.22113 0.0
O421 O 0.74281 0.23447 0.28048 0.0
O422 O 0.71285 0.24552 0.25399 0.0
O423 O 0.68715 0.18371 0.29821 0.0
C424 C 0.73243 0.25414 0.25477 0.0
H425 H 0.68083 0.32042 0.36031 0.0
H426 H 0.75383 0.12669 0.19589 0.0
H427 H 0.72702 0.06912 0.35693 0.0
H428 H 0.75946 0.16603 0.41141 0.0
Co429 Co 0.0494 0.56849 0.30239 0.0
C430 C 0.05027 0.49688 0.35233 0.0
C431 C 0.08039 0.51403 0.33317 0.0
C432 C 0.0818 0.47724 0.35035 0.0
N433 N 0.06068 0.52689 0.33477 0.0
N434 N 0.06285 0.46633 0.362 0.0
H435 H 0.03368 0.49556 0.35488 0.0
H436 H 0.09256 0.52789 0.31683 0.0
C437 C 0.09066 0.60818 0.32648 0.0
O438 O 0.08462 0.6057 0.362 0.0
N439 N 0.03814 0.60846 0.26987 0.0
C440 C 0.01854 0.62092 0.27024 0.0
C441 C 0.01518 0.64311 0.23821 0.0
C442 C 0.04657 0.62343 0.23822 0.0
N443 N 0.03294 0.64547 0.21787 0.0
C444 C 0.02623 0.58874 0.37249 0.0
C445 C 0.03597 0.6696 0.37198 0.0
C446 C 0.0217 0.65635 0.39917 0.0
C447 C 0.01706 0.61502 0.39935 0.0
C448 C 0.04485 0.64252 0.34597 0.0
N449 N 0.04017 0.60231 0.34616 0.0
H450 H 0.02141 0.55779 0.37209 0.0
H451 H 0.05495 0.65455 0.32437 0.0
H452 H 1.00705 0.61165 0.29074 0.0
H453 H 0.06163 0.61423 0.22836 0.0
O454 O 0.02451 0.53468 0.29161 0.0
O455 O 0.05278 0.53249 0.25815 0.0
O456 O 0.07821 0.59641 0.30001 0.0
C457 C 0.03402 0.51932 0.26233 0.0
H458 H 0.09527 0.45816 0.3509 0.0
H459 H 1.00002 0.65269 0.22981 0.0
H460 H 0.04 0.70107 0.37032 0.0
H461 H 1.00601 0.60322 0.41953 0.0
Co462 Co 0.71965 0.57255 0.46739 0.0
C463 C 0.72519 0.49919 0.41945 0.0
C464 C 0.69344 0.51319 0.43015 0.0
C465 C 0.69428 0.47625 0.41319 0.0
N466 N 0.71277 0.52775 0.43436 0.0
N467 N 0.71417 0.46726 0.40678 0.0
H468 H 0.74182 0.50068 0.41963 0.0
H469 H 0.67963 0.52661 0.44152 0.0
C470 C 0.68174 0.62939 0.45376 0.0
O471 O 0.69408 0.66061 0.45119 0.0
N472 N 0.72599 0.61687 0.50154 0.0
C473 C 0.75152 0.6398 0.50633 0.0
C474 C 0.74644 0.68991 0.5393 0.0
C475 C 0.706 0.6445 0.52644 0.0
N476 N 0.71854 0.68758 0.54931 0.0
C477 C 0.75236 0.60883 0.42102 0.0
C478 C 0.72791 0.64496 0.36687 0.0
C479 C 0.74922 0.65401 0.36608 0.0
C480 C 0.76144 0.63387 0.39312 0.0
C481 C 0.71956 0.61857 0.39459 0.0
N482 N 0.73143 0.60325 0.42332 0.0
H483 H 0.76234 0.59398 0.44103 0.0
H484 H 0.70349 0.61058 0.39276 0.0
H485 H 0.76601 0.62812 0.49614 0.0
H486 H 0.69063 0.63369 0.53242 0.0
O487 O 0.74468 0.54438 0.48593 0.0
O488 O 0.71439 0.5372 0.51158 0.0
O489 O 0.68965 0.59429 0.45901 0.0
C490 C 0.73377 0.52683 0.51222 0.0
H491 H 0.68139 0.45612 0.40847 0.0
H492 H 0.75779 0.70775 0.55433 0.0
H493 H 0.71768 0.65816 0.34606 0.0
H494 H 0.77802 0.63806 0.3932 0.0
Co495 Co 0.05332 0.20279 0.47017 0.0
C496 C 0.05154 0.27485 0.42016 0.0
C497 C 0.08205 0.26229 0.44035 0.0
C498 C 0.08235 0.29904 0.42303 0.0
N499 N 0.06285 0.2465 0.43816 0.0
N500 N 0.06321 0.30703 0.41065 0.0
H501 H 0.03497 0.27376 0.41705 0.0
H502 H 0.09459 0.25025 0.45695 0.0
C503 C 0.09606 0.17181 0.44379 0.0
O504 O 0.08974 0.17447 0.40843 0.0
N505 N 0.04385 0.16018 0.50225 0.0
C506 C 0.01642 0.14916 0.50843 0.0
C507 C 0.01608 0.09503 0.53669 0.0
C508 C 0.0605 0.12168 0.52184 0.0
N509 N 0.04367 0.08344 0.54303 0.0
C510 C 0.02725 0.18059 0.40464 0.0
C511 C 0.0425 0.1043 0.3955 0.0
C512 C 0.02382 0.11269 0.37613 0.0
C513 C 0.01761 0.15345 0.37897 0.0
C514 C 0.05128 0.13155 0.42157 0.0
N515 N 0.04375 0.16945 0.4264 0.0
H516 H 0.02082 0.21017 0.40792 0.0
H517 H 0.06395 0.12114 0.43877 0.0
H518 H 1.00363 0.16759 0.49946 0.0
H519 H 0.07706 0.12308 0.52435 0.0
O520 O 0.02797 0.23298 0.48356 0.0
O521 O 0.05701 0.23838 0.51412 0.0
O522 O 0.0828 0.17862 0.47021 0.0
C523 C 0.03788 0.24957 0.51187 0.0
H524 H 0.09521 0.31983 0.42231 0.0
H525 H 1.00326 0.08088 0.55114 0.0
H526 H 0.0508 0.0768 0.39137 0.0
H527 H 1.00518 0.16497 0.36173 0.0
Co528 Co 0.80119 0.32054 0.71672 0.0
C529 C 0.79189 0.25014 0.66588 0.0
C530 C 0.82408 0.26476 0.66891 0.0
C531 C 0.82197 0.22882 0.6505 0.0
N532 N 0.80529 0.2786 0.67872 0.0
N533 N 0.8018 0.21926 0.64867 0.0
H534 H 0.77541 0.25114 0.67042 0.0
H535 H 0.83867 0.27799 0.67691 0.0
C536 C 0.84247 0.37079 0.71806 0.0
O537 O 0.83442 0.39838 0.73991 0.0
N538 N 0.79769 0.36019 0.7561 0.0
C539 C 0.78255 0.38689 0.76173 0.0
C540 C 0.78477 0.40272 0.79784 0.0
C541 C 0.80841 0.3596 0.78874 0.0
N542 N 0.80155 0.38624 0.81473 0.0
C543 C 0.77195 0.34649 0.65753 0.0
C544 C 0.78772 0.42252 0.64571 0.0
C545 C 0.77034 0.41127 0.62424 0.0
C546 C 0.76255 0.37236 0.6306 0.0
C547 C 0.79677 0.39567 0.67198 0.0
N548 N 0.78911 0.35775 0.67777 0.0
H549 H 0.76511 0.31744 0.6624 0.0
H550 H 0.80967 0.40629 0.68819 0.0
H551 H 0.76994 0.39231 0.74228 0.0
H552 H 0.82043 0.33794 0.79382 0.0
O553 O 0.77595 0.2932 0.73575 0.0
O554 O 0.80701 0.27996 0.75646 0.0
O555 O 0.83131 0.34105 0.70596 0.0
C556 C 0.78734 0.27244 0.75905 0.0
H557 H 0.83444 0.2101 0.64047 0.0
H558 H 0.77366 0.42234 0.8108 0.0
H559 H 0.79432 0.45215 0.64229 0.0
H560 H 0.7491 0.36209 0.61512 0.0
Co561 Co 0.47003 0.9561 0.71761 0.0
C562 C 0.47164 0.03592 0.67834 0.0
C563 C 0.45482 0.99235 0.64611 0.0
C564 C 0.45362 0.02855 0.6276 0.0
N565 N 0.46577 0.99686 0.67845 0.0
N566 N 0.46418 0.0559 0.64792 0.0
H567 H 0.48087 0.05004 0.70009 0.0
H568 H 0.44814 0.96475 0.63623 0.0
C569 C 0.42877 0.91491 0.68998 0.0
O570 O 0.43717 0.89974 0.65938 0.0
N571 N 0.47345 0.91675 0.75697 0.0
C572 C 0.49019 0.89572 0.7669 0.0
C573 C 0.48675 0.87965 0.80245 0.0
C574 C 0.46024 0.91313 0.78606 0.0
N575 N 0.46765 0.89022 0.81472 0.0
C576 C 0.49428 0.93183 0.6515 0.0
C577 C 0.48526 0.85086 0.65295 0.0
C578 C 0.49836 0.86491 0.62397 0.0
C579 C 0.50285 0.90615 0.62379 0.0
C580 C 0.4769 0.87759 0.68004 0.0
N581 N 0.48095 0.91796 0.67876 0.0
H582 H 0.49858 0.96315 0.65108 0.0
H583 H 0.4669 0.86561 0.70185 0.0
H584 H 0.50453 0.8953 0.7512 0.0
H585 H 0.44661 0.93141 0.78747 0.0
O586 O 0.49601 0.98279 0.73423 0.0
O587 O 0.46574 0.99643 0.7579 0.0
O588 O 0.43947 0.93716 0.71267 0.0
C589 C 0.4855 1.00329 0.75919 0.0
H590 H 0.44541 0.03453 0.60143 0.0
H591 H 0.49858 0.86536 0.81923 0.0
H592 H 0.48153 0.81927 0.65475 0.0
H593 H 0.51317 0.91844 0.60259 0.0
Co594 Co 0.79827 0.95329 0.54245 0.0
C595 C 0.79311 0.02974 0.58587 0.0
C596 C 0.82483 1.01232 0.58261 0.0
C597 C 0.82387 0.04979 0.59869 0.0
N598 N 0.80553 0.99907 0.57487 0.0
N599 N 0.80398 0.06083 0.6006 0.0
H600 H 0.77666 0.03072 0.58083 0.0
H601 H 0.83895 0.99799 0.57416 0.0
C602 C 0.84078 0.92059 0.57119 0.0
O603 O 0.83321 0.91676 0.60557 0.0
N604 N 0.79097 0.90911 0.51013 0.0
C605 C 0.76461 0.89039 0.50458 0.0
C606 C 0.76798 0.83907 0.47235 0.0
C607 C 0.81003 0.87785 0.48698 0.0
N608 N 0.79604 0.83672 0.46385 0.0
C609 C 0.77434 0.93304 0.61159 0.0
C610 C 0.786 0.85379 0.61526 0.0
C611 C 0.76905 0.86471 0.63844 0.0
C612 C 0.76497 0.90666 0.63828 0.0
C613 C 0.79479 0.88065 0.5888 0.0
N614 N 0.78885 0.9199 0.58639 0.0
H615 H 0.76949 0.96393 0.61081 0.0
H616 H 0.80643 0.86929 0.56973 0.0
H617 H 0.75072 0.90396 0.51553 0.0
H618 H 0.82597 0.88556 0.4823 0.0
O619 O 0.77244 0.98099 0.52729 0.0
O620 O 0.80165 0.98736 0.49737 0.0
O621 O 0.8285 0.93227 0.54461 0.0
C622 C 0.78239 0.9978 0.49915 0.0
H623 H 0.83688 0.06883 0.6058 0.0
H624 H 0.75614 0.82232 0.4575 0.0
H625 H 0.7929 0.82453 0.61694 0.0
H626 H 0.75464 0.91999 0.65862 0.0
Co627 Co 0.46991 0.32356 0.54607 0.0
C628 C 0.47299 0.24767 0.59095 0.0
C629 C 0.44628 0.28168 0.60579 0.0
C630 C 0.44473 0.24459 0.62244 0.0
N631 N 0.46379 0.28352 0.58505 0.0
N632 N 0.46148 0.22307 0.61298 0.0
H633 H 0.4872 0.23864 0.57796 0.0
H634 H 0.43471 0.30474 0.60763 0.0
C635 C 0.42959 0.3763 0.54251 0.0
O636 O 0.43858 0.40521 0.5235 0.0
N637 N 0.47533 0.36191 0.50638 0.0
C638 C 0.49302 0.38114 0.49841 0.0
C639 C 0.49181 0.39559 0.46177 0.0
C640 C 0.46395 0.36439 0.47467 0.0
N641 N 0.47315 0.38585 0.44671 0.0
C642 C 0.49305 0.34708 0.61435 0.0
C643 C 0.4862 0.42862 0.61035 0.0
C644 C 0.49842 0.41459 0.64053 0.0
C645 C 0.5016 0.37288 0.64223 0.0
C646 C 0.47757 0.4018 0.58362 0.0
N647 N 0.48089 0.36129 0.58549 0.0
H648 H 0.49652 0.3155 0.6159 0.0
H649 H 0.46877 0.41432 0.56076 0.0
H650 H 0.50656 0.38114 0.5164 0.0
H651 H 0.45014 0.34662 0.47143 0.0
O652 O 0.49559 0.29538 0.53067 0.0
O653 O 0.46543 0.28196 0.50644 0.0
O654 O 0.4398 0.34485 0.55276 0.0
C655 C 0.48515 0.27433 0.50598 0.0
H656 H 0.4319 0.23368 0.63925 0.0
H657 H 0.50481 0.40804 0.44667 0.0
H658 H 0.48341 0.46041 0.60722 0.0
H659 H 0.51097 0.36027 0.66469 0.0
Co660 Co 0.218 0.70633 0.2966 0.0
C661 C 0.22332 0.78274 0.33999 0.0
C662 C 0.19626 0.75032 0.35704 0.0
C663 C 0.19593 0.78739 0.37394 0.0
N664 N 0.21319 0.74749 0.33491 0.0
N665 N 0.21285 0.80794 0.36308 0.0
H666 H 0.23745 0.79093 0.32558 0.0
H667 H 0.18431 0.7279 0.3598 0.0
C668 C 0.17678 0.65601 0.29275 0.0
O669 O 0.18502 0.62902 0.27046 0.0
N670 N 0.2226 0.66675 0.2577 0.0
C671 C 0.23944 0.64432 0.252 0.0
C672 C 0.23947 0.63187 0.21463 0.0
C673 C 0.21291 0.66784 0.22397 0.0
N674 N 0.22244 0.64611 0.19673 0.0
C675 C 0.24585 0.68274 0.3579 0.0
C676 C 0.23071 0.60621 0.36975 0.0
C677 C 0.24753 0.61872 0.39218 0.0
C678 C 0.25507 0.65775 0.38565 0.0
C679 C 0.22213 0.63189 0.34198 0.0
N680 N 0.22947 0.67 0.33636 0.0
H681 H 0.25209 0.71246 0.35344 0.0
H682 H 0.20984 0.62043 0.32456 0.0
H683 H 0.25199 0.64124 0.27205 0.0
H684 H 0.20033 0.68813 0.21925 0.0
O685 O 0.24343 0.73426 0.27922 0.0
O686 O 0.21304 0.74624 0.25591 0.0
O687 O 0.18779 0.6856 0.30546 0.0
C688 C 0.23271 0.75411 0.25413 0.0
H689 H 0.18379 0.799 0.39189 0.0
H690 H 0.25251 0.61773 0.20115 0.0
H691 H 0.22446 0.5763 0.37315 0.0
H692 H 0.26811 0.66886 0.4018 0.0
Co693 Co 0.54942 0.07163 0.29627 0.0
C694 C 0.5423 0.99633 0.34132 0.0
C695 C 0.5742 1.01371 0.33932 0.0
C696 C 0.57282 0.97692 0.35653 0.0
N697 N 0.55512 0.0262 0.32959 0.0
N698 N 0.55287 0.96572 0.35752 0.0
H699 H 0.52581 0.99599 0.33651 0.0
H700 H 0.58847 0.0289 0.33266 0.0
C701 C 0.58767 0.1272 0.31134 0.0
O702 O 0.57547 0.15842 0.31418 0.0
N703 N 0.5442 0.11627 0.26187 0.0
C704 C 0.51895 0.13915 0.25424 0.0
C705 C 0.52513 0.18801 0.22018 0.0
C706 C 0.56495 0.14296 0.23777 0.0
N707 N 0.55324 0.18525 0.21256 0.0
C708 C 0.51722 0.11091 0.34102 0.0
C709 C 0.54186 0.14308 0.39729 0.0
C710 C 0.52093 0.15476 0.39674 0.0
C711 C 0.50853 0.13662 0.36865 0.0
C712 C 0.54977 0.11615 0.36973 0.0
N713 N 0.53792 0.10279 0.34005 0.0
H714 H 0.50712 0.09755 0.32021 0.0
H715 H 0.56553 0.10633 0.37227 0.0
H716 H 0.50415 0.12784 0.26344 0.0
H717 H 0.58029 0.13163 0.23294 0.0
O718 O 0.52413 0.04437 0.278 0.0
O719 O 0.5544 0.03692 0.25176 0.0
O720 O 0.5796 0.09228 0.30526 0.0
C721 C 0.53494 0.02688 0.25164 0.0
H722 H 0.58561 0.95886 0.36632 0.0
H723 H 0.51427 0.20531 0.20363 0.0
H724 H 0.55213 0.15471 0.41895 0.0
H725 H 0.49216 0.14291 0.36754 0.0
Co726 Co 0.22345 0.07359 0.46785 0.0
C727 C 0.22545 0.99499 0.42751 0.0
C728 C 0.20835 0.03887 0.39634 0.0
C729 C 0.20653 1.00254 0.378 0.0
N730 N 0.22002 0.03411 0.42772 0.0
N731 N 0.21727 0.97502 0.39775 0.0
H732 H 0.23406 0.98035 0.44959 0.0
H733 H 0.20092 0.06649 0.38815 0.0
C734 C 0.18214 0.12156 0.47027 0.0
O735 O 0.19059 0.14915 0.49176 0.0
N736 N 0.2267 0.11201 0.50842 0.0
C737 C 0.24296 0.13572 0.51593 0.0
C738 C 0.24153 0.14844 0.55316 0.0
C739 C 0.21588 0.11046 0.54093 0.0
N740 N 0.22414 0.13308 0.56909 0.0
C741 C 0.25236 0.10122 0.41038 0.0
C742 C 0.23499 0.17497 0.39511 0.0
C743 C 0.25273 0.16425 0.37465 0.0
C744 C 0.26142 0.12668 0.38286 0.0
C745 C 0.2265 0.14882 0.42258 0.0
N746 N 0.23501 0.1121 0.43 0.0
H747 H 0.25932 0.07241 0.41589 0.0
H748 H 0.21319 0.15878 0.4378 0.0
H749 H 0.25597 0.14009 0.49715 0.0
H750 H 0.20309 0.09009 0.54399 0.0
O751 O 0.24917 0.04762 0.48596 0.0
O752 O 0.21852 0.03117 0.50626 0.0
O753 O 0.19301 0.09181 0.45784 0.0
C754 C 0.23835 0.02537 0.50903 0.0
H755 H 0.19754 0.99647 0.35271 0.0
H756 H 0.25375 0.16403 0.56797 0.0
H757 H 0.22778 0.20371 0.39013 0.0
H758 H 0.27515 0.11699 0.36802 0.0
Co759 Co 0.5517 0.705 0.47119 0.0
C760 C 0.54571 0.77511 0.41879 0.0
C761 C 0.57735 0.76346 0.43185 0.0
C762 C 0.57624 0.79991 0.41399 0.0
N763 N 0.55829 0.74718 0.4346 0.0
N764 N 0.55636 0.80744 0.40607 0.0
H765 H 0.52909 0.77367 0.41937 0.0
H766 H 0.59093 0.75237 0.44604 0.0
C767 C 0.59276 0.67094 0.43956 0.0
O768 O 0.58464 0.67052 0.40538 0.0
N769 N 0.54629 0.66487 0.50923 0.0
C770 C 0.52829 0.64787 0.51904 0.0
C771 C 0.53041 0.63219 0.55511 0.0
C772 C 0.55901 0.65888 0.53879 0.0
N773 N 0.54988 0.63912 0.568 0.0
C774 C 0.52634 0.67961 0.40586 0.0
C775 C 0.53864 0.60043 0.40405 0.0
C776 C 0.52367 0.61258 0.3775 0.0
C777 C 0.51763 0.65299 0.37885 0.0
C778 C 0.54709 0.62807 0.43044 0.0
N779 N 0.54127 0.66759 0.43095 0.0
H780 H 0.52055 0.70974 0.40702 0.0
H781 H 0.55823 0.61736 0.45087 0.0
H782 H 0.51409 0.6507 0.50313 0.0
H783 H 0.57352 0.67453 0.54034 0.0
O784 O 0.52578 0.7329 0.48569 0.0
O785 O 0.55564 0.7448 0.51229 0.0
O786 O 0.58174 0.68321 0.46773 0.0
C787 C 0.53599 0.75293 0.51146 0.0
H788 H 0.58879 0.82109 0.41047 0.0
H789 H 0.51763 0.62142 0.57198 0.0
H790 H 0.54375 0.56959 0.40454 0.0
H791 H 0.50597 0.66388 0.35942 0.0
Co792 Co 0.80257 0.82099 0.21575 0.0
C793 C 0.79673 0.74663 0.16949 0.0
C794 C 0.82444 0.77809 0.15485 0.0
C795 C 0.82467 0.74139 0.1373 0.0
N796 N 0.80715 0.78123 0.17601 0.0
N797 N 0.80734 0.72142 0.14674 0.0
H798 H 0.78232 0.7388 0.18257 0.0
H799 H 0.83676 0.79987 0.15331 0.0
C800 C 0.84411 0.87071 0.21996 0.0
O801 O 0.83594 0.89826 0.24171 0.0
N802 N 0.79845 0.85943 0.25582 0.0
C803 C 0.78196 0.88254 0.26252 0.0
C804 C 0.78306 0.89597 0.29956 0.0
C805 C 0.80905 0.85886 0.28858 0.0
N806 N 0.80046 0.88162 0.31615 0.0
C807 C 0.77496 0.84722 0.15542 0.0
C808 C 0.79061 0.92361 0.14515 0.0
C809 C 0.77374 0.91196 0.12251 0.0
C810 C 0.76594 0.87301 0.12818 0.0
C811 C 0.79904 0.89709 0.17232 0.0
N812 N 0.79143 0.85907 0.1772 0.0
H813 H 0.76854 0.81756 0.15925 0.0
H814 H 0.81146 0.90785 0.18974 0.0
H815 H 0.76908 0.8861 0.24329 0.0
H816 H 0.82191 0.83894 0.29232 0.0
O817 O 0.77666 0.79397 0.23255 0.0
O818 O 0.80689 0.7785 0.25467 0.0
O819 O 0.83302 0.84099 0.20766 0.0
C820 C 0.78705 0.77185 0.25627 0.0
H821 H 0.83703 0.72957 0.11997 0.0
H822 H 0.77065 0.91132 0.3138 0.0
H823 H 0.79706 0.95344 0.14231 0.0
H824 H 0.75285 0.86258 0.11175 0.0
Co825 Co 0.47368 0.45478 0.2168 0.0
C826 C 0.48059 0.52896 0.17043 0.0
C827 C 0.44858 0.51466 0.17822 0.0
C828 C 0.44994 0.55171 0.16161 0.0
N829 N 0.46775 0.50021 0.18405 0.0
N830 N 0.47 0.56092 0.15704 0.0
H831 H 0.4972 0.52749 0.17185 0.0
H832 H 0.43445 0.50103 0.18817 0.0
C833 C 0.43603 0.39862 0.20054 0.0
O834 O 0.44857 0.36799 0.19724 0.0
N835 N 0.47882 0.40968 0.2505 0.0
C836 C 0.50323 0.38265 0.25511 0.0
C837 C 0.49592 0.33397 0.28874 0.0
C838 C 0.45776 0.38571 0.27601 0.0
N839 N 0.4683 0.34107 0.29917 0.0
C840 C 0.50604 0.41568 0.1728 0.0
C841 C 0.48183 0.38574 0.11483 0.0
C842 C 0.50244 0.37247 0.11696 0.0
C843 C 0.51467 0.3891 0.146 0.0
C844 C 0.47382 0.4123 0.14254 0.0
N845 N 0.48542 0.42444 0.17299 0.0
H846 H 0.51604 0.42901 0.19378 0.0
H847 H 0.45821 0.42286 0.13954 0.0
H848 H 0.51826 0.39192 0.24524 0.0
H849 H 0.44302 0.39915 0.28215 0.0
O850 O 0.49885 0.48166 0.23665 0.0
O851 O 0.46834 0.48952 0.26124 0.0
O852 O 0.44368 0.43378 0.20701 0.0
C853 C 0.48784 0.49909 0.26279 0.0
H854 H 0.43722 0.57181 0.15599 0.0
H855 H 0.50646 0.31474 0.30402 0.0
H856 H 0.47193 0.37542 0.09204 0.0
H857 H 0.53086 0.38149 0.14809 0.0
Co858 Co 0.80137 0.45086 0.04622 0.0
C859 C 0.79728 0.53227 0.08255 0.0
C860 C 0.82134 0.49711 0.10752 0.0
C861 C 0.82121 0.53392 0.12493 0.0
N862 N 0.80633 0.49569 0.08087 0.0
N863 N 0.80617 0.55598 0.10921 0.0
H864 H 0.78494 0.54207 0.06412 0.0
H865 H 0.83229 0.47366 0.11344 0.0
C866 C 0.83958 0.39626 0.06178 0.0
O867 O 0.82729 0.36497 0.06403 0.0
N868 N 0.79695 0.40631 0.01157 0.0
C869 C 0.77293 0.37781 1.00636 0.0
C870 C 0.78082 0.3307 0.9714 0.0
C871 C 0.8183 0.38455 0.98532 0.0
N872 N 0.80831 0.33994 0.96101 0.0
C873 C 0.76831 0.41182 0.08877 0.0
C874 C 0.7915 0.37989 0.14698 0.0
C875 C 0.77054 0.36881 0.14499 0.0
C876 C 0.75889 0.38608 0.11556 0.0
C877 C 0.80034 0.4053 0.11916 0.0
N878 N 0.78912 0.41919 0.08895 0.0
H879 H 0.7587 0.42559 0.06749 0.0
H880 H 0.81623 0.41367 0.12225 0.0
H881 H 0.75783 0.38565 0.01681 0.0
H882 H 0.83282 0.39919 0.97944 0.0
O883 O 0.77624 0.47735 0.02632 0.0
O884 O 0.80687 0.48579 1.00195 0.0
O885 O 0.83162 0.43127 0.05619 0.0
C886 C 0.78734 0.49478 1.00021 0.0
H887 H 0.83185 0.54433 0.14652 0.0
H888 H 0.77052 0.31111 0.95579 0.0
H889 H 0.80109 0.36867 0.16979 0.0
H890 H 0.74254 0.37974 0.11325 0.0
Co891 Co 0.46943 0.82206 0.04575 0.0
C892 C 0.47849 0.75082 0.09448 0.0
C893 C 0.44611 0.75921 0.0843 0.0
C894 C 0.44874 0.72329 0.1026 0.0
N895 N 0.46469 0.77666 0.07913 0.0
N896 N 0.46903 0.71777 0.10872 0.0
H897 H 0.49505 0.75503 0.09347 0.0
H898 H 0.43165 0.77034 0.07333 0.0
C899 C 0.43072 0.87549 0.06171 0.0
O900 O 0.44278 0.90713 0.06424 0.0
N901 N 0.47378 0.86694 0.01127 0.0
C902 C 0.49863 0.89178 1.00336 0.0
C903 C 0.49154 0.93981 0.96899 0.0
C904 C 0.45254 0.8918 0.98707 0.0
N905 N 0.4635 0.93477 0.96148 0.0
C906 C 0.50155 0.86393 0.08845 0.0
C907 C 0.47777 0.8928 0.14717 0.0
C908 C 0.49832 0.90675 0.14462 0.0
C909 C 0.51029 0.89078 0.11504 0.0
C910 C 0.46959 0.86605 0.11957 0.0
N911 N 0.48103 0.85402 0.08895 0.0
H912 H 0.51148 0.85108 0.06725 0.0
H913 H 0.45401 0.85515 0.12292 0.0
H914 H 0.5137 0.88145 0.0119 0.0
H915 H 0.43738 0.87925 0.98242 0.0
O916 O 0.49494 0.79633 0.02681 0.0
O917 O 0.46449 0.78641 1.00165 0.0
O918 O 0.439 0.84081 0.05574 0.0
C919 C 0.48409 0.77774 1.00108 0.0
H920 H 0.43673 0.70184 0.10943 0.0
H921 H 0.50209 0.95757 0.95208 0.0
H922 H 0.46802 0.90273 0.17025 0.0
H923 H 0.5264 0.89902 0.11242 0.0
Co924 Co 0.22157 0.20516 0.79406 0.0
C925 C 0.22487 0.27896 0.84235 0.0
C926 C 0.194 0.26734 0.8233 0.0
C927 C 0.19436 0.30403 0.84093 0.0
N928 N 0.21299 0.25089 0.8247 0.0
N929 N 0.21372 0.31143 0.8527 0.0
H930 H 0.24145 0.27734 0.84499 0.0
H931 H 0.18103 0.25538 0.80768 0.0
C932 C 0.17813 0.17635 0.82098 0.0
O933 O 0.1846 0.17765 0.85632 0.0
N934 N 0.23018 0.16072 0.76327 0.0
C935 C 0.25694 0.14412 0.75992 0.0
C936 C 0.25519 0.0924 0.72778 0.0
C937 C 0.21222 0.12781 0.73885 0.0
N938 N 0.2274 0.08775 0.71708 0.0
C939 C 0.24641 0.18575 0.86217 0.0
C940 C 0.23221 0.10802 0.8708 0.0
C941 C 0.24837 0.12054 0.89474 0.0
C942 C 0.25526 0.16037 0.89016 0.0
C943 C 0.22367 0.13435 0.84348 0.0
N944 N 0.23055 0.17308 0.83926 0.0
H945 H 0.25305 0.21506 0.85798 0.0
H946 H 0.21198 0.12273 0.82454 0.0
H947 H 0.27034 0.15888 0.77184 0.0
H948 H 0.19642 0.13442 0.73232 0.0
O949 O 0.24736 0.23428 0.78006 0.0
O950 O 0.21841 0.23839 0.74843 0.0
O951 O 0.19144 0.18283 0.79443 0.0
C952 C 0.23753 0.24976 0.75114 0.0
H953 H 0.18163 0.32483 0.84303 0.0
H954 H 0.26763 0.07657 0.71395 0.0
H955 H 0.22644 0.07759 0.87262 0.0
H956 H 0.26788 0.17151 0.90739 0.0
Co957 Co 0.55093 0.57395 0.79538 0.0
C958 C 0.5455 0.50028 0.84298 0.0
C959 C 0.57669 0.50941 0.82467 0.0
C960 C 0.5753 0.47218 0.84092 0.0
N961 N 0.55819 0.52778 0.82653 0.0
N962 N 0.55573 0.46623 0.85226 0.0
H963 H 0.52894 0.50356 0.84501 0.0
H964 H 0.58986 0.52027 0.80891 0.0
C965 C 0.59444 0.59725 0.82589 0.0
O966 O 0.58795 0.5889 0.86028 0.0
N967 N 0.54407 0.61862 0.76375 0.0
C968 C 0.51828 0.63968 0.75842 0.0
C969 C 0.52282 0.68905 0.72386 0.0
C970 C 0.56377 0.6467 0.73855 0.0
N971 N 0.55082 0.68806 0.71419 0.0
C972 C 0.52077 0.59918 0.85232 0.0
C973 C 0.54197 0.66457 0.88058 0.0
C974 C 0.52146 0.6594 0.89314 0.0
C975 C 0.5109 0.62594 0.8778 0.0
C976 C 0.55063 0.63916 0.85273 0.0
N977 N 0.5405 0.6057 0.83965 0.0
H978 H 0.51199 0.57423 0.84122 0.0
H979 H 0.56518 0.64809 0.84071 0.0
H980 H 0.50409 0.62747 0.76975 0.0
H981 H 0.57926 0.63658 0.73305 0.0
O982 O 0.52546 0.54572 0.77935 0.0
O983 O 0.5549 0.54083 0.74978 0.0
O984 O 0.58094 0.59625 0.79897 0.0
C985 C 0.53568 0.52965 0.75136 0.0
H986 H 0.5873 0.44971 0.84141 0.0
H987 H 0.51132 0.70591 0.70841 0.0
H988 H 0.55107 0.68965 0.89075 0.0
H989 H 0.49491 0.62052 0.88516 0.0
Co990 Co 0.223 0.57138 0.97021 0.0
C991 C 0.22518 0.49916 0.92004 0.0
C992 C 0.1942 0.51422 0.93531 0.0
C993 C 0.19391 0.47766 0.91752 0.0
N994 N 0.21376 0.52834 0.93663 0.0
N995 N 0.21336 0.46801 0.9082 0.0
H996 H 0.24181 0.49912 0.91908 0.0
H997 H 0.18116 0.52708 0.94982 0.0
C998 C 0.18053 0.60607 0.94434 0.0
O999 O 0.18726 0.60741 0.9092 0.0
N1000 N 0.23211 0.61331 1.00384 0.0
C1001 C 0.25922 0.62772 0.00871 0.0
C1002 C 0.25825 0.68057 0.03928 0.0
C1003 C 0.21459 0.64845 0.02612 0.0
N1004 N 0.23042 0.68792 0.04787 0.0
C1005 C 0.24809 0.59317 0.9035 0.0
C1006 C 0.23488 0.67167 0.89777 0.0
C1007 C 0.25061 0.65934 0.87302 0.0
C1008 C 0.25716 0.61926 0.87633 0.0
C1009 C 0.22642 0.64491 0.92472 0.0
N1010 N 0.23265 0.60573 0.9272 0.0
H1011 H 0.25408 0.56322 0.90627 0.0
H1012 H 0.21509 0.65633 0.94435 0.0
H1013 H 0.27241 0.61152 0.99803 0.0
H1014 H 0.19825 0.64425 0.03016 0.0
O1015 O 0.24844 0.54119 0.98321 0.0
O1016 O 0.21932 0.53442 0.01323 0.0
O1017 O 0.19338 0.59547 0.97042 0.0
C1018 C 0.23851 0.52352 0.01085 0.0
H1019 H 0.18068 0.45796 0.91465 0.0
H1020 H 0.27083 0.69581 0.05351 0.0
H1021 H 0.22944 0.70229 0.8969 0.0
H1022 H 0.26944 0.60827 0.85834 0.0
Co1023 Co 0.55206 0.20577 0.96698 0.0
C1024 C 0.54355 0.27782 0.91879 0.0
C1025 C 0.57542 0.26071 0.91792 0.0
C1026 C 0.57354 0.29713 0.90009 0.0
N1027 N 0.55668 0.24838 0.92992 0.0
N1028 N 0.5536 0.30819 0.90096 0.0
H1029 H 0.52726 0.27824 0.92544 0.0
H1030 H 0.58985 0.24586 0.92376 0.0
C1031 C 0.58917 0.14871 0.95956 0.0
O1032 O 0.57635 0.1186 0.96455 0.0
N1033 N 0.54811 0.1648 1.00572 0.0
C1034 C 0.53153 0.14228 0.01453 0.0
C1035 C 0.53405 0.12719 0.05068 0.0
C1036 C 0.56028 0.16282 0.03669 0.0
N1037 N 0.55239 0.13972 0.06498 0.0
C1038 C 0.51964 0.16162 0.92605 0.0
C1039 C 0.54395 0.13072 0.86883 0.0
C1040 C 0.52317 0.11822 0.87018 0.0
C1041 C 0.51096 0.135 0.89909 0.0
C1042 C 0.55203 0.15738 0.89651 0.0
N1043 N 0.54028 0.17073 0.92623 0.0
H1044 H 0.5096 0.17502 0.94688 0.0
H1045 H 0.56773 0.16772 0.89358 0.0
H1046 H 0.5175 0.14012 0.99832 0.0
H1047 H 0.57341 0.18241 0.03956 0.0
O1048 O 0.52693 0.2334 0.98508 0.0
O1049 O 0.55776 0.24462 0.00802 0.0
O1050 O 0.58198 0.18473 0.95827 0.0
C1051 C 0.53821 0.25324 0.0094 0.0
H1052 H 0.58604 0.31517 0.88885 0.0
H1053 H 0.52191 0.11235 0.06632 0.0
H1054 H 0.5539 0.12014 0.84631 0.0
H1055 H 0.49468 0.12773 0.90075 0.0
C1056 C 0.31922 0.44283 0.35989 0.0
C1057 C 0.3025 0.43365 0.33645 0.0
C1058 C 0.29129 0.37963 0.37622 0.0
C1059 C 0.30422 0.39544 0.40557 0.0
N1060 N 0.33959 0.41784 0.41239 0.0
N1061 N 0.28651 0.38417 0.30487 0.0
C1062 C 0.32115 0.42037 0.39405 0.0
C1063 C 0.292 0.39905 0.34059 0.0
N1064 N 0.333 0.47147 0.3492 0.0
N1065 N 0.27936 0.34668 0.38202 0.0
H1066 H 0.29423 0.41991 0.25138 0.0
H1067 H 0.2802 0.35492 0.307 0.0
H1068 H 0.2808 0.32951 0.40664 0.0
H1069 H 0.26869 0.33654 0.36199 0.0
H1070 H 0.34499 0.48127 0.36664 0.0
H1071 H 0.33127 0.48677 0.32351 0.0
H1072 H 0.35272 0.43356 0.40393 0.0
H1073 H 0.34214 0.39585 0.43295 0.0
C1074 C 0.98172 0.89599 0.42131 0.0
C1075 C 0.97011 0.92933 0.42393 0.0
C1076 C 0.95245 0.91237 0.36631 0.0
C1077 C 0.9702 0.8897 0.3556 0.0
N1078 N 0.99585 0.84379 0.38132 0.0
N1079 N 0.93884 0.96333 0.40912 0.0
C1080 C 0.98334 0.87592 0.38584 0.0
C1081 C 0.95347 0.93602 0.3997 0.0
N1082 N 0.98737 0.88312 0.458 0.0
N1083 N 0.93424 0.90685 0.34768 0.0
H1084 H 0.93986 0.97956 0.43443 0.0
H1085 H 0.92679 0.97115 0.39099 0.0
H1086 H 0.93269 0.88474 0.32686 0.0
H1087 H 0.92052 0.92055 0.35582 0.0
H1088 H 0.9947 0.85482 0.4572 0.0
H1089 H 0.97756 0.91959 0.50958 0.0
H1090 H 1.00621 0.83475 0.40229 0.0
H1091 H 0.9949 0.82571 0.3572 0.0
C1092 C 0.32362 0.93245 0.86699 0.0
C1093 C 0.30712 0.92632 0.84233 0.0
C1094 C 0.29233 0.87449 0.88051 0.0
C1095 C 0.30523 0.88803 0.91104 0.0
N1096 N 0.34125 0.90413 0.92128 0.0
N1097 N 0.28789 0.88299 0.80889 0.0
C1098 C 0.32358 0.90967 0.90105 0.0
C1099 C 0.29462 0.89427 0.84519 0.0
N1100 N 0.33887 0.95876 0.85773 0.0
N1101 N 0.27908 0.84326 0.88506 0.0
H1102 H 0.29747 0.91986 0.75713 0.0
H1103 H 0.27969 0.85548 0.80971 0.0
H1104 H 0.27931 0.8258 0.90965 0.0
H1105 H 0.26871 0.83444 0.86398 0.0
H1106 H 0.35084 0.96629 0.87621 0.0
H1107 H 0.33847 0.97445 0.83207 0.0
H1108 H 0.35531 0.91725 0.91399 0.0
H1109 H 0.34201 0.88254 0.94271 0.0
C1110 C 0.98173 0.3994 0.92297 0.0
C1111 C 0.97365 0.43604 0.92799 0.0
C1112 C 0.95343 0.42904 0.87117 0.0
C1113 C 0.96776 0.39914 0.8588 0.0
N1114 N 0.98824 0.34304 0.88131 0.0
N1115 N 0.94678 0.48301 0.91649 0.0
C1116 C 0.97986 0.37972 0.88746 0.0
C1117 C 0.95773 0.45047 0.90523 0.0
N1118 N 0.98807 0.38417 0.95812 0.0
N1119 N 0.93461 0.43191 0.85424 0.0
H1120 H 0.95009 0.49738 0.94216 0.0
H1121 H 0.93564 0.49657 0.8995 0.0
H1122 H 0.92961 0.41029 0.83483 0.0
H1123 H 0.92318 0.45153 0.86337 0.0
H1124 H 0.9927 0.35392 0.95563 0.0
H1125 H 0.98444 0.42161 0.01199 0.0
H1126 H 0.99806 0.32921 0.90071 0.0
H1127 H 0.98468 0.32654 0.85697 0.0
C1128 C 0.69771 0.67067 0.64564 0.0
C1129 C 0.71411 0.64498 0.65768 0.0
C1130 C 0.72693 0.64735 0.59282 0.0
C1131 C 0.71655 0.68175 0.58806 0.0
N1132 N 0.68654 0.72094 0.59951 0.0
N1133 N 0.73726 0.5932 0.6342 0.0
C1134 C 0.6999 0.69209 0.61098 0.0
C1135 C 0.72685 0.62789 0.62858 0.0
N1136 N 0.67949 0.67019 0.66474 0.0
N1137 N 0.73386 0.63358 0.55744 0.0
H1138 H 0.73393 0.57462 0.65723 0.0
H1139 H 0.74796 0.58223 0.61476 0.0
H1140 H 0.72793 0.6706 0.50401 0.0
H1141 H 0.74023 0.6045 0.55958 0.0
H1142 H 0.66657 0.6864 0.65632 0.0
H1143 H 0.67695 0.64945 0.68644 0.0
H1144 H 0.67456 0.73148 0.61646 0.0
H1145 H 0.68848 0.73544 0.57345 0.0
C1146 C 0.06003 0.07157 0.64419 0.0
C1147 C 0.05185 0.11009 0.65591 0.0
C1148 C 0.04189 0.12244 0.59046 0.0
C1149 C 0.04709 0.08515 0.58182 0.0
N1150 N 0.06569 0.02505 0.59079 0.0
N1151 N 0.03708 0.17393 0.63776 0.0
C1152 C 0.05785 0.05954 0.60542 0.0
C1153 C 0.04383 0.13685 0.62784 0.0
N1154 N 0.06894 0.04619 0.66957 0.0
N1155 N 0.0358 0.14197 0.55733 0.0
H1156 H 0.03954 0.1856 0.6649 0.0
H1157 H 0.02879 0.19219 0.61932 0.0
H1158 H 0.03537 0.1088 0.50056 0.0
H1159 H 0.03293 0.17268 0.56255 0.0
H1160 H 0.07367 0.01736 0.66286 0.0
H1161 H 0.07227 0.05367 0.69731 0.0
H1162 H 0.07508 1.00532 0.60567 0.0
H1163 H 0.06321 0.01745 0.56236 0.0
C1164 C 0.70579 0.18453 0.14051 0.0
C1165 C 0.71848 0.15246 0.15427 0.0
C1166 C 0.73375 0.14996 0.0914 0.0
C1167 C 0.72751 0.18774 0.08531 0.0
N1168 N 0.70271 0.23926 0.09463 0.0
N1169 N 0.739 0.09517 0.13509 0.0
C1170 C 0.71188 0.20506 0.10685 0.0
C1171 C 0.73076 0.13152 0.12707 0.0
N1172 N 0.6866 0.19015 0.15515 0.0
N1173 N 0.73947 0.13256 0.05694 0.0
H1174 H 0.73486 0.07934 0.1595 0.0
H1175 H 0.74973 0.08148 0.11731 0.0
H1176 H 0.73837 0.16901 1.00212 0.0
H1177 H 0.74252 0.10162 0.06037 0.0
H1178 H 0.67642 0.21177 0.14507 0.0
H1179 H 0.67982 0.16858 0.17267 0.0
H1180 H 0.69189 0.25481 0.11072 0.0
H1181 H 0.70723 0.25284 0.06921 0.0
C1182 C 0.01849 0.65987 0.15381 0.0
C1183 C 0.03565 0.6567 0.1783 0.0
C1184 C 0.05814 0.64606 0.12366 0.0
C1185 C 0.04048 0.64178 0.10031 0.0
N1186 N 1.00325 0.6424 0.09372 0.0
N1187 N 0.07184 0.67057 0.18335 0.0
C1188 C 0.02045 0.64756 0.1156 0.0
C1189 C 0.05564 0.65686 0.16225 0.0
N1190 N 1.00159 0.68081 0.16518 0.0
N1191 N 0.07721 0.63824 0.10903 0.0
H1192 H 0.06957 0.68249 0.21043 0.0
H1193 H 0.0867 0.67448 0.17272 0.0
H1194 H 0.0793 0.62906 0.08098 0.0
H1195 H 0.09058 0.63729 0.12543 0.0
H1196 H 0.98888 0.6862 0.14781 0.0
H1197 H 1.00218 0.69912 0.18918 0.0
H1198 H 0.98842 0.6417 0.10516 0.0
H1199 H 1.00365 0.63708 0.06467 0.0
C1200 C 0.79704 0.37979 0.91929 0.0
C1201 C 0.80958 0.348 0.9225 0.0
C1202 C 0.82657 0.36514 0.86438 0.0
C1203 C 0.80845 0.38717 0.85419 0.0
N1204 N 0.78359 0.43376 0.88068 0.0
N1205 N 0.84186 0.31728 0.90892 0.0
C1206 C 0.7955 0.40066 0.8844 0.0
C1207 C 0.82651 0.34276 0.89874 0.0
N1208 N 0.78971 0.39025 0.95528 0.0
N1209 N 0.84378 0.36826 0.84246 0.0
H1210 H 0.84126 0.30179 0.93469 0.0
H1211 H 0.85432 0.31049 0.89145 0.0
H1212 H 0.84419 0.38765 0.81919 0.0
H1213 H 0.85776 0.3547 0.84917 0.0
H1214 H 0.78172 0.41778 0.95441 0.0
H1215 H 0.79827 0.35268 1.0071 0.0
H1216 H 0.77281 0.4422 0.90101 0.0
H1217 H 0.78598 0.45403 0.85858 0.0
C1218 C 0.44474 0.93718 0.89924 0.0
C1219 C 0.46098 0.92687 0.92315 0.0
C1220 C 0.47197 0.87286 0.8837 0.0
C1221 C 0.46008 0.89015 0.85374 0.0
N1222 N 0.42573 0.91606 0.84331 0.0
N1223 N 0.4798 0.88169 0.95422 0.0
C1224 C 0.44337 0.91592 0.86429 0.0
C1225 C 0.4718 0.89306 0.91899 0.0
N1226 N 0.43121 0.96611 0.90978 0.0
N1227 N 0.48202 0.83766 0.87866 0.0
H1228 H 0.47441 0.9206 1.00656 0.0
H1229 H 0.48665 0.85308 0.95268 0.0
H1230 H 0.47985 0.82061 0.85411 0.0
H1231 H 0.49145 0.82508 0.89932 0.0
H1232 H 0.41956 0.97668 0.89205 0.0
H1233 H 0.43266 0.98054 0.93599 0.0
H1234 H 0.4127 0.93251 0.85062 0.0
H1235 H 0.42366 0.89596 0.82087 0.0
C1236 C 0.81633 0.83024 0.40425 0.0
C1237 C 0.79918 0.84211 0.42522 0.0
C1238 C 0.79239 0.89799 0.3844 0.0
C1239 C 0.80521 0.87936 0.35662 0.0
N1240 N 0.83918 0.84992 0.35299 0.0
N1241 N 0.78321 0.89287 0.45429 0.0
C1242 C 0.82036 0.85159 0.37006 0.0
C1243 C 0.79027 0.878 0.41961 0.0
N1244 N 0.82849 0.80007 0.41722 0.0
N1245 N 0.78386 0.9345 0.37805 0.0
H1246 H 0.78668 0.8558 0.50844 0.0
H1247 H 0.778 0.92275 0.45152 0.0
H1248 H 0.78806 0.95165 0.35448 0.0
H1249 H 0.7735 0.94782 0.39677 0.0
H1250 H 0.84076 0.78836 0.40176 0.0
H1251 H 0.82517 0.78563 0.44283 0.0
H1252 H 0.85118 0.83188 0.36254 0.0
H1253 H 0.84324 0.87043 0.33185 0.0
C1254 C 0.44979 0.34113 0.36113 0.0
C1255 C 0.46679 0.34792 0.33784 0.0
C1256 C 0.48021 0.40008 0.37742 0.0
C1257 C 0.46688 0.38578 0.40688 0.0
N1258 N 0.43103 0.3673 0.41516 0.0
N1259 N 0.48622 0.39241 0.30638 0.0
C1260 C 0.44899 0.36337 0.39552 0.0
C1261 C 0.47891 0.38036 0.34197 0.0
N1262 N 0.43492 0.3146 0.35039 0.0
N1263 N 0.49273 0.4323 0.38272 0.0
H1264 H 0.47824 0.35588 0.25352 0.0
H1265 H 0.49398 0.42035 0.30806 0.0
H1266 H 0.49107 0.4509 0.40634 0.0
H1267 H 0.50366 0.4413 0.36274 0.0
H1268 H 0.42259 0.30654 0.36777 0.0
H1269 H 0.43596 0.29934 0.32457 0.0
H1270 H 0.41726 0.35353 0.40708 0.0
H1271 H 0.42973 0.38806 0.43722 0.0
C1272 C 0.23177 0.62913 0.12913 0.0
C1273 C 0.21899 0.64953 0.15587 0.0
C1274 C 0.21073 0.69989 0.10737 0.0
C1275 C 0.22723 0.68451 0.08671 0.0
N1276 N 0.24074 0.63019 0.05912 0.0
N1277 N 0.18589 0.6829 0.156 0.0
C1278 C 0.23455 0.6475 0.09335 0.0
C1279 C 0.2052 0.67932 0.14126 0.0
N1280 N 0.24012 0.59286 0.13713 0.0
N1281 N 0.20032 0.73232 0.0942 0.0
H1282 H 0.18031 0.6623 0.17587 0.0
H1283 H 0.17482 0.70227 0.14503 0.0
H1284 H 0.20451 0.74601 0.06864 0.0
H1285 H 0.18871 0.74644 0.10961 0.0
H1286 H 0.25114 0.57955 0.11972 0.0
H1287 H 0.23543 0.57633 0.16078 0.0
H1288 H 0.2446 0.59964 0.06288 0.0
H1289 H 0.23876 0.66575 1.00388 0.0
C1290 C 0.54617 0.12325 0.13426 0.0
C1291 C 0.55861 0.1409 0.10493 0.0
C1292 C 0.57261 0.18882 0.15128 0.0
C1293 C 0.55601 0.17796 0.1742 0.0
N1294 N 0.53782 0.13102 0.20489 0.0
N1295 N 0.59301 0.16795 0.09714 0.0
C1296 C 0.54569 0.14339 0.16969 0.0
C1297 C 0.57488 0.16737 0.11664 0.0
N1298 N 0.53636 0.08766 0.12885 0.0
N1299 N 0.58574 0.21837 0.16257 0.0
H1300 H 0.59572 0.14766 0.07513 0.0
H1301 H 0.60577 0.18491 0.10536 0.0
H1302 H 0.58369 0.23291 0.18856 0.0
H1303 H 0.59763 0.22934 0.14556 0.0
H1304 H 0.52647 0.07508 0.14892 0.0
H1305 H 0.53922 0.07029 0.10479 0.0
H1306 H 0.53136 0.10194 0.2031 0.0
H1307 H 0.54265 0.16989 0.25755 0.0
C1308 C 0.20415 0.1014 0.62224 0.0
C1309 C 0.21915 0.12999 0.60944 0.0
C1310 C 0.23338 0.12925 0.67308 0.0
C1311 C 0.22492 0.0927 0.6782 0.0
N1312 N 0.19601 0.04943 0.66904 0.0
N1313 N 0.23969 0.18615 0.63189 0.0
C1314 C 0.20806 0.08013 0.65653 0.0
C1315 C 0.23148 0.14917 0.63779 0.0
N1316 N 0.18549 0.09898 0.60461 0.0
N1317 N 0.23946 0.14482 0.7082 0.0
H1318 H 0.23558 0.20323 0.60825 0.0
H1319 H 0.24973 0.19979 0.65107 0.0
H1320 H 0.23542 0.10778 0.76227 0.0
H1321 H 0.24414 0.17512 0.70565 0.0
H1322 H 0.17358 0.08028 0.61366 0.0
H1323 H 0.18139 0.11956 0.5836 0.0
H1324 H 0.18397 0.03721 0.65315 0.0
H1325 H 0.19919 0.03507 0.69474 0.0
C1326 C 0.54353 0.62442 0.63713 0.0
C1327 C 0.55631 0.64059 0.60777 0.0
C1328 C 0.5703 0.68968 0.65307 0.0
C1329 C 0.5533 0.68039 0.67573 0.0
N1330 N 0.53611 0.63297 0.70757 0.0
N1331 N 0.5912 0.6656 0.60083 0.0
C1332 C 0.54315 0.64545 0.672 0.0
C1333 C 0.57276 0.66681 0.61924 0.0
N1334 N 0.53287 0.58973 0.63193 0.0
N1335 N 0.58354 0.71928 0.66374 0.0
H1336 H 0.59409 0.64387 0.58019 0.0
H1337 H 0.60402 0.68237 0.60913 0.0
H1338 H 0.58128 0.73504 0.68903 0.0
H1339 H 0.59566 0.72923 0.64673 0.0
H1340 H 0.5226 0.57834 0.65202 0.0
H1341 H 0.53496 0.57242 0.60754 0.0
H1342 H 0.52991 0.60361 0.70618 0.0
H1343 H 0.54143 0.67213 0.75992 0.0
C1344 C 0.37886 0.38015 0.22756 0.0
C1345 C 0.37073 0.36086 0.19454 0.0
C1346 C 0.4054 0.36839 0.1649 0.0
C1347 C 0.41286 0.39073 0.19658 0.0
N1348 N 0.40427 0.42552 0.25454 0.0
N1349 N 0.38024 0.3213 0.14008 0.0
C1350 C 0.39881 0.39916 0.22664 0.0
C1351 C 0.38508 0.35109 0.16525 0.0
N1352 N 0.36904 0.37565 0.26147 0.0
N1353 N 0.41747 0.36508 0.13329 0.0
H1354 H 0.367 0.30368 0.14261 0.0
H1355 H 0.3906 0.30977 0.12039 0.0
H1356 H 0.43216 0.37756 0.13149 0.0
H1357 H 0.41212 0.35388 0.10749 0.0
H1358 H 0.37474 0.3869 0.28701 0.0
H1359 H 0.35776 0.35387 0.26545 0.0
H1360 H 0.39389 0.4359 0.27483 0.0
H1361 H 0.41835 0.44058 0.255 0.0
C1362 C 0.89162 0.91593 0.17131 0.0
C1363 C 0.90826 0.90415 0.19556 0.0
C1364 C 0.88264 0.86745 0.23507 0.0
C1365 C 0.86655 0.87645 0.2089 0.0
N1366 N 0.85712 0.90166 0.14747 0.0
N1367 N 0.91946 0.85999 0.24586 0.0
C1368 C 0.87158 0.89802 0.17546 0.0
C1369 C 0.90371 0.87753 0.22623 0.0
N1370 N 0.89436 0.94647 0.14596 0.0
N1371 N 0.87781 0.84953 0.26878 0.0
H1372 H 0.93494 0.86433 0.23908 0.0
H1373 H 0.91717 0.83774 0.26617 0.0
H1374 H 0.86294 0.8395 0.27516 0.0
H1375 H 0.88825 0.84685 0.29114 0.0
H1376 H 0.88232 0.95882 0.13028 0.0
H1377 H 0.90799 0.96293 0.14383 0.0
H1378 H 0.8604 0.91353 0.12079 0.0
H1379 H 0.84246 0.88884 0.14958 0.0
C1380 C 0.37088 0.87742 0.04425 0.0
C1381 C 0.36451 0.90625 0.07175 0.0
C1382 C 0.40032 0.90634 0.09706 0.0
C1383 C 0.4074 0.88156 0.06684 0.0
N1384 N 0.3988 0.84557 0.00943 0.0
N1385 N 0.375 0.95363 0.11996 0.0
C1386 C 0.39246 0.86752 0.03992 0.0
C1387 C 0.37975 0.92203 0.09695 0.0
N1388 N 0.35621 0.85792 0.02327 0.0
N1389 N 0.41303 0.91369 0.12727 0.0
H1390 H 0.36048 0.96678 0.12082 0.0
H1391 H 0.38603 0.96956 0.13538 0.0
H1392 H 0.42781 0.90182 0.12946 0.0
H1393 H 0.40809 0.92756 0.15214 0.0
H1394 H 0.35938 0.83359 1.00577 0.0
H1395 H 0.34048 0.86377 0.0258 0.0
H1396 H 0.38944 0.83952 0.98607 0.0
H1397 H 0.41379 0.83505 1.00638 0.0
C1398 C 0.89693 0.37972 0.03496 0.0
C1399 C 0.90508 0.3602 0.0678 0.0
C1400 C 0.87034 0.36668 0.0974 0.0
C1401 C 0.86282 0.38917 0.06592 0.0
N1402 N 0.87139 0.42486 0.00845 0.0
N1403 N 0.89561 0.32004 0.12197 0.0
C1404 C 0.8769 0.39822 0.03601 0.0
C1405 C 0.89071 0.34988 0.09697 0.0
N1406 N 0.90686 0.37609 1.00108 0.0
N1407 N 0.85827 0.36274 0.12895 0.0
H1408 H 0.90892 0.30283 0.11943 0.0
H1409 H 0.88526 0.30807 0.14153 0.0
H1410 H 0.84353 0.37471 0.13077 0.0
H1411 H 0.86365 0.35154 0.1547 0.0
H1412 H 0.90109 0.38736 0.97563 0.0
H1413 H 0.91848 0.35521 0.99696 0.0
H1414 H 0.88173 0.43567 0.98823 0.0
H1415 H 0.85732 0.43972 0.00837 0.0
C1416 C 0.64989 0.63737 0.84623 0.0
C1417 C 0.65716 0.64831 0.80978 0.0
C1418 C 0.62465 0.62126 0.78236 0.0
C1419 C 0.61702 0.61087 0.81924 0.0
N1420 N 0.62876 0.59147 0.88203 0.0
N1421 N 0.64883 0.66064 0.74469 0.0
C1422 C 0.63128 0.61443 0.85025 0.0
C1423 C 0.64368 0.64316 0.77839 0.0
N1424 N 0.66052 0.64975 0.8775 0.0
N1425 N 0.61546 0.6056 0.75076 0.0
H1426 H 0.66212 0.67814 0.74183 0.0
H1427 H 0.63888 0.66196 0.72147 0.0
H1428 H 0.60428 0.58318 0.75205 0.0
H1429 H 0.62116 0.60962 0.72339 0.0
H1430 H 0.65507 0.64605 0.9051 0.0
H1431 H 0.67321 0.66872 0.87535 0.0
H1432 H 0.63939 0.59092 0.90422 0.0
H1433 H 0.61853 0.56741 0.88325 0.0
C1434 C 0.11896 0.16702 0.83862 0.0
C1435 C 0.11214 0.14326 0.80731 0.0
C1436 C 0.14724 0.14996 0.77977 0.0
C1437 C 0.15489 0.16917 0.81322 0.0
N1438 N 0.14501 0.21096 0.86589 0.0
N1439 N 0.1215 0.10649 0.75102 0.0
C1440 C 0.13991 0.18144 0.84058 0.0
C1441 C 0.12686 0.13278 0.77905 0.0
N1442 N 0.10555 0.17487 0.86755 0.0
N1443 N 0.15808 0.15288 0.74677 0.0
H1444 H 0.10687 0.0937 0.7489 0.0
H1445 H 0.13219 0.09441 0.73217 0.0
H1446 H 0.16996 0.17358 0.74348 0.0
H1447 H 0.15284 0.14152 0.72094 0.0
H1448 H 0.11007 0.18623 0.8938 0.0
H1449 H 0.09002 0.16719 0.86654 0.0
H1450 H 0.13456 0.22436 0.8843 0.0
H1451 H 0.15899 0.22643 0.86494 0.0
C1452 C 0.61843 0.11306 0.92492 0.0
C1453 C 0.61204 0.13922 0.95458 0.0
C1454 C 0.64707 0.13284 0.98278 0.0
C1455 C 0.65416 0.11015 0.95095 0.0
N1456 N 0.64289 0.06373 0.90263 0.0
N1457 N 0.62166 0.17845 0.00924 0.0
C1458 C 0.63882 0.09644 0.92474 0.0
C1459 C 0.62686 0.15067 0.9825 0.0
N1460 N 0.60512 0.10482 0.89584 0.0
N1461 N 0.65825 0.13275 0.01556 0.0
H1462 H 0.60706 0.19124 0.01082 0.0
H1463 H 0.63235 0.19148 0.02762 0.0
H1464 H 0.67002 0.11231 0.02019 0.0
H1465 H 0.65349 0.14664 0.04051 0.0
H1466 H 0.60957 0.09086 0.87073 0.0
H1467 H 0.59001 0.11518 0.89518 0.0
H1468 H 0.63191 0.04955 0.8857 0.0
H1469 H 0.65626 0.04678 0.9055 0.0
C1470 C 0.12343 0.63766 0.92698 0.0
C1471 C 0.11705 0.65162 0.96326 0.0
C1472 C 0.15069 0.62889 0.98956 0.0
C1473 C 0.15783 0.61741 0.95272 0.0
N1474 N 0.14606 0.59384 0.89157 0.0
N1475 N 0.12715 0.66944 0.02678 0.0
C1476 C 0.14292 0.61763 0.92262 0.0
C1477 C 0.13151 0.64984 0.9937 0.0
N1478 N 0.11099 0.64353 0.89624 0.0
N1479 N 0.16062 0.61568 0.02135 0.0
H1480 H 0.11366 0.68594 0.03061 0.0
H1481 H 0.13788 0.67329 0.04854 0.0
H1482 H 0.17206 0.59402 0.02082 0.0
H1483 H 0.15516 0.62056 0.04876 0.0
H1484 H 0.1158 0.63891 0.86839 0.0
H1485 H 0.09659 0.65686 0.89812 0.0
H1486 H 0.1352 0.58965 0.87014 0.0
H1487 H 0.15795 0.57298 0.89014 0.0
C1488 C 0.39109 0.92528 0.67336 0.0
C1489 C 0.40605 0.90676 0.69688 0.0
C1490 C 0.37788 0.8679 0.7277 0.0
C1491 C 0.36305 0.88416 0.70185 0.0
N1492 N 0.35734 0.92174 0.64414 0.0
N1493 N 0.41406 0.85664 0.74357 0.0
C1494 C 0.37021 0.9111 0.67316 0.0
C1495 C 0.39951 0.87708 0.72331 0.0
N1496 N 0.3967 0.9575 0.65173 0.0
N1497 N 0.37139 0.84479 0.75739 0.0
H1498 H 0.42978 0.86331 0.74198 0.0
H1499 H 0.4108 0.83147 0.75997 0.0
H1500 H 0.3562 0.83538 0.7608 0.0
H1501 H 0.38085 0.83681 0.78004 0.0
H1502 H 0.38615 0.97532 0.63723 0.0
H1503 H 0.41167 0.96898 0.65148 0.0
H1504 H 0.36225 0.93738 0.6202 0.0
H1505 H 0.34228 0.91122 0.64169 0.0
C1506 C 0.89148 0.41225 0.67067 0.0
C1507 C 0.90723 0.40111 0.69695 0.0
C1508 C 0.88057 0.36608 0.7353 0.0
C1509 C 0.86509 0.37567 0.70804 0.0
N1510 N 0.85662 0.40174 0.64648 0.0
N1511 N 0.9171 0.36126 0.75097 0.0
C1512 C 0.87087 0.39678 0.67468 0.0
C1513 C 0.90182 0.37644 0.72847 0.0
N1514 N 0.89599 0.43939 0.64281 0.0
N1515 N 0.87488 0.34722 0.76809 0.0
H1516 H 0.93268 0.36762 0.74668 0.0
H1517 H 0.91462 0.3399 0.77201 0.0
H1518 H 0.85997 0.33627 0.77254 0.0
H1519 H 0.88457 0.34398 0.79146 0.0
H1520 H 0.88493 0.45218 0.62519 0.0
H1521 H 0.91059 0.45214 0.63956 0.0
H1522 H 0.86014 0.4132 0.61978 0.0
H1523 H 0.84157 0.39077 0.6486 0.0
C1524 C 0.3816 0.42138 0.58909 0.0
C1525 C 0.36521 0.4078 0.56503 0.0
C1526 C 0.3912 0.37075 0.52704 0.0
C1527 C 0.40713 0.38206 0.55278 0.0
N1528 N 0.41658 0.41158 0.61249 0.0
N1529 N 0.35446 0.36248 0.51528 0.0
C1530 C 0.40195 0.40516 0.58517 0.0
C1531 C 0.37006 0.38059 0.53506 0.0
N1532 N 0.37817 0.45185 0.61419 0.0
N1533 N 0.39631 0.35112 0.49437 0.0
H1534 H 0.33892 0.36755 0.52089 0.0
H1535 H 0.35682 0.33954 0.49576 0.0
H1536 H 0.41128 0.34137 0.48874 0.0
H1537 H 0.38604 0.34663 0.472 0.0
H1538 H 0.38991 0.46593 0.62945 0.0
H1539 H 0.36403 0.46623 0.61691 0.0
H1540 H 0.41334 0.42443 0.63875 0.0
H1541 H 0.43156 0.40042 0.61036 0.0
C1542 C 0.87225 0.90149 0.52798 0.0
C1543 C 0.86387 0.9114 0.56446 0.0
C1544 C 0.8977 0.89237 0.59291 0.0
C1545 C 0.90545 0.881 0.55698 0.0
N1546 N 0.89822 0.86492 0.49212 0.0
N1547 N 0.87337 0.93291 0.62771 0.0
C1548 C 0.89208 0.88257 0.52515 0.0
C1549 C 0.87784 0.91093 0.59605 0.0
N1550 N 0.86277 0.91441 0.49563 0.0
N1551 N 0.90924 0.88459 0.62448 0.0
H1552 H 0.86109 0.95294 0.62879 0.0
H1553 H 0.88353 0.93654 0.65037 0.0
H1554 H 0.92342 0.86999 0.62296 0.0
H1555 H 0.90374 0.88813 0.65204 0.0
H1556 H 0.86893 0.91048 0.46861 0.0
H1557 H 0.85081 0.93498 0.49562 0.0
H1558 H 0.88856 0.86119 0.46872 0.0
H1559 H 0.91212 0.84945 0.49008 0.0
C1560 C 0.61806 0.15848 0.34673 0.0
C1561 C 0.61091 0.13376 0.31639 0.0
C1562 C 0.64736 0.12945 0.29404 0.0
C1563 C 0.65381 0.15821 0.32162 0.0
N1564 N 0.64362 0.20553 0.36991 0.0
N1565 N 0.61934 0.09802 0.25881 0.0
C1566 C 0.63868 0.17405 0.34677 0.0
C1567 C 0.62576 0.11971 0.28951 0.0
N1568 N 0.60539 0.16585 0.37689 0.0
N1569 N 0.66194 0.10987 0.27315 0.0
H1570 H 0.60429 0.08779 0.25539 0.0
H1571 H 0.62872 0.09201 0.23553 0.0
H1572 H 0.67769 0.11567 0.27567 0.0
H1573 H 0.65865 0.08546 0.25574 0.0
H1574 H 0.61042 0.17954 0.40184 0.0
H1575 H 0.59052 0.15423 0.37897 0.0
H1576 H 0.63267 0.22152 0.38528 0.0
H1577 H 0.65823 0.21852 0.37097 0.0
C1578 C 0.1381 0.65979 0.2786 0.0
C1579 C 0.15439 0.64979 0.30404 0.0
C1580 C 0.12951 0.60951 0.34122 0.0
C1581 C 0.11267 0.62236 0.31793 0.0
N1582 N 0.1012 0.66788 0.26907 0.0
N1583 N 0.16421 0.62267 0.36452 0.0
C1584 C 0.11707 0.64973 0.2878 0.0
C1585 C 0.14957 0.62726 0.33699 0.0
N1586 N 0.14272 0.67857 0.2452 0.0
N1587 N 0.1269 0.57819 0.36576 0.0
H1588 H 0.17884 0.63559 0.3625 0.0
H1589 H 0.1611 0.60996 0.39093 0.0
H1590 H 0.11321 0.56199 0.36804 0.0
H1591 H 0.13906 0.56505 0.38052 0.0
H1592 H 0.13205 0.68228 0.22335 0.0
H1593 H 0.15761 0.6882 0.23844 0.0
H1594 H 0.10339 0.69095 0.24956 0.0
H1595 H 0.08575 0.66299 0.27588 0.0
C1596 C 0.64367 0.62149 0.47595 0.0
C1597 C 0.65847 0.63611 0.44913 0.0
C1598 C 0.63061 0.67654 0.41967 0.0
C1599 C 0.61547 0.65969 0.44435 0.0
N1600 N 0.60752 0.61021 0.49203 0.0
N1601 N 0.66386 0.66962 0.38922 0.0
C1602 C 0.62203 0.63061 0.47149 0.0
C1603 C 0.65125 0.66133 0.4193 0.0
N1604 N 0.6502 0.59992 0.50659 0.0
N1605 N 0.62567 0.70868 0.39745 0.0
H1606 H 0.67874 0.65838 0.38681 0.0
H1607 H 0.65875 0.68378 0.36459 0.0
H1608 H 0.6111 0.72166 0.39704 0.0
H1609 H 0.63662 0.72521 0.38242 0.0
H1610 H 0.64079 0.59326 0.52971 0.0
H1611 H 0.66539 0.59075 0.51026 0.0
H1612 H 0.61093 0.58566 0.50913 0.0
H1613 H 0.59175 0.61547 0.48946 0.0
C1614 C 0.14491 0.12463 0.49076 0.0
C1615 C 0.15955 0.12713 0.46093 0.0
C1616 C 0.13395 0.16428 0.42274 0.0
C1617 C 0.11868 0.16031 0.452 0.0
N1618 N 0.1148 0.15329 0.52025 0.0
N1619 N 0.16687 0.14334 0.39605 0.0
C1620 C 0.12543 0.1447 0.48782 0.0
C1621 C 0.15361 0.14487 0.42612 0.0
N1622 N 0.14962 0.10239 0.52214 0.0
N1623 N 0.13088 0.19126 0.39409 0.0
H1624 H 0.18141 0.13021 0.39795 0.0
H1625 H 0.16274 0.15139 0.36852 0.0
H1626 H 0.11883 0.21182 0.3943 0.0
H1627 H 0.14188 0.19804 0.37354 0.0
H1628 H 0.13895 0.09539 0.54323 0.0
H1629 H 0.1636 0.0872 0.52485 0.0
H1630 H 0.1198 0.14509 0.54724 0.0
H1631 H 0.10315 0.17447 0.52157 0.0
C1632 C 0.30067 0.10658 0.16105 0.0
C1633 C 0.30348 0.09793 0.12211 0.0
C1634 C 0.30409 0.16993 0.10744 0.0
C1635 C 0.30458 0.17829 0.14676 0.0
N1636 N 0.3013 0.1567 0.2114 0.0
N1637 N 0.30589 0.11972 0.05736 0.0
C1638 C 0.3018 0.14715 0.17371 0.0
C1639 C 0.30414 0.12929 0.09492 0.0
N1640 N 0.29757 0.07555 0.18567 0.0
N1641 N 0.30417 0.20121 0.08247 0.0
H1642 H 0.30545 0.09015 0.04778 0.0
H1643 H 0.30805 0.14045 0.03571 0.0
H1644 H 0.30431 0.23095 0.09162 0.0
H1645 H 0.30291 0.19819 0.05318 0.0
H1646 H 0.29455 0.07893 0.21447 0.0
H1647 H 0.29692 0.04586 0.17645 0.0
H1648 H 0.30074 0.13589 0.23332 0.0
H1649 H 0.30171 0.18631 0.22087 0.0
C1650 C 0.97184 0.12892 0.16873 0.0
C1651 C 0.97331 0.09702 0.14238 0.0
C1652 C 0.97786 0.14629 0.09124 0.0
C1653 C 0.97195 0.17735 0.11637 0.0
N1654 N 0.96388 0.19916 0.1794 0.0
N1655 N 0.97837 0.07459 0.07851 0.0
C1656 C 0.96941 0.16895 0.15543 0.0
C1657 C 0.97688 0.10556 0.1036 0.0
N1658 N 0.97285 0.12046 0.20645 0.0
N1659 N 0.98447 0.15604 0.05575 0.0
H1660 H 0.97828 0.04476 0.08743 0.0
H1661 H 0.9788 0.07838 0.04918 0.0
H1662 H 0.98611 0.18581 0.0474 0.0
H1663 H 0.99038 0.13534 0.03657 0.0
H1664 H 0.97312 0.14215 0.22769 0.0
H1665 H 0.97583 0.09145 0.21575 0.0
H1666 H 0.95954 0.1946 0.20753 0.0
H1667 H 0.9628 0.22885 0.17031 0.0
C1668 C 0.72672 0.90148 0.92195 0.0
C1669 C 0.71694 0.92943 0.89755 0.0
C1670 C 0.70841 0.87505 0.85332 0.0
C1671 C 0.71934 0.84754 0.87646 0.0
N1672 N 0.74224 0.83571 0.92878 0.0
N1673 N 0.70213 0.94467 0.83696 0.0
C1674 C 0.72971 0.86132 0.9094 0.0
C1675 C 0.70921 0.9167 0.86197 0.0
N1676 N 0.7317 0.91252 0.95811 0.0
N1677 N 0.69584 0.86108 0.82515 0.0
H1678 H 0.70241 0.97525 0.84323 0.0
H1679 H 0.69786 0.93791 0.80917 0.0
H1680 H 0.69371 0.8306 0.82001 0.0
H1681 H 0.68602 0.87935 0.80945 0.0
H1682 H 0.73697 0.89251 0.9786 0.0
H1683 H 0.72892 0.9412 0.96853 0.0
H1684 H 0.75164 0.84469 0.95124 0.0
H1685 H 0.74452 0.80619 0.92001 0.0
C1686 C 0.05267 0.90363 0.84279 0.0
C1687 C 0.0587 0.93092 0.8719 0.0
C1688 C 0.06662 0.87451 0.91342 0.0
C1689 C 0.05827 0.84767 0.88638 0.0
N1690 N 0.04008 0.83684 0.82788 0.0
N1691 N 0.06627 0.94208 0.93792 0.0
C1692 C 0.0501 0.8624 0.85191 0.0
C1693 C 0.06392 0.91617 0.90828 0.0
N1694 N 0.05101 0.91619 0.80605 0.0
N1695 N 0.07851 0.86045 0.94242 0.0
H1696 H 0.06369 0.97278 0.93509 0.0
H1697 H 0.06856 0.93246 0.96577 0.0
H1698 H 0.08201 0.83014 0.94544 0.0
H1699 H 0.08648 0.87925 0.96103 0.0
H1700 H 0.04848 0.89671 0.7834 0.0
H1701 H 0.05442 0.94527 0.79752 0.0
H1702 H 0.03216 0.84648 0.80381 0.0
H1703 H 0.0382 0.80646 0.83404 0.0
C1704 C 0.29688 0.66689 0.60791 0.0
C1705 C 0.30018 0.67655 0.64656 0.0
C1706 C 0.30003 0.60492 0.66249 0.0
C1707 C 0.3005 0.59563 0.62338 0.0
N1708 N 0.29907 0.61664 0.5582 0.0
N1709 N 0.3048 0.65545 0.71138 0.0
C1710 C 0.29838 0.62632 0.59585 0.0
C1711 C 0.30122 0.64573 0.67429 0.0
N1712 N 0.29255 0.69699 0.58293 0.0
N1713 N 0.29897 0.57428 0.68807 0.0
H1714 H 0.3059 0.68492 0.72087 0.0
H1715 H 0.30775 0.63449 0.73254 0.0
H1716 H 0.29838 0.54437 0.67945 0.0
H1717 H 0.29696 0.57836 0.71712 0.0
H1718 H 0.28846 0.69227 0.5547 0.0
H1719 H 0.29138 0.7268 0.59161 0.0
H1720 H 0.29982 0.63766 0.53642 0.0
H1721 H 0.29983 0.5871 0.54872 0.0
C1722 C 0.97665 0.61032 0.60689 0.0
C1723 C 0.96728 0.59686 0.64095 0.0
C1724 C 0.96037 0.66674 0.65838 0.0
C1725 C 0.96667 0.6795 0.62187 0.0
N1726 N 0.97775 0.66211 0.55873 0.0
N1727 N 0.94664 0.61204 0.69584 0.0
C1728 C 0.97427 0.65102 0.59546 0.0
C1729 C 0.95842 0.62507 0.6662 0.0
N1730 N 0.98781 0.58409 0.58556 0.0
N1731 N 0.95579 0.69479 0.6852 0.0
H1732 H 0.94343 0.58182 0.70042 0.0
H1733 H 0.93829 0.6312 0.71334 0.0
H1734 H 0.95709 0.72544 0.67973 0.0
H1735 H 0.95273 0.68766 0.71344 0.0
H1736 H 0.9965 0.59281 0.56207 0.0
H1737 H 0.98992 0.55432 0.59367 0.0
H1738 H 0.9813 0.6418 0.53728 0.0
H1739 H 0.97533 0.69116 0.54899 0.0
C1740 C 0.7204 0.39688 0.42433 0.0
C1741 C 0.72124 0.4277 0.39671 0.0
C1742 C 0.7263 0.3773 0.34701 0.0
C1743 C 0.7212 0.34674 0.37337 0.0
N1744 N 0.7152 0.32591 0.43742 0.0
N1745 N 0.72556 0.44846 0.33214 0.0
C1746 C 0.71921 0.35613 0.41236 0.0
C1747 C 0.72481 0.41823 0.35818 0.0
N1748 N 0.72028 0.40708 0.46186 0.0
N1749 N 0.73248 0.36696 0.31141 0.0
H1750 H 0.72503 0.47856 0.34012 0.0
H1751 H 0.72575 0.44383 0.30292 0.0
H1752 H 0.73432 0.33717 0.30345 0.0
H1753 H 0.7378 0.38746 0.29137 0.0
H1754 H 0.72107 0.38643 0.48393 0.0
H1755 H 0.72099 0.43685 0.47081 0.0
H1756 H 0.71146 0.33038 0.46582 0.0
H1757 H 0.71513 0.29589 0.42908 0.0
C1758 C 0.05891 0.35452 0.35797 0.0
C1759 C 0.05678 0.3457 0.39701 0.0
C1760 C 0.05344 0.41731 0.41164 0.0
C1761 C 0.05711 0.42618 0.37296 0.0
N1762 N 0.05853 0.40479 0.30798 0.0
N1763 N 0.04824 0.36634 0.46027 0.0
C1764 C 0.05812 0.39508 0.34563 0.0
C1765 C 0.05252 0.3765 0.42355 0.0
N1766 N 0.06285 0.32398 0.33327 0.0
N1767 N 0.05206 0.44811 0.43701 0.0
H1768 H 0.04819 0.33667 0.46953 0.0
H1769 H 0.04358 0.38657 0.48098 0.0
H1770 H 0.05247 0.47805 0.42853 0.0
H1771 H 0.05111 0.44443 0.46627 0.0
H1772 H 0.06679 0.32806 0.30491 0.0
H1773 H 0.06284 0.29405 0.34187 0.0
H1774 H 0.0578 0.3839 0.2861 0.0
H1775 H 0.05805 0.43441 0.29856 0.0
C1776 C 0.80048 0.13206 0.5824 0.0
C1777 C 0.797 0.101 0.60908 0.0
C1778 C 0.78639 0.15109 0.65614 0.0
C1779 C 0.79421 0.18198 0.63242 0.0
N1780 N 0.80514 0.2035 0.57084 0.0
N1781 N 0.78613 0.07992 0.67094 0.0
C1782 C 0.79978 0.1728 0.59451 0.0
C1783 C 0.78937 0.11023 0.64561 0.0
N1784 N 0.80476 0.12208 0.54571 0.0
N1785 N 0.77581 0.1607 0.6882 0.0
H1786 H 0.7878 0.04985 0.66347 0.0
H1787 H 0.78296 0.08462 0.69957 0.0
H1788 H 0.7729 0.19014 0.69601 0.0
H1789 H 0.76794 0.13966 0.70456 0.0
H1790 H 0.80654 0.1426 0.52374 0.0
H1791 H 0.8052 0.09233 0.53693 0.0
H1792 H 0.81134 0.19974 0.54386 0.0
H1793 H 0.80343 0.23342 0.57888 0.0
C1794 C 0.47274 0.11192 0.6043 0.0
C1795 C 0.4655 0.09836 0.64002 0.0
C1796 C 0.46141 0.168 0.65993 0.0
C1797 C 0.46485 0.18127 0.62223 0.0
N1798 N 0.46942 0.16299 0.55615 0.0
N1799 N 0.4475 0.11426 0.69787 0.0
C1800 C 0.46954 0.15256 0.59362 0.0
C1801 C 0.45846 0.1266 0.66698 0.0
N1802 N 0.48277 0.0861 0.58073 0.0
N1803 N 0.46119 0.19486 0.68909 0.0
H1804 H 0.4431 0.08448 0.70177 0.0
H1805 H 0.44066 0.13422 0.71679 0.0
H1806 H 0.46446 0.2252 0.68504 0.0
H1807 H 0.46019 0.18611 0.71745 0.0
H1808 H 0.48989 0.0953 0.55567 0.0
H1809 H 0.48582 0.05652 0.58841 0.0
H1810 H 0.47122 0.14219 0.53435 0.0
H1811 H 0.46506 0.19117 0.54653 0.0
C1812 C 0.22058 0.87846 0.34315 0.0
C1813 C 0.21708 0.84956 0.37214 0.0
C1814 C 0.21301 0.90394 0.41824 0.0
C1815 C 0.21837 0.93249 0.38999 0.0
N1816 N 0.23334 0.94497 0.32861 0.0
N1817 N 0.21639 0.83518 0.43906 0.0
C1818 C 0.22416 0.91907 0.3534 0.0
C1819 C 0.21544 0.86251 0.41033 0.0
N1820 N 0.21901 0.86812 0.30583 0.0
N1821 N 0.20426 0.91591 0.45158 0.0
H1822 H 0.21908 0.80484 0.43404 0.0
H1823 H 0.21688 0.84336 0.46761 0.0
H1824 H 0.20044 0.94559 0.45721 0.0
H1825 H 0.19856 0.89576 0.47163 0.0
H1826 H 0.2197 0.889 0.28385 0.0
H1827 H 0.2146 0.83969 0.29704 0.0
H1828 H 0.23943 0.93583 0.30264 0.0
H1829 H 0.23695 0.97445 0.33596 0.0
C1830 C 0.54209 0.8956 0.345 0.0
C1831 C 0.54588 0.92704 0.3712 0.0
C1832 C 0.54849 0.87761 0.42272 0.0
C1833 C 0.54864 0.84643 0.3954 0.0
N1834 N 0.54491 0.82436 0.33109 0.0
N1835 N 0.55037 0.94934 0.43521 0.0
C1836 C 0.54477 0.85502 0.35673 0.0
C1837 C 0.54794 0.9183 0.41036 0.0
N1838 N 0.53611 0.90479 0.30896 0.0
N1839 N 0.54936 0.8679 0.46034 0.0
H1840 H 0.54904 0.97915 0.42655 0.0
H1841 H 0.55401 0.94596 0.46379 0.0
H1842 H 0.55012 0.83827 0.46964 0.0
H1843 H 0.54797 0.88853 0.48231 0.0
H1844 H 0.53171 0.88355 0.28888 0.0
H1845 H 0.53356 0.9342 0.30043 0.0
H1846 H 0.54449 0.82842 0.30181 0.0
H1847 H 0.54636 0.7945 0.33945 0.0
C1848 C 0.79621 0.60989 0.15353 0.0
C1849 C 0.80269 0.59791 0.11692 0.0
C1850 C 0.80526 0.66825 0.09835 0.0
C1851 C 0.80281 0.68022 0.13666 0.0
N1852 N 0.79927 0.66025 0.20253 0.0
N1853 N 0.81834 0.61628 0.05756 0.0
C1854 C 0.79882 0.65058 0.16488 0.0
C1855 C 0.80832 0.62724 0.08987 0.0
N1856 N 0.78796 0.58211 0.17756 0.0
N1857 N 0.80486 0.69621 0.07013 0.0
H1858 H 0.82283 0.58682 0.0527 0.0
H1859 H 0.82439 0.63697 0.03835 0.0
H1860 H 0.80189 0.72638 0.07557 0.0
H1861 H 0.80519 0.68862 0.04142 0.0
H1862 H 0.78126 0.58957 0.20349 0.0
H1863 H 0.78605 0.55218 0.16964 0.0
H1864 H 0.79817 0.63896 0.22408 0.0
H1865 H 0.80297 0.68867 0.21258 0.0
C1866 C 0.4742 0.63157 0.17552 0.0
C1867 C 0.47741 0.60077 0.14855 0.0
C1868 C 0.48541 0.65144 0.10034 0.0
C1869 C 0.47756 0.6815 0.12473 0.0
N1870 N 0.46667 0.70197 0.18663 0.0
N1871 N 0.48698 0.58027 0.08586 0.0
C1872 C 0.47306 0.67209 0.16303 0.0
C1873 C 0.48381 0.61042 0.1113 0.0
N1874 N 0.47177 0.6215 0.21281 0.0
N1875 N 0.49422 0.66221 0.06675 0.0
H1876 H 0.48625 0.55015 0.09373 0.0
H1877 H 0.48934 0.58501 0.05697 0.0
H1878 H 0.49579 0.69204 0.05862 0.0
H1879 H 0.50193 0.64215 0.04922 0.0
H1880 H 0.47057 0.64229 0.23469 0.0
H1881 H 0.47263 0.59184 0.22208 0.0
H1882 H 0.46094 0.69721 0.21385 0.0
H1883 H 0.46667 0.73194 0.1781 0.0
C1884 C 0.21646 0.35619 0.90816 0.0
C1885 C 0.22046 0.34887 0.86931 0.0
C1886 C 0.22505 0.42102 0.85827 0.0
C1887 C 0.21978 0.42844 0.89659 0.0
N1888 N 0.21623 0.40406 0.96029 0.0
N1889 N 0.23439 0.37196 0.81023 0.0
C1890 C 0.21751 0.39612 0.92235 0.0
C1891 C 0.22683 0.38068 0.84534 0.0
N1892 N 0.21071 0.32495 0.93084 0.0
N1893 N 0.2272 0.4526 0.83398 0.0
H1894 H 0.23641 0.3425 0.80126 0.0
H1895 H 0.24051 0.39326 0.79178 0.0
H1896 H 0.22629 0.48225 0.84317 0.0
H1897 H 0.22891 0.44955 0.80475 0.0
H1898 H 0.20535 0.3283 0.95849 0.0
H1899 H 0.21064 0.29541 0.92109 0.0
H1900 H 0.21598 0.38201 0.98117 0.0
H1901 H 0.21722 0.43319 0.97094 0.0
C1902 C 0.54252 0.37804 0.91425 0.0
C1903 C 0.54619 0.34675 0.88784 0.0
C1904 C 0.54667 0.39641 0.83638 0.0
C1905 C 0.54765 0.42757 0.8636 0.0
N1906 N 0.54585 0.44916 0.92833 0.0
N1907 N 0.54983 0.32511 0.82339 0.0
C1908 C 0.54491 0.41874 0.90252 0.0
C1909 C 0.5473 0.35573 0.8486 0.0
N1910 N 0.53681 0.36877 0.95038 0.0
N1911 N 0.54539 0.40627 0.79889 0.0
H1912 H 0.54927 0.29515 0.83186 0.0
H1913 H 0.55304 0.32923 0.79471 0.0
H1914 H 0.54437 0.43604 0.79015 0.0
H1915 H 0.54348 0.38551 0.77711 0.0
H1916 H 0.53237 0.39004 0.97034 0.0
H1917 H 0.5343 0.33935 0.95898 0.0
H1918 H 0.54637 0.4447 0.95757 0.0
H1919 H 0.5471 0.4791 0.92007 0.0
C1920 C 0.27555 0.22431 0.35744 0.0
C1921 C 0.26232 0.19265 0.34552 0.0
C1922 C 0.26574 0.21694 0.279 0.0
C1923 C 0.27973 0.24812 0.29052 0.0
N1924 N 0.29944 0.27786 0.34194 0.0
N1925 N 0.24704 0.15539 0.29438 0.0
C1926 C 0.28509 0.25051 0.33004 0.0
C1927 C 0.25803 0.18819 0.30614 0.0
N1928 N 0.27854 0.23025 0.39548 0.0
N1929 N 0.25972 0.21433 0.24192 0.0
H1930 H 0.24047 0.13486 0.31318 0.0
H1931 H 0.24558 0.14669 0.26614 0.0
H1932 H 0.26653 0.23057 0.22018 0.0
H1933 H 0.24736 0.19694 0.2326 0.0
H1934 H 0.28568 0.25547 0.40693 0.0
H1935 H 0.27274 0.21094 0.41621 0.0
H1936 H 0.30694 0.27615 0.36804 0.0
H1937 H 0.30425 0.30227 0.32589 0.0
C1938 C 0.99182 0.08747 0.3365 0.0
C1939 C 0.01197 0.08078 0.35157 0.0
C1940 C 0.01343 0.01877 0.31258 0.0
C1941 C 0.9952 0.0294 0.29205 0.0
N1942 N 0.96663 0.07582 0.28677 0.0
N1943 N 0.02841 0.02116 0.37493 0.0
C1944 C 0.98424 0.06416 0.30488 0.0
C1945 C 0.01955 0.04124 0.34544 0.0
N1946 N 0.97841 0.11065 0.35665 0.0
N1947 N 0.02465 0.9859 0.30266 0.0
H1948 H 0.02763 0.0321 0.40265 0.0
H1949 H 0.03266 0.99111 0.37342 0.0
H1950 H 0.0203 0.96569 0.28172 0.0
H1951 H 0.03907 0.98004 0.31458 0.0
H1952 H 0.96288 0.11393 0.3497 0.0
H1953 H 0.98189 0.12082 0.38393 0.0
H1954 H 0.95966 0.10344 0.29158 0.0
H1955 H 0.95989 0.05996 0.26456 0.0
C1956 C 0.27972 0.0316 0.93735 0.0
C1957 C 0.27634 0.0355 0.97736 0.0
C1958 C 0.25332 0.09357 0.96271 0.0
C1959 C 0.2583 0.09169 0.92339 0.0
N1960 N 0.27905 0.06202 0.87443 0.0
N1961 N 0.26186 0.07563 0.0276 0.0
C1962 C 0.27232 0.06158 0.91118 0.0
C1963 C 0.26356 0.0679 0.98975 0.0
N1964 N 0.28898 0.99789 0.92372 0.0
N1965 N 0.23825 0.11931 0.97433 0.0
H1966 H 0.26883 0.05798 0.04806 0.0
H1967 H 0.2552 0.10149 0.03857 0.0
H1968 H 0.23079 0.13893 0.95585 0.0
H1969 H 0.23196 0.11902 1.00152 0.0
H1970 H 0.2897 0.99077 0.89498 0.0
H1971 H 0.29403 0.97484 0.94119 0.0
H1972 H 0.29104 0.04414 0.86455 0.0
H1973 H 0.27387 0.0828 0.85449 0.0
C1974 C 0.99835 0.18136 0.94546 0.0
C1975 C 0.01577 0.19187 0.92287 0.0
C1976 C 0.01637 0.25795 0.95555 0.0
C1977 C 0.9976 0.24904 0.97523 0.0
N1978 N 0.96891 0.2029 0.98247 0.0
N1979 N 0.03834 0.24454 0.90109 0.0
C1980 C 0.98799 0.21113 0.96791 0.0
C1981 C 0.02401 0.23132 0.92666 0.0
N1982 N 0.99225 0.14216 0.94734 0.0
N1983 N 0.02701 0.29217 0.96389 0.0
H1984 H 0.04382 0.22688 0.8789 0.0
H1985 H 0.04321 0.27426 0.89937 0.0
H1986 H 0.02162 0.31368 0.98262 0.0
H1987 H 0.04193 0.29784 0.9542 0.0
H1988 H 0.98104 0.13174 0.9661 0.0
H1989 H 0.99994 0.11923 0.93316 0.0
H1990 H 0.96002 0.17854 0.97367 0.0
H1991 H 0.96151 0.22097 1.00224 0.0
C1992 C 0.734 0.82005 0.71902 0.0
C1993 C 0.74234 0.78078 0.72421 0.0
C1994 C 0.76189 0.79181 0.66432 0.0
C1995 C 0.75726 0.83368 0.66418 0.0
N1996 N 0.72644 0.87233 0.67375 0.0
N1997 N 0.76521 0.72989 0.6995 0.0
C1998 C 0.73988 0.8442 0.68692 0.0
C1999 C 0.75678 0.76715 0.6965 0.0
N2000 N 0.72048 0.8351 0.74492 0.0
N2001 N 0.76685 0.77353 0.63092 0.0
H2002 H 0.76095 0.70924 0.72019 0.0
H2003 H 0.77741 0.72058 0.68239 0.0
H2004 H 0.7654 0.78833 0.60496 0.0
H2005 H 0.76854 0.74263 0.62814 0.0
H2006 H 0.71607 0.8651 0.74524 0.0
H2007 H 0.71489 0.8185 0.76761 0.0
H2008 H 0.71255 0.8791 0.68711 0.0
H2009 H 0.72733 0.88326 0.64606 0.0
C2010 C 1.00678 0.98269 0.72995 0.0
C2011 C 0.02865 0.98956 0.7324 0.0
C2012 C 0.03169 0.94448 0.67624 0.0
C2013 C 1.01052 0.93278 0.67814 0.0
N2014 N 0.98055 0.93212 0.71896 0.0
N2015 N 0.06169 0.96112 0.71375 0.0
C2016 C 0.9989 0.94915 0.70878 0.0
C2017 C 0.04108 0.96576 0.70737 0.0
N2018 N 0.99302 1.00877 0.74555 0.0
N2019 N 0.04292 0.93715 0.64429 0.0
H2020 H 0.06913 0.97124 0.7381 0.0
H2021 H 0.07074 0.94201 0.69734 0.0
H2022 H 0.03643 0.92528 0.61964 0.0
H2023 H 0.058 0.94761 0.64095 0.0
H2024 H 0.97712 1.00535 0.74206 0.0
H2025 H 0.99704 0.03661 0.75645 0.0
H2026 H 0.97236 0.94135 0.74287 0.0
H2027 H 0.97504 0.90576 0.70665 0.0
C2028 C 0.74985 0.97058 0.10667 0.0
C2029 C 0.76392 0.94089 0.09413 0.0
C2030 C 0.76084 0.96835 0.0286 0.0
C2031 C 0.74585 0.99738 0.04063 0.0
N2032 N 0.72449 0.02132 0.09257 0.0
N2033 N 0.78051 0.90774 0.04206 0.0
C2034 C 0.73989 0.99687 0.07997 0.0
C2035 C 0.76877 0.93892 0.05481 0.0
N2036 N 0.74643 0.97478 0.14479 0.0
N2037 N 0.76766 0.96828 0.99191 0.0
H2038 H 0.78728 0.88688 0.0602 0.0
H2039 H 0.78232 0.90059 0.01349 0.0
H2040 H 0.7605 0.98351 0.9699 0.0
H2041 H 0.7809 0.95335 0.98312 0.0
H2042 H 0.73889 0.99921 0.15673 0.0
H2043 H 0.75238 0.95518 0.16505 0.0
H2044 H 0.71658 0.0164 0.11788 0.0
H2045 H 0.71938 0.04661 0.07829 0.0
C2046 C 0.01741 0.77048 0.06592 0.0
C2047 C 0.02885 0.7848 0.03419 0.0
C2048 C 0.01981 0.85364 0.05583 0.0
C2049 C 0.01135 0.83926 0.09081 0.0
N2050 N 1.0099 0.7816 0.13228 0.0
N2051 N 0.04541 0.84268 1.00679 0.0
C2052 C 0.01229 0.79695 0.09669 0.0
C2053 C 0.03147 0.8272 0.03164 0.0
N2054 N 0.01109 0.73161 0.06713 0.0
N2055 N 0.01594 0.89185 0.04421 0.0
H2056 H 0.05514 0.8243 0.99123 0.0
H2057 H 0.049 0.87313 1.00561 0.0
H2058 H 1.006 0.9109 0.05876 0.0
H2059 H 0.02048 0.90259 0.01768 0.0
H2060 H 1.00086 0.72149 0.08784 0.0
H2061 H 0.01399 0.7114 0.04528 0.0
H2062 H 0.01252 0.75149 0.13819 0.0
H2063 H 1.00837 0.79954 0.15632 0.0
C2064 C 0.26024 0.72005 0.78049 0.0
C2065 C 0.27621 0.74796 0.79119 0.0
C2066 C 0.27459 0.71851 0.85662 0.0
C2067 C 0.26024 0.6887 0.84455 0.0
N2068 N 0.24224 0.6572 0.79287 0.0
N2069 N 0.29863 0.77211 0.84136 0.0
C2070 C 0.25404 0.68836 0.80587 0.0
C2071 C 0.28343 0.7464 0.82975 0.0
N2072 N 0.25004 0.72417 0.74675 0.0
N2073 N 0.27942 0.72097 0.89435 0.0
H2074 H 0.30302 0.7975 0.82622 0.0
H2075 H 0.30711 0.76824 0.86619 0.0
H2076 H 0.2744 0.69999 0.91428 0.0
H2077 H 0.28737 0.74491 0.90648 0.0
H2078 H 0.23679 0.70797 0.73989 0.0
H2079 H 0.25297 0.74635 0.72696 0.0
H2080 H 0.2397 0.65163 0.76414 0.0
H2081 H 0.23645 0.63474 0.81051 0.0
C2082 C 0.01927 0.54198 0.84282 0.0
C2083 C 0.01099 0.58112 0.84861 0.0
C2084 C 0.98465 0.56479 0.79981 0.0
C2085 C 0.99512 0.5289 0.78907 0.0
N2086 N 0.02355 0.48395 0.80245 0.0
N2087 N 0.97642 0.6069 0.85299 0.0
C2088 C 0.01287 0.51794 0.81093 0.0
C2089 C 0.99101 0.58688 0.83268 0.0
N2090 N 0.02991 0.52429 0.87175 0.0
N2091 N 0.96866 0.57887 0.77853 0.0
H2092 H 0.97871 0.6141 0.88152 0.0
H2093 H 0.9611 0.60927 0.84423 0.0
H2094 H 0.96342 0.56478 0.75406 0.0
H2095 H 0.96202 0.60682 0.78339 0.0
H2096 H 0.0347 0.49454 0.87128 0.0
H2097 H 0.03072 0.53715 0.89872 0.0
H2098 H 0.03803 0.47788 0.81398 0.0
H2099 H 0.01869 0.46281 0.78272 0.0
C2100 C 0.26202 0.56609 0.48755 0.0
C2101 C 0.27607 0.53552 0.47555 0.0
C2102 C 0.27064 0.55896 0.40873 0.0
C2103 C 0.25759 0.59052 0.4211 0.0
N2104 N 0.24283 0.62708 0.47307 0.0
N2105 N 0.29501 0.50643 0.42327 0.0
C2106 C 0.25389 0.5948 0.46075 0.0
C2107 C 0.28072 0.53322 0.43579 0.0
N2108 N 0.2562 0.56784 0.52474 0.0
N2109 N 0.27305 0.55267 0.3706 0.0
H2110 H 0.30062 0.48311 0.43966 0.0
H2111 H 0.30207 0.50861 0.39685 0.0
H2112 H 0.2673 0.57207 0.34999 0.0
H2113 H 0.27961 0.52695 0.35913 0.0
H2114 H 0.24407 0.58524 0.53469 0.0
H2115 H 0.26277 0.55029 0.54576 0.0
H2116 H 0.24176 0.63565 0.5014 0.0
H2117 H 0.23575 0.64722 0.45461 0.0
C2118 C 0.98731 0.74185 0.4393 0.0
C2119 C 0.99404 0.74517 0.47797 0.0
C2120 C 0.02006 0.69204 0.46361 0.0
C2121 C 0.01171 0.68597 0.42676 0.0
N2122 N 0.98509 0.70155 0.38166 0.0
N2123 N 0.01532 0.71625 0.52764 0.0
C2124 C 0.9946 0.70976 0.41543 0.0
C2125 C 1.01008 0.71843 0.49017 0.0
N2126 N 0.97497 0.77087 0.42416 0.0
N2127 N 0.03799 0.67313 0.47324 0.0
H2128 H 1.00869 0.73376 0.54851 0.0
H2129 H 0.02472 0.69392 0.53882 0.0
H2130 H 0.04535 0.65275 0.45539 0.0
H2131 H 0.04649 0.68012 0.49749 0.0
H2132 H 0.97105 0.77215 0.39552 0.0
H2133 H 0.97069 0.79657 0.43884 0.0
H2134 H 0.97113 0.71432 0.37352 0.0
H2135 H 0.99023 0.67926 0.36322 0.0
C2136 C 0.76794 0.2993 0.176 0.0
C2137 C 0.76085 0.33953 0.17336 0.0
C2138 C 0.73362 0.32254 0.22042 0.0
C2139 C 0.74233 0.28374 0.22676 0.0
N2140 N 0.76956 0.23704 0.21126 0.0
N2141 N 0.73907 0.39105 0.19912 0.0
C2142 C 0.76011 0.27293 0.20499 0.0
C2143 C 0.74419 0.35143 0.1971 0.0
N2144 N 0.78132 0.28524 0.14917 0.0
N2145 N 0.71517 0.33237 0.23657 0.0
H2146 H 0.74674 0.41322 0.18372 0.0
H2147 H 0.72869 0.40247 0.21887 0.0
H2148 H 0.70772 0.31487 0.25683 0.0
H2149 H 0.70674 0.3575 0.22854 0.0
H2150 H 0.78522 0.25514 0.14647 0.0
H2151 H 0.78694 0.30285 0.127 0.0
H2152 H 0.78405 0.23 0.20046 0.0
H2153 H 0.7636 0.21497 0.22893 0.0
C2154 C 0.01353 0.45455 0.24506 0.0
C2155 C 0.0239 0.49043 0.23346 0.0
C2156 C 0.01845 0.46886 0.16626 0.0
C2157 C 1.00654 0.43505 0.17784 0.0
N2158 N 0.99021 0.3995 0.22914 0.0
N2159 N 0.03176 0.53496 0.18138 0.0
C2160 C 1.00344 0.42901 0.21753 0.0
C2161 C 0.02516 0.49827 0.19357 0.0
N2162 N 0.01399 0.44367 0.28238 0.0
N2163 N 0.02405 0.47241 0.12901 0.0
H2164 H 0.03605 0.55771 0.1999 0.0
H2165 H 0.03081 0.54438 0.15324 0.0
H2166 H 0.01972 0.45168 0.10831 0.0
H2167 H 0.03461 0.49367 0.11932 0.0
H2168 H 1.00918 0.41573 0.2922 0.0
H2169 H 0.02093 0.46118 0.30319 0.0
H2170 H 0.98534 0.39615 0.25712 0.0
H2171 H 0.98268 0.38035 0.21022 0.0
C2172 C 0.7423 0.46177 0.60416 0.0
C2173 C 0.76056 0.44005 0.59538 0.0
C2174 C 0.75967 0.4706 0.53101 0.0
C2175 C 0.74288 0.49645 0.54106 0.0
N2176 N 0.72074 0.51971 0.59181 0.0
N2177 N 0.78822 0.42854 0.55127 0.0
C2178 C 0.73478 0.49255 0.57883 0.0
C2179 C 0.76973 0.44622 0.55918 0.0
N2180 N 0.73207 0.45327 0.63711 0.0
N2181 N 0.76524 0.46662 0.49386 0.0
H2182 H 0.79546 0.4086 0.56973 0.0
H2183 H 0.7971 0.43598 0.52764 0.0
H2184 H 0.75768 0.48097 0.47187 0.0
H2185 H 0.77562 0.44514 0.48427 0.0
H2186 H 0.71733 0.46374 0.64318 0.0
H2187 H 0.73763 0.43306 0.65721 0.0
H2188 H 0.71533 0.52031 0.6196 0.0
H2189 H 0.71624 0.54487 0.57657 0.0
C2190 C 0.02456 0.30529 0.60704 0.0
C2191 C 1.00957 0.33378 0.59533 0.0
C2192 C 0.01274 0.30756 0.52918 0.0
C2193 C 0.02804 0.27895 0.54067 0.0
N2194 N 0.04975 0.25445 0.59186 0.0
N2195 N 0.99042 0.36418 0.54464 0.0
C2196 C 0.03426 0.27909 0.57991 0.0
C2197 C 1.00395 0.33527 0.55622 0.0
N2198 N 0.0292 0.30229 0.64485 0.0
N2199 N 1.00663 0.30886 0.49206 0.0
H2200 H 0.98261 0.3828 0.5635 0.0
H2201 H 0.98747 0.37135 0.51644 0.0
H2202 H 0.01472 0.29536 0.47013 0.0
H2203 H 0.99339 0.32324 0.48257 0.0
H2204 H 0.03722 0.27842 0.65674 0.0
H2205 H 0.02405 0.32268 0.66511 0.0
H2206 H 0.05805 0.25906 0.61681 0.0
H2207 H 0.05454 0.22911 0.57733 0.0
C2208 C 0.76064 0.22955 0.84961 0.0
C2209 C 0.76009 0.18733 0.8425 0.0
C2210 C 0.78141 0.20103 0.78503 0.0
C2211 C 0.77835 0.24311 0.78829 0.0
N2212 N 0.76269 0.29688 0.82357 0.0
N2213 N 0.76703 0.13501 0.7968 0.0
C2214 C 0.76706 0.25708 0.82037 0.0
C2215 C 0.76981 0.17365 0.80844 0.0
N2216 N 0.75652 0.24354 0.88522 0.0
N2217 N 0.79557 0.18679 0.75985 0.0
H2218 H 0.75714 0.11508 0.81053 0.0
H2219 H 0.77263 0.12421 0.77107 0.0
H2220 H 0.80396 0.20539 0.7417 0.0
H2221 H 0.80006 0.15683 0.75921 0.0
H2222 H 0.7585 0.27343 0.89297 0.0
H2223 H 0.75376 0.22464 0.90823 0.0
H2224 H 0.75276 0.30822 0.84417 0.0
H2225 H 0.76768 0.31806 0.8039 0.0
C2226 C 0.48779 0.07298 0.79172 0.0
C2227 C 0.49538 0.03293 0.78756 0.0
C2228 C 0.52025 0.048 0.84002 0.0
C2229 C 0.51402 0.0889 0.84106 0.0
N2230 N 0.49455 0.1416 0.8116 0.0
N2231 N 0.52056 0.98389 0.80729 0.0
C2232 C 0.49852 0.10159 0.81516 0.0
C2233 C 0.51224 0.02116 0.81136 0.0
N2234 N 0.47001 0.08411 0.77391 0.0
N2235 N 0.53304 0.03401 0.86787 0.0
H2236 H 0.51419 0.96186 0.78999 0.0
H2237 H 0.53447 0.97539 0.81966 0.0
H2238 H 0.53903 0.05226 0.88926 0.0
H2239 H 0.53628 1.00379 0.87191 0.0
H2240 H 0.46238 0.11081 0.77976 0.0
H2241 H 0.46179 0.06553 0.75574 0.0
H2242 H 0.48531 0.15347 0.79018 0.0
H2243 H 0.50216 0.16342 0.82759 0.0
C2244 C 0.78472 0.05737 0.45153 0.0
C2245 C 0.7726 0.02742 0.47064 0.0
C2246 C 0.74171 0.05735 0.43948 0.0
C2247 C 0.75413 0.08342 0.41694 0.0
N2248 N 0.78855 0.09905 0.39547 0.0
N2249 N 0.7395 0.99339 0.47156 0.0
C2250 C 0.77594 0.08068 0.42124 0.0
C2251 C 0.75106 0.02595 0.46152 0.0
N2252 N 0.80444 0.06548 0.46297 0.0
N2253 N 0.72088 0.06304 0.44098 0.0
H2254 H 0.74576 0.96802 0.48411 0.0
H2255 H 0.72429 0.98935 0.46264 0.0
H2256 H 0.71349 0.08624 0.42661 0.0
H2257 H 0.71135 0.04746 0.45974 0.0
H2258 H 0.8129 0.08972 0.45255 0.0
H2259 H 0.81157 0.05179 0.48593 0.0
H2260 H 0.80446 0.09467 0.39485 0.0
H2261 H 0.78295 0.11483 0.37211 0.0
C2262 C 0.50888 0.21349 0.49011 0.0
C2263 C 0.49512 0.24444 0.47779 0.0
C2264 C 0.50126 0.22011 0.41163 0.0
C2265 C 0.51204 0.18564 0.42484 0.0
N2266 N 0.52124 0.14583 0.47932 0.0
N2267 N 0.47655 0.27249 0.42427 0.0
C2268 C 0.51444 0.18135 0.46485 0.0
C2269 C 0.49068 0.24596 0.43789 0.0
N2270 N 0.51737 0.21478 0.52553 0.0
N2271 N 0.50209 0.22992 0.37399 0.0
H2272 H 0.4696 0.29419 0.44086 0.0
H2273 H 0.47073 0.27105 0.39672 0.0
H2274 H 0.51051 0.21353 0.35419 0.0
H2275 H 0.49647 0.25682 0.36319 0.0
H2276 H 0.52867 0.19475 0.53449 0.0
H2277 H 0.5154 0.23859 0.54406 0.0
H2278 H 0.52124 0.13952 0.5083 0.0
H2279 H 0.52457 0.12113 0.4623 0.0
C2280 C 0.26362 0.77819 0.2129 0.0
C2281 C 0.24253 0.78268 0.22435 0.0
C2282 C 0.24027 0.83723 0.17584 0.0
C2283 C 0.26204 0.83724 0.16993 0.0
N2284 N 0.2948 0.81161 0.19134 0.0
N2285 N 0.21196 0.82446 0.21889 0.0
C2286 C 0.27378 0.80891 0.19105 0.0
C2287 C 0.2312 0.81443 0.20641 0.0
N2288 N 0.27383 0.74335 0.22022 0.0
N2289 N 0.22787 0.85756 0.15114 0.0
H2290 H 0.20446 0.81046 0.24127 0.0
H2291 H 0.20429 0.85005 0.20959 0.0
H2292 H 0.23357 0.87284 0.12755 0.0
H2293 H 0.21182 0.85525 0.15154 0.0
H2294 H 0.28858 0.73759 0.2098 0.0
H2295 H 0.26666 0.71805 0.23143 0.0
H2296 H 0.30398 0.79402 0.209 0.0
H2297 H 0.30286 0.83429 0.17732 0.0
C2298 C 0.50734 1.00497 0.20255 0.0
C2299 C 0.52563 0.99618 0.2238 0.0
C2300 C 0.52459 0.92737 0.1961 0.0
C2301 C 0.50745 0.93739 0.17259 0.0
N2302 N 0.48545 0.98933 0.14828 0.0
N2303 N 0.55328 0.94917 0.23544 0.0
C2304 C 0.4996 0.97714 0.17462 0.0
C2305 C 0.5348 0.95759 0.21862 0.0
N2306 N 0.49723 0.0402 0.20858 0.0
N2307 N 0.5305 0.8882 0.19867 0.0
H2308 H 0.56033 0.96761 0.25546 0.0
H2309 H 0.56213 0.92429 0.22832 0.0
H2310 H 0.52311 0.86518 0.18389 0.0
H2311 H 0.54132 0.87785 0.21817 0.0
H2312 H 0.48249 0.04594 0.19816 0.0
H2313 H 0.50291 0.06297 0.22582 0.0
H2314 H 0.48091 0.01902 0.14498 0.0
H2315 H 0.47969 0.97055 0.1271 0.0
C2316 C 0.26889 0.93365 0.54941 0.0
C2317 C 0.26543 0.93665 0.58927 0.0
C2318 C 0.24237 0.99402 0.57596 0.0
C2319 C 0.24796 0.99477 0.53664 0.0
N2320 N 0.27098 0.9677 0.48877 0.0
N2321 N 0.25316 0.97855 0.64017 0.0
C2322 C 0.26268 0.96555 0.52432 0.0
C2323 C 0.25337 0.96931 0.60236 0.0
N2324 N 0.27711 0.89932 0.53485 0.0
N2325 N 0.2264 0.01653 0.58894 0.0
H2326 H 0.26189 0.96313 0.66027 0.0
H2327 H 0.24631 1.00442 0.65082 0.0
H2328 H 0.21831 0.0366 0.57231 0.0
H2329 H 0.21998 1.01198 0.6157 0.0
H2330 H 0.27798 0.89362 0.5058 0.0
H2331 H 0.28083 0.87467 0.55164 0.0
H2332 H 0.28324 0.94977 0.48014 0.0
H2333 H 0.26714 0.98952 0.46901 0.0
C2334 C 0.52364 0.80945 0.60566 0.0
C2335 C 0.50783 0.83649 0.59483 0.0
C2336 C 0.51119 0.81142 0.5286 0.0
C2337 C 0.52579 0.78168 0.54007 0.0
N2338 N 0.54123 0.74725 0.59312 0.0
N2339 N 0.48422 0.85849 0.54653 0.0
C2340 C 0.53078 0.77954 0.57955 0.0
C2341 C 0.50098 0.83608 0.55641 0.0
N2342 N 0.53235 0.81279 0.64088 0.0
N2343 N 0.5076 0.81761 0.49092 0.0
H2344 H 0.47654 0.87697 0.56572 0.0
H2345 H 0.47684 0.85618 0.52033 0.0
H2346 H 0.51451 0.80064 0.46988 0.0
H2347 H 0.4993 0.84186 0.48041 0.0
H2348 H 0.54555 0.79718 0.64894 0.0
H2349 H 0.52759 0.83391 0.66083 0.0
H2350 H 0.54269 0.74147 0.62199 0.0
H2351 H 0.54604 0.72383 0.57596 0.0
C2352 C 0.77137 0.71648 0.35054 0.0
C2353 C 0.75871 0.68421 0.33774 0.0
C2354 C 0.76152 0.71329 0.27277 0.0
C2355 C 0.7769 0.74185 0.28448 0.0
N2356 N 0.79862 0.76365 0.33681 0.0
N2357 N 0.74656 0.6473 0.2833 0.0
C2358 C 0.78257 0.741 0.32389 0.0
C2359 C 0.75517 0.68137 0.29788 0.0
N2360 N 0.77189 0.7257 0.38834 0.0
N2361 N 0.75234 0.71646 0.23804 0.0
H2362 H 0.74264 0.62271 0.30009 0.0
H2363 H 0.74561 0.64174 0.25422 0.0
H2364 H 0.75515 0.73982 0.21935 0.0
H2365 H 0.73992 0.69851 0.22981 0.0
H2366 H 0.77909 0.75136 0.39893 0.0
H2367 H 0.76311 0.71052 0.40857 0.0
H2368 H 0.80516 0.75916 0.36349 0.0
H2369 H 0.80647 0.78437 0.32038 0.0
C2370 C 0.51414 0.55416 0.28362 0.0
C2371 C 0.49701 0.52842 0.29255 0.0
C2372 C 0.496 0.56164 0.35624 0.0
C2373 C 0.51446 0.58339 0.34843 0.0
N2374 N 0.54289 0.59494 0.30603 0.0
N2375 N 0.4743 0.50404 0.34214 0.0
C2376 C 0.52406 0.57775 0.31262 0.0
C2377 C 0.4886 0.53142 0.33015 0.0
N2378 N 0.52023 0.55876 0.24683 0.0
N2379 N 0.48538 0.5699 0.38878 0.0
H2380 H 0.46979 0.4793 0.32619 0.0
H2381 H 0.46872 0.50277 0.36981 0.0
H2382 H 0.4907 0.59028 0.40905 0.0
H2383 H 0.47057 0.55916 0.39422 0.0
H2384 H 0.53088 0.58032 0.23809 0.0
H2385 H 0.51294 0.54477 0.22428 0.0
H2386 H 0.55194 0.58802 0.28251 0.0
H2387 H 0.55026 0.61357 0.32562 0.0
C2388 C 0.75387 0.54048 0.9185 0.0
C2389 C 0.76062 0.58121 0.91722 0.0
C2390 C 0.78696 0.56352 0.96572 0.0
C2391 C 0.77828 0.5244 0.97106 0.0
N2392 N 0.75009 0.47949 0.95523 0.0
N2393 N 0.78058 0.63275 0.94833 0.0
C2394 C 0.76062 0.51426 0.94852 0.0
C2395 C 0.77638 0.59298 0.94319 0.0
N2396 N 0.74189 0.52578 0.88975 0.0
N2397 N 0.80541 0.57321 0.98193 0.0
H2398 H 0.77255 0.65536 0.93431 0.0
H2399 H 0.79029 0.64335 0.96973 0.0
H2400 H 0.81362 0.55392 0.99936 0.0
H2401 H 0.81346 0.59936 0.97517 0.0
H2402 H 0.73829 0.49547 0.88693 0.0
H2403 H 0.73758 0.54293 0.86633 0.0
H2404 H 0.73588 0.47306 0.94271 0.0
H2405 H 0.75467 0.45825 0.97507 0.0
C2406 C 0.51442 0.73175 0.91656 0.0
C2407 C 0.5112 0.68958 0.92063 0.0
C2408 C 0.48732 0.70606 0.97386 0.0
C2409 C 0.49348 0.7472 0.97353 0.0
N2410 N 0.51806 0.79528 0.949 0.0
N2411 N 0.49795 0.63755 0.96185 0.0
C2412 C 0.50873 0.7587 0.94649 0.0
C2413 C 0.49844 0.67698 0.9516 0.0
N2414 N 0.52161 0.74689 0.88307 0.0
N2415 N 0.47116 0.69416 0.996 0.0
H2416 H 0.50751 0.61612 0.94963 0.0
H2417 H 0.48998 0.62702 0.98552 0.0
H2418 H 0.46343 0.71345 0.01432 0.0
H2419 H 0.46467 0.6656 0.99429 0.0
H2420 H 0.52266 0.77758 0.87782 0.0
H2421 H 0.52378 0.72919 0.85903 0.0
H2422 H 0.53043 0.80351 0.9317 0.0
H2423 H 0.51482 0.8157 0.97048 0.0
C2424 C 0.26489 0.26813 0.70062 0.0
C2425 C 0.24702 0.27859 0.72192 0.0
C2426 C 0.24268 0.33667 0.67797 0.0
C2427 C 0.26206 0.3289 0.66004 0.0
N2428 N 0.27814 0.26866 0.63708 0.0
N2429 N 0.21976 0.32659 0.73169 0.0
C2430 C 0.27 0.28964 0.66663 0.0
C2431 C 0.23615 0.31386 0.71063 0.0
N2432 N 0.27679 0.23652 0.71136 0.0
N2433 N 0.22883 0.36091 0.66004 0.0
H2434 H 0.2144 0.31134 0.75557 0.0
H2435 H 0.21286 0.35444 0.72785 0.0
H2436 H 0.23132 0.37144 0.63254 0.0
H2437 H 0.21374 0.36511 0.66934 0.0
H2438 H 0.2908 0.23007 0.69817 0.0
H2439 H 0.27367 0.21912 0.73512 0.0
H2440 H 0.28311 0.23909 0.63948 0.0
H2441 H 0.27564 0.27765 0.60909 0.0
C2442 C 0.53816 0.46886 0.70585 0.0
C2443 C 0.52611 0.49987 0.72301 0.0
C2444 C 0.49548 0.47057 0.69052 0.0
C2445 C 0.508 0.44354 0.66946 0.0
N2446 N 0.54259 0.4251 0.65146 0.0
N2447 N 0.49353 0.53519 0.72137 0.0
C2448 C 0.52972 0.44509 0.67552 0.0
C2449 C 0.50481 0.50203 0.71253 0.0
N2450 N 0.55738 0.46023 0.71945 0.0
N2451 N 0.47455 0.4657 0.69062 0.0
H2452 H 0.49986 0.56047 0.7342 0.0
H2453 H 0.47857 0.53965 0.71142 0.0
H2454 H 0.46713 0.44243 0.67624 0.0
H2455 H 0.46485 0.48205 0.70836 0.0
H2456 H 0.56583 0.43557 0.71025 0.0
H2457 H 0.56382 0.47396 0.7432 0.0
H2458 H 0.55858 0.4285 0.65216 0.0
H2459 H 0.53727 0.40873 0.6282 0.0
C2460 C 0.25293 0.46637 0.10473 0.0
C2461 C 0.26682 0.4365 0.09176 0.0
C2462 C 0.26294 0.46366 0.02621 0.0
C2463 C 0.24836 0.49319 0.03878 0.0
N2464 N 0.22781 0.51795 0.09136 0.0
N2465 N 0.28298 0.40333 0.03926 0.0
C2466 C 0.24287 0.49295 0.07834 0.0
C2467 C 0.27123 0.43439 0.05226 0.0
N2468 N 0.24977 0.47039 0.14294 0.0
N2469 N 0.26897 0.46307 0.9891 0.0
H2470 H 0.29004 0.3827 0.05727 0.0
H2471 H 0.28467 0.39609 0.01071 0.0
H2472 H 0.26162 0.479 0.96783 0.0
H2473 H 0.28181 0.44759 0.97929 0.0
H2474 H 0.24242 0.49485 0.15521 0.0
H2475 H 0.25568 0.45045 0.16294 0.0
H2476 H 0.2202 0.51361 0.11706 0.0
H2477 H 0.22253 0.54292 0.07678 0.0
C2478 C 0.53782 0.32306 0.04115 0.0
C2479 C 0.52923 0.28367 0.03752 0.0
C2480 C 0.50423 0.30149 0.08862 0.0
C2481 C 0.51136 0.34195 0.08897 0.0
N2482 N 0.53285 0.39242 0.06027 0.0
N2483 N 0.50329 0.23622 0.05801 0.0
C2484 C 0.52767 0.35287 0.06392 0.0
C2485 C 0.51204 0.27338 0.06111 0.0
N2486 N 0.55579 0.33249 0.02292 0.0
N2487 N 0.49081 0.2891 0.11621 0.0
H2488 H 0.50977 0.21308 0.0423 0.0
H2489 H 0.48908 0.2287 0.06986 0.0
H2490 H 0.48501 0.30823 0.13699 0.0
H2491 H 0.48681 0.25927 0.12077 0.0
H2492 H 0.56432 0.35825 0.02884 0.0
H2493 H 0.56278 0.31406 1.00294 0.0
H2494 H 0.54294 0.40323 0.03965 0.0
H2495 H 0.52554 0.41512 0.07544 0.0
loop_
_geom_bond_atom_site_label_1
_geom_bond_atom_site_label_2
_geom_bond_distance
_geom_bond_site_symmetry_2
_ccdc_geom_bond_type
Co0 N4 2.148 . S
Co0 N10 2.128 . S
Co0 N20 2.194 . S
Co0 O25 2.351 . S
Co0 O26 2.155 . S
Co0 O27 2.096 . S
C1 N4 1.301 . S
C1 N5 1.328 . S
C1 H6 0.930 . S
C2 C3 1.333 . S
C2 N4 1.317 . S
C2 H7 0.930 . S
C3 C2 1.333 . S
C3 N5 1.350 . S
C3 H29 0.931 . S
N4 Co0 2.148 . S
N4 C1 1.301 . S
N4 C2 1.317 . S
N5 C1 1.328 . S
N5 C3 1.350 . S
H6 C1 0.930 . S
H7 C2 0.930 . S
C8 O9 1.224 . S
C8 O27 1.247 . S
O9 C8 1.224 . S
N10 Co0 2.128 . S
N10 C11 1.355 . S
N10 C13 1.311 . S
C11 N10 1.355 . S
C11 C12 1.363 . S
C11 H23 0.929 . S
C12 C11 1.363 . S
C12 N14 1.375 . S
C12 H30 0.931 . S
C13 N10 1.311 . S
C13 N14 1.347 . S
C13 H24 0.929 . S
N14 C12 1.375 . S
N14 C13 1.347 . S
C15 C18 1.365 . S
C15 N20 1.328 . S
C15 H21 0.929 . S
C16 C17 1.362 . S
C16 C19 1.378 . S
C16 H31 0.929 . S
C17 C16 1.362 . S
C17 C18 1.366 . S
C18 C15 1.365 . S
C18 C17 1.366 . S
C18 H32 0.930 . S
C19 C16 1.378 . S
C19 N20 1.315 . S
C19 H22 0.930 . S
N20 Co0 2.194 . S
N20 C15 1.328 . S
N20 C19 1.315 . S
H21 C15 0.929 . S
H22 C19 0.930 . S
H23 C11 0.929 . S
H24 C13 0.929 . S
O25 Co0 2.351 . S
O25 C28 1.244 . S
O26 Co0 2.155 . S
O26 C28 1.240 . S
O27 Co0 2.096 . S
O27 C8 1.247 . S
C28 O25 1.244 . S
C28 O26 1.240 . S
H29 C3 0.931 . S
H30 C12 0.931 . S
H31 C16 0.929 . S
H32 C18 0.930 . S
Co33 N37 2.148 1_565 S
Co33 N43 2.128 . S
Co33 N53 2.194 . S
Co33 O58 2.351 1_565 S
Co33 O59 2.155 1_565 S
Co33 O60 2.096 . S
C34 N37 1.301 . S
C34 N38 1.328 . S
C34 H39 0.930 . S
C35 C36 1.333 . S
C35 N37 1.317 . S
C35 H40 0.930 . S
C36 C35 1.333 . S
C36 N38 1.350 . S
C36 H62 0.931 . S
N37 Co33 2.148 1_545 S
N37 C34 1.301 . S
N37 C35 1.317 . S
N38 C34 1.328 . S
N38 C36 1.350 . S
H39 C34 0.930 . S
H40 C35 0.930 . S
C41 O42 1.224 . S
C41 O60 1.247 . S
O42 C41 1.224 . S
N43 Co33 2.128 . S
N43 C44 1.355 . S
N43 C46 1.311 . S
C44 N43 1.355 . S
C44 C45 1.363 . S
C44 H56 0.929 . S
C45 C44 1.363 . S
C45 N47 1.375 . S
C45 H63 0.931 . S
C46 N43 1.311 . S
C46 N47 1.347 . S
C46 H57 0.929 . S
N47 C45 1.375 . S
N47 C46 1.347 . S
C48 C51 1.365 . S
C48 N53 1.328 . S
C48 H54 0.929 . S
C49 C50 1.362 . S
C49 C52 1.378 . S
C49 H64 0.929 . S
C50 C49 1.362 . S
C50 C51 1.366 . S
C51 C48 1.365 . S
C51 C50 1.366 . S
C51 H65 0.930 1_655 S
C52 C49 1.378 . S
C52 N53 1.315 . S
C52 H55 0.930 . S
N53 Co33 2.194 . S
N53 C48 1.328 . S
N53 C52 1.315 . S
H54 C48 0.929 . S
H55 C52 0.930 . S
H56 C44 0.929 . S
H57 C46 0.929 . S
O58 Co33 2.351 1_545 S
O58 C61 1.244 . S
O59 Co33 2.155 1_545 S
O59 C61 1.240 . S
O60 Co33 2.096 . S
O60 C41 1.247 . S
C61 O58 1.244 . S
C61 O59 1.240 . S
H62 C36 0.931 . S
H63 C45 0.931 . S
H64 C49 0.929 . S
H65 C51 0.930 1_455 S
Co66 N70 2.148 1_565 S
Co66 N76 2.128 1_554 S
Co66 N86 2.194 . S
Co66 O91 2.351 1_564 S
Co66 O92 2.155 1_564 S
Co66 O93 2.096 1_554 S
C67 N70 1.301 . S
C67 N71 1.328 . S
C67 H72 0.930 . S
C68 C69 1.333 . S
C68 N70 1.317 . S
C68 H73 0.930 . S
C69 C68 1.333 . S
C69 N71 1.350 . S
C69 H95 0.931 . S
N70 Co66 2.148 1_545 S
N70 C67 1.301 . S
N70 C68 1.317 . S
N71 C67 1.328 . S
N71 C69 1.350 . S
H72 C67 0.930 . S
H73 C68 0.930 . S
C74 O75 1.224 . S
C74 O93 1.247 1_554 S
O75 C74 1.224 . S
N76 Co66 2.128 1_556 S
N76 C77 1.355 . S
N76 C79 1.311 . S
C77 N76 1.355 . S
C77 C78 1.363 . S
C77 H89 0.929 . S
C78 C77 1.363 . S
C78 N80 1.375 . S
C78 H96 0.931 . S
C79 N76 1.311 . S
C79 N80 1.347 . S
C79 H90 0.929 . S
N80 C78 1.375 . S
N80 C79 1.347 . S
C81 C84 1.365 . S
C81 N86 1.328 . S
C81 H87 0.929 . S
C82 C83 1.362 . S
C82 C85 1.378 . S
C82 H97 0.929 . S
C83 C82 1.362 . S
C83 C84 1.366 . S
C84 C81 1.365 . S
C84 C83 1.366 . S
C84 H98 0.930 . S
C85 C82 1.378 . S
C85 N86 1.315 . S
C85 H88 0.930 . S
N86 Co66 2.194 . S
N86 C81 1.328 . S
N86 C85 1.315 . S
H87 C81 0.929 . S
H88 C85 0.930 . S
H89 C77 0.929 . S
H90 C79 0.929 . S
O91 Co66 2.351 1_546 S
O91 C94 1.244 . S
O92 Co66 2.155 1_546 S
O92 C94 1.240 . S
O93 Co66 2.096 1_556 S
O93 C74 1.247 1_556 S
C94 O91 1.244 . S
C94 O92 1.240 . S
H95 C69 0.931 . S
H96 C78 0.931 . S
H97 C82 0.929 . S
H98 C84 0.930 . S
Co99 N103 2.148 . S
Co99 N109 2.128 1_554 S
Co99 N119 2.194 . S
Co99 O124 2.351 1_554 S
Co99 O125 2.155 1_554 S
Co99 O126 2.096 1_554 S
C100 N103 1.301 . S
C100 N104 1.328 . S
C100 H105 0.930 . S
C101 C102 1.333 . S
C101 N103 1.317 . S
C101 H106 0.930 . S
C102 C101 1.333 . S
C102 N104 1.350 . S
C102 H128 0.931 . S
N103 Co99 2.148 . S
N103 C100 1.301 . S
N103 C101 1.317 . S
N104 C100 1.328 . S
N104 C102 1.350 . S
H105 C100 0.930 . S
H106 C101 0.930 . S
C107 O108 1.224 . S
C107 O126 1.247 1_554 S
O108 C107 1.224 . S
N109 Co99 2.128 1_556 S
N109 C110 1.355 . S
N109 C112 1.311 . S
C110 N109 1.355 . S
C110 C111 1.363 . S
C110 H122 0.929 . S
C111 C110 1.363 . S
C111 N113 1.375 . S
C111 H129 0.931 . S
C112 N109 1.311 . S
C112 N113 1.347 . S
C112 H123 0.929 . S
N113 C111 1.375 . S
N113 C112 1.347 . S
C114 C117 1.365 . S
C114 N119 1.328 . S
C114 H120 0.929 . S
C115 C116 1.362 . S
C115 C118 1.378 . S
C115 H130 0.929 . S
C116 C115 1.362 . S
C116 C117 1.366 . S
C117 C114 1.365 . S
C117 C116 1.366 . S
C117 H131 0.930 1_655 S
C118 C115 1.378 . S
C118 N119 1.315 . S
C118 H121 0.930 . S
N119 Co99 2.194 . S
N119 C114 1.328 . S
N119 C118 1.315 . S
H120 C114 0.929 . S
H121 C118 0.930 . S
H122 C110 0.929 . S
H123 C112 0.929 . S
O124 Co99 2.351 1_556 S
O124 C127 1.244 . S
O125 Co99 2.155 1_556 S
O125 C127 1.240 . S
O126 Co99 2.096 1_556 S
O126 C107 1.247 1_556 S
C127 O124 1.244 . S
C127 O125 1.240 . S
H128 C102 0.931 . S
H129 C111 0.931 . S
H130 C115 0.929 . S
H131 C117 0.930 1_455 S
Co132 N136 2.148 . S
Co132 N142 2.128 . S
Co132 N152 2.194 . S
Co132 O157 2.351 . S
Co132 O158 2.155 . S
Co132 O159 2.096 . S
C133 N136 1.301 . S
C133 N137 1.328 . S
C133 H138 0.930 . S
C134 C135 1.333 . S
C134 N136 1.317 . S
C134 H139 0.930 . S
C135 C134 1.333 . S
C135 N137 1.350 . S
C135 H161 0.931 . S
N136 Co132 2.148 . S
N136 C133 1.301 . S
N136 C134 1.317 . S
N137 C133 1.328 . S
N137 C135 1.350 . S
H138 C133 0.930 . S
H139 C134 0.930 . S
C140 O141 1.224 . S
C140 O159 1.247 . S
O141 C140 1.224 . S
N142 Co132 2.128 . S
N142 C143 1.355 . S
N142 C145 1.311 . S
C143 N142 1.355 . S
C143 C144 1.363 . S
C143 H155 0.929 . S
C144 C143 1.363 . S
C144 N146 1.375 . S
C144 H162 0.931 . S
C145 N142 1.311 . S
C145 N146 1.347 . S
C145 H156 0.929 . S
N146 C144 1.375 . S
N146 C145 1.347 . S
C147 C150 1.365 . S
C147 N152 1.328 . S
C147 H153 0.929 . S
C148 C149 1.362 . S
C148 C151 1.378 . S
C148 H163 0.929 . S
C149 C148 1.362 . S
C149 C150 1.366 . S
C150 C147 1.365 . S
C150 C149 1.366 . S
C150 H164 0.930 . S
C151 C148 1.378 . S
C151 N152 1.315 . S
C151 H154 0.930 . S
N152 Co132 2.194 . S
N152 C147 1.328 . S
N152 C151 1.315 . S
H153 C147 0.929 . S
H154 C151 0.930 . S
H155 C143 0.929 . S
H156 C145 0.929 . S
O157 Co132 2.351 . S
O157 C160 1.244 . S
O158 Co132 2.155 . S
O158 C160 1.240 . S
O159 Co132 2.096 . S
O159 C140 1.247 . S
C160 O157 1.244 . S
C160 O158 1.240 . S
H161 C135 0.931 . S
H162 C144 0.931 . S
H163 C148 0.929 . S
H164 C150 0.930 . S
Co165 N169 2.148 1_545 S
Co165 N175 2.128 . S
Co165 N185 2.194 . S
Co165 O190 2.351 1_545 S
Co165 O191 2.155 1_545 S
Co165 O192 2.096 . S
C166 N169 1.301 . S
C166 N170 1.328 . S
C166 H171 0.930 . S
C167 C168 1.333 . S
C167 N169 1.317 . S
C167 H172 0.930 . S
C168 C167 1.333 . S
C168 N170 1.350 . S
C168 H194 0.931 . S
N169 Co165 2.148 1_565 S
N169 C166 1.301 . S
N169 C167 1.317 . S
N170 C166 1.328 . S
N170 C168 1.350 . S
H171 C166 0.930 . S
H172 C167 0.930 . S
C173 O174 1.224 . S
C173 O192 1.247 . S
O174 C173 1.224 . S
N175 Co165 2.128 . S
N175 C176 1.355 . S
N175 C178 1.311 . S
C176 N175 1.355 . S
C176 C177 1.363 . S
C176 H188 0.929 . S
C177 C176 1.363 . S
C177 N179 1.375 . S
C177 H195 0.931 . S
C178 N175 1.311 . S
C178 N179 1.347 . S
C178 H189 0.929 . S
N179 C177 1.375 . S
N179 C178 1.347 . S
C180 C183 1.365 . S
C180 N185 1.328 . S
C180 H186 0.929 . S
C181 C182 1.362 . S
C181 C184 1.378 . S
C181 H196 0.929 . S
C182 C181 1.362 . S
C182 C183 1.366 . S
C183 C180 1.365 . S
C183 C182 1.366 . S
C183 H197 0.930 1_455 S
C184 C181 1.378 . S
C184 N185 1.315 . S
C184 H187 0.930 . S
N185 Co165 2.194 . S
N185 C180 1.328 . S
N185 C184 1.315 . S
H186 C180 0.929 . S
H187 C184 0.930 . S
H188 C176 0.929 . S
H189 C178 0.929 . S
O190 Co165 2.351 1_565 S
O190 C193 1.244 . S
O191 Co165 2.155 1_565 S
O191 C193 1.240 . S
O192 Co165 2.096 . S
O192 C173 1.247 . S
C193 O190 1.244 . S
C193 O191 1.240 . S
H194 C168 0.931 . S
H195 C177 0.931 . S
H196 C181 0.929 . S
H197 C183 0.930 1_655 S
Co198 N202 2.148 1_545 S
Co198 N208 2.128 1_556 S
Co198 N218 2.194 . S
Co198 O223 2.351 1_546 S
Co198 O224 2.155 1_546 S
Co198 O225 2.096 1_556 S
C199 N202 1.301 . S
C199 N203 1.328 . S
C199 H204 0.930 . S
C200 C201 1.333 . S
C200 N202 1.317 . S
C200 H205 0.930 . S
C201 C200 1.333 . S
C201 N203 1.350 . S
C201 H227 0.931 . S
N202 Co198 2.148 1_565 S
N202 C199 1.301 . S
N202 C200 1.317 . S
N203 C199 1.328 . S
N203 C201 1.350 . S
H204 C199 0.930 . S
H205 C200 0.930 . S
C206 O207 1.224 . S
C206 O225 1.247 1_556 S
O207 C206 1.224 . S
N208 Co198 2.128 1_554 S
N208 C209 1.355 . S
N208 C211 1.311 . S
C209 N208 1.355 . S
C209 C210 1.363 . S
C209 H221 0.929 . S
C210 C209 1.363 . S
C210 N212 1.375 . S
C210 H228 0.931 . S
C211 N208 1.311 . S
C211 N212 1.347 . S
C211 H222 0.929 . S
N212 C210 1.375 . S
N212 C211 1.347 . S
C213 C216 1.365 . S
C213 N218 1.328 . S
C213 H219 0.929 . S
C214 C215 1.362 . S
C214 C217 1.378 . S
C214 H229 0.929 . S
C215 C214 1.362 . S
C215 C216 1.366 . S
C216 C213 1.365 . S
C216 C215 1.366 . S
C216 H230 0.930 . S
C217 C214 1.378 . S
C217 N218 1.315 . S
C217 H220 0.930 . S
N218 Co198 2.194 . S
N218 C213 1.328 . S
N218 C217 1.315 . S
H219 C213 0.929 . S
H220 C217 0.930 . S
H221 C209 0.929 . S
H222 C211 0.929 . S
O223 Co198 2.351 1_564 S
O223 C226 1.244 . S
O224 Co198 2.155 1_564 S
O224 C226 1.240 . S
O225 Co198 2.096 1_554 S
O225 C206 1.247 1_554 S
C226 O223 1.244 . S
C226 O224 1.240 . S
H227 C201 0.931 . S
H228 C210 0.931 . S
H229 C214 0.929 . S
H230 C216 0.930 . S
Co231 N235 2.148 . S
Co231 N241 2.128 1_556 S
Co231 N251 2.194 . S
Co231 O256 2.351 1_556 S
Co231 O257 2.155 1_556 S
Co231 O258 2.096 1_556 S
C232 N235 1.301 . S
C232 N236 1.328 . S
C232 H237 0.930 . S
C233 C234 1.333 . S
C233 N235 1.317 . S
C233 H238 0.930 . S
C234 C233 1.333 . S
C234 N236 1.350 . S
C234 H260 0.931 . S
N235 Co231 2.148 . S
N235 C232 1.301 . S
N235 C233 1.317 . S
N236 C232 1.328 . S
N236 C234 1.350 . S
H237 C232 0.930 . S
H238 C233 0.930 . S
C239 O240 1.224 . S
C239 O258 1.247 1_556 S
O240 C239 1.224 . S
N241 Co231 2.128 1_554 S
N241 C242 1.355 . S
N241 C244 1.311 . S
C242 N241 1.355 . S
C242 C243 1.363 . S
C242 H254 0.929 . S
C243 C242 1.363 . S
C243 N245 1.375 . S
C243 H261 0.931 . S
C244 N241 1.311 . S
C244 N245 1.347 . S
C244 H255 0.929 . S
N245 C243 1.375 . S
N245 C244 1.347 . S
C246 C249 1.365 . S
C246 N251 1.328 . S
C246 H252 0.929 . S
C247 C248 1.362 . S
C247 C250 1.378 . S
C247 H262 0.929 . S
C248 C247 1.362 . S
C248 C249 1.366 . S
C249 C246 1.365 . S
C249 C248 1.366 . S
C249 H263 0.930 1_455 S
C250 C247 1.378 . S
C250 N251 1.315 . S
C250 H253 0.930 . S
N251 Co231 2.194 . S
N251 C246 1.328 . S
N251 C250 1.315 . S
H252 C246 0.929 . S
H253 C250 0.930 . S
H254 C242 0.929 . S
H255 C244 0.929 . S
O256 Co231 2.351 1_554 S
O256 C259 1.244 . S
O257 Co231 2.155 1_554 S
O257 C259 1.240 . S
O258 Co231 2.096 1_554 S
O258 C239 1.247 1_554 S
C259 O256 1.244 . S
C259 O257 1.240 . S
H260 C234 0.931 . S
H261 C243 0.931 . S
H262 C247 0.929 . S
H263 C249 0.930 1_655 S
Co264 N268 2.148 . S
Co264 N274 2.128 . S
Co264 N284 2.194 . S
Co264 O289 2.351 . S
Co264 O290 2.155 . S
Co264 O291 2.096 . S
C265 N268 1.301 . S
C265 N269 1.328 . S
C265 H270 0.930 . S
C266 C267 1.333 . S
C266 N268 1.317 . S
C266 H271 0.930 . S
C267 C266 1.333 . S
C267 N269 1.350 . S
C267 H293 0.931 . S
N268 Co264 2.148 . S
N268 C265 1.301 . S
N268 C266 1.317 . S
N269 C265 1.328 . S
N269 C267 1.350 . S
H270 C265 0.930 . S
H271 C266 0.930 . S
C272 O273 1.224 . S
C272 O291 1.247 . S
O273 C272 1.224 . S
N274 Co264 2.128 . S
N274 C275 1.355 . S
N274 C277 1.311 . S
C275 N274 1.355 . S
C275 C276 1.363 . S
C275 H287 0.929 . S
C276 C275 1.363 . S
C276 N278 1.375 . S
C276 H294 0.931 . S
C277 N274 1.311 . S
C277 N278 1.347 . S
C277 H288 0.929 . S
N278 C276 1.375 . S
N278 C277 1.347 . S
C279 C282 1.365 . S
C279 N284 1.328 . S
C279 H285 0.929 . S
C280 C281 1.362 . S
C280 C283 1.378 . S
C280 H295 0.929 . S
C281 C280 1.362 . S
C281 C282 1.366 . S
C282 C279 1.365 . S
C282 C281 1.366 . S
C282 H296 0.930 . S
C283 C280 1.378 . S
C283 N284 1.315 . S
C283 H286 0.930 . S
N284 Co264 2.194 . S
N284 C279 1.328 . S
N284 C283 1.315 . S
H285 C279 0.929 . S
H286 C283 0.930 . S
H287 C275 0.929 . S
H288 C277 0.929 . S
O289 Co264 2.351 . S
O289 C292 1.244 . S
O290 Co264 2.155 . S
O290 C292 1.240 . S
O291 Co264 2.096 . S
O291 C272 1.247 . S
C292 O289 1.244 . S
C292 O290 1.240 . S
H293 C267 0.931 . S
H294 C276 0.931 . S
H295 C280 0.929 . S
H296 C282 0.930 . S
Co297 N301 2.148 . S
Co297 N307 2.128 . S
Co297 N317 2.194 . S
Co297 O322 2.351 . S
Co297 O323 2.155 . S
Co297 O324 2.096 . S
C298 N301 1.301 . S
C298 N302 1.328 . S
C298 H303 0.930 . S
C299 C300 1.333 . S
C299 N301 1.317 . S
C299 H304 0.930 . S
C300 C299 1.333 . S
C300 N302 1.350 . S
C300 H326 0.931 . S
N301 Co297 2.148 . S
N301 C298 1.301 . S
N301 C299 1.317 . S
N302 C298 1.328 . S
N302 C300 1.350 . S
H303 C298 0.930 . S
H304 C299 0.930 . S
C305 O306 1.224 . S
C305 O324 1.247 . S
O306 C305 1.224 . S
N307 Co297 2.128 . S
N307 C308 1.355 . S
N307 C310 1.311 . S
C308 N307 1.355 . S
C308 C309 1.363 . S
C308 H320 0.929 . S
C309 C308 1.363 . S
C309 N311 1.375 . S
C309 H327 0.931 . S
C310 N307 1.311 . S
C310 N311 1.347 . S
C310 H321 0.929 . S
N311 C309 1.375 . S
N311 C310 1.347 . S
C312 C315 1.365 . S
C312 N317 1.328 . S
C312 H318 0.929 . S
C313 C314 1.362 . S
C313 C316 1.378 . S
C313 H328 0.929 . S
C314 C313 1.362 . S
C314 C315 1.366 . S
C315 C312 1.365 . S
C315 C314 1.366 . S
C315 H329 0.930 1_655 S
C316 C313 1.378 . S
C316 N317 1.315 . S
C316 H319 0.930 . S
N317 Co297 2.194 . S
N317 C312 1.328 . S
N317 C316 1.315 . S
H318 C312 0.929 . S
H319 C316 0.930 . S
H320 C308 0.929 . S
H321 C310 0.929 . S
O322 Co297 2.351 . S
O322 C325 1.244 . S
O323 Co297 2.155 . S
O323 C325 1.240 . S
O324 Co297 2.096 . S
O324 C305 1.247 . S
C325 O322 1.244 . S
C325 O323 1.240 . S
H326 C300 0.931 . S
H327 C309 0.931 . S
H328 C313 0.929 . S
H329 C315 0.930 1_455 S
Co330 N334 2.148 . S
Co330 N340 2.128 . S
Co330 N350 2.194 . S
Co330 O355 2.351 . S
Co330 O356 2.155 . S
Co330 O357 2.096 . S
C331 N334 1.301 . S
C331 N335 1.328 . S
C331 H336 0.930 . S
C332 C333 1.333 . S
C332 N334 1.317 . S
C332 H337 0.930 . S
C333 C332 1.333 . S
C333 N335 1.350 . S
C333 H359 0.931 . S
N334 Co330 2.148 . S
N334 C331 1.301 . S
N334 C332 1.317 . S
N335 C331 1.328 . S
N335 C333 1.350 . S
H336 C331 0.930 . S
H337 C332 0.930 . S
C338 O339 1.224 . S
C338 O357 1.247 . S
O339 C338 1.224 . S
N340 Co330 2.128 . S
N340 C341 1.355 . S
N340 C343 1.311 . S
C341 N340 1.355 . S
C341 C342 1.363 . S
C341 H353 0.929 . S
C342 C341 1.363 . S
C342 N344 1.375 . S
C342 H360 0.931 . S
C343 N340 1.311 . S
C343 N344 1.347 . S
C343 H354 0.929 . S
N344 C342 1.375 . S
N344 C343 1.347 . S
C345 C348 1.365 . S
C345 N350 1.328 . S
C345 H351 0.929 . S
C346 C347 1.362 . S
C346 C349 1.378 . S
C346 H361 0.929 . S
C347 C346 1.362 . S
C347 C348 1.366 . S
C348 C345 1.365 . S
C348 C347 1.366 . S
C348 H362 0.930 . S
C349 C346 1.378 . S
C349 N350 1.315 . S
C349 H352 0.930 . S
N350 Co330 2.194 . S
N350 C345 1.328 . S
N350 C349 1.315 . S
H351 C345 0.929 . S
H352 C349 0.930 . S
H353 C341 0.929 . S
H354 C343 0.929 . S
O355 Co330 2.351 . S
O355 C358 1.244 . S
O356 Co330 2.155 . S
O356 C358 1.240 . S
O357 Co330 2.096 . S
O357 C338 1.247 . S
C358 O355 1.244 . S
C358 O356 1.240 . S
H359 C333 0.931 . S
H360 C342 0.931 . S
H361 C346 0.929 . S
H362 C348 0.930 . S
Co363 N367 2.148 . S
Co363 N373 2.128 . S
Co363 N383 2.194 . S
Co363 O388 2.351 . S
Co363 O389 2.155 . S
Co363 O390 2.096 . S
C364 N367 1.301 . S
C364 N368 1.328 . S
C364 H369 0.930 . S
C365 C366 1.333 . S
C365 N367 1.317 . S
C365 H370 0.930 . S
C366 C365 1.333 . S
C366 N368 1.350 . S
C366 H392 0.931 . S
N367 Co363 2.148 . S
N367 C364 1.301 . S
N367 C365 1.317 . S
N368 C364 1.328 . S
N368 C366 1.350 . S
H369 C364 0.930 . S
H370 C365 0.930 . S
C371 O372 1.224 . S
C371 O390 1.247 . S
O372 C371 1.224 . S
N373 Co363 2.128 . S
N373 C374 1.355 . S
N373 C376 1.311 . S
C374 N373 1.355 . S
C374 C375 1.363 . S
C374 H386 0.929 . S
C375 C374 1.363 . S
C375 N377 1.375 . S
C375 H393 0.931 . S
C376 N373 1.311 . S
C376 N377 1.347 . S
C376 H387 0.929 . S
N377 C375 1.375 . S
N377 C376 1.347 . S
C378 C381 1.365 . S
C378 N383 1.328 . S
C378 H384 0.929 . S
C379 C380 1.362 . S
C379 C382 1.378 . S
C379 H394 0.929 . S
C380 C379 1.362 . S
C380 C381 1.366 . S
C381 C378 1.365 . S
C381 C380 1.366 . S
C381 H395 0.930 1_655 S
C382 C379 1.378 . S
C382 N383 1.315 . S
C382 H385 0.930 . S
N383 Co363 2.194 . S
N383 C378 1.328 . S
N383 C382 1.315 . S
H384 C378 0.929 . S
H385 C382 0.930 . S
H386 C374 0.929 . S
H387 C376 0.929 . S
O388 Co363 2.351 . S
O388 C391 1.244 . S
O389 Co363 2.155 . S
O389 C391 1.240 . S
O390 Co363 2.096 . S
O390 C371 1.247 . S
C391 O388 1.244 . S
C391 O389 1.240 . S
H392 C366 0.931 . S
H393 C375 0.931 . S
H394 C379 0.929 . S
H395 C381 0.930 1_455 S
Co396 N400 2.148 . S
Co396 N406 2.128 . S
Co396 N416 2.194 . S
Co396 O421 2.351 . S
Co396 O422 2.155 . S
Co396 O423 2.096 . S
C397 N400 1.301 . S
C397 N401 1.328 . S
C397 H402 0.930 . S
C398 C399 1.333 . S
C398 N400 1.317 . S
C398 H403 0.930 . S
C399 C398 1.333 . S
C399 N401 1.350 . S
C399 H425 0.931 . S
N400 Co396 2.148 . S
N400 C397 1.301 . S
N400 C398 1.317 . S
N401 C397 1.328 . S
N401 C399 1.350 . S
H402 C397 0.930 . S
H403 C398 0.930 . S
C404 O405 1.224 . S
C404 O423 1.247 . S
O405 C404 1.224 . S
N406 Co396 2.128 . S
N406 C407 1.355 . S
N406 C409 1.311 . S
C407 N406 1.355 . S
C407 C408 1.363 . S
C407 H419 0.929 . S
C408 C407 1.363 . S
C408 N410 1.375 . S
C408 H426 0.931 . S
C409 N406 1.311 . S
C409 N410 1.347 . S
C409 H420 0.929 . S
N410 C408 1.375 . S
N410 C409 1.347 . S
C411 C414 1.365 . S
C411 N416 1.328 . S
C411 H417 0.929 . S
C412 C413 1.362 . S
C412 C415 1.378 . S
C412 H427 0.929 . S
C413 C412 1.362 . S
C413 C414 1.366 . S
C414 C411 1.365 . S
C414 C413 1.366 . S
C414 H428 0.930 . S
C415 C412 1.378 . S
C415 N416 1.315 . S
C415 H418 0.930 . S
N416 Co396 2.194 . S
N416 C411 1.328 . S
N416 C415 1.315 . S
H417 C411 0.929 . S
H418 C415 0.930 . S
H419 C407 0.929 . S
H420 C409 0.929 . S
O421 Co396 2.351 . S
O421 C424 1.244 . S
O422 Co396 2.155 . S
O422 C424 1.240 . S
O423 Co396 2.096 . S
O423 C404 1.247 . S
C424 O421 1.244 . S
C424 O422 1.240 . S
H425 C399 0.931 . S
H426 C408 0.931 . S
H427 C412 0.929 . S
H428 C414 0.930 . S
Co429 N433 2.148 . S
Co429 N439 2.128 . S
Co429 N449 2.194 . S
Co429 O454 2.351 . S
Co429 O455 2.155 . S
Co429 O456 2.096 . S
C430 N433 1.301 . S
C430 N434 1.328 . S
C430 H435 0.930 . S
C431 C432 1.333 . S
C431 N433 1.317 . S
C431 H436 0.930 . S
C432 C431 1.333 . S
C432 N434 1.350 . S
C432 H458 0.931 . S
N433 Co429 2.148 . S
N433 C430 1.301 . S
N433 C431 1.317 . S
N434 C430 1.328 . S
N434 C432 1.350 . S
H435 C430 0.930 . S
H436 C431 0.930 . S
C437 O438 1.224 . S
C437 O456 1.247 . S
O438 C437 1.224 . S
N439 Co429 2.128 . S
N439 C440 1.355 . S
N439 C442 1.311 . S
C440 N439 1.355 . S
C440 C441 1.363 . S
C440 H452 0.929 . S
C441 C440 1.363 . S
C441 N443 1.375 . S
C441 H459 0.931 . S
C442 N439 1.311 . S
C442 N443 1.347 . S
C442 H453 0.929 . S
N443 C441 1.375 . S
N443 C442 1.347 . S
C444 C447 1.365 . S
C444 N449 1.328 . S
C444 H450 0.929 . S
C445 C446 1.362 . S
C445 C448 1.378 . S
C445 H460 0.929 . S
C446 C445 1.362 . S
C446 C447 1.366 . S
C447 C444 1.365 . S
C447 C446 1.366 . S
C447 H461 0.930 1_455 S
C448 C445 1.378 . S
C448 N449 1.315 . S
C448 H451 0.930 . S
N449 Co429 2.194 . S
N449 C444 1.328 . S
N449 C448 1.315 . S
H450 C444 0.929 . S
H451 C448 0.930 . S
H452 C440 0.929 . S
H453 C442 0.929 . S
O454 Co429 2.351 . S
O454 C457 1.244 . S
O455 Co429 2.155 . S
O455 C457 1.240 . S
O456 Co429 2.096 . S
O456 C437 1.247 . S
C457 O454 1.244 . S
C457 O455 1.240 . S
H458 C432 0.931 . S
H459 C441 0.931 . S
H460 C445 0.929 . S
H461 C447 0.930 1_655 S
Co462 N466 2.148 . S
Co462 N472 2.128 . S
Co462 N482 2.194 . S
Co462 O487 2.351 . S
Co462 O488 2.155 . S
Co462 O489 2.096 . S
C463 N466 1.301 . S
C463 N467 1.328 . S
C463 H468 0.930 . S
C464 C465 1.333 . S
C464 N466 1.317 . S
C464 H469 0.930 . S
C465 C464 1.333 . S
C465 N467 1.350 . S
C465 H491 0.931 . S
N466 Co462 2.148 . S
N466 C463 1.301 . S
N466 C464 1.317 . S
N467 C463 1.328 . S
N467 C465 1.350 . S
H468 C463 0.930 . S
H469 C464 0.930 . S
C470 O471 1.224 . S
C470 O489 1.247 . S
O471 C470 1.224 . S
N472 Co462 2.128 . S
N472 C473 1.355 . S
N472 C475 1.311 . S
C473 N472 1.355 . S
C473 C474 1.363 . S
C473 H485 0.929 . S
C474 C473 1.363 . S
C474 N476 1.375 . S
C474 H492 0.931 . S
C475 N472 1.311 . S
C475 N476 1.347 . S
C475 H486 0.929 . S
N476 C474 1.375 . S
N476 C475 1.347 . S
C477 C480 1.365 . S
C477 N482 1.328 . S
C477 H483 0.929 . S
C478 C479 1.362 . S
C478 C481 1.378 . S
C478 H493 0.929 . S
C479 C478 1.362 . S
C479 C480 1.366 . S
C480 C477 1.365 . S
C480 C479 1.366 . S
C480 H494 0.930 . S
C481 C478 1.378 . S
C481 N482 1.315 . S
C481 H484 0.930 . S
N482 Co462 2.194 . S
N482 C477 1.328 . S
N482 C481 1.315 . S
H483 C477 0.929 . S
H484 C481 0.930 . S
H485 C473 0.929 . S
H486 C475 0.929 . S
O487 Co462 2.351 . S
O487 C490 1.244 . S
O488 Co462 2.155 . S
O488 C490 1.240 . S
O489 Co462 2.096 . S
O489 C470 1.247 . S
C490 O487 1.244 . S
C490 O488 1.240 . S
H491 C465 0.931 . S
H492 C474 0.931 . S
H493 C478 0.929 . S
H494 C480 0.930 . S
Co495 N499 2.148 . S
Co495 N505 2.128 . S
Co495 N515 2.194 . S
Co495 O520 2.351 . S
Co495 O521 2.155 . S
Co495 O522 2.096 . S
C496 N499 1.301 . S
C496 N500 1.328 . S
C496 H501 0.930 . S
C497 C498 1.333 . S
C497 N499 1.317 . S
C497 H502 0.930 . S
C498 C497 1.333 . S
C498 N500 1.350 . S
C498 H524 0.931 . S
N499 Co495 2.148 . S
N499 C496 1.301 . S
N499 C497 1.317 . S
N500 C496 1.328 . S
N500 C498 1.350 . S
H501 C496 0.930 . S
H502 C497 0.930 . S
C503 O504 1.224 . S
C503 O522 1.247 . S
O504 C503 1.224 . S
N505 Co495 2.128 . S
N505 C506 1.355 . S
N505 C508 1.311 . S
C506 N505 1.355 . S
C506 C507 1.363 . S
C506 H518 0.929 . S
C507 C506 1.363 . S
C507 N509 1.375 . S
C507 H525 0.931 . S
C508 N505 1.311 . S
C508 N509 1.347 . S
C508 H519 0.929 . S
N509 C507 1.375 . S
N509 C508 1.347 . S
C510 C513 1.365 . S
C510 N515 1.328 . S
C510 H516 0.929 . S
C511 C512 1.362 . S
C511 C514 1.378 . S
C511 H526 0.929 . S
C512 C511 1.362 . S
C512 C513 1.366 . S
C513 C510 1.365 . S
C513 C512 1.366 . S
C513 H527 0.930 1_455 S
C514 C511 1.378 . S
C514 N515 1.315 . S
C514 H517 0.930 . S
N515 Co495 2.194 . S
N515 C510 1.328 . S
N515 C514 1.315 . S
H516 C510 0.929 . S
H517 C514 0.930 . S
H518 C506 0.929 . S
H519 C508 0.929 . S
O520 Co495 2.351 . S
O520 C523 1.244 . S
O521 Co495 2.155 . S
O521 C523 1.240 . S
O522 Co495 2.096 . S
O522 C503 1.247 . S
C523 O520 1.244 . S
C523 O521 1.240 . S
H524 C498 0.931 . S
H525 C507 0.931 . S
H526 C511 0.929 . S
H527 C513 0.930 1_655 S
Co528 N532 2.148 . S
Co528 N538 2.128 . S
Co528 N548 2.194 . S
Co528 O553 2.351 . S
Co528 O554 2.155 . S
Co528 O555 2.096 . S
C529 N532 1.301 . S
C529 N533 1.328 . S
C529 H534 0.930 . S
C530 C531 1.333 . S
C530 N532 1.317 . S
C530 H535 0.930 . S
C531 C530 1.333 . S
C531 N533 1.350 . S
C531 H557 0.931 . S
N532 Co528 2.148 . S
N532 C529 1.301 . S
N532 C530 1.317 . S
N533 C529 1.328 . S
N533 C531 1.350 . S
H534 C529 0.930 . S
H535 C530 0.930 . S
C536 O537 1.224 . S
C536 O555 1.247 . S
O537 C536 1.224 . S
N538 Co528 2.128 . S
N538 C539 1.355 . S
N538 C541 1.311 . S
C539 N538 1.355 . S
C539 C540 1.363 . S
C539 H551 0.929 . S
C540 C539 1.363 . S
C540 N542 1.375 . S
C540 H558 0.931 . S
C541 N538 1.311 . S
C541 N542 1.347 . S
C541 H552 0.929 . S
N542 C540 1.375 . S
N542 C541 1.347 . S
C543 C546 1.365 . S
C543 N548 1.328 . S
C543 H549 0.929 . S
C544 C545 1.362 . S
C544 C547 1.378 . S
C544 H559 0.929 . S
C545 C544 1.362 . S
C545 C546 1.366 . S
C546 C543 1.365 . S
C546 C545 1.366 . S
C546 H560 0.930 . S
C547 C544 1.378 . S
C547 N548 1.315 . S
C547 H550 0.930 . S
N548 Co528 2.194 . S
N548 C543 1.328 . S
N548 C547 1.315 . S
H549 C543 0.929 . S
H550 C547 0.930 . S
H551 C539 0.929 . S
H552 C541 0.929 . S
O553 Co528 2.351 . S
O553 C556 1.244 . S
O554 Co528 2.155 . S
O554 C556 1.240 . S
O555 Co528 2.096 . S
O555 C536 1.247 . S
C556 O553 1.244 . S
C556 O554 1.240 . S
H557 C531 0.931 . S
H558 C540 0.931 . S
H559 C544 0.929 . S
H560 C546 0.930 . S
Co561 N565 2.148 1_565 S
Co561 N571 2.128 . S
Co561 N581 2.194 . S
Co561 O586 2.351 1_565 S
Co561 O587 2.155 1_565 S
Co561 O588 2.096 . S
C562 N565 1.301 . S
C562 N566 1.328 . S
C562 H567 0.930 . S
C563 C564 1.333 . S
C563 N565 1.317 . S
C563 H568 0.930 . S
C564 C563 1.333 . S
C564 N566 1.350 . S
C564 H590 0.931 . S
N565 Co561 2.148 1_545 S
N565 C562 1.301 . S
N565 C563 1.317 . S
N566 C562 1.328 . S
N566 C564 1.350 . S
H567 C562 0.930 . S
H568 C563 0.930 . S
C569 O570 1.224 . S
C569 O588 1.247 . S
O570 C569 1.224 . S
N571 Co561 2.128 . S
N571 C572 1.355 . S
N571 C574 1.311 . S
C572 N571 1.355 . S
C572 C573 1.363 . S
C572 H584 0.929 . S
C573 C572 1.363 . S
C573 N575 1.375 . S
C573 H591 0.931 . S
C574 N571 1.311 . S
C574 N575 1.347 . S
C574 H585 0.929 . S
N575 C573 1.375 . S
N575 C574 1.347 . S
C576 C579 1.365 . S
C576 N581 1.328 . S
C576 H582 0.929 . S
C577 C578 1.362 . S
C577 C580 1.378 . S
C577 H592 0.929 . S
C578 C577 1.362 . S
C578 C579 1.366 . S
C579 C576 1.365 . S
C579 C578 1.366 . S
C579 H593 0.930 . S
C580 C577 1.378 . S
C580 N581 1.315 . S
C580 H583 0.930 . S
N581 Co561 2.194 . S
N581 C576 1.328 . S
N581 C580 1.315 . S
H582 C576 0.929 . S
H583 C580 0.930 . S
H584 C572 0.929 . S
H585 C574 0.929 . S
O586 Co561 2.351 1_545 S
O586 C589 1.244 . S
O587 Co561 2.155 1_545 S
O587 C589 1.240 . S
O588 Co561 2.096 . S
O588 C569 1.247 . S
C589 O586 1.244 . S
C589 O587 1.240 . S
H590 C564 0.931 . S
H591 C573 0.931 . S
H592 C577 0.929 . S
H593 C579 0.930 . S
Co594 N598 2.148 1_565 S
Co594 N604 2.128 . S
Co594 N614 2.194 . S
Co594 O619 2.351 1_565 S
Co594 O620 2.155 1_565 S
Co594 O621 2.096 . S
C595 N598 1.301 . S
C595 N599 1.328 . S
C595 H600 0.930 . S
C596 C597 1.333 . S
C596 N598 1.317 . S
C596 H601 0.930 . S
C597 C596 1.333 . S
C597 N599 1.350 . S
C597 H623 0.931 . S
N598 Co594 2.148 1_545 S
N598 C595 1.301 . S
N598 C596 1.317 . S
N599 C595 1.328 . S
N599 C597 1.350 . S
H600 C595 0.930 . S
H601 C596 0.930 . S
C602 O603 1.224 . S
C602 O621 1.247 . S
O603 C602 1.224 . S
N604 Co594 2.128 . S
N604 C605 1.355 . S
N604 C607 1.311 . S
C605 N604 1.355 . S
C605 C606 1.363 . S
C605 H617 0.929 . S
C606 C605 1.363 . S
C606 N608 1.375 . S
C606 H624 0.931 . S
C607 N604 1.311 . S
C607 N608 1.347 . S
C607 H618 0.929 . S
N608 C606 1.375 . S
N608 C607 1.347 . S
C609 C612 1.365 . S
C609 N614 1.328 . S
C609 H615 0.929 . S
C610 C611 1.362 . S
C610 C613 1.378 . S
C610 H625 0.929 . S
C611 C610 1.362 . S
C611 C612 1.366 . S
C612 C609 1.365 . S
C612 C611 1.366 . S
C612 H626 0.930 . S
C613 C610 1.378 . S
C613 N614 1.315 . S
C613 H616 0.930 . S
N614 Co594 2.194 . S
N614 C609 1.328 . S
N614 C613 1.315 . S
H615 C609 0.929 . S
H616 C613 0.930 . S
H617 C605 0.929 . S
H618 C607 0.929 . S
O619 Co594 2.351 1_545 S
O619 C622 1.244 . S
O620 Co594 2.155 1_545 S
O620 C622 1.240 . S
O621 Co594 2.096 . S
O621 C602 1.247 . S
C622 O619 1.244 . S
C622 O620 1.240 . S
H623 C597 0.931 . S
H624 C606 0.931 . S
H625 C610 0.929 . S
H626 C612 0.930 . S
Co627 N631 2.148 . S
Co627 N637 2.128 . S
Co627 N647 2.194 . S
Co627 O652 2.351 . S
Co627 O653 2.155 . S
Co627 O654 2.096 . S
C628 N631 1.301 . S
C628 N632 1.328 . S
C628 H633 0.930 . S
C629 C630 1.333 . S
C629 N631 1.317 . S
C629 H634 0.930 . S
C630 C629 1.333 . S
C630 N632 1.350 . S
C630 H656 0.931 . S
N631 Co627 2.148 . S
N631 C628 1.301 . S
N631 C629 1.317 . S
N632 C628 1.328 . S
N632 C630 1.350 . S
H633 C628 0.930 . S
H634 C629 0.930 . S
C635 O636 1.224 . S
C635 O654 1.247 . S
O636 C635 1.224 . S
N637 Co627 2.128 . S
N637 C638 1.355 . S
N637 C640 1.311 . S
C638 N637 1.355 . S
C638 C639 1.363 . S
C638 H650 0.929 . S
C639 C638 1.363 . S
C639 N641 1.375 . S
C639 H657 0.931 . S
C640 N637 1.311 . S
C640 N641 1.347 . S
C640 H651 0.929 . S
N641 C639 1.375 . S
N641 C640 1.347 . S
C642 C645 1.365 . S
C642 N647 1.328 . S
C642 H648 0.929 . S
C643 C644 1.362 . S
C643 C646 1.378 . S
C643 H658 0.929 . S
C644 C643 1.362 . S
C644 C645 1.366 . S
C645 C642 1.365 . S
C645 C644 1.366 . S
C645 H659 0.930 . S
C646 C643 1.378 . S
C646 N647 1.315 . S
C646 H649 0.930 . S
N647 Co627 2.194 . S
N647 C642 1.328 . S
N647 C646 1.315 . S
H648 C642 0.929 . S
H649 C646 0.930 . S
H650 C638 0.929 . S
H651 C640 0.929 . S
O652 Co627 2.351 . S
O652 C655 1.244 . S
O653 Co627 2.155 . S
O653 C655 1.240 . S
O654 Co627 2.096 . S
O654 C635 1.247 . S
C655 O652 1.244 . S
C655 O653 1.240 . S
H656 C630 0.931 . S
H657 C639 0.931 . S
H658 C643 0.929 . S
H659 C645 0.930 . S
Co660 N664 2.148 . S
Co660 N670 2.128 . S
Co660 N680 2.194 . S
Co660 O685 2.351 . S
Co660 O686 2.155 . S
Co660 O687 2.096 . S
C661 N664 1.301 . S
C661 N665 1.328 . S
C661 H666 0.930 . S
C662 C663 1.333 . S
C662 N664 1.317 . S
C662 H667 0.930 . S
C663 C662 1.333 . S
C663 N665 1.350 . S
C663 H689 0.931 . S
N664 Co660 2.148 . S
N664 C661 1.301 . S
N664 C662 1.317 . S
N665 C661 1.328 . S
N665 C663 1.350 . S
H666 C661 0.930 . S
H667 C662 0.930 . S
C668 O669 1.224 . S
C668 O687 1.247 . S
O669 C668 1.224 . S
N670 Co660 2.128 . S
N670 C671 1.355 . S
N670 C673 1.311 . S
C671 N670 1.355 . S
C671 C672 1.363 . S
C671 H683 0.929 . S
C672 C671 1.363 . S
C672 N674 1.375 . S
C672 H690 0.931 . S
C673 N670 1.311 . S
C673 N674 1.347 . S
C673 H684 0.929 . S
N674 C672 1.375 . S
N674 C673 1.347 . S
C675 C678 1.365 . S
C675 N680 1.328 . S
C675 H681 0.929 . S
C676 C677 1.362 . S
C676 C679 1.378 . S
C676 H691 0.929 . S
C677 C676 1.362 . S
C677 C678 1.366 . S
C678 C675 1.365 . S
C678 C677 1.366 . S
C678 H692 0.930 . S
C679 C676 1.378 . S
C679 N680 1.315 . S
C679 H682 0.930 . S
N680 Co660 2.194 . S
N680 C675 1.328 . S
N680 C679 1.315 . S
H681 C675 0.929 . S
H682 C679 0.930 . S
H683 C671 0.929 . S
H684 C673 0.929 . S
O685 Co660 2.351 . S
O685 C688 1.244 . S
O686 Co660 2.155 . S
O686 C688 1.240 . S
O687 Co660 2.096 . S
O687 C668 1.247 . S
C688 O685 1.244 . S
C688 O686 1.240 . S
H689 C663 0.931 . S
H690 C672 0.931 . S
H691 C676 0.929 . S
H692 C678 0.930 . S
Co693 N697 2.148 1_545 S
Co693 N703 2.128 . S
Co693 N713 2.194 . S
Co693 O718 2.351 1_545 S
Co693 O719 2.155 1_545 S
Co693 O720 2.096 . S
C694 N697 1.301 . S
C694 N698 1.328 . S
C694 H699 0.930 . S
C695 C696 1.333 . S
C695 N697 1.317 . S
C695 H700 0.930 . S
C696 C695 1.333 . S
C696 N698 1.350 . S
C696 H722 0.931 . S
N697 Co693 2.148 1_565 S
N697 C694 1.301 . S
N697 C695 1.317 . S
N698 C694 1.328 . S
N698 C696 1.350 . S
H699 C694 0.930 . S
H700 C695 0.930 . S
C701 O702 1.224 . S
C701 O720 1.247 . S
O702 C701 1.224 . S
N703 Co693 2.128 . S
N703 C704 1.355 . S
N703 C706 1.311 . S
C704 N703 1.355 . S
C704 C705 1.363 . S
C704 H716 0.929 . S
C705 C704 1.363 . S
C705 N707 1.375 . S
C705 H723 0.931 . S
C706 N703 1.311 . S
C706 N707 1.347 . S
C706 H717 0.929 . S
N707 C705 1.375 . S
N707 C706 1.347 . S
C708 C711 1.365 . S
C708 N713 1.328 . S
C708 H714 0.929 . S
C709 C710 1.362 . S
C709 C712 1.378 . S
C709 H724 0.929 . S
C710 C709 1.362 . S
C710 C711 1.366 . S
C711 C708 1.365 . S
C711 C710 1.366 . S
C711 H725 0.930 . S
C712 C709 1.378 . S
C712 N713 1.315 . S
C712 H715 0.930 . S
N713 Co693 2.194 . S
N713 C708 1.328 . S
N713 C712 1.315 . S
H714 C708 0.929 . S
H715 C712 0.930 . S
H716 C704 0.929 . S
H717 C706 0.929 . S
O718 Co693 2.351 1_565 S
O718 C721 1.244 . S
O719 Co693 2.155 1_565 S
O719 C721 1.240 . S
O720 Co693 2.096 . S
O720 C701 1.247 . S
C721 O718 1.244 . S
C721 O719 1.240 . S
H722 C696 0.931 . S
H723 C705 0.931 . S
H724 C709 0.929 . S
H725 C711 0.930 . S
Co726 N730 2.148 1_545 S
Co726 N736 2.128 . S
Co726 N746 2.194 . S
Co726 O751 2.351 1_545 S
Co726 O752 2.155 1_545 S
Co726 O753 2.096 . S
C727 N730 1.301 . S
C727 N731 1.328 . S
C727 H732 0.930 . S
C728 C729 1.333 . S
C728 N730 1.317 . S
C728 H733 0.930 . S
C729 C728 1.333 . S
C729 N731 1.350 . S
C729 H755 0.931 . S
N730 Co726 2.148 1_565 S
N730 C727 1.301 . S
N730 C728 1.317 . S
N731 C727 1.328 . S
N731 C729 1.350 . S
H732 C727 0.930 . S
H733 C728 0.930 . S
C734 O735 1.224 . S
C734 O753 1.247 . S
O735 C734 1.224 . S
N736 Co726 2.128 . S
N736 C737 1.355 . S
N736 C739 1.311 . S
C737 N736 1.355 . S
C737 C738 1.363 . S
C737 H749 0.929 . S
C738 C737 1.363 . S
C738 N740 1.375 . S
C738 H756 0.931 . S
C739 N736 1.311 . S
C739 N740 1.347 . S
C739 H750 0.929 . S
N740 C738 1.375 . S
N740 C739 1.347 . S
C741 C744 1.365 . S
C741 N746 1.328 . S
C741 H747 0.929 . S
C742 C743 1.362 . S
C742 C745 1.378 . S
C742 H757 0.929 . S
C743 C742 1.362 . S
C743 C744 1.366 . S
C744 C741 1.365 . S
C744 C743 1.366 . S
C744 H758 0.930 . S
C745 C742 1.378 . S
C745 N746 1.315 . S
C745 H748 0.930 . S
N746 Co726 2.194 . S
N746 C741 1.328 . S
N746 C745 1.315 . S
H747 C741 0.929 . S
H748 C745 0.930 . S
H749 C737 0.929 . S
H750 C739 0.929 . S
O751 Co726 2.351 1_565 S
O751 C754 1.244 . S
O752 Co726 2.155 1_565 S
O752 C754 1.240 . S
O753 Co726 2.096 . S
O753 C734 1.247 . S
C754 O751 1.244 . S
C754 O752 1.240 . S
H755 C729 0.931 . S
H756 C738 0.931 . S
H757 C742 0.929 . S
H758 C744 0.930 . S
Co759 N763 2.148 . S
Co759 N769 2.128 . S
Co759 N779 2.194 . S
Co759 O784 2.351 . S
Co759 O785 2.155 . S
Co759 O786 2.096 . S
C760 N763 1.301 . S
C760 N764 1.328 . S
C760 H765 0.930 . S
C761 C762 1.333 . S
C761 N763 1.317 . S
C761 H766 0.930 . S
C762 C761 1.333 . S
C762 N764 1.350 . S
C762 H788 0.931 . S
N763 Co759 2.148 . S
N763 C760 1.301 . S
N763 C761 1.317 . S
N764 C760 1.328 . S
N764 C762 1.350 . S
H765 C760 0.930 . S
H766 C761 0.930 . S
C767 O768 1.224 . S
C767 O786 1.247 . S
O768 C767 1.224 . S
N769 Co759 2.128 . S
N769 C770 1.355 . S
N769 C772 1.311 . S
C770 N769 1.355 . S
C770 C771 1.363 . S
C770 H782 0.929 . S
C771 C770 1.363 . S
C771 N773 1.375 . S
C771 H789 0.931 . S
C772 N769 1.311 . S
C772 N773 1.347 . S
C772 H783 0.929 . S
N773 C771 1.375 . S
N773 C772 1.347 . S
C774 C777 1.365 . S
C774 N779 1.328 . S
C774 H780 0.929 . S
C775 C776 1.362 . S
C775 C778 1.378 . S
C775 H790 0.929 . S
C776 C775 1.362 . S
C776 C777 1.366 . S
C777 C774 1.365 . S
C777 C776 1.366 . S
C777 H791 0.930 . S
C778 C775 1.378 . S
C778 N779 1.315 . S
C778 H781 0.930 . S
N779 Co759 2.194 . S
N779 C774 1.328 . S
N779 C778 1.315 . S
H780 C774 0.929 . S
H781 C778 0.930 . S
H782 C770 0.929 . S
H783 C772 0.929 . S
O784 Co759 2.351 . S
O784 C787 1.244 . S
O785 Co759 2.155 . S
O785 C787 1.240 . S
O786 Co759 2.096 . S
O786 C767 1.247 . S
C787 O784 1.244 . S
C787 O785 1.240 . S
H788 C762 0.931 . S
H789 C771 0.931 . S
H790 C775 0.929 . S
H791 C777 0.930 . S
Co792 N796 2.148 . S
Co792 N802 2.128 . S
Co792 N812 2.194 . S
Co792 O817 2.351 . S
Co792 O818 2.155 . S
Co792 O819 2.096 . S
C793 N796 1.301 . S
C793 N797 1.328 . S
C793 H798 0.930 . S
C794 C795 1.333 . S
C794 N796 1.317 . S
C794 H799 0.930 . S
C795 C794 1.333 . S
C795 N797 1.350 . S
C795 H821 0.931 . S
N796 Co792 2.148 . S
N796 C793 1.301 . S
N796 C794 1.317 . S
N797 C793 1.328 . S
N797 C795 1.350 . S
H798 C793 0.930 . S
H799 C794 0.930 . S
C800 O801 1.224 . S
C800 O819 1.247 . S
O801 C800 1.224 . S
N802 Co792 2.128 . S
N802 C803 1.355 . S
N802 C805 1.311 . S
C803 N802 1.355 . S
C803 C804 1.363 . S
C803 H815 0.929 . S
C804 C803 1.363 . S
C804 N806 1.375 . S
C804 H822 0.931 . S
C805 N802 1.311 . S
C805 N806 1.347 . S
C805 H816 0.929 . S
N806 C804 1.375 . S
N806 C805 1.347 . S
C807 C810 1.365 . S
C807 N812 1.328 . S
C807 H813 0.929 . S
C808 C809 1.362 . S
C808 C811 1.378 . S
C808 H823 0.929 . S
C809 C808 1.362 . S
C809 C810 1.366 . S
C810 C807 1.365 . S
C810 C809 1.366 . S
C810 H824 0.930 . S
C811 C808 1.378 . S
C811 N812 1.315 . S
C811 H814 0.930 . S
N812 Co792 2.194 . S
N812 C807 1.328 . S
N812 C811 1.315 . S
H813 C807 0.929 . S
H814 C811 0.930 . S
H815 C803 0.929 . S
H816 C805 0.929 . S
O817 Co792 2.351 . S
O817 C820 1.244 . S
O818 Co792 2.155 . S
O818 C820 1.240 . S
O819 Co792 2.096 . S
O819 C800 1.247 . S
C820 O817 1.244 . S
C820 O818 1.240 . S
H821 C795 0.931 . S
H822 C804 0.931 . S
H823 C808 0.929 . S
H824 C810 0.930 . S
Co825 N829 2.148 . S
Co825 N835 2.128 . S
Co825 N845 2.194 . S
Co825 O850 2.351 . S
Co825 O851 2.155 . S
Co825 O852 2.096 . S
C826 N829 1.301 . S
C826 N830 1.328 . S
C826 H831 0.930 . S
C827 C828 1.333 . S
C827 N829 1.317 . S
C827 H832 0.930 . S
C828 C827 1.333 . S
C828 N830 1.350 . S
C828 H854 0.931 . S
N829 Co825 2.148 . S
N829 C826 1.301 . S
N829 C827 1.317 . S
N830 C826 1.328 . S
N830 C828 1.350 . S
H831 C826 0.930 . S
H832 C827 0.930 . S
C833 O834 1.224 . S
C833 O852 1.247 . S
O834 C833 1.224 . S
N835 Co825 2.128 . S
N835 C836 1.355 . S
N835 C838 1.311 . S
C836 N835 1.355 . S
C836 C837 1.363 . S
C836 H848 0.929 . S
C837 C836 1.363 . S
C837 N839 1.375 . S
C837 H855 0.931 . S
C838 N835 1.311 . S
C838 N839 1.347 . S
C838 H849 0.929 . S
N839 C837 1.375 . S
N839 C838 1.347 . S
C840 C843 1.365 . S
C840 N845 1.328 . S
C840 H846 0.929 . S
C841 C842 1.362 . S
C841 C844 1.378 . S
C841 H856 0.929 . S
C842 C841 1.362 . S
C842 C843 1.366 . S
C843 C840 1.365 . S
C843 C842 1.366 . S
C843 H857 0.930 . S
C844 C841 1.378 . S
C844 N845 1.315 . S
C844 H847 0.930 . S
N845 Co825 2.194 . S
N845 C840 1.328 . S
N845 C844 1.315 . S
H846 C840 0.929 . S
H847 C844 0.930 . S
H848 C836 0.929 . S
H849 C838 0.929 . S
O850 Co825 2.351 . S
O850 C853 1.244 . S
O851 Co825 2.155 . S
O851 C853 1.240 . S
O852 Co825 2.096 . S
O852 C833 1.247 . S
C853 O850 1.244 . S
C853 O851 1.240 . S
H854 C828 0.931 . S
H855 C837 0.931 . S
H856 C841 0.929 . S
H857 C843 0.930 . S
Co858 N862 2.148 . S
Co858 N868 2.128 1_554 S
Co858 N878 2.194 . S
Co858 O883 2.351 1_554 S
Co858 O884 2.155 1_554 S
Co858 O885 2.096 1_554 S
C859 N862 1.301 . S
C859 N863 1.328 . S
C859 H864 0.930 . S
C860 C861 1.333 . S
C860 N862 1.317 . S
C860 H865 0.930 . S
C861 C860 1.333 . S
C861 N863 1.350 . S
C861 H887 0.931 . S
N862 Co858 2.148 . S
N862 C859 1.301 . S
N862 C860 1.317 . S
N863 C859 1.328 . S
N863 C861 1.350 . S
H864 C859 0.930 . S
H865 C860 0.930 . S
C866 O867 1.224 . S
C866 O885 1.247 1_554 S
O867 C866 1.224 . S
N868 Co858 2.128 1_556 S
N868 C869 1.355 . S
N868 C871 1.311 . S
C869 N868 1.355 . S
C869 C870 1.363 . S
C869 H881 0.929 . S
C870 C869 1.363 . S
C870 N872 1.375 . S
C870 H888 0.931 . S
C871 N868 1.311 . S
C871 N872 1.347 . S
C871 H882 0.929 . S
N872 C870 1.375 . S
N872 C871 1.347 . S
C873 C876 1.365 . S
C873 N878 1.328 . S
C873 H879 0.929 . S
C874 C875 1.362 . S
C874 C877 1.378 . S
C874 H889 0.929 . S
C875 C874 1.362 . S
C875 C876 1.366 . S
C876 C873 1.365 . S
C876 C875 1.366 . S
C876 H890 0.930 . S
C877 C874 1.378 . S
C877 N878 1.315 . S
C877 H880 0.930 . S
N878 Co858 2.194 . S
N878 C873 1.328 . S
N878 C877 1.315 . S
H879 C873 0.929 . S
H880 C877 0.930 . S
H881 C869 0.929 . S
H882 C871 0.929 . S
O883 Co858 2.351 1_556 S
O883 C886 1.244 . S
O884 Co858 2.155 1_556 S
O884 C886 1.240 . S
O885 Co858 2.096 1_556 S
O885 C866 1.247 1_556 S
C886 O883 1.244 . S
C886 O884 1.240 . S
H887 C861 0.931 . S
H888 C870 0.931 . S
H889 C874 0.929 . S
H890 C876 0.930 . S
Co891 N895 2.148 . S
Co891 N901 2.128 1_554 S
Co891 N911 2.194 . S
Co891 O916 2.351 1_554 S
Co891 O917 2.155 1_554 S
Co891 O918 2.096 1_554 S
C892 N895 1.301 . S
C892 N896 1.328 . S
C892 H897 0.930 . S
C893 C894 1.333 . S
C893 N895 1.317 . S
C893 H898 0.930 . S
C894 C893 1.333 . S
C894 N896 1.350 . S
C894 H920 0.931 . S
N895 Co891 2.148 . S
N895 C892 1.301 . S
N895 C893 1.317 . S
N896 C892 1.328 . S
N896 C894 1.350 . S
H897 C892 0.930 . S
H898 C893 0.930 . S
C899 O900 1.224 . S
C899 O918 1.247 1_554 S
O900 C899 1.224 . S
N901 Co891 2.128 1_556 S
N901 C902 1.355 . S
N901 C904 1.311 . S
C902 N901 1.355 . S
C902 C903 1.363 . S
C902 H914 0.929 . S
C903 C902 1.363 . S
C903 N905 1.375 . S
C903 H921 0.931 . S
C904 N901 1.311 . S
C904 N905 1.347 . S
C904 H915 0.929 . S
N905 C903 1.375 . S
N905 C904 1.347 . S
C906 C909 1.365 . S
C906 N911 1.328 . S
C906 H912 0.929 . S
C907 C908 1.362 . S
C907 C910 1.378 . S
C907 H922 0.929 . S
C908 C907 1.362 . S
C908 C909 1.366 . S
C909 C906 1.365 . S
C909 C908 1.366 . S
C909 H923 0.930 . S
C910 C907 1.378 . S
C910 N911 1.315 . S
C910 H913 0.930 . S
N911 Co891 2.194 . S
N911 C906 1.328 . S
N911 C910 1.315 . S
H912 C906 0.929 . S
H913 C910 0.930 . S
H914 C902 0.929 . S
H915 C904 0.929 . S
O916 Co891 2.351 1_556 S
O916 C919 1.244 . S
O917 Co891 2.155 1_556 S
O917 C919 1.240 . S
O918 Co891 2.096 1_556 S
O918 C899 1.247 1_556 S
C919 O916 1.244 . S
C919 O917 1.240 . S
H920 C894 0.931 . S
H921 C903 0.931 . S
H922 C907 0.929 . S
H923 C909 0.930 . S
Co924 N928 2.148 . S
Co924 N934 2.128 . S
Co924 N944 2.194 . S
Co924 O949 2.351 . S
Co924 O950 2.155 . S
Co924 O951 2.096 . S
C925 N928 1.301 . S
C925 N929 1.328 . S
C925 H930 0.930 . S
C926 C927 1.333 . S
C926 N928 1.317 . S
C926 H931 0.930 . S
C927 C926 1.333 . S
C927 N929 1.350 . S
C927 H953 0.931 . S
N928 Co924 2.148 . S
N928 C925 1.301 . S
N928 C926 1.317 . S
N929 C925 1.328 . S
N929 C927 1.350 . S
H930 C925 0.930 . S
H931 C926 0.930 . S
C932 O933 1.224 . S
C932 O951 1.247 . S
O933 C932 1.224 . S
N934 Co924 2.128 . S
N934 C935 1.355 . S
N934 C937 1.311 . S
C935 N934 1.355 . S
C935 C936 1.363 . S
C935 H947 0.929 . S
C936 C935 1.363 . S
C936 N938 1.375 . S
C936 H954 0.931 . S
C937 N934 1.311 . S
C937 N938 1.347 . S
C937 H948 0.929 . S
N938 C936 1.375 . S
N938 C937 1.347 . S
C939 C942 1.365 . S
C939 N944 1.328 . S
C939 H945 0.929 . S
C940 C941 1.362 . S
C940 C943 1.378 . S
C940 H955 0.929 . S
C941 C940 1.362 . S
C941 C942 1.366 . S
C942 C939 1.365 . S
C942 C941 1.366 . S
C942 H956 0.930 . S
C943 C940 1.378 . S
C943 N944 1.315 . S
C943 H946 0.930 . S
N944 Co924 2.194 . S
N944 C939 1.328 . S
N944 C943 1.315 . S
H945 C939 0.929 . S
H946 C943 0.930 . S
H947 C935 0.929 . S
H948 C937 0.929 . S
O949 Co924 2.351 . S
O949 C952 1.244 . S
O950 Co924 2.155 . S
O950 C952 1.240 . S
O951 Co924 2.096 . S
O951 C932 1.247 . S
C952 O949 1.244 . S
C952 O950 1.240 . S
H953 C927 0.931 . S
H954 C936 0.931 . S
H955 C940 0.929 . S
H956 C942 0.930 . S
Co957 N961 2.148 . S
Co957 N967 2.128 . S
Co957 N977 2.194 . S
Co957 O982 2.351 . S
Co957 O983 2.155 . S
Co957 O984 2.096 . S
C958 N961 1.301 . S
C958 N962 1.328 . S
C958 H963 0.930 . S
C959 C960 1.333 . S
C959 N961 1.317 . S
C959 H964 0.930 . S
C960 C959 1.333 . S
C960 N962 1.350 . S
C960 H986 0.931 . S
N961 Co957 2.148 . S
N961 C958 1.301 . S
N961 C959 1.317 . S
N962 C958 1.328 . S
N962 C960 1.350 . S
H963 C958 0.930 . S
H964 C959 0.930 . S
C965 O966 1.224 . S
C965 O984 1.247 . S
O966 C965 1.224 . S
N967 Co957 2.128 . S
N967 C968 1.355 . S
N967 C970 1.311 . S
C968 N967 1.355 . S
C968 C969 1.363 . S
C968 H980 0.929 . S
C969 C968 1.363 . S
C969 N971 1.375 . S
C969 H987 0.931 . S
C970 N967 1.311 . S
C970 N971 1.347 . S
C970 H981 0.929 . S
N971 C969 1.375 . S
N971 C970 1.347 . S
C972 C975 1.365 . S
C972 N977 1.328 . S
C972 H978 0.929 . S
C973 C974 1.362 . S
C973 C976 1.378 . S
C973 H988 0.929 . S
C974 C973 1.362 . S
C974 C975 1.366 . S
C975 C972 1.365 . S
C975 C974 1.366 . S
C975 H989 0.930 . S
C976 C973 1.378 . S
C976 N977 1.315 . S
C976 H979 0.930 . S
N977 Co957 2.194 . S
N977 C972 1.328 . S
N977 C976 1.315 . S
H978 C972 0.929 . S
H979 C976 0.930 . S
H980 C968 0.929 . S
H981 C970 0.929 . S
O982 Co957 2.351 . S
O982 C985 1.244 . S
O983 Co957 2.155 . S
O983 C985 1.240 . S
O984 Co957 2.096 . S
O984 C965 1.247 . S
C985 O982 1.244 . S
C985 O983 1.240 . S
H986 C960 0.931 . S
H987 C969 0.931 . S
H988 C973 0.929 . S
H989 C975 0.930 . S
Co990 N994 2.148 . S
Co990 N1000 2.128 1_556 S
Co990 N1010 2.194 . S
Co990 O1015 2.351 1_556 S
Co990 O1016 2.155 1_556 S
Co990 O1017 2.096 1_556 S
C991 N994 1.301 . S
C991 N995 1.328 . S
C991 H996 0.930 . S
C992 C993 1.333 . S
C992 N994 1.317 . S
C992 H997 0.930 . S
C993 C992 1.333 . S
C993 N995 1.350 . S
C993 H1019 0.931 . S
N994 Co990 2.148 . S
N994 C991 1.301 . S
N994 C992 1.317 . S
N995 C991 1.328 . S
N995 C993 1.350 . S
H996 C991 0.930 . S
H997 C992 0.930 . S
C998 O999 1.224 . S
C998 O1017 1.247 1_556 S
O999 C998 1.224 . S
N1000 Co990 2.128 1_554 S
N1000 C1001 1.355 . S
N1000 C1003 1.311 . S
C1001 N1000 1.355 . S
C1001 C1002 1.363 . S
C1001 H1013 0.929 . S
C1002 C1001 1.363 . S
C1002 N1004 1.375 . S
C1002 H1020 0.931 . S
C1003 N1000 1.311 . S
C1003 N1004 1.347 . S
C1003 H1014 0.929 . S
N1004 C1002 1.375 . S
N1004 C1003 1.347 . S
C1005 C1008 1.365 . S
C1005 N1010 1.328 . S
C1005 H1011 0.929 . S
C1006 C1007 1.362 . S
C1006 C1009 1.378 . S
C1006 H1021 0.929 . S
C1007 C1006 1.362 . S
C1007 C1008 1.366 . S
C1008 C1005 1.365 . S
C1008 C1007 1.366 . S
C1008 H1022 0.930 . S
C1009 C1006 1.378 . S
C1009 N1010 1.315 . S
C1009 H1012 0.930 . S
N1010 Co990 2.194 . S
N1010 C1005 1.328 . S
N1010 C1009 1.315 . S
H1011 C1005 0.929 . S
H1012 C1009 0.930 . S
H1013 C1001 0.929 . S
H1014 C1003 0.929 . S
O1015 Co990 2.351 1_554 S
O1015 C1018 1.244 . S
O1016 Co990 2.155 1_554 S
O1016 C1018 1.240 . S
O1017 Co990 2.096 1_554 S
O1017 C998 1.247 1_554 S
C1018 O1015 1.244 . S
C1018 O1016 1.240 . S
H1019 C993 0.931 . S
H1020 C1002 0.931 . S
H1021 C1006 0.929 . S
H1022 C1008 0.930 . S
Co1023 N1027 2.148 . S
Co1023 N1033 2.128 1_556 S
Co1023 N1043 2.194 . S
Co1023 O1048 2.351 1_556 S
Co1023 O1049 2.155 1_556 S
Co1023 O1050 2.096 1_556 S
C1024 N1027 1.301 . S
C1024 N1028 1.328 . S
C1024 H1029 0.930 . S
C1025 C1026 1.333 . S
C1025 N1027 1.317 . S
C1025 H1030 0.930 . S
C1026 C1025 1.333 . S
C1026 N1028 1.350 . S
C1026 H1052 0.931 . S
N1027 Co1023 2.148 . S
N1027 C1024 1.301 . S
N1027 C1025 1.317 . S
N1028 C1024 1.328 . S
N1028 C1026 1.350 . S
H1029 C1024 0.930 . S
H1030 C1025 0.930 . S
C1031 O1032 1.224 . S
C1031 O1050 1.247 1_556 S
O1032 C1031 1.224 . S
N1033 Co1023 2.128 1_554 S
N1033 C1034 1.355 . S
N1033 C1036 1.311 . S
C1034 N1033 1.355 . S
C1034 C1035 1.363 . S
C1034 H1046 0.929 . S
C1035 C1034 1.363 . S
C1035 N1037 1.375 . S
C1035 H1053 0.931 . S
C1036 N1033 1.311 . S
C1036 N1037 1.347 . S
C1036 H1047 0.929 . S
N1037 C1035 1.375 . S
N1037 C1036 1.347 . S
C1038 C1041 1.365 . S
C1038 N1043 1.328 . S
C1038 H1044 0.929 . S
C1039 C1040 1.362 . S
C1039 C1042 1.378 . S
C1039 H1054 0.929 . S
C1040 C1039 1.362 . S
C1040 C1041 1.366 . S
C1041 C1038 1.365 . S
C1041 C1040 1.366 . S
C1041 H1055 0.930 . S
C1042 C1039 1.378 . S
C1042 N1043 1.315 . S
C1042 H1045 0.930 . S
N1043 Co1023 2.194 . S
N1043 C1038 1.328 . S
N1043 C1042 1.315 . S
H1044 C1038 0.929 . S
H1045 C1042 0.930 . S
H1046 C1034 0.929 . S
H1047 C1036 0.929 . S
O1048 Co1023 2.351 1_554 S
O1048 C1051 1.244 . S
O1049 Co1023 2.155 1_554 S
O1049 C1051 1.240 . S
O1050 Co1023 2.096 1_554 S
O1050 C1031 1.247 1_554 S
C1051 O1048 1.244 . S
C1051 O1049 1.240 . S
H1052 C1026 0.931 . S
H1053 C1035 0.931 . S
H1054 C1039 0.929 . S
H1055 C1041 0.930 . S
C1056 C1057 1.363 . S
C1056 C1062 1.379 . S
C1056 N1064 1.356 . S
C1057 C1056 1.363 . S
C1057 C1063 1.363 . S
C1058 C1059 1.363 . S
C1058 C1063 1.379 . S
C1058 N1065 1.356 . S
C1059 C1058 1.363 . S
C1059 C1062 1.363 . S
N1060 C1062 1.356 . S
N1060 H1072 0.984 . S
N1060 H1073 0.985 . S
N1061 C1063 1.356 . S
N1061 H1066 0.984 . S
N1061 H1067 0.985 . S
C1062 C1056 1.379 . S
C1062 C1059 1.363 . S
C1062 N1060 1.356 . S
C1063 C1057 1.363 . S
C1063 C1058 1.379 . S
C1063 N1061 1.356 . S
N1064 C1056 1.356 . S
N1064 H1070 0.984 . S
N1064 H1071 0.984 . S
N1065 C1058 1.356 . S
N1065 H1068 0.984 . S
N1065 H1069 0.985 . S
H1066 N1061 0.984 . S
H1067 N1061 0.985 . S
H1068 N1065 0.984 . S
H1069 N1065 0.985 . S
H1070 N1064 0.984 . S
H1071 N1064 0.984 . S
H1072 N1060 0.984 . S
H1073 N1060 0.985 . S
C1074 C1075 1.363 . S
C1074 C1080 1.379 . S
C1074 N1082 1.356 . S
C1075 C1074 1.363 . S
C1075 C1081 1.363 . S
C1076 C1077 1.363 . S
C1076 C1081 1.379 . S
C1076 N1083 1.356 . S
C1077 C1076 1.363 . S
C1077 C1080 1.363 . S
N1078 C1080 1.356 . S
N1078 H1090 0.984 . S
N1078 H1091 0.985 . S
N1079 C1081 1.356 . S
N1079 H1084 0.984 . S
N1079 H1085 0.985 . S
C1080 C1074 1.379 . S
C1080 C1077 1.363 . S
C1080 N1078 1.356 . S
C1081 C1075 1.363 . S
C1081 C1076 1.379 . S
C1081 N1079 1.356 . S
N1082 C1074 1.356 . S
N1082 H1088 0.984 . S
N1082 H1089 0.984 . S
N1083 C1076 1.356 . S
N1083 H1086 0.984 . S
N1083 H1087 0.985 . S
H1084 N1079 0.984 . S
H1085 N1079 0.985 . S
H1086 N1083 0.984 . S
H1087 N1083 0.985 . S
H1088 N1082 0.984 . S
H1089 N1082 0.984 . S
H1090 N1078 0.984 . S
H1091 N1078 0.985 . S
C1092 C1093 1.363 . S
C1092 C1098 1.379 . S
C1092 N1100 1.356 . S
C1093 C1092 1.363 . S
C1093 C1099 1.363 . S
C1094 C1095 1.363 . S
C1094 C1099 1.379 . S
C1094 N1101 1.356 . S
C1095 C1094 1.363 . S
C1095 C1098 1.363 . S
N1096 C1098 1.356 . S
N1096 H1108 0.984 . S
N1096 H1109 0.985 . S
N1097 C1099 1.356 . S
N1097 H1102 0.984 . S
N1097 H1103 0.985 . S
C1098 C1092 1.379 . S
C1098 C1095 1.363 . S
C1098 N1096 1.356 . S
C1099 C1093 1.363 . S
C1099 C1094 1.379 . S
C1099 N1097 1.356 . S
N1100 C1092 1.356 . S
N1100 H1106 0.984 . S
N1100 H1107 0.984 . S
N1101 C1094 1.356 . S
N1101 H1104 0.984 . S
N1101 H1105 0.985 . S
H1102 N1097 0.984 . S
H1103 N1097 0.985 . S
H1104 N1101 0.984 . S
H1105 N1101 0.985 . S
H1106 N1100 0.984 . S
H1107 N1100 0.984 . S
H1108 N1096 0.984 . S
H1109 N1096 0.985 . S
C1110 C1111 1.363 . S
C1110 C1116 1.379 . S
C1110 N1118 1.356 . S
C1111 C1110 1.363 . S
C1111 C1117 1.363 . S
C1112 C1113 1.363 . S
C1112 C1117 1.379 . S
C1112 N1119 1.356 . S
C1113 C1112 1.363 . S
C1113 C1116 1.363 . S
N1114 C1116 1.356 . S
N1114 H1126 0.984 . S
N1114 H1127 0.985 . S
N1115 C1117 1.356 . S
N1115 H1120 0.984 . S
N1115 H1121 0.985 . S
C1116 C1110 1.379 . S
C1116 C1113 1.363 . S
C1116 N1114 1.356 . S
C1117 C1111 1.363 . S
C1117 C1112 1.379 . S
C1117 N1115 1.356 . S
N1118 C1110 1.356 . S
N1118 H1124 0.984 . S
N1118 H1125 0.984 . S
N1119 C1112 1.356 . S
N1119 H1122 0.984 . S
N1119 H1123 0.985 . S
H1120 N1115 0.984 . S
H1121 N1115 0.985 . S
H1122 N1119 0.984 . S
H1123 N1119 0.985 . S
H1124 N1118 0.984 . S
H1125 N1118 0.984 . S
H1126 N1114 0.984 . S
H1127 N1114 0.985 . S
C1128 C1129 1.363 . S
C1128 C1134 1.379 . S
C1128 N1136 1.356 . S
C1129 C1128 1.363 . S
C1129 C1135 1.363 . S
C1130 C1131 1.363 . S
C1130 C1135 1.379 . S
C1130 N1137 1.356 . S
C1131 C1130 1.363 . S
C1131 C1134 1.363 . S
N1132 C1134 1.356 . S
N1132 H1144 0.984 . S
N1132 H1145 0.985 . S
N1133 C1135 1.356 . S
N1133 H1138 0.984 . S
N1133 H1139 0.985 . S
C1134 C1128 1.379 . S
C1134 C1131 1.363 . S
C1134 N1132 1.356 . S
C1135 C1129 1.363 . S
C1135 C1130 1.379 . S
C1135 N1133 1.356 . S
N1136 C1128 1.356 . S
N1136 H1142 0.984 . S
N1136 H1143 0.984 . S
N1137 C1130 1.356 . S
N1137 H1140 0.984 . S
N1137 H1141 0.985 . S
H1138 N1133 0.984 . S
H1139 N1133 0.985 . S
H1140 N1137 0.984 . S
H1141 N1137 0.985 . S
H1142 N1136 0.984 . S
H1143 N1136 0.984 . S
H1144 N1132 0.984 . S
H1145 N1132 0.985 . S
C1146 C1147 1.363 . S
C1146 C1152 1.379 . S
C1146 N1154 1.356 . S
C1147 C1146 1.363 . S
C1147 C1153 1.363 . S
C1148 C1149 1.363 . S
C1148 C1153 1.379 . S
C1148 N1155 1.356 . S
C1149 C1148 1.363 . S
C1149 C1152 1.363 . S
N1150 C1152 1.356 . S
N1150 H1162 0.984 . S
N1150 H1163 0.985 . S
N1151 C1153 1.356 . S
N1151 H1156 0.984 . S
N1151 H1157 0.985 . S
C1152 C1146 1.379 . S
C1152 C1149 1.363 . S
C1152 N1150 1.356 . S
C1153 C1147 1.363 . S
C1153 C1148 1.379 . S
C1153 N1151 1.356 . S
N1154 C1146 1.356 . S
N1154 H1160 0.984 . S
N1154 H1161 0.984 . S
N1155 C1148 1.356 . S
N1155 H1158 0.984 . S
N1155 H1159 0.985 . S
H1156 N1151 0.984 . S
H1157 N1151 0.985 . S
H1158 N1155 0.984 . S
H1159 N1155 0.985 . S
H1160 N1154 0.984 . S
H1161 N1154 0.984 . S
H1162 N1150 0.984 . S
H1163 N1150 0.985 . S
C1164 C1165 1.363 . S
C1164 C1170 1.379 . S
C1164 N1172 1.356 . S
C1165 C1164 1.363 . S
C1165 C1171 1.363 . S
C1166 C1167 1.363 . S
C1166 C1171 1.379 . S
C1166 N1173 1.356 . S
C1167 C1166 1.363 . S
C1167 C1170 1.363 . S
N1168 C1170 1.356 . S
N1168 H1180 0.984 . S
N1168 H1181 0.985 . S
N1169 C1171 1.356 . S
N1169 H1174 0.984 . S
N1169 H1175 0.985 . S
C1170 C1164 1.379 . S
C1170 C1167 1.363 . S
C1170 N1168 1.356 . S
C1171 C1165 1.363 . S
C1171 C1166 1.379 . S
C1171 N1169 1.356 . S
N1172 C1164 1.356 . S
N1172 H1178 0.984 . S
N1172 H1179 0.984 . S
N1173 C1166 1.356 . S
N1173 H1176 0.984 . S
N1173 H1177 0.985 . S
H1174 N1169 0.984 . S
H1175 N1169 0.985 . S
H1176 N1173 0.984 . S
H1177 N1173 0.985 . S
H1178 N1172 0.984 . S
H1179 N1172 0.984 . S
H1180 N1168 0.984 . S
H1181 N1168 0.985 . S
C1182 C1183 1.363 . S
C1182 C1188 1.379 . S
C1182 N1190 1.356 . S
C1183 C1182 1.363 . S
C1183 C1189 1.363 . S
C1184 C1185 1.363 . S
C1184 C1189 1.379 . S
C1184 N1191 1.356 . S
C1185 C1184 1.363 . S
C1185 C1188 1.363 . S
N1186 C1188 1.356 . S
N1186 H1198 0.984 . S
N1186 H1199 0.985 . S
N1187 C1189 1.356 . S
N1187 H1192 0.984 . S
N1187 H1193 0.985 . S
C1188 C1182 1.379 . S
C1188 C1185 1.363 . S
C1188 N1186 1.356 . S
C1189 C1183 1.363 . S
C1189 C1184 1.379 . S
C1189 N1187 1.356 . S
N1190 C1182 1.356 . S
N1190 H1196 0.984 . S
N1190 H1197 0.984 . S
N1191 C1184 1.356 . S
N1191 H1194 0.984 . S
N1191 H1195 0.985 . S
H1192 N1187 0.984 . S
H1193 N1187 0.985 . S
H1194 N1191 0.984 . S
H1195 N1191 0.985 . S
H1196 N1190 0.984 . S
H1197 N1190 0.984 . S
H1198 N1186 0.984 . S
H1199 N1186 0.985 . S
C1200 C1201 1.363 . S
C1200 C1206 1.379 . S
C1200 N1208 1.356 . S
C1201 C1200 1.363 . S
C1201 C1207 1.363 . S
C1202 C1203 1.363 . S
C1202 C1207 1.379 . S
C1202 N1209 1.356 . S
C1203 C1202 1.363 . S
C1203 C1206 1.363 . S
N1204 C1206 1.356 . S
N1204 H1216 0.984 . S
N1204 H1217 0.985 . S
N1205 C1207 1.356 . S
N1205 H1210 0.984 . S
N1205 H1211 0.985 . S
C1206 C1200 1.379 . S
C1206 C1203 1.363 . S
C1206 N1204 1.356 . S
C1207 C1201 1.363 . S
C1207 C1202 1.379 . S
C1207 N1205 1.356 . S
N1208 C1200 1.356 . S
N1208 H1214 0.984 . S
N1208 H1215 0.984 . S
N1209 C1202 1.356 . S
N1209 H1212 0.984 . S
N1209 H1213 0.985 . S
H1210 N1205 0.984 . S
H1211 N1205 0.985 . S
H1212 N1209 0.984 . S
H1213 N1209 0.985 . S
H1214 N1208 0.984 . S
H1215 N1208 0.984 . S
H1216 N1204 0.984 . S
H1217 N1204 0.985 . S
C1218 C1219 1.363 . S
C1218 C1224 1.379 . S
C1218 N1226 1.356 . S
C1219 C1218 1.363 . S
C1219 C1225 1.363 . S
C1220 C1221 1.363 . S
C1220 C1225 1.379 . S
C1220 N1227 1.356 . S
C1221 C1220 1.363 . S
C1221 C1224 1.363 . S
N1222 C1224 1.356 . S
N1222 H1234 0.984 . S
N1222 H1235 0.985 . S
N1223 C1225 1.356 . S
N1223 H1228 0.984 . S
N1223 H1229 0.985 . S
C1224 C1218 1.379 . S
C1224 C1221 1.363 . S
C1224 N1222 1.356 . S
C1225 C1219 1.363 . S
C1225 C1220 1.379 . S
C1225 N1223 1.356 . S
N1226 C1218 1.356 . S
N1226 H1232 0.984 . S
N1226 H1233 0.984 . S
N1227 C1220 1.356 . S
N1227 H1230 0.984 . S
N1227 H1231 0.985 . S
H1228 N1223 0.984 . S
H1229 N1223 0.985 . S
H1230 N1227 0.984 . S
H1231 N1227 0.985 . S
H1232 N1226 0.984 . S
H1233 N1226 0.984 . S
H1234 N1222 0.984 . S
H1235 N1222 0.985 . S
C1236 C1237 1.363 . S
C1236 C1242 1.379 . S
C1236 N1244 1.356 . S
C1237 C1236 1.363 . S
C1237 C1243 1.363 . S
C1238 C1239 1.363 . S
C1238 C1243 1.379 . S
C1238 N1245 1.356 . S
C1239 C1238 1.363 . S
C1239 C1242 1.363 . S
N1240 C1242 1.356 . S
N1240 H1252 0.984 . S
N1240 H1253 0.985 . S
N1241 C1243 1.356 . S
N1241 H1246 0.984 . S
N1241 H1247 0.985 . S
C1242 C1236 1.379 . S
C1242 C1239 1.363 . S
C1242 N1240 1.356 . S
C1243 C1237 1.363 . S
C1243 C1238 1.379 . S
C1243 N1241 1.356 . S
N1244 C1236 1.356 . S
N1244 H1250 0.984 . S
N1244 H1251 0.984 . S
N1245 C1238 1.356 . S
N1245 H1248 0.984 . S
N1245 H1249 0.985 . S
H1246 N1241 0.984 . S
H1247 N1241 0.985 . S
H1248 N1245 0.984 . S
H1249 N1245 0.985 . S
H1250 N1244 0.984 . S
H1251 N1244 0.984 . S
H1252 N1240 0.984 . S
H1253 N1240 0.985 . S
C1254 C1255 1.363 . S
C1254 C1260 1.379 . S
C1254 N1262 1.356 . S
C1255 C1254 1.363 . S
C1255 C1261 1.363 . S
C1256 C1257 1.363 . S
C1256 C1261 1.379 . S
C1256 N1263 1.356 . S
C1257 C1256 1.363 . S
C1257 C1260 1.363 . S
N1258 C1260 1.356 . S
N1258 H1270 0.984 . S
N1258 H1271 0.985 . S
N1259 C1261 1.356 . S
N1259 H1264 0.984 . S
N1259 H1265 0.985 . S
C1260 C1254 1.379 . S
C1260 C1257 1.363 . S
C1260 N1258 1.356 . S
C1261 C1255 1.363 . S
C1261 C1256 1.379 . S
C1261 N1259 1.356 . S
N1262 C1254 1.356 . S
N1262 H1268 0.984 . S
N1262 H1269 0.984 . S
N1263 C1256 1.356 . S
N1263 H1266 0.984 . S
N1263 H1267 0.985 . S
H1264 N1259 0.984 . S
H1265 N1259 0.985 . S
H1266 N1263 0.984 . S
H1267 N1263 0.985 . S
H1268 N1262 0.984 . S
H1269 N1262 0.984 . S
H1270 N1258 0.984 . S
H1271 N1258 0.985 . S
C1272 C1273 1.363 . S
C1272 C1278 1.379 . S
C1272 N1280 1.356 . S
C1273 C1272 1.363 . S
C1273 C1279 1.363 . S
C1274 C1275 1.363 . S
C1274 C1279 1.379 . S
C1274 N1281 1.356 . S
C1275 C1274 1.363 . S
C1275 C1278 1.363 . S
N1276 C1278 1.356 . S
N1276 H1288 0.984 . S
N1276 H1289 0.985 . S
N1277 C1279 1.356 . S
N1277 H1282 0.984 . S
N1277 H1283 0.985 . S
C1278 C1272 1.379 . S
C1278 C1275 1.363 . S
C1278 N1276 1.356 . S
C1279 C1273 1.363 . S
C1279 C1274 1.379 . S
C1279 N1277 1.356 . S
N1280 C1272 1.356 . S
N1280 H1286 0.984 . S
N1280 H1287 0.984 . S
N1281 C1274 1.356 . S
N1281 H1284 0.984 . S
N1281 H1285 0.985 . S
H1282 N1277 0.984 . S
H1283 N1277 0.985 . S
H1284 N1281 0.984 . S
H1285 N1281 0.985 . S
H1286 N1280 0.984 . S
H1287 N1280 0.984 . S
H1288 N1276 0.984 . S
H1289 N1276 0.985 . S
C1290 C1291 1.363 . S
C1290 C1296 1.379 . S
C1290 N1298 1.356 . S
C1291 C1290 1.363 . S
C1291 C1297 1.363 . S
C1292 C1293 1.363 . S
C1292 C1297 1.379 . S
C1292 N1299 1.356 . S
C1293 C1292 1.363 . S
C1293 C1296 1.363 . S
N1294 C1296 1.356 . S
N1294 H1306 0.984 . S
N1294 H1307 0.985 . S
N1295 C1297 1.356 . S
N1295 H1300 0.984 . S
N1295 H1301 0.985 . S
C1296 C1290 1.379 . S
C1296 C1293 1.363 . S
C1296 N1294 1.356 . S
C1297 C1291 1.363 . S
C1297 C1292 1.379 . S
C1297 N1295 1.356 . S
N1298 C1290 1.356 . S
N1298 H1304 0.984 . S
N1298 H1305 0.984 . S
N1299 C1292 1.356 . S
N1299 H1302 0.984 . S
N1299 H1303 0.985 . S
H1300 N1295 0.984 . S
H1301 N1295 0.985 . S
H1302 N1299 0.984 . S
H1303 N1299 0.985 . S
H1304 N1298 0.984 . S
H1305 N1298 0.984 . S
H1306 N1294 0.984 . S
H1307 N1294 0.985 . S
C1308 C1309 1.363 . S
C1308 C1314 1.379 . S
C1308 N1316 1.356 . S
C1309 C1308 1.363 . S
C1309 C1315 1.363 . S
C1310 C1311 1.363 . S
C1310 C1315 1.379 . S
C1310 N1317 1.356 . S
C1311 C1310 1.363 . S
C1311 C1314 1.363 . S
N1312 C1314 1.356 . S
N1312 H1324 0.984 . S
N1312 H1325 0.985 . S
N1313 C1315 1.356 . S
N1313 H1318 0.984 . S
N1313 H1319 0.985 . S
C1314 C1308 1.379 . S
C1314 C1311 1.363 . S
C1314 N1312 1.356 . S
C1315 C1309 1.363 . S
C1315 C1310 1.379 . S
C1315 N1313 1.356 . S
N1316 C1308 1.356 . S
N1316 H1322 0.984 . S
N1316 H1323 0.984 . S
N1317 C1310 1.356 . S
N1317 H1320 0.984 . S
N1317 H1321 0.985 . S
H1318 N1313 0.984 . S
H1319 N1313 0.985 . S
H1320 N1317 0.984 . S
H1321 N1317 0.985 . S
H1322 N1316 0.984 . S
H1323 N1316 0.984 . S
H1324 N1312 0.984 . S
H1325 N1312 0.985 . S
C1326 C1327 1.363 . S
C1326 C1332 1.379 . S
C1326 N1334 1.356 . S
C1327 C1326 1.363 . S
C1327 C1333 1.363 . S
C1328 C1329 1.363 . S
C1328 C1333 1.379 . S
C1328 N1335 1.356 . S
C1329 C1328 1.363 . S
C1329 C1332 1.363 . S
N1330 C1332 1.356 . S
N1330 H1342 0.984 . S
N1330 H1343 0.985 . S
N1331 C1333 1.356 . S
N1331 H1336 0.984 . S
N1331 H1337 0.985 . S
C1332 C1326 1.379 . S
C1332 C1329 1.363 . S
C1332 N1330 1.356 . S
C1333 C1327 1.363 . S
C1333 C1328 1.379 . S
C1333 N1331 1.356 . S
N1334 C1326 1.356 . S
N1334 H1340 0.984 . S
N1334 H1341 0.984 . S
N1335 C1328 1.356 . S
N1335 H1338 0.984 . S
N1335 H1339 0.985 . S
H1336 N1331 0.984 . S
H1337 N1331 0.985 . S
H1338 N1335 0.984 . S
H1339 N1335 0.985 . S
H1340 N1334 0.984 . S
H1341 N1334 0.984 . S
H1342 N1330 0.984 . S
H1343 N1330 0.985 . S
C1344 C1345 1.363 . S
C1344 C1350 1.379 . S
C1344 N1352 1.356 . S
C1345 C1344 1.363 . S
C1345 C1351 1.363 . S
C1346 C1347 1.363 . S
C1346 C1351 1.379 . S
C1346 N1353 1.356 . S
C1347 C1346 1.363 . S
C1347 C1350 1.363 . S
N1348 C1350 1.356 . S
N1348 H1360 0.984 . S
N1348 H1361 0.985 . S
N1349 C1351 1.356 . S
N1349 H1354 0.984 . S
N1349 H1355 0.985 . S
C1350 C1344 1.379 . S
C1350 C1347 1.363 . S
C1350 N1348 1.356 . S
C1351 C1345 1.363 . S
C1351 C1346 1.379 . S
C1351 N1349 1.356 . S
N1352 C1344 1.356 . S
N1352 H1358 0.984 . S
N1352 H1359 0.984 . S
N1353 C1346 1.356 . S
N1353 H1356 0.984 . S
N1353 H1357 0.985 . S
H1354 N1349 0.984 . S
H1355 N1349 0.985 . S
H1356 N1353 0.984 . S
H1357 N1353 0.985 . S
H1358 N1352 0.984 . S
H1359 N1352 0.984 . S
H1360 N1348 0.984 . S
H1361 N1348 0.985 . S
C1362 C1363 1.363 . S
C1362 C1368 1.379 . S
C1362 N1370 1.356 . S
C1363 C1362 1.363 . S
C1363 C1369 1.363 . S
C1364 C1365 1.363 . S
C1364 C1369 1.379 . S
C1364 N1371 1.356 . S
C1365 C1364 1.363 . S
C1365 C1368 1.363 . S
N1366 C1368 1.356 . S
N1366 H1378 0.984 . S
N1366 H1379 0.985 . S
N1367 C1369 1.356 . S
N1367 H1372 0.984 . S
N1367 H1373 0.985 . S
C1368 C1362 1.379 . S
C1368 C1365 1.363 . S
C1368 N1366 1.356 . S
C1369 C1363 1.363 . S
C1369 C1364 1.379 . S
C1369 N1367 1.356 . S
N1370 C1362 1.356 . S
N1370 H1376 0.984 . S
N1370 H1377 0.984 . S
N1371 C1364 1.356 . S
N1371 H1374 0.984 . S
N1371 H1375 0.985 . S
H1372 N1367 0.984 . S
H1373 N1367 0.985 . S
H1374 N1371 0.984 . S
H1375 N1371 0.985 . S
H1376 N1370 0.984 . S
H1377 N1370 0.984 . S
H1378 N1366 0.984 . S
H1379 N1366 0.985 . S
C1380 C1381 1.363 1_556 S
C1380 C1386 1.379 . S
C1380 N1388 1.356 . S
C1381 C1380 1.363 1_554 S
C1381 C1387 1.363 . S
C1382 C1383 1.363 . S
C1382 C1387 1.379 . S
C1382 N1389 1.356 . S
C1383 C1382 1.363 . S
C1383 C1386 1.363 1_554 S
N1384 C1386 1.356 . S
N1384 H1396 0.984 . S
N1384 H1397 0.985 . S
N1385 C1387 1.356 . S
N1385 H1390 0.984 . S
N1385 H1391 0.985 . S
C1386 C1380 1.379 . S
C1386 C1383 1.363 1_556 S
C1386 N1384 1.356 . S
C1387 C1381 1.363 . S
C1387 C1382 1.379 . S
C1387 N1385 1.356 . S
N1388 C1380 1.356 . S
N1388 H1394 0.984 . S
N1388 H1395 0.984 . S
N1389 C1382 1.356 . S
N1389 H1392 0.984 . S
N1389 H1393 0.985 . S
H1390 N1385 0.984 . S
H1391 N1385 0.985 . S
H1392 N1389 0.984 . S
H1393 N1389 0.985 . S
H1394 N1388 0.984 . S
H1395 N1388 0.984 . S
H1396 N1384 0.984 . S
H1397 N1384 0.985 . S
C1398 C1399 1.363 1_556 S
C1398 C1404 1.379 . S
C1398 N1406 1.356 . S
C1399 C1398 1.363 1_554 S
C1399 C1405 1.363 . S
C1400 C1401 1.363 . S
C1400 C1405 1.379 . S
C1400 N1407 1.356 . S
C1401 C1400 1.363 . S
C1401 C1404 1.363 1_554 S
N1402 C1404 1.356 . S
N1402 H1414 0.984 . S
N1402 H1415 0.985 . S
N1403 C1405 1.356 . S
N1403 H1408 0.984 . S
N1403 H1409 0.985 . S
C1404 C1398 1.379 . S
C1404 C1401 1.363 1_556 S
C1404 N1402 1.356 . S
C1405 C1399 1.363 . S
C1405 C1400 1.379 . S
C1405 N1403 1.356 . S
N1406 C1398 1.356 . S
N1406 H1412 0.984 . S
N1406 H1413 0.984 . S
N1407 C1400 1.356 . S
N1407 H1410 0.984 . S
N1407 H1411 0.985 . S
H1408 N1403 0.984 . S
H1409 N1403 0.985 . S
H1410 N1407 0.984 . S
H1411 N1407 0.985 . S
H1412 N1406 0.984 . S
H1413 N1406 0.984 . S
H1414 N1402 0.984 . S
H1415 N1402 0.985 . S
C1416 C1417 1.363 . S
C1416 C1422 1.379 . S
C1416 N1424 1.356 . S
C1417 C1416 1.363 . S
C1417 C1423 1.363 . S
C1418 C1419 1.363 . S
C1418 C1423 1.379 . S
C1418 N1425 1.356 . S
C1419 C1418 1.363 . S
C1419 C1422 1.363 . S
N1420 C1422 1.356 . S
N1420 H1432 0.984 . S
N1420 H1433 0.985 . S
N1421 C1423 1.356 . S
N1421 H1426 0.984 . S
N1421 H1427 0.985 . S
C1422 C1416 1.379 . S
C1422 C1419 1.363 . S
C1422 N1420 1.356 . S
C1423 C1417 1.363 . S
C1423 C1418 1.379 . S
C1423 N1421 1.356 . S
N1424 C1416 1.356 . S
N1424 H1430 0.984 . S
N1424 H1431 0.984 . S
N1425 C1418 1.356 . S
N1425 H1428 0.984 . S
N1425 H1429 0.985 . S
H1426 N1421 0.984 . S
H1427 N1421 0.985 . S
H1428 N1425 0.984 . S
H1429 N1425 0.985 . S
H1430 N1424 0.984 . S
H1431 N1424 0.984 . S
H1432 N1420 0.984 . S
H1433 N1420 0.985 . S
C1434 C1435 1.363 . S
C1434 C1440 1.379 . S
C1434 N1442 1.356 . S
C1435 C1434 1.363 . S
C1435 C1441 1.363 . S
C1436 C1437 1.363 . S
C1436 C1441 1.379 . S
C1436 N1443 1.356 . S
C1437 C1436 1.363 . S
C1437 C1440 1.363 . S
N1438 C1440 1.356 . S
N1438 H1450 0.984 . S
N1438 H1451 0.985 . S
N1439 C1441 1.356 . S
N1439 H1444 0.984 . S
N1439 H1445 0.985 . S
C1440 C1434 1.379 . S
C1440 C1437 1.363 . S
C1440 N1438 1.356 . S
C1441 C1435 1.363 . S
C1441 C1436 1.379 . S
C1441 N1439 1.356 . S
N1442 C1434 1.356 . S
N1442 H1448 0.984 . S
N1442 H1449 0.984 . S
N1443 C1436 1.356 . S
N1443 H1446 0.984 . S
N1443 H1447 0.985 . S
H1444 N1439 0.984 . S
H1445 N1439 0.985 . S
H1446 N1443 0.984 . S
H1447 N1443 0.985 . S
H1448 N1442 0.984 . S
H1449 N1442 0.984 . S
H1450 N1438 0.984 . S
H1451 N1438 0.985 . S
C1452 C1453 1.363 . S
C1452 C1458 1.379 . S
C1452 N1460 1.356 . S
C1453 C1452 1.363 . S
C1453 C1459 1.363 1_556 S
C1454 C1455 1.363 1_554 S
C1454 C1459 1.379 . S
C1454 N1461 1.356 . S
C1455 C1454 1.363 1_556 S
C1455 C1458 1.363 . S
N1456 C1458 1.356 . S
N1456 H1468 0.984 . S
N1456 H1469 0.985 . S
N1457 C1459 1.356 . S
N1457 H1462 0.984 . S
N1457 H1463 0.985 . S
C1458 C1452 1.379 . S
C1458 C1455 1.363 . S
C1458 N1456 1.356 . S
C1459 C1453 1.363 1_554 S
C1459 C1454 1.379 . S
C1459 N1457 1.356 . S
N1460 C1452 1.356 . S
N1460 H1466 0.984 . S
N1460 H1467 0.984 . S
N1461 C1454 1.356 . S
N1461 H1464 0.984 . S
N1461 H1465 0.985 . S
H1462 N1457 0.984 . S
H1463 N1457 0.985 . S
H1464 N1461 0.984 . S
H1465 N1461 0.985 . S
H1466 N1460 0.984 . S
H1467 N1460 0.984 . S
H1468 N1456 0.984 . S
H1469 N1456 0.985 . S
C1470 C1471 1.363 . S
C1470 C1476 1.379 . S
C1470 N1478 1.356 . S
C1471 C1470 1.363 . S
C1471 C1477 1.363 1_556 S
C1472 C1473 1.363 1_554 S
C1472 C1477 1.379 . S
C1472 N1479 1.356 . S
C1473 C1472 1.363 1_556 S
C1473 C1476 1.363 . S
N1474 C1476 1.356 . S
N1474 H1486 0.984 . S
N1474 H1487 0.985 . S
N1475 C1477 1.356 . S
N1475 H1480 0.984 . S
N1475 H1481 0.985 . S
C1476 C1470 1.379 . S
C1476 C1473 1.363 . S
C1476 N1474 1.356 . S
C1477 C1471 1.363 1_554 S
C1477 C1472 1.379 . S
C1477 N1475 1.356 . S
N1478 C1470 1.356 . S
N1478 H1484 0.984 . S
N1478 H1485 0.984 . S
N1479 C1472 1.356 . S
N1479 H1482 0.984 . S
N1479 H1483 0.985 . S
H1480 N1475 0.984 . S
H1481 N1475 0.985 . S
H1482 N1479 0.984 . S
H1483 N1479 0.985 . S
H1484 N1478 0.984 . S
H1485 N1478 0.984 . S
H1486 N1474 0.984 . S
H1487 N1474 0.985 . S
C1488 C1489 1.363 . S
C1488 C1494 1.379 . S
C1488 N1496 1.356 . S
C1489 C1488 1.363 . S
C1489 C1495 1.363 . S
C1490 C1491 1.363 . S
C1490 C1495 1.379 . S
C1490 N1497 1.356 . S
C1491 C1490 1.363 . S
C1491 C1494 1.363 . S
N1492 C1494 1.356 . S
N1492 H1504 0.984 . S
N1492 H1505 0.985 . S
N1493 C1495 1.356 . S
N1493 H1498 0.984 . S
N1493 H1499 0.985 . S
C1494 C1488 1.379 . S
C1494 C1491 1.363 . S
C1494 N1492 1.356 . S
C1495 C1489 1.363 . S
C1495 C1490 1.379 . S
C1495 N1493 1.356 . S
N1496 C1488 1.356 . S
N1496 H1502 0.984 . S
N1496 H1503 0.984 . S
N1497 C1490 1.356 . S
N1497 H1500 0.984 . S
N1497 H1501 0.985 . S
H1498 N1493 0.984 . S
H1499 N1493 0.985 . S
H1500 N1497 0.984 . S
H1501 N1497 0.985 . S
H1502 N1496 0.984 . S
H1503 N1496 0.984 . S
H1504 N1492 0.984 . S
H1505 N1492 0.985 . S
C1506 C1507 1.363 . S
C1506 C1512 1.379 . S
C1506 N1514 1.356 . S
C1507 C1506 1.363 . S
C1507 C1513 1.363 . S
C1508 C1509 1.363 . S
C1508 C1513 1.379 . S
C1508 N1515 1.356 . S
C1509 C1508 1.363 . S
C1509 C1512 1.363 . S
N1510 C1512 1.356 . S
N1510 H1522 0.984 . S
N1510 H1523 0.985 . S
N1511 C1513 1.356 . S
N1511 H1516 0.984 . S
N1511 H1517 0.985 . S
C1512 C1506 1.379 . S
C1512 C1509 1.363 . S
C1512 N1510 1.356 . S
C1513 C1507 1.363 . S
C1513 C1508 1.379 . S
C1513 N1511 1.356 . S
N1514 C1506 1.356 . S
N1514 H1520 0.984 . S
N1514 H1521 0.984 . S
N1515 C1508 1.356 . S
N1515 H1518 0.984 . S
N1515 H1519 0.985 . S
H1516 N1511 0.984 . S
H1517 N1511 0.985 . S
H1518 N1515 0.984 . S
H1519 N1515 0.985 . S
H1520 N1514 0.984 . S
H1521 N1514 0.984 . S
H1522 N1510 0.984 . S
H1523 N1510 0.985 . S
C1524 C1525 1.363 . S
C1524 C1530 1.379 . S
C1524 N1532 1.356 . S
C1525 C1524 1.363 . S
C1525 C1531 1.363 . S
C1526 C1527 1.363 . S
C1526 C1531 1.379 . S
C1526 N1533 1.356 . S
C1527 C1526 1.363 . S
C1527 C1530 1.363 . S
N1528 C1530 1.356 . S
N1528 H1540 0.984 . S
N1528 H1541 0.985 . S
N1529 C1531 1.356 . S
N1529 H1534 0.984 . S
N1529 H1535 0.985 . S
C1530 C1524 1.379 . S
C1530 C1527 1.363 . S
C1530 N1528 1.356 . S
C1531 C1525 1.363 . S
C1531 C1526 1.379 . S
C1531 N1529 1.356 . S
N1532 C1524 1.356 . S
N1532 H1538 0.984 . S
N1532 H1539 0.984 . S
N1533 C1526 1.356 . S
N1533 H1536 0.984 . S
N1533 H1537 0.985 . S
H1534 N1529 0.984 . S
H1535 N1529 0.985 . S
H1536 N1533 0.984 . S
H1537 N1533 0.985 . S
H1538 N1532 0.984 . S
H1539 N1532 0.984 . S
H1540 N1528 0.984 . S
H1541 N1528 0.985 . S
C1542 C1543 1.363 . S
C1542 C1548 1.379 . S
C1542 N1550 1.356 . S
C1543 C1542 1.363 . S
C1543 C1549 1.363 . S
C1544 C1545 1.363 . S
C1544 C1549 1.379 . S
C1544 N1551 1.356 . S
C1545 C1544 1.363 . S
C1545 C1548 1.363 . S
N1546 C1548 1.356 . S
N1546 H1558 0.984 . S
N1546 H1559 0.985 . S
N1547 C1549 1.356 . S
N1547 H1552 0.984 . S
N1547 H1553 0.985 . S
C1548 C1542 1.379 . S
C1548 C1545 1.363 . S
C1548 N1546 1.356 . S
C1549 C1543 1.363 . S
C1549 C1544 1.379 . S
C1549 N1547 1.356 . S
N1550 C1542 1.356 . S
N1550 H1556 0.984 . S
N1550 H1557 0.984 . S
N1551 C1544 1.356 . S
N1551 H1554 0.984 . S
N1551 H1555 0.985 . S
H1552 N1547 0.984 . S
H1553 N1547 0.985 . S
H1554 N1551 0.984 . S
H1555 N1551 0.985 . S
H1556 N1550 0.984 . S
H1557 N1550 0.984 . S
H1558 N1546 0.984 . S
H1559 N1546 0.985 . S
C1560 C1561 1.363 . S
C1560 C1566 1.379 . S
C1560 N1568 1.356 . S
C1561 C1560 1.363 . S
C1561 C1567 1.363 . S
C1562 C1563 1.363 . S
C1562 C1567 1.379 . S
C1562 N1569 1.356 . S
C1563 C1562 1.363 . S
C1563 C1566 1.363 . S
N1564 C1566 1.356 . S
N1564 H1576 0.984 . S
N1564 H1577 0.985 . S
N1565 C1567 1.356 . S
N1565 H1570 0.984 . S
N1565 H1571 0.985 . S
C1566 C1560 1.379 . S
C1566 C1563 1.363 . S
C1566 N1564 1.356 . S
C1567 C1561 1.363 . S
C1567 C1562 1.379 . S
C1567 N1565 1.356 . S
N1568 C1560 1.356 . S
N1568 H1574 0.984 . S
N1568 H1575 0.984 . S
N1569 C1562 1.356 . S
N1569 H1572 0.984 . S
N1569 H1573 0.985 . S
H1570 N1565 0.984 . S
H1571 N1565 0.985 . S
H1572 N1569 0.984 . S
H1573 N1569 0.985 . S
H1574 N1568 0.984 . S
H1575 N1568 0.984 . S
H1576 N1564 0.984 . S
H1577 N1564 0.985 . S
C1578 C1579 1.363 . S
C1578 C1584 1.379 . S
C1578 N1586 1.356 . S
C1579 C1578 1.363 . S
C1579 C1585 1.363 . S
C1580 C1581 1.363 . S
C1580 C1585 1.379 . S
C1580 N1587 1.356 . S
C1581 C1580 1.363 . S
C1581 C1584 1.363 . S
N1582 C1584 1.356 . S
N1582 H1594 0.984 . S
N1582 H1595 0.985 . S
N1583 C1585 1.356 . S
N1583 H1588 0.984 . S
N1583 H1589 0.985 . S
C1584 C1578 1.379 . S
C1584 C1581 1.363 . S
C1584 N1582 1.356 . S
C1585 C1579 1.363 . S
C1585 C1580 1.379 . S
C1585 N1583 1.356 . S
N1586 C1578 1.356 . S
N1586 H1592 0.984 . S
N1586 H1593 0.984 . S
N1587 C1580 1.356 . S
N1587 H1590 0.984 . S
N1587 H1591 0.985 . S
H1588 N1583 0.984 . S
H1589 N1583 0.985 . S
H1590 N1587 0.984 . S
H1591 N1587 0.985 . S
H1592 N1586 0.984 . S
H1593 N1586 0.984 . S
H1594 N1582 0.984 . S
H1595 N1582 0.985 . S
C1596 C1597 1.363 . S
C1596 C1602 1.379 . S
C1596 N1604 1.356 . S
C1597 C1596 1.363 . S
C1597 C1603 1.363 . S
C1598 C1599 1.363 . S
C1598 C1603 1.379 . S
C1598 N1605 1.356 . S
C1599 C1598 1.363 . S
C1599 C1602 1.363 . S
N1600 C1602 1.356 . S
N1600 H1612 0.984 . S
N1600 H1613 0.985 . S
N1601 C1603 1.356 . S
N1601 H1606 0.984 . S
N1601 H1607 0.985 . S
C1602 C1596 1.379 . S
C1602 C1599 1.363 . S
C1602 N1600 1.356 . S
C1603 C1597 1.363 . S
C1603 C1598 1.379 . S
C1603 N1601 1.356 . S
N1604 C1596 1.356 . S
N1604 H1610 0.984 . S
N1604 H1611 0.984 . S
N1605 C1598 1.356 . S
N1605 H1608 0.984 . S
N1605 H1609 0.985 . S
H1606 N1601 0.984 . S
H1607 N1601 0.985 . S
H1608 N1605 0.984 . S
H1609 N1605 0.985 . S
H1610 N1604 0.984 . S
H1611 N1604 0.984 . S
H1612 N1600 0.984 . S
H1613 N1600 0.985 . S
C1614 C1615 1.363 . S
C1614 C1620 1.379 . S
C1614 N1622 1.356 . S
C1615 C1614 1.363 . S
C1615 C1621 1.363 . S
C1616 C1617 1.363 . S
C1616 C1621 1.379 . S
C1616 N1623 1.356 . S
C1617 C1616 1.363 . S
C1617 C1620 1.363 . S
N1618 C1620 1.356 . S
N1618 H1630 0.984 . S
N1618 H1631 0.985 . S
N1619 C1621 1.356 . S
N1619 H1624 0.984 . S
N1619 H1625 0.985 . S
C1620 C1614 1.379 . S
C1620 C1617 1.363 . S
C1620 N1618 1.356 . S
C1621 C1615 1.363 . S
C1621 C1616 1.379 . S
C1621 N1619 1.356 . S
N1622 C1614 1.356 . S
N1622 H1628 0.984 . S
N1622 H1629 0.984 . S
N1623 C1616 1.356 . S
N1623 H1626 0.984 . S
N1623 H1627 0.985 . S
H1624 N1619 0.984 . S
H1625 N1619 0.985 . S
H1626 N1623 0.984 . S
H1627 N1623 0.985 . S
H1628 N1622 0.984 . S
H1629 N1622 0.984 . S
H1630 N1618 0.984 . S
H1631 N1618 0.985 . S
C1632 C1633 1.363 . S
C1632 C1638 1.379 . S
C1632 N1640 1.356 . S
C1633 C1632 1.363 . S
C1633 C1639 1.363 . S
C1634 C1635 1.363 . S
C1634 C1639 1.379 . S
C1634 N1641 1.356 . S
C1635 C1634 1.363 . S
C1635 C1638 1.363 . S
N1636 C1638 1.356 . S
N1636 H1648 0.984 . S
N1636 H1649 0.985 . S
N1637 C1639 1.356 . S
N1637 H1642 0.984 . S
N1637 H1643 0.985 . S
C1638 C1632 1.379 . S
C1638 C1635 1.363 . S
C1638 N1636 1.356 . S
C1639 C1633 1.363 . S
C1639 C1634 1.379 . S
C1639 N1637 1.356 . S
N1640 C1632 1.356 . S
N1640 H1646 0.984 . S
N1640 H1647 0.984 . S
N1641 C1634 1.356 . S
N1641 H1644 0.984 . S
N1641 H1645 0.985 . S
H1642 N1637 0.984 . S
H1643 N1637 0.985 . S
H1644 N1641 0.984 . S
H1645 N1641 0.985 . S
H1646 N1640 0.984 . S
H1647 N1640 0.984 . S
H1648 N1636 0.984 . S
H1649 N1636 0.985 . S
C1650 C1651 1.363 . S
C1650 C1656 1.379 . S
C1650 N1658 1.356 . S
C1651 C1650 1.363 . S
C1651 C1657 1.363 . S
C1652 C1653 1.363 . S
C1652 C1657 1.379 . S
C1652 N1659 1.356 . S
C1653 C1652 1.363 . S
C1653 C1656 1.363 . S
N1654 C1656 1.356 . S
N1654 H1666 0.984 . S
N1654 H1667 0.985 . S
N1655 C1657 1.356 . S
N1655 H1660 0.984 . S
N1655 H1661 0.985 . S
C1656 C1650 1.379 . S
C1656 C1653 1.363 . S
C1656 N1654 1.356 . S
C1657 C1651 1.363 . S
C1657 C1652 1.379 . S
C1657 N1655 1.356 . S
N1658 C1650 1.356 . S
N1658 H1664 0.984 . S
N1658 H1665 0.984 . S
N1659 C1652 1.356 . S
N1659 H1662 0.984 . S
N1659 H1663 0.985 . S
H1660 N1655 0.984 . S
H1661 N1655 0.985 . S
H1662 N1659 0.984 . S
H1663 N1659 0.985 . S
H1664 N1658 0.984 . S
H1665 N1658 0.984 . S
H1666 N1654 0.984 . S
H1667 N1654 0.985 . S
C1668 C1669 1.363 . S
C1668 C1674 1.379 . S
C1668 N1676 1.356 . S
C1669 C1668 1.363 . S
C1669 C1675 1.363 . S
C1670 C1671 1.363 . S
C1670 C1675 1.379 . S
C1670 N1677 1.356 . S
C1671 C1670 1.363 . S
C1671 C1674 1.363 . S
N1672 C1674 1.356 . S
N1672 H1684 0.984 . S
N1672 H1685 0.985 . S
N1673 C1675 1.356 . S
N1673 H1678 0.984 . S
N1673 H1679 0.985 . S
C1674 C1668 1.379 . S
C1674 C1671 1.363 . S
C1674 N1672 1.356 . S
C1675 C1669 1.363 . S
C1675 C1670 1.379 . S
C1675 N1673 1.356 . S
N1676 C1668 1.356 . S
N1676 H1682 0.984 . S
N1676 H1683 0.984 . S
N1677 C1670 1.356 . S
N1677 H1680 0.984 . S
N1677 H1681 0.985 . S
H1678 N1673 0.984 . S
H1679 N1673 0.985 . S
H1680 N1677 0.984 . S
H1681 N1677 0.985 . S
H1682 N1676 0.984 . S
H1683 N1676 0.984 . S
H1684 N1672 0.984 . S
H1685 N1672 0.985 . S
C1686 C1687 1.363 . S
C1686 C1692 1.379 . S
C1686 N1694 1.356 . S
C1687 C1686 1.363 . S
C1687 C1693 1.363 . S
C1688 C1689 1.363 . S
C1688 C1693 1.379 . S
C1688 N1695 1.356 . S
C1689 C1688 1.363 . S
C1689 C1692 1.363 . S
N1690 C1692 1.356 . S
N1690 H1702 0.984 . S
N1690 H1703 0.985 . S
N1691 C1693 1.356 . S
N1691 H1696 0.984 . S
N1691 H1697 0.985 . S
C1692 C1686 1.379 . S
C1692 C1689 1.363 . S
C1692 N1690 1.356 . S
C1693 C1687 1.363 . S
C1693 C1688 1.379 . S
C1693 N1691 1.356 . S
N1694 C1686 1.356 . S
N1694 H1700 0.984 . S
N1694 H1701 0.984 . S
N1695 C1688 1.356 . S
N1695 H1698 0.984 . S
N1695 H1699 0.985 . S
H1696 N1691 0.984 . S
H1697 N1691 0.985 . S
H1698 N1695 0.984 . S
H1699 N1695 0.985 . S
H1700 N1694 0.984 . S
H1701 N1694 0.984 . S
H1702 N1690 0.984 . S
H1703 N1690 0.985 . S
C1704 C1705 1.363 . S
C1704 C1710 1.379 . S
C1704 N1712 1.356 . S
C1705 C1704 1.363 . S
C1705 C1711 1.363 . S
C1706 C1707 1.363 . S
C1706 C1711 1.379 . S
C1706 N1713 1.356 . S
C1707 C1706 1.363 . S
C1707 C1710 1.363 . S
N1708 C1710 1.356 . S
N1708 H1720 0.984 . S
N1708 H1721 0.985 . S
N1709 C1711 1.356 . S
N1709 H1714 0.984 . S
N1709 H1715 0.985 . S
C1710 C1704 1.379 . S
C1710 C1707 1.363 . S
C1710 N1708 1.356 . S
C1711 C1705 1.363 . S
C1711 C1706 1.379 . S
C1711 N1709 1.356 . S
N1712 C1704 1.356 . S
N1712 H1718 0.984 . S
N1712 H1719 0.984 . S
N1713 C1706 1.356 . S
N1713 H1716 0.984 . S
N1713 H1717 0.985 . S
H1714 N1709 0.984 . S
H1715 N1709 0.985 . S
H1716 N1713 0.984 . S
H1717 N1713 0.985 . S
H1718 N1712 0.984 . S
H1719 N1712 0.984 . S
H1720 N1708 0.984 . S
H1721 N1708 0.985 . S
C1722 C1723 1.363 . S
C1722 C1728 1.379 . S
C1722 N1730 1.356 . S
C1723 C1722 1.363 . S
C1723 C1729 1.363 . S
C1724 C1725 1.363 . S
C1724 C1729 1.379 . S
C1724 N1731 1.356 . S
C1725 C1724 1.363 . S
C1725 C1728 1.363 . S
N1726 C1728 1.356 . S
N1726 H1738 0.984 . S
N1726 H1739 0.985 . S
N1727 C1729 1.356 . S
N1727 H1732 0.984 . S
N1727 H1733 0.985 . S
C1728 C1722 1.379 . S
C1728 C1725 1.363 . S
C1728 N1726 1.356 . S
C1729 C1723 1.363 . S
C1729 C1724 1.379 . S
C1729 N1727 1.356 . S
N1730 C1722 1.356 . S
N1730 H1736 0.984 . S
N1730 H1737 0.984 . S
N1731 C1724 1.356 . S
N1731 H1734 0.984 . S
N1731 H1735 0.985 . S
H1732 N1727 0.984 . S
H1733 N1727 0.985 . S
H1734 N1731 0.984 . S
H1735 N1731 0.985 . S
H1736 N1730 0.984 . S
H1737 N1730 0.984 . S
H1738 N1726 0.984 . S
H1739 N1726 0.985 . S
C1740 C1741 1.363 . S
C1740 C1746 1.379 . S
C1740 N1748 1.356 . S
C1741 C1740 1.363 . S
C1741 C1747 1.363 . S
C1742 C1743 1.363 . S
C1742 C1747 1.379 . S
C1742 N1749 1.356 . S
C1743 C1742 1.363 . S
C1743 C1746 1.363 . S
N1744 C1746 1.356 . S
N1744 H1756 0.984 . S
N1744 H1757 0.985 . S
N1745 C1747 1.356 . S
N1745 H1750 0.984 . S
N1745 H1751 0.985 . S
C1746 C1740 1.379 . S
C1746 C1743 1.363 . S
C1746 N1744 1.356 . S
C1747 C1741 1.363 . S
C1747 C1742 1.379 . S
C1747 N1745 1.356 . S
N1748 C1740 1.356 . S
N1748 H1754 0.984 . S
N1748 H1755 0.984 . S
N1749 C1742 1.356 . S
N1749 H1752 0.984 . S
N1749 H1753 0.985 . S
H1750 N1745 0.984 . S
H1751 N1745 0.985 . S
H1752 N1749 0.984 . S
H1753 N1749 0.985 . S
H1754 N1748 0.984 . S
H1755 N1748 0.984 . S
H1756 N1744 0.984 . S
H1757 N1744 0.985 . S
C1758 C1759 1.363 . S
C1758 C1764 1.379 . S
C1758 N1766 1.356 . S
C1759 C1758 1.363 . S
C1759 C1765 1.363 . S
C1760 C1761 1.363 . S
C1760 C1765 1.379 . S
C1760 N1767 1.356 . S
C1761 C1760 1.363 . S
C1761 C1764 1.363 . S
N1762 C1764 1.356 . S
N1762 H1774 0.984 . S
N1762 H1775 0.985 . S
N1763 C1765 1.356 . S
N1763 H1768 0.984 . S
N1763 H1769 0.985 . S
C1764 C1758 1.379 . S
C1764 C1761 1.363 . S
C1764 N1762 1.356 . S
C1765 C1759 1.363 . S
C1765 C1760 1.379 . S
C1765 N1763 1.356 . S
N1766 C1758 1.356 . S
N1766 H1772 0.984 . S
N1766 H1773 0.984 . S
N1767 C1760 1.356 . S
N1767 H1770 0.984 . S
N1767 H1771 0.985 . S
H1768 N1763 0.984 . S
H1769 N1763 0.985 . S
H1770 N1767 0.984 . S
H1771 N1767 0.985 . S
H1772 N1766 0.984 . S
H1773 N1766 0.984 . S
H1774 N1762 0.984 . S
H1775 N1762 0.985 . S
C1776 C1777 1.363 . S
C1776 C1782 1.379 . S
C1776 N1784 1.356 . S
C1777 C1776 1.363 . S
C1777 C1783 1.363 . S
C1778 C1779 1.363 . S
C1778 C1783 1.379 . S
C1778 N1785 1.356 . S
C1779 C1778 1.363 . S
C1779 C1782 1.363 . S
N1780 C1782 1.356 . S
N1780 H1792 0.984 . S
N1780 H1793 0.985 . S
N1781 C1783 1.356 . S
N1781 H1786 0.984 . S
N1781 H1787 0.985 . S
C1782 C1776 1.379 . S
C1782 C1779 1.363 . S
C1782 N1780 1.356 . S
C1783 C1777 1.363 . S
C1783 C1778 1.379 . S
C1783 N1781 1.356 . S
N1784 C1776 1.356 . S
N1784 H1790 0.984 . S
N1784 H1791 0.984 . S
N1785 C1778 1.356 . S
N1785 H1788 0.984 . S
N1785 H1789 0.985 . S
H1786 N1781 0.984 . S
H1787 N1781 0.985 . S
H1788 N1785 0.984 . S
H1789 N1785 0.985 . S
H1790 N1784 0.984 . S
H1791 N1784 0.984 . S
H1792 N1780 0.984 . S
H1793 N1780 0.985 . S
C1794 C1795 1.363 . S
C1794 C1800 1.379 . S
C1794 N1802 1.356 . S
C1795 C1794 1.363 . S
C1795 C1801 1.363 . S
C1796 C1797 1.363 . S
C1796 C1801 1.379 . S
C1796 N1803 1.356 . S
C1797 C1796 1.363 . S
C1797 C1800 1.363 . S
N1798 C1800 1.356 . S
N1798 H1810 0.984 . S
N1798 H1811 0.985 . S
N1799 C1801 1.356 . S
N1799 H1804 0.984 . S
N1799 H1805 0.985 . S
C1800 C1794 1.379 . S
C1800 C1797 1.363 . S
C1800 N1798 1.356 . S
C1801 C1795 1.363 . S
C1801 C1796 1.379 . S
C1801 N1799 1.356 . S
N1802 C1794 1.356 . S
N1802 H1808 0.984 . S
N1802 H1809 0.984 . S
N1803 C1796 1.356 . S
N1803 H1806 0.984 . S
N1803 H1807 0.985 . S
H1804 N1799 0.984 . S
H1805 N1799 0.985 . S
H1806 N1803 0.984 . S
H1807 N1803 0.985 . S
H1808 N1802 0.984 . S
H1809 N1802 0.984 . S
H1810 N1798 0.984 . S
H1811 N1798 0.985 . S
C1812 C1813 1.363 . S
C1812 C1818 1.379 . S
C1812 N1820 1.356 . S
C1813 C1812 1.363 . S
C1813 C1819 1.363 . S
C1814 C1815 1.363 . S
C1814 C1819 1.379 . S
C1814 N1821 1.356 . S
C1815 C1814 1.363 . S
C1815 C1818 1.363 . S
N1816 C1818 1.356 . S
N1816 H1828 0.984 . S
N1816 H1829 0.985 . S
N1817 C1819 1.356 . S
N1817 H1822 0.984 . S
N1817 H1823 0.985 . S
C1818 C1812 1.379 . S
C1818 C1815 1.363 . S
C1818 N1816 1.356 . S
C1819 C1813 1.363 . S
C1819 C1814 1.379 . S
C1819 N1817 1.356 . S
N1820 C1812 1.356 . S
N1820 H1826 0.984 . S
N1820 H1827 0.984 . S
N1821 C1814 1.356 . S
N1821 H1824 0.984 . S
N1821 H1825 0.985 . S
H1822 N1817 0.984 . S
H1823 N1817 0.985 . S
H1824 N1821 0.984 . S
H1825 N1821 0.985 . S
H1826 N1820 0.984 . S
H1827 N1820 0.984 . S
H1828 N1816 0.984 . S
H1829 N1816 0.985 . S
C1830 C1831 1.363 . S
C1830 C1836 1.379 . S
C1830 N1838 1.356 . S
C1831 C1830 1.363 . S
C1831 C1837 1.363 . S
C1832 C1833 1.363 . S
C1832 C1837 1.379 . S
C1832 N1839 1.356 . S
C1833 C1832 1.363 . S
C1833 C1836 1.363 . S
N1834 C1836 1.356 . S
N1834 H1846 0.984 . S
N1834 H1847 0.985 . S
N1835 C1837 1.356 . S
N1835 H1840 0.984 . S
N1835 H1841 0.985 . S
C1836 C1830 1.379 . S
C1836 C1833 1.363 . S
C1836 N1834 1.356 . S
C1837 C1831 1.363 . S
C1837 C1832 1.379 . S
C1837 N1835 1.356 . S
N1838 C1830 1.356 . S
N1838 H1844 0.984 . S
N1838 H1845 0.984 . S
N1839 C1832 1.356 . S
N1839 H1842 0.984 . S
N1839 H1843 0.985 . S
H1840 N1835 0.984 . S
H1841 N1835 0.985 . S
H1842 N1839 0.984 . S
H1843 N1839 0.985 . S
H1844 N1838 0.984 . S
H1845 N1838 0.984 . S
H1846 N1834 0.984 . S
H1847 N1834 0.985 . S
C1848 C1849 1.363 . S
C1848 C1854 1.379 . S
C1848 N1856 1.356 . S
C1849 C1848 1.363 . S
C1849 C1855 1.363 . S
C1850 C1851 1.363 . S
C1850 C1855 1.379 . S
C1850 N1857 1.356 . S
C1851 C1850 1.363 . S
C1851 C1854 1.363 . S
N1852 C1854 1.356 . S
N1852 H1864 0.984 . S
N1852 H1865 0.985 . S
N1853 C1855 1.356 . S
N1853 H1858 0.984 . S
N1853 H1859 0.985 . S
C1854 C1848 1.379 . S
C1854 C1851 1.363 . S
C1854 N1852 1.356 . S
C1855 C1849 1.363 . S
C1855 C1850 1.379 . S
C1855 N1853 1.356 . S
N1856 C1848 1.356 . S
N1856 H1862 0.984 . S
N1856 H1863 0.984 . S
N1857 C1850 1.356 . S
N1857 H1860 0.984 . S
N1857 H1861 0.985 . S
H1858 N1853 0.984 . S
H1859 N1853 0.985 . S
H1860 N1857 0.984 . S
H1861 N1857 0.985 . S
H1862 N1856 0.984 . S
H1863 N1856 0.984 . S
H1864 N1852 0.984 . S
H1865 N1852 0.985 . S
C1866 C1867 1.363 . S
C1866 C1872 1.379 . S
C1866 N1874 1.356 . S
C1867 C1866 1.363 . S
C1867 C1873 1.363 . S
C1868 C1869 1.363 . S
C1868 C1873 1.379 . S
C1868 N1875 1.356 . S
C1869 C1868 1.363 . S
C1869 C1872 1.363 . S
N1870 C1872 1.356 . S
N1870 H1882 0.984 . S
N1870 H1883 0.985 . S
N1871 C1873 1.356 . S
N1871 H1876 0.984 . S
N1871 H1877 0.985 . S
C1872 C1866 1.379 . S
C1872 C1869 1.363 . S
C1872 N1870 1.356 . S
C1873 C1867 1.363 . S
C1873 C1868 1.379 . S
C1873 N1871 1.356 . S
N1874 C1866 1.356 . S
N1874 H1880 0.984 . S
N1874 H1881 0.984 . S
N1875 C1868 1.356 . S
N1875 H1878 0.984 . S
N1875 H1879 0.985 . S
H1876 N1871 0.984 . S
H1877 N1871 0.985 . S
H1878 N1875 0.984 . S
H1879 N1875 0.985 . S
H1880 N1874 0.984 . S
H1881 N1874 0.984 . S
H1882 N1870 0.984 . S
H1883 N1870 0.985 . S
C1884 C1885 1.363 . S
C1884 C1890 1.379 . S
C1884 N1892 1.356 . S
C1885 C1884 1.363 . S
C1885 C1891 1.363 . S
C1886 C1887 1.363 . S
C1886 C1891 1.379 . S
C1886 N1893 1.356 . S
C1887 C1886 1.363 . S
C1887 C1890 1.363 . S
N1888 C1890 1.356 . S
N1888 H1900 0.984 . S
N1888 H1901 0.985 . S
N1889 C1891 1.356 . S
N1889 H1894 0.984 . S
N1889 H1895 0.985 . S
C1890 C1884 1.379 . S
C1890 C1887 1.363 . S
C1890 N1888 1.356 . S
C1891 C1885 1.363 . S
C1891 C1886 1.379 . S
C1891 N1889 1.356 . S
N1892 C1884 1.356 . S
N1892 H1898 0.984 . S
N1892 H1899 0.984 . S
N1893 C1886 1.356 . S
N1893 H1896 0.984 . S
N1893 H1897 0.985 . S
H1894 N1889 0.984 . S
H1895 N1889 0.985 . S
H1896 N1893 0.984 . S
H1897 N1893 0.985 . S
H1898 N1892 0.984 . S
H1899 N1892 0.984 . S
H1900 N1888 0.984 . S
H1901 N1888 0.985 . S
C1902 C1903 1.363 . S
C1902 C1908 1.379 . S
C1902 N1910 1.356 . S
C1903 C1902 1.363 . S
C1903 C1909 1.363 . S
C1904 C1905 1.363 . S
C1904 C1909 1.379 . S
C1904 N1911 1.356 . S
C1905 C1904 1.363 . S
C1905 C1908 1.363 . S
N1906 C1908 1.356 . S
N1906 H1918 0.984 . S
N1906 H1919 0.985 . S
N1907 C1909 1.356 . S
N1907 H1912 0.984 . S
N1907 H1913 0.985 . S
C1908 C1902 1.379 . S
C1908 C1905 1.363 . S
C1908 N1906 1.356 . S
C1909 C1903 1.363 . S
C1909 C1904 1.379 . S
C1909 N1907 1.356 . S
N1910 C1902 1.356 . S
N1910 H1916 0.984 . S
N1910 H1917 0.984 . S
N1911 C1904 1.356 . S
N1911 H1914 0.984 . S
N1911 H1915 0.985 . S
H1912 N1907 0.984 . S
H1913 N1907 0.985 . S
H1914 N1911 0.984 . S
H1915 N1911 0.985 . S
H1916 N1910 0.984 . S
H1917 N1910 0.984 . S
H1918 N1906 0.984 . S
H1919 N1906 0.985 . S
C1920 C1921 1.363 . S
C1920 C1926 1.379 . S
C1920 N1928 1.356 . S
C1921 C1920 1.363 . S
C1921 C1927 1.363 . S
C1922 C1923 1.363 . S
C1922 C1927 1.379 . S
C1922 N1929 1.356 . S
C1923 C1922 1.363 . S
C1923 C1926 1.363 . S
N1924 C1926 1.356 . S
N1924 H1936 0.984 . S
N1924 H1937 0.985 . S
N1925 C1927 1.356 . S
N1925 H1930 0.984 . S
N1925 H1931 0.985 . S
C1926 C1920 1.379 . S
C1926 C1923 1.363 . S
C1926 N1924 1.356 . S
C1927 C1921 1.363 . S
C1927 C1922 1.379 . S
C1927 N1925 1.356 . S
N1928 C1920 1.356 . S
N1928 H1934 0.984 . S
N1928 H1935 0.984 . S
N1929 C1922 1.356 . S
N1929 H1932 0.984 . S
N1929 H1933 0.985 . S
H1930 N1925 0.984 . S
H1931 N1925 0.985 . S
H1932 N1929 0.984 . S
H1933 N1929 0.985 . S
H1934 N1928 0.984 . S
H1935 N1928 0.984 . S
H1936 N1924 0.984 . S
H1937 N1924 0.985 . S
C1938 C1939 1.363 . S
C1938 C1944 1.379 . S
C1938 N1946 1.356 . S
C1939 C1938 1.363 . S
C1939 C1945 1.363 1_655 S
C1940 C1941 1.371 . S
C1940 C1945 1.376 1_655 S
C1940 N1947 1.354 1_655 S
C1941 C1940 1.371 . S
C1941 C1944 1.363 . S
N1942 C1944 1.356 . S
N1942 H1954 0.984 . S
N1942 H1955 0.985 . S
N1943 C1945 1.356 . S
N1943 H1948 0.984 . S
N1943 H1949 0.985 . S
C1944 C1938 1.379 . S
C1944 C1941 1.363 . S
C1944 N1942 1.356 . S
C1945 C1939 1.363 1_455 S
C1945 C1940 1.376 1_455 S
C1945 N1943 1.356 . S
N1946 C1938 1.356 . S
N1946 H1952 0.984 . S
N1946 H1953 0.984 . S
N1947 C1940 1.354 1_455 S
N1947 H1950 0.984 1_455 S
N1947 H1951 0.985 . S
H1948 N1943 0.984 . S
H1949 N1943 0.985 . S
H1950 N1947 0.984 1_655 S
H1951 N1947 0.985 . S
H1952 N1946 0.984 . S
H1953 N1946 0.984 . S
H1954 N1942 0.984 . S
H1955 N1942 0.985 . S
C1956 C1957 1.363 . S
C1956 C1962 1.379 . S
C1956 N1964 1.356 . S
C1957 C1956 1.363 . S
C1957 C1963 1.363 . S
C1958 C1959 1.363 . S
C1958 C1963 1.379 . S
C1958 N1965 1.356 . S
C1959 C1958 1.363 . S
C1959 C1962 1.363 . S
N1960 C1962 1.356 . S
N1960 H1972 0.984 . S
N1960 H1973 0.985 . S
N1961 C1963 1.356 . S
N1961 H1966 0.984 . S
N1961 H1967 0.995 . S
C1962 C1956 1.379 . S
C1962 C1959 1.363 . S
C1962 N1960 1.356 . S
C1963 C1957 1.363 . S
C1963 C1958 1.379 . S
C1963 N1961 1.356 . S
N1964 C1956 1.356 . S
N1964 H1970 0.984 . S
N1964 H1971 0.984 . S
N1965 C1958 1.356 . S
N1965 H1968 0.984 . S
N1965 H1969 0.985 . S
H1966 N1961 0.984 . S
H1967 N1961 0.995 . S
H1968 N1965 0.984 . S
H1969 N1965 0.985 . S
H1970 N1964 0.984 . S
H1971 N1964 0.984 . S
H1972 N1960 0.984 . S
H1973 N1960 0.985 . S
C1974 C1975 1.363 . S
C1974 C1980 1.379 . S
C1974 N1982 1.356 . S
C1975 C1974 1.363 . S
C1975 C1981 1.363 1_655 S
C1976 C1977 1.363 . S
C1976 C1981 1.379 1_655 S
C1976 N1983 1.356 1_655 S
C1977 C1976 1.363 . S
C1977 C1980 1.363 . S
N1978 C1980 1.356 . S
N1978 H1990 0.984 . S
N1978 H1991 0.985 . S
N1979 C1981 1.356 . S
N1979 H1984 0.984 . S
N1979 H1985 0.985 . S
C1980 C1974 1.379 . S
C1980 C1977 1.363 . S
C1980 N1978 1.356 . S
C1981 C1975 1.363 1_455 S
C1981 C1976 1.379 1_455 S
C1981 N1979 1.356 . S
N1982 C1974 1.356 . S
N1982 H1988 0.984 . S
N1982 H1989 0.984 . S
N1983 C1976 1.356 1_455 S
N1983 H1986 0.984 1_455 S
N1983 H1987 0.985 . S
H1984 N1979 0.984 . S
H1985 N1979 0.985 . S
H1986 N1983 0.984 1_655 S
H1987 N1983 0.985 . S
H1988 N1982 0.984 . S
H1989 N1982 0.984 . S
H1990 N1978 0.984 . S
H1991 N1978 0.985 . S
C1992 C1993 1.363 . S
C1992 C1998 1.379 . S
C1992 N2000 1.356 . S
C1993 C1992 1.363 . S
C1993 C1999 1.363 . S
C1994 C1995 1.363 . S
C1994 C1999 1.379 . S
C1994 N2001 1.356 . S
C1995 C1994 1.363 . S
C1995 C1998 1.363 . S
N1996 C1998 1.356 . S
N1996 H2008 0.984 . S
N1996 H2009 0.985 . S
N1997 C1999 1.356 . S
N1997 H2002 0.984 . S
N1997 H2003 0.985 . S
C1998 C1992 1.379 . S
C1998 C1995 1.363 . S
C1998 N1996 1.356 . S
C1999 C1993 1.363 . S
C1999 C1994 1.379 . S
C1999 N1997 1.356 . S
N2000 C1992 1.356 . S
N2000 H2006 0.984 . S
N2000 H2007 0.984 . S
N2001 C1994 1.356 . S
N2001 H2004 0.984 . S
N2001 H2005 0.985 . S
H2002 N1997 0.984 . S
H2003 N1997 0.985 . S
H2004 N2001 0.984 . S
H2005 N2001 0.985 . S
H2006 N2000 0.984 . S
H2007 N2000 0.984 . S
H2008 N1996 0.984 . S
H2009 N1996 0.985 . S
C2010 C2011 1.365 1_655 S
C2010 C2016 1.378 . S
C2010 N2018 1.356 . S
C2011 C2010 1.365 1_455 S
C2011 C2017 1.363 . S
C2012 C2013 1.363 . S
C2012 C2017 1.379 . S
C2012 N2019 1.356 . S
C2013 C2012 1.363 . S
C2013 C2016 1.363 1_455 S
N2014 C2016 1.356 . S
N2014 H2026 0.984 . S
N2014 H2027 0.985 . S
N2015 C2017 1.356 . S
N2015 H2020 0.984 . S
N2015 H2021 0.985 . S
C2016 C2010 1.378 . S
C2016 C2013 1.363 1_655 S
C2016 N2014 1.356 . S
C2017 C2011 1.363 . S
C2017 C2012 1.379 . S
C2017 N2015 1.356 . S
N2018 C2010 1.356 . S
N2018 H2024 0.984 . S
N2018 H2025 0.984 1_655 S
N2019 C2012 1.356 . S
N2019 H2022 0.984 . S
N2019 H2023 0.985 . S
H2020 N2015 0.984 . S
H2021 N2015 0.985 . S
H2022 N2019 0.984 . S
H2023 N2019 0.985 . S
H2024 N2018 0.984 . S
H2025 N2018 0.984 1_455 S
H2026 N2014 0.984 . S
H2027 N2014 0.985 . S
C2028 C2029 1.363 . S
C2028 C2034 1.379 . S
C2028 N2036 1.356 . S
C2029 C2028 1.363 . S
C2029 C2035 1.363 . S
C2030 C2031 1.363 . S
C2030 C2035 1.379 . S
C2030 N2037 1.356 . S
C2031 C2030 1.363 . S
C2031 C2034 1.363 . S
N2032 C2034 1.356 . S
N2032 H2044 0.978 1_565 S
N2032 H2045 0.985 . S
N2033 C2035 1.356 . S
N2033 H2038 0.984 . S
N2033 H2039 0.985 . S
C2034 C2028 1.379 . S
C2034 C2031 1.363 . S
C2034 N2032 1.356 . S
C2035 C2029 1.363 . S
C2035 C2030 1.379 . S
C2035 N2033 1.356 . S
N2036 C2028 1.356 . S
N2036 H2042 0.984 . S
N2036 H2043 0.984 . S
N2037 C2030 1.356 . S
N2037 H2040 0.984 . S
N2037 H2041 0.985 . S
H2038 N2033 0.984 . S
H2039 N2033 0.985 . S
H2040 N2037 0.984 . S
H2041 N2037 0.985 . S
H2042 N2036 0.984 . S
H2043 N2036 0.984 . S
H2044 N2032 0.978 1_545 S
H2045 N2032 0.985 . S
C2046 C2047 1.363 . S
C2046 C2052 1.396 . S
C2046 N2054 1.356 . S
C2047 C2046 1.363 . S
C2047 C2053 1.363 . S
C2048 C2049 1.363 . S
C2048 C2053 1.379 . S
C2048 N2055 1.356 . S
C2049 C2048 1.363 . S
C2049 C2052 1.371 . S
N2050 C2052 1.332 1_655 S
N2050 H2062 0.984 . S
N2050 H2063 0.985 . S
N2051 C2053 1.356 . S
N2051 H2056 0.984 . S
N2051 H2057 0.985 . S
C2052 C2046 1.396 . S
C2052 C2049 1.371 . S
C2052 N2050 1.332 1_455 S
C2053 C2047 1.363 . S
C2053 C2048 1.379 . S
C2053 N2051 1.356 . S
N2054 C2046 1.356 . S
N2054 H2060 0.984 . S
N2054 H2061 0.984 . S
N2055 C2048 1.356 . S
N2055 H2058 0.984 . S
N2055 H2059 0.985 . S
H2056 N2051 0.984 . S
H2057 N2051 0.985 . S
H2058 N2055 0.984 . S
H2059 N2055 0.985 . S
H2060 N2054 0.984 . S
H2061 N2054 0.984 . S
H2062 N2050 0.984 . S
H2063 N2050 0.985 . S
C2064 C2065 1.363 . S
C2064 C2070 1.379 . S
C2064 N2072 1.356 . S
C2065 C2064 1.363 . S
C2065 C2071 1.363 . S
C2066 C2067 1.363 . S
C2066 C2071 1.379 . S
C2066 N2073 1.356 . S
C2067 C2066 1.363 . S
C2067 C2070 1.363 . S
N2068 C2070 1.356 . S
N2068 H2080 0.984 . S
N2068 H2081 0.985 . S
N2069 C2071 1.356 . S
N2069 H2074 0.984 . S
N2069 H2075 0.985 . S
C2070 C2064 1.379 . S
C2070 C2067 1.363 . S
C2070 N2068 1.356 . S
C2071 C2065 1.363 . S
C2071 C2066 1.379 . S
C2071 N2069 1.356 . S
N2072 C2064 1.356 . S
N2072 H2078 0.984 . S
N2072 H2079 0.984 . S
N2073 C2066 1.356 . S
N2073 H2076 0.984 . S
N2073 H2077 0.985 . S
H2074 N2069 0.984 . S
H2075 N2069 0.985 . S
H2076 N2073 0.984 . S
H2077 N2073 0.985 . S
H2078 N2072 0.984 . S
H2079 N2072 0.984 . S
H2080 N2068 0.984 . S
H2081 N2068 0.985 . S
C2082 C2083 1.363 1_455 S
C2082 C2088 1.360 1_455 S
C2082 N2090 1.356 . S
C2083 C2082 1.363 1_655 S
C2083 C2089 1.363 . S
C2084 C2085 1.363 . S
C2084 C2089 1.379 . S
C2084 N2091 1.356 . S
C2085 C2084 1.363 . S
C2085 C2088 1.411 . S
N2086 C2088 1.342 1_455 S
N2086 H2098 0.984 . S
N2086 H2099 0.985 1_455 S
N2087 C2089 1.356 . S
N2087 H2092 0.984 . S
N2087 H2093 0.985 . S
C2088 C2082 1.360 1_655 S
C2088 C2085 1.411 . S
C2088 N2086 1.342 1_655 S
C2089 C2083 1.363 . S
C2089 C2084 1.379 . S
C2089 N2087 1.356 . S
N2090 C2082 1.356 . S
N2090 H2096 0.984 . S
N2090 H2097 0.984 . S
N2091 C2084 1.356 . S
N2091 H2094 0.984 . S
N2091 H2095 0.985 . S
H2092 N2087 0.984 . S
H2093 N2087 0.985 . S
H2094 N2091 0.984 . S
H2095 N2091 0.985 . S
H2096 N2090 0.984 . S
H2097 N2090 0.984 . S
H2098 N2086 0.984 . S
H2099 N2086 0.985 1_655 S
C2100 C2101 1.363 . S
C2100 C2106 1.379 . S
C2100 N2108 1.356 . S
C2101 C2100 1.363 . S
C2101 C2107 1.363 . S
C2102 C2103 1.363 . S
C2102 C2107 1.379 . S
C2102 N2109 1.356 . S
C2103 C2102 1.363 . S
C2103 C2106 1.363 . S
N2104 C2106 1.356 . S
N2104 H2116 0.984 . S
N2104 H2117 0.985 . S
N2105 C2107 1.356 . S
N2105 H2110 0.984 . S
N2105 H2111 0.985 . S
C2106 C2100 1.379 . S
C2106 C2103 1.363 . S
C2106 N2104 1.356 . S
C2107 C2101 1.363 . S
C2107 C2102 1.379 . S
C2107 N2105 1.356 . S
N2108 C2100 1.356 . S
N2108 H2114 0.984 . S
N2108 H2115 0.984 . S
N2109 C2102 1.356 . S
N2109 H2112 0.984 . S
N2109 H2113 0.985 . S
H2110 N2105 0.984 . S
H2111 N2105 0.985 . S
H2112 N2109 0.984 . S
H2113 N2109 0.985 . S
H2114 N2108 0.984 . S
H2115 N2108 0.984 . S
H2116 N2104 0.984 . S
H2117 N2104 0.985 . S
C2118 C2119 1.363 . S
C2118 C2124 1.379 . S
C2118 N2126 1.356 . S
C2119 C2118 1.363 . S
C2119 C2125 1.363 . S
C2120 C2121 1.363 1_455 S
C2120 C2125 1.379 1_455 S
C2120 N2127 1.356 . S
C2121 C2120 1.363 1_655 S
C2121 C2124 1.363 . S
N2122 C2124 1.356 . S
N2122 H2134 0.984 . S
N2122 H2135 0.985 . S
N2123 C2125 1.356 . S
N2123 H2128 0.984 . S
N2123 H2129 0.985 1_655 S
C2124 C2118 1.379 . S
C2124 C2121 1.363 . S
C2124 N2122 1.356 . S
C2125 C2119 1.363 . S
C2125 C2120 1.379 1_655 S
C2125 N2123 1.356 . S
N2126 C2118 1.356 . S
N2126 H2132 0.984 . S
N2126 H2133 0.984 . S
N2127 C2120 1.356 . S
N2127 H2130 0.984 . S
N2127 H2131 0.985 . S
H2128 N2123 0.984 . S
H2129 N2123 0.985 1_455 S
H2130 N2127 0.984 . S
H2131 N2127 0.985 . S
H2132 N2126 0.984 . S
H2133 N2126 0.984 . S
H2134 N2122 0.984 . S
H2135 N2122 0.985 . S
C2136 C2137 1.363 . S
C2136 C2142 1.379 . S
C2136 N2144 1.356 . S
C2137 C2136 1.363 . S
C2137 C2143 1.363 . S
C2138 C2139 1.363 . S
C2138 C2143 1.379 . S
C2138 N2145 1.356 . S
C2139 C2138 1.363 . S
C2139 C2142 1.363 . S
N2140 C2142 1.356 . S
N2140 H2152 0.984 . S
N2140 H2153 0.985 . S
N2141 C2143 1.356 . S
N2141 H2146 0.984 . S
N2141 H2147 0.985 . S
C2142 C2136 1.379 . S
C2142 C2139 1.363 . S
C2142 N2140 1.356 . S
C2143 C2137 1.363 . S
C2143 C2138 1.379 . S
C2143 N2141 1.356 . S
N2144 C2136 1.356 . S
N2144 H2150 0.984 . S
N2144 H2151 0.984 . S
N2145 C2138 1.356 . S
N2145 H2148 0.984 . S
N2145 H2149 0.985 . S
H2146 N2141 0.984 . S
H2147 N2141 0.985 . S
H2148 N2145 0.984 . S
H2149 N2145 0.985 . S
H2150 N2144 0.984 . S
H2151 N2144 0.984 . S
H2152 N2140 0.984 . S
H2153 N2140 0.985 . S
C2154 C2155 1.363 . S
C2154 C2160 1.379 . S
C2154 N2162 1.356 . S
C2155 C2154 1.363 . S
C2155 C2161 1.363 . S
C2156 C2157 1.363 1_655 S
C2156 C2161 1.379 1_655 S
C2156 N2163 1.356 . S
C2157 C2156 1.363 1_455 S
C2157 C2160 1.363 . S
N2158 C2160 1.356 . S
N2158 H2170 0.984 . S
N2158 H2171 0.985 . S
N2159 C2161 1.356 . S
N2159 H2164 0.984 . S
N2159 H2165 0.985 1_455 S
C2160 C2154 1.379 . S
C2160 C2157 1.363 . S
C2160 N2158 1.356 . S
C2161 C2155 1.363 . S
C2161 C2156 1.379 1_455 S
C2161 N2159 1.356 . S
N2162 C2154 1.356 . S
N2162 H2168 0.984 . S
N2162 H2169 0.984 . S
N2163 C2156 1.356 . S
N2163 H2166 0.984 . S
N2163 H2167 0.985 . S
H2164 N2159 0.984 . S
H2165 N2159 0.985 1_655 S
H2166 N2163 0.984 . S
H2167 N2163 0.985 . S
H2168 N2162 0.984 . S
H2169 N2162 0.984 . S
H2170 N2158 0.984 . S
H2171 N2158 0.985 . S
C2172 C2173 1.363 . S
C2172 C2178 1.379 . S
C2172 N2180 1.356 . S
C2173 C2172 1.363 . S
C2173 C2179 1.363 . S
C2174 C2175 1.363 . S
C2174 C2179 1.379 . S
C2174 N2181 1.356 . S
C2175 C2174 1.363 . S
C2175 C2178 1.363 . S
N2176 C2178 1.356 . S
N2176 H2188 0.984 . S
N2176 H2189 0.985 . S
N2177 C2179 1.356 . S
N2177 H2182 0.984 . S
N2177 H2183 0.985 . S
C2178 C2172 1.379 . S
C2178 C2175 1.363 . S
C2178 N2176 1.356 . S
C2179 C2173 1.363 . S
C2179 C2174 1.379 . S
C2179 N2177 1.356 . S
N2180 C2172 1.356 . S
N2180 H2186 0.984 . S
N2180 H2187 0.984 . S
N2181 C2174 1.356 . S
N2181 H2184 0.984 . S
N2181 H2185 0.985 . S
H2182 N2177 0.984 . S
H2183 N2177 0.985 . S
H2184 N2181 0.984 . S
H2185 N2181 0.985 . S
H2186 N2180 0.984 . S
H2187 N2180 0.984 . S
H2188 N2176 0.984 . S
H2189 N2176 0.985 . S
C2190 C2191 1.363 . S
C2190 C2196 1.379 . S
C2190 N2198 1.356 . S
C2191 C2190 1.363 . S
C2191 C2197 1.361 1_455 S
C2192 C2193 1.363 . S
C2192 C2197 1.375 1_455 S
C2192 N2199 1.356 . S
C2193 C2192 1.363 . S
C2193 C2196 1.363 . S
N2194 C2196 1.356 . S
N2194 H2206 0.984 . S
N2194 H2207 0.985 . S
N2195 C2197 1.361 . S
N2195 H2200 0.984 . S
N2195 H2201 0.985 . S
C2196 C2190 1.379 . S
C2196 C2193 1.363 . S
C2196 N2194 1.356 . S
C2197 C2191 1.361 1_655 S
C2197 C2192 1.375 1_655 S
C2197 N2195 1.361 . S
N2198 C2190 1.356 . S
N2198 H2204 0.984 . S
N2198 H2205 0.984 . S
N2199 C2192 1.356 . S
N2199 H2202 0.984 . S
N2199 H2203 0.985 1_455 S
H2200 N2195 0.984 . S
H2201 N2195 0.985 . S
H2202 N2199 0.984 . S
H2203 N2199 0.985 1_655 S
H2204 N2198 0.984 . S
H2205 N2198 0.984 . S
H2206 N2194 0.984 . S
H2207 N2194 0.985 . S
C2208 C2209 1.363 . S
C2208 C2214 1.379 . S
C2208 N2216 1.356 . S
C2209 C2208 1.363 . S
C2209 C2215 1.363 . S
C2210 C2211 1.363 . S
C2210 C2215 1.379 . S
C2210 N2217 1.356 . S
C2211 C2210 1.363 . S
C2211 C2214 1.363 . S
N2212 C2214 1.356 . S
N2212 H2224 0.984 . S
N2212 H2225 0.985 . S
N2213 C2215 1.356 . S
N2213 H2218 0.984 . S
N2213 H2219 0.985 . S
C2214 C2208 1.379 . S
C2214 C2211 1.363 . S
C2214 N2212 1.356 . S
C2215 C2209 1.363 . S
C2215 C2210 1.379 . S
C2215 N2213 1.356 . S
N2216 C2208 1.356 . S
N2216 H2222 0.984 . S
N2216 H2223 0.984 . S
N2217 C2210 1.356 . S
N2217 H2220 0.984 . S
N2217 H2221 0.985 . S
H2218 N2213 0.984 . S
H2219 N2213 0.985 . S
H2220 N2217 0.984 . S
H2221 N2217 0.985 . S
H2222 N2216 0.984 . S
H2223 N2216 0.984 . S
H2224 N2212 0.984 . S
H2225 N2212 0.985 . S
C2226 C2227 1.363 . S
C2226 C2232 1.379 . S
C2226 N2234 1.356 . S
C2227 C2226 1.363 . S
C2227 C2233 1.363 . S
C2228 C2229 1.363 . S
C2228 C2233 1.379 . S
C2228 N2235 1.356 . S
C2229 C2228 1.363 . S
C2229 C2232 1.363 . S
N2230 C2232 1.356 . S
N2230 H2242 0.984 . S
N2230 H2243 0.985 . S
N2231 C2233 1.356 . S
N2231 H2236 0.984 . S
N2231 H2237 0.985 1_545 S
C2232 C2226 1.379 . S
C2232 C2229 1.363 . S
C2232 N2230 1.356 . S
C2233 C2227 1.363 . S
C2233 C2228 1.379 . S
C2233 N2231 1.356 . S
N2234 C2226 1.356 . S
N2234 H2240 0.984 . S
N2234 H2241 0.984 . S
N2235 C2228 1.356 . S
N2235 H2238 0.984 . S
N2235 H2239 0.985 . S
H2236 N2231 0.984 . S
H2237 N2231 0.985 1_565 S
H2238 N2235 0.984 . S
H2239 N2235 0.985 . S
H2240 N2234 0.984 . S
H2241 N2234 0.984 . S
H2242 N2230 0.984 . S
H2243 N2230 0.985 . S
C2244 C2245 1.363 . S
C2244 C2250 1.379 . S
C2244 N2252 1.356 . S
C2245 C2244 1.363 . S
C2245 C2251 1.363 . S
C2246 C2247 1.363 . S
C2246 C2251 1.379 . S
C2246 N2253 1.356 . S
C2247 C2246 1.363 . S
C2247 C2250 1.363 . S
N2248 C2250 1.356 . S
N2248 H2260 0.984 . S
N2248 H2261 0.985 . S
N2249 C2251 1.356 . S
N2249 H2254 0.984 . S
N2249 H2255 0.985 . S
C2250 C2244 1.379 . S
C2250 C2247 1.363 . S
C2250 N2248 1.356 . S
C2251 C2245 1.363 . S
C2251 C2246 1.379 . S
C2251 N2249 1.356 . S
N2252 C2244 1.356 . S
N2252 H2258 0.984 . S
N2252 H2259 0.984 . S
N2253 C2246 1.356 . S
N2253 H2256 0.984 . S
N2253 H2257 0.985 . S
H2254 N2249 0.984 . S
H2255 N2249 0.985 . S
H2256 N2253 0.984 . S
H2257 N2253 0.985 . S
H2258 N2252 0.984 . S
H2259 N2252 0.984 . S
H2260 N2248 0.984 . S
H2261 N2248 0.985 . S
C2262 C2263 1.363 . S
C2262 C2268 1.379 . S
C2262 N2270 1.356 . S
C2263 C2262 1.363 . S
C2263 C2269 1.363 . S
C2264 C2265 1.363 . S
C2264 C2269 1.379 . S
C2264 N2271 1.356 . S
C2265 C2264 1.363 . S
C2265 C2268 1.363 . S
N2266 C2268 1.356 . S
N2266 H2278 0.984 . S
N2266 H2279 0.985 . S
N2267 C2269 1.356 . S
N2267 H2272 0.984 . S
N2267 H2273 0.985 . S
C2268 C2262 1.379 . S
C2268 C2265 1.363 . S
C2268 N2266 1.356 . S
C2269 C2263 1.363 . S
C2269 C2264 1.379 . S
C2269 N2267 1.356 . S
N2270 C2262 1.356 . S
N2270 H2276 0.984 . S
N2270 H2277 0.984 . S
N2271 C2264 1.356 . S
N2271 H2274 0.984 . S
N2271 H2275 0.985 . S
H2272 N2267 0.984 . S
H2273 N2267 0.985 . S
H2274 N2271 0.984 . S
H2275 N2271 0.985 . S
H2276 N2270 0.984 . S
H2277 N2270 0.984 . S
H2278 N2266 0.984 . S
H2279 N2266 0.985 . S
C2280 C2281 1.363 . S
C2280 C2286 1.379 . S
C2280 N2288 1.356 . S
C2281 C2280 1.363 . S
C2281 C2287 1.363 . S
C2282 C2283 1.363 . S
C2282 C2287 1.379 . S
C2282 N2289 1.356 . S
C2283 C2282 1.363 . S
C2283 C2286 1.363 . S
N2284 C2286 1.356 . S
N2284 H2296 0.984 . S
N2284 H2297 0.985 . S
N2285 C2287 1.356 . S
N2285 H2290 0.984 . S
N2285 H2291 0.985 . S
C2286 C2280 1.379 . S
C2286 C2283 1.363 . S
C2286 N2284 1.356 . S
C2287 C2281 1.363 . S
C2287 C2282 1.379 . S
C2287 N2285 1.356 . S
N2288 C2280 1.356 . S
N2288 H2294 0.984 . S
N2288 H2295 0.984 . S
N2289 C2282 1.356 . S
N2289 H2292 0.984 . S
N2289 H2293 0.985 . S
H2290 N2285 0.984 . S
H2291 N2285 0.985 . S
H2292 N2289 0.984 . S
H2293 N2289 0.985 . S
H2294 N2288 0.984 . S
H2295 N2288 0.984 . S
H2296 N2284 0.984 . S
H2297 N2284 0.985 . S
C2298 C2299 1.363 . S
C2298 C2304 1.379 . S
C2298 N2306 1.356 . S
C2299 C2298 1.363 . S
C2299 C2305 1.363 . S
C2300 C2301 1.363 . S
C2300 C2305 1.379 . S
C2300 N2307 1.356 . S
C2301 C2300 1.363 . S
C2301 C2304 1.363 . S
N2302 C2304 1.356 . S
N2302 H2314 0.984 . S
N2302 H2315 0.985 . S
N2303 C2305 1.356 . S
N2303 H2308 0.984 . S
N2303 H2309 0.985 . S
C2304 C2298 1.379 . S
C2304 C2301 1.363 . S
C2304 N2302 1.356 . S
C2305 C2299 1.363 . S
C2305 C2300 1.379 . S
C2305 N2303 1.356 . S
N2306 C2298 1.356 . S
N2306 H2312 0.984 1_565 S
N2306 H2313 0.984 . S
N2307 C2300 1.356 . S
N2307 H2310 0.984 . S
N2307 H2311 0.985 . S
H2308 N2303 0.984 . S
H2309 N2303 0.985 . S
H2310 N2307 0.984 . S
H2311 N2307 0.985 . S
H2312 N2306 0.984 1_545 S
H2313 N2306 0.984 . S
H2314 N2302 0.984 . S
H2315 N2302 0.985 . S
C2316 C2317 1.363 . S
C2316 C2322 1.379 . S
C2316 N2324 1.356 . S
C2317 C2316 1.363 . S
C2317 C2323 1.363 . S
C2318 C2319 1.363 . S
C2318 C2323 1.379 . S
C2318 N2325 1.356 . S
C2319 C2318 1.363 . S
C2319 C2322 1.363 . S
N2320 C2322 1.356 . S
N2320 H2332 0.984 . S
N2320 H2333 0.985 . S
N2321 C2323 1.356 . S
N2321 H2326 0.984 . S
N2321 H2327 0.985 . S
C2322 C2316 1.379 . S
C2322 C2319 1.363 . S
C2322 N2320 1.356 . S
C2323 C2317 1.363 . S
C2323 C2318 1.379 . S
C2323 N2321 1.356 . S
N2324 C2316 1.356 . S
N2324 H2330 0.984 . S
N2324 H2331 0.984 . S
N2325 C2318 1.356 . S
N2325 H2328 0.984 . S
N2325 H2329 0.985 . S
H2326 N2321 0.984 . S
H2327 N2321 0.985 . S
H2328 N2325 0.984 . S
H2329 N2325 0.985 . S
H2330 N2324 0.984 . S
H2331 N2324 0.984 . S
H2332 N2320 0.984 . S
H2333 N2320 0.985 . S
C2334 C2335 1.363 . S
C2334 C2340 1.379 . S
C2334 N2342 1.356 . S
C2335 C2334 1.363 . S
C2335 C2341 1.363 . S
C2336 C2337 1.363 . S
C2336 C2341 1.379 . S
C2336 N2343 1.356 . S
C2337 C2336 1.363 . S
C2337 C2340 1.363 . S
N2338 C2340 1.356 . S
N2338 H2350 0.984 . S
N2338 H2351 0.985 . S
N2339 C2341 1.356 . S
N2339 H2344 0.984 . S
N2339 H2345 0.985 . S
C2340 C2334 1.379 . S
C2340 C2337 1.363 . S
C2340 N2338 1.356 . S
C2341 C2335 1.363 . S
C2341 C2336 1.379 . S
C2341 N2339 1.356 . S
N2342 C2334 1.356 . S
N2342 H2348 0.984 . S
N2342 H2349 0.984 . S
N2343 C2336 1.356 . S
N2343 H2346 0.984 . S
N2343 H2347 0.985 . S
H2344 N2339 0.984 . S
H2345 N2339 0.985 . S
H2346 N2343 0.984 . S
H2347 N2343 0.985 . S
H2348 N2342 0.984 . S
H2349 N2342 0.984 . S
H2350 N2338 0.984 . S
H2351 N2338 0.985 . S
C2352 C2353 1.363 . S
C2352 C2358 1.379 . S
C2352 N2360 1.356 . S
C2353 C2352 1.363 . S
C2353 C2359 1.363 . S
C2354 C2355 1.363 . S
C2354 C2359 1.379 . S
C2354 N2361 1.356 . S
C2355 C2354 1.363 . S
C2355 C2358 1.363 . S
N2356 C2358 1.356 . S
N2356 H2368 0.984 . S
N2356 H2369 0.985 . S
N2357 C2359 1.356 . S
N2357 H2362 0.984 . S
N2357 H2363 0.985 . S
C2358 C2352 1.379 . S
C2358 C2355 1.363 . S
C2358 N2356 1.356 . S
C2359 C2353 1.363 . S
C2359 C2354 1.379 . S
C2359 N2357 1.356 . S
N2360 C2352 1.356 . S
N2360 H2366 0.984 . S
N2360 H2367 0.984 . S
N2361 C2354 1.356 . S
N2361 H2364 0.984 . S
N2361 H2365 0.985 . S
H2362 N2357 0.984 . S
H2363 N2357 0.985 . S
H2364 N2361 0.984 . S
H2365 N2361 0.985 . S
H2366 N2360 0.984 . S
H2367 N2360 0.984 . S
H2368 N2356 0.984 . S
H2369 N2356 0.985 . S
C2370 C2371 1.363 . S
C2370 C2376 1.379 . S
C2370 N2378 1.356 . S
C2371 C2370 1.363 . S
C2371 C2377 1.363 . S
C2372 C2373 1.363 . S
C2372 C2377 1.379 . S
C2372 N2379 1.356 . S
C2373 C2372 1.363 . S
C2373 C2376 1.363 . S
N2374 C2376 1.356 . S
N2374 H2386 0.984 . S
N2374 H2387 0.985 . S
N2375 C2377 1.356 . S
N2375 H2380 0.984 . S
N2375 H2381 0.985 . S
C2376 C2370 1.379 . S
C2376 C2373 1.363 . S
C2376 N2374 1.356 . S
C2377 C2371 1.363 . S
C2377 C2372 1.379 . S
C2377 N2375 1.356 . S
N2378 C2370 1.356 . S
N2378 H2384 0.984 . S
N2378 H2385 0.984 . S
N2379 C2372 1.356 . S
N2379 H2382 0.984 . S
N2379 H2383 0.985 . S
H2380 N2375 0.984 . S
H2381 N2375 0.985 . S
H2382 N2379 0.984 . S
H2383 N2379 0.985 . S
H2384 N2378 0.984 . S
H2385 N2378 0.984 . S
H2386 N2374 0.984 . S
H2387 N2374 0.985 . S
C2388 C2389 1.363 . S
C2388 C2394 1.379 . S
C2388 N2396 1.356 . S
C2389 C2388 1.363 . S
C2389 C2395 1.363 . S
C2390 C2391 1.363 . S
C2390 C2395 1.379 . S
C2390 N2397 1.356 . S
C2391 C2390 1.363 . S
C2391 C2394 1.363 . S
N2392 C2394 1.356 . S
N2392 H2404 0.984 . S
N2392 H2405 0.985 . S
N2393 C2395 1.356 . S
N2393 H2398 0.984 . S
N2393 H2399 0.985 . S
C2394 C2388 1.379 . S
C2394 C2391 1.363 . S
C2394 N2392 1.356 . S
C2395 C2389 1.363 . S
C2395 C2390 1.379 . S
C2395 N2393 1.356 . S
N2396 C2388 1.356 . S
N2396 H2402 0.984 . S
N2396 H2403 0.984 . S
N2397 C2390 1.356 . S
N2397 H2400 0.984 . S
N2397 H2401 0.985 . S
H2398 N2393 0.984 . S
H2399 N2393 0.985 . S
H2400 N2397 0.984 . S
H2401 N2397 0.985 . S
H2402 N2396 0.984 . S
H2403 N2396 0.984 . S
H2404 N2392 0.984 . S
H2405 N2392 0.985 . S
C2406 C2407 1.363 . S
C2406 C2412 1.379 . S
C2406 N2414 1.356 . S
C2407 C2406 1.363 . S
C2407 C2413 1.363 . S
C2408 C2409 1.363 . S
C2408 C2413 1.379 . S
C2408 N2415 1.356 . S
C2409 C2408 1.363 . S
C2409 C2412 1.363 . S
N2410 C2412 1.356 . S
N2410 H2422 0.984 . S
N2410 H2423 0.985 . S
N2411 C2413 1.356 . S
N2411 H2416 0.984 . S
N2411 H2417 0.985 . S
C2412 C2406 1.379 . S
C2412 C2409 1.363 . S
C2412 N2410 1.356 . S
C2413 C2407 1.363 . S
C2413 C2408 1.379 . S
C2413 N2411 1.356 . S
N2414 C2406 1.356 . S
N2414 H2420 0.984 . S
N2414 H2421 0.984 . S
N2415 C2408 1.356 . S
N2415 H2418 0.984 . S
N2415 H2419 0.985 . S
H2416 N2411 0.984 . S
H2417 N2411 0.985 . S
H2418 N2415 0.984 . S
H2419 N2415 0.985 . S
H2420 N2414 0.984 . S
H2421 N2414 0.984 . S
H2422 N2410 0.984 . S
H2423 N2410 0.985 . S
C2424 C2425 1.363 . S
C2424 C2430 1.379 . S
C2424 N2432 1.356 . S
C2425 C2424 1.363 . S
C2425 C2431 1.363 . S
C2426 C2427 1.363 . S
C2426 C2431 1.379 . S
C2426 N2433 1.356 . S
C2427 C2426 1.363 . S
C2427 C2430 1.363 . S
N2428 C2430 1.356 . S
N2428 H2440 0.984 . S
N2428 H2441 0.985 . S
N2429 C2431 1.356 . S
N2429 H2434 0.984 . S
N2429 H2435 0.985 . S
C2430 C2424 1.379 . S
C2430 C2427 1.363 . S
C2430 N2428 1.356 . S
C2431 C2425 1.363 . S
C2431 C2426 1.379 . S
C2431 N2429 1.356 . S
N2432 C2424 1.356 . S
N2432 H2438 0.984 . S
N2432 H2439 0.984 . S
N2433 C2426 1.356 . S
N2433 H2436 0.984 . S
N2433 H2437 0.985 . S
H2434 N2429 0.984 . S
H2435 N2429 0.985 . S
H2436 N2433 0.984 . S
H2437 N2433 0.985 . S
H2438 N2432 0.984 . S
H2439 N2432 0.984 . S
H2440 N2428 0.984 . S
H2441 N2428 0.985 . S
C2442 C2443 1.363 . S
C2442 C2448 1.379 . S
C2442 N2450 1.356 . S
C2443 C2442 1.363 . S
C2443 C2449 1.363 . S
C2444 C2445 1.363 . S
C2444 C2449 1.379 . S
C2444 N2451 1.356 . S
C2445 C2444 1.363 . S
C2445 C2448 1.363 . S
N2446 C2448 1.356 . S
N2446 H2458 0.984 . S
N2446 H2459 0.985 . S
N2447 C2449 1.356 . S
N2447 H2452 0.984 . S
N2447 H2453 0.985 . S
C2448 C2442 1.379 . S
C2448 C2445 1.363 . S
C2448 N2446 1.356 . S
C2449 C2443 1.363 . S
C2449 C2444 1.379 . S
C2449 N2447 1.356 . S
N2450 C2442 1.356 . S
N2450 H2456 0.984 . S
N2450 H2457 0.984 . S
N2451 C2444 1.356 . S
N2451 H2454 0.984 . S
N2451 H2455 0.985 . S
H2452 N2447 0.984 . S
H2453 N2447 0.985 . S
H2454 N2451 0.984 . S
H2455 N2451 0.985 . S
H2456 N2450 0.984 . S
H2457 N2450 0.984 . S
H2458 N2446 0.984 . S
H2459 N2446 0.985 . S
C2460 C2461 1.363 . S
C2460 C2466 1.379 . S
C2460 N2468 1.356 . S
C2461 C2460 1.363 . S
C2461 C2467 1.363 . S
C2462 C2463 1.363 . S
C2462 C2467 1.379 . S
C2462 N2469 1.356 . S
C2463 C2462 1.363 . S
C2463 C2466 1.363 . S
N2464 C2466 1.356 . S
N2464 H2476 0.984 . S
N2464 H2477 0.985 . S
N2465 C2467 1.356 . S
N2465 H2470 0.984 . S
N2465 H2471 0.985 . S
C2466 C2460 1.379 . S
C2466 C2463 1.363 . S
C2466 N2464 1.356 . S
C2467 C2461 1.363 . S
C2467 C2462 1.379 . S
C2467 N2465 1.356 . S
N2468 C2460 1.356 . S
N2468 H2474 0.984 . S
N2468 H2475 0.984 . S
N2469 C2462 1.356 . S
N2469 H2472 0.984 . S
N2469 H2473 0.995 . S
H2470 N2465 0.984 . S
H2471 N2465 0.985 . S
H2472 N2469 0.984 . S
H2473 N2469 0.995 . S
H2474 N2468 0.984 . S
H2475 N2468 0.984 . S
H2476 N2464 0.984 . S
H2477 N2464 0.985 . S
C2478 C2479 1.363 . S
C2478 C2484 1.379 . S
C2478 N2486 1.356 . S
C2479 C2478 1.363 . S
C2479 C2485 1.363 . S
C2480 C2481 1.363 . S
C2480 C2485 1.379 . S
C2480 N2487 1.356 . S
C2481 C2480 1.363 . S
C2481 C2484 1.363 . S
N2482 C2484 1.356 . S
N2482 H2494 0.984 . S
N2482 H2495 0.985 . S
N2483 C2485 1.356 . S
N2483 H2488 0.984 . S
N2483 H2489 0.985 . S
C2484 C2478 1.379 . S
C2484 C2481 1.363 . S
C2484 N2482 1.356 . S
C2485 C2479 1.363 . S
C2485 C2480 1.379 . S
C2485 N2483 1.356 . S
N2486 C2478 1.356 . S
N2486 H2492 0.984 . S
N2486 H2493 0.984 . S
N2487 C2480 1.356 . S
N2487 H2490 0.984 . S
N2487 H2491 0.985 . S
H2488 N2483 0.984 . S
H2489 N2483 0.985 . S
H2490 N2487 0.984 . S
H2491 N2487 0.985 . S
H2492 N2486 0.984 . S
H2493 N2486 0.984 . S
H2494 N2482 0.984 . S
H2495 N2482 0.985 . S
C1057 N14 0.824 . S
C1059 N344 0.824 . S
C1075 N377 0.824 . S
C1077 N47 0.824 . S
C1093 N278 0.824 . S
C1095 N80 0.824 . S
C1111 N113 0.824 . S
C1113 N311 0.824 . S
C1129 N146 0.824 . S
C1131 N476 0.824 . S
C1147 N179 0.824 . S
C1149 N509 0.824 . S
C1165 N410 0.824 . S
C1167 N212 0.824 . S
C1183 N443 0.824 . S
C1185 N245 0.824 . S
C1201 N872 0.824 . S
C1203 N542 0.824 . S
C1219 N905 0.824 . S
C1221 N575 0.824 . S
C1237 N608 0.824 . S
C1239 N806 0.824 . S
C1255 N839 0.824 . S
C1257 N641 0.824 . S
C1273 N674 0.824 . S
C1275 N1004 0.824 . S
C1291 N1037 0.824 . S
C1293 N707 0.824 . S
C1309 N740 0.824 . S
C1311 N938 0.824 . S
C1327 N773 0.824 . S
C1329 N971 0.824 . S
C1345 C8 1.905 . S
C1347 C833 1.905 . S
C1363 C41 1.905 . S
C1365 C800 1.905 . S
C1381 C74 1.905 . S
C1383 C899 1.905 . S
C1399 C107 1.905 . S
C1401 C866 1.905 . S
C1417 C140 1.905 . S
C1419 C965 1.905 . S
C1435 C173 1.905 . S
C1437 C932 1.905 . S
C1453 C1031 1.905 . S
C1455 C206 1.905 . S
C1471 C239 1.905 . S
C1473 C998 1.905 . S
C1489 C569 1.905 . S
C1491 C272 1.905 . S
C1507 C305 1.905 . S
C1509 C536 1.905 . S
C1525 C338 1.905 . S
C1527 C635 1.905 . S
C1543 C602 1.905 . S
C1545 C371 1.905 . S
C1561 C701 1.905 . S
C1563 C404 1.905 . S
C1579 C668 1.905 . S
C1581 C437 1.905 . S
C1597 C470 1.905 . S
C1599 C767 1.905 . S
C1615 C734 1.905 . S
C1617 C503 1.905 . S
C1633 N71 1.098 . S
C1635 N5 1.098 . S
C1651 N38 1.098 . S
C1653 N104 1.098 . S
C1669 N203 1.098 . S
C1671 N137 1.098 . S
C1687 N170 1.098 . S
C1689 N236 1.098 . S
C1705 N269 1.098 . S
C1707 N335 1.098 . S
C1723 N302 1.098 . S
C1725 N368 1.098 . S
C1741 N467 1.098 . S
C1743 N401 1.098 . S
C1759 N500 1.098 . S
C1761 N434 1.098 . S
C1777 N599 1.098 . S
C1779 N533 1.098 . S
C1795 N566 1.098 . S
C1797 N632 1.098 . S
C1813 N665 1.098 . S
C1815 N731 1.098 . S
C1831 N698 1.098 . S
C1833 N764 1.098 . S
C1849 N863 1.098 . S
C1851 N797 1.098 . S
C1867 N830 1.098 . S
C1869 N896 1.098 . S
C1885 N929 1.098 . S
C1887 N995 1.098 . S
C1903 N1028 1.098 . S
C1905 N962 1.098 . S
C1921 C743 1.922 . S
C1923 C28 1.917 . S
C1939 C512 1.922 1_655 S
C1941 C61 1.917 . S
C1957 C94 1.917 . S
C1959 C941 1.922 . S
C1975 C182 1.922 1_655 S
C1977 C127 1.917 . S
C1993 C160 1.917 . S
C1995 C611 1.922 . S
C2011 C193 1.917 . S
C2013 C380 1.922 1_455 S
C2029 C809 1.922 . S
C2031 C226 1.917 . S
C2047 C259 1.917 . S
C2049 C50 1.922 1_455 S
C2065 C292 1.917 . S
C2067 C1007 1.922 . S
C2083 C248 1.922 1_655 S
C2085 C325 1.917 . S
C2101 C358 1.917 . S
C2103 C677 1.922 . S
C2119 C391 1.917 . S
C2121 C446 1.922 1_655 S
C2137 C875 1.922 . S
C2139 C424 1.917 . S
C2155 C457 1.917 . S
C2157 C116 1.922 1_455 S
C2173 C545 1.922 . S
C2175 C490 1.917 . S
C2191 C314 1.922 1_455 S
C2193 C523 1.917 . S
C2209 C215 1.922 . S
C2211 C556 1.917 . S
C2227 C589 1.917 . S
C2229 C1040 1.922 . S
C2245 C622 1.917 . S
C2247 C413 1.922 . S
C2263 C655 1.917 . S
C2265 C710 1.922 . S
C2281 C688 1.917 . S
C2283 C83 1.922 . S
C2299 C721 1.917 . S
C2301 C908 1.922 . S
C2317 C281 1.922 . S
C2319 C754 1.917 . S
C2335 C578 1.922 . S
C2337 C787 1.917 . S
C2353 C479 1.922 . S
C2355 C820 1.917 . S
C2371 C853 1.917 . S
C2373 C776 1.922 . S
C2389 C149 1.922 . S
C2391 C886 1.917 . S
C2407 C974 1.922 . S
C2409 C919 1.917 . S
C2425 C952 1.917 . S
C2427 C347 1.922 . S
C2443 C985 1.917 . S
C2445 C644 1.922 . S
C2461 C17 1.922 . S
C2463 C1018 1.917 . S
C2479 C1051 1.917 . S
C2481 C842 1.922 . S
