# Generated by pormake.
# Topology wme, (6)-cn, num edge types: 1
# Building blocks:
#     Node 0, Type 0, BuildingBlock: PAMTOO_clean_sbu_0, # of connection points: 6
#     Node 1, Type 0, BuildingBlock: PAMTOO_clean_sbu_0, # of connection points: 6
#     Node 2, Type 0, BuildingBlock: PAMTOO_clean_sbu_0, # of connection points: 6
#     Node 3, Type 0, BuildingBlock: PAMTOO_clean_sbu_0, # of connection points: 6
#     Node 4, Type 0, BuildingBlock: PAMTOO_clean_sbu_0, # of connection points: 6
#     Node 5, Type 0, BuildingBlock: PAMTOO_clean_sbu_0, # of connection points: 6
#     Node 6, Type 0, BuildingBlock: PAMTOO_clean_sbu_0, # of connection points: 6
#     Node 7, Type 0, BuildingBlock: PAMTOO_clean_sbu_0, # of connection points: 6
#     Node 8, Type 0, BuildingBlock: PAMTOO_clean_sbu_0, # of connection points: 6
#     Node 9, Type 0, BuildingBlock: PAMTOO_clean_sbu_0, # of connection points: 6
#     Node 10, Type 0, BuildingBlock: PAMTOO_clean_sbu_0, # of connection points: 6
#     Node 11, Type 0, BuildingBlock: PAMTOO_clean_sbu_0, # of connection points: 6
#     Edge 12, Type (0, 0), BuildingBlock: OJICUG_clean_linker_0, # of connection points: 2
#     Edge 13, Type (0, 0), BuildingBlock: OJICUG_clean_linker_0, # of connection points: 2
#     Edge 14, Type (0, 0), BuildingBlock: OJICUG_clean_linker_0, # of connection points: 2
#     Edge 15, Type (0, 0), BuildingBlock: OJICUG_clean_linker_0, # of connection points: 2
#     Edge 16, Type (0, 0), BuildingBlock: OJICUG_clean_linker_0, # of connection points: 2
#     Edge 17, Type (0, 0), BuildingBlock: OJICUG_clean_linker_0, # of connection points: 2
#     Edge 18, Type (0, 0), BuildingBlock: OJICUG_clean_linker_0, # of connection points: 2
#     Edge 19, Type (0, 0), BuildingBlock: OJICUG_clean_linker_0, # of connection points: 2
#     Edge 20, Type (0, 0), BuildingBlock: OJICUG_clean_linker_0, # of connection points: 2
#     Edge 21, Type (0, 0), BuildingBlock: OJICUG_clean_linker_0, # of connection points: 2
#     Edge 22, Type (0, 0), BuildingBlock: OJICUG_clean_linker_0, # of connection points: 2
#     Edge 23, Type (0, 0), BuildingBlock: OJICUG_clean_linker_0, # of connection points: 2
#     Edge 24, Type (0, 0), BuildingBlock: OJICUG_clean_linker_0, # of connection points: 2
#     Edge 25, Type (0, 0), BuildingBlock: OJICUG_clean_linker_0, # of connection points: 2
#     Edge 26, Type (0, 0), BuildingBlock: OJICUG_clean_linker_0, # of connection points: 2
#     Edge 27, Type (0, 0), BuildingBlock: OJICUG_clean_linker_0, # of connection points: 2
#     Edge 28, Type (0, 0), BuildingBlock: OJICUG_clean_linker_0, # of connection points: 2
#     Edge 29, Type (0, 0), BuildingBlock: OJICUG_clean_linker_0, # of connection points: 2
#     Edge 30, Type (0, 0), BuildingBlock: OJICUG_clean_linker_0, # of connection points: 2
#     Edge 31, Type (0, 0), BuildingBlock: OJICUG_clean_linker_0, # of connection points: 2
#     Edge 32, Type (0, 0), BuildingBlock: OJICUG_clean_linker_0, # of connection points: 2
#     Edge 33, Type (0, 0), BuildingBlock: OJICUG_clean_linker_0, # of connection points: 2
#     Edge 34, Type (0, 0), BuildingBlock: OJICUG_clean_linker_0, # of connection points: 2
#     Edge 35, Type (0, 0), BuildingBlock: OJICUG_clean_linker_0, # of connection points: 2
#     Edge 36, Type (0, 0), BuildingBlock: OJICUG_clean_linker_0, # of connection points: 2
#     Edge 37, Type (0, 0), BuildingBlock: OJICUG_clean_linker_0, # of connection points: 2
#     Edge 38, Type (0, 0), BuildingBlock: OJICUG_clean_linker_0, # of connection points: 2
#     Edge 39, Type (0, 0), BuildingBlock: OJICUG_clean_linker_0, # of connection points: 2
#     Edge 40, Type (0, 0), BuildingBlock: OJICUG_clean_linker_0, # of connection points: 2
#     Edge 41, Type (0, 0), BuildingBlock: OJICUG_clean_linker_0, # of connection points: 2
#     Edge 42, Type (0, 0), BuildingBlock: OJICUG_clean_linker_0, # of connection points: 2
#     Edge 43, Type (0, 0), BuildingBlock: OJICUG_clean_linker_0, # of connection points: 2
#     Edge 44, Type (0, 0), BuildingBlock: OJICUG_clean_linker_0, # of connection points: 2
#     Edge 45, Type (0, 0), BuildingBlock: OJICUG_clean_linker_0, # of connection points: 2
#     Edge 46, Type (0, 0), BuildingBlock: OJICUG_clean_linker_0, # of connection points: 2
#     Edge 47, Type (0, 0), BuildingBlock: OJICUG_clean_linker_0, # of connection points: 2
# Relax obj value: 0.096
# Max RMSD: 0.224
# Mean RMSD: 0.224
data_MOF--net-wme--node1-PAMTOO_clean_sbu_0--edge1-OJICUG_clean_linker_0
_symmetry_space_group_name_H-M    P1
_symmetry_Int_Tables_number       1
_symmetry_cell_setting            triclinic
loop_
_symmetry_equiv_pos_as_xyz
'x, y, z'
_cell_length_a     31.585512
_cell_length_b     31.739194
_cell_length_c     38.265512
_cell_angle_alpha  90.27139
_cell_angle_beta   89.74884
_cell_angle_gamma 120.07674
loop_
_atom_site_label
_atom_site_type_symbol
_atom_site_fract_x
_atom_site_fract_y
_atom_site_fract_z
_atom_type_partial_charge
Dy0 Dy 0.28631 0.32571 0.13986 0.0
Dy1 Dy 0.25327 0.39483 0.09523 0.0
C2 C 0.28689 0.32544 0.05747 0.0
O3 O 0.3511 0.40239 0.1418 0.0
O4 O 0.33377 0.42673 0.08997 0.0
O5 O 0.33183 0.29339 0.14718 0.0
O6 O 0.26699 0.26977 0.1789 0.0
O7 O 0.26316 0.42321 0.15025 0.0
O8 O 0.27542 0.36767 0.18146 0.0
O9 O 0.1883 0.34023 0.12472 0.0
O10 O 0.20823 0.28085 0.12163 0.0
O11 O 0.19951 0.40336 0.06545 0.0
O12 O 0.27199 0.46488 0.07409 0.0
C13 C 0.36417 0.43313 0.11539 0.0
O14 O 0.31077 0.32794 0.08583 0.0
O15 O 0.25483 0.34069 0.05686 0.0
C16 C 0.2846 0.20926 0.16026 0.0
C17 C 0.24955 0.10979 0.14423 0.0
C18 C 0.25158 0.14222 0.11837 0.0
C19 C 0.26872 0.19131 0.12633 0.0
C20 C 0.28262 0.17719 0.18616 0.0
C21 C 0.26528 0.12798 0.17827 0.0
C22 C 0.30122 0.26071 0.16901 0.0
C23 C 0.26957 0.40573 0.17969 0.0
C24 C 0.17522 0.29413 0.12557 0.0
C25 C 0.20727 0.4818 0.07198 0.0
C26 C 0.17915 0.55191 0.08751 0.0
C27 C 0.19761 0.53457 0.1138 0.0
C28 C 0.21139 0.49984 0.10615 0.0
C29 C 0.18688 0.49732 0.04604 0.0
C30 C 0.17276 0.53186 0.05373 0.0
C31 C 0.22799 0.45041 0.06254 0.0
H32 H 0.23916 0.12951 0.09204 0.0
H33 H 0.26926 0.21524 0.106 0.0
H34 H 0.29436 0.19016 0.21257 0.0
H35 H 0.26477 0.10433 0.19876 0.0
H36 H 0.20248 0.54873 0.14019 0.0
H37 H 0.2268 0.4883 0.12669 0.0
H38 H 0.18349 0.48402 0.01948 0.0
H39 H 0.15911 0.54461 0.03278 0.0
Dy40 Dy 0.96829 0.25612 0.62742 0.0
Dy41 Dy 0.86234 0.20924 0.58661 0.0
C42 C 0.96359 0.24487 0.54698 0.0
O43 O 0.96089 0.32013 0.60869 0.0
O44 O 0.87694 0.28162 0.60497 0.0
O45 O 0.04661 0.30428 0.62635 0.0
O46 O 1.01273 0.25593 0.67027 0.0
O47 O 0.84743 0.20163 0.6445 0.0
O48 O 0.92013 0.26356 0.66603 0.0
O49 O 0.8838 0.15233 0.58688 0.0
O50 O 0.92611 0.17548 0.63802 0.0
O51 O 0.79181 0.14573 0.57705 0.0
O52 O 0.81161 0.21332 0.55074 0.0
C53 C 0.91978 0.32155 0.60632 0.0
O54 O 0.97636 0.2311 0.57509 0.0
O55 O 0.92261 0.24627 0.54666 0.0
C56 C 0.08692 0.26496 0.64916 0.0
C57 C 0.15017 0.227 0.63908 0.0
C58 C 0.11141 0.21515 0.61585 0.0
C59 C 0.07994 0.23362 0.621 0.0
C60 C 0.12509 0.27642 0.67275 0.0
C61 C 0.15638 0.25741 0.66784 0.0
C62 C 0.05359 0.28451 0.65398 0.0
C63 C 0.87349 0.23181 0.66985 0.0
C64 C 0.89973 0.14146 0.61503 0.0
C65 C 0.72833 0.16216 0.56603 0.0
C66 C 0.63465 0.1478 0.5828 0.0
C67 C 0.67442 0.17335 0.60573 0.0
C68 C 0.72077 0.18044 0.59744 0.0
C69 C 0.6888 0.13606 0.54333 0.0
C70 C 0.64238 0.12889 0.5516 0.0
C71 C 0.77683 0.16891 0.55723 0.0
H72 H 0.10519 0.19127 0.59376 0.0
H73 H 0.05009 0.22341 0.60292 0.0
H74 H 0.1308 0.30016 0.69483 0.0
H75 H 0.18605 0.26734 0.6861 0.0
H76 H 0.66973 0.18789 0.63017 0.0
H77 H 0.75075 0.20024 0.6155 0.0
H78 H 0.6939 0.12143 0.51905 0.0
H79 H 0.61285 0.10961 0.53314 0.0
Dy80 Dy 0.75568 0.96592 0.12943 0.0
Dy81 Dy 0.69261 0.85636 0.09391 0.0
C82 C 0.75516 0.95328 0.04933 0.0
O83 O 0.68365 0.9578 0.11063 0.0
O84 O 0.63661 0.87416 0.11172 0.0
O85 O 0.78788 0.04388 0.12464 0.0
O86 O 0.80097 1.01323 0.17101 0.0
O87 O 0.6909 0.84792 0.15227 0.0
O88 O 0.70143 0.92189 0.1698 0.0
O89 O 0.77144 0.87958 0.08984 0.0
O90 O 0.795 0.92442 0.13985 0.0
O91 O 0.68779 0.78664 0.08608 0.0
O92 O 0.63316 0.80041 0.0634 0.0
C93 C 0.64051 0.91725 0.11039 0.0
O94 O 0.7843 0.96899 0.07623 0.0
O95 O 0.71283 0.91234 0.05133 0.0
C96 C 0.86654 0.0868 0.14979 0.0
C97 C 0.96821 0.15269 0.14311 0.0
C98 C 0.9454 0.10929 0.12343 0.0
C99 C 0.89507 0.07669 0.12675 0.0
C100 C 0.88907 0.12959 0.16976 0.0
C101 C 0.93937 0.16221 0.16649 0.0
C102 C 0.81348 0.05276 0.15322 0.0
C103 C 0.68751 0.87624 0.17612 0.0
C104 C 0.80095 0.89719 0.11659 0.0
C105 C 0.60848 0.71864 0.07974 0.0
C106 C 0.53635 0.62231 0.09773 0.0
C107 C 0.53533 0.66259 0.11247 0.0
C108 C 0.57109 0.71037 0.10355 0.0
C109 C 0.61032 0.67866 0.06584 0.0
C110 C 0.57478 0.63111 0.0747 0.0
C111 C 0.64653 0.76822 0.06923 0.0
H112 H 0.96622 0.10095 0.10493 0.0
H113 H 0.87832 0.0437 0.11115 0.0
H114 H 0.86775 0.13785 0.18788 0.0
H115 H 0.95572 0.19481 0.18247 0.0
H116 H 0.50606 0.6572 0.13003 0.0
H117 H 0.56922 0.74073 0.1149 0.0
H118 H 0.63921 0.6842 0.0478 0.0
H119 H 0.5772 0.60112 0.06325 0.0
Dy120 Dy 0.80088 0.72651 0.63397 0.0
Dy121 Dy 0.84707 0.66627 0.59243 0.0
C122 C 0.80988 0.73061 0.55327 0.0
O123 O 0.73634 0.65533 0.6151 0.0
O124 O 0.77449 0.60982 0.61181 0.0
O125 O 0.75372 0.7578 0.63288 0.0
O126 O 0.80081 0.77028 0.6774 0.0
O127 O 0.85785 0.66355 0.65043 0.0
O128 O 0.79456 0.67191 0.67226 0.0
O129 O 0.90295 0.74482 0.59003 0.0
O130 O 0.88258 0.76611 0.64174 0.0
O131 O 0.90999 0.65746 0.58408 0.0
O132 O 0.84235 0.61085 0.55673 0.0
C133 C 0.7346 0.61286 0.61276 0.0
O134 O 0.82347 0.75752 0.58134 0.0
O135 O 0.81049 0.68936 0.55204 0.0
C136 C 0.79269 0.83685 0.65753 0.0
C137 C 0.82947 0.9374 0.64539 0.0
C138 C 0.86111 0.92032 0.65506 0.0
C139 C 0.843 0.87059 0.66085 0.0
C140 C 0.76094 0.85399 0.64862 0.0
C141 C 0.77909 0.90364 0.64254 0.0
C142 C 0.77338 0.78374 0.66098 0.0
C143 C 0.82794 0.65936 0.67612 0.0
C144 C 0.91515 0.7733 0.61748 0.0
C145 C 0.89221 0.57637 0.57243 0.0
C146 C 0.90568 0.4958 0.58636 0.0
C147 C 0.9446 0.54389 0.59017 0.0
C148 C 0.93796 0.58359 0.58322 0.0
C149 C 0.85342 0.52836 0.56828 0.0
C150 C 0.86008 0.48872 0.57511 0.0
C151 C 0.88612 0.61897 0.56438 0.0
H152 H 0.90012 0.94521 0.65714 0.0
H153 H 0.8686 0.85851 0.66725 0.0
H154 H 0.72209 0.82878 0.64577 0.0
H155 H 0.75362 0.91562 0.63553 0.0
H156 H 0.98011 0.55097 0.59897 0.0
H157 H 0.96878 0.6201 0.5863 0.0
H158 H 0.81786 0.52124 0.55956 0.0
H159 H 0.82943 0.45237 0.57107 0.0
Dy160 Dy 0.11476 0.79155 0.12298 0.0
Dy161 Dy 0.22167 0.83718 0.08413 0.0
C162 C 0.12264 0.80443 0.04347 0.0
O163 O 0.12227 0.72744 0.10417 0.0
O164 O 0.20619 0.76539 0.10428 0.0
O165 O 1.03644 0.74459 0.11967 0.0
O166 O 0.06851 0.79007 0.16541 0.0
O167 O 0.23452 0.84715 0.14227 0.0
O168 O 0.16141 0.78479 0.16267 0.0
O169 O 0.20273 0.89623 0.08474 0.0
O170 O 0.15665 0.87201 0.1345 0.0
O171 O 0.2928 0.90009 0.07438 0.0
O172 O 0.2732 0.83123 0.04977 0.0
C173 C 0.16321 0.72556 0.10395 0.0
O174 O 0.11124 0.82029 0.07129 0.0
O175 O 0.16152 0.79937 0.04383 0.0
C176 C 0.99599 0.78369 0.14362 0.0
C177 C 0.93632 0.82609 0.13618 0.0
C178 C 0.96954 0.83097 0.10974 0.0
C179 C 0.99914 0.81018 0.11347 0.0
C180 C 0.96338 0.77915 0.17031 0.0
C181 C 0.93381 0.80022 0.16667 0.0
C182 C 1.02847 0.76311 0.14782 0.0
C183 C 0.20731 0.81787 0.16762 0.0
C184 C 0.18482 0.90651 0.1124 0.0
C185 C 0.35738 0.88339 0.06555 0.0
C186 C 0.45191 0.90008 0.08333 0.0
C187 C 0.41279 0.85257 0.07701 0.0
C188 C 0.36618 0.84431 0.06833 0.0
C189 C 0.39645 0.9309 0.07133 0.0
C190 C 0.44307 0.93917 0.08019 0.0
C191 C 0.30827 0.87561 0.05621 0.0
H192 H 0.97295 0.85124 0.08618 0.0
H193 H 1.02464 0.81496 0.09275 0.0
H194 H 0.9608 0.75933 0.19395 0.0
H195 H 0.90835 0.7955 0.1874 0.0
H196 H 0.41821 0.82153 0.07836 0.0
H197 H 0.33715 0.80726 0.06377 0.0
H198 H 0.39088 0.9618 0.06915 0.0
H199 H 0.47196 0.97617 0.08507 0.0
Dy200 Dy 0.33418 0.09218 0.62368 0.0
Dy201 Dy 0.3952 0.199 0.58557 0.0
C202 C 0.33002 0.1009 0.54386 0.0
O203 O 0.40565 0.09949 0.6043 0.0
O204 O 0.45207 0.18304 0.60381 0.0
O205 O 0.30348 1.0143 0.62056 0.0
O206 O 0.28906 0.04638 0.66593 0.0
O207 O 0.39938 0.21109 0.64387 0.0
O208 O 0.38924 0.13804 0.66287 0.0
O209 O 0.31644 0.17769 0.58502 0.0
O210 O 0.29612 0.1345 0.63567 0.0
O211 O 0.40167 0.26912 0.57672 0.0
O212 O 0.45247 0.25153 0.55181 0.0
C213 C 0.44862 0.14011 0.6033 0.0
O214 O 0.30236 0.08793 0.57158 0.0
O215 O 0.37363 0.14016 0.5446 0.0
C216 C 0.22368 0.97321 0.64428 0.0
C217 C 0.12161 0.91161 0.63658 0.0
C218 C 0.14939 0.94494 0.61022 0.0
C219 C 0.1998 0.97552 0.61409 0.0
C220 C 0.19616 0.94044 0.67085 0.0
C221 C 0.14552 0.90992 0.66708 0.0
C222 C 0.27673 1.0064 0.64858 0.0
C223 C 0.40266 0.18378 0.66843 0.0
C224 C 0.28876 0.16102 0.6129 0.0
C225 C 0.48208 0.3336 0.56864 0.0
C226 C 0.55882 0.42679 0.58858 0.0
C227 C 0.54506 0.38589 0.61002 0.0
C228 C 0.50708 0.33979 0.60015 0.0
C229 C 0.49497 0.37423 0.54745 0.0
C230 C 0.53295 0.42039 0.55729 0.0
C231 C 0.44153 0.2854 0.55823 0.0
H232 H 0.13206 0.94769 0.58666 0.0
H233 H 0.22012 1.00109 0.59346 0.0
H234 H 0.21384 0.93846 0.69448 0.0
H235 H 0.12523 0.8844 0.68774 0.0
H236 H 0.56369 0.38948 0.63449 0.0
H237 H 0.49723 0.30894 0.6171 0.0
H238 H 0.47582 0.3702 0.52313 0.0
H239 H 0.54286 0.45081 0.53993 0.0
Dy240 Dy 0.74009 0.79604 0.36235 0.0
Dy241 Dy 0.68096 0.84447 0.4023 0.0
C242 C 0.74421 0.80693 0.44255 0.0
O243 O 0.66843 0.73285 0.38206 0.0
O244 O 0.62356 0.77177 0.38371 0.0
O245 O 0.76984 0.74787 0.36358 0.0
O246 O 0.7841 0.7952 0.31913 0.0
O247 O 0.67881 0.85409 0.34414 0.0
O248 O 0.68468 0.78886 0.32431 0.0
O249 O 0.76002 0.90064 0.40317 0.0
O250 O 0.78091 0.87697 0.35268 0.0
O251 O 0.6235 0.84031 0.43591 0.0
O252 O 0.67461 0.90833 0.41128 0.0
C253 C 0.62599 0.73168 0.38388 0.0
O254 O 0.77161 0.82076 0.41469 0.0
O255 O 0.70297 0.80792 0.44335 0.0
C256 C 0.84949 0.78669 0.3397 0.0
C257 C 0.95152 0.82634 0.3475 0.0
C258 C 0.92437 0.83518 0.37273 0.0
C259 C 0.87401 0.81578 0.36878 0.0
C260 C 0.87639 0.77818 0.31419 0.0
C261 C 0.92704 0.79795 0.318 0.0
C262 C 0.7964 0.76704 0.33559 0.0
C263 C 0.67392 0.82315 0.31917 0.0
C264 C 0.78826 0.91104 0.37559 0.0
C265 C 0.59408 0.89305 0.41934 0.0
C266 C 0.51713 0.90974 0.39993 0.0
C267 C 0.53327 0.8856 0.37709 0.0
C268 C 0.5713 0.87736 0.38669 0.0
C269 C 0.57877 0.91775 0.44198 0.0
C270 C 0.54074 0.92604 0.43241 0.0
C271 C 0.6346 0.88509 0.42963 0.0
H272 H 0.94217 0.85748 0.39546 0.0
H273 H 0.8542 0.82362 0.3885 0.0
H274 H 0.85824 0.75624 0.29138 0.0
H275 H 0.94688 0.79024 0.29821 0.0
H276 H 0.5165 0.87305 0.3517 0.0
H277 H 0.58292 0.85868 0.36865 0.0
H278 H 0.59607 0.93039 0.46722 0.0
H279 H 0.52901 0.94413 0.45086 0.0
Dy280 Dy 0.97506 0.71985 0.86168 0.0
Dy281 Dy 0.86842 0.65867 0.9013 0.0
C282 C 0.96796 0.72494 0.94155 0.0
O283 O 0.96783 0.64838 0.87977 0.0
O284 O 0.88392 0.60286 0.87988 0.0
O285 O 0.05346 0.75117 0.86417 0.0
O286 O 1.02054 0.7647 0.8192 0.0
O287 O 0.85483 0.65598 0.84331 0.0
O288 O 0.92773 0.66702 0.82171 0.0
O289 O 0.88784 0.73662 0.90199 0.0
O290 O 0.93289 0.75843 0.85172 0.0
O291 O 0.79705 0.64993 0.91145 0.0
O292 O 0.81748 0.60129 0.93568 0.0
C293 C 0.92682 0.60578 0.87986 0.0
O294 O 0.97956 0.75202 0.9138 0.0
O295 O 0.92899 0.68113 0.94124 0.0
C296 C 0.0931 0.83076 0.841 0.0
C297 C 0.15221 0.93267 0.84944 0.0
C298 C 0.11832 0.90418 0.87538 0.0
C299 C 0.08901 0.85387 0.87116 0.0
C300 C 0.12636 0.85896 0.81479 0.0
C301 C 0.15566 0.90954 0.81893 0.0
C302 C 0.06089 0.77778 0.83635 0.0
C303 C 0.88162 0.65399 0.81744 0.0
C304 C 0.90541 0.76492 0.87455 0.0
C305 C 0.73294 0.56848 0.9204 0.0
C306 C 0.6383 0.48968 0.90383 0.0
C307 C 0.64783 0.538 0.90348 0.0
C308 C 0.69447 0.57682 0.91174 0.0
C309 C 0.72336 0.5202 0.92114 0.0
C310 C 0.67674 0.48142 0.91302 0.0
C311 C 0.78204 0.61018 0.92949 0.0
H312 H 0.11416 0.92086 0.89893 0.0
H313 H 0.06301 0.83304 0.8915 0.0
H314 H 0.12966 0.84189 0.79115 0.0
H315 H 0.18164 0.93039 0.79858 0.0
H316 H 0.61946 0.54598 0.89634 0.0
H317 H 0.70049 0.61355 0.91127 0.0
H318 H 0.75179 0.51222 0.92812 0.0
H319 H 0.67074 0.44475 0.91438 0.0
Dy320 Dy 0.27227 0.96517 0.35582 0.0
Dy321 Dy 0.22769 0.85812 0.39315 0.0
C322 C 0.25981 0.95514 0.43598 0.0
O323 O 0.33754 0.95922 0.37438 0.0
O324 O 0.30119 0.87574 0.37459 0.0
O325 O 0.317 0.04343 0.35972 0.0
O326 O 0.27286 1.01052 0.3136 0.0
O327 O 0.22006 0.84662 0.33491 0.0
O328 O 0.28213 0.92049 0.31576 0.0
O329 O 0.16996 0.87865 0.39562 0.0
O330 O 0.19133 0.92192 0.34506 0.0
O331 O 0.16386 0.78745 0.40135 0.0
O332 O 0.23248 0.80514 0.42583 0.0
C333 C 0.3405 0.91903 0.37519 0.0
O334 O 0.2455 0.96882 0.4086 0.0
O335 O 0.26445 0.91623 0.43463 0.0
C336 C 0.27866 0.08327 0.33428 0.0
C337 C 0.24109 0.14723 0.34152 0.0
C338 C 0.22228 0.10472 0.36185 0.0
C339 C 0.2409 0.07305 0.35825 0.0
C340 C 0.29662 0.12481 0.31331 0.0
C341 C 0.27803 0.15645 0.31684 0.0
C342 C 0.29927 0.05073 0.33108 0.0
C343 C 0.25067 0.87435 0.31033 0.0
C344 C 0.158 0.89513 0.36834 0.0
C345 C 0.18032 0.72342 0.4075 0.0
C346 C 0.16453 0.63139 0.38558 0.0
C347 C 0.20134 0.6745 0.36999 0.0
C348 C 0.20904 0.72006 0.38075 0.0
C349 C 0.14292 0.68061 0.42256 0.0
C350 C 0.13502 0.63501 0.4117 0.0
C351 C 0.18768 0.77105 0.41904 0.0
H352 H 0.19419 0.09663 0.38126 0.0
H353 H 0.22627 0.04089 0.37453 0.0
H354 H 0.32532 0.13301 0.29438 0.0
H355 H 0.29279 0.18835 0.3003 0.0
H356 H 0.22442 0.673 0.34958 0.0
H357 H 0.23757 0.75266 0.36834 0.0
H358 H 0.12004 0.68246 0.443 0.0
H359 H 0.10682 0.60269 0.42456 0.0
Dy360 Dy 0.33389 0.25275 0.8586 0.0
Dy361 Dy 0.39442 0.20489 0.89457 0.0
C362 C 0.3326 0.24109 0.93885 0.0
O363 O 0.40619 0.31624 0.8775 0.0
O364 O 0.45183 0.27806 0.87727 0.0
O365 O 0.30193 0.29896 0.86304 0.0
O366 O 0.29009 0.2554 0.8164 0.0
O367 O 0.39627 0.19736 0.83612 0.0
O368 O 0.38848 0.26216 0.81868 0.0
O369 O 0.31535 0.15047 0.89847 0.0
O370 O 0.29388 0.17192 0.84791 0.0
O371 O 0.3991 0.13982 0.90103 0.0
O372 O 0.45177 0.20676 0.92653 0.0
C373 C 0.44891 0.31785 0.87828 0.0
O374 O 0.30411 0.22852 0.91163 0.0
O375 O 0.37439 0.24123 0.93725 0.0
C376 C 0.22256 0.26167 0.83805 0.0
C377 C 0.12066 0.22426 0.84685 0.0
C378 C 0.15501 0.26804 0.86315 0.0
C379 C 0.20524 0.28656 0.85869 0.0
C380 C 0.18831 0.21771 0.82186 0.0
C381 C 0.13795 0.19921 0.82625 0.0
C382 C 0.27608 0.28117 0.83462 0.0
C383 C 0.40077 0.22917 0.81221 0.0
C384 C 0.28663 0.13875 0.8713 0.0
C385 C 0.479 0.15337 0.90671 0.0
C386 C 0.55378 0.13546 0.88363 0.0
C387 C 0.54513 0.16955 0.86635 0.0
C388 C 0.50801 0.17831 0.87772 0.0
C389 C 0.48671 0.11864 0.92354 0.0
C390 C 0.52369 0.10971 0.91212 0.0
C391 C 0.43958 0.16194 0.91887 0.0
H392 H 0.14309 0.28796 0.87964 0.0
H393 H 0.23063 0.32031 0.87165 0.0
H394 H 0.20027 0.19745 0.80577 0.0
H395 H 0.11259 0.16575 0.81299 0.0
H396 H 0.56729 0.18969 0.84413 0.0
H397 H 0.5021 0.20473 0.86403 0.0
H398 H 0.46437 0.0987 0.94577 0.0
H399 H 0.52972 0.08374 0.92632 0.0
Dy400 Dy 0.10733 0.32979 0.35441 0.0
Dy401 Dy 0.21052 0.39204 0.3991 0.0
C402 C 0.10597 0.33268 0.43527 0.0
O403 O 0.12092 0.40653 0.35104 0.0
O404 O 0.18135 0.44239 0.39334 0.0
O405 O 1.0283 0.29498 0.3531 0.0
O406 O 0.06685 0.28082 0.31206 0.0
O407 O 0.23223 0.42117 0.34466 0.0
O408 O 0.16156 0.3712 0.31317 0.0
O409 O 0.21625 0.33645 0.36777 0.0
O410 O 0.13571 0.28013 0.37087 0.0
O411 O 0.27794 0.39819 0.41829 0.0
O412 O 0.25725 0.45074 0.43407 0.0
C413 C 0.15059 0.44386 0.371 0.0
O414 O 0.08998 0.34339 0.40742 0.0
O415 O 0.15063 0.33924 0.43568 0.0
C416 C 0.99092 0.21436 0.33143 0.0
C417 C 0.92649 0.11422 0.34506 0.0
C418 C 0.90947 0.14759 0.34544 0.0
C419 C 0.94129 0.19702 0.3386 0.0
C420 C 1.00802 0.18103 0.33069 0.0
C421 C 0.97606 0.13146 0.3372 0.0
C422 C 1.02452 0.26735 0.3266 0.0
C423 C 0.2074 0.40636 0.31518 0.0
C424 C 0.18135 0.29113 0.36615 0.0
C425 C 0.34244 0.48068 0.42545 0.0
C426 C 0.43754 0.55904 0.40966 0.0
C427 C 0.42543 0.51059 0.40322 0.0
C428 C 0.37841 0.47185 0.41099 0.0
C429 C 0.35515 0.52903 0.4328 0.0
C430 C 0.40188 0.56758 0.42495 0.0
C431 C 0.29211 0.4401 0.43334 0.0
H432 H 0.8714 0.13544 0.35098 0.0
H433 H 0.92721 0.2219 0.33938 0.0
H434 H 0.04622 0.19331 0.3256 0.0
H435 H 0.99043 0.10683 0.33701 0.0
H436 H 0.45191 0.50265 0.39146 0.0
H437 H 0.37016 0.43502 0.40539 0.0
H438 H 0.32882 0.53725 0.44452 0.0
H439 H 0.41015 0.60429 0.43105 0.0
Dy440 Dy 0.80125 0.08118 0.85196 0.0
Dy441 Dy 0.83995 0.18631 0.89353 0.0
C442 C 0.79927 0.08475 0.93284 0.0
O443 O 0.73691 0.09326 0.84736 0.0
O444 O 0.7593 0.15275 0.89008 0.0
O445 O 0.75642 1.00279 0.84975 0.0
O446 O 0.81462 0.04054 0.81211 0.0
O447 O 0.83082 0.20396 0.83826 0.0
O448 O 0.81242 0.13222 0.8093 0.0
O449 O 0.90112 0.19154 0.86206 0.0
O450 O 0.87985 0.11265 0.86911 0.0
O451 O 0.90077 0.25378 0.91321 0.0
O452 O 0.8265 0.23516 0.9249 0.0
C453 C 0.72771 0.12172 0.86749 0.0
O454 O 0.77222 0.06535 0.90538 0.0
O455 O 0.83593 0.13005 0.93194 0.0
C456 C 0.80185 0.96531 0.83294 0.0
C457 C 0.83949 0.90279 0.84679 0.0
C458 C 0.84064 0.93512 0.87259 0.0
C459 C 0.82221 0.96619 0.86568 0.0
C460 C 0.80084 0.9334 0.80706 0.0
C461 C 0.81952 0.90247 0.81387 0.0
C462 C 0.78305 0.99853 0.82538 0.0
C463 C 0.82137 0.17733 0.80965 0.0
C464 C 0.91346 0.15808 0.86299 0.0
C465 C 0.88409 0.31947 0.91694 0.0
C466 C 0.90551 0.41558 0.90094 0.0
C467 C 0.94251 0.40322 0.89983 0.0
C468 C 0.93192 0.35569 0.90773 0.0
C469 C 0.84749 0.33226 0.91874 0.0
C470 C 0.85801 0.37949 0.91082 0.0
C471 C 0.87243 0.26908 0.92584 0.0
H472 H 0.85632 0.93683 0.89803 0.0
H473 H 0.82398 0.99103 0.88592 0.0
H474 H 0.78557 0.93239 0.78156 0.0
H475 H 0.81761 0.87774 0.79353 0.0
H476 H 0.97947 0.43004 0.89234 0.0
H477 H 0.96118 0.34732 0.90656 0.0
H478 H 0.81048 0.30577 0.9264 0.0
H479 H 0.82878 0.38784 0.91282 0.0
C480 C 0.22845 0.99528 0.09608 0.0
C481 C 0.19909 0.95814 0.1198 0.0
H482 H 0.26765 0.07175 0.08521 0.0
C483 C 0.18555 0.97122 0.15135 0.0
H484 H 0.23981 0.98674 0.07159 0.0
C485 C 0.20163 1.02019 0.15919 0.0
C486 C 0.23148 0.05741 0.13564 0.0
H487 H 0.16303 0.9437 0.17029 0.0
H488 H 0.19042 0.02885 0.1837 0.0
C489 C 0.24432 0.04418 0.10385 0.0
C490 C 0.23668 0.19495 0.59244 0.0
C491 C 0.25123 0.1752 0.61952 0.0
H492 H 0.19361 0.22671 0.57744 0.0
C493 C 0.23159 0.17177 0.65315 0.0
H494 H 0.25112 0.1982 0.56624 0.0
C495 C 0.1989 0.18869 0.65966 0.0
C496 C 0.18461 0.20865 0.63254 0.0
H497 H 0.24227 0.15702 0.67463 0.0
H498 H 0.18459 0.18591 0.68584 0.0
C499 C 0.20359 0.21118 0.59883 0.0
C500 C 1.03821 0.23873 0.13843 0.0
C501 C 1.0215 0.18851 0.13871 0.0
H502 H 0.09909 0.31093 0.13405 0.0
C503 C 0.05604 0.17312 0.13452 0.0
H504 H 1.01275 0.25201 0.14098 0.0
C505 C 0.10598 0.20716 0.13031 0.0
C506 C 0.1225 0.25737 0.13007 0.0
H507 H 0.04459 0.13475 0.13493 0.0
H508 H 0.13158 0.19411 0.12729 0.0
C509 C 0.0879 0.27261 0.13419 0.0
C510 C 0.88465 0.0269 0.65853 0.0
C511 C 0.84893 0.98993 0.63728 0.0
H512 H 0.92871 0.10366 0.66833 0.0
C513 C 0.83175 1.00346 0.60802 0.0
H514 H 0.89852 1.01773 0.68136 0.0
C515 C 0.84923 0.05254 0.60043 0.0
C516 C 0.88417 0.08958 0.62203 0.0
H517 H 0.80485 0.97601 0.59079 0.0
H518 H 0.83463 0.06134 0.57784 0.0
C519 C 0.90189 0.07616 0.65109 0.0
C520 C 0.88033 0.84126 0.09888 0.0
C521 C 0.90338 0.84653 0.13122 0.0
H522 H 0.83056 0.85335 0.0689 0.0
C523 C 0.8942 0.87081 0.15851 0.0
H524 H 0.88611 0.82232 0.07742 0.0
C525 C 0.86223 0.88892 0.15359 0.0
C526 C 0.83843 0.88261 0.12139 0.0
H527 H 0.91177 0.87586 0.18365 0.0
H528 H 0.85529 0.90678 0.17522 0.0
C529 C 0.84825 0.85894 0.09405 0.0
C530 C 1.00074 0.82159 0.5946 0.0
C531 C 0.96722 0.81128 0.62206 0.0
H532 H 0.07535 0.8607 0.57778 0.0
C533 C 0.98465 0.83539 0.65422 0.0
H534 H 0.98869 0.80371 0.56947 0.0
C535 C 1.0347 0.86816 0.65902 0.0
C536 C 0.06823 0.87784 0.63164 0.0
H537 H 0.95985 0.8282 0.67593 0.0
H538 H 0.04714 0.88598 0.68413 0.0
C539 C 0.05051 0.85449 0.59931 0.0
C540 C 0.07224 0.85925 0.39071 0.0
C541 C 0.10585 0.88043 0.36309 0.0
H542 H 0.99759 0.8255 0.40736 0.0
C543 C 0.08849 0.88469 0.33026 0.0
H544 H 0.08429 0.85533 0.41633 0.0
C545 C 1.03843 0.86716 0.32505 0.0
C546 C 1.00485 0.84562 0.35268 0.0
H547 H 0.11337 0.9006 0.3084 0.0
H548 H 1.02603 0.87065 0.29945 0.0
C549 C 1.02248 0.84228 0.38561 0.0
C550 C 0.20684 1.00356 0.88769 0.0
C551 C 0.18484 0.98597 0.85497 0.0
H552 H 0.25553 0.06516 0.9185 0.0
C553 C 0.19478 1.01955 0.82787 0.0
H554 H 0.20046 0.97874 0.90903 0.0
C555 C 0.22648 0.06953 0.83335 0.0
C556 C 0.24925 0.08681 0.86593 0.0
H557 H 0.17802 1.00719 0.80245 0.0
H558 H 0.23404 0.09442 0.81185 0.0
C559 C 0.23863 0.05322 0.89307 0.0
C560 C 0.24448 0.26764 0.35343 0.0
C561 C 0.19507 0.25324 0.35957 0.0
H562 H 0.29744 0.24604 0.34346 0.0
C563 C 0.1603 0.20323 0.35936 0.0
H564 H 0.27248 0.30576 0.35341 0.0
C565 C 0.17489 0.16858 0.35339 0.0
C566 C 0.22447 0.18328 0.34727 0.0
H567 H 0.12196 0.19087 0.36389 0.0
H568 H 0.14733 0.13032 0.35326 0.0
C569 C 0.2589 0.23328 0.3474 0.0
C570 C 1.033 0.15614 0.85497 0.0
C571 C 0.06717 0.20604 0.85052 0.0
H572 H 0.95749 0.10151 0.86262 0.0
C573 C 0.04994 0.23909 0.84962 0.0
H574 H 0.04508 0.1297 0.85594 0.0
C575 C 1.00026 0.22308 0.85352 0.0
C576 C 0.96601 0.17342 0.85843 0.0
H577 H 0.07489 0.27757 0.84555 0.0
H578 H 0.98884 0.25005 0.85274 0.0
C579 C 0.98288 0.13998 0.85897 0.0
C580 C 0.86001 0.04906 0.38183 0.0
C581 C 0.89274 0.06192 0.35357 0.0
H582 H 0.80222 0.99187 0.4112 0.0
C583 C 0.89243 1.02451 0.33348 0.0
H584 H 0.85976 0.0769 0.39816 0.0
C585 C 0.85922 0.97544 0.34091 0.0
C586 C 0.82596 0.96268 0.36888 0.0
H587 H 0.91705 0.03319 0.31144 0.0
H588 H 0.85925 0.94757 0.32448 0.0
C589 C 0.82725 1.00016 0.38948 0.0
C590 C 0.90241 0.82766 0.83629 0.0
C591 C 0.89125 0.80241 0.86819 0.0
H592 H 0.89508 0.87914 0.80454 0.0
C593 C 0.86418 0.81155 0.89333 0.0
H594 H 0.92313 0.82153 0.8163 0.0
C595 C 0.84805 0.84452 0.88655 0.0
C596 C 0.85831 0.86904 0.85438 0.0
H597 H 0.85479 0.79274 0.91816 0.0
H598 H 0.82645 0.84988 0.90624 0.0
C599 C 0.88599 0.86043 0.82942 0.0
C600 C 0.12616 0.63729 0.08548 0.0
C601 C 0.1627 0.67842 0.10307 0.0
H602 H 0.10269 0.56495 0.06643 0.0
C603 C 0.20243 0.67606 0.11736 0.0
H604 H 0.09532 0.63811 0.07395 0.0
C605 C 0.20648 0.63444 0.11334 0.0
C606 C 0.17123 0.59393 0.09451 0.0
H607 H 0.23122 0.70703 0.13113 0.0
H608 H 0.23849 0.63486 0.12381 0.0
C609 C 0.13064 0.59561 0.08093 0.0
C610 C 0.54184 0.10048 0.58304 0.0
C611 C 0.58622 0.1435 0.59043 0.0
H612 H 0.46322 0.06509 0.5818 0.0
C613 C 0.58423 0.18365 0.60401 0.0
H614 H 0.54203 0.06869 0.57286 0.0
C615 C 0.53944 0.18151 0.60915 0.0
C616 C 0.4951 0.13911 0.60097 0.0
H617 H 0.61747 0.21753 0.60962 0.0
H618 H 0.53975 0.21372 0.619 0.0
C619 C 0.49668 0.09822 0.58845 0.0
C620 C 0.47451 0.55564 0.1374 0.0
C621 C 0.49578 0.5714 0.10406 0.0
H622 H 0.41668 0.49834 0.16755 0.0
C623 C 0.4764 0.53861 0.07589 0.0
H624 H 0.48875 0.57985 0.15971 0.0
C625 C 0.43557 0.4924 0.08042 0.0
C626 C 0.4132 0.47727 0.11332 0.0
H627 H 0.4913 0.54946 0.0498 0.0
H628 H 0.42022 0.46904 0.05775 0.0
C629 C 0.43376 0.50878 0.14204 0.0
C630 C 0.87363 0.411 0.60952 0.0
C631 C 0.91205 0.453 0.59413 0.0
H632 H 0.84638 0.33757 0.62576 0.0
C633 C 0.95553 0.45285 0.58556 0.0
H634 H 0.84017 0.40993 0.6175 0.0
C635 C 0.95946 0.41106 0.59091 0.0
C636 C 0.91989 0.36848 0.60472 0.0
H637 H 0.98591 0.48439 0.57354 0.0
H638 H 0.99259 0.41145 0.5829 0.0
C639 C 0.87739 0.36944 0.61455 0.0
C640 C 0.5908 0.95369 0.08784 0.0
C641 C 0.5941 0.91816 0.10748 0.0
H642 H 0.54335 0.97546 0.06402 0.0
C643 C 0.55095 0.87922 0.12131 0.0
H644 H 0.62336 0.98386 0.07658 0.0
C645 C 0.5054 0.87454 0.11448 0.0
C646 C 0.50138 0.90832 0.09316 0.0
H647 H 0.55224 0.85148 0.13691 0.0
H648 H 0.47315 0.84382 0.12556 0.0
C649 C 0.54485 0.94872 0.08062 0.0
C650 C 0.68636 0.5223 0.61724 0.0
C651 C 0.68734 0.56629 0.61024 0.0
H652 H 0.64593 0.44464 0.61567 0.0
C653 C 0.64442 0.56426 0.59811 0.0
H654 H 0.71863 0.52232 0.62675 0.0
C655 C 0.60216 0.51906 0.59173 0.0
C656 C 0.60191 0.4751 0.59771 0.0
H657 H 0.644 0.59742 0.59236 0.0
H658 H 0.56987 0.51854 0.58175 0.0
C659 C 0.64438 0.47749 0.61111 0.0
C660 C 0.42966 0.96016 0.39306 0.0
C661 C 0.38828 0.92059 0.37791 0.0
H662 H 0.50298 0.988 0.41195 0.0
C663 C 0.39105 0.87921 0.36812 0.0
H664 H 0.42866 0.99242 0.40107 0.0
C665 C 0.43315 0.87654 0.3744 0.0
C666 C 0.474 0.91511 0.39079 0.0
H667 H 0.35999 0.84802 0.35627 0.0
H668 H 0.43284 0.84324 0.36756 0.0
C669 C 0.47201 0.95733 0.39961 0.0
C670 C 0.54528 0.44676 0.90486 0.0
C671 C 0.58884 0.4479 0.89456 0.0
H672 H 0.46657 0.405 0.90754 0.0
C673 C 0.58491 0.40779 0.87598 0.0
H674 H 0.54673 0.47685 0.91933 0.0
C675 C 0.53928 0.36684 0.86954 0.0
C676 C 0.49591 0.3647 0.88111 0.0
H677 H 0.61727 0.40767 0.86665 0.0
H678 H 0.53811 0.33625 0.85593 0.0
C679 C 0.49926 0.40562 0.89809 0.0
C680 C 0.20196 0.57938 0.37415 0.0
C681 C 0.15974 0.58333 0.37683 0.0
H682 H 0.23166 0.53212 0.36982 0.0
C683 C 0.11362 0.5407 0.37359 0.0
H684 H 0.23799 0.61117 0.37686 0.0
C685 C 0.10999 0.49497 0.36917 0.0
C686 C 0.15242 0.49123 0.36852 0.0
H687 H 0.08039 0.54261 0.37528 0.0
H688 H 0.0742 0.46252 0.36818 0.0
C689 C 0.19831 0.53397 0.37025 0.0
C690 C 0.68398 0.16782 0.86313 0.0
C691 C 0.68146 0.12241 0.86459 0.0
H692 H 0.64605 0.20744 0.86786 0.0
C693 C 0.63572 0.08024 0.8689 0.0
H694 H 0.71896 0.20094 0.86002 0.0
C695 C 0.59356 0.08399 0.87382 0.0
C696 C 0.59656 0.12989 0.87399 0.0
H697 H 0.63299 0.0449 0.87056 0.0
H698 H 0.55888 0.05116 0.87843 0.0
C699 C 0.64212 0.17153 0.86754 0.0
C700 C 0.53029 0.60063 0.40636 0.0
C701 C 0.48652 0.60101 0.40002 0.0
H702 H 0.60912 0.64161 0.40616 0.0
C703 C 0.48967 0.64297 0.38535 0.0
H704 H 0.52922 0.5689 0.41766 0.0
C705 C 0.535 0.68422 0.37891 0.0
C706 C 0.57884 0.68493 0.38675 0.0
H707 H 0.45689 0.64425 0.37919 0.0
H708 H 0.53554 0.71609 0.36832 0.0
C709 C 0.57608 0.64224 0.39976 0.0
C710 C 0.88615 0.51693 0.86741 0.0
C711 C 0.92688 0.55903 0.88074 0.0
H712 H 0.84829 0.4395 0.86244 0.0
C713 C 0.96353 0.55427 0.89791 0.0
H714 H 0.85755 0.51931 0.85359 0.0
C715 C 0.95781 0.50784 0.90346 0.0
C716 C 0.91545 0.46552 0.89182 0.0
H717 H 0.99519 0.58601 0.90863 0.0
H718 H 0.9854 0.50499 0.91827 0.0
C719 C 0.88064 0.47099 0.87271 0.0
C720 C 0.20704 0.42929 0.25333 0.0
C721 C 0.23278 0.42516 0.28175 0.0
H722 H 0.20016 0.4283 0.1976 0.0
C723 C 0.27775 0.42756 0.27587 0.0
H724 H 0.17228 0.42769 0.25741 0.0
C725 C 0.29314 0.42697 0.24171 0.0
C726 C 0.26428 0.42517 0.21325 0.0
H727 H 0.29807 0.4242 0.29737 0.0
H728 H 0.32519 0.42344 0.23758 0.0
C729 C 0.22306 0.42988 0.21917 0.0
C730 C 0.80829 0.18261 0.71329 0.0
C731 C 0.85228 0.22513 0.70523 0.0
H732 H 0.7634 0.13445 0.7537 0.0
C733 C 0.87937 0.25749 0.73242 0.0
H734 H 0.7862 0.15729 0.69298 0.0
C735 C 0.86586 0.24461 0.76727 0.0
C736 C 0.82539 0.19914 0.7752 0.0
H737 H 0.91302 0.29106 0.72697 0.0
H738 H 0.88974 0.2679 0.78782 0.0
C739 C 0.79513 0.16958 0.74805 0.0
C740 C 0.6639 0.81184 0.22138 0.0
C741 C 0.67313 0.85841 0.21216 0.0
H742 H 0.65561 0.76357 0.26283 0.0
C743 C 0.67337 0.88973 0.23843 0.0
H744 H 0.66258 0.78654 0.20173 0.0
C745 C 0.66937 0.87659 0.27353 0.0
C746 C 0.6651 0.83196 0.28288 0.0
H747 H 0.6795 0.9256 0.23212 0.0
H748 H 0.67301 0.90277 0.29327 0.0
C749 C 0.65984 0.7987 0.25645 0.0
C750 C 0.80498 0.64363 0.73924 0.0
C751 C 0.83618 0.64706 0.71166 0.0
H752 H 0.79458 0.64251 0.79455 0.0
C753 C 0.87817 0.64433 0.71917 0.0
H754 H 0.77185 0.64481 0.7343 0.0
C755 C 0.89108 0.64285 0.75378 0.0
C756 C 0.86222 0.64405 0.78148 0.0
H757 H 0.90265 0.64628 0.69852 0.0
H758 H 0.92515 0.64354 0.75877 0.0
C759 C 0.81788 0.64213 0.77385 0.0
C760 C 0.26714 0.87133 0.21284 0.0
C761 C 0.22538 0.82718 0.2039 0.0
H762 H 0.30822 0.92081 0.25378 0.0
C763 C 0.19679 0.79515 0.23068 0.0
H764 H 0.29012 0.89661 0.19285 0.0
C765 C 0.20698 0.80906 0.26565 0.0
C766 C 0.24593 0.85526 0.27444 0.0
H767 H 0.16474 0.76044 0.22464 0.0
H768 H 0.18258 0.78477 0.28556 0.0
C769 C 0.27731 0.88527 0.24782 0.0
C770 C 0.4144 0.25568 0.74984 0.0
C771 C 0.41282 0.22366 0.77582 0.0
H772 H 0.41302 0.26848 0.69514 0.0
C773 C 0.417 0.1833 0.76596 0.0
H774 H 0.41215 0.28768 0.75661 0.0
C775 C 0.41774 0.17248 0.73069 0.0
C776 C 0.41424 0.20182 0.70469 0.0
H777 H 0.41667 0.15837 0.78535 0.0
H778 H 0.41807 0.13947 0.72391 0.0
C779 C 0.4151 0.24484 0.71454 0.0
C780 C 0.27879 0.26786 0.96855 0.0
C781 C 0.3194 0.26057 0.96968 0.0
H782 H 0.23677 0.29467 -0.00493 0.0
C783 C 0.34894 0.27534 -0.00054 0.0
H784 H 0.25539 0.25729 0.94577 0.0
C785 C 0.33831 0.29685 0.02742 0.0
C786 C 0.29789 0.3044 0.0264 0.0
H787 H 0.3806 0.27071 0.00111 0.0
H788 H 0.36225 0.30775 0.04992 0.0
C789 C 0.26822 0.28971 -0.00339 0.0
C790 C 1.02501 0.30831 0.4627 0.0
C791 C 0.07075 0.31058 0.46464 0.0
H792 H 0.95543 0.28544 0.48652 0.0
C793 C 0.08023 0.28945 0.49343 0.0
H794 H 1.01612 0.32409 0.44089 0.0
C795 C 0.04478 0.26677 0.51967 0.0
C796 C 0.99917 0.26486 0.51768 0.0
H797 H 0.11475 0.29013 0.49558 0.0
H798 H 0.05343 0.2512 0.5417 0.0
C799 C 0.98977 0.28578 0.4888 0.0
C800 C 0.73555 0.97347 0.99069 0.0
C801 C 0.76792 0.98599 0.01878 0.0
H802 H 0.71962 0.995 0.94222 0.0
C803 C 0.81096 0.03214 0.01886 0.0
H804 H 0.70197 0.93862 0.98993 0.0
C805 C 0.82114 0.06507 0.99147 0.0
C806 C 0.78857 0.05242 0.96343 0.0
H807 H 0.83665 0.04321 0.04031 0.0
H808 H 0.85456 0.10005 0.99212 0.0
C809 C 0.74572 1.0062 0.96342 0.0
C810 C 0.80065 0.74214 0.48951 0.0
C811 C 0.79035 0.7466 0.52445 0.0
H812 H 0.79482 0.75884 0.43631 0.0
C813 C 0.76283 0.76932 0.53239 0.0
H814 H 0.8218 0.72495 0.48273 0.0
C815 C 0.74645 0.78789 0.50591 0.0
C816 C 0.75856 0.78534 0.47106 0.0
H817 H 0.75406 0.77289 0.55925 0.0
H818 H 0.72564 0.80541 0.51276 0.0
C819 C 0.78546 0.76193 0.46309 0.0
C820 C 1.0237 0.79075 0.98191 0.0
C821 C 1.00416 0.74262 0.9701 0.0
H822 H 0.07674 0.84793 0.01437 0.0
C823 C 1.026 0.71566 0.9809 0.0
H824 H 1.00824 0.81265 0.97326 0.0
C825 C 0.0669 0.73676 0.00313 0.0
C826 C 0.08589 0.78477 0.01526 0.0
H827 H 1.01247 0.67896 0.97128 0.0
H828 H 0.08273 0.71514 0.01163 0.0
C829 C 0.06345 0.81124 0.00479 0.0
C830 C 0.24619 1.00437 0.48022 0.0
C831 C 0.27697 0.98875 0.46592 0.0
H832 H 0.23923 0.05241 0.51628 0.0
C833 C 0.32637 1.01219 0.47592 0.0
H834 H 0.20829 0.98758 0.47217 0.0
C835 C 0.34471 0.05096 0.49988 0.0
C836 C 0.3136 0.06603 0.51455 0.0
H837 H 0.35104 1.00161 0.46435 0.0
H838 H 0.38275 0.0682 0.50765 0.0
C839 C 0.26409 0.04196 0.50484 0.0
loop_
_geom_bond_atom_site_label_1
_geom_bond_atom_site_label_2
_geom_bond_distance
_geom_bond_site_symmetry_2
_ccdc_geom_bond_type
Dy0 O3 2.307 . S
Dy0 O5 2.395 . S
Dy0 O6 2.379 . S
Dy0 O8 2.339 . S
Dy0 O10 2.298 . S
Dy0 O14 2.275 . S
Dy0 C22 2.738 . S
Dy1 O4 2.298 . S
Dy1 O7 2.275 . S
Dy1 O9 2.307 . S
Dy1 O11 2.395 . S
Dy1 O12 2.379 . S
Dy1 O15 2.339 . S
Dy1 C31 2.738 . S
C2 O14 1.254 . S
C2 O15 1.257 . S
O3 Dy0 2.307 . S
O3 C13 1.266 . S
O4 Dy1 2.298 . S
O4 C13 1.236 . S
O5 Dy0 2.395 . S
O5 C22 1.255 . S
O6 Dy0 2.379 . S
O6 C22 1.249 . S
O7 Dy1 2.275 . S
O7 C23 1.254 . S
O8 Dy0 2.339 . S
O8 C23 1.257 . S
O9 Dy1 2.307 . S
O9 C24 1.266 . S
O10 Dy0 2.298 . S
O10 C24 1.236 . S
O11 Dy1 2.395 . S
O11 C31 1.255 . S
O12 Dy1 2.379 . S
O12 C31 1.249 . S
C13 O3 1.266 . S
C13 O4 1.236 . S
O14 Dy0 2.275 . S
O14 C2 1.254 . S
O15 Dy1 2.339 . S
O15 C2 1.257 . S
C16 C19 1.344 . S
C16 C20 1.328 . S
C16 C22 1.516 . S
C17 C18 1.304 . S
C17 C21 1.323 . S
C18 C17 1.304 . S
C18 C19 1.371 . S
C18 H32 0.930 . S
C19 C16 1.344 . S
C19 C18 1.371 . S
C19 H33 0.931 . S
C20 C16 1.328 . S
C20 C21 1.433 . S
C20 H34 0.931 . S
C21 C17 1.323 . S
C21 C20 1.433 . S
C21 H35 0.933 . S
C22 Dy0 2.738 . S
C22 O5 1.255 . S
C22 O6 1.249 . S
C22 C16 1.516 . S
C23 O7 1.254 . S
C23 O8 1.257 . S
C24 O9 1.266 . S
C24 O10 1.236 . S
C25 C28 1.344 . S
C25 C29 1.328 . S
C25 C31 1.516 . S
C26 C27 1.304 . S
C26 C30 1.323 . S
C27 C26 1.304 . S
C27 C28 1.371 . S
C27 H36 0.930 . S
C28 C25 1.344 . S
C28 C27 1.371 . S
C28 H37 0.931 . S
C29 C25 1.328 . S
C29 C30 1.433 . S
C29 H38 0.931 . S
C30 C26 1.323 . S
C30 C29 1.433 . S
C30 H39 0.933 . S
C31 Dy1 2.738 . S
C31 O11 1.255 . S
C31 O12 1.249 . S
C31 C25 1.516 . S
H32 C18 0.930 . S
H33 C19 0.931 . S
H34 C20 0.931 . S
H35 C21 0.933 . S
H36 C27 0.930 . S
H37 C28 0.931 . S
H38 C29 0.931 . S
H39 C30 0.933 . S
Dy40 O43 2.307 . S
Dy40 O45 2.395 . S
Dy40 O46 2.379 . S
Dy40 O48 2.339 . S
Dy40 O50 2.298 . S
Dy40 O54 2.275 . S
Dy40 C62 2.738 . S
Dy41 O44 2.298 . S
Dy41 O47 2.275 . S
Dy41 O49 2.307 . S
Dy41 O51 2.395 . S
Dy41 O52 2.379 . S
Dy41 O55 2.339 . S
Dy41 C71 2.738 . S
C42 O54 1.254 . S
C42 O55 1.257 . S
O43 Dy40 2.307 . S
O43 C53 1.266 . S
O44 Dy41 2.298 . S
O44 C53 1.236 . S
O45 Dy40 2.395 . S
O45 C62 1.255 . S
O46 Dy40 2.379 . S
O46 C62 1.249 . S
O47 Dy41 2.275 . S
O47 C63 1.254 . S
O48 Dy40 2.339 . S
O48 C63 1.257 . S
O49 Dy41 2.307 . S
O49 C64 1.266 . S
O50 Dy40 2.298 . S
O50 C64 1.236 . S
O51 Dy41 2.395 . S
O51 C71 1.255 . S
O52 Dy41 2.379 . S
O52 C71 1.249 . S
C53 O43 1.266 . S
C53 O44 1.236 . S
O54 Dy40 2.275 . S
O54 C42 1.254 . S
O55 Dy41 2.339 . S
O55 C42 1.257 . S
C56 C59 1.344 . S
C56 C60 1.328 . S
C56 C62 1.516 1_455 S
C57 C58 1.304 . S
C57 C61 1.323 . S
C58 C57 1.304 . S
C58 C59 1.371 . S
C58 H72 0.930 . S
C59 C56 1.344 . S
C59 C58 1.371 . S
C59 H73 0.931 . S
C60 C56 1.328 . S
C60 C61 1.433 . S
C60 H74 0.931 . S
C61 C57 1.323 . S
C61 C60 1.433 . S
C61 H75 0.933 . S
C62 Dy40 2.738 . S
C62 O45 1.255 . S
C62 O46 1.249 . S
C62 C56 1.516 1_655 S
C63 O47 1.254 . S
C63 O48 1.257 . S
C64 O49 1.266 . S
C64 O50 1.236 . S
C65 C68 1.344 . S
C65 C69 1.328 . S
C65 C71 1.516 . S
C66 C67 1.304 . S
C66 C70 1.323 . S
C67 C66 1.304 . S
C67 C68 1.371 . S
C67 H76 0.930 . S
C68 C65 1.344 . S
C68 C67 1.371 . S
C68 H77 0.931 . S
C69 C65 1.328 . S
C69 C70 1.433 . S
C69 H78 0.931 . S
C70 C66 1.323 . S
C70 C69 1.433 . S
C70 H79 0.933 . S
C71 Dy41 2.738 . S
C71 O51 1.255 . S
C71 O52 1.249 . S
C71 C65 1.516 . S
H72 C58 0.930 . S
H73 C59 0.931 . S
H74 C60 0.931 . S
H75 C61 0.933 . S
H76 C67 0.930 . S
H77 C68 0.931 . S
H78 C69 0.931 . S
H79 C70 0.933 . S
Dy80 O83 2.307 . S
Dy80 O85 2.395 . S
Dy80 O86 2.379 . S
Dy80 O88 2.339 . S
Dy80 O90 2.298 . S
Dy80 O94 2.275 . S
Dy80 C102 2.738 . S
Dy81 O84 2.298 . S
Dy81 O87 2.275 . S
Dy81 O89 2.307 . S
Dy81 O91 2.395 . S
Dy81 O92 2.379 . S
Dy81 O95 2.339 . S
Dy81 C111 2.738 . S
C82 O94 1.254 . S
C82 O95 1.257 . S
O83 Dy80 2.307 . S
O83 C93 1.266 . S
O84 Dy81 2.298 . S
O84 C93 1.236 . S
O85 Dy80 2.395 . S
O85 C102 1.255 . S
O86 Dy80 2.379 . S
O86 C102 1.249 . S
O87 Dy81 2.275 . S
O87 C103 1.254 . S
O88 Dy80 2.339 . S
O88 C103 1.257 . S
O89 Dy81 2.307 . S
O89 C104 1.266 . S
O90 Dy80 2.298 . S
O90 C104 1.236 . S
O91 Dy81 2.395 . S
O91 C111 1.255 . S
O92 Dy81 2.379 . S
O92 C111 1.249 . S
C93 O83 1.266 . S
C93 O84 1.236 . S
O94 Dy80 2.275 . S
O94 C82 1.254 . S
O95 Dy81 2.339 . S
O95 C82 1.257 . S
C96 C99 1.344 . S
C96 C100 1.328 . S
C96 C102 1.516 1_545 S
C97 C98 1.304 . S
C97 C101 1.323 . S
C98 C97 1.304 . S
C98 C99 1.371 . S
C98 H112 0.930 . S
C99 C96 1.344 . S
C99 C98 1.371 . S
C99 H113 0.931 . S
C100 C96 1.328 . S
C100 C101 1.433 . S
C100 H114 0.931 . S
C101 C97 1.323 . S
C101 C100 1.433 . S
C101 H115 0.933 . S
C102 Dy80 2.738 . S
C102 O85 1.255 . S
C102 O86 1.249 . S
C102 C96 1.516 1_565 S
C103 O87 1.254 . S
C103 O88 1.257 . S
C104 O89 1.266 . S
C104 O90 1.236 . S
C105 C108 1.344 . S
C105 C109 1.328 . S
C105 C111 1.516 . S
C106 C107 1.304 . S
C106 C110 1.323 . S
C107 C106 1.304 . S
C107 C108 1.371 . S
C107 H116 0.930 . S
C108 C105 1.344 . S
C108 C107 1.371 . S
C108 H117 0.931 . S
C109 C105 1.328 . S
C109 C110 1.433 . S
C109 H118 0.931 . S
C110 C106 1.323 . S
C110 C109 1.433 . S
C110 H119 0.933 . S
C111 Dy81 2.738 . S
C111 O91 1.255 . S
C111 O92 1.249 . S
C111 C105 1.516 . S
H112 C98 0.930 . S
H113 C99 0.931 . S
H114 C100 0.931 . S
H115 C101 0.933 . S
H116 C107 0.930 . S
H117 C108 0.931 . S
H118 C109 0.931 . S
H119 C110 0.933 . S
Dy120 O123 2.307 . S
Dy120 O125 2.395 . S
Dy120 O126 2.379 . S
Dy120 O128 2.339 . S
Dy120 O130 2.298 . S
Dy120 O134 2.275 . S
Dy120 C142 2.738 . S
Dy121 O124 2.298 . S
Dy121 O127 2.275 . S
Dy121 O129 2.307 . S
Dy121 O131 2.395 . S
Dy121 O132 2.379 . S
Dy121 O135 2.339 . S
Dy121 C151 2.738 . S
C122 O134 1.254 . S
C122 O135 1.257 . S
O123 Dy120 2.307 . S
O123 C133 1.266 . S
O124 Dy121 2.298 . S
O124 C133 1.236 . S
O125 Dy120 2.395 . S
O125 C142 1.255 . S
O126 Dy120 2.379 . S
O126 C142 1.249 . S
O127 Dy121 2.275 . S
O127 C143 1.254 . S
O128 Dy120 2.339 . S
O128 C143 1.257 . S
O129 Dy121 2.307 . S
O129 C144 1.266 . S
O130 Dy120 2.298 . S
O130 C144 1.236 . S
O131 Dy121 2.395 . S
O131 C151 1.255 . S
O132 Dy121 2.379 . S
O132 C151 1.249 . S
C133 O123 1.266 . S
C133 O124 1.236 . S
O134 Dy120 2.275 . S
O134 C122 1.254 . S
O135 Dy121 2.339 . S
O135 C122 1.257 . S
C136 C139 1.344 . S
C136 C140 1.328 . S
C136 C142 1.516 . S
C137 C138 1.304 . S
C137 C141 1.323 . S
C138 C137 1.304 . S
C138 C139 1.371 . S
C138 H152 0.930 . S
C139 C136 1.344 . S
C139 C138 1.371 . S
C139 H153 0.931 . S
C140 C136 1.328 . S
C140 C141 1.433 . S
C140 H154 0.931 . S
C141 C137 1.323 . S
C141 C140 1.433 . S
C141 H155 0.933 . S
C142 Dy120 2.738 . S
C142 O125 1.255 . S
C142 O126 1.249 . S
C142 C136 1.516 . S
C143 O127 1.254 . S
C143 O128 1.257 . S
C144 O129 1.266 . S
C144 O130 1.236 . S
C145 C148 1.344 . S
C145 C149 1.328 . S
C145 C151 1.516 . S
C146 C147 1.304 . S
C146 C150 1.323 . S
C147 C146 1.304 . S
C147 C148 1.371 . S
C147 H156 0.930 . S
C148 C145 1.344 . S
C148 C147 1.371 . S
C148 H157 0.931 . S
C149 C145 1.328 . S
C149 C150 1.433 . S
C149 H158 0.931 . S
C150 C146 1.323 . S
C150 C149 1.433 . S
C150 H159 0.933 . S
C151 Dy121 2.738 . S
C151 O131 1.255 . S
C151 O132 1.249 . S
C151 C145 1.516 . S
H152 C138 0.930 . S
H153 C139 0.931 . S
H154 C140 0.931 . S
H155 C141 0.933 . S
H156 C147 0.930 . S
H157 C148 0.931 . S
H158 C149 0.931 . S
H159 C150 0.933 . S
Dy160 O163 2.307 . S
Dy160 O165 2.395 . S
Dy160 O166 2.379 . S
Dy160 O168 2.339 . S
Dy160 O170 2.298 . S
Dy160 O174 2.275 . S
Dy160 C182 2.738 . S
Dy161 O164 2.298 . S
Dy161 O167 2.275 . S
Dy161 O169 2.307 . S
Dy161 O171 2.395 . S
Dy161 O172 2.379 . S
Dy161 O175 2.339 . S
Dy161 C191 2.738 . S
C162 O174 1.254 . S
C162 O175 1.257 . S
O163 Dy160 2.307 . S
O163 C173 1.266 . S
O164 Dy161 2.298 . S
O164 C173 1.236 . S
O165 Dy160 2.395 . S
O165 C182 1.255 . S
O166 Dy160 2.379 . S
O166 C182 1.249 . S
O167 Dy161 2.275 . S
O167 C183 1.254 . S
O168 Dy160 2.339 . S
O168 C183 1.257 . S
O169 Dy161 2.307 . S
O169 C184 1.266 . S
O170 Dy160 2.298 . S
O170 C184 1.236 . S
O171 Dy161 2.395 . S
O171 C191 1.255 . S
O172 Dy161 2.379 . S
O172 C191 1.249 . S
C173 O163 1.266 . S
C173 O164 1.236 . S
O174 Dy160 2.275 . S
O174 C162 1.254 . S
O175 Dy161 2.339 . S
O175 C162 1.257 . S
C176 C179 1.344 . S
C176 C180 1.328 . S
C176 C182 1.516 1_655 S
C177 C178 1.304 . S
C177 C181 1.323 . S
C178 C177 1.304 . S
C178 C179 1.371 . S
C178 H192 0.930 . S
C179 C176 1.344 . S
C179 C178 1.371 . S
C179 H193 0.931 . S
C180 C176 1.328 . S
C180 C181 1.433 . S
C180 H194 0.931 . S
C181 C177 1.323 . S
C181 C180 1.433 . S
C181 H195 0.933 . S
C182 Dy160 2.738 . S
C182 O165 1.255 . S
C182 O166 1.249 . S
C182 C176 1.516 1_455 S
C183 O167 1.254 . S
C183 O168 1.257 . S
C184 O169 1.266 . S
C184 O170 1.236 . S
C185 C188 1.344 . S
C185 C189 1.328 . S
C185 C191 1.516 . S
C186 C187 1.304 . S
C186 C190 1.323 . S
C187 C186 1.304 . S
C187 C188 1.371 . S
C187 H196 0.930 . S
C188 C185 1.344 . S
C188 C187 1.371 . S
C188 H197 0.931 . S
C189 C185 1.328 . S
C189 C190 1.433 . S
C189 H198 0.931 . S
C190 C186 1.323 . S
C190 C189 1.433 . S
C190 H199 0.933 . S
C191 Dy161 2.738 . S
C191 O171 1.255 . S
C191 O172 1.249 . S
C191 C185 1.516 . S
H192 C178 0.930 . S
H193 C179 0.931 . S
H194 C180 0.931 . S
H195 C181 0.933 . S
H196 C187 0.930 . S
H197 C188 0.931 . S
H198 C189 0.931 . S
H199 C190 0.933 . S
Dy200 O203 2.307 . S
Dy200 O205 2.395 . S
Dy200 O206 2.379 . S
Dy200 O208 2.339 . S
Dy200 O210 2.298 . S
Dy200 O214 2.275 . S
Dy200 C222 2.738 . S
Dy201 O204 2.298 . S
Dy201 O207 2.275 . S
Dy201 O209 2.307 . S
Dy201 O211 2.395 . S
Dy201 O212 2.379 . S
Dy201 O215 2.339 . S
Dy201 C231 2.738 . S
C202 O214 1.254 . S
C202 O215 1.257 . S
O203 Dy200 2.307 . S
O203 C213 1.266 . S
O204 Dy201 2.298 . S
O204 C213 1.236 . S
O205 Dy200 2.395 . S
O205 C222 1.255 . S
O206 Dy200 2.379 . S
O206 C222 1.249 . S
O207 Dy201 2.275 . S
O207 C223 1.254 . S
O208 Dy200 2.339 . S
O208 C223 1.257 . S
O209 Dy201 2.307 . S
O209 C224 1.266 . S
O210 Dy200 2.298 . S
O210 C224 1.236 . S
O211 Dy201 2.395 . S
O211 C231 1.255 . S
O212 Dy201 2.379 . S
O212 C231 1.249 . S
C213 O203 1.266 . S
C213 O204 1.236 . S
O214 Dy200 2.275 . S
O214 C202 1.254 . S
O215 Dy201 2.339 . S
O215 C202 1.257 . S
C216 C219 1.344 . S
C216 C220 1.328 . S
C216 C222 1.516 1_565 S
C217 C218 1.304 . S
C217 C221 1.323 . S
C218 C217 1.304 . S
C218 C219 1.371 . S
C218 H232 0.930 . S
C219 C216 1.344 . S
C219 C218 1.371 . S
C219 H233 0.931 . S
C220 C216 1.328 . S
C220 C221 1.433 . S
C220 H234 0.931 . S
C221 C217 1.323 . S
C221 C220 1.433 . S
C221 H235 0.933 . S
C222 Dy200 2.738 . S
C222 O205 1.255 . S
C222 O206 1.249 . S
C222 C216 1.516 1_545 S
C223 O207 1.254 . S
C223 O208 1.257 . S
C224 O209 1.266 . S
C224 O210 1.236 . S
C225 C228 1.344 . S
C225 C229 1.328 . S
C225 C231 1.516 . S
C226 C227 1.304 . S
C226 C230 1.323 . S
C227 C226 1.304 . S
C227 C228 1.371 . S
C227 H236 0.930 . S
C228 C225 1.344 . S
C228 C227 1.371 . S
C228 H237 0.931 . S
C229 C225 1.328 . S
C229 C230 1.433 . S
C229 H238 0.931 . S
C230 C226 1.323 . S
C230 C229 1.433 . S
C230 H239 0.933 . S
C231 Dy201 2.738 . S
C231 O211 1.255 . S
C231 O212 1.249 . S
C231 C225 1.516 . S
H232 C218 0.930 . S
H233 C219 0.931 . S
H234 C220 0.931 . S
H235 C221 0.933 . S
H236 C227 0.930 . S
H237 C228 0.931 . S
H238 C229 0.931 . S
H239 C230 0.933 . S
Dy240 O243 2.307 . S
Dy240 O245 2.395 . S
Dy240 O246 2.379 . S
Dy240 O248 2.339 . S
Dy240 O250 2.298 . S
Dy240 O254 2.275 . S
Dy240 C262 2.738 . S
Dy241 O244 2.298 . S
Dy241 O247 2.275 . S
Dy241 O249 2.307 . S
Dy241 O251 2.395 . S
Dy241 O252 2.379 . S
Dy241 O255 2.339 . S
Dy241 C271 2.738 . S
C242 O254 1.254 . S
C242 O255 1.257 . S
O243 Dy240 2.307 . S
O243 C253 1.266 . S
O244 Dy241 2.298 . S
O244 C253 1.236 . S
O245 Dy240 2.395 . S
O245 C262 1.255 . S
O246 Dy240 2.379 . S
O246 C262 1.249 . S
O247 Dy241 2.275 . S
O247 C263 1.254 . S
O248 Dy240 2.339 . S
O248 C263 1.257 . S
O249 Dy241 2.307 . S
O249 C264 1.266 . S
O250 Dy240 2.298 . S
O250 C264 1.236 . S
O251 Dy241 2.395 . S
O251 C271 1.255 . S
O252 Dy241 2.379 . S
O252 C271 1.249 . S
C253 O243 1.266 . S
C253 O244 1.236 . S
O254 Dy240 2.275 . S
O254 C242 1.254 . S
O255 Dy241 2.339 . S
O255 C242 1.257 . S
C256 C259 1.344 . S
C256 C260 1.328 . S
C256 C262 1.516 . S
C257 C258 1.304 . S
C257 C261 1.323 . S
C258 C257 1.304 . S
C258 C259 1.371 . S
C258 H272 0.930 . S
C259 C256 1.344 . S
C259 C258 1.371 . S
C259 H273 0.931 . S
C260 C256 1.328 . S
C260 C261 1.433 . S
C260 H274 0.931 . S
C261 C257 1.323 . S
C261 C260 1.433 . S
C261 H275 0.933 . S
C262 Dy240 2.738 . S
C262 O245 1.255 . S
C262 O246 1.249 . S
C262 C256 1.516 . S
C263 O247 1.254 . S
C263 O248 1.257 . S
C264 O249 1.266 . S
C264 O250 1.236 . S
C265 C268 1.344 . S
C265 C269 1.328 . S
C265 C271 1.516 . S
C266 C267 1.304 . S
C266 C270 1.323 . S
C267 C266 1.304 . S
C267 C268 1.371 . S
C267 H276 0.930 . S
C268 C265 1.344 . S
C268 C267 1.371 . S
C268 H277 0.931 . S
C269 C265 1.328 . S
C269 C270 1.433 . S
C269 H278 0.931 . S
C270 C266 1.323 . S
C270 C269 1.433 . S
C270 H279 0.933 . S
C271 Dy241 2.738 . S
C271 O251 1.255 . S
C271 O252 1.249 . S
C271 C265 1.516 . S
H272 C258 0.930 . S
H273 C259 0.931 . S
H274 C260 0.931 . S
H275 C261 0.933 . S
H276 C267 0.930 . S
H277 C268 0.931 . S
H278 C269 0.931 . S
H279 C270 0.933 . S
Dy280 O283 2.307 . S
Dy280 O285 2.395 . S
Dy280 O286 2.379 . S
Dy280 O288 2.339 . S
Dy280 O290 2.298 . S
Dy280 O294 2.275 . S
Dy280 C302 2.738 . S
Dy281 O284 2.298 . S
Dy281 O287 2.275 . S
Dy281 O289 2.307 . S
Dy281 O291 2.395 . S
Dy281 O292 2.379 . S
Dy281 O295 2.339 . S
Dy281 C311 2.738 . S
C282 O294 1.254 . S
C282 O295 1.257 . S
O283 Dy280 2.307 . S
O283 C293 1.266 . S
O284 Dy281 2.298 . S
O284 C293 1.236 . S
O285 Dy280 2.395 . S
O285 C302 1.255 . S
O286 Dy280 2.379 . S
O286 C302 1.249 . S
O287 Dy281 2.275 . S
O287 C303 1.254 . S
O288 Dy280 2.339 . S
O288 C303 1.257 . S
O289 Dy281 2.307 . S
O289 C304 1.266 . S
O290 Dy280 2.298 . S
O290 C304 1.236 . S
O291 Dy281 2.395 . S
O291 C311 1.255 . S
O292 Dy281 2.379 . S
O292 C311 1.249 . S
C293 O283 1.266 . S
C293 O284 1.236 . S
O294 Dy280 2.275 . S
O294 C282 1.254 . S
O295 Dy281 2.339 . S
O295 C282 1.257 . S
C296 C299 1.344 . S
C296 C300 1.328 . S
C296 C302 1.516 1_455 S
C297 C298 1.304 . S
C297 C301 1.323 . S
C298 C297 1.304 . S
C298 C299 1.371 . S
C298 H312 0.930 . S
C299 C296 1.344 . S
C299 C298 1.371 . S
C299 H313 0.931 . S
C300 C296 1.328 . S
C300 C301 1.433 . S
C300 H314 0.931 . S
C301 C297 1.323 . S
C301 C300 1.433 . S
C301 H315 0.933 . S
C302 Dy280 2.738 . S
C302 O285 1.255 . S
C302 O286 1.249 . S
C302 C296 1.516 1_655 S
C303 O287 1.254 . S
C303 O288 1.257 . S
C304 O289 1.266 . S
C304 O290 1.236 . S
C305 C308 1.344 . S
C305 C309 1.328 . S
C305 C311 1.516 . S
C306 C307 1.304 . S
C306 C310 1.323 . S
C307 C306 1.304 . S
C307 C308 1.371 . S
C307 H316 0.930 . S
C308 C305 1.344 . S
C308 C307 1.371 . S
C308 H317 0.931 . S
C309 C305 1.328 . S
C309 C310 1.433 . S
C309 H318 0.931 . S
C310 C306 1.323 . S
C310 C309 1.433 . S
C310 H319 0.933 . S
C311 Dy281 2.738 . S
C311 O291 1.255 . S
C311 O292 1.249 . S
C311 C305 1.516 . S
H312 C298 0.930 . S
H313 C299 0.931 . S
H314 C300 0.931 . S
H315 C301 0.933 . S
H316 C307 0.930 . S
H317 C308 0.931 . S
H318 C309 0.931 . S
H319 C310 0.933 . S
Dy320 O323 2.307 . S
Dy320 O325 2.395 . S
Dy320 O326 2.379 . S
Dy320 O328 2.339 . S
Dy320 O330 2.298 . S
Dy320 O334 2.275 . S
Dy320 C342 2.738 . S
Dy321 O324 2.298 . S
Dy321 O327 2.275 . S
Dy321 O329 2.307 . S
Dy321 O331 2.395 . S
Dy321 O332 2.379 . S
Dy321 O335 2.339 . S
Dy321 C351 2.738 . S
C322 O334 1.254 . S
C322 O335 1.257 . S
O323 Dy320 2.307 . S
O323 C333 1.266 . S
O324 Dy321 2.298 . S
O324 C333 1.236 . S
O325 Dy320 2.395 . S
O325 C342 1.255 . S
O326 Dy320 2.379 . S
O326 C342 1.249 . S
O327 Dy321 2.275 . S
O327 C343 1.254 . S
O328 Dy320 2.339 . S
O328 C343 1.257 . S
O329 Dy321 2.307 . S
O329 C344 1.266 . S
O330 Dy320 2.298 . S
O330 C344 1.236 . S
O331 Dy321 2.395 . S
O331 C351 1.255 . S
O332 Dy321 2.379 . S
O332 C351 1.249 . S
C333 O323 1.266 . S
C333 O324 1.236 . S
O334 Dy320 2.275 . S
O334 C322 1.254 . S
O335 Dy321 2.339 . S
O335 C322 1.257 . S
C336 C339 1.344 . S
C336 C340 1.328 . S
C336 C342 1.516 1_545 S
C337 C338 1.304 . S
C337 C341 1.323 . S
C338 C337 1.304 . S
C338 C339 1.371 . S
C338 H352 0.930 . S
C339 C336 1.344 . S
C339 C338 1.371 . S
C339 H353 0.931 . S
C340 C336 1.328 . S
C340 C341 1.433 . S
C340 H354 0.931 . S
C341 C337 1.323 . S
C341 C340 1.433 . S
C341 H355 0.933 . S
C342 Dy320 2.738 . S
C342 O325 1.255 . S
C342 O326 1.249 . S
C342 C336 1.516 1_565 S
C343 O327 1.254 . S
C343 O328 1.257 . S
C344 O329 1.266 . S
C344 O330 1.236 . S
C345 C348 1.344 . S
C345 C349 1.328 . S
C345 C351 1.516 . S
C346 C347 1.304 . S
C346 C350 1.323 . S
C347 C346 1.304 . S
C347 C348 1.371 . S
C347 H356 0.930 . S
C348 C345 1.344 . S
C348 C347 1.371 . S
C348 H357 0.931 . S
C349 C345 1.328 . S
C349 C350 1.433 . S
C349 H358 0.931 . S
C350 C346 1.323 . S
C350 C349 1.433 . S
C350 H359 0.933 . S
C351 Dy321 2.738 . S
C351 O331 1.255 . S
C351 O332 1.249 . S
C351 C345 1.516 . S
H352 C338 0.930 . S
H353 C339 0.931 . S
H354 C340 0.931 . S
H355 C341 0.933 . S
H356 C347 0.930 . S
H357 C348 0.931 . S
H358 C349 0.931 . S
H359 C350 0.933 . S
Dy360 O363 2.307 . S
Dy360 O365 2.395 . S
Dy360 O366 2.379 . S
Dy360 O368 2.339 . S
Dy360 O370 2.298 . S
Dy360 O374 2.275 . S
Dy360 C382 2.738 . S
Dy361 O364 2.298 . S
Dy361 O367 2.275 . S
Dy361 O369 2.307 . S
Dy361 O371 2.395 . S
Dy361 O372 2.379 . S
Dy361 O375 2.339 . S
Dy361 C391 2.738 . S
C362 O374 1.254 . S
C362 O375 1.257 . S
O363 Dy360 2.307 . S
O363 C373 1.266 . S
O364 Dy361 2.298 . S
O364 C373 1.236 . S
O365 Dy360 2.395 . S
O365 C382 1.255 . S
O366 Dy360 2.379 . S
O366 C382 1.249 . S
O367 Dy361 2.275 . S
O367 C383 1.254 . S
O368 Dy360 2.339 . S
O368 C383 1.257 . S
O369 Dy361 2.307 . S
O369 C384 1.266 . S
O370 Dy360 2.298 . S
O370 C384 1.236 . S
O371 Dy361 2.395 . S
O371 C391 1.255 . S
O372 Dy361 2.379 . S
O372 C391 1.249 . S
C373 O363 1.266 . S
C373 O364 1.236 . S
O374 Dy360 2.275 . S
O374 C362 1.254 . S
O375 Dy361 2.339 . S
O375 C362 1.257 . S
C376 C379 1.344 . S
C376 C380 1.328 . S
C376 C382 1.516 . S
C377 C378 1.304 . S
C377 C381 1.323 . S
C378 C377 1.304 . S
C378 C379 1.371 . S
C378 H392 0.930 . S
C379 C376 1.344 . S
C379 C378 1.371 . S
C379 H393 0.931 . S
C380 C376 1.328 . S
C380 C381 1.433 . S
C380 H394 0.931 . S
C381 C377 1.323 . S
C381 C380 1.433 . S
C381 H395 0.933 . S
C382 Dy360 2.738 . S
C382 O365 1.255 . S
C382 O366 1.249 . S
C382 C376 1.516 . S
C383 O367 1.254 . S
C383 O368 1.257 . S
C384 O369 1.266 . S
C384 O370 1.236 . S
C385 C388 1.344 . S
C385 C389 1.328 . S
C385 C391 1.516 . S
C386 C387 1.304 . S
C386 C390 1.323 . S
C387 C386 1.304 . S
C387 C388 1.371 . S
C387 H396 0.930 . S
C388 C385 1.344 . S
C388 C387 1.371 . S
C388 H397 0.931 . S
C389 C385 1.328 . S
C389 C390 1.433 . S
C389 H398 0.931 . S
C390 C386 1.323 . S
C390 C389 1.433 . S
C390 H399 0.933 . S
C391 Dy361 2.738 . S
C391 O371 1.255 . S
C391 O372 1.249 . S
C391 C385 1.516 . S
H392 C378 0.930 . S
H393 C379 0.931 . S
H394 C380 0.931 . S
H395 C381 0.933 . S
H396 C387 0.930 . S
H397 C388 0.931 . S
H398 C389 0.931 . S
H399 C390 0.933 . S
Dy400 O403 2.307 . S
Dy400 O405 2.395 . S
Dy400 O406 2.379 . S
Dy400 O408 2.339 . S
Dy400 O410 2.298 . S
Dy400 O414 2.275 . S
Dy400 C422 2.738 . S
Dy401 O404 2.298 . S
Dy401 O407 2.275 . S
Dy401 O409 2.307 . S
Dy401 O411 2.395 . S
Dy401 O412 2.379 . S
Dy401 O415 2.339 . S
Dy401 C431 2.738 . S
C402 O414 1.254 . S
C402 O415 1.257 . S
O403 Dy400 2.307 . S
O403 C413 1.266 . S
O404 Dy401 2.298 . S
O404 C413 1.236 . S
O405 Dy400 2.395 . S
O405 C422 1.255 . S
O406 Dy400 2.379 . S
O406 C422 1.249 . S
O407 Dy401 2.275 . S
O407 C423 1.254 . S
O408 Dy400 2.339 . S
O408 C423 1.257 . S
O409 Dy401 2.307 . S
O409 C424 1.266 . S
O410 Dy400 2.298 . S
O410 C424 1.236 . S
O411 Dy401 2.395 . S
O411 C431 1.255 . S
O412 Dy401 2.379 . S
O412 C431 1.249 . S
C413 O403 1.266 . S
C413 O404 1.236 . S
O414 Dy400 2.275 . S
O414 C402 1.254 . S
O415 Dy401 2.339 . S
O415 C402 1.257 . S
C416 C419 1.344 . S
C416 C420 1.328 . S
C416 C422 1.516 1_655 S
C417 C418 1.304 . S
C417 C421 1.323 . S
C418 C417 1.304 . S
C418 C419 1.371 . S
C418 H432 0.930 . S
C419 C416 1.344 . S
C419 C418 1.371 . S
C419 H433 0.931 . S
C420 C416 1.328 . S
C420 C421 1.433 . S
C420 H434 0.931 . S
C421 C417 1.323 . S
C421 C420 1.433 . S
C421 H435 0.933 . S
C422 Dy400 2.738 . S
C422 O405 1.255 . S
C422 O406 1.249 . S
C422 C416 1.516 1_455 S
C423 O407 1.254 . S
C423 O408 1.257 . S
C424 O409 1.266 . S
C424 O410 1.236 . S
C425 C428 1.344 . S
C425 C429 1.328 . S
C425 C431 1.516 . S
C426 C427 1.304 . S
C426 C430 1.323 . S
C427 C426 1.304 . S
C427 C428 1.371 . S
C427 H436 0.930 . S
C428 C425 1.344 . S
C428 C427 1.371 . S
C428 H437 0.931 . S
C429 C425 1.328 . S
C429 C430 1.433 . S
C429 H438 0.931 . S
C430 C426 1.323 . S
C430 C429 1.433 . S
C430 H439 0.933 . S
C431 Dy401 2.738 . S
C431 O411 1.255 . S
C431 O412 1.249 . S
C431 C425 1.516 . S
H432 C418 0.930 . S
H433 C419 0.931 . S
H434 C420 0.931 . S
H435 C421 0.933 . S
H436 C427 0.930 . S
H437 C428 0.931 . S
H438 C429 0.931 . S
H439 C430 0.933 . S
Dy440 O443 2.307 . S
Dy440 O445 2.395 . S
Dy440 O446 2.379 . S
Dy440 O448 2.339 . S
Dy440 O450 2.298 . S
Dy440 O454 2.275 . S
Dy440 C462 2.738 . S
Dy441 O444 2.298 . S
Dy441 O447 2.275 . S
Dy441 O449 2.307 . S
Dy441 O451 2.395 . S
Dy441 O452 2.379 . S
Dy441 O455 2.339 . S
Dy441 C471 2.738 . S
C442 O454 1.254 . S
C442 O455 1.257 . S
O443 Dy440 2.307 . S
O443 C453 1.266 . S
O444 Dy441 2.298 . S
O444 C453 1.236 . S
O445 Dy440 2.395 . S
O445 C462 1.255 . S
O446 Dy440 2.379 . S
O446 C462 1.249 . S
O447 Dy441 2.275 . S
O447 C463 1.254 . S
O448 Dy440 2.339 . S
O448 C463 1.257 . S
O449 Dy441 2.307 . S
O449 C464 1.266 . S
O450 Dy440 2.298 . S
O450 C464 1.236 . S
O451 Dy441 2.395 . S
O451 C471 1.255 . S
O452 Dy441 2.379 . S
O452 C471 1.249 . S
C453 O443 1.266 . S
C453 O444 1.236 . S
O454 Dy440 2.275 . S
O454 C442 1.254 . S
O455 Dy441 2.339 . S
O455 C442 1.257 . S
C456 C459 1.344 . S
C456 C460 1.328 . S
C456 C462 1.516 1_565 S
C457 C458 1.304 . S
C457 C461 1.323 . S
C458 C457 1.304 . S
C458 C459 1.371 . S
C458 H472 0.930 . S
C459 C456 1.344 . S
C459 C458 1.371 . S
C459 H473 0.931 . S
C460 C456 1.328 . S
C460 C461 1.433 . S
C460 H474 0.931 . S
C461 C457 1.323 . S
C461 C460 1.433 . S
C461 H475 0.933 . S
C462 Dy440 2.738 . S
C462 O445 1.255 . S
C462 O446 1.249 . S
C462 C456 1.516 1_545 S
C463 O447 1.254 . S
C463 O448 1.257 . S
C464 O449 1.266 . S
C464 O450 1.236 . S
C465 C468 1.344 . S
C465 C469 1.328 . S
C465 C471 1.516 . S
C466 C467 1.304 . S
C466 C470 1.323 . S
C467 C466 1.304 . S
C467 C468 1.371 . S
C467 H476 0.930 . S
C468 C465 1.344 . S
C468 C467 1.371 . S
C468 H477 0.931 . S
C469 C465 1.328 . S
C469 C470 1.433 . S
C469 H478 0.931 . S
C470 C466 1.323 . S
C470 C469 1.433 . S
C470 H479 0.933 . S
C471 Dy441 2.738 . S
C471 O451 1.255 . S
C471 O452 1.249 . S
C471 C465 1.516 . S
H472 C458 0.930 . S
H473 C459 0.931 . S
H474 C460 0.931 . S
H475 C461 0.933 . S
H476 C467 0.930 . S
H477 C468 0.931 . S
H478 C469 0.931 . S
H479 C470 0.933 . S
C480 C481 1.387 . S
C480 H484 0.950 . S
C480 C489 1.390 1_565 S
C481 C480 1.387 . S
C481 C483 1.387 . S
H482 C489 0.950 . S
C483 C481 1.387 . S
C483 C485 1.390 . S
C483 H487 0.950 . S
H484 C480 0.950 . S
C485 C483 1.390 . S
C485 C486 1.387 1_565 S
C485 H488 0.950 . S
C486 C485 1.387 1_545 S
C486 C489 1.387 . S
H487 C483 0.950 . S
H488 C485 0.950 . S
C489 C480 1.390 1_545 S
C489 H482 0.950 . S
C489 C486 1.387 . S
C490 C491 1.387 . S
C490 H494 0.950 . S
C490 C499 1.390 . S
C491 C490 1.387 . S
C491 C493 1.387 . S
H492 C499 0.950 . S
C493 C491 1.387 . S
C493 C495 1.390 . S
C493 H497 0.950 . S
H494 C490 0.950 . S
C495 C493 1.390 . S
C495 C496 1.387 . S
C495 H498 0.950 . S
C496 C495 1.387 . S
C496 C499 1.387 . S
H497 C493 0.950 . S
H498 C495 0.950 . S
C499 C490 1.390 . S
C499 H492 0.950 . S
C499 C496 1.387 . S
C500 C501 1.387 1_455 S
C500 H504 0.950 1_455 S
C500 C509 1.390 . S
C501 C500 1.387 1_655 S
C501 C503 1.387 . S
H502 C509 0.950 . S
C503 C501 1.387 . S
C503 C505 1.390 1_655 S
C503 H507 0.950 . S
H504 C500 0.950 1_655 S
C505 C503 1.390 1_455 S
C505 C506 1.387 . S
C505 H508 0.950 . S
C506 C505 1.387 . S
C506 C509 1.387 . S
H507 C503 0.950 . S
H508 C505 0.950 . S
C509 C500 1.390 . S
C509 H502 0.950 . S
C509 C506 1.387 . S
C510 C511 1.387 1_545 S
C510 H514 0.950 1_545 S
C510 C519 1.390 . S
C511 C510 1.387 1_565 S
C511 C513 1.387 . S
H512 C519 0.950 . S
C513 C511 1.387 . S
C513 C515 1.390 1_565 S
C513 H517 0.950 . S
H514 C510 0.950 1_565 S
C515 C513 1.390 1_545 S
C515 C516 1.387 . S
C515 H518 0.950 . S
C516 C515 1.387 . S
C516 C519 1.387 . S
H517 C513 0.950 . S
H518 C515 0.950 . S
C519 C510 1.390 . S
C519 H512 0.950 . S
C519 C516 1.387 . S
C520 C521 1.387 . S
C520 H524 0.950 . S
C520 C529 1.390 . S
C521 C520 1.387 . S
C521 C523 1.387 . S
H522 C529 0.950 . S
C523 C521 1.387 . S
C523 C525 1.390 . S
C523 H527 0.950 . S
H524 C520 0.950 . S
C525 C523 1.390 . S
C525 C526 1.387 . S
C525 H528 0.950 . S
C526 C525 1.387 . S
C526 C529 1.387 . S
H527 C523 0.950 . S
H528 C525 0.950 . S
C529 C520 1.390 . S
C529 H522 0.950 . S
C529 C526 1.387 . S
C530 C531 1.387 . S
C530 H534 0.950 . S
C530 C539 1.390 1_655 S
C531 C530 1.387 . S
C531 C533 1.387 . S
H532 C539 0.950 . S
C533 C531 1.387 . S
C533 C535 1.390 . S
C533 H537 0.950 . S
H534 C530 0.950 . S
C535 C533 1.390 . S
C535 C536 1.387 1_655 S
C535 H538 0.950 . S
C536 C535 1.387 1_455 S
C536 C539 1.387 . S
H537 C533 0.950 . S
H538 C535 0.950 . S
C539 C530 1.390 1_455 S
C539 H532 0.950 . S
C539 C536 1.387 . S
C540 C541 1.387 . S
C540 H544 0.950 . S
C540 C549 1.390 1_455 S
C541 C540 1.387 . S
C541 C543 1.387 . S
H542 C549 0.950 . S
C543 C541 1.387 . S
C543 C545 1.390 . S
C543 H547 0.950 . S
H544 C540 0.950 . S
C545 C543 1.390 . S
C545 C546 1.387 1_455 S
C545 H548 0.950 . S
C546 C545 1.387 1_655 S
C546 C549 1.387 . S
H547 C543 0.950 . S
H548 C545 0.950 . S
C549 C540 1.390 1_655 S
C549 H542 0.950 . S
C549 C546 1.387 . S
C550 C551 1.387 . S
C550 H554 0.950 . S
C550 C559 1.390 1_565 S
C551 C550 1.387 . S
C551 C553 1.387 1_565 S
H552 C559 0.950 . S
C553 C551 1.387 1_545 S
C553 C555 1.390 . S
C553 H557 0.950 . S
H554 C550 0.950 . S
C555 C553 1.390 . S
C555 C556 1.387 . S
C555 H558 0.950 . S
C556 C555 1.387 . S
C556 C559 1.387 . S
H557 C553 0.950 . S
H558 C555 0.950 . S
C559 C550 1.390 1_545 S
C559 H552 0.950 . S
C559 C556 1.387 . S
C560 C561 1.387 . S
C560 H564 0.950 . S
C560 C569 1.390 . S
C561 C560 1.387 . S
C561 C563 1.387 . S
H562 C569 0.950 . S
C563 C561 1.387 . S
C563 C565 1.390 . S
C563 H567 0.950 . S
H564 C560 0.950 . S
C565 C563 1.390 . S
C565 C566 1.387 . S
C565 H568 0.950 . S
C566 C565 1.387 . S
C566 C569 1.387 . S
H567 C563 0.950 . S
H568 C565 0.950 . S
C569 C560 1.390 . S
C569 H562 0.950 . S
C569 C566 1.387 . S
C570 C571 1.387 1_655 S
C570 H574 0.950 . S
C570 C579 1.390 . S
C571 C570 1.387 1_455 S
C571 C573 1.387 . S
H572 C579 0.950 . S
C573 C571 1.387 . S
C573 C575 1.390 1_455 S
C573 H577 0.950 . S
H574 C570 0.950 . S
C575 C573 1.390 1_655 S
C575 C576 1.387 . S
C575 H578 0.950 . S
C576 C575 1.387 . S
C576 C579 1.387 . S
H577 C573 0.950 . S
H578 C575 0.950 . S
C579 C570 1.390 . S
C579 H572 0.950 . S
C579 C576 1.387 . S
C580 C581 1.387 . S
C580 H584 0.950 . S
C580 C589 1.390 1_545 S
C581 C580 1.387 . S
C581 C583 1.387 1_545 S
H582 C589 0.950 . S
C583 C581 1.387 1_565 S
C583 C585 1.390 . S
C583 H587 0.950 . S
H584 C580 0.950 . S
C585 C583 1.390 . S
C585 C586 1.387 . S
C585 H588 0.950 . S
C586 C585 1.387 . S
C586 C589 1.387 . S
H587 C583 0.950 . S
H588 C585 0.950 . S
C589 C580 1.390 1_565 S
C589 H582 0.950 . S
C589 C586 1.387 . S
C590 C591 1.387 . S
C590 H594 0.950 . S
C590 C599 1.390 . S
C591 C590 1.387 . S
C591 C593 1.387 . S
H592 C599 0.950 . S
C593 C591 1.387 . S
C593 C595 1.390 . S
C593 H597 0.950 . S
H594 C590 0.950 . S
C595 C593 1.390 . S
C595 C596 1.387 . S
C595 H598 0.950 . S
C596 C595 1.387 . S
C596 C599 1.387 . S
H597 C593 0.950 . S
H598 C595 0.950 . S
C599 C590 1.390 . S
C599 H592 0.950 . S
C599 C596 1.387 . S
C600 C601 1.387 . S
C600 H604 0.950 . S
C600 C609 1.390 . S
C601 C600 1.387 . S
C601 C603 1.387 . S
H602 C609 0.950 . S
C603 C601 1.387 . S
C603 C605 1.390 . S
C603 H607 0.950 . S
H604 C600 0.950 . S
C605 C603 1.390 . S
C605 C606 1.387 . S
C605 H608 0.950 . S
C606 C605 1.387 . S
C606 C609 1.387 . S
H607 C603 0.950 . S
H608 C605 0.950 . S
C609 C600 1.390 . S
C609 H602 0.950 . S
C609 C606 1.387 . S
C610 C611 1.387 . S
C610 H614 0.950 . S
C610 C619 1.390 . S
C611 C610 1.387 . S
C611 C613 1.387 . S
H612 C619 0.950 . S
C613 C611 1.387 . S
C613 C615 1.390 . S
C613 H617 0.950 . S
H614 C610 0.950 . S
C615 C613 1.390 . S
C615 C616 1.387 . S
C615 H618 0.950 . S
C616 C615 1.387 . S
C616 C619 1.387 . S
H617 C613 0.950 . S
H618 C615 0.950 . S
C619 C610 1.390 . S
C619 H612 0.950 . S
C619 C616 1.387 . S
C620 C621 1.387 . S
C620 H624 0.950 . S
C620 C629 1.390 . S
C621 C620 1.387 . S
C621 C623 1.387 . S
H622 C629 0.950 . S
C623 C621 1.387 . S
C623 C625 1.390 . S
C623 H627 0.950 . S
H624 C620 0.950 . S
C625 C623 1.390 . S
C625 C626 1.387 . S
C625 H628 0.950 . S
C626 C625 1.387 . S
C626 C629 1.387 . S
H627 C623 0.950 . S
H628 C625 0.950 . S
C629 C620 1.390 . S
C629 H622 0.950 . S
C629 C626 1.387 . S
C630 C631 1.387 . S
C630 H634 0.950 . S
C630 C639 1.390 . S
C631 C630 1.387 . S
C631 C633 1.387 . S
H632 C639 0.950 . S
C633 C631 1.387 . S
C633 C635 1.390 . S
C633 H637 0.950 . S
H634 C630 0.950 . S
C635 C633 1.390 . S
C635 C636 1.387 . S
C635 H638 0.950 . S
C636 C635 1.387 . S
C636 C639 1.387 . S
H637 C633 0.950 . S
H638 C635 0.950 . S
C639 C630 1.390 . S
C639 H632 0.950 . S
C639 C636 1.387 . S
C640 C641 1.387 . S
C640 H644 0.950 . S
C640 C649 1.390 . S
C641 C640 1.387 . S
C641 C643 1.387 . S
H642 C649 0.950 . S
C643 C641 1.387 . S
C643 C645 1.390 . S
C643 H647 0.950 . S
H644 C640 0.950 . S
C645 C643 1.390 . S
C645 C646 1.387 . S
C645 H648 0.950 . S
C646 C645 1.387 . S
C646 C649 1.387 . S
H647 C643 0.950 . S
H648 C645 0.950 . S
C649 C640 1.390 . S
C649 H642 0.950 . S
C649 C646 1.387 . S
C650 C651 1.387 . S
C650 H654 0.950 . S
C650 C659 1.390 . S
C651 C650 1.387 . S
C651 C653 1.387 . S
H652 C659 0.950 . S
C653 C651 1.387 . S
C653 C655 1.390 . S
C653 H657 0.950 . S
H654 C650 0.950 . S
C655 C653 1.390 . S
C655 C656 1.387 . S
C655 H658 0.950 . S
C656 C655 1.387 . S
C656 C659 1.387 . S
H657 C653 0.950 . S
H658 C655 0.950 . S
C659 C650 1.390 . S
C659 H652 0.950 . S
C659 C656 1.387 . S
C660 C661 1.387 . S
C660 H664 0.950 . S
C660 C669 1.390 . S
C661 C660 1.387 . S
C661 C663 1.387 . S
H662 C669 0.950 . S
C663 C661 1.387 . S
C663 C665 1.390 . S
C663 H667 0.950 . S
H664 C660 0.950 . S
C665 C663 1.390 . S
C665 C666 1.387 . S
C665 H668 0.950 . S
C666 C665 1.387 . S
C666 C669 1.387 . S
H667 C663 0.950 . S
H668 C665 0.950 . S
C669 C660 1.390 . S
C669 H662 0.950 . S
C669 C666 1.387 . S
C670 C671 1.387 . S
C670 H674 0.950 . S
C670 C679 1.390 . S
C671 C670 1.387 . S
C671 C673 1.387 . S
H672 C679 0.950 . S
C673 C671 1.387 . S
C673 C675 1.390 . S
C673 H677 0.950 . S
H674 C670 0.950 . S
C675 C673 1.390 . S
C675 C676 1.387 . S
C675 H678 0.950 . S
C676 C675 1.387 . S
C676 C679 1.387 . S
H677 C673 0.950 . S
H678 C675 0.950 . S
C679 C670 1.390 . S
C679 H672 0.950 . S
C679 C676 1.387 . S
C680 C681 1.387 . S
C680 H684 0.950 . S
C680 C689 1.390 . S
C681 C680 1.387 . S
C681 C683 1.387 . S
H682 C689 0.950 . S
C683 C681 1.387 . S
C683 C685 1.390 . S
C683 H687 0.950 . S
H684 C680 0.950 . S
C685 C683 1.390 . S
C685 C686 1.387 . S
C685 H688 0.950 . S
C686 C685 1.387 . S
C686 C689 1.387 . S
H687 C683 0.950 . S
H688 C685 0.950 . S
C689 C680 1.390 . S
C689 H682 0.950 . S
C689 C686 1.387 . S
C690 C691 1.387 . S
C690 H694 0.950 . S
C690 C699 1.390 . S
C691 C690 1.387 . S
C691 C693 1.387 . S
H692 C699 0.950 . S
C693 C691 1.387 . S
C693 C695 1.390 . S
C693 H697 0.950 . S
H694 C690 0.950 . S
C695 C693 1.390 . S
C695 C696 1.387 . S
C695 H698 0.950 . S
C696 C695 1.387 . S
C696 C699 1.387 . S
H697 C693 0.950 . S
H698 C695 0.950 . S
C699 C690 1.390 . S
C699 H692 0.950 . S
C699 C696 1.387 . S
C700 C701 1.387 . S
C700 H704 0.950 . S
C700 C709 1.390 . S
C701 C700 1.387 . S
C701 C703 1.387 . S
H702 C709 0.950 . S
C703 C701 1.387 . S
C703 C705 1.390 . S
C703 H707 0.950 . S
H704 C700 0.950 . S
C705 C703 1.390 . S
C705 C706 1.387 . S
C705 H708 0.950 . S
C706 C705 1.387 . S
C706 C709 1.387 . S
H707 C703 0.950 . S
H708 C705 0.950 . S
C709 C700 1.390 . S
C709 H702 0.950 . S
C709 C706 1.387 . S
C710 C711 1.387 . S
C710 H714 0.950 . S
C710 C719 1.390 . S
C711 C710 1.387 . S
C711 C713 1.387 . S
H712 C719 0.950 . S
C713 C711 1.387 . S
C713 C715 1.390 . S
C713 H717 0.950 . S
H714 C710 0.950 . S
C715 C713 1.390 . S
C715 C716 1.387 . S
C715 H718 0.950 . S
C716 C715 1.387 . S
C716 C719 1.387 . S
H717 C713 0.950 . S
H718 C715 0.950 . S
C719 C710 1.390 . S
C719 H712 0.950 . S
C719 C716 1.387 . S
C720 C721 1.387 . S
C720 H724 0.950 . S
C720 C729 1.390 . S
C721 C720 1.387 . S
C721 C723 1.387 . S
H722 C729 0.950 . S
C723 C721 1.387 . S
C723 C725 1.390 . S
C723 H727 0.950 . S
H724 C720 0.950 . S
C725 C723 1.390 . S
C725 C726 1.387 . S
C725 H728 0.950 . S
C726 C725 1.387 . S
C726 C729 1.387 . S
H727 C723 0.950 . S
H728 C725 0.950 . S
C729 C720 1.390 . S
C729 H722 0.950 . S
C729 C726 1.387 . S
C730 C731 1.387 . S
C730 H734 0.950 . S
C730 C739 1.390 . S
C731 C730 1.387 . S
C731 C733 1.387 . S
H732 C739 0.950 . S
C733 C731 1.387 . S
C733 C735 1.390 . S
C733 H737 0.950 . S
H734 C730 0.950 . S
C735 C733 1.390 . S
C735 C736 1.387 . S
C735 H738 0.950 . S
C736 C735 1.387 . S
C736 C739 1.387 . S
H737 C733 0.950 . S
H738 C735 0.950 . S
C739 C730 1.390 . S
C739 H732 0.950 . S
C739 C736 1.387 . S
C740 C741 1.387 . S
C740 H744 0.950 . S
C740 C749 1.390 . S
C741 C740 1.387 . S
C741 C743 1.387 . S
H742 C749 0.950 . S
C743 C741 1.387 . S
C743 C745 1.390 . S
C743 H747 0.950 . S
H744 C740 0.950 . S
C745 C743 1.390 . S
C745 C746 1.387 . S
C745 H748 0.950 . S
C746 C745 1.387 . S
C746 C749 1.387 . S
H747 C743 0.950 . S
H748 C745 0.950 . S
C749 C740 1.390 . S
C749 H742 0.950 . S
C749 C746 1.387 . S
C750 C751 1.387 . S
C750 H754 0.950 . S
C750 C759 1.390 . S
C751 C750 1.387 . S
C751 C753 1.387 . S
H752 C759 0.950 . S
C753 C751 1.387 . S
C753 C755 1.390 . S
C753 H757 0.950 . S
H754 C750 0.950 . S
C755 C753 1.390 . S
C755 C756 1.387 . S
C755 H758 0.950 . S
C756 C755 1.387 . S
C756 C759 1.387 . S
H757 C753 0.950 . S
H758 C755 0.950 . S
C759 C750 1.390 . S
C759 H752 0.950 . S
C759 C756 1.387 . S
C760 C761 1.387 . S
C760 H764 0.950 . S
C760 C769 1.390 . S
C761 C760 1.387 . S
C761 C763 1.387 . S
H762 C769 0.950 . S
C763 C761 1.387 . S
C763 C765 1.390 . S
C763 H767 0.950 . S
H764 C760 0.950 . S
C765 C763 1.390 . S
C765 C766 1.387 . S
C765 H768 0.950 . S
C766 C765 1.387 . S
C766 C769 1.387 . S
H767 C763 0.950 . S
H768 C765 0.950 . S
C769 C760 1.390 . S
C769 H762 0.950 . S
C769 C766 1.387 . S
C770 C771 1.387 . S
C770 H774 0.950 . S
C770 C779 1.390 . S
C771 C770 1.387 . S
C771 C773 1.387 . S
H772 C779 0.950 . S
C773 C771 1.387 . S
C773 C775 1.390 . S
C773 H777 0.950 . S
H774 C770 0.950 . S
C775 C773 1.390 . S
C775 C776 1.387 . S
C775 H778 0.950 . S
C776 C775 1.387 . S
C776 C779 1.387 . S
H777 C773 0.950 . S
H778 C775 0.950 . S
C779 C770 1.390 . S
C779 H772 0.950 . S
C779 C776 1.387 . S
C780 C781 1.387 1_554 S
C780 H784 0.950 . S
C780 C789 1.390 . S
C781 C780 1.387 1_556 S
C781 C783 1.387 . S
H782 C789 0.950 . S
C783 C781 1.387 . S
C783 C785 1.390 . S
C783 H787 0.950 . S
H784 C780 0.950 . S
C785 C783 1.390 . S
C785 C786 1.387 1_556 S
C785 H788 0.950 . S
C786 C785 1.387 1_554 S
C786 C789 1.387 . S
H787 C783 0.950 . S
H788 C785 0.950 . S
C789 C780 1.390 . S
C789 H782 0.950 . S
C789 C786 1.387 . S
C790 C791 1.387 . S
C790 H794 0.950 . S
C790 C799 1.390 1_455 S
C791 C790 1.387 . S
C791 C793 1.387 . S
H792 C799 0.950 . S
C793 C791 1.387 . S
C793 C795 1.390 1_455 S
C793 H797 0.950 . S
H794 C790 0.950 . S
C795 C793 1.390 1_655 S
C795 C796 1.387 . S
C795 H798 0.950 . S
C796 C795 1.387 . S
C796 C799 1.387 . S
H797 C793 0.950 . S
H798 C795 0.950 . S
C799 C790 1.390 1_655 S
C799 H792 0.950 . S
C799 C796 1.387 . S
C800 C801 1.387 . S
C800 H804 0.950 . S
C800 C809 1.390 1_564 S
C801 C800 1.387 . S
C801 C803 1.387 . S
H802 C809 0.950 . S
C803 C801 1.387 . S
C803 C805 1.390 1_564 S
C803 H807 0.950 . S
H804 C800 0.950 . S
C805 C803 1.390 1_546 S
C805 C806 1.387 . S
C805 H808 0.950 . S
C806 C805 1.387 . S
C806 C809 1.387 . S
H807 C803 0.950 . S
H808 C805 0.950 . S
C809 C800 1.390 1_546 S
C809 H802 0.950 . S
C809 C806 1.387 . S
C810 C811 1.387 . S
C810 H814 0.950 . S
C810 C819 1.390 . S
C811 C810 1.387 . S
C811 C813 1.387 . S
H812 C819 0.950 . S
C813 C811 1.387 . S
C813 C815 1.390 . S
C813 H817 0.950 . S
H814 C810 0.950 . S
C815 C813 1.390 . S
C815 C816 1.387 . S
C815 H818 0.950 . S
C816 C815 1.387 . S
C816 C819 1.387 . S
H817 C813 0.950 . S
H818 C815 0.950 . S
C819 C810 1.390 . S
C819 H812 0.950 . S
C819 C816 1.387 . S
C820 C821 1.387 . S
C820 H824 0.950 . S
C820 C829 1.390 1_655 S
C821 C820 1.387 . S
C821 C823 1.387 1_556 S
H822 C829 0.950 . S
C823 C821 1.387 1_554 S
C823 C825 1.390 1_655 S
C823 H827 0.950 . S
H824 C820 0.950 . S
C825 C823 1.390 1_455 S
C825 C826 1.387 . S
C825 H828 0.950 . S
C826 C825 1.387 . S
C826 C829 1.387 1_554 S
H827 C823 0.950 . S
H828 C825 0.950 . S
C829 C820 1.390 1_455 S
C829 H822 0.950 . S
C829 C826 1.387 1_556 S
C830 C831 1.387 . S
C830 H834 0.950 . S
C830 C839 1.390 1_565 S
C831 C830 1.387 . S
C831 C833 1.387 . S
H832 C839 0.950 . S
C833 C831 1.387 . S
C833 C835 1.390 1_565 S
C833 H837 0.950 . S
H834 C830 0.950 . S
C835 C833 1.390 1_545 S
C835 C836 1.387 . S
C835 H838 0.950 . S
C836 C835 1.387 . S
C836 C839 1.387 . S
H837 C833 0.950 . S
H838 C835 0.950 . S
C839 C830 1.390 1_545 S
C839 H832 0.950 . S
C839 C836 1.387 . S
C481 C184 1.380 . S
C486 C17 1.383 . S
C491 C224 1.379 . S
C496 C57 1.382 . S
C501 C97 1.384 . S
C506 C24 1.381 . S
C511 C137 1.385 . S
C516 C64 1.382 . S
C521 C177 1.382 . S
C526 C104 1.379 . S
C531 C144 1.380 . S
C536 C217 1.383 . S
C541 C344 1.379 . S
C546 C257 1.382 . S
C551 C297 1.382 . S
C556 C384 1.379 . S
C561 C424 1.381 . S
C566 C337 1.384 . S
C571 C377 1.385 . S
C576 C464 1.382 . S
C581 C417 1.384 . S
C586 C264 1.380 . S
C591 C304 1.382 . S
C596 C457 1.385 . S
C601 C173 1.653 . S
C606 C26 1.649 . S
C611 C66 1.649 . S
C616 C213 1.653 . S
C621 C106 1.649 . S
C626 C13 1.653 . S
C631 C146 1.647 . S
C636 C53 1.651 . S
C641 C93 1.652 . S
C646 C186 1.648 . S
C651 C133 1.650 . S
C656 C226 1.646 . S
C661 C333 1.653 . S
C666 C266 1.649 . S
C671 C306 1.648 . S
C676 C373 1.652 . S
C681 C346 1.647 . S
C686 C413 1.651 . S
C691 C453 1.650 . S
C696 C386 1.646 . S
C701 C426 1.649 . S
C706 C253 1.653 . S
C711 C293 1.652 . S
C716 C466 1.648 . S
C721 C423 1.643 . S
C726 C23 1.643 . S
C731 C63 1.646 . S
C736 C463 1.643 . S
C741 C103 1.644 . S
C746 C263 1.643 . S
C751 C143 1.646 . S
C756 C303 1.646 . S
C761 C183 1.645 . S
C766 C343 1.643 . S
C771 C383 1.643 . S
C776 C223 1.644 . S
C781 C362 2.408 . S
C786 C2 2.407 . S
C791 C402 2.409 . S
C796 C42 2.408 . S
C801 C82 2.409 . S
C806 C442 2.409 . S
C811 C122 2.407 . S
C816 C242 2.408 . S
C821 C282 2.407 . S
C826 C162 2.408 . S
C831 C322 2.407 . S
C836 C202 2.407 . S
