# Generated by pormake.
# Topology uka, (4)-cn, num edge types: 1
# Building blocks:
#     Node 0, Type 0, BuildingBlock: CEKHIL_clean_sbu_0, # of connection points: 4
#     Node 1, Type 0, BuildingBlock: CEKHIL_clean_sbu_0, # of connection points: 4
#     Node 2, Type 0, BuildingBlock: CEKHIL_clean_sbu_0, # of connection points: 4
#     Node 3, Type 0, BuildingBlock: CEKHIL_clean_sbu_0, # of connection points: 4
#     Node 4, Type 0, BuildingBlock: CEKHIL_clean_sbu_0, # of connection points: 4
#     Node 5, Type 0, BuildingBlock: CEKHIL_clean_sbu_0, # of connection points: 4
#     Node 6, Type 0, BuildingBlock: CEKHIL_clean_sbu_0, # of connection points: 4
#     Node 7, Type 0, BuildingBlock: CEKHIL_clean_sbu_0, # of connection points: 4
#     Node 8, Type 0, BuildingBlock: CEKHIL_clean_sbu_0, # of connection points: 4
#     Node 9, Type 0, BuildingBlock: CEKHIL_clean_sbu_0, # of connection points: 4
#     Node 10, Type 0, BuildingBlock: CEKHIL_clean_sbu_0, # of connection points: 4
#     Node 11, Type 0, BuildingBlock: CEKHIL_clean_sbu_0, # of connection points: 4
#     Node 12, Type 0, BuildingBlock: CEKHIL_clean_sbu_0, # of connection points: 4
#     Node 13, Type 0, BuildingBlock: CEKHIL_clean_sbu_0, # of connection points: 4
#     Node 14, Type 0, BuildingBlock: CEKHIL_clean_sbu_0, # of connection points: 4
#     Node 15, Type 0, BuildingBlock: CEKHIL_clean_sbu_0, # of connection points: 4
#     Node 16, Type 0, BuildingBlock: CEKHIL_clean_sbu_0, # of connection points: 4
#     Node 17, Type 0, BuildingBlock: CEKHIL_clean_sbu_0, # of connection points: 4
#     Node 18, Type 0, BuildingBlock: CEKHIL_clean_sbu_0, # of connection points: 4
#     Node 19, Type 0, BuildingBlock: CEKHIL_clean_sbu_0, # of connection points: 4
#     Node 20, Type 0, BuildingBlock: CEKHIL_clean_sbu_0, # of connection points: 4
#     Node 21, Type 0, BuildingBlock: CEKHIL_clean_sbu_0, # of connection points: 4
#     Node 22, Type 0, BuildingBlock: CEKHIL_clean_sbu_0, # of connection points: 4
#     Node 23, Type 0, BuildingBlock: CEKHIL_clean_sbu_0, # of connection points: 4
#     Node 24, Type 0, BuildingBlock: CEKHIL_clean_sbu_0, # of connection points: 4
#     Node 25, Type 0, BuildingBlock: CEKHIL_clean_sbu_0, # of connection points: 4
#     Node 26, Type 0, BuildingBlock: CEKHIL_clean_sbu_0, # of connection points: 4
#     Node 27, Type 0, BuildingBlock: CEKHIL_clean_sbu_0, # of connection points: 4
#     Node 28, Type 0, BuildingBlock: CEKHIL_clean_sbu_0, # of connection points: 4
#     Node 29, Type 0, BuildingBlock: CEKHIL_clean_sbu_0, # of connection points: 4
#     Node 30, Type 0, BuildingBlock: CEKHIL_clean_sbu_0, # of connection points: 4
#     Node 31, Type 0, BuildingBlock: CEKHIL_clean_sbu_0, # of connection points: 4
#     Edge 32, Type (0, 0), BuildingBlock: XIVTED_clean_linker_0, # of connection points: 2
#     Edge 33, Type (0, 0), BuildingBlock: XIVTED_clean_linker_0, # of connection points: 2
#     Edge 34, Type (0, 0), BuildingBlock: XIVTED_clean_linker_0, # of connection points: 2
#     Edge 35, Type (0, 0), BuildingBlock: XIVTED_clean_linker_0, # of connection points: 2
#     Edge 36, Type (0, 0), BuildingBlock: XIVTED_clean_linker_0, # of connection points: 2
#     Edge 37, Type (0, 0), BuildingBlock: XIVTED_clean_linker_0, # of connection points: 2
#     Edge 38, Type (0, 0), BuildingBlock: XIVTED_clean_linker_0, # of connection points: 2
#     Edge 39, Type (0, 0), BuildingBlock: XIVTED_clean_linker_0, # of connection points: 2
#     Edge 40, Type (0, 0), BuildingBlock: XIVTED_clean_linker_0, # of connection points: 2
#     Edge 41, Type (0, 0), BuildingBlock: XIVTED_clean_linker_0, # of connection points: 2
#     Edge 42, Type (0, 0), BuildingBlock: XIVTED_clean_linker_0, # of connection points: 2
#     Edge 43, Type (0, 0), BuildingBlock: XIVTED_clean_linker_0, # of connection points: 2
#     Edge 44, Type (0, 0), BuildingBlock: XIVTED_clean_linker_0, # of connection points: 2
#     Edge 45, Type (0, 0), BuildingBlock: XIVTED_clean_linker_0, # of connection points: 2
#     Edge 46, Type (0, 0), BuildingBlock: XIVTED_clean_linker_0, # of connection points: 2
#     Edge 47, Type (0, 0), BuildingBlock: XIVTED_clean_linker_0, # of connection points: 2
#     Edge 48, Type (0, 0), BuildingBlock: XIVTED_clean_linker_0, # of connection points: 2
#     Edge 49, Type (0, 0), BuildingBlock: XIVTED_clean_linker_0, # of connection points: 2
#     Edge 50, Type (0, 0), BuildingBlock: XIVTED_clean_linker_0, # of connection points: 2
#     Edge 51, Type (0, 0), BuildingBlock: XIVTED_clean_linker_0, # of connection points: 2
#     Edge 52, Type (0, 0), BuildingBlock: XIVTED_clean_linker_0, # of connection points: 2
#     Edge 53, Type (0, 0), BuildingBlock: XIVTED_clean_linker_0, # of connection points: 2
#     Edge 54, Type (0, 0), BuildingBlock: XIVTED_clean_linker_0, # of connection points: 2
#     Edge 55, Type (0, 0), BuildingBlock: XIVTED_clean_linker_0, # of connection points: 2
#     Edge 56, Type (0, 0), BuildingBlock: XIVTED_clean_linker_0, # of connection points: 2
#     Edge 57, Type (0, 0), BuildingBlock: XIVTED_clean_linker_0, # of connection points: 2
#     Edge 58, Type (0, 0), BuildingBlock: XIVTED_clean_linker_0, # of connection points: 2
#     Edge 59, Type (0, 0), BuildingBlock: XIVTED_clean_linker_0, # of connection points: 2
#     Edge 60, Type (0, 0), BuildingBlock: XIVTED_clean_linker_0, # of connection points: 2
#     Edge 61, Type (0, 0), BuildingBlock: XIVTED_clean_linker_0, # of connection points: 2
#     Edge 62, Type (0, 0), BuildingBlock: XIVTED_clean_linker_0, # of connection points: 2
#     Edge 63, Type (0, 0), BuildingBlock: XIVTED_clean_linker_0, # of connection points: 2
#     Edge 64, Type (0, 0), BuildingBlock: XIVTED_clean_linker_0, # of connection points: 2
#     Edge 65, Type (0, 0), BuildingBlock: XIVTED_clean_linker_0, # of connection points: 2
#     Edge 66, Type (0, 0), BuildingBlock: XIVTED_clean_linker_0, # of connection points: 2
#     Edge 67, Type (0, 0), BuildingBlock: XIVTED_clean_linker_0, # of connection points: 2
#     Edge 68, Type (0, 0), BuildingBlock: XIVTED_clean_linker_0, # of connection points: 2
#     Edge 69, Type (0, 0), BuildingBlock: XIVTED_clean_linker_0, # of connection points: 2
#     Edge 70, Type (0, 0), BuildingBlock: XIVTED_clean_linker_0, # of connection points: 2
#     Edge 71, Type (0, 0), BuildingBlock: XIVTED_clean_linker_0, # of connection points: 2
#     Edge 72, Type (0, 0), BuildingBlock: XIVTED_clean_linker_0, # of connection points: 2
#     Edge 73, Type (0, 0), BuildingBlock: XIVTED_clean_linker_0, # of connection points: 2
#     Edge 74, Type (0, 0), BuildingBlock: XIVTED_clean_linker_0, # of connection points: 2
#     Edge 75, Type (0, 0), BuildingBlock: XIVTED_clean_linker_0, # of connection points: 2
#     Edge 76, Type (0, 0), BuildingBlock: XIVTED_clean_linker_0, # of connection points: 2
#     Edge 77, Type (0, 0), BuildingBlock: XIVTED_clean_linker_0, # of connection points: 2
#     Edge 78, Type (0, 0), BuildingBlock: XIVTED_clean_linker_0, # of connection points: 2
#     Edge 79, Type (0, 0), BuildingBlock: XIVTED_clean_linker_0, # of connection points: 2
#     Edge 80, Type (0, 0), BuildingBlock: XIVTED_clean_linker_0, # of connection points: 2
#     Edge 81, Type (0, 0), BuildingBlock: XIVTED_clean_linker_0, # of connection points: 2
#     Edge 82, Type (0, 0), BuildingBlock: XIVTED_clean_linker_0, # of connection points: 2
#     Edge 83, Type (0, 0), BuildingBlock: XIVTED_clean_linker_0, # of connection points: 2
#     Edge 84, Type (0, 0), BuildingBlock: XIVTED_clean_linker_0, # of connection points: 2
#     Edge 85, Type (0, 0), BuildingBlock: XIVTED_clean_linker_0, # of connection points: 2
#     Edge 86, Type (0, 0), BuildingBlock: XIVTED_clean_linker_0, # of connection points: 2
#     Edge 87, Type (0, 0), BuildingBlock: XIVTED_clean_linker_0, # of connection points: 2
#     Edge 88, Type (0, 0), BuildingBlock: XIVTED_clean_linker_0, # of connection points: 2
#     Edge 89, Type (0, 0), BuildingBlock: XIVTED_clean_linker_0, # of connection points: 2
#     Edge 90, Type (0, 0), BuildingBlock: XIVTED_clean_linker_0, # of connection points: 2
#     Edge 91, Type (0, 0), BuildingBlock: XIVTED_clean_linker_0, # of connection points: 2
#     Edge 92, Type (0, 0), BuildingBlock: XIVTED_clean_linker_0, # of connection points: 2
#     Edge 93, Type (0, 0), BuildingBlock: XIVTED_clean_linker_0, # of connection points: 2
#     Edge 94, Type (0, 0), BuildingBlock: XIVTED_clean_linker_0, # of connection points: 2
#     Edge 95, Type (0, 0), BuildingBlock: XIVTED_clean_linker_0, # of connection points: 2
# Relax obj value: 0.116
# Max RMSD: 0.170
# Mean RMSD: 0.170
data_MOF--net-uka--node1-CEKHIL_clean_sbu_0--edge1-XIVTED_clean_linker_0
_symmetry_space_group_name_H-M    P1
_symmetry_Int_Tables_number       1
_symmetry_cell_setting            triclinic
loop_
_symmetry_equiv_pos_as_xyz
'x, y, z'
_cell_length_a     59.319154
_cell_length_b     59.2587
_cell_length_c     41.727121
_cell_angle_alpha  90.01211
_cell_angle_beta   90.015869
_cell_angle_gamma 89.972382
loop_
_atom_site_label
_atom_site_type_symbol
_atom_site_fract_x
_atom_site_fract_y
_atom_site_fract_z
_atom_type_partial_charge
Co0 Co 0.1335 0.25627 0.24601 0.0
O1 O 0.15942 0.24655 0.22217 0.0
O2 O 0.15882 0.27507 0.25661 0.0
C3 C 0.12265 0.22183 0.26302 0.0
O4 O 0.11096 0.27048 0.27638 0.0
Co5 Co 0.08478 0.24132 0.22868 0.0
O6 O 0.0775 0.25295 0.27218 0.0
C7 C 0.10771 0.27626 0.19011 0.0
C8 C 0.17042 0.26202 0.23779 0.0
C9 C 0.09086 0.26651 0.28636 0.0
O10 O 0.12394 0.27738 0.21051 0.0
O11 O 0.09186 0.26164 0.19152 0.0
O12 O 0.13893 0.23249 0.27724 0.0
O13 O 0.11519 0.23116 0.2371 0.0
Co14 Co 0.98604 0.8791 0.50409 0.0
O15 O 0.00287 0.9034 0.48552 0.0
O16 O 0.97078 0.9072 0.51233 0.0
C17 C 0.0155 0.86198 0.52762 0.0
O18 O 0.96466 0.85832 0.52798 0.0
Co19 Co 0.99516 0.82935 0.48372 0.0
O20 O 0.97296 0.82194 0.51768 0.0
C21 C 0.9718 0.86051 0.44005 0.0
C22 C 0.98764 0.91665 0.49761 0.0
C23 C 0.96155 0.83705 0.53219 0.0
O24 O 0.96877 0.8747 0.46293 0.0
O25 O 0.98412 0.84287 0.44257 0.0
O26 O 0.00596 0.87926 0.54112 0.0
O27 O 0.00846 0.85705 0.49919 0.0
Co28 Co 0.36415 0.73692 0.76351 0.0
O29 O 0.3414 0.7515 0.73782 0.0
O30 O 0.33549 0.72352 0.77215 0.0
C31 C 0.38068 0.76892 0.78047 0.0
O32 O 0.38181 0.71852 0.79595 0.0
Co33 Co 0.4157 0.74114 0.75369 0.0
O34 O 0.41702 0.73193 0.79933 0.0
C35 C 0.38902 0.70922 0.71392 0.0
C36 C 0.3272 0.73846 0.7527 0.0
C37 C 0.40076 0.7204 0.81056 0.0
O38 O 0.37063 0.71433 0.72855 0.0
O39 O 0.40812 0.7184 0.7198 0.0
O40 O 0.36238 0.76163 0.79405 0.0
O41 O 0.38752 0.75762 0.75582 0.0
Co42 Co 0.49887 0.124 0.00387 0.0
O43 O 0.48561 0.10037 0.97818 0.0
O44 O 0.51224 0.09574 0.01495 0.0
C45 C 0.46641 0.14097 0.01823 0.0
O46 O 0.51579 0.14269 0.0368 0.0
Co47 Co 0.49492 0.17517 0.98995 0.0
O48 O 0.5035 0.17846 0.03558 0.0
C49 C 0.52962 0.14782 0.9566 0.0
C50 C 0.49834 0.08673 0.99466 0.0
C51 C 0.51416 0.16247 0.04913 0.0
O52 O 0.52304 0.12974 0.97084 0.0
O53 O 0.52035 0.16714 0.96046 0.0
O54 O 0.47314 0.1227 0.03248 0.0
O55 O 0.47825 0.14716 0.9937 0.0
Co56 Co 0.13175 0.72947 0.234 0.0
O57 O 0.15335 0.74114 0.2642 0.0
O58 O 0.15984 0.71404 0.22867 0.0
C59 C 0.1189 0.76324 0.21695 0.0
O60 O 0.11506 0.71368 0.19789 0.0
Co61 Co 0.08019 0.73811 0.23756 0.0
O62 O 0.08096 0.72946 0.19173 0.0
C63 C 0.10103 0.70107 0.27548 0.0
C64 C 0.16762 0.72747 0.25064 0.0
C65 C 0.0969 0.71692 0.1818 0.0
O66 O 0.12093 0.70602 0.26543 0.0
O67 O 0.08324 0.71205 0.26778 0.0
O68 O 0.13765 0.75503 0.20587 0.0
O69 O 0.10968 0.75186 0.23987 0.0
Co70 Co 0.50862 0.87202 0.48825 0.0
O71 O 0.50061 0.89321 0.52143 0.0
O72 O 0.5257 0.89914 0.48292 0.0
C73 C 0.47316 0.86218 0.47468 0.0
O74 O 0.52055 0.85578 0.44885 0.0
Co75 Co 0.49674 0.8211 0.48939 0.0
O76 O 0.50322 0.82243 0.44285 0.0
C77 C 0.53732 0.83782 0.52377 0.0
C78 C 0.51438 0.907 0.50709 0.0
C79 C 0.51571 0.83818 0.4322 0.0
O80 O 0.53321 0.85832 0.51542 0.0
O81 O 0.52453 0.82115 0.51666 0.0
O82 O 0.48191 0.88087 0.46424 0.0
O83 O 0.48516 0.85132 0.49545 0.0
Co84 Co 0.36287 0.25827 0.72917 0.0
O85 O 0.33891 0.24335 0.75164 0.0
O86 O 0.33584 0.27599 0.7259 0.0
C87 C 0.37548 0.22772 0.70238 0.0
O88 O 0.3829 0.27819 0.70191 0.0
Co89 Co 0.41321 0.24523 0.73895 0.0
O90 O 0.41709 0.26204 0.69811 0.0
C91 C 0.38913 0.27157 0.78836 0.0
C92 C 0.32619 0.25983 0.74187 0.0
C93 C 0.40244 0.2764 0.68897 0.0
O94 O 0.37231 0.2747 0.7694 0.0
O95 O 0.40585 0.25871 0.78178 0.0
O96 O 0.35796 0.23871 0.69216 0.0
O97 O 0.38326 0.23411 0.72984 0.0
Co98 Co 0.98416 0.11736 0.98772 0.0
O99 O 0.99496 0.09552 0.01829 0.0
O100 O 0.96997 0.08899 0.97974 0.0
C101 C 0.01803 0.13185 0.97499 0.0
O102 O 0.96964 0.13418 0.95066 0.0
Co103 Co 0.9898 0.16907 0.9943 0.0
O104 O 0.98362 0.16924 0.94766 0.0
C105 C 0.95317 0.14554 0.0292 0.0
C106 C 0.9821 0.08126 0.00319 0.0
C107 C 0.97265 0.15285 0.93566 0.0
O108 O 0.95904 0.12643 0.01732 0.0
O109 O 0.96354 0.16408 0.0237 0.0
O110 O 0.01125 0.11303 0.96223 0.0
O111 O 0.00509 0.14021 -0.00309 0.0
Co112 Co 0.85939 0.73694 0.72705 0.0
O113 O 0.83473 0.7474 0.7524 0.0
O114 O 0.83677 0.71367 0.72931 0.0
C115 C 0.86332 0.76774 0.69617 0.0
O116 O 0.88176 0.72088 0.69829 0.0
Co117 Co 0.90565 0.76143 0.73047 0.0
O118 O 0.91142 0.74392 0.69066 0.0
C119 C 0.89142 0.73161 0.78322 0.0
C120 C 0.82538 0.72805 0.74644 0.0
C121 C 0.9 0.72637 0.68362 0.0
O122 O 0.87462 0.72476 0.76644 0.0
O123 O 0.90461 0.74755 0.77438 0.0
O124 O 0.8479 0.75287 0.68967 0.0
O125 O 0.87364 0.76498 0.72317 0.0
Co126 Co 0.01455 0.11873 0.47875 0.0
O127 O 0.00137 0.097 0.50756 0.0
O128 O 0.02917 0.09019 0.47332 0.0
C129 C 0.98176 0.13308 0.46084 0.0
O130 O 0.03178 0.13545 0.4439 0.0
Co131 Co 0.00835 0.17046 0.48404 0.0
O132 O 0.01713 0.17009 0.43824 0.0
C133 C 0.04186 0.14712 0.52511 0.0
C134 C 0.01515 0.08256 0.49461 0.0
C135 C 0.02914 0.15384 0.428 0.0
O136 O 0.0372 0.12797 0.51224 0.0
O137 O 0.03191 0.1656 0.51782 0.0
O138 O 0.98956 0.11431 0.44919 0.0
O139 O 0.993 0.14159 0.48447 0.0
Co140 Co 0.62272 0.26054 0.23989 0.0
O141 O 0.64637 0.24535 0.26268 0.0
O142 O 0.65052 0.27624 0.23311 0.0
C143 C 0.60764 0.22948 0.21766 0.0
O144 O 0.60316 0.28017 0.21141 0.0
Co145 Co 0.57203 0.25168 0.2537 0.0
O146 O 0.56789 0.26636 0.21127 0.0
C147 C 0.59971 0.27797 0.29915 0.0
C148 C 0.65969 0.26041 0.25027 0.0
C149 C 0.58318 0.27904 0.19967 0.0
O150 O 0.61569 0.27957 0.27853 0.0
O151 O 0.58205 0.2659 0.295 0.0
O152 O 0.62541 0.23878 0.2052 0.0
O153 O 0.60091 0.23792 0.24457 0.0
Co154 Co 0.49024 0.88597 0.97961 0.0
O155 O 0.49951 0.90919 0.00882 0.0
O156 O 0.4684 0.90991 0.97929 0.0
C157 C 0.52348 0.88143 0.95439 0.0
O158 O 0.47562 0.86624 0.94569 0.0
Co159 Co 0.5111 0.83791 0.98007 0.0
O160 O 0.49756 0.836 0.93669 0.0
C161 C 0.47463 0.84948 0.02584 0.0
C162 C 0.48182 0.9202 -0.00091 0.0
C163 C 0.48122 0.84887 0.92903 0.0
O164 O 0.47331 0.86964 0.01454 0.0
O165 O 0.48904 0.83488 0.0162 0.0
O166 O 0.51025 0.89808 0.94703 0.0
O167 O 0.51758 0.86989 0.97933 0.0
Co168 Co 0.86799 0.25707 0.759 0.0
O169 O 0.84666 0.24791 0.72658 0.0
O170 O 0.84033 0.27313 0.76484 0.0
C171 C 0.8795 0.22201 0.77228 0.0
O172 O 0.88393 0.2702 0.79778 0.0
Co173 Co 0.91931 0.24718 0.75864 0.0
O174 O 0.91786 0.25441 0.80498 0.0
C175 C 0.90074 0.28614 0.72201 0.0
C176 C 0.83258 0.26133 0.74108 0.0
C177 C 0.90156 0.26651 0.81485 0.0
O178 O 0.8804 0.28177 0.73079 0.0
O179 O 0.91783 0.2741 0.72976 0.0
O180 O 0.86074 0.23005 0.78361 0.0
O181 O 0.88965 0.23458 0.75157 0.0
Co182 Co 0.48821 0.10967 0.50385 0.0
O183 O 0.50223 0.08448 0.48306 0.0
O184 O 0.47154 0.08256 0.51328 0.0
C185 C 0.52016 0.12406 0.52463 0.0
O186 O 0.46975 0.13167 0.53058 0.0
Co187 Co 0.5003 0.15912 0.48511 0.0
O188 O 0.48539 0.16616 0.52651 0.0
C189 C 0.47122 0.13143 0.44307 0.0
C190 C 0.48709 0.07212 0.49704 0.0
C191 C 0.47183 0.15231 0.53969 0.0
O192 O 0.4692 0.11614 0.46476 0.0
O193 O 0.48446 0.14841 0.44551 0.0
O194 O 0.50999 0.10739 0.53864 0.0
O195 O 0.51198 0.12997 0.49721 0.0
Co196 Co 0.62988 0.73879 0.25563 0.0
O197 O 0.65424 0.75217 0.23164 0.0
O198 O 0.65754 0.7239 0.26617 0.0
C199 C 0.61424 0.77148 0.272 0.0
O200 O 0.6102 0.72133 0.28672 0.0
Co201 Co 0.57905 0.74562 0.24138 0.0
O202 O 0.57521 0.73563 0.28641 0.0
C203 C 0.60568 0.71273 0.20342 0.0
C204 C 0.66725 0.73836 0.24735 0.0
C205 C 0.59056 0.72365 0.29921 0.0
O206 O 0.62349 0.71645 0.22021 0.0
O207 O 0.58698 0.72315 0.20729 0.0
O208 O 0.63184 0.76333 0.28641 0.0
O209 O 0.60779 0.76073 0.24663 0.0
Co210 Co 0.00644 0.87736 0.01512 0.0
O211 O 0.99087 0.90139 0.99373 0.0
O212 O 0.01987 0.90565 0.02685 0.0
C213 C 0.97541 0.85909 0.03185 0.0
O214 O 0.02598 0.85718 0.04299 0.0
Co215 Co 0.00144 0.82714 0.99444 0.0
O216 O 0.0146 0.82122 0.03737 0.0
C217 C 0.02815 0.85907 0.95545 0.0
C218 C 0.00444 0.91484 0.00898 0.0
C219 C 0.02578 0.83643 0.05192 0.0
O220 O 0.02761 0.874 0.97773 0.0
O221 O 0.01726 0.84044 0.95642 0.0
O222 O 0.9829 0.87645 0.04758 0.0
O223 O 0.98563 0.85462 0.00529 0.0
Co224 Co 0.62393 0.75221 0.7599 0.0
O225 O 0.64687 0.73306 0.74189 0.0
O226 O 0.65294 0.76403 0.77065 0.0
C227 C 0.60302 0.72443 0.78087 0.0
O228 O 0.60536 0.77536 0.78409 0.0
Co229 Co 0.57396 0.75015 0.73768 0.0
O230 O 0.56847 0.7723 0.77245 0.0
C231 C 0.60859 0.7707 0.69636 0.0
C232 C 0.6611 0.74652 0.7559 0.0
C233 C 0.58469 0.78119 0.78799 0.0
O234 O 0.62282 0.77085 0.71954 0.0
O235 O 0.5893 0.7611 0.69781 0.0
O236 O 0.62087 0.7316 0.79569 0.0
O237 O 0.59948 0.73271 0.75266 0.0
Co238 Co 0.48764 0.37833 0.00597 0.0
O239 O 0.49634 0.40008 0.97393 0.0
O240 O 0.46898 0.40452 0.00961 0.0
C241 C 0.52271 0.37022 0.02355 0.0
O242 O 0.47452 0.36162 0.04411 0.0
Co243 Co 0.50216 0.32809 0.00683 0.0
O244 O 0.4937 0.32961 0.05276 0.0
C245 C 0.46301 0.3426 0.96737 0.0
C246 C 0.48135 0.41318 0.9871 0.0
C247 C 0.4799 0.34475 0.06186 0.0
O248 O 0.46534 0.36333 0.97606 0.0
O249 O 0.47626 0.3267 0.9762 0.0
O250 O 0.5125 0.38845 0.03288 0.0
O251 O 0.51245 0.35884 0.00151 0.0
Co252 Co 0.86206 0.23787 0.25805 0.0
O253 O 0.8383 0.24883 0.231 0.0
O254 O 0.83491 0.22166 0.26734 0.0
C255 C 0.87505 0.27188 0.27319 0.0
O256 O 0.88191 0.22281 0.29162 0.0
Co257 Co 0.91262 0.24744 0.24531 0.0
O258 O 0.91605 0.23911 0.29098 0.0
C259 C 0.88935 0.21091 0.21001 0.0
C260 C 0.82544 0.23466 0.24619 0.0
C261 C 0.90132 0.22662 0.30423 0.0
O262 O 0.87086 0.21484 0.22498 0.0
O263 O 0.90746 0.2223 0.21399 0.0
O264 O 0.85741 0.26318 0.28681 0.0
O265 O 0.88292 0.26083 0.24888 0.0
Co266 Co 0.01731 0.61249 0.51724 0.0
O267 O 0.00352 0.58896 0.49269 0.0
O268 O 0.03308 0.58469 0.52482 0.0
C269 C 0.98514 0.62699 0.53683 0.0
O270 O 0.03529 0.63227 0.54758 0.0
Co271 Co 0.00797 0.66317 0.50299 0.0
O272 O 0.02033 0.66713 0.54688 0.0
C273 C 0.03669 0.63613 0.45976 0.0
C274 C 0.01824 0.57562 0.50584 0.0
C275 C 0.03292 0.65212 0.55948 0.0
O276 O 0.03776 0.62005 0.48032 0.0
O277 O 0.02417 0.65358 0.46301 0.0
O278 O 0.99415 0.60929 0.55 0.0
O279 O 0.99462 0.63392 0.51078 0.0
Co280 Co 0.63011 0.23337 0.7328 0.0
O281 O 0.65389 0.24561 0.759 0.0
O282 O 0.65808 0.21914 0.72185 0.0
C283 C 0.61474 0.26686 0.71954 0.0
O284 O 0.61097 0.21734 0.69949 0.0
Co285 Co 0.57896 0.23963 0.74522 0.0
O286 O 0.576 0.23168 0.69931 0.0
C287 C 0.60465 0.20412 0.77994 0.0
C288 C 0.66731 0.23269 0.74248 0.0
C289 C 0.59154 0.22001 0.68643 0.0
O290 O 0.62314 0.20938 0.76566 0.0
O291 O 0.58592 0.21443 0.77566 0.0
O292 O 0.63248 0.25943 0.70468 0.0
O293 O 0.60784 0.25475 0.74333 0.0
Co294 Co -0.00285 0.38289 0.98672 0.0
O295 O 0.98595 0.40788 0.01172 0.0
O296 O 0.01205 0.4101 0.9738 0.0
C297 C 0.96326 0.36787 0.9744 0.0
O298 O 0.01209 0.36227 0.95423 0.0
Co299 Co 0.98936 0.33238 0.0034 0.0
O300 O -0.00151 0.32705 0.95826 0.0
C301 C 0.02572 0.35816 0.03578 0.0
C302 C -0.001 0.4204 0.99405 0.0
C303 C 0.00981 0.34207 0.94354 0.0
O304 O 0.02159 0.37598 0.01912 0.0
O305 O 0.01421 0.33994 0.03401 0.0
O306 O 0.9709 0.38526 0.95892 0.0
O307 O 0.97518 0.36157 -0.00127 0.0
Co308 Co 0.86905 0.75154 0.23822 0.0
O309 O 0.84648 0.74479 0.27008 0.0
O310 O 0.84256 0.769 0.2299 0.0
C311 C 0.87907 0.71564 0.22698 0.0
O312 O 0.88672 0.76232 0.19965 0.0
Co313 Co 0.91971 0.73893 0.24299 0.0
O314 O 0.92039 0.74533 0.19636 0.0
C315 C 0.90252 0.78066 0.27422 0.0
C316 C 0.83361 0.75858 0.2541 0.0
C317 C 0.90492 0.75761 0.18441 0.0
O318 O 0.88218 0.77664 0.26509 0.0
O319 O 0.91915 0.76745 0.26867 0.0
O320 O 0.86082 0.72427 0.21486 0.0
O321 O 0.88919 0.72802 0.24801 0.0
Co322 Co 0.49163 0.6208 0.49008 0.0
O323 O 0.50335 0.59836 0.519 0.0
O324 O 0.47614 0.5929 0.48331 0.0
C325 C 0.52518 0.63399 0.47317 0.0
O326 O 0.47592 0.63843 0.45481 0.0
Co327 Co 0.49984 0.67218 0.49695 0.0
O328 O 0.49129 0.67289 0.45108 0.0
C329 C 0.46334 0.65019 0.53411 0.0
C330 C 0.48967 0.58449 0.50465 0.0
C331 C 0.47913 0.65709 0.43984 0.0
O332 O 0.4683 0.63077 0.52225 0.0
O333 O 0.47417 0.66832 0.52768 0.0
O334 O 0.51692 0.61543 0.46156 0.0
O335 O 0.51407 0.64275 0.4968 0.0
Co336 Co 0.3729 0.24726 0.24089 0.0
O337 O 0.35012 0.25637 0.27145 0.0
O338 O 0.34545 0.23179 0.23189 0.0
C339 C 0.38574 0.28211 0.22922 0.0
O340 O 0.39025 0.23446 0.20318 0.0
Co341 Co 0.42425 0.2555 0.24667 0.0
O342 O 0.42505 0.24891 0.20007 0.0
C343 C 0.40317 0.21617 0.27923 0.0
C344 C 0.33667 0.24332 0.25515 0.0
C345 C 0.4088 0.23774 0.18805 0.0
O346 O 0.38342 0.22169 0.26914 0.0
O347 O 0.42098 0.2277 0.27358 0.0
O348 O 0.36719 0.27464 0.21653 0.0
O349 O 0.39474 0.26925 0.25074 0.0
Co350 Co 0.49908 0.61565 0.99006 0.0
O351 O 0.49104 0.59116 0.01814 0.0
O352 O 0.516 0.58932 0.97863 0.0
C353 C 0.46367 0.62695 0.97871 0.0
O354 O 0.51086 0.63578 0.95443 0.0
Co355 Co 0.48771 0.66594 0.00218 0.0
O356 O 0.49369 0.66947 0.95575 0.0
C357 C 0.52787 0.64542 0.03298 0.0
C358 C 0.50452 0.57896 0.00064 0.0
C359 C 0.50579 0.65483 0.94157 0.0
O360 O 0.52374 0.62615 0.02001 0.0
O361 O 0.51532 0.66283 0.02945 0.0
O362 O 0.4724 0.60951 0.96457 0.0
O363 O 0.47566 0.63555 0.00158 0.0
Co364 Co 0.12743 0.76254 0.7405 0.0
O365 O 0.14987 0.75547 0.77214 0.0
O366 O 0.15388 0.7803 0.73274 0.0
C367 C 0.11817 0.72668 0.72836 0.0
O368 O 0.10922 0.77361 0.70232 0.0
Co369 Co 0.07705 0.7493 0.74661 0.0
O370 O 0.07631 0.75504 0.69988 0.0
C371 C 0.09421 0.7905 0.77887 0.0
C372 C 0.16278 0.76945 0.75664 0.0
C373 C 0.09111 0.76789 0.68746 0.0
O374 O 0.11429 0.78694 0.76844 0.0
O375 O 0.07754 0.7773 0.77354 0.0
O376 O 0.13611 0.7359 0.71629 0.0
O377 O 0.10778 0.73854 0.74978 0.0
Co378 Co 0.99002 0.37352 0.48201 0.0
O379 O 0.00575 0.39583 0.50675 0.0
O380 O 0.97476 0.40187 0.4781 0.0
C381 C 0.02038 0.35875 0.45758 0.0
O382 O 0.96997 0.35556 0.4521 0.0
Co383 Co -0.00193 0.32219 0.4921 0.0
O384 O 0.98324 0.32007 0.44949 0.0
C385 C 0.97194 0.34832 0.53935 0.0
C386 C 0.99078 0.40995 0.49599 0.0
C387 C 0.97089 0.33601 0.43889 0.0
O388 O 0.971 0.3652 0.52013 0.0
O389 O 0.98361 0.33054 0.53398 0.0
O390 O 0.01147 0.37739 0.44725 0.0
O391 O 0.01227 0.35108 0.4842 0.0
Co392 Co 0.36912 0.75792 0.25669 0.0
O393 O 0.34593 0.74435 0.23104 0.0
O394 O 0.3413 0.77388 0.26308 0.0
C395 C 0.38258 0.72536 0.27687 0.0
O396 O 0.38803 0.77574 0.28844 0.0
Co397 Co 0.42018 0.74811 0.24716 0.0
O398 O 0.42228 0.75973 0.29166 0.0
C399 C 0.39592 0.77847 0.20254 0.0
C400 C 0.33238 0.75887 0.24426 0.0
C401 C 0.40703 0.77276 0.30261 0.0
O402 O 0.37816 0.77842 0.22024 0.0
O403 O 0.41339 0.76638 0.20795 0.0
O404 O 0.36471 0.73466 0.28905 0.0
O405 O 0.39052 0.73494 0.25148 0.0
Co406 Co 0.98501 0.62086 0.0054 0.0
O407 O 0.99289 0.59943 0.97245 0.0
O408 O 0.96538 0.59527 0.00791 0.0
C409 C 0.02068 0.62703 0.022 0.0
O410 O 0.97224 0.63725 0.04404 0.0
Co411 Co 0.00203 0.67028 0.01027 0.0
O412 O 0.99221 0.66826 0.05562 0.0
C413 C 0.96316 0.65855 0.9679 0.0
C414 C 0.97739 0.58664 0.98499 0.0
C415 C 0.97745 0.65355 0.06289 0.0
O416 O 0.96367 0.63755 0.97598 0.0
O417 O 0.97733 0.67325 0.97791 0.0
O418 O 0.00972 0.60935 0.03182 0.0
O419 O 0.01036 0.63941 0.00129 0.0
Co420 Co 0.12272 0.24034 0.76314 0.0
O421 O 0.14523 0.25338 0.73535 0.0
O422 O 0.15108 0.22603 0.77074 0.0
C423 C 0.10726 0.27296 0.7799 0.0
O424 O 0.10533 0.22339 0.79743 0.0
Co425 Co 0.07119 0.24548 0.75424 0.0
O426 O 0.07013 0.237 0.80012 0.0
C427 C 0.09618 0.21155 0.71616 0.0
C428 C 0.15929 0.2398 0.74957 0.0
C429 C 0.08639 0.22574 0.81193 0.0
O430 O 0.11481 0.217 0.72985 0.0
O431 O 0.07731 0.22122 0.72192 0.0
O432 O 0.12599 0.26569 0.79231 0.0
O433 O 0.09968 0.26153 0.75577 0.0
Co434 Co 0.5102 0.38336 0.51912 0.0
O435 O 0.5028 0.4062 0.48821 0.0
O436 O 0.52813 0.40968 0.52706 0.0
C437 C 0.47442 0.37419 0.5317 0.0
O438 O 0.52174 0.36475 0.55656 0.0
Co439 Co 0.49611 0.33306 0.51334 0.0
O440 O 0.50291 0.33203 0.5598 0.0
C441 C 0.53703 0.34995 0.47977 0.0
C442 C 0.51689 0.41894 0.50379 0.0
C443 C 0.51626 0.34664 0.5716 0.0
O444 O 0.53407 0.37017 0.49022 0.0
O445 O 0.52361 0.33353 0.48558 0.0
O446 O 0.48386 0.39187 0.54425 0.0
O447 O 0.48606 0.36398 0.50994 0.0
H448 H 0.07053 0.13658 0.41292 0.0
H449 H 0.08025 0.20593 0.24976 0.0
H450 H 0.01733 0.17889 0.37589 0.0
H451 H 0.13601 0.19751 0.31515 0.0
H452 H 0.05665 0.18336 0.28563 0.0
H453 H 0.09392 0.14678 0.36659 0.0
C454 C 0.06363 0.14764 0.39472 0.0
C455 C 0.04215 0.15723 0.39836 0.0
C456 C 0.07419 0.18613 0.29168 0.0
C457 C 0.0685 0.16849 0.34545 0.0
C458 C 0.08768 0.19898 0.27129 0.0
C459 C 0.10992 0.20415 0.28004 0.0
C460 C 0.08324 0.17799 0.32049 0.0
C461 C 0.11879 0.1943 0.30789 0.0
C462 C 0.07697 0.15345 0.36844 0.0
C463 C 0.03397 0.17145 0.37416 0.0
N464 N 0.10534 0.18184 0.32737 0.0
N465 N 0.04721 0.17675 0.34873 0.0
H466 H 0.04283 0.87468 0.57647 0.0
H467 H 0.062 0.75349 0.64088 0.0
H468 H 0.02458 0.81712 0.51872 0.0
H469 H 0.1076 0.80775 0.66466 0.0
H470 H 0.04814 0.77565 0.59544 0.0
H471 H 0.06666 0.85026 0.60934 0.0
C472 C 0.04404 0.85691 0.57057 0.0
C473 C 0.03163 0.8478 0.54514 0.0
C474 C 0.06151 0.78247 0.61025 0.0
C475 C 0.05849 0.8198 0.58275 0.0
C476 C 0.06934 0.7699 0.63622 0.0
C477 C 0.08568 0.77899 0.65683 0.0
C478 C 0.06973 0.8044 0.60543 0.0
C479 C 0.09485 0.80019 0.64951 0.0
C480 C 0.05773 0.84304 0.58915 0.0
C481 C 0.03386 0.82474 0.53825 0.0
N482 N 0.08638 0.81241 0.62479 0.0
N483 N 0.04671 0.81137 0.55741 0.0
H484 H 0.43782 0.86171 0.91671 0.0
H485 H 0.4245 0.77934 0.76663 0.0
H486 H 0.49229 0.82136 0.87882 0.0
H487 H 0.36969 0.79696 0.82992 0.0
H488 H 0.4496 0.80351 0.798 0.0
H489 H 0.41303 0.84682 0.8749 0.0
C490 C 0.44466 0.84999 0.89932 0.0
C491 C 0.46702 0.84241 0.90155 0.0
C492 C 0.432 0.80227 0.8047 0.0
C493 C 0.43885 0.82553 0.85378 0.0
C494 C 0.41767 0.78853 0.78685 0.0
C495 C 0.3951 0.78584 0.79613 0.0
C496 C 0.42358 0.81362 0.83164 0.0
C497 C 0.38707 0.79833 0.82228 0.0
C498 C 0.43049 0.84147 0.87559 0.0
C499 C 0.47503 0.8273 0.8783 0.0
N500 N 0.40136 0.8116 0.8393 0.0
N501 N 0.46089 0.81921 0.85545 0.0
H502 H 0.38519 0.20188 0.16463 0.0
H503 H 0.46072 0.18651 0.00845 0.0
H504 H 0.43969 0.24722 0.14092 0.0
H505 H 0.43677 0.13086 0.0658 0.0
H506 H 0.44215 0.21278 0.04537 0.0
H507 H 0.39355 0.17998 0.11648 0.0
C508 C 0.39867 0.20747 0.14904 0.0
C509 C 0.41204 0.22619 0.15706 0.0
C510 C 0.44067 0.19478 0.04937 0.0
C511 C 0.42134 0.20138 0.10186 0.0
C512 C 0.4512 0.17977 0.02837 0.0
C513 C 0.45088 0.15651 0.03475 0.0
C514 C 0.42917 0.18631 0.07613 0.0
C515 C 0.43783 0.1487 0.06045 0.0
C516 C 0.4034 0.19494 0.12164 0.0
C517 C 0.42923 0.23267 0.13588 0.0
N518 N 0.42763 0.1636 0.08042 0.0
N519 N 0.43351 0.22017 0.10924 0.0
H520 H 0.07506 0.77596 0.22584 0.0
H521 H 0.06655 0.85341 0.07068 0.0
H522 H 0.13322 0.78903 0.16647 0.0
H523 H 0.01579 0.80457 0.09652 0.0
H524 H 0.08987 0.84022 0.11574 0.0
H525 H 0.05189 0.79776 0.1886 0.0
C526 C 0.08306 0.78371 0.20529 0.0
C527 C 0.10598 0.78017 0.19871 0.0
C528 C 0.07351 0.83264 0.11159 0.0
C529 C 0.07967 0.80546 0.15668 0.0
C530 C 0.06025 0.84011 0.08606 0.0
C531 C 0.03942 0.82981 0.0798 0.0
C532 C 0.0655 0.81526 0.13133 0.0
C533 C 0.03192 0.81268 0.10035 0.0
C534 C 0.0698 0.79611 0.18411 0.0
C535 C 0.11551 0.79104 0.17208 0.0
N536 N 0.04496 0.80596 0.12531 0.0
N537 N 0.10224 0.8031 0.15179 0.0
H538 H 0.4336 0.75974 0.35241 0.0
H539 H 0.44821 0.87889 0.42487 0.0
H540 H 0.3909 0.81421 0.32027 0.0
H541 H 0.45751 0.81917 0.48261 0.0
H542 H 0.42625 0.85657 0.38668 0.0
H543 H 0.44307 0.78169 0.40014 0.0
C544 C 0.42617 0.77631 0.35551 0.0
C545 C 0.4117 0.78535 0.33228 0.0
C546 C 0.43271 0.8485 0.40808 0.0
C547 C 0.42248 0.8105 0.38659 0.0
C548 C 0.44523 0.86121 0.42987 0.0
C549 C 0.45526 0.85069 0.45641 0.0
C550 C 0.43066 0.82514 0.41268 0.0
C551 C 0.4506 0.82782 0.46199 0.0
C552 C 0.43138 0.78871 0.38287 0.0
C553 C 0.40223 0.80673 0.33763 0.0
N554 N 0.43913 0.81563 0.43982 0.0
N555 N 0.40813 0.81882 0.36401 0.0
H556 H 0.36169 0.20862 0.64599 0.0
H557 H 0.48347 0.18257 0.58566 0.0
H558 H 0.41855 0.21231 0.71036 0.0
H559 H 0.42819 0.14102 0.55359 0.0
H560 H 0.45936 0.19776 0.62815 0.0
H561 H 0.38498 0.18706 0.60818 0.0
C562 C 0.37898 0.20474 0.65228 0.0
C563 C 0.3883 0.21249 0.68116 0.0
C564 C 0.4526 0.18518 0.61195 0.0
C565 C 0.41492 0.18839 0.63799 0.0
C566 C 0.46625 0.17665 0.58766 0.0
C567 C 0.45771 0.16062 0.56616 0.0
C568 C 0.4301 0.17808 0.61416 0.0
C569 C 0.43536 0.15333 0.56984 0.0
C570 C 0.39218 0.19242 0.63079 0.0
C571 C 0.41074 0.20689 0.68824 0.0
N572 N 0.42213 0.16241 0.59314 0.0
N573 N 0.42343 0.19553 0.66652 0.0
H574 H 0.10638 0.18661 0.83176 0.0
H575 H 0.02823 0.17614 0.9863 0.0
H576 H 0.05794 0.23707 0.86062 0.0
H577 H 0.0477 0.11899 0.92836 0.0
H578 H 0.05098 0.2006 0.95201 0.0
H579 H 0.09615 0.16409 0.87888 0.0
C580 C 0.0939 0.19312 0.84831 0.0
C581 C 0.08262 0.21347 0.84208 0.0
C582 C 0.05058 0.18262 0.94729 0.0
C583 C 0.07129 0.18812 0.89587 0.0
C584 C 0.03763 0.16864 0.96678 0.0
C585 C 0.03555 0.14562 0.95947 0.0
C586 C 0.0618 0.17339 0.9208 0.0
C587 C 0.04848 0.13675 0.93433 0.0
C588 C 0.0881 0.18028 0.87506 0.0
C589 C 0.06667 0.22122 0.86429 0.0
N590 N 0.0609 0.15073 0.91557 0.0
N591 N 0.06136 0.20845 0.89017 0.0
H592 H 0.9461 0.85939 0.58521 0.0
H593 H 0.85723 0.76393 0.63164 0.0
H594 H 0.93716 0.79807 0.53083 0.0
H595 H 0.89155 0.8038 0.70316 0.0
H596 H 0.87848 0.78354 0.58985 0.0
H597 H 0.91841 0.84565 0.62436 0.0
C598 C 0.93814 0.84317 0.58135 0.0
C599 C 0.94404 0.82971 0.55498 0.0
C600 C 0.88106 0.7882 0.61468 0.0
C601 C 0.91229 0.81424 0.59908 0.0
C602 C 0.86886 0.77717 0.63851 0.0
C603 C 0.87281 0.78219 0.67087 0.0
C604 C 0.89702 0.80456 0.62331 0.0
C605 C 0.88815 0.79938 0.67845 0.0
C606 C 0.92245 0.83536 0.60367 0.0
C607 C 0.93328 0.80883 0.55108 0.0
N608 N 0.89983 0.80993 0.65479 0.0
N609 N 0.91787 0.80173 0.57289 0.0
H610 H 0.95373 0.11874 0.41305 0.0
H611 H 0.93068 0.24029 0.35047 0.0
H612 H 0.9702 0.17725 0.47005 0.0
H613 H 0.88708 0.18505 0.32403 0.0
H614 H 0.94549 0.21757 0.39463 0.0
H615 H 0.92893 0.14226 0.38011 0.0
C616 C 0.95191 0.13646 0.41886 0.0
C617 C 0.96433 0.14616 0.4439 0.0
C618 C 0.9324 0.21057 0.37951 0.0
C619 C 0.93636 0.17309 0.40623 0.0
C620 C 0.92404 0.22346 0.35426 0.0
C621 C 0.90785 0.21438 0.33347 0.0
C622 C 0.9249 0.18828 0.38343 0.0
C623 C 0.89962 0.19261 0.33953 0.0
C624 C 0.93771 0.14984 0.40017 0.0
C625 C 0.96119 0.16915 0.45066 0.0
N626 N 0.90859 0.18007 0.36363 0.0
N627 N 0.94785 0.18196 0.4315 0.0
H628 H 0.55356 0.14355 0.06938 0.0
H629 H 0.56314 0.21898 0.22659 0.0
H630 H 0.50298 0.19246 0.09605 0.0
H631 H 0.62038 0.20428 0.16622 0.0
H632 H 0.53897 0.19808 0.1894 0.0
H633 H 0.57609 0.15499 0.11595 0.0
C634 C 0.54705 0.15642 0.08534 0.0
C635 C 0.5266 0.16737 0.07876 0.0
C636 C 0.5569 0.19918 0.18472 0.0
C637 C 0.55191 0.18005 0.13192 0.0
C638 C 0.5707 0.21105 0.20585 0.0
C639 C 0.59368 0.21376 0.19898 0.0
C640 C 0.56634 0.18953 0.15716 0.0
C641 C 0.60265 0.20288 0.17202 0.0
C642 C 0.55989 0.16291 0.11174 0.0
C643 C 0.51886 0.18391 0.10011 0.0
N644 N 0.58891 0.19128 0.15191 0.0
N645 N 0.53159 0.18982 0.12581 0.0
H646 H 0.5264 0.89258 0.89113 0.0
H647 H 0.60718 0.79048 0.84359 0.0
H648 H 0.55467 0.84785 0.96224 0.0
H649 H 0.5506 0.81203 0.78618 0.0
H650 H 0.59688 0.81869 0.88422 0.0
H651 H 0.54513 0.87072 0.84923 0.0
C652 C 0.53701 0.87852 0.89802 0.0
C653 C 0.53877 0.87179 0.93016 0.0
C654 C 0.58693 0.81731 0.86254 0.0
C655 C 0.56014 0.84686 0.8824 0.0
C656 C 0.59276 0.80132 0.83941 0.0
C657 C 0.57953 0.79883 0.81174 0.0
C658 C 0.56812 0.83119 0.85746 0.0
C659 C 0.56103 0.81323 0.80741 0.0
C660 C 0.54753 0.86599 0.87408 0.0
C661 C 0.55274 0.85343 0.93769 0.0
N662 N 0.55589 0.82886 0.83005 0.0
N663 N 0.56279 0.84142 0.91389 0.0
H664 H 0.86486 0.19533 0.82174 0.0
H665 H 0.98531 0.17989 0.88598 0.0
H666 H 0.92228 0.20733 0.76052 0.0
H667 H 0.93279 0.13432 0.91645 0.0
H668 H 0.96254 0.18994 0.83921 0.0
H669 H 0.88864 0.17174 0.85612 0.0
C670 C 0.88233 0.19265 0.81519 0.0
C671 C 0.89179 0.2038 0.7888 0.0
C672 C 0.95621 0.1774 0.8558 0.0
C673 C 0.91899 0.17732 0.8281 0.0
C674 C 0.96911 0.17179 0.88254 0.0
C675 C 0.96074 0.15649 0.90517 0.0
C676 C 0.93458 0.1681 0.85228 0.0
C677 C 0.93977 0.14628 0.89953 0.0
C678 C 0.89586 0.17917 0.83475 0.0
C679 C 0.91444 0.19952 0.78113 0.0
N680 N 0.92711 0.15267 0.87396 0.0
N681 N 0.92745 0.18708 0.80118 0.0
H682 H 0.6093 0.17969 0.66764 0.0
H683 H 0.53252 0.16775 0.51226 0.0
H684 H 0.56168 0.23101 0.63912 0.0
H685 H 0.54513 0.11215 0.57665 0.0
H686 H 0.55452 0.19239 0.54751 0.0
H687 H 0.59681 0.15629 0.62254 0.0
C688 C 0.59653 0.1862 0.65154 0.0
C689 C 0.58624 0.20714 0.65725 0.0
C690 C 0.55272 0.1747 0.55349 0.0
C691 C 0.57233 0.18076 0.60571 0.0
C692 C 0.54021 0.16063 0.53348 0.0
C693 C 0.53658 0.13803 0.54205 0.0
C694 C 0.56213 0.16586 0.58162 0.0
C695 C 0.54724 0.1296 0.56954 0.0
C696 C 0.58943 0.17284 0.62598 0.0
C697 C 0.56977 0.21479 0.63573 0.0
N698 N 0.55949 0.14357 0.58851 0.0
N699 N 0.56324 0.20155 0.61086 0.0
H700 H 0.62569 0.79999 0.32048 0.0
H701 H 0.5036 0.81012 0.38298 0.0
H702 H 0.56974 0.78096 0.26014 0.0
H703 H 0.5546 0.85805 0.41155 0.0
H704 H 0.5268 0.79978 0.33675 0.0
H705 H 0.59997 0.82241 0.35331 0.0
C706 C 0.60804 0.80079 0.31388 0.0
C707 C 0.59973 0.78821 0.28803 0.0
C708 C 0.53266 0.8129 0.35279 0.0
C709 C 0.57023 0.81342 0.32571 0.0
C710 C 0.51951 0.81871 0.37924 0.0
C711 C 0.5274 0.83466 0.40141 0.0
C712 C 0.55401 0.82276 0.349 0.0
C713 C 0.54798 0.84551 0.39522 0.0
C714 C 0.59339 0.81364 0.33253 0.0
C715 C 0.57678 0.79007 0.28024 0.0
N716 N 0.56083 0.83898 0.36996 0.0
N717 N 0.56267 0.80198 0.29952 0.0
H718 H 0.88347 0.79495 0.16136 0.0
H719 H 0.96872 0.81456 0.01702 0.0
H720 H 0.9364 0.74751 0.13836 0.0
H721 H 0.94556 0.86762 0.07979 0.0
H722 H 0.94643 0.78734 0.0478 0.0
H723 H 0.8956 0.8186 0.1167 0.0
C724 C 0.89733 0.78922 0.14652 0.0
C725 C 0.90931 0.76947 0.15401 0.0
C726 C 0.94599 0.80503 0.05434 0.0
C727 C 0.92295 0.79636 0.1029 0.0
C728 C 0.95867 0.82056 0.0369 0.0
C729 C 0.95935 0.84326 0.04644 0.0
C730 C 0.93348 0.81248 0.08077 0.0
C731 C 0.94577 0.85018 0.07207 0.0
C732 C 0.90422 0.80278 0.12115 0.0
C733 C 0.92701 0.76285 0.13377 0.0
N734 N 0.93343 0.83479 0.0885 0.0
N735 N 0.93349 0.77643 0.10922 0.0
H736 H 0.49454 0.68949 0.90102 0.0
H737 H 0.61289 0.69107 0.82255 0.0
H738 H 0.54099 0.63383 0.91175 0.0
H739 H 0.557 0.72412 0.776 0.0
H740 H 0.58635 0.66948 0.85502 0.0
H741 H 0.51602 0.70231 0.85435 0.0
C742 C 0.50908 0.67982 0.89335 0.0
C743 C 0.51632 0.66087 0.91073 0.0
C744 C 0.57984 0.68115 0.83732 0.0
C745 C 0.54085 0.67546 0.8577 0.0
C746 C 0.59496 0.69352 0.81896 0.0
C747 C 0.58701 0.70941 0.79691 0.0
C748 C 0.55664 0.68526 0.83427 0.0
C749 C 0.56369 0.71197 0.79287 0.0
C750 C 0.5212 0.68705 0.86661 0.0
C751 C 0.53499 0.64873 0.89939 0.0
N752 N 0.54922 0.70034 0.81198 0.0
N753 N 0.54689 0.6565 0.87395 0.0
H754 H 0.55503 0.26832 0.15059 0.0
H755 H 0.54268 0.38709 0.07775 0.0
H756 H 0.59957 0.32077 0.18429 0.0
H757 H 0.54102 0.32818 0.01688 0.0
H758 H 0.5622 0.36485 0.11877 0.0
H759 H 0.54637 0.29133 0.10342 0.0
C760 C 0.56292 0.28471 0.14805 0.0
C761 C 0.57787 0.29281 0.17134 0.0
C762 C 0.55793 0.357 0.09612 0.0
C763 C 0.56805 0.31906 0.1178 0.0
C764 C 0.54685 0.36965 0.07271 0.0
C765 C 0.53963 0.35927 0.04427 0.0
C766 C 0.5613 0.33385 0.09114 0.0
C767 C 0.54572 0.3367 0.03882 0.0
C768 C 0.55819 0.29767 0.12104 0.0
C769 C 0.58791 0.31402 0.16679 0.0
N770 N 0.55564 0.32453 0.06246 0.0
N771 N 0.58252 0.32666 0.14071 0.0
H772 H 0.9187 0.28444 0.26147 0.0
H773 H 0.93015 0.35469 0.42356 0.0
H774 H 0.86196 0.29852 0.32309 0.0
H775 H 0.9806 0.30817 0.38898 0.0
H776 H 0.90661 0.34553 0.37687 0.0
H777 H 0.943 0.30561 0.29807 0.0
C778 C 0.91125 0.29238 0.28229 0.0
C779 C 0.88846 0.28912 0.28992 0.0
C780 C 0.92297 0.33761 0.37944 0.0
C781 C 0.91597 0.31358 0.33121 0.0
C782 C 0.93634 0.34275 0.40596 0.0
C783 C 0.95708 0.3318 0.41028 0.0
C784 C 0.93074 0.32187 0.35691 0.0
C785 C 0.96447 0.3166 0.38679 0.0
C786 C 0.92513 0.3044 0.30312 0.0
C787 C 0.87959 0.30021 0.3168 0.0
N788 N 0.95127 0.31203 0.36107 0.0
N789 N 0.89345 0.31176 0.3368 0.0
H790 H 0.892 0.68126 0.67608 0.0
H791 H 0.97092 0.66963 0.52223 0.0
H792 H 0.92738 0.73741 0.63352 0.0
H793 H 0.96081 0.61543 0.58985 0.0
H794 H 0.94652 0.69374 0.55473 0.0
H795 H 0.90899 0.65613 0.63616 0.0
C796 C 0.90315 0.68832 0.65814 0.0
C797 C 0.9086 0.71135 0.65833 0.0
C798 C 0.9495 0.67649 0.5622 0.0
C799 C 0.92774 0.68288 0.61267 0.0
C800 C 0.96336 0.66271 0.5437 0.0
C801 C 0.96817 0.64064 0.55373 0.0
C802 C 0.94013 0.66799 0.59058 0.0
C803 C 0.95774 0.63246 0.58154 0.0
C804 C 0.91284 0.67399 0.6355 0.0
C805 C 0.92307 0.71967 0.63452 0.0
N806 N 0.94424 0.6462 0.59915 0.0
N807 N 0.93219 0.70541 0.61264 0.0
H808 H 0.50366 0.31671 0.61823 0.0
H809 H 0.62657 0.29751 0.67385 0.0
H810 H 0.55645 0.36349 0.59261 0.0
H811 H 0.57077 0.27695 0.73342 0.0
H812 H 0.60126 0.32283 0.64477 0.0
H813 H 0.52729 0.30263 0.66194 0.0
C814 C 0.52006 0.32427 0.62214 0.0
C815 C 0.52829 0.341 0.60145 0.0
C816 C 0.59466 0.31306 0.66459 0.0
C817 C 0.55541 0.32481 0.65092 0.0
C818 C 0.60906 0.29855 0.68107 0.0
C819 C 0.60063 0.28479 0.70557 0.0
C820 C 0.57162 0.31335 0.67223 0.0
C821 C 0.57788 0.28699 0.71428 0.0
C822 C 0.53348 0.31632 0.64715 0.0
C823 C 0.54954 0.35042 0.60782 0.0
N824 N 0.56399 0.30061 0.6971 0.0
N825 N 0.5626 0.34183 0.63157 0.0
H826 H 0.95367 0.32387 0.98976 0.0
H827 H 0.87911 0.30452 0.83351 0.0
H828 H 0.93472 0.3774 0.92496 0.0
H829 H 0.92994 0.25728 0.86511 0.0
H830 H 0.8878 0.3285 0.87957 0.0
H831 H 0.93302 0.29702 0.95621 0.0
C832 C 0.94483 0.33008 0.96887 0.0
C833 C 0.94653 0.35277 0.95947 0.0
C834 C 0.8967 0.31266 0.87664 0.0
C835 C 0.92243 0.32234 0.92186 0.0
C836 C 0.89177 0.29894 0.85046 0.0
C837 C 0.90416 0.27908 0.84516 0.0
C838 C 0.91382 0.30628 0.89791 0.0
C839 C 0.92029 0.27266 0.86801 0.0
C840 C 0.93307 0.31474 0.94983 0.0
C841 C 0.93423 0.35995 0.93264 0.0
N842 N 0.92481 0.28635 0.89334 0.0
N843 N 0.92285 0.34472 0.91454 0.0
H844 H 0.98879 0.67723 0.11696 0.0
H845 H 0.86559 0.69143 0.1744 0.0
H846 H 0.93558 0.6368 0.07586 0.0
H847 H 0.92119 0.69942 0.2402 0.0
H848 H 0.89027 0.67002 0.13865 0.0
H849 H 0.96436 0.68538 0.16283 0.0
C850 C 0.97207 0.66989 0.11776 0.0
C851 C 0.96409 0.65657 0.09242 0.0
C852 C 0.89691 0.67607 0.16124 0.0
C853 C 0.9361 0.66594 0.14449 0.0
C854 C 0.88283 0.68826 0.18168 0.0
C855 C 0.89154 0.69778 0.20984 0.0
C856 C 0.91987 0.67384 0.16884 0.0
C857 C 0.91394 0.69291 0.21827 0.0
C858 C 0.95822 0.67439 0.14401 0.0
C859 C 0.94237 0.64727 0.09482 0.0
N860 N 0.92754 0.68179 0.19742 0.0
N861 N 0.92894 0.6525 0.1201 0.0
H862 H 0.60867 0.68373 0.3193 0.0
H863 H 0.53626 0.67866 0.47987 0.0
H864 H 0.56083 0.73524 0.34629 0.0
H865 H 0.5516 0.61931 0.42393 0.0
H866 H 0.55649 0.70167 0.44059 0.0
H867 H 0.59814 0.66213 0.36716 0.0
C868 C 0.59615 0.69059 0.33548 0.0
C869 C 0.58534 0.71111 0.32872 0.0
C870 C 0.5557 0.68355 0.43734 0.0
C871 C 0.57374 0.68687 0.38347 0.0
C872 C 0.54423 0.67039 0.45971 0.0
C873 C 0.54168 0.64714 0.45456 0.0
C874 C 0.56513 0.67323 0.41025 0.0
C875 C 0.55279 0.63727 0.4284 0.0
C876 C 0.59019 0.67829 0.36267 0.0
C877 C 0.56927 0.7193 0.35044 0.0
N878 N 0.56389 0.65042 0.40697 0.0
N879 N 0.56393 0.70713 0.37693 0.0
H880 H 0.4929 0.31906 0.11314 0.0
H881 H 0.37201 0.31059 0.1816 0.0
H882 H 0.44012 0.3638 0.08073 0.0
H883 H 0.42991 0.29356 0.23944 0.0
H884 H 0.39649 0.33243 0.14625 0.0
H885 H 0.47065 0.31078 0.16105 0.0
C886 C 0.47673 0.3273 0.11627 0.0
C887 C 0.46812 0.34177 0.09266 0.0
C888 C 0.40376 0.32427 0.16705 0.0
C889 C 0.44264 0.33233 0.14717 0.0
C890 C 0.3898 0.3118 0.18721 0.0
C891 C 0.39906 0.29967 0.21287 0.0
C892 C 0.42714 0.32418 0.17228 0.0
C893 C 0.42215 0.30213 0.21938 0.0
C894 C 0.46415 0.32273 0.14372 0.0
C895 C 0.44728 0.35232 0.09817 0.0
N896 N 0.43555 0.31361 0.19866 0.0
N897 N 0.43502 0.34703 0.12457 0.0
H898 H 0.45029 0.67045 0.99082 0.0
H899 H 0.38074 0.68083 0.82817 0.0
H900 H 0.43645 0.61334 0.92967 0.0
H901 H 0.42857 0.73078 0.8605 0.0
H902 H 0.38919 0.65812 0.87585 0.0
H903 H 0.42932 0.69461 0.95376 0.0
C904 C 0.44242 0.66287 0.97005 0.0
C905 C 0.44584 0.64004 0.96258 0.0
C906 C 0.39751 0.67423 0.87262 0.0
C907 C 0.42147 0.66738 0.92088 0.0
C908 C 0.39276 0.68715 0.84553 0.0
C909 C 0.40427 0.7075 0.84026 0.0
C910 C 0.41346 0.68201 0.8948 0.0
C911 C 0.41964 0.71498 0.86348 0.0
C912 C 0.43051 0.67668 0.94896 0.0
C913 C 0.4347 0.631 0.93584 0.0
N914 N 0.42384 0.70218 0.88978 0.0
N915 N 0.42323 0.64479 0.91562 0.0
H916 H 0.07539 0.71071 0.73775 0.0
H917 H 0.07426 0.6366 0.57839 0.0
H918 H 0.13509 0.70014 0.6805 0.0
H919 H 0.01987 0.68056 0.60711 0.0
H920 H 0.09568 0.64859 0.62589 0.0
H921 H 0.05406 0.68721 0.70034 0.0
C922 C 0.08414 0.70307 0.71774 0.0
C923 C 0.10685 0.70799 0.71153 0.0
C924 C 0.07893 0.65531 0.62186 0.0
C925 C 0.0827 0.68087 0.66931 0.0
C926 C 0.06676 0.64855 0.59489 0.0
C927 C 0.04548 0.65793 0.58871 0.0
C928 C 0.06943 0.67106 0.643 0.0
C929 C 0.03641 0.67327 0.61079 0.0
C930 C 0.07194 0.68972 0.69644 0.0
C931 C 0.11745 0.69718 0.68569 0.0
N932 N 0.04846 0.67938 0.63702 0.0
N933 N 0.10519 0.6843 0.66518 0.0
H934 H 0.04473 0.37329 0.40647 0.0
H935 H 0.05788 0.254 0.32866 0.0
H936 H 0.02919 0.31335 0.46086 0.0
H937 H 0.10549 0.30722 0.30843 0.0
H938 H 0.04387 0.27593 0.37443 0.0
H939 H 0.06464 0.34993 0.36731 0.0
C940 C 0.0457 0.35524 0.41031 0.0
C941 C 0.03507 0.34518 0.43668 0.0
C942 C 0.05753 0.28262 0.36008 0.0
C943 C 0.0573 0.31845 0.39178 0.0
C944 C 0.06538 0.27026 0.33389 0.0
C945 C 0.08274 0.27892 0.31467 0.0
C946 C 0.06678 0.30394 0.36649 0.0
C947 C 0.09207 0.29994 0.32265 0.0
C948 C 0.05706 0.34196 0.38803 0.0
C949 C 0.03695 0.32174 0.44068 0.0
N950 N 0.08374 0.31191 0.34771 0.0
N951 N 0.04748 0.30905 0.41806 0.0
H952 H 0.49133 0.68392 0.38974 0.0
H953 H 0.36944 0.70128 0.32941 0.0
H954 H 0.43805 0.64021 0.42293 0.0
H955 H 0.42584 0.71154 0.2657 0.0
H956 H 0.39376 0.67878 0.36441 0.0
H957 H 0.46773 0.69483 0.34417 0.0
C958 C 0.47476 0.67644 0.38717 0.0
C959 C 0.46645 0.66139 0.41021 0.0
C960 C 0.40066 0.68565 0.34245 0.0
C961 C 0.43942 0.67395 0.35869 0.0
C962 C 0.38684 0.69853 0.32257 0.0
C963 C 0.39579 0.70867 0.29503 0.0
C964 C 0.42361 0.68339 0.33501 0.0
C965 C 0.41837 0.70438 0.28704 0.0
C966 C 0.4614 0.68253 0.36113 0.0
C967 C 0.445 0.65195 0.40569 0.0
N968 N 0.43169 0.69247 0.30736 0.0
N969 N 0.43197 0.65878 0.38075 0.0
H970 H 0.04068 0.61087 0.0769 0.0
H971 H 0.0756 0.73023 0.12736 0.0
H972 H 0.0447 0.66457 0.00721 0.0
H973 H 0.109 0.67324 0.17078 0.0
H974 H 0.06422 0.70611 0.08263 0.0
H975 H 0.06661 0.63201 0.11152 0.0
C976 C 0.04742 0.6268 0.06856 0.0
C977 C 0.04011 0.63628 0.03958 0.0
C978 C 0.07444 0.69898 0.10162 0.0
C979 C 0.06923 0.66049 0.07899 0.0
C980 C 0.0808 0.71269 0.12714 0.0
C981 C 0.09306 0.70358 0.15269 0.0
C982 C 0.07977 0.67589 0.10229 0.0
C983 C 0.09952 0.68081 0.15138 0.0
C984 C 0.0622 0.63883 0.08827 0.0
C985 C 0.04948 0.6569 0.02976 0.0
N986 N 0.09231 0.66753 0.12689 0.0
N987 N 0.06313 0.6686 0.04978 0.0
H988 H 0.11973 0.3013 0.82821 0.0
H989 H -0.00031 0.3085 0.90088 0.0
H990 H 0.06207 0.281 0.77206 0.0
H991 H 0.04834 0.36093 0.92016 0.0
H992 H 0.02264 0.29618 0.85522 0.0
H993 H 0.09455 0.32231 0.86383 0.0
C994 C 0.10182 0.30151 0.82313 0.0
C995 C 0.09291 0.28901 0.79758 0.0
C996 C 0.02805 0.31059 0.86922 0.0
C997 C 0.06413 0.31249 0.83847 0.0
C998 C 0.0151 0.31749 0.89534 0.0
C999 C 0.02226 0.33561 0.9144 0.0
C1000 C 0.04853 0.32154 0.86275 0.0
C1001 C 0.04225 0.34685 0.90607 0.0
C1002 C 0.0875 0.31351 0.8434 0.0
C1003 C 0.06961 0.29006 0.79184 0.0
N1004 N 0.05493 0.33937 0.88117 0.0
N1005 N 0.0559 0.30114 0.81264 0.0
H1006 H 0.45595 0.33347 0.51635 0.0
H1007 H 0.38852 0.31992 0.6801 0.0
H1008 H 0.45095 0.38788 0.58485 0.0
H1009 H 0.42905 0.26736 0.63756 0.0
H1010 H 0.39987 0.3455 0.63659 0.0
H1011 H 0.43316 0.30989 0.5517 0.0
C1012 C 0.44966 0.34065 0.53849 0.0
C1013 C 0.45593 0.36241 0.54824 0.0
C1014 C 0.40601 0.32827 0.63675 0.0
C1015 C 0.4297 0.33566 0.58828 0.0
C1016 C 0.39961 0.31374 0.66143 0.0
C1017 C 0.40819 0.29168 0.66251 0.0
C1018 C 0.42053 0.32039 0.61274 0.0
C1019 C 0.42242 0.28439 0.63781 0.0
C1020 C 0.43672 0.32715 0.5586 0.0
C1021 C 0.44686 0.37101 0.57679 0.0
N1022 N 0.42814 0.29873 0.61385 0.0
N1023 N 0.43439 0.35746 0.59615 0.0
H1024 H 0.30624 0.21399 0.2304 0.0
H1025 H 0.1984 0.28865 0.27391 0.0
H1026 H 0.31102 0.27501 0.28648 0.0
H1027 H 0.19891 0.23486 0.2041 0.0
H1028 H 0.23902 0.28346 0.28158 0.0
H1029 H 0.26578 0.21962 0.22579 0.0
C1030 C 0.29869 0.22841 0.24223 0.0
C1031 C 0.312 0.24414 0.25867 0.0
C1032 C 0.23023 0.27296 0.2644 0.0
C1033 C 0.26565 0.25099 0.2529 0.0
C1034 C 0.20711 0.27602 0.2598 0.0
C1035 C 0.19526 0.2621 0.23839 0.0
C1036 C 0.24145 0.25578 0.24762 0.0
C1037 C 0.20734 0.24594 0.2209 0.0
C1038 C 0.27559 0.23174 0.23932 0.0
C1039 C 0.30131 0.26246 0.27364 0.0
N1040 N 0.22972 0.24311 0.2261 0.0
N1041 N 0.2787 0.26552 0.27014 0.0
H1042 H 0.9613 0.94893 0.52619 0.0
H1043 H 0.04352 0.04943 0.47428 0.0
H1044 H 0.02145 0.94036 0.46922 0.0
H1045 H 0.98201 0.06015 0.52743 0.0
H1046 H 0.03695 0.00892 0.47631 0.0
H1047 H 0.96909 0.98946 0.52931 0.0
C1048 C 0.97601 0.9556 0.5141 0.0
C1049 C 0.99071 0.9413 0.49733 0.0
C1050 C 0.02494 0.02007 0.48776 0.0
C1051 C -0.00012 0.98743 0.5012 0.0
C1052 C 0.02876 0.04322 0.48675 0.0
C1053 C 0.01319 0.05815 0.50049 0.0
C1054 C 0.00533 0.01177 0.50245 0.0
C1055 C 0.99441 0.04919 0.51648 0.0
C1056 C 0.98052 0.97869 0.51607 0.0
C1057 C 0.00962 0.95077 0.48234 0.0
N1058 N 0.99088 0.02653 0.51676 0.0
N1059 N 0.01367 0.97322 0.48468 0.0
H1060 H 0.29441 0.71533 0.7843 0.0
H1061 H 0.19433 0.79505 0.72573 0.0
H1062 H 0.30452 0.77177 0.72047 0.0
H1063 H 0.18712 0.74363 0.79829 0.0
H1064 H 0.23497 0.78841 0.72528 0.0
H1065 H 0.25489 0.72573 0.78936 0.0
C1066 C 0.28824 0.72977 0.77099 0.0
C1067 C 0.30275 0.74268 0.75184 0.0
C1068 C 0.22452 0.7788 0.7416 0.0
C1069 C 0.25754 0.75492 0.75798 0.0
C1070 C 0.20135 0.78269 0.74205 0.0
C1071 C 0.18732 0.76964 0.76177 0.0
C1072 C 0.23362 0.76163 0.76083 0.0
C1073 C 0.1973 0.75394 0.78251 0.0
C1074 C 0.2657 0.73583 0.77417 0.0
C1075 C 0.29386 0.76128 0.73534 0.0
N1076 N 0.21983 0.75015 0.78117 0.0
N1077 N 0.27178 0.76688 0.73882 0.0
H1078 H 0.46634 0.06229 0.96213 0.0
H1079 H 0.50622 0.94582 0.04079 0.0
H1080 H 0.5227 0.05521 0.02686 0.0
H1081 H 0.45312 0.95009 0.97029 0.0
H1082 H 0.50885 0.98684 0.04095 0.0
H1083 H 0.45896 0.02175 0.96742 0.0
C1084 C 0.47731 0.05218 0.97711 0.0
C1085 C 0.49521 0.06208 0.99397 0.0
C1086 C 0.49644 0.97885 0.02567 0.0
C1087 C 0.48661 0.01601 0.00068 0.0
C1088 C 0.49481 0.95543 0.0258 0.0
C1089 C 0.47965 0.94456 0.00519 0.0
C1090 C 0.48294 0.99148 0.0046 0.0
C1091 C 0.46515 0.95783 0.98641 0.0
C1092 C 0.47297 0.02912 0.98037 0.0
C1093 C 0.50875 0.04828 0.01334 0.0
N1094 N 0.46738 0.98064 0.9862 0.0
N1095 N 0.50413 0.02599 0.01621 0.0
H1096 H 0.18987 0.75874 0.28717 0.0
H1097 H 0.30907 0.72787 0.20914 0.0
H1098 H 0.20102 0.70212 0.224 0.0
H1099 H 0.29983 0.78235 0.27659 0.0
H1100 H 0.26913 0.71881 0.21372 0.0
H1101 H 0.23023 0.76708 0.28538 0.0
C1102 C 0.20086 0.74781 0.27343 0.0
C1103 C 0.19209 0.72983 0.25548 0.0
C1104 C 0.27579 0.73283 0.22741 0.0
C1105 C 0.23805 0.73955 0.25274 0.0
C1106 C 0.29856 0.73815 0.22455 0.0
C1107 C 0.30777 0.75588 0.24251 0.0
C1108 C 0.26212 0.74532 0.24841 0.0
C1109 C 0.29338 0.76857 0.26222 0.0
C1110 C 0.22386 0.7527 0.27217 0.0
C1111 C 0.20706 0.71624 0.23803 0.0
N1112 N 0.27126 0.76297 0.26479 0.0
N1113 N 0.22928 0.72153 0.23685 0.0
H1114 H 0.54317 0.93887 0.48414 0.0
H1115 H 0.46277 0.04175 0.5326 0.0
H1116 H 0.48403 0.93077 0.54324 0.0
H1117 H 0.51826 0.04646 0.46601 0.0
H1118 H 0.47148 0.0017 0.54041 0.0
H1119 H 0.53678 0.97946 0.48337 0.0
C1120 C 0.52907 0.9457 0.4975 0.0
C1121 C 0.51394 0.93144 0.51343 0.0
C1122 C 0.48166 0.01151 0.524 0.0
C1123 C 0.50617 0.97784 0.512 0.0
C1124 C 0.47656 0.03429 0.51928 0.0
C1125 C 0.48976 0.04741 0.49853 0.0
C1126 C 0.50011 0.0019 0.50789 0.0
C1127 C 0.5076 0.03698 0.48218 0.0
C1128 C 0.5253 0.96887 0.49682 0.0
C1129 C 0.49604 0.94119 0.53053 0.0
N1130 N 0.51228 0.01488 0.4873 0.0
N1131 N 0.49245 0.96382 0.52899 0.0
H1132 H 0.19143 0.21143 0.77262 0.0
H1133 H 0.29469 0.2887 0.71698 0.0
H1134 H 0.18294 0.27223 0.71692 0.0
H1135 H 0.30157 0.22804 0.77346 0.0
H1136 H 0.25378 0.28348 0.71684 0.0
H1137 H 0.23204 0.21698 0.77158 0.0
C1138 C 0.19815 0.22585 0.75985 0.0
C1139 C 0.18382 0.24145 0.74494 0.0
C1140 C 0.26425 0.2714 0.72941 0.0
C1141 C 0.23035 0.24811 0.74405 0.0
C1142 C 0.28757 0.27445 0.72971 0.0
C1143 C 0.30151 0.25874 0.74523 0.0
C1144 C 0.25489 0.25251 0.74472 0.0
C1145 C 0.29145 0.24054 0.76116 0.0
C1146 C 0.22136 0.22908 0.75941 0.0
C1147 C 0.19344 0.25978 0.72868 0.0
N1148 N 0.26875 0.23788 0.76037 0.0
N1149 N 0.21617 0.26271 0.72885 0.0
H1150 H 0.01077 0.05857 0.04335 0.0
H1151 H 0.97332 0.9384 0.97456 0.0
H1152 H 0.95595 0.0485 0.97678 0.0
H1153 H 0.02764 0.94707 0.04237 0.0
H1154 H 0.96606 0.97882 0.9767 0.0
H1155 H 0.01579 0.01763 0.04642 0.0
C1156 C -0.00042 0.04774 0.02979 0.0
C1157 C 0.98306 0.05689 0.00955 0.0
C1158 C 0.97959 0.97192 0.99112 0.0
C1159 C 0.9889 0.01027 0.01254 0.0
C1160 C 0.98382 0.94886 0.98975 0.0
C1161 C 0.00115 0.93942 0.00822 0.0
C1162 C 0.99279 0.98567 0.01109 0.0
C1163 C 0.01417 0.95372 0.0276 0.0
C1164 C 0.00254 0.02441 0.03138 0.0
C1165 C 0.96902 0.04215 0.99248 0.0
N1166 N 0.00972 0.97618 0.02856 0.0
N1167 N 0.97239 0.01957 0.99415 0.0
H1168 H 0.79557 0.69789 0.72041 0.0
H1169 H 0.69269 0.76705 0.79285 0.0
H1170 H 0.80159 0.74974 0.79252 0.0
H1171 H 0.68417 0.71323 0.72414 0.0
H1172 H 0.73235 0.75742 0.79744 0.0
H1173 H 0.75453 0.69874 0.72708 0.0
C1174 C 0.78828 0.70902 0.73821 0.0
C1175 C 0.80181 0.72413 0.75548 0.0
C1176 C 0.72187 0.74763 0.78138 0.0
C1177 C 0.75522 0.72544 0.76285 0.0
C1178 C 0.69923 0.75328 0.77853 0.0
C1179 C 0.68525 0.74116 0.75768 0.0
C1180 C 0.73072 0.7299 0.76294 0.0
C1181 C 0.69451 0.72318 0.7402 0.0
C1182 C 0.76489 0.70962 0.74185 0.0
C1183 C 0.79165 0.73816 0.77827 0.0
N1184 N 0.71679 0.7182 0.74299 0.0
N1185 N 0.76892 0.73871 0.78097 0.0
H1186 H 0.69151 0.28636 0.22092 0.0
H1187 H 0.79424 0.20869 0.277 0.0
H1188 H 0.68373 0.22818 0.28222 0.0
H1189 H 0.80062 0.26328 0.20907 0.0
H1190 H 0.75361 0.21503 0.27862 0.0
H1191 H 0.73182 0.27868 0.21755 0.0
C1192 C 0.69834 0.27214 0.23402 0.0
C1193 C 0.6843 0.25786 0.25186 0.0
C1194 C 0.76387 0.22549 0.26314 0.0
C1195 C 0.73029 0.24876 0.24769 0.0
C1196 C 0.78704 0.22179 0.26205 0.0
C1197 C 0.80079 0.23561 0.24305 0.0
C1198 C 0.75448 0.2432 0.24523 0.0
C1199 C 0.79062 0.25231 0.22415 0.0
C1200 C 0.72132 0.26764 0.23185 0.0
C1201 C 0.69399 0.23961 0.2682 0.0
N1202 N 0.76806 0.25578 0.22595 0.0
N1203 N 0.71643 0.23552 0.26564 0.0
H1204 H 0.69913 0.20886 0.70944 0.0
H1205 H 0.80012 0.28884 0.76567 0.0
H1206 H 0.69144 0.26398 0.77623 0.0
H1207 H 0.80938 0.23105 0.70406 0.0
H1208 H 0.75962 0.28201 0.76548 0.0
H1209 H 0.73922 0.21763 0.705 0.0
C1210 C 0.70593 0.22263 0.72351 0.0
C1211 C 0.69195 0.23568 0.74333 0.0
C1212 C 0.77046 0.27093 0.75173 0.0
C1213 C 0.7377 0.24607 0.73786 0.0
C1214 C 0.79358 0.27493 0.75161 0.0
C1215 C 0.80814 0.26035 0.73509 0.0
C1216 C 0.76183 0.25215 0.73533 0.0
C1217 C 0.79875 0.24267 0.71718 0.0
C1218 C 0.72879 0.22773 0.72075 0.0
C1219 C 0.70163 0.2534 0.76081 0.0
N1220 N 0.77616 0.2389 0.71807 0.0
N1221 N 0.72391 0.25814 0.75756 0.0
H1222 H 0.80343 0.78732 0.22641 0.0
H1223 H 0.69786 0.71289 0.27998 0.0
H1224 H 0.80789 0.73145 0.29248 0.0
H1225 H 0.69273 0.77031 0.21671 0.0
H1226 H 0.73805 0.72019 0.28602 0.0
H1227 H 0.76253 0.78321 0.22572 0.0
C1228 C 0.79576 0.77444 0.24125 0.0
C1229 C 0.80907 0.75952 0.25927 0.0
C1230 C 0.72818 0.73117 0.27073 0.0
C1231 C 0.76232 0.75444 0.25805 0.0
C1232 C 0.70524 0.7269 0.26703 0.0
C1233 C 0.69195 0.74095 0.24766 0.0
C1234 C 0.73794 0.74963 0.25491 0.0
C1235 C 0.70239 0.75895 0.23169 0.0
C1236 C 0.77241 0.77201 0.24067 0.0
C1237 C 0.79825 0.74324 0.27815 0.0
N1238 N 0.7248 0.7628 0.23571 0.0
N1239 N 0.7755 0.74094 0.27673 0.0
H1240 H 0.45214 0.44422 0.01153 0.0
H1241 H 0.53023 0.54932 0.9663 0.0
H1242 H 0.51204 0.43824 0.95339 0.0
H1243 H 0.4757 0.55219 0.0347 0.0
H1244 H 0.52313 0.50903 0.95909 0.0
H1245 H 0.45844 0.48475 0.01537 0.0
C1246 C 0.46637 0.45151 -0.00101 0.0
C1247 C 0.48172 0.43781 0.98236 0.0
C1248 C 0.51285 0.51844 0.97587 0.0
C1249 C 0.48932 0.48414 0.98731 0.0
C1250 C 0.51702 0.54139 0.98024 0.0
C1251 C 0.5035 0.55412 0.00112 0.0
C1252 C 0.49495 0.50821 0.99236 0.0
C1253 C 0.48657 0.54302 0.01842 0.0
C1254 C 0.4701 0.47463 0.0015 0.0
C1255 C 0.49982 0.44818 0.96651 0.0
N1256 N 0.48265 0.52072 0.01345 0.0
N1257 N 0.50327 0.47074 0.96968 0.0
H1258 H 0.96435 0.44345 0.4717 0.0
H1259 H 0.04338 0.54299 0.53542 0.0
H1260 H 0.02359 0.432 0.52964 0.0
H1261 H 0.9884 0.55239 0.46889 0.0
H1262 H 0.03631 0.50234 0.53461 0.0
H1263 H 0.97191 0.48383 0.47312 0.0
C1264 C 0.9788 0.44947 0.48507 0.0
C1265 C 0.99342 0.43439 0.50049 0.0
C1266 C 0.02591 0.51331 0.52004 0.0
C1267 C 0.00237 0.48052 0.50184 0.0
C1268 C 0.03002 0.53647 0.52033 0.0
C1269 C 0.01638 0.55103 0.50229 0.0
C1270 C 0.008 0.50478 0.50166 0.0
C1271 C -0.00074 0.54175 0.48326 0.0
C1272 C 0.98322 0.47251 0.48566 0.0
C1273 C 0.01192 0.44309 0.51738 0.0
N1274 N 0.99547 0.51921 0.4836 0.0
N1275 N 0.01594 0.46563 0.51749 0.0
H1276 H 0.02379 0.45043 0.95916 0.0
H1277 H 0.94732 0.55599 0.00845 0.0
H1278 H 0.96818 0.4466 0.02566 0.0
H1279 H 0.00658 0.5614 0.94894 0.0
H1280 H 0.9521 0.51512 0.00961 0.0
H1281 H 0.01628 0.49062 0.95203 0.0
C1282 C 0.01017 0.45811 0.97259 0.0
C1283 C 0.99665 0.44517 0.99318 0.0
C1284 C 0.96391 0.52521 0.99598 0.0
C1285 C 0.98769 0.49108 0.98461 0.0
C1286 C 0.96107 0.54854 0.99504 0.0
C1287 C 0.97673 0.56214 0.97885 0.0
C1288 C 0.98258 0.5154 0.9807 0.0
C1289 C 0.99416 0.55156 0.96182 0.0
C1290 C 0.00578 0.48102 0.96829 0.0
C1291 C 0.97913 0.45597 0.00974 0.0
N1292 N 0.9968 0.52881 0.96352 0.0
N1293 N 0.97511 0.4783 0.005 0.0
H1294 H 0.54197 0.45025 0.5361 0.0
H1295 H 0.4645 0.5519 0.47574 0.0
H1296 H 0.49069 0.44376 0.46321 0.0
H1297 H 0.52091 0.56114 0.53983 0.0
H1298 H 0.47303 0.51176 0.47308 0.0
H1299 H 0.53512 0.49089 0.53766 0.0
C1300 C 0.52959 0.45743 0.51996 0.0
C1301 C 0.51673 0.4436 0.49968 0.0
C1302 C 0.4835 0.52251 0.48787 0.0
C1303 C 0.50847 0.4899 0.5019 0.0
C1304 C 0.47849 0.54542 0.48967 0.0
C1305 C 0.49208 0.55988 0.50795 0.0
C1306 C 0.50221 0.51398 0.50451 0.0
C1307 C 0.50999 0.55056 0.52546 0.0
C1308 C 0.52556 0.4806 0.52107 0.0
C1309 C 0.50091 0.45378 0.47932 0.0
N1310 N 0.51464 0.52816 0.52316 0.0
N1311 N 0.49705 0.4763 0.48122 0.0
H1312 H 0.03232 0.37443 0.09641 0.0
H1313 H 0.10908 0.32204 0.19758 0.0
H1314 H 0.06417 0.33699 0.02045 0.0
H1315 H 0.10055 0.26987 0.12666 0.0
H1316 H 0.096 0.35012 0.15819 0.0
H1317 H 0.06078 0.36005 0.13398 0.0
C1318 C 0.04599 0.36407 0.08744 0.0
C1319 C 0.04615 0.35692 0.05546 0.0
C1320 C 0.09742 0.33259 0.15116 0.0
C1321 C 0.07822 0.34 0.098 0.0
C1322 C 0.10511 0.31666 0.17341 0.0
C1323 C 0.10566 0.2937 0.16522 0.0
C1324 C 0.09059 0.32534 0.12059 0.0
C1325 C 0.10017 0.28743 0.13385 0.0
C1326 C 0.06221 0.35582 0.10882 0.0
C1327 C 0.0637 0.34295 0.04499 0.0
N1328 N 0.09276 0.30315 0.11271 0.0
N1329 N 0.07871 0.33448 0.06636 0.0
H1330 H 0.87707 0.80289 0.31962 0.0
H1331 H 0.98759 0.86267 0.37935 0.0
H1332 H 0.93981 0.80631 0.26768 0.0
H1333 H 0.92616 0.86124 0.43429 0.0
H1334 H 0.96628 0.85279 0.3314 0.0
H1335 H 0.89046 0.8334 0.3548 0.0
C1336 C 0.89341 0.81042 0.31522 0.0
C1337 C 0.9077 0.80168 0.29152 0.0
C1338 C 0.95724 0.85517 0.35369 0.0
C1339 C 0.92301 0.83637 0.33117 0.0
C1340 C 0.96943 0.861 0.38096 0.0
C1341 C 0.95854 0.86253 0.41058 0.0
C1342 C 0.93419 0.84993 0.35645 0.0
C1343 C 0.93506 0.86015 0.41168 0.0
C1344 C 0.90106 0.8278 0.33523 0.0
C1345 C 0.92858 0.81213 0.28641 0.0
N1346 N 0.92367 0.85328 0.38511 0.0
N1347 N 0.93572 0.82867 0.30634 0.0
H1348 H 0.36773 0.71261 0.65646 0.0
H1349 H 0.45062 0.62074 0.58146 0.0
H1350 H 0.41082 0.66916 0.71214 0.0
H1351 H 0.43275 0.68408 0.53734 0.0
H1352 H 0.42306 0.62838 0.62423 0.0
H1353 H 0.3781 0.69137 0.60805 0.0
C1354 C 0.37859 0.69797 0.65861 0.0
C1355 C 0.38864 0.69259 0.68797 0.0
C1356 C 0.42483 0.64027 0.60468 0.0
C1357 C 0.40067 0.6686 0.63327 0.0
C1358 C 0.4405 0.63595 0.5804 0.0
C1359 C 0.44426 0.65211 0.55648 0.0
C1360 C 0.4127 0.66065 0.60446 0.0
C1361 C 0.43068 0.67148 0.5559 0.0
C1362 C 0.38462 0.686 0.63107 0.0
C1363 C 0.40287 0.67377 0.6897 0.0
N1364 N 0.41564 0.67533 0.57975 0.0
N1365 N 0.40876 0.66259 0.66258 0.0
H1366 H 0.62924 0.20111 0.8349 0.0
H1367 H 0.53673 0.1183 0.90713 0.0
H1368 H 0.57853 0.16675 0.7794 0.0
H1369 H 0.56588 0.17538 0.9559 0.0
H1370 H 0.56434 0.12326 0.86363 0.0
H1371 H 0.61868 0.17825 0.88169 0.0
C1372 C 0.6166 0.18805 0.83227 0.0
C1373 C 0.60446 0.18588 0.80367 0.0
C1374 C 0.56508 0.13422 0.88438 0.0
C1375 C 0.59224 0.16008 0.85658 0.0
C1376 C 0.5494 0.13139 0.90909 0.0
C1377 C 0.54888 0.1468 0.93453 0.0
C1378 C 0.58036 0.15234 0.88564 0.0
C1379 C 0.56557 0.16347 0.93621 0.0
C1380 C 0.61048 0.17515 0.85892 0.0
C1381 C 0.58805 0.16897 0.80133 0.0
N1382 N 0.58049 0.16599 0.91187 0.0
N1383 N 0.58212 0.15692 0.82766 0.0
H1384 H 0.08256 0.63643 0.4543 0.0
H1385 H 0.06882 0.66915 0.27113 0.0
H1386 H 0.02117 0.6335 0.39932 0.0
H1387 H 0.12574 0.68934 0.3286 0.0
H1388 H 0.05749 0.64289 0.31304 0.0
H1389 H 0.10379 0.64333 0.40449 0.0
C1390 C 0.07373 0.63654 0.43157 0.0
C1391 C 0.05021 0.6347 0.43055 0.0
C1392 C 0.0727 0.65272 0.31635 0.0
C1393 C 0.07401 0.64249 0.37418 0.0
C1394 C 0.07916 0.66768 0.29245 0.0
C1395 C 0.09785 0.68175 0.29699 0.0
C1396 C 0.08468 0.65228 0.34535 0.0
C1397 C 0.11101 0.67894 0.32458 0.0
C1398 C 0.08576 0.64053 0.4033 0.0
C1399 C 0.03933 0.63506 0.40087 0.0
N1400 N 0.10382 0.66488 0.34828 0.0
N1401 N 0.0513 0.63914 0.37386 0.0
H1402 H 0.61647 0.75474 0.63671 0.0
H1403 H 0.55883 0.86427 0.56862 0.0
H1404 H 0.60905 0.81625 0.6906 0.0
H1405 H 0.56245 0.79972 0.5211 0.0
H1406 H 0.58825 0.85163 0.60606 0.0
H1407 H 0.6095 0.77569 0.58732 0.0
C1408 C 0.61421 0.77287 0.63788 0.0
C1409 C 0.61312 0.78388 0.66746 0.0
C1410 C 0.58293 0.84044 0.58697 0.0
C1411 C 0.6038 0.80771 0.6116 0.0
C1412 C 0.56615 0.84765 0.56568 0.0
C1413 C 0.55772 0.83269 0.54256 0.0
C1414 C 0.59125 0.81825 0.5848 0.0
C1415 C 0.56797 0.81149 0.53934 0.0
C1416 C 0.61002 0.78483 0.60978 0.0
C1417 C 0.60997 0.80729 0.66801 0.0
N1418 N 0.58393 0.8048 0.56051 0.0
N1419 N 0.60475 0.81841 0.64049 0.0
H1420 H 0.38396 0.31697 0.79825 0.0
H1421 H 0.43826 0.3046 0.97215 0.0
H1422 H 0.39802 0.25439 0.8469 0.0
H1423 H 0.44452 0.3653 0.91589 0.0
H1424 H 0.41187 0.28958 0.93295 0.0
H1425 H 0.39508 0.33771 0.847 0.0
C1426 C 0.3887 0.30764 0.81954 0.0
C1427 C 0.39029 0.28403 0.81875 0.0
C1428 C 0.41875 0.30631 0.92926 0.0
C1429 C 0.40291 0.30737 0.87399 0.0
C1430 C 0.43383 0.31488 0.95161 0.0
C1431 C 0.44398 0.33595 0.94672 0.0
C1432 C 0.41403 0.31868 0.90141 0.0
C1433 C 0.43723 0.34883 0.9202 0.0
C1434 C 0.39518 0.31944 0.84715 0.0
C1435 C 0.39675 0.27262 0.84662 0.0
N1436 N 0.42298 0.33977 0.89802 0.0
N1437 N 0.40296 0.2844 0.87301 0.0
H1438 H 0.86097 0.20489 0.15943 0.0
H1439 H 0.94559 0.11719 0.07938 0.0
H1440 H 0.91925 0.17652 0.2062 0.0
H1441 H 0.91902 0.17596 0.03159 0.0
H1442 H 0.92104 0.12527 0.12544 0.0
H1443 H 0.8681 0.18028 0.11296 0.0
C1444 C 0.87476 0.1929 0.16029 0.0
C1445 C 0.88986 0.19285 0.18609 0.0
C1446 C 0.92004 0.13585 0.10432 0.0
C1447 C 0.89769 0.1647 0.13403 0.0
C1448 C 0.93396 0.13127 0.07815 0.0
C1449 C 0.93454 0.14629 0.05225 0.0
C1450 C 0.90649 0.15527 0.10399 0.0
C1451 C 0.91926 0.1643 0.05157 0.0
C1452 C 0.87878 0.17894 0.13394 0.0
C1453 C 0.90751 0.17718 0.18634 0.0
N1454 N 0.906 0.1685 0.07736 0.0
N1455 N 0.91111 0.16383 0.16045 0.0
H1456 H 0.94428 0.7 0.96814 0.0
H1457 H 0.88268 0.68759 0.79921 0.0
H1458 H 0.9423 0.63648 0.91764 0.0
H1459 H 0.9117 0.7491 0.83613 0.0
H1460 H 0.89471 0.66789 0.84822 0.0
H1461 H 0.92132 0.71696 0.92631 0.0
C1462 C 0.93876 0.68954 0.94834 0.0
C1463 C 0.94566 0.66696 0.94585 0.0
C1464 C 0.89816 0.68575 0.8456 0.0
C1465 C 0.91949 0.68638 0.89774 0.0
C1466 C 0.89127 0.697 0.81782 0.0
C1467 C 0.89644 0.71995 0.81358 0.0
C1468 C 0.90981 0.69772 0.86939 0.0
C1469 C 0.90763 0.73135 0.83828 0.0
C1470 C 0.92568 0.69925 0.92448 0.0
C1471 C 0.93753 0.65402 0.92017 0.0
N1472 N 0.91395 0.72011 0.86509 0.0
N1473 N 0.92512 0.66406 0.89664 0.0
H1474 H 0.12619 0.20621 0.66717 0.0
H1475 H 0.04503 0.11959 0.57725 0.0
H1476 H 0.06615 0.17745 0.70861 0.0
H1477 H 0.0758 0.17736 0.53226 0.0
H1478 H 0.06615 0.128 0.62658 0.0
H1479 H 0.12058 0.1825 0.61938 0.0
C1480 C 0.11228 0.19437 0.66659 0.0
C1481 C 0.09632 0.19398 0.69132 0.0
C1482 C 0.06879 0.13833 0.60549 0.0
C1483 C 0.09012 0.16684 0.63761 0.0
C1484 C 0.05685 0.13353 0.57744 0.0
C1485 C 0.0585 0.14809 0.55111 0.0
C1486 C 0.08266 0.15751 0.60668 0.0
C1487 C 0.0739 0.16599 0.5524 0.0
C1488 C 0.1091 0.18094 0.63944 0.0
C1489 C 0.07856 0.17844 0.68962 0.0
N1490 N 0.08525 0.17037 0.57993 0.0
N1491 N 0.07578 0.16561 0.663 0.0
H1492 H 0.56496 0.31444 0.48664 0.0
H1493 H 0.60706 0.32324 0.30637 0.0
H1494 H 0.55338 0.373 0.42764 0.0
H1495 H 0.59494 0.26197 0.35922 0.0
H1496 H 0.60101 0.34509 0.35593 0.0
H1497 H 0.59069 0.29962 0.44623 0.0
C1498 C 0.56831 0.32441 0.46539 0.0
C1499 C 0.55675 0.34464 0.45991 0.0
C1500 C 0.60029 0.32684 0.35673 0.0
C1501 C 0.58556 0.32756 0.4133 0.0
C1502 C 0.6038 0.31442 0.32864 0.0
C1503 C 0.60115 0.29092 0.32898 0.0
C1504 C 0.59452 0.31546 0.3851 0.0
C1505 C 0.59682 0.28013 0.35811 0.0
C1506 C 0.58294 0.31595 0.44235 0.0
C1507 C 0.56186 0.35717 0.43239 0.0
N1508 N 0.59347 0.2925 0.38497 0.0
N1509 N 0.57553 0.34811 0.40953 0.0
H1510 H 0.45227 0.87478 0.07137 0.0
H1511 H 0.39126 0.76509 0.14131 0.0
H1512 H 0.45841 0.80716 0.03394 0.0
H1513 H 0.40473 0.82353 0.19958 0.0
H1514 H 0.40496 0.78552 0.0943 0.0
H1515 H 0.42561 0.86057 0.11198 0.0
C1516 C 0.44789 0.85704 0.07157 0.0
C1517 C 0.45788 0.84201 0.04975 0.0
C1518 C 0.40441 0.79413 0.11719 0.0
C1519 C 0.42718 0.82594 0.09511 0.0
C1520 C 0.39636 0.78256 0.14385 0.0
C1521 C 0.39684 0.79279 0.17402 0.0
C1522 C 0.41339 0.8159 0.12096 0.0
C1523 C 0.40397 0.81527 0.17645 0.0
C1524 C 0.4327 0.84899 0.0946 0.0
C1525 C 0.45151 0.81925 0.05075 0.0
N1526 N 0.41237 0.82605 0.15024 0.0
N1527 N 0.43662 0.81193 0.07305 0.0
H1528 H 0.92653 0.35445 0.54606 0.0
H1529 H 0.93478 0.31594 0.72829 0.0
H1530 H 0.98764 0.34315 0.59955 0.0
H1531 H 0.8777 0.30012 0.66843 0.0
H1532 H 0.94917 0.34091 0.68661 0.0
H1533 H 0.90453 0.34816 0.59543 0.0
C1534 C 0.93526 0.35126 0.56841 0.0
C1535 C 0.95878 0.349 0.56903 0.0
C1536 C 0.93323 0.3324 0.68282 0.0
C1537 C 0.93408 0.34222 0.62493 0.0
C1538 C 0.925 0.31821 0.70658 0.0
C1539 C 0.90537 0.30563 0.70129 0.0
C1540 C 0.92197 0.33363 0.65332 0.0
C1541 C 0.89307 0.3094 0.67311 0.0
C1542 C 0.92276 0.34765 0.59639 0.0
C1543 C 0.96947 0.34476 0.59824 0.0
N1544 N 0.9019 0.3227 0.64964 0.0
N1545 N 0.95703 0.34138 0.62502 0.0
H1546 H 0.3773 0.19955 0.32862 0.0
H1547 H 0.42521 0.12947 0.44158 0.0
H1548 H 0.43615 0.18536 0.27154 0.0
H1549 H 0.48381 0.13425 0.38108 0.0
H1550 H 0.40169 0.14215 0.39678 0.0
H1551 H 0.38822 0.1693 0.36543 0.0
C1552 C 0.39217 0.18957 0.32343 0.0
C1553 C 0.40621 0.19522 0.29766 0.0
C1554 C 0.41959 0.14012 0.39298 0.0
C1555 C 0.41882 0.16046 0.33917 0.0
C1556 C 0.43295 0.13247 0.41846 0.0
C1557 C 0.45642 0.13119 0.4149 0.0
C1558 C 0.43002 0.14656 0.36408 0.0
C1559 C 0.46577 0.13531 0.38474 0.0
C1560 C 0.39845 0.1722 0.34442 0.0
C1561 C 0.42521 0.18185 0.29171 0.0
N1562 N 0.45259 0.14311 0.36065 0.0
N1563 N 0.43109 0.16535 0.31252 0.0
H1564 H 0.54323 0.61799 0.08125 0.0
H1565 H 0.6235 0.7165 0.14375 0.0
H1566 H 0.55795 0.6796 0.03052 0.0
H1567 H 0.58713 0.67109 0.20547 0.0
H1568 H 0.61262 0.69335 0.09744 0.0
H1569 H 0.57183 0.62822 0.12154 0.0
C1570 C 0.55296 0.6333 0.07815 0.0
C1571 C 0.54805 0.64824 0.05308 0.0
C1572 C 0.60767 0.68802 0.12125 0.0
C1573 C 0.58062 0.65985 0.0984 0.0
C1574 C 0.61403 0.7011 0.14759 0.0
C1575 C 0.60611 0.69556 0.17816 0.0
C1576 C 0.59323 0.66948 0.12574 0.0
C1577 C 0.59353 0.67576 0.18209 0.0
C1578 C 0.56917 0.63915 0.10108 0.0
C1579 C 0.56103 0.66787 0.04995 0.0
N1580 N 0.58715 0.66356 0.15606 0.0
N1581 N 0.57657 0.67324 0.07254 0.0
H1582 H 0.05837 0.81842 0.77395 0.0
H1583 H 0.07392 0.85779 0.9517 0.0
H1584 H 0.11967 0.80831 0.82753 0.0
H1585 H 0.01386 0.86713 0.89528 0.0
H1586 H 0.09532 0.85073 0.90235 0.0
H1587 H 0.04666 0.84696 0.81247 0.0
C1588 C 0.0695 0.82253 0.79371 0.0
C1589 C 0.08968 0.81069 0.79822 0.0
C1590 C 0.07763 0.8551 0.90063 0.0
C1591 C 0.07616 0.84282 0.84298 0.0
C1592 C 0.06551 0.85928 0.92874 0.0
C1593 C 0.0422 0.8628 0.9272 0.0
C1594 C 0.06613 0.85422 0.87118 0.0
C1595 C 0.03185 0.86431 0.89721 0.0
C1596 C 0.06287 0.83886 0.81568 0.0
C1597 C 0.1038 0.81691 0.82365 0.0
N1598 N 0.04381 0.85963 0.87036 0.0
N1599 N 0.09648 0.83217 0.84569 0.0
loop_
_geom_bond_atom_site_label_1
_geom_bond_atom_site_label_2
_geom_bond_distance
_geom_bond_site_symmetry_2
_ccdc_geom_bond_type
Co0 O1 2.216 . S
Co0 O2 2.091 . S
Co0 O4 2.004 . S
Co0 O10 2.021 . S
Co0 O12 2.137 . S
Co0 O13 2.244 . S
O1 Co0 2.216 . S
O1 C8 1.247 . S
O2 Co0 2.091 . S
O2 C8 1.261 . S
C3 O12 1.247 . S
C3 O13 1.272 . S
O4 Co0 2.004 . S
O4 C9 1.259 . S
Co5 O6 2.061 . S
Co5 O11 2.052 . S
Co5 O13 2.135 . S
O6 Co5 2.061 . S
O6 C9 1.235 . S
C7 O10 1.238 . S
C7 O11 1.241 . S
C8 O1 1.247 . S
C8 O2 1.261 . S
C9 O4 1.259 . S
C9 O6 1.235 . S
O10 Co0 2.021 . S
O10 C7 1.238 . S
O11 Co5 2.052 . S
O11 C7 1.241 . S
O12 Co0 2.137 . S
O12 C3 1.247 . S
O13 Co0 2.244 . S
O13 C3 1.272 . S
O13 Co5 2.135 . S
Co14 O15 2.216 . S
Co14 O16 2.091 . S
Co14 O18 2.004 . S
Co14 O24 2.021 . S
Co14 O26 2.137 . S
Co14 O27 2.244 . S
O15 Co14 2.216 . S
O15 C22 1.247 . S
O16 Co14 2.091 . S
O16 C22 1.261 . S
C17 O26 1.247 . S
C17 O27 1.272 . S
O18 Co14 2.004 . S
O18 C23 1.259 . S
Co19 O20 2.061 . S
Co19 O25 2.052 . S
Co19 O27 2.135 . S
O20 Co19 2.061 . S
O20 C23 1.235 . S
C21 O24 1.238 . S
C21 O25 1.241 . S
C22 O15 1.247 . S
C22 O16 1.261 . S
C23 O18 1.259 . S
C23 O20 1.235 . S
O24 Co14 2.021 . S
O24 C21 1.238 . S
O25 Co19 2.052 . S
O25 C21 1.241 . S
O26 Co14 2.137 . S
O26 C17 1.247 . S
O27 Co14 2.244 . S
O27 C17 1.272 . S
O27 Co19 2.135 . S
Co28 O29 2.216 . S
Co28 O30 2.091 . S
Co28 O32 2.004 . S
Co28 O38 2.021 . S
Co28 O40 2.137 . S
Co28 O41 2.244 . S
O29 Co28 2.216 . S
O29 C36 1.247 . S
O30 Co28 2.091 . S
O30 C36 1.261 . S
C31 O40 1.247 . S
C31 O41 1.272 . S
O32 Co28 2.004 . S
O32 C37 1.259 . S
Co33 O34 2.061 . S
Co33 O39 2.052 . S
Co33 O41 2.135 . S
O34 Co33 2.061 . S
O34 C37 1.235 . S
C35 O38 1.238 . S
C35 O39 1.241 . S
C36 O29 1.247 . S
C36 O30 1.261 . S
C37 O32 1.259 . S
C37 O34 1.235 . S
O38 Co28 2.021 . S
O38 C35 1.238 . S
O39 Co33 2.052 . S
O39 C35 1.241 . S
O40 Co28 2.137 . S
O40 C31 1.247 . S
O41 Co28 2.244 . S
O41 C31 1.272 . S
O41 Co33 2.135 . S
Co42 O43 2.216 . S
Co42 O44 2.091 . S
Co42 O46 2.004 . S
Co42 O52 2.021 . S
Co42 O54 2.137 . S
Co42 O55 2.244 . S
O43 Co42 2.216 . S
O43 C50 1.247 . S
O44 Co42 2.091 . S
O44 C50 1.261 . S
C45 O54 1.247 . S
C45 O55 1.272 . S
O46 Co42 2.004 . S
O46 C51 1.259 . S
Co47 O48 2.061 . S
Co47 O53 2.052 1_554 S
Co47 O55 2.135 . S
O48 Co47 2.061 . S
O48 C51 1.235 . S
C49 O52 1.238 1_556 S
C49 O53 1.241 . S
C50 O43 1.247 . S
C50 O44 1.261 . S
C51 O46 1.259 . S
C51 O48 1.235 . S
O52 Co42 2.021 . S
O52 C49 1.238 1_554 S
O53 Co47 2.052 1_556 S
O53 C49 1.241 . S
O54 Co42 2.137 . S
O54 C45 1.247 . S
O55 Co42 2.244 . S
O55 C45 1.272 . S
O55 Co47 2.135 . S
Co56 O57 2.216 . S
Co56 O58 2.091 . S
Co56 O60 2.004 . S
Co56 O66 2.021 . S
Co56 O68 2.137 . S
Co56 O69 2.244 . S
O57 Co56 2.216 . S
O57 C64 1.247 . S
O58 Co56 2.091 . S
O58 C64 1.261 . S
C59 O68 1.247 . S
C59 O69 1.272 . S
O60 Co56 2.004 . S
O60 C65 1.259 . S
Co61 O62 2.061 . S
Co61 O67 2.052 . S
Co61 O69 2.135 . S
O62 Co61 2.061 . S
O62 C65 1.235 . S
C63 O66 1.238 . S
C63 O67 1.241 . S
C64 O57 1.247 . S
C64 O58 1.261 . S
C65 O60 1.259 . S
C65 O62 1.235 . S
O66 Co56 2.021 . S
O66 C63 1.238 . S
O67 Co61 2.052 . S
O67 C63 1.241 . S
O68 Co56 2.137 . S
O68 C59 1.247 . S
O69 Co56 2.244 . S
O69 C59 1.272 . S
O69 Co61 2.135 . S
Co70 O71 2.216 . S
Co70 O72 2.091 . S
Co70 O74 2.004 . S
Co70 O80 2.021 . S
Co70 O82 2.137 . S
Co70 O83 2.244 . S
O71 Co70 2.216 . S
O71 C78 1.247 . S
O72 Co70 2.091 . S
O72 C78 1.261 . S
C73 O82 1.247 . S
C73 O83 1.272 . S
O74 Co70 2.004 . S
O74 C79 1.259 . S
Co75 O76 2.061 . S
Co75 O81 2.052 . S
Co75 O83 2.135 . S
O76 Co75 2.061 . S
O76 C79 1.235 . S
C77 O80 1.238 . S
C77 O81 1.241 . S
C78 O71 1.247 . S
C78 O72 1.261 . S
C79 O74 1.259 . S
C79 O76 1.235 . S
O80 Co70 2.021 . S
O80 C77 1.238 . S
O81 Co75 2.052 . S
O81 C77 1.241 . S
O82 Co70 2.137 . S
O82 C73 1.247 . S
O83 Co70 2.244 . S
O83 C73 1.272 . S
O83 Co75 2.135 . S
Co84 O85 2.216 . S
Co84 O86 2.091 . S
Co84 O88 2.004 . S
Co84 O94 2.021 . S
Co84 O96 2.137 . S
Co84 O97 2.244 . S
O85 Co84 2.216 . S
O85 C92 1.247 . S
O86 Co84 2.091 . S
O86 C92 1.261 . S
C87 O96 1.247 . S
C87 O97 1.272 . S
O88 Co84 2.004 . S
O88 C93 1.259 . S
Co89 O90 2.061 . S
Co89 O95 2.052 . S
Co89 O97 2.135 . S
O90 Co89 2.061 . S
O90 C93 1.235 . S
C91 O94 1.238 . S
C91 O95 1.241 . S
C92 O85 1.247 . S
C92 O86 1.261 . S
C93 O88 1.259 . S
C93 O90 1.235 . S
O94 Co84 2.021 . S
O94 C91 1.238 . S
O95 Co89 2.052 . S
O95 C91 1.241 . S
O96 Co84 2.137 . S
O96 C87 1.247 . S
O97 Co84 2.244 . S
O97 C87 1.272 . S
O97 Co89 2.135 . S
Co98 O99 2.216 . S
Co98 O100 2.091 . S
Co98 O102 2.004 . S
Co98 O108 2.021 . S
Co98 O110 2.137 . S
Co98 O111 2.244 . S
O99 Co98 2.216 . S
O99 C106 1.247 . S
O100 Co98 2.091 . S
O100 C106 1.261 . S
C101 O110 1.247 . S
C101 O111 1.272 . S
O102 Co98 2.004 . S
O102 C107 1.259 . S
Co103 O104 2.061 . S
Co103 O109 2.052 1_556 S
Co103 O111 2.135 . S
O104 Co103 2.061 . S
O104 C107 1.235 . S
C105 O108 1.238 1_554 S
C105 O109 1.241 . S
C106 O99 1.247 . S
C106 O100 1.261 . S
C107 O102 1.259 . S
C107 O104 1.235 . S
O108 Co98 2.021 . S
O108 C105 1.238 1_556 S
O109 Co103 2.052 1_554 S
O109 C105 1.241 . S
O110 Co98 2.137 . S
O110 C101 1.247 . S
O111 Co98 2.244 . S
O111 C101 1.272 . S
O111 Co103 2.135 . S
Co112 O113 2.216 . S
Co112 O114 2.091 . S
Co112 O116 2.004 . S
Co112 O122 2.021 . S
Co112 O124 2.137 . S
Co112 O125 2.244 . S
O113 Co112 2.216 . S
O113 C120 1.247 . S
O114 Co112 2.091 . S
O114 C120 1.261 . S
C115 O124 1.247 . S
C115 O125 1.272 . S
O116 Co112 2.004 . S
O116 C121 1.259 . S
Co117 O118 2.061 . S
Co117 O123 2.052 . S
Co117 O125 2.135 . S
O118 Co117 2.061 . S
O118 C121 1.235 . S
C119 O122 1.238 . S
C119 O123 1.241 . S
C120 O113 1.247 . S
C120 O114 1.261 . S
C121 O116 1.259 . S
C121 O118 1.235 . S
O122 Co112 2.021 . S
O122 C119 1.238 . S
O123 Co117 2.052 . S
O123 C119 1.241 . S
O124 Co112 2.137 . S
O124 C115 1.247 . S
O125 Co112 2.244 . S
O125 C115 1.272 . S
O125 Co117 2.135 . S
Co126 O127 2.216 . S
Co126 O128 2.091 . S
Co126 O130 2.004 . S
Co126 O136 2.021 . S
Co126 O138 2.137 . S
Co126 O139 2.244 . S
O127 Co126 2.216 . S
O127 C134 1.247 . S
O128 Co126 2.091 . S
O128 C134 1.261 . S
C129 O138 1.247 . S
C129 O139 1.272 . S
O130 Co126 2.004 . S
O130 C135 1.259 . S
Co131 O132 2.061 . S
Co131 O137 2.052 . S
Co131 O139 2.135 . S
O132 Co131 2.061 . S
O132 C135 1.235 . S
C133 O136 1.238 . S
C133 O137 1.241 . S
C134 O127 1.247 . S
C134 O128 1.261 . S
C135 O130 1.259 . S
C135 O132 1.235 . S
O136 Co126 2.021 . S
O136 C133 1.238 . S
O137 Co131 2.052 . S
O137 C133 1.241 . S
O138 Co126 2.137 . S
O138 C129 1.247 . S
O139 Co126 2.244 . S
O139 C129 1.272 . S
O139 Co131 2.135 . S
Co140 O141 2.216 . S
Co140 O142 2.091 . S
Co140 O144 2.004 . S
Co140 O150 2.021 . S
Co140 O152 2.137 . S
Co140 O153 2.244 . S
O141 Co140 2.216 . S
O141 C148 1.247 . S
O142 Co140 2.091 . S
O142 C148 1.261 . S
C143 O152 1.247 . S
C143 O153 1.272 . S
O144 Co140 2.004 . S
O144 C149 1.259 . S
Co145 O146 2.061 . S
Co145 O151 2.052 . S
Co145 O153 2.135 . S
O146 Co145 2.061 . S
O146 C149 1.235 . S
C147 O150 1.238 . S
C147 O151 1.241 . S
C148 O141 1.247 . S
C148 O142 1.261 . S
C149 O144 1.259 . S
C149 O146 1.235 . S
O150 Co140 2.021 . S
O150 C147 1.238 . S
O151 Co145 2.052 . S
O151 C147 1.241 . S
O152 Co140 2.137 . S
O152 C143 1.247 . S
O153 Co140 2.244 . S
O153 C143 1.272 . S
O153 Co145 2.135 . S
Co154 O155 2.216 . S
Co154 O156 2.091 . S
Co154 O158 2.004 . S
Co154 O164 2.021 . S
Co154 O166 2.137 . S
Co154 O167 2.244 . S
O155 Co154 2.216 . S
O155 C162 1.247 . S
O156 Co154 2.091 . S
O156 C162 1.261 . S
C157 O166 1.247 . S
C157 O167 1.272 . S
O158 Co154 2.004 . S
O158 C163 1.259 . S
Co159 O160 2.061 . S
Co159 O165 2.052 1_556 S
Co159 O167 2.135 . S
O160 Co159 2.061 . S
O160 C163 1.235 . S
C161 O164 1.238 1_554 S
C161 O165 1.241 . S
C162 O155 1.247 . S
C162 O156 1.261 . S
C163 O158 1.259 . S
C163 O160 1.235 . S
O164 Co154 2.021 . S
O164 C161 1.238 1_556 S
O165 Co159 2.052 1_554 S
O165 C161 1.241 . S
O166 Co154 2.137 . S
O166 C157 1.247 . S
O167 Co154 2.244 . S
O167 C157 1.272 . S
O167 Co159 2.135 . S
Co168 O169 2.216 . S
Co168 O170 2.091 . S
Co168 O172 2.004 . S
Co168 O178 2.021 . S
Co168 O180 2.137 . S
Co168 O181 2.244 . S
O169 Co168 2.216 . S
O169 C176 1.247 . S
O170 Co168 2.091 . S
O170 C176 1.261 . S
C171 O180 1.247 . S
C171 O181 1.272 . S
O172 Co168 2.004 . S
O172 C177 1.259 . S
Co173 O174 2.061 . S
Co173 O179 2.052 . S
Co173 O181 2.135 . S
O174 Co173 2.061 . S
O174 C177 1.235 . S
C175 O178 1.238 . S
C175 O179 1.241 . S
C176 O169 1.247 . S
C176 O170 1.261 . S
C177 O172 1.259 . S
C177 O174 1.235 . S
O178 Co168 2.021 . S
O178 C175 1.238 . S
O179 Co173 2.052 . S
O179 C175 1.241 . S
O180 Co168 2.137 . S
O180 C171 1.247 . S
O181 Co168 2.244 . S
O181 C171 1.272 . S
O181 Co173 2.135 . S
Co182 O183 2.216 . S
Co182 O184 2.091 . S
Co182 O186 2.004 . S
Co182 O192 2.021 . S
Co182 O194 2.137 . S
Co182 O195 2.244 . S
O183 Co182 2.216 . S
O183 C190 1.247 . S
O184 Co182 2.091 . S
O184 C190 1.261 . S
C185 O194 1.247 . S
C185 O195 1.272 . S
O186 Co182 2.004 . S
O186 C191 1.259 . S
Co187 O188 2.061 . S
Co187 O193 2.052 . S
Co187 O195 2.135 . S
O188 Co187 2.061 . S
O188 C191 1.235 . S
C189 O192 1.238 . S
C189 O193 1.241 . S
C190 O183 1.247 . S
C190 O184 1.261 . S
C191 O186 1.259 . S
C191 O188 1.235 . S
O192 Co182 2.021 . S
O192 C189 1.238 . S
O193 Co187 2.052 . S
O193 C189 1.241 . S
O194 Co182 2.137 . S
O194 C185 1.247 . S
O195 Co182 2.244 . S
O195 C185 1.272 . S
O195 Co187 2.135 . S
Co196 O197 2.216 . S
Co196 O198 2.091 . S
Co196 O200 2.004 . S
Co196 O206 2.021 . S
Co196 O208 2.137 . S
Co196 O209 2.244 . S
O197 Co196 2.216 . S
O197 C204 1.247 . S
O198 Co196 2.091 . S
O198 C204 1.261 . S
C199 O208 1.247 . S
C199 O209 1.272 . S
O200 Co196 2.004 . S
O200 C205 1.259 . S
Co201 O202 2.061 . S
Co201 O207 2.052 . S
Co201 O209 2.135 . S
O202 Co201 2.061 . S
O202 C205 1.235 . S
C203 O206 1.238 . S
C203 O207 1.241 . S
C204 O197 1.247 . S
C204 O198 1.261 . S
C205 O200 1.259 . S
C205 O202 1.235 . S
O206 Co196 2.021 . S
O206 C203 1.238 . S
O207 Co201 2.052 . S
O207 C203 1.241 . S
O208 Co196 2.137 . S
O208 C199 1.247 . S
O209 Co196 2.244 . S
O209 C199 1.272 . S
O209 Co201 2.135 . S
Co210 O211 2.216 . S
Co210 O212 2.091 . S
Co210 O214 2.004 . S
Co210 O220 2.021 . S
Co210 O222 2.137 . S
Co210 O223 2.244 . S
O211 Co210 2.216 . S
O211 C218 1.247 . S
O212 Co210 2.091 . S
O212 C218 1.261 . S
C213 O222 1.247 . S
C213 O223 1.272 . S
O214 Co210 2.004 . S
O214 C219 1.259 . S
Co215 O216 2.061 . S
Co215 O221 2.052 1_554 S
Co215 O223 2.135 . S
O216 Co215 2.061 . S
O216 C219 1.235 . S
C217 O220 1.238 1_556 S
C217 O221 1.241 . S
C218 O211 1.247 . S
C218 O212 1.261 . S
C219 O214 1.259 . S
C219 O216 1.235 . S
O220 Co210 2.021 . S
O220 C217 1.238 1_554 S
O221 Co215 2.052 1_556 S
O221 C217 1.241 . S
O222 Co210 2.137 . S
O222 C213 1.247 . S
O223 Co210 2.244 . S
O223 C213 1.272 . S
O223 Co215 2.135 . S
Co224 O225 2.216 . S
Co224 O226 2.091 . S
Co224 O228 2.004 . S
Co224 O234 2.021 . S
Co224 O236 2.137 . S
Co224 O237 2.244 . S
O225 Co224 2.216 . S
O225 C232 1.247 . S
O226 Co224 2.091 . S
O226 C232 1.261 . S
C227 O236 1.247 . S
C227 O237 1.272 . S
O228 Co224 2.004 . S
O228 C233 1.259 . S
Co229 O230 2.061 . S
Co229 O235 2.052 . S
Co229 O237 2.135 . S
O230 Co229 2.061 . S
O230 C233 1.235 . S
C231 O234 1.238 . S
C231 O235 1.241 . S
C232 O225 1.247 . S
C232 O226 1.261 . S
C233 O228 1.259 . S
C233 O230 1.235 . S
O234 Co224 2.021 . S
O234 C231 1.238 . S
O235 Co229 2.052 . S
O235 C231 1.241 . S
O236 Co224 2.137 . S
O236 C227 1.247 . S
O237 Co224 2.244 . S
O237 C227 1.272 . S
O237 Co229 2.135 . S
Co238 O239 2.216 . S
Co238 O240 2.091 . S
Co238 O242 2.004 . S
Co238 O248 2.021 . S
Co238 O250 2.137 . S
Co238 O251 2.244 . S
O239 Co238 2.216 . S
O239 C246 1.247 . S
O240 Co238 2.091 . S
O240 C246 1.261 . S
C241 O250 1.247 . S
C241 O251 1.272 . S
O242 Co238 2.004 . S
O242 C247 1.259 . S
Co243 O244 2.061 . S
Co243 O249 2.052 1_554 S
Co243 O251 2.135 . S
O244 Co243 2.061 . S
O244 C247 1.235 . S
C245 O248 1.238 1_556 S
C245 O249 1.241 . S
C246 O239 1.247 . S
C246 O240 1.261 . S
C247 O242 1.259 . S
C247 O244 1.235 . S
O248 Co238 2.021 . S
O248 C245 1.238 1_554 S
O249 Co243 2.052 1_556 S
O249 C245 1.241 . S
O250 Co238 2.137 . S
O250 C241 1.247 . S
O251 Co238 2.244 . S
O251 C241 1.272 . S
O251 Co243 2.135 . S
Co252 O253 2.216 . S
Co252 O254 2.091 . S
Co252 O256 2.004 . S
Co252 O262 2.021 . S
Co252 O264 2.137 . S
Co252 O265 2.244 . S
O253 Co252 2.216 . S
O253 C260 1.247 . S
O254 Co252 2.091 . S
O254 C260 1.261 . S
C255 O264 1.247 . S
C255 O265 1.272 . S
O256 Co252 2.004 . S
O256 C261 1.259 . S
Co257 O258 2.061 . S
Co257 O263 2.052 . S
Co257 O265 2.135 . S
O258 Co257 2.061 . S
O258 C261 1.235 . S
C259 O262 1.238 . S
C259 O263 1.241 . S
C260 O253 1.247 . S
C260 O254 1.261 . S
C261 O256 1.259 . S
C261 O258 1.235 . S
O262 Co252 2.021 . S
O262 C259 1.238 . S
O263 Co257 2.052 . S
O263 C259 1.241 . S
O264 Co252 2.137 . S
O264 C255 1.247 . S
O265 Co252 2.244 . S
O265 C255 1.272 . S
O265 Co257 2.135 . S
Co266 O267 2.216 . S
Co266 O268 2.091 . S
Co266 O270 2.004 . S
Co266 O276 2.021 . S
Co266 O278 2.137 . S
Co266 O279 2.244 . S
O267 Co266 2.216 . S
O267 C274 1.247 . S
O268 Co266 2.091 . S
O268 C274 1.261 . S
C269 O278 1.247 . S
C269 O279 1.272 . S
O270 Co266 2.004 . S
O270 C275 1.259 . S
Co271 O272 2.061 . S
Co271 O277 2.052 . S
Co271 O279 2.135 . S
O272 Co271 2.061 . S
O272 C275 1.235 . S
C273 O276 1.238 . S
C273 O277 1.241 . S
C274 O267 1.247 . S
C274 O268 1.261 . S
C275 O270 1.259 . S
C275 O272 1.235 . S
O276 Co266 2.021 . S
O276 C273 1.238 . S
O277 Co271 2.052 . S
O277 C273 1.241 . S
O278 Co266 2.137 . S
O278 C269 1.247 . S
O279 Co266 2.244 . S
O279 C269 1.272 . S
O279 Co271 2.135 . S
Co280 O281 2.216 . S
Co280 O282 2.091 . S
Co280 O284 2.004 . S
Co280 O290 2.021 . S
Co280 O292 2.137 . S
Co280 O293 2.244 . S
O281 Co280 2.216 . S
O281 C288 1.247 . S
O282 Co280 2.091 . S
O282 C288 1.261 . S
C283 O292 1.247 . S
C283 O293 1.272 . S
O284 Co280 2.004 . S
O284 C289 1.259 . S
Co285 O286 2.061 . S
Co285 O291 2.052 . S
Co285 O293 2.135 . S
O286 Co285 2.061 . S
O286 C289 1.235 . S
C287 O290 1.238 . S
C287 O291 1.241 . S
C288 O281 1.247 . S
C288 O282 1.261 . S
C289 O284 1.259 . S
C289 O286 1.235 . S
O290 Co280 2.021 . S
O290 C287 1.238 . S
O291 Co285 2.052 . S
O291 C287 1.241 . S
O292 Co280 2.137 . S
O292 C283 1.247 . S
O293 Co280 2.244 . S
O293 C283 1.272 . S
O293 Co285 2.135 . S
Co294 O295 2.216 . S
Co294 O296 2.091 . S
Co294 O298 2.004 . S
Co294 O304 2.021 . S
Co294 O306 2.137 . S
Co294 O307 2.244 . S
O295 Co294 2.216 . S
O295 C302 1.247 . S
O296 Co294 2.091 . S
O296 C302 1.261 . S
C297 O306 1.247 . S
C297 O307 1.272 . S
O298 Co294 2.004 . S
O298 C303 1.259 . S
Co299 O300 2.061 . S
Co299 O305 2.052 1_556 S
Co299 O307 2.135 . S
O300 Co299 2.061 . S
O300 C303 1.235 . S
C301 O304 1.238 1_554 S
C301 O305 1.241 . S
C302 O295 1.247 . S
C302 O296 1.261 . S
C303 O298 1.259 . S
C303 O300 1.235 . S
O304 Co294 2.021 . S
O304 C301 1.238 1_556 S
O305 Co299 2.052 1_554 S
O305 C301 1.241 . S
O306 Co294 2.137 . S
O306 C297 1.247 . S
O307 Co294 2.244 . S
O307 C297 1.272 . S
O307 Co299 2.135 . S
Co308 O309 2.216 . S
Co308 O310 2.091 . S
Co308 O312 2.004 . S
Co308 O318 2.021 . S
Co308 O320 2.137 . S
Co308 O321 2.244 . S
O309 Co308 2.216 . S
O309 C316 1.247 . S
O310 Co308 2.091 . S
O310 C316 1.261 . S
C311 O320 1.247 . S
C311 O321 1.272 . S
O312 Co308 2.004 . S
O312 C317 1.259 . S
Co313 O314 2.061 . S
Co313 O319 2.052 . S
Co313 O321 2.135 . S
O314 Co313 2.061 . S
O314 C317 1.235 . S
C315 O318 1.238 . S
C315 O319 1.241 . S
C316 O309 1.247 . S
C316 O310 1.261 . S
C317 O312 1.259 . S
C317 O314 1.235 . S
O318 Co308 2.021 . S
O318 C315 1.238 . S
O319 Co313 2.052 . S
O319 C315 1.241 . S
O320 Co308 2.137 . S
O320 C311 1.247 . S
O321 Co308 2.244 . S
O321 C311 1.272 . S
O321 Co313 2.135 . S
Co322 O323 2.216 . S
Co322 O324 2.091 . S
Co322 O326 2.004 . S
Co322 O332 2.021 . S
Co322 O334 2.137 . S
Co322 O335 2.244 . S
O323 Co322 2.216 . S
O323 C330 1.247 . S
O324 Co322 2.091 . S
O324 C330 1.261 . S
C325 O334 1.247 . S
C325 O335 1.272 . S
O326 Co322 2.004 . S
O326 C331 1.259 . S
Co327 O328 2.061 . S
Co327 O333 2.052 . S
Co327 O335 2.135 . S
O328 Co327 2.061 . S
O328 C331 1.235 . S
C329 O332 1.238 . S
C329 O333 1.241 . S
C330 O323 1.247 . S
C330 O324 1.261 . S
C331 O326 1.259 . S
C331 O328 1.235 . S
O332 Co322 2.021 . S
O332 C329 1.238 . S
O333 Co327 2.052 . S
O333 C329 1.241 . S
O334 Co322 2.137 . S
O334 C325 1.247 . S
O335 Co322 2.244 . S
O335 C325 1.272 . S
O335 Co327 2.135 . S
Co336 O337 2.216 . S
Co336 O338 2.091 . S
Co336 O340 2.004 . S
Co336 O346 2.021 . S
Co336 O348 2.137 . S
Co336 O349 2.244 . S
O337 Co336 2.216 . S
O337 C344 1.247 . S
O338 Co336 2.091 . S
O338 C344 1.261 . S
C339 O348 1.247 . S
C339 O349 1.272 . S
O340 Co336 2.004 . S
O340 C345 1.259 . S
Co341 O342 2.061 . S
Co341 O347 2.052 . S
Co341 O349 2.135 . S
O342 Co341 2.061 . S
O342 C345 1.235 . S
C343 O346 1.238 . S
C343 O347 1.241 . S
C344 O337 1.247 . S
C344 O338 1.261 . S
C345 O340 1.259 . S
C345 O342 1.235 . S
O346 Co336 2.021 . S
O346 C343 1.238 . S
O347 Co341 2.052 . S
O347 C343 1.241 . S
O348 Co336 2.137 . S
O348 C339 1.247 . S
O349 Co336 2.244 . S
O349 C339 1.272 . S
O349 Co341 2.135 . S
Co350 O351 2.216 . S
Co350 O352 2.091 . S
Co350 O354 2.004 . S
Co350 O360 2.021 . S
Co350 O362 2.137 . S
Co350 O363 2.244 . S
O351 Co350 2.216 . S
O351 C358 1.247 . S
O352 Co350 2.091 . S
O352 C358 1.261 . S
C353 O362 1.247 . S
C353 O363 1.272 . S
O354 Co350 2.004 . S
O354 C359 1.259 . S
Co355 O356 2.061 . S
Co355 O361 2.052 1_556 S
Co355 O363 2.135 . S
O356 Co355 2.061 . S
O356 C359 1.235 . S
C357 O360 1.238 1_554 S
C357 O361 1.241 . S
C358 O351 1.247 . S
C358 O352 1.261 . S
C359 O354 1.259 . S
C359 O356 1.235 . S
O360 Co350 2.021 . S
O360 C357 1.238 1_556 S
O361 Co355 2.052 1_554 S
O361 C357 1.241 . S
O362 Co350 2.137 . S
O362 C353 1.247 . S
O363 Co350 2.244 . S
O363 C353 1.272 . S
O363 Co355 2.135 . S
Co364 O365 2.216 . S
Co364 O366 2.091 . S
Co364 O368 2.004 . S
Co364 O374 2.021 . S
Co364 O376 2.137 . S
Co364 O377 2.244 . S
O365 Co364 2.216 . S
O365 C372 1.247 . S
O366 Co364 2.091 . S
O366 C372 1.261 . S
C367 O376 1.247 . S
C367 O377 1.272 . S
O368 Co364 2.004 . S
O368 C373 1.259 . S
Co369 O370 2.061 . S
Co369 O375 2.052 . S
Co369 O377 2.135 . S
O370 Co369 2.061 . S
O370 C373 1.235 . S
C371 O374 1.238 . S
C371 O375 1.241 . S
C372 O365 1.247 . S
C372 O366 1.261 . S
C373 O368 1.259 . S
C373 O370 1.235 . S
O374 Co364 2.021 . S
O374 C371 1.238 . S
O375 Co369 2.052 . S
O375 C371 1.241 . S
O376 Co364 2.137 . S
O376 C367 1.247 . S
O377 Co364 2.244 . S
O377 C367 1.272 . S
O377 Co369 2.135 . S
Co378 O379 2.216 . S
Co378 O380 2.091 . S
Co378 O382 2.004 . S
Co378 O388 2.021 . S
Co378 O390 2.137 . S
Co378 O391 2.244 . S
O379 Co378 2.216 . S
O379 C386 1.247 . S
O380 Co378 2.091 . S
O380 C386 1.261 . S
C381 O390 1.247 . S
C381 O391 1.272 . S
O382 Co378 2.004 . S
O382 C387 1.259 . S
Co383 O384 2.061 . S
Co383 O389 2.052 . S
Co383 O391 2.135 . S
O384 Co383 2.061 . S
O384 C387 1.235 . S
C385 O388 1.238 . S
C385 O389 1.241 . S
C386 O379 1.247 . S
C386 O380 1.261 . S
C387 O382 1.259 . S
C387 O384 1.235 . S
O388 Co378 2.021 . S
O388 C385 1.238 . S
O389 Co383 2.052 . S
O389 C385 1.241 . S
O390 Co378 2.137 . S
O390 C381 1.247 . S
O391 Co378 2.244 . S
O391 C381 1.272 . S
O391 Co383 2.135 . S
Co392 O393 2.216 . S
Co392 O394 2.091 . S
Co392 O396 2.004 . S
Co392 O402 2.021 . S
Co392 O404 2.137 . S
Co392 O405 2.244 . S
O393 Co392 2.216 . S
O393 C400 1.247 . S
O394 Co392 2.091 . S
O394 C400 1.261 . S
C395 O404 1.247 . S
C395 O405 1.272 . S
O396 Co392 2.004 . S
O396 C401 1.259 . S
Co397 O398 2.061 . S
Co397 O403 2.052 . S
Co397 O405 2.135 . S
O398 Co397 2.061 . S
O398 C401 1.235 . S
C399 O402 1.238 . S
C399 O403 1.241 . S
C400 O393 1.247 . S
C400 O394 1.261 . S
C401 O396 1.259 . S
C401 O398 1.235 . S
O402 Co392 2.021 . S
O402 C399 1.238 . S
O403 Co397 2.052 . S
O403 C399 1.241 . S
O404 Co392 2.137 . S
O404 C395 1.247 . S
O405 Co392 2.244 . S
O405 C395 1.272 . S
O405 Co397 2.135 . S
Co406 O407 2.216 . S
Co406 O408 2.091 . S
Co406 O410 2.004 . S
Co406 O416 2.021 . S
Co406 O418 2.137 . S
Co406 O419 2.244 . S
O407 Co406 2.216 . S
O407 C414 1.247 . S
O408 Co406 2.091 . S
O408 C414 1.261 . S
C409 O418 1.247 . S
C409 O419 1.272 . S
O410 Co406 2.004 . S
O410 C415 1.259 . S
Co411 O412 2.061 . S
Co411 O417 2.052 1_554 S
Co411 O419 2.135 . S
O412 Co411 2.061 . S
O412 C415 1.235 . S
C413 O416 1.238 1_556 S
C413 O417 1.241 . S
C414 O407 1.247 . S
C414 O408 1.261 . S
C415 O410 1.259 . S
C415 O412 1.235 . S
O416 Co406 2.021 . S
O416 C413 1.238 1_554 S
O417 Co411 2.052 1_556 S
O417 C413 1.241 . S
O418 Co406 2.137 . S
O418 C409 1.247 . S
O419 Co406 2.244 . S
O419 C409 1.272 . S
O419 Co411 2.135 . S
Co420 O421 2.216 . S
Co420 O422 2.091 . S
Co420 O424 2.004 . S
Co420 O430 2.021 . S
Co420 O432 2.137 . S
Co420 O433 2.244 . S
O421 Co420 2.216 . S
O421 C428 1.247 . S
O422 Co420 2.091 . S
O422 C428 1.261 . S
C423 O432 1.247 . S
C423 O433 1.272 . S
O424 Co420 2.004 . S
O424 C429 1.259 . S
Co425 O426 2.061 . S
Co425 O431 2.052 . S
Co425 O433 2.135 . S
O426 Co425 2.061 . S
O426 C429 1.235 . S
C427 O430 1.238 . S
C427 O431 1.241 . S
C428 O421 1.247 . S
C428 O422 1.261 . S
C429 O424 1.259 . S
C429 O426 1.235 . S
O430 Co420 2.021 . S
O430 C427 1.238 . S
O431 Co425 2.052 . S
O431 C427 1.241 . S
O432 Co420 2.137 . S
O432 C423 1.247 . S
O433 Co420 2.244 . S
O433 C423 1.272 . S
O433 Co425 2.135 . S
Co434 O435 2.216 . S
Co434 O436 2.091 . S
Co434 O438 2.004 . S
Co434 O444 2.021 . S
Co434 O446 2.137 . S
Co434 O447 2.244 . S
O435 Co434 2.216 . S
O435 C442 1.247 . S
O436 Co434 2.091 . S
O436 C442 1.261 . S
C437 O446 1.247 . S
C437 O447 1.272 . S
O438 Co434 2.004 . S
O438 C443 1.259 . S
Co439 O440 2.061 . S
Co439 O445 2.052 . S
Co439 O447 2.135 . S
O440 Co439 2.061 . S
O440 C443 1.235 . S
C441 O444 1.238 . S
C441 O445 1.241 . S
C442 O435 1.247 . S
C442 O436 1.261 . S
C443 O438 1.259 . S
C443 O440 1.235 . S
O444 Co434 2.021 . S
O444 C441 1.238 . S
O445 Co439 2.052 . S
O445 C441 1.241 . S
O446 Co434 2.137 . S
O446 C437 1.247 . S
O447 Co434 2.244 . S
O447 C437 1.272 . S
O447 Co439 2.135 . S
H448 C454 0.930 . S
H449 C458 0.930 . S
H450 C463 0.929 . S
H451 C461 0.929 . S
H452 C456 0.929 . S
H453 C462 0.929 . S
C454 H448 0.930 . S
C454 C455 1.367 . S
C454 C462 1.378 . S
C455 C454 1.367 . S
C455 C463 1.433 . S
C456 H452 0.929 . S
C456 C458 1.378 . S
C456 C460 1.350 . S
C457 C460 1.463 . S
C457 C462 1.350 . S
C457 N465 1.427 . S
C458 H449 0.930 . S
C458 C456 1.378 . S
C458 C459 1.367 . S
C459 C458 1.367 . S
C459 C461 1.433 . S
C460 C456 1.350 . S
C460 C457 1.463 . S
C460 N464 1.427 . S
C461 H451 0.929 . S
C461 C459 1.433 . S
C461 N464 1.384 . S
C462 H453 0.929 . S
C462 C454 1.378 . S
C462 C457 1.350 . S
C463 H450 0.929 . S
C463 C455 1.433 . S
C463 N465 1.384 . S
N464 C460 1.427 . S
N464 C461 1.384 . S
N465 C457 1.427 . S
N465 C463 1.384 . S
H466 C472 0.930 1_655 S
H467 C476 0.930 . S
H468 C481 0.929 . S
H469 C479 0.929 . S
H470 C474 0.929 . S
H471 C480 0.929 . S
C472 H466 0.930 1_455 S
C472 C473 1.371 . S
C472 C480 1.378 . S
C473 C472 1.371 . S
C473 C481 1.441 . S
C474 H470 0.929 . S
C474 C476 1.378 . S
C474 C478 1.350 . S
C475 C478 1.463 . S
C475 C480 1.350 . S
C475 N483 1.427 . S
C476 H467 0.930 . S
C476 C474 1.378 . S
C476 C477 1.367 . S
C477 C476 1.367 . S
C477 C479 1.433 . S
C478 C474 1.350 . S
C478 C475 1.463 . S
C478 N482 1.427 . S
C479 H469 0.929 . S
C479 C477 1.433 . S
C479 N482 1.384 . S
C480 H471 0.929 . S
C480 C472 1.378 . S
C480 C475 1.350 . S
C481 H468 0.929 . S
C481 C473 1.441 . S
C481 N483 1.384 . S
N482 C478 1.427 . S
N482 C479 1.384 . S
N483 C475 1.427 . S
N483 C481 1.384 . S
H484 C490 0.930 . S
H485 C494 0.930 . S
H486 C499 0.929 . S
H487 C497 0.929 . S
H488 C492 0.929 . S
H489 C498 0.929 . S
C490 H484 0.930 . S
C490 C491 1.367 . S
C490 C498 1.378 . S
C491 C490 1.367 . S
C491 C499 1.433 . S
C492 H488 0.929 . S
C492 C494 1.378 . S
C492 C496 1.350 . S
C493 C496 1.463 . S
C493 C498 1.350 . S
C493 N501 1.427 . S
C494 H485 0.930 . S
C494 C492 1.378 . S
C494 C495 1.367 . S
C495 C494 1.367 . S
C495 C497 1.433 . S
C496 C492 1.350 . S
C496 C493 1.463 . S
C496 N500 1.427 . S
C497 H487 0.929 . S
C497 C495 1.433 . S
C497 N500 1.384 . S
C498 H489 0.929 . S
C498 C490 1.378 . S
C498 C493 1.350 . S
C499 H486 0.929 . S
C499 C491 1.433 . S
C499 N501 1.384 . S
N500 C496 1.427 . S
N500 C497 1.384 . S
N501 C493 1.427 . S
N501 C499 1.384 . S
H502 C508 0.930 . S
H503 C512 0.930 . S
H504 C517 0.929 . S
H505 C515 0.929 . S
H506 C510 0.929 . S
H507 C516 0.929 . S
C508 H502 0.930 . S
C508 C509 1.367 . S
C508 C516 1.378 . S
C509 C508 1.367 . S
C509 C517 1.433 . S
C510 H506 0.929 . S
C510 C512 1.378 . S
C510 C514 1.350 . S
C511 C514 1.463 . S
C511 C516 1.350 . S
C511 N519 1.427 . S
C512 H503 0.930 . S
C512 C510 1.378 . S
C512 C513 1.367 . S
C513 C512 1.367 . S
C513 C515 1.433 . S
C514 C510 1.350 . S
C514 C511 1.463 . S
C514 N518 1.427 . S
C515 H505 0.929 . S
C515 C513 1.433 . S
C515 N518 1.384 . S
C516 H507 0.929 . S
C516 C508 1.378 . S
C516 C511 1.350 . S
C517 H504 0.929 . S
C517 C509 1.433 . S
C517 N519 1.384 . S
N518 C514 1.427 . S
N518 C515 1.384 . S
N519 C511 1.427 . S
N519 C517 1.384 . S
H520 C526 0.930 . S
H521 C530 0.930 . S
H522 C535 0.929 . S
H523 C533 0.929 . S
H524 C528 0.929 . S
H525 C534 0.929 . S
C526 H520 0.930 . S
C526 C527 1.367 . S
C526 C534 1.378 . S
C527 C526 1.367 . S
C527 C535 1.433 . S
C528 H524 0.929 . S
C528 C530 1.378 . S
C528 C532 1.350 . S
C529 C532 1.463 . S
C529 C534 1.350 . S
C529 N537 1.427 . S
C530 H521 0.930 . S
C530 C528 1.378 . S
C530 C531 1.367 . S
C531 C530 1.367 . S
C531 C533 1.433 . S
C532 C528 1.350 . S
C532 C529 1.463 . S
C532 N536 1.427 . S
C533 H523 0.929 . S
C533 C531 1.433 . S
C533 N536 1.384 . S
C534 H525 0.929 . S
C534 C526 1.378 . S
C534 C529 1.350 . S
C535 H522 0.929 . S
C535 C527 1.433 . S
C535 N537 1.384 . S
N536 C532 1.427 . S
N536 C533 1.384 . S
N537 C529 1.427 . S
N537 C535 1.384 . S
H538 C544 0.930 . S
H539 C548 0.930 . S
H540 C553 0.929 . S
H541 C551 0.929 . S
H542 C546 0.929 . S
H543 C552 0.929 . S
C544 H538 0.930 . S
C544 C545 1.367 . S
C544 C552 1.378 . S
C545 C544 1.367 . S
C545 C553 1.433 . S
C546 H542 0.929 . S
C546 C548 1.378 . S
C546 C550 1.350 . S
C547 C550 1.463 . S
C547 C552 1.350 . S
C547 N555 1.427 . S
C548 H539 0.930 . S
C548 C546 1.378 . S
C548 C549 1.367 . S
C549 C548 1.367 . S
C549 C551 1.433 . S
C550 C546 1.350 . S
C550 C547 1.463 . S
C550 N554 1.427 . S
C551 H541 0.929 . S
C551 C549 1.433 . S
C551 N554 1.384 . S
C552 H543 0.929 . S
C552 C544 1.378 . S
C552 C547 1.350 . S
C553 H540 0.929 . S
C553 C545 1.433 . S
C553 N555 1.384 . S
N554 C550 1.427 . S
N554 C551 1.384 . S
N555 C547 1.427 . S
N555 C553 1.384 . S
H556 C562 0.930 . S
H557 C566 0.930 . S
H558 C571 0.929 . S
H559 C569 0.929 . S
H560 C564 0.929 . S
H561 C570 0.929 . S
C562 H556 0.930 . S
C562 C563 1.367 . S
C562 C570 1.378 . S
C563 C562 1.367 . S
C563 C571 1.433 . S
C564 H560 0.929 . S
C564 C566 1.378 . S
C564 C568 1.350 . S
C565 C568 1.463 . S
C565 C570 1.350 . S
C565 N573 1.427 . S
C566 H557 0.930 . S
C566 C564 1.378 . S
C566 C567 1.367 . S
C567 C566 1.367 . S
C567 C569 1.433 . S
C568 C564 1.350 . S
C568 C565 1.463 . S
C568 N572 1.427 . S
C569 H559 0.929 . S
C569 C567 1.433 . S
C569 N572 1.384 . S
C570 H561 0.929 . S
C570 C562 1.378 . S
C570 C565 1.350 . S
C571 H558 0.929 . S
C571 C563 1.433 . S
C571 N573 1.384 . S
N572 C568 1.427 . S
N572 C569 1.384 . S
N573 C565 1.427 . S
N573 C571 1.384 . S
H574 C580 0.930 . S
H575 C584 0.930 1_655 S
H576 C589 0.929 . S
H577 C587 0.929 . S
H578 C582 0.929 . S
H579 C588 0.929 . S
C580 H574 0.930 . S
C580 C581 1.367 . S
C580 C588 1.378 . S
C581 C580 1.367 . S
C581 C589 1.433 . S
C582 H578 0.929 . S
C582 C584 1.378 . S
C582 C586 1.350 . S
C583 C586 1.463 . S
C583 C588 1.350 . S
C583 N591 1.427 . S
C584 H575 0.930 1_455 S
C584 C582 1.378 . S
C584 C585 1.369 . S
C585 C584 1.369 . S
C585 C587 1.440 . S
C586 C582 1.350 . S
C586 C583 1.463 . S
C586 N590 1.427 . S
C587 H577 0.929 . S
C587 C585 1.440 . S
C587 N590 1.384 . S
C588 H579 0.929 . S
C588 C580 1.378 . S
C588 C583 1.350 . S
C589 H576 0.929 . S
C589 C581 1.433 . S
C589 N591 1.384 . S
N590 C586 1.427 . S
N590 C587 1.384 . S
N591 C583 1.427 . S
N591 C589 1.384 . S
H592 C598 0.930 . S
H593 C602 0.930 . S
H594 C607 0.929 . S
H595 C605 0.929 . S
H596 C600 0.929 . S
H597 C606 0.929 . S
C598 H592 0.930 . S
C598 C599 1.367 . S
C598 C606 1.378 . S
C599 C598 1.367 . S
C599 C607 1.433 . S
C600 H596 0.929 . S
C600 C602 1.378 . S
C600 C604 1.350 . S
C601 C604 1.463 . S
C601 C606 1.350 . S
C601 N609 1.427 . S
C602 H593 0.930 . S
C602 C600 1.378 . S
C602 C603 1.367 . S
C603 C602 1.367 . S
C603 C605 1.433 . S
C604 C600 1.350 . S
C604 C601 1.463 . S
C604 N608 1.427 . S
C605 H595 0.929 . S
C605 C603 1.433 . S
C605 N608 1.384 . S
C606 H597 0.929 . S
C606 C598 1.378 . S
C606 C601 1.350 . S
C607 H594 0.929 . S
C607 C599 1.433 . S
C607 N609 1.384 . S
N608 C604 1.427 . S
N608 C605 1.384 . S
N609 C601 1.427 . S
N609 C607 1.384 . S
H610 C616 0.930 . S
H611 C620 0.930 . S
H612 C625 0.929 1_455 S
H613 C623 0.929 . S
H614 C618 0.929 . S
H615 C624 0.929 . S
C616 H610 0.930 . S
C616 C617 1.378 . S
C616 C624 1.378 . S
C617 C616 1.378 . S
C617 C625 1.440 . S
C618 H614 0.929 . S
C618 C620 1.378 . S
C618 C622 1.350 . S
C619 C622 1.463 . S
C619 C624 1.350 . S
C619 N627 1.427 . S
C620 H611 0.930 . S
C620 C618 1.378 . S
C620 C621 1.367 . S
C621 C620 1.367 . S
C621 C623 1.433 . S
C622 C618 1.350 . S
C622 C619 1.463 . S
C622 N626 1.427 . S
C623 H613 0.929 . S
C623 C621 1.433 . S
C623 N626 1.384 . S
C624 H615 0.929 . S
C624 C616 1.378 . S
C624 C619 1.350 . S
C625 H612 0.929 1_655 S
C625 C617 1.440 . S
C625 N627 1.384 . S
N626 C622 1.427 . S
N626 C623 1.384 . S
N627 C619 1.427 . S
N627 C625 1.384 . S
H628 C634 0.930 . S
H629 C638 0.930 . S
H630 C643 0.929 . S
H631 C641 0.929 . S
H632 C636 0.929 . S
H633 C642 0.929 . S
C634 H628 0.930 . S
C634 C635 1.367 . S
C634 C642 1.378 . S
C635 C634 1.367 . S
C635 C643 1.433 . S
C636 H632 0.929 . S
C636 C638 1.378 . S
C636 C640 1.350 . S
C637 C640 1.463 . S
C637 C642 1.350 . S
C637 N645 1.427 . S
C638 H629 0.930 . S
C638 C636 1.378 . S
C638 C639 1.367 . S
C639 C638 1.367 . S
C639 C641 1.433 . S
C640 C636 1.350 . S
C640 C637 1.463 . S
C640 N644 1.427 . S
C641 H631 0.929 . S
C641 C639 1.433 . S
C641 N644 1.384 . S
C642 H633 0.929 . S
C642 C634 1.378 . S
C642 C637 1.350 . S
C643 H630 0.929 . S
C643 C635 1.433 . S
C643 N645 1.384 . S
N644 C640 1.427 . S
N644 C641 1.384 . S
N645 C637 1.427 . S
N645 C643 1.384 . S
H646 C652 0.930 . S
H647 C656 0.930 . S
H648 C661 0.929 . S
H649 C659 0.929 . S
H650 C654 0.929 . S
H651 C660 0.929 . S
C652 H646 0.930 . S
C652 C653 1.367 . S
C652 C660 1.378 . S
C653 C652 1.367 . S
C653 C661 1.433 . S
C654 H650 0.929 . S
C654 C656 1.378 . S
C654 C658 1.350 . S
C655 C658 1.463 . S
C655 C660 1.350 . S
C655 N663 1.427 . S
C656 H647 0.930 . S
C656 C654 1.378 . S
C656 C657 1.367 . S
C657 C656 1.367 . S
C657 C659 1.433 . S
C658 C654 1.350 . S
C658 C655 1.463 . S
C658 N662 1.427 . S
C659 H649 0.929 . S
C659 C657 1.433 . S
C659 N662 1.384 . S
C660 H651 0.929 . S
C660 C652 1.378 . S
C660 C655 1.350 . S
C661 H648 0.929 . S
C661 C653 1.433 . S
C661 N663 1.384 . S
N662 C658 1.427 . S
N662 C659 1.384 . S
N663 C655 1.427 . S
N663 C661 1.384 . S
H664 C670 0.930 . S
H665 C674 0.930 . S
H666 C679 0.929 . S
H667 C677 0.929 . S
H668 C672 0.929 . S
H669 C678 0.929 . S
C670 H664 0.930 . S
C670 C671 1.367 . S
C670 C678 1.378 . S
C671 C670 1.367 . S
C671 C679 1.433 . S
C672 H668 0.929 . S
C672 C674 1.378 . S
C672 C676 1.350 . S
C673 C676 1.463 . S
C673 C678 1.350 . S
C673 N681 1.427 . S
C674 H665 0.930 . S
C674 C672 1.378 . S
C674 C675 1.367 . S
C675 C674 1.367 . S
C675 C677 1.433 . S
C676 C672 1.350 . S
C676 C673 1.463 . S
C676 N680 1.427 . S
C677 H667 0.929 . S
C677 C675 1.433 . S
C677 N680 1.384 . S
C678 H669 0.929 . S
C678 C670 1.378 . S
C678 C673 1.350 . S
C679 H666 0.929 . S
C679 C671 1.433 . S
C679 N681 1.384 . S
N680 C676 1.427 . S
N680 C677 1.384 . S
N681 C673 1.427 . S
N681 C679 1.384 . S
H682 C688 0.930 . S
H683 C692 0.930 . S
H684 C697 0.929 . S
H685 C695 0.929 . S
H686 C690 0.929 . S
H687 C696 0.929 . S
C688 H682 0.930 . S
C688 C689 1.367 . S
C688 C696 1.378 . S
C689 C688 1.367 . S
C689 C697 1.433 . S
C690 H686 0.929 . S
C690 C692 1.378 . S
C690 C694 1.350 . S
C691 C694 1.463 . S
C691 C696 1.350 . S
C691 N699 1.427 . S
C692 H683 0.930 . S
C692 C690 1.378 . S
C692 C693 1.367 . S
C693 C692 1.367 . S
C693 C695 1.433 . S
C694 C690 1.350 . S
C694 C691 1.463 . S
C694 N698 1.427 . S
C695 H685 0.929 . S
C695 C693 1.433 . S
C695 N698 1.384 . S
C696 H687 0.929 . S
C696 C688 1.378 . S
C696 C691 1.350 . S
C697 H684 0.929 . S
C697 C689 1.433 . S
C697 N699 1.384 . S
N698 C694 1.427 . S
N698 C695 1.384 . S
N699 C691 1.427 . S
N699 C697 1.384 . S
H700 C706 0.930 . S
H701 C710 0.930 . S
H702 C715 0.929 . S
H703 C713 0.929 . S
H704 C708 0.929 . S
H705 C714 0.929 . S
C706 H700 0.930 . S
C706 C707 1.367 . S
C706 C714 1.378 . S
C707 C706 1.367 . S
C707 C715 1.433 . S
C708 H704 0.929 . S
C708 C710 1.378 . S
C708 C712 1.350 . S
C709 C712 1.463 . S
C709 C714 1.350 . S
C709 N717 1.427 . S
C710 H701 0.930 . S
C710 C708 1.378 . S
C710 C711 1.367 . S
C711 C710 1.367 . S
C711 C713 1.433 . S
C712 C708 1.350 . S
C712 C709 1.463 . S
C712 N716 1.427 . S
C713 H703 0.929 . S
C713 C711 1.433 . S
C713 N716 1.384 . S
C714 H705 0.929 . S
C714 C706 1.378 . S
C714 C709 1.350 . S
C715 H702 0.929 . S
C715 C707 1.433 . S
C715 N717 1.384 . S
N716 C712 1.427 . S
N716 C713 1.384 . S
N717 C709 1.427 . S
N717 C715 1.384 . S
H718 C724 0.930 . S
H719 C728 0.930 . S
H720 C733 0.929 . S
H721 C731 0.929 1_455 S
H722 C726 0.929 . S
H723 C732 0.929 . S
C724 H718 0.930 . S
C724 C725 1.367 . S
C724 C732 1.378 . S
C725 C724 1.367 . S
C725 C733 1.433 . S
C726 H722 0.929 . S
C726 C728 1.378 . S
C726 C730 1.350 . S
C727 C730 1.463 . S
C727 C732 1.350 . S
C727 N735 1.427 . S
C728 H719 0.930 . S
C728 C726 1.378 . S
C728 C729 1.388 . S
C729 C728 1.388 . S
C729 C731 1.436 . S
C730 C726 1.350 . S
C730 C727 1.463 . S
C730 N734 1.427 . S
C731 H721 0.929 1_655 S
C731 C729 1.436 . S
C731 N734 1.384 . S
C732 H723 0.929 . S
C732 C724 1.378 . S
C732 C727 1.350 . S
C733 H720 0.929 . S
C733 C725 1.433 . S
C733 N735 1.384 . S
N734 C730 1.427 . S
N734 C731 1.384 . S
N735 C727 1.427 . S
N735 C733 1.384 . S
H736 C742 0.930 . S
H737 C746 0.930 . S
H738 C751 0.929 . S
H739 C749 0.929 . S
H740 C744 0.929 . S
H741 C750 0.929 . S
C742 H736 0.930 . S
C742 C743 1.367 . S
C742 C750 1.378 . S
C743 C742 1.367 . S
C743 C751 1.433 . S
C744 H740 0.929 . S
C744 C746 1.378 . S
C744 C748 1.350 . S
C745 C748 1.463 . S
C745 C750 1.350 . S
C745 N753 1.427 . S
C746 H737 0.930 . S
C746 C744 1.378 . S
C746 C747 1.367 . S
C747 C746 1.367 . S
C747 C749 1.433 . S
C748 C744 1.350 . S
C748 C745 1.463 . S
C748 N752 1.427 . S
C749 H739 0.929 . S
C749 C747 1.433 . S
C749 N752 1.384 . S
C750 H741 0.929 . S
C750 C742 1.378 . S
C750 C745 1.350 . S
C751 H738 0.929 . S
C751 C743 1.433 . S
C751 N753 1.384 . S
N752 C748 1.427 . S
N752 C749 1.384 . S
N753 C745 1.427 . S
N753 C751 1.384 . S
H754 C760 0.930 . S
H755 C764 0.930 . S
H756 C769 0.929 . S
H757 C767 0.929 . S
H758 C762 0.929 . S
H759 C768 0.929 . S
C760 H754 0.930 . S
C760 C761 1.367 . S
C760 C768 1.378 . S
C761 C760 1.367 . S
C761 C769 1.433 . S
C762 H758 0.929 . S
C762 C764 1.378 . S
C762 C766 1.350 . S
C763 C766 1.463 . S
C763 C768 1.350 . S
C763 N771 1.427 . S
C764 H755 0.930 . S
C764 C762 1.378 . S
C764 C765 1.367 . S
C765 C764 1.367 . S
C765 C767 1.433 . S
C766 C762 1.350 . S
C766 C763 1.463 . S
C766 N770 1.427 . S
C767 H757 0.929 . S
C767 C765 1.433 . S
C767 N770 1.384 . S
C768 H759 0.929 . S
C768 C760 1.378 . S
C768 C763 1.350 . S
C769 H756 0.929 . S
C769 C761 1.433 . S
C769 N771 1.384 . S
N770 C766 1.427 . S
N770 C767 1.384 . S
N771 C763 1.427 . S
N771 C769 1.384 . S
H772 C778 0.930 . S
H773 C782 0.930 . S
H774 C787 0.929 . S
H775 C785 0.929 . S
H776 C780 0.929 . S
H777 C786 0.929 . S
C778 H772 0.930 . S
C778 C779 1.367 . S
C778 C786 1.378 . S
C779 C778 1.367 . S
C779 C787 1.433 . S
C780 H776 0.929 . S
C780 C782 1.378 . S
C780 C784 1.350 . S
C781 C784 1.463 . S
C781 C786 1.350 . S
C781 N789 1.427 . S
C782 H773 0.930 . S
C782 C780 1.378 . S
C782 C783 1.367 . S
C783 C782 1.367 . S
C783 C785 1.433 . S
C784 C780 1.350 . S
C784 C781 1.463 . S
C784 N788 1.427 . S
C785 H775 0.929 . S
C785 C783 1.433 . S
C785 N788 1.384 . S
C786 H777 0.929 . S
C786 C778 1.378 . S
C786 C781 1.350 . S
C787 H774 0.929 . S
C787 C779 1.433 . S
C787 N789 1.384 . S
N788 C784 1.427 . S
N788 C785 1.384 . S
N789 C781 1.427 . S
N789 C787 1.384 . S
H790 C796 0.930 . S
H791 C800 0.930 . S
H792 C805 0.929 . S
H793 C803 0.929 . S
H794 C798 0.929 . S
H795 C804 0.929 . S
C796 H790 0.930 . S
C796 C797 1.367 . S
C796 C804 1.378 . S
C797 C796 1.367 . S
C797 C805 1.433 . S
C798 H794 0.929 . S
C798 C800 1.378 . S
C798 C802 1.350 . S
C799 C802 1.463 . S
C799 C804 1.350 . S
C799 N807 1.427 . S
C800 H791 0.930 . S
C800 C798 1.378 . S
C800 C801 1.374 . S
C801 C800 1.374 . S
C801 C803 1.441 . S
C802 C798 1.350 . S
C802 C799 1.463 . S
C802 N806 1.427 . S
C803 H793 0.929 . S
C803 C801 1.441 . S
C803 N806 1.384 . S
C804 H795 0.929 . S
C804 C796 1.378 . S
C804 C799 1.350 . S
C805 H792 0.929 . S
C805 C797 1.433 . S
C805 N807 1.384 . S
N806 C802 1.427 . S
N806 C803 1.384 . S
N807 C799 1.427 . S
N807 C805 1.384 . S
H808 C814 0.930 . S
H809 C818 0.930 . S
H810 C823 0.929 . S
H811 C821 0.929 . S
H812 C816 0.929 . S
H813 C822 0.929 . S
C814 H808 0.930 . S
C814 C815 1.367 . S
C814 C822 1.378 . S
C815 C814 1.367 . S
C815 C823 1.433 . S
C816 H812 0.929 . S
C816 C818 1.378 . S
C816 C820 1.350 . S
C817 C820 1.463 . S
C817 C822 1.350 . S
C817 N825 1.427 . S
C818 H809 0.930 . S
C818 C816 1.378 . S
C818 C819 1.367 . S
C819 C818 1.367 . S
C819 C821 1.433 . S
C820 C816 1.350 . S
C820 C817 1.463 . S
C820 N824 1.427 . S
C821 H811 0.929 . S
C821 C819 1.433 . S
C821 N824 1.384 . S
C822 H813 0.929 . S
C822 C814 1.378 . S
C822 C817 1.350 . S
C823 H810 0.929 . S
C823 C815 1.433 . S
C823 N825 1.384 . S
N824 C820 1.427 . S
N824 C821 1.384 . S
N825 C817 1.427 . S
N825 C823 1.384 . S
H826 C832 0.930 . S
H827 C836 0.930 . S
H828 C841 0.923 1_455 S
H829 C839 0.929 . S
H830 C834 0.929 . S
H831 C840 0.929 . S
C832 H826 0.930 . S
C832 C833 1.393 . S
C832 C840 1.378 . S
C833 C832 1.393 . S
C833 C841 1.433 . S
C834 H830 0.929 . S
C834 C836 1.378 . S
C834 C838 1.350 . S
C835 C838 1.463 . S
C835 C840 1.350 . S
C835 N843 1.427 . S
C836 H827 0.930 . S
C836 C834 1.378 . S
C836 C837 1.367 . S
C837 C836 1.367 . S
C837 C839 1.433 . S
C838 C834 1.350 . S
C838 C835 1.463 . S
C838 N842 1.427 . S
C839 H829 0.929 . S
C839 C837 1.433 . S
C839 N842 1.384 . S
C840 H831 0.929 . S
C840 C832 1.378 . S
C840 C835 1.350 . S
C841 H828 0.923 1_655 S
C841 C833 1.433 . S
C841 N843 1.390 . S
N842 C838 1.427 . S
N842 C839 1.384 . S
N843 C835 1.427 . S
N843 C841 1.390 . S
H844 C850 0.930 . S
H845 C854 0.930 . S
H846 C859 0.929 . S
H847 C857 0.929 . S
H848 C852 0.929 . S
H849 C858 0.929 . S
C850 H844 0.930 . S
C850 C851 1.367 . S
C850 C858 1.378 . S
C851 C850 1.367 . S
C851 C859 1.433 . S
C852 H848 0.929 . S
C852 C854 1.378 . S
C852 C856 1.350 . S
C853 C856 1.463 . S
C853 C858 1.350 . S
C853 N861 1.427 . S
C854 H845 0.930 . S
C854 C852 1.378 . S
C854 C855 1.367 . S
C855 C854 1.367 . S
C855 C857 1.433 . S
C856 C852 1.350 . S
C856 C853 1.463 . S
C856 N860 1.427 . S
C857 H847 0.929 . S
C857 C855 1.433 . S
C857 N860 1.384 . S
C858 H849 0.929 . S
C858 C850 1.378 . S
C858 C853 1.350 . S
C859 H846 0.929 . S
C859 C851 1.433 . S
C859 N861 1.384 . S
N860 C856 1.427 . S
N860 C857 1.384 . S
N861 C853 1.427 . S
N861 C859 1.384 . S
H862 C868 0.930 . S
H863 C872 0.930 . S
H864 C877 0.929 . S
H865 C875 0.929 . S
H866 C870 0.929 . S
H867 C876 0.929 . S
C868 H862 0.930 . S
C868 C869 1.367 . S
C868 C876 1.378 . S
C869 C868 1.367 . S
C869 C877 1.433 . S
C870 H866 0.929 . S
C870 C872 1.378 . S
C870 C874 1.350 . S
C871 C874 1.463 . S
C871 C876 1.350 . S
C871 N879 1.427 . S
C872 H863 0.930 . S
C872 C870 1.378 . S
C872 C873 1.367 . S
C873 C872 1.367 . S
C873 C875 1.433 . S
C874 C870 1.350 . S
C874 C871 1.463 . S
C874 N878 1.427 . S
C875 H865 0.929 . S
C875 C873 1.433 . S
C875 N878 1.384 . S
C876 H867 0.929 . S
C876 C868 1.378 . S
C876 C871 1.350 . S
C877 H864 0.929 . S
C877 C869 1.433 . S
C877 N879 1.384 . S
N878 C874 1.427 . S
N878 C875 1.384 . S
N879 C871 1.427 . S
N879 C877 1.384 . S
H880 C886 0.930 . S
H881 C890 0.930 . S
H882 C895 0.929 . S
H883 C893 0.929 . S
H884 C888 0.929 . S
H885 C894 0.929 . S
C886 H880 0.930 . S
C886 C887 1.367 . S
C886 C894 1.378 . S
C887 C886 1.367 . S
C887 C895 1.433 . S
C888 H884 0.929 . S
C888 C890 1.378 . S
C888 C892 1.350 . S
C889 C892 1.463 . S
C889 C894 1.350 . S
C889 N897 1.427 . S
C890 H881 0.930 . S
C890 C888 1.378 . S
C890 C891 1.367 . S
C891 C890 1.367 . S
C891 C893 1.433 . S
C892 C888 1.350 . S
C892 C889 1.463 . S
C892 N896 1.427 . S
C893 H883 0.929 . S
C893 C891 1.433 . S
C893 N896 1.384 . S
C894 H885 0.929 . S
C894 C886 1.378 . S
C894 C889 1.350 . S
C895 H882 0.929 . S
C895 C887 1.433 . S
C895 N897 1.384 . S
N896 C892 1.427 . S
N896 C893 1.384 . S
N897 C889 1.427 . S
N897 C895 1.384 . S
H898 C904 0.930 . S
H899 C908 0.930 . S
H900 C913 0.929 . S
H901 C911 0.929 . S
H902 C906 0.929 . S
H903 C912 0.929 . S
C904 H898 0.930 . S
C904 C905 1.367 . S
C904 C912 1.378 . S
C905 C904 1.367 . S
C905 C913 1.433 . S
C906 H902 0.929 . S
C906 C908 1.378 . S
C906 C910 1.350 . S
C907 C910 1.463 . S
C907 C912 1.350 . S
C907 N915 1.427 . S
C908 H899 0.930 . S
C908 C906 1.378 . S
C908 C909 1.367 . S
C909 C908 1.367 . S
C909 C911 1.433 . S
C910 C906 1.350 . S
C910 C907 1.463 . S
C910 N914 1.427 . S
C911 H901 0.929 . S
C911 C909 1.433 . S
C911 N914 1.384 . S
C912 H903 0.929 . S
C912 C904 1.378 . S
C912 C907 1.350 . S
C913 H900 0.929 . S
C913 C905 1.433 . S
C913 N915 1.384 . S
N914 C910 1.427 . S
N914 C911 1.384 . S
N915 C907 1.427 . S
N915 C913 1.384 . S
H916 C922 0.930 . S
H917 C926 0.930 . S
H918 C931 0.929 . S
H919 C929 0.929 . S
H920 C924 0.929 . S
H921 C930 0.929 . S
C922 H916 0.930 . S
C922 C923 1.367 . S
C922 C930 1.378 . S
C923 C922 1.367 . S
C923 C931 1.433 . S
C924 H920 0.929 . S
C924 C926 1.378 . S
C924 C928 1.350 . S
C925 C928 1.463 . S
C925 C930 1.350 . S
C925 N933 1.427 . S
C926 H917 0.930 . S
C926 C924 1.378 . S
C926 C927 1.367 . S
C927 C926 1.367 . S
C927 C929 1.433 . S
C928 C924 1.350 . S
C928 C925 1.463 . S
C928 N932 1.427 . S
C929 H919 0.929 . S
C929 C927 1.433 . S
C929 N932 1.384 . S
C930 H921 0.929 . S
C930 C922 1.378 . S
C930 C925 1.350 . S
C931 H918 0.929 . S
C931 C923 1.433 . S
C931 N933 1.384 . S
N932 C928 1.427 . S
N932 C929 1.384 . S
N933 C925 1.427 . S
N933 C931 1.384 . S
H934 C940 0.930 . S
H935 C944 0.930 . S
H936 C949 0.956 . S
H937 C947 0.929 . S
H938 C942 0.929 . S
H939 C948 0.929 . S
C940 H934 0.930 . S
C940 C941 1.395 . S
C940 C948 1.378 . S
C941 C940 1.395 . S
C941 C949 1.431 1_455 S
C942 H938 0.929 . S
C942 C944 1.378 . S
C942 C946 1.350 . S
C943 C946 1.463 . S
C943 C948 1.350 . S
C943 N951 1.427 . S
C944 H935 0.930 . S
C944 C942 1.378 . S
C944 C945 1.367 . S
C945 C944 1.367 . S
C945 C947 1.433 . S
C946 C942 1.350 . S
C946 C943 1.463 . S
C946 N950 1.427 . S
C947 H937 0.929 . S
C947 C945 1.433 . S
C947 N950 1.384 . S
C948 H939 0.929 . S
C948 C940 1.378 . S
C948 C943 1.350 . S
C949 H936 0.956 . S
C949 C941 1.431 1_655 S
C949 N951 1.357 1_655 S
N950 C946 1.427 . S
N950 C947 1.384 . S
N951 C943 1.427 . S
N951 C949 1.357 1_455 S
H952 C958 0.930 . S
H953 C962 0.930 . S
H954 C967 0.929 . S
H955 C965 0.929 . S
H956 C960 0.929 . S
H957 C966 0.929 . S
C958 H952 0.930 . S
C958 C959 1.367 . S
C958 C966 1.378 . S
C959 C958 1.367 . S
C959 C967 1.433 . S
C960 H956 0.929 . S
C960 C962 1.378 . S
C960 C964 1.350 . S
C961 C964 1.463 . S
C961 C966 1.350 . S
C961 N969 1.427 . S
C962 H953 0.930 . S
C962 C960 1.378 . S
C962 C963 1.367 . S
C963 C962 1.367 . S
C963 C965 1.433 . S
C964 C960 1.350 . S
C964 C961 1.463 . S
C964 N968 1.427 . S
C965 H955 0.929 . S
C965 C963 1.433 . S
C965 N968 1.384 . S
C966 H957 0.929 . S
C966 C958 1.378 . S
C966 C961 1.350 . S
C967 H954 0.929 . S
C967 C959 1.433 . S
C967 N969 1.384 . S
N968 C964 1.427 . S
N968 C965 1.384 . S
N969 C961 1.427 . S
N969 C967 1.384 . S
H970 C976 0.930 . S
H971 C980 0.930 . S
H972 C985 0.898 1_655 S
H973 C983 0.929 . S
H974 C978 0.929 . S
H975 C984 0.929 . S
C976 H970 0.930 . S
C976 C977 1.392 . S
C976 C984 1.378 . S
C977 C976 1.392 . S
C977 C985 1.433 . S
C978 H974 0.929 . S
C978 C980 1.378 . S
C978 C982 1.350 . S
C979 C982 1.463 . S
C979 C984 1.350 . S
C979 N987 1.427 . S
C980 H971 0.930 . S
C980 C978 1.378 . S
C980 C981 1.367 . S
C981 C980 1.367 . S
C981 C983 1.433 . S
C982 C978 1.350 . S
C982 C979 1.463 . S
C982 N986 1.427 . S
C983 H973 0.929 . S
C983 C981 1.433 . S
C983 N986 1.384 . S
C984 H975 0.929 . S
C984 C976 1.378 . S
C984 C979 1.350 . S
C985 H972 0.898 1_455 S
C985 C977 1.433 . S
C985 N987 1.416 . S
N986 C982 1.427 . S
N986 C983 1.384 . S
N987 C979 1.427 . S
N987 C985 1.416 . S
H988 C994 0.930 . S
H989 C998 0.930 . S
H990 C1003 0.929 . S
H991 C1001 0.929 . S
H992 C996 0.929 . S
H993 C1002 0.929 . S
C994 H988 0.930 . S
C994 C995 1.367 . S
C994 C1002 1.378 . S
C995 C994 1.367 . S
C995 C1003 1.433 . S
C996 H992 0.929 . S
C996 C998 1.378 . S
C996 C1000 1.350 . S
C997 C1000 1.463 . S
C997 C1002 1.350 . S
C997 N1005 1.427 . S
C998 H989 0.930 . S
C998 C996 1.378 . S
C998 C999 1.367 . S
C999 C998 1.367 . S
C999 C1001 1.433 . S
C1000 C996 1.350 . S
C1000 C997 1.463 . S
C1000 N1004 1.427 . S
C1001 H991 0.929 . S
C1001 C999 1.433 . S
C1001 N1004 1.384 . S
C1002 H993 0.929 . S
C1002 C994 1.378 . S
C1002 C997 1.350 . S
C1003 H990 0.929 . S
C1003 C995 1.433 . S
C1003 N1005 1.384 . S
N1004 C1000 1.427 . S
N1004 C1001 1.384 . S
N1005 C997 1.427 . S
N1005 C1003 1.384 . S
H1006 C1012 0.930 . S
H1007 C1016 0.930 . S
H1008 C1021 0.929 . S
H1009 C1019 0.929 . S
H1010 C1014 0.929 . S
H1011 C1020 0.929 . S
C1012 H1006 0.930 . S
C1012 C1013 1.367 . S
C1012 C1020 1.378 . S
C1013 C1012 1.367 . S
C1013 C1021 1.433 . S
C1014 H1010 0.929 . S
C1014 C1016 1.378 . S
C1014 C1018 1.350 . S
C1015 C1018 1.463 . S
C1015 C1020 1.350 . S
C1015 N1023 1.427 . S
C1016 H1007 0.930 . S
C1016 C1014 1.378 . S
C1016 C1017 1.367 . S
C1017 C1016 1.367 . S
C1017 C1019 1.433 . S
C1018 C1014 1.350 . S
C1018 C1015 1.463 . S
C1018 N1022 1.427 . S
C1019 H1009 0.929 . S
C1019 C1017 1.433 . S
C1019 N1022 1.384 . S
C1020 H1011 0.929 . S
C1020 C1012 1.378 . S
C1020 C1015 1.350 . S
C1021 H1008 0.929 . S
C1021 C1013 1.433 . S
C1021 N1023 1.384 . S
N1022 C1018 1.427 . S
N1022 C1019 1.384 . S
N1023 C1015 1.427 . S
N1023 C1021 1.384 . S
H1024 C1030 0.930 . S
H1025 C1034 0.930 . S
H1026 C1039 0.929 . S
H1027 C1037 0.929 . S
H1028 C1032 0.929 . S
H1029 C1038 0.929 . S
C1030 H1024 0.930 . S
C1030 C1031 1.367 . S
C1030 C1038 1.378 . S
C1031 C1030 1.367 . S
C1031 C1039 1.433 . S
C1032 H1028 0.929 . S
C1032 C1034 1.378 . S
C1032 C1036 1.350 . S
C1033 C1036 1.463 . S
C1033 C1038 1.350 . S
C1033 N1041 1.427 . S
C1034 H1025 0.930 . S
C1034 C1032 1.378 . S
C1034 C1035 1.367 . S
C1035 C1034 1.367 . S
C1035 C1037 1.433 . S
C1036 C1032 1.350 . S
C1036 C1033 1.463 . S
C1036 N1040 1.427 . S
C1037 H1027 0.929 . S
C1037 C1035 1.433 . S
C1037 N1040 1.384 . S
C1038 H1029 0.929 . S
C1038 C1030 1.378 . S
C1038 C1033 1.350 . S
C1039 H1026 0.929 . S
C1039 C1031 1.433 . S
C1039 N1041 1.384 . S
N1040 C1036 1.427 . S
N1040 C1037 1.384 . S
N1041 C1033 1.427 . S
N1041 C1039 1.384 . S
H1042 C1048 0.930 . S
H1043 C1052 0.930 . S
H1044 C1057 0.929 . S
H1045 C1055 0.929 . S
H1046 C1050 0.952 . S
H1047 C1056 0.952 . S
C1048 H1042 0.930 . S
C1048 C1049 1.367 . S
C1048 C1056 1.363 1_655 S
C1049 C1048 1.367 . S
C1049 C1057 1.433 . S
C1050 H1046 0.952 . S
C1050 C1052 1.363 1_655 S
C1050 C1054 1.342 1_655 S
C1051 C1054 1.463 1_665 S
C1051 C1056 1.342 1_655 S
C1051 N1059 1.427 . S
C1052 H1043 0.930 . S
C1052 C1050 1.363 1_455 S
C1052 C1053 1.367 . S
C1053 C1052 1.367 . S
C1053 C1055 1.433 . S
C1054 C1050 1.342 1_455 S
C1054 C1051 1.463 1_445 S
C1054 N1058 1.427 . S
C1055 H1045 0.929 . S
C1055 C1053 1.433 . S
C1055 N1058 1.384 . S
C1056 H1047 0.952 . S
C1056 C1048 1.363 1_455 S
C1056 C1051 1.342 1_455 S
C1057 H1044 0.929 . S
C1057 C1049 1.433 . S
C1057 N1059 1.384 . S
N1058 C1054 1.427 . S
N1058 C1055 1.384 . S
N1059 C1051 1.427 . S
N1059 C1057 1.384 . S
H1060 C1066 0.930 . S
H1061 C1070 0.930 . S
H1062 C1075 0.929 . S
H1063 C1073 0.929 . S
H1064 C1068 0.929 . S
H1065 C1074 0.929 . S
C1066 H1060 0.930 . S
C1066 C1067 1.367 . S
C1066 C1074 1.378 . S
C1067 C1066 1.367 . S
C1067 C1075 1.433 . S
C1068 H1064 0.929 . S
C1068 C1070 1.378 . S
C1068 C1072 1.350 . S
C1069 C1072 1.463 . S
C1069 C1074 1.350 . S
C1069 N1077 1.427 . S
C1070 H1061 0.930 . S
C1070 C1068 1.378 . S
C1070 C1071 1.367 . S
C1071 C1070 1.367 . S
C1071 C1073 1.433 . S
C1072 C1068 1.350 . S
C1072 C1069 1.463 . S
C1072 N1076 1.427 . S
C1073 H1063 0.929 . S
C1073 C1071 1.433 . S
C1073 N1076 1.384 . S
C1074 H1065 0.929 . S
C1074 C1066 1.378 . S
C1074 C1069 1.350 . S
C1075 H1062 0.929 . S
C1075 C1067 1.433 . S
C1075 N1077 1.384 . S
N1076 C1072 1.427 . S
N1076 C1073 1.384 . S
N1077 C1069 1.427 . S
N1077 C1075 1.384 . S
H1078 C1084 0.930 . S
H1079 C1088 0.930 . S
H1080 C1093 0.929 . S
H1081 C1091 0.929 . S
H1082 C1086 0.929 . S
H1083 C1092 0.929 . S
C1084 H1078 0.930 . S
C1084 C1085 1.367 . S
C1084 C1092 1.378 1_554 S
C1085 C1084 1.367 . S
C1085 C1093 1.433 . S
C1086 H1082 0.929 . S
C1086 C1088 1.378 1_554 S
C1086 C1090 1.350 1_554 S
C1087 C1090 1.463 1_544 S
C1087 C1092 1.350 1_554 S
C1087 N1095 1.427 . S
C1088 H1079 0.930 . S
C1088 C1086 1.378 1_556 S
C1088 C1089 1.367 . S
C1089 C1088 1.367 . S
C1089 C1091 1.433 . S
C1090 C1086 1.350 1_556 S
C1090 C1087 1.463 1_566 S
C1090 N1094 1.427 . S
C1091 H1081 0.929 . S
C1091 C1089 1.433 . S
C1091 N1094 1.384 . S
C1092 H1083 0.929 . S
C1092 C1084 1.378 1_556 S
C1092 C1087 1.350 1_556 S
C1093 H1080 0.929 . S
C1093 C1085 1.433 . S
C1093 N1095 1.384 . S
N1094 C1090 1.427 . S
N1094 C1091 1.384 . S
N1095 C1087 1.427 . S
N1095 C1093 1.384 . S
H1096 C1102 0.930 . S
H1097 C1106 0.930 . S
H1098 C1111 0.929 . S
H1099 C1109 0.929 . S
H1100 C1104 0.929 . S
H1101 C1110 0.929 . S
C1102 H1096 0.930 . S
C1102 C1103 1.367 . S
C1102 C1110 1.378 . S
C1103 C1102 1.367 . S
C1103 C1111 1.433 . S
C1104 H1100 0.929 . S
C1104 C1106 1.378 . S
C1104 C1108 1.350 . S
C1105 C1108 1.463 . S
C1105 C1110 1.350 . S
C1105 N1113 1.427 . S
C1106 H1097 0.930 . S
C1106 C1104 1.378 . S
C1106 C1107 1.367 . S
C1107 C1106 1.367 . S
C1107 C1109 1.433 . S
C1108 C1104 1.350 . S
C1108 C1105 1.463 . S
C1108 N1112 1.427 . S
C1109 H1099 0.929 . S
C1109 C1107 1.433 . S
C1109 N1112 1.384 . S
C1110 H1101 0.929 . S
C1110 C1102 1.378 . S
C1110 C1105 1.350 . S
C1111 H1098 0.929 . S
C1111 C1103 1.433 . S
C1111 N1113 1.384 . S
N1112 C1108 1.427 . S
N1112 C1109 1.384 . S
N1113 C1105 1.427 . S
N1113 C1111 1.384 . S
H1114 C1120 0.930 . S
H1115 C1124 0.930 . S
H1116 C1129 0.929 . S
H1117 C1127 0.929 . S
H1118 C1122 0.929 . S
H1119 C1128 0.929 . S
C1120 H1114 0.930 . S
C1120 C1121 1.367 . S
C1120 C1128 1.378 . S
C1121 C1120 1.367 . S
C1121 C1129 1.433 . S
C1122 H1118 0.929 . S
C1122 C1124 1.378 . S
C1122 C1126 1.350 . S
C1123 C1126 1.463 1_565 S
C1123 C1128 1.350 . S
C1123 N1131 1.427 . S
C1124 H1115 0.930 . S
C1124 C1122 1.378 . S
C1124 C1125 1.367 . S
C1125 C1124 1.367 . S
C1125 C1127 1.433 . S
C1126 C1122 1.350 . S
C1126 C1123 1.463 1_545 S
C1126 N1130 1.427 . S
C1127 H1117 0.929 . S
C1127 C1125 1.433 . S
C1127 N1130 1.384 . S
C1128 H1119 0.929 . S
C1128 C1120 1.378 . S
C1128 C1123 1.350 . S
C1129 H1116 0.929 . S
C1129 C1121 1.433 . S
C1129 N1131 1.384 . S
N1130 C1126 1.427 . S
N1130 C1127 1.384 . S
N1131 C1123 1.427 . S
N1131 C1129 1.384 . S
H1132 C1138 0.930 . S
H1133 C1142 0.930 . S
H1134 C1147 0.929 . S
H1135 C1145 0.929 . S
H1136 C1140 0.929 . S
H1137 C1146 0.929 . S
C1138 H1132 0.930 . S
C1138 C1139 1.367 . S
C1138 C1146 1.378 . S
C1139 C1138 1.367 . S
C1139 C1147 1.433 . S
C1140 H1136 0.929 . S
C1140 C1142 1.378 . S
C1140 C1144 1.350 . S
C1141 C1144 1.463 . S
C1141 C1146 1.350 . S
C1141 N1149 1.427 . S
C1142 H1133 0.930 . S
C1142 C1140 1.378 . S
C1142 C1143 1.367 . S
C1143 C1142 1.367 . S
C1143 C1145 1.433 . S
C1144 C1140 1.350 . S
C1144 C1141 1.463 . S
C1144 N1148 1.427 . S
C1145 H1135 0.929 . S
C1145 C1143 1.433 . S
C1145 N1148 1.384 . S
C1146 H1137 0.929 . S
C1146 C1138 1.378 . S
C1146 C1141 1.350 . S
C1147 H1134 0.929 . S
C1147 C1139 1.433 . S
C1147 N1149 1.384 . S
N1148 C1144 1.427 . S
N1148 C1145 1.384 . S
N1149 C1141 1.427 . S
N1149 C1147 1.384 . S
H1150 C1156 0.930 1_554 S
H1151 C1160 0.930 1_556 S
H1152 C1165 0.929 . S
H1153 C1163 0.929 . S
H1154 C1158 0.893 1_545 S
H1155 C1164 0.893 1_565 S
C1156 H1150 0.930 1_556 S
C1156 C1157 1.367 . S
C1156 C1164 1.378 1_556 S
C1157 C1156 1.367 . S
C1157 C1165 1.433 . S
C1158 H1154 0.893 1_565 S
C1158 C1160 1.378 1_556 S
C1158 C1162 1.350 1_556 S
C1159 C1162 1.463 1_646 S
C1159 C1164 1.350 1_556 S
C1159 N1167 1.422 1_655 S
C1160 H1151 0.930 1_554 S
C1160 C1158 1.378 1_554 S
C1160 C1161 1.367 . S
C1161 C1160 1.367 . S
C1161 C1163 1.433 . S
C1162 C1158 1.350 1_554 S
C1162 C1159 1.463 1_464 S
C1162 N1166 1.422 1_455 S
C1163 H1153 0.929 . S
C1163 C1161 1.433 . S
C1163 N1166 1.374 1_455 S
C1164 H1155 0.893 1_545 S
C1164 C1156 1.378 1_554 S
C1164 C1159 1.350 1_554 S
C1165 H1152 0.929 . S
C1165 C1157 1.433 . S
C1165 N1167 1.374 1_655 S
N1166 C1162 1.422 1_655 S
N1166 C1163 1.374 1_655 S
N1167 C1159 1.422 1_455 S
N1167 C1165 1.374 1_455 S
H1168 C1174 0.930 . S
H1169 C1178 0.930 . S
H1170 C1183 0.929 . S
H1171 C1181 0.929 . S
H1172 C1176 0.929 . S
H1173 C1182 0.929 . S
C1174 H1168 0.930 . S
C1174 C1175 1.367 . S
C1174 C1182 1.378 . S
C1175 C1174 1.367 . S
C1175 C1183 1.433 . S
C1176 H1172 0.929 . S
C1176 C1178 1.378 . S
C1176 C1180 1.350 . S
C1177 C1180 1.463 . S
C1177 C1182 1.350 . S
C1177 N1185 1.427 . S
C1178 H1169 0.930 . S
C1178 C1176 1.378 . S
C1178 C1179 1.367 . S
C1179 C1178 1.367 . S
C1179 C1181 1.433 . S
C1180 C1176 1.350 . S
C1180 C1177 1.463 . S
C1180 N1184 1.427 . S
C1181 H1171 0.929 . S
C1181 C1179 1.433 . S
C1181 N1184 1.384 . S
C1182 H1173 0.929 . S
C1182 C1174 1.378 . S
C1182 C1177 1.350 . S
C1183 H1170 0.929 . S
C1183 C1175 1.433 . S
C1183 N1185 1.384 . S
N1184 C1180 1.427 . S
N1184 C1181 1.384 . S
N1185 C1177 1.427 . S
N1185 C1183 1.384 . S
H1186 C1192 0.930 . S
H1187 C1196 0.930 . S
H1188 C1201 0.929 . S
H1189 C1199 0.929 . S
H1190 C1194 0.929 . S
H1191 C1200 0.929 . S
C1192 H1186 0.930 . S
C1192 C1193 1.367 . S
C1192 C1200 1.378 . S
C1193 C1192 1.367 . S
C1193 C1201 1.433 . S
C1194 H1190 0.929 . S
C1194 C1196 1.378 . S
C1194 C1198 1.350 . S
C1195 C1198 1.463 . S
C1195 C1200 1.350 . S
C1195 N1203 1.427 . S
C1196 H1187 0.930 . S
C1196 C1194 1.378 . S
C1196 C1197 1.367 . S
C1197 C1196 1.367 . S
C1197 C1199 1.433 . S
C1198 C1194 1.350 . S
C1198 C1195 1.463 . S
C1198 N1202 1.427 . S
C1199 H1189 0.929 . S
C1199 C1197 1.433 . S
C1199 N1202 1.384 . S
C1200 H1191 0.929 . S
C1200 C1192 1.378 . S
C1200 C1195 1.350 . S
C1201 H1188 0.929 . S
C1201 C1193 1.433 . S
C1201 N1203 1.384 . S
N1202 C1198 1.427 . S
N1202 C1199 1.384 . S
N1203 C1195 1.427 . S
N1203 C1201 1.384 . S
H1204 C1210 0.930 . S
H1205 C1214 0.930 . S
H1206 C1219 0.929 . S
H1207 C1217 0.929 . S
H1208 C1212 0.929 . S
H1209 C1218 0.929 . S
C1210 H1204 0.930 . S
C1210 C1211 1.367 . S
C1210 C1218 1.378 . S
C1211 C1210 1.367 . S
C1211 C1219 1.433 . S
C1212 H1208 0.929 . S
C1212 C1214 1.378 . S
C1212 C1216 1.350 . S
C1213 C1216 1.463 . S
C1213 C1218 1.350 . S
C1213 N1221 1.427 . S
C1214 H1205 0.930 . S
C1214 C1212 1.378 . S
C1214 C1215 1.367 . S
C1215 C1214 1.367 . S
C1215 C1217 1.433 . S
C1216 C1212 1.350 . S
C1216 C1213 1.463 . S
C1216 N1220 1.427 . S
C1217 H1207 0.929 . S
C1217 C1215 1.433 . S
C1217 N1220 1.384 . S
C1218 H1209 0.929 . S
C1218 C1210 1.378 . S
C1218 C1213 1.350 . S
C1219 H1206 0.929 . S
C1219 C1211 1.433 . S
C1219 N1221 1.384 . S
N1220 C1216 1.427 . S
N1220 C1217 1.384 . S
N1221 C1213 1.427 . S
N1221 C1219 1.384 . S
H1222 C1228 0.930 . S
H1223 C1232 0.930 . S
H1224 C1237 0.929 . S
H1225 C1235 0.929 . S
H1226 C1230 0.929 . S
H1227 C1236 0.929 . S
C1228 H1222 0.930 . S
C1228 C1229 1.367 . S
C1228 C1236 1.378 . S
C1229 C1228 1.367 . S
C1229 C1237 1.433 . S
C1230 H1226 0.929 . S
C1230 C1232 1.378 . S
C1230 C1234 1.350 . S
C1231 C1234 1.463 . S
C1231 C1236 1.350 . S
C1231 N1239 1.427 . S
C1232 H1223 0.930 . S
C1232 C1230 1.378 . S
C1232 C1233 1.367 . S
C1233 C1232 1.367 . S
C1233 C1235 1.433 . S
C1234 C1230 1.350 . S
C1234 C1231 1.463 . S
C1234 N1238 1.427 . S
C1235 H1225 0.929 . S
C1235 C1233 1.433 . S
C1235 N1238 1.384 . S
C1236 H1227 0.929 . S
C1236 C1228 1.378 . S
C1236 C1231 1.350 . S
C1237 H1224 0.929 . S
C1237 C1229 1.433 . S
C1237 N1239 1.384 . S
N1238 C1234 1.427 . S
N1238 C1235 1.384 . S
N1239 C1231 1.427 . S
N1239 C1237 1.384 . S
H1240 C1246 0.930 . S
H1241 C1250 0.930 . S
H1242 C1255 0.929 . S
H1243 C1253 0.929 . S
H1244 C1248 0.929 . S
H1245 C1254 0.929 . S
C1246 H1240 0.930 . S
C1246 C1247 1.367 . S
C1246 C1254 1.378 . S
C1247 C1246 1.367 . S
C1247 C1255 1.433 1_554 S
C1248 H1244 0.929 . S
C1248 C1250 1.378 . S
C1248 C1252 1.350 . S
C1249 C1252 1.463 1_554 S
C1249 C1254 1.350 . S
C1249 N1257 1.427 1_554 S
C1250 H1241 0.930 . S
C1250 C1248 1.378 . S
C1250 C1251 1.367 . S
C1251 C1250 1.367 . S
C1251 C1253 1.433 1_556 S
C1252 C1248 1.350 . S
C1252 C1249 1.463 1_556 S
C1252 N1256 1.427 1_556 S
C1253 H1243 0.929 . S
C1253 C1251 1.433 1_554 S
C1253 N1256 1.384 . S
C1254 H1245 0.929 . S
C1254 C1246 1.378 . S
C1254 C1249 1.350 . S
C1255 H1242 0.929 . S
C1255 C1247 1.433 1_556 S
C1255 N1257 1.384 . S
N1256 C1252 1.427 1_554 S
N1256 C1253 1.384 . S
N1257 C1249 1.427 1_556 S
N1257 C1255 1.384 . S
H1258 C1264 0.930 . S
H1259 C1268 0.930 . S
H1260 C1273 0.929 . S
H1261 C1271 0.929 . S
H1262 C1266 0.929 . S
H1263 C1272 0.929 . S
C1264 H1258 0.930 . S
C1264 C1265 1.367 . S
C1264 C1272 1.378 . S
C1265 C1264 1.367 . S
C1265 C1273 1.433 . S
C1266 H1262 0.929 . S
C1266 C1268 1.378 . S
C1266 C1270 1.350 . S
C1267 C1270 1.463 1_655 S
C1267 C1272 1.350 . S
C1267 N1275 1.427 . S
C1268 H1259 0.930 . S
C1268 C1266 1.378 . S
C1268 C1269 1.367 . S
C1269 C1268 1.367 . S
C1269 C1271 1.433 . S
C1270 C1266 1.350 . S
C1270 C1267 1.463 1_455 S
C1270 N1274 1.427 . S
C1271 H1261 0.929 . S
C1271 C1269 1.433 . S
C1271 N1274 1.384 . S
C1272 H1263 0.929 . S
C1272 C1264 1.378 . S
C1272 C1267 1.350 . S
C1273 H1260 0.929 . S
C1273 C1265 1.433 . S
C1273 N1275 1.384 . S
N1274 C1270 1.427 . S
N1274 C1271 1.384 . S
N1275 C1267 1.427 . S
N1275 C1273 1.384 . S
H1276 C1282 0.930 . S
H1277 C1286 0.930 . S
H1278 C1291 0.929 . S
H1279 C1289 0.929 . S
H1280 C1284 0.929 . S
H1281 C1290 0.929 . S
C1282 H1276 0.930 . S
C1282 C1283 1.367 . S
C1282 C1290 1.378 . S
C1283 C1282 1.367 . S
C1283 C1291 1.433 . S
C1284 H1280 0.929 . S
C1284 C1286 1.378 . S
C1284 C1288 1.350 . S
C1285 C1288 1.463 1_456 S
C1285 C1290 1.350 . S
C1285 N1293 1.417 1_455 S
C1286 H1277 0.930 . S
C1286 C1284 1.378 . S
C1286 C1287 1.367 . S
C1287 C1286 1.367 . S
C1287 C1289 1.433 . S
C1288 C1284 1.350 . S
C1288 C1285 1.463 1_654 S
C1288 N1292 1.417 1_655 S
C1289 H1279 0.929 . S
C1289 C1287 1.433 . S
C1289 N1292 1.366 1_655 S
C1290 H1281 0.929 . S
C1290 C1282 1.378 . S
C1290 C1285 1.350 . S
C1291 H1278 0.929 . S
C1291 C1283 1.433 . S
C1291 N1293 1.366 1_455 S
N1292 C1288 1.417 1_455 S
N1292 C1289 1.366 1_455 S
N1293 C1285 1.417 1_655 S
N1293 C1291 1.366 1_655 S
H1294 C1300 0.930 . S
H1295 C1304 0.930 . S
H1296 C1309 0.929 . S
H1297 C1307 0.929 . S
H1298 C1302 0.929 . S
H1299 C1308 0.929 . S
C1300 H1294 0.930 . S
C1300 C1301 1.367 . S
C1300 C1308 1.378 . S
C1301 C1300 1.367 . S
C1301 C1309 1.433 . S
C1302 H1298 0.929 . S
C1302 C1304 1.378 . S
C1302 C1306 1.350 . S
C1303 C1306 1.463 . S
C1303 C1308 1.350 . S
C1303 N1311 1.427 . S
C1304 H1295 0.930 . S
C1304 C1302 1.378 . S
C1304 C1305 1.367 . S
C1305 C1304 1.367 . S
C1305 C1307 1.433 . S
C1306 C1302 1.350 . S
C1306 C1303 1.463 . S
C1306 N1310 1.427 . S
C1307 H1297 0.929 . S
C1307 C1305 1.433 . S
C1307 N1310 1.384 . S
C1308 H1299 0.929 . S
C1308 C1300 1.378 . S
C1308 C1303 1.350 . S
C1309 H1296 0.929 . S
C1309 C1301 1.433 . S
C1309 N1311 1.384 . S
N1310 C1306 1.427 . S
N1310 C1307 1.384 . S
N1311 C1303 1.427 . S
N1311 C1309 1.384 . S
H1312 C1318 0.930 . S
H1313 C1322 0.930 . S
H1314 C1327 0.929 . S
H1315 C1325 0.929 . S
H1316 C1320 0.929 . S
H1317 C1326 0.929 . S
C1318 H1312 0.930 . S
C1318 C1319 1.367 . S
C1318 C1326 1.378 . S
C1319 C1318 1.367 . S
C1319 C1327 1.433 . S
C1320 H1316 0.929 . S
C1320 C1322 1.378 . S
C1320 C1324 1.350 . S
C1321 C1324 1.463 . S
C1321 C1326 1.350 . S
C1321 N1329 1.427 . S
C1322 H1313 0.930 . S
C1322 C1320 1.378 . S
C1322 C1323 1.367 . S
C1323 C1322 1.367 . S
C1323 C1325 1.433 . S
C1324 C1320 1.350 . S
C1324 C1321 1.463 . S
C1324 N1328 1.427 . S
C1325 H1315 0.929 . S
C1325 C1323 1.433 . S
C1325 N1328 1.384 . S
C1326 H1317 0.929 . S
C1326 C1318 1.378 . S
C1326 C1321 1.350 . S
C1327 H1314 0.929 . S
C1327 C1319 1.433 . S
C1327 N1329 1.384 . S
N1328 C1324 1.427 . S
N1328 C1325 1.384 . S
N1329 C1321 1.427 . S
N1329 C1327 1.384 . S
H1330 C1336 0.930 . S
H1331 C1340 0.930 . S
H1332 C1345 0.929 . S
H1333 C1343 0.929 . S
H1334 C1338 0.929 . S
H1335 C1344 0.929 . S
C1336 H1330 0.930 . S
C1336 C1337 1.367 . S
C1336 C1344 1.378 . S
C1337 C1336 1.367 . S
C1337 C1345 1.433 . S
C1338 H1334 0.929 . S
C1338 C1340 1.378 . S
C1338 C1342 1.350 . S
C1339 C1342 1.463 . S
C1339 C1344 1.350 . S
C1339 N1347 1.427 . S
C1340 H1331 0.930 . S
C1340 C1338 1.378 . S
C1340 C1341 1.367 . S
C1341 C1340 1.367 . S
C1341 C1343 1.433 . S
C1342 C1338 1.350 . S
C1342 C1339 1.463 . S
C1342 N1346 1.427 . S
C1343 H1333 0.929 . S
C1343 C1341 1.433 . S
C1343 N1346 1.384 . S
C1344 H1335 0.929 . S
C1344 C1336 1.378 . S
C1344 C1339 1.350 . S
C1345 H1332 0.929 . S
C1345 C1337 1.433 . S
C1345 N1347 1.384 . S
N1346 C1342 1.427 . S
N1346 C1343 1.384 . S
N1347 C1339 1.427 . S
N1347 C1345 1.384 . S
H1348 C1354 0.930 . S
H1349 C1358 0.930 . S
H1350 C1363 0.929 . S
H1351 C1361 0.929 . S
H1352 C1356 0.929 . S
H1353 C1362 0.929 . S
C1354 H1348 0.930 . S
C1354 C1355 1.367 . S
C1354 C1362 1.378 . S
C1355 C1354 1.367 . S
C1355 C1363 1.433 . S
C1356 H1352 0.929 . S
C1356 C1358 1.378 . S
C1356 C1360 1.350 . S
C1357 C1360 1.463 . S
C1357 C1362 1.350 . S
C1357 N1365 1.427 . S
C1358 H1349 0.930 . S
C1358 C1356 1.378 . S
C1358 C1359 1.367 . S
C1359 C1358 1.367 . S
C1359 C1361 1.433 . S
C1360 C1356 1.350 . S
C1360 C1357 1.463 . S
C1360 N1364 1.427 . S
C1361 H1351 0.929 . S
C1361 C1359 1.433 . S
C1361 N1364 1.384 . S
C1362 H1353 0.929 . S
C1362 C1354 1.378 . S
C1362 C1357 1.350 . S
C1363 H1350 0.929 . S
C1363 C1355 1.433 . S
C1363 N1365 1.384 . S
N1364 C1360 1.427 . S
N1364 C1361 1.384 . S
N1365 C1357 1.427 . S
N1365 C1363 1.384 . S
H1366 C1372 0.930 . S
H1367 C1376 0.930 . S
H1368 C1381 0.929 . S
H1369 C1379 0.929 . S
H1370 C1374 0.929 . S
H1371 C1380 0.929 . S
C1372 H1366 0.930 . S
C1372 C1373 1.367 . S
C1372 C1380 1.378 . S
C1373 C1372 1.367 . S
C1373 C1381 1.433 . S
C1374 H1370 0.929 . S
C1374 C1376 1.378 . S
C1374 C1378 1.350 . S
C1375 C1378 1.463 . S
C1375 C1380 1.350 . S
C1375 N1383 1.427 . S
C1376 H1367 0.930 . S
C1376 C1374 1.378 . S
C1376 C1377 1.367 . S
C1377 C1376 1.367 . S
C1377 C1379 1.433 . S
C1378 C1374 1.350 . S
C1378 C1375 1.463 . S
C1378 N1382 1.427 . S
C1379 H1369 0.929 . S
C1379 C1377 1.433 . S
C1379 N1382 1.384 . S
C1380 H1371 0.929 . S
C1380 C1372 1.378 . S
C1380 C1375 1.350 . S
C1381 H1368 0.929 . S
C1381 C1373 1.433 . S
C1381 N1383 1.384 . S
N1382 C1378 1.427 . S
N1382 C1379 1.384 . S
N1383 C1375 1.427 . S
N1383 C1381 1.384 . S
H1384 C1390 0.930 . S
H1385 C1394 0.930 . S
H1386 C1399 0.929 . S
H1387 C1397 0.929 . S
H1388 C1392 0.929 . S
H1389 C1398 0.929 . S
C1390 H1384 0.930 . S
C1390 C1391 1.367 . S
C1390 C1398 1.378 . S
C1391 C1390 1.367 . S
C1391 C1399 1.433 . S
C1392 H1388 0.929 . S
C1392 C1394 1.378 . S
C1392 C1396 1.350 . S
C1393 C1396 1.463 . S
C1393 C1398 1.350 . S
C1393 N1401 1.427 . S
C1394 H1385 0.930 . S
C1394 C1392 1.378 . S
C1394 C1395 1.367 . S
C1395 C1394 1.367 . S
C1395 C1397 1.433 . S
C1396 C1392 1.350 . S
C1396 C1393 1.463 . S
C1396 N1400 1.427 . S
C1397 H1387 0.929 . S
C1397 C1395 1.433 . S
C1397 N1400 1.384 . S
C1398 H1389 0.929 . S
C1398 C1390 1.378 . S
C1398 C1393 1.350 . S
C1399 H1386 0.929 . S
C1399 C1391 1.433 . S
C1399 N1401 1.384 . S
N1400 C1396 1.427 . S
N1400 C1397 1.384 . S
N1401 C1393 1.427 . S
N1401 C1399 1.384 . S
H1402 C1408 0.930 . S
H1403 C1412 0.930 . S
H1404 C1417 0.929 . S
H1405 C1415 0.929 . S
H1406 C1410 0.929 . S
H1407 C1416 0.929 . S
C1408 H1402 0.930 . S
C1408 C1409 1.367 . S
C1408 C1416 1.378 . S
C1409 C1408 1.367 . S
C1409 C1417 1.433 . S
C1410 H1406 0.929 . S
C1410 C1412 1.378 . S
C1410 C1414 1.350 . S
C1411 C1414 1.463 . S
C1411 C1416 1.350 . S
C1411 N1419 1.427 . S
C1412 H1403 0.930 . S
C1412 C1410 1.378 . S
C1412 C1413 1.367 . S
C1413 C1412 1.367 . S
C1413 C1415 1.433 . S
C1414 C1410 1.350 . S
C1414 C1411 1.463 . S
C1414 N1418 1.427 . S
C1415 H1405 0.929 . S
C1415 C1413 1.433 . S
C1415 N1418 1.384 . S
C1416 H1407 0.929 . S
C1416 C1408 1.378 . S
C1416 C1411 1.350 . S
C1417 H1404 0.929 . S
C1417 C1409 1.433 . S
C1417 N1419 1.384 . S
N1418 C1414 1.427 . S
N1418 C1415 1.384 . S
N1419 C1411 1.427 . S
N1419 C1417 1.384 . S
H1420 C1426 0.930 . S
H1421 C1430 0.930 . S
H1422 C1435 0.929 . S
H1423 C1433 0.929 . S
H1424 C1428 0.929 . S
H1425 C1434 0.929 . S
C1426 H1420 0.930 . S
C1426 C1427 1.367 . S
C1426 C1434 1.378 . S
C1427 C1426 1.367 . S
C1427 C1435 1.433 . S
C1428 H1424 0.929 . S
C1428 C1430 1.378 . S
C1428 C1432 1.350 . S
C1429 C1432 1.463 . S
C1429 C1434 1.350 . S
C1429 N1437 1.427 . S
C1430 H1421 0.930 . S
C1430 C1428 1.378 . S
C1430 C1431 1.367 . S
C1431 C1430 1.367 . S
C1431 C1433 1.433 . S
C1432 C1428 1.350 . S
C1432 C1429 1.463 . S
C1432 N1436 1.427 . S
C1433 H1423 0.929 . S
C1433 C1431 1.433 . S
C1433 N1436 1.384 . S
C1434 H1425 0.929 . S
C1434 C1426 1.378 . S
C1434 C1429 1.350 . S
C1435 H1422 0.929 . S
C1435 C1427 1.433 . S
C1435 N1437 1.384 . S
N1436 C1432 1.427 . S
N1436 C1433 1.384 . S
N1437 C1429 1.427 . S
N1437 C1435 1.384 . S
H1438 C1444 0.930 . S
H1439 C1448 0.930 . S
H1440 C1453 0.929 . S
H1441 C1451 0.929 . S
H1442 C1446 0.929 . S
H1443 C1452 0.929 . S
C1444 H1438 0.930 . S
C1444 C1445 1.367 . S
C1444 C1452 1.378 . S
C1445 C1444 1.367 . S
C1445 C1453 1.433 . S
C1446 H1442 0.929 . S
C1446 C1448 1.378 . S
C1446 C1450 1.350 . S
C1447 C1450 1.463 . S
C1447 C1452 1.350 . S
C1447 N1455 1.427 . S
C1448 H1439 0.930 . S
C1448 C1446 1.378 . S
C1448 C1449 1.367 . S
C1449 C1448 1.367 . S
C1449 C1451 1.433 . S
C1450 C1446 1.350 . S
C1450 C1447 1.463 . S
C1450 N1454 1.427 . S
C1451 H1441 0.929 . S
C1451 C1449 1.433 . S
C1451 N1454 1.384 . S
C1452 H1443 0.929 . S
C1452 C1444 1.378 . S
C1452 C1447 1.350 . S
C1453 H1440 0.929 . S
C1453 C1445 1.433 . S
C1453 N1455 1.384 . S
N1454 C1450 1.427 . S
N1454 C1451 1.384 . S
N1455 C1447 1.427 . S
N1455 C1453 1.384 . S
H1456 C1462 0.930 . S
H1457 C1466 0.930 . S
H1458 C1471 0.929 . S
H1459 C1469 0.929 . S
H1460 C1464 0.929 . S
H1461 C1470 0.929 . S
C1462 H1456 0.930 . S
C1462 C1463 1.367 . S
C1462 C1470 1.378 . S
C1463 C1462 1.367 . S
C1463 C1471 1.433 . S
C1464 H1460 0.929 . S
C1464 C1466 1.378 . S
C1464 C1468 1.350 . S
C1465 C1468 1.463 . S
C1465 C1470 1.350 . S
C1465 N1473 1.427 . S
C1466 H1457 0.930 . S
C1466 C1464 1.378 . S
C1466 C1467 1.367 . S
C1467 C1466 1.367 . S
C1467 C1469 1.433 . S
C1468 C1464 1.350 . S
C1468 C1465 1.463 . S
C1468 N1472 1.427 . S
C1469 H1459 0.929 . S
C1469 C1467 1.433 . S
C1469 N1472 1.384 . S
C1470 H1461 0.929 . S
C1470 C1462 1.378 . S
C1470 C1465 1.350 . S
C1471 H1458 0.929 . S
C1471 C1463 1.433 . S
C1471 N1473 1.384 . S
N1472 C1468 1.427 . S
N1472 C1469 1.384 . S
N1473 C1465 1.427 . S
N1473 C1471 1.384 . S
H1474 C1480 0.930 . S
H1475 C1484 0.930 . S
H1476 C1489 0.929 . S
H1477 C1487 0.929 . S
H1478 C1482 0.929 . S
H1479 C1488 0.929 . S
C1480 H1474 0.930 . S
C1480 C1481 1.367 . S
C1480 C1488 1.378 . S
C1481 C1480 1.367 . S
C1481 C1489 1.433 . S
C1482 H1478 0.929 . S
C1482 C1484 1.378 . S
C1482 C1486 1.350 . S
C1483 C1486 1.463 . S
C1483 C1488 1.350 . S
C1483 N1491 1.427 . S
C1484 H1475 0.930 . S
C1484 C1482 1.378 . S
C1484 C1485 1.367 . S
C1485 C1484 1.367 . S
C1485 C1487 1.433 . S
C1486 C1482 1.350 . S
C1486 C1483 1.463 . S
C1486 N1490 1.427 . S
C1487 H1477 0.929 . S
C1487 C1485 1.433 . S
C1487 N1490 1.384 . S
C1488 H1479 0.929 . S
C1488 C1480 1.378 . S
C1488 C1483 1.350 . S
C1489 H1476 0.929 . S
C1489 C1481 1.433 . S
C1489 N1491 1.384 . S
N1490 C1486 1.427 . S
N1490 C1487 1.384 . S
N1491 C1483 1.427 . S
N1491 C1489 1.384 . S
H1492 C1498 0.930 . S
H1493 C1502 0.930 . S
H1494 C1507 0.929 . S
H1495 C1505 0.929 . S
H1496 C1500 0.929 . S
H1497 C1506 0.929 . S
C1498 H1492 0.930 . S
C1498 C1499 1.367 . S
C1498 C1506 1.378 . S
C1499 C1498 1.367 . S
C1499 C1507 1.433 . S
C1500 H1496 0.929 . S
C1500 C1502 1.378 . S
C1500 C1504 1.350 . S
C1501 C1504 1.463 . S
C1501 C1506 1.350 . S
C1501 N1509 1.427 . S
C1502 H1493 0.930 . S
C1502 C1500 1.378 . S
C1502 C1503 1.367 . S
C1503 C1502 1.367 . S
C1503 C1505 1.433 . S
C1504 C1500 1.350 . S
C1504 C1501 1.463 . S
C1504 N1508 1.427 . S
C1505 H1495 0.929 . S
C1505 C1503 1.433 . S
C1505 N1508 1.384 . S
C1506 H1497 0.929 . S
C1506 C1498 1.378 . S
C1506 C1501 1.350 . S
C1507 H1494 0.929 . S
C1507 C1499 1.433 . S
C1507 N1509 1.384 . S
N1508 C1504 1.427 . S
N1508 C1505 1.384 . S
N1509 C1501 1.427 . S
N1509 C1507 1.384 . S
H1510 C1516 0.930 . S
H1511 C1520 0.930 . S
H1512 C1525 0.929 . S
H1513 C1523 0.929 . S
H1514 C1518 0.929 . S
H1515 C1524 0.929 . S
C1516 H1510 0.930 . S
C1516 C1517 1.367 . S
C1516 C1524 1.378 . S
C1517 C1516 1.367 . S
C1517 C1525 1.433 . S
C1518 H1514 0.929 . S
C1518 C1520 1.378 . S
C1518 C1522 1.350 . S
C1519 C1522 1.463 . S
C1519 C1524 1.350 . S
C1519 N1527 1.427 . S
C1520 H1511 0.930 . S
C1520 C1518 1.378 . S
C1520 C1521 1.367 . S
C1521 C1520 1.367 . S
C1521 C1523 1.433 . S
C1522 C1518 1.350 . S
C1522 C1519 1.463 . S
C1522 N1526 1.427 . S
C1523 H1513 0.929 . S
C1523 C1521 1.433 . S
C1523 N1526 1.384 . S
C1524 H1515 0.929 . S
C1524 C1516 1.378 . S
C1524 C1519 1.350 . S
C1525 H1512 0.929 . S
C1525 C1517 1.433 . S
C1525 N1527 1.384 . S
N1526 C1522 1.427 . S
N1526 C1523 1.384 . S
N1527 C1519 1.427 . S
N1527 C1525 1.384 . S
H1528 C1534 0.930 . S
H1529 C1538 0.930 . S
H1530 C1543 0.929 . S
H1531 C1541 0.929 . S
H1532 C1536 0.929 . S
H1533 C1542 0.929 . S
C1534 H1528 0.930 . S
C1534 C1535 1.367 . S
C1534 C1542 1.378 . S
C1535 C1534 1.367 . S
C1535 C1543 1.433 . S
C1536 H1532 0.929 . S
C1536 C1538 1.378 . S
C1536 C1540 1.350 . S
C1537 C1540 1.463 . S
C1537 C1542 1.350 . S
C1537 N1545 1.427 . S
C1538 H1529 0.930 . S
C1538 C1536 1.378 . S
C1538 C1539 1.367 . S
C1539 C1538 1.367 . S
C1539 C1541 1.433 . S
C1540 C1536 1.350 . S
C1540 C1537 1.463 . S
C1540 N1544 1.427 . S
C1541 H1531 0.929 . S
C1541 C1539 1.433 . S
C1541 N1544 1.384 . S
C1542 H1533 0.929 . S
C1542 C1534 1.378 . S
C1542 C1537 1.350 . S
C1543 H1530 0.929 . S
C1543 C1535 1.433 . S
C1543 N1545 1.384 . S
N1544 C1540 1.427 . S
N1544 C1541 1.384 . S
N1545 C1537 1.427 . S
N1545 C1543 1.384 . S
H1546 C1552 0.930 . S
H1547 C1556 0.930 . S
H1548 C1561 0.929 . S
H1549 C1559 0.929 . S
H1550 C1554 0.929 . S
H1551 C1560 0.929 . S
C1552 H1546 0.930 . S
C1552 C1553 1.367 . S
C1552 C1560 1.378 . S
C1553 C1552 1.367 . S
C1553 C1561 1.433 . S
C1554 H1550 0.929 . S
C1554 C1556 1.378 . S
C1554 C1558 1.350 . S
C1555 C1558 1.463 . S
C1555 C1560 1.350 . S
C1555 N1563 1.427 . S
C1556 H1547 0.930 . S
C1556 C1554 1.378 . S
C1556 C1557 1.367 . S
C1557 C1556 1.367 . S
C1557 C1559 1.433 . S
C1558 C1554 1.350 . S
C1558 C1555 1.463 . S
C1558 N1562 1.427 . S
C1559 H1549 0.929 . S
C1559 C1557 1.433 . S
C1559 N1562 1.384 . S
C1560 H1551 0.929 . S
C1560 C1552 1.378 . S
C1560 C1555 1.350 . S
C1561 H1548 0.929 . S
C1561 C1553 1.433 . S
C1561 N1563 1.384 . S
N1562 C1558 1.427 . S
N1562 C1559 1.384 . S
N1563 C1555 1.427 . S
N1563 C1561 1.384 . S
H1564 C1570 0.930 . S
H1565 C1574 0.930 . S
H1566 C1579 0.929 . S
H1567 C1577 0.929 . S
H1568 C1572 0.929 . S
H1569 C1578 0.929 . S
C1570 H1564 0.930 . S
C1570 C1571 1.367 . S
C1570 C1578 1.378 . S
C1571 C1570 1.367 . S
C1571 C1579 1.433 . S
C1572 H1568 0.929 . S
C1572 C1574 1.378 . S
C1572 C1576 1.350 . S
C1573 C1576 1.463 . S
C1573 C1578 1.350 . S
C1573 N1581 1.427 . S
C1574 H1565 0.930 . S
C1574 C1572 1.378 . S
C1574 C1575 1.367 . S
C1575 C1574 1.367 . S
C1575 C1577 1.433 . S
C1576 C1572 1.350 . S
C1576 C1573 1.463 . S
C1576 N1580 1.427 . S
C1577 H1567 0.929 . S
C1577 C1575 1.433 . S
C1577 N1580 1.384 . S
C1578 H1569 0.929 . S
C1578 C1570 1.378 . S
C1578 C1573 1.350 . S
C1579 H1566 0.929 . S
C1579 C1571 1.433 . S
C1579 N1581 1.384 . S
N1580 C1576 1.427 . S
N1580 C1577 1.384 . S
N1581 C1573 1.427 . S
N1581 C1579 1.384 . S
H1582 C1588 0.930 . S
H1583 C1592 0.930 . S
H1584 C1597 0.929 . S
H1585 C1595 0.929 . S
H1586 C1590 0.929 . S
H1587 C1596 0.929 . S
C1588 H1582 0.930 . S
C1588 C1589 1.367 . S
C1588 C1596 1.378 . S
C1589 C1588 1.367 . S
C1589 C1597 1.433 . S
C1590 H1586 0.929 . S
C1590 C1592 1.378 . S
C1590 C1594 1.350 . S
C1591 C1594 1.463 . S
C1591 C1596 1.350 . S
C1591 N1599 1.427 . S
C1592 H1583 0.930 . S
C1592 C1590 1.378 . S
C1592 C1593 1.367 . S
C1593 C1592 1.367 . S
C1593 C1595 1.433 . S
C1594 C1590 1.350 . S
C1594 C1591 1.463 . S
C1594 N1598 1.427 . S
C1595 H1585 0.929 . S
C1595 C1593 1.433 . S
C1595 N1598 1.384 . S
C1596 H1587 0.929 . S
C1596 C1588 1.378 . S
C1596 C1591 1.350 . S
C1597 H1584 0.929 . S
C1597 C1589 1.433 . S
C1597 N1599 1.384 . S
N1598 C1594 1.427 . S
N1598 C1595 1.384 . S
N1599 C1591 1.427 . S
N1599 C1597 1.384 . S
C455 C135 1.103 . S
C459 C3 1.200 . S
C473 C17 1.184 1_455 S
C477 C373 1.109 . S
C491 C163 1.100 . S
C495 C31 1.199 . S
C509 C345 1.125 . S
C513 C45 1.200 . S
C527 C59 1.199 . S
C531 C219 1.126 . S
C545 C401 1.105 . S
C549 C73 1.195 . S
C563 C87 1.198 . S
C567 C191 1.124 . S
C581 C429 1.124 . S
C585 C101 1.190 1_455 S
C599 C23 1.122 . S
C603 C115 1.197 . S
C617 C129 1.177 1_655 S
C621 C261 1.102 . S
C635 C51 1.101 . S
C639 C143 1.199 . S
C653 C157 1.196 . S
C657 C233 1.119 . S
C671 C171 1.196 . S
C675 C107 1.103 . S
C689 C289 1.108 . S
C693 C185 1.200 . S
C707 C199 1.195 . S
C711 C79 1.106 . S
C725 C317 1.109 . S
C729 C213 1.176 1_655 S
C743 C359 1.102 . S
C747 C227 1.196 . S
C761 C149 1.108 . S
C765 C241 1.195 . S
C779 C255 1.200 . S
C783 C387 1.109 . S
C797 C121 1.120 . S
C801 C269 1.185 1_655 S
C815 C443 1.116 . S
C819 C283 1.196 . S
C833 C297 1.173 1_655 S
C837 C177 1.105 . S
C851 C415 1.115 . S
C855 C311 1.196 . S
C869 C205 1.113 . S
C873 C325 1.201 . S
C887 C247 1.105 . S
C891 C339 1.195 . S
C905 C353 1.201 . S
C909 C37 1.111 . S
C923 C367 1.200 . S
C927 C275 1.105 . S
C941 C381 1.170 1_455 S
C945 C9 1.099 . S
C959 C331 1.099 . S
C963 C395 1.196 . S
C977 C409 1.171 1_455 S
C981 C65 1.098 . S
C995 C423 1.196 . S
C999 C303 1.117 . S
C1013 C437 1.200 . S
C1017 C93 1.108 . S
C1031 C344 1.486 . S
C1035 C8 1.486 . S
C1049 C22 1.483 . S
C1053 C134 1.483 . S
C1067 C36 1.490 . S
C1071 C372 1.490 . S
C1085 C50 1.482 . S
C1089 C162 1.482 . S
C1103 C64 1.495 . S
C1107 C400 1.495 . S
C1121 C78 1.487 . S
C1125 C190 1.487 . S
C1139 C428 1.495 . S
C1143 C92 1.495 . S
C1157 C106 1.494 . S
C1161 C218 1.494 . S
C1175 C120 1.491 . S
C1179 C232 1.491 . S
C1193 C148 1.493 . S
C1197 C260 1.493 . S
C1211 C288 1.488 . S
C1215 C176 1.488 . S
C1229 C316 1.483 . S
C1233 C204 1.483 . S
C1247 C246 1.486 . S
C1251 C358 1.486 . S
C1265 C386 1.490 . S
C1269 C274 1.490 . S
C1283 C302 1.496 . S
C1287 C414 1.496 . S
C1301 C442 1.483 . S
C1305 C330 1.483 . S
C1319 C301 1.718 . S
C1323 C7 1.727 . S
C1337 C315 1.728 . S
C1341 C21 1.719 . S
C1355 C35 1.720 . S
C1359 C329 1.728 . S
C1373 C287 1.723 . S
C1377 C49 1.729 . S
C1391 C273 1.724 . S
C1395 C63 1.717 . S
C1409 C231 1.723 . S
C1413 C77 1.729 . S
C1427 C91 1.724 . S
C1431 C245 1.717 . S
C1445 C259 1.722 . S
C1449 C105 1.729 . S
C1463 C413 1.718 . S
C1467 C119 1.726 . S
C1481 C427 1.728 . S
C1485 C133 1.724 . S
C1499 C441 1.717 . S
C1503 C147 1.725 . S
C1517 C161 1.728 . S
C1521 C399 1.719 . S
C1535 C385 1.724 . S
C1539 C175 1.717 . S
C1553 C343 1.718 . S
C1557 C189 1.727 . S
C1571 C357 1.728 . S
C1575 C203 1.720 . S
C1589 C371 1.717 . S
C1593 C217 1.724 . S
