# Generated by pormake.
# Topology lcy-e, (6)-cn, num edge types: 1
# Building blocks:
#     Node 0, Type 0, BuildingBlock: BETDIP_clean_sbu_0, # of connection points: 6
#     Node 1, Type 0, BuildingBlock: BETDIP_clean_sbu_0, # of connection points: 6
#     Node 2, Type 0, BuildingBlock: BETDIP_clean_sbu_0, # of connection points: 6
#     Node 3, Type 0, BuildingBlock: BETDIP_clean_sbu_0, # of connection points: 6
#     Node 4, Type 0, BuildingBlock: BETDIP_clean_sbu_0, # of connection points: 6
#     Node 5, Type 0, BuildingBlock: BETDIP_clean_sbu_0, # of connection points: 6
#     Node 6, Type 0, BuildingBlock: BETDIP_clean_sbu_0, # of connection points: 6
#     Node 7, Type 0, BuildingBlock: BETDIP_clean_sbu_0, # of connection points: 6
#     Node 8, Type 0, BuildingBlock: BETDIP_clean_sbu_0, # of connection points: 6
#     Node 9, Type 0, BuildingBlock: BETDIP_clean_sbu_0, # of connection points: 6
#     Node 10, Type 0, BuildingBlock: BETDIP_clean_sbu_0, # of connection points: 6
#     Node 11, Type 0, BuildingBlock: BETDIP_clean_sbu_0, # of connection points: 6
#     Edge 12, Type (0, 0), BuildingBlock: XIVTED_clean_linker_0, # of connection points: 2
#     Edge 13, Type (0, 0), BuildingBlock: XIVTED_clean_linker_0, # of connection points: 2
#     Edge 14, Type (0, 0), BuildingBlock: XIVTED_clean_linker_0, # of connection points: 2
#     Edge 15, Type (0, 0), BuildingBlock: XIVTED_clean_linker_0, # of connection points: 2
#     Edge 16, Type (0, 0), BuildingBlock: XIVTED_clean_linker_0, # of connection points: 2
#     Edge 17, Type (0, 0), BuildingBlock: XIVTED_clean_linker_0, # of connection points: 2
#     Edge 18, Type (0, 0), BuildingBlock: XIVTED_clean_linker_0, # of connection points: 2
#     Edge 19, Type (0, 0), BuildingBlock: XIVTED_clean_linker_0, # of connection points: 2
#     Edge 20, Type (0, 0), BuildingBlock: XIVTED_clean_linker_0, # of connection points: 2
#     Edge 21, Type (0, 0), BuildingBlock: XIVTED_clean_linker_0, # of connection points: 2
#     Edge 22, Type (0, 0), BuildingBlock: XIVTED_clean_linker_0, # of connection points: 2
#     Edge 23, Type (0, 0), BuildingBlock: XIVTED_clean_linker_0, # of connection points: 2
#     Edge 24, Type (0, 0), BuildingBlock: XIVTED_clean_linker_0, # of connection points: 2
#     Edge 25, Type (0, 0), BuildingBlock: XIVTED_clean_linker_0, # of connection points: 2
#     Edge 26, Type (0, 0), BuildingBlock: XIVTED_clean_linker_0, # of connection points: 2
#     Edge 27, Type (0, 0), BuildingBlock: XIVTED_clean_linker_0, # of connection points: 2
#     Edge 28, Type (0, 0), BuildingBlock: XIVTED_clean_linker_0, # of connection points: 2
#     Edge 29, Type (0, 0), BuildingBlock: XIVTED_clean_linker_0, # of connection points: 2
#     Edge 30, Type (0, 0), BuildingBlock: XIVTED_clean_linker_0, # of connection points: 2
#     Edge 31, Type (0, 0), BuildingBlock: XIVTED_clean_linker_0, # of connection points: 2
#     Edge 32, Type (0, 0), BuildingBlock: XIVTED_clean_linker_0, # of connection points: 2
#     Edge 33, Type (0, 0), BuildingBlock: XIVTED_clean_linker_0, # of connection points: 2
#     Edge 34, Type (0, 0), BuildingBlock: XIVTED_clean_linker_0, # of connection points: 2
#     Edge 35, Type (0, 0), BuildingBlock: XIVTED_clean_linker_0, # of connection points: 2
#     Edge 36, Type (0, 0), BuildingBlock: XIVTED_clean_linker_0, # of connection points: 2
#     Edge 37, Type (0, 0), BuildingBlock: XIVTED_clean_linker_0, # of connection points: 2
#     Edge 38, Type (0, 0), BuildingBlock: XIVTED_clean_linker_0, # of connection points: 2
#     Edge 39, Type (0, 0), BuildingBlock: XIVTED_clean_linker_0, # of connection points: 2
#     Edge 40, Type (0, 0), BuildingBlock: XIVTED_clean_linker_0, # of connection points: 2
#     Edge 41, Type (0, 0), BuildingBlock: XIVTED_clean_linker_0, # of connection points: 2
#     Edge 42, Type (0, 0), BuildingBlock: XIVTED_clean_linker_0, # of connection points: 2
#     Edge 43, Type (0, 0), BuildingBlock: XIVTED_clean_linker_0, # of connection points: 2
#     Edge 44, Type (0, 0), BuildingBlock: XIVTED_clean_linker_0, # of connection points: 2
#     Edge 45, Type (0, 0), BuildingBlock: XIVTED_clean_linker_0, # of connection points: 2
#     Edge 46, Type (0, 0), BuildingBlock: XIVTED_clean_linker_0, # of connection points: 2
#     Edge 47, Type (0, 0), BuildingBlock: XIVTED_clean_linker_0, # of connection points: 2
# Relax obj value: 0.205
# Max RMSD: 0.300
# Mean RMSD: 0.278
data_MOF--net-lcy-e--node1-BETDIP_clean_sbu_0--edge1-XIVTED_clean_linker_0
_symmetry_space_group_name_H-M    P1
_symmetry_Int_Tables_number       1
_symmetry_cell_setting            triclinic
loop_
_symmetry_equiv_pos_as_xyz
'x, y, z'
_cell_length_a     41.781234
_cell_length_b     45.215892
_cell_length_c     45.252426
_cell_angle_alpha  91.28415
_cell_angle_beta   90.943861
_cell_angle_gamma 88.255591
loop_
_atom_site_label
_atom_site_type_symbol
_atom_site_fract_x
_atom_site_fract_y
_atom_site_fract_z
_atom_type_partial_charge
Tb0 Tb 0.15399 0.25187 0.56594 0.0
Tb1 Tb 0.13082 0.29458 0.51949 0.0
C2 C 0.15581 0.21788 0.60942 0.0
C3 C 0.1439 0.18846 0.61646 0.0
C4 C 0.11606 0.17752 0.60288 0.0
C5 C 0.10423 0.15024 0.61092 0.0
C6 C 0.11987 0.13338 0.63294 0.0
C7 C 0.14788 0.14446 0.64636 0.0
C8 C 0.15976 0.17164 0.63814 0.0
C9 C 0.18915 0.25054 0.51863 0.0
C10 C 0.0944 0.23582 0.52261 0.0
C11 C 0.12347 0.32746 0.47556 0.0
C12 C 0.14001 0.34517 0.45392 0.0
C13 C 0.17141 0.33822 0.44492 0.0
C14 C 0.18473 0.35344 0.4216 0.0
C15 C 0.16681 0.37576 0.40688 0.0
C16 C 0.13565 0.38294 0.41665 0.0
C17 C 0.12251 0.36787 0.4399 0.0
C18 C 0.10128 0.29878 0.57145 0.0
C19 C 0.18756 0.3126 0.56158 0.0
O20 O 0.13388 0.23872 0.60538 0.0
O21 O 0.17863 0.21866 0.58999 0.0
O22 O 0.15878 0.25364 0.51862 0.0
O23 O 0.19988 0.24574 0.54521 0.0
O24 O 0.11355 0.22835 0.54507 0.0
O25 O 0.09753 0.26058 0.50837 0.0
O26 O 0.12802 0.29872 0.47362 0.0
O27 O 0.12238 0.33734 0.50295 0.0
O28 O 0.13005 0.29324 0.56629 0.0
O29 O 0.08741 0.30499 0.54639 0.0
O30 O 0.17677 0.31257 0.53391 0.0
O31 O 0.17784 0.2926 0.58036 0.0
H32 H 0.10315 0.19025 0.58636 0.0
H33 H 0.08285 0.14238 0.59984 0.0
H34 H 0.16029 0.13249 0.66378 0.0
H35 H 0.18109 0.17979 0.64913 0.0
H36 H 0.18531 0.32065 0.45542 0.0
H37 H 0.20891 0.34754 0.41496 0.0
H38 H 0.12081 0.39951 0.40563 0.0
H39 H 0.09811 0.37331 0.4463 0.0
Tb40 Tb 0.99222 0.89983 0.74257 0.0
Tb41 Tb 0.04411 0.91764 0.7864 0.0
C42 C 0.94309 0.89922 0.70964 0.0
C43 C 0.93343 0.90732 0.67935 0.0
C44 C 0.90943 0.89133 0.66484 0.0
C45 C 0.89933 0.89856 0.63625 0.0
C46 C 0.91305 0.92203 0.62152 0.0
C47 C 0.93723 0.93805 0.63613 0.0
C48 C 0.94742 0.93069 0.66478 0.0
C49 C 0.04391 0.86609 0.7402 0.0
C50 C 0.03922 0.95253 0.72781 0.0
C51 C 0.09202 0.92248 0.8205 0.0
C52 C 0.11563 0.90691 0.83948 0.0
C53 C 0.11314 0.87709 0.84694 0.0
C54 C 0.13643 0.86365 0.86548 0.0
C55 C 0.16232 0.87995 0.87682 0.0
C56 C 0.16473 0.90961 0.86862 0.0
C57 C 0.14165 0.92288 0.85026 0.0
C58 C 0.98751 0.94653 0.79052 0.0
C59 C 1.00058 0.86523 0.80131 0.0
O60 O 0.94961 0.92097 0.72819 0.0
O61 O 0.96344 0.87679 0.71198 0.0
O62 O 0.04346 0.89385 0.74475 0.0
O63 O 0.01538 0.85725 0.73391 0.0
O64 O 0.0131 0.93782 0.72057 0.0
O65 O 0.05631 0.94699 0.75187 0.0
O66 O 0.09401 0.91755 0.79198 0.0
O67 O 0.06238 0.92477 0.82941 0.0
O68 O 0.99331 0.9199 0.78472 0.0
O69 O 0.01468 0.95859 0.79664 0.0
O70 O 0.03028 0.87456 0.80225 0.0
O71 O 0.97916 0.87639 0.78225 0.0
H72 H 0.89828 0.87328 0.67574 0.0
H73 H 0.88031 0.88608 0.6259 0.0
H74 H 0.94847 0.95608 0.62533 0.0
H75 H 0.96612 0.94327 0.67554 0.0
H76 H 0.09322 0.86437 0.83864 0.0
H77 H 0.13385 0.84078 0.8714 0.0
H78 H 0.18465 0.92267 0.8763 0.0
H79 H 0.14413 0.94583 0.84449 0.0
Tb80 Tb 0.37826 0.79019 0.05432 0.0
Tb81 Tb 0.38747 0.75337 0.99894 0.0
C82 C 0.37599 0.81304 0.10545 0.0
C83 C 0.38619 0.8418 0.11746 0.0
C84 C 0.38369 0.84838 0.14772 0.0
C85 C 0.39375 0.8756 0.15923 0.0
C86 C 0.40662 0.89665 0.14064 0.0
C87 C 0.40923 0.88981 0.1103 0.0
C88 C 0.399 0.86267 0.09881 0.0
C89 C 0.34163 0.80602 1.00907 0.0
C90 C 0.42452 0.81425 1.00831 0.0
C91 C 0.39212 0.73633 0.94587 0.0
C92 C 0.38133 0.71556 0.92264 0.0
C93 C 0.34958 0.70633 0.92029 0.0
C94 C 0.33984 0.68892 0.89592 0.0
C95 C 0.36169 0.68059 0.8736 0.0
C96 C 0.39353 0.68962 0.87655 0.0
C97 C 0.40319 0.70681 0.90082 0.0
C98 C 0.42433 0.73863 0.04456 0.0
C99 C 0.34519 0.72704 0.04541 0.0
O100 O 0.39916 0.7951 0.0965 0.0
O101 O 0.35196 0.81399 0.08656 0.0
O102 O 0.34872 0.77983 0.01631 0.0
O103 O 0.35404 0.82422 0.02822 0.0
O104 O 0.41649 0.81558 0.03641 0.0
O105 O 0.41346 0.79357 0.99004 0.0
O106 O 0.37165 0.7569 0.95502 0.0
O107 O 0.41019 0.7257 0.96724 0.0
O108 O 0.41633 0.76421 0.03646 0.0
O109 O 0.41254 0.71957 0.0258 0.0
O110 O 0.34942 0.72825 0.0166 0.0
O111 O 0.35727 0.74711 0.0641 0.0
H112 H 0.37403 0.83245 0.16245 0.0
H113 H 0.39175 0.88004 0.18276 0.0
H114 H 0.41866 0.90565 0.09534 0.0
H115 H 0.40098 0.85804 0.07533 0.0
H116 H 0.3323 0.71298 0.93693 0.0
H117 H 0.31523 0.68211 0.89449 0.0
H118 H 0.41089 0.68422 0.85961 0.0
H119 H 0.42769 0.71403 0.9021 0.0
Tb120 Tb 0.52345 0.14315 0.24552 0.0
Tb121 Tb 0.46925 0.13184 0.28758 0.0
C122 C 0.57396 0.13849 0.21585 0.0
C123 C 0.58428 0.1304 0.1855 0.0
C124 C 0.60871 0.14632 0.17292 0.0
C125 C 0.6198 0.13888 0.14463 0.0
C126 C 0.60676 0.11523 0.12815 0.0
C127 C 0.58214 0.0993 0.1408 0.0
C128 C 0.57093 0.10687 0.16915 0.0
C129 C 0.47167 0.17549 0.23544 0.0
C130 C 0.47675 0.08854 0.2334 0.0
C131 C 0.41966 0.13305 0.31872 0.0
C132 C 0.39555 0.15237 0.3338 0.0
C133 C 0.36437 0.14214 0.33612 0.0
C134 C 0.34125 0.15832 0.35222 0.0
C135 C 0.34871 0.18529 0.36645 0.0
C136 C 0.37986 0.19599 0.3633 0.0
C137 C 0.40308 0.17968 0.34714 0.0
C138 C 0.52494 0.10279 0.29739 0.0
C139 C 0.51317 0.18471 0.30108 0.0
O140 O 0.56335 0.1173 0.23204 0.0
O141 O 0.55706 0.16319 0.21898 0.0
O142 O 0.47216 0.14902 0.24393 0.0
O143 O 0.50018 0.18273 0.22829 0.0
O144 O 0.50299 0.10241 0.22613 0.0
O145 O 0.45867 0.0975 0.25566 0.0
O146 O 0.41905 0.13262 0.28979 0.0
O147 O 0.44888 0.13193 0.32971 0.0
O148 O 0.52014 0.12865 0.28907 0.0
O149 O 0.49729 0.09215 0.30314 0.0
O150 O 0.48302 0.17683 0.29942 0.0
O151 O 0.53519 0.17055 0.28472 0.0
H152 H 0.61948 0.16444 0.18515 0.0
H153 H 0.6391 0.15136 0.13592 0.0
H154 H 0.57131 0.08116 0.12868 0.0
H155 H 0.55196 0.09429 0.1783 0.0
H156 H 0.35807 0.12107 0.32608 0.0
H157 H 0.31786 0.14902 0.35441 0.0
H158 H 0.38643 0.21684 0.37357 0.0
H159 H 0.42697 0.18812 0.34551 0.0
Tb160 Tb 0.62135 0.253 0.55836 0.0
Tb161 Tb 0.63695 0.30171 0.5153 0.0
C162 C 0.61393 0.20652 0.58646 0.0
C163 C 0.62174 0.19723 0.61687 0.0
C164 C 0.64062 0.21478 0.63582 0.0
C165 C 0.65008 0.20469 0.6638 0.0
C166 C 0.64078 0.17686 0.67343 0.0
C167 C 0.62139 0.15962 0.65444 0.0
C168 C 0.61205 0.1697 0.62645 0.0
C169 C 0.60068 0.30707 0.57361 0.0
C170 C 0.67978 0.29308 0.57166 0.0
C171 C 0.64018 0.34732 0.4848 0.0
C172 C 0.6226 0.37059 0.46812 0.0
C173 C 0.59367 0.38387 0.47787 0.0
C174 C 0.58005 0.40843 0.46322 0.0
C175 C 0.59518 0.42023 0.43864 0.0
C176 C 0.62387 0.40635 0.42886 0.0
C177 C 0.63726 0.38187 0.44333 0.0
C178 C 0.66994 0.25041 0.50989 0.0
C179 C 0.57973 0.26107 0.49889 0.0
O180 O 0.63884 0.21103 0.57004 0.0
O181 O 0.59134 0.22715 0.58345 0.0
O182 O 0.60133 0.2959 0.54793 0.0
O183 O 0.61033 0.28705 0.59197 0.0
O184 O 0.66885 0.26605 0.57386 0.0
O185 O 0.6667 0.31242 0.55334 0.0
O186 O 0.63755 0.34786 0.51367 0.0
O187 O 0.64161 0.32037 0.47341 0.0
O188 O 0.64141 0.25496 0.51631 0.0
O189 O 0.6816 0.27579 0.50385 0.0
O190 O 0.59223 0.28729 0.49555 0.0
O191 O 0.58896 0.24323 0.52067 0.0
H192 H 0.64844 0.23611 0.62879 0.0
H193 H 0.66466 0.21872 0.6779 0.0
H194 H 0.61412 0.13793 0.66086 0.0
H195 H 0.59774 0.15571 0.61205 0.0
H196 H 0.58197 0.37568 0.4971 0.0
H197 H 0.5578 0.41824 0.47126 0.0
H198 H 0.63676 0.41498 0.41054 0.0
H199 H 0.65983 0.3723 0.43569 0.0
Tb200 Tb 0.9783 0.40045 0.78245 0.0
Tb201 Tb 0.02827 0.38704 0.82972 0.0
C202 C 0.94522 0.40809 0.73612 0.0
C203 C 0.91475 0.39712 0.72405 0.0
C204 C 0.90584 0.36783 0.72839 0.0
C205 C 0.87885 0.35664 0.71388 0.0
C206 C 0.86009 0.37461 0.69494 0.0
C207 C 0.86823 0.40441 0.69196 0.0
C208 C 0.8954 0.41547 0.70625 0.0
C209 C 0.96855 0.42659 0.83449 0.0
C210 C 0.9658 0.34752 0.82324 0.0
C211 C 0.05478 0.38066 0.87963 0.0
C212 C 0.07183 0.39645 0.90392 0.0
C213 C 0.05738 0.42019 0.91999 0.0
C214 C 0.07194 0.43123 0.94598 0.0
C215 C 0.10104 0.4186 0.95647 0.0
C216 C 0.11616 0.396 0.93941 0.0
C217 C 0.10168 0.38503 0.91355 0.0
C218 C 0.04008 0.3621 0.77762 0.0
C219 C 0.04317 0.4364 0.78749 0.0
O220 O 0.96834 0.38819 0.73865 0.0
O221 O 0.94368 0.42606 0.75914 0.0
O222 O 0.99496 0.42271 0.82181 0.0
O223 O 0.94616 0.41625 0.81739 0.0
O224 O 0.95734 0.36047 0.79829 0.0
O225 O 0.99129 0.35543 0.83889 0.0
O226 O 0.02422 0.387 0.87572 0.0
O227 O 0.06977 0.37607 0.85465 0.0
O228 O 0.01308 0.36618 0.78929 0.0
O229 O 0.06213 0.36816 0.79711 0.0
O230 O 0.04647 0.4281 0.81516 0.0
O231 O 0.01971 0.42657 0.77004 0.0
H232 H 0.92034 0.35325 0.7422 0.0
H233 H 0.87352 0.33359 0.71659 0.0
H234 H 0.85391 0.4191 0.67814 0.0
H235 H 0.90174 0.43818 0.7028 0.0
H236 H 0.0343 0.42947 0.91316 0.0
H237 H 0.05967 0.44864 0.95859 0.0
H238 H 0.1389 0.38618 0.9465 0.0
H239 H 0.11329 0.36671 0.90166 0.0
Tb240 Tb 0.88848 0.79422 0.05148 0.0
Tb241 Tb 0.87859 0.74223 1.01035 0.0
C242 C 0.89383 0.8434 0.07785 0.0
C243 C 0.88476 0.85396 0.10759 0.0
C244 C 0.86981 0.83503 0.12691 0.0
C245 C 0.86026 0.84531 0.15486 0.0
C246 C 0.86566 0.87467 0.16408 0.0
C247 C 0.8809 0.89348 0.14467 0.0
C248 C 0.89029 0.8832 0.11663 0.0
C249 C 0.91999 0.74495 0.06581 0.0
C250 C 0.83443 0.75221 0.06786 0.0
C251 C 0.87373 0.6899 0.99114 0.0
C252 C 0.89103 0.66356 0.97891 0.0
C253 C 0.88705 0.6364 0.99257 0.0
C254 C 0.8994 0.61015 0.9799 0.0
C255 C 0.91601 0.61043 0.95317 0.0
C256 C 0.92126 0.6378 0.9401 0.0
C257 C 0.90875 0.66419 0.95281 0.0
C258 C 0.84683 0.79113 0.99552 0.0
C259 C 0.9268 0.78655 0.99127 0.0
O260 O 0.86987 0.83704 0.06009 0.0
O261 O 0.91686 0.82315 0.07675 0.0
O262 O 0.91599 0.75474 0.04016 0.0
O263 O 0.90724 0.76359 0.08466 0.0
O264 O 0.84717 0.77807 0.0737 0.0
O265 O 0.84382 0.73516 0.04523 0.0
O266 O 0.87968 0.69688 0.01888 0.0
O267 O 0.86948 0.71315 0.97457 0.0
O268 O 0.85187 0.78173 0.02115 0.0
O269 O 0.85733 0.77137 0.97655 0.0
O270 O 0.92224 0.75782 0.99207 0.0
O271 O 0.91272 0.80518 1.01044 0.0
H272 H 0.86547 0.81232 0.12034 0.0
H273 H 0.84897 0.83017 0.16938 0.0
H274 H 0.88507 0.91631 0.15095 0.0
H275 H 0.90166 0.89814 0.10193 0.0
H276 H 0.87343 0.63536 1.01268 0.0
H277 H 0.89539 0.58951 0.99076 0.0
H278 H 0.93385 0.6387 0.91942 0.0
H279 H 0.91212 0.68486 0.94178 0.0
Tb280 Tb 0.4915 0.66415 0.31349 0.0
Tb281 Tb 0.54369 0.64058 0.2752 0.0
C282 C 0.44566 0.67324 0.34826 0.0
C283 C 0.43553 0.66015 0.37583 0.0
C284 C 0.40357 0.66356 0.38434 0.0
C285 C 0.39363 0.65168 0.41075 0.0
C286 C 0.41552 0.63603 0.42898 0.0
C287 C 0.44746 0.63217 0.42009 0.0
C288 C 0.45743 0.64432 0.39378 0.0
C289 C 0.54088 0.69848 0.31124 0.0
C290 C 0.53671 0.60923 0.33436 0.0
C291 C 0.5923 0.63272 0.24362 0.0
C292 C 0.61203 0.64842 0.22293 0.0
C293 C 0.61365 0.67939 0.22361 0.0
C294 C 0.6347 0.69338 0.20502 0.0
C295 C 0.65422 0.67655 0.18546 0.0
C296 C 0.65186 0.64558 0.18459 0.0
C297 C 0.63096 0.6317 0.20314 0.0
C298 C 0.49038 0.60973 0.27353 0.0
C299 C 0.49499 0.68852 0.24985 0.0
O300 O 0.44404 0.65614 0.32468 0.0
O301 O 0.47233 0.68762 0.34982 0.0
O302 O 0.54258 0.67049 0.31293 0.0
O303 O 0.51131 0.70765 0.31172 0.0
O304 O 0.50943 0.62465 0.33757 0.0
O305 O 0.55646 0.6146 0.31296 0.0
O306 O 0.59339 0.64195 0.27123 0.0
O307 O 0.56332 0.62646 0.23466 0.0
O308 O 0.493 0.63715 0.27515 0.0
O309 O 0.51883 0.59795 0.27037 0.0
O310 O 0.52528 0.67902 0.25068 0.0
O311 O 0.47503 0.68175 0.27102 0.0
H312 H 0.38634 0.67559 0.37065 0.0
H313 H 0.36878 0.65467 0.4169 0.0
H314 H 0.46487 0.62045 0.43384 0.0
H315 H 0.4823 0.64172 0.38769 0.0
H316 H 0.59909 0.69266 0.23878 0.0
H317 H 0.63576 0.71728 0.206 0.0
H318 H 0.66688 0.63191 0.17018 0.0
H319 H 0.63011 0.60776 0.20249 0.0
Tb320 Tb 0.28193 0.48086 0.16724 0.0
Tb321 Tb 0.22398 0.52679 0.17809 0.0
C322 C 0.33348 0.45186 0.17317 0.0
C323 C 0.34186 0.42033 0.17785 0.0
C324 C 0.36417 0.41273 0.20011 0.0
C325 C 0.37124 0.38304 0.2062 0.0
C326 C 0.35625 0.36028 0.19002 0.0
C327 C 0.33399 0.36793 0.16759 0.0
C328 C 0.32669 0.39767 0.16169 0.0
C329 C 0.22919 0.46519 0.13768 0.0
C330 C 0.23319 0.47279 0.22039 0.0
C331 C 0.17269 0.55709 0.17552 0.0
C332 C 0.14785 0.57128 0.15642 0.0
C333 C 0.15443 0.59493 0.138 0.0
C334 C 0.12929 0.61097 0.12419 0.0
C335 C 0.09721 0.60382 0.12882 0.0
C336 C 0.09096 0.57926 0.14607 0.0
C337 C 0.11595 0.56324 0.15971 0.0
C338 C 0.27752 0.53434 0.20972 0.0
C339 C 0.27275 0.5374 0.1273 0.0
O340 O 0.31871 0.46534 0.19529 0.0
O341 O 0.32112 0.45896 0.14723 0.0
O342 O 0.23332 0.4866 0.15519 0.0
O343 O 0.2562 0.45038 0.13698 0.0
O344 O 0.26114 0.46575 0.20819 0.0
O345 O 0.21346 0.49385 0.21034 0.0
O346 O 0.17385 0.52804 0.17593 0.0
O347 O 0.20111 0.56872 0.17755 0.0
O348 O 0.27457 0.5246 0.18382 0.0
O349 O 0.24933 0.54352 0.21834 0.0
O350 O 0.24234 0.53959 0.13537 0.0
O351 O 0.29361 0.51822 0.13955 0.0
H352 H 0.37598 0.42984 0.21298 0.0
H353 H 0.38883 0.37791 0.22332 0.0
H354 H 0.32188 0.35091 0.15489 0.0
H355 H 0.309 0.4029 0.14468 0.0
H356 H 0.17879 0.60174 0.13514 0.0
H357 H 0.1349 0.62985 0.11111 0.0
H358 H 0.06658 0.57286 0.1497 0.0
H359 H 0.1102 0.54522 0.1739 0.0
Tb360 Tb 0.7714 0.05622 0.90578 0.0
Tb361 Tb 0.71625 0.01767 0.8931 0.0
C362 C 0.82432 0.08064 0.91378 0.0
C363 C 0.83668 0.10914 0.90508 0.0
C364 C 0.86895 0.11526 0.91024 0.0
C365 C 0.88108 0.14209 0.90141 0.0
C366 C 0.86111 0.16322 0.88722 0.0
C367 C 0.82871 0.15688 0.88207 0.0
C368 C 0.8166 0.13007 0.89096 0.0
C369 C 0.72015 0.06809 0.938 0.0
C370 C 0.72178 0.07878 0.85863 0.0
C371 C 0.66076 0.99796 0.88769 0.0
C372 C 0.63877 0.97858 0.90246 0.0
C373 C 0.64262 0.9715 0.93239 0.0
C374 C 0.62053 0.95353 0.94581 0.0
C375 C 0.59445 0.94233 0.92941 0.0
C376 C 0.5909 0.94964 0.89945 0.0
C377 C 0.61286 0.96753 0.88616 0.0
C378 C 0.76754 1.00528 0.86117 0.0
C379 C 0.76797 0.99211 0.93428 0.0
O380 O 0.81838 0.0621 0.89201 0.0
O381 O 0.80131 0.08195 0.93301 0.0
O382 O 0.73135 0.04273 0.93104 0.0
O383 O 0.73815 0.08781 0.92713 0.0
O384 O 0.75138 0.08152 0.86897 0.0
O385 O 0.70374 0.05701 0.86709 0.0
O386 O 0.66726 0.02291 0.90142 0.0
O387 O 0.68601 0.98518 0.87567 0.0
O388 O 0.75669 0.03051 0.86872 0.0
O389 O 0.7479 0.98562 0.86969 0.0
O390 O 0.73671 0.99313 0.92959 0.0
O391 O 0.78645 1.01282 0.92401 0.0
H392 H 0.8848 0.09923 0.92092 0.0
H393 H 0.90624 0.14608 0.90531 0.0
H394 H 0.81263 0.17279 0.87149 0.0
H395 H 0.79157 0.12566 0.88681 0.0
H396 H 0.66257 0.97989 0.94531 0.0
H397 H 0.62405 0.94814 0.96885 0.0
H398 H 0.57083 0.94187 0.8863 0.0
H399 H 0.60944 0.97296 0.86309 0.0
Tb400 Tb 0.74461 0.98795 0.40399 0.0
Tb401 Tb 0.80023 0.02776 0.39504 0.0
C402 C 0.69296 0.96093 0.40797 0.0
C403 C 0.68174 0.93156 0.39772 0.0
C404 C 0.65066 0.92922 0.38591 0.0
C405 C 0.63977 0.90198 0.37514 0.0
C406 C 0.65969 0.87629 0.37596 0.0
C407 C 0.69079 0.87862 0.3881 0.0
C408 C 0.70177 0.90599 0.39871 0.0
C409 C 0.79756 0.97474 0.43431 0.0
C410 C 0.79401 0.96849 0.35556 0.0
C411 C 0.85504 0.04937 0.3933 0.0
C412 C 0.87619 0.06964 0.41012 0.0
C413 C 0.88435 0.06542 0.44006 0.0
C414 C 0.90635 0.08382 0.45458 0.0
C415 C 0.92054 0.10685 0.4395 0.0
C416 C 0.91194 0.11113 0.40966 0.0
C417 C 0.89011 0.09273 0.39519 0.0
C418 C 0.7472 0.04201 0.36522 0.0
C419 C 0.74999 0.05037 0.43895 0.0
O420 O 0.69843 0.97971 0.38726 0.0
O421 O 0.7151 0.96134 0.42875 0.0
O422 O 0.78592 1.00022 0.42969 0.0
O423 O 0.77875 0.95543 0.42244 0.0
O424 O 0.76471 0.96497 0.36535 0.0
O425 O 0.81222 0.98996 0.36585 0.0
O426 O 0.84935 0.0238 0.40491 0.0
O427 O 0.82961 0.06124 0.38044 0.0
O428 O 0.75823 0.01633 0.37007 0.0
O429 O 0.76757 0.06101 0.37526 0.0
O430 O 0.78103 0.04893 0.43411 0.0
O431 O 0.73052 0.03038 0.42697 0.0
H432 H 0.63479 0.94859 0.38485 0.0
H433 H 0.61555 0.90102 0.36635 0.0
H434 H 0.70689 0.85941 0.38884 0.0
H435 H 0.72601 0.90719 0.40743 0.0
H436 H 0.87405 0.04775 0.45219 0.0
H437 H 0.91216 0.08007 0.47763 0.0
H438 H 0.9227 0.12828 0.39716 0.0
H439 H 0.88451 0.09624 0.37204 0.0
Tb440 Tb 0.29467 0.5179 0.65746 0.0
Tb441 Tb 0.25048 0.57027 0.64659 0.0
C442 C 0.32188 0.46792 0.66302 0.0
C443 C 0.3529 0.45521 0.6535 0.0
C444 C 0.37013 0.46856 0.63129 0.0
C445 C 0.39971 0.45647 0.62246 0.0
C446 C 0.41266 0.43089 0.6358 0.0
C447 C 0.39533 0.41771 0.65819 0.0
C448 C 0.36569 0.4298 0.66694 0.0
C449 C 0.30848 0.56631 0.68799 0.0
C450 C 0.31586 0.56167 0.61036 0.0
C451 C 0.22884 0.62245 0.6406 0.0
C452 C 0.21287 0.64718 0.65669 0.0
C453 C 0.20941 0.64726 0.68748 0.0
C454 C 0.19613 0.67222 0.70222 0.0
C455 C 0.18628 0.6975 0.68637 0.0
C456 C 0.18962 0.697 0.65548 0.0
C457 C 0.20279 0.67212 0.64085 0.0
C458 C 0.23714 0.52133 0.61621 0.0
C459 C 0.22814 0.52665 0.69139 0.0
O460 O 0.3013 0.47424 0.64182 0.0
O461 O 0.32326 0.48906 0.68315 0.0
O462 O 0.28084 0.55699 0.68255 0.0
O463 O 0.3295 0.54765 0.67702 0.0
O464 O 0.32054 0.53468 0.62043 0.0
O465 O 0.29135 0.57885 0.6188 0.0
O466 O 0.25815 0.61571 0.64923 0.0
O467 O 0.21213 0.59899 0.63445 0.0
O468 O 0.26421 0.53128 0.62223 0.0
O469 O 0.21565 0.54048 0.62549 0.0
O470 O 0.22796 0.5551 0.68555 0.0
O471 O 0.2501 0.50781 0.68032 0.0
H472 H 0.36075 0.48833 0.62077 0.0
H473 H 0.4126 0.46733 0.60541 0.0
H474 H 0.40444 0.39778 0.66862 0.0
H475 H 0.35271 0.41925 0.68415 0.0
H476 H 0.2173 0.62822 0.70008 0.0
H477 H 0.19401 0.6719 0.72602 0.0
H478 H 0.1817 0.71576 0.64249 0.0
H479 H 0.20541 0.67246 0.61707 0.0
H480 H 0.2273 0.34821 0.53208 0.0
H481 H 0.18886 0.48752 0.63528 0.0
H482 H 0.18037 0.34007 0.61554 0.0
H483 H 0.27266 0.48383 0.5809 0.0
H484 H 0.18142 0.43461 0.62478 0.0
H485 H 0.24192 0.39869 0.54667 0.0
C486 C 0.22077 0.35681 0.55377 0.0
C487 C 0.20287 0.33984 0.57274 0.0
C488 C 0.20145 0.44539 0.61518 0.0
C489 C 0.21831 0.3979 0.58901 0.0
C490 C 0.20548 0.47559 0.62089 0.0
C491 C 0.23128 0.48996 0.60874 0.0
C492 C 0.22295 0.42965 0.59665 0.0
C493 C 0.2524 0.47347 0.59057 0.0
C494 C 0.22895 0.38564 0.562 0.0
C495 C 0.19459 0.35222 0.60042 0.0
N496 N 0.24762 0.44422 0.58482 0.0
N497 N 0.20186 0.38069 0.6075 0.0
H498 H 0.80982 0.04375 0.8379 0.0
H499 H 0.93304 0.91578 0.78814 0.0
H500 H 0.79801 0.95149 0.85569 0.0
H501 H 0.96727 1.00261 0.81072 0.0
H502 H 0.87998 0.93133 0.80399 0.0
H503 H 0.86429 0.03174 0.82024 0.0
C504 C 0.81877 0.02104 0.83829 0.0
C505 C 0.79962 0.99863 0.84876 0.0
C506 C 0.89898 0.94709 0.80548 0.0
C507 C 0.86114 0.98471 0.82771 0.0
C508 C 0.92945 0.93828 0.79632 0.0
C509 C 0.95491 0.95783 0.79831 0.0
C510 C 0.89339 0.97592 0.8165 0.0
C511 C 0.94837 0.98679 0.80893 0.0
C512 C 0.84974 0.01424 0.82814 0.0
C513 C 0.81194 0.96946 0.84789 0.0
N514 N 0.91813 0.99505 0.81765 0.0
N515 N 0.84179 0.96336 0.83748 0.0
H516 H 0.30372 0.68958 0.01711 0.0
H517 H 0.33205 0.56083 0.13099 0.0
H518 H 0.35475 0.70285 0.0998 0.0
H519 H 0.24061 0.57118 0.08607 0.0
H520 H 0.34821 0.60774 0.11067 0.0
H521 H 0.28611 0.64172 0.03459 0.0
C522 C 0.31097 0.68257 0.03902 0.0
C523 C 0.33072 0.70025 0.05706 0.0
C524 C 0.32479 0.59948 0.10499 0.0
C525 C 0.31166 0.64526 0.07655 0.0
C526 C 0.31569 0.57252 0.11619 0.0
C527 C 0.28496 0.562 0.11008 0.0
C528 C 0.3033 0.61574 0.08705 0.0
C529 C 0.26454 0.57847 0.09124 0.0
C530 C 0.30099 0.65529 0.04888 0.0
C531 C 0.33946 0.69003 0.08521 0.0
N532 N 0.2741 0.60454 0.08029 0.0
N533 N 0.33029 0.66301 0.09391 0.0
H534 H 0.5432 0.04674 0.31672 0.0
H535 H 0.71726 0.09617 0.36648 0.0
H536 H 0.58046 0.13209 0.29782 0.0
H537 H 0.70291 1.00579 0.33823 0.0
H538 H 0.66287 0.10916 0.34957 0.0
H539 H 0.59775 0.03009 0.33249 0.0
C540 C 0.56272 0.06191 0.31587 0.0
C541 C 0.55717 0.09092 0.30614 0.0
C542 C 0.67155 0.08642 0.3472 0.0
C543 C 0.61896 0.07235 0.32447 0.0
C544 C 0.70261 0.07901 0.35679 0.0
C545 C 0.71446 0.04976 0.35418 0.0
C546 C 0.65189 0.06441 0.33514 0.0
C547 C 0.69434 0.02843 0.34142 0.0
C548 C 0.59373 0.05241 0.32476 0.0
C549 C 0.58336 0.10965 0.30535 0.0
N550 N 0.66387 0.03609 0.33257 0.0
N551 N 0.61286 0.10018 0.31466 0.0
H552 H 0.7319 0.23365 0.49525 0.0
H553 H 0.687 0.06847 0.44768 0.0
H554 H 0.63789 0.19921 0.50687 0.0
H555 H 0.7842 0.09461 0.46512 0.0
H556 H 0.66794 0.11687 0.46716 0.0
H557 H 0.75148 0.18344 0.48113 0.0
C558 C 0.71549 0.21555 0.49492 0.0
C559 C 0.68331 0.22057 0.50225 0.0
C560 C 0.69343 0.11179 0.46697 0.0
C561 C 0.70522 0.16339 0.48591 0.0
C562 C 0.70429 0.0841 0.456 0.0
C563 C 0.73724 0.07734 0.45466 0.0
C564 C 0.71568 0.133 0.47628 0.0
C565 C 0.75855 0.09872 0.46553 0.0
C566 C 0.7266 0.18693 0.48696 0.0
C567 C 0.66295 0.19635 0.50146 0.0
N568 N 0.74745 0.1256 0.47554 0.0
N569 N 0.67415 0.16893 0.49325 0.0
H570 H 0.04124 0.46971 0.73731 0.0
H571 H 0.22797 0.47756 0.7256 0.0
H572 H 0.10362 0.44208 0.80925 0.0
H573 H 0.16748 0.54977 0.69442 0.0
H574 H 0.18176 0.45797 0.75081 0.0
H575 H 0.08672 0.49407 0.71524 0.0
C576 C 0.06432 0.46906 0.74858 0.0
C577 C 0.06865 0.45404 0.77519 0.0
C578 C 0.17881 0.47823 0.73859 0.0
C579 C 0.12045 0.48082 0.74982 0.0
C580 C 0.20504 0.48933 0.72424 0.0
C581 C 0.20149 0.5154 0.70824 0.0
C582 C 0.1488 0.49287 0.73608 0.0
C583 C 0.17124 0.52979 0.70691 0.0
C584 C 0.09013 0.4829 0.73604 0.0
C585 C 0.09911 0.45365 0.78884 0.0
N586 N 0.14587 0.51812 0.72037 0.0
N587 N 0.12397 0.46646 0.77578 0.0
H588 H 0.82682 0.96665 0.92326 0.0
H589 H 0.80968 0.82932 0.02889 0.0
H590 H 0.74186 0.95562 0.97427 0.0
H591 H 0.85916 0.82198 0.94609 0.0
H592 H 0.79219 0.88011 0.01665 0.0
H593 H 0.84731 0.91815 0.93961 0.0
C594 C 0.81281 0.95433 0.93843 0.0
C595 C 0.78264 0.96519 0.94752 0.0
C596 C 0.80692 0.86734 1.00124 0.0
C597 C 0.80591 0.90983 0.96621 0.0
C598 C 0.8169 0.83847 1.0082 0.0
C599 C 0.83573 0.82151 0.98838 0.0
C600 C 0.81649 0.87949 0.9746 0.0
C601 C 0.84445 0.83431 0.96185 0.0
C602 C 0.82436 0.92657 0.94747 0.0
C603 C 0.76523 0.94804 0.96676 0.0
N604 N 0.83497 0.86263 0.95581 0.0
N605 N 0.77715 0.92123 0.97555 0.0
H606 H 0.47956 0.5515 0.25785 0.0
H607 H 0.28896 0.56837 0.25964 0.0
H608 H 0.43083 0.63552 0.27442 0.0
H609 H 0.3371 0.51858 0.19022 0.0
H610 H 0.34147 0.58419 0.27866 0.0
H611 H 0.42729 0.52988 0.24549 0.0
C612 C 0.45793 0.56522 0.25945 0.0
C613 C 0.4595 0.59524 0.26772 0.0
C614 C 0.34037 0.56931 0.2596 0.0
C615 C 0.40009 0.57066 0.25439 0.0
C616 C 0.31053 0.56026 0.24881 0.0
C617 C 0.30869 0.54185 0.22354 0.0
C618 C 0.36847 0.5593 0.24539 0.0
C619 C 0.33741 0.53223 0.21014 0.0
C620 C 0.42825 0.55292 0.25241 0.0
C621 C 0.43074 0.61213 0.2691 0.0
N622 N 0.36612 0.54096 0.22126 0.0
N623 N 0.40226 0.5996 0.26271 0.0
H624 H 0.47898 0.22781 0.3314 0.0
H625 H 0.58048 0.20417 0.47807 0.0
H626 H 0.56858 0.1778 0.33297 0.0
H627 H 0.54005 0.29104 0.46036 0.0
H628 H 0.56353 0.18762 0.42852 0.0
H629 H 0.49097 0.24677 0.38168 0.0
C630 C 0.50145 0.22137 0.34206 0.0
C631 C 0.52301 0.2015 0.32789 0.0
C632 C 0.55789 0.21015 0.43577 0.0
C633 C 0.53587 0.22174 0.38553 0.0
C634 C 0.56704 0.21948 0.46418 0.0
C635 C 0.56159 0.24902 0.47333 0.0
C636 C 0.5426 0.23031 0.41666 0.0
C637 C 0.54464 0.26807 0.4541 0.0
C638 C 0.50808 0.23196 0.37072 0.0
C639 C 0.55153 0.19342 0.34285 0.0
N640 N 0.53575 0.25841 0.42656 0.0
N641 N 0.55687 0.20317 0.37106 0.0
H642 H 0.13394 0.29197 0.6233 0.0
H643 H 0.02362 0.38941 0.72582 0.0
H644 H 0.04301 0.32428 0.58862 0.0
H645 H 0.07413 0.31275 0.7596 0.0
H646 H 0.03376 0.37149 0.67531 0.0
H647 H 0.11659 0.30479 0.67307 0.0
C648 C 0.11 0.30123 0.62611 0.0
C649 C 0.08957 0.30622 0.60164 0.0
C650 C 0.04193 0.35823 0.69376 0.0
C651 C 0.07016 0.32244 0.65897 0.0
C652 C 0.03553 0.36813 0.72264 0.0
C653 C 0.04617 0.35157 0.74693 0.0
C654 C 0.06045 0.33222 0.68918 0.0
C655 C 0.06477 0.32577 0.74143 0.0
C656 C 0.10024 0.30874 0.65465 0.0
C657 C 0.05936 0.31963 0.60685 0.0
N658 N 0.07148 0.31695 0.71315 0.0
N659 N 0.05065 0.32762 0.63498 0.0
H660 H 0.03541 0.82563 0.83467 0.0
H661 H 0.91817 0.84145 0.96848 0.0
H662 H 0.94178 0.86785 0.82624 0.0
H663 H 0.9695 0.75822 0.95393 0.0
H664 H 0.93607 0.85788 0.92058 0.0
H665 H 0.01943 0.80518 0.88201 0.0
C666 C 0.01135 0.83011 0.84253 0.0
C667 C 0.98977 0.84826 0.82651 0.0
C668 C 0.94362 0.83613 0.92807 0.0
C669 C 0.97207 0.82613 0.88073 0.0
C670 C 0.93377 0.82685 0.95552 0.0
C671 C 0.94233 0.79838 0.96516 0.0
C672 C 0.96279 0.81712 0.91044 0.0
C673 C 0.96233 0.78031 0.94724 0.0
C674 C 1.00237 0.81858 0.86947 0.0
C675 C 0.959 0.85369 0.83772 0.0
N676 N 0.97204 0.79003 0.92067 0.0
N677 N 0.95125 0.8431 0.86443 0.0
H678 H 0.4355 0.6823 0.22521 0.0
H679 H 0.46403 0.77148 0.07943 0.0
H680 H 0.52645 0.72166 0.21033 0.0
H681 H 0.41162 0.69081 0.07783 0.0
H682 H 0.48049 0.76206 0.1309 0.0
H683 H 0.41843 0.69509 0.17482 0.0
C684 C 0.45156 0.69431 0.21162 0.0
C685 C 0.48239 0.70106 0.22195 0.0
C686 C 0.46545 0.74644 0.11919 0.0
C687 C 0.46306 0.71556 0.16447 0.0
C688 C 0.45615 0.75173 0.08993 0.0
C689 C 0.43648 0.73186 0.07452 0.0
C690 C 0.45431 0.7215 0.13327 0.0
C691 C 0.42683 0.70662 0.089 0.0
C692 C 0.44195 0.70122 0.1828 0.0
C693 C 0.50246 0.71612 0.20318 0.0
N694 N 0.4355 0.70232 0.11775 0.0
N695 N 0.49242 0.72297 0.17533 0.0
H696 H 0.15814 0.43395 0.39138 0.0
H697 H 0.25946 0.42137 0.24314 0.0
H698 H 0.20471 0.35206 0.36232 0.0
H699 H 0.18669 0.48927 0.25988 0.0
H700 H 0.24526 0.39777 0.28924 0.0
H701 H 0.17461 0.45694 0.3461 0.0
C702 C 0.17179 0.42071 0.37551 0.0
C703 C 0.17962 0.3908 0.38069 0.0
C704 C 0.23239 0.41778 0.2827 0.0
C705 C 0.1991 0.41737 0.32874 0.0
C706 C 0.24047 0.4313 0.25642 0.0
C707 C 0.22418 0.45734 0.2475 0.0
C708 C 0.20821 0.43065 0.30044 0.0
C709 C 0.1998 0.46915 0.26566 0.0
C710 C 0.18127 0.43395 0.34965 0.0
C711 C 0.19824 0.37519 0.35952 0.0
N712 N 0.19272 0.45584 0.29128 0.0
N713 N 0.20726 0.38862 0.33446 0.0
H714 H 0.89811 0.88458 0.57518 0.0
H715 H 0.82862 1.01345 0.47141 0.0
H716 H 0.90166 0.97742 0.59885 0.0
H717 H 0.81888 0.9203 0.45208 0.0
H718 H 0.86156 1.0011 0.515 0.0
H719 H 0.87483 0.89762 0.52723 0.0
C720 C 0.89403 0.90774 0.57029 0.0
C721 C 0.90152 0.92991 0.59129 0.0
C722 C 0.85246 0.98336 0.50109 0.0
C723 C 0.875 0.94507 0.53613 0.0
C724 C 0.83378 0.9904 0.47615 0.0
C725 C 0.8208 0.96784 0.45831 0.0
C726 C 0.85818 0.95353 0.5082 0.0
C727 C 0.82824 0.93837 0.46539 0.0
C728 C 0.88087 0.91519 0.54281 0.0
C729 C 0.89638 0.95958 0.58336 0.0
N730 N 0.84621 0.93207 0.48989 0.0
N731 N 0.88319 0.96628 0.55653 0.0
H732 H 0.36725 0.57776 0.71137 0.0
H733 H 0.30495 0.68541 0.84179 0.0
H734 H 0.26695 0.60045 0.72161 0.0
H735 H 0.39544 0.63666 0.84393 0.0
H736 H 0.29115 0.65941 0.79538 0.0
H737 H 0.37924 0.60602 0.75653 0.0
C738 C 0.34777 0.58899 0.72298 0.0
C739 C 0.31605 0.58659 0.71293 0.0
C740 C 0.31397 0.65444 0.80614 0.0
C741 C 0.32956 0.61885 0.76477 0.0
C742 C 0.32178 0.66907 0.83274 0.0
C743 C 0.35156 0.66344 0.84676 0.0
C744 C 0.3362 0.63428 0.79336 0.0
C745 C 0.37254 0.64229 0.83369 0.0
C746 C 0.3546 0.60495 0.74888 0.0
C747 C 0.29173 0.60169 0.72876 0.0
N748 N 0.36455 0.62868 0.8077 0.0
N749 N 0.29897 0.61715 0.75404 0.0
H750 H 0.61821 0.05969 0.10328 0.0
H751 H 0.69878 0.12207 0.95853 0.0
H752 H 0.62394 0.15248 0.08437 0.0
H753 H 0.69242 0.02885 0.97479 0.0
H754 H 0.66786 0.13313 1.00297 0.0
H755 H 0.64178 0.04749 0.0551 0.0
C756 C 0.62408 0.07752 0.08893 0.0
C757 C 0.61926 0.10721 0.09814 0.0
C758 C 0.67298 0.11021 0.99681 0.0
C759 C 0.64658 0.09333 0.04292 0.0
C760 C 0.69061 0.10389 0.97135 0.0
C761 C 0.69839 0.07451 0.96306 0.0
C762 C 0.6631 0.08701 0.01435 0.0
C763 C 0.68704 0.05183 0.98046 0.0
C764 C 0.63772 0.07051 0.06145 0.0
C765 C 0.62773 0.12929 0.07859 0.0
N766 N 0.6702 0.05855 1.00542 0.0
N767 N 0.64103 0.12192 0.05209 0.0
H768 H 0.60658 0.14593 0.71318 0.0
H769 H 0.75419 0.11901 0.82623 0.0
H770 H 0.69989 0.18173 0.70087 0.0
H771 H 0.66106 0.08168 0.83517 0.0
H772 H 0.73405 0.14558 0.78267 0.0
H773 H 0.62554 0.1252 0.75984 0.0
C774 C 0.6311 0.14942 0.72023 0.0
C775 C 0.65167 0.16548 0.70281 0.0
C776 C 0.71799 0.13173 0.79433 0.0
C777 C 0.67361 0.14188 0.7567 0.0
C778 C 0.72944 0.11664 0.8193 0.0
C779 C 0.7094 0.09786 0.83436 0.0
C780 C 0.68625 0.12807 0.78436 0.0
C781 C 0.67755 0.09568 0.82423 0.0
C782 C 0.64189 0.13769 0.74703 0.0
C783 C 0.68304 0.16972 0.71357 0.0
N784 N 0.66709 0.1104 0.79989 0.0
N785 N 0.69309 0.15787 0.73968 0.0
H786 H 0.21067 0.41206 0.11786 0.0
H787 H 0.10659 0.47453 0.98203 0.0
H788 H 0.1879 0.50513 0.10981 0.0
H789 H 0.12607 0.38208 0.99859 0.0
H790 H 0.13173 0.48709 0.03012 0.0
H791 H 0.17461 0.40138 0.07659 0.0
C792 C 0.19747 0.43024 0.10765 0.0
C793 C 0.20217 0.45945 0.1172 0.0
C794 C 0.13028 0.46408 0.02323 0.0
C795 C 0.16144 0.44757 0.06894 0.0
C796 C 0.11594 0.45689 0.99582 0.0
C797 C 0.11474 0.42721 0.98596 0.0
C798 C 0.14331 0.44139 0.04092 0.0
C799 C 0.12716 0.40529 1.0048 0.0
C800 C 0.17697 0.42418 0.0839 0.0
C801 C 0.18465 0.48225 0.10315 0.0
N802 N 0.14098 0.41283 0.03112 0.0
N803 N 0.16537 0.47588 0.07931 0.0
H804 H 0.85416 0.96694 0.33282 0.0
H805 H 0.80952 0.86451 0.19248 0.0
H806 H 0.76123 0.92896 0.31999 0.0
H807 H 0.89848 0.90986 0.20342 0.0
H808 H 0.79288 0.88385 0.24102 0.0
H809 H 0.87225 0.94177 0.2878 0.0
C810 C 0.83755 0.95311 0.32067 0.0
C811 C 0.80597 0.95033 0.33014 0.0
C812 C 0.81607 0.88948 0.23282 0.0
C813 C 0.82665 0.92144 0.27814 0.0
C814 C 0.82566 0.87835 0.20517 0.0
C815 C 0.85541 0.88568 0.19377 0.0
C816 C 0.83642 0.90798 0.24928 0.0
C817 C 0.87516 0.90398 0.21108 0.0
C818 C 0.84794 0.93876 0.29485 0.0
C819 C 0.78574 0.93184 0.3135 0.0
N820 N 0.8653 0.91448 0.23789 0.0
N821 N 0.79636 0.91827 0.28817 0.0
H822 H 0.32139 0.61874 0.59442 0.0
H823 H 0.42837 0.58141 0.45274 0.0
H824 H 0.3571 0.53026 0.57345 0.0
H825 H 0.37933 0.66512 0.47047 0.0
H826 H 0.40892 0.56316 0.49973 0.0
H827 H 0.34966 0.63701 0.55249 0.0
C828 C 0.33537 0.60311 0.58105 0.0
C829 C 0.33647 0.57283 0.58717 0.0
C830 C 0.40257 0.58554 0.49332 0.0
C831 C 0.36888 0.59371 0.53872 0.0
C832 C 0.4137 0.59597 0.46662 0.0
C833 C 0.40512 0.6247 0.45761 0.0
C834 C 0.38302 0.60412 0.51114 0.0
C835 C 0.38602 0.64266 0.4763 0.0
C836 C 0.35153 0.6136 0.55703 0.0
C837 C 0.35547 0.55376 0.56936 0.0
N838 N 0.3756 0.63205 0.5021 0.0
N839 N 0.3707 0.56449 0.54564 0.0
H840 H 0.17366 0.23801 0.45974 0.0
H841 H 0.35938 0.21459 0.41938 0.0
H842 H 0.25309 0.25573 0.51885 0.0
H843 H 0.28295 0.19132 0.35866 0.0
H844 H 0.31985 0.23565 0.45333 0.0
H845 H 0.21212 0.22648 0.41989 0.0
C846 C 0.19907 0.2399 0.46418 0.0
C847 C 0.21027 0.24746 0.49268 0.0
C848 C 0.31162 0.22613 0.4325 0.0
C849 C 0.25419 0.23433 0.44757 0.0
C850 C 0.33433 0.21427 0.41288 0.0
C851 C 0.3247 0.20088 0.38602 0.0
C852 C 0.27877 0.22461 0.4255 0.0
C853 C 0.29161 0.20085 0.37931 0.0
C854 C 0.22101 0.2332 0.44154 0.0
C855 C 0.24342 0.2496 0.4973 0.0
N856 N 0.26987 0.21229 0.39897 0.0
N857 N 0.26408 0.24292 0.47515 0.0
H858 H 0.05666 0.11839 0.63864 0.0
H859 H 0.10053 0.96892 0.72135 0.0
H860 H 0.15314 0.08268 0.64894 0.0
H861 H 1.00423 0.98989 0.6911 0.0
H862 H 0.1196 1.01085 0.69468 0.0
H863 H 0.03632 0.07217 0.6571 0.0
C864 C 0.07361 0.10079 0.64442 0.0
C865 C 0.1068 0.10473 0.64243 0.0
C866 C 0.09432 1.00625 0.69355 0.0
C867 C 0.08351 0.05185 0.66407 0.0
C868 C 0.08337 0.98228 0.70887 0.0
C869 C 0.05068 0.97599 0.70861 0.0
C870 C 0.07244 0.02458 0.67812 0.0
C871 C 0.02964 0.99395 0.69182 0.0
C872 C 0.06191 0.07442 0.65508 0.0
C873 C 0.12745 0.08112 0.65068 0.0
N874 N 0.04082 0.01773 0.67754 0.0
N875 N 0.11549 0.05591 0.6613 0.0
H876 H 0.1886 0.90587 0.92616 0.0
H877 H 0.30631 0.77081 0.97091 0.0
H878 H 0.19157 0.82414 0.87503 0.0
H879 H 0.31785 0.86149 0.99975 0.0
H880 H 0.26128 0.78707 0.93867 0.0
H881 H 0.23199 0.88678 0.9574 0.0
C882 C 0.19846 0.88388 0.9214 0.0
C883 C 0.18673 0.86684 0.89751 0.0
C884 C 0.27382 0.80333 0.95201 0.0
C885 C 0.23658 0.84455 0.9337 0.0
C886 C 0.2995 0.79409 0.97032 0.0
C887 C 0.31577 0.81485 0.98804 0.0
C888 C 0.26424 0.83342 0.95183 0.0
C889 C 0.30596 0.84471 0.98655 0.0
C890 C 0.22327 0.87294 0.93934 0.0
C891 C 0.19988 0.83808 0.89316 0.0
N892 N 0.2808 0.85302 0.96896 0.0
N893 N 0.22425 0.82785 0.911 0.0
H894 H 0.5096 0.05574 0.19058 0.0
H895 H 0.37554 0.93249 0.18099 0.0
H896 H 0.42055 0.06015 0.23785 0.0
H897 H 0.46041 0.92741 0.12784 0.0
H898 H 0.39235 0.9799 0.20143 0.0
H899 H 0.49248 1.0096 0.16612 0.0
C900 C 0.48644 0.04721 0.19566 0.0
C901 C 0.46664 0.06183 0.21648 0.0
C902 C 0.40737 0.96852 0.18527 0.0
C903 C 0.44705 1.00911 0.18881 0.0
C904 C 0.39784 0.94129 0.17373 0.0
C905 C 0.41668 0.92581 0.15282 0.0
C906 C 0.4361 0.98052 0.176 0.0
C907 C 0.44506 0.93867 0.1438 0.0
C908 C 0.47672 0.02084 0.18177 0.0
C909 C 0.43687 0.04967 0.22221 0.0
N910 N 0.45401 0.96522 0.15555 0.0
N911 N 0.42813 0.02409 0.2086 0.0
H912 H 0.84299 0.38682 0.63778 0.0
H913 H 0.70488 0.26846 0.62265 0.0
H914 H 0.8168 0.33289 0.71065 0.0
H915 H 0.71727 0.33989 0.56252 0.0
H916 H 0.74929 0.28738 0.65335 0.0
H917 H 0.80001 0.36576 0.60813 0.0
C918 C 0.82799 0.3708 0.64774 0.0
C919 C 0.83341 0.36196 0.67698 0.0
C920 C 0.74218 0.29879 0.63339 0.0
C921 C 0.78434 0.33704 0.64263 0.0
C922 C 0.71702 0.28794 0.61582 0.0
C923 C 0.70728 0.30269 0.59007 0.0
C924 C 0.75783 0.32427 0.62482 0.0
C925 C 0.72373 0.3279 0.58229 0.0
C926 C 0.80354 0.35856 0.63065 0.0
C927 C 0.81368 0.34029 0.68819 0.0
N928 N 0.74814 0.33781 0.59954 0.0
N929 N 0.79 0.32855 0.67099 0.0
H930 H 0.91198 0.44158 0.86081 0.0
H931 H 0.97299 0.5957 0.92598 0.0
H932 H 0.01097 0.46573 0.85857 0.0
H933 H 0.88118 0.56057 0.94606 0.0
H934 H 0.98747 0.54883 0.90047 0.0
H935 H 0.90038 0.48511 0.89231 0.0
C936 C 0.93134 0.45588 0.86728 0.0
C937 C 0.96239 0.45021 0.85692 0.0
C938 C 0.96427 0.55134 0.91069 0.0
C939 C 0.94926 0.50035 0.89253 0.0
C940 C 0.95593 0.57813 0.92506 0.0
C941 C 0.92587 0.58204 0.93824 0.0
C942 C 0.94222 0.52845 0.90915 0.0
C943 C 0.90476 0.55844 0.93656 0.0
C944 C 0.92472 0.48077 0.8852 0.0
C945 C 0.98664 0.4694 0.86599 0.0
N946 N 0.91325 0.53279 0.92214 0.0
N947 N 0.97949 0.49384 0.88299 0.0
H948 H 0.81048 0.77773 0.11898 0.0
H949 H 0.66879 0.66316 0.12787 0.0
H950 H 0.79611 0.70525 0.05684 0.0
H951 H 0.69385 0.7222 0.20031 0.0
H952 H 0.71169 0.68291 0.09905 0.0
H953 H 0.7646 0.76167 0.14699 0.0
C954 C 0.79773 0.75848 0.11121 0.0
C955 C 0.80724 0.74277 0.08554 0.0
C956 C 0.70778 0.69164 0.12122 0.0
C957 C 0.75468 0.72453 0.11728 0.0
C958 C 0.6833 0.68033 0.13772 0.0
C959 C 0.67793 0.69077 0.1667 0.0
C960 C 0.72711 0.71367 0.13368 0.0
C961 C 0.69703 0.71358 0.17801 0.0
C962 C 0.77156 0.74935 0.12721 0.0
C963 C 0.78981 0.718 0.07653 0.0
N964 N 0.72093 0.72416 0.16153 0.0
N965 N 0.7644 0.70972 0.09233 0.0
H966 H 0.59601 0.43262 0.37951 0.0
H967 H 0.5076 0.5911 0.38551 0.0
H968 H 0.56424 0.46996 0.46307 0.0
H969 H 0.58237 0.56615 0.32424 0.0
H970 H 0.51909 0.54474 0.41201 0.0
H971 H 0.58074 0.47889 0.35594 0.0
C972 C 0.58589 0.4505 0.39302 0.0
C973 C 0.58216 0.44734 0.42359 0.0
C974 C 0.53298 0.5497 0.39284 0.0
C975 C 0.56377 0.50058 0.39625 0.0
C976 C 0.5265 0.57614 0.37774 0.0
C977 C 0.54412 0.58278 0.35263 0.0
C978 C 0.55663 0.52955 0.38225 0.0
C979 C 0.5682 0.56232 0.34351 0.0
C980 C 0.57704 0.47695 0.37944 0.0
C981 C 0.56764 0.47121 0.43949 0.0
N982 N 0.57347 0.53668 0.35808 0.0
N983 N 0.55908 0.49687 0.42567 0.0
H984 H 0.36799 0.31517 0.14988 0.0
H985 H 0.42582 0.19899 0.27226 0.0
H986 H 0.36383 0.33355 0.24373 0.0
H987 H 0.45532 0.1954 0.18147 0.0
H988 H 0.38963 0.24134 0.26077 0.0
H989 H 0.3869 0.26465 0.16008 0.0
C990 C 0.37057 0.30845 0.17264 0.0
C991 C 0.3647 0.32874 0.19598 0.0
C992 C 0.40341 0.23075 0.24322 0.0
C993 C 0.38645 0.27092 0.20782 0.0
C994 C 0.4237 0.20641 0.2497 0.0
C995 C 0.44327 0.19377 0.22767 0.0
C996 C 0.40274 0.24214 0.21451 0.0
C997 C 0.44036 0.20455 0.19895 0.0
C998 C 0.38149 0.27964 0.17845 0.0
C999 C 0.36867 0.31879 0.22506 0.0
N1000 N 0.42068 0.22824 0.19322 0.0
N1001 N 0.37951 0.29065 0.23017 0.0
H1002 H 0.97263 0.31973 0.87592 0.0
H1003 H 0.84884 0.1929 0.83567 0.0
H1004 H 0.91785 0.31735 0.79416 0.0
H1005 H 0.90293 0.19859 0.91758 0.0
H1006 H 0.87178 0.2393 0.82054 0.0
H1007 H 0.94536 0.27633 0.8919 0.0
C1008 C 0.95478 0.31013 0.86128 0.0
C1009 C 0.94772 0.32215 0.83351 0.0
C1010 C 0.87854 0.23041 0.84185 0.0
C1011 C 0.91629 0.27209 0.85181 0.0
C1012 C 0.86535 0.204 0.85057 0.0
C1013 C 0.87411 0.19172 0.87789 0.0
C1014 C 0.90062 0.24466 0.8606 0.0
C1015 C 0.89589 0.20692 0.89613 0.0
C1016 C 0.93916 0.28528 0.87049 0.0
C1017 C 0.92412 0.3088 0.81571 0.0
N1018 N 0.9084 0.2325 0.88712 0.0
N1019 N 0.90936 0.28435 0.8251 0.0
H1020 H 0.08911 0.6289 0.07404 0.0
H1021 H 0.9316 0.72261 0.12037 0.0
H1022 H 0.04395 0.62295 0.15867 0.0
H1023 H 0.96253 0.71432 0.03004 0.0
H1024 H 0.97374 0.6869 0.13479 0.0
H1025 H 0.04451 0.66146 0.05744 0.0
C1026 C 0.06984 0.6344 0.08909 0.0
C1027 C 0.07021 0.62303 0.11774 0.0
C1028 C 0.97126 0.6927 0.11176 0.0
C1029 C 0.01924 0.66027 0.09897 0.0
C1030 C 0.94718 0.71309 0.10354 0.0
C1031 C 0.94369 0.72149 0.07402 0.0
C1032 C 0.99232 0.68079 0.09037 0.0
C1033 C 0.96448 0.70844 0.05307 0.0
C1034 C 0.04432 0.65284 0.07957 0.0
C1035 C 0.04449 0.63079 0.13626 0.0
N1036 N 0.98812 0.68891 0.06169 0.0
N1037 N 0.02023 0.64898 0.12663 0.0
H1038 H 0.66832 0.82029 0.39872 0.0
H1039 H 0.54767 0.74796 0.28068 0.0
H1040 H 0.62437 0.86627 0.32531 0.0
H1041 H 0.59185 0.69794 0.35105 0.0
H1042 H 0.58151 0.78942 0.29359 0.0
H1043 H 0.64586 0.77396 0.37948 0.0
C1044 C 0.65425 0.82064 0.37842 0.0
C1045 C 0.64794 0.84743 0.36385 0.0
C1046 C 0.58436 0.76931 0.30603 0.0
C1047 C 0.62211 0.79438 0.34171 0.0
C1048 C 0.56519 0.74552 0.29846 0.0
C1049 C 0.56715 0.7195 0.3147 0.0
C1050 C 0.60532 0.76749 0.33058 0.0
C1051 C 0.58995 0.71754 0.33775 0.0
C1052 C 0.64136 0.79416 0.36749 0.0
C1053 C 0.62936 0.84642 0.33771 0.0
N1054 N 0.60785 0.74145 0.34535 0.0
N1055 N 0.61707 0.82051 0.32765 0.0
H1056 H 0.59006 0.32896 0.62919 0.0
H1057 H 0.43475 0.4237 0.57925 0.0
H1058 H 0.56179 0.34126 0.53809 0.0
H1059 H 0.46161 0.40797 0.67018 0.0
H1060 H 0.48487 0.39933 0.56364 0.0
H1061 H 0.54746 0.36399 0.64439 0.0
C1062 C 0.57516 0.33943 0.61237 0.0
C1063 C 0.5791 0.33198 0.58239 0.0
C1064 C 0.47992 0.4014 0.58702 0.0
C1065 C 0.53007 0.37175 0.59957 0.0
C1066 C 0.45135 0.41543 0.59596 0.0
C1067 C 0.44382 0.41765 0.62608 0.0
C1068 C 0.50115 0.38949 0.60832 0.0
C1069 C 0.46613 0.40625 0.64671 0.0
C1070 C 0.55076 0.35934 0.62104 0.0
C1071 C 0.55935 0.3463 0.56146 0.0
N1072 N 0.49367 0.39254 0.63744 0.0
N1073 N 0.53537 0.36524 0.57047 0.0
H1074 H 0.14321 0.69916 0.73153 0.0
H1075 H 0.10551 0.8735 0.72111 0.0
H1076 H 0.19551 0.75632 0.6758 0.0
H1077 H 0.04458 0.81121 0.76145 0.0
H1078 H 0.14628 0.83344 0.71388 0.0
H1079 H 0.1147 0.74254 0.75219 0.0
C1080 C 0.1491 0.72086 0.72395 0.0
C1081 C 0.17148 0.72398 0.70155 0.0
C1082 C 0.12422 0.82875 0.72483 0.0
C1083 C 0.13849 0.77389 0.72488 0.0
C1084 C 0.10117 0.85162 0.72916 0.0
C1085 C 0.07171 0.84538 0.74157 0.0
C1086 C 0.11761 0.7998 0.73334 0.0
C1087 C 0.06695 0.81673 0.75144 0.0
C1088 C 0.13264 0.74566 0.73564 0.0
C1089 C 0.17789 0.75277 0.69253 0.0
N1090 N 0.08949 0.79498 0.74692 0.0
N1091 N 0.16125 0.77658 0.70399 0.0
H1092 H 0.44838 0.81531 0.95266 0.0
H1093 H 0.5676 0.94782 0.98461 0.0
H1094 H 0.45588 0.859 0.03826 0.0
H1095 H 0.56738 0.89289 0.90536 0.0
H1096 H 0.52602 0.91722 1.00487 0.0
H1097 H 0.49016 0.84606 0.93474 0.0
C1098 C 0.4587 0.83149 0.96774 0.0
C1099 C 0.44857 0.83445 0.9971 0.0
C1100 C 0.53519 0.91189 0.98308 0.0
C1101 C 0.49693 0.8699 0.97655 0.0
C1102 C 0.55905 0.92921 0.97158 0.0
C1103 C 0.57081 0.9231 0.9431 0.0
C1104 C 0.52303 0.88836 0.96595 0.0
C1105 C 0.55861 0.89886 0.92713 0.0
C1106 C 0.48275 0.84902 0.95746 0.0
C1107 C 0.46296 0.85591 0.01547 0.0
N1108 N 0.53538 0.88253 0.93871 0.0
N1109 N 0.48647 0.87284 1.00489 0.0
H1110 H 0.92656 0.16674 0.43456 0.0
H1111 H 0.08508 0.17737 0.53652 0.0
H1112 H 0.96943 0.09123 0.47844 0.0
H1113 H 0.04408 0.24912 0.48561 0.0
H1114 H 0.04165 0.14588 0.51858 0.0
H1115 H 0.96799 0.19763 0.45615 0.0
C1116 C 0.94474 0.15659 0.44871 0.0
C1117 C 0.94457 0.12619 0.45439 0.0
C1118 C 0.04219 0.16856 0.51145 0.0
C1119 C 0.99231 0.16173 0.47958 0.0
C1120 C 0.06692 0.1866 0.52179 0.0
C1121 C 0.06835 0.21602 0.51263 0.0
C1122 C 0.01867 0.18006 0.4919 0.0
C1123 C 0.04424 0.22658 0.49321 0.0
C1124 C 0.96839 0.17432 0.46117 0.0
C1125 C 0.96844 0.11455 0.47352 0.0
N1126 N 0.02055 0.20869 0.48356 0.0
N1127 N 0.99143 0.13228 0.48529 0.0
loop_
_geom_bond_atom_site_label_1
_geom_bond_atom_site_label_2
_geom_bond_distance
_geom_bond_site_symmetry_2
_ccdc_geom_bond_type
Tb0 C2 2.809 . S
Tb0 O20 2.484 . S
Tb0 O21 2.440 . S
Tb0 O22 2.658 . S
Tb0 O23 2.409 . S
Tb0 O24 2.378 . S
Tb0 O28 2.325 . S
Tb0 O31 2.341 . S
Tb1 C11 2.809 . S
Tb1 O22 2.325 . S
Tb1 O25 2.341 . S
Tb1 O26 2.484 . S
Tb1 O27 2.440 . S
Tb1 O28 2.658 . S
Tb1 O29 2.409 . S
Tb1 O30 2.378 . S
C2 Tb0 2.809 . S
C2 C3 1.514 . S
C2 O20 1.248 . S
C2 O21 1.266 . S
C3 C2 1.514 . S
C3 C4 1.359 . S
C3 C8 1.348 . S
C4 C3 1.359 . S
C4 C5 1.380 . S
C4 H32 0.929 . S
C5 C4 1.380 . S
C5 C6 1.347 . S
C5 H33 0.931 . S
C6 C5 1.347 . S
C6 C7 1.369 . S
C7 C6 1.369 . S
C7 C8 1.408 . S
C7 H34 0.930 . S
C8 C3 1.348 . S
C8 C7 1.408 . S
C8 H35 0.930 . S
C9 O22 1.281 . S
C9 O23 1.254 . S
C10 O24 1.236 . S
C10 O25 1.266 . S
C11 Tb1 2.809 . S
C11 C12 1.514 . S
C11 O26 1.248 . S
C11 O27 1.266 . S
C12 C11 1.514 . S
C12 C13 1.359 . S
C12 C17 1.348 . S
C13 C12 1.359 . S
C13 C14 1.380 . S
C13 H36 0.929 . S
C14 C13 1.380 . S
C14 C15 1.347 . S
C14 H37 0.931 . S
C15 C14 1.347 . S
C15 C16 1.369 . S
C16 C15 1.369 . S
C16 C17 1.408 . S
C16 H38 0.930 . S
C17 C12 1.348 . S
C17 C16 1.408 . S
C17 H39 0.930 . S
C18 O28 1.281 . S
C18 O29 1.254 . S
C19 O30 1.236 . S
C19 O31 1.266 . S
O20 Tb0 2.484 . S
O20 C2 1.248 . S
O21 Tb0 2.440 . S
O21 C2 1.266 . S
O22 Tb0 2.658 . S
O22 Tb1 2.325 . S
O22 C9 1.281 . S
O23 Tb0 2.409 . S
O23 C9 1.254 . S
O24 Tb0 2.378 . S
O24 C10 1.236 . S
O25 Tb1 2.341 . S
O25 C10 1.266 . S
O26 Tb1 2.484 . S
O26 C11 1.248 . S
O27 Tb1 2.440 . S
O27 C11 1.266 . S
O28 Tb0 2.325 . S
O28 Tb1 2.658 . S
O28 C18 1.281 . S
O29 Tb1 2.409 . S
O29 C18 1.254 . S
O30 Tb1 2.378 . S
O30 C19 1.236 . S
O31 Tb0 2.341 . S
O31 C19 1.266 . S
H32 C4 0.929 . S
H33 C5 0.931 . S
H34 C7 0.930 . S
H35 C8 0.930 . S
H36 C13 0.929 . S
H37 C14 0.931 . S
H38 C16 0.930 . S
H39 C17 0.930 . S
Tb40 C42 2.809 . S
Tb40 O60 2.484 . S
Tb40 O61 2.440 . S
Tb40 O62 2.658 1_655 S
Tb40 O63 2.409 1_655 S
Tb40 O64 2.378 1_655 S
Tb40 O68 2.325 . S
Tb40 O71 2.341 . S
Tb41 C51 2.809 . S
Tb41 O62 2.325 . S
Tb41 O65 2.341 . S
Tb41 O66 2.484 . S
Tb41 O67 2.440 . S
Tb41 O68 2.658 1_455 S
Tb41 O69 2.409 1_455 S
Tb41 O70 2.378 1_455 S
C42 Tb40 2.809 . S
C42 C43 1.514 . S
C42 O60 1.248 . S
C42 O61 1.266 . S
C43 C42 1.514 . S
C43 C44 1.359 . S
C43 C48 1.348 . S
C44 C43 1.359 . S
C44 C45 1.380 . S
C44 H72 0.929 . S
C45 C44 1.380 . S
C45 C46 1.347 . S
C45 H73 0.931 . S
C46 C45 1.347 . S
C46 C47 1.369 . S
C47 C46 1.369 . S
C47 C48 1.408 . S
C47 H74 0.930 . S
C48 C43 1.348 . S
C48 C47 1.408 . S
C48 H75 0.930 . S
C49 O62 1.281 . S
C49 O63 1.254 . S
C50 O64 1.236 . S
C50 O65 1.266 . S
C51 Tb41 2.809 . S
C51 C52 1.514 . S
C51 O66 1.248 . S
C51 O67 1.266 . S
C52 C51 1.514 . S
C52 C53 1.359 . S
C52 C57 1.348 . S
C53 C52 1.359 . S
C53 C54 1.380 . S
C53 H76 0.929 . S
C54 C53 1.380 . S
C54 C55 1.347 . S
C54 H77 0.931 . S
C55 C54 1.347 . S
C55 C56 1.369 . S
C56 C55 1.369 . S
C56 C57 1.408 . S
C56 H78 0.930 . S
C57 C52 1.348 . S
C57 C56 1.408 . S
C57 H79 0.930 . S
C58 O68 1.281 . S
C58 O69 1.254 . S
C59 O70 1.236 . S
C59 O71 1.266 . S
O60 Tb40 2.484 . S
O60 C42 1.248 . S
O61 Tb40 2.440 . S
O61 C42 1.266 . S
O62 Tb40 2.658 1_455 S
O62 Tb41 2.325 . S
O62 C49 1.281 . S
O63 Tb40 2.409 1_455 S
O63 C49 1.254 . S
O64 Tb40 2.378 1_455 S
O64 C50 1.236 . S
O65 Tb41 2.341 . S
O65 C50 1.266 . S
O66 Tb41 2.484 . S
O66 C51 1.248 . S
O67 Tb41 2.440 . S
O67 C51 1.266 . S
O68 Tb40 2.325 . S
O68 Tb41 2.658 1_655 S
O68 C58 1.281 . S
O69 Tb41 2.409 1_655 S
O69 C58 1.254 . S
O70 Tb41 2.378 1_655 S
O70 C59 1.236 . S
O71 Tb40 2.341 . S
O71 C59 1.266 . S
H72 C44 0.929 . S
H73 C45 0.931 . S
H74 C47 0.930 . S
H75 C48 0.930 . S
H76 C53 0.929 . S
H77 C54 0.931 . S
H78 C56 0.930 . S
H79 C57 0.930 . S
Tb80 C82 2.809 . S
Tb80 O100 2.484 . S
Tb80 O101 2.440 . S
Tb80 O102 2.658 1_554 S
Tb80 O103 2.409 1_554 S
Tb80 O104 2.378 1_554 S
Tb80 O108 2.325 . S
Tb80 O111 2.341 . S
Tb81 C91 2.809 . S
Tb81 O102 2.325 . S
Tb81 O105 2.341 . S
Tb81 O106 2.484 . S
Tb81 O107 2.440 . S
Tb81 O108 2.658 1_556 S
Tb81 O109 2.409 1_556 S
Tb81 O110 2.381 . S
C82 Tb80 2.809 . S
C82 C83 1.514 . S
C82 O100 1.248 . S
C82 O101 1.266 . S
C83 C82 1.514 . S
C83 C84 1.359 . S
C83 C88 1.348 . S
C84 C83 1.359 . S
C84 C85 1.380 . S
C84 H112 0.929 . S
C85 C84 1.380 . S
C85 C86 1.347 . S
C85 H113 0.931 . S
C86 C85 1.347 . S
C86 C87 1.369 . S
C87 C86 1.369 . S
C87 C88 1.408 . S
C87 H114 0.930 . S
C88 C83 1.348 . S
C88 C87 1.408 . S
C88 H115 0.930 . S
C89 O102 1.281 . S
C89 O103 1.254 . S
C90 O104 1.236 . S
C90 O105 1.266 . S
C91 Tb81 2.809 . S
C91 C92 1.514 . S
C91 O106 1.248 . S
C91 O107 1.266 . S
C92 C91 1.514 . S
C92 C93 1.359 . S
C92 C97 1.348 . S
C93 C92 1.359 . S
C93 C94 1.380 . S
C93 H116 0.929 . S
C94 C93 1.380 . S
C94 C95 1.347 . S
C94 H117 0.931 . S
C95 C94 1.347 . S
C95 C96 1.369 . S
C96 C95 1.369 . S
C96 C97 1.408 . S
C96 H118 0.930 . S
C97 C92 1.348 . S
C97 C96 1.408 . S
C97 H119 0.930 . S
C98 O108 1.281 . S
C98 O109 1.254 . S
C99 O110 1.234 1_554 S
C99 O111 1.266 . S
O100 Tb80 2.484 . S
O100 C82 1.248 . S
O101 Tb80 2.440 . S
O101 C82 1.266 . S
O102 Tb80 2.658 1_556 S
O102 Tb81 2.325 . S
O102 C89 1.281 . S
O103 Tb80 2.409 1_556 S
O103 C89 1.254 . S
O104 Tb80 2.378 1_556 S
O104 C90 1.236 . S
O105 Tb81 2.341 . S
O105 C90 1.266 . S
O106 Tb81 2.484 . S
O106 C91 1.248 . S
O107 Tb81 2.440 . S
O107 C91 1.266 . S
O108 Tb80 2.325 . S
O108 Tb81 2.658 1_554 S
O108 C98 1.281 . S
O109 Tb81 2.409 1_554 S
O109 C98 1.254 . S
O110 Tb81 2.381 . S
O110 C99 1.234 1_556 S
O111 Tb80 2.341 . S
O111 C99 1.266 . S
H112 C84 0.929 . S
H113 C85 0.931 . S
H114 C87 0.930 . S
H115 C88 0.930 . S
H116 C93 0.929 . S
H117 C94 0.931 . S
H118 C96 0.930 . S
H119 C97 0.930 . S
Tb120 C122 2.809 . S
Tb120 O140 2.484 . S
Tb120 O141 2.440 . S
Tb120 O142 2.658 . S
Tb120 O143 2.409 . S
Tb120 O144 2.378 . S
Tb120 O148 2.325 . S
Tb120 O151 2.341 . S
Tb121 C131 2.809 . S
Tb121 O142 2.325 . S
Tb121 O145 2.341 . S
Tb121 O146 2.484 . S
Tb121 O147 2.440 . S
Tb121 O148 2.658 . S
Tb121 O149 2.409 . S
Tb121 O150 2.378 . S
C122 Tb120 2.809 . S
C122 C123 1.514 . S
C122 O140 1.248 . S
C122 O141 1.266 . S
C123 C122 1.514 . S
C123 C124 1.359 . S
C123 C128 1.348 . S
C124 C123 1.359 . S
C124 C125 1.380 . S
C124 H152 0.929 . S
C125 C124 1.380 . S
C125 C126 1.347 . S
C125 H153 0.931 . S
C126 C125 1.347 . S
C126 C127 1.369 . S
C127 C126 1.369 . S
C127 C128 1.408 . S
C127 H154 0.930 . S
C128 C123 1.348 . S
C128 C127 1.408 . S
C128 H155 0.930 . S
C129 O142 1.281 . S
C129 O143 1.254 . S
C130 O144 1.236 . S
C130 O145 1.266 . S
C131 Tb121 2.809 . S
C131 C132 1.514 . S
C131 O146 1.248 . S
C131 O147 1.266 . S
C132 C131 1.514 . S
C132 C133 1.359 . S
C132 C137 1.348 . S
C133 C132 1.359 . S
C133 C134 1.380 . S
C133 H156 0.929 . S
C134 C133 1.380 . S
C134 C135 1.347 . S
C134 H157 0.931 . S
C135 C134 1.347 . S
C135 C136 1.369 . S
C136 C135 1.369 . S
C136 C137 1.408 . S
C136 H158 0.930 . S
C137 C132 1.348 . S
C137 C136 1.408 . S
C137 H159 0.930 . S
C138 O148 1.281 . S
C138 O149 1.254 . S
C139 O150 1.236 . S
C139 O151 1.266 . S
O140 Tb120 2.484 . S
O140 C122 1.248 . S
O141 Tb120 2.440 . S
O141 C122 1.266 . S
O142 Tb120 2.658 . S
O142 Tb121 2.325 . S
O142 C129 1.281 . S
O143 Tb120 2.409 . S
O143 C129 1.254 . S
O144 Tb120 2.378 . S
O144 C130 1.236 . S
O145 Tb121 2.341 . S
O145 C130 1.266 . S
O146 Tb121 2.484 . S
O146 C131 1.248 . S
O147 Tb121 2.440 . S
O147 C131 1.266 . S
O148 Tb120 2.325 . S
O148 Tb121 2.658 . S
O148 C138 1.281 . S
O149 Tb121 2.409 . S
O149 C138 1.254 . S
O150 Tb121 2.378 . S
O150 C139 1.236 . S
O151 Tb120 2.341 . S
O151 C139 1.266 . S
H152 C124 0.929 . S
H153 C125 0.931 . S
H154 C127 0.930 . S
H155 C128 0.930 . S
H156 C133 0.929 . S
H157 C134 0.931 . S
H158 C136 0.930 . S
H159 C137 0.930 . S
Tb160 C162 2.809 . S
Tb160 O180 2.484 . S
Tb160 O181 2.440 . S
Tb160 O182 2.658 . S
Tb160 O183 2.409 . S
Tb160 O184 2.378 . S
Tb160 O188 2.325 . S
Tb160 O191 2.341 . S
Tb161 C171 2.809 . S
Tb161 O182 2.325 . S
Tb161 O185 2.341 . S
Tb161 O186 2.484 . S
Tb161 O187 2.440 . S
Tb161 O188 2.658 . S
Tb161 O189 2.409 . S
Tb161 O190 2.378 . S
C162 Tb160 2.809 . S
C162 C163 1.514 . S
C162 O180 1.248 . S
C162 O181 1.266 . S
C163 C162 1.514 . S
C163 C164 1.359 . S
C163 C168 1.348 . S
C164 C163 1.359 . S
C164 C165 1.380 . S
C164 H192 0.929 . S
C165 C164 1.380 . S
C165 C166 1.347 . S
C165 H193 0.931 . S
C166 C165 1.347 . S
C166 C167 1.369 . S
C167 C166 1.369 . S
C167 C168 1.408 . S
C167 H194 0.930 . S
C168 C163 1.348 . S
C168 C167 1.408 . S
C168 H195 0.930 . S
C169 O182 1.281 . S
C169 O183 1.254 . S
C170 O184 1.236 . S
C170 O185 1.266 . S
C171 Tb161 2.809 . S
C171 C172 1.514 . S
C171 O186 1.248 . S
C171 O187 1.266 . S
C172 C171 1.514 . S
C172 C173 1.359 . S
C172 C177 1.348 . S
C173 C172 1.359 . S
C173 C174 1.380 . S
C173 H196 0.929 . S
C174 C173 1.380 . S
C174 C175 1.347 . S
C174 H197 0.931 . S
C175 C174 1.347 . S
C175 C176 1.369 . S
C176 C175 1.369 . S
C176 C177 1.408 . S
C176 H198 0.930 . S
C177 C172 1.348 . S
C177 C176 1.408 . S
C177 H199 0.930 . S
C178 O188 1.281 . S
C178 O189 1.254 . S
C179 O190 1.236 . S
C179 O191 1.266 . S
O180 Tb160 2.484 . S
O180 C162 1.248 . S
O181 Tb160 2.440 . S
O181 C162 1.266 . S
O182 Tb160 2.658 . S
O182 Tb161 2.325 . S
O182 C169 1.281 . S
O183 Tb160 2.409 . S
O183 C169 1.254 . S
O184 Tb160 2.378 . S
O184 C170 1.236 . S
O185 Tb161 2.341 . S
O185 C170 1.266 . S
O186 Tb161 2.484 . S
O186 C171 1.248 . S
O187 Tb161 2.440 . S
O187 C171 1.266 . S
O188 Tb160 2.325 . S
O188 Tb161 2.658 . S
O188 C178 1.281 . S
O189 Tb161 2.409 . S
O189 C178 1.254 . S
O190 Tb161 2.378 . S
O190 C179 1.236 . S
O191 Tb160 2.341 . S
O191 C179 1.266 . S
H192 C164 0.929 . S
H193 C165 0.931 . S
H194 C167 0.930 . S
H195 C168 0.930 . S
H196 C173 0.929 . S
H197 C174 0.931 . S
H198 C176 0.930 . S
H199 C177 0.930 . S
Tb200 C202 2.809 . S
Tb200 O220 2.484 . S
Tb200 O221 2.440 . S
Tb200 O222 2.658 . S
Tb200 O223 2.409 . S
Tb200 O224 2.378 . S
Tb200 O228 2.325 1_655 S
Tb200 O231 2.341 1_655 S
Tb201 C211 2.809 . S
Tb201 O222 2.325 1_455 S
Tb201 O225 2.341 1_455 S
Tb201 O226 2.484 . S
Tb201 O227 2.440 . S
Tb201 O228 2.658 . S
Tb201 O229 2.409 . S
Tb201 O230 2.378 . S
C202 Tb200 2.809 . S
C202 C203 1.514 . S
C202 O220 1.248 . S
C202 O221 1.266 . S
C203 C202 1.514 . S
C203 C204 1.359 . S
C203 C208 1.348 . S
C204 C203 1.359 . S
C204 C205 1.380 . S
C204 H232 0.929 . S
C205 C204 1.380 . S
C205 C206 1.347 . S
C205 H233 0.931 . S
C206 C205 1.347 . S
C206 C207 1.369 . S
C207 C206 1.369 . S
C207 C208 1.408 . S
C207 H234 0.930 . S
C208 C203 1.348 . S
C208 C207 1.408 . S
C208 H235 0.930 . S
C209 O222 1.281 . S
C209 O223 1.254 . S
C210 O224 1.236 . S
C210 O225 1.266 . S
C211 Tb201 2.809 . S
C211 C212 1.514 . S
C211 O226 1.248 . S
C211 O227 1.266 . S
C212 C211 1.514 . S
C212 C213 1.359 . S
C212 C217 1.348 . S
C213 C212 1.359 . S
C213 C214 1.380 . S
C213 H236 0.929 . S
C214 C213 1.380 . S
C214 C215 1.347 . S
C214 H237 0.931 . S
C215 C214 1.347 . S
C215 C216 1.369 . S
C216 C215 1.369 . S
C216 C217 1.408 . S
C216 H238 0.930 . S
C217 C212 1.348 . S
C217 C216 1.408 . S
C217 H239 0.930 . S
C218 O228 1.281 . S
C218 O229 1.254 . S
C219 O230 1.236 . S
C219 O231 1.266 . S
O220 Tb200 2.484 . S
O220 C202 1.248 . S
O221 Tb200 2.440 . S
O221 C202 1.266 . S
O222 Tb200 2.658 . S
O222 Tb201 2.325 1_655 S
O222 C209 1.281 . S
O223 Tb200 2.409 . S
O223 C209 1.254 . S
O224 Tb200 2.378 . S
O224 C210 1.236 . S
O225 Tb201 2.341 1_655 S
O225 C210 1.266 . S
O226 Tb201 2.484 . S
O226 C211 1.248 . S
O227 Tb201 2.440 . S
O227 C211 1.266 . S
O228 Tb200 2.325 1_455 S
O228 Tb201 2.658 . S
O228 C218 1.281 . S
O229 Tb201 2.409 . S
O229 C218 1.254 . S
O230 Tb201 2.378 . S
O230 C219 1.236 . S
O231 Tb200 2.341 1_455 S
O231 C219 1.266 . S
H232 C204 0.929 . S
H233 C205 0.931 . S
H234 C207 0.930 . S
H235 C208 0.930 . S
H236 C213 0.929 . S
H237 C214 0.931 . S
H238 C216 0.930 . S
H239 C217 0.930 . S
Tb240 C242 2.809 . S
Tb240 O260 2.484 . S
Tb240 O261 2.440 . S
Tb240 O262 2.658 . S
Tb240 O263 2.409 . S
Tb240 O264 2.378 . S
Tb240 O268 2.325 . S
Tb240 O271 2.341 1_554 S
Tb241 C251 2.809 . S
Tb241 O262 2.325 1_556 S
Tb241 O265 2.341 1_556 S
Tb241 O266 2.484 . S
Tb241 O267 2.440 . S
Tb241 O268 2.658 1_556 S
Tb241 O269 2.409 . S
Tb241 O270 2.378 . S
C242 Tb240 2.809 . S
C242 C243 1.514 . S
C242 O260 1.248 . S
C242 O261 1.266 . S
C243 C242 1.514 . S
C243 C244 1.359 . S
C243 C248 1.348 . S
C244 C243 1.359 . S
C244 C245 1.380 . S
C244 H272 0.929 . S
C245 C244 1.380 . S
C245 C246 1.347 . S
C245 H273 0.931 . S
C246 C245 1.347 . S
C246 C247 1.369 . S
C247 C246 1.369 . S
C247 C248 1.408 . S
C247 H274 0.930 . S
C248 C243 1.348 . S
C248 C247 1.408 . S
C248 H275 0.930 . S
C249 O262 1.281 . S
C249 O263 1.254 . S
C250 O264 1.236 . S
C250 O265 1.266 . S
C251 Tb241 2.809 . S
C251 C252 1.514 . S
C251 O266 1.248 . S
C251 O267 1.266 . S
C252 C251 1.514 . S
C252 C253 1.359 . S
C252 C257 1.348 . S
C253 C252 1.359 . S
C253 C254 1.380 . S
C253 H276 0.929 . S
C254 C253 1.380 . S
C254 C255 1.347 . S
C254 H277 0.931 . S
C255 C254 1.347 . S
C255 C256 1.369 . S
C256 C255 1.369 . S
C256 C257 1.408 . S
C256 H278 0.930 . S
C257 C252 1.348 . S
C257 C256 1.408 . S
C257 H279 0.930 . S
C258 O268 1.281 1_556 S
C258 O269 1.254 . S
C259 O270 1.236 . S
C259 O271 1.266 . S
O260 Tb240 2.484 . S
O260 C242 1.248 . S
O261 Tb240 2.440 . S
O261 C242 1.266 . S
O262 Tb240 2.658 . S
O262 Tb241 2.325 1_554 S
O262 C249 1.281 . S
O263 Tb240 2.409 . S
O263 C249 1.254 . S
O264 Tb240 2.378 . S
O264 C250 1.236 . S
O265 Tb241 2.341 1_554 S
O265 C250 1.266 . S
O266 Tb241 2.484 . S
O266 C251 1.248 . S
O267 Tb241 2.440 . S
O267 C251 1.266 . S
O268 Tb240 2.325 . S
O268 Tb241 2.658 1_554 S
O268 C258 1.281 1_554 S
O269 Tb241 2.409 . S
O269 C258 1.254 . S
O270 Tb241 2.378 . S
O270 C259 1.236 . S
O271 Tb240 2.341 1_556 S
O271 C259 1.266 . S
H272 C244 0.929 . S
H273 C245 0.931 . S
H274 C247 0.930 . S
H275 C248 0.930 . S
H276 C253 0.929 . S
H277 C254 0.931 . S
H278 C256 0.930 . S
H279 C257 0.930 . S
Tb280 C282 2.809 . S
Tb280 O300 2.484 . S
Tb280 O301 2.440 . S
Tb280 O302 2.658 . S
Tb280 O303 2.409 . S
Tb280 O304 2.378 . S
Tb280 O308 2.325 . S
Tb280 O311 2.341 . S
Tb281 C291 2.809 . S
Tb281 O302 2.325 . S
Tb281 O305 2.341 . S
Tb281 O306 2.484 . S
Tb281 O307 2.440 . S
Tb281 O308 2.658 . S
Tb281 O309 2.409 . S
Tb281 O310 2.378 . S
C282 Tb280 2.809 . S
C282 C283 1.514 . S
C282 O300 1.248 . S
C282 O301 1.266 . S
C283 C282 1.514 . S
C283 C284 1.359 . S
C283 C288 1.348 . S
C284 C283 1.359 . S
C284 C285 1.380 . S
C284 H312 0.929 . S
C285 C284 1.380 . S
C285 C286 1.347 . S
C285 H313 0.931 . S
C286 C285 1.347 . S
C286 C287 1.369 . S
C287 C286 1.369 . S
C287 C288 1.408 . S
C287 H314 0.930 . S
C288 C283 1.348 . S
C288 C287 1.408 . S
C288 H315 0.930 . S
C289 O302 1.281 . S
C289 O303 1.254 . S
C290 O304 1.236 . S
C290 O305 1.266 . S
C291 Tb281 2.809 . S
C291 C292 1.514 . S
C291 O306 1.248 . S
C291 O307 1.266 . S
C292 C291 1.514 . S
C292 C293 1.359 . S
C292 C297 1.348 . S
C293 C292 1.359 . S
C293 C294 1.380 . S
C293 H316 0.929 . S
C294 C293 1.380 . S
C294 C295 1.347 . S
C294 H317 0.931 . S
C295 C294 1.347 . S
C295 C296 1.369 . S
C296 C295 1.369 . S
C296 C297 1.408 . S
C296 H318 0.930 . S
C297 C292 1.348 . S
C297 C296 1.408 . S
C297 H319 0.930 . S
C298 O308 1.281 . S
C298 O309 1.254 . S
C299 O310 1.236 . S
C299 O311 1.266 . S
O300 Tb280 2.484 . S
O300 C282 1.248 . S
O301 Tb280 2.440 . S
O301 C282 1.266 . S
O302 Tb280 2.658 . S
O302 Tb281 2.325 . S
O302 C289 1.281 . S
O303 Tb280 2.409 . S
O303 C289 1.254 . S
O304 Tb280 2.378 . S
O304 C290 1.236 . S
O305 Tb281 2.341 . S
O305 C290 1.266 . S
O306 Tb281 2.484 . S
O306 C291 1.248 . S
O307 Tb281 2.440 . S
O307 C291 1.266 . S
O308 Tb280 2.325 . S
O308 Tb281 2.658 . S
O308 C298 1.281 . S
O309 Tb281 2.409 . S
O309 C298 1.254 . S
O310 Tb281 2.378 . S
O310 C299 1.236 . S
O311 Tb280 2.341 . S
O311 C299 1.266 . S
H312 C284 0.929 . S
H313 C285 0.931 . S
H314 C287 0.930 . S
H315 C288 0.930 . S
H316 C293 0.929 . S
H317 C294 0.931 . S
H318 C296 0.930 . S
H319 C297 0.930 . S
Tb320 C322 2.809 . S
Tb320 O340 2.484 . S
Tb320 O341 2.440 . S
Tb320 O342 2.658 . S
Tb320 O343 2.409 . S
Tb320 O344 2.378 . S
Tb320 O348 2.325 . S
Tb320 O351 2.341 . S
Tb321 C331 2.809 . S
Tb321 O342 2.325 . S
Tb321 O345 2.341 . S
Tb321 O346 2.484 . S
Tb321 O347 2.440 . S
Tb321 O348 2.658 . S
Tb321 O349 2.409 . S
Tb321 O350 2.378 . S
C322 Tb320 2.809 . S
C322 C323 1.514 . S
C322 O340 1.248 . S
C322 O341 1.266 . S
C323 C322 1.514 . S
C323 C324 1.359 . S
C323 C328 1.348 . S
C324 C323 1.359 . S
C324 C325 1.380 . S
C324 H352 0.929 . S
C325 C324 1.380 . S
C325 C326 1.347 . S
C325 H353 0.931 . S
C326 C325 1.347 . S
C326 C327 1.369 . S
C327 C326 1.369 . S
C327 C328 1.408 . S
C327 H354 0.930 . S
C328 C323 1.348 . S
C328 C327 1.408 . S
C328 H355 0.930 . S
C329 O342 1.281 . S
C329 O343 1.254 . S
C330 O344 1.236 . S
C330 O345 1.266 . S
C331 Tb321 2.809 . S
C331 C332 1.514 . S
C331 O346 1.248 . S
C331 O347 1.266 . S
C332 C331 1.514 . S
C332 C333 1.359 . S
C332 C337 1.348 . S
C333 C332 1.359 . S
C333 C334 1.380 . S
C333 H356 0.929 . S
C334 C333 1.380 . S
C334 C335 1.347 . S
C334 H357 0.931 . S
C335 C334 1.347 . S
C335 C336 1.369 . S
C336 C335 1.369 . S
C336 C337 1.408 . S
C336 H358 0.930 . S
C337 C332 1.348 . S
C337 C336 1.408 . S
C337 H359 0.930 . S
C338 O348 1.281 . S
C338 O349 1.254 . S
C339 O350 1.236 . S
C339 O351 1.266 . S
O340 Tb320 2.484 . S
O340 C322 1.248 . S
O341 Tb320 2.440 . S
O341 C322 1.266 . S
O342 Tb320 2.658 . S
O342 Tb321 2.325 . S
O342 C329 1.281 . S
O343 Tb320 2.409 . S
O343 C329 1.254 . S
O344 Tb320 2.378 . S
O344 C330 1.236 . S
O345 Tb321 2.341 . S
O345 C330 1.266 . S
O346 Tb321 2.484 . S
O346 C331 1.248 . S
O347 Tb321 2.440 . S
O347 C331 1.266 . S
O348 Tb320 2.325 . S
O348 Tb321 2.658 . S
O348 C338 1.281 . S
O349 Tb321 2.409 . S
O349 C338 1.254 . S
O350 Tb321 2.378 . S
O350 C339 1.236 . S
O351 Tb320 2.341 . S
O351 C339 1.266 . S
H352 C324 0.929 . S
H353 C325 0.931 . S
H354 C327 0.930 . S
H355 C328 0.930 . S
H356 C333 0.929 . S
H357 C334 0.931 . S
H358 C336 0.930 . S
H359 C337 0.930 . S
Tb360 C362 2.809 . S
Tb360 O380 2.484 . S
Tb360 O381 2.440 . S
Tb360 O382 2.658 . S
Tb360 O383 2.409 . S
Tb360 O384 2.378 . S
Tb360 O388 2.325 . S
Tb360 O391 2.341 . S
Tb361 C371 2.779 1_545 S
Tb361 O382 2.347 . S
Tb361 O385 2.374 . S
Tb361 O386 2.465 1_545 S
Tb361 O387 2.405 1_545 S
Tb361 O388 2.671 . S
Tb361 O389 2.396 1_545 S
Tb361 O390 2.360 1_545 S
C362 Tb360 2.809 . S
C362 C363 1.514 . S
C362 O380 1.248 . S
C362 O381 1.266 . S
C363 C362 1.514 . S
C363 C364 1.359 . S
C363 C368 1.348 . S
C364 C363 1.359 . S
C364 C365 1.380 . S
C364 H392 0.929 . S
C365 C364 1.380 . S
C365 C366 1.347 . S
C365 H393 0.931 . S
C366 C365 1.347 . S
C366 C367 1.369 . S
C367 C366 1.369 . S
C367 C368 1.408 . S
C367 H394 0.930 . S
C368 C363 1.348 . S
C368 C367 1.408 . S
C368 H395 0.930 . S
C369 O382 1.281 . S
C369 O383 1.254 . S
C370 O384 1.236 . S
C370 O385 1.266 . S
C371 Tb361 2.779 1_565 S
C371 C372 1.514 . S
C371 O386 1.248 . S
C371 O387 1.266 . S
C372 C371 1.514 . S
C372 C373 1.359 . S
C372 C377 1.348 . S
C373 C372 1.359 . S
C373 C374 1.380 . S
C373 H396 0.929 . S
C374 C373 1.380 . S
C374 C375 1.347 . S
C374 H397 0.931 . S
C375 C374 1.347 . S
C375 C376 1.369 . S
C376 C375 1.369 . S
C376 C377 1.408 . S
C376 H398 0.930 . S
C377 C372 1.348 . S
C377 C376 1.408 . S
C377 H399 0.930 . S
C378 O388 1.281 1_565 S
C378 O389 1.254 . S
C379 O390 1.236 . S
C379 O391 1.266 1_565 S
O380 Tb360 2.484 . S
O380 C362 1.248 . S
O381 Tb360 2.440 . S
O381 C362 1.266 . S
O382 Tb360 2.658 . S
O382 Tb361 2.347 . S
O382 C369 1.281 . S
O383 Tb360 2.409 . S
O383 C369 1.254 . S
O384 Tb360 2.378 . S
O384 C370 1.236 . S
O385 Tb361 2.374 . S
O385 C370 1.266 . S
O386 Tb361 2.465 1_565 S
O386 C371 1.248 . S
O387 Tb361 2.405 1_565 S
O387 C371 1.266 . S
O388 Tb360 2.325 . S
O388 Tb361 2.671 . S
O388 C378 1.281 1_545 S
O389 Tb361 2.396 1_565 S
O389 C378 1.254 . S
O390 Tb361 2.360 1_565 S
O390 C379 1.236 . S
O391 Tb360 2.341 . S
O391 C379 1.266 1_545 S
H392 C364 0.929 . S
H393 C365 0.931 . S
H394 C367 0.930 . S
H395 C368 0.930 . S
H396 C373 0.929 . S
H397 C374 0.931 . S
H398 C376 0.930 . S
H399 C377 0.930 . S
Tb400 C402 2.809 . S
Tb400 O420 2.484 . S
Tb400 O421 2.440 . S
Tb400 O422 2.658 . S
Tb400 O423 2.409 . S
Tb400 O424 2.378 . S
Tb400 O428 2.325 . S
Tb400 O431 2.341 1_565 S
Tb401 C411 2.809 . S
Tb401 O422 2.325 1_545 S
Tb401 O425 2.341 1_545 S
Tb401 O426 2.484 . S
Tb401 O427 2.440 . S
Tb401 O428 2.658 1_545 S
Tb401 O429 2.409 . S
Tb401 O430 2.378 . S
C402 Tb400 2.809 . S
C402 C403 1.514 . S
C402 O420 1.248 . S
C402 O421 1.266 . S
C403 C402 1.514 . S
C403 C404 1.359 . S
C403 C408 1.348 . S
C404 C403 1.359 . S
C404 C405 1.380 . S
C404 H432 0.929 . S
C405 C404 1.380 . S
C405 C406 1.347 . S
C405 H433 0.931 . S
C406 C405 1.347 . S
C406 C407 1.369 . S
C407 C406 1.369 . S
C407 C408 1.408 . S
C407 H434 0.930 . S
C408 C403 1.348 . S
C408 C407 1.408 . S
C408 H435 0.930 . S
C409 O422 1.281 . S
C409 O423 1.254 . S
C410 O424 1.236 . S
C410 O425 1.266 . S
C411 Tb401 2.809 . S
C411 C412 1.514 . S
C411 O426 1.248 . S
C411 O427 1.266 . S
C412 C411 1.514 . S
C412 C413 1.359 . S
C412 C417 1.348 . S
C413 C412 1.359 . S
C413 C414 1.380 . S
C413 H436 0.929 . S
C414 C413 1.380 . S
C414 C415 1.347 . S
C414 H437 0.931 . S
C415 C414 1.347 . S
C415 C416 1.369 . S
C416 C415 1.369 . S
C416 C417 1.408 . S
C416 H438 0.930 . S
C417 C412 1.348 . S
C417 C416 1.408 . S
C417 H439 0.930 . S
C418 O428 1.281 1_545 S
C418 O429 1.254 . S
C419 O430 1.236 . S
C419 O431 1.266 . S
O420 Tb400 2.484 . S
O420 C402 1.248 . S
O421 Tb400 2.440 . S
O421 C402 1.266 . S
O422 Tb400 2.658 . S
O422 Tb401 2.325 1_565 S
O422 C409 1.281 . S
O423 Tb400 2.409 . S
O423 C409 1.254 . S
O424 Tb400 2.378 . S
O424 C410 1.236 . S
O425 Tb401 2.341 1_565 S
O425 C410 1.266 . S
O426 Tb401 2.484 . S
O426 C411 1.248 . S
O427 Tb401 2.440 . S
O427 C411 1.266 . S
O428 Tb400 2.325 . S
O428 Tb401 2.658 1_565 S
O428 C418 1.281 1_565 S
O429 Tb401 2.409 . S
O429 C418 1.254 . S
O430 Tb401 2.378 . S
O430 C419 1.236 . S
O431 Tb400 2.341 1_545 S
O431 C419 1.266 . S
H432 C404 0.929 . S
H433 C405 0.931 . S
H434 C407 0.930 . S
H435 C408 0.930 . S
H436 C413 0.929 . S
H437 C414 0.931 . S
H438 C416 0.930 . S
H439 C417 0.930 . S
Tb440 C442 2.809 . S
Tb440 O460 2.484 . S
Tb440 O461 2.440 . S
Tb440 O462 2.658 . S
Tb440 O463 2.409 . S
Tb440 O464 2.378 . S
Tb440 O468 2.325 . S
Tb440 O471 2.341 . S
Tb441 C451 2.809 . S
Tb441 O462 2.325 . S
Tb441 O465 2.341 . S
Tb441 O466 2.484 . S
Tb441 O467 2.440 . S
Tb441 O468 2.658 . S
Tb441 O469 2.409 . S
Tb441 O470 2.378 . S
C442 Tb440 2.809 . S
C442 C443 1.514 . S
C442 O460 1.248 . S
C442 O461 1.266 . S
C443 C442 1.514 . S
C443 C444 1.359 . S
C443 C448 1.348 . S
C444 C443 1.359 . S
C444 C445 1.380 . S
C444 H472 0.929 . S
C445 C444 1.380 . S
C445 C446 1.347 . S
C445 H473 0.931 . S
C446 C445 1.347 . S
C446 C447 1.369 . S
C447 C446 1.369 . S
C447 C448 1.408 . S
C447 H474 0.930 . S
C448 C443 1.348 . S
C448 C447 1.408 . S
C448 H475 0.930 . S
C449 O462 1.281 . S
C449 O463 1.254 . S
C450 O464 1.236 . S
C450 O465 1.266 . S
C451 Tb441 2.809 . S
C451 C452 1.514 . S
C451 O466 1.248 . S
C451 O467 1.266 . S
C452 C451 1.514 . S
C452 C453 1.359 . S
C452 C457 1.348 . S
C453 C452 1.359 . S
C453 C454 1.380 . S
C453 H476 0.929 . S
C454 C453 1.380 . S
C454 C455 1.347 . S
C454 H477 0.931 . S
C455 C454 1.347 . S
C455 C456 1.369 . S
C456 C455 1.369 . S
C456 C457 1.408 . S
C456 H478 0.930 . S
C457 C452 1.348 . S
C457 C456 1.408 . S
C457 H479 0.930 . S
C458 O468 1.281 . S
C458 O469 1.254 . S
C459 O470 1.236 . S
C459 O471 1.266 . S
O460 Tb440 2.484 . S
O460 C442 1.248 . S
O461 Tb440 2.440 . S
O461 C442 1.266 . S
O462 Tb440 2.658 . S
O462 Tb441 2.325 . S
O462 C449 1.281 . S
O463 Tb440 2.409 . S
O463 C449 1.254 . S
O464 Tb440 2.378 . S
O464 C450 1.236 . S
O465 Tb441 2.341 . S
O465 C450 1.266 . S
O466 Tb441 2.484 . S
O466 C451 1.248 . S
O467 Tb441 2.440 . S
O467 C451 1.266 . S
O468 Tb440 2.325 . S
O468 Tb441 2.658 . S
O468 C458 1.281 . S
O469 Tb441 2.409 . S
O469 C458 1.254 . S
O470 Tb441 2.378 . S
O470 C459 1.236 . S
O471 Tb440 2.341 . S
O471 C459 1.266 . S
H472 C444 0.929 . S
H473 C445 0.931 . S
H474 C447 0.930 . S
H475 C448 0.930 . S
H476 C453 0.929 . S
H477 C454 0.931 . S
H478 C456 0.930 . S
H479 C457 0.930 . S
H480 C486 0.930 . S
H481 C490 0.930 . S
H482 C495 0.929 . S
H483 C493 0.929 . S
H484 C488 0.929 . S
H485 C494 0.929 . S
C486 H480 0.930 . S
C486 C487 1.367 . S
C486 C494 1.378 . S
C487 C486 1.367 . S
C487 C495 1.433 . S
C488 H484 0.929 . S
C488 C490 1.378 . S
C488 C492 1.350 . S
C489 C492 1.463 . S
C489 C494 1.350 . S
C489 N497 1.427 . S
C490 H481 0.930 . S
C490 C488 1.378 . S
C490 C491 1.367 . S
C491 C490 1.367 . S
C491 C493 1.433 . S
C492 C488 1.350 . S
C492 C489 1.463 . S
C492 N496 1.427 . S
C493 H483 0.929 . S
C493 C491 1.433 . S
C493 N496 1.384 . S
C494 H485 0.929 . S
C494 C486 1.378 . S
C494 C489 1.350 . S
C495 H482 0.929 . S
C495 C487 1.433 . S
C495 N497 1.384 . S
N496 C492 1.427 . S
N496 C493 1.384 . S
N497 C489 1.427 . S
N497 C495 1.384 . S
H498 C504 0.930 1_545 S
H499 C508 0.930 . S
H500 C513 0.929 . S
H501 C511 0.929 . S
H502 C506 0.929 . S
H503 C512 0.929 . S
C504 H498 0.930 1_565 S
C504 C505 1.367 . S
C504 C512 1.378 . S
C505 C504 1.367 . S
C505 C513 1.433 . S
C506 H502 0.929 . S
C506 C508 1.378 . S
C506 C510 1.350 . S
C507 C510 1.463 . S
C507 C512 1.350 . S
C507 N515 1.427 . S
C508 H499 0.930 . S
C508 C506 1.378 . S
C508 C509 1.367 . S
C509 C508 1.367 . S
C509 C511 1.433 . S
C510 C506 1.350 . S
C510 C507 1.463 . S
C510 N514 1.427 . S
C511 H501 0.929 . S
C511 C509 1.433 . S
C511 N514 1.384 . S
C512 H503 0.929 . S
C512 C504 1.378 . S
C512 C507 1.350 . S
C513 H500 0.929 . S
C513 C505 1.433 . S
C513 N515 1.384 . S
N514 C510 1.427 . S
N514 C511 1.384 . S
N515 C507 1.427 . S
N515 C513 1.384 . S
H516 C522 0.930 1_556 S
H517 C526 0.930 . S
H518 C531 0.929 . S
H519 C529 0.929 . S
H520 C524 0.929 . S
H521 C530 0.929 . S
C522 H516 0.930 1_554 S
C522 C523 1.367 . S
C522 C530 1.378 . S
C523 C522 1.367 . S
C523 C531 1.433 . S
C524 H520 0.929 . S
C524 C526 1.378 . S
C524 C528 1.350 . S
C525 C528 1.463 . S
C525 C530 1.350 . S
C525 N533 1.427 . S
C526 H517 0.930 . S
C526 C524 1.378 . S
C526 C527 1.367 . S
C527 C526 1.367 . S
C527 C529 1.433 . S
C528 C524 1.350 . S
C528 C525 1.463 . S
C528 N532 1.427 . S
C529 H519 0.929 . S
C529 C527 1.433 . S
C529 N532 1.384 . S
C530 H521 0.929 . S
C530 C522 1.378 . S
C530 C525 1.350 . S
C531 H518 0.929 . S
C531 C523 1.433 . S
C531 N533 1.384 . S
N532 C528 1.427 . S
N532 C529 1.384 . S
N533 C525 1.427 . S
N533 C531 1.384 . S
H534 C540 0.930 . S
H535 C544 0.930 . S
H536 C549 0.929 . S
H537 C547 0.929 1_565 S
H538 C542 0.929 . S
H539 C548 0.929 . S
C540 H534 0.930 . S
C540 C541 1.367 . S
C540 C548 1.378 . S
C541 C540 1.367 . S
C541 C549 1.433 . S
C542 H538 0.929 . S
C542 C544 1.378 . S
C542 C546 1.350 . S
C543 C546 1.463 . S
C543 C548 1.350 . S
C543 N551 1.427 . S
C544 H535 0.930 . S
C544 C542 1.378 . S
C544 C545 1.367 . S
C545 C544 1.367 . S
C545 C547 1.433 . S
C546 C542 1.350 . S
C546 C543 1.463 . S
C546 N550 1.427 . S
C547 H537 0.929 1_545 S
C547 C545 1.433 . S
C547 N550 1.384 . S
C548 H539 0.929 . S
C548 C540 1.378 . S
C548 C543 1.350 . S
C549 H536 0.929 . S
C549 C541 1.433 . S
C549 N551 1.384 . S
N550 C546 1.427 . S
N550 C547 1.384 . S
N551 C543 1.427 . S
N551 C549 1.384 . S
H552 C558 0.930 . S
H553 C562 0.930 . S
H554 C567 0.929 . S
H555 C565 0.929 . S
H556 C560 0.929 . S
H557 C566 0.929 . S
C558 H552 0.930 . S
C558 C559 1.367 . S
C558 C566 1.378 . S
C559 C558 1.367 . S
C559 C567 1.433 . S
C560 H556 0.929 . S
C560 C562 1.378 . S
C560 C564 1.350 . S
C561 C564 1.463 . S
C561 C566 1.350 . S
C561 N569 1.427 . S
C562 H553 0.930 . S
C562 C560 1.378 . S
C562 C563 1.367 . S
C563 C562 1.367 . S
C563 C565 1.433 . S
C564 C560 1.350 . S
C564 C561 1.463 . S
C564 N568 1.427 . S
C565 H555 0.929 . S
C565 C563 1.433 . S
C565 N568 1.384 . S
C566 H557 0.929 . S
C566 C558 1.378 . S
C566 C561 1.350 . S
C567 H554 0.929 . S
C567 C559 1.433 . S
C567 N569 1.384 . S
N568 C564 1.427 . S
N568 C565 1.384 . S
N569 C561 1.427 . S
N569 C567 1.384 . S
H570 C576 0.930 . S
H571 C580 0.930 . S
H572 C585 0.929 . S
H573 C583 0.929 . S
H574 C578 0.929 . S
H575 C584 0.929 . S
C576 H570 0.930 . S
C576 C577 1.367 . S
C576 C584 1.378 . S
C577 C576 1.367 . S
C577 C585 1.433 . S
C578 H574 0.929 . S
C578 C580 1.378 . S
C578 C582 1.350 . S
C579 C582 1.463 . S
C579 C584 1.350 . S
C579 N587 1.427 . S
C580 H571 0.930 . S
C580 C578 1.378 . S
C580 C581 1.367 . S
C581 C580 1.367 . S
C581 C583 1.433 . S
C582 C578 1.350 . S
C582 C579 1.463 . S
C582 N586 1.427 . S
C583 H573 0.929 . S
C583 C581 1.433 . S
C583 N586 1.384 . S
C584 H575 0.929 . S
C584 C576 1.378 . S
C584 C579 1.350 . S
C585 H572 0.929 . S
C585 C577 1.433 . S
C585 N587 1.384 . S
N586 C582 1.427 . S
N586 C583 1.384 . S
N587 C579 1.427 . S
N587 C585 1.384 . S
H588 C594 0.930 . S
H589 C598 0.930 . S
H590 C603 0.929 . S
H591 C601 0.929 . S
H592 C596 0.929 1_554 S
H593 C602 0.929 . S
C594 H588 0.930 . S
C594 C595 1.367 . S
C594 C602 1.378 . S
C595 C594 1.367 . S
C595 C603 1.433 . S
C596 H592 0.929 1_556 S
C596 C598 1.378 1_556 S
C596 C600 1.350 . S
C597 C600 1.463 . S
C597 C602 1.350 . S
C597 N605 1.427 . S
C598 H589 0.930 . S
C598 C596 1.378 1_554 S
C598 C599 1.367 1_554 S
C599 C598 1.367 1_556 S
C599 C601 1.433 . S
C600 C596 1.350 . S
C600 C597 1.463 . S
C600 N604 1.427 . S
C601 H591 0.929 . S
C601 C599 1.433 . S
C601 N604 1.384 . S
C602 H593 0.929 . S
C602 C594 1.378 . S
C602 C597 1.350 . S
C603 H590 0.929 . S
C603 C595 1.433 . S
C603 N605 1.384 . S
N604 C600 1.427 . S
N604 C601 1.384 . S
N605 C597 1.427 . S
N605 C603 1.384 . S
H606 C612 0.930 . S
H607 C616 0.930 . S
H608 C621 0.929 . S
H609 C619 0.929 . S
H610 C614 0.929 . S
H611 C620 0.929 . S
C612 H606 0.930 . S
C612 C613 1.367 . S
C612 C620 1.378 . S
C613 C612 1.367 . S
C613 C621 1.433 . S
C614 H610 0.929 . S
C614 C616 1.378 . S
C614 C618 1.350 . S
C615 C618 1.463 . S
C615 C620 1.350 . S
C615 N623 1.427 . S
C616 H607 0.930 . S
C616 C614 1.378 . S
C616 C617 1.367 . S
C617 C616 1.367 . S
C617 C619 1.433 . S
C618 C614 1.350 . S
C618 C615 1.463 . S
C618 N622 1.427 . S
C619 H609 0.929 . S
C619 C617 1.433 . S
C619 N622 1.384 . S
C620 H611 0.929 . S
C620 C612 1.378 . S
C620 C615 1.350 . S
C621 H608 0.929 . S
C621 C613 1.433 . S
C621 N623 1.384 . S
N622 C618 1.427 . S
N622 C619 1.384 . S
N623 C615 1.427 . S
N623 C621 1.384 . S
H624 C630 0.930 . S
H625 C634 0.930 . S
H626 C639 0.929 . S
H627 C637 0.929 . S
H628 C632 0.929 . S
H629 C638 0.929 . S
C630 H624 0.930 . S
C630 C631 1.367 . S
C630 C638 1.378 . S
C631 C630 1.367 . S
C631 C639 1.433 . S
C632 H628 0.929 . S
C632 C634 1.378 . S
C632 C636 1.350 . S
C633 C636 1.463 . S
C633 C638 1.350 . S
C633 N641 1.427 . S
C634 H625 0.930 . S
C634 C632 1.378 . S
C634 C635 1.367 . S
C635 C634 1.367 . S
C635 C637 1.433 . S
C636 C632 1.350 . S
C636 C633 1.463 . S
C636 N640 1.427 . S
C637 H627 0.929 . S
C637 C635 1.433 . S
C637 N640 1.384 . S
C638 H629 0.929 . S
C638 C630 1.378 . S
C638 C633 1.350 . S
C639 H626 0.929 . S
C639 C631 1.433 . S
C639 N641 1.384 . S
N640 C636 1.427 . S
N640 C637 1.384 . S
N641 C633 1.427 . S
N641 C639 1.384 . S
H642 C648 0.930 . S
H643 C652 0.930 . S
H644 C657 0.929 . S
H645 C655 0.929 . S
H646 C650 0.929 . S
H647 C656 0.929 . S
C648 H642 0.930 . S
C648 C649 1.367 . S
C648 C656 1.378 . S
C649 C648 1.367 . S
C649 C657 1.433 . S
C650 H646 0.929 . S
C650 C652 1.378 . S
C650 C654 1.350 . S
C651 C654 1.463 . S
C651 C656 1.350 . S
C651 N659 1.427 . S
C652 H643 0.930 . S
C652 C650 1.378 . S
C652 C653 1.367 . S
C653 C652 1.367 . S
C653 C655 1.433 . S
C654 C650 1.350 . S
C654 C651 1.463 . S
C654 N658 1.427 . S
C655 H645 0.929 . S
C655 C653 1.433 . S
C655 N658 1.384 . S
C656 H647 0.929 . S
C656 C648 1.378 . S
C656 C651 1.350 . S
C657 H644 0.929 . S
C657 C649 1.433 . S
C657 N659 1.384 . S
N658 C654 1.427 . S
N658 C655 1.384 . S
N659 C651 1.427 . S
N659 C657 1.384 . S
H660 C666 0.930 1_455 S
H661 C670 0.930 . S
H662 C675 0.929 . S
H663 C673 0.929 . S
H664 C668 0.929 . S
H665 C674 0.929 . S
C666 H660 0.930 1_655 S
C666 C667 1.367 . S
C666 C674 1.378 . S
C667 C666 1.367 . S
C667 C675 1.433 . S
C668 H664 0.929 . S
C668 C670 1.378 . S
C668 C672 1.350 . S
C669 C672 1.463 . S
C669 C674 1.350 . S
C669 N677 1.427 . S
C670 H661 0.930 . S
C670 C668 1.378 . S
C670 C671 1.367 . S
C671 C670 1.367 . S
C671 C673 1.433 . S
C672 C668 1.350 . S
C672 C669 1.463 . S
C672 N676 1.427 . S
C673 H663 0.929 . S
C673 C671 1.433 . S
C673 N676 1.384 . S
C674 H665 0.929 . S
C674 C666 1.378 . S
C674 C669 1.350 . S
C675 H662 0.929 . S
C675 C667 1.433 . S
C675 N677 1.384 . S
N676 C672 1.427 . S
N676 C673 1.384 . S
N677 C669 1.427 . S
N677 C675 1.384 . S
H678 C684 0.930 . S
H679 C688 0.930 . S
H680 C693 0.929 . S
H681 C691 0.929 . S
H682 C686 0.929 . S
H683 C692 0.929 . S
C684 H678 0.930 . S
C684 C685 1.367 . S
C684 C692 1.378 . S
C685 C684 1.367 . S
C685 C693 1.433 . S
C686 H682 0.929 . S
C686 C688 1.378 . S
C686 C690 1.350 . S
C687 C690 1.463 . S
C687 C692 1.350 . S
C687 N695 1.427 . S
C688 H679 0.930 . S
C688 C686 1.378 . S
C688 C689 1.367 . S
C689 C688 1.367 . S
C689 C691 1.433 . S
C690 C686 1.350 . S
C690 C687 1.463 . S
C690 N694 1.427 . S
C691 H681 0.929 . S
C691 C689 1.433 . S
C691 N694 1.384 . S
C692 H683 0.929 . S
C692 C684 1.378 . S
C692 C687 1.350 . S
C693 H680 0.929 . S
C693 C685 1.433 . S
C693 N695 1.384 . S
N694 C690 1.427 . S
N694 C691 1.384 . S
N695 C687 1.427 . S
N695 C693 1.384 . S
H696 C702 0.930 . S
H697 C706 0.930 . S
H698 C711 0.929 . S
H699 C709 0.929 . S
H700 C704 0.929 . S
H701 C710 0.929 . S
C702 H696 0.930 . S
C702 C703 1.367 . S
C702 C710 1.378 . S
C703 C702 1.367 . S
C703 C711 1.433 . S
C704 H700 0.929 . S
C704 C706 1.378 . S
C704 C708 1.350 . S
C705 C708 1.463 . S
C705 C710 1.350 . S
C705 N713 1.427 . S
C706 H697 0.930 . S
C706 C704 1.378 . S
C706 C707 1.367 . S
C707 C706 1.367 . S
C707 C709 1.433 . S
C708 C704 1.350 . S
C708 C705 1.463 . S
C708 N712 1.427 . S
C709 H699 0.929 . S
C709 C707 1.433 . S
C709 N712 1.384 . S
C710 H701 0.929 . S
C710 C702 1.378 . S
C710 C705 1.350 . S
C711 H698 0.929 . S
C711 C703 1.433 . S
C711 N713 1.384 . S
N712 C708 1.427 . S
N712 C709 1.384 . S
N713 C705 1.427 . S
N713 C711 1.384 . S
H714 C720 0.930 . S
H715 C724 0.930 . S
H716 C729 0.929 . S
H717 C727 0.929 . S
H718 C722 0.929 . S
H719 C728 0.929 . S
C720 H714 0.930 . S
C720 C721 1.367 . S
C720 C728 1.378 . S
C721 C720 1.367 . S
C721 C729 1.433 . S
C722 H718 0.929 . S
C722 C724 1.378 . S
C722 C726 1.350 . S
C723 C726 1.463 . S
C723 C728 1.350 . S
C723 N731 1.427 . S
C724 H715 0.930 . S
C724 C722 1.378 . S
C724 C725 1.367 . S
C725 C724 1.367 . S
C725 C727 1.433 . S
C726 C722 1.350 . S
C726 C723 1.463 . S
C726 N730 1.427 . S
C727 H717 0.929 . S
C727 C725 1.433 . S
C727 N730 1.384 . S
C728 H719 0.929 . S
C728 C720 1.378 . S
C728 C723 1.350 . S
C729 H716 0.929 . S
C729 C721 1.433 . S
C729 N731 1.384 . S
N730 C726 1.427 . S
N730 C727 1.384 . S
N731 C723 1.427 . S
N731 C729 1.384 . S
H732 C738 0.930 . S
H733 C742 0.930 . S
H734 C747 0.929 . S
H735 C745 0.929 . S
H736 C740 0.929 . S
H737 C746 0.929 . S
C738 H732 0.930 . S
C738 C739 1.367 . S
C738 C746 1.378 . S
C739 C738 1.367 . S
C739 C747 1.433 . S
C740 H736 0.929 . S
C740 C742 1.378 . S
C740 C744 1.350 . S
C741 C744 1.463 . S
C741 C746 1.350 . S
C741 N749 1.427 . S
C742 H733 0.930 . S
C742 C740 1.378 . S
C742 C743 1.367 . S
C743 C742 1.367 . S
C743 C745 1.433 . S
C744 C740 1.350 . S
C744 C741 1.463 . S
C744 N748 1.427 . S
C745 H735 0.929 . S
C745 C743 1.433 . S
C745 N748 1.384 . S
C746 H737 0.929 . S
C746 C738 1.378 . S
C746 C741 1.350 . S
C747 H734 0.929 . S
C747 C739 1.433 . S
C747 N749 1.384 . S
N748 C744 1.427 . S
N748 C745 1.384 . S
N749 C741 1.427 . S
N749 C747 1.384 . S
H750 C756 0.930 . S
H751 C760 0.930 . S
H752 C765 0.929 . S
H753 C763 0.929 . S
H754 C758 0.929 . S
H755 C764 0.929 . S
C756 H750 0.930 . S
C756 C757 1.367 . S
C756 C764 1.378 . S
C757 C756 1.367 . S
C757 C765 1.433 . S
C758 H754 0.929 . S
C758 C760 1.378 1_554 S
C758 C762 1.350 . S
C759 C762 1.463 . S
C759 C764 1.350 . S
C759 N767 1.427 . S
C760 H751 0.930 . S
C760 C758 1.378 1_556 S
C760 C761 1.367 . S
C761 C760 1.367 . S
C761 C763 1.433 . S
C762 C758 1.350 . S
C762 C759 1.463 . S
C762 N766 1.427 1_554 S
C763 H753 0.929 . S
C763 C761 1.433 . S
C763 N766 1.384 . S
C764 H755 0.929 . S
C764 C756 1.378 . S
C764 C759 1.350 . S
C765 H752 0.929 . S
C765 C757 1.433 . S
C765 N767 1.384 . S
N766 C762 1.427 1_556 S
N766 C763 1.384 . S
N767 C759 1.427 . S
N767 C765 1.384 . S
H768 C774 0.930 . S
H769 C778 0.930 . S
H770 C783 0.929 . S
H771 C781 0.929 . S
H772 C776 0.929 . S
H773 C782 0.929 . S
C774 H768 0.930 . S
C774 C775 1.367 . S
C774 C782 1.378 . S
C775 C774 1.367 . S
C775 C783 1.433 . S
C776 H772 0.929 . S
C776 C778 1.378 . S
C776 C780 1.350 . S
C777 C780 1.463 . S
C777 C782 1.350 . S
C777 N785 1.427 . S
C778 H769 0.930 . S
C778 C776 1.378 . S
C778 C779 1.367 . S
C779 C778 1.367 . S
C779 C781 1.433 . S
C780 C776 1.350 . S
C780 C777 1.463 . S
C780 N784 1.427 . S
C781 H771 0.929 . S
C781 C779 1.433 . S
C781 N784 1.384 . S
C782 H773 0.929 . S
C782 C774 1.378 . S
C782 C777 1.350 . S
C783 H770 0.929 . S
C783 C775 1.433 . S
C783 N785 1.384 . S
N784 C780 1.427 . S
N784 C781 1.384 . S
N785 C777 1.427 . S
N785 C783 1.384 . S
H786 C792 0.930 . S
H787 C796 0.930 . S
H788 C801 0.929 . S
H789 C799 0.929 . S
H790 C794 0.929 . S
H791 C800 0.929 . S
C792 H786 0.930 . S
C792 C793 1.367 . S
C792 C800 1.378 . S
C793 C792 1.367 . S
C793 C801 1.433 . S
C794 H790 0.929 . S
C794 C796 1.378 . S
C794 C798 1.350 . S
C795 C798 1.463 1_554 S
C795 C800 1.350 . S
C795 N803 1.427 . S
C796 H787 0.930 . S
C796 C794 1.378 . S
C796 C797 1.367 . S
C797 C796 1.367 . S
C797 C799 1.433 . S
C798 C794 1.350 . S
C798 C795 1.463 1_556 S
C798 N802 1.427 . S
C799 H789 0.929 . S
C799 C797 1.433 . S
C799 N802 1.384 . S
C800 H791 0.929 . S
C800 C792 1.378 . S
C800 C795 1.350 . S
C801 H788 0.929 . S
C801 C793 1.433 . S
C801 N803 1.384 . S
N802 C798 1.427 . S
N802 C799 1.384 . S
N803 C795 1.427 . S
N803 C801 1.384 . S
H804 C810 0.930 . S
H805 C814 0.930 . S
H806 C819 0.929 . S
H807 C817 0.929 . S
H808 C812 0.929 . S
H809 C818 0.929 . S
C810 H804 0.930 . S
C810 C811 1.367 . S
C810 C818 1.378 . S
C811 C810 1.367 . S
C811 C819 1.433 . S
C812 H808 0.929 . S
C812 C814 1.378 . S
C812 C816 1.350 . S
C813 C816 1.463 . S
C813 C818 1.350 . S
C813 N821 1.427 . S
C814 H805 0.930 . S
C814 C812 1.378 . S
C814 C815 1.367 . S
C815 C814 1.367 . S
C815 C817 1.433 . S
C816 C812 1.350 . S
C816 C813 1.463 . S
C816 N820 1.427 . S
C817 H807 0.929 . S
C817 C815 1.433 . S
C817 N820 1.384 . S
C818 H809 0.929 . S
C818 C810 1.378 . S
C818 C813 1.350 . S
C819 H806 0.929 . S
C819 C811 1.433 . S
C819 N821 1.384 . S
N820 C816 1.427 . S
N820 C817 1.384 . S
N821 C813 1.427 . S
N821 C819 1.384 . S
H822 C828 0.930 . S
H823 C832 0.930 . S
H824 C837 0.929 . S
H825 C835 0.929 . S
H826 C830 0.929 . S
H827 C836 0.929 . S
C828 H822 0.930 . S
C828 C829 1.367 . S
C828 C836 1.378 . S
C829 C828 1.367 . S
C829 C837 1.433 . S
C830 H826 0.929 . S
C830 C832 1.378 . S
C830 C834 1.350 . S
C831 C834 1.463 . S
C831 C836 1.350 . S
C831 N839 1.427 . S
C832 H823 0.930 . S
C832 C830 1.378 . S
C832 C833 1.367 . S
C833 C832 1.367 . S
C833 C835 1.433 . S
C834 C830 1.350 . S
C834 C831 1.463 . S
C834 N838 1.427 . S
C835 H825 0.929 . S
C835 C833 1.433 . S
C835 N838 1.384 . S
C836 H827 0.929 . S
C836 C828 1.378 . S
C836 C831 1.350 . S
C837 H824 0.929 . S
C837 C829 1.433 . S
C837 N839 1.384 . S
N838 C834 1.427 . S
N838 C835 1.384 . S
N839 C831 1.427 . S
N839 C837 1.384 . S
H840 C846 0.930 . S
H841 C850 0.930 . S
H842 C855 0.929 . S
H843 C853 0.929 . S
H844 C848 0.929 . S
H845 C854 0.929 . S
C846 H840 0.930 . S
C846 C847 1.367 . S
C846 C854 1.378 . S
C847 C846 1.367 . S
C847 C855 1.433 . S
C848 H844 0.929 . S
C848 C850 1.378 . S
C848 C852 1.350 . S
C849 C852 1.463 . S
C849 C854 1.350 . S
C849 N857 1.427 . S
C850 H841 0.930 . S
C850 C848 1.378 . S
C850 C851 1.367 . S
C851 C850 1.367 . S
C851 C853 1.433 . S
C852 C848 1.350 . S
C852 C849 1.463 . S
C852 N856 1.427 . S
C853 H843 0.929 . S
C853 C851 1.433 . S
C853 N856 1.384 . S
C854 H845 0.929 . S
C854 C846 1.378 . S
C854 C849 1.350 . S
C855 H842 0.929 . S
C855 C847 1.433 . S
C855 N857 1.384 . S
N856 C852 1.427 . S
N856 C853 1.384 . S
N857 C849 1.427 . S
N857 C855 1.384 . S
H858 C864 0.930 . S
H859 C868 0.930 . S
H860 C873 0.929 . S
H861 C871 0.921 1_655 S
H862 C866 0.929 . S
H863 C872 0.929 . S
C864 H858 0.930 . S
C864 C865 1.367 . S
C864 C872 1.378 . S
C865 C864 1.367 . S
C865 C873 1.433 . S
C866 H862 0.929 . S
C866 C868 1.378 . S
C866 C870 1.350 . S
C867 C870 1.463 1_545 S
C867 C872 1.350 . S
C867 N875 1.427 . S
C868 H859 0.930 . S
C868 C866 1.378 . S
C868 C869 1.367 . S
C869 C868 1.367 . S
C869 C871 1.433 . S
C870 C866 1.350 . S
C870 C867 1.463 1_565 S
C870 N874 1.427 . S
C871 H861 0.921 1_455 S
C871 C869 1.433 . S
C871 N874 1.384 . S
C872 H863 0.929 . S
C872 C864 1.378 . S
C872 C867 1.350 . S
C873 H860 0.929 . S
C873 C865 1.433 . S
C873 N875 1.384 . S
N874 C870 1.427 . S
N874 C871 1.384 . S
N875 C867 1.427 . S
N875 C873 1.384 . S
H876 C882 0.930 . S
H877 C886 0.930 . S
H878 C891 0.929 . S
H879 C889 0.929 . S
H880 C884 0.929 . S
H881 C890 0.929 . S
C882 H876 0.930 . S
C882 C883 1.367 . S
C882 C890 1.378 . S
C883 C882 1.367 . S
C883 C891 1.433 . S
C884 H880 0.929 . S
C884 C886 1.378 . S
C884 C888 1.350 . S
C885 C888 1.463 . S
C885 C890 1.350 . S
C885 N893 1.427 . S
C886 H877 0.930 . S
C886 C884 1.378 . S
C886 C887 1.367 . S
C887 C886 1.367 . S
C887 C889 1.433 . S
C888 C884 1.350 . S
C888 C885 1.463 . S
C888 N892 1.427 . S
C889 H879 0.929 . S
C889 C887 1.433 . S
C889 N892 1.384 . S
C890 H881 0.929 . S
C890 C882 1.378 . S
C890 C885 1.350 . S
C891 H878 0.929 . S
C891 C883 1.433 . S
C891 N893 1.384 . S
N892 C888 1.427 . S
N892 C889 1.384 . S
N893 C885 1.427 . S
N893 C891 1.384 . S
H894 C900 0.930 . S
H895 C904 0.930 . S
H896 C909 0.929 . S
H897 C907 0.929 . S
H898 C902 0.929 . S
H899 C908 0.929 . S
C900 H894 0.930 . S
C900 C901 1.367 . S
C900 C908 1.378 . S
C901 C900 1.367 . S
C901 C909 1.433 . S
C902 H898 0.929 . S
C902 C904 1.378 . S
C902 C906 1.350 . S
C903 C906 1.463 1_545 S
C903 C908 1.350 . S
C903 N911 1.427 . S
C904 H895 0.930 . S
C904 C902 1.378 . S
C904 C905 1.367 . S
C905 C904 1.367 . S
C905 C907 1.433 . S
C906 C902 1.350 . S
C906 C903 1.463 1_565 S
C906 N910 1.427 . S
C907 H897 0.929 . S
C907 C905 1.433 . S
C907 N910 1.384 . S
C908 H899 0.929 . S
C908 C900 1.378 . S
C908 C903 1.350 . S
C909 H896 0.929 . S
C909 C901 1.433 . S
C909 N911 1.384 . S
N910 C906 1.427 . S
N910 C907 1.384 . S
N911 C903 1.427 . S
N911 C909 1.384 . S
H912 C918 0.930 . S
H913 C922 0.930 . S
H914 C927 0.929 . S
H915 C925 0.929 . S
H916 C920 0.929 . S
H917 C926 0.929 . S
C918 H912 0.930 . S
C918 C919 1.367 . S
C918 C926 1.378 . S
C919 C918 1.367 . S
C919 C927 1.433 . S
C920 H916 0.929 . S
C920 C922 1.378 . S
C920 C924 1.350 . S
C921 C924 1.463 . S
C921 C926 1.350 . S
C921 N929 1.427 . S
C922 H913 0.930 . S
C922 C920 1.378 . S
C922 C923 1.367 . S
C923 C922 1.367 . S
C923 C925 1.433 . S
C924 C920 1.350 . S
C924 C921 1.463 . S
C924 N928 1.427 . S
C925 H915 0.929 . S
C925 C923 1.433 . S
C925 N928 1.384 . S
C926 H917 0.929 . S
C926 C918 1.378 . S
C926 C921 1.350 . S
C927 H914 0.929 . S
C927 C919 1.433 . S
C927 N929 1.384 . S
N928 C924 1.427 . S
N928 C925 1.384 . S
N929 C921 1.427 . S
N929 C927 1.384 . S
H930 C936 0.930 . S
H931 C940 0.930 . S
H932 C945 0.929 . S
H933 C943 0.929 . S
H934 C938 0.929 . S
H935 C944 0.929 . S
C936 H930 0.930 . S
C936 C937 1.367 . S
C936 C944 1.378 . S
C937 C936 1.367 . S
C937 C945 1.433 . S
C938 H934 0.929 . S
C938 C940 1.378 . S
C938 C942 1.350 . S
C939 C942 1.463 . S
C939 C944 1.350 . S
C939 N947 1.427 . S
C940 H931 0.930 . S
C940 C938 1.378 . S
C940 C941 1.367 . S
C941 C940 1.367 . S
C941 C943 1.433 . S
C942 C938 1.350 . S
C942 C939 1.463 . S
C942 N946 1.427 . S
C943 H933 0.929 . S
C943 C941 1.433 . S
C943 N946 1.384 . S
C944 H935 0.929 . S
C944 C936 1.378 . S
C944 C939 1.350 . S
C945 H932 0.929 . S
C945 C937 1.433 . S
C945 N947 1.384 . S
N946 C942 1.427 . S
N946 C943 1.384 . S
N947 C939 1.427 . S
N947 C945 1.384 . S
H948 C954 0.930 . S
H949 C958 0.930 . S
H950 C963 0.929 . S
H951 C961 0.929 . S
H952 C956 0.929 . S
H953 C962 0.929 . S
C954 H948 0.930 . S
C954 C955 1.367 . S
C954 C962 1.378 . S
C955 C954 1.367 . S
C955 C963 1.433 . S
C956 H952 0.929 . S
C956 C958 1.378 . S
C956 C960 1.350 . S
C957 C960 1.463 . S
C957 C962 1.350 . S
C957 N965 1.427 . S
C958 H949 0.930 . S
C958 C956 1.378 . S
C958 C959 1.367 . S
C959 C958 1.367 . S
C959 C961 1.433 . S
C960 C956 1.350 . S
C960 C957 1.463 . S
C960 N964 1.427 . S
C961 H951 0.929 . S
C961 C959 1.433 . S
C961 N964 1.384 . S
C962 H953 0.929 . S
C962 C954 1.378 . S
C962 C957 1.350 . S
C963 H950 0.929 . S
C963 C955 1.433 . S
C963 N965 1.384 . S
N964 C960 1.427 . S
N964 C961 1.384 . S
N965 C957 1.427 . S
N965 C963 1.384 . S
H966 C972 0.930 . S
H967 C976 0.930 . S
H968 C981 0.929 . S
H969 C979 0.929 . S
H970 C974 0.929 . S
H971 C980 0.929 . S
C972 H966 0.930 . S
C972 C973 1.367 . S
C972 C980 1.378 . S
C973 C972 1.367 . S
C973 C981 1.433 . S
C974 H970 0.929 . S
C974 C976 1.378 . S
C974 C978 1.350 . S
C975 C978 1.463 . S
C975 C980 1.350 . S
C975 N983 1.427 . S
C976 H967 0.930 . S
C976 C974 1.378 . S
C976 C977 1.367 . S
C977 C976 1.367 . S
C977 C979 1.433 . S
C978 C974 1.350 . S
C978 C975 1.463 . S
C978 N982 1.427 . S
C979 H969 0.929 . S
C979 C977 1.433 . S
C979 N982 1.384 . S
C980 H971 0.929 . S
C980 C972 1.378 . S
C980 C975 1.350 . S
C981 H968 0.929 . S
C981 C973 1.433 . S
C981 N983 1.384 . S
N982 C978 1.427 . S
N982 C979 1.384 . S
N983 C975 1.427 . S
N983 C981 1.384 . S
H984 C990 0.930 . S
H985 C994 0.930 . S
H986 C999 0.929 . S
H987 C997 0.929 . S
H988 C992 0.929 . S
H989 C998 0.929 . S
C990 H984 0.930 . S
C990 C991 1.367 . S
C990 C998 1.378 . S
C991 C990 1.367 . S
C991 C999 1.433 . S
C992 H988 0.929 . S
C992 C994 1.378 . S
C992 C996 1.350 . S
C993 C996 1.463 . S
C993 C998 1.350 . S
C993 N1001 1.427 . S
C994 H985 0.930 . S
C994 C992 1.378 . S
C994 C995 1.367 . S
C995 C994 1.367 . S
C995 C997 1.433 . S
C996 C992 1.350 . S
C996 C993 1.463 . S
C996 N1000 1.427 . S
C997 H987 0.929 . S
C997 C995 1.433 . S
C997 N1000 1.384 . S
C998 H989 0.929 . S
C998 C990 1.378 . S
C998 C993 1.350 . S
C999 H986 0.929 . S
C999 C991 1.433 . S
C999 N1001 1.384 . S
N1000 C996 1.427 . S
N1000 C997 1.384 . S
N1001 C993 1.427 . S
N1001 C999 1.384 . S
H1002 C1008 0.930 . S
H1003 C1012 0.930 . S
H1004 C1017 0.929 . S
H1005 C1015 0.929 . S
H1006 C1010 0.929 . S
H1007 C1016 0.929 . S
C1008 H1002 0.930 . S
C1008 C1009 1.367 . S
C1008 C1016 1.378 . S
C1009 C1008 1.367 . S
C1009 C1017 1.433 . S
C1010 H1006 0.929 . S
C1010 C1012 1.378 . S
C1010 C1014 1.350 . S
C1011 C1014 1.463 . S
C1011 C1016 1.350 . S
C1011 N1019 1.427 . S
C1012 H1003 0.930 . S
C1012 C1010 1.378 . S
C1012 C1013 1.367 . S
C1013 C1012 1.367 . S
C1013 C1015 1.433 . S
C1014 C1010 1.350 . S
C1014 C1011 1.463 . S
C1014 N1018 1.427 . S
C1015 H1005 0.929 . S
C1015 C1013 1.433 . S
C1015 N1018 1.384 . S
C1016 H1007 0.929 . S
C1016 C1008 1.378 . S
C1016 C1011 1.350 . S
C1017 H1004 0.929 . S
C1017 C1009 1.433 . S
C1017 N1019 1.384 . S
N1018 C1014 1.427 . S
N1018 C1015 1.384 . S
N1019 C1011 1.427 . S
N1019 C1017 1.384 . S
H1020 C1026 0.930 . S
H1021 C1030 0.930 . S
H1022 C1035 0.929 . S
H1023 C1033 0.929 . S
H1024 C1028 0.929 1_455 S
H1025 C1034 0.929 . S
C1026 H1020 0.930 . S
C1026 C1027 1.367 . S
C1026 C1034 1.378 . S
C1027 C1026 1.367 . S
C1027 C1035 1.433 . S
C1028 H1024 0.929 1_655 S
C1028 C1030 1.378 . S
C1028 C1032 1.350 1_655 S
C1029 C1032 1.463 . S
C1029 C1034 1.350 . S
C1029 N1037 1.427 . S
C1030 H1021 0.930 . S
C1030 C1028 1.378 . S
C1030 C1031 1.367 . S
C1031 C1030 1.367 . S
C1031 C1033 1.433 . S
C1032 C1028 1.350 1_455 S
C1032 C1029 1.463 . S
C1032 N1036 1.427 1_455 S
C1033 H1023 0.929 . S
C1033 C1031 1.433 . S
C1033 N1036 1.384 . S
C1034 H1025 0.929 . S
C1034 C1026 1.378 . S
C1034 C1029 1.350 . S
C1035 H1022 0.929 . S
C1035 C1027 1.433 . S
C1035 N1037 1.384 . S
N1036 C1032 1.427 1_655 S
N1036 C1033 1.384 . S
N1037 C1029 1.427 . S
N1037 C1035 1.384 . S
H1038 C1044 0.930 . S
H1039 C1048 0.930 . S
H1040 C1053 0.929 . S
H1041 C1051 0.929 . S
H1042 C1046 0.929 . S
H1043 C1052 0.929 . S
C1044 H1038 0.930 . S
C1044 C1045 1.367 . S
C1044 C1052 1.378 . S
C1045 C1044 1.367 . S
C1045 C1053 1.433 . S
C1046 H1042 0.929 . S
C1046 C1048 1.378 . S
C1046 C1050 1.350 . S
C1047 C1050 1.463 . S
C1047 C1052 1.350 . S
C1047 N1055 1.427 . S
C1048 H1039 0.930 . S
C1048 C1046 1.378 . S
C1048 C1049 1.367 . S
C1049 C1048 1.367 . S
C1049 C1051 1.433 . S
C1050 C1046 1.350 . S
C1050 C1047 1.463 . S
C1050 N1054 1.427 . S
C1051 H1041 0.929 . S
C1051 C1049 1.433 . S
C1051 N1054 1.384 . S
C1052 H1043 0.929 . S
C1052 C1044 1.378 . S
C1052 C1047 1.350 . S
C1053 H1040 0.929 . S
C1053 C1045 1.433 . S
C1053 N1055 1.384 . S
N1054 C1050 1.427 . S
N1054 C1051 1.384 . S
N1055 C1047 1.427 . S
N1055 C1053 1.384 . S
H1056 C1062 0.930 . S
H1057 C1066 0.930 . S
H1058 C1071 0.929 . S
H1059 C1069 0.929 . S
H1060 C1064 0.929 . S
H1061 C1070 0.929 . S
C1062 H1056 0.930 . S
C1062 C1063 1.367 . S
C1062 C1070 1.378 . S
C1063 C1062 1.367 . S
C1063 C1071 1.433 . S
C1064 H1060 0.929 . S
C1064 C1066 1.378 . S
C1064 C1068 1.350 . S
C1065 C1068 1.463 . S
C1065 C1070 1.350 . S
C1065 N1073 1.427 . S
C1066 H1057 0.930 . S
C1066 C1064 1.378 . S
C1066 C1067 1.367 . S
C1067 C1066 1.367 . S
C1067 C1069 1.433 . S
C1068 C1064 1.350 . S
C1068 C1065 1.463 . S
C1068 N1072 1.427 . S
C1069 H1059 0.929 . S
C1069 C1067 1.433 . S
C1069 N1072 1.384 . S
C1070 H1061 0.929 . S
C1070 C1062 1.378 . S
C1070 C1065 1.350 . S
C1071 H1058 0.929 . S
C1071 C1063 1.433 . S
C1071 N1073 1.384 . S
N1072 C1068 1.427 . S
N1072 C1069 1.384 . S
N1073 C1065 1.427 . S
N1073 C1071 1.384 . S
H1074 C1080 0.930 . S
H1075 C1084 0.930 . S
H1076 C1089 0.929 . S
H1077 C1087 0.929 . S
H1078 C1082 0.929 . S
H1079 C1088 0.929 . S
C1080 H1074 0.930 . S
C1080 C1081 1.367 . S
C1080 C1088 1.378 . S
C1081 C1080 1.367 . S
C1081 C1089 1.433 . S
C1082 H1078 0.929 . S
C1082 C1084 1.378 . S
C1082 C1086 1.350 . S
C1083 C1086 1.463 . S
C1083 C1088 1.350 . S
C1083 N1091 1.427 . S
C1084 H1075 0.930 . S
C1084 C1082 1.378 . S
C1084 C1085 1.367 . S
C1085 C1084 1.367 . S
C1085 C1087 1.433 . S
C1086 C1082 1.350 . S
C1086 C1083 1.463 . S
C1086 N1090 1.427 . S
C1087 H1077 0.929 . S
C1087 C1085 1.433 . S
C1087 N1090 1.384 . S
C1088 H1079 0.929 . S
C1088 C1080 1.378 . S
C1088 C1083 1.350 . S
C1089 H1076 0.929 . S
C1089 C1081 1.433 . S
C1089 N1091 1.384 . S
N1090 C1086 1.427 . S
N1090 C1087 1.384 . S
N1091 C1083 1.427 . S
N1091 C1089 1.384 . S
H1092 C1098 0.930 . S
H1093 C1102 0.930 . S
H1094 C1107 0.929 . S
H1095 C1105 0.929 . S
H1096 C1100 0.929 . S
H1097 C1106 0.929 . S
C1098 H1092 0.930 . S
C1098 C1099 1.367 . S
C1098 C1106 1.378 . S
C1099 C1098 1.367 . S
C1099 C1107 1.433 . S
C1100 H1096 0.929 . S
C1100 C1102 1.378 . S
C1100 C1104 1.350 . S
C1101 C1104 1.463 . S
C1101 C1106 1.350 . S
C1101 N1109 1.427 . S
C1102 H1093 0.930 . S
C1102 C1100 1.378 . S
C1102 C1103 1.367 . S
C1103 C1102 1.367 . S
C1103 C1105 1.433 . S
C1104 C1100 1.350 . S
C1104 C1101 1.463 . S
C1104 N1108 1.427 . S
C1105 H1095 0.929 . S
C1105 C1103 1.433 . S
C1105 N1108 1.384 . S
C1106 H1097 0.929 . S
C1106 C1098 1.378 . S
C1106 C1101 1.350 . S
C1107 H1094 0.929 . S
C1107 C1099 1.433 . S
C1107 N1109 1.384 . S
N1108 C1104 1.427 . S
N1108 C1105 1.384 . S
N1109 C1101 1.427 . S
N1109 C1107 1.384 . S
H1110 C1116 0.930 . S
H1111 C1120 0.930 . S
H1112 C1125 0.929 . S
H1113 C1123 0.929 . S
H1114 C1118 0.929 1_655 S
H1115 C1124 0.929 . S
C1116 H1110 0.930 . S
C1116 C1117 1.367 . S
C1116 C1124 1.378 . S
C1117 C1116 1.367 . S
C1117 C1125 1.433 . S
C1118 H1114 0.929 1_455 S
C1118 C1120 1.378 . S
C1118 C1122 1.350 1_455 S
C1119 C1122 1.463 . S
C1119 C1124 1.350 . S
C1119 N1127 1.427 . S
C1120 H1111 0.930 . S
C1120 C1118 1.378 . S
C1120 C1121 1.367 . S
C1121 C1120 1.367 . S
C1121 C1123 1.433 . S
C1122 C1118 1.350 1_655 S
C1122 C1119 1.463 . S
C1122 N1126 1.427 . S
C1123 H1113 0.929 . S
C1123 C1121 1.433 . S
C1123 N1126 1.384 1_455 S
C1124 H1115 0.929 . S
C1124 C1116 1.378 . S
C1124 C1119 1.350 . S
C1125 H1112 0.929 . S
C1125 C1117 1.433 . S
C1125 N1127 1.384 . S
N1126 C1122 1.427 . S
N1126 C1123 1.384 1_655 S
N1127 C1119 1.427 . S
N1127 C1125 1.384 . S
C487 C19 1.609 . S
C491 C458 1.689 . S
C505 C378 1.673 . S
C509 C58 1.678 . S
C523 C99 1.396 . S
C527 C339 1.391 . S
C541 C138 1.641 . S
C545 C418 1.638 . S
C559 C178 2.060 . S
C563 C419 1.967 . S
C577 C219 1.332 . S
C581 C459 1.332 . S
C595 C379 1.759 . S
C599 C258 1.859 . S
C613 C298 1.364 . S
C617 C338 1.375 . S
C631 C139 1.893 . S
C635 C179 1.860 . S
C649 C18 1.803 . S
C653 C218 1.808 . S
C667 C59 1.457 . S
C671 C259 1.464 . S
C685 C299 1.693 . S
C689 C98 1.765 . S
C703 C15 2.680 . S
C707 C330 2.792 . S
C721 C46 1.098 . S
C725 C409 1.064 . S
C739 C449 1.626 . S
C743 C95 1.695 . S
C757 C126 1.399 . S
C761 C369 1.316 . S
C775 C166 1.504 . S
C779 C370 1.494 . S
C793 C329 1.730 . S
C797 C215 1.794 . S
C811 C410 1.961 . S
C815 C246 1.980 . S
C829 C450 1.788 . S
C833 C286 1.809 . S
C847 C9 1.524 . S
C851 C135 1.585 . S
C865 C6 2.230 . S
C869 C50 2.201 . S
C883 C55 2.003 . S
C887 C89 1.938 . S
C901 C130 1.929 . S
C905 C86 1.938 . S
C919 C206 1.039 . S
C923 C170 1.030 . S
C937 C209 1.735 . S
C941 C255 1.801 . S
C955 C250 1.359 . S
C959 C295 1.331 . S
C973 C175 1.751 . S
C977 C290 1.819 . S
C991 C326 1.223 . S
C995 C129 1.156 . S
C1009 C210 1.657 . S
C1013 C366 1.675 . S
C1027 C335 1.971 . S
C1031 C249 1.903 . S
C1045 C406 1.611 . S
C1049 C289 1.503 . S
C1063 C169 0.739 . S
C1067 C446 0.715 . S
C1081 C455 1.574 . S
C1085 C49 1.526 . S
C1099 C90 1.362 . S
C1103 C375 1.323 . S
C1117 C415 1.858 . S
C1121 C10 1.918 . S
