# Generated by pormake.
# Topology yfr, (5)-cn, num edge types: 1
# Building blocks:
#     Node 0, Type 0, BuildingBlock: BEQFEK_clean_sbu_0, # of connection points: 5
#     Node 1, Type 0, BuildingBlock: BEQFEK_clean_sbu_0, # of connection points: 5
#     Node 2, Type 0, BuildingBlock: BEQFEK_clean_sbu_0, # of connection points: 5
#     Node 3, Type 0, BuildingBlock: BEQFEK_clean_sbu_0, # of connection points: 5
#     Node 4, Type 0, BuildingBlock: BEQFEK_clean_sbu_0, # of connection points: 5
#     Node 5, Type 0, BuildingBlock: BEQFEK_clean_sbu_0, # of connection points: 5
#     Node 6, Type 0, BuildingBlock: BEQFEK_clean_sbu_0, # of connection points: 5
#     Node 7, Type 0, BuildingBlock: BEQFEK_clean_sbu_0, # of connection points: 5
#     Node 8, Type 0, BuildingBlock: BEQFEK_clean_sbu_0, # of connection points: 5
#     Node 9, Type 0, BuildingBlock: BEQFEK_clean_sbu_0, # of connection points: 5
#     Node 10, Type 0, BuildingBlock: BEQFEK_clean_sbu_0, # of connection points: 5
#     Node 11, Type 0, BuildingBlock: BEQFEK_clean_sbu_0, # of connection points: 5
#     Node 12, Type 0, BuildingBlock: BEQFEK_clean_sbu_0, # of connection points: 5
#     Node 13, Type 0, BuildingBlock: BEQFEK_clean_sbu_0, # of connection points: 5
#     Node 14, Type 0, BuildingBlock: BEQFEK_clean_sbu_0, # of connection points: 5
#     Node 15, Type 0, BuildingBlock: BEQFEK_clean_sbu_0, # of connection points: 5
#     Node 16, Type 0, BuildingBlock: BEQFEK_clean_sbu_0, # of connection points: 5
#     Node 17, Type 0, BuildingBlock: BEQFEK_clean_sbu_0, # of connection points: 5
#     Node 18, Type 0, BuildingBlock: BEQFEK_clean_sbu_0, # of connection points: 5
#     Node 19, Type 0, BuildingBlock: BEQFEK_clean_sbu_0, # of connection points: 5
#     Node 20, Type 0, BuildingBlock: BEQFEK_clean_sbu_0, # of connection points: 5
#     Node 21, Type 0, BuildingBlock: BEQFEK_clean_sbu_0, # of connection points: 5
#     Node 22, Type 0, BuildingBlock: BEQFEK_clean_sbu_0, # of connection points: 5
#     Node 23, Type 0, BuildingBlock: BEQFEK_clean_sbu_0, # of connection points: 5
#     Node 24, Type 0, BuildingBlock: BEQFEK_clean_sbu_0, # of connection points: 5
#     Node 25, Type 0, BuildingBlock: BEQFEK_clean_sbu_0, # of connection points: 5
#     Node 26, Type 0, BuildingBlock: BEQFEK_clean_sbu_0, # of connection points: 5
#     Node 27, Type 0, BuildingBlock: BEQFEK_clean_sbu_0, # of connection points: 5
#     Node 28, Type 0, BuildingBlock: BEQFEK_clean_sbu_0, # of connection points: 5
#     Node 29, Type 0, BuildingBlock: BEQFEK_clean_sbu_0, # of connection points: 5
#     Node 30, Type 0, BuildingBlock: BEQFEK_clean_sbu_0, # of connection points: 5
#     Node 31, Type 0, BuildingBlock: BEQFEK_clean_sbu_0, # of connection points: 5
#     Edge 32, Type (0, 0), BuildingBlock: XUDNAN_clean_linker_2, # of connection points: 2
#     Edge 33, Type (0, 0), BuildingBlock: XUDNAN_clean_linker_2, # of connection points: 2
#     Edge 34, Type (0, 0), BuildingBlock: XUDNAN_clean_linker_2, # of connection points: 2
#     Edge 35, Type (0, 0), BuildingBlock: XUDNAN_clean_linker_2, # of connection points: 2
#     Edge 36, Type (0, 0), BuildingBlock: XUDNAN_clean_linker_2, # of connection points: 2
#     Edge 37, Type (0, 0), BuildingBlock: XUDNAN_clean_linker_2, # of connection points: 2
#     Edge 38, Type (0, 0), BuildingBlock: XUDNAN_clean_linker_2, # of connection points: 2
#     Edge 39, Type (0, 0), BuildingBlock: XUDNAN_clean_linker_2, # of connection points: 2
#     Edge 40, Type (0, 0), BuildingBlock: XUDNAN_clean_linker_2, # of connection points: 2
#     Edge 41, Type (0, 0), BuildingBlock: XUDNAN_clean_linker_2, # of connection points: 2
#     Edge 42, Type (0, 0), BuildingBlock: XUDNAN_clean_linker_2, # of connection points: 2
#     Edge 43, Type (0, 0), BuildingBlock: XUDNAN_clean_linker_2, # of connection points: 2
#     Edge 44, Type (0, 0), BuildingBlock: XUDNAN_clean_linker_2, # of connection points: 2
#     Edge 45, Type (0, 0), BuildingBlock: XUDNAN_clean_linker_2, # of connection points: 2
#     Edge 46, Type (0, 0), BuildingBlock: XUDNAN_clean_linker_2, # of connection points: 2
#     Edge 47, Type (0, 0), BuildingBlock: XUDNAN_clean_linker_2, # of connection points: 2
#     Edge 48, Type (0, 0), BuildingBlock: XUDNAN_clean_linker_2, # of connection points: 2
#     Edge 49, Type (0, 0), BuildingBlock: XUDNAN_clean_linker_2, # of connection points: 2
#     Edge 50, Type (0, 0), BuildingBlock: XUDNAN_clean_linker_2, # of connection points: 2
#     Edge 51, Type (0, 0), BuildingBlock: XUDNAN_clean_linker_2, # of connection points: 2
#     Edge 52, Type (0, 0), BuildingBlock: XUDNAN_clean_linker_2, # of connection points: 2
#     Edge 53, Type (0, 0), BuildingBlock: XUDNAN_clean_linker_2, # of connection points: 2
#     Edge 54, Type (0, 0), BuildingBlock: XUDNAN_clean_linker_2, # of connection points: 2
#     Edge 55, Type (0, 0), BuildingBlock: XUDNAN_clean_linker_2, # of connection points: 2
#     Edge 56, Type (0, 0), BuildingBlock: XUDNAN_clean_linker_2, # of connection points: 2
#     Edge 57, Type (0, 0), BuildingBlock: XUDNAN_clean_linker_2, # of connection points: 2
#     Edge 58, Type (0, 0), BuildingBlock: XUDNAN_clean_linker_2, # of connection points: 2
#     Edge 59, Type (0, 0), BuildingBlock: XUDNAN_clean_linker_2, # of connection points: 2
#     Edge 60, Type (0, 0), BuildingBlock: XUDNAN_clean_linker_2, # of connection points: 2
#     Edge 61, Type (0, 0), BuildingBlock: XUDNAN_clean_linker_2, # of connection points: 2
#     Edge 62, Type (0, 0), BuildingBlock: XUDNAN_clean_linker_2, # of connection points: 2
#     Edge 63, Type (0, 0), BuildingBlock: XUDNAN_clean_linker_2, # of connection points: 2
#     Edge 64, Type (0, 0), BuildingBlock: XUDNAN_clean_linker_2, # of connection points: 2
#     Edge 65, Type (0, 0), BuildingBlock: XUDNAN_clean_linker_2, # of connection points: 2
#     Edge 66, Type (0, 0), BuildingBlock: XUDNAN_clean_linker_2, # of connection points: 2
#     Edge 67, Type (0, 0), BuildingBlock: XUDNAN_clean_linker_2, # of connection points: 2
#     Edge 68, Type (0, 0), BuildingBlock: XUDNAN_clean_linker_2, # of connection points: 2
#     Edge 69, Type (0, 0), BuildingBlock: XUDNAN_clean_linker_2, # of connection points: 2
#     Edge 70, Type (0, 0), BuildingBlock: XUDNAN_clean_linker_2, # of connection points: 2
#     Edge 71, Type (0, 0), BuildingBlock: XUDNAN_clean_linker_2, # of connection points: 2
#     Edge 72, Type (0, 0), BuildingBlock: XUDNAN_clean_linker_2, # of connection points: 2
#     Edge 73, Type (0, 0), BuildingBlock: XUDNAN_clean_linker_2, # of connection points: 2
#     Edge 74, Type (0, 0), BuildingBlock: XUDNAN_clean_linker_2, # of connection points: 2
#     Edge 75, Type (0, 0), BuildingBlock: XUDNAN_clean_linker_2, # of connection points: 2
#     Edge 76, Type (0, 0), BuildingBlock: XUDNAN_clean_linker_2, # of connection points: 2
#     Edge 77, Type (0, 0), BuildingBlock: XUDNAN_clean_linker_2, # of connection points: 2
#     Edge 78, Type (0, 0), BuildingBlock: XUDNAN_clean_linker_2, # of connection points: 2
#     Edge 79, Type (0, 0), BuildingBlock: XUDNAN_clean_linker_2, # of connection points: 2
#     Edge 80, Type (0, 0), BuildingBlock: XUDNAN_clean_linker_2, # of connection points: 2
#     Edge 81, Type (0, 0), BuildingBlock: XUDNAN_clean_linker_2, # of connection points: 2
#     Edge 82, Type (0, 0), BuildingBlock: XUDNAN_clean_linker_2, # of connection points: 2
#     Edge 83, Type (0, 0), BuildingBlock: XUDNAN_clean_linker_2, # of connection points: 2
#     Edge 84, Type (0, 0), BuildingBlock: XUDNAN_clean_linker_2, # of connection points: 2
#     Edge 85, Type (0, 0), BuildingBlock: XUDNAN_clean_linker_2, # of connection points: 2
#     Edge 86, Type (0, 0), BuildingBlock: XUDNAN_clean_linker_2, # of connection points: 2
#     Edge 87, Type (0, 0), BuildingBlock: XUDNAN_clean_linker_2, # of connection points: 2
#     Edge 88, Type (0, 0), BuildingBlock: XUDNAN_clean_linker_2, # of connection points: 2
#     Edge 89, Type (0, 0), BuildingBlock: XUDNAN_clean_linker_2, # of connection points: 2
#     Edge 90, Type (0, 0), BuildingBlock: XUDNAN_clean_linker_2, # of connection points: 2
#     Edge 91, Type (0, 0), BuildingBlock: XUDNAN_clean_linker_2, # of connection points: 2
#     Edge 92, Type (0, 0), BuildingBlock: XUDNAN_clean_linker_2, # of connection points: 2
#     Edge 93, Type (0, 0), BuildingBlock: XUDNAN_clean_linker_2, # of connection points: 2
#     Edge 94, Type (0, 0), BuildingBlock: XUDNAN_clean_linker_2, # of connection points: 2
#     Edge 95, Type (0, 0), BuildingBlock: XUDNAN_clean_linker_2, # of connection points: 2
#     Edge 96, Type (0, 0), BuildingBlock: XUDNAN_clean_linker_2, # of connection points: 2
#     Edge 97, Type (0, 0), BuildingBlock: XUDNAN_clean_linker_2, # of connection points: 2
#     Edge 98, Type (0, 0), BuildingBlock: XUDNAN_clean_linker_2, # of connection points: 2
#     Edge 99, Type (0, 0), BuildingBlock: XUDNAN_clean_linker_2, # of connection points: 2
#     Edge 100, Type (0, 0), BuildingBlock: XUDNAN_clean_linker_2, # of connection points: 2
#     Edge 101, Type (0, 0), BuildingBlock: XUDNAN_clean_linker_2, # of connection points: 2
#     Edge 102, Type (0, 0), BuildingBlock: XUDNAN_clean_linker_2, # of connection points: 2
#     Edge 103, Type (0, 0), BuildingBlock: XUDNAN_clean_linker_2, # of connection points: 2
#     Edge 104, Type (0, 0), BuildingBlock: XUDNAN_clean_linker_2, # of connection points: 2
#     Edge 105, Type (0, 0), BuildingBlock: XUDNAN_clean_linker_2, # of connection points: 2
#     Edge 106, Type (0, 0), BuildingBlock: XUDNAN_clean_linker_2, # of connection points: 2
#     Edge 107, Type (0, 0), BuildingBlock: XUDNAN_clean_linker_2, # of connection points: 2
#     Edge 108, Type (0, 0), BuildingBlock: XUDNAN_clean_linker_2, # of connection points: 2
#     Edge 109, Type (0, 0), BuildingBlock: XUDNAN_clean_linker_2, # of connection points: 2
#     Edge 110, Type (0, 0), BuildingBlock: XUDNAN_clean_linker_2, # of connection points: 2
#     Edge 111, Type (0, 0), BuildingBlock: XUDNAN_clean_linker_2, # of connection points: 2
# Relax obj value: 0.453
# Max RMSD: 0.215
# Mean RMSD: 0.204
data_MOF--net-yfr--node1-BEQFEK_clean_sbu_0--edge1-XUDNAN_clean_linker_2
_symmetry_space_group_name_H-M    P1
_symmetry_Int_Tables_number       1
_symmetry_cell_setting            triclinic
loop_
_symmetry_equiv_pos_as_xyz
'x, y, z'
_cell_length_a     61.79917
_cell_length_b     61.884378
_cell_length_c     56.264503
_cell_angle_alpha  89.993955
_cell_angle_beta   90.048134
_cell_angle_gamma 89.997021
loop_
_atom_site_label
_atom_site_type_symbol
_atom_site_fract_x
_atom_site_fract_y
_atom_site_fract_z
_atom_type_partial_charge
Co0 Co 0.03052 0.14184 0.31171 0.0
Co1 Co 0.07242 0.14708 0.284 0.0
C2 C 0.03368 0.17878 0.2796 0.0
O3 O 0.02079 0.16705 0.29168 0.0
O4 O 0.05294 0.17227 0.27569 0.0
C5 C 0.9869 0.13132 0.32576 0.0
O6 O 0.98108 0.13549 0.30377 0.0
C7 C 0.09185 0.1484 0.23759 0.0
C8 C 0.12629 0.15501 0.24518 0.0
C9 C 0.11152 0.15274 0.22675 0.0
N10 N 0.09489 0.14812 0.2612 0.0
N11 N 0.11554 0.15182 0.26569 0.0
C12 C 0.07003 0.14673 0.22609 0.0
H13 H 0.05695 0.14761 0.23951 0.0
H14 H 0.06862 0.13093 0.21692 0.0
H15 H 0.06792 0.15972 0.21268 0.0
C16 C 0.03535 0.09519 0.29519 0.0
N17 N 0.04133 0.11632 0.29547 0.0
N18 N 0.05938 0.11844 0.28346 0.0
C19 C 0.06531 0.0987 0.27494 0.0
C20 C 0.05017 0.08302 0.28191 0.0
C21 C 0.01606 0.08658 0.30813 0.0
H22 H 1.00128 0.09447 0.3011 0.0
H23 H 0.01438 0.06884 0.30598 0.0
H24 H 0.01742 0.09059 0.32729 0.0
O25 O 0.05179 0.15567 0.33413 0.0
O26 O 0.08367 0.15608 0.31614 0.0
H27 H 0.0903 0.07714 0.26227 0.0
H28 H 0.0842 0.09982 0.24329 0.0
C29 C 0.08603 0.09456 0.26203 0.0
H30 H 0.09928 0.10416 0.27014 0.0
H31 H 0.12208 0.15312 0.28274 0.0
O32 O 0.00659 0.13306 0.33179 0.0
C33 C 0.07182 0.16065 0.33406 0.0
Co34 Co 0.12149 0.76958 0.56072 0.0
Co35 Co 0.11071 0.81077 0.53335 0.0
C36 C 0.08175 0.76993 0.53227 0.0
O37 O 0.09591 0.75839 0.54267 0.0
O38 O 0.08551 0.78982 0.52817 0.0
C39 C 0.13421 0.72631 0.57188 0.0
O40 O 0.12936 0.72198 0.54965 0.0
C41 C 0.11103 0.82366 0.48467 0.0
C42 C 0.10381 0.85855 0.48422 0.0
C43 C 0.10895 0.84122 0.46958 0.0
N44 N 0.10776 0.83025 0.50714 0.0
N45 N 0.1033 0.85113 0.50682 0.0
C46 C 0.11519 0.80059 0.47785 0.0
H47 H 0.10948 0.78941 0.49184 0.0
H48 H 0.13281 0.79792 0.47569 0.0
H49 H 0.10713 0.79671 0.46073 0.0
C50 C 0.16572 0.77561 0.53927 0.0
N51 N 0.14469 0.78121 0.54231 0.0
N52 N 0.14087 0.79953 0.53135 0.0
C53 C 0.15979 0.80624 0.52109 0.0
C54 C 0.17635 0.79111 0.52544 0.0
C55 C 0.17598 0.75637 0.55082 0.0
H56 H 0.17134 0.75574 0.56982 0.0
H57 H 0.17008 0.74146 0.54201 0.0
H58 H 0.19389 0.75693 0.54967 0.0
O59 O 0.11001 0.79122 0.58411 0.0
O60 O 0.10315 0.82259 0.56629 0.0
H61 H 0.1496 0.83855 0.51243 0.0
H62 H 0.17837 0.8339 0.51001 0.0
C63 C 0.16216 0.8267 0.50718 0.0
H64 H 0.16053 0.82311 0.48796 0.0
H65 H 0.10014 0.86035 0.52196 0.0
O66 O 0.13226 0.74549 0.57958 0.0
C67 C 0.10316 0.81069 0.58499 0.0
Co68 Co 0.48062 0.87147 0.81501 0.0
Co69 Co 0.44368 0.86326 0.78001 0.0
C70 C 0.48409 0.83363 0.78413 0.0
O71 O 0.49424 0.84689 0.7974 0.0
O72 O 0.46494 0.83792 0.77697 0.0
C73 C 0.51596 0.87159 0.8466 0.0
O74 O 0.52595 0.86104 0.82959 0.0
C75 C 0.43061 0.85497 0.7316 0.0
C76 C 0.39638 0.86528 0.73073 0.0
C77 C 0.41287 0.85694 0.71689 0.0
N78 N 0.425 0.86181 0.75335 0.0
N79 N 0.4045 0.86793 0.75279 0.0
C80 C 0.45283 0.84759 0.72486 0.0
H81 H 0.46517 0.857 0.73479 0.0
H82 H 0.4556 0.84936 0.70546 0.0
H83 H 0.45465 0.83028 0.72964 0.0
C84 C 0.47765 0.91651 0.79632 0.0
N85 N 0.4722 0.89537 0.79601 0.0
N86 N 0.45621 0.89235 0.78103 0.0
C87 C 0.45099 0.91176 0.77121 0.0
C88 C 0.46439 0.92797 0.78061 0.0
C89 C 0.49479 0.92562 0.8122 0.0
H90 H 0.4879 0.92817 0.83019 0.0
H91 H 0.50839 0.91401 0.8138 0.0
H92 H 0.50087 0.94128 0.8053 0.0
O93 O 0.4559 0.85875 0.83213 0.0
O94 O 0.4269 0.85609 0.80943 0.0
H95 H 0.4171 0.90975 0.76433 0.0
H96 H 0.4302 0.93219 0.74975 0.0
C97 C 0.43203 0.91505 0.75509 0.0
H98 H 0.43401 0.90489 0.739 0.0
H99 H 0.39611 0.87402 0.76742 0.0
O100 O 0.49797 0.88047 0.84222 0.0
C101 C 0.43617 0.85358 0.82948 0.0
Co102 Co 0.3896 0.23235 0.06967 0.0
Co103 Co 0.39854 0.19447 0.03553 0.0
C104 C 0.42737 0.23441 0.03708 0.0
O105 O 0.41467 0.24419 0.05122 0.0
O106 O 0.42303 0.21541 0.02993 0.0
C107 C 0.37907 0.27535 0.08068 0.0
O108 O 0.38615 0.27854 0.05896 0.0
C109 C 0.40035 0.18223 0.98674 0.0
C110 C 0.40023 0.14655 0.98655 0.0
C111 C 0.40001 0.1645 0.97179 0.0
N112 N 0.40045 0.17521 0.00929 0.0
N113 N 0.40063 0.15385 0.00918 0.0
C114 C 0.40125 0.20567 0.98003 0.0
H115 H 0.41808 0.21152 0.98244 0.0
H116 H 0.39073 0.21527 0.99201 0.0
H117 H 0.39663 0.20853 0.96128 0.0
C118 C 0.3447 0.22843 0.04953 0.0
N119 N 0.36574 0.2224 0.05079 0.0
N120 N 0.36917 0.20648 0.03587 0.0
C121 C 0.35022 0.20201 0.02445 0.0
C122 C 0.33388 0.21596 0.03255 0.0
C123 C 0.33471 0.24507 0.06542 0.0
H124 H 0.34093 0.24314 0.08378 0.0
H125 H 0.33913 0.26141 0.05895 0.0
H126 H 0.31682 0.24363 0.0658 0.0
O127 O 0.40223 0.2091 0.09054 0.0
O128 O 0.40688 0.18072 0.06677 0.0
H129 H 0.35674 0.17048 0.01041 0.0
H130 H 0.33096 0.18156 1.00132 0.0
C131 C 0.34807 0.18544 1.00524 0.0
H132 H 0.35549 0.19183 0.98878 0.0
H133 H 0.40047 0.14429 0.02445 0.0
O134 O 0.37928 0.25642 0.08944 0.0
C135 C 0.40866 0.18969 0.08721 0.0
Co136 Co 0.02483 0.8702 0.20904 0.0
Co137 Co 0.06592 0.85788 0.23624 0.0
C138 C 0.02483 0.83009 0.23829 0.0
O139 O 0.01413 0.84323 0.2254 0.0
O140 O 0.04422 0.83442 0.24431 0.0
C141 C 0.98175 0.88451 0.19749 0.0
O142 O 0.97629 0.87914 0.21926 0.0
C143 C 0.08453 0.85469 0.28335 0.0
C144 C 0.11906 0.84804 0.27677 0.0
C145 C 0.10407 0.85085 0.29493 0.0
N146 N 0.08796 0.85425 0.25972 0.0
N147 N 0.10866 0.85036 0.25587 0.0
C148 C 0.06261 0.8578 0.2942 0.0
H149 H 0.04969 0.85647 0.28067 0.0
H150 H 0.06151 0.87423 0.30196 0.0
H151 H 0.05987 0.84577 0.30852 0.0
C152 C 0.03332 0.91423 0.23067 0.0
N153 N 0.03765 0.89285 0.22771 0.0
N154 N 0.05574 0.88802 0.23871 0.0
C155 C 0.06344 0.90635 0.24914 0.0
C156 C 0.04953 0.92385 0.24449 0.0
C157 C 0.0136 0.92508 0.22092 0.0
H158 H 0.0137 0.92391 0.20124 0.0
H159 H 0.99901 0.91659 0.22753 0.0
H160 H 0.01258 0.94228 0.22627 0.0
O161 O 0.04503 0.85887 0.18472 0.0
O162 O 0.07549 0.84889 0.20251 0.0
H163 H 0.09641 0.89634 0.25412 0.0
H164 H 0.09112 0.92427 0.26172 0.0
C165 C 0.08452 0.90759 0.26214 0.0
H166 H 0.08198 0.90292 0.28095 0.0
H167 H 0.11561 0.84903 0.23904 0.0
O168 O 1.00118 0.88226 0.19075 0.0
C169 C 0.06371 0.8502 0.18376 0.0
Co170 Co 0.38766 0.79082 0.43201 0.0
Co171 Co 0.39909 0.81329 0.47815 0.0
C172 C 0.428 0.77891 0.46237 0.0
O173 O 0.41631 0.77862 0.44365 0.0
O174 O 0.42171 0.78963 0.48041 0.0
C175 C 0.37497 0.75465 0.40215 0.0
O176 O 0.3715 0.74313 0.42137 0.0
C177 C 0.40976 0.82508 0.52711 0.0
C178 C 0.38825 0.85306 0.53311 0.0
C179 C 0.40216 0.83894 0.54461 0.0
N180 N 0.40006 0.83019 0.50648 0.0
N181 N 0.38767 0.84729 0.51005 0.0
C182 C 0.42686 0.80805 0.52946 0.0
H183 H 0.43818 0.80914 0.51424 0.0
H184 H 0.41918 0.79184 0.52929 0.0
H185 H 0.43645 0.81008 0.54597 0.0
C186 C 0.34294 0.78867 0.45328 0.0
N187 N 0.36434 0.79341 0.45419 0.0
N188 N 0.36878 0.80297 0.47443 0.0
C189 C 0.35011 0.80393 0.48742 0.0
C190 C 0.33281 0.79498 0.47445 0.0
C191 C 0.33201 0.77992 0.43158 0.0
H192 H 0.34051 0.78547 0.41535 0.0
H193 H 0.33251 0.76201 0.43208 0.0
H194 H 0.31484 0.78515 0.43077 0.0
O195 O 0.39513 0.81878 0.41858 0.0
O196 O 0.41124 0.83177 0.45065 0.0
H197 H 0.34595 0.82984 0.51197 0.0
H198 H 0.33531 0.80443 0.52211 0.0
C199 C 0.34886 0.81216 0.51235 0.0
H200 H 0.36424 0.80893 0.52186 0.0
H201 H 0.37788 0.85427 0.49702 0.0
O202 O 0.38023 0.77434 0.40387 0.0
C203 C 0.40773 0.83232 0.42823 0.0
Co204 Co 0.47402 0.13909 0.70029 0.0
Co205 Co 0.438 0.15022 0.73624 0.0
C206 C 0.47752 0.17926 0.72976 0.0
O207 O 0.48636 0.16589 0.71553 0.0
O208 O 0.45911 0.1752 0.73895 0.0
C209 C 0.51321 0.13581 0.67377 0.0
O210 O 0.52181 0.14626 0.69177 0.0
C211 C 0.42284 0.15438 0.78526 0.0
C212 C 0.38743 0.15648 0.78043 0.0
C213 C 0.40351 0.15653 0.79765 0.0
N214 N 0.41826 0.15299 0.76194 0.0
N215 N 0.39708 0.1542 0.75918 0.0
C216 C 0.4454 0.15471 0.795 0.0
H217 H 0.45729 0.15811 0.78076 0.0
H218 H 0.44931 0.13865 0.80262 0.0
H219 H 0.44685 0.16698 0.8093 0.0
C220 C 0.47173 0.09548 0.72424 0.0
N221 N 0.46614 0.11657 0.7219 0.0
N222 N 0.45039 0.12107 0.73679 0.0
C223 C 0.44528 0.10277 0.74884 0.0
C224 C 0.45873 0.08576 0.74154 0.0
C225 C 0.48933 0.08493 0.7102 0.0
H226 H 0.502 0.0969 0.70559 0.0
H227 H 0.49667 0.07137 0.7203 0.0
H228 H 0.48238 0.07844 0.69347 0.0
O229 O 0.44852 0.14817 0.68115 0.0
O230 O 0.42187 0.156 0.7061 0.0
H231 H 0.4209 0.08399 0.76713 0.0
H232 H 0.43116 0.10704 0.78317 0.0
C233 C 0.4264 0.10098 0.76538 0.0
H234 H 0.41275 0.11089 0.75873 0.0
H235 H 0.38923 0.15362 0.74276 0.0
O236 O 0.49387 0.1291 0.67539 0.0
C237 C 0.4293 0.1546 0.68506 0.0
Co238 Co 0.12157 0.2279 0.94525 0.0
Co239 Co 0.11239 0.19707 0.98723 0.0
C240 C 0.08229 0.23503 0.97517 0.0
O241 O 0.09555 0.2418 0.95951 0.0
O242 O 0.08685 0.21835 0.98758 0.0
C243 C 0.12002 0.2607 0.9105 0.0
O244 O 0.11243 0.27249 0.92802 0.0
C245 C 0.11162 0.18927 0.0382 0.0
C246 C 0.11215 0.1536 0.04025 0.0
C247 C 0.11249 0.17214 0.05403 0.0
N248 N 0.11128 0.18122 0.01604 0.0
N249 N 0.11138 0.1599 0.01735 0.0
C250 C 0.11039 0.2129 0.04389 0.0
H251 H 0.10242 0.22187 0.02929 0.0
H252 H 0.12692 0.21956 0.04603 0.0
H253 H 0.10143 0.21552 0.06074 0.0
C254 C 0.16649 0.22814 0.96565 0.0
N255 N 0.14536 0.22248 0.96603 0.0
N256 N 0.14193 0.20898 0.98368 0.0
C257 C 0.16112 0.20554 0.99503 0.0
C258 C 0.17755 0.21772 0.98412 0.0
C259 C 0.17615 0.24231 0.9469 0.0
H260 H 0.16788 0.23964 0.92968 0.0
H261 H 0.1738 0.25947 0.95202 0.0
H262 H 0.19372 0.23914 0.94481 0.0
O263 O 0.11031 0.20104 0.93252 0.0
O264 O 0.10447 0.17678 0.96047 0.0
H265 H 0.15529 0.17552 0.01288 0.0
H266 H 0.18063 0.18814 0.02093 0.0
C267 C 0.16352 0.19114 0.01625 0.0
H268 H 0.15575 0.19888 0.03176 0.0
H269 H 0.11136 0.14966 1.00262 0.0
O270 O 0.12845 0.24251 0.91512 0.0
C271 C 0.10381 0.18247 0.93871 0.0
Co272 Co 0.97988 0.81684 0.76 0.0
Co273 Co 0.96589 0.85918 0.73706 0.0
C274 C 0.00795 0.83883 0.72277 0.0
O275 O 0.00461 0.82401 0.73801 0.0
O276 O 0.99459 0.85434 0.72078 0.0
C277 C 1.0036 0.80954 0.80024 0.0
O278 O 0.00841 0.82986 0.79606 0.0
C279 C 0.96581 0.90406 0.72639 0.0
C280 C 0.93394 0.90941 0.70943 0.0
C281 C 0.95277 0.91972 0.71645 0.0
N282 N 0.95517 0.88531 0.72557 0.0
N283 N 0.93626 0.88839 0.71511 0.0
C284 C 0.98808 0.90681 0.73666 0.0
H285 H 0.99806 0.8923 0.73337 0.0
H286 H 0.98694 0.90892 0.75618 0.0
H287 H 0.99625 0.92117 0.72898 0.0
C288 C 0.95779 0.83516 0.79985 0.0
N289 N 0.96702 0.8383 0.77855 0.0
N290 N 0.96341 0.85801 0.7712 0.0
C291 C 0.95264 0.86864 0.78885 0.0
C292 C 0.94943 0.85446 0.80805 0.0
C293 C 0.95201 0.81318 0.80926 0.0
H294 H 0.95286 0.80082 0.79501 0.0
H295 H 0.9632 0.80873 0.82379 0.0
H296 H 0.93538 0.81322 0.81672 0.0
O297 O 0.95623 0.80453 0.74073 0.0
O298 O 0.94714 0.83632 0.72478 0.0
H299 H 0.92688 0.88941 0.77824 0.0
H300 H 0.94157 0.89858 0.80403 0.0
C301 C 0.94319 0.89074 0.78638 0.0
H302 H 0.95337 0.90085 0.77467 0.0
H303 H 0.92485 0.87625 0.71219 0.0
O304 O 0.99253 0.79885 0.78505 0.0
C305 C 0.94445 0.816 0.72695 0.0
Co306 Co 0.94681 0.2079 0.49556 0.0
Co307 Co 0.89743 0.20886 0.49156 0.0
C308 C 0.92199 0.24462 0.46952 0.0
O309 O 0.93963 0.23554 0.47626 0.0
O310 O 0.90374 0.23671 0.47559 0.0
C311 C 0.98202 0.2175 0.52495 0.0
O312 O 0.96739 0.2293 0.53583 0.0
C313 C 0.85017 0.21283 0.48646 0.0
C314 C 0.8414 0.17874 0.49377 0.0
C315 C 0.83299 0.19847 0.48696 0.0
N316 N 0.86805 0.20183 0.49254 0.0
N317 N 0.86269 0.18157 0.49696 0.0
C318 C 0.85025 0.23573 0.47797 0.0
H319 H 0.86031 0.23684 0.46169 0.0
H320 H 0.85785 0.24617 0.49167 0.0
H321 H 0.83372 0.24161 0.47387 0.0
C322 C 0.93477 0.19292 0.54466 0.0
N323 N 0.92997 0.20182 0.52333 0.0
N324 N 0.90917 0.20582 0.52251 0.0
C325 C 0.90036 0.20151 0.54398 0.0
C326 C 0.91635 0.19313 0.55883 0.0
C327 C 0.95595 0.18231 0.55056 0.0
H328 H 0.96552 0.17928 0.5343 0.0
H329 H 0.96509 0.19249 0.56333 0.0
H330 H 0.95347 0.16638 0.55894 0.0
O331 O 0.94366 0.18357 0.47432 0.0
O332 O 0.90813 0.18576 0.4704 0.0
H333 H 0.86891 0.18737 0.54527 0.0
H334 H 0.87379 0.20661 0.56835 0.0
C335 C 0.87669 0.20309 0.54932 0.0
H336 H 0.86908 0.21582 0.53822 0.0
H337 H 0.87375 0.16952 0.50154 0.0
O338 O 0.97713 0.2082 0.50558 0.0
C339 C 0.92606 0.1769 0.46534 0.0
Co340 Co 0.52574 0.17885 0.26105 0.0
Co341 Co 0.55087 0.14189 0.23881 0.0
C342 C 0.50759 0.15383 0.21939 0.0
O343 O 0.50694 0.16906 0.23444 0.0
O344 O 0.52324 0.14048 0.21973 0.0
C345 C 0.49317 0.17839 0.29441 0.0
O346 O 0.49437 0.15759 0.28997 0.0
C347 C 0.56211 0.09961 0.22387 0.0
C348 C 0.5974 0.10139 0.21771 0.0
C349 C 0.57977 0.08759 0.21692 0.0
N350 N 0.56877 0.11975 0.22802 0.0
N351 N 0.58981 0.12096 0.22401 0.0
C352 C 0.53981 0.09163 0.22952 0.0
H353 H 0.53128 0.10316 0.24135 0.0
H354 H 0.54053 0.07554 0.2382 0.0
H355 H 0.5305 0.08996 0.21275 0.0
C356 C 0.54588 0.16249 0.3033 0.0
N357 N 0.53939 0.15864 0.28088 0.0
N358 N 0.5494 0.14165 0.27247 0.0
C359 C 0.56266 0.13386 0.28968 0.0
C360 C 0.56051 0.14669 0.31001 0.0
C361 C 0.54269 0.18385 0.31557 0.0
H362 H 0.54022 0.19694 0.3024 0.0
H363 H 0.52832 0.18285 0.32733 0.0
H364 H 0.55685 0.18826 0.32667 0.0
O365 O 0.54908 0.19722 0.247 0.0
O366 O 0.56562 0.16861 0.23113 0.0
H367 H 0.59321 0.12424 0.27558 0.0
H368 H 0.58571 0.1105 0.30266 0.0
C369 C 0.57954 0.11698 0.28556 0.0
H370 H 0.57271 0.10365 0.27473 0.0
H371 H 0.59905 0.13491 0.22636 0.0
O372 O 0.50499 0.19165 0.28276 0.0
C373 C 0.56459 0.18881 0.2351 0.0
Co374 Co 0.58279 0.75829 0.01086 0.0
Co375 Co 0.62065 0.78409 0.99127 0.0
C376 C 0.61239 0.74112 0.97168 0.0
O377 O 0.59588 0.74055 0.98509 0.0
O378 O 0.62588 0.75654 0.97354 0.0
C379 C 0.58354 0.72734 0.0473 0.0
O380 O 0.60437 0.73144 0.0467 0.0
C381 C 0.66205 0.79983 0.97765 0.0
C382 C 0.65694 0.83497 0.97325 0.0
C383 C 0.6724 0.81883 0.97183 0.0
N384 N 0.64129 0.80432 0.98175 0.0
N385 N 0.6381 0.82527 0.9788 0.0
C386 C 0.67213 0.77821 0.98235 0.0
H387 H 0.66179 0.76854 0.99446 0.0
H388 H 0.68844 0.78006 0.99035 0.0
H389 H 0.67386 0.76941 0.96528 0.0
C390 C 0.59334 0.78378 0.05182 0.0
N391 N 0.59995 0.7751 0.03122 0.0
N392 N 0.61842 0.78355 0.02487 0.0
C393 C 0.62505 0.79715 0.04234 0.0
C394 C 0.60936 0.79757 0.06044 0.0
C395 C 0.56991 0.78371 0.05894 0.0
H396 H 0.55953 0.77869 0.04381 0.0
H397 H 0.56719 0.77221 0.0736 0.0
H398 H 0.56481 0.8 0.06504 0.0
O399 O 0.56357 0.77893 0.99417 0.0
O400 O 0.59291 0.79511 0.97963 0.0
H401 H 0.64074 0.8267 0.03301 0.0
H402 H 0.65229 0.81313 0.05845 0.0
C403 C 0.645 0.81071 0.04061 0.0
H404 H 0.65702 0.80289 0.02879 0.0
H405 H 0.62327 0.83299 0.98134 0.0
O406 O 0.57062 0.73697 0.03296 0.0
C407 C 0.57242 0.79326 0.981 0.0
Co408 Co 0.97239 0.17601 0.78721 0.0
Co409 Co 0.962 0.12842 0.78876 0.0
C410 C 1.0022 0.14872 0.81241 0.0
O411 O 0.99838 0.16746 0.80421 0.0
O412 O 0.98959 0.1329 0.80778 0.0
C413 C 0.98208 0.22189 0.77701 0.0
O414 O 1.00246 0.2181 0.77183 0.0
C415 C 0.96804 0.0864 0.7682 0.0
C416 C 0.94584 0.06654 0.79002 0.0
C417 C 0.96004 0.06586 0.77104 0.0
N418 N 0.95874 0.09893 0.78465 0.0
N419 N 0.94559 0.08705 0.79775 0.0
C420 C 0.98507 0.09376 0.75114 0.0
H421 H 0.99161 0.10974 0.75648 0.0
H422 H 0.97808 0.09504 0.73305 0.0
H423 H 0.99834 0.08169 0.75037 0.0
C424 C 0.96492 0.17065 0.73597 0.0
N425 N 0.96841 0.16217 0.75764 0.0
N426 N 0.96053 0.14251 0.75835 0.0
C427 C 0.95052 0.13838 0.73735 0.0
C428 C 0.95304 0.15619 0.72246 0.0
C429 C 0.97108 0.19302 0.72885 0.0
H430 H 0.95876 0.20437 0.7358 0.0
H431 H 0.98715 0.197 0.73632 0.0
H432 H 0.97175 0.19468 0.70922 0.0
O433 O 0.94682 0.17164 0.80722 0.0
O434 O 0.93755 0.13725 0.8083 0.0
H435 H 0.93166 0.11137 0.74996 0.0
H436 H 0.92029 0.12562 0.72477 0.0
C437 C 0.9355 0.11981 0.73312 0.0
H438 H 0.94313 0.10832 0.72053 0.0
H439 H 0.93631 0.09299 0.81179 0.0
O440 O 0.96986 0.20663 0.78328 0.0
C441 C 0.93423 0.1567 0.81406 0.0
Co442 Co 0.57931 0.24279 0.50664 0.0
Co443 Co 0.62202 0.22417 0.52614 0.0
C444 C 0.60537 0.26757 0.5421 0.0
O445 O 0.58862 0.26585 0.52907 0.0
O446 O 0.62012 0.25321 0.54152 0.0
C447 C 0.5396 0.26184 0.47572 0.0
O448 O 0.53711 0.28286 0.47424 0.0
C449 C 0.66791 0.22093 0.52238 0.0
C450 C 0.67484 0.18934 0.53903 0.0
C451 C 0.68411 0.20608 0.52626 0.0
N452 N 0.64975 0.21332 0.53226 0.0
N453 N 0.65402 0.19471 0.54278 0.0
C454 C 0.66875 0.24012 0.50621 0.0
H455 H 0.65323 0.24914 0.5066 0.0
H456 H 0.6721 0.2347 0.48777 0.0
H457 H 0.68218 0.25093 0.51168 0.0
C458 C 0.59758 0.22788 0.46142 0.0
N459 N 0.60042 0.23329 0.48443 0.0
N460 N 0.61708 0.22261 0.49284 0.0
C461 C 0.62453 0.20904 0.47579 0.0
C462 C 0.61227 0.2119 0.45528 0.0
C463 C 0.58031 0.23683 0.44566 0.0
H464 H 0.56519 0.22768 0.44855 0.0
H465 H 0.57766 0.25415 0.44969 0.0
H466 H 0.58488 0.23518 0.42666 0.0
O467 O 0.56974 0.21741 0.5263 0.0
O468 O 0.60091 0.20582 0.54175 0.0
H469 H 0.6382 0.17778 0.46714 0.0
H470 H 0.65683 0.19718 0.47923 0.0
C471 C 0.64006 0.19093 0.48038 0.0
H472 H 0.63748 0.18428 0.49844 0.0
H473 H 0.64242 0.18497 0.55093 0.0
O474 O 0.55517 0.25431 0.48785 0.0
C475 C 0.58044 0.20466 0.53982 0.0
Co476 Co 0.55123 0.82978 0.28233 0.0
Co477 Co 0.55601 0.87859 0.28458 0.0
C478 C 0.51782 0.85847 0.30692 0.0
O479 O 0.52549 0.84008 0.30112 0.0
O480 O 0.52712 0.87591 0.30051 0.0
C481 C 0.5358 0.79756 0.25363 0.0
O482 O 0.52347 0.81345 0.24606 0.0
C483 C 0.55492 0.92507 0.27541 0.0
C484 C 0.59001 0.93204 0.27789 0.0
C485 C 0.57025 0.94111 0.27211 0.0
N486 N 0.56538 0.90714 0.28221 0.0
N487 N 0.58623 0.9115 0.2841 0.0
C488 C 0.53086 0.92668 0.27267 0.0
H489 H 0.52272 0.91627 0.28598 0.0
H490 H 0.52595 0.92095 0.2548 0.0
H491 H 0.52537 0.94364 0.27487 0.0
C492 C 0.56807 0.83754 0.23412 0.0
N493 N 0.55891 0.84486 0.25427 0.0
N494 N 0.55771 0.86595 0.25348 0.0
C495 C 0.56404 0.87257 0.23151 0.0
C496 C 0.57036 0.85452 0.21826 0.0
C497 C 0.58126 0.81724 0.23308 0.0
H498 H 0.58234 0.80951 0.2508 0.0
H499 H 0.5744 0.80592 0.2199 0.0
H500 H 0.59792 0.82107 0.22699 0.0
O501 O 0.57604 0.83015 0.3023 0.0
O502 O 0.57872 0.8657 0.30594 0.0
H503 H 0.5807 0.90276 0.2304 0.0
H504 H 0.56473 0.89707 0.20421 0.0
C505 C 0.56533 0.89564 0.22385 0.0
H506 H 0.55171 0.90484 0.23148 0.0
H507 H 0.59806 0.90015 0.28849 0.0
O508 O 0.54673 0.80016 0.27247 0.0
C509 C 0.58538 0.84671 0.31062 0.0
Co510 Co 0.93018 0.8027 0.03186 0.0
Co511 Co 0.88154 0.80554 0.03848 0.0
C512 C 0.90419 0.76751 0.05805 0.0
O513 O 0.92159 0.77579 0.05 0.0
O514 O 0.886 0.7766 0.05429 0.0
C515 C 0.9515 0.78148 0.99999 0.0
O516 O 0.93293 0.77136 1.00238 0.0
C517 C 0.83521 0.80323 0.03178 0.0
C518 C 0.82669 0.83775 0.03621 0.0
C519 C 0.81847 0.81791 0.02934 0.0
N520 N 0.85271 0.81413 0.03901 0.0
N521 N 0.84745 0.83462 0.04218 0.0
C522 C 0.83474 0.77929 0.02779 0.0
H523 H 0.8443 0.77108 0.04183 0.0
H524 H 0.84233 0.77526 0.01052 0.0
H525 H 0.8179 0.77306 0.02798 0.0
C526 C 0.91907 0.82115 0.98594 0.0
N527 N 0.91278 0.81175 0.00632 0.0
N528 N 0.89181 0.80921 0.0064 0.0
C529 C 0.88412 0.81565 0.98482 0.0
C530 C 0.90146 0.82295 0.97085 0.0
C531 C 0.93986 0.83347 0.98351 0.0
H532 H 0.94884 0.83393 1.00057 0.0
H533 H 0.9501 0.8263 0.96956 0.0
H534 H 0.93632 0.85029 0.97785 0.0
O535 O 0.93171 0.82669 0.05363 0.0
O536 O 0.89605 0.82739 0.05892 0.0
H537 H 0.85305 0.8306 0.98647 0.0
H538 H 0.85854 0.81702 0.95867 0.0
C539 C 0.86072 0.81623 0.97822 0.0
H540 H 0.85252 0.80163 0.98497 0.0
H541 H 0.85839 0.84671 0.04695 0.0
O542 O 0.95676 0.79583 0.01511 0.0
C543 C 0.91491 0.83468 0.06332 0.0
Co544 Co 0.53239 0.64273 0.81107 0.0
Co545 Co 0.57123 0.64748 0.77817 0.0
C546 C 0.53445 0.68131 0.78034 0.0
O547 O 0.52267 0.66976 0.79389 0.0
O548 O 0.55274 0.67416 0.77341 0.0
C549 C 0.49004 0.63296 0.82953 0.0
O550 O 0.48284 0.63411 0.80759 0.0
C551 C 0.58678 0.64993 0.72971 0.0
C552 C 0.62231 0.65011 0.73397 0.0
C553 C 0.60598 0.65121 0.71709 0.0
N554 N 0.59155 0.64796 0.75291 0.0
N555 N 0.6128 0.64794 0.75538 0.0
C556 C 0.56423 0.65222 0.7202 0.0
H557 H 0.56324 0.66641 0.70817 0.0
H558 H 0.55234 0.65383 0.73479 0.0
H559 H 0.55984 0.63767 0.70979 0.0
C560 C 0.53238 0.59716 0.79139 0.0
N561 N 0.53974 0.61778 0.7922 0.0
N562 N 0.55629 0.61968 0.77776 0.0
C563 C 0.55969 0.60032 0.76687 0.0
C564 C 0.54449 0.58513 0.77501 0.0
C565 C 0.51542 0.58849 0.80781 0.0
H566 H 0.51745 0.59559 0.82574 0.0
H567 H 0.4992 0.59295 0.80094 0.0
H568 H 0.51641 0.57065 0.80937 0.0
O569 O 0.55672 0.65196 0.8317 0.0
O570 O 0.58623 0.65346 0.80949 0.0
H571 H 0.59268 0.60218 0.75549 0.0
H572 H 0.57784 0.57976 0.74267 0.0
C573 C 0.57679 0.5968 0.74846 0.0
H574 H 0.573 0.60674 0.73266 0.0
H575 H 0.62079 0.64697 0.77169 0.0
O576 O 0.51001 0.63549 0.83373 0.0
C577 C 0.57685 0.65582 0.82957 0.0
Co578 Co 0.61447 0.28517 0.06424 0.0
Co579 Co 0.61039 0.32413 0.03083 0.0
C580 C 0.57912 0.28428 0.03136 0.0
O581 O 0.59073 0.27227 0.04462 0.0
O582 O 0.58564 0.30322 0.02596 0.0
C583 C 0.6258 0.24808 0.09636 0.0
O584 O 0.63161 0.23525 0.07891 0.0
C585 C 0.61369 0.33423 0.98098 0.0
C586 C 0.60577 0.36897 0.97886 0.0
C587 C 0.61145 0.35123 0.96515 0.0
N588 N 0.60989 0.3416 1.00302 0.0
N589 N 0.6051 0.36238 1.00171 0.0
C590 C 0.61793 0.31096 0.97528 0.0
H591 H 0.61271 0.30039 0.99011 0.0
H592 H 0.63552 0.30846 0.9726 0.0
H593 H 0.60944 0.30626 0.95866 0.0
C594 C 0.66132 0.28695 0.04812 0.0
N595 N 0.64055 0.29395 0.04794 0.0
N596 N 0.63914 0.31108 0.0342 0.0
C597 C 0.65915 0.31546 0.02524 0.0
C598 C 0.67406 0.30007 0.03344 0.0
C599 C 0.66924 0.26886 0.06345 0.0
H600 H 0.66185 0.27014 0.08131 0.0
H601 H 0.66436 0.25325 0.05539 0.0
H602 H 0.68709 0.2692 0.06545 0.0
O603 O 0.59994 0.3098 0.07981 0.0
O604 O 0.60046 0.34053 0.05992 0.0
H605 H 0.6506 0.34567 0.00857 0.0
H606 H 0.67891 0.34219 0.0139 0.0
C607 C 0.6639 0.33373 0.00861 0.0
H608 H 0.66635 0.3273 0.99041 0.0
H609 H 0.60122 0.37199 0.01633 0.0
O610 O 0.61971 0.26724 0.09219 0.0
C611 C 0.59509 0.3297 0.07831 0.0
Co612 Co 0.98435 0.37033 0.31265 0.0
Co613 Co 0.94369 0.35792 0.28521 0.0
C614 C 0.98579 0.33168 0.28247 0.0
O615 O 0.99687 0.34623 0.29286 0.0
O616 O 0.96564 0.33444 0.2791 0.0
C617 C 0.0264 0.38739 0.32003 0.0
O618 O 0.02887 0.3838 0.29718 0.0
C619 C 0.92899 0.35242 0.23759 0.0
C620 C 0.89334 0.35247 0.23937 0.0
C621 C 0.91059 0.35196 0.22362 0.0
N622 N 0.92305 0.35338 0.2605 0.0
N623 N 0.90169 0.35304 0.26158 0.0
C624 C 0.95208 0.35303 0.22943 0.0
H625 H 0.96151 0.36445 0.24056 0.0
H626 H 0.95354 0.35754 0.21044 0.0
H627 H 0.95924 0.33673 0.2317 0.0
C628 C 0.97325 0.41543 0.29428 0.0
N629 N 0.97036 0.39363 0.29563 0.0
N630 N 0.95324 0.38825 0.28322 0.0
C631 C 0.94494 0.40646 0.27313 0.0
C632 C 0.95725 0.42468 0.27976 0.0
C633 C 0.9897 0.42749 0.30859 0.0
H634 H 0.99138 0.42004 0.32641 0.0
H635 H 0.00557 0.42663 0.29945 0.0
H636 H 0.98515 0.4447 0.31082 0.0
O637 O 0.96486 0.35516 0.33636 0.0
O638 O 0.93332 0.34974 0.31815 0.0
H639 H 0.91135 0.40044 0.26647 0.0
H640 H 0.9226 0.42223 0.24867 0.0
C641 C 0.92584 0.40625 0.25675 0.0
H642 H 0.92908 0.39494 0.24204 0.0
H643 H 0.89283 0.35414 0.27732 0.0
O644 O 0.00861 0.38263 0.33005 0.0
C645 C 0.94547 0.3479 0.33655 0.0
Co646 Co 0.89156 0.71662 0.56162 0.0
Co647 Co 0.89957 0.67783 0.52963 0.0
C648 C 0.9295 0.71823 0.53039 0.0
O649 O 0.91727 0.72941 0.54395 0.0
O650 O 0.92368 0.69927 0.52411 0.0
C651 C 0.88301 0.75597 0.58803 0.0
O652 O 0.89151 0.76694 0.57036 0.0
C653 C 0.90221 0.66317 0.4812 0.0
C654 C 0.89843 0.62778 0.48419 0.0
C655 C 0.90024 0.64446 0.46782 0.0
N656 N 0.90145 0.65779 0.50428 0.0
N657 N 0.89954 0.63659 0.50604 0.0
C658 C 0.90166 0.68607 0.47253 0.0
H659 H 0.89606 0.69708 0.48683 0.0
H660 H 0.89082 0.68766 0.45689 0.0
H661 H 0.91822 0.69101 0.46721 0.0
C662 C 0.8457 0.7123 0.54195 0.0
N663 N 0.86701 0.70682 0.54306 0.0
N664 N 0.87033 0.68982 0.52966 0.0
C665 C 0.85127 0.68403 0.51941 0.0
C666 C 0.83463 0.69803 0.52678 0.0
C667 C 0.83588 0.72964 0.557 0.0
H668 H 0.83927 0.72615 0.57599 0.0
H669 H 0.84361 0.74534 0.55268 0.0
H670 H 0.81814 0.73087 0.55442 0.0
O671 O 0.90537 0.69355 0.58142 0.0
O672 O 0.90833 0.66352 0.56048 0.0
H673 H 0.85542 0.65061 0.51061 0.0
H674 H 0.83233 0.66312 0.49618 0.0
C675 C 0.84917 0.66562 0.50229 0.0
H676 H 0.85906 0.66909 0.48637 0.0
H677 H 0.89801 0.62828 0.52209 0.0
O678 O 0.88104 0.73571 0.58629 0.0
C679 C 0.91135 0.67393 0.5798 0.0
Co680 Co 0.52566 0.36855 0.69946 0.0
Co681 Co 0.56585 0.36509 0.73223 0.0
C682 C 0.53006 0.33068 0.73188 0.0
O683 O 0.51807 0.34198 0.71838 0.0
O684 O 0.54844 0.33793 0.73835 0.0
C685 C 0.48802 0.35865 0.67368 0.0
O686 O 0.48412 0.34624 0.69208 0.0
C687 C 0.58398 0.36311 0.7801 0.0
C688 C 0.6191 0.36563 0.77351 0.0
C689 C 0.60393 0.36311 0.79143 0.0
N690 N 0.58723 0.36576 0.75664 0.0
N691 N 0.60826 0.36733 0.75282 0.0
C692 C 0.56218 0.35968 0.79116 0.0
H693 H 0.54974 0.35635 0.7775 0.0
H694 H 0.55722 0.37453 0.80073 0.0
H695 H 0.56286 0.34622 0.80419 0.0
C696 C 0.52614 0.41476 0.71733 0.0
N697 N 0.53328 0.39406 0.71742 0.0
N698 N 0.55005 0.39257 0.73173 0.0
C699 C 0.55379 0.4123 0.74158 0.0
C700 C 0.53878 0.42738 0.7328 0.0
C701 C 0.5087 0.42262 0.70101 0.0
H702 H 0.50864 0.41303 0.68439 0.0
H703 H 0.49277 0.4205 0.70981 0.0
H704 H 0.51095 0.43994 0.69659 0.0
O705 O 0.55014 0.35955 0.67933 0.0
O706 O 0.5802 0.359 0.70072 0.0
H707 H 0.58719 0.41541 0.75096 0.0
H708 H 0.56923 0.43227 0.76847 0.0
C709 C 0.5711 0.4164 0.75964 0.0
H710 H 0.57037 0.40385 0.77356 0.0
H711 H 0.61523 0.3691 0.73605 0.0
O712 O 0.50286 0.37281 0.67508 0.0
C713 C 0.57037 0.35623 0.68097 0.0
Co714 Co 0.88494 0.28293 0.94822 0.0
Co715 Co 0.89674 0.31534 0.98758 0.0
C716 C 0.92666 0.27833 0.97676 0.0
O717 O 0.91296 0.27221 0.96125 0.0
O718 O 0.92236 0.29442 0.9901 0.0
C719 C 0.87272 0.24102 0.93379 0.0
O720 O 0.87455 0.23679 0.95659 0.0
C721 C 0.90186 0.33051 0.03676 0.0
C722 C 0.89812 0.36579 0.03256 0.0
C723 C 0.90137 0.34978 0.04944 0.0
N724 N 0.89876 0.335 0.01359 0.0
N725 N 0.89656 0.35612 0.01122 0.0
C726 C 0.90589 0.30825 0.04628 0.0
H727 H 0.9107 0.29703 0.03194 0.0
H728 H 0.89085 0.30185 0.05437 0.0
H729 H 0.91863 0.30866 0.06019 0.0
C730 C 0.84139 0.28483 0.97078 0.0
N731 N 0.8627 0.28978 0.97026 0.0
N732 N 0.86723 0.30324 0.98759 0.0
C733 C 0.84866 0.30698 1.00003 0.0
C734 C 0.83146 0.29526 0.98989 0.0
C735 C 0.83023 0.27218 0.95167 0.0
H736 H 0.83785 0.27545 0.93422 0.0
H737 H 0.83172 0.25468 0.9556 0.0
H738 H 0.8128 0.27639 0.95058 0.0
O739 O 0.89319 0.30811 0.92902 0.0
O740 O 0.90336 0.33161 0.9567 0.0
H741 H 0.85212 0.33806 0.01615 0.0
H742 H 0.83108 0.32155 0.02931 0.0
C743 C 0.84744 0.3214 0.0213 0.0
H744 H 0.85907 0.31569 0.03487 0.0
H745 H 0.89389 0.36391 0.99503 0.0
O746 O 0.87549 0.26024 0.92653 0.0
C747 C 0.90146 0.32621 0.93479 0.0
Co748 Co 0.97234 0.63842 0.20345 0.0
Co749 Co 0.93461 0.65028 0.23556 0.0
C750 C 0.97506 0.67764 0.23535 0.0
O751 O 0.98374 0.66539 0.21982 0.0
O752 O 0.95669 0.67293 0.24414 0.0
C753 C 0.01397 0.62141 0.18809 0.0
O754 O 0.0208 0.62212 0.21019 0.0
C755 C 0.91612 0.65495 0.28226 0.0
C756 C 0.8811 0.65048 0.27611 0.0
C757 C 0.89642 0.65319 0.2939 0.0
N758 N 0.91257 0.65318 0.25879 0.0
N759 N 0.89158 0.65091 0.25513 0.0
C760 C 0.93829 0.65483 0.29313 0.0
H761 H 0.9503 0.64812 0.28048 0.0
H762 H 0.93859 0.64509 0.30968 0.0
H763 H 0.94305 0.67166 0.29752 0.0
C764 C 0.96511 0.59345 0.22388 0.0
N765 N 0.96119 0.61508 0.2226 0.0
N766 N 0.94501 0.61998 0.23667 0.0
C767 C 0.93858 0.60157 0.24798 0.0
C768 C 0.95103 0.58378 0.24026 0.0
C769 C 0.9804 0.58181 0.20773 0.0
H770 H 0.98015 0.58928 0.18983 0.0
H771 H 0.99703 0.58302 0.21504 0.0
H772 H 0.97607 0.5645 0.20596 0.0
O773 O 0.95073 0.64959 0.18073 0.0
O774 O 0.92332 0.6606 0.20296 0.0
H775 H 0.90563 0.60598 0.25869 0.0
H776 H 0.91982 0.58521 0.27534 0.0
C777 C 0.92134 0.60117 0.26665 0.0
H778 H 0.92548 0.61289 0.28072 0.0
H779 H 0.88456 0.64856 0.23845 0.0
O780 O 0.99491 0.62741 0.18305 0.0
C781 C 0.93258 0.6591 0.18267 0.0
Co782 Co 0.62496 0.72452 0.44156 0.0
Co783 Co 0.60885 0.69237 0.479 0.0
C784 C 0.58293 0.7325 0.46844 0.0
O785 O 0.59781 0.73832 0.45413 0.0
O786 O 0.58538 0.71543 0.48078 0.0
C787 C 0.64228 0.76497 0.43015 0.0
O788 O 0.6399 0.76797 0.45312 0.0
C789 C 0.60138 0.68167 0.52797 0.0
C790 C 0.60444 0.64616 0.52933 0.0
C791 C 0.6022 0.66434 0.54351 0.0
N792 N 0.60363 0.67421 0.50572 0.0
N793 N 0.60497 0.6529 0.50652 0.0
C794 C 0.59957 0.70521 0.53399 0.0
H795 H 0.58434 0.71164 0.52634 0.0
H796 H 0.61317 0.71422 0.52577 0.0
H797 H 0.59921 0.70811 0.55342 0.0
C798 C 0.66819 0.71697 0.46548 0.0
N799 N 0.64632 0.71477 0.46393 0.0
N800 N 0.63959 0.70145 0.48048 0.0
C801 C 0.65713 0.69506 0.49341 0.0
C802 C 0.67615 0.7046 0.48441 0.0
C803 C 0.68154 0.72873 0.44748 0.0
H804 H 0.67388 0.72766 0.4297 0.0
H805 H 0.68264 0.74601 0.45262 0.0
H806 H 0.69816 0.72201 0.44647 0.0
O807 O 0.61341 0.70087 0.42129 0.0
O808 O 0.60139 0.6771 0.44787 0.0
H809 H 0.65009 0.66411 0.50852 0.0
H810 H 0.67127 0.67881 0.52399 0.0
C811 C 0.6557 0.68028 0.51438 0.0
H812 H 0.64381 0.68688 0.52702 0.0
H813 H 0.60744 0.6431 0.49168 0.0
O814 O 0.63765 0.74667 0.42127 0.0
C815 C 0.60346 0.68337 0.42625 0.0
Co816 Co 0.44565 0.32002 0.21578 0.0
Co817 Co 0.45116 0.36546 0.23498 0.0
C818 C 0.48411 0.34924 0.2023 0.0
O819 O 0.47298 0.33189 0.2015 0.0
O820 O 0.47837 0.36488 0.21568 0.0
C821 C 0.46137 0.28204 0.22582 0.0
O822 O 0.47774 0.29516 0.22959 0.0
C823 C 0.4526 0.41126 0.246 0.0
C824 C 0.42467 0.41282 0.27065 0.0
C825 C 0.43924 0.42532 0.25818 0.0
N826 N 0.44619 0.39115 0.25127 0.0
N827 N 0.42964 0.3922 0.26608 0.0
C828 C 0.46814 0.41659 0.22648 0.0
H829 H 0.48379 0.40837 0.22993 0.0
H830 H 0.4708 0.43427 0.22492 0.0
H831 H 0.46174 0.41026 0.2094 0.0
C832 C 0.43069 0.31366 0.2648 0.0
N833 N 0.44147 0.32514 0.24839 0.0
N834 N 0.44902 0.34276 0.25797 0.0
C835 C 0.44573 0.34183 0.28178 0.0
C836 C 0.43387 0.32306 0.28718 0.0
C837 C 0.41283 0.29845 0.25787 0.0
H838 H 0.40817 0.30103 0.23902 0.0
H839 H 0.41806 0.28152 0.25971 0.0
H840 H 0.39846 0.30092 0.26937 0.0
O841 O 0.4216 0.33154 0.19953 0.0
O842 O 0.42565 0.36531 0.21218 0.0
H843 H 0.44097 0.36838 0.30573 0.0
H844 H 0.46227 0.35013 0.31405 0.0
C845 C 0.45438 0.35831 0.29877 0.0
H846 H 0.46628 0.36898 0.28979 0.0
H847 H 0.42035 0.37893 0.27123 0.0
O848 O 0.44577 0.28879 0.21327 0.0
C849 C 0.41559 0.35107 0.20011 0.0
Co850 Co 0.4298 0.72875 0.99315 0.0
Co851 Co 0.38337 0.71689 0.98284 0.0
C852 C 0.40458 0.75796 0.96359 0.0
O853 O 0.42228 0.75471 0.97452 0.0
O854 O 0.38887 0.74483 0.9659 0.0
C855 C 0.46707 0.74645 0.01665 0.0
O856 O 0.45656 0.76486 0.01815 0.0
C857 C 0.3402 0.72389 0.996 0.0
C858 C 0.32191 0.69978 0.97502 0.0
C859 C 0.31983 0.7158 0.99209 0.0
N860 N 0.35387 0.71297 0.98219 0.0
N861 N 0.34303 0.69869 0.96945 0.0
C862 C 0.34679 0.74205 0.01206 0.0
H863 H 0.36165 0.74996 1.00524 0.0
H864 H 0.35041 0.73558 0.03001 0.0
H865 H 0.33355 0.75409 0.01367 0.0
C866 C 0.41674 0.71728 0.04254 0.0
N867 N 0.41172 0.7226 0.01992 0.0
N868 N 0.39281 0.71426 0.01476 0.0
C869 C 0.38588 0.70217 0.03333 0.0
C870 C 0.401 0.70358 0.05161 0.0
C871 C 0.43606 0.72533 0.05579 0.0
H872 H 0.43872 0.74257 0.05163 0.0
H873 H 0.43377 0.72393 0.07528 0.0
H874 H 0.45029 0.71554 0.0507 0.0
O875 O 0.43041 0.7031 0.9713 0.0
O876 O 0.39618 0.69419 0.9647 0.0
H877 H 0.37015 0.67234 0.04322 0.0
H878 H 0.35247 0.69506 0.03888 0.0
C879 C 0.36717 0.68685 0.03209 0.0
H880 H 0.3642 0.68179 0.01347 0.0
H881 H 0.35008 0.68799 0.95739 0.0
O882 O 0.45898 0.73099 1.00487 0.0
C883 C 0.41621 0.69095 0.96165 0.0
Co884 Co 0.05144 0.68047 0.72892 0.0
Co885 Co 0.05505 0.63197 0.73492 0.0
C886 C 0.01799 0.6485 0.70791 0.0
O887 O 0.02613 0.66714 0.7117 0.0
O888 O 0.0267 0.63162 0.71697 0.0
C889 C 0.02977 0.71033 0.7514 0.0
O890 O 0.017 0.69339 0.75287 0.0
C891 C 0.06181 0.58491 0.74337 0.0
C892 C 0.09653 0.58715 0.75315 0.0
C893 C 0.07979 0.57275 0.74974 0.0
N894 N 0.0679 0.60569 0.74297 0.0
N895 N 0.08855 0.60687 0.74893 0.0
C896 C 0.03978 0.57705 0.73656 0.0
H897 H 0.03188 0.58868 0.72432 0.0
H898 H 0.0297 0.57573 0.75281 0.0
H899 H 0.04075 0.56088 0.72811 0.0
C900 C 0.0673 0.67873 0.77804 0.0
N901 N 0.05853 0.66906 0.75896 0.0
N902 N 0.05534 0.64865 0.76351 0.0
C903 C 0.05989 0.64506 0.78682 0.0
C904 C 0.06719 0.66439 0.79706 0.0
C905 C 0.08256 0.69747 0.7757 0.0
H906 H 0.08097 0.70528 0.75807 0.0
H907 H 0.08041 0.70941 0.79008 0.0
H908 H 0.09938 0.69136 0.77736 0.0
O909 O 0.07657 0.67852 0.70969 0.0
O910 O 0.07744 0.64277 0.71183 0.0
H911 H 0.07516 0.61648 0.79977 0.0
H912 H 0.05221 0.62513 0.81688 0.0
C913 C 0.05865 0.62345 0.79856 0.0
H914 H 0.04824 0.61233 0.78811 0.0
H915 H 0.09729 0.62127 0.74989 0.0
O916 O 0.04454 0.71025 0.73578 0.0
C917 C 0.08497 0.66057 0.70406 0.0
Co918 Co 0.0677 0.31406 0.47142 0.0
Co919 Co 0.11705 0.31245 0.47857 0.0
C920 C 0.09741 0.27763 0.45101 0.0
O921 O 0.07961 0.28788 0.45359 0.0
O922 O 0.11466 0.28443 0.46106 0.0
C923 C 0.02598 0.29877 0.48328 0.0
O924 O 0.00477 0.2991 0.48446 0.0
C925 C 0.165 0.31241 0.48586 0.0
C926 C 0.16793 0.3466 0.49713 0.0
C927 C 0.17981 0.32833 0.49194 0.0
N928 N 0.14512 0.3211 0.48739 0.0
N929 N 0.14707 0.34143 0.49425 0.0
C930 C 0.16969 0.29017 0.47683 0.0
H931 H 0.15672 0.28473 0.4646 0.0
H932 H 0.17031 0.27887 0.49212 0.0
H933 H 0.18555 0.28968 0.4676 0.0
C934 C 0.06967 0.32476 0.52367 0.0
N935 N 0.07838 0.31765 0.50304 0.0
N936 N 0.09908 0.31395 0.50636 0.0
C937 C 0.10382 0.31667 0.52964 0.0
C938 C 0.08526 0.32362 0.54154 0.0
C939 C 0.04811 0.33568 0.52552 0.0
H940 H 0.03775 0.33218 0.51004 0.0
H941 H 0.03982 0.33103 0.54224 0.0
H942 H 0.05063 0.35342 0.52583 0.0
O943 O 0.07497 0.33963 0.45414 0.0
O944 O 0.11053 0.33613 0.45561 0.0
H945 H 0.13379 0.33181 0.53852 0.0
H946 H 0.12656 0.31064 0.55838 0.0
C947 C 0.12633 0.31555 0.53951 0.0
H948 H 0.13624 0.304 0.5291 0.0
H949 H 0.13405 0.352 0.49629 0.0
O950 O 0.03581 0.3126 0.47071 0.0
C951 C 0.09373 0.34603 0.44856 0.0
Co952 Co 0.48759 0.67596 0.25103 0.0
Co953 Co 0.46442 0.63671 0.27098 0.0
C954 C 0.50702 0.64956 0.29121 0.0
O955 O 0.5071 0.66562 0.27714 0.0
O956 O 0.49198 0.63558 0.28984 0.0
C957 C 0.51958 0.68107 0.21746 0.0
O958 O 0.5216 0.6602 0.22104 0.0
C959 C 0.4533 0.59247 0.27606 0.0
C960 C 0.41918 0.59386 0.28792 0.0
C961 C 0.43539 0.5798 0.28082 0.0
N962 N 0.44778 0.61303 0.27983 0.0
N963 N 0.42758 0.61388 0.28742 0.0
C964 C 0.47431 0.58591 0.26486 0.0
H965 H 0.48273 0.60015 0.25725 0.0
H966 H 0.47158 0.57369 0.25073 0.0
H967 H 0.48495 0.57869 0.27862 0.0
C968 C 0.46807 0.66028 0.20736 0.0
N969 N 0.4749 0.65605 0.22964 0.0
N970 N 0.46569 0.63828 0.23726 0.0
C971 C 0.45276 0.63048 0.21969 0.0
C972 C 0.45433 0.64401 0.19996 0.0
C973 C 0.46977 0.68198 0.19563 0.0
H974 H 0.47319 0.6949 0.20869 0.0
H975 H 0.48266 0.68117 0.182 0.0
H976 H 0.45451 0.6863 0.18635 0.0
O977 O 0.46314 0.69204 0.266 0.0
O978 O 0.44807 0.66207 0.28043 0.0
H979 H 0.42498 0.61733 0.23714 0.0
H980 H 0.42738 0.60966 0.20624 0.0
C981 C 0.43649 0.61282 0.22288 0.0
H982 H 0.44485 0.59776 0.22814 0.0
H983 H 0.4192 0.62814 0.29098 0.0
O984 O 0.50669 0.69223 0.23024 0.0
C985 C 0.44807 0.68244 0.27745 0.0
Co986 Co 0.06512 0.71066 0.02154 0.0
Co987 Co 0.11195 0.70902 0.03564 0.0
C988 C 0.08641 0.74588 0.05268 0.0
O989 O 0.07034 0.73767 0.04168 0.0
O990 O 0.10487 0.73703 0.05132 0.0
C991 C 0.05041 0.73244 0.98521 0.0
O992 O 0.06924 0.74116 0.99033 0.0
C993 C 0.15709 0.71659 0.03868 0.0
C994 C 0.16892 0.68809 0.05865 0.0
C995 C 0.17524 0.7075 0.04868 0.0
N996 N 0.14056 0.70325 0.04268 0.0
N997 N 0.14754 0.68627 0.05471 0.0
C998 C 0.15509 0.73821 0.0269 0.0
H999 H 0.13802 0.74164 0.02209 0.0
H1000 H 0.16504 0.7387 0.01055 0.0
H1001 H 0.16128 0.75094 0.03902 0.0
C1002 C 0.0829 0.69254 0.97769 0.0
N1003 N 0.08606 0.70108 0.9994 0.0
N1004 N 0.10653 0.70557 1.00235 0.0
C1005 C 0.11682 0.70168 0.98143 0.0
C1006 C 0.10197 0.6932 0.96504 0.0
C1007 C 0.06185 0.68367 0.96878 0.0
H1008 H 0.05009 0.68156 0.98348 0.0
H1009 H 0.05514 0.69452 0.95495 0.0
H1010 H 0.0647 0.6678 0.96013 0.0
O1011 O 0.06061 0.68628 0.0428 0.0
O1012 O 0.09557 0.68621 0.05233 0.0
H1013 H 0.14551 0.6985 0.95989 0.0
H1014 H 0.14335 0.72323 0.97684 0.0
C1015 C 0.14033 0.70557 0.97711 0.0
H1016 H 0.14998 0.69847 0.99179 0.0
H1017 H 0.13772 0.67357 0.06036 0.0
O1018 O 0.04212 0.71879 0.99959 0.0
C1019 C 0.07661 0.67833 0.0542 0.0
Co1020 Co 0.99965 0.33635 0.75365 0.0
Co1021 Co 0.03028 0.37042 0.77338 0.0
C1022 C 0.98719 0.36535 0.79499 0.0
O1023 O 0.98422 0.34977 0.7807 0.0
O1024 O 0.00403 0.37708 0.79315 0.0
C1025 C 0.96126 0.33541 0.72687 0.0
O1026 O 0.96088 0.35621 0.73141 0.0
C1027 C 0.05071 0.41121 0.77989 0.0
C1028 C 0.08372 0.40248 0.79181 0.0
C1029 C 0.07059 0.41985 0.78604 0.0
N1030 N 0.05204 0.38979 0.78199 0.0
N1031 N 0.07163 0.38454 0.78944 0.0
C1032 C 0.03151 0.42249 0.7693 0.0
H1033 H 0.02079 0.41075 0.76014 0.0
H1034 H 0.03677 0.43512 0.75655 0.0
H1035 H 0.02208 0.43033 0.78368 0.0
C1036 C 0.01802 0.35057 0.7087 0.0
N1037 N 0.01402 0.35461 0.73182 0.0
N1038 N 0.0277 0.36915 0.73965 0.0
C1039 C 0.0413 0.37446 0.72167 0.0
C1040 C 0.03539 0.36304 0.7013 0.0
C1041 C 0.00867 0.33174 0.69547 0.0
H1042 H 0.00928 0.31717 0.70688 0.0
H1043 H 0.99156 0.33526 0.69107 0.0
H1044 H 0.01732 0.32842 0.6786 0.0
O1045 O 0.02102 0.31556 0.76848 0.0
O1046 O 0.04031 0.34245 0.7837 0.0
H1047 H 0.07155 0.38727 0.7083 0.0
H1048 H 0.05865 0.40303 0.73124 0.0
C1049 C 0.06213 0.38639 0.72506 0.0
H1050 H 0.07197 0.37818 0.73887 0.0
H1051 H 0.07697 0.36872 0.79205 0.0
O1052 O 0.97624 0.32352 0.7355 0.0
C1053 C 0.03667 0.32238 0.78138 0.0
Co1054 Co 0.42333 0.24425 0.50802 0.0
Co1055 Co 0.38721 0.27612 0.52227 0.0
C1056 C 0.3897 0.23248 0.54414 0.0
O1057 O 0.40546 0.22825 0.53059 0.0
O1058 O 0.38025 0.25071 0.54322 0.0
C1059 C 0.42832 0.208 0.47854 0.0
O1060 O 0.40731 0.21049 0.47639 0.0
C1061 C 0.34428 0.29382 0.52241 0.0
C1062 C 0.35013 0.32846 0.52959 0.0
C1063 C 0.33404 0.31367 0.52408 0.0
N1064 N 0.3654 0.29685 0.5265 0.0
N1065 N 0.36884 0.31747 0.53122 0.0
C1066 C 0.33497 0.27271 0.51431 0.0
H1067 H 0.34801 0.26167 0.50825 0.0
H1068 H 0.32314 0.27525 0.49972 0.0
H1069 H 0.32644 0.26493 0.5294 0.0
C1070 C 0.41494 0.26371 0.46134 0.0
N1071 N 0.40891 0.25989 0.48395 0.0
N1072 N 0.3917 0.27148 0.48895 0.0
C1073 C 0.38562 0.28228 0.469 0.0
C1074 C 0.40012 0.27743 0.45089 0.0
C1075 C 0.437 0.25927 0.45149 0.0
H1076 H 0.44688 0.24916 0.46349 0.0
H1077 H 0.43563 0.25184 0.43366 0.0
H1078 H 0.44557 0.27487 0.44896 0.0
O1079 O 0.44095 0.26507 0.52674 0.0
O1080 O 0.41426 0.28842 0.53473 0.0
H1081 H 0.36659 0.3058 0.44969 0.0
H1082 H 0.35217 0.29054 0.47192 0.0
C1083 C 0.36773 0.2985 0.46767 0.0
H1084 H 0.37061 0.31148 0.48086 0.0
H1085 H 0.38406 0.32417 0.53443 0.0
O1086 O 0.43896 0.22075 0.49206 0.0
C1087 C 0.43406 0.28273 0.53576 0.0
H1088 H 0.09363 0.14558 0.08654 0.0
H1089 H 0.13821 0.19939 0.07997 0.0
H1090 H 0.14314 0.19983 0.12344 0.0
H1091 H 0.06828 0.16311 0.14073 0.0
H1092 H 0.06586 0.13623 0.15278 0.0
H1093 H 0.0657 0.14025 0.12107 0.0
H1094 H 0.09779 0.11354 0.1167 0.0
H1095 H 0.09806 0.10944 0.14839 0.0
H1096 H 0.12228 0.11817 0.13337 0.0
H1097 H 0.14368 0.1941 0.16736 0.0
H1098 H 0.13835 0.1837 0.20932 0.0
H1099 H 0.09433 0.1329 0.18715 0.0
C1100 C 0.10436 0.15748 0.09432 0.0
C1101 C 0.1151 0.17281 0.08004 0.0
C1102 C 0.12918 0.18803 0.09069 0.0
C1103 C 0.13232 0.18822 0.11533 0.0
C1104 C 0.12135 0.17299 0.12895 0.0
C1105 C 0.10762 0.15793 0.11888 0.0
C1106 C 0.09768 0.14343 0.13757 0.0
C1107 C 0.07291 0.14591 0.13806 0.0
C1108 C 0.10436 0.11974 0.13377 0.0
C1109 C 0.10798 0.15274 0.15972 0.0
C1110 C 0.12165 0.1697 0.15433 0.0
C1111 C 0.13298 0.18088 0.17183 0.0
C1112 C 0.12994 0.17478 0.19557 0.0
C1113 C 0.1156 0.15779 0.20152 0.0
C1114 C 0.10484 0.1464 0.18327 0.0
H1115 H 0.08526 0.86277 0.43568 0.0
H1116 H 0.1414 0.82148 0.44477 0.0
H1117 H 0.14615 0.81982 0.40141 0.0
H1118 H 0.06444 0.83742 0.38363 0.0
H1119 H 0.05606 0.86214 0.36939 0.0
H1120 H 0.0571 0.86057 0.40134 0.0
H1121 H 0.08268 0.89374 0.4026 0.0
H1122 H 0.08155 0.89553 0.37066 0.0
H1123 H 0.10733 0.89339 0.38549 0.0
H1124 H 0.1442 0.82141 0.35727 0.0
H1125 H 0.13624 0.82697 0.31483 0.0
H1126 H 0.083 0.86938 0.334 0.0
C1127 C 0.09863 0.85354 0.42848 0.0
C1128 C 0.11256 0.8417 0.44356 0.0
C1129 C 0.12997 0.82993 0.43356 0.0
C1130 C 0.13298 0.8291 0.40893 0.0
C1131 C 0.11864 0.84042 0.3945 0.0
C1132 C 0.10194 0.85261 0.40383 0.0
C1133 C 0.08884 0.86316 0.3842 0.0
C1134 C 0.06521 0.85535 0.38467 0.0
C1135 C 0.09019 0.88793 0.38583 0.0
C1136 C 0.10066 0.85475 0.36246 0.0
C1137 C 0.11779 0.84168 0.36886 0.0
C1138 C 0.13087 0.83169 0.35201 0.0
C1139 C 0.12623 0.83501 0.32791 0.0
C1140 C 0.10864 0.84821 0.32076 0.0
C1141 C 0.09598 0.85848 0.33845 0.0
H1142 H 0.40462 0.88222 0.67829 0.0
H1143 H 0.41845 0.81647 0.70004 0.0
H1144 H 0.41689 0.80456 0.65808 0.0
H1145 H 0.36813 0.86987 0.62999 0.0
H1146 H 0.37834 0.8909 0.61087 0.0
H1147 H 0.37956 0.89408 0.64267 0.0
H1148 H 0.42095 0.90049 0.64007 0.0
H1149 H 0.41986 0.89727 0.60827 0.0
H1150 H 0.4378 0.88062 0.62569 0.0
H1151 H 0.41194 0.79966 0.61467 0.0
H1152 H 0.40726 0.80216 0.57146 0.0
H1153 H 0.40087 0.87186 0.57694 0.0
C1154 C 0.40709 0.86532 0.67407 0.0
C1155 C 0.41135 0.85009 0.69207 0.0
C1156 C 0.41501 0.82819 0.68624 0.0
C1157 C 0.41414 0.82134 0.66258 0.0
C1158 C 0.40997 0.83673 0.64512 0.0
C1159 C 0.40675 0.85829 0.65047 0.0
C1160 C 0.40354 0.8716 0.62816 0.0
C1161 C 0.38105 0.88223 0.62791 0.0
C1162 C 0.42162 0.88849 0.62539 0.0
C1163 C 0.4053 0.85409 0.60949 0.0
C1164 C 0.40878 0.8341 0.61973 0.0
C1165 C 0.40987 0.81528 0.60632 0.0
C1166 C 0.4076 0.81695 0.58168 0.0
C1167 C 0.40501 0.83737 0.57063 0.0
C1168 C 0.40349 0.85611 0.58483 0.0
H1169 H 0.42656 0.1396 0.83576 0.0
H1170 H 0.37135 0.17989 0.81787 0.0
H1171 H 0.36394 0.18522 0.86047 0.0
H1172 H 0.40333 0.11414 0.88679 0.0
H1173 H 0.42807 0.11416 0.90378 0.0
H1174 H 0.42907 0.11311 0.87179 0.0
H1175 H 0.45346 0.14718 0.87114 0.0
H1176 H 0.45268 0.14824 0.90312 0.0
H1177 H 0.44448 0.17142 0.88592 0.0
H1178 H 0.36251 0.18656 0.90438 0.0
H1179 H 0.36763 0.18445 0.9478 0.0
H1180 H 0.42437 0.14429 0.93773 0.0
C1181 C 0.41323 0.14995 0.84069 0.0
C1182 C 0.39978 0.15969 0.82339 0.0
C1183 C 0.3819 0.17231 0.83079 0.0
C1184 C 0.37758 0.17547 0.85493 0.0
C1185 C 0.39124 0.16583 0.87148 0.0
C1186 C 0.40872 0.15336 0.86477 0.0
C1187 C 0.42088 0.14494 0.88628 0.0
C1188 C 0.42029 0.12011 0.88721 0.0
C1189 C 0.44426 0.15346 0.88663 0.0
C1190 C 0.40752 0.15476 0.90609 0.0
C1191 C 0.39046 0.16667 0.89706 0.0
C1192 C 0.37586 0.1774 0.9117 0.0
C1193 C 0.37895 0.17619 0.93627 0.0
C1194 C 0.39659 0.16456 0.94591 0.0
C1195 C 0.41083 0.15337 0.93068 0.0
H1196 H 0.9321 0.81186 0.93861 0.0
H1197 H 0.87414 0.85075 0.94548 0.0
H1198 H 0.87963 0.86442 0.90433 0.0
H1199 H 0.96296 0.85413 0.91067 0.0
H1200 H 0.97838 0.8354 0.89292 0.0
H1201 H 0.96805 0.82716 0.92143 0.0
H1202 H 0.94865 0.79474 0.90164 0.0
H1203 H 0.95885 0.80288 0.87307 0.0
H1204 H 0.93016 0.79948 0.87738 0.0
H1205 H 0.89236 0.87275 0.8602 0.0
H1206 H 0.911 0.87547 0.82108 0.0
H1207 H 0.96438 0.83809 0.84942 0.0
C1208 C 0.92068 0.82359 0.93178 0.0
C1209 C 0.90273 0.83028 0.94549 0.0
C1210 C 0.8878 0.84499 0.93527 0.0
C1211 C 0.89098 0.85305 0.91197 0.0
C1212 C 0.90946 0.8467 0.89937 0.0
C1213 C 0.92417 0.83249 0.90929 0.0
C1214 C 0.94351 0.829 0.89332 0.0
C1215 C 0.96446 0.83691 0.90531 0.0
C1216 C 0.94538 0.80511 0.88592 0.0
C1217 C 0.93738 0.84321 0.87253 0.0
C1218 C 0.91754 0.85304 0.87586 0.0
C1219 C 0.90809 0.86541 0.85772 0.0
C1220 C 0.91891 0.86715 0.8356 0.0
C1221 C 0.9392 0.85699 0.83204 0.0
C1222 C 0.94874 0.84578 0.85129 0.0
H1223 H 0.95277 0.13514 0.67919 0.0
H1224 H 0.92604 0.19036 0.71638 0.0
H1225 H 0.91129 0.20444 0.67877 0.0
H1226 H 0.96877 0.16204 0.62788 0.0
H1227 H 0.96117 0.14123 0.60709 0.0
H1228 H 0.96808 0.13417 0.63719 0.0
H1229 H 0.93107 0.11509 0.64244 0.0
H1230 H 0.92414 0.12182 0.61219 0.0
H1231 H 0.9065 0.12973 0.63616 0.0
H1232 H 0.90424 0.21526 0.63683 0.0
H1233 H 0.90232 0.22034 0.59335 0.0
H1234 H 0.92824 0.15587 0.58314 0.0
C1235 C 0.94325 0.14982 0.67942 0.0
C1236 C 0.94082 0.16185 0.70058 0.0
C1237 C 0.92843 0.18112 0.70026 0.0
C1238 C 0.91989 0.1892 0.679 0.0
C1239 C 0.92328 0.1775 0.65824 0.0
C1240 C 0.93421 0.15798 0.65827 0.0
C1241 C 0.93608 0.14908 0.63321 0.0
C1242 C 0.95994 0.14649 0.62593 0.0
C1243 C 0.9237 0.12766 0.63086 0.0
C1244 C 0.92513 0.16697 0.61916 0.0
C1245 C 0.91797 0.18324 0.63397 0.0
C1246 C 0.90922 0.20236 0.62506 0.0
C1247 C 0.90802 0.20504 0.60033 0.0
C1248 C 0.91515 0.18858 0.58476 0.0
C1249 C 0.92322 0.16906 0.59443 0.0
H1250 H 0.54637 0.1505 0.35523 0.0
H1251 H 0.60496 0.14879 0.31318 0.0
H1252 H 0.62603 0.1613 0.34808 0.0
H1253 H 0.5569 0.19882 0.38207 0.0
H1254 H 0.5453 0.19229 0.41055 0.0
H1255 H 0.53569 0.17893 0.38421 0.0
H1256 H 0.54393 0.14178 0.40296 0.0
H1257 H 0.55392 0.15461 0.42956 0.0
H1258 H 0.57082 0.1359 0.41361 0.0
H1259 H 0.63961 0.17936 0.38632 0.0
H1260 H 0.64409 0.2004 0.42366 0.0
H1261 H 0.57627 0.19065 0.43974 0.0
C1262 C 0.5638 0.15184 0.35372 0.0
C1263 C 0.57415 0.14811 0.33173 0.0
C1264 C 0.59683 0.15083 0.33007 0.0
C1265 C 0.60887 0.15819 0.34976 0.0
C1266 C 0.59795 0.16274 0.37092 0.0
C1267 C 0.57589 0.15945 0.37301 0.0
C1268 C 0.56744 0.16761 0.39661 0.0
C1269 C 0.55033 0.18546 0.39314 0.0
C1270 C 0.55849 0.14886 0.41157 0.0
C1271 C 0.58803 0.17658 0.4073 0.0
C1272 C 0.60556 0.17346 0.39244 0.0
C1273 C 0.62601 0.18162 0.39817 0.0
C1274 C 0.62846 0.19352 0.41936 0.0
C1275 C 0.61051 0.19733 0.43435 0.0
C1276 C 0.59024 0.18824 0.42844 0.0
H1277 H 0.58948 0.78587 0.10181 0.0
H1278 H 0.62561 0.83896 0.07085 0.0
H1279 H 0.62101 0.85965 0.1081 0.0
H1280 H 0.54915 0.82203 0.12449 0.0
H1281 H 0.54313 0.80602 0.15029 0.0
H1282 H 0.55197 0.79307 0.12323 0.0
H1283 H 0.58395 0.7746 0.14456 0.0
H1284 H 0.57503 0.78612 0.17225 0.0
H1285 H 0.60231 0.79063 0.16216 0.0
H1286 H 0.61242 0.87397 0.15136 0.0
H1287 H 0.5984 0.88094 0.19204 0.0
H1288 H 0.56007 0.82243 0.18757 0.0
C1289 C 0.59613 0.80199 0.10235 0.0
C1290 C 0.60801 0.81051 0.08302 0.0
C1291 C 0.61701 0.83152 0.0854 0.0
C1292 C 0.6142 0.8436 0.1065 0.0
C1293 C 0.60169 0.83483 0.12481 0.0
C1294 C 0.59241 0.81464 0.12249 0.0
C1295 C 0.57771 0.80947 0.14314 0.0
C1296 C 0.55409 0.80749 0.13477 0.0
C1297 C 0.58521 0.78899 0.15629 0.0
C1298 C 0.58082 0.82945 0.15814 0.0
C1299 C 0.5949 0.8439 0.14765 0.0
C1300 C 0.60104 0.86288 0.1594 0.0
C1301 C 0.59278 0.86688 0.18244 0.0
C1302 C 0.57809 0.85224 0.19318 0.0
C1303 C 0.5717 0.83371 0.18031 0.0
H1304 H 0.58129 0.64116 0.57794 0.0
H1305 H 0.63195 0.68864 0.56714 0.0
H1306 H 0.63858 0.69 0.61026 0.0
H1307 H 0.56025 0.66426 0.63196 0.0
H1308 H 0.55477 0.63855 0.64578 0.0
H1309 H 0.55408 0.641 0.61388 0.0
H1310 H 0.5823 0.61018 0.61015 0.0
H1311 H 0.58302 0.6076 0.64203 0.0
H1312 H 0.60769 0.61234 0.62577 0.0
H1313 H 0.64005 0.68613 0.65417 0.0
H1314 H 0.63531 0.67811 0.69686 0.0
H1315 H 0.58396 0.63295 0.6795 0.0
C1316 C 0.59372 0.65182 0.58477 0.0
C1317 C 0.60582 0.66511 0.56937 0.0
C1318 C 0.62215 0.67873 0.57874 0.0
C1319 C 0.62614 0.67951 0.60317 0.0
C1320 C 0.61373 0.66647 0.61797 0.0
C1321 C 0.59784 0.6529 0.60922 0.0
C1322 C 0.58672 0.64078 0.62914 0.0
C1323 C 0.56252 0.6465 0.63025 0.0
C1324 C 0.59014 0.61627 0.62662 0.0
C1325 C 0.59885 0.64971 0.65037 0.0
C1326 C 0.61443 0.66442 0.64349 0.0
C1327 C 0.62785 0.67471 0.65984 0.0
C1328 C 0.62511 0.67 0.68399 0.0
C1329 C 0.60897 0.6553 0.69148 0.0
C1330 C 0.59589 0.64484 0.6744 0.0
H1331 H 0.58652 0.37154 0.93189 0.0
H1332 H 0.64322 0.33084 0.93976 0.0
H1333 H 0.64735 0.32953 0.8962 0.0
H1334 H 0.56529 0.34561 0.87995 0.0
H1335 H 0.556 0.3703 0.86635 0.0
H1336 H 0.55757 0.36825 0.89824 0.0
H1337 H 0.58217 0.40216 0.89964 0.0
H1338 H 0.5806 0.40438 0.86777 0.0
H1339 H 0.60661 0.40274 0.88217 0.0
H1340 H 0.64552 0.33283 0.85196 0.0
H1341 H 0.63722 0.33975 0.80967 0.0
H1342 H 0.58219 0.3789 0.8306 0.0
C1343 C 0.59983 0.36243 0.92439 0.0
C1344 C 0.61427 0.3509 0.93911 0.0
C1345 C 0.63154 0.33919 0.92877 0.0
C1346 C 0.63417 0.33855 0.90406 0.0
C1347 C 0.61945 0.34981 0.89 0.0
C1348 C 0.60263 0.36155 0.89974 0.0
C1349 C 0.58895 0.37203 0.8806 0.0
C1350 C 0.56557 0.36353 0.88133 0.0
C1351 C 0.58963 0.3968 0.88268 0.0
C1352 C 0.6007 0.36427 0.8586 0.0
C1353 C 0.61829 0.35157 0.86443 0.0
C1354 C 0.63174 0.34269 0.84715 0.0
C1355 C 0.62695 0.34676 0.82322 0.0
C1356 C 0.60879 0.35943 0.81683 0.0
C1357 C 0.59569 0.3685 0.83482 0.0
H1358 H 0.89357 0.32548 0.1893 0.0
H1359 H 0.92538 0.38712 0.20012 0.0
H1360 H 0.92608 0.39324 0.1568 0.0
H1361 H 0.92307 0.31047 0.13724 0.0
H1362 H 0.9004 0.29804 0.12242 0.0
H1363 H 0.90144 0.29873 0.1544 0.0
H1364 H 0.86411 0.3178 0.15562 0.0
H1365 H 0.86286 0.31697 0.12364 0.0
H1366 H 0.86014 0.34239 0.13899 0.0
H1367 H 0.92437 0.39236 0.1128 0.0
H1368 H 0.91987 0.38478 0.07007 0.0
H1369 H 0.88842 0.32403 0.08733 0.0
C1370 C 0.90044 0.34031 0.18242 0.0
C1371 C 0.90953 0.35581 0.19783 0.0
C1372 C 0.91849 0.37504 0.18845 0.0
C1373 C 0.91895 0.37865 0.16393 0.0
C1374 C 0.91027 0.3629 0.14908 0.0
C1375 C 0.90108 0.34415 0.15788 0.0
C1376 C 0.89328 0.32974 0.13785 0.0
C1377 C 0.90526 0.30796 0.13799 0.0
C1378 C 0.86863 0.32655 0.1391 0.0
C1379 C 0.89965 0.3433 0.11652 0.0
C1380 C 0.9094 0.36234 0.12347 0.0
C1381 C 0.91675 0.3775 0.10708 0.0
C1382 C 0.91409 0.37306 0.08287 0.0
C1383 C 0.90425 0.3536 0.07523 0.0
C1384 C 0.89675 0.33865 0.09238 0.0
H1385 H 0.91635 0.67424 0.33103 0.0
H1386 H 0.86797 0.62559 0.31478 0.0
H1387 H 0.86355 0.61822 0.35764 0.0
H1388 H 0.9419 0.64522 0.3782 0.0
H1389 H 0.947 0.6689 0.39599 0.0
H1390 H 0.94557 0.67112 0.36411 0.0
H1391 H 0.91564 0.70027 0.36808 0.0
H1392 H 0.91698 0.69813 0.39998 0.0
H1393 H 0.89154 0.69427 0.38487 0.0
H1394 H 0.86585 0.6147 0.40181 0.0
H1395 H 0.87285 0.61707 0.44496 0.0
H1396 H 0.9205 0.66727 0.43224 0.0
C1397 C 0.90491 0.66196 0.33647 0.0
C1398 C 0.89269 0.65026 0.31962 0.0
C1399 C 0.87745 0.63476 0.32746 0.0
C1400 C 0.87492 0.63038 0.35172 0.0
C1401 C 0.88766 0.64175 0.36784 0.0
C1402 C 0.90224 0.65734 0.3606 0.0
C1403 C 0.91412 0.66708 0.38156 0.0
C1404 C 0.93859 0.66282 0.37986 0.0
C1405 C 0.90927 0.69138 0.38375 0.0
C1406 C 0.904 0.65443 0.40169 0.0
C1407 C 0.88881 0.63989 0.39339 0.0
C1408 C 0.87759 0.62612 0.40857 0.0
C1409 C 0.88178 0.62749 0.43299 0.0
C1410 C 0.89695 0.64257 0.44192 0.0
C1411 C 0.90839 0.65599 0.42599 0.0
H1412 H 0.40695 0.31694 0.42829 0.0
H1413 H 0.39357 0.2491 0.41587 0.0
H1414 H 0.39881 0.2544 0.37291 0.0
H1415 H 0.38084 0.33707 0.37181 0.0
H1416 H 0.40112 0.35759 0.36722 0.0
H1417 H 0.39412 0.34932 0.39698 0.0
H1418 H 0.4344 0.34062 0.40532 0.0
H1419 H 0.44147 0.34855 0.37552 0.0
H1420 H 0.44853 0.322 0.38618 0.0
H1421 H 0.4105 0.265 0.33347 0.0
H1422 H 0.42552 0.28077 0.29777 0.0
H1423 H 0.42655 0.34387 0.33166 0.0
C1424 C 0.4044 0.30349 0.4163 0.0
C1425 C 0.39945 0.28264 0.42521 0.0
C1426 C 0.39698 0.26519 0.40925 0.0
C1427 C 0.40001 0.26804 0.38487 0.0
C1428 C 0.40533 0.28855 0.37658 0.0
C1429 C 0.40722 0.30612 0.39158 0.0
C1430 C 0.41415 0.32609 0.3776 0.0
C1431 C 0.3965 0.34355 0.37846 0.0
C1432 C 0.43593 0.33483 0.38671 0.0
C1433 C 0.41637 0.3167 0.35267 0.0
C1434 C 0.41119 0.29503 0.3528 0.0
C1435 C 0.41375 0.28217 0.33286 0.0
C1436 C 0.42195 0.29156 0.31221 0.0
C1437 C 0.42627 0.31403 0.31064 0.0
C1438 C 0.42345 0.32674 0.33152 0.0
H1439 H 0.43687 0.68225 0.06779 0.0
H1440 H 0.36968 0.69461 0.08507 0.0
H1441 H 0.37463 0.67548 0.12353 0.0
H1442 H 0.44402 0.63064 0.097 0.0
H1443 H 0.47065 0.63741 0.1078 0.0
H1444 H 0.46087 0.64913 0.08052 0.0
H1445 H 0.46746 0.68791 0.09711 0.0
H1446 H 0.47806 0.67594 0.12386 0.0
H1447 H 0.45617 0.69511 0.12552 0.0
H1448 H 0.38853 0.65829 0.16222 0.0
H1449 H 0.40996 0.64662 0.19724 0.0
H1450 H 0.46818 0.64752 0.15457 0.0
C1451 C 0.42313 0.681 0.07961 0.0
C1452 C 0.40292 0.69019 0.07356 0.0
C1453 C 0.38528 0.68762 0.08932 0.0
C1454 C 0.38799 0.67684 0.11121 0.0
C1455 C 0.40846 0.66875 0.11702 0.0
C1456 C 0.42572 0.67086 0.10161 0.0
C1457 C 0.44659 0.66296 0.11271 0.0
C1458 C 0.45608 0.6439 0.09867 0.0
C1459 C 0.46304 0.68157 0.11494 0.0
C1460 C 0.43845 0.65584 0.13682 0.0
C1461 C 0.4164 0.65915 0.13903 0.0
C1462 C 0.40569 0.65523 0.16047 0.0
C1463 C 0.41792 0.64834 0.18021 0.0
C1464 C 0.44058 0.64545 0.17834 0.0
C1465 C 0.45077 0.64886 0.15622 0.0
H1466 H 0.11005 0.65954 0.93365 0.0
H1467 H 0.09138 0.72693 0.93761 0.0
H1468 H 0.08004 0.72593 0.8956 0.0
H1469 H 0.13109 0.66289 0.87063 0.0
H1470 H 0.12167 0.63613 0.86336 0.0
H1471 H 0.12982 0.64239 0.89335 0.0
H1472 H 0.09247 0.62941 0.90851 0.0
H1473 H 0.08401 0.62358 0.87853 0.0
H1474 H 0.06821 0.6416 0.89676 0.0
H1475 H 0.06506 0.71628 0.85652 0.0
H1476 H 0.05471 0.70128 0.81791 0.0
H1477 H 0.08781 0.64143 0.83455 0.0
C1478 C 0.10456 0.67429 0.92524 0.0
C1479 C 0.10222 0.69356 0.93865 0.0
C1480 C 0.09401 0.7123 0.92742 0.0
C1481 C 0.08723 0.71177 0.90367 0.0
C1482 C 0.08914 0.69245 0.89112 0.0
C1483 C 0.09825 0.67421 0.9011 0.0
C1484 C 0.09832 0.65567 0.88317 0.0
C1485 C 0.12161 0.64886 0.87727 0.0
C1486 C 0.08496 0.63643 0.8923 0.0
C1487 C 0.0874 0.66628 0.86184 0.0
C1488 C 0.08192 0.68737 0.86727 0.0
C1489 C 0.07004 0.7001 0.85172 0.0
C1490 C 0.0644 0.69147 0.82965 0.0
C1491 C 0.0714 0.67069 0.82241 0.0
C1492 C 0.08259 0.65759 0.83913 0.0
H1493 H 0.03471 0.38112 0.65675 0.0
H1494 H 0.06552 0.33137 0.69898 0.0
H1495 H 0.08311 0.31676 0.66286 0.0
H1496 H 0.02334 0.3493 0.60694 0.0
H1497 H 0.0291 0.36972 0.585 0.0
H1498 H 0.02037 0.3775 0.61429 0.0
H1499 H 0.05463 0.4012 0.61949 0.0
H1500 H 0.06331 0.39376 0.59002 0.0
H1501 H 0.08097 0.38933 0.61507 0.0
H1502 H 0.09267 0.30446 0.62156 0.0
H1503 H 0.09771 0.29812 0.57868 0.0
H1504 H 0.065 0.35855 0.56333 0.0
C1505 C 0.04577 0.36763 0.65839 0.0
C1506 C 0.04918 0.35756 0.6806 0.0
C1507 C 0.06317 0.33951 0.68213 0.0
C1508 C 0.07305 0.33103 0.6617 0.0
C1509 C 0.06901 0.34098 0.63991 0.0
C1510 C 0.05609 0.35917 0.63816 0.0
C1511 C 0.05404 0.36641 0.61247 0.0
C1512 C 0.0303 0.36569 0.6042 0.0
C1513 C 0.06383 0.38902 0.60906 0.0
C1514 C 0.06747 0.34925 0.60005 0.0
C1515 C 0.07573 0.3346 0.6162 0.0
C1516 C 0.08698 0.31628 0.60883 0.0
C1517 C 0.09006 0.31296 0.58438 0.0
C1518 C 0.08246 0.32812 0.56746 0.0
C1519 C 0.07108 0.34656 0.57559 0.0
H1520 H 0.04644 0.96355 0.22 0.0
H1521 H 0.05581 0.93683 0.29045 0.0
H1522 H 0.05745 0.97378 0.30708 0.0
H1523 H 0.08267 0.00973 0.2278 0.0
H1524 H 0.0661 0.02814 0.2109 0.0
H1525 H 0.06558 0.99964 0.20431 0.0
H1526 H 0.02406 0.99915 0.21016 0.0
H1527 H 0.02446 0.02766 0.21672 0.0
H1528 H 0.01274 0.00896 0.23763 0.0
H1529 H 0.05666 0.01418 0.31672 0.0
H1530 H 0.05532 0.05414 0.31812 0.0
H1531 H 0.04792 0.05615 0.24161 0.0
C1532 C 0.04875 0.96547 0.23896 0.0
C1533 C 0.05089 0.94691 0.25389 0.0
C1534 C 0.05422 0.95047 0.27853 0.0
C1535 C 0.05509 0.97154 0.28819 0.0
C1536 C 0.05281 0.98937 0.27311 0.0
C1537 C 0.04987 0.98659 0.24895 0.0
C1538 C 0.04819 0.00866 0.23672 0.0
C1539 C 0.06674 0.01172 0.21886 0.0
C1540 C 0.02605 0.01126 0.22458 0.0
C1541 C 0.05049 0.02424 0.25772 0.0
C1542 C 0.05301 0.01267 0.27857 0.0
C1543 C 0.05484 0.02329 0.30042 0.0
C1544 C 0.05405 0.0461 0.30108 0.0
C1545 C 0.05163 0.05854 0.28008 0.0
C1546 C 0.04998 0.04727 0.25803 0.0
H1547 H 0.21144 0.82094 0.52654 0.0
H1548 H 0.19363 0.75703 0.50172 0.0
H1549 H 0.23084 0.75132 0.48728 0.0
H1550 H 0.24811 0.83346 0.4765 0.0
H1551 H 0.26744 0.84774 0.49466 0.0
H1552 H 0.23929 0.84721 0.50303 0.0
H1553 H 0.2498 0.83182 0.54417 0.0
H1554 H 0.27796 0.83214 0.53585 0.0
H1555 H 0.2656 0.80737 0.54584 0.0
H1556 H 0.27036 0.7516 0.47626 0.0
H1557 H 0.30882 0.75841 0.4678 0.0
H1558 H 0.3029 0.82277 0.49759 0.0
C1559 C 0.21523 0.80591 0.51765 0.0
C1560 C 0.19916 0.78942 0.51529 0.0
C1561 C 0.20534 0.76989 0.50396 0.0
C1562 C 0.22657 0.76648 0.49563 0.0
C1563 C 0.24198 0.78279 0.49844 0.0
C1564 C 0.23664 0.80223 0.50901 0.0
C1565 C 0.25664 0.81694 0.50966 0.0
C1566 C 0.25263 0.83757 0.4951 0.0
C1567 C 0.26286 0.82239 0.53541 0.0
C1568 C 0.27394 0.80271 0.49792 0.0
C1569 C 0.26496 0.78306 0.49169 0.0
C1570 C 0.27743 0.76704 0.48087 0.0
C1571 C 0.29941 0.77115 0.47596 0.0
C1572 C 0.30926 0.79124 0.48154 0.0
C1573 C 0.29616 0.80718 0.49302 0.0
H1574 H 0.46187 0.04624 0.71709 0.0
H1575 H 0.45751 0.0733 0.78801 0.0
H1576 H 0.45767 0.03657 0.80499 0.0
H1577 H 0.42774 0.9995 0.72794 0.0
H1578 H 0.44363 0.98123 0.71013 0.0
H1579 H 0.44313 0.00965 0.70313 0.0
H1580 H 0.48491 0.01114 0.70599 0.0
H1581 H 0.48553 0.9827 0.71287 0.0
H1582 H 0.4981 1.00184 0.73269 0.0
H1583 H 0.45835 0.99683 0.81478 0.0
H1584 H 0.45994 0.95703 0.81665 0.0
H1585 H 0.4645 0.95414 0.73984 0.0
C1586 C 0.4611 0.04443 0.7362 0.0
C1587 C 0.45948 0.06294 0.75117 0.0
C1588 C 0.45837 0.05961 0.77607 0.0
C1589 C 0.45856 0.03871 0.78593 0.0
C1590 C 0.45996 0.0209 0.77079 0.0
C1591 C 0.46127 0.02347 0.74644 0.0
C1592 C 0.46267 1.00139 0.73433 0.0
C1593 C 0.44313 0.99773 0.7179 0.0
C1594 C 0.48408 0.99914 0.72066 0.0
C1595 C 0.462 0.98609 0.75565 0.0
C1596 C 0.46043 0.99782 0.77648 0.0
C1597 C 0.45965 0.98755 0.79855 0.0
C1598 C 0.46064 0.96484 0.79945 0.0
C1599 C 0.46245 0.95225 0.7785 0.0
C1600 C 0.46298 0.96318 0.75623 0.0
H1601 H 0.30021 0.18574 0.0251 0.0
H1602 H 0.31513 0.25406 0.01997 0.0
H1603 H 0.27747 0.26154 0.00814 0.0
H1604 H 0.26422 0.18489 0.97263 0.0
H1605 H 0.24582 0.16549 0.98538 0.0
H1606 H 0.27397 0.16531 0.99382 0.0
H1607 H 0.26294 0.16878 0.038 0.0
H1608 H 0.23478 0.16922 0.02967 0.0
H1609 H 0.24594 0.19095 0.04713 0.0
H1610 H 0.23767 0.26222 0.99833 0.0
H1611 H 0.19933 0.25579 0.98855 0.0
H1612 H 0.20959 0.18672 0.99545 0.0
C1613 C 0.29571 0.20222 0.021 0.0
C1614 C 0.31097 0.21934 0.0236 0.0
C1615 C 0.30394 0.24067 0.0185 0.0
C1616 C 0.28248 0.24509 0.01166 0.0
C1617 C 0.26788 0.22802 0.00949 0.0
C1618 C 0.2742 0.20694 0.01368 0.0
C1619 C 0.25511 0.19164 0.00952 0.0
C1620 C 0.26008 0.1759 0.98912 0.0
C1621 C 0.24936 0.17942 0.03245 0.0
C1622 C 0.23714 0.20744 1.00261 0.0
C1623 C 0.24494 0.22835 1.00292 0.0
C1624 C 0.2315 0.24587 0.99782 0.0
C1625 C 0.20964 0.24202 0.99214 0.0
C1626 C 0.20105 0.22079 0.9912 0.0
C1627 C 0.21524 0.20324 0.99648 0.0
H1628 H 0.97181 0.02694 0.78701 0.0
H1629 H 0.95608 0.06244 0.72298 0.0
H1630 H 0.95629 0.02833 0.69992 0.0
H1631 H 0.00636 0.98456 0.75775 0.0
H1632 H 0.99631 0.96413 0.77773 0.0
H1633 H 0.99893 0.99169 0.78772 0.0
H1634 H 0.95841 0.9917 0.79989 0.0
H1635 H 0.95557 0.96436 0.78971 0.0
H1636 H 0.93814 0.98515 0.77797 0.0
H1637 H 0.95168 0.98982 0.68607 0.0
H1638 H 0.9464 0.95015 0.6818 0.0
H1639 H 0.96501 0.94147 0.75543 0.0
C1640 C 0.96918 0.0275 0.76797 0.0
C1641 C 0.96424 0.04695 0.7565 0.0
C1642 C 0.96041 0.04747 0.73174 0.0
C1643 C 0.96041 0.02826 0.71862 0.0
C1644 C 0.96462 0.00903 0.73065 0.0
C1645 C 0.96936 0.00863 0.75471 0.0
C1646 C 0.97135 0.98597 0.76408 0.0
C1647 C 0.99462 0.98132 0.7723 0.0
C1648 C 0.95488 0.98156 0.78407 0.0
C1649 C 0.9659 0.97365 0.74186 0.0
C1650 C 0.96229 0.98705 0.72262 0.0
C1651 C 0.95511 0.97909 0.70079 0.0
C1652 C 0.95198 0.95673 0.69856 0.0
C1653 C 0.95608 0.94299 0.71808 0.0
C1654 C 0.96284 0.9516 0.73993 0.0
H1655 H 0.80728 0.23007 0.50502 0.0
H1656 H 0.80738 0.1736 0.45956 0.0
H1657 H 0.76755 0.1734 0.45947 0.0
H1658 H 0.76945 0.21371 0.5417 0.0
H1659 H 0.75555 0.23893 0.54657 0.0
H1660 H 0.78348 0.23903 0.53786 0.0
H1661 H 0.77464 0.26291 0.50134 0.0
H1662 H 0.74661 0.26344 0.51024 0.0
H1663 H 0.75387 0.25456 0.48079 0.0
H1664 H 0.72995 0.17344 0.47207 0.0
H1665 H 0.69526 0.1762 0.49364 0.0
H1666 H 0.71841 0.2333 0.53021 0.0
C1667 C 0.7988 0.21854 0.49393 0.0
C1668 C 0.81011 0.20213 0.48188 0.0
C1669 C 0.79876 0.18646 0.46857 0.0
C1670 C 0.77621 0.18627 0.46836 0.0
C1671 C 0.76538 0.20198 0.48143 0.0
C1672 C 0.77621 0.21815 0.4936 0.0
C1673 C 0.76087 0.23109 0.509 0.0
C1674 C 0.76776 0.23064 0.53532 0.0
C1675 C 0.75887 0.25438 0.49978 0.0
C1676 C 0.74016 0.21861 0.50497 0.0
C1677 C 0.74308 0.20213 0.48867 0.0
C1678 C 0.72719 0.18668 0.48425 0.0
C1679 C 0.70774 0.18817 0.49675 0.0
C1680 C 0.70451 0.20495 0.51334 0.0
C1681 C 0.72066 0.22056 0.51725 0.0
H1682 H 0.60335 0.06162 0.24501 0.0
H1683 H 0.55558 0.06157 0.18866 0.0
H1684 H 0.54885 0.02264 0.19545 0.0
H1685 H 0.62353 0.0048 0.23679 0.0
H1686 H 0.62591 1.00115 0.26847 0.0
H1687 H 0.63001 0.02749 0.25559 0.0
H1688 H 0.60072 0.04295 0.28388 0.0
H1689 H 0.59594 0.0166 0.29626 0.0
H1690 H 0.57386 0.0316 0.28339 0.0
H1691 H 0.54407 0.98556 0.21187 0.0
H1692 H 0.54384 0.95148 0.23455 0.0
H1693 H 0.59303 0.97712 0.28188 0.0
C1694 C 0.59235 0.05306 0.23333 0.0
C1695 C 0.5803 0.0641 0.216 0.0
C1696 C 0.5652 0.05295 0.20168 0.0
C1697 C 0.56122 0.03099 0.20551 0.0
C1698 C 0.57252 0.02073 0.2237 0.0
C1699 C 0.588 0.0313 0.23716 0.0
C1700 C 0.5961 0.01739 0.2573 0.0
C1701 C 0.62033 0.0124 0.25435 0.0
C1702 C 0.59136 0.02776 0.28163 0.0
C1703 C 0.58243 0.99756 0.25337 0.0
C1704 C 0.56902 0.99971 0.23386 0.0
C1705 C 0.55452 0.98362 0.22716 0.0
C1706 C 0.55417 0.96452 0.24045 0.0
C1707 C 0.568 0.96203 0.26031 0.0
C1708 C 0.58215 0.9788 0.26687 0.0
H1709 H 0.78089 0.83812 0.03923 0.0
H1710 H 0.81067 0.79336 0.98969 0.0
H1711 H 0.77708 0.79251 0.96613 0.0
H1712 H 0.72852 0.81487 0.03859 0.0
H1713 H 0.71479 0.84051 0.04049 0.0
H1714 H 0.74147 0.83755 0.05282 0.0
H1715 H 0.75454 0.86982 0.02703 0.0
H1716 H 0.72796 0.87247 0.01414 0.0
H1717 H 0.75119 0.8688 0.99522 0.0
H1718 H 0.74004 0.79514 0.94935 0.0
H1719 H 0.70065 0.79862 0.94252 0.0
H1720 H 0.69602 0.84337 1.00147 0.0
C1721 C 0.78023 0.82804 0.0235 0.0
C1722 C 0.79801 0.81533 0.01662 0.0
C1723 C 0.79686 0.80252 0.99581 0.0
C1724 C 0.77803 0.8023 0.98203 0.0
C1725 C 0.76084 0.81527 0.98918 0.0
C1726 C 0.76172 0.82778 0.00949 0.0
C1727 C 0.74072 0.83949 0.01389 0.0
C1728 C 0.73079 0.83269 0.03785 0.0
C1729 C 0.7438 0.86411 0.01248 0.0
C1730 C 0.72767 0.83121 0.99313 0.0
C1731 C 0.73967 0.81747 0.9789 0.0
C1732 C 0.73055 0.80621 0.95998 0.0
C1733 C 0.70832 0.80836 0.95613 0.0
C1734 C 0.69577 0.82164 0.97117 0.0
C1735 C 0.70561 0.83381 0.98926 0.0
H1736 H 0.57047 0.45967 0.74034 0.0
H1737 H 0.50096 0.44977 0.73933 0.0
H1738 H 0.49542 0.48841 0.74767 0.0
H1739 H 0.56902 0.49678 0.79127 0.0
H1740 H 0.59102 0.51323 0.78056 0.0
H1741 H 0.58974 0.48499 0.77285 0.0
H1742 H 0.59156 0.49507 0.72827 0.0
H1743 H 0.5926 0.52335 0.73584 0.0
H1744 H 0.57186 0.5135 0.71608 0.0
H1745 H 0.49705 0.52871 0.75504 0.0
H1746 H 0.50556 0.56655 0.76487 0.0
H1747 H 0.57387 0.55057 0.76772 0.0
C1748 C 0.55405 0.46545 0.74226 0.0
C1749 C 0.53612 0.45122 0.73879 0.0
C1750 C 0.51503 0.46004 0.74111 0.0
C1751 C 0.51168 0.4821 0.7461 0.0
C1752 C 0.52958 0.49553 0.74938 0.0
C1753 C 0.55038 0.48751 0.74799 0.0
C1754 C 0.5667 0.50541 0.75357 0.0
C1755 C 0.57991 0.49976 0.77589 0.0
C1756 C 0.58156 0.50957 0.73216 0.0
C1757 C 0.55182 0.52473 0.75808 0.0
C1758 C 0.53048 0.51861 0.75521 0.0
C1759 C 0.51371 0.53354 0.75764 0.0
C1760 C 0.51874 0.55511 0.76339 0.0
C1761 C 0.54038 0.56194 0.7673 0.0
C1762 C 0.55715 0.5463 0.7645 0.0
H1763 H 0.80067 0.32677 1.00362 0.0
H1764 H 0.80882 0.25775 0.99357 0.0
H1765 H 0.77021 0.25211 1.00229 0.0
H1766 H 0.76277 0.32135 0.05415 0.0
H1767 H 0.74681 0.34449 0.04567 0.0
H1768 H 0.77517 0.34341 0.03826 0.0
H1769 H 0.76566 0.34949 0.99398 0.0
H1770 H 0.73727 0.35032 1.00121 0.0
H1771 H 0.74705 0.33135 0.97942 0.0
H1772 H 0.73019 0.25365 0.01013 0.0
H1773 H 0.6923 0.26187 0.0202 0.0
H1774 H 0.70932 0.32929 0.03019 0.0
C1775 C 0.79445 0.31043 1.00371 0.0
C1776 C 0.8081 0.29269 0.99763 0.0
C1777 C 0.7989 0.27168 0.99767 0.0
C1778 C 0.77688 0.26827 1.00272 0.0
C1779 C 0.76387 0.28598 0.00824 0.0
C1780 C 0.77231 0.30664 0.0092 0.0
C1781 C 0.75459 0.32266 0.01627 0.0
C1782 C 0.76017 0.33363 0.04 0.0
C1783 C 0.75093 0.33945 0.99654 0.0
C1784 C 0.73494 0.30779 0.01885 0.0
C1785 C 0.74077 0.28673 0.01389 0.0
C1786 C 0.72556 0.27007 0.01435 0.0
C1787 C 0.70397 0.27492 0.02025 0.0
C1788 C 0.69739 0.29622 0.02613 0.0
C1789 C 0.71332 0.31289 0.02532 0.0
H1790 H 0.98266 0.55141 0.24779 0.0
H1791 H 0.91315 0.5607 0.24484 0.0
H1792 H 0.9077 0.52266 0.25624 0.0
H1793 H 0.98086 0.49737 0.22073 0.0
H1794 H 1.00301 0.48694 0.23814 0.0
H1795 H 1.00174 0.51535 0.23121 0.0
H1796 H 0.004 0.52443 0.27601 0.0
H1797 H 0.00511 0.49604 0.28308 0.0
H1798 H 0.98452 0.51287 0.29617 0.0
H1799 H 0.90949 0.48356 0.27035 0.0
H1800 H 0.9181 0.44584 0.28061 0.0
H1801 H 0.98622 0.45868 0.26874 0.0
C1802 C 0.96626 0.54548 0.24944 0.0
C1803 C 0.94831 0.5598 0.24619 0.0
C1804 C 0.92725 0.55082 0.24829 0.0
C1805 C 0.92396 0.52897 0.25453 0.0
C1806 C 0.94185 0.51555 0.25805 0.0
C1807 C 0.96263 0.52331 0.2551 0.0
C1808 C 0.97895 0.50493 0.25871 0.0
C1809 C 0.99191 0.50091 0.23584 0.0
C1810 C 0.99404 0.50987 0.27974 0.0
C1811 C 0.96412 0.48574 0.26433 0.0
C1812 C 0.94279 0.49243 0.26415 0.0
C1813 C 0.92613 0.47811 0.26989 0.0
C1814 C 0.9312 0.45645 0.27547 0.0
C1815 C 0.95276 0.44856 0.27469 0.0
C1816 C 0.96948 0.46378 0.26929 0.0
H1817 H 0.71153 0.73329 0.48875 0.0
H1818 H 0.69498 0.66539 0.49443 0.0
H1819 H 0.73219 0.65725 0.50731 0.0
H1820 H 0.76568 0.72352 0.46417 0.0
H1821 H 0.77803 0.74603 0.47933 0.0
H1822 H 0.74974 0.74697 0.47157 0.0
H1823 H 0.74007 0.75441 0.51552 0.0
H1824 H 0.76832 0.75333 0.52344 0.0
H1825 H 0.74918 0.73594 0.5382 0.0
H1826 H 0.77123 0.65619 0.52121 0.0
H1827 H 0.80975 0.66167 0.53094 0.0
H1828 H 0.80391 0.72948 0.5127 0.0
C1829 C 0.71572 0.71669 0.49266 0.0
C1830 C 0.69965 0.70011 0.49128 0.0
C1831 C 0.70631 0.67862 0.49627 0.0
C1832 C 0.72765 0.67376 0.50342 0.0
C1833 C 0.74283 0.69041 0.50509 0.0
C1834 C 0.73731 0.71143 0.49949 0.0
C1835 C 0.75723 0.72605 0.50188 0.0
C1836 C 0.76301 0.73625 0.47781 0.0
C1837 C 0.75347 0.74347 0.52089 0.0
C1838 C 0.7747 0.71 0.50983 0.0
C1839 C 0.76584 0.68957 0.51175 0.0
C1840 C 0.77834 0.67208 0.51936 0.0
C1841 C 0.80039 0.67535 0.52475 0.0
C1842 C 0.81039 0.69585 0.52215 0.0
C1843 C 0.79705 0.71351 0.51483 0.0
H1844 H 0.46438 0.54688 0.28639 0.0
H1845 H 0.39947 0.56154 0.26168 0.0
H1846 H 0.39499 0.52368 0.24885 0.0
H1847 H 0.478 0.50958 0.23775 0.0
H1848 H 0.49337 0.49206 0.257 0.0
H1849 H 0.49186 0.52061 0.26321 0.0
H1850 H 0.47743 0.51239 0.30556 0.0
H1851 H 0.47906 0.48391 0.29955 0.0
H1852 H 0.45378 0.49562 0.30897 0.0
H1853 H 0.39671 0.48459 0.24117 0.0
H1854 H 0.4038 0.44532 0.24115 0.0
H1855 H 0.4684 0.45658 0.26845 0.0
C1856 C 0.44943 0.54225 0.27779 0.0
C1857 C 0.4324 0.55707 0.2746 0.0
C1858 C 0.41268 0.55028 0.26426 0.0
C1859 C 0.4101 0.52896 0.25666 0.0
C1860 C 0.42746 0.51488 0.25945 0.0
C1861 C 0.44672 0.52118 0.26981 0.0
C1862 C 0.46241 0.50258 0.27192 0.0
C1863 C 0.4826 0.50644 0.25655 0.0
C1864 C 0.46851 0.49838 0.29805 0.0
C1865 C 0.44863 0.48464 0.26189 0.0
C1866 C 0.42863 0.49219 0.25451 0.0
C1867 C 0.4124 0.47848 0.24645 0.0
C1868 C 0.41652 0.45633 0.24653 0.0
C1869 C 0.43667 0.44839 0.25453 0.0
C1870 C 0.45311 0.4626 0.26174 0.0
H1871 H 0.28006 0.72067 0.97347 0.0
H1872 H 0.31556 0.72078 0.03994 0.0
H1873 H 0.28152 0.72523 0.06207 0.0
H1874 H 0.23555 0.75857 0.99237 0.0
H1875 H 0.21567 0.7431 0.97622 0.0
H1876 H 0.24309 0.74472 0.96543 0.0
H1877 H 0.24549 0.70283 0.9652 0.0
H1878 H 0.21822 0.7011 0.97595 0.0
H1879 H 0.23979 0.68812 0.99214 0.0
H1880 H 0.24416 0.72211 0.0769 0.0
H1881 H 0.2054 0.71348 0.08321 0.0
H1882 H 0.19473 0.71558 0.00717 0.0
C1883 C 0.28059 0.72236 0.99263 0.0
C1884 C 0.30019 0.72101 1.00507 0.0
C1885 C 0.30061 0.72263 0.03014 0.0
C1886 C 0.28139 0.72507 0.04284 0.0
C1887 C 0.26215 0.72598 0.03007 0.0
C1888 C 0.26162 0.72487 1.00549 0.0
C1889 C 0.23884 0.72344 0.99615 0.0
C1890 C 0.23294 0.74367 0.98169 0.0
C1891 C 0.2354 0.70264 0.98153 0.0
C1892 C 0.22673 0.72276 0.01934 0.0
C1893 C 0.24037 0.72454 0.03873 0.0
C1894 C 0.23315 0.72149 0.06196 0.0
C1895 C 0.21131 0.71647 0.06539 0.0
C1896 C 0.19735 0.71475 0.04566 0.0
C1897 C 0.20504 0.71805 0.0225 0.0
H1898 H 0.04787 0.45638 0.79647 0.0
H1899 H 0.10902 0.43354 0.76816 0.0
H1900 H 0.1185 0.47089 0.75661 0.0
H1901 H 0.03652 0.49193 0.74992 0.0
H1902 H 0.02417 0.51241 0.76822 0.0
H1903 H 0.02337 0.48453 0.77733 0.0
H1904 H 0.04151 0.49441 0.81749 0.0
H1905 H 0.04197 0.5224 0.80871 0.0
H1906 H 0.06668 0.50913 0.81751 0.0
H1907 H 0.11978 0.50958 0.74514 0.0
H1908 H 0.11396 0.54827 0.73666 0.0
H1909 H 0.05109 0.54517 0.77079 0.0
C1910 C 0.06327 0.45926 0.78791 0.0
C1911 C 0.07761 0.44222 0.78279 0.0
C1912 C 0.0979 0.44655 0.77224 0.0
C1913 C 0.10334 0.46761 0.76551 0.0
C1914 C 0.08828 0.48391 0.76964 0.0
C1915 C 0.06878 0.48004 0.78083 0.0
C1916 C 0.05496 0.50013 0.78204 0.0
C1917 C 0.03349 0.49706 0.76857 0.0
C1918 C 0.05106 0.50692 0.80798 0.0
C1919 C 0.06961 0.51583 0.76938 0.0
C1920 C 0.0888 0.50617 0.76253 0.0
C1921 C 0.10488 0.51738 0.75048 0.0
C1922 C 0.10141 0.53923 0.74569 0.0
C1923 C 0.08195 0.54941 0.75276 0.0
C1924 C 0.06582 0.53757 0.76462 0.0
H1925 H 0.29687 0.29032 0.53208 0.0
H1926 H 0.32107 0.34961 0.50053 0.0
H1927 H 0.28428 0.35844 0.48663 0.0
H1928 H 0.2585 0.27746 0.48525 0.0
H1929 H 0.23841 0.26714 0.5055 0.0
H1930 H 0.26673 0.26523 0.5129 0.0
H1931 H 0.25975 0.28548 0.55251 0.0
H1932 H 0.23142 0.28729 0.54532 0.0
H1933 H 0.24656 0.31146 0.55191 0.0
H1934 H 0.24557 0.36127 0.47693 0.0
H1935 H 0.20588 0.35899 0.47361 0.0
H1936 H 0.20669 0.29722 0.51008 0.0
C1937 C 0.29451 0.30495 0.52188 0.0
C1938 C 0.31181 0.31912 0.51698 0.0
C1939 C 0.30796 0.33856 0.50444 0.0
C1940 C 0.28721 0.34361 0.49631 0.0
C1941 C 0.2706 0.32904 0.50091 0.0
C1942 C 0.27392 0.31018 0.5135 0.0
C1943 C 0.25306 0.2977 0.51668 0.0
C1944 C 0.25425 0.27557 0.50434 0.0
C1945 C 0.24737 0.29536 0.54318 0.0
C1946 C 0.23748 0.31265 0.50405 0.0
C1947 C 0.24804 0.33057 0.49503 0.0
C1948 C 0.2371 0.34725 0.48368 0.0
C1949 C 0.21464 0.34582 0.4819 0.0
C1950 C 0.20348 0.3278 0.49132 0.0
C1951 C 0.21501 0.31084 0.5022 0.0
H1952 H 0.96845 0.29149 0.29084 0.0
H1953 H 0.02585 0.32302 0.26348 0.0
H1954 H 0.04268 0.28717 0.25654 0.0
H1955 H 0.99768 0.25091 0.32318 0.0
H1956 H 0.97791 0.22995 0.31833 0.0
H1957 H 0.96961 0.25784 0.31887 0.0
H1958 H 0.95242 0.25341 0.27715 0.0
H1959 H 0.96079 0.22551 0.27645 0.0
H1960 H 0.96875 0.24359 0.25291 0.0
H1961 H 0.05328 0.24766 0.25268 0.0
H1962 H 0.05905 0.2085 0.25672 0.0
H1963 H 0.99601 0.20207 0.29001 0.0
C1964 C 0.98441 0.29081 0.28294 0.0
C1965 C 0.99565 0.31013 0.2771 0.0
C1966 C 0.01682 0.30853 0.26772 0.0
C1967 C 0.02647 0.28819 0.2637 0.0
C1968 C 0.01498 0.26948 0.26966 0.0
C1969 C 0.99453 0.27062 0.27946 0.0
C1970 C 0.98648 0.24816 0.28629 0.0
C1971 C 0.9827 0.24663 0.31326 0.0
C1972 C 0.96588 0.24233 0.27237 0.0
C1973 C 0.00549 0.23415 0.27861 0.0
C1974 C 0.0216 0.2468 0.26876 0.0
C1975 C 0.04076 0.23767 0.26042 0.0
C1976 C 0.04383 0.21524 0.26271 0.0
C1977 C 0.028 0.20183 0.27359 0.0
C1978 C 0.00839 0.21159 0.28133 0.0
H1979 H 0.04132 0.78619 0.54354 0.0
H1980 H 0.07299 0.7316 0.51021 0.0
H1981 H 0.0373 0.71451 0.50329 0.0
H1982 H 1.00226 0.75415 0.57491 0.0
H1983 H 0.98054 0.77345 0.5723 0.0
H1984 H 0.00821 0.78258 0.57241 0.0
H1985 H 1.00195 0.802 0.53226 0.0
H1986 H 0.97425 0.79286 0.53199 0.0
H1987 H 0.99176 0.78687 0.50726 0.0
H1988 H 0.9983 0.70324 0.49994 0.0
H1989 H 0.95954 0.69591 0.50466 0.0
H1990 H 0.95204 0.75594 0.54384 0.0
C1991 C 0.04064 0.77085 0.53432 0.0
C1992 C 0.06 0.76047 0.52679 0.0
C1993 C 0.05846 0.74001 0.51571 0.0
C1994 C 0.03821 0.7302 0.51171 0.0
C1995 C 0.01947 0.74077 0.51937 0.0
C1996 C 0.02048 0.76049 0.53079 0.0
C1997 C 0.99795 0.76738 0.53907 0.0
C1998 C 0.9972 0.76951 0.56629 0.0
C1999 C 0.99107 0.78854 0.52692 0.0
C2000 C 0.98414 0.74846 0.53051 0.0
C2001 C 0.99696 0.73355 0.51882 0.0
C2002 C 0.98818 0.71479 0.50914 0.0
C2003 C 0.96593 0.71082 0.51189 0.0
C2004 C 0.95232 0.72527 0.52463 0.0
C2005 C 0.96171 0.74457 0.53381 0.0
H2006 H 0.46653 0.79301 0.79056 0.0
H2007 H 0.52469 0.82568 0.76705 0.0
H2008 H 0.54239 0.79024 0.76052 0.0
H2009 H 0.49459 0.75246 0.82395 0.0
H2010 H 0.47566 0.7311 0.81749 0.0
H2011 H 0.46666 0.75878 0.8178 0.0
H2012 H 0.45202 0.75452 0.77493 0.0
H2013 H 0.46102 0.72681 0.77448 0.0
H2014 H 0.46992 0.74531 0.75176 0.0
H2015 H 0.55389 0.75121 0.75664 0.0
H2016 H 0.56028 0.71214 0.76019 0.0
H2017 H 0.49604 0.70386 0.79006 0.0
C2018 C 0.48284 0.79263 0.78354 0.0
C2019 C 0.49408 0.81218 0.77868 0.0
C2020 C 0.51568 0.811 0.77048 0.0
C2021 C 0.52583 0.7909 0.76672 0.0
C2022 C 0.51441 0.77195 0.77175 0.0
C2023 C 0.49348 0.77262 0.78034 0.0
C2024 C 0.48559 0.74989 0.78635 0.0
C2025 C 0.48031 0.74795 0.81298 0.0
C2026 C 0.46597 0.74377 0.77096 0.0
C2027 C 0.50532 0.73635 0.77981 0.0
C2028 C 0.52157 0.74945 0.77101 0.0
C2029 C 0.54127 0.74086 0.76358 0.0
C2030 C 0.5447 0.71846 0.76558 0.0
C2031 C 0.52872 0.70456 0.77537 0.0
C2032 C 0.50862 0.71381 0.78237 0.0
H2033 H 0.46782 0.21662 0.04212 0.0
H2034 H 0.43491 0.27515 0.02025 0.0
H2035 H 0.47036 0.29264 0.01281 0.0
H2036 H 0.50914 0.24399 0.0747 0.0
H2037 H 0.53026 0.22499 0.06755 0.0
H2038 H 0.50249 0.21621 0.06842 0.0
H2039 H 0.50583 0.20195 0.0253 0.0
H2040 H 0.53361 0.21078 0.02428 0.0
H2041 H 0.51468 0.21998 1.00209 0.0
H2042 H 0.50927 0.30378 0.00791 0.0
H2043 H 0.54839 0.31007 0.01104 0.0
H2044 H 0.55695 0.24561 0.04019 0.0
C2045 C 0.46815 0.23296 0.03523 0.0
C2046 C 0.4486 0.24438 0.03106 0.0
C2047 C 0.44965 0.26602 0.02308 0.0
C2048 C 0.46972 0.27604 0.0188 0.0
C2049 C 0.4887 0.26439 0.02312 0.0
C2050 C 0.48812 0.24344 0.03155 0.0
C2051 C 0.5109 0.23533 0.03695 0.0
C2052 C 0.51333 0.22981 0.06348 0.0
C2053 C 0.51659 0.21585 0.02122 0.0
C2054 C 0.52439 0.255 0.03028 0.0
C2055 C 0.5112 0.27137 0.02189 0.0
C2056 C 0.51971 0.29108 0.01451 0.0
C2057 C 0.54212 0.29443 0.01627 0.0
C2058 C 0.55608 0.27836 0.02581 0.0
C2059 C 0.54694 0.25822 0.03261 0.0
H2060 H 0.98472 0.71025 0.20398 0.0
H2061 H 0.98509 0.6947 0.279 0.0
H2062 H 0.99772 0.73187 0.28819 0.0
H2063 H 0.03101 0.74677 0.20301 0.0
H2064 H 0.01861 0.76528 0.18235 0.0
H2065 H 0.01146 0.73706 0.18174 0.0
H2066 H 0.97106 0.7472 0.1868 0.0
H2067 H 0.9781 0.77544 0.18764 0.0
H2068 H 0.96294 0.76362 0.21171 0.0
H2069 H 0.01193 0.77103 0.28878 0.0
H2070 H 0.02302 0.80896 0.28114 0.0
H2071 H 0.00885 0.8005 0.20633 0.0
C2072 C 0.98795 0.71457 0.2223 0.0
C2073 C 0.98463 0.6993 0.24077 0.0
C2074 C 0.98805 0.7059 0.26457 0.0
C2075 C 0.99514 0.72704 0.26992 0.0
C2076 C 0.99817 0.74176 0.25134 0.0
C2077 C 0.99439 0.73585 0.228 0.0
C2078 C 0.99739 0.7551 0.21146 0.0
C2079 C 0.01571 0.75079 0.19359 0.0
C2080 C 0.97611 0.76066 0.19865 0.0
C2081 C 1.00365 0.77274 0.22904 0.0
C2082 C 0.00434 0.76464 0.25194 0.0
C2083 C 0.01102 0.77756 0.27097 0.0
C2084 C 0.01722 0.79915 0.26652 0.0
C2085 C 0.01612 0.80798 0.24333 0.0
C2086 C 0.00912 0.79449 0.22441 0.0
H2087 H 0.54707 0.732 0.49986 0.0
H2088 H 0.5682 0.75604 0.43111 0.0
H2089 H 0.53142 0.76867 0.42271 0.0
H2090 H 0.4938 0.71492 0.48273 0.0
H2091 H 0.48014 0.72448 0.509 0.0
H2092 H 0.50827 0.71686 0.51049 0.0
H2093 H 0.51806 0.75456 0.52722 0.0
H2094 H 0.48992 0.76221 0.52602 0.0
H2095 H 0.50998 0.77843 0.5111 0.0
H2096 H 0.49203 0.7746 0.41895 0.0
H2097 H 0.45323 0.78221 0.42351 0.0
H2098 H 0.45592 0.75986 0.49661 0.0
C2099 C 0.54402 0.74027 0.48323 0.0
C2100 C 0.56093 0.74294 0.4662 0.0
C2101 C 0.55596 0.75383 0.44466 0.0
C2102 C 0.53491 0.76095 0.43954 0.0
C2103 C 0.51867 0.75771 0.45631 0.0
C2104 C 0.52296 0.74829 0.47805 0.0
C2105 C 0.50229 0.74798 0.49312 0.0
C2106 C 0.49575 0.72467 0.4992 0.0
C2107 C 0.50524 0.76161 0.51571 0.0
C2108 C 0.48586 0.75838 0.47624 0.0
C2109 C 0.49579 0.76327 0.45493 0.0
C2110 C 0.48415 0.77144 0.43575 0.0
C2111 C 0.46195 0.77545 0.43848 0.0
C2112 C 0.45123 0.77172 0.46039 0.0
C2113 C 0.46351 0.76303 0.47964 0.0
H2114 H 0.46165 0.21985 0.71992 0.0
H2115 H 0.51766 0.18669 0.74845 0.0
H2116 H 0.53588 0.22195 0.75475 0.0
H2117 H 0.49268 0.25932 0.68712 0.0
H2118 H 0.47367 0.281 0.69164 0.0
H2119 H 0.46436 0.25343 0.69117 0.0
H2120 H 0.44704 0.25864 0.73268 0.0
H2121 H 0.45639 0.28622 0.7333 0.0
H2122 H 0.46353 0.26801 0.75705 0.0
H2123 H 0.54793 0.26104 0.7582 0.0
H2124 H 0.55487 0.3001 0.75434 0.0
H2125 H 0.49225 0.3083 0.72045 0.0
C2126 C 0.47763 0.22011 0.72783 0.0
C2127 C 0.4881 0.20054 0.73425 0.0
C2128 C 0.50927 0.20146 0.74376 0.0
C2129 C 0.5197 0.22144 0.7474 0.0
C2130 C 0.50898 0.24045 0.74094 0.0
C2131 C 0.48854 0.23995 0.73096 0.0
C2132 C 0.48133 0.26262 0.72389 0.0
C2133 C 0.4778 0.26418 0.69686 0.0
C2134 C 0.46085 0.26926 0.73755 0.0
C2135 C 0.50078 0.27598 0.73169 0.0
C2136 C 0.51641 0.26286 0.74174 0.0
C2137 C 0.53579 0.27141 0.75031 0.0
C2138 C 0.53954 0.29376 0.74813 0.0
C2139 C 0.52415 0.30759 0.73718 0.0
C2140 C 0.50437 0.29841 0.7291 0.0
H2141 H 0.05152 0.2463 0.01061 0.0
H2142 H 0.06047 0.23964 0.93441 0.0
H2143 H 0.02221 0.24831 0.92787 0.0
H2144 H 0.99665 0.22559 0.01385 0.0
H2145 H 0.987 0.24522 0.03499 0.0
H2146 H 0.0152 0.23775 0.03467 0.0
H2147 H 0.02601 0.27787 0.02945 0.0
H2148 H 0.99785 0.28547 0.02993 0.0
H2149 H 0.01469 0.29321 1.0052 0.0
H2150 H 0.98314 0.25476 0.9288 0.0
H2151 H 0.94559 0.26518 0.93622 0.0
H2152 H 0.95988 0.27316 0.01136 0.0
C2153 C 0.04538 0.24686 0.9926 0.0
C2154 C 0.05923 0.24232 0.97298 0.0
C2155 C 0.05046 0.24327 0.94971 0.0
C2156 C 0.02861 0.24803 0.94578 0.0
C2157 C 0.01543 0.25236 0.96523 0.0
C2158 C 0.02341 0.25242 0.98818 0.0
C2159 C 0.00543 0.25903 1.00547 0.0
C2160 C 1.0008 0.24081 0.02331 0.0
C2161 C 0.01135 0.28015 0.01828 0.0
C2162 C 0.98625 0.26234 0.98859 0.0
C2163 C 0.99257 0.25787 0.96557 0.0
C2164 C 0.97804 0.25856 0.94671 0.0
C2165 C 0.95656 0.26437 0.95123 0.0
C2166 C 0.94943 0.27 0.9744 0.0
C2167 C 0.96466 0.269 0.99343 0.0
H2168 H 0.98527 0.77924 0.82796 0.0
H2169 H 0.0441 0.81506 0.81778 0.0
H2170 H 0.06516 0.78356 0.8293 0.0
H2171 H 0.02595 0.72587 0.8608 0.0
H2172 H 0.00558 0.70787 0.84939 0.0
H2173 H 0.99798 0.73055 0.86765 0.0
H2174 H 0.97157 0.74449 0.83531 0.0
H2175 H 0.97829 0.72066 0.8189 0.0
H2176 H 0.98106 0.7467 0.80498 0.0
H2177 H 0.06871 0.75977 0.79608 0.0
H2178 H 0.06135 0.74043 0.75925 0.0
H2179 H 0.0049 0.71098 0.79106 0.0
C2180 C 1.00259 0.78044 0.83016 0.0
C2181 C 0.01336 0.79839 0.82047 0.0
C2182 C 0.03565 0.80085 0.82416 0.0
C2183 C 0.04772 0.78289 0.8309 0.0
C2184 C 0.03704 0.76298 0.83215 0.0
C2185 C 0.01468 0.76199 0.8361 0.0
C2186 C 0.00658 0.7392 0.83126 0.0
C2187 C 0.00923 0.72504 0.85357 0.0
C2188 C 0.983 0.73776 0.82199 0.0
C2189 C 0.02314 0.73292 0.813 0.0
C2190 C 0.04132 0.74603 0.81483 0.0
C2191 C 0.05539 0.74844 0.79553 0.0
C2192 C 0.05071 0.73785 0.77427 0.0
C2193 C 0.03283 0.7238 0.77261 0.0
C2194 C 0.01913 0.72112 0.7923 0.0
H2195 H 0.99794 0.23639 0.56442 0.0
H2196 H 0.01582 0.19339 0.5077 0.0
H2197 H 0.05329 0.20496 0.51098 0.0
H2198 H 1.00345 0.27388 0.55535 0.0
H2199 H 0.02149 0.29094 0.57212 0.0
H2200 H 0.01029 0.26725 0.58568 0.0
H2201 H 0.04874 0.2546 0.59609 0.0
H2202 H 0.05914 0.27872 0.58228 0.0
H2203 H 0.06918 0.25267 0.57344 0.0
H2204 H 0.06509 0.2361 0.49119 0.0
H2205 H 0.04985 0.26539 0.46769 0.0
H2206 H 0.02676 0.29652 0.53071 0.0
C2207 C 0.01035 0.22906 0.55354 0.0
C2208 C 0.00414 0.21585 0.53444 0.0
C2209 C 0.02014 0.20483 0.52149 0.0
C2210 C 0.04165 0.21125 0.52357 0.0
C2211 C 0.04614 0.23001 0.53663 0.0
C2212 C 0.03157 0.23718 0.55407 0.0
C2213 C 0.0364 0.26051 0.56015 0.0
C2214 C 0.01668 0.2739 0.56874 0.0
C2215 C 0.05446 0.26166 0.57905 0.0
C2216 C 0.0452 0.26727 0.53627 0.0
C2217 C 0.05432 0.24944 0.52479 0.0
C2218 C 0.0585 0.25002 0.50031 0.0
C2219 C 0.04977 0.26677 0.4868 0.0
C2220 C 0.03834 0.28354 0.49779 0.0
C2221 C 0.03669 0.28421 0.52259 0.0
H2222 H 0.47862 0.27893 0.26979 0.0
H2223 H 0.43292 0.2484 0.22206 0.0
H2224 H 0.42322 0.2225 0.25348 0.0
H2225 H 0.50267 0.23736 0.28569 0.0
H2226 H 0.50779 0.24344 0.31659 0.0
H2227 H 0.50322 0.26488 0.2962 0.0
H2228 H 0.47007 0.2791 0.32167 0.0
H2229 H 0.478 0.25821 0.34233 0.0
H2230 H 0.45066 0.25939 0.33202 0.0
H2231 H 0.42604 0.19499 0.28243 0.0
H2232 H 0.45109 0.16584 0.2919 0.0
H2233 H 0.49412 0.21076 0.32589 0.0
C2234 C 0.46637 0.26688 0.26615 0.0
C2235 C 0.45666 0.26539 0.24357 0.0
C2236 C 0.44067 0.24961 0.23929 0.0
C2237 C 0.43464 0.23528 0.25731 0.0
C2238 C 0.44475 0.23688 0.27951 0.0
C2239 C 0.46053 0.25229 0.28387 0.0
C2240 C 0.4736 0.24698 0.30579 0.0
C2241 C 0.49822 0.24814 0.30071 0.0
C2242 C 0.46771 0.26187 0.32662 0.0
C2243 C 0.46542 0.22429 0.31041 0.0
C2244 C 0.44709 0.21973 0.2968 0.0
C2245 C 0.44009 0.19849 0.29325 0.0
C2246 C 0.45431 0.18178 0.29906 0.0
C2247 C 0.47495 0.18701 0.30788 0.0
C2248 C 0.47842 0.20729 0.31823 0.0
H2249 H 0.56549 0.68798 0.04763 0.0
H2250 H 0.57977 0.74161 0.09296 0.0
H2251 H 0.54151 0.74534 0.10314 0.0
H2252 H 0.53556 0.70068 0.01706 0.0
H2253 H 0.51322 0.68203 0.01483 0.0
H2254 H 0.53843 0.67277 0.02614 0.0
H2255 H 0.51944 0.65956 0.06406 0.0
H2256 H 0.49379 0.66937 0.05313 0.0
H2257 H 0.50366 0.6779 0.08177 0.0
H2258 H 0.50934 0.75927 0.08406 0.0
H2259 H 0.48316 0.77109 0.05354 0.0
H2260 H 0.48781 0.7083 0.01996 0.0
C2261 C 0.56041 0.69891 0.06155 0.0
C2262 C 0.57419 0.71598 0.06762 0.0
C2263 C 0.56852 0.72942 0.08676 0.0
C2264 C 0.54668 0.73163 0.09263 0.0
C2265 C 0.53171 0.71879 0.08049 0.0
C2266 C 0.5384 0.70098 0.06706 0.0
C2267 C 0.52015 0.69297 0.05137 0.0
C2268 C 0.52731 0.68686 0.02586 0.0
C2269 C 0.50856 0.67384 0.06329 0.0
C2270 C 0.50596 0.71275 0.05192 0.0
C2271 C 0.51178 0.72674 0.07001 0.0
C2272 C 0.50383 0.74793 0.07072 0.0
C2273 C 0.4895 0.75479 0.0529 0.0
C2274 C 0.4837 0.74065 0.03428 0.0
C2275 C 0.49195 0.71943 0.03407 0.0
H2276 H 0.98718 0.23883 0.73324 0.0
H2277 H 0.94976 0.24434 0.79787 0.0
H2278 H 0.92451 0.26924 0.77781 0.0
H2279 H 0.98963 0.28535 0.7148 0.0
H2280 H 0.984 0.28246 0.68336 0.0
H2281 H 0.9939 0.25999 0.6999 0.0
H2282 H 0.96144 0.23688 0.68773 0.0
H2283 H 0.95088 0.25908 0.67045 0.0
H2284 H 0.93428 0.24633 0.69273 0.0
H2285 H 0.9101 0.29889 0.75579 0.0
H2286 H 0.92003 0.33531 0.7436 0.0
H2287 H 0.96021 0.30992 0.68816 0.0
C2288 C 0.97365 0.24546 0.74303 0.0
C2289 C 0.97059 0.24034 0.76708 0.0
C2290 C 0.95254 0.24865 0.77945 0.0
C2291 C 0.93772 0.2621 0.76795 0.0
C2292 C 0.94063 0.2663 0.74379 0.0
C2293 C 0.95816 0.25806 0.73145 0.0
C2294 C 0.95968 0.26763 0.70692 0.0
C2295 C 0.98315 0.27435 0.70093 0.0
C2296 C 0.95105 0.25153 0.68838 0.0
C2297 C 0.94406 0.28642 0.70984 0.0
C2298 C 0.93125 0.28371 0.73006 0.0
C2299 C 0.91982 0.30101 0.73997 0.0
C2300 C 0.92525 0.32189 0.73265 0.0
C2301 C 0.94246 0.32455 0.71659 0.0
C2302 C 0.9478 0.30735 0.70141 0.0
H2303 H 0.45993 0.17864 0.48389 0.0
H2304 H 0.42461 0.2143 0.43112 0.0
H2305 H 0.45833 0.22326 0.41071 0.0
H2306 H 0.49161 0.20303 0.50078 0.0
H2307 H 0.51765 0.18992 0.50026 0.0
H2308 H 0.49379 0.17388 0.49929 0.0
H2309 H 0.50677 0.15591 0.46053 0.0
H2310 H 0.53112 0.17197 0.46182 0.0
H2311 H 0.51451 0.17228 0.43549 0.0
H2312 H 0.48814 0.24767 0.41731 0.0
H2313 H 0.51402 0.27171 0.43741 0.0
H2314 H 0.53404 0.21904 0.48285 0.0
C2315 C 0.45949 0.18639 0.46665 0.0
C2316 C 0.4405 0.19709 0.45973 0.0
C2317 C 0.43946 0.20671 0.43709 0.0
C2318 C 0.45869 0.21194 0.42537 0.0
C2319 C 0.47824 0.20588 0.43592 0.0
C2320 C 0.4788 0.19119 0.45469 0.0
C2321 C 0.50119 0.19052 0.46568 0.0
C2322 C 0.50096 0.18935 0.49312 0.0
C2323 C 0.51417 0.17156 0.45524 0.0
C2324 C 0.50995 0.21167 0.4564 0.0
C2325 C 0.49729 0.21956 0.43798 0.0
C2326 C 0.49895 0.2411 0.43062 0.0
C2327 C 0.51335 0.25485 0.44252 0.0
C2328 C 0.52594 0.24708 0.46163 0.0
C2329 C 0.52477 0.22511 0.46795 0.0
H2330 H 0.51666 0.78634 0.21196 0.0
H2331 H 0.57065 0.77083 0.25787 0.0
H2332 H 0.58348 0.7443 0.22936 0.0
H2333 H 0.49798 0.74331 0.20665 0.0
H2334 H 0.49082 0.74045 0.17563 0.0
H2335 H 0.49386 0.76671 0.18805 0.0
H2336 H 0.5209 0.77576 0.15576 0.0
H2337 H 0.51933 0.74901 0.14338 0.0
H2338 H 0.5452 0.75997 0.15177 0.0
H2339 H 0.58384 0.71244 0.20733 0.0
H2340 H 0.56329 0.67954 0.21515 0.0
H2341 H 0.50691 0.70815 0.18329 0.0
C2342 C 0.53146 0.77755 0.21545 0.0
C2343 C 0.54259 0.78059 0.23697 0.0
C2344 C 0.56164 0.76868 0.24153 0.0
C2345 C 0.56947 0.75397 0.22493 0.0
C2346 C 0.55754 0.75019 0.20426 0.0
C2347 C 0.53867 0.76171 0.19955 0.0
C2348 C 0.52478 0.74984 0.18176 0.0
C2349 C 0.50047 0.75003 0.18853 0.0
C2350 C 0.52781 0.75923 0.1567 0.0
C2351 C 0.53544 0.72778 0.18324 0.0
C2352 C 0.55634 0.7294 0.19243 0.0
C2353 C 0.56756 0.71111 0.2004 0.0
C2354 C 0.55581 0.6923 0.20481 0.0
C2355 C 0.53347 0.6922 0.20053 0.0
C2356 C 0.52406 0.70855 0.18667 0.0
H2357 H 0.01753 0.71149 0.9635 0.0
H2358 H 0.06007 0.7662 0.95612 0.0
H2359 H 0.0342 0.78361 0.92973 0.0
H2360 H 0.97826 0.7391 0.90197 0.0
H2361 H 0.95647 0.72423 0.91525 0.0
H2362 H 0.98186 0.71092 0.90914 0.0
H2363 H 0.98278 0.69895 0.95358 0.0
H2364 H 0.95765 0.71268 0.95798 0.0
H2365 H 0.98048 0.71921 0.97659 0.0
H2366 H 0.00436 0.80177 0.94631 0.0
H2367 H 0.98168 0.80866 0.98077 0.0
H2368 H 0.94931 0.74761 0.97052 0.0
C2369 C 0.02146 0.72667 0.95503 0.0
C2370 C 0.03951 0.73841 0.96301 0.0
C2371 C 0.04553 0.7575 0.95121 0.0
C2372 C 0.03102 0.76728 0.93568 0.0
C2373 C 0.01044 0.75815 0.93321 0.0
C2374 C 0.00666 0.73663 0.93954 0.0
C2375 C 0.98254 0.73235 0.94012 0.0
C2376 C 0.97434 0.7263 0.91514 0.0
C2377 C 0.9755 0.71482 0.95822 0.0
C2378 C 0.97519 0.75491 0.94625 0.0
C2379 C 0.99091 0.76998 0.93967 0.0
C2380 C 0.99175 0.7903 0.95062 0.0
C2381 C 0.97901 0.79404 0.97061 0.0
C2382 C 0.9639 0.7785 0.97808 0.0
C2383 C 0.96078 0.75969 0.96463 0.0
H2384 H 0.06313 0.2558 0.43011 0.0
H2385 H 0.13319 0.2552 0.43536 0.0
H2386 H 0.13447 0.22433 0.40749 0.0
H2387 H 0.05662 0.19696 0.4278 0.0
H2388 H 0.03422 0.1984 0.40732 0.0
H2389 H 0.03892 0.22011 0.42804 0.0
H2390 H 0.04026 0.24737 0.39315 0.0
H2391 H 0.03564 0.22578 0.37233 0.0
H2392 H 0.05901 0.24296 0.3691 0.0
H2393 H 0.12802 0.19477 0.37628 0.0
H2394 H 0.11433 0.16831 0.34679 0.0
H2395 H 0.0485 0.18663 0.36432 0.0
C2396 C 0.07877 0.24904 0.42579 0.0
C2397 C 0.09808 0.25806 0.43524 0.0
C2398 C 0.11814 0.24867 0.42861 0.0
C2399 C 0.11903 0.23108 0.41271 0.0
C2400 C 0.09971 0.22269 0.4037 0.0
C2401 C 0.07994 0.23124 0.41026 0.0
C2402 C 0.06151 0.21934 0.39805 0.0
C2403 C 0.04696 0.20803 0.4164 0.0
C2404 C 0.04834 0.23478 0.38222 0.0
C2405 C 0.07399 0.20299 0.38327 0.0
C2406 C 0.09602 0.20522 0.38666 0.0
C2407 C 0.11078 0.19268 0.37383 0.0
C2408 C 0.10286 0.17762 0.35712 0.0
C2409 C 0.08032 0.1749 0.35348 0.0
C2410 C 0.06581 0.18776 0.36702 0.0
H2411 H 0.06649 0.83604 0.59418 0.0
H2412 H 0.11824 0.80059 0.62874 0.0
H2413 H 0.10079 0.80622 0.66755 0.0
H2414 H 0.057 0.8757 0.6433 0.0
H2415 H 0.02804 0.87544 0.63943 0.0
H2416 H 0.04554 0.87071 0.61434 0.0
H2417 H 0.02598 0.83446 0.60617 0.0
H2418 H 0.00853 0.83903 0.63129 0.0
H2419 H 0.02426 0.81456 0.62949 0.0
H2420 H 0.07624 0.81198 0.70221 0.0
H2421 H 0.04685 0.81924 0.73082 0.0
H2422 H 0.01053 0.85207 0.67558 0.0
C2423 C 0.07451 0.83017 0.61003 0.0
C2424 C 0.09411 0.81821 0.60831 0.0
C2425 C 0.10349 0.81004 0.62949 0.0
C2426 C 0.09363 0.8131 0.65171 0.0
C2427 C 0.07417 0.82441 0.65281 0.0
C2428 C 0.06471 0.83301 0.63262 0.0
C2429 C 0.04303 0.8434 0.63892 0.0
C2430 C 0.04343 0.86776 0.63368 0.0
C2431 C 0.02435 0.8322 0.62568 0.0
C2432 C 0.04182 0.83911 0.66563 0.0
C2433 C 0.05999 0.82806 0.67315 0.0
C2434 C 0.06212 0.82098 0.6966 0.0
C2435 C 0.04531 0.82519 0.71279 0.0
C2436 C 0.02652 0.83664 0.70576 0.0
C2437 C 0.02493 0.84384 0.68179 0.0
H2438 H 0.4542 0.84196 0.87191 0.0
H2439 H 0.39394 0.83871 0.83235 0.0
H2440 H 0.37795 0.8166 0.86465 0.0
H2441 H 0.45431 0.78859 0.89086 0.0
H2442 H 0.46599 0.7941 0.91959 0.0
H2443 H 0.4716 0.81177 0.89499 0.0
H2444 H 0.45709 0.84483 0.91874 0.0
H2445 H 0.45249 0.82711 0.94367 0.0
H2446 H 0.43069 0.84341 0.93214 0.0
H2447 H 0.36963 0.79263 0.90041 0.0
H2448 H 0.37004 0.76796 0.93487 0.0
H2449 H 0.43642 0.78649 0.94988 0.0
C2450 C 0.43746 0.83706 0.87011 0.0
C2451 C 0.42524 0.84237 0.84959 0.0
C2452 C 0.40355 0.83511 0.84795 0.0
C2453 C 0.39436 0.82253 0.86622 0.0
C2454 C 0.40707 0.81733 0.88598 0.0
C2455 C 0.42817 0.82442 0.88795 0.0
C2456 C 0.43904 0.81547 0.91001 0.0
C2457 C 0.4589 0.80166 0.90346 0.0
C2458 C 0.44519 0.83379 0.92717 0.0
C2459 C 0.42092 0.80179 0.92002 0.0
C2460 C 0.4025 0.8033 0.90613 0.0
C2461 C 0.38391 0.79151 0.91148 0.0
C2462 C 0.3843 0.77756 0.93119 0.0
C2463 C 0.40322 0.77531 0.94531 0.0
C2464 C 0.42159 0.78797 0.93975 0.0
H2465 H 0.47741 0.18494 0.20792 0.0
H2466 H 0.50131 0.12224 0.18549 0.0
H2467 H 0.47667 0.12335 0.15079 0.0
H2468 H 0.42113 0.17781 0.18904 0.0
H2469 H 0.41855 0.20538 0.1791 0.0
H2470 H 0.43673 0.19886 0.20311 0.0
H2471 H 0.46835 0.21665 0.18025 0.0
H2472 H 0.45035 0.22324 0.15616 0.0
H2473 H 0.47451 0.20776 0.15049 0.0
H2474 H 0.45064 0.13242 0.11694 0.0
H2475 H 0.42646 0.14882 0.08691 0.0
H2476 H 0.41998 0.20581 0.13132 0.0
C2477 C 0.47721 0.17119 0.19602 0.0
C2478 C 0.49123 0.15333 0.19974 0.0
C2479 C 0.49066 0.136 0.18327 0.0
C2480 C 0.4767 0.1365 0.16346 0.0
C2481 C 0.46334 0.15448 0.16018 0.0
C2482 C 0.4635 0.17152 0.17606 0.0
C2483 C 0.4485 0.1895 0.16786 0.0
C2484 C 0.43014 0.19309 0.18585 0.0
C2485 C 0.46119 0.21052 0.16342 0.0
C2486 C 0.43996 0.18002 0.14477 0.0
C2487 C 0.4486 0.15976 0.14071 0.0
C2488 C 0.44365 0.1482 0.1201 0.0
C2489 C 0.42979 0.15764 0.10312 0.0
C2490 C 0.42097 0.17856 0.10667 0.0
C2491 C 0.42606 0.18967 0.12804 0.0
H2492 H 0.10346 0.75338 0.09746 0.0
H2493 H 0.06109 0.78126 0.04422 0.0
H2494 H 0.05417 0.81241 0.07074 0.0
H2495 H 0.06951 0.76773 0.14685 0.0
H2496 H 0.09155 0.77291 0.16707 0.0
H2497 H 0.09496 0.75391 0.14312 0.0
H2498 H 0.12836 0.77528 0.12837 0.0
H2499 H 0.12496 0.79445 0.15221 0.0
H2500 H 0.12573 0.80369 0.12183 0.0
H2501 H 0.05132 0.84021 0.10287 0.0
H2502 H 0.04883 0.8609 0.13998 0.0
H2503 H 0.09077 0.81445 0.17501 0.0
C2504 C 0.09305 0.76628 0.09125 0.0
C2505 C 0.08317 0.76511 0.06843 0.0
C2506 C 0.06904 0.78191 0.06137 0.0
C2507 C 0.06506 0.7997 0.07634 0.0
C2508 C 0.07498 0.80038 0.09866 0.0
C2509 C 0.08842 0.78397 0.10631 0.0
C2510 C 0.09541 0.78786 0.13202 0.0
C2511 C 0.08738 0.76951 0.14822 0.0
C2512 C 0.12009 0.79047 0.1337 0.0
C2513 C 0.08388 0.80908 0.13758 0.0
C2514 C 0.07247 0.81604 0.11785 0.0
C2515 C 0.06021 0.83489 0.11838 0.0
C2516 C 0.05898 0.84663 0.13967 0.0
C2517 C 0.06972 0.8396 0.16062 0.0
C2518 C 0.08273 0.82066 0.15932 0.0
H2519 H 0.45162 0.82961 0.42496 0.0
H2520 H 0.3957 0.85971 0.39258 0.0
H2521 H 0.41848 0.87216 0.35904 0.0
H2522 H 0.49355 0.86911 0.40356 0.0
H2523 H 0.51295 0.84789 0.39833 0.0
H2524 H 0.49325 0.84512 0.42174 0.0
H2525 H 0.48058 0.80903 0.40351 0.0
H2526 H 0.50004 0.81161 0.37996 0.0
H2527 H 0.47175 0.80808 0.373 0.0
H2528 H 0.44733 0.87938 0.32745 0.0
H2529 H 0.47888 0.87881 0.30008 0.0
H2530 H 0.51469 0.84041 0.35102 0.0
C2531 C 0.44446 0.83979 0.41141 0.0
C2532 C 0.42207 0.84463 0.41195 0.0
C2533 C 0.41295 0.85663 0.393 0.0
C2534 C 0.42577 0.8636 0.37378 0.0
C2535 C 0.44768 0.85808 0.37344 0.0
C2536 C 0.45695 0.84641 0.39179 0.0
C2537 C 0.4802 0.84046 0.38591 0.0
C2538 C 0.49592 0.85129 0.40343 0.0
C2539 C 0.48332 0.81582 0.38553 0.0
C2540 C 0.48239 0.85006 0.3612 0.0
C2541 C 0.46366 0.86065 0.35453 0.0
C2542 C 0.46204 0.87109 0.33255 0.0
C2543 C 0.47998 0.87069 0.31709 0.0
C2544 C 0.49903 0.85937 0.32333 0.0
C2545 C 0.50017 0.84895 0.34569 0.0
H2546 H 0.38866 0.24157 0.59163 0.0
H2547 H 0.38537 0.18903 0.54095 0.0
H2548 H 0.38991 0.16269 0.57353 0.0
H2549 H 0.43052 0.22073 0.62366 0.0
H2550 H 0.42175 0.22951 0.65264 0.0
H2551 H 0.41334 0.24412 0.62661 0.0
H2552 H 0.37317 0.23905 0.63818 0.0
H2553 H 0.38139 0.22462 0.66453 0.0
H2554 H 0.36288 0.21228 0.6438 0.0
H2555 H 0.40153 0.14273 0.60949 0.0
H2556 H 0.41785 0.13021 0.6472 0.0
H2557 H 0.41355 0.19508 0.67566 0.0
C2558 C 0.38763 0.22447 0.58767 0.0
C2559 C 0.38579 0.21724 0.56389 0.0
C2560 C 0.38601 0.1948 0.55911 0.0
C2561 C 0.38872 0.17975 0.57751 0.0
C2562 C 0.39134 0.18737 0.60065 0.0
C2563 C 0.39063 0.2092 0.60589 0.0
C2564 C 0.39659 0.21319 0.63175 0.0
C2565 C 0.41674 0.22773 0.63376 0.0
C2566 C 0.37736 0.22285 0.64537 0.0
C2567 C 0.40137 0.19029 0.63998 0.0
C2568 C 0.39807 0.17566 0.62175 0.0
C2569 C 0.40353 0.1539 0.62413 0.0
C2570 C 0.41276 0.1469 0.64557 0.0
C2571 C 0.4162 0.16152 0.66448 0.0
C2572 C 0.41017 0.18343 0.66177 0.0
H2573 H 0.03574 0.17646 0.82057 0.0
H2574 H 0.00807 0.11598 0.84493 0.0
H2575 H 0.03393 0.11549 0.87856 0.0
H2576 H 0.09239 0.16498 0.83759 0.0
H2577 H 0.09692 0.19263 0.8464 0.0
H2578 H 0.07798 0.18656 0.82298 0.0
H2579 H 0.04829 0.20746 0.8458 0.0
H2580 H 0.0668 0.21318 0.86963 0.0
H2581 H 0.04165 0.19961 0.87579 0.0
H2582 H 0.05978 0.1249 0.91311 0.0
H2583 H 0.0841 0.14214 0.9428 0.0
H2584 H 0.09547 0.19475 0.89332 0.0
C2585 C 0.03545 0.16278 0.83258 0.0
C2586 C 0.01995 0.14619 0.82999 0.0
C2587 C 0.01998 0.12875 0.84634 0.0
C2588 C 0.03456 0.12838 0.86558 0.0
C2589 C 0.04923 0.14538 0.868 0.0
C2590 C 0.04995 0.16207 0.85164 0.0
C2591 C 0.06618 0.17913 0.85875 0.0
C2592 C 0.08446 0.18091 0.84033 0.0
C2593 C 0.05506 0.20113 0.86272 0.0
C2594 C 0.0743 0.16966 0.88184 0.0
C2595 C 0.06439 0.15027 0.88713 0.0
C2596 C 0.06803 0.13983 0.90884 0.0
C2597 C 0.08192 0.14967 0.9256 0.0
C2598 C 0.09208 0.16964 0.9204 0.0
C2599 C 0.08846 0.17928 0.89792 0.0
H2600 H 0.93126 0.83116 0.68451 0.0
H2601 H 0.92264 0.7777 0.73347 0.0
H2602 H 0.89767 0.76031 0.70474 0.0
H2603 H 0.87633 0.83046 0.65616 0.0
H2604 H 0.88782 0.83615 0.62739 0.0
H2605 H 0.90045 0.84672 0.65386 0.0
H2606 H 0.93676 0.82874 0.64184 0.0
H2607 H 0.92435 0.81831 0.61541 0.0
H2608 H 0.9374 0.80011 0.63594 0.0
H2609 H 0.87776 0.7471 0.66936 0.0
H2610 H 0.86973 0.73567 0.62855 0.0
H2611 H 0.89387 0.79692 0.60186 0.0
C2612 C 0.92354 0.81613 0.68958 0.0
C2613 C 0.92846 0.80586 0.71129 0.0
C2614 C 0.91882 0.78583 0.71694 0.0
C2615 C 0.90449 0.77603 0.70088 0.0
C2616 C 0.9002 0.78653 0.6794 0.0
C2617 C 0.90969 0.80604 0.67366 0.0
C2618 C 0.90581 0.81216 0.64802 0.0
C2619 C 0.89176 0.83259 0.64627 0.0
C2620 C 0.92735 0.81497 0.63453 0.0
C2621 C 0.89355 0.79248 0.63976 0.0
C2622 C 0.88973 0.77831 0.65835 0.0
C2623 C 0.88038 0.75816 0.65475 0.0
C2624 C 0.87591 0.75184 0.63143 0.0
C2625 C 0.88142 0.76539 0.612 0.0
C2626 C 0.88931 0.78635 0.61635 0.0
H2627 H 0.95895 0.14926 0.45595 0.0
H2628 H 0.89532 0.16873 0.4316 0.0
H2629 H 0.90099 0.14881 0.39429 0.0
H2630 H 0.98481 0.16006 0.40809 0.0
H2631 H 1.00366 0.13784 0.40793 0.0
H2632 H 0.99202 0.14654 0.43537 0.0
H2633 H 0.97748 0.1079 0.44325 0.0
H2634 H 0.98934 0.09891 0.41568 0.0
H2635 H 0.96093 0.0947 0.42121 0.0
H2636 H 0.91745 0.13773 0.35646 0.0
H2637 H 0.94265 0.1349 0.3226 0.0
H2638 H 0.99505 0.12073 0.37149 0.0
C2639 C 0.94585 0.14844 0.44319 0.0
C2640 C 0.92682 0.16053 0.44649 0.0
C2641 C 0.91002 0.15941 0.42943 0.0
C2642 C 0.91307 0.14805 0.4082 0.0
C2643 C 0.93273 0.13752 0.40467 0.0
C2644 C 0.94866 0.13715 0.42201 0.0
C2645 C 0.96965 0.12814 0.41255 0.0
C2646 C 0.9886 0.14411 0.41618 0.0
C2647 C 0.97463 0.1061 0.42385 0.0
C2648 C 0.96374 0.1257 0.38665 0.0
C2649 C 0.94221 0.1305 0.3825 0.0
C2650 C 0.93411 0.13308 0.3595 0.0
C2651 C 0.94854 0.13154 0.34036 0.0
C2652 C 0.97075 0.12767 0.34451 0.0
C2653 C 0.97808 0.12353 0.3678 0.0
H2654 H 0.59651 0.2612 0.12884 0.0
H2655 H 0.64973 0.21653 0.11848 0.0
H2656 H 0.64441 0.20266 0.15942 0.0
H2657 H 0.60307 0.26966 0.19592 0.0
H2658 H 0.57399 0.27121 0.19773 0.0
H2659 H 0.58796 0.28021 0.17131 0.0
H2660 H 0.56209 0.25252 0.14715 0.0
H2661 H 0.55041 0.24461 0.17502 0.0
H2662 H 0.56266 0.22464 0.15597 0.0
H2663 H 0.63087 0.19119 0.19882 0.0
H2664 H 0.60643 0.17763 0.22983 0.0
H2665 H 0.56011 0.22797 0.21308 0.0
C2666 C 0.60746 0.2489 0.13544 0.0
C2667 C 0.62376 0.24009 0.12081 0.0
C2668 C 0.63727 0.22352 0.12961 0.0
C2669 C 0.63451 0.21579 0.15286 0.0
C2670 C 0.61811 0.22477 0.16681 0.0
C2671 C 0.6046 0.24072 0.15826 0.0
C2672 C 0.58597 0.24511 0.175 0.0
C2673 C 0.5878 0.2679 0.18563 0.0
C2674 C 0.56401 0.24152 0.16257 0.0
C2675 C 0.59025 0.22816 0.1937 0.0
C2676 C 0.60945 0.21731 0.18918 0.0
C2677 C 0.61602 0.19975 0.20272 0.0
C2678 C 0.60203 0.19221 0.22031 0.0
C2679 C 0.58147 0.20187 0.22375 0.0
C2680 C 0.57598 0.22074 0.2112 0.0
H2681 H 0.58724 0.81451 0.94255 0.0
H2682 H 0.52891 0.80392 0.98391 0.0
H2683 H 0.50881 0.8282 0.9564 0.0
H2684 H 0.57768 0.87079 0.92605 0.0
H2685 H 0.58873 0.86676 0.89675 0.0
H2686 H 0.59873 0.85107 0.92142 0.0
H2687 H 0.58996 0.81564 0.89865 0.0
H2688 H 0.58013 0.83117 0.87393 0.0
H2689 H 0.5629 0.81127 0.88766 0.0
H2690 H 0.4954 0.85233 0.92308 0.0
H2691 H 0.48798 0.86909 0.88411 0.0
H2692 H 0.55546 0.86154 0.86461 0.0
C2693 C 0.57031 0.81755 0.94628 0.0
C2694 C 0.55963 0.8076 0.96556 0.0
C2695 C 0.53736 0.81153 0.96928 0.0
C2696 C 0.52595 0.82541 0.95391 0.0
C2697 C 0.53717 0.83501 0.9351 0.0
C2698 C 0.55882 0.83098 0.93118 0.0
C2699 C 0.56684 0.84107 0.90842 0.0
C2700 C 0.58401 0.85846 0.91348 0.0
C2701 C 0.57544 0.82376 0.89116 0.0
C2702 C 0.54613 0.85102 0.89959 0.0
C2703 C 0.52931 0.84792 0.91548 0.0
C2704 C 0.50842 0.85496 0.91058 0.0
C2705 C 0.50446 0.86462 0.88848 0.0
C2706 C 0.52129 0.86668 0.87147 0.0
C2707 C 0.54243 0.86035 0.87741 0.0
H2708 H 0.91302 0.19467 0.8148 0.0
H2709 H 0.91615 0.13219 0.84935 0.0
H2710 H 0.89208 0.14565 0.88121 0.0
H2711 H 0.91988 0.2243 0.86232 0.0
H2712 H 0.90188 0.24616 0.85472 0.0
H2713 H 0.91365 0.23008 0.83165 0.0
H2714 H 0.87552 0.22088 0.81535 0.0
H2715 H 0.86349 0.23717 0.83841 0.0
H2716 H 0.85547 0.20935 0.83486 0.0
H2717 H 0.87634 0.16826 0.91343 0.0
H2718 H 0.86934 0.19745 0.94232 0.0
H2719 H 0.87534 0.24481 0.88586 0.0
C2720 C 0.90789 0.18359 0.8286 0.0
C2721 C 0.91629 0.16249 0.82981 0.0
C2722 C 0.90958 0.14838 0.84811 0.0
C2723 C 0.89592 0.15589 0.86621 0.0
C2724 C 0.88881 0.17729 0.86523 0.0
C2725 C 0.89425 0.1908 0.84656 0.0
C2726 C 0.88742 0.21384 0.85116 0.0
C2727 C 0.90686 0.22948 0.84991 0.0
C2728 C 0.86939 0.2207 0.83392 0.0
C2729 C 0.87888 0.21157 0.87615 0.0
C2730 C 0.87929 0.19032 0.88381 0.0
C2731 C 0.87523 0.18484 0.90743 0.0
C2732 C 0.87134 0.20152 0.92374 0.0
C2733 C 0.87174 0.22336 0.91629 0.0
C2734 C 0.87457 0.22825 0.89202 0.0
H2735 H 0.59272 0.19124 0.58364 0.0
H2736 H 0.54232 0.18379 0.53073 0.0
H2737 H 0.52251 0.15916 0.55776 0.0
H2738 H 0.58979 0.13616 0.61012 0.0
H2739 H 0.59384 0.1465 0.63974 0.0
H2740 H 0.60587 0.16011 0.61468 0.0
H2741 H 0.58713 0.19586 0.62711 0.0
H2742 H 0.5752 0.18244 0.65218 0.0
H2743 H 0.55819 0.19629 0.63106 0.0
H2744 H 0.50709 0.1381 0.59158 0.0
H2745 H 0.49425 0.12667 0.63098 0.0
H2746 H 0.55394 0.14994 0.6627 0.0
C2747 C 0.57779 0.18394 0.5775 0.0
C2748 C 0.56904 0.18908 0.55503 0.0
C2749 C 0.54917 0.1799 0.54787 0.0
C2750 C 0.53801 0.16576 0.563 0.0
C2751 C 0.54698 0.16117 0.58521 0.0
C2752 C 0.56632 0.1702 0.59253 0.0
C2753 C 0.57099 0.16527 0.61836 0.0
C2754 C 0.59133 0.15117 0.62086 0.0
C2755 C 0.57297 0.18621 0.63303 0.0
C2756 C 0.55084 0.15272 0.62474 0.0
C2757 C 0.53755 0.14994 0.60519 0.0
C2758 C 0.51744 0.13996 0.60696 0.0
C2759 C 0.51033 0.13347 0.62946 0.0
C2760 C 0.52311 0.13746 0.64997 0.0
C2761 C 0.54392 0.1465 0.64736 0.0
H2762 H 0.61281 0.81307 0.31018 0.0
H2763 H 0.59767 0.87191 0.34833 0.0
H2764 H 0.62151 0.86029 0.38124 0.0
H2765 H 0.60577 0.78042 0.35383 0.0
H2766 H 0.62699 0.76131 0.34742 0.0
H2767 H 0.61587 0.77731 0.32396 0.0
H2768 H 0.65406 0.79185 0.31362 0.0
H2769 H 0.66545 0.77564 0.33717 0.0
H2770 H 0.67034 0.80435 0.33639 0.0
H2771 H 0.637 0.83812 0.4135 0.0
H2772 H 0.6424 0.80805 0.44159 0.0
H2773 H 0.64799 0.76351 0.38246 0.0
C2774 C 0.61535 0.82392 0.32504 0.0
C2775 C 0.60353 0.84327 0.32695 0.0
C2776 C 0.60687 0.85709 0.34656 0.0
C2777 C 0.62041 0.85062 0.36526 0.0
C2778 C 0.63073 0.83058 0.36365 0.0
C2779 C 0.62866 0.81761 0.34372 0.0
C2780 C 0.63768 0.79525 0.34786 0.0
C2781 C 0.62055 0.77758 0.34301 0.0
C2782 C 0.6581 0.79157 0.33287 0.0
C2783 C 0.64319 0.79692 0.37392 0.0
C2784 C 0.63984 0.8176 0.38256 0.0
C2785 C 0.64042 0.82207 0.40685 0.0
C2786 C 0.64344 0.80487 0.42271 0.0
C2787 C 0.64552 0.78348 0.41412 0.0
C2788 C 0.64666 0.77975 0.38946 0.0
H2789 H 0.98899 0.89346 0.15118 0.0
H2790 H 0.93752 0.88389 0.20243 0.0
H2791 H 0.9113 0.88039 0.16962 0.0
H2792 H 0.9542 0.91714 0.09981 0.0
H2793 H 0.96997 0.90177 0.07883 0.0
H2794 H 0.98262 0.91265 0.10514 0.0
H2795 H 0.99628 0.87431 0.11604 0.0
H2796 H 0.9835 0.86332 0.09023 0.0
H2797 H 0.97696 0.85265 0.11916 0.0
H2798 H 0.89346 0.86759 0.13338 0.0
H2799 H 0.88595 0.84562 0.09788 0.0
H2800 H 0.94974 0.86057 0.07038 0.0
C2801 C 0.97202 0.89166 0.15555 0.0
C2802 C 0.96524 0.88883 0.17927 0.0
C2803 C 0.94301 0.8862 0.18434 0.0
C2804 C 0.928 0.8843 0.16578 0.0
C2805 C 0.93556 0.88521 0.14242 0.0
C2806 C 0.95711 0.88908 0.13727 0.0
C2807 C 0.96231 0.88431 0.11155 0.0
C2808 C 0.96758 0.90522 0.09803 0.0
C2809 C 0.98081 0.86766 0.10915 0.0
C2810 C 0.94089 0.87513 0.10364 0.0
C2811 C 0.92537 0.87675 0.12128 0.0
C2812 C 0.90523 0.86681 0.11918 0.0
C2813 C 0.90116 0.85427 0.099 0.0
C2814 C 0.9174 0.85139 0.08158 0.0
C2815 C 0.93707 0.86267 0.08346 0.0
H2816 H 0.56035 0.66405 0.8739 0.0
H2817 H 0.61898 0.67099 0.83217 0.0
H2818 H 0.63587 0.69124 0.86538 0.0
H2819 H 0.56078 0.71633 0.89796 0.0
H2820 H 0.55019 0.70834 0.92647 0.0
H2821 H 0.54371 0.69281 0.9004 0.0
H2822 H 0.55863 0.65831 0.92057 0.0
H2823 H 0.56518 0.6737 0.9468 0.0
H2824 H 0.58588 0.65816 0.93206 0.0
H2825 H 0.64508 0.71374 0.90256 0.0
H2826 H 0.64571 0.7355 0.93953 0.0
H2827 H 0.58102 0.71296 0.95638 0.0
C2828 C 0.57692 0.66939 0.87177 0.0
C2829 C 0.58838 0.66562 0.85033 0.0
C2830 C 0.6099 0.67335 0.84842 0.0
C2831 C 0.61961 0.68496 0.86721 0.0
C2832 C 0.60765 0.68869 0.88789 0.0
C2833 C 0.58677 0.68099 0.89023 0.0
C2834 C 0.5768 0.68803 0.9136 0.0
C2835 C 0.5567 0.70222 0.90934 0.0
C2836 C 0.57131 0.66837 0.92918 0.0
C2837 C 0.59527 0.70103 0.92411 0.0
C2838 C 0.61295 0.70128 0.90909 0.0
C2839 C 0.63141 0.71335 0.91456 0.0
C2840 C 0.63167 0.72563 0.93568 0.0
C2841 C 0.61361 0.72575 0.95123 0.0
C2842 C 0.59536 0.71294 0.94532 0.0
H2843 H 0.5041 0.31719 0.17704 0.0
H2844 H 0.50635 0.38631 0.18955 0.0
H2845 H 0.53518 0.38978 0.15909 0.0
H2846 H 0.56079 0.30987 0.16901 0.0
H2847 H 0.558 0.28998 0.14581 0.0
H2848 H 0.53745 0.29237 0.16835 0.0
H2849 H 0.50798 0.29825 0.13659 0.0
H2850 H 0.52802 0.29487 0.11371 0.0
H2851 H 0.51156 0.31891 0.11435 0.0
H2852 H 0.56311 0.38516 0.12427 0.0
H2853 H 0.58835 0.37243 0.09266 0.0
H2854 H 0.56757 0.30657 0.10574 0.0
C2855 C 0.51069 0.33311 0.17358 0.0
C2856 C 0.5029 0.35148 0.18581 0.0
C2857 C 0.51213 0.37194 0.1806 0.0
C2858 C 0.52843 0.37408 0.16318 0.0
C2859 C 0.53547 0.3556 0.15117 0.0
C2860 C 0.52691 0.33551 0.15643 0.0
C2861 C 0.53711 0.31801 0.14146 0.0
C2862 C 0.54903 0.30158 0.15714 0.0
C2863 C 0.52015 0.30687 0.12559 0.0
C2864 C 0.55281 0.33124 0.12688 0.0
C2865 C 0.55163 0.35295 0.13235 0.0
C2866 C 0.56429 0.36812 0.12015 0.0
C2867 C 0.57858 0.3608 0.1022 0.0
C2868 C 0.58035 0.33848 0.09696 0.0
C2869 C 0.56712 0.32373 0.10956 0.0
H2870 H 0.95705 0.2639 0.44587 0.0
H2871 H 0.88712 0.26715 0.45269 0.0
H2872 H 0.88573 0.2942 0.42078 0.0
H2873 H 0.96485 0.32202 0.43337 0.0
H2874 H 0.98625 0.3174 0.41223 0.0
H2875 H 0.98215 0.29872 0.43638 0.0
H2876 H 0.97875 0.26727 0.40631 0.0
H2877 H 0.98276 0.28583 0.38206 0.0
H2878 H 0.959 0.26896 0.38277 0.0
H2879 H 0.89117 0.31879 0.38548 0.0
H2880 H 0.90371 0.34133 0.35183 0.0
H2881 H 0.97014 0.32459 0.36861 0.0
C2882 C 0.94148 0.27058 0.44099 0.0
C2883 C 0.92218 0.26317 0.45213 0.0
C2884 C 0.90219 0.27233 0.44473 0.0
C2885 C 0.90119 0.28779 0.42646 0.0
C2886 C 0.92032 0.29439 0.41559 0.0
C2887 C 0.94016 0.28633 0.42275 0.0
C2888 C 0.95822 0.29614 0.40777 0.0
C2889 C 0.97379 0.30935 0.42337 0.0
C2890 C 0.9704 0.2785 0.39391 0.0
C2891 C 0.94539 0.31074 0.39105 0.0
C2892 C 0.92352 0.30932 0.39578 0.0
C2893 C 0.9083 0.32031 0.38189 0.0
C2894 C 0.91556 0.3331 0.36275 0.0
C2895 C 0.93791 0.33522 0.35773 0.0
C2896 C 0.95296 0.32384 0.37227 0.0
H2897 H 0.9925 0.68136 0.69034 0.0
H2898 H 1.002 0.61204 0.68558 0.0
H2899 H 0.97451 0.61029 0.65355 0.0
H2900 H 0.93401 0.681 0.67929 0.0
H2901 H 0.93489 0.70569 0.66233 0.0
H2902 H 0.95433 0.70108 0.68566 0.0
H2903 H 0.98558 0.70727 0.65575 0.0
H2904 H 0.96625 0.71181 0.63234 0.0
H2905 H 0.98671 0.69128 0.62899 0.0
H2906 H 0.94773 0.61704 0.61887 0.0
H2907 H 0.92328 0.63124 0.58751 0.0
H2908 H 0.93057 0.69571 0.61669 0.0
C2909 C 0.9886 0.6657 0.68289 0.0
C2910 C 0.99948 0.64679 0.69073 0.0
C2911 C 0.99385 0.62674 0.68019 0.0
C2912 C 0.97827 0.62561 0.66185 0.0
C2913 C 0.96819 0.64464 0.65428 0.0
C2914 C 0.973 0.66427 0.66475 0.0
C2915 C 0.96031 0.68248 0.6532 0.0
C2916 C 0.94498 0.69319 0.67119 0.0
C2917 C 0.97563 0.69919 0.6419 0.0
C2918 C 0.94778 0.67015 0.63437 0.0
C2919 C 0.95253 0.64834 0.63511 0.0
C2920 C 0.94368 0.63405 0.61846 0.0
C2921 C 0.92975 0.64225 0.60067 0.0
C2922 C 0.92452 0.66455 0.59972 0.0
C2923 C 0.93368 0.6785 0.61706 0.0
H2924 H 0.55219 0.34492 0.6384 0.0
H2925 H 0.61347 0.34469 0.67618 0.0
H2926 H 0.63022 0.32494 0.64255 0.0
H2927 H 0.55579 0.29219 0.61688 0.0
H2928 H 0.54285 0.29797 0.58888 0.0
H2929 H 0.53667 0.3141 0.61458 0.0
H2930 H 0.54731 0.34869 0.59157 0.0
H2931 H 0.55363 0.33269 0.56573 0.0
H2932 H 0.57372 0.35058 0.57812 0.0
H2933 H 0.63928 0.30236 0.60595 0.0
H2934 H 0.63976 0.27868 0.57059 0.0
H2935 H 0.57223 0.2938 0.55739 0.0
C2936 C 0.56928 0.3412 0.63953 0.0
C2937 C 0.58156 0.34667 0.65997 0.0
C2938 C 0.60376 0.34096 0.66069 0.0
C2939 C 0.61339 0.32971 0.64165 0.0
C2940 C 0.60064 0.32428 0.62201 0.0
C2941 C 0.57905 0.32991 0.62087 0.0
C2942 C 0.56836 0.32096 0.59869 0.0
C2943 C 0.54984 0.30538 0.60515 0.0
C2944 C 0.56029 0.33933 0.58257 0.0
C2945 C 0.58725 0.3091 0.58755 0.0
C2946 C 0.60577 0.31131 0.60114 0.0
C2947 C 0.62493 0.30078 0.59504 0.0
C2948 C 0.62506 0.28737 0.57485 0.0
C2949 C 0.60614 0.28452 0.56091 0.0
C2950 C 0.58713 0.29593 0.56725 0.0
H2951 H 0.9028 0.31707 0.88713 0.0
H2952 H 0.92516 0.36406 0.93886 0.0
H2953 H 0.94703 0.38182 0.90753 0.0
H2954 H 0.95231 0.31004 0.85884 0.0
H2955 H 0.94104 0.30669 0.82952 0.0
H2956 H 0.92528 0.2996 0.85521 0.0
H2957 H 0.89467 0.32532 0.84134 0.0
H2958 H 0.91036 0.33246 0.81551 0.0
H2959 H 0.90078 0.35327 0.8353 0.0
H2960 H 0.96951 0.39217 0.87065 0.0
H2961 H 0.98993 0.39378 0.83282 0.0
H2962 H 0.95237 0.33975 0.80604 0.0
C2963 C 0.91181 0.33144 0.8919 0.0
C2964 C 0.91192 0.33927 0.91559 0.0
C2965 C 0.92445 0.35787 0.92088 0.0
C2966 C 0.93702 0.36803 0.90316 0.0
C2967 C 0.9369 0.35949 0.88016 0.0
C2968 C 0.92447 0.34164 0.87455 0.0
C2969 C 0.92816 0.33452 0.84909 0.0
C2970 C 0.93724 0.31135 0.84812 0.0
C2971 C 0.90725 0.33652 0.83445 0.0
C2972 C 0.94486 0.35094 0.84122 0.0
C2973 C 0.94967 0.36533 0.85925 0.0
C2974 C 0.96558 0.38116 0.85635 0.0
C2975 C 0.97708 0.38202 0.83471 0.0
C2976 C 0.97268 0.36712 0.81616 0.0
C2977 C 0.956 0.35169 0.81954 0.0
H2978 H 0.89296 0.76162 0.1052 0.0
H2979 H 0.92072 0.72879 0.04446 0.0
H2980 H 0.9271 0.69633 0.06919 0.0
H2981 H 0.93181 0.74148 0.14666 0.0
H2982 H 0.91319 0.73909 0.17114 0.0
H2983 H 0.90841 0.75882 0.1482 0.0
H2984 H 0.87036 0.74264 0.1408 0.0
H2985 H 0.87506 0.72279 0.16369 0.0
H2986 H 0.86772 0.71427 0.13413 0.0
H2987 H 0.93219 0.66816 0.10052 0.0
H2988 H 0.93857 0.64698 0.13685 0.0
H2989 H 0.90937 0.69785 0.1791 0.0
C2990 C 0.89982 0.74733 0.09703 0.0
C2991 C 0.90574 0.74745 0.07264 0.0
C2992 C 0.91562 0.72886 0.06287 0.0
C2993 C 0.91931 0.71036 0.07683 0.0
C2994 C 0.91342 0.71072 0.10079 0.0
C2995 C 0.90409 0.72878 0.11095 0.0
C2996 C 0.9012 0.72548 0.13766 0.0
C2997 C 0.91444 0.74221 0.15174 0.0
C2998 C 0.87715 0.72635 0.14447 0.0
C2999 C 0.91033 0.70275 0.1409 0.0
C3000 C 0.91706 0.69458 0.11925 0.0
C3001 C 0.92681 0.67435 0.1175 0.0
C3002 C 0.93028 0.66235 0.13833 0.0
C3003 C 0.92417 0.67042 0.16096 0.0
C3004 C 0.91367 0.69085 0.16211 0.0
H3005 H 0.5941 0.69902 0.38166 0.0
H3006 H 0.58371 0.64324 0.42696 0.0
H3007 H 0.55993 0.62726 0.39612 0.0
H3008 H 0.5402 0.70277 0.36136 0.0
H3009 H 0.54727 0.71148 0.3318 0.0
H3010 H 0.56501 0.71739 0.35633 0.0
H3011 H 0.59665 0.69853 0.33447 0.0
H3012 H 0.57902 0.69258 0.3098 0.0
H3013 H 0.59349 0.67105 0.32442 0.0
H3014 H 0.53536 0.61835 0.36072 0.0
H3015 H 0.51189 0.61779 0.32511 0.0
H3016 H 0.53788 0.67991 0.30355 0.0
C3017 C 0.58732 0.68317 0.38496 0.0
C3018 C 0.59125 0.67222 0.40673 0.0
C3019 C 0.58131 0.65184 0.4104 0.0
C3020 C 0.56771 0.64266 0.39296 0.0
C3021 C 0.56398 0.65406 0.37189 0.0
C3022 C 0.57352 0.67392 0.3679 0.0
C3023 C 0.56586 0.68361 0.34454 0.0
C3024 C 0.55387 0.70508 0.34877 0.0
C3025 C 0.58489 0.68661 0.32729 0.0
C3026 C 0.55049 0.66614 0.33592 0.0
C3027 C 0.54968 0.64916 0.35188 0.0
C3028 C 0.53605 0.63151 0.34806 0.0
C3029 C 0.52277 0.6313 0.32768 0.0
C3030 C 0.52306 0.64866 0.3112 0.0
C3031 C 0.53739 0.66617 0.31545 0.0
H3032 H 0.41918 0.36699 0.15643 0.0
H3033 H 0.37334 0.34389 0.2082 0.0
H3034 H 0.35007 0.33012 0.17634 0.0
H3035 H 0.3762 0.37174 0.10181 0.0
H3036 H 0.39735 0.36232 0.08236 0.0
H3037 H 0.40372 0.38041 0.10652 0.0
H3038 H 0.43238 0.35317 0.1213 0.0
H3039 H 0.42577 0.3347 0.09807 0.0
H3040 H 0.4242 0.32596 0.12859 0.0
H3041 H 0.34282 0.30486 0.14499 0.0
H3042 H 0.34813 0.27631 0.11505 0.0
H3043 H 0.39748 0.3149 0.08089 0.0
C3044 C 0.40322 0.36087 0.16064 0.0
C3045 C 0.39772 0.35672 0.18443 0.0
C3046 C 0.37741 0.34768 0.18994 0.0
C3047 C 0.36421 0.33957 0.17184 0.0
C3048 C 0.37155 0.34095 0.14844 0.0
C3049 C 0.39023 0.35223 0.14259 0.0
C3050 C 0.39741 0.3471 0.11744 0.0
C3051 C 0.39342 0.36655 0.10106 0.0
C3052 C 0.42131 0.33977 0.11635 0.0
C3053 C 0.38203 0.32885 0.11158 0.0
C3054 C 0.36671 0.32608 0.12928 0.0
C3055 C 0.35392 0.30751 0.13042 0.0
C3056 C 0.35719 0.29124 0.11353 0.0
C3057 C 0.37297 0.29376 0.09563 0.0
C3058 C 0.38481 0.31311 0.09403 0.0
H3059 H 0.50028 0.63974 0.87572 0.0
H3060 H 0.44614 0.6259 0.82894 0.0
H3061 H 0.42097 0.63175 0.86243 0.0
H3062 H 0.47518 0.61961 0.93342 0.0
H3063 H 0.48729 0.64174 0.94946 0.0
H3064 H 0.5011 0.63009 0.92432 0.0
H3065 H 0.50348 0.66796 0.90486 0.0
H3066 H 0.48952 0.67968 0.9296 0.0
H3067 H 0.47899 0.68318 0.89997 0.0
H3068 H 0.40195 0.64573 0.89776 0.0
H3069 H 0.39026 0.66876 0.93091 0.0
H3070 H 0.45707 0.67583 0.9536 0.0
C3071 C 0.48318 0.63707 0.87267 0.0
C3072 C 0.4751 0.63225 0.84981 0.0
C3073 C 0.45262 0.62945 0.8464 0.0
C3074 C 0.43826 0.6326 0.86534 0.0
C3075 C 0.44674 0.63843 0.88742 0.0
C3076 C 0.46874 0.64057 0.89116 0.0
C3077 C 0.47369 0.6508 0.91495 0.0
C3078 C 0.48498 0.63459 0.93152 0.0
C3079 C 0.48719 0.67163 0.91215 0.0
C3080 C 0.451 0.65554 0.9233 0.0
C3081 C 0.43569 0.64752 0.90765 0.0
C3082 C 0.41373 0.65166 0.91042 0.0
C3083 C 0.40728 0.66484 0.92928 0.0
C3084 C 0.42284 0.67412 0.94475 0.0
C3085 C 0.44486 0.66882 0.94213 0.0
H3086 H 0.11533 0.69123 0.69866 0.0
H3087 H 0.09248 0.63078 0.6693 0.0
H3088 H 0.11404 0.63716 0.6331 0.0
H3089 H 0.10714 0.7204 0.65349 0.0
H3090 H 0.13043 0.73792 0.65488 0.0
H3091 H 0.12096 0.72503 0.68129 0.0
H3092 H 0.15867 0.70784 0.6881 0.0
H3093 H 0.16847 0.72097 0.66158 0.0
H3094 H 0.1711 0.69211 0.66485 0.0
H3095 H 0.12651 0.65532 0.59685 0.0
H3096 H 0.12986 0.68257 0.56511 0.0
H3097 H 0.14629 0.73099 0.61776 0.0
C3098 C 0.11586 0.67887 0.68504 0.0
C3099 C 0.1024 0.66062 0.68649 0.0
C3100 C 0.10299 0.64476 0.66848 0.0
C3101 C 0.11524 0.64827 0.64789 0.0
C3102 C 0.1271 0.66739 0.64606 0.0
C3103 C 0.12799 0.68219 0.66453 0.0
C3104 C 0.13819 0.70322 0.6568 0.0
C3105 C 0.12327 0.72274 0.66188 0.0
C3106 C 0.16044 0.7062 0.66853 0.0
C3107 C 0.14048 0.69892 0.63051 0.0
C3108 C 0.13481 0.67792 0.62473 0.0
C3109 C 0.13182 0.67151 0.60116 0.0
C3110 C 0.13367 0.68712 0.58322 0.0
C3111 C 0.13822 0.70886 0.58909 0.0
C3112 C 0.14296 0.71441 0.61281 0.0
H3113 H 0.06679 0.37974 0.44428 0.0
H3114 H 0.12351 0.35036 0.41313 0.0
H3115 H 0.1176 0.37111 0.37637 0.0
H3116 H 0.03515 0.37105 0.40324 0.0
H3117 H 0.01918 0.39544 0.40293 0.0
H3118 H 0.03301 0.38777 0.42941 0.0
H3119 H 0.05291 0.42454 0.4305 0.0
H3120 H 0.03877 0.4326 0.40386 0.0
H3121 H 0.06791 0.43361 0.40491 0.0
H3122 H 0.09859 0.38195 0.34049 0.0
H3123 H 0.06953 0.38227 0.31053 0.0
H3124 H 0.02441 0.40522 0.3636 0.0
C3125 C 0.07861 0.3788 0.43012 0.0
C3126 C 0.09545 0.36358 0.43122 0.0
C3127 C 0.11062 0.36221 0.41257 0.0
C3128 C 0.10736 0.374 0.39163 0.0
C3129 C 0.08913 0.38728 0.38998 0.0
C3130 C 0.07529 0.39025 0.40911 0.0
C3131 C 0.05439 0.40097 0.4016 0.0
C3132 C 0.03431 0.388 0.40974 0.0
C3133 C 0.05345 0.42432 0.41076 0.0
C3134 C 0.05724 0.40052 0.37496 0.0
C3135 C 0.0778 0.39371 0.36858 0.0
C3136 C 0.08278 0.38812 0.34516 0.0
C3137 C 0.06615 0.38827 0.32822 0.0
C3138 C 0.04483 0.39364 0.335 0.0
C3139 C 0.04072 0.40119 0.35814 0.0
H3140 H 0.44766 0.7243 0.29381 0.0
H3141 H 0.40812 0.66675 0.28655 0.0
H3142 H 0.38099 0.68225 0.31333 0.0
H3143 H 0.44175 0.73105 0.35181 0.0
H3144 H 0.43962 0.76009 0.35254 0.0
H3145 H 0.45348 0.74716 0.32842 0.0
H3146 H 0.42825 0.76613 0.29807 0.0
H3147 H 0.41439 0.77939 0.32221 0.0
H3148 H 0.39933 0.76352 0.30103 0.0
H3149 H 0.3637 0.69879 0.34808 0.0
H3150 H 0.35477 0.71836 0.3852 0.0
H3151 H 0.40308 0.76669 0.36792 0.0
C3152 C 0.43281 0.7155 0.29701 0.0
C3153 C 0.43006 0.69434 0.28836 0.0
C3154 C 0.41066 0.68295 0.29329 0.0
C3155 C 0.39503 0.69166 0.30834 0.0
C3156 C 0.39875 0.712 0.31784 0.0
C3157 C 0.41685 0.7241 0.31192 0.0
C3158 C 0.41806 0.74446 0.32669 0.0
C3159 C 0.43948 0.74573 0.34069 0.0
C3160 C 0.41481 0.76457 0.31106 0.0
C3161 C 0.39888 0.74095 0.34296 0.0
C3162 C 0.38777 0.72228 0.33739 0.0
C3163 C 0.37161 0.71395 0.35212 0.0
C3164 C 0.36674 0.725 0.37319 0.0
C3165 C 0.37789 0.74417 0.37901 0.0
C3166 C 0.39376 0.75244 0.36342 0.0
H3167 H 1.0031 0.61746 0.14184 0.0
H3168 H 0.05831 0.61819 0.18943 0.0
H3169 H 0.08255 0.62298 0.15506 0.0
H3170 H 0.03266 0.59657 0.08528 0.0
H3171 H 0.01681 0.61492 0.06749 0.0
H3172 H 0.00506 0.60241 0.09341 0.0
H3173 H 0.99505 0.64032 0.1096 0.0
H3174 H 0.00705 0.65291 0.08422 0.0
H3175 H 0.01612 0.66017 0.11362 0.0
H3176 H 0.09888 0.63803 0.11924 0.0
H3177 H 0.10604 0.66243 0.08587 0.0
H3178 H 0.03969 0.65513 0.06185 0.0
C3179 C 0.02039 0.61762 0.14494 0.0
C3180 C 0.0289 0.6176 0.16822 0.0
C3181 C 0.05151 0.61805 0.17168 0.0
C3182 C 0.06538 0.6207 0.15222 0.0
C3183 C 0.05628 0.62269 0.12959 0.0
C3184 C 0.03423 0.6209 0.12584 0.0
C3185 C 0.02781 0.62853 0.10127 0.0
C3186 C 0.02014 0.60947 0.08595 0.0
C3187 C 0.01053 0.64655 0.10228 0.0
C3188 C 0.04931 0.63695 0.09268 0.0
C3189 C 0.0657 0.63248 0.10876 0.0
C3190 C 0.08636 0.64105 0.1062 0.0
C3191 C 0.09021 0.65505 0.08721 0.0
C3192 C 0.07331 0.66072 0.07134 0.0
C3193 C 0.05289 0.65091 0.07363 0.0
H3194 H 0.06456 0.33472 0.8157 0.0
H3195 H 0.0397 0.27733 0.78062 0.0
H3196 H 0.06266 0.25467 0.80721 0.0
H3197 H 0.11932 0.31631 0.82676 0.0
H3198 H 0.12023 0.32959 0.85526 0.0
H3199 H 0.10398 0.34069 0.83162 0.0
H3200 H 0.07015 0.33966 0.85887 0.0
H3201 H 0.08623 0.32867 0.88257 0.0
H3202 H 0.06239 0.31452 0.87263 0.0
H3203 H 0.0878 0.23885 0.83958 0.0
H3204 H 0.10805 0.23125 0.87661 0.0
H3205 H 0.11349 0.29994 0.89029 0.0
C3206 C 0.06407 0.3174 0.81302 0.0
C3207 C 0.0505 0.30781 0.79574 0.0
C3208 C 0.05013 0.28503 0.79357 0.0
C3209 C 0.06318 0.27211 0.80851 0.0
C3210 C 0.07633 0.28233 0.8254 0.0
C3211 C 0.0766 0.30451 0.82772 0.0
C3212 C 0.09017 0.31191 0.84847 0.0
C3213 C 0.10958 0.32542 0.84001 0.0
C3214 C 0.07641 0.32441 0.8667 0.0
C3215 C 0.09735 0.29038 0.85805 0.0
C3216 C 0.08971 0.27345 0.84429 0.0
C3217 C 0.09392 0.25202 0.85031 0.0
C3218 C 0.10558 0.24788 0.87128 0.0
C3219 C 0.11244 0.26511 0.88615 0.0
C3220 C 0.10863 0.28654 0.87911 0.0
H3221 H 0.45143 0.27192 0.57799 0.0
H3222 H 0.44556 0.32424 0.52737 0.0
H3223 H 0.46126 0.34963 0.55674 0.0
H3224 H 0.43287 0.30071 0.62548 0.0
H3225 H 0.45025 0.28869 0.64759 0.0
H3226 H 0.44322 0.27373 0.6213 0.0
H3227 H 0.48369 0.26828 0.61138 0.0
H3228 H 0.49105 0.28295 0.63785 0.0
H3229 H 0.5013 0.2914 0.60934 0.0
H3230 H 0.4744 0.36973 0.59289 0.0
H3231 H 0.48371 0.38303 0.63322 0.0
H3232 H 0.47725 0.31781 0.66067 0.0
C3233 C 0.45454 0.2885 0.57281 0.0
C3234 C 0.44827 0.29614 0.5503 0.0
C3235 C 0.45111 0.31815 0.54437 0.0
C3236 C 0.45985 0.33262 0.56095 0.0
C3237 C 0.46521 0.32479 0.58341 0.0
C3238 C 0.46273 0.30321 0.58934 0.0
C3239 C 0.46717 0.29936 0.61542 0.0
C3240 C 0.44718 0.29009 0.62818 0.0
C3241 C 0.48699 0.28463 0.61869 0.0
C3242 C 0.4719 0.32221 0.62335 0.0
C3243 C 0.47116 0.33659 0.6046 0.0
C3244 C 0.47505 0.35862 0.60773 0.0
C3245 C 0.48014 0.36606 0.63063 0.0
C3246 C 0.48069 0.35155 0.65005 0.0
C3247 C 0.47642 0.3294 0.64627 0.0
loop_
_geom_bond_atom_site_label_1
_geom_bond_atom_site_label_2
_geom_bond_distance
_geom_bond_site_symmetry_2
_ccdc_geom_bond_type
Co0 O3 1.970 . S
Co0 N17 1.989 . S
Co0 O25 1.967 . S
Co0 O32 1.920 . S
Co1 O4 1.966 . S
Co1 N10 2.022 . S
Co1 N18 1.993 . S
Co1 O26 1.941 . S
C2 O3 1.258 . S
C2 O4 1.263 . S
O3 Co0 1.970 . S
O3 C2 1.258 . S
O4 Co1 1.966 . S
O4 C2 1.263 . S
C5 O6 1.260 . S
C5 O32 1.246 1_655 S
O6 C5 1.260 . S
C7 C9 1.400 . S
C7 N10 1.351 . S
C7 C12 1.501 . S
C8 C9 1.387 . S
C8 N11 1.341 . S
C9 C7 1.400 . S
C9 C8 1.387 . S
N10 Co1 2.022 . S
N10 C7 1.351 . S
N10 N11 1.365 . S
N11 C8 1.341 . S
N11 N10 1.365 . S
N11 H31 0.862 . S
C12 C7 1.501 . S
C12 H13 0.961 . S
C12 H14 0.961 . S
C12 H15 0.960 . S
H13 C12 0.961 . S
H14 C12 0.961 . S
H15 C12 0.960 . S
C16 N17 1.342 . S
C16 C20 1.401 . S
C16 C21 1.499 . S
N17 Co0 1.989 . S
N17 C16 1.342 . S
N17 N18 1.388 . S
N18 Co1 1.993 . S
N18 N17 1.388 . S
N18 C19 1.346 . S
C19 N18 1.346 . S
C19 C20 1.396 . S
C19 C29 1.510 . S
C20 C16 1.401 . S
C20 C19 1.396 . S
C21 C16 1.499 . S
C21 H22 0.959 . S
C21 H23 0.960 . S
C21 H24 0.961 . S
H22 C21 0.959 . S
H23 C21 0.960 . S
H24 C21 0.961 . S
O25 Co0 1.967 . S
O25 C33 1.258 . S
O26 Co1 1.941 . S
O26 C33 1.266 . S
H27 C29 0.959 . S
H28 C29 0.961 . S
C29 C19 1.510 . S
C29 H27 0.959 . S
C29 H28 0.961 . S
C29 H30 0.960 . S
H30 C29 0.960 . S
H31 N11 0.862 . S
O32 Co0 1.920 . S
O32 C5 1.246 1_455 S
C33 O25 1.258 . S
C33 O26 1.266 . S
Co34 O37 1.970 . S
Co34 N51 1.989 . S
Co34 O59 1.967 . S
Co34 O66 1.920 . S
Co35 O38 1.966 . S
Co35 N44 2.022 . S
Co35 N52 1.993 . S
Co35 O60 1.941 . S
C36 O37 1.258 . S
C36 O38 1.263 . S
O37 Co34 1.970 . S
O37 C36 1.258 . S
O38 Co35 1.966 . S
O38 C36 1.263 . S
C39 O40 1.235 . S
C39 O66 1.289 . S
O40 C39 1.235 . S
C41 C43 1.400 . S
C41 N44 1.351 . S
C41 C46 1.501 . S
C42 C43 1.387 . S
C42 N45 1.341 . S
C43 C41 1.400 . S
C43 C42 1.387 . S
N44 Co35 2.022 . S
N44 C41 1.351 . S
N44 N45 1.365 . S
N45 C42 1.341 . S
N45 N44 1.365 . S
N45 H65 0.862 . S
C46 C41 1.501 . S
C46 H47 0.961 . S
C46 H48 0.961 . S
C46 H49 0.960 . S
H47 C46 0.961 . S
H48 C46 0.961 . S
H49 C46 0.960 . S
C50 N51 1.342 . S
C50 C54 1.401 . S
C50 C55 1.499 . S
N51 Co34 1.989 . S
N51 C50 1.342 . S
N51 N52 1.388 . S
N52 Co35 1.993 . S
N52 N51 1.388 . S
N52 C53 1.346 . S
C53 N52 1.346 . S
C53 C54 1.396 . S
C53 C63 1.510 . S
C54 C50 1.401 . S
C54 C53 1.396 . S
C55 C50 1.499 . S
C55 H56 0.959 . S
C55 H57 0.960 . S
C55 H58 0.961 . S
H56 C55 0.959 . S
H57 C55 0.960 . S
H58 C55 0.961 . S
O59 Co34 1.967 . S
O59 C67 1.258 . S
O60 Co35 1.941 . S
O60 C67 1.266 . S
H61 C63 0.959 . S
H62 C63 0.961 . S
C63 C53 1.510 . S
C63 H61 0.959 . S
C63 H62 0.961 . S
C63 H64 0.960 . S
H64 C63 0.960 . S
H65 N45 0.862 . S
O66 Co34 1.920 . S
O66 C39 1.289 . S
C67 O59 1.258 . S
C67 O60 1.266 . S
Co68 O71 1.970 . S
Co68 N85 1.989 . S
Co68 O93 1.967 . S
Co68 O100 1.920 . S
Co69 O72 1.966 . S
Co69 N78 2.022 . S
Co69 N86 1.993 . S
Co69 O94 1.941 . S
C70 O71 1.258 . S
C70 O72 1.263 . S
O71 Co68 1.970 . S
O71 C70 1.258 . S
O72 Co69 1.966 . S
O72 C70 1.263 . S
C73 O74 1.235 . S
C73 O100 1.289 . S
O74 C73 1.235 . S
C75 C77 1.400 . S
C75 N78 1.351 . S
C75 C80 1.501 . S
C76 C77 1.387 . S
C76 N79 1.341 . S
C77 C75 1.400 . S
C77 C76 1.387 . S
N78 Co69 2.022 . S
N78 C75 1.351 . S
N78 N79 1.365 . S
N79 C76 1.341 . S
N79 N78 1.365 . S
N79 H99 0.862 . S
C80 C75 1.501 . S
C80 H81 0.961 . S
C80 H82 0.961 . S
C80 H83 0.960 . S
H81 C80 0.961 . S
H82 C80 0.961 . S
H83 C80 0.960 . S
C84 N85 1.342 . S
C84 C88 1.401 . S
C84 C89 1.499 . S
N85 Co68 1.989 . S
N85 C84 1.342 . S
N85 N86 1.388 . S
N86 Co69 1.993 . S
N86 N85 1.388 . S
N86 C87 1.346 . S
C87 N86 1.346 . S
C87 C88 1.396 . S
C87 C97 1.510 . S
C88 C84 1.401 . S
C88 C87 1.396 . S
C89 C84 1.499 . S
C89 H90 0.959 . S
C89 H91 0.960 . S
C89 H92 0.961 . S
H90 C89 0.959 . S
H91 C89 0.960 . S
H92 C89 0.961 . S
O93 Co68 1.967 . S
O93 C101 1.258 . S
O94 Co69 1.941 . S
O94 C101 1.266 . S
H95 C97 0.959 . S
H96 C97 0.961 . S
C97 C87 1.510 . S
C97 H95 0.959 . S
C97 H96 0.961 . S
C97 H98 0.960 . S
H98 C97 0.960 . S
H99 N79 0.862 . S
O100 Co68 1.920 . S
O100 C73 1.289 . S
C101 O93 1.258 . S
C101 O94 1.266 . S
Co102 O105 1.970 . S
Co102 N119 1.989 . S
Co102 O127 1.967 . S
Co102 O134 1.920 . S
Co103 O106 1.966 . S
Co103 N112 2.022 1_554 S
Co103 N120 1.993 . S
Co103 O128 1.941 . S
C104 O105 1.258 . S
C104 O106 1.263 . S
O105 Co102 1.970 . S
O105 C104 1.258 . S
O106 Co103 1.966 . S
O106 C104 1.263 . S
C107 O108 1.235 . S
C107 O134 1.289 . S
O108 C107 1.235 . S
C109 C111 1.400 . S
C109 N112 1.351 . S
C109 C114 1.501 . S
C110 C111 1.387 . S
C110 N113 1.341 . S
C111 C109 1.400 . S
C111 C110 1.387 . S
N112 Co103 2.022 1_556 S
N112 C109 1.351 . S
N112 N113 1.365 . S
N113 C110 1.341 . S
N113 N112 1.365 . S
N113 H133 0.862 1_556 S
C114 C109 1.501 . S
C114 H115 0.961 . S
C114 H116 0.961 . S
C114 H117 0.960 . S
H115 C114 0.961 . S
H116 C114 0.961 . S
H117 C114 0.960 . S
C118 N119 1.342 . S
C118 C122 1.401 . S
C118 C123 1.499 . S
N119 Co102 1.989 . S
N119 C118 1.342 . S
N119 N120 1.388 . S
N120 Co103 1.993 . S
N120 N119 1.388 . S
N120 C121 1.346 . S
C121 N120 1.346 . S
C121 C122 1.396 . S
C121 C131 1.510 1_554 S
C122 C118 1.401 . S
C122 C121 1.396 . S
C123 C118 1.499 . S
C123 H124 0.959 . S
C123 H125 0.960 . S
C123 H126 0.961 . S
H124 C123 0.959 . S
H125 C123 0.960 . S
H126 C123 0.961 . S
O127 Co102 1.967 . S
O127 C135 1.258 . S
O128 Co103 1.941 . S
O128 C135 1.266 . S
H129 C131 0.959 . S
H130 C131 0.961 . S
C131 C121 1.510 1_556 S
C131 H129 0.959 . S
C131 H130 0.961 . S
C131 H132 0.960 . S
H132 C131 0.960 . S
H133 N113 0.862 1_554 S
O134 Co102 1.920 . S
O134 C107 1.289 . S
C135 O127 1.258 . S
C135 O128 1.266 . S
Co136 O139 1.970 . S
Co136 N153 1.989 . S
Co136 O161 1.967 . S
Co136 O168 1.920 . S
Co137 O140 1.966 . S
Co137 N146 2.022 . S
Co137 N154 1.993 . S
Co137 O162 1.941 . S
C138 O139 1.258 . S
C138 O140 1.263 . S
O139 Co136 1.970 . S
O139 C138 1.258 . S
O140 Co137 1.966 . S
O140 C138 1.263 . S
C141 O142 1.260 . S
C141 O168 1.246 1_655 S
O142 C141 1.260 . S
C143 C145 1.400 . S
C143 N146 1.351 . S
C143 C148 1.501 . S
C144 C145 1.387 . S
C144 N147 1.341 . S
C145 C143 1.400 . S
C145 C144 1.387 . S
N146 Co137 2.022 . S
N146 C143 1.351 . S
N146 N147 1.365 . S
N147 C144 1.341 . S
N147 N146 1.365 . S
N147 H167 0.862 . S
C148 C143 1.501 . S
C148 H149 0.961 . S
C148 H150 0.961 . S
C148 H151 0.960 . S
H149 C148 0.961 . S
H150 C148 0.961 . S
H151 C148 0.960 . S
C152 N153 1.342 . S
C152 C156 1.401 . S
C152 C157 1.499 . S
N153 Co136 1.989 . S
N153 C152 1.342 . S
N153 N154 1.388 . S
N154 Co137 1.993 . S
N154 N153 1.388 . S
N154 C155 1.346 . S
C155 N154 1.346 . S
C155 C156 1.396 . S
C155 C165 1.510 . S
C156 C152 1.401 . S
C156 C155 1.396 . S
C157 C152 1.499 . S
C157 H158 0.959 . S
C157 H159 0.960 . S
C157 H160 0.961 . S
H158 C157 0.959 . S
H159 C157 0.960 . S
H160 C157 0.961 . S
O161 Co136 1.967 . S
O161 C169 1.258 . S
O162 Co137 1.941 . S
O162 C169 1.266 . S
H163 C165 0.959 . S
H164 C165 0.961 . S
C165 C155 1.510 . S
C165 H163 0.959 . S
C165 H164 0.961 . S
C165 H166 0.960 . S
H166 C165 0.960 . S
H167 N147 0.862 . S
O168 Co136 1.920 . S
O168 C141 1.246 1_455 S
C169 O161 1.258 . S
C169 O162 1.266 . S
Co170 O173 1.970 . S
Co170 N187 1.989 . S
Co170 O195 1.967 . S
Co170 O202 1.920 . S
Co171 O174 1.966 . S
Co171 N180 2.022 . S
Co171 N188 1.993 . S
Co171 O196 1.941 . S
C172 O173 1.258 . S
C172 O174 1.263 . S
O173 Co170 1.970 . S
O173 C172 1.258 . S
O174 Co171 1.966 . S
O174 C172 1.263 . S
C175 O176 1.235 . S
C175 O202 1.289 . S
O176 C175 1.235 . S
C177 C179 1.400 . S
C177 N180 1.351 . S
C177 C182 1.501 . S
C178 C179 1.387 . S
C178 N181 1.341 . S
C179 C177 1.400 . S
C179 C178 1.387 . S
N180 Co171 2.022 . S
N180 C177 1.351 . S
N180 N181 1.365 . S
N181 C178 1.341 . S
N181 N180 1.365 . S
N181 H201 0.862 . S
C182 C177 1.501 . S
C182 H183 0.961 . S
C182 H184 0.961 . S
C182 H185 0.960 . S
H183 C182 0.961 . S
H184 C182 0.961 . S
H185 C182 0.960 . S
C186 N187 1.342 . S
C186 C190 1.401 . S
C186 C191 1.499 . S
N187 Co170 1.989 . S
N187 C186 1.342 . S
N187 N188 1.388 . S
N188 Co171 1.993 . S
N188 N187 1.388 . S
N188 C189 1.346 . S
C189 N188 1.346 . S
C189 C190 1.396 . S
C189 C199 1.510 . S
C190 C186 1.401 . S
C190 C189 1.396 . S
C191 C186 1.499 . S
C191 H192 0.959 . S
C191 H193 0.960 . S
C191 H194 0.961 . S
H192 C191 0.959 . S
H193 C191 0.960 . S
H194 C191 0.961 . S
O195 Co170 1.967 . S
O195 C203 1.258 . S
O196 Co171 1.941 . S
O196 C203 1.266 . S
H197 C199 0.959 . S
H198 C199 0.961 . S
C199 C189 1.510 . S
C199 H197 0.959 . S
C199 H198 0.961 . S
C199 H200 0.960 . S
H200 C199 0.960 . S
H201 N181 0.862 . S
O202 Co170 1.920 . S
O202 C175 1.289 . S
C203 O195 1.258 . S
C203 O196 1.266 . S
Co204 O207 1.970 . S
Co204 N221 1.989 . S
Co204 O229 1.967 . S
Co204 O236 1.920 . S
Co205 O208 1.966 . S
Co205 N214 2.022 . S
Co205 N222 1.993 . S
Co205 O230 1.941 . S
C206 O207 1.258 . S
C206 O208 1.263 . S
O207 Co204 1.970 . S
O207 C206 1.258 . S
O208 Co205 1.966 . S
O208 C206 1.263 . S
C209 O210 1.235 . S
C209 O236 1.289 . S
O210 C209 1.235 . S
C211 C213 1.400 . S
C211 N214 1.351 . S
C211 C216 1.501 . S
C212 C213 1.387 . S
C212 N215 1.341 . S
C213 C211 1.400 . S
C213 C212 1.387 . S
N214 Co205 2.022 . S
N214 C211 1.351 . S
N214 N215 1.365 . S
N215 C212 1.341 . S
N215 N214 1.365 . S
N215 H235 0.862 . S
C216 C211 1.501 . S
C216 H217 0.961 . S
C216 H218 0.961 . S
C216 H219 0.960 . S
H217 C216 0.961 . S
H218 C216 0.961 . S
H219 C216 0.960 . S
C220 N221 1.342 . S
C220 C224 1.401 . S
C220 C225 1.499 . S
N221 Co204 1.989 . S
N221 C220 1.342 . S
N221 N222 1.388 . S
N222 Co205 1.993 . S
N222 N221 1.388 . S
N222 C223 1.346 . S
C223 N222 1.346 . S
C223 C224 1.396 . S
C223 C233 1.510 . S
C224 C220 1.401 . S
C224 C223 1.396 . S
C225 C220 1.499 . S
C225 H226 0.959 . S
C225 H227 0.960 . S
C225 H228 0.961 . S
H226 C225 0.959 . S
H227 C225 0.960 . S
H228 C225 0.961 . S
O229 Co204 1.967 . S
O229 C237 1.258 . S
O230 Co205 1.941 . S
O230 C237 1.266 . S
H231 C233 0.959 . S
H232 C233 0.961 . S
C233 C223 1.510 . S
C233 H231 0.959 . S
C233 H232 0.961 . S
C233 H234 0.960 . S
H234 C233 0.960 . S
H235 N215 0.862 . S
O236 Co204 1.920 . S
O236 C209 1.289 . S
C237 O229 1.258 . S
C237 O230 1.266 . S
Co238 O241 1.970 . S
Co238 N255 1.989 . S
Co238 O263 1.967 . S
Co238 O270 1.920 . S
Co239 O242 1.966 . S
Co239 N248 2.022 1_556 S
Co239 N256 1.993 . S
Co239 O264 1.941 . S
C240 O241 1.258 . S
C240 O242 1.263 . S
O241 Co238 1.970 . S
O241 C240 1.258 . S
O242 Co239 1.966 . S
O242 C240 1.263 . S
C243 O244 1.235 . S
C243 O270 1.289 . S
O244 C243 1.235 . S
C245 C247 1.400 . S
C245 N248 1.351 . S
C245 C250 1.501 . S
C246 C247 1.387 . S
C246 N249 1.341 . S
C247 C245 1.400 . S
C247 C246 1.387 . S
N248 Co239 2.022 1_554 S
N248 C245 1.351 . S
N248 N249 1.365 . S
N249 C246 1.341 . S
N249 N248 1.365 . S
N249 H269 0.862 1_554 S
C250 C245 1.501 . S
C250 H251 0.961 . S
C250 H252 0.961 . S
C250 H253 0.960 . S
H251 C250 0.961 . S
H252 C250 0.961 . S
H253 C250 0.960 . S
C254 N255 1.342 . S
C254 C258 1.401 . S
C254 C259 1.499 . S
N255 Co238 1.989 . S
N255 C254 1.342 . S
N255 N256 1.388 . S
N256 Co239 1.993 . S
N256 N255 1.388 . S
N256 C257 1.346 . S
C257 N256 1.346 . S
C257 C258 1.396 . S
C257 C267 1.510 1_556 S
C258 C254 1.401 . S
C258 C257 1.396 . S
C259 C254 1.499 . S
C259 H260 0.959 . S
C259 H261 0.960 . S
C259 H262 0.961 . S
H260 C259 0.959 . S
H261 C259 0.960 . S
H262 C259 0.961 . S
O263 Co238 1.967 . S
O263 C271 1.258 . S
O264 Co239 1.941 . S
O264 C271 1.266 . S
H265 C267 0.959 . S
H266 C267 0.961 . S
C267 C257 1.510 1_554 S
C267 H265 0.959 . S
C267 H266 0.961 . S
C267 H268 0.960 . S
H268 C267 0.960 . S
H269 N249 0.862 1_556 S
O270 Co238 1.920 . S
O270 C243 1.289 . S
C271 O263 1.258 . S
C271 O264 1.266 . S
Co272 O275 1.970 . S
Co272 N289 1.989 . S
Co272 O297 1.967 . S
Co272 O304 1.920 . S
Co273 O276 1.966 . S
Co273 N282 2.022 . S
Co273 N290 1.993 . S
Co273 O298 1.941 . S
C274 O275 1.258 . S
C274 O276 1.263 . S
O275 Co272 1.970 . S
O275 C274 1.258 . S
O276 Co273 1.966 . S
O276 C274 1.263 . S
C277 O278 1.235 . S
C277 O304 1.289 . S
O278 C277 1.235 . S
C279 C281 1.400 . S
C279 N282 1.351 . S
C279 C284 1.501 . S
C280 C281 1.387 . S
C280 N283 1.341 . S
C281 C279 1.400 . S
C281 C280 1.387 . S
N282 Co273 2.022 . S
N282 C279 1.351 . S
N282 N283 1.365 . S
N283 C280 1.341 . S
N283 N282 1.365 . S
N283 H303 0.862 . S
C284 C279 1.501 . S
C284 H285 0.961 . S
C284 H286 0.961 . S
C284 H287 0.960 . S
H285 C284 0.961 . S
H286 C284 0.961 . S
H287 C284 0.960 . S
C288 N289 1.342 . S
C288 C292 1.401 . S
C288 C293 1.499 . S
N289 Co272 1.989 . S
N289 C288 1.342 . S
N289 N290 1.388 . S
N290 Co273 1.993 . S
N290 N289 1.388 . S
N290 C291 1.346 . S
C291 N290 1.346 . S
C291 C292 1.396 . S
C291 C301 1.510 . S
C292 C288 1.401 . S
C292 C291 1.396 . S
C293 C288 1.499 . S
C293 H294 0.959 . S
C293 H295 0.960 . S
C293 H296 0.961 . S
H294 C293 0.959 . S
H295 C293 0.960 . S
H296 C293 0.961 . S
O297 Co272 1.967 . S
O297 C305 1.258 . S
O298 Co273 1.941 . S
O298 C305 1.266 . S
H299 C301 0.959 . S
H300 C301 0.961 . S
C301 C291 1.510 . S
C301 H299 0.959 . S
C301 H300 0.961 . S
C301 H302 0.960 . S
H302 C301 0.960 . S
H303 N283 0.862 . S
O304 Co272 1.920 . S
O304 C277 1.289 . S
C305 O297 1.258 . S
C305 O298 1.266 . S
Co306 O309 1.970 . S
Co306 N323 1.989 . S
Co306 O331 1.967 . S
Co306 O338 1.920 . S
Co307 O310 1.966 . S
Co307 N316 2.022 . S
Co307 N324 1.993 . S
Co307 O332 1.941 . S
C308 O309 1.258 . S
C308 O310 1.263 . S
O309 Co306 1.970 . S
O309 C308 1.258 . S
O310 Co307 1.966 . S
O310 C308 1.263 . S
C311 O312 1.235 . S
C311 O338 1.289 . S
O312 C311 1.235 . S
C313 C315 1.400 . S
C313 N316 1.351 . S
C313 C318 1.501 . S
C314 C315 1.387 . S
C314 N317 1.341 . S
C315 C313 1.400 . S
C315 C314 1.387 . S
N316 Co307 2.022 . S
N316 C313 1.351 . S
N316 N317 1.365 . S
N317 C314 1.341 . S
N317 N316 1.365 . S
N317 H337 0.862 . S
C318 C313 1.501 . S
C318 H319 0.961 . S
C318 H320 0.961 . S
C318 H321 0.960 . S
H319 C318 0.961 . S
H320 C318 0.961 . S
H321 C318 0.960 . S
C322 N323 1.342 . S
C322 C326 1.401 . S
C322 C327 1.499 . S
N323 Co306 1.989 . S
N323 C322 1.342 . S
N323 N324 1.388 . S
N324 Co307 1.993 . S
N324 N323 1.388 . S
N324 C325 1.346 . S
C325 N324 1.346 . S
C325 C326 1.396 . S
C325 C335 1.510 . S
C326 C322 1.401 . S
C326 C325 1.396 . S
C327 C322 1.499 . S
C327 H328 0.959 . S
C327 H329 0.960 . S
C327 H330 0.961 . S
H328 C327 0.959 . S
H329 C327 0.960 . S
H330 C327 0.961 . S
O331 Co306 1.967 . S
O331 C339 1.258 . S
O332 Co307 1.941 . S
O332 C339 1.266 . S
H333 C335 0.959 . S
H334 C335 0.961 . S
C335 C325 1.510 . S
C335 H333 0.959 . S
C335 H334 0.961 . S
C335 H336 0.960 . S
H336 C335 0.960 . S
H337 N317 0.862 . S
O338 Co306 1.920 . S
O338 C311 1.289 . S
C339 O331 1.258 . S
C339 O332 1.266 . S
Co340 O343 1.970 . S
Co340 N357 1.989 . S
Co340 O365 1.967 . S
Co340 O372 1.920 . S
Co341 O344 1.966 . S
Co341 N350 2.022 . S
Co341 N358 1.993 . S
Co341 O366 1.941 . S
C342 O343 1.258 . S
C342 O344 1.263 . S
O343 Co340 1.970 . S
O343 C342 1.258 . S
O344 Co341 1.966 . S
O344 C342 1.263 . S
C345 O346 1.235 . S
C345 O372 1.289 . S
O346 C345 1.235 . S
C347 C349 1.400 . S
C347 N350 1.351 . S
C347 C352 1.501 . S
C348 C349 1.387 . S
C348 N351 1.341 . S
C349 C347 1.400 . S
C349 C348 1.387 . S
N350 Co341 2.022 . S
N350 C347 1.351 . S
N350 N351 1.365 . S
N351 C348 1.341 . S
N351 N350 1.365 . S
N351 H371 0.862 . S
C352 C347 1.501 . S
C352 H353 0.961 . S
C352 H354 0.961 . S
C352 H355 0.960 . S
H353 C352 0.961 . S
H354 C352 0.961 . S
H355 C352 0.960 . S
C356 N357 1.342 . S
C356 C360 1.401 . S
C356 C361 1.499 . S
N357 Co340 1.989 . S
N357 C356 1.342 . S
N357 N358 1.388 . S
N358 Co341 1.993 . S
N358 N357 1.388 . S
N358 C359 1.346 . S
C359 N358 1.346 . S
C359 C360 1.396 . S
C359 C369 1.510 . S
C360 C356 1.401 . S
C360 C359 1.396 . S
C361 C356 1.499 . S
C361 H362 0.959 . S
C361 H363 0.960 . S
C361 H364 0.961 . S
H362 C361 0.959 . S
H363 C361 0.960 . S
H364 C361 0.961 . S
O365 Co340 1.967 . S
O365 C373 1.258 . S
O366 Co341 1.941 . S
O366 C373 1.266 . S
H367 C369 0.959 . S
H368 C369 0.961 . S
C369 C359 1.510 . S
C369 H367 0.959 . S
C369 H368 0.961 . S
C369 H370 0.960 . S
H370 C369 0.960 . S
H371 N351 0.862 . S
O372 Co340 1.920 . S
O372 C345 1.289 . S
C373 O365 1.258 . S
C373 O366 1.266 . S
Co374 O377 1.970 . S
Co374 N391 1.989 1_556 S
Co374 O399 1.967 . S
Co374 O406 1.920 . S
Co375 O378 1.966 . S
Co375 N384 2.022 . S
Co375 N392 1.993 1_556 S
Co375 O400 1.941 . S
C376 O377 1.258 . S
C376 O378 1.263 . S
O377 Co374 1.970 . S
O377 C376 1.258 . S
O378 Co375 1.966 . S
O378 C376 1.263 . S
C379 O380 1.235 1_556 S
C379 O406 1.289 . S
O380 C379 1.235 1_554 S
C381 C383 1.400 . S
C381 N384 1.351 . S
C381 C386 1.501 . S
C382 C383 1.387 . S
C382 N385 1.341 . S
C383 C381 1.400 . S
C383 C382 1.387 . S
N384 Co375 2.022 . S
N384 C381 1.351 . S
N384 N385 1.365 . S
N385 C382 1.341 . S
N385 N384 1.365 . S
N385 H405 0.862 . S
C386 C381 1.501 . S
C386 H387 0.961 . S
C386 H388 0.961 . S
C386 H389 0.960 . S
H387 C386 0.961 . S
H388 C386 0.961 . S
H389 C386 0.960 . S
C390 N391 1.342 . S
C390 C394 1.401 . S
C390 C395 1.499 . S
N391 Co374 1.989 1_554 S
N391 C390 1.342 . S
N391 N392 1.388 . S
N392 Co375 1.993 1_554 S
N392 N391 1.388 . S
N392 C393 1.346 . S
C393 N392 1.346 . S
C393 C394 1.396 . S
C393 C403 1.510 . S
C394 C390 1.401 . S
C394 C393 1.396 . S
C395 C390 1.499 . S
C395 H396 0.959 . S
C395 H397 0.960 . S
C395 H398 0.961 . S
H396 C395 0.959 . S
H397 C395 0.960 . S
H398 C395 0.961 . S
O399 Co374 1.967 . S
O399 C407 1.258 . S
O400 Co375 1.941 . S
O400 C407 1.266 . S
H401 C403 0.959 . S
H402 C403 0.961 . S
C403 C393 1.510 . S
C403 H401 0.959 . S
C403 H402 0.961 . S
C403 H404 0.960 . S
H404 C403 0.960 . S
H405 N385 0.862 . S
O406 Co374 1.920 . S
O406 C379 1.289 . S
C407 O399 1.258 . S
C407 O400 1.266 . S
Co408 O411 1.970 . S
Co408 N425 1.989 . S
Co408 O433 1.967 . S
Co408 O440 1.920 . S
Co409 O412 1.966 . S
Co409 N418 2.022 . S
Co409 N426 1.993 . S
Co409 O434 1.941 . S
C410 O411 1.258 . S
C410 O412 1.263 . S
O411 Co408 1.970 . S
O411 C410 1.258 . S
O412 Co409 1.966 . S
O412 C410 1.263 . S
C413 O414 1.235 . S
C413 O440 1.289 . S
O414 C413 1.235 . S
C415 C417 1.400 . S
C415 N418 1.351 . S
C415 C420 1.501 . S
C416 C417 1.387 . S
C416 N419 1.341 . S
C417 C415 1.400 . S
C417 C416 1.387 . S
N418 Co409 2.022 . S
N418 C415 1.351 . S
N418 N419 1.365 . S
N419 C416 1.341 . S
N419 N418 1.365 . S
N419 H439 0.862 . S
C420 C415 1.501 . S
C420 H421 0.961 . S
C420 H422 0.961 . S
C420 H423 0.960 . S
H421 C420 0.961 . S
H422 C420 0.961 . S
H423 C420 0.960 . S
C424 N425 1.342 . S
C424 C428 1.401 . S
C424 C429 1.499 . S
N425 Co408 1.989 . S
N425 C424 1.342 . S
N425 N426 1.388 . S
N426 Co409 1.993 . S
N426 N425 1.388 . S
N426 C427 1.346 . S
C427 N426 1.346 . S
C427 C428 1.396 . S
C427 C437 1.510 . S
C428 C424 1.401 . S
C428 C427 1.396 . S
C429 C424 1.499 . S
C429 H430 0.959 . S
C429 H431 0.960 . S
C429 H432 0.961 . S
H430 C429 0.959 . S
H431 C429 0.960 . S
H432 C429 0.961 . S
O433 Co408 1.967 . S
O433 C441 1.258 . S
O434 Co409 1.941 . S
O434 C441 1.266 . S
H435 C437 0.959 . S
H436 C437 0.961 . S
C437 C427 1.510 . S
C437 H435 0.959 . S
C437 H436 0.961 . S
C437 H438 0.960 . S
H438 C437 0.960 . S
H439 N419 0.862 . S
O440 Co408 1.920 . S
O440 C413 1.289 . S
C441 O433 1.258 . S
C441 O434 1.266 . S
Co442 O445 1.970 . S
Co442 N459 1.989 . S
Co442 O467 1.967 . S
Co442 O474 1.920 . S
Co443 O446 1.966 . S
Co443 N452 2.022 . S
Co443 N460 1.993 . S
Co443 O468 1.941 . S
C444 O445 1.258 . S
C444 O446 1.263 . S
O445 Co442 1.970 . S
O445 C444 1.258 . S
O446 Co443 1.966 . S
O446 C444 1.263 . S
C447 O448 1.235 . S
C447 O474 1.289 . S
O448 C447 1.235 . S
C449 C451 1.400 . S
C449 N452 1.351 . S
C449 C454 1.501 . S
C450 C451 1.387 . S
C450 N453 1.341 . S
C451 C449 1.400 . S
C451 C450 1.387 . S
N452 Co443 2.022 . S
N452 C449 1.351 . S
N452 N453 1.365 . S
N453 C450 1.341 . S
N453 N452 1.365 . S
N453 H473 0.862 . S
C454 C449 1.501 . S
C454 H455 0.961 . S
C454 H456 0.961 . S
C454 H457 0.960 . S
H455 C454 0.961 . S
H456 C454 0.961 . S
H457 C454 0.960 . S
C458 N459 1.342 . S
C458 C462 1.401 . S
C458 C463 1.499 . S
N459 Co442 1.989 . S
N459 C458 1.342 . S
N459 N460 1.388 . S
N460 Co443 1.993 . S
N460 N459 1.388 . S
N460 C461 1.346 . S
C461 N460 1.346 . S
C461 C462 1.396 . S
C461 C471 1.510 . S
C462 C458 1.401 . S
C462 C461 1.396 . S
C463 C458 1.499 . S
C463 H464 0.959 . S
C463 H465 0.960 . S
C463 H466 0.961 . S
H464 C463 0.959 . S
H465 C463 0.960 . S
H466 C463 0.961 . S
O467 Co442 1.967 . S
O467 C475 1.258 . S
O468 Co443 1.941 . S
O468 C475 1.266 . S
H469 C471 0.959 . S
H470 C471 0.961 . S
C471 C461 1.510 . S
C471 H469 0.959 . S
C471 H470 0.961 . S
C471 H472 0.960 . S
H472 C471 0.960 . S
H473 N453 0.862 . S
O474 Co442 1.920 . S
O474 C447 1.289 . S
C475 O467 1.258 . S
C475 O468 1.266 . S
Co476 O479 1.970 . S
Co476 N493 1.989 . S
Co476 O501 1.967 . S
Co476 O508 1.920 . S
Co477 O480 1.966 . S
Co477 N486 2.022 . S
Co477 N494 1.993 . S
Co477 O502 1.941 . S
C478 O479 1.258 . S
C478 O480 1.263 . S
O479 Co476 1.970 . S
O479 C478 1.258 . S
O480 Co477 1.966 . S
O480 C478 1.263 . S
C481 O482 1.235 . S
C481 O508 1.289 . S
O482 C481 1.235 . S
C483 C485 1.400 . S
C483 N486 1.351 . S
C483 C488 1.501 . S
C484 C485 1.387 . S
C484 N487 1.341 . S
C485 C483 1.400 . S
C485 C484 1.387 . S
N486 Co477 2.022 . S
N486 C483 1.351 . S
N486 N487 1.365 . S
N487 C484 1.341 . S
N487 N486 1.365 . S
N487 H507 0.862 . S
C488 C483 1.501 . S
C488 H489 0.961 . S
C488 H490 0.961 . S
C488 H491 0.960 . S
H489 C488 0.961 . S
H490 C488 0.961 . S
H491 C488 0.960 . S
C492 N493 1.342 . S
C492 C496 1.401 . S
C492 C497 1.499 . S
N493 Co476 1.989 . S
N493 C492 1.342 . S
N493 N494 1.388 . S
N494 Co477 1.993 . S
N494 N493 1.388 . S
N494 C495 1.346 . S
C495 N494 1.346 . S
C495 C496 1.396 . S
C495 C505 1.510 . S
C496 C492 1.401 . S
C496 C495 1.396 . S
C497 C492 1.499 . S
C497 H498 0.959 . S
C497 H499 0.960 . S
C497 H500 0.961 . S
H498 C497 0.959 . S
H499 C497 0.960 . S
H500 C497 0.961 . S
O501 Co476 1.967 . S
O501 C509 1.258 . S
O502 Co477 1.941 . S
O502 C509 1.266 . S
H503 C505 0.959 . S
H504 C505 0.961 . S
C505 C495 1.510 . S
C505 H503 0.959 . S
C505 H504 0.961 . S
C505 H506 0.960 . S
H506 C505 0.960 . S
H507 N487 0.862 . S
O508 Co476 1.920 . S
O508 C481 1.289 . S
C509 O501 1.258 . S
C509 O502 1.266 . S
Co510 O513 1.970 . S
Co510 N527 1.989 1_554 S
Co510 O535 1.967 . S
Co510 O542 1.920 . S
Co511 O514 1.966 . S
Co511 N520 2.022 . S
Co511 N528 1.993 1_554 S
Co511 O536 1.941 . S
C512 O513 1.258 . S
C512 O514 1.263 . S
O513 Co510 1.970 . S
O513 C512 1.258 . S
O514 Co511 1.966 . S
O514 C512 1.263 . S
C515 O516 1.235 1_554 S
C515 O542 1.289 . S
O516 C515 1.235 1_556 S
C517 C519 1.400 . S
C517 N520 1.351 . S
C517 C522 1.501 . S
C518 C519 1.387 . S
C518 N521 1.341 . S
C519 C517 1.400 . S
C519 C518 1.387 . S
N520 Co511 2.022 . S
N520 C517 1.351 . S
N520 N521 1.365 . S
N521 C518 1.341 . S
N521 N520 1.365 . S
N521 H541 0.862 . S
C522 C517 1.501 . S
C522 H523 0.961 . S
C522 H524 0.961 . S
C522 H525 0.960 . S
H523 C522 0.961 . S
H524 C522 0.961 . S
H525 C522 0.960 . S
C526 N527 1.342 . S
C526 C530 1.401 . S
C526 C531 1.499 . S
N527 Co510 1.989 1_556 S
N527 C526 1.342 . S
N527 N528 1.388 . S
N528 Co511 1.993 1_556 S
N528 N527 1.388 . S
N528 C529 1.346 . S
C529 N528 1.346 . S
C529 C530 1.396 . S
C529 C539 1.510 . S
C530 C526 1.401 . S
C530 C529 1.396 . S
C531 C526 1.499 . S
C531 H532 0.959 . S
C531 H533 0.960 . S
C531 H534 0.961 . S
H532 C531 0.959 . S
H533 C531 0.960 . S
H534 C531 0.961 . S
O535 Co510 1.967 . S
O535 C543 1.258 . S
O536 Co511 1.941 . S
O536 C543 1.266 . S
H537 C539 0.959 . S
H538 C539 0.961 . S
C539 C529 1.510 . S
C539 H537 0.959 . S
C539 H538 0.961 . S
C539 H540 0.960 . S
H540 C539 0.960 . S
H541 N521 0.862 . S
O542 Co510 1.920 . S
O542 C515 1.289 . S
C543 O535 1.258 . S
C543 O536 1.266 . S
Co544 O547 1.970 . S
Co544 N561 1.989 . S
Co544 O569 1.967 . S
Co544 O576 1.920 . S
Co545 O548 1.966 . S
Co545 N554 2.022 . S
Co545 N562 1.993 . S
Co545 O570 1.941 . S
C546 O547 1.258 . S
C546 O548 1.263 . S
O547 Co544 1.970 . S
O547 C546 1.258 . S
O548 Co545 1.966 . S
O548 C546 1.263 . S
C549 O550 1.235 . S
C549 O576 1.289 . S
O550 C549 1.235 . S
C551 C553 1.400 . S
C551 N554 1.351 . S
C551 C556 1.501 . S
C552 C553 1.387 . S
C552 N555 1.341 . S
C553 C551 1.400 . S
C553 C552 1.387 . S
N554 Co545 2.022 . S
N554 C551 1.351 . S
N554 N555 1.365 . S
N555 C552 1.341 . S
N555 N554 1.365 . S
N555 H575 0.862 . S
C556 C551 1.501 . S
C556 H557 0.961 . S
C556 H558 0.961 . S
C556 H559 0.960 . S
H557 C556 0.961 . S
H558 C556 0.961 . S
H559 C556 0.960 . S
C560 N561 1.342 . S
C560 C564 1.401 . S
C560 C565 1.499 . S
N561 Co544 1.989 . S
N561 C560 1.342 . S
N561 N562 1.388 . S
N562 Co545 1.993 . S
N562 N561 1.388 . S
N562 C563 1.346 . S
C563 N562 1.346 . S
C563 C564 1.396 . S
C563 C573 1.510 . S
C564 C560 1.401 . S
C564 C563 1.396 . S
C565 C560 1.499 . S
C565 H566 0.959 . S
C565 H567 0.960 . S
C565 H568 0.961 . S
H566 C565 0.959 . S
H567 C565 0.960 . S
H568 C565 0.961 . S
O569 Co544 1.967 . S
O569 C577 1.258 . S
O570 Co545 1.941 . S
O570 C577 1.266 . S
H571 C573 0.959 . S
H572 C573 0.961 . S
C573 C563 1.510 . S
C573 H571 0.959 . S
C573 H572 0.961 . S
C573 H574 0.960 . S
H574 C573 0.960 . S
H575 N555 0.862 . S
O576 Co544 1.920 . S
O576 C549 1.289 . S
C577 O569 1.258 . S
C577 O570 1.266 . S
Co578 O581 1.970 . S
Co578 N595 1.989 . S
Co578 O603 1.967 . S
Co578 O610 1.920 . S
Co579 O582 1.966 . S
Co579 N588 2.022 1_554 S
Co579 N596 1.993 . S
Co579 O604 1.941 . S
C580 O581 1.258 . S
C580 O582 1.263 . S
O581 Co578 1.970 . S
O581 C580 1.258 . S
O582 Co579 1.966 . S
O582 C580 1.263 . S
C583 O584 1.235 . S
C583 O610 1.289 . S
O584 C583 1.235 . S
C585 C587 1.400 . S
C585 N588 1.351 . S
C585 C590 1.501 . S
C586 C587 1.387 . S
C586 N589 1.341 . S
C587 C585 1.400 . S
C587 C586 1.387 . S
N588 Co579 2.022 1_556 S
N588 C585 1.351 . S
N588 N589 1.365 . S
N589 C586 1.341 . S
N589 N588 1.365 . S
N589 H609 0.862 1_556 S
C590 C585 1.501 . S
C590 H591 0.961 . S
C590 H592 0.961 . S
C590 H593 0.960 . S
H591 C590 0.961 . S
H592 C590 0.961 . S
H593 C590 0.960 . S
C594 N595 1.342 . S
C594 C598 1.401 . S
C594 C599 1.499 . S
N595 Co578 1.989 . S
N595 C594 1.342 . S
N595 N596 1.388 . S
N596 Co579 1.993 . S
N596 N595 1.388 . S
N596 C597 1.346 . S
C597 N596 1.346 . S
C597 C598 1.396 . S
C597 C607 1.510 1_554 S
C598 C594 1.401 . S
C598 C597 1.396 . S
C599 C594 1.499 . S
C599 H600 0.959 . S
C599 H601 0.960 . S
C599 H602 0.961 . S
H600 C599 0.959 . S
H601 C599 0.960 . S
H602 C599 0.961 . S
O603 Co578 1.967 . S
O603 C611 1.258 . S
O604 Co579 1.941 . S
O604 C611 1.266 . S
H605 C607 0.959 . S
H606 C607 0.961 . S
C607 C597 1.510 1_556 S
C607 H605 0.959 . S
C607 H606 0.961 . S
C607 H608 0.960 . S
H608 C607 0.960 . S
H609 N589 0.862 1_554 S
O610 Co578 1.920 . S
O610 C583 1.289 . S
C611 O603 1.258 . S
C611 O604 1.266 . S
Co612 O615 1.970 . S
Co612 N629 1.989 . S
Co612 O637 1.967 . S
Co612 O644 1.920 . S
Co613 O616 1.966 . S
Co613 N622 2.022 . S
Co613 N630 1.993 . S
Co613 O638 1.941 . S
C614 O615 1.258 . S
C614 O616 1.263 . S
O615 Co612 1.970 . S
O615 C614 1.258 . S
O616 Co613 1.966 . S
O616 C614 1.263 . S
C617 O618 1.260 . S
C617 O644 1.246 1_455 S
O618 C617 1.260 . S
C619 C621 1.400 . S
C619 N622 1.351 . S
C619 C624 1.501 . S
C620 C621 1.387 . S
C620 N623 1.341 . S
C621 C619 1.400 . S
C621 C620 1.387 . S
N622 Co613 2.022 . S
N622 C619 1.351 . S
N622 N623 1.365 . S
N623 C620 1.341 . S
N623 N622 1.365 . S
N623 H643 0.862 . S
C624 C619 1.501 . S
C624 H625 0.961 . S
C624 H626 0.961 . S
C624 H627 0.960 . S
H625 C624 0.961 . S
H626 C624 0.961 . S
H627 C624 0.960 . S
C628 N629 1.342 . S
C628 C632 1.401 . S
C628 C633 1.499 . S
N629 Co612 1.989 . S
N629 C628 1.342 . S
N629 N630 1.388 . S
N630 Co613 1.993 . S
N630 N629 1.388 . S
N630 C631 1.346 . S
C631 N630 1.346 . S
C631 C632 1.396 . S
C631 C641 1.510 . S
C632 C628 1.401 . S
C632 C631 1.396 . S
C633 C628 1.499 . S
C633 H634 0.959 . S
C633 H635 0.960 . S
C633 H636 0.961 . S
H634 C633 0.959 . S
H635 C633 0.960 . S
H636 C633 0.961 . S
O637 Co612 1.967 . S
O637 C645 1.258 . S
O638 Co613 1.941 . S
O638 C645 1.266 . S
H639 C641 0.959 . S
H640 C641 0.961 . S
C641 C631 1.510 . S
C641 H639 0.959 . S
C641 H640 0.961 . S
C641 H642 0.960 . S
H642 C641 0.960 . S
H643 N623 0.862 . S
O644 Co612 1.920 . S
O644 C617 1.246 1_655 S
C645 O637 1.258 . S
C645 O638 1.266 . S
Co646 O649 1.970 . S
Co646 N663 1.989 . S
Co646 O671 1.967 . S
Co646 O678 1.920 . S
Co647 O650 1.966 . S
Co647 N656 2.022 . S
Co647 N664 1.993 . S
Co647 O672 1.941 . S
C648 O649 1.258 . S
C648 O650 1.263 . S
O649 Co646 1.970 . S
O649 C648 1.258 . S
O650 Co647 1.966 . S
O650 C648 1.263 . S
C651 O652 1.235 . S
C651 O678 1.289 . S
O652 C651 1.235 . S
C653 C655 1.400 . S
C653 N656 1.351 . S
C653 C658 1.501 . S
C654 C655 1.387 . S
C654 N657 1.341 . S
C655 C653 1.400 . S
C655 C654 1.387 . S
N656 Co647 2.022 . S
N656 C653 1.351 . S
N656 N657 1.365 . S
N657 C654 1.341 . S
N657 N656 1.365 . S
N657 H677 0.862 . S
C658 C653 1.501 . S
C658 H659 0.961 . S
C658 H660 0.961 . S
C658 H661 0.960 . S
H659 C658 0.961 . S
H660 C658 0.961 . S
H661 C658 0.960 . S
C662 N663 1.342 . S
C662 C666 1.401 . S
C662 C667 1.499 . S
N663 Co646 1.989 . S
N663 C662 1.342 . S
N663 N664 1.388 . S
N664 Co647 1.993 . S
N664 N663 1.388 . S
N664 C665 1.346 . S
C665 N664 1.346 . S
C665 C666 1.396 . S
C665 C675 1.510 . S
C666 C662 1.401 . S
C666 C665 1.396 . S
C667 C662 1.499 . S
C667 H668 0.959 . S
C667 H669 0.960 . S
C667 H670 0.961 . S
H668 C667 0.959 . S
H669 C667 0.960 . S
H670 C667 0.961 . S
O671 Co646 1.967 . S
O671 C679 1.258 . S
O672 Co647 1.941 . S
O672 C679 1.266 . S
H673 C675 0.959 . S
H674 C675 0.961 . S
C675 C665 1.510 . S
C675 H673 0.959 . S
C675 H674 0.961 . S
C675 H676 0.960 . S
H676 C675 0.960 . S
H677 N657 0.862 . S
O678 Co646 1.920 . S
O678 C651 1.289 . S
C679 O671 1.258 . S
C679 O672 1.266 . S
Co680 O683 1.970 . S
Co680 N697 1.989 . S
Co680 O705 1.967 . S
Co680 O712 1.920 . S
Co681 O684 1.966 . S
Co681 N690 2.022 . S
Co681 N698 1.993 . S
Co681 O706 1.941 . S
C682 O683 1.258 . S
C682 O684 1.263 . S
O683 Co680 1.970 . S
O683 C682 1.258 . S
O684 Co681 1.966 . S
O684 C682 1.263 . S
C685 O686 1.235 . S
C685 O712 1.289 . S
O686 C685 1.235 . S
C687 C689 1.400 . S
C687 N690 1.351 . S
C687 C692 1.501 . S
C688 C689 1.387 . S
C688 N691 1.341 . S
C689 C687 1.400 . S
C689 C688 1.387 . S
N690 Co681 2.022 . S
N690 C687 1.351 . S
N690 N691 1.365 . S
N691 C688 1.341 . S
N691 N690 1.365 . S
N691 H711 0.862 . S
C692 C687 1.501 . S
C692 H693 0.961 . S
C692 H694 0.961 . S
C692 H695 0.960 . S
H693 C692 0.961 . S
H694 C692 0.961 . S
H695 C692 0.960 . S
C696 N697 1.342 . S
C696 C700 1.401 . S
C696 C701 1.499 . S
N697 Co680 1.989 . S
N697 C696 1.342 . S
N697 N698 1.388 . S
N698 Co681 1.993 . S
N698 N697 1.388 . S
N698 C699 1.346 . S
C699 N698 1.346 . S
C699 C700 1.396 . S
C699 C709 1.510 . S
C700 C696 1.401 . S
C700 C699 1.396 . S
C701 C696 1.499 . S
C701 H702 0.959 . S
C701 H703 0.960 . S
C701 H704 0.961 . S
H702 C701 0.959 . S
H703 C701 0.960 . S
H704 C701 0.961 . S
O705 Co680 1.967 . S
O705 C713 1.258 . S
O706 Co681 1.941 . S
O706 C713 1.266 . S
H707 C709 0.959 . S
H708 C709 0.961 . S
C709 C699 1.510 . S
C709 H707 0.959 . S
C709 H708 0.961 . S
C709 H710 0.960 . S
H710 C709 0.960 . S
H711 N691 0.862 . S
O712 Co680 1.920 . S
O712 C685 1.289 . S
C713 O705 1.258 . S
C713 O706 1.266 . S
Co714 O717 1.970 . S
Co714 N731 1.989 . S
Co714 O739 1.967 . S
Co714 O746 1.920 . S
Co715 O718 1.966 . S
Co715 N724 2.022 1_556 S
Co715 N732 1.993 . S
Co715 O740 1.941 . S
C716 O717 1.258 . S
C716 O718 1.263 . S
O717 Co714 1.970 . S
O717 C716 1.258 . S
O718 Co715 1.966 . S
O718 C716 1.263 . S
C719 O720 1.235 . S
C719 O746 1.289 . S
O720 C719 1.235 . S
C721 C723 1.400 . S
C721 N724 1.351 . S
C721 C726 1.501 . S
C722 C723 1.387 . S
C722 N725 1.341 . S
C723 C721 1.400 . S
C723 C722 1.387 . S
N724 Co715 2.022 1_554 S
N724 C721 1.351 . S
N724 N725 1.365 . S
N725 C722 1.341 . S
N725 N724 1.365 . S
N725 H745 0.862 1_554 S
C726 C721 1.501 . S
C726 H727 0.961 . S
C726 H728 0.961 . S
C726 H729 0.960 . S
H727 C726 0.961 . S
H728 C726 0.961 . S
H729 C726 0.960 . S
C730 N731 1.342 . S
C730 C734 1.401 . S
C730 C735 1.499 . S
N731 Co714 1.989 . S
N731 C730 1.342 . S
N731 N732 1.388 . S
N732 Co715 1.993 . S
N732 N731 1.388 . S
N732 C733 1.346 . S
C733 N732 1.346 . S
C733 C734 1.396 . S
C733 C743 1.510 1_556 S
C734 C730 1.401 . S
C734 C733 1.396 . S
C735 C730 1.499 . S
C735 H736 0.959 . S
C735 H737 0.960 . S
C735 H738 0.961 . S
H736 C735 0.959 . S
H737 C735 0.960 . S
H738 C735 0.961 . S
O739 Co714 1.967 . S
O739 C747 1.258 . S
O740 Co715 1.941 . S
O740 C747 1.266 . S
H741 C743 0.959 . S
H742 C743 0.961 . S
C743 C733 1.510 1_554 S
C743 H741 0.959 . S
C743 H742 0.961 . S
C743 H744 0.960 . S
H744 C743 0.960 . S
H745 N725 0.862 1_556 S
O746 Co714 1.920 . S
O746 C719 1.289 . S
C747 O739 1.258 . S
C747 O740 1.266 . S
Co748 O751 1.970 . S
Co748 N765 1.989 . S
Co748 O773 1.967 . S
Co748 O780 1.920 . S
Co749 O752 1.966 . S
Co749 N758 2.022 . S
Co749 N766 1.993 . S
Co749 O774 1.941 . S
C750 O751 1.258 . S
C750 O752 1.263 . S
O751 Co748 1.970 . S
O751 C750 1.258 . S
O752 Co749 1.966 . S
O752 C750 1.263 . S
C753 O754 1.260 . S
C753 O780 1.246 1_455 S
O754 C753 1.260 . S
C755 C757 1.400 . S
C755 N758 1.351 . S
C755 C760 1.501 . S
C756 C757 1.387 . S
C756 N759 1.341 . S
C757 C755 1.400 . S
C757 C756 1.387 . S
N758 Co749 2.022 . S
N758 C755 1.351 . S
N758 N759 1.365 . S
N759 C756 1.341 . S
N759 N758 1.365 . S
N759 H779 0.862 . S
C760 C755 1.501 . S
C760 H761 0.961 . S
C760 H762 0.961 . S
C760 H763 0.960 . S
H761 C760 0.961 . S
H762 C760 0.961 . S
H763 C760 0.960 . S
C764 N765 1.342 . S
C764 C768 1.401 . S
C764 C769 1.499 . S
N765 Co748 1.989 . S
N765 C764 1.342 . S
N765 N766 1.388 . S
N766 Co749 1.993 . S
N766 N765 1.388 . S
N766 C767 1.346 . S
C767 N766 1.346 . S
C767 C768 1.396 . S
C767 C777 1.510 . S
C768 C764 1.401 . S
C768 C767 1.396 . S
C769 C764 1.499 . S
C769 H770 0.959 . S
C769 H771 0.960 . S
C769 H772 0.961 . S
H770 C769 0.959 . S
H771 C769 0.960 . S
H772 C769 0.961 . S
O773 Co748 1.967 . S
O773 C781 1.258 . S
O774 Co749 1.941 . S
O774 C781 1.266 . S
H775 C777 0.959 . S
H776 C777 0.961 . S
C777 C767 1.510 . S
C777 H775 0.959 . S
C777 H776 0.961 . S
C777 H778 0.960 . S
H778 C777 0.960 . S
H779 N759 0.862 . S
O780 Co748 1.920 . S
O780 C753 1.246 1_655 S
C781 O773 1.258 . S
C781 O774 1.266 . S
Co782 O785 1.970 . S
Co782 N799 1.989 . S
Co782 O807 1.967 . S
Co782 O814 1.920 . S
Co783 O786 1.966 . S
Co783 N792 2.022 . S
Co783 N800 1.993 . S
Co783 O808 1.941 . S
C784 O785 1.258 . S
C784 O786 1.263 . S
O785 Co782 1.970 . S
O785 C784 1.258 . S
O786 Co783 1.966 . S
O786 C784 1.263 . S
C787 O788 1.235 . S
C787 O814 1.289 . S
O788 C787 1.235 . S
C789 C791 1.400 . S
C789 N792 1.351 . S
C789 C794 1.501 . S
C790 C791 1.387 . S
C790 N793 1.341 . S
C791 C789 1.400 . S
C791 C790 1.387 . S
N792 Co783 2.022 . S
N792 C789 1.351 . S
N792 N793 1.365 . S
N793 C790 1.341 . S
N793 N792 1.365 . S
N793 H813 0.862 . S
C794 C789 1.501 . S
C794 H795 0.961 . S
C794 H796 0.961 . S
C794 H797 0.960 . S
H795 C794 0.961 . S
H796 C794 0.961 . S
H797 C794 0.960 . S
C798 N799 1.342 . S
C798 C802 1.401 . S
C798 C803 1.499 . S
N799 Co782 1.989 . S
N799 C798 1.342 . S
N799 N800 1.388 . S
N800 Co783 1.993 . S
N800 N799 1.388 . S
N800 C801 1.346 . S
C801 N800 1.346 . S
C801 C802 1.396 . S
C801 C811 1.510 . S
C802 C798 1.401 . S
C802 C801 1.396 . S
C803 C798 1.499 . S
C803 H804 0.959 . S
C803 H805 0.960 . S
C803 H806 0.961 . S
H804 C803 0.959 . S
H805 C803 0.960 . S
H806 C803 0.961 . S
O807 Co782 1.967 . S
O807 C815 1.258 . S
O808 Co783 1.941 . S
O808 C815 1.266 . S
H809 C811 0.959 . S
H810 C811 0.961 . S
C811 C801 1.510 . S
C811 H809 0.959 . S
C811 H810 0.961 . S
C811 H812 0.960 . S
H812 C811 0.960 . S
H813 N793 0.862 . S
O814 Co782 1.920 . S
O814 C787 1.289 . S
C815 O807 1.258 . S
C815 O808 1.266 . S
Co816 O819 1.970 . S
Co816 N833 1.989 . S
Co816 O841 1.967 . S
Co816 O848 1.920 . S
Co817 O820 1.966 . S
Co817 N826 2.022 . S
Co817 N834 1.993 . S
Co817 O842 1.941 . S
C818 O819 1.258 . S
C818 O820 1.263 . S
O819 Co816 1.970 . S
O819 C818 1.258 . S
O820 Co817 1.966 . S
O820 C818 1.263 . S
C821 O822 1.235 . S
C821 O848 1.289 . S
O822 C821 1.235 . S
C823 C825 1.400 . S
C823 N826 1.351 . S
C823 C828 1.501 . S
C824 C825 1.387 . S
C824 N827 1.341 . S
C825 C823 1.400 . S
C825 C824 1.387 . S
N826 Co817 2.022 . S
N826 C823 1.351 . S
N826 N827 1.365 . S
N827 C824 1.341 . S
N827 N826 1.365 . S
N827 H847 0.862 . S
C828 C823 1.501 . S
C828 H829 0.961 . S
C828 H830 0.961 . S
C828 H831 0.960 . S
H829 C828 0.961 . S
H830 C828 0.961 . S
H831 C828 0.960 . S
C832 N833 1.342 . S
C832 C836 1.401 . S
C832 C837 1.499 . S
N833 Co816 1.989 . S
N833 C832 1.342 . S
N833 N834 1.388 . S
N834 Co817 1.993 . S
N834 N833 1.388 . S
N834 C835 1.346 . S
C835 N834 1.346 . S
C835 C836 1.396 . S
C835 C845 1.510 . S
C836 C832 1.401 . S
C836 C835 1.396 . S
C837 C832 1.499 . S
C837 H838 0.959 . S
C837 H839 0.960 . S
C837 H840 0.961 . S
H838 C837 0.959 . S
H839 C837 0.960 . S
H840 C837 0.961 . S
O841 Co816 1.967 . S
O841 C849 1.258 . S
O842 Co817 1.941 . S
O842 C849 1.266 . S
H843 C845 0.959 . S
H844 C845 0.961 . S
C845 C835 1.510 . S
C845 H843 0.959 . S
C845 H844 0.961 . S
C845 H846 0.960 . S
H846 C845 0.960 . S
H847 N827 0.862 . S
O848 Co816 1.920 . S
O848 C821 1.289 . S
C849 O841 1.258 . S
C849 O842 1.266 . S
Co850 O853 1.970 . S
Co850 N867 1.989 1_556 S
Co850 O875 1.967 . S
Co850 O882 1.920 . S
Co851 O854 1.966 . S
Co851 N860 2.022 . S
Co851 N868 1.993 1_556 S
Co851 O876 1.941 . S
C852 O853 1.258 . S
C852 O854 1.263 . S
O853 Co850 1.970 . S
O853 C852 1.258 . S
O854 Co851 1.966 . S
O854 C852 1.263 . S
C855 O856 1.235 1_556 S
C855 O882 1.289 . S
O856 C855 1.235 1_554 S
C857 C859 1.400 . S
C857 N860 1.351 . S
C857 C862 1.501 . S
C858 C859 1.387 . S
C858 N861 1.341 . S
C859 C857 1.400 . S
C859 C858 1.387 . S
N860 Co851 2.022 . S
N860 C857 1.351 . S
N860 N861 1.365 . S
N861 C858 1.341 . S
N861 N860 1.365 . S
N861 H881 0.862 . S
C862 C857 1.501 . S
C862 H863 0.961 . S
C862 H864 0.961 . S
C862 H865 0.960 . S
H863 C862 0.961 . S
H864 C862 0.961 . S
H865 C862 0.960 . S
C866 N867 1.342 . S
C866 C870 1.401 . S
C866 C871 1.499 . S
N867 Co850 1.989 1_554 S
N867 C866 1.342 . S
N867 N868 1.388 . S
N868 Co851 1.993 1_554 S
N868 N867 1.388 . S
N868 C869 1.346 . S
C869 N868 1.346 . S
C869 C870 1.396 . S
C869 C879 1.510 . S
C870 C866 1.401 . S
C870 C869 1.396 . S
C871 C866 1.499 . S
C871 H872 0.959 . S
C871 H873 0.960 . S
C871 H874 0.961 . S
H872 C871 0.959 . S
H873 C871 0.960 . S
H874 C871 0.961 . S
O875 Co850 1.967 . S
O875 C883 1.258 . S
O876 Co851 1.941 . S
O876 C883 1.266 . S
H877 C879 0.959 . S
H878 C879 0.961 . S
C879 C869 1.510 . S
C879 H877 0.959 . S
C879 H878 0.961 . S
C879 H880 0.960 . S
H880 C879 0.960 . S
H881 N861 0.862 . S
O882 Co850 1.920 . S
O882 C855 1.289 . S
C883 O875 1.258 . S
C883 O876 1.266 . S
Co884 O887 1.970 . S
Co884 N901 1.989 . S
Co884 O909 1.967 . S
Co884 O916 1.920 . S
Co885 O888 1.966 . S
Co885 N894 2.022 . S
Co885 N902 1.993 . S
Co885 O910 1.941 . S
C886 O887 1.258 . S
C886 O888 1.263 . S
O887 Co884 1.970 . S
O887 C886 1.258 . S
O888 Co885 1.966 . S
O888 C886 1.263 . S
C889 O890 1.235 . S
C889 O916 1.289 . S
O890 C889 1.235 . S
C891 C893 1.400 . S
C891 N894 1.351 . S
C891 C896 1.501 . S
C892 C893 1.387 . S
C892 N895 1.341 . S
C893 C891 1.400 . S
C893 C892 1.387 . S
N894 Co885 2.022 . S
N894 C891 1.351 . S
N894 N895 1.365 . S
N895 C892 1.341 . S
N895 N894 1.365 . S
N895 H915 0.862 . S
C896 C891 1.501 . S
C896 H897 0.961 . S
C896 H898 0.961 . S
C896 H899 0.960 . S
H897 C896 0.961 . S
H898 C896 0.961 . S
H899 C896 0.960 . S
C900 N901 1.342 . S
C900 C904 1.401 . S
C900 C905 1.499 . S
N901 Co884 1.989 . S
N901 C900 1.342 . S
N901 N902 1.388 . S
N902 Co885 1.993 . S
N902 N901 1.388 . S
N902 C903 1.346 . S
C903 N902 1.346 . S
C903 C904 1.396 . S
C903 C913 1.510 . S
C904 C900 1.401 . S
C904 C903 1.396 . S
C905 C900 1.499 . S
C905 H906 0.959 . S
C905 H907 0.960 . S
C905 H908 0.961 . S
H906 C905 0.959 . S
H907 C905 0.960 . S
H908 C905 0.961 . S
O909 Co884 1.967 . S
O909 C917 1.258 . S
O910 Co885 1.941 . S
O910 C917 1.266 . S
H911 C913 0.959 . S
H912 C913 0.961 . S
C913 C903 1.510 . S
C913 H911 0.959 . S
C913 H912 0.961 . S
C913 H914 0.960 . S
H914 C913 0.960 . S
H915 N895 0.862 . S
O916 Co884 1.920 . S
O916 C889 1.289 . S
C917 O909 1.258 . S
C917 O910 1.266 . S
Co918 O921 1.970 . S
Co918 N935 1.989 . S
Co918 O943 1.967 . S
Co918 O950 1.920 . S
Co919 O922 1.966 . S
Co919 N928 2.022 . S
Co919 N936 1.993 . S
Co919 O944 1.941 . S
C920 O921 1.258 . S
C920 O922 1.263 . S
O921 Co918 1.970 . S
O921 C920 1.258 . S
O922 Co919 1.966 . S
O922 C920 1.263 . S
C923 O924 1.235 . S
C923 O950 1.289 . S
O924 C923 1.235 . S
C925 C927 1.400 . S
C925 N928 1.351 . S
C925 C930 1.501 . S
C926 C927 1.387 . S
C926 N929 1.341 . S
C927 C925 1.400 . S
C927 C926 1.387 . S
N928 Co919 2.022 . S
N928 C925 1.351 . S
N928 N929 1.365 . S
N929 C926 1.341 . S
N929 N928 1.365 . S
N929 H949 0.862 . S
C930 C925 1.501 . S
C930 H931 0.961 . S
C930 H932 0.961 . S
C930 H933 0.960 . S
H931 C930 0.961 . S
H932 C930 0.961 . S
H933 C930 0.960 . S
C934 N935 1.342 . S
C934 C938 1.401 . S
C934 C939 1.499 . S
N935 Co918 1.989 . S
N935 C934 1.342 . S
N935 N936 1.388 . S
N936 Co919 1.993 . S
N936 N935 1.388 . S
N936 C937 1.346 . S
C937 N936 1.346 . S
C937 C938 1.396 . S
C937 C947 1.510 . S
C938 C934 1.401 . S
C938 C937 1.396 . S
C939 C934 1.499 . S
C939 H940 0.959 . S
C939 H941 0.960 . S
C939 H942 0.961 . S
H940 C939 0.959 . S
H941 C939 0.960 . S
H942 C939 0.961 . S
O943 Co918 1.967 . S
O943 C951 1.258 . S
O944 Co919 1.941 . S
O944 C951 1.266 . S
H945 C947 0.959 . S
H946 C947 0.961 . S
C947 C937 1.510 . S
C947 H945 0.959 . S
C947 H946 0.961 . S
C947 H948 0.960 . S
H948 C947 0.960 . S
H949 N929 0.862 . S
O950 Co918 1.920 . S
O950 C923 1.289 . S
C951 O943 1.258 . S
C951 O944 1.266 . S
Co952 O955 1.970 . S
Co952 N969 1.989 . S
Co952 O977 1.967 . S
Co952 O984 1.920 . S
Co953 O956 1.966 . S
Co953 N962 2.022 . S
Co953 N970 1.993 . S
Co953 O978 1.941 . S
C954 O955 1.258 . S
C954 O956 1.263 . S
O955 Co952 1.970 . S
O955 C954 1.258 . S
O956 Co953 1.966 . S
O956 C954 1.263 . S
C957 O958 1.235 . S
C957 O984 1.289 . S
O958 C957 1.235 . S
C959 C961 1.400 . S
C959 N962 1.351 . S
C959 C964 1.501 . S
C960 C961 1.387 . S
C960 N963 1.341 . S
C961 C959 1.400 . S
C961 C960 1.387 . S
N962 Co953 2.022 . S
N962 C959 1.351 . S
N962 N963 1.365 . S
N963 C960 1.341 . S
N963 N962 1.365 . S
N963 H983 0.862 . S
C964 C959 1.501 . S
C964 H965 0.961 . S
C964 H966 0.961 . S
C964 H967 0.960 . S
H965 C964 0.961 . S
H966 C964 0.961 . S
H967 C964 0.960 . S
C968 N969 1.342 . S
C968 C972 1.401 . S
C968 C973 1.499 . S
N969 Co952 1.989 . S
N969 C968 1.342 . S
N969 N970 1.388 . S
N970 Co953 1.993 . S
N970 N969 1.388 . S
N970 C971 1.346 . S
C971 N970 1.346 . S
C971 C972 1.396 . S
C971 C981 1.510 . S
C972 C968 1.401 . S
C972 C971 1.396 . S
C973 C968 1.499 . S
C973 H974 0.959 . S
C973 H975 0.960 . S
C973 H976 0.961 . S
H974 C973 0.959 . S
H975 C973 0.960 . S
H976 C973 0.961 . S
O977 Co952 1.967 . S
O977 C985 1.258 . S
O978 Co953 1.941 . S
O978 C985 1.266 . S
H979 C981 0.959 . S
H980 C981 0.961 . S
C981 C971 1.510 . S
C981 H979 0.959 . S
C981 H980 0.961 . S
C981 H982 0.960 . S
H982 C981 0.960 . S
H983 N963 0.862 . S
O984 Co952 1.920 . S
O984 C957 1.289 . S
C985 O977 1.258 . S
C985 O978 1.266 . S
Co986 O989 1.970 . S
Co986 N1003 1.989 1_554 S
Co986 O1011 1.967 . S
Co986 O1018 1.920 . S
Co987 O990 1.966 . S
Co987 N996 2.022 . S
Co987 N1004 1.993 1_554 S
Co987 O1012 1.941 . S
C988 O989 1.258 . S
C988 O990 1.263 . S
O989 Co986 1.970 . S
O989 C988 1.258 . S
O990 Co987 1.966 . S
O990 C988 1.263 . S
C991 O992 1.235 1_554 S
C991 O1018 1.289 . S
O992 C991 1.235 1_556 S
C993 C995 1.400 . S
C993 N996 1.351 . S
C993 C998 1.501 . S
C994 C995 1.387 . S
C994 N997 1.341 . S
C995 C993 1.400 . S
C995 C994 1.387 . S
N996 Co987 2.022 . S
N996 C993 1.351 . S
N996 N997 1.365 . S
N997 C994 1.341 . S
N997 N996 1.365 . S
N997 H1017 0.862 . S
C998 C993 1.501 . S
C998 H999 0.961 . S
C998 H1000 0.961 . S
C998 H1001 0.960 . S
H999 C998 0.961 . S
H1000 C998 0.961 . S
H1001 C998 0.960 . S
C1002 N1003 1.342 . S
C1002 C1006 1.401 . S
C1002 C1007 1.499 . S
N1003 Co986 1.989 1_556 S
N1003 C1002 1.342 . S
N1003 N1004 1.388 . S
N1004 Co987 1.993 1_556 S
N1004 N1003 1.388 . S
N1004 C1005 1.346 . S
C1005 N1004 1.346 . S
C1005 C1006 1.396 . S
C1005 C1015 1.510 . S
C1006 C1002 1.401 . S
C1006 C1005 1.396 . S
C1007 C1002 1.499 . S
C1007 H1008 0.959 . S
C1007 H1009 0.960 . S
C1007 H1010 0.961 . S
H1008 C1007 0.959 . S
H1009 C1007 0.960 . S
H1010 C1007 0.961 . S
O1011 Co986 1.967 . S
O1011 C1019 1.258 . S
O1012 Co987 1.941 . S
O1012 C1019 1.266 . S
H1013 C1015 0.959 . S
H1014 C1015 0.961 . S
C1015 C1005 1.510 . S
C1015 H1013 0.959 . S
C1015 H1014 0.961 . S
C1015 H1016 0.960 . S
H1016 C1015 0.960 . S
H1017 N997 0.862 . S
O1018 Co986 1.920 . S
O1018 C991 1.289 . S
C1019 O1011 1.258 . S
C1019 O1012 1.266 . S
Co1020 O1023 1.970 . S
Co1020 N1037 1.989 . S
Co1020 O1045 1.967 . S
Co1020 O1052 1.920 . S
Co1021 O1024 1.966 . S
Co1021 N1030 2.022 . S
Co1021 N1038 1.993 . S
Co1021 O1046 1.941 . S
C1022 O1023 1.258 . S
C1022 O1024 1.263 . S
O1023 Co1020 1.970 . S
O1023 C1022 1.258 . S
O1024 Co1021 1.966 . S
O1024 C1022 1.263 . S
C1025 O1026 1.235 . S
C1025 O1052 1.289 . S
O1026 C1025 1.235 . S
C1027 C1029 1.400 . S
C1027 N1030 1.351 . S
C1027 C1032 1.501 . S
C1028 C1029 1.387 . S
C1028 N1031 1.341 . S
C1029 C1027 1.400 . S
C1029 C1028 1.387 . S
N1030 Co1021 2.022 . S
N1030 C1027 1.351 . S
N1030 N1031 1.365 . S
N1031 C1028 1.341 . S
N1031 N1030 1.365 . S
N1031 H1051 0.862 . S
C1032 C1027 1.501 . S
C1032 H1033 0.961 . S
C1032 H1034 0.961 . S
C1032 H1035 0.960 . S
H1033 C1032 0.961 . S
H1034 C1032 0.961 . S
H1035 C1032 0.960 . S
C1036 N1037 1.342 . S
C1036 C1040 1.401 . S
C1036 C1041 1.499 . S
N1037 Co1020 1.989 . S
N1037 C1036 1.342 . S
N1037 N1038 1.388 . S
N1038 Co1021 1.993 . S
N1038 N1037 1.388 . S
N1038 C1039 1.346 . S
C1039 N1038 1.346 . S
C1039 C1040 1.396 . S
C1039 C1049 1.510 . S
C1040 C1036 1.401 . S
C1040 C1039 1.396 . S
C1041 C1036 1.499 . S
C1041 H1042 0.959 . S
C1041 H1043 0.960 . S
C1041 H1044 0.961 . S
H1042 C1041 0.959 . S
H1043 C1041 0.960 . S
H1044 C1041 0.961 . S
O1045 Co1020 1.967 . S
O1045 C1053 1.258 . S
O1046 Co1021 1.941 . S
O1046 C1053 1.266 . S
H1047 C1049 0.959 . S
H1048 C1049 0.961 . S
C1049 C1039 1.510 . S
C1049 H1047 0.959 . S
C1049 H1048 0.961 . S
C1049 H1050 0.960 . S
H1050 C1049 0.960 . S
H1051 N1031 0.862 . S
O1052 Co1020 1.920 . S
O1052 C1025 1.289 . S
C1053 O1045 1.258 . S
C1053 O1046 1.266 . S
Co1054 O1057 1.970 . S
Co1054 N1071 1.989 . S
Co1054 O1079 1.967 . S
Co1054 O1086 1.920 . S
Co1055 O1058 1.966 . S
Co1055 N1064 2.022 . S
Co1055 N1072 1.993 . S
Co1055 O1080 1.941 . S
C1056 O1057 1.258 . S
C1056 O1058 1.263 . S
O1057 Co1054 1.970 . S
O1057 C1056 1.258 . S
O1058 Co1055 1.966 . S
O1058 C1056 1.263 . S
C1059 O1060 1.235 . S
C1059 O1086 1.289 . S
O1060 C1059 1.235 . S
C1061 C1063 1.400 . S
C1061 N1064 1.351 . S
C1061 C1066 1.501 . S
C1062 C1063 1.387 . S
C1062 N1065 1.341 . S
C1063 C1061 1.400 . S
C1063 C1062 1.387 . S
N1064 Co1055 2.022 . S
N1064 C1061 1.351 . S
N1064 N1065 1.365 . S
N1065 C1062 1.341 . S
N1065 N1064 1.365 . S
N1065 H1085 0.862 . S
C1066 C1061 1.501 . S
C1066 H1067 0.961 . S
C1066 H1068 0.961 . S
C1066 H1069 0.960 . S
H1067 C1066 0.961 . S
H1068 C1066 0.961 . S
H1069 C1066 0.960 . S
C1070 N1071 1.342 . S
C1070 C1074 1.401 . S
C1070 C1075 1.499 . S
N1071 Co1054 1.989 . S
N1071 C1070 1.342 . S
N1071 N1072 1.388 . S
N1072 Co1055 1.993 . S
N1072 N1071 1.388 . S
N1072 C1073 1.346 . S
C1073 N1072 1.346 . S
C1073 C1074 1.396 . S
C1073 C1083 1.510 . S
C1074 C1070 1.401 . S
C1074 C1073 1.396 . S
C1075 C1070 1.499 . S
C1075 H1076 0.959 . S
C1075 H1077 0.960 . S
C1075 H1078 0.961 . S
H1076 C1075 0.959 . S
H1077 C1075 0.960 . S
H1078 C1075 0.961 . S
O1079 Co1054 1.967 . S
O1079 C1087 1.258 . S
O1080 Co1055 1.941 . S
O1080 C1087 1.266 . S
H1081 C1083 0.959 . S
H1082 C1083 0.961 . S
C1083 C1073 1.510 . S
C1083 H1081 0.959 . S
C1083 H1082 0.961 . S
C1083 H1084 0.960 . S
H1084 C1083 0.960 . S
H1085 N1065 0.862 . S
O1086 Co1054 1.920 . S
O1086 C1059 1.289 . S
C1087 O1079 1.258 . S
C1087 O1080 1.266 . S
H1088 C1100 0.930 . S
H1089 C1102 0.930 . S
H1090 C1103 0.930 . S
H1091 C1107 0.959 . S
H1092 C1107 0.959 . S
H1093 C1107 0.961 . S
H1094 C1108 0.960 . S
H1095 C1108 0.961 . S
H1096 C1108 0.959 . S
H1097 C1111 0.929 . S
H1098 C1112 0.931 . S
H1099 C1114 0.930 . S
C1100 H1088 0.930 . S
C1100 C1101 1.399 . S
C1100 C1105 1.399 . S
C1101 C1100 1.399 . S
C1101 C1102 1.376 . S
C1102 H1089 0.930 . S
C1102 C1101 1.376 . S
C1102 C1103 1.388 . S
C1103 H1090 0.930 . S
C1103 C1102 1.388 . S
C1103 C1104 1.390 . S
C1104 C1103 1.390 . S
C1104 C1105 1.394 . S
C1104 C1110 1.465 . S
C1105 C1100 1.399 . S
C1105 C1104 1.394 . S
C1105 C1106 1.516 . S
C1106 C1105 1.516 . S
C1106 C1107 1.502 . S
C1106 C1108 1.561 . S
C1106 C1109 1.526 . S
C1107 H1091 0.959 . S
C1107 H1092 0.959 . S
C1107 H1093 0.961 . S
C1107 C1106 1.502 . S
C1108 H1094 0.960 . S
C1108 H1095 0.961 . S
C1108 H1096 0.959 . S
C1108 C1106 1.561 . S
C1109 C1106 1.526 . S
C1109 C1110 1.396 . S
C1109 C1114 1.390 . S
C1110 C1104 1.465 . S
C1110 C1109 1.396 . S
C1110 C1111 1.399 . S
C1111 H1097 0.929 . S
C1111 C1110 1.399 . S
C1111 C1112 1.385 . S
C1112 H1098 0.931 . S
C1112 C1111 1.385 . S
C1112 C1113 1.389 . S
C1113 C1112 1.389 . S
C1113 C1114 1.387 . S
C1114 H1099 0.930 . S
C1114 C1109 1.390 . S
C1114 C1113 1.387 . S
H1115 C1127 0.930 . S
H1116 C1129 0.930 . S
H1117 C1130 0.930 . S
H1118 C1134 0.959 . S
H1119 C1134 0.959 . S
H1120 C1134 0.961 . S
H1121 C1135 0.960 . S
H1122 C1135 0.961 . S
H1123 C1135 0.959 . S
H1124 C1138 0.929 . S
H1125 C1139 0.931 . S
H1126 C1141 0.930 . S
C1127 H1115 0.930 . S
C1127 C1128 1.399 . S
C1127 C1132 1.399 . S
C1128 C1127 1.399 . S
C1128 C1129 1.376 . S
C1129 H1116 0.930 . S
C1129 C1128 1.376 . S
C1129 C1130 1.388 . S
C1130 H1117 0.930 . S
C1130 C1129 1.388 . S
C1130 C1131 1.390 . S
C1131 C1130 1.390 . S
C1131 C1132 1.394 . S
C1131 C1137 1.465 . S
C1132 C1127 1.399 . S
C1132 C1131 1.394 . S
C1132 C1133 1.516 . S
C1133 C1132 1.516 . S
C1133 C1134 1.502 . S
C1133 C1135 1.561 . S
C1133 C1136 1.526 . S
C1134 H1118 0.959 . S
C1134 H1119 0.959 . S
C1134 H1120 0.961 . S
C1134 C1133 1.502 . S
C1135 H1121 0.960 . S
C1135 H1122 0.961 . S
C1135 H1123 0.959 . S
C1135 C1133 1.561 . S
C1136 C1133 1.526 . S
C1136 C1137 1.396 . S
C1136 C1141 1.390 . S
C1137 C1131 1.465 . S
C1137 C1136 1.396 . S
C1137 C1138 1.399 . S
C1138 H1124 0.929 . S
C1138 C1137 1.399 . S
C1138 C1139 1.385 . S
C1139 H1125 0.931 . S
C1139 C1138 1.385 . S
C1139 C1140 1.389 . S
C1140 C1139 1.389 . S
C1140 C1141 1.387 . S
C1141 H1126 0.930 . S
C1141 C1136 1.390 . S
C1141 C1140 1.387 . S
H1142 C1154 0.930 . S
H1143 C1156 0.930 . S
H1144 C1157 0.930 . S
H1145 C1161 0.959 . S
H1146 C1161 0.959 . S
H1147 C1161 0.961 . S
H1148 C1162 0.960 . S
H1149 C1162 0.961 . S
H1150 C1162 0.959 . S
H1151 C1165 0.929 . S
H1152 C1166 0.931 . S
H1153 C1168 0.930 . S
C1154 H1142 0.930 . S
C1154 C1155 1.399 . S
C1154 C1159 1.399 . S
C1155 C1154 1.399 . S
C1155 C1156 1.376 . S
C1156 H1143 0.930 . S
C1156 C1155 1.376 . S
C1156 C1157 1.388 . S
C1157 H1144 0.930 . S
C1157 C1156 1.388 . S
C1157 C1158 1.390 . S
C1158 C1157 1.390 . S
C1158 C1159 1.394 . S
C1158 C1164 1.465 . S
C1159 C1154 1.399 . S
C1159 C1158 1.394 . S
C1159 C1160 1.516 . S
C1160 C1159 1.516 . S
C1160 C1161 1.502 . S
C1160 C1162 1.561 . S
C1160 C1163 1.526 . S
C1161 H1145 0.959 . S
C1161 H1146 0.959 . S
C1161 H1147 0.961 . S
C1161 C1160 1.502 . S
C1162 H1148 0.960 . S
C1162 H1149 0.961 . S
C1162 H1150 0.959 . S
C1162 C1160 1.561 . S
C1163 C1160 1.526 . S
C1163 C1164 1.396 . S
C1163 C1168 1.390 . S
C1164 C1158 1.465 . S
C1164 C1163 1.396 . S
C1164 C1165 1.399 . S
C1165 H1151 0.929 . S
C1165 C1164 1.399 . S
C1165 C1166 1.385 . S
C1166 H1152 0.931 . S
C1166 C1165 1.385 . S
C1166 C1167 1.389 . S
C1167 C1166 1.389 . S
C1167 C1168 1.387 . S
C1168 H1153 0.930 . S
C1168 C1163 1.390 . S
C1168 C1167 1.387 . S
H1169 C1181 0.930 . S
H1170 C1183 0.930 . S
H1171 C1184 0.930 . S
H1172 C1188 0.959 . S
H1173 C1188 0.959 . S
H1174 C1188 0.961 . S
H1175 C1189 0.960 . S
H1176 C1189 0.961 . S
H1177 C1189 0.959 . S
H1178 C1192 0.929 . S
H1179 C1193 0.931 . S
H1180 C1195 0.930 . S
C1181 H1169 0.930 . S
C1181 C1182 1.399 . S
C1181 C1186 1.399 . S
C1182 C1181 1.399 . S
C1182 C1183 1.376 . S
C1183 H1170 0.930 . S
C1183 C1182 1.376 . S
C1183 C1184 1.388 . S
C1184 H1171 0.930 . S
C1184 C1183 1.388 . S
C1184 C1185 1.390 . S
C1185 C1184 1.390 . S
C1185 C1186 1.394 . S
C1185 C1191 1.465 . S
C1186 C1181 1.399 . S
C1186 C1185 1.394 . S
C1186 C1187 1.516 . S
C1187 C1186 1.516 . S
C1187 C1188 1.502 . S
C1187 C1189 1.561 . S
C1187 C1190 1.526 . S
C1188 H1172 0.959 . S
C1188 H1173 0.959 . S
C1188 H1174 0.961 . S
C1188 C1187 1.502 . S
C1189 H1175 0.960 . S
C1189 H1176 0.961 . S
C1189 H1177 0.959 . S
C1189 C1187 1.561 . S
C1190 C1187 1.526 . S
C1190 C1191 1.396 . S
C1190 C1195 1.390 . S
C1191 C1185 1.465 . S
C1191 C1190 1.396 . S
C1191 C1192 1.399 . S
C1192 H1178 0.929 . S
C1192 C1191 1.399 . S
C1192 C1193 1.385 . S
C1193 H1179 0.931 . S
C1193 C1192 1.385 . S
C1193 C1194 1.389 . S
C1194 C1193 1.389 . S
C1194 C1195 1.387 . S
C1195 H1180 0.930 . S
C1195 C1190 1.390 . S
C1195 C1194 1.387 . S
H1196 C1208 0.930 . S
H1197 C1210 0.930 . S
H1198 C1211 0.930 . S
H1199 C1215 0.959 . S
H1200 C1215 0.959 . S
H1201 C1215 0.961 . S
H1202 C1216 0.960 . S
H1203 C1216 0.961 . S
H1204 C1216 0.959 . S
H1205 C1219 0.929 . S
H1206 C1220 0.931 . S
H1207 C1222 0.930 . S
C1208 H1196 0.930 . S
C1208 C1209 1.399 . S
C1208 C1213 1.399 . S
C1209 C1208 1.399 . S
C1209 C1210 1.376 . S
C1210 H1197 0.930 . S
C1210 C1209 1.376 . S
C1210 C1211 1.388 . S
C1211 H1198 0.930 . S
C1211 C1210 1.388 . S
C1211 C1212 1.390 . S
C1212 C1211 1.390 . S
C1212 C1213 1.394 . S
C1212 C1218 1.465 . S
C1213 C1208 1.399 . S
C1213 C1212 1.394 . S
C1213 C1214 1.516 . S
C1214 C1213 1.516 . S
C1214 C1215 1.502 . S
C1214 C1216 1.561 . S
C1214 C1217 1.526 . S
C1215 H1199 0.959 . S
C1215 H1200 0.959 . S
C1215 H1201 0.961 . S
C1215 C1214 1.502 . S
C1216 H1202 0.960 . S
C1216 H1203 0.961 . S
C1216 H1204 0.959 . S
C1216 C1214 1.561 . S
C1217 C1214 1.526 . S
C1217 C1218 1.396 . S
C1217 C1222 1.390 . S
C1218 C1212 1.465 . S
C1218 C1217 1.396 . S
C1218 C1219 1.399 . S
C1219 H1205 0.929 . S
C1219 C1218 1.399 . S
C1219 C1220 1.385 . S
C1220 H1206 0.931 . S
C1220 C1219 1.385 . S
C1220 C1221 1.389 . S
C1221 C1220 1.389 . S
C1221 C1222 1.387 . S
C1222 H1207 0.930 . S
C1222 C1217 1.390 . S
C1222 C1221 1.387 . S
H1223 C1235 0.930 . S
H1224 C1237 0.930 . S
H1225 C1238 0.930 . S
H1226 C1242 0.959 . S
H1227 C1242 0.959 . S
H1228 C1242 0.961 . S
H1229 C1243 0.960 . S
H1230 C1243 0.961 . S
H1231 C1243 0.959 . S
H1232 C1246 0.929 . S
H1233 C1247 0.931 . S
H1234 C1249 0.930 . S
C1235 H1223 0.930 . S
C1235 C1236 1.399 . S
C1235 C1240 1.399 . S
C1236 C1235 1.399 . S
C1236 C1237 1.376 . S
C1237 H1224 0.930 . S
C1237 C1236 1.376 . S
C1237 C1238 1.388 . S
C1238 H1225 0.930 . S
C1238 C1237 1.388 . S
C1238 C1239 1.390 . S
C1239 C1238 1.390 . S
C1239 C1240 1.394 . S
C1239 C1245 1.465 . S
C1240 C1235 1.399 . S
C1240 C1239 1.394 . S
C1240 C1241 1.516 . S
C1241 C1240 1.516 . S
C1241 C1242 1.502 . S
C1241 C1243 1.561 . S
C1241 C1244 1.526 . S
C1242 H1226 0.959 . S
C1242 H1227 0.959 . S
C1242 H1228 0.961 . S
C1242 C1241 1.502 . S
C1243 H1229 0.960 . S
C1243 H1230 0.961 . S
C1243 H1231 0.959 . S
C1243 C1241 1.561 . S
C1244 C1241 1.526 . S
C1244 C1245 1.396 . S
C1244 C1249 1.390 . S
C1245 C1239 1.465 . S
C1245 C1244 1.396 . S
C1245 C1246 1.399 . S
C1246 H1232 0.929 . S
C1246 C1245 1.399 . S
C1246 C1247 1.385 . S
C1247 H1233 0.931 . S
C1247 C1246 1.385 . S
C1247 C1248 1.389 . S
C1248 C1247 1.389 . S
C1248 C1249 1.387 . S
C1249 H1234 0.930 . S
C1249 C1244 1.390 . S
C1249 C1248 1.387 . S
H1250 C1262 0.930 . S
H1251 C1264 0.930 . S
H1252 C1265 0.930 . S
H1253 C1269 0.959 . S
H1254 C1269 0.959 . S
H1255 C1269 0.961 . S
H1256 C1270 0.960 . S
H1257 C1270 0.961 . S
H1258 C1270 0.959 . S
H1259 C1273 0.929 . S
H1260 C1274 0.931 . S
H1261 C1276 0.930 . S
C1262 H1250 0.930 . S
C1262 C1263 1.399 . S
C1262 C1267 1.399 . S
C1263 C1262 1.399 . S
C1263 C1264 1.376 . S
C1264 H1251 0.930 . S
C1264 C1263 1.376 . S
C1264 C1265 1.388 . S
C1265 H1252 0.930 . S
C1265 C1264 1.388 . S
C1265 C1266 1.390 . S
C1266 C1265 1.390 . S
C1266 C1267 1.394 . S
C1266 C1272 1.465 . S
C1267 C1262 1.399 . S
C1267 C1266 1.394 . S
C1267 C1268 1.516 . S
C1268 C1267 1.516 . S
C1268 C1269 1.502 . S
C1268 C1270 1.561 . S
C1268 C1271 1.526 . S
C1269 H1253 0.959 . S
C1269 H1254 0.959 . S
C1269 H1255 0.961 . S
C1269 C1268 1.502 . S
C1270 H1256 0.960 . S
C1270 H1257 0.961 . S
C1270 H1258 0.959 . S
C1270 C1268 1.561 . S
C1271 C1268 1.526 . S
C1271 C1272 1.396 . S
C1271 C1276 1.390 . S
C1272 C1266 1.465 . S
C1272 C1271 1.396 . S
C1272 C1273 1.399 . S
C1273 H1259 0.929 . S
C1273 C1272 1.399 . S
C1273 C1274 1.385 . S
C1274 H1260 0.931 . S
C1274 C1273 1.385 . S
C1274 C1275 1.389 . S
C1275 C1274 1.389 . S
C1275 C1276 1.387 . S
C1276 H1261 0.930 . S
C1276 C1271 1.390 . S
C1276 C1275 1.387 . S
H1277 C1289 0.930 . S
H1278 C1291 0.930 . S
H1279 C1292 0.930 . S
H1280 C1296 0.959 . S
H1281 C1296 0.959 . S
H1282 C1296 0.961 . S
H1283 C1297 0.960 . S
H1284 C1297 0.961 . S
H1285 C1297 0.959 . S
H1286 C1300 0.929 . S
H1287 C1301 0.931 . S
H1288 C1303 0.930 . S
C1289 H1277 0.930 . S
C1289 C1290 1.399 . S
C1289 C1294 1.399 . S
C1290 C1289 1.399 . S
C1290 C1291 1.376 . S
C1291 H1278 0.930 . S
C1291 C1290 1.376 . S
C1291 C1292 1.388 . S
C1292 H1279 0.930 . S
C1292 C1291 1.388 . S
C1292 C1293 1.390 . S
C1293 C1292 1.390 . S
C1293 C1294 1.394 . S
C1293 C1299 1.465 . S
C1294 C1289 1.399 . S
C1294 C1293 1.394 . S
C1294 C1295 1.516 . S
C1295 C1294 1.516 . S
C1295 C1296 1.502 . S
C1295 C1297 1.561 . S
C1295 C1298 1.526 . S
C1296 H1280 0.959 . S
C1296 H1281 0.959 . S
C1296 H1282 0.961 . S
C1296 C1295 1.502 . S
C1297 H1283 0.960 . S
C1297 H1284 0.961 . S
C1297 H1285 0.959 . S
C1297 C1295 1.561 . S
C1298 C1295 1.526 . S
C1298 C1299 1.396 . S
C1298 C1303 1.390 . S
C1299 C1293 1.465 . S
C1299 C1298 1.396 . S
C1299 C1300 1.399 . S
C1300 H1286 0.929 . S
C1300 C1299 1.399 . S
C1300 C1301 1.385 . S
C1301 H1287 0.931 . S
C1301 C1300 1.385 . S
C1301 C1302 1.389 . S
C1302 C1301 1.389 . S
C1302 C1303 1.387 . S
C1303 H1288 0.930 . S
C1303 C1298 1.390 . S
C1303 C1302 1.387 . S
H1304 C1316 0.930 . S
H1305 C1318 0.930 . S
H1306 C1319 0.930 . S
H1307 C1323 0.959 . S
H1308 C1323 0.959 . S
H1309 C1323 0.961 . S
H1310 C1324 0.960 . S
H1311 C1324 0.961 . S
H1312 C1324 0.959 . S
H1313 C1327 0.929 . S
H1314 C1328 0.931 . S
H1315 C1330 0.930 . S
C1316 H1304 0.930 . S
C1316 C1317 1.399 . S
C1316 C1321 1.399 . S
C1317 C1316 1.399 . S
C1317 C1318 1.376 . S
C1318 H1305 0.930 . S
C1318 C1317 1.376 . S
C1318 C1319 1.388 . S
C1319 H1306 0.930 . S
C1319 C1318 1.388 . S
C1319 C1320 1.390 . S
C1320 C1319 1.390 . S
C1320 C1321 1.394 . S
C1320 C1326 1.465 . S
C1321 C1316 1.399 . S
C1321 C1320 1.394 . S
C1321 C1322 1.516 . S
C1322 C1321 1.516 . S
C1322 C1323 1.502 . S
C1322 C1324 1.561 . S
C1322 C1325 1.526 . S
C1323 H1307 0.959 . S
C1323 H1308 0.959 . S
C1323 H1309 0.961 . S
C1323 C1322 1.502 . S
C1324 H1310 0.960 . S
C1324 H1311 0.961 . S
C1324 H1312 0.959 . S
C1324 C1322 1.561 . S
C1325 C1322 1.526 . S
C1325 C1326 1.396 . S
C1325 C1330 1.390 . S
C1326 C1320 1.465 . S
C1326 C1325 1.396 . S
C1326 C1327 1.399 . S
C1327 H1313 0.929 . S
C1327 C1326 1.399 . S
C1327 C1328 1.385 . S
C1328 H1314 0.931 . S
C1328 C1327 1.385 . S
C1328 C1329 1.389 . S
C1329 C1328 1.389 . S
C1329 C1330 1.387 . S
C1330 H1315 0.930 . S
C1330 C1325 1.390 . S
C1330 C1329 1.387 . S
H1331 C1343 0.930 . S
H1332 C1345 0.930 . S
H1333 C1346 0.930 . S
H1334 C1350 0.959 . S
H1335 C1350 0.959 . S
H1336 C1350 0.961 . S
H1337 C1351 0.960 . S
H1338 C1351 0.961 . S
H1339 C1351 0.959 . S
H1340 C1354 0.929 . S
H1341 C1355 0.931 . S
H1342 C1357 0.930 . S
C1343 H1331 0.930 . S
C1343 C1344 1.399 . S
C1343 C1348 1.399 . S
C1344 C1343 1.399 . S
C1344 C1345 1.376 . S
C1345 H1332 0.930 . S
C1345 C1344 1.376 . S
C1345 C1346 1.388 . S
C1346 H1333 0.930 . S
C1346 C1345 1.388 . S
C1346 C1347 1.390 . S
C1347 C1346 1.390 . S
C1347 C1348 1.394 . S
C1347 C1353 1.465 . S
C1348 C1343 1.399 . S
C1348 C1347 1.394 . S
C1348 C1349 1.516 . S
C1349 C1348 1.516 . S
C1349 C1350 1.502 . S
C1349 C1351 1.561 . S
C1349 C1352 1.526 . S
C1350 H1334 0.959 . S
C1350 H1335 0.959 . S
C1350 H1336 0.961 . S
C1350 C1349 1.502 . S
C1351 H1337 0.960 . S
C1351 H1338 0.961 . S
C1351 H1339 0.959 . S
C1351 C1349 1.561 . S
C1352 C1349 1.526 . S
C1352 C1353 1.396 . S
C1352 C1357 1.390 . S
C1353 C1347 1.465 . S
C1353 C1352 1.396 . S
C1353 C1354 1.399 . S
C1354 H1340 0.929 . S
C1354 C1353 1.399 . S
C1354 C1355 1.385 . S
C1355 H1341 0.931 . S
C1355 C1354 1.385 . S
C1355 C1356 1.389 . S
C1356 C1355 1.389 . S
C1356 C1357 1.387 . S
C1357 H1342 0.930 . S
C1357 C1352 1.390 . S
C1357 C1356 1.387 . S
H1358 C1370 0.930 . S
H1359 C1372 0.930 . S
H1360 C1373 0.930 . S
H1361 C1377 0.959 . S
H1362 C1377 0.959 . S
H1363 C1377 0.961 . S
H1364 C1378 0.960 . S
H1365 C1378 0.961 . S
H1366 C1378 0.959 . S
H1367 C1381 0.929 . S
H1368 C1382 0.931 . S
H1369 C1384 0.930 . S
C1370 H1358 0.930 . S
C1370 C1371 1.399 . S
C1370 C1375 1.399 . S
C1371 C1370 1.399 . S
C1371 C1372 1.376 . S
C1372 H1359 0.930 . S
C1372 C1371 1.376 . S
C1372 C1373 1.388 . S
C1373 H1360 0.930 . S
C1373 C1372 1.388 . S
C1373 C1374 1.390 . S
C1374 C1373 1.390 . S
C1374 C1375 1.394 . S
C1374 C1380 1.465 . S
C1375 C1370 1.399 . S
C1375 C1374 1.394 . S
C1375 C1376 1.516 . S
C1376 C1375 1.516 . S
C1376 C1377 1.502 . S
C1376 C1378 1.561 . S
C1376 C1379 1.526 . S
C1377 H1361 0.959 . S
C1377 H1362 0.959 . S
C1377 H1363 0.961 . S
C1377 C1376 1.502 . S
C1378 H1364 0.960 . S
C1378 H1365 0.961 . S
C1378 H1366 0.959 . S
C1378 C1376 1.561 . S
C1379 C1376 1.526 . S
C1379 C1380 1.396 . S
C1379 C1384 1.390 . S
C1380 C1374 1.465 . S
C1380 C1379 1.396 . S
C1380 C1381 1.399 . S
C1381 H1367 0.929 . S
C1381 C1380 1.399 . S
C1381 C1382 1.385 . S
C1382 H1368 0.931 . S
C1382 C1381 1.385 . S
C1382 C1383 1.389 . S
C1383 C1382 1.389 . S
C1383 C1384 1.387 . S
C1384 H1369 0.930 . S
C1384 C1379 1.390 . S
C1384 C1383 1.387 . S
H1385 C1397 0.930 . S
H1386 C1399 0.930 . S
H1387 C1400 0.930 . S
H1388 C1404 0.959 . S
H1389 C1404 0.959 . S
H1390 C1404 0.961 . S
H1391 C1405 0.960 . S
H1392 C1405 0.961 . S
H1393 C1405 0.959 . S
H1394 C1408 0.929 . S
H1395 C1409 0.931 . S
H1396 C1411 0.930 . S
C1397 H1385 0.930 . S
C1397 C1398 1.399 . S
C1397 C1402 1.399 . S
C1398 C1397 1.399 . S
C1398 C1399 1.376 . S
C1399 H1386 0.930 . S
C1399 C1398 1.376 . S
C1399 C1400 1.388 . S
C1400 H1387 0.930 . S
C1400 C1399 1.388 . S
C1400 C1401 1.390 . S
C1401 C1400 1.390 . S
C1401 C1402 1.394 . S
C1401 C1407 1.465 . S
C1402 C1397 1.399 . S
C1402 C1401 1.394 . S
C1402 C1403 1.516 . S
C1403 C1402 1.516 . S
C1403 C1404 1.502 . S
C1403 C1405 1.561 . S
C1403 C1406 1.526 . S
C1404 H1388 0.959 . S
C1404 H1389 0.959 . S
C1404 H1390 0.961 . S
C1404 C1403 1.502 . S
C1405 H1391 0.960 . S
C1405 H1392 0.961 . S
C1405 H1393 0.959 . S
C1405 C1403 1.561 . S
C1406 C1403 1.526 . S
C1406 C1407 1.396 . S
C1406 C1411 1.390 . S
C1407 C1401 1.465 . S
C1407 C1406 1.396 . S
C1407 C1408 1.399 . S
C1408 H1394 0.929 . S
C1408 C1407 1.399 . S
C1408 C1409 1.385 . S
C1409 H1395 0.931 . S
C1409 C1408 1.385 . S
C1409 C1410 1.389 . S
C1410 C1409 1.389 . S
C1410 C1411 1.387 . S
C1411 H1396 0.930 . S
C1411 C1406 1.390 . S
C1411 C1410 1.387 . S
H1412 C1424 0.930 . S
H1413 C1426 0.930 . S
H1414 C1427 0.930 . S
H1415 C1431 0.959 . S
H1416 C1431 0.959 . S
H1417 C1431 0.961 . S
H1418 C1432 0.960 . S
H1419 C1432 0.961 . S
H1420 C1432 0.959 . S
H1421 C1435 0.929 . S
H1422 C1436 0.931 . S
H1423 C1438 0.930 . S
C1424 H1412 0.930 . S
C1424 C1425 1.399 . S
C1424 C1429 1.399 . S
C1425 C1424 1.399 . S
C1425 C1426 1.376 . S
C1426 H1413 0.930 . S
C1426 C1425 1.376 . S
C1426 C1427 1.388 . S
C1427 H1414 0.930 . S
C1427 C1426 1.388 . S
C1427 C1428 1.390 . S
C1428 C1427 1.390 . S
C1428 C1429 1.394 . S
C1428 C1434 1.465 . S
C1429 C1424 1.399 . S
C1429 C1428 1.394 . S
C1429 C1430 1.516 . S
C1430 C1429 1.516 . S
C1430 C1431 1.502 . S
C1430 C1432 1.561 . S
C1430 C1433 1.526 . S
C1431 H1415 0.959 . S
C1431 H1416 0.959 . S
C1431 H1417 0.961 . S
C1431 C1430 1.502 . S
C1432 H1418 0.960 . S
C1432 H1419 0.961 . S
C1432 H1420 0.959 . S
C1432 C1430 1.561 . S
C1433 C1430 1.526 . S
C1433 C1434 1.396 . S
C1433 C1438 1.390 . S
C1434 C1428 1.465 . S
C1434 C1433 1.396 . S
C1434 C1435 1.399 . S
C1435 H1421 0.929 . S
C1435 C1434 1.399 . S
C1435 C1436 1.385 . S
C1436 H1422 0.931 . S
C1436 C1435 1.385 . S
C1436 C1437 1.389 . S
C1437 C1436 1.389 . S
C1437 C1438 1.387 . S
C1438 H1423 0.930 . S
C1438 C1433 1.390 . S
C1438 C1437 1.387 . S
H1439 C1451 0.930 . S
H1440 C1453 0.930 . S
H1441 C1454 0.930 . S
H1442 C1458 0.959 . S
H1443 C1458 0.959 . S
H1444 C1458 0.961 . S
H1445 C1459 0.960 . S
H1446 C1459 0.961 . S
H1447 C1459 0.959 . S
H1448 C1462 0.929 . S
H1449 C1463 0.931 . S
H1450 C1465 0.930 . S
C1451 H1439 0.930 . S
C1451 C1452 1.399 . S
C1451 C1456 1.399 . S
C1452 C1451 1.399 . S
C1452 C1453 1.376 . S
C1453 H1440 0.930 . S
C1453 C1452 1.376 . S
C1453 C1454 1.388 . S
C1454 H1441 0.930 . S
C1454 C1453 1.388 . S
C1454 C1455 1.390 . S
C1455 C1454 1.390 . S
C1455 C1456 1.394 . S
C1455 C1461 1.465 . S
C1456 C1451 1.399 . S
C1456 C1455 1.394 . S
C1456 C1457 1.516 . S
C1457 C1456 1.516 . S
C1457 C1458 1.502 . S
C1457 C1459 1.561 . S
C1457 C1460 1.526 . S
C1458 H1442 0.959 . S
C1458 H1443 0.959 . S
C1458 H1444 0.961 . S
C1458 C1457 1.502 . S
C1459 H1445 0.960 . S
C1459 H1446 0.961 . S
C1459 H1447 0.959 . S
C1459 C1457 1.561 . S
C1460 C1457 1.526 . S
C1460 C1461 1.396 . S
C1460 C1465 1.390 . S
C1461 C1455 1.465 . S
C1461 C1460 1.396 . S
C1461 C1462 1.399 . S
C1462 H1448 0.929 . S
C1462 C1461 1.399 . S
C1462 C1463 1.385 . S
C1463 H1449 0.931 . S
C1463 C1462 1.385 . S
C1463 C1464 1.389 . S
C1464 C1463 1.389 . S
C1464 C1465 1.387 . S
C1465 H1450 0.930 . S
C1465 C1460 1.390 . S
C1465 C1464 1.387 . S
H1466 C1478 0.930 . S
H1467 C1480 0.930 . S
H1468 C1481 0.930 . S
H1469 C1485 0.959 . S
H1470 C1485 0.959 . S
H1471 C1485 0.961 . S
H1472 C1486 0.960 . S
H1473 C1486 0.961 . S
H1474 C1486 0.959 . S
H1475 C1489 0.929 . S
H1476 C1490 0.931 . S
H1477 C1492 0.930 . S
C1478 H1466 0.930 . S
C1478 C1479 1.399 . S
C1478 C1483 1.399 . S
C1479 C1478 1.399 . S
C1479 C1480 1.376 . S
C1480 H1467 0.930 . S
C1480 C1479 1.376 . S
C1480 C1481 1.388 . S
C1481 H1468 0.930 . S
C1481 C1480 1.388 . S
C1481 C1482 1.390 . S
C1482 C1481 1.390 . S
C1482 C1483 1.394 . S
C1482 C1488 1.465 . S
C1483 C1478 1.399 . S
C1483 C1482 1.394 . S
C1483 C1484 1.516 . S
C1484 C1483 1.516 . S
C1484 C1485 1.502 . S
C1484 C1486 1.561 . S
C1484 C1487 1.526 . S
C1485 H1469 0.959 . S
C1485 H1470 0.959 . S
C1485 H1471 0.961 . S
C1485 C1484 1.502 . S
C1486 H1472 0.960 . S
C1486 H1473 0.961 . S
C1486 H1474 0.959 . S
C1486 C1484 1.561 . S
C1487 C1484 1.526 . S
C1487 C1488 1.396 . S
C1487 C1492 1.390 . S
C1488 C1482 1.465 . S
C1488 C1487 1.396 . S
C1488 C1489 1.399 . S
C1489 H1475 0.929 . S
C1489 C1488 1.399 . S
C1489 C1490 1.385 . S
C1490 H1476 0.931 . S
C1490 C1489 1.385 . S
C1490 C1491 1.389 . S
C1491 C1490 1.389 . S
C1491 C1492 1.387 . S
C1492 H1477 0.930 . S
C1492 C1487 1.390 . S
C1492 C1491 1.387 . S
H1493 C1505 0.930 . S
H1494 C1507 0.930 . S
H1495 C1508 0.930 . S
H1496 C1512 0.959 . S
H1497 C1512 0.959 . S
H1498 C1512 0.961 . S
H1499 C1513 0.960 . S
H1500 C1513 0.961 . S
H1501 C1513 0.959 . S
H1502 C1516 0.929 . S
H1503 C1517 0.931 . S
H1504 C1519 0.930 . S
C1505 H1493 0.930 . S
C1505 C1506 1.399 . S
C1505 C1510 1.399 . S
C1506 C1505 1.399 . S
C1506 C1507 1.376 . S
C1507 H1494 0.930 . S
C1507 C1506 1.376 . S
C1507 C1508 1.388 . S
C1508 H1495 0.930 . S
C1508 C1507 1.388 . S
C1508 C1509 1.390 . S
C1509 C1508 1.390 . S
C1509 C1510 1.394 . S
C1509 C1515 1.465 . S
C1510 C1505 1.399 . S
C1510 C1509 1.394 . S
C1510 C1511 1.516 . S
C1511 C1510 1.516 . S
C1511 C1512 1.502 . S
C1511 C1513 1.561 . S
C1511 C1514 1.526 . S
C1512 H1496 0.959 . S
C1512 H1497 0.959 . S
C1512 H1498 0.961 . S
C1512 C1511 1.502 . S
C1513 H1499 0.960 . S
C1513 H1500 0.961 . S
C1513 H1501 0.959 . S
C1513 C1511 1.561 . S
C1514 C1511 1.526 . S
C1514 C1515 1.396 . S
C1514 C1519 1.390 . S
C1515 C1509 1.465 . S
C1515 C1514 1.396 . S
C1515 C1516 1.399 . S
C1516 H1502 0.929 . S
C1516 C1515 1.399 . S
C1516 C1517 1.385 . S
C1517 H1503 0.931 . S
C1517 C1516 1.385 . S
C1517 C1518 1.389 . S
C1518 C1517 1.389 . S
C1518 C1519 1.387 . S
C1519 H1504 0.930 . S
C1519 C1514 1.390 . S
C1519 C1518 1.387 . S
H1520 C1532 0.930 . S
H1521 C1534 0.930 . S
H1522 C1535 0.930 . S
H1523 C1539 0.959 . S
H1524 C1539 0.959 . S
H1525 C1539 0.961 . S
H1526 C1540 0.960 . S
H1527 C1540 0.961 . S
H1528 C1540 0.959 . S
H1529 C1543 0.929 . S
H1530 C1544 0.931 . S
H1531 C1546 0.930 . S
C1532 H1520 0.930 . S
C1532 C1533 1.399 . S
C1532 C1537 1.399 . S
C1533 C1532 1.399 . S
C1533 C1534 1.376 . S
C1534 H1521 0.930 . S
C1534 C1533 1.376 . S
C1534 C1535 1.388 . S
C1535 H1522 0.930 . S
C1535 C1534 1.388 . S
C1535 C1536 1.390 . S
C1536 C1535 1.390 . S
C1536 C1537 1.394 . S
C1536 C1542 1.465 1_565 S
C1537 C1532 1.399 . S
C1537 C1536 1.394 . S
C1537 C1538 1.516 1_565 S
C1538 C1537 1.516 1_545 S
C1538 C1539 1.502 . S
C1538 C1540 1.561 . S
C1538 C1541 1.526 . S
C1539 H1523 0.959 . S
C1539 H1524 0.959 . S
C1539 H1525 0.961 . S
C1539 C1538 1.502 . S
C1540 H1526 0.960 . S
C1540 H1527 0.961 . S
C1540 H1528 0.959 . S
C1540 C1538 1.561 . S
C1541 C1538 1.526 . S
C1541 C1542 1.396 . S
C1541 C1546 1.390 . S
C1542 C1536 1.465 1_545 S
C1542 C1541 1.396 . S
C1542 C1543 1.399 . S
C1543 H1529 0.929 . S
C1543 C1542 1.399 . S
C1543 C1544 1.385 . S
C1544 H1530 0.931 . S
C1544 C1543 1.385 . S
C1544 C1545 1.389 . S
C1545 C1544 1.389 . S
C1545 C1546 1.387 . S
C1546 H1531 0.930 . S
C1546 C1541 1.390 . S
C1546 C1545 1.387 . S
H1547 C1559 0.930 . S
H1548 C1561 0.930 . S
H1549 C1562 0.930 . S
H1550 C1566 0.959 . S
H1551 C1566 0.959 . S
H1552 C1566 0.961 . S
H1553 C1567 0.960 . S
H1554 C1567 0.961 . S
H1555 C1567 0.959 . S
H1556 C1570 0.929 . S
H1557 C1571 0.931 . S
H1558 C1573 0.930 . S
C1559 H1547 0.930 . S
C1559 C1560 1.399 . S
C1559 C1564 1.399 . S
C1560 C1559 1.399 . S
C1560 C1561 1.376 . S
C1561 H1548 0.930 . S
C1561 C1560 1.376 . S
C1561 C1562 1.388 . S
C1562 H1549 0.930 . S
C1562 C1561 1.388 . S
C1562 C1563 1.390 . S
C1563 C1562 1.390 . S
C1563 C1564 1.394 . S
C1563 C1569 1.465 . S
C1564 C1559 1.399 . S
C1564 C1563 1.394 . S
C1564 C1565 1.516 . S
C1565 C1564 1.516 . S
C1565 C1566 1.502 . S
C1565 C1567 1.561 . S
C1565 C1568 1.526 . S
C1566 H1550 0.959 . S
C1566 H1551 0.959 . S
C1566 H1552 0.961 . S
C1566 C1565 1.502 . S
C1567 H1553 0.960 . S
C1567 H1554 0.961 . S
C1567 H1555 0.959 . S
C1567 C1565 1.561 . S
C1568 C1565 1.526 . S
C1568 C1569 1.396 . S
C1568 C1573 1.390 . S
C1569 C1563 1.465 . S
C1569 C1568 1.396 . S
C1569 C1570 1.399 . S
C1570 H1556 0.929 . S
C1570 C1569 1.399 . S
C1570 C1571 1.385 . S
C1571 H1557 0.931 . S
C1571 C1570 1.385 . S
C1571 C1572 1.389 . S
C1572 C1571 1.389 . S
C1572 C1573 1.387 . S
C1573 H1558 0.930 . S
C1573 C1568 1.390 . S
C1573 C1572 1.387 . S
H1574 C1586 0.930 . S
H1575 C1588 0.930 . S
H1576 C1589 0.930 . S
H1577 C1593 0.959 . S
H1578 C1593 0.959 . S
H1579 C1593 0.961 . S
H1580 C1594 0.960 . S
H1581 C1594 0.961 . S
H1582 C1594 0.959 . S
H1583 C1597 0.929 . S
H1584 C1598 0.931 . S
H1585 C1600 0.930 . S
C1586 H1574 0.930 . S
C1586 C1587 1.399 . S
C1586 C1591 1.399 . S
C1587 C1586 1.399 . S
C1587 C1588 1.376 . S
C1588 H1575 0.930 . S
C1588 C1587 1.376 . S
C1588 C1589 1.388 . S
C1589 H1576 0.930 . S
C1589 C1588 1.388 . S
C1589 C1590 1.390 . S
C1590 C1589 1.390 . S
C1590 C1591 1.394 . S
C1590 C1596 1.465 1_545 S
C1591 C1586 1.399 . S
C1591 C1590 1.394 . S
C1591 C1592 1.516 1_545 S
C1592 C1591 1.516 1_565 S
C1592 C1593 1.502 . S
C1592 C1594 1.561 . S
C1592 C1595 1.526 . S
C1593 H1577 0.959 . S
C1593 H1578 0.959 . S
C1593 H1579 0.961 . S
C1593 C1592 1.502 . S
C1594 H1580 0.960 . S
C1594 H1581 0.961 . S
C1594 H1582 0.959 . S
C1594 C1592 1.561 . S
C1595 C1592 1.526 . S
C1595 C1596 1.396 . S
C1595 C1600 1.390 . S
C1596 C1590 1.465 1_565 S
C1596 C1595 1.396 . S
C1596 C1597 1.399 . S
C1597 H1583 0.929 . S
C1597 C1596 1.399 . S
C1597 C1598 1.385 . S
C1598 H1584 0.931 . S
C1598 C1597 1.385 . S
C1598 C1599 1.389 . S
C1599 C1598 1.389 . S
C1599 C1600 1.387 . S
C1600 H1585 0.930 . S
C1600 C1595 1.390 . S
C1600 C1599 1.387 . S
H1601 C1613 0.930 . S
H1602 C1615 0.930 . S
H1603 C1616 0.930 . S
H1604 C1620 0.959 . S
H1605 C1620 0.959 . S
H1606 C1620 0.961 . S
H1607 C1621 0.960 . S
H1608 C1621 0.961 . S
H1609 C1621 0.959 . S
H1610 C1624 0.929 . S
H1611 C1625 0.931 . S
H1612 C1627 0.930 . S
C1613 H1601 0.930 . S
C1613 C1614 1.399 . S
C1613 C1618 1.399 . S
C1614 C1613 1.399 . S
C1614 C1615 1.376 . S
C1615 H1602 0.930 . S
C1615 C1614 1.376 . S
C1615 C1616 1.388 . S
C1616 H1603 0.930 . S
C1616 C1615 1.388 . S
C1616 C1617 1.390 . S
C1617 C1616 1.390 . S
C1617 C1618 1.394 . S
C1617 C1623 1.465 . S
C1618 C1613 1.399 . S
C1618 C1617 1.394 . S
C1618 C1619 1.516 1_554 S
C1619 C1618 1.516 1_556 S
C1619 C1620 1.502 . S
C1619 C1621 1.561 1_556 S
C1619 C1622 1.526 . S
C1620 H1604 0.959 . S
C1620 H1605 0.959 . S
C1620 H1606 0.961 . S
C1620 C1619 1.502 . S
C1621 H1607 0.960 . S
C1621 H1608 0.961 . S
C1621 H1609 0.959 . S
C1621 C1619 1.561 1_554 S
C1622 C1619 1.526 . S
C1622 C1623 1.396 1_556 S
C1622 C1627 1.390 . S
C1623 C1617 1.465 . S
C1623 C1622 1.396 1_554 S
C1623 C1624 1.399 . S
C1624 H1610 0.929 . S
C1624 C1623 1.399 . S
C1624 C1625 1.385 1_554 S
C1625 H1611 0.931 . S
C1625 C1624 1.385 1_556 S
C1625 C1626 1.389 . S
C1626 C1625 1.389 . S
C1626 C1627 1.387 . S
C1627 H1612 0.930 . S
C1627 C1622 1.390 . S
C1627 C1626 1.387 . S
H1628 C1640 0.930 . S
H1629 C1642 0.930 . S
H1630 C1643 0.930 . S
H1631 C1647 0.959 . S
H1632 C1647 0.959 . S
H1633 C1647 0.961 . S
H1634 C1648 0.960 . S
H1635 C1648 0.961 . S
H1636 C1648 0.959 . S
H1637 C1651 0.929 . S
H1638 C1652 0.931 . S
H1639 C1654 0.930 . S
C1640 H1628 0.930 . S
C1640 C1641 1.399 . S
C1640 C1645 1.399 . S
C1641 C1640 1.399 . S
C1641 C1642 1.376 . S
C1642 H1629 0.930 . S
C1642 C1641 1.376 . S
C1642 C1643 1.388 . S
C1643 H1630 0.930 . S
C1643 C1642 1.388 . S
C1643 C1644 1.390 . S
C1644 C1643 1.390 . S
C1644 C1645 1.394 . S
C1644 C1650 1.465 1_545 S
C1645 C1640 1.399 . S
C1645 C1644 1.394 . S
C1645 C1646 1.516 1_545 S
C1646 C1645 1.516 1_565 S
C1646 C1647 1.502 . S
C1646 C1648 1.561 . S
C1646 C1649 1.526 . S
C1647 H1631 0.959 . S
C1647 H1632 0.959 . S
C1647 H1633 0.961 . S
C1647 C1646 1.502 . S
C1648 H1634 0.960 . S
C1648 H1635 0.961 . S
C1648 H1636 0.959 . S
C1648 C1646 1.561 . S
C1649 C1646 1.526 . S
C1649 C1650 1.396 . S
C1649 C1654 1.390 . S
C1650 C1644 1.465 1_565 S
C1650 C1649 1.396 . S
C1650 C1651 1.399 . S
C1651 H1637 0.929 . S
C1651 C1650 1.399 . S
C1651 C1652 1.385 . S
C1652 H1638 0.931 . S
C1652 C1651 1.385 . S
C1652 C1653 1.389 . S
C1653 C1652 1.389 . S
C1653 C1654 1.387 . S
C1654 H1639 0.930 . S
C1654 C1649 1.390 . S
C1654 C1653 1.387 . S
H1655 C1667 0.930 . S
H1656 C1669 0.930 . S
H1657 C1670 0.930 . S
H1658 C1674 0.959 . S
H1659 C1674 0.959 . S
H1660 C1674 0.961 . S
H1661 C1675 0.960 . S
H1662 C1675 0.961 . S
H1663 C1675 0.959 . S
H1664 C1678 0.929 . S
H1665 C1679 0.931 . S
H1666 C1681 0.930 . S
C1667 H1655 0.930 . S
C1667 C1668 1.399 . S
C1667 C1672 1.399 . S
C1668 C1667 1.399 . S
C1668 C1669 1.376 . S
C1669 H1656 0.930 . S
C1669 C1668 1.376 . S
C1669 C1670 1.388 . S
C1670 H1657 0.930 . S
C1670 C1669 1.388 . S
C1670 C1671 1.390 . S
C1671 C1670 1.390 . S
C1671 C1672 1.394 . S
C1671 C1677 1.465 . S
C1672 C1667 1.399 . S
C1672 C1671 1.394 . S
C1672 C1673 1.516 . S
C1673 C1672 1.516 . S
C1673 C1674 1.502 . S
C1673 C1675 1.561 . S
C1673 C1676 1.526 . S
C1674 H1658 0.959 . S
C1674 H1659 0.959 . S
C1674 H1660 0.961 . S
C1674 C1673 1.502 . S
C1675 H1661 0.960 . S
C1675 H1662 0.961 . S
C1675 H1663 0.959 . S
C1675 C1673 1.561 . S
C1676 C1673 1.526 . S
C1676 C1677 1.396 . S
C1676 C1681 1.390 . S
C1677 C1671 1.465 . S
C1677 C1676 1.396 . S
C1677 C1678 1.399 . S
C1678 H1664 0.929 . S
C1678 C1677 1.399 . S
C1678 C1679 1.385 . S
C1679 H1665 0.931 . S
C1679 C1678 1.385 . S
C1679 C1680 1.389 . S
C1680 C1679 1.389 . S
C1680 C1681 1.387 . S
C1681 H1666 0.930 . S
C1681 C1676 1.390 . S
C1681 C1680 1.387 . S
H1682 C1694 0.930 . S
H1683 C1696 0.930 . S
H1684 C1697 0.930 . S
H1685 C1701 0.975 . S
H1686 C1701 0.959 1_565 S
H1687 C1701 0.961 . S
H1688 C1702 0.960 . S
H1689 C1702 0.961 . S
H1690 C1702 0.959 . S
H1691 C1705 0.929 . S
H1692 C1706 0.931 . S
H1693 C1708 0.930 . S
C1694 H1682 0.930 . S
C1694 C1695 1.399 . S
C1694 C1699 1.399 . S
C1695 C1694 1.399 . S
C1695 C1696 1.376 . S
C1696 H1683 0.930 . S
C1696 C1695 1.376 . S
C1696 C1697 1.388 . S
C1697 H1684 0.930 . S
C1697 C1696 1.388 . S
C1697 C1698 1.390 . S
C1698 C1697 1.390 . S
C1698 C1699 1.394 . S
C1698 C1704 1.465 1_545 S
C1699 C1694 1.399 . S
C1699 C1698 1.394 . S
C1699 C1700 1.516 . S
C1700 C1699 1.516 . S
C1700 C1701 1.502 . S
C1700 C1702 1.561 . S
C1700 C1703 1.526 1_545 S
C1701 H1685 0.975 . S
C1701 H1686 0.959 1_545 S
C1701 H1687 0.961 . S
C1701 C1700 1.502 . S
C1702 H1688 0.960 . S
C1702 H1689 0.961 . S
C1702 H1690 0.959 . S
C1702 C1700 1.561 . S
C1703 C1700 1.526 1_565 S
C1703 C1704 1.396 . S
C1703 C1708 1.390 . S
C1704 C1698 1.465 1_565 S
C1704 C1703 1.396 . S
C1704 C1705 1.399 . S
C1705 H1691 0.929 . S
C1705 C1704 1.399 . S
C1705 C1706 1.385 . S
C1706 H1692 0.931 . S
C1706 C1705 1.385 . S
C1706 C1707 1.389 . S
C1707 C1706 1.389 . S
C1707 C1708 1.387 . S
C1708 H1693 0.930 . S
C1708 C1703 1.390 . S
C1708 C1707 1.387 . S
H1709 C1721 0.930 . S
H1710 C1723 0.930 . S
H1711 C1724 0.930 1_556 S
H1712 C1728 0.959 . S
H1713 C1728 0.959 . S
H1714 C1728 0.961 . S
H1715 C1729 0.960 . S
H1716 C1729 0.961 . S
H1717 C1729 0.959 . S
H1718 C1732 0.929 . S
H1719 C1733 0.931 . S
H1720 C1735 0.930 . S
C1721 H1709 0.930 . S
C1721 C1722 1.399 . S
C1721 C1726 1.399 . S
C1722 C1721 1.399 . S
C1722 C1723 1.376 . S
C1723 H1710 0.930 . S
C1723 C1722 1.376 . S
C1723 C1724 1.388 . S
C1724 H1711 0.930 1_554 S
C1724 C1723 1.388 . S
C1724 C1725 1.389 1_554 S
C1725 C1724 1.389 1_556 S
C1725 C1726 1.389 1_556 S
C1725 C1731 1.470 . S
C1726 C1721 1.399 . S
C1726 C1725 1.389 1_554 S
C1726 C1727 1.516 . S
C1727 C1726 1.516 . S
C1727 C1728 1.502 . S
C1727 C1729 1.561 1_554 S
C1727 C1730 1.526 1_554 S
C1728 H1712 0.959 . S
C1728 H1713 0.959 . S
C1728 H1714 0.961 . S
C1728 C1727 1.502 . S
C1729 H1715 0.960 . S
C1729 H1716 0.961 . S
C1729 H1717 0.959 . S
C1729 C1727 1.561 1_556 S
C1730 C1727 1.526 1_556 S
C1730 C1731 1.396 . S
C1730 C1735 1.390 . S
C1731 C1725 1.470 . S
C1731 C1730 1.396 . S
C1731 C1732 1.399 . S
C1732 H1718 0.929 . S
C1732 C1731 1.399 . S
C1732 C1733 1.385 . S
C1733 H1719 0.931 . S
C1733 C1732 1.385 . S
C1733 C1734 1.389 . S
C1734 C1733 1.389 . S
C1734 C1735 1.387 . S
C1735 H1720 0.930 . S
C1735 C1730 1.390 . S
C1735 C1734 1.387 . S
H1736 C1748 0.930 . S
H1737 C1750 0.930 . S
H1738 C1751 0.930 . S
H1739 C1755 0.959 . S
H1740 C1755 0.959 . S
H1741 C1755 0.961 . S
H1742 C1756 0.960 . S
H1743 C1756 0.961 . S
H1744 C1756 0.959 . S
H1745 C1759 0.929 . S
H1746 C1760 0.931 . S
H1747 C1762 0.930 . S
C1748 H1736 0.930 . S
C1748 C1749 1.399 . S
C1748 C1753 1.399 . S
C1749 C1748 1.399 . S
C1749 C1750 1.376 . S
C1750 H1737 0.930 . S
C1750 C1749 1.376 . S
C1750 C1751 1.388 . S
C1751 H1738 0.930 . S
C1751 C1750 1.388 . S
C1751 C1752 1.390 . S
C1752 C1751 1.390 . S
C1752 C1753 1.394 . S
C1752 C1758 1.465 . S
C1753 C1748 1.399 . S
C1753 C1752 1.394 . S
C1753 C1754 1.516 . S
C1754 C1753 1.516 . S
C1754 C1755 1.502 . S
C1754 C1756 1.561 . S
C1754 C1757 1.526 . S
C1755 H1739 0.959 . S
C1755 H1740 0.959 . S
C1755 H1741 0.961 . S
C1755 C1754 1.502 . S
C1756 H1742 0.960 . S
C1756 H1743 0.961 . S
C1756 H1744 0.959 . S
C1756 C1754 1.561 . S
C1757 C1754 1.526 . S
C1757 C1758 1.396 . S
C1757 C1762 1.390 . S
C1758 C1752 1.465 . S
C1758 C1757 1.396 . S
C1758 C1759 1.399 . S
C1759 H1745 0.929 . S
C1759 C1758 1.399 . S
C1759 C1760 1.385 . S
C1760 H1746 0.931 . S
C1760 C1759 1.385 . S
C1760 C1761 1.389 . S
C1761 C1760 1.389 . S
C1761 C1762 1.387 . S
C1762 H1747 0.930 . S
C1762 C1757 1.390 . S
C1762 C1761 1.387 . S
H1763 C1775 0.930 . S
H1764 C1777 0.930 . S
H1765 C1778 0.930 . S
H1766 C1782 0.959 . S
H1767 C1782 0.959 . S
H1768 C1782 0.961 . S
H1769 C1783 0.960 . S
H1770 C1783 0.973 . S
H1771 C1783 0.959 . S
H1772 C1786 0.929 . S
H1773 C1787 0.931 . S
H1774 C1789 0.930 . S
C1775 H1763 0.930 . S
C1775 C1776 1.399 . S
C1775 C1780 1.399 . S
C1776 C1775 1.399 . S
C1776 C1777 1.376 . S
C1777 H1764 0.930 . S
C1777 C1776 1.376 . S
C1777 C1778 1.388 . S
C1778 H1765 0.930 . S
C1778 C1777 1.388 . S
C1778 C1779 1.390 . S
C1779 C1778 1.390 . S
C1779 C1780 1.394 . S
C1779 C1785 1.465 . S
C1780 C1775 1.399 . S
C1780 C1779 1.394 . S
C1780 C1781 1.516 1_556 S
C1781 C1780 1.516 1_554 S
C1781 C1782 1.502 . S
C1781 C1783 1.561 1_554 S
C1781 C1784 1.526 . S
C1782 H1766 0.959 . S
C1782 H1767 0.959 . S
C1782 H1768 0.961 . S
C1782 C1781 1.502 . S
C1783 H1769 0.960 . S
C1783 H1770 0.973 . S
C1783 H1771 0.959 . S
C1783 C1781 1.561 1_556 S
C1784 C1781 1.526 . S
C1784 C1785 1.396 1_554 S
C1784 C1789 1.390 . S
C1785 C1779 1.465 . S
C1785 C1784 1.396 1_556 S
C1785 C1786 1.399 . S
C1786 H1772 0.929 . S
C1786 C1785 1.399 . S
C1786 C1787 1.385 1_556 S
C1787 H1773 0.931 . S
C1787 C1786 1.385 1_554 S
C1787 C1788 1.389 . S
C1788 C1787 1.389 . S
C1788 C1789 1.387 . S
C1789 H1774 0.930 . S
C1789 C1784 1.390 . S
C1789 C1788 1.387 . S
H1790 C1802 0.930 . S
H1791 C1804 0.930 . S
H1792 C1805 0.930 . S
H1793 C1809 0.959 . S
H1794 C1809 0.959 . S
H1795 C1809 0.961 . S
H1796 C1810 0.960 . S
H1797 C1810 0.961 . S
H1798 C1810 0.959 . S
H1799 C1813 0.929 . S
H1800 C1814 0.931 . S
H1801 C1816 0.930 . S
C1802 H1790 0.930 . S
C1802 C1803 1.399 . S
C1802 C1807 1.399 . S
C1803 C1802 1.399 . S
C1803 C1804 1.376 . S
C1804 H1791 0.930 . S
C1804 C1803 1.376 . S
C1804 C1805 1.388 . S
C1805 H1792 0.930 . S
C1805 C1804 1.388 . S
C1805 C1806 1.390 . S
C1806 C1805 1.390 . S
C1806 C1807 1.394 . S
C1806 C1812 1.465 . S
C1807 C1802 1.399 . S
C1807 C1806 1.394 . S
C1807 C1808 1.516 . S
C1808 C1807 1.516 . S
C1808 C1809 1.502 . S
C1808 C1810 1.561 . S
C1808 C1811 1.526 . S
C1809 H1793 0.959 . S
C1809 H1794 0.959 . S
C1809 H1795 0.961 . S
C1809 C1808 1.502 . S
C1810 H1796 0.960 . S
C1810 H1797 0.961 . S
C1810 H1798 0.959 . S
C1810 C1808 1.561 . S
C1811 C1808 1.526 . S
C1811 C1812 1.396 . S
C1811 C1816 1.390 . S
C1812 C1806 1.465 . S
C1812 C1811 1.396 . S
C1812 C1813 1.399 . S
C1813 H1799 0.929 . S
C1813 C1812 1.399 . S
C1813 C1814 1.385 . S
C1814 H1800 0.931 . S
C1814 C1813 1.385 . S
C1814 C1815 1.389 . S
C1815 C1814 1.389 . S
C1815 C1816 1.387 . S
C1816 H1801 0.930 . S
C1816 C1811 1.390 . S
C1816 C1815 1.387 . S
H1817 C1829 0.930 . S
H1818 C1831 0.930 . S
H1819 C1832 0.930 . S
H1820 C1836 0.959 . S
H1821 C1836 0.959 . S
H1822 C1836 0.961 . S
H1823 C1837 0.960 . S
H1824 C1837 0.961 . S
H1825 C1837 0.959 . S
H1826 C1840 0.929 . S
H1827 C1841 0.931 . S
H1828 C1843 0.930 . S
C1829 H1817 0.930 . S
C1829 C1830 1.399 . S
C1829 C1834 1.399 . S
C1830 C1829 1.399 . S
C1830 C1831 1.376 . S
C1831 H1818 0.930 . S
C1831 C1830 1.376 . S
C1831 C1832 1.388 . S
C1832 H1819 0.930 . S
C1832 C1831 1.388 . S
C1832 C1833 1.390 . S
C1833 C1832 1.390 . S
C1833 C1834 1.394 . S
C1833 C1839 1.465 . S
C1834 C1829 1.399 . S
C1834 C1833 1.394 . S
C1834 C1835 1.516 . S
C1835 C1834 1.516 . S
C1835 C1836 1.502 . S
C1835 C1837 1.561 . S
C1835 C1838 1.526 . S
C1836 H1820 0.959 . S
C1836 H1821 0.959 . S
C1836 H1822 0.961 . S
C1836 C1835 1.502 . S
C1837 H1823 0.960 . S
C1837 H1824 0.961 . S
C1837 H1825 0.959 . S
C1837 C1835 1.561 . S
C1838 C1835 1.526 . S
C1838 C1839 1.396 . S
C1838 C1843 1.390 . S
C1839 C1833 1.465 . S
C1839 C1838 1.396 . S
C1839 C1840 1.399 . S
C1840 H1826 0.929 . S
C1840 C1839 1.399 . S
C1840 C1841 1.385 . S
C1841 H1827 0.931 . S
C1841 C1840 1.385 . S
C1841 C1842 1.389 . S
C1842 C1841 1.389 . S
C1842 C1843 1.387 . S
C1843 H1828 0.930 . S
C1843 C1838 1.390 . S
C1843 C1842 1.387 . S
H1844 C1856 0.930 . S
H1845 C1858 0.930 . S
H1846 C1859 0.930 . S
H1847 C1863 0.959 . S
H1848 C1863 0.959 . S
H1849 C1863 0.961 . S
H1850 C1864 0.960 . S
H1851 C1864 0.961 . S
H1852 C1864 0.959 . S
H1853 C1867 0.929 . S
H1854 C1868 0.931 . S
H1855 C1870 0.930 . S
C1856 H1844 0.930 . S
C1856 C1857 1.399 . S
C1856 C1861 1.399 . S
C1857 C1856 1.399 . S
C1857 C1858 1.376 . S
C1858 H1845 0.930 . S
C1858 C1857 1.376 . S
C1858 C1859 1.388 . S
C1859 H1846 0.930 . S
C1859 C1858 1.388 . S
C1859 C1860 1.390 . S
C1860 C1859 1.390 . S
C1860 C1861 1.394 . S
C1860 C1866 1.465 . S
C1861 C1856 1.399 . S
C1861 C1860 1.394 . S
C1861 C1862 1.516 . S
C1862 C1861 1.516 . S
C1862 C1863 1.502 . S
C1862 C1864 1.561 . S
C1862 C1865 1.526 . S
C1863 H1847 0.959 . S
C1863 H1848 0.959 . S
C1863 H1849 0.961 . S
C1863 C1862 1.502 . S
C1864 H1850 0.960 . S
C1864 H1851 0.961 . S
C1864 H1852 0.959 . S
C1864 C1862 1.561 . S
C1865 C1862 1.526 . S
C1865 C1866 1.396 . S
C1865 C1870 1.390 . S
C1866 C1860 1.465 . S
C1866 C1865 1.396 . S
C1866 C1867 1.399 . S
C1867 H1853 0.929 . S
C1867 C1866 1.399 . S
C1867 C1868 1.385 . S
C1868 H1854 0.931 . S
C1868 C1867 1.385 . S
C1868 C1869 1.389 . S
C1869 C1868 1.389 . S
C1869 C1870 1.387 . S
C1870 H1855 0.930 . S
C1870 C1865 1.390 . S
C1870 C1869 1.387 . S
H1871 C1883 0.930 . S
H1872 C1885 0.930 . S
H1873 C1886 0.931 . S
H1874 C1890 0.959 . S
H1875 C1890 0.959 . S
H1876 C1890 0.961 . S
H1877 C1891 0.960 . S
H1878 C1891 0.961 . S
H1879 C1891 0.959 . S
H1880 C1894 0.929 . S
H1881 C1895 0.931 . S
H1882 C1897 0.930 . S
C1883 H1871 0.930 . S
C1883 C1884 1.399 . S
C1883 C1888 1.399 . S
C1884 C1883 1.399 . S
C1884 C1885 1.376 . S
C1885 H1872 0.930 . S
C1885 C1884 1.376 . S
C1885 C1886 1.387 1_556 S
C1886 H1873 0.931 . S
C1886 C1885 1.387 1_554 S
C1886 C1887 1.389 . S
C1887 C1886 1.389 . S
C1887 C1888 1.377 1_554 S
C1887 C1893 1.481 . S
C1888 C1883 1.399 . S
C1888 C1887 1.377 1_556 S
C1888 C1889 1.516 . S
C1889 C1888 1.516 . S
C1889 C1890 1.502 . S
C1889 C1891 1.561 1_556 S
C1889 C1892 1.526 1_556 S
C1890 H1874 0.959 . S
C1890 H1875 0.959 . S
C1890 H1876 0.961 . S
C1890 C1889 1.502 . S
C1891 H1877 0.960 . S
C1891 H1878 0.961 . S
C1891 H1879 0.959 . S
C1891 C1889 1.561 1_554 S
C1892 C1889 1.526 1_554 S
C1892 C1893 1.396 . S
C1892 C1897 1.390 . S
C1893 C1887 1.481 . S
C1893 C1892 1.396 . S
C1893 C1894 1.399 . S
C1894 H1880 0.929 . S
C1894 C1893 1.399 . S
C1894 C1895 1.385 . S
C1895 H1881 0.931 . S
C1895 C1894 1.385 . S
C1895 C1896 1.389 . S
C1896 C1895 1.389 . S
C1896 C1897 1.387 . S
C1897 H1882 0.930 . S
C1897 C1892 1.390 . S
C1897 C1896 1.387 . S
H1898 C1910 0.930 . S
H1899 C1912 0.930 . S
H1900 C1913 0.930 . S
H1901 C1917 0.959 . S
H1902 C1917 0.959 . S
H1903 C1917 0.961 . S
H1904 C1918 0.960 . S
H1905 C1918 0.961 . S
H1906 C1918 0.959 . S
H1907 C1921 0.929 . S
H1908 C1922 0.931 . S
H1909 C1924 0.930 . S
C1910 H1898 0.930 . S
C1910 C1911 1.399 . S
C1910 C1915 1.399 . S
C1911 C1910 1.399 . S
C1911 C1912 1.376 . S
C1912 H1899 0.930 . S
C1912 C1911 1.376 . S
C1912 C1913 1.388 . S
C1913 H1900 0.930 . S
C1913 C1912 1.388 . S
C1913 C1914 1.390 . S
C1914 C1913 1.390 . S
C1914 C1915 1.394 . S
C1914 C1920 1.465 . S
C1915 C1910 1.399 . S
C1915 C1914 1.394 . S
C1915 C1916 1.516 . S
C1916 C1915 1.516 . S
C1916 C1917 1.502 . S
C1916 C1918 1.561 . S
C1916 C1919 1.526 . S
C1917 H1901 0.959 . S
C1917 H1902 0.959 . S
C1917 H1903 0.961 . S
C1917 C1916 1.502 . S
C1918 H1904 0.960 . S
C1918 H1905 0.961 . S
C1918 H1906 0.959 . S
C1918 C1916 1.561 . S
C1919 C1916 1.526 . S
C1919 C1920 1.396 . S
C1919 C1924 1.390 . S
C1920 C1914 1.465 . S
C1920 C1919 1.396 . S
C1920 C1921 1.399 . S
C1921 H1907 0.929 . S
C1921 C1920 1.399 . S
C1921 C1922 1.385 . S
C1922 H1908 0.931 . S
C1922 C1921 1.385 . S
C1922 C1923 1.389 . S
C1923 C1922 1.389 . S
C1923 C1924 1.387 . S
C1924 H1909 0.930 . S
C1924 C1919 1.390 . S
C1924 C1923 1.387 . S
H1925 C1937 0.930 . S
H1926 C1939 0.930 . S
H1927 C1940 0.930 . S
H1928 C1944 0.959 . S
H1929 C1944 0.959 . S
H1930 C1944 0.961 . S
H1931 C1945 0.960 . S
H1932 C1945 0.961 . S
H1933 C1945 0.959 . S
H1934 C1948 0.929 . S
H1935 C1949 0.931 . S
H1936 C1951 0.930 . S
C1937 H1925 0.930 . S
C1937 C1938 1.399 . S
C1937 C1942 1.399 . S
C1938 C1937 1.399 . S
C1938 C1939 1.376 . S
C1939 H1926 0.930 . S
C1939 C1938 1.376 . S
C1939 C1940 1.388 . S
C1940 H1927 0.930 . S
C1940 C1939 1.388 . S
C1940 C1941 1.390 . S
C1941 C1940 1.390 . S
C1941 C1942 1.394 . S
C1941 C1947 1.465 . S
C1942 C1937 1.399 . S
C1942 C1941 1.394 . S
C1942 C1943 1.516 . S
C1943 C1942 1.516 . S
C1943 C1944 1.502 . S
C1943 C1945 1.561 . S
C1943 C1946 1.526 . S
C1944 H1928 0.959 . S
C1944 H1929 0.959 . S
C1944 H1930 0.961 . S
C1944 C1943 1.502 . S
C1945 H1931 0.960 . S
C1945 H1932 0.961 . S
C1945 H1933 0.959 . S
C1945 C1943 1.561 . S
C1946 C1943 1.526 . S
C1946 C1947 1.396 . S
C1946 C1951 1.390 . S
C1947 C1941 1.465 . S
C1947 C1946 1.396 . S
C1947 C1948 1.399 . S
C1948 H1934 0.929 . S
C1948 C1947 1.399 . S
C1948 C1949 1.385 . S
C1949 H1935 0.931 . S
C1949 C1948 1.385 . S
C1949 C1950 1.389 . S
C1950 C1949 1.389 . S
C1950 C1951 1.387 . S
C1951 H1936 0.930 . S
C1951 C1946 1.390 . S
C1951 C1950 1.387 . S
H1952 C1964 0.930 . S
H1953 C1966 0.922 1_455 S
H1954 C1967 0.930 . S
H1955 C1971 0.959 . S
H1956 C1971 0.959 . S
H1957 C1971 0.961 . S
H1958 C1972 0.960 . S
H1959 C1972 0.961 . S
H1960 C1972 0.959 1_455 S
H1961 C1975 0.929 . S
H1962 C1976 0.931 . S
H1963 C1978 0.910 1_655 S
C1964 H1952 0.930 . S
C1964 C1965 1.399 . S
C1964 C1969 1.399 . S
C1965 C1964 1.399 . S
C1965 C1966 1.402 . S
C1966 H1953 0.922 1_655 S
C1966 C1965 1.402 . S
C1966 C1967 1.372 1_655 S
C1967 H1954 0.930 . S
C1967 C1966 1.372 1_455 S
C1967 C1968 1.390 . S
C1968 C1967 1.390 . S
C1968 C1969 1.394 1_455 S
C1968 C1974 1.465 . S
C1969 C1964 1.399 . S
C1969 C1968 1.394 1_655 S
C1969 C1970 1.516 . S
C1970 C1969 1.516 . S
C1970 C1971 1.502 . S
C1970 C1972 1.561 . S
C1970 C1973 1.526 1_655 S
C1971 H1955 0.959 . S
C1971 H1956 0.959 . S
C1971 H1957 0.961 . S
C1971 C1970 1.502 . S
C1972 H1958 0.960 . S
C1972 H1959 0.961 . S
C1972 H1960 0.959 1_655 S
C1972 C1970 1.561 . S
C1973 C1970 1.526 1_455 S
C1973 C1974 1.396 . S
C1973 C1978 1.390 . S
C1974 C1968 1.465 . S
C1974 C1973 1.396 . S
C1974 C1975 1.399 . S
C1975 H1961 0.929 . S
C1975 C1974 1.399 . S
C1975 C1976 1.385 . S
C1976 H1962 0.931 . S
C1976 C1975 1.385 . S
C1976 C1977 1.389 . S
C1977 C1976 1.389 . S
C1977 C1978 1.387 . S
C1978 H1963 0.910 1_455 S
C1978 C1973 1.390 . S
C1978 C1977 1.387 . S
H1979 C1991 0.930 . S
H1980 C1993 0.930 . S
H1981 C1994 0.930 . S
H1982 C1998 0.959 . S
H1983 C1998 0.959 . S
H1984 C1998 0.961 1_455 S
H1985 C1999 0.960 . S
H1986 C1999 0.961 1_655 S
H1987 C1999 0.959 . S
H1988 C2002 0.929 . S
H1989 C2003 0.931 . S
H1990 C2005 0.930 . S
C1991 H1979 0.930 . S
C1991 C1992 1.399 . S
C1991 C1996 1.399 . S
C1992 C1991 1.399 . S
C1992 C1993 1.376 . S
C1993 H1980 0.930 . S
C1993 C1992 1.376 . S
C1993 C1994 1.388 . S
C1994 H1981 0.930 . S
C1994 C1993 1.388 . S
C1994 C1995 1.390 . S
C1995 C1994 1.390 . S
C1995 C1996 1.394 . S
C1995 C2001 1.465 1_455 S
C1996 C1991 1.399 . S
C1996 C1995 1.394 . S
C1996 C1997 1.516 1_455 S
C1997 C1996 1.516 1_655 S
C1997 C1998 1.502 . S
C1997 C1999 1.561 1_655 S
C1997 C2000 1.526 . S
C1998 H1982 0.959 . S
C1998 H1983 0.959 . S
C1998 H1984 0.961 1_655 S
C1998 C1997 1.502 . S
C1999 H1985 0.960 . S
C1999 H1986 0.961 1_455 S
C1999 H1987 0.959 . S
C1999 C1997 1.561 1_455 S
C2000 C1997 1.526 . S
C2000 C2001 1.396 . S
C2000 C2005 1.390 . S
C2001 C1995 1.465 1_655 S
C2001 C2000 1.396 . S
C2001 C2002 1.399 . S
C2002 H1988 0.929 . S
C2002 C2001 1.399 . S
C2002 C2003 1.385 . S
C2003 H1989 0.931 . S
C2003 C2002 1.385 . S
C2003 C2004 1.389 . S
C2004 C2003 1.389 . S
C2004 C2005 1.387 . S
C2005 H1990 0.930 . S
C2005 C2000 1.390 . S
C2005 C2004 1.387 . S
H2006 C2018 0.930 . S
H2007 C2020 0.930 . S
H2008 C2021 0.930 . S
H2009 C2025 0.959 . S
H2010 C2025 0.959 . S
H2011 C2025 0.961 . S
H2012 C2026 0.960 . S
H2013 C2026 0.961 . S
H2014 C2026 0.959 . S
H2015 C2029 0.929 . S
H2016 C2030 0.931 . S
H2017 C2032 0.930 . S
C2018 H2006 0.930 . S
C2018 C2019 1.399 . S
C2018 C2023 1.399 . S
C2019 C2018 1.399 . S
C2019 C2020 1.376 . S
C2020 H2007 0.930 . S
C2020 C2019 1.376 . S
C2020 C2021 1.388 . S
C2021 H2008 0.930 . S
C2021 C2020 1.388 . S
C2021 C2022 1.390 . S
C2022 C2021 1.390 . S
C2022 C2023 1.394 . S
C2022 C2028 1.465 . S
C2023 C2018 1.399 . S
C2023 C2022 1.394 . S
C2023 C2024 1.516 . S
C2024 C2023 1.516 . S
C2024 C2025 1.502 . S
C2024 C2026 1.561 . S
C2024 C2027 1.526 . S
C2025 H2009 0.959 . S
C2025 H2010 0.959 . S
C2025 H2011 0.961 . S
C2025 C2024 1.502 . S
C2026 H2012 0.960 . S
C2026 H2013 0.961 . S
C2026 H2014 0.959 . S
C2026 C2024 1.561 . S
C2027 C2024 1.526 . S
C2027 C2028 1.396 . S
C2027 C2032 1.390 . S
C2028 C2022 1.465 . S
C2028 C2027 1.396 . S
C2028 C2029 1.399 . S
C2029 H2015 0.929 . S
C2029 C2028 1.399 . S
C2029 C2030 1.385 . S
C2030 H2016 0.931 . S
C2030 C2029 1.385 . S
C2030 C2031 1.389 . S
C2031 C2030 1.389 . S
C2031 C2032 1.387 . S
C2032 H2017 0.930 . S
C2032 C2027 1.390 . S
C2032 C2031 1.387 . S
H2033 C2045 0.969 . S
H2034 C2047 0.930 . S
H2035 C2048 0.930 . S
H2036 C2052 0.959 . S
H2037 C2052 0.959 . S
H2038 C2052 0.961 . S
H2039 C2053 0.960 . S
H2040 C2053 0.961 . S
H2041 C2053 0.959 . S
H2042 C2056 0.929 . S
H2043 C2057 0.931 . S
H2044 C2059 0.930 . S
C2045 H2033 0.969 . S
C2045 C2046 1.399 . S
C2045 C2050 1.399 . S
C2046 C2045 1.399 . S
C2046 C2047 1.376 . S
C2047 H2034 0.930 . S
C2047 C2046 1.376 . S
C2047 C2048 1.388 . S
C2048 H2035 0.930 . S
C2048 C2047 1.388 . S
C2048 C2049 1.390 . S
C2049 C2048 1.390 . S
C2049 C2050 1.394 . S
C2049 C2055 1.465 . S
C2050 C2045 1.399 . S
C2050 C2049 1.394 . S
C2050 C2051 1.516 . S
C2051 C2050 1.516 . S
C2051 C2052 1.502 1_554 S
C2051 C2053 1.561 1_554 S
C2051 C2054 1.526 . S
C2052 H2036 0.959 . S
C2052 H2037 0.959 . S
C2052 H2038 0.961 . S
C2052 C2051 1.502 1_556 S
C2053 H2039 0.960 . S
C2053 H2040 0.961 . S
C2053 H2041 0.959 . S
C2053 C2051 1.561 1_556 S
C2054 C2051 1.526 . S
C2054 C2055 1.396 . S
C2054 C2059 1.390 . S
C2055 C2049 1.465 . S
C2055 C2054 1.396 . S
C2055 C2056 1.399 . S
C2056 H2042 0.929 . S
C2056 C2055 1.399 . S
C2056 C2057 1.385 . S
C2057 H2043 0.931 . S
C2057 C2056 1.385 . S
C2057 C2058 1.389 . S
C2058 C2057 1.389 . S
C2058 C2059 1.387 . S
C2059 H2044 0.930 . S
C2059 C2054 1.390 . S
C2059 C2058 1.387 . S
H2060 C2072 0.930 . S
H2061 C2074 0.930 . S
H2062 C2075 0.930 . S
H2063 C2079 0.959 . S
H2064 C2079 0.959 . S
H2065 C2079 0.961 . S
H2066 C2080 0.960 . S
H2067 C2080 0.961 . S
H2068 C2080 0.959 . S
H2069 C2083 0.929 . S
H2070 C2084 0.931 . S
H2071 C2086 0.930 . S
C2072 H2060 0.930 . S
C2072 C2073 1.399 . S
C2072 C2077 1.399 . S
C2073 C2072 1.399 . S
C2073 C2074 1.376 . S
C2074 H2061 0.930 . S
C2074 C2073 1.376 . S
C2074 C2075 1.388 . S
C2075 H2062 0.930 . S
C2075 C2074 1.388 . S
C2075 C2076 1.390 . S
C2076 C2075 1.390 . S
C2076 C2077 1.394 . S
C2076 C2082 1.465 1_655 S
C2077 C2072 1.399 . S
C2077 C2076 1.394 . S
C2077 C2078 1.516 . S
C2078 C2077 1.516 . S
C2078 C2079 1.502 1_655 S
C2078 C2080 1.561 . S
C2078 C2081 1.526 1_655 S
C2079 H2063 0.959 . S
C2079 H2064 0.959 . S
C2079 H2065 0.961 . S
C2079 C2078 1.502 1_455 S
C2080 H2066 0.960 . S
C2080 H2067 0.961 . S
C2080 H2068 0.959 . S
C2080 C2078 1.561 . S
C2081 C2078 1.526 1_455 S
C2081 C2082 1.396 . S
C2081 C2086 1.390 . S
C2082 C2076 1.465 1_455 S
C2082 C2081 1.396 . S
C2082 C2083 1.399 . S
C2083 H2069 0.929 . S
C2083 C2082 1.399 . S
C2083 C2084 1.385 . S
C2084 H2070 0.931 . S
C2084 C2083 1.385 . S
C2084 C2085 1.389 . S
C2085 C2084 1.389 . S
C2085 C2086 1.387 . S
C2086 H2071 0.930 . S
C2086 C2081 1.390 . S
C2086 C2085 1.387 . S
H2087 C2099 0.930 . S
H2088 C2101 0.930 . S
H2089 C2102 0.930 . S
H2090 C2106 0.959 . S
H2091 C2106 0.959 . S
H2092 C2106 0.961 . S
H2093 C2107 0.960 . S
H2094 C2107 0.961 . S
H2095 C2107 0.959 . S
H2096 C2110 0.929 . S
H2097 C2111 0.931 . S
H2098 C2113 0.930 . S
C2099 H2087 0.930 . S
C2099 C2100 1.399 . S
C2099 C2104 1.399 . S
C2100 C2099 1.399 . S
C2100 C2101 1.376 . S
C2101 H2088 0.930 . S
C2101 C2100 1.376 . S
C2101 C2102 1.388 . S
C2102 H2089 0.930 . S
C2102 C2101 1.388 . S
C2102 C2103 1.390 . S
C2103 C2102 1.390 . S
C2103 C2104 1.394 . S
C2103 C2109 1.465 . S
C2104 C2099 1.399 . S
C2104 C2103 1.394 . S
C2104 C2105 1.516 . S
C2105 C2104 1.516 . S
C2105 C2106 1.502 . S
C2105 C2107 1.561 . S
C2105 C2108 1.526 . S
C2106 H2090 0.959 . S
C2106 H2091 0.959 . S
C2106 H2092 0.961 . S
C2106 C2105 1.502 . S
C2107 H2093 0.960 . S
C2107 H2094 0.961 . S
C2107 H2095 0.959 . S
C2107 C2105 1.561 . S
C2108 C2105 1.526 . S
C2108 C2109 1.396 . S
C2108 C2113 1.390 . S
C2109 C2103 1.465 . S
C2109 C2108 1.396 . S
C2109 C2110 1.399 . S
C2110 H2096 0.929 . S
C2110 C2109 1.399 . S
C2110 C2111 1.385 . S
C2111 H2097 0.931 . S
C2111 C2110 1.385 . S
C2111 C2112 1.389 . S
C2112 C2111 1.389 . S
C2112 C2113 1.387 . S
C2113 H2098 0.930 . S
C2113 C2108 1.390 . S
C2113 C2112 1.387 . S
H2114 C2126 0.930 . S
H2115 C2128 0.930 . S
H2116 C2129 0.930 . S
H2117 C2133 0.959 . S
H2118 C2133 0.959 . S
H2119 C2133 0.961 . S
H2120 C2134 0.960 . S
H2121 C2134 0.961 . S
H2122 C2134 0.959 . S
H2123 C2137 0.929 . S
H2124 C2138 0.931 . S
H2125 C2140 0.930 . S
C2126 H2114 0.930 . S
C2126 C2127 1.399 . S
C2126 C2131 1.399 . S
C2127 C2126 1.399 . S
C2127 C2128 1.376 . S
C2128 H2115 0.930 . S
C2128 C2127 1.376 . S
C2128 C2129 1.388 . S
C2129 H2116 0.930 . S
C2129 C2128 1.388 . S
C2129 C2130 1.390 . S
C2130 C2129 1.390 . S
C2130 C2131 1.394 . S
C2130 C2136 1.465 . S
C2131 C2126 1.399 . S
C2131 C2130 1.394 . S
C2131 C2132 1.516 . S
C2132 C2131 1.516 . S
C2132 C2133 1.502 . S
C2132 C2134 1.561 . S
C2132 C2135 1.526 . S
C2133 H2117 0.959 . S
C2133 H2118 0.959 . S
C2133 H2119 0.961 . S
C2133 C2132 1.502 . S
C2134 H2120 0.960 . S
C2134 H2121 0.961 . S
C2134 H2122 0.959 . S
C2134 C2132 1.561 . S
C2135 C2132 1.526 . S
C2135 C2136 1.396 . S
C2135 C2140 1.390 . S
C2136 C2130 1.465 . S
C2136 C2135 1.396 . S
C2136 C2137 1.399 . S
C2137 H2123 0.929 . S
C2137 C2136 1.399 . S
C2137 C2138 1.385 . S
C2138 H2124 0.931 . S
C2138 C2137 1.385 . S
C2138 C2139 1.389 . S
C2139 C2138 1.389 . S
C2139 C2140 1.387 . S
C2140 H2125 0.930 . S
C2140 C2135 1.390 . S
C2140 C2139 1.387 . S
H2141 C2153 0.930 . S
H2142 C2155 0.930 . S
H2143 C2156 0.930 . S
H2144 C2160 0.959 1_556 S
H2145 C2160 0.959 . S
H2146 C2160 0.961 1_455 S
H2147 C2161 0.960 . S
H2148 C2161 0.961 1_655 S
H2149 C2161 0.959 . S
H2150 C2164 0.929 . S
H2151 C2165 0.931 . S
H2152 C2167 0.930 . S
C2153 H2141 0.930 . S
C2153 C2154 1.399 . S
C2153 C2158 1.399 . S
C2154 C2153 1.399 . S
C2154 C2155 1.376 . S
C2155 H2142 0.930 . S
C2155 C2154 1.376 . S
C2155 C2156 1.388 . S
C2156 H2143 0.930 . S
C2156 C2155 1.388 . S
C2156 C2157 1.390 . S
C2157 C2156 1.390 . S
C2157 C2158 1.394 . S
C2157 C2163 1.465 1_455 S
C2158 C2153 1.399 . S
C2158 C2157 1.394 . S
C2158 C2159 1.516 1_455 S
C2159 C2158 1.516 1_655 S
C2159 C2160 1.502 1_556 S
C2159 C2161 1.561 1_656 S
C2159 C2162 1.526 . S
C2160 H2144 0.959 1_554 S
C2160 H2145 0.959 . S
C2160 H2146 0.961 1_655 S
C2160 C2159 1.502 1_554 S
C2161 H2147 0.960 . S
C2161 H2148 0.961 1_455 S
C2161 H2149 0.959 . S
C2161 C2159 1.561 1_454 S
C2162 C2159 1.526 . S
C2162 C2163 1.396 . S
C2162 C2167 1.390 . S
C2163 C2157 1.465 1_655 S
C2163 C2162 1.396 . S
C2163 C2164 1.399 . S
C2164 H2150 0.929 . S
C2164 C2163 1.399 . S
C2164 C2165 1.385 . S
C2165 H2151 0.931 . S
C2165 C2164 1.385 . S
C2165 C2166 1.389 . S
C2166 C2165 1.389 . S
C2166 C2167 1.387 . S
C2167 H2152 0.930 . S
C2167 C2162 1.390 . S
C2167 C2166 1.387 . S
H2168 C2180 0.930 . S
H2169 C2182 0.930 . S
H2170 C2183 0.930 . S
H2171 C2187 0.959 . S
H2172 C2187 0.959 . S
H2173 C2187 0.961 . S
H2174 C2188 0.960 . S
H2175 C2188 0.961 . S
H2176 C2188 0.959 . S
H2177 C2191 0.929 . S
H2178 C2192 0.931 . S
H2179 C2194 0.930 . S
C2180 H2168 0.930 . S
C2180 C2181 1.399 . S
C2180 C2185 1.399 . S
C2181 C2180 1.399 . S
C2181 C2182 1.376 . S
C2182 H2169 0.930 . S
C2182 C2181 1.376 . S
C2182 C2183 1.388 . S
C2183 H2170 0.930 . S
C2183 C2182 1.388 . S
C2183 C2184 1.390 . S
C2184 C2183 1.390 . S
C2184 C2185 1.394 . S
C2184 C2190 1.465 1_655 S
C2185 C2180 1.399 . S
C2185 C2184 1.394 . S
C2185 C2186 1.516 . S
C2186 C2185 1.516 . S
C2186 C2187 1.502 . S
C2186 C2188 1.561 1_655 S
C2186 C2189 1.526 1_655 S
C2187 H2171 0.959 . S
C2187 H2172 0.959 . S
C2187 H2173 0.961 . S
C2187 C2186 1.502 . S
C2188 H2174 0.960 . S
C2188 H2175 0.961 . S
C2188 H2176 0.959 . S
C2188 C2186 1.561 1_455 S
C2189 C2186 1.526 1_455 S
C2189 C2190 1.396 . S
C2189 C2194 1.390 . S
C2190 C2184 1.465 1_455 S
C2190 C2189 1.396 . S
C2190 C2191 1.399 . S
C2191 H2177 0.929 . S
C2191 C2190 1.399 . S
C2191 C2192 1.385 . S
C2192 H2178 0.931 . S
C2192 C2191 1.385 . S
C2192 C2193 1.389 . S
C2193 C2192 1.389 . S
C2193 C2194 1.387 . S
C2194 H2179 0.930 . S
C2194 C2189 1.390 . S
C2194 C2193 1.387 . S
H2195 C2207 0.930 . S
H2196 C2209 0.930 . S
H2197 C2210 0.930 . S
H2198 C2214 0.959 . S
H2199 C2214 0.959 . S
H2200 C2214 0.961 . S
H2201 C2215 0.992 . S
H2202 C2215 0.961 . S
H2203 C2215 0.959 . S
H2204 C2218 0.929 . S
H2205 C2219 0.931 . S
H2206 C2221 0.930 . S
C2207 H2195 0.930 . S
C2207 C2208 1.399 . S
C2207 C2212 1.399 . S
C2208 C2207 1.399 . S
C2208 C2209 1.376 . S
C2209 H2196 0.930 . S
C2209 C2208 1.376 . S
C2209 C2210 1.388 . S
C2210 H2197 0.930 . S
C2210 C2209 1.388 . S
C2210 C2211 1.390 . S
C2211 C2210 1.390 . S
C2211 C2212 1.394 . S
C2211 C2217 1.465 1_655 S
C2212 C2207 1.399 . S
C2212 C2211 1.394 . S
C2212 C2213 1.516 . S
C2213 C2212 1.516 . S
C2213 C2214 1.502 . S
C2213 C2215 1.561 1_655 S
C2213 C2216 1.526 1_655 S
C2214 H2198 0.959 . S
C2214 H2199 0.959 . S
C2214 H2200 0.961 . S
C2214 C2213 1.502 . S
C2215 H2201 0.992 . S
C2215 H2202 0.961 . S
C2215 H2203 0.959 . S
C2215 C2213 1.561 1_455 S
C2216 C2213 1.526 1_455 S
C2216 C2217 1.396 . S
C2216 C2221 1.390 . S
C2217 C2211 1.465 1_455 S
C2217 C2216 1.396 . S
C2217 C2218 1.399 . S
C2218 H2204 0.929 . S
C2218 C2217 1.399 . S
C2218 C2219 1.385 . S
C2219 H2205 0.931 . S
C2219 C2218 1.385 . S
C2219 C2220 1.389 . S
C2220 C2219 1.389 . S
C2220 C2221 1.387 . S
C2221 H2206 0.930 . S
C2221 C2216 1.390 . S
C2221 C2220 1.387 . S
H2222 C2234 0.930 . S
H2223 C2236 0.930 . S
H2224 C2237 0.930 . S
H2225 C2241 0.959 . S
H2226 C2241 0.959 . S
H2227 C2241 0.961 . S
H2228 C2242 0.960 . S
H2229 C2242 0.961 . S
H2230 C2242 0.959 . S
H2231 C2245 0.929 . S
H2232 C2246 0.931 . S
H2233 C2248 0.930 . S
C2234 H2222 0.930 . S
C2234 C2235 1.399 . S
C2234 C2239 1.399 . S
C2235 C2234 1.399 . S
C2235 C2236 1.376 . S
C2236 H2223 0.930 . S
C2236 C2235 1.376 . S
C2236 C2237 1.388 . S
C2237 H2224 0.930 . S
C2237 C2236 1.388 . S
C2237 C2238 1.390 . S
C2238 C2237 1.390 . S
C2238 C2239 1.394 . S
C2238 C2244 1.465 . S
C2239 C2234 1.399 . S
C2239 C2238 1.394 . S
C2239 C2240 1.516 . S
C2240 C2239 1.516 . S
C2240 C2241 1.502 . S
C2240 C2242 1.561 . S
C2240 C2243 1.526 . S
C2241 H2225 0.959 . S
C2241 H2226 0.959 . S
C2241 H2227 0.961 . S
C2241 C2240 1.502 . S
C2242 H2228 0.960 . S
C2242 H2229 0.961 . S
C2242 H2230 0.959 . S
C2242 C2240 1.561 . S
C2243 C2240 1.526 . S
C2243 C2244 1.396 . S
C2243 C2248 1.390 . S
C2244 C2238 1.465 . S
C2244 C2243 1.396 . S
C2244 C2245 1.399 . S
C2245 H2231 0.929 . S
C2245 C2244 1.399 . S
C2245 C2246 1.385 . S
C2246 H2232 0.931 . S
C2246 C2245 1.385 . S
C2246 C2247 1.389 . S
C2247 C2246 1.389 . S
C2247 C2248 1.387 . S
C2248 H2233 0.930 . S
C2248 C2243 1.390 . S
C2248 C2247 1.387 . S
H2249 C2261 0.930 . S
H2250 C2263 0.930 . S
H2251 C2264 0.930 . S
H2252 C2268 0.959 . S
H2253 C2268 0.959 . S
H2254 C2268 0.961 . S
H2255 C2269 0.960 . S
H2256 C2269 0.961 . S
H2257 C2269 0.959 . S
H2258 C2272 0.929 . S
H2259 C2273 0.931 . S
H2260 C2275 0.930 . S
C2261 H2249 0.930 . S
C2261 C2262 1.399 1_554 S
C2261 C2266 1.399 . S
C2262 C2261 1.399 1_556 S
C2262 C2263 1.376 . S
C2263 H2250 0.930 . S
C2263 C2262 1.376 . S
C2263 C2264 1.388 . S
C2264 H2251 0.930 . S
C2264 C2263 1.388 . S
C2264 C2265 1.390 . S
C2265 C2264 1.390 . S
C2265 C2266 1.394 1_556 S
C2265 C2271 1.465 . S
C2266 C2261 1.399 . S
C2266 C2265 1.394 1_554 S
C2266 C2267 1.516 . S
C2267 C2266 1.516 . S
C2267 C2268 1.502 . S
C2267 C2269 1.561 . S
C2267 C2270 1.526 . S
C2268 H2252 0.959 . S
C2268 H2253 0.959 . S
C2268 H2254 0.961 . S
C2268 C2267 1.502 . S
C2269 H2255 0.960 . S
C2269 H2256 0.961 . S
C2269 H2257 0.959 . S
C2269 C2267 1.561 . S
C2270 C2267 1.526 . S
C2270 C2271 1.396 1_554 S
C2270 C2275 1.390 . S
C2271 C2265 1.465 . S
C2271 C2270 1.396 1_556 S
C2271 C2272 1.399 . S
C2272 H2258 0.929 . S
C2272 C2271 1.399 . S
C2272 C2273 1.385 . S
C2273 H2259 0.931 . S
C2273 C2272 1.385 . S
C2273 C2274 1.389 . S
C2274 C2273 1.389 . S
C2274 C2275 1.387 1_556 S
C2275 H2260 0.930 . S
C2275 C2270 1.390 . S
C2275 C2274 1.387 1_554 S
H2276 C2288 0.930 . S
H2277 C2290 0.930 . S
H2278 C2291 0.930 . S
H2279 C2295 0.959 . S
H2280 C2295 0.956 . S
H2281 C2295 0.961 . S
H2282 C2296 0.960 . S
H2283 C2296 0.961 . S
H2284 C2296 0.959 . S
H2285 C2299 0.929 . S
H2286 C2300 0.931 . S
H2287 C2302 0.930 . S
C2288 H2276 0.930 . S
C2288 C2289 1.399 . S
C2288 C2293 1.399 . S
C2289 C2288 1.399 . S
C2289 C2290 1.376 . S
C2290 H2277 0.930 . S
C2290 C2289 1.376 . S
C2290 C2291 1.388 . S
C2291 H2278 0.930 . S
C2291 C2290 1.388 . S
C2291 C2292 1.390 . S
C2292 C2291 1.390 . S
C2292 C2293 1.394 . S
C2292 C2298 1.465 1_655 S
C2293 C2288 1.399 . S
C2293 C2292 1.394 . S
C2293 C2294 1.516 1_655 S
C2294 C2293 1.516 1_455 S
C2294 C2295 1.502 1_455 S
C2294 C2296 1.561 . S
C2294 C2297 1.526 . S
C2295 H2279 0.959 . S
C2295 H2280 0.956 . S
C2295 H2281 0.961 . S
C2295 C2294 1.502 1_655 S
C2296 H2282 0.960 . S
C2296 H2283 0.961 . S
C2296 H2284 0.959 . S
C2296 C2294 1.561 . S
C2297 C2294 1.526 . S
C2297 C2298 1.396 . S
C2297 C2302 1.390 . S
C2298 C2292 1.465 1_455 S
C2298 C2297 1.396 . S
C2298 C2299 1.399 . S
C2299 H2285 0.929 . S
C2299 C2298 1.399 . S
C2299 C2300 1.385 . S
C2300 H2286 0.931 . S
C2300 C2299 1.385 . S
C2300 C2301 1.389 . S
C2301 C2300 1.389 . S
C2301 C2302 1.387 . S
C2302 H2287 0.930 . S
C2302 C2297 1.390 . S
C2302 C2301 1.387 . S
H2303 C2315 0.930 . S
H2304 C2317 0.930 . S
H2305 C2318 0.930 . S
H2306 C2322 0.959 . S
H2307 C2322 0.959 . S
H2308 C2322 0.961 . S
H2309 C2323 0.960 . S
H2310 C2323 0.961 . S
H2311 C2323 0.959 . S
H2312 C2326 0.929 . S
H2313 C2327 0.931 . S
H2314 C2329 0.930 . S
C2315 H2303 0.930 . S
C2315 C2316 1.399 . S
C2315 C2320 1.399 . S
C2316 C2315 1.399 . S
C2316 C2317 1.376 . S
C2317 H2304 0.930 . S
C2317 C2316 1.376 . S
C2317 C2318 1.388 . S
C2318 H2305 0.930 . S
C2318 C2317 1.388 . S
C2318 C2319 1.390 . S
C2319 C2318 1.390 . S
C2319 C2320 1.394 . S
C2319 C2325 1.465 . S
C2320 C2315 1.399 . S
C2320 C2319 1.394 . S
C2320 C2321 1.516 . S
C2321 C2320 1.516 . S
C2321 C2322 1.502 . S
C2321 C2323 1.561 . S
C2321 C2324 1.526 . S
C2322 H2306 0.959 . S
C2322 H2307 0.959 . S
C2322 H2308 0.961 . S
C2322 C2321 1.502 . S
C2323 H2309 0.960 . S
C2323 H2310 0.961 . S
C2323 H2311 0.959 . S
C2323 C2321 1.561 . S
C2324 C2321 1.526 . S
C2324 C2325 1.396 . S
C2324 C2329 1.390 . S
C2325 C2319 1.465 . S
C2325 C2324 1.396 . S
C2325 C2326 1.399 . S
C2326 H2312 0.929 . S
C2326 C2325 1.399 . S
C2326 C2327 1.385 . S
C2327 H2313 0.931 . S
C2327 C2326 1.385 . S
C2327 C2328 1.389 . S
C2328 C2327 1.389 . S
C2328 C2329 1.387 . S
C2329 H2314 0.930 . S
C2329 C2324 1.390 . S
C2329 C2328 1.387 . S
H2330 C2342 0.930 . S
H2331 C2344 0.930 . S
H2332 C2345 0.930 . S
H2333 C2349 0.959 . S
H2334 C2349 0.959 . S
H2335 C2349 0.961 . S
H2336 C2350 0.960 . S
H2337 C2350 0.961 . S
H2338 C2350 0.959 . S
H2339 C2353 0.929 . S
H2340 C2354 0.931 . S
H2341 C2356 0.930 . S
C2342 H2330 0.930 . S
C2342 C2343 1.399 . S
C2342 C2347 1.399 . S
C2343 C2342 1.399 . S
C2343 C2344 1.376 . S
C2344 H2331 0.930 . S
C2344 C2343 1.376 . S
C2344 C2345 1.388 . S
C2345 H2332 0.930 . S
C2345 C2344 1.388 . S
C2345 C2346 1.390 . S
C2346 C2345 1.390 . S
C2346 C2347 1.394 . S
C2346 C2352 1.465 . S
C2347 C2342 1.399 . S
C2347 C2346 1.394 . S
C2347 C2348 1.516 . S
C2348 C2347 1.516 . S
C2348 C2349 1.502 . S
C2348 C2350 1.561 . S
C2348 C2351 1.526 . S
C2349 H2333 0.959 . S
C2349 H2334 0.959 . S
C2349 H2335 0.961 . S
C2349 C2348 1.502 . S
C2350 H2336 0.960 . S
C2350 H2337 0.961 . S
C2350 H2338 0.959 . S
C2350 C2348 1.561 . S
C2351 C2348 1.526 . S
C2351 C2352 1.396 . S
C2351 C2356 1.390 . S
C2352 C2346 1.465 . S
C2352 C2351 1.396 . S
C2352 C2353 1.399 . S
C2353 H2339 0.929 . S
C2353 C2352 1.399 . S
C2353 C2354 1.385 . S
C2354 H2340 0.931 . S
C2354 C2353 1.385 . S
C2354 C2355 1.389 . S
C2355 C2354 1.389 . S
C2355 C2356 1.387 . S
C2356 H2341 0.930 . S
C2356 C2351 1.390 . S
C2356 C2355 1.387 . S
H2357 C2369 0.930 . S
H2358 C2371 0.930 . S
H2359 C2372 0.930 . S
H2360 C2376 0.959 . S
H2361 C2376 0.959 . S
H2362 C2376 0.961 . S
H2363 C2377 0.960 1_455 S
H2364 C2377 0.961 . S
H2365 C2377 0.959 1_455 S
H2366 C2380 0.929 1_455 S
H2367 C2381 0.931 . S
H2368 C2383 0.930 . S
C2369 H2357 0.930 . S
C2369 C2370 1.399 . S
C2369 C2374 1.399 . S
C2370 C2369 1.399 . S
C2370 C2371 1.376 1_554 S
C2371 H2358 0.930 . S
C2371 C2370 1.376 1_556 S
C2371 C2372 1.388 . S
C2372 H2359 0.930 . S
C2372 C2371 1.388 . S
C2372 C2373 1.390 . S
C2373 C2372 1.390 . S
C2373 C2374 1.394 1_556 S
C2373 C2379 1.465 1_455 S
C2374 C2369 1.399 . S
C2374 C2373 1.394 1_554 S
C2374 C2375 1.516 1_455 S
C2375 C2374 1.516 1_655 S
C2375 C2376 1.502 . S
C2375 C2377 1.561 . S
C2375 C2378 1.526 . S
C2376 H2360 0.959 . S
C2376 H2361 0.959 . S
C2376 H2362 0.961 . S
C2376 C2375 1.502 . S
C2377 H2363 0.960 1_655 S
C2377 H2364 0.961 . S
C2377 H2365 0.959 1_655 S
C2377 C2375 1.561 . S
C2378 C2375 1.526 . S
C2378 C2379 1.396 1_554 S
C2378 C2383 1.390 . S
C2379 C2373 1.465 1_655 S
C2379 C2378 1.396 1_556 S
C2379 C2380 1.399 . S
C2380 H2366 0.929 1_655 S
C2380 C2379 1.399 . S
C2380 C2381 1.385 . S
C2381 H2367 0.931 . S
C2381 C2380 1.385 . S
C2381 C2382 1.389 1_556 S
C2382 C2381 1.389 1_554 S
C2382 C2383 1.387 . S
C2383 H2368 0.930 . S
C2383 C2378 1.390 . S
C2383 C2382 1.387 . S
H2384 C2396 0.930 . S
H2385 C2398 0.930 . S
H2386 C2399 0.930 . S
H2387 C2403 0.959 . S
H2388 C2403 0.959 . S
H2389 C2403 0.961 . S
H2390 C2404 0.960 . S
H2391 C2404 0.961 . S
H2392 C2404 0.959 . S
H2393 C2407 0.929 . S
H2394 C2408 0.931 . S
H2395 C2410 0.930 . S
C2396 H2384 0.930 . S
C2396 C2397 1.399 . S
C2396 C2401 1.399 . S
C2397 C2396 1.399 . S
C2397 C2398 1.376 . S
C2398 H2385 0.930 . S
C2398 C2397 1.376 . S
C2398 C2399 1.388 . S
C2399 H2386 0.930 . S
C2399 C2398 1.388 . S
C2399 C2400 1.390 . S
C2400 C2399 1.390 . S
C2400 C2401 1.394 . S
C2400 C2406 1.465 . S
C2401 C2396 1.399 . S
C2401 C2400 1.394 . S
C2401 C2402 1.516 . S
C2402 C2401 1.516 . S
C2402 C2403 1.502 . S
C2402 C2404 1.561 . S
C2402 C2405 1.526 . S
C2403 H2387 0.959 . S
C2403 H2388 0.959 . S
C2403 H2389 0.961 . S
C2403 C2402 1.502 . S
C2404 H2390 0.960 . S
C2404 H2391 0.961 . S
C2404 H2392 0.959 . S
C2404 C2402 1.561 . S
C2405 C2402 1.526 . S
C2405 C2406 1.396 . S
C2405 C2410 1.390 . S
C2406 C2400 1.465 . S
C2406 C2405 1.396 . S
C2406 C2407 1.399 . S
C2407 H2393 0.929 . S
C2407 C2406 1.399 . S
C2407 C2408 1.385 . S
C2408 H2394 0.931 . S
C2408 C2407 1.385 . S
C2408 C2409 1.389 . S
C2409 C2408 1.389 . S
C2409 C2410 1.387 . S
C2410 H2395 0.930 . S
C2410 C2405 1.390 . S
C2410 C2409 1.387 . S
H2411 C2423 0.930 . S
H2412 C2425 0.930 . S
H2413 C2426 0.930 . S
H2414 C2430 0.959 . S
H2415 C2430 0.959 . S
H2416 C2430 0.961 . S
H2417 C2431 0.960 . S
H2418 C2431 0.961 . S
H2419 C2431 0.959 . S
H2420 C2434 0.929 . S
H2421 C2435 0.931 . S
H2422 C2437 0.930 . S
C2423 H2411 0.930 . S
C2423 C2424 1.399 . S
C2423 C2428 1.399 . S
C2424 C2423 1.399 . S
C2424 C2425 1.376 . S
C2425 H2412 0.930 . S
C2425 C2424 1.376 . S
C2425 C2426 1.388 . S
C2426 H2413 0.930 . S
C2426 C2425 1.388 . S
C2426 C2427 1.390 . S
C2427 C2426 1.390 . S
C2427 C2428 1.394 . S
C2427 C2433 1.465 . S
C2428 C2423 1.399 . S
C2428 C2427 1.394 . S
C2428 C2429 1.516 . S
C2429 C2428 1.516 . S
C2429 C2430 1.502 . S
C2429 C2431 1.561 . S
C2429 C2432 1.526 . S
C2430 H2414 0.959 . S
C2430 H2415 0.959 . S
C2430 H2416 0.961 . S
C2430 C2429 1.502 . S
C2431 H2417 0.960 . S
C2431 H2418 0.961 . S
C2431 H2419 0.959 . S
C2431 C2429 1.561 . S
C2432 C2429 1.526 . S
C2432 C2433 1.396 . S
C2432 C2437 1.390 . S
C2433 C2427 1.465 . S
C2433 C2432 1.396 . S
C2433 C2434 1.399 . S
C2434 H2420 0.929 . S
C2434 C2433 1.399 . S
C2434 C2435 1.385 1_455 S
C2435 H2421 0.931 . S
C2435 C2434 1.385 1_655 S
C2435 C2436 1.389 . S
C2436 C2435 1.389 . S
C2436 C2437 1.387 1_655 S
C2437 H2422 0.930 . S
C2437 C2432 1.390 . S
C2437 C2436 1.387 1_455 S
H2438 C2450 0.930 . S
H2439 C2452 0.930 . S
H2440 C2453 0.930 . S
H2441 C2457 0.959 . S
H2442 C2457 0.959 . S
H2443 C2457 0.961 . S
H2444 C2458 0.960 . S
H2445 C2458 0.961 . S
H2446 C2458 0.959 . S
H2447 C2461 0.929 . S
H2448 C2462 0.931 . S
H2449 C2464 0.930 . S
C2450 H2438 0.930 . S
C2450 C2451 1.399 . S
C2450 C2455 1.399 . S
C2451 C2450 1.399 . S
C2451 C2452 1.376 . S
C2452 H2439 0.930 . S
C2452 C2451 1.376 . S
C2452 C2453 1.388 . S
C2453 H2440 0.930 . S
C2453 C2452 1.388 . S
C2453 C2454 1.390 . S
C2454 C2453 1.390 . S
C2454 C2455 1.394 . S
C2454 C2460 1.465 . S
C2455 C2450 1.399 . S
C2455 C2454 1.394 . S
C2455 C2456 1.516 . S
C2456 C2455 1.516 . S
C2456 C2457 1.502 . S
C2456 C2458 1.561 . S
C2456 C2459 1.526 . S
C2457 H2441 0.959 . S
C2457 H2442 0.959 . S
C2457 H2443 0.961 . S
C2457 C2456 1.502 . S
C2458 H2444 0.960 . S
C2458 H2445 0.961 . S
C2458 H2446 0.959 . S
C2458 C2456 1.561 . S
C2459 C2456 1.526 . S
C2459 C2460 1.396 . S
C2459 C2464 1.390 . S
C2460 C2454 1.465 . S
C2460 C2459 1.396 . S
C2460 C2461 1.399 . S
C2461 H2447 0.929 . S
C2461 C2460 1.399 . S
C2461 C2462 1.385 . S
C2462 H2448 0.931 . S
C2462 C2461 1.385 . S
C2462 C2463 1.389 . S
C2463 C2462 1.389 . S
C2463 C2464 1.387 . S
C2464 H2449 0.930 . S
C2464 C2459 1.390 . S
C2464 C2463 1.387 . S
H2465 C2477 0.930 . S
H2466 C2479 0.930 . S
H2467 C2480 0.930 . S
H2468 C2484 0.959 . S
H2469 C2484 0.959 . S
H2470 C2484 0.961 . S
H2471 C2485 0.960 . S
H2472 C2485 0.961 . S
H2473 C2485 0.959 . S
H2474 C2488 0.929 . S
H2475 C2489 0.931 . S
H2476 C2491 0.930 . S
C2477 H2465 0.930 . S
C2477 C2478 1.399 . S
C2477 C2482 1.399 . S
C2478 C2477 1.399 . S
C2478 C2479 1.376 . S
C2479 H2466 0.930 . S
C2479 C2478 1.376 . S
C2479 C2480 1.388 . S
C2480 H2467 0.930 . S
C2480 C2479 1.388 . S
C2480 C2481 1.390 . S
C2481 C2480 1.390 . S
C2481 C2482 1.394 . S
C2481 C2487 1.465 . S
C2482 C2477 1.399 . S
C2482 C2481 1.394 . S
C2482 C2483 1.516 . S
C2483 C2482 1.516 . S
C2483 C2484 1.502 . S
C2483 C2485 1.561 . S
C2483 C2486 1.526 . S
C2484 H2468 0.959 . S
C2484 H2469 0.959 . S
C2484 H2470 0.961 . S
C2484 C2483 1.502 . S
C2485 H2471 0.960 . S
C2485 H2472 0.961 . S
C2485 H2473 0.959 . S
C2485 C2483 1.561 . S
C2486 C2483 1.526 . S
C2486 C2487 1.396 . S
C2486 C2491 1.390 . S
C2487 C2481 1.465 . S
C2487 C2486 1.396 . S
C2487 C2488 1.399 . S
C2488 H2474 0.929 . S
C2488 C2487 1.399 . S
C2488 C2489 1.385 . S
C2489 H2475 0.931 . S
C2489 C2488 1.385 . S
C2489 C2490 1.389 . S
C2490 C2489 1.389 . S
C2490 C2491 1.387 . S
C2491 H2476 0.930 . S
C2491 C2486 1.390 . S
C2491 C2490 1.387 . S
H2492 C2504 0.930 . S
H2493 C2506 0.930 . S
H2494 C2507 0.930 . S
H2495 C2511 0.959 . S
H2496 C2511 0.959 . S
H2497 C2511 0.961 . S
H2498 C2512 0.960 . S
H2499 C2512 0.961 . S
H2500 C2512 0.959 . S
H2501 C2515 0.929 . S
H2502 C2516 0.931 . S
H2503 C2518 0.930 . S
C2504 H2492 0.930 . S
C2504 C2505 1.399 . S
C2504 C2509 1.399 . S
C2505 C2504 1.399 . S
C2505 C2506 1.376 . S
C2506 H2493 0.930 . S
C2506 C2505 1.376 . S
C2506 C2507 1.388 . S
C2507 H2494 0.930 . S
C2507 C2506 1.388 . S
C2507 C2508 1.390 . S
C2508 C2507 1.390 . S
C2508 C2509 1.394 . S
C2508 C2514 1.465 . S
C2509 C2504 1.399 . S
C2509 C2508 1.394 . S
C2509 C2510 1.516 . S
C2510 C2509 1.516 . S
C2510 C2511 1.502 . S
C2510 C2512 1.561 . S
C2510 C2513 1.526 . S
C2511 H2495 0.959 . S
C2511 H2496 0.959 . S
C2511 H2497 0.961 . S
C2511 C2510 1.502 . S
C2512 H2498 0.960 . S
C2512 H2499 0.961 . S
C2512 H2500 0.959 . S
C2512 C2510 1.561 . S
C2513 C2510 1.526 . S
C2513 C2514 1.396 . S
C2513 C2518 1.390 . S
C2514 C2508 1.465 . S
C2514 C2513 1.396 . S
C2514 C2515 1.399 . S
C2515 H2501 0.929 . S
C2515 C2514 1.399 . S
C2515 C2516 1.385 . S
C2516 H2502 0.931 . S
C2516 C2515 1.385 . S
C2516 C2517 1.389 . S
C2517 C2516 1.389 . S
C2517 C2518 1.387 . S
C2518 H2503 0.930 . S
C2518 C2513 1.390 . S
C2518 C2517 1.387 . S
H2519 C2531 0.930 . S
H2520 C2533 0.930 . S
H2521 C2534 0.930 . S
H2522 C2538 0.959 . S
H2523 C2538 0.959 . S
H2524 C2538 0.961 . S
H2525 C2539 0.960 . S
H2526 C2539 0.961 . S
H2527 C2539 0.959 . S
H2528 C2542 0.929 . S
H2529 C2543 0.931 . S
H2530 C2545 0.930 . S
C2531 H2519 0.930 . S
C2531 C2532 1.399 . S
C2531 C2536 1.399 . S
C2532 C2531 1.399 . S
C2532 C2533 1.376 . S
C2533 H2520 0.930 . S
C2533 C2532 1.376 . S
C2533 C2534 1.388 . S
C2534 H2521 0.930 . S
C2534 C2533 1.388 . S
C2534 C2535 1.390 . S
C2535 C2534 1.390 . S
C2535 C2536 1.394 . S
C2535 C2541 1.465 . S
C2536 C2531 1.399 . S
C2536 C2535 1.394 . S
C2536 C2537 1.516 . S
C2537 C2536 1.516 . S
C2537 C2538 1.502 . S
C2537 C2539 1.561 . S
C2537 C2540 1.526 . S
C2538 H2522 0.959 . S
C2538 H2523 0.959 . S
C2538 H2524 0.961 . S
C2538 C2537 1.502 . S
C2539 H2525 0.960 . S
C2539 H2526 0.961 . S
C2539 H2527 0.959 . S
C2539 C2537 1.561 . S
C2540 C2537 1.526 . S
C2540 C2541 1.396 . S
C2540 C2545 1.390 . S
C2541 C2535 1.465 . S
C2541 C2540 1.396 . S
C2541 C2542 1.399 . S
C2542 H2528 0.929 . S
C2542 C2541 1.399 . S
C2542 C2543 1.385 . S
C2543 H2529 0.931 . S
C2543 C2542 1.385 . S
C2543 C2544 1.389 . S
C2544 C2543 1.389 . S
C2544 C2545 1.387 . S
C2545 H2530 0.930 . S
C2545 C2540 1.390 . S
C2545 C2544 1.387 . S
H2546 C2558 0.930 . S
H2547 C2560 0.930 . S
H2548 C2561 0.930 . S
H2549 C2565 0.959 . S
H2550 C2565 0.959 . S
H2551 C2565 0.961 . S
H2552 C2566 0.960 . S
H2553 C2566 0.961 . S
H2554 C2566 0.959 . S
H2555 C2569 0.929 . S
H2556 C2570 0.931 . S
H2557 C2572 0.930 . S
C2558 H2546 0.930 . S
C2558 C2559 1.399 . S
C2558 C2563 1.399 . S
C2559 C2558 1.399 . S
C2559 C2560 1.376 . S
C2560 H2547 0.930 . S
C2560 C2559 1.376 . S
C2560 C2561 1.388 . S
C2561 H2548 0.930 . S
C2561 C2560 1.388 . S
C2561 C2562 1.390 . S
C2562 C2561 1.390 . S
C2562 C2563 1.394 . S
C2562 C2568 1.465 . S
C2563 C2558 1.399 . S
C2563 C2562 1.394 . S
C2563 C2564 1.516 . S
C2564 C2563 1.516 . S
C2564 C2565 1.502 . S
C2564 C2566 1.561 . S
C2564 C2567 1.526 . S
C2565 H2549 0.959 . S
C2565 H2550 0.959 . S
C2565 H2551 0.961 . S
C2565 C2564 1.502 . S
C2566 H2552 0.960 . S
C2566 H2553 0.961 . S
C2566 H2554 0.959 . S
C2566 C2564 1.561 . S
C2567 C2564 1.526 . S
C2567 C2568 1.396 . S
C2567 C2572 1.390 . S
C2568 C2562 1.465 . S
C2568 C2567 1.396 . S
C2568 C2569 1.399 . S
C2569 H2555 0.929 . S
C2569 C2568 1.399 . S
C2569 C2570 1.385 . S
C2570 H2556 0.931 . S
C2570 C2569 1.385 . S
C2570 C2571 1.389 . S
C2571 C2570 1.389 . S
C2571 C2572 1.387 . S
C2572 H2557 0.930 . S
C2572 C2567 1.390 . S
C2572 C2571 1.387 . S
H2573 C2585 0.931 . S
H2574 C2587 0.930 . S
H2575 C2588 0.930 . S
H2576 C2592 0.959 . S
H2577 C2592 0.959 . S
H2578 C2592 0.961 . S
H2579 C2593 0.960 1_655 S
H2580 C2593 0.961 . S
H2581 C2593 0.959 . S
H2582 C2596 0.929 . S
H2583 C2597 0.931 . S
H2584 C2599 0.930 . S
C2585 H2573 0.931 . S
C2585 C2586 1.400 . S
C2585 C2590 1.397 1_655 S
C2586 C2585 1.400 . S
C2586 C2587 1.376 . S
C2587 H2574 0.930 . S
C2587 C2586 1.376 . S
C2587 C2588 1.388 1_655 S
C2588 H2575 0.930 . S
C2588 C2587 1.388 1_455 S
C2588 C2589 1.390 . S
C2589 C2588 1.390 . S
C2589 C2590 1.394 . S
C2589 C2595 1.465 . S
C2590 C2585 1.397 1_455 S
C2590 C2589 1.394 . S
C2590 C2591 1.516 . S
C2591 C2590 1.516 . S
C2591 C2592 1.502 . S
C2591 C2593 1.561 . S
C2591 C2594 1.526 . S
C2592 H2576 0.959 . S
C2592 H2577 0.959 . S
C2592 H2578 0.961 . S
C2592 C2591 1.502 . S
C2593 H2579 0.960 1_455 S
C2593 H2580 0.961 . S
C2593 H2581 0.959 . S
C2593 C2591 1.561 . S
C2594 C2591 1.526 . S
C2594 C2595 1.396 . S
C2594 C2599 1.390 . S
C2595 C2589 1.465 . S
C2595 C2594 1.396 . S
C2595 C2596 1.399 . S
C2596 H2582 0.929 . S
C2596 C2595 1.399 . S
C2596 C2597 1.385 . S
C2597 H2583 0.931 . S
C2597 C2596 1.385 . S
C2597 C2598 1.389 . S
C2598 C2597 1.389 . S
C2598 C2599 1.387 . S
C2599 H2584 0.930 . S
C2599 C2594 1.390 . S
C2599 C2598 1.387 . S
H2600 C2612 0.930 . S
H2601 C2614 0.930 . S
H2602 C2615 0.930 . S
H2603 C2619 0.959 . S
H2604 C2619 0.959 . S
H2605 C2619 0.961 . S
H2606 C2620 0.960 . S
H2607 C2620 0.961 . S
H2608 C2620 0.959 . S
H2609 C2623 0.929 . S
H2610 C2624 0.931 . S
H2611 C2626 0.930 . S
C2612 H2600 0.930 . S
C2612 C2613 1.399 . S
C2612 C2617 1.399 . S
C2613 C2612 1.399 . S
C2613 C2614 1.376 . S
C2614 H2601 0.930 . S
C2614 C2613 1.376 . S
C2614 C2615 1.388 . S
C2615 H2602 0.930 . S
C2615 C2614 1.388 . S
C2615 C2616 1.390 . S
C2616 C2615 1.390 . S
C2616 C2617 1.394 . S
C2616 C2622 1.465 . S
C2617 C2612 1.399 . S
C2617 C2616 1.394 . S
C2617 C2618 1.516 . S
C2618 C2617 1.516 . S
C2618 C2619 1.502 . S
C2618 C2620 1.561 . S
C2618 C2621 1.526 . S
C2619 H2603 0.959 . S
C2619 H2604 0.959 . S
C2619 H2605 0.961 . S
C2619 C2618 1.502 . S
C2620 H2606 0.960 . S
C2620 H2607 0.961 . S
C2620 H2608 0.959 . S
C2620 C2618 1.561 . S
C2621 C2618 1.526 . S
C2621 C2622 1.396 . S
C2621 C2626 1.390 . S
C2622 C2616 1.465 . S
C2622 C2621 1.396 . S
C2622 C2623 1.399 . S
C2623 H2609 0.929 . S
C2623 C2622 1.399 . S
C2623 C2624 1.385 . S
C2624 H2610 0.931 . S
C2624 C2623 1.385 . S
C2624 C2625 1.389 . S
C2625 C2624 1.389 . S
C2625 C2626 1.387 . S
C2626 H2611 0.930 . S
C2626 C2621 1.390 . S
C2626 C2625 1.387 . S
H2627 C2639 0.930 . S
H2628 C2641 0.930 . S
H2629 C2642 0.930 . S
H2630 C2646 0.959 . S
H2631 C2646 0.959 . S
H2632 C2646 0.961 . S
H2633 C2647 0.960 . S
H2634 C2647 0.961 . S
H2635 C2647 0.959 . S
H2636 C2650 0.929 . S
H2637 C2651 0.931 . S
H2638 C2653 0.930 . S
C2639 H2627 0.930 . S
C2639 C2640 1.399 . S
C2639 C2644 1.399 . S
C2640 C2639 1.399 . S
C2640 C2641 1.376 . S
C2641 H2628 0.930 . S
C2641 C2640 1.376 . S
C2641 C2642 1.388 . S
C2642 H2629 0.930 . S
C2642 C2641 1.388 . S
C2642 C2643 1.390 . S
C2643 C2642 1.390 . S
C2643 C2644 1.394 . S
C2643 C2649 1.465 . S
C2644 C2639 1.399 . S
C2644 C2643 1.394 . S
C2644 C2645 1.516 . S
C2645 C2644 1.516 . S
C2645 C2646 1.502 . S
C2645 C2647 1.561 . S
C2645 C2648 1.526 . S
C2646 H2630 0.959 . S
C2646 H2631 0.959 . S
C2646 H2632 0.961 . S
C2646 C2645 1.502 . S
C2647 H2633 0.960 . S
C2647 H2634 0.961 . S
C2647 H2635 0.959 . S
C2647 C2645 1.561 . S
C2648 C2645 1.526 . S
C2648 C2649 1.396 . S
C2648 C2653 1.390 . S
C2649 C2643 1.465 . S
C2649 C2648 1.396 . S
C2649 C2650 1.399 . S
C2650 H2636 0.929 . S
C2650 C2649 1.399 . S
C2650 C2651 1.385 . S
C2651 H2637 0.931 . S
C2651 C2650 1.385 . S
C2651 C2652 1.389 . S
C2652 C2651 1.389 . S
C2652 C2653 1.387 . S
C2653 H2638 0.930 . S
C2653 C2648 1.390 . S
C2653 C2652 1.387 . S
H2654 C2666 0.930 . S
H2655 C2668 0.930 . S
H2656 C2669 0.930 . S
H2657 C2673 0.959 . S
H2658 C2673 0.959 . S
H2659 C2673 0.961 . S
H2660 C2674 0.960 . S
H2661 C2674 0.961 . S
H2662 C2674 0.959 . S
H2663 C2677 0.929 . S
H2664 C2678 0.931 . S
H2665 C2680 0.930 . S
C2666 H2654 0.930 . S
C2666 C2667 1.399 . S
C2666 C2671 1.399 . S
C2667 C2666 1.399 . S
C2667 C2668 1.376 . S
C2668 H2655 0.930 . S
C2668 C2667 1.376 . S
C2668 C2669 1.388 . S
C2669 H2656 0.930 . S
C2669 C2668 1.388 . S
C2669 C2670 1.390 . S
C2670 C2669 1.390 . S
C2670 C2671 1.394 . S
C2670 C2676 1.465 . S
C2671 C2666 1.399 . S
C2671 C2670 1.394 . S
C2671 C2672 1.516 . S
C2672 C2671 1.516 . S
C2672 C2673 1.502 . S
C2672 C2674 1.561 . S
C2672 C2675 1.526 . S
C2673 H2657 0.959 . S
C2673 H2658 0.959 . S
C2673 H2659 0.961 . S
C2673 C2672 1.502 . S
C2674 H2660 0.960 . S
C2674 H2661 0.961 . S
C2674 H2662 0.959 . S
C2674 C2672 1.561 . S
C2675 C2672 1.526 . S
C2675 C2676 1.396 . S
C2675 C2680 1.390 . S
C2676 C2670 1.465 . S
C2676 C2675 1.396 . S
C2676 C2677 1.399 . S
C2677 H2663 0.929 . S
C2677 C2676 1.399 . S
C2677 C2678 1.385 . S
C2678 H2664 0.931 . S
C2678 C2677 1.385 . S
C2678 C2679 1.389 . S
C2679 C2678 1.389 . S
C2679 C2680 1.387 . S
C2680 H2665 0.930 . S
C2680 C2675 1.390 . S
C2680 C2679 1.387 . S
H2681 C2693 0.930 . S
H2682 C2695 0.930 . S
H2683 C2696 0.930 . S
H2684 C2700 0.959 . S
H2685 C2700 0.959 . S
H2686 C2700 0.961 . S
H2687 C2701 0.960 . S
H2688 C2701 0.961 . S
H2689 C2701 0.959 . S
H2690 C2704 0.929 . S
H2691 C2705 0.931 . S
H2692 C2707 0.930 . S
C2693 H2681 0.930 . S
C2693 C2694 1.399 . S
C2693 C2698 1.399 . S
C2694 C2693 1.399 . S
C2694 C2695 1.376 . S
C2695 H2682 0.930 . S
C2695 C2694 1.376 . S
C2695 C2696 1.388 . S
C2696 H2683 0.930 . S
C2696 C2695 1.388 . S
C2696 C2697 1.390 . S
C2697 C2696 1.390 . S
C2697 C2698 1.394 . S
C2697 C2703 1.465 . S
C2698 C2693 1.399 . S
C2698 C2697 1.394 . S
C2698 C2699 1.516 . S
C2699 C2698 1.516 . S
C2699 C2700 1.502 . S
C2699 C2701 1.561 . S
C2699 C2702 1.526 . S
C2700 H2684 0.959 . S
C2700 H2685 0.959 . S
C2700 H2686 0.961 . S
C2700 C2699 1.502 . S
C2701 H2687 0.960 . S
C2701 H2688 0.961 . S
C2701 H2689 0.959 . S
C2701 C2699 1.561 . S
C2702 C2699 1.526 . S
C2702 C2703 1.396 . S
C2702 C2707 1.390 . S
C2703 C2697 1.465 . S
C2703 C2702 1.396 . S
C2703 C2704 1.399 . S
C2704 H2690 0.929 . S
C2704 C2703 1.399 . S
C2704 C2705 1.385 . S
C2705 H2691 0.931 . S
C2705 C2704 1.385 . S
C2705 C2706 1.389 . S
C2706 C2705 1.389 . S
C2706 C2707 1.387 . S
C2707 H2692 0.930 . S
C2707 C2702 1.390 . S
C2707 C2706 1.387 . S
H2708 C2720 0.930 . S
H2709 C2722 0.930 . S
H2710 C2723 0.930 . S
H2711 C2727 0.959 . S
H2712 C2727 0.959 . S
H2713 C2727 0.961 . S
H2714 C2728 0.960 . S
H2715 C2728 0.961 . S
H2716 C2728 0.959 . S
H2717 C2731 0.929 . S
H2718 C2732 0.931 . S
H2719 C2734 0.930 . S
C2720 H2708 0.930 . S
C2720 C2721 1.399 . S
C2720 C2725 1.399 . S
C2721 C2720 1.399 . S
C2721 C2722 1.376 . S
C2722 H2709 0.930 . S
C2722 C2721 1.376 . S
C2722 C2723 1.388 . S
C2723 H2710 0.930 . S
C2723 C2722 1.388 . S
C2723 C2724 1.390 . S
C2724 C2723 1.390 . S
C2724 C2725 1.394 . S
C2724 C2730 1.465 . S
C2725 C2720 1.399 . S
C2725 C2724 1.394 . S
C2725 C2726 1.516 . S
C2726 C2725 1.516 . S
C2726 C2727 1.502 . S
C2726 C2728 1.561 . S
C2726 C2729 1.526 . S
C2727 H2711 0.959 . S
C2727 H2712 0.959 . S
C2727 H2713 0.961 . S
C2727 C2726 1.502 . S
C2728 H2714 0.960 . S
C2728 H2715 0.961 . S
C2728 H2716 0.959 . S
C2728 C2726 1.561 . S
C2729 C2726 1.526 . S
C2729 C2730 1.396 . S
C2729 C2734 1.390 . S
C2730 C2724 1.465 . S
C2730 C2729 1.396 . S
C2730 C2731 1.399 . S
C2731 H2717 0.929 . S
C2731 C2730 1.399 . S
C2731 C2732 1.385 . S
C2732 H2718 0.931 . S
C2732 C2731 1.385 . S
C2732 C2733 1.389 . S
C2733 C2732 1.389 . S
C2733 C2734 1.387 . S
C2734 H2719 0.930 . S
C2734 C2729 1.390 . S
C2734 C2733 1.387 . S
H2735 C2747 0.930 . S
H2736 C2749 0.930 . S
H2737 C2750 0.930 . S
H2738 C2754 0.959 . S
H2739 C2754 0.959 . S
H2740 C2754 0.961 . S
H2741 C2755 0.960 . S
H2742 C2755 0.961 . S
H2743 C2755 0.959 . S
H2744 C2758 0.929 . S
H2745 C2759 0.931 . S
H2746 C2761 0.930 . S
C2747 H2735 0.930 . S
C2747 C2748 1.399 . S
C2747 C2752 1.399 . S
C2748 C2747 1.399 . S
C2748 C2749 1.376 . S
C2749 H2736 0.930 . S
C2749 C2748 1.376 . S
C2749 C2750 1.388 . S
C2750 H2737 0.930 . S
C2750 C2749 1.388 . S
C2750 C2751 1.390 . S
C2751 C2750 1.390 . S
C2751 C2752 1.394 . S
C2751 C2757 1.465 . S
C2752 C2747 1.399 . S
C2752 C2751 1.394 . S
C2752 C2753 1.516 . S
C2753 C2752 1.516 . S
C2753 C2754 1.502 . S
C2753 C2755 1.561 . S
C2753 C2756 1.526 . S
C2754 H2738 0.959 . S
C2754 H2739 0.959 . S
C2754 H2740 0.961 . S
C2754 C2753 1.502 . S
C2755 H2741 0.960 . S
C2755 H2742 0.961 . S
C2755 H2743 0.959 . S
C2755 C2753 1.561 . S
C2756 C2753 1.526 . S
C2756 C2757 1.396 . S
C2756 C2761 1.390 . S
C2757 C2751 1.465 . S
C2757 C2756 1.396 . S
C2757 C2758 1.399 . S
C2758 H2744 0.929 . S
C2758 C2757 1.399 . S
C2758 C2759 1.385 . S
C2759 H2745 0.931 . S
C2759 C2758 1.385 . S
C2759 C2760 1.389 . S
C2760 C2759 1.389 . S
C2760 C2761 1.387 . S
C2761 H2746 0.930 . S
C2761 C2756 1.390 . S
C2761 C2760 1.387 . S
H2762 C2774 0.930 . S
H2763 C2776 0.930 . S
H2764 C2777 0.930 . S
H2765 C2781 0.959 . S
H2766 C2781 0.959 . S
H2767 C2781 0.961 . S
H2768 C2782 0.960 . S
H2769 C2782 0.961 . S
H2770 C2782 0.959 . S
H2771 C2785 0.929 . S
H2772 C2786 0.931 . S
H2773 C2788 0.930 . S
C2774 H2762 0.930 . S
C2774 C2775 1.399 . S
C2774 C2779 1.399 . S
C2775 C2774 1.399 . S
C2775 C2776 1.376 . S
C2776 H2763 0.930 . S
C2776 C2775 1.376 . S
C2776 C2777 1.388 . S
C2777 H2764 0.930 . S
C2777 C2776 1.388 . S
C2777 C2778 1.390 . S
C2778 C2777 1.390 . S
C2778 C2779 1.394 . S
C2778 C2784 1.465 . S
C2779 C2774 1.399 . S
C2779 C2778 1.394 . S
C2779 C2780 1.516 . S
C2780 C2779 1.516 . S
C2780 C2781 1.502 . S
C2780 C2782 1.561 . S
C2780 C2783 1.526 . S
C2781 H2765 0.959 . S
C2781 H2766 0.959 . S
C2781 H2767 0.961 . S
C2781 C2780 1.502 . S
C2782 H2768 0.960 . S
C2782 H2769 0.961 . S
C2782 H2770 0.959 . S
C2782 C2780 1.561 . S
C2783 C2780 1.526 . S
C2783 C2784 1.396 . S
C2783 C2788 1.390 . S
C2784 C2778 1.465 . S
C2784 C2783 1.396 . S
C2784 C2785 1.399 . S
C2785 H2771 0.929 . S
C2785 C2784 1.399 . S
C2785 C2786 1.385 . S
C2786 H2772 0.931 . S
C2786 C2785 1.385 . S
C2786 C2787 1.389 . S
C2787 C2786 1.389 . S
C2787 C2788 1.387 . S
C2788 H2773 0.930 . S
C2788 C2783 1.390 . S
C2788 C2787 1.387 . S
H2789 C2801 0.930 . S
H2790 C2803 0.904 1_455 S
H2791 C2804 0.930 . S
H2792 C2808 0.959 . S
H2793 C2808 0.959 . S
H2794 C2808 0.961 . S
H2795 C2809 0.960 . S
H2796 C2809 0.961 . S
H2797 C2809 0.959 . S
H2798 C2812 0.929 . S
H2799 C2813 0.931 . S
H2800 C2815 0.930 . S
C2801 H2789 0.930 . S
C2801 C2802 1.399 . S
C2801 C2806 1.399 . S
C2802 C2801 1.399 . S
C2802 C2803 1.376 . S
C2803 H2790 0.904 1_655 S
C2803 C2802 1.376 . S
C2803 C2804 1.388 . S
C2804 H2791 0.930 . S
C2804 C2803 1.388 . S
C2804 C2805 1.390 . S
C2805 C2804 1.390 . S
C2805 C2806 1.394 . S
C2805 C2811 1.465 . S
C2806 C2801 1.399 . S
C2806 C2805 1.394 . S
C2806 C2807 1.516 . S
C2807 C2806 1.516 . S
C2807 C2808 1.502 . S
C2807 C2809 1.561 . S
C2807 C2810 1.526 . S
C2808 H2792 0.959 . S
C2808 H2793 0.959 . S
C2808 H2794 0.961 . S
C2808 C2807 1.502 . S
C2809 H2795 0.960 . S
C2809 H2796 0.961 . S
C2809 H2797 0.959 . S
C2809 C2807 1.561 . S
C2810 C2807 1.526 . S
C2810 C2811 1.396 . S
C2810 C2815 1.390 . S
C2811 C2805 1.465 . S
C2811 C2810 1.396 . S
C2811 C2812 1.399 . S
C2812 H2798 0.929 . S
C2812 C2811 1.399 . S
C2812 C2813 1.385 . S
C2813 H2799 0.931 . S
C2813 C2812 1.385 . S
C2813 C2814 1.389 . S
C2814 C2813 1.389 . S
C2814 C2815 1.387 . S
C2815 H2800 0.930 . S
C2815 C2810 1.390 . S
C2815 C2814 1.387 . S
H2816 C2828 0.930 . S
H2817 C2830 0.930 . S
H2818 C2831 0.930 . S
H2819 C2835 0.959 . S
H2820 C2835 0.959 . S
H2821 C2835 0.961 . S
H2822 C2836 0.960 . S
H2823 C2836 0.961 . S
H2824 C2836 0.959 . S
H2825 C2839 0.929 . S
H2826 C2840 0.931 . S
H2827 C2842 0.930 . S
C2828 H2816 0.930 . S
C2828 C2829 1.399 . S
C2828 C2833 1.399 . S
C2829 C2828 1.399 . S
C2829 C2830 1.376 . S
C2830 H2817 0.930 . S
C2830 C2829 1.376 . S
C2830 C2831 1.388 . S
C2831 H2818 0.930 . S
C2831 C2830 1.388 . S
C2831 C2832 1.390 . S
C2832 C2831 1.390 . S
C2832 C2833 1.394 . S
C2832 C2838 1.465 . S
C2833 C2828 1.399 . S
C2833 C2832 1.394 . S
C2833 C2834 1.516 . S
C2834 C2833 1.516 . S
C2834 C2835 1.502 . S
C2834 C2836 1.561 . S
C2834 C2837 1.526 . S
C2835 H2819 0.959 . S
C2835 H2820 0.959 . S
C2835 H2821 0.961 . S
C2835 C2834 1.502 . S
C2836 H2822 0.960 . S
C2836 H2823 0.961 . S
C2836 H2824 0.959 . S
C2836 C2834 1.561 . S
C2837 C2834 1.526 . S
C2837 C2838 1.396 . S
C2837 C2842 1.390 . S
C2838 C2832 1.465 . S
C2838 C2837 1.396 . S
C2838 C2839 1.399 . S
C2839 H2825 0.929 . S
C2839 C2838 1.399 . S
C2839 C2840 1.385 . S
C2840 H2826 0.931 . S
C2840 C2839 1.385 . S
C2840 C2841 1.389 . S
C2841 C2840 1.389 . S
C2841 C2842 1.387 . S
C2842 H2827 0.930 . S
C2842 C2837 1.390 . S
C2842 C2841 1.387 . S
H2843 C2855 0.930 . S
H2844 C2857 0.930 . S
H2845 C2858 0.930 . S
H2846 C2862 0.959 . S
H2847 C2862 0.959 . S
H2848 C2862 0.961 . S
H2849 C2863 0.960 . S
H2850 C2863 0.961 . S
H2851 C2863 0.959 . S
H2852 C2866 0.929 . S
H2853 C2867 0.931 . S
H2854 C2869 0.930 . S
C2855 H2843 0.930 . S
C2855 C2856 1.399 . S
C2855 C2860 1.399 . S
C2856 C2855 1.399 . S
C2856 C2857 1.376 . S
C2857 H2844 0.930 . S
C2857 C2856 1.376 . S
C2857 C2858 1.388 . S
C2858 H2845 0.930 . S
C2858 C2857 1.388 . S
C2858 C2859 1.390 . S
C2859 C2858 1.390 . S
C2859 C2860 1.394 . S
C2859 C2865 1.465 . S
C2860 C2855 1.399 . S
C2860 C2859 1.394 . S
C2860 C2861 1.516 . S
C2861 C2860 1.516 . S
C2861 C2862 1.502 . S
C2861 C2863 1.561 . S
C2861 C2864 1.526 . S
C2862 H2846 0.959 . S
C2862 H2847 0.959 . S
C2862 H2848 0.961 . S
C2862 C2861 1.502 . S
C2863 H2849 0.960 . S
C2863 H2850 0.961 . S
C2863 H2851 0.959 . S
C2863 C2861 1.561 . S
C2864 C2861 1.526 . S
C2864 C2865 1.396 . S
C2864 C2869 1.390 . S
C2865 C2859 1.465 . S
C2865 C2864 1.396 . S
C2865 C2866 1.399 . S
C2866 H2852 0.929 . S
C2866 C2865 1.399 . S
C2866 C2867 1.385 . S
C2867 H2853 0.931 . S
C2867 C2866 1.385 . S
C2867 C2868 1.389 . S
C2868 C2867 1.389 . S
C2868 C2869 1.387 . S
C2869 H2854 0.930 . S
C2869 C2864 1.390 . S
C2869 C2868 1.387 . S
H2870 C2882 0.930 . S
H2871 C2884 0.930 . S
H2872 C2885 0.930 . S
H2873 C2889 0.959 . S
H2874 C2889 0.959 . S
H2875 C2889 0.961 . S
H2876 C2890 0.960 . S
H2877 C2890 0.961 . S
H2878 C2890 0.959 . S
H2879 C2893 0.929 . S
H2880 C2894 0.931 . S
H2881 C2896 0.930 . S
C2882 H2870 0.930 . S
C2882 C2883 1.399 . S
C2882 C2887 1.399 . S
C2883 C2882 1.399 . S
C2883 C2884 1.376 . S
C2884 H2871 0.930 . S
C2884 C2883 1.376 . S
C2884 C2885 1.388 . S
C2885 H2872 0.930 . S
C2885 C2884 1.388 . S
C2885 C2886 1.390 . S
C2886 C2885 1.390 . S
C2886 C2887 1.394 . S
C2886 C2892 1.465 . S
C2887 C2882 1.399 . S
C2887 C2886 1.394 . S
C2887 C2888 1.516 . S
C2888 C2887 1.516 . S
C2888 C2889 1.502 . S
C2888 C2890 1.561 . S
C2888 C2891 1.526 . S
C2889 H2873 0.959 . S
C2889 H2874 0.959 . S
C2889 H2875 0.961 . S
C2889 C2888 1.502 . S
C2890 H2876 0.960 . S
C2890 H2877 0.961 . S
C2890 H2878 0.959 . S
C2890 C2888 1.561 . S
C2891 C2888 1.526 . S
C2891 C2892 1.396 . S
C2891 C2896 1.390 . S
C2892 C2886 1.465 . S
C2892 C2891 1.396 . S
C2892 C2893 1.399 . S
C2893 H2879 0.929 . S
C2893 C2892 1.399 . S
C2893 C2894 1.385 . S
C2894 H2880 0.931 . S
C2894 C2893 1.385 . S
C2894 C2895 1.389 . S
C2895 C2894 1.389 . S
C2895 C2896 1.387 . S
C2896 H2881 0.930 . S
C2896 C2891 1.390 . S
C2896 C2895 1.387 . S
H2897 C2909 0.930 . S
H2898 C2911 0.930 . S
H2899 C2912 0.930 . S
H2900 C2916 0.959 . S
H2901 C2916 0.959 . S
H2902 C2916 0.961 . S
H2903 C2917 0.960 1_455 S
H2904 C2917 0.961 . S
H2905 C2917 0.959 1_455 S
H2906 C2920 0.929 . S
H2907 C2921 0.931 . S
H2908 C2923 0.930 . S
C2909 H2897 0.930 . S
C2909 C2910 1.399 . S
C2909 C2914 1.399 1_455 S
C2910 C2909 1.399 . S
C2910 C2911 1.376 1_455 S
C2911 H2898 0.930 . S
C2911 C2910 1.376 1_655 S
C2911 C2912 1.388 . S
C2912 H2899 0.930 . S
C2912 C2911 1.388 . S
C2912 C2913 1.390 . S
C2913 C2912 1.390 . S
C2913 C2914 1.394 . S
C2913 C2919 1.465 . S
C2914 C2909 1.399 1_655 S
C2914 C2913 1.394 . S
C2914 C2915 1.516 . S
C2915 C2914 1.516 . S
C2915 C2916 1.502 . S
C2915 C2917 1.561 . S
C2915 C2918 1.526 . S
C2916 H2900 0.959 . S
C2916 H2901 0.959 . S
C2916 H2902 0.961 . S
C2916 C2915 1.502 . S
C2917 H2903 0.960 1_655 S
C2917 H2904 0.961 . S
C2917 H2905 0.959 1_655 S
C2917 C2915 1.561 . S
C2918 C2915 1.526 . S
C2918 C2919 1.396 . S
C2918 C2923 1.390 . S
C2919 C2913 1.465 . S
C2919 C2918 1.396 . S
C2919 C2920 1.399 . S
C2920 H2906 0.929 . S
C2920 C2919 1.399 . S
C2920 C2921 1.385 . S
C2921 H2907 0.931 . S
C2921 C2920 1.385 . S
C2921 C2922 1.389 . S
C2922 C2921 1.389 . S
C2922 C2923 1.387 . S
C2923 H2908 0.930 . S
C2923 C2918 1.390 . S
C2923 C2922 1.387 . S
H2924 C2936 0.930 . S
H2925 C2938 0.930 . S
H2926 C2939 0.930 . S
H2927 C2943 0.959 . S
H2928 C2943 0.959 . S
H2929 C2943 0.961 . S
H2930 C2944 0.960 . S
H2931 C2944 0.961 . S
H2932 C2944 0.959 . S
H2933 C2947 0.929 . S
H2934 C2948 0.931 . S
H2935 C2950 0.930 . S
C2936 H2924 0.930 . S
C2936 C2937 1.399 . S
C2936 C2941 1.399 . S
C2937 C2936 1.399 . S
C2937 C2938 1.376 . S
C2938 H2925 0.930 . S
C2938 C2937 1.376 . S
C2938 C2939 1.388 . S
C2939 H2926 0.930 . S
C2939 C2938 1.388 . S
C2939 C2940 1.390 . S
C2940 C2939 1.390 . S
C2940 C2941 1.394 . S
C2940 C2946 1.465 . S
C2941 C2936 1.399 . S
C2941 C2940 1.394 . S
C2941 C2942 1.516 . S
C2942 C2941 1.516 . S
C2942 C2943 1.502 . S
C2942 C2944 1.561 . S
C2942 C2945 1.526 . S
C2943 H2927 0.959 . S
C2943 H2928 0.959 . S
C2943 H2929 0.961 . S
C2943 C2942 1.502 . S
C2944 H2930 0.960 . S
C2944 H2931 0.961 . S
C2944 H2932 0.959 . S
C2944 C2942 1.561 . S
C2945 C2942 1.526 . S
C2945 C2946 1.396 . S
C2945 C2950 1.390 . S
C2946 C2940 1.465 . S
C2946 C2945 1.396 . S
C2946 C2947 1.399 . S
C2947 H2933 0.929 . S
C2947 C2946 1.399 . S
C2947 C2948 1.385 . S
C2948 H2934 0.931 . S
C2948 C2947 1.385 . S
C2948 C2949 1.389 . S
C2949 C2948 1.389 . S
C2949 C2950 1.387 . S
C2950 H2935 0.930 . S
C2950 C2945 1.390 . S
C2950 C2949 1.387 . S
H2951 C2963 0.930 . S
H2952 C2965 0.930 . S
H2953 C2966 0.930 . S
H2954 C2970 0.959 . S
H2955 C2970 0.959 . S
H2956 C2970 0.961 . S
H2957 C2971 0.960 . S
H2958 C2971 0.961 . S
H2959 C2971 0.959 . S
H2960 C2974 0.933 . S
H2961 C2975 0.931 . S
H2962 C2977 0.930 . S
C2963 H2951 0.930 . S
C2963 C2964 1.399 . S
C2963 C2968 1.399 . S
C2964 C2963 1.399 . S
C2964 C2965 1.376 . S
C2965 H2952 0.930 . S
C2965 C2964 1.376 . S
C2965 C2966 1.388 . S
C2966 H2953 0.930 . S
C2966 C2965 1.388 . S
C2966 C2967 1.390 . S
C2967 C2966 1.390 . S
C2967 C2968 1.394 . S
C2967 C2973 1.465 . S
C2968 C2963 1.399 . S
C2968 C2967 1.394 . S
C2968 C2969 1.516 . S
C2969 C2968 1.516 . S
C2969 C2970 1.502 . S
C2969 C2971 1.561 . S
C2969 C2972 1.526 . S
C2970 H2954 0.959 . S
C2970 H2955 0.959 . S
C2970 H2956 0.961 . S
C2970 C2969 1.502 . S
C2971 H2957 0.960 . S
C2971 H2958 0.961 . S
C2971 H2959 0.959 . S
C2971 C2969 1.561 . S
C2972 C2969 1.526 . S
C2972 C2973 1.396 . S
C2972 C2977 1.390 . S
C2973 C2967 1.465 . S
C2973 C2972 1.396 . S
C2973 C2974 1.399 . S
C2974 H2960 0.933 . S
C2974 C2973 1.399 . S
C2974 C2975 1.385 1_655 S
C2975 H2961 0.931 . S
C2975 C2974 1.385 1_455 S
C2975 C2976 1.389 . S
C2976 C2975 1.389 . S
C2976 C2977 1.387 1_455 S
C2977 H2962 0.930 . S
C2977 C2972 1.390 . S
C2977 C2976 1.387 1_655 S
H2978 C2990 0.930 . S
H2979 C2992 0.930 . S
H2980 C2993 0.930 . S
H2981 C2997 0.959 . S
H2982 C2997 0.959 . S
H2983 C2997 0.961 . S
H2984 C2998 0.960 . S
H2985 C2998 0.961 . S
H2986 C2998 0.959 . S
H2987 C3001 0.929 . S
H2988 C3002 0.931 . S
H2989 C3004 0.930 . S
C2990 H2978 0.930 . S
C2990 C2991 1.399 . S
C2990 C2995 1.399 . S
C2991 C2990 1.399 . S
C2991 C2992 1.376 . S
C2992 H2979 0.930 . S
C2992 C2991 1.376 . S
C2992 C2993 1.388 . S
C2993 H2980 0.930 . S
C2993 C2992 1.388 . S
C2993 C2994 1.390 . S
C2994 C2993 1.390 . S
C2994 C2995 1.394 . S
C2994 C3000 1.465 . S
C2995 C2990 1.399 . S
C2995 C2994 1.394 . S
C2995 C2996 1.516 . S
C2996 C2995 1.516 . S
C2996 C2997 1.502 . S
C2996 C2998 1.561 . S
C2996 C2999 1.526 . S
C2997 H2981 0.959 . S
C2997 H2982 0.959 . S
C2997 H2983 0.961 . S
C2997 C2996 1.502 . S
C2998 H2984 0.960 . S
C2998 H2985 0.961 . S
C2998 H2986 0.959 . S
C2998 C2996 1.561 . S
C2999 C2996 1.526 . S
C2999 C3000 1.396 . S
C2999 C3004 1.390 . S
C3000 C2994 1.465 . S
C3000 C2999 1.396 . S
C3000 C3001 1.399 . S
C3001 H2987 0.929 . S
C3001 C3000 1.399 . S
C3001 C3002 1.385 . S
C3002 H2988 0.931 . S
C3002 C3001 1.385 . S
C3002 C3003 1.389 . S
C3003 C3002 1.389 . S
C3003 C3004 1.387 . S
C3004 H2989 0.930 . S
C3004 C2999 1.390 . S
C3004 C3003 1.387 . S
H3005 C3017 0.930 . S
H3006 C3019 0.930 . S
H3007 C3020 0.930 . S
H3008 C3024 0.959 . S
H3009 C3024 0.959 . S
H3010 C3024 0.961 . S
H3011 C3025 0.960 . S
H3012 C3025 0.961 . S
H3013 C3025 0.959 . S
H3014 C3028 0.929 . S
H3015 C3029 0.931 . S
H3016 C3031 0.930 . S
C3017 H3005 0.930 . S
C3017 C3018 1.399 . S
C3017 C3022 1.399 . S
C3018 C3017 1.399 . S
C3018 C3019 1.376 . S
C3019 H3006 0.930 . S
C3019 C3018 1.376 . S
C3019 C3020 1.388 . S
C3020 H3007 0.930 . S
C3020 C3019 1.388 . S
C3020 C3021 1.390 . S
C3021 C3020 1.390 . S
C3021 C3022 1.394 . S
C3021 C3027 1.465 . S
C3022 C3017 1.399 . S
C3022 C3021 1.394 . S
C3022 C3023 1.516 . S
C3023 C3022 1.516 . S
C3023 C3024 1.502 . S
C3023 C3025 1.561 . S
C3023 C3026 1.526 . S
C3024 H3008 0.959 . S
C3024 H3009 0.959 . S
C3024 H3010 0.961 . S
C3024 C3023 1.502 . S
C3025 H3011 0.960 . S
C3025 H3012 0.961 . S
C3025 H3013 0.959 . S
C3025 C3023 1.561 . S
C3026 C3023 1.526 . S
C3026 C3027 1.396 . S
C3026 C3031 1.390 . S
C3027 C3021 1.465 . S
C3027 C3026 1.396 . S
C3027 C3028 1.399 . S
C3028 H3014 0.929 . S
C3028 C3027 1.399 . S
C3028 C3029 1.385 . S
C3029 H3015 0.931 . S
C3029 C3028 1.385 . S
C3029 C3030 1.389 . S
C3030 C3029 1.389 . S
C3030 C3031 1.387 . S
C3031 H3016 0.930 . S
C3031 C3026 1.390 . S
C3031 C3030 1.387 . S
H3032 C3044 0.930 . S
H3033 C3046 0.930 . S
H3034 C3047 0.930 . S
H3035 C3051 0.959 . S
H3036 C3051 0.959 . S
H3037 C3051 0.961 . S
H3038 C3052 0.960 . S
H3039 C3052 0.961 . S
H3040 C3052 0.959 . S
H3041 C3055 0.929 . S
H3042 C3056 0.931 . S
H3043 C3058 0.930 . S
C3044 H3032 0.930 . S
C3044 C3045 1.399 . S
C3044 C3049 1.399 . S
C3045 C3044 1.399 . S
C3045 C3046 1.376 . S
C3046 H3033 0.930 . S
C3046 C3045 1.376 . S
C3046 C3047 1.388 . S
C3047 H3034 0.930 . S
C3047 C3046 1.388 . S
C3047 C3048 1.390 . S
C3048 C3047 1.390 . S
C3048 C3049 1.394 . S
C3048 C3054 1.465 . S
C3049 C3044 1.399 . S
C3049 C3048 1.394 . S
C3049 C3050 1.516 . S
C3050 C3049 1.516 . S
C3050 C3051 1.502 . S
C3050 C3052 1.561 . S
C3050 C3053 1.526 . S
C3051 H3035 0.959 . S
C3051 H3036 0.959 . S
C3051 H3037 0.961 . S
C3051 C3050 1.502 . S
C3052 H3038 0.960 . S
C3052 H3039 0.961 . S
C3052 H3040 0.959 . S
C3052 C3050 1.561 . S
C3053 C3050 1.526 . S
C3053 C3054 1.396 . S
C3053 C3058 1.390 . S
C3054 C3048 1.465 . S
C3054 C3053 1.396 . S
C3054 C3055 1.399 . S
C3055 H3041 0.929 . S
C3055 C3054 1.399 . S
C3055 C3056 1.385 . S
C3056 H3042 0.931 . S
C3056 C3055 1.385 . S
C3056 C3057 1.389 . S
C3057 C3056 1.389 . S
C3057 C3058 1.387 . S
C3058 H3043 0.930 . S
C3058 C3053 1.390 . S
C3058 C3057 1.387 . S
H3059 C3071 0.930 . S
H3060 C3073 0.930 . S
H3061 C3074 0.930 . S
H3062 C3078 0.959 . S
H3063 C3078 0.959 . S
H3064 C3078 0.961 . S
H3065 C3079 0.960 . S
H3066 C3079 0.961 . S
H3067 C3079 0.959 . S
H3068 C3082 0.929 . S
H3069 C3083 0.931 . S
H3070 C3085 0.930 . S
C3071 H3059 0.930 . S
C3071 C3072 1.399 . S
C3071 C3076 1.399 . S
C3072 C3071 1.399 . S
C3072 C3073 1.376 . S
C3073 H3060 0.930 . S
C3073 C3072 1.376 . S
C3073 C3074 1.388 . S
C3074 H3061 0.930 . S
C3074 C3073 1.388 . S
C3074 C3075 1.390 . S
C3075 C3074 1.390 . S
C3075 C3076 1.394 . S
C3075 C3081 1.465 . S
C3076 C3071 1.399 . S
C3076 C3075 1.394 . S
C3076 C3077 1.516 . S
C3077 C3076 1.516 . S
C3077 C3078 1.502 . S
C3077 C3079 1.561 . S
C3077 C3080 1.526 . S
C3078 H3062 0.959 . S
C3078 H3063 0.959 . S
C3078 H3064 0.961 . S
C3078 C3077 1.502 . S
C3079 H3065 0.960 . S
C3079 H3066 0.961 . S
C3079 H3067 0.959 . S
C3079 C3077 1.561 . S
C3080 C3077 1.526 . S
C3080 C3081 1.396 . S
C3080 C3085 1.390 . S
C3081 C3075 1.465 . S
C3081 C3080 1.396 . S
C3081 C3082 1.399 . S
C3082 H3068 0.929 . S
C3082 C3081 1.399 . S
C3082 C3083 1.385 . S
C3083 H3069 0.931 . S
C3083 C3082 1.385 . S
C3083 C3084 1.389 . S
C3084 C3083 1.389 . S
C3084 C3085 1.387 . S
C3085 H3070 0.930 . S
C3085 C3080 1.390 . S
C3085 C3084 1.387 . S
H3086 C3098 0.930 . S
H3087 C3100 0.930 . S
H3088 C3101 0.930 . S
H3089 C3105 0.959 . S
H3090 C3105 0.959 . S
H3091 C3105 0.961 . S
H3092 C3106 0.960 . S
H3093 C3106 0.961 . S
H3094 C3106 0.959 . S
H3095 C3109 0.929 . S
H3096 C3110 0.931 . S
H3097 C3112 0.930 . S
C3098 H3086 0.930 . S
C3098 C3099 1.399 . S
C3098 C3103 1.399 . S
C3099 C3098 1.399 . S
C3099 C3100 1.376 . S
C3100 H3087 0.930 . S
C3100 C3099 1.376 . S
C3100 C3101 1.388 . S
C3101 H3088 0.930 . S
C3101 C3100 1.388 . S
C3101 C3102 1.390 . S
C3102 C3101 1.390 . S
C3102 C3103 1.394 . S
C3102 C3108 1.465 . S
C3103 C3098 1.399 . S
C3103 C3102 1.394 . S
C3103 C3104 1.516 . S
C3104 C3103 1.516 . S
C3104 C3105 1.502 . S
C3104 C3106 1.561 . S
C3104 C3107 1.526 . S
C3105 H3089 0.959 . S
C3105 H3090 0.959 . S
C3105 H3091 0.961 . S
C3105 C3104 1.502 . S
C3106 H3092 0.960 . S
C3106 H3093 0.961 . S
C3106 H3094 0.959 . S
C3106 C3104 1.561 . S
C3107 C3104 1.526 . S
C3107 C3108 1.396 . S
C3107 C3112 1.390 . S
C3108 C3102 1.465 . S
C3108 C3107 1.396 . S
C3108 C3109 1.399 . S
C3109 H3095 0.929 . S
C3109 C3108 1.399 . S
C3109 C3110 1.385 . S
C3110 H3096 0.931 . S
C3110 C3109 1.385 . S
C3110 C3111 1.389 . S
C3111 C3110 1.389 . S
C3111 C3112 1.387 . S
C3112 H3097 0.930 . S
C3112 C3107 1.390 . S
C3112 C3111 1.387 . S
H3113 C3125 0.930 . S
H3114 C3127 0.930 . S
H3115 C3128 0.930 . S
H3116 C3132 0.959 . S
H3117 C3132 0.959 . S
H3118 C3132 0.961 . S
H3119 C3133 0.960 . S
H3120 C3133 0.961 . S
H3121 C3133 0.959 . S
H3122 C3136 0.929 . S
H3123 C3137 0.931 . S
H3124 C3139 0.930 . S
C3125 H3113 0.930 . S
C3125 C3126 1.399 . S
C3125 C3130 1.399 . S
C3126 C3125 1.399 . S
C3126 C3127 1.376 . S
C3127 H3114 0.930 . S
C3127 C3126 1.376 . S
C3127 C3128 1.388 . S
C3128 H3115 0.930 . S
C3128 C3127 1.388 . S
C3128 C3129 1.390 . S
C3129 C3128 1.390 . S
C3129 C3130 1.394 . S
C3129 C3135 1.465 . S
C3130 C3125 1.399 . S
C3130 C3129 1.394 . S
C3130 C3131 1.516 . S
C3131 C3130 1.516 . S
C3131 C3132 1.502 . S
C3131 C3133 1.561 . S
C3131 C3134 1.526 . S
C3132 H3116 0.959 . S
C3132 H3117 0.959 . S
C3132 H3118 0.961 . S
C3132 C3131 1.502 . S
C3133 H3119 0.960 . S
C3133 H3120 0.961 . S
C3133 H3121 0.959 . S
C3133 C3131 1.561 . S
C3134 C3131 1.526 . S
C3134 C3135 1.396 . S
C3134 C3139 1.390 . S
C3135 C3129 1.465 . S
C3135 C3134 1.396 . S
C3135 C3136 1.399 . S
C3136 H3122 0.929 . S
C3136 C3135 1.399 . S
C3136 C3137 1.385 . S
C3137 H3123 0.931 . S
C3137 C3136 1.385 . S
C3137 C3138 1.389 . S
C3138 C3137 1.389 . S
C3138 C3139 1.387 . S
C3139 H3124 0.930 . S
C3139 C3134 1.390 . S
C3139 C3138 1.387 . S
H3140 C3152 0.930 . S
H3141 C3154 0.930 . S
H3142 C3155 0.930 . S
H3143 C3159 0.959 . S
H3144 C3159 0.959 . S
H3145 C3159 0.961 . S
H3146 C3160 0.960 . S
H3147 C3160 0.961 . S
H3148 C3160 0.959 . S
H3149 C3163 0.929 . S
H3150 C3164 0.931 . S
H3151 C3166 0.930 . S
C3152 H3140 0.930 . S
C3152 C3153 1.399 . S
C3152 C3157 1.399 . S
C3153 C3152 1.399 . S
C3153 C3154 1.376 . S
C3154 H3141 0.930 . S
C3154 C3153 1.376 . S
C3154 C3155 1.388 . S
C3155 H3142 0.930 . S
C3155 C3154 1.388 . S
C3155 C3156 1.390 . S
C3156 C3155 1.390 . S
C3156 C3157 1.394 . S
C3156 C3162 1.465 . S
C3157 C3152 1.399 . S
C3157 C3156 1.394 . S
C3157 C3158 1.516 . S
C3158 C3157 1.516 . S
C3158 C3159 1.502 . S
C3158 C3160 1.561 . S
C3158 C3161 1.526 . S
C3159 H3143 0.959 . S
C3159 H3144 0.959 . S
C3159 H3145 0.961 . S
C3159 C3158 1.502 . S
C3160 H3146 0.960 . S
C3160 H3147 0.961 . S
C3160 H3148 0.959 . S
C3160 C3158 1.561 . S
C3161 C3158 1.526 . S
C3161 C3162 1.396 . S
C3161 C3166 1.390 . S
C3162 C3156 1.465 . S
C3162 C3161 1.396 . S
C3162 C3163 1.399 . S
C3163 H3149 0.929 . S
C3163 C3162 1.399 . S
C3163 C3164 1.385 . S
C3164 H3150 0.931 . S
C3164 C3163 1.385 . S
C3164 C3165 1.389 . S
C3165 C3164 1.389 . S
C3165 C3166 1.387 . S
C3166 H3151 0.930 . S
C3166 C3161 1.390 . S
C3166 C3165 1.387 . S
H3167 C3179 0.930 . S
H3168 C3181 0.921 1_655 S
H3169 C3182 0.930 . S
H3170 C3186 0.959 . S
H3171 C3186 0.959 . S
H3172 C3186 0.961 . S
H3173 C3187 0.960 . S
H3174 C3187 0.961 . S
H3175 C3187 0.959 . S
H3176 C3190 0.929 . S
H3177 C3191 0.931 . S
H3178 C3193 0.930 . S
C3179 H3167 0.930 . S
C3179 C3180 1.399 . S
C3179 C3184 1.399 . S
C3180 C3179 1.399 . S
C3180 C3181 1.378 . S
C3181 H3168 0.921 1_455 S
C3181 C3180 1.378 . S
C3181 C3182 1.396 . S
C3182 H3169 0.930 . S
C3182 C3181 1.396 . S
C3182 C3183 1.390 . S
C3183 C3182 1.390 . S
C3183 C3184 1.394 . S
C3183 C3189 1.465 . S
C3184 C3179 1.399 . S
C3184 C3183 1.394 . S
C3184 C3185 1.516 . S
C3185 C3184 1.516 . S
C3185 C3186 1.502 . S
C3185 C3187 1.561 . S
C3185 C3188 1.526 . S
C3186 H3170 0.959 . S
C3186 H3171 0.959 . S
C3186 H3172 0.961 . S
C3186 C3185 1.502 . S
C3187 H3173 0.960 . S
C3187 H3174 0.961 . S
C3187 H3175 0.959 . S
C3187 C3185 1.561 . S
C3188 C3185 1.526 . S
C3188 C3189 1.396 . S
C3188 C3193 1.390 . S
C3189 C3183 1.465 . S
C3189 C3188 1.396 . S
C3189 C3190 1.399 . S
C3190 H3176 0.929 . S
C3190 C3189 1.399 . S
C3190 C3191 1.385 . S
C3191 H3177 0.931 . S
C3191 C3190 1.385 . S
C3191 C3192 1.389 . S
C3192 C3191 1.389 . S
C3192 C3193 1.387 . S
C3193 H3178 0.930 . S
C3193 C3188 1.390 . S
C3193 C3192 1.387 . S
H3194 C3206 0.930 . S
H3195 C3208 0.930 . S
H3196 C3209 0.930 . S
H3197 C3213 0.959 . S
H3198 C3213 0.959 . S
H3199 C3213 0.961 . S
H3200 C3214 0.960 . S
H3201 C3214 0.961 . S
H3202 C3214 0.959 . S
H3203 C3217 0.929 . S
H3204 C3218 0.931 . S
H3205 C3220 0.930 . S
C3206 H3194 0.930 . S
C3206 C3207 1.399 . S
C3206 C3211 1.399 . S
C3207 C3206 1.399 . S
C3207 C3208 1.376 . S
C3208 H3195 0.930 . S
C3208 C3207 1.376 . S
C3208 C3209 1.388 . S
C3209 H3196 0.930 . S
C3209 C3208 1.388 . S
C3209 C3210 1.390 . S
C3210 C3209 1.390 . S
C3210 C3211 1.394 . S
C3210 C3216 1.465 . S
C3211 C3206 1.399 . S
C3211 C3210 1.394 . S
C3211 C3212 1.516 . S
C3212 C3211 1.516 . S
C3212 C3213 1.502 . S
C3212 C3214 1.561 . S
C3212 C3215 1.526 . S
C3213 H3197 0.959 . S
C3213 H3198 0.959 . S
C3213 H3199 0.961 . S
C3213 C3212 1.502 . S
C3214 H3200 0.960 . S
C3214 H3201 0.961 . S
C3214 H3202 0.959 . S
C3214 C3212 1.561 . S
C3215 C3212 1.526 . S
C3215 C3216 1.396 . S
C3215 C3220 1.390 . S
C3216 C3210 1.465 . S
C3216 C3215 1.396 . S
C3216 C3217 1.399 . S
C3217 H3203 0.929 . S
C3217 C3216 1.399 . S
C3217 C3218 1.385 . S
C3218 H3204 0.931 . S
C3218 C3217 1.385 . S
C3218 C3219 1.389 . S
C3219 C3218 1.389 . S
C3219 C3220 1.387 . S
C3220 H3205 0.930 . S
C3220 C3215 1.390 . S
C3220 C3219 1.387 . S
H3221 C3233 0.930 . S
H3222 C3235 0.930 . S
H3223 C3236 0.930 . S
H3224 C3240 0.959 . S
H3225 C3240 0.959 . S
H3226 C3240 0.961 . S
H3227 C3241 0.960 . S
H3228 C3241 0.961 . S
H3229 C3241 0.959 . S
H3230 C3244 0.929 . S
H3231 C3245 0.931 . S
H3232 C3247 0.930 . S
C3233 H3221 0.930 . S
C3233 C3234 1.399 . S
C3233 C3238 1.399 . S
C3234 C3233 1.399 . S
C3234 C3235 1.376 . S
C3235 H3222 0.930 . S
C3235 C3234 1.376 . S
C3235 C3236 1.388 . S
C3236 H3223 0.930 . S
C3236 C3235 1.388 . S
C3236 C3237 1.390 . S
C3237 C3236 1.390 . S
C3237 C3238 1.394 . S
C3237 C3243 1.465 . S
C3238 C3233 1.399 . S
C3238 C3237 1.394 . S
C3238 C3239 1.516 . S
C3239 C3238 1.516 . S
C3239 C3240 1.502 . S
C3239 C3241 1.561 . S
C3239 C3242 1.526 . S
C3240 H3224 0.959 . S
C3240 H3225 0.959 . S
C3240 H3226 0.961 . S
C3240 C3239 1.502 . S
C3241 H3227 0.960 . S
C3241 H3228 0.961 . S
C3241 H3229 0.959 . S
C3241 C3239 1.561 . S
C3242 C3239 1.526 . S
C3242 C3243 1.396 . S
C3242 C3247 1.390 . S
C3243 C3237 1.465 . S
C3243 C3242 1.396 . S
C3243 C3244 1.399 . S
C3244 H3230 0.929 . S
C3244 C3243 1.399 . S
C3244 C3245 1.385 . S
C3245 H3231 0.931 . S
C3245 C3244 1.385 . S
C3245 C3246 1.389 . S
C3246 C3245 1.389 . S
C3246 C3247 1.387 . S
C3247 H3232 0.930 . S
C3247 C3242 1.390 . S
C3247 C3246 1.387 . S
C1101 C247 1.242 . S
C1113 C9 1.227 . S
C1128 C43 1.238 . S
C1140 C145 1.220 . S
C1155 C77 1.241 . S
C1167 C179 1.243 . S
C1182 C213 1.240 . S
C1194 C111 1.243 . S
C1209 C530 1.581 . S
C1221 C292 1.580 . S
C1236 C428 1.561 . S
C1248 C326 1.561 . S
C1263 C360 1.563 . S
C1275 C462 1.563 . S
C1290 C394 1.580 . S
C1302 C496 1.580 . S
C1317 C791 1.237 . S
C1329 C553 1.220 . S
C1344 C587 1.236 . S
C1356 C689 1.219 . S
C1371 C621 1.211 . S
C1383 C723 1.210 . S
C1398 C757 1.211 . S
C1410 C655 1.210 . S
C1425 C1074 1.543 . S
C1437 C836 1.544 . S
C1452 C870 1.571 . S
C1464 C972 1.571 . S
C1479 C1006 1.545 . S
C1491 C904 1.545 . S
C1506 C1040 1.552 . S
C1518 C938 1.552 . S
C1533 C156 2.237 . S
C1545 C20 2.255 . S
C1560 C54 2.248 . S
C1572 C190 2.241 . S
C1587 C224 2.238 . S
C1599 C88 2.257 . S
C1614 C122 2.251 . S
C1626 C258 2.239 . S
C1641 C417 0.598 . S
C1653 C281 0.674 . S
C1668 C315 0.641 . S
C1680 C451 0.592 . S
C1695 C349 0.722 . S
C1707 C485 0.681 . S
C1722 C519 0.685 . S
C1734 C383 0.720 . S
C1749 C700 2.241 . S
C1761 C564 2.248 . S
C1776 C734 2.251 . S
C1788 C598 2.239 . S
C1803 C768 2.256 . S
C1815 C632 2.247 . S
C1830 C802 2.245 . S
C1842 C666 2.257 . S
C1857 C961 0.594 . S
C1869 C825 0.665 . S
C1884 C859 0.682 . S
C1896 C995 0.720 . S
C1911 C1029 0.598 . S
C1923 C893 0.617 . S
C1938 C1063 0.592 . S
C1950 C927 0.631 . S
C1965 C614 1.353 . S
C1977 C2 1.325 . S
C1992 C36 1.345 . S
C2004 C648 1.326 . S
C2019 C70 1.344 . S
C2031 C546 1.326 . S
C2046 C104 1.341 . S
C2058 C580 1.327 . S
C2073 C750 1.363 . S
C2085 C138 1.369 . S
C2100 C784 1.346 . S
C2112 C172 1.325 . S
C2127 C206 1.374 . S
C2139 C682 1.345 . S
C2154 C240 1.349 . S
C2166 C716 1.325 . S
C2181 C277 0.576 . S
C2193 C889 0.671 . S
C2208 C311 0.690 . S
C2220 C923 0.586 . S
C2235 C821 0.689 . S
C2247 C345 0.587 . S
C2262 C379 0.701 . S
C2274 C855 0.572 . S
C2289 C413 0.597 . S
C2301 C1025 0.652 . S
C2316 C1059 0.579 . S
C2328 C447 0.669 . S
C2343 C481 0.721 . S
C2355 C957 0.526 . S
C2370 C991 0.541 . S
C2382 C515 0.703 . S
C2397 C920 1.851 . S
C2409 C33 1.804 . S
C2424 C67 1.776 . S
C2436 C274 1.834 . S
C2451 C101 1.843 . S
C2463 C852 1.878 . S
C2478 C342 1.878 . S
C2490 C135 1.842 . S
C2505 C988 1.850 . S
C2517 C169 1.801 . S
C2532 C203 1.775 . S
C2544 C478 1.833 . S
C2559 C1056 1.857 . S
C2571 C237 1.810 . S
C2586 C410 1.875 . S
C2598 C271 1.839 . S
C2613 C305 0.552 . S
C2625 C651 0.652 . S
C2640 C339 0.624 . S
C2652 C5 0.573 . S
C2667 C583 0.575 . S
C2679 C373 0.581 . S
C2694 C407 0.671 . S
C2706 C73 0.724 . S
C2721 C441 0.582 . S
C2733 C719 0.574 . S
C2748 C475 0.592 . S
C2760 C209 0.710 . S
C2775 C509 0.724 . S
C2787 C787 0.636 . S
C2802 C141 0.616 . S
C2814 C543 0.561 . S
C2829 C577 1.791 . S
C2841 C376 1.843 . S
C2856 C818 1.861 . S
C2868 C611 1.819 . S
C2883 C308 1.875 . S
C2895 C645 1.838 . S
C2910 C886 1.879 . S
C2922 C679 1.843 . S
C2937 C713 1.842 . S
C2949 C444 1.877 . S
C2964 C747 1.776 . S
C2976 C1022 1.834 . S
C2991 C512 1.840 . S
C3003 C781 1.786 . S
C3018 C815 1.840 . S
C3030 C954 1.877 . S
C3045 C849 0.562 . S
C3057 C107 0.679 . S
C3072 C549 0.551 . S
C3084 C883 0.653 . S
C3099 C917 0.679 . S
C3111 C39 0.564 . S
C3126 C951 0.627 . S
C3138 C617 0.573 . S
C3153 C985 0.720 . S
C3165 C175 0.619 . S
C3180 C753 0.652 . S
C3192 C1019 0.553 . S
C3207 C1053 0.557 . S
C3219 C243 0.669 . S
C3234 C1087 0.710 . S
C3246 C685 0.699 . S
