# Generated by pormake.
# Topology umg, (4)-cn, num edge types: 1
# Building blocks:
#     Node 0, Type 0, BuildingBlock: MUDLON_clean_sbu_0, # of connection points: 4
#     Node 1, Type 0, BuildingBlock: MUDLON_clean_sbu_0, # of connection points: 4
#     Node 2, Type 0, BuildingBlock: MUDLON_clean_sbu_0, # of connection points: 4
#     Node 3, Type 0, BuildingBlock: MUDLON_clean_sbu_0, # of connection points: 4
#     Node 4, Type 0, BuildingBlock: MUDLON_clean_sbu_0, # of connection points: 4
#     Node 5, Type 0, BuildingBlock: MUDLON_clean_sbu_0, # of connection points: 4
#     Node 6, Type 0, BuildingBlock: MUDLON_clean_sbu_0, # of connection points: 4
#     Node 7, Type 0, BuildingBlock: MUDLON_clean_sbu_0, # of connection points: 4
#     Node 8, Type 0, BuildingBlock: MUDLON_clean_sbu_0, # of connection points: 4
#     Node 9, Type 0, BuildingBlock: MUDLON_clean_sbu_0, # of connection points: 4
#     Node 10, Type 0, BuildingBlock: MUDLON_clean_sbu_0, # of connection points: 4
#     Node 11, Type 0, BuildingBlock: MUDLON_clean_sbu_0, # of connection points: 4
#     Edge 12, Type (0, 0), BuildingBlock: XIVTED_clean_linker_0, # of connection points: 2
#     Edge 13, Type (0, 0), BuildingBlock: XIVTED_clean_linker_0, # of connection points: 2
#     Edge 14, Type (0, 0), BuildingBlock: XIVTED_clean_linker_0, # of connection points: 2
#     Edge 15, Type (0, 0), BuildingBlock: XIVTED_clean_linker_0, # of connection points: 2
#     Edge 16, Type (0, 0), BuildingBlock: XIVTED_clean_linker_0, # of connection points: 2
#     Edge 17, Type (0, 0), BuildingBlock: XIVTED_clean_linker_0, # of connection points: 2
#     Edge 18, Type (0, 0), BuildingBlock: XIVTED_clean_linker_0, # of connection points: 2
#     Edge 19, Type (0, 0), BuildingBlock: XIVTED_clean_linker_0, # of connection points: 2
#     Edge 20, Type (0, 0), BuildingBlock: XIVTED_clean_linker_0, # of connection points: 2
#     Edge 21, Type (0, 0), BuildingBlock: XIVTED_clean_linker_0, # of connection points: 2
#     Edge 22, Type (0, 0), BuildingBlock: XIVTED_clean_linker_0, # of connection points: 2
#     Edge 23, Type (0, 0), BuildingBlock: XIVTED_clean_linker_0, # of connection points: 2
#     Edge 24, Type (0, 0), BuildingBlock: XIVTED_clean_linker_0, # of connection points: 2
#     Edge 25, Type (0, 0), BuildingBlock: XIVTED_clean_linker_0, # of connection points: 2
#     Edge 26, Type (0, 0), BuildingBlock: XIVTED_clean_linker_0, # of connection points: 2
#     Edge 27, Type (0, 0), BuildingBlock: XIVTED_clean_linker_0, # of connection points: 2
#     Edge 28, Type (0, 0), BuildingBlock: XIVTED_clean_linker_0, # of connection points: 2
#     Edge 29, Type (0, 0), BuildingBlock: XIVTED_clean_linker_0, # of connection points: 2
#     Edge 30, Type (0, 0), BuildingBlock: XIVTED_clean_linker_0, # of connection points: 2
#     Edge 31, Type (0, 0), BuildingBlock: XIVTED_clean_linker_0, # of connection points: 2
#     Edge 32, Type (0, 0), BuildingBlock: XIVTED_clean_linker_0, # of connection points: 2
#     Edge 33, Type (0, 0), BuildingBlock: XIVTED_clean_linker_0, # of connection points: 2
#     Edge 34, Type (0, 0), BuildingBlock: XIVTED_clean_linker_0, # of connection points: 2
#     Edge 35, Type (0, 0), BuildingBlock: XIVTED_clean_linker_0, # of connection points: 2
# Relax obj value: 0.016
# Max RMSD: 0.186
# Mean RMSD: 0.186
data_MOF--net-umg--node1-MUDLON_clean_sbu_0--edge1-XIVTED_clean_linker_0
_symmetry_space_group_name_H-M    P1
_symmetry_Int_Tables_number       1
_symmetry_cell_setting            triclinic
loop_
_symmetry_equiv_pos_as_xyz
'x, y, z'
_cell_length_a     30.04192
_cell_length_b     30.035042
_cell_length_c     89.724619
_cell_angle_alpha  89.960671
_cell_angle_beta   89.969041
_cell_angle_gamma 119.89732
loop_
_atom_site_label
_atom_site_type_symbol
_atom_site_fract_x
_atom_site_fract_y
_atom_site_fract_z
_atom_type_partial_charge
Mg0 Mg 0.32434 0.61365 0.10108 0.0
C1 C 0.32062 0.67389 0.07398 0.0
O2 O 0.2764 0.66338 0.07986 0.0
C3 C 0.34623 0.62544 0.13313 0.0
O4 O 0.33456 0.57793 0.13028 0.0
C5 C 0.41222 0.59687 0.09952 0.0
O6 O 0.43258 0.64705 0.09971 0.0
O7 O 0.3635 0.56911 0.09991 0.0
O8 O 0.34937 0.6612 0.08101 0.0
O9 O 0.24039 0.56939 0.10122 0.0
C10 C 0.21813 0.59305 0.10618 0.0
O11 O 0.24656 0.64017 0.11114 0.0
O12 O 0.3468 0.65346 0.1224 0.0
Mg13 Mg 0.7222 0.30694 0.43249 0.0
C14 C 0.65774 0.30294 0.40564 0.0
O15 O 0.62442 0.2589 0.41168 0.0
C16 C 0.73172 0.33043 0.46458 0.0
O17 O 0.7697 0.32167 0.46194 0.0
C18 C 0.82714 0.39403 0.42857 0.0
O19 O 0.79772 0.41386 0.42572 0.0
O20 O 0.80588 0.34634 0.43164 0.0
O21 O 0.69937 0.33192 0.41251 0.0
O22 O 0.68299 0.22299 0.4321 0.0
C23 C 0.63825 0.19989 0.43786 0.0
O24 O 0.62045 0.22752 0.44407 0.0
O25 O 0.70348 0.32855 0.45375 0.0
Mg26 Mg 0.42912 0.7172 0.76718 0.0
C27 C 0.36851 0.65219 0.74032 0.0
O28 O 0.37637 0.61754 0.74683 0.0
C29 C 0.41415 0.72737 0.7991 0.0
O30 O 0.46139 0.76422 0.79652 0.0
C31 C 0.44593 0.82192 0.76606 0.0
O32 O 0.39578 0.79221 0.76646 0.0
O33 O 0.47372 0.80087 0.76613 0.0
O34 O 0.38296 0.6948 0.74687 0.0
O35 O 0.47278 0.67669 0.76776 0.0
C36 C 0.44854 0.63117 0.77298 0.0
O37 O 0.40153 0.61363 0.77793 0.0
O38 O 0.38763 0.69951 0.78824 0.0
Mg39 Mg 0.72911 0.42458 0.10098 0.0
C40 C 0.72954 0.36079 0.07446 0.0
O41 O 0.77527 0.37385 0.07967 0.0
C42 C 0.72295 0.42679 0.13296 0.0
O43 O 0.74472 0.47466 0.12834 0.0
C44 C 0.64191 0.44204 0.0999 0.0
O45 O 0.62159 0.39206 0.10129 0.0
O46 O 0.69062 0.46961 0.09925 0.0
O47 O 0.70096 0.37299 0.0818 0.0
O48 O 0.81305 0.46802 0.10035 0.0
C49 C 0.83521 0.44457 0.10555 0.0
O50 O 0.80668 0.39802 0.11095 0.0
O51 O 0.70942 0.39149 0.12324 0.0
Mg52 Mg 0.31537 0.71255 0.43369 0.0
C53 C 0.31679 0.64562 0.40831 0.0
O54 O 0.27329 0.61176 0.41449 0.0
C55 C 0.3121 0.71525 0.46565 0.0
O56 O 0.28751 0.73803 0.46053 0.0
C57 C 0.20848 0.62823 0.43811 0.0
O58 O 0.2359 0.61203 0.44527 0.0
O59 O 0.23164 0.67225 0.43191 0.0
O60 O 0.34418 0.68854 0.41477 0.0
O61 O 0.35395 0.7962 0.43233 0.0
C62 C 0.40228 0.81793 0.43027 0.0
O63 O 0.42324 0.78891 0.42857 0.0
O64 O 0.33134 0.69773 0.45627 0.0
Mg65 Mg 0.61756 0.31087 0.76767 0.0
C66 C 0.67701 0.37356 0.7403 0.0
O67 O 0.66566 0.40706 0.74589 0.0
C68 C 0.63103 0.3004 0.79972 0.0
O69 O 0.58405 0.26325 0.79703 0.0
C70 C 0.60032 0.2061 0.76647 0.0
O71 O 0.65048 0.23573 0.76684 0.0
O72 O 0.57261 0.22723 0.76661 0.0
O73 O 0.66496 0.33269 0.74757 0.0
O74 O 0.57433 0.35183 0.76795 0.0
C75 C 0.59908 0.39776 0.77281 0.0
O76 O 0.64641 0.41551 0.77749 0.0
O77 O 0.6579 0.3284 0.78891 0.0
Mg78 Mg 0.42901 0.71428 0.60278 0.0
C79 C 0.37051 0.65138 0.63032 0.0
O80 O 0.38004 0.61709 0.62437 0.0
C81 C 0.36947 0.71855 0.57576 0.0
O82 O 0.37223 0.75779 0.58302 0.0
C83 C 0.44934 0.62848 0.59805 0.0
O84 O 0.40203 0.61002 0.59327 0.0
O85 O 0.47353 0.67461 0.60278 0.0
O86 O 0.38332 0.69279 0.62325 0.0
O87 O 0.47355 0.79849 0.60273 0.0
C88 C 0.45147 0.82132 0.60844 0.0
O89 O 0.40585 0.79337 0.61445 0.0
O90 O 0.38658 0.69191 0.58187 0.0
Mg91 Mg 0.72208 0.41808 0.93812 0.0
C92 C 0.72044 0.35315 0.96477 0.0
O93 O 0.76069 0.35636 0.95801 0.0
C94 C 0.72516 0.40675 0.90595 0.0
O95 O 0.75787 0.4554 0.90861 0.0
C96 C 0.82822 0.43697 0.93395 0.0
O97 O 0.79968 0.38994 0.92894 0.0
O98 O 0.80615 0.46118 0.93862 0.0
O99 O 0.69551 0.37188 0.95845 0.0
O100 O 0.68397 0.46386 0.93804 0.0
C101 C 0.63514 0.4371 0.93766 0.0
O102 O 0.61372 0.38681 0.93737 0.0
O103 O 0.70152 0.37747 0.91692 0.0
Mg104 Mg 0.32063 0.71192 0.27175 0.0
C105 C 0.31677 0.64757 0.29859 0.0
O106 O 0.27262 0.61449 0.29259 0.0
C107 C 0.3435 0.72223 0.23967 0.0
O108 O 0.33283 0.75883 0.24248 0.0
C109 C 0.40783 0.81706 0.2751 0.0
O110 O 0.42799 0.7877 0.27758 0.0
O111 O 0.35981 0.79569 0.27254 0.0
O112 O 0.34589 0.68918 0.2917 0.0
O113 O 0.23656 0.67222 0.27218 0.0
C114 C 0.21326 0.6285 0.26582 0.0
O115 O 0.24067 0.61165 0.25899 0.0
O116 O 0.34282 0.69416 0.25042 0.0
Mg117 Mg 0.62126 0.31028 0.60363 0.0
C118 C 0.6846 0.37372 0.6304 0.0
O119 O 0.67993 0.41013 0.62376 0.0
C120 C 0.63258 0.32336 0.57141 0.0
O121 O 0.58379 0.30702 0.57405 0.0
C122 C 0.60255 0.39753 0.59911 0.0
O123 O 0.64965 0.41558 0.59418 0.0
O124 O 0.57808 0.35141 0.60388 0.0
O125 O 0.66742 0.33051 0.62394 0.0
O126 O 0.57617 0.22636 0.60389 0.0
C127 C 0.60148 0.20434 0.60022 0.0
O128 O 0.64983 0.23316 0.59632 0.0
O129 O 0.66196 0.3299 0.58242 0.0
Mg130 Mg 0.31806 0.61096 0.93741 0.0
C131 C 0.31999 0.67566 0.96411 0.0
O132 O 0.27875 0.67119 0.95767 0.0
C133 C 0.3147 0.6222 0.90519 0.0
O134 O 0.28128 0.57374 0.90788 0.0
C135 C 0.21193 0.59238 0.93344 0.0
O136 O 0.24043 0.63939 0.92838 0.0
O137 O 0.23401 0.56812 0.93806 0.0
O138 O 0.34527 0.65772 0.95758 0.0
O139 O 0.35597 0.565 0.93747 0.0
C140 C 0.40479 0.59169 0.93693 0.0
O141 O 0.42624 0.64196 0.93637 0.0
O142 O 0.33871 0.65125 0.91614 0.0
Mg143 Mg 0.72451 0.30581 0.26941 0.0
C144 C 0.65897 0.30376 0.2958 0.0
O145 O 0.6239 0.2621 0.28911 0.0
C146 C 0.72496 0.36992 0.2429 0.0
O147 O 0.76017 0.40778 0.25087 0.0
C148 C 0.6406 0.19866 0.2645 0.0
O149 O 0.62313 0.22616 0.25803 0.0
O150 O 0.68531 0.22184 0.27026 0.0
O151 O 0.70233 0.33078 0.28952 0.0
O152 O 0.80863 0.3454 0.26928 0.0
C153 C 0.83183 0.39003 0.2751 0.0
O154 O 0.80433 0.40781 0.28139 0.0
O155 O 0.70213 0.32488 0.24835 0.0
H156 H 0.27032 0.71116 0.98191 0.0
H157 H 0.39987 0.68337 0.05642 0.0
H158 H 0.39434 0.67762 0.9824 0.0
H159 H 0.26688 0.70282 0.05554 0.0
H160 H 0.40893 0.69744 0.02948 0.0
H161 H 0.27937 0.72456 1.00881 0.0
C162 C 0.3 0.70735 0.98762 0.0
C163 C 0.33111 0.69248 0.97988 0.0
C164 C 0.37818 0.69931 0.03521 0.0
C165 C 0.34136 0.70737 1.01079 0.0
C166 C 0.37307 0.69146 0.05062 0.0
C167 C 0.33208 0.69118 0.05825 0.0
C168 C 0.34207 0.70694 0.02736 0.0
C169 C 0.29872 0.70209 0.05012 0.0
C170 C 0.30505 0.7149 1.00302 0.0
C171 C 0.36916 0.68856 0.98791 0.0
N172 N 0.30411 0.70894 0.03512 0.0
N173 N 0.37277 0.6953 1.00294 0.0
H174 H 0.72532 0.38369 0.38817 0.0
H175 H 0.57398 0.24948 0.31338 0.0
H176 H 0.57621 0.24664 0.3871 0.0
H177 H 0.72751 0.38016 0.31425 0.0
H178 H 0.56789 0.25755 0.34028 0.0
H179 H 0.72029 0.39245 0.36123 0.0
C180 C 0.69112 0.35589 0.38233 0.0
C181 C 0.65143 0.31391 0.38991 0.0
C182 C 0.60269 0.28489 0.33457 0.0
C183 C 0.64566 0.32354 0.359 0.0
C184 C 0.60617 0.28038 0.31918 0.0
C185 C 0.65162 0.31372 0.31155 0.0
C186 C 0.64503 0.3229 0.34243 0.0
C187 C 0.69189 0.35324 0.31967 0.0
C188 C 0.68836 0.36084 0.36692 0.0
C189 C 0.608 0.2793 0.38172 0.0
N190 N 0.68788 0.35632 0.33469 0.0
N191 N 0.60655 0.28454 0.36671 0.0
H192 H 0.33807 0.56757 0.72266 0.0
H193 H 0.36045 0.72108 0.64775 0.0
H194 H 0.36223 0.72179 0.72181 0.0
H195 H 0.34327 0.5696 0.64898 0.0
H196 H 0.34655 0.7165 0.67469 0.0
H197 H 0.32511 0.56223 0.69573 0.0
C198 C 0.33992 0.60009 0.71686 0.0
C199 C 0.35199 0.64547 0.72452 0.0
C200 C 0.34516 0.68399 0.66904 0.0
C201 C 0.33767 0.63978 0.69357 0.0
C202 C 0.35294 0.6865 0.65363 0.0
C203 C 0.35374 0.64593 0.64609 0.0
C204 C 0.3382 0.64065 0.67699 0.0
C205 C 0.34357 0.60206 0.65432 0.0
C206 C 0.33262 0.59704 0.70144 0.0
C207 C 0.35347 0.68618 0.71637 0.0
N208 N 0.33682 0.60084 0.66933 0.0
N209 N 0.34709 0.6826 0.70133 0.0
H210 H 0.64795 0.34918 0.05765 0.0
H211 H 0.77027 0.31686 0.98219 0.0
H212 H 0.78122 0.33035 0.0557 0.0
H213 H 0.64818 0.35313 0.9836 0.0
H214 H 0.76318 0.30437 1.00915 0.0
H215 H 0.63619 0.33337 0.03081 0.0
C216 C 0.67421 0.34079 0.05165 0.0
C217 C 0.71612 0.34185 0.05893 0.0
C218 C 0.73747 0.31443 1.00355 0.0
C219 C 0.70304 0.32412 0.02816 0.0
C220 C 0.7414 0.32145 0.98812 0.0
C221 C 0.71029 0.33684 0.98061 0.0
C222 C 0.70228 0.32297 1.01159 0.0
C223 C 0.67333 0.34178 0.98892 0.0
C224 C 0.66757 0.33198 0.0363 0.0
C225 C 0.74874 0.33054 0.05055 0.0
N226 N 0.67079 0.33551 1.00398 0.0
N227 N 0.74185 0.32274 0.03561 0.0
H228 H 0.39747 0.71489 0.31609 0.0
H229 H 0.26365 0.56082 0.39065 0.0
H230 H 0.26086 0.56543 0.31703 0.0
H231 H 0.39432 0.71438 0.39008 0.0
H232 H 0.27216 0.55555 0.36375 0.0
H233 H 0.40658 0.70896 0.34298 0.0
C234 C 0.36984 0.68043 0.32189 0.0
C235 C 0.32789 0.64089 0.31429 0.0
C236 C 0.29943 0.59016 0.36953 0.0
C237 C 0.33793 0.63408 0.34515 0.0
C238 C 0.2947 0.59316 0.38493 0.0
C239 C 0.32783 0.63842 0.39265 0.0
C240 C 0.33743 0.63281 0.36173 0.0
C241 C 0.36757 0.67888 0.3846 0.0
C242 C 0.375 0.67716 0.33728 0.0
C243 C 0.29349 0.59712 0.32242 0.0
N244 N 0.37081 0.67538 0.36956 0.0
N245 N 0.29893 0.59517 0.33741 0.0
H246 H 0.68779 0.30361 0.7232 0.0
H247 H 0.71868 0.45904 0.64798 0.0
H248 H 0.70591 0.45543 0.72155 0.0
H249 H 0.68596 0.30186 0.6491 0.0
H250 H 0.73044 0.46387 0.67496 0.0
H251 H 0.70318 0.30803 0.69632 0.0
C252 C 0.69585 0.33824 0.71725 0.0
C253 C 0.69484 0.37895 0.72464 0.0
C254 C 0.72131 0.42849 0.66929 0.0
C255 C 0.71214 0.38407 0.69382 0.0
C256 C 0.71471 0.42573 0.65385 0.0
C257 C 0.70056 0.37972 0.64625 0.0
C258 C 0.71354 0.38489 0.67725 0.0
C259 C 0.69638 0.33799 0.65449 0.0
C260 C 0.70446 0.34064 0.70188 0.0
C261 C 0.70572 0.42287 0.71632 0.0
N262 N 0.70219 0.34137 0.66956 0.0
N263 N 0.71336 0.42402 0.70136 0.0
H264 H 0.35364 0.77996 0.21505 0.0
H265 H 0.35346 0.57621 0.1578 0.0
H266 H 0.35301 0.6418 0.22869 0.0
H267 H 0.35715 0.71587 0.14417 0.0
H268 H 0.35961 0.60268 0.18375 0.0
H269 H 0.36121 0.7602 0.18914 0.0
C270 C 0.3554 0.74555 0.21262 0.0
C271 C 0.3523 0.71226 0.22409 0.0
C272 C 0.35943 0.62775 0.1751 0.0
C273 C 0.36079 0.6893 0.19432 0.0
C274 C 0.3559 0.61268 0.16025 0.0
C275 C 0.35441 0.64371 0.14876 0.0
C276 C 0.36125 0.67418 0.17857 0.0
C277 C 0.35803 0.69066 0.15264 0.0
C278 C 0.35975 0.73433 0.19779 0.0
C279 C 0.35513 0.66847 0.22022 0.0
N280 N 0.36091 0.70428 0.16723 0.0
N281 N 0.35884 0.65808 0.20566 0.0
H282 H 0.64822 0.33517 0.47511 0.0
H283 H 0.72738 0.34456 0.56097 0.0
H284 H 0.78862 0.34212 0.48952 0.0
H285 H 0.58054 0.3216 0.54633 0.0
H286 H 0.75463 0.35317 0.53486 0.0
H287 H 0.62697 0.33993 0.50119 0.0
C288 C 0.67479 0.33817 0.48373 0.0
C289 C 0.72006 0.33785 0.48012 0.0
C290 C 0.71654 0.3465 0.53738 0.0
C291 C 0.69594 0.34307 0.51 0.0
C292 C 0.70103 0.34168 0.55229 0.0
C293 C 0.65149 0.33195 0.55584 0.0
C294 C 0.68231 0.34174 0.52598 0.0
C295 C 0.61896 0.32865 0.54413 0.0
C296 C 0.66259 0.34072 0.49863 0.0
C297 C 0.75308 0.34184 0.49178 0.0
N298 N 0.63486 0.33334 0.52975 0.0
N299 N 0.74026 0.34402 0.50617 0.0
H300 H 0.45892 0.78496 0.82392 0.0
H301 H 0.26237 0.57123 0.88024 0.0
H302 H 0.32572 0.64441 0.80971 0.0
H303 H 0.39008 0.71578 0.89458 0.0
H304 H 0.28219 0.59965 0.85443 0.0
H305 H 0.43144 0.76278 0.84975 0.0
C306 C 0.42362 0.74954 0.82621 0.0
C307 C 0.39476 0.71627 0.81461 0.0
C308 C 0.30574 0.62535 0.86319 0.0
C309 C 0.36321 0.6905 0.84427 0.0
C310 C 0.29452 0.60913 0.87797 0.0
C311 C 0.32488 0.64104 0.88961 0.0
C312 C 0.3479 0.67382 0.85995 0.0
C313 C 0.36576 0.68985 0.88596 0.0
C314 C 0.40796 0.73694 0.841 0.0
C315 C 0.34923 0.67113 0.81829 0.0
N316 N 0.37631 0.7046 0.87144 0.0
N317 N 0.33509 0.65937 0.83281 0.0
H318 H 0.6807 0.33303 0.14731 0.0
H319 H 0.76227 0.4613 0.22809 0.0
H320 H 0.75129 0.49587 0.1556 0.0
H321 H 0.67066 0.29748 0.22153 0.0
H322 H 0.75675 0.47402 0.20145 0.0
H323 H 0.67515 0.31815 0.17434 0.0
C324 C 0.69479 0.36556 0.15479 0.0
C325 C 0.71674 0.41577 0.14916 0.0
C326 C 0.73747 0.43525 0.20583 0.0
C327 C 0.71066 0.39912 0.18002 0.0
C328 C 0.74058 0.42799 0.22107 0.0
C329 C 0.71711 0.37827 0.22707 0.0
C330 C 0.7111 0.39248 0.19643 0.0
C331 C 0.68941 0.33654 0.2174 0.0
C332 C 0.69154 0.35707 0.17021 0.0
C333 C 0.73427 0.45649 0.15938 0.0
N334 N 0.68757 0.34456 0.20254 0.0
N335 N 0.7311 0.44728 0.17426 0.0
H336 H 0.37924 0.65545 0.55545 0.0
H337 H 0.27776 0.75332 0.48751 0.0
H338 H 0.32512 0.7637 0.55977 0.0
H339 H 0.35679 0.66784 0.48106 0.0
H340 H 0.28632 0.7487 0.5143 0.0
H341 H 0.36214 0.65041 0.52862 0.0
C342 C 0.36317 0.67768 0.55081 0.0
C343 C 0.35381 0.71028 0.55988 0.0
C344 C 0.30179 0.73085 0.50707 0.0
C345 C 0.33445 0.70479 0.5292 0.0
C346 C 0.29691 0.73343 0.49172 0.0
C347 C 0.31686 0.71116 0.48197 0.0
C348 C 0.32673 0.70568 0.51286 0.0
C349 C 0.34108 0.68576 0.48816 0.0
C350 C 0.35372 0.67497 0.53548 0.0
C351 C 0.33316 0.73826 0.55322 0.0
N352 N 0.34543 0.68378 0.50324 0.0
N353 N 0.32436 0.73498 0.53831 0.0
H354 H 0.77754 0.45829 0.88103 0.0
H355 H 0.58555 0.2427 0.82453 0.0
H356 H 0.6512 0.31256 0.89531 0.0
H357 H 0.71838 0.38406 0.81049 0.0
H358 H 0.61166 0.26529 0.85043 0.0
H359 H 0.75899 0.4297 0.85524 0.0
C360 C 0.74594 0.4201 0.87876 0.0
C361 C 0.71561 0.38789 0.89038 0.0
C362 C 0.63535 0.29122 0.8417 0.0
C363 C 0.69406 0.3549 0.86072 0.0
C364 C 0.62049 0.27838 0.82688 0.0
C365 C 0.64965 0.31174 0.8153 0.0
C366 C 0.67959 0.33799 0.84503 0.0
C367 C 0.69467 0.35724 0.81905 0.0
C368 C 0.73545 0.40378 0.86399 0.0
C369 C 0.67547 0.33871 0.88672 0.0
N370 N 0.70802 0.36922 0.8336 0.0
N371 N 0.66562 0.32386 0.87219 0.0
H372 H 0.90889 0.54546 0.10076 0.0
H373 H 0.14468 0.49182 0.10182 0.0
H374 H 0.89043 0.39566 0.10916 0.0
H375 H 0.16262 0.64187 0.10922 0.0
H376 H 0.05119 0.45561 0.10115 0.0
H377 H 1.00238 0.58155 0.10046 0.0
C378 C 0.92445 0.52017 0.10249 0.0
C379 C 0.89179 0.46753 0.10506 0.0
C380 C 0.07571 0.49646 0.10292 0.0
C381 C 0.99847 0.50837 0.10459 0.0
C382 C 0.12901 0.51712 0.10327 0.0
C383 C 0.16152 0.56989 0.10565 0.0
C384 C 0.05485 0.52892 0.10474 0.0
C385 C 0.13906 0.6009 0.10746 0.0
C386 C 0.97775 0.54078 0.10236 0.0
C387 C 0.91411 0.43654 0.10724 0.0
N388 N 0.08722 0.58003 0.10691 0.0
N389 N 0.96596 0.45735 0.1069 0.0
H390 H 0.66135 0.12884 0.4263 0.0
H391 H 0.37609 0.89082 0.43778 0.0
H392 H 0.53811 0.14205 0.44659 0.0
H393 H 0.50448 0.87434 0.42364 0.0
H394 H 0.43361 0.98388 0.43947 0.0
H395 H 0.6034 0.03606 0.42389 0.0
C396 C 0.62222 0.11228 0.43028 0.0
C397 C 0.60469 0.14337 0.43668 0.0
C398 C 0.44914 0.95986 0.43597 0.0
C399 C 0.53799 0.03725 0.43384 0.0
C400 C 0.41625 0.90674 0.43494 0.0
C401 C 0.43544 0.87463 0.4306 0.0
C402 C 0.50158 0.98111 0.43254 0.0
C403 C 0.48794 0.89749 0.4271 0.0
C404 C 0.58911 0.0593 0.42889 0.0
C405 C 0.55347 0.1197 0.44161 0.0
N406 N 0.51909 0.9492 0.42815 0.0
N407 N 0.52199 0.06822 0.44006 0.0
H408 H 0.64986 0.50196 0.77594 0.0
H409 H 0.39826 0.52728 0.77692 0.0
H410 H 0.49811 0.37245 0.76905 0.0
H411 H 0.54915 0.65628 0.76843 0.0
H412 H 0.43432 0.47025 0.77648 0.0
H413 H 0.61381 0.55902 0.7756 0.0
C414 C 0.60887 0.48543 0.77439 0.0
C415 C 0.57692 0.4322 0.77255 0.0
C416 C 0.45954 0.51099 0.77468 0.0
C417 C 0.53539 0.49762 0.77223 0.0
C418 C 0.43907 0.54372 0.775 0.0
C419 C 0.47077 0.59679 0.77274 0.0
C420 C 0.51232 0.5314 0.77229 0.0
C421 C 0.5233 0.61567 0.77021 0.0
C422 C 0.5884 0.51816 0.77413 0.0
C423 C 0.52417 0.41318 0.77049 0.0
N424 N 0.54249 0.58304 0.77014 0.0
N425 N 0.505 0.44583 0.77048 0.0
H426 H 0.64493 0.14767 0.59127 0.0
H427 H 0.4106 0.87891 0.61869 0.0
H428 H 0.50625 0.13162 0.61073 0.0
H429 H 0.54385 0.89306 0.59603 0.0
H430 H 0.44602 0.97138 0.61643 0.0
H431 H 0.60923 0.05504 0.59326 0.0
C432 C 0.60684 0.12468 0.59593 0.0
C433 C 0.5786 0.14766 0.60086 0.0
C434 C 0.4676 0.95438 0.61195 0.0
C435 C 0.53747 0.04104 0.60324 0.0
C436 C 0.44747 0.90144 0.61327 0.0
C437 C 0.47427 0.87796 0.60754 0.0
C438 C 0.5151 0.98447 0.60487 0.0
C439 C 0.52183 0.9094 0.60063 0.0
C440 C 0.58649 0.07165 0.59707 0.0
C441 C 0.52941 0.11568 0.60677 0.0
N442 N 0.5407 0.96099 0.59949 0.0
N443 N 0.51051 0.06407 0.60784 0.0
H444 H 0.37527 0.48885 0.93765 0.0
H445 H 0.66465 0.53996 0.9376 0.0
H446 H 0.50958 0.63994 0.93639 0.0
H447 H 0.53033 0.3888 0.93747 0.0
H448 H 0.60849 0.57744 0.93741 0.0
H449 H 0.43142 0.45135 0.93782 0.0
C450 C 0.41649 0.51413 0.93741 0.0
C451 C 0.43763 0.56764 0.93701 0.0
C452 C 0.59133 0.53606 0.93742 0.0
C453 C 0.50224 0.52502 0.93722 0.0
C454 C 0.62342 0.51465 0.93754 0.0
C455 C 0.60228 0.46114 0.93755 0.0
C456 C 0.53766 0.50374 0.93733 0.0
C457 C 0.54848 0.43026 0.93745 0.0
C458 C 0.44857 0.49272 0.9375 0.0
C459 C 0.49143 0.59849 0.9367 0.0
N460 N 0.51814 0.45196 0.93736 0.0
N461 N 0.52176 0.57678 0.93682 0.0
H462 H 0.1435 0.64682 0.28057 0.0
H463 H 0.90178 0.37086 0.2608 0.0
H464 H 0.15395 0.53306 0.25377 0.0
H465 H 0.89104 0.48592 0.28685 0.0
H466 H 0.99448 0.42922 0.25837 0.0
H467 H 0.05089 0.58835 0.28303 0.0
C468 C 0.12636 0.6097 0.27515 0.0
C469 C 0.15668 0.59493 0.26695 0.0
C470 C 0.97181 0.44163 0.26465 0.0
C471 C 0.05062 0.52755 0.2698 0.0
C472 C 0.91888 0.40822 0.26607 0.0
C473 C 0.88844 0.42341 0.27403 0.0
C474 C 0.99457 0.49062 0.27124 0.0
C475 C 0.91282 0.47245 0.28059 0.0
C476 C 0.07345 0.57623 0.27659 0.0
C477 C 0.13223 0.5462 0.26021 0.0
N478 N 0.96427 0.50421 0.27903 0.0
N479 N 0.08081 0.51433 0.2618 0.0
H480 H 0.53712 0.39162 0.10054 0.0
H481 H 0.51698 0.64736 0.09818 0.0
H482 H 0.66904 0.54411 0.09811 0.0
H483 H 0.38511 0.4947 0.09999 0.0
H484 H 0.573 0.61028 0.09791 0.0
H485 H 0.48112 0.42867 0.1001 0.0
C486 C 0.55442 0.43298 0.09989 0.0
C487 C 0.60802 0.46481 0.09937 0.0
C488 C 0.53185 0.58482 0.09835 0.0
C489 C 0.5437 0.50759 0.09889 0.0
C490 C 0.49969 0.60595 0.0985 0.0
C491 C 0.44611 0.57409 0.09912 0.0
C492 C 0.51044 0.5313 0.09883 0.0
C493 C 0.42613 0.52075 0.0995 0.0
C494 C 0.52227 0.4541 0.09964 0.0
C495 C 0.628 0.5181 0.09853 0.0
N496 N 0.45831 0.50105 0.09937 0.0
N497 N 0.59583 0.5378 0.09834 0.0
H498 H 0.88291 0.49457 0.42006 0.0
H499 H 0.15107 0.52975 0.44819 0.0
H500 H 0.9003 0.37106 0.43827 0.0
H501 H 0.13756 0.6478 0.42462 0.0
H502 H 0.05904 0.4722 0.44532 0.0
H503 H 0.97548 0.55167 0.42208 0.0
C504 C 0.9062 0.47933 0.42443 0.0
C505 C 0.88368 0.42785 0.42903 0.0
C506 C 0.07611 0.51064 0.44075 0.0
C507 C 0.99001 0.49341 0.43145 0.0
C508 C 0.12876 0.54372 0.44243 0.0
C509 C 0.15223 0.59386 0.43665 0.0
C510 C 0.04632 0.5277 0.43329 0.0
C511 C 0.12116 0.60955 0.42926 0.0
C512 C 0.95915 0.51206 0.42558 0.0
C513 C 0.91594 0.41038 0.43457 0.0
N514 N 0.0698 0.57661 0.42782 0.0
N515 N 0.96742 0.44316 0.4357 0.0
H516 H 0.65088 0.15168 0.76594 0.0
H517 H 0.39528 0.87629 0.76586 0.0
H518 H 0.49812 0.13127 0.76622 0.0
H519 H 0.54808 0.89681 0.76574 0.0
H520 H 0.4322 0.96927 0.76575 0.0
H521 H 0.61392 0.05872 0.76563 0.0
C522 C 0.60947 0.12767 0.76593 0.0
C523 C 0.57756 0.14948 0.76612 0.0
C524 C 0.45772 0.95354 0.76573 0.0
C525 C 0.53488 0.04247 0.76576 0.0
C526 C 0.43668 0.90032 0.76579 0.0
C527 C 0.46863 0.87855 0.76581 0.0
C528 C 0.51125 0.98556 0.7657 0.0
C529 C 0.52197 0.91182 0.76572 0.0
C530 C 0.58841 0.07446 0.76575 0.0
C531 C 0.52421 0.11623 0.76608 0.0
N532 N 0.54158 0.96363 0.76568 0.0
N533 N 0.50457 0.06441 0.76591 0.0
H534 H 0.39959 0.52431 0.595 0.0
H535 H 0.65267 0.50169 0.59597 0.0
H536 H 0.55034 0.65475 0.60246 0.0
H537 H 0.50146 0.3715 0.60315 0.0
H538 H 0.61599 0.55818 0.59625 0.0
H539 H 0.43631 0.46792 0.59585 0.0
C540 C 0.44051 0.54119 0.59679 0.0
C541 C 0.47198 0.59449 0.59862 0.0
C542 C 0.59084 0.51731 0.59781 0.0
C543 C 0.51429 0.5298 0.59955 0.0
C544 C 0.61167 0.48489 0.59759 0.0
C545 C 0.58004 0.43164 0.5995 0.0
C546 C 0.53779 0.49641 0.59975 0.0
C547 C 0.52726 0.41227 0.60165 0.0
C548 C 0.46136 0.50883 0.59735 0.0
C549 C 0.52466 0.61396 0.601 0.0
N550 N 0.50773 0.44461 0.60161 0.0
N551 N 0.54423 0.58165 0.6013 0.0
H552 H 0.15705 0.64187 0.93053 0.0
H553 H 0.88309 0.38754 0.93092 0.0
H554 H 0.13795 0.49129 0.93788 0.0
H555 H 0.90224 0.53816 0.93817 0.0
H556 H 0.9762 0.42487 0.93143 0.0
H557 H 0.06394 0.60461 0.93129 0.0
C558 C 0.13328 0.60089 0.93229 0.0
C559 C 0.1554 0.5696 0.9341 0.0
C560 C 0.96008 0.44975 0.93296 0.0
C561 C 0.04851 0.52669 0.93491 0.0
C562 C 0.90688 0.42855 0.93261 0.0
C563 C 0.88476 0.45982 0.93447 0.0
C564 C 0.99168 0.50281 0.93499 0.0
C565 C 0.91761 0.51262 0.93671 0.0
C566 C 0.08008 0.57973 0.93279 0.0
C567 C 0.12258 0.51684 0.93644 0.0
N568 N 0.96946 0.53253 0.9368 0.0
N569 N 0.07074 0.49697 0.93667 0.0
H570 H 0.5093 0.87302 0.28256 0.0
H571 H 0.5413 0.14092 0.25517 0.0
H572 H 0.38386 0.89009 0.26591 0.0
H573 H 0.66198 0.12769 0.27716 0.0
H574 H 0.48425 0.04882 0.25823 0.0
H575 H 0.56621 0.96554 0.28014 0.0
C576 C 0.4936 0.89623 0.27844 0.0
C577 C 0.44161 0.87362 0.27441 0.0
C578 C 0.52317 0.06596 0.26239 0.0
C579 C 0.50698 0.97993 0.27152 0.0
C580 C 0.55597 0.11866 0.26061 0.0
C581 C 0.60669 0.14226 0.26591 0.0
C582 C 0.54107 0.03624 0.26948 0.0
C583 C 0.62326 0.11122 0.27288 0.0
C584 C 0.52623 0.94915 0.27706 0.0
C585 C 0.42358 0.9058 0.26918 0.0
N586 N 0.59056 0.05981 0.27445 0.0
N587 N 0.45626 0.95726 0.26782 0.0
loop_
_geom_bond_atom_site_label_1
_geom_bond_atom_site_label_2
_geom_bond_distance
_geom_bond_site_symmetry_2
_ccdc_geom_bond_type
Mg0 O7 2.141 . S
Mg0 O8 2.048 . S
Mg0 O9 2.048 . S
Mg0 O12 2.141 . S
C1 O2 1.313 . S
C1 O8 1.195 . S
O2 C1 1.313 . S
C3 O4 1.245 . S
C3 O12 1.289 . S
O4 C3 1.245 . S
C5 O6 1.245 . S
C5 O7 1.289 . S
O6 C5 1.245 . S
O7 Mg0 2.141 . S
O7 C5 1.289 . S
O8 Mg0 2.048 . S
O8 C1 1.195 . S
O9 Mg0 2.048 . S
O9 C10 1.195 . S
C10 O9 1.195 . S
C10 O11 1.313 . S
O11 C10 1.313 . S
O12 Mg0 2.141 . S
O12 C3 1.289 . S
Mg13 O20 2.141 . S
Mg13 O21 2.048 . S
Mg13 O22 2.048 . S
Mg13 O25 2.141 . S
C14 O15 1.313 . S
C14 O21 1.195 . S
O15 C14 1.313 . S
C16 O17 1.245 . S
C16 O25 1.289 . S
O17 C16 1.245 . S
C18 O19 1.245 . S
C18 O20 1.289 . S
O19 C18 1.245 . S
O20 Mg13 2.141 . S
O20 C18 1.289 . S
O21 Mg13 2.048 . S
O21 C14 1.195 . S
O22 Mg13 2.048 . S
O22 C23 1.195 . S
C23 O22 1.195 . S
C23 O24 1.313 . S
O24 C23 1.313 . S
O25 Mg13 2.141 . S
O25 C16 1.289 . S
Mg26 O33 2.141 . S
Mg26 O34 2.048 . S
Mg26 O35 2.048 . S
Mg26 O38 2.141 . S
C27 O28 1.313 . S
C27 O34 1.195 . S
O28 C27 1.313 . S
C29 O30 1.245 . S
C29 O38 1.289 . S
O30 C29 1.245 . S
C31 O32 1.245 . S
C31 O33 1.289 . S
O32 C31 1.245 . S
O33 Mg26 2.141 . S
O33 C31 1.289 . S
O34 Mg26 2.048 . S
O34 C27 1.195 . S
O35 Mg26 2.048 . S
O35 C36 1.195 . S
C36 O35 1.195 . S
C36 O37 1.313 . S
O37 C36 1.313 . S
O38 Mg26 2.141 . S
O38 C29 1.289 . S
Mg39 O46 2.141 . S
Mg39 O47 2.048 . S
Mg39 O48 2.048 . S
Mg39 O51 2.141 . S
C40 O41 1.313 . S
C40 O47 1.195 . S
O41 C40 1.313 . S
C42 O43 1.245 . S
C42 O51 1.289 . S
O43 C42 1.245 . S
C44 O45 1.245 . S
C44 O46 1.289 . S
O45 C44 1.245 . S
O46 Mg39 2.141 . S
O46 C44 1.289 . S
O47 Mg39 2.048 . S
O47 C40 1.195 . S
O48 Mg39 2.048 . S
O48 C49 1.195 . S
C49 O48 1.195 . S
C49 O50 1.313 . S
O50 C49 1.313 . S
O51 Mg39 2.141 . S
O51 C42 1.289 . S
Mg52 O59 2.141 . S
Mg52 O60 2.048 . S
Mg52 O61 2.048 . S
Mg52 O64 2.141 . S
C53 O54 1.313 . S
C53 O60 1.195 . S
O54 C53 1.313 . S
C55 O56 1.245 . S
C55 O64 1.289 . S
O56 C55 1.245 . S
C57 O58 1.245 . S
C57 O59 1.289 . S
O58 C57 1.245 . S
O59 Mg52 2.141 . S
O59 C57 1.289 . S
O60 Mg52 2.048 . S
O60 C53 1.195 . S
O61 Mg52 2.048 . S
O61 C62 1.195 . S
C62 O61 1.195 . S
C62 O63 1.313 . S
O63 C62 1.313 . S
O64 Mg52 2.141 . S
O64 C55 1.289 . S
Mg65 O72 2.141 . S
Mg65 O73 2.048 . S
Mg65 O74 2.048 . S
Mg65 O77 2.141 . S
C66 O67 1.313 . S
C66 O73 1.195 . S
O67 C66 1.313 . S
C68 O69 1.245 . S
C68 O77 1.289 . S
O69 C68 1.245 . S
C70 O71 1.245 . S
C70 O72 1.289 . S
O71 C70 1.245 . S
O72 Mg65 2.141 . S
O72 C70 1.289 . S
O73 Mg65 2.048 . S
O73 C66 1.195 . S
O74 Mg65 2.048 . S
O74 C75 1.195 . S
C75 O74 1.195 . S
C75 O76 1.313 . S
O76 C75 1.313 . S
O77 Mg65 2.141 . S
O77 C68 1.289 . S
Mg78 O85 2.141 . S
Mg78 O86 2.048 . S
Mg78 O87 2.048 . S
Mg78 O90 2.141 . S
C79 O80 1.313 . S
C79 O86 1.195 . S
O80 C79 1.313 . S
C81 O82 1.245 . S
C81 O90 1.289 . S
O82 C81 1.245 . S
C83 O84 1.245 . S
C83 O85 1.289 . S
O84 C83 1.245 . S
O85 Mg78 2.141 . S
O85 C83 1.289 . S
O86 Mg78 2.048 . S
O86 C79 1.195 . S
O87 Mg78 2.048 . S
O87 C88 1.195 . S
C88 O87 1.195 . S
C88 O89 1.313 . S
O89 C88 1.313 . S
O90 Mg78 2.141 . S
O90 C81 1.289 . S
Mg91 O98 2.141 . S
Mg91 O99 2.048 . S
Mg91 O100 2.048 . S
Mg91 O103 2.141 . S
C92 O93 1.313 . S
C92 O99 1.195 . S
O93 C92 1.313 . S
C94 O95 1.245 . S
C94 O103 1.289 . S
O95 C94 1.245 . S
C96 O97 1.245 . S
C96 O98 1.289 . S
O97 C96 1.245 . S
O98 Mg91 2.141 . S
O98 C96 1.289 . S
O99 Mg91 2.048 . S
O99 C92 1.195 . S
O100 Mg91 2.048 . S
O100 C101 1.195 . S
C101 O100 1.195 . S
C101 O102 1.313 . S
O102 C101 1.313 . S
O103 Mg91 2.141 . S
O103 C94 1.289 . S
Mg104 O111 2.141 . S
Mg104 O112 2.048 . S
Mg104 O113 2.048 . S
Mg104 O116 2.141 . S
C105 O106 1.313 . S
C105 O112 1.195 . S
O106 C105 1.313 . S
C107 O108 1.245 . S
C107 O116 1.289 . S
O108 C107 1.245 . S
C109 O110 1.245 . S
C109 O111 1.289 . S
O110 C109 1.245 . S
O111 Mg104 2.141 . S
O111 C109 1.289 . S
O112 Mg104 2.048 . S
O112 C105 1.195 . S
O113 Mg104 2.048 . S
O113 C114 1.195 . S
C114 O113 1.195 . S
C114 O115 1.313 . S
O115 C114 1.313 . S
O116 Mg104 2.141 . S
O116 C107 1.289 . S
Mg117 O124 2.141 . S
Mg117 O125 2.048 . S
Mg117 O126 2.048 . S
Mg117 O129 2.141 . S
C118 O119 1.313 . S
C118 O125 1.195 . S
O119 C118 1.313 . S
C120 O121 1.245 . S
C120 O129 1.289 . S
O121 C120 1.245 . S
C122 O123 1.245 . S
C122 O124 1.289 . S
O123 C122 1.245 . S
O124 Mg117 2.141 . S
O124 C122 1.289 . S
O125 Mg117 2.048 . S
O125 C118 1.195 . S
O126 Mg117 2.048 . S
O126 C127 1.195 . S
C127 O126 1.195 . S
C127 O128 1.313 . S
O128 C127 1.313 . S
O129 Mg117 2.141 . S
O129 C120 1.289 . S
Mg130 O137 2.141 . S
Mg130 O138 2.048 . S
Mg130 O139 2.048 . S
Mg130 O142 2.141 . S
C131 O132 1.313 . S
C131 O138 1.195 . S
O132 C131 1.313 . S
C133 O134 1.245 . S
C133 O142 1.289 . S
O134 C133 1.245 . S
C135 O136 1.245 . S
C135 O137 1.289 . S
O136 C135 1.245 . S
O137 Mg130 2.141 . S
O137 C135 1.289 . S
O138 Mg130 2.048 . S
O138 C131 1.195 . S
O139 Mg130 2.048 . S
O139 C140 1.195 . S
C140 O139 1.195 . S
C140 O141 1.313 . S
O141 C140 1.313 . S
O142 Mg130 2.141 . S
O142 C133 1.289 . S
Mg143 O150 2.141 . S
Mg143 O151 2.048 . S
Mg143 O152 2.048 . S
Mg143 O155 2.141 . S
C144 O145 1.313 . S
C144 O151 1.195 . S
O145 C144 1.313 . S
C146 O147 1.245 . S
C146 O155 1.289 . S
O147 C146 1.245 . S
C148 O149 1.245 . S
C148 O150 1.289 . S
O149 C148 1.245 . S
O150 Mg143 2.141 . S
O150 C148 1.289 . S
O151 Mg143 2.048 . S
O151 C144 1.195 . S
O152 Mg143 2.048 . S
O152 C153 1.195 . S
C153 O152 1.195 . S
C153 O154 1.313 . S
O154 C153 1.313 . S
O155 Mg143 2.141 . S
O155 C146 1.289 . S
H156 C162 0.930 . S
H157 C166 0.930 . S
H158 C171 0.929 . S
H159 C169 0.929 . S
H160 C164 0.929 . S
H161 C170 0.929 . S
C162 H156 0.930 . S
C162 C163 1.367 . S
C162 C170 1.378 . S
C163 C162 1.367 . S
C163 C171 1.433 . S
C164 H160 0.929 . S
C164 C166 1.378 . S
C164 C168 1.350 . S
C165 C168 1.463 1_556 S
C165 C170 1.350 . S
C165 N173 1.427 . S
C166 H157 0.930 . S
C166 C164 1.378 . S
C166 C167 1.367 . S
C167 C166 1.367 . S
C167 C169 1.433 . S
C168 C164 1.350 . S
C168 C165 1.463 1_554 S
C168 N172 1.427 . S
C169 H159 0.929 . S
C169 C167 1.433 . S
C169 N172 1.384 . S
C170 H161 0.929 . S
C170 C162 1.378 . S
C170 C165 1.350 . S
C171 H158 0.929 . S
C171 C163 1.433 . S
C171 N173 1.384 . S
N172 C168 1.427 . S
N172 C169 1.384 . S
N173 C165 1.427 . S
N173 C171 1.384 . S
H174 C180 0.930 . S
H175 C184 0.930 . S
H176 C189 0.929 . S
H177 C187 0.929 . S
H178 C182 0.929 . S
H179 C188 0.929 . S
C180 H174 0.930 . S
C180 C181 1.367 . S
C180 C188 1.378 . S
C181 C180 1.367 . S
C181 C189 1.433 . S
C182 H178 0.929 . S
C182 C184 1.378 . S
C182 C186 1.350 . S
C183 C186 1.463 . S
C183 C188 1.350 . S
C183 N191 1.427 . S
C184 H175 0.930 . S
C184 C182 1.378 . S
C184 C185 1.367 . S
C185 C184 1.367 . S
C185 C187 1.433 . S
C186 C182 1.350 . S
C186 C183 1.463 . S
C186 N190 1.427 . S
C187 H177 0.929 . S
C187 C185 1.433 . S
C187 N190 1.384 . S
C188 H179 0.929 . S
C188 C180 1.378 . S
C188 C183 1.350 . S
C189 H176 0.929 . S
C189 C181 1.433 . S
C189 N191 1.384 . S
N190 C186 1.427 . S
N190 C187 1.384 . S
N191 C183 1.427 . S
N191 C189 1.384 . S
H192 C198 0.930 . S
H193 C202 0.930 . S
H194 C207 0.929 . S
H195 C205 0.929 . S
H196 C200 0.929 . S
H197 C206 0.929 . S
C198 H192 0.930 . S
C198 C199 1.367 . S
C198 C206 1.378 . S
C199 C198 1.367 . S
C199 C207 1.433 . S
C200 H196 0.929 . S
C200 C202 1.378 . S
C200 C204 1.350 . S
C201 C204 1.463 . S
C201 C206 1.350 . S
C201 N209 1.427 . S
C202 H193 0.930 . S
C202 C200 1.378 . S
C202 C203 1.367 . S
C203 C202 1.367 . S
C203 C205 1.433 . S
C204 C200 1.350 . S
C204 C201 1.463 . S
C204 N208 1.427 . S
C205 H195 0.929 . S
C205 C203 1.433 . S
C205 N208 1.384 . S
C206 H197 0.929 . S
C206 C198 1.378 . S
C206 C201 1.350 . S
C207 H194 0.929 . S
C207 C199 1.433 . S
C207 N209 1.384 . S
N208 C204 1.427 . S
N208 C205 1.384 . S
N209 C201 1.427 . S
N209 C207 1.384 . S
H210 C216 0.930 . S
H211 C220 0.930 . S
H212 C225 0.929 . S
H213 C223 0.929 . S
H214 C218 0.929 . S
H215 C224 0.929 . S
C216 H210 0.930 . S
C216 C217 1.367 . S
C216 C224 1.378 . S
C217 C216 1.367 . S
C217 C225 1.433 . S
C218 H214 0.929 . S
C218 C220 1.378 . S
C218 C222 1.350 . S
C219 C222 1.463 1_554 S
C219 C224 1.350 . S
C219 N227 1.427 . S
C220 H211 0.930 . S
C220 C218 1.378 . S
C220 C221 1.367 . S
C221 C220 1.367 . S
C221 C223 1.433 . S
C222 C218 1.350 . S
C222 C219 1.463 1_556 S
C222 N226 1.427 . S
C223 H213 0.929 . S
C223 C221 1.433 . S
C223 N226 1.384 . S
C224 H215 0.929 . S
C224 C216 1.378 . S
C224 C219 1.350 . S
C225 H212 0.929 . S
C225 C217 1.433 . S
C225 N227 1.384 . S
N226 C222 1.427 . S
N226 C223 1.384 . S
N227 C219 1.427 . S
N227 C225 1.384 . S
H228 C234 0.930 . S
H229 C238 0.930 . S
H230 C243 0.929 . S
H231 C241 0.929 . S
H232 C236 0.929 . S
H233 C242 0.929 . S
C234 H228 0.930 . S
C234 C235 1.367 . S
C234 C242 1.378 . S
C235 C234 1.367 . S
C235 C243 1.433 . S
C236 H232 0.929 . S
C236 C238 1.378 . S
C236 C240 1.350 . S
C237 C240 1.463 . S
C237 C242 1.350 . S
C237 N245 1.427 . S
C238 H229 0.930 . S
C238 C236 1.378 . S
C238 C239 1.367 . S
C239 C238 1.367 . S
C239 C241 1.433 . S
C240 C236 1.350 . S
C240 C237 1.463 . S
C240 N244 1.427 . S
C241 H231 0.929 . S
C241 C239 1.433 . S
C241 N244 1.384 . S
C242 H233 0.929 . S
C242 C234 1.378 . S
C242 C237 1.350 . S
C243 H230 0.929 . S
C243 C235 1.433 . S
C243 N245 1.384 . S
N244 C240 1.427 . S
N244 C241 1.384 . S
N245 C237 1.427 . S
N245 C243 1.384 . S
H246 C252 0.930 . S
H247 C256 0.930 . S
H248 C261 0.929 . S
H249 C259 0.929 . S
H250 C254 0.929 . S
H251 C260 0.929 . S
C252 H246 0.930 . S
C252 C253 1.367 . S
C252 C260 1.378 . S
C253 C252 1.367 . S
C253 C261 1.433 . S
C254 H250 0.929 . S
C254 C256 1.378 . S
C254 C258 1.350 . S
C255 C258 1.463 . S
C255 C260 1.350 . S
C255 N263 1.427 . S
C256 H247 0.930 . S
C256 C254 1.378 . S
C256 C257 1.367 . S
C257 C256 1.367 . S
C257 C259 1.433 . S
C258 C254 1.350 . S
C258 C255 1.463 . S
C258 N262 1.427 . S
C259 H249 0.929 . S
C259 C257 1.433 . S
C259 N262 1.384 . S
C260 H251 0.929 . S
C260 C252 1.378 . S
C260 C255 1.350 . S
C261 H248 0.929 . S
C261 C253 1.433 . S
C261 N263 1.384 . S
N262 C258 1.427 . S
N262 C259 1.384 . S
N263 C255 1.427 . S
N263 C261 1.384 . S
H264 C270 0.930 . S
H265 C274 0.930 . S
H266 C279 0.929 . S
H267 C277 0.929 . S
H268 C272 0.929 . S
H269 C278 0.929 . S
C270 H264 0.930 . S
C270 C271 1.367 . S
C270 C278 1.378 . S
C271 C270 1.367 . S
C271 C279 1.433 . S
C272 H268 0.929 . S
C272 C274 1.378 . S
C272 C276 1.350 . S
C273 C276 1.463 . S
C273 C278 1.350 . S
C273 N281 1.427 . S
C274 H265 0.930 . S
C274 C272 1.378 . S
C274 C275 1.367 . S
C275 C274 1.367 . S
C275 C277 1.433 . S
C276 C272 1.350 . S
C276 C273 1.463 . S
C276 N280 1.427 . S
C277 H267 0.929 . S
C277 C275 1.433 . S
C277 N280 1.384 . S
C278 H269 0.929 . S
C278 C270 1.378 . S
C278 C273 1.350 . S
C279 H266 0.929 . S
C279 C271 1.433 . S
C279 N281 1.384 . S
N280 C276 1.427 . S
N280 C277 1.384 . S
N281 C273 1.427 . S
N281 C279 1.384 . S
H282 C288 0.930 . S
H283 C292 0.930 . S
H284 C297 0.929 . S
H285 C295 0.929 . S
H286 C290 0.929 . S
H287 C296 0.929 . S
C288 H282 0.930 . S
C288 C289 1.367 . S
C288 C296 1.378 . S
C289 C288 1.367 . S
C289 C297 1.433 . S
C290 H286 0.929 . S
C290 C292 1.378 . S
C290 C294 1.350 . S
C291 C294 1.463 . S
C291 C296 1.350 . S
C291 N299 1.427 . S
C292 H283 0.930 . S
C292 C290 1.378 . S
C292 C293 1.367 . S
C293 C292 1.367 . S
C293 C295 1.433 . S
C294 C290 1.350 . S
C294 C291 1.463 . S
C294 N298 1.427 . S
C295 H285 0.929 . S
C295 C293 1.433 . S
C295 N298 1.384 . S
C296 H287 0.929 . S
C296 C288 1.378 . S
C296 C291 1.350 . S
C297 H284 0.929 . S
C297 C289 1.433 . S
C297 N299 1.384 . S
N298 C294 1.427 . S
N298 C295 1.384 . S
N299 C291 1.427 . S
N299 C297 1.384 . S
H300 C306 0.930 . S
H301 C310 0.930 . S
H302 C315 0.929 . S
H303 C313 0.929 . S
H304 C308 0.929 . S
H305 C314 0.929 . S
C306 H300 0.930 . S
C306 C307 1.367 . S
C306 C314 1.378 . S
C307 C306 1.367 . S
C307 C315 1.433 . S
C308 H304 0.929 . S
C308 C310 1.378 . S
C308 C312 1.350 . S
C309 C312 1.463 . S
C309 C314 1.350 . S
C309 N317 1.427 . S
C310 H301 0.930 . S
C310 C308 1.378 . S
C310 C311 1.367 . S
C311 C310 1.367 . S
C311 C313 1.433 . S
C312 C308 1.350 . S
C312 C309 1.463 . S
C312 N316 1.427 . S
C313 H303 0.929 . S
C313 C311 1.433 . S
C313 N316 1.384 . S
C314 H305 0.929 . S
C314 C306 1.378 . S
C314 C309 1.350 . S
C315 H302 0.929 . S
C315 C307 1.433 . S
C315 N317 1.384 . S
N316 C312 1.427 . S
N316 C313 1.384 . S
N317 C309 1.427 . S
N317 C315 1.384 . S
H318 C324 0.930 . S
H319 C328 0.930 . S
H320 C333 0.929 . S
H321 C331 0.929 . S
H322 C326 0.929 . S
H323 C332 0.929 . S
C324 H318 0.930 . S
C324 C325 1.367 . S
C324 C332 1.378 . S
C325 C324 1.367 . S
C325 C333 1.433 . S
C326 H322 0.929 . S
C326 C328 1.378 . S
C326 C330 1.350 . S
C327 C330 1.463 . S
C327 C332 1.350 . S
C327 N335 1.427 . S
C328 H319 0.930 . S
C328 C326 1.378 . S
C328 C329 1.367 . S
C329 C328 1.367 . S
C329 C331 1.433 . S
C330 C326 1.350 . S
C330 C327 1.463 . S
C330 N334 1.427 . S
C331 H321 0.929 . S
C331 C329 1.433 . S
C331 N334 1.384 . S
C332 H323 0.929 . S
C332 C324 1.378 . S
C332 C327 1.350 . S
C333 H320 0.929 . S
C333 C325 1.433 . S
C333 N335 1.384 . S
N334 C330 1.427 . S
N334 C331 1.384 . S
N335 C327 1.427 . S
N335 C333 1.384 . S
H336 C342 0.930 . S
H337 C346 0.930 . S
H338 C351 0.929 . S
H339 C349 0.929 . S
H340 C344 0.929 . S
H341 C350 0.929 . S
C342 H336 0.930 . S
C342 C343 1.367 . S
C342 C350 1.378 . S
C343 C342 1.367 . S
C343 C351 1.433 . S
C344 H340 0.929 . S
C344 C346 1.378 . S
C344 C348 1.350 . S
C345 C348 1.463 . S
C345 C350 1.350 . S
C345 N353 1.427 . S
C346 H337 0.930 . S
C346 C344 1.378 . S
C346 C347 1.367 . S
C347 C346 1.367 . S
C347 C349 1.433 . S
C348 C344 1.350 . S
C348 C345 1.463 . S
C348 N352 1.427 . S
C349 H339 0.929 . S
C349 C347 1.433 . S
C349 N352 1.384 . S
C350 H341 0.929 . S
C350 C342 1.378 . S
C350 C345 1.350 . S
C351 H338 0.929 . S
C351 C343 1.433 . S
C351 N353 1.384 . S
N352 C348 1.427 . S
N352 C349 1.384 . S
N353 C345 1.427 . S
N353 C351 1.384 . S
H354 C360 0.930 . S
H355 C364 0.930 . S
H356 C369 0.929 . S
H357 C367 0.929 . S
H358 C362 0.929 . S
H359 C368 0.929 . S
C360 H354 0.930 . S
C360 C361 1.367 . S
C360 C368 1.378 . S
C361 C360 1.367 . S
C361 C369 1.433 . S
C362 H358 0.929 . S
C362 C364 1.378 . S
C362 C366 1.350 . S
C363 C366 1.463 . S
C363 C368 1.350 . S
C363 N371 1.427 . S
C364 H355 0.930 . S
C364 C362 1.378 . S
C364 C365 1.367 . S
C365 C364 1.367 . S
C365 C367 1.433 . S
C366 C362 1.350 . S
C366 C363 1.463 . S
C366 N370 1.427 . S
C367 H357 0.929 . S
C367 C365 1.433 . S
C367 N370 1.384 . S
C368 H359 0.929 . S
C368 C360 1.378 . S
C368 C363 1.350 . S
C369 H356 0.929 . S
C369 C361 1.433 . S
C369 N371 1.384 . S
N370 C366 1.427 . S
N370 C367 1.384 . S
N371 C363 1.427 . S
N371 C369 1.384 . S
H372 C378 0.930 . S
H373 C382 0.930 . S
H374 C387 0.929 . S
H375 C385 0.929 . S
H376 C380 0.929 . S
H377 C386 0.929 . S
C378 H372 0.930 . S
C378 C379 1.367 . S
C378 C386 1.378 . S
C379 C378 1.367 . S
C379 C387 1.433 . S
C380 H376 0.929 . S
C380 C382 1.378 . S
C380 C384 1.350 . S
C381 C384 1.463 1_655 S
C381 C386 1.350 . S
C381 N389 1.427 . S
C382 H373 0.930 . S
C382 C380 1.378 . S
C382 C383 1.367 . S
C383 C382 1.367 . S
C383 C385 1.433 . S
C384 C380 1.350 . S
C384 C381 1.463 1_455 S
C384 N388 1.427 . S
C385 H375 0.929 . S
C385 C383 1.433 . S
C385 N388 1.384 . S
C386 H377 0.929 . S
C386 C378 1.378 . S
C386 C381 1.350 . S
C387 H374 0.929 . S
C387 C379 1.433 . S
C387 N389 1.384 . S
N388 C384 1.427 . S
N388 C385 1.384 . S
N389 C381 1.427 . S
N389 C387 1.384 . S
H390 C396 0.930 . S
H391 C400 0.930 . S
H392 C405 0.929 . S
H393 C403 0.929 . S
H394 C398 0.929 . S
H395 C404 0.929 . S
C396 H390 0.930 . S
C396 C397 1.367 . S
C396 C404 1.378 . S
C397 C396 1.367 . S
C397 C405 1.433 . S
C398 H394 0.929 . S
C398 C400 1.378 . S
C398 C402 1.350 . S
C399 C402 1.463 1_545 S
C399 C404 1.350 . S
C399 N407 1.427 . S
C400 H391 0.930 . S
C400 C398 1.378 . S
C400 C401 1.367 . S
C401 C400 1.367 . S
C401 C403 1.433 . S
C402 C398 1.350 . S
C402 C399 1.463 1_565 S
C402 N406 1.427 . S
C403 H393 0.929 . S
C403 C401 1.433 . S
C403 N406 1.384 . S
C404 H395 0.929 . S
C404 C396 1.378 . S
C404 C399 1.350 . S
C405 H392 0.929 . S
C405 C397 1.433 . S
C405 N407 1.384 . S
N406 C402 1.427 . S
N406 C403 1.384 . S
N407 C399 1.427 . S
N407 C405 1.384 . S
H408 C414 0.930 . S
H409 C418 0.930 . S
H410 C423 0.929 . S
H411 C421 0.929 . S
H412 C416 0.929 . S
H413 C422 0.929 . S
C414 H408 0.930 . S
C414 C415 1.367 . S
C414 C422 1.378 . S
C415 C414 1.367 . S
C415 C423 1.433 . S
C416 H412 0.929 . S
C416 C418 1.378 . S
C416 C420 1.350 . S
C417 C420 1.463 . S
C417 C422 1.350 . S
C417 N425 1.427 . S
C418 H409 0.930 . S
C418 C416 1.378 . S
C418 C419 1.367 . S
C419 C418 1.367 . S
C419 C421 1.433 . S
C420 C416 1.350 . S
C420 C417 1.463 . S
C420 N424 1.427 . S
C421 H411 0.929 . S
C421 C419 1.433 . S
C421 N424 1.384 . S
C422 H413 0.929 . S
C422 C414 1.378 . S
C422 C417 1.350 . S
C423 H410 0.929 . S
C423 C415 1.433 . S
C423 N425 1.384 . S
N424 C420 1.427 . S
N424 C421 1.384 . S
N425 C417 1.427 . S
N425 C423 1.384 . S
H426 C432 0.930 . S
H427 C436 0.930 . S
H428 C441 0.929 . S
H429 C439 0.929 . S
H430 C434 0.929 . S
H431 C440 0.929 . S
C432 H426 0.930 . S
C432 C433 1.367 . S
C432 C440 1.378 . S
C433 C432 1.367 . S
C433 C441 1.433 . S
C434 H430 0.929 . S
C434 C436 1.378 . S
C434 C438 1.350 . S
C435 C438 1.463 1_545 S
C435 C440 1.350 . S
C435 N443 1.427 . S
C436 H427 0.930 . S
C436 C434 1.378 . S
C436 C437 1.367 . S
C437 C436 1.367 . S
C437 C439 1.433 . S
C438 C434 1.350 . S
C438 C435 1.463 1_565 S
C438 N442 1.427 . S
C439 H429 0.929 . S
C439 C437 1.433 . S
C439 N442 1.384 . S
C440 H431 0.929 . S
C440 C432 1.378 . S
C440 C435 1.350 . S
C441 H428 0.929 . S
C441 C433 1.433 . S
C441 N443 1.384 . S
N442 C438 1.427 . S
N442 C439 1.384 . S
N443 C435 1.427 . S
N443 C441 1.384 . S
H444 C450 0.930 . S
H445 C454 0.930 . S
H446 C459 0.929 . S
H447 C457 0.929 . S
H448 C452 0.929 . S
H449 C458 0.929 . S
C450 H444 0.930 . S
C450 C451 1.367 . S
C450 C458 1.378 . S
C451 C450 1.367 . S
C451 C459 1.433 . S
C452 H448 0.929 . S
C452 C454 1.378 . S
C452 C456 1.350 . S
C453 C456 1.463 . S
C453 C458 1.350 . S
C453 N461 1.427 . S
C454 H445 0.930 . S
C454 C452 1.378 . S
C454 C455 1.367 . S
C455 C454 1.367 . S
C455 C457 1.433 . S
C456 C452 1.350 . S
C456 C453 1.463 . S
C456 N460 1.427 . S
C457 H447 0.929 . S
C457 C455 1.433 . S
C457 N460 1.384 . S
C458 H449 0.929 . S
C458 C450 1.378 . S
C458 C453 1.350 . S
C459 H446 0.929 . S
C459 C451 1.433 . S
C459 N461 1.384 . S
N460 C456 1.427 . S
N460 C457 1.384 . S
N461 C453 1.427 . S
N461 C459 1.384 . S
H462 C468 0.930 . S
H463 C472 0.930 . S
H464 C477 0.929 . S
H465 C475 0.929 . S
H466 C470 0.929 . S
H467 C476 0.929 . S
C468 H462 0.930 . S
C468 C469 1.367 . S
C468 C476 1.378 . S
C469 C468 1.367 . S
C469 C477 1.433 . S
C470 H466 0.929 . S
C470 C472 1.378 . S
C470 C474 1.350 . S
C471 C474 1.463 1_455 S
C471 C476 1.350 . S
C471 N479 1.427 . S
C472 H463 0.930 . S
C472 C470 1.378 . S
C472 C473 1.367 . S
C473 C472 1.367 . S
C473 C475 1.433 . S
C474 C470 1.350 . S
C474 C471 1.463 1_655 S
C474 N478 1.427 . S
C475 H465 0.929 . S
C475 C473 1.433 . S
C475 N478 1.384 . S
C476 H467 0.929 . S
C476 C468 1.378 . S
C476 C471 1.350 . S
C477 H464 0.929 . S
C477 C469 1.433 . S
C477 N479 1.384 . S
N478 C474 1.427 . S
N478 C475 1.384 . S
N479 C471 1.427 . S
N479 C477 1.384 . S
H480 C486 0.930 . S
H481 C490 0.930 . S
H482 C495 0.929 . S
H483 C493 0.929 . S
H484 C488 0.929 . S
H485 C494 0.929 . S
C486 H480 0.930 . S
C486 C487 1.367 . S
C486 C494 1.378 . S
C487 C486 1.367 . S
C487 C495 1.433 . S
C488 H484 0.929 . S
C488 C490 1.378 . S
C488 C492 1.350 . S
C489 C492 1.463 . S
C489 C494 1.350 . S
C489 N497 1.427 . S
C490 H481 0.930 . S
C490 C488 1.378 . S
C490 C491 1.367 . S
C491 C490 1.367 . S
C491 C493 1.433 . S
C492 C488 1.350 . S
C492 C489 1.463 . S
C492 N496 1.427 . S
C493 H483 0.929 . S
C493 C491 1.433 . S
C493 N496 1.384 . S
C494 H485 0.929 . S
C494 C486 1.378 . S
C494 C489 1.350 . S
C495 H482 0.929 . S
C495 C487 1.433 . S
C495 N497 1.384 . S
N496 C492 1.427 . S
N496 C493 1.384 . S
N497 C489 1.427 . S
N497 C495 1.384 . S
H498 C504 0.930 . S
H499 C508 0.930 . S
H500 C513 0.929 . S
H501 C511 0.929 . S
H502 C506 0.929 . S
H503 C512 0.929 . S
C504 H498 0.930 . S
C504 C505 1.367 . S
C504 C512 1.378 . S
C505 C504 1.367 . S
C505 C513 1.433 . S
C506 H502 0.929 . S
C506 C508 1.378 . S
C506 C510 1.350 . S
C507 C510 1.463 1_655 S
C507 C512 1.350 . S
C507 N515 1.427 . S
C508 H499 0.930 . S
C508 C506 1.378 . S
C508 C509 1.367 . S
C509 C508 1.367 . S
C509 C511 1.433 . S
C510 C506 1.350 . S
C510 C507 1.463 1_455 S
C510 N514 1.427 . S
C511 H501 0.929 . S
C511 C509 1.433 . S
C511 N514 1.384 . S
C512 H503 0.929 . S
C512 C504 1.378 . S
C512 C507 1.350 . S
C513 H500 0.929 . S
C513 C505 1.433 . S
C513 N515 1.384 . S
N514 C510 1.427 . S
N514 C511 1.384 . S
N515 C507 1.427 . S
N515 C513 1.384 . S
H516 C522 0.930 . S
H517 C526 0.930 . S
H518 C531 0.929 . S
H519 C529 0.929 . S
H520 C524 0.929 . S
H521 C530 0.929 . S
C522 H516 0.930 . S
C522 C523 1.367 . S
C522 C530 1.378 . S
C523 C522 1.367 . S
C523 C531 1.433 . S
C524 H520 0.929 . S
C524 C526 1.378 . S
C524 C528 1.350 . S
C525 C528 1.463 1_545 S
C525 C530 1.350 . S
C525 N533 1.427 . S
C526 H517 0.930 . S
C526 C524 1.378 . S
C526 C527 1.367 . S
C527 C526 1.367 . S
C527 C529 1.433 . S
C528 C524 1.350 . S
C528 C525 1.463 1_565 S
C528 N532 1.427 . S
C529 H519 0.929 . S
C529 C527 1.433 . S
C529 N532 1.384 . S
C530 H521 0.929 . S
C530 C522 1.378 . S
C530 C525 1.350 . S
C531 H518 0.929 . S
C531 C523 1.433 . S
C531 N533 1.384 . S
N532 C528 1.427 . S
N532 C529 1.384 . S
N533 C525 1.427 . S
N533 C531 1.384 . S
H534 C540 0.930 . S
H535 C544 0.930 . S
H536 C549 0.929 . S
H537 C547 0.929 . S
H538 C542 0.929 . S
H539 C548 0.929 . S
C540 H534 0.930 . S
C540 C541 1.367 . S
C540 C548 1.378 . S
C541 C540 1.367 . S
C541 C549 1.433 . S
C542 H538 0.929 . S
C542 C544 1.378 . S
C542 C546 1.350 . S
C543 C546 1.463 . S
C543 C548 1.350 . S
C543 N551 1.427 . S
C544 H535 0.930 . S
C544 C542 1.378 . S
C544 C545 1.367 . S
C545 C544 1.367 . S
C545 C547 1.433 . S
C546 C542 1.350 . S
C546 C543 1.463 . S
C546 N550 1.427 . S
C547 H537 0.929 . S
C547 C545 1.433 . S
C547 N550 1.384 . S
C548 H539 0.929 . S
C548 C540 1.378 . S
C548 C543 1.350 . S
C549 H536 0.929 . S
C549 C541 1.433 . S
C549 N551 1.384 . S
N550 C546 1.427 . S
N550 C547 1.384 . S
N551 C543 1.427 . S
N551 C549 1.384 . S
H552 C558 0.930 . S
H553 C562 0.930 . S
H554 C567 0.929 . S
H555 C565 0.929 . S
H556 C560 0.929 . S
H557 C566 0.929 . S
C558 H552 0.930 . S
C558 C559 1.367 . S
C558 C566 1.378 . S
C559 C558 1.367 . S
C559 C567 1.433 . S
C560 H556 0.929 . S
C560 C562 1.378 . S
C560 C564 1.350 . S
C561 C564 1.463 1_455 S
C561 C566 1.350 . S
C561 N569 1.427 . S
C562 H553 0.930 . S
C562 C560 1.378 . S
C562 C563 1.367 . S
C563 C562 1.367 . S
C563 C565 1.433 . S
C564 C560 1.350 . S
C564 C561 1.463 1_655 S
C564 N568 1.427 . S
C565 H555 0.929 . S
C565 C563 1.433 . S
C565 N568 1.384 . S
C566 H557 0.929 . S
C566 C558 1.378 . S
C566 C561 1.350 . S
C567 H554 0.929 . S
C567 C559 1.433 . S
C567 N569 1.384 . S
N568 C564 1.427 . S
N568 C565 1.384 . S
N569 C561 1.427 . S
N569 C567 1.384 . S
H570 C576 0.930 . S
H571 C580 0.930 . S
H572 C585 0.929 . S
H573 C583 0.929 . S
H574 C578 0.929 . S
H575 C584 0.929 . S
C576 H570 0.930 . S
C576 C577 1.367 . S
C576 C584 1.378 . S
C577 C576 1.367 . S
C577 C585 1.433 . S
C578 H574 0.929 . S
C578 C580 1.378 . S
C578 C582 1.350 . S
C579 C582 1.463 1_565 S
C579 C584 1.350 . S
C579 N587 1.427 . S
C580 H571 0.930 . S
C580 C578 1.378 . S
C580 C581 1.367 . S
C581 C580 1.367 . S
C581 C583 1.433 . S
C582 C578 1.350 . S
C582 C579 1.463 1_545 S
C582 N586 1.427 . S
C583 H573 0.929 . S
C583 C581 1.433 . S
C583 N586 1.384 . S
C584 H575 0.929 . S
C584 C576 1.378 . S
C584 C579 1.350 . S
C585 H572 0.929 . S
C585 C577 1.433 . S
C585 N587 1.384 . S
N586 C582 1.427 . S
N586 C583 1.384 . S
N587 C579 1.427 . S
N587 C585 1.384 . S
C163 C131 1.546 . S
C167 C1 1.552 . S
C181 C14 1.551 . S
C185 C144 1.548 . S
C199 C27 1.544 . S
C203 C79 1.551 . S
C217 C40 1.553 . S
C221 C92 1.545 . S
C235 C105 1.552 . S
C239 C53 1.546 . S
C253 C66 1.552 . S
C257 C118 1.547 . S
C271 C107 1.556 . S
C275 C3 1.557 . S
C289 C16 1.567 . S
C293 C120 1.563 . S
C307 C29 1.562 . S
C311 C133 1.558 . S
C325 C42 1.561 . S
C329 C146 1.558 . S
C343 C81 1.566 . S
C347 C55 1.562 . S
C361 C94 1.556 . S
C365 C68 1.557 . S
C379 C49 1.766 . S
C383 C10 1.767 . S
C397 C23 1.767 . S
C401 C62 1.766 . S
C415 C75 1.770 . S
C419 C36 1.769 . S
C433 C127 1.771 . S
C437 C88 1.771 . S
C451 C140 1.767 . S
C455 C101 1.766 . S
C469 C114 1.767 . S
C473 C153 1.766 . S
C487 C44 1.849 . S
C491 C5 1.849 . S
C505 C18 1.849 . S
C509 C57 1.849 . S
C523 C70 1.850 . S
C527 C31 1.850 . S
C541 C83 1.848 . S
C545 C122 1.848 . S
C559 C135 1.849 . S
C563 C96 1.849 . S
C577 C109 1.849 . S
C581 C148 1.849 . S
