# Generated by pormake.
# Topology bcs, (6)-cn, num edge types: 1
# Building blocks:
#     Node 0, Type 0, BuildingBlock: BETFAJ_clean_sbu_0, # of connection points: 6
#     Node 1, Type 0, BuildingBlock: BETFAJ_clean_sbu_0, # of connection points: 6
#     Node 2, Type 0, BuildingBlock: BETFAJ_clean_sbu_0, # of connection points: 6
#     Node 3, Type 0, BuildingBlock: BETFAJ_clean_sbu_0, # of connection points: 6
#     Node 4, Type 0, BuildingBlock: BETFAJ_clean_sbu_0, # of connection points: 6
#     Node 5, Type 0, BuildingBlock: BETFAJ_clean_sbu_0, # of connection points: 6
#     Node 6, Type 0, BuildingBlock: BETFAJ_clean_sbu_0, # of connection points: 6
#     Node 7, Type 0, BuildingBlock: BETFAJ_clean_sbu_0, # of connection points: 6
#     Node 8, Type 0, BuildingBlock: BETFAJ_clean_sbu_0, # of connection points: 6
#     Node 9, Type 0, BuildingBlock: BETFAJ_clean_sbu_0, # of connection points: 6
#     Node 10, Type 0, BuildingBlock: BETFAJ_clean_sbu_0, # of connection points: 6
#     Node 11, Type 0, BuildingBlock: BETFAJ_clean_sbu_0, # of connection points: 6
#     Node 12, Type 0, BuildingBlock: BETFAJ_clean_sbu_0, # of connection points: 6
#     Node 13, Type 0, BuildingBlock: BETFAJ_clean_sbu_0, # of connection points: 6
#     Node 14, Type 0, BuildingBlock: BETFAJ_clean_sbu_0, # of connection points: 6
#     Node 15, Type 0, BuildingBlock: BETFAJ_clean_sbu_0, # of connection points: 6
#     Edge 16, Type (0, 0), BuildingBlock: CIFDUS_clean_linker_0, # of connection points: 2
#     Edge 17, Type (0, 0), BuildingBlock: CIFDUS_clean_linker_0, # of connection points: 2
#     Edge 18, Type (0, 0), BuildingBlock: CIFDUS_clean_linker_0, # of connection points: 2
#     Edge 19, Type (0, 0), BuildingBlock: CIFDUS_clean_linker_0, # of connection points: 2
#     Edge 20, Type (0, 0), BuildingBlock: CIFDUS_clean_linker_0, # of connection points: 2
#     Edge 21, Type (0, 0), BuildingBlock: CIFDUS_clean_linker_0, # of connection points: 2
#     Edge 22, Type (0, 0), BuildingBlock: CIFDUS_clean_linker_0, # of connection points: 2
#     Edge 23, Type (0, 0), BuildingBlock: CIFDUS_clean_linker_0, # of connection points: 2
#     Edge 24, Type (0, 0), BuildingBlock: CIFDUS_clean_linker_0, # of connection points: 2
#     Edge 25, Type (0, 0), BuildingBlock: CIFDUS_clean_linker_0, # of connection points: 2
#     Edge 26, Type (0, 0), BuildingBlock: CIFDUS_clean_linker_0, # of connection points: 2
#     Edge 27, Type (0, 0), BuildingBlock: CIFDUS_clean_linker_0, # of connection points: 2
#     Edge 28, Type (0, 0), BuildingBlock: CIFDUS_clean_linker_0, # of connection points: 2
#     Edge 29, Type (0, 0), BuildingBlock: CIFDUS_clean_linker_0, # of connection points: 2
#     Edge 30, Type (0, 0), BuildingBlock: CIFDUS_clean_linker_0, # of connection points: 2
#     Edge 31, Type (0, 0), BuildingBlock: CIFDUS_clean_linker_0, # of connection points: 2
#     Edge 32, Type (0, 0), BuildingBlock: CIFDUS_clean_linker_0, # of connection points: 2
#     Edge 33, Type (0, 0), BuildingBlock: CIFDUS_clean_linker_0, # of connection points: 2
#     Edge 34, Type (0, 0), BuildingBlock: CIFDUS_clean_linker_0, # of connection points: 2
#     Edge 35, Type (0, 0), BuildingBlock: CIFDUS_clean_linker_0, # of connection points: 2
#     Edge 36, Type (0, 0), BuildingBlock: CIFDUS_clean_linker_0, # of connection points: 2
#     Edge 37, Type (0, 0), BuildingBlock: CIFDUS_clean_linker_0, # of connection points: 2
#     Edge 38, Type (0, 0), BuildingBlock: CIFDUS_clean_linker_0, # of connection points: 2
#     Edge 39, Type (0, 0), BuildingBlock: CIFDUS_clean_linker_0, # of connection points: 2
#     Edge 40, Type (0, 0), BuildingBlock: CIFDUS_clean_linker_0, # of connection points: 2
#     Edge 41, Type (0, 0), BuildingBlock: CIFDUS_clean_linker_0, # of connection points: 2
#     Edge 42, Type (0, 0), BuildingBlock: CIFDUS_clean_linker_0, # of connection points: 2
#     Edge 43, Type (0, 0), BuildingBlock: CIFDUS_clean_linker_0, # of connection points: 2
#     Edge 44, Type (0, 0), BuildingBlock: CIFDUS_clean_linker_0, # of connection points: 2
#     Edge 45, Type (0, 0), BuildingBlock: CIFDUS_clean_linker_0, # of connection points: 2
#     Edge 46, Type (0, 0), BuildingBlock: CIFDUS_clean_linker_0, # of connection points: 2
#     Edge 47, Type (0, 0), BuildingBlock: CIFDUS_clean_linker_0, # of connection points: 2
#     Edge 48, Type (0, 0), BuildingBlock: CIFDUS_clean_linker_0, # of connection points: 2
#     Edge 49, Type (0, 0), BuildingBlock: CIFDUS_clean_linker_0, # of connection points: 2
#     Edge 50, Type (0, 0), BuildingBlock: CIFDUS_clean_linker_0, # of connection points: 2
#     Edge 51, Type (0, 0), BuildingBlock: CIFDUS_clean_linker_0, # of connection points: 2
#     Edge 52, Type (0, 0), BuildingBlock: CIFDUS_clean_linker_0, # of connection points: 2
#     Edge 53, Type (0, 0), BuildingBlock: CIFDUS_clean_linker_0, # of connection points: 2
#     Edge 54, Type (0, 0), BuildingBlock: CIFDUS_clean_linker_0, # of connection points: 2
#     Edge 55, Type (0, 0), BuildingBlock: CIFDUS_clean_linker_0, # of connection points: 2
#     Edge 56, Type (0, 0), BuildingBlock: CIFDUS_clean_linker_0, # of connection points: 2
#     Edge 57, Type (0, 0), BuildingBlock: CIFDUS_clean_linker_0, # of connection points: 2
#     Edge 58, Type (0, 0), BuildingBlock: CIFDUS_clean_linker_0, # of connection points: 2
#     Edge 59, Type (0, 0), BuildingBlock: CIFDUS_clean_linker_0, # of connection points: 2
#     Edge 60, Type (0, 0), BuildingBlock: CIFDUS_clean_linker_0, # of connection points: 2
#     Edge 61, Type (0, 0), BuildingBlock: CIFDUS_clean_linker_0, # of connection points: 2
#     Edge 62, Type (0, 0), BuildingBlock: CIFDUS_clean_linker_0, # of connection points: 2
#     Edge 63, Type (0, 0), BuildingBlock: CIFDUS_clean_linker_0, # of connection points: 2
# Relax obj value: 0.194
# Max RMSD: 0.248
# Mean RMSD: 0.208
data_MOF--net-bcs--node1-BETFAJ_clean_sbu_0--edge1-CIFDUS_clean_linker_0
_symmetry_space_group_name_H-M    P1
_symmetry_Int_Tables_number       1
_symmetry_cell_setting            triclinic
loop_
_symmetry_equiv_pos_as_xyz
'x, y, z'
_cell_length_a     39.640222
_cell_length_b     38.878278
_cell_length_c     36.493067
_cell_angle_alpha  69.048154
_cell_angle_beta   115.08955
_cell_angle_gamma 123.79288
loop_
_atom_site_label
_atom_site_type_symbol
_atom_site_fract_x
_atom_site_fract_y
_atom_site_fract_z
_atom_type_partial_charge
Sm0 Sm 1.0516 0.97281 1.00216 0.0
Sm1 Sm 0.05862 0.04642 0.02846 0.0
C2 C 0.05642 0.9255 0.9693 0.0
C3 C 0.0796 0.91841 0.95244 0.0
C4 C 0.12361 0.93327 0.96854 0.0
C5 C 0.14341 0.91964 0.9571 0.0
C6 C 0.11955 0.89075 0.92951 0.0
C7 C 0.07576 0.87743 0.91233 0.0
C8 C 0.05612 0.89116 0.92364 0.0
C9 C 1.01796 0.94017 0.0686 0.0
C10 C 0.13842 0.03162 0.06578 0.0
C11 C 1.05125 0.10065 0.04853 0.0
C12 C 1.02627 0.11221 0.05781 0.0
C13 C 0.99012 0.08233 0.07108 0.0
C14 C 0.96783 0.09529 0.07976 0.0
C15 C 0.98141 0.13833 0.07545 0.0
C16 C 1.01756 0.16786 0.0619 0.0
C17 C 1.03962 0.15493 0.05325 0.0
C18 C 0.10055 0.07281 0.97056 0.0
C19 C 0.96598 0.976 0.9776 0.0
O20 O 1.03935 0.94999 0.94711 0.0
O21 O 0.07059 0.92685 1.00861 0.0
O22 O 1.03478 0.97785 0.05144 0.0
O23 O 1.02021 0.91816 0.05105 0.0
O24 O 0.12175 0.01194 0.03451 0.0
O25 O 0.1166 0.04092 0.07613 0.0
O26 O 0.06408 0.07424 0.07579 0.0
O27 O 1.04199 0.09735 1.01052 0.0
O28 O 0.06495 0.04006 0.9714 0.0
O29 O 0.11286 0.09332 0.99889 0.0
O30 O 0.98704 1.00424 1.00211 0.0
O31 O 0.98462 0.9634 0.96672 0.0
H32 H 0.14241 0.95423 0.99098 0.0
H33 H 0.17727 0.93116 0.97046 0.0
H34 H 0.05612 0.8548 0.8915 0.0
H35 H 1.02205 0.87886 0.91127 0.0
H36 H 0.97923 0.04916 0.07478 0.0
H37 H 0.9403 0.07163 0.09033 0.0
H38 H 1.02857 0.20115 0.05734 0.0
H39 H 0.06733 0.17851 0.04286 0.0
Sm40 Sm 0.31928 0.73004 0.29752 0.0
Sm41 Sm 0.27067 0.77306 0.24571 0.0
C42 C 0.35222 0.68406 0.35552 0.0
C43 C 0.33929 0.63983 0.36053 0.0
C44 C 0.35559 0.61981 0.398 0.0
C45 C 0.34723 0.57915 0.40139 0.0
C46 C 0.3226 0.55803 0.36718 0.0
C47 C 0.30378 0.57724 0.33045 0.0
C48 C 0.31189 0.61789 0.32723 0.0
C49 C 0.26744 0.7004 0.22401 0.0
C50 C 0.22937 0.69873 0.30934 0.0
C51 C 0.23652 0.81616 0.18436 0.0
C52 C 0.25402 0.86113 0.16855 0.0
C53 C 0.23787 0.87485 0.1273 0.0
C54 C 0.25132 0.9175 0.11298 0.0
C55 C 0.28092 0.94701 0.13988 0.0
C56 C 0.29965 0.93333 0.18045 0.0
C57 C 0.28644 0.8906 0.19466 0.0
C58 C 0.32075 0.80145 0.31973 0.0
C59 C 0.36431 0.80816 0.23841 0.0
O60 O 0.32575 0.69153 0.3594 0.0
O61 O 0.36683 0.70786 0.3242 0.0
O62 O 0.2569 0.70877 0.24632 0.0
O63 O 0.30557 0.70555 0.24092 0.0
O64 O 0.26932 0.70827 0.32865 0.0
O65 O 0.2181 0.71384 0.27033 0.0
O66 O 0.2528 0.79743 0.17925 0.0
O67 O 0.23144 0.80477 0.22078 0.0
O68 O 0.33245 0.79397 0.29774 0.0
O69 O 0.28326 0.79793 0.30146 0.0
O70 O 0.32502 0.8004 0.21777 0.0
O71 O 0.37348 0.79019 0.27662 0.0
H72 H 0.37638 0.63627 0.42403 0.0
H73 H 0.36295 0.56566 0.43001 0.0
H74 H 0.28477 0.56176 0.30372 0.0
H75 H 0.29842 0.63291 0.2982 0.0
H76 H 0.21342 0.85249 0.10666 0.0
H77 H 0.23576 0.92689 0.08166 0.0
H78 H 0.32243 0.95538 0.20174 0.0
H79 H 0.30008 0.88043 0.22649 0.0
Sm80 Sm 0.54693 1.00072 0.54632 0.0
Sm81 Sm 0.57549 0.02638 0.47459 0.0
C82 C 0.53149 1.00073 0.61024 0.0
C83 C 0.50556 0.01064 0.61962 0.0
C84 C 0.48848 0.03643 0.59077 0.0
C85 C 0.46832 0.04979 0.60177 0.0
C86 C 0.46489 0.03756 0.64183 0.0
C87 C 0.48065 0.01038 0.67012 0.0
C88 C 0.50087 0.99711 0.65908 0.0
C89 C 0.49069 0.95105 0.48683 0.0
C90 C 0.51135 0.06825 0.46078 0.0
C91 C 0.58762 0.02547 0.40908 0.0
C92 C 0.61137 0.0159 0.39591 0.0
C93 C 0.62044 0.98263 0.4174 0.0
C94 C 0.63845 0.97095 0.40148 0.0
C95 C 0.64773 0.9924 0.36388 0.0
C96 C 0.64022 0.02683 0.34345 0.0
C97 C 0.62213 0.0384 0.35933 0.0
C98 C 0.63027 0.07993 0.52996 0.0
C99 C 0.61171 0.95932 0.56112 0.0
O100 O 0.56134 0.03273 0.59441 0.0
O101 O 0.51186 0.96739 0.59328 0.0
O102 O 0.51097 0.99029 0.48171 0.0
O103 O 0.49887 0.93526 0.52558 0.0
O104 O 0.51666 0.05017 0.50132 0.0
O105 O 0.53016 0.06164 0.44222 0.0
O106 O 0.55851 0.99356 0.42601 0.0
O107 O 0.60875 0.05892 0.42628 0.0
O108 O 0.61199 0.04043 0.53859 0.0
O109 O 0.62171 0.09281 0.49062 0.0
O110 O 0.60674 0.97758 0.52054 0.0
O111 O 0.59222 0.96549 0.57925 0.0
H112 H 0.49174 0.04718 0.56012 0.0
H113 H 0.45596 0.0702 0.57909 0.0
H114 H 0.47891 1.00071 0.70131 0.0
H115 H 0.5141 0.97738 0.68179 0.0
H116 H 0.61239 0.96486 0.44576 0.0
H117 H 0.64355 0.94411 0.41782 0.0
H118 H 0.6477 0.04444 0.31483 0.0
H119 H 0.61544 0.06424 0.34242 0.0
Sm120 Sm 0.31136 0.21636 0.77794 0.0
Sm121 Sm 0.29382 0.2872 0.74853 0.0
C122 C 0.3203 0.15078 0.78681 0.0
C123 C 0.33519 0.13459 0.76928 0.0
C124 C 0.30732 0.0954 0.75621 0.0
C125 C 0.3207 0.07843 0.74067 0.0
C126 C 0.36238 0.10026 0.73805 0.0
C127 C 0.39019 0.13973 0.75084 0.0
C128 C 0.37673 0.15678 0.76627 0.0
C129 C 0.36387 0.27752 0.82796 0.0
C130 C 0.35692 0.29541 0.70881 0.0
C131 C 0.28227 0.35099 0.73991 0.0
C132 C 0.26981 0.36609 0.76151 0.0
C133 C 0.2999 0.38919 0.79364 0.0
C134 C 0.28841 0.40489 0.81278 0.0
C135 C 0.24663 0.39803 0.80014 0.0
C136 C 0.21651 0.37474 0.76816 0.0
C137 C 0.22802 0.35911 0.74895 0.0
C138 C 0.2424 0.2269 0.69774 0.0
C139 C 0.2502 0.2094 0.81911 0.0
O140 O 0.28591 0.15369 0.76401 0.0
O141 O 0.34856 0.18195 0.80731 0.0
O142 O 0.35345 0.2837 0.78934 0.0
O143 O 0.34647 0.23757 0.84198 0.0
O144 O 0.34262 0.25474 0.72394 0.0
O145 O 0.3462 0.31751 0.71751 0.0
O146 O 0.319 0.3517 0.75733 0.0
O147 O 0.25297 0.31765 0.72277 0.0
O148 O 0.2517 0.22003 0.73638 0.0
O149 O 0.26041 0.26694 0.68437 0.0
O150 O 0.26543 0.25016 0.8044 0.0
O151 O 0.25934 0.18668 0.8093 0.0
H152 H 0.27512 0.07775 0.75821 0.0
H153 H 0.2983 0.04827 0.73052 0.0
H154 H 0.42265 0.15715 0.74964 0.0
H155 H 0.39891 0.18708 0.77613 0.0
H156 H 0.33254 0.39564 0.80377 0.0
H157 H 0.31253 0.42322 0.83689 0.0
H158 H 0.18393 0.36844 0.75801 0.0
H159 H 0.2042 0.34176 0.72407 0.0
Sm160 Sm 0.08535 1.00331 0.53372 0.0
Sm161 Sm 1.01461 0.01588 0.47792 0.0
C162 C 0.14466 0.99919 0.6019 0.0
C163 C 0.14166 0.96959 0.64008 0.0
C164 C 0.17776 0.97603 0.67372 0.0
C165 C 0.17659 0.94373 0.70693 0.0
C166 C 0.13938 0.90473 0.70624 0.0
C167 C 0.10182 0.90073 0.67509 0.0
C168 C 0.10309 0.9329 0.64186 0.0
C169 C 1.0281 0.94177 0.48497 0.0
C170 C 0.99643 0.9579 0.56192 0.0
C171 C 0.95824 0.02594 0.40961 0.0
C172 C 0.96609 0.05618 0.3724 0.0
C173 C 0.9328 0.05363 0.33649 0.0
C174 C 0.93964 0.08696 0.30388 0.0
C175 C 0.97979 0.12306 0.30737 0.0
C176 C 1.01436 0.12196 0.3405 0.0
C177 C 1.00727 0.08937 0.37347 0.0
C178 C 0.0732 0.07673 0.52774 0.0
C179 C 0.09918 0.05563 0.44645 0.0
O180 O 0.12803 0.02303 0.59401 0.0
O181 O 0.13454 0.98352 0.57009 0.0
O182 O 1.01911 0.9564 0.50308 0.0
O183 O 0.06893 0.95859 0.49305 0.0
O184 O 1.03817 0.97261 0.57387 0.0
O185 O 0.97717 0.96644 0.52303 0.0
O186 O 0.96932 0.99745 0.41775 0.0
O187 O 0.97048 0.04218 0.44175 0.0
O188 O 0.08124 0.06272 0.50807 0.0
O189 O 1.03258 0.05864 0.52178 0.0
O190 O 0.05756 0.03907 0.43657 0.0
O191 O 0.1207 0.05089 0.48537 0.0
H192 H 0.20754 1.00458 0.67294 0.0
H193 H 0.2061 0.94757 0.7305 0.0
H194 H 0.07286 0.87098 0.67398 0.0
H195 H 0.07481 0.92763 0.61612 0.0
H196 H 0.90102 0.0277 0.33494 0.0
H197 H 0.9123 0.08676 0.2786 0.0
H198 H 1.04556 0.14923 0.3438 0.0
H199 H 1.0334 0.09205 0.40104 0.0
Sm200 Sm 0.3033 0.73238 0.82362 0.0
Sm201 Sm 0.31725 0.77092 0.73773 0.0
C202 C 0.28566 0.72058 0.89081 0.0
C203 C 0.26768 0.73945 0.90147 0.0
C204 C 0.29436 0.77044 0.92684 0.0
C205 C 0.27831 0.79024 0.93512 0.0
C206 C 0.23506 0.77946 0.9184 0.0
C207 C 0.20828 0.74807 0.89341 0.0
C208 C 0.22435 0.72833 0.88507 0.0
C209 C 0.26596 0.67518 0.77207 0.0
C210 C 0.24507 0.77359 0.75092 0.0
C211 C 0.32969 0.77818 0.6688 0.0
C212 C 0.34963 0.76161 0.65778 0.0
C213 C 0.32412 0.72838 0.63503 0.0
C214 C 0.34216 0.71021 0.62724 0.0
C215 C 0.3862 0.72485 0.642 0.0
C216 C 0.41181 0.75912 0.6634 0.0
C217 C 0.39382 0.77722 0.67127 0.0
C218 C 0.35494 0.82881 0.78865 0.0
C219 C 0.38209 0.73834 0.81394 0.0
O220 O 0.32369 0.74554 0.88627 0.0
O221 O 0.26029 0.69567 0.86329 0.0
O222 O 0.26737 0.71046 0.76205 0.0
O223 O 0.28306 0.66787 0.81141 0.0
O224 O 0.26483 0.76751 0.79017 0.0
O225 O 0.25581 0.77194 0.72225 0.0
O226 O 0.29431 0.75037 0.67821 0.0
O227 O 0.35453 0.80691 0.69261 0.0
O228 O 0.35279 0.79317 0.79896 0.0
O229 O 0.33937 0.83664 0.74898 0.0
O230 O 0.36291 0.74332 0.7742 0.0
O231 O 0.36733 0.73598 0.8415 0.0
H232 H 0.3279 0.7799 0.93983 0.0
H233 H 0.30006 0.81463 0.95403 0.0
H234 H 0.17473 0.73847 0.88045 0.0
H235 H 0.20276 0.7046 0.8654 0.0
H236 H 0.28998 0.71573 0.62404 0.0
H237 H 0.32145 0.68383 0.61076 0.0
H238 H 0.44594 0.77192 0.67425 0.0
H239 H 0.41459 0.80297 0.68856 0.0
Sm240 Sm 0.57295 0.96479 0.04109 0.0
Sm241 Sm 0.54155 0.02464 0.02468 0.0
C242 C 0.59846 0.91555 0.03859 0.0
C243 C 0.62294 0.91476 0.01775 0.0
C244 C 0.60387 0.90336 0.97855 0.0
C245 C 0.62639 0.89981 0.96042 0.0
C246 C 0.66842 0.90739 0.98113 0.0
C247 C 0.68768 0.9195 0.02001 0.0
C248 C 0.66515 0.92296 0.03817 0.0
C249 C 0.61665 0.01658 0.09947 0.0
C250 C 0.60793 0.05289 0.97969 0.0
C251 C 0.51964 0.07674 0.02763 0.0
C252 C 0.48668 0.07911 0.03396 0.0
C253 C 0.46255 0.04814 0.06051 0.0
C254 C 0.434 0.0533 0.06833 0.0
C255 C 0.4291 0.08949 0.04969 0.0
C256 C 0.4528 0.11984 0.02246 0.0
C257 C 0.48118 0.11465 1.01471 0.0
C258 C 0.49552 0.96966 0.96841 0.0
C259 C 0.50577 0.93489 0.08649 0.0
O260 O 0.56141 0.91318 1.01675 0.0
O261 O 0.61955 0.94137 0.06494 0.0
O262 O 0.60564 0.02838 0.0611 0.0
O263 O 0.60518 0.97687 0.10774 0.0
O264 O 0.59498 0.01247 0.9856 0.0
O265 O 0.59805 0.0677 0.99865 0.0
O266 O 0.54229 0.06171 0.05943 0.0
O267 O 0.51066 0.06529 0.99364 0.0
O268 O 0.50875 0.96055 1.00675 0.0
O269 O 0.50474 0.00884 0.95837 0.0
O270 O 0.5137 0.97433 0.0766 0.0
O271 O 0.52023 0.92093 0.07173 0.0
H272 H 0.57125 0.89635 0.96211 0.0
H273 H 0.61038 0.88985 0.93069 0.0
H274 H 0.72016 0.92608 0.0366 0.0
H275 H 0.68064 0.93148 0.06853 0.0
H276 H 0.46627 0.02037 0.07568 0.0
H277 H 0.41595 0.02909 0.08909 0.0
H278 H 0.45051 0.14841 1.00808 0.0
H279 H 0.49971 0.13902 0.99435 0.0
Sm280 Sm 0.2869 0.23817 0.23165 0.0
Sm281 Sm 0.33292 0.28556 0.29362 0.0
C282 C 0.26483 0.19887 0.17201 0.0
C283 C 0.28132 0.17786 0.16296 0.0
C284 C 0.32012 0.17886 0.18787 0.0
C285 C 0.33696 0.16107 0.17796 0.0
C286 C 0.31569 0.14249 0.14243 0.0
C287 C 0.27682 0.14172 0.11741 0.0
C288 C 0.25963 0.15893 0.12779 0.0
C289 C 0.24509 0.20413 0.2912 0.0
C290 C 0.36514 0.21229 0.314 0.0
C291 C 0.35367 0.32325 0.35387 0.0
C292 C 0.33422 0.34012 0.36446 0.0
C293 C 0.29459 0.33729 0.33981 0.0
C294 C 0.27472 0.35044 0.35153 0.0
C295 C 0.29375 0.36606 0.38859 0.0
C296 C 0.33347 0.36866 0.41325 0.0
C297 C 0.35364 0.35613 0.40113 0.0
C298 C 0.37826 0.31745 0.23812 0.0
C299 C 0.25513 0.31197 0.21083 0.0
O300 O 0.2889 0.23922 0.17137 0.0
O301 O 0.24881 0.1805 0.20279 0.0
O302 O 0.28395 0.21774 0.29719 0.0
O303 O 0.22621 0.20855 0.25201 0.0
O304 O 0.33767 0.20868 0.2753 0.0
O305 O 0.36853 0.24094 0.33002 0.0
O306 O 0.3331 0.2827 0.35547 0.0
O307 O 0.36756 0.34322 0.3217 0.0
O308 O 0.3391 0.30573 0.22888 0.0
O309 O 0.39451 0.31238 0.27773 0.0
O310 O 0.28239 0.31535 0.24962 0.0
O311 O 0.25168 0.28318 0.19497 0.0
H312 H 0.33802 0.19431 0.21445 0.0
H313 H 0.36741 0.16318 0.19744 0.0
H314 H 0.25978 0.12806 0.08967 0.0
H315 H 0.22983 0.15821 0.10789 0.0
H316 H 0.27842 0.32391 0.31203 0.0
H317 H 0.24378 0.34704 0.33215 0.0
H318 H 0.34898 0.38015 0.44207 0.0
H319 H 0.38399 0.3581 0.42087 0.0
Sm320 Sm 0.58885 0.49602 0.04165 0.0
Sm321 Sm 0.52398 0.51523 0.97923 0.0
C322 C 0.64126 0.48704 0.11425 0.0
C323 C 0.63449 0.45801 0.15225 0.0
C324 C 0.66851 0.46371 0.18795 0.0
C325 C 0.66449 0.43133 0.2214 0.0
C326 C 0.62665 0.39278 0.21872 0.0
C327 C 0.59052 0.39043 0.18588 0.0
C328 C 0.59469 0.42261 0.15227 0.0
C329 C 0.53335 0.43782 0.98866 0.0
C330 C 0.49679 0.45659 0.06028 0.0
C331 C 0.47684 0.53245 0.90674 0.0
C332 C 0.49231 0.57062 0.87738 0.0
C333 C 0.4652 0.57722 0.8391 0.0
C334 C 0.47748 0.61763 0.81642 0.0
C335 C 0.51642 0.65148 0.83265 0.0
C336 C 0.5461 0.64325 0.86741 0.0
C337 C 0.53377 0.60311 0.89013 0.0
C338 C 0.57913 0.57282 0.03225 0.0
C339 C 0.61632 0.55505 0.96083 0.0
O340 O 0.62692 0.51346 0.10346 0.0
O341 O 0.63251 0.47043 0.08367 0.0
O342 O 0.52331 0.4533 1.00472 0.0
O343 O 0.57411 0.45148 1.0016 0.0
O344 O 0.53796 0.46881 0.07556 0.0
O345 O 0.48074 0.46625 0.0205 0.0
O346 O 0.49199 0.50749 0.91379 0.0
O347 O 0.47793 0.53867 0.94032 0.0
O348 O 0.58916 0.55771 1.01582 0.0
O349 O 0.53849 0.55907 0.01972 0.0
O350 O 0.57504 0.54205 0.94543 0.0
O351 O 0.63209 0.54479 1.00043 0.0
H352 H 0.69912 0.49148 0.18867 0.0
H353 H 0.69287 0.43433 0.24649 0.0
H354 H 0.56092 0.36126 0.18334 0.0
H355 H 0.56787 0.41808 0.12501 0.0
H356 H 0.43336 0.55228 0.82863 0.0
H357 H 0.454 0.62326 0.78956 0.0
H358 H 0.5761 0.66885 0.88051 0.0
H359 H 0.5551 0.59873 0.91982 0.0
Sm360 Sm 0.80609 0.24254 0.3062 0.0
Sm361 Sm 0.81954 0.2895 0.22187 0.0
C362 C 0.78968 0.22409 0.3759 0.0
C363 C 0.77086 0.24054 0.38841 0.0
C364 C 0.78654 0.284 0.38361 0.0
C365 C 0.76561 0.29925 0.39096 0.0
C366 C 0.72827 0.27147 0.40285 0.0
C367 C 0.7132 0.22803 0.40857 0.0
C368 C 0.73432 0.21278 0.4015 0.0
C369 C 0.7635 0.19204 0.24677 0.0
C370 C 0.74837 0.28755 0.24148 0.0
C371 C 0.83602 0.30692 0.15239 0.0
C372 C 0.85289 0.28857 0.13958 0.0
C373 C 0.83678 0.24486 0.14614 0.0
C374 C 0.8559 0.22797 0.13818 0.0
C375 C 0.89188 0.25434 0.12387 0.0
C376 C 0.90724 0.29801 0.11635 0.0
C377 C 0.88797 0.31488 0.1241 0.0
C378 C 0.8605 0.34057 0.28035 0.0
C379 C 0.87663 0.24407 0.2863 0.0
O380 O 0.82754 0.25024 0.37114 0.0
O381 O 0.76415 0.20107 0.34685 0.0
O382 O 0.7678 0.2279 0.24195 0.0
O383 O 0.78035 0.18023 0.28505 0.0
O384 O 0.76915 0.27927 0.27981 0.0
O385 O 0.75839 0.28935 0.21044 0.0
O386 O 0.7978 0.28252 0.15661 0.0
O387 O 0.86246 0.32917 0.18196 0.0
O388 O 0.85756 0.30505 0.28619 0.0
O389 O 0.84371 0.35153 0.24175 0.0
O390 O 0.85524 0.25178 0.24817 0.0
O391 O 0.86714 0.2426 0.31752 0.0
H392 H 0.81427 0.30635 0.37294 0.0
H393 H 0.77777 0.33283 0.38578 0.0
H394 H 0.68481 0.20578 0.41819 0.0
H395 H 0.72142 0.1792 0.40521 0.0
H396 H 0.81017 0.22365 0.15867 0.0
H397 H 0.84348 0.19429 0.14483 0.0
H398 H 0.9345 0.31928 0.10477 0.0
H399 H 0.90116 0.34863 0.11895 0.0
Sm400 Sm 0.08171 0.4719 0.54382 0.0
Sm401 Sm 1.04146 0.52509 0.52344 0.0
C402 C 0.11376 0.42699 0.54451 0.0
C403 C 0.13937 0.42563 0.52542 0.0
C404 C 0.12128 0.41172 0.48754 0.0
C405 C 0.14464 0.40597 0.47238 0.0
C406 C 0.18647 0.41371 0.4949 0.0
C407 C 0.20489 0.42894 0.53208 0.0
C408 C 0.1816 0.43466 0.5472 0.0
C409 C 0.1219 0.52851 0.59704 0.0
C410 C 0.10867 0.55856 0.47779 0.0
C411 C 1.01239 0.57245 0.52289 0.0
C412 C 0.98099 0.57165 0.53538 0.0
C413 C 0.99499 0.59073 0.56891 0.0
C414 C 0.96687 0.59423 0.57894 0.0
C415 C 0.92405 0.57895 0.55551 0.0
C416 C 0.90973 0.55895 0.52249 0.0
C417 C 0.93793 0.55534 0.51249 0.0
C418 C 1.00228 0.4705 0.46873 0.0
C419 C 1.01528 0.43905 0.59221 0.0
O420 O 0.0753 0.42079 0.5229 0.0
O421 O 0.13335 0.45514 0.56815 0.0
O422 O 0.10813 0.53613 0.55846 0.0
O423 O 0.11562 0.49022 0.60876 0.0
O424 O 0.10157 0.51949 0.48693 0.0
O425 O 0.09515 0.57144 0.49473 0.0
O426 O 1.04418 0.56845 0.55214 0.0
O427 O 0.9987 0.5535 0.49233 0.0
O428 O 1.015 0.46118 0.5074 0.0
O429 O 1.00895 0.50891 0.45826 0.0
O430 O 1.01641 0.47586 0.57674 0.0
O431 O 1.03451 0.42722 0.58116 0.0
H432 H 0.08869 0.40407 0.47012 0.0
H433 H 0.12933 0.39383 0.44384 0.0
H434 H 0.23721 0.4358 0.54994 0.0
H435 H 0.19638 0.44511 0.57661 0.0
H436 H 1.02809 0.60414 0.58674 0.0
H437 H 0.97914 0.61049 0.6041 0.0
H438 H 0.87686 0.54662 0.50404 0.0
H439 H 0.92616 0.54065 0.4863 0.0
Sm440 Sm 0.81197 0.71635 0.27878 0.0
Sm441 Sm 0.79384 0.78764 0.2481 0.0
C442 C 0.82072 0.65095 0.28675 0.0
C443 C 0.84082 0.63719 0.27295 0.0
C444 C 0.81491 0.60425 0.24999 0.0
C445 C 0.8328 0.58954 0.23751 0.0
C446 C 0.87706 0.60726 0.24802 0.0
C447 C 0.90305 0.64025 0.27105 0.0
C448 C 0.88512 0.65516 0.28335 0.0
C449 C 0.86354 0.77795 0.32777 0.0
C450 C 0.85893 0.79626 0.21035 0.0
C451 C 0.78337 0.85206 0.2396 0.0
C452 C 0.76953 0.86694 0.25992 0.0
C453 C 0.79965 0.89422 0.2887 0.0
C454 C 0.78712 0.90963 0.30698 0.0
C455 C 0.74421 0.89839 0.29667 0.0
C456 C 0.71407 0.87116 0.26785 0.0
C457 C 0.72659 0.85566 0.2496 0.0
C458 C 0.74317 0.72671 0.19851 0.0
C459 C 0.74867 0.70897 0.31769 0.0
O460 O 0.78969 0.65751 0.25909 0.0
O461 O 0.84501 0.67801 0.31224 0.0
O462 O 0.85326 0.78383 0.28918 0.0
O463 O 0.84682 0.7381 0.34235 0.0
O464 O 0.84706 0.75631 0.22772 0.0
O465 O 0.84531 0.81749 0.21618 0.0
O466 O 0.81926 0.85123 0.25937 0.0
O467 O 0.75459 0.81991 0.22049 0.0
O468 O 0.75266 0.72033 0.23712 0.0
O469 O 0.76023 0.76665 0.18442 0.0
O470 O 0.76297 0.74956 0.30224 0.0
O471 O 0.75932 0.68664 0.30924 0.0
H472 H 0.78066 0.58959 0.24195 0.0
H473 H 0.81195 0.56377 0.22023 0.0
H474 H 0.93727 0.65478 0.27925 0.0
H475 H 0.90593 0.68058 0.30106 0.0
H476 H 0.83308 0.90407 0.29685 0.0
H477 H 0.81117 0.93106 0.32859 0.0
H478 H 0.68071 0.86163 0.25955 0.0
H479 H 0.70263 0.83504 0.22726 0.0
Sm480 Sm 0.82796 0.22411 0.79707 0.0
Sm481 Sm 0.77452 0.26041 0.75858 0.0
C482 C 0.86551 0.17918 0.84721 0.0
C483 C 0.84799 0.13359 0.85624 0.0
C484 C 0.86422 0.11487 0.89479 0.0
C485 C 0.84973 0.07186 0.90267 0.0
C486 C 0.81885 0.04681 0.87193 0.0
C487 C 0.80056 0.06537 0.83417 0.0
C488 C 0.81481 0.10848 0.82648 0.0
C489 C 0.77316 0.19774 0.72286 0.0
C490 C 0.73799 0.17822 0.81707 0.0
C491 C 0.73461 0.30345 0.70955 0.0
C492 C 0.7501 0.34879 0.69927 0.0
C493 C 0.73413 0.36604 0.65962 0.0
C494 C 0.74706 0.40881 0.64998 0.0
C495 C 0.77612 0.43506 0.68 0.0
C496 C 0.79389 0.41801 0.71919 0.0
C497 C 0.78126 0.37516 0.72866 0.0
C498 C 0.8284 0.28509 0.83346 0.0
C499 C 0.86479 0.30694 0.7375 0.0
O500 O 0.85033 0.19379 0.85987 0.0
O501 O 0.86881 0.19661 0.81012 0.0
O502 O 0.76283 0.19987 0.74977 0.0
O503 O 0.81303 0.20899 0.73471 0.0
O504 O 0.77862 0.18947 0.83335 0.0
O505 O 0.72466 0.19644 0.78035 0.0
O506 O 0.74985 0.28951 0.69609 0.0
O507 O 0.73309 0.28664 0.74725 0.0
O508 O 0.83942 0.28425 0.80629 0.0
O509 O 0.78844 0.27365 0.8215 0.0
O510 O 0.82492 0.29884 0.72346 0.0
O511 O 0.87786 0.2858 0.77224 0.0
H512 H 0.88924 0.13372 0.91827 0.0
H513 H 0.86522 0.05892 0.93192 0.0
H514 H 0.77692 0.04695 0.80999 0.0
H515 H 0.80109 0.12246 0.79676 0.0
H516 H 0.71062 0.34624 0.63646 0.0
H517 H 0.73201 0.42069 0.61969 0.0
H518 H 0.81613 0.43745 0.74284 0.0
H519 H 0.79482 0.36243 0.75929 0.0
Sm520 Sm 0.78624 0.73619 0.73204 0.0
Sm521 Sm 0.83516 0.79078 0.79784 0.0
C522 C 0.76623 0.70367 0.66852 0.0
C523 C 0.7823 0.68317 0.65791 0.0
C524 C 0.79793 0.70127 0.62384 0.0
C525 C 0.81427 0.68276 0.61419 0.0
C526 C 0.8151 0.64559 0.63831 0.0
C527 C 0.79868 0.62715 0.67197 0.0
C528 C 0.78253 0.64571 0.68171 0.0
C529 C 0.73771 0.69871 0.78619 0.0
C530 C 0.86328 0.71192 0.81798 0.0
C531 C 0.85629 0.82225 0.86258 0.0
C532 C 0.83509 0.82942 0.88152 0.0
C533 C 0.79346 0.82295 0.86166 0.0
C534 C 0.77409 0.8315 0.87909 0.0
C535 C 0.79598 0.84645 0.91677 0.0
C536 C 0.83759 0.85242 0.9367 0.0
C537 C 0.85703 0.84414 0.9191 0.0
C538 C 0.88434 0.82738 0.74443 0.0
C539 C 0.75771 0.81467 0.7125 0.0
O540 O 0.79038 0.74381 0.67025 0.0
O541 O 0.74822 0.68294 0.69794 0.0
O542 O 0.77306 0.73201 0.789 0.0
O543 O 0.72607 0.68572 0.75263 0.0
O544 O 0.83514 0.70501 0.77969 0.0
O545 O 0.86694 0.7426 0.8316 0.0
O546 O 0.84503 0.78312 0.86443 0.0
O547 O 0.86016 0.84491 0.82671 0.0
O548 O 0.84874 0.7945 0.74176 0.0
O549 O 0.89607 0.84071 0.77781 0.0
O550 O 0.78495 0.81975 0.75127 0.0
O551 O 0.75422 0.78493 0.69747 0.0
H552 H 0.79803 0.73008 0.605 0.0
H553 H 0.82724 0.69822 0.58841 0.0
H554 H 0.79835 0.59835 0.69097 0.0
H555 H 0.77058 0.63078 0.70813 0.0
H556 H 0.77607 0.81155 0.83258 0.0
H557 H 0.74182 0.826 0.86326 0.0
H558 H 0.85543 0.86422 0.96555 0.0
H559 H 0.88932 0.84957 0.93466 0.0
Sm560 Sm 0.5505 0.46366 0.50181 0.0
Sm561 Sm 0.56156 0.53803 0.53172 0.0
C562 C 0.55576 0.41041 0.47788 0.0
C563 C 0.58188 0.40048 0.46857 0.0
C564 C 0.62025 0.43145 0.45968 0.0
C565 C 0.644 0.42016 0.45125 0.0
C566 C 0.62974 0.37773 0.45159 0.0
C567 C 0.5913 0.34708 0.46072 0.0
C568 C 0.56771 0.35837 0.46903 0.0
C569 C 0.50923 0.43693 0.56011 0.0
C570 C 0.64374 0.52815 0.55815 0.0
C571 C 0.55633 0.58508 0.56499 0.0
C572 C 0.5259 0.59375 0.56884 0.0
C573 C 0.51552 0.58016 0.6057 0.0
C574 C 0.4909 0.59272 0.61077 0.0
C575 C 0.47629 0.61943 0.57919 0.0
C576 C 0.48598 0.63216 0.54206 0.0
C577 C 0.51039 0.61957 0.53698 0.0
C578 C 0.59475 0.57001 0.4649 0.0
C579 C 0.47262 0.48132 0.4673 0.0
O580 O 0.54524 0.43897 0.45218 0.0
O581 O 0.56318 0.41064 0.51641 0.0
O582 O 0.54536 0.46934 0.55995 0.0
O583 O 0.49629 0.41708 0.53098 0.0
O584 O 0.62213 0.50197 0.53141 0.0
O585 O 0.62612 0.54172 0.56938 0.0
O586 O 0.55834 0.55053 0.58532 0.0
O587 O 0.56119 0.59552 0.52866 0.0
O588 O 0.57646 0.53237 0.48148 0.0
O589 O 0.59474 0.59266 0.48366 0.0
O590 O 0.49131 0.50296 0.49745 0.0
O591 O 0.49231 0.46998 0.45627 0.0
H592 H 0.63178 0.46418 0.45927 0.0
H593 H 0.67328 0.44466 0.44409 0.0
H594 H 0.57965 0.31411 0.4622 0.0
H595 H 0.5383 0.33398 0.47608 0.0
H596 H 0.52724 0.56059 0.63098 0.0
H597 H 0.48367 0.58179 0.63963 0.0
H598 H 0.47605 0.65324 0.51725 0.0
H599 H 0.51815 0.63126 0.50831 0.0
Sm600 Sm 1.04543 0.50003 0.04602 0.0
Sm601 Sm 0.07683 0.52633 0.97699 0.0
C602 C 1.02888 0.49878 0.10973 0.0
C603 C 1.00212 0.50709 0.11973 0.0
C604 C 0.98806 0.53608 0.09363 0.0
C605 C 0.9656 0.54609 0.10536 0.0
C606 C 0.95686 0.52727 0.1434 0.0
C607 C 0.96996 0.49732 0.16884 0.0
C608 C 0.99241 0.48736 0.15708 0.0
C609 C 0.99223 0.44813 0.98852 0.0
C610 C 1.00965 0.56636 0.95895 0.0
C611 C 0.09464 0.52937 0.91329 0.0
C612 C 0.12004 0.5206 0.9016 0.0
C613 C 0.12677 0.48576 0.92192 0.0
C614 C 0.14538 0.47437 0.90645 0.0
C615 C 0.15761 0.49766 0.87046 0.0
C616 C 0.15284 0.53381 0.85154 0.0
C617 C 0.13413 0.54509 0.86696 0.0
C618 C 0.12914 0.57847 0.03416 0.0
C619 C 0.11082 0.45826 0.06239 0.0
O620 O 0.05871 0.53141 0.09418 0.0
O621 O 1.00997 0.46572 0.09258 0.0
O622 O 1.01095 0.48752 0.98155 0.0
O623 O 0.99998 0.43392 0.02763 0.0
O624 O 1.0132 0.5483 0.99943 0.0
O625 O 1.03039 0.55985 0.94268 0.0
O626 O 0.06384 0.49685 0.92755 0.0
O627 O 0.11448 0.56151 0.93207 0.0
O628 O 0.11163 0.5391 0.04156 0.0
O629 O 0.12046 0.59247 0.99509 0.0
O630 O 0.10675 0.47683 0.02211 0.0
O631 O 0.09085 0.46453 0.07993 0.0
H632 H 0.99528 0.55169 0.06465 0.0
H633 H 0.9563 0.56955 0.08524 0.0
H634 H 0.96315 0.48181 0.19801 0.0
H635 H 1.00293 0.4648 0.17753 0.0
H636 H 0.11616 0.46642 0.94878 0.0
H637 H 0.14834 0.44621 0.92161 0.0
H638 H 0.16267 0.55285 0.82423 0.0
H639 H 0.12929 0.57215 0.85095 0.0
H640 H 0.19279 0.12572 0.83684 0.0
H641 H 0.24719 0.24758 0.86671 0.0
H642 H 0.2061 0.21615 0.91521 0.0
H643 H 0.15561 0.15432 0.95031 0.0
H644 H 0.09692 0.03249 0.91865 0.0
H645 H 0.13834 0.06339 0.86987 0.0
C646 C 0.19567 0.14542 0.85395 0.0
C647 C 0.2236 0.18926 0.84802 0.0
C648 C 0.17096 0.12705 0.88152 0.0
C649 C 0.22622 0.21404 0.87031 0.0
C650 C 0.20267 0.19597 0.89823 0.0
C651 C 0.15158 0.13439 0.93262 0.0
C652 C 0.12296 0.09091 0.93836 0.0
C653 C 0.17504 0.15258 0.90421 0.0
C654 C 0.11828 0.06592 0.91483 0.0
C655 C 0.14223 0.08369 0.88701 0.0
H656 H 0.20089 0.05543 0.03632 0.0
H657 H 0.17333 0.02734 0.14899 0.0
H658 H 0.23256 0.01207 0.18738 0.0
H659 H 0.2722 0.98321 0.18363 0.0
H660 H 0.29233 1.00298 0.06895 0.0
H661 H 0.25691 0.04597 0.03655 0.0
C662 C 0.20891 0.04737 0.06951 0.0
C663 C 0.18213 0.0407 0.08988 0.0
C664 C 0.24102 0.03621 0.09069 0.0
C665 C 0.19328 0.03187 0.13279 0.0
C666 C 0.22682 0.0227 0.15458 0.0
C667 C 0.27093 0.99881 0.15216 0.0
C668 C 0.28295 0.98851 0.12805 0.0
C669 C 0.24821 0.02118 0.13326 0.0
C670 C 0.28193 0.00949 0.0876 0.0
C671 C 0.26122 0.03358 0.06899 0.0
H672 H 0.43809 0.86618 0.48892 0.0
H673 H 0.47552 0.98428 0.40662 0.0
H674 H 0.42668 0.94852 0.34789 0.0
H675 H 0.3729 0.88386 0.31916 0.0
H676 H 0.3332 0.76535 0.39966 0.0
H677 H 0.38291 0.80067 0.45969 0.0
C678 C 0.43545 0.8839 0.45811 0.0
C679 C 0.46049 0.92775 0.45219 0.0
C680 C 0.40678 0.86306 0.4241 0.0
C681 C 0.45669 0.95045 0.4121 0.0
C682 C 0.42872 0.93008 0.37837 0.0
C683 C 0.37528 0.86601 0.34996 0.0
C684 C 0.34987 0.82246 0.3555 0.0
C685 C 0.4036 0.88649 0.38395 0.0
C686 C 0.35276 0.79914 0.39516 0.0
C687 C 0.3811 0.81929 0.42931 0.0
H688 H 0.41146 0.13987 0.68644 0.0
H689 H 0.34582 0.01874 0.75469 0.0
H690 H 0.3703 0.98828 0.72981 0.0
H691 H 0.41152 0.99637 0.68964 0.0
H692 H 0.4791 0.11818 0.62343 0.0
H693 H 0.4526 0.14794 0.64647 0.0
C694 C 0.40278 0.10688 0.69614 0.0
C695 C 0.37692 0.0817 0.72245 0.0
C696 C 0.41718 0.08962 0.68195 0.0
C697 C 0.36531 0.03879 0.73409 0.0
C698 C 0.37948 0.02136 0.72005 0.0
C699 C 0.42056 0.02945 0.68038 0.0
C700 C 0.44715 0.05493 0.65473 0.0
C701 C 0.40558 0.04653 0.6941 0.0
C702 C 0.45814 0.09767 0.64261 0.0
C703 C 0.44327 0.11482 0.65603 0.0
H704 H 0.11681 0.84282 0.67103 0.0
H705 H 0.17624 0.88502 0.78786 0.0
H706 H 0.21051 0.84109 0.81407 0.0
H707 H 0.23372 0.80282 0.79904 0.0
H708 H 0.18315 0.77077 0.67822 0.0
H709 H 0.13421 0.79822 0.6582 0.0
C710 C 0.13548 0.84074 0.70293 0.0
C711 C 0.14421 0.86704 0.7276 0.0
C712 C 0.15725 0.81801 0.71658 0.0
C713 C 0.16904 0.86475 0.76858 0.0
C714 C 0.18889 0.84004 0.78332 0.0
C715 C 0.21155 0.80121 0.76848 0.0
C716 C 0.21249 0.78568 0.73973 0.0
C717 C 0.18504 0.81857 0.7568 0.0
C718 C 0.18349 0.78348 0.70046 0.0
C719 C 0.15542 0.79889 0.68916 0.0
H720 H 0.39224 0.81735 0.87098 0.0
H721 H 0.37229 0.91087 0.76994 0.0
H722 H 0.41397 0.96281 0.8161 0.0
H723 H 0.45726 0.98202 0.88564 0.0
H724 H 0.47435 0.88706 0.98661 0.0
H725 H 0.43266 0.83554 0.94034 0.0
C726 C 0.39667 0.84898 0.85908 0.0
C727 C 0.37903 0.86007 0.81697 0.0
C728 C 0.42042 0.8786 0.88593 0.0
C729 C 0.38543 0.90138 0.80215 0.0
C730 C 0.40935 0.93116 0.82859 0.0
C731 C 0.45181 0.95004 0.89748 0.0
C732 C 0.46932 0.93861 0.93962 0.0
C733 C 0.42721 0.92022 0.87058 0.0
C734 C 0.46165 0.89691 0.95439 0.0
C735 C 0.43768 0.86733 0.9279 0.0
H736 H 0.41797 0.07267 0.12441 0.0
H737 H 0.37704 0.12324 0.9974 0.0
H738 H 0.3377 0.14312 1.01466 0.0
H739 H 0.31841 0.15008 0.06629 0.0
H740 H 0.35657 0.09682 0.19283 0.0
H741 H 0.3932 0.07391 0.17515 0.0
C742 C 0.39988 0.08738 0.10035 0.0
C743 C 0.40109 0.09694 0.05972 0.0
C744 C 0.37722 0.09878 0.11046 0.0
C745 C 0.37755 0.1163 0.02908 0.0
C746 C 0.35491 0.12762 0.03889 0.0
C747 C 0.33427 0.13301 0.08997 0.0
C748 C 0.3351 0.12569 0.13094 0.0
C749 C 0.35518 0.11975 0.07958 0.0
C750 C 0.35612 0.1037 0.16118 0.0
C751 C 0.37694 0.09039 0.15107 0.0
H752 H 0.18524 0.10293 0.45303 0.0
H753 H 0.06199 0.06596 0.36358 0.0
H754 H 0.09497 0.10877 0.30852 0.0
H755 H 0.1592 0.15723 0.28452 0.0
H756 H 0.28245 0.193 0.37362 0.0
H757 H 0.24947 0.15084 0.42898 0.0
C758 C 0.16553 0.10401 0.42152 0.0
C759 C 0.12087 0.08094 0.41303 0.0
C760 C 0.18489 0.12889 0.3894 0.0
C761 C 0.09628 0.08325 0.37164 0.0
C762 C 0.1152 0.10786 0.33981 0.0
C763 C 0.17886 0.15592 0.31604 0.0
C764 C 0.22349 0.17864 0.32453 0.0
C765 C 0.15952 0.13098 0.34816 0.0
C766 C 0.24815 0.17613 0.36581 0.0
C767 C 0.22923 0.15182 0.3977 0.0
H768 H 0.85756 0.18404 0.09125 0.0
H769 H 0.97738 0.28431 0.14549 0.0
H770 H 1.01519 0.25669 0.13671 0.0
H771 H 1.01465 0.20474 0.11294 0.0
H772 H 0.89523 0.10479 0.0577 0.0
H773 H 0.8571 0.13085 0.06867 0.0
C774 C 0.89194 0.19971 0.10138 0.0
C775 C 0.91447 0.23663 0.11855 0.0
C776 C 0.91367 0.18353 0.09632 0.0
C777 C 0.95909 0.25649 0.13132 0.0
C778 C 0.98081 0.24049 0.12662 0.0
C779 C 0.98026 0.18871 0.10301 0.0
C780 C 0.95801 0.15285 0.08426 0.0
C781 C 0.95848 0.20424 0.10886 0.0
C782 C 0.91337 0.13214 0.07255 0.0
C783 C 0.89147 0.14726 0.07853 0.0
H784 H 0.09188 0.55642 0.39851 0.0
H785 H 0.18195 0.62909 0.49595 0.0
H786 H 0.22666 0.68052 0.45115 0.0
H787 H 0.2412 0.70295 0.38544 0.0
H788 H 0.14947 0.63419 0.28559 0.0
H789 H 0.10339 0.58318 0.32974 0.0
C790 C 0.12135 0.5836 0.40961 0.0
C791 C 0.1344 0.58908 0.45027 0.0
C792 C 0.14607 0.61361 0.38329 0.0
C793 C 0.17189 0.62452 0.46465 0.0
C794 C 0.19726 0.65381 0.43913 0.0
C795 C 0.21085 0.67698 0.37332 0.0
C796 C 0.19856 0.67178 0.33276 0.0
C797 C 0.18479 0.64845 0.39857 0.0
C798 C 0.15917 0.6386 0.31686 0.0
C799 C 0.13315 0.60939 0.34213 0.0
H800 H 0.65395 0.93058 0.65111 0.0
H801 H 0.6352 0.91991 0.52979 0.0
H802 H 0.67218 0.87803 0.5598 0.0
H803 H 0.71287 0.84075 0.62186 0.0
H804 H 0.73641 0.85643 0.7428 0.0
H805 H 0.69759 0.89642 0.71282 0.0
C806 C 0.65729 0.91956 0.63013 0.0
C807 C 0.63854 0.93113 0.58543 0.0
C808 C 0.68118 0.89441 0.64872 0.0
C809 C 0.64676 0.91412 0.56291 0.0
C810 C 0.66892 0.88903 0.58086 0.0
C811 C 0.71009 0.85237 0.64276 0.0
C812 C 0.73021 0.84221 0.68745 0.0
C813 C 0.68685 0.8782 0.62406 0.0
C814 C 0.72354 0.86084 0.70975 0.0
C815 C 0.7003 0.88482 0.69183 0.0
H816 H 0.52201 0.43524 0.91049 0.0
H817 H 0.4721 0.36257 1.01353 0.0
H818 H 0.41622 0.30559 0.97395 0.0
H819 H 0.38009 0.27696 0.90894 0.0
H820 H 0.42577 0.35316 0.80376 0.0
H821 H 0.48415 0.40789 0.84469 0.0
C822 C 0.49916 0.40664 0.92429 0.0
C823 C 0.50163 0.40263 0.9651 0.0
C824 C 0.466 0.3747 0.9007 0.0
C825 C 0.47112 0.36603 0.98233 0.0
C826 C 0.43907 0.33354 0.95964 0.0
C827 C 0.40292 0.30553 0.89509 0.0
C828 C 0.39867 0.31075 0.85338 0.0
C829 C 0.43594 0.33757 0.91865 0.0
C830 C 0.42821 0.34825 0.83575 0.0
C831 C 0.46175 0.37959 0.85921 0.0
H832 H 0.87295 0.78228 0.40472 0.0
H833 H 0.93079 0.84906 0.30638 0.0
H834 H 0.98867 0.90404 0.34734 0.0
H835 H 1.02273 0.93401 0.4112 0.0
H836 H 0.96013 0.87183 0.50581 0.0
H837 H 0.90466 0.8144 0.4668 0.0
C838 C 0.89834 0.80886 0.39243 0.0
C839 C 0.89784 0.81141 0.35278 0.0
C840 C 0.93082 0.8412 0.41566 0.0
C841 C 0.93049 0.84637 0.33686 0.0
C842 C 0.96368 0.87779 0.36031 0.0
C843 C 0.99711 0.9076 0.4233 0.0
C844 C 0.99585 0.90662 0.46161 0.0
C845 C 0.96424 0.87561 0.39979 0.0
C846 C 0.96191 0.87295 0.47655 0.0
C847 C 0.93015 0.84018 0.45421 0.0
H848 H 0.48981 0.64335 0.6483 0.0
H849 H 0.40977 0.63261 0.52341 0.0
H850 H 0.37506 0.66414 0.53145 0.0
H851 H 0.36849 0.69665 0.57351 0.0
H852 H 0.44637 0.70404 0.69903 0.0
H853 H 0.48047 0.67185 0.69129 0.0
C854 C 0.46429 0.64716 0.62298 0.0
C855 C 0.45276 0.63565 0.58523 0.0
C856 C 0.44418 0.66514 0.62783 0.0
C857 C 0.41998 0.6417 0.55267 0.0
C858 C 0.39988 0.6596 0.55727 0.0
C859 C 0.3927 0.69094 0.59924 0.0
C860 C 0.40544 0.70366 0.63669 0.0
C861 C 0.41194 0.67181 0.59462 0.0
C862 C 0.43691 0.69592 0.66959 0.0
C863 C 0.45615 0.67706 0.66527 0.0
H864 H 0.60171 0.03928 0.90899 0.0
H865 H 0.67441 0.13079 0.99 0.0
H866 H 0.72226 0.17728 0.94711 0.0
H867 H 0.74394 0.19116 0.88717 0.0
H868 H 0.66745 0.10327 0.80229 0.0
H869 H 0.62022 0.05567 0.846 0.0
C870 C 0.62802 0.06948 0.91705 0.0
C871 C 0.63497 0.0817 0.95255 0.0
C872 C 0.65455 0.09639 0.89168 0.0
C873 C 0.66859 0.121 0.96263 0.0
C874 C 0.69596 0.14742 0.93827 0.0
C875 C 0.71685 0.16151 0.87846 0.0
C876 C 0.70904 0.15006 0.84223 0.0
C877 C 0.68936 0.13531 0.9029 0.0
C878 C 0.67375 0.11222 0.83036 0.0
C879 C 0.64694 0.08518 0.85528 0.0
H880 H 0.15294 0.42882 0.15239 0.0
H881 H 0.13337 0.41873 0.03054 0.0
H882 H 0.16985 0.37649 0.05979 0.0
H883 H 0.21028 0.33881 0.12111 0.0
H884 H 0.23489 0.35368 0.2427 0.0
H885 H 0.19646 0.39405 0.2136 0.0
C886 C 0.15597 0.41783 0.13116 0.0
C887 C 0.13717 0.42967 0.08656 0.0
C888 C 0.17959 0.39245 0.14928 0.0
C889 C 0.14501 0.41272 0.06364 0.0
C890 C 0.16686 0.38743 0.08112 0.0
C891 C 0.20782 0.35034 0.14233 0.0
C892 C 0.22804 0.33985 0.18683 0.0
C893 C 0.18487 0.37634 0.1242 0.0
C894 C 0.22185 0.35835 0.20969 0.0
C895 C 0.19885 0.38255 0.19229 0.0
H896 H 0.59485 0.58081 0.87728 0.0
H897 H 0.70362 0.59584 0.98345 0.0
H898 H 0.75099 0.64461 0.94049 0.0
H899 H 0.76215 0.68204 0.87145 0.0
H900 H 0.6526 0.66284 0.76562 0.0
H901 H 0.60569 0.61796 0.80932 0.0
C902 C 0.62891 0.5946 0.89117 0.0
C903 C 0.64526 0.58404 0.93387 0.0
C904 C 0.65623 0.62261 0.86608 0.0
C905 C 0.68972 0.60276 0.95083 0.0
C906 C 0.71703 0.63098 0.92617 0.0
C907 C 0.72805 0.66863 0.85813 0.0
C908 C 0.71107 0.67649 0.81512 0.0
C909 C 0.70078 0.64119 0.88362 0.0
C910 C 0.66667 0.65779 0.79848 0.0
C911 C 0.63969 0.63179 0.82352 0.0
H912 H 0.7333 0.30529 0.29634 0.0
H913 H 0.68425 0.28464 0.1711 0.0
H914 H 0.62885 0.3013 0.15837 0.0
H915 H 0.60475 0.33471 0.17863 0.0
H916 H 0.66184 0.36737 0.29977 0.0
H917 H 0.7019 0.33004 0.31953 0.0
C918 C 0.71017 0.30392 0.26638 0.0
C919 C 0.7134 0.29491 0.23428 0.0
C920 C 0.67945 0.31485 0.259 0.0
C921 C 0.68301 0.2927 0.19585 0.0
C922 C 0.65114 0.30176 0.18874 0.0
C923 C 0.62438 0.33205 0.21002 0.0
C924 C 0.63117 0.35454 0.23749 0.0
C925 C 0.65028 0.31456 0.21958 0.0
C926 C 0.65648 0.35054 0.27807 0.0
C927 C 0.67999 0.32998 0.28902 0.0
H928 H 0.96314 0.48489 0.38759 0.0
H929 H 0.98395 0.38822 0.48299 0.0
H930 H 0.94219 0.3394 0.43348 0.0
H931 H 0.89987 0.32438 0.36237 0.0
H932 H 0.87786 0.4213 0.2683 0.0
H933 H 0.91987 0.46963 0.31775 0.0
C934 C 0.95857 0.45312 0.39765 0.0
C935 C 0.97685 0.44035 0.43906 0.0
C936 C 0.93419 0.42517 0.36909 0.0
C937 C 0.97038 0.39897 0.4514 0.0
C938 C 0.94644 0.37102 0.42304 0.0
C939 C 0.9041 0.35599 0.3528 0.0
C940 C 0.8856 0.36908 0.31152 0.0
C941 C 0.92817 0.38375 0.38172 0.0
C942 C 0.89159 0.41027 0.29972 0.0
C943 C 0.9157 0.43802 0.32805 0.0
H944 H 0.63387 0.65146 0.43039 0.0
H945 H 0.614 0.52969 0.43378 0.0
H946 H 0.65976 0.56153 0.38908 0.0
H947 H 0.70677 0.62482 0.34962 0.0
H948 H 0.72538 0.74608 0.34697 0.0
H949 H 0.67915 0.71371 0.39057 0.0
C950 C 0.63926 0.63171 0.42118 0.0
C951 C 0.62015 0.58803 0.43543 0.0
C952 C 0.66577 0.65035 0.3956 0.0
C953 C 0.62783 0.56321 0.42314 0.0
C954 C 0.65425 0.58155 0.39767 0.0
C955 C 0.7008 0.64426 0.35856 0.0
C956 C 0.72006 0.68823 0.34476 0.0
C957 C 0.67364 0.62521 0.3838 0.0
C958 C 0.71141 0.71245 0.35681 0.0
C959 C 0.6848 0.69386 0.38187 0.0
H960 H 0.88683 0.36622 0.82812 0.0
H961 H 0.83445 0.25616 0.9142 0.0
H962 H 0.88233 0.29639 0.97112 0.0
H963 H 0.93815 0.3639 0.99571 0.0
H964 H 0.98302 0.4752 0.90726 0.0
H965 H 0.93928 0.43378 0.85196 0.0
C966 C 0.88638 0.35118 0.85947 0.0
C967 C 0.85811 0.30852 0.86753 0.0
C968 C 0.91253 0.37481 0.89146 0.0
C969 C 0.85656 0.28911 0.9078 0.0
C970 C 0.88375 0.31207 0.94016 0.0
C971 C 0.93832 0.37891 0.96432 0.0
C972 C 0.9644 0.42233 0.95564 0.0
C973 C 0.91172 0.35508 0.93231 0.0
C974 C 0.96382 0.44165 0.91481 0.0
C975 C 0.9387 0.41806 0.8831 0.0
H976 H 0.89846 0.8803 0.17758 0.0
H977 H 0.88747 0.76132 0.18478 0.0
H978 H 0.93604 0.79548 0.14327 0.0
H979 H 0.98123 0.85869 0.10402 0.0
H980 H 0.99356 0.97819 0.09645 0.0
H981 H 0.94539 0.94451 0.13896 0.0
C982 C 0.90658 0.86173 0.17007 0.0
C983 C 0.8888 0.8179 0.1845 0.0
C984 C 0.9351 0.88183 0.14615 0.0
C985 C 0.90026 0.79483 0.17438 0.0
C986 C 0.92821 0.81444 0.15054 0.0
C987 C 0.97369 0.87755 0.11189 0.0
C988 C 0.99137 0.92113 0.0971 0.0
C989 C 0.94582 0.85785 0.13622 0.0
C990 C 0.9809 0.9448 0.10759 0.0
C991 C 0.9531 0.9254 0.13179 0.0
H992 H 0.80782 0.98424 0.93766 0.0
H993 H 0.82083 0.01564 0.81702 0.0
H994 H 0.8612 0.97856 0.84017 0.0
H995 H 0.91668 0.96709 0.89937 0.0
H996 H 0.91278 0.94805 0.02156 0.0
H997 H 0.84591 0.94989 0.99409 0.0
C998 C 0.81783 0.9811 0.9161 0.0
C999 C 0.81433 0.0051 0.87676 0.0
C1000 C 0.84486 0.96367 0.93075 0.0
C1001 C 0.82477 0.99887 0.84815 0.0
C1002 C 0.84874 0.97834 0.86161 0.0
C1003 C 0.89999 0.96136 0.91977 0.0
C1004 C 0.91993 0.95922 0.96207 0.0
C1005 C 0.86304 0.96525 0.9037 0.0
C1006 C 0.8982 0.95111 0.98867 0.0
C1007 C 0.86012 0.95232 0.973 0.0
H1008 H 0.76605 0.2194 0.64217 0.0
H1009 H 0.71353 0.11676 0.73381 0.0
H1010 H 0.66608 0.07025 0.68219 0.0
H1011 H 0.64103 0.05882 0.61148 0.0
H1012 H 0.68665 0.16323 0.51777 0.0
H1013 H 0.7361 0.2092 0.5697 0.0
C1014 C 0.7439 0.18689 0.65049 0.0
C1015 C 0.74293 0.17113 0.69129 0.0
C1016 C 0.71597 0.16084 0.62046 0.0
C1017 C 0.71429 0.12925 0.70227 0.0
C1018 C 0.68744 0.10274 0.67291 0.0
C1019 C 0.66133 0.09175 0.60235 0.0
C1020 C 0.66012 0.10774 0.56097 0.0
C1021 C 0.68816 0.11819 0.63198 0.0
C1022 C 0.68705 0.15031 0.54954 0.0
C1023 C 0.71523 0.17656 0.57916 0.0
H1024 H 0.70678 0.96548 0.4016 0.0
H1025 H 0.62235 0.98542 0.28352 0.0
H1026 H 0.64494 0.95848 0.25242 0.0
H1027 H 0.6882 0.92878 0.25867 0.0
H1028 H 0.77107 0.9067 0.37695 0.0
H1029 H 0.74973 0.93517 0.40796 0.0
C1030 C 0.69324 0.9638 0.36909 0.0
C1031 C 0.663 0.97754 0.34497 0.0
C1032 C 0.70617 0.94802 0.35138 0.0
C1033 C 0.64616 0.97566 0.30274 0.0
C1034 C 0.65885 0.95999 0.28494 0.0
C1035 C 0.70128 0.92981 0.29131 0.0
C1036 C 0.73106 0.91551 0.31548 0.0
C1037 C 0.68872 0.94599 0.30896 0.0
C1038 C 0.74836 0.91786 0.35759 0.0
C1039 C 0.73604 0.93395 0.37538 0.0
H1040 H 0.88918 0.22521 0.23049 0.0
H1041 H 0.94074 0.24491 0.35631 0.0
H1042 H 0.99233 0.22329 0.36835 0.0
H1043 H 1.01012 0.18436 0.34768 0.0
H1044 H 0.94844 0.1517 0.22623 0.0
H1045 H 0.9156 0.19591 0.20661 0.0
C1046 C 0.91212 0.22542 0.2604 0.0
C1047 C 0.91047 0.23532 0.29293 0.0
C1048 C 0.94027 0.21136 0.26743 0.0
C1049 C 0.9407 0.23612 0.33127 0.0
C1050 C 0.97037 0.22419 0.33798 0.0
C1051 C 0.99111 0.18839 0.31626 0.0
C1052 C 0.98054 0.16385 0.28872 0.0
C1053 C 0.96886 0.20974 0.30687 0.0
C1054 C 0.95642 0.16989 0.24804 0.0
C1055 C 0.93701 0.19444 0.23717 0.0
H1056 H 0.73977 0.10946 0.25408 0.0
H1057 H 0.72552 0.21321 0.16658 0.0
H1058 H 0.68008 0.16923 0.11302 0.0
H1059 H 0.64281 0.10034 0.09082 0.0
H1060 H 0.65486 0.99601 0.1794 0.0
H1061 H 0.70217 0.04073 0.23219 0.0
C1062 C 0.72685 0.12247 0.22326 0.0
C1063 C 0.73649 0.16479 0.2144 0.0
C1064 C 0.69992 0.09664 0.19259 0.0
C1065 C 0.71909 0.18093 0.17428 0.0
C1066 C 0.69287 0.15569 0.14356 0.0
C1067 C 0.65582 0.08746 0.12168 0.0
C1068 C 0.64522 0.0448 0.13098 0.0
C1069 C 0.68284 0.11338 0.15231 0.0
C1070 C 0.66229 0.02864 0.17126 0.0
C1071 C 0.68944 0.05423 0.20159 0.0
H1072 H 0.74786 0.88597 0.87793 0.0
H1073 H 0.7986 0.82835 0.99723 0.0
H1074 H 0.76502 0.84353 0.02771 0.0
H1075 H 0.7192 0.8708 0.02016 0.0
H1076 H 0.66918 0.92939 0.90114 0.0
H1077 H 0.70392 0.91546 0.87078 0.0
C1078 C 0.75112 0.87624 0.91052 0.0
C1079 C 0.7755 0.85579 0.93519 0.0
C1080 C 0.7317 0.88505 0.92787 0.0
C1081 C 0.78032 0.84443 0.97756 0.0
C1082 C 0.76097 0.85294 0.995 0.0
C1083 C 0.71633 0.88107 0.98767 0.0
C1084 C 0.69141 0.90095 0.96298 0.0
C1085 C 0.73648 0.87309 0.97043 0.0
C1086 C 0.68759 0.91344 0.92078 0.0
C1087 C 0.70755 0.9056 0.9034 0.0
H1088 H 1.0226 0.94308 0.64692 0.0
H1089 H 0.91039 0.90792 0.54341 0.0
H1090 H 0.86623 0.86194 0.58946 0.0
H1091 H 0.85824 0.83304 0.65989 0.0
H1092 H 0.96992 0.87217 0.76306 0.0
H1093 H 1.01469 0.91412 0.71711 0.0
C1094 C 0.98852 0.92533 0.63438 0.0
C1095 C 0.97022 0.92951 0.59139 0.0
C1096 C 0.96278 0.89914 0.6613 0.0
C1097 C 0.92575 0.90598 0.57614 0.0
C1098 C 0.90024 0.87937 0.60259 0.0
C1099 C 0.8924 0.85024 0.67228 0.0
C1100 C 0.91054 0.84891 0.71513 0.0
C1101 C 0.91821 0.87579 0.64533 0.0
C1102 C 0.95494 0.8723 0.73037 0.0
C1103 C 0.9807 0.89655 0.704 0.0
H1104 H 0.17552 0.80378 0.8657 0.0
H1105 H 0.25584 0.80322 0.99063 0.0
H1106 H 0.22879 0.83895 1.00453 0.0
H1107 H 0.18085 0.86862 0.98187 0.0
H1108 H 0.10267 0.87158 0.85605 0.0
H1109 H 0.13022 0.83647 0.84209 0.0
C1110 C 0.18732 0.81157 0.89593 0.0
C1111 C 0.21809 0.80103 0.92686 0.0
C1112 C 0.17188 0.83249 0.90367 0.0
C1113 C 0.23272 0.81142 0.96594 0.0
C1114 C 0.2171 0.83174 0.97401 0.0
C1115 C 0.17033 0.86234 0.95116 0.0
C1116 C 0.13939 0.87267 0.92019 0.0
C1117 C 0.18667 0.84244 0.94312 0.0
C1118 C 0.12583 0.86347 0.88078 0.0
C1119 C 0.14174 0.84351 0.87265 0.0
H1120 H 0.95825 0.44509 0.60825 0.0
H1121 H 1.01973 0.36988 0.64514 0.0
H1122 H 0.9813 0.32433 0.69633 0.0
H1123 H 0.92827 0.30463 0.72901 0.0
H1124 H 0.86399 0.37774 0.68825 0.0
H1125 H 0.90604 0.42587 0.64056 0.0
C1126 C 0.96344 0.41884 0.62755 0.0
C1127 C 0.9918 0.41088 0.62285 0.0
C1128 C 0.94091 0.39259 0.6564 0.0
C1129 C 0.99785 0.37652 0.64794 0.0
C1130 C 0.97603 0.35059 0.67734 0.0
C1131 C 0.92406 0.33151 0.71009 0.0
C1132 C 0.89346 0.33799 0.71224 0.0
C1133 C 0.94733 0.35822 0.68172 0.0
C1134 C 0.88751 0.37231 0.68707 0.0
C1135 C 0.9114 0.39971 0.65976 0.0
H1136 H 0.46788 0.09649 0.37136 0.0
H1137 H 0.48951 0.10788 0.4934 0.0
H1138 H 0.45257 0.14969 0.4645 0.0
H1139 H 0.41119 0.18657 0.40342 0.0
H1140 H 0.38478 0.17043 0.28178 0.0
H1141 H 0.42355 0.13045 0.31054 0.0
C1142 C 0.46519 0.10769 0.39269 0.0
C1143 C 0.48467 0.09641 0.43717 0.0
C1144 C 0.44136 0.13277 0.37483 0.0
C1145 C 0.4773 0.11353 0.46033 0.0
C1146 C 0.4552 0.13854 0.44307 0.0
C1147 C 0.41334 0.17482 0.38214 0.0
C1148 C 0.39249 0.18477 0.33775 0.0
C1149 C 0.43652 0.14911 0.40007 0.0
C1150 C 0.39829 0.1661 0.31473 0.0
C1151 C 0.42149 0.14216 0.33192 0.0
H1152 H 0.58981 0.57063 0.1114 0.0
H1153 H 0.63994 0.64957 1.00944 0.0
H1154 H 0.69459 0.70494 0.0513 0.0
H1155 H 0.72889 0.7305 0.11761 0.0
H1156 H 0.68303 0.64863 0.22149 0.0
H1157 H 0.62642 0.59486 0.17871 0.0
C1158 C 0.61252 0.60019 0.09843 0.0
C1159 C 0.61054 0.60658 0.0573 0.0
C1160 C 0.64486 0.63119 0.12322 0.0
C1161 C 0.64071 0.64437 0.04094 0.0
C1162 C 0.67199 0.6759 0.06491 0.0
C1163 C 0.70646 0.70087 0.1308 0.0
C1164 C 0.70997 0.69371 0.17259 0.0
C1165 C 0.67452 0.66963 0.10617 0.0
C1166 C 0.68103 0.65495 0.18941 0.0
C1167 C 0.64854 0.62421 0.16492 0.0
H1168 H 0.2319 0.22799 0.61855 0.0
H1169 H 0.17517 0.1535 0.71719 0.0
H1170 H 0.11621 0.10201 0.67278 0.0
H1171 H 0.08043 0.07767 0.60535 0.0
H1172 H 0.14173 0.14802 0.50967 0.0
H1173 H 0.19873 0.20141 0.55288 0.0
C1174 C 0.20661 0.20045 0.63026 0.0
C1175 C 0.20778 0.19481 0.67104 0.0
C1176 C 0.17335 0.17024 0.60483 0.0
C1177 C 0.17508 0.15863 0.68596 0.0
C1178 C 0.14123 0.1292 0.66048 0.0
C1179 C 0.10611 0.10495 0.59396 0.0
C1180 C 0.10645 0.10941 0.55405 0.0
C1181 C 0.13987 0.13468 0.61977 0.0
C1182 C 0.14055 0.1442 0.54008 0.0
C1183 C 0.17321 0.17467 0.56485 0.0
H1184 H 0.75939 0.33693 0.44081 0.0
H1185 H 0.64278 0.24276 0.37479 0.0
H1186 H 0.6025 0.26839 0.38235 0.0
H1187 H 0.60007 0.31675 0.40848 0.0
H1188 H 0.71624 0.40979 0.47637 0.0
H1189 H 0.75694 0.38622 0.46626 0.0
C1190 C 0.72519 0.32217 0.4279 0.0
C1191 C 0.70416 0.28763 0.40764 0.0
C1192 C 0.7021 0.33706 0.43245 0.0
C1193 C 0.65975 0.2688 0.39126 0.0
C1194 C 0.63669 0.28365 0.39531 0.0
C1195 C 0.63428 0.33177 0.42137 0.0
C1196 C 0.65488 0.36496 0.44338 0.0
C1197 C 0.65747 0.31753 0.41613 0.0
C1198 C 0.6994 0.38453 0.45894 0.0
C1199 C 0.72274 0.37081 0.45346 0.0
H1200 H 0.50614 0.94885 0.15408 0.0
H1201 H 0.44416 0.85508 0.07769 0.0
H1202 H 0.39493 0.80687 0.1189 0.0
H1203 H 0.36779 0.79276 0.17487 0.0
H1204 H 0.43293 0.88362 0.25501 0.0
H1205 H 0.48323 0.93189 0.21445 0.0
C1206 C 0.4819 0.91776 0.14674 0.0
C1207 C 0.4782 0.90539 0.11291 0.0
C1208 C 0.45457 0.88993 0.1712 0.0
C1209 C 0.44735 0.86499 0.10375 0.0
C1210 C 0.41923 0.83756 0.12717 0.0
C1211 C 0.39338 0.82301 0.18351 0.0
C1212 C 0.39705 0.83515 0.21737 0.0
C1213 C 0.42233 0.84986 0.16067 0.0
C1214 C 0.43007 0.874 0.22894 0.0
C1215 C 0.45852 0.9015 0.20571 0.0
H1216 H 0.97633 0.6161 0.97255 0.0
H1217 H 0.97396 0.58018 0.87247 0.0
H1218 H 0.93246 0.61528 0.82427 0.0
H1219 H 0.89338 0.65904 0.80511 0.0
H1220 H 0.90064 0.69987 0.90459 0.0
H1221 H 0.94013 0.66279 0.95306 0.0
C1222 C 0.9672 0.61517 0.94032 0.0
C1223 C 0.98101 0.59225 0.9294 0.0
C1224 C 0.94227 0.63796 0.91011 0.0
C1225 C 0.96636 0.59522 0.88544 0.0
C1226 C 0.94149 0.61625 0.85649 0.0
C1227 C 0.90299 0.66048 0.83729 0.0
C1228 C 0.89064 0.68485 0.848 0.0
C1229 C 0.92852 0.63831 0.86744 0.0
C1230 C 0.90684 0.68344 0.8918 0.0
C1231 C 0.93052 0.66124 0.92091 0.0
H1232 H 0.51881 0.42868 0.1433 0.0
H1233 H 0.41044 0.42467 0.04025 0.0
H1234 H 0.36423 0.3813 0.08496 0.0
H1235 H 0.35411 0.34407 0.15418 0.0
H1236 H 0.46314 0.34813 0.25635 0.0
H1237 H 0.50882 0.391 0.21142 0.0
C1238 C 0.48509 0.41833 0.13041 0.0
C1239 C 0.46851 0.4303 0.08806 0.0
C1240 C 0.45844 0.393 0.1564 0.0
C1241 C 0.4245 0.41631 0.07249 0.0
C1242 C 0.39787 0.39131 0.09817 0.0
C1243 C 0.38784 0.35428 0.16659 0.0
C1244 C 0.40493 0.34275 0.20896 0.0
C1245 C 0.41439 0.37937 0.14029 0.0
C1246 C 0.44885 0.3564 0.22415 0.0
C1247 C 0.47517 0.38109 0.19837 0.0
H1248 H 0.51928 0.68197 0.88891 0.0
H1249 H 0.51009 0.707 0.76099 0.0
H1250 H 0.47441 0.74782 0.74594 0.0
H1251 H 0.42676 0.75436 0.76547 0.0
H1252 H 0.42592 0.7175 0.89183 0.0
H1253 H 0.4834 0.70167 0.91104 0.0
C1254 C 0.51106 0.69786 0.85791 0.0
C1255 C 0.5163 0.69099 0.82583 0.0
C1256 C 0.48632 0.71651 0.8489 0.0
C1257 C 0.50579 0.71167 0.78592 0.0
C1258 C 0.48454 0.73394 0.77725 0.0
C1259 C 0.43945 0.74334 0.79733 0.0
C1260 C 0.42099 0.73532 0.82698 0.0
C1261 C 0.47126 0.73294 0.80783 0.0
C1262 C 0.43881 0.72266 0.8683 0.0
C1263 C 0.47176 0.7138 0.8793 0.0
H1264 H 0.16784 0.52117 0.67761 0.0
H1265 H 0.13422 0.60856 0.57824 0.0
H1266 H 0.17554 0.66146 0.62319 0.0
H1267 H 0.2206 0.68278 0.69126 0.0
H1268 H 0.25667 0.59643 0.78983 0.0
H1269 H 0.21609 0.54395 0.7446 0.0
C1270 C 0.16954 0.5518 0.66578 0.0
C1271 C 0.14754 0.56068 0.62459 0.0
C1272 C 0.19399 0.58241 0.69174 0.0
C1273 C 0.1505 0.6007 0.60979 0.0
C1274 C 0.17422 0.63104 0.63552 0.0
C1275 C 0.21971 0.65252 0.70283 0.0
C1276 C 0.24178 0.64367 0.74401 0.0
C1277 C 0.19602 0.62225 0.67661 0.0
C1278 C 0.23998 0.60414 0.75842 0.0
C1279 C 0.2165 0.57394 0.73259 0.0
H1280 H 0.41649 0.37878 0.69504 0.0
H1281 H 0.35967 0.25921 0.65908 0.0
H1282 H 0.40153 0.29237 0.61096 0.0
H1283 H 0.45295 0.35521 0.5776 0.0
H1284 H 0.51464 0.47435 0.61609 0.0
H1285 H 0.4727 0.44175 0.66455 0.0
C1286 C 0.41331 0.35996 0.6767 0.0
C1287 C 0.38439 0.31631 0.68068 0.0
C1288 C 0.43851 0.37927 0.64947 0.0
C1289 C 0.3814 0.2926 0.65694 0.0
C1290 C 0.40537 0.31165 0.62924 0.0
C1291 C 0.45756 0.37422 0.59671 0.0
C1292 C 0.48702 0.41758 0.59272 0.0
C1293 C 0.43386 0.35494 0.62507 0.0
C1294 C 0.49247 0.44119 0.61823 0.0
C1295 C 0.46825 0.4224 0.64595 0.0
H1296 H 0.27877 0.66303 0.18349 0.0
H1297 H 0.19106 0.6976 0.17989 0.0
H1298 H 0.14181 0.66623 0.11794 0.0
H1299 H 0.12216 0.6257 0.06663 0.0
H1300 H 0.2076 0.58675 0.07353 0.0
H1301 H 0.25959 0.62336 0.13203 0.0
C1302 C 0.24896 0.66385 0.16896 0.0
C1303 C 0.23839 0.68239 0.18614 0.0
C1304 C 0.22055 0.6451 0.13387 0.0
C1305 C 0.19967 0.68319 0.16724 0.0
C1306 C 0.17158 0.66538 0.13181 0.0
C1307 C 0.15255 0.62603 0.08067 0.0
C1308 C 0.16177 0.60448 0.0658 0.0
C1309 C 0.1815 0.6459 0.11506 0.0
C1310 C 0.20048 0.60385 0.08447 0.0
C1311 C 0.22997 0.6245 0.11794 0.0
H1312 H 0.79033 0.49519 0.61312 0.0
H1313 H 0.76909 0.46848 0.7289 0.0
H1314 H 0.73469 0.512 0.70098 0.0
H1315 H 0.68764 0.53221 0.63834 0.0
H1316 H 0.69956 0.54783 0.52069 0.0
H1317 H 0.75982 0.53437 0.55382 0.0
C1318 C 0.77978 0.50054 0.63262 0.0
C1319 C 0.77994 0.47698 0.67207 0.0
C1320 C 0.75652 0.52228 0.61525 0.0
C1321 C 0.76819 0.4854 0.69791 0.0
C1322 C 0.7477 0.50969 0.68169 0.0
C1323 C 0.70493 0.53478 0.62023 0.0
C1324 C 0.68865 0.53936 0.57742 0.0
C1325 C 0.73797 0.52452 0.63947 0.0
C1326 C 0.71121 0.54315 0.55389 0.0
C1327 C 0.74546 0.5352 0.57278 0.0
H1328 H 0.854 0.58868 0.17312 0.0
H1329 H 0.94246 0.58973 0.29403 0.0
H1330 H 0.97404 0.56385 0.27268 0.0
H1331 H 0.97766 0.54271 0.21918 0.0
H1332 H 0.88888 0.54119 0.09835 0.0
H1333 H 0.85626 0.56552 0.12016 0.0
C1334 C 0.87996 0.58291 0.19487 0.0
C1335 C 0.89595 0.59124 0.23505 0.0
C1336 C 0.89799 0.56812 0.18237 0.0
C1337 C 0.92996 0.58411 0.26277 0.0
C1338 C 0.94788 0.56911 0.25065 0.0
C1339 C 0.95079 0.54713 0.19776 0.0
C1340 C 0.93574 0.54013 0.15718 0.0
C1341 C 0.93229 0.56122 0.21047 0.0
C1342 C 0.90138 0.54678 0.12962 0.0
C1343 C 0.88262 0.56054 0.14211 0.0
H1344 H 0.91783 0.57115 0.62984 0.0
H1345 H 0.86652 0.60473 0.50012 0.0
H1346 H 0.82622 0.62592 0.51423 0.0
H1347 H 0.80977 0.63984 0.56346 0.0
H1348 H 0.86394 0.6092 0.69327 0.0
H1349 H 0.89858 0.58178 0.67898 0.0
C1350 C 0.89778 0.58307 0.60466 0.0
C1351 C 0.89557 0.58674 0.56403 0.0
C1352 C 0.87543 0.59605 0.61298 0.0
C1353 C 0.86866 0.60132 0.53169 0.0
C1354 C 0.84592 0.61387 0.53973 0.0
C1355 C 0.82949 0.62756 0.58865 0.0
C1356 C 0.83446 0.62703 0.62936 0.0
C1357 C 0.84989 0.61232 0.58027 0.0
C1358 C 0.85911 0.60974 0.6616 0.0
C1359 C 0.87924 0.59427 0.65349 0.0
H1360 H 0.43127 0.48888 0.38601 0.0
H1361 H 0.4139 0.44583 0.50628 0.0
H1362 H 0.34929 0.45161 0.47901 0.0
H1363 H 0.31376 0.49033 0.42698 0.0
H1364 H 0.3387 0.54383 0.30973 0.0
H1365 H 0.38091 0.50954 0.32806 0.0
C1366 C 0.412 0.4788 0.40559 0.0
C1367 C 0.42745 0.46822 0.44797 0.0
C1368 C 0.37603 0.48435 0.39003 0.0
C1369 C 0.40267 0.45507 0.47352 0.0
C1370 C 0.36587 0.45851 0.45801 0.0
C1371 C 0.32706 0.49296 0.40491 0.0
C1372 C 0.32521 0.52121 0.36817 0.0
C1373 C 0.35445 0.47644 0.41711 0.0
C1374 C 0.34064 0.52303 0.33882 0.0
C1375 C 0.36553 0.50402 0.34959 0.0
H1376 H 0.1961 0.43486 0.76273 0.0
H1377 H 0.27059 0.40125 0.88166 0.0
H1378 H 0.25124 0.43072 0.91372 0.0
H1379 H 0.21212 0.46499 0.90808 0.0
H1380 H 0.13546 0.4958 0.78922 0.0
H1381 H 0.15632 0.46799 0.7572 0.0
C1382 C 0.20775 0.43352 0.79573 0.0
C1383 C 0.23467 0.41574 0.81972 0.0
C1384 C 0.19616 0.4501 0.81401 0.0
C1385 C 0.25018 0.41514 0.86237 0.0
C1386 C 0.23896 0.43179 0.88077 0.0
C1387 C 0.19996 0.46558 0.87518 0.0
C1388 C 0.17241 0.48264 0.85114 0.0
C1389 C 0.21188 0.44927 0.8569 0.0
C1390 C 0.15726 0.48351 0.80845 0.0
C1391 C 0.16891 0.4673 0.79011 0.0
H1392 H 0.2903 0.35291 0.46584 0.0
H1393 H 0.24751 0.40739 0.34114 0.0
H1394 H 0.21045 0.42669 0.36265 0.0
H1395 H 0.19051 0.42861 0.41717 0.0
H1396 H 0.23498 0.37526 0.54188 0.0
H1397 H 0.27221 0.35649 0.5202 0.0
C1398 C 0.27329 0.3694 0.44335 0.0
C1399 C 0.27169 0.37846 0.40186 0.0
C1400 C 0.2526 0.38105 0.456 0.0
C1401 C 0.24874 0.39926 0.37316 0.0
C1402 C 0.22774 0.41062 0.38548 0.0
C1403 C 0.20818 0.4127 0.43956 0.0
C1404 C 0.20995 0.40351 0.48114 0.0
C1405 C 0.22939 0.40163 0.42684 0.0
C1406 C 0.23351 0.38334 0.50979 0.0
C1407 C 0.25459 0.37225 0.49738 0.0
loop_
_geom_bond_atom_site_label_1
_geom_bond_atom_site_label_2
_geom_bond_distance
_geom_bond_site_symmetry_2
_ccdc_geom_bond_type
Sm0 C2 2.846 . S
Sm0 O20 2.543 1_655 S
Sm0 O21 2.450 . S
Sm0 O22 2.681 1_556 S
Sm0 O23 2.464 1_556 S
Sm0 O24 2.396 1_656 S
Sm0 O28 2.386 1_665 S
Sm0 O31 2.408 . S
Sm1 C11 2.846 . S
Sm1 O22 2.386 1_445 S
Sm1 O25 2.408 . S
Sm1 O26 2.543 1_455 S
Sm1 O27 2.450 . S
Sm1 O28 2.681 1_554 S
Sm1 O29 2.464 1_554 S
Sm1 O30 2.396 1_454 S
C2 Sm0 2.846 . S
C2 C3 1.506 1_655 S
C2 O20 1.261 1_655 S
C2 O21 1.242 . S
C3 C2 1.506 1_455 S
C3 C4 1.358 . S
C3 C8 1.382 1_455 S
C4 C3 1.358 . S
C4 C5 1.385 . S
C4 H32 0.930 . S
C5 C4 1.385 . S
C5 C6 1.395 . S
C5 H33 0.929 . S
C6 C5 1.395 . S
C6 C7 1.335 1_455 S
C7 C6 1.335 1_655 S
C7 C8 1.398 . S
C7 H34 0.930 . S
C8 C3 1.382 1_655 S
C8 C7 1.398 . S
C8 H35 0.929 . S
C9 O22 1.271 . S
C9 O23 1.251 . S
C10 O24 1.252 . S
C10 O25 1.272 1_565 S
C11 Sm1 2.846 . S
C11 C12 1.519 . S
C11 O26 1.261 1_455 S
C11 O27 1.242 . S
C12 C11 1.519 . S
C12 C13 1.343 1_455 S
C12 C17 1.383 . S
C13 C12 1.343 1_655 S
C13 C14 1.385 . S
C13 H36 0.930 . S
C14 C13 1.385 . S
C14 C15 1.395 . S
C14 H37 0.929 . S
C15 C14 1.395 . S
C15 C16 1.335 1_655 S
C16 C15 1.335 1_455 S
C16 C17 1.398 . S
C16 H38 0.930 . S
C17 C12 1.383 . S
C17 C16 1.398 . S
C17 H39 0.929 . S
C18 O28 1.271 . S
C18 O29 1.251 . S
C19 O30 1.252 . S
C19 O31 1.272 1_545 S
O20 Sm0 2.543 1_455 S
O20 C2 1.261 1_455 S
O21 Sm0 2.450 . S
O21 C2 1.242 . S
O22 Sm0 2.681 1_554 S
O22 Sm1 2.386 1_665 S
O22 C9 1.271 . S
O23 Sm0 2.464 1_554 S
O23 C9 1.251 . S
O24 Sm0 2.396 1_454 S
O24 C10 1.252 . S
O25 Sm1 2.408 . S
O25 C10 1.272 1_545 S
O26 Sm1 2.543 1_655 S
O26 C11 1.261 1_655 S
O27 Sm1 2.450 . S
O27 C11 1.242 . S
O28 Sm0 2.386 1_445 S
O28 Sm1 2.681 1_556 S
O28 C18 1.271 . S
O29 Sm1 2.464 1_556 S
O29 C18 1.251 . S
O30 Sm1 2.396 1_656 S
O30 C19 1.252 . S
O31 Sm0 2.408 . S
O31 C19 1.272 1_565 S
H32 C4 0.930 . S
H33 C5 0.929 . S
H34 C7 0.930 . S
H35 C8 0.929 . S
H36 C13 0.930 . S
H37 C14 0.929 . S
H38 C16 0.930 . S
H39 C17 0.929 . S
Sm40 C42 2.846 . S
Sm40 O60 2.543 . S
Sm40 O61 2.450 . S
Sm40 O62 2.681 . S
Sm40 O63 2.464 . S
Sm40 O64 2.396 . S
Sm40 O68 2.386 . S
Sm40 O71 2.408 . S
Sm41 C51 2.846 . S
Sm41 O62 2.386 . S
Sm41 O65 2.408 . S
Sm41 O66 2.543 . S
Sm41 O67 2.450 . S
Sm41 O68 2.681 . S
Sm41 O69 2.464 . S
Sm41 O70 2.396 . S
C42 Sm40 2.846 . S
C42 C43 1.506 . S
C42 O60 1.261 . S
C42 O61 1.242 . S
C43 C42 1.506 . S
C43 C44 1.358 . S
C43 C48 1.382 . S
C44 C43 1.358 . S
C44 C45 1.385 . S
C44 H72 0.930 . S
C45 C44 1.385 . S
C45 C46 1.395 . S
C45 H73 0.929 . S
C46 C45 1.395 . S
C46 C47 1.335 . S
C47 C46 1.335 . S
C47 C48 1.398 . S
C47 H74 0.930 . S
C48 C43 1.382 . S
C48 C47 1.398 . S
C48 H75 0.929 . S
C49 O62 1.271 . S
C49 O63 1.251 . S
C50 O64 1.252 . S
C50 O65 1.272 . S
C51 Sm41 2.846 . S
C51 C52 1.506 . S
C51 O66 1.261 . S
C51 O67 1.242 . S
C52 C51 1.506 . S
C52 C53 1.358 . S
C52 C57 1.382 . S
C53 C52 1.358 . S
C53 C54 1.385 . S
C53 H76 0.930 . S
C54 C53 1.385 . S
C54 C55 1.395 . S
C54 H77 0.929 . S
C55 C54 1.395 . S
C55 C56 1.335 . S
C56 C55 1.335 . S
C56 C57 1.398 . S
C56 H78 0.930 . S
C57 C52 1.382 . S
C57 C56 1.398 . S
C57 H79 0.929 . S
C58 O68 1.271 . S
C58 O69 1.251 . S
C59 O70 1.252 . S
C59 O71 1.272 . S
O60 Sm40 2.543 . S
O60 C42 1.261 . S
O61 Sm40 2.450 . S
O61 C42 1.242 . S
O62 Sm40 2.681 . S
O62 Sm41 2.386 . S
O62 C49 1.271 . S
O63 Sm40 2.464 . S
O63 C49 1.251 . S
O64 Sm40 2.396 . S
O64 C50 1.252 . S
O65 Sm41 2.408 . S
O65 C50 1.272 . S
O66 Sm41 2.543 . S
O66 C51 1.261 . S
O67 Sm41 2.450 . S
O67 C51 1.242 . S
O68 Sm40 2.386 . S
O68 Sm41 2.681 . S
O68 C58 1.271 . S
O69 Sm41 2.464 . S
O69 C58 1.251 . S
O70 Sm41 2.396 . S
O70 C59 1.252 . S
O71 Sm40 2.408 . S
O71 C59 1.272 . S
H72 C44 0.930 . S
H73 C45 0.929 . S
H74 C47 0.930 . S
H75 C48 0.929 . S
H76 C53 0.930 . S
H77 C54 0.929 . S
H78 C56 0.930 . S
H79 C57 0.929 . S
Sm80 C82 2.846 1_565 S
Sm80 O100 2.543 1_565 S
Sm80 O101 2.450 . S
Sm80 O102 2.681 . S
Sm80 O103 2.464 . S
Sm80 O104 2.396 1_565 S
Sm80 O108 2.386 1_565 S
Sm80 O111 2.408 . S
Sm81 C91 2.868 . S
Sm81 O102 2.386 1_545 S
Sm81 O105 2.408 . S
Sm81 O106 2.543 1_545 S
Sm81 O107 2.450 . S
Sm81 O108 2.681 . S
Sm81 O109 2.464 . S
Sm81 O110 2.396 1_545 S
C82 Sm80 2.846 1_545 S
C82 C83 1.506 . S
C82 O100 1.261 . S
C82 O101 1.242 1_545 S
C83 C82 1.506 . S
C83 C84 1.358 . S
C83 C88 1.382 1_545 S
C84 C83 1.358 . S
C84 C85 1.385 . S
C84 H112 0.930 . S
C85 C84 1.385 . S
C85 C86 1.395 . S
C85 H113 0.929 . S
C86 C85 1.395 . S
C86 C87 1.335 1_545 S
C87 C86 1.335 1_565 S
C87 C88 1.398 . S
C87 H114 0.930 . S
C88 C83 1.382 1_565 S
C88 C87 1.398 . S
C88 H115 0.929 . S
C89 O102 1.271 . S
C89 O103 1.251 . S
C90 O104 1.252 . S
C90 O105 1.272 . S
C91 Sm81 2.868 . S
C91 C92 1.484 1_545 S
C91 O106 1.259 1_545 S
C91 O107 1.265 . S
C92 C91 1.484 1_565 S
C92 C93 1.358 . S
C92 C97 1.382 1_565 S
C93 C92 1.358 . S
C93 C94 1.385 . S
C93 H116 0.930 . S
C94 C93 1.385 . S
C94 C95 1.395 . S
C94 H117 0.929 . S
C95 C94 1.395 . S
C95 C96 1.335 1_565 S
C96 C95 1.335 1_545 S
C96 C97 1.398 . S
C96 H118 0.930 . S
C97 C92 1.382 1_545 S
C97 C96 1.398 . S
C97 H119 0.929 . S
C98 O108 1.271 . S
C98 O109 1.251 . S
C99 O110 1.252 . S
C99 O111 1.272 . S
O100 Sm80 2.543 1_545 S
O100 C82 1.261 . S
O101 Sm80 2.450 . S
O101 C82 1.242 1_565 S
O102 Sm80 2.681 . S
O102 Sm81 2.386 1_565 S
O102 C89 1.271 . S
O103 Sm80 2.464 . S
O103 C89 1.251 . S
O104 Sm80 2.396 1_545 S
O104 C90 1.252 . S
O105 Sm81 2.408 . S
O105 C90 1.272 . S
O106 Sm81 2.543 1_565 S
O106 C91 1.259 1_565 S
O107 Sm81 2.450 . S
O107 C91 1.265 . S
O108 Sm80 2.386 1_545 S
O108 Sm81 2.681 . S
O108 C98 1.271 . S
O109 Sm81 2.464 . S
O109 C98 1.251 . S
O110 Sm81 2.396 1_565 S
O110 C99 1.252 . S
O111 Sm80 2.408 . S
O111 C99 1.272 . S
H112 C84 0.930 . S
H113 C85 0.929 . S
H114 C87 0.930 . S
H115 C88 0.929 . S
H116 C93 0.930 . S
H117 C94 0.929 . S
H118 C96 0.930 . S
H119 C97 0.929 . S
Sm120 C122 2.846 . S
Sm120 O140 2.543 . S
Sm120 O141 2.450 . S
Sm120 O142 2.681 . S
Sm120 O143 2.464 . S
Sm120 O144 2.396 . S
Sm120 O148 2.386 . S
Sm120 O151 2.408 . S
Sm121 C131 2.846 . S
Sm121 O142 2.386 . S
Sm121 O145 2.408 . S
Sm121 O146 2.543 . S
Sm121 O147 2.450 . S
Sm121 O148 2.681 . S
Sm121 O149 2.464 . S
Sm121 O150 2.396 . S
C122 Sm120 2.846 . S
C122 C123 1.506 . S
C122 O140 1.261 . S
C122 O141 1.242 . S
C123 C122 1.506 . S
C123 C124 1.358 . S
C123 C128 1.382 . S
C124 C123 1.358 . S
C124 C125 1.385 . S
C124 H152 0.930 . S
C125 C124 1.385 . S
C125 C126 1.395 . S
C125 H153 0.929 . S
C126 C125 1.395 . S
C126 C127 1.335 . S
C127 C126 1.335 . S
C127 C128 1.398 . S
C127 H154 0.930 . S
C128 C123 1.382 . S
C128 C127 1.398 . S
C128 H155 0.929 . S
C129 O142 1.271 . S
C129 O143 1.251 . S
C130 O144 1.252 . S
C130 O145 1.272 . S
C131 Sm121 2.846 . S
C131 C132 1.506 . S
C131 O146 1.261 . S
C131 O147 1.242 . S
C132 C131 1.506 . S
C132 C133 1.358 . S
C132 C137 1.382 . S
C133 C132 1.358 . S
C133 C134 1.385 . S
C133 H156 0.930 . S
C134 C133 1.385 . S
C134 C135 1.395 . S
C134 H157 0.929 . S
C135 C134 1.395 . S
C135 C136 1.335 . S
C136 C135 1.335 . S
C136 C137 1.398 . S
C136 H158 0.930 . S
C137 C132 1.382 . S
C137 C136 1.398 . S
C137 H159 0.929 . S
C138 O148 1.271 . S
C138 O149 1.251 . S
C139 O150 1.252 . S
C139 O151 1.272 . S
O140 Sm120 2.543 . S
O140 C122 1.261 . S
O141 Sm120 2.450 . S
O141 C122 1.242 . S
O142 Sm120 2.681 . S
O142 Sm121 2.386 . S
O142 C129 1.271 . S
O143 Sm120 2.464 . S
O143 C129 1.251 . S
O144 Sm120 2.396 . S
O144 C130 1.252 . S
O145 Sm121 2.408 . S
O145 C130 1.272 . S
O146 Sm121 2.543 . S
O146 C131 1.261 . S
O147 Sm121 2.450 . S
O147 C131 1.242 . S
O148 Sm120 2.386 . S
O148 Sm121 2.681 . S
O148 C138 1.271 . S
O149 Sm121 2.464 . S
O149 C138 1.251 . S
O150 Sm121 2.396 . S
O150 C139 1.252 . S
O151 Sm120 2.408 . S
O151 C139 1.272 . S
H152 C124 0.930 . S
H153 C125 0.929 . S
H154 C127 0.930 . S
H155 C128 0.929 . S
H156 C133 0.930 . S
H157 C134 0.929 . S
H158 C136 0.930 . S
H159 C137 0.929 . S
Sm160 C162 2.846 . S
Sm160 O180 2.543 . S
Sm160 O181 2.450 . S
Sm160 O182 2.681 1_455 S
Sm160 O183 2.464 1_455 S
Sm160 O184 2.396 1_455 S
Sm160 O188 2.386 1_565 S
Sm160 O191 2.408 1_565 S
Sm161 C171 2.846 . S
Sm161 O182 2.386 1_545 S
Sm161 O185 2.408 1_545 S
Sm161 O186 2.543 . S
Sm161 O187 2.450 . S
Sm161 O188 2.681 1_655 S
Sm161 O189 2.464 1_655 S
Sm161 O190 2.396 1_655 S
C162 Sm160 2.846 . S
C162 C163 1.506 . S
C162 O180 1.261 . S
C162 O181 1.242 . S
C163 C162 1.506 . S
C163 C164 1.358 . S
C163 C168 1.382 . S
C164 C163 1.358 . S
C164 C165 1.385 . S
C164 H192 0.930 . S
C165 C164 1.385 . S
C165 C166 1.395 . S
C165 H193 0.929 . S
C166 C165 1.395 . S
C166 C167 1.335 . S
C167 C166 1.335 . S
C167 C168 1.398 . S
C167 H194 0.930 . S
C168 C163 1.382 . S
C168 C167 1.398 . S
C168 H195 0.929 . S
C169 O182 1.271 . S
C169 O183 1.251 . S
C170 O184 1.252 . S
C170 O185 1.272 . S
C171 Sm161 2.846 . S
C171 C172 1.506 . S
C171 O186 1.261 . S
C171 O187 1.242 . S
C172 C171 1.506 . S
C172 C173 1.358 . S
C172 C177 1.382 . S
C173 C172 1.358 . S
C173 C174 1.385 . S
C173 H196 0.930 . S
C174 C173 1.385 . S
C174 C175 1.395 . S
C174 H197 0.929 . S
C175 C174 1.395 . S
C175 C176 1.335 . S
C176 C175 1.335 . S
C176 C177 1.398 . S
C176 H198 0.930 . S
C177 C172 1.382 . S
C177 C176 1.398 . S
C177 H199 0.929 . S
C178 O188 1.271 . S
C178 O189 1.251 . S
C179 O190 1.252 . S
C179 O191 1.272 . S
O180 Sm160 2.543 . S
O180 C162 1.261 . S
O181 Sm160 2.450 . S
O181 C162 1.242 . S
O182 Sm160 2.681 1_655 S
O182 Sm161 2.386 1_565 S
O182 C169 1.271 . S
O183 Sm160 2.464 1_655 S
O183 C169 1.251 . S
O184 Sm160 2.396 1_655 S
O184 C170 1.252 . S
O185 Sm161 2.408 1_565 S
O185 C170 1.272 . S
O186 Sm161 2.543 . S
O186 C171 1.261 . S
O187 Sm161 2.450 . S
O187 C171 1.242 . S
O188 Sm160 2.386 1_545 S
O188 Sm161 2.681 1_455 S
O188 C178 1.271 . S
O189 Sm161 2.464 1_455 S
O189 C178 1.251 . S
O190 Sm161 2.396 1_455 S
O190 C179 1.252 . S
O191 Sm160 2.408 1_545 S
O191 C179 1.272 . S
H192 C164 0.930 . S
H193 C165 0.929 . S
H194 C167 0.930 . S
H195 C168 0.929 . S
H196 C173 0.930 . S
H197 C174 0.929 . S
H198 C176 0.930 . S
H199 C177 0.929 . S
Sm200 C202 2.846 . S
Sm200 O220 2.543 . S
Sm200 O221 2.450 . S
Sm200 O222 2.681 . S
Sm200 O223 2.464 . S
Sm200 O224 2.396 . S
Sm200 O228 2.386 . S
Sm200 O231 2.408 . S
Sm201 C211 2.846 . S
Sm201 O222 2.386 . S
Sm201 O225 2.408 . S
Sm201 O226 2.543 . S
Sm201 O227 2.450 . S
Sm201 O228 2.681 . S
Sm201 O229 2.464 . S
Sm201 O230 2.396 . S
C202 Sm200 2.846 . S
C202 C203 1.506 . S
C202 O220 1.261 . S
C202 O221 1.242 . S
C203 C202 1.506 . S
C203 C204 1.358 . S
C203 C208 1.382 . S
C204 C203 1.358 . S
C204 C205 1.385 . S
C204 H232 0.930 . S
C205 C204 1.385 . S
C205 C206 1.395 . S
C205 H233 0.929 . S
C206 C205 1.395 . S
C206 C207 1.335 . S
C207 C206 1.335 . S
C207 C208 1.398 . S
C207 H234 0.930 . S
C208 C203 1.382 . S
C208 C207 1.398 . S
C208 H235 0.929 . S
C209 O222 1.271 . S
C209 O223 1.251 . S
C210 O224 1.252 . S
C210 O225 1.272 . S
C211 Sm201 2.846 . S
C211 C212 1.506 . S
C211 O226 1.261 . S
C211 O227 1.242 . S
C212 C211 1.506 . S
C212 C213 1.358 . S
C212 C217 1.382 . S
C213 C212 1.358 . S
C213 C214 1.385 . S
C213 H236 0.930 . S
C214 C213 1.385 . S
C214 C215 1.395 . S
C214 H237 0.929 . S
C215 C214 1.395 . S
C215 C216 1.335 . S
C216 C215 1.335 . S
C216 C217 1.398 . S
C216 H238 0.930 . S
C217 C212 1.382 . S
C217 C216 1.398 . S
C217 H239 0.929 . S
C218 O228 1.271 . S
C218 O229 1.251 . S
C219 O230 1.252 . S
C219 O231 1.272 . S
O220 Sm200 2.543 . S
O220 C202 1.261 . S
O221 Sm200 2.450 . S
O221 C202 1.242 . S
O222 Sm200 2.681 . S
O222 Sm201 2.386 . S
O222 C209 1.271 . S
O223 Sm200 2.464 . S
O223 C209 1.251 . S
O224 Sm200 2.396 . S
O224 C210 1.252 . S
O225 Sm201 2.408 . S
O225 C210 1.272 . S
O226 Sm201 2.543 . S
O226 C211 1.261 . S
O227 Sm201 2.450 . S
O227 C211 1.242 . S
O228 Sm200 2.386 . S
O228 Sm201 2.681 . S
O228 C218 1.271 . S
O229 Sm201 2.464 . S
O229 C218 1.251 . S
O230 Sm201 2.396 . S
O230 C219 1.252 . S
O231 Sm200 2.408 . S
O231 C219 1.272 . S
H232 C204 0.930 . S
H233 C205 0.929 . S
H234 C207 0.930 . S
H235 C208 0.929 . S
H236 C213 0.930 . S
H237 C214 0.929 . S
H238 C216 0.930 . S
H239 C217 0.929 . S
Sm240 C242 2.846 1_554 S
Sm240 O260 2.543 1_554 S
Sm240 O261 2.450 . S
Sm240 O262 2.681 1_565 S
Sm240 O263 2.464 1_565 S
Sm240 O264 2.396 1_564 S
Sm240 O268 2.386 1_554 S
Sm240 O271 2.408 . S
Sm241 C251 2.846 1_556 S
Sm241 O262 2.386 1_556 S
Sm241 O265 2.408 . S
Sm241 O266 2.543 1_556 S
Sm241 O267 2.450 . S
Sm241 O268 2.681 1_545 S
Sm241 O269 2.464 1_545 S
Sm241 O270 2.396 1_546 S
C242 Sm240 2.846 1_556 S
C242 C243 1.506 . S
C242 O260 1.261 . S
C242 O261 1.242 1_556 S
C243 C242 1.506 . S
C243 C244 1.358 . S
C243 C248 1.382 . S
C244 C243 1.358 . S
C244 C245 1.385 . S
C244 H272 0.930 . S
C245 C244 1.385 . S
C245 C246 1.395 . S
C245 H273 0.929 . S
C246 C245 1.395 . S
C246 C247 1.335 . S
C247 C246 1.335 . S
C247 C248 1.398 . S
C247 H274 0.930 . S
C248 C243 1.382 . S
C248 C247 1.398 . S
C248 H275 0.929 1_556 S
C249 O262 1.271 . S
C249 O263 1.251 . S
C250 O264 1.252 . S
C250 O265 1.272 . S
C251 Sm241 2.846 1_554 S
C251 C252 1.506 . S
C251 O266 1.261 . S
C251 O267 1.242 1_554 S
C252 C251 1.506 . S
C252 C253 1.358 . S
C252 C257 1.382 . S
C253 C252 1.358 . S
C253 C254 1.385 . S
C253 H276 0.930 . S
C254 C253 1.385 . S
C254 C255 1.395 . S
C254 H277 0.929 . S
C255 C254 1.395 . S
C255 C256 1.335 . S
C256 C255 1.335 . S
C256 C257 1.398 . S
C256 H278 0.930 . S
C257 C252 1.382 . S
C257 C256 1.398 . S
C257 H279 0.929 1_554 S
C258 O268 1.271 . S
C258 O269 1.251 . S
C259 O270 1.252 . S
C259 O271 1.272 . S
O260 Sm240 2.543 1_556 S
O260 C242 1.261 . S
O261 Sm240 2.450 . S
O261 C242 1.242 1_554 S
O262 Sm240 2.681 1_545 S
O262 Sm241 2.386 1_554 S
O262 C249 1.271 . S
O263 Sm240 2.464 1_545 S
O263 C249 1.251 . S
O264 Sm240 2.396 1_546 S
O264 C250 1.252 . S
O265 Sm241 2.408 . S
O265 C250 1.272 . S
O266 Sm241 2.543 1_554 S
O266 C251 1.261 . S
O267 Sm241 2.450 . S
O267 C251 1.242 1_556 S
O268 Sm240 2.386 1_556 S
O268 Sm241 2.681 1_565 S
O268 C258 1.271 . S
O269 Sm241 2.464 1_565 S
O269 C258 1.251 . S
O270 Sm241 2.396 1_564 S
O270 C259 1.252 . S
O271 Sm240 2.408 . S
O271 C259 1.272 . S
H272 C244 0.930 . S
H273 C245 0.929 . S
H274 C247 0.930 . S
H275 C248 0.929 1_554 S
H276 C253 0.930 . S
H277 C254 0.929 . S
H278 C256 0.930 . S
H279 C257 0.929 1_556 S
Sm280 C282 2.846 . S
Sm280 O300 2.543 . S
Sm280 O301 2.450 . S
Sm280 O302 2.681 . S
Sm280 O303 2.464 . S
Sm280 O304 2.396 . S
Sm280 O308 2.386 . S
Sm280 O311 2.408 . S
Sm281 C291 2.846 . S
Sm281 O302 2.386 . S
Sm281 O305 2.408 . S
Sm281 O306 2.543 . S
Sm281 O307 2.450 . S
Sm281 O308 2.681 . S
Sm281 O309 2.464 . S
Sm281 O310 2.396 . S
C282 Sm280 2.846 . S
C282 C283 1.506 . S
C282 O300 1.261 . S
C282 O301 1.242 . S
C283 C282 1.506 . S
C283 C284 1.358 . S
C283 C288 1.382 . S
C284 C283 1.358 . S
C284 C285 1.385 . S
C284 H312 0.930 . S
C285 C284 1.385 . S
C285 C286 1.395 . S
C285 H313 0.929 . S
C286 C285 1.395 . S
C286 C287 1.335 . S
C287 C286 1.335 . S
C287 C288 1.398 . S
C287 H314 0.930 . S
C288 C283 1.382 . S
C288 C287 1.398 . S
C288 H315 0.929 . S
C289 O302 1.271 . S
C289 O303 1.251 . S
C290 O304 1.252 . S
C290 O305 1.272 . S
C291 Sm281 2.846 . S
C291 C292 1.506 . S
C291 O306 1.261 . S
C291 O307 1.242 . S
C292 C291 1.506 . S
C292 C293 1.358 . S
C292 C297 1.382 . S
C293 C292 1.358 . S
C293 C294 1.385 . S
C293 H316 0.930 . S
C294 C293 1.385 . S
C294 C295 1.395 . S
C294 H317 0.929 . S
C295 C294 1.395 . S
C295 C296 1.335 . S
C296 C295 1.335 . S
C296 C297 1.398 . S
C296 H318 0.930 . S
C297 C292 1.382 . S
C297 C296 1.398 . S
C297 H319 0.929 . S
C298 O308 1.271 . S
C298 O309 1.251 . S
C299 O310 1.252 . S
C299 O311 1.272 . S
O300 Sm280 2.543 . S
O300 C282 1.261 . S
O301 Sm280 2.450 . S
O301 C282 1.242 . S
O302 Sm280 2.681 . S
O302 Sm281 2.386 . S
O302 C289 1.271 . S
O303 Sm280 2.464 . S
O303 C289 1.251 . S
O304 Sm280 2.396 . S
O304 C290 1.252 . S
O305 Sm281 2.408 . S
O305 C290 1.272 . S
O306 Sm281 2.543 . S
O306 C291 1.261 . S
O307 Sm281 2.450 . S
O307 C291 1.242 . S
O308 Sm280 2.386 . S
O308 Sm281 2.681 . S
O308 C298 1.271 . S
O309 Sm281 2.464 . S
O309 C298 1.251 . S
O310 Sm281 2.396 . S
O310 C299 1.252 . S
O311 Sm280 2.408 . S
O311 C299 1.272 . S
H312 C284 0.930 . S
H313 C285 0.929 . S
H314 C287 0.930 . S
H315 C288 0.929 . S
H316 C293 0.930 . S
H317 C294 0.929 . S
H318 C296 0.930 . S
H319 C297 0.929 . S
Sm320 C322 2.846 . S
Sm320 O340 2.543 . S
Sm320 O341 2.450 . S
Sm320 O342 2.681 1_554 S
Sm320 O343 2.464 1_554 S
Sm320 O344 2.396 . S
Sm320 O348 2.386 . S
Sm320 O351 2.408 1_554 S
Sm321 C331 2.846 . S
Sm321 O342 2.386 . S
Sm321 O345 2.408 1_556 S
Sm321 O346 2.543 . S
Sm321 O347 2.450 . S
Sm321 O348 2.681 1_556 S
Sm321 O349 2.464 1_556 S
Sm321 O350 2.396 . S
C322 Sm320 2.846 . S
C322 C323 1.506 . S
C322 O340 1.261 . S
C322 O341 1.242 . S
C323 C322 1.506 . S
C323 C324 1.358 . S
C323 C328 1.382 . S
C324 C323 1.358 . S
C324 C325 1.385 . S
C324 H352 0.930 . S
C325 C324 1.385 . S
C325 C326 1.395 . S
C325 H353 0.929 . S
C326 C325 1.395 . S
C326 C327 1.335 . S
C327 C326 1.335 . S
C327 C328 1.398 . S
C327 H354 0.930 . S
C328 C323 1.382 . S
C328 C327 1.398 . S
C328 H355 0.929 . S
C329 O342 1.271 . S
C329 O343 1.251 . S
C330 O344 1.252 . S
C330 O345 1.272 . S
C331 Sm321 2.846 . S
C331 C332 1.506 . S
C331 O346 1.261 . S
C331 O347 1.242 . S
C332 C331 1.506 . S
C332 C333 1.358 . S
C332 C337 1.382 . S
C333 C332 1.358 . S
C333 C334 1.385 . S
C333 H356 0.930 . S
C334 C333 1.385 . S
C334 C335 1.395 . S
C334 H357 0.929 . S
C335 C334 1.395 . S
C335 C336 1.335 . S
C336 C335 1.335 . S
C336 C337 1.398 . S
C336 H358 0.930 . S
C337 C332 1.382 . S
C337 C336 1.398 . S
C337 H359 0.929 . S
C338 O348 1.271 . S
C338 O349 1.251 . S
C339 O350 1.252 . S
C339 O351 1.272 . S
O340 Sm320 2.543 . S
O340 C322 1.261 . S
O341 Sm320 2.450 . S
O341 C322 1.242 . S
O342 Sm320 2.681 1_556 S
O342 Sm321 2.386 . S
O342 C329 1.271 . S
O343 Sm320 2.464 1_556 S
O343 C329 1.251 . S
O344 Sm320 2.396 . S
O344 C330 1.252 . S
O345 Sm321 2.408 1_554 S
O345 C330 1.272 . S
O346 Sm321 2.543 . S
O346 C331 1.261 . S
O347 Sm321 2.450 . S
O347 C331 1.242 . S
O348 Sm320 2.386 . S
O348 Sm321 2.681 1_554 S
O348 C338 1.271 . S
O349 Sm321 2.464 1_554 S
O349 C338 1.251 . S
O350 Sm321 2.396 . S
O350 C339 1.252 . S
O351 Sm320 2.408 1_556 S
O351 C339 1.272 . S
H352 C324 0.930 . S
H353 C325 0.929 . S
H354 C327 0.930 . S
H355 C328 0.929 . S
H356 C333 0.930 . S
H357 C334 0.929 . S
H358 C336 0.930 . S
H359 C337 0.929 . S
Sm360 C362 2.846 . S
Sm360 O380 2.543 . S
Sm360 O381 2.450 . S
Sm360 O382 2.681 . S
Sm360 O383 2.464 . S
Sm360 O384 2.396 . S
Sm360 O388 2.386 . S
Sm360 O391 2.408 . S
Sm361 C371 2.846 . S
Sm361 O382 2.386 . S
Sm361 O385 2.408 . S
Sm361 O386 2.543 . S
Sm361 O387 2.450 . S
Sm361 O388 2.681 . S
Sm361 O389 2.464 . S
Sm361 O390 2.396 . S
C362 Sm360 2.846 . S
C362 C363 1.506 . S
C362 O380 1.261 . S
C362 O381 1.242 . S
C363 C362 1.506 . S
C363 C364 1.358 . S
C363 C368 1.382 . S
C364 C363 1.358 . S
C364 C365 1.385 . S
C364 H392 0.930 . S
C365 C364 1.385 . S
C365 C366 1.395 . S
C365 H393 0.929 . S
C366 C365 1.395 . S
C366 C367 1.335 . S
C367 C366 1.335 . S
C367 C368 1.398 . S
C367 H394 0.930 . S
C368 C363 1.382 . S
C368 C367 1.398 . S
C368 H395 0.929 . S
C369 O382 1.271 . S
C369 O383 1.251 . S
C370 O384 1.252 . S
C370 O385 1.272 . S
C371 Sm361 2.846 . S
C371 C372 1.506 . S
C371 O386 1.261 . S
C371 O387 1.242 . S
C372 C371 1.506 . S
C372 C373 1.358 . S
C372 C377 1.382 . S
C373 C372 1.358 . S
C373 C374 1.385 . S
C373 H396 0.930 . S
C374 C373 1.385 . S
C374 C375 1.395 . S
C374 H397 0.929 . S
C375 C374 1.395 . S
C375 C376 1.335 . S
C376 C375 1.335 . S
C376 C377 1.398 . S
C376 H398 0.930 . S
C377 C372 1.382 . S
C377 C376 1.398 . S
C377 H399 0.929 . S
C378 O388 1.271 . S
C378 O389 1.251 . S
C379 O390 1.252 . S
C379 O391 1.272 . S
O380 Sm360 2.543 . S
O380 C362 1.261 . S
O381 Sm360 2.450 . S
O381 C362 1.242 . S
O382 Sm360 2.681 . S
O382 Sm361 2.386 . S
O382 C369 1.271 . S
O383 Sm360 2.464 . S
O383 C369 1.251 . S
O384 Sm360 2.396 . S
O384 C370 1.252 . S
O385 Sm361 2.408 . S
O385 C370 1.272 . S
O386 Sm361 2.543 . S
O386 C371 1.261 . S
O387 Sm361 2.450 . S
O387 C371 1.242 . S
O388 Sm360 2.386 . S
O388 Sm361 2.681 . S
O388 C378 1.271 . S
O389 Sm361 2.464 . S
O389 C378 1.251 . S
O390 Sm361 2.396 . S
O390 C379 1.252 . S
O391 Sm360 2.408 . S
O391 C379 1.272 . S
H392 C364 0.930 . S
H393 C365 0.929 . S
H394 C367 0.930 . S
H395 C368 0.929 . S
H396 C373 0.930 . S
H397 C374 0.929 . S
H398 C376 0.930 . S
H399 C377 0.929 . S
Sm400 C402 2.846 . S
Sm400 O420 2.543 . S
Sm400 O421 2.450 . S
Sm400 O422 2.681 . S
Sm400 O423 2.464 . S
Sm400 O424 2.396 . S
Sm400 O428 2.386 1_455 S
Sm400 O431 2.408 1_455 S
Sm401 C411 2.846 . S
Sm401 O422 2.386 1_655 S
Sm401 O425 2.408 1_655 S
Sm401 O426 2.543 . S
Sm401 O427 2.450 . S
Sm401 O428 2.681 . S
Sm401 O429 2.464 . S
Sm401 O430 2.396 . S
C402 Sm400 2.846 . S
C402 C403 1.506 . S
C402 O420 1.261 . S
C402 O421 1.242 . S
C403 C402 1.506 . S
C403 C404 1.358 . S
C403 C408 1.382 . S
C404 C403 1.358 . S
C404 C405 1.385 . S
C404 H432 0.930 . S
C405 C404 1.385 . S
C405 C406 1.395 . S
C405 H433 0.929 . S
C406 C405 1.395 . S
C406 C407 1.335 . S
C407 C406 1.335 . S
C407 C408 1.398 . S
C407 H434 0.930 . S
C408 C403 1.382 . S
C408 C407 1.398 . S
C408 H435 0.929 . S
C409 O422 1.271 . S
C409 O423 1.251 . S
C410 O424 1.252 . S
C410 O425 1.272 . S
C411 Sm401 2.846 . S
C411 C412 1.506 . S
C411 O426 1.261 . S
C411 O427 1.242 . S
C412 C411 1.506 . S
C412 C413 1.358 . S
C412 C417 1.382 . S
C413 C412 1.358 . S
C413 C414 1.385 . S
C413 H436 0.930 . S
C414 C413 1.385 . S
C414 C415 1.395 . S
C414 H437 0.929 . S
C415 C414 1.395 . S
C415 C416 1.335 . S
C416 C415 1.335 . S
C416 C417 1.398 . S
C416 H438 0.930 . S
C417 C412 1.382 . S
C417 C416 1.398 . S
C417 H439 0.929 . S
C418 O428 1.271 . S
C418 O429 1.251 . S
C419 O430 1.252 . S
C419 O431 1.272 . S
O420 Sm400 2.543 . S
O420 C402 1.261 . S
O421 Sm400 2.450 . S
O421 C402 1.242 . S
O422 Sm400 2.681 . S
O422 Sm401 2.386 1_455 S
O422 C409 1.271 . S
O423 Sm400 2.464 . S
O423 C409 1.251 . S
O424 Sm400 2.396 . S
O424 C410 1.252 . S
O425 Sm401 2.408 1_455 S
O425 C410 1.272 . S
O426 Sm401 2.543 . S
O426 C411 1.261 . S
O427 Sm401 2.450 . S
O427 C411 1.242 . S
O428 Sm400 2.386 1_655 S
O428 Sm401 2.681 . S
O428 C418 1.271 . S
O429 Sm401 2.464 . S
O429 C418 1.251 . S
O430 Sm401 2.396 . S
O430 C419 1.252 . S
O431 Sm400 2.408 1_655 S
O431 C419 1.272 . S
H432 C404 0.930 . S
H433 C405 0.929 . S
H434 C407 0.930 . S
H435 C408 0.929 . S
H436 C413 0.930 . S
H437 C414 0.929 . S
H438 C416 0.930 . S
H439 C417 0.929 . S
Sm440 C442 2.846 . S
Sm440 O460 2.543 . S
Sm440 O461 2.450 . S
Sm440 O462 2.681 . S
Sm440 O463 2.464 . S
Sm440 O464 2.396 . S
Sm440 O468 2.386 . S
Sm440 O471 2.408 . S
Sm441 C451 2.846 . S
Sm441 O462 2.386 . S
Sm441 O465 2.408 . S
Sm441 O466 2.543 . S
Sm441 O467 2.450 . S
Sm441 O468 2.681 . S
Sm441 O469 2.464 . S
Sm441 O470 2.396 . S
C442 Sm440 2.846 . S
C442 C443 1.506 . S
C442 O460 1.261 . S
C442 O461 1.242 . S
C443 C442 1.506 . S
C443 C444 1.358 . S
C443 C448 1.382 . S
C444 C443 1.358 . S
C444 C445 1.385 . S
C444 H472 0.930 . S
C445 C444 1.385 . S
C445 C446 1.395 . S
C445 H473 0.929 . S
C446 C445 1.395 . S
C446 C447 1.335 . S
C447 C446 1.335 . S
C447 C448 1.398 . S
C447 H474 0.930 . S
C448 C443 1.382 . S
C448 C447 1.398 . S
C448 H475 0.929 . S
C449 O462 1.271 . S
C449 O463 1.251 . S
C450 O464 1.252 . S
C450 O465 1.272 . S
C451 Sm441 2.846 . S
C451 C452 1.506 . S
C451 O466 1.261 . S
C451 O467 1.242 . S
C452 C451 1.506 . S
C452 C453 1.358 . S
C452 C457 1.382 . S
C453 C452 1.358 . S
C453 C454 1.385 . S
C453 H476 0.930 . S
C454 C453 1.385 . S
C454 C455 1.395 . S
C454 H477 0.929 . S
C455 C454 1.395 . S
C455 C456 1.335 . S
C456 C455 1.335 . S
C456 C457 1.398 . S
C456 H478 0.930 . S
C457 C452 1.382 . S
C457 C456 1.398 . S
C457 H479 0.929 . S
C458 O468 1.271 . S
C458 O469 1.251 . S
C459 O470 1.252 . S
C459 O471 1.272 . S
O460 Sm440 2.543 . S
O460 C442 1.261 . S
O461 Sm440 2.450 . S
O461 C442 1.242 . S
O462 Sm440 2.681 . S
O462 Sm441 2.386 . S
O462 C449 1.271 . S
O463 Sm440 2.464 . S
O463 C449 1.251 . S
O464 Sm440 2.396 . S
O464 C450 1.252 . S
O465 Sm441 2.408 . S
O465 C450 1.272 . S
O466 Sm441 2.543 . S
O466 C451 1.261 . S
O467 Sm441 2.450 . S
O467 C451 1.242 . S
O468 Sm440 2.386 . S
O468 Sm441 2.681 . S
O468 C458 1.271 . S
O469 Sm441 2.464 . S
O469 C458 1.251 . S
O470 Sm441 2.396 . S
O470 C459 1.252 . S
O471 Sm440 2.408 . S
O471 C459 1.272 . S
H472 C444 0.930 . S
H473 C445 0.929 . S
H474 C447 0.930 . S
H475 C448 0.929 . S
H476 C453 0.930 . S
H477 C454 0.929 . S
H478 C456 0.930 . S
H479 C457 0.929 . S
Sm480 C482 2.846 . S
Sm480 O500 2.543 . S
Sm480 O501 2.450 . S
Sm480 O502 2.681 . S
Sm480 O503 2.464 . S
Sm480 O504 2.396 . S
Sm480 O508 2.386 . S
Sm480 O511 2.408 . S
Sm481 C491 2.846 . S
Sm481 O502 2.386 . S
Sm481 O505 2.408 . S
Sm481 O506 2.543 . S
Sm481 O507 2.450 . S
Sm481 O508 2.681 . S
Sm481 O509 2.464 . S
Sm481 O510 2.396 . S
C482 Sm480 2.846 . S
C482 C483 1.506 . S
C482 O500 1.261 . S
C482 O501 1.242 . S
C483 C482 1.506 . S
C483 C484 1.358 . S
C483 C488 1.382 . S
C484 C483 1.358 . S
C484 C485 1.385 . S
C484 H512 0.930 . S
C485 C484 1.385 . S
C485 C486 1.395 . S
C485 H513 0.929 . S
C486 C485 1.395 . S
C486 C487 1.335 . S
C487 C486 1.335 . S
C487 C488 1.398 . S
C487 H514 0.930 . S
C488 C483 1.382 . S
C488 C487 1.398 . S
C488 H515 0.929 . S
C489 O502 1.271 . S
C489 O503 1.251 . S
C490 O504 1.252 . S
C490 O505 1.272 . S
C491 Sm481 2.846 . S
C491 C492 1.506 . S
C491 O506 1.261 . S
C491 O507 1.242 . S
C492 C491 1.506 . S
C492 C493 1.358 . S
C492 C497 1.382 . S
C493 C492 1.358 . S
C493 C494 1.385 . S
C493 H516 0.930 . S
C494 C493 1.385 . S
C494 C495 1.395 . S
C494 H517 0.929 . S
C495 C494 1.395 . S
C495 C496 1.335 . S
C496 C495 1.335 . S
C496 C497 1.398 . S
C496 H518 0.930 . S
C497 C492 1.382 . S
C497 C496 1.398 . S
C497 H519 0.929 . S
C498 O508 1.271 . S
C498 O509 1.251 . S
C499 O510 1.252 . S
C499 O511 1.272 . S
O500 Sm480 2.543 . S
O500 C482 1.261 . S
O501 Sm480 2.450 . S
O501 C482 1.242 . S
O502 Sm480 2.681 . S
O502 Sm481 2.386 . S
O502 C489 1.271 . S
O503 Sm480 2.464 . S
O503 C489 1.251 . S
O504 Sm480 2.396 . S
O504 C490 1.252 . S
O505 Sm481 2.408 . S
O505 C490 1.272 . S
O506 Sm481 2.543 . S
O506 C491 1.261 . S
O507 Sm481 2.450 . S
O507 C491 1.242 . S
O508 Sm480 2.386 . S
O508 Sm481 2.681 . S
O508 C498 1.271 . S
O509 Sm481 2.464 . S
O509 C498 1.251 . S
O510 Sm481 2.396 . S
O510 C499 1.252 . S
O511 Sm480 2.408 . S
O511 C499 1.272 . S
H512 C484 0.930 . S
H513 C485 0.929 . S
H514 C487 0.930 . S
H515 C488 0.929 . S
H516 C493 0.930 . S
H517 C494 0.929 . S
H518 C496 0.930 . S
H519 C497 0.929 . S
Sm520 C522 2.846 . S
Sm520 O540 2.543 . S
Sm520 O541 2.450 . S
Sm520 O542 2.681 . S
Sm520 O543 2.464 . S
Sm520 O544 2.396 . S
Sm520 O548 2.386 . S
Sm520 O551 2.408 . S
Sm521 C531 2.846 . S
Sm521 O542 2.386 . S
Sm521 O545 2.408 . S
Sm521 O546 2.543 . S
Sm521 O547 2.450 . S
Sm521 O548 2.681 . S
Sm521 O549 2.464 . S
Sm521 O550 2.396 . S
C522 Sm520 2.846 . S
C522 C523 1.506 . S
C522 O540 1.261 . S
C522 O541 1.242 . S
C523 C522 1.506 . S
C523 C524 1.358 . S
C523 C528 1.382 . S
C524 C523 1.358 . S
C524 C525 1.385 . S
C524 H552 0.930 . S
C525 C524 1.385 . S
C525 C526 1.395 . S
C525 H553 0.929 . S
C526 C525 1.395 . S
C526 C527 1.335 . S
C527 C526 1.335 . S
C527 C528 1.398 . S
C527 H554 0.930 . S
C528 C523 1.382 . S
C528 C527 1.398 . S
C528 H555 0.929 . S
C529 O542 1.271 . S
C529 O543 1.251 . S
C530 O544 1.252 . S
C530 O545 1.272 . S
C531 Sm521 2.846 . S
C531 C532 1.506 . S
C531 O546 1.261 . S
C531 O547 1.242 . S
C532 C531 1.506 . S
C532 C533 1.358 . S
C532 C537 1.382 . S
C533 C532 1.358 . S
C533 C534 1.385 . S
C533 H556 0.930 . S
C534 C533 1.385 . S
C534 C535 1.395 . S
C534 H557 0.929 . S
C535 C534 1.395 . S
C535 C536 1.335 . S
C536 C535 1.335 . S
C536 C537 1.398 . S
C536 H558 0.930 . S
C537 C532 1.382 . S
C537 C536 1.398 . S
C537 H559 0.929 . S
C538 O548 1.271 . S
C538 O549 1.251 . S
C539 O550 1.252 . S
C539 O551 1.272 . S
O540 Sm520 2.543 . S
O540 C522 1.261 . S
O541 Sm520 2.450 . S
O541 C522 1.242 . S
O542 Sm520 2.681 . S
O542 Sm521 2.386 . S
O542 C529 1.271 . S
O543 Sm520 2.464 . S
O543 C529 1.251 . S
O544 Sm520 2.396 . S
O544 C530 1.252 . S
O545 Sm521 2.408 . S
O545 C530 1.272 . S
O546 Sm521 2.543 . S
O546 C531 1.261 . S
O547 Sm521 2.450 . S
O547 C531 1.242 . S
O548 Sm520 2.386 . S
O548 Sm521 2.681 . S
O548 C538 1.271 . S
O549 Sm521 2.464 . S
O549 C538 1.251 . S
O550 Sm521 2.396 . S
O550 C539 1.252 . S
O551 Sm520 2.408 . S
O551 C539 1.272 . S
H552 C524 0.930 . S
H553 C525 0.929 . S
H554 C527 0.930 . S
H555 C528 0.929 . S
H556 C533 0.930 . S
H557 C534 0.929 . S
H558 C536 0.930 . S
H559 C537 0.929 . S
Sm560 C562 2.846 . S
Sm560 O580 2.543 . S
Sm560 O581 2.450 . S
Sm560 O582 2.681 . S
Sm560 O583 2.464 . S
Sm560 O584 2.396 . S
Sm560 O588 2.386 . S
Sm560 O591 2.408 . S
Sm561 C571 2.846 . S
Sm561 O582 2.386 . S
Sm561 O585 2.408 . S
Sm561 O586 2.543 . S
Sm561 O587 2.450 . S
Sm561 O588 2.681 . S
Sm561 O589 2.464 . S
Sm561 O590 2.396 . S
C562 Sm560 2.846 . S
C562 C563 1.506 . S
C562 O580 1.261 . S
C562 O581 1.242 . S
C563 C562 1.506 . S
C563 C564 1.358 . S
C563 C568 1.382 . S
C564 C563 1.358 . S
C564 C565 1.385 . S
C564 H592 0.930 . S
C565 C564 1.385 . S
C565 C566 1.395 . S
C565 H593 0.929 . S
C566 C565 1.395 . S
C566 C567 1.335 . S
C567 C566 1.335 . S
C567 C568 1.398 . S
C567 H594 0.930 . S
C568 C563 1.382 . S
C568 C567 1.398 . S
C568 H595 0.929 . S
C569 O582 1.271 . S
C569 O583 1.251 . S
C570 O584 1.252 . S
C570 O585 1.272 . S
C571 Sm561 2.846 . S
C571 C572 1.506 . S
C571 O586 1.261 . S
C571 O587 1.242 . S
C572 C571 1.506 . S
C572 C573 1.358 . S
C572 C577 1.382 . S
C573 C572 1.358 . S
C573 C574 1.385 . S
C573 H596 0.930 . S
C574 C573 1.385 . S
C574 C575 1.395 . S
C574 H597 0.929 . S
C575 C574 1.395 . S
C575 C576 1.335 . S
C576 C575 1.335 . S
C576 C577 1.398 . S
C576 H598 0.930 . S
C577 C572 1.382 . S
C577 C576 1.398 . S
C577 H599 0.929 . S
C578 O588 1.271 . S
C578 O589 1.251 . S
C579 O590 1.252 . S
C579 O591 1.272 . S
O580 Sm560 2.543 . S
O580 C562 1.261 . S
O581 Sm560 2.450 . S
O581 C562 1.242 . S
O582 Sm560 2.681 . S
O582 Sm561 2.386 . S
O582 C569 1.271 . S
O583 Sm560 2.464 . S
O583 C569 1.251 . S
O584 Sm560 2.396 . S
O584 C570 1.252 . S
O585 Sm561 2.408 . S
O585 C570 1.272 . S
O586 Sm561 2.543 . S
O586 C571 1.261 . S
O587 Sm561 2.450 . S
O587 C571 1.242 . S
O588 Sm560 2.386 . S
O588 Sm561 2.681 . S
O588 C578 1.271 . S
O589 Sm561 2.464 . S
O589 C578 1.251 . S
O590 Sm561 2.396 . S
O590 C579 1.252 . S
O591 Sm560 2.408 . S
O591 C579 1.272 . S
H592 C564 0.930 . S
H593 C565 0.929 . S
H594 C567 0.930 . S
H595 C568 0.929 . S
H596 C573 0.930 . S
H597 C574 0.929 . S
H598 C576 0.930 . S
H599 C577 0.929 . S
Sm600 C602 2.846 . S
Sm600 O620 2.543 . S
Sm600 O621 2.450 . S
Sm600 O622 2.681 1_554 S
Sm600 O623 2.464 1_554 S
Sm600 O624 2.396 1_554 S
Sm600 O628 2.386 1_655 S
Sm600 O631 2.408 1_655 S
Sm601 C611 2.846 . S
Sm601 O622 2.386 1_455 S
Sm601 O625 2.408 . S
Sm601 O626 2.543 . S
Sm601 O627 2.450 . S
Sm601 O628 2.681 1_556 S
Sm601 O629 2.464 1_556 S
Sm601 O630 2.396 1_556 S
C602 Sm600 2.846 . S
C602 C603 1.506 . S
C602 O620 1.261 . S
C602 O621 1.242 . S
C603 C602 1.506 . S
C603 C604 1.358 . S
C603 C608 1.382 . S
C604 C603 1.358 . S
C604 C605 1.385 . S
C604 H632 0.930 . S
C605 C604 1.385 . S
C605 C606 1.395 . S
C605 H633 0.929 . S
C606 C605 1.395 . S
C606 C607 1.335 . S
C607 C606 1.335 . S
C607 C608 1.398 . S
C607 H634 0.930 . S
C608 C603 1.382 . S
C608 C607 1.398 . S
C608 H635 0.929 . S
C609 O622 1.271 . S
C609 O623 1.251 . S
C610 O624 1.252 . S
C610 O625 1.272 1_655 S
C611 Sm601 2.846 . S
C611 C612 1.506 . S
C611 O626 1.261 . S
C611 O627 1.242 . S
C612 C611 1.506 . S
C612 C613 1.358 . S
C612 C617 1.382 . S
C613 C612 1.358 . S
C613 C614 1.385 . S
C613 H636 0.930 . S
C614 C613 1.385 . S
C614 C615 1.395 . S
C614 H637 0.929 . S
C615 C614 1.395 . S
C615 C616 1.335 . S
C616 C615 1.335 . S
C616 C617 1.398 . S
C616 H638 0.930 . S
C617 C612 1.382 . S
C617 C616 1.398 . S
C617 H639 0.929 . S
C618 O628 1.271 . S
C618 O629 1.251 . S
C619 O630 1.252 . S
C619 O631 1.272 . S
O620 Sm600 2.543 . S
O620 C602 1.261 . S
O621 Sm600 2.450 . S
O621 C602 1.242 . S
O622 Sm600 2.681 1_556 S
O622 Sm601 2.386 1_655 S
O622 C609 1.271 . S
O623 Sm600 2.464 1_556 S
O623 C609 1.251 . S
O624 Sm600 2.396 1_556 S
O624 C610 1.252 . S
O625 Sm601 2.408 . S
O625 C610 1.272 1_455 S
O626 Sm601 2.543 . S
O626 C611 1.261 . S
O627 Sm601 2.450 . S
O627 C611 1.242 . S
O628 Sm600 2.386 1_455 S
O628 Sm601 2.681 1_554 S
O628 C618 1.271 . S
O629 Sm601 2.464 1_554 S
O629 C618 1.251 . S
O630 Sm601 2.396 1_554 S
O630 C619 1.252 . S
O631 Sm600 2.408 1_455 S
O631 C619 1.272 . S
H632 C604 0.930 . S
H633 C605 0.929 . S
H634 C607 0.930 . S
H635 C608 0.929 . S
H636 C613 0.930 . S
H637 C614 0.929 . S
H638 C616 0.930 . S
H639 C617 0.929 . S
H640 C646 0.930 . S
H641 C649 0.930 . S
H642 C650 0.930 . S
H643 C651 0.930 . S
H644 C654 0.930 . S
H645 C655 0.930 . S
C646 H640 0.930 . S
C646 C647 1.355 . S
C646 C648 1.415 . S
C647 C646 1.355 . S
C647 C649 1.419 . S
C648 C646 1.415 . S
C648 C653 1.425 . S
C648 C655 1.409 . S
C649 H641 0.930 . S
C649 C647 1.419 . S
C649 C650 1.362 . S
C650 H642 0.930 . S
C650 C649 1.362 . S
C650 C653 1.409 . S
C651 H643 0.930 . S
C651 C652 1.355 . S
C651 C653 1.415 . S
C652 C651 1.355 . S
C652 C654 1.419 . S
C653 C648 1.425 . S
C653 C650 1.409 . S
C653 C651 1.415 . S
C654 H644 0.930 . S
C654 C652 1.419 . S
C654 C655 1.362 . S
C655 H645 0.930 . S
C655 C648 1.409 . S
C655 C654 1.362 . S
H656 C662 0.930 . S
H657 C665 0.930 . S
H658 C666 0.930 . S
H659 C667 0.930 . S
H660 C670 0.930 . S
H661 C671 0.930 1_556 S
C662 H656 0.930 . S
C662 C663 1.355 . S
C662 C664 1.415 . S
C663 C662 1.355 . S
C663 C665 1.419 . S
C664 C662 1.415 . S
C664 C669 1.425 . S
C664 C671 1.409 . S
C665 H657 0.930 . S
C665 C663 1.419 . S
C665 C666 1.362 . S
C666 H658 0.930 . S
C666 C665 1.362 . S
C666 C669 1.409 . S
C667 H659 0.930 . S
C667 C668 1.355 . S
C667 C669 1.415 . S
C668 C667 1.355 . S
C668 C670 1.419 . S
C669 C664 1.425 . S
C669 C666 1.409 . S
C669 C667 1.415 . S
C670 H660 0.930 . S
C670 C668 1.419 . S
C670 C671 1.362 . S
C671 H661 0.930 1_554 S
C671 C664 1.409 . S
C671 C670 1.362 . S
H672 C678 0.930 . S
H673 C681 0.930 . S
H674 C682 0.930 . S
H675 C683 0.930 . S
H676 C686 0.930 . S
H677 C687 0.930 . S
C678 H672 0.930 . S
C678 C679 1.355 . S
C678 C680 1.415 . S
C679 C678 1.355 . S
C679 C681 1.419 . S
C680 C678 1.415 . S
C680 C685 1.425 . S
C680 C687 1.409 . S
C681 H673 0.930 . S
C681 C679 1.419 . S
C681 C682 1.362 . S
C682 H674 0.930 . S
C682 C681 1.362 . S
C682 C685 1.409 . S
C683 H675 0.930 . S
C683 C684 1.355 . S
C683 C685 1.415 . S
C684 C683 1.355 . S
C684 C686 1.419 . S
C685 C680 1.425 . S
C685 C682 1.409 . S
C685 C683 1.415 . S
C686 H676 0.930 . S
C686 C684 1.419 . S
C686 C687 1.362 . S
C687 H677 0.930 . S
C687 C680 1.409 . S
C687 C686 1.362 . S
H688 C694 0.930 . S
H689 C697 0.930 . S
H690 C698 0.930 . S
H691 C699 0.930 . S
H692 C702 0.930 . S
H693 C703 0.930 . S
C694 H688 0.930 . S
C694 C695 1.355 . S
C694 C696 1.415 . S
C695 C694 1.355 . S
C695 C697 1.419 . S
C696 C694 1.415 . S
C696 C701 1.425 . S
C696 C703 1.409 . S
C697 H689 0.930 . S
C697 C695 1.419 . S
C697 C698 1.362 . S
C698 H690 0.930 . S
C698 C697 1.362 . S
C698 C701 1.409 . S
C699 H691 0.930 . S
C699 C700 1.355 . S
C699 C701 1.415 . S
C700 C699 1.355 . S
C700 C702 1.419 . S
C701 C696 1.425 . S
C701 C698 1.409 . S
C701 C699 1.415 . S
C702 H692 0.930 . S
C702 C700 1.419 . S
C702 C703 1.362 . S
C703 H693 0.930 . S
C703 C696 1.409 . S
C703 C702 1.362 . S
H704 C710 0.930 . S
H705 C713 0.930 . S
H706 C714 0.930 . S
H707 C715 0.930 . S
H708 C718 0.930 . S
H709 C719 0.930 . S
C710 H704 0.930 . S
C710 C711 1.355 . S
C710 C712 1.415 . S
C711 C710 1.355 . S
C711 C713 1.419 . S
C712 C710 1.415 . S
C712 C717 1.425 . S
C712 C719 1.409 . S
C713 H705 0.930 . S
C713 C711 1.419 . S
C713 C714 1.362 . S
C714 H706 0.930 . S
C714 C713 1.362 . S
C714 C717 1.409 . S
C715 H707 0.930 . S
C715 C716 1.355 . S
C715 C717 1.415 . S
C716 C715 1.355 . S
C716 C718 1.419 . S
C717 C712 1.425 . S
C717 C714 1.409 . S
C717 C715 1.415 . S
C718 H708 0.930 . S
C718 C716 1.419 . S
C718 C719 1.362 . S
C719 H709 0.930 . S
C719 C712 1.409 . S
C719 C718 1.362 . S
H720 C726 0.930 . S
H721 C729 0.930 . S
H722 C730 0.930 . S
H723 C731 0.930 . S
H724 C734 0.930 . S
H725 C735 0.930 . S
C726 H720 0.930 . S
C726 C727 1.355 . S
C726 C728 1.415 . S
C727 C726 1.355 . S
C727 C729 1.419 . S
C728 C726 1.415 . S
C728 C733 1.425 . S
C728 C735 1.409 . S
C729 H721 0.930 . S
C729 C727 1.419 . S
C729 C730 1.362 . S
C730 H722 0.930 . S
C730 C729 1.362 . S
C730 C733 1.409 . S
C731 H723 0.930 . S
C731 C732 1.355 . S
C731 C733 1.415 . S
C732 C731 1.355 . S
C732 C734 1.419 . S
C733 C728 1.425 . S
C733 C730 1.409 . S
C733 C731 1.415 . S
C734 H724 0.930 . S
C734 C732 1.419 . S
C734 C735 1.362 . S
C735 H725 0.930 . S
C735 C728 1.409 . S
C735 C734 1.362 . S
H736 C742 0.930 . S
H737 C745 0.930 1_565 S
H738 C746 0.930 1_565 S
H739 C747 0.930 . S
H740 C750 0.930 . S
H741 C751 0.930 . S
C742 H736 0.930 . S
C742 C743 1.355 . S
C742 C744 1.415 . S
C743 C742 1.355 . S
C743 C745 1.419 . S
C744 C742 1.415 . S
C744 C749 1.425 . S
C744 C751 1.409 . S
C745 H737 0.930 1_545 S
C745 C743 1.419 . S
C745 C746 1.362 . S
C746 H738 0.930 1_545 S
C746 C745 1.362 . S
C746 C749 1.409 . S
C747 H739 0.930 . S
C747 C748 1.355 . S
C747 C749 1.415 . S
C748 C747 1.355 . S
C748 C750 1.419 . S
C749 C744 1.425 . S
C749 C746 1.409 . S
C749 C747 1.415 . S
C750 H740 0.930 . S
C750 C748 1.419 . S
C750 C751 1.362 . S
C751 H741 0.930 . S
C751 C744 1.409 . S
C751 C750 1.362 . S
H752 C758 0.930 . S
H753 C761 0.930 . S
H754 C762 0.930 . S
H755 C763 0.930 . S
H756 C766 0.930 . S
H757 C767 0.930 . S
C758 H752 0.930 . S
C758 C759 1.355 . S
C758 C760 1.415 . S
C759 C758 1.355 . S
C759 C761 1.419 . S
C760 C758 1.415 . S
C760 C765 1.425 . S
C760 C767 1.409 . S
C761 H753 0.930 . S
C761 C759 1.419 . S
C761 C762 1.362 . S
C762 H754 0.930 . S
C762 C761 1.362 . S
C762 C765 1.409 . S
C763 H755 0.930 . S
C763 C764 1.355 . S
C763 C765 1.415 . S
C764 C763 1.355 . S
C764 C766 1.419 . S
C765 C760 1.425 . S
C765 C762 1.409 . S
C765 C763 1.415 . S
C766 H756 0.930 . S
C766 C764 1.419 . S
C766 C767 1.362 . S
C767 H757 0.930 . S
C767 C760 1.409 . S
C767 C766 1.362 . S
H768 C774 0.930 . S
H769 C777 0.930 . S
H770 C778 0.930 1_455 S
H771 C779 0.930 1_455 S
H772 C782 0.930 . S
H773 C783 0.930 . S
C774 H768 0.930 . S
C774 C775 1.355 . S
C774 C776 1.415 . S
C775 C774 1.355 . S
C775 C777 1.419 . S
C776 C774 1.415 . S
C776 C781 1.425 . S
C776 C783 1.409 . S
C777 H769 0.930 . S
C777 C775 1.419 . S
C777 C778 1.362 . S
C778 H770 0.930 1_655 S
C778 C777 1.362 . S
C778 C781 1.409 . S
C779 H771 0.930 1_655 S
C779 C780 1.355 . S
C779 C781 1.415 . S
C780 C779 1.355 . S
C780 C782 1.419 . S
C781 C776 1.425 . S
C781 C778 1.409 . S
C781 C779 1.415 . S
C782 H772 0.930 . S
C782 C780 1.419 . S
C782 C783 1.362 . S
C783 H773 0.930 . S
C783 C776 1.409 . S
C783 C782 1.362 . S
H784 C790 0.930 . S
H785 C793 0.930 . S
H786 C794 0.930 . S
H787 C795 0.930 . S
H788 C798 0.930 . S
H789 C799 0.930 . S
C790 H784 0.930 . S
C790 C791 1.355 . S
C790 C792 1.415 . S
C791 C790 1.355 . S
C791 C793 1.419 . S
C792 C790 1.415 . S
C792 C797 1.425 . S
C792 C799 1.409 . S
C793 H785 0.930 . S
C793 C791 1.419 . S
C793 C794 1.362 . S
C794 H786 0.930 . S
C794 C793 1.362 . S
C794 C797 1.409 . S
C795 H787 0.930 . S
C795 C796 1.355 . S
C795 C797 1.415 . S
C796 C795 1.355 . S
C796 C798 1.419 . S
C797 C792 1.425 . S
C797 C794 1.409 . S
C797 C795 1.415 . S
C798 H788 0.930 . S
C798 C796 1.419 . S
C798 C799 1.362 . S
C799 H789 0.930 . S
C799 C792 1.409 . S
C799 C798 1.362 . S
H800 C806 0.930 . S
H801 C809 0.930 . S
H802 C810 0.930 . S
H803 C811 0.930 . S
H804 C814 0.930 . S
H805 C815 0.930 . S
C806 H800 0.930 . S
C806 C807 1.355 . S
C806 C808 1.415 . S
C807 C806 1.355 . S
C807 C809 1.419 . S
C808 C806 1.415 . S
C808 C813 1.425 . S
C808 C815 1.409 . S
C809 H801 0.930 . S
C809 C807 1.419 . S
C809 C810 1.362 . S
C810 H802 0.930 . S
C810 C809 1.362 . S
C810 C813 1.409 . S
C811 H803 0.930 . S
C811 C812 1.355 . S
C811 C813 1.415 . S
C812 C811 1.355 . S
C812 C814 1.419 . S
C813 C808 1.425 . S
C813 C810 1.409 . S
C813 C811 1.415 . S
C814 H804 0.930 . S
C814 C812 1.419 . S
C814 C815 1.362 . S
C815 H805 0.930 . S
C815 C808 1.409 . S
C815 C814 1.362 . S
H816 C822 0.930 . S
H817 C825 0.930 . S
H818 C826 0.930 . S
H819 C827 0.930 . S
H820 C830 0.930 . S
H821 C831 0.930 . S
C822 H816 0.930 . S
C822 C823 1.355 . S
C822 C824 1.415 . S
C823 C822 1.355 . S
C823 C825 1.419 . S
C824 C822 1.415 . S
C824 C829 1.425 . S
C824 C831 1.409 . S
C825 H817 0.930 . S
C825 C823 1.419 . S
C825 C826 1.362 . S
C826 H818 0.930 . S
C826 C825 1.362 . S
C826 C829 1.409 . S
C827 H819 0.930 . S
C827 C828 1.355 . S
C827 C829 1.415 . S
C828 C827 1.355 . S
C828 C830 1.419 . S
C829 C824 1.425 . S
C829 C826 1.409 . S
C829 C827 1.415 . S
C830 H820 0.930 . S
C830 C828 1.419 . S
C830 C831 1.362 . S
C831 H821 0.930 . S
C831 C824 1.409 . S
C831 C830 1.362 . S
H832 C838 0.930 . S
H833 C841 0.930 . S
H834 C842 0.930 . S
H835 C843 0.930 . S
H836 C846 0.930 . S
H837 C847 0.930 . S
C838 H832 0.930 . S
C838 C839 1.355 . S
C838 C840 1.415 . S
C839 C838 1.355 . S
C839 C841 1.419 . S
C840 C838 1.415 . S
C840 C845 1.425 . S
C840 C847 1.409 . S
C841 H833 0.930 . S
C841 C839 1.419 . S
C841 C842 1.362 . S
C842 H834 0.930 . S
C842 C841 1.362 . S
C842 C845 1.409 . S
C843 H835 0.930 . S
C843 C844 1.355 . S
C843 C845 1.415 . S
C844 C843 1.355 . S
C844 C846 1.419 . S
C845 C840 1.425 . S
C845 C842 1.409 . S
C845 C843 1.415 . S
C846 H836 0.930 . S
C846 C844 1.419 . S
C846 C847 1.362 . S
C847 H837 0.930 . S
C847 C840 1.409 . S
C847 C846 1.362 . S
H848 C854 0.930 . S
H849 C857 0.930 . S
H850 C858 0.930 . S
H851 C859 0.930 . S
H852 C862 0.930 . S
H853 C863 0.930 . S
C854 H848 0.930 . S
C854 C855 1.355 . S
C854 C856 1.415 . S
C855 C854 1.355 . S
C855 C857 1.419 . S
C856 C854 1.415 . S
C856 C861 1.425 . S
C856 C863 1.409 . S
C857 H849 0.930 . S
C857 C855 1.419 . S
C857 C858 1.362 . S
C858 H850 0.930 . S
C858 C857 1.362 . S
C858 C861 1.409 . S
C859 H851 0.930 . S
C859 C860 1.355 . S
C859 C861 1.415 . S
C860 C859 1.355 . S
C860 C862 1.419 . S
C861 C856 1.425 . S
C861 C858 1.409 . S
C861 C859 1.415 . S
C862 H852 0.930 . S
C862 C860 1.419 . S
C862 C863 1.362 . S
C863 H853 0.930 . S
C863 C856 1.409 . S
C863 C862 1.362 . S
H864 C870 0.930 . S
H865 C873 0.930 . S
H866 C874 0.930 . S
H867 C875 0.930 . S
H868 C878 0.930 . S
H869 C879 0.930 . S
C870 H864 0.930 . S
C870 C871 1.355 . S
C870 C872 1.415 . S
C871 C870 1.355 . S
C871 C873 1.419 . S
C872 C870 1.415 . S
C872 C877 1.425 . S
C872 C879 1.409 . S
C873 H865 0.930 . S
C873 C871 1.419 . S
C873 C874 1.362 . S
C874 H866 0.930 . S
C874 C873 1.362 . S
C874 C877 1.409 . S
C875 H867 0.930 . S
C875 C876 1.355 . S
C875 C877 1.415 . S
C876 C875 1.355 . S
C876 C878 1.419 . S
C877 C872 1.425 . S
C877 C874 1.409 . S
C877 C875 1.415 . S
C878 H868 0.930 . S
C878 C876 1.419 . S
C878 C879 1.362 . S
C879 H869 0.930 . S
C879 C872 1.409 . S
C879 C878 1.362 . S
H880 C886 0.930 . S
H881 C889 0.930 . S
H882 C890 0.930 . S
H883 C891 0.930 . S
H884 C894 0.930 . S
H885 C895 0.930 . S
C886 H880 0.930 . S
C886 C887 1.355 . S
C886 C888 1.415 . S
C887 C886 1.355 . S
C887 C889 1.419 . S
C888 C886 1.415 . S
C888 C893 1.425 . S
C888 C895 1.409 . S
C889 H881 0.930 . S
C889 C887 1.419 . S
C889 C890 1.362 . S
C890 H882 0.930 . S
C890 C889 1.362 . S
C890 C893 1.409 . S
C891 H883 0.930 . S
C891 C892 1.355 . S
C891 C893 1.415 . S
C892 C891 1.355 . S
C892 C894 1.419 . S
C893 C888 1.425 . S
C893 C890 1.409 . S
C893 C891 1.415 . S
C894 H884 0.930 . S
C894 C892 1.419 . S
C894 C895 1.362 . S
C895 H885 0.930 . S
C895 C888 1.409 . S
C895 C894 1.362 . S
H896 C902 0.930 . S
H897 C905 0.930 . S
H898 C906 0.930 . S
H899 C907 0.930 . S
H900 C910 0.930 . S
H901 C911 0.930 . S
C902 H896 0.930 . S
C902 C903 1.355 . S
C902 C904 1.415 . S
C903 C902 1.355 . S
C903 C905 1.419 . S
C904 C902 1.415 . S
C904 C909 1.425 . S
C904 C911 1.409 . S
C905 H897 0.930 . S
C905 C903 1.419 . S
C905 C906 1.362 . S
C906 H898 0.930 . S
C906 C905 1.362 . S
C906 C909 1.409 . S
C907 H899 0.930 . S
C907 C908 1.355 . S
C907 C909 1.415 . S
C908 C907 1.355 . S
C908 C910 1.419 . S
C909 C904 1.425 . S
C909 C906 1.409 . S
C909 C907 1.415 . S
C910 H900 0.930 . S
C910 C908 1.419 . S
C910 C911 1.362 . S
C911 H901 0.930 . S
C911 C904 1.409 . S
C911 C910 1.362 . S
H912 C918 0.930 . S
H913 C921 0.930 . S
H914 C922 0.930 . S
H915 C923 0.930 . S
H916 C926 0.930 . S
H917 C927 0.930 . S
C918 H912 0.930 . S
C918 C919 1.355 . S
C918 C920 1.415 . S
C919 C918 1.355 . S
C919 C921 1.419 . S
C920 C918 1.415 . S
C920 C925 1.425 . S
C920 C927 1.409 . S
C921 H913 0.930 . S
C921 C919 1.419 . S
C921 C922 1.362 . S
C922 H914 0.930 . S
C922 C921 1.362 . S
C922 C925 1.409 . S
C923 H915 0.930 . S
C923 C924 1.355 . S
C923 C925 1.415 . S
C924 C923 1.355 . S
C924 C926 1.419 . S
C925 C920 1.425 . S
C925 C922 1.409 . S
C925 C923 1.415 . S
C926 H916 0.930 . S
C926 C924 1.419 . S
C926 C927 1.362 . S
C927 H917 0.930 . S
C927 C920 1.409 . S
C927 C926 1.362 . S
H928 C934 0.930 . S
H929 C937 0.930 . S
H930 C938 0.930 . S
H931 C939 0.930 . S
H932 C942 0.930 . S
H933 C943 0.930 . S
C934 H928 0.930 . S
C934 C935 1.355 . S
C934 C936 1.415 . S
C935 C934 1.355 . S
C935 C937 1.419 . S
C936 C934 1.415 . S
C936 C941 1.425 . S
C936 C943 1.409 . S
C937 H929 0.930 . S
C937 C935 1.419 . S
C937 C938 1.362 . S
C938 H930 0.930 . S
C938 C937 1.362 . S
C938 C941 1.409 . S
C939 H931 0.930 . S
C939 C940 1.355 . S
C939 C941 1.415 . S
C940 C939 1.355 . S
C940 C942 1.419 . S
C941 C936 1.425 . S
C941 C938 1.409 . S
C941 C939 1.415 . S
C942 H932 0.930 . S
C942 C940 1.419 . S
C942 C943 1.362 . S
C943 H933 0.930 . S
C943 C936 1.409 . S
C943 C942 1.362 . S
H944 C950 0.930 . S
H945 C953 0.930 . S
H946 C954 0.930 . S
H947 C955 0.930 . S
H948 C958 0.930 . S
H949 C959 0.930 . S
C950 H944 0.930 . S
C950 C951 1.355 . S
C950 C952 1.415 . S
C951 C950 1.355 . S
C951 C953 1.419 . S
C952 C950 1.415 . S
C952 C957 1.425 . S
C952 C959 1.409 . S
C953 H945 0.930 . S
C953 C951 1.419 . S
C953 C954 1.362 . S
C954 H946 0.930 . S
C954 C953 1.362 . S
C954 C957 1.409 . S
C955 H947 0.930 . S
C955 C956 1.355 . S
C955 C957 1.415 . S
C956 C955 1.355 . S
C956 C958 1.419 . S
C957 C952 1.425 . S
C957 C954 1.409 . S
C957 C955 1.415 . S
C958 H948 0.930 . S
C958 C956 1.419 . S
C958 C959 1.362 . S
C959 H949 0.930 . S
C959 C952 1.409 . S
C959 C958 1.362 . S
H960 C966 0.930 . S
H961 C969 0.930 . S
H962 C970 0.930 . S
H963 C971 0.930 . S
H964 C974 0.930 . S
H965 C975 0.930 . S
C966 H960 0.930 . S
C966 C967 1.355 . S
C966 C968 1.415 . S
C967 C966 1.355 . S
C967 C969 1.419 . S
C968 C966 1.415 . S
C968 C973 1.425 . S
C968 C975 1.409 . S
C969 H961 0.930 . S
C969 C967 1.419 . S
C969 C970 1.362 . S
C970 H962 0.930 . S
C970 C969 1.362 . S
C970 C973 1.409 . S
C971 H963 0.930 . S
C971 C972 1.355 . S
C971 C973 1.415 . S
C972 C971 1.355 . S
C972 C974 1.419 . S
C973 C968 1.425 . S
C973 C970 1.409 . S
C973 C971 1.415 . S
C974 H964 0.930 . S
C974 C972 1.419 . S
C974 C975 1.362 . S
C975 H965 0.930 . S
C975 C968 1.409 . S
C975 C974 1.362 . S
H976 C982 0.930 . S
H977 C985 0.930 . S
H978 C986 0.930 . S
H979 C987 0.930 . S
H980 C990 0.930 . S
H981 C991 0.930 . S
C982 H976 0.930 . S
C982 C983 1.355 . S
C982 C984 1.415 . S
C983 C982 1.355 . S
C983 C985 1.419 . S
C984 C982 1.415 . S
C984 C989 1.425 . S
C984 C991 1.409 . S
C985 H977 0.930 . S
C985 C983 1.419 . S
C985 C986 1.362 . S
C986 H978 0.930 . S
C986 C985 1.362 . S
C986 C989 1.409 . S
C987 H979 0.930 . S
C987 C988 1.355 . S
C987 C989 1.415 . S
C988 C987 1.355 . S
C988 C990 1.419 . S
C989 C984 1.425 . S
C989 C986 1.409 . S
C989 C987 1.415 . S
C990 H980 0.930 . S
C990 C988 1.419 . S
C990 C991 1.362 . S
C991 H981 0.930 . S
C991 C984 1.409 . S
C991 C990 1.362 . S
H992 C998 0.930 . S
H993 C1001 0.930 . S
H994 C1002 0.930 . S
H995 C1003 0.930 . S
H996 C1006 0.930 1_565 S
H997 C1007 0.930 . S
C998 H992 0.930 . S
C998 C999 1.355 . S
C998 C1000 1.415 . S
C999 C998 1.355 . S
C999 C1001 1.419 . S
C1000 C998 1.415 . S
C1000 C1005 1.425 . S
C1000 C1007 1.409 . S
C1001 H993 0.930 . S
C1001 C999 1.419 . S
C1001 C1002 1.362 . S
C1002 H994 0.930 . S
C1002 C1001 1.362 . S
C1002 C1005 1.409 . S
C1003 H995 0.930 . S
C1003 C1004 1.355 . S
C1003 C1005 1.415 . S
C1004 C1003 1.355 . S
C1004 C1006 1.419 . S
C1005 C1000 1.425 . S
C1005 C1002 1.409 . S
C1005 C1003 1.415 . S
C1006 H996 0.930 1_545 S
C1006 C1004 1.419 . S
C1006 C1007 1.362 . S
C1007 H997 0.930 . S
C1007 C1000 1.409 . S
C1007 C1006 1.362 . S
H1008 C1014 0.930 . S
H1009 C1017 0.930 . S
H1010 C1018 0.930 . S
H1011 C1019 0.930 . S
H1012 C1022 0.930 . S
H1013 C1023 0.930 . S
C1014 H1008 0.930 . S
C1014 C1015 1.355 . S
C1014 C1016 1.415 . S
C1015 C1014 1.355 . S
C1015 C1017 1.419 . S
C1016 C1014 1.415 . S
C1016 C1021 1.425 . S
C1016 C1023 1.409 . S
C1017 H1009 0.930 . S
C1017 C1015 1.419 . S
C1017 C1018 1.362 . S
C1018 H1010 0.930 . S
C1018 C1017 1.362 . S
C1018 C1021 1.409 . S
C1019 H1011 0.930 . S
C1019 C1020 1.355 . S
C1019 C1021 1.415 . S
C1020 C1019 1.355 . S
C1020 C1022 1.419 . S
C1021 C1016 1.425 . S
C1021 C1018 1.409 . S
C1021 C1019 1.415 . S
C1022 H1012 0.930 . S
C1022 C1020 1.419 . S
C1022 C1023 1.362 . S
C1023 H1013 0.930 . S
C1023 C1016 1.409 . S
C1023 C1022 1.362 . S
H1024 C1030 0.930 . S
H1025 C1033 0.930 . S
H1026 C1034 0.930 . S
H1027 C1035 0.930 . S
H1028 C1038 0.930 . S
H1029 C1039 0.930 . S
C1030 H1024 0.930 . S
C1030 C1031 1.355 . S
C1030 C1032 1.415 . S
C1031 C1030 1.355 . S
C1031 C1033 1.419 . S
C1032 C1030 1.415 . S
C1032 C1037 1.425 . S
C1032 C1039 1.409 . S
C1033 H1025 0.930 . S
C1033 C1031 1.419 . S
C1033 C1034 1.362 . S
C1034 H1026 0.930 . S
C1034 C1033 1.362 . S
C1034 C1037 1.409 . S
C1035 H1027 0.930 . S
C1035 C1036 1.355 . S
C1035 C1037 1.415 . S
C1036 C1035 1.355 . S
C1036 C1038 1.419 . S
C1037 C1032 1.425 . S
C1037 C1034 1.409 . S
C1037 C1035 1.415 . S
C1038 H1028 0.930 . S
C1038 C1036 1.419 . S
C1038 C1039 1.362 . S
C1039 H1029 0.930 . S
C1039 C1032 1.409 . S
C1039 C1038 1.362 . S
H1040 C1046 0.930 . S
H1041 C1049 0.930 . S
H1042 C1050 0.930 . S
H1043 C1051 0.930 . S
H1044 C1054 0.930 . S
H1045 C1055 0.930 . S
C1046 H1040 0.930 . S
C1046 C1047 1.355 . S
C1046 C1048 1.415 . S
C1047 C1046 1.355 . S
C1047 C1049 1.419 . S
C1048 C1046 1.415 . S
C1048 C1053 1.425 . S
C1048 C1055 1.409 . S
C1049 H1041 0.930 . S
C1049 C1047 1.419 . S
C1049 C1050 1.362 . S
C1050 H1042 0.930 . S
C1050 C1049 1.362 . S
C1050 C1053 1.409 . S
C1051 H1043 0.930 . S
C1051 C1052 1.355 . S
C1051 C1053 1.415 . S
C1052 C1051 1.355 . S
C1052 C1054 1.419 . S
C1053 C1048 1.425 . S
C1053 C1050 1.409 . S
C1053 C1051 1.415 . S
C1054 H1044 0.930 . S
C1054 C1052 1.419 . S
C1054 C1055 1.362 . S
C1055 H1045 0.930 . S
C1055 C1048 1.409 . S
C1055 C1054 1.362 . S
H1056 C1062 0.930 . S
H1057 C1065 0.930 . S
H1058 C1066 0.930 . S
H1059 C1067 0.930 . S
H1060 C1070 0.930 . S
H1061 C1071 0.930 . S
C1062 H1056 0.930 . S
C1062 C1063 1.355 . S
C1062 C1064 1.415 . S
C1063 C1062 1.355 . S
C1063 C1065 1.419 . S
C1064 C1062 1.415 . S
C1064 C1069 1.425 . S
C1064 C1071 1.409 . S
C1065 H1057 0.930 . S
C1065 C1063 1.419 . S
C1065 C1066 1.362 . S
C1066 H1058 0.930 . S
C1066 C1065 1.362 . S
C1066 C1069 1.409 . S
C1067 H1059 0.930 . S
C1067 C1068 1.355 . S
C1067 C1069 1.415 . S
C1068 C1067 1.355 . S
C1068 C1070 1.419 . S
C1069 C1064 1.425 . S
C1069 C1066 1.409 . S
C1069 C1067 1.415 . S
C1070 H1060 0.930 . S
C1070 C1068 1.419 . S
C1070 C1071 1.362 . S
C1071 H1061 0.930 . S
C1071 C1064 1.409 . S
C1071 C1070 1.362 . S
H1072 C1078 0.930 . S
H1073 C1081 0.930 . S
H1074 C1082 0.930 . S
H1075 C1083 0.930 . S
H1076 C1086 0.930 . S
H1077 C1087 0.930 . S
C1078 H1072 0.930 . S
C1078 C1079 1.355 . S
C1078 C1080 1.415 . S
C1079 C1078 1.355 . S
C1079 C1081 1.419 . S
C1080 C1078 1.415 . S
C1080 C1085 1.425 . S
C1080 C1087 1.409 . S
C1081 H1073 0.930 . S
C1081 C1079 1.419 . S
C1081 C1082 1.362 . S
C1082 H1074 0.930 . S
C1082 C1081 1.362 . S
C1082 C1085 1.409 . S
C1083 H1075 0.930 . S
C1083 C1084 1.355 . S
C1083 C1085 1.415 . S
C1084 C1083 1.355 . S
C1084 C1086 1.419 . S
C1085 C1080 1.425 . S
C1085 C1082 1.409 . S
C1085 C1083 1.415 . S
C1086 H1076 0.930 . S
C1086 C1084 1.419 . S
C1086 C1087 1.362 . S
C1087 H1077 0.930 . S
C1087 C1080 1.409 . S
C1087 C1086 1.362 . S
H1088 C1094 0.930 . S
H1089 C1097 0.930 . S
H1090 C1098 0.930 . S
H1091 C1099 0.930 . S
H1092 C1102 0.930 . S
H1093 C1103 0.930 . S
C1094 H1088 0.930 . S
C1094 C1095 1.355 . S
C1094 C1096 1.415 . S
C1095 C1094 1.355 . S
C1095 C1097 1.419 . S
C1096 C1094 1.415 . S
C1096 C1101 1.425 . S
C1096 C1103 1.409 . S
C1097 H1089 0.930 . S
C1097 C1095 1.419 . S
C1097 C1098 1.362 . S
C1098 H1090 0.930 . S
C1098 C1097 1.362 . S
C1098 C1101 1.409 . S
C1099 H1091 0.930 . S
C1099 C1100 1.355 . S
C1099 C1101 1.415 . S
C1100 C1099 1.355 . S
C1100 C1102 1.419 . S
C1101 C1096 1.425 . S
C1101 C1098 1.409 . S
C1101 C1099 1.415 . S
C1102 H1092 0.930 . S
C1102 C1100 1.419 . S
C1102 C1103 1.362 . S
C1103 H1093 0.930 . S
C1103 C1096 1.409 . S
C1103 C1102 1.362 . S
H1104 C1110 0.930 . S
H1105 C1113 0.930 . S
H1106 C1114 0.930 . S
H1107 C1115 0.930 . S
H1108 C1118 0.930 . S
H1109 C1119 0.930 1_655 S
C1110 H1104 0.930 . S
C1110 C1111 1.355 . S
C1110 C1112 1.415 . S
C1111 C1110 1.355 . S
C1111 C1113 1.419 . S
C1112 C1110 1.415 . S
C1112 C1117 1.425 . S
C1112 C1119 1.409 . S
C1113 H1105 0.930 . S
C1113 C1111 1.419 . S
C1113 C1114 1.362 . S
C1114 H1106 0.930 . S
C1114 C1113 1.362 . S
C1114 C1117 1.409 . S
C1115 H1107 0.930 . S
C1115 C1116 1.355 . S
C1115 C1117 1.415 . S
C1116 C1115 1.355 . S
C1116 C1118 1.419 1_455 S
C1117 C1112 1.425 . S
C1117 C1114 1.409 . S
C1117 C1115 1.415 . S
C1118 H1108 0.930 . S
C1118 C1116 1.419 1_655 S
C1118 C1119 1.362 1_655 S
C1119 H1109 0.930 1_455 S
C1119 C1112 1.409 . S
C1119 C1118 1.362 1_455 S
H1120 C1126 0.930 . S
H1121 C1129 0.930 . S
H1122 C1130 0.930 . S
H1123 C1131 0.930 . S
H1124 C1134 0.930 . S
H1125 C1135 0.930 . S
C1126 H1120 0.930 . S
C1126 C1127 1.355 . S
C1126 C1128 1.415 . S
C1127 C1126 1.355 . S
C1127 C1129 1.419 . S
C1128 C1126 1.415 . S
C1128 C1133 1.425 . S
C1128 C1135 1.409 . S
C1129 H1121 0.930 . S
C1129 C1127 1.419 . S
C1129 C1130 1.362 . S
C1130 H1122 0.930 . S
C1130 C1129 1.362 . S
C1130 C1133 1.409 . S
C1131 H1123 0.930 . S
C1131 C1132 1.355 . S
C1131 C1133 1.415 . S
C1132 C1131 1.355 . S
C1132 C1134 1.419 . S
C1133 C1128 1.425 . S
C1133 C1130 1.409 . S
C1133 C1131 1.415 . S
C1134 H1124 0.930 . S
C1134 C1132 1.419 . S
C1134 C1135 1.362 . S
C1135 H1125 0.930 . S
C1135 C1128 1.409 . S
C1135 C1134 1.362 . S
H1136 C1142 0.930 . S
H1137 C1145 0.930 . S
H1138 C1146 0.930 . S
H1139 C1147 0.930 . S
H1140 C1150 0.930 . S
H1141 C1151 0.930 . S
C1142 H1136 0.930 . S
C1142 C1143 1.355 . S
C1142 C1144 1.415 . S
C1143 C1142 1.355 . S
C1143 C1145 1.419 . S
C1144 C1142 1.415 . S
C1144 C1149 1.425 . S
C1144 C1151 1.409 . S
C1145 H1137 0.930 . S
C1145 C1143 1.419 . S
C1145 C1146 1.362 . S
C1146 H1138 0.930 . S
C1146 C1145 1.362 . S
C1146 C1149 1.409 . S
C1147 H1139 0.930 . S
C1147 C1148 1.355 . S
C1147 C1149 1.415 . S
C1148 C1147 1.355 . S
C1148 C1150 1.419 . S
C1149 C1144 1.425 . S
C1149 C1146 1.409 . S
C1149 C1147 1.415 . S
C1150 H1140 0.930 . S
C1150 C1148 1.419 . S
C1150 C1151 1.362 . S
C1151 H1141 0.930 . S
C1151 C1144 1.409 . S
C1151 C1150 1.362 . S
H1152 C1158 0.930 . S
H1153 C1161 0.930 . S
H1154 C1162 0.930 . S
H1155 C1163 0.930 . S
H1156 C1166 0.930 . S
H1157 C1167 0.930 . S
C1158 H1152 0.930 . S
C1158 C1159 1.355 . S
C1158 C1160 1.415 . S
C1159 C1158 1.355 . S
C1159 C1161 1.419 . S
C1160 C1158 1.415 . S
C1160 C1165 1.425 . S
C1160 C1167 1.409 . S
C1161 H1153 0.930 . S
C1161 C1159 1.419 . S
C1161 C1162 1.362 . S
C1162 H1154 0.930 . S
C1162 C1161 1.362 . S
C1162 C1165 1.409 . S
C1163 H1155 0.930 . S
C1163 C1164 1.355 . S
C1163 C1165 1.415 . S
C1164 C1163 1.355 . S
C1164 C1166 1.419 . S
C1165 C1160 1.425 . S
C1165 C1162 1.409 . S
C1165 C1163 1.415 . S
C1166 H1156 0.930 . S
C1166 C1164 1.419 . S
C1166 C1167 1.362 . S
C1167 H1157 0.930 . S
C1167 C1160 1.409 . S
C1167 C1166 1.362 . S
H1168 C1174 0.930 . S
H1169 C1177 0.930 . S
H1170 C1178 0.930 . S
H1171 C1179 0.930 . S
H1172 C1182 0.930 . S
H1173 C1183 0.930 . S
C1174 H1168 0.930 . S
C1174 C1175 1.355 . S
C1174 C1176 1.415 . S
C1175 C1174 1.355 . S
C1175 C1177 1.419 . S
C1176 C1174 1.415 . S
C1176 C1181 1.425 . S
C1176 C1183 1.409 . S
C1177 H1169 0.930 . S
C1177 C1175 1.419 . S
C1177 C1178 1.362 . S
C1178 H1170 0.930 . S
C1178 C1177 1.362 . S
C1178 C1181 1.409 . S
C1179 H1171 0.930 . S
C1179 C1180 1.355 . S
C1179 C1181 1.415 . S
C1180 C1179 1.355 . S
C1180 C1182 1.419 . S
C1181 C1176 1.425 . S
C1181 C1178 1.409 . S
C1181 C1179 1.415 . S
C1182 H1172 0.930 . S
C1182 C1180 1.419 . S
C1182 C1183 1.362 . S
C1183 H1173 0.930 . S
C1183 C1176 1.409 . S
C1183 C1182 1.362 . S
H1184 C1190 0.930 . S
H1185 C1193 0.930 . S
H1186 C1194 0.930 . S
H1187 C1195 0.930 . S
H1188 C1198 0.930 . S
H1189 C1199 0.930 . S
C1190 H1184 0.930 . S
C1190 C1191 1.355 . S
C1190 C1192 1.415 . S
C1191 C1190 1.355 . S
C1191 C1193 1.419 . S
C1192 C1190 1.415 . S
C1192 C1197 1.425 . S
C1192 C1199 1.409 . S
C1193 H1185 0.930 . S
C1193 C1191 1.419 . S
C1193 C1194 1.362 . S
C1194 H1186 0.930 . S
C1194 C1193 1.362 . S
C1194 C1197 1.409 . S
C1195 H1187 0.930 . S
C1195 C1196 1.355 . S
C1195 C1197 1.415 . S
C1196 C1195 1.355 . S
C1196 C1198 1.419 . S
C1197 C1192 1.425 . S
C1197 C1194 1.409 . S
C1197 C1195 1.415 . S
C1198 H1188 0.930 . S
C1198 C1196 1.419 . S
C1198 C1199 1.362 . S
C1199 H1189 0.930 . S
C1199 C1192 1.409 . S
C1199 C1198 1.362 . S
H1200 C1206 0.930 . S
H1201 C1209 0.930 . S
H1202 C1210 0.930 . S
H1203 C1211 0.930 . S
H1204 C1214 0.930 . S
H1205 C1215 0.930 . S
C1206 H1200 0.930 . S
C1206 C1207 1.355 . S
C1206 C1208 1.415 . S
C1207 C1206 1.355 . S
C1207 C1209 1.419 . S
C1208 C1206 1.415 . S
C1208 C1213 1.425 . S
C1208 C1215 1.409 . S
C1209 H1201 0.930 . S
C1209 C1207 1.419 . S
C1209 C1210 1.362 . S
C1210 H1202 0.930 . S
C1210 C1209 1.362 . S
C1210 C1213 1.409 . S
C1211 H1203 0.930 . S
C1211 C1212 1.355 . S
C1211 C1213 1.415 . S
C1212 C1211 1.355 . S
C1212 C1214 1.419 . S
C1213 C1208 1.425 . S
C1213 C1210 1.409 . S
C1213 C1211 1.415 . S
C1214 H1204 0.930 . S
C1214 C1212 1.419 . S
C1214 C1215 1.362 . S
C1215 H1205 0.930 . S
C1215 C1208 1.409 . S
C1215 C1214 1.362 . S
H1216 C1222 0.930 . S
H1217 C1225 0.930 . S
H1218 C1226 0.930 . S
H1219 C1227 0.930 . S
H1220 C1230 0.930 . S
H1221 C1231 0.930 . S
C1222 H1216 0.930 . S
C1222 C1223 1.355 . S
C1222 C1224 1.415 . S
C1223 C1222 1.355 . S
C1223 C1225 1.419 . S
C1224 C1222 1.415 . S
C1224 C1229 1.425 . S
C1224 C1231 1.409 . S
C1225 H1217 0.930 . S
C1225 C1223 1.419 . S
C1225 C1226 1.362 . S
C1226 H1218 0.930 . S
C1226 C1225 1.362 . S
C1226 C1229 1.409 . S
C1227 H1219 0.930 . S
C1227 C1228 1.355 . S
C1227 C1229 1.415 . S
C1228 C1227 1.355 . S
C1228 C1230 1.419 . S
C1229 C1224 1.425 . S
C1229 C1226 1.409 . S
C1229 C1227 1.415 . S
C1230 H1220 0.930 . S
C1230 C1228 1.419 . S
C1230 C1231 1.362 . S
C1231 H1221 0.930 . S
C1231 C1224 1.409 . S
C1231 C1230 1.362 . S
H1232 C1238 0.930 . S
H1233 C1241 0.930 . S
H1234 C1242 0.930 . S
H1235 C1243 0.930 . S
H1236 C1246 0.930 . S
H1237 C1247 0.930 . S
C1238 H1232 0.930 . S
C1238 C1239 1.355 . S
C1238 C1240 1.415 . S
C1239 C1238 1.355 . S
C1239 C1241 1.419 . S
C1240 C1238 1.415 . S
C1240 C1245 1.425 . S
C1240 C1247 1.409 . S
C1241 H1233 0.930 . S
C1241 C1239 1.419 . S
C1241 C1242 1.362 . S
C1242 H1234 0.930 . S
C1242 C1241 1.362 . S
C1242 C1245 1.409 . S
C1243 H1235 0.930 . S
C1243 C1244 1.355 . S
C1243 C1245 1.415 . S
C1244 C1243 1.355 . S
C1244 C1246 1.419 . S
C1245 C1240 1.425 . S
C1245 C1242 1.409 . S
C1245 C1243 1.415 . S
C1246 H1236 0.930 . S
C1246 C1244 1.419 . S
C1246 C1247 1.362 . S
C1247 H1237 0.930 . S
C1247 C1240 1.409 . S
C1247 C1246 1.362 . S
H1248 C1254 0.930 . S
H1249 C1257 0.930 . S
H1250 C1258 0.930 . S
H1251 C1259 0.930 . S
H1252 C1262 0.930 . S
H1253 C1263 0.930 . S
C1254 H1248 0.930 . S
C1254 C1255 1.355 . S
C1254 C1256 1.415 . S
C1255 C1254 1.355 . S
C1255 C1257 1.419 . S
C1256 C1254 1.415 . S
C1256 C1261 1.425 . S
C1256 C1263 1.409 . S
C1257 H1249 0.930 . S
C1257 C1255 1.419 . S
C1257 C1258 1.362 . S
C1258 H1250 0.930 . S
C1258 C1257 1.362 . S
C1258 C1261 1.409 . S
C1259 H1251 0.930 . S
C1259 C1260 1.355 . S
C1259 C1261 1.415 . S
C1260 C1259 1.355 . S
C1260 C1262 1.419 . S
C1261 C1256 1.425 . S
C1261 C1258 1.409 . S
C1261 C1259 1.415 . S
C1262 H1252 0.930 . S
C1262 C1260 1.419 . S
C1262 C1263 1.362 . S
C1263 H1253 0.930 . S
C1263 C1256 1.409 . S
C1263 C1262 1.362 . S
H1264 C1270 0.930 . S
H1265 C1273 0.930 . S
H1266 C1274 0.930 . S
H1267 C1275 0.930 . S
H1268 C1278 0.930 . S
H1269 C1279 0.930 . S
C1270 H1264 0.930 . S
C1270 C1271 1.355 . S
C1270 C1272 1.415 . S
C1271 C1270 1.355 . S
C1271 C1273 1.419 . S
C1272 C1270 1.415 . S
C1272 C1277 1.425 . S
C1272 C1279 1.409 . S
C1273 H1265 0.930 . S
C1273 C1271 1.419 . S
C1273 C1274 1.362 . S
C1274 H1266 0.930 . S
C1274 C1273 1.362 . S
C1274 C1277 1.409 . S
C1275 H1267 0.930 . S
C1275 C1276 1.355 . S
C1275 C1277 1.415 . S
C1276 C1275 1.355 . S
C1276 C1278 1.419 . S
C1277 C1272 1.425 . S
C1277 C1274 1.409 . S
C1277 C1275 1.415 . S
C1278 H1268 0.930 . S
C1278 C1276 1.419 . S
C1278 C1279 1.362 . S
C1279 H1269 0.930 . S
C1279 C1272 1.409 . S
C1279 C1278 1.362 . S
H1280 C1286 0.930 . S
H1281 C1289 0.930 . S
H1282 C1290 0.930 . S
H1283 C1291 0.930 . S
H1284 C1294 0.930 . S
H1285 C1295 0.930 . S
C1286 H1280 0.930 . S
C1286 C1287 1.355 . S
C1286 C1288 1.415 . S
C1287 C1286 1.355 . S
C1287 C1289 1.419 . S
C1288 C1286 1.415 . S
C1288 C1293 1.425 . S
C1288 C1295 1.409 . S
C1289 H1281 0.930 . S
C1289 C1287 1.419 . S
C1289 C1290 1.362 . S
C1290 H1282 0.930 . S
C1290 C1289 1.362 . S
C1290 C1293 1.409 . S
C1291 H1283 0.930 . S
C1291 C1292 1.355 . S
C1291 C1293 1.415 . S
C1292 C1291 1.355 . S
C1292 C1294 1.419 . S
C1293 C1288 1.425 . S
C1293 C1290 1.409 . S
C1293 C1291 1.415 . S
C1294 H1284 0.930 . S
C1294 C1292 1.419 . S
C1294 C1295 1.362 . S
C1295 H1285 0.930 . S
C1295 C1288 1.409 . S
C1295 C1294 1.362 . S
H1296 C1302 0.930 . S
H1297 C1305 0.930 . S
H1298 C1306 0.930 . S
H1299 C1307 0.930 . S
H1300 C1310 0.930 . S
H1301 C1311 0.930 . S
C1302 H1296 0.930 . S
C1302 C1303 1.355 . S
C1302 C1304 1.415 . S
C1303 C1302 1.355 . S
C1303 C1305 1.419 . S
C1304 C1302 1.415 . S
C1304 C1309 1.425 . S
C1304 C1311 1.409 . S
C1305 H1297 0.930 . S
C1305 C1303 1.419 . S
C1305 C1306 1.362 . S
C1306 H1298 0.930 . S
C1306 C1305 1.362 . S
C1306 C1309 1.409 . S
C1307 H1299 0.930 . S
C1307 C1308 1.355 . S
C1307 C1309 1.415 . S
C1308 C1307 1.355 . S
C1308 C1310 1.419 . S
C1309 C1304 1.425 . S
C1309 C1306 1.409 . S
C1309 C1307 1.415 . S
C1310 H1300 0.930 . S
C1310 C1308 1.419 . S
C1310 C1311 1.362 . S
C1311 H1301 0.930 . S
C1311 C1304 1.409 . S
C1311 C1310 1.362 . S
H1312 C1318 0.930 . S
H1313 C1321 0.930 . S
H1314 C1322 0.930 . S
H1315 C1323 0.930 . S
H1316 C1326 0.930 . S
H1317 C1327 0.930 . S
C1318 H1312 0.930 . S
C1318 C1319 1.355 . S
C1318 C1320 1.415 . S
C1319 C1318 1.355 . S
C1319 C1321 1.419 . S
C1320 C1318 1.415 . S
C1320 C1325 1.425 . S
C1320 C1327 1.409 . S
C1321 H1313 0.930 . S
C1321 C1319 1.419 . S
C1321 C1322 1.362 . S
C1322 H1314 0.930 . S
C1322 C1321 1.362 . S
C1322 C1325 1.409 . S
C1323 H1315 0.930 . S
C1323 C1324 1.355 . S
C1323 C1325 1.415 . S
C1324 C1323 1.355 . S
C1324 C1326 1.419 . S
C1325 C1320 1.425 . S
C1325 C1322 1.409 . S
C1325 C1323 1.415 . S
C1326 H1316 0.930 . S
C1326 C1324 1.419 . S
C1326 C1327 1.362 . S
C1327 H1317 0.930 . S
C1327 C1320 1.409 . S
C1327 C1326 1.362 . S
H1328 C1334 0.930 . S
H1329 C1337 0.930 . S
H1330 C1338 0.930 . S
H1331 C1339 0.930 . S
H1332 C1342 0.930 . S
H1333 C1343 0.930 . S
C1334 H1328 0.930 . S
C1334 C1335 1.355 . S
C1334 C1336 1.415 . S
C1335 C1334 1.355 . S
C1335 C1337 1.419 . S
C1336 C1334 1.415 . S
C1336 C1341 1.425 . S
C1336 C1343 1.409 . S
C1337 H1329 0.930 . S
C1337 C1335 1.419 . S
C1337 C1338 1.362 . S
C1338 H1330 0.930 . S
C1338 C1337 1.362 . S
C1338 C1341 1.409 . S
C1339 H1331 0.930 . S
C1339 C1340 1.355 . S
C1339 C1341 1.415 . S
C1340 C1339 1.355 . S
C1340 C1342 1.419 . S
C1341 C1336 1.425 . S
C1341 C1338 1.409 . S
C1341 C1339 1.415 . S
C1342 H1332 0.930 . S
C1342 C1340 1.419 . S
C1342 C1343 1.362 . S
C1343 H1333 0.930 . S
C1343 C1336 1.409 . S
C1343 C1342 1.362 . S
H1344 C1350 0.930 . S
H1345 C1353 0.930 . S
H1346 C1354 0.930 . S
H1347 C1355 0.930 . S
H1348 C1358 0.930 . S
H1349 C1359 0.930 . S
C1350 H1344 0.930 . S
C1350 C1351 1.355 . S
C1350 C1352 1.415 . S
C1351 C1350 1.355 . S
C1351 C1353 1.419 . S
C1352 C1350 1.415 . S
C1352 C1357 1.425 . S
C1352 C1359 1.409 . S
C1353 H1345 0.930 . S
C1353 C1351 1.419 . S
C1353 C1354 1.362 . S
C1354 H1346 0.930 . S
C1354 C1353 1.362 . S
C1354 C1357 1.409 . S
C1355 H1347 0.930 . S
C1355 C1356 1.355 . S
C1355 C1357 1.415 . S
C1356 C1355 1.355 . S
C1356 C1358 1.419 . S
C1357 C1352 1.425 . S
C1357 C1354 1.409 . S
C1357 C1355 1.415 . S
C1358 H1348 0.930 . S
C1358 C1356 1.419 . S
C1358 C1359 1.362 . S
C1359 H1349 0.930 . S
C1359 C1352 1.409 . S
C1359 C1358 1.362 . S
H1360 C1366 0.930 . S
H1361 C1369 0.930 . S
H1362 C1370 0.930 . S
H1363 C1371 0.930 . S
H1364 C1374 0.930 . S
H1365 C1375 0.930 . S
C1366 H1360 0.930 . S
C1366 C1367 1.355 . S
C1366 C1368 1.415 . S
C1367 C1366 1.355 . S
C1367 C1369 1.419 . S
C1368 C1366 1.415 . S
C1368 C1373 1.425 . S
C1368 C1375 1.409 . S
C1369 H1361 0.930 . S
C1369 C1367 1.419 . S
C1369 C1370 1.362 . S
C1370 H1362 0.930 . S
C1370 C1369 1.362 . S
C1370 C1373 1.409 . S
C1371 H1363 0.930 . S
C1371 C1372 1.355 . S
C1371 C1373 1.415 . S
C1372 C1371 1.355 . S
C1372 C1374 1.419 . S
C1373 C1368 1.425 . S
C1373 C1370 1.409 . S
C1373 C1371 1.415 . S
C1374 H1364 0.930 . S
C1374 C1372 1.419 . S
C1374 C1375 1.362 . S
C1375 H1365 0.930 . S
C1375 C1368 1.409 . S
C1375 C1374 1.362 . S
H1376 C1382 0.930 . S
H1377 C1385 0.930 . S
H1378 C1386 0.930 . S
H1379 C1387 0.930 . S
H1380 C1390 0.930 . S
H1381 C1391 0.930 . S
C1382 H1376 0.930 . S
C1382 C1383 1.355 . S
C1382 C1384 1.415 . S
C1383 C1382 1.355 . S
C1383 C1385 1.419 . S
C1384 C1382 1.415 . S
C1384 C1389 1.425 . S
C1384 C1391 1.409 . S
C1385 H1377 0.930 . S
C1385 C1383 1.419 . S
C1385 C1386 1.362 . S
C1386 H1378 0.930 . S
C1386 C1385 1.362 . S
C1386 C1389 1.409 . S
C1387 H1379 0.930 . S
C1387 C1388 1.355 . S
C1387 C1389 1.415 . S
C1388 C1387 1.355 . S
C1388 C1390 1.419 . S
C1389 C1384 1.425 . S
C1389 C1386 1.409 . S
C1389 C1387 1.415 . S
C1390 H1380 0.930 . S
C1390 C1388 1.419 . S
C1390 C1391 1.362 . S
C1391 H1381 0.930 . S
C1391 C1384 1.409 . S
C1391 C1390 1.362 . S
H1392 C1398 0.930 . S
H1393 C1401 0.930 . S
H1394 C1402 0.930 . S
H1395 C1403 0.930 . S
H1396 C1406 0.930 . S
H1397 C1407 0.930 . S
C1398 H1392 0.930 . S
C1398 C1399 1.355 . S
C1398 C1400 1.415 . S
C1399 C1398 1.355 . S
C1399 C1401 1.419 . S
C1400 C1398 1.415 . S
C1400 C1405 1.425 . S
C1400 C1407 1.409 . S
C1401 H1393 0.930 . S
C1401 C1399 1.419 . S
C1401 C1402 1.362 . S
C1402 H1394 0.930 . S
C1402 C1401 1.362 . S
C1402 C1405 1.409 . S
C1403 H1395 0.930 . S
C1403 C1404 1.355 . S
C1403 C1405 1.415 . S
C1404 C1403 1.355 . S
C1404 C1406 1.419 . S
C1405 C1400 1.425 . S
C1405 C1402 1.409 . S
C1405 C1403 1.415 . S
C1406 H1396 0.930 . S
C1406 C1404 1.419 . S
C1406 C1407 1.362 . S
C1407 H1397 0.930 . S
C1407 C1400 1.409 . S
C1407 C1406 1.362 . S
C647 C139 1.882 . S
C652 C18 1.885 . S
C663 C10 1.254 . S
C668 C55 1.248 . S
C679 C89 1.017 . S
C684 C58 0.941 . S
C695 C126 1.642 . S
C700 C86 1.642 . S
C711 C166 1.247 . S
C716 C210 1.305 . S
C727 C218 1.028 . S
C732 C258 1.062 . S
C743 C255 1.298 . S
C748 C286 1.236 . S
C759 C179 1.917 . S
C764 C289 1.956 . S
C775 C375 1.274 . S
C780 C15 1.233 . S
C791 C410 1.765 . S
C796 C50 1.715 . S
C807 C99 3.891 . S
C812 C539 3.864 . S
C823 C329 1.016 . S
C828 C129 0.978 . S
C839 C449 1.012 . S
C844 C169 0.919 . S
C855 C575 1.250 . S
C860 C215 1.273 . S
C871 C250 1.766 . S
C876 C490 1.715 . S
C887 C619 3.886 . S
C892 C299 3.872 . S
C903 C339 1.890 . S
C908 C529 1.958 . S
C919 C370 1.295 . S
C924 C326 1.243 . S
C935 C418 1.063 . S
C940 C378 1.028 . S
C951 C578 1.885 . S
C956 C459 1.880 . S
C967 C498 0.967 . S
C972 C609 1.013 . S
C983 C450 1.876 . S
C988 C9 1.882 . S
C999 C486 1.151 . S
C1004 C19 1.263 . S
C1015 C489 0.988 . S
C1020 C98 0.972 . S
C1031 C95 1.664 . S
C1036 C455 1.666 . S
C1047 C379 1.370 . S
C1052 C175 1.320 . S
C1063 C369 1.060 . S
C1068 C249 1.037 . S
C1079 C535 1.268 . S
C1084 C246 1.283 . S
C1095 C170 1.900 . S
C1100 C538 1.955 . S
C1111 C206 1.248 . S
C1116 C6 1.265 . S
C1127 C419 1.800 . S
C1132 C499 1.764 . S
C1143 C90 3.888 . S
C1148 C290 3.856 . S
C1159 C338 1.010 . S
C1164 C458 0.980 . S
C1175 C138 0.971 . S
C1180 C178 1.017 . S
C1191 C366 1.266 . S
C1196 C566 1.220 . S
C1207 C259 1.756 . S
C1212 C59 1.725 . S
C1223 C610 3.880 . S
C1228 C530 3.861 . S
C1239 C330 1.892 . S
C1244 C298 1.956 . S
C1255 C335 1.353 . S
C1260 C219 1.370 . S
C1271 C409 1.065 . S
C1276 C209 1.029 . S
C1287 C130 1.862 . S
C1292 C569 1.871 . S
C1303 C49 1.016 . S
C1308 C618 0.994 . S
C1319 C495 1.176 . S
C1324 C570 1.237 . S
C1335 C446 1.651 . S
C1340 C606 1.652 . S
C1351 C415 1.316 . S
C1356 C526 1.285 . S
C1367 C579 1.258 . S
C1372 C46 1.146 . S
C1383 C135 1.645 . S
C1388 C615 1.644 . S
C1399 C295 1.275 . S
C1404 C406 1.315 . S
