# Generated by pormake.
# Topology umx, (4)-cn, num edge types: 1
# Building blocks:
#     Node 0, Type 0, BuildingBlock: GALJAG_clean_sbu_0, # of connection points: 4
#     Node 1, Type 0, BuildingBlock: GALJAG_clean_sbu_0, # of connection points: 4
#     Node 2, Type 0, BuildingBlock: GALJAG_clean_sbu_0, # of connection points: 4
#     Node 3, Type 0, BuildingBlock: GALJAG_clean_sbu_0, # of connection points: 4
#     Node 4, Type 0, BuildingBlock: GALJAG_clean_sbu_0, # of connection points: 4
#     Node 5, Type 0, BuildingBlock: GALJAG_clean_sbu_0, # of connection points: 4
#     Node 6, Type 0, BuildingBlock: GALJAG_clean_sbu_0, # of connection points: 4
#     Node 7, Type 0, BuildingBlock: GALJAG_clean_sbu_0, # of connection points: 4
#     Edge 8, Type (0, 0), BuildingBlock: FUNLAD_clean_linker_0, # of connection points: 2
#     Edge 9, Type (0, 0), BuildingBlock: FUNLAD_clean_linker_0, # of connection points: 2
#     Edge 10, Type (0, 0), BuildingBlock: FUNLAD_clean_linker_0, # of connection points: 2
#     Edge 11, Type (0, 0), BuildingBlock: FUNLAD_clean_linker_0, # of connection points: 2
#     Edge 12, Type (0, 0), BuildingBlock: FUNLAD_clean_linker_0, # of connection points: 2
#     Edge 13, Type (0, 0), BuildingBlock: FUNLAD_clean_linker_0, # of connection points: 2
#     Edge 14, Type (0, 0), BuildingBlock: FUNLAD_clean_linker_0, # of connection points: 2
#     Edge 15, Type (0, 0), BuildingBlock: FUNLAD_clean_linker_0, # of connection points: 2
#     Edge 16, Type (0, 0), BuildingBlock: FUNLAD_clean_linker_0, # of connection points: 2
#     Edge 17, Type (0, 0), BuildingBlock: FUNLAD_clean_linker_0, # of connection points: 2
#     Edge 18, Type (0, 0), BuildingBlock: FUNLAD_clean_linker_0, # of connection points: 2
#     Edge 19, Type (0, 0), BuildingBlock: FUNLAD_clean_linker_0, # of connection points: 2
#     Edge 20, Type (0, 0), BuildingBlock: FUNLAD_clean_linker_0, # of connection points: 2
#     Edge 21, Type (0, 0), BuildingBlock: FUNLAD_clean_linker_0, # of connection points: 2
#     Edge 22, Type (0, 0), BuildingBlock: FUNLAD_clean_linker_0, # of connection points: 2
#     Edge 23, Type (0, 0), BuildingBlock: FUNLAD_clean_linker_0, # of connection points: 2
# Relax obj value: 0.096
# Max RMSD: 0.176
# Mean RMSD: 0.176
data_MOF--net-umx--node1-GALJAG_clean_sbu_0--edge1-FUNLAD_clean_linker_0
_symmetry_space_group_name_H-M    P1
_symmetry_Int_Tables_number       1
_symmetry_cell_setting            triclinic
loop_
_symmetry_equiv_pos_as_xyz
'x, y, z'
_cell_length_a     44.88335
_cell_length_b     45.045618
_cell_length_c     33.281717
_cell_angle_alpha  89.843649
_cell_angle_beta   89.990773
_cell_angle_gamma 90.056319
loop_
_atom_site_label
_atom_site_type_symbol
_atom_site_fract_x
_atom_site_fract_y
_atom_site_fract_z
_atom_type_partial_charge
In0 In 0.19502 0.46702 0.04255 0.0
O1 O 0.22072 0.49846 0.08451 0.0
O2 O 0.20789 0.45579 0.10623 0.0
C3 C 0.19944 0.4875 0.9668 0.0
C4 C 0.22181 0.41519 0.02705 0.0
C5 C 0.13816 0.48077 0.05946 0.0
O6 O 0.21717 0.4961 0.99402 0.0
O7 O 0.17948 0.46972 0.97841 0.0
O8 O 0.14659 0.45425 0.05424 0.0
O9 O 0.15847 0.50007 0.05647 0.0
C10 C 0.22063 0.48014 0.11346 0.0
O11 O 0.19492 0.41629 0.03848 0.0
O12 O 0.2347 0.44 0.02395 0.0
In13 In 0.5458 0.17374 0.5313 0.0
O14 O 0.59638 0.17271 0.52234 0.0
O15 O 0.578 0.20514 0.56163 0.0
C16 C 0.53313 0.11729 0.51116 0.0
C17 C 0.52294 0.17583 0.60623 0.0
C18 C 0.52803 0.20417 0.46525 0.0
O19 O 0.55889 0.12522 0.5221 0.0
O20 O 0.51414 0.1379 0.50983 0.0
O21 O 0.51098 0.20007 0.49498 0.0
O22 O 0.55388 0.19383 0.46962 0.0
C23 C 0.60102 0.19422 0.5458 0.0
O24 O 0.52017 0.19734 0.58194 0.0
O25 O 0.53664 0.15369 0.59237 0.0
In26 In 0.81111 0.55033 0.04312 0.0
O27 O 0.78164 0.51962 0.08101 0.0
O28 O 0.80183 0.55681 0.10936 0.0
C29 C 0.80403 0.52958 0.96818 0.0
C30 C 0.78463 0.60298 0.03094 0.0
C31 C 0.86857 0.53549 0.05518 0.0
O32 O 0.79113 0.51774 0.998 0.0
O33 O 0.82067 0.55131 0.97651 0.0
O34 O 0.86038 0.56216 0.05103 0.0
O35 O 0.84781 0.51666 0.05359 0.0
C36 C 0.78532 0.53429 0.11293 0.0
O37 O 0.81098 0.60124 0.04421 0.0
O38 O 0.77195 0.57842 0.0247 0.0
In39 In 0.44206 0.7967 0.51698 0.0
O40 O 0.47444 0.77047 0.55746 0.0
O41 O 0.44073 0.797 0.58466 0.0
C42 C 0.4508 0.78073 0.43964 0.0
C43 C 0.38628 0.77652 0.52602 0.0
C44 C 0.46335 0.85254 0.51616 0.0
O45 O 0.46565 0.76896 0.46785 0.0
O46 O 0.43212 0.79983 0.45085 0.0
O47 O 0.43586 0.84686 0.51903 0.0
O48 O 0.48 0.83006 0.51388 0.0
C49 C 0.46239 0.77955 0.58962 0.0
O50 O 0.39184 0.80379 0.52086 0.0
O51 O 0.40876 0.75964 0.52603 0.0
In52 In 0.18089 0.54939 0.5335 0.0
O53 O 0.20949 0.52264 0.48893 0.0
O54 O 0.19666 0.56643 0.47302 0.0
C55 C 0.19149 0.52002 0.60264 0.0
C56 C 0.19476 0.60455 0.55816 0.0
C57 C 0.1249 0.53211 0.51642 0.0
O58 O 0.21214 0.52587 0.57798 0.0
O59 O 0.16586 0.52812 0.59173 0.0
O60 O 0.13077 0.55744 0.53069 0.0
O61 O 0.14732 0.51584 0.51022 0.0
C62 C 0.21013 0.54313 0.46292 0.0
O63 O 0.17308 0.59978 0.53482 0.0
O64 O 0.20879 0.58169 0.569 0.0
In65 In 0.44034 0.17861 0.04429 0.0
O66 O 0.38971 0.18143 0.05211 0.0
O67 O 0.41226 0.21668 0.02176 0.0
C68 C 0.45106 0.12042 0.05616 0.0
C69 C 0.45947 0.18423 0.96788 0.0
C70 C 0.45947 0.20304 0.1138 0.0
O71 O 0.42509 0.13042 0.05061 0.0
O72 O 0.47136 0.1398 0.05617 0.0
O73 O 0.47537 0.20312 0.08241 0.0
O74 O 0.43419 0.19128 0.10959 0.0
C75 C 0.38785 0.20599 0.03382 0.0
O76 O 0.47037 0.19976 0.99598 0.0
O77 O 0.43984 0.16584 0.97881 0.0
In78 In 0.80134 0.449 0.53218 0.0
O79 O 0.77306 0.48015 0.49346 0.0
O80 O 0.79273 0.44224 0.46601 0.0
C81 C 0.79608 0.46901 0.60772 0.0
C82 C 0.77244 0.39765 0.54414 0.0
C83 C 0.85842 0.46385 0.51779 0.0
O84 O 0.78293 0.48154 0.57861 0.0
O85 O 0.81193 0.44697 0.59835 0.0
O86 O 0.85029 0.43704 0.52114 0.0
O87 O 0.83783 0.48265 0.52169 0.0
C88 C 0.77691 0.46518 0.46177 0.0
O89 O 0.79986 0.3982 0.53516 0.0
O90 O 0.76007 0.42274 0.54631 0.0
In91 In 0.54237 0.80023 0.02167 0.0
O92 O 0.58755 0.80015 0.05349 0.0
O93 O 0.5856 0.78513 0.99299 0.0
C94 C 0.53021 0.85857 0.0319 0.0
C95 C 0.5253 0.78362 0.94696 0.0
C96 C 0.51828 0.7704 0.08485 0.0
O97 O 0.55609 0.84811 0.03566 0.0
O98 O 0.51063 0.83971 0.02288 0.0
O99 O 0.54349 0.7642 0.07053 0.0
O100 O 0.5045 0.79035 0.06585 0.0
C101 C 0.60144 0.78986 0.02361 0.0
O102 O 0.51869 0.76841 0.9777 0.0
O103 O 0.5399 0.80688 0.95423 0.0
C104 C 0.23868 0.51599 0.16577 0.0
C105 C 0.2327 0.48673 0.15374 0.0
C106 C 0.24627 0.52208 0.20575 0.0
C107 C 0.2481 0.49893 0.23424 0.0
C108 C 0.24413 0.46959 0.22134 0.0
C109 C 0.23628 0.46356 0.18165 0.0
C110 C 0.25205 0.5043 0.27798 0.0
C111 C 0.24171 0.52885 0.29631 0.0
C112 C 0.23862 0.53216 0.34066 0.0
C113 C 0.2317 0.56037 0.3558 0.0
C114 C 0.22393 0.56408 0.39607 0.0
C115 C 0.22285 0.5396 0.42226 0.0
H116 H 0.24361 0.48554 0.35728 0.0
C117 C 0.23129 0.51158 0.40791 0.0
C118 C 0.23898 0.50781 0.36746 0.0
H119 H 0.23053 0.4923 0.42741 0.0
H120 H 0.23637 0.53423 0.14473 0.0
H121 H 0.25018 0.54492 0.21428 0.0
H122 H 0.24571 0.45131 0.24247 0.0
H123 H 0.23219 0.44072 0.17311 0.0
H124 H 0.26077 0.48608 0.29576 0.0
H125 H 0.23285 0.54681 0.27808 0.0
H126 H 0.23119 0.57953 0.33605 0.0
H127 H 0.21768 0.58602 0.40631 0.0
C128 C 0.50478 0.20316 0.66736 0.0
C129 C 0.5123 0.17641 0.64824 0.0
C130 C 0.49662 0.20327 0.70807 0.0
C131 C 0.49565 0.17653 0.73012 0.0
C132 C 0.50242 0.14986 0.7105 0.0
C133 C 0.51088 0.1498 0.67021 0.0
C134 C 0.48677 0.17504 0.77309 0.0
C135 C 0.49002 0.19747 0.79949 0.0
C136 C 0.48183 0.19426 0.84268 0.0
C137 C 0.49669 0.21124 0.87186 0.0
C138 C 0.48975 0.208 0.91275 0.0
C139 C 0.46765 0.18783 0.92507 0.0
H140 H 0.44638 0.16199 0.83364 0.0
C141 C 0.45241 0.17133 0.89579 0.0
C142 C 0.45923 0.17463 0.85515 0.0
H143 H 0.43489 0.15596 0.90419 0.0
H144 H 0.50566 0.22399 0.65108 0.0
H145 H 0.4908 0.22417 0.72194 0.0
H146 H 0.50155 0.12892 0.72658 0.0
H147 H 0.5164 0.1288 0.65627 0.0
H148 H 0.47897 0.15363 0.78387 0.0
H149 H 0.50055 0.21803 0.78996 0.0
H150 H 0.51396 0.22678 0.86307 0.0
H151 H 0.50167 0.22123 0.93462 0.0
C152 C 0.77062 0.45642 0.38845 0.0
C153 C 0.7658 0.47459 0.42202 0.0
C154 C 0.76365 0.46646 0.34992 0.0
C155 C 0.75145 0.49494 0.34408 0.0
C156 C 0.74544 0.51257 0.37791 0.0
C157 C 0.75243 0.50247 0.41656 0.0
C158 C 0.74856 0.50832 0.30337 0.0
C159 C 0.74889 0.49237 0.26915 0.0
C160 C 0.75442 0.50553 0.22881 0.0
C161 C 0.74857 0.48838 0.19448 0.0
C162 C 0.75757 0.49814 0.15642 0.0
C163 C 0.77283 0.52518 0.15208 0.0
H164 H 0.77455 0.54678 0.24956 0.0
C165 C 0.77773 0.54285 0.18612 0.0
C166 C 0.76875 0.53314 0.22406 0.0
H167 H 0.78947 0.5638 0.1837 0.0
H168 H 0.7809 0.4348 0.39172 0.0
H169 H 0.76945 0.45233 0.32493 0.0
H170 H 0.7363 0.53467 0.37433 0.0
H171 H 0.74846 0.51694 0.44194 0.0
H172 H 0.74781 0.53238 0.30177 0.0
H173 H 0.74658 0.46841 0.27058 0.0
H174 H 0.73783 0.46691 0.19724 0.0
H175 H 0.75348 0.48407 0.13067 0.0
C176 C 0.53084 0.78967 0.87284 0.0
C177 C 0.51723 0.77513 0.90544 0.0
C178 C 0.52275 0.78293 0.8334 0.0
C179 C 0.50068 0.76154 0.82557 0.0
C180 C 0.4872 0.74682 0.85817 0.0
C181 C 0.49563 0.75329 0.89776 0.0
C182 C 0.48931 0.75658 0.78414 0.0
C183 C 0.50608 0.76082 0.75094 0.0
C184 C 0.49348 0.76188 0.7096 0.0
C185 C 0.51203 0.75623 0.67642 0.0
C186 C 0.50168 0.76064 0.63709 0.0
C187 C 0.47277 0.77144 0.63036 0.0
H188 H 0.44941 0.77702 0.72722 0.0
C189 C 0.45403 0.77642 0.66348 0.0
C190 C 0.46418 0.77164 0.7026 0.0
H191 H 0.4316 0.78474 0.65923 0.0
H192 H 0.54757 0.80662 0.87779 0.0
H193 H 0.53304 0.7954 0.80926 0.0
H194 H 0.46986 0.73051 0.85299 0.0
H195 H 0.48472 0.74178 0.92232 0.0
H196 H 0.46616 0.74991 0.78104 0.0
H197 H 0.52988 0.76456 0.75406 0.0
H198 H 0.5348 0.74899 0.68097 0.0
H199 H 0.51664 0.75674 0.61213 0.0
C200 C 0.80507 0.46138 0.68081 0.0
C201 C 0.7931 0.47884 0.64976 0.0
C202 C 0.80285 0.47045 0.7207 0.0
C203 C 0.78858 0.49726 0.73044 0.0
C204 C 0.77671 0.51479 0.69938 0.0
C205 C 0.7787 0.50555 0.65936 0.0
C206 C 0.78783 0.50837 0.77232 0.0
C207 C 0.78817 0.49023 0.80457 0.0
C208 C 0.79119 0.50126 0.84629 0.0
C209 C 0.77978 0.48426 0.87821 0.0
C210 C 0.78366 0.49348 0.91798 0.0
C211 C 0.79953 0.5196 0.92645 0.0
H212 H 0.81702 0.54059 0.83118 0.0
C213 C 0.81116 0.53645 0.89453 0.0
C214 C 0.80704 0.52742 0.85489 0.0
H215 H 0.82358 0.55665 0.90015 0.0
H216 H 0.8164 0.44071 0.67431 0.0
H217 H 0.81313 0.45681 0.74364 0.0
H218 H 0.76594 0.53572 0.70609 0.0
H219 H 0.76936 0.51948 0.63597 0.0
H220 H 0.78686 0.53226 0.77657 0.0
H221 H 0.786 0.4664 0.80046 0.0
H222 H 0.76781 0.46382 0.87237 0.0
H223 H 0.77453 0.48003 0.94204 0.0
C224 C 0.47961 0.76678 0.1387 0.0
C225 C 0.50792 0.75903 0.12422 0.0
C226 C 0.47177 0.76097 0.1786 0.0
C227 C 0.49232 0.74771 0.20516 0.0
C228 C 0.51972 0.73787 0.18976 0.0
C229 C 0.52749 0.74351 0.1497 0.0
C230 C 0.48652 0.74526 0.2492 0.0
C231 C 0.46896 0.76476 0.26876 0.0
C232 C 0.46402 0.76568 0.31302 0.0
C233 C 0.44071 0.78355 0.32714 0.0
C234 C 0.43621 0.78762 0.36815 0.0
C235 C 0.45501 0.77401 0.39645 0.0
H236 H 0.50106 0.73771 0.33184 0.0
C237 C 0.47799 0.75545 0.38271 0.0
C238 C 0.48254 0.75132 0.3413 0.0
H239 H 0.49288 0.74474 0.40386 0.0
H240 H 0.46387 0.77835 0.1196 0.0
H241 H 0.44983 0.76755 0.18863 0.0
H242 H 0.53578 0.72714 0.20927 0.0
H243 H 0.54944 0.73712 0.13934 0.0
H244 H 0.49853 0.72837 0.26587 0.0
H245 H 0.45788 0.78201 0.25154 0.0
H246 H 0.42608 0.79493 0.30627 0.0
H247 H 0.4182 0.80198 0.37762 0.0
C248 C 0.18016 0.48709 0.89683 0.0
C249 C 0.20276 0.49516 0.92384 0.0
C250 C 0.18398 0.49096 0.85562 0.0
C251 C 0.21073 0.50266 0.84022 0.0
C252 C 0.23281 0.5121 0.8673 0.0
C253 C 0.22893 0.50827 0.90883 0.0
C254 C 0.21543 0.50604 0.79617 0.0
C255 C 0.20215 0.48801 0.76927 0.0
C256 C 0.20191 0.49366 0.72537 0.0
C257 C 0.1764 0.48555 0.70366 0.0
C258 C 0.17364 0.49301 0.66315 0.0
C259 C 0.19674 0.50799 0.64321 0.0
H260 H 0.24595 0.5134 0.72074 0.0
C261 C 0.22316 0.51442 0.66408 0.0
C262 C 0.22567 0.50753 0.70505 0.0
H263 H 0.24124 0.52608 0.64931 0.0
H264 H 0.15953 0.47736 0.9075 0.0
H265 H 0.16576 0.48483 0.83602 0.0
H266 H 0.25337 0.52175 0.85627 0.0
H267 H 0.2467 0.51476 0.929 0.0
H268 H 0.22943 0.52422 0.7859 0.0
H269 H 0.18857 0.46963 0.77987 0.0
H270 H 0.15791 0.4746 0.71853 0.0
H271 H 0.15307 0.48777 0.64767 0.0
C272 C 0.53881 0.22254 0.39591 0.0
C273 C 0.51798 0.21677 0.42647 0.0
C274 C 0.5294 0.22997 0.35715 0.0
C275 C 0.49881 0.2314 0.34792 0.0
C276 C 0.47808 0.22762 0.37925 0.0
C277 C 0.48754 0.22035 0.41813 0.0
C278 C 0.4875 0.23496 0.30602 0.0
C279 C 0.50374 0.22854 0.27298 0.0
C280 C 0.49108 0.2262 0.2317 0.0
C281 C 0.51054 0.22676 0.19857 0.0
C282 C 0.50015 0.22064 0.15978 0.0
C283 C 0.47007 0.21348 0.15343 0.0
H284 H 0.44497 0.21869 0.24944 0.0
C285 C 0.45038 0.21396 0.18625 0.0
C286 C 0.46071 0.22018 0.22492 0.0
H287 H 0.42706 0.20847 0.18234 0.0
H288 H 0.56248 0.22043 0.40162 0.0
H289 H 0.54626 0.23398 0.33459 0.0
H290 H 0.45439 0.22895 0.37325 0.0
H291 H 0.47096 0.21616 0.44112 0.0
H292 H 0.4642 0.24086 0.3027 0.0
H293 H 0.52712 0.22296 0.27599 0.0
H294 H 0.53408 0.23111 0.20286 0.0
H295 H 0.51587 0.22036 0.13508 0.0
C296 C 0.92281 0.548 0.06113 0.0
C297 C 0.90004 0.52662 0.05997 0.0
C298 C 0.95266 0.53929 0.06374 0.0
C299 C 0.96027 0.50896 0.0654 0.0
C300 C 0.93741 0.48771 0.06449 0.0
C301 C 0.90763 0.49641 0.06202 0.0
C302 C 0.99166 0.49847 0.06551 0.0
C303 C 0.01479 0.51493 0.07852 0.0
C304 C 0.04636 0.50512 0.07575 0.0
C305 C 0.06879 0.52685 0.07524 0.0
C306 C 0.09865 0.51887 0.07064 0.0
C307 C 0.10676 0.4889 0.06674 0.0
H308 H 0.03822 0.45744 0.07509 0.0
C309 C 0.08452 0.46702 0.06867 0.0
C310 C 0.05461 0.475 0.0733 0.0
H311 H 0.09017 0.44372 0.06624 0.0
H312 H 0.91761 0.57144 0.0593 0.0
H313 H 0.96958 0.55639 0.06313 0.0
H314 H 0.9426 0.46423 0.06541 0.0
H315 H 0.89057 0.47939 0.06108 0.0
H316 H 0.99557 0.47635 0.05388 0.0
H317 H 0.01078 0.53705 0.09019 0.0
H318 H 0.06316 0.55017 0.07749 0.0
H319 H 0.11532 0.53625 0.06951 0.0
C320 C 0.4557 0.90745 0.51351 0.0
C321 C 0.47516 0.8831 0.51511 0.0
C322 C 0.46691 0.93637 0.51207 0.0
C323 C 0.49786 0.94148 0.51216 0.0
C324 C 0.51725 0.91713 0.5145 0.0
C325 C 0.50604 0.8882 0.51564 0.0
C326 C 0.51053 0.97191 0.51174 0.0
C327 C 0.49677 -0.005 0.49389 0.0
C328 C 0.50766 0.02613 0.49582 0.0
C329 C 0.48718 0.04908 0.48876 0.0
C330 C 0.49571 0.07872 0.49269 0.0
C331 C 0.52504 0.08607 0.50348 0.0
H332 H 0.55421 0.01665 0.50926 0.0
C333 C 0.54595 0.06326 0.50889 0.0
C334 C 0.5374 0.03354 0.50499 0.0
H335 H 0.56879 0.06832 0.51685 0.0
H336 H 0.43179 0.90418 0.5134 0.0
H337 H 0.45123 0.9546 0.51174 0.0
H338 H 0.54115 0.92049 0.51512 0.0
H339 H 0.52158 0.86984 0.51711 0.0
H340 H 0.53173 0.97502 0.52677 0.0
H341 H 0.47576 0.99128 0.4785 0.0
H342 H 0.46423 0.04408 0.48124 0.0
H343 H 0.47912 0.09585 0.48809 0.0
C344 C 0.0698 0.54006 0.51795 0.0
C345 C 0.09415 0.52142 0.51021 0.0
C346 C 0.04069 0.52924 0.51498 0.0
C347 C 0.03537 0.49952 0.50402 0.0
C348 C 0.05977 0.48102 0.49593 0.0
C349 C 0.08886 0.49188 0.49872 0.0
C350 C 0.0049 0.4866 0.50358 0.0
C351 C 0.98029 0.50294 0.4967 0.0
C352 C 0.94925 0.49155 0.50024 0.0
C353 C 0.9261 0.5124 0.50241 0.0
C354 C 0.89666 0.50328 0.50766 0.0
C355 C 0.88958 0.47299 0.51069 0.0
H356 H 0.95894 0.44411 0.49964 0.0
C357 C 0.91249 0.45194 0.5075 0.0
C358 C 0.94207 0.46108 0.50222 0.0
H359 H 0.90761 0.42842 0.50935 0.0
H360 H 0.07321 0.56284 0.52722 0.0
H361 H 0.02259 0.54399 0.52277 0.0
H362 H 0.05632 0.458 0.48779 0.0
H363 H 0.10721 0.47693 0.49277 0.0
H364 H 0.00309 0.46303 0.50973 0.0
H365 H 0.98281 0.52634 0.48953 0.0
H366 H 0.93082 0.53597 0.50076 0.0
H367 H 0.87948 0.52007 0.50979 0.0
C368 C 0.49381 0.90044 0.03381 0.0
C369 C 0.52327 0.89032 0.03745 0.0
C370 C 0.48714 0.9305 0.03856 0.0
C371 C 0.50984 0.95108 0.0473 0.0
C372 C 0.53931 0.9409 0.05068 0.0
C373 C 0.54596 0.91081 0.04603 0.0
C374 C 0.50397 0.98342 0.05097 0.0
C375 C 0.47723 -0.00516 0.06102 0.0
C376 C 0.47099 0.02724 0.06218 0.0
C377 C 0.44147 0.03695 0.05742 0.0
C378 C 0.4348 0.06725 0.05629 0.0
C379 C 0.45757 0.08844 0.06018 0.0
H380 H 0.51646 0.04209 0.07303 0.0
C381 C 0.48694 0.07879 0.06647 0.0
C382 C 0.49361 0.04853 0.06767 0.0
H383 H 0.50491 0.09463 0.0701 0.0
H384 H 0.47588 0.88517 0.0269 0.0
H385 H 0.4643 0.93747 0.03432 0.0
H386 H 0.55727 0.95629 0.05699 0.0
H387 H 0.5689 0.90364 0.04887 0.0
H388 H 0.52256 -0.00186 0.04476 0.0
H389 H 0.45869 0.98005 0.06727 0.0
H390 H 0.42356 0.02106 0.0536 0.0
H391 H 0.41192 0.07405 0.05161 0.0
C392 C 0.22505 0.3595 0.02756 0.0
C393 C 0.23763 0.38727 0.0184 0.0
C394 C 0.24132 0.3334 0.02109 0.0
C395 C 0.27042 0.33482 0.0053 0.0
C396 C 0.28232 0.3626 0.99486 0.0
C397 C 0.26624 0.38849 1.00149 0.0
C398 C 0.2898 0.30845 0.99996 0.0
C399 C 0.28616 0.28231 0.01919 0.0
C400 C 0.30976 0.25912 0.01914 0.0
C401 C 0.31215 0.23976 0.0522 0.0
C402 C 0.33686 0.22103 0.05616 0.0
C403 C 0.35962 0.22172 0.02729 0.0
H404 H 0.32953 0.27065 0.96133 0.0
C405 C 0.35623 0.2394 0.9929 0.0
C406 C 0.33129 0.25747 0.98843 0.0
H407 H 0.3732 0.23964 0.96973 0.0
H408 H 0.20289 0.35797 0.04029 0.0
H409 H 0.23102 0.31238 0.02855 0.0
H410 H 0.30455 0.36441 0.98235 0.0
H411 H 0.27644 0.40955 0.99372 0.0
H412 H 0.3099 0.31216 0.98253 0.0
H413 H 0.26741 0.27917 0.03932 0.0
H414 H 0.29567 0.24019 0.07598 0.0
H415 H 0.33898 0.20732 0.08281 0.0
C416 C 0.76834 0.34198 0.54579 0.0
C417 C 0.75571 0.3701 0.55228 0.0
C418 C 0.75165 0.3162 0.55312 0.0
C419 C 0.72212 0.31829 0.56719 0.0
C420 C 0.71 0.34644 0.57453 0.0
C421 C 0.72648 0.37201 0.56696 0.0
C422 C 0.70268 0.29216 0.57427 0.0
C423 C 0.70619 0.26551 0.55658 0.0
C424 C 0.68226 0.24269 0.55798 0.0
C425 C 0.67802 0.22401 0.52473 0.0
C426 C 0.65237 0.20646 0.52177 0.0
C427 C 0.63058 0.20756 0.55199 0.0
H428 H 0.6651 0.25404 0.61715 0.0
C429 C 0.63604 0.22418 0.58677 0.0
C430 C 0.66186 0.2412 0.59007 0.0
H431 H 0.61984 0.22479 0.61091 0.0
H432 H 0.79095 0.33992 0.5348 0.0
H433 H 0.762 0.29487 0.54799 0.0
H434 H 0.6874 0.34875 0.58555 0.0
H435 H 0.71619 0.39334 0.57262 0.0
H436 H 0.68258 0.29635 0.59149 0.0
H437 H 0.72478 0.26182 0.53635 0.0
H438 H 0.69362 0.22436 0.49988 0.0
H439 H 0.64869 0.1936 0.49476 0.0
C440 C 0.77918 0.65808 0.03963 0.0
C441 C 0.76944 0.63129 0.02254 0.0
C442 C 0.76322 0.68437 0.03292 0.0
C443 C 0.73756 0.68414 0.00858 0.0
C444 C 0.72877 0.65754 0.99028 0.0
C445 C 0.74432 0.63137 0.99749 0.0
C446 C 0.71852 0.71058 0.00231 0.0
C447 C 0.71445 0.7318 0.03021 0.0
C448 C 0.6888 0.75256 0.02789 0.0
C449 C 0.67463 0.76126 0.06359 0.0
C450 C 0.64689 0.77536 0.06234 0.0
C451 C 0.63296 0.78089 0.0253 0.0
H452 H 0.68716 0.75596 0.96273 0.0
C453 C 0.64838 0.77473 0.98961 0.0
C454 C 0.67622 0.76103 0.99086 0.0
H455 H 0.6384 0.77942 0.96064 0.0
H456 H 0.79865 0.65858 0.05884 0.0
H457 H 0.77094 0.70468 0.04677 0.0
H458 H 0.7092 0.65678 0.97123 0.0
H459 H 0.73651 0.61109 0.98353 0.0
H460 H 0.70402 0.70998 0.9762 0.0
H461 H 0.72692 0.73086 0.05816 0.0
H462 H 0.68404 0.75538 0.09251 0.0
H463 H 0.63555 0.78013 0.09031 0.0
C464 C 0.3521 0.73756 0.55185 0.0
C465 C 0.35595 0.76504 0.53268 0.0
C466 C 0.32365 0.72606 0.5579 0.0
C467 C 0.29839 0.74166 0.54448 0.0
C468 C 0.30219 0.76907 0.52501 0.0
C469 C 0.33078 0.78096 0.51974 0.0
C470 C 0.26855 0.72775 0.54712 0.0
C471 C 0.26072 0.7114 0.57935 0.0
C472 C 0.23797 0.68746 0.57826 0.0
C473 C 0.24101 0.66413 0.60598 0.0
C474 C 0.22523 0.63778 0.60092 0.0
C475 C 0.20564 0.63441 0.56844 0.0
H476 H 0.21245 0.70299 0.5267 0.0
C477 C 0.20008 0.65875 0.54312 0.0
C478 C 0.21621 0.68515 0.54788 0.0
H479 H 0.18484 0.65674 0.51804 0.0
H480 H 0.37113 0.72484 0.5621 0.0
H481 H 0.32153 0.70441 0.57186 0.0
H482 H 0.28306 0.78119 0.51382 0.0
H483 H 0.33326 0.80216 0.50468 0.0
H484 H 0.25478 0.72844 0.52038 0.0
H485 H 0.27499 0.71221 0.60575 0.0
H486 H 0.25729 0.66538 0.62997 0.0
H487 H 0.22961 0.61944 0.62122 0.0
loop_
_geom_bond_atom_site_label_1
_geom_bond_atom_site_label_2
_geom_bond_distance
_geom_bond_site_symmetry_2
_ccdc_geom_bond_type
In0 O1 2.294 . S
In0 O2 2.326 . S
In0 O6 2.266 1_554 S
In0 O7 2.326 1_554 S
In0 O8 2.266 . S
In0 O9 2.326 . S
In0 O11 2.294 . S
In0 O12 2.326 . S
O1 In0 2.294 . S
O1 C10 1.240 . S
O2 In0 2.326 . S
O2 C10 1.252 . S
C3 O6 1.252 . S
C3 O7 1.260 . S
C4 O11 1.240 . S
C4 O12 1.252 . S
C5 O8 1.252 . S
C5 O9 1.260 . S
O6 In0 2.266 1_556 S
O6 C3 1.252 . S
O7 In0 2.326 1_556 S
O7 C3 1.260 . S
O8 In0 2.266 . S
O8 C5 1.252 . S
O9 In0 2.326 . S
O9 C5 1.260 . S
C10 O1 1.240 . S
C10 O2 1.252 . S
O11 In0 2.294 . S
O11 C4 1.240 . S
O12 In0 2.326 . S
O12 C4 1.252 . S
In13 O14 2.294 . S
In13 O15 2.326 . S
In13 O19 2.266 . S
In13 O20 2.326 . S
In13 O21 2.266 . S
In13 O22 2.326 . S
In13 O24 2.294 . S
In13 O25 2.326 . S
O14 In13 2.294 . S
O14 C23 1.240 . S
O15 In13 2.326 . S
O15 C23 1.252 . S
C16 O19 1.252 . S
C16 O20 1.260 . S
C17 O24 1.240 . S
C17 O25 1.252 . S
C18 O21 1.252 . S
C18 O22 1.260 . S
O19 In13 2.266 . S
O19 C16 1.252 . S
O20 In13 2.326 . S
O20 C16 1.260 . S
O21 In13 2.266 . S
O21 C18 1.252 . S
O22 In13 2.326 . S
O22 C18 1.260 . S
C23 O14 1.240 . S
C23 O15 1.252 . S
O24 In13 2.294 . S
O24 C17 1.240 . S
O25 In13 2.326 . S
O25 C17 1.252 . S
In26 O27 2.294 . S
In26 O28 2.326 . S
In26 O32 2.266 1_554 S
In26 O33 2.326 1_554 S
In26 O34 2.266 . S
In26 O35 2.326 . S
In26 O37 2.294 . S
In26 O38 2.326 . S
O27 In26 2.294 . S
O27 C36 1.240 . S
O28 In26 2.326 . S
O28 C36 1.252 . S
C29 O32 1.252 . S
C29 O33 1.260 . S
C30 O37 1.240 . S
C30 O38 1.252 . S
C31 O34 1.252 . S
C31 O35 1.260 . S
O32 In26 2.266 1_556 S
O32 C29 1.252 . S
O33 In26 2.326 1_556 S
O33 C29 1.260 . S
O34 In26 2.266 . S
O34 C31 1.252 . S
O35 In26 2.326 . S
O35 C31 1.260 . S
C36 O27 1.240 . S
C36 O28 1.252 . S
O37 In26 2.294 . S
O37 C30 1.240 . S
O38 In26 2.326 . S
O38 C30 1.252 . S
In39 O40 2.294 . S
In39 O41 2.326 . S
In39 O45 2.266 . S
In39 O46 2.326 . S
In39 O47 2.266 . S
In39 O48 2.326 . S
In39 O50 2.294 . S
In39 O51 2.326 . S
O40 In39 2.294 . S
O40 C49 1.240 . S
O41 In39 2.326 . S
O41 C49 1.252 . S
C42 O45 1.252 . S
C42 O46 1.260 . S
C43 O50 1.240 . S
C43 O51 1.252 . S
C44 O47 1.252 . S
C44 O48 1.260 . S
O45 In39 2.266 . S
O45 C42 1.252 . S
O46 In39 2.326 . S
O46 C42 1.260 . S
O47 In39 2.266 . S
O47 C44 1.252 . S
O48 In39 2.326 . S
O48 C44 1.260 . S
C49 O40 1.240 . S
C49 O41 1.252 . S
O50 In39 2.294 . S
O50 C43 1.240 . S
O51 In39 2.326 . S
O51 C43 1.252 . S
In52 O53 2.294 . S
In52 O54 2.326 . S
In52 O58 2.266 . S
In52 O59 2.326 . S
In52 O60 2.266 . S
In52 O61 2.326 . S
In52 O63 2.294 . S
In52 O64 2.326 . S
O53 In52 2.294 . S
O53 C62 1.240 . S
O54 In52 2.326 . S
O54 C62 1.252 . S
C55 O58 1.252 . S
C55 O59 1.260 . S
C56 O63 1.240 . S
C56 O64 1.252 . S
C57 O60 1.252 . S
C57 O61 1.260 . S
O58 In52 2.266 . S
O58 C55 1.252 . S
O59 In52 2.326 . S
O59 C55 1.260 . S
O60 In52 2.266 . S
O60 C57 1.252 . S
O61 In52 2.326 . S
O61 C57 1.260 . S
C62 O53 1.240 . S
C62 O54 1.252 . S
O63 In52 2.294 . S
O63 C56 1.240 . S
O64 In52 2.326 . S
O64 C56 1.252 . S
In65 O66 2.294 . S
In65 O67 2.326 . S
In65 O71 2.266 . S
In65 O72 2.326 . S
In65 O73 2.266 . S
In65 O74 2.326 . S
In65 O76 2.294 1_554 S
In65 O77 2.326 1_554 S
O66 In65 2.294 . S
O66 C75 1.240 . S
O67 In65 2.326 . S
O67 C75 1.252 . S
C68 O71 1.252 . S
C68 O72 1.260 . S
C69 O76 1.240 . S
C69 O77 1.252 . S
C70 O73 1.252 . S
C70 O74 1.260 . S
O71 In65 2.266 . S
O71 C68 1.252 . S
O72 In65 2.326 . S
O72 C68 1.260 . S
O73 In65 2.266 . S
O73 C70 1.252 . S
O74 In65 2.326 . S
O74 C70 1.260 . S
C75 O66 1.240 . S
C75 O67 1.252 . S
O76 In65 2.294 1_556 S
O76 C69 1.240 . S
O77 In65 2.326 1_556 S
O77 C69 1.252 . S
In78 O79 2.294 . S
In78 O80 2.326 . S
In78 O84 2.266 . S
In78 O85 2.326 . S
In78 O86 2.266 . S
In78 O87 2.326 . S
In78 O89 2.294 . S
In78 O90 2.326 . S
O79 In78 2.294 . S
O79 C88 1.240 . S
O80 In78 2.326 . S
O80 C88 1.252 . S
C81 O84 1.252 . S
C81 O85 1.260 . S
C82 O89 1.240 . S
C82 O90 1.252 . S
C83 O86 1.252 . S
C83 O87 1.260 . S
O84 In78 2.266 . S
O84 C81 1.252 . S
O85 In78 2.326 . S
O85 C81 1.260 . S
O86 In78 2.266 . S
O86 C83 1.252 . S
O87 In78 2.326 . S
O87 C83 1.260 . S
C88 O79 1.240 . S
C88 O80 1.252 . S
O89 In78 2.294 . S
O89 C82 1.240 . S
O90 In78 2.326 . S
O90 C82 1.252 . S
In91 O92 2.294 . S
In91 O93 2.326 . S
In91 O97 2.266 . S
In91 O98 2.326 . S
In91 O99 2.266 . S
In91 O100 2.326 . S
In91 O102 2.294 1_554 S
In91 O103 2.326 1_554 S
O92 In91 2.294 . S
O92 C101 1.240 . S
O93 In91 2.326 . S
O93 C101 1.252 . S
C94 O97 1.252 . S
C94 O98 1.260 . S
C95 O102 1.240 . S
C95 O103 1.252 . S
C96 O99 1.252 . S
C96 O100 1.260 . S
O97 In91 2.266 . S
O97 C94 1.252 . S
O98 In91 2.326 . S
O98 C94 1.260 . S
O99 In91 2.266 . S
O99 C96 1.252 . S
O100 In91 2.326 . S
O100 C96 1.260 . S
C101 O92 1.240 . S
C101 O93 1.252 . S
O102 In91 2.294 1_556 S
O102 C95 1.240 . S
O103 In91 2.326 1_556 S
O103 C95 1.252 . S
C104 C105 1.386 . S
C104 C106 1.383 . S
C104 H120 0.951 . S
C105 C104 1.386 . S
C105 C109 1.383 . S
C106 C104 1.383 . S
C106 C107 1.402 . S
C106 H121 0.951 . S
C107 C106 1.402 . S
C107 C108 1.375 . S
C107 C110 1.481 . S
C108 C107 1.375 . S
C108 C109 1.367 . S
C108 H122 0.951 . S
C109 C105 1.383 . S
C109 C108 1.367 . S
C109 H123 0.950 . S
C110 C107 1.481 . S
C110 C111 1.297 . S
C110 H124 0.950 . S
C111 C110 1.297 . S
C111 C112 1.479 . S
C111 H125 0.950 . S
C112 C111 1.479 . S
C112 C113 1.375 . S
C112 C118 1.404 . S
C113 C112 1.375 . S
C113 C114 1.369 . S
C113 H126 0.950 . S
C114 C113 1.369 . S
C114 C115 1.392 . S
C114 H127 0.951 . S
C115 C114 1.392 . S
C115 C117 1.384 . S
H116 C118 0.949 . S
C117 C115 1.384 . S
C117 C118 1.385 . S
C117 H119 0.950 . S
C118 C112 1.404 . S
C118 H116 0.949 . S
C118 C117 1.385 . S
H119 C117 0.950 . S
H120 C104 0.951 . S
H121 C106 0.951 . S
H122 C108 0.951 . S
H123 C109 0.950 . S
H124 C110 0.950 . S
H125 C111 0.950 . S
H126 C113 0.950 . S
H127 C114 0.951 . S
C128 C129 1.386 . S
C128 C130 1.383 . S
C128 H144 0.951 . S
C129 C128 1.386 . S
C129 C133 1.383 . S
C130 C128 1.383 . S
C130 C131 1.402 . S
C130 H145 0.951 . S
C131 C130 1.402 . S
C131 C132 1.375 . S
C131 C134 1.481 . S
C132 C131 1.375 . S
C132 C133 1.367 . S
C132 H146 0.951 . S
C133 C129 1.383 . S
C133 C132 1.367 . S
C133 H147 0.950 . S
C134 C131 1.481 . S
C134 C135 1.297 . S
C134 H148 0.950 . S
C135 C134 1.297 . S
C135 C136 1.479 . S
C135 H149 0.950 . S
C136 C135 1.479 . S
C136 C137 1.375 . S
C136 C142 1.404 . S
C137 C136 1.375 . S
C137 C138 1.369 . S
C137 H150 0.950 . S
C138 C137 1.369 . S
C138 C139 1.392 . S
C138 H151 0.951 . S
C139 C138 1.392 . S
C139 C141 1.384 . S
H140 C142 0.949 . S
C141 C139 1.384 . S
C141 C142 1.385 . S
C141 H143 0.950 . S
C142 C136 1.404 . S
C142 H140 0.949 . S
C142 C141 1.385 . S
H143 C141 0.950 . S
H144 C128 0.951 . S
H145 C130 0.951 . S
H146 C132 0.951 . S
H147 C133 0.950 . S
H148 C134 0.950 . S
H149 C135 0.950 . S
H150 C137 0.950 . S
H151 C138 0.951 . S
C152 C153 1.386 . S
C152 C154 1.383 . S
C152 H168 0.951 . S
C153 C152 1.386 . S
C153 C157 1.383 . S
C154 C152 1.383 . S
C154 C155 1.402 . S
C154 H169 0.951 . S
C155 C154 1.402 . S
C155 C156 1.375 . S
C155 C158 1.481 . S
C156 C155 1.375 . S
C156 C157 1.367 . S
C156 H170 0.951 . S
C157 C153 1.383 . S
C157 C156 1.367 . S
C157 H171 0.950 . S
C158 C155 1.481 . S
C158 C159 1.297 . S
C158 H172 0.950 . S
C159 C158 1.297 . S
C159 C160 1.479 . S
C159 H173 0.950 . S
C160 C159 1.479 . S
C160 C161 1.375 . S
C160 C166 1.404 . S
C161 C160 1.375 . S
C161 C162 1.369 . S
C161 H174 0.950 . S
C162 C161 1.369 . S
C162 C163 1.392 . S
C162 H175 0.951 . S
C163 C162 1.392 . S
C163 C165 1.384 . S
H164 C166 0.949 . S
C165 C163 1.384 . S
C165 C166 1.385 . S
C165 H167 0.950 . S
C166 C160 1.404 . S
C166 H164 0.949 . S
C166 C165 1.385 . S
H167 C165 0.950 . S
H168 C152 0.951 . S
H169 C154 0.951 . S
H170 C156 0.951 . S
H171 C157 0.950 . S
H172 C158 0.950 . S
H173 C159 0.950 . S
H174 C161 0.950 . S
H175 C162 0.951 . S
C176 C177 1.386 . S
C176 C178 1.383 . S
C176 H192 0.951 . S
C177 C176 1.386 . S
C177 C181 1.383 . S
C178 C176 1.383 . S
C178 C179 1.402 . S
C178 H193 0.951 . S
C179 C178 1.402 . S
C179 C180 1.375 . S
C179 C182 1.481 . S
C180 C179 1.375 . S
C180 C181 1.367 . S
C180 H194 0.951 . S
C181 C177 1.383 . S
C181 C180 1.367 . S
C181 H195 0.950 . S
C182 C179 1.481 . S
C182 C183 1.297 . S
C182 H196 0.950 . S
C183 C182 1.297 . S
C183 C184 1.479 . S
C183 H197 0.950 . S
C184 C183 1.479 . S
C184 C185 1.375 . S
C184 C190 1.404 . S
C185 C184 1.375 . S
C185 C186 1.369 . S
C185 H198 0.950 . S
C186 C185 1.369 . S
C186 C187 1.392 . S
C186 H199 0.951 . S
C187 C186 1.392 . S
C187 C189 1.384 . S
H188 C190 0.949 . S
C189 C187 1.384 . S
C189 C190 1.385 . S
C189 H191 0.950 . S
C190 C184 1.404 . S
C190 H188 0.949 . S
C190 C189 1.385 . S
H191 C189 0.950 . S
H192 C176 0.951 . S
H193 C178 0.951 . S
H194 C180 0.951 . S
H195 C181 0.950 . S
H196 C182 0.950 . S
H197 C183 0.950 . S
H198 C185 0.950 . S
H199 C186 0.951 . S
C200 C201 1.386 . S
C200 C202 1.383 . S
C200 H216 0.951 . S
C201 C200 1.386 . S
C201 C205 1.383 . S
C202 C200 1.383 . S
C202 C203 1.402 . S
C202 H217 0.951 . S
C203 C202 1.402 . S
C203 C204 1.375 . S
C203 C206 1.481 . S
C204 C203 1.375 . S
C204 C205 1.367 . S
C204 H218 0.951 . S
C205 C201 1.383 . S
C205 C204 1.367 . S
C205 H219 0.950 . S
C206 C203 1.481 . S
C206 C207 1.297 . S
C206 H220 0.950 . S
C207 C206 1.297 . S
C207 C208 1.479 . S
C207 H221 0.950 . S
C208 C207 1.479 . S
C208 C209 1.375 . S
C208 C214 1.404 . S
C209 C208 1.375 . S
C209 C210 1.369 . S
C209 H222 0.950 . S
C210 C209 1.369 . S
C210 C211 1.392 . S
C210 H223 0.951 . S
C211 C210 1.392 . S
C211 C213 1.384 . S
H212 C214 0.949 . S
C213 C211 1.384 . S
C213 C214 1.385 . S
C213 H215 0.950 . S
C214 C208 1.404 . S
C214 H212 0.949 . S
C214 C213 1.385 . S
H215 C213 0.950 . S
H216 C200 0.951 . S
H217 C202 0.951 . S
H218 C204 0.951 . S
H219 C205 0.950 . S
H220 C206 0.950 . S
H221 C207 0.950 . S
H222 C209 0.950 . S
H223 C210 0.951 . S
C224 C225 1.386 . S
C224 C226 1.383 . S
C224 H240 0.951 . S
C225 C224 1.386 . S
C225 C229 1.383 . S
C226 C224 1.383 . S
C226 C227 1.402 . S
C226 H241 0.951 . S
C227 C226 1.402 . S
C227 C228 1.375 . S
C227 C230 1.481 . S
C228 C227 1.375 . S
C228 C229 1.367 . S
C228 H242 0.951 . S
C229 C225 1.383 . S
C229 C228 1.367 . S
C229 H243 0.950 . S
C230 C227 1.481 . S
C230 C231 1.297 . S
C230 H244 0.950 . S
C231 C230 1.297 . S
C231 C232 1.479 . S
C231 H245 0.950 . S
C232 C231 1.479 . S
C232 C233 1.375 . S
C232 C238 1.404 . S
C233 C232 1.375 . S
C233 C234 1.369 . S
C233 H246 0.950 . S
C234 C233 1.369 . S
C234 C235 1.392 . S
C234 H247 0.951 . S
C235 C234 1.392 . S
C235 C237 1.384 . S
H236 C238 0.949 . S
C237 C235 1.384 . S
C237 C238 1.385 . S
C237 H239 0.950 . S
C238 C232 1.404 . S
C238 H236 0.949 . S
C238 C237 1.385 . S
H239 C237 0.950 . S
H240 C224 0.951 . S
H241 C226 0.951 . S
H242 C228 0.951 . S
H243 C229 0.950 . S
H244 C230 0.950 . S
H245 C231 0.950 . S
H246 C233 0.950 . S
H247 C234 0.951 . S
C248 C249 1.386 . S
C248 C250 1.383 . S
C248 H264 0.951 . S
C249 C248 1.386 . S
C249 C253 1.383 . S
C250 C248 1.383 . S
C250 C251 1.402 . S
C250 H265 0.951 . S
C251 C250 1.402 . S
C251 C252 1.375 . S
C251 C254 1.481 . S
C252 C251 1.375 . S
C252 C253 1.367 . S
C252 H266 0.951 . S
C253 C249 1.383 . S
C253 C252 1.367 . S
C253 H267 0.950 . S
C254 C251 1.481 . S
C254 C255 1.297 . S
C254 H268 0.950 . S
C255 C254 1.297 . S
C255 C256 1.479 . S
C255 H269 0.950 . S
C256 C255 1.479 . S
C256 C257 1.375 . S
C256 C262 1.404 . S
C257 C256 1.375 . S
C257 C258 1.369 . S
C257 H270 0.950 . S
C258 C257 1.369 . S
C258 C259 1.392 . S
C258 H271 0.951 . S
C259 C258 1.392 . S
C259 C261 1.384 . S
H260 C262 0.949 . S
C261 C259 1.384 . S
C261 C262 1.385 . S
C261 H263 0.950 . S
C262 C256 1.404 . S
C262 H260 0.949 . S
C262 C261 1.385 . S
H263 C261 0.950 . S
H264 C248 0.951 . S
H265 C250 0.951 . S
H266 C252 0.951 . S
H267 C253 0.950 . S
H268 C254 0.950 . S
H269 C255 0.950 . S
H270 C257 0.950 . S
H271 C258 0.951 . S
C272 C273 1.386 . S
C272 C274 1.383 . S
C272 H288 0.951 . S
C273 C272 1.386 . S
C273 C277 1.383 . S
C274 C272 1.383 . S
C274 C275 1.402 . S
C274 H289 0.951 . S
C275 C274 1.402 . S
C275 C276 1.375 . S
C275 C278 1.481 . S
C276 C275 1.375 . S
C276 C277 1.367 . S
C276 H290 0.951 . S
C277 C273 1.383 . S
C277 C276 1.367 . S
C277 H291 0.950 . S
C278 C275 1.481 . S
C278 C279 1.297 . S
C278 H292 0.950 . S
C279 C278 1.297 . S
C279 C280 1.479 . S
C279 H293 0.950 . S
C280 C279 1.479 . S
C280 C281 1.375 . S
C280 C286 1.404 . S
C281 C280 1.375 . S
C281 C282 1.369 . S
C281 H294 0.950 . S
C282 C281 1.369 . S
C282 C283 1.392 . S
C282 H295 0.951 . S
C283 C282 1.392 . S
C283 C285 1.384 . S
H284 C286 0.949 . S
C285 C283 1.384 . S
C285 C286 1.385 . S
C285 H287 0.950 . S
C286 C280 1.404 . S
C286 H284 0.949 . S
C286 C285 1.385 . S
H287 C285 0.950 . S
H288 C272 0.951 . S
H289 C274 0.951 . S
H290 C276 0.951 . S
H291 C277 0.950 . S
H292 C278 0.950 . S
H293 C279 0.950 . S
H294 C281 0.950 . S
H295 C282 0.951 . S
C296 C297 1.386 1_556 S
C296 C298 1.386 . S
C296 H312 0.951 . S
C297 C296 1.386 1_554 S
C297 C301 1.383 . S
C298 C296 1.386 . S
C298 C299 1.386 1_556 S
C298 H313 0.963 . S
C299 C298 1.386 1_554 S
C299 C300 1.375 . S
C299 C302 1.481 . S
C300 C299 1.375 . S
C300 C301 1.367 . S
C300 H314 0.951 . S
C301 C297 1.383 . S
C301 C300 1.367 . S
C301 H315 0.950 . S
C302 C299 1.481 . S
C302 C303 1.297 1_655 S
C302 H316 0.950 . S
C303 C302 1.297 1_455 S
C303 C304 1.479 . S
C303 H317 0.950 . S
C304 C303 1.479 . S
C304 C305 1.375 1_554 S
C304 C310 1.404 . S
C305 C304 1.375 1_556 S
C305 C306 1.369 . S
C305 H318 0.950 . S
C306 C305 1.369 . S
C306 C307 1.392 1_556 S
C306 H319 0.951 . S
C307 C306 1.392 1_554 S
C307 C309 1.384 . S
H308 C310 0.949 . S
C309 C307 1.384 . S
C309 C310 1.385 . S
C309 H311 0.950 . S
C310 C304 1.404 . S
C310 H308 0.949 . S
C310 C309 1.385 . S
H311 C309 0.950 . S
H312 C296 0.951 . S
H313 C298 0.963 . S
H314 C300 0.951 . S
H315 C301 0.950 . S
H316 C302 0.950 . S
H317 C303 0.950 . S
H318 C305 0.950 . S
H319 C306 0.951 . S
C320 C321 1.386 . S
C320 C322 1.383 . S
C320 H336 0.951 . S
C321 C320 1.386 . S
C321 C325 1.383 . S
C322 C320 1.383 . S
C322 C323 1.402 . S
C322 H337 0.951 . S
C323 C322 1.402 . S
C323 C324 1.375 . S
C323 C326 1.481 . S
C324 C323 1.375 . S
C324 C325 1.367 . S
C324 H338 0.951 . S
C325 C321 1.383 . S
C325 C324 1.367 . S
C325 H339 0.950 . S
C326 C323 1.481 . S
C326 C327 1.297 1_565 S
C326 H340 0.950 . S
C327 C326 1.297 1_545 S
C327 C328 1.479 . S
C327 H341 0.950 . S
C328 C327 1.479 . S
C328 C329 1.375 . S
C328 C334 1.404 . S
C329 C328 1.375 . S
C329 C330 1.369 . S
C329 H342 0.950 . S
C330 C329 1.369 . S
C330 C331 1.392 . S
C330 H343 0.951 . S
C331 C330 1.392 . S
C331 C333 1.384 . S
H332 C334 0.949 . S
C333 C331 1.384 . S
C333 C334 1.385 . S
C333 H335 0.950 . S
C334 C328 1.404 . S
C334 H332 0.949 . S
C334 C333 1.385 . S
H335 C333 0.950 . S
H336 C320 0.951 . S
H337 C322 0.951 . S
H338 C324 0.951 . S
H339 C325 0.950 . S
H340 C326 0.950 . S
H341 C327 0.950 . S
H342 C329 0.950 . S
H343 C330 0.951 . S
C344 C345 1.386 . S
C344 C346 1.383 . S
C344 H360 0.951 . S
C345 C344 1.386 . S
C345 C349 1.383 . S
C346 C344 1.383 . S
C346 C347 1.402 . S
C346 H361 0.951 . S
C347 C346 1.402 . S
C347 C348 1.375 . S
C347 C350 1.481 . S
C348 C347 1.375 . S
C348 C349 1.367 . S
C348 H362 0.951 . S
C349 C345 1.383 . S
C349 C348 1.367 . S
C349 H363 0.950 . S
C350 C347 1.481 . S
C350 C351 1.297 1_455 S
C350 H364 0.950 . S
C351 C350 1.297 1_655 S
C351 C352 1.479 . S
C351 H365 0.950 . S
C352 C351 1.479 . S
C352 C353 1.375 . S
C352 C358 1.404 . S
C353 C352 1.375 . S
C353 C354 1.369 . S
C353 H366 0.950 . S
C354 C353 1.369 . S
C354 C355 1.392 . S
C354 H367 0.951 . S
C355 C354 1.392 . S
C355 C357 1.384 . S
H356 C358 0.949 . S
C357 C355 1.384 . S
C357 C358 1.385 . S
C357 H359 0.950 . S
C358 C352 1.404 . S
C358 H356 0.949 . S
C358 C357 1.385 . S
H359 C357 0.950 . S
H360 C344 0.951 . S
H361 C346 0.951 . S
H362 C348 0.951 . S
H363 C349 0.950 . S
H364 C350 0.950 . S
H365 C351 0.950 . S
H366 C353 0.950 . S
H367 C354 0.951 . S
C368 C369 1.386 . S
C368 C370 1.383 . S
C368 H384 0.951 . S
C369 C368 1.386 . S
C369 C373 1.383 . S
C370 C368 1.383 . S
C370 C371 1.402 . S
C370 H385 0.951 . S
C371 C370 1.402 . S
C371 C372 1.375 . S
C371 C374 1.481 . S
C372 C371 1.375 . S
C372 C373 1.367 . S
C372 H386 0.951 . S
C373 C369 1.383 . S
C373 C372 1.367 . S
C373 H387 0.950 . S
C374 C371 1.481 . S
C374 C375 1.297 1_565 S
C374 H388 0.953 . S
C375 C374 1.297 1_545 S
C375 C376 1.479 . S
C375 H389 0.950 1_545 S
C376 C375 1.479 . S
C376 C377 1.375 . S
C376 C382 1.404 . S
C377 C376 1.375 . S
C377 C378 1.369 . S
C377 H390 0.950 . S
C378 C377 1.369 . S
C378 C379 1.392 . S
C378 H391 0.951 . S
C379 C378 1.392 . S
C379 C381 1.384 . S
H380 C382 0.949 . S
C381 C379 1.384 . S
C381 C382 1.385 . S
C381 H383 0.950 . S
C382 C376 1.404 . S
C382 H380 0.949 . S
C382 C381 1.385 . S
H383 C381 0.950 . S
H384 C368 0.951 . S
H385 C370 0.951 . S
H386 C372 0.951 . S
H387 C373 0.950 . S
H388 C374 0.953 . S
H389 C375 0.950 1_565 S
H390 C377 0.950 . S
H391 C378 0.951 . S
C392 C393 1.386 . S
C392 C394 1.383 . S
C392 H408 0.951 . S
C393 C392 1.386 . S
C393 C397 1.383 . S
C394 C392 1.383 . S
C394 C395 1.402 . S
C394 H409 0.951 . S
C395 C394 1.402 . S
C395 C396 1.375 1_554 S
C395 C398 1.481 . S
C396 C395 1.375 1_556 S
C396 C397 1.367 1_556 S
C396 H410 0.951 . S
C397 C393 1.383 . S
C397 C396 1.367 1_554 S
C397 H411 0.950 1_554 S
C398 C395 1.481 . S
C398 C399 1.297 . S
C398 H412 0.950 1_554 S
C399 C398 1.297 . S
C399 C400 1.479 . S
C399 H413 0.950 . S
C400 C399 1.479 . S
C400 C401 1.375 . S
C400 C406 1.404 1_554 S
C401 C400 1.375 . S
C401 C402 1.369 . S
C401 H414 0.950 . S
C402 C401 1.369 . S
C402 C403 1.392 . S
C402 H415 0.951 . S
C403 C402 1.392 . S
C403 C405 1.402 . S
H404 C406 0.949 . S
C405 C403 1.402 . S
C405 C406 1.383 1_554 S
C405 H407 0.935 1_554 S
C406 C400 1.404 1_556 S
C406 H404 0.949 . S
C406 C405 1.383 1_556 S
H407 C405 0.935 1_556 S
H408 C392 0.951 . S
H409 C394 0.951 . S
H410 C396 0.951 . S
H411 C397 0.950 1_556 S
H412 C398 0.950 1_556 S
H413 C399 0.950 . S
H414 C401 0.950 . S
H415 C402 0.951 . S
C416 C417 1.386 . S
C416 C418 1.383 . S
C416 H432 0.951 . S
C417 C416 1.386 . S
C417 C421 1.383 . S
C418 C416 1.383 . S
C418 C419 1.402 . S
C418 H433 0.951 . S
C419 C418 1.402 . S
C419 C420 1.375 . S
C419 C422 1.481 . S
C420 C419 1.375 . S
C420 C421 1.367 . S
C420 H434 0.951 . S
C421 C417 1.383 . S
C421 C420 1.367 . S
C421 H435 0.950 . S
C422 C419 1.481 . S
C422 C423 1.297 . S
C422 H436 0.950 . S
C423 C422 1.297 . S
C423 C424 1.479 . S
C423 H437 0.950 . S
C424 C423 1.479 . S
C424 C425 1.375 . S
C424 C430 1.404 . S
C425 C424 1.375 . S
C425 C426 1.369 . S
C425 H438 0.950 . S
C426 C425 1.369 . S
C426 C427 1.392 . S
C426 H439 0.951 . S
C427 C426 1.392 . S
C427 C429 1.384 . S
H428 C430 0.949 . S
C429 C427 1.384 . S
C429 C430 1.385 . S
C429 H431 0.950 . S
C430 C424 1.404 . S
C430 H428 0.949 . S
C430 C429 1.385 . S
H431 C429 0.950 . S
H432 C416 0.951 . S
H433 C418 0.951 . S
H434 C420 0.951 . S
H435 C421 0.950 . S
H436 C422 0.950 . S
H437 C423 0.950 . S
H438 C425 0.950 . S
H439 C426 0.951 . S
C440 C441 1.386 . S
C440 C442 1.383 . S
C440 H456 0.951 . S
C441 C440 1.386 . S
C441 C445 1.383 1_554 S
C442 C440 1.383 . S
C442 C443 1.402 . S
C442 H457 0.951 . S
C443 C442 1.402 . S
C443 C444 1.375 1_554 S
C443 C446 1.481 . S
C444 C443 1.375 1_556 S
C444 C445 1.367 . S
C444 H458 0.951 . S
C445 C441 1.383 1_556 S
C445 C444 1.367 . S
C445 H459 0.950 . S
C446 C443 1.481 . S
C446 C447 1.297 . S
C446 H460 0.950 1_554 S
C447 C446 1.297 . S
C447 C448 1.479 . S
C447 H461 0.950 . S
C448 C447 1.479 . S
C448 C449 1.375 . S
C448 C454 1.404 1_554 S
C449 C448 1.375 . S
C449 C450 1.369 . S
C449 H462 0.950 . S
C450 C449 1.369 . S
C450 C451 1.392 . S
C450 H463 0.951 . S
C451 C450 1.392 . S
C451 C453 1.384 1_554 S
H452 C454 0.949 . S
C453 C451 1.384 1_556 S
C453 C454 1.385 . S
C453 H455 0.950 . S
C454 C448 1.404 1_556 S
C454 H452 0.949 . S
C454 C453 1.385 . S
H455 C453 0.950 . S
H456 C440 0.951 . S
H457 C442 0.951 . S
H458 C444 0.951 . S
H459 C445 0.950 . S
H460 C446 0.950 1_556 S
H461 C447 0.950 . S
H462 C449 0.950 . S
H463 C450 0.951 . S
C464 C465 1.386 . S
C464 C466 1.383 . S
C464 H480 0.951 . S
C465 C464 1.386 . S
C465 C469 1.383 . S
C466 C464 1.383 . S
C466 C467 1.402 . S
C466 H481 0.951 . S
C467 C466 1.402 . S
C467 C468 1.375 . S
C467 C470 1.481 . S
C468 C467 1.375 . S
C468 C469 1.367 . S
C468 H482 0.951 . S
C469 C465 1.383 . S
C469 C468 1.367 . S
C469 H483 0.950 . S
C470 C467 1.481 . S
C470 C471 1.297 . S
C470 H484 0.950 . S
C471 C470 1.297 . S
C471 C472 1.479 . S
C471 H485 0.950 . S
C472 C471 1.479 . S
C472 C473 1.375 . S
C472 C478 1.404 . S
C473 C472 1.375 . S
C473 C474 1.369 . S
C473 H486 0.950 . S
C474 C473 1.369 . S
C474 C475 1.392 . S
C474 H487 0.951 . S
C475 C474 1.392 . S
C475 C477 1.384 . S
H476 C478 0.949 . S
C477 C475 1.384 . S
C477 C478 1.385 . S
C477 H479 0.950 . S
C478 C472 1.404 . S
C478 H476 0.949 . S
C478 C477 1.385 . S
H479 C477 0.950 . S
H480 C464 0.951 . S
H481 C466 0.951 . S
H482 C468 0.951 . S
H483 C469 0.950 . S
H484 C470 0.950 . S
H485 C471 0.950 . S
H486 C473 0.950 . S
H487 C474 0.951 . S
C105 C10 1.604 . S
C115 C62 1.611 . S
C129 C17 1.624 . S
C139 C69 1.596 . S
C153 C88 1.629 . S
C163 C36 1.606 . S
C177 C95 1.626 . S
C187 C49 1.599 . S
C201 C81 0.982 . S
C211 C29 0.912 . S
C225 C96 0.983 . S
C235 C42 0.888 . S
C249 C3 0.984 . S
C259 C55 0.888 . S
C273 C18 0.929 . S
C283 C70 1.001 . S
C297 C31 1.414 . S
C307 C5 1.395 . S
C321 C44 1.412 . S
C331 C16 1.397 . S
C345 C57 1.421 . S
C355 C83 1.395 . S
C369 C94 1.426 . S
C379 C68 1.435 . S
C393 C4 1.398 . S
C403 C75 1.402 . S
C417 C82 1.397 . S
C427 C23 1.398 . S
C441 C30 1.400 . S
C451 C101 1.403 . S
C465 C43 1.406 . S
C475 C56 1.396 . S
