# Generated by pormake.
# Topology wje, (4)-cn, num edge types: 1
# Building blocks:
#     Node 0, Type 0, BuildingBlock: KUFVIS_clean_sbu_0, # of connection points: 4
#     Node 1, Type 0, BuildingBlock: KUFVIS_clean_sbu_0, # of connection points: 4
#     Node 2, Type 0, BuildingBlock: KUFVIS_clean_sbu_0, # of connection points: 4
#     Node 3, Type 0, BuildingBlock: KUFVIS_clean_sbu_0, # of connection points: 4
#     Node 4, Type 0, BuildingBlock: KUFVIS_clean_sbu_0, # of connection points: 4
#     Node 5, Type 0, BuildingBlock: KUFVIS_clean_sbu_0, # of connection points: 4
#     Node 6, Type 0, BuildingBlock: KUFVIS_clean_sbu_0, # of connection points: 4
#     Node 7, Type 0, BuildingBlock: KUFVIS_clean_sbu_0, # of connection points: 4
#     Node 8, Type 0, BuildingBlock: KUFVIS_clean_sbu_0, # of connection points: 4
#     Node 9, Type 0, BuildingBlock: KUFVIS_clean_sbu_0, # of connection points: 4
#     Node 10, Type 0, BuildingBlock: KUFVIS_clean_sbu_0, # of connection points: 4
#     Node 11, Type 0, BuildingBlock: KUFVIS_clean_sbu_0, # of connection points: 4
#     Edge 12, Type (0, 0), BuildingBlock: AJUNOK_clean_linker_0, # of connection points: 2
#     Edge 13, Type (0, 0), BuildingBlock: AJUNOK_clean_linker_0, # of connection points: 2
#     Edge 14, Type (0, 0), BuildingBlock: AJUNOK_clean_linker_0, # of connection points: 2
#     Edge 15, Type (0, 0), BuildingBlock: AJUNOK_clean_linker_0, # of connection points: 2
#     Edge 16, Type (0, 0), BuildingBlock: AJUNOK_clean_linker_0, # of connection points: 2
#     Edge 17, Type (0, 0), BuildingBlock: AJUNOK_clean_linker_0, # of connection points: 2
#     Edge 18, Type (0, 0), BuildingBlock: AJUNOK_clean_linker_0, # of connection points: 2
#     Edge 19, Type (0, 0), BuildingBlock: AJUNOK_clean_linker_0, # of connection points: 2
#     Edge 20, Type (0, 0), BuildingBlock: AJUNOK_clean_linker_0, # of connection points: 2
#     Edge 21, Type (0, 0), BuildingBlock: AJUNOK_clean_linker_0, # of connection points: 2
#     Edge 22, Type (0, 0), BuildingBlock: AJUNOK_clean_linker_0, # of connection points: 2
#     Edge 23, Type (0, 0), BuildingBlock: AJUNOK_clean_linker_0, # of connection points: 2
#     Edge 24, Type (0, 0), BuildingBlock: AJUNOK_clean_linker_0, # of connection points: 2
#     Edge 25, Type (0, 0), BuildingBlock: AJUNOK_clean_linker_0, # of connection points: 2
#     Edge 26, Type (0, 0), BuildingBlock: AJUNOK_clean_linker_0, # of connection points: 2
#     Edge 27, Type (0, 0), BuildingBlock: AJUNOK_clean_linker_0, # of connection points: 2
#     Edge 28, Type (0, 0), BuildingBlock: AJUNOK_clean_linker_0, # of connection points: 2
#     Edge 29, Type (0, 0), BuildingBlock: AJUNOK_clean_linker_0, # of connection points: 2
#     Edge 30, Type (0, 0), BuildingBlock: AJUNOK_clean_linker_0, # of connection points: 2
#     Edge 31, Type (0, 0), BuildingBlock: AJUNOK_clean_linker_0, # of connection points: 2
#     Edge 32, Type (0, 0), BuildingBlock: AJUNOK_clean_linker_0, # of connection points: 2
#     Edge 33, Type (0, 0), BuildingBlock: AJUNOK_clean_linker_0, # of connection points: 2
#     Edge 34, Type (0, 0), BuildingBlock: AJUNOK_clean_linker_0, # of connection points: 2
#     Edge 35, Type (0, 0), BuildingBlock: AJUNOK_clean_linker_0, # of connection points: 2
# Relax obj value: 0.154
# Max RMSD: 0.106
# Mean RMSD: 0.106
data_MOF--net-wje--node1-KUFVIS_clean_sbu_0--edge1-AJUNOK_clean_linker_0
_symmetry_space_group_name_H-M    P1
_symmetry_Int_Tables_number       1
_symmetry_cell_setting            triclinic
loop_
_symmetry_equiv_pos_as_xyz
'x, y, z'
_cell_length_a     28.800756
_cell_length_b     28.786501
_cell_length_c     28.036103
_cell_angle_alpha  90.157732
_cell_angle_beta   89.850174
_cell_angle_gamma 119.95659
loop_
_atom_site_label
_atom_site_type_symbol
_atom_site_fract_x
_atom_site_fract_y
_atom_site_fract_z
_atom_type_partial_charge
Mn0 Mn 0.32614 0.02359 0.33313 0.0
Mn1 Mn 0.29974 0.96059 0.22841 0.0
C2 C 0.23742 0.96222 0.31419 0.0
C3 C 0.34387 0.02118 0.41413 0.0
C4 C 0.32889 0.07794 0.23798 0.0
O5 O 0.39873 0.03339 0.31418 0.0
O6 O 0.37479 0.98442 0.24689 0.0
C7 C 0.30863 0.86649 0.25751 0.0
N8 N 0.28007 0.88736 0.23729 0.0
C9 C 0.21139 0.80032 0.21153 0.0
C10 C 0.23991 0.7777 0.232 0.0
C11 C 0.28842 0.8109 0.25568 0.0
C12 C 0.23225 0.8556 0.21651 0.0
H13 H 0.34662 0.89209 0.27463 0.0
C14 C 0.40898 0.01155 0.2792 0.0
O15 O 0.35522 0.06606 0.39347 0.0
O16 O 0.32439 0.97907 0.38758 0.0
N17 N 0.22844 0.93385 0.20589 0.0
C18 C 0.20534 0.9619 0.18909 0.0
C19 C 0.15707 0.93487 0.16363 0.0
C20 C 0.13398 0.87971 0.15465 0.0
C21 C 0.15823 0.85168 0.1729 0.0
C22 C 0.20536 0.88037 0.19913 0.0
H23 H 0.22435 0.00477 0.19389 0.0
O24 O 0.24934 1.00073 0.34432 0.0
O25 O 0.27863 0.96271 0.29432 0.0
O26 O 0.33231 0.08033 0.28363 0.0
O27 O 0.31864 0.03558 0.21486 0.0
C28 C 0.13897 0.79693 0.16419 0.0
C29 C 0.16424 0.77071 0.18479 0.0
H30 H 0.22516 0.73502 0.22942 0.0
H31 H 0.31073 0.79382 0.27159 0.0
H32 H 0.13865 0.9568 0.14963 0.0
H33 H 0.09799 0.85948 0.13328 0.0
H34 H 0.10598 0.77524 0.14033 0.0
H35 H 0.14812 0.72824 0.17847 0.0
Mn36 Mn 0.30294 0.32379 0.66848 0.0
Mn37 Mn 0.34059 0.29922 0.56366 0.0
C38 C 0.27592 0.23539 0.64845 0.0
C39 C 0.31924 0.33926 0.7497 0.0
C40 C 0.25071 0.32519 0.57272 0.0
O41 O 0.36725 0.39626 0.65281 0.0
O42 O 0.38704 0.37541 0.58151 0.0
C43 C 0.44671 0.3178 0.59494 0.0
N44 N 0.39861 0.28624 0.5733 0.0
C45 C 0.42832 0.22802 0.54183 0.0
C46 C 0.4783 0.25974 0.5636 0.0
C47 C 0.48719 0.30433 0.59105 0.0
C48 C 0.38846 0.24144 0.54961 0.0
H49 H 0.45438 0.35327 0.6145 0.0
C50 C 0.39625 0.40837 0.61556 0.0
O51 O 0.2881 0.35314 0.72809 0.0
O52 O 0.34136 0.31827 0.72425 0.0
N53 N 0.30206 0.22755 0.54017 0.0
C54 C 0.2515 0.20102 0.52203 0.0
C55 C 0.23631 0.15614 0.49264 0.0
C56 C 0.27394 0.14047 0.48075 0.0
C57 C 0.32566 0.16819 0.50029 0.0
C58 C 0.33765 0.21097 0.53104 0.0
H59 H 0.22369 0.21522 0.52848 0.0
O60 O 0.24761 0.24724 0.67666 0.0
O61 O 0.31748 0.27668 0.6296 0.0
O62 O 0.25549 0.33306 0.6179 0.0
O63 O 0.28023 0.31166 0.54932 0.0
C64 C 0.3669 0.15735 0.48833 0.0
C65 C 0.41737 0.18554 0.51056 0.0
H66 H 0.51027 0.25064 0.55898 0.0
H67 H 0.52563 0.32915 0.60793 0.0
H68 H 0.19645 0.13511 0.47752 0.0
H69 H 0.26277 0.10765 0.45602 0.0
H70 H 0.36107 0.12873 0.46094 0.0
H71 H 0.44812 0.17572 0.50177 0.0
Mn72 Mn 0.98144 0.30692 1.00422 0.0
Mn73 Mn 0.04694 0.33149 0.90113 0.0
C74 C 0.04126 0.27648 0.9938 0.0
C75 C 0.9845 0.33382 0.08354 0.0
C76 C 0.92823 0.24807 0.91051 0.0
O77 O 0.97585 0.36931 0.97789 0.0
O78 O 0.0245 0.38659 0.91034 0.0
C79 C 0.14196 0.43669 0.92277 0.0
N80 N 0.12027 0.3838 0.91139 0.0
C81 C 0.20568 0.38897 0.91847 0.0
C82 C 0.22914 0.44354 0.92991 0.0
C83 C 0.19712 0.46757 0.93185 0.0
C84 C 0.15087 0.36056 0.90838 0.0
H85 H 0.11739 0.45518 0.9253 0.0
C86 C 0.99812 0.39766 0.94092 0.0
O87 O 0.93896 0.30091 0.06341 0.0
O88 O 0.02652 0.35285 0.05708 0.0
N89 N 0.07157 0.28174 0.89094 0.0
C90 C 0.04231 0.22795 0.8826 0.0
C91 C 0.0681 0.19751 0.88177 0.0
C92 C 0.12342 0.22251 0.89033 0.0
C93 C 0.15252 0.2779 0.89882 0.0
C94 C 0.12505 0.30645 0.89794 0.0
H95 H 0.99948 0.20822 0.87753 0.0
O96 O 1.00094 0.25202 0.02253 0.0
O97 O 0.04198 0.31533 0.96925 0.0
O98 O 0.92497 0.25406 0.95558 0.0
O99 O 0.97171 0.27606 0.88722 0.0
C100 C 0.20727 0.30545 0.91023 0.0
C101 C 0.2341 0.36116 0.91894 0.0
H102 H 0.27149 0.46712 0.93801 0.0
H103 H 0.21474 0.50956 0.94103 0.0
H104 H 0.04521 0.15471 0.87554 0.0
H105 H 0.14302 0.19873 0.89084 0.0
H106 H 0.22824 0.2835 0.91389 0.0
H107 H 0.27618 0.38236 0.92746 0.0
Mn108 Mn 0.68284 0.98166 0.33721 0.0
Mn109 Mn 0.71304 0.04376 0.23239 0.0
C110 C 0.77207 0.04159 0.31999 0.0
C111 C 0.66539 0.98483 0.41805 0.0
C112 C 0.68088 0.92587 0.24248 0.0
O113 O 0.61186 0.97499 0.31762 0.0
O114 O 0.63758 0.02128 0.24895 0.0
C115 C 0.70506 0.13926 0.25883 0.0
N116 N 0.73385 0.11742 0.24076 0.0
C117 C 0.80543 0.20389 0.2171 0.0
C118 C 0.77669 0.22748 0.23538 0.0
C119 C 0.72654 0.19504 0.25691 0.0
C120 C 0.78302 0.1484 0.22194 0.0
H121 H 0.66589 0.11432 0.27428 0.0
C122 C 0.60279 0.99612 0.28153 0.0
O123 O 0.65164 0.93935 0.39713 0.0
O124 O 0.68675 0.0272 0.3919 0.0
N125 N 0.78498 0.06901 0.21227 0.0
C126 C 0.80811 0.04012 0.19749 0.0
C127 C 0.85827 0.06647 0.17484 0.0
C128 C 0.88331 0.12189 0.1666 0.0
C129 C 0.85881 0.15068 0.18264 0.0
C130 C 0.80976 0.12265 0.20625 0.0
H131 H 0.78794 0.99716 0.20195 0.0
O132 O 0.75869 1.00177 0.34882 0.0
O133 O 0.73188 0.04193 0.29905 0.0
O134 O 0.67508 0.92384 0.28793 0.0
O135 O 0.69329 0.9684 0.21891 0.0
C136 C 0.87999 0.20568 0.17428 0.0
C137 C 0.8544 0.23279 0.19263 0.0
H138 H 0.79254 0.27033 0.23276 0.0
H139 H 0.70404 0.21287 0.2711 0.0
H140 H 0.87685 0.04392 0.16255 0.0
H141 H 0.92109 0.14178 0.14761 0.0
H142 H 0.9148 0.22673 0.15231 0.0
H143 H 0.87183 0.27541 0.18643 0.0
Mn144 Mn 0.7037 0.67806 0.66738 0.0
Mn145 Mn 0.66891 0.7079 0.5635 0.0
C146 C 0.73076 0.76744 0.65164 0.0
C147 C 0.68419 0.65952 0.74845 0.0
C148 C 0.75516 0.67609 0.57165 0.0
O149 O 0.63963 0.60671 0.64787 0.0
O150 O 0.61654 0.63287 0.58087 0.0
C151 C 0.56406 0.69818 0.58655 0.0
N152 N 0.61561 0.72827 0.57101 0.0
C153 C 0.59903 0.79747 0.54311 0.0
C154 C 0.54614 0.76789 0.55974 0.0
C155 C 0.52871 0.71817 0.58191 0.0
C156 C 0.6332 0.77673 0.55085 0.0
H157 H 0.54991 0.65912 0.60215 0.0
C158 C 0.60801 0.59798 0.61292 0.0
O159 O 0.71638 0.64686 0.72684 0.0
O160 O 0.66247 0.68061 0.7229 0.0
N161 N 0.71512 0.7796 0.5428 0.0
C162 C 0.76689 0.80237 0.52758 0.0
C163 C 0.78972 0.85102 0.5026 0.0
C164 C 0.75858 0.87479 0.4924 0.0
C165 C 0.70566 0.85092 0.50914 0.0
C166 C 0.68569 0.80355 0.5353 0.0
H167 H 0.79008 0.78279 0.53317 0.0
O168 O 0.7585 0.75437 0.67913 0.0
O169 O 0.69051 0.72701 0.63038 0.0
O170 O 0.75367 0.67136 0.61715 0.0
O171 O 0.72406 0.68807 0.54944 0.0
C172 C 0.67098 0.87055 0.49849 0.0
C173 C 0.61832 0.84507 0.51667 0.0
H174 H 0.51831 0.78244 0.55483 0.0
H175 H 0.48779 0.69478 0.5944 0.0
H176 H 0.83055 0.86913 0.48974 0.0
H177 H 0.77548 0.91087 0.47107 0.0
H178 H 0.68384 0.90376 0.47457 0.0
H179 H 0.59235 0.86111 0.50835 0.0
Mn180 Mn 0.02918 0.69807 1.00179 0.0
Mn181 Mn 0.96289 0.67152 0.89925 0.0
C182 C 0.96884 0.72763 0.99186 0.0
C183 C 0.02677 0.67134 0.08065 0.0
C184 C 0.08118 0.75694 0.90799 0.0
O185 O 0.036 0.63639 0.9754 0.0
O186 O 0.98674 0.61748 0.90831 0.0
C187 C 0.86933 0.56535 0.92123 0.0
N188 N 0.88995 0.61812 0.91006 0.0
C189 C 0.80392 0.61127 0.91939 0.0
C190 C 0.7816 0.55682 0.93064 0.0
C191 C 0.81444 0.53368 0.93127 0.0
C192 C 0.85848 0.64042 0.90797 0.0
H193 H 0.89455 0.54754 0.92292 0.0
C194 C 0.01366 0.60731 0.93884 0.0
O195 O 0.07208 0.705 0.06053 0.0
O196 O 0.98459 0.65172 0.0545 0.0
N197 N 0.93668 0.71997 0.88943 0.0
C198 C 0.96508 0.77384 0.88149 0.0
C199 C 0.93863 0.80364 0.88266 0.0
C200 C 0.88362 0.77791 0.89292 0.0
C201 C 0.8553 0.72239 0.90065 0.0
C202 C 0.88331 0.69448 0.89759 0.0
H203 H 0.00782 0.79419 0.87558 0.0
O204 O 0.00906 0.75235 0.02054 0.0
O205 O 0.96813 0.68859 0.96732 0.0
O206 O 0.08487 0.75131 0.953 0.0
O207 O 0.03776 0.72807 0.88488 0.0
C208 C 0.8011 0.6942 0.91403 0.0
C209 C 0.77486 0.63842 0.92179 0.0
H210 H 0.73954 0.53269 0.93975 0.0
H211 H 0.7977 0.49179 0.94033 0.0
H212 H 0.96088 0.84654 0.87702 0.0
H213 H 0.86377 0.80134 0.89563 0.0
H214 H 0.78021 0.71568 0.92057 0.0
H215 H 0.73292 0.61699 0.9315 0.0
Mn216 Mn 0.98437 0.68076 0.36229 0.0
Mn217 Mn 0.04963 0.71729 0.46544 0.0
C218 C 0.04364 0.77042 0.37513 0.0
C219 C 0.9875 0.65806 0.28299 0.0
C220 C 0.9305 0.68111 0.45718 0.0
O221 O 0.97846 0.61197 0.38621 0.0
O222 O 0.02987 0.64112 0.45221 0.0
C223 C 0.14695 0.71228 0.44071 0.0
N224 N 0.1236 0.74132 0.45447 0.0
C225 C 0.20757 0.82355 0.44986 0.0
C226 C 0.23272 0.79466 0.43602 0.0
C227 C 0.20226 0.73869 0.43162 0.0
C228 C 0.15268 0.79501 0.45981 0.0
H229 H 0.12359 0.66934 0.43625 0.0
C230 C 1.00308 0.60508 0.42071 0.0
O231 O 0.942 0.64556 0.30328 0.0
O232 O 0.02981 0.68127 0.30897 0.0
N233 N 0.07179 0.79052 0.47905 0.0
C234 C 0.04099 0.81296 0.48939 0.0
C235 C 0.06507 0.86894 0.49267 0.0
C236 C 0.1203 0.90121 0.48452 0.0
C237 C 0.15103 0.87708 0.47394 0.0
C238 C 0.1252 0.82112 0.47239 0.0
H239 H 0.99823 0.78848 0.49424 0.0
O240 O 1.00388 0.75565 0.34597 0.0
O241 O 0.04423 0.73142 0.39823 0.0
O242 O 0.9278 0.67554 0.41164 0.0
O243 O 0.97364 0.69436 0.48025 0.0
C244 C 0.20584 0.90645 0.46283 0.0
C245 C 0.23436 0.87973 0.45189 0.0
H246 H 0.27518 0.81512 0.42792 0.0
H247 H 0.2212 0.71605 0.42055 0.0
H248 H 0.04094 0.88721 0.50052 0.0
H249 H 0.1386 0.94446 0.48593 0.0
H250 H 0.2256 0.94947 0.46116 0.0
H251 H 0.27647 0.90235 0.44362 0.0
Mn252 Mn 0.30271 0.98328 0.69832 0.0
Mn253 Mn 0.34468 0.04827 0.80157 0.0
C254 C 0.27673 0.04557 0.71862 0.0
C255 C 0.31867 0.98355 0.61684 0.0
C256 C 0.25462 0.93168 0.79573 0.0
O257 O 0.36681 0.97438 0.71295 0.0
O258 O 0.392 0.02026 0.78157 0.0
C259 C 0.44819 0.1372 0.76678 0.0
N260 N 0.40079 0.11976 0.79013 0.0
C261 C 0.4293 0.20769 0.8209 0.0
C262 C 0.47853 0.22687 0.79733 0.0
C263 C 0.48763 0.19159 0.7694 0.0
C264 C 0.3903 0.15389 0.81438 0.0
H265 H 0.45607 0.10972 0.74684 0.0
C266 C 0.39899 0.99458 0.74781 0.0
O267 O 0.28703 0.93877 0.63865 0.0
O268 O 0.34093 0.02666 0.64212 0.0
N269 N 0.30542 0.07994 0.82681 0.0
C270 C 0.25576 0.05491 0.84701 0.0
C271 C 0.24068 0.08402 0.87732 0.0
C272 C 0.27755 0.13786 0.88793 0.0
C273 C 0.32831 0.1629 0.86629 0.0
C274 C 0.34018 0.13253 0.83485 0.0
H275 H 0.22868 0.01259 0.84149 0.0
O276 O 0.24779 0.0053 0.69081 0.0
O277 O 0.31851 0.04565 0.73658 0.0
O278 O 0.25576 0.92758 0.7502 0.0
O279 O 0.28636 0.97502 0.81772 0.0
C280 C 0.36886 0.21573 0.87676 0.0
C281 C 0.4184 0.23888 0.85267 0.0
H282 H 0.50981 0.26837 0.80091 0.0
H283 H 0.52553 0.20594 0.75116 0.0
H284 H 0.20159 0.06439 0.89409 0.0
H285 H 0.26663 0.15914 0.91335 0.0
H286 H 0.36319 0.23854 0.90428 0.0
H287 H 0.44859 0.27996 0.86038 0.0
Mn288 Mn 0.32254 0.30409 0.03391 0.0
Mn289 Mn 0.30189 0.3432 0.13983 0.0
C290 C 0.23473 0.27815 0.05602 0.0
C291 C 0.33841 0.32301 0.95272 0.0
C292 C 0.32805 0.25304 0.12846 0.0
O293 O 0.39637 0.36618 0.05012 0.0
O294 O 0.37608 0.39302 0.11821 0.0
C295 C 0.31097 0.44583 0.10925 0.0
N296 N 0.28326 0.39759 0.13169 0.0
C297 C 0.21881 0.41972 0.16219 0.0
C298 C 0.2465 0.46972 0.13953 0.0
C299 C 0.29238 0.4825 0.11233 0.0
C300 C 0.23758 0.38374 0.15563 0.0
H301 H 0.3471 0.45634 0.08945 0.0
C302 C 0.40848 0.39933 0.08438 0.0
O303 O 0.34933 0.28901 0.97305 0.0
O304 O 0.31979 0.34629 0.97961 0.0
N305 N 0.23196 0.30082 0.16615 0.0
C306 C 0.20978 0.25078 0.18534 0.0
C307 C 0.16525 0.2327 0.21566 0.0
C308 C 0.145 0.26679 0.22687 0.0
C309 C 0.16771 0.31765 0.20573 0.0
C310 C 0.21119 0.33299 0.17501 0.0
H311 H 0.2271 0.22561 0.17901 0.0
O312 O 0.2452 0.25088 0.02537 0.0
O313 O 0.27699 0.3189 0.07462 0.0
O314 O 0.3297 0.25402 0.08278 0.0
O315 O 0.31994 0.28606 0.15264 0.0
C316 C 0.15064 0.35477 0.21562 0.0
C317 C 0.17472 0.40493 0.19259 0.0
H318 H 0.23319 0.49873 0.14315 0.0
H319 H 0.31405 0.52098 0.09472 0.0
H320 H 0.1478 0.19335 0.23171 0.0
H321 H 0.11217 0.25352 0.25196 0.0
H322 H 0.11975 0.34564 0.24159 0.0
H323 H 0.16023 0.43248 0.19985 0.0
Mn324 Mn 0.02085 0.32171 0.36815 0.0
Mn325 Mn 0.95953 0.29929 0.47318 0.0
C326 C 0.95982 0.23379 0.38878 0.0
C327 C 0.01743 0.33789 0.287 0.0
C328 C 0.07629 0.32693 0.4632 0.0
O329 O 0.03203 0.39506 0.38575 0.0
O330 O 0.98376 0.37408 0.45319 0.0
C331 C 0.86572 0.30749 0.44208 0.0
N332 N 0.88642 0.27968 0.46399 0.0
C333 C 0.79954 0.21281 0.49162 0.0
C334 C 0.77704 0.24056 0.46944 0.0
C335 C 0.81023 0.28776 0.44395 0.0
C336 C 0.85462 0.23286 0.48629 0.0
H337 H 0.8914 0.34457 0.42363 0.0
C338 C 0.01118 0.40711 0.42029 0.0
O339 O 0.06251 0.34963 0.30747 0.0
O340 O 0.97537 0.31847 0.3136 0.0
N341 N 0.9326 0.22893 0.49813 0.0
C342 C 0.96087 0.20743 0.51778 0.0
C343 C 0.93446 0.16219 0.54714 0.0
C344 C 0.87966 0.14039 0.55683 0.0
C345 C 0.85106 0.16223 0.53504 0.0
C346 C 0.87931 0.20674 0.50555 0.0
H347 H 1.00363 0.22591 0.51269 0.0
O348 O 0.99812 0.24496 0.35863 0.0
O349 O 0.96046 0.27552 0.40783 0.0
O350 O 0.07797 0.32876 0.41748 0.0
O351 O 0.03454 0.31814 0.48659 0.0
C352 C 0.79633 0.14352 0.5435 0.0
C353 C 0.77006 0.16742 0.52051 0.0
H354 H 0.73449 0.22633 0.47215 0.0
H355 H 0.79326 0.3095 0.42675 0.0
H356 H 0.95671 0.14543 0.56375 0.0
H357 H 0.86024 0.10738 0.58162 0.0
H358 H 0.77442 0.11172 0.56855 0.0
H359 H 0.72769 0.15185 0.52679 0.0
Mn360 Mn 0.70414 0.01744 0.70401 0.0
Mn361 Mn 0.66109 0.95876 0.80963 0.0
C362 C 0.72848 0.95517 0.72756 0.0
C363 C 0.68893 0.01352 0.62204 0.0
C364 C 0.75221 0.07431 0.79962 0.0
O365 O 0.64083 0.02851 0.71659 0.0
O366 O 0.61389 0.98539 0.7864 0.0
C367 C 0.55584 0.8677 0.78105 0.0
N368 N 0.60478 0.8865 0.80183 0.0
C369 C 0.5795 0.79943 0.83284 0.0
C370 C 0.52914 0.77883 0.81124 0.0
C371 C 0.51742 0.81309 0.78487 0.0
C372 C 0.61709 0.85364 0.82587 0.0
H373 H 0.5461 0.89412 0.76178 0.0
C374 C 0.60788 0.00985 0.75118 0.0
O375 O 0.72145 0.05872 0.64289 0.0
O376 O 0.66499 0.97155 0.64854 0.0
N377 N 0.701 0.92939 0.8374 0.0
C378 C 0.75033 0.95629 0.85805 0.0
C379 C 0.76626 0.92916 0.88956 0.0
C380 C 0.73091 0.87505 0.90015 0.0
C381 C 0.68107 0.8477 0.87712 0.0
C382 C 0.66757 0.87666 0.84578 0.0
H383 H 0.77645 0.99867 0.85215 0.0
O384 O 0.75818 0.99427 0.69903 0.0
O385 O 0.68702 0.95671 0.74492 0.0
O386 O 0.75216 0.07566 0.7539 0.0
O387 O 0.71914 0.03277 0.82285 0.0
C388 C 0.64307 0.79363 0.88596 0.0
C389 C 0.59303 0.76899 0.86284 0.0
H390 H 0.49891 0.73702 0.81532 0.0
H391 H 0.47854 0.79768 0.76834 0.0
H392 H 0.80484 0.9504 0.90704 0.0
H393 H 0.74233 0.85522 0.92649 0.0
H394 H 0.65145 0.77084 0.91114 0.0
H395 H 0.56451 0.72722 0.86989 0.0
Mn396 Mn 0.68879 0.70359 0.03368 0.0
Mn397 Mn 0.71036 0.66251 0.13801 0.0
C398 C 0.77659 0.72869 0.0546 0.0
C399 C 0.67308 0.68632 0.95183 0.0
C400 C 0.68325 0.75229 0.1302 0.0
O401 O 0.61516 0.64086 0.04985 0.0
O402 O 0.63601 0.61301 0.11696 0.0
C403 C 0.70108 0.56022 0.10556 0.0
N404 N 0.72917 0.60844 0.12808 0.0
C405 C 0.79478 0.58677 0.15584 0.0
C406 C 0.76673 0.53681 0.13304 0.0
C407 C 0.72005 0.52379 0.10717 0.0
C408 C 0.77548 0.62246 0.15083 0.0
H409 H 0.66438 0.54954 0.08679 0.0
C410 C 0.60338 0.60737 0.08372 0.0
O411 O 0.66181 0.7195 0.97344 0.0
O412 O 0.69161 0.66252 0.97787 0.0
N413 N 0.78067 0.70497 0.16337 0.0
C414 C 0.80318 0.75499 0.1828 0.0
C415 C 0.84894 0.7735 0.21145 0.0
C416 C 0.87007 0.73982 0.22081 0.0
C417 C 0.84676 0.68888 0.19961 0.0
C418 C 0.80211 0.67316 0.17048 0.0
H419 H 0.78531 0.77987 0.17786 0.0
O420 O 0.76624 0.75687 0.02508 0.0
O421 O 0.73432 0.68786 0.07296 0.0
O422 O 0.6816 0.75285 0.08446 0.0
O423 O 0.69204 0.71894 0.15272 0.0
C424 C 0.86431 0.65197 0.20811 0.0
C425 C 0.83977 0.60178 0.18496 0.0
H426 H 0.78038 0.50799 0.13551 0.0
H427 H 0.69811 0.48534 0.08946 0.0
H428 H 0.86673 0.81285 0.22766 0.0
H429 H 0.90386 0.75336 0.24473 0.0
H430 H 0.89563 0.66118 0.23341 0.0
H431 H 0.85463 0.57438 0.19119 0.0
C432 C 0.33054 0.16692 0.23231 0.0
C433 C 0.33373 0.12481 0.20972 0.0
C434 C 0.33 0.2084 0.20594 0.0
C435 C 0.33286 0.21025 0.15549 0.0
H436 H 0.32694 0.16724 0.27076 0.0
H437 H 0.32627 0.23884 0.22555 0.0
S438 S 0.34559 0.1118 0.07857 0.0
N439 N 0.34268 0.08947 0.13327 0.0
N440 N 0.34161 0.16675 0.08434 0.0
C441 C 0.33774 0.16926 0.13251 0.0
C442 C 0.33818 0.12693 0.15933 0.0
C443 C 0.20448 0.32394 0.49532 0.0
C444 C 0.20801 0.32992 0.54555 0.0
C445 C 0.16331 0.32495 0.4689 0.0
C446 C 0.12315 0.33164 0.49125 0.0
H447 H 0.23341 0.31756 0.47595 0.0
H448 H 0.16224 0.3189 0.43068 0.0
S449 S 0.11499 0.35222 0.62157 0.0
N450 N 0.16821 0.34519 0.61612 0.0
N451 N 0.09141 0.34704 0.56705 0.0
C452 C 0.12694 0.33909 0.54134 0.0
C453 C 0.16902 0.33827 0.56821 0.0
C454 C 0.84133 0.16121 0.80601 0.0
C455 C 0.79426 0.12118 0.82797 0.0
C456 C 0.88339 0.20218 0.8328 0.0
C457 C 0.88067 0.2057 0.88305 0.0
H458 H 0.84658 0.16015 0.76783 0.0
H459 H 0.91887 0.23098 0.81367 0.0
S460 S 0.76468 0.11307 0.95815 0.0
N461 N 0.74658 0.08962 0.90349 0.0
N462 N 0.82508 0.16607 0.95317 0.0
C463 C 0.83309 0.16691 0.90532 0.0
C464 C 0.79028 0.12501 0.87808 0.0
C465 C 0.67998 0.83877 0.13745 0.0
C466 C 0.67772 0.79366 0.15932 0.0
C467 C 0.67949 0.88004 0.16446 0.0
C468 C 0.67641 0.87851 0.21493 0.0
H469 H 0.68356 0.84311 0.09904 0.0
H470 H 0.68253 0.91407 0.1453 0.0
S471 S 0.66649 0.76793 0.29027 0.0
N472 N 0.66982 0.74919 0.23528 0.0
N473 N 0.66894 0.82622 0.28533 0.0
C474 C 0.6725 0.83287 0.23723 0.0
C475 C 0.67318 0.79085 0.20976 0.0
C476 C 0.88533 0.67838 0.53596 0.0
C477 C 0.88289 0.6747 0.48552 0.0
C478 C 0.84339 0.6766 0.56362 0.0
C479 C 0.79676 0.67138 0.54238 0.0
H480 H 0.92058 0.68373 0.55457 0.0
H481 H 0.84846 0.6811 0.60193 0.0
S482 S 0.76775 0.65636 0.41201 0.0
N483 N 0.82782 0.66274 0.41597 0.0
N484 N 0.74955 0.65936 0.46728 0.0
C485 C 0.79295 0.66592 0.49205 0.0
C486 C 0.83562 0.66756 0.46393 0.0
C487 C 0.16827 0.84223 0.80305 0.0
C488 C 0.21311 0.88538 0.82496 0.0
C489 C 0.12687 0.80087 0.83004 0.0
C490 C 0.12815 0.79999 0.8805 0.0
H491 H 0.16425 0.84093 0.7646 0.0
H492 H 0.09311 0.76949 0.81089 0.0
S493 S 0.23784 0.90185 0.95596 0.0
N494 N 0.25694 0.92319 0.90093 0.0
N495 N 0.17975 0.84586 0.95102 0.0
C496 C 0.17348 0.84208 0.90288 0.0
C497 C 0.21555 0.88447 0.87542 0.0
C498 C 0.48318 0.00795 0.32195 0.0
C499 C 0.46025 0.01122 0.27872 0.0
C500 C 0.52798 1.00087 0.32248 0.0
C501 C 0.55212 0.99765 0.27979 0.0
H502 H 0.46556 0.00945 0.35571 0.0
H503 H 0.54446 0.99902 0.35665 0.0
S504 S 0.50796 0.00478 0.15713 0.0
N505 N 0.46504 0.01075 0.19215 0.0
N506 N 0.54988 0.99866 0.19312 0.0
C507 C 0.52989 1.00141 0.23634 0.0
C508 C 0.48383 0.00784 0.23581 0.0
C509 C 0.52971 0.52417 0.65576 0.0
C510 C 0.55513 0.54815 0.61244 0.0
C511 C 0.47702 0.48085 0.65666 0.0
C512 C 0.44797 0.4594 0.61423 0.0
H513 H 0.55024 0.53964 0.68938 0.0
H514 H 0.45955 0.46305 0.69079 0.0
S515 S 0.49608 0.50771 0.49147 0.0
N516 N 0.54696 0.54749 0.52608 0.0
N517 N 0.44837 0.4657 0.52774 0.0
C518 C 0.47288 0.48307 0.57071 0.0
C519 C 0.52628 0.52746 0.56982 0.0
C520 C 0.00907 0.52868 0.97967 0.0
C521 C 0.01162 0.55481 0.93657 0.0
C522 C 1.00305 0.47744 0.98021 0.0
C523 C 1.00025 0.45014 0.93767 0.0
H524 H 0.01062 0.54749 1.01363 0.0
H525 H 1.00167 0.45955 1.01453 0.0
S526 S 0.00549 0.50074 0.81509 0.0
N527 N 0.01027 0.54929 0.85001 0.0
N528 N 1.00097 0.4532 0.851 0.0
C529 C 1.0033 0.47581 0.89415 0.0
C530 C 0.00827 0.52792 0.89361 0.0
C531 C 0.0077 0.53082 0.46347 0.0
C532 C 0.0059 0.55506 0.42059 0.0
C533 C 0.01064 0.48352 0.46319 0.0
C534 C 0.01356 0.45975 0.42007 0.0
H535 H 0.00573 0.54788 0.49738 0.0
H536 H 0.01041 0.46529 0.49701 0.0
S537 S 0.0137 0.5096 0.29812 0.0
N538 N 0.00941 0.55296 0.33385 0.0
N539 N 0.01587 0.46502 0.33349 0.0
C540 C 0.01346 0.48462 0.37705 0.0
C541 C 0.00935 0.53198 0.37728 0.0
C542 C 0.52911 0.007 0.7912 0.0
C543 C 0.55648 0.00977 0.74871 0.0
C544 C 0.47752 1.00025 0.79046 0.0
C545 C 0.45062 0.99498 0.74722 0.0
H546 H 0.54766 0.00989 0.82549 0.0
H547 H 0.45857 0.99924 0.82418 0.0
S548 S 0.50426 0.99889 0.62579 0.0
N549 N 0.55268 0.00638 0.66199 0.0
N550 N 0.45544 0.99344 0.66059 0.0
C551 C 0.4773 0.99733 0.70436 0.0
C552 C 0.53032 0.005 0.7051 0.0
C553 C 0.48187 0.47925 0.12572 0.0
C554 C 0.45988 0.45089 0.08303 0.0
C555 C 0.52736 0.53049 0.12549 0.0
C556 C 0.552 0.55608 0.08249 0.0
H557 H 0.4638 0.46168 0.15975 0.0
H558 H 0.5434 0.55027 0.15932 0.0
S559 S 0.51071 0.4995 0.9608 0.0
N560 N 0.4667 0.45235 0.9964 0.0
N561 N 0.55184 0.54904 0.99607 0.0
C562 C 0.53041 0.52847 0.03948 0.0
C563 C 0.48459 0.47577 0.03972 0.0
C564 C 0.13944 0.81799 0.34817 0.0
C565 C 0.09366 0.82034 0.36229 0.0
C566 C 0.18478 0.86308 0.32913 0.0
C567 C 0.18569 0.912 0.3224 0.0
H568 H 0.14017 0.78089 0.35161 0.0
H569 H 0.22009 0.86011 0.32171 0.0
S570 S 0.07484 0.93803 0.35103 0.0
N571 N 0.05116 0.87471 0.36616 0.0
N572 N 0.13604 0.95937 0.33054 0.0
C573 C 0.13956 0.91426 0.33524 0.0
C574 C 0.09362 0.86848 0.35481 0.0
C575 C 0.32456 0.18636 0.67148 0.0
C576 C 0.27613 0.1851 0.66062 0.0
C577 C 0.32489 0.1427 0.69406 0.0
C578 C 0.2768 0.09605 0.70677 0.0
H579 H 0.36256 0.22193 0.66387 0.0
H580 H 0.36305 0.14489 0.70011 0.0
S581 S 0.13951 0.07254 0.68628 0.0
N582 N 0.17906 0.13319 0.66474 0.0
N583 N 0.17968 0.05148 0.70633 0.0
C584 C 0.22835 0.09448 0.69605 0.0
C585 C 0.22802 0.13871 0.6732 0.0
C586 C 0.18251 0.3253 0.04076 0.0
C587 C 0.18304 0.27726 0.04882 0.0
C588 C 0.1373 0.32496 0.0211 0.0
C589 C 0.09115 0.27668 1.00792 0.0
H590 H 0.21808 0.36357 0.04746 0.0
H591 H 0.13845 0.36285 1.01631 0.0
S592 S 0.07088 0.14008 0.02386 0.0
N593 N 0.13231 0.1801 0.04357 0.0
N594 N 0.04776 0.1797 1.00713 0.0
C595 C 0.09059 0.22853 1.01725 0.0
C596 C 0.13639 0.22879 0.03729 0.0
C597 C 0.86285 0.18368 0.36546 0.0
C598 C 0.90945 0.18278 0.37918 0.0
C599 C 0.81978 0.13914 0.343 0.0
C600 C 0.8217 0.09204 0.33313 0.0
H601 H 0.86045 0.21976 0.37031 0.0
H602 H 0.78421 0.14121 0.33449 0.0
S603 S 0.93406 0.06903 0.3626 0.0
N604 N 0.9545 0.13066 0.38147 0.0
N605 N 0.8737 0.04714 0.34008 0.0
C606 C 0.86779 0.09062 0.34722 0.0
C607 C 0.91145 0.13577 0.37 0.0
C608 C 0.77611 0.86223 0.68103 0.0
C609 C 0.72847 0.81586 0.6673 0.0
C610 C 0.77536 0.90525 0.70432 0.0
C611 C 0.72692 0.90387 0.7155 0.0
H612 H 0.81448 0.8651 0.67407 0.0
H613 H 0.81328 0.94074 0.71245 0.0
S614 S 0.59068 0.79057 0.68986 0.0
N615 N 0.63123 0.76968 0.67032 0.0
N616 N 0.62991 0.85181 0.71028 0.0
C617 C 0.67897 0.85746 0.7025 0.0
C618 C 0.67973 0.81333 0.67932 0.0
C619 C 0.82791 0.68063 0.03877 0.0
C620 C 0.82791 0.72903 0.04655 0.0
C621 C 0.87289 0.68023 1.01928 0.0
C622 C 0.91921 0.72808 1.00575 0.0
H623 H 0.79213 0.64261 0.04555 0.0
H624 H 0.87138 0.64211 1.01485 0.0
S625 S 0.94089 0.86542 0.02073 0.0
N626 N 0.87936 0.8261 0.04065 0.0
N627 N 0.96345 0.82512 1.00431 0.0
C628 C 0.9203 0.77662 1.01469 0.0
C629 C 0.87477 0.77712 0.03468 0.0
C630 C 0.31165 0.0297 0.49372 0.0
C631 C 0.34314 0.0151 0.46636 0.0
C632 C 0.30291 0.01774 0.54223 0.0
C633 C 0.32361 0.98865 0.56487 0.0
H634 H 0.29056 0.04739 0.47682 0.0
H635 H 0.27902 0.03071 0.56209 0.0
S636 S 0.40642 0.93804 0.5091 0.0
N637 N 0.39403 0.96852 0.46517 0.0
N638 N 0.37642 0.94464 0.5569 0.0
C639 C 0.35435 0.97257 0.53812 0.0
C640 C 0.36419 0.98587 0.48861 0.0
C641 C 0.30909 0.28366 0.87229 0.0
C642 C 0.33867 0.32934 0.90058 0.0
C643 C 0.30235 0.28775 0.82354 0.0
C644 C 0.32306 0.33797 0.80164 0.0
H645 H 0.2884 0.24445 0.88848 0.0
H646 H 0.27999 0.25126 0.80291 0.0
S647 S 0.40021 0.4704 0.86012 0.0
N648 N 0.38716 0.42676 0.90351 0.0
N649 N 0.37304 0.43463 0.81136 0.0
C650 C 0.35149 0.38431 0.82937 0.0
C651 C 0.35943 0.37999 0.87909 0.0
C652 C 0.99429 0.37261 0.21439 0.0
C653 C 0.01175 0.33941 0.23501 0.0
C654 C 0.98438 0.37071 0.16503 0.0
C655 C 0.99214 0.33577 0.13538 0.0
H656 H 0.9878 0.39971 0.2366 0.0
H657 H 0.97097 0.39663 0.15006 0.0
S658 S 0.0295 0.23571 0.1727 0.0
N659 N 0.02772 0.26505 0.22286 0.0
N660 N 0.01701 0.26696 0.12976 0.0
C661 C 0.01032 0.30325 0.15561 0.0
C662 C 0.01732 0.30302 0.20571 0.0
C663 C 0.6281 0.98755 0.49827 0.0
C664 C 0.67009 0.99117 0.46999 0.0
C665 C 0.63464 0.99593 0.54785 0.0
C666 C 0.68315 0.00787 0.57002 0.0
H667 H 0.59043 0.97854 0.48202 0.0
H668 H 0.60169 0.9929 0.56895 0.0
S669 S 0.80248 0.01633 0.51152 0.0
N670 N 0.76111 0.00718 0.46722 0.0
N671 N 0.77093 0.01662 0.56073 0.0
C672 C 0.72432 0.00952 0.54211 0.0
C673 C 0.71869 0.0036 0.49181 0.0
C674 C 0.64252 0.62904 0.8784 0.0
C675 C 0.67212 0.68021 0.89941 0.0
C676 C 0.64719 0.62127 0.82935 0.0
C677 C 0.68289 0.66424 0.80051 0.0
H678 H 0.61585 0.59488 0.90009 0.0
H679 H 0.6227 0.58181 0.81394 0.0
S680 S 0.77459 0.80375 0.83888 0.0
N681 N 0.74173 0.77286 0.88784 0.0
N682 N 0.75002 0.75829 0.79618 0.0
C683 C 0.71328 0.71499 0.82118 0.0
C684 C 0.70803 0.72304 0.87053 0.0
C685 C 0.00547 0.62166 0.20837 0.0
C686 C 0.99414 0.65849 0.23114 0.0
C687 C 0.0179 0.6264 0.15937 0.0
C688 C 0.01924 0.66813 0.13244 0.0
H689 H 0.00524 0.58956 0.22856 0.0
H690 H 0.02598 0.59728 0.14249 0.0
S691 S 0.99523 0.77577 0.17607 0.0
N692 N 0.99067 0.74073 0.22416 0.0
N693 N 0.00595 0.74499 0.13127 0.0
C694 C 0.00675 0.70413 0.15479 0.0
C695 C 0.99711 0.70104 0.2046 0.0
loop_
_geom_bond_atom_site_label_1
_geom_bond_atom_site_label_2
_geom_bond_distance
_geom_bond_site_symmetry_2
_ccdc_geom_bond_type
Mn0 O5 2.095 . S
Mn0 O15 2.162 . S
Mn0 O16 2.297 1_545 S
Mn0 O24 2.385 1_545 S
Mn0 O25 2.209 1_545 S
Mn0 O26 2.094 . S
Mn1 O6 2.121 . S
Mn1 N8 2.257 . S
Mn1 N17 2.282 . S
Mn1 O25 2.215 . S
Mn1 O27 2.117 1_565 S
C2 O24 1.234 . S
C2 O25 1.283 . S
C3 O15 1.281 . S
C3 O16 1.236 1_545 S
C4 O26 1.240 . S
C4 O27 1.264 . S
O5 Mn0 2.095 . S
O5 C14 1.250 . S
O6 Mn1 2.121 . S
O6 C14 1.258 1_565 S
C7 N8 1.326 . S
C7 C11 1.460 . S
C7 H13 0.929 . S
N8 Mn1 2.257 . S
N8 C7 1.326 . S
N8 C12 1.362 . S
C9 C10 1.258 . S
C9 C12 1.431 . S
C9 C29 1.449 . S
C10 C9 1.258 . S
C10 C11 1.477 . S
C10 H30 0.931 . S
C11 C7 1.460 . S
C11 C10 1.477 . S
C11 H31 0.930 . S
C12 N8 1.362 . S
C12 C9 1.431 . S
C12 C22 1.476 . S
H13 C7 0.929 . S
C14 O5 1.250 . S
C14 O6 1.258 1_545 S
O15 Mn0 2.162 . S
O15 C3 1.281 . S
O16 Mn0 2.297 1_565 S
O16 C3 1.236 1_565 S
N17 Mn1 2.282 . S
N17 C18 1.328 . S
N17 C22 1.318 . S
C18 N17 1.328 . S
C18 C19 1.457 . S
C18 H23 0.929 . S
C19 C18 1.457 . S
C19 C20 1.291 . S
C19 H32 0.931 . S
C20 C19 1.291 . S
C20 C21 1.373 . S
C20 H33 0.929 . S
C21 C20 1.373 . S
C21 C22 1.396 . S
C21 C28 1.403 . S
C22 C12 1.476 . S
C22 N17 1.318 . S
C22 C21 1.396 . S
H23 C18 0.929 . S
O24 Mn0 2.385 1_565 S
O24 C2 1.234 . S
O25 Mn0 2.209 1_565 S
O25 Mn1 2.215 . S
O25 C2 1.283 . S
O26 Mn0 2.094 . S
O26 C4 1.240 . S
O27 Mn1 2.117 1_545 S
O27 C4 1.264 . S
C28 C21 1.403 . S
C28 C29 1.399 . S
C28 H34 0.929 . S
C29 C9 1.449 . S
C29 C28 1.399 . S
C29 H35 0.930 . S
H30 C10 0.931 . S
H31 C11 0.930 . S
H32 C19 0.931 . S
H33 C20 0.929 . S
H34 C28 0.929 . S
H35 C29 0.930 . S
Mn36 O41 2.095 . S
Mn36 O51 2.162 . S
Mn36 O52 2.297 . S
Mn36 O60 2.385 . S
Mn36 O61 2.209 . S
Mn36 O62 2.094 . S
Mn37 O42 2.121 . S
Mn37 N44 2.257 . S
Mn37 N53 2.282 . S
Mn37 O61 2.215 . S
Mn37 O63 2.117 . S
C38 O60 1.234 . S
C38 O61 1.283 . S
C39 O51 1.281 . S
C39 O52 1.236 . S
C40 O62 1.240 . S
C40 O63 1.264 . S
O41 Mn36 2.095 . S
O41 C50 1.250 . S
O42 Mn37 2.121 . S
O42 C50 1.258 . S
C43 N44 1.326 . S
C43 C47 1.460 . S
C43 H49 0.929 . S
N44 Mn37 2.257 . S
N44 C43 1.326 . S
N44 C48 1.362 . S
C45 C46 1.258 . S
C45 C48 1.431 . S
C45 C65 1.449 . S
C46 C45 1.258 . S
C46 C47 1.477 . S
C46 H66 0.931 . S
C47 C43 1.460 . S
C47 C46 1.477 . S
C47 H67 0.930 . S
C48 N44 1.362 . S
C48 C45 1.431 . S
C48 C58 1.476 . S
H49 C43 0.929 . S
C50 O41 1.250 . S
C50 O42 1.258 . S
O51 Mn36 2.162 . S
O51 C39 1.281 . S
O52 Mn36 2.297 . S
O52 C39 1.236 . S
N53 Mn37 2.282 . S
N53 C54 1.328 . S
N53 C58 1.318 . S
C54 N53 1.328 . S
C54 C55 1.457 . S
C54 H59 0.929 . S
C55 C54 1.457 . S
C55 C56 1.291 . S
C55 H68 0.931 . S
C56 C55 1.291 . S
C56 C57 1.373 . S
C56 H69 0.929 . S
C57 C56 1.373 . S
C57 C58 1.396 . S
C57 C64 1.403 . S
C58 C48 1.476 . S
C58 N53 1.318 . S
C58 C57 1.396 . S
H59 C54 0.929 . S
O60 Mn36 2.385 . S
O60 C38 1.234 . S
O61 Mn36 2.209 . S
O61 Mn37 2.215 . S
O61 C38 1.283 . S
O62 Mn36 2.094 . S
O62 C40 1.240 . S
O63 Mn37 2.117 . S
O63 C40 1.264 . S
C64 C57 1.403 . S
C64 C65 1.399 . S
C64 H70 0.929 . S
C65 C45 1.449 . S
C65 C64 1.399 . S
C65 H71 0.930 . S
H66 C46 0.931 . S
H67 C47 0.930 . S
H68 C55 0.931 . S
H69 C56 0.929 . S
H70 C64 0.929 . S
H71 C65 0.930 . S
Mn72 O77 2.095 . S
Mn72 O87 2.162 1_556 S
Mn72 O88 2.297 1_656 S
Mn72 O96 2.385 1_655 S
Mn72 O97 2.209 1_655 S
Mn72 O98 2.094 . S
Mn73 O78 2.121 . S
Mn73 N80 2.257 . S
Mn73 N89 2.282 . S
Mn73 O97 2.215 . S
Mn73 O99 2.117 1_455 S
C74 O96 1.234 . S
C74 O97 1.283 . S
C75 O87 1.281 . S
C75 O88 1.236 1_655 S
C76 O98 1.240 . S
C76 O99 1.264 . S
O77 Mn72 2.095 . S
O77 C86 1.250 . S
O78 Mn73 2.121 . S
O78 C86 1.258 1_455 S
C79 N80 1.326 . S
C79 C83 1.460 . S
C79 H85 0.929 . S
N80 Mn73 2.257 . S
N80 C79 1.326 . S
N80 C84 1.362 . S
C81 C82 1.258 . S
C81 C84 1.431 . S
C81 C101 1.449 . S
C82 C81 1.258 . S
C82 C83 1.477 . S
C82 H102 0.931 . S
C83 C79 1.460 . S
C83 C82 1.477 . S
C83 H103 0.930 . S
C84 N80 1.362 . S
C84 C81 1.431 . S
C84 C94 1.476 . S
H85 C79 0.929 . S
C86 O77 1.250 . S
C86 O78 1.258 1_655 S
O87 Mn72 2.162 1_554 S
O87 C75 1.281 . S
O88 Mn72 2.297 1_454 S
O88 C75 1.236 1_455 S
N89 Mn73 2.282 . S
N89 C90 1.328 . S
N89 C94 1.318 . S
C90 N89 1.328 . S
C90 C91 1.457 . S
C90 H95 0.929 . S
C91 C90 1.457 . S
C91 C92 1.291 . S
C91 H104 0.931 . S
C92 C91 1.291 . S
C92 C93 1.373 . S
C92 H105 0.929 . S
C93 C92 1.373 . S
C93 C94 1.396 . S
C93 C100 1.403 . S
C94 C84 1.476 . S
C94 N89 1.318 . S
C94 C93 1.396 . S
H95 C90 0.929 . S
O96 Mn72 2.385 1_455 S
O96 C74 1.234 . S
O97 Mn72 2.209 1_455 S
O97 Mn73 2.215 . S
O97 C74 1.283 . S
O98 Mn72 2.094 . S
O98 C76 1.240 . S
O99 Mn73 2.117 1_655 S
O99 C76 1.264 . S
C100 C93 1.403 . S
C100 C101 1.399 . S
C100 H106 0.929 . S
C101 C81 1.449 . S
C101 C100 1.399 . S
C101 H107 0.930 . S
H102 C82 0.931 . S
H103 C83 0.930 . S
H104 C91 0.931 . S
H105 C92 0.929 . S
H106 C100 0.929 . S
H107 C101 0.930 . S
Mn108 O113 2.095 . S
Mn108 O123 2.162 . S
Mn108 O124 2.297 1_565 S
Mn108 O132 2.385 1_565 S
Mn108 O133 2.209 1_565 S
Mn108 O134 2.094 . S
Mn109 O114 2.121 . S
Mn109 N116 2.257 . S
Mn109 N125 2.282 . S
Mn109 O133 2.215 . S
Mn109 O135 2.117 1_545 S
C110 O132 1.234 . S
C110 O133 1.283 . S
C111 O123 1.281 . S
C111 O124 1.236 1_565 S
C112 O134 1.240 . S
C112 O135 1.264 . S
O113 Mn108 2.095 . S
O113 C122 1.250 . S
O114 Mn109 2.121 . S
O114 C122 1.258 1_545 S
C115 N116 1.326 . S
C115 C119 1.460 . S
C115 H121 0.929 . S
N116 Mn109 2.257 . S
N116 C115 1.326 . S
N116 C120 1.362 . S
C117 C118 1.258 . S
C117 C120 1.431 . S
C117 C137 1.449 . S
C118 C117 1.258 . S
C118 C119 1.477 . S
C118 H138 0.931 . S
C119 C115 1.460 . S
C119 C118 1.477 . S
C119 H139 0.930 . S
C120 N116 1.362 . S
C120 C117 1.431 . S
C120 C130 1.476 . S
H121 C115 0.929 . S
C122 O113 1.250 . S
C122 O114 1.258 1_565 S
O123 Mn108 2.162 . S
O123 C111 1.281 . S
O124 Mn108 2.297 1_545 S
O124 C111 1.236 1_545 S
N125 Mn109 2.282 . S
N125 C126 1.328 . S
N125 C130 1.318 . S
C126 N125 1.328 . S
C126 C127 1.457 . S
C126 H131 0.929 . S
C127 C126 1.457 . S
C127 C128 1.291 . S
C127 H140 0.931 . S
C128 C127 1.291 . S
C128 C129 1.373 . S
C128 H141 0.929 . S
C129 C128 1.373 . S
C129 C130 1.396 . S
C129 C136 1.403 . S
C130 C120 1.476 . S
C130 N125 1.318 . S
C130 C129 1.396 . S
H131 C126 0.929 . S
O132 Mn108 2.385 1_545 S
O132 C110 1.234 . S
O133 Mn108 2.209 1_545 S
O133 Mn109 2.215 . S
O133 C110 1.283 . S
O134 Mn108 2.094 . S
O134 C112 1.240 . S
O135 Mn109 2.117 1_565 S
O135 C112 1.264 . S
C136 C129 1.403 . S
C136 C137 1.399 . S
C136 H142 0.929 . S
C137 C117 1.449 . S
C137 C136 1.399 . S
C137 H143 0.930 . S
H138 C118 0.931 . S
H139 C119 0.930 . S
H140 C127 0.931 . S
H141 C128 0.929 . S
H142 C136 0.929 . S
H143 C137 0.930 . S
Mn144 O149 2.095 . S
Mn144 O159 2.162 . S
Mn144 O160 2.297 . S
Mn144 O168 2.385 . S
Mn144 O169 2.209 . S
Mn144 O170 2.094 . S
Mn145 O150 2.121 . S
Mn145 N152 2.257 . S
Mn145 N161 2.282 . S
Mn145 O169 2.215 . S
Mn145 O171 2.117 . S
C146 O168 1.234 . S
C146 O169 1.283 . S
C147 O159 1.281 . S
C147 O160 1.236 . S
C148 O170 1.240 . S
C148 O171 1.264 . S
O149 Mn144 2.095 . S
O149 C158 1.250 . S
O150 Mn145 2.121 . S
O150 C158 1.258 . S
C151 N152 1.326 . S
C151 C155 1.460 . S
C151 H157 0.929 . S
N152 Mn145 2.257 . S
N152 C151 1.326 . S
N152 C156 1.362 . S
C153 C154 1.258 . S
C153 C156 1.431 . S
C153 C173 1.449 . S
C154 C153 1.258 . S
C154 C155 1.477 . S
C154 H174 0.931 . S
C155 C151 1.460 . S
C155 C154 1.477 . S
C155 H175 0.930 . S
C156 N152 1.362 . S
C156 C153 1.431 . S
C156 C166 1.476 . S
H157 C151 0.929 . S
C158 O149 1.250 . S
C158 O150 1.258 . S
O159 Mn144 2.162 . S
O159 C147 1.281 . S
O160 Mn144 2.297 . S
O160 C147 1.236 . S
N161 Mn145 2.282 . S
N161 C162 1.328 . S
N161 C166 1.318 . S
C162 N161 1.328 . S
C162 C163 1.457 . S
C162 H167 0.929 . S
C163 C162 1.457 . S
C163 C164 1.291 . S
C163 H176 0.931 . S
C164 C163 1.291 . S
C164 C165 1.373 . S
C164 H177 0.929 . S
C165 C164 1.373 . S
C165 C166 1.396 . S
C165 C172 1.403 . S
C166 C156 1.476 . S
C166 N161 1.318 . S
C166 C165 1.396 . S
H167 C162 0.929 . S
O168 Mn144 2.385 . S
O168 C146 1.234 . S
O169 Mn144 2.209 . S
O169 Mn145 2.215 . S
O169 C146 1.283 . S
O170 Mn144 2.094 . S
O170 C148 1.240 . S
O171 Mn145 2.117 . S
O171 C148 1.264 . S
C172 C165 1.403 . S
C172 C173 1.399 . S
C172 H178 0.929 . S
C173 C153 1.449 . S
C173 C172 1.399 . S
C173 H179 0.930 . S
H174 C154 0.931 . S
H175 C155 0.930 . S
H176 C163 0.931 . S
H177 C164 0.929 . S
H178 C172 0.929 . S
H179 C173 0.930 . S
Mn180 O185 2.095 . S
Mn180 O195 2.162 1_556 S
Mn180 O196 2.297 1_456 S
Mn180 O204 2.385 1_455 S
Mn180 O205 2.209 1_455 S
Mn180 O206 2.094 . S
Mn181 O186 2.121 . S
Mn181 N188 2.257 . S
Mn181 N197 2.282 . S
Mn181 O205 2.215 . S
Mn181 O207 2.117 1_655 S
C182 O204 1.234 . S
C182 O205 1.283 . S
C183 O195 1.281 . S
C183 O196 1.236 1_455 S
C184 O206 1.240 . S
C184 O207 1.264 . S
O185 Mn180 2.095 . S
O185 C194 1.250 . S
O186 Mn181 2.121 . S
O186 C194 1.258 1_655 S
C187 N188 1.326 . S
C187 C191 1.460 . S
C187 H193 0.929 . S
N188 Mn181 2.257 . S
N188 C187 1.326 . S
N188 C192 1.362 . S
C189 C190 1.258 . S
C189 C192 1.431 . S
C189 C209 1.449 . S
C190 C189 1.258 . S
C190 C191 1.477 . S
C190 H210 0.931 . S
C191 C187 1.460 . S
C191 C190 1.477 . S
C191 H211 0.930 . S
C192 N188 1.362 . S
C192 C189 1.431 . S
C192 C202 1.476 . S
H193 C187 0.929 . S
C194 O185 1.250 . S
C194 O186 1.258 1_455 S
O195 Mn180 2.162 1_554 S
O195 C183 1.281 . S
O196 Mn180 2.297 1_654 S
O196 C183 1.236 1_655 S
N197 Mn181 2.282 . S
N197 C198 1.328 . S
N197 C202 1.318 . S
C198 N197 1.328 . S
C198 C199 1.457 . S
C198 H203 0.929 . S
C199 C198 1.457 . S
C199 C200 1.291 . S
C199 H212 0.931 . S
C200 C199 1.291 . S
C200 C201 1.373 . S
C200 H213 0.929 . S
C201 C200 1.373 . S
C201 C202 1.396 . S
C201 C208 1.403 . S
C202 C192 1.476 . S
C202 N197 1.318 . S
C202 C201 1.396 . S
H203 C198 0.929 . S
O204 Mn180 2.385 1_655 S
O204 C182 1.234 . S
O205 Mn180 2.209 1_655 S
O205 Mn181 2.215 . S
O205 C182 1.283 . S
O206 Mn180 2.094 . S
O206 C184 1.240 . S
O207 Mn181 2.117 1_455 S
O207 C184 1.264 . S
C208 C201 1.403 . S
C208 C209 1.399 . S
C208 H214 0.929 . S
C209 C189 1.449 . S
C209 C208 1.399 . S
C209 H215 0.930 . S
H210 C190 0.931 . S
H211 C191 0.930 . S
H212 C199 0.931 . S
H213 C200 0.929 . S
H214 C208 0.929 . S
H215 C209 0.930 . S
Mn216 O221 2.095 . S
Mn216 O231 2.162 . S
Mn216 O232 2.297 1_655 S
Mn216 O240 2.385 1_655 S
Mn216 O241 2.209 1_655 S
Mn216 O242 2.094 . S
Mn217 O222 2.121 . S
Mn217 N224 2.257 . S
Mn217 N233 2.282 . S
Mn217 O241 2.215 . S
Mn217 O243 2.117 1_455 S
C218 O240 1.234 . S
C218 O241 1.283 . S
C219 O231 1.281 . S
C219 O232 1.236 1_655 S
C220 O242 1.240 . S
C220 O243 1.264 . S
O221 Mn216 2.095 . S
O221 C230 1.250 . S
O222 Mn217 2.121 . S
O222 C230 1.258 1_455 S
C223 N224 1.326 . S
C223 C227 1.460 . S
C223 H229 0.929 . S
N224 Mn217 2.257 . S
N224 C223 1.326 . S
N224 C228 1.362 . S
C225 C226 1.258 . S
C225 C228 1.431 . S
C225 C245 1.449 . S
C226 C225 1.258 . S
C226 C227 1.477 . S
C226 H246 0.931 . S
C227 C223 1.460 . S
C227 C226 1.477 . S
C227 H247 0.930 . S
C228 N224 1.362 . S
C228 C225 1.431 . S
C228 C238 1.476 . S
H229 C223 0.929 . S
C230 O221 1.250 . S
C230 O222 1.258 1_655 S
O231 Mn216 2.162 . S
O231 C219 1.281 . S
O232 Mn216 2.297 1_455 S
O232 C219 1.236 1_455 S
N233 Mn217 2.282 . S
N233 C234 1.328 . S
N233 C238 1.318 . S
C234 N233 1.328 . S
C234 C235 1.457 . S
C234 H239 0.929 . S
C235 C234 1.457 . S
C235 C236 1.291 . S
C235 H248 0.931 . S
C236 C235 1.291 . S
C236 C237 1.373 . S
C236 H249 0.929 . S
C237 C236 1.373 . S
C237 C238 1.396 . S
C237 C244 1.403 . S
C238 C228 1.476 . S
C238 N233 1.318 . S
C238 C237 1.396 . S
H239 C234 0.929 . S
O240 Mn216 2.385 1_455 S
O240 C218 1.234 . S
O241 Mn216 2.209 1_455 S
O241 Mn217 2.215 . S
O241 C218 1.283 . S
O242 Mn216 2.094 . S
O242 C220 1.240 . S
O243 Mn217 2.117 1_655 S
O243 C220 1.264 . S
C244 C237 1.403 . S
C244 C245 1.399 . S
C244 H250 0.929 . S
C245 C225 1.449 . S
C245 C244 1.399 . S
C245 H251 0.930 . S
H246 C226 0.931 . S
H247 C227 0.930 . S
H248 C235 0.931 . S
H249 C236 0.929 . S
H250 C244 0.929 . S
H251 C245 0.930 . S
Mn252 O257 2.095 . S
Mn252 O267 2.162 . S
Mn252 O268 2.297 1_565 S
Mn252 O276 2.385 1_565 S
Mn252 O277 2.209 1_565 S
Mn252 O278 2.094 . S
Mn253 O258 2.121 . S
Mn253 N260 2.257 . S
Mn253 N269 2.282 . S
Mn253 O277 2.215 . S
Mn253 O279 2.117 1_545 S
C254 O276 1.234 . S
C254 O277 1.283 . S
C255 O267 1.281 . S
C255 O268 1.236 1_565 S
C256 O278 1.240 . S
C256 O279 1.264 . S
O257 Mn252 2.095 . S
O257 C266 1.250 . S
O258 Mn253 2.121 . S
O258 C266 1.258 1_545 S
C259 N260 1.326 . S
C259 C263 1.460 . S
C259 H265 0.929 . S
N260 Mn253 2.257 . S
N260 C259 1.326 . S
N260 C264 1.362 . S
C261 C262 1.258 . S
C261 C264 1.431 . S
C261 C281 1.449 . S
C262 C261 1.258 . S
C262 C263 1.477 . S
C262 H282 0.931 . S
C263 C259 1.460 . S
C263 C262 1.477 . S
C263 H283 0.930 . S
C264 N260 1.362 . S
C264 C261 1.431 . S
C264 C274 1.476 . S
H265 C259 0.929 . S
C266 O257 1.250 . S
C266 O258 1.258 1_565 S
O267 Mn252 2.162 . S
O267 C255 1.281 . S
O268 Mn252 2.297 1_545 S
O268 C255 1.236 1_545 S
N269 Mn253 2.282 . S
N269 C270 1.328 . S
N269 C274 1.318 . S
C270 N269 1.328 . S
C270 C271 1.457 . S
C270 H275 0.929 . S
C271 C270 1.457 . S
C271 C272 1.291 . S
C271 H284 0.931 . S
C272 C271 1.291 . S
C272 C273 1.373 . S
C272 H285 0.929 . S
C273 C272 1.373 . S
C273 C274 1.396 . S
C273 C280 1.403 . S
C274 C264 1.476 . S
C274 N269 1.318 . S
C274 C273 1.396 . S
H275 C270 0.929 . S
O276 Mn252 2.385 1_545 S
O276 C254 1.234 . S
O277 Mn252 2.209 1_545 S
O277 Mn253 2.215 . S
O277 C254 1.283 . S
O278 Mn252 2.094 . S
O278 C256 1.240 . S
O279 Mn253 2.117 1_565 S
O279 C256 1.264 . S
C280 C273 1.403 . S
C280 C281 1.399 . S
C280 H286 0.929 . S
C281 C261 1.449 . S
C281 C280 1.399 . S
C281 H287 0.930 . S
H282 C262 0.931 . S
H283 C263 0.930 . S
H284 C271 0.931 . S
H285 C272 0.929 . S
H286 C280 0.929 . S
H287 C281 0.930 . S
Mn288 O293 2.095 . S
Mn288 O303 2.162 1_554 S
Mn288 O304 2.297 1_554 S
Mn288 O312 2.385 . S
Mn288 O313 2.209 . S
Mn288 O314 2.094 . S
Mn289 O294 2.121 . S
Mn289 N296 2.257 . S
Mn289 N305 2.282 . S
Mn289 O313 2.215 . S
Mn289 O315 2.117 . S
C290 O312 1.234 . S
C290 O313 1.283 . S
C291 O303 1.281 . S
C291 O304 1.236 . S
C292 O314 1.240 . S
C292 O315 1.264 . S
O293 Mn288 2.095 . S
O293 C302 1.250 . S
O294 Mn289 2.121 . S
O294 C302 1.258 . S
C295 N296 1.326 . S
C295 C299 1.460 . S
C295 H301 0.929 . S
N296 Mn289 2.257 . S
N296 C295 1.326 . S
N296 C300 1.362 . S
C297 C298 1.258 . S
C297 C300 1.431 . S
C297 C317 1.449 . S
C298 C297 1.258 . S
C298 C299 1.477 . S
C298 H318 0.931 . S
C299 C295 1.460 . S
C299 C298 1.477 . S
C299 H319 0.930 . S
C300 N296 1.362 . S
C300 C297 1.431 . S
C300 C310 1.476 . S
H301 C295 0.929 . S
C302 O293 1.250 . S
C302 O294 1.258 . S
O303 Mn288 2.162 1_556 S
O303 C291 1.281 . S
O304 Mn288 2.297 1_556 S
O304 C291 1.236 . S
N305 Mn289 2.282 . S
N305 C306 1.328 . S
N305 C310 1.318 . S
C306 N305 1.328 . S
C306 C307 1.457 . S
C306 H311 0.929 . S
C307 C306 1.457 . S
C307 C308 1.291 . S
C307 H320 0.931 . S
C308 C307 1.291 . S
C308 C309 1.373 . S
C308 H321 0.929 . S
C309 C308 1.373 . S
C309 C310 1.396 . S
C309 C316 1.403 . S
C310 C300 1.476 . S
C310 N305 1.318 . S
C310 C309 1.396 . S
H311 C306 0.929 . S
O312 Mn288 2.385 . S
O312 C290 1.234 . S
O313 Mn288 2.209 . S
O313 Mn289 2.215 . S
O313 C290 1.283 . S
O314 Mn288 2.094 . S
O314 C292 1.240 . S
O315 Mn289 2.117 . S
O315 C292 1.264 . S
C316 C309 1.403 . S
C316 C317 1.399 . S
C316 H322 0.929 . S
C317 C297 1.449 . S
C317 C316 1.399 . S
C317 H323 0.930 . S
H318 C298 0.931 . S
H319 C299 0.930 . S
H320 C307 0.931 . S
H321 C308 0.929 . S
H322 C316 0.929 . S
H323 C317 0.930 . S
Mn324 O329 2.095 . S
Mn324 O339 2.162 . S
Mn324 O340 2.297 1_455 S
Mn324 O348 2.385 1_455 S
Mn324 O349 2.209 1_455 S
Mn324 O350 2.094 . S
Mn325 O330 2.121 . S
Mn325 N332 2.257 . S
Mn325 N341 2.282 . S
Mn325 O349 2.215 . S
Mn325 O351 2.117 1_655 S
C326 O348 1.234 . S
C326 O349 1.283 . S
C327 O339 1.281 . S
C327 O340 1.236 1_455 S
C328 O350 1.240 . S
C328 O351 1.264 . S
O329 Mn324 2.095 . S
O329 C338 1.250 . S
O330 Mn325 2.121 . S
O330 C338 1.258 1_655 S
C331 N332 1.326 . S
C331 C335 1.460 . S
C331 H337 0.929 . S
N332 Mn325 2.257 . S
N332 C331 1.326 . S
N332 C336 1.362 . S
C333 C334 1.258 . S
C333 C336 1.431 . S
C333 C353 1.449 . S
C334 C333 1.258 . S
C334 C335 1.477 . S
C334 H354 0.931 . S
C335 C331 1.460 . S
C335 C334 1.477 . S
C335 H355 0.930 . S
C336 N332 1.362 . S
C336 C333 1.431 . S
C336 C346 1.476 . S
H337 C331 0.929 . S
C338 O329 1.250 . S
C338 O330 1.258 1_455 S
O339 Mn324 2.162 . S
O339 C327 1.281 . S
O340 Mn324 2.297 1_655 S
O340 C327 1.236 1_655 S
N341 Mn325 2.282 . S
N341 C342 1.328 . S
N341 C346 1.318 . S
C342 N341 1.328 . S
C342 C343 1.457 . S
C342 H347 0.929 . S
C343 C342 1.457 . S
C343 C344 1.291 . S
C343 H356 0.931 . S
C344 C343 1.291 . S
C344 C345 1.373 . S
C344 H357 0.929 . S
C345 C344 1.373 . S
C345 C346 1.396 . S
C345 C352 1.403 . S
C346 C336 1.476 . S
C346 N341 1.318 . S
C346 C345 1.396 . S
H347 C342 0.929 . S
O348 Mn324 2.385 1_655 S
O348 C326 1.234 . S
O349 Mn324 2.209 1_655 S
O349 Mn325 2.215 . S
O349 C326 1.283 . S
O350 Mn324 2.094 . S
O350 C328 1.240 . S
O351 Mn325 2.117 1_455 S
O351 C328 1.264 . S
C352 C345 1.403 . S
C352 C353 1.399 . S
C352 H358 0.929 . S
C353 C333 1.449 . S
C353 C352 1.399 . S
C353 H359 0.930 . S
H354 C334 0.931 . S
H355 C335 0.930 . S
H356 C343 0.931 . S
H357 C344 0.929 . S
H358 C352 0.929 . S
H359 C353 0.930 . S
Mn360 O365 2.095 . S
Mn360 O375 2.162 . S
Mn360 O376 2.297 1_545 S
Mn360 O384 2.385 1_545 S
Mn360 O385 2.209 1_545 S
Mn360 O386 2.094 . S
Mn361 O366 2.121 . S
Mn361 N368 2.257 . S
Mn361 N377 2.282 . S
Mn361 O385 2.215 . S
Mn361 O387 2.117 1_565 S
C362 O384 1.234 . S
C362 O385 1.283 . S
C363 O375 1.281 . S
C363 O376 1.236 1_545 S
C364 O386 1.240 . S
C364 O387 1.264 . S
O365 Mn360 2.095 . S
O365 C374 1.250 . S
O366 Mn361 2.121 . S
O366 C374 1.258 1_565 S
C367 N368 1.326 . S
C367 C371 1.460 . S
C367 H373 0.929 . S
N368 Mn361 2.257 . S
N368 C367 1.326 . S
N368 C372 1.362 . S
C369 C370 1.258 . S
C369 C372 1.431 . S
C369 C389 1.449 . S
C370 C369 1.258 . S
C370 C371 1.477 . S
C370 H390 0.931 . S
C371 C367 1.460 . S
C371 C370 1.477 . S
C371 H391 0.930 . S
C372 N368 1.362 . S
C372 C369 1.431 . S
C372 C382 1.476 . S
H373 C367 0.929 . S
C374 O365 1.250 . S
C374 O366 1.258 1_545 S
O375 Mn360 2.162 . S
O375 C363 1.281 . S
O376 Mn360 2.297 1_565 S
O376 C363 1.236 1_565 S
N377 Mn361 2.282 . S
N377 C378 1.328 . S
N377 C382 1.318 . S
C378 N377 1.328 . S
C378 C379 1.457 . S
C378 H383 0.929 . S
C379 C378 1.457 . S
C379 C380 1.291 . S
C379 H392 0.931 . S
C380 C379 1.291 . S
C380 C381 1.373 . S
C380 H393 0.929 . S
C381 C380 1.373 . S
C381 C382 1.396 . S
C381 C388 1.403 . S
C382 C372 1.476 . S
C382 N377 1.318 . S
C382 C381 1.396 . S
H383 C378 0.929 . S
O384 Mn360 2.385 1_565 S
O384 C362 1.234 . S
O385 Mn360 2.209 1_565 S
O385 Mn361 2.215 . S
O385 C362 1.283 . S
O386 Mn360 2.094 . S
O386 C364 1.240 . S
O387 Mn361 2.117 1_545 S
O387 C364 1.264 . S
C388 C381 1.403 . S
C388 C389 1.399 . S
C388 H394 0.929 . S
C389 C369 1.449 . S
C389 C388 1.399 . S
C389 H395 0.930 . S
H390 C370 0.931 . S
H391 C371 0.930 . S
H392 C379 0.931 . S
H393 C380 0.929 . S
H394 C388 0.929 . S
H395 C389 0.930 . S
Mn396 O401 2.095 . S
Mn396 O411 2.162 1_554 S
Mn396 O412 2.297 1_554 S
Mn396 O420 2.385 . S
Mn396 O421 2.209 . S
Mn396 O422 2.094 . S
Mn397 O402 2.121 . S
Mn397 N404 2.257 . S
Mn397 N413 2.282 . S
Mn397 O421 2.215 . S
Mn397 O423 2.117 . S
C398 O420 1.234 . S
C398 O421 1.283 . S
C399 O411 1.281 . S
C399 O412 1.236 . S
C400 O422 1.240 . S
C400 O423 1.264 . S
O401 Mn396 2.095 . S
O401 C410 1.250 . S
O402 Mn397 2.121 . S
O402 C410 1.258 . S
C403 N404 1.326 . S
C403 C407 1.460 . S
C403 H409 0.929 . S
N404 Mn397 2.257 . S
N404 C403 1.326 . S
N404 C408 1.362 . S
C405 C406 1.258 . S
C405 C408 1.431 . S
C405 C425 1.449 . S
C406 C405 1.258 . S
C406 C407 1.477 . S
C406 H426 0.931 . S
C407 C403 1.460 . S
C407 C406 1.477 . S
C407 H427 0.930 . S
C408 N404 1.362 . S
C408 C405 1.431 . S
C408 C418 1.476 . S
H409 C403 0.929 . S
C410 O401 1.250 . S
C410 O402 1.258 . S
O411 Mn396 2.162 1_556 S
O411 C399 1.281 . S
O412 Mn396 2.297 1_556 S
O412 C399 1.236 . S
N413 Mn397 2.282 . S
N413 C414 1.328 . S
N413 C418 1.318 . S
C414 N413 1.328 . S
C414 C415 1.457 . S
C414 H419 0.929 . S
C415 C414 1.457 . S
C415 C416 1.291 . S
C415 H428 0.931 . S
C416 C415 1.291 . S
C416 C417 1.373 . S
C416 H429 0.929 . S
C417 C416 1.373 . S
C417 C418 1.396 . S
C417 C424 1.403 . S
C418 C408 1.476 . S
C418 N413 1.318 . S
C418 C417 1.396 . S
H419 C414 0.929 . S
O420 Mn396 2.385 . S
O420 C398 1.234 . S
O421 Mn396 2.209 . S
O421 Mn397 2.215 . S
O421 C398 1.283 . S
O422 Mn396 2.094 . S
O422 C400 1.240 . S
O423 Mn397 2.117 . S
O423 C400 1.264 . S
C424 C417 1.403 . S
C424 C425 1.399 . S
C424 H430 0.929 . S
C425 C405 1.449 . S
C425 C424 1.399 . S
C425 H431 0.930 . S
H426 C406 0.931 . S
H427 C407 0.930 . S
H428 C415 0.931 . S
H429 C416 0.929 . S
H430 C424 0.929 . S
H431 C425 0.930 . S
C432 C433 1.369 . S
C432 C434 1.419 . S
C432 H436 0.930 . S
C433 C432 1.369 . S
C433 C442 1.429 . S
C434 C432 1.419 . S
C434 C435 1.363 . S
C434 H437 0.929 . S
C435 C434 1.363 . S
C435 C441 1.428 . S
H436 C432 0.930 . S
H437 C434 0.929 . S
S438 N439 1.613 . S
S438 N440 1.610 . S
N439 S438 1.613 . S
N439 C442 1.350 . S
N440 S438 1.610 . S
N440 C441 1.351 . S
C441 C435 1.428 . S
C441 N440 1.351 . S
C441 C442 1.434 . S
C442 C433 1.429 . S
C442 N439 1.350 . S
C442 C441 1.434 . S
C443 C444 1.369 . S
C443 C445 1.419 . S
C443 H447 0.930 . S
C444 C443 1.369 . S
C444 C453 1.429 . S
C445 C443 1.419 . S
C445 C446 1.363 . S
C445 H448 0.929 . S
C446 C445 1.363 . S
C446 C452 1.428 . S
H447 C443 0.930 . S
H448 C445 0.929 . S
S449 N450 1.613 . S
S449 N451 1.610 . S
N450 S449 1.613 . S
N450 C453 1.350 . S
N451 S449 1.610 . S
N451 C452 1.351 . S
C452 C446 1.428 . S
C452 N451 1.351 . S
C452 C453 1.434 . S
C453 C444 1.429 . S
C453 N450 1.350 . S
C453 C452 1.434 . S
C454 C455 1.369 . S
C454 C456 1.419 . S
C454 H458 0.930 . S
C455 C454 1.369 . S
C455 C464 1.429 . S
C456 C454 1.419 . S
C456 C457 1.363 . S
C456 H459 0.929 . S
C457 C456 1.363 . S
C457 C463 1.428 . S
H458 C454 0.930 . S
H459 C456 0.929 . S
S460 N461 1.613 . S
S460 N462 1.610 . S
N461 S460 1.613 . S
N461 C464 1.350 . S
N462 S460 1.610 . S
N462 C463 1.351 . S
C463 C457 1.428 . S
C463 N462 1.351 . S
C463 C464 1.434 . S
C464 C455 1.429 . S
C464 N461 1.350 . S
C464 C463 1.434 . S
C465 C466 1.369 . S
C465 C467 1.419 . S
C465 H469 0.930 . S
C466 C465 1.369 . S
C466 C475 1.429 . S
C467 C465 1.419 . S
C467 C468 1.363 . S
C467 H470 0.929 . S
C468 C467 1.363 . S
C468 C474 1.428 . S
H469 C465 0.930 . S
H470 C467 0.929 . S
S471 N472 1.613 . S
S471 N473 1.610 . S
N472 S471 1.613 . S
N472 C475 1.350 . S
N473 S471 1.610 . S
N473 C474 1.351 . S
C474 C468 1.428 . S
C474 N473 1.351 . S
C474 C475 1.434 . S
C475 C466 1.429 . S
C475 N472 1.350 . S
C475 C474 1.434 . S
C476 C477 1.369 . S
C476 C478 1.419 . S
C476 H480 0.930 . S
C477 C476 1.369 . S
C477 C486 1.429 . S
C478 C476 1.419 . S
C478 C479 1.363 . S
C478 H481 0.929 . S
C479 C478 1.363 . S
C479 C485 1.428 . S
H480 C476 0.930 . S
H481 C478 0.929 . S
S482 N483 1.613 . S
S482 N484 1.610 . S
N483 S482 1.613 . S
N483 C486 1.350 . S
N484 S482 1.610 . S
N484 C485 1.351 . S
C485 C479 1.428 . S
C485 N484 1.351 . S
C485 C486 1.434 . S
C486 C477 1.429 . S
C486 N483 1.350 . S
C486 C485 1.434 . S
C487 C488 1.369 . S
C487 C489 1.419 . S
C487 H491 0.930 . S
C488 C487 1.369 . S
C488 C497 1.429 . S
C489 C487 1.419 . S
C489 C490 1.363 . S
C489 H492 0.929 . S
C490 C489 1.363 . S
C490 C496 1.428 . S
H491 C487 0.930 . S
H492 C489 0.929 . S
S493 N494 1.613 . S
S493 N495 1.610 . S
N494 S493 1.613 . S
N494 C497 1.350 . S
N495 S493 1.610 . S
N495 C496 1.351 . S
C496 C490 1.428 . S
C496 N495 1.351 . S
C496 C497 1.434 . S
C497 C488 1.429 . S
C497 N494 1.350 . S
C497 C496 1.434 . S
C498 C499 1.369 1_565 S
C498 C500 1.419 . S
C498 H502 0.930 . S
C499 C498 1.369 1_545 S
C499 C508 1.429 . S
C500 C498 1.419 . S
C500 C501 1.363 . S
C500 H503 0.929 . S
C501 C500 1.363 . S
C501 C507 1.428 1_565 S
H502 C498 0.930 . S
H503 C500 0.929 . S
S504 N505 1.613 . S
S504 N506 1.610 . S
N505 S504 1.613 . S
N505 C508 1.350 . S
N506 S504 1.610 . S
N506 C507 1.351 . S
C507 C501 1.428 1_545 S
C507 N506 1.351 . S
C507 C508 1.434 . S
C508 C499 1.429 . S
C508 N505 1.350 . S
C508 C507 1.434 . S
C509 C510 1.369 . S
C509 C511 1.419 . S
C509 H513 0.930 . S
C510 C509 1.369 . S
C510 C519 1.429 . S
C511 C509 1.419 . S
C511 C512 1.363 . S
C511 H514 0.929 . S
C512 C511 1.363 . S
C512 C518 1.428 . S
H513 C509 0.930 . S
H514 C511 0.929 . S
S515 N516 1.613 . S
S515 N517 1.610 . S
N516 S515 1.613 . S
N516 C519 1.350 . S
N517 S515 1.610 . S
N517 C518 1.351 . S
C518 C512 1.428 . S
C518 N517 1.351 . S
C518 C519 1.434 . S
C519 C510 1.429 . S
C519 N516 1.350 . S
C519 C518 1.434 . S
C520 C521 1.369 1_655 S
C520 C522 1.419 . S
C520 H524 0.930 1_556 S
C521 C520 1.369 1_455 S
C521 C530 1.429 . S
C522 C520 1.419 . S
C522 C523 1.363 . S
C522 H525 0.929 1_556 S
C523 C522 1.363 . S
C523 C529 1.428 1_655 S
H524 C520 0.930 1_554 S
H525 C522 0.929 1_554 S
S526 N527 1.613 . S
S526 N528 1.610 . S
N527 S526 1.613 . S
N527 C530 1.350 . S
N528 S526 1.610 . S
N528 C529 1.351 . S
C529 C523 1.428 1_455 S
C529 N528 1.351 . S
C529 C530 1.434 . S
C530 C521 1.429 . S
C530 N527 1.350 . S
C530 C529 1.434 . S
C531 C532 1.373 . S
C531 C533 1.413 1_655 S
C531 H535 0.933 1_655 S
C532 C531 1.373 . S
C532 C541 1.429 . S
C533 C531 1.413 1_455 S
C533 C534 1.363 . S
C533 H536 0.929 . S
C534 C533 1.363 . S
C534 C540 1.421 1_455 S
H535 C531 0.933 1_455 S
H536 C533 0.929 . S
S537 N538 1.613 . S
S537 N539 1.610 . S
N538 S537 1.613 . S
N538 C541 1.350 . S
N539 S537 1.610 . S
N539 C540 1.348 . S
C540 C534 1.421 1_655 S
C540 N539 1.348 . S
C540 C541 1.447 . S
C541 C532 1.429 . S
C541 N538 1.350 . S
C541 C540 1.447 . S
C542 C543 1.369 1_565 S
C542 C544 1.419 . S
C542 H546 0.930 . S
C543 C542 1.369 1_545 S
C543 C552 1.429 . S
C544 C542 1.419 . S
C544 C545 1.363 . S
C544 H547 0.929 . S
C545 C544 1.363 . S
C545 C551 1.428 1_565 S
H546 C542 0.930 . S
H547 C544 0.929 . S
S548 N549 1.613 . S
S548 N550 1.610 . S
N549 S548 1.613 . S
N549 C552 1.350 . S
N550 S548 1.610 . S
N550 C551 1.351 . S
C551 C545 1.428 1_545 S
C551 N550 1.351 . S
C551 C552 1.434 . S
C552 C543 1.429 . S
C552 N549 1.350 . S
C552 C551 1.434 . S
C553 C554 1.369 . S
C553 C555 1.419 . S
C553 H557 0.930 . S
C554 C553 1.369 . S
C554 C563 1.429 . S
C555 C553 1.419 . S
C555 C556 1.363 . S
C555 H558 0.929 . S
C556 C555 1.363 . S
C556 C562 1.428 . S
H557 C553 0.930 . S
H558 C555 0.929 . S
S559 N560 1.613 . S
S559 N561 1.610 . S
N560 S559 1.613 . S
N560 C563 1.350 1_556 S
N561 S559 1.610 . S
N561 C562 1.351 1_556 S
C562 C556 1.428 . S
C562 N561 1.351 1_554 S
C562 C563 1.434 . S
C563 C554 1.429 . S
C563 N560 1.350 1_554 S
C563 C562 1.434 . S
C564 C565 1.369 . S
C564 C566 1.419 . S
C564 H568 0.930 . S
C565 C564 1.369 . S
C565 C574 1.429 . S
C566 C564 1.419 . S
C566 C567 1.363 . S
C566 H569 0.929 . S
C567 C566 1.363 . S
C567 C573 1.428 . S
H568 C564 0.930 . S
H569 C566 0.929 . S
S570 N571 1.613 . S
S570 N572 1.610 . S
N571 S570 1.613 . S
N571 C574 1.350 . S
N572 S570 1.610 . S
N572 C573 1.351 . S
C573 C567 1.428 . S
C573 N572 1.351 . S
C573 C574 1.434 . S
C574 C565 1.429 . S
C574 N571 1.350 . S
C574 C573 1.434 . S
C575 C576 1.369 . S
C575 C577 1.419 . S
C575 H579 0.930 . S
C576 C575 1.369 . S
C576 C585 1.429 . S
C577 C575 1.419 . S
C577 C578 1.363 . S
C577 H580 0.929 . S
C578 C577 1.363 . S
C578 C584 1.428 . S
H579 C575 0.930 . S
H580 C577 0.929 . S
S581 N582 1.613 . S
S581 N583 1.610 . S
N582 S581 1.613 . S
N582 C585 1.350 . S
N583 S581 1.610 . S
N583 C584 1.351 . S
C584 C578 1.428 . S
C584 N583 1.351 . S
C584 C585 1.434 . S
C585 C576 1.429 . S
C585 N582 1.350 . S
C585 C584 1.434 . S
C586 C587 1.369 1_556 S
C586 C588 1.419 . S
C586 H590 0.930 . S
C587 C586 1.369 1_554 S
C587 C596 1.429 . S
C588 C586 1.419 . S
C588 C589 1.363 . S
C588 H591 0.929 . S
C589 C588 1.363 . S
C589 C595 1.428 1_556 S
H590 C586 0.930 . S
H591 C588 0.929 . S
S592 N593 1.613 . S
S592 N594 1.610 . S
N593 S592 1.613 . S
N593 C596 1.350 . S
N594 S592 1.610 . S
N594 C595 1.351 . S
C595 C589 1.428 1_554 S
C595 N594 1.351 . S
C595 C596 1.434 . S
C596 C587 1.429 . S
C596 N593 1.350 . S
C596 C595 1.434 . S
C597 C598 1.369 . S
C597 C599 1.419 . S
C597 H601 0.930 . S
C598 C597 1.369 . S
C598 C607 1.429 . S
C599 C597 1.419 . S
C599 C600 1.363 . S
C599 H602 0.929 . S
C600 C599 1.363 . S
C600 C606 1.428 . S
H601 C597 0.930 . S
H602 C599 0.929 . S
S603 N604 1.613 . S
S603 N605 1.610 . S
N604 S603 1.613 . S
N604 C607 1.350 . S
N605 S603 1.610 . S
N605 C606 1.351 . S
C606 C600 1.428 . S
C606 N605 1.351 . S
C606 C607 1.434 . S
C607 C598 1.429 . S
C607 N604 1.350 . S
C607 C606 1.434 . S
C608 C609 1.369 . S
C608 C610 1.419 . S
C608 H612 0.930 . S
C609 C608 1.369 . S
C609 C618 1.429 . S
C610 C608 1.419 . S
C610 C611 1.363 . S
C610 H613 0.929 . S
C611 C610 1.363 . S
C611 C617 1.428 . S
H612 C608 0.930 . S
H613 C610 0.929 . S
S614 N615 1.613 . S
S614 N616 1.610 . S
N615 S614 1.613 . S
N615 C618 1.350 . S
N616 S614 1.610 . S
N616 C617 1.351 . S
C617 C611 1.428 . S
C617 N616 1.351 . S
C617 C618 1.434 . S
C618 C609 1.429 . S
C618 N615 1.350 . S
C618 C617 1.434 . S
C619 C620 1.369 1_556 S
C619 C621 1.419 . S
C619 H623 0.930 . S
C620 C619 1.369 1_554 S
C620 C629 1.429 . S
C621 C619 1.419 . S
C621 C622 1.363 . S
C621 H624 0.929 . S
C622 C621 1.363 . S
C622 C628 1.428 1_556 S
H623 C619 0.930 . S
H624 C621 0.929 . S
S625 N626 1.613 . S
S625 N627 1.610 . S
N626 S625 1.613 . S
N626 C629 1.350 . S
N627 S625 1.610 . S
N627 C628 1.351 . S
C628 C622 1.428 1_554 S
C628 N627 1.351 . S
C628 C629 1.434 . S
C629 C620 1.429 . S
C629 N626 1.350 . S
C629 C628 1.434 . S
C630 C631 1.369 . S
C630 C632 1.419 . S
C630 H634 0.930 . S
C631 C630 1.369 . S
C631 C640 1.429 1_545 S
C632 C630 1.419 . S
C632 C633 1.363 1_545 S
C632 H635 0.929 . S
C633 C632 1.363 1_565 S
C633 C639 1.428 . S
H634 C630 0.930 . S
H635 C632 0.929 . S
S636 N637 1.613 . S
S636 N638 1.610 . S
N637 S636 1.613 . S
N637 C640 1.350 . S
N638 S636 1.610 . S
N638 C639 1.351 . S
C639 C633 1.428 . S
C639 N638 1.351 . S
C639 C640 1.434 . S
C640 C631 1.429 1_565 S
C640 N637 1.350 . S
C640 C639 1.434 . S
C641 C642 1.369 . S
C641 C643 1.419 . S
C641 H645 0.930 . S
C642 C641 1.369 . S
C642 C651 1.429 . S
C643 C641 1.419 . S
C643 C644 1.363 . S
C643 H646 0.929 . S
C644 C643 1.363 . S
C644 C650 1.428 . S
H645 C641 0.930 . S
H646 C643 0.929 . S
S647 N648 1.613 . S
S647 N649 1.610 . S
N648 S647 1.613 . S
N648 C651 1.350 . S
N649 S647 1.610 . S
N649 C650 1.351 . S
C650 C644 1.428 . S
C650 N649 1.351 . S
C650 C651 1.434 . S
C651 C642 1.429 . S
C651 N648 1.350 . S
C651 C650 1.434 . S
C652 C653 1.369 . S
C652 C654 1.419 . S
C652 H656 0.930 . S
C653 C652 1.369 . S
C653 C662 1.429 1_455 S
C654 C652 1.419 . S
C654 C655 1.363 1_455 S
C654 H657 0.929 . S
C655 C654 1.363 1_655 S
C655 C661 1.428 . S
H656 C652 0.930 . S
H657 C654 0.929 . S
S658 N659 1.613 . S
S658 N660 1.610 . S
N659 S658 1.613 . S
N659 C662 1.350 . S
N660 S658 1.610 . S
N660 C661 1.351 . S
C661 C655 1.428 . S
C661 N660 1.351 . S
C661 C662 1.434 . S
C662 C653 1.429 1_655 S
C662 N659 1.350 . S
C662 C661 1.434 . S
C663 C664 1.369 . S
C663 C665 1.419 1_565 S
C663 H667 0.930 . S
C664 C663 1.369 . S
C664 C673 1.429 . S
C665 C663 1.419 1_545 S
C665 C666 1.363 . S
C665 H668 0.929 . S
C666 C665 1.363 . S
C666 C672 1.428 . S
H667 C663 0.930 . S
H668 C665 0.929 . S
S669 N670 1.613 . S
S669 N671 1.610 1_565 S
N670 S669 1.613 . S
N670 C673 1.350 . S
N671 S669 1.610 1_545 S
N671 C672 1.351 . S
C672 C666 1.428 . S
C672 N671 1.351 . S
C672 C673 1.434 1_545 S
C673 C664 1.429 . S
C673 N670 1.350 . S
C673 C672 1.434 1_565 S
C674 C675 1.369 . S
C674 C676 1.419 . S
C674 H678 0.930 . S
C675 C674 1.369 . S
C675 C684 1.429 . S
C676 C674 1.419 . S
C676 C677 1.363 . S
C676 H679 0.929 . S
C677 C676 1.363 . S
C677 C683 1.428 . S
H678 C674 0.930 . S
H679 C676 0.929 . S
S680 N681 1.613 . S
S680 N682 1.610 . S
N681 S680 1.613 . S
N681 C684 1.350 . S
N682 S680 1.610 . S
N682 C683 1.351 . S
C683 C677 1.428 . S
C683 N682 1.351 . S
C683 C684 1.434 . S
C684 C675 1.429 . S
C684 N681 1.350 . S
C684 C683 1.434 . S
C685 C686 1.369 . S
C685 C687 1.419 . S
C685 H689 0.930 . S
C686 C685 1.369 . S
C686 C695 1.429 1_655 S
C687 C685 1.419 . S
C687 C688 1.363 1_655 S
C687 H690 0.929 . S
C688 C687 1.363 1_455 S
C688 C694 1.428 . S
H689 C685 0.930 . S
H690 C687 0.929 . S
S691 N692 1.613 . S
S691 N693 1.610 . S
N692 S691 1.613 . S
N692 C695 1.350 . S
N693 S691 1.610 . S
N693 C694 1.351 . S
C694 C688 1.428 . S
C694 N693 1.351 . S
C694 C695 1.434 . S
C695 C686 1.429 1_455 S
C695 N692 1.350 . S
C695 C694 1.434 . S
C433 C4 1.681 . S
C435 C292 1.682 . S
C444 C40 1.683 . S
C446 C328 1.682 . S
C455 C364 1.681 . S
C457 C76 1.682 . S
C466 C400 1.681 . S
C468 C112 1.683 . S
C477 C220 1.682 . S
C479 C148 1.681 . S
C488 C256 1.681 . S
C490 C184 1.682 . S
C499 C14 1.516 . S
C501 C122 1.516 . S
C510 C158 1.515 . S
C512 C50 1.518 . S
C521 C194 1.516 . S
C523 C86 1.515 . S
C532 C230 1.521 . S
C534 C338 1.519 . S
C543 C374 1.521 . S
C545 C266 1.519 . S
C554 C302 1.521 . S
C556 C410 1.518 . S
C565 C218 1.086 . S
C567 C2 1.099 . S
C576 C38 1.093 . S
C578 C254 1.091 . S
C587 C290 1.093 . S
C589 C74 1.091 . S
C598 C326 1.097 . S
C600 C110 1.088 . S
C609 C146 1.092 . S
C611 C362 1.098 . S
C620 C398 1.096 . S
C622 C182 1.089 . S
C631 C3 1.196 . S
C633 C255 1.203 . S
C642 C291 1.196 . S
C644 C39 1.202 . S
C653 C327 1.200 . S
C655 C75 1.202 . S
C664 C111 1.202 . S
C666 C363 1.200 . S
C675 C399 1.203 . S
C677 C147 1.199 . S
C686 C219 1.201 . S
C688 C183 1.200 . S
