# Generated by pormake.
# Topology ecm, (8)-cn, num edge types: 1
# Building blocks:
#     Node 0, Type 0, BuildingBlock: TAGTUT_clean_sbu_1, # of connection points: 8
#     Node 1, Type 0, BuildingBlock: TAGTUT_clean_sbu_1, # of connection points: 8
#     Node 2, Type 0, BuildingBlock: TAGTUT_clean_sbu_1, # of connection points: 8
#     Node 3, Type 0, BuildingBlock: TAGTUT_clean_sbu_1, # of connection points: 8
#     Node 4, Type 0, BuildingBlock: TAGTUT_clean_sbu_1, # of connection points: 8
#     Node 5, Type 0, BuildingBlock: TAGTUT_clean_sbu_1, # of connection points: 8
#     Node 6, Type 0, BuildingBlock: TAGTUT_clean_sbu_1, # of connection points: 8
#     Node 7, Type 0, BuildingBlock: TAGTUT_clean_sbu_1, # of connection points: 8
#     Edge 8, Type (0, 0), BuildingBlock: XUDNAN_clean_linker_2, # of connection points: 2
#     Edge 9, Type (0, 0), BuildingBlock: XUDNAN_clean_linker_2, # of connection points: 2
#     Edge 10, Type (0, 0), BuildingBlock: XUDNAN_clean_linker_2, # of connection points: 2
#     Edge 11, Type (0, 0), BuildingBlock: XUDNAN_clean_linker_2, # of connection points: 2
#     Edge 12, Type (0, 0), BuildingBlock: XUDNAN_clean_linker_2, # of connection points: 2
#     Edge 13, Type (0, 0), BuildingBlock: XUDNAN_clean_linker_2, # of connection points: 2
#     Edge 14, Type (0, 0), BuildingBlock: XUDNAN_clean_linker_2, # of connection points: 2
#     Edge 15, Type (0, 0), BuildingBlock: XUDNAN_clean_linker_2, # of connection points: 2
#     Edge 16, Type (0, 0), BuildingBlock: XUDNAN_clean_linker_2, # of connection points: 2
#     Edge 17, Type (0, 0), BuildingBlock: XUDNAN_clean_linker_2, # of connection points: 2
#     Edge 18, Type (0, 0), BuildingBlock: XUDNAN_clean_linker_2, # of connection points: 2
#     Edge 19, Type (0, 0), BuildingBlock: XUDNAN_clean_linker_2, # of connection points: 2
#     Edge 20, Type (0, 0), BuildingBlock: XUDNAN_clean_linker_2, # of connection points: 2
#     Edge 21, Type (0, 0), BuildingBlock: XUDNAN_clean_linker_2, # of connection points: 2
#     Edge 22, Type (0, 0), BuildingBlock: XUDNAN_clean_linker_2, # of connection points: 2
#     Edge 23, Type (0, 0), BuildingBlock: XUDNAN_clean_linker_2, # of connection points: 2
#     Edge 24, Type (0, 0), BuildingBlock: XUDNAN_clean_linker_2, # of connection points: 2
#     Edge 25, Type (0, 0), BuildingBlock: XUDNAN_clean_linker_2, # of connection points: 2
#     Edge 26, Type (0, 0), BuildingBlock: XUDNAN_clean_linker_2, # of connection points: 2
#     Edge 27, Type (0, 0), BuildingBlock: XUDNAN_clean_linker_2, # of connection points: 2
#     Edge 28, Type (0, 0), BuildingBlock: XUDNAN_clean_linker_2, # of connection points: 2
#     Edge 29, Type (0, 0), BuildingBlock: XUDNAN_clean_linker_2, # of connection points: 2
#     Edge 30, Type (0, 0), BuildingBlock: XUDNAN_clean_linker_2, # of connection points: 2
#     Edge 31, Type (0, 0), BuildingBlock: XUDNAN_clean_linker_2, # of connection points: 2
#     Edge 32, Type (0, 0), BuildingBlock: XUDNAN_clean_linker_2, # of connection points: 2
#     Edge 33, Type (0, 0), BuildingBlock: XUDNAN_clean_linker_2, # of connection points: 2
#     Edge 34, Type (0, 0), BuildingBlock: XUDNAN_clean_linker_2, # of connection points: 2
#     Edge 35, Type (0, 0), BuildingBlock: XUDNAN_clean_linker_2, # of connection points: 2
#     Edge 36, Type (0, 0), BuildingBlock: XUDNAN_clean_linker_2, # of connection points: 2
#     Edge 37, Type (0, 0), BuildingBlock: XUDNAN_clean_linker_2, # of connection points: 2
#     Edge 38, Type (0, 0), BuildingBlock: XUDNAN_clean_linker_2, # of connection points: 2
#     Edge 39, Type (0, 0), BuildingBlock: XUDNAN_clean_linker_2, # of connection points: 2
# Relax obj value: 0.251
# Max RMSD: 0.266
# Mean RMSD: 0.266
data_MOF--net-ecm--node1-TAGTUT_clean_sbu_1--edge1-XUDNAN_clean_linker_2
_symmetry_space_group_name_H-M    P1
_symmetry_Int_Tables_number       1
_symmetry_cell_setting            triclinic
loop_
_symmetry_equiv_pos_as_xyz
'x, y, z'
_cell_length_a     43.236704
_cell_length_b     43.091845
_cell_length_c     16.11522
_cell_angle_alpha  90.012907
_cell_angle_beta   89.924811
_cell_angle_gamma 90.245603
loop_
_atom_site_label
_atom_site_type_symbol
_atom_site_fract_x
_atom_site_fract_y
_atom_site_fract_z
_atom_type_partial_charge
C0 C 0.55071 0.28206 0.98883 0.0
C1 C 0.52934 0.21524 0.18222 0.0
C2 C 0.43678 0.1719 0.96631 0.0
Mg3 Mg 0.49839 0.27604 0.12236 0.0
O4 O 0.48117 0.25442 0.02951 0.0
Mg5 Mg 0.50327 0.21817 0.98351 0.0
Mg6 Mg 0.43884 0.23712 0.03226 0.0
O7 O 0.39461 0.22107 0.03545 0.0
Mg8 Mg 0.37844 0.2065 0.93154 0.0
Mg9 Mg 0.37506 0.25977 0.08301 0.0
C10 C 0.43051 0.30692 0.11468 0.0
C11 C 0.41957 0.23274 0.2288 0.0
O12 O 0.54392 0.2549 0.95978 0.0
O13 O 0.53589 0.29454 0.04912 0.0
O14 O 0.52396 0.20688 0.10789 0.0
O15 O 0.5196 0.24148 0.20917 0.0
O16 O 0.45819 0.30813 0.14466 0.0
O17 O 0.42143 0.28475 0.0677 0.0
C18 C 0.45901 0.23895 0.83344 0.0
O19 O 0.43673 0.24549 0.88356 0.0
O20 O 0.48442 0.22895 0.86153 0.0
O21 O 0.33138 0.22956 0.08601 0.0
O22 O 0.33428 0.19226 0.98714 0.0
O23 O 0.35932 0.27915 0.95798 0.0
C24 C 0.32027 0.2059 0.04749 0.0
O25 O 0.36715 0.24599 0.85464 0.0
O26 O 0.42412 0.1855 0.90484 0.0
C27 C 0.35845 0.27246 0.88102 0.0
O28 O 0.4571 0.18701 0.00934 0.0
O29 O 0.44039 0.2292 0.17289 0.0
O30 O 0.39248 0.24247 0.21031 0.0
C31 C 0.20717 0.70256 0.94488 0.0
C32 C 0.27024 0.66355 0.11871 0.0
C33 C 0.30422 0.5884 0.88041 0.0
Mg34 Mg 0.20472 0.64501 0.05958 0.0
O35 O 0.21967 0.62727 0.95827 0.0
Mg36 Mg 0.25947 0.64636 0.91646 0.0
Mg37 Mg 0.23481 0.58285 0.96443 0.0
O38 O 0.25131 0.54031 0.97496 0.0
Mg39 Mg 0.27012 0.5213 0.88136 0.0
Mg40 Mg 0.21582 0.51908 0.0296 0.0
C41 C 0.16798 0.58592 0.02754 0.0
C42 C 0.23698 0.56883 0.16702 0.0
O43 O 0.23094 0.69061 0.90969 0.0
O44 O 0.19234 0.6893 1.00429 0.0
O45 O 0.27855 0.66264 0.04284 0.0
O46 O 0.24317 0.65539 0.14087 0.0
O47 O 0.1787 0.60214 0.08768 0.0
O48 O 0.18499 0.56455 0.99437 0.0
C49 C 0.2314 0.60262 0.76939 0.0
O50 O 0.2274 0.58007 0.82071 0.0
O51 O 0.24179 0.62908 0.79269 0.0
O52 O 0.25218 0.47815 0.05329 0.0
O53 O 0.28845 0.48364 0.95347 0.0
O54 O 0.20214 0.4956 0.90903 0.0
C55 C 0.27791 0.46998 0.01841 0.0
O56 O 0.23353 0.50049 0.8007 0.0
O57 O 0.30302 0.56019 0.85316 0.0
C58 C 0.20849 0.49003 0.83328 0.0
O59 O 0.28327 0.59926 0.92905 0.0
O60 O 0.24178 0.58824 0.108 0.0
O61 O 0.22823 0.54122 0.152 0.0
C62 C 0.46748 0.73824 0.96512 0.0
C63 C 0.4831 0.80902 0.15532 0.0
C64 C 0.57881 0.85383 0.97505 0.0
Mg65 Mg 0.51623 0.74843 0.10775 0.0
O66 O 0.5347 0.76855 0.01468 0.0
Mg67 Mg 0.51266 0.80332 0.95963 0.0
Mg68 Mg 0.57646 0.78659 0.02653 0.0
O69 O 0.6207 0.80314 0.03483 0.0
Mg70 Mg 0.63883 0.82131 0.93742 0.0
Mg71 Mg 0.63974 0.76252 0.07151 0.0
C72 C 0.58374 0.71757 0.10714 0.0
C73 C 0.59646 0.78873 0.2213 0.0
O74 O 0.47409 0.76477 0.93183 0.0
O75 O 0.48082 0.72822 0.0309 0.0
O76 O 0.48855 0.8156 0.0797 0.0
O77 O 0.49408 0.78426 0.18787 0.0
O78 O 0.55618 0.71728 0.13816 0.0
O79 O 0.59304 0.73885 0.05755 0.0
C80 C 0.56348 0.78504 0.82355 0.0
O81 O 0.58271 0.78099 0.88294 0.0
O82 O 0.53561 0.79243 0.83795 0.0
O83 O 0.6849 0.78999 0.07644 0.0
O84 O 0.68328 0.8328 0.99563 0.0
O85 O 0.6546 0.7458 0.94357 0.0
C86 C 0.69731 0.81468 0.04656 0.0
O87 O 0.6498 0.78394 0.8516 0.0
O88 O 0.59509 0.84625 0.91177 0.0
C89 C 0.65646 0.75597 0.86959 0.0
O90 O 0.55671 0.83555 0.9986 0.0
O91 O 0.57376 0.79236 0.17058 0.0
O92 O 0.62301 0.7791 0.19729 0.0
C93 C 0.81635 0.32321 0.97434 0.0
C94 C 0.76078 0.36608 0.16073 0.0
C95 C 0.71525 0.43369 0.91243 0.0
Mg96 Mg 0.82323 0.38293 0.07926 0.0
O97 O 0.80233 0.39944 0.98313 0.0
Mg98 Mg 0.76185 0.37869 0.95461 0.0
Mg99 Mg 0.78484 0.44326 0.98707 0.0
O100 O 0.76688 0.48523 0.99558 0.0
Mg101 Mg 0.74767 0.50189 0.89954 0.0
Mg102 Mg 0.80228 0.5082 0.04718 0.0
C103 C 0.85249 0.44317 0.03772 0.0
C104 C 0.78249 0.45965 0.18884 0.0
O105 O 0.79039 0.33416 0.94968 0.0
O106 O 0.83524 0.33861 0.02046 0.0
O107 O 0.74883 0.36722 0.0886 0.0
O108 O 0.78929 0.37208 0.17265 0.0
O109 O 0.84514 0.42821 0.10322 0.0
O110 O 0.83403 0.46433 0.01072 0.0
C111 C 0.7819 0.41965 0.79329 0.0
O112 O 0.78856 0.44308 0.84022 0.0
O113 O 0.77361 0.39344 0.82395 0.0
O114 O 0.76486 0.54789 0.06923 0.0
O115 O 0.7296 0.54083 0.96743 0.0
O116 O 0.81436 0.53007 0.92492 0.0
C117 C 0.73953 0.55542 0.03165 0.0
O118 O 0.78409 0.52221 0.81613 0.0
O119 O 0.71556 0.46106 0.8791 0.0
C120 C 0.80849 0.53419 0.84849 0.0
O121 O 0.73685 0.42498 0.96181 0.0
O122 O 0.7781 0.43979 0.13081 0.0
O123 O 0.79163 0.48702 0.17239 0.0
C124 C 0.0526 0.78318 0.52231 0.0
C125 C 0.02329 0.71228 0.69732 0.0
C126 C 0.94286 0.66663 0.49353 0.0
Mg127 Mg 0.99436 0.774 0.63837 0.0
O128 O 0.98164 0.75496 0.53762 0.0
Mg129 Mg 1.0064 0.71963 0.4917 0.0
Mg130 Mg 0.94059 0.73482 0.54271 0.0
O131 O 0.89771 0.7153 0.54378 0.0
Mg132 Mg 0.88314 0.69382 0.44575 0.0
Mg133 Mg 0.87505 0.75455 0.57309 0.0
C134 C 0.92654 0.80383 0.6168 0.0
C135 C 0.91646 0.73658 0.73672 0.0
O136 O 0.04681 0.75797 0.48115 0.0
O137 O 0.03554 0.79259 0.58247 0.0
O138 O 0.02375 0.70606 0.62 0.0
O139 O 0.01045 0.73708 0.72444 0.0
O140 O 0.9527 0.80477 0.65556 0.0
O141 O 0.92007 0.782 0.56553 0.0
C142 C 0.95971 0.73793 0.34229 0.0
O143 O 0.93898 0.74097 0.39871 0.0
O144 O 0.98739 0.73057 0.36131 0.0
O145 O 0.83268 0.72235 0.57923 0.0
O146 O 0.83906 0.67954 0.49991 0.0
O147 O 0.8631 0.76652 0.43741 0.0
C148 C 0.82329 0.69609 0.55096 0.0
O149 O 0.87199 0.7271 0.35158 0.0
O150 O 0.92854 0.67243 0.4261 0.0
C151 C 0.86358 0.75495 0.36446 0.0
O152 O 0.96277 0.68661 0.52035 0.0
O153 O 0.93986 0.73075 0.68947 0.0
O154 O 0.89015 0.74407 0.70595 0.0
C155 C 0.70039 0.19833 0.46814 0.0
C156 C 0.75912 0.15668 0.64473 0.0
C157 C 0.79878 0.08341 0.42029 0.0
Mg158 Mg 0.69351 0.13995 0.57608 0.0
O159 O 0.71124 0.122 0.47782 0.0
Mg160 Mg 0.75231 0.14062 0.44269 0.0
Mg161 Mg 0.72654 0.07736 0.48528 0.0
O162 O 0.74376 0.0352 0.49826 0.0
Mg163 Mg 0.76569 0.01649 0.40893 0.0
Mg164 Mg 0.70785 0.01375 0.54992 0.0
C165 C 0.65997 0.08103 0.53758 0.0
C166 C 0.72696 0.06396 0.688 0.0
O167 O 0.72533 0.18628 0.43928 0.0
O168 O 0.68197 0.18396 0.51779 0.0
O169 O 0.76951 0.15407 0.57119 0.0
O170 O 0.73075 0.15145 0.66122 0.0
O171 O 0.66857 0.09613 0.60193 0.0
O172 O 0.67688 0.05836 0.51137 0.0
C173 C 0.72594 0.09822 0.29083 0.0
O174 O 0.72158 0.07524 0.34073 0.0
O175 O 0.73584 0.12466 0.3161 0.0
O176 O 0.74385 0.97358 0.57964 0.0
O177 O 0.78112 0.97749 0.4817 0.0
O178 O 0.69694 0.99067 0.42609 0.0
C179 C 0.76948 0.96456 0.54634 0.0
O180 O 0.73039 0.99706 0.32232 0.0
O181 O 0.80069 0.05511 0.39435 0.0
C182 C 0.70485 0.98604 0.35078 0.0
O183 O 0.77443 0.09336 0.45636 0.0
O184 O 0.73195 0.08312 0.62867 0.0
O185 O 0.71839 0.03624 0.67352 0.0
C186 C 0.96495 0.23522 0.53179 0.0
C187 C 0.98686 0.30873 0.69318 0.0
C188 C 0.07121 0.35411 0.49703 0.0
Mg189 Mg 0.02213 0.2496 0.64865 0.0
O190 O 0.03506 0.26528 0.54453 0.0
Mg191 Mg 0.00944 0.2989 0.49352 0.0
Mg192 Mg 0.07579 0.28617 0.55051 0.0
O193 O 0.11777 0.30707 0.55244 0.0
Mg194 Mg 0.13214 0.3296 0.45606 0.0
Mg195 Mg 0.14198 0.26923 0.5839 0.0
C196 C 0.09038 0.21894 0.63125 0.0
C197 C 0.09886 0.28552 0.74512 0.0
O198 O 0.97008 0.25892 0.48392 0.0
O199 O 0.98241 0.22877 0.59368 0.0
O200 O 0.98876 0.31227 0.61523 0.0
O201 O 1.0019 0.2869 0.72888 0.0
O202 O 0.06371 0.21939 0.66788 0.0
O203 O 0.09797 0.23951 0.57694 0.0
C204 C 0.05836 0.28099 0.34996 0.0
O205 O 0.07895 0.27907 0.40686 0.0
O206 O 0.0304 0.28754 0.36757 0.0
O207 O 0.18213 0.30349 0.59085 0.0
O208 O 0.17382 0.34722 0.51685 0.0
O209 O 0.15694 0.25738 0.44916 0.0
C210 C 0.19019 0.3307 0.56648 0.0
O211 O 0.14697 0.29676 0.36403 0.0
O212 O 0.08584 0.34796 0.43037 0.0
C213 C 0.15713 0.26948 0.37671 0.0
O214 O 0.05197 0.33367 0.52525 0.0
O215 O 0.07542 0.29052 0.69742 0.0
O216 O 0.12559 0.2793 0.71504 0.0
C217 C 0.33018 0.83209 0.43212 0.0
C218 C 0.26726 0.8675 0.61431 0.0
C219 C 0.21894 0.93494 0.40947 0.0
Mg220 Mg 0.33001 0.89036 0.54943 0.0
O221 O 0.31166 0.90634 0.44939 0.0
Mg222 Mg 0.2732 0.8838 0.41068 0.0
Mg223 Mg 0.29219 0.94937 0.45971 0.0
O224 O 0.27138 0.98978 0.47324 0.0
Mg225 Mg 0.24377 1.00484 0.39174 0.0
Mg226 Mg 0.3065 0.01541 0.51458 0.0
C227 C 0.35839 0.95095 0.50475 0.0
C228 C 0.29129 0.9658 0.65934 0.0
O229 O 0.30543 0.84217 0.39758 0.0
O230 O 0.34414 0.84648 0.49139 0.0
O231 O 0.25908 0.86621 0.53855 0.0
O232 O 0.29324 0.87898 0.63584 0.0
O233 O 0.35114 0.93646 0.57126 0.0
O234 O 0.34035 0.97272 0.47861 0.0
C235 C 0.29166 0.93165 0.26225 0.0
O236 O 0.29478 0.95297 0.31734 0.0
O237 O 0.28543 0.90349 0.28189 0.0
O238 O 0.26802 0.0533 0.54762 0.0
O239 O 0.22645 0.0416 0.46879 0.0
O240 O 0.31373 0.0374 0.38569 0.0
C241 C 0.23967 0.05775 0.52543 0.0
O242 O 0.27513 0.02584 0.29843 0.0
O243 O 0.21241 0.96274 0.38575 0.0
C244 C 0.30134 0.03884 0.31379 0.0
O245 O 0.24597 0.92809 0.43514 0.0
O246 O 0.28749 0.94448 0.60469 0.0
O247 O 0.29865 0.99339 0.63883 0.0
H248 H 0.40831 0.25247 0.72704 0.0
H249 H 0.50523 0.22512 0.72636 0.0
H250 H 0.50335 0.21692 0.57788 0.0
H251 H 0.38272 0.20043 0.56532 0.0
H252 H 0.35826 0.2275 0.51207 0.0
H253 H 0.36464 0.23129 0.62232 0.0
H254 H 0.38383 0.28761 0.60278 0.0
H255 H 0.37961 0.2858 0.49116 0.0
H256 H 0.41638 0.29534 0.53597 0.0
H257 H 0.49161 0.20741 0.43218 0.0
H258 H 0.47329 0.20834 0.28793 0.0
H259 H 0.38575 0.24673 0.37081 0.0
C260 C 0.42908 0.24489 0.69568 0.0
C261 C 0.4566 0.23884 0.74065 0.0
C262 C 0.48343 0.2295 0.69558 0.0
C263 C 0.48278 0.22453 0.61028 0.0
C264 C 0.45535 0.2296 0.56861 0.0
C265 C 0.42919 0.24037 0.60858 0.0
C266 C 0.40377 0.24616 0.54535 0.0
C267 C 0.37564 0.22518 0.56236 0.0
C268 C 0.3953 0.28075 0.54386 0.0
C269 C 0.41975 0.23665 0.46509 0.0
C270 C 0.44934 0.22662 0.48088 0.0
C271 C 0.46869 0.21583 0.41829 0.0
C272 C 0.458 0.21643 0.33644 0.0
C273 C 0.42829 0.22816 0.31724 0.0
C274 C 0.40865 0.23776 0.38306 0.0
H275 H 0.25553 0.53755 0.30778 0.0
H276 H 0.21097 0.62173 0.22428 0.0
H277 H 0.20331 0.63807 0.36879 0.0
H278 H 0.20311 0.52449 0.4795 0.0
H279 H 0.23222 0.5094 0.54828 0.0
H280 H 0.23638 0.50482 0.43768 0.0
H281 H 0.29007 0.53179 0.44304 0.0
H282 H 0.28618 0.53598 0.55376 0.0
H283 H 0.29354 0.56961 0.4901 0.0
H284 H 0.19967 0.64529 0.5203 0.0
H285 H 0.20286 0.6446 0.67283 0.0
H286 H 0.24637 0.55412 0.6641 0.0
C287 C 0.2448 0.55973 0.32028 0.0
C288 C 0.23572 0.57948 0.25439 0.0
C289 C 0.2205 0.6076 0.27312 0.0
C290 C 0.2152 0.6166 0.35533 0.0
C291 C 0.22451 0.59679 0.41866 0.0
C292 C 0.23898 0.56893 0.40258 0.0
C293 C 0.24601 0.55184 0.48299 0.0
C294 C 0.22837 0.5208 0.48732 0.0
C295 C 0.28103 0.54703 0.49306 0.0
C296 C 0.23362 0.57476 0.54649 0.0
C297 C 0.2211 0.60036 0.50741 0.0
C298 C 0.2092 0.62531 0.55171 0.0
C299 C 0.21102 0.62465 0.6383 0.0
C300 C 0.22448 0.59917 0.6801 0.0
C301 C 0.23529 0.57352 0.63369 0.0
H302 H 0.54956 0.77109 0.32804 0.0
H303 H 0.63692 0.82067 0.31561 0.0
H304 H 0.63761 0.82517 0.46813 0.0
H305 H 0.51784 0.81392 0.51042 0.0
H306 H 0.5 0.77958 0.5531 0.0
H307 H 0.50459 0.78345 0.44242 0.0
H308 H 0.5339 0.7311 0.43924 0.0
H309 H 0.53002 0.72745 0.55009 0.0
H310 H 0.56781 0.72624 0.50286 0.0
H311 H 0.63061 0.82225 0.62061 0.0
H312 H 0.61474 0.81432 0.76581 0.0
H313 H 0.53379 0.76338 0.68404 0.0
C314 C 0.56827 0.78367 0.35765 0.0
C315 C 0.59308 0.79582 0.31041 0.0
C316 C 0.61768 0.81137 0.351 0.0
C317 C 0.6183 0.81398 0.4375 0.0
C318 C 0.5942 0.80075 0.48278 0.0
C319 C 0.56944 0.78618 0.44464 0.0
C320 C 0.54741 0.77269 0.50889 0.0
C321 C 0.51558 0.78834 0.50338 0.0
C322 C 0.54464 0.73726 0.49968 0.0
C323 C 0.56405 0.78145 0.58862 0.0
C324 C 0.59088 0.79779 0.57176 0.0
C325 C 0.60996 0.80897 0.63467 0.0
C326 C 0.60127 0.80359 0.71719 0.0
C327 C 0.57421 0.78652 0.73645 0.0
C328 C 0.55521 0.77558 0.67106 0.0
H329 H 0.81034 0.48426 0.32838 0.0
H330 H 0.7415 0.41728 0.24933 0.0
H331 H 0.73529 0.39951 0.39432 0.0
H332 H 0.84628 0.44119 0.48976 0.0
H333 H 0.84954 0.47327 0.56111 0.0
H334 H 0.84926 0.48035 0.45099 0.0
H335 H 0.80305 0.5177 0.46895 0.0
H336 H 0.80288 0.51047 0.57917 0.0
H337 H 0.76832 0.50412 0.51943 0.0
H338 H 0.738 0.38788 0.54399 0.0
H339 H 0.74585 0.38435 0.69379 0.0
H340 H 0.81003 0.46225 0.68406 0.0
C341 C 0.79399 0.46581 0.34171 0.0
C342 C 0.77742 0.45086 0.27694 0.0
C343 C 0.75573 0.42749 0.29722 0.0
C344 C 0.75174 0.41769 0.37952 0.0
C345 C 0.76911 0.43214 0.4414 0.0
C346 C 0.78938 0.45608 0.42408 0.0
C347 C 0.80395 0.46854 0.50346 0.0
C348 C 0.83936 0.46565 0.50115 0.0
C349 C 0.79396 0.50223 0.51856 0.0
C350 C 0.78972 0.44692 0.56773 0.0
C351 C 0.7696 0.4263 0.52982 0.0
C352 C 0.75376 0.40376 0.57439 0.0
C353 C 0.75859 0.40196 0.65989 0.0
C354 C 0.77891 0.42281 0.70146 0.0
C355 C 0.79449 0.4459 0.65446 0.0
H356 H 0.98474 0.71047 0.20089 0.0
H357 H 0.91627 0.77714 0.28182 0.0
H358 H 0.89795 0.78263 0.13763 0.0
H359 H 1.0029 0.75042 1.00388 0.0
H360 H 1.00854 0.71468 0.94788 0.0
H361 H 0.01612 0.71634 0.05781 0.0
H362 H 0.9786 0.67001 0.07913 0.0
H363 H 0.97044 0.66908 0.96955 0.0
H364 H 0.93925 0.67306 0.04312 0.0
H365 H 0.88563 0.7797 0.98844 0.0
H366 H 0.88111 0.77152 0.83866 0.0
H367 H 0.95974 0.70902 0.84472 0.0
C368 C 0.96602 0.72636 0.18799 0.0
C369 C 0.95116 0.74272 0.25342 0.0
C370 C 0.927 0.76344 0.2336 0.0
C371 C 0.91671 0.76694 0.15164 0.0
C372 C 0.93113 0.7499 0.08916 0.0
C373 C 0.95554 0.73032 0.10566 0.0
C374 C 0.96704 0.71522 0.02562 0.0
C375 C 1.00067 0.72475 1.00769 0.0
C376 C 0.96362 0.67973 0.02964 0.0
C377 C 0.94501 0.72913 0.96199 0.0
C378 C 0.92449 0.74893 1.0009 0.0
C379 C 0.90144 0.76418 0.95727 0.0
C380 C 0.89906 0.7592 0.87173 0.0
C381 C 0.91988 0.73939 0.82895 0.0
C382 C 0.94341 0.72427 0.87511 0.0
H383 H 0.74242 0.05089 0.18374 0.0
H384 H 0.69668 0.14017 0.19552 0.0
H385 H 0.69296 0.14124 0.04293 0.0
H386 H 0.78832 0.06845 1.00648 0.0
H387 H 0.78574 0.03042 0.96034 0.0
H388 H 0.78269 0.03477 0.07124 0.0
H389 H 0.72962 1.00653 0.07044 0.0
H390 H 0.73294 1.00147 0.95983 0.0
H391 H 0.69949 0.02042 1.00277 0.0
H392 H 0.69485 0.13364 0.89073 0.0
H393 H 0.70027 0.11641 0.74593 0.0
H394 H 0.74825 0.03391 0.82749 0.0
C395 C 0.73091 0.07017 0.15395 0.0
C396 C 0.71952 0.09534 0.20116 0.0
C397 C 0.70537 0.12064 0.16026 0.0
C398 C 0.70324 0.1215 0.07369 0.0
C399 C 0.71556 0.09695 0.02857 0.0
C400 C 0.72894 0.07161 0.06686 0.0
C401 C 0.74139 0.04901 1.00266 0.0
C402 C 0.77663 0.04546 0.01069 0.0
C403 C 0.72488 0.01746 0.00937 0.0
C404 C 0.73283 0.06563 0.9228 0.0
C405 C 0.718 0.09325 0.9396 0.0
C406 C 0.70703 0.11239 0.87668 0.0
C407 C 0.71097 0.10288 0.79427 0.0
C408 C 0.72639 0.07493 0.77501 0.0
C409 C 0.73723 0.05592 0.84038 0.0
H410 H 0.03447 0.31006 0.21216 0.0
H411 H 0.10092 0.24053 0.2878 0.0
H412 H 0.11608 0.23307 0.14098 0.0
H413 H 0.01287 0.27091 0.01985 0.0
H414 H 1.0085 0.30621 0.96185 0.0
H415 H 1.00114 0.30608 0.07176 0.0
H416 H 0.04061 0.35036 0.09265 0.0
H417 H 0.04755 0.35149 0.98248 0.0
H418 H 0.07941 0.3462 0.05309 0.0
H419 H 0.12876 0.23779 0.99109 0.0
H420 H 0.13272 0.24752 0.84178 0.0
H421 H 0.05668 0.31293 0.85649 0.0
C422 C 0.05235 0.29337 0.19774 0.0
C423 C 0.06698 0.2762 0.26163 0.0
C424 C 0.08993 0.25435 0.2402 0.0
C425 C 0.09866 0.25 0.15703 0.0
C426 C 0.0848 0.26821 0.09609 0.0
C427 C 0.06184 0.28916 0.115 0.0
C428 C 0.05011 0.30501 0.03682 0.0
C429 C 0.01609 0.29652 0.02185 0.0
C430 C 0.05471 0.34037 0.04159 0.0
C431 C 0.07093 0.29059 0.97114 0.0
C432 C 0.09074 0.26946 1.0075 0.0
C433 C 0.11313 0.25398 0.96179 0.0
C434 C 0.11531 0.25998 0.87669 0.0
C435 C 0.09514 0.2812 0.83665 0.0
C436 C 0.07236 0.29654 0.88481 0.0
H437 H 0.31646 0.90223 0.12423 0.0
H438 H 0.26098 0.98071 0.20147 0.0
H439 H 0.25271 0.9951 0.05554 0.0
H440 H 0.35347 0.94246 0.94911 0.0
H441 H 0.35381 0.90852 0.8837 0.0
H442 H 0.35564 0.90436 0.99483 0.0
H443 H 0.30804 0.86816 0.98968 0.0
H444 H 0.30505 0.87283 0.87886 0.0
H445 H 0.27255 0.88194 0.94479 0.0
H446 H 0.24887 1.00063 0.90503 0.0
H447 H 0.2547 1.00121 0.75328 0.0
H448 H 0.31362 0.9201 0.76588 0.0
C449 C 0.30285 0.92258 0.10993 0.0
C450 C 0.28978 0.94081 0.17408 0.0
C451 C 0.27197 0.96711 0.15343 0.0
C452 C 0.26675 0.97517 0.07065 0.0
C453 C 0.27969 0.95677 1.00885 0.0
C454 C 0.29785 0.93136 0.02688 0.0
C455 C 0.30977 0.91645 0.94741 0.0
C456 C 0.34528 0.91805 0.94354 0.0
C457 C 0.29816 0.88283 0.93967 0.0
C458 C 0.29512 0.93733 0.88224 0.0
C459 C 0.27769 0.9602 0.91992 0.0
C460 C 0.26241 0.98288 0.87462 0.0
C461 C 0.26578 0.98294 0.78848 0.0
C462 C 0.28429 0.96055 0.74798 0.0
C463 C 0.29877 0.93704 0.79525 0.0
H464 H 0.42725 0.16015 0.13602 0.0
H465 H 0.39956 0.13069 0.88934 0.0
H466 H 0.36161 0.09452 0.95008 0.0
H467 H 0.42024 0.0844 0.23451 0.0
H468 H 0.40483 0.09967 0.33009 0.0
H469 H 0.43035 0.12313 0.26748 0.0
H470 H 0.38916 0.16635 0.26276 0.0
H471 H 0.36317 0.14304 0.32433 0.0
H472 H 0.35092 0.15756 0.22483 0.0
H473 H 0.32492 0.06259 0.03639 0.0
H474 H 0.29477 0.03473 0.144 0.0
H475 H 0.34649 0.08328 0.33515 0.0
C476 C 0.41355 0.14574 0.09492 0.0
C477 C 0.41655 0.14831 1.00757 0.0
C478 C 0.39773 0.12925 0.9563 0.0
C479 C 0.37598 0.10863 0.99017 0.0
C480 C 0.37312 0.10702 0.076 0.0
C481 C 0.39149 0.12485 0.1279 0.0
C482 C 0.38335 0.11861 0.21815 0.0
C483 C 0.41136 0.10568 0.26532 0.0
C484 C 0.37091 0.14814 0.25997 0.0
C485 C 0.35802 0.09422 0.20848 0.0
C486 C 0.35221 0.08816 0.12591 0.0
C487 C 0.32939 0.06699 0.1014 0.0
C488 C 0.31229 0.05128 0.16292 0.0
C489 C 0.31833 0.05645 0.24811 0.0
C490 C 0.34146 0.07843 0.27062 0.0
H491 H 0.14386 0.64598 0.03292 0.0
H492 H 0.13581 0.55814 0.90225 0.0
H493 H 0.09428 0.58008 0.81578 0.0
H494 H 0.06086 0.66704 0.02709 0.0
H495 H 0.06967 0.70756 0.01109 0.0
H496 H 0.09626 0.68339 0.06732 0.0
H497 H 0.13754 0.7027 0.96653 0.0
H498 H 0.11126 0.72336 0.90125 0.0
H499 H 0.13517 0.69331 0.85744 0.0
H500 H 0.05429 0.61081 0.74261 0.0
H501 H 0.02275 0.65037 0.67357 0.0
H502 H 0.05722 0.72038 0.84395 0.0
C503 C 0.13337 0.6313 0.98624 0.0
C504 C 0.14331 0.60011 0.97466 0.0
C505 C 0.12886 0.58197 0.91242 0.0
C506 C 0.10504 0.5942 0.86328 0.0
C507 C 0.09582 0.6248 0.8764 0.0
C508 C 0.10972 0.64334 0.93552 0.0
C509 C 0.09641 0.67611 0.93282 0.0
C510 C 0.07979 0.68395 0.01446 0.0
C511 C 0.12163 0.70024 0.91311 0.0
C512 C 0.07346 0.6732 0.86172 0.0
C513 C 0.07315 0.64312 0.83169 0.0
C514 C 0.05444 0.63442 0.76551 0.0
C515 C 0.03655 0.65718 0.72671 0.0
C516 C 0.03751 0.68862 0.75291 0.0
C517 C 0.05563 0.69655 0.82307 0.0
H518 H 0.62489 0.89842 0.95884 0.0
H519 H 0.56831 0.85119 0.14302 0.0
H520 H 0.59602 0.87845 0.25398 0.0
H521 H 0.69606 0.9032 0.06906 0.0
H522 H 0.70532 0.94262 0.04091 0.0
H523 H 0.68204 0.91892 0.97289 0.0
H524 H 0.63899 0.95971 0.97502 0.0
H525 H 0.66125 0.98399 0.04392 0.0
H526 H 0.62278 0.97209 0.07265 0.0
H527 H 0.62911 0.90927 0.34495 0.0
H528 H 0.66403 0.94509 0.41518 0.0
H529 H 0.69917 0.97731 0.17712 0.0
C530 C 0.61852 0.89371 0.02261 0.0
C531 C 0.59497 0.87169 0.04181 0.0
C532 C 0.58672 0.86703 0.12608 0.0
C533 C 0.60227 0.88261 0.18988 0.0
C534 C 0.62547 0.90372 0.16892 0.0
C535 C 0.63329 0.90989 0.08759 0.0
C536 C 0.65771 0.93556 0.08342 0.0
C537 C 0.68705 0.92442 0.03891 0.0
C538 C 0.64439 0.96455 0.04119 0.0
C539 C 0.66353 0.94153 0.17541 0.0
C540 C 0.6442 0.92297 0.22275 0.0
C541 C 0.64423 0.92407 0.30869 0.0
C542 C 0.66429 0.94478 0.34798 0.0
C543 C 0.68451 0.9645 0.30217 0.0
C544 C 0.68422 0.96262 0.21414 0.0
H545 H 0.89656 0.39801 0.06427 0.0
H546 H 0.85062 0.4494 0.86812 0.0
H547 H 0.87957 0.41983 0.76381 0.0
H548 H 0.97166 0.39646 0.95635 0.0
H549 H 0.98181 0.35848 0.99376 0.0
H550 H 0.95737 0.38321 0.05538 0.0
H551 H 0.91601 0.34029 0.06115 0.0
H552 H 0.93967 0.31516 0.99837 0.0
H553 H 0.90088 0.32433 0.96641 0.0
H554 H 0.91224 0.38594 0.68104 0.0
H555 H 0.9482 0.34952 0.61931 0.0
H556 H 0.9752 0.31749 0.86414 0.0
C557 C 0.89256 0.40292 0.99928 0.0
C558 C 0.8708 0.4258 0.97467 0.0
C559 C 0.86673 0.43191 0.88902 0.0
C560 C 0.88316 0.41521 0.8291 0.0
C561 C 0.90412 0.3928 0.8554 0.0
C562 C 0.90927 0.38673 0.9382 0.0
C563 C 0.93424 0.36205 0.94836 0.0
C564 C 0.96296 0.37587 0.99099 0.0
C565 C 0.92196 0.33376 0.99637 0.0
C566 C 0.94109 0.35421 0.85797 0.0
C567 C 0.92367 0.37285 0.80629 0.0
C568 C 0.92605 0.37125 0.72074 0.0
C569 C 0.94685 0.35025 0.68638 0.0
C570 C 0.96532 0.33049 0.73679 0.0
C571 C 0.96202 0.3324 0.82416 0.0
H572 H 0.33818 0.4567 0.98125 0.0
H573 H 0.26187 0.42558 0.13589 0.0
H574 H 0.29462 0.38275 0.18888 0.0
H575 H 0.36515 0.38345 0.92246 0.0
H576 H 0.40552 0.39394 0.92501 0.0
H577 H 0.37684 0.42301 0.90406 0.0
H578 H 0.39709 0.45627 0.02608 0.0
H579 H 0.42611 0.4275 0.04776 0.0
H580 H 0.39972 0.43945 0.12823 0.0
H581 H 0.33538 0.34056 0.21587 0.0
H582 H 0.37934 0.30381 0.21378 0.0
H583 H 0.42893 0.36433 0.04526 0.0
C584 C 0.32818 0.44105 0.02661 0.0
C585 C 0.29721 0.44457 0.05404 0.0
C586 C 0.28544 0.4235 0.11388 0.0
C587 C 0.30394 0.39911 0.14436 0.0
C588 C 0.33432 0.39632 0.11533 0.0
C589 C 0.34632 0.41694 0.05806 0.0
C590 C 0.37925 0.40871 0.03451 0.0
C591 C 0.38183 0.40185 0.94101 0.0
C592 C 0.40187 0.43452 0.06073 0.0
C593 C 0.38389 0.3797 0.08595 0.0
C594 C 0.3578 0.37294 0.13262 0.0
C595 C 0.35604 0.34605 0.18079 0.0
C596 C 0.38118 0.32538 0.1797 0.0
C597 C 0.40788 0.3318 0.13162 0.0
C598 C 0.40932 0.35953 0.08521 0.0
H599 H 0.40516 0.74209 0.92451 0.0
H600 H 0.48513 0.68205 0.91274 0.0
H601 H 0.45228 0.63881 0.86469 0.0
H602 H 0.35551 0.6914 1.00865 0.0
H603 H 0.32128 0.7007 0.94972 0.0
H604 H 0.35097 0.72943 0.96311 0.0
H605 H 0.35585 0.73619 0.80524 0.0
H606 H 0.32544 0.70791 0.79084 0.0
H607 H 0.36229 0.70273 0.74043 0.0
H608 H 0.41052 0.60002 0.84013 0.0
H609 H 0.36274 0.56856 0.84582 0.0
H610 H 0.30917 0.65269 0.87481 0.0
C611 C 0.41577 0.7202 0.90817 0.0
C612 C 0.44774 0.71547 0.92089 0.0
C613 C 0.46074 0.68618 0.90227 0.0
C614 C 0.44228 0.66149 0.87465 0.0
C615 C 0.41068 0.66636 0.86529 0.0
C616 C 0.39747 0.69507 0.88037 0.0
C617 C 0.36247 0.69291 0.87403 0.0
C618 C 0.34669 0.70425 0.95379 0.0
C619 C 0.35083 0.71101 0.79811 0.0
C620 C 0.35816 0.65819 0.86158 0.0
C621 C 0.38627 0.64353 0.85309 0.0
C622 C 0.38831 0.61134 0.84534 0.0
C623 C 0.36097 0.59361 0.84857 0.0
C624 C 0.33194 0.60794 0.86153 0.0
C625 C 0.33069 0.64077 0.86577 0.0
H626 H 0.60431 0.67864 0.99033 0.0
H627 H 0.61269 0.69942 0.25202 0.0
H628 H 0.65499 0.66047 0.26378 0.0
H629 H 0.61835 0.59536 1.00629 0.0
H630 H 0.63901 0.59446 0.90911 0.0
H631 H 0.60893 0.62259 0.92533 0.0
H632 H 0.64769 0.66707 0.89013 0.0
H633 H 0.67762 0.63882 0.87398 0.0
H634 H 0.6833 0.66976 0.94781 0.0
H635 H 0.69967 0.62051 0.24066 0.0
H636 H 0.73705 0.58112 0.18966 0.0
H637 H 0.69691 0.58795 0.94385 0.0
C638 C 0.61461 0.67444 0.05055 0.0
C639 C 0.60509 0.69146 0.12059 0.0
C640 C 0.61936 0.68598 0.19812 0.0
C641 C 0.64352 0.66415 0.20497 0.0
C642 C 0.65279 0.64801 0.13378 0.0
C643 C 0.63825 0.65269 0.05843 0.0
C644 C 0.65218 0.63302 0.99058 0.0
C645 C 0.62819 0.60999 0.95582 0.0
C646 C 0.666 0.65339 0.92147 0.0
C647 C 0.67718 0.61658 0.03869 0.0
C648 C 0.67752 0.62545 0.12111 0.0
C649 C 0.69932 0.61333 0.17631 0.0
C650 C 0.72065 0.59115 0.14673 0.0
C651 C 0.71987 0.58122 0.06287 0.0
C652 C 0.69805 0.59466 1.00856 0.0
H653 H 0.61437 0.28124 0.99731 0.0
H654 H 0.53709 0.33013 0.88912 0.0
H655 H 0.57241 0.37142 0.8396 0.0
H656 H 0.6526 0.34373 0.07799 0.0
H657 H 0.69103 0.32996 0.05378 0.0
H658 H 0.65994 0.30276 0.06652 0.0
H659 H 0.67371 0.2812 0.92014 0.0
H660 H 0.70373 0.31006 0.90869 0.0
H661 H 0.67354 0.307 0.83211 0.0
H662 H 0.61492 0.41096 0.81868 0.0
H663 H 0.66053 0.44544 0.83096 0.0
H664 H 0.70928 0.3721 0.95989 0.0
C665 C 0.60526 0.30001 0.96009 0.0
C666 C 0.57319 0.30222 0.94505 0.0
C667 C 0.56173 0.32774 0.89937 0.0
C668 C 0.58163 0.35131 0.87109 0.0
C669 C 0.61308 0.34908 0.88878 0.0
C670 C 0.62495 0.32386 0.93138 0.0
C671 C 0.6591 0.32861 0.94922 0.0
C672 C 0.66598 0.32618 0.04252 0.0
C673 C 0.67866 0.30534 0.89957 0.0
C674 C 0.66379 0.36143 0.91678 0.0
C675 C 0.63736 0.37236 0.87913 0.0
C676 C 0.63591 0.40244 0.84703 0.0
C677 C 0.66199 0.42195 0.85446 0.0
C678 C 0.68905 0.4117 0.89556 0.0
C679 C 0.68969 0.38082 0.9263 0.0
H680 H 0.89339 0.62614 0.47141 0.0
H681 H 0.95273 0.66589 0.6619 0.0
H682 H 0.92396 0.63702 0.76839 0.0
H683 H 0.82143 0.62467 0.59126 0.0
H684 H 0.80925 0.58776 0.55005 0.0
H685 H 0.83357 0.61295 0.48878 0.0
H686 H 0.87272 0.56782 0.47375 0.0
H687 H 0.84907 0.54313 0.53809 0.0
H688 H 0.88875 0.55032 0.56568 0.0
H689 H 0.89046 0.60438 0.85393 0.0
H690 H 0.85369 0.56908 0.91827 0.0
H691 H 0.8135 0.54832 0.67716 0.0
C692 C 0.90019 0.62894 0.53562 0.0
C693 C 0.92526 0.6488 0.55784 0.0
C694 C 0.93361 0.65126 0.64264 0.0
C695 C 0.91735 0.63488 0.70388 0.0
C696 C 0.89289 0.61574 0.67987 0.0
C697 C 0.88422 0.61252 0.59805 0.0
C698 C 0.85758 0.5893 0.59009 0.0
C699 C 0.82875 0.60461 0.55276 0.0
C700 C 0.86763 0.56097 0.53884 0.0
C701 C 0.85229 0.58056 0.68061 0.0
C702 C 0.87327 0.59611 0.73043 0.0
C703 C 0.87392 0.59207 0.81563 0.0
C704 C 0.85269 0.57166 0.8515 0.0
C705 C 0.83046 0.55522 0.80307 0.0
C706 C 0.83021 0.56005 0.71596 0.0
H707 H 0.61634 0.12712 0.56199 0.0
H708 H 0.66256 0.07456 0.36837 0.0
H709 H 0.6362 0.10551 0.26254 0.0
H710 H 0.54234 0.12997 0.44777 0.0
H711 H 0.53236 0.16798 0.48577 0.0
H712 H 0.55582 0.1426 0.5481 0.0
H713 H 0.59724 0.18538 0.55771 0.0
H714 H 0.57478 0.21082 0.49277 0.0
H715 H 0.61387 0.20109 0.46444 0.0
H716 H 0.60665 0.14109 0.17795 0.0
H717 H 0.57116 0.17723 0.11307 0.0
H718 H 0.53903 0.20754 0.35573 0.0
C719 C 0.62094 0.12227 0.49722 0.0
C720 C 0.64241 0.09887 0.47383 0.0
C721 C 0.64706 0.09271 0.38842 0.0
C722 C 0.63202 0.11016 0.32758 0.0
C723 C 0.61149 0.13317 0.35261 0.0
C724 C 0.60524 0.13897 0.43504 0.0
C725 C 0.5803 0.16386 0.44328 0.0
C726 C 0.55096 0.15029 0.48361 0.0
C727 C 0.59226 0.19198 0.49244 0.0
C728 C 0.57457 0.17192 0.35234 0.0
C729 C 0.59289 0.15352 0.30212 0.0
C730 C 0.59197 0.15543 0.21642 0.0
C731 C 0.5714 0.17616 0.18023 0.0
C732 C 0.5515 0.19512 0.22881 0.0
C733 C 0.55358 0.19333 0.31668 0.0
H734 H 0.11382 0.40103 0.46815 0.0
H735 H 0.06834 0.35051 0.66753 0.0
H736 H 0.10023 0.37841 0.76947 0.0
H737 H 0.19034 0.40694 0.55388 0.0
H738 H 0.19671 0.4465 0.52254 0.0
H739 H 0.17106 0.42189 0.46358 0.0
H740 H 0.12742 0.46219 0.48157 0.0
H741 H 0.15312 0.48662 0.5409 0.0
H742 H 0.11657 0.47457 0.58439 0.0
H743 H 0.13673 0.40984 0.84956 0.0
H744 H 0.17344 0.4467 0.90872 0.0
H745 H 0.19589 0.48108 0.66203 0.0
C746 C 0.11064 0.39583 0.53334 0.0
C747 C 0.08893 0.37282 0.55934 0.0
C748 C 0.08503 0.36736 0.64539 0.0
C749 C 0.10311 0.38318 0.70397 0.0
C750 C 0.12458 0.40509 0.67617 0.0
C751 C 0.12816 0.41199 0.5932 0.0
C752 C 0.15182 0.43813 0.58157 0.0
C753 C 0.17909 0.42772 0.52719 0.0
C754 C 0.1363 0.46709 0.54495 0.0
C755 C 0.16183 0.44386 0.671 0.0
C756 C 0.14543 0.4245 0.72378 0.0
C757 C 0.14955 0.42525 0.80901 0.0
C758 C 0.17056 0.44657 0.84196 0.0
C759 C 0.1876 0.46731 0.79053 0.0
C760 C 0.18341 0.46561 0.70321 0.0
H761 H 0.40063 0.90374 0.52936 0.0
H762 H 0.35569 0.9568 0.3349 0.0
H763 H 0.38047 0.92399 0.2296 0.0
H764 H 0.47341 0.89691 0.41724 0.0
H765 H 0.48194 0.85846 0.45445 0.0
H766 H 0.45932 0.88451 0.51729 0.0
H767 H 0.41418 0.84405 0.52441 0.0
H768 H 0.43837 0.81804 0.46572 0.0
H769 H 0.40029 0.82723 0.42884 0.0
H770 H 0.40804 0.88565 0.14568 0.0
H771 H 0.44207 0.8473 0.08286 0.0
H772 H 0.47428 0.81935 0.32718 0.0
C773 C 0.39597 0.90838 0.46454 0.0
C774 C 0.37543 0.93253 0.44082 0.0
C775 C 0.37065 0.93825 0.35525 0.0
C776 C 0.38467 0.91965 0.29475 0.0
C777 C 0.4042 0.89584 0.32028 0.0
C778 C 0.41044 0.89037 0.40284 0.0
C779 C 0.43425 0.86447 0.41197 0.0
C780 C 0.46399 0.87683 0.45266 0.0
C781 C 0.42095 0.83684 0.46074 0.0
C782 C 0.43979 0.85588 0.32152 0.0
C783 C 0.42191 0.87434 0.27046 0.0
C784 C 0.42238 0.87129 0.18488 0.0
C785 C 0.44203 0.84929 0.14987 0.0
C786 C 0.46144 0.83032 0.19964 0.0
C787 C 0.45989 0.83339 0.28724 0.0
H788 H 0.79118 0.91414 0.46581 0.0
H789 H 0.79007 0.95813 0.70716 0.0
H790 H 0.82936 0.92047 0.75728 0.0
H791 H 0.79945 0.83576 0.54254 0.0
H792 H 0.82516 0.82258 0.46307 0.0
H793 H 0.79672 0.85173 0.43946 0.0
H794 H 0.836 0.89036 0.38762 0.0
H795 H 0.86849 0.86534 0.40598 0.0
H796 H 0.86742 0.90292 0.45305 0.0
H797 H 0.87496 0.88077 0.77234 0.0
H798 H 0.91582 0.84067 0.75564 0.0
H799 H 0.8834 0.82264 0.5059 0.0
C800 C 0.79852 0.91525 0.53001 0.0
C801 C 0.7874 0.93872 0.58295 0.0
C802 C 0.79791 0.93986 0.66613 0.0
C803 C 0.82041 0.91872 0.69477 0.0
C804 C 0.83166 0.89629 0.63978 0.0
C805 C 0.82034 0.89413 0.55973 0.0
C806 C 0.83633 0.8689 0.51126 0.0
C807 C 0.81308 0.84328 0.48745 0.0
C808 C 0.85297 0.88262 0.43494 0.0
C809 C 0.85917 0.85748 0.57519 0.0
C810 C 0.85644 0.87347 0.64915 0.0
C811 C 0.87678 0.86783 0.71499 0.0
C812 C 0.90007 0.84516 0.7049 0.0
C813 C 0.90263 0.8282 0.62984 0.0
C814 C 0.88174 0.83466 0.56474 0.0
H815 H 0.8326 0.12542 0.32117 0.0
H816 H 0.82688 0.08327 0.56527 0.0
H817 H 0.86572 0.12 0.61765 0.0
H818 H 0.91822 0.13913 0.33143 0.0
H819 H 0.91646 0.17551 0.27649 0.0
H820 H 0.88831 0.14554 0.25557 0.0
H821 H 0.84441 0.18434 0.28802 0.0
H822 H 0.87242 0.21425 0.3107 0.0
H823 H 0.84373 0.20377 0.38709 0.0
H824 H 0.89857 0.16343 0.64967 0.0
H825 H 0.9369 0.20479 0.65619 0.0
H826 H 0.92975 0.21846 0.38934 0.0
C827 C 0.84043 0.12346 0.38473 0.0
C828 C 0.82716 0.10117 0.43923 0.0
C829 C 0.83722 0.09975 0.52249 0.0
C830 C 0.859 0.12074 0.55303 0.0
C831 C 0.87103 0.14293 0.49923 0.0
C832 C 0.86316 0.14403 0.41629 0.0
C833 C 0.88119 0.17005 0.37304 0.0
C834 C 0.90231 0.15676 0.30509 0.0
C835 C 0.85911 0.19455 0.33761 0.0
C836 C 0.90005 0.18324 0.44518 0.0
C837 C 0.8928 0.1674 0.51722 0.0
C838 C 0.90526 0.17542 0.5934 0.0
C839 C 0.92715 0.19913 0.59613 0.0
C840 C 0.93735 0.21448 0.52295 0.0
C841 C 0.92282 0.20706 0.44627 0.0
H842 H 0.15375 0.21652 0.60485 0.0
H843 H 0.07606 0.16142 0.69189 0.0
H844 H 0.10954 0.1153 0.69653 0.0
H845 H 0.18499 0.16783 0.47354 0.0
H846 H 0.2255 0.17345 0.49725 0.0
H847 H 0.19833 0.20372 0.51942 0.0
H848 H 0.21443 0.20567 0.67114 0.0
H849 H 0.24273 0.17595 0.65124 0.0
H850 H 0.21436 0.1706 0.73208 0.0
H851 H 0.14783 0.07399 0.66622 0.0
H852 H 0.18863 0.04059 0.60831 0.0
H853 H 0.24322 0.12179 0.54543 0.0
C854 C 0.14393 0.19509 0.62751 0.0
C855 C 0.11208 0.19282 0.64798 0.0
C856 C 0.10033 0.164 0.67654 0.0
C857 C 0.11925 0.13761 0.67954 0.0
C858 C 0.15024 0.14047 0.65635 0.0
C859 C 0.16278 0.16866 0.63308 0.0
C860 C 0.19627 0.16491 0.60575 0.0
C861 C 0.20154 0.17819 0.51856 0.0
C862 C 0.21824 0.18018 0.66883 0.0
C863 C 0.19941 0.1298 0.60768 0.0
C864 C 0.17289 0.11635 0.64026 0.0
C865 C 0.16896 0.08429 0.6427 0.0
C866 C 0.19225 0.06549 0.60946 0.0
C867 C 0.21925 0.07859 0.57378 0.0
C868 C 0.22323 0.11119 0.57456 0.0
H869 H 0.17212 0.90598 0.31353 0.0
H870 H 0.21058 0.91326 0.56165 0.0
H871 H 0.17488 0.87306 0.61096 0.0
H872 H 0.09184 0.89291 0.38056 0.0
H873 H 0.08315 0.86499 0.30053 0.0
H874 H 0.11171 0.8948 0.28224 0.0
H875 H 0.15189 0.85264 0.24526 0.0
H876 H 0.12354 0.82268 0.26451 0.0
H877 H 0.15994 0.82224 0.31887 0.0
H878 H 0.13575 0.83462 0.63727 0.0
H879 H 0.09297 0.79704 0.6414 0.0
H880 H 0.07655 0.81146 0.37859 0.0
C881 C 0.17256 0.89927 0.37823 0.0
C882 C 0.1942 0.91277 0.43391 0.0
C883 C 0.19435 0.90318 0.51795 0.0
C884 C 0.17417 0.8803 0.54668 0.0
C885 C 0.1536 0.86699 0.49083 0.0
C886 C 0.15225 0.87598 0.40859 0.0
C887 C 0.12729 0.85726 0.36348 0.0
C888 C 0.10199 0.87878 0.32971 0.0
C889 C 0.14152 0.83754 0.29388 0.0
C890 C 0.11497 0.8368 0.43371 0.0
C891 C 0.13085 0.84309 0.50613 0.0
C892 C 0.12351 0.82882 0.58084 0.0
C893 C 0.09914 0.80752 0.58248 0.0
C894 C 0.08179 0.80084 0.51024 0.0
C895 C 0.09003 0.81539 0.43419 0.0
H896 H 0.24113 0.30111 0.52575 0.0
H897 H 0.20744 0.37788 0.67211 0.0
H898 H 0.25688 0.37916 0.7497 0.0
H899 H 0.26319 0.26231 0.69176 0.0
H900 H 0.29555 0.2427 0.64496 0.0
H901 H 0.26404 0.25529 0.58147 0.0
H902 H 0.30053 0.28957 0.48842 0.0
H903 H 0.33108 0.27274 0.54791 0.0
H904 H 0.32858 0.31441 0.53853 0.0
H905 H 0.30345 0.3633 0.83232 0.0
H906 H 0.33963 0.33183 0.91453 0.0
H907 H 0.33992 0.26182 0.72153 0.0
C908 C 0.24511 0.31947 0.57057 0.0
C909 C 0.22137 0.34031 0.59061 0.0
C910 C 0.22615 0.36284 0.65302 0.0
C911 C 0.25404 0.36337 0.69801 0.0
C912 C 0.27635 0.34083 0.68046 0.0
C913 C 0.2719 0.31923 0.61811 0.0
C914 C 0.29486 0.29307 0.62297 0.0
C915 C 0.27841 0.26154 0.63613 0.0
C916 C 0.31503 0.29254 0.54479 0.0
C917 C 0.31293 0.3027 0.69904 0.0
C918 C 0.3023 0.33061 0.7306 0.0
C919 C 0.31246 0.3419 0.80695 0.0
C920 C 0.33303 0.32378 0.85337 0.0
C921 C 0.34297 0.29443 0.82391 0.0
C922 C 0.33358 0.28448 0.74444 0.0
H923 H 0.34783 0.81367 0.27961 0.0
H924 H 0.32953 0.78049 0.52788 0.0
H925 H 0.3233 0.72714 0.47407 0.0
H926 H 0.29408 0.77786 0.18345 0.0
H927 H 0.31401 0.76711 0.08941 0.0
H928 H 0.32752 0.7995 0.14887 0.0
H929 H 0.3818 0.77483 0.1612 0.0
H930 H 0.36874 0.74236 0.10001 0.0
H931 H 0.38562 0.73587 0.20045 0.0
H932 H 0.30223 0.68331 0.39019 0.0
H933 H 0.27516 0.65123 0.28543 0.0
H934 H 0.30871 0.71207 0.09169 0.0
C935 C 0.34459 0.79468 0.32283 0.0
C936 C 0.33974 0.80077 0.40766 0.0
C937 C 0.33424 0.77593 0.46296 0.0
C938 C 0.33044 0.7456 0.43268 0.0
C939 C 0.33304 0.74055 0.34735 0.0
C940 C 0.34112 0.76431 0.29345 0.0
C941 C 0.33829 0.75409 0.20388 0.0
C942 C 0.3172 0.77592 0.15363 0.0
C943 C 0.37051 0.75163 0.16404 0.0
C944 C 0.32381 0.72231 0.21552 0.0
C945 C 0.32179 0.71445 0.29862 0.0
C946 C 0.30486 0.68855 0.32489 0.0
C947 C 0.28931 0.67058 0.26511 0.0
C948 C 0.29077 0.67863 0.18011 0.0
C949 C 0.3088 0.70437 0.15541 0.0
H950 H 0.80573 0.67941 0.70435 0.0
H951 H 0.77148 0.69612 0.45676 0.0
H952 H 0.71862 0.70264 0.51251 0.0
H953 H 0.72931 0.64246 0.79323 0.0
H954 H 0.73721 0.66127 0.89099 0.0
H955 H 0.76864 0.64745 0.82771 0.0
H956 H 0.79269 0.70265 0.83322 0.0
H957 H 0.76066 0.71671 0.89264 0.0
H958 H 0.77056 0.73515 0.79573 0.0
H959 H 0.6755 0.72419 0.5972 0.0
H960 H 0.64386 0.75138 0.70262 0.0
H961 H 0.70521 0.71869 0.89537 0.0
C962 C 0.78659 0.68227 0.66176 0.0
C963 C 0.79219 0.68653 0.57651 0.0
C964 C 0.76723 0.69179 0.52202 0.0
C965 C 0.7372 0.69575 0.55339 0.0
C966 C 0.73265 0.69374 0.63904 0.0
C967 C 0.75657 0.68605 0.69233 0.0
C968 C 0.74714 0.69004 0.78217 0.0
C969 C 0.74543 0.65843 0.8261 0.0
C970 C 0.76905 0.71248 0.82847 0.0
C971 C 0.71531 0.70386 0.77107 0.0
C972 C 0.70702 0.70533 0.68826 0.0
C973 C 0.68106 0.72196 0.66237 0.0
C974 C 0.66337 0.73759 0.72237 0.0
C975 C 0.6717 0.73631 0.80704 0.0
C976 C 0.69757 0.71874 0.83139 0.0
H977 H 0.74193 0.24245 0.49807 0.0
H978 H 0.65136 0.22719 0.39246 0.0
H979 H 0.65196 0.28041 0.33525 0.0
H980 H 0.73703 0.33166 0.5229 0.0
H981 H 0.77657 0.33613 0.48899 0.0
H982 H 0.76523 0.30273 0.54955 0.0
H983 H 0.78593 0.26549 0.43756 0.0
H984 H 0.79843 0.29798 0.37707 0.0
H985 H 0.7728 0.2695 0.33192 0.0
H986 H 0.66757 0.32852 0.26194 0.0
H987 H 0.69772 0.36253 0.16873 0.0
H988 H 0.78071 0.34299 0.30881 0.0
C989 C 0.72161 0.25112 0.46649 0.0
C990 C 0.69617 0.23144 0.4516 0.0
C991 C 0.67035 0.24256 0.40759 0.0
C992 C 0.67068 0.27274 0.37466 0.0
C993 C 0.69703 0.29118 0.38648 0.0
C994 C 0.72205 0.28071 0.43193 0.0
C995 C 0.75023 0.30118 0.41997 0.0
C996 C 0.75772 0.31901 0.5001 0.0
C997 C 0.77844 0.28241 0.38974 0.0
C998 C 0.73829 0.32282 0.3538 0.0
C999 C 0.7071 0.31788 0.33878 0.0
C1000 C 0.69185 0.33272 0.27394 0.0
C1001 C 0.70924 0.3515 0.22034 0.0
C1002 C 0.74167 0.35411 0.22972 0.0
C1003 C 0.75594 0.3412 0.30012 0.0
H1004 H 0.29705 0.18113 0.18882 0.0
H1005 H 0.27163 0.21933 0.95068 0.0
H1006 H 0.21967 0.2315 1.00454 0.0
H1007 H 0.21255 0.15198 0.24243 0.0
H1008 H 0.21908 0.16066 0.3501 0.0
H1009 H 0.25038 0.14652 0.2869 0.0
H1010 H 0.28349 0.194 0.32761 0.0
H1011 H 0.25276 0.20927 0.38983 0.0
H1012 H 0.26911 0.23252 0.30771 0.0
H1013 H 0.18134 0.25681 0.0961 0.0
H1014 H 0.15281 0.28183 0.21021 0.0
H1015 H 0.19826 0.22182 0.38661 0.0
C1016 C 0.27965 0.18988 0.14671 0.0
C1017 C 0.28784 0.19872 0.06545 0.0
C1018 C 0.26529 0.21154 0.01236 0.0
C1019 C 0.23582 0.21881 0.04281 0.0
C1020 C 0.22911 0.2121 0.12557 0.0
C1021 C 0.24987 0.19654 0.17582 0.0
C1022 C 0.23841 0.19511 0.26461 0.0
C1023 C 0.22958 0.16159 0.28737 0.0
C1024 C 0.26236 0.20854 0.32591 0.0
C1025 C 0.21 0.21545 0.2584 0.0
C1026 C 0.2048 0.22472 0.17748 0.0
C1027 C 0.18393 0.24833 0.15889 0.0
C1028 C 0.16787 0.26253 0.22427 0.0
C1029 C 0.17199 0.25257 0.30718 0.0
C1030 C 0.19316 0.22852 0.32374 0.0
H1031 H 0.19356 0.71734 0.78833 0.0
H1032 H 0.20474 0.75632 0.03361 0.0
H1033 H 0.21044 0.80874 0.97235 0.0
H1034 H 0.25085 0.7545 0.70209 0.0
H1035 H 0.23403 0.76076 0.60119 0.0
H1036 H 0.22086 0.72905 0.66395 0.0
H1037 H 0.16555 0.74881 0.65176 0.0
H1038 H 0.177 0.78261 0.593 0.0
H1039 H 0.15562 0.78679 0.68884 0.0
H1040 H 0.23107 0.85176 0.88442 0.0
H1041 H 0.25905 0.88286 0.77847 0.0
H1042 H 0.23188 0.81665 0.58981 0.0
C1043 C 0.19526 0.7373 0.82902 0.0
C1044 C 0.19815 0.73327 0.91519 0.0
C1045 C 0.20159 0.75935 0.96743 0.0
C1046 C 0.20507 0.7891 0.93296 0.0
C1047 C 0.2045 0.79211 0.84663 0.0
C1048 C 0.19887 0.76689 0.79547 0.0
C1049 C 0.20428 0.77477 0.70526 0.0
C1050 C 0.22897 0.75353 0.66597 0.0
C1051 C 0.17381 0.7732 0.65667 0.0
C1052 C 0.21589 0.80775 0.71371 0.0
C1053 C 0.21563 0.81754 0.79551 0.0
C1054 C 0.23051 0.84487 0.81992 0.0
C1055 C 0.24658 0.8622 0.75975 0.0
C1056 C 0.24734 0.85218 0.67631 0.0
C1057 C 0.23089 0.82526 0.65291 0.0
H1058 H 0.83981 0.73383 0.21769 0.0
H1059 H 0.85951 0.81768 0.35469 0.0
H1060 H 0.82586 0.84754 0.26033 0.0
H1061 H 0.82956 0.77629 1.00167 0.0
H1062 H 0.80056 0.74792 0.97539 0.0
H1063 H 0.83341 0.73684 0.03745 0.0
H1064 H 0.79486 0.71572 0.14881 0.0
H1065 H 0.76265 0.72805 0.08775 0.0
H1066 H 0.76669 0.74175 0.19294 0.0
H1067 H 0.77897 0.86341 0.18199 0.0
H1068 H 0.72674 0.86445 0.11955 0.0
H1069 H 0.74086 0.77219 0.02176 0.0
C1070 C 0.83813 0.75872 0.22532 0.0
C1071 C 0.85116 0.77352 0.29509 0.0
C1072 C 0.84851 0.80601 0.30338 0.0
C1073 C 0.82994 0.82313 0.24913 0.0
C1074 C 0.81524 0.80749 0.18451 0.0
C1075 C 0.82006 0.77612 0.17049 0.0
C1076 C 0.79853 0.76384 0.10418 0.0
C1077 C 0.81661 0.75573 0.02501 0.0
C1078 C 0.77956 0.73574 0.1354 0.0
C1079 C 0.77851 0.7921 0.09056 0.0
C1080 C 0.78904 0.81744 0.1352 0.0
C1081 C 0.77126 0.84433 0.14345 0.0
C1082 C 0.74165 0.84491 0.10747 0.0
C1083 C 0.73038 0.81877 0.06422 0.0
C1084 C 0.74955 0.79275 0.05283 0.0
H1085 H 0.74342 0.17455 0.80217 0.0
H1086 H 0.82063 0.17145 0.63026 0.0
H1087 H 0.8506 0.20574 0.72208 0.0
H1088 H 0.74498 0.24947 0.83462 0.0
H1089 H 0.73515 0.24947 0.94335 0.0
H1090 H 0.72368 0.21749 0.87931 0.0
H1091 H 0.75184 0.17928 0.9774 0.0
H1092 H 0.76335 0.21137 0.04248 0.0
H1093 H 0.79212 0.18538 1.00144 0.0
H1094 H 0.86577 0.25109 0.8078 0.0
H1095 H 0.8647 0.30135 0.88152 0.0
H1096 H 0.7795 0.27439 1.00274 0.0
C1097 C 0.76713 0.17995 0.78571 0.0
C1098 C 0.77958 0.17033 0.70896 0.0
C1099 C 0.81053 0.1784 0.68886 0.0
C1100 C 0.82785 0.19785 0.74094 0.0
C1101 C 0.81416 0.20867 0.8137 0.0
C1102 C 0.78464 0.19949 0.83694 0.0
C1103 C 0.77321 0.21806 0.91047 0.0
C1104 C 0.74249 0.2346 0.89064 0.0
C1105 C 0.76995 0.19728 0.98752 0.0
C1106 C 0.7997 0.24089 0.92021 0.0
C1107 C 0.82356 0.2346 0.86553 0.0
C1108 C 0.84802 0.25549 0.85368 0.0
C1109 C 0.84751 0.28392 0.89645 0.0
C1110 C 0.82274 0.291 0.9502 0.0
C1111 C 0.79929 0.26877 0.96429 0.0
loop_
_geom_bond_atom_site_label_1
_geom_bond_atom_site_label_2
_geom_bond_distance
_geom_bond_site_symmetry_2
_ccdc_geom_bond_type
C0 O12 1.241 . S
C0 O13 1.280 . S
C1 O14 1.277 . S
C1 O15 1.245 . S
C2 O26 1.247 . S
C2 O28 1.289 . S
Mg3 O4 1.926 . S
Mg3 O13 1.984 . S
Mg3 O15 1.988 . S
Mg3 O16 2.061 . S
O4 Mg3 1.926 . S
O4 Mg5 1.986 . S
O4 Mg6 1.917 . S
Mg5 O4 1.986 . S
Mg5 O12 2.042 . S
Mg5 O14 2.041 . S
Mg5 O20 2.038 1_554 S
Mg5 O28 2.238 . S
Mg6 O4 1.917 . S
Mg6 O7 1.917 . S
Mg6 O17 2.106 . S
Mg6 O19 2.079 . S
Mg6 O28 2.106 . S
Mg6 O29 2.079 . S
O7 Mg6 1.917 . S
O7 Mg8 1.926 . S
O7 Mg9 1.986 . S
Mg8 O7 1.926 . S
Mg8 O22 1.984 . S
Mg8 O25 1.988 . S
Mg8 O26 2.061 . S
Mg9 O7 1.986 . S
Mg9 O17 2.238 . S
Mg9 O21 2.042 . S
Mg9 O23 2.041 . S
Mg9 O30 2.038 . S
C10 O16 1.247 . S
C10 O17 1.289 . S
C11 O29 1.245 . S
C11 O30 1.274 . S
O12 C0 1.241 . S
O12 Mg5 2.042 . S
O13 C0 1.280 . S
O13 Mg3 1.984 . S
O14 C1 1.277 . S
O14 Mg5 2.041 . S
O15 C1 1.245 . S
O15 Mg3 1.988 . S
O16 Mg3 2.061 . S
O16 C10 1.247 . S
O17 Mg6 2.106 . S
O17 Mg9 2.238 . S
O17 C10 1.289 . S
C18 O19 1.245 1_556 S
C18 O20 1.274 . S
O19 Mg6 2.079 . S
O19 C18 1.245 1_554 S
O20 Mg5 2.038 1_556 S
O20 C18 1.274 . S
O21 Mg9 2.042 . S
O21 C24 1.241 . S
O22 Mg8 1.984 . S
O22 C24 1.280 . S
O23 Mg9 2.041 . S
O23 C27 1.277 . S
C24 O21 1.241 . S
C24 O22 1.280 . S
O25 Mg8 1.988 . S
O25 C27 1.245 . S
O26 C2 1.247 . S
O26 Mg8 2.061 . S
C27 O23 1.277 . S
C27 O25 1.245 . S
O28 C2 1.289 . S
O28 Mg5 2.238 . S
O28 Mg6 2.106 . S
O29 Mg6 2.079 . S
O29 C11 1.245 . S
O30 Mg9 2.038 . S
O30 C11 1.274 . S
C31 O43 1.241 . S
C31 O44 1.280 . S
C32 O45 1.277 . S
C32 O46 1.245 . S
C33 O57 1.247 . S
C33 O59 1.289 . S
Mg34 O35 1.926 . S
Mg34 O44 1.984 . S
Mg34 O46 1.988 . S
Mg34 O47 2.061 . S
O35 Mg34 1.926 . S
O35 Mg36 1.986 . S
O35 Mg37 1.917 . S
Mg36 O35 1.986 . S
Mg36 O43 2.042 . S
Mg36 O45 2.041 . S
Mg36 O51 2.038 . S
Mg36 O59 2.238 . S
Mg37 O35 1.917 . S
Mg37 O38 1.917 . S
Mg37 O48 2.106 . S
Mg37 O50 2.079 . S
Mg37 O59 2.106 . S
Mg37 O60 2.079 . S
O38 Mg37 1.917 . S
O38 Mg39 1.926 . S
O38 Mg40 1.986 . S
Mg39 O38 1.926 . S
Mg39 O53 1.984 . S
Mg39 O56 1.988 . S
Mg39 O57 2.061 . S
Mg40 O38 1.986 . S
Mg40 O48 2.238 . S
Mg40 O52 2.042 . S
Mg40 O54 2.041 . S
Mg40 O61 2.038 1_556 S
C41 O47 1.247 . S
C41 O48 1.289 . S
C42 O60 1.245 1_554 S
C42 O61 1.274 . S
O43 C31 1.241 . S
O43 Mg36 2.042 . S
O44 C31 1.280 . S
O44 Mg34 1.984 . S
O45 C32 1.277 . S
O45 Mg36 2.041 . S
O46 C32 1.245 . S
O46 Mg34 1.988 . S
O47 Mg34 2.061 . S
O47 C41 1.247 . S
O48 Mg37 2.106 . S
O48 Mg40 2.238 . S
O48 C41 1.289 . S
C49 O50 1.245 . S
C49 O51 1.274 . S
O50 Mg37 2.079 . S
O50 C49 1.245 . S
O51 Mg36 2.038 . S
O51 C49 1.274 . S
O52 Mg40 2.042 . S
O52 C55 1.241 . S
O53 Mg39 1.984 . S
O53 C55 1.280 . S
O54 Mg40 2.041 . S
O54 C58 1.277 . S
C55 O52 1.241 . S
C55 O53 1.280 . S
O56 Mg39 1.988 . S
O56 C58 1.245 . S
O57 C33 1.247 . S
O57 Mg39 2.061 . S
C58 O54 1.277 . S
C58 O56 1.245 . S
O59 C33 1.289 . S
O59 Mg36 2.238 . S
O59 Mg37 2.106 . S
O60 Mg37 2.079 . S
O60 C42 1.245 1_556 S
O61 Mg40 2.038 1_554 S
O61 C42 1.274 . S
C62 O74 1.241 . S
C62 O75 1.280 . S
C63 O76 1.277 . S
C63 O77 1.245 . S
C64 O88 1.247 . S
C64 O90 1.289 . S
Mg65 O66 1.926 . S
Mg65 O75 1.984 . S
Mg65 O77 1.988 . S
Mg65 O78 2.061 . S
O66 Mg65 1.926 . S
O66 Mg67 1.986 . S
O66 Mg68 1.917 . S
Mg67 O66 1.986 . S
Mg67 O74 2.042 . S
Mg67 O76 2.041 . S
Mg67 O82 2.038 1_554 S
Mg67 O90 2.238 . S
Mg68 O66 1.917 . S
Mg68 O69 1.917 . S
Mg68 O79 2.106 . S
Mg68 O81 2.079 . S
Mg68 O90 2.106 . S
Mg68 O91 2.079 . S
O69 Mg68 1.917 . S
O69 Mg70 1.926 . S
O69 Mg71 1.986 . S
Mg70 O69 1.926 . S
Mg70 O84 1.984 . S
Mg70 O87 1.988 . S
Mg70 O88 2.061 . S
Mg71 O69 1.986 . S
Mg71 O79 2.238 . S
Mg71 O83 2.042 . S
Mg71 O85 2.041 . S
Mg71 O92 2.038 . S
C72 O78 1.247 . S
C72 O79 1.289 . S
C73 O91 1.245 . S
C73 O92 1.274 . S
O74 C62 1.241 . S
O74 Mg67 2.042 . S
O75 C62 1.280 . S
O75 Mg65 1.984 . S
O76 C63 1.277 . S
O76 Mg67 2.041 . S
O77 C63 1.245 . S
O77 Mg65 1.988 . S
O78 Mg65 2.061 . S
O78 C72 1.247 . S
O79 Mg68 2.106 . S
O79 Mg71 2.238 . S
O79 C72 1.289 . S
C80 O81 1.245 1_556 S
C80 O82 1.274 . S
O81 Mg68 2.079 . S
O81 C80 1.245 1_554 S
O82 Mg67 2.038 1_556 S
O82 C80 1.274 . S
O83 Mg71 2.042 . S
O83 C86 1.241 . S
O84 Mg70 1.984 . S
O84 C86 1.280 . S
O85 Mg71 2.041 . S
O85 C89 1.277 . S
C86 O83 1.241 . S
C86 O84 1.280 . S
O87 Mg70 1.988 . S
O87 C89 1.245 . S
O88 C64 1.247 . S
O88 Mg70 2.061 . S
C89 O85 1.277 . S
C89 O87 1.245 . S
O90 C64 1.289 . S
O90 Mg67 2.238 . S
O90 Mg68 2.106 . S
O91 Mg68 2.079 . S
O91 C73 1.245 . S
O92 Mg71 2.038 . S
O92 C73 1.274 . S
C93 O105 1.241 . S
C93 O106 1.280 . S
C94 O107 1.277 . S
C94 O108 1.245 . S
C95 O119 1.247 . S
C95 O121 1.289 . S
Mg96 O97 1.926 . S
Mg96 O106 1.984 . S
Mg96 O108 1.988 . S
Mg96 O109 2.061 . S
O97 Mg96 1.926 . S
O97 Mg98 1.986 . S
O97 Mg99 1.917 . S
Mg98 O97 1.986 . S
Mg98 O105 2.042 . S
Mg98 O107 2.041 . S
Mg98 O113 2.038 . S
Mg98 O121 2.238 . S
Mg99 O97 1.917 . S
Mg99 O100 1.917 . S
Mg99 O110 2.106 . S
Mg99 O112 2.079 . S
Mg99 O121 2.106 . S
Mg99 O122 2.079 . S
O100 Mg99 1.917 . S
O100 Mg101 1.926 . S
O100 Mg102 1.986 . S
Mg101 O100 1.926 . S
Mg101 O115 1.984 . S
Mg101 O118 1.988 . S
Mg101 O119 2.061 . S
Mg102 O100 1.986 . S
Mg102 O110 2.238 . S
Mg102 O114 2.042 . S
Mg102 O116 2.041 . S
Mg102 O123 2.038 1_556 S
C103 O109 1.247 . S
C103 O110 1.289 . S
C104 O122 1.245 1_554 S
C104 O123 1.274 . S
O105 C93 1.241 . S
O105 Mg98 2.042 . S
O106 C93 1.280 . S
O106 Mg96 1.984 . S
O107 C94 1.277 . S
O107 Mg98 2.041 . S
O108 C94 1.245 . S
O108 Mg96 1.988 . S
O109 Mg96 2.061 . S
O109 C103 1.247 . S
O110 Mg99 2.106 . S
O110 Mg102 2.238 . S
O110 C103 1.289 . S
C111 O112 1.245 . S
C111 O113 1.274 . S
O112 Mg99 2.079 . S
O112 C111 1.245 . S
O113 Mg98 2.038 . S
O113 C111 1.274 . S
O114 Mg102 2.042 . S
O114 C117 1.241 . S
O115 Mg101 1.984 . S
O115 C117 1.280 . S
O116 Mg102 2.041 . S
O116 C120 1.277 . S
C117 O114 1.241 . S
C117 O115 1.280 . S
O118 Mg101 1.988 . S
O118 C120 1.245 . S
O119 C95 1.247 . S
O119 Mg101 2.061 . S
C120 O116 1.277 . S
C120 O118 1.245 . S
O121 C95 1.289 . S
O121 Mg98 2.238 . S
O121 Mg99 2.106 . S
O122 Mg99 2.079 . S
O122 C104 1.245 1_556 S
O123 Mg102 2.038 1_554 S
O123 C104 1.274 . S
C124 O136 1.241 1_455 S
C124 O137 1.280 1_455 S
C125 O138 1.277 . S
C125 O139 1.245 . S
C126 O150 1.247 . S
C126 O152 1.289 . S
Mg127 O128 1.926 . S
Mg127 O137 1.984 . S
Mg127 O139 1.988 . S
Mg127 O140 2.061 . S
O128 Mg127 1.926 . S
O128 Mg129 1.986 . S
O128 Mg130 1.917 . S
Mg129 O128 1.986 . S
Mg129 O136 2.042 . S
Mg129 O138 2.041 . S
Mg129 O144 2.038 . S
Mg129 O152 2.238 . S
Mg130 O128 1.917 . S
Mg130 O131 1.917 . S
Mg130 O141 2.106 . S
Mg130 O143 2.079 . S
Mg130 O152 2.106 . S
Mg130 O153 2.079 . S
O131 Mg130 1.917 . S
O131 Mg132 1.926 . S
O131 Mg133 1.986 . S
Mg132 O131 1.926 . S
Mg132 O146 1.984 . S
Mg132 O149 1.988 . S
Mg132 O150 2.061 . S
Mg133 O131 1.986 . S
Mg133 O141 2.238 . S
Mg133 O145 2.042 . S
Mg133 O147 2.041 . S
Mg133 O154 2.038 . S
C134 O140 1.247 . S
C134 O141 1.289 . S
C135 O153 1.245 . S
C135 O154 1.274 . S
O136 C124 1.241 1_655 S
O136 Mg129 2.042 . S
O137 C124 1.280 1_655 S
O137 Mg127 1.984 . S
O138 C125 1.277 . S
O138 Mg129 2.041 . S
O139 C125 1.245 . S
O139 Mg127 1.988 . S
O140 Mg127 2.061 . S
O140 C134 1.247 . S
O141 Mg130 2.106 . S
O141 Mg133 2.238 . S
O141 C134 1.289 . S
C142 O143 1.245 . S
C142 O144 1.274 . S
O143 Mg130 2.079 . S
O143 C142 1.245 . S
O144 Mg129 2.038 . S
O144 C142 1.274 . S
O145 Mg133 2.042 . S
O145 C148 1.241 . S
O146 Mg132 1.984 . S
O146 C148 1.280 . S
O147 Mg133 2.041 . S
O147 C151 1.277 . S
C148 O145 1.241 . S
C148 O146 1.280 . S
O149 Mg132 1.988 . S
O149 C151 1.245 . S
O150 C126 1.247 . S
O150 Mg132 2.061 . S
C151 O147 1.277 . S
C151 O149 1.245 . S
O152 C126 1.289 . S
O152 Mg129 2.238 . S
O152 Mg130 2.106 . S
O153 Mg130 2.079 . S
O153 C135 1.245 . S
O154 Mg133 2.038 . S
O154 C135 1.274 . S
C155 O167 1.241 . S
C155 O168 1.280 . S
C156 O169 1.277 . S
C156 O170 1.245 . S
C157 O181 1.247 . S
C157 O183 1.289 . S
Mg158 O159 1.926 . S
Mg158 O168 1.984 . S
Mg158 O170 1.988 . S
Mg158 O171 2.061 . S
O159 Mg158 1.926 . S
O159 Mg160 1.986 . S
O159 Mg161 1.917 . S
Mg160 O159 1.986 . S
Mg160 O167 2.042 . S
Mg160 O169 2.041 . S
Mg160 O175 2.038 . S
Mg160 O183 2.238 . S
Mg161 O159 1.917 . S
Mg161 O162 1.917 . S
Mg161 O172 2.106 . S
Mg161 O174 2.079 . S
Mg161 O183 2.106 . S
Mg161 O184 2.079 . S
O162 Mg161 1.917 . S
O162 Mg163 1.926 . S
O162 Mg164 1.986 . S
Mg163 O162 1.926 . S
Mg163 O177 1.984 . S
Mg163 O180 1.988 . S
Mg163 O181 2.061 . S
Mg164 O162 1.986 . S
Mg164 O172 2.238 . S
Mg164 O176 2.042 . S
Mg164 O178 2.041 . S
Mg164 O185 2.038 . S
C165 O171 1.247 . S
C165 O172 1.289 . S
C166 O184 1.245 . S
C166 O185 1.274 . S
O167 C155 1.241 . S
O167 Mg160 2.042 . S
O168 C155 1.280 . S
O168 Mg158 1.984 . S
O169 C156 1.277 . S
O169 Mg160 2.041 . S
O170 C156 1.245 . S
O170 Mg158 1.988 . S
O171 Mg158 2.061 . S
O171 C165 1.247 . S
O172 Mg161 2.106 . S
O172 Mg164 2.238 . S
O172 C165 1.289 . S
C173 O174 1.245 . S
C173 O175 1.274 . S
O174 Mg161 2.079 . S
O174 C173 1.245 . S
O175 Mg160 2.038 . S
O175 C173 1.274 . S
O176 Mg164 2.042 . S
O176 C179 1.241 1_545 S
O177 Mg163 1.984 . S
O177 C179 1.280 1_545 S
O178 Mg164 2.041 . S
O178 C182 1.277 . S
C179 O176 1.241 1_565 S
C179 O177 1.280 1_565 S
O180 Mg163 1.988 . S
O180 C182 1.245 . S
O181 C157 1.247 . S
O181 Mg163 2.061 . S
C182 O178 1.277 . S
C182 O180 1.245 . S
O183 C157 1.289 . S
O183 Mg160 2.238 . S
O183 Mg161 2.106 . S
O184 Mg161 2.079 . S
O184 C166 1.245 . S
O185 Mg164 2.038 . S
O185 C166 1.274 . S
C186 O198 1.241 1_655 S
C186 O199 1.280 1_655 S
C187 O200 1.277 . S
C187 O201 1.245 . S
C188 O212 1.247 . S
C188 O214 1.289 . S
Mg189 O190 1.926 . S
Mg189 O199 1.984 . S
Mg189 O201 1.988 . S
Mg189 O202 2.061 . S
O190 Mg189 1.926 . S
O190 Mg191 1.986 . S
O190 Mg192 1.917 . S
Mg191 O190 1.986 . S
Mg191 O198 2.042 . S
Mg191 O200 2.041 . S
Mg191 O206 2.038 . S
Mg191 O214 2.238 . S
Mg192 O190 1.917 . S
Mg192 O193 1.917 . S
Mg192 O203 2.106 . S
Mg192 O205 2.079 . S
Mg192 O214 2.106 . S
Mg192 O215 2.079 . S
O193 Mg192 1.917 . S
O193 Mg194 1.926 . S
O193 Mg195 1.986 . S
Mg194 O193 1.926 . S
Mg194 O208 1.984 . S
Mg194 O211 1.988 . S
Mg194 O212 2.061 . S
Mg195 O193 1.986 . S
Mg195 O203 2.238 . S
Mg195 O207 2.042 . S
Mg195 O209 2.041 . S
Mg195 O216 2.038 . S
C196 O202 1.247 . S
C196 O203 1.289 . S
C197 O215 1.245 . S
C197 O216 1.274 . S
O198 C186 1.241 1_455 S
O198 Mg191 2.042 . S
O199 C186 1.280 1_455 S
O199 Mg189 1.984 . S
O200 C187 1.277 . S
O200 Mg191 2.041 . S
O201 C187 1.245 . S
O201 Mg189 1.988 . S
O202 Mg189 2.061 . S
O202 C196 1.247 . S
O203 Mg192 2.106 . S
O203 Mg195 2.238 . S
O203 C196 1.289 . S
C204 O205 1.245 . S
C204 O206 1.274 . S
O205 Mg192 2.079 . S
O205 C204 1.245 . S
O206 Mg191 2.038 . S
O206 C204 1.274 . S
O207 Mg195 2.042 . S
O207 C210 1.241 . S
O208 Mg194 1.984 . S
O208 C210 1.280 . S
O209 Mg195 2.041 . S
O209 C213 1.277 . S
C210 O207 1.241 . S
C210 O208 1.280 . S
O211 Mg194 1.988 . S
O211 C213 1.245 . S
O212 C188 1.247 . S
O212 Mg194 2.061 . S
C213 O209 1.277 . S
C213 O211 1.245 . S
O214 C188 1.289 . S
O214 Mg191 2.238 . S
O214 Mg192 2.106 . S
O215 Mg192 2.079 . S
O215 C197 1.245 . S
O216 Mg195 2.038 . S
O216 C197 1.274 . S
C217 O229 1.241 . S
C217 O230 1.280 . S
C218 O231 1.277 . S
C218 O232 1.245 . S
C219 O243 1.247 . S
C219 O245 1.289 . S
Mg220 O221 1.926 . S
Mg220 O230 1.984 . S
Mg220 O232 1.988 . S
Mg220 O233 2.061 . S
O221 Mg220 1.926 . S
O221 Mg222 1.986 . S
O221 Mg223 1.917 . S
Mg222 O221 1.986 . S
Mg222 O229 2.042 . S
Mg222 O231 2.041 . S
Mg222 O237 2.038 . S
Mg222 O245 2.238 . S
Mg223 O221 1.917 . S
Mg223 O224 1.917 . S
Mg223 O234 2.106 . S
Mg223 O236 2.079 . S
Mg223 O245 2.106 . S
Mg223 O246 2.079 . S
O224 Mg223 1.917 . S
O224 Mg225 1.926 . S
O224 Mg226 1.986 . S
Mg225 O224 1.926 . S
Mg225 O239 1.984 . S
Mg225 O242 1.988 . S
Mg225 O243 2.061 . S
Mg226 O224 1.986 . S
Mg226 O234 2.238 . S
Mg226 O238 2.042 . S
Mg226 O240 2.041 . S
Mg226 O247 2.038 . S
C227 O233 1.247 . S
C227 O234 1.289 . S
C228 O246 1.245 . S
C228 O247 1.274 . S
O229 C217 1.241 . S
O229 Mg222 2.042 . S
O230 C217 1.280 . S
O230 Mg220 1.984 . S
O231 C218 1.277 . S
O231 Mg222 2.041 . S
O232 C218 1.245 . S
O232 Mg220 1.988 . S
O233 Mg220 2.061 . S
O233 C227 1.247 . S
O234 Mg223 2.106 . S
O234 Mg226 2.238 . S
O234 C227 1.289 . S
C235 O236 1.245 . S
C235 O237 1.274 . S
O236 Mg223 2.079 . S
O236 C235 1.245 . S
O237 Mg222 2.038 . S
O237 C235 1.274 . S
O238 Mg226 2.042 . S
O238 C241 1.241 1_565 S
O239 Mg225 1.984 . S
O239 C241 1.280 1_565 S
O240 Mg226 2.041 . S
O240 C244 1.277 . S
C241 O238 1.241 1_545 S
C241 O239 1.280 1_545 S
O242 Mg225 1.988 . S
O242 C244 1.245 . S
O243 C219 1.247 . S
O243 Mg225 2.061 . S
C244 O240 1.277 . S
C244 O242 1.245 . S
O245 C219 1.289 . S
O245 Mg222 2.238 . S
O245 Mg223 2.106 . S
O246 Mg223 2.079 . S
O246 C228 1.245 . S
O247 Mg226 2.038 . S
O247 C228 1.274 . S
H248 C260 0.930 . S
H249 C262 0.930 . S
H250 C263 0.930 . S
H251 C267 0.959 . S
H252 C267 0.959 . S
H253 C267 0.961 . S
H254 C268 0.960 . S
H255 C268 0.961 . S
H256 C268 0.959 . S
H257 C271 0.929 . S
H258 C272 0.931 . S
H259 C274 0.930 . S
C260 H248 0.930 . S
C260 C261 1.399 . S
C260 C265 1.399 . S
C261 C260 1.399 . S
C261 C262 1.376 . S
C262 H249 0.930 . S
C262 C261 1.376 . S
C262 C263 1.388 . S
C263 H250 0.930 . S
C263 C262 1.388 . S
C263 C264 1.390 . S
C264 C263 1.390 . S
C264 C265 1.394 . S
C264 C270 1.465 . S
C265 C260 1.399 . S
C265 C264 1.394 . S
C265 C266 1.516 . S
C266 C265 1.516 . S
C266 C267 1.502 . S
C266 C268 1.561 . S
C266 C269 1.526 . S
C267 H251 0.959 . S
C267 H252 0.959 . S
C267 H253 0.961 . S
C267 C266 1.502 . S
C268 H254 0.960 . S
C268 H255 0.961 . S
C268 H256 0.959 . S
C268 C266 1.561 . S
C269 C266 1.526 . S
C269 C270 1.396 . S
C269 C274 1.390 . S
C270 C264 1.465 . S
C270 C269 1.396 . S
C270 C271 1.399 . S
C271 H257 0.929 . S
C271 C270 1.399 . S
C271 C272 1.385 . S
C272 H258 0.931 . S
C272 C271 1.385 . S
C272 C273 1.389 . S
C273 C272 1.389 . S
C273 C274 1.387 . S
C274 H259 0.930 . S
C274 C269 1.390 . S
C274 C273 1.387 . S
H275 C287 0.930 . S
H276 C289 0.930 . S
H277 C290 0.930 . S
H278 C294 0.959 . S
H279 C294 0.959 . S
H280 C294 0.961 . S
H281 C295 0.960 . S
H282 C295 0.961 . S
H283 C295 0.959 . S
H284 C298 0.929 . S
H285 C299 0.931 . S
H286 C301 0.930 . S
C287 H275 0.930 . S
C287 C288 1.399 . S
C287 C292 1.399 . S
C288 C287 1.399 . S
C288 C289 1.376 . S
C289 H276 0.930 . S
C289 C288 1.376 . S
C289 C290 1.388 . S
C290 H277 0.930 . S
C290 C289 1.388 . S
C290 C291 1.390 . S
C291 C290 1.390 . S
C291 C292 1.394 . S
C291 C297 1.465 . S
C292 C287 1.399 . S
C292 C291 1.394 . S
C292 C293 1.516 . S
C293 C292 1.516 . S
C293 C294 1.502 . S
C293 C295 1.561 . S
C293 C296 1.526 . S
C294 H278 0.959 . S
C294 H279 0.959 . S
C294 H280 0.961 . S
C294 C293 1.502 . S
C295 H281 0.960 . S
C295 H282 0.961 . S
C295 H283 0.959 . S
C295 C293 1.561 . S
C296 C293 1.526 . S
C296 C297 1.396 . S
C296 C301 1.390 . S
C297 C291 1.465 . S
C297 C296 1.396 . S
C297 C298 1.399 . S
C298 H284 0.929 . S
C298 C297 1.399 . S
C298 C299 1.385 . S
C299 H285 0.931 . S
C299 C298 1.385 . S
C299 C300 1.389 . S
C300 C299 1.389 . S
C300 C301 1.387 . S
C301 H286 0.930 . S
C301 C296 1.390 . S
C301 C300 1.387 . S
H302 C314 0.930 . S
H303 C316 0.930 . S
H304 C317 0.930 . S
H305 C321 0.959 . S
H306 C321 0.959 . S
H307 C321 0.961 . S
H308 C322 0.960 . S
H309 C322 0.961 . S
H310 C322 0.959 . S
H311 C325 0.929 . S
H312 C326 0.931 . S
H313 C328 0.930 . S
C314 H302 0.930 . S
C314 C315 1.399 . S
C314 C319 1.399 . S
C315 C314 1.399 . S
C315 C316 1.376 . S
C316 H303 0.930 . S
C316 C315 1.376 . S
C316 C317 1.388 . S
C317 H304 0.930 . S
C317 C316 1.388 . S
C317 C318 1.390 . S
C318 C317 1.390 . S
C318 C319 1.394 . S
C318 C324 1.465 . S
C319 C314 1.399 . S
C319 C318 1.394 . S
C319 C320 1.516 . S
C320 C319 1.516 . S
C320 C321 1.502 . S
C320 C322 1.561 . S
C320 C323 1.526 . S
C321 H305 0.959 . S
C321 H306 0.959 . S
C321 H307 0.961 . S
C321 C320 1.502 . S
C322 H308 0.960 . S
C322 H309 0.961 . S
C322 H310 0.959 . S
C322 C320 1.561 . S
C323 C320 1.526 . S
C323 C324 1.396 . S
C323 C328 1.390 . S
C324 C318 1.465 . S
C324 C323 1.396 . S
C324 C325 1.399 . S
C325 H311 0.929 . S
C325 C324 1.399 . S
C325 C326 1.385 . S
C326 H312 0.931 . S
C326 C325 1.385 . S
C326 C327 1.389 . S
C327 C326 1.389 . S
C327 C328 1.387 . S
C328 H313 0.930 . S
C328 C323 1.390 . S
C328 C327 1.387 . S
H329 C341 0.930 . S
H330 C343 0.930 . S
H331 C344 0.930 . S
H332 C348 0.959 . S
H333 C348 0.959 . S
H334 C348 0.961 . S
H335 C349 0.960 . S
H336 C349 0.961 . S
H337 C349 0.959 . S
H338 C352 0.929 . S
H339 C353 0.931 . S
H340 C355 0.930 . S
C341 H329 0.930 . S
C341 C342 1.399 . S
C341 C346 1.399 . S
C342 C341 1.399 . S
C342 C343 1.376 . S
C343 H330 0.930 . S
C343 C342 1.376 . S
C343 C344 1.388 . S
C344 H331 0.930 . S
C344 C343 1.388 . S
C344 C345 1.390 . S
C345 C344 1.390 . S
C345 C346 1.394 . S
C345 C351 1.465 . S
C346 C341 1.399 . S
C346 C345 1.394 . S
C346 C347 1.516 . S
C347 C346 1.516 . S
C347 C348 1.502 . S
C347 C349 1.561 . S
C347 C350 1.526 . S
C348 H332 0.959 . S
C348 H333 0.959 . S
C348 H334 0.961 . S
C348 C347 1.502 . S
C349 H335 0.960 . S
C349 H336 0.961 . S
C349 H337 0.959 . S
C349 C347 1.561 . S
C350 C347 1.526 . S
C350 C351 1.396 . S
C350 C355 1.390 . S
C351 C345 1.465 . S
C351 C350 1.396 . S
C351 C352 1.399 . S
C352 H338 0.929 . S
C352 C351 1.399 . S
C352 C353 1.385 . S
C353 H339 0.931 . S
C353 C352 1.385 . S
C353 C354 1.389 . S
C354 C353 1.389 . S
C354 C355 1.387 . S
C355 H340 0.930 . S
C355 C350 1.390 . S
C355 C354 1.387 . S
H356 C368 0.930 . S
H357 C370 0.930 . S
H358 C371 0.930 . S
H359 C375 0.959 . S
H360 C375 0.959 . S
H361 C375 0.961 . S
H362 C376 0.960 . S
H363 C376 0.961 . S
H364 C376 0.959 . S
H365 C379 0.929 . S
H366 C380 0.931 . S
H367 C382 0.930 . S
C368 H356 0.930 . S
C368 C369 1.399 . S
C368 C373 1.399 . S
C369 C368 1.399 . S
C369 C370 1.376 . S
C370 H357 0.930 . S
C370 C369 1.376 . S
C370 C371 1.388 . S
C371 H358 0.930 . S
C371 C370 1.388 . S
C371 C372 1.390 . S
C372 C371 1.390 . S
C372 C373 1.394 . S
C372 C378 1.465 . S
C373 C368 1.399 . S
C373 C372 1.394 . S
C373 C374 1.516 . S
C374 C373 1.516 . S
C374 C375 1.502 . S
C374 C376 1.561 . S
C374 C377 1.526 . S
C375 H359 0.959 . S
C375 H360 0.959 . S
C375 H361 0.961 . S
C375 C374 1.502 . S
C376 H362 0.960 . S
C376 H363 0.961 . S
C376 H364 0.959 . S
C376 C374 1.561 . S
C377 C374 1.526 . S
C377 C378 1.396 . S
C377 C382 1.390 1_554 S
C378 C372 1.465 . S
C378 C377 1.396 . S
C378 C379 1.399 . S
C379 H365 0.929 . S
C379 C378 1.399 . S
C379 C380 1.385 1_554 S
C380 H366 0.931 . S
C380 C379 1.385 1_556 S
C380 C381 1.389 . S
C381 C380 1.389 . S
C381 C382 1.387 . S
C382 H367 0.930 . S
C382 C377 1.390 1_556 S
C382 C381 1.387 . S
H383 C395 0.930 . S
H384 C397 0.930 . S
H385 C398 0.930 . S
H386 C402 0.959 . S
H387 C402 0.959 . S
H388 C402 0.961 . S
H389 C403 0.960 . S
H390 C403 0.961 . S
H391 C403 0.959 . S
H392 C406 0.929 . S
H393 C407 0.931 . S
H394 C409 0.930 . S
C395 H383 0.930 . S
C395 C396 1.399 . S
C395 C400 1.399 1_554 S
C396 C395 1.399 . S
C396 C397 1.376 . S
C397 H384 0.930 . S
C397 C396 1.376 . S
C397 C398 1.388 1_554 S
C398 H385 0.930 . S
C398 C397 1.388 1_556 S
C398 C399 1.390 . S
C399 C398 1.390 . S
C399 C400 1.394 . S
C399 C405 1.465 . S
C400 C395 1.399 1_556 S
C400 C399 1.394 . S
C400 C401 1.516 . S
C401 C400 1.516 . S
C401 C402 1.502 . S
C401 C403 1.561 . S
C401 C404 1.526 . S
C402 H386 0.959 . S
C402 H387 0.959 . S
C402 H388 0.961 . S
C402 C401 1.502 . S
C403 H389 0.960 . S
C403 H390 0.961 . S
C403 H391 0.959 . S
C403 C401 1.561 . S
C404 C401 1.526 . S
C404 C405 1.396 . S
C404 C409 1.390 . S
C405 C399 1.465 . S
C405 C404 1.396 . S
C405 C406 1.399 . S
C406 H392 0.929 . S
C406 C405 1.399 . S
C406 C407 1.385 . S
C407 H393 0.931 . S
C407 C406 1.385 . S
C407 C408 1.389 . S
C408 C407 1.389 . S
C408 C409 1.387 . S
C409 H394 0.930 . S
C409 C404 1.390 . S
C409 C408 1.387 . S
H410 C422 0.930 . S
H411 C424 0.930 . S
H412 C425 0.930 . S
H413 C429 0.959 . S
H414 C429 0.959 . S
H415 C429 0.961 . S
H416 C430 0.960 . S
H417 C430 0.961 . S
H418 C430 0.959 . S
H419 C433 0.929 . S
H420 C434 0.931 . S
H421 C436 0.930 . S
C422 H410 0.930 . S
C422 C423 1.399 . S
C422 C427 1.399 . S
C423 C422 1.399 . S
C423 C424 1.376 . S
C424 H411 0.930 . S
C424 C423 1.376 . S
C424 C425 1.388 . S
C425 H412 0.930 . S
C425 C424 1.388 . S
C425 C426 1.390 . S
C426 C425 1.390 . S
C426 C427 1.394 . S
C426 C432 1.465 . S
C427 C422 1.399 . S
C427 C426 1.394 . S
C427 C428 1.516 . S
C428 C427 1.516 . S
C428 C429 1.502 . S
C428 C430 1.561 . S
C428 C431 1.526 . S
C429 H413 0.959 . S
C429 H414 0.959 . S
C429 H415 0.961 . S
C429 C428 1.502 . S
C430 H416 0.960 . S
C430 H417 0.961 . S
C430 H418 0.959 . S
C430 C428 1.561 . S
C431 C428 1.526 . S
C431 C432 1.396 . S
C431 C436 1.390 1_554 S
C432 C426 1.465 . S
C432 C431 1.396 . S
C432 C433 1.399 . S
C433 H419 0.929 . S
C433 C432 1.399 . S
C433 C434 1.385 1_554 S
C434 H420 0.931 . S
C434 C433 1.385 1_556 S
C434 C435 1.389 . S
C435 C434 1.389 . S
C435 C436 1.387 . S
C436 H421 0.930 . S
C436 C431 1.390 1_556 S
C436 C435 1.387 . S
H437 C449 0.930 . S
H438 C451 0.930 . S
H439 C452 0.930 . S
H440 C456 0.959 . S
H441 C456 0.959 . S
H442 C456 0.961 . S
H443 C457 0.960 . S
H444 C457 0.961 . S
H445 C457 0.959 . S
H446 C460 0.929 . S
H447 C461 0.931 . S
H448 C463 0.930 . S
C449 H437 0.930 . S
C449 C450 1.399 . S
C449 C454 1.399 1_554 S
C450 C449 1.399 . S
C450 C451 1.376 . S
C451 H438 0.930 . S
C451 C450 1.376 . S
C451 C452 1.388 1_554 S
C452 H439 0.930 . S
C452 C451 1.388 1_556 S
C452 C453 1.390 . S
C453 C452 1.390 . S
C453 C454 1.394 . S
C453 C459 1.465 . S
C454 C449 1.399 1_556 S
C454 C453 1.394 . S
C454 C455 1.516 . S
C455 C454 1.516 . S
C455 C456 1.502 . S
C455 C457 1.561 . S
C455 C458 1.526 . S
C456 H440 0.959 . S
C456 H441 0.959 . S
C456 H442 0.961 . S
C456 C455 1.502 . S
C457 H443 0.960 . S
C457 H444 0.961 . S
C457 H445 0.959 . S
C457 C455 1.561 . S
C458 C455 1.526 . S
C458 C459 1.396 . S
C458 C463 1.390 . S
C459 C453 1.465 . S
C459 C458 1.396 . S
C459 C460 1.399 . S
C460 H446 0.929 . S
C460 C459 1.399 . S
C460 C461 1.385 . S
C461 H447 0.931 . S
C461 C460 1.385 . S
C461 C462 1.389 . S
C462 C461 1.389 . S
C462 C463 1.387 . S
C463 H448 0.930 . S
C463 C458 1.390 . S
C463 C462 1.387 . S
H464 C476 0.930 . S
H465 C478 0.930 . S
H466 C479 0.930 . S
H467 C483 0.959 . S
H468 C483 0.959 . S
H469 C483 0.961 . S
H470 C484 0.960 . S
H471 C484 0.961 . S
H472 C484 0.959 . S
H473 C487 0.929 . S
H474 C488 0.931 . S
H475 C490 0.930 . S
C476 H464 0.930 . S
C476 C477 1.399 . S
C476 C481 1.399 . S
C477 C476 1.399 . S
C477 C478 1.376 . S
C478 H465 0.930 . S
C478 C477 1.376 . S
C478 C479 1.388 . S
C479 H466 0.930 . S
C479 C478 1.388 . S
C479 C480 1.390 . S
C480 C479 1.390 . S
C480 C481 1.394 . S
C480 C486 1.465 . S
C481 C476 1.399 . S
C481 C480 1.394 . S
C481 C482 1.516 . S
C482 C481 1.516 . S
C482 C483 1.502 . S
C482 C484 1.561 . S
C482 C485 1.526 . S
C483 H467 0.959 . S
C483 H468 0.959 . S
C483 H469 0.961 . S
C483 C482 1.502 . S
C484 H470 0.960 . S
C484 H471 0.961 . S
C484 H472 0.959 . S
C484 C482 1.561 . S
C485 C482 1.526 . S
C485 C486 1.396 . S
C485 C490 1.390 . S
C486 C480 1.465 . S
C486 C485 1.396 . S
C486 C487 1.399 . S
C487 H473 0.929 . S
C487 C486 1.399 . S
C487 C488 1.385 . S
C488 H474 0.931 . S
C488 C487 1.385 . S
C488 C489 1.389 . S
C489 C488 1.389 . S
C489 C490 1.387 . S
C490 H475 0.930 . S
C490 C485 1.390 . S
C490 C489 1.387 . S
H491 C503 0.930 . S
H492 C505 0.930 . S
H493 C506 0.930 . S
H494 C510 0.959 . S
H495 C510 0.959 . S
H496 C510 0.961 . S
H497 C511 0.960 . S
H498 C511 0.961 . S
H499 C511 0.959 . S
H500 C514 0.929 . S
H501 C515 0.931 . S
H502 C517 0.930 . S
C503 H491 0.930 . S
C503 C504 1.399 . S
C503 C508 1.399 . S
C504 C503 1.399 . S
C504 C505 1.376 . S
C505 H492 0.930 . S
C505 C504 1.376 . S
C505 C506 1.388 . S
C506 H493 0.930 . S
C506 C505 1.388 . S
C506 C507 1.390 . S
C507 C506 1.390 . S
C507 C508 1.394 . S
C507 C513 1.465 . S
C508 C503 1.399 . S
C508 C507 1.394 . S
C508 C509 1.516 . S
C509 C508 1.516 . S
C509 C510 1.502 . S
C509 C511 1.561 . S
C509 C512 1.526 . S
C510 H494 0.959 . S
C510 H495 0.959 . S
C510 H496 0.961 . S
C510 C509 1.502 . S
C511 H497 0.960 . S
C511 H498 0.961 . S
C511 H499 0.959 . S
C511 C509 1.561 . S
C512 C509 1.526 . S
C512 C513 1.396 . S
C512 C517 1.390 . S
C513 C507 1.465 . S
C513 C512 1.396 . S
C513 C514 1.399 . S
C514 H500 0.929 . S
C514 C513 1.399 . S
C514 C515 1.385 . S
C515 H501 0.931 . S
C515 C514 1.385 . S
C515 C516 1.389 . S
C516 C515 1.389 . S
C516 C517 1.387 . S
C517 H502 0.930 . S
C517 C512 1.390 . S
C517 C516 1.387 . S
H518 C530 0.930 . S
H519 C532 0.930 . S
H520 C533 0.930 . S
H521 C537 0.959 . S
H522 C537 0.959 . S
H523 C537 0.961 . S
H524 C538 0.960 . S
H525 C538 0.961 . S
H526 C538 0.959 . S
H527 C541 0.929 . S
H528 C542 0.931 1_545 S
H529 C544 0.930 . S
C530 H518 0.930 . S
C530 C531 1.399 . S
C530 C535 1.399 . S
C531 C530 1.399 . S
C531 C532 1.376 . S
C532 H519 0.930 . S
C532 C531 1.376 . S
C532 C533 1.388 . S
C533 H520 0.930 . S
C533 C532 1.388 . S
C533 C534 1.390 . S
C534 C533 1.390 . S
C534 C535 1.394 . S
C534 C540 1.465 . S
C535 C530 1.399 . S
C535 C534 1.394 . S
C535 C536 1.516 . S
C536 C535 1.516 . S
C536 C537 1.502 . S
C536 C538 1.561 . S
C536 C539 1.526 . S
C537 H521 0.959 . S
C537 H522 0.959 . S
C537 H523 0.961 . S
C537 C536 1.502 . S
C538 H524 0.960 . S
C538 H525 0.961 . S
C538 H526 0.959 . S
C538 C536 1.561 . S
C539 C536 1.526 . S
C539 C540 1.396 . S
C539 C544 1.390 . S
C540 C534 1.465 . S
C540 C539 1.396 . S
C540 C541 1.399 . S
C541 H527 0.929 . S
C541 C540 1.399 . S
C541 C542 1.385 . S
C542 H528 0.931 1_565 S
C542 C541 1.385 . S
C542 C543 1.389 . S
C543 C542 1.389 . S
C543 C544 1.387 . S
C544 H529 0.930 . S
C544 C539 1.390 . S
C544 C543 1.387 . S
H545 C557 0.930 . S
H546 C559 0.930 . S
H547 C560 0.930 . S
H548 C564 0.959 . S
H549 C564 0.959 . S
H550 C564 0.961 . S
H551 C565 0.960 1_554 S
H552 C565 0.961 . S
H553 C565 0.959 . S
H554 C568 0.929 . S
H555 C569 0.931 . S
H556 C571 0.930 . S
C557 H545 0.930 . S
C557 C558 1.399 . S
C557 C562 1.399 . S
C558 C557 1.399 . S
C558 C559 1.376 . S
C559 H546 0.930 . S
C559 C558 1.376 . S
C559 C560 1.388 . S
C560 H547 0.930 . S
C560 C559 1.388 . S
C560 C561 1.390 . S
C561 C560 1.390 . S
C561 C562 1.394 . S
C561 C567 1.465 . S
C562 C557 1.399 . S
C562 C561 1.394 . S
C562 C563 1.516 . S
C563 C562 1.516 . S
C563 C564 1.502 . S
C563 C565 1.561 . S
C563 C566 1.526 . S
C564 H548 0.959 . S
C564 H549 0.959 . S
C564 H550 0.961 . S
C564 C563 1.502 . S
C565 H551 0.960 1_556 S
C565 H552 0.961 . S
C565 H553 0.959 . S
C565 C563 1.561 . S
C566 C563 1.526 . S
C566 C567 1.396 . S
C566 C571 1.390 . S
C567 C561 1.465 . S
C567 C566 1.396 . S
C567 C568 1.399 . S
C568 H554 0.929 . S
C568 C567 1.399 . S
C568 C569 1.385 . S
C569 H555 0.931 . S
C569 C568 1.385 . S
C569 C570 1.389 . S
C570 C569 1.389 . S
C570 C571 1.387 . S
C571 H556 0.930 . S
C571 C566 1.390 . S
C571 C570 1.387 . S
H572 C584 0.930 . S
H573 C586 0.930 . S
H574 C587 0.930 . S
H575 C591 0.959 . S
H576 C591 0.959 . S
H577 C591 0.961 . S
H578 C592 0.960 . S
H579 C592 0.961 . S
H580 C592 0.959 . S
H581 C595 0.929 . S
H582 C596 0.931 . S
H583 C598 0.930 1_556 S
C584 H572 0.930 . S
C584 C585 1.399 1_556 S
C584 C589 1.399 1_556 S
C585 C584 1.399 1_554 S
C585 C586 1.376 . S
C586 H573 0.930 . S
C586 C585 1.376 . S
C586 C587 1.388 . S
C587 H574 0.930 . S
C587 C586 1.388 . S
C587 C588 1.390 . S
C588 C587 1.390 . S
C588 C589 1.394 . S
C588 C594 1.465 . S
C589 C584 1.399 1_554 S
C589 C588 1.394 . S
C589 C590 1.516 1_554 S
C590 C589 1.516 1_556 S
C590 C591 1.502 . S
C590 C592 1.561 . S
C590 C593 1.526 1_556 S
C591 H575 0.959 . S
C591 H576 0.959 . S
C591 H577 0.961 . S
C591 C590 1.502 . S
C592 H578 0.960 . S
C592 H579 0.961 . S
C592 H580 0.959 . S
C592 C590 1.561 . S
C593 C590 1.526 1_554 S
C593 C594 1.396 . S
C593 C598 1.390 . S
C594 C588 1.465 . S
C594 C593 1.396 . S
C594 C595 1.399 . S
C595 H581 0.929 . S
C595 C594 1.399 . S
C595 C596 1.385 . S
C596 H582 0.931 . S
C596 C595 1.385 . S
C596 C597 1.389 . S
C597 C596 1.389 . S
C597 C598 1.387 . S
C598 H583 0.930 1_554 S
C598 C593 1.390 . S
C598 C597 1.387 . S
H599 C611 0.930 . S
H600 C613 0.930 . S
H601 C614 0.930 . S
H602 C618 0.959 . S
H603 C618 0.959 . S
H604 C618 0.961 . S
H605 C619 0.960 . S
H606 C619 0.961 . S
H607 C619 0.959 . S
H608 C622 0.929 . S
H609 C623 0.931 1_554 S
H610 C625 0.930 . S
C611 H599 0.930 . S
C611 C612 1.399 . S
C611 C616 1.399 . S
C612 C611 1.399 . S
C612 C613 1.376 1_556 S
C613 H600 0.930 . S
C613 C612 1.376 1_554 S
C613 C614 1.388 . S
C614 H601 0.930 . S
C614 C613 1.388 . S
C614 C615 1.390 1_554 S
C615 C614 1.390 1_556 S
C615 C616 1.394 . S
C615 C621 1.465 . S
C616 C611 1.399 . S
C616 C615 1.394 . S
C616 C617 1.516 . S
C617 C616 1.516 . S
C617 C618 1.502 . S
C617 C619 1.561 . S
C617 C620 1.526 . S
C618 H602 0.959 . S
C618 H603 0.959 . S
C618 H604 0.961 . S
C618 C617 1.502 . S
C619 H605 0.960 . S
C619 H606 0.961 . S
C619 H607 0.959 . S
C619 C617 1.561 . S
C620 C617 1.526 . S
C620 C621 1.396 . S
C620 C625 1.390 . S
C621 C615 1.465 . S
C621 C620 1.396 . S
C621 C622 1.399 1_556 S
C622 H608 0.929 . S
C622 C621 1.399 1_554 S
C622 C623 1.385 1_554 S
C623 H609 0.931 1_556 S
C623 C622 1.385 1_556 S
C623 C624 1.389 . S
C624 C623 1.389 . S
C624 C625 1.387 . S
C625 H610 0.930 . S
C625 C620 1.390 . S
C625 C624 1.387 . S
H626 C638 0.930 1_556 S
H627 C640 0.930 . S
H628 C641 0.930 . S
H629 C645 0.959 . S
H630 C645 0.959 . S
H631 C645 0.961 . S
H632 C646 0.960 . S
H633 C646 0.961 . S
H634 C646 0.959 . S
H635 C649 0.929 . S
H636 C650 0.931 . S
H637 C652 0.930 . S
C638 H626 0.930 1_554 S
C638 C639 1.399 . S
C638 C643 1.399 . S
C639 C638 1.399 . S
C639 C640 1.376 . S
C640 H627 0.930 . S
C640 C639 1.376 . S
C640 C641 1.388 . S
C641 H628 0.930 . S
C641 C640 1.388 . S
C641 C642 1.390 . S
C642 C641 1.390 . S
C642 C643 1.394 . S
C642 C648 1.465 . S
C643 C638 1.399 . S
C643 C642 1.394 . S
C643 C644 1.516 1_554 S
C644 C643 1.516 1_556 S
C644 C645 1.502 . S
C644 C646 1.561 . S
C644 C647 1.526 1_556 S
C645 H629 0.959 . S
C645 H630 0.959 . S
C645 H631 0.961 . S
C645 C644 1.502 . S
C646 H632 0.960 . S
C646 H633 0.961 . S
C646 H634 0.959 . S
C646 C644 1.561 . S
C647 C644 1.526 1_554 S
C647 C648 1.396 . S
C647 C652 1.390 1_554 S
C648 C642 1.465 . S
C648 C647 1.396 . S
C648 C649 1.399 . S
C649 H635 0.929 . S
C649 C648 1.399 . S
C649 C650 1.385 . S
C650 H636 0.931 . S
C650 C649 1.385 . S
C650 C651 1.389 . S
C651 C650 1.389 . S
C651 C652 1.387 1_554 S
C652 H637 0.930 . S
C652 C647 1.390 1_556 S
C652 C651 1.387 1_556 S
H653 C665 0.930 . S
H654 C667 0.930 . S
H655 C668 0.930 . S
H656 C672 0.959 . S
H657 C672 0.959 . S
H658 C672 0.961 . S
H659 C673 0.960 . S
H660 C673 0.961 . S
H661 C673 0.959 . S
H662 C676 0.929 . S
H663 C677 0.931 1_554 S
H664 C679 0.930 . S
C665 H653 0.930 . S
C665 C666 1.399 . S
C665 C670 1.399 . S
C666 C665 1.399 . S
C666 C667 1.376 1_556 S
C667 H654 0.930 . S
C667 C666 1.376 1_554 S
C667 C668 1.388 . S
C668 H655 0.930 . S
C668 C667 1.388 . S
C668 C669 1.390 1_554 S
C669 C668 1.390 1_556 S
C669 C670 1.394 . S
C669 C675 1.465 . S
C670 C665 1.399 . S
C670 C669 1.394 . S
C670 C671 1.516 . S
C671 C670 1.516 . S
C671 C672 1.502 . S
C671 C673 1.561 . S
C671 C674 1.526 . S
C672 H656 0.959 . S
C672 H657 0.959 . S
C672 H658 0.961 . S
C672 C671 1.502 . S
C673 H659 0.960 . S
C673 H660 0.961 . S
C673 H661 0.959 . S
C673 C671 1.561 . S
C674 C671 1.526 . S
C674 C675 1.396 . S
C674 C679 1.390 . S
C675 C669 1.465 . S
C675 C674 1.396 . S
C675 C676 1.399 1_556 S
C676 H662 0.929 . S
C676 C675 1.399 1_554 S
C676 C677 1.385 1_554 S
C677 H663 0.931 1_556 S
C677 C676 1.385 1_556 S
C677 C678 1.389 . S
C678 C677 1.389 . S
C678 C679 1.387 . S
C679 H664 0.930 . S
C679 C674 1.390 . S
C679 C678 1.387 . S
H680 C692 0.930 . S
H681 C694 0.930 . S
H682 C695 0.930 . S
H683 C699 0.959 . S
H684 C699 0.959 . S
H685 C699 0.961 . S
H686 C700 0.960 . S
H687 C700 0.961 . S
H688 C700 0.959 . S
H689 C703 0.929 . S
H690 C704 0.931 . S
H691 C706 0.930 . S
C692 H680 0.930 . S
C692 C693 1.399 . S
C692 C697 1.399 . S
C693 C692 1.399 . S
C693 C694 1.376 . S
C694 H681 0.930 . S
C694 C693 1.376 . S
C694 C695 1.388 . S
C695 H682 0.930 . S
C695 C694 1.388 . S
C695 C696 1.390 . S
C696 C695 1.390 . S
C696 C697 1.394 . S
C696 C702 1.465 . S
C697 C692 1.399 . S
C697 C696 1.394 . S
C697 C698 1.516 . S
C698 C697 1.516 . S
C698 C699 1.502 . S
C698 C700 1.561 . S
C698 C701 1.526 . S
C699 H683 0.959 . S
C699 H684 0.959 . S
C699 H685 0.961 . S
C699 C698 1.502 . S
C700 H686 0.960 . S
C700 H687 0.961 . S
C700 H688 0.959 . S
C700 C698 1.561 . S
C701 C698 1.526 . S
C701 C702 1.396 . S
C701 C706 1.390 . S
C702 C696 1.465 . S
C702 C701 1.396 . S
C702 C703 1.399 . S
C703 H689 0.929 . S
C703 C702 1.399 . S
C703 C704 1.385 . S
C704 H690 0.931 . S
C704 C703 1.385 . S
C704 C705 1.389 . S
C705 C704 1.389 . S
C705 C706 1.387 . S
C706 H691 0.930 . S
C706 C701 1.390 . S
C706 C705 1.387 . S
H707 C719 0.930 . S
H708 C721 0.930 . S
H709 C722 0.930 . S
H710 C726 0.959 . S
H711 C726 0.959 . S
H712 C726 0.961 . S
H713 C727 0.960 . S
H714 C727 0.961 . S
H715 C727 0.959 . S
H716 C730 0.929 . S
H717 C731 0.931 . S
H718 C733 0.930 . S
C719 H707 0.930 . S
C719 C720 1.399 . S
C719 C724 1.399 . S
C720 C719 1.399 . S
C720 C721 1.376 . S
C721 H708 0.930 . S
C721 C720 1.376 . S
C721 C722 1.388 . S
C722 H709 0.930 . S
C722 C721 1.388 . S
C722 C723 1.390 . S
C723 C722 1.390 . S
C723 C724 1.394 . S
C723 C729 1.465 . S
C724 C719 1.399 . S
C724 C723 1.394 . S
C724 C725 1.516 . S
C725 C724 1.516 . S
C725 C726 1.502 . S
C725 C727 1.561 . S
C725 C728 1.526 . S
C726 H710 0.959 . S
C726 H711 0.959 . S
C726 H712 0.961 . S
C726 C725 1.502 . S
C727 H713 0.960 . S
C727 H714 0.961 . S
C727 H715 0.959 . S
C727 C725 1.561 . S
C728 C725 1.526 . S
C728 C729 1.396 . S
C728 C733 1.390 . S
C729 C723 1.465 . S
C729 C728 1.396 . S
C729 C730 1.399 . S
C730 H716 0.929 . S
C730 C729 1.399 . S
C730 C731 1.385 . S
C731 H717 0.931 . S
C731 C730 1.385 . S
C731 C732 1.389 . S
C732 C731 1.389 . S
C732 C733 1.387 . S
C733 H718 0.930 . S
C733 C728 1.390 . S
C733 C732 1.387 . S
H734 C746 0.930 . S
H735 C748 0.930 . S
H736 C749 0.930 . S
H737 C753 0.959 . S
H738 C753 0.959 . S
H739 C753 0.961 . S
H740 C754 0.960 . S
H741 C754 0.961 . S
H742 C754 0.959 . S
H743 C757 0.929 . S
H744 C758 0.931 . S
H745 C760 0.930 . S
C746 H734 0.930 . S
C746 C747 1.399 . S
C746 C751 1.399 . S
C747 C746 1.399 . S
C747 C748 1.376 . S
C748 H735 0.930 . S
C748 C747 1.376 . S
C748 C749 1.388 . S
C749 H736 0.930 . S
C749 C748 1.388 . S
C749 C750 1.390 . S
C750 C749 1.390 . S
C750 C751 1.394 . S
C750 C756 1.465 . S
C751 C746 1.399 . S
C751 C750 1.394 . S
C751 C752 1.516 . S
C752 C751 1.516 . S
C752 C753 1.502 . S
C752 C754 1.561 . S
C752 C755 1.526 . S
C753 H737 0.959 . S
C753 H738 0.959 . S
C753 H739 0.961 . S
C753 C752 1.502 . S
C754 H740 0.960 . S
C754 H741 0.961 . S
C754 H742 0.959 . S
C754 C752 1.561 . S
C755 C752 1.526 . S
C755 C756 1.396 . S
C755 C760 1.390 . S
C756 C750 1.465 . S
C756 C755 1.396 . S
C756 C757 1.399 . S
C757 H743 0.929 . S
C757 C756 1.399 . S
C757 C758 1.385 . S
C758 H744 0.931 . S
C758 C757 1.385 . S
C758 C759 1.389 . S
C759 C758 1.389 . S
C759 C760 1.387 . S
C760 H745 0.930 . S
C760 C755 1.390 . S
C760 C759 1.387 . S
H761 C773 0.930 . S
H762 C775 0.930 . S
H763 C776 0.930 . S
H764 C780 0.959 . S
H765 C780 0.959 . S
H766 C780 0.961 . S
H767 C781 0.960 . S
H768 C781 0.961 . S
H769 C781 0.959 . S
H770 C784 0.929 . S
H771 C785 0.931 . S
H772 C787 0.930 . S
C773 H761 0.930 . S
C773 C774 1.399 . S
C773 C778 1.399 . S
C774 C773 1.399 . S
C774 C775 1.376 . S
C775 H762 0.930 . S
C775 C774 1.376 . S
C775 C776 1.388 . S
C776 H763 0.930 . S
C776 C775 1.388 . S
C776 C777 1.390 . S
C777 C776 1.390 . S
C777 C778 1.394 . S
C777 C783 1.465 . S
C778 C773 1.399 . S
C778 C777 1.394 . S
C778 C779 1.516 . S
C779 C778 1.516 . S
C779 C780 1.502 . S
C779 C781 1.561 . S
C779 C782 1.526 . S
C780 H764 0.959 . S
C780 H765 0.959 . S
C780 H766 0.961 . S
C780 C779 1.502 . S
C781 H767 0.960 . S
C781 H768 0.961 . S
C781 H769 0.959 . S
C781 C779 1.561 . S
C782 C779 1.526 . S
C782 C783 1.396 . S
C782 C787 1.390 . S
C783 C777 1.465 . S
C783 C782 1.396 . S
C783 C784 1.399 . S
C784 H770 0.929 . S
C784 C783 1.399 . S
C784 C785 1.385 . S
C785 H771 0.931 . S
C785 C784 1.385 . S
C785 C786 1.389 . S
C786 C785 1.389 . S
C786 C787 1.387 . S
C787 H772 0.930 . S
C787 C782 1.390 . S
C787 C786 1.387 . S
H788 C800 0.930 . S
H789 C802 0.930 1_545 S
H790 C803 0.930 . S
H791 C807 0.959 . S
H792 C807 0.959 . S
H793 C807 0.961 . S
H794 C808 0.960 . S
H795 C808 0.961 . S
H796 C808 0.959 . S
H797 C811 0.929 . S
H798 C812 0.931 . S
H799 C814 0.930 . S
C800 H788 0.930 . S
C800 C801 1.399 . S
C800 C805 1.399 . S
C801 C800 1.399 . S
C801 C802 1.376 . S
C802 H789 0.930 1_565 S
C802 C801 1.376 . S
C802 C803 1.388 . S
C803 H790 0.930 . S
C803 C802 1.388 . S
C803 C804 1.390 . S
C804 C803 1.390 . S
C804 C805 1.394 . S
C804 C810 1.465 . S
C805 C800 1.399 . S
C805 C804 1.394 . S
C805 C806 1.516 . S
C806 C805 1.516 . S
C806 C807 1.502 . S
C806 C808 1.561 . S
C806 C809 1.526 . S
C807 H791 0.959 . S
C807 H792 0.959 . S
C807 H793 0.961 . S
C807 C806 1.502 . S
C808 H794 0.960 . S
C808 H795 0.961 . S
C808 H796 0.959 . S
C808 C806 1.561 . S
C809 C806 1.526 . S
C809 C810 1.396 . S
C809 C814 1.390 . S
C810 C804 1.465 . S
C810 C809 1.396 . S
C810 C811 1.399 . S
C811 H797 0.929 . S
C811 C810 1.399 . S
C811 C812 1.385 . S
C812 H798 0.931 . S
C812 C811 1.385 . S
C812 C813 1.389 . S
C813 C812 1.389 . S
C813 C814 1.387 . S
C814 H799 0.930 . S
C814 C809 1.390 . S
C814 C813 1.387 . S
H815 C827 0.930 . S
H816 C829 0.930 . S
H817 C830 0.930 . S
H818 C834 0.959 . S
H819 C834 0.959 . S
H820 C834 0.961 . S
H821 C835 0.960 . S
H822 C835 0.961 . S
H823 C835 0.959 . S
H824 C838 0.929 . S
H825 C839 0.931 . S
H826 C841 0.930 . S
C827 H815 0.930 . S
C827 C828 1.399 . S
C827 C832 1.399 . S
C828 C827 1.399 . S
C828 C829 1.376 . S
C829 H816 0.930 . S
C829 C828 1.376 . S
C829 C830 1.388 . S
C830 H817 0.930 . S
C830 C829 1.388 . S
C830 C831 1.390 . S
C831 C830 1.390 . S
C831 C832 1.394 . S
C831 C837 1.465 . S
C832 C827 1.399 . S
C832 C831 1.394 . S
C832 C833 1.516 . S
C833 C832 1.516 . S
C833 C834 1.502 . S
C833 C835 1.561 . S
C833 C836 1.526 . S
C834 H818 0.959 . S
C834 H819 0.959 . S
C834 H820 0.961 . S
C834 C833 1.502 . S
C835 H821 0.960 . S
C835 H822 0.961 . S
C835 H823 0.959 . S
C835 C833 1.561 . S
C836 C833 1.526 . S
C836 C837 1.396 . S
C836 C841 1.390 . S
C837 C831 1.465 . S
C837 C836 1.396 . S
C837 C838 1.399 . S
C838 H824 0.929 . S
C838 C837 1.399 . S
C838 C839 1.385 . S
C839 H825 0.931 . S
C839 C838 1.385 . S
C839 C840 1.389 . S
C840 C839 1.389 . S
C840 C841 1.387 . S
C841 H826 0.930 . S
C841 C836 1.390 . S
C841 C840 1.387 . S
H842 C854 0.930 . S
H843 C856 0.930 . S
H844 C857 0.930 . S
H845 C861 0.959 . S
H846 C861 0.959 . S
H847 C861 0.961 . S
H848 C862 0.960 . S
H849 C862 0.961 . S
H850 C862 0.959 . S
H851 C865 0.929 . S
H852 C866 0.931 . S
H853 C868 0.930 . S
C854 H842 0.930 . S
C854 C855 1.399 . S
C854 C859 1.399 . S
C855 C854 1.399 . S
C855 C856 1.376 . S
C856 H843 0.930 . S
C856 C855 1.376 . S
C856 C857 1.388 . S
C857 H844 0.930 . S
C857 C856 1.388 . S
C857 C858 1.390 . S
C858 C857 1.390 . S
C858 C859 1.394 . S
C858 C864 1.465 . S
C859 C854 1.399 . S
C859 C858 1.394 . S
C859 C860 1.516 . S
C860 C859 1.516 . S
C860 C861 1.502 . S
C860 C862 1.561 . S
C860 C863 1.526 . S
C861 H845 0.959 . S
C861 H846 0.959 . S
C861 H847 0.961 . S
C861 C860 1.502 . S
C862 H848 0.960 . S
C862 H849 0.961 . S
C862 H850 0.959 . S
C862 C860 1.561 . S
C863 C860 1.526 . S
C863 C864 1.396 . S
C863 C868 1.390 . S
C864 C858 1.465 . S
C864 C863 1.396 . S
C864 C865 1.399 . S
C865 H851 0.929 . S
C865 C864 1.399 . S
C865 C866 1.385 . S
C866 H852 0.931 . S
C866 C865 1.385 . S
C866 C867 1.389 . S
C867 C866 1.389 . S
C867 C868 1.387 . S
C868 H853 0.930 . S
C868 C863 1.390 . S
C868 C867 1.387 . S
H869 C881 0.930 . S
H870 C883 0.930 . S
H871 C884 0.930 . S
H872 C888 0.959 . S
H873 C888 0.959 . S
H874 C888 0.961 . S
H875 C889 0.960 . S
H876 C889 0.961 . S
H877 C889 0.959 . S
H878 C892 0.929 . S
H879 C893 0.931 . S
H880 C895 0.930 . S
C881 H869 0.930 . S
C881 C882 1.399 . S
C881 C886 1.399 . S
C882 C881 1.399 . S
C882 C883 1.376 . S
C883 H870 0.930 . S
C883 C882 1.376 . S
C883 C884 1.388 . S
C884 H871 0.930 . S
C884 C883 1.388 . S
C884 C885 1.390 . S
C885 C884 1.390 . S
C885 C886 1.394 . S
C885 C891 1.465 . S
C886 C881 1.399 . S
C886 C885 1.394 . S
C886 C887 1.516 . S
C887 C886 1.516 . S
C887 C888 1.502 . S
C887 C889 1.561 . S
C887 C890 1.526 . S
C888 H872 0.959 . S
C888 H873 0.959 . S
C888 H874 0.961 . S
C888 C887 1.502 . S
C889 H875 0.960 . S
C889 H876 0.961 . S
C889 H877 0.959 . S
C889 C887 1.561 . S
C890 C887 1.526 . S
C890 C891 1.396 . S
C890 C895 1.390 . S
C891 C885 1.465 . S
C891 C890 1.396 . S
C891 C892 1.399 . S
C892 H878 0.929 . S
C892 C891 1.399 . S
C892 C893 1.385 . S
C893 H879 0.931 . S
C893 C892 1.385 . S
C893 C894 1.389 . S
C894 C893 1.389 . S
C894 C895 1.387 . S
C895 H880 0.930 . S
C895 C890 1.390 . S
C895 C894 1.387 . S
H896 C908 0.930 . S
H897 C910 0.930 . S
H898 C911 0.930 . S
H899 C915 0.959 . S
H900 C915 0.959 . S
H901 C915 0.961 . S
H902 C916 0.960 . S
H903 C916 0.961 1_554 S
H904 C916 0.959 1_554 S
H905 C919 0.929 . S
H906 C920 0.931 . S
H907 C922 0.930 1_554 S
C908 H896 0.930 . S
C908 C909 1.399 . S
C908 C913 1.399 . S
C909 C908 1.399 . S
C909 C910 1.376 . S
C910 H897 0.930 . S
C910 C909 1.376 . S
C910 C911 1.388 . S
C911 H898 0.930 . S
C911 C910 1.388 . S
C911 C912 1.390 . S
C912 C911 1.390 . S
C912 C913 1.394 . S
C912 C918 1.465 . S
C913 C908 1.399 . S
C913 C912 1.394 . S
C913 C914 1.516 . S
C914 C913 1.516 . S
C914 C915 1.502 . S
C914 C916 1.561 . S
C914 C917 1.526 . S
C915 H899 0.959 . S
C915 H900 0.959 . S
C915 H901 0.961 . S
C915 C914 1.502 . S
C916 H902 0.960 . S
C916 H903 0.961 1_556 S
C916 H904 0.959 1_556 S
C916 C914 1.561 . S
C917 C914 1.526 . S
C917 C918 1.396 . S
C917 C922 1.390 . S
C918 C912 1.465 . S
C918 C917 1.396 . S
C918 C919 1.399 . S
C919 H905 0.929 . S
C919 C918 1.399 . S
C919 C920 1.385 1_556 S
C920 H906 0.931 . S
C920 C919 1.385 1_554 S
C920 C921 1.389 . S
C921 C920 1.389 . S
C921 C922 1.387 1_554 S
C922 H907 0.930 1_556 S
C922 C917 1.390 . S
C922 C921 1.387 1_556 S
H923 C935 0.930 . S
H924 C937 0.930 . S
H925 C938 0.930 . S
H926 C942 0.959 1_554 S
H927 C942 0.959 . S
H928 C942 0.961 . S
H929 C943 0.960 . S
H930 C943 0.961 . S
H931 C943 0.955 1_554 S
H932 C946 0.929 . S
H933 C947 0.931 . S
H934 C949 0.930 . S
C935 H923 0.930 . S
C935 C936 1.399 . S
C935 C940 1.399 . S
C936 C935 1.399 . S
C936 C937 1.376 . S
C937 H924 0.930 . S
C937 C936 1.376 . S
C937 C938 1.388 . S
C938 H925 0.930 . S
C938 C937 1.388 . S
C938 C939 1.390 . S
C939 C938 1.390 . S
C939 C940 1.394 . S
C939 C945 1.465 . S
C940 C935 1.399 . S
C940 C939 1.394 . S
C940 C941 1.516 . S
C941 C940 1.516 . S
C941 C942 1.502 1_554 S
C941 C943 1.561 1_554 S
C941 C944 1.526 . S
C942 H926 0.959 1_556 S
C942 H927 0.959 . S
C942 H928 0.961 . S
C942 C941 1.502 1_556 S
C943 H929 0.960 . S
C943 H930 0.961 . S
C943 H931 0.955 1_556 S
C943 C941 1.561 1_556 S
C944 C941 1.526 . S
C944 C945 1.396 . S
C944 C949 1.390 1_554 S
C945 C939 1.465 . S
C945 C944 1.396 . S
C945 C946 1.399 . S
C946 H932 0.929 . S
C946 C945 1.399 . S
C946 C947 1.385 . S
C947 H933 0.931 . S
C947 C946 1.385 . S
C947 C948 1.389 1_554 S
C948 C947 1.389 1_556 S
C948 C949 1.387 . S
C949 H934 0.930 . S
C949 C944 1.390 1_556 S
C949 C948 1.387 . S
H950 C962 0.930 . S
H951 C964 0.930 . S
H952 C965 0.930 . S
H953 C969 0.959 . S
H954 C969 0.959 . S
H955 C969 0.961 . S
H956 C970 0.960 . S
H957 C970 0.961 . S
H958 C970 0.959 . S
H959 C973 0.929 . S
H960 C974 0.931 . S
H961 C976 0.930 1_554 S
C962 H950 0.930 . S
C962 C963 1.399 . S
C962 C967 1.399 . S
C963 C962 1.399 . S
C963 C964 1.376 . S
C964 H951 0.930 . S
C964 C963 1.376 . S
C964 C965 1.388 . S
C965 H952 0.930 . S
C965 C964 1.388 . S
C965 C966 1.390 . S
C966 C965 1.390 . S
C966 C967 1.394 . S
C966 C972 1.465 . S
C967 C962 1.399 . S
C967 C966 1.394 . S
C967 C968 1.516 . S
C968 C967 1.516 . S
C968 C969 1.502 . S
C968 C970 1.561 . S
C968 C971 1.526 . S
C969 H953 0.959 . S
C969 H954 0.959 . S
C969 H955 0.961 . S
C969 C968 1.502 . S
C970 H956 0.960 . S
C970 H957 0.961 . S
C970 H958 0.959 . S
C970 C968 1.561 . S
C971 C968 1.526 . S
C971 C972 1.396 . S
C971 C976 1.390 . S
C972 C966 1.465 . S
C972 C971 1.396 . S
C972 C973 1.399 . S
C973 H959 0.929 . S
C973 C972 1.399 . S
C973 C974 1.385 1_556 S
C974 H960 0.931 . S
C974 C973 1.385 1_554 S
C974 C975 1.389 . S
C975 C974 1.389 . S
C975 C976 1.387 1_554 S
C976 H961 0.930 1_556 S
C976 C971 1.390 . S
C976 C975 1.387 1_556 S
H977 C989 0.930 . S
H978 C991 0.930 . S
H979 C992 0.930 . S
H980 C996 0.959 . S
H981 C996 0.959 . S
H982 C996 0.961 . S
H983 C997 0.960 . S
H984 C997 0.961 . S
H985 C997 0.959 . S
H986 C1000 0.929 . S
H987 C1001 0.931 . S
H988 C1003 0.930 . S
C989 H977 0.930 . S
C989 C990 1.399 . S
C989 C994 1.399 . S
C990 C989 1.399 . S
C990 C991 1.376 . S
C991 H978 0.930 . S
C991 C990 1.376 . S
C991 C992 1.388 . S
C992 H979 0.930 . S
C992 C991 1.388 . S
C992 C993 1.390 . S
C993 C992 1.390 . S
C993 C994 1.394 . S
C993 C999 1.465 . S
C994 C989 1.399 . S
C994 C993 1.394 . S
C994 C995 1.516 . S
C995 C994 1.516 . S
C995 C996 1.502 . S
C995 C997 1.561 . S
C995 C998 1.526 . S
C996 H980 0.959 . S
C996 H981 0.959 . S
C996 H982 0.961 . S
C996 C995 1.502 . S
C997 H983 0.960 . S
C997 H984 0.961 . S
C997 H985 0.959 . S
C997 C995 1.561 . S
C998 C995 1.526 . S
C998 C999 1.396 . S
C998 C1003 1.390 . S
C999 C993 1.465 . S
C999 C998 1.396 . S
C999 C1000 1.399 1_554 S
C1000 H986 0.929 . S
C1000 C999 1.399 1_556 S
C1000 C1001 1.385 . S
C1001 H987 0.931 . S
C1001 C1000 1.385 . S
C1001 C1002 1.389 . S
C1002 C1001 1.389 . S
C1002 C1003 1.387 1_556 S
C1003 H988 0.930 . S
C1003 C998 1.390 . S
C1003 C1002 1.387 1_554 S
H1004 C1016 0.930 . S
H1005 C1018 0.930 . S
H1006 C1019 0.930 . S
H1007 C1023 0.959 . S
H1008 C1023 0.959 . S
H1009 C1023 0.961 . S
H1010 C1024 0.960 . S
H1011 C1024 0.961 . S
H1012 C1024 0.959 . S
H1013 C1027 0.929 . S
H1014 C1028 0.931 . S
H1015 C1030 0.930 . S
C1016 H1004 0.930 . S
C1016 C1017 1.399 . S
C1016 C1021 1.399 . S
C1017 C1016 1.399 . S
C1017 C1018 1.376 . S
C1018 H1005 0.930 . S
C1018 C1017 1.376 . S
C1018 C1019 1.388 . S
C1019 H1006 0.930 . S
C1019 C1018 1.388 . S
C1019 C1020 1.390 . S
C1020 C1019 1.390 . S
C1020 C1021 1.394 . S
C1020 C1026 1.465 . S
C1021 C1016 1.399 . S
C1021 C1020 1.394 . S
C1021 C1022 1.516 . S
C1022 C1021 1.516 . S
C1022 C1023 1.502 . S
C1022 C1024 1.561 . S
C1022 C1025 1.526 . S
C1023 H1007 0.959 . S
C1023 H1008 0.959 . S
C1023 H1009 0.961 . S
C1023 C1022 1.502 . S
C1024 H1010 0.960 . S
C1024 H1011 0.961 . S
C1024 H1012 0.959 . S
C1024 C1022 1.561 . S
C1025 C1022 1.526 . S
C1025 C1026 1.396 . S
C1025 C1030 1.390 . S
C1026 C1020 1.465 . S
C1026 C1025 1.396 . S
C1026 C1027 1.399 . S
C1027 H1013 0.929 . S
C1027 C1026 1.399 . S
C1027 C1028 1.385 . S
C1028 H1014 0.931 . S
C1028 C1027 1.385 . S
C1028 C1029 1.389 . S
C1029 C1028 1.389 . S
C1029 C1030 1.387 . S
C1030 H1015 0.930 . S
C1030 C1025 1.390 . S
C1030 C1029 1.387 . S
H1031 C1043 0.930 . S
H1032 C1045 0.930 . S
H1033 C1046 0.930 . S
H1034 C1050 0.959 . S
H1035 C1050 0.959 . S
H1036 C1050 0.961 . S
H1037 C1051 0.960 . S
H1038 C1051 0.961 . S
H1039 C1051 0.959 . S
H1040 C1054 0.929 . S
H1041 C1055 0.931 . S
H1042 C1057 0.930 . S
C1043 H1031 0.930 . S
C1043 C1044 1.399 . S
C1043 C1048 1.399 . S
C1044 C1043 1.399 . S
C1044 C1045 1.376 . S
C1045 H1032 0.930 . S
C1045 C1044 1.376 . S
C1045 C1046 1.388 . S
C1046 H1033 0.930 . S
C1046 C1045 1.388 . S
C1046 C1047 1.390 . S
C1047 C1046 1.390 . S
C1047 C1048 1.394 . S
C1047 C1053 1.465 . S
C1048 C1043 1.399 . S
C1048 C1047 1.394 . S
C1048 C1049 1.516 . S
C1049 C1048 1.516 . S
C1049 C1050 1.502 . S
C1049 C1051 1.561 . S
C1049 C1052 1.526 . S
C1050 H1034 0.959 . S
C1050 H1035 0.959 . S
C1050 H1036 0.961 . S
C1050 C1049 1.502 . S
C1051 H1037 0.960 . S
C1051 H1038 0.961 . S
C1051 H1039 0.959 . S
C1051 C1049 1.561 . S
C1052 C1049 1.526 . S
C1052 C1053 1.396 . S
C1052 C1057 1.390 . S
C1053 C1047 1.465 . S
C1053 C1052 1.396 . S
C1053 C1054 1.399 . S
C1054 H1040 0.929 . S
C1054 C1053 1.399 . S
C1054 C1055 1.385 . S
C1055 H1041 0.931 . S
C1055 C1054 1.385 . S
C1055 C1056 1.389 . S
C1056 C1055 1.389 . S
C1056 C1057 1.387 . S
C1057 H1042 0.930 . S
C1057 C1052 1.390 . S
C1057 C1056 1.387 . S
H1058 C1070 0.930 . S
H1059 C1072 0.930 . S
H1060 C1073 0.930 . S
H1061 C1077 0.959 . S
H1062 C1077 0.959 . S
H1063 C1077 0.961 . S
H1064 C1078 0.960 . S
H1065 C1078 0.961 . S
H1066 C1078 0.959 . S
H1067 C1081 0.929 . S
H1068 C1082 0.931 . S
H1069 C1084 0.930 . S
C1070 H1058 0.930 . S
C1070 C1071 1.399 . S
C1070 C1075 1.399 . S
C1071 C1070 1.399 . S
C1071 C1072 1.376 . S
C1072 H1059 0.930 . S
C1072 C1071 1.376 . S
C1072 C1073 1.388 . S
C1073 H1060 0.930 . S
C1073 C1072 1.388 . S
C1073 C1074 1.390 . S
C1074 C1073 1.390 . S
C1074 C1075 1.394 . S
C1074 C1080 1.465 . S
C1075 C1070 1.399 . S
C1075 C1074 1.394 . S
C1075 C1076 1.516 . S
C1076 C1075 1.516 . S
C1076 C1077 1.502 . S
C1076 C1078 1.561 . S
C1076 C1079 1.526 . S
C1077 H1061 0.959 . S
C1077 H1062 0.959 . S
C1077 H1063 0.961 . S
C1077 C1076 1.502 . S
C1078 H1064 0.960 . S
C1078 H1065 0.961 . S
C1078 H1066 0.959 . S
C1078 C1076 1.561 . S
C1079 C1076 1.526 . S
C1079 C1080 1.396 . S
C1079 C1084 1.390 . S
C1080 C1074 1.465 . S
C1080 C1079 1.396 . S
C1080 C1081 1.399 . S
C1081 H1067 0.929 . S
C1081 C1080 1.399 . S
C1081 C1082 1.385 . S
C1082 H1068 0.931 . S
C1082 C1081 1.385 . S
C1082 C1083 1.389 . S
C1083 C1082 1.389 . S
C1083 C1084 1.387 . S
C1084 H1069 0.930 . S
C1084 C1079 1.390 . S
C1084 C1083 1.387 . S
H1085 C1097 0.930 . S
H1086 C1099 0.930 . S
H1087 C1100 0.930 . S
H1088 C1104 0.959 . S
H1089 C1104 0.959 . S
H1090 C1104 0.961 . S
H1091 C1105 0.960 . S
H1092 C1105 0.961 . S
H1093 C1105 0.959 . S
H1094 C1108 0.929 . S
H1095 C1109 0.931 . S
H1096 C1111 0.930 . S
C1097 H1085 0.930 . S
C1097 C1098 1.399 . S
C1097 C1102 1.399 . S
C1098 C1097 1.399 . S
C1098 C1099 1.376 . S
C1099 H1086 0.930 . S
C1099 C1098 1.376 . S
C1099 C1100 1.388 . S
C1100 H1087 0.930 . S
C1100 C1099 1.388 . S
C1100 C1101 1.390 . S
C1101 C1100 1.390 . S
C1101 C1102 1.394 . S
C1101 C1107 1.465 . S
C1102 C1097 1.399 . S
C1102 C1101 1.394 . S
C1102 C1103 1.516 . S
C1103 C1102 1.516 . S
C1103 C1104 1.502 . S
C1103 C1105 1.561 . S
C1103 C1106 1.526 . S
C1104 H1088 0.959 . S
C1104 H1089 0.959 . S
C1104 H1090 0.961 . S
C1104 C1103 1.502 . S
C1105 H1091 0.960 . S
C1105 H1092 0.961 . S
C1105 H1093 0.959 . S
C1105 C1103 1.561 . S
C1106 C1103 1.526 . S
C1106 C1107 1.396 . S
C1106 C1111 1.390 . S
C1107 C1101 1.465 . S
C1107 C1106 1.396 . S
C1107 C1108 1.399 . S
C1108 H1094 0.929 . S
C1108 C1107 1.399 . S
C1108 C1109 1.385 . S
C1109 H1095 0.931 . S
C1109 C1108 1.385 . S
C1109 C1110 1.389 . S
C1110 C1109 1.389 . S
C1110 C1111 1.387 . S
C1111 H1096 0.930 . S
C1111 C1106 1.390 . S
C1111 C1110 1.387 . S
C261 C18 1.864 . S
C273 C11 1.892 . S
C288 C42 1.895 . S
C300 C49 1.863 . S
C315 C73 1.870 . S
C327 C80 1.884 . S
C342 C104 1.894 . S
C354 C111 1.863 . S
C369 C142 1.895 . S
C381 C135 1.866 . S
C396 C173 1.869 . S
C408 C166 1.893 . S
C423 C204 1.894 . S
C435 C197 1.868 . S
C450 C235 1.886 . S
C462 C228 1.868 . S
C477 C2 1.500 . S
C489 C244 1.721 1_545 S
C504 C41 1.597 . S
C516 C125 1.651 1_455 S
C531 C64 1.608 . S
C543 C182 1.686 1_565 S
C558 C103 1.536 . S
C570 C187 1.647 1_655 S
C585 C55 1.896 1_554 S
C597 C10 1.986 . S
C612 C62 1.836 1_556 S
C624 C33 2.017 . S
C639 C72 1.974 . S
C651 C117 1.908 1_554 S
C666 C0 1.830 1_556 S
C678 C95 2.016 . S
C693 C126 1.617 . S
C705 C120 1.650 . S
C720 C165 1.551 . S
C732 C1 1.643 . S
C747 C188 1.532 . S
C759 C58 1.667 . S
C774 C227 1.498 . S
C786 C63 1.682 . S
C801 C179 1.858 . S
C813 C134 2.005 . S
C828 C157 2.000 . S
C840 C186 1.827 . S
C855 C196 2.017 . S
C867 C241 1.824 . S
C882 C219 2.002 . S
C894 C124 1.825 . S
C909 C210 0.404 . S
C921 C27 0.247 . S
C936 C217 0.412 . S
C948 C32 0.483 . S
C963 C148 0.479 . S
C975 C89 0.495 . S
C990 C155 0.376 . S
C1002 C94 0.220 . S
C1017 C24 0.454 . S
C1029 C213 0.502 . S
C1044 C31 0.538 . S
C1056 C218 0.497 . S
C1071 C151 0.224 . S
C1083 C86 0.502 . S
C1098 C156 0.269 . S
C1110 C93 0.484 . S
