# Generated by pormake.
# Topology lcs, (4)-cn, num edge types: 1
# Building blocks:
#     Node 0, Type 0, BuildingBlock: TATPOV_clean_sbu_0, # of connection points: 4
#     Node 1, Type 0, BuildingBlock: TATPOV_clean_sbu_0, # of connection points: 4
#     Node 2, Type 0, BuildingBlock: TATPOV_clean_sbu_0, # of connection points: 4
#     Node 3, Type 0, BuildingBlock: TATPOV_clean_sbu_0, # of connection points: 4
#     Node 4, Type 0, BuildingBlock: TATPOV_clean_sbu_0, # of connection points: 4
#     Node 5, Type 0, BuildingBlock: TATPOV_clean_sbu_0, # of connection points: 4
#     Node 6, Type 0, BuildingBlock: TATPOV_clean_sbu_0, # of connection points: 4
#     Node 7, Type 0, BuildingBlock: TATPOV_clean_sbu_0, # of connection points: 4
#     Node 8, Type 0, BuildingBlock: TATPOV_clean_sbu_0, # of connection points: 4
#     Node 9, Type 0, BuildingBlock: TATPOV_clean_sbu_0, # of connection points: 4
#     Node 10, Type 0, BuildingBlock: TATPOV_clean_sbu_0, # of connection points: 4
#     Node 11, Type 0, BuildingBlock: TATPOV_clean_sbu_0, # of connection points: 4
#     Node 12, Type 0, BuildingBlock: TATPOV_clean_sbu_0, # of connection points: 4
#     Node 13, Type 0, BuildingBlock: TATPOV_clean_sbu_0, # of connection points: 4
#     Node 14, Type 0, BuildingBlock: TATPOV_clean_sbu_0, # of connection points: 4
#     Node 15, Type 0, BuildingBlock: TATPOV_clean_sbu_0, # of connection points: 4
#     Node 16, Type 0, BuildingBlock: TATPOV_clean_sbu_0, # of connection points: 4
#     Node 17, Type 0, BuildingBlock: TATPOV_clean_sbu_0, # of connection points: 4
#     Node 18, Type 0, BuildingBlock: TATPOV_clean_sbu_0, # of connection points: 4
#     Node 19, Type 0, BuildingBlock: TATPOV_clean_sbu_0, # of connection points: 4
#     Node 20, Type 0, BuildingBlock: TATPOV_clean_sbu_0, # of connection points: 4
#     Node 21, Type 0, BuildingBlock: TATPOV_clean_sbu_0, # of connection points: 4
#     Node 22, Type 0, BuildingBlock: TATPOV_clean_sbu_0, # of connection points: 4
#     Node 23, Type 0, BuildingBlock: TATPOV_clean_sbu_0, # of connection points: 4
#     Edge 24, Type (0, 0), BuildingBlock: KIFKEQ_clean_linker_1, # of connection points: 2
#     Edge 25, Type (0, 0), BuildingBlock: KIFKEQ_clean_linker_1, # of connection points: 2
#     Edge 26, Type (0, 0), BuildingBlock: KIFKEQ_clean_linker_1, # of connection points: 2
#     Edge 27, Type (0, 0), BuildingBlock: KIFKEQ_clean_linker_1, # of connection points: 2
#     Edge 28, Type (0, 0), BuildingBlock: KIFKEQ_clean_linker_1, # of connection points: 2
#     Edge 29, Type (0, 0), BuildingBlock: KIFKEQ_clean_linker_1, # of connection points: 2
#     Edge 30, Type (0, 0), BuildingBlock: KIFKEQ_clean_linker_1, # of connection points: 2
#     Edge 31, Type (0, 0), BuildingBlock: KIFKEQ_clean_linker_1, # of connection points: 2
#     Edge 32, Type (0, 0), BuildingBlock: KIFKEQ_clean_linker_1, # of connection points: 2
#     Edge 33, Type (0, 0), BuildingBlock: KIFKEQ_clean_linker_1, # of connection points: 2
#     Edge 34, Type (0, 0), BuildingBlock: KIFKEQ_clean_linker_1, # of connection points: 2
#     Edge 35, Type (0, 0), BuildingBlock: KIFKEQ_clean_linker_1, # of connection points: 2
#     Edge 36, Type (0, 0), BuildingBlock: KIFKEQ_clean_linker_1, # of connection points: 2
#     Edge 37, Type (0, 0), BuildingBlock: KIFKEQ_clean_linker_1, # of connection points: 2
#     Edge 38, Type (0, 0), BuildingBlock: KIFKEQ_clean_linker_1, # of connection points: 2
#     Edge 39, Type (0, 0), BuildingBlock: KIFKEQ_clean_linker_1, # of connection points: 2
#     Edge 40, Type (0, 0), BuildingBlock: KIFKEQ_clean_linker_1, # of connection points: 2
#     Edge 41, Type (0, 0), BuildingBlock: KIFKEQ_clean_linker_1, # of connection points: 2
#     Edge 42, Type (0, 0), BuildingBlock: KIFKEQ_clean_linker_1, # of connection points: 2
#     Edge 43, Type (0, 0), BuildingBlock: KIFKEQ_clean_linker_1, # of connection points: 2
#     Edge 44, Type (0, 0), BuildingBlock: KIFKEQ_clean_linker_1, # of connection points: 2
#     Edge 45, Type (0, 0), BuildingBlock: KIFKEQ_clean_linker_1, # of connection points: 2
#     Edge 46, Type (0, 0), BuildingBlock: KIFKEQ_clean_linker_1, # of connection points: 2
#     Edge 47, Type (0, 0), BuildingBlock: KIFKEQ_clean_linker_1, # of connection points: 2
#     Edge 48, Type (0, 0), BuildingBlock: KIFKEQ_clean_linker_1, # of connection points: 2
#     Edge 49, Type (0, 0), BuildingBlock: KIFKEQ_clean_linker_1, # of connection points: 2
#     Edge 50, Type (0, 0), BuildingBlock: KIFKEQ_clean_linker_1, # of connection points: 2
#     Edge 51, Type (0, 0), BuildingBlock: KIFKEQ_clean_linker_1, # of connection points: 2
#     Edge 52, Type (0, 0), BuildingBlock: KIFKEQ_clean_linker_1, # of connection points: 2
#     Edge 53, Type (0, 0), BuildingBlock: KIFKEQ_clean_linker_1, # of connection points: 2
#     Edge 54, Type (0, 0), BuildingBlock: KIFKEQ_clean_linker_1, # of connection points: 2
#     Edge 55, Type (0, 0), BuildingBlock: KIFKEQ_clean_linker_1, # of connection points: 2
#     Edge 56, Type (0, 0), BuildingBlock: KIFKEQ_clean_linker_1, # of connection points: 2
#     Edge 57, Type (0, 0), BuildingBlock: KIFKEQ_clean_linker_1, # of connection points: 2
#     Edge 58, Type (0, 0), BuildingBlock: KIFKEQ_clean_linker_1, # of connection points: 2
#     Edge 59, Type (0, 0), BuildingBlock: KIFKEQ_clean_linker_1, # of connection points: 2
#     Edge 60, Type (0, 0), BuildingBlock: KIFKEQ_clean_linker_1, # of connection points: 2
#     Edge 61, Type (0, 0), BuildingBlock: KIFKEQ_clean_linker_1, # of connection points: 2
#     Edge 62, Type (0, 0), BuildingBlock: KIFKEQ_clean_linker_1, # of connection points: 2
#     Edge 63, Type (0, 0), BuildingBlock: KIFKEQ_clean_linker_1, # of connection points: 2
#     Edge 64, Type (0, 0), BuildingBlock: KIFKEQ_clean_linker_1, # of connection points: 2
#     Edge 65, Type (0, 0), BuildingBlock: KIFKEQ_clean_linker_1, # of connection points: 2
#     Edge 66, Type (0, 0), BuildingBlock: KIFKEQ_clean_linker_1, # of connection points: 2
#     Edge 67, Type (0, 0), BuildingBlock: KIFKEQ_clean_linker_1, # of connection points: 2
#     Edge 68, Type (0, 0), BuildingBlock: KIFKEQ_clean_linker_1, # of connection points: 2
#     Edge 69, Type (0, 0), BuildingBlock: KIFKEQ_clean_linker_1, # of connection points: 2
#     Edge 70, Type (0, 0), BuildingBlock: KIFKEQ_clean_linker_1, # of connection points: 2
#     Edge 71, Type (0, 0), BuildingBlock: KIFKEQ_clean_linker_1, # of connection points: 2
# Relax obj value: 0.082
# Max RMSD: 0.146
# Mean RMSD: 0.143
data_MOF--net-lcs--node1-TATPOV_clean_sbu_0--edge1-KIFKEQ_clean_linker_1
_symmetry_space_group_name_H-M    P1
_symmetry_Int_Tables_number       1
_symmetry_cell_setting            triclinic
loop_
_symmetry_equiv_pos_as_xyz
'x, y, z'
_cell_length_a     49.448972
_cell_length_b     49.432654
_cell_length_c     49.489446
_cell_angle_alpha  92.649228
_cell_angle_beta   92.530394
_cell_angle_gamma 92.624467
loop_
_atom_site_label
_atom_site_type_symbol
_atom_site_fract_x
_atom_site_fract_y
_atom_site_fract_z
_atom_type_partial_charge
Zn0 Zn 0.00319 0.19067 0.44498 0.0
Zn1 Zn 0.01551 0.23198 0.41403 0.0
O2 O 0.98262 0.24473 0.43496 0.0
O3 O 0.97323 0.21123 0.46135 0.0
O4 O 0.02498 0.26368 0.39153 0.0
O5 O 0.04073 0.19245 0.46214 0.0
O6 O 0.05173 0.22425 0.43435 0.0
C7 C 0.96801 0.23421 0.45271 0.0
C8 C 0.99658 0.17758 0.38734 0.0
O9 O 0.00394 0.20239 0.38558 0.0
O10 O 0.99508 0.16748 0.41035 0.0
C11 C 0.00731 0.27148 0.37451 0.0
O12 O 0.98332 0.25879 0.37233 0.0
C13 C 0.05845 0.20827 0.45277 0.0
Zn14 Zn 0.00534 0.81807 0.56106 0.0
Zn15 Zn 0.99439 0.77414 0.58813 0.0
O16 O 0.95749 0.78236 0.5689 0.0
O17 O 0.9684 0.81557 0.54265 0.0
O18 O 0.98682 0.73974 0.60781 0.0
O19 O 0.03695 0.80113 0.54405 0.0
O20 O 0.027 0.76396 0.56502 0.0
C21 C 0.95079 0.79901 0.55108 0.0
C22 C 0.01141 0.82756 0.61877 0.0
O23 O 0.00592 0.80214 0.61864 0.0
O24 O 0.01151 0.83955 0.5967 0.0
C25 C 0.97798 0.73939 0.63158 0.0
O26 O 0.97222 0.76233 0.64403 0.0
C27 C 0.04206 0.77703 0.54931 0.0
Zn28 Zn 0.4992 0.69603 0.94665 0.0
Zn29 Zn 0.51128 0.73644 0.91454 0.0
O30 O 0.47994 0.7506 0.93706 0.0
O31 O 0.47125 0.71804 0.96476 0.0
O32 O 0.52048 0.76753 0.89103 0.0
O33 O 0.53754 0.69634 0.96156 0.0
O34 O 0.54822 0.72766 0.93313 0.0
C35 C 0.4662 0.74098 0.95593 0.0
C36 C 0.4889 0.68239 0.88948 0.0
O37 O 0.49727 0.70682 0.88703 0.0
O38 O 0.48812 0.6727 0.91273 0.0
C39 C 0.50255 0.77491 0.87404 0.0
O40 O 0.47853 0.76225 0.87258 0.0
C41 C 0.55526 0.71147 0.95125 0.0
Zn42 Zn 0.5091 0.31732 0.06155 0.0
Zn43 Zn 0.49539 0.2759 0.09224 0.0
O44 O 0.45933 0.28495 0.07226 0.0
O45 O 0.47135 0.31719 0.04529 0.0
O46 O 0.485 0.2445 0.11492 0.0
O47 O 0.53697 0.295 0.04385 0.0
O48 O 0.52664 0.26146 0.06995 0.0
C49 C 0.45322 0.30151 0.05417 0.0
C50 C 0.51781 0.32946 0.11903 0.0
O51 O 0.50915 0.30498 0.12061 0.0
O52 O 0.5193 0.33979 0.09615 0.0
C53 C 0.5022 0.23671 0.13243 0.0
O54 O 0.52626 0.24922 0.13503 0.0
C55 C 0.54098 0.27145 0.0517 0.0
Zn56 Zn 0.93409 0.74793 0.19217 0.0
Zn57 Zn 0.97903 0.7588 0.16588 0.0
O58 O 0.97122 0.79547 0.18548 0.0
O59 O 0.93699 0.78491 0.21065 0.0
O60 O 0.01362 0.76652 0.14664 0.0
O61 O 0.95106 0.71643 0.20936 0.0
O62 O 0.98878 0.72655 0.18927 0.0
C63 C 0.9543 0.80225 0.20302 0.0
C64 C 0.92595 0.74202 0.13433 0.0
O65 O 0.9514 0.74741 0.13503 0.0
O66 O 0.91341 0.74193 0.1561 0.0
C67 C 0.01414 0.77558 0.12299 0.0
O68 O 0.99128 0.78112 0.11035 0.0
C69 C 0.97538 0.71156 0.20479 0.0
Zn70 Zn 0.56768 0.75649 0.30708 0.0
Zn71 Zn 0.52571 0.744 0.3379 0.0
O72 O 0.5129 0.77566 0.31507 0.0
O73 O 0.54685 0.78535 0.28927 0.0
O74 O 0.49399 0.73484 0.36102 0.0
O75 O 0.56635 0.71854 0.29096 0.0
O76 O 0.53425 0.70735 0.31846 0.0
C77 C 0.52341 0.78997 0.29709 0.0
C78 C 0.57963 0.76499 0.36471 0.0
O79 O 0.5549 0.75716 0.36622 0.0
O80 O 0.59014 0.76602 0.34186 0.0
C81 C 0.47846 0.75325 0.36866 0.0
O82 O 0.48283 0.77808 0.36095 0.0
C83 C 0.55058 0.70074 0.30026 0.0
Zn84 Zn 0.43641 0.25596 0.68948 0.0
Zn85 Zn 0.48286 0.26751 0.66715 0.0
O86 O 0.47311 0.30368 0.6869 0.0
O87 O 0.43841 0.29148 0.71073 0.0
O88 O 0.51822 0.27621 0.64972 0.0
O89 O 0.45191 0.22256 0.70482 0.0
O90 O 0.49169 0.23451 0.68976 0.0
C91 C 0.45551 0.30952 0.7041 0.0
C92 C 0.43187 0.25229 0.63182 0.0
O93 O 0.45748 0.2559 0.63464 0.0
O94 O 0.4174 0.25324 0.65229 0.0
C95 C 0.51913 0.28696 0.62687 0.0
O96 O 0.49651 0.29394 0.61474 0.0
C97 C 0.47673 0.21814 0.70243 0.0
Zn98 Zn 0.06632 0.25182 0.81573 0.0
Zn99 Zn 0.02251 0.23938 0.84318 0.0
O100 O 0.01091 0.2725 0.822 0.0
O101 O 0.04721 0.28303 0.79972 0.0
O102 O 0.98978 0.22915 0.86412 0.0
O103 O 0.06491 0.21508 0.79682 0.0
O104 O 0.03184 0.20334 0.8229 0.0
C105 C 0.02332 0.28787 0.80611 0.0
C106 C 0.07548 0.25727 0.87357 0.0
O107 O 0.05018 0.25142 0.87327 0.0
O108 O 0.08781 0.25772 0.85169 0.0
C109 C 0.98245 0.24568 0.88256 0.0
O110 O 0.99589 0.26916 0.88673 0.0
C111 C 0.04868 0.19707 0.80508 0.0
Zn112 Zn 0.45024 0.00209 0.18962 0.0
Zn113 Zn 0.41968 0.01441 0.2319 0.0
O114 O 0.44215 0.98233 0.24423 0.0
O115 O 0.46772 0.97273 0.21007 0.0
O116 O 0.39673 0.02352 0.26371 0.0
O117 O 0.46675 0.03994 0.19146 0.0
O118 O 0.4396 0.05093 0.22393 0.0
C119 C 0.45992 0.96792 0.23346 0.0
C120 C 0.39247 0.99438 0.17787 0.0
O121 O 0.39115 0.00195 0.20267 0.0
O122 O 0.41526 0.9932 0.16723 0.0
C123 C 0.38904 0.00514 0.27922 0.0
O124 O 0.39658 0.98026 0.27477 0.0
C125 C 0.45777 0.05761 0.20761 0.0
Zn126 Zn 0.32269 0.06594 0.50496 0.0
Zn127 Zn 0.27716 0.09094 0.49487 0.0
O128 O 0.28591 0.07252 0.45793 0.0
O129 O 0.31876 0.04577 0.46873 0.0
O130 O 0.24239 0.10975 0.4874 0.0
O131 O 0.30681 0.05015 0.538 0.0
O132 O 0.26777 0.06717 0.52683 0.0
C133 C 0.30217 0.05431 0.45128 0.0
C134 C 0.32955 0.12382 0.51005 0.0
O135 O 0.30387 0.12213 0.5069 0.0
O136 O 0.34307 0.1027 0.50835 0.0
C137 C 0.24193 0.13348 0.47851 0.0
O138 O 0.26479 0.14606 0.47276 0.0
C139 C 0.28212 0.05325 0.54256 0.0
Zn140 Zn 0.19784 0.93664 0.74969 0.0
Zn141 Zn 0.17002 0.98063 0.76036 0.0
O142 O 0.18937 0.97322 0.79722 0.0
O143 O 0.21567 0.93983 0.78694 0.0
O144 O 0.14974 0.01468 0.76777 0.0
O145 O 0.21496 0.95415 0.7184 0.0
O146 O 0.19333 0.99101 0.72812 0.0
C147 C 0.20722 0.95672 0.80422 0.0
C148 C 0.14009 0.92666 0.74351 0.0
O149 O 0.13998 0.95206 0.74905 0.0
O150 O 0.16231 0.91489 0.74324 0.0
C151 C 0.12567 0.01464 0.7759 0.0
O152 O 0.11315 0.99149 0.78078 0.0
C153 C 0.20948 0.97821 0.71333 0.0
Zn154 Zn 0.25397 0.81146 0.064 0.0
Zn155 Zn 0.24103 0.8425 0.02302 0.0
O156 O 0.27305 0.82071 0.00931 0.0
O157 O 0.28258 0.79393 0.04242 0.0
O158 O 0.23125 0.86516 0.99147 0.0
O159 O 0.21606 0.79528 0.06377 0.0
O160 O 0.20461 0.82286 0.03196 0.0
C161 C 0.28738 0.80247 0.0193 0.0
C162 C 0.26257 0.86907 0.07668 0.0
O163 O 0.25422 0.8709 0.05219 0.0
O164 O 0.26394 0.84603 0.08676 0.0
C165 C 0.2488 0.88247 0.98384 0.0
O166 O 0.27273 0.88481 0.9966 0.0
C167 C 0.19807 0.80475 0.04839 0.0
Zn168 Zn 0.18937 0.44255 0.00278 0.0
Zn169 Zn 0.2336 0.41534 0.01509 0.0
O170 O 0.24527 0.4374 0.98276 0.0
O171 O 0.20887 0.45952 0.97227 0.0
O172 O 0.26654 0.39483 0.02508 0.0
O173 O 0.19055 0.46068 0.03985 0.0
O174 O 0.22399 0.43492 0.05118 0.0
C175 C 0.23295 0.45357 0.9677 0.0
C176 C 0.18112 0.38444 0.9966 0.0
O177 O 0.20638 0.38499 0.00258 0.0
O178 O 0.16853 0.40619 0.99625 0.0
C179 C 0.27474 0.37743 0.00795 0.0
O180 O 0.26194 0.37402 0.98411 0.0
C181 C 0.20691 0.45241 0.05768 0.0
Zn182 Zn 0.74928 0.19317 0.93872 0.0
Zn183 Zn 0.7602 0.1614 0.98002 0.0
O184 O 0.79735 0.18113 0.97422 0.0
O185 O 0.78727 0.20922 0.94235 0.0
O186 O 0.76604 0.13801 0.01185 0.0
O187 O 0.71953 0.21048 0.95877 0.0
O188 O 0.72804 0.18368 0.99211 0.0
C189 C 0.80448 0.19979 0.95864 0.0
C190 C 0.74197 0.13571 0.92481 0.0
O191 O 0.74894 0.1336 0.94965 0.0
O192 O 0.74083 0.15891 0.91503 0.0
C193 C 0.78704 0.12502 0.01727 0.0
O194 O 0.80787 0.12708 0.00178 0.0
C195 C 0.71411 0.202 0.98175 0.0
Zn196 Zn 0.06353 0.50549 0.32163 0.0
Zn197 Zn 0.08775 0.49447 0.27543 0.0
O198 O 0.06872 0.45787 0.28423 0.0
O199 O 0.0441 0.46887 0.31874 0.0
O200 O 0.10646 0.48654 0.24071 0.0
O201 O 0.04709 0.53784 0.30486 0.0
O202 O 0.06402 0.5262 0.26586 0.0
C203 C 0.05142 0.45133 0.30147 0.0
C204 C 0.12126 0.51111 0.32733 0.0
O205 O 0.11912 0.50702 0.30176 0.0
O206 O 0.10044 0.50989 0.34131 0.0
C207 C 0.13026 0.47777 0.24037 0.0
O208 O 0.14284 0.4724 0.26329 0.0
C209 C 0.05003 0.54201 0.28007 0.0
Zn210 Zn 0.69369 0.9496 0.50044 0.0
Zn211 Zn 0.73445 0.91884 0.51472 0.0
O212 O 0.74873 0.94008 0.48249 0.0
O213 O 0.71559 0.9665 0.47187 0.0
O214 O 0.76586 0.89612 0.52537 0.0
O215 O 0.69345 0.96689 0.53772 0.0
O216 O 0.72482 0.93933 0.55059 0.0
C217 C 0.73887 0.95802 0.46768 0.0
C218 C 0.68089 0.89202 0.49291 0.0
O219 O 0.70532 0.89032 0.50158 0.0
O220 O 0.67084 0.91503 0.49099 0.0
C221 C 0.77338 0.87836 0.5082 0.0
O222 O 0.76068 0.87572 0.48426 0.0
C223 C 0.70843 0.9578 0.55624 0.0
Zn224 Zn 0.81134 0.06268 0.25474 0.0
Zn225 Zn 0.84164 0.02092 0.24206 0.0
O226 O 0.81991 0.00785 0.27431 0.0
O227 O 0.79347 0.04142 0.28342 0.0
O228 O 0.86387 0.98912 0.23223 0.0
O229 O 0.79559 0.06253 0.21673 0.0
O230 O 0.82208 0.02958 0.20573 0.0
C231 C 0.80176 0.01825 0.28849 0.0
C232 C 0.86907 0.07452 0.26266 0.0
O233 O 0.87046 0.04989 0.25449 0.0
O234 O 0.84623 0.08495 0.26441 0.0
C235 C 0.88143 0.98145 0.24943 0.0
O236 O 0.88424 0.99422 0.27335 0.0
C237 C 0.80463 0.04656 0.19893 0.0
Zn238 Zn 0.2532 0.69381 0.43799 0.0
Zn239 Zn 0.26377 0.66821 0.48282 0.0
O240 O 0.30049 0.68713 0.47381 0.0
O241 O 0.28937 0.7141 0.4413 0.0
O242 O 0.27249 0.64783 0.51628 0.0
O243 O 0.22041 0.70915 0.45472 0.0
O244 O 0.23152 0.69134 0.49336 0.0
C245 C 0.307 0.70545 0.45762 0.0
C246 C 0.24782 0.6362 0.43004 0.0
O247 O 0.25158 0.63751 0.45564 0.0
O248 O 0.24929 0.65752 0.41683 0.0
C249 C 0.25481 0.63068 0.52396 0.0
O250 O 0.23132 0.62759 0.51043 0.0
C251 C 0.21573 0.70545 0.47927 0.0
Zn252 Zn 0.302 0.56436 0.75702 0.0
Zn253 Zn 0.33372 0.52384 0.74322 0.0
O254 O 0.31221 0.50937 0.77506 0.0
O255 O 0.28491 0.54196 0.78518 0.0
O256 O 0.35705 0.49284 0.73294 0.0
O257 O 0.28562 0.56413 0.71931 0.0
O258 O 0.31358 0.53281 0.70717 0.0
C259 C 0.29377 0.51887 0.7895 0.0
C260 C 0.35947 0.57781 0.76523 0.0
O261 O 0.3616 0.55343 0.75653 0.0
O262 O 0.3363 0.58754 0.76701 0.0
C263 C 0.37426 0.48511 0.75048 0.0
O264 O 0.37599 0.49732 0.77469 0.0
C265 C 0.29511 0.549 0.70108 0.0
Zn266 Zn 0.55547 0.00664 0.81409 0.0
Zn267 Zn 0.58246 0.99496 0.77003 0.0
O268 O 0.56206 0.95869 0.77811 0.0
O269 O 0.53654 0.96988 0.81185 0.0
O270 O 0.60373 0.98565 0.73716 0.0
O271 O 0.53927 0.03805 0.79606 0.0
O272 O 0.56029 0.02782 0.75893 0.0
C273 C 0.54431 0.95223 0.79495 0.0
C274 C 0.61304 0.012 0.82357 0.0
O275 O 0.61269 0.00609 0.79827 0.0
O276 O 0.59105 0.0127 0.83571 0.0
C277 C 0.62198 0.00255 0.73015 0.0
O278 O 0.62572 0.02592 0.74388 0.0
C279 C 0.54467 0.04304 0.77197 0.0
Zn280 Zn 0.81341 0.55833 0.00161 0.0
Zn281 Zn 0.77147 0.58853 0.98966 0.0
O282 O 0.77889 0.56792 0.95327 0.0
O283 O 0.81099 0.54049 0.96445 0.0
O284 O 0.73799 0.60932 0.98153 0.0
O285 O 0.79427 0.54152 0.0321 0.0
O286 O 0.76024 0.56733 0.02303 0.0
C287 C 0.79488 0.54937 0.94676 0.0
C288 C 0.82577 0.61634 0.00725 0.0
O289 O 0.80079 0.61778 0.0004 0.0
O290 O 0.8361 0.59342 0.00881 0.0
C291 C 0.73809 0.63345 0.9736 0.0
O292 O 0.76127 0.64614 0.96915 0.0
C293 C 0.7712 0.5498 0.03754 0.0
Zn294 Zn 0.95798 0.50031 0.69935 0.0
Zn295 Zn 0.92342 0.51284 0.73762 0.0
O296 O 0.94578 0.48236 0.75375 0.0
O297 O 0.97596 0.47396 0.72342 0.0
O298 O 0.89826 0.52271 0.76721 0.0
O299 O 0.97163 0.53909 0.69838 0.0
O300 O 0.94155 0.5498 0.72806 0.0
C301 C 0.96571 0.46906 0.74578 0.0
C302 C 0.90147 0.48771 0.6836 0.0
O303 O 0.89761 0.49716 0.70737 0.0
O304 O 0.92527 0.48705 0.67513 0.0
C305 C 0.87998 0.50549 0.77352 0.0
O306 O 0.87817 0.48149 0.76082 0.0
C307 C 0.96007 0.55691 0.71229 0.0
Zn308 Zn 0.75855 0.3062 0.55979 0.0
Zn309 Zn 0.7466 0.34052 0.52126 0.0
O310 O 0.77611 0.31707 0.50495 0.0
O311 O 0.78425 0.28731 0.53569 0.0
O312 O 0.73707 0.36526 0.49133 0.0
O313 O 0.71969 0.29326 0.5611 0.0
O314 O 0.70943 0.32333 0.5313 0.0
C315 C 0.78901 0.29697 0.51305 0.0
C316 C 0.77263 0.36265 0.5748 0.0
O317 O 0.76325 0.36647 0.55101 0.0
O318 O 0.77258 0.33895 0.58355 0.0
C319 C 0.75487 0.38245 0.48397 0.0
O320 O 0.77914 0.38357 0.49603 0.0
C321 C 0.70208 0.30503 0.5472 0.0
Zn322 Zn 0.7041 0.44488 0.25209 0.0
Zn323 Zn 0.67281 0.48598 0.26513 0.0
O324 O 0.69363 0.4783 0.30115 0.0
O325 O 0.72114 0.44636 0.28963 0.0
O326 O 0.64965 0.51719 0.27505 0.0
O327 O 0.72061 0.46641 0.22292 0.0
O328 O 0.69377 0.49953 0.23255 0.0
C329 C 0.71214 0.46225 0.30751 0.0
C330 C 0.6466 0.43144 0.24502 0.0
O331 O 0.64474 0.45606 0.25306 0.0
O332 O 0.66968 0.42151 0.24324 0.0
C333 C 0.63142 0.52394 0.25804 0.0
O334 O 0.62851 0.51063 0.23441 0.0
C335 C 0.71186 0.48944 0.21806 0.0
H336 H 0.07694 0.40548 0.28606 0.0
H337 H 0.00497 0.43286 0.32314 0.0
H338 H 0.06543 0.35912 0.29866 0.0
H339 H 0.9935 0.3868 0.33556 0.0
H340 H 0.97185 0.29806 0.34251 0.0
H341 H 0.98098 0.33917 0.31826 0.0
H342 H 0.06524 0.33961 0.34524 0.0
H343 H 0.05621 0.29852 0.36948 0.0
C344 C 0.05832 0.40148 0.29623 0.0
C345 C 0.04195 0.42278 0.30381 0.0
C346 C 0.05187 0.37503 0.30362 0.0
C347 C 0.0287 0.36942 0.31828 0.0
C348 C 0.01138 0.39044 0.32413 0.0
C349 C 0.01802 0.41685 0.31712 0.0
C350 C 0.99239 0.30675 0.34304 0.0
C351 C 0.01326 0.29519 0.35817 0.0
C352 C 0.99758 0.33028 0.32916 0.0
C353 C 0.0238 0.34259 0.32987 0.0
C354 C 0.04489 0.33041 0.34406 0.0
C355 C 0.03965 0.30702 0.35816 0.0
H356 H 0.90554 0.78819 0.57948 0.0
H357 H 0.93153 0.81774 0.50362 0.0
H358 H 0.8597 0.80284 0.56894 0.0
H359 H 0.88603 0.8322 0.4931 0.0
H360 H 0.79758 0.8429 0.47403 0.0
H361 H 0.83766 0.81732 0.48348 0.0
H362 H 0.84204 0.84996 0.56608 0.0
H363 H 0.80184 0.87554 0.55672 0.0
C364 C 0.90127 0.79707 0.56024 0.0
C365 C 0.92211 0.80194 0.54242 0.0
C366 C 0.87514 0.8057 0.55434 0.0
C367 C 0.86934 0.81889 0.53031 0.0
C368 C 0.88977 0.82196 0.51169 0.0
C369 C 0.91587 0.81374 0.51775 0.0
C370 C 0.80691 0.84446 0.4943 0.0
C371 C 0.79666 0.86151 0.51456 0.0
C372 C 0.82989 0.82979 0.49968 0.0
C373 C 0.84303 0.83165 0.5255 0.0
C374 C 0.83218 0.84787 0.54606 0.0
C375 C 0.8093 0.86272 0.54062 0.0
H376 H 0.41018 0.56009 0.7761 0.0
H377 H 0.36368 0.63208 0.77833 0.0
H378 H 0.44796 0.58535 0.80057 0.0
H379 H 0.40135 0.65714 0.80278 0.0
H380 H 0.47595 0.69994 0.83918 0.0
H381 H 0.44994 0.67461 0.80246 0.0
H382 H 0.44987 0.60295 0.84919 0.0
H383 H 0.47587 0.62809 0.88581 0.0
C384 C 0.40822 0.58143 0.78127 0.0
C385 C 0.38381 0.59402 0.77568 0.0
C386 C 0.42983 0.59582 0.79532 0.0
C387 C 0.42748 0.6231 0.80371 0.0
C388 C 0.40381 0.63618 0.79637 0.0
C389 C 0.38214 0.62176 0.78257 0.0
C390 C 0.47092 0.67862 0.84136 0.0
C391 C 0.47757 0.66609 0.86556 0.0
C392 C 0.45599 0.66418 0.82037 0.0
C393 C 0.44775 0.63692 0.8231 0.0
C394 C 0.45614 0.62389 0.84644 0.0
C395 C 0.47083 0.63836 0.86752 0.0
H396 H 0.57306 0.23631 0.07787 0.0
H397 H 0.56131 0.27462 0.00191 0.0
H398 H 0.61579 0.21914 0.06287 0.0
H399 H 0.60295 0.25639 0.98625 0.0
H400 H 0.69145 0.25056 0.97615 0.0
H401 H 0.64928 0.26534 0.99389 0.0
H402 H 0.63915 0.18984 0.03394 0.0
H403 H 0.68235 0.17574 0.01721 0.0
C404 C 0.57929 0.24043 0.05769 0.0
C405 C 0.56404 0.25697 0.04112 0.0
C406 C 0.60379 0.23062 0.04906 0.0
C407 C 0.61326 0.23685 0.02353 0.0
C408 C 0.59693 0.25196 0.00641 0.0
C409 C 0.57283 0.26216 0.01522 0.0
C410 C 0.68037 0.23727 0.98902 0.0
C411 C 0.69013 0.21197 0.9952 0.0
C412 C 0.65597 0.24557 -0.00104 0.0
C413 C 0.64032 0.22854 0.01487 0.0
C414 C 0.65062 0.20357 0.02186 0.0
C415 C 0.67538 0.19546 0.01227 0.0
H416 H 0.02033 0.57995 0.3054 0.0
H417 H 0.05422 0.55955 0.22845 0.0
H418 H 0.00375 0.6213 0.28751 0.0
H419 H 0.03695 0.6009 0.2103 0.0
H420 H 0.95188 0.67638 0.23854 0.0
H421 H 0.96972 0.63528 0.25563 0.0
H422 H 0.04393 0.65058 0.21479 0.0
H423 H 0.02572 0.69174 0.19701 0.0
C424 C 0.02403 0.58412 0.28454 0.0
C425 C 0.03855 0.56631 0.26834 0.0
C426 C 0.01443 0.60786 0.27426 0.0
C427 C 0.01897 0.61443 0.24745 0.0
C428 C 0.03338 0.5966 0.23114 0.0
C429 C 0.04305 0.57276 0.24146 0.0
C430 C 0.97207 0.67115 0.23324 0.0
C431 C 0.98738 0.68746 0.21642 0.0
C432 C 0.98235 0.64757 0.24317 0.0
C433 C 0.00828 0.63962 0.23664 0.0
C434 C 0.02375 0.65598 0.21995 0.0
C435 C 0.01342 0.67968 0.20997 0.0
H436 H 0.5609 0.77604 0.41501 0.0
H437 H 0.63391 0.77784 0.37001 0.0
H438 H 0.58537 0.80085 0.45304 0.0
H439 H 0.65817 0.80268 0.40789 0.0
H440 H 0.6994 0.84163 0.48174 0.0
H441 H 0.67487 0.80384 0.45648 0.0
H442 H 0.60237 0.84938 0.45469 0.0
H443 H 0.62668 0.887 0.47995 0.0
C444 C 0.58229 0.78119 0.41344 0.0
C445 C 0.59538 0.77542 0.38933 0.0
C446 C 0.59624 0.79542 0.43519 0.0
C447 C 0.62356 0.80387 0.4333 0.0
C448 C 0.63716 0.79625 0.41002 0.0
C449 C 0.62319 0.78222 0.38821 0.0
C450 C 0.67805 0.8433 0.47653 0.0
C451 C 0.66505 0.86745 0.48241 0.0
C452 C 0.66407 0.8217 0.46203 0.0
C453 C 0.63683 0.8238 0.45345 0.0
C454 C 0.62331 0.8471 0.46121 0.0
C455 C 0.63731 0.86876 0.47548 0.0
H456 H 0.46845 0.3562 0.67883 0.0
H457 H 0.43399 0.3265 0.7511 0.0
H458 H 0.45348 0.40165 0.69075 0.0
H459 H 0.41923 0.37165 0.763 0.0
H460 H 0.40779 0.45953 0.78534 0.0
H461 H 0.43391 0.4198 0.77563 0.0
H462 H 0.40597 0.41891 0.69168 0.0
H463 H 0.37985 0.45869 0.7013 0.0
C464 C 0.45841 0.35955 0.69763 0.0
C465 C 0.45224 0.33781 0.71397 0.0
C466 C 0.44962 0.38547 0.7043 0.0
C467 C 0.43497 0.39013 0.72767 0.0
C468 C 0.4306 0.36877 0.74495 0.0
C469 C 0.43899 0.34287 0.73809 0.0
C470 C 0.4074 0.45105 0.76474 0.0
C471 C 0.39149 0.46212 0.74414 0.0
C472 C 0.42237 0.42828 0.75921 0.0
C473 C 0.42198 0.41624 0.73291 0.0
C474 C 0.40693 0.42793 0.71209 0.0
C475 C 0.39175 0.45057 0.71766 0.0
H476 H 0.95317 0.19731 0.88274 0.0
H477 H 0.9587 0.27847 0.91963 0.0
H478 H 0.91295 0.18698 0.90795 0.0
H479 H 0.91855 0.26803 0.94488 0.0
H480 H 0.82436 0.24843 0.9432 0.0
H481 H 0.87011 0.2596 0.92977 0.0
H482 H 0.89542 0.18174 0.95476 0.0
H483 H 0.8493 0.17052 0.96835 0.0
C484 C 0.94596 0.21287 0.89639 0.0
C485 C 0.95896 0.23881 0.89893 0.0
C486 C 0.92309 0.20685 0.91105 0.0
C487 C 0.91262 0.2267 0.92841 0.0
C488 C 0.92608 0.25238 0.93153 0.0
C489 C 0.94906 0.25834 0.91704 0.0
C490 C 0.83985 0.23397 0.94648 0.0
C491 C 0.83325 0.20855 0.95665 0.0
C492 C 0.86609 0.2404 0.93887 0.0
C493 C 0.88628 0.22143 0.94095 0.0
C494 C 0.88014 0.19662 0.95268 0.0
C495 C 0.85386 0.19032 0.9607 0.0
H496 H 0.30496 0.00309 0.42979 0.0
H497 H 0.30787 0.08688 0.40916 0.0
H498 H 0.32052 0.9899 0.38529 0.0
H499 H 0.32575 0.07437 0.36555 0.0
H500 H 0.35309 0.04533 0.28424 0.0
H501 H 0.32511 0.05538 0.32251 0.0
H502 H 0.36088 0.99033 0.36523 0.0
H503 H 0.38697 0.97931 0.32629 0.0
C504 C 0.30857 0.01861 0.41543 0.0
C505 C 0.30518 0.04592 0.42272 0.0
C506 C 0.31798 0.01119 0.39007 0.0
C507 C 0.32534 0.03107 0.37185 0.0
C508 C 0.32023 0.05832 0.37869 0.0
C509 C 0.30994 0.0656 0.40376 0.0
C510 C 0.3547 0.03314 0.30183 0.0
C511 C 0.37219 0.01157 0.30235 0.0
C512 C 0.33875 0.03894 0.32388 0.0
C513 C 0.34047 0.02371 0.34724 0.0
C514 C 0.35815 0.00214 0.34752 0.0
C515 C 0.37349 0.99594 0.32525 0.0
H516 H 0.20017 0.02816 0.69323 0.0
H517 H 0.24379 0.95559 0.6781 0.0
H518 H 0.21723 0.04663 0.65185 0.0
H519 H 0.2601 0.97363 0.63679 0.0
H520 H 0.23049 0.05695 0.56063 0.0
H521 H 0.21293 0.03971 0.60232 0.0
H522 H 0.29095 0.00807 0.62227 0.0
H523 H 0.30819 0.02453 0.58064 0.0
C524 C 0.21343 0.0162 0.68119 0.0
C525 C 0.2207 0.99045 0.68911 0.0
C526 C 0.223 0.02667 0.65734 0.0
C527 C 0.24006 0.01163 0.64098 0.0
C528 C 0.24736 0.98598 0.64907 0.0
C529 C 0.23788 0.97557 0.67279 0.0
C530 C 0.24381 0.04613 0.57385 0.0
C531 C 0.27071 0.04198 0.56715 0.0
C532 C 0.23382 0.03648 0.59786 0.0
C533 C 0.25051 0.02247 0.61565 0.0
C534 C 0.27737 0.01838 0.60888 0.0
C535 C 0.28731 0.02793 0.58496 0.0
H536 H 0.25423 0.93724 0.82393 0.0
H537 H 0.17948 0.97016 0.84924 0.0
H538 H 0.26471 0.92444 0.86997 0.0
H539 H 0.19001 0.95719 0.89561 0.0
H540 H 0.28387 0.9163 0.95872 0.0
H541 H 0.27499 0.94091 0.91789 0.0
H542 H 0.19155 0.91065 0.9147 0.0
H543 H 0.20033 0.88606 0.95559 0.0
C544 C 0.24034 0.94232 0.83951 0.0
C545 C 0.21596 0.95455 0.83296 0.0
C546 C 0.2464 0.93506 0.86593 0.0
C547 C 0.22806 0.93959 0.88635 0.0
C548 C 0.20438 0.95323 0.88018 0.0
C549 C 0.19848 0.96087 0.85373 0.0
C550 C 0.26355 0.9151 0.94949 0.0
C551 C 0.24287 0.89896 0.96024 0.0
C552 C 0.2585 0.9292 0.9261 0.0
C553 C 0.2326 0.92769 0.91308 0.0
C554 C 0.21164 0.91246 0.92445 0.0
C555 C 0.21674 0.89817 0.94773 0.0
H556 H 0.27429 0.9194 0.05831 0.0
H557 H 0.27565 0.87387 0.13084 0.0
H558 H 0.3 0.95687 0.08285 0.0
H559 H 0.30138 0.91117 0.15517 0.0
H560 H 0.34208 0.98392 0.19671 0.0
H561 H 0.30369 0.95963 0.17231 0.0
H562 H 0.34859 0.9575 0.09939 0.0
H563 H 0.38682 0.98183 0.12358 0.0
C564 C 0.27951 0.91762 0.07962 0.0
C565 C 0.27337 0.8935 0.09255 0.0
C566 C 0.29427 0.93904 0.09361 0.0
C567 C 0.30287 0.93681 0.12081 0.0
C568 C 0.29485 0.91357 0.13427 0.0
C569 C 0.28031 0.89208 0.12026 0.0
C570 C 0.34352 0.97882 0.17531 0.0
C571 C 0.36766 0.98434 0.16216 0.0
C572 C 0.32156 0.96489 0.1614 0.0
C573 C 0.32327 0.95649 0.13406 0.0
C574 C 0.3466 0.9639 0.12041 0.0
C575 C 0.36861 0.97763 0.13434 0.0
H576 H 0.30245 0.37532 0.05684 0.0
H577 H 0.30081 0.34328 0.974 0.0
H578 H 0.34318 0.35089 0.06696 0.0
H579 H 0.34148 0.31881 0.98422 0.0
H580 H 0.43493 0.32131 0.00685 0.0
H581 H 0.38941 0.33505 0.99531 0.0
H582 H 0.36151 0.30403 0.06988 0.0
H583 H 0.40738 0.29013 0.0815 0.0
C584 C 0.31064 0.3629 0.04085 0.0
C585 C 0.29856 0.36148 0.01454 0.0
C586 C 0.33381 0.34869 0.04673 0.0
C587 C 0.34549 0.33294 0.02638 0.0
C588 C 0.333 0.33093 0.00026 0.0
C589 C 0.30971 0.34496 0.99443 0.0
C590 C 0.41898 0.31689 0.02053 0.0
C591 C 0.42474 0.30482 0.04516 0.0
C592 C 0.39286 0.32466 0.01386 0.0
C593 C 0.37196 0.32081 0.0318 0.0
C594 C 0.37734 0.30746 0.05581 0.0
C595 C 0.4035 0.29931 0.06234 0.0
H596 H 0.93459 0.82082 0.25035 0.0
H597 H 0.96862 0.84798 0.17684 0.0
H598 H 0.92239 0.86686 0.26222 0.0
H599 H 0.95623 0.89435 0.18875 0.0
H600 H 0.91505 0.95542 0.28384 0.0
H601 H 0.93956 0.91462 0.27394 0.0
H602 H 0.90954 0.91348 0.19061 0.0
H603 H 0.88506 0.95428 0.20041 0.0
C604 C 0.94003 0.8368 0.23703 0.0
C605 C 0.95237 0.83081 0.21258 0.0
C606 C 0.93314 0.8632 0.24389 0.0
C607 C 0.93815 0.88414 0.22629 0.0
C608 C 0.95193 0.8785 0.20256 0.0
C609 C 0.95921 0.85205 0.19587 0.0
C610 C 0.9139 0.94665 0.26334 0.0
C611 C 0.89785 0.95791 0.24298 0.0
C612 C 0.92794 0.92329 0.2577 0.0
C613 C 0.92645 0.91088 0.23152 0.0
C614 C 0.91133 0.92278 0.2109 0.0
C615 C 0.89709 0.946 0.21659 0.0
H616 H 0.19656 0.70002 0.53033 0.0
H617 H 0.17794 0.73468 0.45349 0.0
H618 H 0.1542 0.71634 0.54744 0.0
H619 H 0.13573 0.75012 0.47017 0.0
H620 H 0.06242 0.72703 0.55824 0.0
H621 H 0.10462 0.70937 0.54209 0.0
H622 H 0.12018 0.78348 0.50122 0.0
H623 H 0.07812 0.80064 0.51653 0.0
C624 C 0.18353 0.71115 0.51713 0.0
C625 C 0.19082 0.71621 0.4906 0.0
C626 C 0.15913 0.72027 0.52684 0.0
C627 C 0.14155 0.73462 0.51022 0.0
C628 C 0.14893 0.73957 0.48373 0.0
C629 C 0.17321 0.73059 0.47411 0.0
C630 C 0.07476 0.73939 0.54558 0.0
C631 C 0.06673 0.76518 0.53856 0.0
C632 C 0.09907 0.72939 0.53656 0.0
C633 C 0.11581 0.74497 0.5203 0.0
C634 C 0.10764 0.77069 0.5133 0.0
C635 C 0.08346 0.7806 0.52221 0.0
H636 H 0.98884 0.68872 0.61184 0.0
H637 H 0.96174 0.73149 0.68305 0.0
H638 H 0.98608 0.64642 0.63495 0.0
H639 H 0.95946 0.68903 0.70645 0.0
H640 H 0.92878 0.60015 0.72349 0.0
H641 H 0.93374 0.64542 0.7059 0.0
H642 H 0.00903 0.62422 0.67121 0.0
H643 H 0.00379 0.57898 0.68819 0.0
C644 C 0.98235 0.68913 0.63247 0.0
C645 C 0.97555 0.71354 0.64557 0.0
C646 C 0.981 0.66488 0.64584 0.0
C647 C 0.97285 0.66434 0.67271 0.0
C648 C 0.96571 0.68869 0.68574 0.0
C649 C 0.96708 0.71304 0.67233 0.0
C650 C 0.94668 0.60537 0.71263 0.0
C651 C 0.96572 0.58585 0.70697 0.0
C652 C 0.94951 0.63133 0.7025 0.0
C653 C 0.97149 0.63826 0.68663 0.0
C654 C 0.99147 0.61931 0.6827 0.0
C655 C 0.98858 0.59343 0.69266 0.0
H656 H 0.23391 0.1852 0.46313 0.0
H657 H 0.19125 0.11288 0.48792 0.0
H658 H 0.19115 0.20801 0.45994 0.0
H659 H 0.14869 0.13537 0.48418 0.0
H660 H 0.0788 0.1857 0.49801 0.0
H661 H 0.12455 0.17082 0.50608 0.0
H662 H 0.14889 0.20668 0.43242 0.0
H663 H 0.10314 0.22226 0.42473 0.0
C664 C 0.21543 0.17413 0.4678 0.0
C665 C 0.21601 0.14721 0.47581 0.0
C666 C 0.19093 0.1872 0.46592 0.0
C667 C 0.16652 0.17364 0.47206 0.0
C668 C 0.16717 0.14666 0.47989 0.0
C669 C 0.19158 0.13364 0.4818 0.0
C670 C 0.09406 0.19095 0.48384 0.0
C671 C 0.08728 0.20487 0.46056 0.0
C672 C 0.12023 0.1822 0.48834 0.0
C673 C 0.1402 0.18694 0.46954 0.0
C674 C 0.13399 0.20267 0.44731 0.0
C675 C 0.10777 0.21164 0.4429 0.0
H676 H 0.64215 0.37718 0.2317 0.0
H677 H 0.59567 0.44915 0.23532 0.0
H678 H 0.60434 0.35244 0.20717 0.0
H679 H 0.55775 0.42421 0.21081 0.0
H680 H 0.53034 0.31035 0.1688 0.0
H681 H 0.55594 0.33472 0.20644 0.0
H682 H 0.55588 0.40794 0.16206 0.0
H683 H 0.53032 0.38377 0.12459 0.0
C684 C 0.62365 0.38754 0.22781 0.0
C685 C 0.62208 0.41523 0.23501 0.0
C686 C 0.60189 0.3733 0.21395 0.0
C687 C 0.57821 0.3865 0.20689 0.0
C688 C 0.57589 0.41365 0.21579 0.0
C689 C 0.59759 0.42787 0.22986 0.0
C690 C 0.53524 0.3318 0.16736 0.0
C691 C 0.52872 0.34507 0.14357 0.0
C692 C 0.54993 0.34569 0.18887 0.0
C693 C 0.55805 0.37313 0.18706 0.0
C694 C 0.54971 0.38685 0.16413 0.0
C695 C 0.53527 0.37294 0.14255 0.0
H696 H 0.31126 0.75445 0.0244 0.0
H697 H 0.31879 0.82998 0.98437 0.0
H698 H 0.35474 0.7417 0.00815 0.0
H699 H 0.3632 0.81787 0.96905 0.0
H700 H 0.43368 0.77479 0.92834 0.0
H701 H 0.3894 0.78981 0.94119 0.0
H702 H 0.40052 0.75319 0.01834 0.0
H703 H 0.44389 0.73719 0.00488 0.0
C704 C 0.3222 0.76828 0.01196 0.0
C705 C 0.31165 0.79324 0.00575 0.0
C706 C 0.34737 0.76115 0.00291 0.0
C707 C 0.36298 0.77904 0.98786 0.0
C708 C 0.35182 0.80353 0.98055 0.0
C709 C 0.32632 0.81048 0.98928 0.0
C710 C 0.42678 0.77039 0.94821 0.0
C711 C 0.44214 0.75465 0.96553 0.0
C712 C 0.40135 0.77894 0.95558 0.0
C713 C 0.39095 0.77219 0.98058 0.0
C714 C 0.4073 0.75796 -0.00147 0.0
C715 C 0.43239 0.74907 0.99099 0.0
H716 H 0.01574 0.44843 0.74705 0.0
H717 H 0.93543 0.43528 0.77609 0.0
H718 H 0.02836 0.40485 0.76326 0.0
H719 H 0.94746 0.39082 0.79109 0.0
H720 H 0.98572 0.31808 0.83124 0.0
H721 H 0.97216 0.36336 0.82018 0.0
H722 H 0.0203 0.3595 0.74937 0.0
H723 H 0.03473 0.31512 0.76123 0.0
C724 C 0.00086 0.43626 0.75717 0.0
C725 C 0.9746 0.44522 0.76023 0.0
C726 C 0.00793 0.41105 0.76614 0.0
C727 C 0.98873 0.39378 0.77783 0.0
C728 C 0.96285 0.40345 0.78225 0.0
C729 C 0.95593 0.429 0.7737 0.0
C730 C 0.99306 0.32685 0.81312 0.0
C731 C 0.0114 0.31311 0.79717 0.0
C732 C 0.98534 0.35286 0.80679 0.0
C733 C 0.99555 0.36552 0.78416 0.0
C734 C 0.01274 0.35097 0.76749 0.0
C735 C 0.02076 0.32529 0.77406 0.0
H736 H 0.31033 0.1633 0.54249 0.0
H737 H 0.3799 0.14277 0.49753 0.0
H738 H 0.33591 0.20132 0.56491 0.0
H739 H 0.40523 0.18254 0.51802 0.0
H740 H 0.45232 0.21773 0.59501 0.0
H741 H 0.42736 0.19266 0.55817 0.0
H742 H 0.35834 0.2419 0.57101 0.0
H743 H 0.38292 0.26509 0.60979 0.0
C744 C 0.33091 0.16763 0.5367 0.0
C745 C 0.3434 0.14988 0.5188 0.0
C746 C 0.34567 0.18971 0.54939 0.0
C747 C 0.37309 0.19501 0.54385 0.0
C748 C 0.38458 0.17865 0.5237 0.0
C749 C 0.37005 0.15598 0.51172 0.0
C750 C 0.432 0.22353 0.58951 0.0
C751 C 0.41926 0.24285 0.60546 0.0
C752 C 0.41759 0.20925 0.56814 0.0
C753 C 0.39032 0.21457 0.56179 0.0
C754 C 0.37882 0.23631 0.57592 0.0
C755 C 0.39295 0.24988 0.59795 0.0
H756 H 0.56901 0.68113 0.25272 0.0
H757 H 0.54074 0.65576 0.32933 0.0
H758 H 0.58368 0.63564 0.24236 0.0
H759 H 0.55559 0.60994 0.31892 0.0
H760 H 0.62882 0.55295 0.30628 0.0
H761 H 0.60285 0.59289 0.31557 0.0
H762 H 0.56914 0.587 0.23342 0.0
H763 H 0.59514 0.54713 0.22402 0.0
C764 C 0.56536 0.66562 0.26708 0.0
C765 C 0.55388 0.67203 0.2919 0.0
C766 C 0.57369 0.63952 0.26109 0.0
C767 C 0.57101 0.61928 0.27993 0.0
C768 C 0.55813 0.62524 0.30415 0.0
C769 C 0.54941 0.65136 0.30999 0.0
C770 C 0.61569 0.56001 0.29027 0.0
C771 C 0.61429 0.54703 0.26433 0.0
C772 C 0.6006 0.58274 0.29567 0.0
C773 C 0.58397 0.59308 0.27521 0.0
C774 C 0.58193 0.57959 0.24953 0.0
C775 C 0.59683 0.55675 0.24418 0.0
H776 H 0.02245 0.79187 0.07164 0.0
H777 H 0.06488 0.767 0.14388 0.0
H778 H 0.06546 0.79645 0.04937 0.0
H779 H 0.10767 0.77211 0.12194 0.0
H780 H 0.17812 0.75962 0.07153 0.0
H781 H 0.13252 0.75109 0.08665 0.0
H782 H 0.10742 0.82464 0.05109 0.0
H783 H 0.15309 0.83281 0.03527 0.0
C784 C 0.04093 0.78747 0.08281 0.0
C785 C 0.0402 0.77901 0.10954 0.0
C786 C 0.06558 0.79017 0.07005 0.0
C787 C 0.09002 0.78441 0.08374 0.0
C788 C 0.08921 0.77615 0.11054 0.0
C789 C 0.06465 0.77343 0.12324 0.0
C790 C 0.16275 0.77371 0.06646 0.0
C791 C 0.16929 0.79705 0.05246 0.0
C792 C 0.13665 0.76895 0.07534 0.0
C793 C 0.11646 0.78751 0.07067 0.0
C794 C 0.12248 0.80991 0.05503 0.0
C795 C 0.14865 0.81459 0.04593 0.0
H796 H 0.68975 0.00584 0.57431 0.0
H797 H 0.71565 0.92914 0.6019 0.0
H798 H 0.67289 0.01686 0.61875 0.0
H799 H 0.6986 0.94022 0.64666 0.0
H800 H 0.6239 0.95424 0.70099 0.0
H801 H 0.65065 0.94435 0.66172 0.0
H802 H 0.68536 0.02628 0.66769 0.0
H803 H 0.6586 0.03626 0.70688 0.0
C804 C 0.69242 0.9916 0.59011 0.0
C805 C 0.70391 0.96658 0.5846 0.0
C806 C 0.6828 -0.00204 0.61561 0.0
C807 C 0.68417 0.97929 0.63612 0.0
C808 C 0.69703 0.95486 0.63111 0.0
C809 C 0.70704 0.94865 0.60561 0.0
C810 C 0.63734 0.97011 0.69403 0.0
C811 C 0.6389 0.99612 0.70692 0.0
C812 C 0.65288 0.96435 0.6717 0.0
C813 C 0.67014 0.98454 0.66165 0.0
C814 C 0.67212 0.01037 0.67489 0.0
C815 C 0.65677 0.01606 0.69734 0.0
H816 H 0.75365 0.02395 0.31206 0.0
H817 H 0.82892 0.98358 0.32041 0.0
H818 H 0.74057 0.00833 0.35564 0.0
H819 H 0.81649 0.96893 0.36492 0.0
H820 H 0.73555 0.00658 0.44468 0.0
H821 H 0.75191 0.01923 0.40125 0.0
H822 H 0.78818 0.94163 0.39147 0.0
H823 H 0.77281 0.92961 0.43588 0.0
C824 C 0.76735 0.01157 0.32322 0.0
C825 C 0.79233 0.00509 0.31287 0.0
C826 C 0.76004 0.00289 0.34843 0.0
C827 C 0.77777 0.98795 0.3643 0.0
C828 C 0.80228 0.98036 0.35335 0.0
C829 C 0.80941 0.98871 0.3278 0.0
C830 C 0.74744 0.99242 0.43346 0.0
C831 C 0.75282 0.96709 0.44362 0.0
C832 C 0.75653 -0.00051 0.40833 0.0
C833 C 0.77075 0.98117 0.39234 0.0
C834 C 0.77732 0.95629 0.40314 0.0
C835 C 0.76858 0.94939 0.42863 0.0
H836 H 0.83142 0.10417 0.04238 0.0
H837 H 0.74452 0.10746 0.04613 0.0
H838 H 0.83294 0.07972 0.08409 0.0
H839 H 0.74585 0.08217 0.08712 0.0
H840 H 0.76557 0.07798 0.17856 0.0
H841 H 0.76001 0.09253 0.13272 0.0
H842 H 0.822 0.03921 0.1074 0.0
H843 H 0.82823 0.02519 0.15392 0.0
C844 C 0.8126 0.09929 0.05187 0.0
C845 C 0.78792 0.10814 0.04121 0.0
C846 C 0.81342 0.08505 0.07568 0.0
C847 C 0.78953 0.07913 0.08917 0.0
C848 C 0.76472 0.08686 0.07765 0.0
C849 C 0.76394 0.10134 0.05408 0.0
C850 C 0.77773 0.06894 0.16319 0.0
C851 C 0.79757 0.05064 0.17003 0.0
C852 C 0.77442 0.07719 0.13674 0.0
C853 C 0.79074 0.06727 0.11631 0.0
C854 C 0.80943 0.04764 0.12275 0.0
C855 C 0.8128 0.03937 0.14935 0.0
H856 H 0.62208 0.0202 0.87811 0.0
H857 H 0.66198 0.02439 0.80232 0.0
H858 H 0.66108 0.04382 0.90149 0.0
H859 H 0.7013 0.0479 0.82593 0.0
H860 H 0.72805 0.13243 0.87075 0.0
H861 H 0.7036 0.09496 0.84553 0.0
H862 H 0.70971 0.04619 0.91557 0.0
H863 H 0.73399 0.0839 0.94107 0.0
C864 C 0.63946 0.02557 0.86655 0.0
C865 C 0.63873 0.02096 0.83831 0.0
C866 C 0.66196 0.03889 0.88 0.0
C867 C 0.68413 0.04796 0.86547 0.0
C868 C 0.68433 0.04139 0.83756 0.0
C869 C 0.66185 0.02789 0.82409 0.0
C870 C 0.72474 0.11354 0.88063 0.0
C871 C 0.73239 0.11135 0.90808 0.0
C872 C 0.71094 0.09194 0.86607 0.0
C873 C 0.70447 0.06775 0.87871 0.0
C874 C 0.71414 0.06475 0.90547 0.0
C875 C 0.72806 0.08635 0.92002 0.0
H876 H 0.59929 0.72428 0.92159 0.0
H877 H 0.57654 0.68813 0.9956 0.0
H878 H 0.64492 0.70778 0.92792 0.0
H879 H 0.62207 0.67224 0.00219 0.0
H880 H 0.68713 0.61325 0.98241 0.0
H881 H 0.64485 0.63623 0.97889 0.0
H882 H 0.68803 0.70867 0.95525 0.0
H883 H 0.73061 0.68542 0.95836 0.0
C884 C 0.60424 0.71351 0.93959 0.0
C885 C 0.5842 0.70719 0.9579 0.0
C886 C 0.63038 0.70402 0.9432 0.0
C887 C 0.63694 0.68815 0.96524 0.0
C888 C 0.61746 0.68374 0.9846 0.0
C889 C 0.59141 0.69305 0.98093 0.0
C890 C 0.68771 0.63407 0.97643 0.0
C891 C 0.71231 0.64747 0.97071 0.0
C892 C 0.66344 0.64735 0.97465 0.0
C893 C 0.66308 0.67443 0.96712 0.0
C894 C 0.68762 0.6878 0.96104 0.0
C895 C 0.712 0.67448 0.96288 0.0
H896 H 0.07351 0.02182 0.79056 0.0
H897 H 0.146 0.06583 0.7681 0.0
H898 H 0.05033 0.06434 0.79463 0.0
H899 H 0.12313 0.10813 0.77271 0.0
H900 H 0.07246 0.17801 0.75995 0.0
H901 H 0.08796 0.13261 0.75102 0.0
H902 H 0.05068 0.10602 0.82317 0.0
H903 H 0.0345 0.15148 0.83171 0.0
C904 C 0.08454 0.04055 0.78657 0.0
C905 C 0.11162 0.0404 0.77896 0.0
C906 C 0.07125 0.06491 0.78897 0.0
C907 C 0.08475 0.08965 0.78375 0.0
C908 C 0.11188 0.08943 0.77629 0.0
C909 C 0.12511 0.06514 0.77389 0.0
C910 C 0.06705 0.16234 0.7736 0.0
C911 C 0.05251 0.16841 0.7967 0.0
C912 C 0.07615 0.13635 0.76862 0.0
C913 C 0.07118 0.11583 0.78675 0.0
C914 C 0.05489 0.12135 0.80879 0.0
C915 C 0.04556 0.1474 0.81367 0.0
H916 H 0.93769 0.27023 0.42547 0.0
H917 H 0.94166 0.22648 0.49895 0.0
H918 H 0.89275 0.28504 0.43641 0.0
H919 H 0.89758 0.24206 0.51048 0.0
H920 H 0.80883 0.24662 0.51301 0.0
H921 H 0.85195 0.2328 0.49657 0.0
H922 H 0.86634 0.3122 0.46537 0.0
H923 H 0.82237 0.3255 0.48079 0.0
C924 C 0.92923 0.26431 0.44426 0.0
C925 C 0.94311 0.24704 0.46127 0.0
C926 C 0.90343 0.27274 0.45052 0.0
C927 C 0.89116 0.26426 0.47404 0.0
C928 C 0.90587 0.24824 0.49171 0.0
C929 C 0.93136 0.23956 0.48529 0.0
C930 C 0.82095 0.26091 0.50211 0.0
C931 C 0.81231 0.28716 0.49831 0.0
C932 C 0.84588 0.25315 0.49298 0.0
C933 C 0.86311 0.27163 0.48033 0.0
C934 C 0.85368 0.29741 0.47503 0.0
C935 C 0.82843 0.30503 0.48381 0.0
H936 H 0.57093 0.90649 0.78147 0.0
H937 H 0.49741 0.9336 0.81565 0.0
H938 H 0.56008 0.86053 0.79558 0.0
H939 H 0.48662 0.88795 0.82962 0.0
H940 H 0.46684 0.79962 0.84064 0.0
H941 H 0.47542 0.83972 0.81475 0.0
H942 H 0.55955 0.84269 0.84258 0.0
H943 H 0.55107 0.80254 0.86842 0.0
C944 C 0.5521 0.90247 0.79127 0.0
C945 C 0.5351 0.92365 0.79764 0.0
C946 C 0.54603 0.87625 0.79956 0.0
C947 C 0.52265 0.87072 0.81394 0.0
C948 C 0.5047 0.8915 0.81846 0.0
C949 C 0.51093 0.91769 0.81053 0.0
C950 C 0.48724 0.80864 0.84103 0.0
C951 C 0.50822 0.79805 0.85684 0.0
C952 C 0.49212 0.83161 0.8262 0.0
C953 C 0.51814 0.84436 0.82665 0.0
C954 C 0.53935 0.83313 0.84157 0.0
C955 C 0.53443 0.81028 0.85659 0.0
H956 H 0.98613 0.19529 0.3366 0.0
H957 H 0.98481 0.12308 0.3827 0.0
H958 H 0.96152 0.17007 0.29893 0.0
H959 H 0.96014 0.09807 0.3452 0.0
H960 H 0.91945 0.05576 0.27309 0.0
H961 H 0.95795 0.08049 0.29691 0.0
H962 H 0.913 0.15341 0.29852 0.0
H963 H 0.8747 0.1289 0.27468 0.0
C964 C 0.98119 0.1739 0.33846 0.0
C965 C 0.98689 0.16127 0.36281 0.0
C966 C 0.96708 0.15952 0.31691 0.0
C967 C 0.95869 0.13224 0.31928 0.0
C968 C 0.9665 0.11904 0.34272 0.0
C969 C 0.98042 0.13344 0.36431 0.0
C970 C 0.91804 0.07723 0.27796 0.0
C971 C 0.89388 0.09031 0.27248 0.0
C972 C 0.94006 0.09133 0.29161 0.0
C973 C 0.93836 0.11877 0.29972 0.0
C974 C 0.915 0.13232 0.29231 0.0
C975 C 0.89294 0.11821 0.27889 0.0
H976 H 0.50991 0.07772 0.79453 0.0
H977 H 0.55578 0.06478 0.72309 0.0
H978 H 0.49485 0.11997 0.77773 0.0
H979 H 0.53993 0.10723 0.70578 0.0
H980 H 0.5283 0.19968 0.69933 0.0
H981 H 0.5447 0.15679 0.71488 0.0
H982 H 0.46534 0.13613 0.74322 0.0
H983 H 0.44927 0.17887 0.72849 0.0
C984 C 0.51657 0.08371 0.77503 0.0
C985 C 0.53403 0.06771 0.76013 0.0
C986 C 0.5078 0.108 0.76532 0.0
C987 C 0.51608 0.11703 0.74035 0.0
C988 C 0.53339 0.10099 0.72524 0.0
C989 C 0.54225 0.07654 0.73501 0.0
C990 C 0.51446 0.18605 0.70909 0.0
C991 C 0.48752 0.19288 0.71285 0.0
C992 C 0.52378 0.16136 0.71774 0.0
C993 C 0.50636 0.14301 0.73035 0.0
C994 C 0.47946 0.14991 0.734 0.0
C995 C 0.47021 0.17449 0.72546 0.0
H996 H 0.13094 0.36495 0.00876 0.0
H997 H 0.19991 0.34688 0.96196 0.0
H998 H 0.10556 0.32583 0.98704 0.0
H999 H 0.17417 0.30979 0.93807 0.0
H1000 H 0.12643 0.24653 0.89197 0.0
H1001 H 0.15225 0.26952 0.93009 0.0
H1002 H 0.0825 0.31629 0.94771 0.0
H1003 H 0.05647 0.29117 0.91168 0.0
C1004 C 0.1406 0.35242 0.99383 0.0
C1005 C 0.16713 0.35889 0.98672 0.0
C1006 C 0.12603 0.33015 0.98109 0.0
C1007 C 0.1373 0.31478 0.96004 0.0
C1008 C 0.16458 0.32058 0.95426 0.0
C1009 C 0.17943 0.34212 0.96779 0.0
C1010 C 0.11662 0.26121 0.90468 0.0
C1011 C 0.08969 0.26739 0.8989 0.0
C1012 C 0.13144 0.27469 0.92635 0.0
C1013 C 0.11996 0.29558 0.94178 0.0
C1014 C 0.09231 0.3003 0.93682 0.0
C1015 C 0.07726 0.28603 0.91589 0.0
H1016 H 0.43136 0.77912 0.37083 0.0
H1017 H 0.47363 0.71332 0.4049 0.0
H1018 H 0.39262 0.76844 0.39733 0.0
H1019 H 0.43556 0.70363 0.43326 0.0
H1020 H 0.34903 0.67269 0.45184 0.0
H1021 H 0.39246 0.68483 0.43334 0.0
H1022 H 0.37295 0.76938 0.43786 0.0
H1023 H 0.3286 0.75655 0.45406 0.0
C1024 C 0.43249 0.76261 0.38443 0.0
C1025 C 0.4554 0.74694 0.38568 0.0
C1026 C 0.41033 0.75661 0.4 0.0
C1027 C 0.41074 0.73522 0.41787 0.0
C1028 C 0.4341 0.71993 0.4195 0.0
C1029 C 0.45603 0.72553 0.40333 0.0
C1030 C 0.35445 0.69392 0.44948 0.0
C1031 C 0.33557 0.71371 0.45424 0.0
C1032 C 0.37942 0.70098 0.43882 0.0
C1033 C 0.38625 0.72813 0.43333 0.0
C1034 C 0.36816 0.74815 0.44068 0.0
C1035 C 0.34289 0.74094 0.45047 0.0
H1036 H 0.84264 0.47144 0.79538 0.0
H1037 H 0.87569 0.55407 0.80153 0.0
H1038 H 0.81487 0.48101 0.83392 0.0
H1039 H 0.84801 0.56353 0.84015 0.0
H1040 H 0.81227 0.50111 0.92778 0.0
H1041 H 0.82746 0.4902 0.88266 0.0
H1042 H 0.80054 0.56687 0.85595 0.0
H1043 H 0.78521 0.57784 0.90143 0.0
C1044 C 0.84381 0.49171 0.80477 0.0
C1045 C 0.86164 0.51191 0.79558 0.0
C1046 C 0.82788 0.49717 0.82684 0.0
C1047 C 0.82927 0.523 0.84009 0.0
C1048 C 0.84623 0.54351 0.83017 0.0
C1049 C 0.8623 0.53801 0.80821 0.0
C1050 C 0.80891 0.51534 0.9121 0.0
C1051 C 0.79773 0.5404 0.91816 0.0
C1052 C 0.81755 0.50904 0.88619 0.0
C1053 C 0.81547 0.52781 0.86582 0.0
C1054 C 0.80265 0.55216 0.87137 0.0
C1055 C 0.79364 0.55831 0.89729 0.0
H1056 H 0.68334 0.52258 0.18566 0.0
H1057 H 0.76044 0.48577 0.19505 0.0
H1058 H 0.6954 0.53737 0.14109 0.0
H1059 H 0.77316 0.50162 0.15144 0.0
H1060 H 0.77797 0.5024 0.06207 0.0
H1061 H 0.76271 0.48987 0.10594 0.0
H1062 H 0.72242 0.56543 0.11432 0.0
H1063 H 0.7367 0.57726 0.06951 0.0
C1064 C 0.70316 0.51831 0.17849 0.0
C1065 C 0.72088 0.50285 0.1937 0.0
C1066 C 0.71009 0.52674 0.15291 0.0
C1067 C 0.73505 0.52018 0.14225 0.0
C1068 C 0.75338 0.50623 0.15843 0.0
C1069 C 0.74626 0.49742 0.18365 0.0
C1070 C 0.76552 0.51616 0.07312 0.0
C1071 C 0.75863 0.54084 0.0624 0.0
C1072 C 0.75702 0.50916 0.09849 0.0
C1073 C 0.74188 0.52693 0.11416 0.0
C1074 C 0.73399 0.55118 0.1029 0.0
C1075 C 0.74214 0.55798 0.07719 0.0
H1076 H 0.70612 0.38776 0.4568 0.0
H1077 H 0.78996 0.41703 0.45973 0.0
H1078 H 0.69715 0.4138 0.41696 0.0
H1079 H 0.78088 0.44318 0.41997 0.0
H1080 H 0.68469 0.47446 0.35307 0.0
H1081 H 0.69561 0.46045 0.39897 0.0
H1082 H 0.7702 0.42857 0.37192 0.0
H1083 H 0.75938 0.4425 0.32636 0.0
C1084 C 0.72256 0.39999 0.44915 0.0
C1085 C 0.74883 0.40004 0.46125 0.0
C1086 C 0.71735 0.41512 0.42647 0.0
C1087 C 0.73833 0.4305 0.4153 0.0
C1088 C 0.76436 0.43135 0.428 0.0
C1089 C 0.76953 0.41637 0.45079 0.0
C1090 C 0.70375 0.46514 0.35715 0.0
C1091 C 0.72108 0.45937 0.3361 0.0
C1092 C 0.70988 0.4569 0.38334 0.0
C1093 C 0.73363 0.44317 0.38897 0.0
C1094 C 0.75183 0.43924 0.36831 0.0
C1095 C 0.74557 0.44713 0.34215 0.0
H1096 H 0.90052 0.47267 0.62979 0.0
H1097 H 0.85045 0.47459 0.69926 0.0
H1098 H 0.86452 0.44669 0.60351 0.0
H1099 H 0.81448 0.44854 0.67284 0.0
H1100 H 0.78855 0.41265 0.55831 0.0
H1101 H 0.81588 0.44796 0.58445 0.0
H1102 H 0.81386 0.39947 0.65478 0.0
H1103 H 0.78664 0.36416 0.62878 0.0
C1104 C 0.88168 0.46794 0.63931 0.0
C1105 C 0.87843 0.47541 0.66666 0.0
C1106 C 0.86101 0.45324 0.6242 0.0
C1107 C 0.83683 0.44556 0.63624 0.0
C1108 C 0.83305 0.4541 0.66319 0.0
C1109 C 0.8536 0.46906 0.67823 0.0
C1110 C 0.79351 0.40974 0.57949 0.0
C1111 C 0.7857 0.38552 0.59146 0.0
C1112 C 0.80921 0.4299 0.59437 0.0
C1113 C 0.81702 0.42633 0.62153 0.0
C1114 C 0.8079 0.40282 0.63391 0.0
C1115 C 0.79249 0.38253 0.61898 0.0
H1116 H 0.42984 0.10292 0.21962 0.0
H1117 H 0.50515 0.07694 0.18849 0.0
H1118 H 0.44091 0.14914 0.20628 0.0
H1119 H 0.51615 0.12281 0.17531 0.0
H1120 H 0.53632 0.21144 0.16697 0.0
H1121 H 0.52652 0.17075 0.19158 0.0
H1122 H 0.44365 0.16805 0.15983 0.0
H1123 H 0.45334 0.20882 0.13526 0.0
C1124 C 0.44905 0.10723 0.21061 0.0
C1125 C 0.46656 0.08631 0.20493 0.0
C1126 C 0.45526 0.13359 0.20277 0.0
C1127 C 0.47928 0.13953 0.18956 0.0
C1128 C 0.49758 0.11895 0.1856 0.0
C1129 C 0.49122 0.09263 0.19306 0.0
C1130 C 0.51593 0.20235 0.16544 0.0
C1131 C 0.49568 0.21321 0.1489 0.0
C1132 C 0.51034 0.17904 0.17954 0.0
C1133 C 0.48434 0.16619 0.1776 0.0
C1134 C 0.4638 0.17767 0.16196 0.0
C1135 C 0.46943 0.20088 0.14769 0.0
H1136 H 0.02277 0.80733 0.66842 0.0
H1137 H 0.02113 0.88212 0.62655 0.0
H1138 H 0.04698 0.83132 0.7071 0.0
H1139 H 0.04563 0.90579 0.66474 0.0
H1140 H 0.08966 0.94623 0.73469 0.0
H1141 H 0.05028 0.92201 0.71197 0.0
H1142 H 0.09407 0.84833 0.70934 0.0
H1143 H 0.133 0.87221 0.7324 0.0
C1144 C 0.02701 0.82897 0.66769 0.0
C1145 C 0.02063 0.84272 0.64418 0.0
C1146 C 0.04093 0.84268 0.68982 0.0
C1147 C 0.04859 0.87034 0.68881 0.0
C1148 C 0.03993 0.88453 0.66629 0.0
C1149 C 0.0261 0.87086 0.64422 0.0
C1150 C 0.09061 0.9247 0.72985 0.0
C1151 C 0.11466 0.91126 0.73475 0.0
C1152 C 0.06807 0.91087 0.71681 0.0
C1153 C 0.06919 0.88336 0.70852 0.0
C1154 C 0.09242 0.86945 0.7156 0.0
C1155 C 0.11491 0.88325 0.72859 0.0
H1156 H 0.52833 0.81248 0.24841 0.0
H1157 H 0.48888 0.82216 0.32407 0.0
H1158 H 0.51192 0.85554 0.23457 0.0
H1159 H 0.47361 0.86618 0.311 0.0
H1160 H 0.433 0.93599 0.26825 0.0
H1161 H 0.4458 0.89184 0.28339 0.0
H1162 H 0.52174 0.90142 0.24391 0.0
H1163 H 0.50816 0.94463 0.22766 0.0
C1164 C 0.516 0.82383 0.26204 0.0
C1165 C 0.50993 0.814 0.28731 0.0
C1166 C 0.50687 0.84876 0.2543 0.0
C1167 C 0.49197 0.86487 0.27192 0.0
C1168 C 0.48492 0.85442 0.2968 0.0
C1169 C 0.49364 0.82913 0.30432 0.0
C1170 C 0.45258 0.92875 0.26318 0.0
C1171 C 0.46952 0.94365 0.24664 0.0
C1172 C 0.45994 0.90339 0.27183 0.0
C1173 C 0.48461 0.89262 0.26445 0.0
C1174 C 0.50216 0.90846 0.24923 0.0
C1175 C 0.49458 0.93346 0.24018 0.0
H1176 H 0.87999 0.6208 0.02029 0.0
H1177 H 0.80862 0.66795 0.01461 0.0
H1178 H 0.90486 0.65888 0.04394 0.0
H1179 H 0.83382 0.70639 0.03802 0.0
H1180 H 0.94748 0.72936 0.08554 0.0
H1181 H 0.92399 0.70564 0.04627 0.0
H1182 H 0.84819 0.71012 0.0861 0.0
H1183 H 0.87141 0.73403 0.12493 0.0
C1184 C 0.8698 0.63953 0.02347 0.0
C1185 C 0.84216 0.64113 0.01618 0.0
C1186 C 0.88417 0.66152 0.03681 0.0
C1187 C 0.87119 0.68555 0.04315 0.0
C1188 C 0.84421 0.68797 0.03373 0.0
C1189 C 0.82982 0.66596 0.0203 0.0
C1190 C 0.92569 0.7259 0.08558 0.0
C1191 C 0.91137 0.733 0.10857 0.0
C1192 C 0.91228 0.71228 0.06312 0.0
C1193 C 0.88432 0.70569 0.06325 0.0
C1194 C 0.8697 0.71502 0.08524 0.0
C1195 C 0.88308 0.7285 0.10768 0.0
H1196 H 0.56946 0.27518 0.6466 0.0
H1197 H 0.52773 0.30522 0.57634 0.0
H1198 H 0.61198 0.27831 0.62385 0.0
H1199 H 0.57036 0.30779 0.55327 0.0
H1200 H 0.65953 0.33736 0.53697 0.0
H1201 H 0.6142 0.33272 0.55453 0.0
H1202 H 0.63403 0.25611 0.58712 0.0
H1203 H 0.67934 0.26109 0.57025 0.0
C1204 C 0.56933 0.2824 0.62626 0.0
C1205 C 0.54516 0.2899 0.6133 0.0
C1206 C 0.5937 0.28397 0.61309 0.0
C1207 C 0.59455 0.29297 0.58656 0.0
C1208 C 0.57045 0.30087 0.57372 0.0
C1209 C 0.546 0.29934 0.58694 0.0
C1210 C 0.65398 0.31927 0.54738 0.0
C1211 C 0.67312 0.29975 0.55251 0.0
C1212 C 0.62801 0.31661 0.55748 0.0
C1213 C 0.62068 0.29432 0.57276 0.0
C1214 C 0.63926 0.27392 0.57613 0.0
C1215 C 0.66517 0.27665 0.56623 0.0
H1216 H 0.22158 0.42524 0.10263 0.0
H1217 H 0.18261 0.49695 0.07744 0.0
H1218 H 0.2054 0.43277 0.14817 0.0
H1219 H 0.16714 0.50491 0.12298 0.0
H1220 H 0.10951 0.48584 0.18952 0.0
H1221 H 0.1323 0.48221 0.14711 0.0
H1222 H 0.20552 0.46056 0.19014 0.0
H1223 H 0.18242 0.46359 0.23273 0.0
C1224 C 0.21029 0.44307 0.10704 0.0
C1225 C 0.20304 0.4603 0.08638 0.0
C1226 C 0.20098 0.44737 0.13313 0.0
C1227 C 0.18443 0.4691 0.13904 0.0
C1228 C 0.17916 0.48754 0.1189 0.0
C1229 C 0.18824 0.48311 0.09285 0.0
C1230 C 0.13046 0.48029 0.19 0.0
C1231 C 0.14412 0.475 0.21453 0.0
C1232 C 0.14365 0.47846 0.16568 0.0
C1233 C 0.17088 0.47141 0.16524 0.0
C1234 C 0.18452 0.46592 0.18976 0.0
C1235 C 0.17128 0.46771 0.21416 0.0
H1236 H 0.32288 0.48677 0.82236 0.0
H1237 H 0.24421 0.51991 0.81087 0.0
H1238 H 0.31027 0.471 0.86636 0.0
H1239 H 0.23089 0.50288 0.85384 0.0
H1240 H 0.27004 0.42886 0.93672 0.0
H1241 H 0.28453 0.44177 0.89236 0.0
H1242 H 0.23876 0.51407 0.8995 0.0
H1243 H 0.2232 0.50024 0.94286 0.0
C1244 C 0.30261 0.48997 0.82893 0.0
C1245 C 0.28457 0.50471 0.81333 0.0
C1246 C 0.29535 0.48096 0.85419 0.0
C1247 C 0.26971 0.48615 0.86411 0.0
C1248 C 0.25115 0.49935 0.84748 0.0
C1249 C 0.25861 0.50881 0.82261 0.0
C1250 C 0.2634 0.44767 0.92886 0.0
C1251 C 0.24536 0.46348 0.94314 0.0
C1252 C 0.27169 0.4551 0.90339 0.0
C1253 C 0.26242 0.47873 0.8919 0.0
C1254 C 0.24558 0.49523 0.90709 0.0
C1255 C 0.23691 0.48753 0.93219 0.0
H1256 H 0.30277 0.62797 0.55337 0.0
H1257 H 0.21968 0.59628 0.54829 0.0
H1258 H 0.3114 0.6024 0.59365 0.0
H1259 H 0.22842 0.57066 0.58847 0.0
H1260 H 0.24799 0.56891 0.68209 0.0
H1261 H 0.23793 0.58455 0.637 0.0
H1262 H 0.3137 0.55508 0.61042 0.0
H1263 H 0.32385 0.53933 0.65583 0.0
C1264 C 0.2864 0.61542 0.56072 0.0
C1265 C 0.26047 0.61438 0.54776 0.0
C1266 C 0.29143 0.60056 0.58364 0.0
C1267 C 0.27059 0.58449 0.5942 0.0
C1268 C 0.24483 0.58299 0.58089 0.0
C1269 C 0.23985 0.59768 0.55787 0.0
C1270 C 0.26225 0.5652 0.66648 0.0
C1271 C 0.28679 0.55304 0.67253 0.0
C1272 C 0.25643 0.57409 0.6406 0.0
C1273 C 0.27515 0.57128 0.62025 0.0
C1274 C 0.29905 0.55777 0.62584 0.0
C1275 C 0.30472 0.54852 0.65172 0.0
H1276 H 0.15823 0.54586 0.30746 0.0
H1277 H 0.14262 0.49847 0.37657 0.0
H1278 H 0.19564 0.57009 0.3324 0.0
H1279 H 0.18195 0.52071 0.4011 0.0
H1280 H 0.21459 0.59759 0.44949 0.0
H1281 H 0.19021 0.56076 0.42389 0.0
H1282 H 0.23636 0.57853 0.35384 0.0
H1283 H 0.25881 0.61726 0.37925 0.0
C1284 C 0.1636 0.53994 0.32774 0.0
C1285 C 0.14736 0.52079 0.34037 0.0
C1286 C 0.18531 0.55369 0.34213 0.0
C1287 C 0.19176 0.54797 0.36925 0.0
C1288 C 0.17707 0.52659 0.38073 0.0
C1289 C 0.15469 0.51357 0.36664 0.0
C1290 C 0.21981 0.59326 0.42874 0.0
C1291 C 0.23811 0.61047 0.41611 0.0
C1292 C 0.20596 0.57186 0.41395 0.0
C1293 C 0.21071 0.5667 0.38635 0.0
C1294 C 0.23124 0.58239 0.37465 0.0
C1295 C 0.24438 0.60444 0.38923 0.0
loop_
_geom_bond_atom_site_label_1
_geom_bond_atom_site_label_2
_geom_bond_distance
_geom_bond_site_symmetry_2
_ccdc_geom_bond_type
Zn0 O3 2.031 . S
Zn0 O5 2.049 1_655 S
Zn0 O10 2.067 . S
Zn1 O2 1.962 1_455 S
Zn1 O4 1.986 . S
Zn1 O6 1.996 . S
Zn1 O9 1.943 1_455 S
O2 Zn1 1.962 1_655 S
O2 C7 1.254 . S
O3 Zn0 2.031 . S
O3 C7 1.269 . S
O4 Zn1 1.986 . S
O4 C11 1.262 . S
O5 Zn0 2.049 1_455 S
O5 C13 1.260 . S
O6 Zn1 1.996 . S
O6 C13 1.257 . S
C7 O2 1.254 . S
C7 O3 1.269 . S
C8 O9 1.249 . S
C8 O10 1.270 . S
O9 Zn1 1.943 1_655 S
O9 C8 1.249 . S
O10 Zn0 2.067 . S
O10 C8 1.270 . S
C11 O4 1.262 . S
C11 O12 1.238 . S
O12 C11 1.238 . S
C13 O5 1.260 . S
C13 O6 1.257 . S
Zn14 O17 2.031 1_455 S
Zn14 O19 2.049 . S
Zn14 O24 2.067 . S
Zn15 O16 1.962 1_455 S
Zn15 O18 1.986 . S
Zn15 O20 1.996 . S
Zn15 O23 1.943 . S
O16 Zn15 1.962 1_655 S
O16 C21 1.254 . S
O17 Zn14 2.031 1_655 S
O17 C21 1.269 . S
O18 Zn15 1.986 . S
O18 C25 1.262 1_455 S
O19 Zn14 2.049 . S
O19 C27 1.260 . S
O20 Zn15 1.996 . S
O20 C27 1.257 . S
C21 O16 1.254 . S
C21 O17 1.269 . S
C22 O23 1.249 . S
C22 O24 1.270 . S
O23 Zn15 1.943 . S
O23 C22 1.249 . S
O24 Zn14 2.067 . S
O24 C22 1.270 . S
C25 O18 1.262 1_655 S
C25 O26 1.232 . S
O26 C25 1.232 . S
C27 O19 1.260 . S
C27 O20 1.257 . S
Zn28 O31 2.031 . S
Zn28 O33 2.049 . S
Zn28 O38 2.067 . S
Zn29 O30 1.962 . S
Zn29 O32 1.986 . S
Zn29 O34 1.996 . S
Zn29 O37 1.943 . S
O30 Zn29 1.962 . S
O30 C35 1.254 . S
O31 Zn28 2.031 . S
O31 C35 1.269 . S
O32 Zn29 1.986 . S
O32 C39 1.262 . S
O33 Zn28 2.049 . S
O33 C41 1.260 . S
O34 Zn29 1.996 . S
O34 C41 1.257 . S
C35 O30 1.254 . S
C35 O31 1.269 . S
C36 O37 1.249 . S
C36 O38 1.270 . S
O37 Zn29 1.943 . S
O37 C36 1.249 . S
O38 Zn28 2.067 . S
O38 C36 1.270 . S
C39 O32 1.262 . S
C39 O40 1.232 . S
O40 C39 1.232 . S
C41 O33 1.260 . S
C41 O34 1.257 . S
Zn42 O45 2.031 . S
Zn42 O47 2.049 . S
Zn42 O52 2.067 . S
Zn43 O44 1.962 . S
Zn43 O46 1.986 . S
Zn43 O48 1.996 . S
Zn43 O51 1.943 . S
O44 Zn43 1.962 . S
O44 C49 1.254 . S
O45 Zn42 2.031 . S
O45 C49 1.269 . S
O46 Zn43 1.986 . S
O46 C53 1.262 . S
O47 Zn42 2.049 . S
O47 C55 1.260 . S
O48 Zn43 1.996 . S
O48 C55 1.257 . S
C49 O44 1.254 . S
C49 O45 1.269 . S
C50 O51 1.249 . S
C50 O52 1.270 . S
O51 Zn43 1.943 . S
O51 C50 1.249 . S
O52 Zn42 2.067 . S
O52 C50 1.270 . S
C53 O46 1.262 . S
C53 O54 1.232 . S
O54 C53 1.232 . S
C55 O47 1.260 . S
C55 O48 1.257 . S
Zn56 O59 2.031 . S
Zn56 O61 2.049 . S
Zn56 O66 2.067 . S
Zn57 O58 1.962 . S
Zn57 O60 1.986 . S
Zn57 O62 1.996 . S
Zn57 O65 1.943 1_455 S
O58 Zn57 1.962 . S
O58 C63 1.254 1_455 S
O59 Zn56 2.031 . S
O59 C63 1.269 . S
O60 Zn57 1.986 . S
O60 C67 1.262 . S
O61 Zn56 2.049 . S
O61 C69 1.260 1_655 S
O62 Zn57 1.996 . S
O62 C69 1.257 . S
C63 O58 1.254 1_655 S
C63 O59 1.269 . S
C64 O65 1.249 . S
C64 O66 1.270 . S
O65 Zn57 1.943 1_655 S
O65 C64 1.249 . S
O66 Zn56 2.067 . S
O66 C64 1.270 . S
C67 O60 1.262 . S
C67 O68 1.232 . S
O68 C67 1.232 . S
C69 O61 1.260 1_455 S
C69 O62 1.257 . S
Zn70 O73 2.031 . S
Zn70 O75 2.049 . S
Zn70 O80 2.067 . S
Zn71 O72 1.962 . S
Zn71 O74 1.986 . S
Zn71 O76 1.996 . S
Zn71 O79 1.943 . S
O72 Zn71 1.962 . S
O72 C77 1.254 . S
O73 Zn70 2.031 . S
O73 C77 1.269 . S
O74 Zn71 1.986 . S
O74 C81 1.262 . S
O75 Zn70 2.049 . S
O75 C83 1.260 . S
O76 Zn71 1.996 . S
O76 C83 1.257 . S
C77 O72 1.254 . S
C77 O73 1.269 . S
C78 O79 1.249 . S
C78 O80 1.270 . S
O79 Zn71 1.943 . S
O79 C78 1.249 . S
O80 Zn70 2.067 . S
O80 C78 1.270 . S
C81 O74 1.262 . S
C81 O82 1.232 . S
O82 C81 1.232 . S
C83 O75 1.260 . S
C83 O76 1.257 . S
Zn84 O87 2.031 . S
Zn84 O89 2.049 . S
Zn84 O94 2.067 . S
Zn85 O86 1.962 . S
Zn85 O88 1.986 . S
Zn85 O90 1.996 . S
Zn85 O93 1.943 . S
O86 Zn85 1.962 . S
O86 C91 1.254 . S
O87 Zn84 2.031 . S
O87 C91 1.269 . S
O88 Zn85 1.986 . S
O88 C95 1.262 . S
O89 Zn84 2.049 . S
O89 C97 1.260 . S
O90 Zn85 1.996 . S
O90 C97 1.257 . S
C91 O86 1.254 . S
C91 O87 1.269 . S
C92 O93 1.249 . S
C92 O94 1.270 . S
O93 Zn85 1.943 . S
O93 C92 1.249 . S
O94 Zn84 2.067 . S
O94 C92 1.270 . S
C95 O88 1.262 . S
C95 O96 1.232 . S
O96 C95 1.232 . S
C97 O89 1.260 . S
C97 O90 1.257 . S
Zn98 O101 2.031 . S
Zn98 O103 2.049 . S
Zn98 O108 2.067 . S
Zn99 O100 1.962 . S
Zn99 O102 1.986 . S
Zn99 O104 1.996 1_655 S
Zn99 O107 1.943 1_655 S
O100 Zn99 1.962 . S
O100 C105 1.254 . S
O101 Zn98 2.031 . S
O101 C105 1.269 1_455 S
O102 Zn99 1.986 . S
O102 C109 1.262 . S
O103 Zn98 2.049 . S
O103 C111 1.260 . S
O104 Zn99 1.996 1_455 S
O104 C111 1.257 . S
C105 O100 1.254 . S
C105 O101 1.269 1_655 S
C106 O107 1.249 . S
C106 O108 1.270 . S
O107 Zn99 1.943 1_455 S
O107 C106 1.249 . S
O108 Zn98 2.067 . S
O108 C106 1.270 . S
C109 O102 1.262 . S
C109 O110 1.232 . S
O110 C109 1.232 . S
C111 O103 1.260 . S
C111 O104 1.257 . S
Zn112 O115 2.031 . S
Zn112 O117 2.049 1_565 S
Zn112 O122 2.067 . S
Zn113 O114 1.962 1_545 S
Zn113 O116 1.986 . S
Zn113 O118 1.996 . S
Zn113 O121 1.943 1_545 S
O114 Zn113 1.962 1_565 S
O114 C119 1.254 . S
O115 Zn112 2.031 . S
O115 C119 1.269 . S
O116 Zn113 1.986 . S
O116 C123 1.262 . S
O117 Zn112 2.049 1_545 S
O117 C125 1.260 . S
O118 Zn113 1.996 . S
O118 C125 1.257 . S
C119 O114 1.254 . S
C119 O115 1.269 . S
C120 O121 1.249 . S
C120 O122 1.270 . S
O121 Zn113 1.943 1_565 S
O121 C120 1.249 . S
O122 Zn112 2.067 . S
O122 C120 1.270 . S
C123 O116 1.262 . S
C123 O124 1.238 . S
O124 C123 1.238 . S
C125 O117 1.260 . S
C125 O118 1.257 . S
Zn126 O129 2.031 . S
Zn126 O131 2.049 . S
Zn126 O136 2.067 . S
Zn127 O128 1.962 . S
Zn127 O130 1.986 . S
Zn127 O132 1.996 . S
Zn127 O135 1.943 . S
O128 Zn127 1.962 . S
O128 C133 1.254 . S
O129 Zn126 2.031 . S
O129 C133 1.269 . S
O130 Zn127 1.986 . S
O130 C137 1.262 . S
O131 Zn126 2.049 . S
O131 C139 1.260 . S
O132 Zn127 1.996 . S
O132 C139 1.257 . S
C133 O128 1.254 . S
C133 O129 1.269 . S
C134 O135 1.249 . S
C134 O136 1.270 . S
O135 Zn127 1.943 . S
O135 C134 1.249 . S
O136 Zn126 2.067 . S
O136 C134 1.270 . S
C137 O130 1.262 . S
C137 O138 1.232 . S
O138 C137 1.232 . S
C139 O131 1.260 . S
C139 O132 1.257 . S
Zn140 O143 2.031 . S
Zn140 O145 2.049 . S
Zn140 O150 2.067 . S
Zn141 O142 1.962 . S
Zn141 O144 1.986 . S
Zn141 O146 1.996 . S
Zn141 O149 1.943 1_545 S
O142 Zn141 1.962 . S
O142 C147 1.254 1_545 S
O143 Zn140 2.031 . S
O143 C147 1.269 . S
O144 Zn141 1.986 . S
O144 C151 1.262 . S
O145 Zn140 2.049 . S
O145 C153 1.260 1_565 S
O146 Zn141 1.996 . S
O146 C153 1.257 . S
C147 O142 1.254 1_565 S
C147 O143 1.269 . S
C148 O149 1.249 . S
C148 O150 1.270 . S
O149 Zn141 1.943 1_565 S
O149 C148 1.249 . S
O150 Zn140 2.067 . S
O150 C148 1.270 . S
C151 O144 1.262 . S
C151 O152 1.232 . S
O152 C151 1.232 . S
C153 O145 1.260 1_545 S
C153 O146 1.257 . S
Zn154 O157 2.031 . S
Zn154 O159 2.049 . S
Zn154 O164 2.067 . S
Zn155 O156 1.962 . S
Zn155 O158 1.986 . S
Zn155 O160 1.996 1_556 S
Zn155 O163 1.943 1_556 S
O156 Zn155 1.962 . S
O156 C161 1.254 . S
O157 Zn154 2.031 . S
O157 C161 1.269 1_554 S
O158 Zn155 1.986 . S
O158 C165 1.262 . S
O159 Zn154 2.049 . S
O159 C167 1.260 . S
O160 Zn155 1.996 1_554 S
O160 C167 1.257 . S
C161 O156 1.254 . S
C161 O157 1.269 1_556 S
C162 O163 1.249 . S
C162 O164 1.270 . S
O163 Zn155 1.943 1_554 S
O163 C162 1.249 . S
O164 Zn154 2.067 . S
O164 C162 1.270 . S
C165 O158 1.262 . S
C165 O166 1.232 . S
O166 C165 1.232 . S
C167 O159 1.260 . S
C167 O160 1.257 . S
Zn168 O171 2.031 . S
Zn168 O173 2.049 1_556 S
Zn168 O178 2.067 . S
Zn169 O170 1.962 1_554 S
Zn169 O172 1.986 . S
Zn169 O174 1.996 . S
Zn169 O177 1.943 1_554 S
O170 Zn169 1.962 1_556 S
O170 C175 1.254 . S
O171 Zn168 2.031 . S
O171 C175 1.269 . S
O172 Zn169 1.986 . S
O172 C179 1.262 . S
O173 Zn168 2.049 1_554 S
O173 C181 1.260 . S
O174 Zn169 1.996 . S
O174 C181 1.257 . S
C175 O170 1.254 . S
C175 O171 1.269 . S
C176 O177 1.249 . S
C176 O178 1.270 . S
O177 Zn169 1.943 1_556 S
O177 C176 1.249 . S
O178 Zn168 2.067 . S
O178 C176 1.270 . S
C179 O172 1.262 . S
C179 O180 1.238 . S
O180 C179 1.238 . S
C181 O173 1.260 . S
C181 O174 1.257 . S
Zn182 O185 2.031 . S
Zn182 O187 2.049 . S
Zn182 O192 2.067 . S
Zn183 O184 1.962 . S
Zn183 O186 1.986 . S
Zn183 O188 1.996 . S
Zn183 O191 1.943 1_554 S
O184 Zn183 1.962 . S
O184 C189 1.254 1_554 S
O185 Zn182 2.031 . S
O185 C189 1.269 . S
O186 Zn183 1.986 . S
O186 C193 1.262 . S
O187 Zn182 2.049 . S
O187 C195 1.260 1_556 S
O188 Zn183 1.996 . S
O188 C195 1.257 . S
C189 O184 1.254 1_556 S
C189 O185 1.269 . S
C190 O191 1.249 . S
C190 O192 1.270 . S
O191 Zn183 1.943 1_556 S
O191 C190 1.249 . S
O192 Zn182 2.067 . S
O192 C190 1.270 . S
C193 O186 1.262 . S
C193 O194 1.232 . S
O194 C193 1.232 . S
C195 O187 1.260 1_554 S
C195 O188 1.257 . S
Zn196 O199 2.031 . S
Zn196 O201 2.049 . S
Zn196 O206 2.067 . S
Zn197 O198 1.962 . S
Zn197 O200 1.986 . S
Zn197 O202 1.996 . S
Zn197 O205 1.943 . S
O198 Zn197 1.962 . S
O198 C203 1.254 . S
O199 Zn196 2.031 . S
O199 C203 1.269 . S
O200 Zn197 1.986 . S
O200 C207 1.262 . S
O201 Zn196 2.049 . S
O201 C209 1.260 . S
O202 Zn197 1.996 . S
O202 C209 1.257 . S
C203 O198 1.254 . S
C203 O199 1.269 . S
C204 O205 1.249 . S
C204 O206 1.270 . S
O205 Zn197 1.943 . S
O205 C204 1.249 . S
O206 Zn196 2.067 . S
O206 C204 1.270 . S
C207 O200 1.262 . S
C207 O208 1.232 . S
O208 C207 1.232 . S
C209 O201 1.260 . S
C209 O202 1.257 . S
Zn210 O213 2.031 . S
Zn210 O215 2.049 . S
Zn210 O220 2.067 . S
Zn211 O212 1.962 . S
Zn211 O214 1.986 . S
Zn211 O216 1.996 . S
Zn211 O219 1.943 . S
O212 Zn211 1.962 . S
O212 C217 1.254 . S
O213 Zn210 2.031 . S
O213 C217 1.269 . S
O214 Zn211 1.986 . S
O214 C221 1.262 . S
O215 Zn210 2.049 . S
O215 C223 1.260 . S
O216 Zn211 1.996 . S
O216 C223 1.257 . S
C217 O212 1.254 . S
C217 O213 1.269 . S
C218 O219 1.249 . S
C218 O220 1.270 . S
O219 Zn211 1.943 . S
O219 C218 1.249 . S
O220 Zn210 2.067 . S
O220 C218 1.270 . S
C221 O214 1.262 . S
C221 O222 1.232 . S
O222 C221 1.232 . S
C223 O215 1.260 . S
C223 O216 1.257 . S
Zn224 O227 2.031 . S
Zn224 O229 2.049 . S
Zn224 O234 2.067 . S
Zn225 O226 1.962 . S
Zn225 O228 1.986 . S
Zn225 O230 1.996 1_565 S
Zn225 O233 1.943 1_565 S
O226 Zn225 1.962 . S
O226 C231 1.254 . S
O227 Zn224 2.031 . S
O227 C231 1.269 1_545 S
O228 Zn225 1.986 . S
O228 C235 1.262 . S
O229 Zn224 2.049 . S
O229 C237 1.260 . S
O230 Zn225 1.996 1_545 S
O230 C237 1.257 . S
C231 O226 1.254 . S
C231 O227 1.269 1_565 S
C232 O233 1.249 . S
C232 O234 1.270 . S
O233 Zn225 1.943 1_545 S
O233 C232 1.249 . S
O234 Zn224 2.067 . S
O234 C232 1.270 . S
C235 O228 1.262 . S
C235 O236 1.232 . S
O236 C235 1.232 . S
C237 O229 1.260 . S
C237 O230 1.257 . S
Zn238 O241 2.031 . S
Zn238 O243 2.049 . S
Zn238 O248 2.067 . S
Zn239 O240 1.962 . S
Zn239 O242 1.986 . S
Zn239 O244 1.996 . S
Zn239 O247 1.943 . S
O240 Zn239 1.962 . S
O240 C245 1.254 . S
O241 Zn238 2.031 . S
O241 C245 1.269 . S
O242 Zn239 1.986 . S
O242 C249 1.262 . S
O243 Zn238 2.049 . S
O243 C251 1.260 . S
O244 Zn239 1.996 . S
O244 C251 1.257 . S
C245 O240 1.254 . S
C245 O241 1.269 . S
C246 O247 1.249 . S
C246 O248 1.270 . S
O247 Zn239 1.943 . S
O247 C246 1.249 . S
O248 Zn238 2.067 . S
O248 C246 1.270 . S
C249 O242 1.262 . S
C249 O250 1.232 . S
O250 C249 1.232 . S
C251 O243 1.260 . S
C251 O244 1.257 . S
Zn252 O255 2.031 . S
Zn252 O257 2.049 . S
Zn252 O262 2.067 . S
Zn253 O254 1.962 . S
Zn253 O256 1.986 . S
Zn253 O258 1.996 . S
Zn253 O261 1.943 . S
O254 Zn253 1.962 . S
O254 C259 1.254 . S
O255 Zn252 2.031 . S
O255 C259 1.269 . S
O256 Zn253 1.986 . S
O256 C263 1.262 . S
O257 Zn252 2.049 . S
O257 C265 1.260 . S
O258 Zn253 1.996 . S
O258 C265 1.257 . S
C259 O254 1.254 . S
C259 O255 1.269 . S
C260 O261 1.249 . S
C260 O262 1.270 . S
O261 Zn253 1.943 . S
O261 C260 1.249 . S
O262 Zn252 2.067 . S
O262 C260 1.270 . S
C263 O256 1.262 . S
C263 O264 1.232 . S
O264 C263 1.232 . S
C265 O257 1.260 . S
C265 O258 1.257 . S
Zn266 O269 2.031 1_545 S
Zn266 O271 2.049 . S
Zn266 O276 2.067 . S
Zn267 O268 1.962 1_545 S
Zn267 O270 1.986 . S
Zn267 O272 1.996 . S
Zn267 O275 1.943 . S
O268 Zn267 1.962 1_565 S
O268 C273 1.254 . S
O269 Zn266 2.031 1_565 S
O269 C273 1.269 . S
O270 Zn267 1.986 . S
O270 C277 1.262 1_545 S
O271 Zn266 2.049 . S
O271 C279 1.260 . S
O272 Zn267 1.996 . S
O272 C279 1.257 . S
C273 O268 1.254 . S
C273 O269 1.269 . S
C274 O275 1.249 . S
C274 O276 1.270 . S
O275 Zn267 1.943 . S
O275 C274 1.249 . S
O276 Zn266 2.067 . S
O276 C274 1.270 . S
C277 O270 1.262 1_565 S
C277 O278 1.232 . S
O278 C277 1.232 . S
C279 O271 1.260 . S
C279 O272 1.257 . S
Zn280 O283 2.031 1_554 S
Zn280 O285 2.049 . S
Zn280 O290 2.067 . S
Zn281 O282 1.962 1_554 S
Zn281 O284 1.986 . S
Zn281 O286 1.996 . S
Zn281 O289 1.943 . S
O282 Zn281 1.962 1_556 S
O282 C287 1.254 . S
O283 Zn280 2.031 1_556 S
O283 C287 1.269 . S
O284 Zn281 1.986 . S
O284 C291 1.262 1_554 S
O285 Zn280 2.049 . S
O285 C293 1.260 . S
O286 Zn281 1.996 . S
O286 C293 1.257 . S
C287 O282 1.254 . S
C287 O283 1.269 . S
C288 O289 1.249 . S
C288 O290 1.270 . S
O289 Zn281 1.943 . S
O289 C288 1.249 . S
O290 Zn280 2.067 . S
O290 C288 1.270 . S
C291 O284 1.262 1_556 S
C291 O292 1.232 . S
O292 C291 1.232 . S
C293 O285 1.260 . S
C293 O286 1.257 . S
Zn294 O297 2.031 . S
Zn294 O299 2.049 . S
Zn294 O304 2.067 . S
Zn295 O296 1.962 . S
Zn295 O298 1.986 . S
Zn295 O300 1.996 . S
Zn295 O303 1.943 . S
O296 Zn295 1.962 . S
O296 C301 1.254 . S
O297 Zn294 2.031 . S
O297 C301 1.269 . S
O298 Zn295 1.986 . S
O298 C305 1.262 . S
O299 Zn294 2.049 . S
O299 C307 1.260 . S
O300 Zn295 1.996 . S
O300 C307 1.257 . S
C301 O296 1.254 . S
C301 O297 1.269 . S
C302 O303 1.249 . S
C302 O304 1.270 . S
O303 Zn295 1.943 . S
O303 C302 1.249 . S
O304 Zn294 2.067 . S
O304 C302 1.270 . S
C305 O298 1.262 . S
C305 O306 1.232 . S
O306 C305 1.232 . S
C307 O299 1.260 . S
C307 O300 1.257 . S
Zn308 O311 2.031 . S
Zn308 O313 2.049 . S
Zn308 O318 2.067 . S
Zn309 O310 1.962 . S
Zn309 O312 1.986 . S
Zn309 O314 1.996 . S
Zn309 O317 1.943 . S
O310 Zn309 1.962 . S
O310 C315 1.254 . S
O311 Zn308 2.031 . S
O311 C315 1.269 . S
O312 Zn309 1.986 . S
O312 C319 1.262 . S
O313 Zn308 2.049 . S
O313 C321 1.260 . S
O314 Zn309 1.996 . S
O314 C321 1.257 . S
C315 O310 1.254 . S
C315 O311 1.269 . S
C316 O317 1.249 . S
C316 O318 1.270 . S
O317 Zn309 1.943 . S
O317 C316 1.249 . S
O318 Zn308 2.067 . S
O318 C316 1.270 . S
C319 O312 1.262 . S
C319 O320 1.232 . S
O320 C319 1.232 . S
C321 O313 1.260 . S
C321 O314 1.257 . S
Zn322 O325 2.031 . S
Zn322 O327 2.049 . S
Zn322 O332 2.067 . S
Zn323 O324 1.962 . S
Zn323 O326 1.986 . S
Zn323 O328 1.996 . S
Zn323 O331 1.943 . S
O324 Zn323 1.962 . S
O324 C329 1.254 . S
O325 Zn322 2.031 . S
O325 C329 1.269 . S
O326 Zn323 1.986 . S
O326 C333 1.262 . S
O327 Zn322 2.049 . S
O327 C335 1.260 . S
O328 Zn323 1.996 . S
O328 C335 1.257 . S
C329 O324 1.254 . S
C329 O325 1.269 . S
C330 O331 1.249 . S
C330 O332 1.270 . S
O331 Zn323 1.943 . S
O331 C330 1.249 . S
O332 Zn322 2.067 . S
O332 C330 1.270 . S
C333 O326 1.262 . S
C333 O334 1.232 . S
O334 C333 1.232 . S
C335 O327 1.260 . S
C335 O328 1.257 . S
H336 C344 0.950 . S
H337 C349 0.950 . S
H338 C346 0.950 . S
H339 C348 0.950 . S
H340 C350 0.950 . S
H341 C352 0.950 . S
H342 C354 0.950 . S
H343 C355 0.950 . S
C344 H336 0.950 . S
C344 C345 1.386 . S
C344 C346 1.391 . S
C345 C344 1.386 . S
C345 C349 1.393 . S
C346 H338 0.950 . S
C346 C344 1.391 . S
C346 C347 1.400 . S
C347 C346 1.400 . S
C347 C348 1.398 . S
C347 C353 1.491 . S
C348 H339 0.950 . S
C348 C347 1.398 . S
C348 C349 1.391 . S
C349 H337 0.950 . S
C349 C345 1.393 . S
C349 C348 1.391 . S
C350 H340 0.950 . S
C350 C351 1.386 . S
C350 C352 1.391 . S
C351 C350 1.386 . S
C351 C355 1.393 . S
C352 H341 0.950 . S
C352 C350 1.391 . S
C352 C353 1.400 . S
C353 C347 1.491 . S
C353 C352 1.400 . S
C353 C354 1.398 . S
C354 H342 0.950 . S
C354 C353 1.398 . S
C354 C355 1.391 . S
C355 H343 0.950 . S
C355 C351 1.393 . S
C355 C354 1.391 . S
H356 C364 0.950 . S
H357 C369 0.950 . S
H358 C366 0.950 . S
H359 C368 0.950 . S
H360 C370 0.950 . S
H361 C372 0.950 . S
H362 C374 0.950 . S
H363 C375 0.950 . S
C364 H356 0.950 . S
C364 C365 1.386 . S
C364 C366 1.391 . S
C365 C364 1.386 . S
C365 C369 1.393 . S
C366 H358 0.950 . S
C366 C364 1.391 . S
C366 C367 1.400 . S
C367 C366 1.400 . S
C367 C368 1.398 . S
C367 C373 1.491 . S
C368 H359 0.950 . S
C368 C367 1.398 . S
C368 C369 1.391 . S
C369 H357 0.950 . S
C369 C365 1.393 . S
C369 C368 1.391 . S
C370 H360 0.950 . S
C370 C371 1.386 . S
C370 C372 1.391 . S
C371 C370 1.386 . S
C371 C375 1.393 . S
C372 H361 0.950 . S
C372 C370 1.391 . S
C372 C373 1.400 . S
C373 C367 1.491 . S
C373 C372 1.400 . S
C373 C374 1.398 . S
C374 H362 0.950 . S
C374 C373 1.398 . S
C374 C375 1.391 . S
C375 H363 0.950 . S
C375 C371 1.393 . S
C375 C374 1.391 . S
H376 C384 0.950 . S
H377 C389 0.950 . S
H378 C386 0.950 . S
H379 C388 0.950 . S
H380 C390 0.950 . S
H381 C392 0.950 . S
H382 C394 0.950 . S
H383 C395 0.950 . S
C384 H376 0.950 . S
C384 C385 1.386 . S
C384 C386 1.391 . S
C385 C384 1.386 . S
C385 C389 1.393 . S
C386 H378 0.950 . S
C386 C384 1.391 . S
C386 C387 1.400 . S
C387 C386 1.400 . S
C387 C388 1.398 . S
C387 C393 1.491 . S
C388 H379 0.950 . S
C388 C387 1.398 . S
C388 C389 1.391 . S
C389 H377 0.950 . S
C389 C385 1.393 . S
C389 C388 1.391 . S
C390 H380 0.950 . S
C390 C391 1.386 . S
C390 C392 1.391 . S
C391 C390 1.386 . S
C391 C395 1.393 . S
C392 H381 0.950 . S
C392 C390 1.391 . S
C392 C393 1.400 . S
C393 C387 1.491 . S
C393 C392 1.400 . S
C393 C394 1.398 . S
C394 H382 0.950 . S
C394 C393 1.398 . S
C394 C395 1.391 . S
C395 H383 0.950 . S
C395 C391 1.393 . S
C395 C394 1.391 . S
H396 C404 0.950 . S
H397 C409 0.950 . S
H398 C406 0.950 . S
H399 C408 0.950 . S
H400 C410 0.950 1_556 S
H401 C412 0.950 . S
H402 C414 0.950 . S
H403 C415 0.950 . S
C404 H396 0.950 . S
C404 C405 1.386 . S
C404 C406 1.391 . S
C405 C404 1.386 . S
C405 C409 1.393 . S
C406 H398 0.950 . S
C406 C404 1.391 . S
C406 C407 1.400 . S
C407 C406 1.400 . S
C407 C408 1.398 . S
C407 C413 1.491 . S
C408 H399 0.950 . S
C408 C407 1.398 . S
C408 C409 1.391 . S
C409 H397 0.950 . S
C409 C405 1.393 . S
C409 C408 1.391 . S
C410 H400 0.950 1_554 S
C410 C411 1.386 . S
C410 C412 1.391 . S
C411 C410 1.386 . S
C411 C415 1.393 . S
C412 H401 0.950 . S
C412 C410 1.391 . S
C412 C413 1.400 . S
C413 C407 1.491 . S
C413 C412 1.400 . S
C413 C414 1.398 . S
C414 H402 0.950 . S
C414 C413 1.398 . S
C414 C415 1.391 . S
C415 H403 0.950 . S
C415 C411 1.393 . S
C415 C414 1.391 . S
H416 C424 0.950 . S
H417 C429 0.950 . S
H418 C426 0.950 . S
H419 C428 0.950 . S
H420 C430 0.950 . S
H421 C432 0.950 . S
H422 C434 0.950 . S
H423 C435 0.950 . S
C424 H416 0.950 . S
C424 C425 1.386 . S
C424 C426 1.391 . S
C425 C424 1.386 . S
C425 C429 1.393 . S
C426 H418 0.950 . S
C426 C424 1.391 . S
C426 C427 1.400 . S
C427 C426 1.400 . S
C427 C428 1.398 . S
C427 C433 1.491 . S
C428 H419 0.950 . S
C428 C427 1.398 . S
C428 C429 1.391 . S
C429 H417 0.950 . S
C429 C425 1.393 . S
C429 C428 1.391 . S
C430 H420 0.950 . S
C430 C431 1.386 . S
C430 C432 1.391 . S
C431 C430 1.386 . S
C431 C435 1.393 . S
C432 H421 0.950 . S
C432 C430 1.391 . S
C432 C433 1.400 . S
C433 C427 1.491 . S
C433 C432 1.400 . S
C433 C434 1.398 . S
C434 H422 0.950 . S
C434 C433 1.398 . S
C434 C435 1.391 . S
C435 H423 0.950 . S
C435 C431 1.393 . S
C435 C434 1.391 . S
H436 C444 0.950 . S
H437 C449 0.950 . S
H438 C446 0.950 . S
H439 C448 0.950 . S
H440 C450 0.950 . S
H441 C452 0.950 . S
H442 C454 0.950 . S
H443 C455 0.950 . S
C444 H436 0.950 . S
C444 C445 1.386 . S
C444 C446 1.391 . S
C445 C444 1.386 . S
C445 C449 1.393 . S
C446 H438 0.950 . S
C446 C444 1.391 . S
C446 C447 1.400 . S
C447 C446 1.400 . S
C447 C448 1.398 . S
C447 C453 1.491 . S
C448 H439 0.950 . S
C448 C447 1.398 . S
C448 C449 1.391 . S
C449 H437 0.950 . S
C449 C445 1.393 . S
C449 C448 1.391 . S
C450 H440 0.950 . S
C450 C451 1.386 . S
C450 C452 1.391 . S
C451 C450 1.386 . S
C451 C455 1.393 . S
C452 H441 0.950 . S
C452 C450 1.391 . S
C452 C453 1.400 . S
C453 C447 1.491 . S
C453 C452 1.400 . S
C453 C454 1.398 . S
C454 H442 0.950 . S
C454 C453 1.398 . S
C454 C455 1.391 . S
C455 H443 0.950 . S
C455 C451 1.393 . S
C455 C454 1.391 . S
H456 C464 0.950 . S
H457 C469 0.950 . S
H458 C466 0.950 . S
H459 C468 0.950 . S
H460 C470 0.950 . S
H461 C472 0.950 . S
H462 C474 0.950 . S
H463 C475 0.950 . S
C464 H456 0.950 . S
C464 C465 1.386 . S
C464 C466 1.391 . S
C465 C464 1.386 . S
C465 C469 1.393 . S
C466 H458 0.950 . S
C466 C464 1.391 . S
C466 C467 1.400 . S
C467 C466 1.400 . S
C467 C468 1.398 . S
C467 C473 1.491 . S
C468 H459 0.950 . S
C468 C467 1.398 . S
C468 C469 1.391 . S
C469 H457 0.950 . S
C469 C465 1.393 . S
C469 C468 1.391 . S
C470 H460 0.950 . S
C470 C471 1.386 . S
C470 C472 1.391 . S
C471 C470 1.386 . S
C471 C475 1.393 . S
C472 H461 0.950 . S
C472 C470 1.391 . S
C472 C473 1.400 . S
C473 C467 1.491 . S
C473 C472 1.400 . S
C473 C474 1.398 . S
C474 H462 0.950 . S
C474 C473 1.398 . S
C474 C475 1.391 . S
C475 H463 0.950 . S
C475 C471 1.393 . S
C475 C474 1.391 . S
H476 C484 0.950 . S
H477 C489 0.950 . S
H478 C486 0.950 . S
H479 C488 0.950 . S
H480 C490 0.950 . S
H481 C492 0.950 . S
H482 C494 0.950 . S
H483 C495 0.950 . S
C484 H476 0.950 . S
C484 C485 1.386 . S
C484 C486 1.391 . S
C485 C484 1.386 . S
C485 C489 1.393 . S
C486 H478 0.950 . S
C486 C484 1.391 . S
C486 C487 1.400 . S
C487 C486 1.400 . S
C487 C488 1.398 . S
C487 C493 1.491 . S
C488 H479 0.950 . S
C488 C487 1.398 . S
C488 C489 1.391 . S
C489 H477 0.950 . S
C489 C485 1.393 . S
C489 C488 1.391 . S
C490 H480 0.950 . S
C490 C491 1.386 . S
C490 C492 1.391 . S
C491 C490 1.386 . S
C491 C495 1.393 . S
C492 H481 0.950 . S
C492 C490 1.391 . S
C492 C493 1.400 . S
C493 C487 1.491 . S
C493 C492 1.400 . S
C493 C494 1.398 . S
C494 H482 0.950 . S
C494 C493 1.398 . S
C494 C495 1.391 . S
C495 H483 0.950 . S
C495 C491 1.393 . S
C495 C494 1.391 . S
H496 C504 0.950 . S
H497 C509 0.950 . S
H498 C506 0.950 . S
H499 C508 0.950 . S
H500 C510 0.950 . S
H501 C512 0.950 . S
H502 C514 0.950 . S
H503 C515 0.950 . S
C504 H496 0.950 . S
C504 C505 1.386 . S
C504 C506 1.391 . S
C505 C504 1.386 . S
C505 C509 1.393 . S
C506 H498 0.950 . S
C506 C504 1.391 . S
C506 C507 1.400 . S
C507 C506 1.400 . S
C507 C508 1.398 . S
C507 C513 1.491 . S
C508 H499 0.950 . S
C508 C507 1.398 . S
C508 C509 1.391 . S
C509 H497 0.950 . S
C509 C505 1.393 . S
C509 C508 1.391 . S
C510 H500 0.950 . S
C510 C511 1.386 . S
C510 C512 1.391 . S
C511 C510 1.386 . S
C511 C515 1.393 . S
C512 H501 0.950 . S
C512 C510 1.391 . S
C512 C513 1.400 . S
C513 C507 1.491 . S
C513 C512 1.400 . S
C513 C514 1.398 . S
C514 H502 0.950 . S
C514 C513 1.398 . S
C514 C515 1.391 . S
C515 H503 0.950 . S
C515 C511 1.393 . S
C515 C514 1.391 . S
H516 C524 0.950 . S
H517 C529 0.950 . S
H518 C526 0.950 . S
H519 C528 0.950 . S
H520 C530 0.950 . S
H521 C532 0.950 . S
H522 C534 0.950 . S
H523 C535 0.950 . S
C524 H516 0.950 . S
C524 C525 1.386 . S
C524 C526 1.391 . S
C525 C524 1.386 . S
C525 C529 1.393 . S
C526 H518 0.950 . S
C526 C524 1.391 . S
C526 C527 1.400 . S
C527 C526 1.400 . S
C527 C528 1.398 . S
C527 C533 1.491 . S
C528 H519 0.950 . S
C528 C527 1.398 . S
C528 C529 1.391 . S
C529 H517 0.950 . S
C529 C525 1.393 . S
C529 C528 1.391 . S
C530 H520 0.950 . S
C530 C531 1.386 . S
C530 C532 1.391 . S
C531 C530 1.386 . S
C531 C535 1.393 . S
C532 H521 0.950 . S
C532 C530 1.391 . S
C532 C533 1.400 . S
C533 C527 1.491 . S
C533 C532 1.400 . S
C533 C534 1.398 . S
C534 H522 0.950 . S
C534 C533 1.398 . S
C534 C535 1.391 . S
C535 H523 0.950 . S
C535 C531 1.393 . S
C535 C534 1.391 . S
H536 C544 0.950 . S
H537 C549 0.950 1_545 S
H538 C546 0.950 . S
H539 C548 0.950 . S
H540 C550 0.950 . S
H541 C552 0.950 . S
H542 C554 0.950 . S
H543 C555 0.950 . S
C544 H536 0.950 . S
C544 C545 1.386 . S
C544 C546 1.391 . S
C545 C544 1.386 . S
C545 C549 1.393 . S
C546 H538 0.950 . S
C546 C544 1.391 . S
C546 C547 1.400 . S
C547 C546 1.400 . S
C547 C548 1.398 . S
C547 C553 1.491 . S
C548 H539 0.950 . S
C548 C547 1.398 . S
C548 C549 1.391 . S
C549 H537 0.950 1_565 S
C549 C545 1.393 . S
C549 C548 1.391 . S
C550 H540 0.950 . S
C550 C551 1.386 . S
C550 C552 1.391 . S
C551 C550 1.386 . S
C551 C555 1.393 . S
C552 H541 0.950 . S
C552 C550 1.391 . S
C552 C553 1.400 . S
C553 C547 1.491 . S
C553 C552 1.400 . S
C553 C554 1.398 . S
C554 H542 0.950 . S
C554 C553 1.398 . S
C554 C555 1.391 . S
C555 H543 0.950 . S
C555 C551 1.393 . S
C555 C554 1.391 . S
H556 C564 0.950 . S
H557 C569 0.950 . S
H558 C566 0.950 . S
H559 C568 0.950 . S
H560 C570 0.950 . S
H561 C572 0.950 . S
H562 C574 0.950 . S
H563 C575 0.950 1_545 S
C564 H556 0.950 . S
C564 C565 1.386 . S
C564 C566 1.391 . S
C565 C564 1.386 . S
C565 C569 1.393 . S
C566 H558 0.950 . S
C566 C564 1.391 . S
C566 C567 1.400 . S
C567 C566 1.400 . S
C567 C568 1.398 . S
C567 C573 1.491 . S
C568 H559 0.950 . S
C568 C567 1.398 . S
C568 C569 1.391 . S
C569 H557 0.950 . S
C569 C565 1.393 . S
C569 C568 1.391 . S
C570 H560 0.950 . S
C570 C571 1.386 . S
C570 C572 1.391 . S
C571 C570 1.386 . S
C571 C575 1.393 . S
C572 H561 0.950 . S
C572 C570 1.391 . S
C572 C573 1.400 . S
C573 C567 1.491 . S
C573 C572 1.400 . S
C573 C574 1.398 . S
C574 H562 0.950 . S
C574 C573 1.398 . S
C574 C575 1.391 . S
C575 H563 0.950 1_565 S
C575 C571 1.393 . S
C575 C574 1.391 . S
H576 C584 0.950 . S
H577 C589 0.950 . S
H578 C586 0.950 . S
H579 C588 0.950 . S
H580 C590 0.950 . S
H581 C592 0.950 . S
H582 C594 0.950 . S
H583 C595 0.950 . S
C584 H576 0.950 . S
C584 C585 1.386 . S
C584 C586 1.391 . S
C585 C584 1.386 . S
C585 C589 1.393 . S
C586 H578 0.950 . S
C586 C584 1.391 . S
C586 C587 1.400 . S
C587 C586 1.400 . S
C587 C588 1.398 . S
C587 C593 1.491 . S
C588 H579 0.950 . S
C588 C587 1.398 . S
C588 C589 1.391 . S
C589 H577 0.950 . S
C589 C585 1.393 . S
C589 C588 1.391 . S
C590 H580 0.950 . S
C590 C591 1.386 . S
C590 C592 1.391 . S
C591 C590 1.386 . S
C591 C595 1.393 . S
C592 H581 0.950 . S
C592 C590 1.391 . S
C592 C593 1.400 . S
C593 C587 1.491 . S
C593 C592 1.400 . S
C593 C594 1.398 . S
C594 H582 0.950 . S
C594 C593 1.398 . S
C594 C595 1.391 . S
C595 H583 0.950 . S
C595 C591 1.393 . S
C595 C594 1.391 . S
H596 C604 0.950 . S
H597 C609 0.950 1_455 S
H598 C606 0.950 . S
H599 C608 0.950 . S
H600 C610 0.950 . S
H601 C612 0.950 . S
H602 C614 0.950 . S
H603 C615 0.950 . S
C604 H596 0.950 . S
C604 C605 1.386 . S
C604 C606 1.391 . S
C605 C604 1.386 . S
C605 C609 1.393 . S
C606 H598 0.950 . S
C606 C604 1.391 . S
C606 C607 1.400 . S
C607 C606 1.400 . S
C607 C608 1.398 . S
C607 C613 1.491 . S
C608 H599 0.950 . S
C608 C607 1.398 . S
C608 C609 1.391 . S
C609 H597 0.950 1_655 S
C609 C605 1.393 . S
C609 C608 1.391 . S
C610 H600 0.950 . S
C610 C611 1.386 . S
C610 C612 1.391 . S
C611 C610 1.386 . S
C611 C615 1.393 . S
C612 H601 0.950 . S
C612 C610 1.391 . S
C612 C613 1.400 . S
C613 C607 1.491 . S
C613 C612 1.400 . S
C613 C614 1.398 . S
C614 H602 0.950 . S
C614 C613 1.398 . S
C614 C615 1.391 . S
C615 H603 0.950 . S
C615 C611 1.393 . S
C615 C614 1.391 . S
H616 C624 0.950 . S
H617 C629 0.950 . S
H618 C626 0.950 . S
H619 C628 0.950 . S
H620 C630 0.950 . S
H621 C632 0.950 . S
H622 C634 0.950 . S
H623 C635 0.950 . S
C624 H616 0.950 . S
C624 C625 1.386 . S
C624 C626 1.391 . S
C625 C624 1.386 . S
C625 C629 1.393 . S
C626 H618 0.950 . S
C626 C624 1.391 . S
C626 C627 1.400 . S
C627 C626 1.400 . S
C627 C628 1.398 . S
C627 C633 1.491 . S
C628 H619 0.950 . S
C628 C627 1.398 . S
C628 C629 1.391 . S
C629 H617 0.950 . S
C629 C625 1.393 . S
C629 C628 1.391 . S
C630 H620 0.950 . S
C630 C631 1.386 . S
C630 C632 1.391 . S
C631 C630 1.386 . S
C631 C635 1.393 . S
C632 H621 0.950 . S
C632 C630 1.391 . S
C632 C633 1.400 . S
C633 C627 1.491 . S
C633 C632 1.400 . S
C633 C634 1.398 . S
C634 H622 0.950 . S
C634 C633 1.398 . S
C634 C635 1.391 . S
C635 H623 0.950 . S
C635 C631 1.393 . S
C635 C634 1.391 . S
H636 C644 0.950 1_455 S
H637 C649 0.950 . S
H638 C646 0.970 . S
H639 C648 0.950 . S
H640 C650 0.950 . S
H641 C652 0.950 . S
H642 C654 0.950 . S
H643 C655 0.950 . S
C644 H636 0.950 1_655 S
C644 C645 1.386 . S
C644 C646 1.391 . S
C645 C644 1.386 . S
C645 C649 1.393 . S
C646 H638 0.970 . S
C646 C644 1.391 . S
C646 C647 1.400 . S
C647 C646 1.400 . S
C647 C648 1.398 . S
C647 C653 1.491 . S
C648 H639 0.950 . S
C648 C647 1.398 . S
C648 C649 1.391 . S
C649 H637 0.950 . S
C649 C645 1.393 . S
C649 C648 1.391 . S
C650 H640 0.950 . S
C650 C651 1.386 . S
C650 C652 1.391 . S
C651 C650 1.386 . S
C651 C655 1.393 . S
C652 H641 0.950 . S
C652 C650 1.391 . S
C652 C653 1.400 . S
C653 C647 1.491 . S
C653 C652 1.400 . S
C653 C654 1.398 . S
C654 H642 0.950 . S
C654 C653 1.398 . S
C654 C655 1.391 . S
C655 H643 0.950 . S
C655 C651 1.393 . S
C655 C654 1.391 . S
H656 C664 0.950 . S
H657 C669 0.950 . S
H658 C666 0.950 . S
H659 C668 0.950 . S
H660 C670 0.950 . S
H661 C672 0.950 . S
H662 C674 0.950 . S
H663 C675 0.950 . S
C664 H656 0.950 . S
C664 C665 1.386 . S
C664 C666 1.391 . S
C665 C664 1.386 . S
C665 C669 1.393 . S
C666 H658 0.950 . S
C666 C664 1.391 . S
C666 C667 1.400 . S
C667 C666 1.400 . S
C667 C668 1.398 . S
C667 C673 1.491 . S
C668 H659 0.950 . S
C668 C667 1.398 . S
C668 C669 1.391 . S
C669 H657 0.950 . S
C669 C665 1.393 . S
C669 C668 1.391 . S
C670 H660 0.950 . S
C670 C671 1.386 . S
C670 C672 1.391 . S
C671 C670 1.386 . S
C671 C675 1.393 . S
C672 H661 0.950 . S
C672 C670 1.391 . S
C672 C673 1.400 . S
C673 C667 1.491 . S
C673 C672 1.400 . S
C673 C674 1.398 . S
C674 H662 0.950 . S
C674 C673 1.398 . S
C674 C675 1.391 . S
C675 H663 0.950 . S
C675 C671 1.393 . S
C675 C674 1.391 . S
H676 C684 0.950 . S
H677 C689 0.950 . S
H678 C686 0.950 . S
H679 C688 0.950 . S
H680 C690 0.950 . S
H681 C692 0.950 . S
H682 C694 0.950 . S
H683 C695 0.950 . S
C684 H676 0.950 . S
C684 C685 1.386 . S
C684 C686 1.391 . S
C685 C684 1.386 . S
C685 C689 1.393 . S
C686 H678 0.950 . S
C686 C684 1.391 . S
C686 C687 1.400 . S
C687 C686 1.400 . S
C687 C688 1.398 . S
C687 C693 1.491 . S
C688 H679 0.950 . S
C688 C687 1.398 . S
C688 C689 1.391 . S
C689 H677 0.950 . S
C689 C685 1.393 . S
C689 C688 1.391 . S
C690 H680 0.950 . S
C690 C691 1.386 . S
C690 C692 1.391 . S
C691 C690 1.386 . S
C691 C695 1.393 . S
C692 H681 0.950 . S
C692 C690 1.391 . S
C692 C693 1.400 . S
C693 C687 1.491 . S
C693 C692 1.400 . S
C693 C694 1.398 . S
C694 H682 0.950 . S
C694 C693 1.398 . S
C694 C695 1.391 . S
C695 H683 0.950 . S
C695 C691 1.393 . S
C695 C694 1.391 . S
H696 C704 0.950 1_554 S
H697 C709 0.950 . S
H698 C706 0.950 . S
H699 C708 0.950 . S
H700 C710 0.950 . S
H701 C712 0.950 . S
H702 C714 0.950 . S
H703 C715 0.950 . S
C704 H696 0.950 1_556 S
C704 C705 1.386 . S
C704 C706 1.391 . S
C705 C704 1.386 . S
C705 C709 1.393 . S
C706 H698 0.950 . S
C706 C704 1.391 . S
C706 C707 1.400 . S
C707 C706 1.400 . S
C707 C708 1.398 . S
C707 C713 1.491 . S
C708 H699 0.950 . S
C708 C707 1.398 . S
C708 C709 1.391 . S
C709 H697 0.950 . S
C709 C705 1.393 . S
C709 C708 1.391 . S
C710 H700 0.950 . S
C710 C711 1.386 . S
C710 C712 1.391 . S
C711 C710 1.386 . S
C711 C715 1.393 . S
C712 H701 0.950 . S
C712 C710 1.391 . S
C712 C713 1.400 . S
C713 C707 1.491 . S
C713 C712 1.400 . S
C713 C714 1.398 . S
C714 H702 0.950 . S
C714 C713 1.398 . S
C714 C715 1.391 . S
C715 H703 0.950 . S
C715 C711 1.393 . S
C715 C714 1.391 . S
H716 C724 0.950 . S
H717 C729 0.950 . S
H718 C726 0.950 . S
H719 C728 0.950 . S
H720 C730 0.950 . S
H721 C732 0.950 . S
H722 C734 0.950 . S
H723 C735 0.950 1_455 S
C724 H716 0.950 . S
C724 C725 1.386 . S
C724 C726 1.391 . S
C725 C724 1.386 . S
C725 C729 1.393 . S
C726 H718 0.950 . S
C726 C724 1.391 . S
C726 C727 1.400 . S
C727 C726 1.400 . S
C727 C728 1.398 . S
C727 C733 1.491 . S
C728 H719 0.950 . S
C728 C727 1.398 . S
C728 C729 1.391 . S
C729 H717 0.950 . S
C729 C725 1.393 . S
C729 C728 1.391 . S
C730 H720 0.950 . S
C730 C731 1.386 . S
C730 C732 1.391 . S
C731 C730 1.386 . S
C731 C735 1.393 . S
C732 H721 0.950 . S
C732 C730 1.391 . S
C732 C733 1.400 . S
C733 C727 1.491 . S
C733 C732 1.400 . S
C733 C734 1.398 . S
C734 H722 0.950 . S
C734 C733 1.398 . S
C734 C735 1.391 . S
C735 H723 0.950 1_655 S
C735 C731 1.393 . S
C735 C734 1.391 . S
H736 C744 0.950 . S
H737 C749 0.950 . S
H738 C746 0.950 . S
H739 C748 0.950 . S
H740 C750 0.950 . S
H741 C752 0.950 . S
H742 C754 0.950 . S
H743 C755 0.950 . S
C744 H736 0.950 . S
C744 C745 1.386 . S
C744 C746 1.391 . S
C745 C744 1.386 . S
C745 C749 1.393 . S
C746 H738 0.950 . S
C746 C744 1.391 . S
C746 C747 1.400 . S
C747 C746 1.400 . S
C747 C748 1.398 . S
C747 C753 1.491 . S
C748 H739 0.950 . S
C748 C747 1.398 . S
C748 C749 1.391 . S
C749 H737 0.950 . S
C749 C745 1.393 . S
C749 C748 1.391 . S
C750 H740 0.950 . S
C750 C751 1.386 . S
C750 C752 1.391 . S
C751 C750 1.386 . S
C751 C755 1.393 . S
C752 H741 0.950 . S
C752 C750 1.391 . S
C752 C753 1.400 . S
C753 C747 1.491 . S
C753 C752 1.400 . S
C753 C754 1.398 . S
C754 H742 0.950 . S
C754 C753 1.398 . S
C754 C755 1.391 . S
C755 H743 0.950 . S
C755 C751 1.393 . S
C755 C754 1.391 . S
H756 C764 0.950 . S
H757 C769 0.950 . S
H758 C766 0.950 . S
H759 C768 0.950 . S
H760 C770 0.950 . S
H761 C772 0.950 . S
H762 C774 0.950 . S
H763 C775 0.950 . S
C764 H756 0.950 . S
C764 C765 1.386 . S
C764 C766 1.391 . S
C765 C764 1.386 . S
C765 C769 1.393 . S
C766 H758 0.950 . S
C766 C764 1.391 . S
C766 C767 1.400 . S
C767 C766 1.400 . S
C767 C768 1.398 . S
C767 C773 1.491 . S
C768 H759 0.950 . S
C768 C767 1.398 . S
C768 C769 1.391 . S
C769 H757 0.950 . S
C769 C765 1.393 . S
C769 C768 1.391 . S
C770 H760 0.950 . S
C770 C771 1.386 . S
C770 C772 1.391 . S
C771 C770 1.386 . S
C771 C775 1.393 . S
C772 H761 0.950 . S
C772 C770 1.391 . S
C772 C773 1.400 . S
C773 C767 1.491 . S
C773 C772 1.400 . S
C773 C774 1.398 . S
C774 H762 0.950 . S
C774 C773 1.398 . S
C774 C775 1.391 . S
C775 H763 0.950 . S
C775 C771 1.393 . S
C775 C774 1.391 . S
H776 C784 0.950 . S
H777 C789 0.950 . S
H778 C786 0.950 . S
H779 C788 0.950 . S
H780 C790 0.950 . S
H781 C792 0.950 . S
H782 C794 0.950 . S
H783 C795 0.950 . S
C784 H776 0.950 . S
C784 C785 1.386 . S
C784 C786 1.391 . S
C785 C784 1.386 . S
C785 C789 1.393 . S
C786 H778 0.950 . S
C786 C784 1.391 . S
C786 C787 1.400 . S
C787 C786 1.400 . S
C787 C788 1.398 . S
C787 C793 1.491 . S
C788 H779 0.950 . S
C788 C787 1.398 . S
C788 C789 1.391 . S
C789 H777 0.950 . S
C789 C785 1.393 . S
C789 C788 1.391 . S
C790 H780 0.950 . S
C790 C791 1.386 . S
C790 C792 1.391 . S
C791 C790 1.386 . S
C791 C795 1.393 . S
C792 H781 0.950 . S
C792 C790 1.391 . S
C792 C793 1.400 . S
C793 C787 1.491 . S
C793 C792 1.400 . S
C793 C794 1.398 . S
C794 H782 0.950 . S
C794 C793 1.398 . S
C794 C795 1.391 . S
C795 H783 0.950 . S
C795 C791 1.393 . S
C795 C794 1.391 . S
H796 C804 0.950 . S
H797 C809 0.950 . S
H798 C806 0.950 . S
H799 C808 0.950 . S
H800 C810 0.950 . S
H801 C812 0.950 . S
H802 C814 0.950 . S
H803 C815 0.950 . S
C804 H796 0.950 . S
C804 C805 1.386 . S
C804 C806 1.391 . S
C805 C804 1.386 . S
C805 C809 1.393 . S
C806 H798 0.950 . S
C806 C804 1.391 . S
C806 C807 1.400 . S
C807 C806 1.400 . S
C807 C808 1.398 . S
C807 C813 1.491 . S
C808 H799 0.950 . S
C808 C807 1.398 . S
C808 C809 1.391 . S
C809 H797 0.950 . S
C809 C805 1.393 . S
C809 C808 1.391 . S
C810 H800 0.950 . S
C810 C811 1.386 . S
C810 C812 1.391 . S
C811 C810 1.386 . S
C811 C815 1.393 . S
C812 H801 0.950 . S
C812 C810 1.391 . S
C812 C813 1.400 . S
C813 C807 1.491 . S
C813 C812 1.400 . S
C813 C814 1.398 . S
C814 H802 0.950 . S
C814 C813 1.398 . S
C814 C815 1.391 . S
C815 H803 0.950 . S
C815 C811 1.393 . S
C815 C814 1.391 . S
H816 C824 0.950 . S
H817 C829 0.950 . S
H818 C826 0.950 . S
H819 C828 0.950 . S
H820 C830 0.950 . S
H821 C832 0.950 . S
H822 C834 0.950 . S
H823 C835 0.950 . S
C824 H816 0.950 . S
C824 C825 1.386 . S
C824 C826 1.391 . S
C825 C824 1.386 . S
C825 C829 1.393 . S
C826 H818 0.950 . S
C826 C824 1.391 . S
C826 C827 1.400 . S
C827 C826 1.400 . S
C827 C828 1.398 . S
C827 C833 1.491 . S
C828 H819 0.950 . S
C828 C827 1.398 . S
C828 C829 1.391 . S
C829 H817 0.950 . S
C829 C825 1.393 . S
C829 C828 1.391 . S
C830 H820 0.950 . S
C830 C831 1.386 . S
C830 C832 1.391 . S
C831 C830 1.386 . S
C831 C835 1.393 . S
C832 H821 0.950 . S
C832 C830 1.391 . S
C832 C833 1.400 . S
C833 C827 1.491 . S
C833 C832 1.400 . S
C833 C834 1.398 . S
C834 H822 0.950 . S
C834 C833 1.398 . S
C834 C835 1.391 . S
C835 H823 0.950 . S
C835 C831 1.393 . S
C835 C834 1.391 . S
H836 C844 0.950 . S
H837 C849 0.950 . S
H838 C846 0.950 . S
H839 C848 0.950 . S
H840 C850 0.950 . S
H841 C852 0.950 . S
H842 C854 0.950 . S
H843 C855 0.950 . S
C844 H836 0.950 . S
C844 C845 1.386 . S
C844 C846 1.391 . S
C845 C844 1.386 . S
C845 C849 1.393 . S
C846 H838 0.950 . S
C846 C844 1.391 . S
C846 C847 1.400 . S
C847 C846 1.400 . S
C847 C848 1.398 . S
C847 C853 1.491 . S
C848 H839 0.950 . S
C848 C847 1.398 . S
C848 C849 1.391 . S
C849 H837 0.950 . S
C849 C845 1.393 . S
C849 C848 1.391 . S
C850 H840 0.950 . S
C850 C851 1.386 . S
C850 C852 1.391 . S
C851 C850 1.386 . S
C851 C855 1.393 . S
C852 H841 0.950 . S
C852 C850 1.391 . S
C852 C853 1.400 . S
C853 C847 1.491 . S
C853 C852 1.400 . S
C853 C854 1.398 . S
C854 H842 0.950 . S
C854 C853 1.398 . S
C854 C855 1.391 . S
C855 H843 0.950 . S
C855 C851 1.393 . S
C855 C854 1.391 . S
H856 C864 0.950 . S
H857 C869 0.950 . S
H858 C866 0.950 . S
H859 C868 0.950 . S
H860 C870 0.950 . S
H861 C872 0.950 . S
H862 C874 0.950 . S
H863 C875 0.950 . S
C864 H856 0.950 . S
C864 C865 1.386 . S
C864 C866 1.391 . S
C865 C864 1.386 . S
C865 C869 1.393 . S
C866 H858 0.950 . S
C866 C864 1.391 . S
C866 C867 1.400 . S
C867 C866 1.400 . S
C867 C868 1.398 . S
C867 C873 1.491 . S
C868 H859 0.950 . S
C868 C867 1.398 . S
C868 C869 1.391 . S
C869 H857 0.950 . S
C869 C865 1.393 . S
C869 C868 1.391 . S
C870 H860 0.950 . S
C870 C871 1.386 . S
C870 C872 1.391 . S
C871 C870 1.386 . S
C871 C875 1.393 . S
C872 H861 0.950 . S
C872 C870 1.391 . S
C872 C873 1.400 . S
C873 C867 1.491 . S
C873 C872 1.400 . S
C873 C874 1.398 . S
C874 H862 0.950 . S
C874 C873 1.398 . S
C874 C875 1.391 . S
C875 H863 0.950 . S
C875 C871 1.393 . S
C875 C874 1.391 . S
H876 C884 0.950 . S
H877 C889 0.950 . S
H878 C886 0.950 . S
H879 C888 0.950 . S
H880 C890 0.950 . S
H881 C892 0.950 . S
H882 C894 0.950 . S
H883 C895 0.950 . S
C884 H876 0.950 . S
C884 C885 1.386 . S
C884 C886 1.391 . S
C885 C884 1.386 . S
C885 C889 1.393 . S
C886 H878 0.950 . S
C886 C884 1.391 . S
C886 C887 1.400 . S
C887 C886 1.400 . S
C887 C888 1.398 . S
C887 C893 1.491 . S
C888 H879 0.950 . S
C888 C887 1.398 . S
C888 C889 1.391 . S
C889 H877 0.950 . S
C889 C885 1.393 . S
C889 C888 1.391 . S
C890 H880 0.950 . S
C890 C891 1.386 . S
C890 C892 1.391 . S
C891 C890 1.386 . S
C891 C895 1.393 . S
C892 H881 0.950 . S
C892 C890 1.391 . S
C892 C893 1.400 . S
C893 C887 1.491 . S
C893 C892 1.400 . S
C893 C894 1.398 . S
C894 H882 0.950 . S
C894 C893 1.398 . S
C894 C895 1.391 . S
C895 H883 0.950 . S
C895 C891 1.393 . S
C895 C894 1.391 . S
H896 C904 0.950 . S
H897 C909 0.950 . S
H898 C906 0.950 . S
H899 C908 0.950 . S
H900 C910 0.950 . S
H901 C912 0.950 . S
H902 C914 0.950 . S
H903 C915 0.950 . S
C904 H896 0.950 . S
C904 C905 1.386 . S
C904 C906 1.391 . S
C905 C904 1.386 . S
C905 C909 1.393 . S
C906 H898 0.950 . S
C906 C904 1.391 . S
C906 C907 1.400 . S
C907 C906 1.400 . S
C907 C908 1.398 . S
C907 C913 1.491 . S
C908 H899 0.950 . S
C908 C907 1.398 . S
C908 C909 1.391 . S
C909 H897 0.950 . S
C909 C905 1.393 . S
C909 C908 1.391 . S
C910 H900 0.950 . S
C910 C911 1.386 . S
C910 C912 1.391 . S
C911 C910 1.386 . S
C911 C915 1.393 . S
C912 H901 0.950 . S
C912 C910 1.391 . S
C912 C913 1.400 . S
C913 C907 1.491 . S
C913 C912 1.400 . S
C913 C914 1.398 . S
C914 H902 0.950 . S
C914 C913 1.398 . S
C914 C915 1.391 . S
C915 H903 0.950 . S
C915 C911 1.393 . S
C915 C914 1.391 . S
H916 C924 0.950 . S
H917 C929 0.950 . S
H918 C926 0.950 . S
H919 C928 0.950 . S
H920 C930 0.950 . S
H921 C932 0.950 . S
H922 C934 0.950 . S
H923 C935 0.950 . S
C924 H916 0.950 . S
C924 C925 1.386 . S
C924 C926 1.391 . S
C925 C924 1.386 . S
C925 C929 1.393 . S
C926 H918 0.950 . S
C926 C924 1.391 . S
C926 C927 1.400 . S
C927 C926 1.400 . S
C927 C928 1.398 . S
C927 C933 1.491 . S
C928 H919 0.950 . S
C928 C927 1.398 . S
C928 C929 1.391 . S
C929 H917 0.950 . S
C929 C925 1.393 . S
C929 C928 1.391 . S
C930 H920 0.950 . S
C930 C931 1.386 . S
C930 C932 1.391 . S
C931 C930 1.386 . S
C931 C935 1.393 . S
C932 H921 0.950 . S
C932 C930 1.391 . S
C932 C933 1.400 . S
C933 C927 1.491 . S
C933 C932 1.400 . S
C933 C934 1.398 . S
C934 H922 0.950 . S
C934 C933 1.398 . S
C934 C935 1.391 . S
C935 H923 0.950 . S
C935 C931 1.393 . S
C935 C934 1.391 . S
H936 C944 0.950 . S
H937 C949 0.950 . S
H938 C946 0.950 . S
H939 C948 0.950 . S
H940 C950 0.950 . S
H941 C952 0.950 . S
H942 C954 0.950 . S
H943 C955 0.950 . S
C944 H936 0.950 . S
C944 C945 1.386 . S
C944 C946 1.391 . S
C945 C944 1.386 . S
C945 C949 1.393 . S
C946 H938 0.950 . S
C946 C944 1.391 . S
C946 C947 1.400 . S
C947 C946 1.400 . S
C947 C948 1.398 . S
C947 C953 1.491 . S
C948 H939 0.950 . S
C948 C947 1.398 . S
C948 C949 1.391 . S
C949 H937 0.950 . S
C949 C945 1.393 . S
C949 C948 1.391 . S
C950 H940 0.950 . S
C950 C951 1.386 . S
C950 C952 1.391 . S
C951 C950 1.386 . S
C951 C955 1.393 . S
C952 H941 0.950 . S
C952 C950 1.391 . S
C952 C953 1.400 . S
C953 C947 1.491 . S
C953 C952 1.400 . S
C953 C954 1.398 . S
C954 H942 0.950 . S
C954 C953 1.398 . S
C954 C955 1.391 . S
C955 H943 0.950 . S
C955 C951 1.393 . S
C955 C954 1.391 . S
H956 C964 0.950 . S
H957 C969 0.950 . S
H958 C966 0.950 . S
H959 C968 0.950 . S
H960 C970 0.950 . S
H961 C972 0.950 . S
H962 C974 0.950 . S
H963 C975 0.950 . S
C964 H956 0.950 . S
C964 C965 1.386 . S
C964 C966 1.391 . S
C965 C964 1.386 . S
C965 C969 1.393 . S
C966 H958 0.950 . S
C966 C964 1.391 . S
C966 C967 1.400 . S
C967 C966 1.400 . S
C967 C968 1.398 . S
C967 C973 1.491 . S
C968 H959 0.950 . S
C968 C967 1.398 . S
C968 C969 1.391 . S
C969 H957 0.950 . S
C969 C965 1.393 . S
C969 C968 1.391 . S
C970 H960 0.950 . S
C970 C971 1.386 . S
C970 C972 1.391 . S
C971 C970 1.386 . S
C971 C975 1.393 . S
C972 H961 0.950 . S
C972 C970 1.391 . S
C972 C973 1.400 . S
C973 C967 1.491 . S
C973 C972 1.400 . S
C973 C974 1.398 . S
C974 H962 0.950 . S
C974 C973 1.398 . S
C974 C975 1.391 . S
C975 H963 0.950 . S
C975 C971 1.393 . S
C975 C974 1.391 . S
H976 C984 0.950 . S
H977 C989 0.950 . S
H978 C986 0.950 . S
H979 C988 0.950 . S
H980 C990 0.950 . S
H981 C992 0.950 . S
H982 C994 0.950 . S
H983 C995 0.950 . S
C984 H976 0.950 . S
C984 C985 1.386 . S
C984 C986 1.391 . S
C985 C984 1.386 . S
C985 C989 1.393 . S
C986 H978 0.950 . S
C986 C984 1.391 . S
C986 C987 1.400 . S
C987 C986 1.400 . S
C987 C988 1.398 . S
C987 C993 1.491 . S
C988 H979 0.950 . S
C988 C987 1.398 . S
C988 C989 1.391 . S
C989 H977 0.950 . S
C989 C985 1.393 . S
C989 C988 1.391 . S
C990 H980 0.950 . S
C990 C991 1.386 . S
C990 C992 1.391 . S
C991 C990 1.386 . S
C991 C995 1.393 . S
C992 H981 0.950 . S
C992 C990 1.391 . S
C992 C993 1.400 . S
C993 C987 1.491 . S
C993 C992 1.400 . S
C993 C994 1.398 . S
C994 H982 0.950 . S
C994 C993 1.398 . S
C994 C995 1.391 . S
C995 H983 0.950 . S
C995 C991 1.393 . S
C995 C994 1.391 . S
H996 C1004 0.950 . S
H997 C1009 0.950 . S
H998 C1006 0.950 . S
H999 C1008 0.950 . S
H1000 C1010 0.950 . S
H1001 C1012 0.950 . S
H1002 C1014 0.950 . S
H1003 C1015 0.950 . S
C1004 H996 0.950 . S
C1004 C1005 1.386 . S
C1004 C1006 1.391 . S
C1005 C1004 1.386 . S
C1005 C1009 1.393 . S
C1006 H998 0.950 . S
C1006 C1004 1.391 . S
C1006 C1007 1.400 . S
C1007 C1006 1.400 . S
C1007 C1008 1.398 . S
C1007 C1013 1.491 . S
C1008 H999 0.950 . S
C1008 C1007 1.398 . S
C1008 C1009 1.391 . S
C1009 H997 0.950 . S
C1009 C1005 1.393 . S
C1009 C1008 1.391 . S
C1010 H1000 0.950 . S
C1010 C1011 1.386 . S
C1010 C1012 1.391 . S
C1011 C1010 1.386 . S
C1011 C1015 1.393 . S
C1012 H1001 0.950 . S
C1012 C1010 1.391 . S
C1012 C1013 1.400 . S
C1013 C1007 1.491 . S
C1013 C1012 1.400 . S
C1013 C1014 1.398 . S
C1014 H1002 0.950 . S
C1014 C1013 1.398 . S
C1014 C1015 1.391 . S
C1015 H1003 0.950 . S
C1015 C1011 1.393 . S
C1015 C1014 1.391 . S
H1016 C1024 0.950 . S
H1017 C1029 0.950 . S
H1018 C1026 0.950 . S
H1019 C1028 0.950 . S
H1020 C1030 0.950 . S
H1021 C1032 0.950 . S
H1022 C1034 0.950 . S
H1023 C1035 0.950 . S
C1024 H1016 0.950 . S
C1024 C1025 1.386 . S
C1024 C1026 1.391 . S
C1025 C1024 1.386 . S
C1025 C1029 1.393 . S
C1026 H1018 0.950 . S
C1026 C1024 1.391 . S
C1026 C1027 1.400 . S
C1027 C1026 1.400 . S
C1027 C1028 1.398 . S
C1027 C1033 1.491 . S
C1028 H1019 0.950 . S
C1028 C1027 1.398 . S
C1028 C1029 1.391 . S
C1029 H1017 0.950 . S
C1029 C1025 1.393 . S
C1029 C1028 1.391 . S
C1030 H1020 0.950 . S
C1030 C1031 1.386 . S
C1030 C1032 1.391 . S
C1031 C1030 1.386 . S
C1031 C1035 1.393 . S
C1032 H1021 0.950 . S
C1032 C1030 1.391 . S
C1032 C1033 1.400 . S
C1033 C1027 1.491 . S
C1033 C1032 1.400 . S
C1033 C1034 1.398 . S
C1034 H1022 0.950 . S
C1034 C1033 1.398 . S
C1034 C1035 1.391 . S
C1035 H1023 0.950 . S
C1035 C1031 1.393 . S
C1035 C1034 1.391 . S
H1036 C1044 0.950 . S
H1037 C1049 0.950 . S
H1038 C1046 0.950 . S
H1039 C1048 0.950 . S
H1040 C1050 0.950 . S
H1041 C1052 0.950 . S
H1042 C1054 0.950 . S
H1043 C1055 0.950 . S
C1044 H1036 0.950 . S
C1044 C1045 1.386 . S
C1044 C1046 1.391 . S
C1045 C1044 1.386 . S
C1045 C1049 1.393 . S
C1046 H1038 0.950 . S
C1046 C1044 1.391 . S
C1046 C1047 1.400 . S
C1047 C1046 1.400 . S
C1047 C1048 1.398 . S
C1047 C1053 1.491 . S
C1048 H1039 0.950 . S
C1048 C1047 1.398 . S
C1048 C1049 1.391 . S
C1049 H1037 0.950 . S
C1049 C1045 1.393 . S
C1049 C1048 1.391 . S
C1050 H1040 0.950 . S
C1050 C1051 1.386 . S
C1050 C1052 1.391 . S
C1051 C1050 1.386 . S
C1051 C1055 1.393 . S
C1052 H1041 0.950 . S
C1052 C1050 1.391 . S
C1052 C1053 1.400 . S
C1053 C1047 1.491 . S
C1053 C1052 1.400 . S
C1053 C1054 1.398 . S
C1054 H1042 0.950 . S
C1054 C1053 1.398 . S
C1054 C1055 1.391 . S
C1055 H1043 0.950 . S
C1055 C1051 1.393 . S
C1055 C1054 1.391 . S
H1056 C1064 0.950 . S
H1057 C1069 0.950 . S
H1058 C1066 0.950 . S
H1059 C1068 0.950 . S
H1060 C1070 0.950 . S
H1061 C1072 0.950 . S
H1062 C1074 0.950 . S
H1063 C1075 0.950 . S
C1064 H1056 0.950 . S
C1064 C1065 1.386 . S
C1064 C1066 1.391 . S
C1065 C1064 1.386 . S
C1065 C1069 1.393 . S
C1066 H1058 0.950 . S
C1066 C1064 1.391 . S
C1066 C1067 1.400 . S
C1067 C1066 1.400 . S
C1067 C1068 1.398 . S
C1067 C1073 1.491 . S
C1068 H1059 0.950 . S
C1068 C1067 1.398 . S
C1068 C1069 1.391 . S
C1069 H1057 0.950 . S
C1069 C1065 1.393 . S
C1069 C1068 1.391 . S
C1070 H1060 0.950 . S
C1070 C1071 1.386 . S
C1070 C1072 1.391 . S
C1071 C1070 1.386 . S
C1071 C1075 1.393 . S
C1072 H1061 0.950 . S
C1072 C1070 1.391 . S
C1072 C1073 1.400 . S
C1073 C1067 1.491 . S
C1073 C1072 1.400 . S
C1073 C1074 1.398 . S
C1074 H1062 0.950 . S
C1074 C1073 1.398 . S
C1074 C1075 1.391 . S
C1075 H1063 0.950 . S
C1075 C1071 1.393 . S
C1075 C1074 1.391 . S
H1076 C1084 0.950 . S
H1077 C1089 0.950 . S
H1078 C1086 0.950 . S
H1079 C1088 0.950 . S
H1080 C1090 0.950 . S
H1081 C1092 0.950 . S
H1082 C1094 0.950 . S
H1083 C1095 0.950 . S
C1084 H1076 0.950 . S
C1084 C1085 1.386 . S
C1084 C1086 1.391 . S
C1085 C1084 1.386 . S
C1085 C1089 1.393 . S
C1086 H1078 0.950 . S
C1086 C1084 1.391 . S
C1086 C1087 1.400 . S
C1087 C1086 1.400 . S
C1087 C1088 1.398 . S
C1087 C1093 1.491 . S
C1088 H1079 0.950 . S
C1088 C1087 1.398 . S
C1088 C1089 1.391 . S
C1089 H1077 0.950 . S
C1089 C1085 1.393 . S
C1089 C1088 1.391 . S
C1090 H1080 0.950 . S
C1090 C1091 1.386 . S
C1090 C1092 1.391 . S
C1091 C1090 1.386 . S
C1091 C1095 1.393 . S
C1092 H1081 0.950 . S
C1092 C1090 1.391 . S
C1092 C1093 1.400 . S
C1093 C1087 1.491 . S
C1093 C1092 1.400 . S
C1093 C1094 1.398 . S
C1094 H1082 0.950 . S
C1094 C1093 1.398 . S
C1094 C1095 1.391 . S
C1095 H1083 0.950 . S
C1095 C1091 1.393 . S
C1095 C1094 1.391 . S
H1096 C1104 0.950 . S
H1097 C1109 0.950 . S
H1098 C1106 0.950 . S
H1099 C1108 0.950 . S
H1100 C1110 0.950 . S
H1101 C1112 0.950 . S
H1102 C1114 0.950 . S
H1103 C1115 0.950 . S
C1104 H1096 0.950 . S
C1104 C1105 1.386 . S
C1104 C1106 1.391 . S
C1105 C1104 1.386 . S
C1105 C1109 1.393 . S
C1106 H1098 0.950 . S
C1106 C1104 1.391 . S
C1106 C1107 1.400 . S
C1107 C1106 1.400 . S
C1107 C1108 1.398 . S
C1107 C1113 1.491 . S
C1108 H1099 0.950 . S
C1108 C1107 1.398 . S
C1108 C1109 1.391 . S
C1109 H1097 0.950 . S
C1109 C1105 1.393 . S
C1109 C1108 1.391 . S
C1110 H1100 0.950 . S
C1110 C1111 1.386 . S
C1110 C1112 1.391 . S
C1111 C1110 1.386 . S
C1111 C1115 1.393 . S
C1112 H1101 0.950 . S
C1112 C1110 1.391 . S
C1112 C1113 1.400 . S
C1113 C1107 1.491 . S
C1113 C1112 1.400 . S
C1113 C1114 1.398 . S
C1114 H1102 0.950 . S
C1114 C1113 1.398 . S
C1114 C1115 1.391 . S
C1115 H1103 0.950 . S
C1115 C1111 1.393 . S
C1115 C1114 1.391 . S
H1116 C1124 0.950 . S
H1117 C1129 0.950 . S
H1118 C1126 0.950 . S
H1119 C1128 0.950 . S
H1120 C1130 0.950 . S
H1121 C1132 0.950 . S
H1122 C1134 0.950 . S
H1123 C1135 0.950 . S
C1124 H1116 0.950 . S
C1124 C1125 1.386 . S
C1124 C1126 1.391 . S
C1125 C1124 1.386 . S
C1125 C1129 1.393 . S
C1126 H1118 0.950 . S
C1126 C1124 1.391 . S
C1126 C1127 1.400 . S
C1127 C1126 1.400 . S
C1127 C1128 1.398 . S
C1127 C1133 1.491 . S
C1128 H1119 0.950 . S
C1128 C1127 1.398 . S
C1128 C1129 1.391 . S
C1129 H1117 0.950 . S
C1129 C1125 1.393 . S
C1129 C1128 1.391 . S
C1130 H1120 0.950 . S
C1130 C1131 1.386 . S
C1130 C1132 1.391 . S
C1131 C1130 1.386 . S
C1131 C1135 1.393 . S
C1132 H1121 0.950 . S
C1132 C1130 1.391 . S
C1132 C1133 1.400 . S
C1133 C1127 1.491 . S
C1133 C1132 1.400 . S
C1133 C1134 1.398 . S
C1134 H1122 0.950 . S
C1134 C1133 1.398 . S
C1134 C1135 1.391 . S
C1135 H1123 0.950 . S
C1135 C1131 1.393 . S
C1135 C1134 1.391 . S
H1136 C1144 0.950 . S
H1137 C1149 0.950 . S
H1138 C1146 0.950 . S
H1139 C1148 0.950 . S
H1140 C1150 0.950 . S
H1141 C1152 0.950 . S
H1142 C1154 0.950 . S
H1143 C1155 0.950 . S
C1144 H1136 0.950 . S
C1144 C1145 1.386 . S
C1144 C1146 1.391 . S
C1145 C1144 1.386 . S
C1145 C1149 1.393 . S
C1146 H1138 0.950 . S
C1146 C1144 1.391 . S
C1146 C1147 1.400 . S
C1147 C1146 1.400 . S
C1147 C1148 1.398 . S
C1147 C1153 1.491 . S
C1148 H1139 0.950 . S
C1148 C1147 1.398 . S
C1148 C1149 1.391 . S
C1149 H1137 0.950 . S
C1149 C1145 1.393 . S
C1149 C1148 1.391 . S
C1150 H1140 0.950 . S
C1150 C1151 1.386 . S
C1150 C1152 1.391 . S
C1151 C1150 1.386 . S
C1151 C1155 1.393 . S
C1152 H1141 0.950 . S
C1152 C1150 1.391 . S
C1152 C1153 1.400 . S
C1153 C1147 1.491 . S
C1153 C1152 1.400 . S
C1153 C1154 1.398 . S
C1154 H1142 0.950 . S
C1154 C1153 1.398 . S
C1154 C1155 1.391 . S
C1155 H1143 0.950 . S
C1155 C1151 1.393 . S
C1155 C1154 1.391 . S
H1156 C1164 0.950 . S
H1157 C1169 0.950 . S
H1158 C1166 0.950 . S
H1159 C1168 0.950 . S
H1160 C1170 0.950 . S
H1161 C1172 0.950 . S
H1162 C1174 0.950 . S
H1163 C1175 0.950 . S
C1164 H1156 0.950 . S
C1164 C1165 1.386 . S
C1164 C1166 1.391 . S
C1165 C1164 1.386 . S
C1165 C1169 1.393 . S
C1166 H1158 0.950 . S
C1166 C1164 1.391 . S
C1166 C1167 1.400 . S
C1167 C1166 1.400 . S
C1167 C1168 1.398 . S
C1167 C1173 1.491 . S
C1168 H1159 0.950 . S
C1168 C1167 1.398 . S
C1168 C1169 1.391 . S
C1169 H1157 0.950 . S
C1169 C1165 1.393 . S
C1169 C1168 1.391 . S
C1170 H1160 0.950 . S
C1170 C1171 1.386 . S
C1170 C1172 1.391 . S
C1171 C1170 1.386 . S
C1171 C1175 1.393 . S
C1172 H1161 0.950 . S
C1172 C1170 1.391 . S
C1172 C1173 1.400 . S
C1173 C1167 1.491 . S
C1173 C1172 1.400 . S
C1173 C1174 1.398 . S
C1174 H1162 0.950 . S
C1174 C1173 1.398 . S
C1174 C1175 1.391 . S
C1175 H1163 0.950 . S
C1175 C1171 1.393 . S
C1175 C1174 1.391 . S
H1176 C1184 0.950 . S
H1177 C1189 0.950 . S
H1178 C1186 0.950 . S
H1179 C1188 0.950 . S
H1180 C1190 0.950 . S
H1181 C1192 0.950 . S
H1182 C1194 0.950 . S
H1183 C1195 0.950 . S
C1184 H1176 0.950 . S
C1184 C1185 1.386 . S
C1184 C1186 1.391 . S
C1185 C1184 1.386 . S
C1185 C1189 1.393 . S
C1186 H1178 0.950 . S
C1186 C1184 1.391 . S
C1186 C1187 1.400 . S
C1187 C1186 1.400 . S
C1187 C1188 1.398 . S
C1187 C1193 1.491 . S
C1188 H1179 0.950 . S
C1188 C1187 1.398 . S
C1188 C1189 1.391 . S
C1189 H1177 0.950 . S
C1189 C1185 1.393 . S
C1189 C1188 1.391 . S
C1190 H1180 0.950 . S
C1190 C1191 1.386 . S
C1190 C1192 1.391 . S
C1191 C1190 1.386 . S
C1191 C1195 1.393 . S
C1192 H1181 0.950 . S
C1192 C1190 1.391 . S
C1192 C1193 1.400 . S
C1193 C1187 1.491 . S
C1193 C1192 1.400 . S
C1193 C1194 1.398 . S
C1194 H1182 0.950 . S
C1194 C1193 1.398 . S
C1194 C1195 1.391 . S
C1195 H1183 0.950 . S
C1195 C1191 1.393 . S
C1195 C1194 1.391 . S
H1196 C1204 0.950 . S
H1197 C1209 0.950 . S
H1198 C1206 0.950 . S
H1199 C1208 0.950 . S
H1200 C1210 0.950 . S
H1201 C1212 0.950 . S
H1202 C1214 0.950 . S
H1203 C1215 0.950 . S
C1204 H1196 0.950 . S
C1204 C1205 1.386 . S
C1204 C1206 1.391 . S
C1205 C1204 1.386 . S
C1205 C1209 1.393 . S
C1206 H1198 0.950 . S
C1206 C1204 1.391 . S
C1206 C1207 1.400 . S
C1207 C1206 1.400 . S
C1207 C1208 1.398 . S
C1207 C1213 1.491 . S
C1208 H1199 0.950 . S
C1208 C1207 1.398 . S
C1208 C1209 1.391 . S
C1209 H1197 0.950 . S
C1209 C1205 1.393 . S
C1209 C1208 1.391 . S
C1210 H1200 0.950 . S
C1210 C1211 1.386 . S
C1210 C1212 1.391 . S
C1211 C1210 1.386 . S
C1211 C1215 1.393 . S
C1212 H1201 0.950 . S
C1212 C1210 1.391 . S
C1212 C1213 1.400 . S
C1213 C1207 1.491 . S
C1213 C1212 1.400 . S
C1213 C1214 1.398 . S
C1214 H1202 0.950 . S
C1214 C1213 1.398 . S
C1214 C1215 1.391 . S
C1215 H1203 0.950 . S
C1215 C1211 1.393 . S
C1215 C1214 1.391 . S
H1216 C1224 0.950 . S
H1217 C1229 0.950 . S
H1218 C1226 0.950 . S
H1219 C1228 0.950 . S
H1220 C1230 0.950 . S
H1221 C1232 0.950 . S
H1222 C1234 0.950 . S
H1223 C1235 0.950 . S
C1224 H1216 0.950 . S
C1224 C1225 1.386 . S
C1224 C1226 1.391 . S
C1225 C1224 1.386 . S
C1225 C1229 1.393 . S
C1226 H1218 0.950 . S
C1226 C1224 1.391 . S
C1226 C1227 1.400 . S
C1227 C1226 1.400 . S
C1227 C1228 1.398 . S
C1227 C1233 1.491 . S
C1228 H1219 0.950 . S
C1228 C1227 1.398 . S
C1228 C1229 1.391 . S
C1229 H1217 0.950 . S
C1229 C1225 1.393 . S
C1229 C1228 1.391 . S
C1230 H1220 0.950 . S
C1230 C1231 1.386 . S
C1230 C1232 1.391 . S
C1231 C1230 1.386 . S
C1231 C1235 1.393 . S
C1232 H1221 0.950 . S
C1232 C1230 1.391 . S
C1232 C1233 1.400 . S
C1233 C1227 1.491 . S
C1233 C1232 1.400 . S
C1233 C1234 1.398 . S
C1234 H1222 0.950 . S
C1234 C1233 1.398 . S
C1234 C1235 1.391 . S
C1235 H1223 0.950 . S
C1235 C1231 1.393 . S
C1235 C1234 1.391 . S
H1236 C1244 0.950 . S
H1237 C1249 0.950 . S
H1238 C1246 0.950 . S
H1239 C1248 0.950 . S
H1240 C1250 0.950 . S
H1241 C1252 0.950 . S
H1242 C1254 0.950 . S
H1243 C1255 0.950 . S
C1244 H1236 0.950 . S
C1244 C1245 1.386 . S
C1244 C1246 1.391 . S
C1245 C1244 1.386 . S
C1245 C1249 1.393 . S
C1246 H1238 0.950 . S
C1246 C1244 1.391 . S
C1246 C1247 1.400 . S
C1247 C1246 1.400 . S
C1247 C1248 1.398 . S
C1247 C1253 1.491 . S
C1248 H1239 0.950 . S
C1248 C1247 1.398 . S
C1248 C1249 1.391 . S
C1249 H1237 0.950 . S
C1249 C1245 1.393 . S
C1249 C1248 1.391 . S
C1250 H1240 0.950 . S
C1250 C1251 1.386 . S
C1250 C1252 1.391 . S
C1251 C1250 1.386 . S
C1251 C1255 1.393 . S
C1252 H1241 0.950 . S
C1252 C1250 1.391 . S
C1252 C1253 1.400 . S
C1253 C1247 1.491 . S
C1253 C1252 1.400 . S
C1253 C1254 1.398 . S
C1254 H1242 0.950 . S
C1254 C1253 1.398 . S
C1254 C1255 1.391 . S
C1255 H1243 0.950 . S
C1255 C1251 1.393 . S
C1255 C1254 1.391 . S
H1256 C1264 0.950 . S
H1257 C1269 0.950 . S
H1258 C1266 0.950 . S
H1259 C1268 0.950 . S
H1260 C1270 0.950 . S
H1261 C1272 0.950 . S
H1262 C1274 0.950 . S
H1263 C1275 0.950 . S
C1264 H1256 0.950 . S
C1264 C1265 1.386 . S
C1264 C1266 1.391 . S
C1265 C1264 1.386 . S
C1265 C1269 1.393 . S
C1266 H1258 0.950 . S
C1266 C1264 1.391 . S
C1266 C1267 1.400 . S
C1267 C1266 1.400 . S
C1267 C1268 1.398 . S
C1267 C1273 1.491 . S
C1268 H1259 0.950 . S
C1268 C1267 1.398 . S
C1268 C1269 1.391 . S
C1269 H1257 0.950 . S
C1269 C1265 1.393 . S
C1269 C1268 1.391 . S
C1270 H1260 0.950 . S
C1270 C1271 1.386 . S
C1270 C1272 1.391 . S
C1271 C1270 1.386 . S
C1271 C1275 1.393 . S
C1272 H1261 0.950 . S
C1272 C1270 1.391 . S
C1272 C1273 1.400 . S
C1273 C1267 1.491 . S
C1273 C1272 1.400 . S
C1273 C1274 1.398 . S
C1274 H1262 0.950 . S
C1274 C1273 1.398 . S
C1274 C1275 1.391 . S
C1275 H1263 0.950 . S
C1275 C1271 1.393 . S
C1275 C1274 1.391 . S
H1276 C1284 0.950 . S
H1277 C1289 0.950 . S
H1278 C1286 0.950 . S
H1279 C1288 0.950 . S
H1280 C1290 0.950 . S
H1281 C1292 0.950 . S
H1282 C1294 0.950 . S
H1283 C1295 0.950 . S
C1284 H1276 0.950 . S
C1284 C1285 1.386 . S
C1284 C1286 1.391 . S
C1285 C1284 1.386 . S
C1285 C1289 1.393 . S
C1286 H1278 0.950 . S
C1286 C1284 1.391 . S
C1286 C1287 1.400 . S
C1287 C1286 1.400 . S
C1287 C1288 1.398 . S
C1287 C1293 1.491 . S
C1288 H1279 0.950 . S
C1288 C1287 1.398 . S
C1288 C1289 1.391 . S
C1289 H1277 0.950 . S
C1289 C1285 1.393 . S
C1289 C1288 1.391 . S
C1290 H1280 0.950 . S
C1290 C1291 1.386 . S
C1290 C1292 1.391 . S
C1291 C1290 1.386 . S
C1291 C1295 1.393 . S
C1292 H1281 0.950 . S
C1292 C1290 1.391 . S
C1292 C1293 1.400 . S
C1293 C1287 1.491 . S
C1293 C1292 1.400 . S
C1293 C1294 1.398 . S
C1294 H1282 0.950 . S
C1294 C1293 1.398 . S
C1294 C1295 1.391 . S
C1295 H1283 0.950 . S
C1295 C1291 1.393 . S
C1295 C1294 1.391 . S
C345 C203 1.466 . S
C351 C11 1.451 . S
C365 C21 1.466 . S
C371 C221 1.451 . S
C385 C260 1.506 . S
C391 C36 1.502 . S
C405 C55 1.300 . S
C411 C195 1.279 . S
C425 C209 1.301 . S
C431 C69 1.270 . S
C445 C78 1.485 . S
C451 C218 1.481 . S
C465 C91 1.466 . S
C471 C263 1.454 . S
C485 C109 1.455 . S
C491 C189 1.466 . S
C505 C133 1.469 . S
C511 C123 1.446 . S
C525 C153 1.269 . S
C531 C139 1.301 . S
C545 C147 1.468 . S
C551 C165 1.456 . S
C565 C162 1.485 . S
C571 C120 1.481 . S
C585 C179 1.448 . S
C591 C49 1.467 . S
C605 C63 1.468 . S
C611 C235 1.455 . S
C625 C251 1.277 . S
C631 C27 1.301 . S
C645 C25 1.251 . S
C651 C307 1.195 . S
C665 C137 1.242 . S
C671 C13 1.211 . S
C685 C330 1.266 . S
C691 C50 1.238 . S
C705 C161 1.276 . S
C711 C35 1.279 . S
C725 C301 1.278 . S
C731 C105 1.275 . S
C745 C134 1.239 . S
C751 C92 1.264 . S
C765 C83 1.195 . S
C771 C333 1.250 . S
C785 C67 1.242 . S
C791 C167 1.223 . S
C805 C223 1.196 . S
C811 C277 1.249 . S
C825 C231 1.278 . S
C831 C217 1.275 . S
C845 C193 1.242 . S
C851 C237 1.210 . S
C865 C274 1.253 . S
C871 C190 1.247 . S
C885 C41 1.207 . S
C891 C291 1.243 . S
C905 C151 1.241 . S
C911 C111 1.220 . S
C925 C7 1.274 . S
C931 C315 1.273 . S
C945 C273 1.467 . S
C951 C39 1.457 . S
C965 C8 1.507 . S
C971 C232 1.506 . S
C985 C279 1.269 . S
C991 C97 1.293 . S
C1005 C176 1.491 . S
C1011 C106 1.496 . S
C1025 C81 1.447 . S
C1031 C245 1.469 . S
C1045 C305 1.441 . S
C1051 C287 1.469 . S
C1065 C335 1.273 . S
C1071 C293 1.302 . S
C1085 C319 1.457 . S
C1091 C329 1.467 . S
C1105 C302 1.498 . S
C1111 C316 1.503 . S
C1125 C125 1.226 . S
C1131 C53 1.245 . S
C1145 C22 1.245 . S
C1151 C148 1.255 . S
C1165 C77 1.280 . S
C1171 C119 1.280 . S
C1185 C288 1.242 . S
C1191 C64 1.260 . S
C1205 C95 1.254 . S
C1211 C321 1.203 . S
C1225 C181 1.212 . S
C1231 C207 1.242 . S
C1245 C259 1.276 . S
C1251 C175 1.279 . S
C1265 C249 1.248 . S
C1271 C265 1.223 . S
C1285 C204 1.238 . S
C1291 C246 1.267 . S
