# Generated by pormake.
# Topology som, (6)-cn, num edge types: 1
# Building blocks:
#     Node 0, Type 0, BuildingBlock: BETFEN_clean_sbu_0, # of connection points: 6
#     Node 1, Type 0, BuildingBlock: BETFEN_clean_sbu_0, # of connection points: 6
#     Node 2, Type 0, BuildingBlock: BETFEN_clean_sbu_0, # of connection points: 6
#     Node 3, Type 0, BuildingBlock: BETFEN_clean_sbu_0, # of connection points: 6
#     Node 4, Type 0, BuildingBlock: BETFEN_clean_sbu_0, # of connection points: 6
#     Node 5, Type 0, BuildingBlock: BETFEN_clean_sbu_0, # of connection points: 6
#     Node 6, Type 0, BuildingBlock: BETFEN_clean_sbu_0, # of connection points: 6
#     Node 7, Type 0, BuildingBlock: BETFEN_clean_sbu_0, # of connection points: 6
#     Node 8, Type 0, BuildingBlock: BETFEN_clean_sbu_0, # of connection points: 6
#     Node 9, Type 0, BuildingBlock: BETFEN_clean_sbu_0, # of connection points: 6
#     Node 10, Type 0, BuildingBlock: BETFEN_clean_sbu_0, # of connection points: 6
#     Node 11, Type 0, BuildingBlock: BETFEN_clean_sbu_0, # of connection points: 6
#     Node 12, Type 0, BuildingBlock: BETFEN_clean_sbu_0, # of connection points: 6
#     Node 13, Type 0, BuildingBlock: BETFEN_clean_sbu_0, # of connection points: 6
#     Node 14, Type 0, BuildingBlock: BETFEN_clean_sbu_0, # of connection points: 6
#     Node 15, Type 0, BuildingBlock: BETFEN_clean_sbu_0, # of connection points: 6
#     Node 16, Type 0, BuildingBlock: BETFEN_clean_sbu_0, # of connection points: 6
#     Node 17, Type 0, BuildingBlock: BETFEN_clean_sbu_0, # of connection points: 6
#     Node 18, Type 0, BuildingBlock: BETFEN_clean_sbu_0, # of connection points: 6
#     Node 19, Type 0, BuildingBlock: BETFEN_clean_sbu_0, # of connection points: 6
#     Node 20, Type 0, BuildingBlock: BETFEN_clean_sbu_0, # of connection points: 6
#     Node 21, Type 0, BuildingBlock: BETFEN_clean_sbu_0, # of connection points: 6
#     Node 22, Type 0, BuildingBlock: BETFEN_clean_sbu_0, # of connection points: 6
#     Node 23, Type 0, BuildingBlock: BETFEN_clean_sbu_0, # of connection points: 6
#     Node 24, Type 0, BuildingBlock: BETFEN_clean_sbu_0, # of connection points: 6
#     Node 25, Type 0, BuildingBlock: BETFEN_clean_sbu_0, # of connection points: 6
#     Node 26, Type 0, BuildingBlock: BETFEN_clean_sbu_0, # of connection points: 6
#     Node 27, Type 0, BuildingBlock: BETFEN_clean_sbu_0, # of connection points: 6
#     Node 28, Type 0, BuildingBlock: BETFEN_clean_sbu_0, # of connection points: 6
#     Node 29, Type 0, BuildingBlock: BETFEN_clean_sbu_0, # of connection points: 6
#     Node 30, Type 0, BuildingBlock: BETFEN_clean_sbu_0, # of connection points: 6
#     Node 31, Type 0, BuildingBlock: BETFEN_clean_sbu_0, # of connection points: 6
#     Edge 32, Type (0, 0), BuildingBlock: ZUJKAS_clean_linker_0, # of connection points: 2
#     Edge 33, Type (0, 0), BuildingBlock: ZUJKAS_clean_linker_0, # of connection points: 2
#     Edge 34, Type (0, 0), BuildingBlock: ZUJKAS_clean_linker_0, # of connection points: 2
#     Edge 35, Type (0, 0), BuildingBlock: ZUJKAS_clean_linker_0, # of connection points: 2
#     Edge 36, Type (0, 0), BuildingBlock: ZUJKAS_clean_linker_0, # of connection points: 2
#     Edge 37, Type (0, 0), BuildingBlock: ZUJKAS_clean_linker_0, # of connection points: 2
#     Edge 38, Type (0, 0), BuildingBlock: ZUJKAS_clean_linker_0, # of connection points: 2
#     Edge 39, Type (0, 0), BuildingBlock: ZUJKAS_clean_linker_0, # of connection points: 2
#     Edge 40, Type (0, 0), BuildingBlock: ZUJKAS_clean_linker_0, # of connection points: 2
#     Edge 41, Type (0, 0), BuildingBlock: ZUJKAS_clean_linker_0, # of connection points: 2
#     Edge 42, Type (0, 0), BuildingBlock: ZUJKAS_clean_linker_0, # of connection points: 2
#     Edge 43, Type (0, 0), BuildingBlock: ZUJKAS_clean_linker_0, # of connection points: 2
#     Edge 44, Type (0, 0), BuildingBlock: ZUJKAS_clean_linker_0, # of connection points: 2
#     Edge 45, Type (0, 0), BuildingBlock: ZUJKAS_clean_linker_0, # of connection points: 2
#     Edge 46, Type (0, 0), BuildingBlock: ZUJKAS_clean_linker_0, # of connection points: 2
#     Edge 47, Type (0, 0), BuildingBlock: ZUJKAS_clean_linker_0, # of connection points: 2
#     Edge 48, Type (0, 0), BuildingBlock: ZUJKAS_clean_linker_0, # of connection points: 2
#     Edge 49, Type (0, 0), BuildingBlock: ZUJKAS_clean_linker_0, # of connection points: 2
#     Edge 50, Type (0, 0), BuildingBlock: ZUJKAS_clean_linker_0, # of connection points: 2
#     Edge 51, Type (0, 0), BuildingBlock: ZUJKAS_clean_linker_0, # of connection points: 2
#     Edge 52, Type (0, 0), BuildingBlock: ZUJKAS_clean_linker_0, # of connection points: 2
#     Edge 53, Type (0, 0), BuildingBlock: ZUJKAS_clean_linker_0, # of connection points: 2
#     Edge 54, Type (0, 0), BuildingBlock: ZUJKAS_clean_linker_0, # of connection points: 2
#     Edge 55, Type (0, 0), BuildingBlock: ZUJKAS_clean_linker_0, # of connection points: 2
#     Edge 56, Type (0, 0), BuildingBlock: ZUJKAS_clean_linker_0, # of connection points: 2
#     Edge 57, Type (0, 0), BuildingBlock: ZUJKAS_clean_linker_0, # of connection points: 2
#     Edge 58, Type (0, 0), BuildingBlock: ZUJKAS_clean_linker_0, # of connection points: 2
#     Edge 59, Type (0, 0), BuildingBlock: ZUJKAS_clean_linker_0, # of connection points: 2
#     Edge 60, Type (0, 0), BuildingBlock: ZUJKAS_clean_linker_0, # of connection points: 2
#     Edge 61, Type (0, 0), BuildingBlock: ZUJKAS_clean_linker_0, # of connection points: 2
#     Edge 62, Type (0, 0), BuildingBlock: ZUJKAS_clean_linker_0, # of connection points: 2
#     Edge 63, Type (0, 0), BuildingBlock: ZUJKAS_clean_linker_0, # of connection points: 2
#     Edge 64, Type (0, 0), BuildingBlock: ZUJKAS_clean_linker_0, # of connection points: 2
#     Edge 65, Type (0, 0), BuildingBlock: ZUJKAS_clean_linker_0, # of connection points: 2
#     Edge 66, Type (0, 0), BuildingBlock: ZUJKAS_clean_linker_0, # of connection points: 2
#     Edge 67, Type (0, 0), BuildingBlock: ZUJKAS_clean_linker_0, # of connection points: 2
#     Edge 68, Type (0, 0), BuildingBlock: ZUJKAS_clean_linker_0, # of connection points: 2
#     Edge 69, Type (0, 0), BuildingBlock: ZUJKAS_clean_linker_0, # of connection points: 2
#     Edge 70, Type (0, 0), BuildingBlock: ZUJKAS_clean_linker_0, # of connection points: 2
#     Edge 71, Type (0, 0), BuildingBlock: ZUJKAS_clean_linker_0, # of connection points: 2
#     Edge 72, Type (0, 0), BuildingBlock: ZUJKAS_clean_linker_0, # of connection points: 2
#     Edge 73, Type (0, 0), BuildingBlock: ZUJKAS_clean_linker_0, # of connection points: 2
#     Edge 74, Type (0, 0), BuildingBlock: ZUJKAS_clean_linker_0, # of connection points: 2
#     Edge 75, Type (0, 0), BuildingBlock: ZUJKAS_clean_linker_0, # of connection points: 2
#     Edge 76, Type (0, 0), BuildingBlock: ZUJKAS_clean_linker_0, # of connection points: 2
#     Edge 77, Type (0, 0), BuildingBlock: ZUJKAS_clean_linker_0, # of connection points: 2
#     Edge 78, Type (0, 0), BuildingBlock: ZUJKAS_clean_linker_0, # of connection points: 2
#     Edge 79, Type (0, 0), BuildingBlock: ZUJKAS_clean_linker_0, # of connection points: 2
#     Edge 80, Type (0, 0), BuildingBlock: ZUJKAS_clean_linker_0, # of connection points: 2
#     Edge 81, Type (0, 0), BuildingBlock: ZUJKAS_clean_linker_0, # of connection points: 2
#     Edge 82, Type (0, 0), BuildingBlock: ZUJKAS_clean_linker_0, # of connection points: 2
#     Edge 83, Type (0, 0), BuildingBlock: ZUJKAS_clean_linker_0, # of connection points: 2
#     Edge 84, Type (0, 0), BuildingBlock: ZUJKAS_clean_linker_0, # of connection points: 2
#     Edge 85, Type (0, 0), BuildingBlock: ZUJKAS_clean_linker_0, # of connection points: 2
#     Edge 86, Type (0, 0), BuildingBlock: ZUJKAS_clean_linker_0, # of connection points: 2
#     Edge 87, Type (0, 0), BuildingBlock: ZUJKAS_clean_linker_0, # of connection points: 2
#     Edge 88, Type (0, 0), BuildingBlock: ZUJKAS_clean_linker_0, # of connection points: 2
#     Edge 89, Type (0, 0), BuildingBlock: ZUJKAS_clean_linker_0, # of connection points: 2
#     Edge 90, Type (0, 0), BuildingBlock: ZUJKAS_clean_linker_0, # of connection points: 2
#     Edge 91, Type (0, 0), BuildingBlock: ZUJKAS_clean_linker_0, # of connection points: 2
#     Edge 92, Type (0, 0), BuildingBlock: ZUJKAS_clean_linker_0, # of connection points: 2
#     Edge 93, Type (0, 0), BuildingBlock: ZUJKAS_clean_linker_0, # of connection points: 2
#     Edge 94, Type (0, 0), BuildingBlock: ZUJKAS_clean_linker_0, # of connection points: 2
#     Edge 95, Type (0, 0), BuildingBlock: ZUJKAS_clean_linker_0, # of connection points: 2
#     Edge 96, Type (0, 0), BuildingBlock: ZUJKAS_clean_linker_0, # of connection points: 2
#     Edge 97, Type (0, 0), BuildingBlock: ZUJKAS_clean_linker_0, # of connection points: 2
#     Edge 98, Type (0, 0), BuildingBlock: ZUJKAS_clean_linker_0, # of connection points: 2
#     Edge 99, Type (0, 0), BuildingBlock: ZUJKAS_clean_linker_0, # of connection points: 2
#     Edge 100, Type (0, 0), BuildingBlock: ZUJKAS_clean_linker_0, # of connection points: 2
#     Edge 101, Type (0, 0), BuildingBlock: ZUJKAS_clean_linker_0, # of connection points: 2
#     Edge 102, Type (0, 0), BuildingBlock: ZUJKAS_clean_linker_0, # of connection points: 2
#     Edge 103, Type (0, 0), BuildingBlock: ZUJKAS_clean_linker_0, # of connection points: 2
#     Edge 104, Type (0, 0), BuildingBlock: ZUJKAS_clean_linker_0, # of connection points: 2
#     Edge 105, Type (0, 0), BuildingBlock: ZUJKAS_clean_linker_0, # of connection points: 2
#     Edge 106, Type (0, 0), BuildingBlock: ZUJKAS_clean_linker_0, # of connection points: 2
#     Edge 107, Type (0, 0), BuildingBlock: ZUJKAS_clean_linker_0, # of connection points: 2
#     Edge 108, Type (0, 0), BuildingBlock: ZUJKAS_clean_linker_0, # of connection points: 2
#     Edge 109, Type (0, 0), BuildingBlock: ZUJKAS_clean_linker_0, # of connection points: 2
#     Edge 110, Type (0, 0), BuildingBlock: ZUJKAS_clean_linker_0, # of connection points: 2
#     Edge 111, Type (0, 0), BuildingBlock: ZUJKAS_clean_linker_0, # of connection points: 2
#     Edge 112, Type (0, 0), BuildingBlock: ZUJKAS_clean_linker_0, # of connection points: 2
#     Edge 113, Type (0, 0), BuildingBlock: ZUJKAS_clean_linker_0, # of connection points: 2
#     Edge 114, Type (0, 0), BuildingBlock: ZUJKAS_clean_linker_0, # of connection points: 2
#     Edge 115, Type (0, 0), BuildingBlock: ZUJKAS_clean_linker_0, # of connection points: 2
#     Edge 116, Type (0, 0), BuildingBlock: ZUJKAS_clean_linker_0, # of connection points: 2
#     Edge 117, Type (0, 0), BuildingBlock: ZUJKAS_clean_linker_0, # of connection points: 2
#     Edge 118, Type (0, 0), BuildingBlock: ZUJKAS_clean_linker_0, # of connection points: 2
#     Edge 119, Type (0, 0), BuildingBlock: ZUJKAS_clean_linker_0, # of connection points: 2
#     Edge 120, Type (0, 0), BuildingBlock: ZUJKAS_clean_linker_0, # of connection points: 2
#     Edge 121, Type (0, 0), BuildingBlock: ZUJKAS_clean_linker_0, # of connection points: 2
#     Edge 122, Type (0, 0), BuildingBlock: ZUJKAS_clean_linker_0, # of connection points: 2
#     Edge 123, Type (0, 0), BuildingBlock: ZUJKAS_clean_linker_0, # of connection points: 2
#     Edge 124, Type (0, 0), BuildingBlock: ZUJKAS_clean_linker_0, # of connection points: 2
#     Edge 125, Type (0, 0), BuildingBlock: ZUJKAS_clean_linker_0, # of connection points: 2
#     Edge 126, Type (0, 0), BuildingBlock: ZUJKAS_clean_linker_0, # of connection points: 2
#     Edge 127, Type (0, 0), BuildingBlock: ZUJKAS_clean_linker_0, # of connection points: 2
# Relax obj value: 0.068
# Max RMSD: 0.129
# Mean RMSD: 0.129
data_MOF--net-som--node1-BETFEN_clean_sbu_0--edge1-ZUJKAS_clean_linker_0
_symmetry_space_group_name_H-M    P1
_symmetry_Int_Tables_number       1
_symmetry_cell_setting            triclinic
loop_
_symmetry_equiv_pos_as_xyz
'x, y, z'
_cell_length_a     30.777506
_cell_length_b     73.474038
_cell_length_c     147.62505
_cell_angle_alpha  89.963309
_cell_angle_beta   90.032123
_cell_angle_gamma 89.952108
loop_
_atom_site_label
_atom_site_type_symbol
_atom_site_fract_x
_atom_site_fract_y
_atom_site_fract_z
_atom_type_partial_charge
Pr0 Pr 0.99473 0.5007 0.07589 0.0
Pr1 Pr 0.0922 0.48321 0.07782 0.0
C2 C 0.91236 0.50972 0.07136 0.0
C3 C 0.866 0.50484 0.07246 0.0
C4 C 0.84867 0.49951 0.08086 0.0
C5 C 0.80399 0.49616 0.08177 0.0
C6 C 0.77575 0.49801 0.0743 0.0
C7 C 0.79356 0.50301 0.06588 0.0
C8 C 0.8381 0.5064 0.06498 0.0
C9 C 0.03241 0.50056 0.09317 0.0
C10 C 1.00599 0.4557 0.07878 0.0
C11 C 0.16996 0.47384 0.08486 0.0
C12 C 0.21725 0.4762 0.08363 0.0
C13 C 0.23535 0.48028 0.07514 0.0
C14 C 0.28048 0.48226 0.07418 0.0
C15 C 0.30836 0.48026 0.0817 0.0
C16 C 0.28979 0.47627 0.09019 0.0
C17 C 0.2448 0.47429 0.09113 0.0
C18 C 0.07095 0.48777 0.05941 0.0
C19 C 0.07732 0.52749 0.07349 0.0
O20 O 0.93661 0.49894 0.06643 0.0
O21 O 0.93281 0.51655 0.07836 0.0
O22 O 0.03491 0.48796 0.08741 0.0
O23 O 1.00729 0.51361 0.0903 0.0
O24 O 0.04863 0.45719 0.07993 0.0
O25 O 0.98059 0.46974 0.07697 0.0
O26 O 0.14796 0.48815 0.08754 0.0
O27 O 0.1492 0.46386 0.0789 0.0
O28 O 0.04793 0.4917 0.06619 0.0
O29 O 0.10762 0.48086 0.06214 0.0
O30 O 0.03789 0.52395 0.07046 0.0
O31 O 0.1012 0.51513 0.07777 0.0
H32 H 0.86953 0.49813 0.08673 0.0
H33 H 0.79157 0.49209 0.08832 0.0
H34 H 0.77291 0.50482 0.06 0.0
H35 H 0.85069 0.51058 0.05845 0.0
H36 H 0.21462 0.48194 0.06926 0.0
H37 H 0.29347 0.48556 0.06757 0.0
H38 H 0.3101 0.47438 0.09611 0.0
H39 H 0.23147 0.47114 0.09775 0.0
Pr40 Pr 0.28936 0.74141 0.0766 0.0
Pr41 Pr 0.19222 0.75885 0.07807 0.0
C42 C 0.3716 0.73208 0.07227 0.0
C43 C 0.41801 0.73603 0.07397 0.0
C44 C 0.44671 0.72149 0.07542 0.0
C45 C 0.49133 0.72457 0.07634 0.0
C46 C 0.50838 0.7423 0.07581 0.0
C47 C 0.47936 0.75694 0.07458 0.0
C48 C 0.43462 0.75384 0.07367 0.0
C49 C 0.25133 0.74181 0.09387 0.0
C50 C 0.27859 0.7863 0.07954 0.0
C51 C 0.11325 0.76842 0.08434 0.0
C52 C 0.06611 0.7666 0.08248 0.0
C53 C 0.04044 0.7823 0.08163 0.0
C54 C 0.99537 0.78097 0.08052 0.0
C55 C 0.9748 0.76387 0.08028 0.0
C56 C 1.00074 0.74813 0.08099 0.0
C57 C 0.04584 0.74947 0.08207 0.0
C58 C 0.2149 0.75425 0.05973 0.0
C59 C 0.20702 0.71467 0.07398 0.0
O60 O 0.34888 0.74416 0.06776 0.0
O61 O 0.34958 0.72401 0.07871 0.0
O62 O 0.24838 0.75423 0.088 0.0
O63 O 0.27747 0.729 0.09115 0.0
O64 O 0.23585 0.78478 0.08052 0.0
O65 O 0.30406 0.77228 0.07775 0.0
O66 O 0.13417 0.75382 0.08703 0.0
O67 O 0.1361 0.77887 0.07893 0.0
O68 O 0.23738 0.75031 0.06659 0.0
O69 O 0.17813 0.7612 0.06233 0.0
O70 O 0.24629 0.71836 0.07093 0.0
O71 O 0.18315 0.72696 0.07828 0.0
H72 H 0.43467 0.70764 0.07568 0.0
H73 H 0.51251 0.713 0.07745 0.0
H74 H 0.49131 0.77076 0.07407 0.0
H75 H 0.4132 0.76533 0.07255 0.0
H76 H 0.05521 0.79567 0.08195 0.0
H77 H 0.97666 0.79338 0.07984 0.0
H78 H 0.98612 0.73473 0.08096 0.0
H79 H 0.06467 0.73708 0.08274 0.0
Pr80 Pr 1.00586 0.74098 0.19937 0.0
Pr81 Pr 0.10431 0.75717 0.19727 0.0
C82 C 0.9238 0.73283 0.20438 0.0
C83 C 0.87748 0.73746 0.20301 0.0
C84 C 0.85915 0.73903 0.19432 0.0
C85 C 0.81449 0.74222 0.19329 0.0
C86 C 0.78732 0.74396 0.20092 0.0
C87 C 0.8061 0.74273 0.20959 0.0
C88 C 0.85062 0.73949 0.21061 0.0
C89 C 0.04084 0.74166 0.18182 0.0
C90 C 0.01982 0.78579 0.19671 0.0
C91 C 0.18232 0.76598 0.19026 0.0
C92 C 0.22956 0.76396 0.19163 0.0
C93 C 0.24805 0.76314 0.20032 0.0
C94 C 0.29317 0.7614 0.20136 0.0
C95 C 0.32055 0.76034 0.19373 0.0
C96 C 0.30166 0.76108 0.18506 0.0
C97 C 0.25669 0.76287 0.18403 0.0
C98 C 0.08397 0.75233 0.21572 0.0
C99 C 0.08661 0.71308 0.20116 0.0
O100 O 0.94792 0.74466 0.2087 0.0
O101 O 0.94433 0.72448 0.19781 0.0
O102 O 0.04589 0.75369 0.18781 0.0
O103 O 1.01382 0.72921 0.18456 0.0
O104 O 0.0621 0.78369 0.19525 0.0
O105 O 0.99369 0.7721 0.19869 0.0
O106 O 0.16089 0.7513 0.18792 0.0
O107 O 0.16097 0.77654 0.19588 0.0
O108 O 0.0604 0.74891 0.20896 0.0
O109 O 0.12089 0.75888 0.21295 0.0
O110 O 0.04819 0.7172 0.20454 0.0
O111 O 0.11069 0.72516 0.19677 0.0
H112 H 0.87917 0.73759 0.18833 0.0
H113 H 0.80124 0.74333 0.18651 0.0
H114 H 0.78618 0.74375 0.21561 0.0
H115 H 0.86399 0.73823 0.21737 0.0
H116 H 0.22766 0.76383 0.20629 0.0
H117 H 0.30655 0.76066 0.20814 0.0
H118 H 0.3217 0.76056 0.17903 0.0
H119 H 0.24306 0.7635 0.17727 0.0
Pr120 Pr 0.29211 0.49846 0.19676 0.0
Pr121 Pr 0.19468 0.48109 0.19498 0.0
C122 C 0.37447 0.50713 0.20134 0.0
C123 C 0.42089 0.50237 0.20014 0.0
C124 C 0.44054 0.50181 0.19155 0.0
C125 C 0.48534 0.49869 0.19072 0.0
C126 C 0.51143 0.4961 0.19846 0.0
C127 C 0.49133 0.49625 0.20702 0.0
C128 C 0.44667 0.49939 0.20784 0.0
C129 C 0.2531 0.49934 0.17963 0.0
C130 C 0.28086 0.45373 0.19302 0.0
C131 C 0.11674 0.47204 0.188 0.0
C132 C 0.06944 0.47434 0.18926 0.0
C133 C 0.05022 0.4741 0.19789 0.0
C134 C 1.00506 0.47588 0.19882 0.0
C135 C 0.97826 0.47795 0.19114 0.0
C136 C 0.9979 0.47842 0.18254 0.0
C137 C 0.04294 0.47663 0.18162 0.0
C138 C 0.21735 0.48482 0.21336 0.0
C139 C 0.20948 0.52511 0.19974 0.0
O140 O 0.35039 0.49596 0.20609 0.0
O141 O 0.35373 0.51462 0.19453 0.0
O142 O 0.25106 0.48642 0.18523 0.0
O143 O 0.27852 0.51221 0.18257 0.0
O144 O 0.23798 0.45518 0.19243 0.0
O145 O 0.30666 0.46767 0.19476 0.0
O146 O 0.13863 0.48641 0.18539 0.0
O147 O 0.13777 0.46178 0.19383 0.0
O148 O 0.2398 0.48901 0.20655 0.0
O149 O 0.18044 0.47806 0.21069 0.0
O150 O 0.24918 0.52144 0.20258 0.0
O151 O 0.18528 0.51295 0.19543 0.0
H152 H 0.42152 0.5041 0.18548 0.0
H153 H 0.49969 0.49883 0.18402 0.0
H154 H 0.51014 0.49399 0.21312 0.0
H155 H 0.43233 0.49977 0.21454 0.0
H156 H 0.07003 0.47241 0.2039 0.0
H157 H 0.99111 0.4753 0.20555 0.0
H158 H 0.97851 0.48033 0.17649 0.0
H159 H 0.05712 0.47696 0.1749 0.0
Pr160 Pr 0.94086 0.5084 0.94612 0.0
Pr161 Pr 0.03894 0.49136 0.94796 0.0
C162 C 0.86249 0.51726 0.93924 0.0
C163 C 0.81524 0.51546 0.94066 0.0
C164 C 0.79683 0.51489 0.94936 0.0
C165 C 0.75171 0.51317 0.95041 0.0
C166 C 0.72426 0.5119 0.94279 0.0
C167 C 0.74308 0.51246 0.93411 0.0
C168 C 0.78802 0.51422 0.93307 0.0
C169 C 0.96321 0.50446 0.96451 0.0
C170 C 0.95696 0.46431 0.95057 0.0
C171 C 0.12116 0.48306 0.95281 0.0
C172 C 0.16745 0.48779 0.9515 0.0
C173 C 0.18602 0.48937 0.94284 0.0
C174 C 0.23065 0.49267 0.94187 0.0
C175 C 0.25757 0.49451 0.94954 0.0
C176 C 0.23856 0.49327 0.95818 0.0
C177 C 0.19407 0.48992 0.95914 0.0
C178 C 1.00111 0.49096 0.93068 0.0
C179 C 0.02679 0.53604 0.94427 0.0
O180 O 0.88354 0.50242 0.93699 0.0
O181 O 0.88429 0.52791 0.94475 0.0
O182 O 0.98591 0.50044 0.9577 0.0
O183 O 0.92626 0.51116 0.96182 0.0
O184 O 0.99632 0.46809 0.95356 0.0
O185 O 0.93271 0.47647 0.94626 0.0
O186 O 0.09698 0.49464 0.95729 0.0
O187 O 0.1006 0.475 0.94615 0.0
O188 O 0.99783 0.5035 0.93646 0.0
O189 O 0.02776 0.47838 0.93348 0.0
O190 O 0.98392 0.53447 0.94359 0.0
O191 O 0.05277 0.52218 0.94607 0.0
H192 H 0.81729 0.5157 0.95532 0.0
H193 H 0.73839 0.51259 0.9572 0.0
H194 H 0.723 0.51179 0.9281 0.0
H195 H 0.80159 0.51465 0.9263 0.0
H196 H 0.1662 0.48786 0.93682 0.0
H197 H 0.24408 0.49377 0.93512 0.0
H198 H 0.25828 0.49437 0.96424 0.0
H199 H 0.18054 0.48865 0.96589 0.0
Pr200 Pr 0.84728 0.23242 0.94713 0.0
Pr201 Pr 0.75013 0.2496 0.94881 0.0
C202 C 0.92607 0.22339 0.94056 0.0
C203 C 0.97337 0.2255 0.94224 0.0
C204 C 0.99553 0.21423 0.94842 0.0
C205 C 0.04061 0.21575 0.94954 0.0
C206 C 0.06456 0.22855 0.9445 0.0
C207 C 0.04228 0.23984 0.93836 0.0
C208 C 0.99733 0.23828 0.93722 0.0
C209 C 0.82591 0.23717 0.96552 0.0
C210 C 0.83181 0.27662 0.95119 0.0
C211 C 0.66758 0.25843 0.95315 0.0
C212 C 0.62133 0.2539 0.95139 0.0
C213 C 0.59599 0.26533 0.94587 0.0
C214 C 0.55144 0.26222 0.94481 0.0
C215 C 0.53094 0.24768 0.94931 0.0
C216 C 0.55651 0.23602 0.95469 0.0
C217 C 0.60113 0.23911 0.95573 0.0
C218 C 0.78722 0.24896 0.93144 0.0
C219 C 0.7615 0.20467 0.94611 0.0
O220 O 0.90464 0.23797 0.93801 0.0
O221 O 0.90366 0.21272 0.94595 0.0
O222 O 0.80284 0.24098 0.95873 0.0
O223 O 0.86258 0.23027 0.96282 0.0
O224 O 0.79282 0.27284 0.95435 0.0
O225 O 0.85558 0.26437 0.94684 0.0
O226 O 0.69098 0.24677 0.95778 0.0
O227 O 0.68945 0.2666 0.94671 0.0
O228 O 0.7904 0.23666 0.93736 0.0
O229 O 0.76123 0.26181 0.93417 0.0
O230 O 0.8041 0.20627 0.94493 0.0
O231 O 0.73604 0.21866 0.94793 0.0
H232 H 0.97819 0.20412 0.95234 0.0
H233 H 0.05669 0.20694 0.95438 0.0
H234 H 0.05973 0.24963 0.93426 0.0
H235 H 0.9814 0.24695 0.9323 0.0
H236 H 0.61045 0.27693 0.9425 0.0
H237 H 0.53299 0.27132 0.9405 0.0
H238 H 0.54183 0.22482 0.95834 0.0
H239 H 0.61952 0.23012 0.96011 0.0
Pr240 Pr 0.94269 0.23144 0.82836 0.0
Pr241 Pr 0.0404 0.24868 0.82667 0.0
C242 C 0.86435 0.22237 0.83514 0.0
C243 C 0.81707 0.22427 0.83372 0.0
C244 C 0.79843 0.2243 0.82504 0.0
C245 C 0.7533 0.22606 0.82399 0.0
C246 C 0.72606 0.22793 0.83161 0.0
C247 C 0.7451 0.22794 0.84027 0.0
C248 C 0.79005 0.22613 0.84131 0.0
C249 C 0.96492 0.2359 0.80999 0.0
C250 C 0.9581 0.27568 0.82415 0.0
C251 C 0.12265 0.25717 0.82196 0.0
C252 C 0.16897 0.25237 0.82326 0.0
C253 C 0.18803 0.25142 0.8319 0.0
C254 C 0.23269 0.2481 0.83284 0.0
C255 C 0.25918 0.24562 0.82515 0.0
C256 C 0.23971 0.24624 0.81653 0.0
C257 C 0.19519 0.24961 0.81561 0.0
C258 C 1.00255 0.24858 0.84395 0.0
C259 C 0.02889 0.20386 0.83004 0.0
O260 O 0.88543 0.23708 0.83755 0.0
O261 O 0.88616 0.2119 0.82954 0.0
O262 O 0.98763 0.23978 0.81682 0.0
O263 O 0.9281 0.22906 0.81264 0.0
O264 O 0.99761 0.27206 0.8212 0.0
O265 O 0.93399 0.26336 0.82838 0.0
O266 O 0.09854 0.24579 0.81734 0.0
O267 O 0.10196 0.26499 0.82867 0.0
O268 O 0.99948 0.23616 0.8381 0.0
O269 O 0.02893 0.2613 0.84121 0.0
O270 O 0.98601 0.20536 0.83075 0.0
O271 O 0.05463 0.21782 0.82831 0.0
H272 H 0.8187 0.22301 0.81908 0.0
H273 H 0.73981 0.2262 0.81721 0.0
H274 H 0.72518 0.22909 0.84629 0.0
H275 H 0.80378 0.22611 0.84807 0.0
H276 H 0.1686 0.25344 0.83793 0.0
H277 H 0.24648 0.24749 0.83958 0.0
H278 H 0.2591 0.24465 0.81047 0.0
H279 H 0.18133 0.2504 0.80887 0.0
Pr280 Pr 0.84529 0.50723 0.82791 0.0
Pr281 Pr 0.74728 0.49018 0.82597 0.0
C282 C 0.92369 0.51603 0.83477 0.0
C283 C 0.97091 0.51418 0.83328 0.0
C284 C 0.98893 0.51335 0.82455 0.0
C285 C 0.034 0.51154 0.82342 0.0
C286 C 0.06179 0.51041 0.831 0.0
C287 C 0.04335 0.51124 0.83971 0.0
C288 C 0.99846 0.5131 0.84083 0.0
C289 C 0.82328 0.50331 0.80951 0.0
C290 C 0.8293 0.46306 0.82358 0.0
C291 C 0.66513 0.48197 0.82104 0.0
C292 C 0.61882 0.48678 0.8223 0.0
C293 C 0.6001 0.48852 0.83094 0.0
C294 C 0.55546 0.49191 0.83185 0.0
C295 C 0.52867 0.49369 0.82416 0.0
C296 C 0.54783 0.49227 0.81553 0.0
C297 C 0.59232 0.48883 0.81463 0.0
C298 C 0.78452 0.48996 0.84332 0.0
C299 C 0.75918 0.53486 0.82965 0.0
O300 O 0.90266 0.50121 0.83703 0.0
O301 O 0.90179 0.52673 0.82929 0.0
O302 O 0.80054 0.49924 0.8163 0.0
O303 O 0.86013 0.51002 0.81222 0.0
O304 O 0.79009 0.46684 0.8205 0.0
O305 O 0.85338 0.47526 0.8279 0.0
O306 O 0.68948 0.49349 0.81657 0.0
O307 O 0.68549 0.47391 0.82774 0.0
O308 O 0.78801 0.50242 0.8375 0.0
O309 O 0.75788 0.47738 0.84052 0.0
O310 O 0.80203 0.53331 0.83044 0.0
O311 O 0.73342 0.52101 0.82775 0.0
H312 H 0.96822 0.51404 0.81863 0.0
H313 H 0.04702 0.51075 0.81662 0.0
H314 H 0.06369 0.51068 0.84569 0.0
H315 H 0.98519 0.51373 0.84762 0.0
H316 H 0.6198 0.48708 0.83697 0.0
H317 H 0.54192 0.49315 0.83859 0.0
H318 H 0.52823 0.49331 0.80946 0.0
H319 H 0.60597 0.48744 0.8079 0.0
Pr320 Pr 0.99744 -0.00317 0.57674 0.0
Pr321 Pr 0.09546 0.97992 0.57855 0.0
C322 C 0.91537 0.00521 0.57182 0.0
C323 C 0.86889 0.00066 0.57298 0.0
C324 C 0.84955 -0.00084 0.58157 0.0
C325 C 0.80471 -0.00385 0.58237 0.0
C326 C 0.77835 0.99461 0.5746 0.0
C327 C 0.79818 -0.00432 0.56603 0.0
C328 C 0.84286 -0.00131 0.56524 0.0
C329 C 0.03538 -0.00251 0.59402 0.0
C330 C 1.0096 0.9523 0.58069 0.0
C331 C 0.17387 0.97101 0.58538 0.0
C332 C 0.22114 0.97244 0.58392 0.0
C333 C 0.23928 0.97327 0.57521 0.0
C334 C 0.28446 0.97452 0.5741 0.0
C335 C 0.31226 0.97498 0.5817 0.0
C336 C 0.29364 0.97431 0.5904 0.0
C337 C 0.24863 0.97305 0.59148 0.0
C338 C 0.0729 0.98369 0.56015 0.0
C339 C 0.07895 0.02398 0.57419 0.0
O340 O 0.9396 0.99363 0.56735 0.0
O341 O 0.93569 0.01314 0.57855 0.0
O342 O 0.03879 0.98487 0.58828 0.0
O343 O 1.00866 0.01001 0.59117 0.0
O344 O 0.05245 0.95393 0.58136 0.0
O345 O 0.98359 0.96607 0.57875 0.0
O346 O 0.15334 0.98605 0.58751 0.0
O347 O 0.15166 0.96027 0.58 0.0
O348 O 0.05025 0.98773 0.56696 0.0
O349 O 0.10989 0.97704 0.56284 0.0
O350 O 0.03994 0.02002 0.57108 0.0
O351 O 0.10321 0.0119 0.57856 0.0
H352 H 0.86887 0.00062 0.58766 0.0
H353 H 0.79054 -0.00446 0.58907 0.0
H354 H 0.77914 0.99422 0.5599 0.0
H355 H 0.85705 -0.00023 0.55854 0.0
H356 H 0.21859 0.97289 0.56927 0.0
H357 H 0.29764 0.97486 0.56731 0.0
H358 H 0.31383 0.97498 0.5964 0.0
H359 H 0.23522 0.97257 0.59827 0.0
Pr360 Pr 0.28633 0.23924 0.57621 0.0
Pr361 Pr 0.19579 0.2562 0.57707 0.0
C362 C 0.36924 0.22957 0.57245 0.0
C363 C 0.41572 0.2345 0.57332 0.0
C364 C 0.4344 0.23939 0.58166 0.0
C365 C 0.47923 0.24266 0.58232 0.0
C366 C 0.50628 0.24115 0.57465 0.0
C367 C 0.48716 0.23657 0.5663 0.0
C368 C 0.44249 0.23328 0.56565 0.0
C369 C 0.25051 0.24083 0.59369 0.0
C370 C 0.27819 0.28378 0.57866 0.0
C371 C 0.11269 0.26572 0.5808 0.0
C372 C 0.06603 0.26189 0.57912 0.0
C373 C 0.0391 0.27589 0.57589 0.0
C374 C 0.9942 0.2733 0.57507 0.0
C375 C 0.97499 0.25664 0.57752 0.0
C376 C 1.00216 0.24247 0.58059 0.0
C377 C 0.04716 0.24505 0.58138 0.0
C378 C 0.23007 0.25462 0.55951 0.0
C379 C 0.20671 0.21118 0.57433 0.0
O380 O 0.34523 0.23925 0.56694 0.0
O381 O 0.34841 0.22421 0.5797 0.0
O382 O 0.24846 0.25333 0.58785 0.0
O383 O 0.27376 0.22728 0.5908 0.0
O384 O 0.23758 0.28152 0.58134 0.0
O385 O 0.30072 0.27021 0.57523 0.0
O386 O 0.13501 0.25403 0.58561 0.0
O387 O 0.13536 0.2732 0.5743 0.0
O388 O 0.23272 0.242 0.56531 0.0
O389 O 0.20777 0.26825 0.56262 0.0
O390 O 0.24703 0.21413 0.5718 0.0
O391 O 0.18212 0.22448 0.57754 0.0
H392 H 0.41451 0.24049 0.58768 0.0
H393 H 0.4927 0.24638 0.58884 0.0
H394 H 0.50689 0.23501 0.56028 0.0
H395 H 0.42893 0.22939 0.55916 0.0
H396 H 0.05268 0.28907 0.5742 0.0
H397 H 0.97437 0.2846 0.5728 0.0
H398 H 0.98861 0.22938 0.58243 0.0
H399 H 0.06698 0.23397 0.5839 0.0
Pr400 Pr 0.99938 0.24179 0.69865 0.0
Pr401 Pr 0.09663 0.25916 0.69692 0.0
C402 C 0.91708 0.23336 0.70335 0.0
C403 C 0.87071 0.23818 0.70195 0.0
C404 C 0.84862 0.23364 0.69392 0.0
C405 C 0.80393 0.2369 0.69308 0.0
C406 C 0.78024 0.24471 0.70025 0.0
C407 C 0.80264 0.24956 0.7082 0.0
C408 C 0.84723 0.24628 0.70905 0.0
C409 C 0.03703 0.24167 0.68135 0.0
C410 C 1.01021 0.28653 0.69502 0.0
C411 C 0.17508 0.26815 0.69018 0.0
C412 C 0.22245 0.26632 0.69164 0.0
C413 C 0.24247 0.27139 0.69982 0.0
C414 C 0.28769 0.27004 0.70082 0.0
C415 C 0.31379 0.26361 0.69366 0.0
C416 C 0.29339 0.25835 0.68554 0.0
C417 C 0.24834 0.25974 0.68454 0.0
C418 C 0.07457 0.25494 0.71531 0.0
C419 C 0.08159 0.21495 0.70122 0.0
O420 O 0.9412 0.24485 0.7079 0.0
O421 O 0.93801 0.22525 0.69675 0.0
O422 O 0.0401 0.25423 0.68714 0.0
O423 O 1.01086 0.22895 0.68417 0.0
O424 O 0.05311 0.28514 0.69434 0.0
O425 O 0.98472 0.27255 0.69685 0.0
O426 O 0.15406 0.25339 0.6878 0.0
O427 O 0.15291 0.2788 0.69563 0.0
O428 O 0.05185 0.25092 0.7085 0.0
O429 O 0.11128 0.26182 0.71262 0.0
O430 O 0.0423 0.21864 0.70425 0.0
O431 O 0.10549 0.22722 0.69691 0.0
H432 H 0.8656 0.22722 0.68835 0.0
H433 H 0.78772 0.23279 0.6869 0.0
H434 H 0.78566 0.25585 0.71381 0.0
H435 H 0.86326 0.24982 0.71534 0.0
H436 H 0.2233 0.27651 0.70542 0.0
H437 H 0.30225 0.27437 0.70714 0.0
H438 H 0.31221 0.25303 0.67994 0.0
H439 H 0.23366 0.25573 0.67818 0.0
Pr440 Pr 0.28932 -0.00015 0.69878 0.0
Pr441 Pr 0.19138 0.983 0.69698 0.0
C442 C 0.37152 0.00839 0.70353 0.0
C443 C 0.4179 0.00352 0.70242 0.0
C444 C 0.43792 0.00293 0.69387 0.0
C445 C 0.48267 -0.00034 0.69313 0.0
C446 C 0.50834 -0.00306 0.70092 0.0
C447 C 0.48786 -0.00289 0.70944 0.0
C448 C 0.44324 0.0004 0.71017 0.0
C449 C 0.25265 -0.00077 0.68137 0.0
C450 C 0.27688 0.95496 0.6961 0.0
C451 C 0.11321 0.97384 0.69015 0.0
C452 C 0.06594 0.97555 0.69158 0.0
C453 C 0.04744 0.97533 0.70027 0.0
C454 C 1.00228 0.97674 0.70134 0.0
C455 C 0.97481 0.97843 0.69374 0.0
C456 C 0.99375 0.97883 0.68507 0.0
C457 C 0.03876 0.97739 0.68401 0.0
C458 C 0.21312 0.98763 0.71537 0.0
C459 C 0.20763 0.02724 0.70093 0.0
O460 O 0.34711 -0.00273 0.70823 0.0
O461 O 0.35119 0.01592 0.69669 0.0
O462 O 0.24877 0.98703 0.68733 0.0
O463 O 0.27917 0.0119 0.68407 0.0
O464 O 0.23438 0.95677 0.69482 0.0
O465 O 0.30265 0.96883 0.69797 0.0
O466 O 0.13405 0.98865 0.68778 0.0
O467 O 0.13519 0.96334 0.69571 0.0
O468 O 0.23595 0.99138 0.70854 0.0
O469 O 0.17623 0.98087 0.7127 0.0
O470 O 0.2468 0.02347 0.70403 0.0
O471 O 0.18347 0.01496 0.6967 0.0
H472 H 0.41922 0.00532 0.68776 0.0
H473 H 0.49734 -0.00022 0.68646 0.0
H474 H 0.50636 -0.00524 0.71557 0.0
H475 H 0.4286 0.00079 0.71684 0.0
H476 H 0.06783 0.97399 0.70622 0.0
H477 H 0.98886 0.97623 0.70812 0.0
H478 H 0.97384 0.98045 0.67907 0.0
H479 H 0.05242 0.97771 0.67725 0.0
Pr480 Pr 0.94313 0.00623 0.44684 0.0
Pr481 Pr 0.04027 0.98884 0.44878 0.0
C482 C 0.8651 0.01532 0.43989 0.0
C483 C 0.81775 0.01306 0.44124 0.0
C484 C 0.79766 0.01672 0.44959 0.0
C485 C 0.75248 0.01511 0.45053 0.0
C486 C 0.72642 0.00978 0.44314 0.0
C487 C 0.74689 0.00589 0.43483 0.0
C488 C 0.79195 0.00755 0.4339 0.0
C489 C 0.96463 0.00222 0.46529 0.0
C490 C 0.958 0.96216 0.45143 0.0
C491 C 0.12281 0.98011 0.45326 0.0
C492 C 0.16916 0.98499 0.45189 0.0
C493 C 0.19049 0.98172 0.44363 0.0
C494 C 0.23519 0.98495 0.44276 0.0
C495 C 0.25966 0.99145 0.45014 0.0
C496 C 0.238 -0.00493 0.45834 0.0
C497 C 0.19339 0.99182 0.45921 0.0
C498 C 1.00221 0.98839 0.43151 0.0
C499 C 0.02911 0.03368 0.44545 0.0
O500 O 0.88696 0.00092 0.43728 0.0
O501 O 0.88645 0.02568 0.44561 0.0
O502 O 0.98753 -0.00192 0.45853 0.0
O503 O 0.92796 0.00907 0.46252 0.0
O504 O 0.99724 0.96585 0.45451 0.0
O505 O 0.93425 0.97435 0.44702 0.0
O506 O 0.09878 0.99125 0.45804 0.0
O507 O 0.10171 0.9725 0.44655 0.0
O508 O 1.00003 0.00119 0.43717 0.0
O509 O 0.02737 0.97544 0.43448 0.0
O510 O 0.98647 0.03211 0.44438 0.0
O511 O 0.05461 0.01974 0.44738 0.0
H512 H 0.81675 0.02098 0.45538 0.0
H513 H 0.73791 0.01839 0.457 0.0
H514 H 0.72812 0.00144 0.42904 0.0
H515 H 0.80669 0.00462 0.4274 0.0
H516 H 0.17292 0.97632 0.43787 0.0
H517 H 0.25078 0.98181 0.43638 0.0
H518 H 0.25555 0.00034 0.46413 0.0
H519 H 0.17794 0.99437 0.46568 0.0
Pr520 Pr 0.83527 0.73104 0.44609 0.0
Pr521 Pr 0.74461 0.74794 0.44751 0.0
C522 C 0.91768 0.72204 0.44152 0.0
C523 C 0.96442 0.72657 0.44253 0.0
C524 C 0.98551 0.72597 0.45098 0.0
C525 C 0.03054 0.72865 0.45159 0.0
C526 C 0.05556 0.73193 0.44377 0.0
C527 C 0.03409 0.73294 0.43536 0.0
C528 C 0.98915 0.73026 0.43475 0.0
C529 C 0.80307 0.73192 0.46383 0.0
C530 C 0.82442 0.77581 0.44963 0.0
C531 C 0.66181 0.75746 0.45145 0.0
C532 C 0.61518 0.75273 0.45039 0.0
C533 C 0.59436 0.75314 0.44191 0.0
C534 C 0.54938 0.75033 0.44124 0.0
C535 C 0.52414 0.74711 0.44904 0.0
C536 C 0.54536 0.74627 0.45748 0.0
C537 C 0.59022 0.74909 0.45814 0.0
C538 C 0.78005 0.74742 0.42999 0.0
C539 C 0.75284 0.7034 0.44447 0.0
O540 O 0.89348 0.733 0.43668 0.0
O541 O 0.89714 0.71502 0.44845 0.0
O542 O 0.79924 0.74465 0.45812 0.0
O543 O 0.82546 0.71849 0.46052 0.0
O544 O 0.78445 0.77262 0.45233 0.0
O545 O 0.84868 0.76279 0.44605 0.0
O546 O 0.68562 0.74718 0.45673 0.0
O547 O 0.683 0.76365 0.44441 0.0
O548 O 0.78142 0.73452 0.43561 0.0
O549 O 0.75784 0.76102 0.43317 0.0
O550 O 0.7936 0.70571 0.44192 0.0
O551 O 0.72994 0.71686 0.44791 0.0
H552 H 0.96743 0.72306 0.4571 0.0
H553 H 0.04592 0.7276 0.45817 0.0
H554 H 0.05205 0.73574 0.42921 0.0
H555 H 0.97379 0.73073 0.42815 0.0
H556 H 0.61257 0.75602 0.4358 0.0
H557 H 0.53421 0.75125 0.43464 0.0
H558 H 0.52724 0.74352 0.46362 0.0
H559 H 0.60532 0.74878 0.46477 0.0
Pr560 Pr 0.94874 0.73112 0.32863 0.0
Pr561 Pr 0.04545 0.74945 0.32713 0.0
C562 C 0.87067 0.72173 0.33547 0.0
C563 C 0.82326 0.72409 0.33426 0.0
C564 C 0.80371 0.72416 0.32566 0.0
C565 C 0.7585 0.72607 0.3248 0.0
C566 C 0.73196 0.72802 0.33252 0.0
C567 C 0.75192 0.72805 0.3411 0.0
C568 C 0.79698 0.72611 0.34195 0.0
C569 C 0.97213 0.73513 0.31032 0.0
C570 C 0.9618 0.77521 0.32368 0.0
C571 C 0.12805 0.75884 0.32309 0.0
C572 C 0.1744 0.75468 0.32485 0.0
C573 C 0.20354 0.76911 0.32617 0.0
C574 C 0.24804 0.76581 0.32723 0.0
C575 C 0.2646 0.74795 0.32697 0.0
C576 C 0.23519 0.73345 0.32579 0.0
C577 C 0.19053 0.73677 0.32476 0.0
C578 C 1.00514 0.74961 0.34415 0.0
C579 C 0.0363 0.70454 0.33062 0.0
O580 O 0.89259 0.73597 0.33825 0.0
O581 O 0.89172 0.71177 0.32953 0.0
O582 O 0.99416 0.73954 0.31718 0.0
O583 O 0.93548 0.72802 0.31291 0.0
O584 O 1.00184 0.77184 0.32098 0.0
O585 O 0.93802 0.76292 0.32802 0.0
O586 O 0.10545 0.74705 0.31839 0.0
O587 O 0.10571 0.76663 0.32957 0.0
O588 O 1.00446 0.73682 0.33848 0.0
O589 O 0.02985 0.76283 0.34134 0.0
O590 O 0.9933 0.70551 0.33116 0.0
O591 O 0.06128 0.71879 0.32898 0.0
H592 H 0.82332 0.72274 0.31961 0.0
H593 H 0.7444 0.72621 0.31808 0.0
H594 H 0.73263 0.72926 0.34721 0.0
H595 H 0.81134 0.72606 0.34866 0.0
H596 H 0.19193 0.78304 0.3262 0.0
H597 H 0.26964 0.77734 0.328 0.0
H598 H 0.24666 0.71952 0.32567 0.0
H599 H 0.16877 0.72536 0.32379 0.0
Pr600 Pr 0.85115 0.00634 0.32845 0.0
Pr601 Pr 0.75351 0.98948 0.3266 0.0
C602 C 0.92903 0.01529 0.33549 0.0
C603 C 0.97634 0.01307 0.33425 0.0
C604 C 0.99536 0.01226 0.32562 0.0
C605 C 0.04056 0.01061 0.3247 0.0
C606 C 0.06756 0.00973 0.33241 0.0
C607 C 0.04809 0.01031 0.34103 0.0
C608 C 1.00303 0.01197 0.34193 0.0
C609 C 0.82892 0.00284 0.31003 0.0
C610 C 0.83536 0.96246 0.32363 0.0
C611 C 0.67114 0.98094 0.32198 0.0
C612 C 0.6247 0.98564 0.32315 0.0
C613 C 0.60536 0.98698 0.33175 0.0
C614 C 0.56054 0.99004 0.33257 0.0
C615 C 0.53414 0.99179 0.32482 0.0
C616 C 0.55395 0.99089 0.31624 0.0
C617 C 0.59863 0.98781 0.31543 0.0
C618 C 0.79229 0.98844 0.34379 0.0
C619 C 0.7656 0.03412 0.33033 0.0
O620 O 0.90717 0.00086 0.33803 0.0
O621 O 0.90811 0.02559 0.32967 0.0
O622 O 0.80608 -0.0013 0.3168 0.0
O623 O 0.8659 0.00941 0.31277 0.0
O624 O 0.79593 0.96642 0.32073 0.0
O625 O 0.85978 0.97443 0.32802 0.0
O626 O 0.69526 0.99216 0.31726 0.0
O627 O 0.69174 0.97341 0.32879 0.0
O628 O 0.79453 0.00134 0.33818 0.0
O629 O 0.76671 0.97565 0.34082 0.0
O630 O 0.8084 0.03241 0.33099 0.0
O631 O 0.73944 0.02032 0.32854 0.0
H632 H 0.97535 0.01303 0.31959 0.0
H633 H 0.05438 0.01036 0.31796 0.0
H634 H 0.06765 0.00933 0.34711 0.0
H635 H 0.98897 0.01247 0.34865 0.0
H636 H 0.62466 0.98534 0.33783 0.0
H637 H 0.54641 0.99052 0.33928 0.0
H638 H 0.53489 0.9925 0.31012 0.0
H639 H 0.61276 0.98684 0.30872 0.0
Pr640 Pr 0.49391 0.49773 0.57644 0.0
Pr641 Pr 0.59205 0.48125 0.57823 0.0
C642 C 0.41162 0.5058 0.57158 0.0
C643 C 0.36536 0.5011 0.57303 0.0
C644 C 0.34543 0.50276 0.58155 0.0
C645 C 0.30079 0.49955 0.58254 0.0
C646 C 0.27519 0.49459 0.57503 0.0
C647 C 0.2955 0.49259 0.56655 0.0
C648 C 0.34 0.49586 0.56557 0.0
C649 C 0.5309 0.49779 0.5938 0.0
C650 C 0.5072 0.45304 0.5798 0.0
C651 C 0.67062 0.47254 0.58502 0.0
C652 C 0.71782 0.47448 0.58353 0.0
C653 C 0.73675 0.47213 0.57495 0.0
C654 C 0.78183 0.4738 0.57385 0.0
C655 C 0.80872 0.47797 0.58129 0.0
C656 C 0.78942 0.4804 0.58984 0.0
C657 C 0.74452 0.47865 0.59094 0.0
C658 C 0.57045 0.48584 0.55983 0.0
C659 C 0.57479 0.52527 0.57422 0.0
O660 O 0.4357 0.494 0.56722 0.0
O661 O 0.43242 0.51429 0.57808 0.0
O662 O 0.53494 0.48542 0.58795 0.0
O663 O 0.50396 0.51029 0.59104 0.0
O664 O 0.54994 0.45489 0.58058 0.0
O665 O 0.48083 0.46679 0.57803 0.0
O666 O 0.6494 0.48729 0.58734 0.0
O667 O 0.64873 0.46181 0.57957 0.0
O668 O 0.54724 0.4894 0.56662 0.0
O669 O 0.60751 0.4793 0.56253 0.0
O670 O 0.5361 0.52125 0.57096 0.0
O671 O 0.5988 0.51319 0.57864 0.0
H672 H 0.36411 0.50677 0.58744 0.0
H673 H 0.28631 0.501 0.58918 0.0
H674 H 0.27676 0.48903 0.5606 0.0
H675 H 0.3545 0.49464 0.55891 0.0
H676 H 0.71679 0.46901 0.56911 0.0
H677 H 0.79557 0.47204 0.56716 0.0
H678 H 0.80913 0.48336 0.59574 0.0
H679 H 0.73059 0.48046 0.59762 0.0
Pr680 Pr 0.79256 0.73872 0.57674 0.0
Pr681 Pr 0.69545 0.75691 0.57626 0.0
C682 C 0.87229 0.72733 0.57171 0.0
C683 C 0.91902 0.72919 0.57369 0.0
C684 C 0.93416 0.73972 0.58096 0.0
C685 C 0.97895 0.74157 0.58251 0.0
C686 C 1.00936 0.73291 0.5768 0.0
C687 C 0.9937 0.72239 0.56953 0.0
C688 C 0.94908 0.72056 0.56801 0.0
C689 C 0.75775 0.74233 0.59438 0.0
C690 C 0.7803 0.78343 0.57958 0.0
C691 C 0.61149 0.76711 0.57791 0.0
C692 C 0.56612 0.7611 0.57952 0.0
C693 C 0.54492 0.74916 0.57353 0.0
C694 C 0.50037 0.74568 0.57442 0.0
C695 C 0.47588 0.75405 0.58131 0.0
C696 C 0.49763 0.76542 0.58751 0.0
C697 C 0.54214 0.76894 0.5866 0.0
C698 C 0.74158 0.75645 0.55991 0.0
C699 C 0.70815 0.71164 0.57491 0.0
O700 O 0.8529 0.74151 0.56813 0.0
O701 O 0.84831 0.71863 0.57765 0.0
O702 O 0.74144 0.74687 0.58694 0.0
O703 O 0.7963 0.73566 0.5929 0.0
O704 O 0.73797 0.78163 0.581 0.0
O705 O 0.80514 0.76988 0.57678 0.0
O706 O 0.63876 0.7673 0.58474 0.0
O707 O 0.62965 0.76268 0.5702 0.0
O708 O 0.74063 0.74364 0.56564 0.0
O709 O 0.71755 0.77002 0.56255 0.0
O710 O 0.74999 0.7138 0.57327 0.0
O711 O 0.68202 0.72535 0.57705 0.0
H712 H 0.91138 0.74654 0.58541 0.0
H713 H 0.98974 0.74964 0.58821 0.0
H714 H 1.01596 0.71581 0.56489 0.0
H715 H 0.938 0.71249 0.56231 0.0
H716 H 0.56237 0.74294 0.56796 0.0
H717 H 0.48482 0.737 0.56946 0.0
H718 H 0.48012 0.77185 0.59301 0.0
H719 H 0.55758 0.77824 0.59129 0.0
Pr720 Pr 0.49848 0.74135 0.69815 0.0
Pr721 Pr 0.5956 0.75911 0.69656 0.0
C722 C 0.41602 0.73247 0.70256 0.0
C723 C 0.36968 0.73737 0.70132 0.0
C724 C 0.35068 0.73893 0.69269 0.0
C725 C 0.30602 0.74232 0.6918 0.0
C726 C 0.27943 0.74427 0.6995 0.0
C727 C 0.29885 0.74304 0.70812 0.0
C728 C 0.34337 0.7396 0.709 0.0
C729 C 0.53778 0.74113 0.68104 0.0
C730 C 0.50874 0.78618 0.69463 0.0
C731 C 0.67371 0.76848 0.68976 0.0
C732 C 0.72102 0.76614 0.69104 0.0
C733 C 0.74004 0.76538 0.69968 0.0
C734 C 0.78519 0.76342 0.70062 0.0
C735 C 0.81213 0.76208 0.69293 0.0
C736 C 0.79271 0.76275 0.6843 0.0
C737 C 0.74773 0.76476 0.68338 0.0
C738 C 0.57278 0.75492 0.7149 0.0
C739 C 0.58128 0.71486 0.70102 0.0
O740 O 0.44004 0.7434 0.70746 0.0
O741 O 0.43691 0.72527 0.6957 0.0
O742 O 0.53948 0.75387 0.68674 0.0
O743 O 0.51258 0.72808 0.68386 0.0
O744 O 0.55169 0.78495 0.69404 0.0
O745 O 0.48339 0.77209 0.69634 0.0
O746 O 0.65192 0.75419 0.687 0.0
O747 O 0.65254 0.77849 0.69566 0.0
O748 O 0.55041 0.75078 0.70806 0.0
O749 O 0.60955 0.76186 0.71228 0.0
O750 O 0.54158 0.71838 0.70389 0.0
O751 O 0.60535 0.7272 0.6968 0.0
H752 H 0.37016 0.73733 0.68664 0.0
H753 H 0.2923 0.74342 0.68506 0.0
H754 H 0.27942 0.74421 0.7142 0.0
H755 H 0.35716 0.73833 0.71573 0.0
H756 H 0.72005 0.7663 0.7057 0.0
H757 H 0.79892 0.76274 0.70736 0.0
H758 H 0.81237 0.76203 0.67823 0.0
H759 H 0.73375 0.76536 0.67664 0.0
Pr760 Pr 0.78833 0.49988 0.69816 0.0
Pr761 Pr 0.69075 0.48288 0.69642 0.0
C762 C 0.87083 0.50835 0.70272 0.0
C763 C 0.91712 0.50354 0.70123 0.0
C764 C 0.93868 0.50803 0.69313 0.0
C765 C 0.98332 0.50482 0.69219 0.0
C766 C 1.00747 0.49706 0.69932 0.0
C767 C 0.98562 0.49226 0.70734 0.0
C768 C 0.94107 0.49552 0.70828 0.0
C769 C 0.75144 0.49916 0.68078 0.0
C770 C 0.77633 0.45493 0.69556 0.0
C771 C 0.61229 0.47397 0.68966 0.0
C772 C 0.56503 0.476 0.69118 0.0
C773 C 0.54536 0.47132 0.69945 0.0
C774 C 0.50027 0.47298 0.70054 0.0
C775 C 0.47404 0.47945 0.69341 0.0
C776 C 0.49401 0.48422 0.68518 0.0
C777 C 0.53893 0.48247 0.68408 0.0
C778 C 0.71229 0.48751 0.7148 0.0
C779 C 0.7067 0.52709 0.70052 0.0
O780 O 0.84695 0.49688 0.70733 0.0
O781 O 0.84957 0.51643 0.69615 0.0
O782 O 0.7479 0.48697 0.68673 0.0
O783 O 0.77765 0.51196 0.68347 0.0
O784 O 0.73379 0.45662 0.69429 0.0
O785 O 0.80191 0.46888 0.69737 0.0
O786 O 0.63353 0.48863 0.68722 0.0
O787 O 0.63434 0.46332 0.69514 0.0
O788 O 0.73528 0.49132 0.708 0.0
O789 O 0.67552 0.48068 0.71211 0.0
O790 O 0.74584 0.52329 0.70362 0.0
O791 O 0.68267 0.51486 0.69622 0.0
H792 H 0.92129 0.5143 0.68756 0.0
H793 H 0.99898 0.50849 0.68588 0.0
H794 H 1.00322 0.4865 0.71301 0.0
H795 H 0.9255 0.49213 0.71465 0.0
H796 H 0.56471 0.46635 0.70506 0.0
H797 H 0.486 0.46937 0.707 0.0
H798 H 0.4748 0.48899 0.6795 0.0
H799 H 0.55333 0.48606 0.67762 0.0
Pr800 Pr 0.44112 0.50667 0.44696 0.0
Pr801 Pr 0.53224 0.4903 0.4479 0.0
C802 C 0.35797 0.51546 0.44291 0.0
C803 C 0.3114 0.51109 0.44421 0.0
C804 C 0.29162 0.51147 0.45279 0.0
C805 C 0.24669 0.50878 0.45366 0.0
C806 C 0.22062 0.50564 0.44597 0.0
C807 C 0.24078 0.50495 0.43742 0.0
C808 C 0.28556 0.50767 0.43656 0.0
C809 C 0.47566 0.50591 0.46451 0.0
C810 C 0.45364 0.46188 0.4502 0.0
C811 C 0.61528 0.48127 0.45184 0.0
C812 C 0.66167 0.48615 0.45069 0.0
C813 C 0.68173 0.48641 0.44213 0.0
C814 C 0.72655 0.48948 0.44137 0.0
C815 C 0.75225 0.49238 0.44914 0.0
C816 C 0.73181 0.49249 0.45766 0.0
C817 C 0.68713 0.48937 0.45842 0.0
C818 C 0.49596 0.49101 0.43043 0.0
C819 C 0.52268 0.5347 0.44474 0.0
O820 O 0.38127 0.50423 0.43806 0.0
O821 O 0.37955 0.52272 0.44964 0.0
O822 O 0.47891 0.49317 0.45879 0.0
O823 O 0.45258 0.51926 0.46133 0.0
O824 O 0.49379 0.46526 0.45271 0.0
O825 O 0.4285 0.47484 0.44683 0.0
O826 O 0.59147 0.49174 0.45702 0.0
O827 O 0.59407 0.4747 0.44489 0.0
O828 O 0.49375 0.5037 0.43616 0.0
O829 O 0.51988 0.47772 0.43342 0.0
O830 O 0.48148 0.53227 0.44253 0.0
O831 O 0.54641 0.52137 0.44807 0.0
H832 H 0.31067 0.5141 0.45882 0.0
H833 H 0.23236 0.50919 0.46035 0.0
H834 H 0.22178 0.50285 0.43134 0.0
H835 H 0.29991 0.5075 0.42986 0.0
H836 H 0.66301 0.48397 0.43604 0.0
H837 H 0.74111 0.48953 0.43469 0.0
H838 H 0.75056 0.49441 0.46379 0.0
H839 H 0.67259 0.48905 0.4651 0.0
Pr840 Pr 0.34292 0.23032 0.44577 0.0
Pr841 Pr 0.24622 0.24812 0.44739 0.0
C842 C 0.4214 0.2212 0.43906 0.0
C843 C 0.46884 0.22367 0.44053 0.0
C844 C 0.49255 0.21153 0.446 0.0
C845 C 0.53769 0.21326 0.4469 0.0
C846 C 0.56033 0.22712 0.44231 0.0
C847 C 0.53648 0.23933 0.43689 0.0
C848 C 0.49141 0.23758 0.43598 0.0
C849 C 0.32067 0.23435 0.46414 0.0
C850 C 0.32874 0.2744 0.4505 0.0
C851 C 0.16342 0.25724 0.45139 0.0
C852 C 0.11729 0.25239 0.44972 0.0
C853 C 0.09029 0.26465 0.44505 0.0
C854 C 0.04588 0.26111 0.44403 0.0
C855 C 0.02726 0.24528 0.44772 0.0
C856 C 0.05442 0.23287 0.45227 0.0
C857 C 0.09893 0.23636 0.45325 0.0
C858 C 0.28585 0.24849 0.4303 0.0
C859 C 0.25636 0.20328 0.44395 0.0
O860 O 0.39913 0.23537 0.43627 0.0
O861 O 0.39986 0.21086 0.44476 0.0
O862 O 0.29791 0.23857 0.45736 0.0
O863 O 0.35734 0.22742 0.46144 0.0
O864 O 0.28919 0.27078 0.4534 0.0
O865 O 0.35258 0.26221 0.44611 0.0
O866 O 0.18691 0.24621 0.45637 0.0
O867 O 0.18526 0.26468 0.44474 0.0
O868 O 0.28691 0.23564 0.43595 0.0
O869 O 0.26131 0.26169 0.4332 0.0
O870 O 0.29923 0.20454 0.44325 0.0
O871 O 0.23105 0.21737 0.44572 0.0
H872 H 0.47638 0.20048 0.44949 0.0
H873 H 0.55496 0.20344 0.45102 0.0
H874 H 0.55263 0.25031 0.43334 0.0
H875 H 0.47432 0.24705 0.43162 0.0
H876 H 0.10338 0.27722 0.44235 0.0
H877 H 0.02588 0.27108 0.44058 0.0
H878 H 0.04124 0.22044 0.45511 0.0
H879 H 0.11874 0.22662 0.45691 0.0
Pr880 Pr 0.45745 0.23162 0.3279 0.0
Pr881 Pr 0.54715 0.24917 0.32701 0.0
C882 C 0.37466 0.222 0.33184 0.0
C883 C 0.32789 0.22638 0.33046 0.0
C884 C 0.30359 0.21717 0.32382 0.0
C885 C 0.25863 0.21979 0.3231 0.0
C886 C 0.23664 0.23162 0.32904 0.0
C887 C 0.2611 0.24109 0.33557 0.0
C888 C 0.30609 0.23846 0.3363 0.0
C889 C 0.49181 0.23289 0.31035 0.0
C890 C 0.46651 0.27651 0.32453 0.0
C891 C 0.63026 0.25924 0.32372 0.0
C892 C 0.67681 0.25464 0.32522 0.0
C893 C 0.70135 0.26439 0.33161 0.0
C894 C 0.7462 0.26158 0.33243 0.0
C895 C 0.76788 0.24903 0.32682 0.0
C896 C 0.74312 0.23898 0.32055 0.0
C897 C 0.69821 0.24178 0.31974 0.0
C898 C 0.50984 0.24816 0.34435 0.0
C899 C 0.54058 0.20447 0.32966 0.0
O900 O 0.39793 0.23285 0.33693 0.0
O901 O 0.39656 0.21522 0.32504 0.0
O902 O 0.49422 0.24565 0.31607 0.0
O903 O 0.46981 0.21924 0.31354 0.0
O904 O 0.50691 0.27365 0.32201 0.0
O905 O 0.44256 0.26326 0.32798 0.0
O906 O 0.60751 0.24899 0.31824 0.0
O907 O 0.60766 0.26529 0.3306 0.0
O908 O 0.50971 0.23527 0.33872 0.0
O909 O 0.53152 0.26199 0.34127 0.0
O910 O 0.49958 0.20643 0.33211 0.0
O911 O 0.56311 0.21822 0.32641 0.0
H912 H 0.31917 0.20761 0.31928 0.0
H913 H 0.24104 0.21244 0.31791 0.0
H914 H 0.2453 0.25012 0.34034 0.0
H915 H 0.32358 0.24556 0.34159 0.0
H916 H 0.68602 0.27453 0.33588 0.0
H917 H 0.76395 0.26938 0.33743 0.0
H918 H 0.75862 0.22937 0.31603 0.0
H919 H 0.68052 0.23416 0.31466 0.0
Pr920 Pr 0.35013 0.50708 0.32651 0.0
Pr921 Pr 0.25206 0.49056 0.32465 0.0
C922 C 0.42853 0.51579 0.33334 0.0
C923 C 0.47579 0.51366 0.3319 0.0
C924 C 0.49587 0.51841 0.32369 0.0
C925 C 0.54099 0.51672 0.32269 0.0
C926 C 0.56682 0.51016 0.32986 0.0
C927 C 0.54644 0.50531 0.33804 0.0
C928 C 0.50149 0.50708 0.33904 0.0
C929 C 0.32864 0.50243 0.3081 0.0
C930 C 0.33301 0.46298 0.32258 0.0
C931 C 0.16968 0.48237 0.31993 0.0
C932 C 0.12348 0.48712 0.32153 0.0
C933 C 0.1025 0.4828 0.32971 0.0
C934 C 0.05794 0.48606 0.33077 0.0
C935 C 0.03337 0.49369 0.32367 0.0
C936 C 0.05464 0.49831 0.31556 0.0
C937 C 0.0991 0.495 0.3145 0.0
C938 C 0.2886 0.49098 0.34209 0.0
C939 C 0.26522 0.53536 0.32757 0.0
O940 O 0.40702 0.50118 0.33577 0.0
O941 O 0.40681 0.52647 0.32782 0.0
O942 O 0.30561 0.49881 0.3149 0.0
O943 O 0.3656 0.50908 0.31079 0.0
O944 O 0.29441 0.46701 0.31927 0.0
O945 O 0.35705 0.47511 0.32695 0.0
O946 O 0.19353 0.49417 0.31552 0.0
O947 O 0.19092 0.47383 0.32636 0.0
O948 O 0.29259 0.50316 0.33614 0.0
O949 O 0.26185 0.4784 0.33937 0.0
O950 O 0.30771 0.53341 0.32879 0.0
O951 O 0.2392 0.52161 0.32564 0.0
H952 H 0.47682 0.52346 0.31805 0.0
H953 H 0.5556 0.5204 0.31627 0.0
H954 H 0.56536 0.50047 0.34374 0.0
H955 H 0.48676 0.50345 0.34546 0.0
H956 H 0.12027 0.47667 0.33526 0.0
H957 H 0.04269 0.48254 0.33714 0.0
H958 H 0.03667 0.50397 0.30991 0.0
H959 H 0.11428 0.49826 0.30808 0.0
Pr960 Pr 0.49886 0.00033 0.07738 0.0
Pr961 Pr 0.59553 0.98244 0.07908 0.0
C962 C 0.41619 0.00914 0.07304 0.0
C963 C 0.36987 0.00428 0.07445 0.0
C964 C 0.34952 0.00621 0.08292 0.0
C965 C 0.30487 0.00293 0.08387 0.0
C966 C 0.27953 -0.00236 0.07637 0.0
C967 C 0.30021 -0.0046 0.06795 0.0
C968 C 0.34475 -0.00127 0.067 0.0
C969 C 0.53815 0.00096 0.09451 0.0
C970 C 0.50876 0.95548 0.08099 0.0
C971 C 0.67378 0.97332 0.08594 0.0
C972 C 0.72109 0.97579 0.08461 0.0
C973 C 0.74097 0.97338 0.07612 0.0
C974 C 0.78609 0.97535 0.07518 0.0
C975 C 0.81221 0.97985 0.0827 0.0
C976 C 0.79199 0.98238 0.09115 0.0
C977 C 0.74702 0.98034 0.09209 0.0
C978 C 0.57309 0.98623 0.0607 0.0
C979 C 0.5817 0.02655 0.0742 0.0
O980 O 0.44001 -0.00198 0.0682 0.0
O981 O 0.43752 0.01668 0.07975 0.0
O982 O 0.53963 0.988 0.08892 0.0
O983 O 0.51328 0.01401 0.09155 0.0
O984 O 0.55169 0.95664 0.08161 0.0
O985 O 0.48356 0.96963 0.07927 0.0
O986 O 0.65171 0.98758 0.08866 0.0
O987 O 0.65258 0.96311 0.08013 0.0
O988 O 0.55054 0.9906 0.06748 0.0
O989 O 0.60972 0.97926 0.06341 0.0
O990 O 0.54189 0.02304 0.0714 0.0
O991 O 0.60564 0.01431 0.07854 0.0
H992 H 0.3679 0.01049 0.0888 0.0
H993 H 0.29018 0.00457 0.09048 0.0
H994 H 0.28173 0.99159 0.062 0.0
H995 H 0.35943 -0.00268 0.06037 0.0
H996 H 0.72172 0.96995 0.07022 0.0
H997 H 0.80046 0.97351 0.06855 0.0
H998 H 0.81103 0.9856 0.09711 0.0
H999 H 0.73246 0.98219 0.09871 0.0
Pr1000 Pr 0.79289 0.24036 0.07683 0.0
Pr1001 Pr 0.69542 0.2577 0.0787 0.0
C1002 C 0.87544 0.23179 0.07232 0.0
C1003 C 0.92172 0.23659 0.07372 0.0
C1004 C 0.94049 0.23725 0.08241 0.0
C1005 C 0.98511 0.24051 0.08344 0.0
C1006 C 1.01192 0.24323 0.07582 0.0
C1007 C 0.99275 0.2429 0.06717 0.0
C1008 C 0.94826 0.23958 0.06614 0.0
C1009 C 0.75445 0.23978 0.09402 0.0
C1010 C 0.78146 0.28517 0.08037 0.0
C1011 C 0.61747 0.26659 0.08574 0.0
C1012 C 0.5702 0.26407 0.08448 0.0
C1013 C 0.55092 0.26425 0.07585 0.0
C1014 C 0.50582 0.26221 0.07491 0.0
C1015 C 0.47915 0.25985 0.08258 0.0
C1016 C 0.49882 0.25953 0.09119 0.0
C1017 C 0.54379 0.26162 0.09212 0.0
C1018 C 0.71727 0.25387 0.0603 0.0
C1019 C 0.7105 0.21365 0.07393 0.0
O1020 O 0.85151 0.24311 0.06761 0.0
O1021 O 0.8544 0.22405 0.07901 0.0
O1022 O 0.75223 0.25258 0.08836 0.0
O1023 O 0.77976 0.22684 0.09111 0.0
O1024 O 0.73863 0.28368 0.08109 0.0
O1025 O 0.80722 0.2712 0.07862 0.0
O1026 O 0.63975 0.25231 0.08836 0.0
O1027 O 0.63819 0.27687 0.07989 0.0
O1028 O 0.74018 0.24971 0.06707 0.0
O1029 O 0.68047 0.26063 0.06303 0.0
O1030 O 0.75007 0.21734 0.07104 0.0
O1031 O 0.6864 0.2258 0.07828 0.0
H1032 H 0.92085 0.23504 0.08839 0.0
H1033 H 0.99864 0.24091 0.09021 0.0
H1034 H 1.01236 0.24468 0.06114 0.0
H1035 H 0.93466 0.239 0.05937 0.0
H1036 H 0.57065 0.26599 0.06984 0.0
H1037 H 0.4919 0.26228 0.06818 0.0
H1038 H 0.47937 0.25799 0.09726 0.0
H1039 H 0.55798 0.26146 0.09884 0.0
Pr1040 Pr 0.49684 0.23874 0.19771 0.0
Pr1041 Pr 0.58748 0.25552 0.19638 0.0
C1042 C 0.41399 0.22932 0.20163 0.0
C1043 C 0.36738 0.23409 0.20051 0.0
C1044 C 0.34583 0.23198 0.19217 0.0
C1045 C 0.30084 0.23475 0.19152 0.0
C1046 C 0.2763 0.23962 0.1992 0.0
C1047 C 0.29819 0.24216 0.20747 0.0
C1048 C 0.34308 0.23937 0.20812 0.0
C1049 C 0.5322 0.23943 0.1802 0.0
C1050 C 0.50541 0.28333 0.19478 0.0
C1051 C 0.66996 0.26458 0.19195 0.0
C1052 C 0.71669 0.26004 0.193 0.0
C1053 C 0.73834 0.26207 0.20134 0.0
C1054 C 0.78339 0.25945 0.20193 0.0
C1055 C 0.80789 0.25481 0.19422 0.0
C1056 C 0.78589 0.25236 0.18594 0.0
C1057 C 0.74093 0.25499 0.18535 0.0
C1058 C 0.55443 0.25469 0.21406 0.0
C1059 C 0.57662 0.21073 0.19987 0.0
O1060 O 0.43774 0.23965 0.20689 0.0
O1061 O 0.4353 0.22302 0.19463 0.0
O1062 O 0.53387 0.25225 0.18586 0.0
O1063 O 0.50983 0.22585 0.18334 0.0
O1064 O 0.54604 0.28089 0.19218 0.0
O1065 O 0.48236 0.26988 0.1982 0.0
O1066 O 0.64591 0.2537 0.18704 0.0
O1067 O 0.64918 0.27153 0.19886 0.0
O1068 O 0.55119 0.24192 0.20837 0.0
O1069 O 0.57689 0.26813 0.21079 0.0
O1070 O 0.53652 0.21392 0.20251 0.0
O1071 O 0.60098 0.22378 0.19635 0.0
H1072 H 0.36346 0.22777 0.18618 0.0
H1073 H 0.28511 0.23249 0.18506 0.0
H1074 H 0.28057 0.24618 0.2135 0.0
H1075 H 0.35868 0.24099 0.21465 0.0
H1076 H 0.72071 0.26608 0.20736 0.0
H1077 H 0.79919 0.26164 0.2084 0.0
H1078 H 0.80346 0.2485 0.17989 0.0
H1079 H 0.72518 0.25343 0.17882 0.0
Pr1080 Pr 0.79578 -0.0015 0.19844 0.0
Pr1081 Pr 0.69924 0.98044 0.1967 0.0
C1082 C 0.87822 0.00738 0.20289 0.0
C1083 C 0.92468 0.00252 0.20165 0.0
C1084 C 0.94582 0.00467 0.19327 0.0
C1085 C 0.99061 0.00148 0.19249 0.0
C1086 C 1.01534 -0.00386 0.20007 0.0
C1087 C 0.99383 0.99361 0.20839 0.0
C1088 C 0.94916 -0.00318 0.20916 0.0
C1089 C 0.75616 -0.00041 0.18136 0.0
C1090 C 0.7865 0.95382 0.19439 0.0
C1091 C 0.62104 0.97121 0.18987 0.0
C1092 C 0.57365 0.97336 0.19122 0.0
C1093 C 0.55394 0.97081 0.19971 0.0
C1094 C 0.50873 0.97241 0.20065 0.0
C1095 C 0.48229 0.97661 0.19313 0.0
C1096 C 0.50242 0.97938 0.18468 0.0
C1097 C 0.54749 0.97775 0.18375 0.0
C1098 C 0.72198 0.984 0.2151 0.0
C1099 C 0.71257 0.02456 0.20153 0.0
O1100 O 0.85419 -0.00363 0.20775 0.0
O1101 O 0.85723 0.01476 0.19609 0.0
O1102 O 0.75489 0.98646 0.18686 0.0
O1103 O 0.78101 0.01258 0.18438 0.0
O1104 O 0.74351 0.95487 0.1939 0.0
O1105 O 0.81157 0.96793 0.1962 0.0
O1106 O 0.64261 0.98565 0.18724 0.0
O1107 O 0.64263 0.96093 0.1956 0.0
O1108 O 0.74427 0.9885 0.2083 0.0
O1109 O 0.68541 0.977 0.21239 0.0
O1110 O 0.75231 0.02111 0.2044 0.0
O1111 O 0.68887 0.01226 0.19719 0.0
H1112 H 0.92801 0.00916 0.18734 0.0
H1113 H 1.00606 0.00375 0.186 0.0
H1114 H 1.01156 0.98922 0.21434 0.0
H1115 H 0.93382 -0.00487 0.21572 0.0
H1116 H 0.57336 0.96744 0.2056 0.0
H1117 H 0.49443 0.97002 0.20725 0.0
H1118 H 0.48337 0.98296 0.17877 0.0
H1119 H 0.56196 0.97985 0.17714 0.0
Pr1120 Pr 0.44562 0.00783 0.94724 0.0
Pr1121 Pr 0.5431 0.99056 0.94897 0.0
C1122 C 0.36722 0.01691 0.94047 0.0
C1123 C 0.31988 0.01515 0.94192 0.0
C1124 C 0.30033 0.01907 0.9503 0.0
C1125 C 0.25514 0.01771 0.95133 0.0
C1126 C 0.22863 0.01239 0.944 0.0
C1127 C 0.24858 0.00829 0.93567 0.0
C1128 C 0.29361 0.0097 0.93465 0.0
C1129 C 0.46749 0.00338 0.96563 0.0
C1130 C 0.4612 0.96352 0.95128 0.0
C1131 C 0.62548 0.98211 0.95364 0.0
C1132 C 0.67175 0.98713 0.95237 0.0
C1133 C 0.69354 0.98395 0.94414 0.0
C1134 C 0.73818 0.98738 0.94337 0.0
C1135 C 0.76209 0.99401 0.9508 0.0
C1136 C 0.73996 -0.00245 0.95895 0.0
C1137 C 0.69543 0.99409 0.95972 0.0
C1138 C 0.50551 0.99083 0.93165 0.0
C1139 C 0.53176 0.03536 0.94563 0.0
O1140 O 0.38817 0.00212 0.9381 0.0
O1141 O 0.38938 0.02752 0.94594 0.0
O1142 O 0.49036 -0.00055 0.95883 0.0
O1143 O 0.43073 0.01024 0.96293 0.0
O1144 O 0.50042 0.96717 0.95437 0.0
O1145 O 0.4372 0.97588 0.94704 0.0
O1146 O 0.60106 0.99327 0.95833 0.0
O1147 O 0.60484 0.97432 0.94692 0.0
O1148 O 0.50244 0.00321 0.93752 0.0
O1149 O 0.5317 0.97803 0.93439 0.0
O1150 O 0.48891 0.03391 0.94484 0.0
O1151 O 0.55737 0.02139 0.94742 0.0
H1152 H 0.31985 0.02329 0.95603 0.0
H1153 H 0.24093 0.02113 0.95781 0.0
H1154 H 0.22944 0.00383 0.92993 0.0
H1155 H 0.30798 0.00655 0.92814 0.0
H1156 H 0.67637 0.97846 0.93835 0.0
H1157 H 0.75417 0.98431 0.93702 0.0
H1158 H 0.75709 0.00292 0.96477 0.0
H1159 H 0.67959 -0.00341 0.96616 0.0
Pr1160 Pr 0.34633 0.73187 0.94664 0.0
Pr1161 Pr 0.24905 0.74931 0.94831 0.0
C1162 C 0.42462 0.72255 0.93992 0.0
C1163 C 0.47199 0.72452 0.94138 0.0
C1164 C 0.49227 0.71892 0.94945 0.0
C1165 C 0.53745 0.72037 0.95045 0.0
C1166 C 0.56331 0.72745 0.94341 0.0
C1167 C 0.54268 0.73322 0.93539 0.0
C1168 C 0.49764 0.73172 0.93439 0.0
C1169 C 0.32505 0.73706 0.965 0.0
C1170 C 0.33121 0.7763 0.95045 0.0
C1171 C 0.16649 0.75811 0.95271 0.0
C1172 C 0.12027 0.75289 0.95141 0.0
C1173 C 0.09704 0.75824 0.94364 0.0
C1174 C 0.05248 0.75465 0.94288 0.0
C1175 C 0.02999 0.74573 0.94989 0.0
C1176 C 0.05346 0.7401 0.95758 0.0
C1177 C 0.09797 0.74369 0.95834 0.0
C1178 C 0.28598 0.74812 0.93094 0.0
C1179 C 0.26034 0.70422 0.94608 0.0
O1180 O 0.40341 0.73716 0.93736 0.0
O1181 O 0.40255 0.71214 0.9455 0.0
O1182 O 0.30209 0.7408 0.95818 0.0
O1183 O 0.36167 0.73002 0.96234 0.0
O1184 O 0.29186 0.77283 0.95352 0.0
O1185 O 0.35505 0.76381 0.94628 0.0
O1186 O 0.1909 0.74738 0.95765 0.0
O1187 O 0.18734 0.76541 0.94588 0.0
O1188 O 0.28911 0.73598 0.93694 0.0
O1189 O 0.26024 0.76112 0.93359 0.0
O1190 O 0.30287 0.70569 0.94475 0.0
O1191 O 0.23511 0.71834 0.9478 0.0
H1192 H 0.47336 0.71328 0.95496 0.0
H1193 H 0.55218 0.7156 0.95668 0.0
H1194 H 0.56129 0.73904 0.92988 0.0
H1195 H 0.4828 0.73613 0.9281 0.0
H1196 H 0.11301 0.76556 0.93821 0.0
H1197 H 0.0354 0.75939 0.93691 0.0
H1198 H 0.03739 0.73299 0.96306 0.0
H1199 H 0.11478 0.73953 0.96445 0.0
Pr1200 Pr 0.43966 0.73096 0.82787 0.0
Pr1201 Pr 0.53706 0.74859 0.82597 0.0
C1202 C 0.36161 0.72115 0.83462 0.0
C1203 C 0.31435 0.72247 0.83307 0.0
C1204 C 0.29717 0.72962 0.825 0.0
C1205 C 0.25201 0.73108 0.82384 0.0
C1206 C 0.22322 0.72542 0.83072 0.0
C1207 C 0.24091 0.71828 0.83877 0.0
C1208 C 0.28591 0.71684 0.83992 0.0
C1209 C 0.46052 0.73635 0.80946 0.0
C1210 C 0.45424 0.77524 0.82425 0.0
C1211 C 0.61903 0.75788 0.82133 0.0
C1212 C 0.66572 0.75402 0.82292 0.0
C1213 C 0.69412 0.76857 0.82457 0.0
C1214 C 0.7389 0.76564 0.82539 0.0
C1215 C 0.75653 0.74803 0.82454 0.0
C1216 C 0.72784 0.73337 0.82309 0.0
C1217 C 0.68294 0.73633 0.82228 0.0
C1218 C 0.50098 0.74743 0.84343 0.0
C1219 C 0.52651 0.70358 0.82866 0.0
O1220 O 0.38165 0.73619 0.83691 0.0
O1221 O 0.38417 0.71085 0.82908 0.0
O1222 O 0.48347 0.74001 0.81627 0.0
O1223 O 0.424 0.72931 0.81214 0.0
O1224 O 0.49265 0.77171 0.8207 0.0
O1225 O 0.43167 0.76283 0.82875 0.0
O1226 O 0.59605 0.74571 0.81696 0.0
O1227 O 0.59731 0.7661 0.82777 0.0
O1228 O 0.49737 0.73532 0.83744 0.0
O1229 O 0.52713 0.76025 0.84075 0.0
O1230 O 0.48396 0.70505 0.83 0.0
O1231 O 0.55155 0.71764 0.82672 0.0
H1232 H 0.31865 0.7341 0.81964 0.0
H1233 H 0.23966 0.73648 0.81751 0.0
H1234 H 0.21998 0.71409 0.84429 0.0
H1235 H 0.29855 0.71142 0.84622 0.0
H1236 H 0.6817 0.78234 0.82509 0.0
H1237 H 0.75973 0.77722 0.82667 0.0
H1238 H 0.74014 0.71965 0.82232 0.0
H1239 H 0.66186 0.72482 0.82099 0.0
Pr1240 Pr 0.3502 0.00825 0.8283 0.0
Pr1241 Pr 0.25333 0.99033 0.82669 0.0
C1242 C 0.42919 0.01789 0.83458 0.0
C1243 C 0.47632 0.0156 0.8328 0.0
C1244 C 0.50291 0.03102 0.83193 0.0
C1245 C 0.54796 0.0292 0.83089 0.0
C1246 C 0.56753 0.01188 0.83077 0.0
C1247 C 0.54073 -0.00357 0.83149 0.0
C1248 C 0.49567 -0.00175 0.83247 0.0
C1249 C 0.32835 0.00276 0.80995 0.0
C1250 C 0.33644 0.96393 0.82466 0.0
C1251 C 0.1712 0.98081 0.82233 0.0
C1252 C 0.12481 0.98491 0.82404 0.0
C1253 C 0.09592 0.97048 0.82559 0.0
C1254 C 0.0514 0.97374 0.82665 0.0
C1255 C 0.03462 0.99154 0.82617 0.0
C1256 C 0.06378 0.00604 0.82474 0.0
C1257 C 0.10841 0.00276 0.8237 0.0
C1258 C 0.2904 0.99157 0.84406 0.0
C1259 C 0.2633 0.03546 0.82907 0.0
O1260 O 0.40776 0.0036 0.83747 0.0
O1261 O 0.40673 0.02811 0.82898 0.0
O1262 O 0.30593 -0.00101 0.81682 0.0
O1263 O 0.36488 0.00992 0.81254 0.0
O1264 O 0.29758 0.96732 0.82128 0.0
O1265 O 0.35916 0.9764 0.82908 0.0
O1266 O 0.19393 0.99278 0.81777 0.0
O1267 O 0.19328 0.97285 0.8288 0.0
O1268 O 0.29332 0.00378 0.83808 0.0
O1269 O 0.26466 0.97859 0.8414 0.0
O1270 O 0.30595 0.03419 0.83032 0.0
O1271 O 0.23844 0.02124 0.82733 0.0
H1272 H 0.48889 0.04454 0.83223 0.0
H1273 H 0.56759 0.04139 0.83044 0.0
H1274 H 0.55461 0.98289 0.83129 0.0
H1275 H 0.47613 0.98606 0.83309 0.0
H1276 H 0.10772 0.95659 0.82581 0.0
H1277 H 0.02999 0.96221 0.82761 0.0
H1278 H 0.05213 0.01994 0.82444 0.0
H1279 H 0.12994 0.01417 0.82253 0.0
H1280 H 0.04337 0.42209 0.08187 0.0
H1281 H 1.00578 0.39263 0.08288 0.0
H1282 H 0.88275 0.41956 0.07889 0.0
H1283 H 0.91929 0.4487 0.07781 0.0
H1284 H 0.93595 0.38175 0.09507 0.0
H1285 H 0.88613 0.38024 0.05894 0.0
H1286 H 0.92858 0.39498 0.0631 0.0
H1287 H 0.87247 0.40099 0.06469 0.0
C1288 C 1.00834 0.42171 0.08121 0.0
C1289 C 0.9845 0.43776 0.07968 0.0
C1290 C 0.98696 0.4049 0.08179 0.0
C1291 C 0.94162 0.40397 0.0808 0.0
C1292 C 0.91783 0.41998 0.07949 0.0
H1293 H 0.74441 0.31923 0.07977 0.0
H1294 H 0.78232 0.3486 0.08073 0.0
C1295 C 0.93895 0.43666 0.07891 0.0
C1296 C 0.91851 0.38638 0.08114 0.0
H1297 H 0.85233 0.35876 0.0687 0.0
C1298 C 0.91794 0.37661 0.0893 0.0
C1299 C 0.89484 0.37985 0.07359 0.0
C1300 C 0.89574 0.38945 0.06456 0.0
C1301 C 0.89351 0.36058 0.09017 0.0
C1302 C 0.86955 0.35416 0.08264 0.0
C1303 C 0.87031 0.36389 0.07448 0.0
C1304 C 0.84584 0.3367 0.08288 0.0
C1305 C 0.8929 0.35079 0.09915 0.0
C1306 C 0.8691 0.32043 0.08378 0.0
C1307 C 0.84776 0.30377 0.08319 0.0
C1308 C 0.80263 0.30303 0.08166 0.0
C1309 C 0.77911 0.31937 0.08098 0.0
C1310 C 0.80069 0.33611 0.08151 0.0
H1311 H 0.90341 0.35979 0.10479 0.0
H1312 H 0.8599 0.3455 0.10068 0.0
H1313 H 0.91553 0.33904 0.09886 0.0
H1314 H 0.90403 0.3206 0.08469 0.0
H1315 H 0.86692 0.29145 0.0838 0.0
H1316 H 0.54333 0.92091 0.08012 0.0
H1317 H 0.50306 0.89204 0.08095 0.0
H1318 H 0.38434 0.9216 0.08589 0.0
H1319 H 0.42364 0.95021 0.085 0.0
H1320 H 0.44758 0.87715 0.09494 0.0
H1321 H 0.35742 0.89136 0.0631 0.0
H1322 H 0.40556 0.90379 0.06633 0.0
H1323 H 0.35406 0.90912 0.07142 0.0
C1324 C 0.50874 0.9212 0.08146 0.0
C1325 C 0.48661 0.93784 0.08234 0.0
C1326 C 0.48581 0.90475 0.08192 0.0
C1327 C 0.44062 0.90479 0.08327 0.0
C1328 C 0.419 0.92132 0.08461 0.0
H1329 H 0.24126 0.81982 0.08283 0.0
H1330 H 0.27908 0.84907 0.08457 0.0
C1331 C 0.44166 0.93767 0.08411 0.0
C1332 C 0.41544 0.88767 0.08309 0.0
H1333 H 0.33451 0.86579 0.07163 0.0
C1334 C 0.42297 0.87461 0.08984 0.0
C1335 C 0.38311 0.88453 0.07645 0.0
C1336 C 0.3747 0.89785 0.06886 0.0
C1337 C 0.3987 0.85846 0.09016 0.0
C1338 C 0.36664 0.85525 0.08347 0.0
C1339 C 0.35884 0.8684 0.07678 0.0
C1340 C 0.34343 0.83769 0.08283 0.0
C1341 C 0.40733 0.84504 0.09769 0.0
C1342 C 0.36708 0.82178 0.08115 0.0
C1343 C 0.34579 0.80522 0.08014 0.0
C1344 C 0.30017 0.80415 0.08072 0.0
C1345 C 0.27636 0.82015 0.08237 0.0
C1346 C 0.29789 0.83684 0.08338 0.0
H1347 H 0.42283 0.8517 0.10362 0.0
H1348 H 0.37683 0.83836 0.09994 0.0
H1349 H 0.42979 0.83433 0.0952 0.0
H1350 H 0.40212 0.82222 0.08049 0.0
H1351 H 0.36539 0.79326 0.07884 0.0
H1352 H 0.86989 0.94918 0.18898 0.0
H1353 H 0.91036 0.92087 0.1877 0.0
H1354 H 0.79555 0.89057 0.19498 0.0
H1355 H 0.75418 0.91909 0.19612 0.0
H1356 H 0.92493 0.89766 0.20164 0.0
H1357 H 0.8419 0.86183 0.17346 0.0
H1358 H 0.83431 0.88581 0.17564 0.0
H1359 H 0.80594 0.86915 0.18232 0.0
C1360 C 0.85295 0.9365 0.19022 0.0
C1361 C 0.80885 0.93635 0.19272 0.0
C1362 C 0.8762 0.92033 0.18946 0.0
C1363 C 0.85598 0.90363 0.1912 0.0
C1364 C 0.81158 0.90332 0.19345 0.0
H1365 H 0.93598 0.79469 0.20048 0.0
H1366 H 0.90018 0.82385 0.19858 0.0
C1367 C 0.78803 0.91959 0.19413 0.0
C1368 C 0.88252 0.88683 0.19135 0.0
H1369 H 0.89184 0.84435 0.18226 0.0
C1370 C 0.918 0.88606 0.19734 0.0
C1371 C 0.87346 0.87179 0.1857 0.0
C1372 C 0.83709 0.87218 0.17885 0.0
C1373 C 0.94384 0.8704 0.19804 0.0
C1374 C 0.93416 0.85522 0.19254 0.0
C1375 C 0.89921 0.85609 0.18644 0.0
C1376 C 0.95729 0.83773 0.19362 0.0
C1377 C 0.98022 0.86994 0.2049 0.0
C1378 C 1.00155 0.8359 0.19147 0.0
C1379 C 0.02252 0.8191 0.19257 0.0
C1380 C 0.99933 0.80393 0.19579 0.0
C1381 C 0.95502 0.80599 0.19795 0.0
C1382 C 0.9343 0.82267 0.19685 0.0
H1383 H 0.97883 0.88166 0.20964 0.0
H1384 H 0.97907 0.85714 0.20889 0.0
H1385 H 1.01187 0.87037 0.20131 0.0
H1386 H 1.0197 0.8474 0.18888 0.0
H1387 H 0.05656 0.81795 0.19081 0.0
H1388 H 0.36523 0.44771 0.18857 0.0
H1389 H 0.40272 0.41868 0.18729 0.0
H1390 H 0.28317 0.39037 0.19308 0.0
H1391 H 0.24482 0.41958 0.19419 0.0
H1392 H 0.41189 0.39434 0.20088 0.0
H1393 H 0.3299 0.36202 0.17152 0.0
H1394 H 0.32452 0.38595 0.17405 0.0
H1395 H 0.29337 0.36943 0.18025 0.0
C1396 C 0.34665 0.43533 0.18949 0.0
C1397 C 0.30203 0.43593 0.19154 0.0
C1398 C 0.3682 0.41874 0.18873 0.0
C1399 C 0.34573 0.40238 0.19002 0.0
C1400 C 0.30094 0.40285 0.19187 0.0
H1401 H 0.42051 0.29145 0.198 0.0
H1402 H 0.38418 0.32066 0.19629 0.0
C1403 C 0.27912 0.41953 0.19255 0.0
C1404 C 0.37022 0.38504 0.1901 0.0
H1405 H 0.37707 0.34313 0.18025 0.0
C1406 C 0.40454 0.3832 0.19631 0.0
C1407 C 0.36053 0.37057 0.18413 0.0
C1408 C 0.32534 0.37209 0.17705 0.0
C1409 C 0.42885 0.3671 0.19686 0.0
C1410 C 0.41879 0.35256 0.19097 0.0
C1411 C 0.38472 0.35441 0.18471 0.0
C1412 C 0.44142 0.33489 0.19164 0.0
C1413 C 0.46423 0.36555 0.2039 0.0
C1414 C 0.4857 0.33323 0.18951 0.0
C1415 C 0.50684 0.31646 0.19049 0.0
C1416 C 0.48387 0.30117 0.19361 0.0
C1417 C 0.43936 0.30294 0.19562 0.0
C1418 C 0.41837 0.31961 0.19462 0.0
H1419 H 0.46276 0.37676 0.20894 0.0
H1420 H 0.46191 0.35235 0.20754 0.0
H1421 H 0.49638 0.36608 0.20051 0.0
H1422 H 0.50386 0.3449 0.18712 0.0
H1423 H 0.54106 0.31552 0.18884 0.0
H1424 H 0.99186 0.5703 0.94617 0.0
H1425 H 0.03125 0.59939 0.94529 0.0
H1426 H 0.14884 0.57067 0.93835 0.0
H1427 H 0.11023 0.54185 0.93917 0.0
H1428 H 0.10716 0.60678 0.95645 0.0
H1429 H 0.14333 0.61276 0.9197 0.0
H1430 H 0.10018 0.59856 0.92405 0.0
H1431 H 0.15562 0.59098 0.92463 0.0
C1432 C 0.02588 0.57027 0.94429 0.0
C1433 C 0.04799 0.55382 0.9428 0.0
C1434 C 0.04831 0.58684 0.94381 0.0
C1435 C 0.0928 0.58711 0.94167 0.0
C1436 C 0.1144 0.57075 0.93988 0.0
H1437 H 0.29552 0.67081 0.94154 0.0
H1438 H 0.25683 0.64155 0.94058 0.0
C1439 C 0.09227 0.55428 0.94043 0.0
C1440 C 0.11798 0.6042 0.9421 0.0
H1441 H 0.18148 0.63276 0.92956 0.0
C1442 C 0.12312 0.61257 0.95056 0.0
C1443 C 0.13938 0.61144 0.93444 0.0
C1444 C 0.13419 0.60308 0.92517 0.0
C1445 C 0.14943 0.62798 0.95158 0.0
C1446 C 0.17042 0.63539 0.9439 0.0
C1447 C 0.16557 0.62694 0.93544 0.0
C1448 C 0.19445 0.65276 0.94442 0.0
C1449 C 0.15498 0.6361 0.9609 0.0
C1450 C 0.17197 0.66861 0.94675 0.0
C1451 C 0.1937 0.68515 0.94731 0.0
C1452 C 0.23854 0.68629 0.94548 0.0
C1453 C 0.26109 0.67038 0.94303 0.0
C1454 C 0.23907 0.65371 0.94246 0.0
H1455 H 0.14765 0.62603 0.96631 0.0
H1456 H 0.18856 0.64124 0.9619 0.0
H1457 H 0.13219 0.6477 0.9617 0.0
H1458 H 0.13739 0.66822 0.94811 0.0
H1459 H 0.17499 0.69705 0.94919 0.0
H1460 H 0.79843 0.17125 0.94233 0.0
H1461 H 0.76046 0.14196 0.9408 0.0
H1462 H 0.63832 0.16852 0.94628 0.0
H1463 H 0.67513 0.19748 0.94775 0.0
H1464 H 0.70742 0.12484 0.95421 0.0
H1465 H 0.61322 0.13978 0.92304 0.0
H1466 H 0.66009 0.15293 0.9264 0.0
H1467 H 0.60818 0.15696 0.93162 0.0
C1468 C 0.76349 0.17084 0.94315 0.0
C1469 C 0.73995 0.18676 0.94512 0.0
C1470 C 0.74188 0.15414 0.94226 0.0
C1471 C 0.69652 0.15321 0.94325 0.0
C1472 C 0.67317 0.16902 0.94527 0.0
H1473 H 0.49696 0.06987 0.94687 0.0
H1474 H 0.53696 0.09882 0.94593 0.0
C1475 C 0.69453 0.18559 0.94618 0.0
C1476 C 0.67323 0.13567 0.94268 0.0
H1477 H 0.59009 0.11411 0.93174 0.0
C1478 C 0.68215 0.12237 0.94923 0.0
C1479 C 0.63992 0.13265 0.93624 0.0
C1480 C 0.62997 0.14627 0.92887 0.0
C1481 C 0.65783 0.10627 0.94967 0.0
C1482 C 0.62429 0.1033 0.94327 0.0
C1483 C 0.61562 0.11652 0.93667 0.0
C1484 C 0.59913 0.08618 0.94317 0.0
C1485 C 0.66752 0.09279 0.95713 0.0
C1486 C 0.62062 0.0697 0.94162 0.0
C1487 C 0.59815 0.05333 0.94219 0.0
C1488 C 0.55348 0.05307 0.94423 0.0
C1489 C 0.53135 0.06966 0.94532 0.0
C1490 C 0.55413 0.08615 0.9448 0.0
H1491 H 0.6856 0.09919 0.96281 0.0
H1492 H 0.63713 0.08673 0.95983 0.0
H1493 H 0.6879 0.08162 0.95437 0.0
H1494 H 0.65508 0.06948 0.94012 0.0
H1495 H 0.61609 0.04082 0.94113 0.0
H1496 H 0.99352 0.16955 0.82871 0.0
H1497 H 0.03274 0.14041 0.82971 0.0
H1498 H 0.1518 0.16918 0.83533 0.0
H1499 H 0.11341 0.19803 0.83439 0.0
H1500 H 0.10622 0.13153 0.8183 0.0
H1501 H 0.1489 0.12886 0.85483 0.0
H1502 H 0.10558 0.14299 0.85047 0.0
H1503 H 0.16118 0.15009 0.84936 0.0
C1504 C 0.02788 0.1696 0.8303 0.0
C1505 C 0.05037 0.18608 0.83142 0.0
C1506 C 0.05021 0.153 0.83085 0.0
C1507 C 0.09503 0.1527 0.83269 0.0
C1508 C 0.11712 0.1691 0.83405 0.0
H1509 H 0.29844 0.06932 0.83269 0.0
H1510 H 0.25915 0.09847 0.83352 0.0
C1511 C 0.09507 0.1856 0.83343 0.0
C1512 C 0.11987 0.13549 0.83246 0.0
H1513 H 0.18573 0.10804 0.84514 0.0
C1514 C 0.12329 0.12628 0.82418 0.0
C1515 C 0.14266 0.12892 0.84012 0.0
C1516 C 0.13922 0.13812 0.84923 0.0
C1517 C 0.14934 0.11073 0.82332 0.0
C1518 C 0.17189 0.10406 0.83099 0.0
C1519 C 0.16864 0.1133 0.83927 0.0
C1520 C 0.19616 0.08671 0.83066 0.0
C1521 C 0.15301 0.10169 0.81417 0.0
C1522 C 0.17356 0.07058 0.82896 0.0
C1523 C 0.19563 0.0541 0.82848 0.0
C1524 C 0.24097 0.05329 0.82975 0.0
C1525 C 0.26363 0.06947 0.83163 0.0
C1526 C 0.24126 0.0861 0.83212 0.0
H1527 H 0.14408 0.11114 0.80859 0.0
H1528 H 0.18651 0.0966 0.81298 0.0
H1529 H 0.13052 0.0899 0.81391 0.0
H1530 H 0.13866 0.07073 0.82799 0.0
H1531 H 0.17681 0.04198 0.82708 0.0
H1532 H 0.4907 0.67013 0.83279 0.0
H1533 H 0.52951 0.64103 0.83443 0.0
H1534 H 0.65052 0.66783 0.82828 0.0
H1535 H 0.61286 0.69662 0.8267 0.0
H1536 H 0.58202 0.62361 0.82102 0.0
H1537 H 0.67806 0.64006 0.85173 0.0
H1538 H 0.6306 0.65291 0.84839 0.0
H1539 H 0.682 0.65692 0.84296 0.0
C1540 C 0.52557 0.66981 0.83184 0.0
C1541 C 0.54855 0.68576 0.82965 0.0
C1542 C 0.54766 0.65322 0.83279 0.0
C1543 C 0.59296 0.65242 0.83166 0.0
C1544 C 0.61574 0.66825 0.8294 0.0
H1545 H 0.79364 0.56935 0.82813 0.0
H1546 H 0.75342 0.59829 0.82903 0.0
C1547 C 0.5939 0.68471 0.82843 0.0
C1548 C 0.61674 0.63499 0.83232 0.0
H1549 H 0.70099 0.61408 0.84325 0.0
C1550 C 0.60766 0.6214 0.82594 0.0
C1551 C 0.65053 0.63231 0.8387 0.0
C1552 C 0.6607 0.64626 0.84589 0.0
C1553 C 0.63225 0.60535 0.82561 0.0
C1554 C 0.66623 0.60271 0.83194 0.0
C1555 C 0.6751 0.61623 0.83838 0.0
C1556 C 0.69169 0.58565 0.83215 0.0
C1557 C 0.62234 0.59154 0.81832 0.0
C1558 C 0.67057 0.56919 0.83394 0.0
C1559 C 0.69316 0.55283 0.83339 0.0
C1560 C 0.73759 0.55257 0.83113 0.0
C1561 C 0.75944 0.56915 0.82984 0.0
C1562 C 0.73653 0.58563 0.83034 0.0
H1563 H 0.60375 0.59766 0.81263 0.0
H1564 H 0.65267 0.58547 0.81559 0.0
H1565 H 0.60239 0.58043 0.82125 0.0
H1566 H 0.63626 0.56897 0.83558 0.0
H1567 H 0.67549 0.54032 0.83461 0.0
H1568 H 0.92584 0.94686 0.58563 0.0
H1569 H 0.88751 0.91815 0.5872 0.0
H1570 H 1.00557 0.88889 0.58119 0.0
H1571 H 0.04484 0.91788 0.57972 0.0
H1572 H 0.87785 0.8936 0.57341 0.0
H1573 H 0.95726 0.86147 0.6032 0.0
H1574 H 0.96285 0.88539 0.60061 0.0
H1575 H 0.99394 0.86878 0.59446 0.0
C1576 C 0.94396 0.93435 0.58471 0.0
C1577 C 0.98837 0.93463 0.58245 0.0
C1578 C 0.92191 0.91794 0.58565 0.0
C1579 C 0.94367 0.90142 0.58435 0.0
C1580 C 0.98836 0.90153 0.58236 0.0
H1581 H 0.86653 0.79088 0.57792 0.0
H1582 H 0.90296 0.8199 0.57974 0.0
C1583 C 1.0107 0.91806 0.58149 0.0
C1584 C 0.91837 0.88432 0.58438 0.0
H1585 H 0.90832 0.84304 0.59476 0.0
C1586 C 0.88427 0.88258 0.57812 0.0
C1587 C 0.92683 0.87005 0.59055 0.0
C1588 C 0.96195 0.8715 0.59765 0.0
C1589 C 0.85903 0.86674 0.5777 0.0
C1590 C 0.86776 0.85238 0.5838 0.0
C1591 C 0.90157 0.85417 0.59013 0.0
C1592 C 0.84469 0.83479 0.58319 0.0
C1593 C 0.82427 0.86526 0.57052 0.0
C1594 C 0.79966 0.8335 0.58464 0.0
C1595 C 0.77833 0.8168 0.58355 0.0
C1596 C 0.80186 0.80119 0.58103 0.0
C1597 C 0.84712 0.80259 0.5798 0.0
C1598 C 0.86822 0.81918 0.58088 0.0
H1599 H 0.82748 0.87599 0.56526 0.0
H1600 H 0.82552 0.85174 0.56716 0.0
H1601 H 0.79187 0.86673 0.57373 0.0
H1602 H 0.78106 0.84541 0.58655 0.0
H1603 H 0.74355 0.81616 0.58461 0.0
H1604 H 0.3639 0.29048 0.57593 0.0
H1605 H 0.40244 0.31906 0.57747 0.0
H1606 H 0.28354 0.34586 0.58531 0.0
H1607 H 0.24415 0.31688 0.58392 0.0
H1608 H 0.38688 0.35035 0.56785 0.0
H1609 H 0.37028 0.3621 0.60489 0.0
H1610 H 0.3593 0.34033 0.5997 0.0
H1611 H 0.32019 0.35842 0.5989 0.0
C1612 C 0.34564 0.30237 0.57802 0.0
C1613 C 0.30075 0.3014 0.57978 0.0
C1614 C 0.36792 0.31872 0.57891 0.0
C1615 C 0.34598 0.33451 0.58157 0.0
C1616 C 0.30118 0.33371 0.58339 0.0
H1617 H 0.42251 0.44636 0.5837 0.0
H1618 H 0.38617 0.41705 0.58471 0.0
C1619 C 0.2787 0.31721 0.58254 0.0
C1620 C 0.37027 0.35184 0.582 0.0
H1621 H 0.4038 0.38551 0.59631 0.0
C1622 C 0.39074 0.35801 0.57407 0.0
C1623 C 0.37532 0.36171 0.59015 0.0
C1624 C 0.35546 0.35528 0.59892 0.0
C1625 C 0.41572 0.37393 0.57405 0.0
C1626 C 0.4207 0.38381 0.58218 0.0
C1627 C 0.40017 0.37772 0.59011 0.0
C1628 C 0.44437 0.40126 0.58238 0.0
C1629 C 0.43575 0.38034 0.56528 0.0
C1630 C 0.48945 0.40201 0.58094 0.0
C1631 C 0.5106 0.41885 0.58037 0.0
C1632 C 0.48673 0.43508 0.58116 0.0
C1633 C 0.44184 0.43413 0.58293 0.0
C1634 C 0.42095 0.41739 0.58356 0.0
H1635 H 0.42295 0.37278 0.55933 0.0
H1636 H 0.42959 0.39509 0.56426 0.0
H1637 H 0.47145 0.37829 0.56556 0.0
H1638 H 0.50803 0.3896 0.58008 0.0
H1639 H 0.54518 0.41916 0.57903 0.0
H1640 H 0.92616 0.29165 0.6902 0.0
H1641 H 0.88669 0.32016 0.68888 0.0
H1642 H 1.00369 0.34993 0.69511 0.0
H1643 H 0.04412 0.32114 0.69631 0.0
H1644 H 0.87553 0.3444 0.7027 0.0
H1645 H 0.95505 0.37749 0.67323 0.0
H1646 H 0.96159 0.35359 0.67575 0.0
H1647 H 0.99172 0.37033 0.68201 0.0
C1648 C 0.94381 0.30424 0.69122 0.0
C1649 C 0.98829 0.30414 0.69344 0.0
C1650 C 0.9211 0.32053 0.69044 0.0
C1651 C 0.94222 0.33714 0.69186 0.0
C1652 C 0.98694 0.33723 0.69384 0.0
H1653 H 0.86174 0.44721 0.69837 0.0
H1654 H 0.89845 0.41817 0.69699 0.0
C1655 C 1.00996 0.32081 0.69456 0.0
C1656 C 0.91632 0.35412 0.69188 0.0
H1657 H 0.90527 0.39552 0.68167 0.0
C1658 C 0.8818 0.35554 0.69806 0.0
C1659 C 0.92453 0.36855 0.68579 0.0
C1660 C 0.95997 0.36743 0.67875 0.0
C1661 C 0.85593 0.37123 0.69848 0.0
C1662 C 0.86449 0.38576 0.69248 0.0
C1663 C 0.89868 0.38427 0.68622 0.0
C1664 C 0.8409 0.40325 0.69312 0.0
C1665 C 0.82063 0.3724 0.70555 0.0
C1666 C 0.79609 0.4045 0.69137 0.0
C1667 C 0.77456 0.42124 0.69218 0.0
C1668 C 0.7977 0.43693 0.69471 0.0
C1669 C 0.84264 0.43549 0.6964 0.0
C1670 C 0.86391 0.41887 0.69559 0.0
H1671 H 0.82352 0.36145 0.71072 0.0
H1672 H 0.82155 0.38578 0.70904 0.0
H1673 H 0.78848 0.37107 0.70221 0.0
H1674 H 0.77789 0.39256 0.68934 0.0
H1675 H 0.74004 0.42191 0.6908 0.0
H1676 H 0.42453 0.79134 0.68988 0.0
H1677 H 0.38507 0.8199 0.68867 0.0
H1678 H 0.50219 0.84954 0.69494 0.0
H1679 H 0.54258 0.82075 0.69602 0.0
H1680 H 0.37402 0.84394 0.70254 0.0
H1681 H 0.45361 0.87748 0.67321 0.0
H1682 H 0.46017 0.85354 0.67565 0.0
H1683 H 0.49041 0.8702 0.68194 0.0
C1684 C 0.44219 0.80392 0.69093 0.0
C1685 C 0.4867 0.80379 0.69312 0.0
C1686 C 0.4195 0.82023 0.69021 0.0
C1687 C 0.44068 0.83682 0.69167 0.0
C1688 C 0.4854 0.83687 0.69363 0.0
H1689 H 0.36209 0.94689 0.69896 0.0
H1690 H 0.39828 0.91775 0.69739 0.0
C1691 C 0.50839 0.82044 0.69428 0.0
C1692 C 0.41487 0.85382 0.69176 0.0
H1693 H 0.40453 0.89553 0.68184 0.0
C1694 C 0.38044 0.85518 0.69797 0.0
C1695 C 0.42328 0.86838 0.68576 0.0
C1696 C 0.45861 0.86733 0.6787 0.0
C1697 C 0.35488 0.87094 0.69851 0.0
C1698 C 0.3637 0.8856 0.69261 0.0
C1699 C 0.39776 0.88417 0.68632 0.0
C1700 C 0.34048 0.90315 0.69338 0.0
C1701 C 0.31966 0.87203 0.7056 0.0
C1702 C 0.29573 0.90459 0.69162 0.0
C1703 C 0.27452 0.92139 0.69254 0.0
C1704 C 0.29794 0.93692 0.69519 0.0
C1705 C 0.34281 0.93528 0.6969 0.0
C1706 C 0.36377 0.91861 0.69598 0.0
H1707 H 0.32231 0.86091 0.71068 0.0
H1708 H 0.32094 0.88529 0.7092 0.0
H1709 H 0.28745 0.87095 0.70226 0.0
H1710 H 0.27732 0.89279 0.68949 0.0
H1711 H 0.24004 0.9222 0.69113 0.0
H1712 H 0.11558 0.0411 0.44667 0.0
H1713 H 0.15153 0.07031 0.44512 0.0
H1714 H 0.02826 0.09619 0.43987 0.0
H1715 H 0.9913 0.06677 0.44152 0.0
H1716 H 0.15242 0.09458 0.43025 0.0
H1717 H 0.08038 0.12514 0.46131 0.0
H1718 H 0.07845 0.10101 0.45904 0.0
H1719 H 0.04247 0.11624 0.45317 0.0
C1720 C 0.09579 0.05293 0.44519 0.0
C1721 C 0.05035 0.05158 0.44428 0.0
C1722 C 0.11659 0.06963 0.44427 0.0
C1723 C 0.09252 0.08537 0.44246 0.0
C1724 C 0.04727 0.08416 0.44139 0.0
H1725 H 0.17075 0.19777 0.44049 0.0
H1726 H 0.13241 0.169 0.43927 0.0
C1727 C 0.02626 0.06736 0.44231 0.0
C1728 C 0.11532 0.103 0.44189 0.0
H1729 H 0.12788 0.14351 0.45281 0.0
C1730 C 0.14699 0.10535 0.43515 0.0
C1731 C 0.10827 0.11688 0.44834 0.0
C1732 C 0.07582 0.11474 0.45593 0.0
C1733 C 0.1717 0.12136 0.43464 0.0
C1734 C 0.16492 0.13516 0.44115 0.0
C1735 C 0.13299 0.13285 0.44784 0.0
C1736 C 0.18974 0.15236 0.44109 0.0
C1737 C 0.20435 0.12347 0.4271 0.0
C1738 C 0.23496 0.15253 0.44241 0.0
C1739 C 0.2573 0.16908 0.44308 0.0
C1740 C 0.23449 0.18562 0.44255 0.0
C1741 C 0.18936 0.18529 0.44102 0.0
C1742 C 0.16728 0.16885 0.4403 0.0
H1743 H 0.19808 0.11379 0.42147 0.0
H1744 H 0.20395 0.13754 0.42436 0.0
H1745 H 0.23739 0.12069 0.42978 0.0
H1746 H 0.25275 0.1399 0.44319 0.0
H1747 H 0.29201 0.16891 0.44429 0.0
H1748 H 0.6665 0.69647 0.44618 0.0
H1749 H 0.62932 0.66744 0.44463 0.0
H1750 H 0.75083 0.64117 0.43827 0.0
H1751 H 0.78889 0.67041 0.43982 0.0
H1752 H 0.62864 0.64218 0.42907 0.0
H1753 H 0.6984 0.61378 0.46092 0.0
H1754 H 0.69831 0.63787 0.4585 0.0
H1755 H 0.7359 0.62312 0.45281 0.0
C1756 C 0.68556 0.68457 0.44444 0.0
C1757 C 0.73084 0.68572 0.44321 0.0
C1758 C 0.66409 0.66802 0.44351 0.0
C1759 C 0.68739 0.65224 0.44139 0.0
C1760 C 0.73244 0.65327 0.43997 0.0
H1761 H 0.60887 0.53996 0.44238 0.0
H1762 H 0.64738 0.56858 0.44058 0.0
C1763 C 0.75407 0.66994 0.44085 0.0
C1764 C 0.66427 0.63467 0.44106 0.0
H1765 H 0.64978 0.59528 0.45285 0.0
C1766 C 0.63335 0.63182 0.43422 0.0
C1767 C 0.67039 0.62138 0.44784 0.0
C1768 C 0.7023 0.62412 0.45549 0.0
C1769 C 0.60859 0.61579 0.43392 0.0
C1770 C 0.61433 0.60256 0.44078 0.0
C1771 C 0.64541 0.60546 0.4476 0.0
C1772 C 0.58953 0.58531 0.44097 0.0
C1773 C 0.57713 0.61304 0.4262 0.0
C1774 C 0.54395 0.58517 0.44166 0.0
C1775 C 0.52155 0.56867 0.44261 0.0
C1776 C 0.54463 0.55221 0.44305 0.0
C1777 C 0.59012 0.55245 0.44218 0.0
C1778 C 0.61226 0.5688 0.44112 0.0
H1779 H 0.58501 0.62193 0.42034 0.0
H1780 H 0.57709 0.59866 0.4239 0.0
H1781 H 0.54386 0.61652 0.42852 0.0
H1782 H 0.52583 0.59781 0.44174 0.0
H1783 H 0.48652 0.56885 0.4433 0.0
H1784 H 0.30352 0.56812 0.33199 0.0
H1785 H 0.26679 0.59756 0.33409 0.0
H1786 H 0.14372 0.57256 0.32783 0.0
H1787 H 0.17934 0.54343 0.32577 0.0
H1788 H 0.21396 0.6163 0.32096 0.0
H1789 H 0.12043 0.59913 0.35191 0.0
H1790 H 0.16708 0.58615 0.34824 0.0
H1791 H 0.11501 0.5827 0.34298 0.0
C1792 C 0.26864 0.56891 0.33109 0.0
C1793 C 0.24446 0.55338 0.32875 0.0
C1794 C 0.24775 0.58569 0.33231 0.0
C1795 C 0.20249 0.58706 0.3313 0.0
C1796 C 0.17852 0.57166 0.32886 0.0
H1797 H 1.00297 0.66992 0.32915 0.0
H1798 H 0.04409 0.64123 0.32983 0.0
C1799 C 0.19917 0.55502 0.32762 0.0
C1800 C 0.17989 0.60468 0.33229 0.0
H1801 H 0.09744 0.62558 0.34375 0.0
C1802 C 0.18891 0.61847 0.32602 0.0
C1803 C 0.14694 0.60729 0.33884 0.0
C1804 C 0.13698 0.5931 0.34593 0.0
C1805 C 0.16481 0.63466 0.32592 0.0
C1806 C 0.13144 0.63719 0.3324 0.0
C1807 C 0.12287 0.62351 0.33877 0.0
C1808 C 0.10573 0.65416 0.33273 0.0
C1809 C 0.17435 0.64868 0.31871 0.0
C1810 C 0.12659 0.67071 0.33445 0.0
C1811 C 0.10346 0.68696 0.33402 0.0
C1812 C 0.05879 0.68699 0.33195 0.0
C1813 C 0.03733 0.67031 0.33072 0.0
C1814 C 0.06075 0.65396 0.33109 0.0
H1815 H 0.19262 0.64273 0.31293 0.0
H1816 H 0.14388 0.65484 0.31609 0.0
H1817 H 0.19447 0.6597 0.32167 0.0
H1818 H 0.16104 0.67109 0.33595 0.0
H1819 H 0.12089 0.69955 0.33517 0.0
H1820 H 0.80352 0.06794 0.32969 0.0
H1821 H 0.76663 0.09751 0.33096 0.0
H1822 H 0.64462 0.07016 0.33544 0.0
H1823 H 0.68073 0.04079 0.33419 0.0
H1824 H 0.69392 0.10773 0.31919 0.0
H1825 H 0.6505 0.10952 0.35571 0.0
H1826 H 0.69357 0.09533 0.35131 0.0
H1827 H 0.63783 0.08866 0.34993 0.0
C1828 C 0.76897 0.06826 0.33107 0.0
C1829 C 0.74504 0.05205 0.33179 0.0
C1830 C 0.74799 0.08512 0.33179 0.0
C1831 C 0.70306 0.08593 0.33339 0.0
C1832 C 0.67942 0.06979 0.33434 0.0
H1833 H 0.50584 0.17112 0.33416 0.0
H1834 H 0.54477 0.14195 0.33518 0.0
C1835 C 0.70015 0.05302 0.33355 0.0
C1836 C 0.67987 0.10351 0.33331 0.0
H1837 H 0.61694 0.13162 0.34623 0.0
C1838 C 0.67742 0.11307 0.32511 0.0
C1839 C 0.65784 0.11018 0.34103 0.0
C1840 C 0.6602 0.1005 0.35002 0.0
C1841 C 0.65293 0.12908 0.32437 0.0
C1842 C 0.63118 0.13588 0.33211 0.0
C1843 C 0.63356 0.1263 0.34032 0.0
C1844 C 0.60756 0.15339 0.33186 0.0
C1845 C 0.64979 0.13836 0.31527 0.0
C1846 C 0.63023 0.1694 0.32987 0.0
C1847 C 0.60827 0.18591 0.32923 0.0
C1848 C 0.56311 0.18682 0.33068 0.0
C1849 C 0.54054 0.17084 0.33296 0.0
C1850 C 0.5627 0.15421 0.33356 0.0
H1851 H 0.6575 0.12887 0.30964 0.0
H1852 H 0.61679 0.14406 0.31415 0.0
H1853 H 0.67349 0.14972 0.31501 0.0
H1854 H 0.66501 0.16911 0.32874 0.0
H1855 H 0.6269 0.19796 0.32758 0.0
H1856 H 0.03036 0.52668 0.10635 0.0
H1857 H 0.06816 0.52652 0.12099 0.0
H1858 H 0.12339 0.47408 0.11472 0.0
H1859 H 0.08552 0.47412 0.1001 0.0
H1860 H 0.06215 0.50035 0.13534 0.0
H1861 H 0.22991 0.50556 0.1217 0.0
H1862 H 0.18246 0.51085 0.11499 0.0
H1863 H 0.19748 0.48757 0.11699 0.0
C1864 C 0.05061 0.51513 0.10809 0.0
C1865 C 0.05518 0.50046 0.10204 0.0
C1866 C 0.07216 0.51505 0.11646 0.0
C1867 C 0.09906 0.5004 0.11892 0.0
C1868 C 0.1034 0.48567 0.11292 0.0
H1869 H 0.20019 0.4731 0.17252 0.0
H1870 H 0.16221 0.4735 0.15792 0.0
C1871 C 0.08163 0.48569 0.10457 0.0
C1872 C 0.12202 0.50042 0.12781 0.0
H1873 H 0.22302 0.50056 0.1375 0.0
C1874 C 0.09731 0.50041 0.13581 0.0
C1875 C 0.16793 0.50066 0.12844 0.0
C1876 C 0.19615 0.50131 0.12009 0.0
C1877 C 0.11724 0.50037 0.1444 0.0
C1878 C 0.16315 0.50025 0.14503 0.0
C1879 C 0.18785 0.50053 0.13703 0.0
C1880 C 0.18611 0.5 0.15392 0.0
C1881 C 0.08901 0.50071 0.15276 0.0
C1882 C 0.2128 0.51462 0.15649 0.0
C1883 C 0.23443 0.51446 0.16485 0.0
C1884 C 0.23014 0.49957 0.17078 0.0
C1885 C 0.20385 0.48484 0.16814 0.0
C1886 C 0.18202 0.48507 0.15981 0.0
H1887 H 0.05518 0.50494 0.15117 0.0
H1888 H 0.08787 0.48687 0.15576 0.0
H1889 H 0.10254 0.51011 0.15792 0.0
H1890 H 0.21661 0.52625 0.15205 0.0
H1891 H 0.25455 0.52598 0.16668 0.0
H1892 H 0.26868 0.72055 0.10862 0.0
H1893 H 0.23343 0.72125 0.12343 0.0
H1894 H 0.14768 0.76381 0.11403 0.0
H1895 H 0.18653 0.76454 0.09961 0.0
H1896 H 0.16337 0.77127 0.12973 0.0
H1897 H 0.12721 0.69791 0.13118 0.0
H1898 H 0.1847 0.70111 0.13048 0.0
H1899 H 0.1502 0.70825 0.12123 0.0
C1900 C 0.2423 0.73005 0.10973 0.0
C1901 C 0.22963 0.74217 0.10285 0.0
C1902 C 0.22162 0.73028 0.11819 0.0
C1903 C 0.18636 0.74205 0.11986 0.0
C1904 C 0.17428 0.75438 0.11299 0.0
H1905 H 1.0194 0.72149 0.16693 0.0
H1906 H 0.05193 0.72272 0.15183 0.0
C1907 C 0.19616 0.75465 0.10466 0.0
C1908 C 0.16307 0.74198 0.12881 0.0
H1909 H 0.12132 0.71409 0.14519 0.0
C1910 C 0.15369 0.75871 0.13302 0.0
C1911 C 0.14924 0.72574 0.13315 0.0
C1912 C 0.15292 0.7073 0.12871 0.0
C1913 C 0.13155 0.75967 0.14135 0.0
C1914 C 0.12086 0.74339 0.14603 0.0
C1915 C 0.12986 0.72666 0.14178 0.0
C1916 C 0.09986 0.74325 0.15522 0.0
C1917 C 0.11854 0.77824 0.14479 0.0
C1918 C 0.11537 0.75435 0.1623 0.0
C1919 C 0.09531 0.75425 0.17082 0.0
C1920 C 0.06093 0.74226 0.17268 0.0
C1921 C 0.04603 0.73081 0.16573 0.0
C1922 C 0.06487 0.73146 0.15708 0.0
H1923 H 0.11391 0.78798 0.13911 0.0
H1924 H 0.08793 0.77772 0.14876 0.0
H1925 H 0.14484 0.78373 0.14915 0.0
H1926 H 0.14324 0.76307 0.16129 0.0
H1927 H 0.10714 0.76342 0.17599 0.0
H1928 H 0.76574 0.46887 0.85808 0.0
H1929 H 0.79929 0.46996 0.87309 0.0
H1930 H 0.88733 0.51162 0.86367 0.0
H1931 H 0.8498 0.5122 0.84914 0.0
H1932 H 0.86885 0.46204 0.87968 0.0
H1933 H 0.85839 0.53573 0.88595 0.0
H1934 H 0.83244 0.52543 0.87632 0.0
H1935 H 0.88899 0.53203 0.87583 0.0
C1936 C 0.79186 0.47844 0.85928 0.0
C1937 C 0.80542 0.49033 0.85239 0.0
C1938 C 0.8113 0.47901 0.86787 0.0
C1939 C 0.84564 0.49115 0.86972 0.0
C1940 C 0.85992 0.50263 0.86269 0.0
H1941 H 1.01756 0.46914 0.91608 0.0
H1942 H 0.98149 0.46945 0.90133 0.0
C1943 C 0.83913 0.50264 0.85424 0.0
C1944 C 0.86718 0.49134 0.87886 0.0
H1945 H 0.91001 0.51941 0.89502 0.0
C1946 C 0.87714 0.47465 0.88307 0.0
C1947 C 0.87753 0.50767 0.88353 0.0
C1948 C 0.86325 0.52617 0.88021 0.0
C1949 C 0.89711 0.47381 0.89165 0.0
C1950 C 0.91075 0.49012 0.89596 0.0
C1951 C 0.90048 0.5068 0.89177 0.0
C1952 C 0.93457 0.49034 0.90485 0.0
C1953 C 0.90154 0.45537 0.89608 0.0
C1954 C 0.92296 0.50288 0.91165 0.0
C1955 C 0.94548 0.50344 0.9199 0.0
C1956 C 0.97894 0.49098 0.92174 0.0
C1957 C 0.99113 0.47862 0.91495 0.0
C1958 C 0.96994 0.47861 0.90653 0.0
H1959 H 0.87586 0.44589 0.89369 0.0
H1960 H 0.93331 0.44931 0.89421 0.0
H1961 H 0.89934 0.4563 0.90357 0.0
H1962 H 0.89629 0.51228 0.91062 0.0
H1963 H 0.93638 0.51357 0.92486 0.0
H1964 H 0.93824 0.22571 0.84972 0.0
H1965 H 0.89872 0.22659 0.86404 0.0
H1966 H 0.98367 0.26935 0.87345 0.0
H1967 H 1.01924 0.27003 0.85867 0.0
H1968 H 0.91306 0.21926 0.87968 0.0
H1969 H 0.87771 0.2927 0.88115 0.0
H1970 H 0.9011 0.28239 0.87123 0.0
H1971 H 0.9352 0.28938 0.88058 0.0
C1972 C 0.94744 0.23572 0.85474 0.0
C1973 C 0.98069 0.24828 0.85292 0.0
C1974 C 0.92523 0.23605 0.86303 0.0
C1975 C 0.9369 0.24847 0.86988 0.0
C1976 C 0.97208 0.26027 0.86822 0.0
H1977 H 0.85268 0.22657 0.92572 0.0
H1978 H 0.8901 0.22693 0.91116 0.0
C1979 C 0.99298 0.26048 0.85978 0.0
C1980 C 0.91325 0.24855 0.87879 0.0
H1981 H 0.87109 0.27644 0.89512 0.0
C1982 C 0.90336 0.23182 0.88296 0.0
C1983 C 0.89941 0.2648 0.88313 0.0
C1984 C 0.90347 0.28328 0.87872 0.0
C1985 C 0.8806 0.23086 0.89122 0.0
C1986 C 0.86993 0.24714 0.89591 0.0
C1987 C 0.87957 0.26387 0.89171 0.0
C1988 C 0.84821 0.24727 0.90503 0.0
C1989 C 0.86686 0.2123 0.89455 0.0
C1990 C 0.81366 0.25935 0.90682 0.0
C1991 C 0.79422 0.26002 0.91541 0.0
C1992 C 0.80796 0.24829 0.92236 0.0
C1993 C 0.8418 0.23598 0.92056 0.0
C1994 C 0.86257 0.23588 0.91211 0.0
H1995 H 0.86234 0.2027 0.88882 0.0
H1996 H 0.89272 0.20659 0.89896 0.0
H1997 H 0.83599 0.21292 0.89842 0.0
H1998 H 0.80153 0.26831 0.90157 0.0
H1999 H 0.768 0.26958 0.91656 0.0
H2000 H 1.01855 0.01933 0.60861 0.0
H2001 H 0.05449 0.01913 0.62338 0.0
H2002 H 0.14041 0.97652 0.61414 0.0
H2003 H 0.10066 0.97518 0.59985 0.0
H2004 H 0.12607 0.96931 0.62977 0.0
H2005 H 0.15997 0.04287 0.63107 0.0
H2006 H 0.10255 0.03934 0.63052 0.0
H2007 H 0.13675 0.0324 0.62118 0.0
C2008 C 0.04512 0.00993 0.60975 0.0
C2009 C 0.05756 -0.0024 0.60296 0.0
C2010 C 0.06622 0.01 0.61818 0.0
C2011 C 0.10171 -0.00165 0.61989 0.0
C2012 C 0.11362 0.98586 0.61309 0.0
H2013 H 0.27141 0.01991 0.66648 0.0
H2014 H 0.23739 0.01867 0.65152 0.0
C2015 C 0.09126 0.98525 0.60482 0.0
C2016 C 0.12538 -0.00141 0.62881 0.0
H2017 H 0.16741 0.02671 0.64506 0.0
C2018 C 0.13561 0.98192 0.63301 0.0
C2019 C 0.13899 0.01491 0.63311 0.0
C2020 C 0.13443 0.03334 0.62867 0.0
C2021 C 0.15853 0.98108 0.64126 0.0
C2022 C 0.16903 -0.00258 0.6459 0.0
C2023 C 0.15905 0.01409 0.64168 0.0
C2024 C 0.19086 -0.00235 0.65502 0.0
C2025 C 0.17263 0.96258 0.64462 0.0
C2026 C 0.17666 0.98629 0.66212 0.0
C2027 C 0.19767 0.98639 0.67055 0.0
C2028 C 0.23161 -0.00135 0.67232 0.0
C2029 C 0.24514 0.01038 0.66535 0.0
C2030 C 0.22543 0.00972 0.65678 0.0
H2031 H 0.17719 0.95294 0.63891 0.0
H2032 H 0.20356 0.9633 0.64848 0.0
H2033 H 0.14694 0.95685 0.64906 0.0
H2034 H 0.14912 0.97735 0.6612 0.0
H2035 H 0.18693 0.97697 0.67572 0.0
H2036 H 0.27065 0.22091 0.60874 0.0
H2037 H 0.23563 0.22185 0.62359 0.0
H2038 H 0.14578 0.26243 0.61369 0.0
H2039 H 0.1842 0.26296 0.59921 0.0
H2040 H 0.16018 0.27085 0.62929 0.0
H2041 H 0.13198 0.19695 0.63156 0.0
H2042 H 0.18907 0.20124 0.63088 0.0
H2043 H 0.15407 0.20725 0.62151 0.0
C2044 C 0.24349 0.23006 0.60976 0.0
C2045 C 0.22961 0.2416 0.60275 0.0
C2046 C 0.22295 0.23041 0.61824 0.0
C2047 C 0.18657 0.24165 0.61978 0.0
C2048 C 0.17331 0.25343 0.61276 0.0
H2049 H 1.01933 0.22017 0.6667 0.0
H2050 H 0.05295 0.22119 0.6517 0.0
C2051 C 0.19505 0.25363 0.60442 0.0
C2052 C 0.1631 0.24156 0.62871 0.0
H2053 H 0.12357 0.21367 0.64533 0.0
C2054 C 0.15171 0.25828 0.63271 0.0
C2055 C 0.15083 0.22527 0.63322 0.0
C2056 C 0.15668 0.20671 0.629 0.0
C2057 C 0.12901 0.2592 0.64098 0.0
C2058 C 0.11983 0.24295 0.64582 0.0
C2059 C 0.13092 0.22623 0.64179 0.0
C2060 C 0.09823 0.24285 0.65496 0.0
C2061 C 0.11374 0.27766 0.64415 0.0
C2062 C 0.11191 0.25461 0.66192 0.0
C2063 C 0.09115 0.2546 0.67037 0.0
C2064 C 0.05797 0.24206 0.67229 0.0
C2065 C 0.045 0.22993 0.66546 0.0
C2066 C 0.06447 0.23047 0.65687 0.0
H2067 H 0.10842 0.28702 0.63834 0.0
H2068 H 0.08296 0.27673 0.64804 0.0
H2069 H 0.13912 0.28387 0.64851 0.0
H2070 H 0.13885 0.26382 0.66088 0.0
H2071 H 0.10146 0.26431 0.67544 0.0
H2072 H 1.00598 0.96225 0.41837 0.0
H2073 H 0.97058 0.96243 0.40348 0.0
H2074 H 0.91348 0.01466 0.40946 0.0
H2075 H 0.94897 0.01459 0.42435 0.0
H2076 H 0.85425 0.98897 0.4019 0.0
H2077 H 1.00533 0.99427 0.38153 0.0
H2078 H 1.00484 0.97601 0.38964 0.0
H2079 H 1.00381 -0.00081 0.39351 0.0
C2080 C 0.98597 0.9738 0.4165 0.0
C2081 C 0.98038 0.98843 0.42253 0.0
C2082 C 0.96589 0.97392 0.40797 0.0
C2083 C 0.93978 0.98867 0.40528 0.0
C2084 C 0.93362 0.00317 0.41135 0.0
H2085 H 0.84546 0.01452 0.35098 0.0
H2086 H 0.88075 0.01456 0.36588 0.0
C2087 C 0.95392 0.00311 0.41986 0.0
C2088 C 0.91856 0.98888 0.39619 0.0
H2089 H 0.93994 0.98902 0.37344 0.0
C2090 C 0.87298 0.98899 0.39568 0.0
C2091 C 0.94296 0.98913 0.38806 0.0
C2092 C 0.99195 0.98981 0.38816 0.0
C2093 C 0.85122 0.98902 0.38728 0.0
C2094 C 0.87562 0.98879 0.37915 0.0
C2095 C 0.9212 0.98902 0.37966 0.0
C2096 C 0.85444 0.98858 0.37005 0.0
C2097 C 0.80222 0.98958 0.38717 0.0
C2098 C 0.82839 0.97384 0.36735 0.0
C2099 C 0.8084 0.97374 0.35881 0.0
C2100 C 0.81406 0.98837 0.35278 0.0
C2101 C 0.84047 0.00304 0.35546 0.0
C2102 C 0.86066 0.00308 0.36398 0.0
H2103 H 0.78876 0.99402 0.3938 0.0
H2104 H 0.79021 -0.00108 0.38181 0.0
H2105 H 0.78956 0.97576 0.38571 0.0
H2106 H 0.82368 0.96235 0.37184 0.0
H2107 H 0.78842 0.96221 0.35693 0.0
H2108 H 0.9541 0.72247 0.35099 0.0
H2109 H 0.91475 0.72211 0.36542 0.0
H2110 H 0.96381 0.77561 0.37162 0.0
H2111 H 1.00305 0.77611 0.35715 0.0
H2112 H 0.97138 0.74956 0.38612 0.0
H2113 H 0.80442 0.752 0.37181 0.0
H2114 H 0.83908 0.73457 0.36725 0.0
H2115 H 0.85189 0.75808 0.36529 0.0
C2116 C 0.95628 0.73422 0.3554 0.0
C2117 C 0.98142 0.74939 0.3529 0.0
C2118 C 0.93367 0.734 0.36364 0.0
C2119 C 0.93589 0.74892 0.36957 0.0
C2120 C 0.96146 0.76399 0.36714 0.0
H2121 H 0.7777 0.7737 0.4169 0.0
H2122 H 0.81559 0.77385 0.40228 0.0
C2123 C 0.98384 0.76426 0.35887 0.0
C2124 C 0.91218 0.74868 0.37837 0.0
H2125 H 0.81043 0.74734 0.38766 0.0
C2126 C 0.9362 0.74908 0.38646 0.0
C2127 C 0.86624 0.74819 0.37881 0.0
C2128 C 0.83873 0.74833 0.37034 0.0
C2129 C 0.91557 0.74876 0.39496 0.0
C2130 C 0.86967 0.74796 0.3954 0.0
C2131 C 0.84561 0.74782 0.38732 0.0
C2132 C 0.84607 0.74759 0.40421 0.0
C2133 C 0.94297 0.74954 0.40343 0.0
C2134 C 0.85009 0.73267 0.41011 0.0
C2135 C 0.82822 0.73249 0.41844 0.0
C2136 C 0.80203 0.74728 0.42105 0.0
C2137 C 0.79768 0.76212 0.41509 0.0
C2138 C 0.81929 0.76222 0.40674 0.0
H2139 H 0.97683 0.75387 0.40197 0.0
H2140 H 0.92862 0.75909 0.40844 0.0
H2141 H 0.94414 0.73584 0.40659 0.0
H2142 H 0.87011 0.72112 0.40826 0.0
H2143 H 0.83208 0.72083 0.42286 0.0
H2144 H 0.59708 0.47583 0.59954 0.0
H2145 H 0.63537 0.47669 0.61399 0.0
H2146 H 0.5469 0.51815 0.62348 0.0
H2147 H 0.51236 0.51891 0.60856 0.0
H2148 H 0.61704 0.52645 0.62978 0.0
H2149 H 0.60825 0.45285 0.6365 0.0
H2150 H 0.63809 0.45649 0.62627 0.0
H2151 H 0.58144 0.46292 0.62689 0.0
C2152 C 0.5864 0.48538 0.60465 0.0
C2153 C 0.55224 0.49754 0.60283 0.0
C2154 C 0.60768 0.48556 0.61304 0.0
C2155 C 0.59357 0.49709 0.62007 0.0
C2156 C 0.5588 0.50907 0.61827 0.0
H2157 H 0.68656 0.47638 0.67524 0.0
H2158 H 0.64621 0.47715 0.66102 0.0
C2159 C 0.53879 0.50945 0.60972 0.0
C2160 C 0.61572 0.49714 0.62915 0.0
H2161 H 0.65973 0.46951 0.6454 0.0
C2162 C 0.6257 0.51394 0.63323 0.0
C2163 C 0.62659 0.48094 0.6339 0.0
C2164 C 0.61252 0.46234 0.6307 0.0
C2165 C 0.64616 0.51501 0.64175 0.0
C2166 C 0.66017 0.49882 0.64614 0.0
C2167 C 0.64991 0.48203 0.64209 0.0
C2168 C 0.68434 0.49885 0.655 0.0
C2169 C 0.6507 0.53356 0.64605 0.0
C2170 C 0.71977 0.5106 0.65652 0.0
C2171 C 0.7412 0.51087 0.66491 0.0
C2172 C 0.72917 0.49878 0.67185 0.0
C2173 C 0.69563 0.48629 0.67016 0.0
C2174 C 0.67292 0.48656 0.66193 0.0
H2175 H 0.62492 0.54299 0.64363 0.0
H2176 H 0.64878 0.53282 0.65355 0.0
H2177 H 0.6824 0.53955 0.64409 0.0
H2178 H 0.73113 0.51958 0.65122 0.0
H2179 H 0.76765 0.52037 0.66592 0.0
H2180 H 0.79412 0.73855 0.61115 0.0
H2181 H 0.75727 0.73878 0.62586 0.0
H2182 H 0.63429 0.74708 0.61244 0.0
H2183 H 0.67132 0.74732 0.59776 0.0
H2184 H 0.63964 0.76816 0.627 0.0
H2185 H 0.68791 0.69828 0.63682 0.0
H2186 H 0.73379 0.71259 0.63453 0.0
H2187 H 0.6964 0.70709 0.62556 0.0
C2188 C 0.75923 0.74047 0.61135 0.0
C2189 C 0.7356 0.743 0.6033 0.0
C2190 C 0.7381 0.74044 0.61977 0.0
C2191 C 0.69274 0.74256 0.6203 0.0
C2192 C 0.66924 0.74536 0.61225 0.0
H2193 H 0.53518 0.7154 0.66766 0.0
H2194 H 0.57175 0.71613 0.65291 0.0
C2195 C 0.69044 0.74557 0.60384 0.0
C2196 C 0.66979 0.74208 0.62923 0.0
H2197 H 0.65512 0.71636 0.64831 0.0
C2198 C 0.64295 0.75679 0.63164 0.0
C2199 C 0.67335 0.72713 0.63526 0.0
C2200 C 0.69904 0.7103 0.63288 0.0
C2201 C 0.6202 0.75709 0.63991 0.0
C2202 C 0.62522 0.74249 0.64611 0.0
C2203 C 0.65156 0.72767 0.64364 0.0
C2204 C 0.60294 0.74216 0.65511 0.0
C2205 C 0.59015 0.77288 0.6418 0.0
C2206 C 0.60855 0.75641 0.66136 0.0
C2207 C 0.5872 0.75611 0.66974 0.0
C2208 C 0.56046 0.74138 0.67216 0.0
C2209 C 0.5555 0.72696 0.66599 0.0
C2210 C 0.57649 0.72735 0.65756 0.0
H2211 H 0.57979 0.77973 0.63544 0.0
H2212 H 0.56069 0.76839 0.64552 0.0
H2213 H 0.60745 0.78308 0.646 0.0
H2214 H 0.62964 0.76776 0.65978 0.0
H2215 H 0.59178 0.76742 0.67435 0.0
H2216 H 0.35377 0.51344 0.34786 0.0
H2217 H 0.3921 0.51274 0.36235 0.0
H2218 H 0.30494 0.47079 0.37177 0.0
H2219 H 0.27017 0.47003 0.35689 0.0
H2220 H 0.37591 0.52058 0.37799 0.0
H2221 H 0.41035 0.44707 0.37982 0.0
H2222 H 0.38798 0.45735 0.36979 0.0
H2223 H 0.35297 0.45056 0.37901 0.0
C2224 C 0.34371 0.50368 0.35294 0.0
C2225 C 0.30998 0.49135 0.35111 0.0
C2226 C 0.36529 0.50344 0.3613 0.0
C2227 C 0.35265 0.49129 0.3682 0.0
C2228 C 0.31716 0.47967 0.36651 0.0
H2229 H 0.4303 0.51301 0.42444 0.0
H2230 H 0.39496 0.51277 0.40964 0.0
C2231 C 0.29676 0.47941 0.35801 0.0
C2232 C 0.37562 0.49128 0.3772 0.0
H2233 H 0.41633 0.46349 0.39376 0.0
C2234 C 0.38523 0.50804 0.38135 0.0
C2235 C 0.38896 0.47505 0.38163 0.0
C2236 C 0.38497 0.45655 0.37727 0.0
C2237 C 0.40714 0.50905 0.38972 0.0
C2238 C 0.41738 0.4928 0.39448 0.0
C2239 C 0.40814 0.47604 0.39028 0.0
C2240 C 0.43817 0.49273 0.4037 0.0
C2241 C 0.42038 0.52762 0.39311 0.0
C2242 C 0.47288 0.48082 0.40565 0.0
C2243 C 0.4914 0.48018 0.41433 0.0
C2244 C 0.47652 0.49177 0.42123 0.0
C2245 C 0.44239 0.50386 0.41929 0.0
C2246 C 0.42267 0.50397 0.41072 0.0
H2247 H 0.4253 0.53725 0.3874 0.0
H2248 H 0.39408 0.53326 0.39741 0.0
H2249 H 0.45089 0.52703 0.39711 0.0
H2250 H 0.48579 0.47195 0.40045 0.0
H2251 H 0.51776 0.47074 0.41561 0.0
H2252 H 0.3376 0.22163 0.42341 0.0
H2253 H 0.37649 0.22148 0.40893 0.0
H2254 H 0.32538 0.27471 0.40276 0.0
H2255 H 0.28659 0.275 0.41729 0.0
H2256 H 0.3184 0.24847 0.38828 0.0
H2257 H 0.48549 0.25223 0.40244 0.0
H2258 H 0.4516 0.23464 0.40709 0.0
H2259 H 0.43789 0.25808 0.40897 0.0
C2260 C 0.33485 0.23335 0.41899 0.0
C2261 C 0.30926 0.24839 0.42152 0.0
C2262 C 0.35718 0.23326 0.41073 0.0
C2263 C 0.35426 0.24817 0.4048 0.0
C2264 C 0.32826 0.2631 0.40725 0.0
H2265 H 0.51098 0.27421 0.35751 0.0
H2266 H 0.47301 0.27392 0.37211 0.0
C2267 C 0.30615 0.26325 0.41555 0.0
C2268 C 0.37778 0.24807 0.39598 0.0
H2269 H 0.47939 0.2475 0.38661 0.0
C2270 C 0.35359 0.24826 0.38791 0.0
C2271 C 0.42371 0.24794 0.3955 0.0
C2272 C 0.45136 0.24836 0.40395 0.0
C2273 C 0.37408 0.24808 0.37938 0.0
C2274 C 0.42 0.24763 0.37891 0.0
C2275 C 0.4442 0.24769 0.38698 0.0
C2276 C 0.44349 0.24753 0.37009 0.0
C2277 C 0.34648 0.24868 0.37094 0.0
C2278 C 0.44 0.23268 0.36414 0.0
C2279 C 0.46192 0.23276 0.35581 0.0
C2280 C 0.48763 0.24773 0.35327 0.0
C2281 C 0.49138 0.26249 0.35927 0.0
C2282 C 0.46973 0.26234 0.36762 0.0
H2283 H 0.31247 0.25278 0.37243 0.0
H2284 H 0.36033 0.25832 0.36591 0.0
H2285 H 0.34583 0.23496 0.3678 0.0
H2286 H 0.42041 0.22099 0.36595 0.0
H2287 H 0.4585 0.22116 0.35134 0.0
H2288 H 0.7036 0.97335 0.17409 0.0
H2289 H 0.66664 0.97374 0.15936 0.0
H2290 H 0.72072 0.02665 0.15375 0.0
H2291 H 0.7575 0.02641 0.1685 0.0
H2292 H 0.60545 -8e-05 0.15236 0.0
H2293 H 0.75474 -0.00451 0.13134 0.0
H2294 H 0.75424 0.98987 0.14325 0.0
H2295 H 0.75462 0.01326 0.13971 0.0
C2296 C 0.70754 0.98509 0.16973 0.0
C2297 C 0.73352 -0.00015 0.17246 0.0
C2298 C 0.6864 0.98529 0.16131 0.0
C2299 C 0.69128 0.00013 0.15539 0.0
C2300 C 0.71698 0.01493 0.15813 0.0
H2301 H 0.53637 0.02735 0.10757 0.0
H2302 H 0.57296 0.02714 0.12235 0.0
C2303 C 0.73786 0.0148 0.16658 0.0
C2304 C 0.6692 0.00016 0.14639 0.0
H2305 H 0.68841 0.00037 0.12355 0.0
C2306 C 0.62358 3e-05 0.14606 0.0
C2307 C 0.69283 9e-05 0.13816 0.0
C2308 C 0.74182 -0.00047 0.13807 0.0
C2309 C 0.60103 0.00011 0.13776 0.0
C2310 C 0.62466 0.00044 0.12953 0.0
C2311 C 0.67028 0.00028 0.12985 0.0
C2312 C 0.60261 0.00068 0.12053 0.0
C2313 C 0.55204 -0.00043 0.13784 0.0
C2314 C 0.60764 0.98604 0.1145 0.0
C2315 C 0.58662 0.98611 0.10607 0.0
C2316 C 0.56059 0.00094 0.10343 0.0
C2317 C 0.55606 0.0157 0.10942 0.0
C2318 C 0.57683 0.01556 0.11788 0.0
H2319 H 0.53913 -0.00469 0.14454 0.0
H2320 H 0.53921 0.01335 0.1363 0.0
H2321 H 0.53965 0.99008 0.13259 0.0
H2322 H 0.62747 0.97444 0.11637 0.0
H2323 H 0.59071 0.97451 0.10162 0.0
H2324 H 0.75498 0.21314 0.10699 0.0
H2325 H 0.71629 0.21301 0.12152 0.0
H2326 H 0.66312 0.26597 0.11552 0.0
H2327 H 0.70182 0.26622 0.10102 0.0
H2328 H 0.72242 0.23861 0.13607 0.0
H2329 H 0.55517 0.23508 0.12201 0.0
H2330 H 0.60273 0.22974 0.11536 0.0
H2331 H 0.58837 0.25303 0.11751 0.0
C2332 C 0.73498 0.22474 0.10876 0.0
C2333 C 0.73122 0.23963 0.10283 0.0
C2334 C 0.71291 0.22465 0.11707 0.0
C2335 C 0.68633 0.23937 0.11957 0.0
C2336 C 0.68281 0.25432 0.11368 0.0
H2337 H 0.58423 0.26605 0.17313 0.0
H2338 H 0.62185 0.266 0.15848 0.0
C2339 C 0.70507 0.25447 0.1054 0.0
C2340 C 0.66292 0.23924 0.12841 0.0
H2341 H 0.56147 0.23981 0.13786 0.0
C2342 C 0.68724 0.23885 0.13646 0.0
C2343 C 0.61698 0.2394 0.12892 0.0
C2344 C 0.58914 0.23918 0.1205 0.0
C2345 C 0.66691 0.23889 0.145 0.0
C2346 C 0.621 0.23943 0.14552 0.0
C2347 C 0.59665 0.23954 0.13746 0.0
C2348 C 0.59768 0.23963 0.15436 0.0
C2349 C 0.69468 0.23811 0.15342 0.0
C2350 C 0.57091 0.22499 0.15685 0.0
C2351 C 0.54949 0.22496 0.16523 0.0
C2352 C 0.55402 0.23968 0.17124 0.0
C2353 C 0.58022 0.25448 0.16866 0.0
C2354 C 0.60188 0.25444 0.16031 0.0
H2355 H 0.72848 0.23379 0.15189 0.0
H2356 H 0.69596 0.25182 0.15655 0.0
H2357 H 0.6806 0.22857 0.15846 0.0
H2358 H 0.56706 0.21345 0.15236 0.0
H2359 H 0.52949 0.21338 0.16701 0.0
H2360 H 0.27179 0.97091 0.85892 0.0
H2361 H 0.30559 0.97211 0.87388 0.0
H2362 H 0.39316 0.01383 0.86435 0.0
H2363 H 0.35541 0.01424 0.8498 0.0
H2364 H 0.37546 0.96395 0.88017 0.0
H2365 H 0.36603 0.03757 0.88686 0.0
H2366 H 0.33952 0.0275 0.87723 0.0
H2367 H 0.3962 0.03385 0.87668 0.0
C2368 C 0.29783 0.98054 0.86008 0.0
C2369 C 0.31122 0.99236 0.85314 0.0
C2370 C 0.31744 0.98117 0.86865 0.0
C2371 C 0.35186 0.99328 0.87045 0.0
C2372 C 0.36579 0.00482 0.86339 0.0
H2373 H 0.52292 0.96975 0.91683 0.0
H2374 H 0.48777 0.97074 0.90199 0.0
C2375 C 0.34483 0.00475 0.85495 0.0
C2376 C 0.37386 0.99327 0.87955 0.0
H2377 H 0.41662 0.02084 0.89595 0.0
C2378 C 0.38377 0.97646 0.88365 0.0
C2379 C 0.38437 0.00945 0.88432 0.0
C2380 C 0.37047 0.02806 0.88108 0.0
C2381 C 0.40359 0.97535 0.89224 0.0
C2382 C 0.41715 0.99153 0.89668 0.0
C2383 C 0.40711 0.00834 0.89259 0.0
C2384 C 0.44059 0.99144 0.90562 0.0
C2385 C 0.40788 0.95678 0.89653 0.0
C2386 C 0.42852 0.00365 0.91253 0.0
C2387 C 0.45046 0.00381 0.92086 0.0
C2388 C 0.48387 0.99128 0.92265 0.0
C2389 C 0.49654 0.97927 0.91574 0.0
C2390 C 0.47589 0.97966 0.90726 0.0
H2391 H 0.38234 0.94736 0.89402 0.0
H2392 H 0.43976 0.9508 0.89468 0.0
H2393 H 0.40533 0.95749 0.90402 0.0
H2394 H 0.40189 0.01309 0.91153 0.0
H2395 H 0.44093 0.01366 0.92592 0.0
H2396 H 0.5208 0.76769 0.85837 0.0
H2397 H 0.48732 0.76637 0.87336 0.0
H2398 H 0.39789 0.72547 0.8637 0.0
H2399 H 0.43513 0.72519 0.84911 0.0
H2400 H 0.41768 0.77482 0.87973 0.0
H2401 H 0.42512 0.70102 0.88607 0.0
H2402 H 0.45174 0.71118 0.87648 0.0
H2403 H 0.39489 0.7051 0.87593 0.0
C2404 C 0.4944 0.75822 0.8595 0.0
C2405 C 0.48035 0.74665 0.85252 0.0
C2406 C 0.475 0.75752 0.86809 0.0
C2407 C 0.44019 0.74558 0.86986 0.0
C2408 C 0.42559 0.73432 0.86276 0.0
H2409 H 0.2691 0.76905 0.91605 0.0
H2410 H 0.30467 0.76797 0.90127 0.0
C2411 C 0.44627 0.73446 0.8543 0.0
C2412 C 0.41842 0.74551 0.87898 0.0
H2413 H 0.375 0.7178 0.89526 0.0
C2414 C 0.40902 0.76228 0.88316 0.0
C2415 C 0.40751 0.72927 0.88368 0.0
C2416 C 0.42085 0.71067 0.88034 0.0
C2417 C 0.38918 0.7633 0.89173 0.0
C2418 C 0.37515 0.7471 0.89609 0.0
C2419 C 0.38483 0.73032 0.89195 0.0
C2420 C 0.3514 0.74715 0.90499 0.0
C2421 C 0.38532 0.78179 0.89611 0.0
C2422 C 0.36306 0.73488 0.91192 0.0
C2423 C 0.34091 0.73479 0.92022 0.0
C2424 C 0.30768 0.74743 0.92195 0.0
C2425 C 0.29534 0.75945 0.91501 0.0
C2426 C 0.31622 0.75901 0.90657 0.0
H2427 H 0.41118 0.79114 0.89368 0.0
H2428 H 0.35365 0.78798 0.89425 0.0
H2429 H 0.38766 0.78092 0.9036 0.0
H2430 H 0.38957 0.72537 0.91096 0.0
H2431 H 0.35021 0.72495 0.92532 0.0
H2432 H 0.13045 0.70013 0.08022 0.0
H2433 H 0.10775 0.66819 0.0795 0.0
H2434 H 0.22515 0.65473 0.06503 0.0
H2435 H 0.24764 0.68643 0.06553 0.0
H2436 H 0.15324 0.63842 0.05776 0.0
H2437 H 0.16134 0.6278 0.09499 0.0
H2438 H 0.12626 0.64605 0.0915 0.0
H2439 H 0.18376 0.64766 0.08953 0.0
C2440 C 0.15125 0.69039 0.07683 0.0
C2441 C 0.19102 0.69581 0.07301 0.0
C2442 C 0.13839 0.67214 0.07648 0.0
C2443 C 0.16523 0.65909 0.07236 0.0
C2444 C 0.20413 0.66459 0.06828 0.0
H2445 H 0.15395 0.54173 0.07983 0.0
H2446 H 0.17764 0.57352 0.07905 0.0
C2447 C 0.21692 0.68275 0.0686 0.0
C2448 C 0.15343 0.63959 0.07234 0.0
H2449 H 0.13442 0.6033 0.08621 0.0
C2450 C 0.14911 0.63072 0.06398 0.0
C2451 C 0.14899 0.62955 0.08046 0.0
C2452 C 0.1557 0.63817 0.08964 0.0
C2453 C 0.13985 0.61207 0.06351 0.0
C2454 C 0.13393 0.60217 0.07163 0.0
C2455 C 0.13884 0.61098 0.08 0.0
C2456 C 0.12118 0.58278 0.07161 0.0
C2457 C 0.13714 0.60309 0.05433 0.0
C2458 C 0.08173 0.57754 0.06767 0.0
C2459 C 0.06825 0.55946 0.06806 0.0
C2460 C 0.09376 0.54628 0.07249 0.0
C2461 C 0.13362 0.55152 0.07634 0.0
C2462 C 0.14714 0.56967 0.07593 0.0
H2463 H 0.15487 0.61103 0.0491 0.0
H2464 H 0.15064 0.58908 0.05453 0.0
H2465 H 0.10258 0.60226 0.05223 0.0
H2466 H 0.06081 0.58751 0.06447 0.0
H2467 H 0.03729 0.55595 0.06504 0.0
H2468 H 0.16145 0.69779 0.19445 0.0
H2469 H 0.1821 0.66557 0.19485 0.0
H2470 H 0.06523 0.65308 0.20971 0.0
H2471 H 0.04482 0.68505 0.20953 0.0
H2472 H 0.13643 0.63574 0.21659 0.0
H2473 H 0.12505 0.62622 0.17934 0.0
H2474 H 0.16156 0.64397 0.18279 0.0
H2475 H 0.10435 0.6462 0.18499 0.0
C2476 C 0.14032 0.68819 0.19785 0.0
C2477 C 0.10133 0.69398 0.20189 0.0
C2478 C 0.152 0.66979 0.19802 0.0
C2479 C 0.12471 0.65694 0.20216 0.0
C2480 C 0.08657 0.66278 0.20643 0.0
H2481 H 0.13249 0.53969 0.19376 0.0
H2482 H 0.10902 0.57149 0.19491 0.0
C2483 C 0.07498 0.6811 0.20631 0.0
C2484 C 0.13536 0.63733 0.20202 0.0
H2485 H 0.15205 0.6013 0.18788 0.0
C2486 C 0.13981 0.62819 0.21032 0.0
C2487 C 0.1388 0.62748 0.19383 0.0
C2488 C 0.1318 0.63639 0.18473 0.0
C2489 C 0.14837 0.60946 0.21065 0.0
C2490 C 0.15346 0.59976 0.20245 0.0
C2491 C 0.14828 0.60883 0.19415 0.0
C2492 C 0.16591 0.58034 0.20231 0.0
C2493 C 0.15132 0.60022 0.21976 0.0
C2494 C 0.2055 0.57486 0.20612 0.0
C2495 C 0.21886 0.55678 0.20552 0.0
C2496 C 0.19307 0.54384 0.201 0.0
C2497 C 0.15303 0.54931 0.1973 0.0
C2498 C 0.13963 0.56745 0.19793 0.0
H2499 H 0.13391 0.60806 0.22507 0.0
H2500 H 0.13762 0.58625 0.2195 0.0
H2501 H 0.18595 0.59922 0.2218 0.0
H2502 H 0.22667 0.58466 0.20936 0.0
H2503 H 0.24995 0.5531 0.20843 0.0
H2504 H 0.79119 0.3048 0.95968 0.0
H2505 H 0.81293 0.33659 0.96 0.0
H2506 H 0.92959 0.32342 0.94521 0.0
H2507 H 0.9076 0.29138 0.94466 0.0
H2508 H 0.88467 0.35337 0.96696 0.0
H2509 H 0.87406 0.36328 0.92971 0.0
H2510 H 0.85261 0.34339 0.93532 0.0
H2511 H 0.90992 0.34529 0.93319 0.0
C2512 C 0.8216 0.30856 0.95651 0.0
C2513 C 0.84747 0.29555 0.95205 0.0
C2514 C 0.83396 0.32678 0.95671 0.0
C2515 C 0.8724 0.33238 0.95249 0.0
C2516 C 0.89927 0.31938 0.94834 0.0
H2517 H 0.99805 0.43617 0.95906 0.0
H2518 H 0.97531 0.40453 0.95983 0.0
C2519 C 0.88683 0.30108 0.94809 0.0
C2520 C 0.8837 0.35193 0.95239 0.0
H2521 H 0.90094 0.38805 0.93832 0.0
C2522 C 0.88824 0.36097 0.96071 0.0
C2523 C 0.88739 0.36184 0.94421 0.0
C2524 C 0.88036 0.35303 0.9351 0.0
C2525 C 0.89701 0.37967 0.96107 0.0
C2526 C 0.90221 0.38945 0.95289 0.0
C2527 C 0.89708 0.38046 0.94458 0.0
C2528 C 0.9145 0.40888 0.95279 0.0
C2529 C 0.89995 0.38883 0.9702 0.0
C2530 C 0.88804 0.4218 0.94846 0.0
C2531 C 0.90112 0.43999 0.94793 0.0
C2532 C 0.94102 0.44547 0.95168 0.0
C2533 C 0.96704 0.43248 0.95612 0.0
C2534 C 0.95401 0.41436 0.95663 0.0
H2535 H 0.88264 0.38092 0.9755 0.0
H2536 H 0.93458 0.38983 0.97223 0.0
H2537 H 0.88614 0.40279 0.96997 0.0
H2538 H 0.85749 0.41776 0.94542 0.0
H2539 H 0.8804 0.44963 0.94444 0.0
H2540 H 0.7886 0.4349 0.81507 0.0
H2541 H 0.8105 0.40309 0.81471 0.0
H2542 H 0.92743 0.41625 0.82943 0.0
H2543 H 0.90532 0.44827 0.83001 0.0
H2544 H 0.88255 0.38628 0.80772 0.0
H2545 H 0.872 0.37641 0.84496 0.0
H2546 H 0.8503 0.39625 0.83934 0.0
H2547 H 0.90763 0.39447 0.84151 0.0
C2548 C 0.8191 0.43113 0.81822 0.0
C2549 C 0.84502 0.44414 0.82266 0.0
C2550 C 0.83155 0.41291 0.81799 0.0
C2551 C 0.87012 0.40729 0.82219 0.0
C2552 C 0.89702 0.42029 0.82632 0.0
H2553 H 0.99855 0.30405 0.81575 0.0
H2554 H 0.97478 0.33558 0.81496 0.0
C2555 C 0.88451 0.43859 0.82659 0.0
C2556 C 0.88154 0.38775 0.82229 0.0
H2557 H 0.89965 0.35172 0.83638 0.0
C2558 C 0.88628 0.3787 0.81398 0.0
C2559 C 0.88543 0.37787 0.83047 0.0
C2560 C 0.87819 0.38667 0.83958 0.0
C2561 C 0.89557 0.36003 0.81363 0.0
C2562 C 0.90105 0.3503 0.82182 0.0
C2563 C 0.89559 0.35927 0.83012 0.0
C2564 C 0.91399 0.33093 0.82193 0.0
C2565 C 0.89885 0.35087 0.80451 0.0
C2566 C 0.88789 0.31787 0.82624 0.0
C2567 C 0.90154 0.29975 0.82678 0.0
C2568 C 0.94168 0.29446 0.82307 0.0
C2569 C 0.96738 0.30759 0.81866 0.0
C2570 C 0.95375 0.32565 0.81814 0.0
H2571 H 0.88138 0.3587 0.79919 0.0
H2572 H 0.93353 0.35 0.8025 0.0
H2573 H 0.88541 0.33686 0.80474 0.0
H2574 H 0.85715 0.32176 0.82925 0.0
H2575 H 0.88105 0.29 0.83024 0.0
H2576 H 0.1525 0.03956 0.58131 0.0
H2577 H 0.1726 0.07182 0.58086 0.0
H2578 H 0.05868 0.08356 0.56485 0.0
H2579 H 0.03885 0.05153 0.56508 0.0
H2580 H 0.13112 0.10086 0.55854 0.0
H2581 H 0.11121 0.11149 0.59555 0.0
H2582 H 0.14855 0.09364 0.59262 0.0
H2583 H 0.09195 0.09133 0.58984 0.0
C2584 C 0.13197 0.04899 0.57763 0.0
C2585 C 0.09389 0.04299 0.5733 0.0
C2586 C 0.14328 0.06742 0.57745 0.0
C2587 C 0.11656 0.08007 0.57299 0.0
C2588 C 0.07951 0.07401 0.56839 0.0
H2589 H 0.12724 0.19822 0.57985 0.0
H2590 H 0.10156 0.16663 0.5791 0.0
C2591 C 0.06826 0.05567 0.56855 0.0
C2592 C 0.12681 0.0997 0.57309 0.0
H2593 H 0.14088 0.1361 0.58713 0.0
C2594 C 0.13314 0.10859 0.56478 0.0
C2595 C 0.1284 0.10979 0.58124 0.0
C2596 C 0.11926 0.10115 0.59032 0.0
C2597 C 0.14217 0.12725 0.56442 0.0
C2598 C 0.14573 0.13716 0.57259 0.0
C2599 C 0.13828 0.1284 0.58088 0.0
C2600 C 0.15984 0.15635 0.57269 0.0
C2601 C 0.1476 0.13621 0.55528 0.0
C2602 C 0.20103 0.16088 0.56938 0.0
C2603 C 0.21566 0.17877 0.56977 0.0
C2604 C 0.18951 0.1925 0.57356 0.0
C2605 C 0.14805 0.18797 0.57685 0.0
C2606 C 0.13339 0.16996 0.57645 0.0
H2607 H 0.13112 0.12835 0.54985 0.0
H2608 H 0.13445 0.15029 0.55531 0.0
H2609 H 0.1827 0.13688 0.5536 0.0
H2610 H 0.22227 0.1505 0.56663 0.0
H2611 H 0.24784 0.18174 0.5672 0.0
H2612 H 0.15746 0.2002 0.69471 0.0
H2613 H 0.17958 0.16816 0.69528 0.0
H2614 H 0.06323 0.15503 0.71017 0.0
H2615 H 0.04138 0.18683 0.70984 0.0
H2616 H 0.13513 0.13818 0.71706 0.0
H2617 H 0.1237 0.12838 0.67983 0.0
H2618 H 0.15961 0.14635 0.68326 0.0
H2619 H 0.10235 0.14826 0.68545 0.0
C2620 C 0.1368 0.19051 0.69817 0.0
C2621 C 0.09748 0.19606 0.70215 0.0
C2622 C 0.14931 0.17221 0.69843 0.0
C2623 C 0.12254 0.15921 0.7026 0.0
C2624 C 0.08417 0.16484 0.70686 0.0
H2625 H 0.13103 0.04184 0.69471 0.0
H2626 H 0.10796 0.07373 0.69558 0.0
C2627 C 0.07174 0.18306 0.70665 0.0
C2628 C 0.13384 0.13967 0.7025 0.0
H2629 H 0.15092 0.10358 0.6884 0.0
C2630 C 0.13859 0.13059 0.7108 0.0
C2631 C 0.13738 0.12978 0.69431 0.0
C2632 C 0.13011 0.13861 0.6852 0.0
C2633 C 0.14745 0.11189 0.71115 0.0
C2634 C 0.15254 0.10214 0.70297 0.0
C2635 C 0.14715 0.11115 0.69466 0.0
C2636 C 0.16507 0.08273 0.70287 0.0
C2637 C 0.15066 0.10272 0.72028 0.0
C2638 C 0.20473 0.07732 0.70666 0.0
C2639 C 0.21786 0.0592 0.70622 0.0
C2640 C 0.19177 0.04613 0.70188 0.0
C2641 C 0.1518 0.05155 0.69813 0.0
C2642 C 0.13863 0.06975 0.6986 0.0
H2643 H 0.13338 0.11059 0.7256 0.0
H2644 H 0.13696 0.08875 0.72006 0.0
H2645 H 0.18534 0.10173 0.72228 0.0
H2646 H 0.22603 0.0872 0.70981 0.0
H2647 H 0.24894 0.05557 0.70916 0.0
H2648 H 0.78369 0.80477 0.45734 0.0
H2649 H 0.80879 0.83607 0.45811 0.0
H2650 H 0.92886 0.82073 0.44512 0.0
H2651 H 0.90357 0.78913 0.44414 0.0
H2652 H 0.88115 0.85084 0.46636 0.0
H2653 H 0.88209 0.86212 0.4291 0.0
H2654 H 0.85628 0.84266 0.43426 0.0
H2655 H 0.9143 0.84326 0.43299 0.0
C2656 C 0.81552 0.80795 0.45464 0.0
C2657 C 0.84153 0.79446 0.4506 0.0
C2658 C 0.82981 0.82587 0.45512 0.0
C2659 C 0.87032 0.83071 0.45156 0.0
C2660 C 0.89709 0.81726 0.44776 0.0
H2661 H 0.99774 0.93397 0.46016 0.0
H2662 H 0.97523 0.90225 0.46053 0.0
C2663 C 0.88273 0.79923 0.44725 0.0
C2664 C 0.88375 0.84998 0.45179 0.0
H2665 H 0.90619 0.88644 0.43828 0.0
C2666 C 0.88678 0.85864 0.46023 0.0
C2667 C 0.89021 0.86011 0.44376 0.0
C2668 C 0.88523 0.85166 0.4345 0.0
C2669 C 0.89628 0.87724 0.46087 0.0
C2670 C 0.90368 0.88728 0.45285 0.0
C2671 C 0.90052 0.87864 0.44441 0.0
C2672 C 0.91568 0.90671 0.45306 0.0
C2673 C 0.89739 0.88605 0.4701 0.0
C2674 C 0.88973 0.91971 0.44866 0.0
C2675 C 0.90264 0.93792 0.44836 0.0
C2676 C 0.94188 0.94335 0.45242 0.0
C2677 C 0.96727 0.9303 0.45698 0.0
C2678 C 0.95439 0.91214 0.45725 0.0
H2679 H 0.87933 0.87789 0.4752 0.0
H2680 H 0.93162 0.88712 0.4724 0.0
H2681 H 0.88333 0.89996 0.46988 0.0
H2682 H 0.85978 0.9157 0.44536 0.0
H2683 H 0.88242 0.94762 0.44478 0.0
H2684 H 0.88431 0.78937 0.3296 0.0
H2685 H 0.85989 0.82103 0.3284 0.0
H2686 H 0.97673 0.83468 0.31379 0.0
H2687 H 1.00093 0.80325 0.31477 0.0
H2688 H 0.9026 0.85068 0.33545 0.0
H2689 H 0.88346 0.85835 0.29833 0.0
H2690 H 0.88768 0.83641 0.30377 0.0
H2691 H 0.93574 0.84956 0.30148 0.0
C2692 C 0.90443 0.79905 0.326 0.0
C2693 C 0.94458 0.79377 0.32229 0.0
C2694 C 0.89049 0.81711 0.32534 0.0
C2695 C 0.91631 0.83011 0.32091 0.0
C2696 C 0.9559 0.82479 0.31706 0.0
H2697 H 0.91134 0.94716 0.32976 0.0
H2698 H 0.93266 0.91508 0.32883 0.0
C2699 C 0.96979 0.80679 0.31769 0.0
C2700 C 0.90368 0.84951 0.32088 0.0
H2701 H 0.88635 0.88587 0.30695 0.0
C2702 C 0.89867 0.85837 0.32923 0.0
C2703 C 0.89841 0.85943 0.31274 0.0
C2704 C 0.90117 0.85041 0.30357 0.0
C2705 C 0.88922 0.87701 0.32967 0.0
C2706 C 0.88565 0.88707 0.32153 0.0
C2707 C 0.88987 0.87814 0.31318 0.0
C2708 C 0.87502 0.90668 0.32154 0.0
C2709 C 0.88238 0.88567 0.33883 0.0
C2710 C 0.83659 0.91264 0.31741 0.0
C2711 C 0.8246 0.93089 0.31783 0.0
C2712 C 0.85084 0.94358 0.32242 0.0
C2713 C 0.89029 0.93772 0.32624 0.0
C2714 C 0.90235 0.91939 0.32578 0.0
H2715 H 0.87574 0.87535 0.34415 0.0
H2716 H 0.91217 0.89319 0.34079 0.0
H2717 H 0.85492 0.89547 0.33864 0.0
H2718 H 0.81523 0.90305 0.31405 0.0
H2719 H 0.79415 0.93492 0.31475 0.0
H2720 H 0.5407 0.55196 0.56354 0.0
H2721 H 0.56118 0.58401 0.56313 0.0
H2722 H 0.66277 0.57379 0.58261 0.0
H2723 H 0.64241 0.54156 0.58313 0.0
H2724 H 0.60313 0.60394 0.58662 0.0
H2725 H 0.67347 0.60668 0.55194 0.0
H2726 H 0.62109 0.59602 0.55293 0.0
H2727 H 0.66758 0.58566 0.55817 0.0
C2728 C 0.56767 0.55645 0.56769 0.0
C2729 C 0.58994 0.54423 0.57338 0.0
C2730 C 0.57935 0.57475 0.56742 0.0
C2731 C 0.61351 0.58114 0.57281 0.0
C2732 C 0.63632 0.569 0.57839 0.0
H2733 H 0.7538 0.68048 0.572 0.0
H2734 H 0.7266 0.64952 0.57146 0.0
C2735 C 0.6248 0.55062 0.57864 0.0
C2736 C 0.62437 0.60066 0.57283 0.0
H2737 H 0.66555 0.63462 0.55967 0.0
C2738 C 0.61675 0.61071 0.58075 0.0
C2739 C 0.64203 0.6093 0.56513 0.0
C2740 C 0.6519 0.59889 0.55656 0.0
C2741 C 0.6268 0.6293 0.58119 0.0
C2742 C 0.64439 0.63797 0.57347 0.0
C2743 C 0.6516 0.62791 0.56553 0.0
C2744 C 0.65953 0.657 0.57374 0.0
C2745 C 0.61981 0.63937 0.58998 0.0
C2746 C 0.63059 0.67151 0.57514 0.0
C2747 C 0.64609 0.6894 0.57549 0.0
C2748 C 0.69067 0.69296 0.57439 0.0
C2749 C 0.71925 0.67832 0.57287 0.0
C2750 C 0.70381 0.66056 0.57255 0.0
H2751 H 0.61363 0.62995 0.59572 0.0
H2752 H 0.6485 0.64791 0.59163 0.0
H2753 H 0.59128 0.64851 0.58928 0.0
H2754 H 0.59614 0.669 0.57593 0.0
H2755 H 0.62324 0.70039 0.57663 0.0
H2756 H 0.74759 0.55521 0.709 0.0
H2757 H 0.72491 0.58686 0.70973 0.0
H2758 H 0.60763 0.5738 0.69512 0.0
H2759 H 0.63051 0.54189 0.69418 0.0
H2760 H 0.65113 0.60367 0.68817 0.0
H2761 H 0.63176 0.61024 0.72535 0.0
H2762 H 0.68385 0.60136 0.72213 0.0
H2763 H 0.63551 0.58845 0.71975 0.0
C2764 C 0.71672 0.55893 0.706 0.0
C2765 C 0.69082 0.54597 0.70153 0.0
C2766 C 0.70372 0.57706 0.70648 0.0
C2767 C 0.66435 0.5826 0.7026 0.0
C2768 C 0.63806 0.56972 0.69821 0.0
H2769 H 0.54115 0.68672 0.70965 0.0
H2770 H 0.5631 0.65494 0.70999 0.0
C2771 C 0.65112 0.55151 0.6977 0.0
C2772 C 0.65203 0.60204 0.70274 0.0
H2773 H 0.63442 0.63794 0.71691 0.0
C2774 C 0.64716 0.61116 0.69445 0.0
C2775 C 0.64668 0.6117 0.71094 0.0
C2776 C 0.64929 0.6024 0.72005 0.0
C2777 C 0.63763 0.62982 0.69414 0.0
C2778 C 0.63384 0.63962 0.70234 0.0
C2779 C 0.63809 0.63043 0.71063 0.0
C2780 C 0.62261 0.65918 0.70249 0.0
C2781 C 0.63086 0.63877 0.68504 0.0
C2782 C 0.64948 0.67221 0.69837 0.0
C2783 C 0.63691 0.69051 0.69811 0.0
C2784 C 0.59741 0.69601 0.70203 0.0
C2785 C 0.57164 0.68298 0.70649 0.0
C2786 C 0.58412 0.66477 0.70671 0.0
H2787 H 0.62458 0.62861 0.67962 0.0
H2788 H 0.60319 0.64847 0.68527 0.0
H2789 H 0.66054 0.64648 0.68318 0.0
H2790 H 0.67985 0.66819 0.69525 0.0
H2791 H 0.65761 0.70021 0.69467 0.0
H2792 H 0.49638 0.43315 0.45765 0.0
H2793 H 0.47355 0.40155 0.45816 0.0
H2794 H 0.35192 0.41592 0.4455 0.0
H2795 H 0.37498 0.44787 0.44477 0.0
H2796 H 0.40353 0.38542 0.46635 0.0
H2797 H 0.40018 0.37581 0.429 0.0
H2798 H 0.4247 0.39542 0.43427 0.0
H2799 H 0.36667 0.394 0.43316 0.0
C2800 C 0.46467 0.42971 0.45498 0.0
C2801 C 0.43761 0.44303 0.45109 0.0
C2802 C 0.45168 0.4116 0.4553 0.0
C2803 C 0.41141 0.40639 0.45175 0.0
C2804 C 0.38354 0.41967 0.44812 0.0
H2805 H 0.29007 0.30199 0.45982 0.0
H2806 H 0.31207 0.33373 0.46043 0.0
C2807 C 0.3966 0.4379 0.44776 0.0
C2808 C 0.39943 0.38693 0.4518 0.0
H2809 H 0.37817 0.35082 0.43799 0.0
C2810 C 0.39786 0.37784 0.46016 0.0
C2811 C 0.39299 0.37708 0.44369 0.0
C2812 C 0.39656 0.38599 0.43451 0.0
C2813 C 0.38973 0.3591 0.46063 0.0
C2814 C 0.38213 0.34934 0.45254 0.0
C2815 C 0.38398 0.3584 0.44418 0.0
C2816 C 0.3707 0.32984 0.4526 0.0
C2817 C 0.39015 0.34989 0.46977 0.0
C2818 C 0.39629 0.31713 0.44791 0.0
C2819 C 0.38363 0.29888 0.44747 0.0
C2820 C 0.345 0.29315 0.45166 0.0
C2821 C 0.32005 0.3059 0.45651 0.0
C2822 C 0.33267 0.32407 0.45693 0.0
H2823 H 0.40874 0.35791 0.47484 0.0
H2824 H 0.3563 0.34857 0.47227 0.0
H2825 H 0.40452 0.33605 0.46933 0.0
H2826 H 0.42572 0.3214 0.44449 0.0
H2827 H 0.40346 0.28942 0.44366 0.0
H2828 H 0.38682 0.28919 0.33003 0.0
H2829 H 0.35967 0.32053 0.32891 0.0
H2830 H 0.47882 0.33682 0.31587 0.0
H2831 H 0.50585 0.30579 0.31681 0.0
H2832 H 0.39812 0.35149 0.33647 0.0
H2833 H 0.38576 0.35784 0.29916 0.0
H2834 H 0.3904 0.33613 0.30481 0.0
H2835 H 0.43794 0.3498 0.30285 0.0
C2836 C 0.40696 0.29942 0.32682 0.0
C2837 C 0.44843 0.295 0.32349 0.0
C2838 C 0.39146 0.31728 0.32621 0.0
C2839 C 0.41706 0.33087 0.32219 0.0
C2840 C 0.45823 0.32644 0.31881 0.0
H2841 H 0.40697 0.44772 0.3297 0.0
H2842 H 0.42743 0.41549 0.32951 0.0
C2843 C 0.4737 0.30868 0.31942 0.0
C2844 C 0.40216 0.34995 0.32193 0.0
H2845 H 0.38512 0.38565 0.30759 0.0
C2846 C 0.39482 0.35895 0.33017 0.0
C2847 C 0.39764 0.35954 0.31368 0.0
C2848 C 0.40292 0.35029 0.30462 0.0
C2849 C 0.38415 0.3775 0.33038 0.0
C2850 C 0.38165 0.38728 0.32214 0.0
C2851 C 0.38782 0.37815 0.3139 0.0
C2852 C 0.37096 0.40686 0.3219 0.0
C2853 C 0.37523 0.38639 0.3394 0.0
C2854 C 0.33348 0.41269 0.31737 0.0
C2855 C 0.32199 0.43102 0.31737 0.0
C2856 C 0.34784 0.44391 0.32191 0.0
C2857 C 0.38626 0.43812 0.32619 0.0
C2858 C 0.3978 0.41972 0.32615 0.0
H2859 H 0.36773 0.37619 0.34473 0.0
H2860 H 0.40442 0.39409 0.34157 0.0
H2861 H 0.34763 0.39609 0.3389 0.0
H2862 H 0.31255 0.40297 0.31398 0.0
H2863 H 0.29229 0.43499 0.31396 0.0
H2864 H 0.65834 0.04114 0.08038 0.0
H2865 H 0.68128 0.07302 0.07943 0.0
H2866 H 0.56493 0.0861 0.06449 0.0
H2867 H 0.54223 0.05444 0.0652 0.0
H2868 H 0.63725 0.10268 0.05749 0.0
H2869 H 0.62552 0.1132 0.09467 0.0
H2870 H 0.66124 0.09507 0.09134 0.0
H2871 H 0.60397 0.09328 0.08912 0.0
C2872 C 0.63788 0.05077 0.07681 0.0
C2873 C 0.59824 0.04527 0.07295 0.0
C2874 C 0.65087 0.06898 0.07634 0.0
C2875 C 0.6243 0.08194 0.07205 0.0
C2876 C 0.58572 0.07633 0.06788 0.0
H2877 H 0.63342 0.19916 0.07987 0.0
H2878 H 0.61003 0.16737 0.0788 0.0
C2879 C 0.57279 0.05819 0.06832 0.0
C2880 C 0.63581 0.10146 0.07206 0.0
H2881 H 0.65289 0.13777 0.08601 0.0
C2882 C 0.64071 0.11038 0.06372 0.0
C2883 C 0.63931 0.1115 0.0802 0.0
C2884 C 0.63185 0.10286 0.08935 0.0
C2885 C 0.64968 0.12906 0.06329 0.0
C2886 C 0.65467 0.13896 0.07144 0.0
C2887 C 0.64917 0.1301 0.07978 0.0
C2888 C 0.66707 0.15839 0.07148 0.0
C2889 C 0.65303 0.13807 0.05413 0.0
C2890 C 0.70672 0.1638 0.0677 0.0
C2891 C 0.72004 0.18189 0.06825 0.0
C2892 C 0.69416 0.1949 0.07271 0.0
C2893 C 0.65406 0.1895 0.07638 0.0
C2894 C 0.6407 0.17135 0.07579 0.0
H2895 H 0.63579 0.13013 0.04883 0.0
H2896 H 0.63938 0.15206 0.05428 0.0
H2897 H 0.68774 0.13897 0.05215 0.0
H2898 H 0.72798 0.15394 0.06452 0.0
H2899 H 0.75119 0.18552 0.06537 0.0
H2900 H 0.53592 0.18166 0.2075 0.0
H2901 H 0.56196 0.15049 0.20854 0.0
H2902 H 0.68222 0.16609 0.19573 0.0
H2903 H 0.65607 0.19755 0.1945 0.0
H2904 H 0.64355 0.13529 0.18816 0.0
H2905 H 0.65338 0.12914 0.22552 0.0
H2906 H 0.60161 0.13729 0.22165 0.0
H2907 H 0.64949 0.15083 0.21982 0.0
C2908 C 0.5681 0.17859 0.20496 0.0
C2909 C 0.59398 0.19212 0.20092 0.0
C2910 C 0.58301 0.16075 0.20562 0.0
C2911 C 0.62421 0.15609 0.20235 0.0
C2912 C 0.65039 0.16952 0.19836 0.0
H2913 H 0.75097 0.05256 0.2106 0.0
H2914 H 0.72872 0.08435 0.21083 0.0
C2915 C 0.63545 0.18745 0.19768 0.0
C2916 C 0.63863 0.13693 0.20268 0.0
H2917 H 0.65492 0.10133 0.21713 0.0
C2918 C 0.64643 0.12787 0.19449 0.0
C2919 C 0.64258 0.12739 0.21096 0.0
C2920 C 0.63675 0.1367 0.21999 0.0
C2921 C 0.65718 0.10933 0.19433 0.0
C2922 C 0.65928 0.09961 0.20259 0.0
C2923 C 0.6525 0.10878 0.2108 0.0
C2924 C 0.67058 0.08008 0.20288 0.0
C2925 C 0.66673 0.10039 0.18535 0.0
C2926 C 0.64444 0.06707 0.19856 0.0
C2927 C 0.65713 0.0488 0.19838 0.0
C2928 C 0.69604 0.04332 0.20256 0.0
C2929 C 0.72098 0.05631 0.20724 0.0
C2930 C 0.70833 0.07451 0.2074 0.0
H2931 H 0.67411 0.11058 0.18 0.0
H2932 H 0.69463 0.09087 0.18593 0.0
H2933 H 0.63788 0.09249 0.18315 0.0
H2934 H 0.61463 0.07109 0.19521 0.0
H2935 H 0.63708 0.03911 0.19476 0.0
H2936 H 0.40826 0.79036 0.9442 0.0
H2937 H 0.43257 0.82208 0.94508 0.0
H2938 H 0.31515 0.8364 0.95934 0.0
H2939 H 0.291 0.80494 0.95866 0.0
H2940 H 0.39066 0.85238 0.93796 0.0
H2941 H 0.40907 0.85886 0.97517 0.0
H2942 H 0.40464 0.8371 0.96957 0.0
H2943 H 0.35676 0.85039 0.97186 0.0
C2944 C 0.38789 0.80022 0.94762 0.0
C2945 C 0.34775 0.79509 0.95138 0.0
C2946 C 0.40177 0.81832 0.9481 0.0
C2947 C 0.37588 0.83149 0.95238 0.0
C2948 C 0.33603 0.82637 0.95618 0.0
H2949 H 0.38543 0.94891 0.94466 0.0
H2950 H 0.36337 0.91688 0.94504 0.0
C2951 C 0.32219 0.80835 0.95573 0.0
C2952 C 0.38921 0.85079 0.95253 0.0
H2953 H 0.40793 0.88656 0.96672 0.0
C2954 C 0.39478 0.85985 0.94424 0.0
C2955 C 0.39478 0.86042 0.96074 0.0
C2956 C 0.39143 0.85116 0.96984 0.0
C2957 C 0.40508 0.87843 0.94394 0.0
C2958 C 0.409 0.88821 0.95215 0.0
C2959 C 0.40419 0.87907 0.96043 0.0
C2960 C 0.42049 0.90774 0.95231 0.0
C2961 C 0.41241 0.88733 0.93485 0.0
C2962 C 0.45892 0.91324 0.95658 0.0
C2963 C 0.47131 0.93146 0.95647 0.0
C2964 C 0.44549 0.94458 0.95207 0.0
C2965 C 0.40615 0.93914 0.94805 0.0
C2966 C 0.39368 0.92084 0.9482 0.0
H2967 H 0.41863 0.87713 0.92945 0.0
H2968 H 0.38299 0.89518 0.93293 0.0
H2969 H 0.44031 0.89689 0.93513 0.0
H2970 H 0.47988 0.90335 0.95984 0.0
H2971 H 0.5017 0.93515 0.95968 0.0
H2972 H 0.47474 0.80088 0.81168 0.0
H2973 H 0.45427 0.833 0.81171 0.0
H2974 H 0.37882 0.82453 0.83598 0.0
H2975 H 0.39788 0.79217 0.83578 0.0
H2976 H 0.33749 0.84643 0.82465 0.0
H2977 H 0.50716 0.87026 0.82816 0.0
H2978 H 0.49993 0.85655 0.81824 0.0
H2979 H 0.49234 0.84663 0.82929 0.0
C2980 C 0.45354 0.80585 0.81699 0.0
C2981 C 0.43818 0.7941 0.82377 0.0
C2982 C 0.44219 0.82422 0.81704 0.0
C2983 C 0.41618 0.83126 0.82401 0.0
C2984 C 0.39933 0.8194 0.83059 0.0
H2985 H 0.3945 0.9471 0.83588 0.0
H2986 H 0.41411 0.91478 0.83594 0.0
C2987 C 0.4101 0.80092 0.83046 0.0
C2988 C 0.40659 0.85099 0.82442 0.0
H2989 H 0.45438 0.8929 0.82439 0.0
C2990 C 0.36303 0.85659 0.82465 0.0
C2991 C 0.44 0.86423 0.82463 0.0
C2992 C 0.48745 0.85911 0.82517 0.0
C2993 C 0.35191 0.87509 0.82485 0.0
C2994 C 0.38528 0.88833 0.82449 0.0
C2995 C 0.42885 0.88273 0.8245 0.0
C2996 C 0.37559 0.90806 0.82413 0.0
C2997 C 0.30452 0.8802 0.82562 0.0
C2998 C 0.34878 0.91509 0.81728 0.0
C2999 C 0.33712 0.93343 0.81731 0.0
C3000 C 0.35294 0.94515 0.82406 0.0
C3001 C 0.38188 0.93835 0.8306 0.0
C3002 C 0.39297 0.9199 0.83065 0.0
H3003 H 0.28517 0.86903 0.8287 0.0
H3004 H 0.30011 0.89266 0.82977 0.0
H3005 H 0.29123 0.88281 0.81875 0.0
H3006 H 0.33626 0.90633 0.81199 0.0
H3007 H 0.31526 0.93838 0.8121 0.0
H3008 H 0.71959 0.48126 0.06246 0.0
H3009 H 0.6406 0.47838 0.0637 0.0
H3010 H 0.64419 0.5051 0.08968 0.0
H3011 H 0.72301 0.50853 0.08838 0.0
H3012 H 0.58957 0.46107 0.07676 0.0
H3013 H 0.55418 0.53512 0.07578 0.0
H3014 H 0.60645 0.52586 0.07269 0.0
H3015 H 0.59213 0.52849 0.08443 0.0
C3016 C 0.7036 0.48667 0.06841 0.0
C3017 C 0.72782 0.49527 0.07529 0.0
C3018 C 0.6584 0.48491 0.06913 0.0
C3019 C 0.63626 0.4918 0.0767 0.0
C3020 C 0.66038 0.49998 0.08368 0.0
H3021 H 0.36559 0.49669 0.09341 0.0
H3022 H 0.44461 0.49886 0.09212 0.0
C3023 C 0.7056 0.50173 0.08298 0.0
C3024 C 0.58803 0.49033 0.07731 0.0
H3025 H 0.49499 0.51557 0.07908 0.0
C3026 C 0.56886 0.47299 0.07723 0.0
C3027 C 0.56095 0.50588 0.07792 0.0
C3028 C 0.57933 0.52491 0.07763 0.0
C3029 C 0.52356 0.47075 0.07792 0.0
C3030 C 0.49648 0.4863 0.07855 0.0
C3031 C 0.51567 0.50365 0.07861 0.0
C3032 C 0.44825 0.4849 0.07925 0.0
C3033 C 0.5052 0.45172 0.07822 0.0
C3034 C 0.4237 0.47656 0.07238 0.0
C3035 C 0.37841 0.47518 0.07312 0.0
C3036 C 0.35654 0.48219 0.08074 0.0
C3037 C 0.38124 0.49084 0.08752 0.0
C3038 C 0.42649 0.49221 0.08677 0.0
H3039 H 0.53036 0.44153 0.08009 0.0
H3040 H 0.47805 0.45078 0.08315 0.0
H3041 H 0.49249 0.4481 0.07143 0.0
H3042 H 0.43957 0.47114 0.06641 0.0
H3043 H 0.36062 0.46835 0.06779 0.0
H3044 H 0.57304 0.72182 0.06813 0.0
H3045 H 0.6515 0.72646 0.06907 0.0
H3046 H 0.63113 0.77473 0.0851 0.0
H3047 H 0.55246 0.76987 0.08445 0.0
H3048 H 0.7007 0.75609 0.06324 0.0
H3049 H 0.71834 0.74584 0.10035 0.0
H3050 H 0.66991 0.73938 0.09424 0.0
H3051 H 0.67925 0.76282 0.09712 0.0
C3052 C 0.58516 0.73329 0.07198 0.0
C3053 C 0.55629 0.74537 0.0763 0.0
C3054 C 0.63009 0.736 0.07244 0.0
C3055 C 0.64729 0.75079 0.07726 0.0
C3056 C 0.61866 0.76303 0.08148 0.0
H3057 H 0.91295 0.78556 0.08824 0.0
H3058 H 0.83396 0.78311 0.0871 0.0
C3059 C 0.57364 0.76034 0.08102 0.0
C3060 C 0.69517 0.75346 0.07772 0.0
H3061 H 0.78107 0.75523 0.09237 0.0
C3062 C 0.7183 0.75588 0.06961 0.0
C3063 C 0.7181 0.75323 0.08603 0.0
C3064 C 0.69529 0.75002 0.09494 0.0
C3065 C 0.76363 0.75826 0.06959 0.0
C3066 C 0.78666 0.75783 0.07789 0.0
C3067 C 0.76346 0.75555 0.08601 0.0
C3068 C 0.83483 0.75955 0.07832 0.0
C3069 C 0.78628 0.76156 0.06068 0.0
C3070 C 0.86178 0.74705 0.07382 0.0
C3071 C 0.90706 0.74854 0.07437 0.0
C3072 C 0.92649 0.76246 0.07952 0.0
C3073 C 0.8993 0.77487 0.08408 0.0
C3074 C 0.85404 0.7734 0.0835 0.0
H3075 H 0.76342 0.76672 0.05544 0.0
H3076 H 0.81321 0.77149 0.06145 0.0
H3077 H 0.80013 0.74855 0.05818 0.0
H3078 H 0.8478 0.73601 0.06994 0.0
H3079 H 0.92682 0.7388 0.07072 0.0
H3080 H 0.73337 0.76624 0.21074 0.0
H3081 H 0.65426 0.76894 0.20962 0.0
H3082 H 0.65372 0.73056 0.18755 0.0
H3083 H 0.73264 0.72736 0.18878 0.0
H3084 H 0.6018 0.77974 0.19503 0.0
H3085 H 0.56574 0.70866 0.2053 0.0
H3086 H 0.61845 0.71892 0.2069 0.0
H3087 H 0.6027 0.71059 0.19594 0.0
C3088 C 0.71642 0.75826 0.20568 0.0
C3089 C 0.73944 0.74647 0.19989 0.0
C3090 C 0.6712 0.75991 0.20502 0.0
C3091 C 0.64795 0.74972 0.19861 0.0
C3092 C 0.67086 0.73829 0.19267 0.0
H3093 H 0.37619 0.73883 0.18394 0.0
H3094 H 0.4553 0.73685 0.1852 0.0
C3095 C 0.71609 0.73665 0.19331 0.0
C3096 C 0.59978 0.75112 0.19812 0.0
H3097 H 0.50634 0.72628 0.19998 0.0
C3098 C 0.5809 0.76808 0.19615 0.0
C3099 C 0.57252 0.7359 0.1996 0.0
C3100 C 0.59075 0.71751 0.20213 0.0
C3101 C 0.53558 0.77013 0.19543 0.0
C3102 C 0.50834 0.75489 0.19687 0.0
C3103 C 0.52723 0.73795 0.19887 0.0
C3104 C 0.46019 0.75615 0.19621 0.0
C3105 C 0.51731 0.78851 0.1929 0.0
C3106 C 0.43648 0.76744 0.20208 0.0
C3107 C 0.39118 0.76867 0.20136 0.0
C3108 C 0.36862 0.75858 0.19475 0.0
C3109 C 0.3925 0.74703 0.189 0.0
C3110 C 0.43774 0.74578 0.18975 0.0
H3111 H 0.54241 0.79748 0.18985 0.0
H3112 H 0.48999 0.7871 0.18804 0.0
H3113 H 0.50476 0.7953 0.19908 0.0
H3114 H 0.45301 0.77532 0.20724 0.0
H3115 H 0.37392 0.77778 0.20586 0.0
H3116 H 0.91535 0.46273 0.18037 0.0
H3117 H 0.83652 0.466 0.1816 0.0
H3118 H 0.85267 0.49929 0.2054 0.0
H3119 H 0.93166 0.49662 0.20404 0.0
H3120 H 0.78114 0.45616 0.19556 0.0
H3121 H 0.77374 0.53068 0.18961 0.0
H3122 H 0.82178 0.51738 0.18728 0.0
H3123 H 0.80922 0.52408 0.1987 0.0
C3124 C 0.90224 0.47096 0.1858 0.0
C3125 C 0.93005 0.47955 0.19206 0.0
C3126 C 0.85708 0.4727 0.18653 0.0
C3127 C 0.83861 0.48313 0.1935 0.0
C3128 C 0.86615 0.49146 0.19985 0.0
H3129 H 0.5749 0.51054 0.20933 0.0
H3130 H 0.65352 0.50662 0.20815 0.0
C3131 C 0.91136 0.48974 0.19913 0.0
C3132 C 0.79055 0.48505 0.19417 0.0
H3133 H 0.70825 0.51633 0.19414 0.0
C3134 C 0.76517 0.46931 0.19521 0.0
C3135 C 0.76969 0.50221 0.1937 0.0
C3136 C 0.7949 0.51955 0.19218 0.0
C3137 C 0.71967 0.47028 0.19599 0.0
C3138 C 0.69883 0.48744 0.19555 0.0
C3139 C 0.72421 0.50318 0.19449 0.0
C3140 C 0.6508 0.48943 0.19628 0.0
C3141 C 0.69443 0.45295 0.19751 0.0
C3142 C 0.62295 0.48121 0.18994 0.0
C3143 C 0.5778 0.48331 0.19064 0.0
C3144 C 0.55952 0.49375 0.19767 0.0
C3145 C 0.58765 0.50212 0.20394 0.0
C3146 C 0.63271 0.50001 0.20323 0.0
H3147 H 0.71559 0.44178 0.20003 0.0
H3148 H 0.66767 0.45511 0.20244 0.0
H3149 H 0.67992 0.44848 0.191 0.0
H3150 H 0.63613 0.47328 0.18441 0.0
H3151 H 0.55722 0.4766 0.18572 0.0
H3152 H 0.66897 0.49007 0.93311 0.0
H3153 H 0.58991 0.48795 0.93435 0.0
H3154 H 0.59151 0.52685 0.9562 0.0
H3155 H 0.67058 0.52945 0.95484 0.0
H3156 H 0.5389 0.47754 0.94909 0.0
H3157 H 0.50185 0.54854 0.93872 0.0
H3158 H 0.55448 0.53826 0.93699 0.0
H3159 H 0.53935 0.54656 0.94799 0.0
C3160 C 0.65252 0.49833 0.93813 0.0
C3161 C 0.67621 0.51006 0.94382 0.0
C3162 C 0.60731 0.49701 0.93886 0.0
C3163 C 0.58465 0.50746 0.94526 0.0
C3164 C 0.60818 0.51891 0.95109 0.0
H3165 H 0.31079 0.517 0.9594 0.0
H3166 H 0.38989 0.51991 0.95841 0.0
C3167 C 0.65348 0.52022 0.95037 0.0
C3168 C 0.5365 0.50611 0.9459 0.0
H3169 H 0.44265 0.53072 0.94386 0.0
C3170 C 0.51784 0.48915 0.94792 0.0
C3171 C 0.50903 0.52128 0.94438 0.0
C3172 C 0.52704 0.53967 0.94182 0.0
C3173 C 0.47257 0.487 0.94859 0.0
C3174 C 0.44509 0.50215 0.94703 0.0
C3175 C 0.46373 0.51913 0.94505 0.0
C3176 C 0.39692 0.50063 0.94744 0.0
C3177 C 0.45459 0.4686 0.95115 0.0
C3178 C 0.3744 0.4891 0.94149 0.0
C3179 C 0.32918 0.48735 0.94206 0.0
C3180 C 0.30544 0.49715 0.94859 0.0
C3181 C 0.32806 0.50903 0.95439 0.0
C3182 C 0.37326 0.5108 0.9538 0.0
H3183 H 0.47966 0.45984 0.95437 0.0
H3184 H 0.42673 0.47 0.95588 0.0
H3185 H 0.44292 0.4616 0.94495 0.0
H3186 H 0.39186 0.48137 0.93641 0.0
H3187 H 0.31296 0.47798 0.93752 0.0
H3188 H 0.48527 0.21558 0.94808 0.0
H3189 H 0.40633 0.21158 0.94727 0.0
H3190 H 0.38896 0.26976 0.94821 0.0
H3191 H 0.46754 0.27391 0.94917 0.0
H3192 H 0.34182 0.22367 0.95979 0.0
H3193 H 0.31844 0.2543 0.92576 0.0
H3194 H 0.37097 0.24707 0.92986 0.0
H3195 H 0.34814 0.26833 0.93356 0.0
C3196 C 0.46469 0.22754 0.94815 0.0
C3197 C 0.48294 0.24508 0.94862 0.0
C3198 C 0.41957 0.22522 0.94765 0.0
C3199 C 0.3918 0.24038 0.94754 0.0
C3200 C 0.40981 0.25788 0.94808 0.0
H3201 H 0.11436 0.25944 0.94515 0.0
H3202 H 0.19352 0.26165 0.94614 0.0
C3203 C 0.45483 0.26022 0.94861 0.0
C3204 C 0.34393 0.23796 0.94707 0.0
H3205 H 0.25469 0.24828 0.93428 0.0
C3206 C 0.32274 0.22893 0.95419 0.0
C3207 C 0.31913 0.24487 0.93976 0.0
C3208 C 0.34027 0.25405 0.93175 0.0
C3209 C 0.27727 0.22706 0.95432 0.0
C3210 C 0.25241 0.23408 0.94704 0.0
C3211 C 0.27371 0.24295 0.93988 0.0
C3212 C 0.20423 0.23256 0.94673 0.0
C3213 C 0.25618 0.21805 0.96239 0.0
C3214 C 0.18383 0.21547 0.94668 0.0
C3215 C 0.13852 0.21416 0.94611 0.0
C3216 C 0.11267 0.22992 0.94548 0.0
C3217 C 0.13326 0.24702 0.94554 0.0
C3218 C 0.17852 0.24831 0.94613 0.0
H3219 H 0.27813 0.21785 0.96836 0.0
H3220 H 0.22561 0.22512 0.96429 0.0
H3221 H 0.24814 0.20376 0.96065 0.0
H3222 H 0.203 0.20311 0.94692 0.0
H3223 H 0.12383 0.20078 0.94593 0.0
H3224 H 0.67116 0.25056 0.84093 0.0
H3225 H 0.59207 0.25273 0.83973 0.0
H3226 H 0.59286 0.21227 0.8186 0.0
H3227 H 0.67195 0.20962 0.81993 0.0
H3228 H 0.54068 0.26214 0.82484 0.0
H3229 H 0.50359 0.19202 0.83657 0.0
H3230 H 0.5563 0.20235 0.83807 0.0
H3231 H 0.54087 0.19326 0.82723 0.0
C3232 C 0.65453 0.24197 0.83609 0.0
C3233 C 0.67799 0.2298 0.83058 0.0
C3234 C 0.6093 0.24332 0.83537 0.0
C3235 C 0.58641 0.23246 0.82918 0.0
C3236 C 0.60972 0.22054 0.82355 0.0
H3237 H 0.31185 0.22232 0.81562 0.0
H3238 H 0.39097 0.21935 0.81652 0.0
C3239 C 0.65502 0.2192 0.82424 0.0
C3240 C 0.53824 0.23384 0.82857 0.0
H3241 H 0.44432 0.20956 0.83118 0.0
C3242 C 0.51961 0.25066 0.82625 0.0
C3243 C 0.51074 0.21884 0.8304 0.0
C3244 C 0.52874 0.20063 0.83329 0.0
C3245 C 0.47432 0.25283 0.82559 0.0
C3246 C 0.4468 0.23787 0.82747 0.0
C3247 C 0.46542 0.22102 0.82975 0.0
C3248 C 0.39862 0.23945 0.8271 0.0
C3249 C 0.45635 0.27105 0.82271 0.0
C3250 C 0.37644 0.25147 0.83287 0.0
C3251 C 0.33121 0.25325 0.83235 0.0
C3252 C 0.3071 0.24299 0.82606 0.0
C3253 C 0.32939 0.23064 0.82044 0.0
C3254 C 0.37462 0.22884 0.82098 0.0
H3255 H 0.48135 0.27951 0.81928 0.0
H3256 H 0.42829 0.26935 0.81805 0.0
H3257 H 0.44499 0.27856 0.82878 0.0
H3258 H 0.39417 0.25955 0.83777 0.0
H3259 H 0.31524 0.26298 0.83674 0.0
H3260 H 0.1152 0.52759 0.81877 0.0
H3261 H 0.19423 0.5247 0.81727 0.0
H3262 H 0.19621 0.48635 0.83938 0.0
H3263 H 0.11731 0.48876 0.84076 0.0
H3264 H 0.25819 0.53224 0.83027 0.0
H3265 H 0.26526 0.45984 0.81978 0.0
H3266 H 0.21565 0.47295 0.81947 0.0
H3267 H 0.23499 0.46362 0.82999 0.0
C3268 C 0.13236 0.51833 0.82323 0.0
C3269 C 0.10978 0.50838 0.82988 0.0
C3270 C 0.17759 0.51679 0.8224 0.0
C3271 C 0.20114 0.50514 0.82814 0.0
C3272 C 0.17872 0.49519 0.83477 0.0
H3273 H 0.4729 0.47742 0.83618 0.0
H3274 H 0.394 0.48108 0.83725 0.0
C3275 C 0.13359 0.49675 0.83562 0.0
C3276 C 0.24927 0.50377 0.82739 0.0
H3277 H 0.33229 0.47368 0.82384 0.0
C3278 C 0.27441 0.51947 0.8288 0.0
C3279 C 0.27044 0.48709 0.82549 0.0
C3280 C 0.24525 0.46994 0.82351 0.0
C3281 C 0.32009 0.51885 0.82859 0.0
C3282 C 0.34125 0.50213 0.82675 0.0
C3283 C 0.31609 0.48647 0.82528 0.0
C3284 C 0.38943 0.50057 0.82631 0.0
C3285 C 0.34533 0.53599 0.83055 0.0
C3286 C 0.4132 0.51028 0.81978 0.0
C3287 C 0.45836 0.5083 0.81919 0.0
C3288 C 0.4808 0.49648 0.82507 0.0
C3289 C 0.45686 0.48684 0.83163 0.0
C3290 C 0.41168 0.48881 0.83221 0.0
H3291 H 0.32509 0.54629 0.8341 0.0
H3292 H 0.37437 0.53301 0.83477 0.0
H3293 H 0.35653 0.54204 0.82408 0.0
H3294 H 0.39673 0.51921 0.81506 0.0
H3295 H 0.47572 0.51603 0.8141 0.0
H3296 H 0.35863 -0.00456 0.56947 0.0
H3297 H 0.43768 -0.00213 0.56802 0.0
H3298 H 0.45399 0.96041 0.59025 0.0
H3299 H 0.37523 0.95739 0.59154 0.0
H3300 H 0.49671 0.01001 0.58084 0.0
H3301 H 0.53401 0.93876 0.57116 0.0
H3302 H 0.47965 0.94797 0.57079 0.0
H3303 H 0.50279 0.94073 0.58138 0.0
C3304 C 0.379 0.98747 0.57395 0.0
C3305 C 0.36041 0.97618 0.58061 0.0
C3306 C 0.42422 0.98898 0.57315 0.0
C3307 C 0.45184 0.97914 0.57894 0.0
C3308 C 0.43343 0.96787 0.58559 0.0
H3309 H 0.73253 0.97352 0.58668 0.0
H3310 H 0.65351 0.97023 0.58791 0.0
C3311 C 0.38828 0.96634 0.58639 0.0
C3312 C 0.49984 0.9812 0.57827 0.0
H3313 H 0.59421 0.95754 0.57495 0.0
C3314 C 0.51801 -0.00145 0.5795 0.0
C3315 C 0.52768 0.96624 0.57656 0.0
C3316 C 0.5101 0.9474 0.57481 0.0
C3317 C 0.56319 0.0013 0.57922 0.0
C3318 C 0.59102 0.98634 0.57751 0.0
C3319 C 0.57288 0.96898 0.57629 0.0
C3320 C 0.63897 0.98848 0.57681 0.0
C3321 C 0.58077 0.02014 0.58096 0.0
C3322 C 0.65712 -0.00032 0.5701 0.0
C3323 C 0.70219 0.00167 0.56942 0.0
C3324 C 0.73027 0.99239 0.57538 0.0
C3325 C 0.71195 0.98105 0.58205 0.0
C3326 C 0.66678 0.97906 0.58273 0.0
H3327 H 0.55679 0.02883 0.58456 0.0
H3328 H 0.61109 0.01957 0.58503 0.0
H3329 H 0.58835 0.02676 0.57439 0.0
H3330 H 0.6364 0.00684 0.56536 0.0
H3331 H 0.71501 0.01067 0.56426 0.0
H3332 H 0.56123 0.22972 0.5882 0.0
H3333 H 0.64033 0.23296 0.58898 0.0
H3334 H 0.63969 0.26103 0.56333 0.0
H3335 H 0.5606 0.25834 0.56262 0.0
H3336 H 0.70192 0.21957 0.57687 0.0
H3337 H 0.71293 0.29477 0.57904 0.0
H3338 H 0.66286 0.2826 0.58099 0.0
H3339 H 0.68136 0.28677 0.56963 0.0
C3340 C 0.57777 0.23688 0.5828 0.0
C3341 C 0.55434 0.24381 0.57535 0.0
C3342 C 0.62309 0.2386 0.58322 0.0
C3343 C 0.64602 0.24743 0.57627 0.0
C3344 C 0.62275 0.25444 0.56886 0.0
H3345 H 0.91828 0.26868 0.56443 0.0
H3346 H 0.83904 0.26591 0.56419 0.0
C3347 C 0.57748 0.25271 0.56842 0.0
C3348 C 0.69435 0.24868 0.57658 0.0
H3349 H 0.77893 0.27883 0.57641 0.0
C3350 C 0.71876 0.23253 0.57683 0.0
C3351 C 0.71639 0.26559 0.57649 0.0
C3352 C 0.6921 0.28344 0.57661 0.0
C3353 C 0.76449 0.23279 0.5768 0.0
C3354 C 0.78656 0.2497 0.57669 0.0
C3355 C 0.76211 0.26586 0.57647 0.0
C3356 C 0.83493 0.25097 0.57679 0.0
C3357 C 0.78872 0.21494 0.57663 0.0
C3358 C 0.85917 0.24361 0.58398 0.0
C3359 C 0.90454 0.24517 0.58414 0.0
C3360 C 0.92676 0.25431 0.57715 0.0
C3361 C 0.90233 0.2617 0.56997 0.0
C3362 C 0.85697 0.26008 0.5698 0.0
H3363 H 0.76779 0.20362 0.57421 0.0
H3364 H 0.8178 0.21577 0.5722 0.0
H3365 H 0.7997 0.21156 0.58359 0.0
H3366 H 0.84293 0.23691 0.58957 0.0
H3367 H 0.92211 0.23963 0.58987 0.0
H3368 H 0.71884 0.23892 0.7134 0.0
H3369 H 0.64012 0.2427 0.71226 0.0
H3370 H 0.65369 0.25987 0.68447 0.0
H3371 H 0.7326 0.25628 0.68557 0.0
H3372 H 0.59096 0.27353 0.7081 0.0
H3373 H 0.56401 0.21894 0.68274 0.0
H3374 H 0.61427 0.22122 0.68895 0.0
H3375 H 0.60328 0.23571 0.6794 0.0
C3376 C 0.70522 0.24367 0.70706 0.0
C3377 C 0.73221 0.24726 0.69957 0.0
C3378 C 0.66012 0.24572 0.70641 0.0
C3379 C 0.6409 0.2513 0.69824 0.0
C3380 C 0.66769 0.25515 0.69079 0.0
H3381 H 0.37562 0.27165 0.68088 0.0
H3382 H 0.4545 0.26897 0.68222 0.0
C3383 C 0.71284 0.25309 0.69143 0.0
C3384 C 0.59288 0.25326 0.69759 0.0
H3385 H 0.50347 0.23759 0.68629 0.0
C3386 C 0.5718 0.26563 0.70336 0.0
C3387 C 0.56788 0.24293 0.6914 0.0
C3388 C 0.58836 0.22882 0.68532 0.0
C3389 C 0.52653 0.26818 0.703 0.0
C3390 C 0.50157 0.25788 0.69679 0.0
C3391 C 0.52265 0.24551 0.69103 0.0
C3392 C 0.45356 0.25977 0.69613 0.0
C3393 C 0.5059 0.28216 0.70912 0.0
C3394 C 0.42668 0.25535 0.7035 0.0
C3395 C 0.38142 0.25674 0.70274 0.0
C3396 C 0.36205 0.26248 0.69458 0.0
C3397 C 0.38923 0.26692 0.68723 0.0
C3398 C 0.43441 0.2655 0.68799 0.0
H3399 H 0.53021 0.29193 0.71182 0.0
H3400 H 0.48029 0.28991 0.70547 0.0
H3401 H 0.49049 0.27516 0.71495 0.0
H3402 H 0.44069 0.25055 0.70979 0.0
H3403 H 0.36159 0.25293 0.70849 0.0
H3404 H 0.91168 0.96264 0.68324 0.0
H3405 H 0.83289 0.96586 0.68456 0.0
H3406 H 0.84961 -0.00026 0.70814 0.0
H3407 H 0.92857 -0.00284 0.70667 0.0
H3408 H 0.77763 0.95644 0.69854 0.0
H3409 H 0.77085 0.03086 0.69224 0.0
H3410 H 0.81881 0.01745 0.68999 0.0
H3411 H 0.80621 0.02439 0.70137 0.0
C3412 C 0.8987 0.97098 0.68865 0.0
C3413 C 0.92665 0.9798 0.69479 0.0
C3414 C 0.85358 0.97268 0.68943 0.0
C3415 C 0.83529 0.98329 0.69635 0.0
C3416 C 0.86296 0.99178 0.70263 0.0
H3417 H 0.57151 0.01124 0.71189 0.0
H3418 H 0.65012 0.00713 0.71085 0.0
C3419 C 0.90815 0.99011 0.70184 0.0
C3420 C 0.78727 0.9853 0.69702 0.0
H3421 H 0.70523 0.01668 0.6968 0.0
C3422 C 0.76177 0.9696 0.69813 0.0
C3423 C 0.76656 0.00248 0.69647 0.0
C3424 C 0.79191 0.01976 0.69487 0.0
C3425 C 0.71627 0.97065 0.69886 0.0
C3426 C 0.69559 0.98783 0.69833 0.0
C3427 C 0.72109 0.00352 0.69722 0.0
C3428 C 0.64759 0.9899 0.69899 0.0
C3429 C 0.69083 0.95338 0.70042 0.0
C3430 C 0.6199 0.98171 0.69262 0.0
C3431 C 0.57477 0.98392 0.69324 0.0
C3432 C 0.55638 0.99444 0.70022 0.0
C3433 C 0.58436 0.00276 0.70653 0.0
C3434 C 0.62941 0.00055 0.7059 0.0
H3435 H 0.71185 0.9422 0.70298 0.0
H3436 H 0.66404 0.95565 0.70532 0.0
H3437 H 0.67635 0.94887 0.69391 0.0
H3438 H 0.63319 0.97371 0.68712 0.0
H3439 H 0.55428 0.97724 0.68829 0.0
H3440 H 0.66422 0.0196 0.43071 0.0
H3441 H 0.58533 0.01692 0.43204 0.0
H3442 H 0.59985 0.99449 0.45886 0.0
H3443 H 0.6789 -0.00314 0.45755 0.0
H3444 H 0.53538 0.98546 0.43503 0.0
H3445 H 0.51166 0.03582 0.46261 0.0
H3446 H 0.56126 0.03444 0.45612 0.0
H3447 H 0.55093 0.01839 0.46505 0.0
C3448 C 0.65077 0.01397 0.43688 0.0
C3449 C 0.67814 0.00844 0.44402 0.0
C3450 C 0.60557 0.01255 0.43764 0.0
C3451 C 0.58659 0.00573 0.44559 0.0
C3452 C 0.61369 0.00015 0.45273 0.0
H3453 H 0.32207 0.98345 0.46282 0.0
H3454 H 0.40076 0.98708 0.46155 0.0
C3455 C 0.65895 0.00153 0.45197 0.0
C3456 C 0.53852 0.00401 0.44629 0.0
H3457 H 0.45026 0.01823 0.45843 0.0
C3458 C 0.51673 0.99269 0.44012 0.0
C3459 C 0.5142 0.01342 0.45294 0.0
C3460 C 0.53555 0.02634 0.45952 0.0
C3461 C 0.47144 0.99026 0.44052 0.0
C3462 C 0.4471 -0.00032 0.44717 0.0
C3463 C 0.4689 0.01102 0.45334 0.0
C3464 C 0.39907 -0.0022 0.44791 0.0
C3465 C 0.45021 0.97725 0.43397 0.0
C3466 C 0.37174 0.00288 0.44071 0.0
C3467 C 0.32659 0.00091 0.44143 0.0
C3468 C 0.30772 0.99392 0.44939 0.0
C3469 C 0.33527 0.98909 0.45663 0.0
C3470 C 0.38036 0.99106 0.4559 0.0
H3471 H 0.47416 0.96771 0.43094 0.0
H3472 H 0.42442 0.96919 0.43737 0.0
H3473 H 0.43501 0.98512 0.42839 0.0
H3474 H 0.38531 0.00849 0.43455 0.0
H3475 H 0.30643 0.00506 0.43578 0.0
H3476 H 0.46248 0.76076 0.46062 0.0
H3477 H 0.38357 0.7576 0.45972 0.0
H3478 H 0.3968 0.72682 0.43502 0.0
H3479 H 0.47596 0.72937 0.43604 0.0
H3480 H 0.32742 0.76927 0.44633 0.0
H3481 H 0.31776 0.69423 0.45008 0.0
H3482 H 0.36652 0.70689 0.4526 0.0
H3483 H 0.3526 0.70168 0.44106 0.0
C3484 C 0.44876 0.75305 0.45507 0.0
C3485 C 0.47583 0.74517 0.44845 0.0
C3486 C 0.40352 0.75139 0.45452 0.0
C3487 C 0.38414 0.74175 0.44738 0.0
C3488 C 0.41094 0.73403 0.4407 0.0
H3489 H 0.11684 0.71832 0.43208 0.0
H3490 H 0.19582 0.72136 0.43292 0.0
C3491 C 0.45626 0.73568 0.44123 0.0
C3492 C 0.3359 0.7402 0.44683 0.0
H3493 H 0.25235 0.70956 0.4463 0.0
C3494 C 0.311 0.75621 0.44636 0.0
C3495 C 0.3144 0.72317 0.44687 0.0
C3496 C 0.33909 0.7055 0.44776 0.0
C3497 C 0.26538 0.75566 0.44576 0.0
C3498 C 0.24388 0.73862 0.44579 0.0
C3499 C 0.26878 0.72261 0.44626 0.0
C3500 C 0.19563 0.7371 0.44529 0.0
C3501 C 0.24069 0.77332 0.44487 0.0
C3502 C 0.16904 0.74478 0.45202 0.0
C3503 C 0.12371 0.74319 0.45153 0.0
C3504 C 0.1039 0.73379 0.44431 0.0
C3505 C 0.13075 0.72595 0.43764 0.0
C3506 C 0.17603 0.72755 0.43815 0.0
H3507 H 0.262 0.78459 0.44254 0.0
H3508 H 0.21322 0.77193 0.44004 0.0
H3509 H 0.22723 0.77714 0.45157 0.0
H3510 H 0.18337 0.75192 0.4577 0.0
H3511 H 0.10418 0.74947 0.45676 0.0
H3512 H 0.32323 0.76471 0.33825 0.0
H3513 H 0.40204 0.76047 0.33885 0.0
H3514 H 0.39335 0.71919 0.3182 0.0
H3515 H 0.3146 0.72367 0.31737 0.0
H3516 H 0.45095 0.72916 0.34276 0.0
H3517 H 0.48503 0.75408 0.30796 0.0
H3518 H 0.43361 0.75785 0.31353 0.0
H3519 H 0.44575 0.73606 0.30863 0.0
C3520 C 0.33805 0.75482 0.33377 0.0
C3521 C 0.31243 0.74464 0.32771 0.0
C3522 C 0.38315 0.75234 0.33417 0.0
C3523 C 0.4038 0.73972 0.32847 0.0
C3524 C 0.3783 0.72924 0.32255 0.0
H3525 H 0.67681 0.70997 0.32092 0.0
H3526 H 0.59756 0.71242 0.31995 0.0
C3527 C 0.33315 0.73168 0.32216 0.0
C3528 C 0.45194 0.73751 0.32879 0.0
H3529 H 0.54447 0.74195 0.31615 0.0
C3530 C 0.4714 0.73199 0.33695 0.0
C3531 C 0.47867 0.74114 0.3212 0.0
C3532 C 0.45988 0.74776 0.31234 0.0
C3533 C 0.5167 0.72982 0.3377 0.0
C3534 C 0.5435 0.73366 0.33014 0.0
C3535 C 0.524 0.73902 0.32195 0.0
C3536 C 0.59183 0.73244 0.33063 0.0
C3537 C 0.53534 0.72311 0.34655 0.0
C3538 C 0.61523 0.74315 0.33681 0.0
C3539 C 0.66056 0.74183 0.33736 0.0
C3540 C 0.68371 0.72985 0.33169 0.0
C3541 C 0.66022 0.71945 0.32535 0.0
C3542 C 0.61483 0.72076 0.32481 0.0
H3543 H 0.5105 0.71595 0.35068 0.0
H3544 H 0.56307 0.71372 0.34539 0.0
H3545 H 0.54724 0.7349 0.35053 0.0
H3546 H 0.59844 0.75264 0.3412 0.0
H3547 H 0.67751 0.75035 0.34219 0.0
H3548 H 0.11469 0.98962 0.32014 0.0
H3549 H 0.19383 0.98704 0.31892 0.0
H3550 H 0.20889 0.02396 0.34138 0.0
H3551 H 0.13 0.02679 0.34259 0.0
H3552 H 0.25661 0.01429 0.31599 0.0
H3553 H 0.28246 0.98006 0.34909 0.0
H3554 H 0.2296 0.98184 0.34386 0.0
H3555 H 0.25246 0.00099 0.34974 0.0
C3556 C 0.13479 -0.0027 0.32478 0.0
C3557 C 0.1158 0.00831 0.33151 0.0
C3558 C 0.18006 -0.00426 0.32411 0.0
C3559 C 0.20731 0.00505 0.33017 0.0
C3560 C 0.18854 0.01629 0.33678 0.0
H3561 H 0.48843 0.01248 0.3371 0.0
H3562 H 0.40946 0.01603 0.3383 0.0
C3563 C 0.14335 0.01788 0.33746 0.0
C3564 C 0.25536 0.00323 0.32949 0.0
H3565 H 0.34557 0.98957 0.3412 0.0
C3566 C 0.27606 0.00881 0.32148 0.0
C3567 C 0.28075 -0.00385 0.33668 0.0
C3568 C 0.26026 0.98926 0.3453 0.0
C3569 C 0.32145 0.00776 0.32052 0.0
C3570 C 0.34683 0.00061 0.32769 0.0
C3571 C 0.32614 -0.00492 0.33571 0.0
C3572 C 0.39479 -0.00155 0.32695 0.0
C3573 C 0.34192 0.01467 0.31189 0.0
C3574 C 0.41284 0.98716 0.32028 0.0
C3575 C 0.45789 0.98504 0.3196 0.0
C3576 C 0.48606 0.99409 0.32562 0.0
C3577 C 0.46781 0.0052 0.33239 0.0
C3578 C 0.42266 0.00732 0.33306 0.0
H3579 H 0.31997 0.02413 0.3082 0.0
H3580 H 0.37299 0.02179 0.31331 0.0
H3581 H 0.34892 0.00297 0.30737 0.0
H3582 H 0.39201 0.97981 0.31563 0.0
H3583 H 0.47062 0.97604 0.31443 0.0
H3584 H 0.22397 0.4683 0.56727 0.0
H3585 H 0.14479 0.4654 0.56806 0.0
H3586 H 0.13886 0.51203 0.58572 0.0
H3587 H 0.21781 0.51533 0.58478 0.0
H3588 H 0.09026 0.46046 0.58317 0.0
H3589 H 0.05341 0.52524 0.56538 0.0
H3590 H 0.10666 0.51493 0.56522 0.0
H3591 H 0.08901 0.52764 0.57495 0.0
C3592 C 0.2058 0.47802 0.57127 0.0
C3593 C 0.22729 0.49212 0.57591 0.0
C3594 C 0.16057 0.47628 0.57175 0.0
C3595 C 0.13583 0.48868 0.57682 0.0
C3596 C 0.15721 0.50251 0.58163 0.0
H3597 H 0.86271 0.5034 0.58885 0.0
H3598 H 0.94184 0.50537 0.58765 0.0
C3599 C 0.20243 0.50424 0.58117 0.0
C3600 C 0.08771 0.48709 0.57711 0.0
H3601 H 0.99382 0.50989 0.57214 0.0
C3602 C 0.06914 0.47121 0.58072 0.0
C3603 C 0.06021 0.50113 0.57389 0.0
C3604 C 0.07822 0.51814 0.56956 0.0
C3605 C 0.02382 0.46918 0.58139 0.0
C3606 C 0.99634 0.48328 0.57823 0.0
C3607 C 1.01492 0.49911 0.57457 0.0
C3608 C 0.94822 0.48204 0.57882 0.0
C3609 C 1.00576 0.45218 0.58571 0.0
C3610 C 0.92539 0.46845 0.57413 0.0
C3611 C 0.88009 0.46725 0.57483 0.0
C3612 C 0.85672 0.47964 0.58022 0.0
C3613 C 0.87971 0.49346 0.58476 0.0
C3614 C 0.92493 0.49467 0.58404 0.0
H3615 H 0.03081 0.44478 0.58969 0.0
H3616 H 0.97806 0.45548 0.59024 0.0
H3617 H 0.99378 0.44291 0.58033 0.0
H3618 H 0.94261 0.45875 0.56993 0.0
H3619 H 0.86348 0.45639 0.57128 0.0
H3620 H 0.428 0.72305 0.57811 0.0
H3621 H 0.34883 0.71987 0.57795 0.0
H3622 H 0.33518 0.77616 0.58564 0.0
H3623 H 0.41405 0.77969 0.58547 0.0
H3624 H 0.28744 0.72508 0.59153 0.0
H3625 H 0.25898 0.77324 0.56316 0.0
H3626 H 0.31225 0.76453 0.56589 0.0
H3627 H 0.28912 0.78276 0.57243 0.0
C3628 C 0.40821 0.73482 0.57969 0.0
C3629 C 0.42765 0.75167 0.58175 0.0
C3630 C 0.3629 0.73293 0.57966 0.0
C3631 C 0.33595 0.74785 0.58163 0.0
C3632 C 0.3552 0.76454 0.58392 0.0
H3633 H 0.0545 0.76355 0.58189 0.0
H3634 H 0.13315 0.76699 0.58373 0.0
C3635 C 0.40046 0.76646 0.58394 0.0
C3636 C 0.28778 0.74594 0.58129 0.0
H3637 H 0.19662 0.76226 0.5708 0.0
C3638 C 0.26759 0.73317 0.58698 0.0
C3639 C 0.2618 0.75653 0.57536 0.0
C3640 C 0.28158 0.76992 0.5688 0.0
C3641 C 0.22219 0.73088 0.587 0.0
C3642 C 0.19625 0.7414 0.58104 0.0
C3643 C 0.21643 0.75424 0.57538 0.0
C3644 C 0.14826 0.73903 0.58038 0.0
C3645 C 0.20239 0.71743 0.59352 0.0
C3646 C 0.13044 0.72219 0.57787 0.0
C3647 C 0.08547 0.72014 0.57688 0.0
C3648 C 0.05716 0.73494 0.5783 0.0
C3649 C 0.07513 0.75179 0.58086 0.0
C3650 C 0.12017 0.75382 0.58185 0.0
H3651 H 0.22447 0.71453 0.5993 0.0
H3652 H 0.17097 0.7225 0.59622 0.0
H3653 H 0.19629 0.70441 0.58993 0.0
H3654 H 0.15138 0.71065 0.57651 0.0
H3655 H 0.07291 0.70692 0.57499 0.0
H3656 H 0.86669 0.77933 0.70492 0.0
H3657 H 0.9459 0.7768 0.70599 0.0
H3658 H 0.94589 0.73793 0.68413 0.0
H3659 H 0.86685 0.74031 0.68303 0.0
H3660 H 0.99862 0.74677 0.70938 0.0
H3661 H 0.03408 0.77541 0.67541 0.0
H3662 H 0.98133 0.77731 0.68067 0.0
H3663 H 0.99729 0.75647 0.67522 0.0
C3664 C 0.88347 0.77014 0.70038 0.0
C3665 C 0.86028 0.76014 0.69384 0.0
C3666 C 0.92882 0.76877 0.70097 0.0
C3667 C 0.95202 0.75745 0.69503 0.0
C3668 C 0.9289 0.74714 0.68864 0.0
H3669 H 0.22326 0.72795 0.68755 0.0
H3670 H 0.14431 0.73152 0.68659 0.0
C3671 C 0.88363 0.7485 0.68802 0.0
C3672 C 1.00028 0.75621 0.69558 0.0
H3673 H 0.09343 0.7621 0.68331 0.0
C3674 C 1.01937 0.75023 0.7037 0.0
C3675 C 0.0274 0.7607 0.68816 0.0
C3676 C 1.0091 0.768 0.6794 0.0
C3677 C 0.06467 0.74822 0.70454 0.0
C3678 C 0.09178 0.75263 0.6971 0.0
C3679 C 0.07269 0.75869 0.689 0.0
C3680 C 0.13998 0.75092 0.69757 0.0
C3681 C 0.08299 0.74091 0.7133 0.0
C3682 C 0.16406 0.76094 0.70393 0.0
C3683 C 0.20925 0.75898 0.70447 0.0
C3684 C 0.23151 0.74705 0.69862 0.0
C3685 C 0.20736 0.73738 0.69211 0.0
C3686 C 0.16214 0.73933 0.69158 0.0
H3687 H 0.05786 0.73376 0.71736 0.0
H3688 H 0.11025 0.73135 0.712 0.0
H3689 H 0.09556 0.75239 0.71741 0.0
H3690 H 0.14789 0.77032 0.70847 0.0
H3691 H 0.22681 0.7669 0.70946 0.0
H3692 H 0.05697 0.46816 0.70508 0.0
H3693 H 0.13614 0.46497 0.70447 0.0
H3694 H 0.14573 0.51691 0.69102 0.0
H3695 H 0.06683 0.52046 0.69184 0.0
H3696 H 0.19211 0.46465 0.6895 0.0
H3697 H 0.22967 0.52243 0.71237 0.0
H3698 H 0.17594 0.51277 0.71145 0.0
H3699 H 0.19531 0.52837 0.70298 0.0
C3700 C 0.07593 0.47898 0.70206 0.0
C3701 C 0.05546 0.49462 0.69855 0.0
C3702 C 0.12118 0.47708 0.70167 0.0
C3703 C 0.14694 0.49083 0.69784 0.0
C3704 C 0.12659 0.50627 0.69416 0.0
H3705 H 0.42119 0.50718 0.68767 0.0
H3706 H 0.34204 0.50928 0.68884 0.0
C3707 C 0.08138 0.50817 0.69454 0.0
C3708 C 0.19504 0.48896 0.6976 0.0
H3709 H 0.2893 0.50922 0.70454 0.0
C3710 C 0.21338 0.47432 0.69283 0.0
C3711 C 0.22276 0.50158 0.70197 0.0
C3712 C 0.20502 0.51708 0.70756 0.0
C3713 C 0.25868 0.47222 0.69212 0.0
C3714 C 0.28637 0.48495 0.69641 0.0
C3715 C 0.26803 0.4995 0.70124 0.0
C3716 C 0.33449 0.4836 0.69583 0.0
C3717 C 0.27654 0.45669 0.68657 0.0
C3718 C 0.35667 0.46859 0.6995 0.0
C3719 C 0.40196 0.46733 0.69883 0.0
C3720 C 0.42601 0.48107 0.69447 0.0
C3721 C 0.40367 0.49623 0.69094 0.0
C3722 C 0.35844 0.4975 0.69165 0.0
H3723 H 0.25148 0.45074 0.68203 0.0
H3724 H 0.30446 0.46125 0.68238 0.0
H3725 H 0.28817 0.4458 0.69118 0.0
H3726 H 0.33892 0.45784 0.70289 0.0
H3727 H 0.41806 0.45543 0.70157 0.0
H3728 H 0.80477 0.51587 0.4586 0.0
H3729 H 0.88401 0.51836 0.45797 0.0
H3730 H 0.88809 0.47637 0.4376 0.0
H3731 H 0.80895 0.47374 0.4382 0.0
H3732 H 0.9455 0.49186 0.46163 0.0
H3733 H 0.96223 0.51612 0.42622 0.0
H3734 H 0.91096 0.51628 0.43215 0.0
H3735 H 0.93134 0.49551 0.4273 0.0
C3736 C 0.82249 0.50716 0.45397 0.0
C3737 C 0.80035 0.49463 0.44843 0.0
C3738 C 0.86781 0.50865 0.4536 0.0
C3739 C 0.89204 0.49773 0.44765 0.0
C3740 C 0.87009 0.48525 0.44209 0.0
H3741 H 0.16712 0.48209 0.4368 0.0
H3742 H 0.08785 0.48008 0.43751 0.0
C3743 C 0.82475 0.48377 0.44244 0.0
C3744 C 0.94034 0.49893 0.44752 0.0
H3745 H 0.02724 0.50724 0.43371 0.0
C3746 C 0.96337 0.49533 0.45554 0.0
C3747 C 0.96368 0.50342 0.43956 0.0
C3748 C 0.94084 0.50822 0.43084 0.0
C3749 C 1.00905 0.49574 0.45579 0.0
C3750 C 0.03239 0.50016 0.44783 0.0
C3751 C 1.00936 0.5038 0.43981 0.0
C3752 C 0.0807 0.5011 0.44765 0.0
C3753 C 0.03195 0.491 0.46452 0.0
C3754 C 0.10316 0.51364 0.45309 0.0
C3755 C 0.14853 0.51487 0.45268 0.0
C3756 C 0.17247 0.50368 0.44676 0.0
C3757 C 0.1498 0.49107 0.44136 0.0
C3758 C 0.10445 0.48985 0.44178 0.0
H3759 H 1.0104 0.4834 0.46922 0.0
H3760 H 0.06144 0.48269 0.46321 0.0
H3761 H 0.04215 0.50373 0.46795 0.0
H3762 H 0.08552 0.52276 0.45753 0.0
H3763 H 0.16475 0.52497 0.45681 0.0
H3764 H 0.97223 0.23283 0.46093 0.0
H3765 H 0.8934 0.22865 0.46001 0.0
H3766 H 0.89502 0.24688 0.43225 0.0
H3767 H 0.97392 0.25079 0.43306 0.0
H3768 H 0.83038 0.25587 0.4558 0.0
H3769 H 0.82584 0.19876 0.4312 0.0
H3770 H 0.87439 0.20486 0.43737 0.0
H3771 H 0.8577 0.21801 0.42771 0.0
C3772 C 0.95594 0.23568 0.45458 0.0
C3773 C 0.97949 0.24208 0.44706 0.0
C3774 C 0.91082 0.2334 0.45409 0.0
C3775 C 0.88835 0.23726 0.44604 0.0
C3776 C 0.91173 0.24356 0.4385 0.0
H3777 H 0.61868 0.23549 0.42888 0.0
H3778 H 0.69759 0.23827 0.43008 0.0
C3779 C 0.95681 0.24594 0.439 0.0
C3780 C 0.84029 0.23533 0.44562 0.0
H3781 H 0.75845 0.21265 0.4348 0.0
C3782 C 0.81461 0.24635 0.45125 0.0
C3783 C 0.81979 0.22296 0.43966 0.0
C3784 C 0.84575 0.21034 0.43368 0.0
C3785 C 0.76896 0.24561 0.45094 0.0
C3786 C 0.7484 0.23322 0.44497 0.0
C3787 C 0.77415 0.22215 0.43937 0.0
C3788 C 0.70023 0.23168 0.44435 0.0
C3789 C 0.74322 0.2585 0.45681 0.0
C3790 C 0.67532 0.22687 0.45195 0.0
C3791 C 0.63003 0.22544 0.45132 0.0
C3792 C 0.60862 0.22866 0.44303 0.0
C3793 C 0.63383 0.23325 0.43541 0.0
C3794 C 0.67907 0.2347 0.43606 0.0
H3795 H 0.76315 0.27028 0.45905 0.0
H3796 H 0.7142 0.26372 0.45317 0.0
H3797 H 0.73201 0.25117 0.46295 0.0
H3798 H 0.69092 0.2241 0.45839 0.0
H3799 H 0.61177 0.22199 0.45734 0.0
H3800 H 0.17576 0.20494 0.32618 0.0
H3801 H 0.09669 0.20807 0.3256 0.0
H3802 H 0.10844 0.2656 0.33076 0.0
H3803 H 0.18766 0.2627 0.33107 0.0
H3804 H 0.0404 0.22041 0.33906 0.0
H3805 H 0.02922 0.26425 0.30853 0.0
H3806 H 0.07811 0.25205 0.31151 0.0
H3807 H 0.06445 0.2729 0.31721 0.0
C3808 C 0.16165 0.21833 0.32705 0.0
C3809 C 0.1883 0.23359 0.3286 0.0
C3810 C 0.11634 0.22007 0.32679 0.0
C3811 C 0.09653 0.2371 0.32801 0.0
C3812 C 0.12293 0.25236 0.32963 0.0
H3813 H 0.82934 0.27567 0.32924 0.0
H3814 H 0.90827 0.27233 0.32987 0.0
C3815 C 0.16828 0.25064 0.3299 0.0
C3816 C 0.04826 0.23879 0.32783 0.0
H3817 H 0.96416 0.25974 0.31682 0.0
C3818 C 0.0237 0.22894 0.33417 0.0
C3819 C 0.02644 0.24995 0.32146 0.0
C3820 C 0.0508 0.26028 0.31423 0.0
C3821 C 0.97809 0.23022 0.33444 0.0
C3822 C 0.95624 0.24137 0.32807 0.0
C3823 C 0.98082 0.2512 0.32172 0.0
C3824 C 0.90796 0.24316 0.32791 0.0
C3825 C 0.95382 0.21995 0.34171 0.0
C3826 C 0.88127 0.22789 0.32653 0.0
C3827 C 0.83594 0.22973 0.32626 0.0
C3828 C 0.8162 0.24691 0.32729 0.0
C3829 C 0.84315 0.26218 0.32859 0.0
C3830 C 0.88842 0.26032 0.32888 0.0
H3831 H 0.97539 0.21622 0.34746 0.0
H3832 H 0.92623 0.22811 0.34436 0.0
H3833 H 0.94061 0.20719 0.33879 0.0
H3834 H 0.8955 0.21455 0.32558 0.0
H3835 H 0.81637 0.21765 0.32529 0.0
H3836 H 0.97429 0.47045 0.33135 0.0
H3837 H 0.89541 0.47408 0.33229 0.0
H3838 H 0.90499 0.52617 0.31898 0.0
H3839 H 0.98395 0.52268 0.31803 0.0
H3840 H 0.84577 0.50116 0.34056 0.0
H3841 H 0.81533 0.49943 0.30348 0.0
H3842 H 0.86648 0.49256 0.30841 0.0
H3843 H 0.85391 0.5163 0.30704 0.0
C3844 C 0.95971 0.48277 0.32869 0.0
C3845 C 0.9855 0.49624 0.32457 0.0
C3846 C 0.91456 0.48477 0.32919 0.0
C3847 C 0.89419 0.50024 0.32556 0.0
C3848 C 0.91987 0.51391 0.32163 0.0
H3849 H 0.62313 0.53434 0.32194 0.0
H3850 H 0.70243 0.53217 0.32096 0.0
C3851 C 0.96503 0.5119 0.3211 0.0
C3852 C 0.84614 0.5021 0.32598 0.0
H3853 H 0.75506 0.50616 0.31287 0.0
C3854 C 0.82591 0.5022 0.3345 0.0
C3855 C 0.82027 0.50352 0.31808 0.0
C3856 C 0.83996 0.5028 0.30873 0.0
C3857 C 0.78061 0.50389 0.33535 0.0
C3858 C 0.7547 0.50515 0.32744 0.0
C3859 C 0.77494 0.50519 0.31892 0.0
C3860 C 0.7065 0.50624 0.32787 0.0
C3861 C 0.76101 0.50465 0.34471 0.0
C3862 C 0.68234 0.49221 0.3319 0.0
C3863 C 0.63706 0.4934 0.33246 0.0
C3864 C 0.61489 0.50858 0.32892 0.0
C3865 C 0.63911 0.5224 0.32467 0.0
C3866 C 0.68446 0.52122 0.32415 0.0
H3867 H 0.78542 0.50863 0.34989 0.0
H3868 H 0.73353 0.51444 0.34496 0.0
H3869 H 0.74847 0.49098 0.34654 0.0
H3870 H 0.69851 0.48029 0.3346 0.0
H3871 H 0.61937 0.48235 0.33561 0.0
H3872 H 0.86842 0.95851 0.07287 0.0
H3873 H 0.94762 0.96108 0.07186 0.0
H3874 H 0.94429 0.00795 0.08939 0.0
H3875 H 0.86524 0.00551 0.09044 0.0
H3876 H 0.99969 0.98924 0.06572 0.0
H3877 H 0.03289 0.97555 0.10201 0.0
H3878 H 0.98064 0.97126 0.09689 0.0
H3879 H 0.99566 0.99399 0.10015 0.0
C3880 C 0.88447 0.96945 0.07647 0.0
C3881 C 0.86036 0.98172 0.0818 0.0
C3882 C 0.92982 0.97085 0.07591 0.0
C3883 C 0.95209 0.98448 0.08069 0.0
C3884 C 0.92804 -0.00299 0.08584 0.0
H3885 H 0.22139 0.01828 0.08604 0.0
H3886 H 0.14249 0.01466 0.08697 0.0
C3887 C 0.88276 -0.0044 0.08642 0.0
C3888 C 1.00035 0.98579 0.08019 0.0
H3889 H 0.09252 0.98575 0.09315 0.0
C3890 C 0.02002 0.98836 0.07171 0.0
C3891 C 0.02693 0.98465 0.08801 0.0
C3892 C 1.00807 0.98104 0.09727 0.0
C3893 C 0.06532 0.99026 0.07085 0.0
C3894 C 0.09187 0.98924 0.07867 0.0
C3895 C 0.07222 0.98657 0.08715 0.0
C3896 C 0.14004 0.99108 0.07822 0.0
C3897 C 0.08424 0.99385 0.06159 0.0
C3898 C 0.16516 0.9788 0.07315 0.0
C3899 C 0.21036 0.98079 0.07263 0.0
C3900 C 0.23155 -0.00497 0.07723 0.0
C3901 C 0.20633 0.00705 0.08248 0.0
C3902 C 0.16113 0.00506 0.08298 0.0
H3903 H 0.05926 -0.00106 0.05677 0.0
H3904 H 0.11102 0.00394 0.06196 0.0
H3905 H 0.09762 0.98098 0.05882 0.0
H3906 H 0.14982 0.96762 0.0696 0.0
H3907 H 0.22876 0.97108 0.06866 0.0
H3908 H 0.06767 0.22549 0.08736 0.0
H3909 H 0.14653 0.22903 0.08862 0.0
H3910 H 0.14392 0.2698 0.06761 0.0
H3911 H 0.06496 0.26672 0.06648 0.0
H3912 H 0.2087 0.22334 0.07511 0.0
H3913 H 0.2149 0.29457 0.08752 0.0
H3914 H 0.16574 0.28119 0.08773 0.0
H3915 H 0.18368 0.29155 0.07735 0.0
C3916 C 0.08372 0.23545 0.08312 0.0
C3917 C 0.0598 0.24587 0.07684 0.0
C3918 C 0.12889 0.23735 0.0838 0.0
C3919 C 0.15116 0.24983 0.07829 0.0
C3920 C 0.12743 0.2603 0.07205 0.0
H3921 H 0.42408 0.27844 0.0712 0.0
H3922 H 0.34505 0.27548 0.06991 0.0
C3923 C 0.08228 0.25838 0.07134 0.0
C3924 C 0.19935 0.25138 0.07884 0.0
H3925 H 0.282 0.28118 0.08323 0.0
C3926 C 0.22473 0.23596 0.07693 0.0
C3927 C 0.22029 0.26788 0.08117 0.0
C3928 C 0.19483 0.28472 0.08364 0.0
C3929 C 0.27039 0.23665 0.07715 0.0
C3930 C 0.29135 0.25312 0.07951 0.0
C3931 C 0.26597 0.26856 0.0814 0.0
C3932 C 0.33952 0.25457 0.08017 0.0
C3933 C 0.29581 0.21981 0.07466 0.0
C3934 C 0.36278 0.2439 0.0864 0.0
C3935 C 0.40798 0.24548 0.08712 0.0
C3936 C 0.43103 0.25786 0.08165 0.0
C3937 C 0.40757 0.26857 0.07542 0.0
C3938 C 0.36231 0.267 0.07472 0.0
H3939 H 0.27582 0.21008 0.07068 0.0
H3940 H 0.32515 0.22335 0.07065 0.0
H3941 H 0.30652 0.21282 0.08094 0.0
H3942 H 0.3459 0.23444 0.09079 0.0
H3943 H 0.42491 0.23691 0.09194 0.0
H3944 H 0.85744 0.23953 0.20776 0.0
H3945 H 0.93677 0.2375 0.20863 0.0
H3946 H 0.94725 0.26361 0.18257 0.0
H3947 H 0.86823 0.26626 0.18177 0.0
H3948 H 0.99477 0.22006 0.19707 0.0
H3949 H 0.02871 0.29416 0.1981 0.0
H3950 H 0.97511 0.28494 0.19997 0.0
H3951 H 0.99597 0.28725 0.18865 0.0
C3952 C 0.87659 0.24504 0.20226 0.0
C3953 C 0.85625 0.25312 0.19471 0.0
C3954 C 0.92198 0.24376 0.20274 0.0
C3955 C 0.94808 0.25065 0.19573 0.0
C3956 C 0.92791 0.2585 0.18814 0.0
H3957 H 0.22709 0.25483 0.18557 0.0
H3958 H 0.14775 0.25698 0.18466 0.0
C3959 C 0.88259 0.25979 0.18765 0.0
C3960 C 0.99632 0.2493 0.19626 0.0
H3961 H 0.08953 0.27462 0.19621 0.0
C3962 C 1.01548 0.23199 0.19693 0.0
C3963 C 0.02341 0.26487 0.19605 0.0
C3964 C 1.00484 0.28387 0.19574 0.0
C3965 C 0.06087 0.22981 0.19723 0.0
C3966 C 0.08795 0.24538 0.19702 0.0
C3967 C 0.06881 0.26269 0.19635 0.0
C3968 C 0.13618 0.24401 0.19759 0.0
C3969 C 0.07945 0.21081 0.19756 0.0
C3970 C 0.15618 0.23623 0.20522 0.0
C3971 C 0.20148 0.23488 0.20574 0.0
C3972 C 0.22797 0.24141 0.19867 0.0
C3973 C 0.2078 0.24943 0.19109 0.0
C3974 C 0.16242 0.25078 0.19058 0.0
H3975 H 0.05558 0.20051 0.1952 0.0
H3976 H 0.10917 0.20973 0.19333 0.0
H3977 H 0.08833 0.20745 0.20465 0.0
H3978 H 0.13672 0.23122 0.2108 0.0
H3979 H 0.2157 0.22846 0.21164 0.0
H3980 H 0.43497 0.9915 0.2071 0.0
H3981 H 0.35587 0.99386 0.20845 0.0
H3982 H 0.34106 0.96798 0.18243 0.0
H3983 H 0.41983 0.96494 0.18118 0.0
H3984 H 0.29806 0.01197 0.19735 0.0
H3985 H 0.25874 0.93835 0.19803 0.0
H3986 H 0.31327 0.94679 0.19963 0.0
H3987 H 0.2907 0.94503 0.18843 0.0
C3988 C 0.41492 0.98604 0.20173 0.0
C3989 C 0.434 0.97798 0.19404 0.0
C3990 C 0.36965 0.98752 0.20248 0.0
C3991 C 0.34237 0.98086 0.1956 0.0
C3992 C 0.36127 0.9729 0.18791 0.0
H3993 H 0.06255 0.98077 0.1862 0.0
H3994 H 0.14161 0.97755 0.18508 0.0
C3995 C 0.40648 0.97139 0.18716 0.0
C3996 C 0.29428 0.98279 0.19633 0.0
H3997 H 0.1992 0.95872 0.19636 0.0
C3998 C 0.27647 0.00032 0.19719 0.0
C3999 C 0.26602 0.96759 0.19609 0.0
C4000 C 0.28309 0.94836 0.19558 0.0
C4001 C 0.23129 0.00309 0.19764 0.0
C4002 C 0.20303 0.98789 0.19738 0.0
C4003 C 0.22082 0.97037 0.19653 0.0
C4004 C 0.15497 0.98989 0.19808 0.0
C4005 C 0.21419 0.02231 0.19816 0.0
C4006 C 0.13604 -0.00231 0.20581 0.0
C4007 C 0.09091 -0.00034 0.20645 0.0
C4008 C 0.06349 0.99375 0.1994 0.0
C4009 C 0.08258 0.98571 0.19171 0.0
C4010 C 0.12779 0.98374 0.19108 0.0
H4011 H 0.23869 0.03237 0.19583 0.0
H4012 H 0.18431 0.02393 0.19402 0.0
H4013 H 0.20601 0.02553 0.2053 0.0
H4014 H 0.15621 0.00223 0.21138 0.0
H4015 H 0.07756 0.00607 0.21244 0.0
H4016 H 0.82389 0.98606 0.96359 0.0
H4017 H 0.90248 0.99028 0.96258 0.0
H4018 H 0.88823 0.01136 0.93548 0.0
H4019 H 0.80933 0.00777 0.93654 0.0
H4020 H 0.95993 0.97472 0.95036 0.0
H4021 H 0.9636 0.05005 0.94762 0.0
H4022 H 0.91584 0.03776 0.95121 0.0
H4023 H 0.92958 0.03905 0.9394 0.0
C4024 C 0.8373 0.99189 0.95746 0.0
C4025 C 0.81008 -0.00329 0.95017 0.0
C4026 C 0.88234 0.99416 0.95687 0.0
C4027 C 0.90126 0.00138 0.94901 0.0
C4028 C 0.87433 0.00609 0.94169 0.0
H4029 H 0.16609 0.02239 0.93171 0.0
H4030 H 0.08732 0.01929 0.93305 0.0
C4031 C 0.82922 0.00382 0.94227 0.0
C4032 C 0.94927 0.00341 0.9484 0.0
H4033 H 0.03033 0.03456 0.94527 0.0
C4034 C 0.97535 0.98782 0.9493 0.0
C4035 C 0.96938 0.0205 0.94698 0.0
C4036 C 0.94325 0.03784 0.94633 0.0
C4037 C 0.02086 0.98878 0.94865 0.0
C4038 C 0.041 0.00587 0.94725 0.0
C4039 C 1.01491 0.02147 0.94635 0.0
C4040 C 0.08902 0.00782 0.94655 0.0
C4041 C 0.04688 0.9714 0.94924 0.0
C4042 C 0.11629 0.00265 0.95374 0.0
C4043 C 0.1615 0.00423 0.95296 0.0
C4044 C 0.18042 0.01114 0.94498 0.0
C4045 C 0.15283 0.01667 0.93788 0.0
C4046 C 0.1077 0.01506 0.93866 0.0
H4047 H 0.02646 0.95923 0.9479 0.0
H4048 H 0.07431 0.97151 0.94436 0.0
H4049 H 0.06049 0.97004 0.95617 0.0
H4050 H 0.10263 -0.00262 0.95997 0.0
H4051 H 0.18162 -0.00025 0.95855 0.0
H4052 H 0.96963 0.74964 0.96341 0.0
H4053 H 0.89097 0.7454 0.96247 0.0
H4054 H 0.90253 0.73193 0.93416 0.0
H4055 H 0.98145 0.73561 0.93509 0.0
H4056 H 0.8321 0.76407 0.95148 0.0
H4057 H 0.82885 0.69003 0.94407 0.0
H4058 H 0.8767 0.70141 0.94831 0.0
H4059 H 0.86231 0.70313 0.93654 0.0
C4060 C 0.9556 0.74547 0.95701 0.0
C4061 C 0.98204 0.74285 0.94934 0.0
C4062 C 0.91054 0.74319 0.95648 0.0
C4063 C 0.89086 0.73811 0.94828 0.0
C4064 C 0.91703 0.73553 0.9406 0.0
H4065 H 0.62537 0.72072 0.93049 0.0
H4066 H 0.70413 0.72374 0.93185 0.0
C4067 C 0.96214 0.73784 0.94112 0.0
C4068 C 0.84282 0.73613 0.94773 0.0
H4069 H 0.76183 0.70585 0.9429 0.0
C4070 C 0.8167 0.75132 0.94965 0.0
C4071 C 0.82277 0.71949 0.94532 0.0
C4072 C 0.849 0.70252 0.94352 0.0
C4073 C 0.77115 0.75045 0.94905 0.0
C4074 C 0.75105 0.7338 0.94664 0.0
C4075 C 0.7772 0.71859 0.94474 0.0
C4076 C 0.703 0.73196 0.94592 0.0
C4077 C 0.74507 0.76751 0.95075 0.0
C4078 C 0.67602 0.73532 0.9534 0.0
C4079 C 0.6308 0.7338 0.95262 0.0
C4080 C 0.61155 0.72874 0.94434 0.0
C4081 C 0.63885 0.72501 0.93691 0.0
C4082 C 0.684 0.72658 0.9377 0.0
H4083 H 0.76532 0.77995 0.95009 0.0
H4084 H 0.71731 0.76855 0.94598 0.0
H4085 H 0.73195 0.76713 0.95775 0.0
H4086 H 0.68993 0.73911 0.95987 0.0
H4087 H 0.61092 0.73687 0.95847 0.0
H4088 H 0.17683 0.75323 0.82276 0.0
H4089 H 0.0978 0.75632 0.8215 0.0
H4090 H 0.08124 0.70467 0.83491 0.0
H4091 H 0.16005 0.70134 0.83611 0.0
H4092 H 0.03572 0.73342 0.81316 0.0
H4093 H 1.00573 0.73912 0.85012 0.0
H4094 H 0.05914 0.74163 0.84523 0.0
H4095 H 0.03623 0.71936 0.84682 0.0
C4096 C 0.15646 0.74242 0.82537 0.0
C4097 C 0.17503 0.72709 0.82961 0.0
C4098 C 0.11121 0.74427 0.82469 0.0
C4099 C 0.08349 0.73089 0.82826 0.0
C4100 C 0.10188 0.71539 0.8323 0.0
H4101 H 0.80156 0.71984 0.83253 0.0
H4102 H 0.88035 0.71521 0.83305 0.0
C4103 C 0.14705 0.71352 0.83298 0.0
C4104 C 0.0354 0.7331 0.82773 0.0
H4105 H 0.94373 0.73675 0.84069 0.0
C4106 C 1.01561 0.73422 0.81917 0.0
C4107 C 1.0091 0.73407 0.83558 0.0
C4108 C 0.02854 0.73365 0.84497 0.0
C4109 C 0.97027 0.73599 0.81825 0.0
C4110 C 0.94396 0.73707 0.82611 0.0
C4111 C 0.96378 0.73589 0.83467 0.0
C4112 C 0.89595 0.73973 0.82562 0.0
C4113 C 0.95091 0.73627 0.80886 0.0
C4114 C 0.87833 0.75514 0.82134 0.0
C4115 C 0.83329 0.75776 0.82097 0.0
C4116 C 0.80464 0.74512 0.82495 0.0
C4117 C 0.82245 0.72975 0.82929 0.0
C4118 C 0.86757 0.72713 0.82965 0.0
H4119 H 0.97317 0.73007 0.80381 0.0
H4120 H 0.91945 0.72889 0.80867 0.0
H4121 H 0.945 0.75059 0.80681 0.0
H4122 H 0.89945 0.76526 0.81834 0.0
H4123 H 0.82094 0.76966 0.81748 0.0
H4124 H 0.62408 0.03087 0.8199 0.0
H4125 H 0.70323 0.02774 0.81901 0.0
H4126 H 0.69932 0.98574 0.8394 0.0
H4127 H 0.62033 0.9887 0.84029 0.0
H4128 H 0.76576 0.03256 0.83198 0.0
H4129 H 0.76987 0.96127 0.81977 0.0
H4130 H 0.72071 0.97467 0.81983 0.0
H4131 H 0.73966 0.964 0.83007 0.0
C4132 C 0.64007 0.02097 0.8242 0.0
C4133 C 0.61572 0.00993 0.83011 0.0
C4134 C 0.68534 0.01916 0.82367 0.0
C4135 C 0.70728 0.00627 0.82901 0.0
C4136 C 0.68313 -0.00457 0.83502 0.0
H4137 H 0.97643 0.97512 0.83766 0.0
H4138 H 0.89768 0.97941 0.83834 0.0
C4139 C 0.63789 -0.00285 0.83552 0.0
C4140 C 0.75547 0.00445 0.82848 0.0
H4141 H 0.83719 0.97389 0.82457 0.0
C4142 C 0.78137 0.01976 0.8303 0.0
C4143 C 0.77594 0.98775 0.82628 0.0
C4144 C 0.75014 0.97103 0.82379 0.0
C4145 C 0.82704 0.01872 0.83021 0.0
C4146 C 0.84746 0.00198 0.82811 0.0
C4147 C 0.82157 0.98671 0.82623 0.0
C4148 C 0.89561 -7e-05 0.82784 0.0
C4149 C 0.85302 0.03546 0.83259 0.0
C4150 C 0.92077 0.00998 0.82168 0.0
C4151 C 0.96588 0.00751 0.82124 0.0
C4152 C 0.98682 -0.00518 0.82692 0.0
C4153 C 0.96145 0.98485 0.83311 0.0
C4154 C 0.91639 0.98734 0.83354 0.0
H4155 H 0.83305 0.04567 0.83626 0.0
H4156 H 0.88155 0.03188 0.83684 0.0
H4157 H 0.86508 0.04188 0.82627 0.0
H4158 H 0.90543 0.01948 0.81706 0.0
H4159 H 0.98418 0.01519 0.81628 0.0
H4160 H 0.11896 0.47826 0.04477 0.0
H4161 H 0.10046 0.48149 0.02876 0.0
H4162 H 0.97703 0.50509 0.03607 0.0
H4163 H 0.99583 0.50212 0.0522 0.0
H4164 H 0.03245 0.46649 0.0192 0.0
H4165 H 0.0247 0.54194 0.01789 0.0
H4166 H 0.04847 0.5298 0.02731 0.0
H4167 H 0.99043 0.53175 0.02633 0.0
C4168 C 0.0879 0.48422 0.04298 0.0
C4169 C 0.05883 0.48997 0.04975 0.0
C4170 C 0.07735 0.48602 0.03381 0.0
C4171 C 0.03758 0.49372 0.03117 0.0
C4172 C 1.00827 0.49941 0.03792 0.0
H4173 H 0.91583 0.5142 0.97919 0.0
H4174 H 0.93486 0.51111 0.99518 0.0
C4175 C 1.01886 0.4976 0.04714 0.0
C4176 C 0.02687 0.49538 0.02135 0.0
H4177 H 1.00304 0.52611 1.00467 0.0
C4178 C 0.02614 0.47954 0.01602 0.0
C4179 C 1.01876 0.5124 0.01718 0.0
C4180 C 0.02097 0.52998 0.02243 0.0
C4181 C 1.01674 0.4802 1.00669 0.0
C4182 C 1.0086 0.49722 1.00252 0.0
C4183 C 1.00937 0.51306 1.00785 0.0
C4184 C 0.99767 0.49887 0.99271 0.0
C4185 C 1.0145 0.46262 1.00144 0.0
C4186 C 0.02678 0.49314 0.98593 0.0
C4187 C 1.01587 0.49486 0.97672 0.0
C4188 C 0.97579 0.50245 0.97415 0.0
C4189 C 0.94696 0.50827 0.98095 0.0
C4190 C 0.95782 0.50655 0.99011 0.0
H4191 H 1.01087 0.45066 1.00598 0.0
H4192 H 0.98693 0.46278 0.99658 0.0
H4193 H 0.04498 0.46086 0.99752 0.0
H4194 H 0.05808 0.48747 0.98775 0.0
H4195 H 0.03872 0.49028 0.97164 0.0
H4196 H 0.37279 0.72778 0.97973 0.0
H4197 H 0.35342 0.73068 0.9957 0.0
H4198 H 0.23051 0.75455 0.98818 0.0
H4199 H 0.2497 0.75145 0.97208 0.0
H4200 H 0.33439 0.76121 1.00573 0.0
H4201 H 0.19382 0.71391 1.00544 0.0
H4202 H 0.2323 0.71511 0.99624 0.0
H4203 H 0.19048 0.73206 0.99732 0.0
C4204 C 0.34154 0.73361 0.98146 0.0
C4205 C 0.3126 0.73927 0.97464 0.0
C4206 C 0.33055 0.73528 0.99061 0.0
C4207 C 0.29027 0.74258 0.99317 0.0
C4208 C 0.26143 0.74851 0.98637 0.0
H4209 H 0.16774 0.76366 0.04495 0.0
H4210 H 0.18751 0.76075 0.029 0.0
C4211 C 0.27246 0.74683 0.97718 0.0
C4212 C 0.27914 0.74414 1.00298 0.0
H4213 H 0.20657 0.7301 0.01905 0.0
C4214 C 0.3065 0.75437 1.00865 0.0
C4215 C 0.24284 0.73516 1.0068 0.0
C4216 C 0.21333 0.7233 1.00117 0.0
C4217 C 0.29814 0.75614 0.01798 0.0
C4218 C 0.26181 0.74717 0.02181 0.0
C4219 C 0.23447 0.73693 0.01613 0.0
C4220 C 0.25055 0.7488 0.0316 0.0
C4221 C 0.32764 0.76799 0.02362 0.0
C4222 C 0.27921 0.74287 0.03843 0.0
C4223 C 0.26794 0.74456 0.04762 0.0
C4224 C 0.22774 0.75212 0.05011 0.0
C4225 C 0.19902 0.75782 0.04326 0.0
C4226 C 0.21025 0.75614 0.03412 0.0
H4227 H 0.3473 0.77733 0.01935 0.0
H4228 H 0.30864 0.77623 0.02852 0.0
H4229 H 0.35035 0.75922 0.0275 0.0
H4230 H 0.31014 0.73681 0.03666 0.0
H4231 H 0.29054 0.73992 0.05275 0.0
H4232 H 0.04777 0.74948 0.30336 0.0
H4233 H 0.06721 0.75284 0.28726 0.0
H4234 H 0.94468 0.72896 0.27959 0.0
H4235 H 0.92516 0.72569 0.29553 0.0
H4236 H 0.07368 0.72544 0.27369 0.0
H4237 H 0.94704 0.77616 0.26481 0.0
H4238 H 0.96208 0.77121 0.27638 0.0
H4239 H 0.9263 0.75618 0.27032 0.0
C4240 C 0.02505 0.745 0.29822 0.0
C4241 C 0.98492 0.73737 0.3007 0.0
C4242 C 0.03613 0.74692 0.28904 0.0
C4243 C 1.00709 0.74142 0.2822 0.0
C4244 C 0.96724 0.73366 0.28471 0.0
H4245 H 1.00808 0.73886 0.22293 0.0
H4246 H 0.98966 0.73566 0.23908 0.0
C4247 C 0.95625 0.7317 0.29385 0.0
C4248 C 1.01853 0.74328 0.27244 0.0
H4249 H 0.98474 0.76246 0.25252 0.0
C4250 C 0.05445 0.73365 0.26907 0.0
C4251 C 0.99322 0.75387 0.26639 0.0
C4252 C 0.95523 0.76509 0.26965 0.0
C4253 C 0.06522 0.73402 0.2598 0.0
C4254 C 0.03989 0.74461 0.25375 0.0
C4255 C 1.00402 0.75427 0.25713 0.0
C4256 C 0.05093 0.7463 0.24395 0.0
C4257 C 0.10304 0.7227 0.25655 0.0
C4258 C 0.09115 0.75355 0.24132 0.0
C4259 C 0.10162 0.75537 0.23215 0.0
C4260 C 0.072 0.75012 0.22538 0.0
C4261 C 0.03153 0.743 0.22799 0.0
C4262 C 0.02102 0.74118 0.23721 0.0
H4263 H 0.11087 0.71155 0.26137 0.0
H4264 H 0.09624 0.71666 0.2498 0.0
H4265 H 0.13219 0.73149 0.25594 0.0
H4266 H 0.11438 0.758 0.24636 0.0
H4267 H 0.13297 0.76101 0.23035 0.0
H4268 H 0.17035 0.47514 0.22814 0.0
H4269 H 0.18966 0.47844 0.24411 0.0
H4270 H 0.31243 0.50217 0.23647 0.0
H4271 H 0.29275 0.49918 0.2204 0.0
H4272 H 0.25753 0.46371 0.25363 0.0
H4273 H 0.26617 0.53913 0.25461 0.0
H4274 H 0.24225 0.52692 0.24525 0.0
H4275 H 0.30031 0.52882 0.24619 0.0
C4276 C 0.20143 0.48113 0.22985 0.0
C4277 C 0.23003 0.48693 0.223 0.0
C4278 C 0.21246 0.48298 0.23899 0.0
C4279 C 0.25226 0.49076 0.24154 0.0
C4280 C 0.28115 0.49645 0.23471 0.0
H4281 H 0.37636 0.51149 0.29333 0.0
H4282 H 0.35705 0.50819 0.27735 0.0
C4283 C 0.27006 0.49462 0.22552 0.0
C4284 C 0.26346 0.49254 0.25134 0.0
H4285 H 0.28867 0.52344 0.26784 0.0
C4286 C 0.26421 0.47678 0.25674 0.0
C4287 C 0.27207 0.50959 0.25542 0.0
C4288 C 0.26982 0.52712 0.2501 0.0
C4289 C 0.27406 0.47756 0.26605 0.0
C4290 C 0.28271 0.49461 0.27013 0.0
C4291 C 0.28197 0.51037 0.26473 0.0
C4292 C 0.29391 0.49638 0.27993 0.0
C4293 C 0.27617 0.46006 0.27138 0.0
C4294 C 0.26471 0.49096 0.28675 0.0
C4295 C 0.27576 0.49283 0.29594 0.0
C4296 C 0.31609 0.50023 0.29846 0.0
C4297 C 0.34504 0.50572 0.29161 0.0
C4298 C 0.33403 0.50387 0.28247 0.0
H4299 H 0.27935 0.448 0.26689 0.0
H4300 H 0.30396 0.46019 0.27618 0.0
H4301 H 0.24584 0.4585 0.27537 0.0
H4302 H 0.23322 0.48545 0.28498 0.0
H4303 H 0.25278 0.48852 0.30106 0.0
H4304 H 0.75013 0.25098 0.97269 0.0
H4305 H 0.73169 0.2543 0.98883 0.0
H4306 H 0.85595 0.23148 0.99617 0.0
H4307 H 0.87453 0.22831 0.98018 0.0
H4308 H 0.72672 0.22732 1.00237 0.0
H4309 H 0.85292 0.27821 1.01104 0.0
H4310 H 0.8379 0.27313 0.9995 0.0
H4311 H 0.8741 0.25828 1.00558 0.0
C4312 C 0.77347 0.24675 0.97776 0.0
C4313 C 0.81381 0.23945 0.97517 0.0
C4314 C 0.76295 0.24864 0.98698 0.0
C4315 C 0.79275 0.24342 0.99373 0.0
C4316 C 0.83282 0.23599 0.99111 0.0
H4317 H 0.79279 0.23995 0.05306 0.0
H4318 H 0.81115 0.23687 0.0369 0.0
C4319 C 0.84328 0.23409 0.98195 0.0
C4320 C 0.7818 0.24519 1.00353 0.0
H4321 H 0.81626 0.26425 0.02342 0.0
C4322 C 0.74609 0.2355 1.00696 0.0
C4323 C 0.80728 0.25576 1.00954 0.0
C4324 C 0.84496 0.26708 1.00623 0.0
C4325 C 0.73568 0.23583 0.01624 0.0
C4326 C 0.76119 0.24638 0.02225 0.0
C4327 C 0.79688 0.25607 0.01883 0.0
C4328 C 0.75034 0.24808 0.03205 0.0
C4329 C 0.69796 0.22454 0.01955 0.0
C4330 C 0.71045 0.25563 0.03471 0.0
C4331 C 0.70005 0.25741 0.04388 0.0
C4332 C 0.72939 0.2518 0.05063 0.0
C4333 C 0.76956 0.24439 0.04801 0.0
C4334 C 0.78003 0.24262 0.03879 0.0
H4335 H 0.6897 0.21349 0.01471 0.0
H4336 H 0.70516 0.21837 0.02626 0.0
H4337 H 0.66895 0.23339 0.02028 0.0
H4338 H 0.6874 0.2603 0.02967 0.0
H4339 H 0.66892 0.26327 0.04568 0.0
H4340 H 0.04023 0.25034 0.80291 0.0
H4341 H 0.05887 0.25396 0.78679 0.0
H4342 H 0.93605 0.23012 0.77929 0.0
H4343 H 0.91729 0.22664 0.79526 0.0
H4344 H 0.06553 0.22723 0.77314 0.0
H4345 H 0.93669 0.27716 0.76459 0.0
H4346 H 0.95189 0.27202 0.77613 0.0
H4347 H 0.91659 0.25694 0.76997 0.0
C4348 C 1.01728 0.24593 0.79781 0.0
C4349 C 0.97728 0.23826 0.80035 0.0
C4350 C 0.0279 0.248 0.78861 0.0
C4351 C 0.99853 0.2426 0.78181 0.0
C4352 C 0.95884 0.23477 0.78438 0.0
H4353 H 0.99939 0.2405 0.72244 0.0
H4354 H 0.98092 0.23696 0.73858 0.0
C4355 C 0.94828 0.23269 0.79353 0.0
C4356 C 1.00952 0.24464 0.77202 0.0
H4357 H 0.97435 0.26381 0.75219 0.0
C4358 C 0.04579 0.23534 0.76857 0.0
C4359 C 0.98357 0.25511 0.76603 0.0
C4360 C 0.94524 0.26602 0.76937 0.0
C4361 C 0.05633 0.23595 0.7593 0.0
C4362 C 0.03036 0.2464 0.75331 0.0
C4363 C 0.99411 0.25571 0.75676 0.0
C4364 C 0.04126 0.2484 0.74352 0.0
C4365 C 0.09467 0.22504 0.75596 0.0
C4366 C 0.0809 0.25623 0.74092 0.0
C4367 C 0.09137 0.25827 0.73176 0.0
C4368 C 0.06233 0.25264 0.72496 0.0
C4369 C 0.02238 0.24496 0.72753 0.0
C4370 C 1.01185 0.24294 0.73674 0.0
H4371 H 0.10331 0.21393 0.76075 0.0
H4372 H 0.08796 0.219 0.74921 0.0
H4373 H 0.12327 0.23413 0.75533 0.0
H4374 H 0.10372 0.26093 0.74599 0.0
H4375 H 0.12231 0.26433 0.73001 0.0
H4376 H 0.87051 0.51344 0.79487 0.0
H4377 H 0.85126 0.51092 0.77888 0.0
H4378 H 0.72854 0.48674 0.78617 0.0
H4379 H 0.74809 0.48902 0.80231 0.0
H4380 H 0.77185 0.46841 0.77208 0.0
H4381 H 0.76478 0.54246 0.76499 0.0
H4382 H 0.81483 0.53527 0.77011 0.0
H4383 H 0.76488 0.53339 0.77636 0.0
C4384 C 0.83931 0.50764 0.79309 0.0
C4385 C 0.81062 0.50156 0.79986 0.0
C4386 C 0.82824 0.50632 0.78393 0.0
C4387 C 0.78809 0.49899 0.78131 0.0
C4388 C 0.75955 0.49261 0.78804 0.0
H4389 H 0.66462 0.47791 0.72946 0.0
H4390 H 0.68389 0.48057 0.74545 0.0
C4391 C 0.77066 0.49395 0.79725 0.0
C4392 C 0.77673 0.4976 0.77152 0.0
H4393 H 0.76364 0.52279 0.7522 0.0
C4394 C 0.76975 0.4803 0.76775 0.0
C4395 C 0.77429 0.51312 0.76583 0.0
C4396 C 0.77969 0.53213 0.76953 0.0
C4397 C 0.76118 0.47808 0.75845 0.0
C4398 C 0.75876 0.4936 0.75277 0.0
C4399 C 0.76575 0.51089 0.75653 0.0
C4400 C 0.74735 0.49219 0.74299 0.0
C4401 C 0.75569 0.45908 0.75476 0.0
C4402 C 0.77608 0.49835 0.73624 0.0
C4403 C 0.76499 0.49692 0.72703 0.0
C4404 C 0.72484 0.48944 0.72445 0.0
C4405 C 0.69595 0.48361 0.73123 0.0
C4406 C 0.70702 0.48501 0.74038 0.0
H4407 H 0.77036 0.44871 0.75931 0.0
H4408 H 0.72053 0.45601 0.75413 0.0
H4409 H 0.77068 0.45779 0.74795 0.0
H4410 H 0.80724 0.50409 0.73809 0.0
H4411 H 0.78775 0.50163 0.72195 0.0
H4412 H 0.99799 -0.00157 0.55298 0.0
H4413 H 0.97868 0.00123 0.53685 0.0
H4414 H 0.10085 0.97661 0.52947 0.0
H4415 H 0.11987 0.97359 0.54546 0.0
H4416 H 0.02245 0.01975 0.52289 0.0
H4417 H 1.014 0.94597 0.51527 0.0
H4418 H 1.01416 0.95468 0.5267 0.0
H4419 H 0.06415 0.95277 0.52046 0.0
C4420 C 0.02048 0.99351 0.54791 0.0
C4421 C 0.06024 0.98563 0.55049 0.0
C4422 C 1.00951 -0.00486 0.5387 0.0
C4423 C 0.03796 0.98882 0.53193 0.0
C4424 C 0.07787 0.98119 0.53454 0.0
H4425 H 0.0392 0.98744 0.47256 0.0
H4426 H 0.05792 0.98459 0.48872 0.0
C4427 C 0.08882 0.97958 0.5437 0.0
C4428 C 0.02678 0.99057 0.52213 0.0
H4429 H 1.01369 0.96604 0.50261 0.0
C4430 C 0.02021 0.008 0.51847 0.0
C4431 C 0.02416 0.97524 0.51633 0.0
C4432 C 0.02908 0.9561 0.51989 0.0
C4433 C 1.01194 0.01055 0.50917 0.0
C4434 C 1.00937 -0.00477 0.50337 0.0
C4435 C 1.0159 0.9778 0.50703 0.0
C4436 C 0.99846 -0.00301 0.49356 0.0
C4437 C 1.00702 0.0297 0.50561 0.0
C4438 C 0.95863 0.00461 0.49089 0.0
C4439 C 0.94801 0.00625 0.48171 0.0
C4440 C 0.97683 0.00021 0.47496 0.0
C4441 C 1.0165 0.99233 0.47761 0.0
C4442 C 0.02714 0.99067 0.48683 0.0
H4443 H 0.02194 0.03983 0.51025 0.0
H4444 H 0.02212 0.03113 0.49882 0.0
H4445 H 0.97195 0.03299 0.505 0.0
H4446 H 0.93549 0.00919 0.49593 0.0
H4447 H 0.91703 0.01225 0.47991 0.0
H4448 H 0.24425 0.24743 0.4714 0.0
H4449 H 0.22687 0.25141 0.48757 0.0
H4450 H 0.35351 0.23083 0.49475 0.0
H4451 H 0.37087 0.2268 0.47874 0.0
H4452 H 0.22919 0.22384 0.50213 0.0
H4453 H 0.34413 0.28086 0.50792 0.0
H4454 H 0.32577 0.27439 0.49676 0.0
H4455 H 0.36722 0.26136 0.50237 0.0
C4456 C 0.26826 0.24376 0.47644 0.0
C4457 C 0.30893 0.23684 0.4738 0.0
C4458 C 0.25833 0.24602 0.48567 0.0
C4459 C 0.28911 0.2416 0.49237 0.0
C4460 C 0.3295 0.23456 0.48971 0.0
H4461 H 0.26103 0.22437 0.55066 0.0
H4462 H 0.27469 0.22103 0.53434 0.0
C4463 C 0.33929 0.23221 0.48055 0.0
C4464 C 0.27942 0.24419 0.50216 0.0
H4465 H 0.31309 0.26726 0.521 0.0
C4466 C 0.24732 0.2334 0.50625 0.0
C4467 C 0.30296 0.25673 0.50753 0.0
C4468 C 0.33672 0.26913 0.50343 0.0
C4469 C 0.23879 0.23455 0.51561 0.0
C4470 C 0.26328 0.24671 0.52102 0.0
C4471 C 0.29469 0.25778 0.51688 0.0
C4472 C 0.25587 0.24861 0.53095 0.0
C4473 C 0.20329 0.22292 0.51961 0.0
C4474 C 0.24196 0.26533 0.53452 0.0
C4475 C 0.23429 0.26726 0.54381 0.0
C4476 C 0.24067 0.25255 0.54976 0.0
C4477 C 0.25564 0.23592 0.54624 0.0
C4478 C 0.26315 0.23396 0.53691 0.0
H4479 H 0.18115 0.2175 0.51431 0.0
H4480 H 0.21814 0.21119 0.5232 0.0
H4481 H 0.18382 0.23078 0.52459 0.0
H4482 H 0.23641 0.27684 0.53008 0.0
H4483 H 0.22295 0.28028 0.54632 0.0
H4484 H 0.37515 0.01201 0.7951 0.0
H4485 H 0.35459 0.00927 0.77918 0.0
H4486 H 0.2322 0.98547 0.78702 0.0
H4487 H 0.25259 0.9884 0.80307 0.0
H4488 H 0.33459 0.97889 0.7691 0.0
H4489 H 0.19432 0.02643 0.77003 0.0
H4490 H 0.23354 0.02503 0.7791 0.0
H4491 H 0.19159 0.00815 0.77809 0.0
C4492 C 0.34378 0.00622 0.79345 0.0
C4493 C 0.31532 0.00054 0.80034 0.0
C4494 C 0.3321 0.00464 0.78433 0.0
C4495 C 0.2916 -0.00258 0.78187 0.0
C4496 C 0.26327 0.99144 0.78874 0.0
H4497 H 0.16598 0.97803 0.73012 0.0
H4498 H 0.18622 0.98039 0.74608 0.0
C4499 C 0.27499 0.99303 0.79791 0.0
C4500 C 0.27968 -0.00397 0.7721 0.0
H4501 H 0.20615 0.01058 0.75629 0.0
C4502 C 0.30655 0.98585 0.7663 0.0
C4503 C 0.24317 0.00515 0.76842 0.0
C4504 C 0.21415 0.01695 0.77419 0.0
C4505 C 0.29754 0.9843 0.75698 0.0
C4506 C 0.26107 0.99345 0.7533 0.0
C4507 C 0.23417 0.0036 0.7591 0.0
C4508 C 0.24938 0.9922 0.74351 0.0
C4509 C 0.32658 0.97252 0.7512 0.0
C4510 C 0.27791 -0.00173 0.7367 0.0
C4511 C 0.26637 -0.0031 0.72752 0.0
C4512 C 0.22602 0.98952 0.725 0.0
C4513 C 0.19737 0.98372 0.73183 0.0
C4514 C 0.20888 0.98508 0.74097 0.0
H4515 H 0.34621 0.96296 0.75537 0.0
H4516 H 0.30723 0.96452 0.74626 0.0
H4517 H 0.34933 0.98132 0.74736 0.0
H4518 H 0.30898 0.00417 0.73848 0.0
H4519 H 0.28889 0.00164 0.72241 0.0
H4520 H 0.77086 0.76177 0.47273 0.0
H4521 H 0.76251 0.76581 0.48914 0.0
H4522 H 0.80947 0.71122 0.49358 0.0
H4523 H 0.81746 0.70704 0.47721 0.0
H4524 H 0.73657 0.71975 0.50401 0.0
H4525 H 0.86251 0.77341 0.50712 0.0
H4526 H 0.82073 0.77827 0.49896 0.0
H4527 H 0.85699 0.75944 0.49713 0.0
C4528 C 0.77922 0.75061 0.47721 0.0
C4529 C 0.79511 0.73413 0.47368 0.0
C4530 C 0.77476 0.75298 0.48659 0.0
C4531 C 0.78619 0.73894 0.49262 0.0
C4532 C 0.80077 0.7223 0.48908 0.0
H4533 H 0.77721 0.72629 0.55182 0.0
H4534 H 0.79078 0.72164 0.53559 0.0
C4535 C 0.80532 0.71993 0.47971 0.0
C4536 C 0.78281 0.74151 0.50261 0.0
H4537 H 0.82053 0.76725 0.52023 0.0
C4538 C 0.75508 0.73007 0.50757 0.0
C4539 C 0.80705 0.75496 0.50726 0.0
C4540 C 0.83882 0.76714 0.50238 0.0
C4541 C 0.75008 0.732 0.517 0.0
C4542 C 0.77419 0.74551 0.52165 0.0
C4543 C 0.80214 0.75687 0.51669 0.0
C4544 C 0.76945 0.74857 0.53158 0.0
C4545 C 0.71796 0.71993 0.52184 0.0
C4546 C 0.75495 0.76549 0.5348 0.0
C4547 C 0.74763 0.76822 0.54405 0.0
C4548 C 0.75476 0.75409 0.55032 0.0
C4549 C 0.77116 0.73739 0.54715 0.0
C4550 C 0.77855 0.73468 0.53787 0.0
H4551 H 0.69457 0.71356 0.51706 0.0
H4552 H 0.73578 0.70885 0.52536 0.0
H4553 H 0.69941 0.72773 0.52699 0.0
H4554 H 0.74803 0.77646 0.53011 0.0
H4555 H 0.73518 0.78127 0.54627 0.0
H4556 H 0.79598 -0.00063 0.22233 0.0
H4557 H 0.81487 0.00228 0.23847 0.0
H4558 H 0.69398 0.97653 0.24575 0.0
H4559 H 0.67542 0.97338 0.22976 0.0
H4560 H 0.77037 0.02034 0.25239 0.0
H4561 H 0.78172 0.94663 0.26006 0.0
H4562 H 0.78115 0.95533 0.24862 0.0
H4563 H 0.73126 0.95307 0.25487 0.0
C4564 C 0.77369 0.99422 0.22738 0.0
C4565 C 0.73442 0.98599 0.22477 0.0
C4566 C 0.78442 -0.00408 0.2366 0.0
C4567 C 0.75622 0.98931 0.24335 0.0
C4568 C 0.71679 0.98133 0.24071 0.0
H4569 H 0.75451 0.98794 0.30276 0.0
H4570 H 0.73578 0.98508 0.2866 0.0
C4571 C 0.7061 0.97965 0.23154 0.0
C4572 C 0.76714 0.99112 0.25317 0.0
H4573 H 0.78086 0.96668 0.27271 0.0
C4574 C 0.77298 0.00859 0.25682 0.0
C4575 C 0.77026 0.97582 0.25898 0.0
C4576 C 0.76618 0.95664 0.25544 0.0
C4577 C 0.78103 0.0112 0.26612 0.0
C4578 C 0.78409 -0.00411 0.27194 0.0
C4579 C 0.77826 0.97842 0.26829 0.0
C4580 C 0.79491 -0.00229 0.28175 0.0
C4581 C 0.78523 0.03037 0.26967 0.0
C4582 C 0.83455 0.00548 0.28441 0.0
C4583 C 0.84518 0.00711 0.29359 0.0
C4584 C 0.81656 0.00094 0.30035 0.0
C4585 C 0.77704 0.99295 0.29771 0.0
C4586 C 0.7664 0.99128 0.28849 0.0
H4587 H 0.77006 0.04042 0.26502 0.0
H4588 H 0.76997 0.03171 0.27646 0.0
H4589 H 0.82017 0.03384 0.27032 0.0
H4590 H 0.85755 0.01016 0.27938 0.0
H4591 H 0.87604 0.0132 0.29539 0.0
H4592 H 0.49323 0.49825 0.55263 0.0
H4593 H 0.47516 0.50206 0.53649 0.0
H4594 H 0.60302 0.4831 0.52918 0.0
H4595 H 0.62111 0.47929 0.54518 0.0
H4596 H 0.57721 0.51521 0.52004 0.0
H4597 H 0.4519 0.46092 0.51779 0.0
H4598 H 0.44425 0.47749 0.52661 0.0
H4599 H 0.48996 0.46233 0.52708 0.0
C4600 C 0.51732 0.49484 0.54756 0.0
C4601 C 0.55849 0.48838 0.55017 0.0
C4602 C 0.50695 0.49695 0.53835 0.0
C4603 C 0.53761 0.49268 0.5316 0.0
C4604 C 0.5788 0.48643 0.53424 0.0
H4605 H 0.50876 0.47614 0.47341 0.0
H4606 H 0.52403 0.47319 0.48969 0.0
C4607 C 0.58905 0.48424 0.5434 0.0
C4608 C 0.52753 0.49491 0.52179 0.0
H4609 H 0.4642 0.47844 0.5046 0.0
C4610 C 0.55238 0.50722 0.51667 0.0
C4611 C 0.49555 0.4843 0.51736 0.0
C4612 C 0.46901 0.47039 0.52244 0.0
C4613 C 0.54594 0.5093 0.50729 0.0
C4614 C 0.51356 0.49888 0.50289 0.0
C4615 C 0.48889 0.48647 0.50798 0.0
C4616 C 0.50482 0.50073 0.493 0.0
C4617 C 0.57445 0.52238 0.50213 0.0
C4618 C 0.48886 0.51715 0.48945 0.0
C4619 C 0.48005 0.51885 0.48018 0.0
C4620 C 0.48698 0.50415 0.47425 0.0
C4621 C 0.50321 0.48773 0.4778 0.0
C4622 C 0.5118 0.486 0.4871 0.0
H4623 H 0.60399 0.52614 0.50603 0.0
H4624 H 0.58459 0.51644 0.49554 0.0
H4625 H 0.55589 0.53502 0.50071 0.0
H4626 H 0.48268 0.52862 0.49387 0.0
H4627 H 0.46745 0.53167 0.47766 0.0
H4628 H 0.53604 0.75058 0.8024 0.0
H4629 H 0.55481 0.75417 0.78629 0.0
H4630 H 0.43132 0.731 0.77875 0.0
H4631 H 0.41239 0.72757 0.79472 0.0
H4632 H 0.56113 0.7275 0.77274 0.0
H4633 H 0.43347 0.77775 0.76391 0.0
H4634 H 0.44807 0.77261 0.77548 0.0
H4635 H 0.41273 0.75763 0.76928 0.0
C4636 C 0.51292 0.74634 0.79729 0.0
C4637 C 0.4727 0.73885 0.79982 0.0
C4638 C 0.52364 0.74839 0.78809 0.0
C4639 C 0.49417 0.74314 0.78129 0.0
C4640 C 0.4542 0.73554 0.78384 0.0
H4641 H 0.4974 0.74043 0.72192 0.0
H4642 H 0.47821 0.73702 0.73802 0.0
C4643 C 0.44353 0.73349 0.79299 0.0
C4644 C 0.50542 0.74505 0.77151 0.0
H4645 H 0.47125 0.76416 0.75159 0.0
C4646 C 0.54166 0.73562 0.76813 0.0
C4647 C 0.47984 0.75554 0.76546 0.0
C4648 C 0.44159 0.7666 0.76871 0.0
C4649 C 0.55255 0.73614 0.75887 0.0
C4650 C 0.52695 0.74662 0.75283 0.0
C4651 C 0.4907 0.75604 0.7562 0.0
C4652 C 0.53828 0.74853 0.74305 0.0
C4653 C 0.59088 0.72513 0.75562 0.0
C4654 C 0.57802 0.75636 0.74052 0.0
C4655 C 0.58888 0.75834 0.73138 0.0
C4656 C 0.56016 0.75265 0.72453 0.0
C4657 C 0.52014 0.74495 0.72704 0.0
C4658 C 0.5092 0.74299 0.73623 0.0
H4659 H 0.59929 0.71406 0.76044 0.0
H4660 H 0.58429 0.71902 0.74887 0.0
H4661 H 0.61958 0.73417 0.75498 0.0
H4662 H 0.6006 0.7611 0.74563 0.0
H4663 H 0.61988 0.76441 0.72967 0.0
H4664 H 0.4797 0.20795 0.29694 0.0
H4665 H 0.49122 0.21188 0.28066 0.0
H4666 H 0.53605 0.26669 0.28527 0.0
H4667 H 0.52504 0.26275 0.30162 0.0
H4668 H 0.45201 0.23707 0.26928 0.0
H4669 H 0.63113 0.24574 0.26902 0.0
H4670 H 0.60221 0.23692 0.27871 0.0
H4671 H 0.60291 0.26098 0.2765 0.0
C4672 C 0.49242 0.22079 0.2945 0.0
C4673 C 0.50152 0.23504 0.30057 0.0
C4674 C 0.49889 0.22302 0.28518 0.0
C4675 C 0.51489 0.23951 0.28172 0.0
C4676 C 0.52442 0.25373 0.28778 0.0
H4677 H 0.56759 0.27973 0.22739 0.0
H4678 H 0.55602 0.27608 0.24369 0.0
C4679 C 0.51795 0.25149 0.29712 0.0
C4680 C 0.51995 0.24195 0.27175 0.0
H4681 H 0.59427 0.25115 0.25517 0.0
C4682 C 0.48315 0.24008 0.26619 0.0
C4683 C 0.56056 0.24591 0.26772 0.0
C4684 C 0.60158 0.24736 0.27327 0.0
C4685 C 0.48569 0.24235 0.25674 0.0
C4686 C 0.52632 0.24627 0.2527 0.0
C4687 C 0.56311 0.24816 0.25826 0.0
C4688 C 0.53145 0.24857 0.24272 0.0
C4689 C 0.44463 0.24094 0.2512 0.0
C4690 C 0.52145 0.23433 0.23671 0.0
C4691 C 0.52791 0.23641 0.22736 0.0
C4692 C 0.54485 0.25272 0.22386 0.0
C4693 C 0.55447 0.26699 0.22987 0.0
C4694 C 0.54798 0.26492 0.2392 0.0
H4695 H 0.41514 0.24278 0.25544 0.0
H4696 H 0.4442 0.25124 0.24569 0.0
H4697 H 0.44295 0.22724 0.24806 0.0
H4698 H 0.50945 0.22146 0.23926 0.0
H4699 H 0.52041 0.22513 0.2229 0.0
H4700 H 0.62055 0.97621 0.04606 0.0
H4701 H 0.60219 0.97942 0.03005 0.0
H4702 H 0.47949 0.00374 0.0373 0.0
H4703 H 0.49819 0.00081 0.05345 0.0
H4704 H 0.53447 0.96486 0.0204 0.0
H4705 H 0.52792 0.04033 0.01916 0.0
H4706 H 0.55105 0.02809 0.02861 0.0
H4707 H 0.49309 0.03023 0.02753 0.0
C4708 C 0.58967 0.98231 0.04427 0.0
C4709 C 0.56082 0.9883 0.05103 0.0
C4710 C 0.57919 0.9841 0.03509 0.0
C4711 C 0.5397 0.99202 0.03243 0.0
C4712 C 0.51054 -0.0021 0.03917 0.0
H4713 H 0.41977 0.01302 0.98028 0.0
H4714 H 0.43825 0.00978 0.99629 0.0
C4715 C 0.52108 -0.00389 0.04839 0.0
C4716 C 0.52919 0.99375 0.02259 0.0
H4717 H 0.50633 0.02461 1.0059 0.0
C4718 C 0.52843 0.97794 0.01723 0.0
C4719 C 0.52146 0.01081 0.01842 0.0
C4720 C 0.52377 0.02837 0.02369 0.0
C4721 C 0.5194 0.97868 1.00788 0.0
C4722 C 0.51162 -0.00427 1.00372 0.0
C4723 C 0.51239 0.01154 1.00907 0.0
C4724 C 0.50102 -0.00255 0.99388 0.0
C4725 C 0.51717 0.96113 1.0026 0.0
C4726 C 0.53029 0.99172 0.98713 0.0
C4727 C 0.5197 0.99354 0.97791 0.0
C4728 C 0.47977 0.00122 0.9753 0.0
C4729 C 0.45079 0.00703 0.98207 0.0
C4730 C 0.46133 0.00522 0.99124 0.0
H4731 H 0.51331 0.94914 1.00712 0.0
H4732 H 0.48973 0.96136 0.99772 0.0
H4733 H 0.54773 0.95935 0.99872 0.0
H4734 H 0.56147 0.98599 0.98898 0.0
H4735 H 0.54268 0.98898 0.97285 0.0
loop_
_geom_bond_atom_site_label_1
_geom_bond_atom_site_label_2
_geom_bond_distance
_geom_bond_site_symmetry_2
_ccdc_geom_bond_type
Pr0 C2 2.880 . S
Pr0 O20 2.562 . S
Pr0 O21 2.490 . S
Pr0 O22 2.695 1_655 S
Pr0 O23 2.512 . S
Pr0 O25 2.437 . S
Pr0 O28 2.436 1_655 S
Pr0 O30 2.438 1_655 S
Pr1 C11 2.880 . S
Pr1 O22 2.436 . S
Pr1 O24 2.438 . S
Pr1 O26 2.562 . S
Pr1 O27 2.490 . S
Pr1 O28 2.695 . S
Pr1 O29 2.512 . S
Pr1 O31 2.437 . S
C2 Pr0 2.880 . S
C2 C3 1.491 . S
C2 O20 1.254 . S
C2 O21 1.225 . S
C3 C2 1.491 . S
C3 C4 1.392 . S
C3 C8 1.356 . S
C4 C3 1.392 . S
C4 C5 1.368 . S
C4 H32 0.929 . S
C5 C4 1.368 . S
C5 C6 1.386 . S
C5 H33 0.929 . S
C6 C5 1.386 . S
C6 C7 1.373 . S
C7 C6 1.373 . S
C7 C8 1.409 . S
C7 H34 0.931 . S
C8 C3 1.356 . S
C8 C7 1.409 . S
C8 H35 0.930 . S
C9 O22 1.270 . S
C9 O23 1.248 1_455 S
C10 O24 1.267 1_655 S
C10 O25 1.278 . S
C11 Pr1 2.880 . S
C11 C12 1.491 . S
C11 O26 1.254 . S
C11 O27 1.225 . S
C12 C11 1.491 . S
C12 C13 1.392 . S
C12 C17 1.356 . S
C13 C12 1.392 . S
C13 C14 1.368 . S
C13 H36 0.929 . S
C14 C13 1.368 . S
C14 C15 1.386 . S
C14 H37 0.929 . S
C15 C14 1.386 . S
C15 C16 1.373 . S
C16 C15 1.373 . S
C16 C17 1.409 . S
C16 H38 0.931 . S
C17 C12 1.356 . S
C17 C16 1.409 . S
C17 H39 0.930 . S
C18 O28 1.270 . S
C18 O29 1.248 . S
C19 O30 1.267 . S
C19 O31 1.278 . S
O20 Pr0 2.562 . S
O20 C2 1.254 . S
O21 Pr0 2.490 . S
O21 C2 1.225 . S
O22 Pr0 2.695 1_455 S
O22 Pr1 2.436 . S
O22 C9 1.270 . S
O23 Pr0 2.512 . S
O23 C9 1.248 1_655 S
O24 Pr1 2.438 . S
O24 C10 1.267 1_455 S
O25 Pr0 2.437 . S
O25 C10 1.278 . S
O26 Pr1 2.562 . S
O26 C11 1.254 . S
O27 Pr1 2.490 . S
O27 C11 1.225 . S
O28 Pr0 2.436 1_455 S
O28 Pr1 2.695 . S
O28 C18 1.270 . S
O29 Pr1 2.512 . S
O29 C18 1.248 . S
O30 Pr0 2.438 1_455 S
O30 C19 1.267 . S
O31 Pr1 2.437 . S
O31 C19 1.278 . S
H32 C4 0.929 . S
H33 C5 0.929 . S
H34 C7 0.931 . S
H35 C8 0.930 . S
H36 C13 0.929 . S
H37 C14 0.929 . S
H38 C16 0.931 . S
H39 C17 0.930 . S
Pr40 C42 2.880 . S
Pr40 O60 2.562 . S
Pr40 O61 2.490 . S
Pr40 O62 2.695 . S
Pr40 O63 2.512 . S
Pr40 O65 2.437 . S
Pr40 O68 2.436 . S
Pr40 O70 2.438 . S
Pr41 C51 2.880 . S
Pr41 O62 2.436 . S
Pr41 O64 2.438 . S
Pr41 O66 2.562 . S
Pr41 O67 2.490 . S
Pr41 O68 2.695 . S
Pr41 O69 2.512 . S
Pr41 O71 2.437 . S
C42 Pr40 2.880 . S
C42 C43 1.491 . S
C42 O60 1.254 . S
C42 O61 1.225 . S
C43 C42 1.491 . S
C43 C44 1.392 . S
C43 C48 1.356 . S
C44 C43 1.392 . S
C44 C45 1.368 . S
C44 H72 0.929 . S
C45 C44 1.368 . S
C45 C46 1.386 . S
C45 H73 0.929 . S
C46 C45 1.386 . S
C46 C47 1.373 . S
C47 C46 1.373 . S
C47 C48 1.409 . S
C47 H74 0.931 . S
C48 C43 1.356 . S
C48 C47 1.409 . S
C48 H75 0.930 . S
C49 O62 1.270 . S
C49 O63 1.248 . S
C50 O64 1.267 . S
C50 O65 1.278 . S
C51 Pr41 2.880 . S
C51 C52 1.491 . S
C51 O66 1.254 . S
C51 O67 1.225 . S
C52 C51 1.491 . S
C52 C53 1.392 . S
C52 C57 1.356 . S
C53 C52 1.392 . S
C53 C54 1.368 1_455 S
C53 H76 0.929 . S
C54 C53 1.368 1_655 S
C54 C55 1.386 . S
C54 H77 0.929 . S
C55 C54 1.386 . S
C55 C56 1.373 . S
C56 C55 1.373 . S
C56 C57 1.409 1_655 S
C56 H78 0.931 . S
C57 C52 1.356 . S
C57 C56 1.409 1_455 S
C57 H79 0.930 . S
C58 O68 1.270 . S
C58 O69 1.248 . S
C59 O70 1.267 . S
C59 O71 1.278 . S
O60 Pr40 2.562 . S
O60 C42 1.254 . S
O61 Pr40 2.490 . S
O61 C42 1.225 . S
O62 Pr40 2.695 . S
O62 Pr41 2.436 . S
O62 C49 1.270 . S
O63 Pr40 2.512 . S
O63 C49 1.248 . S
O64 Pr41 2.438 . S
O64 C50 1.267 . S
O65 Pr40 2.437 . S
O65 C50 1.278 . S
O66 Pr41 2.562 . S
O66 C51 1.254 . S
O67 Pr41 2.490 . S
O67 C51 1.225 . S
O68 Pr40 2.436 . S
O68 Pr41 2.695 . S
O68 C58 1.270 . S
O69 Pr41 2.512 . S
O69 C58 1.248 . S
O70 Pr40 2.438 . S
O70 C59 1.267 . S
O71 Pr41 2.437 . S
O71 C59 1.278 . S
H72 C44 0.929 . S
H73 C45 0.929 . S
H74 C47 0.931 . S
H75 C48 0.930 . S
H76 C53 0.929 . S
H77 C54 0.929 . S
H78 C56 0.931 . S
H79 C57 0.930 . S
Pr80 C82 2.880 . S
Pr80 O100 2.562 . S
Pr80 O101 2.490 . S
Pr80 O102 2.695 1_655 S
Pr80 O103 2.512 . S
Pr80 O105 2.437 . S
Pr80 O108 2.436 1_655 S
Pr80 O110 2.438 1_655 S
Pr81 C91 2.880 . S
Pr81 O102 2.436 . S
Pr81 O104 2.438 . S
Pr81 O106 2.562 . S
Pr81 O107 2.490 . S
Pr81 O108 2.695 . S
Pr81 O109 2.512 . S
Pr81 O111 2.437 . S
C82 Pr80 2.880 . S
C82 C83 1.491 . S
C82 O100 1.254 . S
C82 O101 1.225 . S
C83 C82 1.491 . S
C83 C84 1.392 . S
C83 C88 1.356 . S
C84 C83 1.392 . S
C84 C85 1.368 . S
C84 H112 0.929 . S
C85 C84 1.368 . S
C85 C86 1.386 . S
C85 H113 0.929 . S
C86 C85 1.386 . S
C86 C87 1.373 . S
C87 C86 1.373 . S
C87 C88 1.409 . S
C87 H114 0.931 . S
C88 C83 1.356 . S
C88 C87 1.409 . S
C88 H115 0.930 . S
C89 O102 1.270 . S
C89 O103 1.248 1_455 S
C90 O104 1.267 1_655 S
C90 O105 1.278 . S
C91 Pr81 2.880 . S
C91 C92 1.491 . S
C91 O106 1.254 . S
C91 O107 1.225 . S
C92 C91 1.491 . S
C92 C93 1.392 . S
C92 C97 1.356 . S
C93 C92 1.392 . S
C93 C94 1.368 . S
C93 H116 0.929 . S
C94 C93 1.368 . S
C94 C95 1.386 . S
C94 H117 0.929 . S
C95 C94 1.386 . S
C95 C96 1.373 . S
C96 C95 1.373 . S
C96 C97 1.409 . S
C96 H118 0.931 . S
C97 C92 1.356 . S
C97 C96 1.409 . S
C97 H119 0.930 . S
C98 O108 1.270 . S
C98 O109 1.248 . S
C99 O110 1.267 . S
C99 O111 1.278 . S
O100 Pr80 2.562 . S
O100 C82 1.254 . S
O101 Pr80 2.490 . S
O101 C82 1.225 . S
O102 Pr80 2.695 1_455 S
O102 Pr81 2.436 . S
O102 C89 1.270 . S
O103 Pr80 2.512 . S
O103 C89 1.248 1_655 S
O104 Pr81 2.438 . S
O104 C90 1.267 1_455 S
O105 Pr80 2.437 . S
O105 C90 1.278 . S
O106 Pr81 2.562 . S
O106 C91 1.254 . S
O107 Pr81 2.490 . S
O107 C91 1.225 . S
O108 Pr80 2.436 1_455 S
O108 Pr81 2.695 . S
O108 C98 1.270 . S
O109 Pr81 2.512 . S
O109 C98 1.248 . S
O110 Pr80 2.438 1_455 S
O110 C99 1.267 . S
O111 Pr81 2.437 . S
O111 C99 1.278 . S
H112 C84 0.929 . S
H113 C85 0.929 . S
H114 C87 0.931 . S
H115 C88 0.930 . S
H116 C93 0.929 . S
H117 C94 0.929 . S
H118 C96 0.931 . S
H119 C97 0.930 . S
Pr120 C122 2.880 . S
Pr120 O140 2.562 . S
Pr120 O141 2.490 . S
Pr120 O142 2.695 . S
Pr120 O143 2.512 . S
Pr120 O145 2.437 . S
Pr120 O148 2.436 . S
Pr120 O150 2.438 . S
Pr121 C131 2.880 . S
Pr121 O142 2.436 . S
Pr121 O144 2.438 . S
Pr121 O146 2.562 . S
Pr121 O147 2.490 . S
Pr121 O148 2.695 . S
Pr121 O149 2.512 . S
Pr121 O151 2.437 . S
C122 Pr120 2.880 . S
C122 C123 1.491 . S
C122 O140 1.254 . S
C122 O141 1.225 . S
C123 C122 1.491 . S
C123 C124 1.392 . S
C123 C128 1.356 . S
C124 C123 1.392 . S
C124 C125 1.368 . S
C124 H152 0.929 . S
C125 C124 1.368 . S
C125 C126 1.386 . S
C125 H153 0.929 . S
C126 C125 1.386 . S
C126 C127 1.373 . S
C127 C126 1.373 . S
C127 C128 1.409 . S
C127 H154 0.931 . S
C128 C123 1.356 . S
C128 C127 1.409 . S
C128 H155 0.930 . S
C129 O142 1.270 . S
C129 O143 1.248 . S
C130 O144 1.267 . S
C130 O145 1.278 . S
C131 Pr121 2.880 . S
C131 C132 1.491 . S
C131 O146 1.254 . S
C131 O147 1.225 . S
C132 C131 1.491 . S
C132 C133 1.392 . S
C132 C137 1.356 . S
C133 C132 1.392 . S
C133 C134 1.368 1_455 S
C133 H156 0.929 . S
C134 C133 1.368 1_655 S
C134 C135 1.386 . S
C134 H157 0.929 . S
C135 C134 1.386 . S
C135 C136 1.373 . S
C136 C135 1.373 . S
C136 C137 1.409 1_655 S
C136 H158 0.931 . S
C137 C132 1.356 . S
C137 C136 1.409 1_455 S
C137 H159 0.930 . S
C138 O148 1.270 . S
C138 O149 1.248 . S
C139 O150 1.267 . S
C139 O151 1.278 . S
O140 Pr120 2.562 . S
O140 C122 1.254 . S
O141 Pr120 2.490 . S
O141 C122 1.225 . S
O142 Pr120 2.695 . S
O142 Pr121 2.436 . S
O142 C129 1.270 . S
O143 Pr120 2.512 . S
O143 C129 1.248 . S
O144 Pr121 2.438 . S
O144 C130 1.267 . S
O145 Pr120 2.437 . S
O145 C130 1.278 . S
O146 Pr121 2.562 . S
O146 C131 1.254 . S
O147 Pr121 2.490 . S
O147 C131 1.225 . S
O148 Pr120 2.436 . S
O148 Pr121 2.695 . S
O148 C138 1.270 . S
O149 Pr121 2.512 . S
O149 C138 1.248 . S
O150 Pr120 2.438 . S
O150 C139 1.267 . S
O151 Pr121 2.437 . S
O151 C139 1.278 . S
H152 C124 0.929 . S
H153 C125 0.929 . S
H154 C127 0.931 . S
H155 C128 0.930 . S
H156 C133 0.929 . S
H157 C134 0.929 . S
H158 C136 0.931 . S
H159 C137 0.930 . S
Pr160 C162 2.880 . S
Pr160 O180 2.562 . S
Pr160 O181 2.490 . S
Pr160 O182 2.695 . S
Pr160 O183 2.512 . S
Pr160 O185 2.437 . S
Pr160 O188 2.436 . S
Pr160 O190 2.438 . S
Pr161 C171 2.880 . S
Pr161 O182 2.436 1_455 S
Pr161 O184 2.438 1_455 S
Pr161 O186 2.562 . S
Pr161 O187 2.490 . S
Pr161 O188 2.695 1_455 S
Pr161 O189 2.512 . S
Pr161 O191 2.437 . S
C162 Pr160 2.880 . S
C162 C163 1.491 . S
C162 O180 1.254 . S
C162 O181 1.225 . S
C163 C162 1.491 . S
C163 C164 1.392 . S
C163 C168 1.356 . S
C164 C163 1.392 . S
C164 C165 1.368 . S
C164 H192 0.929 . S
C165 C164 1.368 . S
C165 C166 1.386 . S
C165 H193 0.929 . S
C166 C165 1.386 . S
C166 C167 1.373 . S
C167 C166 1.373 . S
C167 C168 1.409 . S
C167 H194 0.931 . S
C168 C163 1.356 . S
C168 C167 1.409 . S
C168 H195 0.930 . S
C169 O182 1.270 . S
C169 O183 1.248 . S
C170 O184 1.267 . S
C170 O185 1.278 . S
C171 Pr161 2.880 . S
C171 C172 1.491 . S
C171 O186 1.254 . S
C171 O187 1.225 . S
C172 C171 1.491 . S
C172 C173 1.392 . S
C172 C177 1.356 . S
C173 C172 1.392 . S
C173 C174 1.368 . S
C173 H196 0.929 . S
C174 C173 1.368 . S
C174 C175 1.386 . S
C174 H197 0.929 . S
C175 C174 1.386 . S
C175 C176 1.373 . S
C176 C175 1.373 . S
C176 C177 1.409 . S
C176 H198 0.931 . S
C177 C172 1.356 . S
C177 C176 1.409 . S
C177 H199 0.930 . S
C178 O188 1.270 . S
C178 O189 1.248 1_655 S
C179 O190 1.267 1_455 S
C179 O191 1.278 . S
O180 Pr160 2.562 . S
O180 C162 1.254 . S
O181 Pr160 2.490 . S
O181 C162 1.225 . S
O182 Pr160 2.695 . S
O182 Pr161 2.436 1_655 S
O182 C169 1.270 . S
O183 Pr160 2.512 . S
O183 C169 1.248 . S
O184 Pr161 2.438 1_655 S
O184 C170 1.267 . S
O185 Pr160 2.437 . S
O185 C170 1.278 . S
O186 Pr161 2.562 . S
O186 C171 1.254 . S
O187 Pr161 2.490 . S
O187 C171 1.225 . S
O188 Pr160 2.436 . S
O188 Pr161 2.695 1_655 S
O188 C178 1.270 . S
O189 Pr161 2.512 . S
O189 C178 1.248 1_455 S
O190 Pr160 2.438 . S
O190 C179 1.267 1_655 S
O191 Pr161 2.437 . S
O191 C179 1.278 . S
H192 C164 0.929 . S
H193 C165 0.929 . S
H194 C167 0.931 . S
H195 C168 0.930 . S
H196 C173 0.929 . S
H197 C174 0.929 . S
H198 C176 0.931 . S
H199 C177 0.930 . S
Pr200 C202 2.880 . S
Pr200 O220 2.562 . S
Pr200 O221 2.490 . S
Pr200 O222 2.695 . S
Pr200 O223 2.512 . S
Pr200 O225 2.437 . S
Pr200 O228 2.436 . S
Pr200 O230 2.438 . S
Pr201 C211 2.880 . S
Pr201 O222 2.436 . S
Pr201 O224 2.438 . S
Pr201 O226 2.562 . S
Pr201 O227 2.490 . S
Pr201 O228 2.695 . S
Pr201 O229 2.512 . S
Pr201 O231 2.437 . S
C202 Pr200 2.880 . S
C202 C203 1.491 . S
C202 O220 1.254 . S
C202 O221 1.225 . S
C203 C202 1.491 . S
C203 C204 1.392 . S
C203 C208 1.356 . S
C204 C203 1.392 . S
C204 C205 1.368 1_655 S
C204 H232 0.929 . S
C205 C204 1.368 1_455 S
C205 C206 1.386 . S
C205 H233 0.929 . S
C206 C205 1.386 . S
C206 C207 1.373 . S
C207 C206 1.373 . S
C207 C208 1.409 1_455 S
C207 H234 0.931 . S
C208 C203 1.356 . S
C208 C207 1.409 1_655 S
C208 H235 0.930 . S
C209 O222 1.270 . S
C209 O223 1.248 . S
C210 O224 1.267 . S
C210 O225 1.278 . S
C211 Pr201 2.880 . S
C211 C212 1.491 . S
C211 O226 1.254 . S
C211 O227 1.225 . S
C212 C211 1.491 . S
C212 C213 1.392 . S
C212 C217 1.356 . S
C213 C212 1.392 . S
C213 C214 1.368 . S
C213 H236 0.929 . S
C214 C213 1.368 . S
C214 C215 1.386 . S
C214 H237 0.929 . S
C215 C214 1.386 . S
C215 C216 1.373 . S
C216 C215 1.373 . S
C216 C217 1.409 . S
C216 H238 0.931 . S
C217 C212 1.356 . S
C217 C216 1.409 . S
C217 H239 0.930 . S
C218 O228 1.270 . S
C218 O229 1.248 . S
C219 O230 1.267 . S
C219 O231 1.278 . S
O220 Pr200 2.562 . S
O220 C202 1.254 . S
O221 Pr200 2.490 . S
O221 C202 1.225 . S
O222 Pr200 2.695 . S
O222 Pr201 2.436 . S
O222 C209 1.270 . S
O223 Pr200 2.512 . S
O223 C209 1.248 . S
O224 Pr201 2.438 . S
O224 C210 1.267 . S
O225 Pr200 2.437 . S
O225 C210 1.278 . S
O226 Pr201 2.562 . S
O226 C211 1.254 . S
O227 Pr201 2.490 . S
O227 C211 1.225 . S
O228 Pr200 2.436 . S
O228 Pr201 2.695 . S
O228 C218 1.270 . S
O229 Pr201 2.512 . S
O229 C218 1.248 . S
O230 Pr200 2.438 . S
O230 C219 1.267 . S
O231 Pr201 2.437 . S
O231 C219 1.278 . S
H232 C204 0.929 . S
H233 C205 0.929 . S
H234 C207 0.931 . S
H235 C208 0.930 . S
H236 C213 0.929 . S
H237 C214 0.929 . S
H238 C216 0.931 . S
H239 C217 0.930 . S
Pr240 C242 2.880 . S
Pr240 O260 2.562 . S
Pr240 O261 2.490 . S
Pr240 O262 2.695 . S
Pr240 O263 2.512 . S
Pr240 O265 2.437 . S
Pr240 O268 2.436 . S
Pr240 O270 2.438 . S
Pr241 C251 2.880 . S
Pr241 O262 2.436 1_455 S
Pr241 O264 2.438 1_455 S
Pr241 O266 2.562 . S
Pr241 O267 2.490 . S
Pr241 O268 2.695 1_455 S
Pr241 O269 2.512 . S
Pr241 O271 2.437 . S
C242 Pr240 2.880 . S
C242 C243 1.491 . S
C242 O260 1.254 . S
C242 O261 1.225 . S
C243 C242 1.491 . S
C243 C244 1.392 . S
C243 C248 1.356 . S
C244 C243 1.392 . S
C244 C245 1.368 . S
C244 H272 0.929 . S
C245 C244 1.368 . S
C245 C246 1.386 . S
C245 H273 0.929 . S
C246 C245 1.386 . S
C246 C247 1.373 . S
C247 C246 1.373 . S
C247 C248 1.409 . S
C247 H274 0.931 . S
C248 C243 1.356 . S
C248 C247 1.409 . S
C248 H275 0.930 . S
C249 O262 1.270 . S
C249 O263 1.248 . S
C250 O264 1.267 . S
C250 O265 1.278 . S
C251 Pr241 2.880 . S
C251 C252 1.491 . S
C251 O266 1.254 . S
C251 O267 1.225 . S
C252 C251 1.491 . S
C252 C253 1.392 . S
C252 C257 1.356 . S
C253 C252 1.392 . S
C253 C254 1.368 . S
C253 H276 0.929 . S
C254 C253 1.368 . S
C254 C255 1.386 . S
C254 H277 0.929 . S
C255 C254 1.386 . S
C255 C256 1.373 . S
C256 C255 1.373 . S
C256 C257 1.409 . S
C256 H278 0.931 . S
C257 C252 1.356 . S
C257 C256 1.409 . S
C257 H279 0.930 . S
C258 O268 1.270 . S
C258 O269 1.248 1_655 S
C259 O270 1.267 1_455 S
C259 O271 1.278 . S
O260 Pr240 2.562 . S
O260 C242 1.254 . S
O261 Pr240 2.490 . S
O261 C242 1.225 . S
O262 Pr240 2.695 . S
O262 Pr241 2.436 1_655 S
O262 C249 1.270 . S
O263 Pr240 2.512 . S
O263 C249 1.248 . S
O264 Pr241 2.438 1_655 S
O264 C250 1.267 . S
O265 Pr240 2.437 . S
O265 C250 1.278 . S
O266 Pr241 2.562 . S
O266 C251 1.254 . S
O267 Pr241 2.490 . S
O267 C251 1.225 . S
O268 Pr240 2.436 . S
O268 Pr241 2.695 1_655 S
O268 C258 1.270 . S
O269 Pr241 2.512 . S
O269 C258 1.248 1_455 S
O270 Pr240 2.438 . S
O270 C259 1.267 1_655 S
O271 Pr241 2.437 . S
O271 C259 1.278 . S
H272 C244 0.929 . S
H273 C245 0.929 . S
H274 C247 0.931 . S
H275 C248 0.930 . S
H276 C253 0.929 . S
H277 C254 0.929 . S
H278 C256 0.931 . S
H279 C257 0.930 . S
Pr280 C282 2.880 . S
Pr280 O300 2.562 . S
Pr280 O301 2.490 . S
Pr280 O302 2.695 . S
Pr280 O303 2.512 . S
Pr280 O305 2.437 . S
Pr280 O308 2.436 . S
Pr280 O310 2.438 . S
Pr281 C291 2.880 . S
Pr281 O302 2.436 . S
Pr281 O304 2.438 . S
Pr281 O306 2.562 . S
Pr281 O307 2.490 . S
Pr281 O308 2.695 . S
Pr281 O309 2.512 . S
Pr281 O311 2.437 . S
C282 Pr280 2.880 . S
C282 C283 1.491 . S
C282 O300 1.254 . S
C282 O301 1.225 . S
C283 C282 1.491 . S
C283 C284 1.392 . S
C283 C288 1.356 . S
C284 C283 1.392 . S
C284 C285 1.368 1_655 S
C284 H312 0.929 . S
C285 C284 1.368 1_455 S
C285 C286 1.386 . S
C285 H313 0.929 . S
C286 C285 1.386 . S
C286 C287 1.373 . S
C287 C286 1.373 . S
C287 C288 1.409 1_455 S
C287 H314 0.931 . S
C288 C283 1.356 . S
C288 C287 1.409 1_655 S
C288 H315 0.930 . S
C289 O302 1.270 . S
C289 O303 1.248 . S
C290 O304 1.267 . S
C290 O305 1.278 . S
C291 Pr281 2.880 . S
C291 C292 1.491 . S
C291 O306 1.254 . S
C291 O307 1.225 . S
C292 C291 1.491 . S
C292 C293 1.392 . S
C292 C297 1.356 . S
C293 C292 1.392 . S
C293 C294 1.368 . S
C293 H316 0.929 . S
C294 C293 1.368 . S
C294 C295 1.386 . S
C294 H317 0.929 . S
C295 C294 1.386 . S
C295 C296 1.373 . S
C296 C295 1.373 . S
C296 C297 1.409 . S
C296 H318 0.931 . S
C297 C292 1.356 . S
C297 C296 1.409 . S
C297 H319 0.930 . S
C298 O308 1.270 . S
C298 O309 1.248 . S
C299 O310 1.267 . S
C299 O311 1.278 . S
O300 Pr280 2.562 . S
O300 C282 1.254 . S
O301 Pr280 2.490 . S
O301 C282 1.225 . S
O302 Pr280 2.695 . S
O302 Pr281 2.436 . S
O302 C289 1.270 . S
O303 Pr280 2.512 . S
O303 C289 1.248 . S
O304 Pr281 2.438 . S
O304 C290 1.267 . S
O305 Pr280 2.437 . S
O305 C290 1.278 . S
O306 Pr281 2.562 . S
O306 C291 1.254 . S
O307 Pr281 2.490 . S
O307 C291 1.225 . S
O308 Pr280 2.436 . S
O308 Pr281 2.695 . S
O308 C298 1.270 . S
O309 Pr281 2.512 . S
O309 C298 1.248 . S
O310 Pr280 2.438 . S
O310 C299 1.267 . S
O311 Pr281 2.437 . S
O311 C299 1.278 . S
H312 C284 0.929 . S
H313 C285 0.929 . S
H314 C287 0.931 . S
H315 C288 0.930 . S
H316 C293 0.929 . S
H317 C294 0.929 . S
H318 C296 0.931 . S
H319 C297 0.930 . S
Pr320 C322 2.880 1_545 S
Pr320 O340 2.562 1_545 S
Pr320 O341 2.490 . S
Pr320 O342 2.695 1_645 S
Pr320 O343 2.512 . S
Pr320 O345 2.437 1_545 S
Pr320 O348 2.436 1_645 S
Pr320 O350 2.438 1_655 S
Pr321 C331 2.880 . S
Pr321 O342 2.436 . S
Pr321 O344 2.438 . S
Pr321 O346 2.562 . S
Pr321 O347 2.490 . S
Pr321 O348 2.695 . S
Pr321 O349 2.512 . S
Pr321 O351 2.437 1_565 S
C322 Pr320 2.880 1_565 S
C322 C323 1.491 . S
C322 O340 1.254 . S
C322 O341 1.225 1_565 S
C323 C322 1.491 . S
C323 C324 1.392 . S
C323 C328 1.356 . S
C324 C323 1.392 . S
C324 C325 1.368 . S
C324 H352 0.925 1_565 S
C325 C324 1.368 . S
C325 C326 1.386 . S
C325 H353 0.929 . S
C326 C325 1.386 . S
C326 C327 1.373 . S
C327 C326 1.373 . S
C327 C328 1.409 . S
C327 H354 0.931 . S
C328 C323 1.356 . S
C328 C327 1.409 . S
C328 H355 0.930 . S
C329 O342 1.270 . S
C329 O343 1.248 1_465 S
C330 O344 1.267 1_655 S
C330 O345 1.278 . S
C331 Pr321 2.880 . S
C331 C332 1.491 . S
C331 O346 1.254 . S
C331 O347 1.225 . S
C332 C331 1.491 . S
C332 C333 1.392 . S
C332 C337 1.356 1_565 S
C333 C332 1.392 . S
C333 C334 1.380 . S
C333 H356 0.929 . S
C334 C333 1.380 . S
C334 C335 1.360 1_565 S
C334 H357 0.946 . S
C335 C334 1.360 1_545 S
C335 C336 1.373 . S
C336 C335 1.373 . S
C336 C337 1.409 . S
C336 H358 0.931 . S
C337 C332 1.356 1_545 S
C337 C336 1.409 . S
C337 H359 0.930 . S
C338 O348 1.270 . S
C338 O349 1.248 . S
C339 O350 1.267 . S
C339 O351 1.278 . S
O340 Pr320 2.562 1_565 S
O340 C322 1.254 . S
O341 Pr320 2.490 . S
O341 C322 1.225 1_545 S
O342 Pr320 2.695 1_465 S
O342 Pr321 2.436 . S
O342 C329 1.270 . S
O343 Pr320 2.512 . S
O343 C329 1.248 1_645 S
O344 Pr321 2.438 . S
O344 C330 1.267 1_455 S
O345 Pr320 2.437 1_565 S
O345 C330 1.278 . S
O346 Pr321 2.562 . S
O346 C331 1.254 . S
O347 Pr321 2.490 . S
O347 C331 1.225 . S
O348 Pr320 2.436 1_465 S
O348 Pr321 2.695 . S
O348 C338 1.270 . S
O349 Pr321 2.512 . S
O349 C338 1.248 . S
O350 Pr320 2.438 1_455 S
O350 C339 1.267 . S
O351 Pr321 2.437 1_545 S
O351 C339 1.278 . S
H352 C324 0.925 1_545 S
H353 C325 0.929 . S
H354 C327 0.931 . S
H355 C328 0.930 . S
H356 C333 0.929 . S
H357 C334 0.946 . S
H358 C336 0.931 . S
H359 C337 0.930 . S
Pr360 C362 2.880 . S
Pr360 O380 2.562 . S
Pr360 O381 2.490 . S
Pr360 O382 2.695 . S
Pr360 O383 2.512 . S
Pr360 O385 2.437 . S
Pr360 O388 2.436 . S
Pr360 O390 2.438 . S
Pr361 C371 2.880 . S
Pr361 O382 2.436 . S
Pr361 O384 2.438 . S
Pr361 O386 2.562 . S
Pr361 O387 2.490 . S
Pr361 O388 2.695 . S
Pr361 O389 2.512 . S
Pr361 O391 2.437 . S
C362 Pr360 2.880 . S
C362 C363 1.491 . S
C362 O380 1.254 . S
C362 O381 1.225 . S
C363 C362 1.491 . S
C363 C364 1.392 . S
C363 C368 1.356 . S
C364 C363 1.392 . S
C364 C365 1.368 . S
C364 H392 0.929 . S
C365 C364 1.368 . S
C365 C366 1.386 . S
C365 H393 0.929 . S
C366 C365 1.386 . S
C366 C367 1.373 . S
C367 C366 1.373 . S
C367 C368 1.409 . S
C367 H394 0.931 . S
C368 C363 1.356 . S
C368 C367 1.409 . S
C368 H395 0.930 . S
C369 O382 1.270 . S
C369 O383 1.248 . S
C370 O384 1.267 . S
C370 O385 1.278 . S
C371 Pr361 2.880 . S
C371 C372 1.491 . S
C371 O386 1.254 . S
C371 O387 1.225 . S
C372 C371 1.491 . S
C372 C373 1.392 . S
C372 C377 1.356 . S
C373 C372 1.392 . S
C373 C374 1.368 1_455 S
C373 H396 0.929 . S
C374 C373 1.368 1_655 S
C374 C375 1.386 . S
C374 H397 0.929 . S
C375 C374 1.386 . S
C375 C376 1.373 . S
C376 C375 1.373 . S
C376 C377 1.409 1_655 S
C376 H398 0.931 . S
C377 C372 1.356 . S
C377 C376 1.409 1_455 S
C377 H399 0.930 . S
C378 O388 1.270 . S
C378 O389 1.248 . S
C379 O390 1.267 . S
C379 O391 1.278 . S
O380 Pr360 2.562 . S
O380 C362 1.254 . S
O381 Pr360 2.490 . S
O381 C362 1.225 . S
O382 Pr360 2.695 . S
O382 Pr361 2.436 . S
O382 C369 1.270 . S
O383 Pr360 2.512 . S
O383 C369 1.248 . S
O384 Pr361 2.438 . S
O384 C370 1.267 . S
O385 Pr360 2.437 . S
O385 C370 1.278 . S
O386 Pr361 2.562 . S
O386 C371 1.254 . S
O387 Pr361 2.490 . S
O387 C371 1.225 . S
O388 Pr360 2.436 . S
O388 Pr361 2.695 . S
O388 C378 1.270 . S
O389 Pr361 2.512 . S
O389 C378 1.248 . S
O390 Pr360 2.438 . S
O390 C379 1.267 . S
O391 Pr361 2.437 . S
O391 C379 1.278 . S
H392 C364 0.929 . S
H393 C365 0.929 . S
H394 C367 0.931 . S
H395 C368 0.930 . S
H396 C373 0.929 . S
H397 C374 0.929 . S
H398 C376 0.931 . S
H399 C377 0.930 . S
Pr400 C402 2.880 . S
Pr400 O420 2.562 . S
Pr400 O421 2.490 . S
Pr400 O422 2.695 1_655 S
Pr400 O423 2.512 . S
Pr400 O425 2.437 . S
Pr400 O428 2.436 1_655 S
Pr400 O430 2.438 1_655 S
Pr401 C411 2.880 . S
Pr401 O422 2.436 . S
Pr401 O424 2.438 . S
Pr401 O426 2.562 . S
Pr401 O427 2.490 . S
Pr401 O428 2.695 . S
Pr401 O429 2.512 . S
Pr401 O431 2.437 . S
C402 Pr400 2.880 . S
C402 C403 1.491 . S
C402 O420 1.254 . S
C402 O421 1.225 . S
C403 C402 1.491 . S
C403 C404 1.392 . S
C403 C408 1.356 . S
C404 C403 1.392 . S
C404 C405 1.368 . S
C404 H432 0.929 . S
C405 C404 1.368 . S
C405 C406 1.386 . S
C405 H433 0.929 . S
C406 C405 1.386 . S
C406 C407 1.373 . S
C407 C406 1.373 . S
C407 C408 1.409 . S
C407 H434 0.931 . S
C408 C403 1.356 . S
C408 C407 1.409 . S
C408 H435 0.930 . S
C409 O422 1.270 . S
C409 O423 1.248 1_455 S
C410 O424 1.267 1_655 S
C410 O425 1.278 . S
C411 Pr401 2.880 . S
C411 C412 1.491 . S
C411 O426 1.254 . S
C411 O427 1.225 . S
C412 C411 1.491 . S
C412 C413 1.392 . S
C412 C417 1.356 . S
C413 C412 1.392 . S
C413 C414 1.368 . S
C413 H436 0.929 . S
C414 C413 1.368 . S
C414 C415 1.386 . S
C414 H437 0.929 . S
C415 C414 1.386 . S
C415 C416 1.373 . S
C416 C415 1.373 . S
C416 C417 1.409 . S
C416 H438 0.931 . S
C417 C412 1.356 . S
C417 C416 1.409 . S
C417 H439 0.930 . S
C418 O428 1.270 . S
C418 O429 1.248 . S
C419 O430 1.267 . S
C419 O431 1.278 . S
O420 Pr400 2.562 . S
O420 C402 1.254 . S
O421 Pr400 2.490 . S
O421 C402 1.225 . S
O422 Pr400 2.695 1_455 S
O422 Pr401 2.436 . S
O422 C409 1.270 . S
O423 Pr400 2.512 . S
O423 C409 1.248 1_655 S
O424 Pr401 2.438 . S
O424 C410 1.267 1_455 S
O425 Pr400 2.437 . S
O425 C410 1.278 . S
O426 Pr401 2.562 . S
O426 C411 1.254 . S
O427 Pr401 2.490 . S
O427 C411 1.225 . S
O428 Pr400 2.436 1_455 S
O428 Pr401 2.695 . S
O428 C418 1.270 . S
O429 Pr401 2.512 . S
O429 C418 1.248 . S
O430 Pr400 2.438 1_455 S
O430 C419 1.267 . S
O431 Pr401 2.437 . S
O431 C419 1.278 . S
H432 C404 0.929 . S
H433 C405 0.929 . S
H434 C407 0.931 . S
H435 C408 0.930 . S
H436 C413 0.929 . S
H437 C414 0.929 . S
H438 C416 0.931 . S
H439 C417 0.930 . S
Pr440 C442 2.880 1_545 S
Pr440 O460 2.562 1_545 S
Pr440 O461 2.490 . S
Pr440 O462 2.695 1_545 S
Pr440 O463 2.512 . S
Pr440 O465 2.437 1_545 S
Pr440 O468 2.436 1_545 S
Pr440 O470 2.438 . S
Pr441 C451 2.880 . S
Pr441 O462 2.436 . S
Pr441 O464 2.438 . S
Pr441 O466 2.562 . S
Pr441 O467 2.490 . S
Pr441 O468 2.695 . S
Pr441 O469 2.512 . S
Pr441 O471 2.437 1_565 S
C442 Pr440 2.880 1_565 S
C442 C443 1.491 . S
C442 O460 1.254 . S
C442 O461 1.225 1_565 S
C443 C442 1.491 . S
C443 C444 1.392 . S
C443 C448 1.356 . S
C444 C443 1.392 . S
C444 C445 1.368 . S
C444 H472 0.925 1_565 S
C445 C444 1.368 . S
C445 C446 1.386 . S
C445 H473 0.929 . S
C446 C445 1.386 . S
C446 C447 1.373 . S
C447 C446 1.373 . S
C447 C448 1.409 . S
C447 H474 0.931 . S
C448 C443 1.356 . S
C448 C447 1.409 . S
C448 H475 0.930 . S
C449 O462 1.270 . S
C449 O463 1.248 1_565 S
C450 O464 1.267 . S
C450 O465 1.278 . S
C451 Pr441 2.880 . S
C451 C452 1.491 . S
C451 O466 1.254 . S
C451 O467 1.225 . S
C452 C451 1.491 . S
C452 C453 1.392 . S
C452 C457 1.356 1_565 S
C453 C452 1.392 . S
C453 C454 1.380 1_455 S
C453 H476 0.929 . S
C454 C453 1.380 1_655 S
C454 C455 1.360 1_565 S
C454 H477 0.946 . S
C455 C454 1.360 1_545 S
C455 C456 1.373 . S
C456 C455 1.373 . S
C456 C457 1.409 1_655 S
C456 H478 0.931 . S
C457 C452 1.356 1_545 S
C457 C456 1.409 1_455 S
C457 H479 0.930 . S
C458 O468 1.270 . S
C458 O469 1.248 . S
C459 O470 1.267 . S
C459 O471 1.278 . S
O460 Pr440 2.562 1_565 S
O460 C442 1.254 . S
O461 Pr440 2.490 . S
O461 C442 1.225 1_545 S
O462 Pr440 2.695 1_565 S
O462 Pr441 2.436 . S
O462 C449 1.270 . S
O463 Pr440 2.512 . S
O463 C449 1.248 1_545 S
O464 Pr441 2.438 . S
O464 C450 1.267 . S
O465 Pr440 2.437 1_565 S
O465 C450 1.278 . S
O466 Pr441 2.562 . S
O466 C451 1.254 . S
O467 Pr441 2.490 . S
O467 C451 1.225 . S
O468 Pr440 2.436 1_565 S
O468 Pr441 2.695 . S
O468 C458 1.270 . S
O469 Pr441 2.512 . S
O469 C458 1.248 . S
O470 Pr440 2.438 . S
O470 C459 1.267 . S
O471 Pr441 2.437 1_545 S
O471 C459 1.278 . S
H472 C444 0.925 1_545 S
H473 C445 0.929 . S
H474 C447 0.931 . S
H475 C448 0.930 . S
H476 C453 0.929 . S
H477 C454 0.946 . S
H478 C456 0.931 . S
H479 C457 0.930 . S
Pr480 C482 2.880 . S
Pr480 O500 2.562 . S
Pr480 O501 2.490 . S
Pr480 O502 2.695 . S
Pr480 O503 2.512 . S
Pr480 O505 2.437 1_545 S
Pr480 O508 2.436 . S
Pr480 O510 2.438 . S
Pr481 C491 2.880 1_565 S
Pr481 O502 2.436 1_465 S
Pr481 O504 2.438 1_455 S
Pr481 O506 2.562 1_565 S
Pr481 O507 2.490 . S
Pr481 O508 2.695 1_465 S
Pr481 O509 2.512 . S
Pr481 O511 2.437 1_565 S
C482 Pr480 2.880 . S
C482 C483 1.491 . S
C482 O500 1.254 . S
C482 O501 1.225 . S
C483 C482 1.491 . S
C483 C484 1.392 . S
C483 C488 1.356 1_545 S
C484 C483 1.392 . S
C484 C485 1.380 . S
C484 H512 0.929 . S
C485 C484 1.380 . S
C485 C486 1.360 1_545 S
C485 H513 0.946 . S
C486 C485 1.360 1_565 S
C486 C487 1.373 . S
C487 C486 1.373 . S
C487 C488 1.409 . S
C487 H514 0.931 . S
C488 C483 1.356 1_565 S
C488 C487 1.409 . S
C488 H515 0.930 . S
C489 O502 1.270 . S
C489 O503 1.248 . S
C490 O504 1.267 . S
C490 O505 1.278 . S
C491 Pr481 2.880 1_545 S
C491 C492 1.491 . S
C491 O506 1.254 . S
C491 O507 1.225 1_545 S
C492 C491 1.491 . S
C492 C493 1.392 . S
C492 C497 1.356 . S
C493 C492 1.392 . S
C493 C494 1.368 . S
C493 H516 0.925 1_545 S
C494 C493 1.368 . S
C494 C495 1.386 . S
C494 H517 0.929 . S
C495 C494 1.386 . S
C495 C496 1.373 . S
C496 C495 1.373 . S
C496 C497 1.409 . S
C496 H518 0.931 . S
C497 C492 1.356 . S
C497 C496 1.409 . S
C497 H519 0.930 . S
C498 O508 1.270 . S
C498 O509 1.248 1_645 S
C499 O510 1.267 1_455 S
C499 O511 1.278 . S
O500 Pr480 2.562 . S
O500 C482 1.254 . S
O501 Pr480 2.490 . S
O501 C482 1.225 . S
O502 Pr480 2.695 . S
O502 Pr481 2.436 1_645 S
O502 C489 1.270 . S
O503 Pr480 2.512 . S
O503 C489 1.248 . S
O504 Pr481 2.438 1_655 S
O504 C490 1.267 . S
O505 Pr480 2.437 1_565 S
O505 C490 1.278 . S
O506 Pr481 2.562 1_545 S
O506 C491 1.254 . S
O507 Pr481 2.490 . S
O507 C491 1.225 1_565 S
O508 Pr480 2.436 . S
O508 Pr481 2.695 1_645 S
O508 C498 1.270 . S
O509 Pr481 2.512 . S
O509 C498 1.248 1_465 S
O510 Pr480 2.438 . S
O510 C499 1.267 1_655 S
O511 Pr481 2.437 1_545 S
O511 C499 1.278 . S
H512 C484 0.929 . S
H513 C485 0.946 . S
H514 C487 0.931 . S
H515 C488 0.930 . S
H516 C493 0.925 1_565 S
H517 C494 0.929 . S
H518 C496 0.931 . S
H519 C497 0.930 . S
Pr520 C522 2.880 . S
Pr520 O540 2.562 . S
Pr520 O541 2.490 . S
Pr520 O542 2.695 . S
Pr520 O543 2.512 . S
Pr520 O545 2.437 . S
Pr520 O548 2.436 . S
Pr520 O550 2.438 . S
Pr521 C531 2.880 . S
Pr521 O542 2.436 . S
Pr521 O544 2.438 . S
Pr521 O546 2.562 . S
Pr521 O547 2.490 . S
Pr521 O548 2.695 . S
Pr521 O549 2.512 . S
Pr521 O551 2.437 . S
C522 Pr520 2.880 . S
C522 C523 1.491 . S
C522 O540 1.254 . S
C522 O541 1.225 . S
C523 C522 1.491 . S
C523 C524 1.392 . S
C523 C528 1.356 . S
C524 C523 1.392 . S
C524 C525 1.368 1_655 S
C524 H552 0.929 . S
C525 C524 1.368 1_455 S
C525 C526 1.386 . S
C525 H553 0.929 . S
C526 C525 1.386 . S
C526 C527 1.373 . S
C527 C526 1.373 . S
C527 C528 1.409 1_455 S
C527 H554 0.931 . S
C528 C523 1.356 . S
C528 C527 1.409 1_655 S
C528 H555 0.930 . S
C529 O542 1.270 . S
C529 O543 1.248 . S
C530 O544 1.267 . S
C530 O545 1.278 . S
C531 Pr521 2.880 . S
C531 C532 1.491 . S
C531 O546 1.254 . S
C531 O547 1.225 . S
C532 C531 1.491 . S
C532 C533 1.392 . S
C532 C537 1.356 . S
C533 C532 1.392 . S
C533 C534 1.368 . S
C533 H556 0.929 . S
C534 C533 1.368 . S
C534 C535 1.386 . S
C534 H557 0.929 . S
C535 C534 1.386 . S
C535 C536 1.373 . S
C536 C535 1.373 . S
C536 C537 1.409 . S
C536 H558 0.931 . S
C537 C532 1.356 . S
C537 C536 1.409 . S
C537 H559 0.930 . S
C538 O548 1.270 . S
C538 O549 1.248 . S
C539 O550 1.267 . S
C539 O551 1.278 . S
O540 Pr520 2.562 . S
O540 C522 1.254 . S
O541 Pr520 2.490 . S
O541 C522 1.225 . S
O542 Pr520 2.695 . S
O542 Pr521 2.436 . S
O542 C529 1.270 . S
O543 Pr520 2.512 . S
O543 C529 1.248 . S
O544 Pr521 2.438 . S
O544 C530 1.267 . S
O545 Pr520 2.437 . S
O545 C530 1.278 . S
O546 Pr521 2.562 . S
O546 C531 1.254 . S
O547 Pr521 2.490 . S
O547 C531 1.225 . S
O548 Pr520 2.436 . S
O548 Pr521 2.695 . S
O548 C538 1.270 . S
O549 Pr521 2.512 . S
O549 C538 1.248 . S
O550 Pr520 2.438 . S
O550 C539 1.267 . S
O551 Pr521 2.437 . S
O551 C539 1.278 . S
H552 C524 0.929 . S
H553 C525 0.929 . S
H554 C527 0.931 . S
H555 C528 0.930 . S
H556 C533 0.929 . S
H557 C534 0.929 . S
H558 C536 0.931 . S
H559 C537 0.930 . S
Pr560 C562 2.880 . S
Pr560 O580 2.562 . S
Pr560 O581 2.490 . S
Pr560 O582 2.695 . S
Pr560 O583 2.512 . S
Pr560 O585 2.437 . S
Pr560 O588 2.436 . S
Pr560 O590 2.438 . S
Pr561 C571 2.880 . S
Pr561 O582 2.436 1_455 S
Pr561 O584 2.438 1_455 S
Pr561 O586 2.562 . S
Pr561 O587 2.490 . S
Pr561 O588 2.695 1_455 S
Pr561 O589 2.512 . S
Pr561 O591 2.437 . S
C562 Pr560 2.880 . S
C562 C563 1.491 . S
C562 O580 1.254 . S
C562 O581 1.225 . S
C563 C562 1.491 . S
C563 C564 1.392 . S
C563 C568 1.356 . S
C564 C563 1.392 . S
C564 C565 1.368 . S
C564 H592 0.929 . S
C565 C564 1.368 . S
C565 C566 1.386 . S
C565 H593 0.929 . S
C566 C565 1.386 . S
C566 C567 1.373 . S
C567 C566 1.373 . S
C567 C568 1.409 . S
C567 H594 0.931 . S
C568 C563 1.356 . S
C568 C567 1.409 . S
C568 H595 0.930 . S
C569 O582 1.270 . S
C569 O583 1.248 . S
C570 O584 1.267 . S
C570 O585 1.278 . S
C571 Pr561 2.880 . S
C571 C572 1.491 . S
C571 O586 1.254 . S
C571 O587 1.225 . S
C572 C571 1.491 . S
C572 C573 1.392 . S
C572 C577 1.356 . S
C573 C572 1.392 . S
C573 C574 1.368 . S
C573 H596 0.929 . S
C574 C573 1.368 . S
C574 C575 1.386 . S
C574 H597 0.929 . S
C575 C574 1.386 . S
C575 C576 1.373 . S
C576 C575 1.373 . S
C576 C577 1.409 . S
C576 H598 0.931 . S
C577 C572 1.356 . S
C577 C576 1.409 . S
C577 H599 0.930 . S
C578 O588 1.270 . S
C578 O589 1.248 1_655 S
C579 O590 1.267 1_455 S
C579 O591 1.278 . S
O580 Pr560 2.562 . S
O580 C562 1.254 . S
O581 Pr560 2.490 . S
O581 C562 1.225 . S
O582 Pr560 2.695 . S
O582 Pr561 2.436 1_655 S
O582 C569 1.270 . S
O583 Pr560 2.512 . S
O583 C569 1.248 . S
O584 Pr561 2.438 1_655 S
O584 C570 1.267 . S
O585 Pr560 2.437 . S
O585 C570 1.278 . S
O586 Pr561 2.562 . S
O586 C571 1.254 . S
O587 Pr561 2.490 . S
O587 C571 1.225 . S
O588 Pr560 2.436 . S
O588 Pr561 2.695 1_655 S
O588 C578 1.270 . S
O589 Pr561 2.512 . S
O589 C578 1.248 1_455 S
O590 Pr560 2.438 . S
O590 C579 1.267 1_655 S
O591 Pr561 2.437 . S
O591 C579 1.278 . S
H592 C564 0.929 . S
H593 C565 0.929 . S
H594 C567 0.931 . S
H595 C568 0.930 . S
H596 C573 0.929 . S
H597 C574 0.929 . S
H598 C576 0.931 . S
H599 C577 0.930 . S
Pr600 C602 2.880 . S
Pr600 O620 2.562 . S
Pr600 O621 2.490 . S
Pr600 O622 2.695 . S
Pr600 O623 2.512 . S
Pr600 O625 2.437 1_545 S
Pr600 O628 2.436 . S
Pr600 O630 2.438 . S
Pr601 C611 2.880 1_565 S
Pr601 O622 2.436 1_565 S
Pr601 O624 2.438 . S
Pr601 O626 2.562 1_565 S
Pr601 O627 2.490 . S
Pr601 O628 2.695 1_565 S
Pr601 O629 2.512 . S
Pr601 O631 2.437 1_565 S
C602 Pr600 2.880 . S
C602 C603 1.491 . S
C602 O620 1.254 . S
C602 O621 1.225 . S
C603 C602 1.491 . S
C603 C604 1.392 . S
C603 C608 1.356 1_545 S
C604 C603 1.392 . S
C604 C605 1.380 1_655 S
C604 H632 0.929 . S
C605 C604 1.380 1_455 S
C605 C606 1.360 1_545 S
C605 H633 0.946 . S
C606 C605 1.360 1_565 S
C606 C607 1.373 . S
C607 C606 1.373 . S
C607 C608 1.409 1_455 S
C607 H634 0.931 . S
C608 C603 1.356 1_565 S
C608 C607 1.409 1_655 S
C608 H635 0.930 . S
C609 O622 1.270 . S
C609 O623 1.248 . S
C610 O624 1.267 . S
C610 O625 1.278 . S
C611 Pr601 2.880 1_545 S
C611 C612 1.491 . S
C611 O626 1.254 . S
C611 O627 1.225 1_545 S
C612 C611 1.491 . S
C612 C613 1.392 . S
C612 C617 1.356 . S
C613 C612 1.392 . S
C613 C614 1.368 . S
C613 H636 0.925 1_545 S
C614 C613 1.368 . S
C614 C615 1.386 . S
C614 H637 0.929 . S
C615 C614 1.386 . S
C615 C616 1.373 . S
C616 C615 1.373 . S
C616 C617 1.409 . S
C616 H638 0.931 . S
C617 C612 1.356 . S
C617 C616 1.409 . S
C617 H639 0.930 . S
C618 O628 1.270 . S
C618 O629 1.248 1_545 S
C619 O630 1.267 . S
C619 O631 1.278 . S
O620 Pr600 2.562 . S
O620 C602 1.254 . S
O621 Pr600 2.490 . S
O621 C602 1.225 . S
O622 Pr600 2.695 . S
O622 Pr601 2.436 1_545 S
O622 C609 1.270 . S
O623 Pr600 2.512 . S
O623 C609 1.248 . S
O624 Pr601 2.438 . S
O624 C610 1.267 . S
O625 Pr600 2.437 1_565 S
O625 C610 1.278 . S
O626 Pr601 2.562 1_545 S
O626 C611 1.254 . S
O627 Pr601 2.490 . S
O627 C611 1.225 1_565 S
O628 Pr600 2.436 . S
O628 Pr601 2.695 1_545 S
O628 C618 1.270 . S
O629 Pr601 2.512 . S
O629 C618 1.248 1_565 S
O630 Pr600 2.438 . S
O630 C619 1.267 . S
O631 Pr601 2.437 1_545 S
O631 C619 1.278 . S
H632 C604 0.929 . S
H633 C605 0.946 . S
H634 C607 0.931 . S
H635 C608 0.930 . S
H636 C613 0.925 1_565 S
H637 C614 0.929 . S
H638 C616 0.931 . S
H639 C617 0.930 . S
Pr640 C642 2.880 . S
Pr640 O660 2.562 . S
Pr640 O661 2.490 . S
Pr640 O662 2.695 . S
Pr640 O663 2.512 . S
Pr640 O665 2.437 . S
Pr640 O668 2.436 . S
Pr640 O670 2.438 . S
Pr641 C651 2.880 . S
Pr641 O662 2.436 . S
Pr641 O664 2.438 . S
Pr641 O666 2.562 . S
Pr641 O667 2.490 . S
Pr641 O668 2.695 . S
Pr641 O669 2.512 . S
Pr641 O671 2.437 . S
C642 Pr640 2.880 . S
C642 C643 1.491 . S
C642 O660 1.254 . S
C642 O661 1.225 . S
C643 C642 1.491 . S
C643 C644 1.392 . S
C643 C648 1.356 . S
C644 C643 1.392 . S
C644 C645 1.368 . S
C644 H672 0.929 . S
C645 C644 1.368 . S
C645 C646 1.386 . S
C645 H673 0.929 . S
C646 C645 1.386 . S
C646 C647 1.373 . S
C647 C646 1.373 . S
C647 C648 1.409 . S
C647 H674 0.931 . S
C648 C643 1.356 . S
C648 C647 1.409 . S
C648 H675 0.930 . S
C649 O662 1.270 . S
C649 O663 1.248 . S
C650 O664 1.267 . S
C650 O665 1.278 . S
C651 Pr641 2.880 . S
C651 C652 1.491 . S
C651 O666 1.254 . S
C651 O667 1.225 . S
C652 C651 1.491 . S
C652 C653 1.392 . S
C652 C657 1.356 . S
C653 C652 1.392 . S
C653 C654 1.368 . S
C653 H676 0.929 . S
C654 C653 1.368 . S
C654 C655 1.386 . S
C654 H677 0.929 . S
C655 C654 1.386 . S
C655 C656 1.373 . S
C656 C655 1.373 . S
C656 C657 1.409 . S
C656 H678 0.931 . S
C657 C652 1.356 . S
C657 C656 1.409 . S
C657 H679 0.930 . S
C658 O668 1.270 . S
C658 O669 1.248 . S
C659 O670 1.267 . S
C659 O671 1.278 . S
O660 Pr640 2.562 . S
O660 C642 1.254 . S
O661 Pr640 2.490 . S
O661 C642 1.225 . S
O662 Pr640 2.695 . S
O662 Pr641 2.436 . S
O662 C649 1.270 . S
O663 Pr640 2.512 . S
O663 C649 1.248 . S
O664 Pr641 2.438 . S
O664 C650 1.267 . S
O665 Pr640 2.437 . S
O665 C650 1.278 . S
O666 Pr641 2.562 . S
O666 C651 1.254 . S
O667 Pr641 2.490 . S
O667 C651 1.225 . S
O668 Pr640 2.436 . S
O668 Pr641 2.695 . S
O668 C658 1.270 . S
O669 Pr641 2.512 . S
O669 C658 1.248 . S
O670 Pr640 2.438 . S
O670 C659 1.267 . S
O671 Pr641 2.437 . S
O671 C659 1.278 . S
H672 C644 0.929 . S
H673 C645 0.929 . S
H674 C647 0.931 . S
H675 C648 0.930 . S
H676 C653 0.929 . S
H677 C654 0.929 . S
H678 C656 0.931 . S
H679 C657 0.930 . S
Pr680 C682 2.880 . S
Pr680 O700 2.562 . S
Pr680 O701 2.490 . S
Pr680 O702 2.695 . S
Pr680 O703 2.512 . S
Pr680 O705 2.437 . S
Pr680 O708 2.436 . S
Pr680 O710 2.438 . S
Pr681 C691 2.880 . S
Pr681 O702 2.436 . S
Pr681 O704 2.438 . S
Pr681 O706 2.562 . S
Pr681 O707 2.490 . S
Pr681 O708 2.695 . S
Pr681 O709 2.512 . S
Pr681 O711 2.437 . S
C682 Pr680 2.880 . S
C682 C683 1.491 . S
C682 O700 1.254 . S
C682 O701 1.225 . S
C683 C682 1.491 . S
C683 C684 1.392 . S
C683 C688 1.356 . S
C684 C683 1.392 . S
C684 C685 1.368 . S
C684 H712 0.929 . S
C685 C684 1.368 . S
C685 C686 1.386 . S
C685 H713 0.929 . S
C686 C685 1.386 . S
C686 C687 1.373 . S
C687 C686 1.373 . S
C687 C688 1.409 . S
C687 H714 0.931 . S
C688 C683 1.356 . S
C688 C687 1.409 . S
C688 H715 0.930 . S
C689 O702 1.270 . S
C689 O703 1.248 . S
C690 O704 1.267 . S
C690 O705 1.278 . S
C691 Pr681 2.880 . S
C691 C692 1.491 . S
C691 O706 1.254 . S
C691 O707 1.225 . S
C692 C691 1.491 . S
C692 C693 1.392 . S
C692 C697 1.356 . S
C693 C692 1.392 . S
C693 C694 1.368 . S
C693 H716 0.929 . S
C694 C693 1.368 . S
C694 C695 1.386 . S
C694 H717 0.929 . S
C695 C694 1.386 . S
C695 C696 1.373 . S
C696 C695 1.373 . S
C696 C697 1.409 . S
C696 H718 0.931 . S
C697 C692 1.356 . S
C697 C696 1.409 . S
C697 H719 0.930 . S
C698 O708 1.270 . S
C698 O709 1.248 . S
C699 O710 1.267 . S
C699 O711 1.278 . S
O700 Pr680 2.562 . S
O700 C682 1.254 . S
O701 Pr680 2.490 . S
O701 C682 1.225 . S
O702 Pr680 2.695 . S
O702 Pr681 2.436 . S
O702 C689 1.270 . S
O703 Pr680 2.512 . S
O703 C689 1.248 . S
O704 Pr681 2.438 . S
O704 C690 1.267 . S
O705 Pr680 2.437 . S
O705 C690 1.278 . S
O706 Pr681 2.562 . S
O706 C691 1.254 . S
O707 Pr681 2.490 . S
O707 C691 1.225 . S
O708 Pr680 2.436 . S
O708 Pr681 2.695 . S
O708 C698 1.270 . S
O709 Pr681 2.512 . S
O709 C698 1.248 . S
O710 Pr680 2.438 . S
O710 C699 1.267 . S
O711 Pr681 2.437 . S
O711 C699 1.278 . S
H712 C684 0.929 . S
H713 C685 0.929 . S
H714 C687 0.931 . S
H715 C688 0.930 . S
H716 C693 0.929 . S
H717 C694 0.929 . S
H718 C696 0.931 . S
H719 C697 0.930 . S
Pr720 C722 2.880 . S
Pr720 O740 2.562 . S
Pr720 O741 2.490 . S
Pr720 O742 2.695 . S
Pr720 O743 2.512 . S
Pr720 O745 2.437 . S
Pr720 O748 2.436 . S
Pr720 O750 2.438 . S
Pr721 C731 2.880 . S
Pr721 O742 2.436 . S
Pr721 O744 2.438 . S
Pr721 O746 2.562 . S
Pr721 O747 2.490 . S
Pr721 O748 2.695 . S
Pr721 O749 2.512 . S
Pr721 O751 2.437 . S
C722 Pr720 2.880 . S
C722 C723 1.491 . S
C722 O740 1.254 . S
C722 O741 1.225 . S
C723 C722 1.491 . S
C723 C724 1.392 . S
C723 C728 1.356 . S
C724 C723 1.392 . S
C724 C725 1.368 . S
C724 H752 0.929 . S
C725 C724 1.368 . S
C725 C726 1.386 . S
C725 H753 0.929 . S
C726 C725 1.386 . S
C726 C727 1.373 . S
C727 C726 1.373 . S
C727 C728 1.409 . S
C727 H754 0.931 . S
C728 C723 1.356 . S
C728 C727 1.409 . S
C728 H755 0.930 . S
C729 O742 1.270 . S
C729 O743 1.248 . S
C730 O744 1.267 . S
C730 O745 1.278 . S
C731 Pr721 2.880 . S
C731 C732 1.491 . S
C731 O746 1.254 . S
C731 O747 1.225 . S
C732 C731 1.491 . S
C732 C733 1.392 . S
C732 C737 1.356 . S
C733 C732 1.392 . S
C733 C734 1.368 . S
C733 H756 0.929 . S
C734 C733 1.368 . S
C734 C735 1.386 . S
C734 H757 0.929 . S
C735 C734 1.386 . S
C735 C736 1.373 . S
C736 C735 1.373 . S
C736 C737 1.409 . S
C736 H758 0.931 . S
C737 C732 1.356 . S
C737 C736 1.409 . S
C737 H759 0.930 . S
C738 O748 1.270 . S
C738 O749 1.248 . S
C739 O750 1.267 . S
C739 O751 1.278 . S
O740 Pr720 2.562 . S
O740 C722 1.254 . S
O741 Pr720 2.490 . S
O741 C722 1.225 . S
O742 Pr720 2.695 . S
O742 Pr721 2.436 . S
O742 C729 1.270 . S
O743 Pr720 2.512 . S
O743 C729 1.248 . S
O744 Pr721 2.438 . S
O744 C730 1.267 . S
O745 Pr720 2.437 . S
O745 C730 1.278 . S
O746 Pr721 2.562 . S
O746 C731 1.254 . S
O747 Pr721 2.490 . S
O747 C731 1.225 . S
O748 Pr720 2.436 . S
O748 Pr721 2.695 . S
O748 C738 1.270 . S
O749 Pr721 2.512 . S
O749 C738 1.248 . S
O750 Pr720 2.438 . S
O750 C739 1.267 . S
O751 Pr721 2.437 . S
O751 C739 1.278 . S
H752 C724 0.929 . S
H753 C725 0.929 . S
H754 C727 0.931 . S
H755 C728 0.930 . S
H756 C733 0.929 . S
H757 C734 0.929 . S
H758 C736 0.931 . S
H759 C737 0.930 . S
Pr760 C762 2.880 . S
Pr760 O780 2.562 . S
Pr760 O781 2.490 . S
Pr760 O782 2.695 . S
Pr760 O783 2.512 . S
Pr760 O785 2.437 . S
Pr760 O788 2.436 . S
Pr760 O790 2.438 . S
Pr761 C771 2.880 . S
Pr761 O782 2.436 . S
Pr761 O784 2.438 . S
Pr761 O786 2.562 . S
Pr761 O787 2.490 . S
Pr761 O788 2.695 . S
Pr761 O789 2.512 . S
Pr761 O791 2.437 . S
C762 Pr760 2.880 . S
C762 C763 1.491 . S
C762 O780 1.254 . S
C762 O781 1.225 . S
C763 C762 1.491 . S
C763 C764 1.392 . S
C763 C768 1.356 . S
C764 C763 1.392 . S
C764 C765 1.368 . S
C764 H792 0.929 . S
C765 C764 1.368 . S
C765 C766 1.386 . S
C765 H793 0.929 . S
C766 C765 1.386 . S
C766 C767 1.373 . S
C767 C766 1.373 . S
C767 C768 1.409 . S
C767 H794 0.931 . S
C768 C763 1.356 . S
C768 C767 1.409 . S
C768 H795 0.930 . S
C769 O782 1.270 . S
C769 O783 1.248 . S
C770 O784 1.267 . S
C770 O785 1.278 . S
C771 Pr761 2.880 . S
C771 C772 1.491 . S
C771 O786 1.254 . S
C771 O787 1.225 . S
C772 C771 1.491 . S
C772 C773 1.392 . S
C772 C777 1.356 . S
C773 C772 1.392 . S
C773 C774 1.368 . S
C773 H796 0.929 . S
C774 C773 1.368 . S
C774 C775 1.386 . S
C774 H797 0.929 . S
C775 C774 1.386 . S
C775 C776 1.373 . S
C776 C775 1.373 . S
C776 C777 1.409 . S
C776 H798 0.931 . S
C777 C772 1.356 . S
C777 C776 1.409 . S
C777 H799 0.930 . S
C778 O788 1.270 . S
C778 O789 1.248 . S
C779 O790 1.267 . S
C779 O791 1.278 . S
O780 Pr760 2.562 . S
O780 C762 1.254 . S
O781 Pr760 2.490 . S
O781 C762 1.225 . S
O782 Pr760 2.695 . S
O782 Pr761 2.436 . S
O782 C769 1.270 . S
O783 Pr760 2.512 . S
O783 C769 1.248 . S
O784 Pr761 2.438 . S
O784 C770 1.267 . S
O785 Pr760 2.437 . S
O785 C770 1.278 . S
O786 Pr761 2.562 . S
O786 C771 1.254 . S
O787 Pr761 2.490 . S
O787 C771 1.225 . S
O788 Pr760 2.436 . S
O788 Pr761 2.695 . S
O788 C778 1.270 . S
O789 Pr761 2.512 . S
O789 C778 1.248 . S
O790 Pr760 2.438 . S
O790 C779 1.267 . S
O791 Pr761 2.437 . S
O791 C779 1.278 . S
H792 C764 0.929 . S
H793 C765 0.929 . S
H794 C767 0.931 . S
H795 C768 0.930 . S
H796 C773 0.929 . S
H797 C774 0.929 . S
H798 C776 0.931 . S
H799 C777 0.930 . S
Pr800 C802 2.880 . S
Pr800 O820 2.562 . S
Pr800 O821 2.490 . S
Pr800 O822 2.695 . S
Pr800 O823 2.512 . S
Pr800 O825 2.437 . S
Pr800 O828 2.436 . S
Pr800 O830 2.438 . S
Pr801 C811 2.880 . S
Pr801 O822 2.436 . S
Pr801 O824 2.438 . S
Pr801 O826 2.562 . S
Pr801 O827 2.490 . S
Pr801 O828 2.695 . S
Pr801 O829 2.512 . S
Pr801 O831 2.437 . S
C802 Pr800 2.880 . S
C802 C803 1.491 . S
C802 O820 1.254 . S
C802 O821 1.225 . S
C803 C802 1.491 . S
C803 C804 1.392 . S
C803 C808 1.356 . S
C804 C803 1.392 . S
C804 C805 1.368 . S
C804 H832 0.929 . S
C805 C804 1.368 . S
C805 C806 1.386 . S
C805 H833 0.929 . S
C806 C805 1.386 . S
C806 C807 1.373 . S
C807 C806 1.373 . S
C807 C808 1.409 . S
C807 H834 0.931 . S
C808 C803 1.356 . S
C808 C807 1.409 . S
C808 H835 0.930 . S
C809 O822 1.270 . S
C809 O823 1.248 . S
C810 O824 1.267 . S
C810 O825 1.278 . S
C811 Pr801 2.880 . S
C811 C812 1.491 . S
C811 O826 1.254 . S
C811 O827 1.225 . S
C812 C811 1.491 . S
C812 C813 1.392 . S
C812 C817 1.356 . S
C813 C812 1.392 . S
C813 C814 1.368 . S
C813 H836 0.929 . S
C814 C813 1.368 . S
C814 C815 1.386 . S
C814 H837 0.929 . S
C815 C814 1.386 . S
C815 C816 1.373 . S
C816 C815 1.373 . S
C816 C817 1.409 . S
C816 H838 0.931 . S
C817 C812 1.356 . S
C817 C816 1.409 . S
C817 H839 0.930 . S
C818 O828 1.270 . S
C818 O829 1.248 . S
C819 O830 1.267 . S
C819 O831 1.278 . S
O820 Pr800 2.562 . S
O820 C802 1.254 . S
O821 Pr800 2.490 . S
O821 C802 1.225 . S
O822 Pr800 2.695 . S
O822 Pr801 2.436 . S
O822 C809 1.270 . S
O823 Pr800 2.512 . S
O823 C809 1.248 . S
O824 Pr801 2.438 . S
O824 C810 1.267 . S
O825 Pr800 2.437 . S
O825 C810 1.278 . S
O826 Pr801 2.562 . S
O826 C811 1.254 . S
O827 Pr801 2.490 . S
O827 C811 1.225 . S
O828 Pr800 2.436 . S
O828 Pr801 2.695 . S
O828 C818 1.270 . S
O829 Pr801 2.512 . S
O829 C818 1.248 . S
O830 Pr800 2.438 . S
O830 C819 1.267 . S
O831 Pr801 2.437 . S
O831 C819 1.278 . S
H832 C804 0.929 . S
H833 C805 0.929 . S
H834 C807 0.931 . S
H835 C808 0.930 . S
H836 C813 0.929 . S
H837 C814 0.929 . S
H838 C816 0.931 . S
H839 C817 0.930 . S
Pr840 C842 2.880 . S
Pr840 O860 2.562 . S
Pr840 O861 2.490 . S
Pr840 O862 2.695 . S
Pr840 O863 2.512 . S
Pr840 O865 2.437 . S
Pr840 O868 2.436 . S
Pr840 O870 2.438 . S
Pr841 C851 2.880 . S
Pr841 O862 2.436 . S
Pr841 O864 2.438 . S
Pr841 O866 2.562 . S
Pr841 O867 2.490 . S
Pr841 O868 2.695 . S
Pr841 O869 2.512 . S
Pr841 O871 2.437 . S
C842 Pr840 2.880 . S
C842 C843 1.491 . S
C842 O860 1.254 . S
C842 O861 1.225 . S
C843 C842 1.491 . S
C843 C844 1.392 . S
C843 C848 1.356 . S
C844 C843 1.392 . S
C844 C845 1.368 . S
C844 H872 0.929 . S
C845 C844 1.368 . S
C845 C846 1.386 . S
C845 H873 0.929 . S
C846 C845 1.386 . S
C846 C847 1.373 . S
C847 C846 1.373 . S
C847 C848 1.409 . S
C847 H874 0.931 . S
C848 C843 1.356 . S
C848 C847 1.409 . S
C848 H875 0.930 . S
C849 O862 1.270 . S
C849 O863 1.248 . S
C850 O864 1.267 . S
C850 O865 1.278 . S
C851 Pr841 2.880 . S
C851 C852 1.491 . S
C851 O866 1.254 . S
C851 O867 1.225 . S
C852 C851 1.491 . S
C852 C853 1.392 . S
C852 C857 1.356 . S
C853 C852 1.392 . S
C853 C854 1.368 . S
C853 H876 0.929 . S
C854 C853 1.368 . S
C854 C855 1.386 . S
C854 H877 0.929 . S
C855 C854 1.386 . S
C855 C856 1.373 . S
C856 C855 1.373 . S
C856 C857 1.409 . S
C856 H878 0.931 . S
C857 C852 1.356 . S
C857 C856 1.409 . S
C857 H879 0.930 . S
C858 O868 1.270 . S
C858 O869 1.248 . S
C859 O870 1.267 . S
C859 O871 1.278 . S
O860 Pr840 2.562 . S
O860 C842 1.254 . S
O861 Pr840 2.490 . S
O861 C842 1.225 . S
O862 Pr840 2.695 . S
O862 Pr841 2.436 . S
O862 C849 1.270 . S
O863 Pr840 2.512 . S
O863 C849 1.248 . S
O864 Pr841 2.438 . S
O864 C850 1.267 . S
O865 Pr840 2.437 . S
O865 C850 1.278 . S
O866 Pr841 2.562 . S
O866 C851 1.254 . S
O867 Pr841 2.490 . S
O867 C851 1.225 . S
O868 Pr840 2.436 . S
O868 Pr841 2.695 . S
O868 C858 1.270 . S
O869 Pr841 2.512 . S
O869 C858 1.248 . S
O870 Pr840 2.438 . S
O870 C859 1.267 . S
O871 Pr841 2.437 . S
O871 C859 1.278 . S
H872 C844 0.929 . S
H873 C845 0.929 . S
H874 C847 0.931 . S
H875 C848 0.930 . S
H876 C853 0.929 . S
H877 C854 0.929 . S
H878 C856 0.931 . S
H879 C857 0.930 . S
Pr880 C882 2.880 . S
Pr880 O900 2.562 . S
Pr880 O901 2.490 . S
Pr880 O902 2.695 . S
Pr880 O903 2.512 . S
Pr880 O905 2.437 . S
Pr880 O908 2.436 . S
Pr880 O910 2.438 . S
Pr881 C891 2.880 . S
Pr881 O902 2.436 . S
Pr881 O904 2.438 . S
Pr881 O906 2.562 . S
Pr881 O907 2.490 . S
Pr881 O908 2.695 . S
Pr881 O909 2.512 . S
Pr881 O911 2.437 . S
C882 Pr880 2.880 . S
C882 C883 1.491 . S
C882 O900 1.254 . S
C882 O901 1.225 . S
C883 C882 1.491 . S
C883 C884 1.392 . S
C883 C888 1.356 . S
C884 C883 1.392 . S
C884 C885 1.368 . S
C884 H912 0.929 . S
C885 C884 1.368 . S
C885 C886 1.386 . S
C885 H913 0.929 . S
C886 C885 1.386 . S
C886 C887 1.373 . S
C887 C886 1.373 . S
C887 C888 1.409 . S
C887 H914 0.931 . S
C888 C883 1.356 . S
C888 C887 1.409 . S
C888 H915 0.930 . S
C889 O902 1.270 . S
C889 O903 1.248 . S
C890 O904 1.267 . S
C890 O905 1.278 . S
C891 Pr881 2.880 . S
C891 C892 1.491 . S
C891 O906 1.254 . S
C891 O907 1.225 . S
C892 C891 1.491 . S
C892 C893 1.392 . S
C892 C897 1.356 . S
C893 C892 1.392 . S
C893 C894 1.368 . S
C893 H916 0.929 . S
C894 C893 1.368 . S
C894 C895 1.386 . S
C894 H917 0.929 . S
C895 C894 1.386 . S
C895 C896 1.373 . S
C896 C895 1.373 . S
C896 C897 1.409 . S
C896 H918 0.931 . S
C897 C892 1.356 . S
C897 C896 1.409 . S
C897 H919 0.930 . S
C898 O908 1.270 . S
C898 O909 1.248 . S
C899 O910 1.267 . S
C899 O911 1.278 . S
O900 Pr880 2.562 . S
O900 C882 1.254 . S
O901 Pr880 2.490 . S
O901 C882 1.225 . S
O902 Pr880 2.695 . S
O902 Pr881 2.436 . S
O902 C889 1.270 . S
O903 Pr880 2.512 . S
O903 C889 1.248 . S
O904 Pr881 2.438 . S
O904 C890 1.267 . S
O905 Pr880 2.437 . S
O905 C890 1.278 . S
O906 Pr881 2.562 . S
O906 C891 1.254 . S
O907 Pr881 2.490 . S
O907 C891 1.225 . S
O908 Pr880 2.436 . S
O908 Pr881 2.695 . S
O908 C898 1.270 . S
O909 Pr881 2.512 . S
O909 C898 1.248 . S
O910 Pr880 2.438 . S
O910 C899 1.267 . S
O911 Pr881 2.437 . S
O911 C899 1.278 . S
H912 C884 0.929 . S
H913 C885 0.929 . S
H914 C887 0.931 . S
H915 C888 0.930 . S
H916 C893 0.929 . S
H917 C894 0.929 . S
H918 C896 0.931 . S
H919 C897 0.930 . S
Pr920 C922 2.880 . S
Pr920 O940 2.562 . S
Pr920 O941 2.490 . S
Pr920 O942 2.695 . S
Pr920 O943 2.512 . S
Pr920 O945 2.437 . S
Pr920 O948 2.436 . S
Pr920 O950 2.438 . S
Pr921 C931 2.880 . S
Pr921 O942 2.436 . S
Pr921 O944 2.438 . S
Pr921 O946 2.562 . S
Pr921 O947 2.490 . S
Pr921 O948 2.695 . S
Pr921 O949 2.512 . S
Pr921 O951 2.437 . S
C922 Pr920 2.880 . S
C922 C923 1.491 . S
C922 O940 1.254 . S
C922 O941 1.225 . S
C923 C922 1.491 . S
C923 C924 1.392 . S
C923 C928 1.356 . S
C924 C923 1.392 . S
C924 C925 1.368 . S
C924 H952 0.929 . S
C925 C924 1.368 . S
C925 C926 1.386 . S
C925 H953 0.929 . S
C926 C925 1.386 . S
C926 C927 1.373 . S
C927 C926 1.373 . S
C927 C928 1.409 . S
C927 H954 0.931 . S
C928 C923 1.356 . S
C928 C927 1.409 . S
C928 H955 0.930 . S
C929 O942 1.270 . S
C929 O943 1.248 . S
C930 O944 1.267 . S
C930 O945 1.278 . S
C931 Pr921 2.880 . S
C931 C932 1.491 . S
C931 O946 1.254 . S
C931 O947 1.225 . S
C932 C931 1.491 . S
C932 C933 1.392 . S
C932 C937 1.356 . S
C933 C932 1.392 . S
C933 C934 1.368 . S
C933 H956 0.929 . S
C934 C933 1.368 . S
C934 C935 1.386 . S
C934 H957 0.929 . S
C935 C934 1.386 . S
C935 C936 1.373 . S
C936 C935 1.373 . S
C936 C937 1.409 . S
C936 H958 0.931 . S
C937 C932 1.356 . S
C937 C936 1.409 . S
C937 H959 0.930 . S
C938 O948 1.270 . S
C938 O949 1.248 . S
C939 O950 1.267 . S
C939 O951 1.278 . S
O940 Pr920 2.562 . S
O940 C922 1.254 . S
O941 Pr920 2.490 . S
O941 C922 1.225 . S
O942 Pr920 2.695 . S
O942 Pr921 2.436 . S
O942 C929 1.270 . S
O943 Pr920 2.512 . S
O943 C929 1.248 . S
O944 Pr921 2.438 . S
O944 C930 1.267 . S
O945 Pr920 2.437 . S
O945 C930 1.278 . S
O946 Pr921 2.562 . S
O946 C931 1.254 . S
O947 Pr921 2.490 . S
O947 C931 1.225 . S
O948 Pr920 2.436 . S
O948 Pr921 2.695 . S
O948 C938 1.270 . S
O949 Pr921 2.512 . S
O949 C938 1.248 . S
O950 Pr920 2.438 . S
O950 C939 1.267 . S
O951 Pr921 2.437 . S
O951 C939 1.278 . S
H952 C924 0.929 . S
H953 C925 0.929 . S
H954 C927 0.931 . S
H955 C928 0.930 . S
H956 C933 0.929 . S
H957 C934 0.929 . S
H958 C936 0.931 . S
H959 C937 0.930 . S
Pr960 C962 2.880 1_545 S
Pr960 O980 2.562 1_545 S
Pr960 O981 2.490 . S
Pr960 O982 2.695 1_545 S
Pr960 O983 2.512 . S
Pr960 O985 2.437 1_545 S
Pr960 O988 2.436 1_545 S
Pr960 O990 2.438 . S
Pr961 C971 2.880 . S
Pr961 O982 2.436 . S
Pr961 O984 2.438 . S
Pr961 O986 2.562 . S
Pr961 O987 2.490 . S
Pr961 O988 2.695 . S
Pr961 O989 2.512 . S
Pr961 O991 2.437 1_565 S
C962 Pr960 2.880 1_565 S
C962 C963 1.491 . S
C962 O980 1.254 . S
C962 O981 1.225 1_565 S
C963 C962 1.491 . S
C963 C964 1.392 . S
C963 C968 1.356 . S
C964 C963 1.392 . S
C964 C965 1.368 . S
C964 H992 0.925 1_565 S
C965 C964 1.368 . S
C965 C966 1.386 . S
C965 H993 0.929 . S
C966 C965 1.386 . S
C966 C967 1.373 . S
C967 C966 1.373 . S
C967 C968 1.409 . S
C967 H994 0.931 . S
C968 C963 1.356 . S
C968 C967 1.409 . S
C968 H995 0.930 . S
C969 O982 1.270 . S
C969 O983 1.248 1_565 S
C970 O984 1.267 . S
C970 O985 1.278 . S
C971 Pr961 2.880 . S
C971 C972 1.491 . S
C971 O986 1.254 . S
C971 O987 1.225 . S
C972 C971 1.491 . S
C972 C973 1.392 . S
C972 C977 1.356 1_565 S
C973 C972 1.392 . S
C973 C974 1.380 . S
C973 H996 0.929 . S
C974 C973 1.380 . S
C974 C975 1.360 1_565 S
C974 H997 0.946 . S
C975 C974 1.360 1_545 S
C975 C976 1.373 . S
C976 C975 1.373 . S
C976 C977 1.409 . S
C976 H998 0.931 . S
C977 C972 1.356 1_545 S
C977 C976 1.409 . S
C977 H999 0.930 . S
C978 O988 1.270 . S
C978 O989 1.248 . S
C979 O990 1.267 . S
C979 O991 1.278 . S
O980 Pr960 2.562 1_565 S
O980 C962 1.254 . S
O981 Pr960 2.490 . S
O981 C962 1.225 1_545 S
O982 Pr960 2.695 1_565 S
O982 Pr961 2.436 . S
O982 C969 1.270 . S
O983 Pr960 2.512 . S
O983 C969 1.248 1_545 S
O984 Pr961 2.438 . S
O984 C970 1.267 . S
O985 Pr960 2.437 1_565 S
O985 C970 1.278 . S
O986 Pr961 2.562 . S
O986 C971 1.254 . S
O987 Pr961 2.490 . S
O987 C971 1.225 . S
O988 Pr960 2.436 1_565 S
O988 Pr961 2.695 . S
O988 C978 1.270 . S
O989 Pr961 2.512 . S
O989 C978 1.248 . S
O990 Pr960 2.438 . S
O990 C979 1.267 . S
O991 Pr961 2.437 1_545 S
O991 C979 1.278 . S
H992 C964 0.925 1_545 S
H993 C965 0.929 . S
H994 C967 0.931 . S
H995 C968 0.930 . S
H996 C973 0.929 . S
H997 C974 0.946 . S
H998 C976 0.931 . S
H999 C977 0.930 . S
Pr1000 C1002 2.880 . S
Pr1000 O1020 2.562 . S
Pr1000 O1021 2.490 . S
Pr1000 O1022 2.695 . S
Pr1000 O1023 2.512 . S
Pr1000 O1025 2.437 . S
Pr1000 O1028 2.436 . S
Pr1000 O1030 2.438 . S
Pr1001 C1011 2.880 . S
Pr1001 O1022 2.436 . S
Pr1001 O1024 2.438 . S
Pr1001 O1026 2.562 . S
Pr1001 O1027 2.490 . S
Pr1001 O1028 2.695 . S
Pr1001 O1029 2.512 . S
Pr1001 O1031 2.437 . S
C1002 Pr1000 2.880 . S
C1002 C1003 1.491 . S
C1002 O1020 1.254 . S
C1002 O1021 1.225 . S
C1003 C1002 1.491 . S
C1003 C1004 1.392 . S
C1003 C1008 1.356 . S
C1004 C1003 1.392 . S
C1004 C1005 1.368 . S
C1004 H1032 0.929 . S
C1005 C1004 1.368 . S
C1005 C1006 1.386 . S
C1005 H1033 0.929 . S
C1006 C1005 1.386 . S
C1006 C1007 1.373 . S
C1007 C1006 1.373 . S
C1007 C1008 1.409 . S
C1007 H1034 0.931 . S
C1008 C1003 1.356 . S
C1008 C1007 1.409 . S
C1008 H1035 0.930 . S
C1009 O1022 1.270 . S
C1009 O1023 1.248 . S
C1010 O1024 1.267 . S
C1010 O1025 1.278 . S
C1011 Pr1001 2.880 . S
C1011 C1012 1.491 . S
C1011 O1026 1.254 . S
C1011 O1027 1.225 . S
C1012 C1011 1.491 . S
C1012 C1013 1.392 . S
C1012 C1017 1.356 . S
C1013 C1012 1.392 . S
C1013 C1014 1.368 . S
C1013 H1036 0.929 . S
C1014 C1013 1.368 . S
C1014 C1015 1.386 . S
C1014 H1037 0.929 . S
C1015 C1014 1.386 . S
C1015 C1016 1.373 . S
C1016 C1015 1.373 . S
C1016 C1017 1.409 . S
C1016 H1038 0.931 . S
C1017 C1012 1.356 . S
C1017 C1016 1.409 . S
C1017 H1039 0.930 . S
C1018 O1028 1.270 . S
C1018 O1029 1.248 . S
C1019 O1030 1.267 . S
C1019 O1031 1.278 . S
O1020 Pr1000 2.562 . S
O1020 C1002 1.254 . S
O1021 Pr1000 2.490 . S
O1021 C1002 1.225 . S
O1022 Pr1000 2.695 . S
O1022 Pr1001 2.436 . S
O1022 C1009 1.270 . S
O1023 Pr1000 2.512 . S
O1023 C1009 1.248 . S
O1024 Pr1001 2.438 . S
O1024 C1010 1.267 . S
O1025 Pr1000 2.437 . S
O1025 C1010 1.278 . S
O1026 Pr1001 2.562 . S
O1026 C1011 1.254 . S
O1027 Pr1001 2.490 . S
O1027 C1011 1.225 . S
O1028 Pr1000 2.436 . S
O1028 Pr1001 2.695 . S
O1028 C1018 1.270 . S
O1029 Pr1001 2.512 . S
O1029 C1018 1.248 . S
O1030 Pr1000 2.438 . S
O1030 C1019 1.267 . S
O1031 Pr1001 2.437 . S
O1031 C1019 1.278 . S
H1032 C1004 0.929 . S
H1033 C1005 0.929 . S
H1034 C1007 0.931 . S
H1035 C1008 0.930 . S
H1036 C1013 0.929 . S
H1037 C1014 0.929 . S
H1038 C1016 0.931 . S
H1039 C1017 0.930 . S
Pr1040 C1042 2.880 . S
Pr1040 O1060 2.562 . S
Pr1040 O1061 2.490 . S
Pr1040 O1062 2.695 . S
Pr1040 O1063 2.512 . S
Pr1040 O1065 2.437 . S
Pr1040 O1068 2.436 . S
Pr1040 O1070 2.438 . S
Pr1041 C1051 2.880 . S
Pr1041 O1062 2.436 . S
Pr1041 O1064 2.438 . S
Pr1041 O1066 2.562 . S
Pr1041 O1067 2.490 . S
Pr1041 O1068 2.695 . S
Pr1041 O1069 2.512 . S
Pr1041 O1071 2.437 . S
C1042 Pr1040 2.880 . S
C1042 C1043 1.491 . S
C1042 O1060 1.254 . S
C1042 O1061 1.225 . S
C1043 C1042 1.491 . S
C1043 C1044 1.392 . S
C1043 C1048 1.356 . S
C1044 C1043 1.392 . S
C1044 C1045 1.368 . S
C1044 H1072 0.929 . S
C1045 C1044 1.368 . S
C1045 C1046 1.386 . S
C1045 H1073 0.929 . S
C1046 C1045 1.386 . S
C1046 C1047 1.373 . S
C1047 C1046 1.373 . S
C1047 C1048 1.409 . S
C1047 H1074 0.931 . S
C1048 C1043 1.356 . S
C1048 C1047 1.409 . S
C1048 H1075 0.930 . S
C1049 O1062 1.270 . S
C1049 O1063 1.248 . S
C1050 O1064 1.267 . S
C1050 O1065 1.278 . S
C1051 Pr1041 2.880 . S
C1051 C1052 1.491 . S
C1051 O1066 1.254 . S
C1051 O1067 1.225 . S
C1052 C1051 1.491 . S
C1052 C1053 1.392 . S
C1052 C1057 1.356 . S
C1053 C1052 1.392 . S
C1053 C1054 1.368 . S
C1053 H1076 0.929 . S
C1054 C1053 1.368 . S
C1054 C1055 1.386 . S
C1054 H1077 0.929 . S
C1055 C1054 1.386 . S
C1055 C1056 1.373 . S
C1056 C1055 1.373 . S
C1056 C1057 1.409 . S
C1056 H1078 0.931 . S
C1057 C1052 1.356 . S
C1057 C1056 1.409 . S
C1057 H1079 0.930 . S
C1058 O1068 1.270 . S
C1058 O1069 1.248 . S
C1059 O1070 1.267 . S
C1059 O1071 1.278 . S
O1060 Pr1040 2.562 . S
O1060 C1042 1.254 . S
O1061 Pr1040 2.490 . S
O1061 C1042 1.225 . S
O1062 Pr1040 2.695 . S
O1062 Pr1041 2.436 . S
O1062 C1049 1.270 . S
O1063 Pr1040 2.512 . S
O1063 C1049 1.248 . S
O1064 Pr1041 2.438 . S
O1064 C1050 1.267 . S
O1065 Pr1040 2.437 . S
O1065 C1050 1.278 . S
O1066 Pr1041 2.562 . S
O1066 C1051 1.254 . S
O1067 Pr1041 2.490 . S
O1067 C1051 1.225 . S
O1068 Pr1040 2.436 . S
O1068 Pr1041 2.695 . S
O1068 C1058 1.270 . S
O1069 Pr1041 2.512 . S
O1069 C1058 1.248 . S
O1070 Pr1040 2.438 . S
O1070 C1059 1.267 . S
O1071 Pr1041 2.437 . S
O1071 C1059 1.278 . S
H1072 C1044 0.929 . S
H1073 C1045 0.929 . S
H1074 C1047 0.931 . S
H1075 C1048 0.930 . S
H1076 C1053 0.929 . S
H1077 C1054 0.929 . S
H1078 C1056 0.931 . S
H1079 C1057 0.930 . S
Pr1080 C1082 2.880 1_545 S
Pr1080 O1100 2.562 1_545 S
Pr1080 O1101 2.490 . S
Pr1080 O1102 2.695 1_545 S
Pr1080 O1103 2.512 . S
Pr1080 O1105 2.437 1_545 S
Pr1080 O1108 2.436 1_545 S
Pr1080 O1110 2.438 . S
Pr1081 C1091 2.880 . S
Pr1081 O1102 2.436 . S
Pr1081 O1104 2.438 . S
Pr1081 O1106 2.562 . S
Pr1081 O1107 2.490 . S
Pr1081 O1108 2.695 . S
Pr1081 O1109 2.512 . S
Pr1081 O1111 2.437 1_565 S
C1082 Pr1080 2.880 1_565 S
C1082 C1083 1.491 . S
C1082 O1100 1.254 . S
C1082 O1101 1.225 1_565 S
C1083 C1082 1.491 . S
C1083 C1084 1.392 . S
C1083 C1088 1.356 . S
C1084 C1083 1.392 . S
C1084 C1085 1.368 . S
C1084 H1112 0.925 1_565 S
C1085 C1084 1.368 . S
C1085 C1086 1.386 . S
C1085 H1113 0.929 . S
C1086 C1085 1.386 . S
C1086 C1087 1.373 . S
C1087 C1086 1.373 . S
C1087 C1088 1.409 . S
C1087 H1114 0.931 . S
C1088 C1083 1.356 . S
C1088 C1087 1.409 . S
C1088 H1115 0.930 . S
C1089 O1102 1.270 . S
C1089 O1103 1.248 1_565 S
C1090 O1104 1.267 . S
C1090 O1105 1.278 . S
C1091 Pr1081 2.880 . S
C1091 C1092 1.491 . S
C1091 O1106 1.254 . S
C1091 O1107 1.225 . S
C1092 C1091 1.491 . S
C1092 C1093 1.392 . S
C1092 C1097 1.356 1_565 S
C1093 C1092 1.392 . S
C1093 C1094 1.380 . S
C1093 H1116 0.929 . S
C1094 C1093 1.380 . S
C1094 C1095 1.360 1_565 S
C1094 H1117 0.946 . S
C1095 C1094 1.360 1_545 S
C1095 C1096 1.373 . S
C1096 C1095 1.373 . S
C1096 C1097 1.409 . S
C1096 H1118 0.931 . S
C1097 C1092 1.356 1_545 S
C1097 C1096 1.409 . S
C1097 H1119 0.930 . S
C1098 O1108 1.270 . S
C1098 O1109 1.248 . S
C1099 O1110 1.267 . S
C1099 O1111 1.278 . S
O1100 Pr1080 2.562 1_565 S
O1100 C1082 1.254 . S
O1101 Pr1080 2.490 . S
O1101 C1082 1.225 1_545 S
O1102 Pr1080 2.695 1_565 S
O1102 Pr1081 2.436 . S
O1102 C1089 1.270 . S
O1103 Pr1080 2.512 . S
O1103 C1089 1.248 1_545 S
O1104 Pr1081 2.438 . S
O1104 C1090 1.267 . S
O1105 Pr1080 2.437 1_565 S
O1105 C1090 1.278 . S
O1106 Pr1081 2.562 . S
O1106 C1091 1.254 . S
O1107 Pr1081 2.490 . S
O1107 C1091 1.225 . S
O1108 Pr1080 2.436 1_565 S
O1108 Pr1081 2.695 . S
O1108 C1098 1.270 . S
O1109 Pr1081 2.512 . S
O1109 C1098 1.248 . S
O1110 Pr1080 2.438 . S
O1110 C1099 1.267 . S
O1111 Pr1081 2.437 1_545 S
O1111 C1099 1.278 . S
H1112 C1084 0.925 1_545 S
H1113 C1085 0.929 . S
H1114 C1087 0.931 . S
H1115 C1088 0.930 . S
H1116 C1093 0.929 . S
H1117 C1094 0.946 . S
H1118 C1096 0.931 . S
H1119 C1097 0.930 . S
Pr1120 C1122 2.880 . S
Pr1120 O1140 2.562 . S
Pr1120 O1141 2.490 . S
Pr1120 O1142 2.695 . S
Pr1120 O1143 2.512 . S
Pr1120 O1145 2.437 1_545 S
Pr1120 O1148 2.436 . S
Pr1120 O1150 2.438 . S
Pr1121 C1131 2.880 1_565 S
Pr1121 O1142 2.436 1_565 S
Pr1121 O1144 2.438 . S
Pr1121 O1146 2.562 1_565 S
Pr1121 O1147 2.490 . S
Pr1121 O1148 2.695 1_565 S
Pr1121 O1149 2.512 . S
Pr1121 O1151 2.437 1_565 S
C1122 Pr1120 2.880 . S
C1122 C1123 1.491 . S
C1122 O1140 1.254 . S
C1122 O1141 1.225 . S
C1123 C1122 1.491 . S
C1123 C1124 1.392 . S
C1123 C1128 1.356 1_545 S
C1124 C1123 1.392 . S
C1124 C1125 1.380 . S
C1124 H1152 0.929 . S
C1125 C1124 1.380 . S
C1125 C1126 1.360 1_545 S
C1125 H1153 0.946 . S
C1126 C1125 1.360 1_565 S
C1126 C1127 1.373 . S
C1127 C1126 1.373 . S
C1127 C1128 1.409 . S
C1127 H1154 0.931 . S
C1128 C1123 1.356 1_565 S
C1128 C1127 1.409 . S
C1128 H1155 0.930 . S
C1129 O1142 1.270 . S
C1129 O1143 1.248 . S
C1130 O1144 1.267 . S
C1130 O1145 1.278 . S
C1131 Pr1121 2.880 1_545 S
C1131 C1132 1.491 . S
C1131 O1146 1.254 . S
C1131 O1147 1.225 1_545 S
C1132 C1131 1.491 . S
C1132 C1133 1.392 . S
C1132 C1137 1.356 . S
C1133 C1132 1.392 . S
C1133 C1134 1.368 . S
C1133 H1156 0.925 1_545 S
C1134 C1133 1.368 . S
C1134 C1135 1.386 . S
C1134 H1157 0.929 . S
C1135 C1134 1.386 . S
C1135 C1136 1.373 . S
C1136 C1135 1.373 . S
C1136 C1137 1.409 . S
C1136 H1158 0.931 . S
C1137 C1132 1.356 . S
C1137 C1136 1.409 . S
C1137 H1159 0.930 . S
C1138 O1148 1.270 . S
C1138 O1149 1.248 1_545 S
C1139 O1150 1.267 . S
C1139 O1151 1.278 . S
O1140 Pr1120 2.562 . S
O1140 C1122 1.254 . S
O1141 Pr1120 2.490 . S
O1141 C1122 1.225 . S
O1142 Pr1120 2.695 . S
O1142 Pr1121 2.436 1_545 S
O1142 C1129 1.270 . S
O1143 Pr1120 2.512 . S
O1143 C1129 1.248 . S
O1144 Pr1121 2.438 . S
O1144 C1130 1.267 . S
O1145 Pr1120 2.437 1_565 S
O1145 C1130 1.278 . S
O1146 Pr1121 2.562 1_545 S
O1146 C1131 1.254 . S
O1147 Pr1121 2.490 . S
O1147 C1131 1.225 1_565 S
O1148 Pr1120 2.436 . S
O1148 Pr1121 2.695 1_545 S
O1148 C1138 1.270 . S
O1149 Pr1121 2.512 . S
O1149 C1138 1.248 1_565 S
O1150 Pr1120 2.438 . S
O1150 C1139 1.267 . S
O1151 Pr1121 2.437 1_545 S
O1151 C1139 1.278 . S
H1152 C1124 0.929 . S
H1153 C1125 0.946 . S
H1154 C1127 0.931 . S
H1155 C1128 0.930 . S
H1156 C1133 0.925 1_565 S
H1157 C1134 0.929 . S
H1158 C1136 0.931 . S
H1159 C1137 0.930 . S
Pr1160 C1162 2.880 . S
Pr1160 O1180 2.562 . S
Pr1160 O1181 2.490 . S
Pr1160 O1182 2.695 . S
Pr1160 O1183 2.512 . S
Pr1160 O1185 2.437 . S
Pr1160 O1188 2.436 . S
Pr1160 O1190 2.438 . S
Pr1161 C1171 2.880 . S
Pr1161 O1182 2.436 . S
Pr1161 O1184 2.438 . S
Pr1161 O1186 2.562 . S
Pr1161 O1187 2.490 . S
Pr1161 O1188 2.695 . S
Pr1161 O1189 2.512 . S
Pr1161 O1191 2.437 . S
C1162 Pr1160 2.880 . S
C1162 C1163 1.491 . S
C1162 O1180 1.254 . S
C1162 O1181 1.225 . S
C1163 C1162 1.491 . S
C1163 C1164 1.392 . S
C1163 C1168 1.356 . S
C1164 C1163 1.392 . S
C1164 C1165 1.368 . S
C1164 H1192 0.929 . S
C1165 C1164 1.368 . S
C1165 C1166 1.386 . S
C1165 H1193 0.929 . S
C1166 C1165 1.386 . S
C1166 C1167 1.373 . S
C1167 C1166 1.373 . S
C1167 C1168 1.409 . S
C1167 H1194 0.931 . S
C1168 C1163 1.356 . S
C1168 C1167 1.409 . S
C1168 H1195 0.930 . S
C1169 O1182 1.270 . S
C1169 O1183 1.248 . S
C1170 O1184 1.267 . S
C1170 O1185 1.278 . S
C1171 Pr1161 2.880 . S
C1171 C1172 1.491 . S
C1171 O1186 1.254 . S
C1171 O1187 1.225 . S
C1172 C1171 1.491 . S
C1172 C1173 1.392 . S
C1172 C1177 1.356 . S
C1173 C1172 1.392 . S
C1173 C1174 1.368 . S
C1173 H1196 0.929 . S
C1174 C1173 1.368 . S
C1174 C1175 1.386 . S
C1174 H1197 0.929 . S
C1175 C1174 1.386 . S
C1175 C1176 1.373 . S
C1176 C1175 1.373 . S
C1176 C1177 1.409 . S
C1176 H1198 0.931 . S
C1177 C1172 1.356 . S
C1177 C1176 1.409 . S
C1177 H1199 0.930 . S
C1178 O1188 1.270 . S
C1178 O1189 1.248 . S
C1179 O1190 1.267 . S
C1179 O1191 1.278 . S
O1180 Pr1160 2.562 . S
O1180 C1162 1.254 . S
O1181 Pr1160 2.490 . S
O1181 C1162 1.225 . S
O1182 Pr1160 2.695 . S
O1182 Pr1161 2.436 . S
O1182 C1169 1.270 . S
O1183 Pr1160 2.512 . S
O1183 C1169 1.248 . S
O1184 Pr1161 2.438 . S
O1184 C1170 1.267 . S
O1185 Pr1160 2.437 . S
O1185 C1170 1.278 . S
O1186 Pr1161 2.562 . S
O1186 C1171 1.254 . S
O1187 Pr1161 2.490 . S
O1187 C1171 1.225 . S
O1188 Pr1160 2.436 . S
O1188 Pr1161 2.695 . S
O1188 C1178 1.270 . S
O1189 Pr1161 2.512 . S
O1189 C1178 1.248 . S
O1190 Pr1160 2.438 . S
O1190 C1179 1.267 . S
O1191 Pr1161 2.437 . S
O1191 C1179 1.278 . S
H1192 C1164 0.929 . S
H1193 C1165 0.929 . S
H1194 C1167 0.931 . S
H1195 C1168 0.930 . S
H1196 C1173 0.929 . S
H1197 C1174 0.929 . S
H1198 C1176 0.931 . S
H1199 C1177 0.930 . S
Pr1200 C1202 2.880 . S
Pr1200 O1220 2.562 . S
Pr1200 O1221 2.490 . S
Pr1200 O1222 2.695 . S
Pr1200 O1223 2.512 . S
Pr1200 O1225 2.437 . S
Pr1200 O1228 2.436 . S
Pr1200 O1230 2.438 . S
Pr1201 C1211 2.880 . S
Pr1201 O1222 2.436 . S
Pr1201 O1224 2.438 . S
Pr1201 O1226 2.562 . S
Pr1201 O1227 2.490 . S
Pr1201 O1228 2.695 . S
Pr1201 O1229 2.512 . S
Pr1201 O1231 2.437 . S
C1202 Pr1200 2.880 . S
C1202 C1203 1.491 . S
C1202 O1220 1.254 . S
C1202 O1221 1.225 . S
C1203 C1202 1.491 . S
C1203 C1204 1.392 . S
C1203 C1208 1.356 . S
C1204 C1203 1.392 . S
C1204 C1205 1.368 . S
C1204 H1232 0.929 . S
C1205 C1204 1.368 . S
C1205 C1206 1.386 . S
C1205 H1233 0.929 . S
C1206 C1205 1.386 . S
C1206 C1207 1.373 . S
C1207 C1206 1.373 . S
C1207 C1208 1.409 . S
C1207 H1234 0.931 . S
C1208 C1203 1.356 . S
C1208 C1207 1.409 . S
C1208 H1235 0.930 . S
C1209 O1222 1.270 . S
C1209 O1223 1.248 . S
C1210 O1224 1.267 . S
C1210 O1225 1.278 . S
C1211 Pr1201 2.880 . S
C1211 C1212 1.491 . S
C1211 O1226 1.254 . S
C1211 O1227 1.225 . S
C1212 C1211 1.491 . S
C1212 C1213 1.392 . S
C1212 C1217 1.356 . S
C1213 C1212 1.392 . S
C1213 C1214 1.368 . S
C1213 H1236 0.929 . S
C1214 C1213 1.368 . S
C1214 C1215 1.386 . S
C1214 H1237 0.929 . S
C1215 C1214 1.386 . S
C1215 C1216 1.373 . S
C1216 C1215 1.373 . S
C1216 C1217 1.409 . S
C1216 H1238 0.931 . S
C1217 C1212 1.356 . S
C1217 C1216 1.409 . S
C1217 H1239 0.930 . S
C1218 O1228 1.270 . S
C1218 O1229 1.248 . S
C1219 O1230 1.267 . S
C1219 O1231 1.278 . S
O1220 Pr1200 2.562 . S
O1220 C1202 1.254 . S
O1221 Pr1200 2.490 . S
O1221 C1202 1.225 . S
O1222 Pr1200 2.695 . S
O1222 Pr1201 2.436 . S
O1222 C1209 1.270 . S
O1223 Pr1200 2.512 . S
O1223 C1209 1.248 . S
O1224 Pr1201 2.438 . S
O1224 C1210 1.267 . S
O1225 Pr1200 2.437 . S
O1225 C1210 1.278 . S
O1226 Pr1201 2.562 . S
O1226 C1211 1.254 . S
O1227 Pr1201 2.490 . S
O1227 C1211 1.225 . S
O1228 Pr1200 2.436 . S
O1228 Pr1201 2.695 . S
O1228 C1218 1.270 . S
O1229 Pr1201 2.512 . S
O1229 C1218 1.248 . S
O1230 Pr1200 2.438 . S
O1230 C1219 1.267 . S
O1231 Pr1201 2.437 . S
O1231 C1219 1.278 . S
H1232 C1204 0.929 . S
H1233 C1205 0.929 . S
H1234 C1207 0.931 . S
H1235 C1208 0.930 . S
H1236 C1213 0.929 . S
H1237 C1214 0.929 . S
H1238 C1216 0.931 . S
H1239 C1217 0.930 . S
Pr1240 C1242 2.880 . S
Pr1240 O1260 2.562 . S
Pr1240 O1261 2.490 . S
Pr1240 O1262 2.695 . S
Pr1240 O1263 2.512 . S
Pr1240 O1265 2.437 1_545 S
Pr1240 O1268 2.436 . S
Pr1240 O1270 2.438 . S
Pr1241 C1251 2.880 1_565 S
Pr1241 O1262 2.436 1_565 S
Pr1241 O1264 2.438 . S
Pr1241 O1266 2.562 1_565 S
Pr1241 O1267 2.490 . S
Pr1241 O1268 2.695 1_565 S
Pr1241 O1269 2.512 . S
Pr1241 O1271 2.437 1_565 S
C1242 Pr1240 2.880 . S
C1242 C1243 1.491 . S
C1242 O1260 1.254 . S
C1242 O1261 1.225 . S
C1243 C1242 1.491 . S
C1243 C1244 1.392 . S
C1243 C1248 1.356 1_545 S
C1244 C1243 1.392 . S
C1244 C1245 1.380 . S
C1244 H1272 0.929 . S
C1245 C1244 1.380 . S
C1245 C1246 1.360 1_545 S
C1245 H1273 0.946 . S
C1246 C1245 1.360 1_565 S
C1246 C1247 1.373 . S
C1247 C1246 1.373 . S
C1247 C1248 1.409 . S
C1247 H1274 0.931 . S
C1248 C1243 1.356 1_565 S
C1248 C1247 1.409 . S
C1248 H1275 0.930 . S
C1249 O1262 1.270 . S
C1249 O1263 1.248 . S
C1250 O1264 1.267 . S
C1250 O1265 1.278 . S
C1251 Pr1241 2.880 1_545 S
C1251 C1252 1.491 . S
C1251 O1266 1.254 . S
C1251 O1267 1.225 1_545 S
C1252 C1251 1.491 . S
C1252 C1253 1.392 . S
C1252 C1257 1.356 . S
C1253 C1252 1.392 . S
C1253 C1254 1.368 . S
C1253 H1276 0.925 1_545 S
C1254 C1253 1.368 . S
C1254 C1255 1.386 . S
C1254 H1277 0.929 . S
C1255 C1254 1.386 . S
C1255 C1256 1.373 . S
C1256 C1255 1.373 . S
C1256 C1257 1.409 . S
C1256 H1278 0.931 . S
C1257 C1252 1.356 . S
C1257 C1256 1.409 . S
C1257 H1279 0.930 . S
C1258 O1268 1.270 . S
C1258 O1269 1.248 1_545 S
C1259 O1270 1.267 . S
C1259 O1271 1.278 . S
O1260 Pr1240 2.562 . S
O1260 C1242 1.254 . S
O1261 Pr1240 2.490 . S
O1261 C1242 1.225 . S
O1262 Pr1240 2.695 . S
O1262 Pr1241 2.436 1_545 S
O1262 C1249 1.270 . S
O1263 Pr1240 2.512 . S
O1263 C1249 1.248 . S
O1264 Pr1241 2.438 . S
O1264 C1250 1.267 . S
O1265 Pr1240 2.437 1_565 S
O1265 C1250 1.278 . S
O1266 Pr1241 2.562 1_545 S
O1266 C1251 1.254 . S
O1267 Pr1241 2.490 . S
O1267 C1251 1.225 1_565 S
O1268 Pr1240 2.436 . S
O1268 Pr1241 2.695 1_545 S
O1268 C1258 1.270 . S
O1269 Pr1241 2.512 . S
O1269 C1258 1.248 1_565 S
O1270 Pr1240 2.438 . S
O1270 C1259 1.267 . S
O1271 Pr1241 2.437 1_545 S
O1271 C1259 1.278 . S
H1272 C1244 0.929 . S
H1273 C1245 0.946 . S
H1274 C1247 0.931 . S
H1275 C1248 0.930 . S
H1276 C1253 0.925 1_565 S
H1277 C1254 0.929 . S
H1278 C1256 0.931 . S
H1279 C1257 0.930 . S
H1280 C1288 0.929 . S
H1281 C1290 0.930 . S
H1282 C1292 0.930 . S
H1283 C1295 0.929 . S
H1284 C1298 0.930 . S
H1285 C1300 0.960 . S
H1286 C1300 0.960 . S
H1287 C1300 0.960 . S
C1288 H1280 0.929 . S
C1288 C1289 1.377 . S
C1288 C1290 1.384 . S
C1289 C1288 1.377 . S
C1289 C1295 1.390 . S
C1290 H1281 0.930 . S
C1290 C1288 1.384 . S
C1290 C1291 1.372 . S
C1291 C1290 1.372 . S
C1291 C1292 1.400 . S
C1291 C1296 1.490 . S
C1292 H1282 0.930 . S
C1292 C1291 1.400 . S
C1292 C1295 1.386 . S
H1293 C1309 0.930 . S
H1294 C1310 0.931 . S
C1295 H1283 0.929 . S
C1295 C1289 1.390 . S
C1295 C1292 1.386 . S
C1296 C1291 1.490 . S
C1296 C1298 1.395 . S
C1296 C1299 1.403 . S
H1297 C1303 0.930 . S
C1298 H1284 0.930 . S
C1298 C1296 1.395 . S
C1298 C1301 1.403 . S
C1299 C1296 1.403 . S
C1299 C1300 1.524 . S
C1299 C1303 1.400 . S
C1300 H1285 0.960 . S
C1300 H1286 0.960 . S
C1300 H1287 0.960 . S
C1300 C1299 1.524 . S
C1301 C1298 1.403 . S
C1301 C1302 1.392 . S
C1301 C1305 1.495 . S
C1302 C1301 1.392 . S
C1302 C1303 1.385 . S
C1302 C1304 1.478 . S
C1303 H1297 0.930 . S
C1303 C1299 1.400 . S
C1303 C1302 1.385 . S
C1304 C1302 1.478 . S
C1304 C1306 1.381 . S
C1304 C1310 1.383 . S
C1305 C1301 1.495 . S
C1305 H1311 0.959 . S
C1305 H1312 0.961 . S
C1305 H1313 0.960 . S
C1306 C1304 1.381 . S
C1306 C1307 1.394 . S
C1306 H1314 0.930 . S
C1307 C1306 1.394 . S
C1307 C1308 1.383 . S
C1307 H1315 0.929 . S
C1308 C1307 1.383 . S
C1308 C1309 1.377 . S
C1309 H1293 0.930 . S
C1309 C1308 1.377 . S
C1309 C1310 1.379 . S
C1310 H1294 0.931 . S
C1310 C1304 1.383 . S
C1310 C1309 1.379 . S
H1311 C1305 0.959 . S
H1312 C1305 0.961 . S
H1313 C1305 0.960 . S
H1314 C1306 0.930 . S
H1315 C1307 0.929 . S
H1316 C1324 0.929 . S
H1317 C1326 0.930 . S
H1318 C1328 0.930 . S
H1319 C1331 0.929 . S
H1320 C1334 0.930 . S
H1321 C1336 0.960 . S
H1322 C1336 0.960 . S
H1323 C1336 0.960 . S
C1324 H1316 0.929 . S
C1324 C1325 1.377 . S
C1324 C1326 1.384 . S
C1325 C1324 1.377 . S
C1325 C1331 1.390 . S
C1326 H1317 0.930 . S
C1326 C1324 1.384 . S
C1326 C1327 1.372 . S
C1327 C1326 1.372 . S
C1327 C1328 1.400 . S
C1327 C1332 1.490 . S
C1328 H1318 0.930 . S
C1328 C1327 1.400 . S
C1328 C1331 1.386 . S
H1329 C1345 0.930 . S
H1330 C1346 0.931 . S
C1331 H1319 0.929 . S
C1331 C1325 1.390 . S
C1331 C1328 1.386 . S
C1332 C1327 1.490 . S
C1332 C1334 1.395 . S
C1332 C1335 1.403 . S
H1333 C1339 0.930 . S
C1334 H1320 0.930 . S
C1334 C1332 1.395 . S
C1334 C1337 1.403 . S
C1335 C1332 1.403 . S
C1335 C1336 1.524 . S
C1335 C1339 1.400 . S
C1336 H1321 0.960 . S
C1336 H1322 0.960 . S
C1336 H1323 0.960 . S
C1336 C1335 1.524 . S
C1337 C1334 1.403 . S
C1337 C1338 1.392 . S
C1337 C1341 1.495 . S
C1338 C1337 1.392 . S
C1338 C1339 1.385 . S
C1338 C1340 1.478 . S
C1339 H1333 0.930 . S
C1339 C1335 1.400 . S
C1339 C1338 1.385 . S
C1340 C1338 1.478 . S
C1340 C1342 1.381 . S
C1340 C1346 1.383 . S
C1341 C1337 1.495 . S
C1341 H1347 0.959 . S
C1341 H1348 0.961 . S
C1341 H1349 0.960 . S
C1342 C1340 1.381 . S
C1342 C1343 1.394 . S
C1342 H1350 0.930 . S
C1343 C1342 1.394 . S
C1343 C1344 1.383 . S
C1343 H1351 0.929 . S
C1344 C1343 1.383 . S
C1344 C1345 1.377 . S
C1345 H1329 0.930 . S
C1345 C1344 1.377 . S
C1345 C1346 1.379 . S
C1346 H1330 0.931 . S
C1346 C1340 1.383 . S
C1346 C1345 1.379 . S
H1347 C1341 0.959 . S
H1348 C1341 0.961 . S
H1349 C1341 0.960 . S
H1350 C1342 0.930 . S
H1351 C1343 0.929 . S
H1352 C1360 0.929 . S
H1353 C1362 0.930 . S
H1354 C1364 0.930 . S
H1355 C1367 0.929 . S
H1356 C1370 0.930 . S
H1357 C1372 0.960 . S
H1358 C1372 0.960 . S
H1359 C1372 0.960 . S
C1360 H1352 0.929 . S
C1360 C1361 1.377 . S
C1360 C1362 1.384 . S
C1361 C1360 1.377 . S
C1361 C1367 1.390 . S
C1362 H1353 0.930 . S
C1362 C1360 1.384 . S
C1362 C1363 1.372 . S
C1363 C1362 1.372 . S
C1363 C1364 1.400 . S
C1363 C1368 1.490 . S
C1364 H1354 0.930 . S
C1364 C1363 1.400 . S
C1364 C1367 1.386 . S
H1365 C1381 0.930 . S
H1366 C1382 0.931 . S
C1367 H1355 0.929 . S
C1367 C1361 1.390 . S
C1367 C1364 1.386 . S
C1368 C1363 1.490 . S
C1368 C1370 1.395 . S
C1368 C1371 1.403 . S
H1369 C1375 0.930 . S
C1370 H1356 0.930 . S
C1370 C1368 1.395 . S
C1370 C1373 1.403 . S
C1371 C1368 1.403 . S
C1371 C1372 1.524 . S
C1371 C1375 1.400 . S
C1372 H1357 0.960 . S
C1372 H1358 0.960 . S
C1372 H1359 0.960 . S
C1372 C1371 1.524 . S
C1373 C1370 1.403 . S
C1373 C1374 1.392 . S
C1373 C1377 1.495 . S
C1374 C1373 1.392 . S
C1374 C1375 1.385 . S
C1374 C1376 1.478 . S
C1375 H1369 0.930 . S
C1375 C1371 1.400 . S
C1375 C1374 1.385 . S
C1376 C1374 1.478 . S
C1376 C1378 1.381 . S
C1376 C1382 1.383 . S
C1377 C1373 1.495 . S
C1377 H1383 0.959 . S
C1377 H1384 0.961 . S
C1377 H1385 0.960 . S
C1378 C1376 1.381 . S
C1378 C1379 1.394 . S
C1378 H1386 0.930 . S
C1379 C1378 1.394 . S
C1379 C1380 1.383 . S
C1379 H1387 0.929 . S
C1380 C1379 1.383 . S
C1380 C1381 1.377 . S
C1381 H1365 0.930 . S
C1381 C1380 1.377 . S
C1381 C1382 1.379 . S
C1382 H1366 0.931 . S
C1382 C1376 1.383 . S
C1382 C1381 1.379 . S
H1383 C1377 0.959 . S
H1384 C1377 0.961 . S
H1385 C1377 0.960 . S
H1386 C1378 0.930 . S
H1387 C1379 0.929 . S
H1388 C1396 0.929 . S
H1389 C1398 0.930 . S
H1390 C1400 0.930 . S
H1391 C1403 0.929 . S
H1392 C1406 0.930 . S
H1393 C1408 0.960 . S
H1394 C1408 0.960 . S
H1395 C1408 0.960 . S
C1396 H1388 0.929 . S
C1396 C1397 1.377 . S
C1396 C1398 1.384 . S
C1397 C1396 1.377 . S
C1397 C1403 1.390 . S
C1398 H1389 0.930 . S
C1398 C1396 1.384 . S
C1398 C1399 1.372 . S
C1399 C1398 1.372 . S
C1399 C1400 1.400 . S
C1399 C1404 1.490 . S
C1400 H1390 0.930 . S
C1400 C1399 1.400 . S
C1400 C1403 1.386 . S
H1401 C1417 0.930 . S
H1402 C1418 0.931 . S
C1403 H1391 0.929 . S
C1403 C1397 1.390 . S
C1403 C1400 1.386 . S
C1404 C1399 1.490 . S
C1404 C1406 1.395 . S
C1404 C1407 1.403 . S
H1405 C1411 0.930 . S
C1406 H1392 0.930 . S
C1406 C1404 1.395 . S
C1406 C1409 1.403 . S
C1407 C1404 1.403 . S
C1407 C1408 1.524 . S
C1407 C1411 1.400 . S
C1408 H1393 0.960 . S
C1408 H1394 0.960 . S
C1408 H1395 0.960 . S
C1408 C1407 1.524 . S
C1409 C1406 1.403 . S
C1409 C1410 1.392 . S
C1409 C1413 1.495 . S
C1410 C1409 1.392 . S
C1410 C1411 1.385 . S
C1410 C1412 1.478 . S
C1411 H1405 0.930 . S
C1411 C1407 1.400 . S
C1411 C1410 1.385 . S
C1412 C1410 1.478 . S
C1412 C1414 1.381 . S
C1412 C1418 1.383 . S
C1413 C1409 1.495 . S
C1413 H1419 0.959 . S
C1413 H1420 0.961 . S
C1413 H1421 0.960 . S
C1414 C1412 1.381 . S
C1414 C1415 1.394 . S
C1414 H1422 0.930 . S
C1415 C1414 1.394 . S
C1415 C1416 1.383 . S
C1415 H1423 0.929 . S
C1416 C1415 1.383 . S
C1416 C1417 1.377 . S
C1417 H1401 0.930 . S
C1417 C1416 1.377 . S
C1417 C1418 1.379 . S
C1418 H1402 0.931 . S
C1418 C1412 1.383 . S
C1418 C1417 1.379 . S
H1419 C1413 0.959 . S
H1420 C1413 0.961 . S
H1421 C1413 0.960 . S
H1422 C1414 0.930 . S
H1423 C1415 0.929 . S
H1424 C1432 0.929 1_655 S
H1425 C1434 0.930 . S
H1426 C1436 0.930 . S
H1427 C1439 0.929 . S
H1428 C1442 0.930 . S
H1429 C1444 0.960 . S
H1430 C1444 0.960 . S
H1431 C1444 0.960 . S
C1432 H1424 0.929 1_455 S
C1432 C1433 1.377 . S
C1432 C1434 1.384 . S
C1433 C1432 1.377 . S
C1433 C1439 1.390 . S
C1434 H1425 0.930 . S
C1434 C1432 1.384 . S
C1434 C1435 1.372 . S
C1435 C1434 1.372 . S
C1435 C1436 1.400 . S
C1435 C1440 1.490 . S
C1436 H1426 0.930 . S
C1436 C1435 1.400 . S
C1436 C1439 1.386 . S
H1437 C1453 0.930 . S
H1438 C1454 0.931 . S
C1439 H1427 0.929 . S
C1439 C1433 1.390 . S
C1439 C1436 1.386 . S
C1440 C1435 1.490 . S
C1440 C1442 1.395 . S
C1440 C1443 1.403 . S
H1441 C1447 0.930 . S
C1442 H1428 0.930 . S
C1442 C1440 1.395 . S
C1442 C1445 1.403 . S
C1443 C1440 1.403 . S
C1443 C1444 1.524 . S
C1443 C1447 1.400 . S
C1444 H1429 0.960 . S
C1444 H1430 0.960 . S
C1444 H1431 0.960 . S
C1444 C1443 1.524 . S
C1445 C1442 1.403 . S
C1445 C1446 1.392 . S
C1445 C1449 1.495 . S
C1446 C1445 1.392 . S
C1446 C1447 1.385 . S
C1446 C1448 1.478 . S
C1447 H1441 0.930 . S
C1447 C1443 1.400 . S
C1447 C1446 1.385 . S
C1448 C1446 1.478 . S
C1448 C1450 1.381 . S
C1448 C1454 1.383 . S
C1449 C1445 1.495 . S
C1449 H1455 0.959 . S
C1449 H1456 0.961 . S
C1449 H1457 0.960 . S
C1450 C1448 1.381 . S
C1450 C1451 1.394 . S
C1450 H1458 0.930 . S
C1451 C1450 1.394 . S
C1451 C1452 1.383 . S
C1451 H1459 0.929 . S
C1452 C1451 1.383 . S
C1452 C1453 1.377 . S
C1453 H1437 0.930 . S
C1453 C1452 1.377 . S
C1453 C1454 1.379 . S
C1454 H1438 0.931 . S
C1454 C1448 1.383 . S
C1454 C1453 1.379 . S
H1455 C1449 0.959 . S
H1456 C1449 0.961 . S
H1457 C1449 0.960 . S
H1458 C1450 0.930 . S
H1459 C1451 0.929 . S
H1460 C1468 0.929 . S
H1461 C1470 0.930 . S
H1462 C1472 0.930 . S
H1463 C1475 0.929 . S
H1464 C1478 0.930 . S
H1465 C1480 0.960 . S
H1466 C1480 0.960 . S
H1467 C1480 0.960 . S
C1468 H1460 0.929 . S
C1468 C1469 1.377 . S
C1468 C1470 1.384 . S
C1469 C1468 1.377 . S
C1469 C1475 1.390 . S
C1470 H1461 0.930 . S
C1470 C1468 1.384 . S
C1470 C1471 1.372 . S
C1471 C1470 1.372 . S
C1471 C1472 1.400 . S
C1471 C1476 1.490 . S
C1472 H1462 0.930 . S
C1472 C1471 1.400 . S
C1472 C1475 1.386 . S
H1473 C1489 0.930 . S
H1474 C1490 0.931 . S
C1475 H1463 0.929 . S
C1475 C1469 1.390 . S
C1475 C1472 1.386 . S
C1476 C1471 1.490 . S
C1476 C1478 1.395 . S
C1476 C1479 1.403 . S
H1477 C1483 0.930 . S
C1478 H1464 0.930 . S
C1478 C1476 1.395 . S
C1478 C1481 1.403 . S
C1479 C1476 1.403 . S
C1479 C1480 1.524 . S
C1479 C1483 1.400 . S
C1480 H1465 0.960 . S
C1480 H1466 0.960 . S
C1480 H1467 0.960 . S
C1480 C1479 1.524 . S
C1481 C1478 1.403 . S
C1481 C1482 1.392 . S
C1481 C1485 1.495 . S
C1482 C1481 1.392 . S
C1482 C1483 1.385 . S
C1482 C1484 1.478 . S
C1483 H1477 0.930 . S
C1483 C1479 1.400 . S
C1483 C1482 1.385 . S
C1484 C1482 1.478 . S
C1484 C1486 1.381 . S
C1484 C1490 1.383 . S
C1485 C1481 1.495 . S
C1485 H1491 0.959 . S
C1485 H1492 0.961 . S
C1485 H1493 0.960 . S
C1486 C1484 1.381 . S
C1486 C1487 1.394 . S
C1486 H1494 0.930 . S
C1487 C1486 1.394 . S
C1487 C1488 1.383 . S
C1487 H1495 0.929 . S
C1488 C1487 1.383 . S
C1488 C1489 1.377 . S
C1489 H1473 0.930 . S
C1489 C1488 1.377 . S
C1489 C1490 1.379 . S
C1490 H1474 0.931 . S
C1490 C1484 1.383 . S
C1490 C1489 1.379 . S
H1491 C1485 0.959 . S
H1492 C1485 0.961 . S
H1493 C1485 0.960 . S
H1494 C1486 0.930 . S
H1495 C1487 0.929 . S
H1496 C1504 0.929 1_655 S
H1497 C1506 0.930 . S
H1498 C1508 0.930 . S
H1499 C1511 0.929 . S
H1500 C1514 0.930 . S
H1501 C1516 0.960 . S
H1502 C1516 0.960 . S
H1503 C1516 0.960 . S
C1504 H1496 0.929 1_455 S
C1504 C1505 1.377 . S
C1504 C1506 1.384 . S
C1505 C1504 1.377 . S
C1505 C1511 1.390 . S
C1506 H1497 0.930 . S
C1506 C1504 1.384 . S
C1506 C1507 1.372 . S
C1507 C1506 1.372 . S
C1507 C1508 1.400 . S
C1507 C1512 1.490 . S
C1508 H1498 0.930 . S
C1508 C1507 1.400 . S
C1508 C1511 1.386 . S
H1509 C1525 0.930 . S
H1510 C1526 0.931 . S
C1511 H1499 0.929 . S
C1511 C1505 1.390 . S
C1511 C1508 1.386 . S
C1512 C1507 1.490 . S
C1512 C1514 1.395 . S
C1512 C1515 1.403 . S
H1513 C1519 0.930 . S
C1514 H1500 0.930 . S
C1514 C1512 1.395 . S
C1514 C1517 1.403 . S
C1515 C1512 1.403 . S
C1515 C1516 1.524 . S
C1515 C1519 1.400 . S
C1516 H1501 0.960 . S
C1516 H1502 0.960 . S
C1516 H1503 0.960 . S
C1516 C1515 1.524 . S
C1517 C1514 1.403 . S
C1517 C1518 1.392 . S
C1517 C1521 1.495 . S
C1518 C1517 1.392 . S
C1518 C1519 1.385 . S
C1518 C1520 1.478 . S
C1519 H1513 0.930 . S
C1519 C1515 1.400 . S
C1519 C1518 1.385 . S
C1520 C1518 1.478 . S
C1520 C1522 1.381 . S
C1520 C1526 1.383 . S
C1521 C1517 1.495 . S
C1521 H1527 0.959 . S
C1521 H1528 0.961 . S
C1521 H1529 0.960 . S
C1522 C1520 1.381 . S
C1522 C1523 1.394 . S
C1522 H1530 0.930 . S
C1523 C1522 1.394 . S
C1523 C1524 1.383 . S
C1523 H1531 0.929 . S
C1524 C1523 1.383 . S
C1524 C1525 1.377 . S
C1525 H1509 0.930 . S
C1525 C1524 1.377 . S
C1525 C1526 1.379 . S
C1526 H1510 0.931 . S
C1526 C1520 1.383 . S
C1526 C1525 1.379 . S
H1527 C1521 0.959 . S
H1528 C1521 0.961 . S
H1529 C1521 0.960 . S
H1530 C1522 0.930 . S
H1531 C1523 0.929 . S
H1532 C1540 0.929 . S
H1533 C1542 0.930 . S
H1534 C1544 0.930 . S
H1535 C1547 0.929 . S
H1536 C1550 0.930 . S
H1537 C1552 0.960 . S
H1538 C1552 0.960 . S
H1539 C1552 0.960 . S
C1540 H1532 0.929 . S
C1540 C1541 1.377 . S
C1540 C1542 1.384 . S
C1541 C1540 1.377 . S
C1541 C1547 1.390 . S
C1542 H1533 0.930 . S
C1542 C1540 1.384 . S
C1542 C1543 1.372 . S
C1543 C1542 1.372 . S
C1543 C1544 1.400 . S
C1543 C1548 1.490 . S
C1544 H1534 0.930 . S
C1544 C1543 1.400 . S
C1544 C1547 1.386 . S
H1545 C1561 0.930 . S
H1546 C1562 0.931 . S
C1547 H1535 0.929 . S
C1547 C1541 1.390 . S
C1547 C1544 1.386 . S
C1548 C1543 1.490 . S
C1548 C1550 1.395 . S
C1548 C1551 1.403 . S
H1549 C1555 0.930 . S
C1550 H1536 0.930 . S
C1550 C1548 1.395 . S
C1550 C1553 1.403 . S
C1551 C1548 1.403 . S
C1551 C1552 1.524 . S
C1551 C1555 1.400 . S
C1552 H1537 0.960 . S
C1552 H1538 0.960 . S
C1552 H1539 0.960 . S
C1552 C1551 1.524 . S
C1553 C1550 1.403 . S
C1553 C1554 1.392 . S
C1553 C1557 1.495 . S
C1554 C1553 1.392 . S
C1554 C1555 1.385 . S
C1554 C1556 1.478 . S
C1555 H1549 0.930 . S
C1555 C1551 1.400 . S
C1555 C1554 1.385 . S
C1556 C1554 1.478 . S
C1556 C1558 1.381 . S
C1556 C1562 1.383 . S
C1557 C1553 1.495 . S
C1557 H1563 0.959 . S
C1557 H1564 0.961 . S
C1557 H1565 0.960 . S
C1558 C1556 1.381 . S
C1558 C1559 1.394 . S
C1558 H1566 0.930 . S
C1559 C1558 1.394 . S
C1559 C1560 1.383 . S
C1559 H1567 0.929 . S
C1560 C1559 1.383 . S
C1560 C1561 1.377 . S
C1561 H1545 0.930 . S
C1561 C1560 1.377 . S
C1561 C1562 1.379 . S
C1562 H1546 0.931 . S
C1562 C1556 1.383 . S
C1562 C1561 1.379 . S
H1563 C1557 0.959 . S
H1564 C1557 0.961 . S
H1565 C1557 0.960 . S
H1566 C1558 0.930 . S
H1567 C1559 0.929 . S
H1568 C1576 0.929 . S
H1569 C1578 0.930 . S
H1570 C1580 0.930 . S
H1571 C1583 0.929 . S
H1572 C1586 0.930 . S
H1573 C1588 0.960 . S
H1574 C1588 0.960 . S
H1575 C1588 0.960 . S
C1576 H1568 0.929 . S
C1576 C1577 1.377 . S
C1576 C1578 1.384 . S
C1577 C1576 1.377 . S
C1577 C1583 1.390 . S
C1578 H1569 0.930 . S
C1578 C1576 1.384 . S
C1578 C1579 1.372 . S
C1579 C1578 1.372 . S
C1579 C1580 1.400 . S
C1579 C1584 1.490 . S
C1580 H1570 0.930 . S
C1580 C1579 1.400 . S
C1580 C1583 1.386 . S
H1581 C1597 0.930 . S
H1582 C1598 0.931 . S
C1583 H1571 0.929 . S
C1583 C1577 1.390 . S
C1583 C1580 1.386 . S
C1584 C1579 1.490 . S
C1584 C1586 1.395 . S
C1584 C1587 1.403 . S
H1585 C1591 0.930 . S
C1586 H1572 0.930 . S
C1586 C1584 1.395 . S
C1586 C1589 1.403 . S
C1587 C1584 1.403 . S
C1587 C1588 1.524 . S
C1587 C1591 1.400 . S
C1588 H1573 0.960 . S
C1588 H1574 0.960 . S
C1588 H1575 0.960 . S
C1588 C1587 1.524 . S
C1589 C1586 1.403 . S
C1589 C1590 1.392 . S
C1589 C1593 1.495 . S
C1590 C1589 1.392 . S
C1590 C1591 1.385 . S
C1590 C1592 1.478 . S
C1591 H1585 0.930 . S
C1591 C1587 1.400 . S
C1591 C1590 1.385 . S
C1592 C1590 1.478 . S
C1592 C1594 1.381 . S
C1592 C1598 1.383 . S
C1593 C1589 1.495 . S
C1593 H1599 0.959 . S
C1593 H1600 0.961 . S
C1593 H1601 0.960 . S
C1594 C1592 1.381 . S
C1594 C1595 1.394 . S
C1594 H1602 0.930 . S
C1595 C1594 1.394 . S
C1595 C1596 1.383 . S
C1595 H1603 0.929 . S
C1596 C1595 1.383 . S
C1596 C1597 1.377 . S
C1597 H1581 0.930 . S
C1597 C1596 1.377 . S
C1597 C1598 1.379 . S
C1598 H1582 0.931 . S
C1598 C1592 1.383 . S
C1598 C1597 1.379 . S
H1599 C1593 0.959 . S
H1600 C1593 0.961 . S
H1601 C1593 0.960 . S
H1602 C1594 0.930 . S
H1603 C1595 0.929 . S
H1604 C1612 0.929 . S
H1605 C1614 0.930 . S
H1606 C1616 0.930 . S
H1607 C1619 0.929 . S
H1608 C1622 0.930 . S
H1609 C1624 0.960 . S
H1610 C1624 0.960 . S
H1611 C1624 0.960 . S
C1612 H1604 0.929 . S
C1612 C1613 1.377 . S
C1612 C1614 1.384 . S
C1613 C1612 1.377 . S
C1613 C1619 1.390 . S
C1614 H1605 0.930 . S
C1614 C1612 1.384 . S
C1614 C1615 1.372 . S
C1615 C1614 1.372 . S
C1615 C1616 1.400 . S
C1615 C1620 1.490 . S
C1616 H1606 0.930 . S
C1616 C1615 1.400 . S
C1616 C1619 1.386 . S
H1617 C1633 0.930 . S
H1618 C1634 0.931 . S
C1619 H1607 0.929 . S
C1619 C1613 1.390 . S
C1619 C1616 1.386 . S
C1620 C1615 1.490 . S
C1620 C1622 1.395 . S
C1620 C1623 1.403 . S
H1621 C1627 0.930 . S
C1622 H1608 0.930 . S
C1622 C1620 1.395 . S
C1622 C1625 1.403 . S
C1623 C1620 1.403 . S
C1623 C1624 1.524 . S
C1623 C1627 1.400 . S
C1624 H1609 0.960 . S
C1624 H1610 0.960 . S
C1624 H1611 0.960 . S
C1624 C1623 1.524 . S
C1625 C1622 1.403 . S
C1625 C1626 1.392 . S
C1625 C1629 1.495 . S
C1626 C1625 1.392 . S
C1626 C1627 1.385 . S
C1626 C1628 1.478 . S
C1627 H1621 0.930 . S
C1627 C1623 1.400 . S
C1627 C1626 1.385 . S
C1628 C1626 1.478 . S
C1628 C1630 1.381 . S
C1628 C1634 1.383 . S
C1629 C1625 1.495 . S
C1629 H1635 0.959 . S
C1629 H1636 0.961 . S
C1629 H1637 0.960 . S
C1630 C1628 1.381 . S
C1630 C1631 1.394 . S
C1630 H1638 0.930 . S
C1631 C1630 1.394 . S
C1631 C1632 1.383 . S
C1631 H1639 0.929 . S
C1632 C1631 1.383 . S
C1632 C1633 1.377 . S
C1633 H1617 0.930 . S
C1633 C1632 1.377 . S
C1633 C1634 1.379 . S
C1634 H1618 0.931 . S
C1634 C1628 1.383 . S
C1634 C1633 1.379 . S
H1635 C1629 0.959 . S
H1636 C1629 0.961 . S
H1637 C1629 0.960 . S
H1638 C1630 0.930 . S
H1639 C1631 0.929 . S
H1640 C1648 0.929 . S
H1641 C1650 0.930 . S
H1642 C1652 0.930 . S
H1643 C1655 0.929 1_455 S
H1644 C1658 0.930 . S
H1645 C1660 0.960 . S
H1646 C1660 0.960 . S
H1647 C1660 0.960 . S
C1648 H1640 0.929 . S
C1648 C1649 1.377 . S
C1648 C1650 1.384 . S
C1649 C1648 1.377 . S
C1649 C1655 1.390 . S
C1650 H1641 0.930 . S
C1650 C1648 1.384 . S
C1650 C1651 1.372 . S
C1651 C1650 1.372 . S
C1651 C1652 1.400 . S
C1651 C1656 1.490 . S
C1652 H1642 0.930 . S
C1652 C1651 1.400 . S
C1652 C1655 1.386 . S
H1653 C1669 0.930 . S
H1654 C1670 0.931 . S
C1655 H1643 0.929 1_655 S
C1655 C1649 1.390 . S
C1655 C1652 1.386 . S
C1656 C1651 1.490 . S
C1656 C1658 1.395 . S
C1656 C1659 1.403 . S
H1657 C1663 0.930 . S
C1658 H1644 0.930 . S
C1658 C1656 1.395 . S
C1658 C1661 1.403 . S
C1659 C1656 1.403 . S
C1659 C1660 1.524 . S
C1659 C1663 1.400 . S
C1660 H1645 0.960 . S
C1660 H1646 0.960 . S
C1660 H1647 0.960 . S
C1660 C1659 1.524 . S
C1661 C1658 1.403 . S
C1661 C1662 1.392 . S
C1661 C1665 1.495 . S
C1662 C1661 1.392 . S
C1662 C1663 1.385 . S
C1662 C1664 1.478 . S
C1663 H1657 0.930 . S
C1663 C1659 1.400 . S
C1663 C1662 1.385 . S
C1664 C1662 1.478 . S
C1664 C1666 1.381 . S
C1664 C1670 1.383 . S
C1665 C1661 1.495 . S
C1665 H1671 0.959 . S
C1665 H1672 0.961 . S
C1665 H1673 0.960 . S
C1666 C1664 1.381 . S
C1666 C1667 1.394 . S
C1666 H1674 0.930 . S
C1667 C1666 1.394 . S
C1667 C1668 1.383 . S
C1667 H1675 0.929 . S
C1668 C1667 1.383 . S
C1668 C1669 1.377 . S
C1669 H1653 0.930 . S
C1669 C1668 1.377 . S
C1669 C1670 1.379 . S
C1670 H1654 0.931 . S
C1670 C1664 1.383 . S
C1670 C1669 1.379 . S
H1671 C1665 0.959 . S
H1672 C1665 0.961 . S
H1673 C1665 0.960 . S
H1674 C1666 0.930 . S
H1675 C1667 0.929 . S
H1676 C1684 0.929 . S
H1677 C1686 0.930 . S
H1678 C1688 0.930 . S
H1679 C1691 0.929 . S
H1680 C1694 0.930 . S
H1681 C1696 0.960 . S
H1682 C1696 0.960 . S
H1683 C1696 0.960 . S
C1684 H1676 0.929 . S
C1684 C1685 1.377 . S
C1684 C1686 1.384 . S
C1685 C1684 1.377 . S
C1685 C1691 1.390 . S
C1686 H1677 0.930 . S
C1686 C1684 1.384 . S
C1686 C1687 1.372 . S
C1687 C1686 1.372 . S
C1687 C1688 1.400 . S
C1687 C1692 1.490 . S
C1688 H1678 0.930 . S
C1688 C1687 1.400 . S
C1688 C1691 1.386 . S
H1689 C1705 0.930 . S
H1690 C1706 0.931 . S
C1691 H1679 0.929 . S
C1691 C1685 1.390 . S
C1691 C1688 1.386 . S
C1692 C1687 1.490 . S
C1692 C1694 1.395 . S
C1692 C1695 1.403 . S
H1693 C1699 0.930 . S
C1694 H1680 0.930 . S
C1694 C1692 1.395 . S
C1694 C1697 1.403 . S
C1695 C1692 1.403 . S
C1695 C1696 1.524 . S
C1695 C1699 1.400 . S
C1696 H1681 0.960 . S
C1696 H1682 0.960 . S
C1696 H1683 0.960 . S
C1696 C1695 1.524 . S
C1697 C1694 1.403 . S
C1697 C1698 1.392 . S
C1697 C1701 1.495 . S
C1698 C1697 1.392 . S
C1698 C1699 1.385 . S
C1698 C1700 1.478 . S
C1699 H1693 0.930 . S
C1699 C1695 1.400 . S
C1699 C1698 1.385 . S
C1700 C1698 1.478 . S
C1700 C1702 1.381 . S
C1700 C1706 1.383 . S
C1701 C1697 1.495 . S
C1701 H1707 0.959 . S
C1701 H1708 0.961 . S
C1701 H1709 0.960 . S
C1702 C1700 1.381 . S
C1702 C1703 1.394 . S
C1702 H1710 0.930 . S
C1703 C1702 1.394 . S
C1703 C1704 1.383 . S
C1703 H1711 0.929 . S
C1704 C1703 1.383 . S
C1704 C1705 1.377 . S
C1705 H1689 0.930 . S
C1705 C1704 1.377 . S
C1705 C1706 1.379 . S
C1706 H1690 0.931 . S
C1706 C1700 1.383 . S
C1706 C1705 1.379 . S
H1707 C1701 0.959 . S
H1708 C1701 0.961 . S
H1709 C1701 0.960 . S
H1710 C1702 0.930 . S
H1711 C1703 0.929 . S
H1712 C1720 0.929 . S
H1713 C1722 0.930 . S
H1714 C1724 0.930 . S
H1715 C1727 0.929 1_655 S
H1716 C1730 0.930 . S
H1717 C1732 0.960 . S
H1718 C1732 0.960 . S
H1719 C1732 0.960 . S
C1720 H1712 0.929 . S
C1720 C1721 1.377 . S
C1720 C1722 1.384 . S
C1721 C1720 1.377 . S
C1721 C1727 1.390 . S
C1722 H1713 0.930 . S
C1722 C1720 1.384 . S
C1722 C1723 1.372 . S
C1723 C1722 1.372 . S
C1723 C1724 1.400 . S
C1723 C1728 1.490 . S
C1724 H1714 0.930 . S
C1724 C1723 1.400 . S
C1724 C1727 1.386 . S
H1725 C1741 0.930 . S
H1726 C1742 0.931 . S
C1727 H1715 0.929 1_455 S
C1727 C1721 1.390 . S
C1727 C1724 1.386 . S
C1728 C1723 1.490 . S
C1728 C1730 1.395 . S
C1728 C1731 1.403 . S
H1729 C1735 0.930 . S
C1730 H1716 0.930 . S
C1730 C1728 1.395 . S
C1730 C1733 1.403 . S
C1731 C1728 1.403 . S
C1731 C1732 1.524 . S
C1731 C1735 1.400 . S
C1732 H1717 0.960 . S
C1732 H1718 0.960 . S
C1732 H1719 0.960 . S
C1732 C1731 1.524 . S
C1733 C1730 1.403 . S
C1733 C1734 1.392 . S
C1733 C1737 1.495 . S
C1734 C1733 1.392 . S
C1734 C1735 1.385 . S
C1734 C1736 1.478 . S
C1735 H1729 0.930 . S
C1735 C1731 1.400 . S
C1735 C1734 1.385 . S
C1736 C1734 1.478 . S
C1736 C1738 1.381 . S
C1736 C1742 1.383 . S
C1737 C1733 1.495 . S
C1737 H1743 0.959 . S
C1737 H1744 0.961 . S
C1737 H1745 0.960 . S
C1738 C1736 1.381 . S
C1738 C1739 1.394 . S
C1738 H1746 0.930 . S
C1739 C1738 1.394 . S
C1739 C1740 1.383 . S
C1739 H1747 0.929 . S
C1740 C1739 1.383 . S
C1740 C1741 1.377 . S
C1741 H1725 0.930 . S
C1741 C1740 1.377 . S
C1741 C1742 1.379 . S
C1742 H1726 0.931 . S
C1742 C1736 1.383 . S
C1742 C1741 1.379 . S
H1743 C1737 0.959 . S
H1744 C1737 0.961 . S
H1745 C1737 0.960 . S
H1746 C1738 0.930 . S
H1747 C1739 0.929 . S
H1748 C1756 0.929 . S
H1749 C1758 0.930 . S
H1750 C1760 0.930 . S
H1751 C1763 0.929 . S
H1752 C1766 0.930 . S
H1753 C1768 0.960 . S
H1754 C1768 0.960 . S
H1755 C1768 0.960 . S
C1756 H1748 0.929 . S
C1756 C1757 1.377 . S
C1756 C1758 1.384 . S
C1757 C1756 1.377 . S
C1757 C1763 1.390 . S
C1758 H1749 0.930 . S
C1758 C1756 1.384 . S
C1758 C1759 1.372 . S
C1759 C1758 1.372 . S
C1759 C1760 1.400 . S
C1759 C1764 1.490 . S
C1760 H1750 0.930 . S
C1760 C1759 1.400 . S
C1760 C1763 1.386 . S
H1761 C1777 0.930 . S
H1762 C1778 0.931 . S
C1763 H1751 0.929 . S
C1763 C1757 1.390 . S
C1763 C1760 1.386 . S
C1764 C1759 1.490 . S
C1764 C1766 1.395 . S
C1764 C1767 1.403 . S
H1765 C1771 0.930 . S
C1766 H1752 0.930 . S
C1766 C1764 1.395 . S
C1766 C1769 1.403 . S
C1767 C1764 1.403 . S
C1767 C1768 1.524 . S
C1767 C1771 1.400 . S
C1768 H1753 0.960 . S
C1768 H1754 0.960 . S
C1768 H1755 0.960 . S
C1768 C1767 1.524 . S
C1769 C1766 1.403 . S
C1769 C1770 1.392 . S
C1769 C1773 1.495 . S
C1770 C1769 1.392 . S
C1770 C1771 1.385 . S
C1770 C1772 1.478 . S
C1771 H1765 0.930 . S
C1771 C1767 1.400 . S
C1771 C1770 1.385 . S
C1772 C1770 1.478 . S
C1772 C1774 1.381 . S
C1772 C1778 1.383 . S
C1773 C1769 1.495 . S
C1773 H1779 0.959 . S
C1773 H1780 0.961 . S
C1773 H1781 0.960 . S
C1774 C1772 1.381 . S
C1774 C1775 1.394 . S
C1774 H1782 0.930 . S
C1775 C1774 1.394 . S
C1775 C1776 1.383 . S
C1775 H1783 0.929 . S
C1776 C1775 1.383 . S
C1776 C1777 1.377 . S
C1777 H1761 0.930 . S
C1777 C1776 1.377 . S
C1777 C1778 1.379 . S
C1778 H1762 0.931 . S
C1778 C1772 1.383 . S
C1778 C1777 1.379 . S
H1779 C1773 0.959 . S
H1780 C1773 0.961 . S
H1781 C1773 0.960 . S
H1782 C1774 0.930 . S
H1783 C1775 0.929 . S
H1784 C1792 0.929 . S
H1785 C1794 0.930 . S
H1786 C1796 0.930 . S
H1787 C1799 0.929 . S
H1788 C1802 0.930 . S
H1789 C1804 0.960 . S
H1790 C1804 0.960 . S
H1791 C1804 0.960 . S
C1792 H1784 0.929 . S
C1792 C1793 1.377 . S
C1792 C1794 1.384 . S
C1793 C1792 1.377 . S
C1793 C1799 1.390 . S
C1794 H1785 0.930 . S
C1794 C1792 1.384 . S
C1794 C1795 1.372 . S
C1795 C1794 1.372 . S
C1795 C1796 1.400 . S
C1795 C1800 1.490 . S
C1796 H1786 0.930 . S
C1796 C1795 1.400 . S
C1796 C1799 1.386 . S
H1797 C1813 0.935 . S
H1798 C1814 0.931 . S
C1799 H1787 0.929 . S
C1799 C1793 1.390 . S
C1799 C1796 1.386 . S
C1800 C1795 1.490 . S
C1800 C1802 1.395 . S
C1800 C1803 1.403 . S
H1801 C1807 0.930 . S
C1802 H1788 0.930 . S
C1802 C1800 1.395 . S
C1802 C1805 1.403 . S
C1803 C1800 1.403 . S
C1803 C1804 1.524 . S
C1803 C1807 1.400 . S
C1804 H1789 0.960 . S
C1804 H1790 0.960 . S
C1804 H1791 0.960 . S
C1804 C1803 1.524 . S
C1805 C1802 1.403 . S
C1805 C1806 1.392 . S
C1805 C1809 1.495 . S
C1806 C1805 1.392 . S
C1806 C1807 1.385 . S
C1806 C1808 1.478 . S
C1807 H1801 0.930 . S
C1807 C1803 1.400 . S
C1807 C1806 1.385 . S
C1808 C1806 1.478 . S
C1808 C1810 1.381 . S
C1808 C1814 1.383 . S
C1809 C1805 1.495 . S
C1809 H1815 0.959 . S
C1809 H1816 0.961 . S
C1809 H1817 0.960 . S
C1810 C1808 1.381 . S
C1810 C1811 1.394 . S
C1810 H1818 0.930 . S
C1811 C1810 1.394 . S
C1811 C1812 1.383 . S
C1811 H1819 0.929 . S
C1812 C1811 1.383 . S
C1812 C1813 1.377 . S
C1813 H1797 0.935 . S
C1813 C1812 1.377 . S
C1813 C1814 1.379 . S
C1814 H1798 0.931 . S
C1814 C1808 1.383 . S
C1814 C1813 1.379 . S
H1815 C1809 0.959 . S
H1816 C1809 0.961 . S
H1817 C1809 0.960 . S
H1818 C1810 0.930 . S
H1819 C1811 0.929 . S
H1820 C1828 0.929 . S
H1821 C1830 0.930 . S
H1822 C1832 0.930 . S
H1823 C1835 0.929 . S
H1824 C1838 0.930 . S
H1825 C1840 0.960 . S
H1826 C1840 0.960 . S
H1827 C1840 0.960 . S
C1828 H1820 0.929 . S
C1828 C1829 1.377 . S
C1828 C1830 1.384 . S
C1829 C1828 1.377 . S
C1829 C1835 1.390 . S
C1830 H1821 0.930 . S
C1830 C1828 1.384 . S
C1830 C1831 1.372 . S
C1831 C1830 1.372 . S
C1831 C1832 1.400 . S
C1831 C1836 1.490 . S
C1832 H1822 0.930 . S
C1832 C1831 1.400 . S
C1832 C1835 1.386 . S
H1833 C1849 0.930 . S
H1834 C1850 0.931 . S
C1835 H1823 0.929 . S
C1835 C1829 1.390 . S
C1835 C1832 1.386 . S
C1836 C1831 1.490 . S
C1836 C1838 1.395 . S
C1836 C1839 1.403 . S
H1837 C1843 0.930 . S
C1838 H1824 0.930 . S
C1838 C1836 1.395 . S
C1838 C1841 1.403 . S
C1839 C1836 1.403 . S
C1839 C1840 1.524 . S
C1839 C1843 1.400 . S
C1840 H1825 0.960 . S
C1840 H1826 0.960 . S
C1840 H1827 0.960 . S
C1840 C1839 1.524 . S
C1841 C1838 1.403 . S
C1841 C1842 1.392 . S
C1841 C1845 1.495 . S
C1842 C1841 1.392 . S
C1842 C1843 1.385 . S
C1842 C1844 1.478 . S
C1843 H1837 0.930 . S
C1843 C1839 1.400 . S
C1843 C1842 1.385 . S
C1844 C1842 1.478 . S
C1844 C1846 1.381 . S
C1844 C1850 1.383 . S
C1845 C1841 1.495 . S
C1845 H1851 0.959 . S
C1845 H1852 0.961 . S
C1845 H1853 0.960 . S
C1846 C1844 1.381 . S
C1846 C1847 1.394 . S
C1846 H1854 0.930 . S
C1847 C1846 1.394 . S
C1847 C1848 1.383 . S
C1847 H1855 0.929 . S
C1848 C1847 1.383 . S
C1848 C1849 1.377 . S
C1849 H1833 0.930 . S
C1849 C1848 1.377 . S
C1849 C1850 1.379 . S
C1850 H1834 0.931 . S
C1850 C1844 1.383 . S
C1850 C1849 1.379 . S
H1851 C1845 0.959 . S
H1852 C1845 0.961 . S
H1853 C1845 0.960 . S
H1854 C1846 0.930 . S
H1855 C1847 0.929 . S
H1856 C1864 0.929 . S
H1857 C1866 0.930 . S
H1858 C1868 0.930 . S
H1859 C1871 0.929 . S
H1860 C1874 0.930 . S
H1861 C1876 0.960 . S
H1862 C1876 0.960 . S
H1863 C1876 0.960 . S
C1864 H1856 0.929 . S
C1864 C1865 1.377 . S
C1864 C1866 1.384 . S
C1865 C1864 1.377 . S
C1865 C1871 1.390 . S
C1866 H1857 0.930 . S
C1866 C1864 1.384 . S
C1866 C1867 1.372 . S
C1867 C1866 1.372 . S
C1867 C1868 1.400 . S
C1867 C1872 1.490 . S
C1868 H1858 0.930 . S
C1868 C1867 1.400 . S
C1868 C1871 1.386 . S
H1869 C1885 0.930 . S
H1870 C1886 0.931 . S
C1871 H1859 0.929 . S
C1871 C1865 1.390 . S
C1871 C1868 1.386 . S
C1872 C1867 1.490 . S
C1872 C1874 1.395 . S
C1872 C1875 1.403 . S
H1873 C1879 0.930 . S
C1874 H1860 0.930 . S
C1874 C1872 1.395 . S
C1874 C1877 1.403 . S
C1875 C1872 1.403 . S
C1875 C1876 1.524 . S
C1875 C1879 1.400 . S
C1876 H1861 0.960 . S
C1876 H1862 0.960 . S
C1876 H1863 0.960 . S
C1876 C1875 1.524 . S
C1877 C1874 1.403 . S
C1877 C1878 1.392 . S
C1877 C1881 1.495 . S
C1878 C1877 1.392 . S
C1878 C1879 1.385 . S
C1878 C1880 1.478 . S
C1879 H1873 0.930 . S
C1879 C1875 1.400 . S
C1879 C1878 1.385 . S
C1880 C1878 1.478 . S
C1880 C1882 1.381 . S
C1880 C1886 1.383 . S
C1881 C1877 1.495 . S
C1881 H1887 0.959 . S
C1881 H1888 0.961 . S
C1881 H1889 0.960 . S
C1882 C1880 1.381 . S
C1882 C1883 1.394 . S
C1882 H1890 0.930 . S
C1883 C1882 1.394 . S
C1883 C1884 1.383 . S
C1883 H1891 0.929 . S
C1884 C1883 1.383 . S
C1884 C1885 1.377 . S
C1885 H1869 0.930 . S
C1885 C1884 1.377 . S
C1885 C1886 1.379 . S
C1886 H1870 0.931 . S
C1886 C1880 1.383 . S
C1886 C1885 1.379 . S
H1887 C1881 0.959 . S
H1888 C1881 0.961 . S
H1889 C1881 0.960 . S
H1890 C1882 0.930 . S
H1891 C1883 0.929 . S
H1892 C1900 0.929 . S
H1893 C1902 0.930 . S
H1894 C1904 0.930 . S
H1895 C1907 0.929 . S
H1896 C1910 0.930 . S
H1897 C1912 0.960 . S
H1898 C1912 0.960 . S
H1899 C1912 0.960 . S
C1900 H1892 0.929 . S
C1900 C1901 1.377 . S
C1900 C1902 1.384 . S
C1901 C1900 1.377 . S
C1901 C1907 1.390 . S
C1902 H1893 0.930 . S
C1902 C1900 1.384 . S
C1902 C1903 1.372 . S
C1903 C1902 1.372 . S
C1903 C1904 1.400 . S
C1903 C1908 1.490 . S
C1904 H1894 0.930 . S
C1904 C1903 1.400 . S
C1904 C1907 1.386 . S
H1905 C1921 0.930 . S
H1906 C1922 0.931 . S
C1907 H1895 0.929 . S
C1907 C1901 1.390 . S
C1907 C1904 1.386 . S
C1908 C1903 1.490 . S
C1908 C1910 1.395 . S
C1908 C1911 1.403 . S
H1909 C1915 0.930 . S
C1910 H1896 0.930 . S
C1910 C1908 1.395 . S
C1910 C1913 1.403 . S
C1911 C1908 1.403 . S
C1911 C1912 1.524 . S
C1911 C1915 1.400 . S
C1912 H1897 0.960 . S
C1912 H1898 0.960 . S
C1912 H1899 0.960 . S
C1912 C1911 1.524 . S
C1913 C1910 1.403 . S
C1913 C1914 1.392 . S
C1913 C1917 1.495 . S
C1914 C1913 1.392 . S
C1914 C1915 1.385 . S
C1914 C1916 1.478 . S
C1915 H1909 0.930 . S
C1915 C1911 1.400 . S
C1915 C1914 1.385 . S
C1916 C1914 1.478 . S
C1916 C1918 1.381 . S
C1916 C1922 1.383 . S
C1917 C1913 1.495 . S
C1917 H1923 0.959 . S
C1917 H1924 0.961 . S
C1917 H1925 0.960 . S
C1918 C1916 1.381 . S
C1918 C1919 1.394 . S
C1918 H1926 0.930 . S
C1919 C1918 1.394 . S
C1919 C1920 1.383 . S
C1919 H1927 0.929 . S
C1920 C1919 1.383 . S
C1920 C1921 1.377 . S
C1921 H1905 0.930 . S
C1921 C1920 1.377 . S
C1921 C1922 1.379 . S
C1922 H1906 0.931 . S
C1922 C1916 1.383 . S
C1922 C1921 1.379 . S
H1923 C1917 0.959 . S
H1924 C1917 0.961 . S
H1925 C1917 0.960 . S
H1926 C1918 0.930 . S
H1927 C1919 0.929 . S
H1928 C1936 0.929 . S
H1929 C1938 0.930 . S
H1930 C1940 0.930 . S
H1931 C1943 0.929 . S
H1932 C1946 0.930 . S
H1933 C1948 0.960 . S
H1934 C1948 0.960 . S
H1935 C1948 0.960 . S
C1936 H1928 0.929 . S
C1936 C1937 1.377 . S
C1936 C1938 1.384 . S
C1937 C1936 1.377 . S
C1937 C1943 1.390 . S
C1938 H1929 0.930 . S
C1938 C1936 1.384 . S
C1938 C1939 1.372 . S
C1939 C1938 1.372 . S
C1939 C1940 1.400 . S
C1939 C1944 1.490 . S
C1940 H1930 0.930 . S
C1940 C1939 1.400 . S
C1940 C1943 1.386 . S
H1941 C1957 0.930 . S
H1942 C1958 0.931 . S
C1943 H1931 0.929 . S
C1943 C1937 1.390 . S
C1943 C1940 1.386 . S
C1944 C1939 1.490 . S
C1944 C1946 1.395 . S
C1944 C1947 1.403 . S
H1945 C1951 0.930 . S
C1946 H1932 0.930 . S
C1946 C1944 1.395 . S
C1946 C1949 1.403 . S
C1947 C1944 1.403 . S
C1947 C1948 1.524 . S
C1947 C1951 1.400 . S
C1948 H1933 0.960 . S
C1948 H1934 0.960 . S
C1948 H1935 0.960 . S
C1948 C1947 1.524 . S
C1949 C1946 1.403 . S
C1949 C1950 1.392 . S
C1949 C1953 1.495 . S
C1950 C1949 1.392 . S
C1950 C1951 1.385 . S
C1950 C1952 1.478 . S
C1951 H1945 0.930 . S
C1951 C1947 1.400 . S
C1951 C1950 1.385 . S
C1952 C1950 1.478 . S
C1952 C1954 1.381 . S
C1952 C1958 1.383 . S
C1953 C1949 1.495 . S
C1953 H1959 0.959 . S
C1953 H1960 0.961 . S
C1953 H1961 0.960 . S
C1954 C1952 1.381 . S
C1954 C1955 1.394 . S
C1954 H1962 0.930 . S
C1955 C1954 1.394 . S
C1955 C1956 1.383 . S
C1955 H1963 0.929 . S
C1956 C1955 1.383 . S
C1956 C1957 1.377 . S
C1957 H1941 0.930 . S
C1957 C1956 1.377 . S
C1957 C1958 1.379 . S
C1958 H1942 0.931 . S
C1958 C1952 1.383 . S
C1958 C1957 1.379 . S
H1959 C1953 0.959 . S
H1960 C1953 0.961 . S
H1961 C1953 0.960 . S
H1962 C1954 0.930 . S
H1963 C1955 0.929 . S
H1964 C1972 0.929 . S
H1965 C1974 0.930 . S
H1966 C1976 0.930 . S
H1967 C1979 0.929 . S
H1968 C1982 0.930 . S
H1969 C1984 0.960 . S
H1970 C1984 0.960 . S
H1971 C1984 0.960 . S
C1972 H1964 0.929 . S
C1972 C1973 1.377 . S
C1972 C1974 1.384 . S
C1973 C1972 1.377 . S
C1973 C1979 1.390 . S
C1974 H1965 0.930 . S
C1974 C1972 1.384 . S
C1974 C1975 1.372 . S
C1975 C1974 1.372 . S
C1975 C1976 1.400 . S
C1975 C1980 1.490 . S
C1976 H1966 0.930 . S
C1976 C1975 1.400 . S
C1976 C1979 1.386 . S
H1977 C1993 0.930 . S
H1978 C1994 0.931 . S
C1979 H1967 0.929 . S
C1979 C1973 1.390 . S
C1979 C1976 1.386 . S
C1980 C1975 1.490 . S
C1980 C1982 1.395 . S
C1980 C1983 1.403 . S
H1981 C1987 0.930 . S
C1982 H1968 0.930 . S
C1982 C1980 1.395 . S
C1982 C1985 1.403 . S
C1983 C1980 1.403 . S
C1983 C1984 1.524 . S
C1983 C1987 1.400 . S
C1984 H1969 0.960 . S
C1984 H1970 0.960 . S
C1984 H1971 0.960 . S
C1984 C1983 1.524 . S
C1985 C1982 1.403 . S
C1985 C1986 1.392 . S
C1985 C1989 1.495 . S
C1986 C1985 1.392 . S
C1986 C1987 1.385 . S
C1986 C1988 1.478 . S
C1987 H1981 0.930 . S
C1987 C1983 1.400 . S
C1987 C1986 1.385 . S
C1988 C1986 1.478 . S
C1988 C1990 1.381 . S
C1988 C1994 1.383 . S
C1989 C1985 1.495 . S
C1989 H1995 0.959 . S
C1989 H1996 0.961 . S
C1989 H1997 0.960 . S
C1990 C1988 1.381 . S
C1990 C1991 1.394 . S
C1990 H1998 0.930 . S
C1991 C1990 1.394 . S
C1991 C1992 1.383 . S
C1991 H1999 0.929 . S
C1992 C1991 1.383 . S
C1992 C1993 1.377 . S
C1993 H1977 0.930 . S
C1993 C1992 1.377 . S
C1993 C1994 1.379 . S
C1994 H1978 0.931 . S
C1994 C1988 1.383 . S
C1994 C1993 1.379 . S
H1995 C1989 0.959 . S
H1996 C1989 0.961 . S
H1997 C1989 0.960 . S
H1998 C1990 0.930 . S
H1999 C1991 0.929 . S
H2000 C2008 0.929 . S
H2001 C2010 0.930 . S
H2002 C2012 0.930 . S
H2003 C2015 0.929 . S
H2004 C2018 0.930 . S
H2005 C2020 0.960 . S
H2006 C2020 0.960 . S
H2007 C2020 0.960 . S
C2008 H2000 0.929 . S
C2008 C2009 1.377 . S
C2008 C2010 1.384 . S
C2009 C2008 1.377 . S
C2009 C2015 1.390 . S
C2010 H2001 0.930 . S
C2010 C2008 1.384 . S
C2010 C2011 1.372 . S
C2011 C2010 1.372 . S
C2011 C2012 1.400 . S
C2011 C2016 1.490 . S
C2012 H2002 0.930 . S
C2012 C2011 1.400 . S
C2012 C2015 1.386 . S
H2013 C2029 0.930 . S
H2014 C2030 0.931 . S
C2015 H2003 0.929 . S
C2015 C2009 1.390 . S
C2015 C2012 1.386 . S
C2016 C2011 1.490 . S
C2016 C2018 1.395 . S
C2016 C2019 1.403 1_565 S
H2017 C2023 0.930 . S
C2018 H2004 0.930 . S
C2018 C2016 1.395 . S
C2018 C2021 1.403 . S
C2019 C2016 1.403 1_545 S
C2019 C2020 1.524 . S
C2019 C2023 1.400 . S
C2020 H2005 0.960 . S
C2020 H2006 0.960 . S
C2020 H2007 0.960 . S
C2020 C2019 1.524 . S
C2021 C2018 1.403 . S
C2021 C2022 1.392 . S
C2021 C2025 1.495 . S
C2022 C2021 1.392 . S
C2022 C2023 1.385 1_565 S
C2022 C2024 1.478 . S
C2023 H2017 0.930 . S
C2023 C2019 1.400 . S
C2023 C2022 1.385 1_545 S
C2024 C2022 1.478 . S
C2024 C2026 1.381 . S
C2024 C2030 1.383 . S
C2025 C2021 1.495 . S
C2025 H2031 0.959 . S
C2025 H2032 0.961 . S
C2025 H2033 0.960 . S
C2026 C2024 1.381 . S
C2026 C2027 1.394 . S
C2026 H2034 0.930 . S
C2027 C2026 1.394 . S
C2027 C2028 1.383 . S
C2027 H2035 0.929 . S
C2028 C2027 1.383 . S
C2028 C2029 1.377 . S
C2029 H2013 0.930 . S
C2029 C2028 1.377 . S
C2029 C2030 1.379 . S
C2030 H2014 0.931 . S
C2030 C2024 1.383 . S
C2030 C2029 1.379 . S
H2031 C2025 0.959 . S
H2032 C2025 0.961 . S
H2033 C2025 0.960 . S
H2034 C2026 0.930 . S
H2035 C2027 0.929 . S
H2036 C2044 0.929 . S
H2037 C2046 0.930 . S
H2038 C2048 0.930 . S
H2039 C2051 0.929 . S
H2040 C2054 0.930 . S
H2041 C2056 0.960 . S
H2042 C2056 0.960 . S
H2043 C2056 0.960 . S
C2044 H2036 0.929 . S
C2044 C2045 1.377 . S
C2044 C2046 1.384 . S
C2045 C2044 1.377 . S
C2045 C2051 1.390 . S
C2046 H2037 0.930 . S
C2046 C2044 1.384 . S
C2046 C2047 1.372 . S
C2047 C2046 1.372 . S
C2047 C2048 1.400 . S
C2047 C2052 1.490 . S
C2048 H2038 0.930 . S
C2048 C2047 1.400 . S
C2048 C2051 1.386 . S
H2049 C2065 0.930 . S
H2050 C2066 0.931 . S
C2051 H2039 0.929 . S
C2051 C2045 1.390 . S
C2051 C2048 1.386 . S
C2052 C2047 1.490 . S
C2052 C2054 1.395 . S
C2052 C2055 1.403 . S
H2053 C2059 0.930 . S
C2054 H2040 0.930 . S
C2054 C2052 1.395 . S
C2054 C2057 1.403 . S
C2055 C2052 1.403 . S
C2055 C2056 1.524 . S
C2055 C2059 1.400 . S
C2056 H2041 0.960 . S
C2056 H2042 0.960 . S
C2056 H2043 0.960 . S
C2056 C2055 1.524 . S
C2057 C2054 1.403 . S
C2057 C2058 1.392 . S
C2057 C2061 1.495 . S
C2058 C2057 1.392 . S
C2058 C2059 1.385 . S
C2058 C2060 1.478 . S
C2059 H2053 0.930 . S
C2059 C2055 1.400 . S
C2059 C2058 1.385 . S
C2060 C2058 1.478 . S
C2060 C2062 1.381 . S
C2060 C2066 1.383 . S
C2061 C2057 1.495 . S
C2061 H2067 0.959 . S
C2061 H2068 0.961 . S
C2061 H2069 0.960 . S
C2062 C2060 1.381 . S
C2062 C2063 1.394 . S
C2062 H2070 0.930 . S
C2063 C2062 1.394 . S
C2063 C2064 1.383 . S
C2063 H2071 0.929 . S
C2064 C2063 1.383 . S
C2064 C2065 1.377 . S
C2065 H2049 0.930 . S
C2065 C2064 1.377 . S
C2065 C2066 1.379 . S
C2066 H2050 0.931 . S
C2066 C2060 1.383 . S
C2066 C2065 1.379 . S
H2067 C2061 0.959 . S
H2068 C2061 0.961 . S
H2069 C2061 0.960 . S
H2070 C2062 0.930 . S
H2071 C2063 0.929 . S
H2072 C2080 0.929 . S
H2073 C2082 0.930 . S
H2074 C2084 0.930 . S
H2075 C2087 0.929 . S
H2076 C2090 0.929 1_565 S
H2077 C2092 0.960 . S
H2078 C2092 0.960 1_565 S
H2079 C2092 0.960 . S
C2080 H2072 0.929 . S
C2080 C2081 1.377 1_565 S
C2080 C2082 1.384 . S
C2081 C2080 1.377 1_545 S
C2081 C2087 1.390 . S
C2082 H2073 0.930 . S
C2082 C2080 1.384 . S
C2082 C2083 1.372 1_565 S
C2083 C2082 1.372 1_545 S
C2083 C2084 1.400 . S
C2083 C2088 1.490 . S
C2084 H2074 0.930 . S
C2084 C2083 1.400 . S
C2084 C2087 1.386 . S
H2085 C2101 0.930 . S
H2086 C2102 0.931 . S
C2087 H2075 0.929 . S
C2087 C2081 1.390 . S
C2087 C2084 1.386 . S
C2088 C2083 1.490 . S
C2088 C2090 1.395 . S
C2088 C2091 1.403 . S
H2089 C2095 0.930 . S
C2090 H2076 0.929 1_545 S
C2090 C2088 1.395 . S
C2090 C2093 1.403 . S
C2091 C2088 1.403 . S
C2091 C2092 1.524 . S
C2091 C2095 1.400 . S
C2092 H2077 0.960 . S
C2092 H2078 0.960 1_545 S
C2092 H2079 0.960 . S
C2092 C2091 1.524 . S
C2093 C2090 1.403 . S
C2093 C2094 1.392 . S
C2093 C2097 1.490 1_545 S
C2094 C2093 1.392 . S
C2094 C2095 1.385 . S
C2094 C2096 1.478 . S
C2095 H2089 0.930 . S
C2095 C2091 1.400 . S
C2095 C2094 1.385 . S
C2096 C2094 1.478 . S
C2096 C2098 1.381 1_545 S
C2096 C2102 1.383 . S
C2097 C2093 1.490 1_565 S
C2097 H2103 0.966 . S
C2097 H2104 0.922 1_565 S
C2097 H2105 1.000 . S
C2098 C2096 1.381 1_565 S
C2098 C2099 1.394 . S
C2098 H2106 0.930 . S
C2099 C2098 1.394 . S
C2099 C2100 1.383 1_565 S
C2099 H2107 0.929 . S
C2100 C2099 1.383 1_545 S
C2100 C2101 1.377 . S
C2101 H2085 0.930 . S
C2101 C2100 1.377 . S
C2101 C2102 1.379 . S
C2102 H2086 0.931 . S
C2102 C2096 1.383 . S
C2102 C2101 1.379 . S
H2103 C2097 0.966 . S
H2104 C2097 0.922 1_545 S
H2105 C2097 1.000 . S
H2106 C2098 0.930 . S
H2107 C2099 0.929 . S
H2108 C2116 0.929 . S
H2109 C2118 0.930 . S
H2110 C2120 0.930 . S
H2111 C2123 0.929 . S
H2112 C2126 0.930 . S
H2113 C2128 0.960 . S
H2114 C2128 0.960 . S
H2115 C2128 0.960 . S
C2116 H2108 0.929 . S
C2116 C2117 1.377 . S
C2116 C2118 1.384 . S
C2117 C2116 1.377 . S
C2117 C2123 1.390 . S
C2118 H2109 0.930 . S
C2118 C2116 1.384 . S
C2118 C2119 1.372 . S
C2119 C2118 1.372 . S
C2119 C2120 1.400 . S
C2119 C2124 1.490 . S
C2120 H2110 0.930 . S
C2120 C2119 1.400 . S
C2120 C2123 1.386 . S
H2121 C2137 0.930 . S
H2122 C2138 0.931 . S
C2123 H2111 0.929 . S
C2123 C2117 1.390 . S
C2123 C2120 1.386 . S
C2124 C2119 1.490 . S
C2124 C2126 1.395 . S
C2124 C2127 1.403 . S
H2125 C2131 0.930 . S
C2126 H2112 0.930 . S
C2126 C2124 1.395 . S
C2126 C2129 1.403 . S
C2127 C2124 1.403 . S
C2127 C2128 1.524 . S
C2127 C2131 1.400 . S
C2128 H2113 0.960 . S
C2128 H2114 0.960 . S
C2128 H2115 0.960 . S
C2128 C2127 1.524 . S
C2129 C2126 1.403 . S
C2129 C2130 1.392 . S
C2129 C2133 1.495 . S
C2130 C2129 1.392 . S
C2130 C2131 1.385 . S
C2130 C2132 1.478 . S
C2131 H2125 0.930 . S
C2131 C2127 1.400 . S
C2131 C2130 1.385 . S
C2132 C2130 1.478 . S
C2132 C2134 1.381 . S
C2132 C2138 1.383 . S
C2133 C2129 1.495 . S
C2133 H2139 0.959 . S
C2133 H2140 0.961 . S
C2133 H2141 0.960 . S
C2134 C2132 1.381 . S
C2134 C2135 1.394 . S
C2134 H2142 0.930 . S
C2135 C2134 1.394 . S
C2135 C2136 1.383 . S
C2135 H2143 0.929 . S
C2136 C2135 1.383 . S
C2136 C2137 1.377 . S
C2137 H2121 0.930 . S
C2137 C2136 1.377 . S
C2137 C2138 1.379 . S
C2138 H2122 0.931 . S
C2138 C2132 1.383 . S
C2138 C2137 1.379 . S
H2139 C2133 0.959 . S
H2140 C2133 0.961 . S
H2141 C2133 0.960 . S
H2142 C2134 0.930 . S
H2143 C2135 0.929 . S
H2144 C2152 0.929 . S
H2145 C2154 0.930 . S
H2146 C2156 0.930 . S
H2147 C2159 0.929 . S
H2148 C2162 0.930 . S
H2149 C2164 0.960 . S
H2150 C2164 0.960 . S
H2151 C2164 0.960 . S
C2152 H2144 0.929 . S
C2152 C2153 1.377 . S
C2152 C2154 1.384 . S
C2153 C2152 1.377 . S
C2153 C2159 1.390 . S
C2154 H2145 0.930 . S
C2154 C2152 1.384 . S
C2154 C2155 1.372 . S
C2155 C2154 1.372 . S
C2155 C2156 1.400 . S
C2155 C2160 1.490 . S
C2156 H2146 0.930 . S
C2156 C2155 1.400 . S
C2156 C2159 1.386 . S
H2157 C2173 0.930 . S
H2158 C2174 0.931 . S
C2159 H2147 0.929 . S
C2159 C2153 1.390 . S
C2159 C2156 1.386 . S
C2160 C2155 1.490 . S
C2160 C2162 1.395 . S
C2160 C2163 1.403 . S
H2161 C2167 0.930 . S
C2162 H2148 0.930 . S
C2162 C2160 1.395 . S
C2162 C2165 1.403 . S
C2163 C2160 1.403 . S
C2163 C2164 1.524 . S
C2163 C2167 1.400 . S
C2164 H2149 0.960 . S
C2164 H2150 0.960 . S
C2164 H2151 0.960 . S
C2164 C2163 1.524 . S
C2165 C2162 1.403 . S
C2165 C2166 1.392 . S
C2165 C2169 1.495 . S
C2166 C2165 1.392 . S
C2166 C2167 1.385 . S
C2166 C2168 1.478 . S
C2167 H2161 0.930 . S
C2167 C2163 1.400 . S
C2167 C2166 1.385 . S
C2168 C2166 1.478 . S
C2168 C2170 1.381 . S
C2168 C2174 1.383 . S
C2169 C2165 1.495 . S
C2169 H2175 0.959 . S
C2169 H2176 0.961 . S
C2169 H2177 0.960 . S
C2170 C2168 1.381 . S
C2170 C2171 1.394 . S
C2170 H2178 0.930 . S
C2171 C2170 1.394 . S
C2171 C2172 1.383 . S
C2171 H2179 0.929 . S
C2172 C2171 1.383 . S
C2172 C2173 1.377 . S
C2173 H2157 0.930 . S
C2173 C2172 1.377 . S
C2173 C2174 1.379 . S
C2174 H2158 0.931 . S
C2174 C2168 1.383 . S
C2174 C2173 1.379 . S
H2175 C2169 0.959 . S
H2176 C2169 0.961 . S
H2177 C2169 0.960 . S
H2178 C2170 0.930 . S
H2179 C2171 0.929 . S
H2180 C2188 0.929 . S
H2181 C2190 0.930 . S
H2182 C2192 0.930 . S
H2183 C2195 0.929 . S
H2184 C2198 0.930 . S
H2185 C2200 0.960 . S
H2186 C2200 0.960 . S
H2187 C2200 0.960 . S
C2188 H2180 0.929 . S
C2188 C2189 1.377 . S
C2188 C2190 1.384 . S
C2189 C2188 1.377 . S
C2189 C2195 1.390 . S
C2190 H2181 0.930 . S
C2190 C2188 1.384 . S
C2190 C2191 1.372 . S
C2191 C2190 1.372 . S
C2191 C2192 1.400 . S
C2191 C2196 1.490 . S
C2192 H2182 0.930 . S
C2192 C2191 1.400 . S
C2192 C2195 1.386 . S
H2193 C2209 0.930 . S
H2194 C2210 0.931 . S
C2195 H2183 0.929 . S
C2195 C2189 1.390 . S
C2195 C2192 1.386 . S
C2196 C2191 1.490 . S
C2196 C2198 1.395 . S
C2196 C2199 1.403 . S
H2197 C2203 0.930 . S
C2198 H2184 0.930 . S
C2198 C2196 1.395 . S
C2198 C2201 1.403 . S
C2199 C2196 1.403 . S
C2199 C2200 1.524 . S
C2199 C2203 1.400 . S
C2200 H2185 0.960 . S
C2200 H2186 0.960 . S
C2200 H2187 0.960 . S
C2200 C2199 1.524 . S
C2201 C2198 1.403 . S
C2201 C2202 1.392 . S
C2201 C2205 1.495 . S
C2202 C2201 1.392 . S
C2202 C2203 1.385 . S
C2202 C2204 1.478 . S
C2203 H2197 0.930 . S
C2203 C2199 1.400 . S
C2203 C2202 1.385 . S
C2204 C2202 1.478 . S
C2204 C2206 1.381 . S
C2204 C2210 1.383 . S
C2205 C2201 1.495 . S
C2205 H2211 0.959 . S
C2205 H2212 0.961 . S
C2205 H2213 0.960 . S
C2206 C2204 1.381 . S
C2206 C2207 1.394 . S
C2206 H2214 0.930 . S
C2207 C2206 1.394 . S
C2207 C2208 1.383 . S
C2207 H2215 0.929 . S
C2208 C2207 1.383 . S
C2208 C2209 1.377 . S
C2209 H2193 0.930 . S
C2209 C2208 1.377 . S
C2209 C2210 1.379 . S
C2210 H2194 0.931 . S
C2210 C2204 1.383 . S
C2210 C2209 1.379 . S
H2211 C2205 0.959 . S
H2212 C2205 0.961 . S
H2213 C2205 0.960 . S
H2214 C2206 0.930 . S
H2215 C2207 0.929 . S
H2216 C2224 0.929 . S
H2217 C2226 0.930 . S
H2218 C2228 0.930 . S
H2219 C2231 0.929 . S
H2220 C2234 0.930 . S
H2221 C2236 0.960 . S
H2222 C2236 0.960 . S
H2223 C2236 0.960 . S
C2224 H2216 0.929 . S
C2224 C2225 1.377 . S
C2224 C2226 1.384 . S
C2225 C2224 1.377 . S
C2225 C2231 1.390 . S
C2226 H2217 0.930 . S
C2226 C2224 1.384 . S
C2226 C2227 1.372 . S
C2227 C2226 1.372 . S
C2227 C2228 1.400 . S
C2227 C2232 1.490 . S
C2228 H2218 0.930 . S
C2228 C2227 1.400 . S
C2228 C2231 1.386 . S
H2229 C2245 0.930 . S
H2230 C2246 0.931 . S
C2231 H2219 0.929 . S
C2231 C2225 1.390 . S
C2231 C2228 1.386 . S
C2232 C2227 1.490 . S
C2232 C2234 1.395 . S
C2232 C2235 1.403 . S
H2233 C2239 0.930 . S
C2234 H2220 0.930 . S
C2234 C2232 1.395 . S
C2234 C2237 1.403 . S
C2235 C2232 1.403 . S
C2235 C2236 1.524 . S
C2235 C2239 1.400 . S
C2236 H2221 0.960 . S
C2236 H2222 0.960 . S
C2236 H2223 0.960 . S
C2236 C2235 1.524 . S
C2237 C2234 1.403 . S
C2237 C2238 1.392 . S
C2237 C2241 1.495 . S
C2238 C2237 1.392 . S
C2238 C2239 1.385 . S
C2238 C2240 1.478 . S
C2239 H2233 0.930 . S
C2239 C2235 1.400 . S
C2239 C2238 1.385 . S
C2240 C2238 1.478 . S
C2240 C2242 1.381 . S
C2240 C2246 1.383 . S
C2241 C2237 1.495 . S
C2241 H2247 0.959 . S
C2241 H2248 0.961 . S
C2241 H2249 0.960 . S
C2242 C2240 1.381 . S
C2242 C2243 1.394 . S
C2242 H2250 0.930 . S
C2243 C2242 1.394 . S
C2243 C2244 1.383 . S
C2243 H2251 0.929 . S
C2244 C2243 1.383 . S
C2244 C2245 1.377 . S
C2245 H2229 0.930 . S
C2245 C2244 1.377 . S
C2245 C2246 1.379 . S
C2246 H2230 0.931 . S
C2246 C2240 1.383 . S
C2246 C2245 1.379 . S
H2247 C2241 0.959 . S
H2248 C2241 0.961 . S
H2249 C2241 0.960 . S
H2250 C2242 0.930 . S
H2251 C2243 0.929 . S
H2252 C2260 0.929 . S
H2253 C2262 0.930 . S
H2254 C2264 0.930 . S
H2255 C2267 0.929 . S
H2256 C2270 0.930 . S
H2257 C2272 0.960 . S
H2258 C2272 0.960 . S
H2259 C2272 0.960 . S
C2260 H2252 0.929 . S
C2260 C2261 1.377 . S
C2260 C2262 1.384 . S
C2261 C2260 1.377 . S
C2261 C2267 1.390 . S
C2262 H2253 0.930 . S
C2262 C2260 1.384 . S
C2262 C2263 1.372 . S
C2263 C2262 1.372 . S
C2263 C2264 1.400 . S
C2263 C2268 1.490 . S
C2264 H2254 0.930 . S
C2264 C2263 1.400 . S
C2264 C2267 1.386 . S
H2265 C2281 0.930 . S
H2266 C2282 0.931 . S
C2267 H2255 0.929 . S
C2267 C2261 1.390 . S
C2267 C2264 1.386 . S
C2268 C2263 1.490 . S
C2268 C2270 1.395 . S
C2268 C2271 1.403 . S
H2269 C2275 0.930 . S
C2270 H2256 0.930 . S
C2270 C2268 1.395 . S
C2270 C2273 1.403 . S
C2271 C2268 1.403 . S
C2271 C2272 1.524 . S
C2271 C2275 1.400 . S
C2272 H2257 0.960 . S
C2272 H2258 0.960 . S
C2272 H2259 0.960 . S
C2272 C2271 1.524 . S
C2273 C2270 1.403 . S
C2273 C2274 1.392 . S
C2273 C2277 1.495 . S
C2274 C2273 1.392 . S
C2274 C2275 1.385 . S
C2274 C2276 1.478 . S
C2275 H2269 0.930 . S
C2275 C2271 1.400 . S
C2275 C2274 1.385 . S
C2276 C2274 1.478 . S
C2276 C2278 1.381 . S
C2276 C2282 1.383 . S
C2277 C2273 1.495 . S
C2277 H2283 0.959 . S
C2277 H2284 0.961 . S
C2277 H2285 0.960 . S
C2278 C2276 1.381 . S
C2278 C2279 1.394 . S
C2278 H2286 0.930 . S
C2279 C2278 1.394 . S
C2279 C2280 1.383 . S
C2279 H2287 0.929 . S
C2280 C2279 1.383 . S
C2280 C2281 1.377 . S
C2281 H2265 0.930 . S
C2281 C2280 1.377 . S
C2281 C2282 1.379 . S
C2282 H2266 0.931 . S
C2282 C2276 1.383 . S
C2282 C2281 1.379 . S
H2283 C2277 0.959 . S
H2284 C2277 0.961 . S
H2285 C2277 0.960 . S
H2286 C2278 0.930 . S
H2287 C2279 0.929 . S
H2288 C2296 0.929 . S
H2289 C2298 0.930 . S
H2290 C2300 0.930 . S
H2291 C2303 0.929 . S
H2292 C2306 0.927 1_545 S
H2293 C2308 0.960 . S
H2294 C2308 0.960 . S
H2295 C2308 0.960 . S
C2296 H2288 0.929 . S
C2296 C2297 1.377 . S
C2296 C2298 1.384 . S
C2297 C2296 1.377 . S
C2297 C2303 1.390 1_565 S
C2298 H2289 0.930 . S
C2298 C2296 1.384 . S
C2298 C2299 1.372 . S
C2299 C2298 1.372 . S
C2299 C2300 1.400 1_565 S
C2299 C2304 1.490 . S
C2300 H2290 0.930 . S
C2300 C2299 1.400 1_545 S
C2300 C2303 1.386 . S
H2301 C2317 0.930 . S
H2302 C2318 0.931 . S
C2303 H2291 0.929 . S
C2303 C2297 1.390 1_545 S
C2303 C2300 1.386 . S
C2304 C2299 1.490 . S
C2304 C2306 1.398 . S
C2304 C2307 1.403 . S
H2305 C2311 0.930 . S
C2306 H2292 0.927 1_565 S
C2306 C2304 1.398 . S
C2306 C2309 1.402 1_565 S
C2307 C2304 1.403 . S
C2307 C2308 1.524 . S
C2307 C2311 1.400 . S
C2308 H2293 0.960 . S
C2308 H2294 0.960 . S
C2308 H2295 0.960 . S
C2308 C2307 1.524 . S
C2309 C2306 1.402 1_545 S
C2309 C2310 1.385 1_545 S
C2309 C2313 1.504 . S
C2310 C2309 1.385 1_565 S
C2310 C2311 1.385 . S
C2310 C2312 1.478 . S
C2311 H2305 0.930 . S
C2311 C2307 1.400 . S
C2311 C2310 1.385 . S
C2312 C2310 1.478 . S
C2312 C2314 1.381 . S
C2312 C2318 1.383 1_565 S
C2313 C2309 1.504 . S
C2313 H2319 0.959 . S
C2313 H2320 0.961 . S
C2313 H2321 0.960 1_545 S
C2314 C2312 1.381 . S
C2314 C2315 1.394 . S
C2314 H2322 0.930 . S
C2315 C2314 1.394 . S
C2315 C2316 1.383 . S
C2315 H2323 0.929 . S
C2316 C2315 1.383 . S
C2316 C2317 1.377 1_565 S
C2317 H2301 0.930 . S
C2317 C2316 1.377 1_545 S
C2317 C2318 1.379 . S
C2318 H2302 0.931 . S
C2318 C2312 1.383 1_545 S
C2318 C2317 1.379 . S
H2319 C2313 0.959 . S
H2320 C2313 0.961 . S
H2321 C2313 0.960 1_565 S
H2322 C2314 0.930 . S
H2323 C2315 0.929 . S
H2324 C2332 0.929 . S
H2325 C2334 0.930 . S
H2326 C2336 0.930 . S
H2327 C2339 0.929 . S
H2328 C2342 0.930 . S
H2329 C2344 0.960 . S
H2330 C2344 0.960 . S
H2331 C2344 0.960 . S
C2332 H2324 0.929 . S
C2332 C2333 1.377 . S
C2332 C2334 1.384 . S
C2333 C2332 1.377 . S
C2333 C2339 1.390 . S
C2334 H2325 0.930 . S
C2334 C2332 1.384 . S
C2334 C2335 1.372 . S
C2335 C2334 1.372 . S
C2335 C2336 1.400 . S
C2335 C2340 1.490 . S
C2336 H2326 0.930 . S
C2336 C2335 1.400 . S
C2336 C2339 1.386 . S
H2337 C2353 0.930 . S
H2338 C2354 0.931 . S
C2339 H2327 0.929 . S
C2339 C2333 1.390 . S
C2339 C2336 1.386 . S
C2340 C2335 1.490 . S
C2340 C2342 1.395 . S
C2340 C2343 1.403 . S
H2341 C2347 0.930 . S
C2342 H2328 0.930 . S
C2342 C2340 1.395 . S
C2342 C2345 1.403 . S
C2343 C2340 1.403 . S
C2343 C2344 1.524 . S
C2343 C2347 1.400 . S
C2344 H2329 0.960 . S
C2344 H2330 0.960 . S
C2344 H2331 0.960 . S
C2344 C2343 1.524 . S
C2345 C2342 1.403 . S
C2345 C2346 1.392 . S
C2345 C2349 1.495 . S
C2346 C2345 1.392 . S
C2346 C2347 1.385 . S
C2346 C2348 1.478 . S
C2347 H2341 0.930 . S
C2347 C2343 1.400 . S
C2347 C2346 1.385 . S
C2348 C2346 1.478 . S
C2348 C2350 1.381 . S
C2348 C2354 1.383 . S
C2349 C2345 1.495 . S
C2349 H2355 0.959 . S
C2349 H2356 0.961 . S
C2349 H2357 0.960 . S
C2350 C2348 1.381 . S
C2350 C2351 1.394 . S
C2350 H2358 0.930 . S
C2351 C2350 1.394 . S
C2351 C2352 1.383 . S
C2351 H2359 0.929 . S
C2352 C2351 1.383 . S
C2352 C2353 1.377 . S
C2353 H2337 0.930 . S
C2353 C2352 1.377 . S
C2353 C2354 1.379 . S
C2354 H2338 0.931 . S
C2354 C2348 1.383 . S
C2354 C2353 1.379 . S
H2355 C2349 0.959 . S
H2356 C2349 0.961 . S
H2357 C2349 0.960 . S
H2358 C2350 0.930 . S
H2359 C2351 0.929 . S
H2360 C2368 0.929 . S
H2361 C2370 0.930 . S
H2362 C2372 0.930 . S
H2363 C2375 0.929 . S
H2364 C2378 0.930 . S
H2365 C2380 0.960 . S
H2366 C2380 0.960 . S
H2367 C2380 0.960 . S
C2368 H2360 0.929 . S
C2368 C2369 1.377 1_565 S
C2368 C2370 1.384 . S
C2369 C2368 1.377 1_545 S
C2369 C2375 1.390 . S
C2370 H2361 0.930 . S
C2370 C2368 1.384 . S
C2370 C2371 1.372 1_565 S
C2371 C2370 1.372 1_545 S
C2371 C2372 1.400 . S
C2371 C2376 1.490 . S
C2372 H2362 0.930 . S
C2372 C2371 1.400 . S
C2372 C2375 1.386 . S
H2373 C2389 0.930 . S
H2374 C2390 0.931 . S
C2375 H2363 0.929 . S
C2375 C2369 1.390 . S
C2375 C2372 1.386 . S
C2376 C2371 1.490 . S
C2376 C2378 1.395 1_545 S
C2376 C2379 1.403 . S
H2377 C2383 0.930 . S
C2378 H2364 0.930 . S
C2378 C2376 1.395 1_565 S
C2378 C2381 1.403 . S
C2379 C2376 1.403 . S
C2379 C2380 1.524 . S
C2379 C2383 1.400 . S
C2380 H2365 0.960 . S
C2380 H2366 0.960 . S
C2380 H2367 0.960 . S
C2380 C2379 1.524 . S
C2381 C2378 1.403 . S
C2381 C2382 1.392 1_565 S
C2381 C2385 1.495 . S
C2382 C2381 1.392 1_545 S
C2382 C2383 1.385 . S
C2382 C2384 1.478 . S
C2383 H2377 0.930 . S
C2383 C2379 1.400 . S
C2383 C2382 1.385 . S
C2384 C2382 1.478 . S
C2384 C2386 1.381 1_545 S
C2384 C2390 1.383 . S
C2385 C2381 1.495 . S
C2385 H2391 0.959 . S
C2385 H2392 0.961 . S
C2385 H2393 0.960 . S
C2386 C2384 1.381 1_565 S
C2386 C2387 1.394 . S
C2386 H2394 0.930 . S
C2387 C2386 1.394 . S
C2387 C2388 1.383 1_565 S
C2387 H2395 0.929 . S
C2388 C2387 1.383 1_545 S
C2388 C2389 1.377 . S
C2389 H2373 0.930 . S
C2389 C2388 1.377 . S
C2389 C2390 1.379 . S
C2390 H2374 0.931 . S
C2390 C2384 1.383 . S
C2390 C2389 1.379 . S
H2391 C2385 0.959 . S
H2392 C2385 0.961 . S
H2393 C2385 0.960 . S
H2394 C2386 0.930 . S
H2395 C2387 0.929 . S
H2396 C2404 0.929 . S
H2397 C2406 0.930 . S
H2398 C2408 0.930 . S
H2399 C2411 0.929 . S
H2400 C2414 0.930 . S
H2401 C2416 0.960 . S
H2402 C2416 0.960 . S
H2403 C2416 0.960 . S
C2404 H2396 0.929 . S
C2404 C2405 1.377 . S
C2404 C2406 1.384 . S
C2405 C2404 1.377 . S
C2405 C2411 1.390 . S
C2406 H2397 0.930 . S
C2406 C2404 1.384 . S
C2406 C2407 1.372 . S
C2407 C2406 1.372 . S
C2407 C2408 1.400 . S
C2407 C2412 1.490 . S
C2408 H2398 0.930 . S
C2408 C2407 1.400 . S
C2408 C2411 1.386 . S
H2409 C2425 0.930 . S
H2410 C2426 0.931 . S
C2411 H2399 0.929 . S
C2411 C2405 1.390 . S
C2411 C2408 1.386 . S
C2412 C2407 1.490 . S
C2412 C2414 1.395 . S
C2412 C2415 1.403 . S
H2413 C2419 0.930 . S
C2414 H2400 0.930 . S
C2414 C2412 1.395 . S
C2414 C2417 1.403 . S
C2415 C2412 1.403 . S
C2415 C2416 1.524 . S
C2415 C2419 1.400 . S
C2416 H2401 0.960 . S
C2416 H2402 0.960 . S
C2416 H2403 0.960 . S
C2416 C2415 1.524 . S
C2417 C2414 1.403 . S
C2417 C2418 1.392 . S
C2417 C2421 1.495 . S
C2418 C2417 1.392 . S
C2418 C2419 1.385 . S
C2418 C2420 1.478 . S
C2419 H2413 0.930 . S
C2419 C2415 1.400 . S
C2419 C2418 1.385 . S
C2420 C2418 1.478 . S
C2420 C2422 1.381 . S
C2420 C2426 1.383 . S
C2421 C2417 1.495 . S
C2421 H2427 0.959 . S
C2421 H2428 0.961 . S
C2421 H2429 0.960 . S
C2422 C2420 1.381 . S
C2422 C2423 1.394 . S
C2422 H2430 0.930 . S
C2423 C2422 1.394 . S
C2423 C2424 1.383 . S
C2423 H2431 0.929 . S
C2424 C2423 1.383 . S
C2424 C2425 1.377 . S
C2425 H2409 0.930 . S
C2425 C2424 1.377 . S
C2425 C2426 1.379 . S
C2426 H2410 0.931 . S
C2426 C2420 1.383 . S
C2426 C2425 1.379 . S
H2427 C2421 0.959 . S
H2428 C2421 0.961 . S
H2429 C2421 0.960 . S
H2430 C2422 0.930 . S
H2431 C2423 0.929 . S
H2432 C2440 0.929 . S
H2433 C2442 0.930 . S
H2434 C2444 0.930 . S
H2435 C2447 0.929 . S
H2436 C2450 0.930 . S
H2437 C2452 0.960 . S
H2438 C2452 0.960 . S
H2439 C2452 0.960 . S
C2440 H2432 0.929 . S
C2440 C2441 1.377 . S
C2440 C2442 1.384 . S
C2441 C2440 1.377 . S
C2441 C2447 1.390 . S
C2442 H2433 0.930 . S
C2442 C2440 1.384 . S
C2442 C2443 1.372 . S
C2443 C2442 1.372 . S
C2443 C2444 1.400 . S
C2443 C2448 1.490 . S
C2444 H2434 0.930 . S
C2444 C2443 1.400 . S
C2444 C2447 1.386 . S
H2445 C2461 0.930 . S
H2446 C2462 0.931 . S
C2447 H2435 0.929 . S
C2447 C2441 1.390 . S
C2447 C2444 1.386 . S
C2448 C2443 1.490 . S
C2448 C2450 1.395 . S
C2448 C2451 1.403 . S
H2449 C2455 0.930 . S
C2450 H2436 0.930 . S
C2450 C2448 1.395 . S
C2450 C2453 1.403 . S
C2451 C2448 1.403 . S
C2451 C2452 1.524 . S
C2451 C2455 1.400 . S
C2452 H2437 0.960 . S
C2452 H2438 0.960 . S
C2452 H2439 0.960 . S
C2452 C2451 1.524 . S
C2453 C2450 1.403 . S
C2453 C2454 1.392 . S
C2453 C2457 1.495 . S
C2454 C2453 1.392 . S
C2454 C2455 1.385 . S
C2454 C2456 1.478 . S
C2455 H2449 0.930 . S
C2455 C2451 1.400 . S
C2455 C2454 1.385 . S
C2456 C2454 1.478 . S
C2456 C2458 1.381 . S
C2456 C2462 1.383 . S
C2457 C2453 1.495 . S
C2457 H2463 0.959 . S
C2457 H2464 0.961 . S
C2457 H2465 0.960 . S
C2458 C2456 1.381 . S
C2458 C2459 1.394 . S
C2458 H2466 0.930 . S
C2459 C2458 1.394 . S
C2459 C2460 1.383 . S
C2459 H2467 0.929 . S
C2460 C2459 1.383 . S
C2460 C2461 1.377 . S
C2461 H2445 0.930 . S
C2461 C2460 1.377 . S
C2461 C2462 1.379 . S
C2462 H2446 0.931 . S
C2462 C2456 1.383 . S
C2462 C2461 1.379 . S
H2463 C2457 0.959 . S
H2464 C2457 0.961 . S
H2465 C2457 0.960 . S
H2466 C2458 0.930 . S
H2467 C2459 0.929 . S
H2468 C2476 0.929 . S
H2469 C2478 0.930 . S
H2470 C2480 0.930 . S
H2471 C2483 0.929 . S
H2472 C2486 0.930 . S
H2473 C2488 0.960 . S
H2474 C2488 0.960 . S
H2475 C2488 0.960 . S
C2476 H2468 0.929 . S
C2476 C2477 1.377 . S
C2476 C2478 1.384 . S
C2477 C2476 1.377 . S
C2477 C2483 1.390 . S
C2478 H2469 0.930 . S
C2478 C2476 1.384 . S
C2478 C2479 1.372 . S
C2479 C2478 1.372 . S
C2479 C2480 1.400 . S
C2479 C2484 1.490 . S
C2480 H2470 0.930 . S
C2480 C2479 1.400 . S
C2480 C2483 1.386 . S
H2481 C2497 0.930 . S
H2482 C2498 0.931 . S
C2483 H2471 0.929 . S
C2483 C2477 1.390 . S
C2483 C2480 1.386 . S
C2484 C2479 1.490 . S
C2484 C2486 1.395 . S
C2484 C2487 1.403 . S
H2485 C2491 0.930 . S
C2486 H2472 0.930 . S
C2486 C2484 1.395 . S
C2486 C2489 1.403 . S
C2487 C2484 1.403 . S
C2487 C2488 1.524 . S
C2487 C2491 1.400 . S
C2488 H2473 0.960 . S
C2488 H2474 0.960 . S
C2488 H2475 0.960 . S
C2488 C2487 1.524 . S
C2489 C2486 1.403 . S
C2489 C2490 1.392 . S
C2489 C2493 1.495 . S
C2490 C2489 1.392 . S
C2490 C2491 1.385 . S
C2490 C2492 1.478 . S
C2491 H2485 0.930 . S
C2491 C2487 1.400 . S
C2491 C2490 1.385 . S
C2492 C2490 1.478 . S
C2492 C2494 1.381 . S
C2492 C2498 1.383 . S
C2493 C2489 1.495 . S
C2493 H2499 0.959 . S
C2493 H2500 0.961 . S
C2493 H2501 0.960 . S
C2494 C2492 1.381 . S
C2494 C2495 1.394 . S
C2494 H2502 0.930 . S
C2495 C2494 1.394 . S
C2495 C2496 1.383 . S
C2495 H2503 0.929 . S
C2496 C2495 1.383 . S
C2496 C2497 1.377 . S
C2497 H2481 0.930 . S
C2497 C2496 1.377 . S
C2497 C2498 1.379 . S
C2498 H2482 0.931 . S
C2498 C2492 1.383 . S
C2498 C2497 1.379 . S
H2499 C2493 0.959 . S
H2500 C2493 0.961 . S
H2501 C2493 0.960 . S
H2502 C2494 0.930 . S
H2503 C2495 0.929 . S
H2504 C2512 0.929 . S
H2505 C2514 0.930 . S
H2506 C2516 0.930 . S
H2507 C2519 0.929 . S
H2508 C2522 0.930 . S
H2509 C2524 0.960 . S
H2510 C2524 0.960 . S
H2511 C2524 0.960 . S
C2512 H2504 0.929 . S
C2512 C2513 1.377 . S
C2512 C2514 1.384 . S
C2513 C2512 1.377 . S
C2513 C2519 1.390 . S
C2514 H2505 0.930 . S
C2514 C2512 1.384 . S
C2514 C2515 1.372 . S
C2515 C2514 1.372 . S
C2515 C2516 1.400 . S
C2515 C2520 1.490 . S
C2516 H2506 0.930 . S
C2516 C2515 1.400 . S
C2516 C2519 1.386 . S
H2517 C2533 0.930 . S
H2518 C2534 0.931 . S
C2519 H2507 0.929 . S
C2519 C2513 1.390 . S
C2519 C2516 1.386 . S
C2520 C2515 1.490 . S
C2520 C2522 1.395 . S
C2520 C2523 1.403 . S
H2521 C2527 0.930 . S
C2522 H2508 0.930 . S
C2522 C2520 1.395 . S
C2522 C2525 1.403 . S
C2523 C2520 1.403 . S
C2523 C2524 1.524 . S
C2523 C2527 1.400 . S
C2524 H2509 0.960 . S
C2524 H2510 0.960 . S
C2524 H2511 0.960 . S
C2524 C2523 1.524 . S
C2525 C2522 1.403 . S
C2525 C2526 1.392 . S
C2525 C2529 1.495 . S
C2526 C2525 1.392 . S
C2526 C2527 1.385 . S
C2526 C2528 1.478 . S
C2527 H2521 0.930 . S
C2527 C2523 1.400 . S
C2527 C2526 1.385 . S
C2528 C2526 1.478 . S
C2528 C2530 1.381 . S
C2528 C2534 1.383 . S
C2529 C2525 1.495 . S
C2529 H2535 0.959 . S
C2529 H2536 0.961 . S
C2529 H2537 0.960 . S
C2530 C2528 1.381 . S
C2530 C2531 1.394 . S
C2530 H2538 0.930 . S
C2531 C2530 1.394 . S
C2531 C2532 1.383 . S
C2531 H2539 0.929 . S
C2532 C2531 1.383 . S
C2532 C2533 1.377 . S
C2533 H2517 0.930 . S
C2533 C2532 1.377 . S
C2533 C2534 1.379 . S
C2534 H2518 0.931 . S
C2534 C2528 1.383 . S
C2534 C2533 1.379 . S
H2535 C2529 0.959 . S
H2536 C2529 0.961 . S
H2537 C2529 0.960 . S
H2538 C2530 0.930 . S
H2539 C2531 0.929 . S
H2540 C2548 0.929 . S
H2541 C2550 0.930 . S
H2542 C2552 0.930 . S
H2543 C2555 0.929 . S
H2544 C2558 0.930 . S
H2545 C2560 0.960 . S
H2546 C2560 0.960 . S
H2547 C2560 0.960 . S
C2548 H2540 0.929 . S
C2548 C2549 1.377 . S
C2548 C2550 1.384 . S
C2549 C2548 1.377 . S
C2549 C2555 1.390 . S
C2550 H2541 0.930 . S
C2550 C2548 1.384 . S
C2550 C2551 1.372 . S
C2551 C2550 1.372 . S
C2551 C2552 1.400 . S
C2551 C2556 1.490 . S
C2552 H2542 0.930 . S
C2552 C2551 1.400 . S
C2552 C2555 1.386 . S
H2553 C2569 0.930 . S
H2554 C2570 0.931 . S
C2555 H2543 0.929 . S
C2555 C2549 1.390 . S
C2555 C2552 1.386 . S
C2556 C2551 1.490 . S
C2556 C2558 1.395 . S
C2556 C2559 1.403 . S
H2557 C2563 0.930 . S
C2558 H2544 0.930 . S
C2558 C2556 1.395 . S
C2558 C2561 1.403 . S
C2559 C2556 1.403 . S
C2559 C2560 1.524 . S
C2559 C2563 1.400 . S
C2560 H2545 0.960 . S
C2560 H2546 0.960 . S
C2560 H2547 0.960 . S
C2560 C2559 1.524 . S
C2561 C2558 1.403 . S
C2561 C2562 1.392 . S
C2561 C2565 1.495 . S
C2562 C2561 1.392 . S
C2562 C2563 1.385 . S
C2562 C2564 1.478 . S
C2563 H2557 0.930 . S
C2563 C2559 1.400 . S
C2563 C2562 1.385 . S
C2564 C2562 1.478 . S
C2564 C2566 1.381 . S
C2564 C2570 1.383 . S
C2565 C2561 1.495 . S
C2565 H2571 0.959 . S
C2565 H2572 0.961 . S
C2565 H2573 0.960 . S
C2566 C2564 1.381 . S
C2566 C2567 1.394 . S
C2566 H2574 0.930 . S
C2567 C2566 1.394 . S
C2567 C2568 1.383 . S
C2567 H2575 0.929 . S
C2568 C2567 1.383 . S
C2568 C2569 1.377 . S
C2569 H2553 0.930 . S
C2569 C2568 1.377 . S
C2569 C2570 1.379 . S
C2570 H2554 0.931 . S
C2570 C2564 1.383 . S
C2570 C2569 1.379 . S
H2571 C2565 0.959 . S
H2572 C2565 0.961 . S
H2573 C2565 0.960 . S
H2574 C2566 0.930 . S
H2575 C2567 0.929 . S
H2576 C2584 0.929 . S
H2577 C2586 0.930 . S
H2578 C2588 0.930 . S
H2579 C2591 0.929 . S
H2580 C2594 0.930 . S
H2581 C2596 0.960 . S
H2582 C2596 0.960 . S
H2583 C2596 0.960 . S
C2584 H2576 0.929 . S
C2584 C2585 1.377 . S
C2584 C2586 1.384 . S
C2585 C2584 1.377 . S
C2585 C2591 1.390 . S
C2586 H2577 0.930 . S
C2586 C2584 1.384 . S
C2586 C2587 1.372 . S
C2587 C2586 1.372 . S
C2587 C2588 1.400 . S
C2587 C2592 1.490 . S
C2588 H2578 0.930 . S
C2588 C2587 1.400 . S
C2588 C2591 1.386 . S
H2589 C2605 0.930 . S
H2590 C2606 0.931 . S
C2591 H2579 0.929 . S
C2591 C2585 1.390 . S
C2591 C2588 1.386 . S
C2592 C2587 1.490 . S
C2592 C2594 1.395 . S
C2592 C2595 1.403 . S
H2593 C2599 0.930 . S
C2594 H2580 0.930 . S
C2594 C2592 1.395 . S
C2594 C2597 1.403 . S
C2595 C2592 1.403 . S
C2595 C2596 1.524 . S
C2595 C2599 1.400 . S
C2596 H2581 0.960 . S
C2596 H2582 0.960 . S
C2596 H2583 0.960 . S
C2596 C2595 1.524 . S
C2597 C2594 1.403 . S
C2597 C2598 1.392 . S
C2597 C2601 1.495 . S
C2598 C2597 1.392 . S
C2598 C2599 1.385 . S
C2598 C2600 1.478 . S
C2599 H2593 0.930 . S
C2599 C2595 1.400 . S
C2599 C2598 1.385 . S
C2600 C2598 1.478 . S
C2600 C2602 1.381 . S
C2600 C2606 1.383 . S
C2601 C2597 1.495 . S
C2601 H2607 0.959 . S
C2601 H2608 0.961 . S
C2601 H2609 0.960 . S
C2602 C2600 1.381 . S
C2602 C2603 1.394 . S
C2602 H2610 0.930 . S
C2603 C2602 1.394 . S
C2603 C2604 1.383 . S
C2603 H2611 0.929 . S
C2604 C2603 1.383 . S
C2604 C2605 1.377 . S
C2605 H2589 0.930 . S
C2605 C2604 1.377 . S
C2605 C2606 1.379 . S
C2606 H2590 0.931 . S
C2606 C2600 1.383 . S
C2606 C2605 1.379 . S
H2607 C2601 0.959 . S
H2608 C2601 0.961 . S
H2609 C2601 0.960 . S
H2610 C2602 0.930 . S
H2611 C2603 0.929 . S
H2612 C2620 0.929 . S
H2613 C2622 0.930 . S
H2614 C2624 0.930 . S
H2615 C2627 0.929 . S
H2616 C2630 0.930 . S
H2617 C2632 0.960 . S
H2618 C2632 0.960 . S
H2619 C2632 0.960 . S
C2620 H2612 0.929 . S
C2620 C2621 1.377 . S
C2620 C2622 1.384 . S
C2621 C2620 1.377 . S
C2621 C2627 1.390 . S
C2622 H2613 0.930 . S
C2622 C2620 1.384 . S
C2622 C2623 1.372 . S
C2623 C2622 1.372 . S
C2623 C2624 1.400 . S
C2623 C2628 1.490 . S
C2624 H2614 0.930 . S
C2624 C2623 1.400 . S
C2624 C2627 1.386 . S
H2625 C2641 0.930 . S
H2626 C2642 0.931 . S
C2627 H2615 0.929 . S
C2627 C2621 1.390 . S
C2627 C2624 1.386 . S
C2628 C2623 1.490 . S
C2628 C2630 1.395 . S
C2628 C2631 1.403 . S
H2629 C2635 0.930 . S
C2630 H2616 0.930 . S
C2630 C2628 1.395 . S
C2630 C2633 1.403 . S
C2631 C2628 1.403 . S
C2631 C2632 1.524 . S
C2631 C2635 1.400 . S
C2632 H2617 0.960 . S
C2632 H2618 0.960 . S
C2632 H2619 0.960 . S
C2632 C2631 1.524 . S
C2633 C2630 1.403 . S
C2633 C2634 1.392 . S
C2633 C2637 1.495 . S
C2634 C2633 1.392 . S
C2634 C2635 1.385 . S
C2634 C2636 1.478 . S
C2635 H2629 0.930 . S
C2635 C2631 1.400 . S
C2635 C2634 1.385 . S
C2636 C2634 1.478 . S
C2636 C2638 1.381 . S
C2636 C2642 1.383 . S
C2637 C2633 1.495 . S
C2637 H2643 0.959 . S
C2637 H2644 0.961 . S
C2637 H2645 0.960 . S
C2638 C2636 1.381 . S
C2638 C2639 1.394 . S
C2638 H2646 0.930 . S
C2639 C2638 1.394 . S
C2639 C2640 1.383 . S
C2639 H2647 0.929 . S
C2640 C2639 1.383 . S
C2640 C2641 1.377 . S
C2641 H2625 0.930 . S
C2641 C2640 1.377 . S
C2641 C2642 1.379 . S
C2642 H2626 0.931 . S
C2642 C2636 1.383 . S
C2642 C2641 1.379 . S
H2643 C2637 0.959 . S
H2644 C2637 0.961 . S
H2645 C2637 0.960 . S
H2646 C2638 0.930 . S
H2647 C2639 0.929 . S
H2648 C2656 0.929 . S
H2649 C2658 0.930 . S
H2650 C2660 0.930 . S
H2651 C2663 0.929 . S
H2652 C2666 0.930 . S
H2653 C2668 0.960 . S
H2654 C2668 0.960 . S
H2655 C2668 0.960 . S
C2656 H2648 0.929 . S
C2656 C2657 1.377 . S
C2656 C2658 1.384 . S
C2657 C2656 1.377 . S
C2657 C2663 1.390 . S
C2658 H2649 0.930 . S
C2658 C2656 1.384 . S
C2658 C2659 1.372 . S
C2659 C2658 1.372 . S
C2659 C2660 1.400 . S
C2659 C2664 1.490 . S
C2660 H2650 0.930 . S
C2660 C2659 1.400 . S
C2660 C2663 1.386 . S
H2661 C2677 0.930 . S
H2662 C2678 0.931 . S
C2663 H2651 0.929 . S
C2663 C2657 1.390 . S
C2663 C2660 1.386 . S
C2664 C2659 1.490 . S
C2664 C2666 1.395 . S
C2664 C2667 1.403 . S
H2665 C2671 0.930 . S
C2666 H2652 0.930 . S
C2666 C2664 1.395 . S
C2666 C2669 1.403 . S
C2667 C2664 1.403 . S
C2667 C2668 1.524 . S
C2667 C2671 1.400 . S
C2668 H2653 0.960 . S
C2668 H2654 0.960 . S
C2668 H2655 0.960 . S
C2668 C2667 1.524 . S
C2669 C2666 1.403 . S
C2669 C2670 1.392 . S
C2669 C2673 1.495 . S
C2670 C2669 1.392 . S
C2670 C2671 1.385 . S
C2670 C2672 1.478 . S
C2671 H2665 0.930 . S
C2671 C2667 1.400 . S
C2671 C2670 1.385 . S
C2672 C2670 1.478 . S
C2672 C2674 1.381 . S
C2672 C2678 1.383 . S
C2673 C2669 1.495 . S
C2673 H2679 0.959 . S
C2673 H2680 0.961 . S
C2673 H2681 0.960 . S
C2674 C2672 1.381 . S
C2674 C2675 1.394 . S
C2674 H2682 0.930 . S
C2675 C2674 1.394 . S
C2675 C2676 1.383 . S
C2675 H2683 0.929 . S
C2676 C2675 1.383 . S
C2676 C2677 1.377 . S
C2677 H2661 0.930 . S
C2677 C2676 1.377 . S
C2677 C2678 1.379 . S
C2678 H2662 0.931 . S
C2678 C2672 1.383 . S
C2678 C2677 1.379 . S
H2679 C2673 0.959 . S
H2680 C2673 0.961 . S
H2681 C2673 0.960 . S
H2682 C2674 0.930 . S
H2683 C2675 0.929 . S
H2684 C2692 0.929 . S
H2685 C2694 0.930 . S
H2686 C2696 0.930 . S
H2687 C2699 0.929 . S
H2688 C2702 0.930 . S
H2689 C2704 0.960 . S
H2690 C2704 0.960 . S
H2691 C2704 0.960 . S
C2692 H2684 0.929 . S
C2692 C2693 1.377 . S
C2692 C2694 1.384 . S
C2693 C2692 1.377 . S
C2693 C2699 1.390 . S
C2694 H2685 0.930 . S
C2694 C2692 1.384 . S
C2694 C2695 1.372 . S
C2695 C2694 1.372 . S
C2695 C2696 1.400 . S
C2695 C2700 1.490 . S
C2696 H2686 0.930 . S
C2696 C2695 1.400 . S
C2696 C2699 1.386 . S
H2697 C2713 0.930 . S
H2698 C2714 0.931 . S
C2699 H2687 0.929 . S
C2699 C2693 1.390 . S
C2699 C2696 1.386 . S
C2700 C2695 1.490 . S
C2700 C2702 1.395 . S
C2700 C2703 1.403 . S
H2701 C2707 0.930 . S
C2702 H2688 0.930 . S
C2702 C2700 1.395 . S
C2702 C2705 1.403 . S
C2703 C2700 1.403 . S
C2703 C2704 1.524 . S
C2703 C2707 1.400 . S
C2704 H2689 0.960 . S
C2704 H2690 0.960 . S
C2704 H2691 0.960 . S
C2704 C2703 1.524 . S
C2705 C2702 1.403 . S
C2705 C2706 1.392 . S
C2705 C2709 1.495 . S
C2706 C2705 1.392 . S
C2706 C2707 1.385 . S
C2706 C2708 1.478 . S
C2707 H2701 0.930 . S
C2707 C2703 1.400 . S
C2707 C2706 1.385 . S
C2708 C2706 1.478 . S
C2708 C2710 1.381 . S
C2708 C2714 1.383 . S
C2709 C2705 1.495 . S
C2709 H2715 0.959 . S
C2709 H2716 0.961 . S
C2709 H2717 0.960 . S
C2710 C2708 1.381 . S
C2710 C2711 1.394 . S
C2710 H2718 0.930 . S
C2711 C2710 1.394 . S
C2711 C2712 1.383 . S
C2711 H2719 0.929 . S
C2712 C2711 1.383 . S
C2712 C2713 1.377 . S
C2713 H2697 0.930 . S
C2713 C2712 1.377 . S
C2713 C2714 1.379 . S
C2714 H2698 0.931 . S
C2714 C2708 1.383 . S
C2714 C2713 1.379 . S
H2715 C2709 0.959 . S
H2716 C2709 0.961 . S
H2717 C2709 0.960 . S
H2718 C2710 0.930 . S
H2719 C2711 0.929 . S
H2720 C2728 0.929 . S
H2721 C2730 0.930 . S
H2722 C2732 0.930 . S
H2723 C2735 0.929 . S
H2724 C2738 0.930 . S
H2725 C2740 0.960 . S
H2726 C2740 0.960 . S
H2727 C2740 0.960 . S
C2728 H2720 0.929 . S
C2728 C2729 1.377 . S
C2728 C2730 1.384 . S
C2729 C2728 1.377 . S
C2729 C2735 1.390 . S
C2730 H2721 0.930 . S
C2730 C2728 1.384 . S
C2730 C2731 1.372 . S
C2731 C2730 1.372 . S
C2731 C2732 1.400 . S
C2731 C2736 1.490 . S
C2732 H2722 0.930 . S
C2732 C2731 1.400 . S
C2732 C2735 1.386 . S
H2733 C2749 0.930 . S
H2734 C2750 0.931 . S
C2735 H2723 0.929 . S
C2735 C2729 1.390 . S
C2735 C2732 1.386 . S
C2736 C2731 1.490 . S
C2736 C2738 1.395 . S
C2736 C2739 1.403 . S
H2737 C2743 0.930 . S
C2738 H2724 0.930 . S
C2738 C2736 1.395 . S
C2738 C2741 1.403 . S
C2739 C2736 1.403 . S
C2739 C2740 1.524 . S
C2739 C2743 1.400 . S
C2740 H2725 0.960 . S
C2740 H2726 0.960 . S
C2740 H2727 0.960 . S
C2740 C2739 1.524 . S
C2741 C2738 1.403 . S
C2741 C2742 1.392 . S
C2741 C2745 1.495 . S
C2742 C2741 1.392 . S
C2742 C2743 1.385 . S
C2742 C2744 1.478 . S
C2743 H2737 0.930 . S
C2743 C2739 1.400 . S
C2743 C2742 1.385 . S
C2744 C2742 1.478 . S
C2744 C2746 1.381 . S
C2744 C2750 1.383 . S
C2745 C2741 1.495 . S
C2745 H2751 0.959 . S
C2745 H2752 0.961 . S
C2745 H2753 0.960 . S
C2746 C2744 1.381 . S
C2746 C2747 1.394 . S
C2746 H2754 0.930 . S
C2747 C2746 1.394 . S
C2747 C2748 1.383 . S
C2747 H2755 0.929 . S
C2748 C2747 1.383 . S
C2748 C2749 1.377 . S
C2749 H2733 0.930 . S
C2749 C2748 1.377 . S
C2749 C2750 1.379 . S
C2750 H2734 0.931 . S
C2750 C2744 1.383 . S
C2750 C2749 1.379 . S
H2751 C2745 0.959 . S
H2752 C2745 0.961 . S
H2753 C2745 0.960 . S
H2754 C2746 0.930 . S
H2755 C2747 0.929 . S
H2756 C2764 0.929 . S
H2757 C2766 0.930 . S
H2758 C2768 0.930 . S
H2759 C2771 0.929 . S
H2760 C2774 0.930 . S
H2761 C2776 0.960 . S
H2762 C2776 0.960 . S
H2763 C2776 0.960 . S
C2764 H2756 0.929 . S
C2764 C2765 1.377 . S
C2764 C2766 1.384 . S
C2765 C2764 1.377 . S
C2765 C2771 1.390 . S
C2766 H2757 0.930 . S
C2766 C2764 1.384 . S
C2766 C2767 1.372 . S
C2767 C2766 1.372 . S
C2767 C2768 1.400 . S
C2767 C2772 1.490 . S
C2768 H2758 0.930 . S
C2768 C2767 1.400 . S
C2768 C2771 1.386 . S
H2769 C2785 0.930 . S
H2770 C2786 0.931 . S
C2771 H2759 0.929 . S
C2771 C2765 1.390 . S
C2771 C2768 1.386 . S
C2772 C2767 1.490 . S
C2772 C2774 1.395 . S
C2772 C2775 1.403 . S
H2773 C2779 0.930 . S
C2774 H2760 0.930 . S
C2774 C2772 1.395 . S
C2774 C2777 1.403 . S
C2775 C2772 1.403 . S
C2775 C2776 1.524 . S
C2775 C2779 1.400 . S
C2776 H2761 0.960 . S
C2776 H2762 0.960 . S
C2776 H2763 0.960 . S
C2776 C2775 1.524 . S
C2777 C2774 1.403 . S
C2777 C2778 1.392 . S
C2777 C2781 1.495 . S
C2778 C2777 1.392 . S
C2778 C2779 1.385 . S
C2778 C2780 1.478 . S
C2779 H2773 0.930 . S
C2779 C2775 1.400 . S
C2779 C2778 1.385 . S
C2780 C2778 1.478 . S
C2780 C2782 1.381 . S
C2780 C2786 1.383 . S
C2781 C2777 1.495 . S
C2781 H2787 0.959 . S
C2781 H2788 0.961 . S
C2781 H2789 0.960 . S
C2782 C2780 1.381 . S
C2782 C2783 1.394 . S
C2782 H2790 0.930 . S
C2783 C2782 1.394 . S
C2783 C2784 1.383 . S
C2783 H2791 0.929 . S
C2784 C2783 1.383 . S
C2784 C2785 1.377 . S
C2785 H2769 0.930 . S
C2785 C2784 1.377 . S
C2785 C2786 1.379 . S
C2786 H2770 0.931 . S
C2786 C2780 1.383 . S
C2786 C2785 1.379 . S
H2787 C2781 0.959 . S
H2788 C2781 0.961 . S
H2789 C2781 0.960 . S
H2790 C2782 0.930 . S
H2791 C2783 0.929 . S
H2792 C2800 0.929 . S
H2793 C2802 0.930 . S
H2794 C2804 0.930 . S
H2795 C2807 0.929 . S
H2796 C2810 0.930 . S
H2797 C2812 0.960 . S
H2798 C2812 0.960 . S
H2799 C2812 0.960 . S
C2800 H2792 0.929 . S
C2800 C2801 1.377 . S
C2800 C2802 1.384 . S
C2801 C2800 1.377 . S
C2801 C2807 1.390 . S
C2802 H2793 0.930 . S
C2802 C2800 1.384 . S
C2802 C2803 1.372 . S
C2803 C2802 1.372 . S
C2803 C2804 1.400 . S
C2803 C2808 1.490 . S
C2804 H2794 0.930 . S
C2804 C2803 1.400 . S
C2804 C2807 1.386 . S
H2805 C2821 0.930 . S
H2806 C2822 0.931 . S
C2807 H2795 0.929 . S
C2807 C2801 1.390 . S
C2807 C2804 1.386 . S
C2808 C2803 1.490 . S
C2808 C2810 1.395 . S
C2808 C2811 1.403 . S
H2809 C2815 0.930 . S
C2810 H2796 0.930 . S
C2810 C2808 1.395 . S
C2810 C2813 1.403 . S
C2811 C2808 1.403 . S
C2811 C2812 1.524 . S
C2811 C2815 1.400 . S
C2812 H2797 0.960 . S
C2812 H2798 0.960 . S
C2812 H2799 0.960 . S
C2812 C2811 1.524 . S
C2813 C2810 1.403 . S
C2813 C2814 1.392 . S
C2813 C2817 1.495 . S
C2814 C2813 1.392 . S
C2814 C2815 1.385 . S
C2814 C2816 1.478 . S
C2815 H2809 0.930 . S
C2815 C2811 1.400 . S
C2815 C2814 1.385 . S
C2816 C2814 1.478 . S
C2816 C2818 1.381 . S
C2816 C2822 1.383 . S
C2817 C2813 1.495 . S
C2817 H2823 0.959 . S
C2817 H2824 0.961 . S
C2817 H2825 0.960 . S
C2818 C2816 1.381 . S
C2818 C2819 1.394 . S
C2818 H2826 0.930 . S
C2819 C2818 1.394 . S
C2819 C2820 1.383 . S
C2819 H2827 0.929 . S
C2820 C2819 1.383 . S
C2820 C2821 1.377 . S
C2821 H2805 0.930 . S
C2821 C2820 1.377 . S
C2821 C2822 1.379 . S
C2822 H2806 0.931 . S
C2822 C2816 1.383 . S
C2822 C2821 1.379 . S
H2823 C2817 0.959 . S
H2824 C2817 0.961 . S
H2825 C2817 0.960 . S
H2826 C2818 0.930 . S
H2827 C2819 0.929 . S
H2828 C2836 0.929 . S
H2829 C2838 0.930 . S
H2830 C2840 0.930 . S
H2831 C2843 0.929 . S
H2832 C2846 0.930 . S
H2833 C2848 0.960 . S
H2834 C2848 0.960 . S
H2835 C2848 0.960 . S
C2836 H2828 0.929 . S
C2836 C2837 1.377 . S
C2836 C2838 1.384 . S
C2837 C2836 1.377 . S
C2837 C2843 1.390 . S
C2838 H2829 0.930 . S
C2838 C2836 1.384 . S
C2838 C2839 1.372 . S
C2839 C2838 1.372 . S
C2839 C2840 1.400 . S
C2839 C2844 1.490 . S
C2840 H2830 0.930 . S
C2840 C2839 1.400 . S
C2840 C2843 1.386 . S
H2841 C2857 0.930 . S
H2842 C2858 0.931 . S
C2843 H2831 0.929 . S
C2843 C2837 1.390 . S
C2843 C2840 1.386 . S
C2844 C2839 1.490 . S
C2844 C2846 1.395 . S
C2844 C2847 1.403 . S
H2845 C2851 0.930 . S
C2846 H2832 0.930 . S
C2846 C2844 1.395 . S
C2846 C2849 1.403 . S
C2847 C2844 1.403 . S
C2847 C2848 1.524 . S
C2847 C2851 1.400 . S
C2848 H2833 0.960 . S
C2848 H2834 0.960 . S
C2848 H2835 0.960 . S
C2848 C2847 1.524 . S
C2849 C2846 1.403 . S
C2849 C2850 1.392 . S
C2849 C2853 1.495 . S
C2850 C2849 1.392 . S
C2850 C2851 1.385 . S
C2850 C2852 1.478 . S
C2851 H2845 0.930 . S
C2851 C2847 1.400 . S
C2851 C2850 1.385 . S
C2852 C2850 1.478 . S
C2852 C2854 1.381 . S
C2852 C2858 1.383 . S
C2853 C2849 1.495 . S
C2853 H2859 0.959 . S
C2853 H2860 0.961 . S
C2853 H2861 0.960 . S
C2854 C2852 1.381 . S
C2854 C2855 1.394 . S
C2854 H2862 0.930 . S
C2855 C2854 1.394 . S
C2855 C2856 1.383 . S
C2855 H2863 0.929 . S
C2856 C2855 1.383 . S
C2856 C2857 1.377 . S
C2857 H2841 0.930 . S
C2857 C2856 1.377 . S
C2857 C2858 1.379 . S
C2858 H2842 0.931 . S
C2858 C2852 1.383 . S
C2858 C2857 1.379 . S
H2859 C2853 0.959 . S
H2860 C2853 0.961 . S
H2861 C2853 0.960 . S
H2862 C2854 0.930 . S
H2863 C2855 0.929 . S
H2864 C2872 0.929 . S
H2865 C2874 0.930 . S
H2866 C2876 0.930 . S
H2867 C2879 0.929 . S
H2868 C2882 0.930 . S
H2869 C2884 0.960 . S
H2870 C2884 0.960 . S
H2871 C2884 0.960 . S
C2872 H2864 0.929 . S
C2872 C2873 1.377 . S
C2872 C2874 1.384 . S
C2873 C2872 1.377 . S
C2873 C2879 1.390 . S
C2874 H2865 0.930 . S
C2874 C2872 1.384 . S
C2874 C2875 1.372 . S
C2875 C2874 1.372 . S
C2875 C2876 1.400 . S
C2875 C2880 1.490 . S
C2876 H2866 0.930 . S
C2876 C2875 1.400 . S
C2876 C2879 1.386 . S
H2877 C2893 0.930 . S
H2878 C2894 0.931 . S
C2879 H2867 0.929 . S
C2879 C2873 1.390 . S
C2879 C2876 1.386 . S
C2880 C2875 1.490 . S
C2880 C2882 1.395 . S
C2880 C2883 1.403 . S
H2881 C2887 0.930 . S
C2882 H2868 0.930 . S
C2882 C2880 1.395 . S
C2882 C2885 1.403 . S
C2883 C2880 1.403 . S
C2883 C2884 1.524 . S
C2883 C2887 1.400 . S
C2884 H2869 0.960 . S
C2884 H2870 0.960 . S
C2884 H2871 0.960 . S
C2884 C2883 1.524 . S
C2885 C2882 1.403 . S
C2885 C2886 1.392 . S
C2885 C2889 1.495 . S
C2886 C2885 1.392 . S
C2886 C2887 1.385 . S
C2886 C2888 1.478 . S
C2887 H2881 0.930 . S
C2887 C2883 1.400 . S
C2887 C2886 1.385 . S
C2888 C2886 1.478 . S
C2888 C2890 1.381 . S
C2888 C2894 1.383 . S
C2889 C2885 1.495 . S
C2889 H2895 0.959 . S
C2889 H2896 0.961 . S
C2889 H2897 0.960 . S
C2890 C2888 1.381 . S
C2890 C2891 1.394 . S
C2890 H2898 0.930 . S
C2891 C2890 1.394 . S
C2891 C2892 1.383 . S
C2891 H2899 0.929 . S
C2892 C2891 1.383 . S
C2892 C2893 1.377 . S
C2893 H2877 0.930 . S
C2893 C2892 1.377 . S
C2893 C2894 1.379 . S
C2894 H2878 0.931 . S
C2894 C2888 1.383 . S
C2894 C2893 1.379 . S
H2895 C2889 0.959 . S
H2896 C2889 0.961 . S
H2897 C2889 0.960 . S
H2898 C2890 0.930 . S
H2899 C2891 0.929 . S
H2900 C2908 0.929 . S
H2901 C2910 0.930 . S
H2902 C2912 0.930 . S
H2903 C2915 0.929 . S
H2904 C2918 0.930 . S
H2905 C2920 0.960 . S
H2906 C2920 0.960 . S
H2907 C2920 0.960 . S
C2908 H2900 0.929 . S
C2908 C2909 1.377 . S
C2908 C2910 1.384 . S
C2909 C2908 1.377 . S
C2909 C2915 1.390 . S
C2910 H2901 0.930 . S
C2910 C2908 1.384 . S
C2910 C2911 1.372 . S
C2911 C2910 1.372 . S
C2911 C2912 1.400 . S
C2911 C2916 1.490 . S
C2912 H2902 0.930 . S
C2912 C2911 1.400 . S
C2912 C2915 1.386 . S
H2913 C2929 0.930 . S
H2914 C2930 0.931 . S
C2915 H2903 0.929 . S
C2915 C2909 1.390 . S
C2915 C2912 1.386 . S
C2916 C2911 1.490 . S
C2916 C2918 1.395 . S
C2916 C2919 1.403 . S
H2917 C2923 0.930 . S
C2918 H2904 0.930 . S
C2918 C2916 1.395 . S
C2918 C2921 1.403 . S
C2919 C2916 1.403 . S
C2919 C2920 1.524 . S
C2919 C2923 1.400 . S
C2920 H2905 0.960 . S
C2920 H2906 0.960 . S
C2920 H2907 0.960 . S
C2920 C2919 1.524 . S
C2921 C2918 1.403 . S
C2921 C2922 1.392 . S
C2921 C2925 1.495 . S
C2922 C2921 1.392 . S
C2922 C2923 1.385 . S
C2922 C2924 1.478 . S
C2923 H2917 0.930 . S
C2923 C2919 1.400 . S
C2923 C2922 1.385 . S
C2924 C2922 1.478 . S
C2924 C2926 1.381 . S
C2924 C2930 1.383 . S
C2925 C2921 1.495 . S
C2925 H2931 0.959 . S
C2925 H2932 0.961 . S
C2925 H2933 0.960 . S
C2926 C2924 1.381 . S
C2926 C2927 1.394 . S
C2926 H2934 0.930 . S
C2927 C2926 1.394 . S
C2927 C2928 1.383 . S
C2927 H2935 0.929 . S
C2928 C2927 1.383 . S
C2928 C2929 1.377 . S
C2929 H2913 0.930 . S
C2929 C2928 1.377 . S
C2929 C2930 1.379 . S
C2930 H2914 0.931 . S
C2930 C2924 1.383 . S
C2930 C2929 1.379 . S
H2931 C2925 0.959 . S
H2932 C2925 0.961 . S
H2933 C2925 0.960 . S
H2934 C2926 0.930 . S
H2935 C2927 0.929 . S
H2936 C2944 0.929 . S
H2937 C2946 0.930 . S
H2938 C2948 0.930 . S
H2939 C2951 0.929 . S
H2940 C2954 0.930 . S
H2941 C2956 0.960 . S
H2942 C2956 0.960 . S
H2943 C2956 0.960 . S
C2944 H2936 0.929 . S
C2944 C2945 1.377 . S
C2944 C2946 1.384 . S
C2945 C2944 1.377 . S
C2945 C2951 1.390 . S
C2946 H2937 0.930 . S
C2946 C2944 1.384 . S
C2946 C2947 1.372 . S
C2947 C2946 1.372 . S
C2947 C2948 1.400 . S
C2947 C2952 1.490 . S
C2948 H2938 0.930 . S
C2948 C2947 1.400 . S
C2948 C2951 1.386 . S
H2949 C2965 0.930 . S
H2950 C2966 0.931 . S
C2951 H2939 0.929 . S
C2951 C2945 1.390 . S
C2951 C2948 1.386 . S
C2952 C2947 1.490 . S
C2952 C2954 1.395 . S
C2952 C2955 1.403 . S
H2953 C2959 0.930 . S
C2954 H2940 0.930 . S
C2954 C2952 1.395 . S
C2954 C2957 1.403 . S
C2955 C2952 1.403 . S
C2955 C2956 1.524 . S
C2955 C2959 1.400 . S
C2956 H2941 0.960 . S
C2956 H2942 0.960 . S
C2956 H2943 0.960 . S
C2956 C2955 1.524 . S
C2957 C2954 1.403 . S
C2957 C2958 1.392 . S
C2957 C2961 1.495 . S
C2958 C2957 1.392 . S
C2958 C2959 1.385 . S
C2958 C2960 1.478 . S
C2959 H2953 0.930 . S
C2959 C2955 1.400 . S
C2959 C2958 1.385 . S
C2960 C2958 1.478 . S
C2960 C2962 1.381 . S
C2960 C2966 1.383 . S
C2961 C2957 1.495 . S
C2961 H2967 0.959 . S
C2961 H2968 0.961 . S
C2961 H2969 0.960 . S
C2962 C2960 1.381 . S
C2962 C2963 1.394 . S
C2962 H2970 0.930 . S
C2963 C2962 1.394 . S
C2963 C2964 1.383 . S
C2963 H2971 0.929 . S
C2964 C2963 1.383 . S
C2964 C2965 1.377 . S
C2965 H2949 0.930 . S
C2965 C2964 1.377 . S
C2965 C2966 1.379 . S
C2966 H2950 0.931 . S
C2966 C2960 1.383 . S
C2966 C2965 1.379 . S
H2967 C2961 0.959 . S
H2968 C2961 0.961 . S
H2969 C2961 0.960 . S
H2970 C2962 0.930 . S
H2971 C2963 0.929 . S
H2972 C2980 0.929 . S
H2973 C2982 0.930 . S
H2974 C2984 0.930 . S
H2975 C2987 0.929 . S
H2976 C2990 0.930 . S
H2977 C2992 0.960 . S
H2978 C2992 0.960 . S
H2979 C2992 0.960 . S
C2980 H2972 0.929 . S
C2980 C2981 1.377 . S
C2980 C2982 1.384 . S
C2981 C2980 1.377 . S
C2981 C2987 1.390 . S
C2982 H2973 0.930 . S
C2982 C2980 1.384 . S
C2982 C2983 1.372 . S
C2983 C2982 1.372 . S
C2983 C2984 1.400 . S
C2983 C2988 1.490 . S
C2984 H2974 0.930 . S
C2984 C2983 1.400 . S
C2984 C2987 1.386 . S
H2985 C3001 0.930 . S
H2986 C3002 0.931 . S
C2987 H2975 0.929 . S
C2987 C2981 1.390 . S
C2987 C2984 1.386 . S
C2988 C2983 1.490 . S
C2988 C2990 1.395 . S
C2988 C2991 1.403 . S
H2989 C2995 0.930 . S
C2990 H2976 0.930 . S
C2990 C2988 1.395 . S
C2990 C2993 1.403 . S
C2991 C2988 1.403 . S
C2991 C2992 1.524 . S
C2991 C2995 1.400 . S
C2992 H2977 0.960 . S
C2992 H2978 0.960 . S
C2992 H2979 0.960 . S
C2992 C2991 1.524 . S
C2993 C2990 1.403 . S
C2993 C2994 1.392 . S
C2993 C2997 1.495 . S
C2994 C2993 1.392 . S
C2994 C2995 1.385 . S
C2994 C2996 1.478 . S
C2995 H2989 0.930 . S
C2995 C2991 1.400 . S
C2995 C2994 1.385 . S
C2996 C2994 1.478 . S
C2996 C2998 1.381 . S
C2996 C3002 1.383 . S
C2997 C2993 1.495 . S
C2997 H3003 0.959 . S
C2997 H3004 0.961 . S
C2997 H3005 0.960 . S
C2998 C2996 1.381 . S
C2998 C2999 1.394 . S
C2998 H3006 0.930 . S
C2999 C2998 1.394 . S
C2999 C3000 1.383 . S
C2999 H3007 0.929 . S
C3000 C2999 1.383 . S
C3000 C3001 1.377 . S
C3001 H2985 0.930 . S
C3001 C3000 1.377 . S
C3001 C3002 1.379 . S
C3002 H2986 0.931 . S
C3002 C2996 1.383 . S
C3002 C3001 1.379 . S
H3003 C2997 0.959 . S
H3004 C2997 0.961 . S
H3005 C2997 0.960 . S
H3006 C2998 0.930 . S
H3007 C2999 0.929 . S
H3008 C3016 0.929 . S
H3009 C3018 0.930 . S
H3010 C3020 0.930 . S
H3011 C3023 0.929 . S
H3012 C3026 0.930 . S
H3013 C3028 0.960 . S
H3014 C3028 0.960 . S
H3015 C3028 0.960 . S
C3016 H3008 0.929 . S
C3016 C3017 1.377 . S
C3016 C3018 1.384 . S
C3017 C3016 1.377 . S
C3017 C3023 1.390 . S
C3018 H3009 0.930 . S
C3018 C3016 1.384 . S
C3018 C3019 1.372 . S
C3019 C3018 1.372 . S
C3019 C3020 1.400 . S
C3019 C3024 1.490 . S
C3020 H3010 0.930 . S
C3020 C3019 1.400 . S
C3020 C3023 1.386 . S
H3021 C3037 0.930 . S
H3022 C3038 0.931 . S
C3023 H3011 0.929 . S
C3023 C3017 1.390 . S
C3023 C3020 1.386 . S
C3024 C3019 1.490 . S
C3024 C3026 1.395 . S
C3024 C3027 1.403 . S
H3025 C3031 0.930 . S
C3026 H3012 0.930 . S
C3026 C3024 1.395 . S
C3026 C3029 1.403 . S
C3027 C3024 1.403 . S
C3027 C3028 1.524 . S
C3027 C3031 1.400 . S
C3028 H3013 0.960 . S
C3028 H3014 0.960 . S
C3028 H3015 0.960 . S
C3028 C3027 1.524 . S
C3029 C3026 1.403 . S
C3029 C3030 1.392 . S
C3029 C3033 1.495 . S
C3030 C3029 1.392 . S
C3030 C3031 1.385 . S
C3030 C3032 1.478 . S
C3031 H3025 0.930 . S
C3031 C3027 1.400 . S
C3031 C3030 1.385 . S
C3032 C3030 1.478 . S
C3032 C3034 1.381 . S
C3032 C3038 1.383 . S
C3033 C3029 1.495 . S
C3033 H3039 0.959 . S
C3033 H3040 0.961 . S
C3033 H3041 0.960 . S
C3034 C3032 1.381 . S
C3034 C3035 1.394 . S
C3034 H3042 0.930 . S
C3035 C3034 1.394 . S
C3035 C3036 1.383 . S
C3035 H3043 0.929 . S
C3036 C3035 1.383 . S
C3036 C3037 1.377 . S
C3037 H3021 0.930 . S
C3037 C3036 1.377 . S
C3037 C3038 1.379 . S
C3038 H3022 0.931 . S
C3038 C3032 1.383 . S
C3038 C3037 1.379 . S
H3039 C3033 0.959 . S
H3040 C3033 0.961 . S
H3041 C3033 0.960 . S
H3042 C3034 0.930 . S
H3043 C3035 0.929 . S
H3044 C3052 0.929 . S
H3045 C3054 0.930 . S
H3046 C3056 0.930 . S
H3047 C3059 0.929 . S
H3048 C3062 0.930 . S
H3049 C3064 0.960 . S
H3050 C3064 0.960 . S
H3051 C3064 0.960 . S
C3052 H3044 0.929 . S
C3052 C3053 1.377 . S
C3052 C3054 1.384 . S
C3053 C3052 1.377 . S
C3053 C3059 1.390 . S
C3054 H3045 0.930 . S
C3054 C3052 1.384 . S
C3054 C3055 1.372 . S
C3055 C3054 1.372 . S
C3055 C3056 1.400 . S
C3055 C3060 1.490 . S
C3056 H3046 0.930 . S
C3056 C3055 1.400 . S
C3056 C3059 1.386 . S
H3057 C3073 0.930 . S
H3058 C3074 0.931 . S
C3059 H3047 0.929 . S
C3059 C3053 1.390 . S
C3059 C3056 1.386 . S
C3060 C3055 1.490 . S
C3060 C3062 1.395 . S
C3060 C3063 1.403 . S
H3061 C3067 0.930 . S
C3062 H3048 0.930 . S
C3062 C3060 1.395 . S
C3062 C3065 1.403 . S
C3063 C3060 1.403 . S
C3063 C3064 1.524 . S
C3063 C3067 1.400 . S
C3064 H3049 0.960 . S
C3064 H3050 0.960 . S
C3064 H3051 0.960 . S
C3064 C3063 1.524 . S
C3065 C3062 1.403 . S
C3065 C3066 1.392 . S
C3065 C3069 1.495 . S
C3066 C3065 1.392 . S
C3066 C3067 1.385 . S
C3066 C3068 1.478 . S
C3067 H3061 0.930 . S
C3067 C3063 1.400 . S
C3067 C3066 1.385 . S
C3068 C3066 1.478 . S
C3068 C3070 1.381 . S
C3068 C3074 1.383 . S
C3069 C3065 1.495 . S
C3069 H3075 0.959 . S
C3069 H3076 0.961 . S
C3069 H3077 0.960 . S
C3070 C3068 1.381 . S
C3070 C3071 1.394 . S
C3070 H3078 0.930 . S
C3071 C3070 1.394 . S
C3071 C3072 1.383 . S
C3071 H3079 0.929 . S
C3072 C3071 1.383 . S
C3072 C3073 1.377 . S
C3073 H3057 0.930 . S
C3073 C3072 1.377 . S
C3073 C3074 1.379 . S
C3074 H3058 0.931 . S
C3074 C3068 1.383 . S
C3074 C3073 1.379 . S
H3075 C3069 0.959 . S
H3076 C3069 0.961 . S
H3077 C3069 0.960 . S
H3078 C3070 0.930 . S
H3079 C3071 0.929 . S
H3080 C3088 0.929 . S
H3081 C3090 0.930 . S
H3082 C3092 0.930 . S
H3083 C3095 0.929 . S
H3084 C3098 0.930 . S
H3085 C3100 0.960 . S
H3086 C3100 0.960 . S
H3087 C3100 0.960 . S
C3088 H3080 0.929 . S
C3088 C3089 1.377 . S
C3088 C3090 1.384 . S
C3089 C3088 1.377 . S
C3089 C3095 1.390 . S
C3090 H3081 0.930 . S
C3090 C3088 1.384 . S
C3090 C3091 1.372 . S
C3091 C3090 1.372 . S
C3091 C3092 1.400 . S
C3091 C3096 1.490 . S
C3092 H3082 0.930 . S
C3092 C3091 1.400 . S
C3092 C3095 1.386 . S
H3093 C3109 0.930 . S
H3094 C3110 0.931 . S
C3095 H3083 0.929 . S
C3095 C3089 1.390 . S
C3095 C3092 1.386 . S
C3096 C3091 1.490 . S
C3096 C3098 1.395 . S
C3096 C3099 1.403 . S
H3097 C3103 0.930 . S
C3098 H3084 0.930 . S
C3098 C3096 1.395 . S
C3098 C3101 1.403 . S
C3099 C3096 1.403 . S
C3099 C3100 1.524 . S
C3099 C3103 1.400 . S
C3100 H3085 0.960 . S
C3100 H3086 0.960 . S
C3100 H3087 0.960 . S
C3100 C3099 1.524 . S
C3101 C3098 1.403 . S
C3101 C3102 1.392 . S
C3101 C3105 1.495 . S
C3102 C3101 1.392 . S
C3102 C3103 1.385 . S
C3102 C3104 1.478 . S
C3103 H3097 0.930 . S
C3103 C3099 1.400 . S
C3103 C3102 1.385 . S
C3104 C3102 1.478 . S
C3104 C3106 1.381 . S
C3104 C3110 1.383 . S
C3105 C3101 1.495 . S
C3105 H3111 0.959 . S
C3105 H3112 0.961 . S
C3105 H3113 0.960 . S
C3106 C3104 1.381 . S
C3106 C3107 1.394 . S
C3106 H3114 0.930 . S
C3107 C3106 1.394 . S
C3107 C3108 1.383 . S
C3107 H3115 0.929 . S
C3108 C3107 1.383 . S
C3108 C3109 1.377 . S
C3109 H3093 0.930 . S
C3109 C3108 1.377 . S
C3109 C3110 1.379 . S
C3110 H3094 0.931 . S
C3110 C3104 1.383 . S
C3110 C3109 1.379 . S
H3111 C3105 0.959 . S
H3112 C3105 0.961 . S
H3113 C3105 0.960 . S
H3114 C3106 0.930 . S
H3115 C3107 0.929 . S
H3116 C3124 0.929 . S
H3117 C3126 0.930 . S
H3118 C3128 0.930 . S
H3119 C3131 0.929 . S
H3120 C3134 0.930 . S
H3121 C3136 0.960 . S
H3122 C3136 0.960 . S
H3123 C3136 0.960 . S
C3124 H3116 0.929 . S
C3124 C3125 1.377 . S
C3124 C3126 1.384 . S
C3125 C3124 1.377 . S
C3125 C3131 1.390 . S
C3126 H3117 0.930 . S
C3126 C3124 1.384 . S
C3126 C3127 1.372 . S
C3127 C3126 1.372 . S
C3127 C3128 1.400 . S
C3127 C3132 1.490 . S
C3128 H3118 0.930 . S
C3128 C3127 1.400 . S
C3128 C3131 1.386 . S
H3129 C3145 0.930 . S
H3130 C3146 0.931 . S
C3131 H3119 0.929 . S
C3131 C3125 1.390 . S
C3131 C3128 1.386 . S
C3132 C3127 1.490 . S
C3132 C3134 1.395 . S
C3132 C3135 1.403 . S
H3133 C3139 0.930 . S
C3134 H3120 0.930 . S
C3134 C3132 1.395 . S
C3134 C3137 1.403 . S
C3135 C3132 1.403 . S
C3135 C3136 1.524 . S
C3135 C3139 1.400 . S
C3136 H3121 0.960 . S
C3136 H3122 0.960 . S
C3136 H3123 0.960 . S
C3136 C3135 1.524 . S
C3137 C3134 1.403 . S
C3137 C3138 1.392 . S
C3137 C3141 1.495 . S
C3138 C3137 1.392 . S
C3138 C3139 1.385 . S
C3138 C3140 1.478 . S
C3139 H3133 0.930 . S
C3139 C3135 1.400 . S
C3139 C3138 1.385 . S
C3140 C3138 1.478 . S
C3140 C3142 1.381 . S
C3140 C3146 1.383 . S
C3141 C3137 1.495 . S
C3141 H3147 0.959 . S
C3141 H3148 0.961 . S
C3141 H3149 0.960 . S
C3142 C3140 1.381 . S
C3142 C3143 1.394 . S
C3142 H3150 0.930 . S
C3143 C3142 1.394 . S
C3143 C3144 1.383 . S
C3143 H3151 0.929 . S
C3144 C3143 1.383 . S
C3144 C3145 1.377 . S
C3145 H3129 0.930 . S
C3145 C3144 1.377 . S
C3145 C3146 1.379 . S
C3146 H3130 0.931 . S
C3146 C3140 1.383 . S
C3146 C3145 1.379 . S
H3147 C3141 0.959 . S
H3148 C3141 0.961 . S
H3149 C3141 0.960 . S
H3150 C3142 0.930 . S
H3151 C3143 0.929 . S
H3152 C3160 0.929 . S
H3153 C3162 0.930 . S
H3154 C3164 0.930 . S
H3155 C3167 0.929 . S
H3156 C3170 0.930 . S
H3157 C3172 0.960 . S
H3158 C3172 0.960 . S
H3159 C3172 0.960 . S
C3160 H3152 0.929 . S
C3160 C3161 1.377 . S
C3160 C3162 1.384 . S
C3161 C3160 1.377 . S
C3161 C3167 1.390 . S
C3162 H3153 0.930 . S
C3162 C3160 1.384 . S
C3162 C3163 1.372 . S
C3163 C3162 1.372 . S
C3163 C3164 1.400 . S
C3163 C3168 1.490 . S
C3164 H3154 0.930 . S
C3164 C3163 1.400 . S
C3164 C3167 1.386 . S
H3165 C3181 0.930 . S
H3166 C3182 0.931 . S
C3167 H3155 0.929 . S
C3167 C3161 1.390 . S
C3167 C3164 1.386 . S
C3168 C3163 1.490 . S
C3168 C3170 1.395 . S
C3168 C3171 1.403 . S
H3169 C3175 0.930 . S
C3170 H3156 0.930 . S
C3170 C3168 1.395 . S
C3170 C3173 1.403 . S
C3171 C3168 1.403 . S
C3171 C3172 1.524 . S
C3171 C3175 1.400 . S
C3172 H3157 0.960 . S
C3172 H3158 0.960 . S
C3172 H3159 0.960 . S
C3172 C3171 1.524 . S
C3173 C3170 1.403 . S
C3173 C3174 1.392 . S
C3173 C3177 1.495 . S
C3174 C3173 1.392 . S
C3174 C3175 1.385 . S
C3174 C3176 1.478 . S
C3175 H3169 0.930 . S
C3175 C3171 1.400 . S
C3175 C3174 1.385 . S
C3176 C3174 1.478 . S
C3176 C3178 1.381 . S
C3176 C3182 1.383 . S
C3177 C3173 1.495 . S
C3177 H3183 0.959 . S
C3177 H3184 0.961 . S
C3177 H3185 0.960 . S
C3178 C3176 1.381 . S
C3178 C3179 1.394 . S
C3178 H3186 0.930 . S
C3179 C3178 1.394 . S
C3179 C3180 1.383 . S
C3179 H3187 0.929 . S
C3180 C3179 1.383 . S
C3180 C3181 1.377 . S
C3181 H3165 0.930 . S
C3181 C3180 1.377 . S
C3181 C3182 1.379 . S
C3182 H3166 0.931 . S
C3182 C3176 1.383 . S
C3182 C3181 1.379 . S
H3183 C3177 0.959 . S
H3184 C3177 0.961 . S
H3185 C3177 0.960 . S
H3186 C3178 0.930 . S
H3187 C3179 0.929 . S
H3188 C3196 0.929 . S
H3189 C3198 0.930 . S
H3190 C3200 0.930 . S
H3191 C3203 0.929 . S
H3192 C3206 0.930 . S
H3193 C3208 0.960 . S
H3194 C3208 0.960 . S
H3195 C3208 0.960 . S
C3196 H3188 0.929 . S
C3196 C3197 1.377 . S
C3196 C3198 1.384 . S
C3197 C3196 1.377 . S
C3197 C3203 1.390 . S
C3198 H3189 0.930 . S
C3198 C3196 1.384 . S
C3198 C3199 1.372 . S
C3199 C3198 1.372 . S
C3199 C3200 1.400 . S
C3199 C3204 1.490 . S
C3200 H3190 0.930 . S
C3200 C3199 1.400 . S
C3200 C3203 1.386 . S
H3201 C3217 0.930 . S
H3202 C3218 0.931 . S
C3203 H3191 0.929 . S
C3203 C3197 1.390 . S
C3203 C3200 1.386 . S
C3204 C3199 1.490 . S
C3204 C3206 1.395 . S
C3204 C3207 1.403 . S
H3205 C3211 0.930 . S
C3206 H3192 0.930 . S
C3206 C3204 1.395 . S
C3206 C3209 1.403 . S
C3207 C3204 1.403 . S
C3207 C3208 1.524 . S
C3207 C3211 1.400 . S
C3208 H3193 0.960 . S
C3208 H3194 0.960 . S
C3208 H3195 0.960 . S
C3208 C3207 1.524 . S
C3209 C3206 1.403 . S
C3209 C3210 1.392 . S
C3209 C3213 1.495 . S
C3210 C3209 1.392 . S
C3210 C3211 1.385 . S
C3210 C3212 1.478 . S
C3211 H3205 0.930 . S
C3211 C3207 1.400 . S
C3211 C3210 1.385 . S
C3212 C3210 1.478 . S
C3212 C3214 1.381 . S
C3212 C3218 1.383 . S
C3213 C3209 1.495 . S
C3213 H3219 0.959 . S
C3213 H3220 0.961 . S
C3213 H3221 0.960 . S
C3214 C3212 1.381 . S
C3214 C3215 1.394 . S
C3214 H3222 0.930 . S
C3215 C3214 1.394 . S
C3215 C3216 1.383 . S
C3215 H3223 0.929 . S
C3216 C3215 1.383 . S
C3216 C3217 1.377 . S
C3217 H3201 0.930 . S
C3217 C3216 1.377 . S
C3217 C3218 1.379 . S
C3218 H3202 0.931 . S
C3218 C3212 1.383 . S
C3218 C3217 1.379 . S
H3219 C3213 0.959 . S
H3220 C3213 0.961 . S
H3221 C3213 0.960 . S
H3222 C3214 0.930 . S
H3223 C3215 0.929 . S
H3224 C3232 0.929 . S
H3225 C3234 0.930 . S
H3226 C3236 0.930 . S
H3227 C3239 0.929 . S
H3228 C3242 0.930 . S
H3229 C3244 0.960 . S
H3230 C3244 0.960 . S
H3231 C3244 0.960 . S
C3232 H3224 0.929 . S
C3232 C3233 1.377 . S
C3232 C3234 1.384 . S
C3233 C3232 1.377 . S
C3233 C3239 1.390 . S
C3234 H3225 0.930 . S
C3234 C3232 1.384 . S
C3234 C3235 1.372 . S
C3235 C3234 1.372 . S
C3235 C3236 1.400 . S
C3235 C3240 1.490 . S
C3236 H3226 0.930 . S
C3236 C3235 1.400 . S
C3236 C3239 1.386 . S
H3237 C3253 0.930 . S
H3238 C3254 0.931 . S
C3239 H3227 0.929 . S
C3239 C3233 1.390 . S
C3239 C3236 1.386 . S
C3240 C3235 1.490 . S
C3240 C3242 1.395 . S
C3240 C3243 1.403 . S
H3241 C3247 0.930 . S
C3242 H3228 0.930 . S
C3242 C3240 1.395 . S
C3242 C3245 1.403 . S
C3243 C3240 1.403 . S
C3243 C3244 1.524 . S
C3243 C3247 1.400 . S
C3244 H3229 0.960 . S
C3244 H3230 0.960 . S
C3244 H3231 0.960 . S
C3244 C3243 1.524 . S
C3245 C3242 1.403 . S
C3245 C3246 1.392 . S
C3245 C3249 1.495 . S
C3246 C3245 1.392 . S
C3246 C3247 1.385 . S
C3246 C3248 1.478 . S
C3247 H3241 0.930 . S
C3247 C3243 1.400 . S
C3247 C3246 1.385 . S
C3248 C3246 1.478 . S
C3248 C3250 1.381 . S
C3248 C3254 1.383 . S
C3249 C3245 1.495 . S
C3249 H3255 0.959 . S
C3249 H3256 0.961 . S
C3249 H3257 0.960 . S
C3250 C3248 1.381 . S
C3250 C3251 1.394 . S
C3250 H3258 0.930 . S
C3251 C3250 1.394 . S
C3251 C3252 1.383 . S
C3251 H3259 0.929 . S
C3252 C3251 1.383 . S
C3252 C3253 1.377 . S
C3253 H3237 0.930 . S
C3253 C3252 1.377 . S
C3253 C3254 1.379 . S
C3254 H3238 0.931 . S
C3254 C3248 1.383 . S
C3254 C3253 1.379 . S
H3255 C3249 0.959 . S
H3256 C3249 0.961 . S
H3257 C3249 0.960 . S
H3258 C3250 0.930 . S
H3259 C3251 0.929 . S
H3260 C3268 0.929 . S
H3261 C3270 0.930 . S
H3262 C3272 0.930 . S
H3263 C3275 0.929 . S
H3264 C3278 0.930 . S
H3265 C3280 0.960 . S
H3266 C3280 0.960 . S
H3267 C3280 0.960 . S
C3268 H3260 0.929 . S
C3268 C3269 1.377 . S
C3268 C3270 1.384 . S
C3269 C3268 1.377 . S
C3269 C3275 1.390 . S
C3270 H3261 0.930 . S
C3270 C3268 1.384 . S
C3270 C3271 1.372 . S
C3271 C3270 1.372 . S
C3271 C3272 1.400 . S
C3271 C3276 1.490 . S
C3272 H3262 0.930 . S
C3272 C3271 1.400 . S
C3272 C3275 1.386 . S
H3273 C3289 0.930 . S
H3274 C3290 0.931 . S
C3275 H3263 0.929 . S
C3275 C3269 1.390 . S
C3275 C3272 1.386 . S
C3276 C3271 1.490 . S
C3276 C3278 1.395 . S
C3276 C3279 1.403 . S
H3277 C3283 0.930 . S
C3278 H3264 0.930 . S
C3278 C3276 1.395 . S
C3278 C3281 1.403 . S
C3279 C3276 1.403 . S
C3279 C3280 1.524 . S
C3279 C3283 1.400 . S
C3280 H3265 0.960 . S
C3280 H3266 0.960 . S
C3280 H3267 0.960 . S
C3280 C3279 1.524 . S
C3281 C3278 1.403 . S
C3281 C3282 1.392 . S
C3281 C3285 1.495 . S
C3282 C3281 1.392 . S
C3282 C3283 1.385 . S
C3282 C3284 1.478 . S
C3283 H3277 0.930 . S
C3283 C3279 1.400 . S
C3283 C3282 1.385 . S
C3284 C3282 1.478 . S
C3284 C3286 1.381 . S
C3284 C3290 1.383 . S
C3285 C3281 1.495 . S
C3285 H3291 0.959 . S
C3285 H3292 0.961 . S
C3285 H3293 0.960 . S
C3286 C3284 1.381 . S
C3286 C3287 1.394 . S
C3286 H3294 0.930 . S
C3287 C3286 1.394 . S
C3287 C3288 1.383 . S
C3287 H3295 0.929 . S
C3288 C3287 1.383 . S
C3288 C3289 1.377 . S
C3289 H3273 0.930 . S
C3289 C3288 1.377 . S
C3289 C3290 1.379 . S
C3290 H3274 0.931 . S
C3290 C3284 1.383 . S
C3290 C3289 1.379 . S
H3291 C3285 0.959 . S
H3292 C3285 0.961 . S
H3293 C3285 0.960 . S
H3294 C3286 0.930 . S
H3295 C3287 0.929 . S
H3296 C3304 0.929 . S
H3297 C3306 0.930 . S
H3298 C3308 0.930 . S
H3299 C3311 0.929 . S
H3300 C3314 0.930 . S
H3301 C3316 0.960 . S
H3302 C3316 0.960 . S
H3303 C3316 0.960 . S
C3304 H3296 0.929 . S
C3304 C3305 1.377 . S
C3304 C3306 1.384 . S
C3305 C3304 1.377 . S
C3305 C3311 1.390 1_545 S
C3306 H3297 0.930 . S
C3306 C3304 1.384 . S
C3306 C3307 1.372 . S
C3307 C3306 1.372 . S
C3307 C3308 1.400 1_545 S
C3307 C3312 1.489 1_545 S
C3308 H3298 0.930 . S
C3308 C3307 1.400 1_565 S
C3308 C3311 1.386 . S
H3309 C3325 0.930 . S
H3310 C3326 0.931 . S
C3311 H3299 0.929 . S
C3311 C3305 1.390 1_565 S
C3311 C3308 1.386 . S
C3312 C3307 1.489 1_565 S
C3312 C3314 1.391 1_565 S
C3312 C3315 1.406 . S
H3313 C3319 0.930 . S
C3314 H3300 0.930 . S
C3314 C3312 1.391 1_545 S
C3314 C3317 1.403 . S
C3315 C3312 1.406 . S
C3315 C3316 1.524 . S
C3315 C3319 1.400 . S
C3316 H3301 0.960 . S
C3316 H3302 0.960 . S
C3316 H3303 0.960 . S
C3316 C3315 1.524 . S
C3317 C3314 1.403 . S
C3317 C3318 1.392 1_545 S
C3317 C3321 1.495 . S
C3318 C3317 1.392 1_565 S
C3318 C3319 1.385 . S
C3318 C3320 1.478 . S
C3319 H3313 0.930 . S
C3319 C3315 1.400 . S
C3319 C3318 1.385 . S
C3320 C3318 1.478 . S
C3320 C3322 1.381 1_565 S
C3320 C3326 1.383 . S
C3321 C3317 1.495 . S
C3321 H3327 0.959 . S
C3321 H3328 0.961 . S
C3321 H3329 0.960 . S
C3322 C3320 1.381 1_545 S
C3322 C3323 1.383 1_545 S
C3322 H3330 0.930 . S
C3323 C3322 1.383 1_565 S
C3323 C3324 1.426 . S
C3323 H3331 0.900 1_565 S
C3324 C3323 1.426 . S
C3324 C3325 1.377 . S
C3325 H3309 0.930 . S
C3325 C3324 1.377 . S
C3325 C3326 1.379 . S
C3326 H3310 0.931 . S
C3326 C3320 1.383 . S
C3326 C3325 1.379 . S
H3327 C3321 0.959 . S
H3328 C3321 0.961 . S
H3329 C3321 0.960 . S
H3330 C3322 0.930 . S
H3331 C3323 0.900 1_545 S
H3332 C3340 0.929 . S
H3333 C3342 0.930 . S
H3334 C3344 0.930 . S
H3335 C3347 0.929 . S
H3336 C3350 0.930 . S
H3337 C3352 0.960 . S
H3338 C3352 0.960 . S
H3339 C3352 0.960 . S
C3340 H3332 0.929 . S
C3340 C3341 1.377 . S
C3340 C3342 1.384 . S
C3341 C3340 1.377 . S
C3341 C3347 1.390 . S
C3342 H3333 0.930 . S
C3342 C3340 1.384 . S
C3342 C3343 1.372 . S
C3343 C3342 1.372 . S
C3343 C3344 1.400 . S
C3343 C3348 1.490 . S
C3344 H3334 0.930 . S
C3344 C3343 1.400 . S
C3344 C3347 1.386 . S
H3345 C3361 0.930 . S
H3346 C3362 0.931 . S
C3347 H3335 0.929 . S
C3347 C3341 1.390 . S
C3347 C3344 1.386 . S
C3348 C3343 1.490 . S
C3348 C3350 1.395 . S
C3348 C3351 1.403 . S
H3349 C3355 0.930 . S
C3350 H3336 0.930 . S
C3350 C3348 1.395 . S
C3350 C3353 1.403 . S
C3351 C3348 1.403 . S
C3351 C3352 1.524 . S
C3351 C3355 1.400 . S
C3352 H3337 0.960 . S
C3352 H3338 0.960 . S
C3352 H3339 0.960 . S
C3352 C3351 1.524 . S
C3353 C3350 1.403 . S
C3353 C3354 1.392 . S
C3353 C3357 1.495 . S
C3354 C3353 1.392 . S
C3354 C3355 1.385 . S
C3354 C3356 1.478 . S
C3355 H3349 0.930 . S
C3355 C3351 1.400 . S
C3355 C3354 1.385 . S
C3356 C3354 1.478 . S
C3356 C3358 1.381 . S
C3356 C3362 1.383 . S
C3357 C3353 1.495 . S
C3357 H3363 0.959 . S
C3357 H3364 0.961 . S
C3357 H3365 0.960 . S
C3358 C3356 1.381 . S
C3358 C3359 1.394 . S
C3358 H3366 0.930 . S
C3359 C3358 1.394 . S
C3359 C3360 1.383 . S
C3359 H3367 0.929 . S
C3360 C3359 1.383 . S
C3360 C3361 1.377 . S
C3361 H3345 0.930 . S
C3361 C3360 1.377 . S
C3361 C3362 1.379 . S
C3362 H3346 0.931 . S
C3362 C3356 1.383 . S
C3362 C3361 1.379 . S
H3363 C3357 0.959 . S
H3364 C3357 0.961 . S
H3365 C3357 0.960 . S
H3366 C3358 0.930 . S
H3367 C3359 0.929 . S
H3368 C3376 0.929 . S
H3369 C3378 0.930 . S
H3370 C3380 0.930 . S
H3371 C3383 0.929 . S
H3372 C3386 0.930 . S
H3373 C3388 0.960 . S
H3374 C3388 0.960 . S
H3375 C3388 0.960 . S
C3376 H3368 0.929 . S
C3376 C3377 1.377 . S
C3376 C3378 1.384 . S
C3377 C3376 1.377 . S
C3377 C3383 1.390 . S
C3378 H3369 0.930 . S
C3378 C3376 1.384 . S
C3378 C3379 1.372 . S
C3379 C3378 1.372 . S
C3379 C3380 1.400 . S
C3379 C3384 1.490 . S
C3380 H3370 0.930 . S
C3380 C3379 1.400 . S
C3380 C3383 1.386 . S
H3381 C3397 0.930 . S
H3382 C3398 0.931 . S
C3383 H3371 0.929 . S
C3383 C3377 1.390 . S
C3383 C3380 1.386 . S
C3384 C3379 1.490 . S
C3384 C3386 1.395 . S
C3384 C3387 1.403 . S
H3385 C3391 0.930 . S
C3386 H3372 0.930 . S
C3386 C3384 1.395 . S
C3386 C3389 1.403 . S
C3387 C3384 1.403 . S
C3387 C3388 1.524 . S
C3387 C3391 1.400 . S
C3388 H3373 0.960 . S
C3388 H3374 0.960 . S
C3388 H3375 0.960 . S
C3388 C3387 1.524 . S
C3389 C3386 1.403 . S
C3389 C3390 1.392 . S
C3389 C3393 1.495 . S
C3390 C3389 1.392 . S
C3390 C3391 1.385 . S
C3390 C3392 1.478 . S
C3391 H3385 0.930 . S
C3391 C3387 1.400 . S
C3391 C3390 1.385 . S
C3392 C3390 1.478 . S
C3392 C3394 1.381 . S
C3392 C3398 1.383 . S
C3393 C3389 1.495 . S
C3393 H3399 0.959 . S
C3393 H3400 0.961 . S
C3393 H3401 0.960 . S
C3394 C3392 1.381 . S
C3394 C3395 1.394 . S
C3394 H3402 0.930 . S
C3395 C3394 1.394 . S
C3395 C3396 1.383 . S
C3395 H3403 0.929 . S
C3396 C3395 1.383 . S
C3396 C3397 1.377 . S
C3397 H3381 0.930 . S
C3397 C3396 1.377 . S
C3397 C3398 1.379 . S
C3398 H3382 0.931 . S
C3398 C3392 1.383 . S
C3398 C3397 1.379 . S
H3399 C3393 0.959 . S
H3400 C3393 0.961 . S
H3401 C3393 0.960 . S
H3402 C3394 0.930 . S
H3403 C3395 0.929 . S
H3404 C3412 0.929 . S
H3405 C3414 0.930 . S
H3406 C3416 0.930 . S
H3407 C3419 0.929 . S
H3408 C3422 0.930 . S
H3409 C3424 0.960 . S
H3410 C3424 0.960 . S
H3411 C3424 0.960 . S
C3412 H3404 0.929 . S
C3412 C3413 1.377 1_565 S
C3412 C3414 1.384 . S
C3413 C3412 1.377 1_545 S
C3413 C3419 1.390 . S
C3414 H3405 0.930 . S
C3414 C3412 1.384 . S
C3414 C3415 1.372 1_565 S
C3415 C3414 1.372 1_545 S
C3415 C3416 1.400 . S
C3415 C3420 1.490 1_545 S
C3416 H3406 0.930 . S
C3416 C3415 1.400 . S
C3416 C3419 1.386 . S
H3417 C3433 0.930 . S
H3418 C3434 0.909 1_545 S
C3419 H3407 0.929 . S
C3419 C3413 1.390 . S
C3419 C3416 1.386 . S
C3420 C3415 1.490 1_565 S
C3420 C3422 1.395 . S
C3420 C3423 1.403 1_565 S
H3421 C3427 0.930 . S
C3422 H3408 0.930 . S
C3422 C3420 1.395 . S
C3422 C3425 1.403 . S
C3423 C3420 1.403 1_545 S
C3423 C3424 1.524 . S
C3423 C3427 1.400 . S
C3424 H3409 0.960 . S
C3424 H3410 0.960 . S
C3424 H3411 0.960 . S
C3424 C3423 1.524 . S
C3425 C3422 1.403 . S
C3425 C3426 1.392 . S
C3425 C3429 1.495 . S
C3426 C3425 1.392 . S
C3426 C3427 1.385 1_565 S
C3426 C3428 1.478 . S
C3427 H3421 0.930 . S
C3427 C3423 1.400 . S
C3427 C3426 1.385 1_545 S
C3428 C3426 1.478 . S
C3428 C3430 1.381 . S
C3428 C3434 1.383 . S
C3429 C3425 1.495 . S
C3429 H3435 0.959 . S
C3429 H3436 0.961 . S
C3429 H3437 0.960 . S
C3430 C3428 1.381 . S
C3430 C3431 1.394 . S
C3430 H3438 0.930 . S
C3431 C3430 1.394 . S
C3431 C3432 1.383 . S
C3431 H3439 0.929 . S
C3432 C3431 1.383 . S
C3432 C3433 1.377 . S
C3433 H3417 0.930 . S
C3433 C3432 1.377 . S
C3433 C3434 1.379 . S
C3434 H3418 0.909 1_565 S
C3434 C3428 1.383 . S
C3434 C3433 1.379 . S
H3435 C3429 0.959 . S
H3436 C3429 0.961 . S
H3437 C3429 0.960 . S
H3438 C3430 0.930 . S
H3439 C3431 0.929 . S
H3440 C3448 0.929 . S
H3441 C3450 0.930 . S
H3442 C3452 0.937 . S
H3443 C3455 0.929 . S
H3444 C3458 0.930 . S
H3445 C3460 0.960 . S
H3446 C3460 0.960 . S
H3447 C3460 0.960 . S
C3448 H3440 0.929 . S
C3448 C3449 1.377 . S
C3448 C3450 1.384 . S
C3449 C3448 1.377 . S
C3449 C3455 1.390 . S
C3450 H3441 0.930 . S
C3450 C3448 1.384 . S
C3450 C3451 1.372 . S
C3451 C3450 1.372 . S
C3451 C3452 1.397 1_565 S
C3451 C3456 1.485 1_565 S
C3452 H3442 0.937 . S
C3452 C3451 1.397 1_545 S
C3452 C3455 1.382 1_545 S
H3453 C3469 0.930 . S
H3454 C3470 0.931 . S
C3455 H3443 0.929 . S
C3455 C3449 1.390 . S
C3455 C3452 1.382 1_565 S
C3456 C3451 1.485 1_545 S
C3456 C3458 1.354 1_545 S
C3456 C3459 1.449 . S
H3457 C3463 0.930 . S
C3458 H3444 0.930 . S
C3458 C3456 1.354 1_565 S
C3458 C3461 1.403 . S
C3459 C3456 1.449 . S
C3459 C3460 1.524 . S
C3459 C3463 1.400 . S
C3460 H3445 0.960 . S
C3460 H3446 0.960 . S
C3460 H3447 0.960 . S
C3460 C3459 1.524 . S
C3461 C3458 1.403 . S
C3461 C3462 1.392 1_565 S
C3461 C3465 1.495 . S
C3462 C3461 1.392 1_545 S
C3462 C3463 1.385 . S
C3462 C3464 1.478 . S
C3463 H3457 0.930 . S
C3463 C3459 1.400 . S
C3463 C3462 1.385 . S
C3464 C3462 1.478 . S
C3464 C3466 1.381 . S
C3464 C3470 1.383 . S
C3465 C3461 1.495 . S
C3465 H3471 0.959 . S
C3465 H3472 0.961 . S
C3465 H3473 0.960 . S
C3466 C3464 1.381 . S
C3466 C3467 1.394 . S
C3466 H3474 0.930 . S
C3467 C3466 1.394 . S
C3467 C3468 1.383 . S
C3467 H3475 0.929 . S
C3468 C3467 1.383 . S
C3468 C3469 1.377 . S
C3469 H3453 0.930 . S
C3469 C3468 1.377 . S
C3469 C3470 1.379 . S
C3470 H3454 0.931 . S
C3470 C3464 1.383 . S
C3470 C3469 1.379 . S
H3471 C3465 0.959 . S
H3472 C3465 0.961 . S
H3473 C3465 0.960 . S
H3474 C3466 0.930 . S
H3475 C3467 0.929 . S
H3476 C3484 0.929 . S
H3477 C3486 0.930 . S
H3478 C3488 0.930 . S
H3479 C3491 0.929 . S
H3480 C3494 0.930 . S
H3481 C3496 0.960 . S
H3482 C3496 0.960 . S
H3483 C3496 0.960 . S
C3484 H3476 0.929 . S
C3484 C3485 1.377 . S
C3484 C3486 1.384 . S
C3485 C3484 1.377 . S
C3485 C3491 1.390 . S
C3486 H3477 0.930 . S
C3486 C3484 1.384 . S
C3486 C3487 1.372 . S
C3487 C3486 1.372 . S
C3487 C3488 1.400 . S
C3487 C3492 1.490 . S
C3488 H3478 0.930 . S
C3488 C3487 1.400 . S
C3488 C3491 1.386 . S
H3489 C3505 0.930 . S
H3490 C3506 0.931 . S
C3491 H3479 0.929 . S
C3491 C3485 1.390 . S
C3491 C3488 1.386 . S
C3492 C3487 1.490 . S
C3492 C3494 1.395 . S
C3492 C3495 1.403 . S
H3493 C3499 0.930 . S
C3494 H3480 0.930 . S
C3494 C3492 1.395 . S
C3494 C3497 1.403 . S
C3495 C3492 1.403 . S
C3495 C3496 1.524 . S
C3495 C3499 1.400 . S
C3496 H3481 0.960 . S
C3496 H3482 0.960 . S
C3496 H3483 0.960 . S
C3496 C3495 1.524 . S
C3497 C3494 1.403 . S
C3497 C3498 1.392 . S
C3497 C3501 1.495 . S
C3498 C3497 1.392 . S
C3498 C3499 1.385 . S
C3498 C3500 1.478 . S
C3499 H3493 0.930 . S
C3499 C3495 1.400 . S
C3499 C3498 1.385 . S
C3500 C3498 1.478 . S
C3500 C3502 1.381 . S
C3500 C3506 1.383 . S
C3501 C3497 1.495 . S
C3501 H3507 0.959 . S
C3501 H3508 0.961 . S
C3501 H3509 0.960 . S
C3502 C3500 1.381 . S
C3502 C3503 1.394 . S
C3502 H3510 0.930 . S
C3503 C3502 1.394 . S
C3503 C3504 1.383 . S
C3503 H3511 0.929 . S
C3504 C3503 1.383 . S
C3504 C3505 1.377 . S
C3505 H3489 0.930 . S
C3505 C3504 1.377 . S
C3505 C3506 1.379 . S
C3506 H3490 0.931 . S
C3506 C3500 1.383 . S
C3506 C3505 1.379 . S
H3507 C3501 0.959 . S
H3508 C3501 0.961 . S
H3509 C3501 0.960 . S
H3510 C3502 0.930 . S
H3511 C3503 0.929 . S
H3512 C3520 0.929 . S
H3513 C3522 0.930 . S
H3514 C3524 0.930 . S
H3515 C3527 0.929 . S
H3516 C3530 0.930 . S
H3517 C3532 0.960 . S
H3518 C3532 0.960 . S
H3519 C3532 0.960 . S
C3520 H3512 0.929 . S
C3520 C3521 1.377 . S
C3520 C3522 1.384 . S
C3521 C3520 1.377 . S
C3521 C3527 1.390 . S
C3522 H3513 0.930 . S
C3522 C3520 1.384 . S
C3522 C3523 1.372 . S
C3523 C3522 1.372 . S
C3523 C3524 1.400 . S
C3523 C3528 1.490 . S
C3524 H3514 0.930 . S
C3524 C3523 1.400 . S
C3524 C3527 1.386 . S
H3525 C3541 0.930 . S
H3526 C3542 0.931 . S
C3527 H3515 0.929 . S
C3527 C3521 1.390 . S
C3527 C3524 1.386 . S
C3528 C3523 1.490 . S
C3528 C3530 1.395 . S
C3528 C3531 1.403 . S
H3529 C3535 0.930 . S
C3530 H3516 0.930 . S
C3530 C3528 1.395 . S
C3530 C3533 1.403 . S
C3531 C3528 1.403 . S
C3531 C3532 1.524 . S
C3531 C3535 1.400 . S
C3532 H3517 0.960 . S
C3532 H3518 0.960 . S
C3532 H3519 0.960 . S
C3532 C3531 1.524 . S
C3533 C3530 1.403 . S
C3533 C3534 1.392 . S
C3533 C3537 1.495 . S
C3534 C3533 1.392 . S
C3534 C3535 1.385 . S
C3534 C3536 1.478 . S
C3535 H3529 0.930 . S
C3535 C3531 1.400 . S
C3535 C3534 1.385 . S
C3536 C3534 1.478 . S
C3536 C3538 1.381 . S
C3536 C3542 1.383 . S
C3537 C3533 1.495 . S
C3537 H3543 0.959 . S
C3537 H3544 0.961 . S
C3537 H3545 0.960 . S
C3538 C3536 1.381 . S
C3538 C3539 1.394 . S
C3538 H3546 0.930 . S
C3539 C3538 1.394 . S
C3539 C3540 1.383 . S
C3539 H3547 0.929 . S
C3540 C3539 1.383 . S
C3540 C3541 1.377 . S
C3541 H3525 0.930 . S
C3541 C3540 1.377 . S
C3541 C3542 1.379 . S
C3542 H3526 0.931 . S
C3542 C3536 1.383 . S
C3542 C3541 1.379 . S
H3543 C3537 0.959 . S
H3544 C3537 0.961 . S
H3545 C3537 0.960 . S
H3546 C3538 0.930 . S
H3547 C3539 0.929 . S
H3548 C3556 0.929 . S
H3549 C3558 0.930 . S
H3550 C3560 0.930 . S
H3551 C3563 0.929 . S
H3552 C3566 0.930 . S
H3553 C3568 0.960 . S
H3554 C3568 0.960 . S
H3555 C3568 0.960 1_545 S
C3556 H3548 0.929 . S
C3556 C3557 1.377 . S
C3556 C3558 1.384 . S
C3557 C3556 1.377 . S
C3557 C3563 1.390 1_565 S
C3558 H3549 0.930 . S
C3558 C3556 1.384 . S
C3558 C3559 1.372 . S
C3559 C3558 1.372 . S
C3559 C3560 1.400 1_565 S
C3559 C3564 1.485 1_565 S
C3560 H3550 0.930 . S
C3560 C3559 1.400 1_545 S
C3560 C3563 1.386 . S
H3561 C3577 0.930 . S
H3562 C3578 0.931 . S
C3563 H3551 0.929 . S
C3563 C3557 1.390 1_545 S
C3563 C3560 1.386 . S
C3564 C3559 1.485 1_545 S
C3564 C3566 1.401 . S
C3564 C3567 1.403 . S
H3565 C3571 0.930 . S
C3566 H3552 0.930 . S
C3566 C3564 1.401 . S
C3566 C3569 1.403 . S
C3567 C3564 1.403 . S
C3567 C3568 1.517 1_545 S
C3567 C3571 1.406 . S
C3568 H3553 0.960 . S
C3568 H3554 0.960 . S
C3568 H3555 0.960 1_565 S
C3568 C3567 1.517 1_565 S
C3569 C3566 1.403 . S
C3569 C3570 1.392 . S
C3569 C3573 1.495 . S
C3570 C3569 1.392 . S
C3570 C3571 1.385 . S
C3570 C3572 1.478 . S
C3571 H3565 0.930 . S
C3571 C3567 1.406 . S
C3571 C3570 1.385 . S
C3572 C3570 1.478 . S
C3572 C3574 1.381 1_545 S
C3572 C3578 1.383 . S
C3573 C3569 1.495 . S
C3573 H3579 0.959 . S
C3573 H3580 0.961 . S
C3573 H3581 0.960 . S
C3574 C3572 1.381 1_565 S
C3574 C3575 1.388 1_565 S
C3574 H3582 0.930 . S
C3575 C3574 1.388 1_545 S
C3575 C3576 1.424 . S
C3575 H3583 0.897 1_545 S
C3576 C3575 1.424 . S
C3576 C3577 1.377 . S
C3577 H3561 0.930 . S
C3577 C3576 1.377 . S
C3577 C3578 1.379 . S
C3578 H3562 0.931 . S
C3578 C3572 1.383 . S
C3578 C3577 1.379 . S
H3579 C3573 0.959 . S
H3580 C3573 0.961 . S
H3581 C3573 0.960 . S
H3582 C3574 0.930 . S
H3583 C3575 0.897 1_565 S
H3584 C3592 0.929 . S
H3585 C3594 0.930 . S
H3586 C3596 0.930 . S
H3587 C3599 0.929 . S
H3588 C3602 0.930 . S
H3589 C3604 0.960 . S
H3590 C3604 0.960 . S
H3591 C3604 0.960 . S
C3592 H3584 0.929 . S
C3592 C3593 1.377 . S
C3592 C3594 1.384 . S
C3593 C3592 1.377 . S
C3593 C3599 1.390 . S
C3594 H3585 0.930 . S
C3594 C3592 1.384 . S
C3594 C3595 1.372 . S
C3595 C3594 1.372 . S
C3595 C3596 1.400 . S
C3595 C3600 1.490 . S
C3596 H3586 0.930 . S
C3596 C3595 1.400 . S
C3596 C3599 1.386 . S
H3597 C3613 0.930 . S
H3598 C3614 0.931 . S
C3599 H3587 0.929 . S
C3599 C3593 1.390 . S
C3599 C3596 1.386 . S
C3600 C3595 1.490 . S
C3600 C3602 1.395 . S
C3600 C3603 1.403 . S
H3601 C3607 0.930 . S
C3602 H3588 0.930 . S
C3602 C3600 1.395 . S
C3602 C3605 1.403 . S
C3603 C3600 1.403 . S
C3603 C3604 1.524 . S
C3603 C3607 1.400 . S
C3604 H3589 0.960 . S
C3604 H3590 0.960 . S
C3604 H3591 0.960 . S
C3604 C3603 1.524 . S
C3605 C3602 1.403 . S
C3605 C3606 1.392 1_455 S
C3605 C3609 1.495 1_455 S
C3606 C3605 1.392 1_655 S
C3606 C3607 1.385 1_655 S
C3606 C3608 1.478 . S
C3607 H3601 0.930 . S
C3607 C3603 1.400 . S
C3607 C3606 1.385 1_455 S
C3608 C3606 1.478 . S
C3608 C3610 1.381 . S
C3608 C3614 1.383 . S
C3609 C3605 1.495 1_655 S
C3609 H3615 0.959 . S
C3609 H3616 0.961 . S
C3609 H3617 0.960 . S
C3610 C3608 1.381 . S
C3610 C3611 1.394 . S
C3610 H3618 0.930 . S
C3611 C3610 1.394 . S
C3611 C3612 1.383 . S
C3611 H3619 0.929 . S
C3612 C3611 1.383 . S
C3612 C3613 1.377 . S
C3613 H3597 0.930 . S
C3613 C3612 1.377 . S
C3613 C3614 1.379 . S
C3614 H3598 0.931 . S
C3614 C3608 1.383 . S
C3614 C3613 1.379 . S
H3615 C3609 0.959 . S
H3616 C3609 0.961 . S
H3617 C3609 0.960 . S
H3618 C3610 0.930 . S
H3619 C3611 0.929 . S
H3620 C3628 0.929 . S
H3621 C3630 0.930 . S
H3622 C3632 0.930 . S
H3623 C3635 0.929 . S
H3624 C3638 0.930 . S
H3625 C3640 0.960 . S
H3626 C3640 0.960 . S
H3627 C3640 0.960 . S
C3628 H3620 0.929 . S
C3628 C3629 1.377 . S
C3628 C3630 1.384 . S
C3629 C3628 1.377 . S
C3629 C3635 1.390 . S
C3630 H3621 0.930 . S
C3630 C3628 1.384 . S
C3630 C3631 1.372 . S
C3631 C3630 1.372 . S
C3631 C3632 1.400 . S
C3631 C3636 1.490 . S
C3632 H3622 0.930 . S
C3632 C3631 1.400 . S
C3632 C3635 1.386 . S
H3633 C3649 0.930 . S
H3634 C3650 0.931 . S
C3635 H3623 0.929 . S
C3635 C3629 1.390 . S
C3635 C3632 1.386 . S
C3636 C3631 1.490 . S
C3636 C3638 1.395 . S
C3636 C3639 1.403 . S
H3637 C3643 0.930 . S
C3638 H3624 0.930 . S
C3638 C3636 1.395 . S
C3638 C3641 1.403 . S
C3639 C3636 1.403 . S
C3639 C3640 1.524 . S
C3639 C3643 1.400 . S
C3640 H3625 0.960 . S
C3640 H3626 0.960 . S
C3640 H3627 0.960 . S
C3640 C3639 1.524 . S
C3641 C3638 1.403 . S
C3641 C3642 1.392 . S
C3641 C3645 1.495 . S
C3642 C3641 1.392 . S
C3642 C3643 1.385 . S
C3642 C3644 1.478 . S
C3643 H3637 0.930 . S
C3643 C3639 1.400 . S
C3643 C3642 1.385 . S
C3644 C3642 1.478 . S
C3644 C3646 1.381 . S
C3644 C3650 1.383 . S
C3645 C3641 1.495 . S
C3645 H3651 0.959 . S
C3645 H3652 0.961 . S
C3645 H3653 0.960 . S
C3646 C3644 1.381 . S
C3646 C3647 1.394 . S
C3646 H3654 0.930 . S
C3647 C3646 1.394 . S
C3647 C3648 1.383 . S
C3647 H3655 0.929 . S
C3648 C3647 1.383 . S
C3648 C3649 1.377 . S
C3649 H3633 0.930 . S
C3649 C3648 1.377 . S
C3649 C3650 1.379 . S
C3650 H3634 0.931 . S
C3650 C3644 1.383 . S
C3650 C3649 1.379 . S
H3651 C3645 0.959 . S
H3652 C3645 0.961 . S
H3653 C3645 0.960 . S
H3654 C3646 0.930 . S
H3655 C3647 0.929 . S
H3656 C3664 0.929 . S
H3657 C3666 0.930 . S
H3658 C3668 0.930 . S
H3659 C3671 0.929 . S
H3660 C3674 0.930 . S
H3661 C3676 0.945 1_455 S
H3662 C3676 0.960 . S
H3663 C3676 0.960 . S
C3664 H3656 0.929 . S
C3664 C3665 1.377 . S
C3664 C3666 1.384 . S
C3665 C3664 1.377 . S
C3665 C3671 1.390 . S
C3666 H3657 0.930 . S
C3666 C3664 1.384 . S
C3666 C3667 1.372 . S
C3667 C3666 1.372 . S
C3667 C3668 1.400 . S
C3667 C3672 1.490 . S
C3668 H3658 0.930 . S
C3668 C3667 1.400 . S
C3668 C3671 1.386 . S
H3669 C3685 0.930 . S
H3670 C3686 0.931 . S
C3671 H3659 0.929 . S
C3671 C3665 1.390 . S
C3671 C3668 1.386 . S
C3672 C3667 1.490 . S
C3672 C3674 1.395 1_655 S
C3672 C3675 1.403 1_655 S
H3673 C3679 0.930 . S
C3674 H3660 0.930 . S
C3674 C3672 1.395 1_455 S
C3674 C3677 1.403 . S
C3675 C3672 1.403 1_455 S
C3675 C3676 1.524 1_455 S
C3675 C3679 1.400 . S
C3676 H3661 0.945 1_655 S
C3676 H3662 0.960 . S
C3676 H3663 0.960 . S
C3676 C3675 1.524 1_655 S
C3677 C3674 1.403 . S
C3677 C3678 1.392 . S
C3677 C3681 1.495 . S
C3678 C3677 1.392 . S
C3678 C3679 1.385 . S
C3678 C3680 1.478 . S
C3679 H3673 0.930 . S
C3679 C3675 1.400 . S
C3679 C3678 1.385 . S
C3680 C3678 1.478 . S
C3680 C3682 1.381 . S
C3680 C3686 1.383 . S
C3681 C3677 1.495 . S
C3681 H3687 0.959 . S
C3681 H3688 0.961 . S
C3681 H3689 0.960 . S
C3682 C3680 1.381 . S
C3682 C3683 1.394 . S
C3682 H3690 0.930 . S
C3683 C3682 1.394 . S
C3683 C3684 1.383 . S
C3683 H3691 0.929 . S
C3684 C3683 1.383 . S
C3684 C3685 1.377 . S
C3685 H3669 0.930 . S
C3685 C3684 1.377 . S
C3685 C3686 1.379 . S
C3686 H3670 0.931 . S
C3686 C3680 1.383 . S
C3686 C3685 1.379 . S
H3687 C3681 0.959 . S
H3688 C3681 0.961 . S
H3689 C3681 0.960 . S
H3690 C3682 0.930 . S
H3691 C3683 0.929 . S
H3692 C3700 0.929 . S
H3693 C3702 0.930 . S
H3694 C3704 0.930 . S
H3695 C3707 0.929 . S
H3696 C3710 0.930 . S
H3697 C3712 0.960 . S
H3698 C3712 0.960 . S
H3699 C3712 0.960 . S
C3700 H3692 0.929 . S
C3700 C3701 1.377 . S
C3700 C3702 1.384 . S
C3701 C3700 1.377 . S
C3701 C3707 1.390 . S
C3702 H3693 0.930 . S
C3702 C3700 1.384 . S
C3702 C3703 1.372 . S
C3703 C3702 1.372 . S
C3703 C3704 1.400 . S
C3703 C3708 1.490 . S
C3704 H3694 0.930 . S
C3704 C3703 1.400 . S
C3704 C3707 1.386 . S
H3705 C3721 0.930 . S
H3706 C3722 0.931 . S
C3707 H3695 0.929 . S
C3707 C3701 1.390 . S
C3707 C3704 1.386 . S
C3708 C3703 1.490 . S
C3708 C3710 1.395 . S
C3708 C3711 1.403 . S
H3709 C3715 0.930 . S
C3710 H3696 0.930 . S
C3710 C3708 1.395 . S
C3710 C3713 1.403 . S
C3711 C3708 1.403 . S
C3711 C3712 1.524 . S
C3711 C3715 1.400 . S
C3712 H3697 0.960 . S
C3712 H3698 0.960 . S
C3712 H3699 0.960 . S
C3712 C3711 1.524 . S
C3713 C3710 1.403 . S
C3713 C3714 1.392 . S
C3713 C3717 1.495 . S
C3714 C3713 1.392 . S
C3714 C3715 1.385 . S
C3714 C3716 1.478 . S
C3715 H3709 0.930 . S
C3715 C3711 1.400 . S
C3715 C3714 1.385 . S
C3716 C3714 1.478 . S
C3716 C3718 1.381 . S
C3716 C3722 1.383 . S
C3717 C3713 1.495 . S
C3717 H3723 0.959 . S
C3717 H3724 0.961 . S
C3717 H3725 0.960 . S
C3718 C3716 1.381 . S
C3718 C3719 1.394 . S
C3718 H3726 0.930 . S
C3719 C3718 1.394 . S
C3719 C3720 1.383 . S
C3719 H3727 0.929 . S
C3720 C3719 1.383 . S
C3720 C3721 1.377 . S
C3721 H3705 0.930 . S
C3721 C3720 1.377 . S
C3721 C3722 1.379 . S
C3722 H3706 0.931 . S
C3722 C3716 1.383 . S
C3722 C3721 1.379 . S
H3723 C3717 0.959 . S
H3724 C3717 0.961 . S
H3725 C3717 0.960 . S
H3726 C3718 0.930 . S
H3727 C3719 0.929 . S
H3728 C3736 0.929 . S
H3729 C3738 0.930 . S
H3730 C3740 0.930 . S
H3731 C3743 0.929 . S
H3732 C3746 0.930 . S
H3733 C3748 0.960 . S
H3734 C3748 0.960 . S
H3735 C3748 0.960 . S
C3736 H3728 0.929 . S
C3736 C3737 1.377 . S
C3736 C3738 1.384 . S
C3737 C3736 1.377 . S
C3737 C3743 1.390 . S
C3738 H3729 0.930 . S
C3738 C3736 1.384 . S
C3738 C3739 1.372 . S
C3739 C3738 1.372 . S
C3739 C3740 1.400 . S
C3739 C3744 1.490 . S
C3740 H3730 0.930 . S
C3740 C3739 1.400 . S
C3740 C3743 1.386 . S
H3741 C3757 0.930 . S
H3742 C3758 0.931 . S
C3743 H3731 0.929 . S
C3743 C3737 1.390 . S
C3743 C3740 1.386 . S
C3744 C3739 1.490 . S
C3744 C3746 1.395 . S
C3744 C3747 1.403 . S
H3745 C3751 0.930 1_455 S
C3746 H3732 0.930 . S
C3746 C3744 1.395 . S
C3746 C3749 1.403 . S
C3747 C3744 1.403 . S
C3747 C3748 1.524 . S
C3747 C3751 1.400 . S
C3748 H3733 0.960 . S
C3748 H3734 0.960 . S
C3748 H3735 0.960 . S
C3748 C3747 1.524 . S
C3749 C3746 1.403 . S
C3749 C3750 1.392 1_655 S
C3749 C3753 1.495 . S
C3750 C3749 1.392 1_455 S
C3750 C3751 1.385 1_455 S
C3750 C3752 1.478 . S
C3751 H3745 0.930 1_655 S
C3751 C3747 1.400 . S
C3751 C3750 1.385 1_655 S
C3752 C3750 1.478 . S
C3752 C3754 1.381 . S
C3752 C3758 1.383 . S
C3753 C3749 1.495 . S
C3753 H3759 0.959 . S
C3753 H3760 0.961 1_655 S
C3753 H3761 0.960 1_655 S
C3754 C3752 1.381 . S
C3754 C3755 1.394 . S
C3754 H3762 0.930 . S
C3755 C3754 1.394 . S
C3755 C3756 1.383 . S
C3755 H3763 0.929 . S
C3756 C3755 1.383 . S
C3756 C3757 1.377 . S
C3757 H3741 0.930 . S
C3757 C3756 1.377 . S
C3757 C3758 1.379 . S
C3758 H3742 0.931 . S
C3758 C3752 1.383 . S
C3758 C3757 1.379 . S
H3759 C3753 0.959 . S
H3760 C3753 0.961 1_455 S
H3761 C3753 0.960 1_455 S
H3762 C3754 0.930 . S
H3763 C3755 0.929 . S
H3764 C3772 0.929 . S
H3765 C3774 0.930 . S
H3766 C3776 0.930 . S
H3767 C3779 0.929 . S
H3768 C3782 0.930 . S
H3769 C3784 0.960 . S
H3770 C3784 0.960 . S
H3771 C3784 0.960 . S
C3772 H3764 0.929 . S
C3772 C3773 1.377 . S
C3772 C3774 1.384 . S
C3773 C3772 1.377 . S
C3773 C3779 1.390 . S
C3774 H3765 0.930 . S
C3774 C3772 1.384 . S
C3774 C3775 1.372 . S
C3775 C3774 1.372 . S
C3775 C3776 1.400 . S
C3775 C3780 1.490 . S
C3776 H3766 0.930 . S
C3776 C3775 1.400 . S
C3776 C3779 1.386 . S
H3777 C3793 0.930 . S
H3778 C3794 0.931 . S
C3779 H3767 0.929 . S
C3779 C3773 1.390 . S
C3779 C3776 1.386 . S
C3780 C3775 1.490 . S
C3780 C3782 1.395 . S
C3780 C3783 1.403 . S
H3781 C3787 0.930 . S
C3782 H3768 0.930 . S
C3782 C3780 1.395 . S
C3782 C3785 1.403 . S
C3783 C3780 1.403 . S
C3783 C3784 1.524 . S
C3783 C3787 1.400 . S
C3784 H3769 0.960 . S
C3784 H3770 0.960 . S
C3784 H3771 0.960 . S
C3784 C3783 1.524 . S
C3785 C3782 1.403 . S
C3785 C3786 1.392 . S
C3785 C3789 1.495 . S
C3786 C3785 1.392 . S
C3786 C3787 1.385 . S
C3786 C3788 1.478 . S
C3787 H3781 0.930 . S
C3787 C3783 1.400 . S
C3787 C3786 1.385 . S
C3788 C3786 1.478 . S
C3788 C3790 1.381 . S
C3788 C3794 1.383 . S
C3789 C3785 1.495 . S
C3789 H3795 0.959 . S
C3789 H3796 0.961 . S
C3789 H3797 0.960 . S
C3790 C3788 1.381 . S
C3790 C3791 1.394 . S
C3790 H3798 0.930 . S
C3791 C3790 1.394 . S
C3791 C3792 1.383 . S
C3791 H3799 0.929 . S
C3792 C3791 1.383 . S
C3792 C3793 1.377 . S
C3793 H3777 0.930 . S
C3793 C3792 1.377 . S
C3793 C3794 1.379 . S
C3794 H3778 0.931 . S
C3794 C3788 1.383 . S
C3794 C3793 1.379 . S
H3795 C3789 0.959 . S
H3796 C3789 0.961 . S
H3797 C3789 0.960 . S
H3798 C3790 0.930 . S
H3799 C3791 0.929 . S
H3800 C3808 0.929 . S
H3801 C3810 0.930 . S
H3802 C3812 0.930 . S
H3803 C3815 0.929 . S
H3804 C3818 0.930 1_455 S
H3805 C3820 0.960 . S
H3806 C3820 0.960 1_455 S
H3807 C3820 0.960 1_455 S
C3808 H3800 0.929 . S
C3808 C3809 1.377 . S
C3808 C3810 1.384 . S
C3809 C3808 1.377 . S
C3809 C3815 1.390 . S
C3810 H3801 0.930 . S
C3810 C3808 1.384 . S
C3810 C3811 1.372 . S
C3811 C3810 1.372 . S
C3811 C3812 1.400 . S
C3811 C3816 1.490 . S
C3812 H3802 0.930 . S
C3812 C3811 1.400 . S
C3812 C3815 1.386 . S
H3813 C3829 0.930 . S
H3814 C3830 0.931 . S
C3815 H3803 0.929 . S
C3815 C3809 1.390 . S
C3815 C3812 1.386 . S
C3816 C3811 1.490 . S
C3816 C3818 1.395 1_455 S
C3816 C3819 1.403 1_455 S
H3817 C3823 0.930 . S
C3818 H3804 0.930 1_655 S
C3818 C3816 1.395 1_655 S
C3818 C3821 1.403 . S
C3819 C3816 1.403 1_655 S
C3819 C3820 1.524 . S
C3819 C3823 1.400 . S
C3820 H3805 0.960 . S
C3820 H3806 0.960 1_655 S
C3820 H3807 0.960 1_655 S
C3820 C3819 1.524 . S
C3821 C3818 1.403 . S
C3821 C3822 1.392 . S
C3821 C3825 1.495 . S
C3822 C3821 1.392 . S
C3822 C3823 1.385 . S
C3822 C3824 1.478 . S
C3823 H3817 0.930 . S
C3823 C3819 1.400 . S
C3823 C3822 1.385 . S
C3824 C3822 1.478 . S
C3824 C3826 1.381 . S
C3824 C3830 1.383 . S
C3825 C3821 1.495 . S
C3825 H3831 0.959 . S
C3825 H3832 0.961 . S
C3825 H3833 0.960 . S
C3826 C3824 1.381 . S
C3826 C3827 1.394 . S
C3826 H3834 0.930 . S
C3827 C3826 1.394 . S
C3827 C3828 1.383 . S
C3827 H3835 0.929 . S
C3828 C3827 1.383 . S
C3828 C3829 1.377 . S
C3829 H3813 0.930 . S
C3829 C3828 1.377 . S
C3829 C3830 1.379 . S
C3830 H3814 0.931 . S
C3830 C3824 1.383 . S
C3830 C3829 1.379 . S
H3831 C3825 0.959 . S
H3832 C3825 0.961 . S
H3833 C3825 0.960 . S
H3834 C3826 0.930 . S
H3835 C3827 0.929 . S
H3836 C3844 0.929 . S
H3837 C3846 0.930 . S
H3838 C3848 0.930 . S
H3839 C3851 0.929 . S
H3840 C3854 0.930 . S
H3841 C3856 0.960 . S
H3842 C3856 0.960 . S
H3843 C3856 0.960 . S
C3844 H3836 0.929 . S
C3844 C3845 1.377 . S
C3844 C3846 1.384 . S
C3845 C3844 1.377 . S
C3845 C3851 1.390 . S
C3846 H3837 0.930 . S
C3846 C3844 1.384 . S
C3846 C3847 1.372 . S
C3847 C3846 1.372 . S
C3847 C3848 1.400 . S
C3847 C3852 1.490 . S
C3848 H3838 0.930 . S
C3848 C3847 1.400 . S
C3848 C3851 1.386 . S
H3849 C3865 0.930 . S
H3850 C3866 0.931 . S
C3851 H3839 0.929 . S
C3851 C3845 1.390 . S
C3851 C3848 1.386 . S
C3852 C3847 1.490 . S
C3852 C3854 1.395 . S
C3852 C3855 1.403 . S
H3853 C3859 0.930 . S
C3854 H3840 0.930 . S
C3854 C3852 1.395 . S
C3854 C3857 1.403 . S
C3855 C3852 1.403 . S
C3855 C3856 1.524 . S
C3855 C3859 1.400 . S
C3856 H3841 0.960 . S
C3856 H3842 0.960 . S
C3856 H3843 0.960 . S
C3856 C3855 1.524 . S
C3857 C3854 1.403 . S
C3857 C3858 1.392 . S
C3857 C3861 1.495 . S
C3858 C3857 1.392 . S
C3858 C3859 1.385 . S
C3858 C3860 1.478 . S
C3859 H3853 0.930 . S
C3859 C3855 1.400 . S
C3859 C3858 1.385 . S
C3860 C3858 1.478 . S
C3860 C3862 1.381 . S
C3860 C3866 1.383 . S
C3861 C3857 1.495 . S
C3861 H3867 0.959 . S
C3861 H3868 0.961 . S
C3861 H3869 0.960 . S
C3862 C3860 1.381 . S
C3862 C3863 1.394 . S
C3862 H3870 0.930 . S
C3863 C3862 1.394 . S
C3863 C3864 1.383 . S
C3863 H3871 0.929 . S
C3864 C3863 1.383 . S
C3864 C3865 1.377 . S
C3865 H3849 0.930 . S
C3865 C3864 1.377 . S
C3865 C3866 1.379 . S
C3866 H3850 0.931 . S
C3866 C3860 1.383 . S
C3866 C3865 1.379 . S
H3867 C3861 0.959 . S
H3868 C3861 0.961 . S
H3869 C3861 0.960 . S
H3870 C3862 0.930 . S
H3871 C3863 0.929 . S
H3872 C3880 0.929 . S
H3873 C3882 0.930 . S
H3874 C3884 0.930 . S
H3875 C3887 0.929 . S
H3876 C3890 0.930 1_655 S
H3877 C3892 0.960 1_455 S
H3878 C3892 0.960 . S
H3879 C3892 0.960 1_545 S
C3880 H3872 0.929 . S
C3880 C3881 1.377 1_565 S
C3880 C3882 1.384 . S
C3881 C3880 1.377 1_545 S
C3881 C3887 1.390 . S
C3882 H3873 0.930 . S
C3882 C3880 1.384 . S
C3882 C3883 1.346 1_565 S
C3883 C3882 1.346 1_545 S
C3883 C3884 1.433 . S
C3883 C3888 1.484 1_545 S
C3884 H3874 0.930 . S
C3884 C3883 1.433 . S
C3884 C3887 1.386 . S
H3885 C3901 0.940 . S
H3886 C3902 0.931 . S
C3887 H3875 0.929 . S
C3887 C3881 1.390 . S
C3887 C3884 1.386 . S
C3888 C3883 1.484 1_565 S
C3888 C3890 1.395 1_655 S
C3888 C3891 1.403 1_655 S
H3889 C3895 0.930 . S
C3890 H3876 0.930 1_455 S
C3890 C3888 1.395 1_455 S
C3890 C3893 1.403 . S
C3891 C3888 1.403 1_455 S
C3891 C3892 1.524 1_455 S
C3891 C3895 1.400 . S
C3892 H3877 0.960 1_655 S
C3892 H3878 0.960 . S
C3892 H3879 0.960 1_565 S
C3892 C3891 1.524 1_655 S
C3893 C3890 1.403 . S
C3893 C3894 1.392 . S
C3893 C3897 1.495 . S
C3894 C3893 1.392 . S
C3894 C3895 1.385 . S
C3894 C3896 1.478 . S
C3895 H3889 0.930 . S
C3895 C3891 1.400 . S
C3895 C3894 1.385 . S
C3896 C3894 1.478 . S
C3896 C3898 1.381 . S
C3896 C3902 1.383 1_565 S
C3897 C3893 1.495 . S
C3897 H3903 0.959 . S
C3897 H3904 0.961 1_565 S
C3897 H3905 0.960 . S
C3898 C3896 1.381 . S
C3898 C3899 1.394 . S
C3898 H3906 0.930 . S
C3899 C3898 1.394 . S
C3899 C3900 1.383 . S
C3899 H3907 0.929 . S
C3900 C3899 1.383 . S
C3900 C3901 1.365 1_565 S
C3901 H3885 0.940 . S
C3901 C3900 1.365 1_545 S
C3901 C3902 1.382 . S
C3902 H3886 0.931 . S
C3902 C3896 1.383 1_545 S
C3902 C3901 1.382 . S
H3903 C3897 0.959 . S
H3904 C3897 0.961 1_545 S
H3905 C3897 0.960 . S
H3906 C3898 0.930 . S
H3907 C3899 0.929 . S
H3908 C3916 0.929 . S
H3909 C3918 0.930 . S
H3910 C3920 0.930 . S
H3911 C3923 0.929 . S
H3912 C3926 0.930 . S
H3913 C3928 0.960 . S
H3914 C3928 0.960 . S
H3915 C3928 0.960 . S
C3916 H3908 0.929 . S
C3916 C3917 1.377 . S
C3916 C3918 1.384 . S
C3917 C3916 1.377 . S
C3917 C3923 1.390 . S
C3918 H3909 0.930 . S
C3918 C3916 1.384 . S
C3918 C3919 1.372 . S
C3919 C3918 1.372 . S
C3919 C3920 1.400 . S
C3919 C3924 1.490 . S
C3920 H3910 0.930 . S
C3920 C3919 1.400 . S
C3920 C3923 1.386 . S
H3921 C3937 0.930 . S
H3922 C3938 0.931 . S
C3923 H3911 0.929 . S
C3923 C3917 1.390 . S
C3923 C3920 1.386 . S
C3924 C3919 1.490 . S
C3924 C3926 1.395 . S
C3924 C3927 1.403 . S
H3925 C3931 0.930 . S
C3926 H3912 0.930 . S
C3926 C3924 1.395 . S
C3926 C3929 1.403 . S
C3927 C3924 1.403 . S
C3927 C3928 1.524 . S
C3927 C3931 1.400 . S
C3928 H3913 0.960 . S
C3928 H3914 0.960 . S
C3928 H3915 0.960 . S
C3928 C3927 1.524 . S
C3929 C3926 1.403 . S
C3929 C3930 1.392 . S
C3929 C3933 1.495 . S
C3930 C3929 1.392 . S
C3930 C3931 1.385 . S
C3930 C3932 1.478 . S
C3931 H3925 0.930 . S
C3931 C3927 1.400 . S
C3931 C3930 1.385 . S
C3932 C3930 1.478 . S
C3932 C3934 1.381 . S
C3932 C3938 1.383 . S
C3933 C3929 1.495 . S
C3933 H3939 0.959 . S
C3933 H3940 0.961 . S
C3933 H3941 0.960 . S
C3934 C3932 1.381 . S
C3934 C3935 1.394 . S
C3934 H3942 0.930 . S
C3935 C3934 1.394 . S
C3935 C3936 1.383 . S
C3935 H3943 0.929 . S
C3936 C3935 1.383 . S
C3936 C3937 1.377 . S
C3937 H3921 0.930 . S
C3937 C3936 1.377 . S
C3937 C3938 1.379 . S
C3938 H3922 0.931 . S
C3938 C3932 1.383 . S
C3938 C3937 1.379 . S
H3939 C3933 0.959 . S
H3940 C3933 0.961 . S
H3941 C3933 0.960 . S
H3942 C3934 0.930 . S
H3943 C3935 0.929 . S
H3944 C3952 0.929 . S
H3945 C3954 0.930 . S
H3946 C3956 0.930 . S
H3947 C3959 0.929 . S
H3948 C3962 0.930 . S
H3949 C3964 0.960 1_455 S
H3950 C3964 0.960 . S
H3951 C3964 0.960 . S
C3952 H3944 0.929 . S
C3952 C3953 1.377 . S
C3952 C3954 1.384 . S
C3953 C3952 1.377 . S
C3953 C3959 1.390 . S
C3954 H3945 0.930 . S
C3954 C3952 1.384 . S
C3954 C3955 1.372 . S
C3955 C3954 1.372 . S
C3955 C3956 1.400 . S
C3955 C3960 1.490 . S
C3956 H3946 0.930 . S
C3956 C3955 1.400 . S
C3956 C3959 1.386 . S
H3957 C3973 0.930 . S
H3958 C3974 0.931 . S
C3959 H3947 0.929 . S
C3959 C3953 1.390 . S
C3959 C3956 1.386 . S
C3960 C3955 1.490 . S
C3960 C3962 1.395 1_655 S
C3960 C3963 1.403 1_655 S
H3961 C3967 0.930 . S
C3962 H3948 0.930 . S
C3962 C3960 1.395 1_455 S
C3962 C3965 1.403 . S
C3963 C3960 1.403 1_455 S
C3963 C3964 1.524 1_455 S
C3963 C3967 1.400 . S
C3964 H3949 0.960 1_655 S
C3964 H3950 0.960 . S
C3964 H3951 0.960 . S
C3964 C3963 1.524 1_655 S
C3965 C3962 1.403 . S
C3965 C3966 1.392 . S
C3965 C3969 1.495 . S
C3966 C3965 1.392 . S
C3966 C3967 1.385 . S
C3966 C3968 1.478 . S
C3967 H3961 0.930 . S
C3967 C3963 1.400 . S
C3967 C3966 1.385 . S
C3968 C3966 1.478 . S
C3968 C3970 1.381 . S
C3968 C3974 1.383 . S
C3969 C3965 1.495 . S
C3969 H3975 0.959 . S
C3969 H3976 0.961 . S
C3969 H3977 0.960 . S
C3970 C3968 1.381 . S
C3970 C3971 1.394 . S
C3970 H3978 0.930 . S
C3971 C3970 1.394 . S
C3971 C3972 1.383 . S
C3971 H3979 0.929 . S
C3972 C3971 1.383 . S
C3972 C3973 1.377 . S
C3973 H3957 0.930 . S
C3973 C3972 1.377 . S
C3973 C3974 1.379 . S
C3974 H3958 0.931 . S
C3974 C3968 1.383 . S
C3974 C3973 1.379 . S
H3975 C3969 0.959 . S
H3976 C3969 0.961 . S
H3977 C3969 0.960 . S
H3978 C3970 0.930 . S
H3979 C3971 0.929 . S
H3980 C3988 0.929 . S
H3981 C3990 0.930 . S
H3982 C3992 0.930 . S
H3983 C3995 0.929 1_565 S
H3984 C3998 0.930 . S
H3985 C4000 0.960 . S
H3986 C4000 0.960 . S
H3987 C4000 0.960 . S
C3988 H3980 0.929 . S
C3988 C3989 1.377 . S
C3988 C3990 1.384 . S
C3989 C3988 1.377 . S
C3989 C3995 1.390 . S
C3990 H3981 0.930 . S
C3990 C3988 1.384 . S
C3990 C3991 1.372 . S
C3991 C3990 1.372 . S
C3991 C3992 1.400 1_545 S
C3991 C3996 1.486 1_545 S
C3992 H3982 0.930 . S
C3992 C3991 1.400 1_565 S
C3992 C3995 1.385 1_565 S
H3993 C4009 0.930 . S
H3994 C4010 0.931 . S
C3995 H3983 0.929 1_545 S
C3995 C3989 1.390 . S
C3995 C3992 1.385 1_545 S
C3996 C3991 1.486 1_565 S
C3996 C3998 1.363 1_565 S
C3996 C3999 1.439 . S
H3997 C4003 0.930 . S
C3998 H3984 0.930 . S
C3998 C3996 1.363 1_545 S
C3998 C4001 1.403 . S
C3999 C3996 1.439 . S
C3999 C4000 1.524 . S
C3999 C4003 1.400 . S
C4000 H3985 0.960 . S
C4000 H3986 0.960 . S
C4000 H3987 0.960 . S
C4000 C3999 1.524 . S
C4001 C3998 1.403 . S
C4001 C4002 1.392 1_545 S
C4001 C4005 1.495 . S
C4002 C4001 1.392 1_565 S
C4002 C4003 1.385 . S
C4002 C4004 1.478 . S
C4003 H3997 0.930 . S
C4003 C3999 1.400 . S
C4003 C4002 1.385 . S
C4004 C4002 1.478 . S
C4004 C4006 1.381 . S
C4004 C4010 1.383 . S
C4005 C4001 1.495 . S
C4005 H4011 0.959 . S
C4005 H4012 0.961 . S
C4005 H4013 0.960 . S
C4006 C4004 1.381 . S
C4006 C4007 1.394 . S
C4006 H4014 0.946 . S
C4007 C4006 1.394 . S
C4007 C4008 1.383 . S
C4007 H4015 0.929 . S
C4008 C4007 1.383 . S
C4008 C4009 1.377 . S
C4009 H3993 0.930 . S
C4009 C4008 1.377 . S
C4009 C4010 1.379 . S
C4010 H3994 0.931 . S
C4010 C4004 1.383 . S
C4010 C4009 1.379 . S
H4011 C4005 0.959 . S
H4012 C4005 0.961 . S
H4013 C4005 0.960 . S
H4014 C4006 0.946 . S
H4015 C4007 0.929 . S
H4016 C4024 0.929 . S
H4017 C4026 0.930 . S
H4018 C4028 0.930 . S
H4019 C4031 0.929 . S
H4020 C4034 0.930 . S
H4021 C4036 0.960 . S
H4022 C4036 0.960 . S
H4023 C4036 0.960 . S
C4024 H4016 0.929 . S
C4024 C4025 1.377 . S
C4024 C4026 1.384 . S
C4025 C4024 1.377 . S
C4025 C4031 1.390 . S
C4026 H4017 0.930 . S
C4026 C4024 1.384 . S
C4026 C4027 1.372 . S
C4027 C4026 1.372 . S
C4027 C4028 1.400 . S
C4027 C4032 1.490 . S
C4028 H4018 0.930 . S
C4028 C4027 1.400 . S
C4028 C4031 1.386 . S
H4029 C4045 0.930 . S
H4030 C4046 0.931 . S
C4031 H4019 0.929 . S
C4031 C4025 1.390 . S
C4031 C4028 1.386 . S
C4032 C4027 1.490 . S
C4032 C4034 1.395 1_545 S
C4032 C4035 1.403 . S
H4033 C4039 0.930 1_455 S
C4034 H4020 0.930 . S
C4034 C4032 1.395 1_565 S
C4034 C4037 1.403 . S
C4035 C4032 1.403 . S
C4035 C4036 1.524 . S
C4035 C4039 1.400 . S
C4036 H4021 0.960 . S
C4036 H4022 0.960 . S
C4036 H4023 0.960 . S
C4036 C4035 1.524 . S
C4037 C4034 1.403 . S
C4037 C4038 1.392 1_655 S
C4037 C4041 1.495 . S
C4038 C4037 1.392 1_455 S
C4038 C4039 1.385 1_465 S
C4038 C4040 1.478 . S
C4039 H4033 0.930 1_655 S
C4039 C4035 1.400 . S
C4039 C4038 1.385 1_645 S
C4040 C4038 1.478 . S
C4040 C4042 1.381 . S
C4040 C4046 1.383 . S
C4041 C4037 1.495 . S
C4041 H4047 0.959 . S
C4041 H4048 0.961 1_655 S
C4041 H4049 0.960 1_655 S
C4042 C4040 1.381 . S
C4042 C4043 1.394 . S
C4042 H4050 0.930 . S
C4043 C4042 1.394 . S
C4043 C4044 1.383 . S
C4043 H4051 0.929 . S
C4044 C4043 1.383 . S
C4044 C4045 1.377 . S
C4045 H4029 0.930 . S
C4045 C4044 1.377 . S
C4045 C4046 1.379 . S
C4046 H4030 0.931 . S
C4046 C4040 1.383 . S
C4046 C4045 1.379 . S
H4047 C4041 0.959 . S
H4048 C4041 0.961 1_455 S
H4049 C4041 0.960 1_455 S
H4050 C4042 0.930 . S
H4051 C4043 0.929 . S
H4052 C4060 0.929 . S
H4053 C4062 0.930 . S
H4054 C4064 0.930 . S
H4055 C4067 0.929 . S
H4056 C4070 0.930 . S
H4057 C4072 0.960 . S
H4058 C4072 0.960 . S
H4059 C4072 0.960 . S
C4060 H4052 0.929 . S
C4060 C4061 1.377 . S
C4060 C4062 1.384 . S
C4061 C4060 1.377 . S
C4061 C4067 1.390 . S
C4062 H4053 0.930 . S
C4062 C4060 1.384 . S
C4062 C4063 1.372 . S
C4063 C4062 1.372 . S
C4063 C4064 1.400 . S
C4063 C4068 1.490 . S
C4064 H4054 0.930 . S
C4064 C4063 1.400 . S
C4064 C4067 1.386 . S
H4065 C4081 0.930 . S
H4066 C4082 0.931 . S
C4067 H4055 0.929 . S
C4067 C4061 1.390 . S
C4067 C4064 1.386 . S
C4068 C4063 1.490 . S
C4068 C4070 1.395 . S
C4068 C4071 1.403 . S
H4069 C4075 0.930 . S
C4070 H4056 0.930 . S
C4070 C4068 1.395 . S
C4070 C4073 1.403 . S
C4071 C4068 1.403 . S
C4071 C4072 1.524 . S
C4071 C4075 1.400 . S
C4072 H4057 0.960 . S
C4072 H4058 0.960 . S
C4072 H4059 0.960 . S
C4072 C4071 1.524 . S
C4073 C4070 1.403 . S
C4073 C4074 1.392 . S
C4073 C4077 1.495 . S
C4074 C4073 1.392 . S
C4074 C4075 1.385 . S
C4074 C4076 1.478 . S
C4075 H4069 0.930 . S
C4075 C4071 1.400 . S
C4075 C4074 1.385 . S
C4076 C4074 1.478 . S
C4076 C4078 1.381 . S
C4076 C4082 1.383 . S
C4077 C4073 1.495 . S
C4077 H4083 0.959 . S
C4077 H4084 0.961 . S
C4077 H4085 0.960 . S
C4078 C4076 1.381 . S
C4078 C4079 1.394 . S
C4078 H4086 0.930 . S
C4079 C4078 1.394 . S
C4079 C4080 1.383 . S
C4079 H4087 0.929 . S
C4080 C4079 1.383 . S
C4080 C4081 1.377 . S
C4081 H4065 0.930 . S
C4081 C4080 1.377 . S
C4081 C4082 1.379 . S
C4082 H4066 0.931 . S
C4082 C4076 1.383 . S
C4082 C4081 1.379 . S
H4083 C4077 0.959 . S
H4084 C4077 0.961 . S
H4085 C4077 0.960 . S
H4086 C4078 0.930 . S
H4087 C4079 0.929 . S
H4088 C4096 0.929 . S
H4089 C4098 0.930 . S
H4090 C4100 0.930 . S
H4091 C4103 0.929 . S
H4092 C4106 0.919 1_455 S
H4093 C4108 0.960 1_655 S
H4094 C4108 0.960 . S
H4095 C4108 0.960 . S
C4096 H4088 0.929 . S
C4096 C4097 1.377 . S
C4096 C4098 1.384 . S
C4097 C4096 1.377 . S
C4097 C4103 1.390 . S
C4098 H4089 0.930 . S
C4098 C4096 1.384 . S
C4098 C4099 1.372 . S
C4099 C4098 1.372 . S
C4099 C4100 1.400 . S
C4099 C4104 1.490 . S
C4100 H4090 0.930 . S
C4100 C4099 1.400 . S
C4100 C4103 1.386 . S
H4101 C4117 0.930 . S
H4102 C4118 0.931 . S
C4103 H4091 0.929 . S
C4103 C4097 1.390 . S
C4103 C4100 1.386 . S
C4104 C4099 1.490 . S
C4104 C4106 1.395 1_455 S
C4104 C4107 1.403 1_455 S
H4105 C4111 0.930 . S
C4106 H4092 0.919 1_655 S
C4106 C4104 1.395 1_655 S
C4106 C4109 1.403 . S
C4107 C4104 1.403 1_655 S
C4107 C4108 1.524 1_655 S
C4107 C4111 1.400 . S
C4108 H4093 0.960 1_455 S
C4108 H4094 0.960 . S
C4108 H4095 0.960 . S
C4108 C4107 1.524 1_455 S
C4109 C4106 1.403 . S
C4109 C4110 1.392 . S
C4109 C4113 1.495 . S
C4110 C4109 1.392 . S
C4110 C4111 1.385 . S
C4110 C4112 1.478 . S
C4111 H4105 0.930 . S
C4111 C4107 1.400 . S
C4111 C4110 1.385 . S
C4112 C4110 1.478 . S
C4112 C4114 1.381 . S
C4112 C4118 1.383 . S
C4113 C4109 1.495 . S
C4113 H4119 0.959 . S
C4113 H4120 0.961 . S
C4113 H4121 0.960 . S
C4114 C4112 1.381 . S
C4114 C4115 1.394 . S
C4114 H4122 0.930 . S
C4115 C4114 1.394 . S
C4115 C4116 1.383 . S
C4115 H4123 0.929 . S
C4116 C4115 1.383 . S
C4116 C4117 1.377 . S
C4117 H4101 0.930 . S
C4117 C4116 1.377 . S
C4117 C4118 1.379 . S
C4118 H4102 0.931 . S
C4118 C4112 1.383 . S
C4118 C4117 1.379 . S
H4119 C4113 0.959 . S
H4120 C4113 0.961 . S
H4121 C4113 0.960 . S
H4122 C4114 0.930 . S
H4123 C4115 0.929 . S
H4124 C4132 0.925 1_545 S
H4125 C4134 0.930 . S
H4126 C4136 0.930 . S
H4127 C4139 0.929 . S
H4128 C4142 0.930 . S
H4129 C4144 0.960 . S
H4130 C4144 0.960 . S
H4131 C4144 0.960 . S
C4132 H4124 0.925 1_565 S
C4132 C4133 1.385 . S
C4132 C4134 1.381 1_565 S
C4133 C4132 1.385 . S
C4133 C4139 1.390 . S
C4134 H4125 0.930 . S
C4134 C4132 1.381 1_545 S
C4134 C4135 1.372 1_545 S
C4135 C4134 1.372 1_565 S
C4135 C4136 1.400 . S
C4135 C4140 1.490 1_565 S
C4136 H4126 0.930 . S
C4136 C4135 1.400 . S
C4136 C4139 1.386 . S
H4137 C4153 0.930 . S
H4138 C4154 0.931 . S
C4139 H4127 0.929 . S
C4139 C4133 1.390 . S
C4139 C4136 1.386 . S
C4140 C4135 1.490 1_545 S
C4140 C4142 1.395 . S
C4140 C4143 1.403 1_545 S
H4141 C4147 0.930 . S
C4142 H4128 0.930 . S
C4142 C4140 1.395 . S
C4142 C4145 1.403 . S
C4143 C4140 1.403 1_565 S
C4143 C4144 1.524 . S
C4143 C4147 1.400 . S
C4144 H4129 0.960 . S
C4144 H4130 0.960 . S
C4144 H4131 0.960 . S
C4144 C4143 1.524 . S
C4145 C4142 1.403 . S
C4145 C4146 1.392 . S
C4145 C4149 1.495 . S
C4146 C4145 1.392 . S
C4146 C4147 1.385 1_545 S
C4146 C4148 1.478 . S
C4147 H4141 0.930 . S
C4147 C4143 1.400 . S
C4147 C4146 1.385 1_565 S
C4148 C4146 1.478 . S
C4148 C4150 1.381 . S
C4148 C4154 1.383 . S
C4149 C4145 1.495 . S
C4149 H4155 0.959 . S
C4149 H4156 0.961 . S
C4149 H4157 0.960 . S
C4150 C4148 1.381 . S
C4150 C4151 1.394 . S
C4150 H4158 0.930 . S
C4151 C4150 1.394 . S
C4151 C4152 1.383 . S
C4151 H4159 0.929 . S
C4152 C4151 1.383 . S
C4152 C4153 1.377 . S
C4153 H4137 0.930 . S
C4153 C4152 1.377 . S
C4153 C4154 1.379 . S
C4154 H4138 0.931 . S
C4154 C4148 1.383 . S
C4154 C4153 1.379 . S
H4155 C4149 0.959 . S
H4156 C4149 0.961 . S
H4157 C4149 0.960 . S
H4158 C4150 0.930 . S
H4159 C4151 0.929 . S
H4160 C4168 0.929 . S
H4161 C4170 0.930 . S
H4162 C4172 0.930 . S
H4163 C4175 0.929 . S
H4164 C4178 0.930 . S
H4165 C4180 0.960 . S
H4166 C4180 0.960 . S
H4167 C4180 0.960 . S
C4168 H4160 0.929 . S
C4168 C4169 1.377 . S
C4168 C4170 1.384 . S
C4169 C4168 1.377 . S
C4169 C4175 1.390 1_455 S
C4170 H4161 0.930 . S
C4170 C4168 1.384 . S
C4170 C4171 1.372 . S
C4171 C4170 1.372 . S
C4171 C4172 1.400 1_455 S
C4171 C4176 1.490 . S
C4172 H4162 0.930 . S
C4172 C4171 1.400 1_655 S
C4172 C4175 1.386 . S
H4173 C4189 0.930 . S
H4174 C4190 0.931 . S
C4175 H4163 0.929 . S
C4175 C4169 1.390 1_655 S
C4175 C4172 1.386 . S
C4176 C4171 1.490 . S
C4176 C4178 1.395 . S
C4176 C4179 1.403 1_455 S
H4177 C4183 0.930 . S
C4178 H4164 0.930 . S
C4178 C4176 1.395 . S
C4178 C4181 1.403 1_554 S
C4179 C4176 1.403 1_655 S
C4179 C4180 1.524 . S
C4179 C4183 1.400 1_554 S
C4180 H4165 0.960 . S
C4180 H4166 0.960 . S
C4180 H4167 0.960 . S
C4180 C4179 1.524 . S
C4181 C4178 1.403 1_556 S
C4181 C4182 1.392 . S
C4181 C4185 1.495 . S
C4182 C4181 1.392 . S
C4182 C4183 1.385 1_455 S
C4182 C4184 1.478 1_455 S
C4183 H4177 0.930 . S
C4183 C4179 1.400 1_556 S
C4183 C4182 1.385 1_655 S
C4184 C4182 1.478 1_655 S
C4184 C4186 1.381 1_655 S
C4184 C4190 1.383 . S
C4185 C4181 1.495 . S
C4185 H4191 0.959 . S
C4185 H4192 0.961 . S
C4185 H4193 0.960 . S
C4186 C4184 1.381 1_455 S
C4186 C4187 1.394 . S
C4186 H4194 0.930 . S
C4187 C4186 1.394 . S
C4187 C4188 1.383 1_455 S
C4187 H4195 0.929 . S
C4188 C4187 1.383 1_655 S
C4188 C4189 1.377 . S
C4189 H4173 0.930 . S
C4189 C4188 1.377 . S
C4189 C4190 1.379 . S
C4190 H4174 0.931 . S
C4190 C4184 1.383 . S
C4190 C4189 1.379 . S
H4191 C4185 0.959 . S
H4192 C4185 0.961 . S
H4193 C4185 0.960 . S
H4194 C4186 0.930 . S
H4195 C4187 0.929 . S
H4196 C4204 0.929 . S
H4197 C4206 0.930 . S
H4198 C4208 0.930 . S
H4199 C4211 0.929 . S
H4200 C4214 0.930 . S
H4201 C4216 0.960 . S
H4202 C4216 0.960 . S
H4203 C4216 0.960 . S
C4204 H4196 0.929 . S
C4204 C4205 1.377 . S
C4204 C4206 1.384 . S
C4205 C4204 1.377 . S
C4205 C4211 1.390 . S
C4206 H4197 0.930 . S
C4206 C4204 1.384 . S
C4206 C4207 1.372 . S
C4207 C4206 1.372 . S
C4207 C4208 1.400 . S
C4207 C4212 1.490 . S
C4208 H4198 0.930 . S
C4208 C4207 1.400 . S
C4208 C4211 1.386 . S
H4209 C4225 0.930 . S
H4210 C4226 0.931 . S
C4211 H4199 0.929 . S
C4211 C4205 1.390 . S
C4211 C4208 1.386 . S
C4212 C4207 1.490 . S
C4212 C4214 1.395 . S
C4212 C4215 1.403 . S
H4213 C4219 0.930 . S
C4214 H4200 0.930 . S
C4214 C4212 1.395 . S
C4214 C4217 1.403 1_556 S
C4215 C4212 1.403 . S
C4215 C4216 1.524 . S
C4215 C4219 1.400 1_556 S
C4216 H4201 0.960 . S
C4216 H4202 0.960 . S
C4216 H4203 0.960 . S
C4216 C4215 1.524 . S
C4217 C4214 1.403 1_554 S
C4217 C4218 1.392 . S
C4217 C4221 1.495 . S
C4218 C4217 1.392 . S
C4218 C4219 1.385 . S
C4218 C4220 1.478 . S
C4219 H4213 0.930 . S
C4219 C4215 1.400 1_554 S
C4219 C4218 1.385 . S
C4220 C4218 1.478 . S
C4220 C4222 1.381 . S
C4220 C4226 1.383 . S
C4221 C4217 1.495 . S
C4221 H4227 0.959 . S
C4221 H4228 0.961 . S
C4221 H4229 0.960 . S
C4222 C4220 1.381 . S
C4222 C4223 1.394 . S
C4222 H4230 0.930 . S
C4223 C4222 1.394 . S
C4223 C4224 1.383 . S
C4223 H4231 0.929 . S
C4224 C4223 1.383 . S
C4224 C4225 1.377 . S
C4225 H4209 0.930 . S
C4225 C4224 1.377 . S
C4225 C4226 1.379 . S
C4226 H4210 0.931 . S
C4226 C4220 1.383 . S
C4226 C4225 1.379 . S
H4227 C4221 0.959 . S
H4228 C4221 0.961 . S
H4229 C4221 0.960 . S
H4230 C4222 0.930 . S
H4231 C4223 0.929 . S
H4232 C4240 0.929 . S
H4233 C4242 0.930 . S
H4234 C4244 0.930 . S
H4235 C4247 0.929 . S
H4236 C4250 0.930 . S
H4237 C4252 0.960 . S
H4238 C4252 0.960 . S
H4239 C4252 0.960 . S
C4240 H4232 0.929 . S
C4240 C4241 1.377 1_455 S
C4240 C4242 1.384 . S
C4241 C4240 1.377 1_655 S
C4241 C4247 1.390 . S
C4242 H4233 0.930 . S
C4242 C4240 1.384 . S
C4242 C4243 1.372 1_455 S
C4243 C4242 1.372 1_655 S
C4243 C4244 1.400 . S
C4243 C4248 1.491 . S
C4244 H4234 0.930 . S
C4244 C4243 1.400 . S
C4244 C4247 1.386 . S
H4245 C4261 0.930 . S
H4246 C4262 0.931 . S
C4247 H4235 0.929 . S
C4247 C4241 1.390 . S
C4247 C4244 1.386 . S
C4248 C4243 1.491 . S
C4248 C4250 1.389 1_655 S
C4248 C4251 1.407 . S
H4249 C4255 0.930 . S
C4250 H4236 0.930 . S
C4250 C4248 1.389 1_455 S
C4250 C4253 1.403 . S
C4251 C4248 1.407 . S
C4251 C4252 1.524 . S
C4251 C4255 1.400 . S
C4252 H4237 0.960 . S
C4252 H4238 0.960 . S
C4252 H4239 0.960 . S
C4252 C4251 1.524 . S
C4253 C4250 1.403 . S
C4253 C4254 1.392 . S
C4253 C4257 1.495 . S
C4254 C4253 1.392 . S
C4254 C4255 1.385 1_455 S
C4254 C4256 1.478 . S
C4255 H4249 0.930 . S
C4255 C4251 1.400 . S
C4255 C4254 1.385 1_655 S
C4256 C4254 1.478 . S
C4256 C4258 1.381 . S
C4256 C4262 1.383 1_455 S
C4257 C4253 1.495 . S
C4257 H4263 0.959 . S
C4257 H4264 0.961 . S
C4257 H4265 0.960 . S
C4258 C4256 1.381 . S
C4258 C4259 1.394 . S
C4258 H4266 0.930 . S
C4259 C4258 1.394 . S
C4259 C4260 1.383 . S
C4259 H4267 0.929 . S
C4260 C4259 1.383 . S
C4260 C4261 1.377 1_455 S
C4261 H4245 0.930 . S
C4261 C4260 1.377 1_655 S
C4261 C4262 1.379 . S
C4262 H4246 0.931 . S
C4262 C4256 1.383 1_655 S
C4262 C4261 1.379 . S
H4263 C4257 0.959 . S
H4264 C4257 0.961 . S
H4265 C4257 0.960 . S
H4266 C4258 0.930 . S
H4267 C4259 0.929 . S
H4268 C4276 0.929 . S
H4269 C4278 0.930 . S
H4270 C4280 0.930 . S
H4271 C4283 0.929 . S
H4272 C4286 0.930 . S
H4273 C4288 0.960 . S
H4274 C4288 0.960 . S
H4275 C4288 0.960 . S
C4276 H4268 0.929 . S
C4276 C4277 1.377 . S
C4276 C4278 1.384 . S
C4277 C4276 1.377 . S
C4277 C4283 1.390 . S
C4278 H4269 0.930 . S
C4278 C4276 1.384 . S
C4278 C4279 1.372 . S
C4279 C4278 1.372 . S
C4279 C4280 1.400 . S
C4279 C4284 1.490 . S
C4280 H4270 0.930 . S
C4280 C4279 1.400 . S
C4280 C4283 1.386 . S
H4281 C4297 0.930 . S
H4282 C4298 0.931 . S
C4283 H4271 0.929 . S
C4283 C4277 1.390 . S
C4283 C4280 1.386 . S
C4284 C4279 1.490 . S
C4284 C4286 1.395 . S
C4284 C4287 1.403 . S
H4285 C4291 0.930 . S
C4286 H4272 0.930 . S
C4286 C4284 1.395 . S
C4286 C4289 1.403 . S
C4287 C4284 1.403 . S
C4287 C4288 1.524 . S
C4287 C4291 1.400 . S
C4288 H4273 0.960 . S
C4288 H4274 0.960 . S
C4288 H4275 0.960 . S
C4288 C4287 1.524 . S
C4289 C4286 1.403 . S
C4289 C4290 1.392 . S
C4289 C4293 1.495 . S
C4290 C4289 1.392 . S
C4290 C4291 1.385 . S
C4290 C4292 1.478 . S
C4291 H4285 0.930 . S
C4291 C4287 1.400 . S
C4291 C4290 1.385 . S
C4292 C4290 1.478 . S
C4292 C4294 1.381 . S
C4292 C4298 1.383 . S
C4293 C4289 1.495 . S
C4293 H4299 0.959 . S
C4293 H4300 0.961 . S
C4293 H4301 0.960 . S
C4294 C4292 1.381 . S
C4294 C4295 1.394 . S
C4294 H4302 0.930 . S
C4295 C4294 1.394 . S
C4295 C4296 1.383 . S
C4295 H4303 0.929 . S
C4296 C4295 1.383 . S
C4296 C4297 1.377 . S
C4297 H4281 0.930 . S
C4297 C4296 1.377 . S
C4297 C4298 1.379 . S
C4298 H4282 0.931 . S
C4298 C4292 1.383 . S
C4298 C4297 1.379 . S
H4299 C4293 0.959 . S
H4300 C4293 0.961 . S
H4301 C4293 0.960 . S
H4302 C4294 0.930 . S
H4303 C4295 0.929 . S
H4304 C4312 0.929 . S
H4305 C4314 0.930 . S
H4306 C4316 0.930 . S
H4307 C4319 0.929 . S
H4308 C4322 0.930 . S
H4309 C4324 0.960 . S
H4310 C4324 0.960 . S
H4311 C4324 0.960 . S
C4312 H4304 0.929 . S
C4312 C4313 1.377 . S
C4312 C4314 1.384 . S
C4313 C4312 1.377 . S
C4313 C4319 1.390 . S
C4314 H4305 0.930 . S
C4314 C4312 1.384 . S
C4314 C4315 1.372 . S
C4315 C4314 1.372 . S
C4315 C4316 1.400 . S
C4315 C4320 1.490 . S
C4316 H4306 0.930 . S
C4316 C4315 1.400 . S
C4316 C4319 1.386 . S
H4317 C4333 0.930 . S
H4318 C4334 0.931 . S
C4319 H4307 0.929 . S
C4319 C4313 1.390 . S
C4319 C4316 1.386 . S
C4320 C4315 1.490 . S
C4320 C4322 1.395 . S
C4320 C4323 1.403 . S
H4321 C4327 0.930 . S
C4322 H4308 0.930 . S
C4322 C4320 1.395 . S
C4322 C4325 1.403 1_556 S
C4323 C4320 1.403 . S
C4323 C4324 1.524 . S
C4323 C4327 1.400 1_556 S
C4324 H4309 0.960 . S
C4324 H4310 0.960 . S
C4324 H4311 0.960 . S
C4324 C4323 1.524 . S
C4325 C4322 1.403 1_554 S
C4325 C4326 1.392 . S
C4325 C4329 1.495 . S
C4326 C4325 1.392 . S
C4326 C4327 1.385 . S
C4326 C4328 1.478 . S
C4327 H4321 0.930 . S
C4327 C4323 1.400 1_554 S
C4327 C4326 1.385 . S
C4328 C4326 1.478 . S
C4328 C4330 1.381 . S
C4328 C4334 1.383 . S
C4329 C4325 1.495 . S
C4329 H4335 0.959 . S
C4329 H4336 0.961 . S
C4329 H4337 0.960 . S
C4330 C4328 1.381 . S
C4330 C4331 1.394 . S
C4330 H4338 0.930 . S
C4331 C4330 1.394 . S
C4331 C4332 1.383 . S
C4331 H4339 0.929 . S
C4332 C4331 1.383 . S
C4332 C4333 1.377 . S
C4333 H4317 0.930 . S
C4333 C4332 1.377 . S
C4333 C4334 1.379 . S
C4334 H4318 0.931 . S
C4334 C4328 1.383 . S
C4334 C4333 1.379 . S
H4335 C4329 0.959 . S
H4336 C4329 0.961 . S
H4337 C4329 0.960 . S
H4338 C4330 0.930 . S
H4339 C4331 0.929 . S
H4340 C4348 0.929 . S
H4341 C4350 0.930 . S
H4342 C4352 0.930 . S
H4343 C4355 0.929 . S
H4344 C4358 0.930 . S
H4345 C4360 0.960 . S
H4346 C4360 0.960 . S
H4347 C4360 0.960 1_655 S
C4348 H4340 0.929 . S
C4348 C4349 1.377 1_455 S
C4348 C4350 1.384 . S
C4349 C4348 1.377 1_655 S
C4349 C4355 1.390 . S
C4350 H4341 0.930 . S
C4350 C4348 1.384 . S
C4350 C4351 1.372 1_455 S
C4351 C4350 1.372 1_655 S
C4351 C4352 1.400 . S
C4351 C4356 1.490 . S
C4352 H4342 0.930 . S
C4352 C4351 1.400 . S
C4352 C4355 1.386 . S
H4353 C4369 0.930 . S
H4354 C4370 0.931 . S
C4355 H4343 0.929 . S
C4355 C4349 1.390 . S
C4355 C4352 1.386 . S
C4356 C4351 1.490 . S
C4356 C4358 1.395 . S
C4356 C4359 1.403 1_655 S
H4357 C4363 0.930 . S
C4358 H4344 0.930 . S
C4358 C4356 1.395 . S
C4358 C4361 1.403 . S
C4359 C4356 1.403 1_455 S
C4359 C4360 1.524 . S
C4359 C4363 1.400 . S
C4360 H4345 0.960 . S
C4360 H4346 0.960 . S
C4360 H4347 0.960 1_455 S
C4360 C4359 1.524 . S
C4361 C4358 1.403 . S
C4361 C4362 1.392 1_655 S
C4361 C4365 1.495 . S
C4362 C4361 1.392 1_455 S
C4362 C4363 1.385 . S
C4362 C4364 1.478 . S
C4363 H4357 0.930 . S
C4363 C4359 1.400 . S
C4363 C4362 1.385 . S
C4364 C4362 1.478 . S
C4364 C4366 1.381 . S
C4364 C4370 1.383 1_455 S
C4365 C4361 1.495 . S
C4365 H4371 0.959 . S
C4365 H4372 0.961 . S
C4365 H4373 0.960 1_655 S
C4366 C4364 1.381 . S
C4366 C4367 1.394 . S
C4366 H4374 0.930 . S
C4367 C4366 1.394 . S
C4367 C4368 1.383 . S
C4367 H4375 0.929 . S
C4368 C4367 1.383 . S
C4368 C4369 1.377 1_455 S
C4369 H4353 0.930 . S
C4369 C4368 1.377 1_655 S
C4369 C4370 1.379 . S
C4370 H4354 0.931 . S
C4370 C4364 1.383 1_655 S
C4370 C4369 1.379 . S
H4371 C4365 0.959 . S
H4372 C4365 0.961 . S
H4373 C4365 0.960 1_455 S
H4374 C4366 0.930 . S
H4375 C4367 0.929 . S
H4376 C4384 0.929 . S
H4377 C4386 0.930 . S
H4378 C4388 0.930 . S
H4379 C4391 0.929 . S
H4380 C4394 0.930 . S
H4381 C4396 0.960 . S
H4382 C4396 0.960 . S
H4383 C4396 0.960 . S
C4384 H4376 0.929 . S
C4384 C4385 1.377 . S
C4384 C4386 1.384 . S
C4385 C4384 1.377 . S
C4385 C4391 1.390 . S
C4386 H4377 0.930 . S
C4386 C4384 1.384 . S
C4386 C4387 1.372 . S
C4387 C4386 1.372 . S
C4387 C4388 1.400 . S
C4387 C4392 1.490 . S
C4388 H4378 0.930 . S
C4388 C4387 1.400 . S
C4388 C4391 1.386 . S
H4389 C4405 0.930 . S
H4390 C4406 0.931 . S
C4391 H4379 0.929 . S
C4391 C4385 1.390 . S
C4391 C4388 1.386 . S
C4392 C4387 1.490 . S
C4392 C4394 1.395 . S
C4392 C4395 1.403 . S
H4393 C4399 0.930 . S
C4394 H4380 0.930 . S
C4394 C4392 1.395 . S
C4394 C4397 1.403 . S
C4395 C4392 1.403 . S
C4395 C4396 1.524 . S
C4395 C4399 1.400 . S
C4396 H4381 0.960 . S
C4396 H4382 0.960 . S
C4396 H4383 0.960 . S
C4396 C4395 1.524 . S
C4397 C4394 1.403 . S
C4397 C4398 1.392 . S
C4397 C4401 1.495 . S
C4398 C4397 1.392 . S
C4398 C4399 1.385 . S
C4398 C4400 1.478 . S
C4399 H4393 0.930 . S
C4399 C4395 1.400 . S
C4399 C4398 1.385 . S
C4400 C4398 1.478 . S
C4400 C4402 1.381 . S
C4400 C4406 1.383 . S
C4401 C4397 1.495 . S
C4401 H4407 0.959 . S
C4401 H4408 0.961 . S
C4401 H4409 0.960 . S
C4402 C4400 1.381 . S
C4402 C4403 1.394 . S
C4402 H4410 0.930 . S
C4403 C4402 1.394 . S
C4403 C4404 1.383 . S
C4403 H4411 0.929 . S
C4404 C4403 1.383 . S
C4404 C4405 1.377 . S
C4405 H4389 0.930 . S
C4405 C4404 1.377 . S
C4405 C4406 1.379 . S
C4406 H4390 0.931 . S
C4406 C4400 1.383 . S
C4406 C4405 1.379 . S
H4407 C4401 0.959 . S
H4408 C4401 0.961 . S
H4409 C4401 0.960 . S
H4410 C4402 0.930 . S
H4411 C4403 0.929 . S
H4412 C4420 0.929 . S
H4413 C4422 0.930 . S
H4414 C4424 0.930 . S
H4415 C4427 0.929 . S
H4416 C4430 0.931 . S
H4417 C4432 0.960 . S
H4418 C4432 0.960 . S
H4419 C4432 0.960 1_455 S
C4420 H4412 0.929 . S
C4420 C4421 1.377 1_645 S
C4420 C4422 1.384 . S
C4421 C4420 1.377 1_465 S
C4421 C4427 1.390 . S
C4422 H4413 0.930 . S
C4422 C4420 1.384 . S
C4422 C4423 1.372 1_645 S
C4423 C4422 1.372 1_465 S
C4423 C4424 1.400 . S
C4423 C4428 1.489 1_565 S
C4424 H4414 0.930 . S
C4424 C4423 1.400 . S
C4424 C4427 1.386 . S
H4425 C4441 0.930 . S
H4426 C4442 0.931 . S
C4427 H4415 0.929 . S
C4427 C4421 1.390 . S
C4427 C4424 1.386 . S
C4428 C4423 1.489 1_545 S
C4428 C4430 1.405 . S
C4428 C4431 1.393 1_445 S
H4429 C4435 0.930 . S
C4430 H4416 0.931 . S
C4430 C4428 1.405 . S
C4430 C4433 1.403 1_455 S
C4431 C4428 1.393 1_665 S
C4431 C4432 1.524 . S
C4431 C4435 1.400 . S
C4432 H4417 0.960 . S
C4432 H4418 0.960 . S
C4432 H4419 0.960 1_655 S
C4432 C4431 1.524 . S
C4433 C4430 1.403 1_655 S
C4433 C4434 1.392 . S
C4433 C4437 1.495 . S
C4434 C4433 1.392 . S
C4434 C4435 1.385 1_545 S
C4434 C4436 1.478 . S
C4435 H4429 0.930 . S
C4435 C4431 1.400 . S
C4435 C4434 1.385 1_565 S
C4436 C4434 1.478 . S
C4436 C4438 1.381 . S
C4436 C4442 1.383 1_645 S
C4437 C4433 1.495 . S
C4437 H4443 0.960 . S
C4437 H4444 0.961 1_655 S
C4437 H4445 0.960 . S
C4438 C4436 1.381 . S
C4438 C4439 1.394 . S
C4438 H4446 0.930 . S
C4439 C4438 1.394 . S
C4439 C4440 1.383 . S
C4439 H4447 0.929 . S
C4440 C4439 1.383 . S
C4440 C4441 1.377 1_645 S
C4441 H4425 0.930 . S
C4441 C4440 1.377 1_465 S
C4441 C4442 1.379 . S
C4442 H4426 0.931 . S
C4442 C4436 1.383 1_465 S
C4442 C4441 1.379 . S
H4443 C4437 0.960 . S
H4444 C4437 0.961 1_455 S
H4445 C4437 0.960 . S
H4446 C4438 0.930 . S
H4447 C4439 0.929 . S
H4448 C4456 0.929 . S
H4449 C4458 0.930 . S
H4450 C4460 0.930 . S
H4451 C4463 0.929 . S
H4452 C4466 0.930 . S
H4453 C4468 0.960 . S
H4454 C4468 0.960 . S
H4455 C4468 0.960 . S
C4456 H4448 0.929 . S
C4456 C4457 1.377 . S
C4456 C4458 1.384 . S
C4457 C4456 1.377 . S
C4457 C4463 1.390 . S
C4458 H4449 0.930 . S
C4458 C4456 1.384 . S
C4458 C4459 1.372 . S
C4459 C4458 1.372 . S
C4459 C4460 1.400 . S
C4459 C4464 1.490 . S
C4460 H4450 0.930 . S
C4460 C4459 1.400 . S
C4460 C4463 1.386 . S
H4461 C4477 0.930 . S
H4462 C4478 0.931 . S
C4463 H4451 0.929 . S
C4463 C4457 1.390 . S
C4463 C4460 1.386 . S
C4464 C4459 1.490 . S
C4464 C4466 1.395 . S
C4464 C4467 1.403 . S
H4465 C4471 0.930 . S
C4466 H4452 0.930 . S
C4466 C4464 1.395 . S
C4466 C4469 1.403 . S
C4467 C4464 1.403 . S
C4467 C4468 1.524 . S
C4467 C4471 1.400 . S
C4468 H4453 0.960 . S
C4468 H4454 0.960 . S
C4468 H4455 0.960 . S
C4468 C4467 1.524 . S
C4469 C4466 1.403 . S
C4469 C4470 1.392 . S
C4469 C4473 1.495 . S
C4470 C4469 1.392 . S
C4470 C4471 1.385 . S
C4470 C4472 1.478 . S
C4471 H4465 0.930 . S
C4471 C4467 1.400 . S
C4471 C4470 1.385 . S
C4472 C4470 1.478 . S
C4472 C4474 1.381 . S
C4472 C4478 1.383 . S
C4473 C4469 1.495 . S
C4473 H4479 0.959 . S
C4473 H4480 0.961 . S
C4473 H4481 0.960 . S
C4474 C4472 1.381 . S
C4474 C4475 1.394 . S
C4474 H4482 0.930 . S
C4475 C4474 1.394 . S
C4475 C4476 1.383 . S
C4475 H4483 0.929 . S
C4476 C4475 1.383 . S
C4476 C4477 1.377 . S
C4477 H4461 0.930 . S
C4477 C4476 1.377 . S
C4477 C4478 1.379 . S
C4478 H4462 0.931 . S
C4478 C4472 1.383 . S
C4478 C4477 1.379 . S
H4479 C4473 0.959 . S
H4480 C4473 0.961 . S
H4481 C4473 0.960 . S
H4482 C4474 0.930 . S
H4483 C4475 0.929 . S
H4484 C4492 0.929 . S
H4485 C4494 0.930 . S
H4486 C4496 0.930 . S
H4487 C4499 0.929 . S
H4488 C4502 0.930 . S
H4489 C4504 0.960 . S
H4490 C4504 0.960 . S
H4491 C4504 0.960 . S
C4492 H4484 0.929 . S
C4492 C4493 1.377 . S
C4492 C4494 1.384 . S
C4493 C4492 1.377 . S
C4493 C4499 1.390 . S
C4494 H4485 0.930 . S
C4494 C4492 1.384 . S
C4494 C4495 1.372 . S
C4495 C4494 1.372 . S
C4495 C4496 1.400 . S
C4495 C4500 1.492 . S
C4496 H4486 0.930 . S
C4496 C4495 1.400 . S
C4496 C4499 1.386 . S
H4497 C4513 0.930 . S
H4498 C4514 0.931 . S
C4499 H4487 0.929 . S
C4499 C4493 1.390 . S
C4499 C4496 1.386 . S
C4500 C4495 1.492 . S
C4500 C4502 1.376 1_545 S
C4500 C4503 1.420 . S
H4501 C4507 0.930 . S
C4502 H4488 0.930 . S
C4502 C4500 1.376 1_565 S
C4502 C4505 1.403 . S
C4503 C4500 1.420 . S
C4503 C4504 1.524 . S
C4503 C4507 1.400 . S
C4504 H4489 0.960 . S
C4504 H4490 0.960 . S
C4504 H4491 0.960 . S
C4504 C4503 1.524 . S
C4505 C4502 1.403 . S
C4505 C4506 1.392 . S
C4505 C4509 1.495 . S
C4506 C4505 1.392 . S
C4506 C4507 1.385 1_565 S
C4506 C4508 1.478 . S
C4507 H4501 0.930 . S
C4507 C4503 1.400 . S
C4507 C4506 1.385 1_545 S
C4508 C4506 1.478 . S
C4508 C4510 1.381 . S
C4508 C4514 1.383 . S
C4509 C4505 1.495 . S
C4509 H4515 0.959 . S
C4509 H4516 0.961 . S
C4509 H4517 0.960 . S
C4510 C4508 1.381 . S
C4510 C4511 1.394 . S
C4510 H4518 0.935 . S
C4511 C4510 1.394 . S
C4511 C4512 1.383 . S
C4511 H4519 0.928 1_565 S
C4512 C4511 1.383 . S
C4512 C4513 1.377 . S
C4513 H4497 0.930 . S
C4513 C4512 1.377 . S
C4513 C4514 1.379 . S
C4514 H4498 0.931 . S
C4514 C4508 1.383 . S
C4514 C4513 1.379 . S
H4515 C4509 0.959 . S
H4516 C4509 0.961 . S
H4517 C4509 0.960 . S
H4518 C4510 0.935 . S
H4519 C4511 0.928 1_545 S
H4520 C4528 0.929 . S
H4521 C4530 0.930 . S
H4522 C4532 0.930 . S
H4523 C4535 0.929 . S
H4524 C4538 0.930 . S
H4525 C4540 0.960 . S
H4526 C4540 0.960 . S
H4527 C4540 0.960 . S
C4528 H4520 0.929 . S
C4528 C4529 1.377 . S
C4528 C4530 1.384 . S
C4529 C4528 1.377 . S
C4529 C4535 1.390 . S
C4530 H4521 0.930 . S
C4530 C4528 1.384 . S
C4530 C4531 1.372 . S
C4531 C4530 1.372 . S
C4531 C4532 1.400 . S
C4531 C4536 1.490 . S
C4532 H4522 0.930 . S
C4532 C4531 1.400 . S
C4532 C4535 1.386 . S
H4533 C4549 0.930 . S
H4534 C4550 0.931 . S
C4535 H4523 0.929 . S
C4535 C4529 1.390 . S
C4535 C4532 1.386 . S
C4536 C4531 1.490 . S
C4536 C4538 1.395 . S
C4536 C4539 1.403 . S
H4537 C4543 0.930 . S
C4538 H4524 0.930 . S
C4538 C4536 1.395 . S
C4538 C4541 1.403 . S
C4539 C4536 1.403 . S
C4539 C4540 1.524 . S
C4539 C4543 1.400 . S
C4540 H4525 0.960 . S
C4540 H4526 0.960 . S
C4540 H4527 0.960 . S
C4540 C4539 1.524 . S
C4541 C4538 1.403 . S
C4541 C4542 1.392 . S
C4541 C4545 1.495 . S
C4542 C4541 1.392 . S
C4542 C4543 1.385 . S
C4542 C4544 1.478 . S
C4543 H4537 0.930 . S
C4543 C4539 1.400 . S
C4543 C4542 1.385 . S
C4544 C4542 1.478 . S
C4544 C4546 1.381 . S
C4544 C4550 1.383 . S
C4545 C4541 1.495 . S
C4545 H4551 0.959 . S
C4545 H4552 0.961 . S
C4545 H4553 0.960 . S
C4546 C4544 1.381 . S
C4546 C4547 1.394 . S
C4546 H4554 0.930 . S
C4547 C4546 1.394 . S
C4547 C4548 1.383 . S
C4547 H4555 0.929 . S
C4548 C4547 1.383 . S
C4548 C4549 1.377 . S
C4549 H4533 0.930 . S
C4549 C4548 1.377 . S
C4549 C4550 1.379 . S
C4550 H4534 0.931 . S
C4550 C4544 1.383 . S
C4550 C4549 1.379 . S
H4551 C4545 0.959 . S
H4552 C4545 0.961 . S
H4553 C4545 0.960 . S
H4554 C4546 0.930 . S
H4555 C4547 0.929 . S
H4556 C4564 0.929 . S
H4557 C4566 0.930 . S
H4558 C4568 0.930 . S
H4559 C4571 0.929 . S
H4560 C4574 0.930 . S
H4561 C4576 0.960 . S
H4562 C4576 0.960 . S
H4563 C4576 0.960 . S
C4564 H4556 0.929 . S
C4564 C4565 1.377 . S
C4564 C4566 1.384 . S
C4565 C4564 1.377 . S
C4565 C4571 1.390 1_565 S
C4566 H4557 0.930 . S
C4566 C4564 1.384 . S
C4566 C4567 1.372 . S
C4567 C4566 1.372 . S
C4567 C4568 1.400 1_565 S
C4567 C4572 1.494 . S
C4568 H4558 0.930 . S
C4568 C4567 1.400 1_545 S
C4568 C4571 1.386 . S
H4569 C4585 0.930 . S
H4570 C4586 0.931 . S
C4571 H4559 0.929 . S
C4571 C4565 1.390 1_545 S
C4571 C4568 1.386 . S
C4572 C4567 1.494 . S
C4572 C4574 1.364 1_565 S
C4572 C4575 1.431 . S
H4573 C4579 0.930 . S
C4574 H4560 0.930 . S
C4574 C4572 1.364 1_545 S
C4574 C4577 1.403 . S
C4575 C4572 1.431 . S
C4575 C4576 1.524 . S
C4575 C4579 1.400 . S
C4576 H4561 0.960 . S
C4576 H4562 0.960 . S
C4576 H4563 0.960 . S
C4576 C4575 1.524 . S
C4577 C4574 1.403 . S
C4577 C4578 1.392 . S
C4577 C4581 1.495 . S
C4578 C4577 1.392 . S
C4578 C4579 1.385 1_545 S
C4578 C4580 1.478 . S
C4579 H4573 0.930 . S
C4579 C4575 1.400 . S
C4579 C4578 1.385 1_565 S
C4580 C4578 1.478 . S
C4580 C4582 1.381 1_545 S
C4580 C4586 1.383 . S
C4581 C4577 1.495 . S
C4581 H4587 0.959 . S
C4581 H4588 0.961 . S
C4581 H4589 0.960 . S
C4582 C4580 1.381 1_565 S
C4582 C4583 1.394 . S
C4582 H4590 0.930 . S
C4583 C4582 1.394 . S
C4583 C4584 1.383 1_565 S
C4583 H4591 0.929 . S
C4584 C4583 1.383 1_545 S
C4584 C4585 1.377 . S
C4585 H4569 0.930 . S
C4585 C4584 1.377 . S
C4585 C4586 1.379 . S
C4586 H4570 0.931 . S
C4586 C4580 1.383 . S
C4586 C4585 1.379 . S
H4587 C4581 0.959 . S
H4588 C4581 0.961 . S
H4589 C4581 0.960 . S
H4590 C4582 0.930 . S
H4591 C4583 0.929 . S
H4592 C4600 0.929 . S
H4593 C4602 0.930 . S
H4594 C4604 0.930 . S
H4595 C4607 0.929 . S
H4596 C4610 0.930 . S
H4597 C4612 0.960 . S
H4598 C4612 0.960 . S
H4599 C4612 0.960 . S
C4600 H4592 0.929 . S
C4600 C4601 1.377 . S
C4600 C4602 1.384 . S
C4601 C4600 1.377 . S
C4601 C4607 1.390 . S
C4602 H4593 0.930 . S
C4602 C4600 1.384 . S
C4602 C4603 1.372 . S
C4603 C4602 1.372 . S
C4603 C4604 1.400 . S
C4603 C4608 1.490 . S
C4604 H4594 0.930 . S
C4604 C4603 1.400 . S
C4604 C4607 1.386 . S
H4605 C4621 0.930 . S
H4606 C4622 0.931 . S
C4607 H4595 0.929 . S
C4607 C4601 1.390 . S
C4607 C4604 1.386 . S
C4608 C4603 1.490 . S
C4608 C4610 1.395 . S
C4608 C4611 1.403 . S
H4609 C4615 0.930 . S
C4610 H4596 0.930 . S
C4610 C4608 1.395 . S
C4610 C4613 1.403 . S
C4611 C4608 1.403 . S
C4611 C4612 1.524 . S
C4611 C4615 1.400 . S
C4612 H4597 0.960 . S
C4612 H4598 0.960 . S
C4612 H4599 0.960 . S
C4612 C4611 1.524 . S
C4613 C4610 1.403 . S
C4613 C4614 1.392 . S
C4613 C4617 1.495 . S
C4614 C4613 1.392 . S
C4614 C4615 1.385 . S
C4614 C4616 1.478 . S
C4615 H4609 0.930 . S
C4615 C4611 1.400 . S
C4615 C4614 1.385 . S
C4616 C4614 1.478 . S
C4616 C4618 1.381 . S
C4616 C4622 1.383 . S
C4617 C4613 1.495 . S
C4617 H4623 0.959 . S
C4617 H4624 0.961 . S
C4617 H4625 0.960 . S
C4618 C4616 1.381 . S
C4618 C4619 1.394 . S
C4618 H4626 0.930 . S
C4619 C4618 1.394 . S
C4619 C4620 1.383 . S
C4619 H4627 0.929 . S
C4620 C4619 1.383 . S
C4620 C4621 1.377 . S
C4621 H4605 0.930 . S
C4621 C4620 1.377 . S
C4621 C4622 1.379 . S
C4622 H4606 0.931 . S
C4622 C4616 1.383 . S
C4622 C4621 1.379 . S
H4623 C4617 0.959 . S
H4624 C4617 0.961 . S
H4625 C4617 0.960 . S
H4626 C4618 0.930 . S
H4627 C4619 0.929 . S
H4628 C4636 0.929 . S
H4629 C4638 0.930 . S
H4630 C4640 0.930 . S
H4631 C4643 0.929 . S
H4632 C4646 0.930 . S
H4633 C4648 0.960 . S
H4634 C4648 0.960 . S
H4635 C4648 0.960 . S
C4636 H4628 0.929 . S
C4636 C4637 1.377 . S
C4636 C4638 1.384 . S
C4637 C4636 1.377 . S
C4637 C4643 1.390 . S
C4638 H4629 0.930 . S
C4638 C4636 1.384 . S
C4638 C4639 1.372 . S
C4639 C4638 1.372 . S
C4639 C4640 1.400 . S
C4639 C4644 1.490 . S
C4640 H4630 0.930 . S
C4640 C4639 1.400 . S
C4640 C4643 1.386 . S
H4641 C4657 0.930 . S
H4642 C4658 0.931 . S
C4643 H4631 0.929 . S
C4643 C4637 1.390 . S
C4643 C4640 1.386 . S
C4644 C4639 1.490 . S
C4644 C4646 1.395 . S
C4644 C4647 1.403 . S
H4645 C4651 0.930 . S
C4646 H4632 0.930 . S
C4646 C4644 1.395 . S
C4646 C4649 1.403 . S
C4647 C4644 1.403 . S
C4647 C4648 1.524 . S
C4647 C4651 1.400 . S
C4648 H4633 0.960 . S
C4648 H4634 0.960 . S
C4648 H4635 0.960 . S
C4648 C4647 1.524 . S
C4649 C4646 1.403 . S
C4649 C4650 1.392 . S
C4649 C4653 1.495 . S
C4650 C4649 1.392 . S
C4650 C4651 1.385 . S
C4650 C4652 1.478 . S
C4651 H4645 0.930 . S
C4651 C4647 1.400 . S
C4651 C4650 1.385 . S
C4652 C4650 1.478 . S
C4652 C4654 1.381 . S
C4652 C4658 1.383 . S
C4653 C4649 1.495 . S
C4653 H4659 0.959 . S
C4653 H4660 0.961 . S
C4653 H4661 0.960 . S
C4654 C4652 1.381 . S
C4654 C4655 1.394 . S
C4654 H4662 0.930 . S
C4655 C4654 1.394 . S
C4655 C4656 1.383 . S
C4655 H4663 0.929 . S
C4656 C4655 1.383 . S
C4656 C4657 1.377 . S
C4657 H4641 0.930 . S
C4657 C4656 1.377 . S
C4657 C4658 1.379 . S
C4658 H4642 0.931 . S
C4658 C4652 1.383 . S
C4658 C4657 1.379 . S
H4659 C4653 0.959 . S
H4660 C4653 0.961 . S
H4661 C4653 0.960 . S
H4662 C4654 0.930 . S
H4663 C4655 0.929 . S
H4664 C4672 0.929 . S
H4665 C4674 0.930 . S
H4666 C4676 0.930 . S
H4667 C4679 0.929 . S
H4668 C4682 0.930 . S
H4669 C4684 0.960 . S
H4670 C4684 0.960 . S
H4671 C4684 0.960 . S
C4672 H4664 0.929 . S
C4672 C4673 1.377 . S
C4672 C4674 1.384 . S
C4673 C4672 1.377 . S
C4673 C4679 1.390 . S
C4674 H4665 0.930 . S
C4674 C4672 1.384 . S
C4674 C4675 1.372 . S
C4675 C4674 1.372 . S
C4675 C4676 1.400 . S
C4675 C4680 1.490 . S
C4676 H4666 0.930 . S
C4676 C4675 1.400 . S
C4676 C4679 1.386 . S
H4677 C4693 0.930 . S
H4678 C4694 0.931 . S
C4679 H4667 0.929 . S
C4679 C4673 1.390 . S
C4679 C4676 1.386 . S
C4680 C4675 1.490 . S
C4680 C4682 1.395 . S
C4680 C4683 1.403 . S
H4681 C4687 0.930 . S
C4682 H4668 0.930 . S
C4682 C4680 1.395 . S
C4682 C4685 1.403 . S
C4683 C4680 1.403 . S
C4683 C4684 1.524 . S
C4683 C4687 1.400 . S
C4684 H4669 0.960 . S
C4684 H4670 0.960 . S
C4684 H4671 0.960 . S
C4684 C4683 1.524 . S
C4685 C4682 1.403 . S
C4685 C4686 1.392 . S
C4685 C4689 1.495 . S
C4686 C4685 1.392 . S
C4686 C4687 1.385 . S
C4686 C4688 1.478 . S
C4687 H4681 0.930 . S
C4687 C4683 1.400 . S
C4687 C4686 1.385 . S
C4688 C4686 1.478 . S
C4688 C4690 1.381 . S
C4688 C4694 1.383 . S
C4689 C4685 1.495 . S
C4689 H4695 0.959 . S
C4689 H4696 0.961 . S
C4689 H4697 0.960 . S
C4690 C4688 1.381 . S
C4690 C4691 1.394 . S
C4690 H4698 0.930 . S
C4691 C4690 1.394 . S
C4691 C4692 1.383 . S
C4691 H4699 0.929 . S
C4692 C4691 1.383 . S
C4692 C4693 1.377 . S
C4693 H4677 0.930 . S
C4693 C4692 1.377 . S
C4693 C4694 1.379 . S
C4694 H4678 0.931 . S
C4694 C4688 1.383 . S
C4694 C4693 1.379 . S
H4695 C4689 0.959 . S
H4696 C4689 0.961 . S
H4697 C4689 0.960 . S
H4698 C4690 0.930 . S
H4699 C4691 0.929 . S
H4700 C4708 0.929 . S
H4701 C4710 0.930 . S
H4702 C4712 0.930 . S
H4703 C4715 0.929 . S
H4704 C4718 0.930 . S
H4705 C4720 0.960 . S
H4706 C4720 0.960 . S
H4707 C4720 0.960 . S
C4708 H4700 0.929 . S
C4708 C4709 1.377 . S
C4708 C4710 1.384 . S
C4709 C4708 1.377 . S
C4709 C4715 1.390 1_565 S
C4710 H4701 0.930 . S
C4710 C4708 1.384 . S
C4710 C4711 1.372 . S
C4711 C4710 1.372 . S
C4711 C4712 1.400 1_565 S
C4711 C4716 1.490 . S
C4712 H4702 0.930 . S
C4712 C4711 1.400 1_545 S
C4712 C4715 1.386 . S
H4713 C4729 0.930 . S
H4714 C4730 0.931 . S
C4715 H4703 0.929 . S
C4715 C4709 1.390 1_545 S
C4715 C4712 1.386 . S
C4716 C4711 1.490 . S
C4716 C4718 1.395 . S
C4716 C4719 1.403 1_565 S
H4717 C4723 0.930 . S
C4718 H4704 0.930 . S
C4718 C4716 1.395 . S
C4718 C4721 1.403 1_554 S
C4719 C4716 1.403 1_545 S
C4719 C4720 1.524 . S
C4719 C4723 1.400 1_554 S
C4720 H4705 0.960 . S
C4720 H4706 0.960 . S
C4720 H4707 0.960 . S
C4720 C4719 1.524 . S
C4721 C4718 1.403 1_556 S
C4721 C4722 1.392 . S
C4721 C4725 1.495 . S
C4722 C4721 1.392 . S
C4722 C4723 1.385 1_565 S
C4722 C4724 1.478 . S
C4723 H4717 0.930 . S
C4723 C4719 1.400 1_556 S
C4723 C4722 1.385 1_545 S
C4724 C4722 1.478 . S
C4724 C4726 1.381 . S
C4724 C4730 1.383 1_565 S
C4725 C4721 1.495 . S
C4725 H4731 0.959 . S
C4725 H4732 0.961 . S
C4725 H4733 0.960 . S
C4726 C4724 1.381 . S
C4726 C4727 1.394 . S
C4726 H4734 0.930 . S
C4727 C4726 1.394 . S
C4727 C4728 1.383 1_565 S
C4727 H4735 0.929 . S
C4728 C4727 1.383 1_545 S
C4728 C4729 1.377 . S
C4729 H4713 0.930 . S
C4729 C4728 1.377 . S
C4729 C4730 1.379 . S
C4730 H4714 0.931 . S
C4730 C4724 1.383 1_545 S
C4730 C4729 1.379 . S
H4731 C4725 0.959 . S
H4732 C4725 0.961 . S
H4733 C4725 0.960 . S
H4734 C4726 0.930 . S
H4735 C4727 0.929 . S
C1289 C10 1.644 . S
C1308 C1010 1.632 . S
C1325 C970 1.648 . S
C1344 C50 1.646 . S
C1361 C1090 1.644 . S
C1380 C90 1.635 . S
C1397 C130 1.643 . S
C1416 C1050 1.640 . S
C1433 C179 1.644 . S
C1452 C1179 1.648 . S
C1469 C219 1.645 . S
C1488 C1139 1.647 . S
C1505 C259 1.644 . S
C1524 C1259 1.650 . S
C1541 C1219 1.644 . S
C1560 C299 1.650 . S
C1577 C330 1.644 . S
C1596 C690 1.639 . S
C1613 C370 1.647 . S
C1632 C650 1.652 . S
C1649 C410 1.644 . S
C1668 C770 1.642 . S
C1685 C730 1.644 . S
C1704 C450 1.637 . S
C1721 C499 1.648 . S
C1740 C859 1.632 . S
C1757 C539 1.647 . S
C1776 C819 1.632 . S
C1793 C939 1.643 . S
C1812 C579 1.652 . S
C1829 C619 1.644 . S
C1848 C899 1.650 . S
C1865 C9 1.580 . S
C1884 C129 1.578 . S
C1901 C49 1.576 . S
C1920 C89 1.590 . S
C1937 C298 1.580 . S
C1956 C178 1.570 . S
C1973 C258 1.580 . S
C1992 C218 1.588 . S
C2009 C329 1.576 . S
C2028 C449 1.591 . S
C2045 C369 1.576 . S
C2064 C409 1.591 . S
C2081 C498 1.576 . S
C2100 C618 1.565 . S
C2117 C578 1.582 . S
C2136 C538 1.584 . S
C2153 C649 1.582 . S
C2172 C769 1.565 . S
C2189 C689 1.576 . S
C2208 C729 1.590 . S
C2225 C938 1.577 . S
C2244 C818 1.575 . S
C2261 C858 1.582 . S
C2280 C898 1.591 . S
C2297 C1089 1.581 . S
C2316 C969 1.562 . S
C2333 C1009 1.579 . S
C2352 C1049 1.580 . S
C2369 C1258 1.578 . S
C2388 C1138 1.561 . S
C2405 C1218 1.581 . S
C2424 C1178 1.576 . S
C2441 C59 1.497 . S
C2460 C19 1.468 . S
C2477 C99 1.498 . S
C2496 C139 1.486 . S
C2513 C210 1.493 . S
C2532 C170 1.494 . S
C2549 C290 1.489 . S
C2568 C250 1.468 . S
C2585 C339 1.493 . S
C2604 C379 1.470 . S
C2621 C419 1.497 . S
C2640 C459 1.468 . S
C2657 C530 1.489 . S
C2676 C490 1.468 . S
C2693 C570 1.499 . S
C2712 C610 1.512 . S
C2729 C659 1.493 . S
C2748 C699 1.513 . S
C2765 C779 1.495 . S
C2784 C739 1.511 . S
C2801 C810 1.491 . S
C2820 C850 1.486 . S
C2837 C890 1.492 . S
C2856 C930 1.479 . S
C2873 C979 1.498 . S
C2892 C1019 1.475 . S
C2909 C1059 1.490 . S
C2928 C1099 1.483 . S
C2945 C1170 1.494 . S
C2964 C1130 1.486 . S
C2981 C1210 1.489 . S
C3000 C1250 1.467 . S
C3017 C6 1.755 . S
C3036 C15 1.740 . S
C3053 C46 1.755 . S
C3072 C55 1.759 . S
C3089 C86 1.756 . S
C3108 C95 1.739 . S
C3125 C135 1.756 . S
C3144 C126 1.764 . S
C3161 C166 1.756 . S
C3180 C175 1.739 . S
C3197 C215 1.759 . S
C3216 C206 1.751 . S
C3233 C246 1.756 . S
C3252 C255 1.740 . S
C3269 C286 1.758 . S
C3288 C295 1.768 . S
C3305 C335 1.758 . S
C3324 C326 1.744 . S
C3341 C366 1.759 . S
C3360 C375 1.766 . S
C3377 C406 1.754 . S
C3396 C415 1.743 . S
C3413 C455 1.757 . S
C3432 C446 1.765 . S
C3449 C486 1.755 . S
C3468 C495 1.741 . S
C3485 C535 1.756 . S
C3504 C526 1.762 . S
C3521 C575 1.755 . S
C3540 C566 1.740 . S
C3557 C606 1.760 . S
C3576 C615 1.751 . S
C3593 C646 1.758 . S
C3612 C655 1.742 . S
C3629 C695 1.759 . S
C3648 C686 1.746 1_455 S
C3665 C735 1.755 . S
C3684 C726 1.742 . S
C3701 C766 1.758 1_455 S
C3720 C775 1.743 . S
C3737 C815 1.760 . S
C3756 C806 1.766 . S
C3773 C855 1.759 1_655 S
C3792 C846 1.767 . S
C3809 C886 1.756 . S
C3828 C895 1.761 . S
C3845 C935 1.754 1_655 S
C3864 C926 1.752 . S
C3881 C975 1.754 . S
C3900 C966 1.748 . S
C3917 C1006 1.758 1_455 S
C3936 C1015 1.767 . S
C3953 C1055 1.757 . S
C3972 C1046 1.741 . S
C3989 C1095 1.757 . S
C4008 C1086 1.740 1_455 S
C4025 C1135 1.759 . S
C4044 C1126 1.768 . S
C4061 C1175 1.759 1_655 S
C4080 C1166 1.767 . S
C4097 C1206 1.759 . S
C4116 C1215 1.749 . S
C4133 C1246 1.759 . S
C4152 C1255 1.767 1_655 S
C4169 C18 1.479 . S
C4188 C169 1.500 . S
C4205 C1169 1.473 . S
C4224 C58 1.460 . S
C4241 C569 1.484 . S
C4260 C98 1.475 . S
C4277 C138 1.475 . S
C4296 C929 1.482 . S
C4313 C209 1.483 . S
C4332 C1018 1.466 . S
C4349 C249 1.485 . S
C4368 C418 1.493 . S
C4385 C289 1.474 . S
C4404 C778 1.453 . S
C4421 C338 1.483 . S
C4440 C489 1.468 . S
C4457 C849 1.484 . S
C4476 C378 1.480 . S
C4493 C1249 1.474 . S
C4512 C458 1.478 . S
C4529 C529 1.484 . S
C4548 C698 1.480 . S
C4565 C1098 1.479 . S
C4584 C609 1.451 . S
C4601 C658 1.479 . S
C4620 C809 1.452 . S
C4637 C1209 1.483 . S
C4656 C738 1.468 . S
C4673 C889 1.484 . S
C4692 C1058 1.500 . S
C4709 C978 1.475 . S
C4728 C1129 1.486 . S
