# Generated by pormake.
# Topology uni, (4)-cn, num edge types: 1
# Building blocks:
#     Node 0, Type 0, BuildingBlock: GALJAG_clean_sbu_0, # of connection points: 4
#     Node 1, Type 0, BuildingBlock: GALJAG_clean_sbu_0, # of connection points: 4
#     Node 2, Type 0, BuildingBlock: GALJAG_clean_sbu_0, # of connection points: 4
#     Node 3, Type 0, BuildingBlock: GALJAG_clean_sbu_0, # of connection points: 4
#     Node 4, Type 0, BuildingBlock: GALJAG_clean_sbu_0, # of connection points: 4
#     Node 5, Type 0, BuildingBlock: GALJAG_clean_sbu_0, # of connection points: 4
#     Edge 6, Type (0, 0), BuildingBlock: FUNLAD_clean_linker_0, # of connection points: 2
#     Edge 7, Type (0, 0), BuildingBlock: FUNLAD_clean_linker_0, # of connection points: 2
#     Edge 8, Type (0, 0), BuildingBlock: FUNLAD_clean_linker_0, # of connection points: 2
#     Edge 9, Type (0, 0), BuildingBlock: FUNLAD_clean_linker_0, # of connection points: 2
#     Edge 10, Type (0, 0), BuildingBlock: FUNLAD_clean_linker_0, # of connection points: 2
#     Edge 11, Type (0, 0), BuildingBlock: FUNLAD_clean_linker_0, # of connection points: 2
#     Edge 12, Type (0, 0), BuildingBlock: FUNLAD_clean_linker_0, # of connection points: 2
#     Edge 13, Type (0, 0), BuildingBlock: FUNLAD_clean_linker_0, # of connection points: 2
#     Edge 14, Type (0, 0), BuildingBlock: FUNLAD_clean_linker_0, # of connection points: 2
#     Edge 15, Type (0, 0), BuildingBlock: FUNLAD_clean_linker_0, # of connection points: 2
#     Edge 16, Type (0, 0), BuildingBlock: FUNLAD_clean_linker_0, # of connection points: 2
#     Edge 17, Type (0, 0), BuildingBlock: FUNLAD_clean_linker_0, # of connection points: 2
# Relax obj value: 0.070
# Max RMSD: 0.134
# Mean RMSD: 0.134
data_MOF--net-uni--node1-GALJAG_clean_sbu_0--edge1-FUNLAD_clean_linker_0
_symmetry_space_group_name_H-M    P1
_symmetry_Int_Tables_number       1
_symmetry_cell_setting            triclinic
loop_
_symmetry_equiv_pos_as_xyz
'x, y, z'
_cell_length_a     43.765955
_cell_length_b     43.770813
_cell_length_c     29.648626
_cell_angle_alpha  89.978233
_cell_angle_beta   89.996256
_cell_angle_gamma 120.0466
loop_
_atom_site_label
_atom_site_type_symbol
_atom_site_fract_x
_atom_site_fract_y
_atom_site_fract_z
_atom_type_partial_charge
In0 In 0.62691 0.0024 0.04274 0.0
O1 O 0.58638 0.97298 0.98734 0.0
O2 O 0.60539 0.02782 0.99431 0.0
C3 C 0.64037 0.95015 0.06381 0.0
C4 C 0.6915 0.05508 0.01811 0.0
C5 C 0.59044 0.00455 0.11524 0.0
O6 O 0.62549 0.95063 0.02764 0.0
O7 O 0.64892 0.97629 0.08927 0.0
O8 O 0.62042 0.02979 0.10462 0.0
O9 O 0.57864 0.9784 0.08902 0.0
C10 C 0.58572 -0.00024 0.97302 0.0
O11 O 0.67515 0.05718 0.05191 0.0
O12 O 0.67549 0.02623 0.99704 0.0
In13 In 0.62879 0.61845 0.21445 0.0
O14 O 0.62795 0.59986 0.14242 0.0
O15 O 0.57869 0.586 0.1723 0.0
C16 C 0.69068 0.62321 0.23828 0.0
C17 C 0.64211 0.68491 0.19888 0.0
C18 C 0.58791 0.58125 0.285 0.0
O19 O 0.66842 0.59922 0.21305 0.0
O20 O 0.68201 0.64528 0.25125 0.0
O21 O 0.58905 0.60891 0.27049 0.0
O22 O 0.60677 0.57202 0.26336 0.0
C23 C 0.59493 0.58455 0.13797 0.0
O24 O 0.62599 0.6676 0.23352 0.0
O25 O 0.65191 0.66891 0.17247 0.0
In26 In 0.0215 0.62887 0.38739 0.0
O27 O 0.04203 0.63225 0.3157 0.0
O28 O 0.0037 0.58179 0.34013 0.0
C29 C 0.08168 0.68835 0.40971 0.0
C30 C 0.96567 0.63734 0.36961 0.0
C31 C 0.01653 0.59055 0.46146 0.0
O32 O 0.08136 0.66311 0.3888 0.0
O33 O 0.05155 0.68377 0.41915 0.0
O34 O 0.00221 0.60935 0.45908 0.0
O35 O 0.03295 0.59079 0.4264 0.0
C36 C 0.02327 0.59967 0.30784 0.0
O37 O 0.96257 0.60977 0.38748 0.0
O38 O 0.99703 0.66092 0.36119 0.0
In39 In 0.41317 0.02172 0.54312 0.0
O40 O 0.37319 0.96279 0.54444 0.0
O41 O 0.35947 0.99615 0.50832 0.0
C42 C 0.44693 0.01926 0.61833 0.0
C43 C 0.44882 0.02574 0.46673 0.0
C44 C 0.40415 0.07628 0.56684 0.0
O45 O 0.41401 0.00047 0.61325 0.0
O46 O 0.46292 0.03898 0.58528 0.0
O47 O 0.43094 0.08043 0.54558 0.0
O48 O 0.38182 0.04463 0.57586 0.0
C49 C 0.35055 0.96521 0.52073 0.0
O50 O 0.43677 0.04603 0.4746 0.0
O51 O 0.44317 0.00364 0.49752 0.0
In52 In 0.39742 0.40278 0.71338 0.0
O53 O 0.42288 0.36833 0.71653 0.0
O54 O 0.37552 0.34916 0.67891 0.0
C55 C 0.42906 0.43152 0.79282 0.0
C56 C 0.42697 0.44068 0.63756 0.0
C57 C 0.33322 0.39424 0.73188 0.0
O58 O 0.40706 0.3991 0.78836 0.0
O59 O 0.43529 0.44943 0.75717 0.0
O60 O 0.35982 0.424 0.72365 0.0
O61 O 0.33891 0.36871 0.73035 0.0
C62 C 0.39999 0.34406 0.69215 0.0
O63 O 0.39418 0.42496 0.64473 0.0
O64 O 0.44482 0.43769 0.66881 0.0
In65 In 0.00821 0.39948 0.88747 0.0
O66 O 0.06534 0.41369 0.89754 0.0
O67 O 0.03639 0.3768 0.84592 0.0
C68 C 0.00717 0.43836 0.95766 0.0
C69 C 0.00205 0.43423 0.81565 0.0
C70 C 0.96014 0.33288 0.91218 0.0
O71 O 0.03345 0.43498 0.94851 0.0
O72 O 0.98142 0.42243 0.93109 0.0
O73 O 0.95956 0.34556 0.87419 0.0
O74 O 0.98535 0.3535 0.93726 0.0
C75 C 0.06547 0.39427 0.86624 0.0
O76 O 0.97627 0.40651 0.83132 0.0
O77 O 0.03068 0.44453 0.83641 0.0
C78 C 0.58523 0.0351 0.1837 0.0
C79 C 0.57129 0.00503 0.15606 0.0
C80 C 0.56785 0.03505 0.22332 0.0
C81 C 0.53606 0.00485 0.23603 0.0
C82 C 0.5222 0.97485 0.20831 0.0
C83 C 0.53948 0.97497 0.16861 0.0
C84 C 0.5176 0.00305 0.27891 0.0
C85 C 0.52036 0.03162 0.29994 0.0
C86 C 0.50193 0.02945 0.34295 0.0
C87 C 0.49308 0.05546 0.35269 0.0
C88 C 0.47579 0.05428 0.39288 0.0
C89 C 0.4675 0.02731 0.4245 0.0
H90 H 0.50142 0.98284 0.3693 0.0
C91 C 0.47698 0.00167 0.41525 0.0
C92 C 0.49401 0.0027 0.37491 0.0
H93 H 0.47114 0.98071 0.43913 0.0
H94 H 0.60986 0.05857 0.17506 0.0
H95 H 0.57995 0.05836 0.24436 0.0
H96 H 0.49792 0.95115 0.21744 0.0
H97 H 0.52817 0.95133 0.14809 0.0
H98 H 0.49993 0.97697 0.29254 0.0
H99 H 0.53519 0.0574 0.28415 0.0
H100 H 0.49921 0.07656 0.3289 0.0
H101 H 0.46898 0.07451 0.3992 0.0
C102 C 0.54729 0.57358 0.34904 0.0
C103 C 0.56769 0.56222 0.32556 0.0
C104 C 0.52998 0.55684 0.389 0.0
C105 C 0.5327 0.52829 0.40619 0.0
C106 C 0.55286 0.51684 0.38238 0.0
C107 C 0.57002 0.53347 0.3424 0.0
C108 C 0.5167 0.51106 0.44992 0.0
C109 C 0.48889 0.51136 0.46897 0.0
C110 C 0.47366 0.49399 0.51288 0.0
C111 C 0.43762 0.48079 0.52128 0.0
C112 C 0.42241 0.46369 0.56195 0.0
C113 C 0.44312 0.45994 0.59528 0.0
H114 H 0.52264 0.50187 0.54216 0.0
C115 C 0.47939 0.47407 0.58746 0.0
C116 C 0.49453 0.49095 0.54674 0.0
H117 H 0.49608 0.47185 0.61268 0.0
H118 H 0.54524 0.59586 0.33701 0.0
H119 H 0.5155 0.56709 0.40688 0.0
H120 H 0.55561 0.49508 0.39495 0.0
H121 H 0.58567 0.52419 0.32517 0.0
H122 H 0.5276 0.49637 0.46617 0.0
H123 H 0.47557 0.52295 0.45096 0.0
H124 H 0.42105 0.48315 0.496 0.0
H125 H 0.39441 0.45323 0.56715 0.0
C126 C 0.02981 0.481 0.7566 0.0
C127 C 0.99932 0.45268 0.77546 0.0
C128 C 0.02762 0.4978 0.7177 0.0
C129 C 0.99483 0.48659 0.69679 0.0
C130 C 0.96425 0.45894 0.71638 0.0
C131 C 0.96647 0.44192 0.75515 0.0
C132 C 0.99175 0.50376 0.65518 0.0
C133 C 0.0175 0.51783 0.62388 0.0
C134 C 0.01522 0.53518 0.58197 0.0
C135 C 0.03554 0.5366 0.54456 0.0
C136 C 0.03539 0.55398 0.50511 0.0
C137 C 0.01526 0.57078 0.50248 0.0
H138 H 0.97953 0.55208 0.60775 0.0
C139 C 0.99486 0.56941 0.53983 0.0
C140 C 0.9948 0.55178 0.57923 0.0
H141 H 0.97926 0.58232 0.53884 0.0
H142 H 0.05547 0.49007 0.77173 0.0
H143 H 0.05162 0.51978 0.70443 0.0
H144 H 0.93863 0.45008 0.70122 0.0
H145 H 0.9425 0.42029 0.76911 0.0
H146 H 0.96689 0.50299 0.64918 0.0
H147 H 0.04078 0.51527 0.62801 0.0
H148 H 0.0517 0.52429 0.54587 0.0
H149 H 0.05151 0.55471 0.47694 0.0
C150 C 0.56746 0.02976 0.91608 0.0
C151 C 0.56477 0.99861 0.93332 0.0
C152 C 0.54894 0.02889 0.87722 0.0
C153 C 0.5274 0.99679 0.85473 0.0
C154 C 0.52397 0.96556 0.87278 0.0
C155 C 0.54262 0.96646 0.9115 0.0
C156 C 0.50768 0.99478 0.81298 0.0
C157 C 0.51869 0.02172 0.78349 0.0
C158 C 0.49965 0.01971 0.74105 0.0
C159 C 0.51852 0.04265 0.70547 0.0
C160 C 0.50152 0.04217 0.66535 0.0
C161 C 0.46514 0.01894 0.66015 0.0
H162 H 0.44741 0.97913 0.76289 0.0
C163 C 0.44613 0.99609 0.69576 0.0
C164 C 0.46315 0.99649 0.73585 0.0
H165 H 0.41798 0.97811 0.69286 0.0
H166 H 0.58412 0.0549 0.9324 0.0
H167 H 0.55135 0.05336 0.86525 0.0
H168 H 0.50726 0.94044 0.85644 0.0
H169 H 0.53989 0.94199 0.92412 0.0
H170 H 0.48458 0.96954 0.80514 0.0
H171 H 0.54367 0.04575 0.78931 0.0
H172 H 0.54658 0.06101 0.70866 0.0
H173 H 0.51684 0.06024 0.63858 0.0
C174 C 0.54002 0.54887 0.09238 0.0
C175 C 0.57701 0.56717 0.09548 0.0
C176 C 0.5233 0.53317 0.05172 0.0
C177 C 0.54334 0.53549 0.01335 0.0
C178 C 0.58029 0.55397 0.01656 0.0
C179 C 0.59697 0.56945 0.05721 0.0
C180 C 0.52685 0.52035 0.96902 0.0
C181 C 0.49395 0.49264 0.96443 0.0
C182 C 0.47798 0.47754 0.91986 0.0
C183 C 0.45182 0.4418 0.91718 0.0
C184 C 0.43611 0.42676 0.87586 0.0
C185 C 0.44593 0.44731 0.83642 0.0
H186 H 0.5068 0.5261 0.88128 0.0
C187 C 0.47172 0.4832 0.83912 0.0
C188 C 0.48757 0.4982 0.88038 0.0
H189 H 0.47959 0.49978 0.80934 0.0
H190 H 0.52398 0.54692 0.12127 0.0
H191 H 0.49479 0.52002 0.05029 0.0
H192 H 0.59638 0.55641 0.98749 0.0
H193 H 0.62554 0.58353 0.05849 0.0
H194 H 0.54324 0.53148 0.93927 0.0
H195 H 0.47873 0.47922 0.99428 0.0
H196 H 0.4437 0.42538 0.94711 0.0
H197 H 0.41615 0.39906 0.87488 0.0
C198 C 0.03637 0.47685 0.02448 0.0
C199 C 0.00623 0.45817 0.99743 0.0
C200 C 0.03517 0.49426 0.06333 0.0
C201 C 0.00373 0.49338 0.07592 0.0
C202 C 0.97364 0.47474 0.04878 0.0
C203 C 0.97491 0.4575 0.00974 0.0
C204 C 0.0009 0.50984 0.11834 0.0
C205 C 0.02866 0.53765 0.13794 0.0
C206 C 0.02605 0.55316 0.18129 0.0
C207 C 0.05011 0.58883 0.19022 0.0
C208 C 0.04903 0.60406 0.23117 0.0
C209 C 0.02416 0.58372 0.26434 0.0
H210 H 0.98294 0.50493 0.20955 0.0
C211 C 0.0003 0.54793 0.2557 0.0
C212 C 0.0012 0.53277 0.2146 0.0
H213 H 0.98099 0.53155 0.28077 0.0
H214 H 0.06082 0.47761 0.01599 0.0
H215 H 0.05863 0.50743 0.08402 0.0
H216 H 0.94902 0.47338 0.05791 0.0
H217 H 0.9512 0.44315 0.98966 0.0
H218 H 0.97479 0.49928 0.13303 0.0
H219 H 0.05406 0.5505 0.12095 0.0
H220 H 0.06974 0.60502 0.16534 0.0
H221 H 0.06786 0.63168 0.23699 0.0
C222 C 0.66438 0.73783 0.14883 0.0
C223 C 0.64762 0.7204 0.18893 0.0
C224 C 0.66765 0.77041 0.13796 0.0
C225 C 0.65398 0.78614 0.16693 0.0
C226 C 0.63845 0.7693 0.20781 0.0
C227 C 0.63514 0.73668 0.21864 0.0
C228 C 0.65515 0.8198 0.15554 0.0
C229 C 0.65569 0.83054 0.11277 0.0
C230 C 0.65339 0.86231 0.10079 0.0
C231 C 0.64005 0.86367 0.05824 0.0
C232 C 0.63624 0.8924 0.04604 0.0
C233 C 0.64605 0.92064 0.07602 0.0
H234 H 0.67561 0.8916 0.1629 0.0
C235 C 0.66041 0.9199 0.11811 0.0
C236 C 0.66413 0.89107 0.13039 0.0
H237 H 0.6685 0.94146 0.14175 0.0
H238 H 0.67463 0.7261 0.1255 0.0
H239 H 0.68096 0.78312 0.10693 0.0
H240 H 0.62805 0.78098 0.23098 0.0
H241 H 0.62228 0.72397 0.24995 0.0
H242 H 0.6525 0.83453 0.18324 0.0
H243 H 0.65495 0.81397 0.08505 0.0
H244 H 0.63189 0.84208 0.0346 0.0
H245 H 0.62525 0.8923 0.01326 0.0
C246 C 0.90051 0.6128 0.3647 0.0
C247 C 0.9349 0.64106 0.35785 0.0
C248 C 0.87132 0.61549 0.3515 0.0
C249 C 0.87593 0.64653 0.33097 0.0
C250 C 0.91028 0.6752 0.32557 0.0
C251 C 0.93952 0.67244 0.3386 0.0
C252 C 0.84546 0.64979 0.31523 0.0
C253 C 0.81529 0.62189 0.30036 0.0
C254 C 0.78453 0.62416 0.28346 0.0
C255 C 0.76033 0.59731 0.25499 0.0
C256 C 0.73025 0.59745 0.23966 0.0
C257 C 0.72348 0.6243 0.25286 0.0
H258 H 0.7954 0.67192 0.31932 0.0
C259 C 0.74766 0.65131 0.28124 0.0
C260 C 0.77791 0.65126 0.29648 0.0
H261 H 0.74297 0.67221 0.29222 0.0
H262 H 0.89611 0.5884 0.37988 0.0
H263 H 0.84522 0.59328 0.35769 0.0
H264 H 0.91454 0.69954 0.31035 0.0
H265 H 0.96573 0.69474 0.33316 0.0
H266 H 0.84897 0.67613 0.31323 0.0
H267 H 0.81347 0.59624 0.29837 0.0
H268 H 0.76463 0.57601 0.24465 0.0
H269 H 0.71203 0.57619 0.21794 0.0
C270 C 0.11409 0.74839 0.44482 0.0
C271 C 0.1148 0.72036 0.42279 0.0
C272 C 0.14552 0.77836 0.45791 0.0
C273 C 0.17832 0.78086 0.44905 0.0
C274 C 0.17888 0.75267 0.42729 0.0
C275 C 0.1475 0.72283 0.41406 0.0
C276 C 0.21234 0.81165 0.46345 0.0
C277 C 0.21704 0.8442 0.46991 0.0
C278 C 0.25145 0.87484 0.48356 0.0
C279 C 0.25918 0.90897 0.47138 0.0
C280 C 0.2914 0.93837 0.48338 0.0
C281 C 0.31637 0.93422 0.50833 0.0
H282 H 0.27081 0.84502 0.52057 0.0
C283 C 0.3084 0.90016 0.52135 0.0
C284 C 0.27626 0.87076 0.50921 0.0
H285 H 0.32699 0.89618 0.54098 0.0
H286 H 0.08923 0.74708 0.45231 0.0
H287 H 0.14388 0.79903 0.47578 0.0
H288 H 0.20372 0.75375 0.42037 0.0
H289 H 0.14889 0.70156 0.39732 0.0
H290 H 0.23477 0.80757 0.46657 0.0
H291 H 0.19566 0.84923 0.46253 0.0
H292 H 0.24041 0.91289 0.45204 0.0
H293 H 0.29674 0.96434 0.4731 0.0
C294 C 0.37579 0.28604 0.65252 0.0
C295 C 0.40233 0.31277 0.67895 0.0
C296 C 0.37866 0.25704 0.63868 0.0
C297 C 0.40817 0.25418 0.65118 0.0
C298 C 0.43468 0.28099 0.67754 0.0
C299 C 0.43172 0.30988 0.69152 0.0
C300 C 0.41304 0.2246 0.63575 0.0
C301 C 0.38611 0.19257 0.62433 0.0
C302 C 0.39138 0.16321 0.60908 0.0
C303 C 0.36439 0.12828 0.61631 0.0
C304 C 0.36849 0.1 0.60256 0.0
C305 C 0.39955 0.10613 0.58071 0.0
H306 H 0.44316 0.19584 0.57899 0.0
C307 C 0.42628 0.14104 0.57257 0.0
C308 C 0.42226 0.16932 0.58653 0.0
H309 H 0.45039 0.14656 0.55545 0.0
H310 H 0.35296 0.28772 0.64203 0.0
H311 H 0.35816 0.23751 0.61731 0.0
H312 H 0.45781 0.27961 0.68734 0.0
H313 H 0.4527 0.33017 0.71169 0.0
H314 H 0.43979 0.22906 0.63581 0.0
H315 H 0.3591 0.18686 0.62849 0.0
H316 H 0.3402 0.12283 0.63316 0.0
H317 H 0.34735 0.07335 0.60909 0.0
C318 C 0.09744 0.37318 0.81645 0.0
C319 C 0.09775 0.39377 0.85296 0.0
C320 C 0.12864 0.3746 0.80228 0.0
C321 C 0.16075 0.39662 0.82458 0.0
C322 C 0.16082 0.41686 0.86132 0.0
C323 C 0.12969 0.41536 0.87551 0.0
C324 C 0.19497 0.40078 0.80926 0.0
C325 C 0.19803 0.37664 0.78452 0.0
C326 C 0.23276 0.38172 0.76996 0.0
C327 C 0.23664 0.35206 0.76366 0.0
C328 C 0.26922 0.35605 0.75097 0.0
C329 C 0.29844 0.38983 0.74371 0.0
H330 H 0.25957 0.43892 0.76455 0.0
C331 C 0.29433 0.41947 0.74869 0.0
C332 C 0.26184 0.4155 0.7616 0.0
H333 H 0.31631 0.44582 0.74291 0.0
H334 H 0.07323 0.3565 0.79822 0.0
H335 H 0.12755 0.35927 0.77311 0.0
H336 H 0.18516 0.43417 0.87897 0.0
H337 H 0.13081 0.43164 0.90369 0.0
H338 H 0.21874 0.42427 0.82054 0.0
H339 H 0.17473 0.35153 0.77674 0.0
H340 H 0.21456 0.32574 0.76936 0.0
H341 H 0.27155 0.33269 0.74712 0.0
C342 C 0.9039 0.27615 0.89872 0.0
C343 C 0.93224 0.29764 0.92728 0.0
C344 C 0.87602 0.24409 0.91428 0.0
C345 C 0.87602 0.23278 0.95878 0.0
C346 C 0.9047 0.25407 0.98696 0.0
C347 C 0.93259 0.28607 0.97136 0.0
C348 C 0.84551 0.20052 0.97801 0.0
C349 C 0.8217 0.17338 0.95283 0.0
C350 C 0.78961 0.14265 0.972 0.0
C351 C 0.77315 0.11083 0.94776 0.0
C352 C 0.74171 0.08206 0.96327 0.0
C353 C 0.72586 0.08467 0.00317 0.0
H354 H 0.78502 0.16944 0.03123 0.0
C355 C 0.74238 0.11637 0.02766 0.0
C356 C 0.77386 0.1451 0.01224 0.0
H357 H 0.73062 0.11925 0.05835 0.0
H358 H 0.90279 0.28451 0.86467 0.0
H359 H 0.85404 0.22906 0.8918 0.0
H360 H 0.9053 0.24618 0.02145 0.0
H361 H 0.95402 0.30212 0.99423 0.0
H362 H 0.84301 0.19908 0.0145 0.0
H363 H 0.82595 0.17314 0.91679 0.0
H364 H 0.7845 0.1083 0.91648 0.0
H365 H 0.72951 0.05799 0.94356 0.0
loop_
_geom_bond_atom_site_label_1
_geom_bond_atom_site_label_2
_geom_bond_distance
_geom_bond_site_symmetry_2
_ccdc_geom_bond_type
In0 O1 2.294 1_544 S
In0 O2 2.326 . S
In0 O6 2.266 1_545 S
In0 O7 2.326 1_545 S
In0 O8 2.266 . S
In0 O9 2.326 1_545 S
In0 O11 2.294 . S
In0 O12 2.326 1_554 S
O1 In0 2.294 1_566 S
O1 C10 1.240 1_565 S
O2 In0 2.326 . S
O2 C10 1.252 1_554 S
C3 O6 1.252 . S
C3 O7 1.260 . S
C4 O11 1.240 . S
C4 O12 1.252 1_554 S
C5 O8 1.252 . S
C5 O9 1.260 1_545 S
O6 In0 2.266 1_565 S
O6 C3 1.252 . S
O7 In0 2.326 1_565 S
O7 C3 1.260 . S
O8 In0 2.266 . S
O8 C5 1.252 . S
O9 In0 2.326 1_565 S
O9 C5 1.260 1_565 S
C10 O1 1.240 1_545 S
C10 O2 1.252 1_556 S
O11 In0 2.294 . S
O11 C4 1.240 . S
O12 In0 2.326 1_556 S
O12 C4 1.252 1_556 S
In13 O14 2.294 . S
In13 O15 2.326 . S
In13 O19 2.266 . S
In13 O20 2.326 . S
In13 O21 2.266 . S
In13 O22 2.326 . S
In13 O24 2.294 . S
In13 O25 2.326 . S
O14 In13 2.294 . S
O14 C23 1.240 . S
O15 In13 2.326 . S
O15 C23 1.252 . S
C16 O19 1.252 . S
C16 O20 1.260 . S
C17 O24 1.240 . S
C17 O25 1.252 . S
C18 O21 1.252 . S
C18 O22 1.260 . S
O19 In13 2.266 . S
O19 C16 1.252 . S
O20 In13 2.326 . S
O20 C16 1.260 . S
O21 In13 2.266 . S
O21 C18 1.252 . S
O22 In13 2.326 . S
O22 C18 1.260 . S
C23 O14 1.240 . S
C23 O15 1.252 . S
O24 In13 2.294 . S
O24 C17 1.240 . S
O25 In13 2.326 . S
O25 C17 1.252 . S
In26 O27 2.294 . S
In26 O28 2.326 1_455 S
In26 O32 2.266 . S
In26 O33 2.326 . S
In26 O34 2.264 1_455 S
In26 O35 2.326 . S
In26 O37 2.294 1_455 S
In26 O38 2.326 1_455 S
O27 In26 2.294 . S
O27 C36 1.240 . S
O28 In26 2.326 1_655 S
O28 C36 1.252 1_655 S
C29 O32 1.252 . S
C29 O33 1.260 . S
C30 O37 1.240 . S
C30 O38 1.252 . S
C31 O34 1.220 1_455 S
C31 O35 1.260 . S
O32 In26 2.266 . S
O32 C29 1.252 . S
O33 In26 2.326 . S
O33 C29 1.260 . S
O34 In26 2.264 1_655 S
O34 C31 1.220 1_655 S
O35 In26 2.326 . S
O35 C31 1.260 . S
C36 O27 1.240 . S
C36 O28 1.252 1_455 S
O37 In26 2.294 1_655 S
O37 C30 1.240 . S
O38 In26 2.326 1_655 S
O38 C30 1.252 . S
In39 O40 2.294 1_545 S
In39 O41 2.326 1_545 S
In39 O45 2.266 1_545 S
In39 O46 2.326 . S
In39 O47 2.266 . S
In39 O48 2.326 . S
In39 O50 2.294 . S
In39 O51 2.326 1_545 S
O40 In39 2.294 1_565 S
O40 C49 1.240 . S
O41 In39 2.326 1_565 S
O41 C49 1.252 . S
C42 O45 1.252 1_545 S
C42 O46 1.260 . S
C43 O50 1.240 . S
C43 O51 1.252 1_545 S
C44 O47 1.252 . S
C44 O48 1.260 . S
O45 In39 2.266 1_565 S
O45 C42 1.252 1_565 S
O46 In39 2.326 . S
O46 C42 1.260 . S
O47 In39 2.266 . S
O47 C44 1.252 . S
O48 In39 2.326 . S
O48 C44 1.260 . S
C49 O40 1.240 . S
C49 O41 1.252 . S
O50 In39 2.294 . S
O50 C43 1.240 . S
O51 In39 2.326 1_565 S
O51 C43 1.252 1_565 S
In52 O53 2.294 . S
In52 O54 2.326 . S
In52 O58 2.266 . S
In52 O59 2.326 . S
In52 O60 2.266 . S
In52 O61 2.326 . S
In52 O63 2.294 . S
In52 O64 2.326 . S
O53 In52 2.294 . S
O53 C62 1.240 . S
O54 In52 2.326 . S
O54 C62 1.252 . S
C55 O58 1.252 . S
C55 O59 1.260 . S
C56 O63 1.240 . S
C56 O64 1.252 . S
C57 O60 1.252 . S
C57 O61 1.260 . S
O58 In52 2.266 . S
O58 C55 1.252 . S
O59 In52 2.326 . S
O59 C55 1.260 . S
O60 In52 2.266 . S
O60 C57 1.252 . S
O61 In52 2.326 . S
O61 C57 1.260 . S
C62 O53 1.240 . S
C62 O54 1.252 . S
O63 In52 2.294 . S
O63 C56 1.240 . S
O64 In52 2.326 . S
O64 C56 1.252 . S
In65 O66 2.294 . S
In65 O67 2.326 . S
In65 O71 2.266 . S
In65 O72 2.326 1_455 S
In65 O73 2.266 1_455 S
In65 O74 2.326 1_455 S
In65 O76 2.293 1_455 S
In65 O77 2.326 . S
O66 In65 2.294 . S
O66 C75 1.240 . S
O67 In65 2.326 . S
O67 C75 1.252 . S
C68 O71 1.252 . S
C68 O72 1.260 1_455 S
C69 O76 1.239 1_455 S
C69 O77 1.252 . S
C70 O73 1.252 . S
C70 O74 1.260 . S
O71 In65 2.266 . S
O71 C68 1.252 . S
O72 In65 2.326 1_655 S
O72 C68 1.260 1_655 S
O73 In65 2.266 1_655 S
O73 C70 1.252 . S
O74 In65 2.326 1_655 S
O74 C70 1.260 . S
C75 O66 1.240 . S
C75 O67 1.252 . S
O76 In65 2.293 1_655 S
O76 C69 1.239 1_655 S
O77 In65 2.326 . S
O77 C69 1.252 . S
C78 C79 1.405 . S
C78 C80 1.383 . S
C78 H94 0.951 . S
C79 C78 1.405 . S
C79 C83 1.368 1_545 S
C80 C78 1.383 . S
C80 C81 1.402 1_545 S
C80 H95 0.951 . S
C81 C80 1.402 1_565 S
C81 C82 1.375 . S
C81 C84 1.481 . S
C82 C81 1.375 . S
C82 C83 1.367 . S
C82 H96 0.951 . S
C83 C79 1.368 1_565 S
C83 C82 1.367 . S
C83 H97 0.950 . S
C84 C81 1.481 . S
C84 C85 1.297 1_565 S
C84 H98 0.950 . S
C85 C84 1.297 1_545 S
C85 C86 1.479 . S
C85 H99 0.950 . S
C86 C85 1.479 . S
C86 C87 1.375 . S
C86 C92 1.404 1_545 S
C87 C86 1.375 . S
C87 C88 1.369 . S
C87 H100 0.950 . S
C88 C87 1.369 . S
C88 C89 1.392 . S
C88 H101 0.951 . S
C89 C88 1.392 . S
C89 C91 1.384 1_545 S
H90 C92 0.949 . S
C91 C89 1.384 1_565 S
C91 C92 1.385 . S
C91 H93 0.950 . S
C92 C86 1.404 1_565 S
C92 H90 0.949 . S
C92 C91 1.385 . S
H93 C91 0.950 . S
H94 C78 0.951 . S
H95 C80 0.951 . S
H96 C82 0.951 . S
H97 C83 0.950 . S
H98 C84 0.950 . S
H99 C85 0.950 . S
H100 C87 0.950 . S
H101 C88 0.951 . S
C102 C103 1.386 . S
C102 C104 1.383 . S
C102 H118 0.951 . S
C103 C102 1.386 . S
C103 C107 1.383 . S
C104 C102 1.383 . S
C104 C105 1.402 . S
C104 H119 0.951 . S
C105 C104 1.402 . S
C105 C106 1.375 . S
C105 C108 1.481 . S
C106 C105 1.375 . S
C106 C107 1.367 . S
C106 H120 0.951 . S
C107 C103 1.383 . S
C107 C106 1.367 . S
C107 H121 0.950 . S
C108 C105 1.481 . S
C108 C109 1.297 . S
C108 H122 0.950 . S
C109 C108 1.297 . S
C109 C110 1.479 . S
C109 H123 0.950 . S
C110 C109 1.479 . S
C110 C111 1.375 . S
C110 C116 1.404 . S
C111 C110 1.375 . S
C111 C112 1.369 . S
C111 H124 0.950 . S
C112 C111 1.369 . S
C112 C113 1.392 . S
C112 H125 0.951 . S
C113 C112 1.392 . S
C113 C115 1.384 . S
H114 C116 0.949 . S
C115 C113 1.384 . S
C115 C116 1.385 . S
C115 H117 0.950 . S
C116 C110 1.404 . S
C116 H114 0.949 . S
C116 C115 1.385 . S
H117 C115 0.950 . S
H118 C102 0.951 . S
H119 C104 0.951 . S
H120 C106 0.951 . S
H121 C107 0.950 . S
H122 C108 0.950 . S
H123 C109 0.950 . S
H124 C111 0.950 . S
H125 C112 0.951 . S
C126 C127 1.386 . S
C126 C128 1.383 . S
C126 H142 0.951 . S
C127 C126 1.386 . S
C127 C131 1.383 1_455 S
C128 C126 1.383 . S
C128 C129 1.402 . S
C128 H143 0.951 . S
C129 C128 1.402 . S
C129 C130 1.375 1_455 S
C129 C132 1.481 . S
C130 C129 1.375 1_655 S
C130 C131 1.367 . S
C130 H144 0.951 . S
C131 C127 1.383 1_655 S
C131 C130 1.367 . S
C131 H145 0.950 . S
C132 C129 1.481 . S
C132 C133 1.297 . S
C132 H146 0.950 1_455 S
C133 C132 1.297 . S
C133 C134 1.479 . S
C133 H147 0.950 . S
C134 C133 1.479 . S
C134 C135 1.375 . S
C134 C140 1.404 . S
C135 C134 1.375 . S
C135 C136 1.369 . S
C135 H148 0.950 . S
C136 C135 1.369 . S
C136 C137 1.392 . S
C136 H149 0.951 . S
C137 C136 1.392 . S
C137 C139 1.384 . S
H138 C140 0.949 1_655 S
C139 C137 1.384 . S
C139 C140 1.385 . S
C139 H141 0.950 1_455 S
C140 C134 1.404 . S
C140 H138 0.949 1_455 S
C140 C139 1.385 . S
H141 C139 0.950 1_655 S
H142 C126 0.951 . S
H143 C128 0.951 . S
H144 C130 0.951 . S
H145 C131 0.950 . S
H146 C132 0.950 1_655 S
H147 C133 0.950 . S
H148 C135 0.950 . S
H149 C136 0.951 . S
C150 C151 1.386 . S
C150 C152 1.383 . S
C150 H166 0.951 . S
C151 C150 1.386 . S
C151 C155 1.383 . S
C152 C150 1.383 . S
C152 C153 1.402 . S
C152 H167 0.951 . S
C153 C152 1.402 . S
C153 C154 1.375 . S
C153 C156 1.481 . S
C154 C153 1.375 . S
C154 C155 1.367 . S
C154 H168 0.951 1_545 S
C155 C151 1.383 . S
C155 C154 1.367 . S
C155 H169 0.950 1_545 S
C156 C153 1.481 . S
C156 C157 1.297 . S
C156 H170 0.950 . S
C157 C156 1.297 . S
C157 C158 1.479 . S
C157 H171 0.950 . S
C158 C157 1.479 . S
C158 C159 1.375 . S
C158 C164 1.404 . S
C159 C158 1.375 . S
C159 C160 1.369 . S
C159 H172 0.950 . S
C160 C159 1.369 . S
C160 C161 1.392 . S
C160 H173 0.951 . S
C161 C160 1.392 . S
C161 C163 1.384 . S
H162 C164 0.949 . S
C163 C161 1.384 . S
C163 C164 1.385 . S
C163 H165 0.936 1_545 S
C164 C158 1.404 . S
C164 H162 0.949 . S
C164 C163 1.385 . S
H165 C163 0.936 1_565 S
H166 C150 0.951 . S
H167 C152 0.951 . S
H168 C154 0.951 1_565 S
H169 C155 0.950 1_565 S
H170 C156 0.950 . S
H171 C157 0.950 . S
H172 C159 0.950 . S
H173 C160 0.951 . S
C174 C175 1.386 . S
C174 C176 1.383 . S
C174 H190 0.951 . S
C175 C174 1.386 . S
C175 C179 1.383 . S
C176 C174 1.383 . S
C176 C177 1.402 . S
C176 H191 0.951 . S
C177 C176 1.402 . S
C177 C178 1.375 . S
C177 C180 1.481 1_554 S
C178 C177 1.375 . S
C178 C179 1.367 . S
C178 H192 0.951 1_554 S
C179 C175 1.383 . S
C179 C178 1.367 . S
C179 H193 0.950 . S
C180 C177 1.481 1_556 S
C180 C181 1.297 . S
C180 H194 0.950 . S
C181 C180 1.297 . S
C181 C182 1.479 . S
C181 H195 0.950 . S
C182 C181 1.479 . S
C182 C183 1.375 . S
C182 C188 1.404 . S
C183 C182 1.375 . S
C183 C184 1.369 . S
C183 H196 0.950 . S
C184 C183 1.369 . S
C184 C185 1.392 . S
C184 H197 0.951 . S
C185 C184 1.392 . S
C185 C187 1.384 . S
H186 C188 0.949 . S
C187 C185 1.384 . S
C187 C188 1.385 . S
C187 H189 0.950 . S
C188 C182 1.404 . S
C188 H186 0.949 . S
C188 C187 1.385 . S
H189 C187 0.950 . S
H190 C174 0.951 . S
H191 C176 0.951 . S
H192 C178 0.951 1_556 S
H193 C179 0.950 . S
H194 C180 0.950 . S
H195 C181 0.950 . S
H196 C183 0.950 . S
H197 C184 0.951 . S
C198 C199 1.386 . S
C198 C200 1.383 . S
C198 H214 0.951 1_554 S
C199 C198 1.386 . S
C199 C203 1.383 1_455 S
C200 C198 1.383 . S
C200 C201 1.402 1_455 S
C200 H215 0.951 . S
C201 C200 1.402 1_655 S
C201 C202 1.375 . S
C201 C204 1.481 . S
C202 C201 1.375 . S
C202 C203 1.367 . S
C202 H216 0.951 . S
C203 C199 1.383 1_655 S
C203 C202 1.367 . S
C203 H217 0.950 . S
C204 C201 1.481 . S
C204 C205 1.297 1_655 S
C204 H218 0.950 . S
C205 C204 1.297 1_455 S
C205 C206 1.471 1_455 S
C205 H219 0.950 . S
C206 C205 1.471 1_655 S
C206 C207 1.370 1_655 S
C206 C212 1.416 . S
C207 C206 1.370 1_455 S
C207 C208 1.369 . S
C207 H220 0.950 . S
C208 C207 1.369 . S
C208 C209 1.392 . S
C208 H221 0.951 . S
C209 C208 1.392 . S
C209 C211 1.384 1_455 S
H210 C212 0.949 . S
C211 C209 1.384 1_655 S
C211 C212 1.385 . S
C211 H213 0.950 . S
C212 C206 1.416 . S
C212 H210 0.949 . S
C212 C211 1.385 . S
H213 C211 0.950 . S
H214 C198 0.951 1_556 S
H215 C200 0.951 . S
H216 C202 0.951 . S
H217 C203 0.950 . S
H218 C204 0.950 . S
H219 C205 0.950 . S
H220 C207 0.950 . S
H221 C208 0.951 . S
C222 C223 1.386 . S
C222 C224 1.383 . S
C222 H238 0.951 . S
C223 C222 1.386 . S
C223 C227 1.383 . S
C224 C222 1.383 . S
C224 C225 1.402 . S
C224 H239 0.951 . S
C225 C224 1.402 . S
C225 C226 1.375 . S
C225 C228 1.481 . S
C226 C225 1.375 . S
C226 C227 1.367 . S
C226 H240 0.951 . S
C227 C223 1.383 . S
C227 C226 1.367 . S
C227 H241 0.950 . S
C228 C225 1.481 . S
C228 C229 1.297 . S
C228 H242 0.950 . S
C229 C228 1.297 . S
C229 C230 1.479 . S
C229 H243 0.950 . S
C230 C229 1.479 . S
C230 C231 1.375 . S
C230 C236 1.404 . S
C231 C230 1.375 . S
C231 C232 1.369 . S
C231 H244 0.950 . S
C232 C231 1.369 . S
C232 C233 1.392 . S
C232 H245 0.951 . S
C233 C232 1.392 . S
C233 C235 1.384 . S
H234 C236 0.949 . S
C235 C233 1.384 . S
C235 C236 1.385 . S
C235 H237 0.950 . S
C236 C230 1.404 . S
C236 H234 0.949 . S
C236 C235 1.385 . S
H237 C235 0.950 . S
H238 C222 0.951 . S
H239 C224 0.951 . S
H240 C226 0.951 . S
H241 C227 0.950 . S
H242 C228 0.950 . S
H243 C229 0.950 . S
H244 C231 0.950 . S
H245 C232 0.951 . S
C246 C247 1.386 . S
C246 C248 1.383 . S
C246 H262 0.951 . S
C247 C246 1.386 . S
C247 C251 1.383 . S
C248 C246 1.383 . S
C248 C249 1.402 . S
C248 H263 0.951 . S
C249 C248 1.402 . S
C249 C250 1.375 . S
C249 C252 1.481 . S
C250 C249 1.375 . S
C250 C251 1.367 . S
C250 H264 0.951 . S
C251 C247 1.383 . S
C251 C250 1.367 . S
C251 H265 0.950 . S
C252 C249 1.481 . S
C252 C253 1.297 . S
C252 H266 0.950 . S
C253 C252 1.297 . S
C253 C254 1.479 . S
C253 H267 0.950 . S
C254 C253 1.479 . S
C254 C255 1.375 . S
C254 C260 1.404 . S
C255 C254 1.375 . S
C255 C256 1.369 . S
C255 H268 0.950 . S
C256 C255 1.369 . S
C256 C257 1.392 . S
C256 H269 0.951 . S
C257 C256 1.392 . S
C257 C259 1.384 . S
H258 C260 0.949 . S
C259 C257 1.384 . S
C259 C260 1.385 . S
C259 H261 0.950 . S
C260 C254 1.404 . S
C260 H258 0.949 . S
C260 C259 1.385 . S
H261 C259 0.950 . S
H262 C246 0.951 . S
H263 C248 0.951 . S
H264 C250 0.951 . S
H265 C251 0.950 . S
H266 C252 0.950 . S
H267 C253 0.950 . S
H268 C255 0.950 . S
H269 C256 0.951 . S
C270 C271 1.386 . S
C270 C272 1.383 . S
C270 H286 0.951 . S
C271 C270 1.386 . S
C271 C275 1.383 . S
C272 C270 1.383 . S
C272 C273 1.402 . S
C272 H287 0.951 . S
C273 C272 1.402 . S
C273 C274 1.375 . S
C273 C276 1.481 . S
C274 C273 1.375 . S
C274 C275 1.367 . S
C274 H288 0.951 . S
C275 C271 1.383 . S
C275 C274 1.367 . S
C275 H289 0.950 . S
C276 C273 1.481 . S
C276 C277 1.297 . S
C276 H290 0.950 . S
C277 C276 1.297 . S
C277 C278 1.479 . S
C277 H291 0.950 . S
C278 C277 1.479 . S
C278 C279 1.375 . S
C278 C284 1.404 . S
C279 C278 1.375 . S
C279 C280 1.369 . S
C279 H292 0.950 . S
C280 C279 1.369 . S
C280 C281 1.392 . S
C280 H293 0.951 . S
C281 C280 1.392 . S
C281 C283 1.384 . S
H282 C284 0.949 . S
C283 C281 1.384 . S
C283 C284 1.385 . S
C283 H285 0.950 . S
C284 C278 1.404 . S
C284 H282 0.949 . S
C284 C283 1.385 . S
H285 C283 0.950 . S
H286 C270 0.951 . S
H287 C272 0.951 . S
H288 C274 0.951 . S
H289 C275 0.950 . S
H290 C276 0.950 . S
H291 C277 0.950 . S
H292 C279 0.950 . S
H293 C280 0.951 . S
C294 C295 1.386 . S
C294 C296 1.383 . S
C294 H310 0.951 . S
C295 C294 1.386 . S
C295 C299 1.383 . S
C296 C294 1.383 . S
C296 C297 1.402 . S
C296 H311 0.951 . S
C297 C296 1.402 . S
C297 C298 1.375 . S
C297 C300 1.481 . S
C298 C297 1.375 . S
C298 C299 1.367 . S
C298 H312 0.951 . S
C299 C295 1.383 . S
C299 C298 1.367 . S
C299 H313 0.950 . S
C300 C297 1.481 . S
C300 C301 1.297 . S
C300 H314 0.950 . S
C301 C300 1.297 . S
C301 C302 1.479 . S
C301 H315 0.950 . S
C302 C301 1.479 . S
C302 C303 1.375 . S
C302 C308 1.404 . S
C303 C302 1.375 . S
C303 C304 1.369 . S
C303 H316 0.950 . S
C304 C303 1.369 . S
C304 C305 1.392 . S
C304 H317 0.951 . S
C305 C304 1.392 . S
C305 C307 1.384 . S
H306 C308 0.949 . S
C307 C305 1.384 . S
C307 C308 1.385 . S
C307 H309 0.950 . S
C308 C302 1.404 . S
C308 H306 0.949 . S
C308 C307 1.385 . S
H309 C307 0.950 . S
H310 C294 0.951 . S
H311 C296 0.951 . S
H312 C298 0.951 . S
H313 C299 0.950 . S
H314 C300 0.950 . S
H315 C301 0.950 . S
H316 C303 0.950 . S
H317 C304 0.951 . S
C318 C319 1.386 . S
C318 C320 1.383 . S
C318 H334 0.951 . S
C319 C318 1.386 . S
C319 C323 1.383 . S
C320 C318 1.383 . S
C320 C321 1.402 . S
C320 H335 0.951 . S
C321 C320 1.402 . S
C321 C322 1.375 . S
C321 C324 1.481 . S
C322 C321 1.375 . S
C322 C323 1.367 . S
C322 H336 0.951 . S
C323 C319 1.383 . S
C323 C322 1.367 . S
C323 H337 0.950 . S
C324 C321 1.481 . S
C324 C325 1.297 . S
C324 H338 0.950 . S
C325 C324 1.297 . S
C325 C326 1.479 . S
C325 H339 0.950 . S
C326 C325 1.479 . S
C326 C327 1.375 . S
C326 C332 1.404 . S
C327 C326 1.375 . S
C327 C328 1.369 . S
C327 H340 0.950 . S
C328 C327 1.369 . S
C328 C329 1.392 . S
C328 H341 0.951 . S
C329 C328 1.392 . S
C329 C331 1.384 . S
H330 C332 0.949 . S
C331 C329 1.384 . S
C331 C332 1.385 . S
C331 H333 0.950 . S
C332 C326 1.404 . S
C332 H330 0.949 . S
C332 C331 1.385 . S
H333 C331 0.950 . S
H334 C318 0.951 . S
H335 C320 0.951 . S
H336 C322 0.951 . S
H337 C323 0.950 . S
H338 C324 0.950 . S
H339 C325 0.950 . S
H340 C327 0.950 . S
H341 C328 0.951 . S
C342 C343 1.386 . S
C342 C344 1.383 . S
C342 H358 0.951 . S
C343 C342 1.386 . S
C343 C347 1.383 . S
C344 C342 1.383 . S
C344 C345 1.402 . S
C344 H359 0.951 . S
C345 C344 1.402 . S
C345 C346 1.375 . S
C345 C348 1.481 . S
C346 C345 1.375 . S
C346 C347 1.367 . S
C346 H360 0.951 1_556 S
C347 C343 1.383 . S
C347 C346 1.367 . S
C347 H361 0.950 . S
C348 C345 1.481 . S
C348 C349 1.297 . S
C348 H362 0.950 1_556 S
C349 C348 1.297 . S
C349 C350 1.479 . S
C349 H363 0.950 . S
C350 C349 1.479 . S
C350 C351 1.375 . S
C350 C356 1.404 1_556 S
C351 C350 1.375 . S
C351 C352 1.369 . S
C351 H364 0.950 . S
C352 C351 1.369 . S
C352 C353 1.369 1_556 S
C352 H365 0.951 . S
C353 C352 1.369 1_554 S
C353 C355 1.401 . S
H354 C356 0.949 . S
C355 C353 1.401 . S
C355 C356 1.385 . S
C355 H357 0.950 . S
C356 C350 1.404 1_554 S
C356 H354 0.949 . S
C356 C355 1.385 . S
H357 C355 0.950 . S
H358 C342 0.951 . S
H359 C344 0.951 . S
H360 C346 0.951 1_554 S
H361 C347 0.950 . S
H362 C348 0.950 1_554 S
H363 C349 0.950 . S
H364 C351 0.950 . S
H365 C352 0.951 . S
C79 C5 1.806 . S
C89 C43 1.793 . S
C103 C18 1.811 . S
C113 C56 1.799 . S
C127 C69 1.803 . S
C137 C31 1.803 . S
C151 C10 1.804 . S
C161 C42 1.804 . S
C175 C23 1.805 . S
C185 C55 1.805 . S
C199 C68 1.811 1_554 S
C209 C36 1.798 . S
C223 C17 1.396 . S
C233 C3 1.389 . S
C247 C30 1.403 . S
C257 C16 1.401 . S
C271 C29 1.409 . S
C281 C49 1.399 . S
C295 C62 1.404 . S
C305 C44 1.396 . S
C319 C75 1.392 . S
C329 C57 1.381 . S
C343 C70 1.416 . S
C353 C4 1.423 . S
