# Generated by pormake.
# Topology afi, (4)-cn, num edge types: 1
# Building blocks:
#     Node 0, Type 0, BuildingBlock: QUQFOY_clean_sbu_1, # of connection points: 4
#     Node 1, Type 0, BuildingBlock: QUQFOY_clean_sbu_1, # of connection points: 4
#     Node 2, Type 0, BuildingBlock: QUQFOY_clean_sbu_1, # of connection points: 4
#     Node 3, Type 0, BuildingBlock: QUQFOY_clean_sbu_1, # of connection points: 4
#     Node 4, Type 0, BuildingBlock: QUQFOY_clean_sbu_1, # of connection points: 4
#     Node 5, Type 0, BuildingBlock: QUQFOY_clean_sbu_1, # of connection points: 4
#     Node 6, Type 0, BuildingBlock: QUQFOY_clean_sbu_1, # of connection points: 4
#     Node 7, Type 0, BuildingBlock: QUQFOY_clean_sbu_1, # of connection points: 4
#     Node 8, Type 0, BuildingBlock: QUQFOY_clean_sbu_1, # of connection points: 4
#     Node 9, Type 0, BuildingBlock: QUQFOY_clean_sbu_1, # of connection points: 4
#     Node 10, Type 0, BuildingBlock: QUQFOY_clean_sbu_1, # of connection points: 4
#     Node 11, Type 0, BuildingBlock: QUQFOY_clean_sbu_1, # of connection points: 4
#     Node 12, Type 0, BuildingBlock: QUQFOY_clean_sbu_1, # of connection points: 4
#     Node 13, Type 0, BuildingBlock: QUQFOY_clean_sbu_1, # of connection points: 4
#     Node 14, Type 0, BuildingBlock: QUQFOY_clean_sbu_1, # of connection points: 4
#     Node 15, Type 0, BuildingBlock: QUQFOY_clean_sbu_1, # of connection points: 4
#     Node 16, Type 0, BuildingBlock: QUQFOY_clean_sbu_1, # of connection points: 4
#     Node 17, Type 0, BuildingBlock: QUQFOY_clean_sbu_1, # of connection points: 4
#     Node 18, Type 0, BuildingBlock: QUQFOY_clean_sbu_1, # of connection points: 4
#     Node 19, Type 0, BuildingBlock: QUQFOY_clean_sbu_1, # of connection points: 4
#     Node 20, Type 0, BuildingBlock: QUQFOY_clean_sbu_1, # of connection points: 4
#     Node 21, Type 0, BuildingBlock: QUQFOY_clean_sbu_1, # of connection points: 4
#     Node 22, Type 0, BuildingBlock: QUQFOY_clean_sbu_1, # of connection points: 4
#     Node 23, Type 0, BuildingBlock: QUQFOY_clean_sbu_1, # of connection points: 4
#     Edge 24, Type (0, 0), BuildingBlock: CIFDUS_clean_linker_0, # of connection points: 2
#     Edge 25, Type (0, 0), BuildingBlock: CIFDUS_clean_linker_0, # of connection points: 2
#     Edge 26, Type (0, 0), BuildingBlock: CIFDUS_clean_linker_0, # of connection points: 2
#     Edge 27, Type (0, 0), BuildingBlock: CIFDUS_clean_linker_0, # of connection points: 2
#     Edge 28, Type (0, 0), BuildingBlock: CIFDUS_clean_linker_0, # of connection points: 2
#     Edge 29, Type (0, 0), BuildingBlock: CIFDUS_clean_linker_0, # of connection points: 2
#     Edge 30, Type (0, 0), BuildingBlock: CIFDUS_clean_linker_0, # of connection points: 2
#     Edge 31, Type (0, 0), BuildingBlock: CIFDUS_clean_linker_0, # of connection points: 2
#     Edge 32, Type (0, 0), BuildingBlock: CIFDUS_clean_linker_0, # of connection points: 2
#     Edge 33, Type (0, 0), BuildingBlock: CIFDUS_clean_linker_0, # of connection points: 2
#     Edge 34, Type (0, 0), BuildingBlock: CIFDUS_clean_linker_0, # of connection points: 2
#     Edge 35, Type (0, 0), BuildingBlock: CIFDUS_clean_linker_0, # of connection points: 2
#     Edge 36, Type (0, 0), BuildingBlock: CIFDUS_clean_linker_0, # of connection points: 2
#     Edge 37, Type (0, 0), BuildingBlock: CIFDUS_clean_linker_0, # of connection points: 2
#     Edge 38, Type (0, 0), BuildingBlock: CIFDUS_clean_linker_0, # of connection points: 2
#     Edge 39, Type (0, 0), BuildingBlock: CIFDUS_clean_linker_0, # of connection points: 2
#     Edge 40, Type (0, 0), BuildingBlock: CIFDUS_clean_linker_0, # of connection points: 2
#     Edge 41, Type (0, 0), BuildingBlock: CIFDUS_clean_linker_0, # of connection points: 2
#     Edge 42, Type (0, 0), BuildingBlock: CIFDUS_clean_linker_0, # of connection points: 2
#     Edge 43, Type (0, 0), BuildingBlock: CIFDUS_clean_linker_0, # of connection points: 2
#     Edge 44, Type (0, 0), BuildingBlock: CIFDUS_clean_linker_0, # of connection points: 2
#     Edge 45, Type (0, 0), BuildingBlock: CIFDUS_clean_linker_0, # of connection points: 2
#     Edge 46, Type (0, 0), BuildingBlock: CIFDUS_clean_linker_0, # of connection points: 2
#     Edge 47, Type (0, 0), BuildingBlock: CIFDUS_clean_linker_0, # of connection points: 2
#     Edge 48, Type (0, 0), BuildingBlock: CIFDUS_clean_linker_0, # of connection points: 2
#     Edge 49, Type (0, 0), BuildingBlock: CIFDUS_clean_linker_0, # of connection points: 2
#     Edge 50, Type (0, 0), BuildingBlock: CIFDUS_clean_linker_0, # of connection points: 2
#     Edge 51, Type (0, 0), BuildingBlock: CIFDUS_clean_linker_0, # of connection points: 2
#     Edge 52, Type (0, 0), BuildingBlock: CIFDUS_clean_linker_0, # of connection points: 2
#     Edge 53, Type (0, 0), BuildingBlock: CIFDUS_clean_linker_0, # of connection points: 2
#     Edge 54, Type (0, 0), BuildingBlock: CIFDUS_clean_linker_0, # of connection points: 2
#     Edge 55, Type (0, 0), BuildingBlock: CIFDUS_clean_linker_0, # of connection points: 2
#     Edge 56, Type (0, 0), BuildingBlock: CIFDUS_clean_linker_0, # of connection points: 2
#     Edge 57, Type (0, 0), BuildingBlock: CIFDUS_clean_linker_0, # of connection points: 2
#     Edge 58, Type (0, 0), BuildingBlock: CIFDUS_clean_linker_0, # of connection points: 2
#     Edge 59, Type (0, 0), BuildingBlock: CIFDUS_clean_linker_0, # of connection points: 2
#     Edge 60, Type (0, 0), BuildingBlock: CIFDUS_clean_linker_0, # of connection points: 2
#     Edge 61, Type (0, 0), BuildingBlock: CIFDUS_clean_linker_0, # of connection points: 2
#     Edge 62, Type (0, 0), BuildingBlock: CIFDUS_clean_linker_0, # of connection points: 2
#     Edge 63, Type (0, 0), BuildingBlock: CIFDUS_clean_linker_0, # of connection points: 2
#     Edge 64, Type (0, 0), BuildingBlock: CIFDUS_clean_linker_0, # of connection points: 2
#     Edge 65, Type (0, 0), BuildingBlock: CIFDUS_clean_linker_0, # of connection points: 2
#     Edge 66, Type (0, 0), BuildingBlock: CIFDUS_clean_linker_0, # of connection points: 2
#     Edge 67, Type (0, 0), BuildingBlock: CIFDUS_clean_linker_0, # of connection points: 2
#     Edge 68, Type (0, 0), BuildingBlock: CIFDUS_clean_linker_0, # of connection points: 2
#     Edge 69, Type (0, 0), BuildingBlock: CIFDUS_clean_linker_0, # of connection points: 2
#     Edge 70, Type (0, 0), BuildingBlock: CIFDUS_clean_linker_0, # of connection points: 2
#     Edge 71, Type (0, 0), BuildingBlock: CIFDUS_clean_linker_0, # of connection points: 2
# Relax obj value: 0.129
# Max RMSD: 0.168
# Mean RMSD: 0.168
data_MOF--net-afi--node1-QUQFOY_clean_sbu_1--edge1-CIFDUS_clean_linker_0
_symmetry_space_group_name_H-M    P1
_symmetry_Int_Tables_number       1
_symmetry_cell_setting            triclinic
loop_
_symmetry_equiv_pos_as_xyz
'x, y, z'
_cell_length_a     60.38443
_cell_length_b     60.462028
_cell_length_c     39.647762
_cell_angle_alpha  90.0841
_cell_angle_beta   89.967715
_cell_angle_gamma 120.02002
loop_
_atom_site_label
_atom_site_type_symbol
_atom_site_fract_x
_atom_site_fract_y
_atom_site_fract_z
_atom_type_partial_charge
O0 O 0.48653 0.1276 0.22702 0.0
Cd1 Cd 0.45033 0.12098 0.21717 0.0
Cd2 Cd 0.4573 0.09943 0.15604 0.0
O3 O 0.49312 0.11401 0.17832 0.0
O4 O 0.44512 0.1434 0.24925 0.0
O5 O 0.44548 0.14775 0.19383 0.0
C6 C 0.44375 0.15566 0.2235 0.0
C7 C 0.4575 0.09886 0.09634 0.0
C8 C 0.50092 0.1238 0.2074 0.0
C9 C 0.41486 0.0652 0.20608 0.0
O10 O 0.42665 0.06776 0.17841 0.0
O11 O 0.42098 0.08432 0.22514 0.0
O12 O 0.46196 0.08375 0.11415 0.0
O13 O 0.4528 0.11466 0.11235 0.0
O14 O 0.35279 0.47739 0.24992 0.0
Cd15 Cd 0.32319 0.44296 0.23395 0.0
Cd16 Cd 0.35319 0.45695 0.17462 0.0
O17 O 0.37405 0.49063 0.20197 0.0
O18 O 0.2967 0.43448 0.26935 0.0
O19 O 0.29092 0.44074 0.21595 0.0
C20 C 0.2824 0.4361 0.24654 0.0
C21 C 0.3489 0.46013 0.1159 0.0
C22 C 0.37134 0.49434 0.23295 0.0
C23 C 0.34556 0.41049 0.21481 0.0
O24 O 0.35617 0.42572 0.19022 0.0
O25 O 0.3305 0.41324 0.23451 0.0
O26 O 0.37031 0.46521 0.12944 0.0
O27 O 0.32965 0.4535 0.1358 0.0
O28 O 0.87266 0.35723 0.23923 0.0
Cd29 Cd 0.87756 0.32786 0.22265 0.0
Cd30 Cd 0.89794 0.36042 0.16556 0.0
O31 O 0.88461 0.38085 0.1931 0.0
O32 O 0.85565 0.29913 0.25354 0.0
O33 O 0.84897 0.29784 0.19855 0.0
C34 C 0.84188 0.28705 0.22775 0.0
C35 C 0.89671 0.36213 0.10593 0.0
C36 C 0.87619 0.37692 0.22326 0.0
C37 C 0.93303 0.34907 0.20937 0.0
O38 O 0.93015 0.36068 0.18449 0.0
O39 O 0.91406 0.33398 0.22746 0.0
O40 O 0.91198 0.38161 0.12387 0.0
O41 O 0.88144 0.34136 0.12181 0.0
O42 O 0.50448 0.86742 0.2425 0.0
Cd43 Cd 0.54095 0.87358 0.23695 0.0
Cd44 Cd 0.54062 0.89822 0.17847 0.0
O45 O 0.50367 0.88603 0.19504 0.0
O46 O 0.54338 0.8491 0.26805 0.0
O47 O 0.54758 0.84831 0.21267 0.0
C48 C 0.5471 0.83865 0.24192 0.0
C49 C 0.54494 0.89478 0.11993 0.0
C50 C 0.49285 0.87425 0.22207 0.0
C51 C 0.57864 0.92948 0.23343 0.0
O52 O 0.57013 0.92902 0.20389 0.0
O53 O 0.56977 0.90914 0.25072 0.0
O54 O 0.54096 0.91209 0.13266 0.0
O55 O 0.54698 0.8794 0.14059 0.0
O56 O 0.6389 0.50407 0.23475 0.0
Cd57 Cd 0.66911 0.54084 0.23315 0.0
Cd58 Cd 0.64106 0.54173 0.17254 0.0
O59 O 0.61784 0.50449 0.18934 0.0
O60 O 0.69102 0.54121 0.27106 0.0
O61 O 0.70454 0.54921 0.21841 0.0
C62 C 0.70908 0.54687 0.24964 0.0
C63 C 0.64165 0.54653 0.11319 0.0
C64 C 0.61987 0.49298 0.21499 0.0
C65 C 0.6495 0.57806 0.23133 0.0
O66 O 0.64132 0.57067 0.20147 0.0
O67 O 0.66093 0.56857 0.24745 0.0
O68 O 0.62219 0.54215 0.13127 0.0
O69 O 0.66137 0.5486 0.12876 0.0
O70 O 0.13018 0.63946 0.23657 0.0
Cd71 Cd 0.12424 0.66966 0.2286 0.0
Cd72 Cd 0.1013 0.64267 0.16695 0.0
O73 O 0.11465 0.61996 0.18787 0.0
O74 O 0.14775 0.69736 0.25986 0.0
O75 O 0.15035 0.70113 0.20427 0.0
C76 C 0.15906 0.71098 0.23364 0.0
C77 C 0.09911 0.64183 0.1073 0.0
C78 C 0.12497 0.62119 0.21634 0.0
C79 C 0.06872 0.65138 0.2192 0.0
O80 O 0.07069 0.64297 0.19056 0.0
O81 O 0.08799 0.66288 0.23848 0.0
O82 O 0.08396 0.62256 0.12552 0.0
O83 O 0.116 0.66205 0.12284 0.0
O84 O 0.87433 0.51734 0.27815 0.0
Cd85 Cd 0.87925 0.55192 0.29343 0.0
Cd86 Cd 0.89726 0.53885 0.35197 0.0
O87 O 0.88441 0.50488 0.32517 0.0
O88 O 0.86126 0.55977 0.25729 0.0
O89 O 0.84903 0.5543 0.31057 0.0
C90 C 0.84524 0.55846 0.27973 0.0
C91 C 0.89056 0.53719 0.41083 0.0
C92 C 0.87692 0.50078 0.29459 0.0
C93 C 0.93466 0.58499 0.31013 0.0
O94 O 0.93088 0.57008 0.33484 0.0
O95 O 0.91622 0.58181 0.29142 0.0
O96 O 0.90692 0.53203 0.39754 0.0
O97 O 0.87736 0.54283 0.39059 0.0
O98 O 0.35536 0.87071 0.28232 0.0
Cd99 Cd 0.32517 0.87674 0.29004 0.0
Cd100 Cd 0.34963 0.89706 0.35146 0.0
O101 O 0.3731 0.88405 0.33241 0.0
O102 O 0.29766 0.85323 0.2586 0.0
O103 O 0.29382 0.85033 0.31419 0.0
C104 C 0.28419 0.8415 0.28476 0.0
C105 C 0.34374 0.89333 0.41045 0.0
C106 C 0.37276 0.87473 0.30349 0.0
C107 C 0.34451 0.93227 0.3006 0.0
O108 O 0.35226 0.92945 0.32929 0.0
O109 O 0.33245 0.91326 0.281 0.0
O110 O 0.36496 0.91003 0.39693 0.0
O111 O 0.32537 0.87856 0.3904 0.0
O112 O 0.48755 0.35462 0.27731 0.0
Cd113 Cd 0.45148 0.32443 0.28575 0.0
Cd114 Cd 0.45689 0.35095 0.34894 0.0
O115 O 0.49279 0.37305 0.32716 0.0
O116 O 0.44684 0.2971 0.25353 0.0
O117 O 0.44661 0.2928 0.30898 0.0
C118 C 0.44514 0.28331 0.27926 0.0
C119 C 0.45696 0.35289 0.40861 0.0
C120 C 0.50126 0.37225 0.29804 0.0
C121 C 0.41475 0.3429 0.29818 0.0
O122 O 0.42579 0.35106 0.32653 0.0
O123 O 0.42192 0.33139 0.27796 0.0
O124 O 0.46098 0.37191 0.38995 0.0
O125 O 0.4528 0.33225 0.39351 0.0
O126 O 0.12901 0.48904 0.28201 0.0
Cd127 Cd 0.12282 0.45257 0.2874 0.0
Cd128 Cd 0.10238 0.4567 0.35095 0.0
O129 O 0.11467 0.49302 0.33164 0.0
O130 O 0.14272 0.44903 0.24973 0.0
O131 O 0.15067 0.44598 0.3034 0.0
C132 C 0.15629 0.44569 0.272 0.0
C133 C 0.10651 0.454 0.40981 0.0
C134 C 0.12439 0.50215 0.30293 0.0
C135 C 0.06721 0.41603 0.30023 0.0
O136 O 0.07018 0.42637 0.32912 0.0
O137 O 0.08593 0.42355 0.28001 0.0
O138 O 0.08962 0.4585 0.39689 0.0
O139 O 0.12144 0.45106 0.38926 0.0
O140 O 0.63933 0.13601 0.28179 0.0
Cd141 Cd 0.66942 0.1298 0.28955 0.0
Cd142 Cd 0.64042 0.10374 0.34831 0.0
O143 O 0.61765 0.11717 0.32803 0.0
O144 O 0.69641 0.15321 0.25743 0.0
O145 O 0.7018 0.15568 0.31273 0.0
C146 C 0.71089 0.1643 0.28307 0.0
C147 C 0.6398 0.10149 0.40793 0.0
C148 C 0.61998 0.12915 0.30069 0.0
C149 C 0.65014 0.07356 0.29401 0.0
O150 O 0.6408 0.07384 0.32271 0.0
O151 O 0.66253 0.09397 0.27706 0.0
O152 O 0.62055 0.08611 0.38975 0.0
O153 O 0.65998 0.11838 0.39233 0.0
O154 O 0.50849 0.64157 0.28187 0.0
Cd155 Cd 0.54385 0.671 0.29522 0.0
Cd156 Cd 0.53715 0.63918 0.34899 0.0
O157 O 0.50173 0.61682 0.32605 0.0
O158 O 0.54863 0.69933 0.265 0.0
O159 O 0.54763 0.7016 0.32057 0.0
C160 C 0.54945 0.71204 0.29152 0.0
C161 C 0.53849 0.6447 0.40804 0.0
C162 C 0.4944 0.62108 0.29791 0.0
C163 C 0.5798 0.65065 0.29907 0.0
O164 O 0.56796 0.63895 0.32572 0.0
O165 O 0.57373 0.66529 0.28376 0.0
O166 O 0.53419 0.62352 0.3945 0.0
O167 O 0.54206 0.66302 0.38797 0.0
O168 O 0.51155 0.87053 0.78827 0.0
Cd169 Cd 0.54749 0.87592 0.7948 0.0
Cd170 Cd 0.54267 0.89875 0.85842 0.0
O171 O 0.5067 0.88537 0.83707 0.0
O172 O 0.55076 0.85722 0.75558 0.0
O173 O 0.55293 0.84699 0.80847 0.0
C174 C 0.55335 0.84252 0.77667 0.0
C175 C 0.54351 0.90049 0.91803 0.0
C176 C 0.49811 0.87533 0.80831 0.0
C177 C 0.58453 0.93135 0.80695 0.0
O178 O 0.57373 0.92942 0.83524 0.0
O179 O 0.57706 0.91217 0.78765 0.0
O180 O 0.53954 0.91577 0.8999 0.0
O181 O 0.54704 0.88377 0.9024 0.0
O182 O 0.63827 0.5061 0.79205 0.0
Cd183 Cd 0.66862 0.54228 0.79761 0.0
Cd184 Cd 0.64132 0.54362 0.85263 0.0
O185 O 0.61607 0.50679 0.8359 0.0
O186 O 0.69424 0.54334 0.76531 0.0
O187 O 0.70142 0.54954 0.82013 0.0
C188 C 0.70946 0.5481 0.79045 0.0
C189 C 0.64916 0.54861 0.91117 0.0
C190 C 0.61836 0.49537 0.8103 0.0
C191 C 0.65092 0.58039 0.7953 0.0
O192 O 0.64194 0.5732 0.82489 0.0
O193 O 0.66248 0.57053 0.7804 0.0
O194 O 0.62817 0.54544 0.89832 0.0
O195 O 0.6662 0.54948 0.89062 0.0
O196 O 0.13263 0.63892 0.78457 0.0
Cd197 Cd 0.12641 0.66886 0.79148 0.0
Cd198 Cd 0.09941 0.64175 0.84683 0.0
O199 O 0.11187 0.61727 0.82982 0.0
O200 O 0.15099 0.6953 0.76025 0.0
O201 O 0.15196 0.70075 0.81556 0.0
C202 C 0.16161 0.70958 0.78619 0.0
C203 C 0.10284 0.64944 0.90532 0.0
C204 C 0.12484 0.61952 0.80344 0.0
C205 C 0.0706 0.6508 0.79096 0.0
O206 O 0.06953 0.64156 0.82016 0.0
O207 O 0.09175 0.66283 0.77547 0.0
O208 O 0.08524 0.62827 0.89259 0.0
O209 O 0.11841 0.66679 0.88467 0.0
O210 O 0.48507 0.13013 0.76663 0.0
Cd211 Cd 0.44987 0.12502 0.77871 0.0
Cd212 Cd 0.45689 0.10179 0.83556 0.0
O213 O 0.49209 0.11393 0.81253 0.0
O214 O 0.44501 0.145 0.74275 0.0
O215 O 0.44573 0.15382 0.79696 0.0
C216 C 0.4438 0.15922 0.76598 0.0
C217 C 0.45621 0.10671 0.89445 0.0
C218 C 0.49924 0.12438 0.78369 0.0
C219 C 0.4136 0.06918 0.78728 0.0
O220 O 0.42574 0.07019 0.81402 0.0
O221 O 0.41977 0.08923 0.77038 0.0
O222 O 0.46033 0.08966 0.88112 0.0
O223 O 0.45253 0.12132 0.87425 0.0
O224 O 0.3558 0.48232 0.78095 0.0
Cd225 Cd 0.32694 0.44883 0.79986 0.0
Cd226 Cd 0.36005 0.46224 0.85499 0.0
O227 O 0.37997 0.49555 0.82658 0.0
O228 O 0.29807 0.44085 0.76895 0.0
O229 O 0.29703 0.44774 0.8236 0.0
C230 C 0.28603 0.44298 0.79443 0.0
C231 C 0.36132 0.46634 0.91436 0.0
C232 C 0.3756 0.49905 0.7962 0.0
C233 C 0.34831 0.41508 0.81303 0.0
O234 O 0.36071 0.43022 0.83709 0.0
O235 O 0.33257 0.41838 0.79567 0.0
O236 O 0.38106 0.47054 0.897 0.0
O237 O 0.34052 0.46009 0.898 0.0
O238 O 0.86753 0.35317 0.77685 0.0
Cd239 Cd 0.87368 0.32388 0.78926 0.0
Cd240 Cd 0.89806 0.35653 0.84501 0.0
O241 O 0.88479 0.37826 0.82108 0.0
O242 O 0.85509 0.29987 0.75172 0.0
O243 O 0.845 0.28981 0.80518 0.0
C244 C 0.84055 0.28345 0.77377 0.0
C245 C 0.8927 0.35139 0.90395 0.0
C246 C 0.87343 0.37362 0.79272 0.0
C247 C 0.93032 0.34551 0.79658 0.0
O248 O 0.92976 0.35724 0.823 0.0
O249 O 0.90989 0.33074 0.78079 0.0
O250 O 0.90966 0.3726 0.8906 0.0
O251 O 0.87867 0.33276 0.88377 0.0
O252 O 0.1353 0.49138 0.73405 0.0
Cd253 Cd 0.12842 0.45492 0.72792 0.0
Cd254 Cd 0.10025 0.45542 0.67109 0.0
O255 O 0.11399 0.49226 0.68928 0.0
O256 O 0.15216 0.4527 0.76048 0.0
O257 O 0.1536 0.44707 0.70557 0.0
C258 C 0.16266 0.44793 0.73538 0.0
C259 C 0.09733 0.45213 0.61164 0.0
C260 C 0.12737 0.50298 0.71537 0.0
C261 C 0.07227 0.41801 0.72839 0.0
O262 O 0.07123 0.42591 0.69898 0.0
O263 O 0.09338 0.42709 0.74397 0.0
O264 O 0.08175 0.45589 0.62956 0.0
O265 O 0.11463 0.44964 0.62747 0.0
O266 O 0.64198 0.12325 0.74158 0.0
Cd267 Cd 0.67188 0.11825 0.72817 0.0
Cd268 Cd 0.64245 0.09966 0.66867 0.0
O269 O 0.6204 0.11219 0.6937 0.0
O270 O 0.69639 0.13592 0.76557 0.0
O271 O 0.70514 0.14782 0.71227 0.0
C272 C 0.71208 0.15148 0.74355 0.0
C273 C 0.64809 0.1063 0.60996 0.0
C274 C 0.62309 0.12015 0.72401 0.0
C275 C 0.65103 0.06316 0.71235 0.0
O276 O 0.64041 0.0664 0.68659 0.0
O277 O 0.66529 0.0818 0.73138 0.0
O278 O 0.6266 0.08953 0.62287 0.0
O279 O 0.66664 0.11982 0.6305 0.0
O280 O 0.51151 0.64354 0.73688 0.0
Cd281 Cd 0.547 0.67293 0.72456 0.0
Cd282 Cd 0.53899 0.63753 0.66986 0.0
O283 O 0.50408 0.61684 0.69463 0.0
O284 O 0.55197 0.69653 0.76251 0.0
O285 O 0.55214 0.70712 0.70933 0.0
C286 C 0.55381 0.71312 0.74084 0.0
C287 C 0.53831 0.63611 0.61018 0.0
C288 C 0.49718 0.62245 0.72217 0.0
C289 C 0.58238 0.6514 0.71989 0.0
O290 O 0.57022 0.63869 0.69392 0.0
O291 O 0.5765 0.66651 0.73427 0.0
O292 O 0.53454 0.61686 0.62826 0.0
O293 O 0.54258 0.65659 0.62594 0.0
O294 O 0.86803 0.51275 0.7418 0.0
Cd295 Cd 0.87317 0.54717 0.72602 0.0
Cd296 Cd 0.89862 0.5387 0.67255 0.0
O297 O 0.88469 0.50404 0.69768 0.0
O298 O 0.85074 0.55259 0.75748 0.0
O299 O 0.8451 0.54974 0.70225 0.0
C300 C 0.83764 0.55236 0.73177 0.0
C301 C 0.89867 0.53709 0.61291 0.0
C302 C 0.87378 0.49793 0.72637 0.0
C303 C 0.92924 0.58293 0.72122 0.0
O304 O 0.92923 0.5701 0.69568 0.0
O305 O 0.9085 0.57757 0.73595 0.0
O306 O 0.91431 0.53352 0.63097 0.0
O307 O 0.88273 0.54177 0.62866 0.0
O308 O 0.36067 0.86567 0.73563 0.0
Cd309 Cd 0.33016 0.87091 0.72797 0.0
Cd310 Cd 0.35801 0.89814 0.67119 0.0
O311 O 0.38219 0.88582 0.68994 0.0
O312 O 0.30357 0.84636 0.75907 0.0
O313 O 0.29864 0.84495 0.70364 0.0
C314 C 0.28953 0.83553 0.73301 0.0
C315 C 0.35677 0.90035 0.61183 0.0
C316 C 0.38015 0.87345 0.71681 0.0
C317 C 0.34678 0.92618 0.7267 0.0
O318 O 0.35634 0.92698 0.69779 0.0
O319 O 0.33522 0.90539 0.74295 0.0
O320 O 0.37628 0.91628 0.62921 0.0
O321 O 0.33742 0.88286 0.62815 0.0
O322 O 0.48673 0.36092 0.73919 0.0
Cd323 Cd 0.45096 0.33059 0.73083 0.0
Cd324 Cd 0.45624 0.35588 0.66929 0.0
O325 O 0.49225 0.3798 0.68979 0.0
O326 O 0.44675 0.30657 0.76762 0.0
O327 O 0.44593 0.29723 0.71348 0.0
C328 C 0.44475 0.29057 0.74468 0.0
C329 C 0.45477 0.34833 0.61076 0.0
C330 C 0.50047 0.37889 0.71903 0.0
C331 C 0.41432 0.34909 0.71821 0.0
O332 O 0.42543 0.35759 0.68999 0.0
O333 O 0.42135 0.33722 0.73782 0.0
O334 O 0.45905 0.36989 0.62287 0.0
O335 O 0.4512 0.33066 0.63199 0.0
H336 H 0.39898 0.05002 0.27043 0.0
H337 H 0.38873 0.02183 0.16826 0.0
H338 H 0.36275 0.97804 0.18856 0.0
H339 H 0.34735 0.94763 0.23559 0.0
H340 H 0.36067 0.97572 0.33797 0.0
H341 H 0.38073 0.01963 0.31734 0.0
C342 C 0.39065 0.03435 0.25253 0.0
C343 C 0.39591 0.03921 0.21786 0.0
C344 C 0.37644 0.00914 0.26448 0.0
C345 C 0.38512 0.01862 0.19507 0.0
C346 C 0.3703 0.99356 0.20668 0.0
C347 C 0.35415 0.96332 0.25343 0.0
C348 C 0.35259 0.95837 0.2883 0.0
C349 C 0.36647 0.98855 0.24138 0.0
C350 C 0.36173 0.97898 0.31101 0.0
C351 C 0.37328 0.00411 0.29922 0.0
H352 H 0.403 0.34884 0.234 0.0
H353 H 0.38388 0.35293 0.33782 0.0
H354 H 0.35721 0.37072 0.3202 0.0
H355 H 0.34388 0.39001 0.27617 0.0
H356 H 0.36657 0.38993 0.17298 0.0
H357 H 0.38697 0.36535 0.18935 0.0
C358 C 0.39255 0.35311 0.2527 0.0
C359 C 0.39545 0.34964 0.28718 0.0
C360 C 0.37807 0.36427 0.24248 0.0
C361 C 0.38205 0.35555 0.31115 0.0
C362 C 0.36684 0.36577 0.30109 0.0
C363 C 0.35278 0.38412 0.25711 0.0
C364 C 0.35375 0.39183 0.2234 0.0
C365 C 0.36537 0.37094 0.26693 0.0
C366 C 0.36564 0.38431 0.1991 0.0
C367 C 0.37738 0.37033 0.20848 0.0
H368 H 0.94925 0.34809 0.2728 0.0
H369 H 0.97574 0.36717 0.17016 0.0
H370 H 0.02006 0.38652 0.18931 0.0
H371 H 0.05111 0.40285 0.23561 0.0
H372 H 0.02458 0.38744 0.33863 0.0
H373 H 0.98048 0.36161 0.31897 0.0
C374 C 0.96471 0.35593 0.25455 0.0
C375 C 0.95924 0.35623 0.2201 0.0
C376 C 0.99016 0.36798 0.26589 0.0
C377 C 0.97948 0.36678 0.19681 0.0
C378 C 0.00482 0.37793 0.20777 0.0
C379 C 0.03575 0.39343 0.25379 0.0
C380 C 0.04113 0.39719 0.28855 0.0
C381 C 0.01038 0.3794 0.24233 0.0
C382 C 0.02095 0.385 0.31174 0.0
C383 C 0.99572 0.37026 0.30051 0.0
H384 H 0.60803 0.97562 0.20294 0.0
H385 H 0.5889 0.93913 0.30051 0.0
H386 H 0.61167 0.98065 0.32819 0.0
H387 H 0.63248 0.02743 0.32477 0.0
H388 H 0.65256 0.06396 0.22727 0.0
H389 H 0.63433 0.02243 0.19969 0.0
C390 C 0.60921 0.97674 0.23024 0.0
C391 C 0.59642 0.95429 0.24955 0.0
C392 C 0.62235 0.00073 0.24611 0.0
C393 C 0.59845 0.95607 0.28494 0.0
C394 C 0.61137 0.97985 0.30087 0.0
C395 C 0.63325 0.02632 0.29752 0.0
C396 C 0.64353 0.04878 0.27816 0.0
C397 C 0.6227 0.00233 0.28172 0.0
C398 C 0.64469 0.04701 0.24287 0.0
C399 C 0.63413 0.02322 0.22699 0.0
H400 H 0.60517 0.62883 0.32806 0.0
H401 H 0.59479 0.65747 0.23326 0.0
H402 H 0.61753 0.63937 0.20388 0.0
H403 H 0.63575 0.61091 0.20416 0.0
H404 H 0.6475 0.58362 0.29923 0.0
H405 H 0.6292 0.60588 0.32927 0.0
C406 C 0.6083 0.6315 0.30107 0.0
C407 C 0.59796 0.64416 0.28289 0.0
C408 C 0.62146 0.62106 0.28422 0.0
C409 C 0.60247 0.64775 0.24795 0.0
C410 C 0.61535 0.63725 0.23102 0.0
C411 C 0.63467 0.61019 0.23148 0.0
C412 C 0.64264 0.5953 0.24931 0.0
C413 C 0.6242 0.62316 0.24874 0.0
C414 C 0.64146 0.59486 0.28478 0.0
C415 C 0.63085 0.60749 0.30205 0.0
H416 H 0.05309 0.6465 0.28432 0.0
H417 H 0.0266 0.64088 0.18192 0.0
H418 H 0.98272 0.62341 0.20206 0.0
H419 H 0.9515 0.60472 0.24787 0.0
H420 H 0.97753 0.60632 0.34965 0.0
H421 H 0.02199 0.63071 0.33077 0.0
C422 C 0.03778 0.64197 0.26647 0.0
C423 C 0.04306 0.6449 0.23166 0.0
C424 C 0.01248 0.631 0.27814 0.0
C425 C 0.02299 0.63867 0.20882 0.0
C426 C 0.9979 0.62864 0.22033 0.0
C427 C 0.96688 0.61091 0.26609 0.0
C428 C 0.96121 0.60366 0.30012 0.0
C429 C 0.99234 0.62397 0.25482 0.0
C430 C 0.98139 0.61158 0.3233 0.0
C431 C 0.00681 0.62544 0.31249 0.0
H432 H 0.59625 0.94574 0.74181 0.0
H433 H 0.61506 0.97425 0.84377 0.0
H434 H 0.64121 0.01777 0.82244 0.0
H435 H 0.65373 0.04787 0.77549 0.0
H436 H 0.63087 0.0197 0.674 0.0
H437 H 0.61157 0.97574 0.69443 0.0
C438 C 0.60652 0.96141 0.75936 0.0
C439 C 0.60366 0.95684 0.79433 0.0
C440 C 0.62058 0.98641 0.74697 0.0
C441 C 0.61686 0.97734 0.81676 0.0
C442 C 0.63175 0.0022 0.80457 0.0
C443 C 0.64504 0.03214 0.75769 0.0
C444 C 0.64363 0.03701 0.72328 0.0
C445 C 0.63302 0.00701 0.7698 0.0
C446 C 0.63208 0.01642 0.70062 0.0
C447 C 0.62098 0.99131 0.71231 0.0
H448 H 0.63774 0.61447 0.81963 0.0
H449 H 0.64958 0.58411 0.72711 0.0
H450 H 0.63169 0.60564 0.69469 0.0
H451 H 0.6077 0.62863 0.69328 0.0
H452 H 0.59756 0.66058 0.7855 0.0
H453 H 0.62007 0.64333 0.81704 0.0
C454 C 0.6368 0.61296 0.79234 0.0
C455 C 0.6446 0.59741 0.77593 0.0
C456 C 0.62662 0.62555 0.77369 0.0
C457 C 0.64363 0.59591 0.74047 0.0
C458 C 0.63326 0.60811 0.72184 0.0
C459 C 0.61086 0.63222 0.72015 0.0
C460 C 0.60059 0.6455 0.737 0.0
C461 C 0.62394 0.62231 0.73827 0.0
C462 C 0.60516 0.65032 0.7718 0.0
C463 C 0.61791 0.64032 0.79 0.0
H464 H 0.97666 0.60787 0.69276 0.0
H465 H 0.93681 0.59851 0.78674 0.0
H466 H 0.97739 0.6208 0.81678 0.0
H467 H 0.02397 0.63798 0.81741 0.0
H468 H 0.06388 0.64906 0.72308 0.0
H469 H 0.02367 0.63141 0.69229 0.0
C470 C 0.9769 0.61117 0.71969 0.0
C471 C 0.95375 0.6012 0.73748 0.0
C472 C 0.00034 0.6241 0.73691 0.0
C473 C 0.95435 0.60593 0.77235 0.0
C474 C 0.97757 0.61853 0.78967 0.0
C475 C 0.02387 0.63692 0.79009 0.0
C476 C 0.0468 0.64445 0.77267 0.0
C477 C 0.00065 0.62691 0.77239 0.0
C478 C 0.04647 0.64333 0.73719 0.0
C479 C 0.02345 0.6331 0.7195 0.0
H480 H 0.38892 0.02303 0.81893 0.0
H481 H 0.39698 0.05909 0.72226 0.0
H482 H 0.37436 0.01746 0.69498 0.0
H483 H 0.35781 0.97119 0.69745 0.0
H484 H 0.34843 0.93494 0.7942 0.0
H485 H 0.36568 0.97614 0.82247 0.0
C486 C 0.38526 0.02175 0.79201 0.0
C487 C 0.39506 0.04413 0.77264 0.0
C488 C 0.37223 0.9977 0.77636 0.0
C489 C 0.38981 0.04217 0.73783 0.0
C490 C 0.37699 0.01835 0.72209 0.0
C491 C 0.35912 0.97229 0.72475 0.0
C492 C 0.35229 0.95017 0.74362 0.0
C493 C 0.36899 0.99604 0.74092 0.0
C494 C 0.35367 0.95174 0.77904 0.0
C495 C 0.36367 0.97532 0.79526 0.0
H496 H 0.34634 0.39817 0.74943 0.0
H497 H 0.36715 0.39061 0.85107 0.0
H498 H 0.3861 0.36563 0.8304 0.0
H499 H 0.40164 0.35118 0.78306 0.0
H500 H 0.38532 0.36328 0.68095 0.0
H501 H 0.35942 0.38106 0.70217 0.0
C502 C 0.35446 0.39051 0.76714 0.0
C503 C 0.35535 0.39616 0.80173 0.0
C504 C 0.36638 0.37729 0.7549 0.0
C505 C 0.3663 0.3865 0.82434 0.0
C506 C 0.3772 0.37233 0.81251 0.0
C507 C 0.39199 0.35721 0.76539 0.0
C508 C 0.39545 0.356 0.73046 0.0
C509 C 0.37811 0.36838 0.77776 0.0
C510 C 0.38304 0.36414 0.70794 0.0
C511 C 0.36829 0.37435 0.72007 0.0
H512 H 0.02581 0.3842 0.70187 0.0
H513 H 0.0652 0.41386 0.79631 0.0
H514 H 0.02475 0.39192 0.82672 0.0
H515 H 0.97767 0.36858 0.82569 0.0
H516 H 0.93853 0.3374 0.73142 0.0
H517 H 0.97926 0.35525 0.70206 0.0
C518 C 0.02554 0.38548 0.72915 0.0
C519 C 0.04839 0.40091 0.74669 0.0
C520 C 0.0022 0.37267 0.7466 0.0
C521 C 0.04785 0.40213 0.78212 0.0
C522 C 0.02469 0.3897 0.79958 0.0
C523 C 0.97809 0.36531 0.79885 0.0
C524 C 0.95507 0.35204 0.78079 0.0
C525 C 0.00166 0.37556 0.78197 0.0
C526 C 0.95594 0.34764 0.74604 0.0
C527 C 0.97926 0.35798 0.72908 0.0
H528 H 0.44114 0.177 0.2827 0.0
H529 H 0.44149 0.18645 0.17475 0.0
H530 H 0.44078 0.22618 0.1826 0.0
H531 H 0.44211 0.2592 0.22005 0.0
H532 H 0.44244 0.25007 0.32799 0.0
H533 H 0.44074 0.20915 0.32014 0.0
C534 C 0.44089 0.18763 0.26084 0.0
C535 C 0.44147 0.17877 0.22816 0.0
C536 C 0.44071 0.21057 0.26554 0.0
C537 C 0.44109 0.19282 0.20018 0.0
C538 C 0.44074 0.21558 0.20465 0.0
C539 C 0.44166 0.24821 0.2419 0.0
C540 C 0.44252 0.25778 0.27458 0.0
C541 C 0.44086 0.22479 0.2372 0.0
C542 C 0.44185 0.24322 0.30257 0.0
C543 C 0.44091 0.21982 0.2981 0.0
H544 H 0.18669 0.43529 0.31194 0.0
H545 H 0.17471 0.44864 0.20838 0.0
H546 H 0.21175 0.44546 0.19099 0.0
H547 H 0.24885 0.44092 0.20544 0.0
H548 H 0.26079 0.42754 0.30902 0.0
H549 H 0.22246 0.42847 0.32595 0.0
C550 C 0.19211 0.43738 0.28555 0.0
C551 C 0.17802 0.44237 0.26159 0.0
C552 C 0.21348 0.43554 0.27565 0.0
C553 C 0.18523 0.44487 0.22743 0.0
C554 C 0.20646 0.44307 0.21742 0.0
C555 C 0.24294 0.43797 0.23166 0.0
C556 C 0.25778 0.4343 0.25589 0.0
C557 C 0.2209 0.43869 0.24134 0.0
C558 C 0.24979 0.43047 0.28978 0.0
C559 C 0.22787 0.43106 0.29956 0.0
H560 H 0.73427 0.18612 0.22386 0.0
H561 H 0.746 0.19246 0.33165 0.0
H562 H 0.78819 0.23016 0.32378 0.0
H563 H 0.82089 0.26227 0.2865 0.0
H564 H 0.80879 0.2564 0.17878 0.0
H565 H 0.76762 0.21738 0.18646 0.0
C566 C 0.74607 0.19566 0.24567 0.0
C567 C 0.7369 0.18652 0.27833 0.0
C568 C 0.77023 0.2174 0.24097 0.0
C569 C 0.75252 0.19911 0.30625 0.0
C570 C 0.77666 0.22068 0.30177 0.0
C571 C 0.80937 0.25236 0.26464 0.0
C572 C 0.81792 0.26231 0.23209 0.0
C573 C 0.78559 0.23012 0.26927 0.0
C574 C 0.80269 0.24921 0.2041 0.0
C575 C 0.77911 0.22692 0.20848 0.0
H576 H 0.5481 0.81553 0.30014 0.0
H577 H 0.55247 0.81049 0.19193 0.0
H578 H 0.55484 0.77152 0.198 0.0
H579 H 0.55377 0.73798 0.2338 0.0
H580 H 0.54892 0.7427 0.34198 0.0
H581 H 0.54881 0.78288 0.3361 0.0
C582 C 0.54969 0.80599 0.27785 0.0
C583 C 0.54997 0.81585 0.2456 0.0
C584 C 0.55092 0.78354 0.28152 0.0
C585 C 0.55216 0.8033 0.21703 0.0
C586 C 0.55348 0.78099 0.22048 0.0
C587 C 0.55285 0.74785 0.25615 0.0
C588 C 0.55124 0.73727 0.2883 0.0
C589 C 0.5526 0.77081 0.25257 0.0
C590 C 0.55014 0.75039 0.31695 0.0
C591 C 0.55002 0.77334 0.3136 0.0
H592 H 0.7514 0.55958 0.21146 0.0
H593 H 0.72258 0.54138 0.31331 0.0
H594 H 0.76263 0.54486 0.33207 0.0
H595 H 0.80521 0.55118 0.31925 0.0
H596 H 0.83393 0.56898 0.21734 0.0
H597 H 0.79478 0.56778 0.19913 0.0
C598 C 0.75393 0.55648 0.23777 0.0
C599 C 0.73393 0.55008 0.26084 0.0
C600 C 0.77705 0.55845 0.24847 0.0
C601 C 0.73759 0.54624 0.29491 0.0
C602 C 0.76052 0.54823 0.30573 0.0
C603 C 0.80301 0.55505 0.29314 0.0
C604 C 0.82246 0.56007 0.26973 0.0
C605 C 0.7803 0.55408 0.28269 0.0
C606 C 0.81926 0.565 0.23593 0.0
C607 C 0.79682 0.56426 0.22543 0.0
H608 H 0.18047 0.73648 0.29196 0.0
H609 H 0.18875 0.74352 0.18372 0.0
H610 H 0.22749 0.78511 0.19006 0.0
H611 H 0.25998 0.81854 0.22633 0.0
H612 H 0.25193 0.81127 0.33458 0.0
H613 H 0.212 0.77074 0.32818 0.0
C614 C 0.19066 0.74714 0.26971 0.0
C615 C 0.18176 0.7368 0.23739 0.0
C616 C 0.21298 0.77098 0.27355 0.0
C617 C 0.19518 0.75097 0.20888 0.0
C618 C 0.21736 0.77475 0.21249 0.0
C619 C 0.24942 0.8082 0.24856 0.0
C620 C 0.25902 0.81791 0.28091 0.0
C621 C 0.22658 0.78481 0.2447 0.0
C622 C 0.24503 0.80425 0.30939 0.0
C623 C 0.22221 0.78103 0.30575 0.0
H624 H 0.55469 0.75089 0.70242 0.0
H625 H 0.55921 0.73034 0.80541 0.0
H626 H 0.56069 0.76913 0.82552 0.0
H627 H 0.55845 0.80778 0.81426 0.0
H628 H 0.55352 0.82829 0.71143 0.0
H629 H 0.5546 0.79078 0.69099 0.0
C630 C 0.55621 0.75502 0.72923 0.0
C631 C 0.55667 0.73767 0.75233 0.0
C632 C 0.55687 0.77732 0.74074 0.0
C633 C 0.55869 0.74331 0.78702 0.0
C634 C 0.55952 0.76549 0.79861 0.0
C635 C 0.55778 0.80413 0.78738 0.0
C636 C 0.55574 0.82071 0.76447 0.0
C637 C 0.55825 0.78245 0.77575 0.0
C638 C 0.55499 0.81577 0.72968 0.0
C639 C 0.55558 0.7943 0.71791 0.0
H640 H 0.73133 0.54817 0.73072 0.0
H641 H 0.74521 0.55531 0.83809 0.0
H642 H 0.78682 0.55867 0.829 0.0
H643 H 0.81822 0.55768 0.79086 0.0
H644 H 0.80411 0.54995 0.68354 0.0
H645 H 0.76353 0.54893 0.69237 0.0
C646 C 0.74347 0.55055 0.75217 0.0
C647 C 0.73511 0.55132 0.78507 0.0
C648 C 0.76726 0.55236 0.74677 0.0
C649 C 0.75116 0.55458 0.81253 0.0
C650 C 0.77493 0.55649 0.80735 0.0
C651 C 0.80638 0.55594 0.76933 0.0
C652 C 0.81411 0.55377 0.73658 0.0
C653 C 0.78303 0.55512 0.77462 0.0
C654 C 0.79857 0.55161 0.709 0.0
C655 C 0.77535 0.55096 0.71404 0.0
H656 H 0.26487 0.81455 0.79157 0.0
H657 H 0.25702 0.80513 0.68346 0.0
H658 H 0.21599 0.76583 0.6906 0.0
H659 H 0.18356 0.73332 0.72751 0.0
H660 H 0.19155 0.74259 0.83563 0.0
H661 H 0.23143 0.78306 0.82845 0.0
C662 C 0.25416 0.80398 0.76953 0.0
C663 C 0.26406 0.81263 0.73702 0.0
C664 C 0.2307 0.78142 0.77382 0.0
C665 C 0.24984 0.79883 0.70875 0.0
C666 C 0.22642 0.77635 0.71281 0.0
C667 C 0.19394 0.74423 0.74955 0.0
C668 C 0.18471 0.73488 0.78208 0.0
C669 C 0.21685 0.76734 0.74523 0.0
C670 C 0.19828 0.74934 0.81033 0.0
C671 C 0.2211 0.77244 0.80624 0.0
H672 H 0.44039 0.25296 0.70285 0.0
H673 H 0.44347 0.27266 0.80812 0.0
H674 H 0.44219 0.23313 0.82419 0.0
H675 H 0.44239 0.19397 0.80831 0.0
H676 H 0.43963 0.17455 0.70295 0.0
H677 H 0.43845 0.21284 0.68708 0.0
C678 C 0.44062 0.24853 0.7293 0.0
C679 C 0.44219 0.2658 0.75419 0.0
C680 C 0.44002 0.22583 0.73841 0.0
C681 C 0.44236 0.25973 0.78839 0.0
C682 C 0.44166 0.23713 0.79765 0.0
C683 C 0.44135 0.19804 0.7819 0.0
C684 C 0.44128 0.18152 0.7569 0.0
C685 C 0.44083 0.2202 0.77286 0.0
C686 C 0.43984 0.187 0.72276 0.0
C687 C 0.43918 0.20892 0.7136 0.0
H688 H 0.18463 0.44841 0.79514 0.0
H689 H 0.19028 0.43901 0.68806 0.0
H690 H 0.22812 0.43499 0.69738 0.0
H691 H 0.26064 0.43629 0.73555 0.0
H692 H 0.25553 0.44669 0.84247 0.0
H693 H 0.21613 0.44795 0.83355 0.0
C694 C 0.19404 0.44537 0.7738 0.0
C695 C 0.18474 0.44418 0.74091 0.0
C696 C 0.21584 0.44327 0.77932 0.0
C697 C 0.1971 0.4401 0.71361 0.0
C698 C 0.21874 0.43781 0.71892 0.0
C699 C 0.25082 0.43862 0.75698 0.0
C700 C 0.26107 0.44151 0.78963 0.0
C701 C 0.22842 0.43967 0.75161 0.0
C702 C 0.24808 0.44448 0.81709 0.0
C703 C 0.22559 0.44527 0.81199 0.0
H704 H 0.80672 0.24427 0.81337 0.0
H705 H 0.82584 0.26703 0.70939 0.0
H706 H 0.78856 0.22757 0.69073 0.0
H707 H 0.74921 0.18768 0.70386 0.0
H708 H 0.72994 0.16484 0.80778 0.0
H709 H 0.76863 0.20309 0.8264 0.0
C710 C 0.80282 0.24051 0.78664 0.0
C711 C 0.81892 0.25865 0.76288 0.0
C712 C 0.78126 0.21778 0.776 0.0
C713 C 0.81369 0.25343 0.72829 0.0
C714 C 0.79234 0.23087 0.71753 0.0
C715 C 0.75358 0.19097 0.73056 0.0
C716 C 0.73663 0.17354 0.75435 0.0
C717 C 0.7758 0.21307 0.74116 0.0
C718 C 0.74262 0.17801 0.78888 0.0
C719 C 0.76473 0.19992 0.79961 0.0
H720 H 0.45013 0.12848 0.05003 0.0
H721 H 0.46587 0.06643 0.05825 0.0
H722 H 0.46689 0.06362 0.9972 0.0
H723 H 0.46338 0.07839 0.94139 0.0
H724 H 0.44773 0.14031 0.93149 0.0
H725 H 0.44665 0.14353 0.99304 0.0
C726 C 0.45377 0.11436 0.03843 0.0
C727 C 0.45791 0.09771 0.05889 0.0
C728 C 0.45437 0.11279 1.00292 0.0
C729 C 0.46262 0.07953 0.04333 0.0
C730 C 0.46321 0.07787 1.0083 0.0
C731 C 0.45974 0.09264 0.95259 0.0
C732 C 0.45565 0.10907 0.93174 0.0
C733 C 0.45913 0.09436 0.98786 0.0
C734 C 0.45096 0.12739 0.94687 0.0
C735 C 0.45032 0.12924 0.98211 0.0
H736 H 0.32257 0.45454 0.95994 0.0
H737 H 0.40363 0.482 0.95316 0.0
H738 H 0.40687 0.48319 0.01431 0.0
H739 H 0.38688 0.47525 0.06977 0.0
H740 H 0.30595 0.44753 0.07815 0.0
H741 H 0.30254 0.44775 0.01655 0.0
C742 C 0.34095 0.46092 0.97188 0.0
C743 C 0.36279 0.46808 0.9518 0.0
C744 C 0.34274 0.46146 1.00742 0.0
C745 C 0.38645 0.47628 0.96779 0.0
C746 C 0.38837 0.47698 1.00287 0.0
C747 C 0.36846 0.46933 0.05823 0.0
C748 C 0.3467 0.4613 0.07866 0.0
C749 C 0.36664 0.4694 0.02292 0.0
C750 C 0.32304 0.45379 0.0631 0.0
C751 C 0.32107 0.45388 0.02783 0.0
H752 H 0.91756 0.38839 0.95094 0.0
H753 H 0.86088 0.30864 0.94096 0.0
H754 H 0.85653 0.30479 1.00244 0.0
H755 H 0.86947 0.32417 0.05945 0.0
H756 H 0.92621 0.40414 0.06793 0.0
H757 H 0.92973 0.40771 1.00686 0.0
C758 C 0.90422 0.37012 0.96212 0.0
C759 C 0.88965 0.34883 0.94124 0.0
C760 C 0.90178 0.36807 0.9974 0.0
C761 C 0.87239 0.32536 0.95634 0.0
C762 C 0.86988 0.32315 0.99155 0.0
C763 C 0.8825 0.34238 0.0479 0.0
C764 C 0.89756 0.36383 0.06846 0.0
C765 C 0.88455 0.34438 0.0124 0.0
C766 C 0.91438 0.38727 0.05295 0.0
C767 C 0.91646 0.38938 0.01791 0.0
H768 H 0.54052 0.92433 0.0723 0.0
H769 H 0.55248 0.86014 0.0839 0.0
H770 H 0.55342 0.85618 0.02242 0.0
H771 H 0.55009 0.87077 0.96504 0.0
H772 H 0.53775 0.93495 0.95524 0.0
H773 H 0.53771 0.93898 0.01619 0.0
C774 C 0.54342 0.90948 0.0615 0.0
C775 C 0.54641 0.89256 0.08277 0.0
C776 C 0.5438 0.90725 0.0263 0.0
C777 C 0.55013 0.87345 0.06816 0.0
C778 C 0.55064 0.87116 0.03298 0.0
C779 C 0.54744 0.88564 0.97628 0.0
C780 C 0.54389 0.90248 0.95541 0.0
C781 C 0.54737 0.8879 0.01173 0.0
C782 C 0.54048 0.92165 0.97049 0.0
C783 C 0.54046 0.92403 1.00546 0.0
H784 H 0.6773 0.55133 0.06605 0.0
H785 H 0.6035 0.54587 0.07619 0.0
H786 H 0.59989 0.54688 0.01523 0.0
H787 H 0.61665 0.54793 0.95891 0.0
H788 H 0.69007 0.55297 0.94722 0.0
H789 H 0.69485 0.55364 1.00865 0.0
C790 C 0.66051 0.55051 0.05489 0.0
C791 C 0.64068 0.54844 0.07586 0.0
C792 C 0.65841 0.55096 0.01945 0.0
C793 C 0.61905 0.54737 0.06086 0.0
C794 C 0.61692 0.54795 0.02589 0.0
C795 C 0.63379 0.54929 0.96969 0.0
C796 C 0.65293 0.55033 0.94837 0.0
C797 C 0.63634 0.54952 1.00494 0.0
C798 C 0.675 0.55213 0.96297 0.0
C799 C 0.67774 0.55247 0.99815 0.0
H800 H 0.07363 0.61534 0.95317 0.0
H801 H 0.13774 0.69157 0.9412 0.0
H802 H 0.14231 0.69633 1.00263 0.0
H803 H 0.12833 0.67826 0.06009 0.0
H804 H 0.06429 0.60163 0.07031 0.0
H805 H 0.05958 0.59771 1.00941 0.0
C806 C 0.08859 0.63308 0.96389 0.0
C807 C 0.1053 0.65306 0.94251 0.0
C808 C 0.09119 0.6356 0.99908 0.0
C809 C 0.12457 0.67587 0.95701 0.0
C810 C 0.12722 0.67858 0.99218 0.0
C811 C 0.11335 0.66074 0.04895 0.0
C812 C 0.09674 0.64027 0.06993 0.0
C813 C 0.11069 0.6585 0.01352 0.0
C814 C 0.07742 0.61771 0.05497 0.0
C815 C 0.07465 0.6154 0.02003 0.0
H816 H 0.86952 0.54494 0.56626 0.0
H817 H 0.92946 0.52608 0.57513 0.0
H818 H 0.93165 0.5239 0.51408 0.0
H819 H 0.91729 0.5278 0.45805 0.0
H820 H 0.8578 0.54703 0.44765 0.0
H821 H 0.85468 0.54849 0.50916 0.0
C822 C 0.88303 0.54033 0.55481 0.0
C823 C 0.89932 0.53573 0.57546 0.0
C824 C 0.8843 0.53914 0.51932 0.0
C825 C 0.91669 0.52977 0.56007 0.0
C826 C 0.91799 0.52849 0.52504 0.0
C827 C 0.90354 0.53223 0.46914 0.0
C828 C 0.8878 0.53729 0.44813 0.0
C829 C 0.90197 0.53319 0.50442 0.0
C830 C 0.87016 0.54304 0.46313 0.0
C831 C 0.86839 0.54391 0.49836 0.0
H832 H 0.31932 0.86988 0.56638 0.0
H833 H 0.3954 0.93542 0.57307 0.0
H834 H 0.39766 0.93907 0.51202 0.0
H835 H 0.37879 0.92364 0.45667 0.0
H836 H 0.30288 0.85831 0.44815 0.0
H837 H 0.29981 0.8547 0.5098 0.0
C838 C 0.33634 0.88498 0.55445 0.0
C839 C 0.35717 0.9023 0.57446 0.0
C840 C 0.3376 0.88704 0.51894 0.0
C841 C 0.37907 0.92177 0.55849 0.0
C842 C 0.38043 0.92391 0.52346 0.0
C843 C 0.36149 0.90859 0.46819 0.0
C844 C 0.34113 0.89125 0.44774 0.0
C845 C 0.3599 0.90663 0.50346 0.0
C846 C 0.31887 0.87194 0.46326 0.0
C847 C 0.31712 0.86985 0.49853 0.0
H848 H 0.46198 0.3826 0.56207 0.0
H849 H 0.44618 0.30529 0.57595 0.0
H850 H 0.44539 0.29958 0.51463 0.0
H851 H 0.44929 0.31688 0.45669 0.0
H852 H 0.46519 0.39448 0.44466 0.0
H853 H 0.46582 0.39962 0.50546 0.0
C854 C 0.45834 0.36445 0.5518 0.0
C855 C 0.45414 0.34442 0.57368 0.0
C856 C 0.45794 0.36133 0.51669 0.0
C857 C 0.44948 0.32106 0.55974 0.0
C858 C 0.44903 0.31778 0.52465 0.0
C859 C 0.45289 0.33488 0.46742 0.0
C860 C 0.45718 0.35523 0.44595 0.0
C861 C 0.45325 0.33782 0.5028 0.0
C862 C 0.46181 0.37845 0.46038 0.0
C863 C 0.46219 0.38146 0.49526 0.0
H864 H 0.12868 0.4476 0.56506 0.0
H865 H 0.06165 0.45547 0.5739 0.0
H866 H 0.05865 0.45648 0.51287 0.0
H867 H 0.07517 0.45605 0.45698 0.0
H868 H 0.14196 0.44811 0.4464 0.0
H869 H 0.14488 0.44618 0.50791 0.0
C870 C 0.11337 0.4494 0.5536 0.0
C871 C 0.09546 0.4515 0.57422 0.0
C872 C 0.11172 0.45005 0.51811 0.0
C873 C 0.07575 0.45385 0.55884 0.0
C874 C 0.07399 0.45446 0.52383 0.0
C875 C 0.09041 0.45388 0.46802 0.0
C876 C 0.10837 0.45233 0.44702 0.0
C877 C 0.09193 0.45275 0.50325 0.0
C878 C 0.12788 0.44939 0.46192 0.0
C879 C 0.12956 0.44829 0.49713 0.0
H880 H 0.67648 0.13079 0.45495 0.0
H881 H 0.59915 0.06781 0.44522 0.0
H882 H 0.59504 0.06412 0.5062 0.0
H883 H 0.61292 0.07841 0.56234 0.0
H884 H 0.69015 0.14096 0.57378 0.0
H885 H 0.6947 0.14516 0.51231 0.0
C886 C 0.65876 0.11626 0.46621 0.0
C887 C 0.63817 0.09962 0.44534 0.0
C888 C 0.65644 0.11415 0.50167 0.0
C889 C 0.61535 0.0809 0.46046 0.0
C890 C 0.61293 0.07875 0.49545 0.0
C891 C 0.63078 0.09303 0.5515 0.0
C892 C 0.65113 0.10936 0.57275 0.0
C893 C 0.63329 0.09524 0.51628 0.0
C894 C 0.67414 0.12812 0.55808 0.0
C895 C 0.67676 0.13053 0.52289 0.0
H896 H 0.53169 0.60926 0.45507 0.0
H897 H 0.54714 0.68675 0.44515 0.0
H898 H 0.5485 0.69117 0.50667 0.0
H899 H 0.54529 0.67282 0.56365 0.0
H900 H 0.5298 0.59515 0.57218 0.0
H901 H 0.52849 0.59112 0.51107 0.0
C902 C 0.53536 0.62716 0.46627 0.0
C903 C 0.53931 0.64763 0.44538 0.0
C904 C 0.53612 0.62956 0.50159 0.0
C905 C 0.54403 0.67065 0.46053 0.0
C906 C 0.54481 0.67319 0.49576 0.0
C907 C 0.54164 0.65503 0.55212 0.0
C908 C 0.53766 0.63434 0.57269 0.0
C909 C 0.54089 0.65276 0.51661 0.0
C910 C 0.53294 0.61143 0.55718 0.0
C911 C 0.53218 0.60906 0.52212 0.0
H912 H 0.51715 0.12869 0.2723 0.0
H913 H 0.54158 0.13027 0.16957 0.0
H914 H 0.58201 0.13503 0.18967 0.0
H915 H 0.6088 0.1352 0.23631 0.0
H916 H 0.5828 0.1301 0.33891 0.0
H917 H 0.54471 0.13055 0.319 0.0
C918 C 0.53146 0.13043 0.25428 0.0
C919 C 0.52633 0.12909 0.21947 0.0
C920 C 0.55433 0.13243 0.26602 0.0
C921 C 0.54499 0.13112 0.19649 0.0
C922 C 0.56811 0.13384 0.20797 0.0
C923 C 0.59502 0.13463 0.25436 0.0
C924 C 0.59865 0.13265 0.28906 0.0
C925 C 0.57277 0.13402 0.24267 0.0
C926 C 0.58043 0.13157 0.31208 0.0
C927 C 0.55862 0.13178 0.3007 0.0
H928 H 0.45491 0.579 0.32733 0.0
H929 H 0.48051 0.61806 0.23194 0.0
H930 H 0.44419 0.58289 0.20349 0.0
H931 H 0.40674 0.53958 0.20489 0.0
H932 H 0.38022 0.50121 0.30053 0.0
H933 H 0.41509 0.53751 0.32949 0.0
C934 C 0.4524 0.57992 0.30038 0.0
C935 C 0.47057 0.60105 0.28184 0.0
C936 C 0.43133 0.55965 0.28407 0.0
C937 C 0.46685 0.60205 0.24694 0.0
C938 C 0.44612 0.58187 0.23053 0.0
C939 C 0.40849 0.53927 0.23209 0.0
C940 C 0.39103 0.5176 0.25041 0.0
C941 C 0.4285 0.56034 0.24873 0.0
C942 C 0.39338 0.51763 0.28573 0.0
C943 C 0.41339 0.53836 0.30237 0.0
H944 H 0.87283 0.45732 0.32173 0.0
H945 H 0.87305 0.49231 0.22678 0.0
H946 H 0.87158 0.45663 0.19627 0.0
H947 H 0.87314 0.41681 0.19624 0.0
H948 H 0.87151 0.38103 0.29107 0.0
H949 H 0.8704 0.41545 0.32165 0.0
C950 C 0.87233 0.45702 0.29439 0.0
C951 C 0.8733 0.47763 0.27669 0.0
C952 C 0.87133 0.4363 0.27682 0.0
C953 C 0.87236 0.47677 0.24119 0.0
C954 C 0.87161 0.45638 0.22361 0.0
C955 C 0.87231 0.41642 0.22358 0.0
C956 C 0.87264 0.39645 0.24124 0.0
C957 C 0.87154 0.43625 0.24113 0.0
C958 C 0.87129 0.39615 0.27671 0.0
C959 C 0.87076 0.4159 0.29432 0.0
H960 H 0.47209 0.86668 0.28461 0.0
H961 H 0.45686 0.87407 0.18013 0.0
H962 H 0.41689 0.87232 0.19606 0.0
H963 H 0.3881 0.8721 0.23998 0.0
H964 H 0.40518 0.86812 0.34473 0.0
H965 H 0.44253 0.86494 0.32836 0.0
C966 C 0.45984 0.86752 0.26526 0.0
C967 C 0.46743 0.87049 0.23123 0.0
C968 C 0.43731 0.8673 0.27469 0.0
C969 C 0.45149 0.87187 0.20651 0.0
C970 C 0.42866 0.87089 0.2156 0.0
C971 C 0.39979 0.87017 0.25922 0.0
C972 C 0.39388 0.87035 0.29353 0.0
C973 C 0.42164 0.86912 0.24967 0.0
C974 C 0.40938 0.86814 0.31816 0.0
C975 C 0.43074 0.86633 0.30882 0.0
H976 H 0.6085 0.47113 0.2769 0.0
H977 H 0.58286 0.45764 0.17344 0.0
H978 H 0.545 0.41749 0.18975 0.0
H979 H 0.51752 0.38816 0.23409 0.0
H980 H 0.5416 0.40384 0.33806 0.0
H981 H 0.58184 0.44112 0.32085 0.0
C982 C 0.59485 0.45921 0.2578 0.0
C983 C 0.59852 0.46734 0.22398 0.0
C984 C 0.57275 0.43664 0.26753 0.0
C985 C 0.58046 0.45184 0.19965 0.0
C986 C 0.55879 0.42891 0.20897 0.0
C987 C 0.53175 0.39952 0.25293 0.0
C988 C 0.5266 0.39324 0.28732 0.0
C989 C 0.55448 0.4214 0.24294 0.0
C990 C 0.54508 0.40834 0.31146 0.0
C991 C 0.56807 0.42966 0.30163 0.0
H992 H 0.12935 0.60786 0.28041 0.0
H993 H 0.12891 0.58649 0.1764 0.0
H994 H 0.13116 0.54899 0.19424 0.0
H995 H 0.12995 0.52065 0.23924 0.0
H996 H 0.12718 0.54027 0.34326 0.0
H997 H 0.12967 0.58018 0.32556 0.0
C998 C 0.13012 0.5952 0.26163 0.0
C999 C 0.12897 0.59998 0.2271 0.0
C1000 C 0.13066 0.57327 0.27209 0.0
C1001 C 0.12968 0.58321 0.20312 0.0
C1002 C 0.13094 0.56175 0.21331 0.0
C1003 C 0.13024 0.5338 0.25811 0.0
C1004 C 0.12837 0.52744 0.29256 0.0
C1005 C 0.13095 0.55634 0.24771 0.0
C1006 C 0.12851 0.54463 0.3166 0.0
C1007 C 0.12991 0.56745 0.30648 0.0
H1008 H 0.48222 0.87217 0.74375 0.0
H1009 H 0.45801 0.8697 0.8468 0.0
H1010 H 0.41801 0.86628 0.82713 0.0
H1011 H 0.39147 0.86706 0.78082 0.0
H1012 H 0.41749 0.87331 0.67803 0.0
H1013 H 0.45525 0.87197 0.69744 0.0
C1014 C 0.46804 0.87054 0.76193 0.0
C1015 C 0.47303 0.87113 0.7967 0.0
C1016 C 0.44552 0.86938 0.75046 0.0
C1017 C 0.45463 0.86935 0.81992 0.0
C1018 C 0.43179 0.8674 0.80868 0.0
C1019 C 0.40521 0.86775 0.76261 0.0
C1020 C 0.40168 0.8702 0.72802 0.0
C1021 C 0.42724 0.86783 0.77403 0.0
C1022 C 0.41983 0.87147 0.70478 0.0
C1023 C 0.44141 0.87073 0.71587 0.0
H1024 H 0.60766 0.47648 0.74683 0.0
H1025 H 0.57996 0.4592 0.8492 0.0
H1026 H 0.54192 0.42022 0.82995 0.0
H1027 H 0.51535 0.39285 0.78367 0.0
H1028 H 0.54131 0.4123 0.68084 0.0
H1029 H 0.5814 0.44872 0.70064 0.0
C1030 C 0.59348 0.46398 0.76501 0.0
C1031 C 0.59664 0.4706 0.79943 0.0
C1032 C 0.57132 0.44216 0.75361 0.0
C1033 C 0.57792 0.45447 0.8226 0.0
C1034 C 0.55619 0.43224 0.81158 0.0
C1035 C 0.52991 0.40487 0.76559 0.0
C1036 C 0.52542 0.39987 0.73083 0.0
C1037 C 0.5525 0.42616 0.7771 0.0
C1038 C 0.54431 0.41581 0.70771 0.0
C1039 C 0.5672 0.43661 0.71902 0.0
H1040 H 0.13138 0.60771 0.73986 0.0
H1041 H 0.12694 0.5838 0.84332 0.0
H1042 H 0.13037 0.54695 0.82497 0.0
H1043 H 0.13133 0.51997 0.77932 0.0
H1044 H 0.13118 0.54159 0.67572 0.0
H1045 H 0.1331 0.58115 0.69428 0.0
C1046 C 0.13153 0.59463 0.75842 0.0
C1047 C 0.12901 0.59847 0.7929 0.0
C1048 C 0.13258 0.57308 0.74761 0.0
C1049 C 0.12881 0.58117 0.81665 0.0
C1050 C 0.13077 0.56014 0.80616 0.0
C1051 C 0.13216 0.53357 0.76082 0.0
C1052 C 0.13128 0.52803 0.72621 0.0
C1053 C 0.13221 0.55568 0.77169 0.0
C1054 C 0.13185 0.54551 0.70248 0.0
C1055 C 0.1329 0.56806 0.71309 0.0
H1056 H 0.58682 0.12755 0.69355 0.0
H1057 H 0.61446 0.12092 0.79124 0.0
H1058 H 0.57938 0.12291 0.81863 0.0
H1059 H 0.53918 0.12372 0.81478 0.0
H1060 H 0.51245 0.13207 0.71727 0.0
H1061 H 0.54885 0.13248 0.69012 0.0
C1062 C 0.58525 0.12673 0.72083 0.0
C1063 C 0.60309 0.12385 0.74023 0.0
C1064 C 0.56512 0.12814 0.73656 0.0
C1065 C 0.60099 0.12314 0.77562 0.0
C1066 C 0.58086 0.12418 0.79138 0.0
C1067 C 0.54146 0.12587 0.78764 0.0
C1068 C 0.52298 0.12762 0.76814 0.0
C1069 C 0.56257 0.12626 0.77208 0.0
C1070 C 0.52638 0.13068 0.73298 0.0
C1071 C 0.54715 0.1308 0.71733 0.0
H1072 H 0.41207 0.545 0.82118 0.0
H1073 H 0.38217 0.50341 0.72818 0.0
H1074 H 0.41632 0.53842 0.69651 0.0
H1075 H 0.45655 0.57965 0.69564 0.0
H1076 H 0.48522 0.62204 0.78843 0.0
H1077 H 0.44966 0.58818 0.81948 0.0
C1078 C 0.41293 0.54373 0.79397 0.0
C1079 C 0.39478 0.52156 0.77716 0.0
C1080 C 0.43247 0.56408 0.77577 0.0
C1081 C 0.39592 0.5203 0.74179 0.0
C1082 C 0.41551 0.54027 0.72362 0.0
C1083 C 0.45484 0.58158 0.72258 0.0
C1084 C 0.47368 0.60324 0.73964 0.0
C1085 C 0.43417 0.56208 0.7404 0.0
C1086 C 0.47102 0.60558 0.77455 0.0
C1087 C 0.45073 0.58615 0.79246 0.0
H1088 H 0.87126 0.41344 0.82176 0.0
H1089 H 0.867 0.37785 0.72568 0.0
H1090 H 0.86561 0.41255 0.69653 0.0
H1091 H 0.86876 0.45467 0.69791 0.0
H1092 H 0.87076 0.48928 0.79394 0.0
H1093 H 0.86966 0.45334 0.82336 0.0
C1094 C 0.86976 0.41319 0.79449 0.0
C1095 C 0.86949 0.39323 0.77598 0.0
C1096 C 0.86868 0.43311 0.77777 0.0
C1097 C 0.86723 0.39298 0.74062 0.0
C1098 C 0.86656 0.41289 0.72384 0.0
C1099 C 0.86871 0.45419 0.72527 0.0
C1100 C 0.87009 0.47469 0.74367 0.0
C1101 C 0.86776 0.4333 0.7421 0.0
C1102 C 0.86967 0.47369 0.77914 0.0
C1103 C 0.86917 0.4532 0.79603 0.0
loop_
_geom_bond_atom_site_label_1
_geom_bond_atom_site_label_2
_geom_bond_distance
_geom_bond_site_symmetry_2
_ccdc_geom_bond_type
O0 Cd1 2.223 . S
O0 C8 1.315 . S
Cd1 O0 2.223 . S
Cd1 O4 2.297 . S
Cd1 O5 2.439 . S
Cd1 O11 2.240 . S
Cd2 O3 2.240 . S
Cd2 O10 2.223 . S
Cd2 O12 2.297 . S
Cd2 O13 2.439 . S
O3 Cd2 2.240 . S
O3 C8 1.279 . S
O4 Cd1 2.297 . S
O4 C6 1.247 . S
O5 Cd1 2.439 . S
O5 C6 1.208 . S
C6 O4 1.247 . S
C6 O5 1.208 . S
C7 O12 1.247 . S
C7 O13 1.208 . S
C8 O0 1.315 . S
C8 O3 1.279 . S
C9 O10 1.315 . S
C9 O11 1.279 . S
O10 Cd2 2.223 . S
O10 C9 1.315 . S
O11 Cd1 2.240 . S
O11 C9 1.279 . S
O12 Cd2 2.297 . S
O12 C7 1.247 . S
O13 Cd2 2.439 . S
O13 C7 1.208 . S
O14 Cd15 2.223 . S
O14 C22 1.315 . S
Cd15 O14 2.223 . S
Cd15 O18 2.297 . S
Cd15 O19 2.439 . S
Cd15 O25 2.240 . S
Cd16 O17 2.240 . S
Cd16 O24 2.223 . S
Cd16 O26 2.297 . S
Cd16 O27 2.439 . S
O17 Cd16 2.240 . S
O17 C22 1.279 . S
O18 Cd15 2.297 . S
O18 C20 1.247 . S
O19 Cd15 2.439 . S
O19 C20 1.208 . S
C20 O18 1.247 . S
C20 O19 1.208 . S
C21 O26 1.247 . S
C21 O27 1.208 . S
C22 O14 1.315 . S
C22 O17 1.279 . S
C23 O24 1.315 . S
C23 O25 1.279 . S
O24 Cd16 2.223 . S
O24 C23 1.315 . S
O25 Cd15 2.240 . S
O25 C23 1.279 . S
O26 Cd16 2.297 . S
O26 C21 1.247 . S
O27 Cd16 2.439 . S
O27 C21 1.208 . S
O28 Cd29 2.223 . S
O28 C36 1.315 . S
Cd29 O28 2.223 . S
Cd29 O32 2.297 . S
Cd29 O33 2.439 . S
Cd29 O39 2.240 . S
Cd30 O31 2.240 . S
Cd30 O38 2.223 . S
Cd30 O40 2.297 . S
Cd30 O41 2.439 . S
O31 Cd30 2.240 . S
O31 C36 1.279 . S
O32 Cd29 2.297 . S
O32 C34 1.247 . S
O33 Cd29 2.439 . S
O33 C34 1.208 . S
C34 O32 1.247 . S
C34 O33 1.208 . S
C35 O40 1.247 . S
C35 O41 1.208 . S
C36 O28 1.315 . S
C36 O31 1.279 . S
C37 O38 1.315 . S
C37 O39 1.279 . S
O38 Cd30 2.223 . S
O38 C37 1.315 . S
O39 Cd29 2.240 . S
O39 C37 1.279 . S
O40 Cd30 2.297 . S
O40 C35 1.247 . S
O41 Cd30 2.439 . S
O41 C35 1.208 . S
O42 Cd43 2.223 . S
O42 C50 1.315 . S
Cd43 O42 2.223 . S
Cd43 O46 2.297 . S
Cd43 O47 2.439 . S
Cd43 O53 2.240 . S
Cd44 O45 2.240 . S
Cd44 O52 2.223 . S
Cd44 O54 2.297 . S
Cd44 O55 2.439 . S
O45 Cd44 2.240 . S
O45 C50 1.279 . S
O46 Cd43 2.297 . S
O46 C48 1.247 . S
O47 Cd43 2.439 . S
O47 C48 1.208 . S
C48 O46 1.247 . S
C48 O47 1.208 . S
C49 O54 1.247 . S
C49 O55 1.208 . S
C50 O42 1.315 . S
C50 O45 1.279 . S
C51 O52 1.315 . S
C51 O53 1.279 . S
O52 Cd44 2.223 . S
O52 C51 1.315 . S
O53 Cd43 2.240 . S
O53 C51 1.279 . S
O54 Cd44 2.297 . S
O54 C49 1.247 . S
O55 Cd44 2.439 . S
O55 C49 1.208 . S
O56 Cd57 2.223 . S
O56 C64 1.315 . S
Cd57 O56 2.223 . S
Cd57 O60 2.297 . S
Cd57 O61 2.439 . S
Cd57 O67 2.240 . S
Cd58 O59 2.240 . S
Cd58 O66 2.223 . S
Cd58 O68 2.297 . S
Cd58 O69 2.439 . S
O59 Cd58 2.240 . S
O59 C64 1.279 . S
O60 Cd57 2.297 . S
O60 C62 1.247 . S
O61 Cd57 2.439 . S
O61 C62 1.208 . S
C62 O60 1.247 . S
C62 O61 1.208 . S
C63 O68 1.247 . S
C63 O69 1.208 . S
C64 O56 1.315 . S
C64 O59 1.279 . S
C65 O66 1.315 . S
C65 O67 1.279 . S
O66 Cd58 2.223 . S
O66 C65 1.315 . S
O67 Cd57 2.240 . S
O67 C65 1.279 . S
O68 Cd58 2.297 . S
O68 C63 1.247 . S
O69 Cd58 2.439 . S
O69 C63 1.208 . S
O70 Cd71 2.223 . S
O70 C78 1.315 . S
Cd71 O70 2.223 . S
Cd71 O74 2.297 . S
Cd71 O75 2.439 . S
Cd71 O81 2.240 . S
Cd72 O73 2.240 . S
Cd72 O80 2.223 . S
Cd72 O82 2.297 . S
Cd72 O83 2.439 . S
O73 Cd72 2.240 . S
O73 C78 1.279 . S
O74 Cd71 2.297 . S
O74 C76 1.247 . S
O75 Cd71 2.439 . S
O75 C76 1.208 . S
C76 O74 1.247 . S
C76 O75 1.208 . S
C77 O82 1.247 . S
C77 O83 1.208 . S
C78 O70 1.315 . S
C78 O73 1.279 . S
C79 O80 1.315 . S
C79 O81 1.279 . S
O80 Cd72 2.223 . S
O80 C79 1.315 . S
O81 Cd71 2.240 . S
O81 C79 1.279 . S
O82 Cd72 2.297 . S
O82 C77 1.247 . S
O83 Cd72 2.439 . S
O83 C77 1.208 . S
O84 Cd85 2.223 . S
O84 C92 1.315 . S
Cd85 O84 2.223 . S
Cd85 O88 2.297 . S
Cd85 O89 2.439 . S
Cd85 O95 2.240 . S
Cd86 O87 2.240 . S
Cd86 O94 2.223 . S
Cd86 O96 2.297 . S
Cd86 O97 2.439 . S
O87 Cd86 2.240 . S
O87 C92 1.279 . S
O88 Cd85 2.297 . S
O88 C90 1.247 . S
O89 Cd85 2.439 . S
O89 C90 1.208 . S
C90 O88 1.247 . S
C90 O89 1.208 . S
C91 O96 1.247 . S
C91 O97 1.208 . S
C92 O84 1.315 . S
C92 O87 1.279 . S
C93 O94 1.315 . S
C93 O95 1.279 . S
O94 Cd86 2.223 . S
O94 C93 1.315 . S
O95 Cd85 2.240 . S
O95 C93 1.279 . S
O96 Cd86 2.297 . S
O96 C91 1.247 . S
O97 Cd86 2.439 . S
O97 C91 1.208 . S
O98 Cd99 2.223 . S
O98 C106 1.315 . S
Cd99 O98 2.223 . S
Cd99 O102 2.297 . S
Cd99 O103 2.439 . S
Cd99 O109 2.240 . S
Cd100 O101 2.240 . S
Cd100 O108 2.223 . S
Cd100 O110 2.297 . S
Cd100 O111 2.439 . S
O101 Cd100 2.240 . S
O101 C106 1.279 . S
O102 Cd99 2.297 . S
O102 C104 1.247 . S
O103 Cd99 2.439 . S
O103 C104 1.208 . S
C104 O102 1.247 . S
C104 O103 1.208 . S
C105 O110 1.247 . S
C105 O111 1.208 . S
C106 O98 1.315 . S
C106 O101 1.279 . S
C107 O108 1.315 . S
C107 O109 1.279 . S
O108 Cd100 2.223 . S
O108 C107 1.315 . S
O109 Cd99 2.240 . S
O109 C107 1.279 . S
O110 Cd100 2.297 . S
O110 C105 1.247 . S
O111 Cd100 2.439 . S
O111 C105 1.208 . S
O112 Cd113 2.223 . S
O112 C120 1.315 . S
Cd113 O112 2.223 . S
Cd113 O116 2.297 . S
Cd113 O117 2.439 . S
Cd113 O123 2.240 . S
Cd114 O115 2.240 . S
Cd114 O122 2.223 . S
Cd114 O124 2.297 . S
Cd114 O125 2.439 . S
O115 Cd114 2.240 . S
O115 C120 1.279 . S
O116 Cd113 2.297 . S
O116 C118 1.247 . S
O117 Cd113 2.439 . S
O117 C118 1.208 . S
C118 O116 1.247 . S
C118 O117 1.208 . S
C119 O124 1.247 . S
C119 O125 1.208 . S
C120 O112 1.315 . S
C120 O115 1.279 . S
C121 O122 1.315 . S
C121 O123 1.279 . S
O122 Cd114 2.223 . S
O122 C121 1.315 . S
O123 Cd113 2.240 . S
O123 C121 1.279 . S
O124 Cd114 2.297 . S
O124 C119 1.247 . S
O125 Cd114 2.439 . S
O125 C119 1.208 . S
O126 Cd127 2.223 . S
O126 C134 1.315 . S
Cd127 O126 2.223 . S
Cd127 O130 2.297 . S
Cd127 O131 2.439 . S
Cd127 O137 2.240 . S
Cd128 O129 2.240 . S
Cd128 O136 2.223 . S
Cd128 O138 2.297 . S
Cd128 O139 2.439 . S
O129 Cd128 2.240 . S
O129 C134 1.279 . S
O130 Cd127 2.297 . S
O130 C132 1.247 . S
O131 Cd127 2.439 . S
O131 C132 1.208 . S
C132 O130 1.247 . S
C132 O131 1.208 . S
C133 O138 1.247 . S
C133 O139 1.208 . S
C134 O126 1.315 . S
C134 O129 1.279 . S
C135 O136 1.315 . S
C135 O137 1.279 . S
O136 Cd128 2.223 . S
O136 C135 1.315 . S
O137 Cd127 2.240 . S
O137 C135 1.279 . S
O138 Cd128 2.297 . S
O138 C133 1.247 . S
O139 Cd128 2.439 . S
O139 C133 1.208 . S
O140 Cd141 2.223 . S
O140 C148 1.315 . S
Cd141 O140 2.223 . S
Cd141 O144 2.297 . S
Cd141 O145 2.439 . S
Cd141 O151 2.240 . S
Cd142 O143 2.240 . S
Cd142 O150 2.223 . S
Cd142 O152 2.297 . S
Cd142 O153 2.439 . S
O143 Cd142 2.240 . S
O143 C148 1.279 . S
O144 Cd141 2.297 . S
O144 C146 1.247 . S
O145 Cd141 2.439 . S
O145 C146 1.208 . S
C146 O144 1.247 . S
C146 O145 1.208 . S
C147 O152 1.247 . S
C147 O153 1.208 . S
C148 O140 1.315 . S
C148 O143 1.279 . S
C149 O150 1.315 . S
C149 O151 1.279 . S
O150 Cd142 2.223 . S
O150 C149 1.315 . S
O151 Cd141 2.240 . S
O151 C149 1.279 . S
O152 Cd142 2.297 . S
O152 C147 1.247 . S
O153 Cd142 2.439 . S
O153 C147 1.208 . S
O154 Cd155 2.223 . S
O154 C162 1.315 . S
Cd155 O154 2.223 . S
Cd155 O158 2.297 . S
Cd155 O159 2.439 . S
Cd155 O165 2.240 . S
Cd156 O157 2.240 . S
Cd156 O164 2.223 . S
Cd156 O166 2.297 . S
Cd156 O167 2.439 . S
O157 Cd156 2.240 . S
O157 C162 1.279 . S
O158 Cd155 2.297 . S
O158 C160 1.247 . S
O159 Cd155 2.439 . S
O159 C160 1.208 . S
C160 O158 1.247 . S
C160 O159 1.208 . S
C161 O166 1.247 . S
C161 O167 1.208 . S
C162 O154 1.315 . S
C162 O157 1.279 . S
C163 O164 1.315 . S
C163 O165 1.279 . S
O164 Cd156 2.223 . S
O164 C163 1.315 . S
O165 Cd155 2.240 . S
O165 C163 1.279 . S
O166 Cd156 2.297 . S
O166 C161 1.247 . S
O167 Cd156 2.439 . S
O167 C161 1.208 . S
O168 Cd169 2.223 . S
O168 C176 1.315 . S
Cd169 O168 2.223 . S
Cd169 O172 2.297 . S
Cd169 O173 2.439 . S
Cd169 O179 2.240 . S
Cd170 O171 2.240 . S
Cd170 O178 2.223 . S
Cd170 O180 2.297 . S
Cd170 O181 2.439 . S
O171 Cd170 2.240 . S
O171 C176 1.279 . S
O172 Cd169 2.297 . S
O172 C174 1.247 . S
O173 Cd169 2.439 . S
O173 C174 1.208 . S
C174 O172 1.247 . S
C174 O173 1.208 . S
C175 O180 1.247 . S
C175 O181 1.208 . S
C176 O168 1.315 . S
C176 O171 1.279 . S
C177 O178 1.315 . S
C177 O179 1.279 . S
O178 Cd170 2.223 . S
O178 C177 1.315 . S
O179 Cd169 2.240 . S
O179 C177 1.279 . S
O180 Cd170 2.297 . S
O180 C175 1.247 . S
O181 Cd170 2.439 . S
O181 C175 1.208 . S
O182 Cd183 2.223 . S
O182 C190 1.315 . S
Cd183 O182 2.223 . S
Cd183 O186 2.297 . S
Cd183 O187 2.439 . S
Cd183 O193 2.240 . S
Cd184 O185 2.240 . S
Cd184 O192 2.223 . S
Cd184 O194 2.297 . S
Cd184 O195 2.439 . S
O185 Cd184 2.240 . S
O185 C190 1.279 . S
O186 Cd183 2.297 . S
O186 C188 1.247 . S
O187 Cd183 2.439 . S
O187 C188 1.208 . S
C188 O186 1.247 . S
C188 O187 1.208 . S
C189 O194 1.247 . S
C189 O195 1.208 . S
C190 O182 1.315 . S
C190 O185 1.279 . S
C191 O192 1.315 . S
C191 O193 1.279 . S
O192 Cd184 2.223 . S
O192 C191 1.315 . S
O193 Cd183 2.240 . S
O193 C191 1.279 . S
O194 Cd184 2.297 . S
O194 C189 1.247 . S
O195 Cd184 2.439 . S
O195 C189 1.208 . S
O196 Cd197 2.223 . S
O196 C204 1.315 . S
Cd197 O196 2.223 . S
Cd197 O200 2.297 . S
Cd197 O201 2.439 . S
Cd197 O207 2.240 . S
Cd198 O199 2.240 . S
Cd198 O206 2.223 . S
Cd198 O208 2.297 . S
Cd198 O209 2.439 . S
O199 Cd198 2.240 . S
O199 C204 1.279 . S
O200 Cd197 2.297 . S
O200 C202 1.247 . S
O201 Cd197 2.439 . S
O201 C202 1.208 . S
C202 O200 1.247 . S
C202 O201 1.208 . S
C203 O208 1.247 . S
C203 O209 1.208 . S
C204 O196 1.315 . S
C204 O199 1.279 . S
C205 O206 1.315 . S
C205 O207 1.279 . S
O206 Cd198 2.223 . S
O206 C205 1.315 . S
O207 Cd197 2.240 . S
O207 C205 1.279 . S
O208 Cd198 2.297 . S
O208 C203 1.247 . S
O209 Cd198 2.439 . S
O209 C203 1.208 . S
O210 Cd211 2.223 . S
O210 C218 1.315 . S
Cd211 O210 2.223 . S
Cd211 O214 2.297 . S
Cd211 O215 2.439 . S
Cd211 O221 2.240 . S
Cd212 O213 2.240 . S
Cd212 O220 2.223 . S
Cd212 O222 2.297 . S
Cd212 O223 2.439 . S
O213 Cd212 2.240 . S
O213 C218 1.279 . S
O214 Cd211 2.297 . S
O214 C216 1.247 . S
O215 Cd211 2.439 . S
O215 C216 1.208 . S
C216 O214 1.247 . S
C216 O215 1.208 . S
C217 O222 1.247 . S
C217 O223 1.208 . S
C218 O210 1.315 . S
C218 O213 1.279 . S
C219 O220 1.315 . S
C219 O221 1.279 . S
O220 Cd212 2.223 . S
O220 C219 1.315 . S
O221 Cd211 2.240 . S
O221 C219 1.279 . S
O222 Cd212 2.297 . S
O222 C217 1.247 . S
O223 Cd212 2.439 . S
O223 C217 1.208 . S
O224 Cd225 2.223 . S
O224 C232 1.315 . S
Cd225 O224 2.223 . S
Cd225 O228 2.297 . S
Cd225 O229 2.439 . S
Cd225 O235 2.240 . S
Cd226 O227 2.240 . S
Cd226 O234 2.223 . S
Cd226 O236 2.297 . S
Cd226 O237 2.439 . S
O227 Cd226 2.240 . S
O227 C232 1.279 . S
O228 Cd225 2.297 . S
O228 C230 1.247 . S
O229 Cd225 2.439 . S
O229 C230 1.208 . S
C230 O228 1.247 . S
C230 O229 1.208 . S
C231 O236 1.247 . S
C231 O237 1.208 . S
C232 O224 1.315 . S
C232 O227 1.279 . S
C233 O234 1.315 . S
C233 O235 1.279 . S
O234 Cd226 2.223 . S
O234 C233 1.315 . S
O235 Cd225 2.240 . S
O235 C233 1.279 . S
O236 Cd226 2.297 . S
O236 C231 1.247 . S
O237 Cd226 2.439 . S
O237 C231 1.208 . S
O238 Cd239 2.223 . S
O238 C246 1.315 . S
Cd239 O238 2.223 . S
Cd239 O242 2.297 . S
Cd239 O243 2.439 . S
Cd239 O249 2.240 . S
Cd240 O241 2.240 . S
Cd240 O248 2.223 . S
Cd240 O250 2.297 . S
Cd240 O251 2.439 . S
O241 Cd240 2.240 . S
O241 C246 1.279 . S
O242 Cd239 2.297 . S
O242 C244 1.247 . S
O243 Cd239 2.439 . S
O243 C244 1.208 . S
C244 O242 1.247 . S
C244 O243 1.208 . S
C245 O250 1.247 . S
C245 O251 1.208 . S
C246 O238 1.315 . S
C246 O241 1.279 . S
C247 O248 1.315 . S
C247 O249 1.279 . S
O248 Cd240 2.223 . S
O248 C247 1.315 . S
O249 Cd239 2.240 . S
O249 C247 1.279 . S
O250 Cd240 2.297 . S
O250 C245 1.247 . S
O251 Cd240 2.439 . S
O251 C245 1.208 . S
O252 Cd253 2.223 . S
O252 C260 1.315 . S
Cd253 O252 2.223 . S
Cd253 O256 2.297 . S
Cd253 O257 2.439 . S
Cd253 O263 2.240 . S
Cd254 O255 2.240 . S
Cd254 O262 2.223 . S
Cd254 O264 2.297 . S
Cd254 O265 2.439 . S
O255 Cd254 2.240 . S
O255 C260 1.279 . S
O256 Cd253 2.297 . S
O256 C258 1.247 . S
O257 Cd253 2.439 . S
O257 C258 1.208 . S
C258 O256 1.247 . S
C258 O257 1.208 . S
C259 O264 1.247 . S
C259 O265 1.208 . S
C260 O252 1.315 . S
C260 O255 1.279 . S
C261 O262 1.315 . S
C261 O263 1.279 . S
O262 Cd254 2.223 . S
O262 C261 1.315 . S
O263 Cd253 2.240 . S
O263 C261 1.279 . S
O264 Cd254 2.297 . S
O264 C259 1.247 . S
O265 Cd254 2.439 . S
O265 C259 1.208 . S
O266 Cd267 2.223 . S
O266 C274 1.315 . S
Cd267 O266 2.223 . S
Cd267 O270 2.297 . S
Cd267 O271 2.439 . S
Cd267 O277 2.240 . S
Cd268 O269 2.240 . S
Cd268 O276 2.223 . S
Cd268 O278 2.297 . S
Cd268 O279 2.439 . S
O269 Cd268 2.240 . S
O269 C274 1.279 . S
O270 Cd267 2.297 . S
O270 C272 1.247 . S
O271 Cd267 2.439 . S
O271 C272 1.208 . S
C272 O270 1.247 . S
C272 O271 1.208 . S
C273 O278 1.247 . S
C273 O279 1.208 . S
C274 O266 1.315 . S
C274 O269 1.279 . S
C275 O276 1.315 . S
C275 O277 1.279 . S
O276 Cd268 2.223 . S
O276 C275 1.315 . S
O277 Cd267 2.240 . S
O277 C275 1.279 . S
O278 Cd268 2.297 . S
O278 C273 1.247 . S
O279 Cd268 2.439 . S
O279 C273 1.208 . S
O280 Cd281 2.223 . S
O280 C288 1.315 . S
Cd281 O280 2.223 . S
Cd281 O284 2.297 . S
Cd281 O285 2.439 . S
Cd281 O291 2.240 . S
Cd282 O283 2.240 . S
Cd282 O290 2.223 . S
Cd282 O292 2.297 . S
Cd282 O293 2.439 . S
O283 Cd282 2.240 . S
O283 C288 1.279 . S
O284 Cd281 2.297 . S
O284 C286 1.247 . S
O285 Cd281 2.439 . S
O285 C286 1.208 . S
C286 O284 1.247 . S
C286 O285 1.208 . S
C287 O292 1.247 . S
C287 O293 1.208 . S
C288 O280 1.315 . S
C288 O283 1.279 . S
C289 O290 1.315 . S
C289 O291 1.279 . S
O290 Cd282 2.223 . S
O290 C289 1.315 . S
O291 Cd281 2.240 . S
O291 C289 1.279 . S
O292 Cd282 2.297 . S
O292 C287 1.247 . S
O293 Cd282 2.439 . S
O293 C287 1.208 . S
O294 Cd295 2.223 . S
O294 C302 1.315 . S
Cd295 O294 2.223 . S
Cd295 O298 2.297 . S
Cd295 O299 2.439 . S
Cd295 O305 2.240 . S
Cd296 O297 2.240 . S
Cd296 O304 2.223 . S
Cd296 O306 2.297 . S
Cd296 O307 2.439 . S
O297 Cd296 2.240 . S
O297 C302 1.279 . S
O298 Cd295 2.297 . S
O298 C300 1.247 . S
O299 Cd295 2.439 . S
O299 C300 1.208 . S
C300 O298 1.247 . S
C300 O299 1.208 . S
C301 O306 1.247 . S
C301 O307 1.208 . S
C302 O294 1.315 . S
C302 O297 1.279 . S
C303 O304 1.315 . S
C303 O305 1.279 . S
O304 Cd296 2.223 . S
O304 C303 1.315 . S
O305 Cd295 2.240 . S
O305 C303 1.279 . S
O306 Cd296 2.297 . S
O306 C301 1.247 . S
O307 Cd296 2.439 . S
O307 C301 1.208 . S
O308 Cd309 2.223 . S
O308 C316 1.315 . S
Cd309 O308 2.223 . S
Cd309 O312 2.297 . S
Cd309 O313 2.439 . S
Cd309 O319 2.240 . S
Cd310 O311 2.240 . S
Cd310 O318 2.223 . S
Cd310 O320 2.297 . S
Cd310 O321 2.439 . S
O311 Cd310 2.240 . S
O311 C316 1.279 . S
O312 Cd309 2.297 . S
O312 C314 1.247 . S
O313 Cd309 2.439 . S
O313 C314 1.208 . S
C314 O312 1.247 . S
C314 O313 1.208 . S
C315 O320 1.247 . S
C315 O321 1.208 . S
C316 O308 1.315 . S
C316 O311 1.279 . S
C317 O318 1.315 . S
C317 O319 1.279 . S
O318 Cd310 2.223 . S
O318 C317 1.315 . S
O319 Cd309 2.240 . S
O319 C317 1.279 . S
O320 Cd310 2.297 . S
O320 C315 1.247 . S
O321 Cd310 2.439 . S
O321 C315 1.208 . S
O322 Cd323 2.223 . S
O322 C330 1.315 . S
Cd323 O322 2.223 . S
Cd323 O326 2.297 . S
Cd323 O327 2.439 . S
Cd323 O333 2.240 . S
Cd324 O325 2.240 . S
Cd324 O332 2.223 . S
Cd324 O334 2.297 . S
Cd324 O335 2.439 . S
O325 Cd324 2.240 . S
O325 C330 1.279 . S
O326 Cd323 2.297 . S
O326 C328 1.247 . S
O327 Cd323 2.439 . S
O327 C328 1.208 . S
C328 O326 1.247 . S
C328 O327 1.208 . S
C329 O334 1.247 . S
C329 O335 1.208 . S
C330 O322 1.315 . S
C330 O325 1.279 . S
C331 O332 1.315 . S
C331 O333 1.279 . S
O332 Cd324 2.223 . S
O332 C331 1.315 . S
O333 Cd323 2.240 . S
O333 C331 1.279 . S
O334 Cd324 2.297 . S
O334 C329 1.247 . S
O335 Cd324 2.439 . S
O335 C329 1.208 . S
H336 C342 0.930 . S
H337 C345 0.930 . S
H338 C346 0.930 . S
H339 C347 0.930 . S
H340 C350 0.930 . S
H341 C351 0.930 . S
C342 H336 0.930 . S
C342 C343 1.355 . S
C342 C344 1.415 . S
C343 C342 1.355 . S
C343 C345 1.419 . S
C344 C342 1.415 . S
C344 C349 1.425 1_545 S
C344 C351 1.409 . S
C345 H337 0.930 . S
C345 C343 1.419 . S
C345 C346 1.362 1_545 S
C346 H338 0.930 . S
C346 C345 1.362 1_565 S
C346 C349 1.409 . S
C347 H339 0.930 . S
C347 C348 1.355 . S
C347 C349 1.415 . S
C348 C347 1.355 . S
C348 C350 1.419 . S
C349 C344 1.425 1_565 S
C349 C346 1.409 . S
C349 C347 1.415 . S
C350 H340 0.930 . S
C350 C348 1.419 . S
C350 C351 1.362 1_565 S
C351 H341 0.930 . S
C351 C344 1.409 . S
C351 C350 1.362 1_545 S
H352 C358 0.930 . S
H353 C361 0.930 . S
H354 C362 0.930 . S
H355 C363 0.930 . S
H356 C366 0.930 . S
H357 C367 0.930 . S
C358 H352 0.930 . S
C358 C359 1.355 . S
C358 C360 1.415 . S
C359 C358 1.355 . S
C359 C361 1.419 . S
C360 C358 1.415 . S
C360 C365 1.425 . S
C360 C367 1.409 . S
C361 H353 0.930 . S
C361 C359 1.419 . S
C361 C362 1.362 . S
C362 H354 0.930 . S
C362 C361 1.362 . S
C362 C365 1.409 . S
C363 H355 0.930 . S
C363 C364 1.355 . S
C363 C365 1.415 . S
C364 C363 1.355 . S
C364 C366 1.419 . S
C365 C360 1.425 . S
C365 C362 1.409 . S
C365 C363 1.415 . S
C366 H356 0.930 . S
C366 C364 1.419 . S
C366 C367 1.362 . S
C367 H357 0.930 . S
C367 C360 1.409 . S
C367 C366 1.362 . S
H368 C374 0.930 . S
H369 C377 0.930 . S
H370 C378 0.930 . S
H371 C379 0.930 . S
H372 C382 0.930 . S
H373 C383 0.930 . S
C374 H368 0.930 . S
C374 C375 1.355 . S
C374 C376 1.415 . S
C375 C374 1.355 . S
C375 C377 1.419 . S
C376 C374 1.415 . S
C376 C381 1.425 1_655 S
C376 C383 1.409 1_655 S
C377 H369 0.930 . S
C377 C375 1.419 . S
C377 C378 1.362 . S
C378 H370 0.930 . S
C378 C377 1.362 . S
C378 C381 1.409 1_655 S
C379 H371 0.930 . S
C379 C380 1.355 . S
C379 C381 1.415 . S
C380 C379 1.355 . S
C380 C382 1.419 . S
C381 C376 1.425 1_455 S
C381 C378 1.409 1_455 S
C381 C379 1.415 . S
C382 H372 0.930 . S
C382 C380 1.419 . S
C382 C383 1.362 . S
C383 H373 0.930 . S
C383 C376 1.409 1_455 S
C383 C382 1.362 . S
H384 C390 0.930 . S
H385 C393 0.930 . S
H386 C394 0.930 . S
H387 C395 0.930 . S
H388 C398 0.930 . S
H389 C399 0.930 . S
C390 H384 0.930 . S
C390 C391 1.355 . S
C390 C392 1.415 1_565 S
C391 C390 1.355 . S
C391 C393 1.419 . S
C392 C390 1.415 1_545 S
C392 C397 1.425 1_545 S
C392 C399 1.409 . S
C393 H385 0.930 . S
C393 C391 1.419 . S
C393 C394 1.362 . S
C394 H386 0.930 . S
C394 C393 1.362 . S
C394 C397 1.409 . S
C395 H387 0.930 . S
C395 C396 1.355 . S
C395 C397 1.415 1_545 S
C396 C395 1.355 . S
C396 C398 1.419 . S
C397 C392 1.425 1_565 S
C397 C394 1.409 . S
C397 C395 1.415 1_565 S
C398 H388 0.930 . S
C398 C396 1.419 . S
C398 C399 1.362 . S
C399 H389 0.930 . S
C399 C392 1.409 . S
C399 C398 1.362 . S
H400 C406 0.930 . S
H401 C409 0.930 . S
H402 C410 0.930 . S
H403 C411 0.930 . S
H404 C414 0.930 . S
H405 C415 0.930 . S
C406 H400 0.930 . S
C406 C407 1.355 . S
C406 C408 1.415 . S
C407 C406 1.355 . S
C407 C409 1.419 . S
C408 C406 1.415 . S
C408 C413 1.425 . S
C408 C415 1.409 . S
C409 H401 0.930 . S
C409 C407 1.419 . S
C409 C410 1.362 . S
C410 H402 0.930 . S
C410 C409 1.362 . S
C410 C413 1.409 . S
C411 H403 0.930 . S
C411 C412 1.355 . S
C411 C413 1.415 . S
C412 C411 1.355 . S
C412 C414 1.419 . S
C413 C408 1.425 . S
C413 C410 1.409 . S
C413 C411 1.415 . S
C414 H404 0.930 . S
C414 C412 1.419 . S
C414 C415 1.362 . S
C415 H405 0.930 . S
C415 C408 1.409 . S
C415 C414 1.362 . S
H416 C422 0.930 . S
H417 C425 0.930 . S
H418 C426 0.930 . S
H419 C427 0.930 . S
H420 C430 0.930 . S
H421 C431 0.930 . S
C422 H416 0.930 . S
C422 C423 1.355 . S
C422 C424 1.415 . S
C423 C422 1.355 . S
C423 C425 1.419 . S
C424 C422 1.415 . S
C424 C429 1.425 1_455 S
C424 C431 1.409 1_455 S
C425 H417 0.930 . S
C425 C423 1.419 . S
C425 C426 1.362 . S
C426 H418 0.930 . S
C426 C425 1.362 . S
C426 C429 1.409 1_455 S
C427 H419 0.930 . S
C427 C428 1.355 . S
C427 C429 1.415 . S
C428 C427 1.355 . S
C428 C430 1.419 . S
C429 C424 1.425 1_655 S
C429 C426 1.409 1_655 S
C429 C427 1.415 . S
C430 H420 0.930 . S
C430 C428 1.419 . S
C430 C431 1.362 . S
C431 H421 0.930 . S
C431 C424 1.409 1_655 S
C431 C430 1.362 . S
H432 C438 0.930 . S
H433 C441 0.930 . S
H434 C442 0.930 1_545 S
H435 C443 0.930 . S
H436 C446 0.930 . S
H437 C447 0.930 1_565 S
C438 H432 0.930 . S
C438 C439 1.355 . S
C438 C440 1.415 . S
C439 C438 1.355 . S
C439 C441 1.419 . S
C440 C438 1.415 . S
C440 C445 1.425 1_565 S
C440 C447 1.409 1_565 S
C441 H433 0.930 . S
C441 C439 1.419 . S
C441 C442 1.362 . S
C442 H434 0.930 1_565 S
C442 C441 1.362 . S
C442 C445 1.409 1_565 S
C443 H435 0.930 . S
C443 C444 1.355 . S
C443 C445 1.415 . S
C444 C443 1.355 . S
C444 C446 1.419 . S
C445 C440 1.425 1_545 S
C445 C442 1.409 1_545 S
C445 C443 1.415 . S
C446 H436 0.930 . S
C446 C444 1.419 . S
C446 C447 1.362 . S
C447 H437 0.930 1_545 S
C447 C440 1.409 1_545 S
C447 C446 1.362 . S
H448 C454 0.930 . S
H449 C457 0.930 . S
H450 C458 0.930 . S
H451 C459 0.930 . S
H452 C462 0.930 . S
H453 C463 0.930 . S
C454 H448 0.930 . S
C454 C455 1.355 . S
C454 C456 1.415 . S
C455 C454 1.355 . S
C455 C457 1.419 . S
C456 C454 1.415 . S
C456 C461 1.425 . S
C456 C463 1.409 . S
C457 H449 0.930 . S
C457 C455 1.419 . S
C457 C458 1.362 . S
C458 H450 0.930 . S
C458 C457 1.362 . S
C458 C461 1.409 . S
C459 H451 0.930 . S
C459 C460 1.355 . S
C459 C461 1.415 . S
C460 C459 1.355 . S
C460 C462 1.419 . S
C461 C456 1.425 . S
C461 C458 1.409 . S
C461 C459 1.415 . S
C462 H452 0.930 . S
C462 C460 1.419 . S
C462 C463 1.362 . S
C463 H453 0.930 . S
C463 C456 1.409 . S
C463 C462 1.362 . S
H464 C470 0.930 . S
H465 C473 0.930 . S
H466 C474 0.930 . S
H467 C475 0.930 . S
H468 C478 0.930 . S
H469 C479 0.930 . S
C470 H464 0.930 . S
C470 C471 1.355 . S
C470 C472 1.415 1_655 S
C471 C470 1.355 . S
C471 C473 1.419 . S
C472 C470 1.415 1_455 S
C472 C477 1.425 1_455 S
C472 C479 1.409 . S
C473 H465 0.930 . S
C473 C471 1.419 . S
C473 C474 1.362 . S
C474 H466 0.930 . S
C474 C473 1.362 . S
C474 C477 1.409 . S
C475 H467 0.930 . S
C475 C476 1.355 . S
C475 C477 1.415 1_455 S
C476 C475 1.355 . S
C476 C478 1.419 . S
C477 C472 1.425 1_655 S
C477 C474 1.409 . S
C477 C475 1.415 1_655 S
C478 H468 0.930 . S
C478 C476 1.419 . S
C478 C479 1.362 . S
C479 H469 0.930 . S
C479 C472 1.409 . S
C479 C478 1.362 . S
H480 C486 0.930 . S
H481 C489 0.930 . S
H482 C490 0.930 . S
H483 C491 0.930 . S
H484 C494 0.930 . S
H485 C495 0.930 . S
C486 H480 0.930 . S
C486 C487 1.355 . S
C486 C488 1.415 1_545 S
C487 C486 1.355 . S
C487 C489 1.419 . S
C488 C486 1.415 1_565 S
C488 C493 1.425 1_565 S
C488 C495 1.409 . S
C489 H481 0.930 . S
C489 C487 1.419 . S
C489 C490 1.362 . S
C490 H482 0.930 . S
C490 C489 1.362 . S
C490 C493 1.409 . S
C491 H483 0.930 . S
C491 C492 1.355 . S
C491 C493 1.415 1_565 S
C492 C491 1.355 . S
C492 C494 1.419 . S
C493 C488 1.425 1_545 S
C493 C490 1.409 . S
C493 C491 1.415 1_545 S
C494 H484 0.930 . S
C494 C492 1.419 . S
C494 C495 1.362 . S
C495 H485 0.930 . S
C495 C488 1.409 . S
C495 C494 1.362 . S
H496 C502 0.930 . S
H497 C505 0.930 . S
H498 C506 0.930 . S
H499 C507 0.930 . S
H500 C510 0.930 . S
H501 C511 0.930 . S
C502 H496 0.930 . S
C502 C503 1.355 . S
C502 C504 1.415 . S
C503 C502 1.355 . S
C503 C505 1.419 . S
C504 C502 1.415 . S
C504 C509 1.425 . S
C504 C511 1.409 . S
C505 H497 0.930 . S
C505 C503 1.419 . S
C505 C506 1.362 . S
C506 H498 0.930 . S
C506 C505 1.362 . S
C506 C509 1.409 . S
C507 H499 0.930 . S
C507 C508 1.355 . S
C507 C509 1.415 . S
C508 C507 1.355 . S
C508 C510 1.419 . S
C509 C504 1.425 . S
C509 C506 1.409 . S
C509 C507 1.415 . S
C510 H500 0.930 . S
C510 C508 1.419 . S
C510 C511 1.362 . S
C511 H501 0.930 . S
C511 C504 1.409 . S
C511 C510 1.362 . S
H512 C518 0.930 . S
H513 C521 0.930 . S
H514 C522 0.930 . S
H515 C523 0.930 . S
H516 C526 0.930 . S
H517 C527 0.930 . S
C518 H512 0.930 . S
C518 C519 1.355 . S
C518 C520 1.388 1_455 S
C519 C518 1.355 . S
C519 C521 1.419 . S
C520 C518 1.388 1_655 S
C520 C525 1.392 1_655 S
C520 C527 1.453 . S
C521 H513 0.930 . S
C521 C519 1.419 . S
C521 C522 1.362 . S
C522 H514 0.930 . S
C522 C521 1.362 . S
C522 C525 1.453 . S
C523 H515 0.930 . S
C523 C524 1.355 . S
C523 C525 1.388 1_655 S
C524 C523 1.355 . S
C524 C526 1.419 . S
C525 C520 1.392 1_455 S
C525 C522 1.453 . S
C525 C523 1.388 1_455 S
C526 H516 0.930 . S
C526 C524 1.419 . S
C526 C527 1.362 . S
C527 H517 0.930 . S
C527 C520 1.453 . S
C527 C526 1.362 . S
H528 C534 0.930 . S
H529 C537 0.930 . S
H530 C538 0.930 . S
H531 C539 0.930 . S
H532 C542 0.930 . S
H533 C543 0.930 . S
C534 H528 0.930 . S
C534 C535 1.355 . S
C534 C536 1.415 . S
C535 C534 1.355 . S
C535 C537 1.419 . S
C536 C534 1.415 . S
C536 C541 1.425 . S
C536 C543 1.409 . S
C537 H529 0.930 . S
C537 C535 1.419 . S
C537 C538 1.362 . S
C538 H530 0.930 . S
C538 C537 1.362 . S
C538 C541 1.409 . S
C539 H531 0.930 . S
C539 C540 1.355 . S
C539 C541 1.415 . S
C540 C539 1.355 . S
C540 C542 1.419 . S
C541 C536 1.425 . S
C541 C538 1.409 . S
C541 C539 1.415 . S
C542 H532 0.930 . S
C542 C540 1.419 . S
C542 C543 1.362 . S
C543 H533 0.930 . S
C543 C536 1.409 . S
C543 C542 1.362 . S
H544 C550 0.930 . S
H545 C553 0.930 . S
H546 C554 0.930 . S
H547 C555 0.930 . S
H548 C558 0.930 . S
H549 C559 0.930 . S
C550 H544 0.930 . S
C550 C551 1.355 . S
C550 C552 1.415 . S
C551 C550 1.355 . S
C551 C553 1.419 . S
C552 C550 1.415 . S
C552 C557 1.425 . S
C552 C559 1.409 . S
C553 H545 0.930 . S
C553 C551 1.419 . S
C553 C554 1.362 . S
C554 H546 0.930 . S
C554 C553 1.362 . S
C554 C557 1.409 . S
C555 H547 0.930 . S
C555 C556 1.355 . S
C555 C557 1.415 . S
C556 C555 1.355 . S
C556 C558 1.419 . S
C557 C552 1.425 . S
C557 C554 1.409 . S
C557 C555 1.415 . S
C558 H548 0.930 . S
C558 C556 1.419 . S
C558 C559 1.362 . S
C559 H549 0.930 . S
C559 C552 1.409 . S
C559 C558 1.362 . S
H560 C566 0.930 . S
H561 C569 0.930 . S
H562 C570 0.930 . S
H563 C571 0.930 . S
H564 C574 0.930 . S
H565 C575 0.930 . S
C566 H560 0.930 . S
C566 C567 1.355 . S
C566 C568 1.415 . S
C567 C566 1.355 . S
C567 C569 1.419 . S
C568 C566 1.415 . S
C568 C573 1.425 . S
C568 C575 1.409 . S
C569 H561 0.930 . S
C569 C567 1.419 . S
C569 C570 1.362 . S
C570 H562 0.930 . S
C570 C569 1.362 . S
C570 C573 1.409 . S
C571 H563 0.930 . S
C571 C572 1.355 . S
C571 C573 1.415 . S
C572 C571 1.355 . S
C572 C574 1.419 . S
C573 C568 1.425 . S
C573 C570 1.409 . S
C573 C571 1.415 . S
C574 H564 0.930 . S
C574 C572 1.419 . S
C574 C575 1.362 . S
C575 H565 0.930 . S
C575 C568 1.409 . S
C575 C574 1.362 . S
H576 C582 0.930 . S
H577 C585 0.930 . S
H578 C586 0.930 . S
H579 C587 0.930 . S
H580 C590 0.930 . S
H581 C591 0.930 . S
C582 H576 0.930 . S
C582 C583 1.355 . S
C582 C584 1.415 . S
C583 C582 1.355 . S
C583 C585 1.419 . S
C584 C582 1.415 . S
C584 C589 1.425 . S
C584 C591 1.409 . S
C585 H577 0.930 . S
C585 C583 1.419 . S
C585 C586 1.362 . S
C586 H578 0.930 . S
C586 C585 1.362 . S
C586 C589 1.409 . S
C587 H579 0.930 . S
C587 C588 1.355 . S
C587 C589 1.415 . S
C588 C587 1.355 . S
C588 C590 1.419 . S
C589 C584 1.425 . S
C589 C586 1.409 . S
C589 C587 1.415 . S
C590 H580 0.930 . S
C590 C588 1.419 . S
C590 C591 1.362 . S
C591 H581 0.930 . S
C591 C584 1.409 . S
C591 C590 1.362 . S
H592 C598 0.930 . S
H593 C601 0.930 . S
H594 C602 0.930 . S
H595 C603 0.930 . S
H596 C606 0.930 . S
H597 C607 0.930 . S
C598 H592 0.930 . S
C598 C599 1.355 . S
C598 C600 1.415 . S
C599 C598 1.355 . S
C599 C601 1.419 . S
C600 C598 1.415 . S
C600 C605 1.425 . S
C600 C607 1.409 . S
C601 H593 0.930 . S
C601 C599 1.419 . S
C601 C602 1.362 . S
C602 H594 0.930 . S
C602 C601 1.362 . S
C602 C605 1.409 . S
C603 H595 0.930 . S
C603 C604 1.355 . S
C603 C605 1.415 . S
C604 C603 1.355 . S
C604 C606 1.419 . S
C605 C600 1.425 . S
C605 C602 1.409 . S
C605 C603 1.415 . S
C606 H596 0.930 . S
C606 C604 1.419 . S
C606 C607 1.362 . S
C607 H597 0.930 . S
C607 C600 1.409 . S
C607 C606 1.362 . S
H608 C614 0.930 . S
H609 C617 0.930 . S
H610 C618 0.930 . S
H611 C619 0.930 . S
H612 C622 0.930 . S
H613 C623 0.930 . S
C614 H608 0.930 . S
C614 C615 1.355 . S
C614 C616 1.415 . S
C615 C614 1.355 . S
C615 C617 1.419 . S
C616 C614 1.415 . S
C616 C621 1.425 . S
C616 C623 1.409 . S
C617 H609 0.930 . S
C617 C615 1.419 . S
C617 C618 1.362 . S
C618 H610 0.930 . S
C618 C617 1.362 . S
C618 C621 1.409 . S
C619 H611 0.930 . S
C619 C620 1.355 . S
C619 C621 1.415 . S
C620 C619 1.355 . S
C620 C622 1.419 . S
C621 C616 1.425 . S
C621 C618 1.409 . S
C621 C619 1.415 . S
C622 H612 0.930 . S
C622 C620 1.419 . S
C622 C623 1.362 . S
C623 H613 0.930 . S
C623 C616 1.409 . S
C623 C622 1.362 . S
H624 C630 0.930 . S
H625 C633 0.930 . S
H626 C634 0.930 . S
H627 C635 0.930 . S
H628 C638 0.930 . S
H629 C639 0.930 . S
C630 H624 0.930 . S
C630 C631 1.355 . S
C630 C632 1.415 . S
C631 C630 1.355 . S
C631 C633 1.419 . S
C632 C630 1.415 . S
C632 C637 1.425 . S
C632 C639 1.409 . S
C633 H625 0.930 . S
C633 C631 1.419 . S
C633 C634 1.362 . S
C634 H626 0.930 . S
C634 C633 1.362 . S
C634 C637 1.409 . S
C635 H627 0.930 . S
C635 C636 1.355 . S
C635 C637 1.415 . S
C636 C635 1.355 . S
C636 C638 1.419 . S
C637 C632 1.425 . S
C637 C634 1.409 . S
C637 C635 1.415 . S
C638 H628 0.930 . S
C638 C636 1.419 . S
C638 C639 1.362 . S
C639 H629 0.930 . S
C639 C632 1.409 . S
C639 C638 1.362 . S
H640 C646 0.930 . S
H641 C649 0.930 . S
H642 C650 0.930 . S
H643 C651 0.930 . S
H644 C654 0.930 . S
H645 C655 0.930 . S
C646 H640 0.930 . S
C646 C647 1.355 . S
C646 C648 1.415 . S
C647 C646 1.355 . S
C647 C649 1.419 . S
C648 C646 1.415 . S
C648 C653 1.425 . S
C648 C655 1.409 . S
C649 H641 0.930 . S
C649 C647 1.419 . S
C649 C650 1.362 . S
C650 H642 0.930 . S
C650 C649 1.362 . S
C650 C653 1.409 . S
C651 H643 0.930 . S
C651 C652 1.355 . S
C651 C653 1.415 . S
C652 C651 1.355 . S
C652 C654 1.419 . S
C653 C648 1.425 . S
C653 C650 1.409 . S
C653 C651 1.415 . S
C654 H644 0.930 . S
C654 C652 1.419 . S
C654 C655 1.362 . S
C655 H645 0.930 . S
C655 C648 1.409 . S
C655 C654 1.362 . S
H656 C662 0.930 . S
H657 C665 0.930 . S
H658 C666 0.930 . S
H659 C667 0.930 . S
H660 C670 0.930 . S
H661 C671 0.930 . S
C662 H656 0.930 . S
C662 C663 1.355 . S
C662 C664 1.415 . S
C663 C662 1.355 . S
C663 C665 1.419 . S
C664 C662 1.415 . S
C664 C669 1.425 . S
C664 C671 1.409 . S
C665 H657 0.930 . S
C665 C663 1.419 . S
C665 C666 1.362 . S
C666 H658 0.930 . S
C666 C665 1.362 . S
C666 C669 1.409 . S
C667 H659 0.930 . S
C667 C668 1.355 . S
C667 C669 1.415 . S
C668 C667 1.355 . S
C668 C670 1.419 . S
C669 C664 1.425 . S
C669 C666 1.409 . S
C669 C667 1.415 . S
C670 H660 0.930 . S
C670 C668 1.419 . S
C670 C671 1.362 . S
C671 H661 0.930 . S
C671 C664 1.409 . S
C671 C670 1.362 . S
H672 C678 0.930 . S
H673 C681 0.930 . S
H674 C682 0.930 . S
H675 C683 0.930 . S
H676 C686 0.930 . S
H677 C687 0.930 . S
C678 H672 0.930 . S
C678 C679 1.355 . S
C678 C680 1.415 . S
C679 C678 1.355 . S
C679 C681 1.419 . S
C680 C678 1.415 . S
C680 C685 1.425 . S
C680 C687 1.409 . S
C681 H673 0.930 . S
C681 C679 1.419 . S
C681 C682 1.362 . S
C682 H674 0.930 . S
C682 C681 1.362 . S
C682 C685 1.409 . S
C683 H675 0.930 . S
C683 C684 1.355 . S
C683 C685 1.415 . S
C684 C683 1.355 . S
C684 C686 1.419 . S
C685 C680 1.425 . S
C685 C682 1.409 . S
C685 C683 1.415 . S
C686 H676 0.930 . S
C686 C684 1.419 . S
C686 C687 1.362 . S
C687 H677 0.930 . S
C687 C680 1.409 . S
C687 C686 1.362 . S
H688 C694 0.930 . S
H689 C697 0.930 . S
H690 C698 0.930 . S
H691 C699 0.930 . S
H692 C702 0.930 . S
H693 C703 0.930 . S
C694 H688 0.930 . S
C694 C695 1.355 . S
C694 C696 1.415 . S
C695 C694 1.355 . S
C695 C697 1.419 . S
C696 C694 1.415 . S
C696 C701 1.425 . S
C696 C703 1.409 . S
C697 H689 0.930 . S
C697 C695 1.419 . S
C697 C698 1.362 . S
C698 H690 0.930 . S
C698 C697 1.362 . S
C698 C701 1.409 . S
C699 H691 0.930 . S
C699 C700 1.355 . S
C699 C701 1.415 . S
C700 C699 1.355 . S
C700 C702 1.419 . S
C701 C696 1.425 . S
C701 C698 1.409 . S
C701 C699 1.415 . S
C702 H692 0.930 . S
C702 C700 1.419 . S
C702 C703 1.362 . S
C703 H693 0.930 . S
C703 C696 1.409 . S
C703 C702 1.362 . S
H704 C710 0.930 . S
H705 C713 0.930 . S
H706 C714 0.930 . S
H707 C715 0.930 . S
H708 C718 0.930 . S
H709 C719 0.930 . S
C710 H704 0.930 . S
C710 C711 1.355 . S
C710 C712 1.415 . S
C711 C710 1.355 . S
C711 C713 1.419 . S
C712 C710 1.415 . S
C712 C717 1.425 . S
C712 C719 1.409 . S
C713 H705 0.930 . S
C713 C711 1.419 . S
C713 C714 1.362 . S
C714 H706 0.930 . S
C714 C713 1.362 . S
C714 C717 1.409 . S
C715 H707 0.930 . S
C715 C716 1.355 . S
C715 C717 1.415 . S
C716 C715 1.355 . S
C716 C718 1.419 . S
C717 C712 1.425 . S
C717 C714 1.409 . S
C717 C715 1.415 . S
C718 H708 0.930 . S
C718 C716 1.419 . S
C718 C719 1.362 . S
C719 H709 0.930 . S
C719 C712 1.409 . S
C719 C718 1.362 . S
H720 C726 0.930 . S
H721 C729 0.930 . S
H722 C730 0.930 . S
H723 C731 0.930 . S
H724 C734 0.930 . S
H725 C735 0.930 . S
C726 H720 0.930 . S
C726 C727 1.355 . S
C726 C728 1.415 . S
C727 C726 1.355 . S
C727 C729 1.419 . S
C728 C726 1.415 . S
C728 C733 1.425 1_554 S
C728 C735 1.409 1_554 S
C729 H721 0.930 . S
C729 C727 1.419 . S
C729 C730 1.362 . S
C730 H722 0.930 . S
C730 C729 1.362 . S
C730 C733 1.409 1_554 S
C731 H723 0.930 . S
C731 C732 1.355 . S
C731 C733 1.415 . S
C732 C731 1.355 . S
C732 C734 1.419 . S
C733 C728 1.425 1_556 S
C733 C730 1.409 1_556 S
C733 C731 1.415 . S
C734 H724 0.930 . S
C734 C732 1.419 . S
C734 C735 1.362 . S
C735 H725 0.930 . S
C735 C728 1.409 1_556 S
C735 C734 1.362 . S
H736 C742 0.930 . S
H737 C745 0.930 . S
H738 C746 0.930 . S
H739 C747 0.930 . S
H740 C750 0.930 . S
H741 C751 0.930 . S
C742 H736 0.930 . S
C742 C743 1.355 . S
C742 C744 1.415 . S
C743 C742 1.355 . S
C743 C745 1.419 . S
C744 C742 1.415 . S
C744 C749 1.425 1_556 S
C744 C751 1.409 1_556 S
C745 H737 0.930 . S
C745 C743 1.419 . S
C745 C746 1.362 . S
C746 H738 0.930 . S
C746 C745 1.362 . S
C746 C749 1.409 1_556 S
C747 H739 0.930 . S
C747 C748 1.355 . S
C747 C749 1.415 . S
C748 C747 1.355 . S
C748 C750 1.419 . S
C749 C744 1.425 1_554 S
C749 C746 1.409 1_554 S
C749 C747 1.415 . S
C750 H740 0.930 . S
C750 C748 1.419 . S
C750 C751 1.362 . S
C751 H741 0.930 . S
C751 C744 1.409 1_554 S
C751 C750 1.362 . S
H752 C758 0.930 . S
H753 C761 0.930 . S
H754 C762 0.930 . S
H755 C763 0.930 . S
H756 C766 0.930 . S
H757 C767 0.930 . S
C758 H752 0.930 . S
C758 C759 1.355 . S
C758 C760 1.415 . S
C759 C758 1.355 . S
C759 C761 1.419 . S
C760 C758 1.415 . S
C760 C765 1.425 1_556 S
C760 C767 1.409 1_556 S
C761 H753 0.930 . S
C761 C759 1.419 . S
C761 C762 1.362 . S
C762 H754 0.930 . S
C762 C761 1.362 . S
C762 C765 1.409 1_556 S
C763 H755 0.930 . S
C763 C764 1.355 . S
C763 C765 1.415 . S
C764 C763 1.355 . S
C764 C766 1.419 . S
C765 C760 1.425 1_554 S
C765 C762 1.409 1_554 S
C765 C763 1.415 . S
C766 H756 0.930 . S
C766 C764 1.419 . S
C766 C767 1.362 . S
C767 H757 0.930 . S
C767 C760 1.409 1_554 S
C767 C766 1.362 . S
H768 C774 0.930 . S
H769 C777 0.930 . S
H770 C778 0.930 . S
H771 C779 0.930 . S
H772 C782 0.930 . S
H773 C783 0.930 . S
C774 H768 0.930 . S
C774 C775 1.355 . S
C774 C776 1.415 . S
C775 C774 1.355 . S
C775 C777 1.419 . S
C776 C774 1.415 . S
C776 C781 1.425 1_554 S
C776 C783 1.409 1_554 S
C777 H769 0.930 . S
C777 C775 1.419 . S
C777 C778 1.362 . S
C778 H770 0.930 . S
C778 C777 1.362 . S
C778 C781 1.409 1_554 S
C779 H771 0.930 . S
C779 C780 1.355 . S
C779 C781 1.415 . S
C780 C779 1.355 . S
C780 C782 1.419 . S
C781 C776 1.425 1_556 S
C781 C778 1.409 1_556 S
C781 C779 1.415 . S
C782 H772 0.930 . S
C782 C780 1.419 . S
C782 C783 1.362 . S
C783 H773 0.930 . S
C783 C776 1.409 1_556 S
C783 C782 1.362 . S
H784 C790 0.930 . S
H785 C793 0.930 . S
H786 C794 0.930 . S
H787 C795 0.930 . S
H788 C798 0.930 . S
H789 C799 0.930 . S
C790 H784 0.930 . S
C790 C791 1.355 . S
C790 C792 1.415 . S
C791 C790 1.355 . S
C791 C793 1.419 . S
C792 C790 1.415 . S
C792 C797 1.425 1_554 S
C792 C799 1.409 1_554 S
C793 H785 0.930 . S
C793 C791 1.419 . S
C793 C794 1.362 . S
C794 H786 0.930 . S
C794 C793 1.362 . S
C794 C797 1.409 1_554 S
C795 H787 0.930 . S
C795 C796 1.355 . S
C795 C797 1.415 . S
C796 C795 1.355 . S
C796 C798 1.419 . S
C797 C792 1.425 1_556 S
C797 C794 1.409 1_556 S
C797 C795 1.415 . S
C798 H788 0.930 . S
C798 C796 1.419 . S
C798 C799 1.362 . S
C799 H789 0.930 . S
C799 C792 1.409 1_556 S
C799 C798 1.362 . S
H800 C806 0.930 . S
H801 C809 0.930 . S
H802 C810 0.930 . S
H803 C811 0.930 . S
H804 C814 0.930 . S
H805 C815 0.930 . S
C806 H800 0.930 . S
C806 C807 1.355 . S
C806 C808 1.415 . S
C807 C806 1.355 . S
C807 C809 1.419 . S
C808 C806 1.415 . S
C808 C813 1.425 1_556 S
C808 C815 1.409 1_556 S
C809 H801 0.930 . S
C809 C807 1.419 . S
C809 C810 1.362 . S
C810 H802 0.930 . S
C810 C809 1.362 . S
C810 C813 1.409 1_556 S
C811 H803 0.930 . S
C811 C812 1.355 . S
C811 C813 1.415 . S
C812 C811 1.355 . S
C812 C814 1.419 . S
C813 C808 1.425 1_554 S
C813 C810 1.409 1_554 S
C813 C811 1.415 . S
C814 H804 0.930 . S
C814 C812 1.419 . S
C814 C815 1.362 . S
C815 H805 0.930 . S
C815 C808 1.409 1_554 S
C815 C814 1.362 . S
H816 C822 0.930 . S
H817 C825 0.930 . S
H818 C826 0.930 . S
H819 C827 0.930 . S
H820 C830 0.930 . S
H821 C831 0.930 . S
C822 H816 0.930 . S
C822 C823 1.355 . S
C822 C824 1.415 . S
C823 C822 1.355 . S
C823 C825 1.419 . S
C824 C822 1.415 . S
C824 C829 1.425 . S
C824 C831 1.409 . S
C825 H817 0.930 . S
C825 C823 1.419 . S
C825 C826 1.362 . S
C826 H818 0.930 . S
C826 C825 1.362 . S
C826 C829 1.409 . S
C827 H819 0.930 . S
C827 C828 1.355 . S
C827 C829 1.415 . S
C828 C827 1.355 . S
C828 C830 1.419 . S
C829 C824 1.425 . S
C829 C826 1.409 . S
C829 C827 1.415 . S
C830 H820 0.930 . S
C830 C828 1.419 . S
C830 C831 1.362 . S
C831 H821 0.930 . S
C831 C824 1.409 . S
C831 C830 1.362 . S
H832 C838 0.930 . S
H833 C841 0.930 . S
H834 C842 0.930 . S
H835 C843 0.930 . S
H836 C846 0.930 . S
H837 C847 0.930 . S
C838 H832 0.930 . S
C838 C839 1.355 . S
C838 C840 1.415 . S
C839 C838 1.355 . S
C839 C841 1.419 . S
C840 C838 1.415 . S
C840 C845 1.425 . S
C840 C847 1.409 . S
C841 H833 0.930 . S
C841 C839 1.419 . S
C841 C842 1.362 . S
C842 H834 0.930 . S
C842 C841 1.362 . S
C842 C845 1.409 . S
C843 H835 0.930 . S
C843 C844 1.355 . S
C843 C845 1.415 . S
C844 C843 1.355 . S
C844 C846 1.419 . S
C845 C840 1.425 . S
C845 C842 1.409 . S
C845 C843 1.415 . S
C846 H836 0.930 . S
C846 C844 1.419 . S
C846 C847 1.362 . S
C847 H837 0.930 . S
C847 C840 1.409 . S
C847 C846 1.362 . S
H848 C854 0.930 . S
H849 C857 0.930 . S
H850 C858 0.930 . S
H851 C859 0.930 . S
H852 C862 0.930 . S
H853 C863 0.930 . S
C854 H848 0.930 . S
C854 C855 1.355 . S
C854 C856 1.415 . S
C855 C854 1.355 . S
C855 C857 1.419 . S
C856 C854 1.415 . S
C856 C861 1.425 . S
C856 C863 1.409 . S
C857 H849 0.930 . S
C857 C855 1.419 . S
C857 C858 1.362 . S
C858 H850 0.930 . S
C858 C857 1.362 . S
C858 C861 1.409 . S
C859 H851 0.930 . S
C859 C860 1.355 . S
C859 C861 1.415 . S
C860 C859 1.355 . S
C860 C862 1.419 . S
C861 C856 1.425 . S
C861 C858 1.409 . S
C861 C859 1.415 . S
C862 H852 0.930 . S
C862 C860 1.419 . S
C862 C863 1.362 . S
C863 H853 0.930 . S
C863 C856 1.409 . S
C863 C862 1.362 . S
H864 C870 0.930 . S
H865 C873 0.930 . S
H866 C874 0.930 . S
H867 C875 0.930 . S
H868 C878 0.930 . S
H869 C879 0.930 . S
C870 H864 0.930 . S
C870 C871 1.355 . S
C870 C872 1.415 . S
C871 C870 1.355 . S
C871 C873 1.419 . S
C872 C870 1.415 . S
C872 C877 1.425 . S
C872 C879 1.409 . S
C873 H865 0.930 . S
C873 C871 1.419 . S
C873 C874 1.362 . S
C874 H866 0.930 . S
C874 C873 1.362 . S
C874 C877 1.409 . S
C875 H867 0.930 . S
C875 C876 1.355 . S
C875 C877 1.415 . S
C876 C875 1.355 . S
C876 C878 1.419 . S
C877 C872 1.425 . S
C877 C874 1.409 . S
C877 C875 1.415 . S
C878 H868 0.930 . S
C878 C876 1.419 . S
C878 C879 1.362 . S
C879 H869 0.930 . S
C879 C872 1.409 . S
C879 C878 1.362 . S
H880 C886 0.930 . S
H881 C889 0.930 . S
H882 C890 0.930 . S
H883 C891 0.930 . S
H884 C894 0.930 . S
H885 C895 0.930 . S
C886 H880 0.930 . S
C886 C887 1.355 . S
C886 C888 1.415 . S
C887 C886 1.355 . S
C887 C889 1.419 . S
C888 C886 1.415 . S
C888 C893 1.425 . S
C888 C895 1.409 . S
C889 H881 0.930 . S
C889 C887 1.419 . S
C889 C890 1.362 . S
C890 H882 0.930 . S
C890 C889 1.362 . S
C890 C893 1.409 . S
C891 H883 0.930 . S
C891 C892 1.355 . S
C891 C893 1.415 . S
C892 C891 1.355 . S
C892 C894 1.419 . S
C893 C888 1.425 . S
C893 C890 1.409 . S
C893 C891 1.415 . S
C894 H884 0.930 . S
C894 C892 1.419 . S
C894 C895 1.362 . S
C895 H885 0.930 . S
C895 C888 1.409 . S
C895 C894 1.362 . S
H896 C902 0.930 . S
H897 C905 0.930 . S
H898 C906 0.930 . S
H899 C907 0.930 . S
H900 C910 0.930 . S
H901 C911 0.930 . S
C902 H896 0.930 . S
C902 C903 1.355 . S
C902 C904 1.415 . S
C903 C902 1.355 . S
C903 C905 1.419 . S
C904 C902 1.415 . S
C904 C909 1.425 . S
C904 C911 1.409 . S
C905 H897 0.930 . S
C905 C903 1.419 . S
C905 C906 1.362 . S
C906 H898 0.930 . S
C906 C905 1.362 . S
C906 C909 1.409 . S
C907 H899 0.930 . S
C907 C908 1.355 . S
C907 C909 1.415 . S
C908 C907 1.355 . S
C908 C910 1.419 . S
C909 C904 1.425 . S
C909 C906 1.409 . S
C909 C907 1.415 . S
C910 H900 0.930 . S
C910 C908 1.419 . S
C910 C911 1.362 . S
C911 H901 0.930 . S
C911 C904 1.409 . S
C911 C910 1.362 . S
H912 C918 0.930 . S
H913 C921 0.930 . S
H914 C922 0.930 . S
H915 C923 0.930 . S
H916 C926 0.930 . S
H917 C927 0.930 . S
C918 H912 0.930 . S
C918 C919 1.355 . S
C918 C920 1.415 . S
C919 C918 1.355 . S
C919 C921 1.419 . S
C920 C918 1.415 . S
C920 C925 1.425 . S
C920 C927 1.409 . S
C921 H913 0.930 . S
C921 C919 1.419 . S
C921 C922 1.362 . S
C922 H914 0.930 . S
C922 C921 1.362 . S
C922 C925 1.409 . S
C923 H915 0.930 . S
C923 C924 1.355 . S
C923 C925 1.415 . S
C924 C923 1.355 . S
C924 C926 1.419 . S
C925 C920 1.425 . S
C925 C922 1.409 . S
C925 C923 1.415 . S
C926 H916 0.930 . S
C926 C924 1.419 . S
C926 C927 1.362 . S
C927 H917 0.930 . S
C927 C920 1.409 . S
C927 C926 1.362 . S
H928 C934 0.930 . S
H929 C937 0.930 . S
H930 C938 0.930 . S
H931 C939 0.930 . S
H932 C942 0.930 . S
H933 C943 0.930 . S
C934 H928 0.930 . S
C934 C935 1.355 . S
C934 C936 1.415 . S
C935 C934 1.355 . S
C935 C937 1.419 . S
C936 C934 1.415 . S
C936 C941 1.425 . S
C936 C943 1.409 . S
C937 H929 0.930 . S
C937 C935 1.419 . S
C937 C938 1.362 . S
C938 H930 0.930 . S
C938 C937 1.362 . S
C938 C941 1.409 . S
C939 H931 0.930 . S
C939 C940 1.355 . S
C939 C941 1.415 . S
C940 C939 1.355 . S
C940 C942 1.419 . S
C941 C936 1.425 . S
C941 C938 1.409 . S
C941 C939 1.415 . S
C942 H932 0.930 . S
C942 C940 1.419 . S
C942 C943 1.362 . S
C943 H933 0.930 . S
C943 C936 1.409 . S
C943 C942 1.362 . S
H944 C950 0.930 . S
H945 C953 0.930 . S
H946 C954 0.930 . S
H947 C955 0.930 . S
H948 C958 0.930 . S
H949 C959 0.930 . S
C950 H944 0.930 . S
C950 C951 1.355 . S
C950 C952 1.415 . S
C951 C950 1.355 . S
C951 C953 1.419 . S
C952 C950 1.415 . S
C952 C957 1.425 . S
C952 C959 1.409 . S
C953 H945 0.930 . S
C953 C951 1.419 . S
C953 C954 1.362 . S
C954 H946 0.930 . S
C954 C953 1.362 . S
C954 C957 1.409 . S
C955 H947 0.930 . S
C955 C956 1.355 . S
C955 C957 1.415 . S
C956 C955 1.355 . S
C956 C958 1.419 . S
C957 C952 1.425 . S
C957 C954 1.409 . S
C957 C955 1.415 . S
C958 H948 0.930 . S
C958 C956 1.419 . S
C958 C959 1.362 . S
C959 H949 0.930 . S
C959 C952 1.409 . S
C959 C958 1.362 . S
H960 C966 0.930 . S
H961 C969 0.930 . S
H962 C970 0.930 . S
H963 C971 0.930 . S
H964 C974 0.930 . S
H965 C975 0.930 . S
C966 H960 0.930 . S
C966 C967 1.355 . S
C966 C968 1.415 . S
C967 C966 1.355 . S
C967 C969 1.419 . S
C968 C966 1.415 . S
C968 C973 1.425 . S
C968 C975 1.409 . S
C969 H961 0.930 . S
C969 C967 1.419 . S
C969 C970 1.362 . S
C970 H962 0.930 . S
C970 C969 1.362 . S
C970 C973 1.409 . S
C971 H963 0.930 . S
C971 C972 1.355 . S
C971 C973 1.415 . S
C972 C971 1.355 . S
C972 C974 1.419 . S
C973 C968 1.425 . S
C973 C970 1.409 . S
C973 C971 1.415 . S
C974 H964 0.930 . S
C974 C972 1.419 . S
C974 C975 1.362 . S
C975 H965 0.930 . S
C975 C968 1.409 . S
C975 C974 1.362 . S
H976 C982 0.930 . S
H977 C985 0.930 . S
H978 C986 0.930 . S
H979 C987 0.930 . S
H980 C990 0.930 . S
H981 C991 0.930 . S
C982 H976 0.930 . S
C982 C983 1.355 . S
C982 C984 1.415 . S
C983 C982 1.355 . S
C983 C985 1.419 . S
C984 C982 1.415 . S
C984 C989 1.425 . S
C984 C991 1.409 . S
C985 H977 0.930 . S
C985 C983 1.419 . S
C985 C986 1.362 . S
C986 H978 0.930 . S
C986 C985 1.362 . S
C986 C989 1.409 . S
C987 H979 0.930 . S
C987 C988 1.355 . S
C987 C989 1.415 . S
C988 C987 1.355 . S
C988 C990 1.419 . S
C989 C984 1.425 . S
C989 C986 1.409 . S
C989 C987 1.415 . S
C990 H980 0.930 . S
C990 C988 1.419 . S
C990 C991 1.362 . S
C991 H981 0.930 . S
C991 C984 1.409 . S
C991 C990 1.362 . S
H992 C998 0.930 . S
H993 C1001 0.930 . S
H994 C1002 0.930 . S
H995 C1003 0.930 . S
H996 C1006 0.930 . S
H997 C1007 0.930 . S
C998 H992 0.930 . S
C998 C999 1.355 . S
C998 C1000 1.415 . S
C999 C998 1.355 . S
C999 C1001 1.419 . S
C1000 C998 1.415 . S
C1000 C1005 1.425 . S
C1000 C1007 1.409 . S
C1001 H993 0.930 . S
C1001 C999 1.419 . S
C1001 C1002 1.362 . S
C1002 H994 0.930 . S
C1002 C1001 1.362 . S
C1002 C1005 1.409 . S
C1003 H995 0.930 . S
C1003 C1004 1.355 . S
C1003 C1005 1.415 . S
C1004 C1003 1.355 . S
C1004 C1006 1.419 . S
C1005 C1000 1.425 . S
C1005 C1002 1.409 . S
C1005 C1003 1.415 . S
C1006 H996 0.930 . S
C1006 C1004 1.419 . S
C1006 C1007 1.362 . S
C1007 H997 0.930 . S
C1007 C1000 1.409 . S
C1007 C1006 1.362 . S
H1008 C1014 0.930 . S
H1009 C1017 0.930 . S
H1010 C1018 0.930 . S
H1011 C1019 0.930 . S
H1012 C1022 0.930 . S
H1013 C1023 0.930 . S
C1014 H1008 0.930 . S
C1014 C1015 1.355 . S
C1014 C1016 1.415 . S
C1015 C1014 1.355 . S
C1015 C1017 1.419 . S
C1016 C1014 1.415 . S
C1016 C1021 1.425 . S
C1016 C1023 1.409 . S
C1017 H1009 0.930 . S
C1017 C1015 1.419 . S
C1017 C1018 1.362 . S
C1018 H1010 0.930 . S
C1018 C1017 1.362 . S
C1018 C1021 1.409 . S
C1019 H1011 0.930 . S
C1019 C1020 1.355 . S
C1019 C1021 1.415 . S
C1020 C1019 1.355 . S
C1020 C1022 1.419 . S
C1021 C1016 1.425 . S
C1021 C1018 1.409 . S
C1021 C1019 1.415 . S
C1022 H1012 0.930 . S
C1022 C1020 1.419 . S
C1022 C1023 1.362 . S
C1023 H1013 0.930 . S
C1023 C1016 1.409 . S
C1023 C1022 1.362 . S
H1024 C1030 0.930 . S
H1025 C1033 0.930 . S
H1026 C1034 0.930 . S
H1027 C1035 0.930 . S
H1028 C1038 0.930 . S
H1029 C1039 0.930 . S
C1030 H1024 0.930 . S
C1030 C1031 1.355 . S
C1030 C1032 1.415 . S
C1031 C1030 1.355 . S
C1031 C1033 1.419 . S
C1032 C1030 1.415 . S
C1032 C1037 1.425 . S
C1032 C1039 1.409 . S
C1033 H1025 0.930 . S
C1033 C1031 1.419 . S
C1033 C1034 1.362 . S
C1034 H1026 0.930 . S
C1034 C1033 1.362 . S
C1034 C1037 1.409 . S
C1035 H1027 0.930 . S
C1035 C1036 1.355 . S
C1035 C1037 1.415 . S
C1036 C1035 1.355 . S
C1036 C1038 1.419 . S
C1037 C1032 1.425 . S
C1037 C1034 1.409 . S
C1037 C1035 1.415 . S
C1038 H1028 0.930 . S
C1038 C1036 1.419 . S
C1038 C1039 1.362 . S
C1039 H1029 0.930 . S
C1039 C1032 1.409 . S
C1039 C1038 1.362 . S
H1040 C1046 0.930 . S
H1041 C1049 0.930 . S
H1042 C1050 0.930 . S
H1043 C1051 0.930 . S
H1044 C1054 0.930 . S
H1045 C1055 0.930 . S
C1046 H1040 0.930 . S
C1046 C1047 1.355 . S
C1046 C1048 1.415 . S
C1047 C1046 1.355 . S
C1047 C1049 1.419 . S
C1048 C1046 1.415 . S
C1048 C1053 1.425 . S
C1048 C1055 1.409 . S
C1049 H1041 0.930 . S
C1049 C1047 1.419 . S
C1049 C1050 1.362 . S
C1050 H1042 0.930 . S
C1050 C1049 1.362 . S
C1050 C1053 1.409 . S
C1051 H1043 0.930 . S
C1051 C1052 1.355 . S
C1051 C1053 1.415 . S
C1052 C1051 1.355 . S
C1052 C1054 1.419 . S
C1053 C1048 1.425 . S
C1053 C1050 1.409 . S
C1053 C1051 1.415 . S
C1054 H1044 0.930 . S
C1054 C1052 1.419 . S
C1054 C1055 1.362 . S
C1055 H1045 0.930 . S
C1055 C1048 1.409 . S
C1055 C1054 1.362 . S
H1056 C1062 0.930 . S
H1057 C1065 0.930 . S
H1058 C1066 0.930 . S
H1059 C1067 0.930 . S
H1060 C1070 0.930 . S
H1061 C1071 0.930 . S
C1062 H1056 0.930 . S
C1062 C1063 1.355 . S
C1062 C1064 1.415 . S
C1063 C1062 1.355 . S
C1063 C1065 1.419 . S
C1064 C1062 1.415 . S
C1064 C1069 1.425 . S
C1064 C1071 1.409 . S
C1065 H1057 0.930 . S
C1065 C1063 1.419 . S
C1065 C1066 1.362 . S
C1066 H1058 0.930 . S
C1066 C1065 1.362 . S
C1066 C1069 1.409 . S
C1067 H1059 0.930 . S
C1067 C1068 1.355 . S
C1067 C1069 1.415 . S
C1068 C1067 1.355 . S
C1068 C1070 1.419 . S
C1069 C1064 1.425 . S
C1069 C1066 1.409 . S
C1069 C1067 1.415 . S
C1070 H1060 0.930 . S
C1070 C1068 1.419 . S
C1070 C1071 1.362 . S
C1071 H1061 0.930 . S
C1071 C1064 1.409 . S
C1071 C1070 1.362 . S
H1072 C1078 0.930 . S
H1073 C1081 0.930 . S
H1074 C1082 0.930 . S
H1075 C1083 0.930 . S
H1076 C1086 0.930 . S
H1077 C1087 0.930 . S
C1078 H1072 0.930 . S
C1078 C1079 1.355 . S
C1078 C1080 1.415 . S
C1079 C1078 1.355 . S
C1079 C1081 1.419 . S
C1080 C1078 1.415 . S
C1080 C1085 1.425 . S
C1080 C1087 1.409 . S
C1081 H1073 0.930 . S
C1081 C1079 1.419 . S
C1081 C1082 1.362 . S
C1082 H1074 0.930 . S
C1082 C1081 1.362 . S
C1082 C1085 1.409 . S
C1083 H1075 0.930 . S
C1083 C1084 1.355 . S
C1083 C1085 1.415 . S
C1084 C1083 1.355 . S
C1084 C1086 1.419 . S
C1085 C1080 1.425 . S
C1085 C1082 1.409 . S
C1085 C1083 1.415 . S
C1086 H1076 0.930 . S
C1086 C1084 1.419 . S
C1086 C1087 1.362 . S
C1087 H1077 0.930 . S
C1087 C1080 1.409 . S
C1087 C1086 1.362 . S
H1088 C1094 0.930 . S
H1089 C1097 0.930 . S
H1090 C1098 0.930 . S
H1091 C1099 0.930 . S
H1092 C1102 0.930 . S
H1093 C1103 0.930 . S
C1094 H1088 0.930 . S
C1094 C1095 1.355 . S
C1094 C1096 1.415 . S
C1095 C1094 1.355 . S
C1095 C1097 1.419 . S
C1096 C1094 1.415 . S
C1096 C1101 1.425 . S
C1096 C1103 1.409 . S
C1097 H1089 0.930 . S
C1097 C1095 1.419 . S
C1097 C1098 1.362 . S
C1098 H1090 0.930 . S
C1098 C1097 1.362 . S
C1098 C1101 1.409 . S
C1099 H1091 0.930 . S
C1099 C1100 1.355 . S
C1099 C1101 1.415 . S
C1100 C1099 1.355 . S
C1100 C1102 1.419 . S
C1101 C1096 1.425 . S
C1101 C1098 1.409 . S
C1101 C1099 1.415 . S
C1102 H1092 0.930 . S
C1102 C1100 1.419 . S
C1102 C1103 1.362 . S
C1103 H1093 0.930 . S
C1103 C1096 1.409 . S
C1103 C1102 1.362 . S
C343 C9 1.775 . S
C348 C107 1.795 . S
C359 C121 1.794 . S
C364 C23 1.777 . S
C375 C37 1.797 . S
C380 C135 1.771 . S
C391 C51 1.794 . S
C396 C149 1.772 . S
C407 C163 1.789 . S
C412 C65 1.775 . S
C423 C79 1.771 . S
C428 C93 1.796 . S
C439 C177 1.796 . S
C444 C275 1.772 . S
C455 C191 1.771 . S
C460 C289 1.796 . S
C471 C303 1.779 . S
C476 C205 1.785 . S
C487 C219 1.778 . S
C492 C317 1.786 . S
C503 C233 1.792 . S
C508 C331 1.780 . S
C519 C261 1.788 . S
C524 C247 1.776 . S
C535 C6 1.511 . S
C540 C118 1.490 . S
C551 C132 1.475 . S
C556 C20 1.456 . S
C567 C146 1.466 . S
C572 C34 1.495 . S
C583 C48 1.490 . S
C588 C160 1.511 . S
C599 C62 1.457 . S
C604 C90 1.462 . S
C615 C76 1.508 . S
C620 C104 1.506 . S
C631 C286 1.470 . S
C636 C174 1.455 . S
C647 C188 1.511 . S
C652 C300 1.491 . S
C663 C314 1.507 . S
C668 C202 1.482 . S
C679 C328 1.475 . S
C684 C216 1.455 . S
C695 C258 1.507 . S
C700 C230 1.508 . S
C711 C244 1.468 . S
C716 C272 1.455 . S
C727 C7 1.569 . S
C732 C217 1.547 . S
C743 C231 1.533 . S
C748 C21 1.583 . S
C759 C245 1.591 . S
C764 C35 1.524 . S
C775 C49 1.534 . S
C780 C175 1.582 . S
C791 C63 1.587 . S
C796 C189 1.528 . S
C807 C203 1.579 . S
C812 C77 1.537 . S
C823 C301 1.564 . S
C828 C91 1.552 . S
C839 C315 1.524 . S
C844 C105 1.591 . S
C855 C329 1.590 . S
C860 C119 1.525 . S
C871 C259 1.524 . S
C876 C133 1.591 . S
C887 C147 1.575 . S
C892 C273 1.541 . S
C903 C161 1.564 . S
C908 C287 1.552 . S
C919 C8 1.402 . S
C924 C148 1.406 . S
C935 C162 1.404 . S
C940 C22 1.407 . S
C951 C92 1.403 . S
C956 C36 1.407 . S
C967 C50 1.401 . S
C972 C106 1.401 . S
C983 C64 1.401 . S
C988 C120 1.403 . S
C999 C78 1.403 . S
C1004 C134 1.400 . S
C1015 C176 1.404 . S
C1020 C316 1.400 . S
C1031 C190 1.405 . S
C1036 C330 1.401 . S
C1047 C204 1.404 . S
C1052 C260 1.400 . S
C1063 C274 1.404 . S
C1068 C218 1.407 . S
C1079 C232 1.407 . S
C1084 C288 1.406 . S
C1095 C246 1.406 . S
C1100 C302 1.406 . S
