# Generated by pormake.
# Topology uoe, (4)-cn, num edge types: 1
# Building blocks:
#     Node 0, Type 0, BuildingBlock: NAWXER_clean_sbu_0, # of connection points: 4
#     Node 1, Type 0, BuildingBlock: NAWXER_clean_sbu_0, # of connection points: 4
#     Node 2, Type 0, BuildingBlock: NAWXER_clean_sbu_0, # of connection points: 4
#     Node 3, Type 0, BuildingBlock: NAWXER_clean_sbu_0, # of connection points: 4
#     Node 4, Type 0, BuildingBlock: NAWXER_clean_sbu_0, # of connection points: 4
#     Node 5, Type 0, BuildingBlock: NAWXER_clean_sbu_0, # of connection points: 4
#     Node 6, Type 0, BuildingBlock: NAWXER_clean_sbu_0, # of connection points: 4
#     Node 7, Type 0, BuildingBlock: NAWXER_clean_sbu_0, # of connection points: 4
#     Node 8, Type 0, BuildingBlock: NAWXER_clean_sbu_0, # of connection points: 4
#     Node 9, Type 0, BuildingBlock: NAWXER_clean_sbu_0, # of connection points: 4
#     Node 10, Type 0, BuildingBlock: NAWXER_clean_sbu_0, # of connection points: 4
#     Node 11, Type 0, BuildingBlock: NAWXER_clean_sbu_0, # of connection points: 4
#     Node 12, Type 0, BuildingBlock: NAWXER_clean_sbu_0, # of connection points: 4
#     Node 13, Type 0, BuildingBlock: NAWXER_clean_sbu_0, # of connection points: 4
#     Node 14, Type 0, BuildingBlock: NAWXER_clean_sbu_0, # of connection points: 4
#     Node 15, Type 0, BuildingBlock: NAWXER_clean_sbu_0, # of connection points: 4
#     Node 16, Type 0, BuildingBlock: NAWXER_clean_sbu_0, # of connection points: 4
#     Node 17, Type 0, BuildingBlock: NAWXER_clean_sbu_0, # of connection points: 4
#     Node 18, Type 0, BuildingBlock: NAWXER_clean_sbu_0, # of connection points: 4
#     Node 19, Type 0, BuildingBlock: NAWXER_clean_sbu_0, # of connection points: 4
#     Node 20, Type 0, BuildingBlock: NAWXER_clean_sbu_0, # of connection points: 4
#     Node 21, Type 0, BuildingBlock: NAWXER_clean_sbu_0, # of connection points: 4
#     Node 22, Type 0, BuildingBlock: NAWXER_clean_sbu_0, # of connection points: 4
#     Node 23, Type 0, BuildingBlock: NAWXER_clean_sbu_0, # of connection points: 4
#     Node 24, Type 0, BuildingBlock: NAWXER_clean_sbu_0, # of connection points: 4
#     Node 25, Type 0, BuildingBlock: NAWXER_clean_sbu_0, # of connection points: 4
#     Node 26, Type 0, BuildingBlock: NAWXER_clean_sbu_0, # of connection points: 4
#     Node 27, Type 0, BuildingBlock: NAWXER_clean_sbu_0, # of connection points: 4
#     Node 28, Type 0, BuildingBlock: NAWXER_clean_sbu_0, # of connection points: 4
#     Node 29, Type 0, BuildingBlock: NAWXER_clean_sbu_0, # of connection points: 4
#     Node 30, Type 0, BuildingBlock: NAWXER_clean_sbu_0, # of connection points: 4
#     Node 31, Type 0, BuildingBlock: NAWXER_clean_sbu_0, # of connection points: 4
#     Edge 32, Type (0, 0), BuildingBlock: XUDNAN_clean_linker_2, # of connection points: 2
#     Edge 33, Type (0, 0), BuildingBlock: XUDNAN_clean_linker_2, # of connection points: 2
#     Edge 34, Type (0, 0), BuildingBlock: XUDNAN_clean_linker_2, # of connection points: 2
#     Edge 35, Type (0, 0), BuildingBlock: XUDNAN_clean_linker_2, # of connection points: 2
#     Edge 36, Type (0, 0), BuildingBlock: XUDNAN_clean_linker_2, # of connection points: 2
#     Edge 37, Type (0, 0), BuildingBlock: XUDNAN_clean_linker_2, # of connection points: 2
#     Edge 38, Type (0, 0), BuildingBlock: XUDNAN_clean_linker_2, # of connection points: 2
#     Edge 39, Type (0, 0), BuildingBlock: XUDNAN_clean_linker_2, # of connection points: 2
#     Edge 40, Type (0, 0), BuildingBlock: XUDNAN_clean_linker_2, # of connection points: 2
#     Edge 41, Type (0, 0), BuildingBlock: XUDNAN_clean_linker_2, # of connection points: 2
#     Edge 42, Type (0, 0), BuildingBlock: XUDNAN_clean_linker_2, # of connection points: 2
#     Edge 43, Type (0, 0), BuildingBlock: XUDNAN_clean_linker_2, # of connection points: 2
#     Edge 44, Type (0, 0), BuildingBlock: XUDNAN_clean_linker_2, # of connection points: 2
#     Edge 45, Type (0, 0), BuildingBlock: XUDNAN_clean_linker_2, # of connection points: 2
#     Edge 46, Type (0, 0), BuildingBlock: XUDNAN_clean_linker_2, # of connection points: 2
#     Edge 47, Type (0, 0), BuildingBlock: XUDNAN_clean_linker_2, # of connection points: 2
#     Edge 48, Type (0, 0), BuildingBlock: XUDNAN_clean_linker_2, # of connection points: 2
#     Edge 49, Type (0, 0), BuildingBlock: XUDNAN_clean_linker_2, # of connection points: 2
#     Edge 50, Type (0, 0), BuildingBlock: XUDNAN_clean_linker_2, # of connection points: 2
#     Edge 51, Type (0, 0), BuildingBlock: XUDNAN_clean_linker_2, # of connection points: 2
#     Edge 52, Type (0, 0), BuildingBlock: XUDNAN_clean_linker_2, # of connection points: 2
#     Edge 53, Type (0, 0), BuildingBlock: XUDNAN_clean_linker_2, # of connection points: 2
#     Edge 54, Type (0, 0), BuildingBlock: XUDNAN_clean_linker_2, # of connection points: 2
#     Edge 55, Type (0, 0), BuildingBlock: XUDNAN_clean_linker_2, # of connection points: 2
#     Edge 56, Type (0, 0), BuildingBlock: XUDNAN_clean_linker_2, # of connection points: 2
#     Edge 57, Type (0, 0), BuildingBlock: XUDNAN_clean_linker_2, # of connection points: 2
#     Edge 58, Type (0, 0), BuildingBlock: XUDNAN_clean_linker_2, # of connection points: 2
#     Edge 59, Type (0, 0), BuildingBlock: XUDNAN_clean_linker_2, # of connection points: 2
#     Edge 60, Type (0, 0), BuildingBlock: XUDNAN_clean_linker_2, # of connection points: 2
#     Edge 61, Type (0, 0), BuildingBlock: XUDNAN_clean_linker_2, # of connection points: 2
#     Edge 62, Type (0, 0), BuildingBlock: XUDNAN_clean_linker_2, # of connection points: 2
#     Edge 63, Type (0, 0), BuildingBlock: XUDNAN_clean_linker_2, # of connection points: 2
#     Edge 64, Type (0, 0), BuildingBlock: XUDNAN_clean_linker_2, # of connection points: 2
#     Edge 65, Type (0, 0), BuildingBlock: XUDNAN_clean_linker_2, # of connection points: 2
#     Edge 66, Type (0, 0), BuildingBlock: XUDNAN_clean_linker_2, # of connection points: 2
#     Edge 67, Type (0, 0), BuildingBlock: XUDNAN_clean_linker_2, # of connection points: 2
#     Edge 68, Type (0, 0), BuildingBlock: XUDNAN_clean_linker_2, # of connection points: 2
#     Edge 69, Type (0, 0), BuildingBlock: XUDNAN_clean_linker_2, # of connection points: 2
#     Edge 70, Type (0, 0), BuildingBlock: XUDNAN_clean_linker_2, # of connection points: 2
#     Edge 71, Type (0, 0), BuildingBlock: XUDNAN_clean_linker_2, # of connection points: 2
#     Edge 72, Type (0, 0), BuildingBlock: XUDNAN_clean_linker_2, # of connection points: 2
#     Edge 73, Type (0, 0), BuildingBlock: XUDNAN_clean_linker_2, # of connection points: 2
#     Edge 74, Type (0, 0), BuildingBlock: XUDNAN_clean_linker_2, # of connection points: 2
#     Edge 75, Type (0, 0), BuildingBlock: XUDNAN_clean_linker_2, # of connection points: 2
#     Edge 76, Type (0, 0), BuildingBlock: XUDNAN_clean_linker_2, # of connection points: 2
#     Edge 77, Type (0, 0), BuildingBlock: XUDNAN_clean_linker_2, # of connection points: 2
#     Edge 78, Type (0, 0), BuildingBlock: XUDNAN_clean_linker_2, # of connection points: 2
#     Edge 79, Type (0, 0), BuildingBlock: XUDNAN_clean_linker_2, # of connection points: 2
#     Edge 80, Type (0, 0), BuildingBlock: XUDNAN_clean_linker_2, # of connection points: 2
#     Edge 81, Type (0, 0), BuildingBlock: XUDNAN_clean_linker_2, # of connection points: 2
#     Edge 82, Type (0, 0), BuildingBlock: XUDNAN_clean_linker_2, # of connection points: 2
#     Edge 83, Type (0, 0), BuildingBlock: XUDNAN_clean_linker_2, # of connection points: 2
#     Edge 84, Type (0, 0), BuildingBlock: XUDNAN_clean_linker_2, # of connection points: 2
#     Edge 85, Type (0, 0), BuildingBlock: XUDNAN_clean_linker_2, # of connection points: 2
#     Edge 86, Type (0, 0), BuildingBlock: XUDNAN_clean_linker_2, # of connection points: 2
#     Edge 87, Type (0, 0), BuildingBlock: XUDNAN_clean_linker_2, # of connection points: 2
#     Edge 88, Type (0, 0), BuildingBlock: XUDNAN_clean_linker_2, # of connection points: 2
#     Edge 89, Type (0, 0), BuildingBlock: XUDNAN_clean_linker_2, # of connection points: 2
#     Edge 90, Type (0, 0), BuildingBlock: XUDNAN_clean_linker_2, # of connection points: 2
#     Edge 91, Type (0, 0), BuildingBlock: XUDNAN_clean_linker_2, # of connection points: 2
#     Edge 92, Type (0, 0), BuildingBlock: XUDNAN_clean_linker_2, # of connection points: 2
#     Edge 93, Type (0, 0), BuildingBlock: XUDNAN_clean_linker_2, # of connection points: 2
#     Edge 94, Type (0, 0), BuildingBlock: XUDNAN_clean_linker_2, # of connection points: 2
#     Edge 95, Type (0, 0), BuildingBlock: XUDNAN_clean_linker_2, # of connection points: 2
# Relax obj value: 0.105
# Max RMSD: 0.239
# Mean RMSD: 0.239
data_MOF--net-uoe--node1-NAWXER_clean_sbu_0--edge1-XUDNAN_clean_linker_2
_symmetry_space_group_name_H-M    P1
_symmetry_Int_Tables_number       1
_symmetry_cell_setting            triclinic
loop_
_symmetry_equiv_pos_as_xyz
'x, y, z'
_cell_length_a     73.566916
_cell_length_b     73.596813
_cell_length_c     28.537976
_cell_angle_alpha  89.994297
_cell_angle_beta   89.974142
_cell_angle_gamma 90.067101
loop_
_atom_site_label
_atom_site_type_symbol
_atom_site_fract_x
_atom_site_fract_y
_atom_site_fract_z
_atom_type_partial_charge
C0 C 0.12242 0.45059 0.10296 0.0
C1 C 0.06219 0.47259 0.05977 0.0
O2 O 0.12268 0.4676 0.09257 0.0
Zn3 Zn 0.10344 0.48734 0.06418 0.0
O4 O 0.10826 0.44138 0.09375 0.0
Zn5 Zn 0.09309 0.46121 0.07212 0.0
O6 O 0.10149 0.46735 0.00104 0.0
O7 O 0.112 0.4953 0.00431 0.0
O8 O 0.06745 0.45635 0.06624 0.0
O9 O 0.0741 0.48531 0.0572 0.0
O10 O 0.10425 0.5053 0.11208 0.0
O11 O 0.09288 0.47874 0.134 0.0
C12 C 0.10834 0.48128 0.98045 0.0
C13 C 0.09743 0.49519 0.14362 0.0
C14 C 0.77249 0.82636 0.31443 0.0
C15 C 0.80719 0.88312 0.33654 0.0
O16 O 0.76276 0.84044 0.32243 0.0
Zn17 Zn 0.76589 0.86907 0.33265 0.0
O18 O 0.78959 0.82822 0.30899 0.0
Zn19 Zn 0.79029 0.85474 0.31818 0.0
O20 O 0.78208 0.85609 0.39043 0.0
O21 O 0.75609 0.87115 0.39444 0.0
O22 O 0.81349 0.86789 0.32306 0.0
O23 O 0.78995 0.88522 0.33963 0.0
O24 O 0.75205 0.87944 0.28314 0.0
O25 O 0.77611 0.86481 0.25672 0.0
C26 C 0.76895 0.86267 0.41456 0.0
C27 C 0.76144 0.8738 0.24887 0.0
C28 C 0.417 0.52725 0.6678 0.0
C29 C 0.40309 0.518 0.50365 0.0
O30 O 0.41995 0.54169 0.64376 0.0
Zn31 Zn 0.41776 0.55004 0.57094 0.0
O32 O 0.41151 0.51288 0.64754 0.0
Zn33 Zn 0.40994 0.52326 0.58646 0.0
O34 O 0.43832 0.52663 0.57109 0.0
O35 O 0.4431 0.55568 0.55712 0.0
O36 O 0.40115 0.50759 0.53863 0.0
O37 O 0.40891 0.5343 0.51015 0.0
O38 O 0.40047 0.56998 0.57891 0.0
O39 O 0.38913 0.54333 0.59863 0.0
C40 C 0.44928 0.53962 0.56116 0.0
C41 C 0.38747 0.56065 0.59589 0.0
C42 C 0.73364 0.14795 0.91368 0.0
C43 C 0.73964 0.13776 0.74722 0.0
O44 O 0.72135 0.15661 0.89085 0.0
Zn45 Zn 0.71362 0.15973 0.8174 0.0
O46 O 0.74514 0.13817 0.89209 0.0
Zn47 Zn 0.73504 0.14216 0.83167 0.0
O48 O 0.74242 0.17056 0.82331 0.0
O49 O 0.71708 0.18568 0.81012 0.0
O50 O 0.74725 0.13003 0.78159 0.0
O51 O 0.72658 0.14896 0.7549 0.0
O52 O 0.68892 0.1508 0.81944 0.0
O53 O 0.70839 0.12992 0.84198 0.0
C54 C 0.73421 0.18568 0.81594 0.0
C55 C 0.69189 0.13524 0.83707 0.0
C56 C 0.09304 0.51703 0.48008 0.0
C57 C 0.10861 0.50875 0.64371 0.0
O58 O 0.09005 0.5315 0.50399 0.0
Zn59 Zn 0.09315 0.54013 0.5765 0.0
O60 O 0.09935 0.50296 0.50013 0.0
Zn61 Zn 0.10128 0.51373 0.56065 0.0
O62 O 0.07255 0.5166 0.57668 0.0
O63 O 0.06825 0.54561 0.592 0.0
O64 O 0.11076 0.49838 0.60877 0.0
O65 O 0.10238 0.52485 0.63708 0.0
O66 O 0.1097 0.56043 0.5677 0.0
O67 O 0.12164 0.53439 0.54557 0.0
C68 C 0.0618 0.52968 0.58742 0.0
C69 C 0.12269 0.55177 0.54874 0.0
C70 C 0.73346 0.86462 0.91398 0.0
C71 C 0.74744 0.85547 0.75102 0.0
O72 O 0.7196 0.85749 0.89375 0.0
Zn73 Zn 0.71394 0.84877 0.82279 0.0
O74 O 0.74743 0.8683 0.89003 0.0
Zn75 Zn 0.73954 0.85984 0.8305 0.0
O76 O 0.71886 0.87868 0.80297 0.0
O77 O 0.69346 0.86281 0.80232 0.0
O78 O 0.75738 0.86205 0.78319 0.0
O79 O 0.73118 0.85009 0.76017 0.0
O80 O 0.70991 0.82309 0.82762 0.0
O81 O 0.73879 0.83027 0.83509 0.0
C82 C 0.70183 0.87746 0.79301 0.0
C83 C 0.72631 0.81811 0.83239 0.0
C84 C 0.38932 0.45795 0.04535 0.0
C85 C 0.44533 0.48966 0.092 0.0
O86 O 0.38651 0.47463 0.05639 0.0
Zn87 Zn 0.40217 0.49709 0.08379 0.0
O88 O 0.40488 0.45108 0.05305 0.0
Zn89 Zn 0.4172 0.47292 0.07546 0.0
O90 O 0.40777 0.47785 0.1465 0.0
O91 O 0.39231 0.50346 0.14347 0.0
O92 O 0.44371 0.47284 0.08251 0.0
O93 O 0.43103 0.49958 0.09408 0.0
O94 O 0.39913 0.51465 0.03506 0.0
O95 O 0.41483 0.49029 0.01441 0.0
C96 C 0.39862 0.49037 0.16721 0.0
C97 C 0.40777 0.50573 0.00414 0.0
C98 C 0.77177 0.18445 0.32968 0.0
C99 C 0.80675 0.12962 0.29414 0.0
O100 O 0.76245 0.16979 0.33335 0.0
Zn101 Zn 0.7667 0.14088 0.32952 0.0
O102 O 0.78886 0.1834 0.32356 0.0
Zn103 Zn 0.79001 0.15685 0.3207 0.0
O104 O 0.77323 0.15201 0.25862 0.0
O105 O 0.74963 0.1355 0.2816 0.0
O106 O 0.81269 0.14563 0.30094 0.0
O107 O 0.79017 0.12595 0.30472 0.0
O108 O 0.76007 0.1321 0.38971 0.0
O109 O 0.78503 0.14862 0.39295 0.0
C110 C 0.75821 0.14381 0.24945 0.0
C111 C 0.7726 0.13932 0.41365 0.0
C112 C 0.89789 0.51279 0.00662 0.0
C113 C 0.89414 0.52947 0.1688 0.0
O114 O 0.88963 0.50465 0.03959 0.0
Zn115 Zn 0.8958 0.52205 0.08597 0.0
O116 O 0.90666 0.52758 0.01456 0.0
Zn117 Zn 0.91247 0.54488 0.07459 0.0
O118 O 0.93903 0.54241 0.07708 0.0
O119 O 0.92438 0.51684 0.09049 0.0
O120 O 0.90393 0.54126 0.14706 0.0
O121 O 0.88664 0.51676 0.14613 0.0
O122 O 0.88168 0.54556 0.05951 0.0
O123 O 0.90164 0.5677 0.05245 0.0
C124 C 0.93941 0.52544 0.08558 0.0
C125 C 0.8855 0.56187 0.04691 0.0
C126 C 0.24333 0.14797 0.9028 0.0
C127 C 0.25859 0.15514 0.73906 0.0
O128 O 0.25622 0.14125 0.87908 0.0
Zn129 Zn 0.24999 0.15071 0.81909 0.0
O130 O 0.23095 0.15728 0.88197 0.0
Zn131 Zn 0.22616 0.16628 0.81033 0.0
O132 O 0.2038 0.15431 0.78889 0.0
O133 O 0.22705 0.13559 0.79288 0.0
O134 O 0.24336 0.16274 0.74897 0.0
O135 O 0.26733 0.14658 0.77045 0.0
O136 O 0.25347 0.17948 0.82663 0.0
O137 O 0.2271 0.19292 0.81535 0.0
C138 C 0.2104 0.13858 0.78187 0.0
C139 C 0.24407 0.19408 0.82362 0.0
C140 C 0.61254 0.47941 0.66162 0.0
C141 C 0.61712 0.49276 0.49569 0.0
O142 O 0.62507 0.48769 0.63987 0.0
Zn143 Zn 0.6164 0.48374 0.57614 0.0
O144 O 0.60084 0.47027 0.63812 0.0
Zn145 Zn 0.59615 0.46484 0.56497 0.0
O146 O 0.60273 0.44022 0.55081 0.0
O147 O 0.62682 0.4578 0.54989 0.0
O148 O 0.60567 0.47991 0.50355 0.0
O149 O 0.62627 0.49949 0.52931 0.0
O150 O 0.58807 0.49413 0.57515 0.0
O151 O 0.57082 0.47013 0.56119 0.0
C152 C 0.61943 0.44235 0.54131 0.0
C153 C 0.57222 0.48712 0.5684 0.0
C154 C 0.24848 0.85903 0.24722 0.0
C155 C 0.26382 0.8643 0.41138 0.0
O156 O 0.23972 0.86743 0.27892 0.0
Zn157 Zn 0.25707 0.8627 0.32739 0.0
O158 O 0.26364 0.85126 0.25691 0.0
Zn159 Zn 0.28078 0.84709 0.31774 0.0
O160 O 0.27994 0.82054 0.3211 0.0
O161 O 0.25341 0.83371 0.3323 0.0
O162 O 0.27612 0.85524 0.38963 0.0
O163 O 0.25091 0.87138 0.38845 0.0
O164 O 0.28012 0.87807 0.3018 0.0
O165 O 0.30305 0.85897 0.29684 0.0
C166 C 0.26292 0.8192 0.32841 0.0
C167 C 0.29671 0.87484 0.29051 0.0
C168 C 0.89493 0.49205 0.66991 0.0
C169 C 0.88785 0.50093 0.50379 0.0
O170 O 0.88724 0.50516 0.64883 0.0
Zn171 Zn 0.89082 0.49569 0.58757 0.0
O172 O 0.90213 0.47902 0.64662 0.0
Zn173 Zn 0.90531 0.47147 0.574 0.0
O174 O 0.932 0.47209 0.56871 0.0
O175 O 0.91967 0.49883 0.58214 0.0
O176 O 0.89657 0.48612 0.51183 0.0
O177 O 0.88158 0.51003 0.5378 0.0
O178 O 0.87448 0.47158 0.5918 0.0
O179 O 0.89218 0.44826 0.57582 0.0
C180 C 0.93386 0.48908 0.5756 0.0
C181 C 0.87673 0.45437 0.58827 0.0
C182 C 0.2812 0.16315 0.40293 0.0
C183 C 0.27253 0.14919 0.23851 0.0
O184 O 0.26763 0.15577 0.38293 0.0
Zn185 Zn 0.27815 0.15576 0.32221 0.0
O186 O 0.29506 0.16809 0.37863 0.0
Zn187 Zn 0.30277 0.16696 0.30428 0.0
O188 O 0.30584 0.19212 0.2908 0.0
O189 O 0.27759 0.1852 0.30905 0.0
O190 O 0.28783 0.15726 0.24417 0.0
O191 O 0.26323 0.14504 0.27425 0.0
O192 O 0.30169 0.13798 0.33653 0.0
O193 O 0.32478 0.15328 0.30757 0.0
C194 C 0.28958 0.19716 0.29783 0.0
C195 C 0.31891 0.13954 0.32977 0.0
C196 C 0.6123 0.52013 0.99017 0.0
C197 C 0.61229 0.52036 0.16075 0.0
O198 O 0.61954 0.50897 0.0183 0.0
Zn199 Zn 0.61311 0.52089 0.07658 0.0
O200 O 0.60516 0.53475 0.00622 0.0
Zn201 Zn 0.60225 0.54702 0.0746 0.0
O202 O 0.61798 0.56809 0.07871 0.0
O203 O 0.63293 0.54247 0.08777 0.0
O204 O 0.60648 0.53536 0.14348 0.0
O205 O 0.61697 0.50743 0.13374 0.0
O206 O 0.58328 0.5223 0.07748 0.0
O207 O 0.57675 0.55156 0.07732 0.0
C208 C 0.63261 0.5599 0.08911 0.0
C209 C 0.57142 0.53514 0.07851 0.0
C210 C 0.21948 0.8078 0.81209 0.0
C211 C 0.18979 0.8657 0.837 0.0
O212 O 0.20326 0.8126 0.80353 0.0
Zn213 Zn 0.20602 0.83809 0.81401 0.0
O214 O 0.23135 0.82004 0.82182 0.0
Zn215 Zn 0.23062 0.84957 0.83104 0.0
O216 O 0.24092 0.8508 0.89176 0.0
O217 O 0.21349 0.83839 0.8886 0.0
O218 O 0.20703 0.86743 0.84308 0.0
O219 O 0.18386 0.85162 0.8164 0.0
O220 O 0.22077 0.8476 0.75319 0.0
O221 O 0.24555 0.85968 0.78266 0.0
C222 C 0.22726 0.84389 0.91245 0.0
C223 C 0.2361 0.8556 0.74719 0.0
C224 C 0.56431 0.9689 0.53634 0.0
C225 C 0.62519 0.94901 0.57819 0.0
O226 O 0.57564 0.98216 0.53449 0.0
Zn227 Zn 0.60501 0.98529 0.54093 0.0
O228 O 0.57028 0.95286 0.54182 0.0
Zn229 Zn 0.59563 0.95893 0.54781 0.0
O230 O 0.59507 0.97611 0.61072 0.0
O231 O 0.60531 1.00313 0.58869 0.0
O232 O 0.61128 0.93958 0.56812 0.0
O233 O 0.62512 0.96611 0.56878 0.0
O234 O 0.61312 0.99402 0.48157 0.0
O235 O 0.60371 0.96572 0.47682 0.0
C236 C 0.59909 0.9927 0.62034 0.0
C237 C 0.60998 0.98008 0.45699 0.0
C238 C 0.29312 0.31866 0.80055 0.0
C239 C 0.31569 0.37898 0.83937 0.0
O240 O 0.28031 0.33042 0.79758 0.0
Zn241 Zn 0.27856 0.35993 0.80244 0.0
O242 O 0.30935 0.32414 0.80609 0.0
Zn243 Zn 0.30449 0.34971 0.81042 0.0
O244 O 0.28712 0.35047 0.87306 0.0
O245 O 0.26062 0.36152 0.84962 0.0
O246 O 0.32459 0.36465 0.83035 0.0
O247 O 0.29861 0.37945 0.82955 0.0
O248 O 0.27029 0.36799 0.74286 0.0
O249 O 0.29828 0.35767 0.73889 0.0
C250 C 0.27067 0.35528 0.88197 0.0
C251 C 0.28419 0.36433 0.71865 0.0
C252 C 0.90216 0.02417 0.97669 0.0
C253 C 0.91959 0.02197 0.1417 0.0
O254 O 0.90797 0.03962 0.99123 0.0
Zn255 Zn 0.91849 0.05056 0.05555 0.0
O256 O 0.90115 0.01095 0.00508 0.0
Zn257 Zn 0.91029 0.02306 0.06067 0.0
O258 O 0.89009 0.04272 0.08345 0.0
O259 O 0.90204 0.06993 0.07363 0.0
O260 O 0.91256 0.00911 0.11792 0.0
O261 O 0.92227 0.0375 0.12253 0.0
O262 O 0.94353 0.05664 0.0407 0.0
O263 O 0.93871 0.02715 0.04581 0.0
C264 C 0.88897 0.06007 0.08788 0.0
C265 C 0.94968 0.0405 0.03981 0.0
C266 C 0.23646 0.64509 0.24629 0.0
C267 C 0.23475 0.65991 0.41249 0.0
O268 O 0.22064 0.65062 0.2587 0.0
Zn269 Zn 0.20858 0.66119 0.3217 0.0
O270 O 0.24915 0.64444 0.27622 0.0
Zn271 Zn 0.23575 0.65304 0.33012 0.0
O272 O 0.21525 0.63244 0.3478 0.0
O273 O 0.18851 0.64512 0.33536 0.0
O274 O 0.24833 0.65401 0.38941 0.0
O275 O 0.21973 0.6632 0.39137 0.0
O276 O 0.20311 0.68632 0.30817 0.0
O277 O 0.23243 0.68176 0.31759 0.0
C278 C 0.19778 0.63166 0.34976 0.0
C279 C 0.21915 0.69266 0.31029 0.0
C280 C 0.5618 0.016 0.05768 0.0
C281 C 0.61242 0.05791 0.03164 0.0
O282 O 0.57681 0.00775 0.04912 0.0
Zn283 Zn 0.6051 0.0149 0.03814 0.0
O284 O 0.56191 0.03312 0.06359 0.0
Zn285 Zn 0.58783 0.03656 0.05378 0.0
O286 O 0.58968 0.02854 0.98055 0.0
O287 O 0.60813 1.00482 0.97711 0.0
O288 O 0.59701 0.06118 0.04988 0.0
O289 O 0.61746 0.04133 0.02681 0.0
O290 O 0.61784 1.00278 0.08738 0.0
O291 O 0.59964 0.02388 0.11524 0.0
C292 C 0.59788 0.01624 0.95669 0.0
C293 C 0.61084 0.01078 0.12225 0.0
C294 C 0.24652 0.36 0.21786 0.0
C295 C 0.25364 0.37037 0.38403 0.0
O296 O 0.23346 0.35293 0.24146 0.0
Zn297 Zn 0.22514 0.35104 0.31401 0.0
O298 O 0.25904 0.36879 0.23861 0.0
Zn299 Zn 0.24906 0.36612 0.29996 0.0
O300 O 0.25282 0.33749 0.30866 0.0
O301 O 0.22635 0.32443 0.32195 0.0
O302 O 0.26265 0.37657 0.34973 0.0
O303 O 0.2392 0.36098 0.37619 0.0
O304 O 0.20161 0.36361 0.3094 0.0
O305 O 0.22465 0.38158 0.29259 0.0
C306 C 0.24345 0.32307 0.31596 0.0
C307 C 0.20747 0.37899 0.29564 0.0
C308 C 0.89976 0.9973 0.64009 0.0
C309 C 0.91764 1.00005 0.47726 0.0
O310 O 0.90713 0.98208 0.62876 0.0
Zn311 Zn 0.91709 0.97078 0.56244 0.0
O312 O 0.89719 0.00905 0.60849 0.0
Zn313 Zn 0.90805 0.99724 0.55644 0.0
O314 O 0.88893 0.9771 0.53078 0.0
O315 O 0.90135 0.95052 0.54513 0.0
O316 O 0.91031 0.01214 0.50277 0.0
O317 O 0.9208 0.98412 0.49385 0.0
O318 O 0.94211 0.96517 0.57643 0.0
O319 O 0.93683 0.99458 0.57254 0.0
C320 C 0.88838 0.95969 0.52784 0.0
C321 C 0.94803 0.98139 0.57803 0.0
C322 C 0.30357 0.62968 0.79817 0.0
C323 C 0.26806 0.68346 0.84297 0.0
O324 O 0.28663 0.62626 0.80378 0.0
Zn325 Zn 0.26299 0.64024 0.82786 0.0
O326 O 0.3097 0.64504 0.8111 0.0
Zn327 Zn 0.28645 0.65626 0.82941 0.0
O328 O 0.27823 0.64558 0.89838 0.0
O329 O 0.2548 0.62812 0.88215 0.0
O330 O 0.28528 0.68261 0.83904 0.0
O331 O 0.25869 0.66877 0.84083 0.0
O332 O 0.2475 0.63763 0.77534 0.0
O333 O 0.27167 0.65494 0.76274 0.0
C334 C 0.26551 0.6348 0.91223 0.0
C335 C 0.25694 0.64747 0.74806 0.0
C336 C 0.38923 0.05754 0.53521 0.0
C337 C 0.43905 0.01517 0.56181 0.0
O338 O 0.40449 0.06033 0.55472 0.0
Zn339 Zn 0.41318 0.03569 0.55831 0.0
O340 O 0.38375 0.04111 0.5298 0.0
Zn341 Zn 0.39563 0.01442 0.54248 0.0
O342 O 0.38264 1.00255 0.59214 0.0
O343 O 0.40141 0.02314 0.61993 0.0
O344 O 0.424 0.00693 0.55326 0.0
O345 O 0.43896 0.03228 0.56806 0.0
O346 O 0.4114 0.02758 0.48487 0.0
O347 O 0.39255 1.00412 0.4816 0.0
C348 C 0.38992 0.01029 0.62703 0.0
C349 C 0.40306 0.01532 0.4611 0.0
C350 C 0.75377 0.65237 0.379 0.0
C351 C 0.74383 0.66621 0.21527 0.0
O352 O 0.76411 0.65054 0.34385 0.0
Zn353 Zn 0.74818 0.65929 0.29626 0.0
O354 O 0.73744 0.65806 0.37283 0.0
Zn355 Zn 0.7216 0.66684 0.31283 0.0
O356 O 0.70162 0.64979 0.30576 0.0
O357 O 0.7279 0.63834 0.28355 0.0
O358 O 0.72949 0.66914 0.23972 0.0
O359 O 0.75833 0.66083 0.23508 0.0
O360 O 0.74485 0.68791 0.31093 0.0
O361 O 0.71586 0.69184 0.32713 0.0
C362 C 0.71056 0.63689 0.28719 0.0
C363 C 0.73166 0.69851 0.32167 0.0
C364 C 0.1227 0.94814 0.04716 0.0
C365 C 0.07406 0.99241 0.06349 0.0
O366 O 0.10699 0.94604 0.06484 0.0
Zn367 Zn 0.09925 0.97098 0.06537 0.0
O368 O 0.12892 0.96433 0.04199 0.0
Zn369 Zn 0.11778 0.99157 0.05139 0.0
O370 O 0.12992 1.00353 0.10195 0.0
O371 O 0.10994 0.98366 0.12779 0.0
O372 O 0.08952 1.00012 0.05675 0.0
O373 O 0.07349 0.97538 0.07076 0.0
O374 O 0.10343 0.97812 0.99195 0.0
O375 O 0.12291 1.00115 0.99109 0.0
C376 C 0.12157 0.99627 0.13592 0.0
C377 C 0.11289 0.98988 0.96933 0.0
C378 C 0.77203 0.35655 0.90298 0.0
C379 C 0.75883 0.3447 0.73965 0.0
O380 O 0.75816 0.35996 0.87838 0.0
Zn381 Zn 0.7666 0.35131 0.81894 0.0
O382 O 0.78622 0.34994 0.88304 0.0
Zn383 Zn 0.79284 0.34156 0.81193 0.0
O384 O 0.81248 0.35695 0.79076 0.0
O385 O 0.78604 0.37089 0.78987 0.0
O386 O 0.77541 0.34059 0.74923 0.0
O387 O 0.74864 0.35136 0.7712 0.0
O388 O 0.76942 0.32205 0.8275 0.0
O389 O 0.7986 0.31622 0.81925 0.0
C390 C 0.80313 0.37084 0.78027 0.0
C391 C 0.78251 0.31055 0.82604 0.0
C392 C 0.40239 0.99079 0.12498 0.0
C393 C 0.39105 0.97854 0.9615 0.0
O394 O 0.39599 1.00122 0.09364 0.0
Zn395 Zn 0.39621 0.98352 0.0455 0.0
O396 O 0.40648 0.97425 0.11503 0.0
Zn397 Zn 0.40581 0.95721 0.05174 0.0
O398 O 0.43125 0.95153 0.0449 0.0
O399 O 0.42549 0.98076 0.03798 0.0
O400 O 0.39745 0.96416 0.98091 0.0
O401 O 0.38786 0.99236 0.98645 0.0
O402 O 0.37643 0.96402 0.07349 0.0
O403 O 0.39031 0.93755 0.07214 0.0
C404 C 0.43699 0.96766 0.03928 0.0
C405 C 0.37641 0.9469 0.08266 0.0
C406 C 0.76392 0.65609 0.87898 0.0
C407 C 0.78003 0.64949 0.71576 0.0
O408 O 0.75518 0.64758 0.84741 0.0
Zn409 Zn 0.77268 0.65199 0.79905 0.0
O410 O 0.77912 0.66379 0.86928 0.0
Zn411 Zn 0.79657 0.66769 0.80905 0.0
O412 O 0.79537 0.69439 0.80488 0.0
O413 O 0.76917 0.6807 0.79235 0.0
O414 O 0.79222 0.6588 0.73736 0.0
O415 O 0.76692 0.6427 0.73863 0.0
O416 O 0.79543 0.63693 0.82567 0.0
O417 O 0.81873 0.65558 0.83169 0.0
C418 C 0.77841 0.69539 0.79625 0.0
C419 C 0.81197 0.63984 0.83784 0.0
C420 C 0.1157 0.0126 0.63323 0.0
C421 C 0.11857 0.02762 0.46966 0.0
O422 O 0.12329 1.00387 0.60022 0.0
Zn423 Zn 0.11748 0.0211 0.5532 0.0
O424 O 0.10764 0.02775 0.62506 0.0
Zn425 Zn 0.1022 0.04483 0.56415 0.0
O426 O 0.07548 0.04377 0.56334 0.0
O427 O 0.08858 0.01729 0.55163 0.0
O428 O 0.1098 0.04016 0.49133 0.0
O429 O 0.12547 0.01464 0.49257 0.0
O430 O 0.13319 0.04418 0.57664 0.0
O431 O 0.1144 0.06727 0.58384 0.0
C432 C 0.07409 0.02672 0.55677 0.0
C433 C 0.13033 0.06079 0.58824 0.0
C434 C 0.6947 0.36658 0.33113 0.0
C435 C 0.72462 0.30943 0.29993 0.0
O436 O 0.68922 0.35279 0.3086 0.0
Zn437 Zn 0.71138 0.33944 0.30555 0.0
O438 O 0.71185 0.36842 0.33846 0.0
Zn439 Zn 0.7357 0.35116 0.32304 0.0
O440 O 0.7502 0.36206 0.27416 0.0
O441 O 0.72608 0.34884 0.24467 0.0
O442 O 0.73657 0.32154 0.31047 0.0
O443 O 0.70833 0.31432 0.29273 0.0
O444 O 0.71959 0.33814 0.37988 0.0
O445 O 0.74664 0.35131 0.3834 0.0
C446 C 0.74112 0.35733 0.23855 0.0
C447 C 0.73351 0.34328 0.40375 0.0
H448 H 0.97471 0.5377 0.07029 0.0
H449 H 0.9432 0.4891 0.10047 0.0
H450 H 0.97079 0.47056 0.09399 0.0
H451 H 1.00466 0.51752 0.98599 0.0
H452 H 0.02461 0.52969 0.005 0.0
H453 H 1.00244 0.53962 0.01263 0.0
H454 H 0.0084 0.54327 0.1016 0.0
H455 H 0.03068 0.53356 0.09412 0.0
H456 H 0.01503 0.52373 0.13562 0.0
H457 H 1.00127 0.45684 0.08167 0.0
H458 H 0.03363 0.44917 0.07155 0.0
H459 H 0.04616 0.50633 0.05098 0.0
C460 C 0.97366 0.5232 0.07599 0.0
C461 C 0.95668 0.51493 0.08582 0.0
C462 C 0.95595 0.49585 0.09289 0.0
C463 C 0.97158 0.48512 0.08912 0.0
C464 C 0.98797 0.49359 0.07851 0.0
C465 C 0.98924 0.5122 0.07263 0.0
C466 C 0.00871 0.51775 0.06212 0.0
C467 C 0.01018 0.52667 0.01354 0.0
C468 C 0.01614 0.53032 0.10067 0.0
C469 C 0.01807 0.49935 0.06291 0.0
C470 C 0.00578 0.48562 0.0721 0.0
C471 C 0.01107 0.46748 0.0746 0.0
C472 C 0.0295 0.46324 0.06858 0.0
C473 C 0.04251 0.4771 0.0604 0.0
C474 C 0.03659 0.49538 0.05696 0.0
H475 H 0.78799 0.79201 0.30484 0.0
H476 H 0.73637 0.8196 0.32495 0.0
H477 H 0.72083 0.79019 0.33059 0.0
H478 H 0.76981 0.75508 0.23359 0.0
H479 H 0.78452 0.73811 0.25878 0.0
H480 H 0.79186 0.76144 0.25577 0.0
H481 H 0.79754 0.76136 0.34534 0.0
H482 H 0.79007 0.73807 0.34867 0.0
H483 H 0.77931 0.75514 0.38445 0.0
H484 H 0.71062 0.75812 0.33645 0.0
H485 H 0.70618 0.72492 0.33702 0.0
H486 H 0.76393 0.71734 0.3119 0.0
C487 C 0.77342 0.79185 0.31007 0.0
C488 C 0.76348 0.80824 0.3145 0.0
C489 C 0.74439 0.80735 0.32146 0.0
C490 C 0.73537 0.79066 0.32484 0.0
C491 C 0.74552 0.77482 0.32101 0.0
C492 C 0.76408 0.77518 0.31337 0.0
C493 C 0.77159 0.75599 0.31027 0.0
C494 C 0.77994 0.75245 0.26171 0.0
C495 C 0.78545 0.75244 0.34953 0.0
C496 C 0.75436 0.74492 0.3175 0.0
C497 C 0.73952 0.75611 0.32385 0.0
C498 C 0.72213 0.74918 0.33138 0.0
C499 C 0.71975 0.73027 0.33179 0.0
C500 C 0.73466 0.71845 0.32453 0.0
C501 C 0.75223 0.72597 0.31764 0.0
H502 H 0.46568 0.50633 0.55879 0.0
H503 H 0.47767 0.56407 0.55681 0.0
H504 H 0.51062 0.55714 0.55814 0.0
H505 H 0.50051 0.49341 0.63724 0.0
H506 H 0.50542 0.47229 0.60793 0.0
H507 H 0.48295 0.48186 0.6047 0.0
H508 H 0.48447 0.48134 0.51396 0.0
H509 H 0.50689 0.4716 0.51689 0.0
H510 H 0.50319 0.49229 0.4845 0.0
H511 H 0.54253 0.54348 0.564 0.0
H512 H 0.57023 0.52447 0.56869 0.0
H513 H 0.53671 0.47592 0.56568 0.0
C514 C 0.47519 0.51757 0.55819 0.0
C515 C 0.46906 0.53577 0.55769 0.0
C516 C 0.48203 0.55002 0.55695 0.0
C517 C 0.50077 0.54621 0.55788 0.0
C518 C 0.50632 0.52808 0.55923 0.0
C519 C 0.49386 0.51401 0.55889 0.0
C520 C 0.50317 0.4957 0.56088 0.0
C521 C 0.49769 0.48521 0.60533 0.0
C522 C 0.49919 0.48458 0.5164 0.0
C523 C 0.52286 0.5016 0.56281 0.0
C524 C 0.52446 0.52031 0.56197 0.0
C525 C 0.5414 0.52882 0.56437 0.0
C526 C 0.55706 0.51791 0.56722 0.0
C527 C 0.55569 0.49869 0.56745 0.0
C528 C 0.53829 0.49055 0.56536 0.0
H529 H 0.72108 0.22081 0.81363 0.0
H530 H 0.77111 0.18965 0.82063 0.0
H531 H 0.78873 0.21808 0.82595 0.0
H532 H 0.7389 0.25772 0.74341 0.0
H533 H 0.72604 0.27492 0.7737 0.0
H534 H 0.71734 0.25209 0.76973 0.0
H535 H 0.71462 0.25078 0.86021 0.0
H536 H 0.72345 0.27356 0.86446 0.0
H537 H 0.73437 0.25531 0.89572 0.0
H538 H 0.80103 0.24982 0.83075 0.0
H539 H 0.80717 0.2828 0.83263 0.0
H540 H 0.74923 0.29347 0.82384 0.0
C541 C 0.73575 0.21996 0.81594 0.0
C542 C 0.74469 0.20294 0.81661 0.0
C543 C 0.76391 0.20247 0.82002 0.0
C544 C 0.77407 0.21856 0.82314 0.0
C545 C 0.76484 0.23507 0.82294 0.0
C546 C 0.74612 0.23591 0.81929 0.0
C547 C 0.73959 0.25545 0.82004 0.0
C548 C 0.7299 0.26033 0.77398 0.0
C549 C 0.72728 0.25898 0.86265 0.0
C550 C 0.75755 0.26543 0.8246 0.0
C551 C 0.77194 0.25341 0.82623 0.0
C552 C 0.78987 0.25938 0.8296 0.0
C553 C 0.79322 0.27815 0.83072 0.0
C554 C 0.77871 0.29076 0.82862 0.0
C555 C 0.76063 0.28422 0.82598 0.0
H556 H 0.04298 0.49762 0.57342 0.0
H557 H 0.03545 0.55451 0.60899 0.0
H558 H 1.00227 0.54995 0.60969 0.0
H559 H 1.00501 0.4939 0.49623 0.0
H560 H 0.99879 0.47125 0.51424 0.0
H561 H 0.02211 0.47859 0.51821 0.0
H562 H 0.02256 0.47052 0.60653 0.0
H563 H 0.99928 0.46303 0.60278 0.0
H564 H 0.00564 0.48014 0.64489 0.0
H565 H 0.97018 0.53989 0.60344 0.0
H566 H 0.94072 0.52464 0.59471 0.0
H567 H 0.96822 0.47378 0.56393 0.0
C568 C 0.03437 0.50908 0.58186 0.0
C569 C 0.0419 0.52646 0.59124 0.0
C570 C 0.03009 0.54109 0.60178 0.0
C571 C 0.01119 0.53864 0.60219 0.0
C572 C 1.00424 0.52146 0.59211 0.0
C573 C 0.01541 0.50687 0.58248 0.0
C574 C 1.00428 0.48989 0.57236 0.0
C575 C 0.00776 0.48301 0.52228 0.0
C576 C 0.00817 0.47502 0.60882 0.0
C577 C 0.98511 0.49728 0.57753 0.0
C578 C 0.98551 0.51554 0.58884 0.0
C579 C 0.96968 0.52557 0.59484 0.0
C580 C 0.95296 0.51673 0.58964 0.0
C581 C 0.95203 0.49794 0.57864 0.0
C582 C 0.96841 0.48812 0.57236 0.0
H583 H 0.79127 0.73028 0.8156 0.0
H584 H 0.7427 0.70032 0.7759 0.0
H585 H 0.72455 0.72804 0.7836 0.0
H586 H 0.77031 0.75889 0.90078 0.0
H587 H 0.78289 0.7791 0.88572 0.0
H588 H 0.79276 0.75703 0.87589 0.0
H589 H 0.79769 0.76479 0.78828 0.0
H590 H 0.78808 0.78698 0.798 0.0
H591 H 0.77869 0.77235 0.7535 0.0
H592 H 0.71097 0.75794 0.8002 0.0
H593 H 0.70322 0.7899 0.81505 0.0
H594 H 0.76018 0.80192 0.84103 0.0
C595 C 0.77688 0.72964 0.80784 0.0
C596 C 0.76848 0.71299 0.79532 0.0
C597 C 0.74955 0.71278 0.78571 0.0
C598 C 0.73903 0.72849 0.79012 0.0
C599 C 0.74756 0.74448 0.80375 0.0
C600 C 0.76607 0.74536 0.81168 0.0
C601 C 0.77163 0.76455 0.82542 0.0
C602 C 0.77989 0.7649 0.8749 0.0
C603 C 0.78481 0.77265 0.78913 0.0
C604 C 0.75332 0.77413 0.82428 0.0
C605 C 0.73966 0.76217 0.8121 0.0
C606 C 0.72155 0.76752 0.80939 0.0
C607 C 0.71728 0.78573 0.81818 0.0
C608 C 0.73105 0.79852 0.82917 0.0
C609 C 0.74932 0.79252 0.83278 0.0
H610 H 0.5536 0.50227 0.06599 0.0
H611 H 0.54466 0.55882 0.10292 0.0
H612 H 0.51212 0.55256 0.11429 0.0
H613 H 0.51191 0.49697 1.00065 0.0
H614 H 0.50792 0.47395 0.01966 0.0
H615 H 0.5308 0.48257 0.01593 0.0
H616 H 0.5361 0.47404 0.10291 0.0
H617 H 0.51318 0.46552 0.10699 0.0
H618 H 0.52094 0.48276 0.14717 0.0
H619 H 0.4809 0.54068 0.12214 0.0
H620 H 0.45182 0.52436 0.12003 0.0
H621 H 0.47973 0.47526 0.07571 0.0
C622 C 0.54478 0.5133 0.07657 0.0
C623 C 0.55175 0.53105 0.08367 0.0
C624 C 0.53971 0.54514 0.0971 0.0
C625 C 0.52118 0.54171 0.10391 0.0
C626 C 0.51477 0.52412 0.09688 0.0
C627 C 0.52609 0.51015 0.08306 0.0
C628 C 0.51535 0.49267 0.07618 0.0
C629 C 0.51657 0.48616 0.02507 0.0
C630 C 0.52178 0.47787 0.11036 0.0
C631 C 0.49627 0.49909 0.08819 0.0
C632 C 0.4964 0.51725 0.10044 0.0
C633 C 0.48059 0.52646 0.11255 0.0
C634 C 0.4641 0.51701 0.11125 0.0
C635 C 0.46339 0.49848 0.09763 0.0
C636 C 0.4798 0.48936 0.08655 0.0
H637 H 0.75837 0.2929 0.30971 0.0
H638 H 0.70083 0.28128 0.29226 0.0
H639 H 0.70697 0.24867 0.30005 0.0
H640 H 0.77425 0.25333 0.24335 0.0
H641 H 0.7935 0.24937 0.28103 0.0
H642 H 0.78481 0.27207 0.27368 0.0
H643 H 0.781 0.27492 0.36359 0.0
H644 H 0.7895 0.25216 0.37119 0.0
H645 H 0.76761 0.25829 0.39468 0.0
H646 H 0.71844 0.21781 0.31401 0.0
H647 H 0.73525 0.18937 0.32444 0.0
H648 H 0.78606 0.21953 0.32923 0.0
C649 C 0.74711 0.28346 0.3071 0.0
C650 C 0.72908 0.28975 0.30045 0.0
C651 C 0.71475 0.27692 0.29723 0.0
C652 C 0.71807 0.25831 0.30182 0.0
C653 C 0.73585 0.2526 0.30916 0.0
C654 C 0.75022 0.26466 0.31106 0.0
C655 C 0.76805 0.2546 0.31844 0.0
C656 C 0.78091 0.25752 0.27663 0.0
C657 C 0.77707 0.26034 0.36473 0.0
C658 C 0.76134 0.23507 0.32072 0.0
C659 C 0.74267 0.23438 0.31573 0.0
C660 C 0.73309 0.21812 0.31759 0.0
C661 C 0.74281 0.202 0.32379 0.0
C662 C 0.76204 0.20211 0.32763 0.0
C663 C 0.7714 0.21896 0.32637 0.0
H664 H 0.25976 0.30162 0.79029 0.0
H665 H 0.31696 0.29093 0.81611 0.0
H666 H 0.31008 0.2585 0.82718 0.0
H667 H 0.24196 0.27017 0.87423 0.0
H668 H 0.22319 0.26279 0.83837 0.0
H669 H 0.23236 0.28533 0.83126 0.0
H670 H 0.23788 0.27919 0.74305 0.0
H671 H 0.22852 0.2567 0.74976 0.0
H672 H 0.25099 0.25964 0.72564 0.0
H673 H 0.2973 0.22779 0.8392 0.0
H674 H 0.2798 0.19948 0.84352 0.0
H675 H 0.23052 0.22889 0.80763 0.0
C676 C 0.27086 0.29242 0.79778 0.0
C677 C 0.28894 0.29891 0.80233 0.0
C678 C 0.30304 0.28638 0.81229 0.0
C679 C 0.29926 0.2679 0.81888 0.0
C680 C 0.28132 0.26205 0.8151 0.0
C681 C 0.26735 0.27381 0.80414 0.0
C682 C 0.24931 0.26373 0.80163 0.0
C683 C 0.23592 0.27094 0.83858 0.0
C684 C 0.2412 0.26488 0.75207 0.0
C685 C 0.25537 0.2445 0.81312 0.0
C686 C 0.27389 0.24399 0.8211 0.0
C687 C 0.28281 0.22798 0.83271 0.0
C688 C 0.27267 0.21193 0.83519 0.0
C689 C 0.25372 0.21183 0.82579 0.0
C690 C 0.24494 0.22847 0.81518 0.0
H691 H 0.27785 0.78458 0.3235 0.0
H692 H 0.22639 0.81333 0.33178 0.0
H693 H 0.20995 0.7844 0.32504 0.0
H694 H 0.26376 0.7509 0.24 0.0
H695 H 0.27609 0.73252 0.26694 0.0
H696 H 0.28421 0.75551 0.2727 0.0
H697 H 0.28386 0.75246 0.36313 0.0
H698 H 0.27593 0.72939 0.35763 0.0
H699 H 0.26324 0.74548 0.39221 0.0
H700 H 0.19878 0.75272 0.31464 0.0
H701 H 0.19364 0.71968 0.30891 0.0
H702 H 0.252 0.71078 0.30976 0.0
C703 C 0.26314 0.78477 0.32424 0.0
C704 C 0.25348 0.80133 0.32815 0.0
C705 C 0.23419 0.80091 0.32896 0.0
C706 C 0.22466 0.78451 0.32492 0.0
C707 C 0.23454 0.76851 0.32042 0.0
C708 C 0.25333 0.76841 0.32066 0.0
C709 C 0.26051 0.74914 0.31626 0.0
C710 C 0.27181 0.7469 0.27129 0.0
C711 C 0.27153 0.74381 0.35991 0.0
C712 C 0.24282 0.73854 0.3134 0.0
C713 C 0.22802 0.75004 0.31544 0.0
C714 C 0.21025 0.74354 0.31319 0.0
C715 C 0.20747 0.72474 0.30972 0.0
C716 C 0.22238 0.71258 0.30888 0.0
C717 C 0.24029 0.71968 0.31025 0.0
H718 H 0.25643 0.21408 0.3151 0.0
H719 H 0.31262 0.22495 0.277 0.0
H720 H 0.30655 0.25771 0.27907 0.0
H721 H 0.23691 0.25126 0.24635 0.0
H722 H 0.21972 0.25658 0.28924 0.0
H723 H 0.22816 0.23369 0.2842 0.0
H724 H 0.23659 0.23393 0.37227 0.0
H725 H 0.22831 0.25687 0.3775 0.0
H726 H 0.25128 0.25153 0.39458 0.0
H727 H 0.29548 0.28885 0.28827 0.0
H728 H 0.27924 0.31758 0.29795 0.0
H729 H 0.22933 0.28805 0.32804 0.0
C730 C 0.26739 0.22336 0.30679 0.0
C731 C 0.28505 0.21683 0.29594 0.0
C732 C 0.29901 0.22949 0.28543 0.0
C733 C 0.29571 0.24819 0.2866 0.0
C734 C 0.27835 0.25416 0.29809 0.0
C735 C 0.26431 0.24224 0.30753 0.0
C736 C 0.24691 0.25258 0.31863 0.0
C737 C 0.23205 0.24827 0.28244 0.0
C738 C 0.24039 0.24848 0.36873 0.0
C739 C 0.25348 0.27212 0.31414 0.0
C740 C 0.27172 0.27254 0.30254 0.0
C741 C 0.28116 0.28874 0.29705 0.0
C742 C 0.27174 0.30505 0.30281 0.0
C743 C 0.25291 0.30522 0.3137 0.0
C744 C 0.24369 0.28843 0.31973 0.0
H745 H 0.28211 0.71861 0.83841 0.0
H746 H 0.23155 0.68832 0.85024 0.0
H747 H 0.21427 0.71662 0.84288 0.0
H748 H 0.2661 0.75857 0.90529 0.0
H749 H 0.27822 0.77453 0.86891 0.0
H750 H 0.28698 0.75189 0.87706 0.0
H751 H 0.28755 0.74735 0.7871 0.0
H752 H 0.27856 0.76988 0.77869 0.0
H753 H 0.26696 0.75056 0.75388 0.0
H754 H 0.20212 0.74722 0.82773 0.0
H755 H 0.19558 0.7796 0.81553 0.0
H756 H 0.25345 0.79149 0.81726 0.0
C757 C 0.26743 0.71799 0.84026 0.0
C758 C 0.25826 0.70112 0.84479 0.0
C759 C 0.23899 0.70096 0.84675 0.0
C760 C 0.22898 0.717 0.84245 0.0
C761 C 0.23834 0.73326 0.83673 0.0
C762 C 0.25711 0.73403 0.83648 0.0
C763 C 0.26358 0.7535 0.82985 0.0
C764 C 0.27436 0.76001 0.87285 0.0
C765 C 0.27483 0.75543 0.78469 0.0
C766 C 0.2455 0.76339 0.82578 0.0
C767 C 0.23119 0.75132 0.82949 0.0
C768 C 0.21319 0.75687 0.8253 0.0
C769 C 0.20963 0.77533 0.81804 0.0
C770 C 0.22397 0.78817 0.81551 0.0
C771 C 0.24218 0.78204 0.8192 0.0
H772 H 0.47403 0.02874 0.56233 0.0
H773 H 0.44339 0.97831 0.55729 0.0
H774 H 0.47197 0.96114 0.54876 0.0
H775 H 0.50703 0.01647 0.47632 0.0
H776 H 0.52576 0.0275 0.50549 0.0
H777 H 0.50298 0.03594 0.51319 0.0
H778 H 0.50611 0.03272 0.60324 0.0
H779 H 0.52897 0.02445 0.59584 0.0
H780 H 0.51258 0.01112 0.62789 0.0
H781 H 0.5038 0.9494 0.53917 0.0
H782 H 0.53678 0.94385 0.53224 0.0
H783 H 0.54682 1.00187 0.5421 0.0
C784 C 0.47333 0.01407 0.56001 0.0
C785 C 0.45641 0.00489 0.56066 0.0
C786 C 0.45614 0.98568 0.55698 0.0
C787 C 0.47231 0.97579 0.55202 0.0
C788 C 0.4887 0.98527 0.55067 0.0
C789 C 0.48936 1.00397 0.5548 0.0
C790 C 0.50878 0.01083 0.55166 0.0
C791 C 0.51128 0.02343 0.50913 0.0
C792 C 0.51444 0.02034 0.59738 0.0
C793 C 0.51891 0.99308 0.54504 0.0
C794 C 0.50706 0.9785 0.54459 0.0
C795 C 0.51321 0.96071 0.53946 0.0
C796 C 0.53198 0.9577 0.53542 0.0
C797 C 0.54443 0.9724 0.53636 0.0
C798 C 0.53769 0.99033 0.54077 0.0
H799 H 0.96686 0.00768 0.04764 0.0
H800 H 0.97744 0.06521 0.02754 0.0
H801 H 0.01051 0.05921 0.03118 0.0
H802 H 1.00158 1.00003 0.13075 0.0
H803 H 0.00726 0.97769 0.10945 0.0
H804 H 0.98455 0.98633 0.10218 0.0
H805 H 0.98657 0.981 0.01256 0.0
H806 H 0.00922 0.97214 0.01959 0.0
H807 H 0.00517 0.99078 0.97999 0.0
H808 H 0.04252 0.04687 0.04022 0.0
H809 H 0.07074 0.02921 0.05098 0.0
H810 H 0.03883 0.97991 0.06665 0.0
C811 C 0.97608 0.01904 0.04326 0.0
C812 C 0.96951 0.03694 0.03701 0.0
C813 C 0.98212 0.05138 0.03207 0.0
C814 C 1.00093 0.0481 0.03424 0.0
C815 C 0.0069 0.03032 0.04143 0.0
C816 C 0.99483 0.01603 0.04559 0.0
C817 C 1.00463 0.99826 0.0544 0.0
C818 C 0.99918 0.99011 0.10202 0.0
C819 C 1.0012 0.98475 0.01424 0.0
C820 C 0.02415 1.00477 0.05476 0.0
C821 C 0.0252 0.02329 0.04716 0.0
C822 C 0.04184 0.03235 0.04608 0.0
C823 C 0.0578 0.02219 0.05237 0.0
C824 C 0.05705 1.00315 0.0598 0.0
C825 C 0.03992 0.99443 0.06128 0.0
H826 H 0.52662 0.02917 0.0586 0.0
H827 H 0.5578 0.97912 0.05468 0.0
H828 H 0.52942 0.96151 0.04786 0.0
H829 H 0.48869 0.01141 0.12646 0.0
H830 H 0.47191 0.02425 0.09456 0.0
H831 H 0.49469 0.03294 0.1005 0.0
H832 H 0.49719 0.03556 0.01019 0.0
H833 H 0.47448 0.0267 0.00395 0.0
H834 H 0.49317 0.01577 0.97443 0.0
H835 H 0.49779 0.94922 0.04009 0.0
H836 H 0.46486 0.94305 0.03502 0.0
H837 H 0.45402 1.00097 0.04284 0.0
C838 C 0.52748 0.0145 0.05683 0.0
C839 C 0.5445 0.00556 0.05731 0.0
C840 C 0.54497 0.98633 0.05443 0.0
C841 C 0.52891 0.97617 0.05045 0.0
C842 C 0.51241 0.98541 0.0493 0.0
C843 C 0.51153 1.00412 0.05264 0.0
C844 C 0.492 0.01064 0.05009 0.0
C845 C 0.4865 0.02038 0.09562 0.0
C846 C 0.48904 0.02289 0.0071 0.0
C847 C 0.48208 0.99267 0.04478 0.0
C848 C 0.49412 0.9783 0.04438 0.0
C849 C 0.48821 0.96037 0.04035 0.0
C850 C 0.46947 0.957 0.03737 0.0
C851 C 0.45681 0.9715 0.03831 0.0
C852 C 0.46331 0.98957 0.04159 0.0
H853 H 0.03922 0.04133 0.56143 0.0
H854 H 0.06862 0.99017 0.55844 0.0
H855 H 0.03994 0.9735 0.5677 0.0
H856 H 0.00554 0.02807 0.64694 0.0
H857 H 0.98701 0.03968 0.61856 0.0
H858 H 0.00991 0.04805 0.61213 0.0
H859 H 0.00698 0.04624 0.52179 0.0
H860 H 0.98402 0.03805 0.52796 0.0
H861 H 1.00036 0.02508 0.49488 0.0
H862 H 0.00846 0.96203 0.57879 0.0
H863 H 0.97548 0.95643 0.58359 0.0
H864 H 0.96564 0.01457 0.5773 0.0
C865 C 0.03959 0.02663 0.56252 0.0
C866 C 0.05629 0.01713 0.55922 0.0
C867 C 0.05611 0.99785 0.56071 0.0
C868 C 0.03985 0.98819 0.56623 0.0
C869 C 0.02372 0.99791 0.56993 0.0
C870 C 0.02336 0.01667 0.56758 0.0
C871 C 1.00395 0.0236 0.57108 0.0
C872 C 1.00146 0.03556 0.61478 0.0
C873 C 0.99851 0.03384 0.52626 0.0
C874 C 0.99359 0.00581 0.57575 0.0
C875 C 0.00533 0.9912 0.57544 0.0
C876 C 0.99909 0.97336 0.579 0.0
C877 C 0.98031 0.97032 0.58189 0.0
C878 C 0.96789 0.98501 0.58091 0.0
C879 C 0.97473 1.00302 0.57843 0.0
H880 H 0.10872 0.51115 0.92369 0.0
H881 H 0.11282 0.45236 0.92082 0.0
H882 H 0.11572 0.45332 0.83434 0.0
H883 H 0.08065 0.51465 0.82341 0.0
H884 H 0.09064 0.53556 0.80287 0.0
H885 H 0.09069 0.53033 0.86448 0.0
H886 H 0.1257 0.53411 0.86657 0.0
H887 H 0.12577 0.53934 0.80488 0.0
H888 H 0.1396 0.52104 0.82696 0.0
H889 H 0.11754 0.46078 0.74825 0.0
H890 H 0.11545 0.47358 0.6687 0.0
H891 H 0.10828 0.52751 0.72753 0.0
C892 C 0.11054 0.49848 0.90495 0.0
C893 C 0.11082 0.48166 0.92897 0.0
C894 C 0.1127 0.46538 0.9031 0.0
C895 C 0.11441 0.46581 0.85405 0.0
C896 C 0.11399 0.48264 0.83146 0.0
C897 C 0.11192 0.49866 0.85605 0.0
C898 C 0.11047 0.51482 0.82325 0.0
C899 C 0.09202 0.5244 0.82884 0.0
C900 C 0.12634 0.52811 0.83088 0.0
C901 C 0.11194 0.50539 0.77623 0.0
C902 C 0.11424 0.48686 0.78181 0.0
C903 C 0.11576 0.47526 0.74351 0.0
C904 C 0.1146 0.4827 0.69838 0.0
C905 C 0.1117 0.50159 0.69171 0.0
C906 C 0.11055 0.51305 0.73135 0.0
H907 H 0.76309 0.86396 0.97078 0.0
H908 H 0.70468 0.87188 0.97236 0.0
H909 H 0.70589 0.87734 0.0581 0.0
H910 H 0.76484 0.83898 0.07763 0.0
H911 H 0.78645 0.84827 0.09536 0.0
H912 H 0.781 0.84636 0.03408 0.0
H913 H 0.78717 0.88079 0.02332 0.0
H914 H 0.79253 0.88283 0.08469 0.0
H915 H 0.77514 0.89695 0.05923 0.0
H916 H 0.71378 0.8822 0.14337 0.0
H917 H 0.72678 0.88242 0.22298 0.0
H918 H 0.77982 0.86915 0.16576 0.0
C919 C 0.75056 0.86704 0.98909 0.0
C920 C 0.7338 0.86777 0.96504 0.0
C921 C 0.71765 0.87136 0.99026 0.0
C922 C 0.71824 0.87456 0.03879 0.0
C923 C 0.73505 0.87382 0.06142 0.0
C924 C 0.75087 0.86988 0.03746 0.0
C925 C 0.767 0.86859 0.07027 0.0
C926 C 0.7753 0.84941 0.06927 0.0
C927 C 0.7813 0.88316 0.05868 0.0
C928 C 0.75781 0.87243 0.11664 0.0
C929 C 0.73944 0.8757 0.11068 0.0
C930 C 0.72812 0.87962 0.14843 0.0
C931 C 0.73568 0.87979 0.19352 0.0
C932 C 0.75433 0.87579 0.20062 0.0
C933 C 0.76553 0.87227 0.16148 0.0
H934 H 0.39654 0.52017 0.22375 0.0
H935 H 0.39787 0.46127 0.22715 0.0
H936 H 0.39694 0.4621 0.31393 0.0
H937 H 0.42671 0.52625 0.31898 0.0
H938 H 0.41556 0.54623 0.34146 0.0
H939 H 0.41431 0.54098 0.27994 0.0
H940 H 0.37913 0.54168 0.28398 0.0
H941 H 0.38026 0.54697 0.34557 0.0
H942 H 0.36748 0.52751 0.32589 0.0
H943 H 0.39647 0.46945 0.3999 0.0
H944 H 0.39917 0.48242 0.47907 0.0
H945 H 0.40046 0.53677 0.4199 0.0
C946 C 0.39626 0.50743 0.24276 0.0
C947 C 0.39694 0.49061 0.21884 0.0
C948 C 0.39717 0.47426 0.24488 0.0
C949 C 0.39661 0.47463 0.29409 0.0
C950 C 0.3961 0.49146 0.3166 0.0
C951 C 0.39611 0.50757 0.29181 0.0
C952 C 0.39705 0.52384 0.3244 0.0
C953 C 0.41444 0.53498 0.31567 0.0
C954 C 0.37996 0.53569 0.31967 0.0
C955 C 0.39764 0.51437 0.37153 0.0
C956 C 0.39678 0.49571 0.36617 0.0
C957 C 0.39714 0.48403 0.40449 0.0
C958 C 0.39864 0.49158 0.4494 0.0
C959 C 0.40004 0.51065 0.45584 0.0
C960 C 0.39941 0.52216 0.41621 0.0
H961 H 0.72264 0.14213 0.66179 0.0
H962 H 0.77454 0.12903 0.7255 0.0
H963 H 0.78887 0.12826 0.6474 0.0
H964 H 0.72868 0.11232 0.56048 0.0
H965 H 0.71726 0.12762 0.52095 0.0
H966 H 0.71112 0.1272 0.58205 0.0
H967 H 0.71736 0.1618 0.58764 0.0
H968 H 0.72367 0.16229 0.52668 0.0
H969 H 0.73928 0.17054 0.57046 0.0
H970 H 0.79819 0.1316 0.56244 0.0
H971 H 0.80062 0.13438 0.47589 0.0
H972 H 0.74233 0.14221 0.46733 0.0
C973 C 0.73697 0.13894 0.65918 0.0
C974 C 0.74746 0.13565 0.69971 0.0
C975 C 0.76618 0.13146 0.6949 0.0
C976 C 0.7745 0.1311 0.65069 0.0
C977 C 0.76386 0.13462 0.61144 0.0
C978 C 0.74542 0.13808 0.61513 0.0
C979 C 0.73698 0.14084 0.56727 0.0
C980 C 0.72267 0.12612 0.55709 0.0
C981 C 0.72885 0.16001 0.56277 0.0
C982 C 0.75357 0.13862 0.53629 0.0
C983 C 0.76902 0.13534 0.56241 0.0
C984 C 0.78614 0.13386 0.54152 0.0
C985 C 0.78743 0.13552 0.49252 0.0
C986 C 0.77165 0.1382 0.46519 0.0
C987 C 0.75457 0.1398 0.48748 0.0
H988 H 0.89306 0.49987 0.22488 0.0
H989 H 0.8925 0.55877 0.22846 0.0
H990 H 0.88929 0.55779 0.31511 0.0
H991 H 0.86134 0.49141 0.31765 0.0
H992 H 0.87375 0.47228 0.34065 0.0
H993 H 0.87515 0.47772 0.27922 0.0
H994 H 0.91026 0.47964 0.28513 0.0
H995 H 0.90899 0.47408 0.34649 0.0
H996 H 0.92045 0.49451 0.32791 0.0
H997 H 0.88494 0.54999 0.4008 0.0
H998 H 0.88387 0.53652 0.47992 0.0
H999 H 0.88993 0.48269 0.4199 0.0
C1000 C 0.89212 0.51258 0.24391 0.0
C1001 C 0.89272 0.52942 0.22026 0.0
C1002 C 0.89195 0.54576 0.24618 0.0
C1003 C 0.89006 0.5453 0.2952 0.0
C1004 C 0.88934 0.5284 0.31742 0.0
C1005 C 0.89068 0.51235 0.29262 0.0
C1006 C 0.89068 0.49599 0.32479 0.0
C1007 C 0.87425 0.48363 0.31498 0.0
C1008 C 0.90866 0.48544 0.32084 0.0
C1009 C 0.88897 0.50529 0.37179 0.0
C1010 C 0.88793 0.52396 0.36674 0.0
C1011 C 0.88586 0.53541 0.40515 0.0
C1012 C 0.88516 0.52761 0.44991 0.0
C1013 C 0.88684 0.50855 0.45598 0.0
C1014 C 0.88868 0.49729 0.4163 0.0
H1015 H 0.27325 0.14668 0.95862 0.0
H1016 H 0.21435 0.1464 0.96343 0.0
H1017 H 0.21552 0.14447 0.0502 0.0
H1018 H 0.28186 0.11666 0.05703 0.0
H1019 H 0.30104 0.12967 0.07755 0.0
H1020 H 0.29549 0.12941 0.01607 0.0
H1021 H 0.2937 0.16457 0.01589 0.0
H1022 H 0.29928 0.16495 0.07729 0.0
H1023 H 0.27885 0.17586 0.05682 0.0
H1024 H 0.2234 0.14244 0.13646 0.0
H1025 H 0.23688 0.1441 0.2155 0.0
H1026 H 0.29069 0.14837 0.15405 0.0
C1027 C 0.26059 0.14592 0.97792 0.0
C1028 C 0.24368 0.14635 0.95444 0.0
C1029 C 0.22741 0.14592 0.98086 0.0
C1030 C 0.22798 0.14476 0.03004 0.0
C1031 C 0.24492 0.14439 0.05212 0.0
C1032 C 0.26092 0.14522 0.02689 0.0
C1033 C 0.27732 0.1461 0.05899 0.0
C1034 C 0.28965 0.12946 0.05198 0.0
C1035 C 0.2879 0.16393 0.05182 0.0
C1036 C 0.26808 0.14563 0.10639 0.0
C1037 C 0.24941 0.14432 0.10165 0.0
C1038 C 0.23799 0.14351 0.14052 0.0
C1039 C 0.2458 0.14439 0.18531 0.0
C1040 C 0.26485 0.14638 0.191 0.0
C1041 C 0.2761 0.14687 0.15086 0.0
H1042 H 0.63786 0.51071 0.92367 0.0
H1043 H 0.57997 0.51723 0.94635 0.0
H1044 H 0.57388 0.50545 0.8667 0.0
H1045 H 0.63655 0.52617 0.80205 0.0
H1046 H 0.65415 0.51083 0.78303 0.0
H1047 H 0.6539 0.51896 0.84255 0.0
H1048 H 0.65396 0.48572 0.87243 0.0
H1049 H 0.65395 0.4775 0.81296 0.0
H1050 H 0.63644 0.4703 0.8531 0.0
H1051 H 0.57396 0.49114 0.78717 0.0
H1052 H 0.58007 0.48078 0.70653 0.0
H1053 H 0.63802 0.48679 0.73042 0.0
C1054 C 0.62395 0.50973 0.91152 0.0
C1055 C 0.60933 0.5148 0.94091 0.0
C1056 C 0.5913 0.5135 0.92406 0.0
C1057 C 0.58773 0.50669 0.8791 0.0
C1058 C 0.60237 0.50162 0.85102 0.0
C1059 C 0.62015 0.50351 0.86597 0.0
C1060 C 0.63335 0.4982 0.82736 0.0
C1061 C 0.64518 0.51451 0.81289 0.0
C1062 C 0.64512 0.48196 0.84238 0.0
C1063 C 0.62021 0.4929 0.78864 0.0
C1064 C 0.60242 0.49459 0.80357 0.0
C1065 C 0.58782 0.48994 0.7749 0.0
C1066 C 0.59145 0.4839 0.72925 0.0
C1067 C 0.60951 0.48296 0.71218 0.0
C1068 C 0.62408 0.48739 0.74252 0.0
H1069 H 0.21746 0.85791 0.66356 0.0
H1070 H 0.27164 0.86038 0.72337 0.0
H1071 H 0.2847 0.86389 0.6443 0.0
H1072 H 0.22873 0.83287 0.56131 0.0
H1073 H 0.21365 0.84522 0.52311 0.0
H1074 H 0.20847 0.84328 0.58456 0.0
H1075 H 0.20679 0.87836 0.59124 0.0
H1076 H 0.21194 0.8804 0.52973 0.0
H1077 H 0.22586 0.89193 0.5724 0.0
H1078 H 0.29212 0.86433 0.55809 0.0
H1079 H 0.29295 0.86467 0.47122 0.0
H1080 H 0.23402 0.86461 0.468 0.0
C1081 C 0.23205 0.85932 0.65998 0.0
C1082 C 0.24352 0.85884 0.69964 0.0
C1083 C 0.26255 0.86081 0.69353 0.0
C1084 C 0.27013 0.86275 0.64873 0.0
C1085 C 0.25848 0.86304 0.61032 0.0
C1086 C 0.23983 0.86166 0.61549 0.0
C1087 C 0.23037 0.86252 0.5684 0.0
C1088 C 0.21968 0.84493 0.5588 0.0
C1089 C 0.21801 0.8793 0.56527 0.0
C1090 C 0.24662 0.86426 0.53602 0.0
C1091 C 0.26274 0.86436 0.56083 0.0
C1092 C 0.27958 0.86461 0.53829 0.0
C1093 C 0.27995 0.86476 0.48905 0.0
C1094 C 0.26358 0.86502 0.4631 0.0
C1095 C 0.24675 0.8649 0.48704 0.0
H1096 H 0.60664 0.02837 0.20686 0.0
H1097 H 0.6216 0.97656 0.14548 0.0
H1098 H 0.62377 0.96307 0.22437 0.0
H1099 H 0.63732 0.02443 0.30835 0.0
H1100 H 0.62158 0.03552 0.34739 0.0
H1101 H 0.62176 0.04123 0.28599 0.0
H1102 H 0.58741 0.03361 0.28076 0.0
H1103 H 0.58716 0.02776 0.342 0.0
H1104 H 0.57953 0.01151 0.29903 0.0
H1105 H 0.62122 0.95437 0.30975 0.0
H1106 H 0.6177 0.95226 0.39603 0.0
H1107 H 0.60701 0.01016 0.40196 0.0
C1108 C 0.6106 0.01426 0.21012 0.0
C1109 C 0.61395 1.00353 0.17001 0.0
C1110 C 0.61911 0.9851 0.1757 0.0
C1111 C 0.6203 0.97727 0.22038 0.0
C1112 C 0.61664 0.98812 0.25919 0.0
C1113 C 0.61225 0.00631 0.25459 0.0
C1114 C 0.60914 0.01498 0.30204 0.0
C1115 C 0.62329 0.02992 0.31149 0.0
C1116 C 0.58965 0.02239 0.30618 0.0
C1117 C 0.61202 0.99874 0.33383 0.0
C1118 C 0.61619 0.98332 0.30847 0.0
C1119 C 0.6183 0.96643 0.33009 0.0
C1120 C 0.61622 0.96532 0.37899 0.0
C1121 C 0.61239 0.98106 0.40562 0.0
C1122 C 0.61034 0.99795 0.38258 0.0
H1123 H 0.23595 0.36527 0.46832 0.0
H1124 H 0.28833 0.37942 0.4083 0.0
H1125 H 0.3019 0.37978 0.48718 0.0
H1126 H 0.24084 0.39386 0.5728 0.0
H1127 H 0.22931 0.37781 0.61019 0.0
H1128 H 0.22361 0.37909 0.5489 0.0
H1129 H 0.23028 0.34469 0.54005 0.0
H1130 H 0.23613 0.34334 0.60119 0.0
H1131 H 0.25217 0.33598 0.55737 0.0
H1132 H 0.31049 0.37587 0.57221 0.0
H1133 H 0.3124 0.37151 0.65829 0.0
H1134 H 0.2542 0.36222 0.66318 0.0
C1135 C 0.25022 0.36864 0.47186 0.0
C1136 C 0.26105 0.37231 0.43207 0.0
C1137 C 0.27969 0.37668 0.43822 0.0
C1138 C 0.28758 0.37684 0.48291 0.0
C1139 C 0.27662 0.37289 0.52133 0.0
C1140 C 0.25827 0.3692 0.51638 0.0
C1141 C 0.24951 0.36558 0.5635 0.0
C1142 C 0.23496 0.37994 0.57449 0.0
C1143 C 0.24156 0.34625 0.56563 0.0
C1144 C 0.26584 0.36753 0.59546 0.0
C1145 C 0.2814 0.37156 0.57048 0.0
C1146 C 0.29834 0.373 0.59228 0.0
C1147 C 0.29933 0.37044 0.64104 0.0
C1148 C 0.28344 0.3668 0.66732 0.0
C1149 C 0.26653 0.36535 0.64406 0.0
H1150 H 0.90924 0.99471 0.9204 0.0
H1151 H 0.88536 0.04854 0.91985 0.0
H1152 H 0.87931 0.04572 0.83498 0.0
H1153 H 0.93273 1.00026 0.81343 0.0
H1154 H 0.9299 0.97714 0.79387 0.0
H1155 H 0.93015 0.98219 0.85558 0.0
H1156 H 0.89881 0.96657 0.86517 0.0
H1157 H 0.89846 0.96147 0.80339 0.0
H1158 H 0.87996 0.97391 0.82955 0.0
H1159 H 0.87719 0.03796 0.75067 0.0
H1160 H 0.88142 0.02718 0.67008 0.0
H1161 H 0.90859 0.97884 0.72218 0.0
C1162 C 0.90234 0.00569 0.90247 0.0
C1163 C 0.89743 0.02174 0.9267 0.0
C1164 C 0.88905 0.0361 0.90194 0.0
C1165 C 0.8855 0.03458 0.85383 0.0
C1166 C 0.89069 0.0187 0.83077 0.0
C1167 C 0.89909 1.00455 0.85404 0.0
C1168 C 0.90491 0.9898 0.81984 0.0
C1169 C 0.92565 0.9872 0.82074 0.0
C1170 C 0.89493 0.97187 0.83011 0.0
C1171 C 0.89866 0.99799 0.7737 0.0
C1172 C 0.89022 0.01452 0.78119 0.0
C1173 C 0.88372 0.02502 0.74437 0.0
C1174 C 0.88623 0.01873 0.69856 0.0
C1175 C 0.89538 1.00213 0.68949 0.0
C1176 C 0.9014 0.99148 0.72782 0.0
H1177 H 0.28105 0.65098 0.99083 0.0
H1178 H 0.24075 0.61111 0.94791 0.0
H1179 H 0.23033 0.6083 0.02918 0.0
H1180 H 0.29118 0.62907 0.1064 0.0
H1181 H 0.29392 0.65061 0.13561 0.0
H1182 H 0.29951 0.64848 0.07435 0.0
H1183 H 0.2776 0.67496 0.05511 0.0
H1184 H 0.2718 0.67705 0.11615 0.0
H1185 H 0.25417 0.67351 0.07326 0.0
H1186 H 0.22102 0.6129 0.11169 0.0
H1187 H 0.21621 0.62182 0.19437 0.0
H1188 H 0.26377 0.65653 0.18788 0.0
C1189 C 0.27037 0.64133 0.99877 0.0
C1190 C 0.26172 0.63134 0.96266 0.0
C1191 C 0.24761 0.619 0.97463 0.0
C1192 C 0.24154 0.61727 0.02084 0.0
C1193 C 0.24987 0.62772 0.05525 0.0
C1194 C 0.26422 0.63923 0.04521 0.0
C1195 C 0.27031 0.64923 0.08908 0.0
C1196 C 0.28989 0.64403 0.10213 0.0
C1197 C 0.26835 0.66991 0.08302 0.0
C1198 C 0.25679 0.6419 0.1247 0.0
C1199 C 0.24506 0.62959 0.10419 0.0
C1200 C 0.23038 0.62216 0.12856 0.0
C1201 C 0.22769 0.62735 0.17531 0.0
C1202 C 0.2398 0.63954 0.19741 0.0
C1203 C 0.25461 0.64681 0.17191 0.0
H1204 H 0.39588 0.00842 0.90673 0.0
H1205 H 0.38135 0.95137 0.90041 0.0
H1206 H 0.37746 0.95392 0.81426 0.0
H1207 H 0.36617 0.02498 0.81526 0.0
H1208 H 0.3827 0.04078 0.79249 0.0
H1209 H 0.383 0.03474 0.85367 0.0
H1210 H 0.41662 0.02466 0.84625 0.0
H1211 H 0.41645 0.03073 0.78515 0.0
H1212 H 0.42278 0.00807 0.80258 0.0
H1213 H 0.37473 0.96308 0.72904 0.0
H1214 H 0.37707 0.9767 0.6503 0.0
H1215 H 0.396 0.02721 0.71187 0.0
C1216 C 0.39166 0.99651 0.88726 0.0
C1217 C 0.38861 0.97974 0.91016 0.0
C1218 C 0.38362 0.96434 0.88345 0.0
C1219 C 0.38132 0.96571 0.83464 0.0
C1220 C 0.3844 0.98249 0.81316 0.0
C1221 C 0.38975 0.99754 0.83856 0.0
C1222 C 0.39353 0.01364 0.80682 0.0
C1223 C 0.38057 0.02947 0.81772 0.0
C1224 C 0.41353 0.01962 0.81042 0.0
C1225 C 0.38944 0.00534 0.75942 0.0
C1226 C 0.38389 0.98746 0.76394 0.0
C1227 C 0.37914 0.97703 0.72513 0.0
C1228 C 0.38043 0.98495 0.68052 0.0
C1229 C 0.38674 1.00304 0.67486 0.0
C1230 C 0.39116 0.01337 0.71503 0.0
H1231 H 0.73491 0.64885 0.46203 0.0
H1232 H 0.78947 0.64976 0.40401 0.0
H1233 H 0.80228 0.64778 0.48361 0.0
H1234 H 0.7438 0.67577 0.56153 0.0
H1235 H 0.72941 0.66297 0.60063 0.0
H1236 H 0.72444 0.66355 0.53891 0.0
H1237 H 0.72529 0.62836 0.53587 0.0
H1238 H 0.73019 0.62768 0.59771 0.0
H1239 H 0.74514 0.61652 0.55676 0.0
H1240 H 0.80922 0.64893 0.57006 0.0
H1241 H 0.80953 0.65015 0.65688 0.0
H1242 H 0.7507 0.6462 0.65819 0.0
C1243 C 0.74954 0.6484 0.46605 0.0
C1244 C 0.76116 0.64947 0.42673 0.0
C1245 C 0.78026 0.64886 0.43353 0.0
C1246 C 0.78769 0.64778 0.47866 0.0
C1247 C 0.77588 0.64703 0.51671 0.0
C1248 C 0.75722 0.64702 0.51088 0.0
C1249 C 0.74756 0.64623 0.55771 0.0
C1250 C 0.7356 0.66314 0.56511 0.0
C1251 C 0.73639 0.62865 0.56227 0.0
C1252 C 0.7637 0.64619 0.59069 0.0
C1253 C 0.77993 0.64677 0.56642 0.0
C1254 C 0.79661 0.64812 0.58949 0.0
C1255 C 0.79668 0.64886 0.6387 0.0
C1256 C 0.7802 0.64795 0.66414 0.0
C1257 C 0.76355 0.64647 0.63966 0.0
H1258 H 0.11448 0.99799 0.41473 0.0
H1259 H 0.12463 0.05596 0.40892 0.0
H1260 H 0.12792 0.05396 0.32237 0.0
H1261 H 0.14467 0.98394 0.32399 0.0
H1262 H 0.12948 0.96692 0.30092 0.0
H1263 H 0.1285 0.97291 0.36205 0.0
H1264 H 0.09423 0.98046 0.35405 0.0
H1265 H 0.09506 0.97432 0.29301 0.0
H1266 H 0.08696 0.99646 0.31005 0.0
H1267 H 0.13179 0.04491 0.23715 0.0
H1268 H 0.13141 0.03084 0.15863 0.0
H1269 H 0.11587 0.97922 0.22035 0.0
C1270 C 0.11744 0.01026 0.39517 0.0
C1271 C 0.11957 0.02711 0.41816 0.0
C1272 C 0.12302 0.04296 0.39166 0.0
C1273 C 0.12499 0.0419 0.3427 0.0
C1274 C 0.12305 0.02496 0.32111 0.0
C1275 C 0.11896 0.00951 0.34647 0.0
C1276 C 0.11654 0.99314 0.31491 0.0
C1277 C 0.13064 0.97836 0.32615 0.0
C1278 C 0.09704 0.98566 0.3182 0.0
C1279 C 0.12012 1.00171 0.26765 0.0
C1280 C 0.12414 0.02 0.27204 0.0
C1281 C 0.1285 0.03065 0.23331 0.0
C1282 C 0.12837 0.02249 0.18891 0.0
C1283 C 0.12359 1.00394 0.18348 0.0
C1284 C 0.11951 0.99344 0.22348 0.0
H1285 H 0.72348 0.3547 0.15343 0.0
H1286 H 0.77617 0.36588 0.21552 0.0
H1287 H 0.78979 0.36779 0.13668 0.0
H1288 H 0.73894 0.32708 0.06018 0.0
H1289 H 0.7231 0.33581 0.01761 0.0
H1290 H 0.7173 0.33598 0.07889 0.0
H1291 H 0.71154 0.37068 0.07499 0.0
H1292 H 0.71724 0.37059 0.01358 0.0
H1293 H 0.72917 0.38548 0.05322 0.0
H1294 H 0.79829 0.36565 0.05078 0.0
H1295 H 0.80019 0.36261 0.96435 0.0
H1296 H 0.74176 0.35508 0.95823 0.0
C1297 C 0.73784 0.35776 0.15043 0.0
C1298 C 0.74873 0.36013 0.1908 0.0
C1299 C 0.76748 0.36411 0.18523 0.0
C1300 C 0.77539 0.36516 0.14053 0.0
C1301 C 0.76434 0.36249 0.1015 0.0
C1302 C 0.74591 0.35917 0.10597 0.0
C1303 C 0.73708 0.35682 0.05837 0.0
C1304 C 0.72861 0.33779 0.0535 0.0
C1305 C 0.72292 0.37179 0.04953 0.0
C1306 C 0.75346 0.35904 0.02656 0.0
C1307 C 0.7691 0.36215 0.05207 0.0
C1308 C 0.78607 0.36352 0.03039 0.0
C1309 C 0.78705 0.36173 0.98135 0.0
C1310 C 0.77112 0.3589 0.95454 0.0
C1311 C 0.75414 0.35764 0.97767 0.0
H1312 H 0.09229 0.48794 0.42048 0.0
H1313 H 0.08845 0.5468 0.42429 0.0
H1314 H 0.08743 0.54757 0.33794 0.0
H1315 H 0.12132 0.48487 0.32437 0.0
H1316 H 0.11081 0.46499 0.29934 0.0
H1317 H 0.1096 0.46887 0.3615 0.0
H1318 H 0.07442 0.46701 0.35832 0.0
H1319 H 0.07553 0.46295 0.29612 0.0
H1320 H 0.06213 0.48151 0.31853 0.0
H1321 H 0.09034 0.54218 0.25169 0.0
H1322 H 0.09436 0.53066 0.17093 0.0
H1323 H 0.09494 0.47537 0.22384 0.0
C1324 C 0.09094 0.50097 0.40317 0.0
C1325 C 0.09045 0.5173 0.42897 0.0
C1326 C 0.08873 0.5341 0.40514 0.0
C1327 C 0.08818 0.53469 0.35614 0.0
C1328 C 0.08909 0.51836 0.33169 0.0
C1329 C 0.09016 0.50179 0.35437 0.0
C1330 C 0.09157 0.48627 0.31991 0.0
C1331 C 0.10939 0.47563 0.3267 0.0
C1332 C 0.07492 0.4737 0.32343 0.0
C1333 C 0.09163 0.49674 0.27438 0.0
C1334 C 0.0902 0.51523 0.28187 0.0
C1335 C 0.09115 0.52771 0.24525 0.0
C1336 C 0.09355 0.52107 0.19965 0.0
C1337 C 0.0948 0.50216 0.19135 0.0
C1338 C 0.09371 0.48989 0.22918 0.0
H1339 H 0.72743 0.8573 0.67125 0.0
H1340 H 0.78271 0.85255 0.72282 0.0
H1341 H 0.79416 0.85276 0.64133 0.0
H1342 H 0.7327 0.82988 0.5662 0.0
H1343 H 0.71843 0.84448 0.53137 0.0
H1344 H 0.71456 0.84249 0.5935 0.0
H1345 H 0.71746 0.87744 0.60216 0.0
H1346 H 0.72143 0.87955 0.54016 0.0
H1347 H 0.73766 0.88869 0.58118 0.0
H1348 H 0.79947 0.85381 0.55525 0.0
H1349 H 0.79864 0.85728 0.46932 0.0
H1350 H 0.73996 0.86326 0.47451 0.0
C1351 C 0.74191 0.85601 0.66527 0.0
C1352 C 0.75424 0.85472 0.70289 0.0
C1353 C 0.77312 0.8535 0.69413 0.0
C1354 C 0.77971 0.85356 0.64814 0.0
C1355 C 0.7672 0.85505 0.61174 0.0
C1356 C 0.74872 0.85638 0.61974 0.0
C1357 C 0.73828 0.85899 0.57466 0.0
C1358 C 0.72523 0.843 0.56593 0.0
C1359 C 0.72812 0.87725 0.57456 0.0
C1360 C 0.7538 0.85899 0.54002 0.0
C1361 C 0.77033 0.85648 0.56211 0.0
C1362 C 0.78663 0.8558 0.53748 0.0
C1363 C 0.78601 0.85775 0.4888 0.0
C1364 C 0.76923 0.86058 0.46561 0.0
C1365 C 0.75296 0.86125 0.49155 0.0
H1366 H 0.41943 0.49858 0.72839 0.0
H1367 H 0.41685 0.55747 0.72309 0.0
H1368 H 0.41522 0.55857 0.80942 0.0
H1369 H 0.38838 0.49231 0.81954 0.0
H1370 H 0.40046 0.47387 0.84704 0.0
H1371 H 0.40281 0.47771 0.78506 0.0
H1372 H 0.43781 0.48007 0.79412 0.0
H1373 H 0.43558 0.47603 0.85613 0.0
H1374 H 0.44728 0.49601 0.83542 0.0
H1375 H 0.41051 0.55303 0.89541 0.0
H1376 H 0.40638 0.54127 0.97602 0.0
H1377 H 0.4136 0.48624 0.92472 0.0
C1378 C 0.41882 0.51171 0.74545 0.0
C1379 C 0.41827 0.52793 0.71921 0.0
C1380 C 0.41743 0.54488 0.74266 0.0
C1381 C 0.41643 0.54565 0.79162 0.0
C1382 C 0.41657 0.52937 0.81644 0.0
C1383 C 0.41806 0.51274 0.79423 0.0
C1384 C 0.41759 0.49723 0.82893 0.0
C1385 C 0.40134 0.48454 0.81957 0.0
C1386 C 0.43564 0.48672 0.82863 0.0
C1387 C 0.41515 0.50773 0.87398 0.0
C1388 C 0.41451 0.52624 0.8661 0.0
C1389 C 0.41128 0.53859 0.90218 0.0
C1390 C 0.40884 0.5318 0.94767 0.0
C1391 C 0.40984 0.51291 0.95641 0.0
C1392 C 0.41305 0.50079 0.91906 0.0
H1393 H 0.77737 0.14446 0.16807 0.0
H1394 H 0.72254 0.14434 0.22402 0.0
H1395 H 0.71019 0.1465 0.14353 0.0
H1396 H 0.77006 0.17531 0.07279 0.0
H1397 H 0.78442 0.16305 0.03258 0.0
H1398 H 0.78891 0.16215 0.09457 0.0
H1399 H 0.7872 0.12698 0.09245 0.0
H1400 H 0.7828 0.12775 0.03041 0.0
H1401 H 0.76723 0.11609 0.06887 0.0
H1402 H 0.70406 0.15 0.0576 0.0
H1403 H 0.70428 0.15088 0.97095 0.0
H1404 H 0.76306 0.14617 0.97145 0.0
C1405 C 0.76277 0.14496 0.16325 0.0
C1406 C 0.75084 0.14439 0.20183 0.0
C1407 C 0.73183 0.14474 0.19457 0.0
C1408 C 0.72473 0.14606 0.14917 0.0
C1409 C 0.73688 0.14669 0.11175 0.0
C1410 C 0.75548 0.14585 0.11824 0.0
C1411 C 0.76555 0.14583 0.07208 0.0
C1412 C 0.77796 0.16259 0.06777 0.0
C1413 C 0.77632 0.12811 0.06558 0.0
C1414 C 0.7497 0.14691 0.03856 0.0
C1415 C 0.7333 0.14768 0.06215 0.0
C1416 C 0.71679 0.14928 0.03868 0.0
C1417 C 0.71705 0.14987 0.98965 0.0
C1418 C 0.73368 0.14852 0.96497 0.0
C1419 C 0.75018 0.14707 0.98971 0.0
H1420 H 0.89562 0.52071 0.73002 0.0
H1421 H 0.89485 0.46179 0.72446 0.0
H1422 H 0.89485 0.46052 0.81103 0.0
H1423 H 0.92642 0.52375 0.82687 0.0
H1424 H 0.91553 0.54342 0.85188 0.0
H1425 H 0.91463 0.53962 0.78961 0.0
H1426 H 0.87941 0.54108 0.79228 0.0
H1427 H 0.88021 0.54487 0.85459 0.0
H1428 H 0.86716 0.5262 0.83133 0.0
H1429 H 0.89391 0.4658 0.8978 0.0
H1430 H 0.89491 0.47735 0.97934 0.0
H1431 H 0.89852 0.53256 0.92681 0.0
C1432 C 0.89535 0.50757 0.74714 0.0
C1433 C 0.89514 0.49136 0.72107 0.0
C1434 C 0.89508 0.47436 0.74424 0.0
C1435 C 0.89499 0.4735 0.7932 0.0
C1436 C 0.89523 0.48976 0.81804 0.0
C1437 C 0.89563 0.50647 0.79583 0.0
C1438 C 0.89667 0.5219 0.83054 0.0
C1439 C 0.91437 0.53281 0.82435 0.0
C1440 C 0.87986 0.53423 0.82696 0.0
C1441 C 0.89672 0.51125 0.87571 0.0
C1442 C 0.89564 0.49276 0.86787 0.0
C1443 C 0.89491 0.48025 0.90447 0.0
C1444 C 0.89543 0.48688 0.95045 0.0
C1445 C 0.89699 0.50575 0.95885 0.0
C1446 C 0.89762 0.51803 0.92108 0.0
H1447 H 0.23925 0.15953 0.65885 0.0
H1448 H 0.29424 0.15412 0.71189 0.0
H1449 H 0.30625 0.15787 0.63137 0.0
H1450 H 0.24654 0.13362 0.55517 0.0
H1451 H 0.23162 0.14732 0.51969 0.0
H1452 H 0.22765 0.14535 0.58171 0.0
H1453 H 0.22871 0.18044 0.58947 0.0
H1454 H 0.23285 0.18252 0.52747 0.0
H1455 H 0.24838 0.19267 0.56873 0.0
H1456 H 0.31207 0.16255 0.54526 0.0
H1457 H 0.31126 0.16407 0.45875 0.0
H1458 H 0.25229 0.16463 0.46263 0.0
C1459 C 0.25383 0.15926 0.65352 0.0
C1460 C 0.26588 0.1567 0.69133 0.0
C1461 C 0.28483 0.15606 0.68313 0.0
C1462 C 0.29176 0.1583 0.63771 0.0
C1463 C 0.27948 0.16094 0.60115 0.0
C1464 C 0.26092 0.16115 0.6085 0.0
C1465 C 0.25056 0.16302 0.56305 0.0
C1466 C 0.23838 0.14633 0.5544 0.0
C1467 C 0.23947 0.18072 0.56215 0.0
C1468 C 0.26621 0.16375 0.52883 0.0
C1469 C 0.28279 0.16284 0.5515 0.0
C1470 C 0.29918 0.16326 0.5271 0.0
C1471 C 0.29858 0.16423 0.47809 0.0
C1472 C 0.2817 0.16447 0.45427 0.0
C1473 C 0.26536 0.16444 0.48005 0.0
H1474 H 0.6083 0.49039 0.21727 0.0
H1475 H 0.62231 0.54767 0.21862 0.0
H1476 H 0.62701 0.54633 0.30413 0.0
H1477 H 0.5825 0.49166 0.32301 0.0
H1478 H 0.58946 0.46945 0.34265 0.0
H1479 H 0.5887 0.47447 0.28095 0.0
H1480 H 0.62249 0.46501 0.27292 0.0
H1481 H 0.62336 0.46001 0.33469 0.0
H1482 H 0.63938 0.47575 0.30938 0.0
H1483 H 0.63015 0.53893 0.38901 0.0
H1484 H 0.62856 0.52657 0.46949 0.0
H1485 H 0.61043 0.47473 0.41396 0.0
C1486 C 0.61252 0.50255 0.23567 0.0
C1487 C 0.61502 0.5191 0.21164 0.0
C1488 C 0.62024 0.53488 0.23667 0.0
C1489 C 0.62307 0.53423 0.2851 0.0
C1490 C 0.62038 0.51776 0.30797 0.0
C1491 C 0.61502 0.50224 0.28429 0.0
C1492 C 0.61183 0.48664 0.31787 0.0
C1493 C 0.59194 0.48019 0.31601 0.0
C1494 C 0.62506 0.47093 0.30813 0.0
C1495 C 0.6161 0.49587 0.36398 0.0
C1496 C 0.62133 0.51372 0.35739 0.0
C1497 C 0.62605 0.52498 0.39472 0.0
C1498 C 0.62516 0.51785 0.4402 0.0
C1499 C 0.61928 0.49979 0.44776 0.0
C1500 C 0.61483 0.48866 0.40911 0.0
H1501 H 0.2558 0.84389 0.97307 0.0
H1502 H 0.19687 0.84478 0.96719 0.0
H1503 H 0.19563 0.84899 0.05311 0.0
H1504 H 0.25899 0.81913 0.08378 0.0
H1505 H 0.27873 0.83174 0.1024 0.0
H1506 H 0.27468 0.82801 0.04092 0.0
H1507 H 0.27624 0.86278 0.02661 0.0
H1508 H 0.28001 0.86663 0.08812 0.0
H1509 H 0.26129 0.87762 0.05887 0.0
H1510 H 0.20112 0.85576 0.13876 0.0
H1511 H 0.21289 0.8607 0.21916 0.0
H1512 H 0.268 0.85398 0.16782 0.0
C1513 C 0.24264 0.84472 0.98999 0.0
C1514 C 0.22644 0.84399 0.96381 0.0
C1515 C 0.20944 0.84511 0.98693 0.0
C1516 C 0.2086 0.84763 0.03555 0.0
C1517 C 0.22488 0.84872 0.06028 0.0
C1518 C 0.24156 0.84696 0.03838 0.0
C1519 C 0.25706 0.84858 0.07275 0.0
C1520 C 0.268 0.8308 0.0751 0.0
C1521 C 0.26937 0.86487 0.06086 0.0
C1522 C 0.24652 0.85181 0.11733 0.0
C1523 C 0.22799 0.85201 0.10952 0.0
C1524 C 0.2156 0.85542 0.14544 0.0
C1525 C 0.22238 0.85834 0.19077 0.0
C1526 C 0.24129 0.85758 0.19944 0.0
C1527 C 0.25345 0.85442 0.16216 0.0
H1528 H 0.60192 0.97336 0.70119 0.0
H1529 H 0.59165 0.02745 0.6469 0.0
H1530 H 0.58863 0.03909 0.72783 0.0
H1531 H 0.57186 0.9755 0.80209 0.0
H1532 H 0.58735 0.96332 0.83957 0.0
H1533 H 0.58725 0.95901 0.77743 0.0
H1534 H 0.6217 0.96629 0.77349 0.0
H1535 H 0.62192 0.97064 0.83556 0.0
H1536 H 0.62986 0.98779 0.79534 0.0
H1537 H 0.58691 0.04473 0.81398 0.0
H1538 H 0.58899 0.04468 0.90032 0.0
H1539 H 0.60245 0.98727 0.89801 0.0
C1540 C 0.59878 0.9876 0.70644 0.0
C1541 C 0.59682 0.99953 0.66819 0.0
C1542 C 0.59316 0.01815 0.67606 0.0
C1543 C 0.59135 0.02484 0.72174 0.0
C1544 C 0.59349 0.01273 0.75882 0.0
C1545 C 0.5973 0.99455 0.75172 0.0
C1546 C 0.6002 0.98467 0.79756 0.0
C1547 C 0.5858 0.96975 0.80456 0.0
C1548 C 0.61957 0.9769 0.80065 0.0
C1549 C 0.59749 1.00017 0.83157 0.0
C1550 C 0.59336 0.01617 0.80853 0.0
C1551 C 0.59014 0.03231 0.83248 0.0
C1552 C 0.5913 0.03213 0.8814 0.0
C1553 C 0.59592 0.01597 0.90554 0.0
C1554 C 0.599 0.99982 0.88028 0.0
H1555 H 0.27586 0.36197 0.15929 0.0
H1556 H 0.21744 0.35355 0.16146 0.0
H1557 H 0.21738 0.3505 0.07535 0.0
H1558 H 0.27786 0.38807 0.05425 0.0
H1559 H 0.29868 0.37789 0.0338 0.0
H1560 H 0.29413 0.3793 0.09568 0.0
H1561 H 0.29845 0.34445 0.10323 0.0
H1562 H 0.30297 0.34294 0.04131 0.0
H1563 H 0.28511 0.32943 0.06703 0.0
H1564 H 0.22337 0.35017 0.98944 0.0
H1565 H 0.23539 0.35085 0.90856 0.0
H1566 H 0.29008 0.35757 0.9629 0.0
C1567 C 0.26308 0.3595 0.14156 0.0
C1568 C 0.24666 0.35804 0.16672 0.0
C1569 C 0.23018 0.35463 0.14262 0.0
C1570 C 0.23 0.35291 0.09382 0.0
C1571 C 0.24643 0.3544 0.06999 0.0
C1572 C 0.26269 0.35745 0.09298 0.0
C1573 C 0.27845 0.35832 0.05904 0.0
C1574 C 0.28782 0.37701 0.06081 0.0
C1575 C 0.29204 0.34286 0.06821 0.0
C1576 C 0.26845 0.35556 0.01335 0.0
C1577 C 0.24998 0.35342 0.02043 0.0
C1578 C 0.23782 0.35161 0.98337 0.0
C1579 C 0.24474 0.35206 0.93772 0.0
C1580 C 0.26362 0.35408 0.92987 0.0
C1581 C 0.27561 0.35568 0.96814 0.0
H1582 H 0.91146 0.9799 0.39849 0.0
H1583 H 0.9344 0.03067 0.44798 0.0
H1584 H 0.94098 0.03977 0.36642 0.0
H1585 H 0.94149 0.97369 0.29421 0.0
H1586 H 0.9231 0.96536 0.2584 0.0
H1587 H 0.92297 0.96135 0.32073 0.0
H1588 H 0.89125 0.97642 0.32687 0.0
H1589 H 0.89129 0.98051 0.26473 0.0
H1590 H 0.88812 0.99917 0.30482 0.0
H1591 H 0.94267 0.04457 0.28151 0.0
H1592 H 0.93756 0.04616 0.19671 0.0
H1593 H 0.91177 0.99301 0.20009 0.0
C1594 C 0.91831 0.99269 0.39191 0.0
C1595 C 0.92271 1.00455 0.42903 0.0
C1596 C 0.93108 0.02145 0.41965 0.0
C1597 C 0.93495 0.02664 0.37361 0.0
C1598 C 0.93015 0.01484 0.33752 0.0
C1599 C 0.9219 0.99827 0.34593 0.0
C1600 C 0.91618 0.98923 0.3005 0.0
C1601 C 0.92656 0.97135 0.29303 0.0
C1602 C 0.89548 0.98616 0.29917 0.0
C1603 C 0.92207 1.00356 0.26546 0.0
C1604 C 0.93043 0.018 0.28772 0.0
C1605 C 0.93629 0.0333 0.26353 0.0
C1606 C 0.93324 0.03408 0.21531 0.0
C1607 C 0.9242 0.01972 0.19172 0.0
C1608 C 0.91884 1.00411 0.21708 0.0
H1609 H 0.27744 0.65103 0.66868 0.0
H1610 H 0.22198 0.65159 0.72043 0.0
H1611 H 0.21078 0.65775 0.64045 0.0
H1612 H 0.27236 0.68574 0.57785 0.0
H1613 H 0.2865 0.67388 0.53635 0.0
H1614 H 0.29047 0.6713 0.59832 0.0
H1615 H 0.28738 0.63636 0.59032 0.0
H1616 H 0.2835 0.63881 0.52837 0.0
H1617 H 0.26717 0.62691 0.56414 0.0
H1618 H 0.20554 0.6633 0.55645 0.0
H1619 H 0.20584 0.66438 0.47054 0.0
H1620 H 0.26458 0.65806 0.47092 0.0
C1621 C 0.26297 0.65267 0.66303 0.0
C1622 C 0.25051 0.65102 0.70036 0.0
C1623 C 0.23166 0.65282 0.69198 0.0
C1624 C 0.22522 0.65644 0.64688 0.0
C1625 C 0.23782 0.65796 0.61069 0.0
C1626 C 0.25627 0.65588 0.61796 0.0
C1627 C 0.26667 0.65656 0.57214 0.0
C1628 C 0.27977 0.67284 0.57112 0.0
C1629 C 0.27677 0.63859 0.56323 0.0
C1630 C 0.25112 0.65914 0.53801 0.0
C1631 C 0.23468 0.66029 0.56128 0.0
C1632 C 0.21831 0.66246 0.53773 0.0
C1633 C 0.21866 0.6631 0.48886 0.0
C1634 C 0.23525 0.66129 0.46399 0.0
C1635 C 0.25172 0.65952 0.489 0.0
H1636 H 0.39915 0.97162 0.20616 0.0
H1637 H 0.41062 0.02539 0.15117 0.0
H1638 H 0.41376 0.03715 0.23193 0.0
H1639 H 0.37128 0.98681 0.29947 0.0
H1640 H 0.37871 0.96966 0.34026 0.0
H1641 H 0.37909 0.9651 0.2783 0.0
H1642 H 0.41338 0.95724 0.28323 0.0
H1643 H 0.41311 0.96175 0.34528 0.0
H1644 H 0.42899 0.97353 0.30793 0.0
H1645 H 0.41531 0.04304 0.31795 0.0
H1646 H 0.4128 0.04336 0.40421 0.0
H1647 H 0.39817 0.9862 0.4029 0.0
C1648 C 0.4026 0.9858 0.21125 0.0
C1649 C 0.40485 0.99762 0.17282 0.0
C1650 C 0.4089 0.01618 0.18046 0.0
C1651 C 0.41078 0.02294 0.22605 0.0
C1652 C 0.40831 0.01097 0.26332 0.0
C1653 C 0.40414 0.99284 0.25648 0.0
C1654 C 0.40086 0.98318 0.3025 0.0
C1655 C 0.38133 0.97576 0.30528 0.0
C1656 C 0.41493 0.96803 0.31018 0.0
C1657 C 0.40374 0.99875 0.33627 0.0
C1658 C 0.40831 0.01457 0.31298 0.0
C1659 C 0.41174 0.03075 0.33665 0.0
C1660 C 0.41032 0.03078 0.38555 0.0
C1661 C 0.40525 0.01481 0.40996 0.0
C1662 C 0.40196 0.99861 0.38498 0.0
H1663 H 0.77209 0.66864 0.1537 0.0
H1664 H 0.71325 0.66524 0.16129 0.0
H1665 H 0.71172 0.66275 0.07512 0.0
H1666 H 0.77383 0.69544 0.04526 0.0
H1667 H 0.79387 0.68384 0.02468 0.0
H1668 H 0.79005 0.68654 0.08664 0.0
H1669 H 0.79286 0.65166 0.09756 0.0
H1670 H 0.79642 0.64883 0.0356 0.0
H1671 H 0.77824 0.63677 0.06442 0.0
H1672 H 0.71693 0.65752 0.98892 0.0
H1673 H 0.72844 0.65354 0.90791 0.0
H1674 H 0.78358 0.66163 0.95785 0.0
C1675 C 0.75888 0.66767 0.13716 0.0
C1676 C 0.74281 0.66715 0.16394 0.0
C1677 C 0.72574 0.66584 0.14122 0.0
C1678 C 0.72472 0.66431 0.09238 0.0
C1679 C 0.74088 0.6644 0.06703 0.0
C1680 C 0.75761 0.66637 0.08856 0.0
C1681 C 0.77296 0.66581 0.05351 0.0
C1682 C 0.78328 0.68399 0.05246 0.0
C1683 C 0.78587 0.64981 0.06338 0.0
C1684 C 0.76228 0.66285 0.00903 0.0
C1685 C 0.74381 0.66196 0.01742 0.0
C1686 C 0.73134 0.65844 0.98175 0.0
C1687 C 0.73798 0.65608 0.93607 0.0
C1688 C 0.75683 0.65744 0.92687 0.0
C1689 C 0.76906 0.66078 0.96388 0.0
H1690 H 0.1156 0.01884 0.91061 0.0
H1691 H 0.11014 0.96015 0.91348 0.0
H1692 H 0.11128 0.95937 0.82686 0.0
H1693 H 0.08662 0.02547 0.81063 0.0
H1694 H 0.09983 0.04412 0.78778 0.0
H1695 H 0.09933 0.03987 0.8499 0.0
H1696 H 0.13453 0.03792 0.85083 0.0
H1697 H 0.13512 0.04207 0.78866 0.0
H1698 H 0.14585 0.0221 0.81247 0.0
H1699 H 0.1143 0.96501 0.74058 0.0
H1700 H 0.11545 0.97699 0.65953 0.0
H1701 H 0.11652 0.03204 0.71383 0.0
C1702 C 0.11469 0.00586 0.89285 0.0
C1703 C 0.11287 0.98956 0.91815 0.0
C1704 C 0.11145 0.97278 0.89423 0.0
C1705 C 0.11219 0.9722 0.84526 0.0
C1706 C 0.11406 0.98854 0.82117 0.0
C1707 C 0.115 0.00507 0.84409 0.0
C1708 C 0.11607 0.02072 0.80998 0.0
C1709 C 0.09947 0.03328 0.81487 0.0
C1710 C 0.13396 0.03132 0.81585 0.0
C1711 C 0.11569 0.01039 0.76431 0.0
C1712 C 0.1148 0.99184 0.77146 0.0
C1713 C 0.11484 0.97951 0.73443 0.0
C1714 C 0.11558 0.98639 0.68873 0.0
C1715 C 0.11592 0.00536 0.68092 0.0
C1716 C 0.11603 0.01746 0.71911 0.0
H1717 H 0.77802 0.34461 0.65779 0.0
H1718 H 0.72351 0.33921 0.71428 0.0
H1719 H 0.71132 0.3359 0.63402 0.0
H1720 H 0.76552 0.3722 0.56216 0.0
H1721 H 0.78175 0.36252 0.52199 0.0
H1722 H 0.78638 0.36253 0.5839 0.0
H1723 H 0.79072 0.32758 0.58202 0.0
H1724 H 0.7861 0.32746 0.52001 0.0
H1725 H 0.77287 0.31338 0.55889 0.0
H1726 H 0.70502 0.33417 0.54786 0.0
H1727 H 0.70469 0.33634 0.46149 0.0
H1728 H 0.76315 0.34452 0.46151 0.0
C1729 C 0.76356 0.34242 0.65323 0.0
C1730 C 0.75169 0.34199 0.69203 0.0
C1731 C 0.73281 0.33955 0.68484 0.0
C1732 C 0.72578 0.33757 0.63949 0.0
C1733 C 0.73783 0.33824 0.60187 0.0
C1734 C 0.7563 0.34074 0.60822 0.0
C1735 C 0.76612 0.34239 0.56183 0.0
C1736 C 0.77549 0.36101 0.55721 0.0
C1737 C 0.77976 0.32677 0.55531 0.0
C1738 C 0.75026 0.34063 0.52842 0.0
C1739 C 0.73411 0.33796 0.55218 0.0
C1740 C 0.71758 0.33619 0.52881 0.0
C1741 C 0.71754 0.3374 0.47981 0.0
C1742 C 0.73389 0.34062 0.45492 0.0
C1743 C 0.75044 0.34209 0.47964 0.0
H1744 H 0.1252 0.41556 0.13763 0.0
H1745 H 0.1536 0.46729 0.13295 0.0
H1746 H 0.177 0.45512 0.18619 0.0
H1747 H 0.1336 0.4059 0.25899 0.0
H1748 H 0.137 0.38187 0.25048 0.0
H1749 H 0.12243 0.39436 0.21128 0.0
H1750 H 0.14141 0.38352 0.1401 0.0
H1751 H 0.15581 0.37075 0.179 0.0
H1752 H 0.16563 0.38724 0.13972 0.0
H1753 H 0.1972 0.43765 0.24056 0.0
H1754 H 0.21442 0.41515 0.28656 0.0
H1755 H 0.1732 0.3745 0.25726 0.0
C1756 C 0.13644 0.42428 0.14735 0.0
C1757 C 0.13751 0.44243 0.13077 0.0
C1758 C 0.15244 0.45336 0.14479 0.0
C1759 C 0.16577 0.44659 0.17534 0.0
C1760 C 0.16408 0.42883 0.19176 0.0
C1761 C 0.14993 0.41773 0.17789 0.0
C1762 C 0.15154 0.39903 0.20023 0.0
C1763 C 0.13517 0.39506 0.23214 0.0
C1764 C 0.15373 0.38427 0.16252 0.0
C1765 C 0.16885 0.40135 0.22867 0.0
C1766 C 0.17576 0.41871 0.22344 0.0
C1767 C 0.19189 0.42404 0.245 0.0
C1768 C 0.20154 0.41115 0.27129 0.0
C1769 C 0.19511 0.39308 0.27607 0.0
C1770 C 0.17829 0.38828 0.25523 0.0
H1771 H 0.88605 0.92372 0.49972 0.0
H1772 H 0.85816 0.97556 0.49002 0.0
H1773 H 0.83585 0.96198 0.43593 0.0
H1774 H 0.88032 0.91082 0.37924 0.0
H1775 H 0.87654 0.88708 0.39146 0.0
H1776 H 0.89029 0.90056 0.43051 0.0
H1777 H 0.86964 0.89168 0.50042 0.0
H1778 H 0.85603 0.87793 0.46174 0.0
H1779 H 0.84547 0.89545 0.49645 0.0
H1780 H 0.81654 0.94305 0.38279 0.0
H1781 H 0.80014 0.91936 0.33858 0.0
H1782 H 0.84052 0.87963 0.38035 0.0
C1783 C 0.87512 0.93217 0.48671 0.0
C1784 C 0.87388 0.95075 0.49949 0.0
C1785 C 0.85943 0.96131 0.4811 0.0
C1786 C 0.84672 0.95374 0.45006 0.0
C1787 C 0.84856 0.93554 0.43743 0.0
C1788 C 0.86228 0.92482 0.45544 0.0
C1789 C 0.86102 0.90557 0.43625 0.0
C1790 C 0.87806 0.90073 0.40767 0.0
C1791 C 0.85785 0.89185 0.47609 0.0
C1792 C 0.84441 0.90716 0.40487 0.0
C1793 C 0.83752 0.92462 0.40602 0.0
C1794 C 0.82187 0.92936 0.38143 0.0
C1795 C 0.81269 0.91582 0.3562 0.0
C1796 C 0.81916 0.89769 0.35534 0.0
C1797 C 0.83548 0.89344 0.37928 0.0
H1798 H 0.38477 0.59573 0.63035 0.0
H1799 H 0.35497 0.54503 0.61738 0.0
H1800 H 0.33095 0.55713 0.66875 0.0
H1801 H 0.37544 0.60291 0.75028 0.0
H1802 H 0.37277 0.62721 0.74631 0.0
H1803 H 0.38713 0.61547 0.70514 0.0
H1804 H 0.36877 0.62878 0.63578 0.0
H1805 H 0.35458 0.64087 0.67671 0.0
H1806 H 0.34445 0.62583 0.63425 0.0
H1807 H 0.31124 0.57352 0.72542 0.0
H1808 H 0.2952 0.59449 0.77822 0.0
H1809 H 0.33728 0.63506 0.75619 0.0
C1810 C 0.37294 0.58738 0.63726 0.0
C1811 C 0.37171 0.56944 0.61937 0.0
C1812 C 0.3562 0.55882 0.63032 0.0
C1813 C 0.3425 0.56554 0.65971 0.0
C1814 C 0.34443 0.58297 0.67808 0.0
C1815 C 0.35909 0.59389 0.66688 0.0
C1816 C 0.35794 0.61196 0.69265 0.0
C1817 C 0.3743 0.61453 0.72554 0.0
C1818 C 0.35634 0.62779 0.65776 0.0
C1819 C 0.34044 0.60939 0.72026 0.0
C1820 C 0.33296 0.59251 0.71127 0.0
C1821 C 0.3169 0.58682 0.7325 0.0
C1822 C 0.30792 0.59885 0.7627 0.0
C1823 C 0.31494 0.61647 0.77165 0.0
C1824 C 0.33162 0.62165 0.75058 0.0
H1825 H 0.69271 0.10081 0.87609 0.0
H1826 H 0.65712 0.14694 0.85251 0.0
H1827 H 0.63386 0.13283 0.9029 0.0
H1828 H 0.65624 0.06642 0.8758 0.0
H1829 H 0.66707 0.05288 0.92037 0.0
H1830 H 0.68066 0.0664 0.88106 0.0
H1831 H 0.69572 0.08209 0.95246 0.0
H1832 H 0.68188 0.06891 0.99198 0.0
H1833 H 0.68164 0.09337 0.99517 0.0
H1834 H 0.61544 0.11509 0.96134 0.0
H1835 H 0.60078 0.0924 0.01246 0.0
H1836 H 0.64727 0.05671 0.99529 0.0
C1837 C 0.67989 0.10778 0.88074 0.0
C1838 C 0.67682 0.12504 0.86009 0.0
C1839 C 0.65984 0.1337 0.86747 0.0
C1840 C 0.64656 0.12585 0.89646 0.0
C1841 C 0.65026 0.10918 0.91749 0.0
C1842 C 0.66631 0.10001 0.9091 0.0
C1843 C 0.66667 0.08206 0.93545 0.0
C1844 C 0.66772 0.06599 0.90112 0.0
C1845 C 0.68242 0.08159 0.97086 0.0
C1846 C 0.6484 0.08268 0.96023 0.0
C1847 C 0.6393 0.09859 0.94987 0.0
C1848 C 0.62237 0.1025 0.96931 0.0
C1849 C 0.61421 0.08955 0.99874 0.0
C1850 C 0.62282 0.07271 0.0081 0.0
C1851 C 0.64032 0.06944 0.98905 0.0
H1852 H 0.16402 0.63155 0.39091 0.0
H1853 H 0.2115 0.59776 0.36858 0.0
H1854 H 0.19796 0.57392 0.4189 0.0
H1855 H 0.1585 0.62069 0.51152 0.0
H1856 H 0.134 0.62091 0.51005 0.0
H1857 H 0.14675 0.63477 0.46967 0.0
H1858 H 0.13024 0.61972 0.39947 0.0
H1859 H 0.11722 0.60604 0.43967 0.0
H1860 H 0.1303 0.59531 0.39401 0.0
H1861 H 0.179 0.55369 0.47238 0.0
H1862 H 0.15621 0.53877 0.52335 0.0
H1863 H 0.1221 0.58669 0.51473 0.0
C1864 C 0.17143 0.61899 0.39577 0.0
C1865 C 0.18875 0.61644 0.37511 0.0
C1866 C 0.19816 0.59997 0.38356 0.0
C1867 C 0.19059 0.58637 0.41228 0.0
C1868 C 0.17367 0.58951 0.4329 0.0
C1869 C 0.16421 0.60542 0.42495 0.0
C1870 C 0.14657 0.60574 0.45256 0.0
C1871 C 0.14646 0.62146 0.48805 0.0
C1872 C 0.13011 0.60676 0.41945 0.0
C1873 C 0.14752 0.58749 0.47715 0.0
C1874 C 0.16322 0.57828 0.4652 0.0
C1875 C 0.16674 0.56086 0.4822 0.0
C1876 C 0.15374 0.55251 0.51132 0.0
C1877 C 0.13749 0.56163 0.52377 0.0
C1878 C 0.13456 0.57948 0.50687 0.0
H1879 H 0.62568 0.91547 0.61999 0.0
H1880 H 0.65813 0.96426 0.60237 0.0
H1881 H 0.68118 0.95176 0.65676 0.0
H1882 H 0.63359 0.91037 0.74171 0.0
H1883 H 0.63434 0.8859 0.74007 0.0
H1884 H 0.62108 0.89813 0.69749 0.0
H1885 H 0.63855 0.88235 0.62991 0.0
H1886 H 0.65165 0.86984 0.67229 0.0
H1887 H 0.66303 0.88342 0.62864 0.0
H1888 H 0.70061 0.93363 0.71506 0.0
H1889 H 0.71467 0.91148 0.76944 0.0
H1890 H 0.66843 0.87556 0.75073 0.0
C1891 C 0.63777 0.92345 0.62681 0.0
C1892 C 0.64014 0.94081 0.60635 0.0
C1893 C 0.65605 0.95087 0.61717 0.0
C1894 C 0.66919 0.9439 0.64823 0.0
C1895 C 0.6662 0.92689 0.66852 0.0
C1896 C 0.65087 0.9168 0.65803 0.0
C1897 C 0.65049 0.89915 0.68536 0.0
C1898 C 0.63389 0.89835 0.71809 0.0
C1899 C 0.65097 0.88272 0.65206 0.0
C1900 C 0.668 0.90081 0.71294 0.0
C1901 C 0.67695 0.91686 0.70275 0.0
C1902 C 0.69364 0.92107 0.72336 0.0
C1903 C 0.7015 0.90844 0.75441 0.0
C1904 C 0.69262 0.89182 0.76493 0.0
C1905 C 0.67552 0.88821 0.74416 0.0
H1906 H 0.3505 0.38035 0.87501 0.0
H1907 H 0.30031 0.41118 0.86757 0.0
H1908 H 0.3134 0.43418 0.92088 0.0
H1909 H 0.35909 0.38794 0.99595 0.0
H1910 H 0.38339 0.38991 0.98961 0.0
H1911 H 0.37056 0.37629 0.94891 0.0
H1912 H 0.38351 0.39486 0.87934 0.0
H1913 H 0.3966 0.40836 0.91976 0.0
H1914 H 0.38127 0.41926 0.87935 0.0
H1915 H 0.33162 0.45335 0.97745 0.0
H1916 H 0.35416 0.46824 0.02867 0.0
H1917 H 0.39249 0.4248 1.00028 0.0
C1918 C 0.34233 0.39207 0.88391 0.0
C1919 C 0.32435 0.39395 0.86665 0.0
C1920 C 0.31412 0.40944 0.87988 0.0
C1921 C 0.32142 0.42256 0.9104 0.0
C1922 C 0.339 0.42005 0.92755 0.0
C1923 C 0.34939 0.40528 0.91445 0.0
C1924 C 0.36783 0.40566 0.93837 0.0
C1925 C 0.37036 0.38896 0.97009 0.0
C1926 C 0.38321 0.40713 0.90204 0.0
C1927 C 0.3662 0.42294 0.96709 0.0
C1928 C 0.34944 0.43101 0.96039 0.0
C1929 C 0.34479 0.44716 0.98286 0.0
C1930 C 0.3577 0.45549 0.01211 0.0
C1931 C 0.37514 0.44771 0.0189 0.0
C1932 C 0.37926 0.43105 0.99638 0.0
H1933 H 0.83934 0.1348 0.24773 0.0
H1934 H 0.7989 0.09366 0.28022 0.0
H1935 H 0.81495 0.07191 0.22914 0.0
H1936 H 0.84453 0.12331 0.12736 0.0
H1937 H 0.86869 0.12734 0.12556 0.0
H1938 H 0.85471 0.13958 0.16664 0.0
H1939 H 0.8746 0.1282 0.23551 0.0
H1940 H 0.88882 0.11617 0.19457 0.0
H1941 H 0.87839 0.10416 0.24263 0.0
H1942 H 0.83473 0.05483 0.17229 0.0
H1943 H 0.85806 0.04297 0.11828 0.0
H1944 H 0.88562 0.09516 0.12139 0.0
C1945 C 0.83403 0.12112 0.24483 0.0
C1946 C 0.81786 0.11596 0.26841 0.0
C1947 C 0.81127 0.09797 0.26285 0.0
C1948 C 0.82026 0.08551 0.23369 0.0
C1949 C 0.83586 0.09117 0.21007 0.0
C1950 C 0.8428 0.10849 0.21562 0.0
C1951 C 0.85967 0.11116 0.18564 0.0
C1952 C 0.85671 0.12624 0.14914 0.0
C1953 C 0.87636 0.11515 0.21643 0.0
C1954 C 0.86111 0.09265 0.16241 0.0
C1955 C 0.84719 0.08136 0.17693 0.0
C1956 C 0.8457 0.06355 0.16073 0.0
C1957 C 0.85901 0.05696 0.12982 0.0
C1958 C 0.87368 0.06811 0.11518 0.0
C1959 C 0.8745 0.08631 0.13133 0.0
H1960 H 0.88864 0.59625 0.00629 0.0
H1961 H 0.85118 0.5511 0.02467 0.0
H1962 H 0.82959 0.56567 0.9711 0.0
H1963 H 0.85313 0.63154 0.00096 0.0
H1964 H 0.865 0.64479 0.95751 0.0
H1965 H 0.87761 0.63109 0.99847 0.0
H1966 H 0.89355 0.61492 0.92916 0.0
H1967 H 0.88076 0.62836 0.88799 0.0
H1968 H 0.87998 0.60391 0.88487 0.0
H1969 H 0.81285 0.58348 0.91202 0.0
H1970 H 0.79953 0.60597 0.85878 0.0
H1971 H 0.84633 0.64117 0.87937 0.0
C1972 C 0.87577 0.58959 0.99966 0.0
C1973 C 0.87172 0.57243 0.01995 0.0
C1974 C 0.85472 0.56419 0.00992 0.0
C1975 C 0.84233 0.57232 0.9792 0.0
C1976 C 0.84692 0.58888 0.95886 0.0
C1977 C 0.86302 0.59767 0.96923 0.0
C1978 C 0.86424 0.61561 0.9427 0.0
C1979 C 0.86504 0.63171 0.97696 0.0
C1980 C 0.88061 0.61569 0.9092 0.0
C1981 C 0.84638 0.61535 0.91572 0.0
C1982 C 0.8368 0.59965 0.92538 0.0
C1983 C 0.82013 0.59593 0.90449 0.0
C1984 C 0.81271 0.60883 0.87398 0.0
C1985 C 0.82178 0.62547 0.86468 0.0
C1986 C 0.83904 0.6286 0.88545 0.0
H1987 H 0.12887 0.09517 0.62895 0.0
H1988 H 0.16516 0.04969 0.60346 0.0
H1989 H 0.18863 0.06434 0.65167 0.0
H1990 H 0.16454 0.13036 0.62626 0.0
H1991 H 0.15417 0.14366 0.67206 0.0
H1992 H 0.14022 0.12995 0.63406 0.0
H1993 H 0.12654 0.11382 0.70661 0.0
H1994 H 0.14064 0.12729 0.74481 0.0
H1995 H 0.14147 0.10284 0.7479 0.0
H1996 H 0.20755 0.08248 0.70622 0.0
H1997 H 0.22247 0.10497 0.75683 0.0
H1998 H 0.17507 0.13992 0.74657 0.0
C1999 C 0.14186 0.08845 0.63285 0.0
C2000 C 0.14507 0.0712 0.61215 0.0
C2001 C 0.16226 0.06286 0.61865 0.0
C2002 C 0.17571 0.07104 0.64625 0.0
C2003 C 0.17196 0.08772 0.66709 0.0
C2004 C 0.15562 0.09654 0.66022 0.0
C2005 C 0.15531 0.11448 0.6868 0.0
C2006 C 0.15345 0.13057 0.65276 0.0
C2007 C 0.14008 0.11461 0.72372 0.0
C2008 C 0.17398 0.11423 0.70983 0.0
C2009 C 0.18321 0.09854 0.69812 0.0
C2010 C 0.20052 0.09489 0.71536 0.0
C2011 C 0.20886 0.10778 0.7444 0.0
C2012 C 0.20004 0.12432 0.75593 0.0
C2013 C 0.18221 0.12743 0.73869 0.0
H2014 H 0.70014 0.39677 0.38905 0.0
H2015 H 0.65799 0.36229 0.32983 0.0
H2016 H 0.63528 0.37703 0.37972 0.0
H2017 H 0.68345 0.39814 0.50557 0.0
H2018 H 0.6882 0.42183 0.51588 0.0
H2019 H 0.70171 0.40921 0.47449 0.0
H2020 H 0.69414 0.43249 0.40935 0.0
H2021 H 0.6809 0.44539 0.45079 0.0
H2022 H 0.6707 0.43776 0.39684 0.0
H2023 H 0.61758 0.39261 0.44086 0.0
H2024 H 0.60407 0.413 0.49913 0.0
H2025 H 0.6561 0.44025 0.51621 0.0
C2026 C 0.68608 0.3926 0.3859 0.0
C2027 C 0.681 0.37821 0.35541 0.0
C2028 C 0.6624 0.37318 0.35268 0.0
C2029 C 0.64932 0.38141 0.3812 0.0
C2030 C 0.65483 0.39499 0.41193 0.0
C2031 C 0.67261 0.40101 0.41367 0.0
C2032 C 0.6745 0.41633 0.4493 0.0
C2033 C 0.68775 0.41106 0.48864 0.0
C2034 C 0.68041 0.43404 0.42512 0.0
C2035 C 0.65508 0.41767 0.4676 0.0
C2036 C 0.64414 0.40495 0.44589 0.0
C2037 C 0.62591 0.40284 0.45763 0.0
C2038 C 0.6184 0.41446 0.49124 0.0
C2039 C 0.62892 0.42837 0.51245 0.0
C2040 C 0.64765 0.42979 0.50078 0.0
H2041 H 0.37409 0.91192 0.11694 0.0
H2042 H 0.34523 0.96333 0.11425 0.0
H2043 H 0.32239 0.95082 0.16896 0.0
H2044 H 0.33401 0.88278 0.12312 0.0
H2045 H 0.34474 0.86671 0.16187 0.0
H2046 H 0.35829 0.87955 0.12099 0.0
H2047 H 0.3782 0.89116 0.18963 0.0
H2048 H 0.36453 0.87859 0.23081 0.0
H2049 H 0.3676 0.90272 0.23814 0.0
H2050 H 0.30314 0.93297 0.22622 0.0
H2051 H 0.28782 0.91059 0.27713 0.0
H2052 H 0.32935 0.87081 0.24354 0.0
C2053 C 0.36283 0.92049 0.12721 0.0
C2054 C 0.36146 0.93864 0.11086 0.0
C2055 C 0.34657 0.94938 0.12585 0.0
C2056 C 0.33355 0.94241 0.15718 0.0
C2057 C 0.33556 0.92464 0.17339 0.0
C2058 C 0.34973 0.91377 0.15858 0.0
C2059 C 0.34885 0.89518 0.18163 0.0
C2060 C 0.34632 0.88017 0.1447 0.0
C2061 C 0.3658 0.89172 0.21184 0.0
C2062 C 0.33199 0.8973 0.21182 0.0
C2063 C 0.32456 0.91442 0.20661 0.0
C2064 C 0.30885 0.91953 0.23049 0.0
C2065 C 0.30027 0.90671 0.25956 0.0
C2066 C 0.30737 0.88891 0.26476 0.0
C2067 C 0.32364 0.88432 0.24092 0.0
H2068 H 0.83836 0.37359 0.74758 0.0
H2069 H 0.78647 0.40162 0.7472 0.0
H2070 H 0.79911 0.42465 0.6933 0.0
H2071 H 0.86661 0.41399 0.74477 0.0
H2072 H 0.88348 0.40383 0.70721 0.0
H2073 H 0.8703 0.38978 0.7462 0.0
H2074 H 0.86016 0.37012 0.67555 0.0
H2075 H 0.87303 0.38434 0.63624 0.0
H2076 H 0.84908 0.38081 0.62642 0.0
H2077 H 0.81733 0.44465 0.63916 0.0
H2078 H 0.84046 0.46154 0.59405 0.0
H2079 H 0.88052 0.42039 0.62796 0.0
C2080 C 0.82968 0.38467 0.73661 0.0
C2081 C 0.81137 0.38577 0.75198 0.0
C2082 C 0.80052 0.40047 0.73632 0.0
C2083 C 0.80756 0.41358 0.70539 0.0
C2084 C 0.8255 0.41185 0.69021 0.0
C2085 C 0.83648 0.39787 0.70564 0.0
C2086 C 0.85539 0.3993 0.68445 0.0
C2087 C 0.86979 0.40188 0.72295 0.0
C2088 C 0.85966 0.38265 0.65385 0.0
C2089 C 0.85336 0.41631 0.65481 0.0
C2090 C 0.83596 0.42327 0.6585 0.0
C2091 C 0.83095 0.43927 0.63584 0.0
C2092 C 0.84418 0.44873 0.61005 0.0
C2093 C 0.86226 0.44219 0.6068 0.0
C2094 C 0.86673 0.42552 0.6287 0.0
H2095 H 0.35421 0.05869 0.49824 0.0
H2096 H 0.40356 0.0906 0.5138 0.0
H2097 H 0.39118 0.1137 0.46059 0.0
H2098 H 0.34594 0.06786 0.37846 0.0
H2099 H 0.32164 0.07032 0.38346 0.0
H2100 H 0.33377 0.05612 0.42423 0.0
H2101 H 0.32073 0.07445 0.49401 0.0
H2102 H 0.30825 0.08847 0.45348 0.0
H2103 H 0.32347 0.09879 0.49521 0.0
H2104 H 0.37549 0.13151 0.3993 0.0
H2105 H 0.3545 0.14705 0.34605 0.0
H2106 H 0.31327 0.10615 0.3742 0.0
C2107 C 0.36223 0.07072 0.49119 0.0
C2108 C 0.37993 0.07273 0.51038 0.0
C2109 C 0.38997 0.08869 0.50004 0.0
C2110 C 0.38312 0.10187 0.4694 0.0
C2111 C 0.36598 0.09921 0.44993 0.0
C2112 C 0.35537 0.08437 0.4614 0.0
C2113 C 0.3371 0.08534 0.43634 0.0
C2114 C 0.33446 0.06893 0.40369 0.0
C2115 C 0.32146 0.08686 0.47188 0.0
C2116 C 0.33933 0.10285 0.40846 0.0
C2117 C 0.35628 0.11034 0.41638 0.0
C2118 C 0.36206 0.12596 0.39338 0.0
C2119 C 0.35001 0.13461 0.36272 0.0
C2120 C 0.33211 0.12793 0.35574 0.0
C2121 C 0.32681 0.11164 0.37866 0.0
H2122 H 0.6316 0.59363 0.13026 0.0
H2123 H 0.66764 0.54826 0.1025 0.0
H2124 H 0.69123 0.56254 0.15212 0.0
H2125 H 0.66645 0.62928 0.13415 0.0
H2126 H 0.65529 0.6412 0.18122 0.0
H2127 H 0.64209 0.62807 0.14024 0.0
H2128 H 0.62816 0.61 0.20946 0.0
H2129 H 0.64164 0.62278 0.25058 0.0
H2130 H 0.64298 0.59833 0.24972 0.0
H2131 H 0.71061 0.58146 0.20718 0.0
H2132 H 0.72469 0.60414 0.25981 0.0
H2133 H 0.67532 0.63627 0.25506 0.0
C2134 C 0.64463 0.58691 0.13352 0.0
C2135 C 0.64785 0.56991 0.11175 0.0
C2136 C 0.66492 0.56137 0.11825 0.0
C2137 C 0.67836 0.56933 0.14664 0.0
C2138 C 0.67452 0.58579 0.16876 0.0
C2139 C 0.6581 0.59454 0.16227 0.0
C2140 C 0.65708 0.61175 0.19147 0.0
C2141 C 0.65512 0.62857 0.15988 0.0
C2142 C 0.64154 0.61064 0.22744 0.0
C2143 C 0.67548 0.61134 0.21541 0.0
C2144 C 0.68536 0.59629 0.20175 0.0
C2145 C 0.70295 0.59325 0.2182 0.0
C2146 C 0.71081 0.60617 0.24834 0.0
C2147 C 0.70106 0.62188 0.26224 0.0
C2148 C 0.68302 0.62424 0.24605 0.0
H2149 H 0.19612 0.89895 0.88075 0.0
H2150 H 0.15407 0.85875 0.85409 0.0
H2151 H 0.1338 0.87436 0.90922 0.0
H2152 H 0.18758 0.90558 0.00186 0.0
H2153 H 0.19072 0.92988 0.00161 0.0
H2154 H 0.20235 0.91598 0.95915 0.0
H2155 H 0.18836 0.93469 0.89126 0.0
H2156 H 0.17705 0.94892 0.93354 0.0
H2157 H 0.16405 0.93764 0.88859 0.0
H2158 H 0.11909 0.89207 0.97272 0.0
H2159 H 0.10769 0.91516 0.02744 0.0
H2160 H 0.15744 0.94625 0.00911 0.0
C2161 C 0.18252 0.89366 0.88581 0.0
C2162 C 0.17679 0.87753 0.86291 0.0
C2163 C 0.15886 0.87108 0.87075 0.0
C2164 C 0.14724 0.87976 0.90248 0.0
C2165 C 0.1535 0.89517 0.92565 0.0
C2166 C 0.17045 0.90247 0.9167 0.0
C2167 C 0.17331 0.91973 0.94516 0.0
C2168 C 0.18945 0.91766 0.97894 0.0
C2169 C 0.17584 0.93622 0.9127 0.0
C2170 C 0.1554 0.92077 0.97175 0.0
C2171 C 0.1444 0.9062 0.96054 0.0
C2172 C 0.12746 0.9037 0.98132 0.0
C2173 C 0.12118 0.91687 0.01284 0.0
C2174 C 0.1316 0.93263 0.02275 0.0
C2175 C 0.14914 0.93436 0.0025 0.0
loop_
_geom_bond_atom_site_label_1
_geom_bond_atom_site_label_2
_geom_bond_distance
_geom_bond_site_symmetry_2
_ccdc_geom_bond_type
C0 O2 1.247 . S
C0 O4 1.258 . S
C1 O8 1.247 . S
C1 O9 1.258 . S
O2 C0 1.247 . S
O2 Zn3 2.028 . S
Zn3 O2 2.028 . S
Zn3 O7 2.035 . S
Zn3 O9 2.035 . S
Zn3 O10 2.028 . S
O4 C0 1.258 . S
O4 Zn5 2.035 . S
Zn5 O4 2.035 . S
Zn5 O6 2.028 . S
Zn5 O8 2.028 . S
Zn5 O11 2.035 . S
O6 Zn5 2.028 . S
O6 C12 1.247 1_554 S
O7 Zn3 2.035 . S
O7 C12 1.258 1_554 S
O8 C1 1.247 . S
O8 Zn5 2.028 . S
O9 C1 1.258 . S
O9 Zn3 2.035 . S
O10 Zn3 2.028 . S
O10 C13 1.247 . S
O11 Zn5 2.035 . S
O11 C13 1.258 . S
C12 O6 1.247 1_556 S
C12 O7 1.258 1_556 S
C13 O10 1.247 . S
C13 O11 1.258 . S
C14 O16 1.247 . S
C14 O18 1.258 . S
C15 O22 1.247 . S
C15 O23 1.258 . S
O16 C14 1.247 . S
O16 Zn17 2.028 . S
Zn17 O16 2.028 . S
Zn17 O21 2.035 . S
Zn17 O23 2.035 . S
Zn17 O24 2.028 . S
O18 C14 1.258 . S
O18 Zn19 2.035 . S
Zn19 O18 2.035 . S
Zn19 O20 2.028 . S
Zn19 O22 2.028 . S
Zn19 O25 2.035 . S
O20 Zn19 2.028 . S
O20 C26 1.247 . S
O21 Zn17 2.035 . S
O21 C26 1.258 . S
O22 C15 1.247 . S
O22 Zn19 2.028 . S
O23 C15 1.258 . S
O23 Zn17 2.035 . S
O24 Zn17 2.028 . S
O24 C27 1.247 . S
O25 Zn19 2.035 . S
O25 C27 1.258 . S
C26 O20 1.247 . S
C26 O21 1.258 . S
C27 O24 1.247 . S
C27 O25 1.258 . S
C28 O30 1.247 . S
C28 O32 1.258 . S
C29 O36 1.247 . S
C29 O37 1.258 . S
O30 C28 1.247 . S
O30 Zn31 2.028 . S
Zn31 O30 2.028 . S
Zn31 O35 2.035 . S
Zn31 O37 2.035 . S
Zn31 O38 2.028 . S
O32 C28 1.258 . S
O32 Zn33 2.035 . S
Zn33 O32 2.035 . S
Zn33 O34 2.028 . S
Zn33 O36 2.028 . S
Zn33 O39 2.035 . S
O34 Zn33 2.028 . S
O34 C40 1.247 . S
O35 Zn31 2.035 . S
O35 C40 1.258 . S
O36 C29 1.247 . S
O36 Zn33 2.028 . S
O37 C29 1.258 . S
O37 Zn31 2.035 . S
O38 Zn31 2.028 . S
O38 C41 1.247 . S
O39 Zn33 2.035 . S
O39 C41 1.258 . S
C40 O34 1.247 . S
C40 O35 1.258 . S
C41 O38 1.247 . S
C41 O39 1.258 . S
C42 O44 1.247 . S
C42 O46 1.258 . S
C43 O50 1.247 . S
C43 O51 1.258 . S
O44 C42 1.247 . S
O44 Zn45 2.028 . S
Zn45 O44 2.028 . S
Zn45 O49 2.035 . S
Zn45 O51 2.035 . S
Zn45 O52 2.028 . S
O46 C42 1.258 . S
O46 Zn47 2.035 . S
Zn47 O46 2.035 . S
Zn47 O48 2.028 . S
Zn47 O50 2.028 . S
Zn47 O53 2.035 . S
O48 Zn47 2.028 . S
O48 C54 1.247 . S
O49 Zn45 2.035 . S
O49 C54 1.258 . S
O50 C43 1.247 . S
O50 Zn47 2.028 . S
O51 C43 1.258 . S
O51 Zn45 2.035 . S
O52 Zn45 2.028 . S
O52 C55 1.247 . S
O53 Zn47 2.035 . S
O53 C55 1.258 . S
C54 O48 1.247 . S
C54 O49 1.258 . S
C55 O52 1.247 . S
C55 O53 1.258 . S
C56 O58 1.247 . S
C56 O60 1.258 . S
C57 O64 1.247 . S
C57 O65 1.258 . S
O58 C56 1.247 . S
O58 Zn59 2.028 . S
Zn59 O58 2.028 . S
Zn59 O63 2.035 . S
Zn59 O65 2.035 . S
Zn59 O66 2.028 . S
O60 C56 1.258 . S
O60 Zn61 2.035 . S
Zn61 O60 2.035 . S
Zn61 O62 2.028 . S
Zn61 O64 2.028 . S
Zn61 O67 2.035 . S
O62 Zn61 2.028 . S
O62 C68 1.247 . S
O63 Zn59 2.035 . S
O63 C68 1.258 . S
O64 C57 1.247 . S
O64 Zn61 2.028 . S
O65 C57 1.258 . S
O65 Zn59 2.035 . S
O66 Zn59 2.028 . S
O66 C69 1.247 . S
O67 Zn61 2.035 . S
O67 C69 1.258 . S
C68 O62 1.247 . S
C68 O63 1.258 . S
C69 O66 1.247 . S
C69 O67 1.258 . S
C70 O72 1.247 . S
C70 O74 1.258 . S
C71 O78 1.247 . S
C71 O79 1.258 . S
O72 C70 1.247 . S
O72 Zn73 2.028 . S
Zn73 O72 2.028 . S
Zn73 O77 2.035 . S
Zn73 O79 2.035 . S
Zn73 O80 2.028 . S
O74 C70 1.258 . S
O74 Zn75 2.035 . S
Zn75 O74 2.035 . S
Zn75 O76 2.028 . S
Zn75 O78 2.028 . S
Zn75 O81 2.035 . S
O76 Zn75 2.028 . S
O76 C82 1.247 . S
O77 Zn73 2.035 . S
O77 C82 1.258 . S
O78 C71 1.247 . S
O78 Zn75 2.028 . S
O79 C71 1.258 . S
O79 Zn73 2.035 . S
O80 Zn73 2.028 . S
O80 C83 1.247 . S
O81 Zn75 2.035 . S
O81 C83 1.258 . S
C82 O76 1.247 . S
C82 O77 1.258 . S
C83 O80 1.247 . S
C83 O81 1.258 . S
C84 O86 1.247 . S
C84 O88 1.258 . S
C85 O92 1.247 . S
C85 O93 1.258 . S
O86 C84 1.247 . S
O86 Zn87 2.028 . S
Zn87 O86 2.028 . S
Zn87 O91 2.035 . S
Zn87 O93 2.035 . S
Zn87 O94 2.028 1_554 S
O88 C84 1.258 . S
O88 Zn89 2.035 . S
Zn89 O88 2.035 . S
Zn89 O90 2.028 . S
Zn89 O92 2.028 . S
Zn89 O95 2.035 1_554 S
O90 Zn89 2.028 . S
O90 C96 1.247 . S
O91 Zn87 2.035 . S
O91 C96 1.258 . S
O92 C85 1.247 . S
O92 Zn89 2.028 . S
O93 C85 1.258 . S
O93 Zn87 2.035 . S
O94 Zn87 2.028 1_556 S
O94 C97 1.247 . S
O95 Zn89 2.035 1_556 S
O95 C97 1.258 . S
C96 O90 1.247 . S
C96 O91 1.258 . S
C97 O94 1.247 . S
C97 O95 1.258 . S
C98 O100 1.247 . S
C98 O102 1.258 . S
C99 O106 1.247 . S
C99 O107 1.258 . S
O100 C98 1.247 . S
O100 Zn101 2.028 . S
Zn101 O100 2.028 . S
Zn101 O105 2.035 . S
Zn101 O107 2.035 . S
Zn101 O108 2.028 . S
O102 C98 1.258 . S
O102 Zn103 2.035 . S
Zn103 O102 2.035 . S
Zn103 O104 2.028 . S
Zn103 O106 2.028 . S
Zn103 O109 2.035 . S
O104 Zn103 2.028 . S
O104 C110 1.247 . S
O105 Zn101 2.035 . S
O105 C110 1.258 . S
O106 C99 1.247 . S
O106 Zn103 2.028 . S
O107 C99 1.258 . S
O107 Zn101 2.035 . S
O108 Zn101 2.028 . S
O108 C111 1.247 . S
O109 Zn103 2.035 . S
O109 C111 1.258 . S
C110 O104 1.247 . S
C110 O105 1.258 . S
C111 O108 1.247 . S
C111 O109 1.258 . S
C112 O114 1.247 . S
C112 O116 1.258 . S
C113 O120 1.247 . S
C113 O121 1.258 . S
O114 C112 1.247 . S
O114 Zn115 2.028 1_556 S
Zn115 O114 2.028 1_554 S
Zn115 O119 2.035 . S
Zn115 O121 2.035 . S
Zn115 O122 2.028 . S
O116 C112 1.258 . S
O116 Zn117 2.035 1_556 S
Zn117 O116 2.035 1_554 S
Zn117 O118 2.028 . S
Zn117 O120 2.028 . S
Zn117 O123 2.035 . S
O118 Zn117 2.028 . S
O118 C124 1.247 . S
O119 Zn115 2.035 . S
O119 C124 1.258 . S
O120 C113 1.247 . S
O120 Zn117 2.028 . S
O121 C113 1.258 . S
O121 Zn115 2.035 . S
O122 Zn115 2.028 . S
O122 C125 1.247 . S
O123 Zn117 2.035 . S
O123 C125 1.258 . S
C124 O118 1.247 . S
C124 O119 1.258 . S
C125 O122 1.247 . S
C125 O123 1.258 . S
C126 O128 1.247 . S
C126 O130 1.258 . S
C127 O134 1.247 . S
C127 O135 1.258 . S
O128 C126 1.247 . S
O128 Zn129 2.028 . S
Zn129 O128 2.028 . S
Zn129 O133 2.035 . S
Zn129 O135 2.035 . S
Zn129 O136 2.028 . S
O130 C126 1.258 . S
O130 Zn131 2.035 . S
Zn131 O130 2.035 . S
Zn131 O132 2.028 . S
Zn131 O134 2.028 . S
Zn131 O137 2.035 . S
O132 Zn131 2.028 . S
O132 C138 1.247 . S
O133 Zn129 2.035 . S
O133 C138 1.258 . S
O134 C127 1.247 . S
O134 Zn131 2.028 . S
O135 C127 1.258 . S
O135 Zn129 2.035 . S
O136 Zn129 2.028 . S
O136 C139 1.247 . S
O137 Zn131 2.035 . S
O137 C139 1.258 . S
C138 O132 1.247 . S
C138 O133 1.258 . S
C139 O136 1.247 . S
C139 O137 1.258 . S
C140 O142 1.247 . S
C140 O144 1.258 . S
C141 O148 1.247 . S
C141 O149 1.258 . S
O142 C140 1.247 . S
O142 Zn143 2.028 . S
Zn143 O142 2.028 . S
Zn143 O147 2.035 . S
Zn143 O149 2.035 . S
Zn143 O150 2.028 . S
O144 C140 1.258 . S
O144 Zn145 2.035 . S
Zn145 O144 2.035 . S
Zn145 O146 2.028 . S
Zn145 O148 2.028 . S
Zn145 O151 2.035 . S
O146 Zn145 2.028 . S
O146 C152 1.247 . S
O147 Zn143 2.035 . S
O147 C152 1.258 . S
O148 C141 1.247 . S
O148 Zn145 2.028 . S
O149 C141 1.258 . S
O149 Zn143 2.035 . S
O150 Zn143 2.028 . S
O150 C153 1.247 . S
O151 Zn145 2.035 . S
O151 C153 1.258 . S
C152 O146 1.247 . S
C152 O147 1.258 . S
C153 O150 1.247 . S
C153 O151 1.258 . S
C154 O156 1.247 . S
C154 O158 1.258 . S
C155 O162 1.247 . S
C155 O163 1.258 . S
O156 C154 1.247 . S
O156 Zn157 2.028 . S
Zn157 O156 2.028 . S
Zn157 O161 2.035 . S
Zn157 O163 2.035 . S
Zn157 O164 2.028 . S
O158 C154 1.258 . S
O158 Zn159 2.035 . S
Zn159 O158 2.035 . S
Zn159 O160 2.028 . S
Zn159 O162 2.028 . S
Zn159 O165 2.035 . S
O160 Zn159 2.028 . S
O160 C166 1.247 . S
O161 Zn157 2.035 . S
O161 C166 1.258 . S
O162 C155 1.247 . S
O162 Zn159 2.028 . S
O163 C155 1.258 . S
O163 Zn157 2.035 . S
O164 Zn157 2.028 . S
O164 C167 1.247 . S
O165 Zn159 2.035 . S
O165 C167 1.258 . S
C166 O160 1.247 . S
C166 O161 1.258 . S
C167 O164 1.247 . S
C167 O165 1.258 . S
C168 O170 1.247 . S
C168 O172 1.258 . S
C169 O176 1.247 . S
C169 O177 1.258 . S
O170 C168 1.247 . S
O170 Zn171 2.028 . S
Zn171 O170 2.028 . S
Zn171 O175 2.035 . S
Zn171 O177 2.035 . S
Zn171 O178 2.028 . S
O172 C168 1.258 . S
O172 Zn173 2.035 . S
Zn173 O172 2.035 . S
Zn173 O174 2.028 . S
Zn173 O176 2.028 . S
Zn173 O179 2.035 . S
O174 Zn173 2.028 . S
O174 C180 1.247 . S
O175 Zn171 2.035 . S
O175 C180 1.258 . S
O176 C169 1.247 . S
O176 Zn173 2.028 . S
O177 C169 1.258 . S
O177 Zn171 2.035 . S
O178 Zn171 2.028 . S
O178 C181 1.247 . S
O179 Zn173 2.035 . S
O179 C181 1.258 . S
C180 O174 1.247 . S
C180 O175 1.258 . S
C181 O178 1.247 . S
C181 O179 1.258 . S
C182 O184 1.247 . S
C182 O186 1.258 . S
C183 O190 1.247 . S
C183 O191 1.258 . S
O184 C182 1.247 . S
O184 Zn185 2.028 . S
Zn185 O184 2.028 . S
Zn185 O189 2.035 . S
Zn185 O191 2.035 . S
Zn185 O192 2.028 . S
O186 C182 1.258 . S
O186 Zn187 2.035 . S
Zn187 O186 2.035 . S
Zn187 O188 2.028 . S
Zn187 O190 2.028 . S
Zn187 O193 2.035 . S
O188 Zn187 2.028 . S
O188 C194 1.247 . S
O189 Zn185 2.035 . S
O189 C194 1.258 . S
O190 C183 1.247 . S
O190 Zn187 2.028 . S
O191 C183 1.258 . S
O191 Zn185 2.035 . S
O192 Zn185 2.028 . S
O192 C195 1.247 . S
O193 Zn187 2.035 . S
O193 C195 1.258 . S
C194 O188 1.247 . S
C194 O189 1.258 . S
C195 O192 1.247 . S
C195 O193 1.258 . S
C196 O198 1.247 1_556 S
C196 O200 1.258 1_556 S
C197 O204 1.247 . S
C197 O205 1.258 . S
O198 C196 1.247 1_554 S
O198 Zn199 2.028 . S
Zn199 O198 2.028 . S
Zn199 O203 2.035 . S
Zn199 O205 2.035 . S
Zn199 O206 2.028 . S
O200 C196 1.258 1_554 S
O200 Zn201 2.035 . S
Zn201 O200 2.035 . S
Zn201 O202 2.028 . S
Zn201 O204 2.028 . S
Zn201 O207 2.035 . S
O202 Zn201 2.028 . S
O202 C208 1.247 . S
O203 Zn199 2.035 . S
O203 C208 1.258 . S
O204 C197 1.247 . S
O204 Zn201 2.028 . S
O205 C197 1.258 . S
O205 Zn199 2.035 . S
O206 Zn199 2.028 . S
O206 C209 1.247 . S
O207 Zn201 2.035 . S
O207 C209 1.258 . S
C208 O202 1.247 . S
C208 O203 1.258 . S
C209 O206 1.247 . S
C209 O207 1.258 . S
C210 O212 1.247 . S
C210 O214 1.258 . S
C211 O218 1.247 . S
C211 O219 1.258 . S
O212 C210 1.247 . S
O212 Zn213 2.028 . S
Zn213 O212 2.028 . S
Zn213 O217 2.035 . S
Zn213 O219 2.035 . S
Zn213 O220 2.028 . S
O214 C210 1.258 . S
O214 Zn215 2.035 . S
Zn215 O214 2.035 . S
Zn215 O216 2.028 . S
Zn215 O218 2.028 . S
Zn215 O221 2.035 . S
O216 Zn215 2.028 . S
O216 C222 1.247 . S
O217 Zn213 2.035 . S
O217 C222 1.258 . S
O218 C211 1.247 . S
O218 Zn215 2.028 . S
O219 C211 1.258 . S
O219 Zn213 2.035 . S
O220 Zn213 2.028 . S
O220 C223 1.247 . S
O221 Zn215 2.035 . S
O221 C223 1.258 . S
C222 O216 1.247 . S
C222 O217 1.258 . S
C223 O220 1.247 . S
C223 O221 1.258 . S
C224 O226 1.247 . S
C224 O228 1.258 1_545 S
C225 O232 1.247 . S
C225 O233 1.258 . S
O226 C224 1.247 . S
O226 Zn227 2.028 . S
Zn227 O226 2.028 . S
Zn227 O231 2.035 . S
Zn227 O233 2.035 1_545 S
Zn227 O234 2.028 . S
O228 C224 1.258 1_565 S
O228 Zn229 2.035 . S
Zn229 O228 2.035 . S
Zn229 O230 2.028 . S
Zn229 O232 2.028 . S
Zn229 O235 2.035 . S
O230 Zn229 2.028 . S
O230 C236 1.247 . S
O231 Zn227 2.035 . S
O231 C236 1.258 1_545 S
O232 C225 1.247 . S
O232 Zn229 2.028 . S
O233 C225 1.258 . S
O233 Zn227 2.035 1_565 S
O234 Zn227 2.028 . S
O234 C237 1.247 1_545 S
O235 Zn229 2.035 . S
O235 C237 1.258 . S
C236 O230 1.247 . S
C236 O231 1.258 1_565 S
C237 O234 1.247 1_565 S
C237 O235 1.258 . S
C238 O240 1.247 . S
C238 O242 1.258 . S
C239 O246 1.247 . S
C239 O247 1.258 . S
O240 C238 1.247 . S
O240 Zn241 2.028 . S
Zn241 O240 2.028 . S
Zn241 O245 2.035 . S
Zn241 O247 2.035 . S
Zn241 O248 2.028 . S
O242 C238 1.258 . S
O242 Zn243 2.035 . S
Zn243 O242 2.035 . S
Zn243 O244 2.028 . S
Zn243 O246 2.028 . S
Zn243 O249 2.035 . S
O244 Zn243 2.028 . S
O244 C250 1.247 . S
O245 Zn241 2.035 . S
O245 C250 1.258 . S
O246 C239 1.247 . S
O246 Zn243 2.028 . S
O247 C239 1.258 . S
O247 Zn241 2.035 . S
O248 Zn241 2.028 . S
O248 C251 1.247 . S
O249 Zn243 2.035 . S
O249 C251 1.258 . S
C250 O244 1.247 . S
C250 O245 1.258 . S
C251 O248 1.247 . S
C251 O249 1.258 . S
C252 O254 1.247 1_556 S
C252 O256 1.258 1_546 S
C253 O260 1.247 1_545 S
C253 O261 1.258 . S
O254 C252 1.247 1_554 S
O254 Zn255 2.028 . S
Zn255 O254 2.028 . S
Zn255 O259 2.035 . S
Zn255 O261 2.035 . S
Zn255 O262 2.028 . S
O256 C252 1.258 1_564 S
O256 Zn257 2.035 . S
Zn257 O256 2.035 . S
Zn257 O258 2.028 1_565 S
Zn257 O260 2.028 . S
Zn257 O263 2.035 . S
O258 Zn257 2.028 1_545 S
O258 C264 1.247 . S
O259 Zn255 2.035 . S
O259 C264 1.258 . S
O260 C253 1.247 1_565 S
O260 Zn257 2.028 . S
O261 C253 1.258 . S
O261 Zn255 2.035 . S
O262 Zn255 2.028 . S
O262 C265 1.247 1_545 S
O263 Zn257 2.035 . S
O263 C265 1.258 . S
C264 O258 1.247 . S
C264 O259 1.258 . S
C265 O262 1.247 1_565 S
C265 O263 1.258 . S
C266 O268 1.247 . S
C266 O270 1.258 . S
C267 O274 1.247 . S
C267 O275 1.258 . S
O268 C266 1.247 . S
O268 Zn269 2.028 . S
Zn269 O268 2.028 . S
Zn269 O273 2.035 . S
Zn269 O275 2.035 . S
Zn269 O276 2.028 . S
O270 C266 1.258 . S
O270 Zn271 2.035 . S
Zn271 O270 2.035 . S
Zn271 O272 2.028 . S
Zn271 O274 2.028 . S
Zn271 O277 2.035 . S
O272 Zn271 2.028 . S
O272 C278 1.247 . S
O273 Zn269 2.035 . S
O273 C278 1.258 . S
O274 C267 1.247 . S
O274 Zn271 2.028 . S
O275 C267 1.258 . S
O275 Zn269 2.035 . S
O276 Zn269 2.028 . S
O276 C279 1.247 . S
O277 Zn271 2.035 . S
O277 C279 1.258 . S
C278 O272 1.247 . S
C278 O273 1.258 . S
C279 O276 1.247 . S
C279 O277 1.258 . S
C280 O282 1.247 . S
C280 O284 1.258 1_565 S
C281 O288 1.247 . S
C281 O289 1.258 . S
O282 C280 1.247 . S
O282 Zn283 2.028 . S
Zn283 O282 2.028 . S
Zn283 O287 2.035 1_554 S
Zn283 O289 2.035 1_565 S
Zn283 O290 2.028 . S
O284 C280 1.258 1_545 S
O284 Zn285 2.035 . S
Zn285 O284 2.035 . S
Zn285 O286 2.028 1_554 S
Zn285 O288 2.028 . S
Zn285 O291 2.035 . S
O286 Zn285 2.028 1_556 S
O286 C292 1.247 . S
O287 Zn283 2.035 1_556 S
O287 C292 1.258 1_565 S
O288 C281 1.247 . S
O288 Zn285 2.028 . S
O289 C281 1.258 . S
O289 Zn283 2.035 1_545 S
O290 Zn283 2.028 . S
O290 C293 1.247 1_565 S
O291 Zn285 2.035 . S
O291 C293 1.258 . S
C292 O286 1.247 . S
C292 O287 1.258 1_545 S
C293 O290 1.247 1_545 S
C293 O291 1.258 . S
C294 O296 1.247 . S
C294 O298 1.258 . S
C295 O302 1.247 . S
C295 O303 1.258 . S
O296 C294 1.247 . S
O296 Zn297 2.028 . S
Zn297 O296 2.028 . S
Zn297 O301 2.035 . S
Zn297 O303 2.035 . S
Zn297 O304 2.028 . S
O298 C294 1.258 . S
O298 Zn299 2.035 . S
Zn299 O298 2.035 . S
Zn299 O300 2.028 . S
Zn299 O302 2.028 . S
Zn299 O305 2.035 . S
O300 Zn299 2.028 . S
O300 C306 1.247 . S
O301 Zn297 2.035 . S
O301 C306 1.258 . S
O302 C295 1.247 . S
O302 Zn299 2.028 . S
O303 C295 1.258 . S
O303 Zn297 2.035 . S
O304 Zn297 2.028 . S
O304 C307 1.247 . S
O305 Zn299 2.035 . S
O305 C307 1.258 . S
C306 O300 1.247 . S
C306 O301 1.258 . S
C307 O304 1.247 . S
C307 O305 1.258 . S
C308 O310 1.247 . S
C308 O312 1.258 1_565 S
C309 O316 1.247 1_565 S
C309 O317 1.258 . S
O310 C308 1.247 . S
O310 Zn311 2.028 . S
Zn311 O310 2.028 . S
Zn311 O315 2.035 . S
Zn311 O317 2.035 . S
Zn311 O318 2.028 . S
O312 C308 1.258 1_545 S
O312 Zn313 2.035 . S
Zn313 O312 2.035 . S
Zn313 O314 2.028 1_545 S
Zn313 O316 2.028 . S
Zn313 O319 2.035 . S
O314 Zn313 2.028 1_565 S
O314 C320 1.247 . S
O315 Zn311 2.035 . S
O315 C320 1.258 . S
O316 C309 1.247 1_545 S
O316 Zn313 2.028 . S
O317 C309 1.258 . S
O317 Zn311 2.035 . S
O318 Zn311 2.028 . S
O318 C321 1.247 1_565 S
O319 Zn313 2.035 . S
O319 C321 1.258 . S
C320 O314 1.247 . S
C320 O315 1.258 . S
C321 O318 1.247 1_545 S
C321 O319 1.258 . S
C322 O324 1.247 . S
C322 O326 1.258 . S
C323 O330 1.247 . S
C323 O331 1.258 . S
O324 C322 1.247 . S
O324 Zn325 2.028 . S
Zn325 O324 2.028 . S
Zn325 O329 2.035 . S
Zn325 O331 2.035 . S
Zn325 O332 2.028 . S
O326 C322 1.258 . S
O326 Zn327 2.035 . S
Zn327 O326 2.035 . S
Zn327 O328 2.028 . S
Zn327 O330 2.028 . S
Zn327 O333 2.035 . S
O328 Zn327 2.028 . S
O328 C334 1.247 . S
O329 Zn325 2.035 . S
O329 C334 1.258 . S
O330 C323 1.247 . S
O330 Zn327 2.028 . S
O331 C323 1.258 . S
O331 Zn325 2.035 . S
O332 Zn325 2.028 . S
O332 C335 1.247 . S
O333 Zn327 2.035 . S
O333 C335 1.258 . S
C334 O328 1.247 . S
C334 O329 1.258 . S
C335 O332 1.247 . S
C335 O333 1.258 . S
C336 O338 1.247 . S
C336 O340 1.258 . S
C337 O344 1.247 . S
C337 O345 1.258 1_565 S
O338 C336 1.247 . S
O338 Zn339 2.028 . S
Zn339 O338 2.028 . S
Zn339 O343 2.035 . S
Zn339 O345 2.035 . S
Zn339 O346 2.028 . S
O340 C336 1.258 . S
O340 Zn341 2.035 1_545 S
Zn341 O340 2.035 1_565 S
Zn341 O342 2.028 . S
Zn341 O344 2.028 . S
Zn341 O347 2.035 . S
O342 Zn341 2.028 . S
O342 C348 1.247 1_565 S
O343 Zn339 2.035 . S
O343 C348 1.258 . S
O344 C337 1.247 . S
O344 Zn341 2.028 . S
O345 C337 1.258 1_545 S
O345 Zn339 2.035 . S
O346 Zn339 2.028 . S
O346 C349 1.247 . S
O347 Zn341 2.035 . S
O347 C349 1.258 1_565 S
C348 O342 1.247 1_545 S
C348 O343 1.258 . S
C349 O346 1.247 . S
C349 O347 1.258 1_545 S
C350 O352 1.247 . S
C350 O354 1.258 . S
C351 O358 1.247 . S
C351 O359 1.258 . S
O352 C350 1.247 . S
O352 Zn353 2.028 . S
Zn353 O352 2.028 . S
Zn353 O357 2.035 . S
Zn353 O359 2.035 . S
Zn353 O360 2.028 . S
O354 C350 1.258 . S
O354 Zn355 2.035 . S
Zn355 O354 2.035 . S
Zn355 O356 2.028 . S
Zn355 O358 2.028 . S
Zn355 O361 2.035 . S
O356 Zn355 2.028 . S
O356 C362 1.247 . S
O357 Zn353 2.035 . S
O357 C362 1.258 . S
O358 C351 1.247 . S
O358 Zn355 2.028 . S
O359 C351 1.258 . S
O359 Zn353 2.035 . S
O360 Zn353 2.028 . S
O360 C363 1.247 . S
O361 Zn355 2.035 . S
O361 C363 1.258 . S
C362 O356 1.247 . S
C362 O357 1.258 . S
C363 O360 1.247 . S
C363 O361 1.258 . S
C364 O366 1.247 . S
C364 O368 1.258 . S
C365 O372 1.247 . S
C365 O373 1.258 1_545 S
O366 C364 1.247 . S
O366 Zn367 2.028 . S
Zn367 O366 2.028 . S
Zn367 O371 2.035 . S
Zn367 O373 2.035 . S
Zn367 O374 2.028 1_554 S
O368 C364 1.258 . S
O368 Zn369 2.035 1_565 S
Zn369 O368 2.035 1_545 S
Zn369 O370 2.028 . S
Zn369 O372 2.028 . S
Zn369 O375 2.035 1_554 S
O370 Zn369 2.028 . S
O370 C376 1.247 1_545 S
O371 Zn367 2.035 . S
O371 C376 1.258 . S
O372 C365 1.247 . S
O372 Zn369 2.028 . S
O373 C365 1.258 1_565 S
O373 Zn367 2.035 . S
O374 Zn367 2.028 1_556 S
O374 C377 1.247 . S
O375 Zn369 2.035 1_556 S
O375 C377 1.258 1_545 S
C376 O370 1.247 1_565 S
C376 O371 1.258 . S
C377 O374 1.247 . S
C377 O375 1.258 1_565 S
C378 O380 1.247 . S
C378 O382 1.258 . S
C379 O386 1.247 . S
C379 O387 1.258 . S
O380 C378 1.247 . S
O380 Zn381 2.028 . S
Zn381 O380 2.028 . S
Zn381 O385 2.035 . S
Zn381 O387 2.035 . S
Zn381 O388 2.028 . S
O382 C378 1.258 . S
O382 Zn383 2.035 . S
Zn383 O382 2.035 . S
Zn383 O384 2.028 . S
Zn383 O386 2.028 . S
Zn383 O389 2.035 . S
O384 Zn383 2.028 . S
O384 C390 1.247 . S
O385 Zn381 2.035 . S
O385 C390 1.258 . S
O386 C379 1.247 . S
O386 Zn383 2.028 . S
O387 C379 1.258 . S
O387 Zn381 2.035 . S
O388 Zn381 2.028 . S
O388 C391 1.247 . S
O389 Zn383 2.035 . S
O389 C391 1.258 . S
C390 O384 1.247 . S
C390 O385 1.258 . S
C391 O388 1.247 . S
C391 O389 1.258 . S
C392 O394 1.247 1_565 S
C392 O396 1.258 . S
C393 O400 1.247 1_556 S
C393 O401 1.258 1_566 S
O394 C392 1.247 1_545 S
O394 Zn395 2.028 . S
Zn395 O394 2.028 . S
Zn395 O399 2.035 . S
Zn395 O401 2.035 . S
Zn395 O402 2.028 1_545 S
O396 C392 1.258 . S
O396 Zn397 2.035 . S
Zn397 O396 2.035 . S
Zn397 O398 2.028 . S
Zn397 O400 2.028 . S
Zn397 O403 2.035 . S
O398 Zn397 2.028 . S
O398 C404 1.247 1_565 S
O399 Zn395 2.035 . S
O399 C404 1.258 . S
O400 C393 1.247 1_554 S
O400 Zn397 2.028 . S
O401 C393 1.258 1_544 S
O401 Zn395 2.035 . S
O402 Zn395 2.028 1_565 S
O402 C405 1.247 . S
O403 Zn397 2.035 . S
O403 C405 1.258 . S
C404 O398 1.247 1_545 S
C404 O399 1.258 . S
C405 O402 1.247 . S
C405 O403 1.258 . S
C406 O408 1.247 . S
C406 O410 1.258 . S
C407 O414 1.247 . S
C407 O415 1.258 . S
O408 C406 1.247 . S
O408 Zn409 2.028 . S
Zn409 O408 2.028 . S
Zn409 O413 2.035 . S
Zn409 O415 2.035 . S
Zn409 O416 2.028 . S
O410 C406 1.258 . S
O410 Zn411 2.035 . S
Zn411 O410 2.035 . S
Zn411 O412 2.028 . S
Zn411 O414 2.028 . S
Zn411 O417 2.035 . S
O412 Zn411 2.028 . S
O412 C418 1.247 . S
O413 Zn409 2.035 . S
O413 C418 1.258 . S
O414 C407 1.247 . S
O414 Zn411 2.028 . S
O415 C407 1.258 . S
O415 Zn409 2.035 . S
O416 Zn409 2.028 . S
O416 C419 1.247 . S
O417 Zn411 2.035 . S
O417 C419 1.258 . S
C418 O412 1.247 . S
C418 O413 1.258 . S
C419 O416 1.247 . S
C419 O417 1.258 . S
C420 O422 1.247 1_545 S
C420 O424 1.258 . S
C421 O428 1.247 . S
C421 O429 1.258 1_545 S
O422 C420 1.247 1_565 S
O422 Zn423 2.028 . S
Zn423 O422 2.028 . S
Zn423 O427 2.035 . S
Zn423 O429 2.035 . S
Zn423 O430 2.028 1_565 S
O424 C420 1.258 . S
O424 Zn425 2.035 . S
Zn425 O424 2.035 . S
Zn425 O426 2.028 . S
Zn425 O428 2.028 . S
Zn425 O431 2.035 . S
O426 Zn425 2.028 . S
O426 C432 1.247 1_545 S
O427 Zn423 2.035 . S
O427 C432 1.258 . S
O428 C421 1.247 . S
O428 Zn425 2.028 . S
O429 C421 1.258 1_565 S
O429 Zn423 2.035 . S
O430 Zn423 2.028 1_545 S
O430 C433 1.247 . S
O431 Zn425 2.035 . S
O431 C433 1.258 . S
C432 O426 1.247 1_565 S
C432 O427 1.258 . S
C433 O430 1.247 . S
C433 O431 1.258 . S
C434 O436 1.247 . S
C434 O438 1.258 . S
C435 O442 1.247 . S
C435 O443 1.258 . S
O436 C434 1.247 . S
O436 Zn437 2.028 . S
Zn437 O436 2.028 . S
Zn437 O441 2.035 . S
Zn437 O443 2.035 . S
Zn437 O444 2.028 . S
O438 C434 1.258 . S
O438 Zn439 2.035 . S
Zn439 O438 2.035 . S
Zn439 O440 2.028 . S
Zn439 O442 2.028 . S
Zn439 O445 2.035 . S
O440 Zn439 2.028 . S
O440 C446 1.247 . S
O441 Zn437 2.035 . S
O441 C446 1.258 . S
O442 C435 1.247 . S
O442 Zn439 2.028 . S
O443 C435 1.258 . S
O443 Zn437 2.035 . S
O444 Zn437 2.028 . S
O444 C447 1.247 . S
O445 Zn439 2.035 . S
O445 C447 1.258 . S
C446 O440 1.247 . S
C446 O441 1.258 . S
C447 O444 1.247 . S
C447 O445 1.258 . S
H448 C460 0.930 . S
H449 C462 0.930 . S
H450 C463 0.930 . S
H451 C467 0.959 1_455 S
H452 C467 0.959 1_455 S
H453 C467 0.961 . S
H454 C468 0.960 . S
H455 C468 0.961 1_455 S
H456 C468 0.959 . S
H457 C471 0.929 . S
H458 C472 0.931 . S
H459 C474 0.930 . S
C460 H448 0.930 . S
C460 C461 1.399 . S
C460 C465 1.399 . S
C461 C460 1.399 . S
C461 C462 1.376 . S
C462 H449 0.930 . S
C462 C461 1.376 . S
C462 C463 1.388 . S
C463 H450 0.930 . S
C463 C462 1.388 . S
C463 C464 1.390 . S
C464 C463 1.390 . S
C464 C465 1.394 . S
C464 C470 1.465 1_655 S
C465 C460 1.399 . S
C465 C464 1.394 . S
C465 C466 1.516 . S
C466 C465 1.516 . S
C466 C467 1.502 1_554 S
C466 C468 1.561 . S
C466 C469 1.526 1_655 S
C467 H451 0.959 1_655 S
C467 H452 0.959 1_655 S
C467 H453 0.961 . S
C467 C466 1.502 1_556 S
C468 H454 0.960 . S
C468 H455 0.961 1_655 S
C468 H456 0.959 . S
C468 C466 1.561 . S
C469 C466 1.526 1_455 S
C469 C470 1.396 . S
C469 C474 1.390 . S
C470 C464 1.465 1_455 S
C470 C469 1.396 . S
C470 C471 1.399 . S
C471 H457 0.929 . S
C471 C470 1.399 . S
C471 C472 1.385 . S
C472 H458 0.931 . S
C472 C471 1.385 . S
C472 C473 1.389 . S
C473 C472 1.389 . S
C473 C474 1.387 . S
C474 H459 0.930 . S
C474 C469 1.390 . S
C474 C473 1.387 . S
H475 C487 0.930 . S
H476 C489 0.930 . S
H477 C490 0.930 . S
H478 C494 0.959 . S
H479 C494 0.959 . S
H480 C494 0.961 . S
H481 C495 0.960 . S
H482 C495 0.961 . S
H483 C495 0.959 . S
H484 C498 0.929 . S
H485 C499 0.931 . S
H486 C501 0.930 . S
C487 H475 0.930 . S
C487 C488 1.399 . S
C487 C492 1.399 . S
C488 C487 1.399 . S
C488 C489 1.376 . S
C489 H476 0.930 . S
C489 C488 1.376 . S
C489 C490 1.388 . S
C490 H477 0.930 . S
C490 C489 1.388 . S
C490 C491 1.390 . S
C491 C490 1.390 . S
C491 C492 1.394 . S
C491 C497 1.465 . S
C492 C487 1.399 . S
C492 C491 1.394 . S
C492 C493 1.516 . S
C493 C492 1.516 . S
C493 C494 1.502 . S
C493 C495 1.561 . S
C493 C496 1.526 . S
C494 H478 0.959 . S
C494 H479 0.959 . S
C494 H480 0.961 . S
C494 C493 1.502 . S
C495 H481 0.960 . S
C495 H482 0.961 . S
C495 H483 0.959 . S
C495 C493 1.561 . S
C496 C493 1.526 . S
C496 C497 1.396 . S
C496 C501 1.390 . S
C497 C491 1.465 . S
C497 C496 1.396 . S
C497 C498 1.399 . S
C498 H484 0.929 . S
C498 C497 1.399 . S
C498 C499 1.385 . S
C499 H485 0.931 . S
C499 C498 1.385 . S
C499 C500 1.389 . S
C500 C499 1.389 . S
C500 C501 1.387 . S
C501 H486 0.930 . S
C501 C496 1.390 . S
C501 C500 1.387 . S
H502 C514 0.930 . S
H503 C516 0.930 . S
H504 C517 0.930 . S
H505 C521 0.959 . S
H506 C521 0.959 . S
H507 C521 0.961 . S
H508 C522 0.960 . S
H509 C522 0.961 . S
H510 C522 0.959 . S
H511 C525 0.929 . S
H512 C526 0.931 . S
H513 C528 0.930 . S
C514 H502 0.930 . S
C514 C515 1.399 . S
C514 C519 1.399 . S
C515 C514 1.399 . S
C515 C516 1.376 . S
C516 H503 0.930 . S
C516 C515 1.376 . S
C516 C517 1.388 . S
C517 H504 0.930 . S
C517 C516 1.388 . S
C517 C518 1.390 . S
C518 C517 1.390 . S
C518 C519 1.394 . S
C518 C524 1.465 . S
C519 C514 1.399 . S
C519 C518 1.394 . S
C519 C520 1.516 . S
C520 C519 1.516 . S
C520 C521 1.502 . S
C520 C522 1.561 . S
C520 C523 1.526 . S
C521 H505 0.959 . S
C521 H506 0.959 . S
C521 H507 0.961 . S
C521 C520 1.502 . S
C522 H508 0.960 . S
C522 H509 0.961 . S
C522 H510 0.959 . S
C522 C520 1.561 . S
C523 C520 1.526 . S
C523 C524 1.396 . S
C523 C528 1.390 . S
C524 C518 1.465 . S
C524 C523 1.396 . S
C524 C525 1.399 . S
C525 H511 0.929 . S
C525 C524 1.399 . S
C525 C526 1.385 . S
C526 H512 0.931 . S
C526 C525 1.385 . S
C526 C527 1.389 . S
C527 C526 1.389 . S
C527 C528 1.387 . S
C528 H513 0.930 . S
C528 C523 1.390 . S
C528 C527 1.387 . S
H529 C541 0.930 . S
H530 C543 0.930 . S
H531 C544 0.930 . S
H532 C548 0.959 . S
H533 C548 0.959 . S
H534 C548 0.961 . S
H535 C549 0.960 . S
H536 C549 0.961 . S
H537 C549 0.959 . S
H538 C552 0.929 . S
H539 C553 0.931 . S
H540 C555 0.930 . S
C541 H529 0.930 . S
C541 C542 1.399 . S
C541 C546 1.399 . S
C542 C541 1.399 . S
C542 C543 1.376 . S
C543 H530 0.930 . S
C543 C542 1.376 . S
C543 C544 1.388 . S
C544 H531 0.930 . S
C544 C543 1.388 . S
C544 C545 1.390 . S
C545 C544 1.390 . S
C545 C546 1.394 . S
C545 C551 1.465 . S
C546 C541 1.399 . S
C546 C545 1.394 . S
C546 C547 1.516 . S
C547 C546 1.516 . S
C547 C548 1.502 . S
C547 C549 1.561 . S
C547 C550 1.526 . S
C548 H532 0.959 . S
C548 H533 0.959 . S
C548 H534 0.961 . S
C548 C547 1.502 . S
C549 H535 0.960 . S
C549 H536 0.961 . S
C549 H537 0.959 . S
C549 C547 1.561 . S
C550 C547 1.526 . S
C550 C551 1.396 . S
C550 C555 1.390 . S
C551 C545 1.465 . S
C551 C550 1.396 . S
C551 C552 1.399 . S
C552 H538 0.929 . S
C552 C551 1.399 . S
C552 C553 1.385 . S
C553 H539 0.931 . S
C553 C552 1.385 . S
C553 C554 1.389 . S
C554 C553 1.389 . S
C554 C555 1.387 . S
C555 H540 0.930 . S
C555 C550 1.390 . S
C555 C554 1.387 . S
H556 C568 0.930 . S
H557 C570 0.930 . S
H558 C571 0.930 . S
H559 C575 0.959 . S
H560 C575 0.959 . S
H561 C575 0.961 1_455 S
H562 C576 0.960 1_455 S
H563 C576 0.961 . S
H564 C576 0.959 . S
H565 C579 0.929 . S
H566 C580 0.931 . S
H567 C582 0.930 . S
C568 H556 0.930 . S
C568 C569 1.399 . S
C568 C573 1.399 . S
C569 C568 1.399 . S
C569 C570 1.376 . S
C570 H557 0.930 . S
C570 C569 1.376 . S
C570 C571 1.388 . S
C571 H558 0.930 . S
C571 C570 1.388 . S
C571 C572 1.390 . S
C572 C571 1.390 . S
C572 C573 1.394 . S
C572 C578 1.465 1_455 S
C573 C568 1.399 . S
C573 C572 1.394 . S
C573 C574 1.516 1_455 S
C574 C573 1.516 1_655 S
C574 C575 1.502 . S
C574 C576 1.561 . S
C574 C577 1.526 . S
C575 H559 0.959 . S
C575 H560 0.959 . S
C575 H561 0.961 1_655 S
C575 C574 1.502 . S
C576 H562 0.960 1_655 S
C576 H563 0.961 . S
C576 H564 0.959 . S
C576 C574 1.561 . S
C577 C574 1.526 . S
C577 C578 1.396 . S
C577 C582 1.390 . S
C578 C572 1.465 1_655 S
C578 C577 1.396 . S
C578 C579 1.399 . S
C579 H565 0.929 . S
C579 C578 1.399 . S
C579 C580 1.385 . S
C580 H566 0.931 . S
C580 C579 1.385 . S
C580 C581 1.389 . S
C581 C580 1.389 . S
C581 C582 1.387 . S
C582 H567 0.930 . S
C582 C577 1.390 . S
C582 C581 1.387 . S
H583 C595 0.930 . S
H584 C597 0.930 . S
H585 C598 0.930 . S
H586 C602 0.959 . S
H587 C602 0.959 . S
H588 C602 0.961 . S
H589 C603 0.960 . S
H590 C603 0.961 . S
H591 C603 0.959 . S
H592 C606 0.929 . S
H593 C607 0.931 . S
H594 C609 0.930 . S
C595 H583 0.930 . S
C595 C596 1.399 . S
C595 C600 1.399 . S
C596 C595 1.399 . S
C596 C597 1.376 . S
C597 H584 0.930 . S
C597 C596 1.376 . S
C597 C598 1.388 . S
C598 H585 0.930 . S
C598 C597 1.388 . S
C598 C599 1.390 . S
C599 C598 1.390 . S
C599 C600 1.394 . S
C599 C605 1.465 . S
C600 C595 1.399 . S
C600 C599 1.394 . S
C600 C601 1.516 . S
C601 C600 1.516 . S
C601 C602 1.502 . S
C601 C603 1.561 . S
C601 C604 1.526 . S
C602 H586 0.959 . S
C602 H587 0.959 . S
C602 H588 0.961 . S
C602 C601 1.502 . S
C603 H589 0.960 . S
C603 H590 0.961 . S
C603 H591 0.959 . S
C603 C601 1.561 . S
C604 C601 1.526 . S
C604 C605 1.396 . S
C604 C609 1.390 . S
C605 C599 1.465 . S
C605 C604 1.396 . S
C605 C606 1.399 . S
C606 H592 0.929 . S
C606 C605 1.399 . S
C606 C607 1.385 . S
C607 H593 0.931 . S
C607 C606 1.385 . S
C607 C608 1.389 . S
C608 C607 1.389 . S
C608 C609 1.387 . S
C609 H594 0.930 . S
C609 C604 1.390 . S
C609 C608 1.387 . S
H610 C622 0.930 . S
H611 C624 0.930 1_556 S
H612 C625 0.930 1_556 S
H613 C629 0.959 . S
H614 C629 0.959 . S
H615 C629 0.961 . S
H616 C630 0.960 . S
H617 C630 0.961 . S
H618 C630 0.959 . S
H619 C633 0.929 1_556 S
H620 C634 0.931 1_556 S
H621 C636 0.930 . S
C622 H610 0.930 . S
C622 C623 1.399 . S
C622 C627 1.399 . S
C623 C622 1.399 . S
C623 C624 1.376 . S
C624 H611 0.930 1_554 S
C624 C623 1.376 . S
C624 C625 1.388 . S
C625 H612 0.930 1_554 S
C625 C624 1.388 . S
C625 C626 1.390 . S
C626 C625 1.390 . S
C626 C627 1.394 . S
C626 C632 1.465 . S
C627 C622 1.399 . S
C627 C626 1.394 . S
C627 C628 1.516 . S
C628 C627 1.516 . S
C628 C629 1.502 . S
C628 C630 1.561 . S
C628 C631 1.526 . S
C629 H613 0.959 . S
C629 H614 0.959 . S
C629 H615 0.961 . S
C629 C628 1.502 . S
C630 H616 0.960 . S
C630 H617 0.961 . S
C630 H618 0.959 . S
C630 C628 1.561 . S
C631 C628 1.526 . S
C631 C632 1.396 . S
C631 C636 1.390 . S
C632 C626 1.465 . S
C632 C631 1.396 . S
C632 C633 1.399 . S
C633 H619 0.929 1_554 S
C633 C632 1.399 . S
C633 C634 1.385 . S
C634 H620 0.931 1_554 S
C634 C633 1.385 . S
C634 C635 1.389 . S
C635 C634 1.389 . S
C635 C636 1.387 . S
C636 H621 0.930 . S
C636 C631 1.390 . S
C636 C635 1.387 . S
H637 C649 0.930 . S
H638 C651 0.930 . S
H639 C652 0.930 . S
H640 C656 0.959 . S
H641 C656 0.959 . S
H642 C656 0.961 . S
H643 C657 0.960 . S
H644 C657 0.961 . S
H645 C657 0.959 . S
H646 C660 0.929 . S
H647 C661 0.931 . S
H648 C663 0.930 . S
C649 H637 0.930 . S
C649 C650 1.399 . S
C649 C654 1.399 . S
C650 C649 1.399 . S
C650 C651 1.376 . S
C651 H638 0.930 . S
C651 C650 1.376 . S
C651 C652 1.388 . S
C652 H639 0.930 . S
C652 C651 1.388 . S
C652 C653 1.390 . S
C653 C652 1.390 . S
C653 C654 1.394 . S
C653 C659 1.465 . S
C654 C649 1.399 . S
C654 C653 1.394 . S
C654 C655 1.516 . S
C655 C654 1.516 . S
C655 C656 1.502 . S
C655 C657 1.561 . S
C655 C658 1.526 . S
C656 H640 0.959 . S
C656 H641 0.959 . S
C656 H642 0.961 . S
C656 C655 1.502 . S
C657 H643 0.960 . S
C657 H644 0.961 . S
C657 H645 0.959 . S
C657 C655 1.561 . S
C658 C655 1.526 . S
C658 C659 1.396 . S
C658 C663 1.390 . S
C659 C653 1.465 . S
C659 C658 1.396 . S
C659 C660 1.399 . S
C660 H646 0.929 . S
C660 C659 1.399 . S
C660 C661 1.385 . S
C661 H647 0.931 . S
C661 C660 1.385 . S
C661 C662 1.389 . S
C662 C661 1.389 . S
C662 C663 1.387 . S
C663 H648 0.930 . S
C663 C658 1.390 . S
C663 C662 1.387 . S
H664 C676 0.930 . S
H665 C678 0.930 . S
H666 C679 0.930 . S
H667 C683 0.959 . S
H668 C683 0.959 . S
H669 C683 0.961 . S
H670 C684 0.960 . S
H671 C684 0.961 . S
H672 C684 0.959 . S
H673 C687 0.929 . S
H674 C688 0.931 . S
H675 C690 0.930 . S
C676 H664 0.930 . S
C676 C677 1.399 . S
C676 C681 1.399 . S
C677 C676 1.399 . S
C677 C678 1.376 . S
C678 H665 0.930 . S
C678 C677 1.376 . S
C678 C679 1.388 . S
C679 H666 0.930 . S
C679 C678 1.388 . S
C679 C680 1.390 . S
C680 C679 1.390 . S
C680 C681 1.394 . S
C680 C686 1.465 . S
C681 C676 1.399 . S
C681 C680 1.394 . S
C681 C682 1.516 . S
C682 C681 1.516 . S
C682 C683 1.502 . S
C682 C684 1.561 . S
C682 C685 1.526 . S
C683 H667 0.959 . S
C683 H668 0.959 . S
C683 H669 0.961 . S
C683 C682 1.502 . S
C684 H670 0.960 . S
C684 H671 0.961 . S
C684 H672 0.959 . S
C684 C682 1.561 . S
C685 C682 1.526 . S
C685 C686 1.396 . S
C685 C690 1.390 . S
C686 C680 1.465 . S
C686 C685 1.396 . S
C686 C687 1.399 . S
C687 H673 0.929 . S
C687 C686 1.399 . S
C687 C688 1.385 . S
C688 H674 0.931 . S
C688 C687 1.385 . S
C688 C689 1.389 . S
C689 C688 1.389 . S
C689 C690 1.387 . S
C690 H675 0.930 . S
C690 C685 1.390 . S
C690 C689 1.387 . S
H691 C703 0.930 . S
H692 C705 0.930 . S
H693 C706 0.930 . S
H694 C710 0.959 . S
H695 C710 0.959 . S
H696 C710 0.961 . S
H697 C711 0.960 . S
H698 C711 0.961 . S
H699 C711 0.959 . S
H700 C714 0.929 . S
H701 C715 0.931 . S
H702 C717 0.930 . S
C703 H691 0.930 . S
C703 C704 1.399 . S
C703 C708 1.399 . S
C704 C703 1.399 . S
C704 C705 1.376 . S
C705 H692 0.930 . S
C705 C704 1.376 . S
C705 C706 1.388 . S
C706 H693 0.930 . S
C706 C705 1.388 . S
C706 C707 1.390 . S
C707 C706 1.390 . S
C707 C708 1.394 . S
C707 C713 1.465 . S
C708 C703 1.399 . S
C708 C707 1.394 . S
C708 C709 1.516 . S
C709 C708 1.516 . S
C709 C710 1.502 . S
C709 C711 1.561 . S
C709 C712 1.526 . S
C710 H694 0.959 . S
C710 H695 0.959 . S
C710 H696 0.961 . S
C710 C709 1.502 . S
C711 H697 0.960 . S
C711 H698 0.961 . S
C711 H699 0.959 . S
C711 C709 1.561 . S
C712 C709 1.526 . S
C712 C713 1.396 . S
C712 C717 1.390 . S
C713 C707 1.465 . S
C713 C712 1.396 . S
C713 C714 1.399 . S
C714 H700 0.929 . S
C714 C713 1.399 . S
C714 C715 1.385 . S
C715 H701 0.931 . S
C715 C714 1.385 . S
C715 C716 1.389 . S
C716 C715 1.389 . S
C716 C717 1.387 . S
C717 H702 0.930 . S
C717 C712 1.390 . S
C717 C716 1.387 . S
H718 C730 0.930 . S
H719 C732 0.930 . S
H720 C733 0.930 . S
H721 C737 0.959 . S
H722 C737 0.959 . S
H723 C737 0.961 . S
H724 C738 0.960 . S
H725 C738 0.961 . S
H726 C738 0.959 . S
H727 C741 0.929 . S
H728 C742 0.931 . S
H729 C744 0.930 . S
C730 H718 0.930 . S
C730 C731 1.399 . S
C730 C735 1.399 . S
C731 C730 1.399 . S
C731 C732 1.376 . S
C732 H719 0.930 . S
C732 C731 1.376 . S
C732 C733 1.388 . S
C733 H720 0.930 . S
C733 C732 1.388 . S
C733 C734 1.390 . S
C734 C733 1.390 . S
C734 C735 1.394 . S
C734 C740 1.465 . S
C735 C730 1.399 . S
C735 C734 1.394 . S
C735 C736 1.516 . S
C736 C735 1.516 . S
C736 C737 1.502 . S
C736 C738 1.561 . S
C736 C739 1.526 . S
C737 H721 0.959 . S
C737 H722 0.959 . S
C737 H723 0.961 . S
C737 C736 1.502 . S
C738 H724 0.960 . S
C738 H725 0.961 . S
C738 H726 0.959 . S
C738 C736 1.561 . S
C739 C736 1.526 . S
C739 C740 1.396 . S
C739 C744 1.390 . S
C740 C734 1.465 . S
C740 C739 1.396 . S
C740 C741 1.399 . S
C741 H727 0.929 . S
C741 C740 1.399 . S
C741 C742 1.385 . S
C742 H728 0.931 . S
C742 C741 1.385 . S
C742 C743 1.389 . S
C743 C742 1.389 . S
C743 C744 1.387 . S
C744 H729 0.930 . S
C744 C739 1.390 . S
C744 C743 1.387 . S
H745 C757 0.930 . S
H746 C759 0.930 . S
H747 C760 0.930 . S
H748 C764 0.959 . S
H749 C764 0.959 . S
H750 C764 0.961 . S
H751 C765 0.960 . S
H752 C765 0.961 . S
H753 C765 0.959 . S
H754 C768 0.929 . S
H755 C769 0.931 . S
H756 C771 0.930 . S
C757 H745 0.930 . S
C757 C758 1.399 . S
C757 C762 1.399 . S
C758 C757 1.399 . S
C758 C759 1.376 . S
C759 H746 0.930 . S
C759 C758 1.376 . S
C759 C760 1.388 . S
C760 H747 0.930 . S
C760 C759 1.388 . S
C760 C761 1.390 . S
C761 C760 1.390 . S
C761 C762 1.394 . S
C761 C767 1.465 . S
C762 C757 1.399 . S
C762 C761 1.394 . S
C762 C763 1.516 . S
C763 C762 1.516 . S
C763 C764 1.502 . S
C763 C765 1.561 . S
C763 C766 1.526 . S
C764 H748 0.959 . S
C764 H749 0.959 . S
C764 H750 0.961 . S
C764 C763 1.502 . S
C765 H751 0.960 . S
C765 H752 0.961 . S
C765 H753 0.959 . S
C765 C763 1.561 . S
C766 C763 1.526 . S
C766 C767 1.396 . S
C766 C771 1.390 . S
C767 C761 1.465 . S
C767 C766 1.396 . S
C767 C768 1.399 . S
C768 H754 0.929 . S
C768 C767 1.399 . S
C768 C769 1.385 . S
C769 H755 0.931 . S
C769 C768 1.385 . S
C769 C770 1.389 . S
C770 C769 1.389 . S
C770 C771 1.387 . S
C771 H756 0.930 . S
C771 C766 1.390 . S
C771 C770 1.387 . S
H772 C784 0.930 . S
H773 C786 0.930 . S
H774 C787 0.930 . S
H775 C791 0.959 . S
H776 C791 0.959 . S
H777 C791 0.961 . S
H778 C792 0.960 . S
H779 C792 0.961 . S
H780 C792 0.959 . S
H781 C795 0.929 . S
H782 C796 0.931 . S
H783 C798 0.930 . S
C784 H772 0.930 . S
C784 C785 1.399 1_545 S
C784 C789 1.399 . S
C785 C784 1.399 1_565 S
C785 C786 1.376 . S
C786 H773 0.930 . S
C786 C785 1.376 . S
C786 C787 1.388 . S
C787 H774 0.930 . S
C787 C786 1.388 . S
C787 C788 1.390 . S
C788 C787 1.390 . S
C788 C789 1.394 1_565 S
C788 C794 1.465 . S
C789 C784 1.399 . S
C789 C788 1.394 1_545 S
C789 C790 1.516 . S
C790 C789 1.516 . S
C790 C791 1.502 . S
C790 C792 1.561 . S
C790 C793 1.526 . S
C791 H775 0.959 . S
C791 H776 0.959 . S
C791 H777 0.961 . S
C791 C790 1.502 . S
C792 H778 0.960 . S
C792 H779 0.961 . S
C792 H780 0.959 . S
C792 C790 1.561 . S
C793 C790 1.526 . S
C793 C794 1.396 1_545 S
C793 C798 1.390 . S
C794 C788 1.465 . S
C794 C793 1.396 1_565 S
C794 C795 1.399 . S
C795 H781 0.929 . S
C795 C794 1.399 . S
C795 C796 1.385 . S
C796 H782 0.931 . S
C796 C795 1.385 . S
C796 C797 1.389 1_565 S
C797 C796 1.389 1_545 S
C797 C798 1.387 . S
C798 H783 0.930 . S
C798 C793 1.390 . S
C798 C797 1.387 . S
H799 C811 0.930 . S
H800 C813 0.930 . S
H801 C814 0.930 . S
H802 C818 0.959 1_554 S
H803 C818 0.959 . S
H804 C818 0.961 1_655 S
H805 C819 1.008 . S
H806 C819 0.916 1_455 S
H807 C819 0.963 . S
H808 C822 0.929 . S
H809 C823 0.931 . S
H810 C825 0.921 1_565 S
C811 H799 0.930 . S
C811 C812 1.399 . S
C811 C816 1.399 . S
C812 C811 1.399 . S
C812 C813 1.376 1_565 S
C813 H800 0.930 . S
C813 C812 1.376 1_545 S
C813 C814 1.388 . S
C814 H801 0.930 . S
C814 C813 1.388 . S
C814 C815 1.390 . S
C815 C814 1.390 . S
C815 C816 1.394 1_545 S
C815 C821 1.465 1_655 S
C816 C811 1.399 . S
C816 C815 1.394 1_565 S
C816 C817 1.471 1_655 S
C817 C816 1.471 1_455 S
C817 C818 1.511 1_554 S
C817 C819 1.556 1_464 S
C817 C820 1.569 1_565 S
C818 H802 0.959 1_556 S
C818 H803 0.959 . S
C818 H804 0.961 1_455 S
C818 C817 1.511 1_556 S
C819 H805 1.008 . S
C819 H806 0.916 1_655 S
C819 H807 0.963 . S
C819 C817 1.556 1_646 S
C820 C817 1.569 1_545 S
C820 C821 1.396 . S
C820 C825 1.389 . S
C821 C815 1.465 1_455 S
C821 C820 1.396 . S
C821 C822 1.399 . S
C822 H808 0.929 . S
C822 C821 1.399 . S
C822 C823 1.385 . S
C823 H809 0.931 . S
C823 C822 1.385 . S
C823 C824 1.389 . S
C824 C823 1.389 . S
C824 C825 1.396 . S
C825 H810 0.921 1_545 S
C825 C820 1.389 . S
C825 C824 1.396 . S
H826 C838 0.921 1_545 S
H827 C840 0.930 . S
H828 C841 0.930 . S
H829 C845 0.959 1_554 S
H830 C845 0.959 . S
H831 C845 0.961 . S
H832 C846 0.960 . S
H833 C846 0.961 . S
H834 C846 0.959 . S
H835 C849 0.929 . S
H836 C850 0.929 1_565 S
H837 C852 0.930 . S
C838 H826 0.921 1_565 S
C838 C839 1.399 . S
C838 C843 1.399 . S
C839 C838 1.399 . S
C839 C840 1.376 . S
C840 H827 0.930 . S
C840 C839 1.376 . S
C840 C841 1.388 . S
C841 H828 0.930 . S
C841 C840 1.388 . S
C841 C842 1.390 . S
C842 C841 1.390 . S
C842 C843 1.394 . S
C842 C848 1.465 . S
C843 C838 1.399 . S
C843 C842 1.394 . S
C843 C844 1.516 1_565 S
C844 C843 1.516 1_545 S
C844 C845 1.502 1_554 S
C844 C846 1.561 1_544 S
C844 C847 1.526 . S
C845 H829 0.959 1_556 S
C845 H830 0.959 . S
C845 H831 0.961 . S
C845 C844 1.502 1_556 S
C846 H832 0.960 . S
C846 H833 0.961 . S
C846 H834 0.959 . S
C846 C844 1.561 1_566 S
C847 C844 1.526 . S
C847 C848 1.396 1_545 S
C847 C852 1.390 . S
C848 C842 1.465 . S
C848 C847 1.396 1_565 S
C848 C849 1.399 . S
C849 H835 0.929 . S
C849 C848 1.399 . S
C849 C850 1.386 1_565 S
C850 H836 0.929 1_545 S
C850 C849 1.386 1_545 S
C850 C851 1.388 . S
C851 C850 1.388 . S
C851 C852 1.387 . S
C852 H837 0.930 . S
C852 C847 1.390 . S
C852 C851 1.387 . S
H853 C865 0.930 . S
H854 C867 0.930 . S
H855 C868 0.930 . S
H856 C872 0.959 . S
H857 C872 0.959 1_655 S
H858 C872 0.961 . S
H859 C873 0.960 . S
H860 C873 0.961 1_655 S
H861 C873 0.965 . S
H862 C876 0.929 . S
H863 C877 0.931 . S
H864 C879 0.930 . S
C865 H853 0.930 . S
C865 C866 1.399 1_545 S
C865 C870 1.399 . S
C866 C865 1.399 1_565 S
C866 C867 1.376 . S
C867 H854 0.930 . S
C867 C866 1.376 . S
C867 C868 1.388 . S
C868 H855 0.930 . S
C868 C867 1.388 . S
C868 C869 1.390 . S
C869 C868 1.390 . S
C869 C870 1.394 1_565 S
C869 C875 1.465 1_455 S
C870 C865 1.399 . S
C870 C869 1.394 1_545 S
C870 C871 1.516 . S
C871 C870 1.516 . S
C871 C872 1.502 . S
C871 C873 1.561 . S
C871 C874 1.526 1_455 S
C872 H856 0.959 . S
C872 H857 0.959 1_455 S
C872 H858 0.961 . S
C872 C871 1.502 . S
C873 H859 0.960 . S
C873 H860 0.961 1_455 S
C873 H861 0.965 . S
C873 C871 1.561 . S
C874 C871 1.526 1_655 S
C874 C875 1.396 1_545 S
C874 C879 1.390 . S
C875 C869 1.465 1_655 S
C875 C874 1.396 1_565 S
C875 C876 1.399 . S
C876 H862 0.929 . S
C876 C875 1.399 . S
C876 C877 1.385 . S
C877 H863 0.931 . S
C877 C876 1.385 . S
C877 C878 1.389 1_565 S
C878 C877 1.389 1_545 S
C878 C879 1.387 . S
C879 H864 0.930 . S
C879 C874 1.390 . S
C879 C878 1.387 . S
H880 C892 0.930 . S
H881 C894 0.930 . S
H882 C895 0.930 . S
H883 C899 0.959 . S
H884 C899 0.959 . S
H885 C899 0.961 . S
H886 C900 0.960 . S
H887 C900 0.961 . S
H888 C900 0.959 . S
H889 C903 0.929 . S
H890 C904 0.931 . S
H891 C906 0.930 . S
C892 H880 0.930 . S
C892 C893 1.399 . S
C892 C897 1.399 . S
C893 C892 1.399 . S
C893 C894 1.376 . S
C894 H881 0.930 . S
C894 C893 1.376 . S
C894 C895 1.388 . S
C895 H882 0.930 . S
C895 C894 1.388 . S
C895 C896 1.390 . S
C896 C895 1.390 . S
C896 C897 1.394 . S
C896 C902 1.465 . S
C897 C892 1.399 . S
C897 C896 1.394 . S
C897 C898 1.516 . S
C898 C897 1.516 . S
C898 C899 1.502 . S
C898 C900 1.561 . S
C898 C901 1.526 . S
C899 H883 0.959 . S
C899 H884 0.959 . S
C899 H885 0.961 . S
C899 C898 1.502 . S
C900 H886 0.960 . S
C900 H887 0.961 . S
C900 H888 0.959 . S
C900 C898 1.561 . S
C901 C898 1.526 . S
C901 C902 1.396 . S
C901 C906 1.390 . S
C902 C896 1.465 . S
C902 C901 1.396 . S
C902 C903 1.399 . S
C903 H889 0.929 . S
C903 C902 1.399 . S
C903 C904 1.385 . S
C904 H890 0.931 . S
C904 C903 1.385 . S
C904 C905 1.389 . S
C905 C904 1.389 . S
C905 C906 1.387 . S
C906 H891 0.930 . S
C906 C901 1.390 . S
C906 C905 1.387 . S
H907 C919 0.930 . S
H908 C921 0.930 . S
H909 C922 0.930 . S
H910 C926 0.959 . S
H911 C926 0.959 . S
H912 C926 0.961 . S
H913 C927 0.960 . S
H914 C927 0.961 . S
H915 C927 0.959 . S
H916 C930 0.929 . S
H917 C931 0.931 . S
H918 C933 0.930 . S
C919 H907 0.930 . S
C919 C920 1.399 . S
C919 C924 1.399 1_556 S
C920 C919 1.399 . S
C920 C921 1.376 . S
C921 H908 0.930 . S
C921 C920 1.376 . S
C921 C922 1.388 1_556 S
C922 H909 0.930 . S
C922 C921 1.388 1_554 S
C922 C923 1.390 . S
C923 C922 1.390 . S
C923 C924 1.394 . S
C923 C929 1.465 . S
C924 C919 1.399 1_554 S
C924 C923 1.394 . S
C924 C925 1.516 . S
C925 C924 1.516 . S
C925 C926 1.502 . S
C925 C927 1.561 . S
C925 C928 1.526 . S
C926 H910 0.959 . S
C926 H911 0.959 . S
C926 H912 0.961 . S
C926 C925 1.502 . S
C927 H913 0.960 . S
C927 H914 0.961 . S
C927 H915 0.959 . S
C927 C925 1.561 . S
C928 C925 1.526 . S
C928 C929 1.396 . S
C928 C933 1.390 . S
C929 C923 1.465 . S
C929 C928 1.396 . S
C929 C930 1.399 . S
C930 H916 0.929 . S
C930 C929 1.399 . S
C930 C931 1.385 . S
C931 H917 0.931 . S
C931 C930 1.385 . S
C931 C932 1.389 . S
C932 C931 1.389 . S
C932 C933 1.387 . S
C933 H918 0.930 . S
C933 C928 1.390 . S
C933 C932 1.387 . S
H934 C946 0.930 . S
H935 C948 0.930 . S
H936 C949 0.930 . S
H937 C953 0.959 . S
H938 C953 0.959 . S
H939 C953 0.961 . S
H940 C954 0.960 . S
H941 C954 0.961 . S
H942 C954 0.959 . S
H943 C957 0.929 . S
H944 C958 0.931 . S
H945 C960 0.930 . S
C946 H934 0.930 . S
C946 C947 1.399 . S
C946 C951 1.399 . S
C947 C946 1.399 . S
C947 C948 1.376 . S
C948 H935 0.930 . S
C948 C947 1.376 . S
C948 C949 1.388 . S
C949 H936 0.930 . S
C949 C948 1.388 . S
C949 C950 1.390 . S
C950 C949 1.390 . S
C950 C951 1.394 . S
C950 C956 1.465 . S
C951 C946 1.399 . S
C951 C950 1.394 . S
C951 C952 1.516 . S
C952 C951 1.516 . S
C952 C953 1.502 . S
C952 C954 1.561 . S
C952 C955 1.526 . S
C953 H937 0.959 . S
C953 H938 0.959 . S
C953 H939 0.961 . S
C953 C952 1.502 . S
C954 H940 0.960 . S
C954 H941 0.961 . S
C954 H942 0.959 . S
C954 C952 1.561 . S
C955 C952 1.526 . S
C955 C956 1.396 . S
C955 C960 1.390 . S
C956 C950 1.465 . S
C956 C955 1.396 . S
C956 C957 1.399 . S
C957 H943 0.929 . S
C957 C956 1.399 . S
C957 C958 1.385 . S
C958 H944 0.931 . S
C958 C957 1.385 . S
C958 C959 1.389 . S
C959 C958 1.389 . S
C959 C960 1.387 . S
C960 H945 0.930 . S
C960 C955 1.390 . S
C960 C959 1.387 . S
H961 C973 0.930 . S
H962 C975 0.930 . S
H963 C976 0.930 . S
H964 C980 0.959 . S
H965 C980 0.959 . S
H966 C980 0.961 . S
H967 C981 0.960 . S
H968 C981 0.961 . S
H969 C981 0.959 . S
H970 C984 0.929 . S
H971 C985 0.931 . S
H972 C987 0.930 . S
C973 H961 0.930 . S
C973 C974 1.399 . S
C973 C978 1.399 . S
C974 C973 1.399 . S
C974 C975 1.376 . S
C975 H962 0.930 . S
C975 C974 1.376 . S
C975 C976 1.388 . S
C976 H963 0.930 . S
C976 C975 1.388 . S
C976 C977 1.390 . S
C977 C976 1.390 . S
C977 C978 1.394 . S
C977 C983 1.465 . S
C978 C973 1.399 . S
C978 C977 1.394 . S
C978 C979 1.516 . S
C979 C978 1.516 . S
C979 C980 1.502 . S
C979 C981 1.561 . S
C979 C982 1.526 . S
C980 H964 0.959 . S
C980 H965 0.959 . S
C980 H966 0.961 . S
C980 C979 1.502 . S
C981 H967 0.960 . S
C981 H968 0.961 . S
C981 H969 0.959 . S
C981 C979 1.561 . S
C982 C979 1.526 . S
C982 C983 1.396 . S
C982 C987 1.390 . S
C983 C977 1.465 . S
C983 C982 1.396 . S
C983 C984 1.399 . S
C984 H970 0.929 . S
C984 C983 1.399 . S
C984 C985 1.385 . S
C985 H971 0.931 . S
C985 C984 1.385 . S
C985 C986 1.389 . S
C986 C985 1.389 . S
C986 C987 1.387 . S
C987 H972 0.930 . S
C987 C982 1.390 . S
C987 C986 1.387 . S
H988 C1000 0.930 . S
H989 C1002 0.930 . S
H990 C1003 0.930 . S
H991 C1007 0.959 . S
H992 C1007 0.959 . S
H993 C1007 0.961 . S
H994 C1008 0.960 . S
H995 C1008 0.961 . S
H996 C1008 0.959 . S
H997 C1011 0.929 . S
H998 C1012 0.931 . S
H999 C1014 0.930 . S
C1000 H988 0.930 . S
C1000 C1001 1.399 . S
C1000 C1005 1.399 . S
C1001 C1000 1.399 . S
C1001 C1002 1.376 . S
C1002 H989 0.930 . S
C1002 C1001 1.376 . S
C1002 C1003 1.388 . S
C1003 H990 0.930 . S
C1003 C1002 1.388 . S
C1003 C1004 1.390 . S
C1004 C1003 1.390 . S
C1004 C1005 1.394 . S
C1004 C1010 1.465 . S
C1005 C1000 1.399 . S
C1005 C1004 1.394 . S
C1005 C1006 1.516 . S
C1006 C1005 1.516 . S
C1006 C1007 1.502 . S
C1006 C1008 1.561 . S
C1006 C1009 1.526 . S
C1007 H991 0.959 . S
C1007 H992 0.959 . S
C1007 H993 0.961 . S
C1007 C1006 1.502 . S
C1008 H994 0.960 . S
C1008 H995 0.961 . S
C1008 H996 0.959 . S
C1008 C1006 1.561 . S
C1009 C1006 1.526 . S
C1009 C1010 1.396 . S
C1009 C1014 1.390 . S
C1010 C1004 1.465 . S
C1010 C1009 1.396 . S
C1010 C1011 1.399 . S
C1011 H997 0.929 . S
C1011 C1010 1.399 . S
C1011 C1012 1.385 . S
C1012 H998 0.931 . S
C1012 C1011 1.385 . S
C1012 C1013 1.389 . S
C1013 C1012 1.389 . S
C1013 C1014 1.387 . S
C1014 H999 0.930 . S
C1014 C1009 1.390 . S
C1014 C1013 1.387 . S
H1015 C1027 0.930 . S
H1016 C1029 0.930 . S
H1017 C1030 0.930 . S
H1018 C1034 0.959 . S
H1019 C1034 0.959 . S
H1020 C1034 0.961 . S
H1021 C1035 0.960 . S
H1022 C1035 0.961 . S
H1023 C1035 0.959 . S
H1024 C1038 0.929 . S
H1025 C1039 0.931 . S
H1026 C1041 0.930 . S
C1027 H1015 0.930 . S
C1027 C1028 1.399 . S
C1027 C1032 1.399 1_556 S
C1028 C1027 1.399 . S
C1028 C1029 1.376 . S
C1029 H1016 0.930 . S
C1029 C1028 1.376 . S
C1029 C1030 1.388 1_556 S
C1030 H1017 0.930 . S
C1030 C1029 1.388 1_554 S
C1030 C1031 1.390 . S
C1031 C1030 1.390 . S
C1031 C1032 1.394 . S
C1031 C1037 1.465 . S
C1032 C1027 1.399 1_554 S
C1032 C1031 1.394 . S
C1032 C1033 1.516 . S
C1033 C1032 1.516 . S
C1033 C1034 1.502 . S
C1033 C1035 1.561 . S
C1033 C1036 1.526 . S
C1034 H1018 0.959 . S
C1034 H1019 0.959 . S
C1034 H1020 0.961 . S
C1034 C1033 1.502 . S
C1035 H1021 0.960 . S
C1035 H1022 0.961 . S
C1035 H1023 0.959 . S
C1035 C1033 1.561 . S
C1036 C1033 1.526 . S
C1036 C1037 1.396 . S
C1036 C1041 1.390 . S
C1037 C1031 1.465 . S
C1037 C1036 1.396 . S
C1037 C1038 1.399 . S
C1038 H1024 0.929 . S
C1038 C1037 1.399 . S
C1038 C1039 1.385 . S
C1039 H1025 0.931 . S
C1039 C1038 1.385 . S
C1039 C1040 1.389 . S
C1040 C1039 1.389 . S
C1040 C1041 1.387 . S
C1041 H1026 0.930 . S
C1041 C1036 1.390 . S
C1041 C1040 1.387 . S
H1042 C1054 0.930 . S
H1043 C1056 0.930 . S
H1044 C1057 0.930 . S
H1045 C1061 0.959 . S
H1046 C1061 0.959 . S
H1047 C1061 0.961 . S
H1048 C1062 0.960 . S
H1049 C1062 0.961 . S
H1050 C1062 0.959 . S
H1051 C1065 0.929 . S
H1052 C1066 0.931 . S
H1053 C1068 0.930 . S
C1054 H1042 0.930 . S
C1054 C1055 1.399 . S
C1054 C1059 1.399 . S
C1055 C1054 1.399 . S
C1055 C1056 1.376 . S
C1056 H1043 0.930 . S
C1056 C1055 1.376 . S
C1056 C1057 1.388 . S
C1057 H1044 0.930 . S
C1057 C1056 1.388 . S
C1057 C1058 1.390 . S
C1058 C1057 1.390 . S
C1058 C1059 1.394 . S
C1058 C1064 1.465 . S
C1059 C1054 1.399 . S
C1059 C1058 1.394 . S
C1059 C1060 1.516 . S
C1060 C1059 1.516 . S
C1060 C1061 1.502 . S
C1060 C1062 1.561 . S
C1060 C1063 1.526 . S
C1061 H1045 0.959 . S
C1061 H1046 0.959 . S
C1061 H1047 0.961 . S
C1061 C1060 1.502 . S
C1062 H1048 0.960 . S
C1062 H1049 0.961 . S
C1062 H1050 0.959 . S
C1062 C1060 1.561 . S
C1063 C1060 1.526 . S
C1063 C1064 1.396 . S
C1063 C1068 1.390 . S
C1064 C1058 1.465 . S
C1064 C1063 1.396 . S
C1064 C1065 1.399 . S
C1065 H1051 0.929 . S
C1065 C1064 1.399 . S
C1065 C1066 1.385 . S
C1066 H1052 0.931 . S
C1066 C1065 1.385 . S
C1066 C1067 1.389 . S
C1067 C1066 1.389 . S
C1067 C1068 1.387 . S
C1068 H1053 0.930 . S
C1068 C1063 1.390 . S
C1068 C1067 1.387 . S
H1069 C1081 0.930 . S
H1070 C1083 0.930 . S
H1071 C1084 0.930 . S
H1072 C1088 0.959 . S
H1073 C1088 0.959 . S
H1074 C1088 0.961 . S
H1075 C1089 0.960 . S
H1076 C1089 0.961 . S
H1077 C1089 0.959 . S
H1078 C1092 0.929 . S
H1079 C1093 0.931 . S
H1080 C1095 0.930 . S
C1081 H1069 0.930 . S
C1081 C1082 1.399 . S
C1081 C1086 1.399 . S
C1082 C1081 1.399 . S
C1082 C1083 1.376 . S
C1083 H1070 0.930 . S
C1083 C1082 1.376 . S
C1083 C1084 1.388 . S
C1084 H1071 0.930 . S
C1084 C1083 1.388 . S
C1084 C1085 1.390 . S
C1085 C1084 1.390 . S
C1085 C1086 1.394 . S
C1085 C1091 1.465 . S
C1086 C1081 1.399 . S
C1086 C1085 1.394 . S
C1086 C1087 1.516 . S
C1087 C1086 1.516 . S
C1087 C1088 1.502 . S
C1087 C1089 1.561 . S
C1087 C1090 1.526 . S
C1088 H1072 0.959 . S
C1088 H1073 0.959 . S
C1088 H1074 0.961 . S
C1088 C1087 1.502 . S
C1089 H1075 0.960 . S
C1089 H1076 0.961 . S
C1089 H1077 0.959 . S
C1089 C1087 1.561 . S
C1090 C1087 1.526 . S
C1090 C1091 1.396 . S
C1090 C1095 1.390 . S
C1091 C1085 1.465 . S
C1091 C1090 1.396 . S
C1091 C1092 1.399 . S
C1092 H1078 0.929 . S
C1092 C1091 1.399 . S
C1092 C1093 1.385 . S
C1093 H1079 0.931 . S
C1093 C1092 1.385 . S
C1093 C1094 1.389 . S
C1094 C1093 1.389 . S
C1094 C1095 1.387 . S
C1095 H1080 0.930 . S
C1095 C1090 1.390 . S
C1095 C1094 1.387 . S
H1096 C1108 0.930 . S
H1097 C1110 0.930 . S
H1098 C1111 0.930 . S
H1099 C1115 0.959 . S
H1100 C1115 0.959 . S
H1101 C1115 0.961 . S
H1102 C1116 0.960 . S
H1103 C1116 0.961 . S
H1104 C1116 0.959 1_545 S
H1105 C1119 0.929 . S
H1106 C1120 0.931 . S
H1107 C1122 0.930 . S
C1108 H1096 0.930 . S
C1108 C1109 1.399 1_565 S
C1108 C1113 1.399 . S
C1109 C1108 1.399 1_545 S
C1109 C1110 1.376 . S
C1110 H1097 0.930 . S
C1110 C1109 1.376 . S
C1110 C1111 1.388 . S
C1111 H1098 0.930 . S
C1111 C1110 1.388 . S
C1111 C1112 1.390 . S
C1112 C1111 1.390 . S
C1112 C1113 1.394 1_545 S
C1112 C1118 1.465 . S
C1113 C1108 1.399 . S
C1113 C1112 1.394 1_565 S
C1113 C1114 1.516 . S
C1114 C1113 1.516 . S
C1114 C1115 1.502 . S
C1114 C1116 1.561 . S
C1114 C1117 1.526 . S
C1115 H1099 0.959 . S
C1115 H1100 0.959 . S
C1115 H1101 0.961 . S
C1115 C1114 1.502 . S
C1116 H1102 0.960 . S
C1116 H1103 0.961 . S
C1116 H1104 0.959 1_565 S
C1116 C1114 1.561 . S
C1117 C1114 1.526 . S
C1117 C1118 1.396 1_565 S
C1117 C1122 1.390 . S
C1118 C1112 1.465 . S
C1118 C1117 1.396 1_545 S
C1118 C1119 1.399 . S
C1119 H1105 0.929 . S
C1119 C1118 1.399 . S
C1119 C1120 1.385 . S
C1120 H1106 0.931 . S
C1120 C1119 1.385 . S
C1120 C1121 1.389 1_545 S
C1121 C1120 1.389 1_565 S
C1121 C1122 1.387 . S
C1122 H1107 0.930 . S
C1122 C1117 1.390 . S
C1122 C1121 1.387 . S
H1123 C1135 0.930 . S
H1124 C1137 0.930 . S
H1125 C1138 0.930 . S
H1126 C1142 0.959 . S
H1127 C1142 0.959 . S
H1128 C1142 0.961 . S
H1129 C1143 0.960 . S
H1130 C1143 0.961 . S
H1131 C1143 0.959 . S
H1132 C1146 0.929 . S
H1133 C1147 0.931 . S
H1134 C1149 0.930 . S
C1135 H1123 0.930 . S
C1135 C1136 1.399 . S
C1135 C1140 1.399 . S
C1136 C1135 1.399 . S
C1136 C1137 1.376 . S
C1137 H1124 0.930 . S
C1137 C1136 1.376 . S
C1137 C1138 1.388 . S
C1138 H1125 0.930 . S
C1138 C1137 1.388 . S
C1138 C1139 1.390 . S
C1139 C1138 1.390 . S
C1139 C1140 1.394 . S
C1139 C1145 1.465 . S
C1140 C1135 1.399 . S
C1140 C1139 1.394 . S
C1140 C1141 1.516 . S
C1141 C1140 1.516 . S
C1141 C1142 1.502 . S
C1141 C1143 1.561 . S
C1141 C1144 1.526 . S
C1142 H1126 0.959 . S
C1142 H1127 0.959 . S
C1142 H1128 0.961 . S
C1142 C1141 1.502 . S
C1143 H1129 0.960 . S
C1143 H1130 0.961 . S
C1143 H1131 0.959 . S
C1143 C1141 1.561 . S
C1144 C1141 1.526 . S
C1144 C1145 1.396 . S
C1144 C1149 1.390 . S
C1145 C1139 1.465 . S
C1145 C1144 1.396 . S
C1145 C1146 1.399 . S
C1146 H1132 0.929 . S
C1146 C1145 1.399 . S
C1146 C1147 1.385 . S
C1147 H1133 0.931 . S
C1147 C1146 1.385 . S
C1147 C1148 1.389 . S
C1148 C1147 1.389 . S
C1148 C1149 1.387 . S
C1149 H1134 0.930 . S
C1149 C1144 1.390 . S
C1149 C1148 1.387 . S
H1150 C1162 0.930 . S
H1151 C1164 0.930 . S
H1152 C1165 0.930 . S
H1153 C1169 0.959 . S
H1154 C1169 0.959 . S
H1155 C1169 0.961 . S
H1156 C1170 0.960 . S
H1157 C1170 0.961 . S
H1158 C1170 0.959 . S
H1159 C1173 0.929 . S
H1160 C1174 0.931 . S
H1161 C1176 0.930 . S
C1162 H1150 0.930 . S
C1162 C1163 1.399 1_565 S
C1162 C1167 1.399 . S
C1163 C1162 1.399 1_545 S
C1163 C1164 1.376 . S
C1164 H1151 0.930 . S
C1164 C1163 1.376 . S
C1164 C1165 1.388 . S
C1165 H1152 0.930 . S
C1165 C1164 1.388 . S
C1165 C1166 1.390 . S
C1166 C1165 1.390 . S
C1166 C1167 1.394 1_545 S
C1166 C1172 1.465 . S
C1167 C1162 1.399 . S
C1167 C1166 1.394 1_565 S
C1167 C1168 1.516 . S
C1168 C1167 1.516 . S
C1168 C1169 1.502 . S
C1168 C1170 1.561 . S
C1168 C1171 1.526 . S
C1169 H1153 0.959 . S
C1169 H1154 0.959 . S
C1169 H1155 0.961 . S
C1169 C1168 1.502 . S
C1170 H1156 0.960 . S
C1170 H1157 0.961 . S
C1170 H1158 0.959 . S
C1170 C1168 1.561 . S
C1171 C1168 1.526 . S
C1171 C1172 1.396 1_565 S
C1171 C1176 1.390 . S
C1172 C1166 1.465 . S
C1172 C1171 1.396 1_545 S
C1172 C1173 1.399 . S
C1173 H1159 0.929 . S
C1173 C1172 1.399 . S
C1173 C1174 1.385 . S
C1174 H1160 0.931 . S
C1174 C1173 1.385 . S
C1174 C1175 1.389 1_545 S
C1175 C1174 1.389 1_565 S
C1175 C1176 1.387 . S
C1176 H1161 0.930 . S
C1176 C1171 1.390 . S
C1176 C1175 1.387 . S
H1177 C1189 0.930 . S
H1178 C1191 0.930 . S
H1179 C1192 0.930 . S
H1180 C1196 0.959 . S
H1181 C1196 0.959 . S
H1182 C1196 0.961 . S
H1183 C1197 0.960 . S
H1184 C1197 0.961 . S
H1185 C1197 0.959 . S
H1186 C1200 0.929 . S
H1187 C1201 0.931 . S
H1188 C1203 0.930 . S
C1189 H1177 0.930 . S
C1189 C1190 1.399 . S
C1189 C1194 1.399 1_556 S
C1190 C1189 1.399 . S
C1190 C1191 1.376 . S
C1191 H1178 0.930 . S
C1191 C1190 1.376 . S
C1191 C1192 1.388 1_556 S
C1192 H1179 0.930 . S
C1192 C1191 1.388 1_554 S
C1192 C1193 1.390 . S
C1193 C1192 1.390 . S
C1193 C1194 1.394 . S
C1193 C1199 1.465 . S
C1194 C1189 1.399 1_554 S
C1194 C1193 1.394 . S
C1194 C1195 1.516 . S
C1195 C1194 1.516 . S
C1195 C1196 1.502 . S
C1195 C1197 1.561 . S
C1195 C1198 1.526 . S
C1196 H1180 0.959 . S
C1196 H1181 0.959 . S
C1196 H1182 0.961 . S
C1196 C1195 1.502 . S
C1197 H1183 0.960 . S
C1197 H1184 0.961 . S
C1197 H1185 0.959 . S
C1197 C1195 1.561 . S
C1198 C1195 1.526 . S
C1198 C1199 1.396 . S
C1198 C1203 1.390 . S
C1199 C1193 1.465 . S
C1199 C1198 1.396 . S
C1199 C1200 1.399 . S
C1200 H1186 0.929 . S
C1200 C1199 1.399 . S
C1200 C1201 1.385 . S
C1201 H1187 0.931 . S
C1201 C1200 1.385 . S
C1201 C1202 1.389 . S
C1202 C1201 1.389 . S
C1202 C1203 1.387 . S
C1203 H1188 0.930 . S
C1203 C1198 1.390 . S
C1203 C1202 1.387 . S
H1204 C1216 0.930 . S
H1205 C1218 0.930 . S
H1206 C1219 0.930 . S
H1207 C1223 0.959 . S
H1208 C1223 0.959 . S
H1209 C1223 0.961 . S
H1210 C1224 0.960 . S
H1211 C1224 0.961 . S
H1212 C1224 0.959 . S
H1213 C1227 0.929 . S
H1214 C1228 0.931 . S
H1215 C1230 0.930 . S
C1216 H1204 0.930 . S
C1216 C1217 1.399 1_545 S
C1216 C1221 1.399 . S
C1217 C1216 1.399 1_565 S
C1217 C1218 1.376 . S
C1218 H1205 0.930 . S
C1218 C1217 1.376 . S
C1218 C1219 1.388 . S
C1219 H1206 0.930 . S
C1219 C1218 1.388 . S
C1219 C1220 1.390 . S
C1220 C1219 1.390 . S
C1220 C1221 1.394 1_565 S
C1220 C1226 1.465 . S
C1221 C1216 1.399 . S
C1221 C1220 1.394 1_545 S
C1221 C1222 1.516 . S
C1222 C1221 1.516 . S
C1222 C1223 1.502 . S
C1222 C1224 1.561 . S
C1222 C1225 1.526 . S
C1223 H1207 0.959 . S
C1223 H1208 0.959 . S
C1223 H1209 0.961 . S
C1223 C1222 1.502 . S
C1224 H1210 0.960 . S
C1224 H1211 0.961 . S
C1224 H1212 0.959 . S
C1224 C1222 1.561 . S
C1225 C1222 1.526 . S
C1225 C1226 1.396 1_545 S
C1225 C1230 1.390 . S
C1226 C1220 1.465 . S
C1226 C1225 1.396 1_565 S
C1226 C1227 1.399 . S
C1227 H1213 0.929 . S
C1227 C1226 1.399 . S
C1227 C1228 1.385 . S
C1228 H1214 0.931 . S
C1228 C1227 1.385 . S
C1228 C1229 1.389 1_565 S
C1229 C1228 1.389 1_545 S
C1229 C1230 1.387 . S
C1230 H1215 0.930 . S
C1230 C1225 1.390 . S
C1230 C1229 1.387 . S
H1231 C1243 0.930 . S
H1232 C1245 0.930 . S
H1233 C1246 0.930 . S
H1234 C1250 0.959 . S
H1235 C1250 0.959 . S
H1236 C1250 0.961 . S
H1237 C1251 0.960 . S
H1238 C1251 0.961 . S
H1239 C1251 0.959 . S
H1240 C1254 0.929 . S
H1241 C1255 0.931 . S
H1242 C1257 0.930 . S
C1243 H1231 0.930 . S
C1243 C1244 1.399 . S
C1243 C1248 1.399 . S
C1244 C1243 1.399 . S
C1244 C1245 1.376 . S
C1245 H1232 0.930 . S
C1245 C1244 1.376 . S
C1245 C1246 1.388 . S
C1246 H1233 0.930 . S
C1246 C1245 1.388 . S
C1246 C1247 1.390 . S
C1247 C1246 1.390 . S
C1247 C1248 1.394 . S
C1247 C1253 1.465 . S
C1248 C1243 1.399 . S
C1248 C1247 1.394 . S
C1248 C1249 1.516 . S
C1249 C1248 1.516 . S
C1249 C1250 1.502 . S
C1249 C1251 1.561 . S
C1249 C1252 1.526 . S
C1250 H1234 0.959 . S
C1250 H1235 0.959 . S
C1250 H1236 0.961 . S
C1250 C1249 1.502 . S
C1251 H1237 0.960 . S
C1251 H1238 0.961 . S
C1251 H1239 0.959 . S
C1251 C1249 1.561 . S
C1252 C1249 1.526 . S
C1252 C1253 1.396 . S
C1252 C1257 1.390 . S
C1253 C1247 1.465 . S
C1253 C1252 1.396 . S
C1253 C1254 1.399 . S
C1254 H1240 0.929 . S
C1254 C1253 1.399 . S
C1254 C1255 1.385 . S
C1255 H1241 0.931 . S
C1255 C1254 1.385 . S
C1255 C1256 1.389 . S
C1256 C1255 1.389 . S
C1256 C1257 1.387 . S
C1257 H1242 0.930 . S
C1257 C1252 1.390 . S
C1257 C1256 1.387 . S
H1258 C1270 0.930 . S
H1259 C1272 0.930 . S
H1260 C1273 0.930 . S
H1261 C1277 0.959 . S
H1262 C1277 0.959 . S
H1263 C1277 0.961 . S
H1264 C1278 0.960 . S
H1265 C1278 0.961 . S
H1266 C1278 0.959 . S
H1267 C1281 0.929 . S
H1268 C1282 0.931 . S
H1269 C1284 0.930 . S
C1270 H1258 0.930 . S
C1270 C1271 1.399 1_565 S
C1270 C1275 1.399 . S
C1271 C1270 1.399 1_545 S
C1271 C1272 1.376 . S
C1272 H1259 0.930 . S
C1272 C1271 1.376 . S
C1272 C1273 1.388 . S
C1273 H1260 0.930 . S
C1273 C1272 1.388 . S
C1273 C1274 1.390 . S
C1274 C1273 1.390 . S
C1274 C1275 1.394 1_545 S
C1274 C1280 1.465 . S
C1275 C1270 1.399 . S
C1275 C1274 1.394 1_565 S
C1275 C1276 1.516 . S
C1276 C1275 1.516 . S
C1276 C1277 1.502 . S
C1276 C1278 1.561 . S
C1276 C1279 1.526 . S
C1277 H1261 0.959 . S
C1277 H1262 0.959 . S
C1277 H1263 0.961 . S
C1277 C1276 1.502 . S
C1278 H1264 0.960 . S
C1278 H1265 0.961 . S
C1278 H1266 0.959 . S
C1278 C1276 1.561 . S
C1279 C1276 1.526 . S
C1279 C1280 1.396 1_565 S
C1279 C1284 1.390 . S
C1280 C1274 1.465 . S
C1280 C1279 1.396 1_545 S
C1280 C1281 1.399 . S
C1281 H1267 0.929 . S
C1281 C1280 1.399 . S
C1281 C1282 1.385 . S
C1282 H1268 0.931 . S
C1282 C1281 1.385 . S
C1282 C1283 1.389 1_545 S
C1283 C1282 1.389 1_565 S
C1283 C1284 1.387 . S
C1284 H1269 0.930 . S
C1284 C1279 1.390 . S
C1284 C1283 1.387 . S
H1285 C1297 0.930 . S
H1286 C1299 0.930 . S
H1287 C1300 0.930 . S
H1288 C1304 0.959 . S
H1289 C1304 0.959 . S
H1290 C1304 0.961 . S
H1291 C1305 0.960 . S
H1292 C1305 0.961 . S
H1293 C1305 0.959 . S
H1294 C1308 0.929 . S
H1295 C1309 0.931 . S
H1296 C1311 0.930 . S
C1297 H1285 0.930 . S
C1297 C1298 1.399 . S
C1297 C1302 1.399 . S
C1298 C1297 1.399 . S
C1298 C1299 1.376 . S
C1299 H1286 0.930 . S
C1299 C1298 1.376 . S
C1299 C1300 1.388 . S
C1300 H1287 0.930 . S
C1300 C1299 1.388 . S
C1300 C1301 1.390 . S
C1301 C1300 1.390 . S
C1301 C1302 1.394 . S
C1301 C1307 1.465 . S
C1302 C1297 1.399 . S
C1302 C1301 1.394 . S
C1302 C1303 1.516 . S
C1303 C1302 1.516 . S
C1303 C1304 1.502 . S
C1303 C1305 1.561 . S
C1303 C1306 1.526 . S
C1304 H1288 0.959 . S
C1304 H1289 0.959 . S
C1304 H1290 0.961 . S
C1304 C1303 1.502 . S
C1305 H1291 0.960 . S
C1305 H1292 0.961 . S
C1305 H1293 0.959 . S
C1305 C1303 1.561 . S
C1306 C1303 1.526 . S
C1306 C1307 1.396 . S
C1306 C1311 1.390 1_554 S
C1307 C1301 1.465 . S
C1307 C1306 1.396 . S
C1307 C1308 1.399 . S
C1308 H1294 0.929 . S
C1308 C1307 1.399 . S
C1308 C1309 1.385 1_554 S
C1309 H1295 0.931 . S
C1309 C1308 1.385 1_556 S
C1309 C1310 1.389 . S
C1310 C1309 1.389 . S
C1310 C1311 1.387 . S
C1311 H1296 0.930 . S
C1311 C1306 1.390 1_556 S
C1311 C1310 1.387 . S
H1312 C1324 0.930 . S
H1313 C1326 0.930 . S
H1314 C1327 0.930 . S
H1315 C1331 0.959 . S
H1316 C1331 0.959 . S
H1317 C1331 0.961 . S
H1318 C1332 0.960 . S
H1319 C1332 0.961 . S
H1320 C1332 0.959 . S
H1321 C1335 0.929 . S
H1322 C1336 0.931 . S
H1323 C1338 0.930 . S
C1324 H1312 0.930 . S
C1324 C1325 1.399 . S
C1324 C1329 1.399 . S
C1325 C1324 1.399 . S
C1325 C1326 1.376 . S
C1326 H1313 0.930 . S
C1326 C1325 1.376 . S
C1326 C1327 1.388 . S
C1327 H1314 0.930 . S
C1327 C1326 1.388 . S
C1327 C1328 1.390 . S
C1328 C1327 1.390 . S
C1328 C1329 1.394 . S
C1328 C1334 1.465 . S
C1329 C1324 1.399 . S
C1329 C1328 1.394 . S
C1329 C1330 1.516 . S
C1330 C1329 1.516 . S
C1330 C1331 1.502 . S
C1330 C1332 1.561 . S
C1330 C1333 1.526 . S
C1331 H1315 0.959 . S
C1331 H1316 0.959 . S
C1331 H1317 0.961 . S
C1331 C1330 1.502 . S
C1332 H1318 0.960 . S
C1332 H1319 0.961 . S
C1332 H1320 0.959 . S
C1332 C1330 1.561 . S
C1333 C1330 1.526 . S
C1333 C1334 1.396 . S
C1333 C1338 1.390 . S
C1334 C1328 1.465 . S
C1334 C1333 1.396 . S
C1334 C1335 1.399 . S
C1335 H1321 0.929 . S
C1335 C1334 1.399 . S
C1335 C1336 1.385 . S
C1336 H1322 0.931 . S
C1336 C1335 1.385 . S
C1336 C1337 1.389 . S
C1337 C1336 1.389 . S
C1337 C1338 1.387 . S
C1338 H1323 0.930 . S
C1338 C1333 1.390 . S
C1338 C1337 1.387 . S
H1339 C1351 0.930 . S
H1340 C1353 0.930 . S
H1341 C1354 0.930 . S
H1342 C1358 0.959 . S
H1343 C1358 0.959 . S
H1344 C1358 0.961 . S
H1345 C1359 0.960 . S
H1346 C1359 0.961 . S
H1347 C1359 0.959 . S
H1348 C1362 0.929 . S
H1349 C1363 0.931 . S
H1350 C1365 0.930 . S
C1351 H1339 0.930 . S
C1351 C1352 1.399 . S
C1351 C1356 1.399 . S
C1352 C1351 1.399 . S
C1352 C1353 1.376 . S
C1353 H1340 0.930 . S
C1353 C1352 1.376 . S
C1353 C1354 1.388 . S
C1354 H1341 0.930 . S
C1354 C1353 1.388 . S
C1354 C1355 1.390 . S
C1355 C1354 1.390 . S
C1355 C1356 1.394 . S
C1355 C1361 1.465 . S
C1356 C1351 1.399 . S
C1356 C1355 1.394 . S
C1356 C1357 1.516 . S
C1357 C1356 1.516 . S
C1357 C1358 1.502 . S
C1357 C1359 1.561 . S
C1357 C1360 1.526 . S
C1358 H1342 0.959 . S
C1358 H1343 0.959 . S
C1358 H1344 0.961 . S
C1358 C1357 1.502 . S
C1359 H1345 0.960 . S
C1359 H1346 0.961 . S
C1359 H1347 0.959 . S
C1359 C1357 1.561 . S
C1360 C1357 1.526 . S
C1360 C1361 1.396 . S
C1360 C1365 1.390 . S
C1361 C1355 1.465 . S
C1361 C1360 1.396 . S
C1361 C1362 1.399 . S
C1362 H1348 0.929 . S
C1362 C1361 1.399 . S
C1362 C1363 1.385 . S
C1363 H1349 0.931 . S
C1363 C1362 1.385 . S
C1363 C1364 1.389 . S
C1364 C1363 1.389 . S
C1364 C1365 1.387 . S
C1365 H1350 0.930 . S
C1365 C1360 1.390 . S
C1365 C1364 1.387 . S
H1366 C1378 0.930 . S
H1367 C1380 0.930 . S
H1368 C1381 0.930 . S
H1369 C1385 0.959 . S
H1370 C1385 0.959 . S
H1371 C1385 0.961 . S
H1372 C1386 0.960 . S
H1373 C1386 0.961 . S
H1374 C1386 0.959 . S
H1375 C1389 0.929 . S
H1376 C1390 0.931 . S
H1377 C1392 0.930 . S
C1378 H1366 0.930 . S
C1378 C1379 1.399 . S
C1378 C1383 1.399 . S
C1379 C1378 1.399 . S
C1379 C1380 1.376 . S
C1380 H1367 0.930 . S
C1380 C1379 1.376 . S
C1380 C1381 1.388 . S
C1381 H1368 0.930 . S
C1381 C1380 1.388 . S
C1381 C1382 1.390 . S
C1382 C1381 1.390 . S
C1382 C1383 1.394 . S
C1382 C1388 1.465 . S
C1383 C1378 1.399 . S
C1383 C1382 1.394 . S
C1383 C1384 1.516 . S
C1384 C1383 1.516 . S
C1384 C1385 1.502 . S
C1384 C1386 1.561 . S
C1384 C1387 1.526 . S
C1385 H1369 0.959 . S
C1385 H1370 0.959 . S
C1385 H1371 0.961 . S
C1385 C1384 1.502 . S
C1386 H1372 0.960 . S
C1386 H1373 0.961 . S
C1386 H1374 0.959 . S
C1386 C1384 1.561 . S
C1387 C1384 1.526 . S
C1387 C1388 1.396 . S
C1387 C1392 1.390 . S
C1388 C1382 1.465 . S
C1388 C1387 1.396 . S
C1388 C1389 1.399 . S
C1389 H1375 0.929 . S
C1389 C1388 1.399 . S
C1389 C1390 1.385 . S
C1390 H1376 0.931 . S
C1390 C1389 1.385 . S
C1390 C1391 1.389 . S
C1391 C1390 1.389 . S
C1391 C1392 1.387 . S
C1392 H1377 0.930 . S
C1392 C1387 1.390 . S
C1392 C1391 1.387 . S
H1393 C1405 0.930 . S
H1394 C1407 0.930 . S
H1395 C1408 0.930 . S
H1396 C1412 0.959 . S
H1397 C1412 0.959 . S
H1398 C1412 0.961 . S
H1399 C1413 0.960 . S
H1400 C1413 0.961 . S
H1401 C1413 0.959 . S
H1402 C1416 0.929 . S
H1403 C1417 0.931 . S
H1404 C1419 0.930 . S
C1405 H1393 0.930 . S
C1405 C1406 1.399 . S
C1405 C1410 1.399 . S
C1406 C1405 1.399 . S
C1406 C1407 1.376 . S
C1407 H1394 0.930 . S
C1407 C1406 1.376 . S
C1407 C1408 1.388 . S
C1408 H1395 0.930 . S
C1408 C1407 1.388 . S
C1408 C1409 1.390 . S
C1409 C1408 1.390 . S
C1409 C1410 1.394 . S
C1409 C1415 1.465 . S
C1410 C1405 1.399 . S
C1410 C1409 1.394 . S
C1410 C1411 1.516 . S
C1411 C1410 1.516 . S
C1411 C1412 1.502 . S
C1411 C1413 1.561 . S
C1411 C1414 1.526 . S
C1412 H1396 0.959 . S
C1412 H1397 0.959 . S
C1412 H1398 0.961 . S
C1412 C1411 1.502 . S
C1413 H1399 0.960 . S
C1413 H1400 0.961 . S
C1413 H1401 0.959 . S
C1413 C1411 1.561 . S
C1414 C1411 1.526 . S
C1414 C1415 1.396 . S
C1414 C1419 1.390 1_554 S
C1415 C1409 1.465 . S
C1415 C1414 1.396 . S
C1415 C1416 1.399 . S
C1416 H1402 0.929 . S
C1416 C1415 1.399 . S
C1416 C1417 1.385 1_554 S
C1417 H1403 0.931 . S
C1417 C1416 1.385 1_556 S
C1417 C1418 1.389 . S
C1418 C1417 1.389 . S
C1418 C1419 1.387 . S
C1419 H1404 0.930 . S
C1419 C1414 1.390 1_556 S
C1419 C1418 1.387 . S
H1420 C1432 0.930 . S
H1421 C1434 0.930 . S
H1422 C1435 0.930 . S
H1423 C1439 0.959 . S
H1424 C1439 0.959 . S
H1425 C1439 0.961 . S
H1426 C1440 0.960 . S
H1427 C1440 0.961 . S
H1428 C1440 0.959 . S
H1429 C1443 0.929 . S
H1430 C1444 0.931 . S
H1431 C1446 0.930 . S
C1432 H1420 0.930 . S
C1432 C1433 1.399 . S
C1432 C1437 1.399 . S
C1433 C1432 1.399 . S
C1433 C1434 1.376 . S
C1434 H1421 0.930 . S
C1434 C1433 1.376 . S
C1434 C1435 1.388 . S
C1435 H1422 0.930 . S
C1435 C1434 1.388 . S
C1435 C1436 1.390 . S
C1436 C1435 1.390 . S
C1436 C1437 1.394 . S
C1436 C1442 1.465 . S
C1437 C1432 1.399 . S
C1437 C1436 1.394 . S
C1437 C1438 1.516 . S
C1438 C1437 1.516 . S
C1438 C1439 1.502 . S
C1438 C1440 1.561 . S
C1438 C1441 1.526 . S
C1439 H1423 0.959 . S
C1439 H1424 0.959 . S
C1439 H1425 0.961 . S
C1439 C1438 1.502 . S
C1440 H1426 0.960 . S
C1440 H1427 0.961 . S
C1440 H1428 0.959 . S
C1440 C1438 1.561 . S
C1441 C1438 1.526 . S
C1441 C1442 1.396 . S
C1441 C1446 1.390 . S
C1442 C1436 1.465 . S
C1442 C1441 1.396 . S
C1442 C1443 1.399 . S
C1443 H1429 0.929 . S
C1443 C1442 1.399 . S
C1443 C1444 1.385 . S
C1444 H1430 0.931 . S
C1444 C1443 1.385 . S
C1444 C1445 1.389 . S
C1445 C1444 1.389 . S
C1445 C1446 1.387 . S
C1446 H1431 0.930 . S
C1446 C1441 1.390 . S
C1446 C1445 1.387 . S
H1447 C1459 0.930 . S
H1448 C1461 0.930 . S
H1449 C1462 0.930 . S
H1450 C1466 0.959 . S
H1451 C1466 0.959 . S
H1452 C1466 0.961 . S
H1453 C1467 0.960 . S
H1454 C1467 0.961 . S
H1455 C1467 0.959 . S
H1456 C1470 0.929 . S
H1457 C1471 0.931 . S
H1458 C1473 0.930 . S
C1459 H1447 0.930 . S
C1459 C1460 1.399 . S
C1459 C1464 1.399 . S
C1460 C1459 1.399 . S
C1460 C1461 1.376 . S
C1461 H1448 0.930 . S
C1461 C1460 1.376 . S
C1461 C1462 1.388 . S
C1462 H1449 0.930 . S
C1462 C1461 1.388 . S
C1462 C1463 1.390 . S
C1463 C1462 1.390 . S
C1463 C1464 1.394 . S
C1463 C1469 1.465 . S
C1464 C1459 1.399 . S
C1464 C1463 1.394 . S
C1464 C1465 1.516 . S
C1465 C1464 1.516 . S
C1465 C1466 1.502 . S
C1465 C1467 1.561 . S
C1465 C1468 1.526 . S
C1466 H1450 0.959 . S
C1466 H1451 0.959 . S
C1466 H1452 0.961 . S
C1466 C1465 1.502 . S
C1467 H1453 0.960 . S
C1467 H1454 0.961 . S
C1467 H1455 0.959 . S
C1467 C1465 1.561 . S
C1468 C1465 1.526 . S
C1468 C1469 1.396 . S
C1468 C1473 1.390 . S
C1469 C1463 1.465 . S
C1469 C1468 1.396 . S
C1469 C1470 1.399 . S
C1470 H1456 0.929 . S
C1470 C1469 1.399 . S
C1470 C1471 1.385 . S
C1471 H1457 0.931 . S
C1471 C1470 1.385 . S
C1471 C1472 1.389 . S
C1472 C1471 1.389 . S
C1472 C1473 1.387 . S
C1473 H1458 0.930 . S
C1473 C1468 1.390 . S
C1473 C1472 1.387 . S
H1474 C1486 0.930 . S
H1475 C1488 0.930 . S
H1476 C1489 0.930 . S
H1477 C1493 0.959 . S
H1478 C1493 0.959 . S
H1479 C1493 0.961 . S
H1480 C1494 0.960 . S
H1481 C1494 0.961 . S
H1482 C1494 0.959 . S
H1483 C1497 0.929 . S
H1484 C1498 0.931 . S
H1485 C1500 0.930 . S
C1486 H1474 0.930 . S
C1486 C1487 1.399 . S
C1486 C1491 1.399 . S
C1487 C1486 1.399 . S
C1487 C1488 1.376 . S
C1488 H1475 0.930 . S
C1488 C1487 1.376 . S
C1488 C1489 1.388 . S
C1489 H1476 0.930 . S
C1489 C1488 1.388 . S
C1489 C1490 1.390 . S
C1490 C1489 1.390 . S
C1490 C1491 1.394 . S
C1490 C1496 1.465 . S
C1491 C1486 1.399 . S
C1491 C1490 1.394 . S
C1491 C1492 1.516 . S
C1492 C1491 1.516 . S
C1492 C1493 1.502 . S
C1492 C1494 1.561 . S
C1492 C1495 1.526 . S
C1493 H1477 0.959 . S
C1493 H1478 0.959 . S
C1493 H1479 0.961 . S
C1493 C1492 1.502 . S
C1494 H1480 0.960 . S
C1494 H1481 0.961 . S
C1494 H1482 0.959 . S
C1494 C1492 1.561 . S
C1495 C1492 1.526 . S
C1495 C1496 1.396 . S
C1495 C1500 1.390 . S
C1496 C1490 1.465 . S
C1496 C1495 1.396 . S
C1496 C1497 1.399 . S
C1497 H1483 0.929 . S
C1497 C1496 1.399 . S
C1497 C1498 1.385 . S
C1498 H1484 0.931 . S
C1498 C1497 1.385 . S
C1498 C1499 1.389 . S
C1499 C1498 1.389 . S
C1499 C1500 1.387 . S
C1500 H1485 0.930 . S
C1500 C1495 1.390 . S
C1500 C1499 1.387 . S
H1501 C1513 0.930 . S
H1502 C1515 0.930 . S
H1503 C1516 0.930 . S
H1504 C1520 0.959 . S
H1505 C1520 0.959 . S
H1506 C1520 0.961 . S
H1507 C1521 0.960 . S
H1508 C1521 0.961 . S
H1509 C1521 0.959 . S
H1510 C1524 0.929 . S
H1511 C1525 0.931 . S
H1512 C1527 0.930 . S
C1513 H1501 0.930 . S
C1513 C1514 1.399 . S
C1513 C1518 1.399 1_556 S
C1514 C1513 1.399 . S
C1514 C1515 1.376 . S
C1515 H1502 0.930 . S
C1515 C1514 1.376 . S
C1515 C1516 1.388 1_556 S
C1516 H1503 0.930 . S
C1516 C1515 1.388 1_554 S
C1516 C1517 1.390 . S
C1517 C1516 1.390 . S
C1517 C1518 1.394 . S
C1517 C1523 1.465 . S
C1518 C1513 1.399 1_554 S
C1518 C1517 1.394 . S
C1518 C1519 1.516 . S
C1519 C1518 1.516 . S
C1519 C1520 1.502 . S
C1519 C1521 1.561 . S
C1519 C1522 1.526 . S
C1520 H1504 0.959 . S
C1520 H1505 0.959 . S
C1520 H1506 0.961 . S
C1520 C1519 1.502 . S
C1521 H1507 0.960 . S
C1521 H1508 0.961 . S
C1521 H1509 0.959 . S
C1521 C1519 1.561 . S
C1522 C1519 1.526 . S
C1522 C1523 1.396 . S
C1522 C1527 1.390 . S
C1523 C1517 1.465 . S
C1523 C1522 1.396 . S
C1523 C1524 1.399 . S
C1524 H1510 0.929 . S
C1524 C1523 1.399 . S
C1524 C1525 1.385 . S
C1525 H1511 0.931 . S
C1525 C1524 1.385 . S
C1525 C1526 1.389 . S
C1526 C1525 1.389 . S
C1526 C1527 1.387 . S
C1527 H1512 0.930 . S
C1527 C1522 1.390 . S
C1527 C1526 1.387 . S
H1528 C1540 0.930 . S
H1529 C1542 0.930 . S
H1530 C1543 0.930 . S
H1531 C1547 0.959 . S
H1532 C1547 0.959 . S
H1533 C1547 0.961 . S
H1534 C1548 0.960 . S
H1535 C1548 0.961 . S
H1536 C1548 0.959 . S
H1537 C1551 0.929 . S
H1538 C1552 0.931 . S
H1539 C1554 0.930 . S
C1540 H1528 0.930 . S
C1540 C1541 1.399 . S
C1540 C1545 1.399 . S
C1541 C1540 1.399 . S
C1541 C1542 1.376 1_565 S
C1542 H1529 0.930 . S
C1542 C1541 1.376 1_545 S
C1542 C1543 1.388 . S
C1543 H1530 0.930 . S
C1543 C1542 1.388 . S
C1543 C1544 1.390 . S
C1544 C1543 1.390 . S
C1544 C1545 1.394 1_545 S
C1544 C1550 1.465 . S
C1545 C1540 1.399 . S
C1545 C1544 1.394 1_565 S
C1545 C1546 1.516 . S
C1546 C1545 1.516 . S
C1546 C1547 1.502 . S
C1546 C1548 1.561 . S
C1546 C1549 1.526 . S
C1547 H1531 0.959 . S
C1547 H1532 0.959 . S
C1547 H1533 0.961 . S
C1547 C1546 1.502 . S
C1548 H1534 0.960 . S
C1548 H1535 0.961 . S
C1548 H1536 0.959 . S
C1548 C1546 1.561 . S
C1549 C1546 1.526 . S
C1549 C1550 1.396 1_565 S
C1549 C1554 1.390 . S
C1550 C1544 1.465 . S
C1550 C1549 1.396 1_545 S
C1550 C1551 1.399 . S
C1551 H1537 0.929 . S
C1551 C1550 1.399 . S
C1551 C1552 1.385 . S
C1552 H1538 0.931 . S
C1552 C1551 1.385 . S
C1552 C1553 1.389 . S
C1553 C1552 1.389 . S
C1553 C1554 1.387 1_545 S
C1554 H1539 0.930 . S
C1554 C1549 1.390 . S
C1554 C1553 1.387 1_565 S
H1555 C1567 0.930 . S
H1556 C1569 0.930 . S
H1557 C1570 0.930 . S
H1558 C1574 0.959 . S
H1559 C1574 0.959 . S
H1560 C1574 0.961 . S
H1561 C1575 0.960 . S
H1562 C1575 0.961 . S
H1563 C1575 0.959 . S
H1564 C1578 0.929 . S
H1565 C1579 0.931 . S
H1566 C1581 0.930 . S
C1567 H1555 0.930 . S
C1567 C1568 1.399 . S
C1567 C1572 1.399 . S
C1568 C1567 1.399 . S
C1568 C1569 1.376 . S
C1569 H1556 0.930 . S
C1569 C1568 1.376 . S
C1569 C1570 1.388 . S
C1570 H1557 0.930 . S
C1570 C1569 1.388 . S
C1570 C1571 1.390 . S
C1571 C1570 1.390 . S
C1571 C1572 1.394 . S
C1571 C1577 1.465 . S
C1572 C1567 1.399 . S
C1572 C1571 1.394 . S
C1572 C1573 1.516 . S
C1573 C1572 1.516 . S
C1573 C1574 1.502 . S
C1573 C1575 1.561 . S
C1573 C1576 1.526 . S
C1574 H1558 0.959 . S
C1574 H1559 0.959 . S
C1574 H1560 0.961 . S
C1574 C1573 1.502 . S
C1575 H1561 0.960 . S
C1575 H1562 0.961 . S
C1575 H1563 0.959 . S
C1575 C1573 1.561 . S
C1576 C1573 1.526 . S
C1576 C1577 1.396 . S
C1576 C1581 1.390 1_554 S
C1577 C1571 1.465 . S
C1577 C1576 1.396 . S
C1577 C1578 1.399 . S
C1578 H1564 0.929 . S
C1578 C1577 1.399 . S
C1578 C1579 1.385 1_554 S
C1579 H1565 0.931 . S
C1579 C1578 1.385 1_556 S
C1579 C1580 1.389 . S
C1580 C1579 1.389 . S
C1580 C1581 1.387 . S
C1581 H1566 0.930 . S
C1581 C1576 1.390 1_556 S
C1581 C1580 1.387 . S
H1582 C1594 0.930 . S
H1583 C1596 0.930 . S
H1584 C1597 0.930 . S
H1585 C1601 0.959 . S
H1586 C1601 0.959 . S
H1587 C1601 0.961 . S
H1588 C1602 0.960 . S
H1589 C1602 0.961 . S
H1590 C1602 0.959 . S
H1591 C1605 0.929 . S
H1592 C1606 0.931 . S
H1593 C1608 0.930 . S
C1594 H1582 0.930 . S
C1594 C1595 1.399 . S
C1594 C1599 1.399 . S
C1595 C1594 1.399 . S
C1595 C1596 1.376 1_565 S
C1596 H1583 0.930 . S
C1596 C1595 1.376 1_545 S
C1596 C1597 1.388 . S
C1597 H1584 0.930 . S
C1597 C1596 1.388 . S
C1597 C1598 1.390 . S
C1598 C1597 1.390 . S
C1598 C1599 1.394 1_545 S
C1598 C1604 1.465 . S
C1599 C1594 1.399 . S
C1599 C1598 1.394 1_565 S
C1599 C1600 1.516 . S
C1600 C1599 1.516 . S
C1600 C1601 1.502 . S
C1600 C1602 1.561 . S
C1600 C1603 1.526 . S
C1601 H1585 0.959 . S
C1601 H1586 0.959 . S
C1601 H1587 0.961 . S
C1601 C1600 1.502 . S
C1602 H1588 0.960 . S
C1602 H1589 0.961 . S
C1602 H1590 0.959 . S
C1602 C1600 1.561 . S
C1603 C1600 1.526 . S
C1603 C1604 1.396 1_565 S
C1603 C1608 1.390 . S
C1604 C1598 1.465 . S
C1604 C1603 1.396 1_545 S
C1604 C1605 1.399 . S
C1605 H1591 0.929 . S
C1605 C1604 1.399 . S
C1605 C1606 1.385 . S
C1606 H1592 0.931 . S
C1606 C1605 1.385 . S
C1606 C1607 1.389 . S
C1607 C1606 1.389 . S
C1607 C1608 1.387 1_545 S
C1608 H1593 0.930 . S
C1608 C1603 1.390 . S
C1608 C1607 1.387 1_565 S
H1609 C1621 0.930 . S
H1610 C1623 0.930 . S
H1611 C1624 0.930 . S
H1612 C1628 0.959 . S
H1613 C1628 0.959 . S
H1614 C1628 0.961 . S
H1615 C1629 0.960 . S
H1616 C1629 0.961 . S
H1617 C1629 0.959 . S
H1618 C1632 0.929 . S
H1619 C1633 0.931 . S
H1620 C1635 0.930 . S
C1621 H1609 0.930 . S
C1621 C1622 1.399 . S
C1621 C1626 1.399 . S
C1622 C1621 1.399 . S
C1622 C1623 1.376 . S
C1623 H1610 0.930 . S
C1623 C1622 1.376 . S
C1623 C1624 1.388 . S
C1624 H1611 0.930 . S
C1624 C1623 1.388 . S
C1624 C1625 1.390 . S
C1625 C1624 1.390 . S
C1625 C1626 1.394 . S
C1625 C1631 1.465 . S
C1626 C1621 1.399 . S
C1626 C1625 1.394 . S
C1626 C1627 1.516 . S
C1627 C1626 1.516 . S
C1627 C1628 1.502 . S
C1627 C1629 1.561 . S
C1627 C1630 1.526 . S
C1628 H1612 0.959 . S
C1628 H1613 0.959 . S
C1628 H1614 0.961 . S
C1628 C1627 1.502 . S
C1629 H1615 0.960 . S
C1629 H1616 0.961 . S
C1629 H1617 0.959 . S
C1629 C1627 1.561 . S
C1630 C1627 1.526 . S
C1630 C1631 1.396 . S
C1630 C1635 1.390 . S
C1631 C1625 1.465 . S
C1631 C1630 1.396 . S
C1631 C1632 1.399 . S
C1632 H1618 0.929 . S
C1632 C1631 1.399 . S
C1632 C1633 1.385 . S
C1633 H1619 0.931 . S
C1633 C1632 1.385 . S
C1633 C1634 1.389 . S
C1634 C1633 1.389 . S
C1634 C1635 1.387 . S
C1635 H1620 0.930 . S
C1635 C1630 1.390 . S
C1635 C1634 1.387 . S
H1636 C1648 0.930 . S
H1637 C1650 0.930 . S
H1638 C1651 0.930 . S
H1639 C1655 0.959 . S
H1640 C1655 0.959 . S
H1641 C1655 0.961 . S
H1642 C1656 0.960 . S
H1643 C1656 0.961 . S
H1644 C1656 0.959 . S
H1645 C1659 0.929 . S
H1646 C1660 0.931 . S
H1647 C1662 0.930 . S
C1648 H1636 0.930 . S
C1648 C1649 1.399 . S
C1648 C1653 1.399 . S
C1649 C1648 1.399 . S
C1649 C1650 1.376 1_565 S
C1650 H1637 0.930 . S
C1650 C1649 1.376 1_545 S
C1650 C1651 1.388 . S
C1651 H1638 0.930 . S
C1651 C1650 1.388 . S
C1651 C1652 1.390 . S
C1652 C1651 1.390 . S
C1652 C1653 1.394 1_545 S
C1652 C1658 1.465 . S
C1653 C1648 1.399 . S
C1653 C1652 1.394 1_565 S
C1653 C1654 1.516 . S
C1654 C1653 1.516 . S
C1654 C1655 1.502 . S
C1654 C1656 1.561 . S
C1654 C1657 1.526 . S
C1655 H1639 0.959 . S
C1655 H1640 0.959 . S
C1655 H1641 0.961 . S
C1655 C1654 1.502 . S
C1656 H1642 0.960 . S
C1656 H1643 0.961 . S
C1656 H1644 0.959 . S
C1656 C1654 1.561 . S
C1657 C1654 1.526 . S
C1657 C1658 1.396 1_565 S
C1657 C1662 1.390 . S
C1658 C1652 1.465 . S
C1658 C1657 1.396 1_545 S
C1658 C1659 1.399 . S
C1659 H1645 0.929 . S
C1659 C1658 1.399 . S
C1659 C1660 1.385 . S
C1660 H1646 0.931 . S
C1660 C1659 1.385 . S
C1660 C1661 1.389 . S
C1661 C1660 1.389 . S
C1661 C1662 1.387 1_545 S
C1662 H1647 0.930 . S
C1662 C1657 1.390 . S
C1662 C1661 1.387 1_565 S
H1663 C1675 0.930 . S
H1664 C1677 0.930 . S
H1665 C1678 0.930 . S
H1666 C1682 0.959 . S
H1667 C1682 0.959 . S
H1668 C1682 0.961 . S
H1669 C1683 0.960 . S
H1670 C1683 0.961 . S
H1671 C1683 0.959 . S
H1672 C1686 0.929 . S
H1673 C1687 0.931 . S
H1674 C1689 0.930 . S
C1675 H1663 0.930 . S
C1675 C1676 1.399 . S
C1675 C1680 1.399 . S
C1676 C1675 1.399 . S
C1676 C1677 1.376 . S
C1677 H1664 0.930 . S
C1677 C1676 1.376 . S
C1677 C1678 1.388 . S
C1678 H1665 0.930 . S
C1678 C1677 1.388 . S
C1678 C1679 1.390 . S
C1679 C1678 1.390 . S
C1679 C1680 1.394 . S
C1679 C1685 1.465 . S
C1680 C1675 1.399 . S
C1680 C1679 1.394 . S
C1680 C1681 1.516 . S
C1681 C1680 1.516 . S
C1681 C1682 1.502 . S
C1681 C1683 1.561 . S
C1681 C1684 1.526 . S
C1682 H1666 0.959 . S
C1682 H1667 0.959 . S
C1682 H1668 0.961 . S
C1682 C1681 1.502 . S
C1683 H1669 0.960 . S
C1683 H1670 0.961 . S
C1683 H1671 0.959 . S
C1683 C1681 1.561 . S
C1684 C1681 1.526 . S
C1684 C1685 1.396 . S
C1684 C1689 1.390 1_554 S
C1685 C1679 1.465 . S
C1685 C1684 1.396 . S
C1685 C1686 1.399 . S
C1686 H1672 0.929 . S
C1686 C1685 1.399 . S
C1686 C1687 1.385 1_554 S
C1687 H1673 0.931 . S
C1687 C1686 1.385 1_556 S
C1687 C1688 1.389 . S
C1688 C1687 1.389 . S
C1688 C1689 1.387 . S
C1689 H1674 0.930 . S
C1689 C1684 1.390 1_556 S
C1689 C1688 1.387 . S
H1690 C1702 0.930 . S
H1691 C1704 0.930 . S
H1692 C1705 0.930 . S
H1693 C1709 0.959 . S
H1694 C1709 0.959 . S
H1695 C1709 0.961 . S
H1696 C1710 0.960 . S
H1697 C1710 0.961 . S
H1698 C1710 0.959 . S
H1699 C1713 0.929 . S
H1700 C1714 0.931 . S
H1701 C1716 0.930 . S
C1702 H1690 0.930 . S
C1702 C1703 1.399 1_545 S
C1702 C1707 1.399 . S
C1703 C1702 1.399 1_565 S
C1703 C1704 1.376 . S
C1704 H1691 0.930 . S
C1704 C1703 1.376 . S
C1704 C1705 1.388 . S
C1705 H1692 0.930 . S
C1705 C1704 1.388 . S
C1705 C1706 1.390 . S
C1706 C1705 1.390 . S
C1706 C1707 1.394 1_565 S
C1706 C1712 1.465 . S
C1707 C1702 1.399 . S
C1707 C1706 1.394 1_545 S
C1707 C1708 1.516 . S
C1708 C1707 1.516 . S
C1708 C1709 1.502 . S
C1708 C1710 1.561 . S
C1708 C1711 1.526 . S
C1709 H1693 0.959 . S
C1709 H1694 0.959 . S
C1709 H1695 0.961 . S
C1709 C1708 1.502 . S
C1710 H1696 0.960 . S
C1710 H1697 0.961 . S
C1710 H1698 0.959 . S
C1710 C1708 1.561 . S
C1711 C1708 1.526 . S
C1711 C1712 1.396 1_545 S
C1711 C1716 1.390 . S
C1712 C1706 1.465 . S
C1712 C1711 1.396 1_565 S
C1712 C1713 1.399 . S
C1713 H1699 0.929 . S
C1713 C1712 1.399 . S
C1713 C1714 1.385 . S
C1714 H1700 0.931 . S
C1714 C1713 1.385 . S
C1714 C1715 1.389 1_565 S
C1715 C1714 1.389 1_545 S
C1715 C1716 1.387 . S
C1716 H1701 0.930 . S
C1716 C1711 1.390 . S
C1716 C1715 1.387 . S
H1717 C1729 0.930 . S
H1718 C1731 0.930 . S
H1719 C1732 0.930 . S
H1720 C1736 0.959 . S
H1721 C1736 0.959 . S
H1722 C1736 0.961 . S
H1723 C1737 0.960 . S
H1724 C1737 0.961 . S
H1725 C1737 0.959 . S
H1726 C1740 0.929 . S
H1727 C1741 0.931 . S
H1728 C1743 0.930 . S
C1729 H1717 0.930 . S
C1729 C1730 1.399 . S
C1729 C1734 1.399 . S
C1730 C1729 1.399 . S
C1730 C1731 1.376 . S
C1731 H1718 0.930 . S
C1731 C1730 1.376 . S
C1731 C1732 1.388 . S
C1732 H1719 0.930 . S
C1732 C1731 1.388 . S
C1732 C1733 1.390 . S
C1733 C1732 1.390 . S
C1733 C1734 1.394 . S
C1733 C1739 1.465 . S
C1734 C1729 1.399 . S
C1734 C1733 1.394 . S
C1734 C1735 1.516 . S
C1735 C1734 1.516 . S
C1735 C1736 1.502 . S
C1735 C1737 1.561 . S
C1735 C1738 1.526 . S
C1736 H1720 0.959 . S
C1736 H1721 0.959 . S
C1736 H1722 0.961 . S
C1736 C1735 1.502 . S
C1737 H1723 0.960 . S
C1737 H1724 0.961 . S
C1737 H1725 0.959 . S
C1737 C1735 1.561 . S
C1738 C1735 1.526 . S
C1738 C1739 1.396 . S
C1738 C1743 1.390 . S
C1739 C1733 1.465 . S
C1739 C1738 1.396 . S
C1739 C1740 1.399 . S
C1740 H1726 0.929 . S
C1740 C1739 1.399 . S
C1740 C1741 1.385 . S
C1741 H1727 0.931 . S
C1741 C1740 1.385 . S
C1741 C1742 1.389 . S
C1742 C1741 1.389 . S
C1742 C1743 1.387 . S
C1743 H1728 0.930 . S
C1743 C1738 1.390 . S
C1743 C1742 1.387 . S
H1744 C1756 0.930 . S
H1745 C1758 0.930 . S
H1746 C1759 0.930 . S
H1747 C1763 0.959 . S
H1748 C1763 0.959 . S
H1749 C1763 0.961 . S
H1750 C1764 0.960 . S
H1751 C1764 0.961 . S
H1752 C1764 0.959 . S
H1753 C1767 0.929 . S
H1754 C1768 0.931 . S
H1755 C1770 0.930 . S
C1756 H1744 0.930 . S
C1756 C1757 1.399 . S
C1756 C1761 1.399 . S
C1757 C1756 1.399 . S
C1757 C1758 1.376 . S
C1758 H1745 0.930 . S
C1758 C1757 1.376 . S
C1758 C1759 1.388 . S
C1759 H1746 0.930 . S
C1759 C1758 1.388 . S
C1759 C1760 1.390 . S
C1760 C1759 1.390 . S
C1760 C1761 1.394 . S
C1760 C1766 1.465 . S
C1761 C1756 1.399 . S
C1761 C1760 1.394 . S
C1761 C1762 1.516 . S
C1762 C1761 1.516 . S
C1762 C1763 1.502 . S
C1762 C1764 1.561 . S
C1762 C1765 1.526 . S
C1763 H1747 0.959 . S
C1763 H1748 0.959 . S
C1763 H1749 0.961 . S
C1763 C1762 1.502 . S
C1764 H1750 0.960 . S
C1764 H1751 0.961 . S
C1764 H1752 0.959 . S
C1764 C1762 1.561 . S
C1765 C1762 1.526 . S
C1765 C1766 1.396 . S
C1765 C1770 1.390 . S
C1766 C1760 1.465 . S
C1766 C1765 1.396 . S
C1766 C1767 1.399 . S
C1767 H1753 0.929 . S
C1767 C1766 1.399 . S
C1767 C1768 1.385 . S
C1768 H1754 0.931 . S
C1768 C1767 1.385 . S
C1768 C1769 1.389 . S
C1769 C1768 1.389 . S
C1769 C1770 1.387 . S
C1770 H1755 0.930 . S
C1770 C1765 1.390 . S
C1770 C1769 1.387 . S
H1771 C1783 0.930 . S
H1772 C1785 0.930 . S
H1773 C1786 0.930 . S
H1774 C1790 0.959 . S
H1775 C1790 0.959 . S
H1776 C1790 0.961 . S
H1777 C1791 0.960 . S
H1778 C1791 0.961 . S
H1779 C1791 0.959 . S
H1780 C1794 0.929 . S
H1781 C1795 0.931 . S
H1782 C1797 0.930 . S
C1783 H1771 0.930 . S
C1783 C1784 1.399 . S
C1783 C1788 1.399 . S
C1784 C1783 1.399 . S
C1784 C1785 1.376 . S
C1785 H1772 0.930 . S
C1785 C1784 1.376 . S
C1785 C1786 1.388 . S
C1786 H1773 0.930 . S
C1786 C1785 1.388 . S
C1786 C1787 1.390 . S
C1787 C1786 1.390 . S
C1787 C1788 1.394 . S
C1787 C1793 1.465 . S
C1788 C1783 1.399 . S
C1788 C1787 1.394 . S
C1788 C1789 1.516 . S
C1789 C1788 1.516 . S
C1789 C1790 1.502 . S
C1789 C1791 1.561 . S
C1789 C1792 1.526 . S
C1790 H1774 0.959 . S
C1790 H1775 0.959 . S
C1790 H1776 0.961 . S
C1790 C1789 1.502 . S
C1791 H1777 0.960 . S
C1791 H1778 0.961 . S
C1791 H1779 0.959 . S
C1791 C1789 1.561 . S
C1792 C1789 1.526 . S
C1792 C1793 1.396 . S
C1792 C1797 1.390 . S
C1793 C1787 1.465 . S
C1793 C1792 1.396 . S
C1793 C1794 1.399 . S
C1794 H1780 0.929 . S
C1794 C1793 1.399 . S
C1794 C1795 1.385 . S
C1795 H1781 0.931 . S
C1795 C1794 1.385 . S
C1795 C1796 1.389 . S
C1796 C1795 1.389 . S
C1796 C1797 1.387 . S
C1797 H1782 0.930 . S
C1797 C1792 1.390 . S
C1797 C1796 1.387 . S
H1798 C1810 0.930 . S
H1799 C1812 0.930 . S
H1800 C1813 0.930 . S
H1801 C1817 0.959 . S
H1802 C1817 0.959 . S
H1803 C1817 0.961 . S
H1804 C1818 0.960 . S
H1805 C1818 0.961 . S
H1806 C1818 0.959 . S
H1807 C1821 0.929 . S
H1808 C1822 0.931 . S
H1809 C1824 0.930 . S
C1810 H1798 0.930 . S
C1810 C1811 1.399 . S
C1810 C1815 1.399 . S
C1811 C1810 1.399 . S
C1811 C1812 1.376 . S
C1812 H1799 0.930 . S
C1812 C1811 1.376 . S
C1812 C1813 1.388 . S
C1813 H1800 0.930 . S
C1813 C1812 1.388 . S
C1813 C1814 1.390 . S
C1814 C1813 1.390 . S
C1814 C1815 1.394 . S
C1814 C1820 1.465 . S
C1815 C1810 1.399 . S
C1815 C1814 1.394 . S
C1815 C1816 1.516 . S
C1816 C1815 1.516 . S
C1816 C1817 1.502 . S
C1816 C1818 1.561 . S
C1816 C1819 1.526 . S
C1817 H1801 0.959 . S
C1817 H1802 0.959 . S
C1817 H1803 0.961 . S
C1817 C1816 1.502 . S
C1818 H1804 0.960 . S
C1818 H1805 0.961 . S
C1818 H1806 0.959 . S
C1818 C1816 1.561 . S
C1819 C1816 1.526 . S
C1819 C1820 1.396 . S
C1819 C1824 1.390 . S
C1820 C1814 1.465 . S
C1820 C1819 1.396 . S
C1820 C1821 1.399 . S
C1821 H1807 0.929 . S
C1821 C1820 1.399 . S
C1821 C1822 1.385 . S
C1822 H1808 0.931 . S
C1822 C1821 1.385 . S
C1822 C1823 1.389 . S
C1823 C1822 1.389 . S
C1823 C1824 1.387 . S
C1824 H1809 0.930 . S
C1824 C1819 1.390 . S
C1824 C1823 1.387 . S
H1825 C1837 0.930 . S
H1826 C1839 0.930 . S
H1827 C1840 0.930 . S
H1828 C1844 0.959 . S
H1829 C1844 0.959 . S
H1830 C1844 0.961 . S
H1831 C1845 0.960 . S
H1832 C1845 0.961 . S
H1833 C1845 0.959 . S
H1834 C1848 0.929 . S
H1835 C1849 0.931 . S
H1836 C1851 0.930 . S
C1837 H1825 0.930 . S
C1837 C1838 1.399 . S
C1837 C1842 1.399 . S
C1838 C1837 1.399 . S
C1838 C1839 1.376 . S
C1839 H1826 0.930 . S
C1839 C1838 1.376 . S
C1839 C1840 1.388 . S
C1840 H1827 0.930 . S
C1840 C1839 1.388 . S
C1840 C1841 1.390 . S
C1841 C1840 1.390 . S
C1841 C1842 1.394 . S
C1841 C1847 1.465 . S
C1842 C1837 1.399 . S
C1842 C1841 1.394 . S
C1842 C1843 1.516 . S
C1843 C1842 1.516 . S
C1843 C1844 1.502 . S
C1843 C1845 1.561 . S
C1843 C1846 1.526 . S
C1844 H1828 0.959 . S
C1844 H1829 0.959 . S
C1844 H1830 0.961 . S
C1844 C1843 1.502 . S
C1845 H1831 0.960 . S
C1845 H1832 0.961 . S
C1845 H1833 0.959 . S
C1845 C1843 1.561 . S
C1846 C1843 1.526 . S
C1846 C1847 1.396 . S
C1846 C1851 1.390 . S
C1847 C1841 1.465 . S
C1847 C1846 1.396 . S
C1847 C1848 1.399 1_556 S
C1848 H1834 0.929 . S
C1848 C1847 1.399 1_554 S
C1848 C1849 1.385 . S
C1849 H1835 0.931 . S
C1849 C1848 1.385 . S
C1849 C1850 1.389 . S
C1850 C1849 1.389 . S
C1850 C1851 1.387 1_554 S
C1851 H1836 0.930 . S
C1851 C1846 1.390 . S
C1851 C1850 1.387 1_556 S
H1852 C1864 0.930 . S
H1853 C1866 0.930 . S
H1854 C1867 0.930 . S
H1855 C1871 0.959 . S
H1856 C1871 0.959 . S
H1857 C1871 0.961 . S
H1858 C1872 0.960 . S
H1859 C1872 0.961 . S
H1860 C1872 0.959 . S
H1861 C1875 0.929 . S
H1862 C1876 0.931 . S
H1863 C1878 0.930 . S
C1864 H1852 0.930 . S
C1864 C1865 1.399 . S
C1864 C1869 1.399 . S
C1865 C1864 1.399 . S
C1865 C1866 1.376 . S
C1866 H1853 0.930 . S
C1866 C1865 1.376 . S
C1866 C1867 1.388 . S
C1867 H1854 0.930 . S
C1867 C1866 1.388 . S
C1867 C1868 1.390 . S
C1868 C1867 1.390 . S
C1868 C1869 1.394 . S
C1868 C1874 1.465 . S
C1869 C1864 1.399 . S
C1869 C1868 1.394 . S
C1869 C1870 1.516 . S
C1870 C1869 1.516 . S
C1870 C1871 1.502 . S
C1870 C1872 1.561 . S
C1870 C1873 1.526 . S
C1871 H1855 0.959 . S
C1871 H1856 0.959 . S
C1871 H1857 0.961 . S
C1871 C1870 1.502 . S
C1872 H1858 0.960 . S
C1872 H1859 0.961 . S
C1872 H1860 0.959 . S
C1872 C1870 1.561 . S
C1873 C1870 1.526 . S
C1873 C1874 1.396 . S
C1873 C1878 1.390 . S
C1874 C1868 1.465 . S
C1874 C1873 1.396 . S
C1874 C1875 1.399 . S
C1875 H1861 0.929 . S
C1875 C1874 1.399 . S
C1875 C1876 1.385 . S
C1876 H1862 0.931 . S
C1876 C1875 1.385 . S
C1876 C1877 1.389 . S
C1877 C1876 1.389 . S
C1877 C1878 1.387 . S
C1878 H1863 0.930 . S
C1878 C1873 1.390 . S
C1878 C1877 1.387 . S
H1879 C1891 0.930 . S
H1880 C1893 0.930 . S
H1881 C1894 0.930 . S
H1882 C1898 0.959 . S
H1883 C1898 0.959 . S
H1884 C1898 0.961 . S
H1885 C1899 0.960 . S
H1886 C1899 0.961 . S
H1887 C1899 0.959 . S
H1888 C1902 0.929 . S
H1889 C1903 0.931 . S
H1890 C1905 0.930 . S
C1891 H1879 0.930 . S
C1891 C1892 1.399 . S
C1891 C1896 1.399 . S
C1892 C1891 1.399 . S
C1892 C1893 1.376 . S
C1893 H1880 0.930 . S
C1893 C1892 1.376 . S
C1893 C1894 1.388 . S
C1894 H1881 0.930 . S
C1894 C1893 1.388 . S
C1894 C1895 1.390 . S
C1895 C1894 1.390 . S
C1895 C1896 1.394 . S
C1895 C1901 1.465 . S
C1896 C1891 1.399 . S
C1896 C1895 1.394 . S
C1896 C1897 1.516 . S
C1897 C1896 1.516 . S
C1897 C1898 1.502 . S
C1897 C1899 1.561 . S
C1897 C1900 1.526 . S
C1898 H1882 0.959 . S
C1898 H1883 0.959 . S
C1898 H1884 0.961 . S
C1898 C1897 1.502 . S
C1899 H1885 0.960 . S
C1899 H1886 0.961 . S
C1899 H1887 0.959 . S
C1899 C1897 1.561 . S
C1900 C1897 1.526 . S
C1900 C1901 1.396 . S
C1900 C1905 1.390 . S
C1901 C1895 1.465 . S
C1901 C1900 1.396 . S
C1901 C1902 1.399 . S
C1902 H1888 0.929 . S
C1902 C1901 1.399 . S
C1902 C1903 1.385 . S
C1903 H1889 0.931 . S
C1903 C1902 1.385 . S
C1903 C1904 1.389 . S
C1904 C1903 1.389 . S
C1904 C1905 1.387 . S
C1905 H1890 0.930 . S
C1905 C1900 1.390 . S
C1905 C1904 1.387 . S
H1906 C1918 0.930 . S
H1907 C1920 0.930 . S
H1908 C1921 0.930 . S
H1909 C1925 0.959 . S
H1910 C1925 0.959 . S
H1911 C1925 0.961 . S
H1912 C1926 0.960 . S
H1913 C1926 0.961 . S
H1914 C1926 0.959 . S
H1915 C1929 0.933 . S
H1916 C1930 0.931 . S
H1917 C1932 0.930 . S
C1918 H1906 0.930 . S
C1918 C1919 1.399 . S
C1918 C1923 1.399 . S
C1919 C1918 1.399 . S
C1919 C1920 1.376 . S
C1920 H1907 0.930 . S
C1920 C1919 1.376 . S
C1920 C1921 1.388 . S
C1921 H1908 0.930 . S
C1921 C1920 1.388 . S
C1921 C1922 1.390 . S
C1922 C1921 1.390 . S
C1922 C1923 1.394 . S
C1922 C1928 1.465 . S
C1923 C1918 1.399 . S
C1923 C1922 1.394 . S
C1923 C1924 1.516 . S
C1924 C1923 1.516 . S
C1924 C1925 1.502 . S
C1924 C1926 1.561 . S
C1924 C1927 1.526 . S
C1925 H1909 0.959 . S
C1925 H1910 0.959 . S
C1925 H1911 0.961 . S
C1925 C1924 1.502 . S
C1926 H1912 0.960 . S
C1926 H1913 0.961 . S
C1926 H1914 0.959 . S
C1926 C1924 1.561 . S
C1927 C1924 1.526 . S
C1927 C1928 1.396 . S
C1927 C1932 1.390 . S
C1928 C1922 1.465 . S
C1928 C1927 1.396 . S
C1928 C1929 1.391 1_556 S
C1929 H1915 0.933 . S
C1929 C1928 1.391 1_554 S
C1929 C1930 1.389 . S
C1930 H1916 0.931 . S
C1930 C1929 1.389 . S
C1930 C1931 1.389 . S
C1931 C1930 1.389 . S
C1931 C1932 1.387 1_554 S
C1932 H1917 0.930 . S
C1932 C1927 1.390 . S
C1932 C1931 1.387 1_556 S
H1933 C1945 0.930 . S
H1934 C1947 0.930 . S
H1935 C1948 0.930 . S
H1936 C1952 0.959 . S
H1937 C1952 0.959 . S
H1938 C1952 0.961 . S
H1939 C1953 0.960 . S
H1940 C1953 0.961 . S
H1941 C1953 0.959 . S
H1942 C1956 0.929 . S
H1943 C1957 0.931 . S
H1944 C1959 0.930 . S
C1945 H1933 0.930 . S
C1945 C1946 1.399 . S
C1945 C1950 1.399 . S
C1946 C1945 1.399 . S
C1946 C1947 1.376 . S
C1947 H1934 0.930 . S
C1947 C1946 1.376 . S
C1947 C1948 1.388 . S
C1948 H1935 0.930 . S
C1948 C1947 1.388 . S
C1948 C1949 1.390 . S
C1949 C1948 1.390 . S
C1949 C1950 1.394 . S
C1949 C1955 1.465 . S
C1950 C1945 1.399 . S
C1950 C1949 1.394 . S
C1950 C1951 1.516 . S
C1951 C1950 1.516 . S
C1951 C1952 1.502 . S
C1951 C1953 1.561 . S
C1951 C1954 1.526 . S
C1952 H1936 0.959 . S
C1952 H1937 0.959 . S
C1952 H1938 0.961 . S
C1952 C1951 1.502 . S
C1953 H1939 0.960 . S
C1953 H1940 0.961 . S
C1953 H1941 0.959 . S
C1953 C1951 1.561 . S
C1954 C1951 1.526 . S
C1954 C1955 1.396 . S
C1954 C1959 1.390 . S
C1955 C1949 1.465 . S
C1955 C1954 1.396 . S
C1955 C1956 1.399 . S
C1956 H1942 0.929 . S
C1956 C1955 1.399 . S
C1956 C1957 1.385 . S
C1957 H1943 0.931 . S
C1957 C1956 1.385 . S
C1957 C1958 1.389 . S
C1958 C1957 1.389 . S
C1958 C1959 1.387 . S
C1959 H1944 0.930 . S
C1959 C1954 1.390 . S
C1959 C1958 1.387 . S
H1960 C1972 0.930 . S
H1961 C1974 0.930 . S
H1962 C1975 0.930 . S
H1963 C1979 0.959 . S
H1964 C1979 0.959 . S
H1965 C1979 0.961 . S
H1966 C1980 0.960 . S
H1967 C1980 0.961 . S
H1968 C1980 0.959 . S
H1969 C1983 0.929 . S
H1970 C1984 0.931 . S
H1971 C1986 0.930 . S
C1972 H1960 0.930 . S
C1972 C1973 1.399 1_556 S
C1972 C1977 1.399 . S
C1973 C1972 1.399 1_554 S
C1973 C1974 1.376 . S
C1974 H1961 0.930 . S
C1974 C1973 1.376 . S
C1974 C1975 1.388 . S
C1975 H1962 0.930 . S
C1975 C1974 1.388 . S
C1975 C1976 1.390 1_554 S
C1976 C1975 1.390 1_556 S
C1976 C1977 1.394 . S
C1976 C1982 1.465 . S
C1977 C1972 1.399 . S
C1977 C1976 1.394 . S
C1977 C1978 1.516 . S
C1978 C1977 1.516 . S
C1978 C1979 1.502 . S
C1978 C1980 1.561 . S
C1978 C1981 1.526 . S
C1979 H1963 0.959 . S
C1979 H1964 0.959 . S
C1979 H1965 0.961 . S
C1979 C1978 1.502 . S
C1980 H1966 0.960 . S
C1980 H1967 0.961 . S
C1980 H1968 0.959 . S
C1980 C1978 1.561 . S
C1981 C1978 1.526 . S
C1981 C1982 1.396 . S
C1981 C1986 1.390 . S
C1982 C1976 1.465 . S
C1982 C1981 1.396 . S
C1982 C1983 1.399 . S
C1983 H1969 0.929 . S
C1983 C1982 1.399 . S
C1983 C1984 1.385 . S
C1984 H1970 0.931 . S
C1984 C1983 1.385 . S
C1984 C1985 1.389 . S
C1985 C1984 1.389 . S
C1985 C1986 1.387 . S
C1986 H1971 0.930 . S
C1986 C1981 1.390 . S
C1986 C1985 1.387 . S
H1987 C1999 0.930 . S
H1988 C2001 0.930 . S
H1989 C2002 0.930 . S
H1990 C2006 0.959 . S
H1991 C2006 0.959 . S
H1992 C2006 0.961 . S
H1993 C2007 0.960 . S
H1994 C2007 0.961 . S
H1995 C2007 0.959 . S
H1996 C2010 0.929 . S
H1997 C2011 0.931 . S
H1998 C2013 0.930 . S
C1999 H1987 0.930 . S
C1999 C2000 1.399 . S
C1999 C2004 1.399 . S
C2000 C1999 1.399 . S
C2000 C2001 1.376 . S
C2001 H1988 0.930 . S
C2001 C2000 1.376 . S
C2001 C2002 1.388 . S
C2002 H1989 0.930 . S
C2002 C2001 1.388 . S
C2002 C2003 1.390 . S
C2003 C2002 1.390 . S
C2003 C2004 1.394 . S
C2003 C2009 1.465 . S
C2004 C1999 1.399 . S
C2004 C2003 1.394 . S
C2004 C2005 1.516 . S
C2005 C2004 1.516 . S
C2005 C2006 1.502 . S
C2005 C2007 1.561 . S
C2005 C2008 1.526 . S
C2006 H1990 0.959 . S
C2006 H1991 0.959 . S
C2006 H1992 0.961 . S
C2006 C2005 1.502 . S
C2007 H1993 0.960 . S
C2007 H1994 0.961 . S
C2007 H1995 0.959 . S
C2007 C2005 1.561 . S
C2008 C2005 1.526 . S
C2008 C2009 1.396 . S
C2008 C2013 1.390 . S
C2009 C2003 1.465 . S
C2009 C2008 1.396 . S
C2009 C2010 1.399 . S
C2010 H1996 0.929 . S
C2010 C2009 1.399 . S
C2010 C2011 1.385 . S
C2011 H1997 0.931 . S
C2011 C2010 1.385 . S
C2011 C2012 1.389 . S
C2012 C2011 1.389 . S
C2012 C2013 1.387 . S
C2013 H1998 0.930 . S
C2013 C2008 1.390 . S
C2013 C2012 1.387 . S
H2014 C2026 0.930 . S
H2015 C2028 0.930 . S
H2016 C2029 0.930 . S
H2017 C2033 0.959 . S
H2018 C2033 0.959 . S
H2019 C2033 0.961 . S
H2020 C2034 0.960 . S
H2021 C2034 0.961 . S
H2022 C2034 0.959 . S
H2023 C2037 0.929 . S
H2024 C2038 0.931 . S
H2025 C2040 0.930 . S
C2026 H2014 0.930 . S
C2026 C2027 1.399 . S
C2026 C2031 1.399 . S
C2027 C2026 1.399 . S
C2027 C2028 1.376 . S
C2028 H2015 0.930 . S
C2028 C2027 1.376 . S
C2028 C2029 1.388 . S
C2029 H2016 0.930 . S
C2029 C2028 1.388 . S
C2029 C2030 1.390 . S
C2030 C2029 1.390 . S
C2030 C2031 1.394 . S
C2030 C2036 1.465 . S
C2031 C2026 1.399 . S
C2031 C2030 1.394 . S
C2031 C2032 1.516 . S
C2032 C2031 1.516 . S
C2032 C2033 1.502 . S
C2032 C2034 1.561 . S
C2032 C2035 1.526 . S
C2033 H2017 0.959 . S
C2033 H2018 0.959 . S
C2033 H2019 0.961 . S
C2033 C2032 1.502 . S
C2034 H2020 0.960 . S
C2034 H2021 0.961 . S
C2034 H2022 0.959 . S
C2034 C2032 1.561 . S
C2035 C2032 1.526 . S
C2035 C2036 1.396 . S
C2035 C2040 1.390 . S
C2036 C2030 1.465 . S
C2036 C2035 1.396 . S
C2036 C2037 1.399 . S
C2037 H2023 0.929 . S
C2037 C2036 1.399 . S
C2037 C2038 1.385 . S
C2038 H2024 0.931 . S
C2038 C2037 1.385 . S
C2038 C2039 1.389 . S
C2039 C2038 1.389 . S
C2039 C2040 1.387 . S
C2040 H2025 0.930 . S
C2040 C2035 1.390 . S
C2040 C2039 1.387 . S
H2041 C2053 0.930 . S
H2042 C2055 0.930 . S
H2043 C2056 0.930 . S
H2044 C2060 0.959 . S
H2045 C2060 0.959 . S
H2046 C2060 0.961 . S
H2047 C2061 0.960 . S
H2048 C2061 0.961 . S
H2049 C2061 0.959 . S
H2050 C2064 0.929 . S
H2051 C2065 0.931 . S
H2052 C2067 0.930 . S
C2053 H2041 0.930 . S
C2053 C2054 1.399 . S
C2053 C2058 1.399 . S
C2054 C2053 1.399 . S
C2054 C2055 1.376 . S
C2055 H2042 0.930 . S
C2055 C2054 1.376 . S
C2055 C2056 1.388 . S
C2056 H2043 0.930 . S
C2056 C2055 1.388 . S
C2056 C2057 1.390 . S
C2057 C2056 1.390 . S
C2057 C2058 1.394 . S
C2057 C2063 1.465 . S
C2058 C2053 1.399 . S
C2058 C2057 1.394 . S
C2058 C2059 1.516 . S
C2059 C2058 1.516 . S
C2059 C2060 1.502 . S
C2059 C2061 1.561 . S
C2059 C2062 1.526 . S
C2060 H2044 0.959 . S
C2060 H2045 0.959 . S
C2060 H2046 0.961 . S
C2060 C2059 1.502 . S
C2061 H2047 0.960 . S
C2061 H2048 0.961 . S
C2061 H2049 0.959 . S
C2061 C2059 1.561 . S
C2062 C2059 1.526 . S
C2062 C2063 1.396 . S
C2062 C2067 1.390 . S
C2063 C2057 1.465 . S
C2063 C2062 1.396 . S
C2063 C2064 1.399 . S
C2064 H2050 0.929 . S
C2064 C2063 1.399 . S
C2064 C2065 1.385 . S
C2065 H2051 0.931 . S
C2065 C2064 1.385 . S
C2065 C2066 1.389 . S
C2066 C2065 1.389 . S
C2066 C2067 1.387 . S
C2067 H2052 0.930 . S
C2067 C2062 1.390 . S
C2067 C2066 1.387 . S
H2068 C2080 0.930 . S
H2069 C2082 0.930 . S
H2070 C2083 0.930 . S
H2071 C2087 0.959 . S
H2072 C2087 0.959 . S
H2073 C2087 0.961 . S
H2074 C2088 0.960 . S
H2075 C2088 0.961 . S
H2076 C2088 0.959 . S
H2077 C2091 0.929 . S
H2078 C2092 0.931 . S
H2079 C2094 0.930 . S
C2080 H2068 0.930 . S
C2080 C2081 1.399 . S
C2080 C2085 1.399 . S
C2081 C2080 1.399 . S
C2081 C2082 1.376 . S
C2082 H2069 0.930 . S
C2082 C2081 1.376 . S
C2082 C2083 1.388 . S
C2083 H2070 0.930 . S
C2083 C2082 1.388 . S
C2083 C2084 1.390 . S
C2084 C2083 1.390 . S
C2084 C2085 1.394 . S
C2084 C2090 1.465 . S
C2085 C2080 1.399 . S
C2085 C2084 1.394 . S
C2085 C2086 1.516 . S
C2086 C2085 1.516 . S
C2086 C2087 1.502 . S
C2086 C2088 1.561 . S
C2086 C2089 1.526 . S
C2087 H2071 0.959 . S
C2087 H2072 0.959 . S
C2087 H2073 0.961 . S
C2087 C2086 1.502 . S
C2088 H2074 0.960 . S
C2088 H2075 0.961 . S
C2088 H2076 0.959 . S
C2088 C2086 1.561 . S
C2089 C2086 1.526 . S
C2089 C2090 1.396 . S
C2089 C2094 1.390 . S
C2090 C2084 1.465 . S
C2090 C2089 1.396 . S
C2090 C2091 1.399 . S
C2091 H2077 0.929 . S
C2091 C2090 1.399 . S
C2091 C2092 1.385 . S
C2092 H2078 0.931 . S
C2092 C2091 1.385 . S
C2092 C2093 1.389 . S
C2093 C2092 1.389 . S
C2093 C2094 1.387 . S
C2094 H2079 0.930 . S
C2094 C2089 1.390 . S
C2094 C2093 1.387 . S
H2095 C2107 0.930 . S
H2096 C2109 0.930 . S
H2097 C2110 0.930 . S
H2098 C2114 0.959 . S
H2099 C2114 0.959 . S
H2100 C2114 0.961 . S
H2101 C2115 0.960 . S
H2102 C2115 0.961 . S
H2103 C2115 0.959 . S
H2104 C2118 0.929 . S
H2105 C2119 0.931 . S
H2106 C2121 0.930 . S
C2107 H2095 0.930 . S
C2107 C2108 1.399 . S
C2107 C2112 1.399 . S
C2108 C2107 1.399 . S
C2108 C2109 1.376 . S
C2109 H2096 0.930 . S
C2109 C2108 1.376 . S
C2109 C2110 1.388 . S
C2110 H2097 0.930 . S
C2110 C2109 1.388 . S
C2110 C2111 1.390 . S
C2111 C2110 1.390 . S
C2111 C2112 1.394 . S
C2111 C2117 1.465 . S
C2112 C2107 1.399 . S
C2112 C2111 1.394 . S
C2112 C2113 1.516 . S
C2113 C2112 1.516 . S
C2113 C2114 1.502 . S
C2113 C2115 1.561 . S
C2113 C2116 1.526 . S
C2114 H2098 0.959 . S
C2114 H2099 0.959 . S
C2114 H2100 0.961 . S
C2114 C2113 1.502 . S
C2115 H2101 0.960 . S
C2115 H2102 0.961 . S
C2115 H2103 0.959 . S
C2115 C2113 1.561 . S
C2116 C2113 1.526 . S
C2116 C2117 1.396 . S
C2116 C2121 1.390 . S
C2117 C2111 1.465 . S
C2117 C2116 1.396 . S
C2117 C2118 1.399 . S
C2118 H2104 0.929 . S
C2118 C2117 1.399 . S
C2118 C2119 1.385 . S
C2119 H2105 0.931 . S
C2119 C2118 1.385 . S
C2119 C2120 1.389 . S
C2120 C2119 1.389 . S
C2120 C2121 1.387 . S
C2121 H2106 0.930 . S
C2121 C2116 1.390 . S
C2121 C2120 1.387 . S
H2122 C2134 0.930 . S
H2123 C2136 0.930 . S
H2124 C2137 0.930 . S
H2125 C2141 0.959 . S
H2126 C2141 0.959 . S
H2127 C2141 0.961 . S
H2128 C2142 0.960 . S
H2129 C2142 0.961 . S
H2130 C2142 0.959 . S
H2131 C2145 0.929 . S
H2132 C2146 0.931 . S
H2133 C2148 0.930 . S
C2134 H2122 0.930 . S
C2134 C2135 1.399 . S
C2134 C2139 1.399 . S
C2135 C2134 1.399 . S
C2135 C2136 1.376 . S
C2136 H2123 0.930 . S
C2136 C2135 1.376 . S
C2136 C2137 1.388 . S
C2137 H2124 0.930 . S
C2137 C2136 1.388 . S
C2137 C2138 1.390 . S
C2138 C2137 1.390 . S
C2138 C2139 1.394 . S
C2138 C2144 1.465 . S
C2139 C2134 1.399 . S
C2139 C2138 1.394 . S
C2139 C2140 1.516 . S
C2140 C2139 1.516 . S
C2140 C2141 1.502 . S
C2140 C2142 1.561 . S
C2140 C2143 1.526 . S
C2141 H2125 0.959 . S
C2141 H2126 0.959 . S
C2141 H2127 0.961 . S
C2141 C2140 1.502 . S
C2142 H2128 0.960 . S
C2142 H2129 0.961 . S
C2142 H2130 0.959 . S
C2142 C2140 1.561 . S
C2143 C2140 1.526 . S
C2143 C2144 1.396 . S
C2143 C2148 1.390 . S
C2144 C2138 1.465 . S
C2144 C2143 1.396 . S
C2144 C2145 1.399 . S
C2145 H2131 0.929 . S
C2145 C2144 1.399 . S
C2145 C2146 1.385 . S
C2146 H2132 0.931 . S
C2146 C2145 1.385 . S
C2146 C2147 1.389 . S
C2147 C2146 1.389 . S
C2147 C2148 1.387 . S
C2148 H2133 0.930 . S
C2148 C2143 1.390 . S
C2148 C2147 1.387 . S
H2149 C2161 0.930 . S
H2150 C2163 0.930 . S
H2151 C2164 0.930 . S
H2152 C2168 0.959 . S
H2153 C2168 0.959 . S
H2154 C2168 0.961 . S
H2155 C2169 0.960 . S
H2156 C2169 0.961 1_554 S
H2157 C2169 0.959 . S
H2158 C2172 0.929 . S
H2159 C2173 0.931 . S
H2160 C2175 0.930 . S
C2161 H2149 0.930 . S
C2161 C2162 1.399 . S
C2161 C2166 1.399 . S
C2162 C2161 1.399 . S
C2162 C2163 1.376 . S
C2163 H2150 0.930 . S
C2163 C2162 1.376 . S
C2163 C2164 1.388 . S
C2164 H2151 0.930 . S
C2164 C2163 1.388 . S
C2164 C2165 1.390 . S
C2165 C2164 1.390 . S
C2165 C2166 1.394 . S
C2165 C2171 1.465 . S
C2166 C2161 1.399 . S
C2166 C2165 1.394 . S
C2166 C2167 1.516 . S
C2167 C2166 1.516 . S
C2167 C2168 1.502 1_556 S
C2167 C2169 1.561 . S
C2167 C2170 1.526 . S
C2168 H2152 0.959 . S
C2168 H2153 0.959 . S
C2168 H2154 0.961 . S
C2168 C2167 1.502 1_554 S
C2169 H2155 0.960 . S
C2169 H2156 0.961 1_556 S
C2169 H2157 0.959 . S
C2169 C2167 1.561 . S
C2170 C2167 1.526 . S
C2170 C2171 1.396 . S
C2170 C2175 1.390 1_556 S
C2171 C2165 1.465 . S
C2171 C2170 1.396 . S
C2171 C2172 1.399 . S
C2172 H2158 0.929 . S
C2172 C2171 1.399 . S
C2172 C2173 1.385 . S
C2173 H2159 0.931 . S
C2173 C2172 1.385 . S
C2173 C2174 1.389 . S
C2174 C2173 1.389 . S
C2174 C2175 1.387 1_556 S
C2175 H2160 0.930 . S
C2175 C2170 1.390 1_554 S
C2175 C2174 1.387 1_554 S
C461 C124 2.004 . S
C473 C1 1.953 . S
C488 C14 2.014 . S
C500 C363 1.958 . S
C515 C40 1.955 . S
C527 C153 2.007 . S
C542 C54 2.015 . S
C554 C391 1.956 . S
C569 C68 1.964 . S
C581 C180 2.007 . S
C596 C418 1.995 . S
C608 C83 1.976 . S
C623 C209 1.977 . S
C635 C85 1.979 . S
C650 C435 1.974 . S
C662 C98 1.985 . S
C677 C238 1.954 . S
C689 C139 2.010 . S
C704 C166 1.984 . S
C716 C279 1.968 . S
C731 C194 1.972 . S
C743 C306 1.983 . S
C758 C323 2.012 . S
C770 C210 1.953 . S
C785 C337 2.009 . S
C797 C224 1.966 . S
C812 C265 1.949 . S
C824 C365 2.011 . S
C839 C280 2.013 . S
C851 C404 1.957 . S
C866 C432 2.010 . S
C878 C321 1.956 . S
C893 C12 1.862 . S
C905 C57 1.840 . S
C920 C70 1.863 . S
C932 C27 1.840 . S
C947 C96 1.858 . S
C959 C29 1.840 . S
C974 C43 1.839 . S
C986 C111 1.859 . S
C1001 C113 1.861 . S
C1013 C169 1.844 . S
C1028 C126 1.843 . S
C1040 C183 1.860 . S
C1055 C196 1.855 . S
C1067 C140 1.849 . S
C1082 C223 1.843 . S
C1094 C155 1.861 . S
C1109 C293 1.863 . S
C1121 C237 1.843 . S
C1136 C295 1.862 . S
C1148 C251 1.848 . S
C1163 C252 1.855 . S
C1175 C308 1.843 . S
C1190 C334 1.842 . S
C1202 C266 1.856 . S
C1217 C393 1.860 . S
C1229 C348 1.844 . S
C1244 C350 1.841 . S
C1256 C407 1.862 . S
C1271 C421 1.861 . S
C1283 C376 1.843 . S
C1298 C446 1.857 . S
C1310 C378 1.843 . S
C1325 C56 0.599 . S
C1337 C13 0.564 . S
C1352 C71 0.596 . S
C1364 C26 0.573 . S
C1379 C28 0.593 . S
C1391 C97 0.541 . S
C1406 C110 0.544 . S
C1418 C42 0.582 . S
C1433 C168 0.600 . S
C1445 C112 0.549 . S
C1460 C127 0.563 . S
C1472 C182 0.589 . S
C1487 C197 0.597 . S
C1499 C141 0.552 . S
C1514 C222 0.602 . S
C1526 C154 0.542 . S
C1541 C236 0.560 . S
C1553 C292 0.600 . S
C1568 C294 0.599 . S
C1580 C250 0.564 . S
C1595 C309 0.571 . S
C1607 C253 0.596 . S
C1622 C335 0.543 . S
C1634 C267 0.584 . S
C1649 C392 0.557 . S
C1661 C349 0.580 . S
C1676 C351 0.593 . S
C1688 C406 0.546 . S
C1703 C377 0.599 . S
C1715 C420 0.548 . S
C1730 C379 0.555 . S
C1742 C447 0.594 . S
C1757 C0 2.052 . S
C1769 C307 2.057 . S
C1784 C320 2.040 . S
C1796 C15 2.051 . S
C1811 C41 2.053 . S
C1823 C322 2.043 . S
C1838 C55 2.020 . S
C1850 C281 2.034 . S
C1865 C278 2.048 . S
C1877 C69 2.056 . S
C1892 C225 2.047 . S
C1904 C82 2.058 . S
C1919 C239 2.051 . S
C1931 C84 2.058 . S
C1946 C99 2.037 . S
C1958 C264 2.025 . S
C1973 C125 2.058 . S
C1985 C419 2.037 . S
C2000 C433 2.028 . S
C2012 C138 2.052 . S
C2027 C434 2.015 . S
C2039 C152 2.037 . S
C2054 C405 2.055 . S
C2066 C167 2.031 . S
C2081 C390 2.057 . S
C2093 C181 2.047 . S
C2108 C336 2.014 . S
C2120 C195 2.033 . S
C2135 C208 2.055 . S
C2147 C362 2.031 . S
C2162 C211 2.051 . S
C2174 C364 2.023 1_556 S
