# Generated by pormake.
# Topology smm, (6)-cn, num edge types: 1
# Building blocks:
#     Node 0, Type 0, BuildingBlock: BETFEN_clean_sbu_0, # of connection points: 6
#     Node 1, Type 0, BuildingBlock: BETFEN_clean_sbu_0, # of connection points: 6
#     Node 2, Type 0, BuildingBlock: BETFEN_clean_sbu_0, # of connection points: 6
#     Node 3, Type 0, BuildingBlock: BETFEN_clean_sbu_0, # of connection points: 6
#     Node 4, Type 0, BuildingBlock: BETFEN_clean_sbu_0, # of connection points: 6
#     Node 5, Type 0, BuildingBlock: BETFEN_clean_sbu_0, # of connection points: 6
#     Node 6, Type 0, BuildingBlock: BETFEN_clean_sbu_0, # of connection points: 6
#     Node 7, Type 0, BuildingBlock: BETFEN_clean_sbu_0, # of connection points: 6
#     Node 8, Type 0, BuildingBlock: BETFEN_clean_sbu_0, # of connection points: 6
#     Edge 9, Type (0, 0), BuildingBlock: CIFDUS_clean_linker_0, # of connection points: 2
#     Edge 10, Type (0, 0), BuildingBlock: CIFDUS_clean_linker_0, # of connection points: 2
#     Edge 11, Type (0, 0), BuildingBlock: CIFDUS_clean_linker_0, # of connection points: 2
#     Edge 12, Type (0, 0), BuildingBlock: CIFDUS_clean_linker_0, # of connection points: 2
#     Edge 13, Type (0, 0), BuildingBlock: CIFDUS_clean_linker_0, # of connection points: 2
#     Edge 14, Type (0, 0), BuildingBlock: CIFDUS_clean_linker_0, # of connection points: 2
#     Edge 15, Type (0, 0), BuildingBlock: CIFDUS_clean_linker_0, # of connection points: 2
#     Edge 16, Type (0, 0), BuildingBlock: CIFDUS_clean_linker_0, # of connection points: 2
#     Edge 17, Type (0, 0), BuildingBlock: CIFDUS_clean_linker_0, # of connection points: 2
#     Edge 18, Type (0, 0), BuildingBlock: CIFDUS_clean_linker_0, # of connection points: 2
#     Edge 19, Type (0, 0), BuildingBlock: CIFDUS_clean_linker_0, # of connection points: 2
#     Edge 20, Type (0, 0), BuildingBlock: CIFDUS_clean_linker_0, # of connection points: 2
#     Edge 21, Type (0, 0), BuildingBlock: CIFDUS_clean_linker_0, # of connection points: 2
#     Edge 22, Type (0, 0), BuildingBlock: CIFDUS_clean_linker_0, # of connection points: 2
#     Edge 23, Type (0, 0), BuildingBlock: CIFDUS_clean_linker_0, # of connection points: 2
#     Edge 24, Type (0, 0), BuildingBlock: CIFDUS_clean_linker_0, # of connection points: 2
#     Edge 25, Type (0, 0), BuildingBlock: CIFDUS_clean_linker_0, # of connection points: 2
#     Edge 26, Type (0, 0), BuildingBlock: CIFDUS_clean_linker_0, # of connection points: 2
#     Edge 27, Type (0, 0), BuildingBlock: CIFDUS_clean_linker_0, # of connection points: 2
#     Edge 28, Type (0, 0), BuildingBlock: CIFDUS_clean_linker_0, # of connection points: 2
#     Edge 29, Type (0, 0), BuildingBlock: CIFDUS_clean_linker_0, # of connection points: 2
#     Edge 30, Type (0, 0), BuildingBlock: CIFDUS_clean_linker_0, # of connection points: 2
#     Edge 31, Type (0, 0), BuildingBlock: CIFDUS_clean_linker_0, # of connection points: 2
#     Edge 32, Type (0, 0), BuildingBlock: CIFDUS_clean_linker_0, # of connection points: 2
#     Edge 33, Type (0, 0), BuildingBlock: CIFDUS_clean_linker_0, # of connection points: 2
#     Edge 34, Type (0, 0), BuildingBlock: CIFDUS_clean_linker_0, # of connection points: 2
#     Edge 35, Type (0, 0), BuildingBlock: CIFDUS_clean_linker_0, # of connection points: 2
# Relax obj value: 0.125
# Max RMSD: 0.198
# Mean RMSD: 0.165
data_MOF--net-smm--node1-BETFEN_clean_sbu_0--edge1-CIFDUS_clean_linker_0
_symmetry_space_group_name_H-M    P1
_symmetry_Int_Tables_number       1
_symmetry_cell_setting            triclinic
loop_
_symmetry_equiv_pos_as_xyz
'x, y, z'
_cell_length_a     54.704293
_cell_length_b     72.614745
_cell_length_c     12.713414
_cell_angle_alpha  92.894133
_cell_angle_beta   94.594754
_cell_angle_gamma 122.74767
loop_
_atom_site_label
_atom_site_type_symbol
_atom_site_fract_x
_atom_site_fract_y
_atom_site_fract_z
_atom_type_partial_charge
Pr0 Pr 0.10949 0.24234 0.0718 0.0
Pr1 Pr 1.04691 0.20021 0.06966 0.0
C2 C 0.15678 0.27917 0.01878 0.0
C3 C 0.17298 0.30324 0.01204 0.0
C4 C 0.19877 0.31755 0.08161 0.0
C5 C 0.21669 0.33983 0.06696 0.0
C6 C 0.20937 0.34833 -0.0182 0.0
C7 C 0.18307 0.33415 0.9141 0.0
C8 C 0.1651 0.31186 0.92892 0.0
C9 C 0.09275 0.23105 0.27108 0.0
C10 C 1.05074 0.24759 0.07843 0.0
C11 C 1.00427 0.15881 0.10031 0.0
C12 C 1.002 0.13748 0.0811 0.0
C13 C 0.98198 0.1189 0.12859 0.0
C14 C 0.98042 0.09894 0.11163 0.0
C15 C 0.99894 0.09707 0.04685 0.0
C16 C 1.01921 0.11592 0.00065 0.0
C17 C 1.02064 0.13576 0.01722 0.0
C18 C 0.06479 0.21141 0.87157 0.0
C19 C 0.10668 0.19647 0.08444 0.0
O20 O 0.13283 0.26615 0.95276 0.0
O21 O 0.15607 0.27213 0.11215 0.0
O22 O 0.07646 0.23004 0.1922 0.0
O23 O 0.11964 0.23969 0.2513 0.0
O24 O 1.03359 0.22644 0.0944 0.0
O25 O 0.07827 0.25599 0.05927 0.0
O26 O 1.02444 0.17299 0.17647 0.0
O27 O 1.00321 0.16814 0.01602 0.0
O28 O 0.08046 0.21209 0.95158 0.0
O29 O 1.03806 0.20362 0.8904 0.0
O30 O 0.12269 0.21649 0.05554 0.0
O31 O 0.07961 0.18857 0.10565 0.0
H32 H 0.20569 0.31135 0.14529 0.0
H33 H 0.23693 0.35018 0.11986 0.0
H34 H 0.17657 0.34021 0.84857 0.0
H35 H 0.14551 0.30128 0.87324 0.0
H36 H 0.96745 0.1198 0.17864 0.0
H37 H 0.96431 0.08487 0.14789 0.0
H38 H 1.03432 0.11547 0.95218 0.0
H39 H 1.03652 0.14986 -0.01961 0.0
Pr40 Pr 0.97138 0.83452 -0.01097 0.0
Pr41 Pr 0.96965 0.8792 -0.01588 0.0
C42 C 0.96932 0.79611 0.02448 0.0
C43 C 0.95315 0.77058 0.02134 0.0
C44 C 0.9455 0.75668 0.92571 0.0
C45 C 0.93373 0.73361 0.92376 0.0
C46 C 0.92896 0.72274 0.01744 0.0
C47 C 0.93614 0.73664 0.11319 0.0
C48 C 0.94796 0.7598 0.11503 0.0
C49 C 0.96558 0.84708 0.79042 0.0
C50 C 0.90633 0.83062 0.94223 0.0
C51 C 0.96086 0.91195 0.95016 0.0
C52 C 0.9703 0.93544 0.97037 0.0
C53 C 0.98426 0.94788 0.06964 0.0
C54 C 0.98964 0.96909 0.09016 0.0
C55 C 0.98104 0.97841 0.01221 0.0
C56 C 0.9678 0.96603 0.91197 0.0
C57 C 0.96255 0.9449 0.89152 0.0
C58 C 0.97401 0.86574 0.18198 0.0
C59 C 1.0362 0.88908 0.01053 0.0
O60 O 0.96648 0.80806 0.09753 0.0
O61 O 0.97537 0.8055 0.93645 0.0
O62 O 0.9813 0.86003 0.87197 0.0
O63 O 0.95338 0.82661 0.80823 0.0
O64 O 0.92116 0.85129 0.92115 0.0
O65 O 0.91997 0.82102 0.97818 0.0
O66 O 0.97462 0.90663 0.888 0.0
O67 O 0.95137 0.89962 0.02777 0.0
O68 O 0.95855 0.85301 0.09943 0.0
O69 O 0.98677 0.88632 0.1652 0.0
O70 O 1.02399 0.86722 0.02154 0.0
O71 O 1.01964 0.89678 -0.01239 0.0
H72 H 0.94905 0.76372 0.851 0.0
H73 H 0.92833 0.72431 0.84695 0.0
H74 H 0.93345 0.72982 0.18829 0.0
H75 H 0.95372 0.76944 0.19125 0.0
H76 H 0.99047 0.94104 0.13215 0.0
H77 H 1.00036 0.97811 0.16772 0.0
H78 H 0.96043 0.97228 0.85003 0.0
H79 H 0.95147 0.93561 0.81464 0.0
Pr80 Pr 0.26858 1.03513 0.00302 0.0
Pr81 Pr 0.24116 0.06294 0.03575 0.0
C82 C 0.29362 1.01432 0.92841 0.0
C83 C 0.31539 1.00802 0.94085 0.0
C84 C 0.30514 0.98592 0.95178 0.0
C85 C 0.32423 0.97873 0.95702 0.0
C86 C 0.35435 0.99341 0.95158 0.0
C87 C 0.36472 1.01557 0.93907 0.0
C88 C 0.34542 1.02281 0.93368 0.0
C89 C 0.26516 0.04444 0.21478 0.0
C90 C 0.31435 0.092 0.02917 0.0
C91 C 0.21142 0.08166 0.08883 0.0
C92 C 0.20362 0.09838 0.07687 0.0
C93 C 0.22366 0.121 0.10978 0.0
C94 C 0.2147 0.13591 0.10653 0.0
C95 C 0.18537 0.12863 0.07133 0.0
C96 C 0.16555 0.10602 0.03732 0.0
C97 C 0.17453 0.09119 0.04014 0.0
C98 C 0.24727 0.05449 0.82658 0.0
C99 C 0.19733 1.00647 0.02764 0.0
O100 O 0.3016 1.03416 0.90725 0.0
O101 O 0.27223 1.00562 -0.01319 0.0
O102 O 0.27144 0.05746 0.14506 0.0
O103 O 0.26398 1.02685 0.17955 0.0
O104 O 0.2916 0.09273 0.05379 0.0
O105 O 0.3107 0.07256 0.00109 0.0
O106 O 0.20158 0.06564 0.01255 0.0
O107 O 0.2368 0.08741 0.13935 0.0
O108 O 0.23864 1.0408 0.89377 0.0
O109 O 0.25137 0.07305 0.86439 0.0
O110 O 0.21767 1.00566 -0.01905 0.0
O111 O 0.20335 1.02605 0.06847 0.0
H112 H 0.28205 0.97397 0.95478 0.0
H113 H 0.31519 0.96146 0.96395 0.0
H114 H 0.38776 1.02735 0.93481 0.0
H115 H 0.35397 1.0399 0.92355 0.0
H116 H 0.24616 0.12715 0.13975 0.0
H117 H 0.23064 0.1531 0.13437 0.0
H118 H 0.14295 0.09969 0.00809 0.0
H119 H 0.15841 0.07388 0.01519 0.0
Pr120 Pr 0.78805 0.54086 0.06382 0.0
Pr121 Pr 0.83792 0.53617 0.04894 0.0
C122 C 0.74922 0.55093 0.11092 0.0
C123 C 0.74889 0.56676 0.1855 0.0
C124 C 0.72201 0.56319 0.20608 0.0
C125 C 0.72116 0.57718 0.28278 0.0
C126 C 0.74724 0.59495 0.34005 0.0
C127 C 0.77424 0.59867 0.31808 0.0
C128 C 0.77504 0.58457 0.24161 0.0
C129 C 0.79428 0.53202 0.85424 0.0
C130 C 0.85223 0.58805 0.06703 0.0
C131 C 0.87448 0.52258 0.00816 0.0
C132 C 0.88004 0.50457 0.02498 0.0
C133 C 0.89823 0.50602 0.11471 0.0
C134 C 0.90488 0.48986 0.1265 0.0
C135 C 0.89368 0.47162 0.04886 0.0
C136 C 0.87559 0.47033 0.95897 0.0
C137 C 0.86898 0.48645 0.94725 0.0
C138 C 0.83185 0.54478 0.25788 0.0
C139 C 0.76839 0.48953 0.05861 0.0
O140 O 0.75151 0.53594 0.1543 0.0
O141 O 0.76539 0.55889 0.03427 0.0
O142 O 0.81514 0.54552 0.92401 0.0
O143 O 0.76934 0.52272 0.89145 0.0
O144 O 0.8606 0.57549 0.02188 0.0
O145 O 0.82775 0.57787 0.11118 0.0
O146 O 0.85181 0.51803 0.94204 0.0
O147 O 0.87968 0.53655 0.08932 0.0
O148 O 0.81101 0.53132 0.18774 0.0
O149 O 0.85689 0.5541 0.22128 0.0
O150 O 0.76045 0.50334 0.07956 0.0
O151 O 0.7958 0.49757 0.03754 0.0
H152 H 0.70166 0.54942 0.16374 0.0
H153 H 0.70008 0.57415 0.29693 0.0
H154 H 0.79463 0.61218 0.36144 0.0
H155 H 0.79598 0.58735 0.22747 0.0
H156 H 0.90759 0.51979 0.17598 0.0
H157 H 0.91862 0.49161 0.19745 0.0
H158 H 0.86687 0.45699 0.89575 0.0
H159 H 0.85541 0.48482 0.87595 0.0
Pr160 Pr 0.55292 0.20387 0.09563 0.0
Pr161 Pr 0.55201 0.24439 0.06392 0.0
C162 C 0.54774 0.16611 0.14417 0.0
C163 C 0.5423 0.15011 0.22161 0.0
C164 C 0.51864 0.12813 0.19703 0.0
C165 C 0.51598 0.11182 0.25842 0.0
C166 C 0.53712 0.11707 0.34546 0.0
C167 C 0.55995 0.13931 0.37338 0.0
C168 C 0.56253 0.15564 0.31216 0.0
C169 C 0.5588 0.21493 0.88575 0.0
C170 C 0.48697 0.19594 0.05717 0.0
C171 C 0.57013 0.28648 0.02082 0.0
C172 C 0.59754 0.30981 0.02469 0.0
C173 C 0.60396 0.32668 0.10432 0.0
C174 C 0.62815 0.34874 0.10509 0.0
C175 C 0.64722 0.35519 0.02588 0.0
C176 C 0.64079 0.33819 0.94646 0.0
C177 C 0.61658 0.31612 0.94576 0.0
C178 C 0.54543 0.23307 0.27139 0.0
C179 C 0.61645 0.24787 0.10942 0.0
O180 O 0.5723 0.18543 0.15997 0.0
O181 O 0.52581 0.1666 0.09902 0.0
O182 O 0.54129 0.21564 0.94216 0.0
O183 O 0.57251 0.20733 0.93522 0.0
O184 O 0.49989 0.2154 0.01637 0.0
O185 O 0.50354 0.19068 0.11154 0.0
O186 O 0.56548 0.27091 0.94938 0.0
O187 O 0.56083 0.27867 0.10995 0.0
O188 O 0.56356 0.2327 0.21652 0.0
O189 O 0.53087 0.24001 0.22051 0.0
O190 O 0.60243 0.22928 0.15183 0.0
O191 O 0.6016 0.25522 0.06096 0.0
H192 H 0.5028 0.12337 0.12746 0.0
H193 H 0.49778 0.09497 0.2357 0.0
H194 H 0.57677 0.144 0.43924 0.0
H195 H 0.58111 0.17242 0.33318 0.0
H196 H 0.58999 0.32287 0.16635 0.0
H197 H 0.63191 0.36073 0.16912 0.0
H198 H 0.65409 0.34193 0.88241 0.0
H199 H 0.61259 0.304 0.88191 0.0
Pr200 Pr 0.99906 0.37495 0.18081 0.0
Pr201 Pr 0.93236 0.33747 0.11898 0.0
C202 C 1.05429 0.40233 0.27815 0.0
C203 C 0.08481 0.41798 0.33063 0.0
C204 C 0.09958 0.44044 0.31674 0.0
C205 C 0.12857 0.45528 0.36349 0.0
C206 C 0.14398 0.44807 0.42408 0.0
C207 C 0.12892 0.42551 0.43877 0.0
C208 C 0.09966 0.4107 0.39321 0.0
C209 C 0.98038 0.36467 0.96439 0.0
C210 C 0.98006 0.32185 0.13009 0.0
C211 C 0.87463 0.31065 0.04307 0.0
C212 C 0.8451 0.30519 0.06496 0.0
C213 C 0.83543 0.29933 0.16453 0.0
C214 C 0.80659 0.29206 0.18076 0.0
C215 C 0.78653 0.29049 0.09814 0.0
C216 C 0.79657 0.29713 -0.00033 0.0
C217 C 0.82543 0.30429 -0.01673 0.0
C218 C 0.95149 0.3488 0.33557 0.0
C219 C 0.95268 0.39089 0.14199 0.0
O220 O 1.03525 0.38418 0.31653 0.0
O221 O 1.04444 0.40602 0.18976 0.0
O222 O 0.97247 0.35086 0.03082 0.0
O223 O 1.00075 0.38443 0.00718 0.0
O224 O 0.95343 0.31648 0.09042 0.0
O225 O 0.99995 0.34219 0.17572 0.0
O226 O 0.89221 0.32946 0.00685 0.0
O227 O 0.8885 0.30514 0.10965 0.0
O228 O 0.95877 0.36215 0.26732 0.0
O229 O 0.93185 0.32886 0.29415 0.0
O230 O 0.97829 0.39624 0.19225 0.0
O231 O 0.93317 0.37036 0.09866 0.0
H232 H 0.08864 0.44662 0.26999 0.0
H233 H 0.13877 0.4725 0.35233 0.0
H234 H 0.13985 0.4191 0.48356 0.0
H235 H 0.08887 0.39345 0.40508 0.0
H236 H 0.84997 0.29992 0.22962 0.0
H237 H 0.79992 0.28747 0.25819 0.0
H238 H 0.78182 0.29602 0.93387 0.0
H239 H 0.83215 0.30859 0.90557 0.0
Pr240 Pr 0.52224 0.94955 0.91997 0.0
Pr241 Pr 0.46311 0.9065 0.92633 0.0
C242 C 0.5634 0.98876 0.86287 0.0
C243 C 0.56096 1.00536 0.80896 0.0
C244 C 0.58227 1.02788 0.83519 0.0
C245 C 0.57932 0.04364 0.78713 0.0
C246 C 0.55496 1.03716 0.71184 0.0
C247 C 0.53364 1.01453 0.68594 0.0
C248 C 0.53657 0.99882 0.73408 0.0
C249 C 0.50713 0.93952 0.1229 0.0
C250 C 0.46075 0.94953 0.90978 0.0
C251 C 0.41755 0.86825 0.97368 0.0
C252 C 0.40736 0.84482 0.95491 0.0
C253 C 0.39098 0.83234 0.85801 0.0
C254 C 0.38484 0.81119 0.83473 0.0
C255 C 0.39478 0.8021 0.90808 0.0
C256 C 0.40935 0.81393 0.00781 0.0
C257 C 0.41554 0.83512 0.03116 0.0
C258 C 0.47855 0.91636 0.7228 0.0
C259 C 0.52471 0.9055 0.94206 0.0
O260 O 0.55338 0.97004 0.80548 0.0
O261 O 0.55612 0.98626 0.95909 0.0
O262 O 0.49021 0.93742 0.04349 0.0
O263 O 0.53387 0.94815 0.101 0.0
O264 O 0.44922 0.93118 0.95484 0.0
O265 O 0.48602 0.95757 0.87119 0.0
O266 O 0.4417 0.88084 0.03935 0.0
O267 O 0.41611 0.87772 0.89044 0.0
O268 O 0.49522 0.91851 0.80293 0.0
O269 O 0.45182 0.90757 0.74408 0.0
O270 O 0.53995 0.9262 0.91949 0.0
O271 O 0.49672 0.89564 0.95655 0.0
H272 H 0.60114 1.03327 0.89316 0.0
H273 H 0.59629 0.06091 0.80813 0.0
H274 H 0.5144 1.00895 0.62961 0.0
H275 H 0.51961 0.98153 0.71326 0.0
H276 H 0.38381 0.83916 0.79844 0.0
H277 H 0.37301 0.80216 0.75806 0.0
H278 H 0.41721 0.80724 0.06571 0.0
H279 H 0.42776 0.84422 0.10726 0.0
Pr280 Pr 0.38324 0.56479 0.65916 0.0
Pr281 Pr 0.36737 0.59956 0.62973 0.0
C282 C 0.38572 0.53155 0.7317 0.0
C283 C 0.3642 0.50824 0.74353 0.0
C284 C 0.33734 0.49605 0.67725 0.0
C285 C 0.31616 0.47447 0.69472 0.0
C286 C 0.32133 0.46476 0.77947 0.0
C287 C 0.34835 0.47703 0.84527 0.0
C288 C 0.36957 0.49856 0.82737 0.0
C289 C 0.38065 0.57492 0.45259 0.0
C290 C 0.31271 0.54756 0.59306 0.0
C291 C 0.35985 0.63068 0.56138 0.0
C292 C 0.37102 0.65384 0.58916 0.0
C293 C 0.38774 0.66479 0.68755 0.0
C294 C 0.39576 0.68627 0.71762 0.0
C295 C 0.38724 0.697 0.64928 0.0
C296 C 0.37159 0.68624 0.54885 0.0
C297 C 0.36347 0.66474 0.51913 0.0
C298 C 0.37145 0.59024 0.83778 0.0
C299 C 0.43885 0.61755 0.68067 0.0
O300 O 0.38414 0.54578 0.79307 0.0
O301 O 0.39021 0.53688 0.6349 0.0
O302 O 0.36333 0.57242 0.51788 0.0
O303 O 0.39972 0.57064 0.4905 0.0
O304 O 0.32258 0.56741 0.56491 0.0
O305 O 0.33074 0.5432 0.64475 0.0
O306 O 0.37808 0.62638 0.52392 0.0
O307 O 0.34416 0.61733 0.62901 0.0
O308 O 0.38814 0.59242 0.77064 0.0
O309 O 0.35232 0.59448 0.8009 0.0
O310 O 0.43074 0.59716 0.6974 0.0
O311 O 0.41934 0.6222 0.64774 0.0
H312 H 0.33254 0.50334 0.61313 0.0
H313 H 0.29545 0.46556 0.64341 0.0
H314 H 0.35314 0.46996 0.91048 0.0
H315 H 0.39005 0.50779 0.88001 0.0
H316 H 0.39384 0.65652 0.74204 0.0
H317 H 0.4081 0.69434 0.79497 0.0
H318 H 0.36453 0.69408 0.49522 0.0
H319 H 0.35054 0.65638 0.44287 0.0
Pr320 Pr 0.67012 0.73701 0.80981 0.0
Pr321 Pr 0.66636 0.77814 0.85018 0.0
C322 C 0.6789 0.70591 0.7377 0.0
C323 C 0.70169 0.70175 0.71589 0.0
C324 C 0.70836 0.69001 0.78402 0.0
C325 C 0.72557 0.68231 0.75419 0.0
C326 C 0.73612 0.686 0.65509 0.0
C327 C 0.73132 0.6992 0.59073 0.0
C328 C 0.71422 0.70698 0.62073 0.0
C329 C 0.66859 0.74856 0.01969 0.0
C330 C 0.73312 0.7853 0.85826 0.0
C331 C 0.65658 0.80941 0.92022 0.0
C332 C 0.63885 0.81952 0.90943 0.0
C333 C 0.63978 0.83117 0.82286 0.0
C334 C 0.62635 0.84312 0.82072 0.0
C335 C 0.61158 0.84393 0.90516 0.0
C336 C 0.60988 0.83169 -0.00984 0.0
C337 C 0.6234 0.81978 -0.0076 0.0
C338 C 0.66636 0.76643 0.63921 0.0
C339 C 0.60376 0.72568 0.80203 0.0
O340 O 0.67466 0.71806 0.67573 0.0
O341 O 0.67584 0.70894 0.837 0.0
O342 O 0.68311 0.76192 0.95582 0.0
O343 O 0.65517 0.7282 0.97785 0.0
O344 O 0.71826 0.79365 0.89336 0.0
O345 O 0.71912 0.76521 0.80854 0.0
O346 O 0.64578 0.79056 0.95991 0.0
O347 O 0.67369 0.81198 0.84824 0.0
O348 O 0.65277 0.75329 0.70508 0.0
O349 O 0.67906 0.7868 0.67943 0.0
O350 O 0.62004 0.71845 0.77467 0.0
O351 O 0.61578 0.74686 0.83811 0.0
H352 H 0.699 0.68575 0.85786 0.0
H353 H 0.72924 0.67241 0.80599 0.0
H354 H 0.73888 0.70216 0.51342 0.0
H355 H 0.70949 0.71598 0.56631 0.0
H356 H 0.65151 0.83152 0.75752 0.0
H357 H 0.62781 0.85192 0.75281 0.0
H358 H 0.59905 0.83197 0.05728 0.0
H359 H 0.62255 0.8113 0.06107 0.0
H360 H 0.22443 0.36381 0.79069 0.0
H361 H 0.24073 0.38519 0.1262 0.0
H362 H 0.27663 0.42294 0.09332 0.0
H363 H 0.304 0.44983 0.96956 0.0
H364 H 0.28747 0.42845 0.6341 0.0
H365 H 0.25066 0.39088 0.66652 0.0
C366 C 0.23549 0.37677 0.85655 0.0
C367 C 0.22986 0.37159 0.96087 0.0
C368 C 0.25611 0.39847 0.83708 0.0
C369 C 0.24484 0.3886 0.04528 0.0
C370 C 0.26532 0.41023 0.02652 0.0
C371 C 0.29246 0.43692 0.90362 0.0
C372 C 0.2986 0.44196 0.79957 0.0
C373 C 0.27134 0.41532 0.92286 0.0
C374 C 0.28304 0.42509 0.71484 0.0
C375 C 0.26207 0.40357 0.73337 0.0
H376 H 0.87295 0.84839 0.94189 0.0
H377 H 0.86482 0.7858 0.9115 0.0
H378 H 0.81126 0.76674 0.88241 0.0
H379 H 0.76662 0.76774 0.8629 0.0
H380 H 0.77443 0.83012 0.90378 0.0
H381 H 0.82806 0.84928 0.93176 0.0
C382 C 0.85955 0.83055 0.92876 0.0
C383 C 0.87331 0.81863 0.92796 0.0
C384 C 0.82857 0.81964 0.91398 0.0
C385 C 0.8552 0.7955 0.91253 0.0
C386 C 0.82446 0.78458 0.89565 0.0
C387 C 0.77995 0.78557 0.87779 0.0
C388 C 0.7661 0.79742 0.87994 0.0
C389 C 0.81087 0.79645 0.8957 0.0
C390 C 0.78411 0.82048 0.9013 0.0
C391 C 0.8149 0.83145 0.91712 0.0
H392 H 0.40061 1.00322 0.83937 0.0
H393 H 0.3534 0.96522 0.08686 0.0
H394 H 0.38189 0.94866 0.09464 0.0
H395 H 0.41874 0.9437 0.0286 0.0
H396 H 0.46818 0.98208 0.78655 0.0
H397 H 0.44065 0.99987 0.78028 0.0
C398 C 0.39683 0.99153 0.89588 0.0
C399 C 0.37434 0.98524 0.96105 0.0
C400 C 0.41362 0.98202 0.90072 0.0
C401 C 0.36989 0.97002 0.03374 0.0
C402 C 0.38633 0.96057 0.03875 0.0
C403 C 0.42358 0.95594 0.97414 0.0
C404 C 0.4453 0.9613 0.90718 0.0
C405 C 0.4079 0.96617 0.9717 0.0
C406 C 0.45151 0.97753 0.8387 0.0
C407 C 0.43572 0.9877 0.83507 0.0
H408 H 0.43415 0.18984 0.11823 0.0
H409 H 0.46665 0.15748 0.93837 0.0
H410 H 0.41821 0.12324 0.91422 0.0
H411 H 0.36608 0.10094 0.95007 0.0
H412 H 0.33264 0.13312 0.12612 0.0
H413 H 0.3806 0.16785 0.14474 0.0
C414 C 0.43052 0.17553 0.07105 0.0
C415 C 0.4547 0.17695 0.02774 0.0
C416 C 0.40191 0.15523 0.05782 0.0
C417 C 0.44893 0.15751 0.97069 0.0
C418 C 0.42099 0.13762 0.95757 0.0
C419 C 0.36907 0.11549 -0.00763 0.0
C420 C 0.34485 0.11372 0.03682 0.0
C421 C 0.39721 0.136 0.00185 0.0
C422 C 0.35012 0.13334 0.0905 0.0
C423 C 0.37791 0.1535 0.10138 0.0
H424 H 1.03516 0.32858 0.14594 0.0
H425 H 0.94354 0.27663 0.08743 0.0
H426 H 0.9563 0.24916 0.06904 0.0
H427 H 0.99396 0.23943 0.06853 0.0
H428 H 0.08539 0.29232 0.11719 0.0
H429 H 0.07224 0.31918 0.13989 0.0
C430 C 1.01787 0.31126 0.12946 0.0
C431 C 0.98826 0.30497 0.11889 0.0
C432 C 1.0254 0.29538 0.11674 0.0
C433 C 0.96649 0.28226 0.0962 0.0
C434 C 0.97382 0.26641 0.08568 0.0
C435 C 1.01103 0.25681 0.08413 0.0
C436 C 1.04083 0.26347 0.09085 0.0
C437 C 1.00326 0.27268 0.09561 0.0
C438 C 1.06232 0.2863 0.11062 0.0
C439 C 1.05482 0.30189 0.12408 0.0
H440 H 0.89822 0.69126 0.16167 0.0
H441 H 0.93358 0.69569 0.8658 0.0
H442 H 0.91547 0.65667 0.85465 0.0
H443 H 0.88805 0.61942 0.92583 0.0
H444 H 0.8532 0.61577 0.22206 0.0
H445 H 0.87257 0.65497 0.23474 0.0
C446 C 0.90236 0.68401 0.09451 0.0
C447 C 0.9175 0.6976 0.01415 0.0
C448 C 0.89178 0.66086 0.08813 0.0
C449 C 0.92174 0.68662 0.92876 0.0
C450 C 0.91144 0.66386 0.92244 0.0
C451 C 0.88504 0.62714 -0.00566 0.0
C452 C 0.86889 0.61367 0.07351 0.0
C453 C 0.89623 0.65051 0.00127 0.0
C454 C 0.86527 0.62486 0.15935 0.0
C455 C 0.87644 0.64768 0.16688 0.0
H456 H 0.27335 0.50911 0.67665 0.0
H457 H 0.28324 0.54576 0.40864 0.0
H458 H 0.23326 0.51818 0.33194 0.0
H459 H 0.18644 0.48412 0.33979 0.0
H460 H 0.17349 0.44815 0.61231 0.0
H461 H 0.22465 0.47448 0.68603 0.0
C462 C 0.2645 0.51096 0.60146 0.0
C463 C 0.28212 0.52967 0.54921 0.0
C464 C 0.23506 0.49507 0.55788 0.0
C465 C 0.27022 0.53177 0.4517 0.0
C466 C 0.24155 0.51592 0.40723 0.0
C467 C 0.19442 0.48208 0.41625 0.0
C468 C 0.17558 0.46402 0.46995 0.0
C469 C 0.22365 0.49764 0.45992 0.0
C470 C 0.1872 0.46161 0.56762 0.0
C471 C 0.21657 0.47683 0.6106 0.0
H472 H 0.7143 0.64293 0.66687 0.0
H473 H 0.78242 0.70007 0.53997 0.0
H474 H 0.79392 0.67684 0.43756 0.0
H475 H 0.78032 0.63973 0.36841 0.0
H476 H 0.71125 0.58286 0.49384 0.0
H477 H 0.7046 0.60666 0.6139 0.0
C478 C 0.73231 0.65046 0.61955 0.0
C479 C 0.74743 0.67317 0.61075 0.0
C480 C 0.73829 0.637 0.55948 0.0
C481 C 0.77029 0.68257 0.54721 0.0
C482 C 0.77682 0.6693 0.48858 0.0
C483 C 0.76424 0.63262 0.42361 0.0
C484 C 0.74599 0.6096 0.42138 0.0
C485 C 0.76029 0.6464 0.49149 0.0
C486 C 0.72513 0.60054 0.4928 0.0
C487 C 0.72141 0.61412 0.56166 0.0
H488 H 0.55079 0.11723 0.55818 0.0
H489 H 0.52315 0.07687 0.25735 0.0
H490 H 0.52511 0.0485 0.3442 0.0
H491 H 0.53706 1.03577 0.50356 0.0
H492 H 0.56574 0.0762 0.80421 0.0
H493 H 0.56169 0.10404 0.719 0.0
C494 C 0.54527 0.10227 0.51147 0.0
C495 C 0.53673 0.09929 0.40114 0.0
C496 C 0.54696 0.08607 0.56171 0.0
C497 C 0.52928 0.07957 0.34252 0.0
C498 C 0.53067 0.06336 0.39199 0.0
C499 C 0.54212 0.05056 0.55078 0.0
C500 C 0.55183 0.05389 0.66017 0.0
C501 C 0.53973 0.0665 0.5013 0.0
C502 C 0.55866 0.07333 0.71963 0.0
C503 C 0.55618 0.08921 0.67104 0.0
H504 H 0.13329 0.12174 0.12232 0.0
H505 H 0.21478 0.17128 0.01898 0.0
H506 H 0.19842 0.19664 0.01577 0.0
H507 H 0.1603 0.20476 0.039 0.0
H508 H 0.0791 0.15479 0.14313 0.0
H509 H 0.0958 0.12985 0.14739 0.0
C510 C 0.14748 0.138 0.09812 0.0
C511 C 0.17534 0.14436 0.07063 0.0
C512 C 0.13787 0.1526 0.09617 0.0
C513 C 0.19341 0.16581 0.04172 0.0
C514 C 0.18395 0.18036 0.03925 0.0
C515 C 0.14628 0.18846 0.06303 0.0
C516 C 0.11827 0.18184 0.09013 0.0
C517 C 0.15617 0.17397 0.06609 0.0
C518 C 0.10061 0.16053 0.12108 0.0
C519 C 0.1102 0.14614 0.1238 0.0
H520 H 0.99418 1.01078 0.88003 0.0
H521 H 0.97563 0.99586 0.19969 0.0
H522 H 0.97997 1.03079 0.23906 0.0
H523 H 0.98823 0.06565 0.18279 0.0
H524 H 1.00464 0.07965 0.86064 0.0
H525 H 1.00179 0.04527 0.82321 0.0
C526 C 0.99083 1.01499 0.95823 0.0
C527 C 0.98463 1.00039 0.0365 0.0
C528 C 0.99297 1.03515 -0.01962 0.0
C529 C 0.98093 1.00666 0.13781 0.0
C530 C 0.98316 1.02668 0.16038 0.0
C531 C 0.99095 0.06116 0.10403 0.0
C532 C 0.99682 0.07559 0.02513 0.0
C533 C 0.98903 1.04105 0.08223 0.0
C534 C 1.00064 0.06933 0.92406 0.0
C535 C 0.99881 0.04947 0.90209 0.0
H536 H 1.06301 0.933 0.07683 0.0
H537 H 0.08527 0.88749 0.96607 0.0
H538 H 0.13609 0.91882 0.96038 0.0
H539 H 0.17465 0.96044 0.97893 0.0
H540 H 0.14936 1.00414 0.09191 0.0
H541 H 0.10029 0.97271 0.1028 0.0
C542 C 0.07883 0.9296 0.05214 0.0
C543 C 0.06935 0.90723 0.02239 0.0
C544 C 0.10807 0.94785 0.04799 0.0
C545 C 0.09111 0.904 -0.00877 0.0
C546 C 0.12042 0.92219 -0.01313 0.0
C547 C 0.1585 0.96318 0.0062 0.0
C548 C 0.16674 0.98544 0.03407 0.0
C549 C 0.12929 0.9444 0.01364 0.0
C550 C 0.14472 0.98786 0.06958 0.0
C551 C 0.11621 0.96963 0.07602 0.0
H552 H 0.94464 0.4757 0.14121 0.0
H553 H 0.85774 0.42698 -0.01488 0.0
H554 H 0.86803 0.39842 -0.0017 0.0
H555 H 0.90159 0.38662 0.05353 0.0
H556 H 0.98806 0.43506 0.21332 0.0
H557 H 0.97782 0.46375 0.20031 0.0
C558 C 0.92774 0.45884 0.11079 0.0
C559 C 0.90038 0.45395 0.06103 0.0
C560 C 0.93372 0.44213 0.11938 0.0
C561 C 0.87921 0.43175 0.02169 0.0
C562 C 0.88501 0.41519 0.02992 0.0
C563 C 0.91827 0.40343 0.08578 0.0
C564 C 0.9457 0.40837 0.13448 0.0
C565 C 0.91222 0.42011 0.07819 0.0
C566 C 0.96676 0.43045 0.17548 0.0
C567 C 0.96091 0.44702 0.16799 0.0
H568 H 0.76545 0.45033 -0.01582 0.0
H569 H 0.71714 0.4723 0.14229 0.0
H570 H 0.6772 0.43456 0.14641 0.0
H571 H 0.65387 0.39469 0.103 0.0
H572 H 0.70088 0.3712 0.94852 0.0
H573 H 0.74185 0.40915 0.94462 0.0
C574 C 0.74632 0.44694 0.02015 0.0
C575 C 0.74508 0.46496 0.06235 0.0
C576 C 0.72238 0.42443 0.02245 0.0
C577 C 0.71949 0.45947 0.10797 0.0
C578 C 0.69621 0.43756 0.11072 0.0
C579 C 0.67306 0.39758 0.06933 0.0
C580 C 0.6733 0.37926 0.02571 0.0
C581 C 0.69713 0.4198 0.06783 0.0
C582 C 0.69894 0.38432 -0.01867 0.0
C583 C 0.72286 0.40633 -0.0203 0.0
H584 H 0.65387 0.23646 0.19106 0.0
H585 H 0.65218 0.28554 0.01865 0.0
H586 H 0.70412 0.30307 0.00043 0.0
H587 H 0.75017 0.30403 0.02888 0.0
H588 H 0.75142 0.25478 0.20108 0.0
H589 H 0.70001 0.23807 0.22411 0.0
C590 C 0.66485 0.2511 0.15018 0.0
C591 C 0.64882 0.25955 0.10631 0.0
C592 C 0.69488 0.26115 0.13951 0.0
C593 C 0.6637 0.27856 0.05349 0.0
C594 C 0.69352 0.28862 0.04266 0.0
C595 C 0.7392 0.28961 0.07125 0.0
C596 C 0.75499 0.28082 0.11337 0.0
C597 C 0.70933 0.27995 0.08438 0.0
C598 C 0.74022 0.26221 0.16901 0.0
C599 C 0.71064 0.25251 0.18177 0.0
H600 H 0.56035 0.8355 0.97629 0.0
H601 H 0.63498 0.88496 0.83741 0.0
H602 H 0.61562 0.90836 0.83835 0.0
H603 H 0.57721 0.91508 0.87771 0.0
H604 H 0.50254 0.86536 0.01565 0.0
H605 H 0.52234 0.84231 0.01709 0.0
C606 C 0.57257 0.85146 0.94688 0.0
C607 C 0.59918 0.85818 0.90625 0.0
C608 C 0.56129 0.86503 0.94778 0.0
C609 C 0.61426 0.87894 0.86749 0.0
C610 C 0.60328 0.89252 0.86872 0.0
C611 C 0.56534 0.89929 0.90888 0.0
C612 C 0.53832 0.8922 0.94686 0.0
C613 C 0.57677 0.88578 0.90852 0.0
C614 C 0.52332 0.87146 -0.01419 0.0
C615 C 0.53465 0.85815 -0.01336 0.0
H616 H 0.3775 0.70911 0.83764 0.0
H617 H 0.40817 0.73297 0.54052 0.0
H618 H 0.41305 0.7677 0.59517 0.0
H619 H 0.40766 0.79078 0.72566 0.0
H620 H 0.37663 0.76696 0.02236 0.0
H621 H 0.37317 0.73262 0.97024 0.0
C622 C 0.3857 0.72207 0.7857 0.0
C623 C 0.39255 0.71862 0.68547 0.0
C624 C 0.38819 0.74182 0.81724 0.0
C625 C 0.40263 0.73531 0.61784 0.0
C626 C 0.40542 0.75511 0.649 0.0
C627 C 0.39983 0.77795 0.77835 0.0
C628 C 0.39207 0.78117 0.87699 0.0
C629 C 0.39794 0.75841 0.74794 0.0
C630 C 0.38269 0.76474 0.94594 0.0
C631 C 0.38069 0.74516 0.91617 0.0
H632 H 0.57676 0.68137 0.78399 0.0
H633 H 0.55724 0.73152 0.78712 0.0
H634 H 0.50456 0.70266 0.74821 0.0
H635 H 0.46399 0.66274 0.70797 0.0
H636 H 0.48572 0.61373 0.70889 0.0
H637 H 0.53749 0.64263 0.75015 0.0
C638 C 0.56115 0.6862 0.77631 0.0
C639 C 0.57129 0.70881 0.78787 0.0
C640 C 0.53111 0.66959 0.75363 0.0
C641 C 0.55032 0.71439 0.77902 0.0
C642 C 0.52014 0.69782 0.75609 0.0
C643 C 0.48006 0.65838 0.71678 0.0
C644 C 0.47064 0.63585 0.70438 0.0
C645 C 0.51024 0.6753 0.74209 0.0
C646 C 0.49198 0.63071 0.71761 0.0
C647 C 0.52174 0.6473 0.74139 0.0
H648 H 1.03242 0.20685 0.68833 0.0
H649 H 0.11952 0.22684 0.82003 0.0
H650 H 0.13602 0.23459 0.64508 0.0
H651 H 0.12553 0.23557 0.45425 0.0
H652 H 1.03817 0.21516 0.32328 0.0
H653 H 1.02185 0.20752 0.49811 0.0
C654 C 1.055 0.21292 0.67859 0.0
C655 C 0.07475 0.21633 0.76649 0.0
C656 C 0.06425 0.21718 0.57791 0.0
C657 C 0.10394 0.22415 0.75317 0.0
C658 C 0.11338 0.22854 0.65327 0.0
C659 C 0.10294 0.22942 0.46423 0.0
C660 C 0.0831 0.22598 0.37649 0.0
C661 C 0.0937 0.22508 0.56503 0.0
C662 C 1.05386 0.21797 0.38998 0.0
C663 C 1.0445 0.21362 0.48983 0.0
H664 H 0.94259 0.82094 0.60388 0.0
H665 H 0.99494 0.88904 0.73854 0.0
H666 H 1.00311 0.90083 0.56112 0.0
H667 H 0.99622 0.89172 0.36858 0.0
H668 H 0.94352 0.82368 0.23336 0.0
H669 H 0.93515 0.81183 0.41076 0.0
C670 C 0.95558 0.83836 0.59414 0.0
C671 C 0.96812 0.85412 0.68354 0.0
C672 C 0.96052 0.84498 0.49229 0.0
C673 C 0.98498 0.87663 0.67042 0.0
C674 C 0.98981 0.88337 0.56924 0.0
C675 C 0.98307 0.8743 0.37811 0.0
C676 C 0.9707 0.85856 0.28864 0.0
C677 C 0.97793 0.86768 0.47981 0.0
C678 C 0.95352 0.83606 0.30156 0.0
C679 C 0.94855 0.82929 0.40273 0.0
H680 H 0.26014 0.08067 0.6682 0.0
H681 H 0.24089 1.01696 0.73861 0.0
H682 H 0.24494 1.00825 0.5551 0.0
H683 H 0.25346 1.01863 0.3742 0.0
H684 H 0.2724 0.08225 0.30357 0.0
H685 H 0.26888 0.09112 0.48753 0.0
C686 C 0.25687 0.0649 0.64323 0.0
C687 C 0.25014 0.04944 0.71633 0.0
C688 C 0.25911 0.05999 0.53767 0.0
C689 C 0.24598 1.02908 0.68335 0.0
C690 C 0.2483 1.02409 0.57858 0.0
C691 C 0.25686 1.03444 0.3993 0.0
C692 C 0.26319 0.04977 0.32584 0.0
C693 C 0.25477 1.03939 0.505 0.0
C694 C 0.26748 0.07018 0.35894 0.0
C695 C 0.26549 0.07526 0.46402 0.0
H696 H 0.78309 0.51992 0.3537 0.0
H697 H 0.87494 0.57143 0.41903 0.0
H698 H 0.87168 0.57171 0.60962 0.0
H699 H 0.84285 0.55704 0.75805 0.0
H700 H 0.75101 0.50552 0.69303 0.0
H701 H 0.75419 0.50534 0.50229 0.0
C702 C 0.80234 0.53126 0.40975 0.0
C703 C 0.82922 0.5456 0.3725 0.0
C704 C 0.80036 0.5312 0.51931 0.0
C705 C 0.854 0.5602 0.44586 0.0
C706 C 0.85218 0.56033 0.55484 0.0
C707 C 0.82358 0.54572 0.70206 0.0
C708 C 0.79675 0.53131 0.73943 0.0
C709 C 0.82552 0.54582 0.59252 0.0
C710 C 0.77193 0.51677 0.6661 0.0
C711 C 0.77371 0.51669 0.55705 0.0
H712 H 0.57809 0.22306 0.40113 0.0
H713 H 0.50995 0.2361 0.39917 0.0
H714 H 0.5081 0.23203 0.58832 0.0
H715 H 0.52596 0.22487 0.75614 0.0
H716 H 0.59407 0.2118 0.75775 0.0
H717 H 0.59585 0.21583 0.56863 0.0
C718 C 0.56284 0.22498 0.44217 0.0
C719 C 0.54426 0.22994 0.38592 0.0
C720 C 0.5619 0.22266 0.55157 0.0
C721 C 0.52456 0.23233 0.44039 0.0
C722 C 0.52348 0.23002 0.54882 0.0
C723 C 0.54119 0.22295 0.71499 0.0
C724 C 0.55978 0.218 0.77115 0.0
C725 C 0.54209 0.22524 0.60552 0.0
C726 C 0.57943 0.21556 0.71657 0.0
C727 C 0.58049 0.21786 0.60817 0.0
H728 H 0.93113 0.32259 0.49152 0.0
H729 H 0.99191 0.38986 0.43456 0.0
H730 H 1.00603 0.4009 0.62584 0.0
H731 H 1.00085 0.39128 0.80878 0.0
H732 H 0.93977 0.32394 0.86451 0.0
H733 H 0.92575 0.31303 0.67358 0.0
C734 C 0.94749 0.33965 0.52113 0.0
C735 C 0.96048 0.35542 0.44992 0.0
C736 C 0.9553 0.34584 0.63055 0.0
C737 C 0.98162 0.37748 0.48859 0.0
C738 C 0.98967 0.38379 0.59764 0.0
C739 C 0.98444 0.37425 0.77887 0.0
C740 C 0.9714 0.35841 0.84983 0.0
C741 C 0.97658 0.3681 0.66927 0.0
C742 C 0.95014 0.33639 0.81082 0.0
C743 C 0.94214 0.33014 0.7019 0.0
H744 H 0.44599 0.91249 0.53961 0.0
H745 H 0.53297 0.93185 0.66904 0.0
H746 H 0.54977 0.94092 0.49562 0.0
H747 H 0.53978 0.94331 0.30606 0.0
H748 H 0.45257 0.92342 0.17635 0.0
H749 H 0.43588 0.91453 0.34987 0.0
C750 C 0.46859 0.91868 0.52961 0.0
C751 C 0.48822 0.92159 0.61697 0.0
C752 C 0.4781 0.92374 0.42932 0.0
C753 C 0.51746 0.9296 0.60304 0.0
C754 C 0.5271 0.93475 0.50382 0.0
C755 C 0.51716 0.93704 0.31604 0.0
C756 C 0.49751 0.9341 0.22869 0.0
C757 C 0.50763 0.9319 0.41629 0.0
C758 C 0.46819 0.92589 0.24249 0.0
C759 C 0.45859 0.92078 0.34174 0.0
H760 H 0.34142 0.58895 0.00024 0.0
H761 H 0.41405 0.58504 0.92424 0.0
H762 H 0.42369 0.58011 0.10783 0.0
H763 H 0.41143 0.57681 0.29095 0.0
H764 H 0.33946 0.58161 0.36711 0.0
H765 H 0.32985 0.58647 0.18369 0.0
C766 C 0.3593 0.58699 0.02408 0.0
C767 C 0.37678 0.58714 0.94891 0.0
C768 C 0.36497 0.58441 0.13014 0.0
C769 C 0.40004 0.58473 -0.01933 0.0
C770 C 0.40568 0.582 0.08573 0.0
C771 C 0.39374 0.57899 0.26718 0.0
C772 C 0.37614 0.57875 0.34211 0.0
C773 C 0.38829 0.58181 0.16126 0.0
C774 C 0.35329 0.58164 0.31065 0.0
C775 C 0.34772 0.58441 0.2057 0.0
H776 H 0.6901 0.79269 0.48478 0.0
H777 H 0.63695 0.72451 0.54164 0.0
H778 H 0.63256 0.71284 0.35368 0.0
H779 H 0.64394 0.72211 0.17327 0.0
H780 H 0.69672 0.79035 0.11668 0.0
H781 H 0.70091 0.80195 0.3044 0.0
C782 C 0.67759 0.77529 0.45585 0.0
C783 C 0.664 0.75947 0.52643 0.0
C784 C 0.67498 0.76874 0.34788 0.0
C785 C 0.64776 0.73698 0.48844 0.0
C786 C 0.64516 0.7303 0.3811 0.0
C787 C 0.65627 0.7395 0.20223 0.0
C788 C 0.67007 0.75535 0.13194 0.0
C789 C 0.65867 0.74604 0.31014 0.0
C790 C 0.68598 0.77785 0.16983 0.0
C791 C 0.68841 0.7845 0.27699 0.0
loop_
_geom_bond_atom_site_label_1
_geom_bond_atom_site_label_2
_geom_bond_distance
_geom_bond_site_symmetry_2
_ccdc_geom_bond_type
Pr0 C2 2.880 . S
Pr0 O20 2.562 . S
Pr0 O21 2.490 . S
Pr0 O22 2.695 . S
Pr0 O23 2.512 . S
Pr0 O25 2.437 . S
Pr0 O28 2.436 1_554 S
Pr0 O30 2.438 . S
Pr1 C11 2.887 1_455 S
Pr1 O22 2.450 . S
Pr1 O24 2.418 1_455 S
Pr1 O26 2.573 1_455 S
Pr1 O27 2.492 1_454 S
Pr1 O28 2.708 1_554 S
Pr1 O29 2.518 1_554 S
Pr1 O31 2.469 . S
C2 Pr0 2.880 . S
C2 C3 1.491 . S
C2 O20 1.254 . S
C2 O21 1.225 . S
C3 C2 1.491 . S
C3 C4 1.392 . S
C3 C8 1.356 . S
C4 C3 1.392 . S
C4 C5 1.368 . S
C4 H32 0.929 . S
C5 C4 1.368 . S
C5 C6 1.386 . S
C5 H33 0.929 . S
C6 C5 1.386 . S
C6 C7 1.367 1_554 S
C7 C6 1.367 1_556 S
C7 C8 1.408 1_556 S
C7 H34 0.938 . S
C8 C3 1.356 . S
C8 C7 1.408 1_554 S
C8 H35 0.930 1_554 S
C9 O22 1.270 . S
C9 O23 1.248 . S
C10 O24 1.267 1_455 S
C10 O25 1.278 . S
C11 Pr1 2.887 1_655 S
C11 C12 1.491 . S
C11 O26 1.254 . S
C11 O27 1.225 1_554 S
C12 C11 1.491 . S
C12 C13 1.392 1_554 S
C12 C17 1.356 . S
C13 C12 1.392 1_556 S
C13 C14 1.368 . S
C13 H36 0.929 . S
C14 C13 1.368 . S
C14 C15 1.386 1_556 S
C14 H37 0.929 . S
C15 C14 1.386 1_554 S
C15 C16 1.373 . S
C16 C15 1.373 . S
C16 C17 1.409 . S
C16 H38 0.931 . S
C17 C12 1.356 . S
C17 C16 1.409 . S
C17 H39 0.930 . S
C18 O28 1.270 . S
C18 O29 1.248 . S
C19 O30 1.267 . S
C19 O31 1.278 . S
O20 Pr0 2.562 . S
O20 C2 1.254 . S
O21 Pr0 2.490 . S
O21 C2 1.225 . S
O22 Pr0 2.695 . S
O22 Pr1 2.450 . S
O22 C9 1.270 . S
O23 Pr0 2.512 . S
O23 C9 1.248 . S
O24 Pr1 2.418 1_655 S
O24 C10 1.267 1_655 S
O25 Pr0 2.437 . S
O25 C10 1.278 . S
O26 Pr1 2.573 1_655 S
O26 C11 1.254 . S
O27 Pr1 2.492 1_656 S
O27 C11 1.225 1_556 S
O28 Pr0 2.436 1_556 S
O28 Pr1 2.708 1_556 S
O28 C18 1.270 . S
O29 Pr1 2.518 1_556 S
O29 C18 1.248 . S
O30 Pr0 2.438 . S
O30 C19 1.267 . S
O31 Pr1 2.469 . S
O31 C19 1.278 . S
H32 C4 0.929 . S
H33 C5 0.929 . S
H34 C7 0.938 . S
H35 C8 0.930 1_556 S
H36 C13 0.929 . S
H37 C14 0.929 . S
H38 C16 0.931 . S
H39 C17 0.930 . S
Pr40 C42 2.880 . S
Pr40 O60 2.562 . S
Pr40 O61 2.490 1_554 S
Pr40 O62 2.695 1_554 S
Pr40 O63 2.512 1_554 S
Pr40 O65 2.437 1_554 S
Pr40 O68 2.436 . S
Pr40 O70 2.438 . S
Pr41 C51 2.880 . S
Pr41 O62 2.436 1_554 S
Pr41 O64 2.438 . S
Pr41 O66 2.562 1_554 S
Pr41 O67 2.490 . S
Pr41 O68 2.695 . S
Pr41 O69 2.512 . S
Pr41 O71 2.437 . S
C42 Pr40 2.880 . S
C42 C43 1.491 . S
C42 O60 1.254 . S
C42 O61 1.225 1_554 S
C43 C42 1.491 . S
C43 C44 1.392 1_554 S
C43 C48 1.356 . S
C44 C43 1.392 1_556 S
C44 C45 1.368 . S
C44 H72 0.929 . S
C45 C44 1.368 . S
C45 C46 1.386 1_556 S
C45 H73 0.929 . S
C46 C45 1.386 1_554 S
C46 C47 1.373 . S
C47 C46 1.373 . S
C47 C48 1.409 . S
C47 H74 0.931 . S
C48 C43 1.356 . S
C48 C47 1.409 . S
C48 H75 0.930 . S
C49 O62 1.270 . S
C49 O63 1.248 . S
C50 O64 1.267 . S
C50 O65 1.278 1_554 S
C51 Pr41 2.880 . S
C51 C52 1.491 . S
C51 O66 1.254 1_554 S
C51 O67 1.225 . S
C52 C51 1.491 . S
C52 C53 1.392 . S
C52 C57 1.356 1_554 S
C53 C52 1.392 . S
C53 C54 1.368 . S
C53 H76 0.929 . S
C54 C53 1.368 . S
C54 C55 1.386 . S
C54 H77 0.929 . S
C55 C54 1.386 . S
C55 C56 1.373 1_554 S
C56 C55 1.373 1_556 S
C56 C57 1.409 . S
C56 H78 0.931 . S
C57 C52 1.356 1_556 S
C57 C56 1.409 . S
C57 H79 0.930 . S
C58 O68 1.270 . S
C58 O69 1.248 . S
C59 O70 1.267 . S
C59 O71 1.278 . S
O60 Pr40 2.562 . S
O60 C42 1.254 . S
O61 Pr40 2.490 1_556 S
O61 C42 1.225 1_556 S
O62 Pr40 2.695 1_556 S
O62 Pr41 2.436 1_556 S
O62 C49 1.270 . S
O63 Pr40 2.512 1_556 S
O63 C49 1.248 . S
O64 Pr41 2.438 . S
O64 C50 1.267 . S
O65 Pr40 2.437 1_556 S
O65 C50 1.278 1_556 S
O66 Pr41 2.562 1_556 S
O66 C51 1.254 1_556 S
O67 Pr41 2.490 . S
O67 C51 1.225 . S
O68 Pr40 2.436 . S
O68 Pr41 2.695 . S
O68 C58 1.270 . S
O69 Pr41 2.512 . S
O69 C58 1.248 . S
O70 Pr40 2.438 . S
O70 C59 1.267 . S
O71 Pr41 2.437 . S
O71 C59 1.278 . S
H72 C44 0.929 . S
H73 C45 0.929 . S
H74 C47 0.931 . S
H75 C48 0.930 . S
H76 C53 0.929 . S
H77 C54 0.929 . S
H78 C56 0.931 . S
H79 C57 0.930 . S
Pr80 C82 2.879 1_554 S
Pr80 O100 2.562 1_554 S
Pr80 O101 2.490 . S
Pr80 O102 2.695 1_565 S
Pr80 O103 2.512 . S
Pr80 O105 2.437 1_565 S
Pr80 O108 2.436 1_564 S
Pr80 O110 2.438 . S
Pr81 C91 2.880 . S
Pr81 O102 2.436 . S
Pr81 O104 2.438 . S
Pr81 O106 2.562 . S
Pr81 O107 2.490 1_554 S
Pr81 O108 2.695 1_554 S
Pr81 O109 2.512 1_554 S
Pr81 O111 2.437 1_554 S
C82 Pr80 2.879 1_556 S
C82 C83 1.492 . S
C82 O100 1.257 . S
C82 O101 1.221 1_556 S
C83 C82 1.492 . S
C83 C84 1.392 1_556 S
C83 C88 1.356 . S
C84 C83 1.392 1_554 S
C84 C85 1.368 . S
C84 H112 0.929 . S
C85 C84 1.368 . S
C85 C86 1.386 1_554 S
C85 H113 0.929 . S
C86 C85 1.386 1_556 S
C86 C87 1.373 . S
C87 C86 1.373 . S
C87 C88 1.409 . S
C87 H114 0.931 . S
C88 C83 1.356 . S
C88 C87 1.409 . S
C88 H115 0.930 . S
C89 O102 1.270 . S
C89 O103 1.248 1_545 S
C90 O104 1.267 . S
C90 O105 1.278 . S
C91 Pr81 2.880 . S
C91 C92 1.491 . S
C91 O106 1.254 . S
C91 O107 1.225 1_554 S
C92 C91 1.491 . S
C92 C93 1.392 1_554 S
C92 C97 1.356 . S
C93 C92 1.392 1_556 S
C93 C94 1.368 . S
C93 H116 0.929 . S
C94 C93 1.368 . S
C94 C95 1.386 1_556 S
C94 H117 0.929 . S
C95 C94 1.386 1_554 S
C95 C96 1.373 . S
C96 C95 1.373 . S
C96 C97 1.409 . S
C96 H118 0.931 . S
C97 C92 1.356 . S
C97 C96 1.409 . S
C97 H119 0.930 . S
C98 O108 1.270 . S
C98 O109 1.248 . S
C99 O110 1.267 . S
C99 O111 1.278 1_564 S
O100 Pr80 2.562 1_556 S
O100 C82 1.257 . S
O101 Pr80 2.490 . S
O101 C82 1.221 1_554 S
O102 Pr80 2.695 1_545 S
O102 Pr81 2.436 . S
O102 C89 1.270 . S
O103 Pr80 2.512 . S
O103 C89 1.248 1_565 S
O104 Pr81 2.438 . S
O104 C90 1.267 . S
O105 Pr80 2.437 1_545 S
O105 C90 1.278 . S
O106 Pr81 2.562 . S
O106 C91 1.254 . S
O107 Pr81 2.490 1_556 S
O107 C91 1.225 1_556 S
O108 Pr80 2.436 1_546 S
O108 Pr81 2.695 1_556 S
O108 C98 1.270 . S
O109 Pr81 2.512 1_556 S
O109 C98 1.248 . S
O110 Pr80 2.438 . S
O110 C99 1.267 . S
O111 Pr81 2.437 1_556 S
O111 C99 1.278 1_546 S
H112 C84 0.929 . S
H113 C85 0.929 . S
H114 C87 0.931 . S
H115 C88 0.930 . S
H116 C93 0.929 . S
H117 C94 0.929 . S
H118 C96 0.931 . S
H119 C97 0.930 . S
Pr120 C122 2.880 . S
Pr120 O140 2.562 . S
Pr120 O141 2.490 . S
Pr120 O142 2.695 . S
Pr120 O143 2.512 1_554 S
Pr120 O145 2.437 . S
Pr120 O148 2.436 . S
Pr120 O150 2.438 . S
Pr121 C131 2.880 . S
Pr121 O142 2.436 . S
Pr121 O144 2.438 . S
Pr121 O146 2.562 . S
Pr121 O147 2.490 . S
Pr121 O148 2.695 . S
Pr121 O149 2.512 . S
Pr121 O151 2.437 . S
C122 Pr120 2.880 . S
C122 C123 1.491 . S
C122 O140 1.254 . S
C122 O141 1.225 . S
C123 C122 1.491 . S
C123 C124 1.392 . S
C123 C128 1.356 . S
C124 C123 1.392 . S
C124 C125 1.368 . S
C124 H152 0.929 . S
C125 C124 1.368 . S
C125 C126 1.386 . S
C125 H153 0.929 . S
C126 C125 1.386 . S
C126 C127 1.373 . S
C127 C126 1.373 . S
C127 C128 1.409 . S
C127 H154 0.931 . S
C128 C123 1.356 . S
C128 C127 1.409 . S
C128 H155 0.930 . S
C129 O142 1.270 1_556 S
C129 O143 1.248 . S
C130 O144 1.267 . S
C130 O145 1.278 . S
C131 Pr121 2.880 . S
C131 C132 1.491 . S
C131 O146 1.254 . S
C131 O147 1.225 . S
C132 C131 1.491 . S
C132 C133 1.392 . S
C132 C137 1.356 . S
C133 C132 1.392 . S
C133 C134 1.368 . S
C133 H156 0.929 . S
C134 C133 1.368 . S
C134 C135 1.386 . S
C134 H157 0.929 . S
C135 C134 1.386 . S
C135 C136 1.373 . S
C136 C135 1.373 . S
C136 C137 1.409 . S
C136 H158 0.931 1_554 S
C137 C132 1.356 . S
C137 C136 1.409 . S
C137 H159 0.930 1_554 S
C138 O148 1.270 . S
C138 O149 1.248 . S
C139 O150 1.267 . S
C139 O151 1.278 . S
O140 Pr120 2.562 . S
O140 C122 1.254 . S
O141 Pr120 2.490 . S
O141 C122 1.225 . S
O142 Pr120 2.695 . S
O142 Pr121 2.436 . S
O142 C129 1.270 1_554 S
O143 Pr120 2.512 1_556 S
O143 C129 1.248 . S
O144 Pr121 2.438 . S
O144 C130 1.267 . S
O145 Pr120 2.437 . S
O145 C130 1.278 . S
O146 Pr121 2.562 . S
O146 C131 1.254 . S
O147 Pr121 2.490 . S
O147 C131 1.225 . S
O148 Pr120 2.436 . S
O148 Pr121 2.695 . S
O148 C138 1.270 . S
O149 Pr121 2.512 . S
O149 C138 1.248 . S
O150 Pr120 2.438 . S
O150 C139 1.267 . S
O151 Pr121 2.437 . S
O151 C139 1.278 . S
H152 C124 0.929 . S
H153 C125 0.929 . S
H154 C127 0.931 . S
H155 C128 0.930 . S
H156 C133 0.929 . S
H157 C134 0.929 . S
H158 C136 0.931 1_556 S
H159 C137 0.930 1_556 S
Pr160 C162 2.880 . S
Pr160 O180 2.562 . S
Pr160 O181 2.490 . S
Pr160 O182 2.695 . S
Pr160 O183 2.512 1_554 S
Pr160 O185 2.437 . S
Pr160 O188 2.436 . S
Pr160 O190 2.438 . S
Pr161 C171 2.880 . S
Pr161 O182 2.436 . S
Pr161 O184 2.438 . S
Pr161 O186 2.562 . S
Pr161 O187 2.490 . S
Pr161 O188 2.695 . S
Pr161 O189 2.512 . S
Pr161 O191 2.437 . S
C162 Pr160 2.880 . S
C162 C163 1.491 . S
C162 O180 1.254 . S
C162 O181 1.225 . S
C163 C162 1.491 . S
C163 C164 1.392 . S
C163 C168 1.356 . S
C164 C163 1.392 . S
C164 C165 1.368 . S
C164 H192 0.929 . S
C165 C164 1.368 . S
C165 C166 1.386 . S
C165 H193 0.929 . S
C166 C165 1.386 . S
C166 C167 1.373 . S
C167 C166 1.373 . S
C167 C168 1.409 . S
C167 H194 0.931 . S
C168 C163 1.356 . S
C168 C167 1.409 . S
C168 H195 0.930 . S
C169 O182 1.270 1_556 S
C169 O183 1.248 . S
C170 O184 1.267 . S
C170 O185 1.278 . S
C171 Pr161 2.880 . S
C171 C172 1.491 . S
C171 O186 1.254 . S
C171 O187 1.225 . S
C172 C171 1.491 . S
C172 C173 1.392 . S
C172 C177 1.356 . S
C173 C172 1.392 . S
C173 C174 1.368 . S
C173 H196 0.929 . S
C174 C173 1.368 . S
C174 C175 1.386 . S
C174 H197 0.929 . S
C175 C174 1.386 . S
C175 C176 1.373 . S
C176 C175 1.373 . S
C176 C177 1.409 . S
C176 H198 0.931 1_554 S
C177 C172 1.356 . S
C177 C176 1.409 . S
C177 H199 0.930 1_554 S
C178 O188 1.270 . S
C178 O189 1.248 . S
C179 O190 1.267 . S
C179 O191 1.278 . S
O180 Pr160 2.562 . S
O180 C162 1.254 . S
O181 Pr160 2.490 . S
O181 C162 1.225 . S
O182 Pr160 2.695 . S
O182 Pr161 2.436 . S
O182 C169 1.270 1_554 S
O183 Pr160 2.512 1_556 S
O183 C169 1.248 . S
O184 Pr161 2.438 . S
O184 C170 1.267 . S
O185 Pr160 2.437 . S
O185 C170 1.278 . S
O186 Pr161 2.562 . S
O186 C171 1.254 . S
O187 Pr161 2.490 . S
O187 C171 1.225 . S
O188 Pr160 2.436 . S
O188 Pr161 2.695 . S
O188 C178 1.270 . S
O189 Pr161 2.512 . S
O189 C178 1.248 . S
O190 Pr160 2.438 . S
O190 C179 1.267 . S
O191 Pr161 2.437 . S
O191 C179 1.278 . S
H192 C164 0.929 . S
H193 C165 0.929 . S
H194 C167 0.931 . S
H195 C168 0.930 . S
H196 C173 0.929 . S
H197 C174 0.929 . S
H198 C176 0.931 1_556 S
H199 C177 0.930 1_556 S
Pr200 C202 2.880 1_655 S
Pr200 O220 2.588 . S
Pr200 O221 2.490 1_655 S
Pr200 O222 2.695 . S
Pr200 O223 2.512 . S
Pr200 O225 2.437 . S
Pr200 O228 2.436 . S
Pr200 O230 2.438 . S
Pr201 C211 2.880 . S
Pr201 O222 2.436 . S
Pr201 O224 2.438 . S
Pr201 O226 2.562 . S
Pr201 O227 2.490 . S
Pr201 O228 2.695 . S
Pr201 O229 2.512 . S
Pr201 O231 2.437 . S
C202 Pr200 2.880 1_455 S
C202 C203 1.491 . S
C202 O220 1.238 1_455 S
C202 O221 1.225 . S
C203 C202 1.491 . S
C203 C204 1.392 . S
C203 C208 1.356 . S
C204 C203 1.392 . S
C204 C205 1.368 . S
C204 H232 0.929 . S
C205 C204 1.368 . S
C205 C206 1.386 . S
C205 H233 0.929 . S
C206 C205 1.386 . S
C206 C207 1.373 . S
C207 C206 1.373 . S
C207 C208 1.409 . S
C207 H234 0.931 . S
C208 C203 1.356 . S
C208 C207 1.409 . S
C208 H235 0.930 . S
C209 O222 1.270 1_556 S
C209 O223 1.248 1_556 S
C210 O224 1.267 . S
C210 O225 1.278 . S
C211 Pr201 2.880 . S
C211 C212 1.491 . S
C211 O226 1.254 . S
C211 O227 1.225 . S
C212 C211 1.491 . S
C212 C213 1.392 . S
C212 C217 1.356 . S
C213 C212 1.392 . S
C213 C214 1.368 . S
C213 H236 0.929 . S
C214 C213 1.368 . S
C214 C215 1.386 . S
C214 H237 0.929 . S
C215 C214 1.386 . S
C215 C216 1.365 1_554 S
C216 C215 1.365 1_556 S
C216 C217 1.408 1_556 S
C216 H238 0.940 . S
C217 C212 1.356 . S
C217 C216 1.408 1_554 S
C217 H239 0.930 1_554 S
C218 O228 1.270 . S
C218 O229 1.248 . S
C219 O230 1.267 . S
C219 O231 1.278 . S
O220 Pr200 2.588 . S
O220 C202 1.238 1_655 S
O221 Pr200 2.490 1_455 S
O221 C202 1.225 . S
O222 Pr200 2.695 . S
O222 Pr201 2.436 . S
O222 C209 1.270 1_554 S
O223 Pr200 2.512 . S
O223 C209 1.248 1_554 S
O224 Pr201 2.438 . S
O224 C210 1.267 . S
O225 Pr200 2.437 . S
O225 C210 1.278 . S
O226 Pr201 2.562 . S
O226 C211 1.254 . S
O227 Pr201 2.490 . S
O227 C211 1.225 . S
O228 Pr200 2.436 . S
O228 Pr201 2.695 . S
O228 C218 1.270 . S
O229 Pr201 2.512 . S
O229 C218 1.248 . S
O230 Pr200 2.438 . S
O230 C219 1.267 . S
O231 Pr201 2.437 . S
O231 C219 1.278 . S
H232 C204 0.929 . S
H233 C205 0.929 . S
H234 C207 0.931 . S
H235 C208 0.930 . S
H236 C213 0.929 . S
H237 C214 0.929 . S
H238 C216 0.940 . S
H239 C217 0.930 1_556 S
Pr240 C242 2.880 . S
Pr240 O260 2.562 . S
Pr240 O261 2.490 . S
Pr240 O262 2.695 . S
Pr240 O263 2.512 . S
Pr240 O265 2.437 . S
Pr240 O268 2.436 . S
Pr240 O270 2.438 . S
Pr241 C251 2.880 . S
Pr241 O262 2.436 . S
Pr241 O264 2.438 . S
Pr241 O266 2.562 . S
Pr241 O267 2.490 . S
Pr241 O268 2.695 . S
Pr241 O269 2.512 . S
Pr241 O271 2.437 . S
C242 Pr240 2.880 . S
C242 C243 1.491 . S
C242 O260 1.254 . S
C242 O261 1.225 . S
C243 C242 1.491 . S
C243 C244 1.392 . S
C243 C248 1.356 . S
C244 C243 1.392 . S
C244 C245 1.395 . S
C244 H272 0.929 . S
C245 C244 1.395 . S
C245 C246 1.372 1_565 S
C245 H273 0.917 1_565 S
C246 C245 1.372 1_545 S
C246 C247 1.373 1_545 S
C247 C246 1.373 1_565 S
C247 C248 1.409 . S
C247 H274 0.931 . S
C248 C243 1.356 . S
C248 C247 1.409 . S
C248 H275 0.930 . S
C249 O262 1.270 . S
C249 O263 1.249 . S
C250 O264 1.267 . S
C250 O265 1.278 . S
C251 Pr241 2.880 . S
C251 C252 1.491 . S
C251 O266 1.254 . S
C251 O267 1.225 . S
C252 C251 1.491 . S
C252 C253 1.392 . S
C252 C257 1.356 . S
C253 C252 1.392 . S
C253 C254 1.368 . S
C253 H276 0.929 . S
C254 C253 1.368 . S
C254 C255 1.386 . S
C254 H277 0.929 . S
C255 C254 1.386 . S
C255 C256 1.373 . S
C256 C255 1.373 . S
C256 C257 1.409 . S
C256 H278 0.931 . S
C257 C252 1.356 . S
C257 C256 1.409 . S
C257 H279 0.930 . S
C258 O268 1.270 . S
C258 O269 1.248 . S
C259 O270 1.267 . S
C259 O271 1.278 . S
O260 Pr240 2.562 . S
O260 C242 1.254 . S
O261 Pr240 2.490 . S
O261 C242 1.225 . S
O262 Pr240 2.695 . S
O262 Pr241 2.436 . S
O262 C249 1.270 . S
O263 Pr240 2.512 . S
O263 C249 1.249 . S
O264 Pr241 2.438 . S
O264 C250 1.267 . S
O265 Pr240 2.437 . S
O265 C250 1.278 . S
O266 Pr241 2.562 . S
O266 C251 1.254 . S
O267 Pr241 2.490 . S
O267 C251 1.225 . S
O268 Pr240 2.436 . S
O268 Pr241 2.695 . S
O268 C258 1.270 . S
O269 Pr241 2.512 . S
O269 C258 1.248 . S
O270 Pr240 2.438 . S
O270 C259 1.267 . S
O271 Pr241 2.437 . S
O271 C259 1.278 . S
H272 C244 0.929 . S
H273 C245 0.917 1_545 S
H274 C247 0.931 . S
H275 C248 0.930 . S
H276 C253 0.929 . S
H277 C254 0.929 . S
H278 C256 0.931 . S
H279 C257 0.930 . S
Pr280 C282 2.880 . S
Pr280 O300 2.562 . S
Pr280 O301 2.490 . S
Pr280 O302 2.695 . S
Pr280 O303 2.512 . S
Pr280 O305 2.437 . S
Pr280 O308 2.436 . S
Pr280 O310 2.438 . S
Pr281 C291 2.880 . S
Pr281 O302 2.436 . S
Pr281 O304 2.438 . S
Pr281 O306 2.562 . S
Pr281 O307 2.490 . S
Pr281 O308 2.695 . S
Pr281 O309 2.512 1_556 S
Pr281 O311 2.437 . S
C282 Pr280 2.880 . S
C282 C283 1.491 . S
C282 O300 1.254 . S
C282 O301 1.225 . S
C283 C282 1.491 . S
C283 C284 1.392 . S
C283 C288 1.356 . S
C284 C283 1.392 . S
C284 C285 1.368 . S
C284 H312 0.929 . S
C285 C284 1.368 . S
C285 C286 1.386 . S
C285 H313 0.929 . S
C286 C285 1.386 . S
C286 C287 1.373 . S
C287 C286 1.373 . S
C287 C288 1.409 . S
C287 H314 0.931 . S
C288 C283 1.356 . S
C288 C287 1.409 . S
C288 H315 0.930 . S
C289 O302 1.270 . S
C289 O303 1.248 . S
C290 O304 1.267 . S
C290 O305 1.278 . S
C291 Pr281 2.880 . S
C291 C292 1.491 . S
C291 O306 1.254 . S
C291 O307 1.225 . S
C292 C291 1.491 . S
C292 C293 1.392 . S
C292 C297 1.356 . S
C293 C292 1.392 . S
C293 C294 1.368 . S
C293 H316 0.929 . S
C294 C293 1.368 . S
C294 C295 1.386 . S
C294 H317 0.929 . S
C295 C294 1.386 . S
C295 C296 1.373 . S
C296 C295 1.373 . S
C296 C297 1.409 . S
C296 H318 0.931 . S
C297 C292 1.356 . S
C297 C296 1.409 . S
C297 H319 0.930 . S
C298 O308 1.270 1_554 S
C298 O309 1.248 . S
C299 O310 1.267 . S
C299 O311 1.278 . S
O300 Pr280 2.562 . S
O300 C282 1.254 . S
O301 Pr280 2.490 . S
O301 C282 1.225 . S
O302 Pr280 2.695 . S
O302 Pr281 2.436 . S
O302 C289 1.270 . S
O303 Pr280 2.512 . S
O303 C289 1.248 . S
O304 Pr281 2.438 . S
O304 C290 1.267 . S
O305 Pr280 2.437 . S
O305 C290 1.278 . S
O306 Pr281 2.562 . S
O306 C291 1.254 . S
O307 Pr281 2.490 . S
O307 C291 1.225 . S
O308 Pr280 2.436 . S
O308 Pr281 2.695 . S
O308 C298 1.270 1_556 S
O309 Pr281 2.512 1_554 S
O309 C298 1.248 . S
O310 Pr280 2.438 . S
O310 C299 1.267 . S
O311 Pr281 2.437 . S
O311 C299 1.278 . S
H312 C284 0.929 . S
H313 C285 0.929 . S
H314 C287 0.931 . S
H315 C288 0.930 . S
H316 C293 0.929 . S
H317 C294 0.929 . S
H318 C296 0.931 . S
H319 C297 0.930 . S
Pr320 C322 2.880 . S
Pr320 O340 2.562 . S
Pr320 O341 2.490 . S
Pr320 O342 2.695 . S
Pr320 O343 2.512 . S
Pr320 O345 2.437 . S
Pr320 O348 2.436 . S
Pr320 O350 2.438 . S
Pr321 C331 2.880 . S
Pr321 O342 2.436 . S
Pr321 O344 2.438 . S
Pr321 O346 2.562 . S
Pr321 O347 2.490 . S
Pr321 O348 2.695 . S
Pr321 O349 2.512 . S
Pr321 O351 2.437 . S
C322 Pr320 2.880 . S
C322 C323 1.491 . S
C322 O340 1.254 . S
C322 O341 1.225 . S
C323 C322 1.491 . S
C323 C324 1.392 . S
C323 C328 1.356 . S
C324 C323 1.392 . S
C324 C325 1.368 . S
C324 H352 0.929 . S
C325 C324 1.368 . S
C325 C326 1.386 . S
C325 H353 0.929 . S
C326 C325 1.386 . S
C326 C327 1.373 . S
C327 C326 1.373 . S
C327 C328 1.409 . S
C327 H354 0.931 . S
C328 C323 1.356 . S
C328 C327 1.409 . S
C328 H355 0.930 . S
C329 O342 1.270 . S
C329 O343 1.248 . S
C330 O344 1.267 . S
C330 O345 1.278 . S
C331 Pr321 2.880 . S
C331 C332 1.491 . S
C331 O346 1.254 . S
C331 O347 1.225 . S
C332 C331 1.491 . S
C332 C333 1.392 . S
C332 C337 1.356 . S
C333 C332 1.392 . S
C333 C334 1.368 . S
C333 H356 0.929 . S
C334 C333 1.368 . S
C334 C335 1.386 . S
C334 H357 0.929 . S
C335 C334 1.386 . S
C335 C336 1.373 . S
C336 C335 1.373 . S
C336 C337 1.409 . S
C336 H358 0.931 1_556 S
C337 C332 1.356 . S
C337 C336 1.409 . S
C337 H359 0.930 . S
C338 O348 1.270 . S
C338 O349 1.248 . S
C339 O350 1.267 . S
C339 O351 1.278 . S
O340 Pr320 2.562 . S
O340 C322 1.254 . S
O341 Pr320 2.490 . S
O341 C322 1.225 . S
O342 Pr320 2.695 . S
O342 Pr321 2.436 . S
O342 C329 1.270 . S
O343 Pr320 2.512 . S
O343 C329 1.248 . S
O344 Pr321 2.438 . S
O344 C330 1.267 . S
O345 Pr320 2.437 . S
O345 C330 1.278 . S
O346 Pr321 2.562 . S
O346 C331 1.254 . S
O347 Pr321 2.490 . S
O347 C331 1.225 . S
O348 Pr320 2.436 . S
O348 Pr321 2.695 . S
O348 C338 1.270 . S
O349 Pr321 2.512 . S
O349 C338 1.248 . S
O350 Pr320 2.438 . S
O350 C339 1.267 . S
O351 Pr321 2.437 . S
O351 C339 1.278 . S
H352 C324 0.929 . S
H353 C325 0.929 . S
H354 C327 0.931 . S
H355 C328 0.930 . S
H356 C333 0.929 . S
H357 C334 0.929 . S
H358 C336 0.931 1_554 S
H359 C337 0.930 . S
H360 C366 0.930 . S
H361 C369 0.930 . S
H362 C370 0.930 . S
H363 C371 0.930 . S
H364 C374 0.930 . S
H365 C375 0.930 . S
C366 H360 0.930 . S
C366 C367 1.355 1_556 S
C366 C368 1.415 . S
C367 C366 1.355 1_554 S
C367 C369 1.419 . S
C368 C366 1.415 . S
C368 C373 1.425 . S
C368 C375 1.409 . S
C369 H361 0.930 . S
C369 C367 1.419 . S
C369 C370 1.362 . S
C370 H362 0.930 . S
C370 C369 1.362 . S
C370 C373 1.409 1_554 S
C371 H363 0.930 . S
C371 C372 1.355 . S
C371 C373 1.415 . S
C372 C371 1.355 . S
C372 C374 1.419 . S
C373 C368 1.425 . S
C373 C370 1.409 1_556 S
C373 C371 1.415 . S
C374 H364 0.930 . S
C374 C372 1.419 . S
C374 C375 1.362 . S
C375 H365 0.930 . S
C375 C368 1.409 . S
C375 C374 1.362 . S
H376 C382 0.930 1_554 S
H377 C385 0.930 . S
H378 C386 0.930 . S
H379 C387 0.930 . S
H380 C390 0.930 . S
H381 C391 0.930 . S
C382 H376 0.930 1_556 S
C382 C383 1.355 . S
C382 C384 1.415 . S
C383 C382 1.355 . S
C383 C385 1.419 . S
C384 C382 1.415 . S
C384 C389 1.425 . S
C384 C391 1.409 . S
C385 H377 0.930 . S
C385 C383 1.419 . S
C385 C386 1.362 . S
C386 H378 0.930 . S
C386 C385 1.362 . S
C386 C389 1.409 . S
C387 H379 0.930 . S
C387 C388 1.355 . S
C387 C389 1.415 . S
C388 C387 1.355 . S
C388 C390 1.419 . S
C389 C384 1.425 . S
C389 C386 1.409 . S
C389 C387 1.415 . S
C390 H380 0.930 . S
C390 C388 1.419 . S
C390 C391 1.362 . S
C391 H381 0.930 . S
C391 C384 1.409 . S
C391 C390 1.362 . S
H392 C398 0.930 . S
H393 C401 0.930 . S
H394 C402 0.930 . S
H395 C403 0.930 . S
H396 C406 0.930 . S
H397 C407 0.930 . S
C398 H392 0.930 . S
C398 C399 1.355 . S
C398 C400 1.415 . S
C399 C398 1.355 . S
C399 C401 1.419 1_556 S
C400 C398 1.415 . S
C400 C405 1.425 . S
C400 C407 1.409 . S
C401 H393 0.930 . S
C401 C399 1.419 1_554 S
C401 C402 1.362 . S
C402 H394 0.930 . S
C402 C401 1.362 . S
C402 C405 1.409 1_554 S
C403 H395 0.930 . S
C403 C404 1.355 . S
C403 C405 1.415 . S
C404 C403 1.355 . S
C404 C406 1.419 . S
C405 C400 1.425 . S
C405 C402 1.409 1_556 S
C405 C403 1.415 . S
C406 H396 0.930 . S
C406 C404 1.419 . S
C406 C407 1.362 . S
C407 H397 0.930 . S
C407 C400 1.409 . S
C407 C406 1.362 . S
H408 C414 0.930 . S
H409 C417 0.930 . S
H410 C418 0.930 . S
H411 C419 0.930 . S
H412 C422 0.930 . S
H413 C423 0.930 . S
C414 H408 0.930 . S
C414 C415 1.355 . S
C414 C416 1.415 . S
C415 C414 1.355 . S
C415 C417 1.419 . S
C416 C414 1.415 . S
C416 C421 1.425 . S
C416 C423 1.409 . S
C417 H409 0.930 . S
C417 C415 1.419 . S
C417 C418 1.362 . S
C418 H410 0.930 . S
C418 C417 1.362 . S
C418 C421 1.409 . S
C419 H411 0.930 . S
C419 C420 1.355 . S
C419 C421 1.415 . S
C420 C419 1.355 . S
C420 C422 1.419 . S
C421 C416 1.425 . S
C421 C418 1.409 . S
C421 C419 1.415 . S
C422 H412 0.930 . S
C422 C420 1.419 . S
C422 C423 1.362 . S
C423 H413 0.930 . S
C423 C416 1.409 . S
C423 C422 1.362 . S
H424 C430 0.930 1_455 S
H425 C433 0.930 . S
H426 C434 0.930 . S
H427 C435 0.930 . S
H428 C438 0.930 . S
H429 C439 0.930 . S
C430 H424 0.930 1_655 S
C430 C431 1.355 . S
C430 C432 1.415 . S
C431 C430 1.355 . S
C431 C433 1.419 . S
C432 C430 1.415 . S
C432 C437 1.425 . S
C432 C439 1.409 1_655 S
C433 H425 0.930 . S
C433 C431 1.419 . S
C433 C434 1.362 . S
C434 H426 0.930 . S
C434 C433 1.362 . S
C434 C437 1.409 . S
C435 H427 0.930 . S
C435 C436 1.355 . S
C435 C437 1.415 . S
C436 C435 1.355 . S
C436 C438 1.419 1_655 S
C437 C432 1.425 . S
C437 C434 1.409 . S
C437 C435 1.415 . S
C438 H428 0.930 . S
C438 C436 1.419 1_455 S
C438 C439 1.362 . S
C439 H429 0.930 . S
C439 C432 1.409 1_455 S
C439 C438 1.362 . S
H440 C446 0.930 . S
H441 C449 0.930 . S
H442 C450 0.930 . S
H443 C451 0.930 . S
H444 C454 0.930 . S
H445 C455 0.930 . S
C446 H440 0.930 . S
C446 C447 1.355 . S
C446 C448 1.415 . S
C447 C446 1.355 . S
C447 C449 1.419 . S
C448 C446 1.415 . S
C448 C453 1.425 . S
C448 C455 1.409 . S
C449 H441 0.930 . S
C449 C447 1.419 . S
C449 C450 1.362 . S
C450 H442 0.930 . S
C450 C449 1.362 . S
C450 C453 1.409 . S
C451 H443 0.930 . S
C451 C452 1.355 . S
C451 C453 1.415 . S
C452 C451 1.355 . S
C452 C454 1.419 . S
C453 C448 1.425 . S
C453 C450 1.409 . S
C453 C451 1.415 . S
C454 H444 0.930 . S
C454 C452 1.419 . S
C454 C455 1.362 . S
C455 H445 0.930 . S
C455 C448 1.409 . S
C455 C454 1.362 . S
H456 C462 0.930 . S
H457 C465 0.930 . S
H458 C466 0.930 . S
H459 C467 0.930 . S
H460 C470 0.930 . S
H461 C471 0.930 . S
C462 H456 0.930 . S
C462 C463 1.355 . S
C462 C464 1.415 . S
C463 C462 1.355 . S
C463 C465 1.419 . S
C464 C462 1.415 . S
C464 C469 1.425 . S
C464 C471 1.409 . S
C465 H457 0.930 . S
C465 C463 1.419 . S
C465 C466 1.362 . S
C466 H458 0.930 . S
C466 C465 1.362 . S
C466 C469 1.409 . S
C467 H459 0.930 . S
C467 C468 1.355 . S
C467 C469 1.415 . S
C468 C467 1.355 . S
C468 C470 1.419 . S
C469 C464 1.425 . S
C469 C466 1.409 . S
C469 C467 1.415 . S
C470 H460 0.930 . S
C470 C468 1.419 . S
C470 C471 1.362 . S
C471 H461 0.930 . S
C471 C464 1.409 . S
C471 C470 1.362 . S
H472 C478 0.930 . S
H473 C481 0.930 . S
H474 C482 0.930 . S
H475 C483 0.930 . S
H476 C486 0.930 . S
H477 C487 0.930 . S
C478 H472 0.930 . S
C478 C479 1.355 . S
C478 C480 1.415 . S
C479 C478 1.355 . S
C479 C481 1.419 . S
C480 C478 1.415 . S
C480 C485 1.425 . S
C480 C487 1.409 . S
C481 H473 0.930 . S
C481 C479 1.419 . S
C481 C482 1.362 . S
C482 H474 0.930 . S
C482 C481 1.362 . S
C482 C485 1.409 . S
C483 H475 0.930 . S
C483 C484 1.355 . S
C483 C485 1.415 . S
C484 C483 1.355 . S
C484 C486 1.419 . S
C485 C480 1.425 . S
C485 C482 1.409 . S
C485 C483 1.415 . S
C486 H476 0.930 . S
C486 C484 1.419 . S
C486 C487 1.362 . S
C487 H477 0.930 . S
C487 C480 1.409 . S
C487 C486 1.362 . S
H488 C494 0.930 . S
H489 C497 0.930 . S
H490 C498 0.930 . S
H491 C499 0.930 . S
H492 C502 0.930 . S
H493 C503 0.930 . S
C494 H488 0.930 . S
C494 C495 1.355 . S
C494 C496 1.415 . S
C495 C494 1.355 . S
C495 C497 1.419 . S
C496 C494 1.415 . S
C496 C501 1.425 . S
C496 C503 1.409 . S
C497 H489 0.930 . S
C497 C495 1.419 . S
C497 C498 1.362 . S
C498 H490 0.930 . S
C498 C497 1.362 . S
C498 C501 1.409 . S
C499 H491 0.930 . S
C499 C500 1.355 . S
C499 C501 1.415 . S
C500 C499 1.355 . S
C500 C502 1.419 . S
C501 C496 1.425 . S
C501 C498 1.409 . S
C501 C499 1.415 . S
C502 H492 0.930 . S
C502 C500 1.419 . S
C502 C503 1.362 . S
C503 H493 0.930 . S
C503 C496 1.409 . S
C503 C502 1.362 . S
H504 C510 0.930 . S
H505 C513 0.930 . S
H506 C514 0.930 . S
H507 C515 0.930 1_556 S
H508 C518 0.930 . S
H509 C519 0.930 . S
C510 H504 0.930 . S
C510 C511 1.355 . S
C510 C512 1.415 . S
C511 C510 1.355 . S
C511 C513 1.419 1_554 S
C512 C510 1.415 . S
C512 C517 1.425 . S
C512 C519 1.409 . S
C513 H505 0.930 . S
C513 C511 1.419 1_556 S
C513 C514 1.362 . S
C514 H506 0.930 . S
C514 C513 1.362 . S
C514 C517 1.409 1_556 S
C515 H507 0.930 1_554 S
C515 C516 1.355 . S
C515 C517 1.415 . S
C516 C515 1.355 . S
C516 C518 1.419 . S
C517 C512 1.425 . S
C517 C514 1.409 1_554 S
C517 C515 1.415 . S
C518 H508 0.930 . S
C518 C516 1.419 . S
C518 C519 1.362 . S
C519 H509 0.930 . S
C519 C512 1.409 . S
C519 C518 1.362 . S
H520 C526 0.930 . S
H521 C529 0.930 . S
H522 C530 0.930 . S
H523 C531 0.930 . S
H524 C534 0.930 . S
H525 C535 0.900 1_455 S
C526 H520 0.930 . S
C526 C527 1.355 . S
C526 C528 1.415 . S
C527 C526 1.355 . S
C527 C529 1.419 . S
C528 C526 1.415 . S
C528 C533 1.425 . S
C528 C535 1.409 1_565 S
C529 H521 0.930 . S
C529 C527 1.419 . S
C529 C530 1.362 . S
C530 H522 0.930 . S
C530 C529 1.362 . S
C530 C533 1.409 . S
C531 H523 0.930 . S
C531 C532 1.355 . S
C531 C533 1.415 1_545 S
C532 C531 1.355 . S
C532 C534 1.419 . S
C533 C528 1.425 . S
C533 C530 1.409 . S
C533 C531 1.415 1_565 S
C534 H524 0.930 . S
C534 C532 1.419 . S
C534 C535 1.362 . S
C535 H525 0.900 1_655 S
C535 C528 1.409 1_545 S
C535 C534 1.362 . S
H536 C542 0.929 1_656 S
H537 C545 0.930 . S
H538 C546 0.930 . S
H539 C547 0.930 . S
H540 C550 0.930 . S
H541 C551 0.930 . S
C542 H536 0.929 1_454 S
C542 C543 1.355 . S
C542 C544 1.415 . S
C543 C542 1.355 . S
C543 C545 1.419 . S
C544 C542 1.415 . S
C544 C549 1.425 . S
C544 C551 1.409 1_554 S
C545 H537 0.930 . S
C545 C543 1.419 . S
C545 C546 1.362 . S
C546 H538 0.930 . S
C546 C545 1.362 . S
C546 C549 1.409 . S
C547 H539 0.930 . S
C547 C548 1.355 . S
C547 C549 1.415 . S
C548 C547 1.355 . S
C548 C550 1.419 1_554 S
C549 C544 1.425 . S
C549 C546 1.409 . S
C549 C547 1.415 . S
C550 H540 0.930 . S
C550 C548 1.419 1_556 S
C550 C551 1.362 . S
C551 H541 0.930 . S
C551 C544 1.409 1_556 S
C551 C550 1.362 . S
H552 C558 0.930 . S
H553 C561 0.930 1_556 S
H554 C562 0.930 . S
H555 C563 0.930 . S
H556 C566 0.930 . S
H557 C567 0.930 . S
C558 H552 0.930 . S
C558 C559 1.355 . S
C558 C560 1.415 . S
C559 C558 1.355 . S
C559 C561 1.419 . S
C560 C558 1.415 . S
C560 C565 1.425 . S
C560 C567 1.409 . S
C561 H553 0.930 1_554 S
C561 C559 1.419 . S
C561 C562 1.362 . S
C562 H554 0.930 . S
C562 C561 1.362 . S
C562 C565 1.409 . S
C563 H555 0.930 . S
C563 C564 1.355 . S
C563 C565 1.415 . S
C564 C563 1.355 . S
C564 C566 1.419 . S
C565 C560 1.425 . S
C565 C562 1.409 . S
C565 C563 1.415 . S
C566 H556 0.930 . S
C566 C564 1.419 . S
C566 C567 1.362 . S
C567 H557 0.930 . S
C567 C560 1.409 . S
C567 C566 1.362 . S
H568 C574 0.930 1_556 S
H569 C577 0.930 . S
H570 C578 0.930 . S
H571 C579 0.930 . S
H572 C582 0.930 . S
H573 C583 0.930 . S
C574 H568 0.930 1_554 S
C574 C575 1.355 . S
C574 C576 1.415 . S
C575 C574 1.355 . S
C575 C577 1.419 . S
C576 C574 1.415 . S
C576 C581 1.425 . S
C576 C583 1.409 1_554 S
C577 H569 0.930 . S
C577 C575 1.419 . S
C577 C578 1.362 . S
C578 H570 0.930 . S
C578 C577 1.362 . S
C578 C581 1.409 . S
C579 H571 0.930 . S
C579 C580 1.355 . S
C579 C581 1.415 . S
C580 C579 1.355 . S
C580 C582 1.419 1_554 S
C581 C576 1.425 . S
C581 C578 1.409 . S
C581 C579 1.415 . S
C582 H572 0.930 . S
C582 C580 1.419 1_556 S
C582 C583 1.362 . S
C583 H573 0.930 . S
C583 C576 1.409 1_556 S
C583 C582 1.362 . S
H584 C590 0.930 . S
H585 C593 0.930 . S
H586 C594 0.930 . S
H587 C595 0.930 . S
H588 C598 0.930 . S
H589 C599 0.930 . S
C590 H584 0.930 . S
C590 C591 1.355 . S
C590 C592 1.415 . S
C591 C590 1.355 . S
C591 C593 1.419 . S
C592 C590 1.415 . S
C592 C597 1.425 . S
C592 C599 1.409 . S
C593 H585 0.930 . S
C593 C591 1.419 . S
C593 C594 1.362 . S
C594 H586 0.930 . S
C594 C593 1.362 . S
C594 C597 1.409 . S
C595 H587 0.930 . S
C595 C596 1.355 . S
C595 C597 1.415 . S
C596 C595 1.355 . S
C596 C598 1.419 . S
C597 C592 1.425 . S
C597 C594 1.409 . S
C597 C595 1.415 . S
C598 H588 0.930 . S
C598 C596 1.419 . S
C598 C599 1.362 . S
C599 H589 0.930 . S
C599 C592 1.409 . S
C599 C598 1.362 . S
H600 C606 0.930 . S
H601 C609 0.930 . S
H602 C610 0.930 . S
H603 C611 0.930 . S
H604 C614 0.930 . S
H605 C615 0.930 . S
C606 H600 0.930 . S
C606 C607 1.355 . S
C606 C608 1.415 . S
C607 C606 1.355 . S
C607 C609 1.419 . S
C608 C606 1.415 . S
C608 C613 1.425 . S
C608 C615 1.409 . S
C609 H601 0.930 . S
C609 C607 1.419 . S
C609 C610 1.362 . S
C610 H602 0.930 . S
C610 C609 1.362 . S
C610 C613 1.409 . S
C611 H603 0.930 . S
C611 C612 1.355 . S
C611 C613 1.415 . S
C612 C611 1.355 . S
C612 C614 1.419 . S
C613 C608 1.425 . S
C613 C610 1.409 . S
C613 C611 1.415 . S
C614 H604 0.930 . S
C614 C612 1.419 . S
C614 C615 1.362 . S
C615 H605 0.930 . S
C615 C608 1.409 . S
C615 C614 1.362 . S
H616 C622 0.930 . S
H617 C625 0.930 . S
H618 C626 0.930 . S
H619 C627 0.930 . S
H620 C630 0.930 . S
H621 C631 0.930 . S
C622 H616 0.930 . S
C622 C623 1.355 . S
C622 C624 1.415 . S
C623 C622 1.355 . S
C623 C625 1.419 . S
C624 C622 1.415 . S
C624 C629 1.425 . S
C624 C631 1.409 . S
C625 H617 0.930 . S
C625 C623 1.419 . S
C625 C626 1.362 . S
C626 H618 0.930 . S
C626 C625 1.362 . S
C626 C629 1.409 . S
C627 H619 0.930 . S
C627 C628 1.355 . S
C627 C629 1.415 . S
C628 C627 1.355 . S
C628 C630 1.419 . S
C629 C624 1.425 . S
C629 C626 1.409 . S
C629 C627 1.415 . S
C630 H620 0.930 . S
C630 C628 1.419 . S
C630 C631 1.362 . S
C631 H621 0.930 . S
C631 C624 1.409 . S
C631 C630 1.362 . S
H632 C638 0.930 . S
H633 C641 0.930 . S
H634 C642 0.930 . S
H635 C643 0.930 . S
H636 C646 0.930 . S
H637 C647 0.930 . S
C638 H632 0.930 . S
C638 C639 1.355 . S
C638 C640 1.415 . S
C639 C638 1.355 . S
C639 C641 1.419 . S
C640 C638 1.415 . S
C640 C645 1.425 . S
C640 C647 1.409 . S
C641 H633 0.930 . S
C641 C639 1.419 . S
C641 C642 1.362 . S
C642 H634 0.930 . S
C642 C641 1.362 . S
C642 C645 1.409 . S
C643 H635 0.930 . S
C643 C644 1.355 . S
C643 C645 1.415 . S
C644 C643 1.355 . S
C644 C646 1.419 . S
C645 C640 1.425 . S
C645 C642 1.409 . S
C645 C643 1.415 . S
C646 H636 0.930 . S
C646 C644 1.419 . S
C646 C647 1.362 . S
C647 H637 0.930 . S
C647 C640 1.409 . S
C647 C646 1.362 . S
H648 C654 0.930 . S
H649 C657 0.930 . S
H650 C658 0.930 . S
H651 C659 0.930 . S
H652 C662 0.930 . S
H653 C663 0.930 . S
C654 H648 0.930 . S
C654 C655 1.355 . S
C654 C656 1.415 . S
C655 C654 1.355 . S
C655 C657 1.419 . S
C656 C654 1.415 . S
C656 C661 1.425 . S
C656 C663 1.409 . S
C657 H649 0.930 . S
C657 C655 1.419 . S
C657 C658 1.362 . S
C658 H650 0.930 . S
C658 C657 1.362 . S
C658 C661 1.409 . S
C659 H651 0.930 . S
C659 C660 1.355 . S
C659 C661 1.415 . S
C660 C659 1.355 . S
C660 C662 1.419 . S
C661 C656 1.425 . S
C661 C658 1.409 . S
C661 C659 1.415 . S
C662 H652 0.930 . S
C662 C660 1.419 . S
C662 C663 1.362 . S
C663 H653 0.930 . S
C663 C656 1.409 . S
C663 C662 1.362 . S
H664 C670 0.930 . S
H665 C673 0.930 . S
H666 C674 0.930 . S
H667 C675 0.930 . S
H668 C678 0.930 . S
H669 C679 0.930 . S
C670 H664 0.930 . S
C670 C671 1.355 . S
C670 C672 1.415 . S
C671 C670 1.355 . S
C671 C673 1.419 . S
C672 C670 1.415 . S
C672 C677 1.425 . S
C672 C679 1.409 . S
C673 H665 0.930 . S
C673 C671 1.419 . S
C673 C674 1.362 . S
C674 H666 0.930 . S
C674 C673 1.362 . S
C674 C677 1.409 . S
C675 H667 0.930 . S
C675 C676 1.355 . S
C675 C677 1.415 . S
C676 C675 1.355 . S
C676 C678 1.419 . S
C677 C672 1.425 . S
C677 C674 1.409 . S
C677 C675 1.415 . S
C678 H668 0.930 . S
C678 C676 1.419 . S
C678 C679 1.362 . S
C679 H669 0.930 . S
C679 C672 1.409 . S
C679 C678 1.362 . S
H680 C686 0.930 . S
H681 C689 0.930 . S
H682 C690 0.930 . S
H683 C691 0.930 1_565 S
H684 C694 0.930 . S
H685 C695 0.930 . S
C686 H680 0.930 . S
C686 C687 1.355 . S
C686 C688 1.415 . S
C687 C686 1.355 . S
C687 C689 1.419 1_545 S
C688 C686 1.415 . S
C688 C693 1.425 . S
C688 C695 1.409 . S
C689 H681 0.930 . S
C689 C687 1.419 1_565 S
C689 C690 1.362 . S
C690 H682 0.930 . S
C690 C689 1.362 . S
C690 C693 1.409 1_565 S
C691 H683 0.930 1_545 S
C691 C692 1.355 . S
C691 C693 1.415 . S
C692 C691 1.355 . S
C692 C694 1.419 . S
C693 C688 1.425 . S
C693 C690 1.409 1_545 S
C693 C691 1.415 . S
C694 H684 0.930 . S
C694 C692 1.419 . S
C694 C695 1.362 . S
C695 H685 0.930 . S
C695 C688 1.409 . S
C695 C694 1.362 . S
H696 C702 0.930 . S
H697 C705 0.930 . S
H698 C706 0.930 . S
H699 C707 0.930 . S
H700 C710 0.930 . S
H701 C711 0.930 . S
C702 H696 0.930 . S
C702 C703 1.355 . S
C702 C704 1.415 . S
C703 C702 1.355 . S
C703 C705 1.419 . S
C704 C702 1.415 . S
C704 C709 1.425 . S
C704 C711 1.409 . S
C705 H697 0.930 . S
C705 C703 1.419 . S
C705 C706 1.362 . S
C706 H698 0.930 . S
C706 C705 1.362 . S
C706 C709 1.409 . S
C707 H699 0.930 . S
C707 C708 1.355 . S
C707 C709 1.415 . S
C708 C707 1.355 . S
C708 C710 1.419 . S
C709 C704 1.425 . S
C709 C706 1.409 . S
C709 C707 1.415 . S
C710 H700 0.930 . S
C710 C708 1.419 . S
C710 C711 1.362 . S
C711 H701 0.930 . S
C711 C704 1.409 . S
C711 C710 1.362 . S
H712 C718 0.930 . S
H713 C721 0.930 . S
H714 C722 0.930 . S
H715 C723 0.930 . S
H716 C726 0.930 . S
H717 C727 0.930 . S
C718 H712 0.930 . S
C718 C719 1.355 . S
C718 C720 1.415 . S
C719 C718 1.355 . S
C719 C721 1.419 . S
C720 C718 1.415 . S
C720 C725 1.425 . S
C720 C727 1.409 . S
C721 H713 0.930 . S
C721 C719 1.419 . S
C721 C722 1.362 . S
C722 H714 0.930 . S
C722 C721 1.362 . S
C722 C725 1.409 . S
C723 H715 0.930 . S
C723 C724 1.355 . S
C723 C725 1.415 . S
C724 C723 1.355 . S
C724 C726 1.419 . S
C725 C720 1.425 . S
C725 C722 1.409 . S
C725 C723 1.415 . S
C726 H716 0.930 . S
C726 C724 1.419 . S
C726 C727 1.362 . S
C727 H717 0.930 . S
C727 C720 1.409 . S
C727 C726 1.362 . S
H728 C734 0.930 . S
H729 C737 0.930 . S
H730 C738 0.930 . S
H731 C739 0.930 . S
H732 C742 0.930 . S
H733 C743 0.930 . S
C734 H728 0.930 . S
C734 C735 1.355 . S
C734 C736 1.415 . S
C735 C734 1.355 . S
C735 C737 1.419 . S
C736 C734 1.415 . S
C736 C741 1.425 . S
C736 C743 1.409 . S
C737 H729 0.930 . S
C737 C735 1.419 . S
C737 C738 1.362 . S
C738 H730 0.930 . S
C738 C737 1.362 . S
C738 C741 1.409 . S
C739 H731 0.930 . S
C739 C740 1.355 . S
C739 C741 1.415 . S
C740 C739 1.355 . S
C740 C742 1.419 . S
C741 C736 1.425 . S
C741 C738 1.409 . S
C741 C739 1.415 . S
C742 H732 0.930 . S
C742 C740 1.419 . S
C742 C743 1.362 . S
C743 H733 0.930 . S
C743 C736 1.409 . S
C743 C742 1.362 . S
H744 C750 0.930 . S
H745 C753 0.930 . S
H746 C754 0.930 . S
H747 C755 0.930 . S
H748 C758 0.930 . S
H749 C759 0.930 . S
C750 H744 0.930 . S
C750 C751 1.355 . S
C750 C752 1.415 . S
C751 C750 1.355 . S
C751 C753 1.419 . S
C752 C750 1.415 . S
C752 C757 1.425 . S
C752 C759 1.409 . S
C753 H745 0.930 . S
C753 C751 1.419 . S
C753 C754 1.362 . S
C754 H746 0.930 . S
C754 C753 1.362 . S
C754 C757 1.409 . S
C755 H747 0.930 . S
C755 C756 1.355 . S
C755 C757 1.415 . S
C756 C755 1.355 . S
C756 C758 1.419 . S
C757 C752 1.425 . S
C757 C754 1.409 . S
C757 C755 1.415 . S
C758 H748 0.930 . S
C758 C756 1.419 . S
C758 C759 1.362 . S
C759 H749 0.930 . S
C759 C752 1.409 . S
C759 C758 1.362 . S
H760 C766 0.930 . S
H761 C769 0.930 . S
H762 C770 0.930 . S
H763 C771 0.930 . S
H764 C774 0.930 . S
H765 C775 0.930 . S
C766 H760 0.930 . S
C766 C767 1.355 . S
C766 C768 1.415 . S
C767 C766 1.355 . S
C767 C769 1.419 . S
C768 C766 1.415 . S
C768 C773 1.425 . S
C768 C775 1.409 . S
C769 H761 0.930 . S
C769 C767 1.419 . S
C769 C770 1.362 . S
C770 H762 0.930 . S
C770 C769 1.362 . S
C770 C773 1.409 . S
C771 H763 0.930 . S
C771 C772 1.355 . S
C771 C773 1.415 . S
C772 C771 1.355 . S
C772 C774 1.419 . S
C773 C768 1.425 . S
C773 C770 1.409 . S
C773 C771 1.415 . S
C774 H764 0.930 . S
C774 C772 1.419 . S
C774 C775 1.362 . S
C775 H765 0.930 . S
C775 C768 1.409 . S
C775 C774 1.362 . S
H776 C782 0.930 . S
H777 C785 0.930 . S
H778 C786 0.930 . S
H779 C787 0.930 . S
H780 C790 0.930 . S
H781 C791 0.930 . S
C782 H776 0.930 . S
C782 C783 1.355 . S
C782 C784 1.415 . S
C783 C782 1.355 . S
C783 C785 1.419 . S
C784 C782 1.415 . S
C784 C789 1.425 . S
C784 C791 1.409 . S
C785 H777 0.930 . S
C785 C783 1.419 . S
C785 C786 1.362 . S
C786 H778 0.930 . S
C786 C785 1.362 . S
C786 C789 1.409 . S
C787 H779 0.930 . S
C787 C788 1.355 . S
C787 C789 1.415 . S
C788 C787 1.355 . S
C788 C790 1.419 . S
C789 C784 1.425 . S
C789 C786 1.409 . S
C789 C787 1.415 . S
C790 H780 0.930 . S
C790 C788 1.419 . S
C790 C791 1.362 . S
C791 H781 0.930 . S
C791 C784 1.409 . S
C791 C790 1.362 . S
C367 C6 1.618 . S
C372 C286 1.621 . S
C383 C50 2.670 1_556 S
C388 C330 2.718 . S
C399 C86 1.776 . S
C404 C250 1.779 . S
C415 C170 3.103 . S
C420 C90 3.064 . S
C431 C210 2.856 . S
C436 C10 2.907 1_655 S
C447 C46 2.565 . S
C452 C130 2.521 . S
C463 C290 2.101 . S
C468 C206 2.080 . S
C479 C326 1.724 . S
C484 C126 1.735 . S
C495 C166 1.912 . S
C500 C246 1.956 . S
C511 C95 1.939 . S
C516 C19 2.033 . S
C527 C55 1.394 . S
C532 C15 1.399 . S
C543 C59 3.407 1_455 S
C548 C99 3.358 . S
C559 C135 1.912 . S
C564 C219 1.890 . S
C575 C139 1.928 . S
C580 C175 1.981 . S
C591 C179 1.726 . S
C596 C215 1.709 . S
C607 C335 1.974 . S
C612 C259 2.047 . S
C623 C295 0.882 . S
C628 C255 0.885 . S
C639 C339 2.178 . S
C644 C299 2.275 . S
C655 C18 1.061 . S
C660 C9 1.061 . S
C671 C49 1.009 . S
C676 C58 1.009 . S
C687 C98 1.096 . S
C692 C89 1.096 . S
C703 C138 1.104 . S
C708 C129 1.104 . S
C719 C178 1.097 . S
C724 C169 1.097 . S
C735 C218 1.016 . S
C740 C209 1.016 . S
C751 C258 1.111 . S
C756 C249 1.111 1_554 S
C767 C298 1.090 . S
C772 C289 1.090 . S
C783 C338 1.050 . S
C788 C329 1.050 1_554 S
