# Generated by pormake.
# Topology qtz-a, (4)-cn, num edge types: 1
# Building blocks:
#     Node 0, Type 0, BuildingBlock: UXUYUI_clean_sbu_0, # of connection points: 4
#     Node 1, Type 0, BuildingBlock: UXUYUI_clean_sbu_0, # of connection points: 4
#     Node 2, Type 0, BuildingBlock: UXUYUI_clean_sbu_0, # of connection points: 4
#     Node 3, Type 0, BuildingBlock: UXUYUI_clean_sbu_0, # of connection points: 4
#     Node 4, Type 0, BuildingBlock: UXUYUI_clean_sbu_0, # of connection points: 4
#     Node 5, Type 0, BuildingBlock: UXUYUI_clean_sbu_0, # of connection points: 4
#     Node 6, Type 0, BuildingBlock: UXUYUI_clean_sbu_0, # of connection points: 4
#     Node 7, Type 0, BuildingBlock: UXUYUI_clean_sbu_0, # of connection points: 4
#     Node 8, Type 0, BuildingBlock: UXUYUI_clean_sbu_0, # of connection points: 4
#     Node 9, Type 0, BuildingBlock: UXUYUI_clean_sbu_0, # of connection points: 4
#     Node 10, Type 0, BuildingBlock: UXUYUI_clean_sbu_0, # of connection points: 4
#     Node 11, Type 0, BuildingBlock: UXUYUI_clean_sbu_0, # of connection points: 4
#     Edge 12, Type (0, 0), BuildingBlock: EZIPEK_clean_linker_0, # of connection points: 2
#     Edge 13, Type (0, 0), BuildingBlock: EZIPEK_clean_linker_0, # of connection points: 2
#     Edge 14, Type (0, 0), BuildingBlock: EZIPEK_clean_linker_0, # of connection points: 2
#     Edge 15, Type (0, 0), BuildingBlock: EZIPEK_clean_linker_0, # of connection points: 2
#     Edge 16, Type (0, 0), BuildingBlock: EZIPEK_clean_linker_0, # of connection points: 2
#     Edge 17, Type (0, 0), BuildingBlock: EZIPEK_clean_linker_0, # of connection points: 2
#     Edge 18, Type (0, 0), BuildingBlock: EZIPEK_clean_linker_0, # of connection points: 2
#     Edge 19, Type (0, 0), BuildingBlock: EZIPEK_clean_linker_0, # of connection points: 2
#     Edge 20, Type (0, 0), BuildingBlock: EZIPEK_clean_linker_0, # of connection points: 2
#     Edge 21, Type (0, 0), BuildingBlock: EZIPEK_clean_linker_0, # of connection points: 2
#     Edge 22, Type (0, 0), BuildingBlock: EZIPEK_clean_linker_0, # of connection points: 2
#     Edge 23, Type (0, 0), BuildingBlock: EZIPEK_clean_linker_0, # of connection points: 2
#     Edge 24, Type (0, 0), BuildingBlock: EZIPEK_clean_linker_0, # of connection points: 2
#     Edge 25, Type (0, 0), BuildingBlock: EZIPEK_clean_linker_0, # of connection points: 2
#     Edge 26, Type (0, 0), BuildingBlock: EZIPEK_clean_linker_0, # of connection points: 2
#     Edge 27, Type (0, 0), BuildingBlock: EZIPEK_clean_linker_0, # of connection points: 2
#     Edge 28, Type (0, 0), BuildingBlock: EZIPEK_clean_linker_0, # of connection points: 2
#     Edge 29, Type (0, 0), BuildingBlock: EZIPEK_clean_linker_0, # of connection points: 2
#     Edge 30, Type (0, 0), BuildingBlock: EZIPEK_clean_linker_0, # of connection points: 2
#     Edge 31, Type (0, 0), BuildingBlock: EZIPEK_clean_linker_0, # of connection points: 2
#     Edge 32, Type (0, 0), BuildingBlock: EZIPEK_clean_linker_0, # of connection points: 2
#     Edge 33, Type (0, 0), BuildingBlock: EZIPEK_clean_linker_0, # of connection points: 2
#     Edge 34, Type (0, 0), BuildingBlock: EZIPEK_clean_linker_0, # of connection points: 2
#     Edge 35, Type (0, 0), BuildingBlock: EZIPEK_clean_linker_0, # of connection points: 2
# Relax obj value: 0.910
# Max RMSD: 0.301
# Mean RMSD: 0.301
data_MOF--net-qtz-a--node1-UXUYUI_clean_sbu_0--edge1-EZIPEK_clean_linker_0
_symmetry_space_group_name_H-M    P1
_symmetry_Int_Tables_number       1
_symmetry_cell_setting            triclinic
loop_
_symmetry_equiv_pos_as_xyz
'x, y, z'
_cell_length_a     61.067795
_cell_length_b     61.068855
_cell_length_c     34.794116
_cell_angle_alpha  89.991362
_cell_angle_beta   90.000337
_cell_angle_gamma 120.01096
loop_
_atom_site_label
_atom_site_type_symbol
_atom_site_fract_x
_atom_site_fract_y
_atom_site_fract_z
_atom_type_partial_charge
Li0 Li 0.418 0.05724 0.16836 0.0
Li1 Li 0.44251 0.10224 0.19497 0.0
Li2 Li 0.46363 0.08388 0.15844 0.0
Li3 Li 0.44756 0.06878 0.22061 0.0
C4 C 0.44245 0.0978 0.10425 0.0
N5 N 0.45616 0.11375 0.02925 0.0
C6 C 0.45743 0.12355 0.09596 0.0
C7 C 0.43437 0.08018 0.07433 0.0
C8 C 0.46413 0.13124 0.05788 0.0
C9 C 0.44157 0.08861 0.03664 0.0
C10 C 0.40526 0.05689 0.25288 0.0
C11 C 0.40122 0.05479 0.32189 0.0
N12 N 0.38636 0.02922 0.31961 0.0
C13 C 0.38984 0.03063 0.25116 0.0
C14 C 0.41092 0.06913 0.28845 0.0
C15 C 0.3805 0.01696 0.28525 0.0
C16 C 0.3898 0.01575 0.12185 0.0
N17 N 0.38892 0.03493 0.14012 0.0
C18 C 0.35591 0.03088 0.09861 0.0
C19 C 0.37185 0.04208 0.13021 0.0
C20 C 0.35841 0.0129 0.07688 0.0
C21 C 0.37456 0.00437 0.0899 0.0
H22 H 0.40407 0.01106 0.12965 0.0
H23 H 0.37219 0.05795 0.14461 0.0
C24 C 0.46374 0.15445 0.1918 0.0
N25 N 0.44153 0.13248 0.19663 0.0
C26 C 0.4637 0.17661 0.18259 0.0
C27 C 0.41793 0.1533 0.18506 0.0
C28 C 0.41885 0.13151 0.19415 0.0
C29 C 0.44058 0.1759 0.17817 0.0
H30 H 0.48141 0.15439 0.19234 0.0
H31 H 0.40153 0.11354 0.19691 0.0
C32 C 0.46088 0.03877 0.17598 0.0
N33 N 0.49356 0.01988 0.18091 0.0
C34 C 0.48605 0.05451 0.18703 0.0
C35 C 0.45238 0.01338 0.16749 0.0
C36 C 0.50229 0.04465 0.18911 0.0
C37 C 0.46916 0.00417 0.1703 0.0
C38 C 0.48913 0.1179 0.23625 0.0
C39 C 0.51423 0.12351 0.23966 0.0
C40 C 0.47912 0.12744 0.2633 0.0
C41 C 0.5288 0.13831 0.27045 0.0
C42 C 0.49435 0.14226 0.29358 0.0
N43 N 0.51865 0.1473 0.29653 0.0
C44 C 0.50945 0.11547 0.11917 0.0
C45 C 0.4841 0.07428 0.09326 0.0
C46 C 0.52674 0.12197 0.08904 0.0
N47 N 0.48863 0.09201 0.12046 0.0
C48 C 0.50077 0.07998 0.06266 0.0
C49 C 0.52219 0.10411 0.06029 0.0
H50 H 0.51232 0.12921 0.14111 0.0
H51 H 0.46718 0.05591 0.0949 0.0
C52 C 0.44534 0.02878 0.26226 0.0
N53 N 0.45415 0.05403 0.26552 0.0
C54 C 0.4564 0.01749 0.2834 0.0
C55 C 0.48145 0.05692 0.31706 0.0
C56 C 0.4704 0.06769 0.29433 0.0
C57 C 0.47597 0.03218 0.3091 0.0
H58 H 0.43152 0.01794 0.24046 0.0
H59 H 0.47633 0.08734 0.29809 0.0
O60 O 0.43621 0.08984 0.1415 0.0
O61 O 0.4151 0.07043 0.21986 0.0
O62 O 0.44452 0.04797 0.17373 0.0
O63 O 0.47479 0.10375 0.20592 0.0
H64 H 0.46405 0.13746 0.11865 0.0
H65 H 0.42304 0.06017 0.08013 0.0
H66 H 0.47579 0.1511 0.0511 0.0
H67 H 0.43566 0.07515 0.01328 0.0
H68 H 0.40553 0.06399 0.34965 0.0
H69 H 0.38538 0.02089 0.2238 0.0
H70 H 0.42275 0.08945 0.29027 0.0
H71 H 0.36867 0.9966 0.28439 0.0
H72 H 0.34354 0.03777 0.08915 0.0
H73 H 0.37683 0.99048 0.0737 0.0
H74 H 0.48142 0.19382 0.17715 0.0
H75 H 0.39983 0.15232 0.18164 0.0
H76 H 0.49303 0.07414 0.19384 0.0
H77 H 0.43294 0.0008 0.15923 0.0
H78 H 0.52186 0.05671 0.19722 0.0
H79 H 0.46278 0.98453 0.16402 0.0
H80 H 0.52238 0.11654 0.21874 0.0
H81 H 0.45978 0.12331 0.26115 0.0
H82 H 0.54821 0.14271 0.27354 0.0
H83 H 0.48682 0.14968 0.31478 0.0
H84 H 0.54323 0.14072 0.08784 0.0
H85 H 0.49689 0.06585 0.04082 0.0
H86 H 0.45124 0.99809 0.27733 0.0
H87 H 0.49603 0.06853 0.33756 0.0
Li88 Li 0.38008 0.45189 0.56547 0.0
Li89 Li 0.3831 0.47113 0.50327 0.0
Li90 Li 0.34191 0.44674 0.5366 0.0
Li91 Li 0.36253 0.42438 0.5084 0.0
C92 C 0.38673 0.50171 0.56966 0.0
N93 N 0.41682 0.54757 0.60554 0.0
C94 C 0.41236 0.51615 0.56038 0.0
C95 C 0.37628 0.51079 0.59669 0.0
C96 C 0.42729 0.53923 0.57894 0.0
C97 C 0.39184 0.53397 0.61467 0.0
C98 C 0.42288 0.4591 0.50953 0.0
C99 C 0.45473 0.45941 0.46802 0.0
N100 N 0.4731 0.47709 0.49095 0.0
C101 C 0.44215 0.47742 0.53251 0.0
C102 C 0.42926 0.45008 0.47692 0.0
C103 C 0.46738 0.4862 0.52274 0.0
C104 C 0.41419 0.44565 0.60891 0.0
N105 N 0.39936 0.45635 0.61085 0.0
C106 C 0.42452 0.48358 0.66175 0.0
C107 C 0.40294 0.47359 0.63852 0.0
C108 C 0.4424 0.47594 0.6553 0.0
C109 C 0.43619 0.45544 0.63079 0.0
H110 H 0.41069 0.43176 0.5869 0.0
H111 H 0.39047 0.48132 0.64021 0.0
C112 C 0.38585 0.50839 0.45368 0.0
N113 N 0.39974 0.49815 0.46698 0.0
C114 C 0.39449 0.52514 0.4226 0.0
C115 C 0.43211 0.52148 0.42081 0.0
C116 C 0.4228 0.50491 0.45187 0.0
C117 C 0.41756 0.53117 0.40531 0.0
H118 H 0.36751 0.50261 0.46613 0.0
H119 H 0.43373 0.49692 0.46274 0.0
C120 C 0.33521 0.41364 0.59615 0.0
N121 N 0.31221 0.40203 0.66746 0.0
C122 C 0.32403 0.38893 0.6102 0.0
C123 C 0.33467 0.43245 0.61834 0.0
C124 C 0.3125 0.38343 0.64633 0.0
C125 C 0.32297 0.4262 0.65432 0.0
C126 C 0.34803 0.44603 0.44438 0.0
C127 C 0.32797 0.44804 0.42908 0.0
C128 C 0.36553 0.4449 0.41977 0.0
C129 C 0.32556 0.44859 0.38922 0.0
C130 C 0.36236 0.44532 0.38009 0.0
N131 N 0.34262 0.44716 0.36575 0.0
C132 C 0.3093 0.46573 0.53165 0.0
C133 C 0.28904 0.42107 0.53836 0.0
C134 C 0.28633 0.46422 0.52287 0.0
N135 N 0.31019 0.44429 0.53851 0.0
C136 C 0.26563 0.4187 0.52984 0.0
C137 C 0.26439 0.44044 0.52106 0.0
H138 H 0.32665 0.48378 0.53074 0.0
H139 H 0.29061 0.40436 0.54265 0.0
C140 C 0.3737 0.38882 0.47431 0.0
N141 N 0.35598 0.39589 0.47831 0.0
C142 C 0.37368 0.37563 0.44148 0.0
C143 C 0.33568 0.37504 0.42009 0.0
C144 C 0.33609 0.38762 0.45372 0.0
C145 C 0.35554 0.3704 0.41273 0.0
H146 H 0.38927 0.39565 0.49442 0.0
H147 H 0.32212 0.39334 0.45795 0.0
O148 O 0.3717 0.479 0.552 0.0
O149 O 0.39796 0.44993 0.51886 0.0
O150 O 0.34657 0.41923 0.56082 0.0
O151 O 0.35031 0.44485 0.48332 0.0
H152 H 0.42061 0.50971 0.53892 0.0
H153 H 0.35639 0.49993 0.60392 0.0
H154 H 0.4472 0.55054 0.57216 0.0
H155 H 0.38406 0.54114 0.63588 0.0
H156 H 0.45988 0.45263 0.44281 0.0
H157 H 0.4378 0.48487 0.55766 0.0
H158 H 0.41476 0.43629 0.45832 0.0
H159 H 0.48241 0.50026 0.54045 0.0
H160 H 0.42866 0.49912 0.681 0.0
H161 H 0.44946 0.44888 0.62561 0.0
H162 H 0.3829 0.53242 0.41114 0.0
H163 H 0.45007 0.52598 0.40808 0.0
H164 H 0.32428 0.37416 0.59334 0.0
H165 H 0.34313 0.45165 0.60797 0.0
H166 H 0.30377 0.36438 0.65758 0.0
H167 H 0.32242 0.44057 0.67179 0.0
H168 H 0.31435 0.44903 0.44783 0.0
H169 H 0.38125 0.44352 0.43126 0.0
H170 H 0.31007 0.45007 0.37694 0.0
H171 H 0.37567 0.44432 0.36067 0.0
H172 H 0.2858 0.48125 0.51597 0.0
H173 H 0.24891 0.40012 0.52837 0.0
H174 H 0.38918 0.37213 0.43658 0.0
H175 H 0.32137 0.37113 0.39854 0.0
Li176 Li 0.91786 0.3782 0.82578 0.0
Li177 Li 0.93476 0.37884 0.88815 0.0
Li178 Li 0.94441 0.35888 0.83306 0.0
Li179 Li 0.90122 0.33921 0.86339 0.0
C180 C 0.96673 0.41957 0.829 0.0
N181 N 0.99274 0.46993 0.80748 0.0
C182 C 0.96382 0.43755 0.84974 0.0
C183 C 0.9831 0.42731 0.79743 0.0
C184 C 0.97711 0.46287 0.83849 0.0
C185 C 0.99594 0.45281 0.78687 0.0
C186 C 0.88989 0.38246 0.89492 0.0
C187 C 0.86299 0.38372 0.94468 0.0
N188 N 0.8711 0.4083 0.93588 0.0
C189 C 0.89759 0.4076 0.88597 0.0
C190 C 0.87211 0.37028 0.92414 0.0
C191 C 0.88801 0.42039 0.90713 0.0
C192 C 0.88612 0.39418 0.79013 0.0
N193 N 0.90852 0.39449 0.7878 0.0
C194 C 0.9176 0.41555 0.72719 0.0
C195 C 0.92399 0.40451 0.75686 0.0
C196 C 0.89492 0.41592 0.72928 0.0
C197 C 0.87894 0.40506 0.76099 0.0
H198 H 0.87366 0.38516 0.81426 0.0
H199 H 0.94093 0.40324 0.75464 0.0
C200 C 0.97486 0.41689 0.92819 0.0
N201 N 0.94979 0.39999 0.93205 0.0
C202 C 0.98583 0.43926 0.9493 0.0
C203 C 0.94626 0.42421 0.98311 0.0
C204 C 0.9359 0.40222 0.96078 0.0
C205 C 0.97088 0.44377 0.97503 0.0
H206 H 0.98557 0.41442 0.90555 0.0
H207 H 0.91625 0.3881 0.96422 0.0
C208 C 0.90044 0.34106 0.77354 0.0
N209 N 0.87868 0.33525 0.70191 0.0
C210 C 0.87449 0.33201 0.77023 0.0
C211 C 0.91532 0.34712 0.74042 0.0
C212 C 0.86385 0.3292 0.73376 0.0
C213 C 0.90396 0.34407 0.70447 0.0
C214 C 0.93059 0.33606 0.92362 0.0
C215 C 0.94716 0.32874 0.93874 0.0
C216 C 0.91066 0.33391 0.9461 0.0
C217 C 0.94348 0.31937 0.97625 0.0
C218 C 0.90761 0.32447 0.98347 0.0
N219 N 0.92395 0.31745 0.99766 0.0
C220 C 0.99027 0.36839 0.79766 0.0
C221 C 0.95478 0.32775 0.7884 0.0
C222 C 0.0038 0.36361 0.76982 0.0
N223 N 0.96601 0.35078 0.8055 0.0
C224 C 0.96757 0.32211 0.76042 0.0
C225 C 0.99259 0.34019 0.74992 0.0
H226 H -0.00137 0.38672 0.81135 0.0
H227 H 0.93518 0.31431 0.7947 0.0
C228 C 0.84924 0.30575 0.8699 0.0
N229 N 0.87228 0.30745 0.86908 0.0
C230 C 0.82754 0.28267 0.86241 0.0
C231 C 0.85371 0.26345 0.85547 0.0
C232 C 0.87493 0.28691 0.86304 0.0
C233 C 0.8299 0.26152 0.85391 0.0
H234 H 0.84792 0.32265 0.87324 0.0
H235 H 0.89365 0.28918 0.86137 0.0
O236 O 0.95428 0.39467 0.84013 0.0
O237 O 0.89904 0.36953 0.87457 0.0
O238 O 0.91129 0.34438 0.80904 0.0
O239 O 0.93407 0.34546 0.88708 0.0
H240 H 0.95178 0.43219 0.87472 0.0
H241 H 0.98557 0.41373 0.78085 0.0
H242 H 0.97508 0.47688 0.85461 0.0
H243 H 0.00849 0.45899 0.7623 0.0
H244 H 0.84943 0.37458 0.96759 0.0
H245 H 0.91046 0.41706 0.86251 0.0
H246 H 0.86554 0.3507 0.93115 0.0
H247 H 0.89394 0.43989 0.90057 0.0
H248 H 0.93006 0.42348 0.70266 0.0
H249 H 0.86115 0.40488 0.76296 0.0
H250 H 0.00501 0.4539 0.94283 0.0
H251 H 0.9344 0.42705 0.00329 0.0
H252 H 0.86274 0.32748 0.79554 0.0
H253 H 0.93549 0.35444 0.74247 0.0
H254 H 0.8438 0.3223 0.73078 0.0
H255 H 0.91527 0.34881 0.67861 0.0
H256 H 0.96271 0.33034 0.92166 0.0
H257 H 0.89772 0.3395 0.93482 0.0
H258 H 0.95616 0.31364 0.98835 0.0
H259 H 0.89227 0.32273 0.0012 0.0
H260 H 0.02232 0.37907 0.76246 0.0
H261 H 0.95684 0.30414 0.74646 0.0
H262 H 0.80932 0.28164 0.86097 0.0
H263 H 0.85597 0.24738 0.84865 0.0
Li264 Li 0.52623 0.90596 0.16725 0.0
Li265 Li 0.54323 0.92763 0.22735 0.0
Li266 Li 0.5718 0.93676 0.17235 0.0
Li267 Li 0.55438 0.89787 0.2083 0.0
C268 C 0.55037 0.96786 0.18117 0.0
N269 N 0.56559 0.0183 0.193 0.0
C270 C 0.57242 0.9834 0.20196 0.0
C271 C 0.53611 0.97809 0.1664 0.0
C272 C 0.57975 0.00879 0.2077 0.0
C273 C 0.54415 0.00362 0.17259 0.0
C274 C 0.50036 0.8852 0.24407 0.0
C275 C 0.48286 0.87555 0.30807 0.0
N276 N 0.46157 0.87487 0.29486 0.0
C277 C 0.47815 0.88404 0.23102 0.0
C278 C 0.50262 0.8806 0.2828 0.0
C279 C 0.45881 0.87893 0.25719 0.0
C280 C 0.49252 0.86896 0.11535 0.0
N281 N 0.49942 0.89177 0.13159 0.0
C282 C 0.47274 0.89832 0.08891 0.0
C283 C 0.4895 0.90616 0.11974 0.0
C284 C 0.46626 0.87551 0.07039 0.0
C285 C 0.47566 0.86029 0.08444 0.0
H286 H 0.50098 0.85809 0.1253 0.0
H287 H 0.49539 0.92415 0.13328 0.0
C288 C 0.54688 0.95422 0.29891 0.0
N289 N 0.53373 0.9431 0.26623 0.0
C290 C 0.54043 0.96939 0.32102 0.0
C291 C 0.50676 0.96034 0.27597 0.0
C292 C 0.51362 0.94534 0.25519 0.0
C293 C 0.52076 0.97324 0.30844 0.0
H294 H 0.56309 0.95246 0.30661 0.0
H295 H 0.50392 0.93679 0.22864 0.0
C296 C 0.55836 0.90144 0.11358 0.0
N297 N 0.5636 0.89888 0.03511 0.0
C298 C 0.56723 0.8861 0.09858 0.0
C299 C 0.55237 0.91566 0.0887 0.0
C300 C 0.5697 0.88502 0.05881 0.0
C301 C 0.55515 0.9141 0.04912 0.0
C302 C 0.59242 0.92754 0.25197 0.0
C303 C 0.61757 0.93525 0.24309 0.0
C304 C 0.58185 0.91434 0.28603 0.0
C305 C 0.63156 0.92906 0.26808 0.0
C306 C 0.59644 0.90849 0.31027 0.0
N307 N 0.62078 0.91588 0.30084 0.0
C308 C 0.5953 0.97451 0.11577 0.0
C309 C 0.61793 0.95367 0.13242 0.0
C310 C 0.61077 0.98551 0.08396 0.0
N311 N 0.59879 0.95856 0.1389 0.0
C312 C 0.6341 0.96454 0.10093 0.0
C313 C 0.62985 0.9799 0.07562 0.0
H314 H 0.57932 0.97719 0.11998 0.0
H315 H 0.61952 0.93994 0.15001 0.0
C316 C 0.54043 0.84857 0.22867 0.0
N317 N 0.56045 0.87118 0.21817 0.0
C318 C 0.54102 0.82633 0.22224 0.0
C319 C 0.58356 0.8514 0.19731 0.0
C320 C 0.58205 0.87313 0.20379 0.0
C321 C 0.56239 0.82772 0.20493 0.0
H322 H 0.52319 0.84761 0.23862 0.0
H323 H 0.59711 0.89124 0.19395 0.0
O324 O 0.54225 0.94263 0.17645 0.0
O325 O 0.51964 0.89052 0.21895 0.0
O326 O 0.55536 0.90226 0.15244 0.0
O327 O 0.57832 0.93319 0.22772 0.0
H328 H 0.58377 0.97601 0.21375 0.0
H329 H 0.51894 0.96647 0.15044 0.0
H330 H 0.59669 0.02095 0.22387 0.0
H331 H 0.53335 0.01175 0.16117 0.0
H332 H 0.48444 0.87212 0.33817 0.0
H333 H 0.47597 0.88738 0.20112 0.0
H334 H 0.51941 0.88086 0.29325 0.0
H335 H 0.44163 0.87823 0.24755 0.0
H336 H 0.46566 0.91036 0.07865 0.0
H337 H 0.4709 0.84257 0.07058 0.0
H338 H 0.55161 0.97925 0.34599 0.0
H339 H 0.49158 0.96307 0.26547 0.0
H340 H 0.57211 0.87512 0.11747 0.0
H341 H 0.54563 0.92777 0.09981 0.0
H342 H 0.57646 0.87315 0.04679 0.0
H343 H 0.55053 0.92496 0.02953 0.0
H344 H 0.62621 0.94592 0.21724 0.0
H345 H 0.56258 0.90866 0.29359 0.0
H346 H 0.65101 0.93477 0.26146 0.0
H347 H 0.58843 0.89812 0.33661 0.0
H348 H 0.60698 0.9972 0.06477 0.0
H349 H 0.64866 0.95982 0.09503 0.0
H350 H 0.52435 0.80821 0.228 0.0
H351 H 0.60012 0.85288 0.18341 0.0
Li352 Li 0.62751 0.56703 0.51068 0.0
Li353 Li 0.64967 0.54736 0.54088 0.0
Li354 Li 0.61114 0.52097 0.50283 0.0
Li355 Li 0.60993 0.53728 0.56486 0.0
C356 C 0.64584 0.54874 0.44749 0.0
N357 N 0.6506 0.54633 0.36889 0.0
C358 C 0.66676 0.54836 0.4321 0.0
C359 C 0.62729 0.54786 0.42294 0.0
C360 C 0.66885 0.54717 0.39228 0.0
C361 C 0.63003 0.54662 0.38328 0.0
C362 C 0.663 0.58794 0.58143 0.0
C363 C 0.69419 0.59706 0.63065 0.0
N364 N 0.70916 0.62026 0.61481 0.0
C365 C 0.67855 0.61194 0.56582 0.0
C366 C 0.67072 0.58049 0.61429 0.0
C367 C 0.70188 0.62798 0.58305 0.0
C368 C 0.61524 0.60139 0.47157 0.0
N369 N 0.63347 0.59549 0.47971 0.0
C370 C 0.65709 0.61787 0.42417 0.0
C371 C 0.65505 0.60514 0.45846 0.0
C372 C 0.63718 0.62159 0.41287 0.0
C373 C 0.61703 0.61505 0.43841 0.0
H374 H 0.59824 0.59372 0.48849 0.0
H375 H 0.66944 0.60048 0.4658 0.0
C376 C 0.68562 0.53278 0.55692 0.0
N377 N 0.68255 0.55235 0.5454 0.0
C378 C 0.70818 0.53309 0.54897 0.0
C379 C 0.72434 0.57432 0.51969 0.0
C380 C 0.70143 0.57312 0.52786 0.0
C381 C 0.7274 0.55371 0.52906 0.0
H382 H 0.66991 0.51615 0.56953 0.0
H383 H 0.69797 0.58778 0.5174 0.0
C384 C 0.57585 0.54703 0.52371 0.0
N385 N 0.54242 0.56387 0.54028 0.0
C386 C 0.5818 0.56557 0.55184 0.0
C387 C 0.5528 0.53702 0.50419 0.0
C388 C 0.56468 0.57384 0.55972 0.0
C389 C 0.5362 0.54582 0.5129 0.0
C390 C 0.60969 0.49464 0.5788 0.0
C391 C 0.58847 0.4717 0.56861 0.0
C392 C 0.61835 0.4987 0.61674 0.0
C393 C 0.57592 0.4533 0.59684 0.0
C394 C 0.60527 0.47984 0.64412 0.0
N395 N 0.5845 0.45774 0.6337 0.0
C396 C 0.61046 0.48426 0.45312 0.0
C397 C 0.57463 0.48966 0.44937 0.0
C398 C 0.60204 0.46802 0.42146 0.0
N399 N 0.5969 0.49496 0.46584 0.0
C400 C 0.56558 0.47367 0.41764 0.0
C401 C 0.57966 0.46319 0.40295 0.0
H402 H 0.62832 0.48919 0.4666 0.0
H403 H 0.56449 0.49867 0.45991 0.0
C404 C 0.59042 0.54101 0.63971 0.0
N405 N 0.58683 0.52775 0.6066 0.0
C406 C 0.56971 0.53535 0.66355 0.0
C407 C 0.54286 0.50187 0.61959 0.0
C408 C 0.56384 0.50804 0.59694 0.0
C409 C 0.54549 0.51625 0.65237 0.0
H410 H 0.60886 0.55694 0.64621 0.0
H411 H 0.56147 0.49832 0.56996 0.0
O412 O 0.64347 0.54974 0.48647 0.0
O413 O 0.64023 0.57189 0.56477 0.0
O414 O 0.59183 0.53779 0.51667 0.0
O415 O 0.62201 0.51299 0.55168 0.0
H416 H 0.68123 0.54908 0.45077 0.0
H417 H 0.6109 0.54802 0.43446 0.0
H418 H 0.68498 0.54691 0.37997 0.0
H419 H 0.61577 0.54576 0.36392 0.0
H420 H 0.7005 0.59149 0.65596 0.0
H421 H 0.67274 0.61805 0.54056 0.0
H422 H 0.65877 0.56205 0.62687 0.0
H423 H 0.71419 0.64656 0.57117 0.0
H424 H 0.67296 0.62279 0.40521 0.0
H425 H 0.60144 0.61785 0.43053 0.0
H426 H 0.71005 0.51684 0.55612 0.0
H427 H 0.7388 0.59028 0.50382 0.0
H428 H 0.59942 0.57357 0.56745 0.0
H429 H 0.54764 0.52254 0.48261 0.0
H430 H 0.56909 0.58818 0.58136 0.0
H431 H 0.51833 0.53824 0.49795 0.0
H432 H 0.58161 0.46825 0.5393 0.0
H433 H 0.63488 0.51628 0.62497 0.0
H434 H 0.55935 0.43552 0.58945 0.0
H435 H 0.61164 0.48278 0.67367 0.0
H436 H 0.61323 0.46011 0.41063 0.0
H437 H 0.5482 0.47017 0.40389 0.0
H438 H 0.57221 0.54685 0.68866 0.0
H439 H 0.52438 0.48717 0.61008 0.0
Li440 Li 0.05494 0.63379 0.83615 0.0
Li441 Li 0.09664 0.65617 0.86863 0.0
Li442 Li 0.08622 0.61881 0.82901 0.0
Li443 Li 0.06742 0.61569 0.88985 0.0
C444 C 0.10092 0.656 0.77908 0.0
N445 N 0.12562 0.66438 0.70946 0.0
C446 C 0.1273 0.67013 0.77752 0.0
C447 C 0.08711 0.64591 0.74528 0.0
C448 C 0.13944 0.67422 0.74202 0.0
C449 C 0.09994 0.65039 0.71036 0.0
C450 C 0.06635 0.66733 0.90756 0.0
C451 C 0.08586 0.6991 0.95684 0.0
N452 N 0.07603 0.71249 0.94034 0.0
C453 C 0.0562 0.68125 0.89131 0.0
C454 C 0.08107 0.67615 0.9408 0.0
C455 C 0.0614 0.7041 0.90823 0.0
C456 C 0.00873 0.61965 0.79574 0.0
N457 N 0.03246 0.63865 0.80408 0.0
C458 C 0.03354 0.66094 0.74705 0.0
C459 C 0.0442 0.65981 0.78192 0.0
C460 C 0.0103 0.64037 0.73581 0.0
C461 C 0.997 0.62037 0.76172 0.0
H462 H -0.00021 0.6029 0.81331 0.0
H463 H 0.06314 0.67456 0.78913 0.0
C464 C 0.14654 0.69331 0.88552 0.0
N465 N 0.12344 0.68949 0.87511 0.0
C466 C 0.16814 0.71654 0.87814 0.0
C467 C 0.14149 0.73188 0.85226 0.0
C468 C 0.12046 0.70824 0.85946 0.0
C469 C 0.16563 0.7357 0.86013 0.0
H470 H 0.14836 0.67772 0.89649 0.0
H471 H 0.10204 0.70423 0.84964 0.0
C472 C 0.02653 0.57931 0.84714 0.0
N473 N 0.97899 0.5388 0.86212 0.0
C474 C 0.01022 0.58206 0.87233 0.0
C475 C 0.01878 0.55588 0.82996 0.0
C476 C 0.98626 0.56135 0.87951 0.0
C477 C 0.99461 0.53568 0.83768 0.0
C478 C 0.1109 0.61822 0.90701 0.0
C479 C 0.11441 0.59776 0.89894 0.0
C480 C 0.11441 0.62766 0.94444 0.0
C481 C 0.1209 0.58674 0.92873 0.0
C482 C 0.1209 0.61611 0.97345 0.0
N483 N 0.12395 0.59604 0.96507 0.0
C484 C 0.12277 0.6112 0.78981 0.0
C485 C 0.0809 0.58964 0.76512 0.0
C486 C 0.13116 0.60203 0.7598 0.0
N487 N 0.09803 0.60486 0.79173 0.0
C488 C 0.08842 0.58009 0.73478 0.0
C489 C 0.11379 0.58643 0.7319 0.0
H490 H 0.13598 0.62371 0.81117 0.0
H491 H 0.06154 0.58552 0.76697 0.0
C492 C 0.04239 0.59275 0.96256 0.0
N493 N 0.05372 0.59113 0.92984 0.0
C494 C 0.02828 0.57114 0.98527 0.0
C495 C 0.03908 0.54747 0.94097 0.0
C496 C 0.05292 0.5693 0.91951 0.0
C497 C 0.0258 0.54801 0.97335 0.0
H498 H 0.04303 0.6103 0.96973 0.0
H499 H 0.06159 0.56843 0.8929 0.0
O500 O 0.08874 0.65136 0.81369 0.0
O501 O 0.06163 0.64503 0.89124 0.0
O502 O 0.05024 0.59926 0.84023 0.0
O503 O 0.10431 0.6291 0.87828 0.0
H504 H 0.13829 0.67764 0.80348 0.0
H505 H 0.06672 0.63435 0.74605 0.0
H506 H 0.15985 0.68514 0.74039 0.0
H507 H 0.08949 0.64262 0.684 0.0
H508 H 0.09738 0.70625 0.98241 0.0
H509 H 0.04458 0.67456 0.86577 0.0
H510 H 0.0888 0.66544 0.95396 0.0
H511 H 0.05382 0.71516 0.89583 0.0
H512 H 0.04428 0.67661 0.72766 0.0
H513 H 0.97898 0.60423 0.75378 0.0
H514 H 0.18666 0.71904 0.88421 0.0
H515 H 0.13912 0.74632 0.83794 0.0
H516 H 0.016 0.60001 0.88615 0.0
H517 H 0.03126 0.55329 0.81081 0.0
H518 H 0.97344 0.56323 0.89886 0.0
H519 H 0.98825 0.51757 0.82412 0.0
H520 H 0.11182 0.59027 0.87007 0.0
H521 H 0.11205 0.64365 0.95103 0.0
H522 H 0.12346 0.57075 0.92299 0.0
H523 H 0.12352 0.62311 0.00262 0.0
H524 H 0.15087 0.60717 0.7581 0.0
H525 H 0.07468 0.56811 0.71349 0.0
H526 H 0.01811 0.57203 0.01015 0.0
H527 H 0.03738 0.52988 0.93093 0.0
Li528 Li 0.88573 0.54544 0.45531 0.0
Li529 Li 0.92795 0.56829 0.485 0.0
Li530 Li 0.9177 0.53684 0.43261 0.0
Li531 Li 0.9003 0.52185 0.49664 0.0
C532 C 0.91596 0.58689 0.40878 0.0
N533 N 0.90975 0.62107 0.36487 0.0
C534 C 0.9241 0.61124 0.42272 0.0
C535 C 0.90504 0.58004 0.3723 0.0
C536 C 0.9207 0.62822 0.40012 0.0
C537 C 0.90194 0.59755 0.35061 0.0
C538 C 0.89051 0.5499 0.54876 0.0
C539 C 0.90397 0.55141 0.61434 0.0
N540 N 0.88192 0.54942 0.62676 0.0
C541 C 0.86799 0.54785 0.56213 0.0
C542 C 0.90862 0.5516 0.57502 0.0
C543 C 0.86399 0.54763 0.6017 0.0
C544 C 0.83501 0.52598 0.46162 0.0
N545 N 0.85604 0.54739 0.44984 0.0
C546 C 0.83439 0.57081 0.45332 0.0
C547 C 0.85605 0.5695 0.44491 0.0
C548 C 0.81306 0.54937 0.46793 0.0
C549 C 0.81313 0.52656 0.471 0.0
H550 H 0.83588 0.50896 0.46663 0.0
H551 H 0.87321 0.58651 0.43725 0.0
C552 C 0.97563 0.60622 0.51619 0.0
N553 N 0.95056 0.59821 0.51277 0.0
C554 C 0.98884 0.6198 0.54873 0.0
C555 C 0.95107 0.6194 0.5706 0.0
C556 C 0.93891 0.60658 0.5371 0.0
C557 C 0.97573 0.62447 0.5778 0.0
H558 H 0.98479 0.60011 0.49584 0.0
H559 H 0.91917 0.60067 0.53298 0.0
C560 C 0.87306 0.49622 0.41587 0.0
N561 N 0.85602 0.46533 0.35198 0.0
C562 C 0.87235 0.473 0.41599 0.0
C563 C 0.8648 0.50361 0.38354 0.0
C564 C 0.86378 0.45769 0.38331 0.0
C565 C 0.85632 0.48775 0.35145 0.0
C566 C 0.96052 0.5476 0.48906 0.0
C567 C 0.97846 0.55742 0.45954 0.0
C568 C 0.96802 0.54514 0.52603 0.0
C569 C 0.00355 0.56439 0.46746 0.0
C570 C 0.99332 0.55249 0.53284 0.0
N571 N 0.0104 0.56182 0.50364 0.0
C572 C 0.94151 0.53769 0.35924 0.0
C573 C 0.93494 0.50703 0.40667 0.0
C574 C 0.95645 0.53069 0.33763 0.0
N575 N 0.93181 0.52622 0.39357 0.0
C576 C 0.94975 0.49969 0.38643 0.0
C577 C 0.96153 0.51226 0.3524 0.0
H578 H 0.939 0.55318 0.34987 0.0
H579 H 0.92731 0.49863 0.43437 0.0
C580 C 0.87081 0.48874 0.5568 0.0
N581 N 0.89155 0.49643 0.53414 0.0
C582 C 0.86707 0.47325 0.58853 0.0
C583 C 0.90507 0.47248 0.57111 0.0
C584 C 0.90807 0.48798 0.53983 0.0
C585 C 0.88478 0.46562 0.5963 0.0
H586 H 0.8578 0.49552 0.55121 0.0
H587 H 0.92413 0.49409 0.52091 0.0
O588 O 0.91946 0.57017 0.43025 0.0
O589 O 0.89472 0.55012 0.5101 0.0
O590 O 0.88181 0.51168 0.44728 0.0
O591 O 0.93572 0.54018 0.48178 0.0
H592 H 0.93282 0.61691 0.45076 0.0
H593 H 0.89912 0.56144 0.36081 0.0
H594 H 0.92676 0.64708 0.41061 0.0
H595 H 0.8934 0.59248 0.32239 0.0
H596 H 0.91788 0.55285 0.63497 0.0
H597 H 0.85375 0.54639 0.54214 0.0
H598 H 0.92611 0.55315 0.56507 0.0
H599 H 0.84664 0.54605 0.61248 0.0
H600 H 0.8348 0.5887 0.45099 0.0
H601 H 0.7969 0.50977 0.48238 0.0
H602 H 0.00808 0.62389 0.55325 0.0
H603 H 0.94055 0.62308 0.59222 0.0
H604 H 0.87855 0.46699 0.44096 0.0
H605 H 0.86491 0.52137 0.38328 0.0
H606 H 0.86329 0.43974 0.38285 0.0
H607 H 0.84996 0.49325 0.32613 0.0
H608 H 0.97321 0.55993 0.43092 0.0
H609 H 0.95448 0.53769 0.5493 0.0
H610 H 0.01759 0.57195 0.44487 0.0
H611 H -0.00063 0.55073 0.56133 0.0
H612 H 0.96539 0.54072 0.31138 0.0
H613 H 0.95337 0.48546 0.39856 0.0
H614 H 0.85122 0.46812 0.60761 0.0
H615 H 0.91893 0.46672 0.57649 0.0
Li616 Li 0.37926 0.92182 0.78207 0.0
Li617 Li 0.37801 0.90076 0.84121 0.0
Li618 Li 0.33865 0.88887 0.8006 0.0
Li619 Li 0.35996 0.92874 0.83638 0.0
C620 C 0.38348 0.88146 0.76334 0.0
N621 N 0.41413 0.87522 0.71128 0.0
C622 C 0.40445 0.88004 0.77615 0.0
C623 C 0.37789 0.87928 0.72409 0.0
C624 C 0.41976 0.87698 0.74937 0.0
C625 C 0.39368 0.87627 0.69821 0.0
C626 C 0.41121 0.96296 0.82714 0.0
C627 C 0.45241 0.00034 0.83193 0.0
N628 N 0.44316 0.0141 0.81493 0.0
C629 C 0.40213 0.9775 0.80974 0.0
C630 C 0.43658 0.97446 0.83829 0.0
C631 C 0.41857 0.0033 0.8038 0.0
C632 C 0.40187 0.94978 0.70961 0.0
N633 N 0.40386 0.93872 0.74244 0.0
C634 C 0.4482 0.95632 0.73287 0.0
C635 C 0.42633 0.94125 0.75359 0.0
C636 C 0.44707 0.96912 0.70034 0.0
C637 C 0.42353 0.96519 0.68773 0.0
H638 H 0.38392 0.9477 0.70126 0.0
H639 H 0.42752 0.93264 0.78006 0.0
C640 C 0.38416 0.86428 0.88324 0.0
N641 N 0.39319 0.88933 0.87678 0.0
C642 C 0.39445 0.85663 0.91267 0.0
C643 C 0.4231 0.90072 0.92757 0.0
C644 C 0.41234 0.90747 0.89797 0.0
C645 C 0.41389 0.87509 0.93539 0.0
H646 H 0.36865 0.85035 0.86611 0.0
H647 H 0.4187 0.92718 0.8926 0.0
C648 C 0.34019 0.92621 0.74688 0.0
N649 N 0.32663 0.93259 0.67376 0.0
C650 C 0.34178 0.94908 0.73652 0.0
C651 C 0.33145 0.9065 0.72023 0.0
C652 C 0.33491 0.95196 0.69936 0.0
C653 C 0.32475 0.91011 0.68336 0.0
C654 C 0.33205 0.8926 0.88973 0.0
C655 C 0.30682 0.88677 0.88862 0.0
C656 C 0.3444 0.89685 0.92508 0.0
C657 C 0.29428 0.8851 0.92301 0.0
C658 C 0.33123 0.89511 0.95883 0.0
N659 N 0.30663 0.88923 0.95711 0.0
C660 C 0.30374 0.83881 0.80624 0.0
C661 C 0.28597 0.86355 0.785 0.0
C662 C 0.27979 0.81824 0.81299 0.0
N663 N 0.30631 0.86097 0.79337 0.0
C664 C 0.26156 0.84331 0.79105 0.0
C665 C 0.25853 0.82073 0.80642 0.0
H666 H 0.32038 0.83776 0.8138 0.0
H667 H 0.28869 0.88176 0.77631 0.0
C668 C 0.37043 0.95904 0.89985 0.0
N669 N 0.35395 0.94955 0.87001 0.0
C670 C 0.36584 0.97103 0.93014 0.0
C671 C 0.32756 0.96381 0.89824 0.0
C672 C 0.33291 0.95185 0.86831 0.0
C673 C 0.34402 0.97308 0.92983 0.0
H674 H 0.38655 0.95624 0.90094 0.0
H675 H 0.31984 0.9435 0.84461 0.0
O676 O 0.36854 0.88486 0.7892 0.0
O677 O 0.39568 0.93743 0.83195 0.0
O678 O 0.34686 0.92314 0.78314 0.0
O679 O 0.34454 0.89395 0.8564 0.0
H680 H 0.40908 0.88164 0.80638 0.0
H681 H 0.36169 0.88012 0.71358 0.0
H682 H 0.43615 0.87608 0.75887 0.0
H683 H 0.38969 0.87478 0.66773 0.0
H684 H 0.47205 0.00947 0.84043 0.0
H685 H 0.38266 0.96898 0.8007 0.0
H686 H 0.44406 0.96348 0.85131 0.0
H687 H 0.41179 0.01473 0.79026 0.0
H688 H 0.46613 0.95914 0.74342 0.0
H689 H 0.42221 0.97505 0.66275 0.0
H690 H 0.38703 0.8367 0.91826 0.0
H691 H 0.43805 0.91531 0.94482 0.0
H692 H 0.34831 0.96446 0.75693 0.0
H693 H 0.3297 0.88857 0.72798 0.0
H694 H 0.33615 0.96959 0.69087 0.0
H695 H 0.31801 0.89503 0.66241 0.0
H696 H 0.29704 0.88361 0.86151 0.0
H697 H 0.36396 0.90153 0.92646 0.0
H698 H 0.27474 0.88055 0.9226 0.0
H699 H 0.34056 0.89838 0.9864 0.0
H700 H 0.27786 0.80099 0.82501 0.0
H701 H 0.24536 0.84567 0.78605 0.0
H702 H 0.3788 0.97795 0.95426 0.0
H703 H 0.31053 0.96512 0.89742 0.0
Li704 Li 0.47399 0.38038 0.16372 0.0
Li705 Li 0.45661 0.38389 0.10265 0.0
Li706 Li 0.4273 0.36272 0.15722 0.0
Li707 Li 0.44786 0.34351 0.12221 0.0
C708 C 0.4478 0.41506 0.1637 0.0
N709 N 0.43205 0.44879 0.18405 0.0
C710 C 0.43732 0.42381 0.1361 0.0
C711 C 0.45004 0.42335 0.20174 0.0
C712 C 0.42964 0.44097 0.14691 0.0
C713 C 0.44193 0.44035 0.21145 0.0
C714 C 0.49991 0.38635 0.0856 0.0
C715 C 0.51454 0.39435 0.01999 0.0
N716 N 0.53598 0.41546 0.03158 0.0
C717 C 0.52218 0.40797 0.09695 0.0
C718 C 0.49612 0.37932 0.04689 0.0
C719 C 0.54016 0.42249 0.06917 0.0
C720 C 0.51085 0.38165 0.21465 0.0
N721 N 0.5007 0.39521 0.19977 0.0
C722 C 0.52364 0.4287 0.24427 0.0
C723 C 0.50748 0.41871 0.21286 0.0
C724 C 0.53307 0.41445 0.2618 0.0
C725 C 0.52736 0.39107 0.24593 0.0
H726 H 0.50526 0.3631 0.20331 0.0
H727 H 0.49962 0.42929 0.19977 0.0
C728 C 0.45332 0.40601 0.03005 0.0
N729 N 0.46555 0.40884 0.06399 0.0
C730 C 0.45914 0.42732 0.00759 0.0
C731 C 0.49054 0.45335 0.05483 0.0
C732 C 0.48431 0.43177 0.07602 0.0
C733 C 0.4773 0.45136 0.02099 0.0
H734 H 0.43828 0.38752 0.02148 0.0
H735 H 0.49338 0.43344 0.10341 0.0
C736 C 0.44864 0.34269 0.21569 0.0
N737 N 0.45471 0.33426 0.29193 0.0
C738 C 0.45326 0.32323 0.22574 0.0
C739 C 0.44725 0.35798 0.24438 0.0
C740 C 0.45632 0.31928 0.26444 0.0
C741 C 0.45023 0.35332 0.28277 0.0
C742 C 0.40727 0.33108 0.08265 0.0
C743 C 0.38383 0.3135 0.09809 0.0
C744 C 0.41508 0.32602 0.04767 0.0
C745 C 0.36872 0.29087 0.07849 0.0
C746 C 0.39943 0.30316 0.02895 0.0
N747 N 0.37678 0.2862 0.04464 0.0
C748 C 0.3903 0.37192 0.19378 0.0
C749 C 0.39095 0.33487 0.21194 0.0
C750 C 0.37731 0.37088 0.22738 0.0
N751 N 0.39858 0.35521 0.18841 0.0
C752 C 0.3785 0.33338 0.24625 0.0
C753 C 0.37313 0.35255 0.25524 0.0
H754 H 0.39565 0.38734 0.17397 0.0
H755 H 0.39699 0.3213 0.20626 0.0
C756 C 0.46077 0.30712 0.09685 0.0
N757 N 0.44277 0.31091 0.1134 0.0
C758 C 0.45982 0.28391 0.10147 0.0
C759 C 0.42124 0.2689 0.13821 0.0
C760 C 0.42293 0.29227 0.13295 0.0
C761 C 0.44031 0.26496 0.12353 0.0
H762 H 0.47677 0.32263 0.08265 0.0
H763 H 0.40958 0.29627 0.14718 0.0
O764 O 0.45592 0.39859 0.1536 0.0
O765 O 0.48188 0.37218 0.11225 0.0
O766 O 0.44565 0.34684 0.17789 0.0
O767 O 0.42249 0.35314 0.10171 0.0
H768 H 0.43479 0.41722 0.10675 0.0
H769 H 0.45781 0.41665 0.22367 0.0
H770 H 0.42159 0.44793 0.12581 0.0
H771 H 0.4435 0.44683 0.2408 0.0
H772 H 0.51179 0.38925 0.98988 0.0
H773 H 0.52542 0.41362 0.12683 0.0
H774 H 0.47905 0.36253 0.03773 0.0
H775 H 0.5574 0.43938 0.07748 0.0
H776 H 0.52803 0.44697 0.25565 0.0
H777 H 0.53462 0.3798 0.25874 0.0
H778 H 0.44859 0.42531 0.98153 0.0
H779 H 0.50458 0.47166 0.06593 0.0
H780 H 0.45451 0.31138 0.20382 0.0
H781 H 0.44381 0.37318 0.23704 0.0
H782 H 0.45994 0.30429 0.27261 0.0
H783 H 0.44908 0.36494 0.30527 0.0
H784 H 0.37751 0.31721 0.12511 0.0
H785 H 0.43309 0.33955 0.03525 0.0
H786 H 0.35061 0.27699 0.09021 0.0
H787 H 0.40529 0.29891 0.00197 0.0
H788 H 0.37303 0.38575 0.23339 0.0
H789 H 0.37526 0.31883 0.267 0.0
H790 H 0.47496 0.28137 0.09031 0.0
H791 H 0.40621 0.25468 0.1558 0.0
Li792 Li 0.0685 0.45273 0.44759 0.0
Li793 Li 0.09169 0.47518 0.50428 0.0
Li794 Li 0.10363 0.44759 0.46863 0.0
Li795 Li 0.06491 0.42889 0.50687 0.0
C796 C 0.11119 0.50254 0.43699 0.0
N797 N 0.12463 0.55036 0.41087 0.0
C798 C 0.0947 0.51196 0.44172 0.0
C799 C 0.13445 0.51736 0.4188 0.0
C800 C 0.10192 0.53625 0.42856 0.0
C801 C 0.14087 0.54146 0.40565 0.0
C802 C 0.04319 0.46425 0.5214 0.0
C803 C 0.03427 0.47422 0.58456 0.0
N804 N 0.02205 0.48536 0.56827 0.0
C805 C 0.03052 0.47583 0.5053 0.0
C806 C 0.04505 0.46345 0.56136 0.0
C807 C 0.01995 0.48636 0.52948 0.0
C808 C 0.02546 0.44724 0.41249 0.0
N809 N 0.05029 0.4557 0.4055 0.0
C810 C 0.04942 0.47832 0.34997 0.0
C811 C 0.06208 0.46979 0.37381 0.0
C812 C 0.0248 0.47254 0.35974 0.0
C813 C 0.01227 0.45562 0.3899 0.0
H814 H 0.01661 0.43598 0.43782 0.0
H815 H 0.08188 0.47624 0.36893 0.0
C816 C 0.1269 0.51035 0.55545 0.0
N817 N 0.10585 0.50508 0.53496 0.0
C818 C 0.1347 0.52753 0.58587 0.0
C819 C 0.10089 0.53577 0.57029 0.0
C820 C 0.09393 0.51864 0.54003 0.0
C821 C 0.12062 0.53925 0.59467 0.0
H822 H 0.13649 0.49981 0.55006 0.0
H823 H 0.07801 0.51508 0.52231 0.0
C824 C 0.07061 0.41198 0.41657 0.0
N825 N 0.07313 0.39557 0.34356 0.0
C826 C 0.05455 0.38678 0.40614 0.0
C827 C 0.08799 0.42884 0.38988 0.0
C828 C 0.05611 0.37885 0.36908 0.0
C829 C 0.08895 0.42018 0.35311 0.0
C830 C 0.10562 0.44322 0.55805 0.0
C831 C 0.11557 0.427 0.55838 0.0
C832 C 0.10235 0.45275 0.59279 0.0
C833 C 0.12213 0.42063 0.5934 0.0
C834 C 0.10939 0.44617 0.62717 0.0
N835 N 0.11906 0.43038 0.62677 0.0
C836 C 0.15451 0.46573 0.46788 0.0
C837 C 0.13076 0.42191 0.45312 0.0
C838 C 0.17634 0.46424 0.47288 0.0
N839 N 0.13228 0.44462 0.45923 0.0
C840 C 0.15223 0.41957 0.45779 0.0
C841 C 0.17503 0.44079 0.46906 0.0
H842 H 0.15482 0.48328 0.47367 0.0
H843 H 0.1126 0.40531 0.44761 0.0
C844 C 0.02667 0.40012 0.56247 0.0
N845 N 0.04575 0.40125 0.54086 0.0
C846 C 0.01763 0.38406 0.59427 0.0
C847 C 0.04583 0.36838 0.57811 0.0
C848 C 0.05452 0.38497 0.54687 0.0
C849 C 0.02808 0.36882 0.60316 0.0
H850 H 0.01933 0.41256 0.55631 0.0
H851 H 0.06941 0.38599 0.5288 0.0
O852 O 0.10505 0.47925 0.45104 0.0
O853 O 0.05401 0.45414 0.49816 0.0
O854 O 0.06917 0.41992 0.45277 0.0
O855 O 0.10002 0.45045 0.52383 0.0
H856 H 0.07659 0.50067 0.45555 0.0
H857 H 0.14744 0.51032 0.41502 0.0
H858 H 0.08949 0.54392 0.43247 0.0
H859 H 0.15881 0.55314 0.3915 0.0
H860 H 0.03567 0.47377 0.61551 0.0
H861 H 0.02915 0.47706 0.47451 0.0
H862 H 0.05476 0.45464 0.57434 0.0
H863 H 0.01021 0.49546 0.51738 0.0
H864 H 0.05951 0.49131 0.32674 0.0
H865 H 0.99321 0.45072 0.39796 0.0
H866 H 0.15024 0.53016 0.60404 0.0
H867 H 0.08998 0.54496 0.57611 0.0
H868 H 0.04101 0.37349 0.42649 0.0
H869 H 0.10065 0.44838 0.39736 0.0
H870 H 0.04379 0.35939 0.36061 0.0
H871 H 0.1023 0.43302 0.33218 0.0
H872 H 0.11811 0.41931 0.5319 0.0
H873 H 0.09483 0.46542 0.59332 0.0
H874 H 0.12974 0.408 0.59404 0.0
H875 H 0.10713 0.45359 0.65418 0.0
H876 H 0.19369 0.48082 0.48193 0.0
H877 H 0.15074 0.4012 0.45514 0.0
H878 H 0.00357 0.38444 0.61281 0.0
H879 H 0.05401 0.35658 0.58411 0.0
Li880 Li 0.65895 0.10475 0.79712 0.0
Li881 Li 0.63738 0.06468 0.83209 0.0
Li882 Li 0.61802 0.07039 0.77291 0.0
Li883 Li 0.61934 0.09233 0.83134 0.0
C884 C 0.66139 0.07248 0.74249 0.0
N885 N 0.68195 0.07668 0.67026 0.0
C886 C 0.6723 0.05786 0.73267 0.0
C887 C 0.66094 0.08925 0.71556 0.0
C888 C 0.6826 0.06026 0.69601 0.0
C889 C 0.67142 0.09109 0.6792 0.0
C890 C 0.66482 0.10214 0.88524 0.0
C891 C 0.66616 0.10038 0.95442 0.0
N892 N 0.69164 0.11021 0.95279 0.0
C893 C 0.69099 0.11204 0.88426 0.0
C894 C 0.65226 0.096 0.92061 0.0
C895 C 0.7042 0.11594 0.9187 0.0
C896 C 0.69322 0.15415 0.80764 0.0
N897 N 0.69102 0.13331 0.78998 0.0
C898 C 0.73574 0.15341 0.78151 0.0
C899 C 0.71153 0.13259 0.77633 0.0
C900 C 0.73844 0.17466 0.80122 0.0
C901 C 0.71694 0.17524 0.81349 0.0
H902 H 0.67663 0.15365 0.81957 0.0
H903 H 0.70929 0.1154 0.76376 0.0
C904 C 0.62299 0.0243 0.88349 0.0
N905 N 0.6432 0.04296 0.86468 0.0
C906 C 0.6266 0.01253 0.91517 0.0
C907 C 0.67169 0.03668 0.90419 0.0
C908 C 0.66722 0.04855 0.87319 0.0
C909 C 0.65123 0.0196 0.92691 0.0
H910 H 0.60409 0.01946 0.87523 0.0
H911 H 0.68297 0.06327 0.8574 0.0
C912 C 0.61544 0.11864 0.77282 0.0
N913 N 0.58748 0.14237 0.76195 0.0
C914 C 0.5892 0.10436 0.76873 0.0
C915 C 0.62749 0.14501 0.77131 0.0
C916 C 0.57538 0.11668 0.76327 0.0
C917 C 0.61302 0.15666 0.76581 0.0
C918 C 0.57915 0.04544 0.84202 0.0
C919 C 0.55643 0.03618 0.82175 0.0
C920 C 0.57868 0.04498 0.88223 0.0
C921 C 0.53369 0.02652 0.84196 0.0
C922 C 0.55556 0.03522 0.90141 0.0
N923 N 0.53373 0.02626 0.88104 0.0
C924 C 0.58149 0.02819 0.73501 0.0
C925 C 0.59231 0.06648 0.70262 0.0
C926 C 0.55848 0.01569 0.7156 0.0
N927 N 0.59682 0.05348 0.7303 0.0
C928 C 0.56955 0.0546 0.6821 0.0
C929 C 0.5516 0.02948 0.69111 0.0
H930 H 0.58556 0.01846 0.75744 0.0
H931 H 0.60486 0.08663 0.69959 0.0
C932 C 0.61799 0.12255 0.89078 0.0
N933 N 0.60323 0.10565 0.86347 0.0
C934 C 0.60693 0.12776 0.9219 0.0
C935 C 0.56589 0.10078 0.89344 0.0
C936 C 0.57778 0.09621 0.86282 0.0
C937 C 0.58052 0.11561 0.92425 0.0
H938 H 0.63827 0.1306 0.88986 0.0
H939 H 0.56642 0.08364 0.84014 0.0
O940 O 0.65131 0.07028 0.77836 0.0
O941 O 0.65173 0.09932 0.8519 0.0
O942 O 0.62922 0.10685 0.77841 0.0
O943 O 0.60165 0.05493 0.82265 0.0
H944 H 0.67281 0.04481 0.75322 0.0
H945 H 0.6527 0.10082 0.72256 0.0
H946 H 0.69111 0.04906 0.68803 0.0
H947 H 0.67122 0.104 0.6581 0.0
H948 H 0.65669 0.09591 0.98198 0.0
H949 H 0.70103 0.11664 0.85722 0.0
H950 H 0.63204 0.08828 0.92206 0.0
H951 H 0.72445 0.1236 0.91835 0.0
H952 H 0.75218 0.15248 0.77221 0.0
H953 H 0.7186 0.19134 0.82916 0.0
H954 H 0.61034 -0.00108 0.93151 0.0
H955 H 0.69091 0.0421 0.91205 0.0
H956 H 0.57958 0.08396 0.77039 0.0
H957 H 0.64781 0.15637 0.77416 0.0
H958 H 0.55503 0.10582 0.76026 0.0
H959 H 0.62209 0.17706 0.76458 0.0
H960 H 0.55626 0.03681 0.79078 0.0
H961 H 0.59601 0.05229 0.8985 0.0
H962 H 0.51605 0.01937 0.82652 0.0
H963 H 0.55499 0.03487 0.93249 0.0
H964 H 0.54505 0.99623 0.7229 0.0
H965 H 0.56476 0.06564 0.66313 0.0
H966 H 0.61868 0.13959 0.94516 0.0
H967 H 0.54544 0.09142 0.89435 0.0
Li968 Li 0.57204 0.63808 0.15921 0.0
Li969 Li 0.5479 0.65836 0.13069 0.0
Li970 Li 0.52597 0.61884 0.16844 0.0
Li971 Li 0.54277 0.61965 0.10667 0.0
C972 C 0.54881 0.65437 0.22294 0.0
N973 N 0.53985 0.65813 0.29985 0.0
C974 C 0.53993 0.67043 0.23463 0.0
C975 C 0.5531 0.64022 0.25037 0.0
C976 C 0.53551 0.67206 0.27365 0.0
C977 C 0.54846 0.64236 0.2891 0.0
C978 C 0.58486 0.65009 0.07379 0.0
C979 C 0.58779 0.65195 0.00465 0.0
N980 N 0.60303 0.64164 0.00605 0.0
C981 C 0.60068 0.63968 0.0746 0.0
C982 C 0.57846 0.65643 0.03861 0.0
C983 C 0.60963 0.6355 0.04002 0.0
C984 C 0.60661 0.62597 0.19258 0.0
N985 N 0.60078 0.64457 0.18829 0.0
C986 C 0.62121 0.66387 0.24723 0.0
C987 C 0.60939 0.66433 0.21319 0.0
C988 C 0.6247 0.64327 0.25468 0.0
C989 C 0.61923 0.62525 0.22562 0.0
H990 H 0.59912 0.61032 0.17258 0.0
H991 H 0.60417 0.67868 0.20913 0.0
C992 C 0.52883 0.69077 0.13799 0.0
N993 N 0.54975 0.68982 0.12739 0.0
C994 C 0.53078 0.7139 0.14699 0.0
C995 C 0.5754 0.73466 0.1314 0.0
C996 C 0.57265 0.71106 0.12307 0.0
C997 C 0.55443 0.73596 0.1448 0.0
H998 H 0.5111 0.6734 0.14226 0.0
H999 H 0.58901 0.70949 0.11564 0.0
C1000 C 0.53001 0.57671 0.15321 0.0
N1001 N 0.49869 0.52481 0.15189 0.0
C1002 C 0.50524 0.56614 0.13952 0.0
C1003 C 0.53882 0.56086 0.1663 0.0
C1004 C 0.48969 0.53988 0.13918 0.0
C1005 C 0.52272 0.53468 0.16528 0.0
C1006 C 0.50063 0.62638 0.09002 0.0
C1007 C 0.47589 0.60611 0.08705 0.0
C1008 C 0.50973 0.64573 0.06264 0.0
C1009 C 0.46081 0.60529 0.05627 0.0
C1010 C 0.49403 0.64425 0.03235 0.0
N1011 N 0.47012 0.62422 0.02978 0.0
C1012 C 0.48186 0.60781 0.21055 0.0
C1013 C 0.50339 0.58659 0.23141 0.0
C1014 C 0.46489 0.59768 0.24125 0.0
N1015 N 0.50068 0.60221 0.20647 0.0
C1016 C 0.4869 0.57607 0.26231 0.0
C1017 C 0.46763 0.58183 0.26757 0.0
H1018 H 0.48049 0.62065 0.19057 0.0
H1019 H 0.51892 0.58302 0.22816 0.0
C1020 C 0.54628 0.58224 0.06672 0.0
N1021 N 0.53668 0.59797 0.06259 0.0
C1022 C 0.5363 0.55994 0.0456 0.0
C1023 C 0.51042 0.5728 0.0107 0.0
C1024 C 0.52042 0.59463 0.0334 0.0
C1025 C 0.5169 0.55431 0.01915 0.0
H1026 H 0.55994 0.58576 0.08907 0.0
H1027 H 0.51374 0.60775 0.02926 0.0
O1028 O 0.5532 0.65241 0.18484 0.0
O1029 O 0.5754 0.65367 0.1073 0.0
O1030 O 0.54562 0.60242 0.1541 0.0
O1031 O 0.51548 0.62758 0.12025 0.0
H1032 H 0.53654 0.68157 0.2139 0.0
H1033 H 0.55961 0.62744 0.24172 0.0
H1034 H 0.52866 0.68443 0.2831 0.0
H1035 H 0.55162 0.63142 0.31057 0.0
H1036 H 0.58289 0.65663 0.97719 0.0
H1037 H 0.60573 0.63462 0.10165 0.0
H1038 H 0.56633 0.66461 0.03752 0.0
H1039 H 0.62175 0.62729 0.04017 0.0
H1040 H 0.62522 0.67805 0.26905 0.0
H1041 H 0.62178 0.60916 0.23058 0.0
H1042 H 0.51436 0.71447 0.15742 0.0
H1043 H 0.59388 0.75149 0.12966 0.0
H1044 H 0.4981 0.57808 0.12934 0.0
H1045 H 0.55791 0.56872 0.17711 0.0
H1046 H 0.47045 0.53148 0.1289 0.0
H1047 H 0.52931 0.52219 0.17523 0.0
H1048 H 0.46839 0.59117 0.10832 0.0
H1049 H 0.52874 0.66161 0.06456 0.0
H1050 H 0.44168 0.58965 0.05349 0.0
H1051 H 0.50088 0.65902 0.01085 0.0
H1052 H 0.45016 0.60245 0.24486 0.0
H1053 H 0.48947 0.56399 0.28241 0.0
H1054 H 0.54217 0.54629 0.05216 0.0
H1055 H 0.4959 0.56921 0.9897 0.0
C1056 C 0.53915 0.12483 0.99632 0.0
C1057 C 0.53981 0.11022 0.02758 0.0
C1058 C 0.56772 0.09981 0.99147 0.0
C1059 C 0.56803 0.11534 0.96083 0.0
N1060 N 0.55823 0.14634 0.93642 0.0
N1061 N 0.55892 0.08868 0.05877 0.0
C1062 C 0.55506 0.12907 0.96403 0.0
C1063 C 0.5555 0.0993 0.02636 0.0
N1064 N 0.52252 0.13366 0.99677 0.0
N1065 N 0.57793 0.08451 0.98657 0.0
H1066 H 0.5502 0.088 0.08489 0.0
H1067 H 0.57215 0.08272 0.06076 0.0
H1068 H 0.58699 0.08408 0.96142 0.0
H1069 H 0.57558 0.07064 0.00623 0.0
H1070 H 0.51904 0.14187 0.97307 0.0
H1071 H 0.51084 0.13124 0.02014 0.0
H1072 H 0.55129 0.15876 0.9389 0.0
H1073 H 0.56968 0.14971 0.91234 0.0
C1074 C 0.45849 0.58451 0.33709 0.0
C1075 C 0.45092 0.57143 0.30148 0.0
C1076 C 0.4176 0.53396 0.33341 0.0
C1077 C 0.42615 0.54622 0.36946 0.0
N1078 N 0.45053 0.58446 0.40569 0.0
N1079 N 0.42157 0.53497 0.26462 0.0
C1080 C 0.44527 0.57203 0.37127 0.0
C1081 C 0.42973 0.54677 0.29934 0.0
N1082 N 0.47905 0.60836 0.33824 0.0
N1083 N 0.39827 0.50965 0.33059 0.0
H1084 H 0.42976 0.54373 0.23859 0.0
H1085 H 0.40627 0.51662 0.26201 0.0
H1086 H 0.3881 0.49856 0.35402 0.0
H1087 H 0.3881 0.49856 0.35402 0.0
H1088 H 0.48752 0.61807 0.36345 0.0
H1089 H 0.48836 0.61831 0.3135 0.0
H1090 H 0.46282 0.60376 0.40895 0.0
H1091 H 0.44101 0.57563 0.43099 0.0
C1092 C 0.87192 0.42548 0.63248 0.0
C1093 C 0.88355 0.45223 0.63236 0.0
C1094 C 0.89759 0.4541 0.69877 0.0
C1095 C 0.88819 0.42771 0.69776 0.0
N1096 N 0.86681 0.38779 0.66452 0.0
N1097 N 0.90621 0.49208 0.66696 0.0
C1098 C 0.87513 0.41316 0.66498 0.0
C1099 C 0.89572 0.46645 0.6658 0.0
N1100 N 0.85762 0.41201 0.60167 0.0
N1101 N 0.90913 0.46777 0.73108 0.0
H1102 H 0.90595 0.50304 0.64415 0.0
H1103 H 0.90595 0.50304 0.64415 0.0
H1104 H 0.91088 0.45957 0.75635 0.0
H1105 H 0.91656 0.48731 0.73265 0.0
H1106 H 0.84675 0.39239 0.60092 0.0
H1107 H 0.85519 0.42063 0.57741 0.0
H1108 H 0.85967 0.3764 0.64029 0.0
H1109 H 0.86804 0.37811 0.68839 0.0
C1110 C 0.46315 0.87375 0.99848 0.0
C1111 C 0.45098 0.86885 0.0348 0.0
C1112 C 0.41218 0.86276 0.00453 0.0
C1113 C 0.42454 0.86822 0.96836 0.0
N1114 N 0.45864 0.87196 0.92906 0.0
N1115 N 0.41263 0.85224 0.07171 0.0
C1116 C 0.449 0.87126 0.96478 0.0
C1117 C 0.42496 0.86109 0.03751 0.0
N1118 N 0.48853 0.88232 0.99636 0.0
N1119 N 0.38888 0.86064 0.00766 0.0
H1120 H 0.42168 0.85086 0.09628 0.0
H1121 H 0.39315 0.84417 0.07488 0.0
H1122 H 0.37869 0.86122 0.98401 0.0
H1123 H 0.38022 0.85976 0.03385 0.0
H1124 H 0.49904 0.88917 0.97121 0.0
H1125 H 0.49959 0.88417 0.0203 0.0
H1126 H 0.47543 0.87184 0.92441 0.0
H1127 H 0.44858 0.87023 0.90392 0.0
C1128 C 0.58265 0.45923 0.33154 0.0
C1129 C 0.5711 0.44809 0.36716 0.0
C1130 C 0.53613 0.41268 0.33367 0.0
C1131 C 0.54769 0.42377 0.29799 0.0
N1132 N 0.58464 0.4536 0.26285 0.0
N1133 N 0.54105 0.41149 0.40268 0.0
C1134 C 0.57193 0.44575 0.29696 0.0
C1135 C 0.54924 0.42381 0.36833 0.0
N1136 N 0.60297 0.48323 0.3306 0.0
N1137 N 0.51204 0.39252 0.33459 0.0
H1138 H 0.55038 0.41929 0.42854 0.0
H1139 H 0.52663 0.39274 0.40506 0.0
H1140 H 0.5017 0.38376 0.30993 0.0
H1141 H 0.50157 0.38561 0.35977 0.0
H1142 H 0.61023 0.49351 0.30535 0.0
H1143 H 0.61163 0.49361 0.35531 0.0
H1144 H 0.60334 0.46814 0.26067 0.0
H1145 H 0.5772 0.44394 0.2371 0.0
C1146 C 0.1344 0.57905 0.63208 0.0
C1147 C 0.12407 0.55248 0.63173 0.0
C1148 C 0.11536 0.55063 0.70069 0.0
C1149 C 0.12155 0.57624 0.6994 0.0
N1150 N 0.13657 0.61526 0.66448 0.0
N1151 N 0.10255 0.51222 0.66475 0.0
C1152 C 0.13135 0.59074 0.66539 0.0
C1153 C 0.11432 0.53805 0.66592 0.0
N1154 N 0.14712 0.59297 0.60057 0.0
N1155 N 0.11032 0.53836 0.73522 0.0
H1156 H 0.10106 0.50205 0.6399 0.0
H1157 H 0.09247 0.50066 0.68777 0.0
H1158 H 0.11083 0.54717 0.76118 0.0
H1159 H 0.10808 0.52041 0.73857 0.0
H1160 H 0.15706 0.61265 0.60009 0.0
H1161 H 0.14957 0.58477 0.57582 0.0
H1162 H 0.14083 0.62593 0.6394 0.0
H1163 H 0.13535 0.62462 0.68873 0.0
C1164 C 0.35892 0.02118 0.00606 0.0
C1165 C 0.34706 0.00499 0.03804 0.0
C1166 C 0.32502 0.96862 0.99514 0.0
C1167 C 0.33883 0.98436 0.96385 0.0
N1168 N 0.36163 0.02591 0.93653 0.0
N1169 N 0.31352 0.96574 0.06266 0.0
C1170 C 0.35313 0.01086 0.9684 0.0
C1171 C 0.3281 0.97947 0.03229 0.0
N1172 N 0.3771 0.04585 0.01174 0.0
N1173 N 0.31024 0.94317 0.98955 0.0
H1174 H 0.31563 0.97362 0.08999 0.0
H1175 H 0.29813 0.94751 0.06023 0.0
H1176 H 0.30674 0.93505 0.96226 0.0
H1177 H 0.30207 0.93009 0.01172 0.0
H1178 H 0.3886 0.05768 0.98994 0.0
H1179 H 0.38166 0.05437 0.0387 0.0
H1180 H 0.37045 0.04555 0.9374 0.0
H1181 H 0.35756 0.01842 0.90877 0.0
C1182 C 0.38711 0.37768 0.31595 0.0
C1183 C 0.36824 0.35638 0.29577 0.0
C1184 C 0.34256 0.34197 0.35442 0.0
C1185 C 0.35999 0.36495 0.37278 0.0
N1186 N 0.3955 0.40756 0.36687 0.0
N1187 N 0.32648 0.31971 0.29399 0.0
C1188 C 0.38133 0.38364 0.3524 0.0
C1189 C 0.34549 0.33885 0.31451 0.0
N1190 N 0.41092 0.39175 0.30106 0.0
N1191 N 0.32366 0.32297 0.3753 0.0
H1192 H 0.32805 0.31702 0.26473 0.0
H1193 H 0.30851 0.30785 0.30515 0.0
H1194 H 0.3212 0.32464 0.40462 0.0
H1195 H 0.31186 0.30491 0.36442 0.0
H1196 H 0.42593 0.4059 0.31658 0.0
H1197 H 0.41646 0.38758 0.27502 0.0
H1198 H 0.4096 0.42243 0.35106 0.0
H1199 H 0.39146 0.41334 0.39277 0.0
C1200 C -0.0015 0.33283 0.64581 0.0
C1201 C 0.02204 0.35528 0.64048 0.0
C1202 C 0.03154 0.35462 0.70869 0.0
C1203 C 0.00572 0.33709 0.71501 0.0
N1204 N 0.97529 0.29711 0.68796 0.0
N1205 N 0.06251 0.38661 0.66655 0.0
C1206 C 0.99177 0.32226 0.68319 0.0
C1207 C 0.03942 0.3655 0.67163 0.0
N1208 N 0.98248 0.32178 0.61553 0.0
N1209 N 0.04827 0.36018 0.73809 0.0
H1210 H 0.06885 0.39527 0.63992 0.0
H1211 H 0.07469 0.39641 0.68916 0.0
H1212 H 0.04225 0.35138 0.76485 0.0
H1213 H 0.06779 0.37132 0.73489 0.0
H1214 H 0.96402 0.30688 0.61897 0.0
H1215 H 0.98735 0.32836 0.58738 0.0
H1216 H 0.96587 0.2849 0.66517 0.0
H1217 H 0.97458 0.28808 0.7138 0.0
C1218 C 0.65991 0.01545 0.03424 0.0
C1219 C 0.64373 0.98914 0.03876 0.0
C1220 C 0.64405 0.98358 0.96911 0.0
C1221 C 0.65473 0.01002 0.96442 0.0
N1222 N 0.67356 0.05172 0.9928 0.0
N1223 N 0.62087 0.94741 0.01087 0.0
C1224 C 0.66355 0.02624 0.99701 0.0
C1225 C 0.63645 0.97286 0.00635 0.0
N1226 N 0.67122 0.03005 0.06585 0.0
N1227 N 0.6408 0.96886 0.93769 0.0
H1228 H 0.61545 0.93879 0.03772 0.0
H1229 H 0.6123 0.93499 0.98803 0.0
H1230 H 0.6464 0.97656 0.91021 0.0
H1231 H 0.63497 0.94968 0.93933 0.0
H1232 H 0.68495 0.04911 0.06437 0.0
H1233 H 0.66859 0.02229 0.09337 0.0
H1234 H 0.67716 0.06401 0.01576 0.0
H1235 H 0.67703 0.06055 0.96619 0.0
C1236 C 0.60951 0.61609 0.31357 0.0
C1237 C 0.62885 0.63787 0.29487 0.0
C1238 C 0.65293 0.65082 0.35517 0.0
C1239 C 0.63492 0.62751 0.37209 0.0
N1240 N 0.60009 0.58489 0.36271 0.0
N1241 N 0.67097 0.67405 0.29604 0.0
C1242 C 0.61443 0.6092 0.34989 0.0
C1243 C 0.65122 0.65473 0.31515 0.0
N1244 N 0.58593 0.60255 0.29773 0.0
N1245 N 0.67109 0.66946 0.37747 0.0
H1246 H 0.67039 0.67719 0.26668 0.0
H1247 H 0.68863 0.68547 0.30849 0.0
H1248 H 0.67261 0.66732 0.40692 0.0
H1249 H 0.68317 0.68771 0.36747 0.0
H1250 H 0.57064 0.58809 0.31242 0.0
H1251 H 0.58079 0.60745 0.27199 0.0
H1252 H 0.58656 0.57041 0.34563 0.0
H1253 H 0.60359 0.57849 0.38849 0.0
C1254 C 0.99569 0.65431 0.67738 0.0
C1255 C 0.00231 0.63742 0.6949 0.0
C1256 C 0.98952 0.61136 0.63702 0.0
C1257 C 0.98562 0.62964 0.61778 0.0
N1258 N 0.98903 0.67072 0.61766 0.0
N1259 N 0.01279 0.60436 0.6867 0.0
C1260 C 0.98991 0.65183 0.63739 0.0
C1261 C 0.00146 0.61732 0.67329 0.0
N1262 N 0.9941 0.67209 0.6991 0.0
N1263 N 0.98068 0.58776 0.62178 0.0
H1264 H 0.02287 0.6088 0.71244 0.0
H1265 H 0.01461 0.59113 0.67013 0.0
H1266 H 0.97037 0.58179 0.5963 0.0
H1267 H 0.98106 0.57317 0.63678 0.0
H1268 H 0.98693 0.68324 0.68869 0.0
H1269 H 0.99795 0.67421 0.72851 0.0
H1270 H 0.99434 0.68832 0.6296 0.0
H1271 H 0.98516 0.66957 0.58829 0.0
C1272 C 0.49341 0.98509 0.346 0.0
C1273 C 0.51597 0.99282 0.32502 0.0
C1274 C 0.51661 0.03132 0.30432 0.0
C1275 C 0.49269 0.02248 0.32229 0.0
N1276 N 0.46221 0.99563 0.36926 0.0
N1277 N 0.55353 0.02663 0.29642 0.0
C1278 C 0.48253 0.00097 0.34657 0.0
C1279 C 0.52926 0.01733 0.3089 0.0
N1280 N 0.48177 0.9619 0.36326 0.0
N1281 N 0.5262 0.05167 0.28006 0.0
H1282 H 0.56299 0.01646 0.29876 0.0
H1283 H 0.5651 0.04524 0.28745 0.0
H1284 H 0.51775 0.06258 0.27529 0.0
H1285 H 0.54181 0.05687 0.26241 0.0
H1286 H 0.46381 0.95362 0.37541 0.0
H1287 H 0.49017 0.95063 0.36434 0.0
H1288 H 0.45473 0.98116 0.38953 0.0
H1289 H 0.45418 0.00723 0.36988 0.0
C1290 C 0.50647 0.49094 0.69152 0.0
C1291 C 0.52196 0.51305 0.66999 0.0
C1292 C 0.48505 0.51498 0.64819 0.0
C1293 C 0.46918 0.49176 0.66753 0.0
N1294 N 0.46445 0.46171 0.71612 0.0
N1295 N 0.52716 0.55111 0.64113 0.0
C1296 C 0.47988 0.48126 0.69248 0.0
C1297 C 0.51155 0.52695 0.65348 0.0
N1298 N 0.51718 0.47855 0.70892 0.0
N1299 N 0.47525 0.52439 0.62185 0.0
H1300 H 0.54673 0.56016 0.64447 0.0
H1301 H 0.52058 0.56295 0.63154 0.0
H1302 H 0.45606 0.51621 0.6159 0.0
H1303 H 0.48642 0.5393 0.60339 0.0
H1304 H 0.50684 0.46076 0.72149 0.0
H1305 H 0.53676 0.48609 0.70959 0.0
H1306 H 0.47108 0.45417 0.73686 0.0
H1307 H 0.44493 0.45452 0.71701 0.0
C1308 C 0.9827 0.51092 0.97337 0.0
C1309 C 0.00701 0.52333 0.99015 0.0
C1310 C 0.00089 0.48251 0.01204 0.0
C1311 C 0.97977 0.47023 0.98712 0.0
N1312 N 0.95108 0.47304 0.94187 0.0
N1313 N 0.0387 0.52195 0.02909 0.0
C1314 C 0.9703 0.48439 0.96799 0.0
C1315 C 0.01567 0.50939 0.01146 0.0
N1316 N 0.97204 0.5247 0.96104 0.0
N1317 N 0.00696 0.46835 0.03535 0.0
H1318 H 0.04914 0.54168 0.03012 0.0
H1319 H 0.04768 0.51303 0.04151 0.0
H1320 H 0.99622 0.44863 0.03597 0.0
H1321 H 0.02111 0.47603 0.05611 0.0
H1322 H 0.95345 0.51653 0.95132 0.0
H1323 H 0.98093 0.54425 0.96448 0.0
H1324 H 0.94581 0.48309 0.92352 0.0
H1325 H 0.94158 0.45374 0.93606 0.0
C1326 C 0.97451 0.48431 0.31918 0.0
C1327 C 0.98158 0.50784 0.33674 0.0
C1328 C 0.02139 0.51179 0.35842 0.0
C1329 C 0.01339 0.48715 0.3439 0.0
N1330 N 0.98654 0.45319 0.30148 0.0
N1331 N 0.01483 0.54778 0.36021 0.0
C1332 C 0.99139 0.47461 0.32082 0.0
C1333 C 0.0063 0.52301 0.35139 0.0
N1334 N 0.95105 0.47076 0.30314 0.0
N1335 N 0.04204 0.52352 0.38194 0.0
H1336 H 0.00392 0.55633 0.35599 0.0
H1337 H 0.03346 0.56045 0.3679 0.0
H1338 H 0.05372 0.51612 0.38812 0.0
H1339 H 0.0467 0.53982 0.39756 0.0
H1340 H 0.94331 0.45221 0.29355 0.0
H1341 H 0.93902 0.47823 0.30045 0.0
H1342 H 0.97168 0.44384 0.28217 0.0
H1343 H -0.00115 0.44598 0.30256 0.0
C1344 C 0.48548 0.98169 0.65998 0.0
C1345 C 0.47137 0.98887 0.6839 0.0
C1346 C 0.5099 0.02677 0.7043 0.0
C1347 C 0.52436 0.01891 0.68215 0.0
N1348 N 0.52622 0.99322 0.63139 0.0
N1349 N 0.46868 0.02165 0.71805 0.0
C1350 C 0.51214 0.99785 0.65713 0.0
C1351 C 0.48316 0.01283 0.70186 0.0
N1352 N 0.47343 0.95879 0.64188 0.0
N1353 N 0.52145 0.04603 0.73033 0.0
H1354 H 0.44897 0.01148 0.7173 0.0
H1355 H 0.47609 0.03995 0.72868 0.0
H1356 H 0.54095 0.05682 0.73367 0.0
H1357 H 0.51163 0.05018 0.75083 0.0
H1358 H 0.48278 0.9509 0.62751 0.0
H1359 H 0.45378 0.94729 0.64245 0.0
H1360 H 0.51844 0.97921 0.61043 0.0
H1361 H 0.54578 0.00496 0.62908 0.0
C1362 C 0.46625 0.48514 0.01822 0.0
C1363 C 0.48104 0.47515 0.00362 0.0
C1364 C 0.51315 0.51742 0.9824 0.0
C1365 C 0.50147 0.52779 0.00554 0.0
N1366 N 0.4664 0.52147 0.04585 0.0
N1367 N 0.51691 0.48049 0.96771 0.0
C1368 C 0.47745 0.5117 0.02256 0.0
C1369 C 0.50375 0.4909 0.98352 0.0
N1370 N 0.44192 0.4691 0.02954 0.0
N1371 N 0.53353 0.53316 0.96035 0.0
H1372 H 0.50964 0.46096 0.96706 0.0
H1373 H 0.53504 0.49103 0.95637 0.0
H1374 H 0.54048 0.55263 0.95935 0.0
H1375 H 0.54209 0.52684 0.94087 0.0
H1376 H 0.42935 0.47517 0.03734 0.0
H1377 H 0.43352 0.44951 0.02733 0.0
H1378 H 0.45067 0.51039 0.06293 0.0
H1379 H 0.47374 0.54073 0.05039 0.0
C1380 C 0.45089 0.24243 0.17353 0.0
C1381 C 0.44158 0.24249 0.13617 0.0
C1382 C 0.43362 0.19957 0.12509 0.0
C1383 C 0.44027 0.19857 0.16393 0.0
N1384 N 0.45159 0.21736 0.22695 0.0
N1385 N 0.42139 0.2206 0.07768 0.0
C1386 C 0.4479 0.21955 0.1887 0.0
C1387 C 0.43218 0.22091 0.11224 0.0
N1388 N 0.46324 0.26443 0.19403 0.0
N1389 N 0.42957 0.18058 0.10019 0.0
H1390 H 0.42066 0.23619 0.06698 0.0
H1391 H 0.41162 0.20443 0.06088 0.0
H1392 H 0.43052 0.16465 0.10847 0.0
H1393 H 0.42734 0.18153 0.07069 0.0
H1394 H 0.47263 0.2661 0.21979 0.0
H1395 H 0.46625 0.28169 0.18347 0.0
H1396 H 0.4545 0.23112 0.24721 0.0
H1397 H 0.44955 0.20082 0.23912 0.0
C1398 C 0.19971 0.43514 0.52148 0.0
C1399 C 0.19671 0.43812 0.48169 0.0
C1400 C 0.2361 0.43843 0.46748 0.0
C1401 C 0.24044 0.43832 0.50756 0.0
N1402 N 0.22799 0.43873 0.57314 0.0
N1403 N 0.21236 0.44451 0.41675 0.0
C1404 C 0.22261 0.43711 0.53473 0.0
C1405 C 0.21493 0.44014 0.45458 0.0
N1406 N 0.18044 0.43004 0.54646 0.0
N1407 N 0.25202 0.43645 0.44187 0.0
H1408 H 0.19666 0.44509 0.4062 0.0
H1409 H 0.22639 0.4491 0.3962 0.0
H1410 H 0.26786 0.43541 0.45033 0.0
H1411 H 0.24855 0.43384 0.41247 0.0
H1412 H 0.18028 0.425 0.57508 0.0
H1413 H 0.16354 0.42884 0.53782 0.0
H1414 H 0.2172 0.44099 0.59425 0.0
H1415 H 0.24431 0.43954 0.58393 0.0
C1416 C 0.77274 0.19526 0.85013 0.0
C1417 C 0.76365 0.19546 0.81265 0.0
C1418 C 0.80046 0.2371 0.80037 0.0
C1419 C 0.80781 0.23817 0.83937 0.0
N1420 N 0.8005 0.21961 0.90251 0.0
N1421 N 0.76735 0.21665 0.75257 0.0
C1422 C 0.79394 0.21753 0.86454 0.0
C1423 C 0.7772 0.21634 0.78774 0.0
N1424 N 0.76119 0.17364 0.87167 0.0
N1425 N 0.81598 0.25574 0.77535 0.0
H1426 H 0.75079 0.20135 0.74189 0.0
H1427 H 0.77468 0.23251 0.7349 0.0
H1428 H 0.83308 0.27138 0.78366 0.0
H1429 H 0.81302 0.2548 0.74579 0.0
H1430 H 0.7683 0.1714 0.89764 0.0
H1431 H 0.74549 0.15704 0.86202 0.0
H1432 H 0.78948 0.20644 0.92333 0.0
H1433 H 0.81624 0.2355 0.91387 0.0
C1434 C 0.5657 0.76725 0.19821 0.0
C1435 C 0.55751 0.76002 0.15968 0.0
C1436 C 0.55403 0.7979 0.15038 0.0
C1437 C 0.56108 0.80453 0.18945 0.0
N1438 N 0.57155 0.79525 0.25176 0.0
N1439 N 0.54185 0.76653 0.09977 0.0
C1440 C 0.56642 0.78915 0.21371 0.0
C1441 C 0.5512 0.77488 0.13588 0.0
N1442 N 0.57298 0.75322 0.21975 0.0
N1443 N 0.55029 0.81382 0.12712 0.0
H1444 H 0.54061 0.75034 0.0876 0.0
H1445 H 0.53404 0.77472 0.08239 0.0
H1446 H 0.55048 0.82999 0.13716 0.0
H1447 H 0.54819 0.81187 0.09744 0.0
H1448 H 0.5817 0.75874 0.24646 0.0
H1449 H 0.57156 0.73639 0.2101 0.0
H1450 H 0.57294 0.78359 0.27221 0.0
H1451 H 0.57311 0.81166 0.26363 0.0
C1452 C 0.76908 0.54196 0.46076 0.0
C1453 C 0.79136 0.55115 0.48314 0.0
C1454 C 0.77115 0.56047 0.53676 0.0
C1455 C 0.74932 0.55241 0.51369 0.0
N1456 N 0.7273 0.53693 0.45346 0.0
N1457 N 0.81501 0.57089 0.54085 0.0
C1458 C 0.74823 0.54352 0.47558 0.0
C1459 C 0.7928 0.56093 0.52073 0.0
N1460 N 0.76778 0.53126 0.42565 0.0
N1461 N 0.77084 0.5671 0.57424 0.0
H1462 H 0.83091 0.5705 0.53092 0.0
H1463 H 0.81836 0.58081 0.5665 0.0
H1464 H 0.75553 0.56768 0.58646 0.0
H1465 H 0.78495 0.5706 0.5941 0.0
H1466 H 0.75127 0.52148 0.40962 0.0
H1467 H 0.78314 0.53101 0.41301 0.0
H1468 H 0.72631 0.53333 0.42411 0.0
H1469 H 0.71096 0.53609 0.46413 0.0
C1470 C 0.20272 0.7791 0.87061 0.0
C1471 C 0.18832 0.75854 0.8455 0.0
C1472 C 0.21923 0.77949 0.7938 0.0
C1473 C 0.23338 0.80023 0.81868 0.0
N1474 N 0.23757 0.82203 0.87844 0.0
N1475 N 0.18032 0.74018 0.78197 0.0
C1476 C 0.22474 0.80074 0.85641 0.0
C1477 C 0.19579 0.75909 0.80664 0.0
N1478 N 0.19561 0.77755 0.90826 0.0
N1479 N 0.2287 0.77901 0.75836 0.0
H1480 H 0.16349 0.72438 0.79057 0.0
H1481 H 0.18315 0.74077 0.75242 0.0
H1482 H 0.24524 0.79417 0.74735 0.0
H1483 H 0.22106 0.76321 0.74056 0.0
H1484 H 0.20667 0.79044 0.92933 0.0
H1485 H 0.17898 0.76244 0.91914 0.0
H1486 H 0.23102 0.82477 0.90457 0.0
H1487 H 0.25423 0.83793 0.86947 0.0
loop_
_geom_bond_atom_site_label_1
_geom_bond_atom_site_label_2
_geom_bond_distance
_geom_bond_site_symmetry_2
_ccdc_geom_bond_type
Li0 N17 1.990 . S
Li0 O60 1.956 . S
Li0 O61 1.970 . S
Li0 O62 1.961 . S
Li1 N25 1.990 . S
Li1 O60 1.970 . S
Li1 O61 1.956 . S
Li1 O63 1.961 . S
Li2 N47 1.990 . S
Li2 O60 1.961 . S
Li2 O62 1.956 . S
Li2 O63 1.970 . S
Li3 N53 1.990 . S
Li3 O61 1.961 . S
Li3 O62 1.970 . S
Li3 O63 1.956 . S
C4 C6 1.348 . S
C4 C7 1.356 . S
C4 O60 1.325 . S
N5 C8 1.314 . S
N5 C9 1.279 . S
C6 C4 1.348 . S
C6 C8 1.353 . S
C6 H64 0.929 . S
C7 C4 1.356 . S
C7 C9 1.358 . S
C7 H65 0.930 . S
C8 N5 1.314 . S
C8 C6 1.353 . S
C8 H66 0.930 . S
C9 N5 1.279 . S
C9 C7 1.358 . S
C9 H67 0.930 . S
C10 C13 1.348 . S
C10 C14 1.356 . S
C10 O61 1.325 . S
C11 N12 1.279 . S
C11 C14 1.358 . S
C11 H68 0.930 . S
N12 C11 1.279 . S
N12 C15 1.314 . S
C13 C10 1.348 . S
C13 C15 1.353 . S
C13 H69 0.929 . S
C14 C10 1.356 . S
C14 C11 1.358 . S
C14 H70 0.930 . S
C15 N12 1.314 . S
C15 C13 1.353 . S
C15 H71 0.930 . S
C16 N17 1.314 . S
C16 C21 1.353 1_545 S
C16 H22 0.930 . S
N17 Li0 1.990 . S
N17 C16 1.314 . S
N17 C19 1.279 . S
C18 C19 1.358 . S
C18 C20 1.356 . S
C18 H72 0.930 . S
C19 N17 1.279 . S
C19 C18 1.358 . S
C19 H23 0.930 . S
C20 C18 1.356 . S
C20 C21 1.348 1_545 S
C21 C16 1.353 1_565 S
C21 C20 1.348 1_565 S
C21 H73 0.929 . S
H22 C16 0.930 . S
H23 C19 0.930 . S
C24 N25 1.314 . S
C24 C26 1.353 . S
C24 H30 0.930 . S
N25 Li1 1.990 . S
N25 C24 1.314 . S
N25 C28 1.279 . S
C26 C24 1.353 . S
C26 C29 1.348 . S
C26 H74 0.929 . S
C27 C28 1.358 . S
C27 C29 1.356 . S
C27 H75 0.930 . S
C28 N25 1.279 . S
C28 C27 1.358 . S
C28 H31 0.930 . S
C29 C26 1.348 . S
C29 C27 1.356 . S
H30 C24 0.930 . S
H31 C28 0.930 . S
C32 C34 1.348 . S
C32 C35 1.356 . S
C32 O62 1.325 . S
N33 C36 1.314 . S
N33 C37 1.279 . S
C34 C32 1.348 . S
C34 C36 1.353 . S
C34 H76 0.929 . S
C35 C32 1.356 . S
C35 C37 1.358 . S
C35 H77 0.930 . S
C36 N33 1.314 . S
C36 C34 1.353 . S
C36 H78 0.930 . S
C37 N33 1.279 . S
C37 C35 1.358 . S
C37 H79 0.930 . S
C38 C39 1.348 . S
C38 C40 1.356 . S
C38 O63 1.325 . S
C39 C38 1.348 . S
C39 C41 1.353 . S
C39 H80 0.929 . S
C40 C38 1.356 . S
C40 C42 1.358 . S
C40 H81 0.930 . S
C41 C39 1.353 . S
C41 N43 1.314 . S
C41 H82 0.930 . S
C42 C40 1.358 . S
C42 N43 1.279 . S
C42 H83 0.930 . S
N43 C41 1.314 . S
N43 C42 1.279 . S
C44 C46 1.353 . S
C44 N47 1.314 . S
C44 H50 0.930 . S
C45 N47 1.279 . S
C45 C48 1.358 . S
C45 H51 0.930 . S
C46 C44 1.353 . S
C46 C49 1.348 . S
C46 H84 0.929 . S
N47 Li2 1.990 . S
N47 C44 1.314 . S
N47 C45 1.279 . S
C48 C45 1.358 . S
C48 C49 1.356 . S
C48 H85 0.930 . S
C49 C46 1.348 . S
C49 C48 1.356 . S
H50 C44 0.930 . S
H51 C45 0.930 . S
C52 N53 1.314 . S
C52 C54 1.353 . S
C52 H58 0.930 . S
N53 Li3 1.990 . S
N53 C52 1.314 . S
N53 C56 1.279 . S
C54 C52 1.353 . S
C54 C57 1.348 . S
C54 H86 0.929 . S
C55 C56 1.358 . S
C55 C57 1.356 . S
C55 H87 0.930 . S
C56 N53 1.279 . S
C56 C55 1.358 . S
C56 H59 0.930 . S
C57 C54 1.348 . S
C57 C55 1.356 . S
H58 C52 0.930 . S
H59 C56 0.930 . S
O60 Li0 1.956 . S
O60 Li1 1.970 . S
O60 Li2 1.961 . S
O60 C4 1.325 . S
O61 Li0 1.970 . S
O61 Li1 1.956 . S
O61 Li3 1.961 . S
O61 C10 1.325 . S
O62 Li0 1.961 . S
O62 Li2 1.956 . S
O62 Li3 1.970 . S
O62 C32 1.325 . S
O63 Li1 1.961 . S
O63 Li2 1.970 . S
O63 Li3 1.956 . S
O63 C38 1.325 . S
H64 C6 0.929 . S
H65 C7 0.930 . S
H66 C8 0.930 . S
H67 C9 0.930 . S
H68 C11 0.930 . S
H69 C13 0.929 . S
H70 C14 0.930 . S
H71 C15 0.930 . S
H72 C18 0.930 . S
H73 C21 0.929 . S
H74 C26 0.929 . S
H75 C27 0.930 . S
H76 C34 0.929 . S
H77 C35 0.930 . S
H78 C36 0.930 . S
H79 C37 0.930 . S
H80 C39 0.929 . S
H81 C40 0.930 . S
H82 C41 0.930 . S
H83 C42 0.930 . S
H84 C46 0.929 . S
H85 C48 0.930 . S
H86 C54 0.929 . S
H87 C55 0.930 . S
Li88 N105 1.990 . S
Li88 O148 1.956 . S
Li88 O149 1.970 . S
Li88 O150 1.961 . S
Li89 N113 1.990 . S
Li89 O148 1.970 . S
Li89 O149 1.956 . S
Li89 O151 1.961 . S
Li90 N135 1.990 . S
Li90 O148 1.961 . S
Li90 O150 1.956 . S
Li90 O151 1.970 . S
Li91 N141 1.990 . S
Li91 O149 1.961 . S
Li91 O150 1.970 . S
Li91 O151 1.956 . S
C92 C94 1.348 . S
C92 C95 1.356 . S
C92 O148 1.325 . S
N93 C96 1.314 . S
N93 C97 1.279 . S
C94 C92 1.348 . S
C94 C96 1.353 . S
C94 H152 0.929 . S
C95 C92 1.356 . S
C95 C97 1.358 . S
C95 H153 0.930 . S
C96 N93 1.314 . S
C96 C94 1.353 . S
C96 H154 0.930 . S
C97 N93 1.279 . S
C97 C95 1.358 . S
C97 H155 0.930 . S
C98 C101 1.348 . S
C98 C102 1.356 . S
C98 O149 1.325 . S
C99 N100 1.279 . S
C99 C102 1.358 . S
C99 H156 0.930 . S
N100 C99 1.279 . S
N100 C103 1.314 . S
C101 C98 1.348 . S
C101 C103 1.353 . S
C101 H157 0.929 . S
C102 C98 1.356 . S
C102 C99 1.358 . S
C102 H158 0.930 . S
C103 N100 1.314 . S
C103 C101 1.353 . S
C103 H159 0.930 . S
C104 N105 1.314 . S
C104 C109 1.353 . S
C104 H110 0.930 . S
N105 Li88 1.990 . S
N105 C104 1.314 . S
N105 C107 1.279 . S
C106 C107 1.358 . S
C106 C108 1.356 . S
C106 H160 0.930 . S
C107 N105 1.279 . S
C107 C106 1.358 . S
C107 H111 0.930 . S
C108 C106 1.356 . S
C108 C109 1.348 . S
C109 C104 1.353 . S
C109 C108 1.348 . S
C109 H161 0.929 . S
H110 C104 0.930 . S
H111 C107 0.930 . S
C112 N113 1.314 . S
C112 C114 1.353 . S
C112 H118 0.930 . S
N113 Li89 1.990 . S
N113 C112 1.314 . S
N113 C116 1.279 . S
C114 C112 1.353 . S
C114 C117 1.348 . S
C114 H162 0.929 . S
C115 C116 1.358 . S
C115 C117 1.356 . S
C115 H163 0.930 . S
C116 N113 1.279 . S
C116 C115 1.358 . S
C116 H119 0.930 . S
C117 C114 1.348 . S
C117 C115 1.356 . S
H118 C112 0.930 . S
H119 C116 0.930 . S
C120 C122 1.348 . S
C120 C123 1.356 . S
C120 O150 1.325 . S
N121 C124 1.314 . S
N121 C125 1.279 . S
C122 C120 1.348 . S
C122 C124 1.353 . S
C122 H164 0.929 . S
C123 C120 1.356 . S
C123 C125 1.358 . S
C123 H165 0.930 . S
C124 N121 1.314 . S
C124 C122 1.353 . S
C124 H166 0.930 . S
C125 N121 1.279 . S
C125 C123 1.358 . S
C125 H167 0.930 . S
C126 C127 1.348 . S
C126 C128 1.356 . S
C126 O151 1.325 . S
C127 C126 1.348 . S
C127 C129 1.353 . S
C127 H168 0.929 . S
C128 C126 1.356 . S
C128 C130 1.358 . S
C128 H169 0.930 . S
C129 C127 1.353 . S
C129 N131 1.314 . S
C129 H170 0.930 . S
C130 C128 1.358 . S
C130 N131 1.279 . S
C130 H171 0.930 . S
N131 C129 1.314 . S
N131 C130 1.279 . S
C132 C134 1.353 . S
C132 N135 1.314 . S
C132 H138 0.930 . S
C133 N135 1.279 . S
C133 C136 1.358 . S
C133 H139 0.930 . S
C134 C132 1.353 . S
C134 C137 1.348 . S
C134 H172 0.929 . S
N135 Li90 1.990 . S
N135 C132 1.314 . S
N135 C133 1.279 . S
C136 C133 1.358 . S
C136 C137 1.356 . S
C136 H173 0.930 . S
C137 C134 1.348 . S
C137 C136 1.356 . S
H138 C132 0.930 . S
H139 C133 0.930 . S
C140 N141 1.314 . S
C140 C142 1.353 . S
C140 H146 0.930 . S
N141 Li91 1.990 . S
N141 C140 1.314 . S
N141 C144 1.279 . S
C142 C140 1.353 . S
C142 C145 1.348 . S
C142 H174 0.929 . S
C143 C144 1.358 . S
C143 C145 1.356 . S
C143 H175 0.930 . S
C144 N141 1.279 . S
C144 C143 1.358 . S
C144 H147 0.930 . S
C145 C142 1.348 . S
C145 C143 1.356 . S
H146 C140 0.930 . S
H147 C144 0.930 . S
O148 Li88 1.956 . S
O148 Li89 1.970 . S
O148 Li90 1.961 . S
O148 C92 1.325 . S
O149 Li88 1.970 . S
O149 Li89 1.956 . S
O149 Li91 1.961 . S
O149 C98 1.325 . S
O150 Li88 1.961 . S
O150 Li90 1.956 . S
O150 Li91 1.970 . S
O150 C120 1.325 . S
O151 Li89 1.961 . S
O151 Li90 1.970 . S
O151 Li91 1.956 . S
O151 C126 1.325 . S
H152 C94 0.929 . S
H153 C95 0.930 . S
H154 C96 0.930 . S
H155 C97 0.930 . S
H156 C99 0.930 . S
H157 C101 0.929 . S
H158 C102 0.930 . S
H159 C103 0.930 . S
H160 C106 0.930 . S
H161 C109 0.929 . S
H162 C114 0.929 . S
H163 C115 0.930 . S
H164 C122 0.929 . S
H165 C123 0.930 . S
H166 C124 0.930 . S
H167 C125 0.930 . S
H168 C127 0.929 . S
H169 C128 0.930 . S
H170 C129 0.930 . S
H171 C130 0.930 . S
H172 C134 0.929 . S
H173 C136 0.930 . S
H174 C142 0.929 . S
H175 C143 0.930 . S
Li176 N193 1.990 . S
Li176 O236 1.956 . S
Li176 O237 1.970 . S
Li176 O238 1.961 . S
Li177 N201 1.990 . S
Li177 O236 1.970 . S
Li177 O237 1.956 . S
Li177 O239 1.961 . S
Li178 N223 1.990 . S
Li178 O236 1.961 . S
Li178 O238 1.956 . S
Li178 O239 1.970 . S
Li179 N229 1.990 . S
Li179 O237 1.961 . S
Li179 O238 1.970 . S
Li179 O239 1.956 . S
C180 C182 1.348 . S
C180 C183 1.356 . S
C180 O236 1.325 . S
N181 C184 1.314 . S
N181 C185 1.279 . S
C182 C180 1.348 . S
C182 C184 1.353 . S
C182 H240 0.929 . S
C183 C180 1.356 . S
C183 C185 1.358 . S
C183 H241 0.930 . S
C184 N181 1.314 . S
C184 C182 1.353 . S
C184 H242 0.930 . S
C185 N181 1.279 . S
C185 C183 1.358 . S
C185 H243 0.930 . S
C186 C189 1.348 . S
C186 C190 1.356 . S
C186 O237 1.325 . S
C187 N188 1.279 . S
C187 C190 1.358 . S
C187 H244 0.930 . S
N188 C187 1.279 . S
N188 C191 1.314 . S
C189 C186 1.348 . S
C189 C191 1.353 . S
C189 H245 0.929 . S
C190 C186 1.356 . S
C190 C187 1.358 . S
C190 H246 0.930 . S
C191 N188 1.314 . S
C191 C189 1.353 . S
C191 H247 0.930 . S
C192 N193 1.314 . S
C192 C197 1.353 . S
C192 H198 0.930 . S
N193 Li176 1.990 . S
N193 C192 1.314 . S
N193 C195 1.279 . S
C194 C195 1.358 . S
C194 C196 1.356 . S
C194 H248 0.930 . S
C195 N193 1.279 . S
C195 C194 1.358 . S
C195 H199 0.930 . S
C196 C194 1.356 . S
C196 C197 1.348 . S
C197 C192 1.353 . S
C197 C196 1.348 . S
C197 H249 0.929 . S
H198 C192 0.930 . S
H199 C195 0.930 . S
C200 N201 1.314 . S
C200 C202 1.353 . S
C200 H206 0.930 . S
N201 Li177 1.990 . S
N201 C200 1.314 . S
N201 C204 1.279 . S
C202 C200 1.353 . S
C202 C205 1.348 . S
C202 H250 0.929 . S
C203 C204 1.358 . S
C203 C205 1.356 . S
C203 H251 0.930 . S
C204 N201 1.279 . S
C204 C203 1.358 . S
C204 H207 0.930 . S
C205 C202 1.348 . S
C205 C203 1.356 . S
H206 C200 0.930 . S
H207 C204 0.930 . S
C208 C210 1.348 . S
C208 C211 1.356 . S
C208 O238 1.325 . S
N209 C212 1.314 . S
N209 C213 1.279 . S
C210 C208 1.348 . S
C210 C212 1.353 . S
C210 H252 0.929 . S
C211 C208 1.356 . S
C211 C213 1.358 . S
C211 H253 0.930 . S
C212 N209 1.314 . S
C212 C210 1.353 . S
C212 H254 0.930 . S
C213 N209 1.279 . S
C213 C211 1.358 . S
C213 H255 0.930 . S
C214 C215 1.348 . S
C214 C216 1.356 . S
C214 O239 1.325 . S
C215 C214 1.348 . S
C215 C217 1.353 . S
C215 H256 0.929 . S
C216 C214 1.356 . S
C216 C218 1.358 . S
C216 H257 0.930 . S
C217 C215 1.353 . S
C217 N219 1.314 . S
C217 H258 0.930 . S
C218 C216 1.358 . S
C218 N219 1.279 . S
C218 H259 0.930 . S
N219 C217 1.314 . S
N219 C218 1.279 . S
C220 C222 1.353 1_655 S
C220 N223 1.314 . S
C220 H226 0.930 . S
C221 N223 1.279 . S
C221 C224 1.358 . S
C221 H227 0.930 . S
C222 C220 1.353 1_455 S
C222 C225 1.348 1_455 S
C222 H260 0.929 . S
N223 Li178 1.990 . S
N223 C220 1.314 . S
N223 C221 1.279 . S
C224 C221 1.358 . S
C224 C225 1.356 . S
C224 H261 0.930 . S
C225 C222 1.348 1_655 S
C225 C224 1.356 . S
H226 C220 0.930 . S
H227 C221 0.930 . S
C228 N229 1.314 . S
C228 C230 1.353 . S
C228 H234 0.930 . S
N229 Li179 1.990 . S
N229 C228 1.314 . S
N229 C232 1.279 . S
C230 C228 1.353 . S
C230 C233 1.348 . S
C230 H262 0.929 . S
C231 C232 1.358 . S
C231 C233 1.356 . S
C231 H263 0.930 . S
C232 N229 1.279 . S
C232 C231 1.358 . S
C232 H235 0.930 . S
C233 C230 1.348 . S
C233 C231 1.356 . S
H234 C228 0.930 . S
H235 C232 0.930 . S
O236 Li176 1.956 . S
O236 Li177 1.970 . S
O236 Li178 1.961 . S
O236 C180 1.325 . S
O237 Li176 1.970 . S
O237 Li177 1.956 . S
O237 Li179 1.961 . S
O237 C186 1.325 . S
O238 Li176 1.961 . S
O238 Li178 1.956 . S
O238 Li179 1.970 . S
O238 C208 1.325 . S
O239 Li177 1.961 . S
O239 Li178 1.970 . S
O239 Li179 1.956 . S
O239 C214 1.325 . S
H240 C182 0.929 . S
H241 C183 0.930 . S
H242 C184 0.930 . S
H243 C185 0.930 . S
H244 C187 0.930 . S
H245 C189 0.929 . S
H246 C190 0.930 . S
H247 C191 0.930 . S
H248 C194 0.930 . S
H249 C197 0.929 . S
H250 C202 0.929 . S
H251 C203 0.930 . S
H252 C210 0.929 . S
H253 C211 0.930 . S
H254 C212 0.930 . S
H255 C213 0.930 . S
H256 C215 0.929 . S
H257 C216 0.930 . S
H258 C217 0.930 . S
H259 C218 0.930 . S
H260 C222 0.929 . S
H261 C224 0.930 . S
H262 C230 0.929 . S
H263 C231 0.930 . S
Li264 N281 1.990 . S
Li264 O324 1.956 . S
Li264 O325 1.970 . S
Li264 O326 1.961 . S
Li265 N289 1.990 . S
Li265 O324 1.970 . S
Li265 O325 1.956 . S
Li265 O327 1.961 . S
Li266 N311 1.990 . S
Li266 O324 1.961 . S
Li266 O326 1.956 . S
Li266 O327 1.970 . S
Li267 N317 1.990 . S
Li267 O325 1.961 . S
Li267 O326 1.970 . S
Li267 O327 1.956 . S
C268 C270 1.348 . S
C268 C271 1.356 . S
C268 O324 1.325 . S
N269 C272 1.314 . S
N269 C273 1.279 . S
C270 C268 1.348 . S
C270 C272 1.353 . S
C270 H328 0.929 . S
C271 C268 1.356 . S
C271 C273 1.358 . S
C271 H329 0.930 . S
C272 N269 1.314 . S
C272 C270 1.353 . S
C272 H330 0.930 . S
C273 N269 1.279 . S
C273 C271 1.358 . S
C273 H331 0.930 . S
C274 C277 1.348 . S
C274 C278 1.356 . S
C274 O325 1.325 . S
C275 N276 1.279 . S
C275 C278 1.358 . S
C275 H332 0.930 . S
N276 C275 1.279 . S
N276 C279 1.314 . S
C277 C274 1.348 . S
C277 C279 1.353 . S
C277 H333 0.929 . S
C278 C274 1.356 . S
C278 C275 1.358 . S
C278 H334 0.930 . S
C279 N276 1.314 . S
C279 C277 1.353 . S
C279 H335 0.930 . S
C280 N281 1.314 . S
C280 C285 1.353 . S
C280 H286 0.930 . S
N281 Li264 1.990 . S
N281 C280 1.314 . S
N281 C283 1.279 . S
C282 C283 1.358 . S
C282 C284 1.356 . S
C282 H336 0.930 . S
C283 N281 1.279 . S
C283 C282 1.358 . S
C283 H287 0.930 . S
C284 C282 1.356 . S
C284 C285 1.348 . S
C285 C280 1.353 . S
C285 C284 1.348 . S
C285 H337 0.929 . S
H286 C280 0.930 . S
H287 C283 0.930 . S
C288 N289 1.314 . S
C288 C290 1.353 . S
C288 H294 0.930 . S
N289 Li265 1.990 . S
N289 C288 1.314 . S
N289 C292 1.279 . S
C290 C288 1.353 . S
C290 C293 1.348 . S
C290 H338 0.929 . S
C291 C292 1.358 . S
C291 C293 1.356 . S
C291 H339 0.930 . S
C292 N289 1.279 . S
C292 C291 1.358 . S
C292 H295 0.930 . S
C293 C290 1.348 . S
C293 C291 1.356 . S
H294 C288 0.930 . S
H295 C292 0.930 . S
C296 C298 1.348 . S
C296 C299 1.356 . S
C296 O326 1.325 . S
N297 C300 1.314 . S
N297 C301 1.279 . S
C298 C296 1.348 . S
C298 C300 1.353 . S
C298 H340 0.929 . S
C299 C296 1.356 . S
C299 C301 1.358 . S
C299 H341 0.930 . S
C300 N297 1.314 . S
C300 C298 1.353 . S
C300 H342 0.930 . S
C301 N297 1.279 . S
C301 C299 1.358 . S
C301 H343 0.930 . S
C302 C303 1.348 . S
C302 C304 1.356 . S
C302 O327 1.325 . S
C303 C302 1.348 . S
C303 C305 1.353 . S
C303 H344 0.929 . S
C304 C302 1.356 . S
C304 C306 1.358 . S
C304 H345 0.930 . S
C305 C303 1.353 . S
C305 N307 1.314 . S
C305 H346 0.930 . S
C306 C304 1.358 . S
C306 N307 1.279 . S
C306 H347 0.930 . S
N307 C305 1.314 . S
N307 C306 1.279 . S
C308 C310 1.353 1_565 S
C308 N311 1.314 . S
C308 H314 0.930 . S
C309 N311 1.279 . S
C309 C312 1.358 . S
C309 H315 0.930 . S
C310 C308 1.353 1_545 S
C310 C313 1.348 1_545 S
C310 H348 0.929 . S
N311 Li266 1.990 . S
N311 C308 1.314 . S
N311 C309 1.279 . S
C312 C309 1.358 . S
C312 C313 1.356 . S
C312 H349 0.930 . S
C313 C310 1.348 1_565 S
C313 C312 1.356 . S
H314 C308 0.930 . S
H315 C309 0.930 . S
C316 N317 1.314 . S
C316 C318 1.353 . S
C316 H322 0.930 . S
N317 Li267 1.990 . S
N317 C316 1.314 . S
N317 C320 1.279 . S
C318 C316 1.353 . S
C318 C321 1.348 . S
C318 H350 0.929 . S
C319 C320 1.358 . S
C319 C321 1.356 . S
C319 H351 0.930 . S
C320 N317 1.279 . S
C320 C319 1.358 . S
C320 H323 0.930 . S
C321 C318 1.348 . S
C321 C319 1.356 . S
H322 C316 0.930 . S
H323 C320 0.930 . S
O324 Li264 1.956 . S
O324 Li265 1.970 . S
O324 Li266 1.961 . S
O324 C268 1.325 . S
O325 Li264 1.970 . S
O325 Li265 1.956 . S
O325 Li267 1.961 . S
O325 C274 1.325 . S
O326 Li264 1.961 . S
O326 Li266 1.956 . S
O326 Li267 1.970 . S
O326 C296 1.325 . S
O327 Li265 1.961 . S
O327 Li266 1.970 . S
O327 Li267 1.956 . S
O327 C302 1.325 . S
H328 C270 0.929 . S
H329 C271 0.930 . S
H330 C272 0.930 . S
H331 C273 0.930 . S
H332 C275 0.930 . S
H333 C277 0.929 . S
H334 C278 0.930 . S
H335 C279 0.930 . S
H336 C282 0.930 . S
H337 C285 0.929 . S
H338 C290 0.929 . S
H339 C291 0.930 . S
H340 C298 0.929 . S
H341 C299 0.930 . S
H342 C300 0.930 . S
H343 C301 0.930 . S
H344 C303 0.929 . S
H345 C304 0.930 . S
H346 C305 0.930 . S
H347 C306 0.930 . S
H348 C310 0.929 . S
H349 C312 0.930 . S
H350 C318 0.929 . S
H351 C319 0.930 . S
Li352 N369 1.990 . S
Li352 O412 1.956 . S
Li352 O413 1.970 . S
Li352 O414 1.961 . S
Li353 N377 1.990 . S
Li353 O412 1.970 . S
Li353 O413 1.956 . S
Li353 O415 1.961 . S
Li354 N399 1.990 . S
Li354 O412 1.961 . S
Li354 O414 1.956 . S
Li354 O415 1.970 . S
Li355 N405 1.990 . S
Li355 O413 1.961 . S
Li355 O414 1.970 . S
Li355 O415 1.956 . S
C356 C358 1.348 . S
C356 C359 1.356 . S
C356 O412 1.325 . S
N357 C360 1.314 . S
N357 C361 1.279 . S
C358 C356 1.348 . S
C358 C360 1.353 . S
C358 H416 0.929 . S
C359 C356 1.356 . S
C359 C361 1.358 . S
C359 H417 0.930 . S
C360 N357 1.314 . S
C360 C358 1.353 . S
C360 H418 0.930 . S
C361 N357 1.279 . S
C361 C359 1.358 . S
C361 H419 0.930 . S
C362 C365 1.348 . S
C362 C366 1.356 . S
C362 O413 1.325 . S
C363 N364 1.279 . S
C363 C366 1.358 . S
C363 H420 0.930 . S
N364 C363 1.279 . S
N364 C367 1.314 . S
C365 C362 1.348 . S
C365 C367 1.353 . S
C365 H421 0.929 . S
C366 C362 1.356 . S
C366 C363 1.358 . S
C366 H422 0.930 . S
C367 N364 1.314 . S
C367 C365 1.353 . S
C367 H423 0.930 . S
C368 N369 1.314 . S
C368 C373 1.353 . S
C368 H374 0.930 . S
N369 Li352 1.990 . S
N369 C368 1.314 . S
N369 C371 1.279 . S
C370 C371 1.358 . S
C370 C372 1.356 . S
C370 H424 0.930 . S
C371 N369 1.279 . S
C371 C370 1.358 . S
C371 H375 0.930 . S
C372 C370 1.356 . S
C372 C373 1.348 . S
C373 C368 1.353 . S
C373 C372 1.348 . S
C373 H425 0.929 . S
H374 C368 0.930 . S
H375 C371 0.930 . S
C376 N377 1.314 . S
C376 C378 1.353 . S
C376 H382 0.930 . S
N377 Li353 1.990 . S
N377 C376 1.314 . S
N377 C380 1.279 . S
C378 C376 1.353 . S
C378 C381 1.348 . S
C378 H426 0.929 . S
C379 C380 1.358 . S
C379 C381 1.356 . S
C379 H427 0.930 . S
C380 N377 1.279 . S
C380 C379 1.358 . S
C380 H383 0.930 . S
C381 C378 1.348 . S
C381 C379 1.356 . S
H382 C376 0.930 . S
H383 C380 0.930 . S
C384 C386 1.348 . S
C384 C387 1.356 . S
C384 O414 1.325 . S
N385 C388 1.314 . S
N385 C389 1.279 . S
C386 C384 1.348 . S
C386 C388 1.353 . S
C386 H428 0.929 . S
C387 C384 1.356 . S
C387 C389 1.358 . S
C387 H429 0.930 . S
C388 N385 1.314 . S
C388 C386 1.353 . S
C388 H430 0.930 . S
C389 N385 1.279 . S
C389 C387 1.358 . S
C389 H431 0.930 . S
C390 C391 1.348 . S
C390 C392 1.356 . S
C390 O415 1.325 . S
C391 C390 1.348 . S
C391 C393 1.353 . S
C391 H432 0.929 . S
C392 C390 1.356 . S
C392 C394 1.358 . S
C392 H433 0.930 . S
C393 C391 1.353 . S
C393 N395 1.314 . S
C393 H434 0.930 . S
C394 C392 1.358 . S
C394 N395 1.279 . S
C394 H435 0.930 . S
N395 C393 1.314 . S
N395 C394 1.279 . S
C396 C398 1.353 . S
C396 N399 1.314 . S
C396 H402 0.930 . S
C397 N399 1.279 . S
C397 C400 1.358 . S
C397 H403 0.930 . S
C398 C396 1.353 . S
C398 C401 1.348 . S
C398 H436 0.929 . S
N399 Li354 1.990 . S
N399 C396 1.314 . S
N399 C397 1.279 . S
C400 C397 1.358 . S
C400 C401 1.356 . S
C400 H437 0.930 . S
C401 C398 1.348 . S
C401 C400 1.356 . S
H402 C396 0.930 . S
H403 C397 0.930 . S
C404 N405 1.314 . S
C404 C406 1.353 . S
C404 H410 0.930 . S
N405 Li355 1.990 . S
N405 C404 1.314 . S
N405 C408 1.279 . S
C406 C404 1.353 . S
C406 C409 1.348 . S
C406 H438 0.929 . S
C407 C408 1.358 . S
C407 C409 1.356 . S
C407 H439 0.930 . S
C408 N405 1.279 . S
C408 C407 1.358 . S
C408 H411 0.930 . S
C409 C406 1.348 . S
C409 C407 1.356 . S
H410 C404 0.930 . S
H411 C408 0.930 . S
O412 Li352 1.956 . S
O412 Li353 1.970 . S
O412 Li354 1.961 . S
O412 C356 1.325 . S
O413 Li352 1.970 . S
O413 Li353 1.956 . S
O413 Li355 1.961 . S
O413 C362 1.325 . S
O414 Li352 1.961 . S
O414 Li354 1.956 . S
O414 Li355 1.970 . S
O414 C384 1.325 . S
O415 Li353 1.961 . S
O415 Li354 1.970 . S
O415 Li355 1.956 . S
O415 C390 1.325 . S
H416 C358 0.929 . S
H417 C359 0.930 . S
H418 C360 0.930 . S
H419 C361 0.930 . S
H420 C363 0.930 . S
H421 C365 0.929 . S
H422 C366 0.930 . S
H423 C367 0.930 . S
H424 C370 0.930 . S
H425 C373 0.929 . S
H426 C378 0.929 . S
H427 C379 0.930 . S
H428 C386 0.929 . S
H429 C387 0.930 . S
H430 C388 0.930 . S
H431 C389 0.930 . S
H432 C391 0.929 . S
H433 C392 0.930 . S
H434 C393 0.930 . S
H435 C394 0.930 . S
H436 C398 0.929 . S
H437 C400 0.930 . S
H438 C406 0.929 . S
H439 C407 0.930 . S
Li440 N457 1.990 . S
Li440 O500 1.956 . S
Li440 O501 1.970 . S
Li440 O502 1.961 . S
Li441 N465 1.990 . S
Li441 O500 1.970 . S
Li441 O501 1.956 . S
Li441 O503 1.961 . S
Li442 N487 1.990 . S
Li442 O500 1.961 . S
Li442 O502 1.956 . S
Li442 O503 1.970 . S
Li443 N493 1.990 . S
Li443 O501 1.961 . S
Li443 O502 1.970 . S
Li443 O503 1.956 . S
C444 C446 1.348 . S
C444 C447 1.356 . S
C444 O500 1.325 . S
N445 C448 1.314 . S
N445 C449 1.279 . S
C446 C444 1.348 . S
C446 C448 1.353 . S
C446 H504 0.929 . S
C447 C444 1.356 . S
C447 C449 1.358 . S
C447 H505 0.930 . S
C448 N445 1.314 . S
C448 C446 1.353 . S
C448 H506 0.930 . S
C449 N445 1.279 . S
C449 C447 1.358 . S
C449 H507 0.930 . S
C450 C453 1.348 . S
C450 C454 1.356 . S
C450 O501 1.325 . S
C451 N452 1.279 . S
C451 C454 1.358 . S
C451 H508 0.930 . S
N452 C451 1.279 . S
N452 C455 1.314 . S
C453 C450 1.348 . S
C453 C455 1.353 . S
C453 H509 0.929 . S
C454 C450 1.356 . S
C454 C451 1.358 . S
C454 H510 0.930 . S
C455 N452 1.314 . S
C455 C453 1.353 . S
C455 H511 0.930 . S
C456 N457 1.314 . S
C456 C461 1.353 1_455 S
C456 H462 0.930 . S
N457 Li440 1.990 . S
N457 C456 1.314 . S
N457 C459 1.279 . S
C458 C459 1.358 . S
C458 C460 1.356 . S
C458 H512 0.930 . S
C459 N457 1.279 . S
C459 C458 1.358 . S
C459 H463 0.930 . S
C460 C458 1.356 . S
C460 C461 1.348 1_455 S
C461 C456 1.353 1_655 S
C461 C460 1.348 1_655 S
C461 H513 0.929 . S
H462 C456 0.930 . S
H463 C459 0.930 . S
C464 N465 1.314 . S
C464 C466 1.353 . S
C464 H470 0.930 . S
N465 Li441 1.990 . S
N465 C464 1.314 . S
N465 C468 1.279 . S
C466 C464 1.353 . S
C466 C469 1.348 . S
C466 H514 0.929 . S
C467 C468 1.358 . S
C467 C469 1.356 . S
C467 H515 0.930 . S
C468 N465 1.279 . S
C468 C467 1.358 . S
C468 H471 0.930 . S
C469 C466 1.348 . S
C469 C467 1.356 . S
H470 C464 0.930 . S
H471 C468 0.930 . S
C472 C474 1.348 . S
C472 C475 1.356 . S
C472 O502 1.325 . S
N473 C476 1.314 . S
N473 C477 1.279 . S
C474 C472 1.348 . S
C474 C476 1.353 . S
C474 H516 0.929 . S
C475 C472 1.356 . S
C475 C477 1.358 . S
C475 H517 0.930 . S
C476 N473 1.314 . S
C476 C474 1.353 . S
C476 H518 0.930 . S
C477 N473 1.279 . S
C477 C475 1.358 . S
C477 H519 0.930 . S
C478 C479 1.348 . S
C478 C480 1.356 . S
C478 O503 1.325 . S
C479 C478 1.348 . S
C479 C481 1.353 . S
C479 H520 0.929 . S
C480 C478 1.356 . S
C480 C482 1.358 . S
C480 H521 0.930 . S
C481 C479 1.353 . S
C481 N483 1.314 . S
C481 H522 0.930 . S
C482 C480 1.358 . S
C482 N483 1.279 . S
C482 H523 0.930 . S
N483 C481 1.314 . S
N483 C482 1.279 . S
C484 C486 1.353 . S
C484 N487 1.314 . S
C484 H490 0.930 . S
C485 N487 1.279 . S
C485 C488 1.358 . S
C485 H491 0.930 . S
C486 C484 1.353 . S
C486 C489 1.348 . S
C486 H524 0.929 . S
N487 Li442 1.990 . S
N487 C484 1.314 . S
N487 C485 1.279 . S
C488 C485 1.358 . S
C488 C489 1.356 . S
C488 H525 0.930 . S
C489 C486 1.348 . S
C489 C488 1.356 . S
H490 C484 0.930 . S
H491 C485 0.930 . S
C492 N493 1.314 . S
C492 C494 1.353 . S
C492 H498 0.930 . S
N493 Li443 1.990 . S
N493 C492 1.314 . S
N493 C496 1.279 . S
C494 C492 1.353 . S
C494 C497 1.348 . S
C494 H526 0.929 . S
C495 C496 1.358 . S
C495 C497 1.356 . S
C495 H527 0.930 . S
C496 N493 1.279 . S
C496 C495 1.358 . S
C496 H499 0.930 . S
C497 C494 1.348 . S
C497 C495 1.356 . S
H498 C492 0.930 . S
H499 C496 0.930 . S
O500 Li440 1.956 . S
O500 Li441 1.970 . S
O500 Li442 1.961 . S
O500 C444 1.325 . S
O501 Li440 1.970 . S
O501 Li441 1.956 . S
O501 Li443 1.961 . S
O501 C450 1.325 . S
O502 Li440 1.961 . S
O502 Li442 1.956 . S
O502 Li443 1.970 . S
O502 C472 1.325 . S
O503 Li441 1.961 . S
O503 Li442 1.970 . S
O503 Li443 1.956 . S
O503 C478 1.325 . S
H504 C446 0.929 . S
H505 C447 0.930 . S
H506 C448 0.930 . S
H507 C449 0.930 . S
H508 C451 0.930 . S
H509 C453 0.929 . S
H510 C454 0.930 . S
H511 C455 0.930 . S
H512 C458 0.930 . S
H513 C461 0.929 . S
H514 C466 0.929 . S
H515 C467 0.930 . S
H516 C474 0.929 . S
H517 C475 0.930 . S
H518 C476 0.930 . S
H519 C477 0.930 . S
H520 C479 0.929 . S
H521 C480 0.930 . S
H522 C481 0.930 . S
H523 C482 0.930 . S
H524 C486 0.929 . S
H525 C488 0.930 . S
H526 C494 0.929 . S
H527 C495 0.930 . S
Li528 N545 1.990 . S
Li528 O588 1.956 . S
Li528 O589 1.970 . S
Li528 O590 1.961 . S
Li529 N553 1.990 . S
Li529 O588 1.970 . S
Li529 O589 1.956 . S
Li529 O591 1.961 . S
Li530 N575 1.990 . S
Li530 O588 1.961 . S
Li530 O590 1.956 . S
Li530 O591 1.970 . S
Li531 N581 1.990 . S
Li531 O589 1.961 . S
Li531 O590 1.970 . S
Li531 O591 1.956 . S
C532 C534 1.348 . S
C532 C535 1.356 . S
C532 O588 1.325 . S
N533 C536 1.314 . S
N533 C537 1.279 . S
C534 C532 1.348 . S
C534 C536 1.353 . S
C534 H592 0.929 . S
C535 C532 1.356 . S
C535 C537 1.358 . S
C535 H593 0.930 . S
C536 N533 1.314 . S
C536 C534 1.353 . S
C536 H594 0.930 . S
C537 N533 1.279 . S
C537 C535 1.358 . S
C537 H595 0.930 . S
C538 C541 1.348 . S
C538 C542 1.356 . S
C538 O589 1.325 . S
C539 N540 1.279 . S
C539 C542 1.358 . S
C539 H596 0.930 . S
N540 C539 1.279 . S
N540 C543 1.314 . S
C541 C538 1.348 . S
C541 C543 1.353 . S
C541 H597 0.929 . S
C542 C538 1.356 . S
C542 C539 1.358 . S
C542 H598 0.930 . S
C543 N540 1.314 . S
C543 C541 1.353 . S
C543 H599 0.930 . S
C544 N545 1.314 . S
C544 C549 1.353 . S
C544 H550 0.930 . S
N545 Li528 1.990 . S
N545 C544 1.314 . S
N545 C547 1.279 . S
C546 C547 1.358 . S
C546 C548 1.356 . S
C546 H600 0.930 . S
C547 N545 1.279 . S
C547 C546 1.358 . S
C547 H551 0.930 . S
C548 C546 1.356 . S
C548 C549 1.348 . S
C549 C544 1.353 . S
C549 C548 1.348 . S
C549 H601 0.929 . S
H550 C544 0.930 . S
H551 C547 0.930 . S
C552 N553 1.314 . S
C552 C554 1.353 1_655 S
C552 H558 0.930 . S
N553 Li529 1.990 . S
N553 C552 1.314 . S
N553 C556 1.279 . S
C554 C552 1.353 1_455 S
C554 C557 1.348 1_455 S
C554 H602 0.929 . S
C555 C556 1.358 . S
C555 C557 1.356 . S
C555 H603 0.930 . S
C556 N553 1.279 . S
C556 C555 1.358 . S
C556 H559 0.930 . S
C557 C554 1.348 1_655 S
C557 C555 1.356 . S
H558 C552 0.930 . S
H559 C556 0.930 . S
C560 C562 1.348 . S
C560 C563 1.356 . S
C560 O590 1.325 . S
N561 C564 1.314 . S
N561 C565 1.279 . S
C562 C560 1.348 . S
C562 C564 1.353 . S
C562 H604 0.929 . S
C563 C560 1.356 . S
C563 C565 1.358 . S
C563 H605 0.930 . S
C564 N561 1.314 . S
C564 C562 1.353 . S
C564 H606 0.930 . S
C565 N561 1.279 . S
C565 C563 1.358 . S
C565 H607 0.930 . S
C566 C567 1.348 . S
C566 C568 1.356 . S
C566 O591 1.325 . S
C567 C566 1.348 . S
C567 C569 1.353 . S
C567 H608 0.929 . S
C568 C566 1.356 . S
C568 C570 1.358 . S
C568 H609 0.930 . S
C569 C567 1.353 . S
C569 N571 1.314 . S
C569 H610 0.930 . S
C570 C568 1.358 . S
C570 N571 1.279 . S
C570 H611 0.930 . S
N571 C569 1.314 . S
N571 C570 1.279 . S
C572 C574 1.353 . S
C572 N575 1.314 . S
C572 H578 0.930 . S
C573 N575 1.279 . S
C573 C576 1.358 . S
C573 H579 0.930 . S
C574 C572 1.353 . S
C574 C577 1.348 . S
C574 H612 0.929 . S
N575 Li530 1.990 . S
N575 C572 1.314 . S
N575 C573 1.279 . S
C576 C573 1.358 . S
C576 C577 1.356 . S
C576 H613 0.930 . S
C577 C574 1.348 . S
C577 C576 1.356 . S
H578 C572 0.930 . S
H579 C573 0.930 . S
C580 N581 1.314 . S
C580 C582 1.353 . S
C580 H586 0.930 . S
N581 Li531 1.990 . S
N581 C580 1.314 . S
N581 C584 1.279 . S
C582 C580 1.353 . S
C582 C585 1.348 . S
C582 H614 0.929 . S
C583 C584 1.358 . S
C583 C585 1.356 . S
C583 H615 0.930 . S
C584 N581 1.279 . S
C584 C583 1.358 . S
C584 H587 0.930 . S
C585 C582 1.348 . S
C585 C583 1.356 . S
H586 C580 0.930 . S
H587 C584 0.930 . S
O588 Li528 1.956 . S
O588 Li529 1.970 . S
O588 Li530 1.961 . S
O588 C532 1.325 . S
O589 Li528 1.970 . S
O589 Li529 1.956 . S
O589 Li531 1.961 . S
O589 C538 1.325 . S
O590 Li528 1.961 . S
O590 Li530 1.956 . S
O590 Li531 1.970 . S
O590 C560 1.325 . S
O591 Li529 1.961 . S
O591 Li530 1.970 . S
O591 Li531 1.956 . S
O591 C566 1.325 . S
H592 C534 0.929 . S
H593 C535 0.930 . S
H594 C536 0.930 . S
H595 C537 0.930 . S
H596 C539 0.930 . S
H597 C541 0.929 . S
H598 C542 0.930 . S
H599 C543 0.930 . S
H600 C546 0.930 . S
H601 C549 0.929 . S
H602 C554 0.929 . S
H603 C555 0.930 . S
H604 C562 0.929 . S
H605 C563 0.930 . S
H606 C564 0.930 . S
H607 C565 0.930 . S
H608 C567 0.929 . S
H609 C568 0.930 . S
H610 C569 0.930 . S
H611 C570 0.930 . S
H612 C574 0.929 . S
H613 C576 0.930 . S
H614 C582 0.929 . S
H615 C583 0.930 . S
Li616 N633 1.990 . S
Li616 O676 1.956 . S
Li616 O677 1.970 . S
Li616 O678 1.961 . S
Li617 N641 1.990 . S
Li617 O676 1.970 . S
Li617 O677 1.956 . S
Li617 O679 1.961 . S
Li618 N663 1.990 . S
Li618 O676 1.961 . S
Li618 O678 1.956 . S
Li618 O679 1.970 . S
Li619 N669 1.990 . S
Li619 O677 1.961 . S
Li619 O678 1.970 . S
Li619 O679 1.956 . S
C620 C622 1.348 . S
C620 C623 1.356 . S
C620 O676 1.325 . S
N621 C624 1.314 . S
N621 C625 1.279 . S
C622 C620 1.348 . S
C622 C624 1.353 . S
C622 H680 0.929 . S
C623 C620 1.356 . S
C623 C625 1.358 . S
C623 H681 0.930 . S
C624 N621 1.314 . S
C624 C622 1.353 . S
C624 H682 0.930 . S
C625 N621 1.279 . S
C625 C623 1.358 . S
C625 H683 0.930 . S
C626 C629 1.348 . S
C626 C630 1.356 . S
C626 O677 1.325 . S
C627 N628 1.279 . S
C627 C630 1.358 . S
C627 H684 0.930 . S
N628 C627 1.279 . S
N628 C631 1.314 . S
C629 C626 1.348 . S
C629 C631 1.353 . S
C629 H685 0.929 . S
C630 C626 1.356 . S
C630 C627 1.358 . S
C630 H686 0.930 . S
C631 N628 1.314 . S
C631 C629 1.353 . S
C631 H687 0.930 . S
C632 N633 1.314 . S
C632 C637 1.353 . S
C632 H638 0.930 . S
N633 Li616 1.990 . S
N633 C632 1.314 . S
N633 C635 1.279 . S
C634 C635 1.358 . S
C634 C636 1.356 . S
C634 H688 0.930 . S
C635 N633 1.279 . S
C635 C634 1.358 . S
C635 H639 0.930 . S
C636 C634 1.356 . S
C636 C637 1.348 . S
C637 C632 1.353 . S
C637 C636 1.348 . S
C637 H689 0.929 . S
H638 C632 0.930 . S
H639 C635 0.930 . S
C640 N641 1.314 . S
C640 C642 1.353 . S
C640 H646 0.930 . S
N641 Li617 1.990 . S
N641 C640 1.314 . S
N641 C644 1.279 . S
C642 C640 1.353 . S
C642 C645 1.348 . S
C642 H690 0.929 . S
C643 C644 1.358 . S
C643 C645 1.356 . S
C643 H691 0.930 . S
C644 N641 1.279 . S
C644 C643 1.358 . S
C644 H647 0.930 . S
C645 C642 1.348 . S
C645 C643 1.356 . S
H646 C640 0.930 . S
H647 C644 0.930 . S
C648 C650 1.348 . S
C648 C651 1.356 . S
C648 O678 1.325 . S
N649 C652 1.314 . S
N649 C653 1.279 . S
C650 C648 1.348 . S
C650 C652 1.353 . S
C650 H692 0.929 . S
C651 C648 1.356 . S
C651 C653 1.358 . S
C651 H693 0.930 . S
C652 N649 1.314 . S
C652 C650 1.353 . S
C652 H694 0.930 . S
C653 N649 1.279 . S
C653 C651 1.358 . S
C653 H695 0.930 . S
C654 C655 1.348 . S
C654 C656 1.356 . S
C654 O679 1.325 . S
C655 C654 1.348 . S
C655 C657 1.353 . S
C655 H696 0.929 . S
C656 C654 1.356 . S
C656 C658 1.358 . S
C656 H697 0.930 . S
C657 C655 1.353 . S
C657 N659 1.314 . S
C657 H698 0.930 . S
C658 C656 1.358 . S
C658 N659 1.279 . S
C658 H699 0.930 . S
N659 C657 1.314 . S
N659 C658 1.279 . S
C660 C662 1.353 . S
C660 N663 1.314 . S
C660 H666 0.930 . S
C661 N663 1.279 . S
C661 C664 1.358 . S
C661 H667 0.930 . S
C662 C660 1.353 . S
C662 C665 1.348 . S
C662 H700 0.929 . S
N663 Li618 1.990 . S
N663 C660 1.314 . S
N663 C661 1.279 . S
C664 C661 1.358 . S
C664 C665 1.356 . S
C664 H701 0.930 . S
C665 C662 1.348 . S
C665 C664 1.356 . S
H666 C660 0.930 . S
H667 C661 0.930 . S
C668 N669 1.314 . S
C668 C670 1.353 1_565 S
C668 H674 0.930 . S
N669 Li619 1.990 . S
N669 C668 1.314 . S
N669 C672 1.279 . S
C670 C668 1.353 1_545 S
C670 C673 1.348 1_545 S
C670 H702 0.929 . S
C671 C672 1.358 . S
C671 C673 1.356 . S
C671 H703 0.930 . S
C672 N669 1.279 . S
C672 C671 1.358 . S
C672 H675 0.930 . S
C673 C670 1.348 1_565 S
C673 C671 1.356 . S
H674 C668 0.930 . S
H675 C672 0.930 . S
O676 Li616 1.956 . S
O676 Li617 1.970 . S
O676 Li618 1.961 . S
O676 C620 1.325 . S
O677 Li616 1.970 . S
O677 Li617 1.956 . S
O677 Li619 1.961 . S
O677 C626 1.325 . S
O678 Li616 1.961 . S
O678 Li618 1.956 . S
O678 Li619 1.970 . S
O678 C648 1.325 . S
O679 Li617 1.961 . S
O679 Li618 1.970 . S
O679 Li619 1.956 . S
O679 C654 1.325 . S
H680 C622 0.929 . S
H681 C623 0.930 . S
H682 C624 0.930 . S
H683 C625 0.930 . S
H684 C627 0.930 . S
H685 C629 0.929 . S
H686 C630 0.930 . S
H687 C631 0.930 . S
H688 C634 0.930 . S
H689 C637 0.929 . S
H690 C642 0.929 . S
H691 C643 0.930 . S
H692 C650 0.929 . S
H693 C651 0.930 . S
H694 C652 0.930 . S
H695 C653 0.930 . S
H696 C655 0.929 . S
H697 C656 0.930 . S
H698 C657 0.930 . S
H699 C658 0.930 . S
H700 C662 0.929 . S
H701 C664 0.930 . S
H702 C670 0.929 . S
H703 C671 0.930 . S
Li704 N721 1.990 . S
Li704 O764 1.956 . S
Li704 O765 1.970 . S
Li704 O766 1.961 . S
Li705 N729 1.990 . S
Li705 O764 1.970 . S
Li705 O765 1.956 . S
Li705 O767 1.961 . S
Li706 N751 1.990 . S
Li706 O764 1.961 . S
Li706 O766 1.956 . S
Li706 O767 1.970 . S
Li707 N757 1.990 . S
Li707 O765 1.961 . S
Li707 O766 1.970 . S
Li707 O767 1.956 . S
C708 C710 1.348 . S
C708 C711 1.356 . S
C708 O764 1.325 . S
N709 C712 1.314 . S
N709 C713 1.279 . S
C710 C708 1.348 . S
C710 C712 1.353 . S
C710 H768 0.929 . S
C711 C708 1.356 . S
C711 C713 1.358 . S
C711 H769 0.930 . S
C712 N709 1.314 . S
C712 C710 1.353 . S
C712 H770 0.930 . S
C713 N709 1.279 . S
C713 C711 1.358 . S
C713 H771 0.930 . S
C714 C717 1.348 . S
C714 C718 1.356 . S
C714 O765 1.325 . S
C715 N716 1.279 . S
C715 C718 1.358 . S
C715 H772 0.930 . S
N716 C715 1.279 . S
N716 C719 1.314 . S
C717 C714 1.348 . S
C717 C719 1.353 . S
C717 H773 0.929 . S
C718 C714 1.356 . S
C718 C715 1.358 . S
C718 H774 0.930 . S
C719 N716 1.314 . S
C719 C717 1.353 . S
C719 H775 0.930 . S
C720 N721 1.314 . S
C720 C725 1.353 . S
C720 H726 0.930 . S
N721 Li704 1.990 . S
N721 C720 1.314 . S
N721 C723 1.279 . S
C722 C723 1.358 . S
C722 C724 1.356 . S
C722 H776 0.930 . S
C723 N721 1.279 . S
C723 C722 1.358 . S
C723 H727 0.930 . S
C724 C722 1.356 . S
C724 C725 1.348 . S
C725 C720 1.353 . S
C725 C724 1.348 . S
C725 H777 0.929 . S
H726 C720 0.930 . S
H727 C723 0.930 . S
C728 N729 1.314 . S
C728 C730 1.353 . S
C728 H734 0.930 . S
N729 Li705 1.990 . S
N729 C728 1.314 . S
N729 C732 1.279 . S
C730 C728 1.353 . S
C730 C733 1.348 . S
C730 H778 0.929 . S
C731 C732 1.358 . S
C731 C733 1.356 . S
C731 H779 0.930 . S
C732 N729 1.279 . S
C732 C731 1.358 . S
C732 H735 0.930 . S
C733 C730 1.348 . S
C733 C731 1.356 . S
H734 C728 0.930 . S
H735 C732 0.930 . S
C736 C738 1.348 . S
C736 C739 1.356 . S
C736 O766 1.325 . S
N737 C740 1.314 . S
N737 C741 1.279 . S
C738 C736 1.348 . S
C738 C740 1.353 . S
C738 H780 0.929 . S
C739 C736 1.356 . S
C739 C741 1.358 . S
C739 H781 0.930 . S
C740 N737 1.314 . S
C740 C738 1.353 . S
C740 H782 0.930 . S
C741 N737 1.279 . S
C741 C739 1.358 . S
C741 H783 0.930 . S
C742 C743 1.348 . S
C742 C744 1.356 . S
C742 O767 1.325 . S
C743 C742 1.348 . S
C743 C745 1.353 . S
C743 H784 0.929 . S
C744 C742 1.356 . S
C744 C746 1.358 . S
C744 H785 0.930 . S
C745 C743 1.353 . S
C745 N747 1.314 . S
C745 H786 0.930 . S
C746 C744 1.358 . S
C746 N747 1.279 . S
C746 H787 0.930 . S
N747 C745 1.314 . S
N747 C746 1.279 . S
C748 C750 1.353 . S
C748 N751 1.314 . S
C748 H754 0.930 . S
C749 N751 1.279 . S
C749 C752 1.358 . S
C749 H755 0.930 . S
C750 C748 1.353 . S
C750 C753 1.348 . S
C750 H788 0.929 . S
N751 Li706 1.990 . S
N751 C748 1.314 . S
N751 C749 1.279 . S
C752 C749 1.358 . S
C752 C753 1.356 . S
C752 H789 0.930 . S
C753 C750 1.348 . S
C753 C752 1.356 . S
H754 C748 0.930 . S
H755 C749 0.930 . S
C756 N757 1.314 . S
C756 C758 1.353 . S
C756 H762 0.930 . S
N757 Li707 1.990 . S
N757 C756 1.314 . S
N757 C760 1.279 . S
C758 C756 1.353 . S
C758 C761 1.348 . S
C758 H790 0.929 . S
C759 C760 1.358 . S
C759 C761 1.356 . S
C759 H791 0.930 . S
C760 N757 1.279 . S
C760 C759 1.358 . S
C760 H763 0.930 . S
C761 C758 1.348 . S
C761 C759 1.356 . S
H762 C756 0.930 . S
H763 C760 0.930 . S
O764 Li704 1.956 . S
O764 Li705 1.970 . S
O764 Li706 1.961 . S
O764 C708 1.325 . S
O765 Li704 1.970 . S
O765 Li705 1.956 . S
O765 Li707 1.961 . S
O765 C714 1.325 . S
O766 Li704 1.961 . S
O766 Li706 1.956 . S
O766 Li707 1.970 . S
O766 C736 1.325 . S
O767 Li705 1.961 . S
O767 Li706 1.970 . S
O767 Li707 1.956 . S
O767 C742 1.325 . S
H768 C710 0.929 . S
H769 C711 0.930 . S
H770 C712 0.930 . S
H771 C713 0.930 . S
H772 C715 0.930 . S
H773 C717 0.929 . S
H774 C718 0.930 . S
H775 C719 0.930 . S
H776 C722 0.930 . S
H777 C725 0.929 . S
H778 C730 0.929 . S
H779 C731 0.930 . S
H780 C738 0.929 . S
H781 C739 0.930 . S
H782 C740 0.930 . S
H783 C741 0.930 . S
H784 C743 0.929 . S
H785 C744 0.930 . S
H786 C745 0.930 . S
H787 C746 0.930 . S
H788 C750 0.929 . S
H789 C752 0.930 . S
H790 C758 0.929 . S
H791 C759 0.930 . S
Li792 N809 1.990 . S
Li792 O852 1.956 . S
Li792 O853 1.970 . S
Li792 O854 1.961 . S
Li793 N817 1.990 . S
Li793 O852 1.970 . S
Li793 O853 1.956 . S
Li793 O855 1.961 . S
Li794 N839 1.990 . S
Li794 O852 1.961 . S
Li794 O854 1.956 . S
Li794 O855 1.970 . S
Li795 N845 1.990 . S
Li795 O853 1.961 . S
Li795 O854 1.970 . S
Li795 O855 1.956 . S
C796 C798 1.348 . S
C796 C799 1.356 . S
C796 O852 1.325 . S
N797 C800 1.314 . S
N797 C801 1.279 . S
C798 C796 1.348 . S
C798 C800 1.353 . S
C798 H856 0.929 . S
C799 C796 1.356 . S
C799 C801 1.358 . S
C799 H857 0.930 . S
C800 N797 1.314 . S
C800 C798 1.353 . S
C800 H858 0.930 . S
C801 N797 1.279 . S
C801 C799 1.358 . S
C801 H859 0.930 . S
C802 C805 1.348 . S
C802 C806 1.356 . S
C802 O853 1.325 . S
C803 N804 1.279 . S
C803 C806 1.358 . S
C803 H860 0.930 . S
N804 C803 1.279 . S
N804 C807 1.314 . S
C805 C802 1.348 . S
C805 C807 1.353 . S
C805 H861 0.929 . S
C806 C802 1.356 . S
C806 C803 1.358 . S
C806 H862 0.930 . S
C807 N804 1.314 . S
C807 C805 1.353 . S
C807 H863 0.930 . S
C808 N809 1.314 . S
C808 C813 1.353 . S
C808 H814 0.930 . S
N809 Li792 1.990 . S
N809 C808 1.314 . S
N809 C811 1.279 . S
C810 C811 1.358 . S
C810 C812 1.356 . S
C810 H864 0.930 . S
C811 N809 1.279 . S
C811 C810 1.358 . S
C811 H815 0.930 . S
C812 C810 1.356 . S
C812 C813 1.348 . S
C813 C808 1.353 . S
C813 C812 1.348 . S
C813 H865 0.929 . S
H814 C808 0.930 . S
H815 C811 0.930 . S
C816 N817 1.314 . S
C816 C818 1.353 . S
C816 H822 0.930 . S
N817 Li793 1.990 . S
N817 C816 1.314 . S
N817 C820 1.279 . S
C818 C816 1.353 . S
C818 C821 1.348 . S
C818 H866 0.929 . S
C819 C820 1.358 . S
C819 C821 1.356 . S
C819 H867 0.930 . S
C820 N817 1.279 . S
C820 C819 1.358 . S
C820 H823 0.930 . S
C821 C818 1.348 . S
C821 C819 1.356 . S
H822 C816 0.930 . S
H823 C820 0.930 . S
C824 C826 1.348 . S
C824 C827 1.356 . S
C824 O854 1.325 . S
N825 C828 1.314 . S
N825 C829 1.279 . S
C826 C824 1.348 . S
C826 C828 1.353 . S
C826 H868 0.929 . S
C827 C824 1.356 . S
C827 C829 1.358 . S
C827 H869 0.930 . S
C828 N825 1.314 . S
C828 C826 1.353 . S
C828 H870 0.930 . S
C829 N825 1.279 . S
C829 C827 1.358 . S
C829 H871 0.930 . S
C830 C831 1.348 . S
C830 C832 1.356 . S
C830 O855 1.325 . S
C831 C830 1.348 . S
C831 C833 1.353 . S
C831 H872 0.929 . S
C832 C830 1.356 . S
C832 C834 1.358 . S
C832 H873 0.930 . S
C833 C831 1.353 . S
C833 N835 1.314 . S
C833 H874 0.930 . S
C834 C832 1.358 . S
C834 N835 1.279 . S
C834 H875 0.930 . S
N835 C833 1.314 . S
N835 C834 1.279 . S
C836 C838 1.353 . S
C836 N839 1.314 . S
C836 H842 0.930 . S
C837 N839 1.279 . S
C837 C840 1.358 . S
C837 H843 0.930 . S
C838 C836 1.353 . S
C838 C841 1.348 . S
C838 H876 0.929 . S
N839 Li794 1.990 . S
N839 C836 1.314 . S
N839 C837 1.279 . S
C840 C837 1.358 . S
C840 C841 1.356 . S
C840 H877 0.930 . S
C841 C838 1.348 . S
C841 C840 1.356 . S
H842 C836 0.930 . S
H843 C837 0.930 . S
C844 N845 1.314 . S
C844 C846 1.353 1_455 S
C844 H850 0.930 . S
N845 Li795 1.990 . S
N845 C844 1.314 . S
N845 C848 1.279 . S
C846 C844 1.353 1_655 S
C846 C849 1.348 1_655 S
C846 H878 0.929 . S
C847 C848 1.358 . S
C847 C849 1.356 . S
C847 H879 0.930 . S
C848 N845 1.279 . S
C848 C847 1.358 . S
C848 H851 0.930 . S
C849 C846 1.348 1_455 S
C849 C847 1.356 . S
H850 C844 0.930 . S
H851 C848 0.930 . S
O852 Li792 1.956 . S
O852 Li793 1.970 . S
O852 Li794 1.961 . S
O852 C796 1.325 . S
O853 Li792 1.970 . S
O853 Li793 1.956 . S
O853 Li795 1.961 . S
O853 C802 1.325 . S
O854 Li792 1.961 . S
O854 Li794 1.956 . S
O854 Li795 1.970 . S
O854 C824 1.325 . S
O855 Li793 1.961 . S
O855 Li794 1.970 . S
O855 Li795 1.956 . S
O855 C830 1.325 . S
H856 C798 0.929 . S
H857 C799 0.930 . S
H858 C800 0.930 . S
H859 C801 0.930 . S
H860 C803 0.930 . S
H861 C805 0.929 . S
H862 C806 0.930 . S
H863 C807 0.930 . S
H864 C810 0.930 . S
H865 C813 0.929 . S
H866 C818 0.929 . S
H867 C819 0.930 . S
H868 C826 0.929 . S
H869 C827 0.930 . S
H870 C828 0.930 . S
H871 C829 0.930 . S
H872 C831 0.929 . S
H873 C832 0.930 . S
H874 C833 0.930 . S
H875 C834 0.930 . S
H876 C838 0.929 . S
H877 C840 0.930 . S
H878 C846 0.929 . S
H879 C847 0.930 . S
Li880 N897 1.990 . S
Li880 O940 1.956 . S
Li880 O941 1.970 . S
Li880 O942 1.961 . S
Li881 N905 1.990 . S
Li881 O940 1.970 . S
Li881 O941 1.956 . S
Li881 O943 1.961 . S
Li882 N927 1.990 . S
Li882 O940 1.961 . S
Li882 O942 1.956 . S
Li882 O943 1.970 . S
Li883 N933 1.990 . S
Li883 O941 1.961 . S
Li883 O942 1.970 . S
Li883 O943 1.956 . S
C884 C886 1.348 . S
C884 C887 1.356 . S
C884 O940 1.325 . S
N885 C888 1.314 . S
N885 C889 1.279 . S
C886 C884 1.348 . S
C886 C888 1.353 . S
C886 H944 0.929 . S
C887 C884 1.356 . S
C887 C889 1.358 . S
C887 H945 0.930 . S
C888 N885 1.314 . S
C888 C886 1.353 . S
C888 H946 0.930 . S
C889 N885 1.279 . S
C889 C887 1.358 . S
C889 H947 0.930 . S
C890 C893 1.348 . S
C890 C894 1.356 . S
C890 O941 1.325 . S
C891 N892 1.279 . S
C891 C894 1.358 . S
C891 H948 0.930 . S
N892 C891 1.279 . S
N892 C895 1.314 . S
C893 C890 1.348 . S
C893 C895 1.353 . S
C893 H949 0.929 . S
C894 C890 1.356 . S
C894 C891 1.358 . S
C894 H950 0.930 . S
C895 N892 1.314 . S
C895 C893 1.353 . S
C895 H951 0.930 . S
C896 N897 1.314 . S
C896 C901 1.353 . S
C896 H902 0.930 . S
N897 Li880 1.990 . S
N897 C896 1.314 . S
N897 C899 1.279 . S
C898 C899 1.358 . S
C898 C900 1.356 . S
C898 H952 0.930 . S
C899 N897 1.279 . S
C899 C898 1.358 . S
C899 H903 0.930 . S
C900 C898 1.356 . S
C900 C901 1.348 . S
C901 C896 1.353 . S
C901 C900 1.348 . S
C901 H953 0.929 . S
H902 C896 0.930 . S
H903 C899 0.930 . S
C904 N905 1.314 . S
C904 C906 1.353 1_545 S
C904 H910 0.930 . S
N905 Li881 1.990 . S
N905 C904 1.314 . S
N905 C908 1.279 . S
C906 C904 1.353 1_565 S
C906 C909 1.348 1_565 S
C906 H954 0.929 . S
C907 C908 1.358 . S
C907 C909 1.356 . S
C907 H955 0.930 . S
C908 N905 1.279 . S
C908 C907 1.358 . S
C908 H911 0.930 . S
C909 C906 1.348 1_545 S
C909 C907 1.356 . S
H910 C904 0.930 . S
H911 C908 0.930 . S
C912 C914 1.348 . S
C912 C915 1.356 . S
C912 O942 1.325 . S
N913 C916 1.314 . S
N913 C917 1.279 . S
C914 C912 1.348 . S
C914 C916 1.353 . S
C914 H956 0.929 . S
C915 C912 1.356 . S
C915 C917 1.358 . S
C915 H957 0.930 . S
C916 N913 1.314 . S
C916 C914 1.353 . S
C916 H958 0.930 . S
C917 N913 1.279 . S
C917 C915 1.358 . S
C917 H959 0.930 . S
C918 C919 1.348 . S
C918 C920 1.356 . S
C918 O943 1.325 . S
C919 C918 1.348 . S
C919 C921 1.353 . S
C919 H960 0.929 . S
C920 C918 1.356 . S
C920 C922 1.358 . S
C920 H961 0.930 . S
C921 C919 1.353 . S
C921 N923 1.314 . S
C921 H962 0.930 . S
C922 C920 1.358 . S
C922 N923 1.279 . S
C922 H963 0.930 . S
N923 C921 1.314 . S
N923 C922 1.279 . S
C924 C926 1.353 . S
C924 N927 1.314 . S
C924 H930 0.930 . S
C925 N927 1.279 . S
C925 C928 1.358 . S
C925 H931 0.930 . S
C926 C924 1.353 . S
C926 C929 1.348 . S
C926 H964 0.929 . S
N927 Li882 1.990 . S
N927 C924 1.314 . S
N927 C925 1.279 . S
C928 C925 1.358 . S
C928 C929 1.356 . S
C928 H965 0.930 . S
C929 C926 1.348 . S
C929 C928 1.356 . S
H930 C924 0.930 . S
H931 C925 0.930 . S
C932 N933 1.314 . S
C932 C934 1.353 . S
C932 H938 0.930 . S
N933 Li883 1.990 . S
N933 C932 1.314 . S
N933 C936 1.279 . S
C934 C932 1.353 . S
C934 C937 1.348 . S
C934 H966 0.929 . S
C935 C936 1.358 . S
C935 C937 1.356 . S
C935 H967 0.930 . S
C936 N933 1.279 . S
C936 C935 1.358 . S
C936 H939 0.930 . S
C937 C934 1.348 . S
C937 C935 1.356 . S
H938 C932 0.930 . S
H939 C936 0.930 . S
O940 Li880 1.956 . S
O940 Li881 1.970 . S
O940 Li882 1.961 . S
O940 C884 1.325 . S
O941 Li880 1.970 . S
O941 Li881 1.956 . S
O941 Li883 1.961 . S
O941 C890 1.325 . S
O942 Li880 1.961 . S
O942 Li882 1.956 . S
O942 Li883 1.970 . S
O942 C912 1.325 . S
O943 Li881 1.961 . S
O943 Li882 1.970 . S
O943 Li883 1.956 . S
O943 C918 1.325 . S
H944 C886 0.929 . S
H945 C887 0.930 . S
H946 C888 0.930 . S
H947 C889 0.930 . S
H948 C891 0.930 . S
H949 C893 0.929 . S
H950 C894 0.930 . S
H951 C895 0.930 . S
H952 C898 0.930 . S
H953 C901 0.929 . S
H954 C906 0.929 . S
H955 C907 0.930 . S
H956 C914 0.929 . S
H957 C915 0.930 . S
H958 C916 0.930 . S
H959 C917 0.930 . S
H960 C919 0.929 . S
H961 C920 0.930 . S
H962 C921 0.930 . S
H963 C922 0.930 . S
H964 C926 0.929 . S
H965 C928 0.930 . S
H966 C934 0.929 . S
H967 C935 0.930 . S
Li968 N985 1.990 . S
Li968 O1028 1.956 . S
Li968 O1029 1.970 . S
Li968 O1030 1.961 . S
Li969 N993 1.990 . S
Li969 O1028 1.970 . S
Li969 O1029 1.956 . S
Li969 O1031 1.961 . S
Li970 N1015 1.990 . S
Li970 O1028 1.961 . S
Li970 O1030 1.956 . S
Li970 O1031 1.970 . S
Li971 N1021 1.990 . S
Li971 O1029 1.961 . S
Li971 O1030 1.970 . S
Li971 O1031 1.956 . S
C972 C974 1.348 . S
C972 C975 1.356 . S
C972 O1028 1.325 . S
N973 C976 1.314 . S
N973 C977 1.279 . S
C974 C972 1.348 . S
C974 C976 1.353 . S
C974 H1032 0.929 . S
C975 C972 1.356 . S
C975 C977 1.358 . S
C975 H1033 0.930 . S
C976 N973 1.314 . S
C976 C974 1.353 . S
C976 H1034 0.930 . S
C977 N973 1.279 . S
C977 C975 1.358 . S
C977 H1035 0.930 . S
C978 C981 1.348 . S
C978 C982 1.356 . S
C978 O1029 1.325 . S
C979 N980 1.279 . S
C979 C982 1.358 . S
C979 H1036 0.930 . S
N980 C979 1.279 . S
N980 C983 1.314 . S
C981 C978 1.348 . S
C981 C983 1.353 . S
C981 H1037 0.929 . S
C982 C978 1.356 . S
C982 C979 1.358 . S
C982 H1038 0.930 . S
C983 N980 1.314 . S
C983 C981 1.353 . S
C983 H1039 0.930 . S
C984 N985 1.314 . S
C984 C989 1.353 . S
C984 H990 0.930 . S
N985 Li968 1.990 . S
N985 C984 1.314 . S
N985 C987 1.279 . S
C986 C987 1.358 . S
C986 C988 1.356 . S
C986 H1040 0.930 . S
C987 N985 1.279 . S
C987 C986 1.358 . S
C987 H991 0.930 . S
C988 C986 1.356 . S
C988 C989 1.348 . S
C989 C984 1.353 . S
C989 C988 1.348 . S
C989 H1041 0.929 . S
H990 C984 0.930 . S
H991 C987 0.930 . S
C992 N993 1.314 . S
C992 C994 1.353 . S
C992 H998 0.930 . S
N993 Li969 1.990 . S
N993 C992 1.314 . S
N993 C996 1.279 . S
C994 C992 1.353 . S
C994 C997 1.348 . S
C994 H1042 0.929 . S
C995 C996 1.358 . S
C995 C997 1.356 . S
C995 H1043 0.930 . S
C996 N993 1.279 . S
C996 C995 1.358 . S
C996 H999 0.930 . S
C997 C994 1.348 . S
C997 C995 1.356 . S
H998 C992 0.930 . S
H999 C996 0.930 . S
C1000 C1002 1.348 . S
C1000 C1003 1.356 . S
C1000 O1030 1.325 . S
N1001 C1004 1.314 . S
N1001 C1005 1.279 . S
C1002 C1000 1.348 . S
C1002 C1004 1.353 . S
C1002 H1044 0.929 . S
C1003 C1000 1.356 . S
C1003 C1005 1.358 . S
C1003 H1045 0.930 . S
C1004 N1001 1.314 . S
C1004 C1002 1.353 . S
C1004 H1046 0.930 . S
C1005 N1001 1.279 . S
C1005 C1003 1.358 . S
C1005 H1047 0.930 . S
C1006 C1007 1.348 . S
C1006 C1008 1.356 . S
C1006 O1031 1.325 . S
C1007 C1006 1.348 . S
C1007 C1009 1.353 . S
C1007 H1048 0.929 . S
C1008 C1006 1.356 . S
C1008 C1010 1.358 . S
C1008 H1049 0.930 . S
C1009 C1007 1.353 . S
C1009 N1011 1.314 . S
C1009 H1050 0.930 . S
C1010 C1008 1.358 . S
C1010 N1011 1.279 . S
C1010 H1051 0.930 . S
N1011 C1009 1.314 . S
N1011 C1010 1.279 . S
C1012 C1014 1.353 . S
C1012 N1015 1.314 . S
C1012 H1018 0.930 . S
C1013 N1015 1.279 . S
C1013 C1016 1.358 . S
C1013 H1019 0.930 . S
C1014 C1012 1.353 . S
C1014 C1017 1.348 . S
C1014 H1052 0.929 . S
N1015 Li970 1.990 . S
N1015 C1012 1.314 . S
N1015 C1013 1.279 . S
C1016 C1013 1.358 . S
C1016 C1017 1.356 . S
C1016 H1053 0.930 . S
C1017 C1014 1.348 . S
C1017 C1016 1.356 . S
H1018 C1012 0.930 . S
H1019 C1013 0.930 . S
C1020 N1021 1.314 . S
C1020 C1022 1.353 . S
C1020 H1026 0.930 . S
N1021 Li971 1.990 . S
N1021 C1020 1.314 . S
N1021 C1024 1.279 . S
C1022 C1020 1.353 . S
C1022 C1025 1.348 . S
C1022 H1054 0.929 . S
C1023 C1024 1.358 . S
C1023 C1025 1.356 . S
C1023 H1055 0.930 . S
C1024 N1021 1.279 . S
C1024 C1023 1.358 . S
C1024 H1027 0.930 . S
C1025 C1022 1.348 . S
C1025 C1023 1.356 . S
H1026 C1020 0.930 . S
H1027 C1024 0.930 . S
O1028 Li968 1.956 . S
O1028 Li969 1.970 . S
O1028 Li970 1.961 . S
O1028 C972 1.325 . S
O1029 Li968 1.970 . S
O1029 Li969 1.956 . S
O1029 Li971 1.961 . S
O1029 C978 1.325 . S
O1030 Li968 1.961 . S
O1030 Li970 1.956 . S
O1030 Li971 1.970 . S
O1030 C1000 1.325 . S
O1031 Li969 1.961 . S
O1031 Li970 1.970 . S
O1031 Li971 1.956 . S
O1031 C1006 1.325 . S
H1032 C974 0.929 . S
H1033 C975 0.930 . S
H1034 C976 0.930 . S
H1035 C977 0.930 . S
H1036 C979 0.930 . S
H1037 C981 0.929 . S
H1038 C982 0.930 . S
H1039 C983 0.930 . S
H1040 C986 0.930 . S
H1041 C989 0.929 . S
H1042 C994 0.929 . S
H1043 C995 0.930 . S
H1044 C1002 0.929 . S
H1045 C1003 0.930 . S
H1046 C1004 0.930 . S
H1047 C1005 0.930 . S
H1048 C1007 0.929 . S
H1049 C1008 0.930 . S
H1050 C1009 0.930 . S
H1051 C1010 0.930 . S
H1052 C1014 0.929 . S
H1053 C1016 0.930 . S
H1054 C1022 0.929 . S
H1055 C1023 0.930 . S
C1056 C1057 1.363 . S
C1056 C1062 1.379 1_554 S
C1056 N1064 1.356 . S
C1057 C1056 1.363 . S
C1057 C1063 1.363 . S
C1058 C1059 1.363 . S
C1058 C1063 1.379 1_556 S
C1058 N1065 1.356 . S
C1059 C1058 1.363 . S
C1059 C1062 1.363 . S
N1060 C1062 1.356 . S
N1060 H1072 0.984 . S
N1060 H1073 0.985 . S
N1061 C1063 1.356 . S
N1061 H1066 0.984 . S
N1061 H1067 0.985 . S
C1062 C1056 1.379 1_556 S
C1062 C1059 1.363 . S
C1062 N1060 1.356 . S
C1063 C1057 1.363 . S
C1063 C1058 1.379 1_554 S
C1063 N1061 1.356 . S
N1064 C1056 1.356 . S
N1064 H1070 0.984 . S
N1064 H1071 0.984 . S
N1065 C1058 1.356 . S
N1065 H1068 0.984 . S
N1065 H1069 0.985 . S
H1066 N1061 0.984 . S
H1067 N1061 0.985 . S
H1068 N1065 0.984 . S
H1069 N1065 0.985 . S
H1070 N1064 0.984 . S
H1071 N1064 0.984 . S
H1072 N1060 0.984 . S
H1073 N1060 0.985 . S
C1074 C1075 1.363 . S
C1074 C1080 1.379 . S
C1074 N1082 1.356 . S
C1075 C1074 1.363 . S
C1075 C1081 1.363 . S
C1076 C1077 1.363 . S
C1076 C1081 1.379 . S
C1076 N1083 1.356 . S
C1077 C1076 1.363 . S
C1077 C1080 1.363 . S
N1078 C1080 1.356 . S
N1078 H1090 0.984 . S
N1078 H1091 0.985 . S
N1079 C1081 1.356 . S
N1079 H1084 0.984 . S
N1079 H1085 0.985 . S
C1080 C1074 1.379 . S
C1080 C1077 1.363 . S
C1080 N1078 1.356 . S
C1081 C1075 1.363 . S
C1081 C1076 1.379 . S
C1081 N1079 1.356 . S
N1082 C1074 1.356 . S
N1082 H1088 0.984 . S
N1082 H1089 0.984 . S
N1083 C1076 1.356 . S
N1083 H1086 0.984 . S
N1083 H1087 0.985 . S
H1084 N1079 0.984 . S
H1085 N1079 0.985 . S
H1086 N1083 0.984 . S
H1087 N1083 0.985 . S
H1088 N1082 0.984 . S
H1089 N1082 0.984 . S
H1090 N1078 0.984 . S
H1091 N1078 0.985 . S
C1092 C1093 1.363 . S
C1092 C1098 1.379 . S
C1092 N1100 1.356 . S
C1093 C1092 1.363 . S
C1093 C1099 1.363 . S
C1094 C1095 1.363 . S
C1094 C1099 1.379 . S
C1094 N1101 1.356 . S
C1095 C1094 1.363 . S
C1095 C1098 1.363 . S
N1096 C1098 1.356 . S
N1096 H1108 0.984 . S
N1096 H1109 0.985 . S
N1097 C1099 1.356 . S
N1097 H1102 0.984 . S
N1097 H1103 0.985 . S
C1098 C1092 1.379 . S
C1098 C1095 1.363 . S
C1098 N1096 1.356 . S
C1099 C1093 1.363 . S
C1099 C1094 1.379 . S
C1099 N1097 1.356 . S
N1100 C1092 1.356 . S
N1100 H1106 0.984 . S
N1100 H1107 0.984 . S
N1101 C1094 1.356 . S
N1101 H1104 0.984 . S
N1101 H1105 0.985 . S
H1102 N1097 0.984 . S
H1103 N1097 0.985 . S
H1104 N1101 0.984 . S
H1105 N1101 0.985 . S
H1106 N1100 0.984 . S
H1107 N1100 0.984 . S
H1108 N1096 0.984 . S
H1109 N1096 0.985 . S
C1110 C1111 1.363 . S
C1110 C1116 1.379 1_554 S
C1110 N1118 1.356 . S
C1111 C1110 1.363 . S
C1111 C1117 1.363 . S
C1112 C1113 1.363 . S
C1112 C1117 1.379 1_556 S
C1112 N1119 1.356 . S
C1113 C1112 1.363 . S
C1113 C1116 1.363 . S
N1114 C1116 1.356 . S
N1114 H1126 0.984 . S
N1114 H1127 0.985 . S
N1115 C1117 1.356 . S
N1115 H1120 0.984 . S
N1115 H1121 0.985 . S
C1116 C1110 1.379 1_556 S
C1116 C1113 1.363 . S
C1116 N1114 1.356 . S
C1117 C1111 1.363 . S
C1117 C1112 1.379 1_554 S
C1117 N1115 1.356 . S
N1118 C1110 1.356 . S
N1118 H1124 0.984 . S
N1118 H1125 0.984 . S
N1119 C1112 1.356 . S
N1119 H1122 0.984 . S
N1119 H1123 0.985 . S
H1120 N1115 0.984 . S
H1121 N1115 0.985 . S
H1122 N1119 0.984 . S
H1123 N1119 0.985 . S
H1124 N1118 0.984 . S
H1125 N1118 0.984 . S
H1126 N1114 0.984 . S
H1127 N1114 0.985 . S
C1128 C1129 1.363 . S
C1128 C1134 1.379 . S
C1128 N1136 1.356 . S
C1129 C1128 1.363 . S
C1129 C1135 1.363 . S
C1130 C1131 1.363 . S
C1130 C1135 1.379 . S
C1130 N1137 1.356 . S
C1131 C1130 1.363 . S
C1131 C1134 1.363 . S
N1132 C1134 1.356 . S
N1132 H1144 0.984 . S
N1132 H1145 0.985 . S
N1133 C1135 1.356 . S
N1133 H1138 0.984 . S
N1133 H1139 0.985 . S
C1134 C1128 1.379 . S
C1134 C1131 1.363 . S
C1134 N1132 1.356 . S
C1135 C1129 1.363 . S
C1135 C1130 1.379 . S
C1135 N1133 1.356 . S
N1136 C1128 1.356 . S
N1136 H1142 0.984 . S
N1136 H1143 0.984 . S
N1137 C1130 1.356 . S
N1137 H1140 0.984 . S
N1137 H1141 0.985 . S
H1138 N1133 0.984 . S
H1139 N1133 0.985 . S
H1140 N1137 0.984 . S
H1141 N1137 0.985 . S
H1142 N1136 0.984 . S
H1143 N1136 0.984 . S
H1144 N1132 0.984 . S
H1145 N1132 0.985 . S
C1146 C1147 1.363 . S
C1146 C1152 1.379 . S
C1146 N1154 1.356 . S
C1147 C1146 1.363 . S
C1147 C1153 1.363 . S
C1148 C1149 1.363 . S
C1148 C1153 1.379 . S
C1148 N1155 1.356 . S
C1149 C1148 1.363 . S
C1149 C1152 1.363 . S
N1150 C1152 1.356 . S
N1150 H1162 0.984 . S
N1150 H1163 0.985 . S
N1151 C1153 1.356 . S
N1151 H1156 0.984 . S
N1151 H1157 0.985 . S
C1152 C1146 1.379 . S
C1152 C1149 1.363 . S
C1152 N1150 1.356 . S
C1153 C1147 1.363 . S
C1153 C1148 1.379 . S
C1153 N1151 1.356 . S
N1154 C1146 1.356 . S
N1154 H1160 0.984 . S
N1154 H1161 0.984 . S
N1155 C1148 1.356 . S
N1155 H1158 0.984 . S
N1155 H1159 0.985 . S
H1156 N1151 0.984 . S
H1157 N1151 0.985 . S
H1158 N1155 0.984 . S
H1159 N1155 0.985 . S
H1160 N1154 0.984 . S
H1161 N1154 0.984 . S
H1162 N1150 0.984 . S
H1163 N1150 0.985 . S
C1164 C1165 1.363 1_545 S
C1164 C1170 1.379 1_554 S
C1164 N1172 1.356 . S
C1165 C1164 1.363 1_565 S
C1165 C1171 1.363 . S
C1166 C1167 1.363 1_565 S
C1166 C1171 1.379 1_556 S
C1166 N1173 1.356 . S
C1167 C1166 1.363 1_545 S
C1167 C1170 1.363 . S
N1168 C1170 1.356 . S
N1168 H1180 0.984 . S
N1168 H1181 0.985 . S
N1169 C1171 1.356 . S
N1169 H1174 0.984 . S
N1169 H1175 0.985 . S
C1170 C1164 1.379 1_556 S
C1170 C1167 1.363 . S
C1170 N1168 1.356 . S
C1171 C1165 1.363 . S
C1171 C1166 1.379 1_554 S
C1171 N1169 1.356 . S
N1172 C1164 1.356 . S
N1172 H1178 0.984 . S
N1172 H1179 0.984 . S
N1173 C1166 1.356 . S
N1173 H1176 0.984 . S
N1173 H1177 0.985 . S
H1174 N1169 0.984 . S
H1175 N1169 0.985 . S
H1176 N1173 0.984 . S
H1177 N1173 0.985 . S
H1178 N1172 0.984 . S
H1179 N1172 0.984 . S
H1180 N1168 0.984 . S
H1181 N1168 0.985 . S
C1182 C1183 1.363 . S
C1182 C1188 1.379 . S
C1182 N1190 1.356 . S
C1183 C1182 1.363 . S
C1183 C1189 1.363 . S
C1184 C1185 1.363 . S
C1184 C1189 1.379 . S
C1184 N1191 1.356 . S
C1185 C1184 1.363 . S
C1185 C1188 1.363 . S
N1186 C1188 1.356 . S
N1186 H1198 0.984 . S
N1186 H1199 0.985 . S
N1187 C1189 1.356 . S
N1187 H1192 0.984 . S
N1187 H1193 0.985 . S
C1188 C1182 1.379 . S
C1188 C1185 1.363 . S
C1188 N1186 1.356 . S
C1189 C1183 1.363 . S
C1189 C1184 1.379 . S
C1189 N1187 1.356 . S
N1190 C1182 1.356 . S
N1190 H1196 0.984 . S
N1190 H1197 0.984 . S
N1191 C1184 1.356 . S
N1191 H1194 0.984 . S
N1191 H1195 0.985 . S
H1192 N1187 0.984 . S
H1193 N1187 0.985 . S
H1194 N1191 0.984 . S
H1195 N1191 0.985 . S
H1196 N1190 0.984 . S
H1197 N1190 0.984 . S
H1198 N1186 0.984 . S
H1199 N1186 0.985 . S
C1200 C1201 1.363 . S
C1200 C1206 1.379 . S
C1200 N1208 1.356 . S
C1201 C1200 1.363 . S
C1201 C1207 1.363 1_655 S
C1202 C1203 1.363 . S
C1202 C1207 1.379 . S
C1202 N1209 1.356 . S
C1203 C1202 1.363 . S
C1203 C1206 1.363 1_455 S
N1204 C1206 1.356 . S
N1204 H1216 0.984 . S
N1204 H1217 0.985 . S
N1205 C1207 1.356 . S
N1205 H1210 0.984 . S
N1205 H1211 0.985 . S
C1206 C1200 1.379 . S
C1206 C1203 1.363 1_655 S
C1206 N1204 1.356 . S
C1207 C1201 1.363 1_455 S
C1207 C1202 1.379 . S
C1207 N1205 1.356 . S
N1208 C1200 1.356 . S
N1208 H1214 0.984 . S
N1208 H1215 0.984 . S
N1209 C1202 1.356 . S
N1209 H1212 0.984 . S
N1209 H1213 0.985 . S
H1210 N1205 0.984 . S
H1211 N1205 0.985 . S
H1212 N1209 0.984 . S
H1213 N1209 0.985 . S
H1214 N1208 0.984 . S
H1215 N1208 0.984 . S
H1216 N1204 0.984 . S
H1217 N1204 0.985 . S
C1218 C1219 1.363 . S
C1218 C1224 1.379 1_554 S
C1218 N1226 1.356 . S
C1219 C1218 1.363 . S
C1219 C1225 1.363 1_545 S
C1220 C1221 1.363 . S
C1220 C1225 1.379 1_556 S
C1220 N1227 1.356 . S
C1221 C1220 1.363 . S
C1221 C1224 1.363 1_565 S
N1222 C1224 1.356 . S
N1222 H1234 0.984 . S
N1222 H1235 0.985 . S
N1223 C1225 1.356 . S
N1223 H1228 0.984 . S
N1223 H1229 0.985 . S
C1224 C1218 1.379 1_556 S
C1224 C1221 1.363 1_545 S
C1224 N1222 1.356 . S
C1225 C1219 1.363 1_565 S
C1225 C1220 1.379 1_554 S
C1225 N1223 1.356 . S
N1226 C1218 1.356 . S
N1226 H1232 0.984 . S
N1226 H1233 0.984 . S
N1227 C1220 1.356 . S
N1227 H1230 0.984 . S
N1227 H1231 0.985 . S
H1228 N1223 0.984 . S
H1229 N1223 0.985 . S
H1230 N1227 0.984 . S
H1231 N1227 0.985 . S
H1232 N1226 0.984 . S
H1233 N1226 0.984 . S
H1234 N1222 0.984 . S
H1235 N1222 0.985 . S
C1236 C1237 1.363 . S
C1236 C1242 1.379 . S
C1236 N1244 1.356 . S
C1237 C1236 1.363 . S
C1237 C1243 1.363 . S
C1238 C1239 1.363 . S
C1238 C1243 1.379 . S
C1238 N1245 1.356 . S
C1239 C1238 1.363 . S
C1239 C1242 1.363 . S
N1240 C1242 1.356 . S
N1240 H1252 0.984 . S
N1240 H1253 0.985 . S
N1241 C1243 1.356 . S
N1241 H1246 0.984 . S
N1241 H1247 0.985 . S
C1242 C1236 1.379 . S
C1242 C1239 1.363 . S
C1242 N1240 1.356 . S
C1243 C1237 1.363 . S
C1243 C1238 1.379 . S
C1243 N1241 1.356 . S
N1244 C1236 1.356 . S
N1244 H1250 0.984 . S
N1244 H1251 0.984 . S
N1245 C1238 1.356 . S
N1245 H1248 0.984 . S
N1245 H1249 0.985 . S
H1246 N1241 0.984 . S
H1247 N1241 0.985 . S
H1248 N1245 0.984 . S
H1249 N1245 0.985 . S
H1250 N1244 0.984 . S
H1251 N1244 0.984 . S
H1252 N1240 0.984 . S
H1253 N1240 0.985 . S
C1254 C1255 1.363 . S
C1254 C1260 1.380 . S
C1254 N1262 1.356 . S
C1255 C1254 1.363 . S
C1255 C1261 1.354 1_655 S
C1256 C1257 1.363 . S
C1256 C1261 1.381 . S
C1256 N1263 1.356 . S
C1257 C1256 1.363 . S
C1257 C1260 1.355 1_455 S
N1258 C1260 1.367 1_455 S
N1258 H1270 0.974 1_455 S
N1258 H1271 0.990 . S
N1259 C1261 1.367 1_655 S
N1259 H1264 0.989 . S
N1259 H1265 0.975 1_655 S
C1260 C1254 1.380 . S
C1260 C1257 1.355 1_655 S
C1260 N1258 1.367 1_655 S
C1261 C1255 1.354 1_455 S
C1261 C1256 1.381 . S
C1261 N1259 1.367 1_455 S
N1262 C1254 1.356 . S
N1262 H1268 0.984 . S
N1262 H1269 0.984 . S
N1263 C1256 1.356 . S
N1263 H1266 0.984 . S
N1263 H1267 0.985 . S
H1264 N1259 0.989 . S
H1265 N1259 0.975 1_455 S
H1266 N1263 0.984 . S
H1267 N1263 0.985 . S
H1268 N1262 0.984 . S
H1269 N1262 0.984 . S
H1270 N1258 0.974 1_655 S
H1271 N1258 0.990 . S
C1272 C1273 1.363 . S
C1272 C1278 1.379 . S
C1272 N1280 1.356 . S
C1273 C1272 1.363 . S
C1273 C1279 1.363 1_565 S
C1274 C1275 1.363 . S
C1274 C1279 1.379 . S
C1274 N1281 1.356 . S
C1275 C1274 1.363 . S
C1275 C1278 1.363 1_545 S
N1276 C1278 1.356 . S
N1276 H1288 0.984 . S
N1276 H1289 0.985 1_565 S
N1277 C1279 1.356 . S
N1277 H1282 0.984 1_545 S
N1277 H1283 0.985 . S
C1278 C1272 1.379 . S
C1278 C1275 1.363 1_565 S
C1278 N1276 1.356 . S
C1279 C1273 1.363 1_545 S
C1279 C1274 1.379 . S
C1279 N1277 1.356 . S
N1280 C1272 1.356 . S
N1280 H1286 0.984 . S
N1280 H1287 0.984 . S
N1281 C1274 1.356 . S
N1281 H1284 0.984 . S
N1281 H1285 0.985 . S
H1282 N1277 0.984 1_565 S
H1283 N1277 0.985 . S
H1284 N1281 0.984 . S
H1285 N1281 0.985 . S
H1286 N1280 0.984 . S
H1287 N1280 0.984 . S
H1288 N1276 0.984 . S
H1289 N1276 0.985 1_545 S
C1290 C1291 1.363 . S
C1290 C1296 1.379 . S
C1290 N1298 1.356 . S
C1291 C1290 1.363 . S
C1291 C1297 1.363 . S
C1292 C1293 1.363 . S
C1292 C1297 1.379 . S
C1292 N1299 1.356 . S
C1293 C1292 1.363 . S
C1293 C1296 1.363 . S
N1294 C1296 1.356 . S
N1294 H1306 0.984 . S
N1294 H1307 0.985 . S
N1295 C1297 1.356 . S
N1295 H1300 0.984 . S
N1295 H1301 0.985 . S
C1296 C1290 1.379 . S
C1296 C1293 1.363 . S
C1296 N1294 1.356 . S
C1297 C1291 1.363 . S
C1297 C1292 1.379 . S
C1297 N1295 1.356 . S
N1298 C1290 1.356 . S
N1298 H1304 0.984 . S
N1298 H1305 0.984 . S
N1299 C1292 1.356 . S
N1299 H1302 0.984 . S
N1299 H1303 0.985 . S
H1300 N1295 0.984 . S
H1301 N1295 0.985 . S
H1302 N1299 0.984 . S
H1303 N1299 0.985 . S
H1304 N1298 0.984 . S
H1305 N1298 0.984 . S
H1306 N1294 0.984 . S
H1307 N1294 0.985 . S
C1308 C1309 1.363 1_655 S
C1308 C1314 1.379 . S
C1308 N1316 1.356 . S
C1309 C1308 1.363 1_455 S
C1309 C1315 1.363 1_556 S
C1310 C1311 1.363 1_454 S
C1310 C1315 1.379 . S
C1310 N1317 1.356 . S
C1311 C1310 1.363 1_656 S
C1311 C1314 1.363 . S
N1312 C1314 1.356 . S
N1312 H1324 0.984 . S
N1312 H1325 0.985 . S
N1313 C1315 1.356 . S
N1313 H1318 0.984 . S
N1313 H1319 0.985 . S
C1314 C1308 1.379 . S
C1314 C1311 1.363 . S
C1314 N1312 1.356 . S
C1315 C1309 1.363 1_554 S
C1315 C1310 1.379 . S
C1315 N1313 1.356 . S
N1316 C1308 1.356 . S
N1316 H1322 0.984 . S
N1316 H1323 0.984 1_655 S
N1317 C1310 1.356 . S
N1317 H1320 0.984 1_455 S
N1317 H1321 0.985 . S
H1318 N1313 0.984 . S
H1319 N1313 0.985 . S
H1320 N1317 0.984 1_655 S
H1321 N1317 0.985 . S
H1322 N1316 0.984 . S
H1323 N1316 0.984 1_455 S
H1324 N1312 0.984 . S
H1325 N1312 0.985 . S
C1326 C1327 1.363 . S
C1326 C1332 1.379 . S
C1326 N1334 1.356 . S
C1327 C1326 1.363 . S
C1327 C1333 1.363 1_655 S
C1328 C1329 1.363 . S
C1328 C1333 1.379 . S
C1328 N1335 1.356 . S
C1329 C1328 1.363 . S
C1329 C1332 1.363 1_455 S
N1330 C1332 1.356 . S
N1330 H1342 0.984 . S
N1330 H1343 0.985 1_655 S
N1331 C1333 1.356 . S
N1331 H1336 0.984 1_455 S
N1331 H1337 0.985 . S
C1332 C1326 1.379 . S
C1332 C1329 1.363 1_655 S
C1332 N1330 1.356 . S
C1333 C1327 1.363 1_455 S
C1333 C1328 1.379 . S
C1333 N1331 1.356 . S
N1334 C1326 1.356 . S
N1334 H1340 0.984 . S
N1334 H1341 0.984 . S
N1335 C1328 1.356 . S
N1335 H1338 0.984 . S
N1335 H1339 0.985 . S
H1336 N1331 0.984 1_655 S
H1337 N1331 0.985 . S
H1338 N1335 0.984 . S
H1339 N1335 0.985 . S
H1340 N1334 0.984 . S
H1341 N1334 0.984 . S
H1342 N1330 0.984 . S
H1343 N1330 0.985 1_455 S
C1344 C1345 1.363 . S
C1344 C1350 1.379 . S
C1344 N1352 1.356 . S
C1345 C1344 1.363 . S
C1345 C1351 1.363 1_565 S
C1346 C1347 1.363 . S
C1346 C1351 1.379 . S
C1346 N1353 1.356 . S
C1347 C1346 1.363 . S
C1347 C1350 1.363 1_545 S
N1348 C1350 1.356 . S
N1348 H1360 0.984 . S
N1348 H1361 0.985 1_565 S
N1349 C1351 1.356 . S
N1349 H1354 0.984 1_545 S
N1349 H1355 0.985 . S
C1350 C1344 1.379 . S
C1350 C1347 1.363 1_565 S
C1350 N1348 1.356 . S
C1351 C1345 1.363 1_545 S
C1351 C1346 1.379 . S
C1351 N1349 1.356 . S
N1352 C1344 1.356 . S
N1352 H1358 0.984 . S
N1352 H1359 0.984 . S
N1353 C1346 1.356 . S
N1353 H1356 0.984 . S
N1353 H1357 0.985 . S
H1354 N1349 0.984 1_565 S
H1355 N1349 0.985 . S
H1356 N1353 0.984 . S
H1357 N1353 0.985 . S
H1358 N1352 0.984 . S
H1359 N1352 0.984 . S
H1360 N1348 0.984 . S
H1361 N1348 0.985 1_545 S
C1362 C1363 1.363 . S
C1362 C1368 1.379 . S
C1362 N1370 1.356 . S
C1363 C1362 1.363 . S
C1363 C1369 1.363 1_554 S
C1364 C1365 1.363 1_556 S
C1364 C1369 1.379 . S
C1364 N1371 1.356 . S
C1365 C1364 1.363 1_554 S
C1365 C1368 1.363 . S
N1366 C1368 1.356 . S
N1366 H1378 0.984 . S
N1366 H1379 0.985 . S
N1367 C1369 1.356 . S
N1367 H1372 0.984 . S
N1367 H1373 0.985 . S
C1368 C1362 1.379 . S
C1368 C1365 1.363 . S
C1368 N1366 1.356 . S
C1369 C1363 1.363 1_556 S
C1369 C1364 1.379 . S
C1369 N1367 1.356 . S
N1370 C1362 1.356 . S
N1370 H1376 0.984 . S
N1370 H1377 0.984 . S
N1371 C1364 1.356 . S
N1371 H1374 0.984 . S
N1371 H1375 0.985 . S
H1372 N1367 0.984 . S
H1373 N1367 0.985 . S
H1374 N1371 0.984 . S
H1375 N1371 0.985 . S
H1376 N1370 0.984 . S
H1377 N1370 0.984 . S
H1378 N1366 0.984 . S
H1379 N1366 0.985 . S
C1380 C1381 1.363 . S
C1380 C1386 1.379 . S
C1380 N1388 1.356 . S
C1381 C1380 1.363 . S
C1381 C1387 1.363 . S
C1382 C1383 1.363 . S
C1382 C1387 1.379 . S
C1382 N1389 1.356 . S
C1383 C1382 1.363 . S
C1383 C1386 1.363 . S
N1384 C1386 1.356 . S
N1384 H1396 0.984 . S
N1384 H1397 0.985 . S
N1385 C1387 1.356 . S
N1385 H1390 0.984 . S
N1385 H1391 0.985 . S
C1386 C1380 1.379 . S
C1386 C1383 1.363 . S
C1386 N1384 1.356 . S
C1387 C1381 1.363 . S
C1387 C1382 1.379 . S
C1387 N1385 1.356 . S
N1388 C1380 1.356 . S
N1388 H1394 0.984 . S
N1388 H1395 0.984 . S
N1389 C1382 1.356 . S
N1389 H1392 0.984 . S
N1389 H1393 0.985 . S
H1390 N1385 0.984 . S
H1391 N1385 0.985 . S
H1392 N1389 0.984 . S
H1393 N1389 0.985 . S
H1394 N1388 0.984 . S
H1395 N1388 0.984 . S
H1396 N1384 0.984 . S
H1397 N1384 0.985 . S
C1398 C1399 1.363 . S
C1398 C1404 1.379 . S
C1398 N1406 1.356 . S
C1399 C1398 1.363 . S
C1399 C1405 1.363 . S
C1400 C1401 1.363 . S
C1400 C1405 1.379 . S
C1400 N1407 1.356 . S
C1401 C1400 1.363 . S
C1401 C1404 1.363 . S
N1402 C1404 1.356 . S
N1402 H1414 0.984 . S
N1402 H1415 0.985 . S
N1403 C1405 1.356 . S
N1403 H1408 0.984 . S
N1403 H1409 0.985 . S
C1404 C1398 1.379 . S
C1404 C1401 1.363 . S
C1404 N1402 1.356 . S
C1405 C1399 1.363 . S
C1405 C1400 1.379 . S
C1405 N1403 1.356 . S
N1406 C1398 1.356 . S
N1406 H1412 0.984 . S
N1406 H1413 0.984 . S
N1407 C1400 1.356 . S
N1407 H1410 0.984 . S
N1407 H1411 0.985 . S
H1408 N1403 0.984 . S
H1409 N1403 0.985 . S
H1410 N1407 0.984 . S
H1411 N1407 0.985 . S
H1412 N1406 0.984 . S
H1413 N1406 0.984 . S
H1414 N1402 0.984 . S
H1415 N1402 0.985 . S
C1416 C1417 1.363 . S
C1416 C1422 1.379 . S
C1416 N1424 1.356 . S
C1417 C1416 1.363 . S
C1417 C1423 1.363 . S
C1418 C1419 1.363 . S
C1418 C1423 1.379 . S
C1418 N1425 1.356 . S
C1419 C1418 1.363 . S
C1419 C1422 1.363 . S
N1420 C1422 1.356 . S
N1420 H1432 0.984 . S
N1420 H1433 0.985 . S
N1421 C1423 1.356 . S
N1421 H1426 0.984 . S
N1421 H1427 0.985 . S
C1422 C1416 1.379 . S
C1422 C1419 1.363 . S
C1422 N1420 1.356 . S
C1423 C1417 1.363 . S
C1423 C1418 1.379 . S
C1423 N1421 1.356 . S
N1424 C1416 1.356 . S
N1424 H1430 0.984 . S
N1424 H1431 0.984 . S
N1425 C1418 1.356 . S
N1425 H1428 0.984 . S
N1425 H1429 0.985 . S
H1426 N1421 0.984 . S
H1427 N1421 0.985 . S
H1428 N1425 0.984 . S
H1429 N1425 0.985 . S
H1430 N1424 0.984 . S
H1431 N1424 0.984 . S
H1432 N1420 0.984 . S
H1433 N1420 0.985 . S
C1434 C1435 1.363 . S
C1434 C1440 1.379 . S
C1434 N1442 1.356 . S
C1435 C1434 1.363 . S
C1435 C1441 1.363 . S
C1436 C1437 1.363 . S
C1436 C1441 1.379 . S
C1436 N1443 1.356 . S
C1437 C1436 1.363 . S
C1437 C1440 1.363 . S
N1438 C1440 1.356 . S
N1438 H1450 0.984 . S
N1438 H1451 0.985 . S
N1439 C1441 1.356 . S
N1439 H1444 0.984 . S
N1439 H1445 0.985 . S
C1440 C1434 1.379 . S
C1440 C1437 1.363 . S
C1440 N1438 1.356 . S
C1441 C1435 1.363 . S
C1441 C1436 1.379 . S
C1441 N1439 1.356 . S
N1442 C1434 1.356 . S
N1442 H1448 0.984 . S
N1442 H1449 0.984 . S
N1443 C1436 1.356 . S
N1443 H1446 0.984 . S
N1443 H1447 0.985 . S
H1444 N1439 0.984 . S
H1445 N1439 0.985 . S
H1446 N1443 0.984 . S
H1447 N1443 0.985 . S
H1448 N1442 0.984 . S
H1449 N1442 0.984 . S
H1450 N1438 0.984 . S
H1451 N1438 0.985 . S
C1452 C1453 1.363 . S
C1452 C1458 1.379 . S
C1452 N1460 1.356 . S
C1453 C1452 1.363 . S
C1453 C1459 1.363 . S
C1454 C1455 1.363 . S
C1454 C1459 1.379 . S
C1454 N1461 1.356 . S
C1455 C1454 1.363 . S
C1455 C1458 1.363 . S
N1456 C1458 1.356 . S
N1456 H1468 0.984 . S
N1456 H1469 0.985 . S
N1457 C1459 1.356 . S
N1457 H1462 0.984 . S
N1457 H1463 0.985 . S
C1458 C1452 1.379 . S
C1458 C1455 1.363 . S
C1458 N1456 1.356 . S
C1459 C1453 1.363 . S
C1459 C1454 1.379 . S
C1459 N1457 1.356 . S
N1460 C1452 1.356 . S
N1460 H1466 0.984 . S
N1460 H1467 0.984 . S
N1461 C1454 1.356 . S
N1461 H1464 0.984 . S
N1461 H1465 0.985 . S
H1462 N1457 0.984 . S
H1463 N1457 0.985 . S
H1464 N1461 0.984 . S
H1465 N1461 0.985 . S
H1466 N1460 0.984 . S
H1467 N1460 0.984 . S
H1468 N1456 0.984 . S
H1469 N1456 0.985 . S
C1470 C1471 1.363 . S
C1470 C1476 1.379 . S
C1470 N1478 1.356 . S
C1471 C1470 1.363 . S
C1471 C1477 1.363 . S
C1472 C1473 1.363 . S
C1472 C1477 1.379 . S
C1472 N1479 1.356 . S
C1473 C1472 1.363 . S
C1473 C1476 1.363 . S
N1474 C1476 1.356 . S
N1474 H1486 0.984 . S
N1474 H1487 0.985 . S
N1475 C1477 1.356 . S
N1475 H1480 0.984 . S
N1475 H1481 0.985 . S
C1476 C1470 1.379 . S
C1476 C1473 1.363 . S
C1476 N1474 1.356 . S
C1477 C1471 1.363 . S
C1477 C1472 1.379 . S
C1477 N1475 1.356 . S
N1478 C1470 1.356 . S
N1478 H1484 0.984 . S
N1478 H1485 0.984 . S
N1479 C1472 1.356 . S
N1479 H1482 0.984 . S
N1479 H1483 0.985 . S
H1480 N1475 0.984 . S
H1481 N1475 0.985 . S
H1482 N1479 0.984 . S
H1483 N1479 0.985 . S
H1484 N1478 0.984 . S
H1485 N1478 0.984 . S
H1486 N1474 0.984 . S
H1487 N1474 0.985 . S
C1057 C49 0.726 . S
C1059 C937 0.726 . S
C1075 C1017 0.726 . S
C1077 C117 0.726 . S
C1093 C585 0.726 . S
C1095 C196 0.726 . S
C1111 C284 0.726 . S
C1113 C645 0.726 . S
C1129 C401 0.726 . S
C1131 C724 0.726 . S
C1147 C821 0.725 . S
C1149 C489 0.725 . S
C1165 C20 1.198 1_565 S
C1167 C673 1.199 1_545 S
C1183 C753 1.198 . S
C1185 C145 1.199 . S
C1201 C849 1.199 1_655 S
C1203 C225 1.199 1_455 S
C1219 C313 1.199 1_545 S
C1221 C909 1.199 1_565 S
C1237 C988 1.198 . S
C1239 C372 1.199 . S
C1255 C460 1.199 1_655 S
C1257 C557 1.199 1_455 S
C1273 C293 1.532 . S
C1275 C57 1.532 . S
C1291 C409 1.530 . S
C1293 C108 1.530 . S
C1309 C497 1.532 . S
C1311 C205 1.532 . S
C1327 C577 1.531 . S
C1329 C812 1.531 . S
C1345 C636 1.532 . S
C1347 C929 1.532 . S
C1363 C733 1.532 . S
C1365 C1025 1.532 . S
C1381 C761 2.171 . S
C1383 C29 2.171 . S
C1399 C841 2.170 . S
C1401 C137 2.170 . S
C1417 C900 2.172 . S
C1419 C233 2.172 . S
C1435 C997 2.171 . S
C1437 C321 2.171 . S
C1453 C548 2.170 . S
C1455 C381 2.170 . S
C1471 C469 2.171 . S
C1473 C665 2.171 . S
