# Generated by pormake.
# Topology unv, (4)-cn, num edge types: 1
# Building blocks:
#     Node 0, Type 0, BuildingBlock: QUQFOY_clean_sbu_1, # of connection points: 4
#     Node 1, Type 0, BuildingBlock: QUQFOY_clean_sbu_1, # of connection points: 4
#     Node 2, Type 0, BuildingBlock: QUQFOY_clean_sbu_1, # of connection points: 4
#     Node 3, Type 0, BuildingBlock: QUQFOY_clean_sbu_1, # of connection points: 4
#     Node 4, Type 0, BuildingBlock: QUQFOY_clean_sbu_1, # of connection points: 4
#     Node 5, Type 0, BuildingBlock: QUQFOY_clean_sbu_1, # of connection points: 4
#     Node 6, Type 0, BuildingBlock: QUQFOY_clean_sbu_1, # of connection points: 4
#     Node 7, Type 0, BuildingBlock: QUQFOY_clean_sbu_1, # of connection points: 4
#     Node 8, Type 0, BuildingBlock: QUQFOY_clean_sbu_1, # of connection points: 4
#     Node 9, Type 0, BuildingBlock: QUQFOY_clean_sbu_1, # of connection points: 4
#     Node 10, Type 0, BuildingBlock: QUQFOY_clean_sbu_1, # of connection points: 4
#     Node 11, Type 0, BuildingBlock: QUQFOY_clean_sbu_1, # of connection points: 4
#     Node 12, Type 0, BuildingBlock: QUQFOY_clean_sbu_1, # of connection points: 4
#     Node 13, Type 0, BuildingBlock: QUQFOY_clean_sbu_1, # of connection points: 4
#     Node 14, Type 0, BuildingBlock: QUQFOY_clean_sbu_1, # of connection points: 4
#     Node 15, Type 0, BuildingBlock: QUQFOY_clean_sbu_1, # of connection points: 4
#     Node 16, Type 0, BuildingBlock: QUQFOY_clean_sbu_1, # of connection points: 4
#     Node 17, Type 0, BuildingBlock: QUQFOY_clean_sbu_1, # of connection points: 4
#     Node 18, Type 0, BuildingBlock: QUQFOY_clean_sbu_1, # of connection points: 4
#     Node 19, Type 0, BuildingBlock: QUQFOY_clean_sbu_1, # of connection points: 4
#     Node 20, Type 0, BuildingBlock: QUQFOY_clean_sbu_1, # of connection points: 4
#     Node 21, Type 0, BuildingBlock: QUQFOY_clean_sbu_1, # of connection points: 4
#     Node 22, Type 0, BuildingBlock: QUQFOY_clean_sbu_1, # of connection points: 4
#     Node 23, Type 0, BuildingBlock: QUQFOY_clean_sbu_1, # of connection points: 4
#     Edge 24, Type (0, 0), BuildingBlock: EZIPEK_clean_linker_0, # of connection points: 2
#     Edge 25, Type (0, 0), BuildingBlock: EZIPEK_clean_linker_0, # of connection points: 2
#     Edge 26, Type (0, 0), BuildingBlock: EZIPEK_clean_linker_0, # of connection points: 2
#     Edge 27, Type (0, 0), BuildingBlock: EZIPEK_clean_linker_0, # of connection points: 2
#     Edge 28, Type (0, 0), BuildingBlock: EZIPEK_clean_linker_0, # of connection points: 2
#     Edge 29, Type (0, 0), BuildingBlock: EZIPEK_clean_linker_0, # of connection points: 2
#     Edge 30, Type (0, 0), BuildingBlock: EZIPEK_clean_linker_0, # of connection points: 2
#     Edge 31, Type (0, 0), BuildingBlock: EZIPEK_clean_linker_0, # of connection points: 2
#     Edge 32, Type (0, 0), BuildingBlock: EZIPEK_clean_linker_0, # of connection points: 2
#     Edge 33, Type (0, 0), BuildingBlock: EZIPEK_clean_linker_0, # of connection points: 2
#     Edge 34, Type (0, 0), BuildingBlock: EZIPEK_clean_linker_0, # of connection points: 2
#     Edge 35, Type (0, 0), BuildingBlock: EZIPEK_clean_linker_0, # of connection points: 2
#     Edge 36, Type (0, 0), BuildingBlock: EZIPEK_clean_linker_0, # of connection points: 2
#     Edge 37, Type (0, 0), BuildingBlock: EZIPEK_clean_linker_0, # of connection points: 2
#     Edge 38, Type (0, 0), BuildingBlock: EZIPEK_clean_linker_0, # of connection points: 2
#     Edge 39, Type (0, 0), BuildingBlock: EZIPEK_clean_linker_0, # of connection points: 2
#     Edge 40, Type (0, 0), BuildingBlock: EZIPEK_clean_linker_0, # of connection points: 2
#     Edge 41, Type (0, 0), BuildingBlock: EZIPEK_clean_linker_0, # of connection points: 2
#     Edge 42, Type (0, 0), BuildingBlock: EZIPEK_clean_linker_0, # of connection points: 2
#     Edge 43, Type (0, 0), BuildingBlock: EZIPEK_clean_linker_0, # of connection points: 2
#     Edge 44, Type (0, 0), BuildingBlock: EZIPEK_clean_linker_0, # of connection points: 2
#     Edge 45, Type (0, 0), BuildingBlock: EZIPEK_clean_linker_0, # of connection points: 2
#     Edge 46, Type (0, 0), BuildingBlock: EZIPEK_clean_linker_0, # of connection points: 2
#     Edge 47, Type (0, 0), BuildingBlock: EZIPEK_clean_linker_0, # of connection points: 2
#     Edge 48, Type (0, 0), BuildingBlock: EZIPEK_clean_linker_0, # of connection points: 2
#     Edge 49, Type (0, 0), BuildingBlock: EZIPEK_clean_linker_0, # of connection points: 2
#     Edge 50, Type (0, 0), BuildingBlock: EZIPEK_clean_linker_0, # of connection points: 2
#     Edge 51, Type (0, 0), BuildingBlock: EZIPEK_clean_linker_0, # of connection points: 2
#     Edge 52, Type (0, 0), BuildingBlock: EZIPEK_clean_linker_0, # of connection points: 2
#     Edge 53, Type (0, 0), BuildingBlock: EZIPEK_clean_linker_0, # of connection points: 2
#     Edge 54, Type (0, 0), BuildingBlock: EZIPEK_clean_linker_0, # of connection points: 2
#     Edge 55, Type (0, 0), BuildingBlock: EZIPEK_clean_linker_0, # of connection points: 2
#     Edge 56, Type (0, 0), BuildingBlock: EZIPEK_clean_linker_0, # of connection points: 2
#     Edge 57, Type (0, 0), BuildingBlock: EZIPEK_clean_linker_0, # of connection points: 2
#     Edge 58, Type (0, 0), BuildingBlock: EZIPEK_clean_linker_0, # of connection points: 2
#     Edge 59, Type (0, 0), BuildingBlock: EZIPEK_clean_linker_0, # of connection points: 2
#     Edge 60, Type (0, 0), BuildingBlock: EZIPEK_clean_linker_0, # of connection points: 2
#     Edge 61, Type (0, 0), BuildingBlock: EZIPEK_clean_linker_0, # of connection points: 2
#     Edge 62, Type (0, 0), BuildingBlock: EZIPEK_clean_linker_0, # of connection points: 2
#     Edge 63, Type (0, 0), BuildingBlock: EZIPEK_clean_linker_0, # of connection points: 2
#     Edge 64, Type (0, 0), BuildingBlock: EZIPEK_clean_linker_0, # of connection points: 2
#     Edge 65, Type (0, 0), BuildingBlock: EZIPEK_clean_linker_0, # of connection points: 2
#     Edge 66, Type (0, 0), BuildingBlock: EZIPEK_clean_linker_0, # of connection points: 2
#     Edge 67, Type (0, 0), BuildingBlock: EZIPEK_clean_linker_0, # of connection points: 2
#     Edge 68, Type (0, 0), BuildingBlock: EZIPEK_clean_linker_0, # of connection points: 2
#     Edge 69, Type (0, 0), BuildingBlock: EZIPEK_clean_linker_0, # of connection points: 2
#     Edge 70, Type (0, 0), BuildingBlock: EZIPEK_clean_linker_0, # of connection points: 2
#     Edge 71, Type (0, 0), BuildingBlock: EZIPEK_clean_linker_0, # of connection points: 2
# Relax obj value: 0.118
# Max RMSD: 0.153
# Mean RMSD: 0.128
data_MOF--net-unv--node1-QUQFOY_clean_sbu_1--edge1-EZIPEK_clean_linker_0
_symmetry_space_group_name_H-M    P1
_symmetry_Int_Tables_number       1
_symmetry_cell_setting            triclinic
loop_
_symmetry_equiv_pos_as_xyz
'x, y, z'
_cell_length_a     38.609004
_cell_length_b     38.64515
_cell_length_c     38.644335
_cell_angle_alpha  90.049046
_cell_angle_beta   89.963549
_cell_angle_gamma 90.018147
loop_
_atom_site_label
_atom_site_type_symbol
_atom_site_fract_x
_atom_site_fract_y
_atom_site_fract_z
_atom_type_partial_charge
O0 O 0.04331 0.11066 0.43095 0.0
Cd1 Cd 0.01088 0.11562 0.38865 0.0
Cd2 Cd 0.05117 0.06215 0.36866 0.0
O3 O 0.08458 0.08095 0.40589 0.0
O4 O 0.9885 0.16145 0.3964 0.0
O5 O 0.02244 0.1505 0.35151 0.0
C6 C 0.00427 0.17239 0.36914 0.0
C7 C 0.0677 0.0395 0.315 0.0
C8 C 0.07366 0.09803 0.43186 0.0
C9 C 0.97789 0.0476 0.38928 0.0
O10 O 0.0087 0.03633 0.38729 0.0
O11 O 0.97139 0.07962 0.38558 0.0
O12 O 0.07821 0.02582 0.34349 0.0
O13 O 0.05069 0.06824 0.3171 0.0
O14 O 0.95975 0.38589 0.42827 0.0
Cd15 Cd 0.99181 0.37789 0.38604 0.0
Cd16 Cd 0.95727 0.44061 0.36742 0.0
O17 O 0.92721 0.42943 0.41006 0.0
O18 O 0.01082 0.33092 0.39592 0.0
O19 O 0.97945 0.34225 0.34949 0.0
C20 C 0.9959 0.32003 0.36823 0.0
C21 C 0.93675 0.46906 0.31805 0.0
C22 C 0.93541 0.40751 0.43321 0.0
C23 C 0.03432 0.44187 0.3846 0.0
O24 O 0.00593 0.45765 0.3799 0.0
O25 O 0.03557 0.40901 0.38457 0.0
O26 O 0.93756 0.48424 0.34767 0.0
O27 O 0.94504 0.43672 0.31672 0.0
O28 O 0.03239 0.89892 0.06878 0.0
Cd29 Cd 0.00516 0.89326 0.11474 0.0
Cd30 Cd 0.04697 0.94851 0.12886 0.0
O31 O 0.07559 0.93112 0.08765 0.0
O32 O 0.97844 0.84989 0.10626 0.0
O33 O 0.02055 0.85311 0.14479 0.0
C34 C 0.9984 0.83446 0.12804 0.0
C35 C 0.06682 0.97024 0.18147 0.0
C36 C 0.06124 0.91392 0.06355 0.0
C37 C 0.97263 0.96263 0.12025 0.0
O38 O 0.00298 0.97415 0.11536 0.0
O39 O 0.96769 0.93061 0.12635 0.0
O40 O 0.05046 0.94106 0.18002 0.0
O41 O 0.07556 0.98447 0.15261 0.0
O42 O 0.96348 0.61514 0.07426 0.0
Cd43 Cd 0.99361 0.62432 0.1178 0.0
Cd44 Cd 0.95524 0.56583 0.13665 0.0
O45 O 0.92606 0.57624 0.09346 0.0
O46 O 0.01642 0.66898 0.10543 0.0
O47 O 0.97886 0.66465 0.14826 0.0
C48 C 0.99822 0.68394 0.12901 0.0
C49 C 0.93602 0.547 0.19042 0.0
C50 C 0.93718 0.59587 0.06947 0.0
C51 C 0.03205 0.55808 0.12484 0.0
O52 O 1.00235 0.5442 0.12613 0.0
O53 O 0.03526 0.59085 0.12595 0.0
O54 O 0.93399 0.52728 0.16359 0.0
O55 O 0.94466 0.579 0.18588 0.0
O56 O 0.43954 0.03225 0.11015 0.0
Cd57 Cd 0.39604 1.0009 0.11587 0.0
Cd58 Cd 0.37614 0.04487 0.06854 0.0
O59 O 0.41428 0.07719 0.08659 0.0
O60 O 0.40285 0.97742 0.16129 0.0
O61 O 0.36054 0.0149 0.15148 0.0
C62 C 0.37714 0.9953 0.17291 0.0
C63 C 0.32007 0.05934 0.05233 0.0
C64 C 0.44079 0.06382 0.10083 0.0
C65 C 0.39192 0.97255 0.04659 0.0
O66 O 0.3934 0.00442 0.03894 0.0
O67 O 0.38711 0.96365 0.07787 0.0
O68 O 0.34633 0.06905 0.03412 0.0
O69 O 0.32592 0.04526 0.08211 0.0
O70 O 0.56363 0.47555 0.10964 0.0
Cd71 Cd 0.60636 0.50665 0.11904 0.0
Cd72 Cd 0.6282 0.4708 0.06214 0.0
O73 O 0.58566 0.44031 0.07023 0.0
O74 O 0.59829 0.52448 0.1668 0.0
O75 O 0.64282 0.49107 0.15315 0.0
C76 C 0.62528 0.50745 0.17647 0.0
C77 C 0.68211 0.45153 0.04403 0.0
C78 C 0.56053 0.44991 0.0892 0.0
C79 C 0.61233 0.54689 0.05438 0.0
O80 O 0.61704 0.51763 0.04034 0.0
O81 O 0.61117 0.54974 0.08715 0.0
O82 O 0.65556 0.44951 0.02399 0.0
O83 O 0.67735 0.46094 0.07579 0.0
O84 O 0.43262 0.94913 0.38637 0.0
Cd85 Cd 0.3917 0.98298 0.37933 0.0
Cd86 Cd 0.37196 0.94633 0.43946 0.0
O87 O 0.41039 0.91245 0.42368 0.0
O88 O 0.40269 0.00297 0.33295 0.0
O89 O 0.35543 0.97227 0.34291 0.0
C90 C 0.37499 0.9886 0.32126 0.0
C91 C 0.32032 0.93024 0.46667 0.0
C92 C 0.43476 0.92092 0.40311 0.0
C93 C 0.3926 0.02191 0.44498 0.0
O94 O 0.38921 0.99255 0.45924 0.0
O95 O 0.3902 0.02524 0.41235 0.0
O96 O 0.34982 0.9253 0.48138 0.0
O97 O 0.32012 0.94135 0.43516 0.0
O98 O 0.56828 0.53957 0.39046 0.0
Cd99 Cd 0.61059 0.50775 0.38247 0.0
Cd100 Cd 0.63088 0.54567 0.43879 0.0
O101 O 0.5905 0.5781 0.42587 0.0
O102 O 0.60133 0.48865 0.33539 0.0
O103 O 0.64679 0.52146 0.34718 0.0
C104 C 0.62831 0.50503 0.32465 0.0
C105 C 0.68491 0.56247 0.45927 0.0
C106 C 0.56546 0.5678 0.40705 0.0
C107 C 0.61255 0.46996 0.44797 0.0
O108 O 0.6161 0.49986 0.46104 0.0
O109 O 0.61369 0.46559 0.41539 0.0
O110 O 0.65741 0.56723 0.47757 0.0
O111 O 0.68135 0.55158 0.42781 0.0
O112 O 0.1136 0.44092 0.05062 0.0
Cd113 Cd 0.11802 0.4005 0.01561 0.0
Cd114 Cd 0.06216 0.37943 0.05458 0.0
O115 O 0.0792 0.41677 0.08886 0.0
O116 O 0.16397 0.40894 0.99362 0.0
O117 O 0.1525 0.36222 0.0247 0.0
C118 C 0.17449 0.38046 0.0073 0.0
C119 C 0.03992 0.3257 0.07024 0.0
C120 C 0.09876 0.44178 0.07999 0.0
C121 C 0.05047 0.40169 0.98062 0.0
O122 O 0.03818 0.39748 0.01077 0.0
O123 O 0.08288 0.40022 0.9752 0.0
O124 O 0.02363 0.35379 0.07778 0.0
O125 O 0.07032 0.32814 0.05642 0.0
O126 O 0.11477 0.56409 0.46557 0.0
Cd127 Cd 0.12125 0.60689 0.49725 0.0
Cd128 Cd 0.06248 0.62567 0.45947 0.0
O129 O 0.07515 0.58384 0.42926 0.0
O130 O 0.16823 0.59955 0.51742 0.0
O131 O 0.15549 0.64437 0.48419 0.0
C132 C 0.17824 0.62707 0.50154 0.0
C133 C 0.03577 0.67592 0.43977 0.0
C134 C 0.09516 0.5598 0.43947 0.0
C135 C 0.05506 0.6085 0.53558 0.0
O136 O 0.04147 0.61217 0.506 0.0
O137 O 0.08777 0.6092 0.53936 0.0
O138 O 0.02086 0.64629 0.43677 0.0
O139 O 0.06737 0.67676 0.45063 0.0
O140 O 0.89547 0.92341 0.46744 0.0
Cd141 Cd 0.8864 0.8813 0.49928 0.0
Cd142 Cd 0.94312 0.85942 0.46167 0.0
O143 O 0.93433 0.90176 0.43133 0.0
O144 O 0.8396 0.89169 0.51888 0.0
O145 O 0.84992 0.84598 0.48604 0.0
C146 C 0.82798 0.86492 0.50276 0.0
C147 C 0.96157 0.8056 0.44241 0.0
C148 C 0.91558 0.92678 0.44156 0.0
C149 C 0.95289 0.87685 0.53726 0.0
O150 O 0.966 0.87168 0.50765 0.0
O151 O 0.92014 0.87737 0.54125 0.0
O152 O 0.9812 0.83239 0.43972 0.0
O153 O 0.92998 0.80998 0.4526 0.0
O154 O 0.38997 0.57644 0.55253 0.0
Cd155 Cd 0.38383 0.61561 0.5167 0.0
Cd156 Cd 0.44377 0.63815 0.55404 0.0
O157 O 0.42812 0.59969 0.58782 0.0
O158 O 0.33775 0.60419 0.49626 0.0
O159 O 0.34751 0.65238 0.52559 0.0
C160 C 0.32601 0.63238 0.50958 0.0
C161 C 0.469 0.69006 0.57247 0.0
C162 C 0.4069 0.57546 0.58069 0.0
C163 C 0.45043 0.6162 0.47827 0.0
O164 O 0.46453 0.62244 0.5073 0.0
O165 O 0.41766 0.6157 0.47512 0.0
O166 O 0.48497 0.66103 0.57576 0.0
O167 O 0.4375 0.6895 0.56119 0.0
O168 O 0.53411 0.61429 0.93381 0.0
Cd169 Cd 0.50536 0.61835 0.8889 0.0
Cd170 Cd 0.54885 0.56661 0.87349 0.0
O171 O 0.57969 0.59034 0.91027 0.0
O172 O 0.4815 0.66375 0.89491 0.0
O173 O 0.52107 0.65424 0.85448 0.0
C174 C 0.50111 0.6757 0.87068 0.0
C175 C 0.56658 0.54387 0.82039 0.0
C176 C 0.56592 0.60619 0.93565 0.0
C177 C 0.47572 0.54857 0.88586 0.0
O178 O 0.5068 0.53907 0.89084 0.0
O179 O 0.46891 0.58001 0.87882 0.0
O180 O 0.57823 0.53159 0.84911 0.0
O181 O 0.54816 0.57179 0.82191 0.0
O182 O 0.4702 0.89933 0.92783 0.0
Cd183 Cd 0.50276 0.88328 0.88824 0.0
Cd184 Cd 0.4639 0.92906 0.85744 0.0
O185 O 0.42765 0.91272 0.8931 0.0
O186 O 0.51983 0.83612 0.90011 0.0
O187 O 0.48717 0.847 0.85418 0.0
C188 C 0.50322 0.8248 0.87341 0.0
C189 C 0.44919 0.94799 0.8022 0.0
C190 C 0.43881 0.90825 0.9236 0.0
C191 C 0.53642 0.94826 0.88003 0.0
O192 O 0.50526 0.95793 0.87588 0.0
O193 O 0.5438 0.91624 0.87939 0.0
O194 O 0.44099 0.96563 0.82925 0.0
O195 O 0.4626 0.91769 0.80662 0.0
O196 O 0.53311 0.39674 0.57556 0.0
Cd197 Cd 0.50443 0.38912 0.62015 0.0
Cd198 Cd 0.54512 0.44573 0.63728 0.0
O199 O 0.57431 0.4311 0.59534 0.0
O200 O 0.48184 0.34349 0.61075 0.0
O201 O 0.51951 0.35137 0.65311 0.0
C202 C 0.50037 0.33054 0.63523 0.0
C203 C 0.56491 0.47012 0.68909 0.0
C204 C 0.56089 0.41374 0.5708 0.0
C205 C 0.46982 0.45734 0.62527 0.0
O206 O 0.5002 0.46967 0.62377 0.0
O207 O 0.46496 0.42497 0.62927 0.0
O208 O 0.57213 0.48392 0.65965 0.0
O209 O 0.55013 0.44011 0.68877 0.0
O210 O 0.46734 0.11325 0.56555 0.0
Cd211 Cd 0.4992 0.12409 0.60732 0.0
Cd212 Cd 0.46562 0.06171 0.62934 0.0
O213 O 0.43492 0.0711 0.58707 0.0
O214 O 0.51563 0.17229 0.59809 0.0
O215 O 0.4849 0.15847 0.64435 0.0
C216 C 0.50019 0.1819 0.62604 0.0
C217 C 0.44715 0.02951 0.67707 0.0
C218 C 0.44314 0.09112 0.56229 0.0
C219 C 0.54245 0.06104 0.61061 0.0
O220 O 0.51416 0.0455 0.61639 0.0
O221 O 0.54371 0.09389 0.60921 0.0
O222 O 0.44714 0.0165 0.64647 0.0
O223 O 0.45431 0.06195 0.6804 0.0
O224 O 0.92693 0.53329 0.61224 0.0
Cd225 Cd 0.88367 0.50273 0.6199 0.0
Cd226 Cd 0.86522 0.53972 0.56032 0.0
O227 O 0.90799 0.56932 0.572 0.0
O228 O 0.89174 0.48412 0.66741 0.0
O229 O 0.84714 0.51757 0.65448 0.0
C230 C 0.8649 0.50112 0.67752 0.0
C231 C 0.8146 0.56002 0.5343 0.0
C232 C 0.93183 0.55889 0.59218 0.0
C233 C 0.88163 0.46305 0.55459 0.0
O234 O 0.87796 0.4924 0.54045 0.0
O235 O 0.88081 0.45991 0.58736 0.0
O236 O 0.84394 0.56176 0.5186 0.0
O237 O 0.81429 0.54975 0.56609 0.0
O238 O 0.07342 0.95875 0.61143 0.0
Cd239 Cd 0.11449 0.9929 0.61674 0.0
Cd240 Cd 0.13524 0.95333 0.55996 0.0
O241 O 0.09561 0.92072 0.57542 0.0
O242 O 0.10524 0.01455 0.66285 0.0
O243 O 0.15111 0.98185 0.65251 0.0
C244 C 0.13257 0.99927 0.67425 0.0
C245 C 0.18998 0.93589 0.54107 0.0
C246 C 0.07138 0.92983 0.59589 0.0
C247 C 0.11716 0.02877 0.54891 0.0
O248 O 0.12083 0.99871 0.53619 0.0
O249 O 0.11787 0.03341 0.5815 0.0
O250 O 0.16286 0.9309 0.52228 0.0
O251 O 0.18556 0.94742 0.57219 0.0
O252 O 0.92614 0.47506 0.89402 0.0
Cd253 Cd 0.88312 0.50513 0.88366 0.0
Cd254 Cd 0.86203 0.46898 0.94222 0.0
O255 O 0.90399 0.43818 0.93178 0.0
O256 O 0.89205 0.52251 0.83585 0.0
O257 O 0.84716 0.48942 0.84895 0.0
C258 C 0.86518 0.50549 0.82581 0.0
C259 C 0.81193 0.44981 0.96993 0.0
C260 C 0.92937 0.44901 0.91383 0.0
C261 C 0.88006 0.54536 0.94795 0.0
O262 O 0.87579 0.51606 0.96201 0.0
O263 O 0.87958 0.54851 0.9152 0.0
O264 O 0.84168 0.44764 0.98469 0.0
O265 O 0.81083 0.4596 0.93803 0.0
O266 O 0.07782 0.04059 0.89373 0.0
Cd267 Cd 0.11846 0.00782 0.88165 0.0
Cd268 Cd 0.14221 0.04006 0.94484 0.0
O269 O 0.10034 0.07189 0.93626 0.0
O270 O 0.10583 0.99078 0.83439 0.0
O271 O 0.15377 0.02024 0.8447 0.0
C272 C 0.13362 0.00504 0.82278 0.0
C273 C 0.19157 0.0578 0.97533 0.0
C274 C 0.07531 0.06463 0.91613 0.0
C275 C 0.12106 0.96383 0.94439 0.0
O276 O 0.12807 0.99156 0.96048 0.0
O277 O 0.1195 0.96328 0.91154 0.0
O278 O 0.1615 0.05777 0.98961 0.0
O279 O 0.19351 0.05061 0.94278 0.0
O280 O 0.61506 0.93245 0.53389 0.0
Cd281 Cd 0.6216 0.88757 0.50518 0.0
Cd282 Cd 0.56458 0.87081 0.54555 0.0
O283 O 0.57569 0.91565 0.572 0.0
O284 O 0.66864 0.8939 0.48444 0.0
O285 O 0.65646 0.85192 0.52134 0.0
C286 C 0.67913 0.86823 0.50291 0.0
C287 C 0.54635 0.81819 0.5682 0.0
C288 C 0.59581 0.93876 0.55988 0.0
C289 C 0.55439 0.88039 0.46847 0.0
O290 O 0.54147 0.87867 0.49857 0.0
O291 O 0.58709 0.88042 0.4642 0.0
O292 O 0.52671 0.84511 0.56954 0.0
O293 O 0.57807 0.82221 0.55823 0.0
O294 O 0.6156 0.0697 0.95767 0.0
Cd295 Cd 0.62233 0.1099 0.99265 0.0
Cd296 Cd 0.56411 0.13156 0.95675 0.0
O297 O 0.57747 0.09292 0.92252 0.0
O298 O 0.66935 0.10085 0.01225 0.0
O299 O 0.65716 0.14748 0.9814 0.0
C300 C 0.67972 0.12899 0.99773 0.0
C301 C 0.54392 0.18597 0.9406 0.0
C302 C 0.59827 0.06842 0.92974 0.0
C303 C 0.5562 0.11094 0.03176 0.0
O304 O 0.54213 0.11589 0.00253 0.0
O305 O 0.58899 0.11146 0.03489 0.0
O306 O 0.52526 0.15868 0.93618 0.0
O307 O 0.57546 0.18203 0.95113 0.0
O308 O 0.3889 0.42866 0.94902 0.0
Cd309 Cd 0.37993 0.38977 0.98482 0.0
Cd310 Cd 0.44028 0.36663 0.95066 0.0
O311 O 0.42629 0.40318 0.91454 0.0
O312 O 0.33395 0.40313 0.00428 0.0
O313 O 0.34252 0.35397 0.97624 0.0
C314 C 0.32158 0.37478 0.99194 0.0
C315 C 0.46807 0.31498 0.93621 0.0
C316 C 0.4065 0.42866 0.9212 0.0
C317 C 0.44461 0.39174 0.02493 0.0
O318 O 0.45948 0.38611 0.99619 0.0
O319 O 0.41189 0.38998 0.02768 0.0
O320 O 0.48284 0.34441 0.93125 0.0
O321 O 0.43638 0.31473 0.94687 0.0
O322 O 0.89196 0.07961 0.05046 0.0
Cd323 Cd 0.88586 0.11824 0.01394 0.0
Cd324 Cd 0.94169 0.14272 0.05267 0.0
O325 O 0.92514 0.10636 0.08807 0.0
O326 O 0.84024 0.10624 0.99265 0.0
O327 O 0.84899 0.15461 0.02202 0.0
C328 C 0.82794 0.13427 0.00582 0.0
C329 C 0.96385 0.19668 0.068 0.0
C330 C 0.90642 0.08046 0.07999 0.0
C331 C 0.95395 0.11742 0.97938 0.0
O332 O 0.96595 0.1236 0.00931 0.0
O333 O 0.92151 0.11812 0.97371 0.0
O334 O 0.98032 0.1687 0.07539 0.0
O335 O 0.93342 0.19405 0.05433 0.0
C336 C 0.08151 0.07821 0.52521 0.0
C337 C 0.11224 0.05807 0.52452 0.0
C338 C 0.12634 0.08109 0.46695 0.0
C339 C 0.09282 0.09598 0.46564 0.0
N340 N 0.05099 0.12684 0.50011 0.0
N341 N 0.16912 0.04927 0.50067 0.0
C342 C 0.0744 0.10059 0.49701 0.0
C343 C 0.13655 0.06264 0.49723 0.0
N344 N 0.0579 0.07437 0.55126 0.0
N345 N 0.14803 0.08494 0.43931 0.0
H346 H 0.17719 0.03723 0.52341 0.0
H347 H 0.18875 0.05188 0.48244 0.0
H348 H 0.14229 0.10198 0.41916 0.0
H349 H 0.17171 0.07242 0.43658 0.0
H350 H 0.03333 0.08552 0.55049 0.0
H351 H 0.06177 0.05827 0.57249 0.0
H352 H 0.03842 0.1327 0.52326 0.0
H353 H 0.04817 0.14565 0.48096 0.0
C354 C 0.94282 0.41979 0.49672 0.0
C355 C 0.9206 0.41143 0.46846 0.0
C356 C 0.86987 0.42437 0.50439 0.0
C357 C 0.89227 0.43427 0.53167 0.0
N358 N 0.94809 0.42884 0.55856 0.0
N359 N 0.86354 0.39681 0.44811 0.0
C360 C 0.92804 0.42711 0.52952 0.0
C361 C 0.88418 0.4106 0.47329 0.0
N362 N 0.97765 0.42417 0.49172 0.0
N363 N 0.8351 0.42966 0.50797 0.0
H364 H 0.87363 0.38635 0.42532 0.0
H365 H 0.83698 0.39312 0.45089 0.0
H366 H 0.82431 0.43814 0.53128 0.0
H367 H 0.8173 0.42664 0.48799 0.0
H368 H 0.99408 0.4343 0.51055 0.0
H369 H 0.98995 0.42108 0.46795 0.0
H370 H 0.97396 0.42117 0.55909 0.0
H371 H 0.93778 0.43425 0.5829 0.0
C372 C 0.11279 0.91044 0.02407 0.0
C373 C 0.07651 0.91495 0.02819 0.0
C374 C 0.07231 0.92923 0.96654 0.0
C375 C 0.10844 0.93458 0.96565 0.0
N376 N 0.16423 0.92679 0.99167 0.0
N377 N 0.02161 0.93253 0.00261 0.0
C378 C 0.12911 0.92333 0.99367 0.0
C379 C 0.05592 0.92446 0.99904 0.0
N380 N 0.13144 0.89404 0.04918 0.0
N381 N 0.05352 0.93058 0.93668 0.0
H382 H 0.00838 0.9325 0.02604 0.0
H383 H 0.00688 0.94299 0.98261 0.0
H384 H 0.06516 0.93359 0.91253 0.0
H385 H 0.02725 0.92447 0.93559 0.0
H386 H 0.15756 0.88784 0.04658 0.0
H387 H 0.11981 0.88359 0.07122 0.0
H388 H 0.1808 0.92308 0.0126 0.0
H389 H 0.17645 0.93473 0.96889 0.0
C390 C 0.88517 0.59539 0.03033 0.0
C391 C 0.92167 0.5933 0.03436 0.0
C392 C 0.92722 0.58063 0.97242 0.0
C393 C 0.89135 0.57379 0.97098 0.0
N394 N 0.83495 0.57792 0.9966 0.0
N395 N 0.97778 0.58027 0.00893 0.0
C396 C 0.86985 0.58288 0.99924 0.0
C397 C 0.94299 0.58583 0.00515 0.0
N398 N 0.86539 0.60933 0.05613 0.0
N399 N 0.94638 0.58044 0.94273 0.0
H400 H 0.99064 0.58095 0.03257 0.0
H401 H 0.99355 0.57135 0.98895 0.0
H402 H 0.93521 0.57675 0.91846 0.0
H403 H 0.97232 0.58785 0.94188 0.0
H404 H 0.83893 0.61392 0.05378 0.0
H405 H 0.87617 0.61931 0.07881 0.0
H406 H 0.81788 0.58016 0.01735 0.0
H407 H 0.82339 0.57033 0.97336 0.0
C408 C 0.50613 0.06326 0.10153 0.0
C409 C 0.47494 0.08238 0.09932 0.0
C410 C 0.50608 0.1284 0.06884 0.0
C411 C 0.53313 0.10442 0.06182 0.0
N412 N 0.56017 0.04912 0.07341 0.0
N413 N 0.4501 0.13915 0.09624 0.0
C414 C 0.53412 0.07224 0.07949 0.0
C415 C 0.4765 0.11716 0.0879 0.0
N416 N 0.50933 0.03751 0.12544 0.0
N417 N 0.50873 0.16142 0.05652 0.0
H418 H 0.43044 0.13179 0.1133 0.0
H419 H 0.4486 0.16488 0.08861 0.0
H420 H 0.53127 0.17038 0.04462 0.0
H421 H 0.48953 0.18015 0.05861 0.0
H422 H 0.5324 0.02422 0.12975 0.0
H423 H 0.4904 0.03314 0.14423 0.0
H424 H 0.55956 0.02371 0.0824 0.0
H425 H 0.5814 0.05447 0.05767 0.0
C426 C 0.49852 0.45618 0.07047 0.0
C427 C 0.5259 0.43474 0.08275 0.0
C428 C 0.49279 0.38301 0.067 0.0
C429 C 0.46631 0.40456 0.05367 0.0
N430 N 0.43818 0.46015 0.05385 0.0
N431 N 0.54522 0.37861 0.10151 0.0
C432 C 0.46706 0.44061 0.05974 0.0
C433 C 0.52163 0.39832 0.08405 0.0
N434 N 0.50348 0.49092 0.06562 0.0
N435 N 0.49079 0.34807 0.06204 0.0
H436 H 0.56627 0.38948 0.11452 0.0
H437 H 0.54234 0.35216 0.10569 0.0
H438 H 0.46891 0.33633 0.05133 0.0
H439 H 0.51097 0.33104 0.06738 0.0
H440 H 0.48578 0.50665 0.05276 0.0
H441 H 0.52645 0.50384 0.07123 0.0
H442 H 0.43634 0.48613 0.06086 0.0
H443 H 0.41482 0.44955 0.04551 0.0
C444 C 0.52936 0.91316 0.41774 0.0
C445 C 0.52982 0.88326 0.43902 0.0
C446 C 0.47064 0.86892 0.42065 0.0
C447 C 0.4686 0.90169 0.40432 0.0
N448 N 0.50165 0.94146 0.36927 0.0
N449 N 0.50672 0.82673 0.45055 0.0
C450 C 0.49984 0.91949 0.39682 0.0
C451 C 0.50226 0.85899 0.43689 0.0
N452 N 0.55565 0.93675 0.4191 0.0
N453 N 0.44237 0.84772 0.42053 0.0
H454 H 0.5304 0.81903 0.46096 0.0
H455 H 0.4885 0.80695 0.44915 0.0
H456 H 0.42076 0.85298 0.40517 0.0
H457 H 0.44037 0.82505 0.43487 0.0
H458 H 0.55415 0.96091 0.4072 0.0
H459 H 0.57799 0.93323 0.43374 0.0
H460 H 0.52457 0.95348 0.36159 0.0
H461 H 0.48167 0.94333 0.35121 0.0
C462 C 0.47351 0.57393 0.43427 0.0
C463 C 0.47328 0.60769 0.44861 0.0
C464 C 0.52894 0.62028 0.42089 0.0
C465 C 0.53091 0.58522 0.41018 0.0
N466 N 0.4963 0.53758 0.38875 0.0
N467 N 0.49273 0.66645 0.44374 0.0
C468 C 0.50032 0.5648 0.4109 0.0
C469 C 0.49852 0.63211 0.43803 0.0
N470 N 0.44956 0.54991 0.44425 0.0
N471 N 0.55619 0.64193 0.41479 0.0
H472 H 0.46938 0.67524 0.45416 0.0
H473 H 0.50897 0.68605 0.43492 0.0
H474 H 0.57689 0.63472 0.39895 0.0
H475 H 0.55837 0.66657 0.42551 0.0
H476 H 0.45138 0.52385 0.43747 0.0
H477 H 0.42929 0.55539 0.4612 0.0
H478 H 0.4735 0.5232 0.38726 0.0
H479 H 0.51325 0.53305 0.36825 0.0
C480 C 0.08239 0.47562 0.13366 0.0
C481 C 0.09802 0.47486 0.10047 0.0
C482 C 0.08355 0.53566 0.09131 0.0
C483 C 0.06229 0.5346 0.12128 0.0
N484 N 0.05077 0.50919 0.17682 0.0
N485 N 0.13182 0.50939 0.06105 0.0
C486 C 0.06512 0.50635 0.14462 0.0
C487 C 0.10475 0.50668 0.08358 0.0
N488 N 0.08422 0.44696 0.1542 0.0
N489 N 0.08177 0.56287 0.06887 0.0
H490 H 0.14983 0.4895 0.05797 0.0
H491 H 0.13915 0.5327 0.04963 0.0
H492 H 0.06703 0.58494 0.07354 0.0
H493 H 0.09354 0.56256 0.04459 0.0
H494 H 0.07115 0.44408 0.17755 0.0
H495 H 0.10012 0.42604 0.14782 0.0
H496 H 0.05191 0.49016 0.19578 0.0
H497 H 0.03936 0.53217 0.18527 0.0
C498 C 0.07091 0.46462 0.4317 0.0
C499 C 0.06419 0.46306 0.39584 0.0
C500 C 0.09194 0.51967 0.38847 0.0
C501 C 0.09045 0.52459 0.42483 0.0
N502 N 0.07425 0.50213 0.48135 0.0
N503 N 0.07132 0.48668 0.33894 0.0
C504 C 0.0797 0.49691 0.44674 0.0
C505 C 0.07628 0.48969 0.37378 0.0
N506 N 0.06725 0.43568 0.45161 0.0
N507 N 0.10808 0.54375 0.36824 0.0
H508 H 0.06163 0.46399 0.32786 0.0
H509 H 0.07578 0.50663 0.32141 0.0
H510 H 0.12003 0.56564 0.37867 0.0
H511 H 0.11226 0.54063 0.34181 0.0
H512 H 0.0745 0.43473 0.47757 0.0
H513 H 0.06081 0.41165 0.44119 0.0
H514 H 0.06244 0.48386 0.49729 0.0
H515 H 0.078 0.52567 0.49386 0.0
C516 C 0.93376 0.98863 0.4503 0.0
C517 C 0.92257 0.96176 0.42757 0.0
C518 C 0.9397 0.99674 0.37757 0.0
C519 C 0.95078 0.02317 0.40042 0.0
N520 N 0.94798 0.04929 0.4569 0.0
N521 N 0.90652 0.94384 0.37007 0.0
C522 C 0.94368 0.02095 0.43618 0.0
C523 C 0.92269 0.96709 0.39126 0.0
N524 N 0.93857 0.98248 0.48485 0.0
N525 N 0.94672 0.9995 0.34304 0.0
H526 H 0.89347 0.92221 0.37966 0.0
H527 H 0.90332 0.94762 0.34359 0.0
H528 H 0.95759 0.02179 0.3323 0.0
H529 H 0.94312 0.97938 0.32546 0.0
H530 H 0.95041 1.00014 0.50144 0.0
H531 H 0.93447 0.95866 0.49668 0.0
H532 H 0.94012 0.04995 0.4827 0.0
H533 H 0.95599 0.07322 0.44735 0.0
C534 C 0.42436 0.54258 0.63433 0.0
C535 C 0.4072 0.54299 0.60197 0.0
C536 C 0.41744 0.48109 0.59459 0.0
C537 C 0.44076 0.48227 0.62291 0.0
N538 N 0.45956 0.51008 0.67538 0.0
N539 N 0.3693 0.5091 0.5658 0.0
C540 C 0.44143 0.5117 0.64504 0.0
C541 C 0.3977 0.51102 0.58669 0.0
N542 N 0.42355 0.57155 0.65455 0.0
N543 N 0.41595 0.45264 0.57365 0.0
H544 H 0.3523 0.52988 0.56295 0.0
H545 H 0.35997 0.4859 0.55569 0.0
H546 H 0.42945 0.42988 0.57872 0.0
H547 H 0.4027 0.4524 0.55017 0.0
H548 H 0.43557 0.57387 0.6785 0.0
H549 H 0.40838 0.59292 0.64794 0.0
H550 H 0.46335 0.53083 0.69207 0.0
H551 H 0.47063 0.48706 0.68419 0.0
C552 C 0.57446 0.59424 0.0304 0.0
C553 C 0.60682 0.57682 0.031 0.0
C554 C 0.61958 0.59781 0.97242 0.0
C555 C 0.58454 0.60831 0.9697 0.0
N556 N 0.53926 0.63722 1.00135 0.0
N557 N 0.66434 0.57108 0.00804 0.0
C558 C 0.56533 0.61342 1.0005 0.0
C559 C 0.63101 0.5821 0.00378 0.0
N560 N 0.55132 0.59044 0.05686 0.0
N561 N 0.64149 0.60352 0.94529 0.0
H562 H 0.67304 0.56133 0.03166 0.0
H563 H 0.68356 0.5726 0.98926 0.0
H564 H 0.63402 0.61848 0.92408 0.0
H565 H 0.66718 0.59556 0.94438 0.0
H566 H 0.52575 0.59892 0.05531 0.0
H567 H 0.55701 0.57734 0.07969 0.0
H568 H 0.52584 0.64359 0.02388 0.0
H569 H 0.53466 0.65395 0.98067 0.0
C570 C 0.41734 0.91849 0.01817 0.0
C571 C 0.3945 0.94725 0.01758 0.0
C572 C 0.39425 0.94648 0.95442 0.0
C573 C 0.41755 0.91775 0.95457 0.0
N574 N 0.43823 0.86837 0.98676 0.0
N575 N 0.34938 0.97642 0.98609 0.0
C576 C 0.42465 0.90098 0.98657 0.0
C577 C 0.37867 0.95666 0.98595 0.0
N578 N 0.4338 0.90899 0.04793 0.0
N579 N 0.38913 0.96653 0.92572 0.0
H580 H 0.33733 0.98394 0.00905 0.0
H581 H 0.33523 0.98173 0.96373 0.0
H582 H 0.40136 0.96322 0.90206 0.0
H583 H 0.37509 0.98956 0.92655 0.0
H584 H 0.45369 0.89077 0.04836 0.0
H585 H 0.42934 0.9207 0.07176 0.0
H586 H 0.44156 0.85406 0.00937 0.0
H587 H 0.44211 0.85426 0.96403 0.0
C588 C 0.55149 0.43001 0.50833 0.0
C589 C 0.57425 0.41859 0.53506 0.0
C590 C 0.62411 0.43029 0.49752 0.0
C591 C 0.60121 0.44208 0.47149 0.0
N592 N 0.54398 0.44107 0.44711 0.0
N593 N 0.6311 0.39878 0.55144 0.0
C594 C 0.56521 0.4371 0.47508 0.0
C595 C 0.6103 0.41561 0.52838 0.0
N596 N 0.5176 0.43785 0.51524 0.0
N597 N 0.65894 0.43449 0.49313 0.0
H598 H 0.62139 0.38725 0.57385 0.0
H599 H 0.65714 0.39349 0.54682 0.0
H600 H 0.66941 0.44329 0.46982 0.0
H601 H 0.67704 0.43042 0.51267 0.0
H602 H 0.50135 0.44974 0.49733 0.0
H603 H 0.50641 0.43646 0.53969 0.0
H604 H 0.5177 0.43493 0.44764 0.0
H605 H 0.55347 0.44675 0.42249 0.0
C606 C 0.45266 0.07109 0.50115 0.0
C607 C 0.42952 0.08304 0.52734 0.0
C608 C 0.37998 0.0638 0.49265 0.0
C609 C 0.40325 0.05113 0.46727 0.0
N610 N 0.45998 0.05293 0.44157 0.0
N611 N 0.37169 0.09876 0.54438 0.0
C612 C 0.43895 0.05878 0.46941 0.0
C613 C 0.39323 0.08215 0.52175 0.0
N614 N 0.48739 0.06805 0.50761 0.0
N615 N 0.34541 0.05705 0.48938 0.0
H616 H 0.38104 0.11257 0.56565 0.0
H617 H 0.34514 0.10139 0.54056 0.0
H618 H 0.33511 0.04526 0.46734 0.0
H619 H 0.32726 0.06196 0.5087 0.0
H620 H 0.50448 0.05549 0.49095 0.0
H621 H 0.49906 0.07488 0.5309 0.0
H622 H 0.48571 0.06104 0.44056 0.0
H623 H 0.45073 0.0433 0.41813 0.0
C624 C 0.02793 0.56253 0.57027 0.0
C625 C 0.0316 0.59829 0.564 0.0
C626 C 0.974 0.60841 0.58886 0.0
C627 C 0.96754 0.57229 0.58733 0.0
N628 N 0.98783 0.51482 0.57164 0.0
N629 N 0.01007 0.65626 0.56946 0.0
C630 C 0.99457 0.5491 0.57756 0.0
C631 C 0.00535 0.62162 0.57458 0.0
N632 N 0.05601 0.54123 0.56752 0.0
N633 N 0.95017 0.62983 0.60382 0.0
H634 H 0.03357 0.66629 0.56057 0.0
H635 H 0.99068 0.67466 0.57285 0.0
H636 H 0.92723 0.62057 0.61474 0.0
H637 H 0.95437 0.6561 0.60809 0.0
H638 H 0.05544 0.5152 0.57451 0.0
H639 H 0.08072 0.55056 0.56191 0.0
H640 H 0.00583 0.49796 0.5607 0.0
H641 H 0.96342 0.50364 0.57395 0.0
C642 C 0.00601 0.86154 0.57038 0.0
C643 C 0.97731 0.88409 0.56605 0.0
C644 C 0.00633 0.92655 0.60289 0.0
C645 C 0.03824 0.90939 0.59684 0.0
N646 N 0.06673 0.85513 0.58625 0.0
N647 N 0.94958 0.93865 0.57984 0.0
C648 C 0.03744 0.87484 0.58447 0.0
C649 C 0.97682 0.91643 0.58352 0.0
N650 N 1.00287 0.82769 0.56065 0.0
N651 N 0.00384 0.9515 0.62776 0.0
H652 H 0.92707 0.9325 0.56637 0.0
H653 H 0.95036 0.96418 0.58854 0.0
H654 H 0.02377 0.95627 0.64531 0.0
H655 H 0.98047 0.96328 0.6344 0.0
H656 H 0.02201 0.80908 0.56409 0.0
H657 H 0.97951 0.81769 0.55145 0.0
H658 H 0.06952 0.83108 0.57448 0.0
H659 H 0.08839 0.86313 0.6003 0.0
C660 C 0.00416 0.38962 0.93692 0.0
C661 C 0.02653 0.41358 0.95338 0.0
C662 C 0.98761 0.46117 0.93949 0.0
C663 C 0.96461 0.43731 0.92325 0.0
N664 N 0.95395 0.38055 0.89995 0.0
N665 N 0.04549 0.47235 0.9609 0.0
C666 C 0.97394 0.40199 0.91974 0.0
C667 C 0.02036 0.44947 0.95101 0.0
N668 N 0.01145 0.35511 0.93875 0.0
N669 N 0.97709 0.49416 0.94703 0.0
H670 H 0.06963 0.46438 0.97004 0.0
H671 H 0.04374 0.49892 0.9567 0.0
H672 H 0.95267 0.5039 0.94113 0.0
H673 H 0.99137 0.51105 0.96244 0.0
H674 H 0.99444 0.33574 0.93089 0.0
H675 H 0.03462 0.34592 0.94919 0.0
H676 H 0.96056 0.35511 0.89408 0.0
H677 H 0.93184 0.38923 0.88707 0.0
C678 C 0.0148 0.05546 0.9377 0.0
C679 C 0.04051 0.07845 0.9246 0.0
C680 C 0.00372 0.12809 0.93919 0.0
C681 C 0.97858 0.10502 0.95274 0.0
N682 N 0.95517 0.04735 0.95547 0.0
N683 N 0.05683 0.13556 0.90604 0.0
C684 C 0.98233 0.0689 0.94838 0.0
C685 C 0.03405 0.11452 0.92307 0.0
N686 N 0.02234 0.02124 0.94299 0.0
N687 N 0.99879 0.1629 0.94267 0.0
H688 H 0.07907 0.12605 0.89396 0.0
H689 H 0.05251 0.16175 0.90155 0.0
H690 H 0.97553 0.17317 0.95185 0.0
H691 H 0.01766 0.18137 0.93732 0.0
H692 H 0.00606 0.00442 0.95635 0.0
H693 H 0.04616 0.01001 0.93718 0.0
H694 H 0.95524 0.02106 0.94949 0.0
H695 H 0.9312 0.05633 0.96405 0.0
C696 C 0.58264 0.0125 0.62312 0.0
C697 C 0.572 0.03903 0.60022 0.0
C698 C 0.58438 1.00233 0.55046 0.0
C699 C 0.59319 0.97471 0.57327 0.0
N700 N 0.61067 0.95665 0.63029 0.0
N701 N 0.57646 0.06419 0.54363 0.0
C702 C 0.59581 0.98094 0.60938 0.0
C703 C 0.57823 0.03572 0.56442 0.0
N704 N 0.57831 0.01712 0.65788 0.0
N705 N 0.57836 0.99631 0.51609 0.0
H706 H 0.57204 0.08891 0.55351 0.0
H707 H 0.58329 0.0638 0.51754 0.0
H708 H 0.58015 0.97207 0.50449 0.0
H709 H 0.56803 0.01489 0.49953 0.0
H710 H 0.58167 0.9976 0.67611 0.0
H711 H 0.57012 0.04076 0.66815 0.0
H712 H 0.61559 0.96058 0.65648 0.0
H713 H 0.62092 0.9336 0.6206 0.0
C714 C 0.58079 0.03533 0.87596 0.0
C715 C 0.59707 0.03563 0.90885 0.0
C716 C 0.58385 0.97441 0.9169 0.0
C717 C 0.56318 0.97515 0.8865 0.0
N718 N 0.55157 1.00166 0.83138 0.0
N719 N 0.63199 1.00076 0.94704 0.0
C720 C 0.5649 0.00422 0.86402 0.0
C721 C 0.60456 0.00361 0.92499 0.0
N722 N 0.58077 0.06476 0.85644 0.0
N723 N 0.58208 0.94725 0.93943 0.0
H724 H 0.65003 0.02062 0.95009 0.0
H725 H 0.63971 0.97727 0.9578 0.0
H726 H 0.56687 0.9254 0.93529 0.0
H727 H 0.59377 0.94777 0.96373 0.0
H728 H 0.56622 0.06808 0.83405 0.0
H729 H 0.59616 0.08604 0.86285 0.0
H730 H 0.55316 0.02102 0.81277 0.0
H731 H 0.5411 0.97864 0.82197 0.0
C732 C 0.42118 0.52298 0.91111 0.0
C733 C 0.44823 0.52175 0.88624 0.0
C734 C 0.43192 0.46217 0.87123 0.0
C735 C 0.4104 0.46153 0.90088 0.0
N736 N 0.3691 0.49545 0.93287 0.0
N737 N 0.47472 0.49357 0.83722 0.0
C738 C 0.39991 0.49337 0.91569 0.0
C739 C 0.45172 0.49247 0.86413 0.0
N740 N 0.41734 0.55121 0.93207 0.0
N741 N 0.43212 0.43422 0.84959 0.0
H742 H 0.4876 0.51623 0.83012 0.0
H743 H 0.48132 0.47237 0.82201 0.0
H744 H 0.41518 0.41347 0.85324 0.0
H745 H 0.44623 0.43271 0.82672 0.0
H746 H 0.40078 0.55155 0.95336 0.0
H747 H 0.43225 0.57354 0.92961 0.0
H748 H 0.35892 0.5186 0.94224 0.0
H749 H 0.35164 0.47483 0.93327 0.0
C750 C 0.8978 0.01616 0.08683 0.0
C751 C 0.90802 0.04817 0.10146 0.0
C752 C 0.94616 0.01752 0.1415 0.0
C753 C 0.94378 0.98789 0.11976 0.0
N754 N 0.9149 0.95747 0.07331 0.0
N755 N 0.92623 0.07615 0.15374 0.0
C756 C 0.91809 0.98628 0.09355 0.0
C757 C 0.92723 0.04785 0.13261 0.0
N758 N 0.86825 0.0143 0.06758 0.0
N759 N 0.96774 0.01683 0.16953 0.0
H760 H 0.9099 0.09704 0.14853 0.0
H761 H 0.93852 0.07773 0.17762 0.0
H762 H 0.98012 0.9942 0.17756 0.0
H763 H 0.97374 0.03834 0.18458 0.0
H764 H 0.85817 0.99115 0.05811 0.0
H765 H 0.8515 0.03537 0.0653 0.0
H766 H 0.89969 0.95673 0.05106 0.0
H767 H 0.92884 0.93482 0.07765 0.0
C768 C 0.96979 0.2256 0.35617 0.0
C769 C 1.00266 0.2097 0.36005 0.0
C770 C 0.03038 0.26671 0.35641 0.0
C771 C 0.99748 0.28267 0.35934 0.0
N772 N 0.9353 0.27736 0.36402 0.0
N773 N 0.06471 0.21537 0.36659 0.0
C774 C 0.96691 0.26221 0.35912 0.0
C775 C 0.03321 0.23022 0.36025 0.0
N776 N 0.94138 0.2056 0.34946 0.0
N777 N 0.05894 0.28655 0.34982 0.0
H778 H 0.06821 0.18887 0.36996 0.0
H779 H 0.08712 0.22964 0.37124 0.0
H780 H 0.05749 0.31332 0.34651 0.0
H781 H 0.08319 0.27621 0.34412 0.0
H782 H 0.91722 0.21579 0.34316 0.0
H783 H 0.94289 0.17877 0.34675 0.0
H784 H 0.91267 0.26335 0.36836 0.0
H785 H 0.93189 0.30401 0.36624 0.0
C786 C 1.00087 0.74102 0.16198 0.0
C787 C 0.99676 0.72247 0.13045 0.0
C788 C 0.99906 0.77691 0.09833 0.0
C789 C 0.9987 0.79592 0.12977 0.0
N790 N 0.99333 0.79575 0.19201 0.0
N791 N 0.98099 0.72447 0.06989 0.0
C792 C 0.99797 0.77791 0.16185 0.0
C793 C 0.99258 0.74092 0.09901 0.0
N794 N 0.00886 0.72374 0.19173 0.0
N795 N 0.00736 0.79271 0.06778 0.0
H796 H 0.97356 0.69852 0.06959 0.0
H797 H 0.9747 0.7377 0.04724 0.0
H798 H 0.01498 0.81854 0.06612 0.0
H799 H 0.01091 0.77901 0.04479 0.0
H800 H 0.01559 0.73625 0.21465 0.0
H801 H 0.01185 0.69695 0.19271 0.0
H802 H 0.98917 0.78368 0.21575 0.0
H803 H 0.9904 0.82256 0.19284 0.0
C804 C 0.36302 0.96209 0.22676 0.0
C805 C 0.36872 0.99446 0.21047 0.0
C806 C 0.36634 0.02299 0.26719 0.0
C807 C 0.36723 0.99021 0.2836 0.0
N808 N 0.36938 0.92787 0.2788 0.0
N809 N 0.37942 0.05595 0.21565 0.0
C810 C 0.36578 0.95949 0.2634 0.0
C811 C 0.37078 0.02513 0.23072 0.0
N812 N 0.35465 0.93386 0.20714 0.0
N813 N 0.36101 0.05211 0.28657 0.0
H814 H 0.38364 0.05889 0.1892 0.0
H815 H 0.38531 0.07814 0.2298 0.0
H816 H 0.3572 0.05125 0.3133 0.0
H817 H 0.35679 0.07645 0.2758 0.0
H818 H 0.34695 0.91029 0.21769 0.0
H819 H 0.35196 0.93513 0.1803 0.0
H820 H 0.37274 0.90499 0.26493 0.0
H821 H 0.37176 0.92457 0.30544 0.0
C822 C 0.63874 0.53774 0.23205 0.0
C823 C 0.63454 0.5062 0.21378 0.0
C824 C 0.6387 0.47439 0.26855 0.0
C825 C 0.63615 0.50602 0.28699 0.0
N826 N 0.63069 0.56838 0.28606 0.0
N827 N 0.62775 0.444 0.21487 0.0
C828 C 0.63597 0.53796 0.26876 0.0
C829 C 0.63438 0.47426 0.23198 0.0
N830 N 0.64562 0.56748 0.21421 0.0
N831 N 0.6455 0.44446 0.2861 0.0
H832 H 0.62409 0.44254 0.18821 0.0
H833 H 0.62317 0.42063 0.22747 0.0
H834 H 0.64925 0.44392 0.31284 0.0
H835 H 0.65091 0.42105 0.27388 0.0
H836 H 0.65223 0.59072 0.2262 0.0
H837 H 0.64824 0.56797 0.18733 0.0
H838 H 0.62611 0.59182 0.27359 0.0
H839 H 0.62808 0.57 0.31283 0.0
C840 C 0.26225 0.36752 0.96589 0.0
C841 C 0.28403 0.36742 0.99548 0.0
C842 C 0.23323 0.37 0.03354 0.0
C843 C 0.21142 0.37036 0.00395 0.0
N844 N 0.20416 0.36015 0.94297 0.0
N845 N 0.29056 0.35895 0.05679 0.0
C846 C 0.22569 0.366 0.97042 0.0
C847 C 0.26952 0.36543 0.02912 0.0
N848 N 0.27628 0.37128 0.93362 0.0
N849 N 0.2197 0.37634 0.06563 0.0
H850 H 0.31722 0.35522 0.05418 0.0
H851 H 0.2813 0.35389 0.08159 0.0
H852 H 0.19332 0.37978 0.07018 0.0
H853 H 0.23486 0.38066 0.0875 0.0
H854 H 0.26156 0.37583 0.91152 0.0
H855 H 0.30287 0.37218 0.9291 0.0
H856 H 0.21295 0.35353 0.91836 0.0
H857 H 0.1773 0.3586 0.94567 0.0
C858 C 0.23121 0.64238 0.53539 0.0
C859 C 0.21533 0.63725 0.50272 0.0
C860 C 0.27225 0.64146 0.47473 0.0
C861 C 0.28835 0.63999 0.50765 0.0
N862 N 0.28321 0.63674 0.5699 0.0
N863 N 0.2208 0.62979 0.44086 0.0
C864 C 0.2679 0.64048 0.53823 0.0
C865 C 0.23577 0.63687 0.47213 0.0
N866 N 0.21108 0.64928 0.56367 0.0
N867 N 0.29197 0.64746 0.44597 0.0
H868 H 0.19425 0.62621 0.43764 0.0
H869 H 0.23496 0.62498 0.41843 0.0
H870 H 0.31871 0.65126 0.44725 0.0
H871 H 0.28154 0.65211 0.42157 0.0
H872 H 0.22116 0.65652 0.5876 0.0
H873 H 0.18415 0.65119 0.5622 0.0
H874 H 0.26931 0.63259 0.59263 0.0
H875 H 0.30992 0.63521 0.57335 0.0
C876 C 0.73445 0.85421 0.472 0.0
C877 C 0.71667 0.85937 0.50371 0.0
C878 C 0.77215 0.85608 0.53461 0.0
C879 C 0.79008 0.85766 0.50261 0.0
N880 N 0.78793 0.86155 0.44017 0.0
N881 N 0.71917 0.86866 0.56559 0.0
C882 C 0.77121 0.85704 0.47103 0.0
C883 C 0.73557 0.86066 0.53526 0.0
N884 N 0.71613 0.84627 0.44281 0.0
N885 N 0.79015 0.8499 0.56441 0.0
H886 H 0.6926 0.87288 0.56748 0.0
H887 H 0.73235 0.87399 0.5885 0.0
H888 H 0.81688 0.84588 0.56463 0.0
H889 H 0.77823 0.84515 0.58813 0.0
H890 H 0.72778 0.83896 0.4196 0.0
H891 H 0.68924 0.84346 0.44287 0.0
H892 H 0.77498 0.86546 0.41686 0.0
H893 H 0.81467 0.8643 0.438 0.0
C894 C 0.47067 0.76873 0.86385 0.0
C895 C 0.50256 0.78703 0.86582 0.0
C896 C 0.53422 0.73204 0.86761 0.0
C897 C 0.50245 0.71367 0.86424 0.0
N898 N 0.44179 0.71474 0.84984 0.0
N899 N 0.5646 0.78626 0.85922 0.0
C900 C 0.4711 0.73216 0.85928 0.0
C901 C 0.53431 0.76867 0.86428 0.0
N902 N 0.43999 0.78574 0.86858 0.0
N903 N 0.56397 0.71506 0.87652 0.0
H904 H 0.56549 0.81305 0.85598 0.0
H905 H 0.58817 0.77398 0.85454 0.0
H906 H 0.56533 0.68846 0.88053 0.0
H907 H 0.58677 0.72787 0.88318 0.0
H908 H 0.41636 0.77303 0.87136 0.0
H909 H 0.43829 0.81232 0.87276 0.0
H910 H 0.41892 0.72711 0.84267 0.0
H911 H 0.44148 0.68805 0.8457 0.0
C912 C 0.53264 0.27368 0.63688 0.0
C913 C 0.5011 0.29236 0.64046 0.0
C914 C 0.46845 0.23778 0.63869 0.0
C915 C 0.50006 0.21914 0.63596 0.0
N916 N 0.56205 0.21855 0.64261 0.0
N917 N 0.44025 0.29177 0.6541 0.0
C918 C 0.5321 0.23691 0.63843 0.0
C919 C 0.4694 0.27419 0.64444 0.0
N920 N 0.56282 0.29067 0.62949 0.0
N921 N 0.43755 0.22128 0.63361 0.0
H922 H 0.44031 0.31833 0.65903 0.0
H923 H 0.41708 0.2796 0.66062 0.0
H924 H 0.43552 0.19478 0.62904 0.0
H925 H 0.41406 0.23429 0.6312 0.0
H926 H 0.58559 0.27795 0.62257 0.0
H927 H 0.56466 0.31745 0.62721 0.0
H928 H 0.58584 0.23011 0.64796 0.0
H929 H 0.56243 0.1916 0.64438 0.0
C930 C 0.85672 0.47168 0.77045 0.0
C931 C 0.85664 0.50385 0.78831 0.0
C932 C 0.85671 0.5349 0.73293 0.0
C933 C 0.85643 0.50273 0.71505 0.0
N934 N 0.84614 0.44133 0.71648 0.0
N935 N 0.84638 0.56526 0.78694 0.0
C936 C 0.85307 0.47138 0.7338 0.0
C937 C 0.85322 0.5352 0.76959 0.0
N938 N 0.86267 0.44157 0.788 0.0
N939 N 0.86277 0.56501 0.71541 0.0
H940 H 0.8432 0.56613 0.81375 0.0
H941 H 0.84031 0.58841 0.77455 0.0
H942 H 0.86595 0.56624 0.68867 0.0
H943 H 0.86744 0.58855 0.7277 0.0
H944 H 0.86718 0.41798 0.77573 0.0
H945 H 0.86588 0.44039 0.81473 0.0
H946 H 0.84015 0.41816 0.72889 0.0
H947 H 0.84285 0.44047 0.68969 0.0
C948 C 0.14454 0.03278 0.72853 0.0
C949 C 0.14064 1.00027 0.71188 0.0
C950 C 0.14355 0.97137 0.76837 0.0
C951 C 0.14125 0.00397 0.78507 0.0
N952 N 0.13722 0.06619 0.78113 0.0
N953 N 0.13324 0.93829 0.71618 0.0
C954 C 0.14169 0.0349 0.76523 0.0
C955 C 0.13986 0.96937 0.73179 0.0
N956 N 0.15136 0.06156 0.70916 0.0
N957 N 0.1496 0.94231 0.78758 0.0
H958 H 0.13003 0.93543 0.68956 0.0
H959 H 0.12817 0.91566 0.72988 0.0
H960 H 0.1528 0.94306 0.81439 0.0
H961 H 0.15494 0.91822 0.77671 0.0
H962 H 0.15777 0.08546 0.71985 0.0
H963 H 0.15396 0.06065 0.68228 0.0
H964 H 0.1331 0.08917 0.76769 0.0
H965 H 0.13511 0.069 0.80787 0.0
C966 C 0.76969 0.14106 0.03456 0.0
C967 C 0.7901 0.14117 0.00393 0.0
C968 C 0.73739 0.13852 0.9685 0.0
C969 C 0.717 0.13854 0.99913 0.0
N970 N 0.71291 0.14925 0.06032 0.0
N971 N 0.79359 0.14916 0.9423 0.0
C972 C 0.73297 0.14295 0.03185 0.0
C973 C 0.77392 0.14294 0.97105 0.0
N974 N 0.78508 0.13679 0.06612 0.0
N975 N 0.72225 0.13207 0.93717 0.0
H976 H 0.82035 0.1528 0.94353 0.0
H977 H 0.78312 0.15406 0.91796 0.0
H978 H 0.69565 0.12876 0.93402 0.0
H979 H 0.73628 0.12753 0.9146 0.0
H980 H 0.77125 0.13222 0.08881 0.0
H981 H 0.8118 0.13517 0.06948 0.0
H982 H 0.72303 0.15605 0.08436 0.0
H983 H 0.68597 0.15108 0.059 0.0
C984 C 0.06897 0.02508 0.218 0.0
C985 C 0.07224 0.9884 0.21522 0.0
C986 C 0.07114 0.9847 0.27838 0.0
C987 C 0.07256 0.02151 0.28105 0.0
N988 N 0.08525 0.07521 0.25156 0.0
N989 N 0.08839 0.93534 0.24407 0.0
C990 C 0.07567 0.04123 0.25028 0.0
C991 C 0.07738 0.96886 0.24581 0.0
N992 N 0.05679 0.04462 0.19118 0.0
N993 N 0.06112 0.96461 0.30569 0.0
H994 H 0.09528 0.92349 0.22081 0.0
H995 H 0.09474 0.92107 0.26607 0.0
H996 H 0.05192 0.97451 0.32897 0.0
H997 H 0.05736 0.93797 0.30339 0.0
H998 H 0.05168 0.071 0.19375 0.0
H999 H 0.04718 0.03427 0.16827 0.0
H1000 H 0.09005 0.0897 0.2293 0.0
H1001 H 0.09266 0.08739 0.27448 0.0
C1002 C 0.96564 0.50726 0.27504 0.0
C1003 C 0.93506 0.49021 0.28614 0.0
C1004 C 0.90356 0.51327 0.23599 0.0
C1005 C 0.93393 0.53135 0.22554 0.0
N1006 N 0.99238 0.55032 0.23853 0.0
N1007 N 0.87386 0.48024 0.28078 0.0
C1008 C 0.96437 0.53004 0.24627 0.0
C1009 C 0.90363 0.49419 0.26766 0.0
N1010 N 0.99651 0.50028 0.29102 0.0
N1011 N 0.8748 0.51416 0.2154 0.0
H1012 H 0.87347 0.46558 0.30345 0.0
H1013 H 0.84934 0.48485 0.27063 0.0
H1014 H 0.87306 0.52988 0.19353 0.0
H1015 H 0.85317 0.49853 0.21912 0.0
H1016 H 0.02045 0.50793 0.28126 0.0
H1017 H 0.99872 0.48424 0.31257 0.0
H1018 H 0.01307 0.55408 0.25539 0.0
H1019 H 0.9944 0.56552 0.21645 0.0
C1020 C 0.24375 0.08986 0.99802 0.0
C1021 C 0.22309 0.05957 0.99714 0.0
C1022 C 0.26472 0.02951 0.03448 0.0
C1023 C 0.2847 0.06043 0.03695 0.0
N1024 N 0.28935 0.12183 0.02723 0.0
N1025 N 0.21006 0.00273 0.0197 0.0
C1026 C 0.27305 0.09117 0.02045 0.0
C1027 C 0.23224 0.03025 0.01726 0.0
N1028 N 0.23558 0.11718 0.97714 0.0
N1029 N 0.27769 0.99867 0.04607 0.0
H1030 H 0.18712 1.00074 0.00563 0.0
H1031 H 0.21313 0.98288 0.03767 0.0
H1032 H 0.3015 0.99589 0.0583 0.0
H1033 H 0.2663 0.97485 0.0406 0.0
H1034 H 0.25166 0.13853 0.97366 0.0
H1035 H 0.21361 0.11744 0.96143 0.0
H1036 H 0.28037 0.1457 0.01857 0.0
H1037 H 0.31007 0.1238 0.04444 0.0
C1038 C 0.72673 0.41893 0.0096 0.0
C1039 C 0.71735 0.44875 0.02897 0.0
C1040 C 0.77252 0.47621 0.0137 0.0
C1041 C 0.78001 0.4482 0.99109 0.0
N1042 N 0.76378 0.39392 0.96521 0.0
N1043 N 0.72851 0.50863 0.0439 0.0
C1044 C 0.75696 0.41979 0.98837 0.0
C1045 C 0.73966 0.47801 0.02996 0.0
N1046 N 0.70718 0.38957 0.01231 0.0
N1047 N 0.79661 0.50156 0.01942 0.0
H1048 H 0.7044 0.512 0.05545 0.0
H1049 H 0.74186 0.53189 0.0411 0.0
H1050 H 0.82007 0.50317 0.0062 0.0
H1051 H 0.79438 0.51972 0.03923 0.0
H1052 H 0.71415 0.36594 1.0014 0.0
H1053 H 0.68535 0.38806 0.02818 0.0
H1054 H 0.74627 0.37434 0.95918 0.0
H1055 H 0.78635 0.39322 0.95036 0.0
C1056 C 0.26425 0.90208 0.48521 0.0
C1057 C 0.28809 0.92986 0.48762 0.0
C1058 C 0.24826 0.96121 0.52595 0.0
C1059 C 0.22516 0.93249 0.52545 0.0
N1060 N 0.21434 0.87299 0.51015 0.0
N1061 N 0.30613 0.98281 0.51563 0.0
C1062 C 0.23408 0.90214 0.5066 0.0
C1063 C 0.28122 0.95828 0.50989 0.0
N1064 N 0.27028 0.87587 0.46223 0.0
N1065 N 0.23796 0.99233 0.53936 0.0
H1066 H 0.32997 0.98309 0.50297 0.0
H1067 H 0.30422 1.00143 0.53505 0.0
H1068 H 0.21393 0.99657 0.55075 0.0
H1069 H 0.25199 0.01514 0.53621 0.0
H1070 H 0.25216 0.85677 0.45641 0.0
H1071 H 0.29271 0.87453 0.44722 0.0
H1072 H 0.22108 0.84909 0.49969 0.0
H1073 H 0.19279 0.87189 0.52642 0.0
C1074 C 0.76117 0.59219 0.51475 0.0
C1075 C 0.78209 0.56205 0.51407 0.0
C1076 C 0.73913 0.53239 0.47801 0.0
C1077 C 0.71942 0.56338 0.47618 0.0
N1078 N 0.7136 0.62416 0.48872 0.0
N1079 N 0.79429 0.50558 0.49004 0.0
C1080 C 0.73096 0.59372 0.49348 0.0
C1081 C 0.77217 0.53294 0.49396 0.0
N1082 N 0.76998 0.61905 0.53601 0.0
N1083 N 0.72533 0.5017 0.46688 0.0
H1084 H 0.81802 0.5037 0.50274 0.0
H1085 H 0.79029 0.48594 0.47199 0.0
H1086 H 0.7007 0.49939 0.45614 0.0
H1087 H 0.73684 0.47778 0.47153 0.0
H1088 H 0.75407 0.64031 0.54054 0.0
H1089 H 0.79247 0.61897 0.55097 0.0
H1090 H 0.72232 0.64792 0.49793 0.0
H1091 H 0.69175 0.6261 0.47296 0.0
C1092 C 0.01391 0.27493 0.10194 0.0
C1093 C 0.02107 0.29233 0.07043 0.0
C1094 C 0.99167 0.24656 0.0378 0.0
C1095 C 0.98213 0.23039 0.06936 0.0
N1096 N 0.98062 0.23042 0.13163 0.0
N1097 N 0.01103 0.29861 0.00907 0.0
C1098 C 0.99235 0.24489 0.10156 0.0
C1099 C 0.00835 0.27922 0.03856 0.0
N1100 N 0.02838 0.28674 0.13197 0.0
N1101 N 0.9863 0.22996 0.00697 0.0
H1102 H 0.02329 0.32264 0.00824 0.0
H1103 H 0.99847 0.29232 0.98607 0.0
H1104 H 0.97421 0.20593 0.00502 0.0
H1105 H 0.99658 0.2385 0.98356 0.0
H1106 H 0.0271 0.27355 0.1554 0.0
H1107 H 0.04391 0.30883 0.13293 0.0
H1108 H 0.98427 0.24141 0.15595 0.0
H1109 H 0.96488 0.20848 0.13204 0.0
C1110 C 0.01689 0.73075 0.40988 0.0
C1111 C 0.01473 0.70789 0.43845 0.0
C1112 C 0.97685 0.74856 0.46903 0.0
C1113 C 0.97702 0.77057 0.43959 0.0
N1114 N 0.99232 0.78031 0.37996 0.0
N1115 N 0.9874 0.69163 0.49239 0.0
C1116 C 0.99568 0.76098 0.40936 0.0
C1117 C 0.99282 0.71562 0.46695 0.0
N1118 N 0.0395 0.72376 0.38357 0.0
N1119 N 0.96396 0.76003 0.5 0.0
H1120 H 1.00016 0.66792 0.49347 0.0
H1121 H 0.96811 0.69416 0.5111 0.0
H1122 H 0.95291 0.78433 0.5036 0.0
H1123 H 0.96733 0.74677 0.52322 0.0
H1124 H 0.04511 0.74111 0.36375 0.0
H1125 H 0.05437 0.70123 0.38275 0.0
H1126 H 1.00267 0.77316 0.35613 0.0
H1127 H 0.97649 0.80215 0.3787 0.0
C1128 C 0.52642 0.76304 0.54085 0.0
C1129 C 0.5305 0.78327 0.57132 0.0
C1130 C 0.49614 0.74063 0.60403 0.0
C1131 C 0.48917 0.72273 0.57276 0.0
N1132 N 0.49343 0.71935 0.51061 0.0
N1133 N 0.51796 0.79291 0.63162 0.0
C1134 C 0.50323 0.73459 0.54102 0.0
C1135 C 0.51497 0.77248 0.6029 0.0
N1136 N 0.54472 0.77076 0.51152 0.0
N1137 N 0.48508 0.72695 0.6347 0.0
H1138 H 0.53328 0.81515 0.63211 0.0
H1139 H 0.50421 0.78875 0.65442 0.0
H1140 H 0.47038 0.70432 0.63604 0.0
H1141 H 0.49212 0.73669 0.65881 0.0
H1142 H 0.54632 0.7542 0.4903 0.0
H1143 H 0.56061 0.79232 0.50889 0.0
H1144 H 0.49862 0.72993 0.48638 0.0
H1145 H 0.47749 0.69764 0.50947 0.0
C1146 C 0.57138 0.48798 0.78548 0.0
C1147 C 0.57137 0.5249 0.78692 0.0
C1148 C 0.5654 0.5261 0.72393 0.0
C1149 C 0.57026 0.48954 0.72219 0.0
N1150 N 0.5896 0.43823 0.75225 0.0
N1151 N 0.58053 0.57804 0.75521 0.0
C1152 C 0.57721 0.4713 0.75324 0.0
C1153 C 0.5725 0.54364 0.75541 0.0
N1154 N 0.56307 0.46842 0.81373 0.0
N1155 N 0.55132 0.54412 0.69697 0.0
H1156 H 0.58815 0.59132 0.77744 0.0
H1157 H 0.58385 0.59195 0.73232 0.0
H1158 H 0.54126 0.5325 0.67487 0.0
H1159 H 0.54515 0.57033 0.69882 0.0
H1160 H 0.56025 0.44161 0.81236 0.0
H1161 H 0.55428 0.47867 0.83701 0.0
H1162 H 0.59726 0.42502 0.77449 0.0
H1163 H 0.59626 0.42587 0.72918 0.0
C1164 C 0.41591 0.9813 0.75743 0.0
C1165 C 0.447 0.96441 0.7675 0.0
C1166 C 0.47567 0.98586 0.71505 0.0
C1167 C 0.44609 0.00634 0.70753 0.0
N1168 N 0.38878 0.02585 0.72229 0.0
N1169 N 0.50853 0.95549 0.75848 0.0
C1170 C 0.41636 0.00473 0.72894 0.0
C1171 C 0.47733 0.96753 0.74679 0.0
N1172 N 0.38575 0.97405 0.77449 0.0
N1173 N 0.50257 0.9841 0.69203 0.0
H1174 H 0.51181 0.94221 0.78163 0.0
H1175 H 0.53207 0.9614 0.7467 0.0
H1176 H 0.504 0.99895 0.6696 0.0
H1177 H 0.5224 0.96592 0.6939 0.0
H1178 H 0.3616 0.98304 0.76662 0.0
H1179 H 0.38444 0.95621 0.79471 0.0
H1180 H 0.36785 0.02875 0.73904 0.0
H1181 H 0.38788 0.04227 0.70089 0.0
C1182 C 0.51083 0.27584 0.96452 0.0
C1183 C 0.48902 0.2829 0.93585 0.0
C1184 C 0.50917 0.22985 0.90731 0.0
C1185 C 0.52779 0.22079 0.9377 0.0
N1186 N 0.541 0.23254 0.99785 0.0
N1187 N 0.46476 0.2659 0.88108 0.0
C1188 C 0.52755 0.24323 0.96691 0.0
C1189 C 0.48739 0.25966 0.90752 0.0
N1190 N 0.51556 0.30027 0.98973 0.0
N1191 N 0.51328 0.21056 0.87793 0.0
H1192 H 0.4494 0.28809 0.88 0.0
H1193 H 0.45952 0.24817 0.86147 0.0
H1194 H 0.52974 0.18918 0.87672 0.0
H1195 H 0.50302 0.21747 0.85401 0.0
H1196 H 0.53457 0.29834 0.00875 0.0
H1197 H 0.5024 0.32381 0.99028 0.0
H1198 H 0.5374 0.24594 0.02098 0.0
H1199 H 0.55303 0.20875 1.0015 0.0
loop_
_geom_bond_atom_site_label_1
_geom_bond_atom_site_label_2
_geom_bond_distance
_geom_bond_site_symmetry_2
_ccdc_geom_bond_type
O0 Cd1 2.223 1_455 S
O0 C8 1.315 . S
Cd1 O0 2.223 1_655 S
Cd1 O4 2.297 . S
Cd1 O5 2.439 . S
Cd1 O11 2.240 . S
Cd2 O3 2.240 . S
Cd2 O10 2.223 1_455 S
Cd2 O12 2.297 . S
Cd2 O13 2.439 1_455 S
O3 Cd2 2.240 . S
O3 C8 1.279 . S
O4 Cd1 2.297 . S
O4 C6 1.247 . S
O5 Cd1 2.439 . S
O5 C6 1.208 . S
C6 O4 1.247 . S
C6 O5 1.208 . S
C7 O12 1.236 1_655 S
C7 O13 1.210 . S
C8 O0 1.315 . S
C8 O3 1.279 . S
C9 O10 1.315 . S
C9 O11 1.279 . S
O10 Cd2 2.223 1_655 S
O10 C9 1.315 . S
O11 Cd1 2.240 . S
O11 C9 1.279 . S
O12 Cd2 2.297 . S
O12 C7 1.236 1_455 S
O13 Cd2 2.439 1_655 S
O13 C7 1.210 . S
O14 Cd15 2.223 1_655 S
O14 C22 1.315 . S
Cd15 O14 2.223 1_455 S
Cd15 O18 2.297 . S
Cd15 O19 2.439 . S
Cd15 O25 2.240 . S
Cd16 O17 2.240 . S
Cd16 O24 2.234 . S
Cd16 O26 2.297 . S
Cd16 O27 2.426 1_655 S
O17 Cd16 2.240 . S
O17 C22 1.279 . S
O18 Cd15 2.297 . S
O18 C20 1.247 . S
O19 Cd15 2.439 . S
O19 C20 1.208 . S
C20 O18 1.247 . S
C20 O19 1.208 . S
C21 O26 1.247 . S
C21 O27 1.207 1_655 S
C22 O14 1.315 . S
C22 O17 1.279 . S
C23 O24 1.297 1_455 S
C23 O25 1.279 . S
O24 Cd16 2.234 . S
O24 C23 1.297 1_655 S
O25 Cd15 2.240 . S
O25 C23 1.279 . S
O26 Cd16 2.297 . S
O26 C21 1.247 . S
O27 Cd16 2.426 1_455 S
O27 C21 1.207 1_455 S
O28 Cd29 2.223 1_455 S
O28 C36 1.315 . S
Cd29 O28 2.223 1_655 S
Cd29 O32 2.297 . S
Cd29 O33 2.439 . S
Cd29 O39 2.240 . S
Cd30 O31 2.240 . S
Cd30 O38 2.205 1_455 S
Cd30 O40 2.297 . S
Cd30 O41 2.445 . S
O31 Cd30 2.240 . S
O31 C36 1.279 . S
O32 Cd29 2.297 . S
O32 C34 1.247 . S
O33 Cd29 2.439 . S
O33 C34 1.208 . S
C34 O32 1.247 . S
C34 O33 1.208 . S
C35 O40 1.247 . S
C35 O41 1.209 . S
C36 O28 1.315 . S
C36 O31 1.279 . S
C37 O38 1.343 . S
C37 O39 1.279 . S
O38 Cd30 2.205 1_655 S
O38 C37 1.343 . S
O39 Cd29 2.240 . S
O39 C37 1.279 . S
O40 Cd30 2.297 . S
O40 C35 1.247 . S
O41 Cd30 2.445 . S
O41 C35 1.209 . S
O42 Cd43 2.223 1_655 S
O42 C50 1.315 . S
Cd43 O42 2.223 1_455 S
Cd43 O46 2.297 . S
Cd43 O47 2.439 . S
Cd43 O53 2.240 . S
Cd44 O45 2.240 . S
Cd44 O52 2.239 . S
Cd44 O54 2.297 . S
Cd44 O55 2.439 . S
O45 Cd44 2.240 . S
O45 C50 1.279 . S
O46 Cd43 2.297 . S
O46 C48 1.247 . S
O47 Cd43 2.439 . S
O47 C48 1.208 . S
C48 O46 1.247 . S
C48 O47 1.208 . S
C49 O54 1.247 . S
C49 O55 1.208 . S
C50 O42 1.315 . S
C50 O45 1.279 . S
C51 O52 1.290 1_455 S
C51 O53 1.279 . S
O52 Cd44 2.239 . S
O52 C51 1.290 1_655 S
O53 Cd43 2.240 . S
O53 C51 1.279 . S
O54 Cd44 2.297 . S
O54 C49 1.247 . S
O55 Cd44 2.439 . S
O55 C49 1.208 . S
O56 Cd57 2.223 1_545 S
O56 C64 1.315 . S
Cd57 O56 2.223 1_565 S
Cd57 O60 2.297 . S
Cd57 O61 2.439 . S
Cd57 O67 2.240 . S
Cd58 O59 2.240 . S
Cd58 O66 2.223 1_545 S
Cd58 O68 2.297 . S
Cd58 O69 2.439 1_545 S
O59 Cd58 2.240 . S
O59 C64 1.279 . S
O60 Cd57 2.297 . S
O60 C62 1.247 . S
O61 Cd57 2.439 . S
O61 C62 1.208 . S
C62 O60 1.247 . S
C62 O61 1.208 . S
C63 O68 1.236 1_565 S
C63 O69 1.210 . S
C64 O56 1.315 . S
C64 O59 1.279 . S
C65 O66 1.315 . S
C65 O67 1.279 . S
O66 Cd58 2.223 1_565 S
O66 C65 1.315 . S
O67 Cd57 2.240 . S
O67 C65 1.279 . S
O68 Cd58 2.297 . S
O68 C63 1.236 1_545 S
O69 Cd58 2.439 1_565 S
O69 C63 1.210 . S
O70 Cd71 2.223 . S
O70 C78 1.315 . S
Cd71 O70 2.223 . S
Cd71 O74 2.297 . S
Cd71 O75 2.439 . S
Cd71 O81 2.240 . S
Cd72 O73 2.240 . S
Cd72 O80 2.223 . S
Cd72 O82 2.297 . S
Cd72 O83 2.439 . S
O73 Cd72 2.240 . S
O73 C78 1.279 . S
O74 Cd71 2.297 . S
O74 C76 1.247 . S
O75 Cd71 2.439 . S
O75 C76 1.208 . S
C76 O74 1.247 . S
C76 O75 1.208 . S
C77 O82 1.247 . S
C77 O83 1.208 . S
C78 O70 1.315 . S
C78 O73 1.279 . S
C79 O80 1.315 . S
C79 O81 1.279 . S
O80 Cd72 2.223 . S
O80 C79 1.315 . S
O81 Cd71 2.240 . S
O81 C79 1.279 . S
O82 Cd72 2.297 . S
O82 C77 1.247 . S
O83 Cd72 2.439 . S
O83 C77 1.208 . S
O84 Cd85 2.223 1_565 S
O84 C92 1.315 . S
Cd85 O84 2.223 1_545 S
Cd85 O88 2.297 . S
Cd85 O89 2.439 . S
Cd85 O95 2.240 . S
Cd86 O87 2.240 . S
Cd86 O94 2.234 . S
Cd86 O96 2.297 . S
Cd86 O97 2.426 1_565 S
O87 Cd86 2.240 . S
O87 C92 1.279 . S
O88 Cd85 2.297 . S
O88 C90 1.247 . S
O89 Cd85 2.439 . S
O89 C90 1.208 . S
C90 O88 1.247 . S
C90 O89 1.208 . S
C91 O96 1.247 . S
C91 O97 1.207 1_565 S
C92 O84 1.315 . S
C92 O87 1.279 . S
C93 O94 1.297 1_545 S
C93 O95 1.279 . S
O94 Cd86 2.234 . S
O94 C93 1.297 1_565 S
O95 Cd85 2.240 . S
O95 C93 1.279 . S
O96 Cd86 2.297 . S
O96 C91 1.247 . S
O97 Cd86 2.426 1_545 S
O97 C91 1.207 1_545 S
O98 Cd99 2.223 . S
O98 C106 1.315 . S
Cd99 O98 2.223 . S
Cd99 O102 2.297 . S
Cd99 O103 2.439 . S
Cd99 O109 2.240 . S
Cd100 O101 2.240 . S
Cd100 O108 2.223 . S
Cd100 O110 2.297 . S
Cd100 O111 2.439 . S
O101 Cd100 2.240 . S
O101 C106 1.279 . S
O102 Cd99 2.297 . S
O102 C104 1.247 . S
O103 Cd99 2.439 . S
O103 C104 1.208 . S
C104 O102 1.247 . S
C104 O103 1.208 . S
C105 O110 1.247 . S
C105 O111 1.208 . S
C106 O98 1.315 . S
C106 O101 1.279 . S
C107 O108 1.315 . S
C107 O109 1.279 . S
O108 Cd100 2.223 . S
O108 C107 1.315 . S
O109 Cd99 2.240 . S
O109 C107 1.279 . S
O110 Cd100 2.297 . S
O110 C105 1.247 . S
O111 Cd100 2.439 . S
O111 C105 1.208 . S
O112 Cd113 2.223 1_554 S
O112 C120 1.315 . S
Cd113 O112 2.223 1_556 S
Cd113 O116 2.297 . S
Cd113 O117 2.439 . S
Cd113 O123 2.240 . S
Cd114 O115 2.240 . S
Cd114 O122 2.223 1_554 S
Cd114 O124 2.297 . S
Cd114 O125 2.439 1_554 S
O115 Cd114 2.240 . S
O115 C120 1.279 . S
O116 Cd113 2.297 . S
O116 C118 1.247 . S
O117 Cd113 2.439 . S
O117 C118 1.208 . S
C118 O116 1.247 . S
C118 O117 1.208 . S
C119 O124 1.236 1_556 S
C119 O125 1.210 . S
C120 O112 1.315 . S
C120 O115 1.279 . S
C121 O122 1.315 . S
C121 O123 1.279 . S
O122 Cd114 2.223 1_556 S
O122 C121 1.315 . S
O123 Cd113 2.240 . S
O123 C121 1.279 . S
O124 Cd114 2.297 . S
O124 C119 1.236 1_554 S
O125 Cd114 2.439 1_556 S
O125 C119 1.210 . S
O126 Cd127 2.223 . S
O126 C134 1.315 . S
Cd127 O126 2.223 . S
Cd127 O130 2.297 . S
Cd127 O131 2.439 . S
Cd127 O137 2.240 . S
Cd128 O129 2.240 . S
Cd128 O136 2.223 . S
Cd128 O138 2.297 . S
Cd128 O139 2.439 . S
O129 Cd128 2.240 . S
O129 C134 1.279 . S
O130 Cd127 2.297 . S
O130 C132 1.247 . S
O131 Cd127 2.439 . S
O131 C132 1.208 . S
C132 O130 1.247 . S
C132 O131 1.208 . S
C133 O138 1.247 . S
C133 O139 1.208 . S
C134 O126 1.315 . S
C134 O129 1.279 . S
C135 O136 1.315 . S
C135 O137 1.279 . S
O136 Cd128 2.223 . S
O136 C135 1.315 . S
O137 Cd127 2.240 . S
O137 C135 1.279 . S
O138 Cd128 2.297 . S
O138 C133 1.247 . S
O139 Cd128 2.439 . S
O139 C133 1.208 . S
O140 Cd141 2.223 . S
O140 C148 1.315 . S
Cd141 O140 2.223 . S
Cd141 O144 2.297 . S
Cd141 O145 2.439 . S
Cd141 O151 2.240 . S
Cd142 O143 2.240 . S
Cd142 O150 2.223 . S
Cd142 O152 2.297 . S
Cd142 O153 2.439 . S
O143 Cd142 2.240 . S
O143 C148 1.279 . S
O144 Cd141 2.297 . S
O144 C146 1.247 . S
O145 Cd141 2.439 . S
O145 C146 1.208 . S
C146 O144 1.247 . S
C146 O145 1.208 . S
C147 O152 1.247 . S
C147 O153 1.208 . S
C148 O140 1.315 . S
C148 O143 1.279 . S
C149 O150 1.315 . S
C149 O151 1.279 . S
O150 Cd142 2.223 . S
O150 C149 1.315 . S
O151 Cd141 2.240 . S
O151 C149 1.279 . S
O152 Cd142 2.297 . S
O152 C147 1.247 . S
O153 Cd142 2.439 . S
O153 C147 1.208 . S
O154 Cd155 2.223 . S
O154 C162 1.315 . S
Cd155 O154 2.223 . S
Cd155 O158 2.297 . S
Cd155 O159 2.439 . S
Cd155 O165 2.240 . S
Cd156 O157 2.240 . S
Cd156 O164 2.223 . S
Cd156 O166 2.297 . S
Cd156 O167 2.439 . S
O157 Cd156 2.240 . S
O157 C162 1.279 . S
O158 Cd155 2.297 . S
O158 C160 1.247 . S
O159 Cd155 2.439 . S
O159 C160 1.208 . S
C160 O158 1.247 . S
C160 O159 1.208 . S
C161 O166 1.247 . S
C161 O167 1.208 . S
C162 O154 1.315 . S
C162 O157 1.279 . S
C163 O164 1.315 . S
C163 O165 1.279 . S
O164 Cd156 2.223 . S
O164 C163 1.315 . S
O165 Cd155 2.240 . S
O165 C163 1.279 . S
O166 Cd156 2.297 . S
O166 C161 1.247 . S
O167 Cd156 2.439 . S
O167 C161 1.208 . S
O168 Cd169 2.223 . S
O168 C176 1.315 . S
Cd169 O168 2.223 . S
Cd169 O172 2.297 . S
Cd169 O173 2.439 . S
Cd169 O179 2.240 . S
Cd170 O171 2.240 . S
Cd170 O178 2.223 . S
Cd170 O180 2.297 . S
Cd170 O181 2.439 . S
O171 Cd170 2.240 . S
O171 C176 1.279 . S
O172 Cd169 2.297 . S
O172 C174 1.247 . S
O173 Cd169 2.439 . S
O173 C174 1.208 . S
C174 O172 1.247 . S
C174 O173 1.208 . S
C175 O180 1.247 . S
C175 O181 1.208 . S
C176 O168 1.315 . S
C176 O171 1.279 . S
C177 O178 1.315 . S
C177 O179 1.279 . S
O178 Cd170 2.223 . S
O178 C177 1.315 . S
O179 Cd169 2.240 . S
O179 C177 1.279 . S
O180 Cd170 2.297 . S
O180 C175 1.247 . S
O181 Cd170 2.439 . S
O181 C175 1.208 . S
O182 Cd183 2.223 . S
O182 C190 1.315 . S
Cd183 O182 2.223 . S
Cd183 O186 2.297 . S
Cd183 O187 2.439 . S
Cd183 O193 2.240 . S
Cd184 O185 2.240 . S
Cd184 O192 2.223 . S
Cd184 O194 2.297 . S
Cd184 O195 2.439 . S
O185 Cd184 2.240 . S
O185 C190 1.279 . S
O186 Cd183 2.297 . S
O186 C188 1.247 . S
O187 Cd183 2.439 . S
O187 C188 1.208 . S
C188 O186 1.247 . S
C188 O187 1.208 . S
C189 O194 1.247 . S
C189 O195 1.208 . S
C190 O182 1.315 . S
C190 O185 1.279 . S
C191 O192 1.315 . S
C191 O193 1.279 . S
O192 Cd184 2.223 . S
O192 C191 1.315 . S
O193 Cd183 2.240 . S
O193 C191 1.279 . S
O194 Cd184 2.297 . S
O194 C189 1.247 . S
O195 Cd184 2.439 . S
O195 C189 1.208 . S
O196 Cd197 2.223 . S
O196 C204 1.315 . S
Cd197 O196 2.223 . S
Cd197 O200 2.297 . S
Cd197 O201 2.439 . S
Cd197 O207 2.240 . S
Cd198 O199 2.240 . S
Cd198 O206 2.223 . S
Cd198 O208 2.297 . S
Cd198 O209 2.439 . S
O199 Cd198 2.240 . S
O199 C204 1.279 . S
O200 Cd197 2.297 . S
O200 C202 1.247 . S
O201 Cd197 2.439 . S
O201 C202 1.208 . S
C202 O200 1.247 . S
C202 O201 1.208 . S
C203 O208 1.247 . S
C203 O209 1.208 . S
C204 O196 1.315 . S
C204 O199 1.279 . S
C205 O206 1.315 . S
C205 O207 1.279 . S
O206 Cd198 2.223 . S
O206 C205 1.315 . S
O207 Cd197 2.240 . S
O207 C205 1.279 . S
O208 Cd198 2.297 . S
O208 C203 1.247 . S
O209 Cd198 2.439 . S
O209 C203 1.208 . S
O210 Cd211 2.223 . S
O210 C218 1.315 . S
Cd211 O210 2.223 . S
Cd211 O214 2.297 . S
Cd211 O215 2.439 . S
Cd211 O221 2.240 . S
Cd212 O213 2.240 . S
Cd212 O220 2.223 . S
Cd212 O222 2.297 . S
Cd212 O223 2.439 . S
O213 Cd212 2.240 . S
O213 C218 1.279 . S
O214 Cd211 2.297 . S
O214 C216 1.247 . S
O215 Cd211 2.439 . S
O215 C216 1.208 . S
C216 O214 1.247 . S
C216 O215 1.208 . S
C217 O222 1.247 . S
C217 O223 1.208 . S
C218 O210 1.315 . S
C218 O213 1.279 . S
C219 O220 1.315 . S
C219 O221 1.279 . S
O220 Cd212 2.223 . S
O220 C219 1.315 . S
O221 Cd211 2.240 . S
O221 C219 1.279 . S
O222 Cd212 2.297 . S
O222 C217 1.247 . S
O223 Cd212 2.439 . S
O223 C217 1.208 . S
O224 Cd225 2.223 . S
O224 C232 1.315 . S
Cd225 O224 2.223 . S
Cd225 O228 2.297 . S
Cd225 O229 2.439 . S
Cd225 O235 2.240 . S
Cd226 O227 2.240 . S
Cd226 O234 2.223 . S
Cd226 O236 2.297 . S
Cd226 O237 2.439 . S
O227 Cd226 2.240 . S
O227 C232 1.279 . S
O228 Cd225 2.297 . S
O228 C230 1.247 . S
O229 Cd225 2.439 . S
O229 C230 1.208 . S
C230 O228 1.247 . S
C230 O229 1.208 . S
C231 O236 1.247 . S
C231 O237 1.208 . S
C232 O224 1.315 . S
C232 O227 1.279 . S
C233 O234 1.315 . S
C233 O235 1.279 . S
O234 Cd226 2.223 . S
O234 C233 1.315 . S
O235 Cd225 2.240 . S
O235 C233 1.279 . S
O236 Cd226 2.297 . S
O236 C231 1.247 . S
O237 Cd226 2.439 . S
O237 C231 1.208 . S
O238 Cd239 2.223 1_565 S
O238 C246 1.315 . S
Cd239 O238 2.223 1_545 S
Cd239 O242 2.297 . S
Cd239 O243 2.439 . S
Cd239 O249 2.240 . S
Cd240 O241 2.240 . S
Cd240 O248 2.239 . S
Cd240 O250 2.297 . S
Cd240 O251 2.439 . S
O241 Cd240 2.240 . S
O241 C246 1.279 . S
O242 Cd239 2.297 . S
O242 C244 1.247 . S
O243 Cd239 2.439 . S
O243 C244 1.208 . S
C244 O242 1.247 . S
C244 O243 1.208 . S
C245 O250 1.247 . S
C245 O251 1.208 . S
C246 O238 1.315 . S
C246 O241 1.279 . S
C247 O248 1.290 1_545 S
C247 O249 1.279 . S
O248 Cd240 2.239 . S
O248 C247 1.290 1_565 S
O249 Cd239 2.240 . S
O249 C247 1.279 . S
O250 Cd240 2.297 . S
O250 C245 1.247 . S
O251 Cd240 2.439 . S
O251 C245 1.208 . S
O252 Cd253 2.223 . S
O252 C260 1.315 . S
Cd253 O252 2.223 . S
Cd253 O256 2.297 . S
Cd253 O257 2.439 . S
Cd253 O263 2.240 . S
Cd254 O255 2.240 . S
Cd254 O262 2.223 . S
Cd254 O264 2.297 . S
Cd254 O265 2.439 . S
O255 Cd254 2.240 . S
O255 C260 1.279 . S
O256 Cd253 2.297 . S
O256 C258 1.247 . S
O257 Cd253 2.439 . S
O257 C258 1.208 . S
C258 O256 1.247 . S
C258 O257 1.208 . S
C259 O264 1.247 . S
C259 O265 1.208 . S
C260 O252 1.315 . S
C260 O255 1.279 . S
C261 O262 1.315 . S
C261 O263 1.279 . S
O262 Cd254 2.223 . S
O262 C261 1.315 . S
O263 Cd253 2.240 . S
O263 C261 1.279 . S
O264 Cd254 2.297 . S
O264 C259 1.247 . S
O265 Cd254 2.439 . S
O265 C259 1.208 . S
O266 Cd267 2.223 1_545 S
O266 C274 1.315 . S
Cd267 O266 2.223 1_565 S
Cd267 O270 2.297 . S
Cd267 O271 2.439 . S
Cd267 O277 2.240 . S
Cd268 O269 2.240 . S
Cd268 O276 2.205 1_545 S
Cd268 O278 2.297 . S
Cd268 O279 2.445 . S
O269 Cd268 2.240 . S
O269 C274 1.279 . S
O270 Cd267 2.297 . S
O270 C272 1.247 . S
O271 Cd267 2.439 . S
O271 C272 1.208 . S
C272 O270 1.247 . S
C272 O271 1.208 . S
C273 O278 1.247 . S
C273 O279 1.209 . S
C274 O266 1.315 . S
C274 O269 1.279 . S
C275 O276 1.343 . S
C275 O277 1.279 . S
O276 Cd268 2.205 1_565 S
O276 C275 1.343 . S
O277 Cd267 2.240 . S
O277 C275 1.279 . S
O278 Cd268 2.297 . S
O278 C273 1.247 . S
O279 Cd268 2.445 . S
O279 C273 1.209 . S
O280 Cd281 2.223 . S
O280 C288 1.315 . S
Cd281 O280 2.223 . S
Cd281 O284 2.297 . S
Cd281 O285 2.439 . S
Cd281 O291 2.240 . S
Cd282 O283 2.240 . S
Cd282 O290 2.223 . S
Cd282 O292 2.297 . S
Cd282 O293 2.439 . S
O283 Cd282 2.240 . S
O283 C288 1.279 . S
O284 Cd281 2.297 . S
O284 C286 1.247 . S
O285 Cd281 2.439 . S
O285 C286 1.208 . S
C286 O284 1.247 . S
C286 O285 1.208 . S
C287 O292 1.247 . S
C287 O293 1.208 . S
C288 O280 1.315 . S
C288 O283 1.279 . S
C289 O290 1.315 . S
C289 O291 1.279 . S
O290 Cd282 2.223 . S
O290 C289 1.315 . S
O291 Cd281 2.240 . S
O291 C289 1.279 . S
O292 Cd282 2.297 . S
O292 C287 1.247 . S
O293 Cd282 2.439 . S
O293 C287 1.208 . S
O294 Cd295 2.223 1_556 S
O294 C302 1.315 . S
Cd295 O294 2.223 1_554 S
Cd295 O298 2.297 . S
Cd295 O299 2.439 . S
Cd295 O305 2.240 . S
Cd296 O297 2.240 . S
Cd296 O304 2.239 . S
Cd296 O306 2.297 . S
Cd296 O307 2.439 . S
O297 Cd296 2.240 . S
O297 C302 1.279 . S
O298 Cd295 2.297 . S
O298 C300 1.247 . S
O299 Cd295 2.439 . S
O299 C300 1.208 . S
C300 O298 1.247 . S
C300 O299 1.208 . S
C301 O306 1.247 . S
C301 O307 1.208 . S
C302 O294 1.315 . S
C302 O297 1.279 . S
C303 O304 1.290 1_554 S
C303 O305 1.279 . S
O304 Cd296 2.239 . S
O304 C303 1.290 1_556 S
O305 Cd295 2.240 . S
O305 C303 1.279 . S
O306 Cd296 2.297 . S
O306 C301 1.247 . S
O307 Cd296 2.439 . S
O307 C301 1.208 . S
O308 Cd309 2.223 1_556 S
O308 C316 1.315 . S
Cd309 O308 2.223 1_554 S
Cd309 O312 2.297 . S
Cd309 O313 2.439 . S
Cd309 O319 2.240 . S
Cd310 O311 2.240 . S
Cd310 O318 2.234 . S
Cd310 O320 2.297 . S
Cd310 O321 2.426 1_556 S
O311 Cd310 2.240 . S
O311 C316 1.279 . S
O312 Cd309 2.297 . S
O312 C314 1.247 . S
O313 Cd309 2.439 . S
O313 C314 1.208 . S
C314 O312 1.247 . S
C314 O313 1.208 . S
C315 O320 1.247 . S
C315 O321 1.207 1_556 S
C316 O308 1.315 . S
C316 O311 1.279 . S
C317 O318 1.297 1_554 S
C317 O319 1.279 . S
O318 Cd310 2.234 . S
O318 C317 1.297 1_556 S
O319 Cd309 2.240 . S
O319 C317 1.279 . S
O320 Cd310 2.297 . S
O320 C315 1.247 . S
O321 Cd310 2.426 1_554 S
O321 C315 1.207 1_554 S
O322 Cd323 2.223 1_554 S
O322 C330 1.315 . S
Cd323 O322 2.223 1_556 S
Cd323 O326 2.297 . S
Cd323 O327 2.439 . S
Cd323 O333 2.240 . S
Cd324 O325 2.240 . S
Cd324 O332 2.205 1_554 S
Cd324 O334 2.297 . S
Cd324 O335 2.445 . S
O325 Cd324 2.240 . S
O325 C330 1.279 . S
O326 Cd323 2.297 . S
O326 C328 1.247 . S
O327 Cd323 2.439 . S
O327 C328 1.208 . S
C328 O326 1.247 . S
C328 O327 1.208 . S
C329 O334 1.247 . S
C329 O335 1.209 . S
C330 O322 1.315 . S
C330 O325 1.279 . S
C331 O332 1.343 . S
C331 O333 1.279 . S
O332 Cd324 2.205 1_556 S
O332 C331 1.343 . S
O333 Cd323 2.240 . S
O333 C331 1.279 . S
O334 Cd324 2.297 . S
O334 C329 1.247 . S
O335 Cd324 2.445 . S
O335 C329 1.209 . S
C336 C337 1.363 . S
C336 C342 1.379 . S
C336 N344 1.356 . S
C337 C336 1.363 . S
C337 C343 1.363 . S
C338 C339 1.363 . S
C338 C343 1.379 . S
C338 N345 1.356 . S
C339 C338 1.363 . S
C339 C342 1.363 . S
N340 C342 1.356 . S
N340 H352 0.984 1_455 S
N340 H353 0.985 . S
N341 C343 1.356 . S
N341 H346 0.984 . S
N341 H347 0.985 . S
C342 C336 1.379 . S
C342 C339 1.363 . S
C342 N340 1.356 . S
C343 C337 1.363 . S
C343 C338 1.379 . S
C343 N341 1.356 . S
N344 C336 1.356 . S
N344 H350 0.984 . S
N344 H351 0.984 . S
N345 C338 1.356 . S
N345 H348 0.984 . S
N345 H349 0.985 . S
H346 N341 0.984 . S
H347 N341 0.985 . S
H348 N345 0.984 . S
H349 N345 0.985 . S
H350 N344 0.984 . S
H351 N344 0.984 . S
H352 N340 0.984 1_655 S
H353 N340 0.985 . S
C354 C355 1.363 . S
C354 C360 1.379 . S
C354 N362 1.356 . S
C355 C354 1.363 . S
C355 C361 1.363 . S
C356 C357 1.363 . S
C356 C361 1.379 . S
C356 N363 1.356 . S
C357 C356 1.363 . S
C357 C360 1.363 . S
N358 C360 1.356 . S
N358 H370 0.984 . S
N358 H371 0.985 . S
N359 C361 1.356 . S
N359 H364 0.984 . S
N359 H365 0.985 . S
C360 C354 1.379 . S
C360 C357 1.363 . S
C360 N358 1.356 . S
C361 C355 1.363 . S
C361 C356 1.379 . S
C361 N359 1.356 . S
N362 C354 1.356 . S
N362 H368 0.984 . S
N362 H369 0.984 . S
N363 C356 1.356 . S
N363 H366 0.984 . S
N363 H367 0.985 . S
H364 N359 0.984 . S
H365 N359 0.985 . S
H366 N363 0.984 . S
H367 N363 0.985 . S
H368 N362 0.984 . S
H369 N362 0.984 . S
H370 N358 0.984 . S
H371 N358 0.985 . S
C372 C373 1.363 . S
C372 C378 1.379 . S
C372 N380 1.356 . S
C373 C372 1.363 . S
C373 C379 1.363 . S
C374 C375 1.363 . S
C374 C379 1.379 1_556 S
C374 N381 1.356 . S
C375 C374 1.363 . S
C375 C378 1.363 1_556 S
N376 C378 1.356 . S
N376 H388 0.984 . S
N376 H389 0.985 1_554 S
N377 C379 1.356 . S
N377 H382 0.984 . S
N377 H383 0.985 1_455 S
C378 C372 1.379 . S
C378 C375 1.363 1_554 S
C378 N376 1.356 . S
C379 C373 1.363 . S
C379 C374 1.379 1_554 S
C379 N377 1.356 . S
N380 C372 1.356 . S
N380 H386 0.984 . S
N380 H387 0.984 . S
N381 C374 1.356 . S
N381 H384 0.984 . S
N381 H385 0.985 . S
H382 N377 0.984 . S
H383 N377 0.985 1_655 S
H384 N381 0.984 . S
H385 N381 0.985 . S
H386 N380 0.984 . S
H387 N380 0.984 . S
H388 N376 0.984 . S
H389 N376 0.985 1_556 S
C390 C391 1.363 . S
C390 C396 1.379 . S
C390 N398 1.356 . S
C391 C390 1.363 . S
C391 C397 1.363 . S
C392 C393 1.363 . S
C392 C397 1.379 1_556 S
C392 N399 1.356 . S
C393 C392 1.363 . S
C393 C396 1.363 1_556 S
N394 C396 1.356 1_556 S
N394 H406 0.984 1_556 S
N394 H407 0.985 . S
N395 C397 1.356 . S
N395 H400 0.984 . S
N395 H401 0.985 . S
C396 C390 1.379 . S
C396 C393 1.363 1_554 S
C396 N394 1.356 1_554 S
C397 C391 1.363 . S
C397 C392 1.379 1_554 S
C397 N395 1.356 . S
N398 C390 1.356 . S
N398 H404 0.984 . S
N398 H405 0.984 . S
N399 C392 1.356 . S
N399 H402 0.984 . S
N399 H403 0.985 . S
H400 N395 0.984 . S
H401 N395 0.985 . S
H402 N399 0.984 . S
H403 N399 0.985 . S
H404 N398 0.984 . S
H405 N398 0.984 . S
H406 N394 0.984 1_554 S
H407 N394 0.985 . S
C408 C409 1.363 . S
C408 C414 1.379 . S
C408 N416 1.356 . S
C409 C408 1.363 . S
C409 C415 1.363 . S
C410 C411 1.363 . S
C410 C415 1.379 . S
C410 N417 1.356 . S
C411 C410 1.363 . S
C411 C414 1.363 . S
N412 C414 1.356 . S
N412 H424 0.984 . S
N412 H425 0.985 . S
N413 C415 1.356 . S
N413 H418 0.984 . S
N413 H419 0.985 . S
C414 C408 1.379 . S
C414 C411 1.363 . S
C414 N412 1.356 . S
C415 C409 1.363 . S
C415 C410 1.379 . S
C415 N413 1.356 . S
N416 C408 1.356 . S
N416 H422 0.984 1_545 S
N416 H423 0.984 . S
N417 C410 1.356 . S
N417 H420 0.984 . S
N417 H421 0.985 . S
H418 N413 0.984 . S
H419 N413 0.985 . S
H420 N417 0.984 . S
H421 N417 0.985 . S
H422 N416 0.984 1_565 S
H423 N416 0.984 . S
H424 N412 0.984 . S
H425 N412 0.985 . S
C426 C427 1.363 . S
C426 C432 1.379 . S
C426 N434 1.356 . S
C427 C426 1.363 . S
C427 C433 1.363 . S
C428 C429 1.363 . S
C428 C433 1.379 . S
C428 N435 1.356 . S
C429 C428 1.363 . S
C429 C432 1.363 . S
N430 C432 1.356 . S
N430 H442 0.984 1_554 S
N430 H443 0.985 . S
N431 C433 1.356 . S
N431 H436 0.984 . S
N431 H437 0.985 . S
C432 C426 1.379 . S
C432 C429 1.363 . S
C432 N430 1.356 . S
C433 C427 1.363 . S
C433 C428 1.379 . S
C433 N431 1.356 . S
N434 C426 1.356 . S
N434 H440 0.984 . S
N434 H441 0.984 . S
N435 C428 1.356 . S
N435 H438 0.984 . S
N435 H439 0.985 . S
H436 N431 0.984 . S
H437 N431 0.985 . S
H438 N435 0.984 . S
H439 N435 0.985 . S
H440 N434 0.984 . S
H441 N434 0.984 . S
H442 N430 0.984 1_556 S
H443 N430 0.985 . S
C444 C445 1.363 . S
C444 C450 1.379 . S
C444 N452 1.356 . S
C445 C444 1.363 . S
C445 C451 1.363 . S
C446 C447 1.363 . S
C446 C451 1.379 . S
C446 N453 1.356 . S
C447 C446 1.363 . S
C447 C450 1.363 . S
N448 C450 1.356 . S
N448 H460 0.984 . S
N448 H461 0.985 . S
N449 C451 1.356 . S
N449 H454 0.984 . S
N449 H455 0.985 . S
C450 C444 1.379 . S
C450 C447 1.363 . S
C450 N448 1.356 . S
C451 C445 1.363 . S
C451 C446 1.379 . S
C451 N449 1.356 . S
N452 C444 1.356 . S
N452 H458 0.984 . S
N452 H459 0.984 . S
N453 C446 1.356 . S
N453 H456 0.984 . S
N453 H457 0.985 . S
H454 N449 0.984 . S
H455 N449 0.985 . S
H456 N453 0.984 . S
H457 N453 0.985 . S
H458 N452 0.984 . S
H459 N452 0.984 . S
H460 N448 0.984 . S
H461 N448 0.985 . S
C462 C463 1.363 . S
C462 C468 1.379 . S
C462 N470 1.356 . S
C463 C462 1.363 . S
C463 C469 1.363 . S
C464 C465 1.363 . S
C464 C469 1.379 . S
C464 N471 1.356 . S
C465 C464 1.363 . S
C465 C468 1.363 . S
N466 C468 1.356 . S
N466 H478 0.984 . S
N466 H479 0.985 . S
N467 C469 1.356 . S
N467 H472 0.984 . S
N467 H473 0.985 . S
C468 C462 1.379 . S
C468 C465 1.363 . S
C468 N466 1.356 . S
C469 C463 1.363 . S
C469 C464 1.379 . S
C469 N467 1.356 . S
N470 C462 1.356 . S
N470 H476 0.984 . S
N470 H477 0.984 . S
N471 C464 1.356 . S
N471 H474 0.984 . S
N471 H475 0.985 . S
H472 N467 0.984 . S
H473 N467 0.985 . S
H474 N471 0.984 . S
H475 N471 0.985 . S
H476 N470 0.984 . S
H477 N470 0.984 . S
H478 N466 0.984 . S
H479 N466 0.985 . S
C480 C481 1.363 . S
C480 C486 1.379 . S
C480 N488 1.356 . S
C481 C480 1.363 . S
C481 C487 1.363 . S
C482 C483 1.363 . S
C482 C487 1.379 . S
C482 N489 1.356 . S
C483 C482 1.363 . S
C483 C486 1.363 . S
N484 C486 1.356 . S
N484 H496 0.984 1_455 S
N484 H497 0.985 . S
N485 C487 1.356 . S
N485 H490 0.984 . S
N485 H491 0.985 . S
C486 C480 1.379 . S
C486 C483 1.363 . S
C486 N484 1.356 . S
C487 C481 1.363 . S
C487 C482 1.379 . S
C487 N485 1.356 . S
N488 C480 1.356 . S
N488 H494 0.984 . S
N488 H495 0.984 . S
N489 C482 1.356 . S
N489 H492 0.984 . S
N489 H493 0.985 . S
H490 N485 0.984 . S
H491 N485 0.985 . S
H492 N489 0.984 . S
H493 N489 0.985 . S
H494 N488 0.984 . S
H495 N488 0.984 . S
H496 N484 0.984 1_655 S
H497 N484 0.985 . S
C498 C499 1.363 . S
C498 C504 1.379 . S
C498 N506 1.356 . S
C499 C498 1.363 . S
C499 C505 1.363 . S
C500 C501 1.363 . S
C500 C505 1.379 . S
C500 N507 1.356 . S
C501 C500 1.363 . S
C501 C504 1.363 . S
N502 C504 1.356 . S
N502 H514 0.984 . S
N502 H515 0.985 . S
N503 C505 1.356 . S
N503 H508 0.984 . S
N503 H509 0.985 . S
C504 C498 1.379 . S
C504 C501 1.363 . S
C504 N502 1.356 . S
C505 C499 1.363 . S
C505 C500 1.379 . S
C505 N503 1.356 . S
N506 C498 1.356 . S
N506 H512 0.984 . S
N506 H513 0.984 . S
N507 C500 1.356 . S
N507 H510 0.984 . S
N507 H511 0.985 . S
H508 N503 0.984 . S
H509 N503 0.985 . S
H510 N507 0.984 . S
H511 N507 0.985 . S
H512 N506 0.984 . S
H513 N506 0.984 . S
H514 N502 0.984 . S
H515 N502 0.985 . S
C516 C517 1.363 . S
C516 C522 1.379 1_565 S
C516 N524 1.356 . S
C517 C516 1.363 . S
C517 C523 1.363 . S
C518 C519 1.363 1_565 S
C518 C523 1.379 . S
C518 N525 1.356 . S
C519 C518 1.363 1_545 S
C519 C522 1.363 . S
N520 C522 1.356 . S
N520 H532 0.984 . S
N520 H533 0.985 . S
N521 C523 1.356 . S
N521 H526 0.984 . S
N521 H527 0.985 . S
C522 C516 1.379 1_545 S
C522 C519 1.363 . S
C522 N520 1.356 . S
C523 C517 1.363 . S
C523 C518 1.379 . S
C523 N521 1.356 . S
N524 C516 1.356 . S
N524 H530 0.983 1_565 S
N524 H531 0.984 . S
N525 C518 1.356 . S
N525 H528 0.984 . S
N525 H529 0.985 . S
H526 N521 0.984 . S
H527 N521 0.985 . S
H528 N525 0.984 . S
H529 N525 0.985 . S
H530 N524 0.983 1_545 S
H531 N524 0.984 . S
H532 N520 0.984 . S
H533 N520 0.985 . S
C534 C535 1.363 . S
C534 C540 1.379 . S
C534 N542 1.356 . S
C535 C534 1.363 . S
C535 C541 1.363 . S
C536 C537 1.363 . S
C536 C541 1.379 . S
C536 N543 1.356 . S
C537 C536 1.363 . S
C537 C540 1.363 . S
N538 C540 1.356 . S
N538 H550 0.984 . S
N538 H551 0.985 . S
N539 C541 1.356 . S
N539 H544 0.984 . S
N539 H545 0.985 . S
C540 C534 1.379 . S
C540 C537 1.363 . S
C540 N538 1.356 . S
C541 C535 1.363 . S
C541 C536 1.379 . S
C541 N539 1.356 . S
N542 C534 1.356 . S
N542 H548 0.984 . S
N542 H549 0.984 . S
N543 C536 1.356 . S
N543 H546 0.984 . S
N543 H547 0.985 . S
H544 N539 0.984 . S
H545 N539 0.985 . S
H546 N543 0.984 . S
H547 N543 0.985 . S
H548 N542 0.984 . S
H549 N542 0.984 . S
H550 N538 0.984 . S
H551 N538 0.985 . S
C552 C553 1.363 . S
C552 C558 1.379 1_554 S
C552 N560 1.356 . S
C553 C552 1.363 . S
C553 C559 1.363 1_554 S
C554 C555 1.363 . S
C554 C559 1.379 . S
C554 N561 1.356 . S
C555 C554 1.363 . S
C555 C558 1.363 . S
N556 C558 1.356 . S
N556 H568 0.984 . S
N556 H569 0.985 . S
N557 C559 1.348 1_554 S
N557 H562 1.004 . S
N557 H563 0.974 1_554 S
C558 C552 1.379 1_556 S
C558 C555 1.363 . S
C558 N556 1.356 . S
C559 C553 1.363 1_556 S
C559 C554 1.379 . S
C559 N557 1.348 1_556 S
N560 C552 1.356 . S
N560 H566 0.984 . S
N560 H567 0.984 . S
N561 C554 1.356 . S
N561 H564 0.984 . S
N561 H565 0.985 . S
H562 N557 1.004 . S
H563 N557 0.974 1_556 S
H564 N561 0.984 . S
H565 N561 0.985 . S
H566 N560 0.984 . S
H567 N560 0.984 . S
H568 N556 0.984 . S
H569 N556 0.985 . S
C570 C571 1.363 . S
C570 C576 1.379 1_554 S
C570 N578 1.356 . S
C571 C570 1.363 . S
C571 C577 1.363 1_554 S
C572 C573 1.363 . S
C572 C577 1.379 . S
C572 N579 1.356 . S
C573 C572 1.363 . S
C573 C576 1.363 . S
N574 C576 1.356 . S
N574 H586 0.984 . S
N574 H587 0.985 . S
N575 C577 1.356 . S
N575 H580 0.986 1_556 S
N575 H581 0.985 1_565 S
C576 C570 1.379 1_556 S
C576 C573 1.363 . S
C576 N574 1.356 . S
C577 C571 1.363 1_556 S
C577 C572 1.379 . S
C577 N575 1.356 . S
N578 C570 1.356 . S
N578 H584 0.984 . S
N578 H585 0.984 . S
N579 C572 1.356 . S
N579 H582 0.984 . S
N579 H583 0.985 . S
H580 N575 0.986 1_554 S
H581 N575 0.985 1_545 S
H582 N579 0.984 . S
H583 N579 0.985 . S
H584 N578 0.984 . S
H585 N578 0.984 . S
H586 N574 0.984 . S
H587 N574 0.985 . S
C588 C589 1.363 . S
C588 C594 1.379 . S
C588 N596 1.356 . S
C589 C588 1.363 . S
C589 C595 1.363 . S
C590 C591 1.363 . S
C590 C595 1.379 . S
C590 N597 1.356 . S
C591 C590 1.363 . S
C591 C594 1.363 . S
N592 C594 1.356 . S
N592 H604 0.984 . S
N592 H605 0.985 . S
N593 C595 1.356 . S
N593 H598 0.984 . S
N593 H599 0.985 . S
C594 C588 1.379 . S
C594 C591 1.363 . S
C594 N592 1.356 . S
C595 C589 1.363 . S
C595 C590 1.379 . S
C595 N593 1.356 . S
N596 C588 1.356 . S
N596 H602 0.984 . S
N596 H603 0.984 . S
N597 C590 1.356 . S
N597 H600 0.984 . S
N597 H601 0.985 . S
H598 N593 0.984 . S
H599 N593 0.985 . S
H600 N597 0.984 . S
H601 N597 0.985 . S
H602 N596 0.984 . S
H603 N596 0.984 . S
H604 N592 0.984 . S
H605 N592 0.985 . S
C606 C607 1.363 . S
C606 C612 1.379 . S
C606 N614 1.356 . S
C607 C606 1.363 . S
C607 C613 1.363 . S
C608 C609 1.363 . S
C608 C613 1.379 . S
C608 N615 1.356 . S
C609 C608 1.363 . S
C609 C612 1.363 . S
N610 C612 1.369 . S
N610 H622 0.973 1_545 S
N610 H623 0.983 1_545 S
N611 C613 1.356 . S
N611 H616 0.984 . S
N611 H617 0.985 . S
C612 C606 1.379 . S
C612 C609 1.363 . S
C612 N610 1.369 . S
C613 C607 1.363 . S
C613 C608 1.379 . S
C613 N611 1.356 . S
N614 C606 1.356 . S
N614 H620 0.984 . S
N614 H621 0.984 . S
N615 C608 1.356 . S
N615 H618 0.984 . S
N615 H619 0.985 . S
H616 N611 0.984 . S
H617 N611 0.985 . S
H618 N615 0.984 . S
H619 N615 0.985 . S
H620 N614 0.984 . S
H621 N614 0.984 . S
H622 N610 0.973 1_565 S
H623 N610 0.983 1_565 S
C624 C625 1.363 1_655 S
C624 C630 1.379 . S
C624 N632 1.356 1_655 S
C625 C624 1.363 1_455 S
C625 C631 1.363 . S
C626 C627 1.363 . S
C626 C631 1.379 1_655 S
C626 N633 1.356 . S
C627 C626 1.363 . S
C627 C630 1.363 . S
N628 C630 1.356 . S
N628 H640 0.984 . S
N628 H641 0.985 . S
N629 C631 1.356 . S
N629 H634 0.984 . S
N629 H635 0.985 . S
C630 C624 1.379 . S
C630 C627 1.363 . S
C630 N628 1.356 . S
C631 C625 1.363 . S
C631 C626 1.379 1_455 S
C631 N629 1.356 . S
N632 C624 1.356 1_455 S
N632 H638 0.984 1_455 S
N632 H639 0.984 . S
N633 C626 1.356 . S
N633 H636 0.984 . S
N633 H637 0.985 . S
H634 N629 0.984 . S
H635 N629 0.985 . S
H636 N633 0.984 . S
H637 N633 0.985 . S
H638 N632 0.984 1_655 S
H639 N632 0.984 . S
H640 N628 0.984 . S
H641 N628 0.985 . S
C642 C643 1.363 1_455 S
C642 C648 1.379 . S
C642 N650 1.356 1_455 S
C643 C642 1.363 1_655 S
C643 C649 1.363 . S
C644 C645 1.363 . S
C644 C649 1.379 1_455 S
C644 N651 1.356 . S
C645 C644 1.363 . S
C645 C648 1.363 . S
N646 C648 1.356 . S
N646 H658 0.984 . S
N646 H659 0.985 . S
N647 C649 1.356 . S
N647 H652 0.984 . S
N647 H653 0.985 . S
C648 C642 1.379 . S
C648 C645 1.363 . S
C648 N646 1.356 . S
C649 C643 1.363 . S
C649 C644 1.379 1_655 S
C649 N647 1.356 . S
N650 C642 1.356 1_655 S
N650 H656 0.984 1_655 S
N650 H657 0.984 . S
N651 C644 1.356 . S
N651 H654 0.984 . S
N651 H655 0.985 . S
H652 N647 0.984 . S
H653 N647 0.985 . S
H654 N651 0.984 . S
H655 N651 0.985 . S
H656 N650 0.984 1_455 S
H657 N650 0.984 . S
H658 N646 0.984 . S
H659 N646 0.985 . S
C660 C661 1.359 1_655 S
C660 C666 1.401 . S
C660 N668 1.335 1_655 S
C661 C660 1.359 1_455 S
C661 C667 1.363 1_455 S
C662 C663 1.363 . S
C662 C667 1.379 . S
C662 N669 1.356 . S
C663 C662 1.363 . S
C663 C666 1.363 . S
N664 C666 1.356 . S
N664 H676 0.984 . S
N664 H677 0.985 . S
N665 C667 1.356 1_554 S
N665 H670 0.984 1_655 S
N665 H671 0.985 . S
C666 C660 1.401 . S
C666 C663 1.363 . S
C666 N664 1.356 . S
C667 C661 1.363 1_655 S
C667 C662 1.379 . S
C667 N665 1.356 1_556 S
N668 C660 1.335 1_455 S
N668 H674 0.984 . S
N668 H675 0.984 . S
N669 C662 1.356 . S
N669 H672 0.984 . S
N669 H673 0.985 1_556 S
H670 N665 0.984 1_455 S
H671 N665 0.985 . S
H672 N669 0.984 . S
H673 N669 0.985 1_554 S
H674 N668 0.984 . S
H675 N668 0.984 . S
H676 N664 0.984 . S
H677 N664 0.985 . S
C678 C679 1.363 . S
C678 C684 1.397 . S
C678 N686 1.356 . S
C679 C678 1.363 . S
C679 C685 1.363 . S
C680 C681 1.363 1_455 S
C680 C685 1.379 . S
C680 N687 1.356 1_455 S
C681 C680 1.363 1_655 S
C681 C684 1.357 1_655 S
N682 C684 1.340 1_655 S
N682 H694 0.974 1_556 S
N682 H695 0.985 . S
N683 C685 1.356 . S
N683 H688 0.984 . S
N683 H689 0.985 . S
C684 C678 1.397 . S
C684 C681 1.357 1_455 S
C684 N682 1.340 1_455 S
C685 C679 1.363 . S
C685 C680 1.379 . S
C685 N683 1.356 . S
N686 C678 1.356 . S
N686 H692 0.984 1_545 S
N686 H693 0.984 . S
N687 C680 1.356 1_655 S
N687 H690 0.984 . S
N687 H691 0.985 1_655 S
H688 N683 0.984 . S
H689 N683 0.985 . S
H690 N687 0.984 . S
H691 N687 0.985 1_455 S
H692 N686 0.984 1_565 S
H693 N686 0.984 . S
H694 N682 0.974 1_554 S
H695 N682 0.985 . S
C696 C697 1.363 1_565 S
C696 C702 1.379 . S
C696 N704 1.356 . S
C697 C696 1.363 1_545 S
C697 C703 1.363 . S
C698 C699 1.363 . S
C698 C703 1.379 1_565 S
C698 N705 1.356 . S
C699 C698 1.363 . S
C699 C702 1.363 . S
N700 C702 1.356 . S
N700 H712 0.984 . S
N700 H713 0.985 . S
N701 C703 1.356 . S
N701 H706 0.984 . S
N701 H707 0.985 . S
C702 C696 1.379 . S
C702 C699 1.363 . S
C702 N700 1.356 . S
C703 C697 1.363 . S
C703 C698 1.379 1_545 S
C703 N701 1.356 . S
N704 C696 1.356 . S
N704 H710 0.984 . S
N704 H711 0.984 1_565 S
N705 C698 1.356 . S
N705 H708 0.984 . S
N705 H709 0.985 . S
H706 N701 0.984 . S
H707 N701 0.985 . S
H708 N705 0.984 . S
H709 N705 0.985 . S
H710 N704 0.984 . S
H711 N704 0.984 1_545 S
H712 N700 0.984 . S
H713 N700 0.985 . S
C714 C715 1.363 . S
C714 C720 1.379 . S
C714 N722 1.356 . S
C715 C714 1.363 . S
C715 C721 1.363 . S
C716 C717 1.363 . S
C716 C721 1.379 1_565 S
C716 N723 1.356 . S
C717 C716 1.363 . S
C717 C720 1.363 1_565 S
N718 C720 1.356 1_565 S
N718 H730 0.984 1_565 S
N718 H731 0.985 . S
N719 C721 1.356 . S
N719 H724 0.984 . S
N719 H725 0.983 1_556 S
C720 C714 1.379 . S
C720 C717 1.363 1_545 S
C720 N718 1.356 1_545 S
C721 C715 1.363 . S
C721 C716 1.379 1_545 S
C721 N719 1.356 . S
N722 C714 1.356 . S
N722 H728 0.984 . S
N722 H729 0.984 . S
N723 C716 1.356 . S
N723 H726 0.984 . S
N723 H727 0.985 . S
H724 N719 0.984 . S
H725 N719 0.983 1_554 S
H726 N723 0.984 . S
H727 N723 0.985 . S
H728 N722 0.984 . S
H729 N722 0.984 . S
H730 N718 0.984 1_545 S
H731 N718 0.985 . S
C732 C733 1.363 . S
C732 C738 1.379 . S
C732 N740 1.356 . S
C733 C732 1.363 . S
C733 C739 1.363 . S
C734 C735 1.363 . S
C734 C739 1.379 . S
C734 N741 1.356 . S
C735 C734 1.363 . S
C735 C738 1.363 . S
N736 C738 1.356 . S
N736 H748 0.984 1_556 S
N736 H749 0.985 . S
N737 C739 1.356 . S
N737 H742 0.984 . S
N737 H743 0.985 . S
C738 C732 1.379 . S
C738 C735 1.363 . S
C738 N736 1.356 . S
C739 C733 1.363 . S
C739 C734 1.379 . S
C739 N737 1.356 . S
N740 C732 1.356 . S
N740 H746 0.984 . S
N740 H747 0.984 . S
N741 C734 1.356 . S
N741 H744 0.984 . S
N741 H745 0.985 . S
H742 N737 0.984 . S
H743 N737 0.985 . S
H744 N741 0.984 . S
H745 N741 0.985 . S
H746 N740 0.984 . S
H747 N740 0.984 . S
H748 N736 0.984 1_554 S
H749 N736 0.985 . S
C750 C751 1.363 . S
C750 C756 1.379 1_545 S
C750 N758 1.356 . S
C751 C750 1.363 . S
C751 C757 1.363 . S
C752 C753 1.363 1_545 S
C752 C757 1.379 . S
C752 N759 1.356 . S
C753 C752 1.363 1_565 S
C753 C756 1.363 . S
N754 C756 1.356 . S
N754 H766 0.984 . S
N754 H767 0.985 . S
N755 C757 1.356 . S
N755 H760 0.984 . S
N755 H761 0.985 . S
C756 C750 1.379 1_565 S
C756 C753 1.363 . S
C756 N754 1.356 . S
C757 C751 1.363 . S
C757 C752 1.379 . S
C757 N755 1.356 . S
N758 C750 1.356 . S
N758 H764 0.984 1_554 S
N758 H765 0.984 . S
N759 C752 1.356 . S
N759 H762 0.984 1_545 S
N759 H763 0.985 . S
H760 N755 0.984 . S
H761 N755 0.985 . S
H762 N759 0.984 1_565 S
H763 N759 0.985 . S
H764 N758 0.984 1_556 S
H765 N758 0.984 . S
H766 N754 0.984 . S
H767 N754 0.985 . S
C768 C769 1.367 . S
C768 C774 1.379 . S
C768 N776 1.356 . S
C769 C768 1.367 . S
C769 C775 1.358 1_655 S
C770 C771 1.363 . S
C770 C775 1.379 . S
C770 N777 1.356 . S
C771 C770 1.363 . S
C771 C774 1.363 1_455 S
N772 C774 1.356 . S
N772 H784 0.984 . S
N772 H785 0.985 . S
N773 C775 1.356 . S
N773 H778 0.984 . S
N773 H779 0.985 . S
C774 C768 1.379 . S
C774 C771 1.363 1_655 S
C774 N772 1.356 . S
C775 C769 1.358 1_455 S
C775 C770 1.379 . S
C775 N773 1.356 . S
N776 C768 1.356 . S
N776 H782 0.984 . S
N776 H783 0.984 . S
N777 C770 1.356 . S
N777 H780 0.984 . S
N777 H781 0.985 . S
H778 N773 0.984 . S
H779 N773 0.985 . S
H780 N777 0.984 . S
H781 N777 0.985 . S
H782 N776 0.984 . S
H783 N776 0.984 . S
H784 N772 0.984 . S
H785 N772 0.985 . S
C786 C787 1.363 1_655 S
C786 C792 1.379 . S
C786 N794 1.356 . S
C787 C786 1.363 1_455 S
C787 C793 1.363 . S
C788 C789 1.363 1_455 S
C788 C793 1.379 . S
C788 N795 1.356 . S
C789 C788 1.363 1_655 S
C789 C792 1.363 . S
N790 C792 1.356 . S
N790 H802 0.984 . S
N790 H803 0.985 . S
N791 C793 1.356 . S
N791 H796 0.984 . S
N791 H797 0.985 . S
C792 C786 1.379 . S
C792 C789 1.363 . S
C792 N790 1.356 . S
C793 C787 1.363 . S
C793 C788 1.379 . S
C793 N791 1.356 . S
N794 C786 1.356 . S
N794 H800 0.984 . S
N794 H801 0.984 . S
N795 C788 1.356 . S
N795 H798 0.984 . S
N795 H799 0.985 . S
H796 N791 0.984 . S
H797 N791 0.985 . S
H798 N795 0.984 . S
H799 N795 0.985 . S
H800 N794 0.984 . S
H801 N794 0.984 . S
H802 N790 0.984 . S
H803 N790 0.985 . S
C804 C805 1.370 . S
C804 C810 1.379 . S
C804 N812 1.356 . S
C805 C804 1.370 . S
C805 C811 1.356 1_565 S
C806 C807 1.363 . S
C806 C811 1.379 . S
C806 N813 1.356 . S
C807 C806 1.363 . S
C807 C810 1.363 1_545 S
N808 C810 1.356 . S
N808 H820 0.984 . S
N808 H821 0.985 . S
N809 C811 1.356 . S
N809 H814 0.984 . S
N809 H815 0.985 . S
C810 C804 1.379 . S
C810 C807 1.363 1_565 S
C810 N808 1.356 . S
C811 C805 1.356 1_545 S
C811 C806 1.379 . S
C811 N809 1.356 . S
N812 C804 1.356 . S
N812 H818 0.984 . S
N812 H819 0.984 . S
N813 C806 1.356 . S
N813 H816 0.984 . S
N813 H817 0.985 . S
H814 N809 0.984 . S
H815 N809 0.985 . S
H816 N813 0.984 . S
H817 N813 0.985 . S
H818 N812 0.984 . S
H819 N812 0.984 . S
H820 N808 0.984 . S
H821 N808 0.985 . S
C822 C823 1.363 . S
C822 C828 1.379 . S
C822 N830 1.356 . S
C823 C822 1.363 . S
C823 C829 1.363 . S
C824 C825 1.363 . S
C824 C829 1.379 . S
C824 N831 1.356 . S
C825 C824 1.363 . S
C825 C828 1.363 . S
N826 C828 1.356 . S
N826 H838 0.984 . S
N826 H839 0.985 . S
N827 C829 1.356 . S
N827 H832 0.984 . S
N827 H833 0.985 . S
C828 C822 1.379 . S
C828 C825 1.363 . S
C828 N826 1.356 . S
C829 C823 1.363 . S
C829 C824 1.379 . S
C829 N827 1.356 . S
N830 C822 1.356 . S
N830 H836 0.984 . S
N830 H837 0.984 . S
N831 C824 1.356 . S
N831 H834 0.984 . S
N831 H835 0.985 . S
H832 N827 0.984 . S
H833 N827 0.985 . S
H834 N831 0.984 . S
H835 N831 0.985 . S
H836 N830 0.984 . S
H837 N830 0.984 . S
H838 N826 0.984 . S
H839 N826 0.985 . S
C840 C841 1.363 1_556 S
C840 C846 1.379 . S
C840 N848 1.356 . S
C841 C840 1.363 1_554 S
C841 C847 1.363 . S
C842 C843 1.350 1_554 S
C842 C847 1.379 . S
C842 N849 1.356 . S
C843 C842 1.350 1_556 S
C843 C846 1.375 . S
N844 C846 1.356 . S
N844 H856 0.984 . S
N844 H857 0.985 . S
N845 C847 1.356 . S
N845 H850 0.984 . S
N845 H851 0.985 . S
C846 C840 1.379 . S
C846 C843 1.375 . S
C846 N844 1.356 . S
C847 C841 1.363 . S
C847 C842 1.379 . S
C847 N845 1.356 . S
N848 C840 1.356 . S
N848 H854 0.984 . S
N848 H855 0.984 . S
N849 C842 1.356 . S
N849 H852 0.984 . S
N849 H853 0.985 . S
H850 N845 0.984 . S
H851 N845 0.985 . S
H852 N849 0.984 . S
H853 N849 0.985 . S
H854 N848 0.984 . S
H855 N848 0.984 . S
H856 N844 0.984 . S
H857 N844 0.985 . S
C858 C859 1.363 . S
C858 C864 1.379 . S
C858 N866 1.356 . S
C859 C858 1.363 . S
C859 C865 1.363 . S
C860 C861 1.363 . S
C860 C865 1.379 . S
C860 N867 1.356 . S
C861 C860 1.363 . S
C861 C864 1.363 . S
N862 C864 1.356 . S
N862 H874 0.984 . S
N862 H875 0.985 . S
N863 C865 1.356 . S
N863 H868 0.984 . S
N863 H869 0.985 . S
C864 C858 1.379 . S
C864 C861 1.363 . S
C864 N862 1.356 . S
C865 C859 1.363 . S
C865 C860 1.379 . S
C865 N863 1.356 . S
N866 C858 1.356 . S
N866 H872 0.984 . S
N866 H873 0.984 . S
N867 C860 1.356 . S
N867 H870 0.984 . S
N867 H871 0.985 . S
H868 N863 0.984 . S
H869 N863 0.985 . S
H870 N867 0.984 . S
H871 N867 0.985 . S
H872 N866 0.984 . S
H873 N866 0.984 . S
H874 N862 0.984 . S
H875 N862 0.985 . S
C876 C877 1.363 . S
C876 C882 1.379 . S
C876 N884 1.356 . S
C877 C876 1.363 . S
C877 C883 1.363 . S
C878 C879 1.363 . S
C878 C883 1.379 . S
C878 N885 1.356 . S
C879 C878 1.363 . S
C879 C882 1.363 . S
N880 C882 1.356 . S
N880 H892 0.984 . S
N880 H893 0.985 . S
N881 C883 1.356 . S
N881 H886 0.984 . S
N881 H887 0.985 . S
C882 C876 1.379 . S
C882 C879 1.363 . S
C882 N880 1.356 . S
C883 C877 1.363 . S
C883 C878 1.379 . S
C883 N881 1.356 . S
N884 C876 1.356 . S
N884 H890 0.984 . S
N884 H891 0.984 . S
N885 C878 1.356 . S
N885 H888 0.984 . S
N885 H889 0.985 . S
H886 N881 0.984 . S
H887 N881 0.985 . S
H888 N885 0.984 . S
H889 N885 0.985 . S
H890 N884 0.984 . S
H891 N884 0.984 . S
H892 N880 0.984 . S
H893 N880 0.985 . S
C894 C895 1.363 . S
C894 C900 1.379 . S
C894 N902 1.356 . S
C895 C894 1.363 . S
C895 C901 1.363 . S
C896 C897 1.363 . S
C896 C901 1.379 . S
C896 N903 1.356 . S
C897 C896 1.363 . S
C897 C900 1.363 . S
N898 C900 1.356 . S
N898 H910 0.984 . S
N898 H911 0.985 . S
N899 C901 1.356 . S
N899 H904 0.984 . S
N899 H905 0.985 . S
C900 C894 1.379 . S
C900 C897 1.363 . S
C900 N898 1.356 . S
C901 C895 1.363 . S
C901 C896 1.379 . S
C901 N899 1.356 . S
N902 C894 1.356 . S
N902 H908 0.984 . S
N902 H909 0.984 . S
N903 C896 1.356 . S
N903 H906 0.984 . S
N903 H907 0.985 . S
H904 N899 0.984 . S
H905 N899 0.985 . S
H906 N903 0.984 . S
H907 N903 0.985 . S
H908 N902 0.984 . S
H909 N902 0.984 . S
H910 N898 0.984 . S
H911 N898 0.985 . S
C912 C913 1.363 . S
C912 C918 1.379 . S
C912 N920 1.356 . S
C913 C912 1.363 . S
C913 C919 1.363 . S
C914 C915 1.363 . S
C914 C919 1.379 . S
C914 N921 1.356 . S
C915 C914 1.363 . S
C915 C918 1.363 . S
N916 C918 1.356 . S
N916 H928 0.984 . S
N916 H929 0.985 . S
N917 C919 1.356 . S
N917 H922 0.984 . S
N917 H923 0.985 . S
C918 C912 1.379 . S
C918 C915 1.363 . S
C918 N916 1.356 . S
C919 C913 1.363 . S
C919 C914 1.379 . S
C919 N917 1.356 . S
N920 C912 1.356 . S
N920 H926 0.984 . S
N920 H927 0.984 . S
N921 C914 1.356 . S
N921 H924 0.984 . S
N921 H925 0.985 . S
H922 N917 0.984 . S
H923 N917 0.985 . S
H924 N921 0.984 . S
H925 N921 0.985 . S
H926 N920 0.984 . S
H927 N920 0.984 . S
H928 N916 0.984 . S
H929 N916 0.985 . S
C930 C931 1.363 . S
C930 C936 1.379 . S
C930 N938 1.356 . S
C931 C930 1.363 . S
C931 C937 1.363 . S
C932 C933 1.363 . S
C932 C937 1.379 . S
C932 N939 1.356 . S
C933 C932 1.363 . S
C933 C936 1.363 . S
N934 C936 1.356 . S
N934 H946 0.984 . S
N934 H947 0.985 . S
N935 C937 1.356 . S
N935 H940 0.984 . S
N935 H941 0.985 . S
C936 C930 1.379 . S
C936 C933 1.363 . S
C936 N934 1.356 . S
C937 C931 1.363 . S
C937 C932 1.379 . S
C937 N935 1.356 . S
N938 C930 1.356 . S
N938 H944 0.984 . S
N938 H945 0.984 . S
N939 C932 1.356 . S
N939 H942 0.984 . S
N939 H943 0.985 . S
H940 N935 0.984 . S
H941 N935 0.985 . S
H942 N939 0.984 . S
H943 N939 0.985 . S
H944 N938 0.984 . S
H945 N938 0.984 . S
H946 N934 0.984 . S
H947 N934 0.985 . S
C948 C949 1.363 . S
C948 C954 1.379 . S
C948 N956 1.356 . S
C949 C948 1.363 . S
C949 C955 1.363 1_545 S
C950 C951 1.363 . S
C950 C955 1.379 . S
C950 N957 1.356 . S
C951 C950 1.363 . S
C951 C954 1.363 1_565 S
N952 C954 1.356 . S
N952 H964 0.984 . S
N952 H965 0.985 . S
N953 C955 1.356 . S
N953 H958 0.984 . S
N953 H959 0.985 . S
C954 C948 1.379 . S
C954 C951 1.363 1_545 S
C954 N952 1.356 . S
C955 C949 1.363 1_565 S
C955 C950 1.379 . S
C955 N953 1.356 . S
N956 C948 1.356 . S
N956 H962 0.984 . S
N956 H963 0.984 . S
N957 C950 1.356 . S
N957 H960 0.984 . S
N957 H961 0.985 . S
H958 N953 0.984 . S
H959 N953 0.985 . S
H960 N957 0.984 . S
H961 N957 0.985 . S
H962 N956 0.984 . S
H963 N956 0.984 . S
H964 N952 0.984 . S
H965 N952 0.985 . S
C966 C967 1.363 1_554 S
C966 C972 1.379 . S
C966 N974 1.356 . S
C967 C966 1.363 1_556 S
C967 C973 1.363 . S
C968 C969 1.363 1_556 S
C968 C973 1.379 . S
C968 N975 1.356 . S
C969 C968 1.363 1_554 S
C969 C972 1.363 . S
N970 C972 1.356 . S
N970 H982 0.984 . S
N970 H983 0.985 . S
N971 C973 1.356 . S
N971 H976 0.984 . S
N971 H977 0.985 . S
C972 C966 1.379 . S
C972 C969 1.363 . S
C972 N970 1.356 . S
C973 C967 1.363 . S
C973 C968 1.379 . S
C973 N971 1.356 . S
N974 C966 1.356 . S
N974 H980 0.984 . S
N974 H981 0.984 . S
N975 C968 1.356 . S
N975 H978 0.984 . S
N975 H979 0.985 . S
H976 N971 0.984 . S
H977 N971 0.985 . S
H978 N975 0.984 . S
H979 N975 0.985 . S
H980 N974 0.984 . S
H981 N974 0.984 . S
H982 N970 0.984 . S
H983 N970 0.985 . S
C984 C985 1.363 1_445 S
C984 C990 1.379 . S
C984 N992 1.356 . S
C985 C984 1.363 1_665 S
C985 C991 1.363 . S
C986 C987 1.363 1_565 S
C986 C991 1.379 . S
C986 N993 1.356 . S
C987 C986 1.363 1_545 S
C987 C990 1.363 1_655 S
N988 C990 1.356 . S
N988 H1000 0.984 . S
N988 H1001 0.985 . S
N989 C991 1.356 . S
N989 H994 0.984 . S
N989 H995 0.985 . S
C990 C984 1.379 . S
C990 C987 1.363 1_455 S
C990 N988 1.356 . S
C991 C985 1.363 . S
C991 C986 1.379 . S
C991 N989 1.356 . S
N992 C984 1.356 . S
N992 H998 0.984 . S
N992 H999 0.984 1_545 S
N993 C986 1.356 . S
N993 H996 0.984 1_565 S
N993 H997 0.985 . S
H994 N989 0.984 . S
H995 N989 0.985 . S
H996 N993 0.984 1_545 S
H997 N993 0.985 . S
H998 N992 0.984 . S
H999 N992 0.984 1_565 S
H1000 N988 0.984 . S
H1001 N988 0.985 . S
C1002 C1003 1.363 . S
C1002 C1008 1.379 . S
C1002 N1010 1.356 . S
C1003 C1002 1.363 . S
C1003 C1009 1.363 1_455 S
C1004 C1005 1.340 1_655 S
C1004 C1009 1.379 . S
C1004 N1011 1.356 . S
C1005 C1004 1.340 1_455 S
C1005 C1008 1.388 . S
N1006 C1008 1.356 . S
N1006 H1018 0.984 . S
N1006 H1019 0.985 . S
N1007 C1009 1.356 . S
N1007 H1012 0.984 . S
N1007 H1013 0.985 . S
C1008 C1002 1.379 . S
C1008 C1005 1.388 . S
C1008 N1006 1.356 . S
C1009 C1003 1.363 1_655 S
C1009 C1004 1.379 . S
C1009 N1007 1.356 . S
N1010 C1002 1.356 . S
N1010 H1016 0.984 . S
N1010 H1017 0.984 . S
N1011 C1004 1.356 . S
N1011 H1014 0.984 . S
N1011 H1015 0.985 . S
H1012 N1007 0.984 . S
H1013 N1007 0.985 . S
H1014 N1011 0.984 . S
H1015 N1011 0.985 . S
H1016 N1010 0.984 . S
H1017 N1010 0.984 . S
H1018 N1006 0.984 . S
H1019 N1006 0.985 . S
C1020 C1021 1.363 1_545 S
C1020 C1026 1.379 . S
C1020 N1028 1.356 . S
C1021 C1020 1.363 1_565 S
C1021 C1027 1.363 . S
C1022 C1023 1.363 . S
C1022 C1027 1.379 1_554 S
C1022 N1029 1.356 . S
C1023 C1022 1.363 . S
C1023 C1026 1.363 1_564 S
N1024 C1026 1.356 1_554 S
N1024 H1036 0.984 1_554 S
N1024 H1037 0.985 . S
N1025 C1027 1.356 . S
N1025 H1030 0.984 . S
N1025 H1031 0.967 1_556 S
C1026 C1020 1.379 . S
C1026 C1023 1.363 1_546 S
C1026 N1024 1.356 1_556 S
C1027 C1021 1.363 . S
C1027 C1022 1.379 1_556 S
C1027 N1025 1.356 . S
N1028 C1020 1.356 . S
N1028 H1034 0.984 . S
N1028 H1035 0.984 . S
N1029 C1022 1.356 . S
N1029 H1032 0.984 . S
N1029 H1033 0.985 . S
H1030 N1025 0.984 . S
H1031 N1025 0.967 1_554 S
H1032 N1029 0.984 . S
H1033 N1029 0.985 . S
H1034 N1028 0.984 . S
H1035 N1028 0.984 . S
H1036 N1024 0.984 1_556 S
H1037 N1024 0.985 . S
C1038 C1039 1.363 . S
C1038 C1044 1.379 1_554 S
C1038 N1046 1.356 . S
C1039 C1038 1.363 . S
C1039 C1045 1.363 1_554 S
C1040 C1041 1.363 . S
C1040 C1045 1.379 . S
C1040 N1047 1.356 . S
C1041 C1040 1.363 . S
C1041 C1044 1.363 . S
N1042 C1044 1.356 . S
N1042 H1054 0.984 1_556 S
N1042 H1055 0.985 . S
N1043 C1045 1.356 1_554 S
N1043 H1048 0.984 . S
N1043 H1049 0.985 1_554 S
C1044 C1038 1.379 1_556 S
C1044 C1041 1.363 . S
C1044 N1042 1.356 . S
C1045 C1039 1.363 1_556 S
C1045 C1040 1.379 . S
C1045 N1043 1.356 1_556 S
N1046 C1038 1.356 . S
N1046 H1052 0.984 . S
N1046 H1053 0.984 . S
N1047 C1040 1.356 . S
N1047 H1050 0.984 . S
N1047 H1051 0.985 . S
H1048 N1043 0.984 . S
H1049 N1043 0.985 1_556 S
H1050 N1047 0.984 . S
H1051 N1047 0.985 . S
H1052 N1046 0.984 . S
H1053 N1046 0.984 . S
H1054 N1042 0.984 1_554 S
H1055 N1042 0.985 . S
C1056 C1057 1.363 1_565 S
C1056 C1062 1.379 . S
C1056 N1064 1.356 . S
C1057 C1056 1.363 1_545 S
C1057 C1063 1.363 . S
C1058 C1059 1.386 . S
C1058 C1063 1.379 . S
C1058 N1065 1.356 . S
C1059 C1058 1.386 . S
C1059 C1062 1.342 1_545 S
N1060 C1062 1.356 . S
N1060 H1072 0.984 . S
N1060 H1073 0.985 . S
N1061 C1063 1.356 . S
N1061 H1066 0.984 . S
N1061 H1067 0.985 . S
C1062 C1056 1.379 . S
C1062 C1059 1.342 1_565 S
C1062 N1060 1.356 . S
C1063 C1057 1.363 . S
C1063 C1058 1.379 . S
C1063 N1061 1.356 . S
N1064 C1056 1.356 . S
N1064 H1070 0.984 . S
N1064 H1071 0.984 . S
N1065 C1058 1.356 . S
N1065 H1068 0.984 . S
N1065 H1069 0.985 . S
H1066 N1061 0.984 . S
H1067 N1061 0.985 . S
H1068 N1065 0.984 . S
H1069 N1065 0.985 . S
H1070 N1064 0.984 . S
H1071 N1064 0.984 . S
H1072 N1060 0.984 . S
H1073 N1060 0.985 . S
C1074 C1075 1.363 . S
C1074 C1080 1.379 . S
C1074 N1082 1.356 . S
C1075 C1074 1.363 . S
C1075 C1081 1.363 . S
C1076 C1077 1.363 . S
C1076 C1081 1.379 . S
C1076 N1083 1.356 . S
C1077 C1076 1.363 . S
C1077 C1080 1.363 . S
N1078 C1080 1.356 . S
N1078 H1090 0.984 . S
N1078 H1091 0.985 . S
N1079 C1081 1.356 . S
N1079 H1084 0.984 . S
N1079 H1085 0.985 . S
C1080 C1074 1.379 . S
C1080 C1077 1.363 . S
C1080 N1078 1.356 . S
C1081 C1075 1.363 . S
C1081 C1076 1.379 . S
C1081 N1079 1.356 . S
N1082 C1074 1.356 . S
N1082 H1088 0.984 . S
N1082 H1089 0.984 . S
N1083 C1076 1.356 . S
N1083 H1086 0.984 . S
N1083 H1087 0.985 . S
H1084 N1079 0.984 . S
H1085 N1079 0.985 . S
H1086 N1083 0.984 . S
H1087 N1083 0.985 . S
H1088 N1082 0.984 . S
H1089 N1082 0.984 . S
H1090 N1078 0.984 . S
H1091 N1078 0.985 . S
C1092 C1093 1.363 1_554 S
C1092 C1098 1.379 1_455 S
C1092 N1100 1.356 . S
C1093 C1092 1.363 1_556 S
C1093 C1099 1.363 1_455 S
C1094 C1095 1.363 . S
C1094 C1099 1.379 . S
C1094 N1101 1.356 . S
C1095 C1094 1.363 . S
C1095 C1098 1.363 1_556 S
N1096 C1098 1.356 . S
N1096 H1108 0.984 1_655 S
N1096 H1109 0.985 . S
N1097 C1099 1.356 1_455 S
N1097 H1102 0.984 . S
N1097 H1103 0.985 1_455 S
C1098 C1092 1.379 1_655 S
C1098 C1095 1.363 1_554 S
C1098 N1096 1.356 . S
C1099 C1093 1.363 1_655 S
C1099 C1094 1.379 . S
C1099 N1097 1.356 1_655 S
N1100 C1092 1.356 . S
N1100 H1106 0.984 . S
N1100 H1107 0.984 . S
N1101 C1094 1.356 . S
N1101 H1104 0.984 . S
N1101 H1105 0.985 . S
H1102 N1097 0.984 . S
H1103 N1097 0.985 1_655 S
H1104 N1101 0.984 . S
H1105 N1101 0.985 . S
H1106 N1100 0.984 . S
H1107 N1100 0.984 . S
H1108 N1096 0.984 1_455 S
H1109 N1096 0.985 . S
C1110 C1111 1.363 . S
C1110 C1116 1.379 1_455 S
C1110 N1118 1.356 . S
C1111 C1110 1.363 . S
C1111 C1117 1.363 1_455 S
C1112 C1113 1.363 . S
C1112 C1117 1.379 . S
C1112 N1119 1.356 . S
C1113 C1112 1.363 . S
C1113 C1116 1.363 . S
N1114 C1116 1.356 . S
N1114 H1126 0.984 1_655 S
N1114 H1127 0.985 . S
N1115 C1117 1.356 1_455 S
N1115 H1120 0.984 . S
N1115 H1121 0.985 1_455 S
C1116 C1110 1.379 1_655 S
C1116 C1113 1.363 . S
C1116 N1114 1.356 . S
C1117 C1111 1.363 1_655 S
C1117 C1112 1.379 . S
C1117 N1115 1.356 1_655 S
N1118 C1110 1.356 . S
N1118 H1124 0.984 . S
N1118 H1125 0.984 . S
N1119 C1112 1.356 . S
N1119 H1122 0.984 . S
N1119 H1123 0.985 . S
H1120 N1115 0.984 . S
H1121 N1115 0.985 1_655 S
H1122 N1119 0.984 . S
H1123 N1119 0.985 . S
H1124 N1118 0.984 . S
H1125 N1118 0.984 . S
H1126 N1114 0.984 1_455 S
H1127 N1114 0.985 . S
C1128 C1129 1.363 . S
C1128 C1134 1.379 . S
C1128 N1136 1.356 . S
C1129 C1128 1.363 . S
C1129 C1135 1.363 . S
C1130 C1131 1.363 . S
C1130 C1135 1.379 . S
C1130 N1137 1.356 . S
C1131 C1130 1.363 . S
C1131 C1134 1.363 . S
N1132 C1134 1.356 . S
N1132 H1144 0.984 . S
N1132 H1145 0.985 . S
N1133 C1135 1.356 . S
N1133 H1138 0.984 . S
N1133 H1139 0.985 . S
C1134 C1128 1.379 . S
C1134 C1131 1.363 . S
C1134 N1132 1.356 . S
C1135 C1129 1.363 . S
C1135 C1130 1.379 . S
C1135 N1133 1.356 . S
N1136 C1128 1.356 . S
N1136 H1142 0.984 . S
N1136 H1143 0.984 . S
N1137 C1130 1.356 . S
N1137 H1140 0.984 . S
N1137 H1141 0.985 . S
H1138 N1133 0.984 . S
H1139 N1133 0.985 . S
H1140 N1137 0.984 . S
H1141 N1137 0.985 . S
H1142 N1136 0.984 . S
H1143 N1136 0.984 . S
H1144 N1132 0.984 . S
H1145 N1132 0.985 . S
C1146 C1147 1.363 . S
C1146 C1152 1.379 . S
C1146 N1154 1.356 . S
C1147 C1146 1.363 . S
C1147 C1153 1.363 . S
C1148 C1149 1.363 . S
C1148 C1153 1.379 . S
C1148 N1155 1.356 . S
C1149 C1148 1.363 . S
C1149 C1152 1.363 . S
N1150 C1152 1.356 . S
N1150 H1162 0.984 . S
N1150 H1163 0.985 . S
N1151 C1153 1.356 . S
N1151 H1156 0.984 . S
N1151 H1157 0.985 . S
C1152 C1146 1.379 . S
C1152 C1149 1.363 . S
C1152 N1150 1.356 . S
C1153 C1147 1.363 . S
C1153 C1148 1.379 . S
C1153 N1151 1.356 . S
N1154 C1146 1.356 . S
N1154 H1160 0.984 . S
N1154 H1161 0.984 . S
N1155 C1148 1.356 . S
N1155 H1158 0.984 . S
N1155 H1159 0.985 . S
H1156 N1151 0.984 . S
H1157 N1151 0.985 . S
H1158 N1155 0.984 . S
H1159 N1155 0.985 . S
H1160 N1154 0.984 . S
H1161 N1154 0.984 . S
H1162 N1150 0.984 . S
H1163 N1150 0.985 . S
C1164 C1165 1.363 . S
C1164 C1170 1.379 1_565 S
C1164 N1172 1.356 . S
C1165 C1164 1.363 . S
C1165 C1171 1.363 . S
C1166 C1167 1.365 . S
C1166 C1171 1.377 1_545 S
C1166 N1173 1.357 . S
C1167 C1166 1.365 . S
C1167 C1170 1.363 . S
N1168 C1170 1.356 . S
N1168 H1180 0.984 . S
N1168 H1181 0.985 . S
N1169 C1171 1.356 . S
N1169 H1174 0.984 . S
N1169 H1175 0.985 . S
C1170 C1164 1.379 1_545 S
C1170 C1167 1.363 . S
C1170 N1168 1.356 . S
C1171 C1165 1.363 . S
C1171 C1166 1.377 1_565 S
C1171 N1169 1.356 . S
N1172 C1164 1.356 . S
N1172 H1178 0.984 . S
N1172 H1179 0.984 . S
N1173 C1166 1.357 . S
N1173 H1176 0.984 . S
N1173 H1177 0.985 1_545 S
H1174 N1169 0.984 . S
H1175 N1169 0.985 . S
H1176 N1173 0.984 . S
H1177 N1173 0.985 1_565 S
H1178 N1172 0.984 . S
H1179 N1172 0.984 . S
H1180 N1168 0.984 . S
H1181 N1168 0.985 . S
C1182 C1183 1.363 . S
C1182 C1188 1.379 . S
C1182 N1190 1.356 . S
C1183 C1182 1.363 . S
C1183 C1189 1.363 1_554 S
C1184 C1185 1.342 1_556 S
C1184 C1189 1.379 . S
C1184 N1191 1.356 . S
C1185 C1184 1.342 1_554 S
C1185 C1188 1.386 . S
N1186 C1188 1.356 . S
N1186 H1198 0.984 . S
N1186 H1199 0.985 . S
N1187 C1189 1.356 . S
N1187 H1192 0.984 . S
N1187 H1193 0.985 . S
C1188 C1182 1.379 . S
C1188 C1185 1.386 . S
C1188 N1186 1.356 . S
C1189 C1183 1.363 1_556 S
C1189 C1184 1.379 . S
C1189 N1187 1.356 . S
N1190 C1182 1.356 . S
N1190 H1196 0.984 . S
N1190 H1197 0.984 . S
N1191 C1184 1.356 . S
N1191 H1194 0.984 . S
N1191 H1195 0.985 . S
H1192 N1187 0.984 . S
H1193 N1187 0.985 . S
H1194 N1191 0.984 . S
H1195 N1191 0.985 . S
H1196 N1190 0.984 . S
H1197 N1190 0.984 . S
H1198 N1186 0.984 . S
H1199 N1186 0.985 . S
C337 C247 0.982 . S
C339 C8 0.989 . S
C355 C22 1.063 . S
C357 C233 0.982 . S
C373 C36 1.170 . S
C375 C275 1.154 . S
C391 C50 1.235 . S
C393 C261 1.132 . S
C409 C64 0.990 . S
C411 C303 0.982 . S
C427 C78 1.217 . S
C429 C317 1.197 . S
C445 C289 0.984 . S
C447 C92 1.060 . S
C463 C163 1.159 . S
C465 C106 1.250 . S
C481 C120 0.990 . S
C483 C51 0.982 . S
C499 C23 1.194 . S
C501 C134 1.218 . S
C517 C148 1.393 . S
C519 C9 1.365 . S
C535 C162 1.250 . S
C537 C205 1.159 . S
C553 C79 1.318 . S
C555 C176 1.425 . S
C571 C65 1.363 . S
C573 C190 1.395 . S
C589 C204 1.250 . S
C591 C107 1.159 . S
C607 C218 1.217 . S
C609 C93 1.197 . S
C625 C135 1.318 . S
C627 C232 1.425 . S
C643 C149 1.135 . S
C645 C246 1.233 . S
C661 C121 1.363 . S
C663 C260 1.395 . S
C679 C274 1.170 . S
C681 C331 1.154 . S
C697 C219 1.318 . S
C699 C288 1.425 . S
C715 C302 1.235 . S
C717 C191 1.132 . S
C733 C177 0.984 . S
C735 C316 1.060 . S
C751 C330 1.170 . S
C753 C37 1.154 . S
C769 C6 1.584 . S
C771 C20 1.553 . S
C787 C48 1.475 . S
C789 C34 1.501 . S
C805 C62 1.584 . S
C807 C90 1.553 . S
C823 C76 1.940 . S
C825 C104 1.903 . S
C841 C314 1.553 . S
C843 C118 1.584 . S
C859 C132 1.940 . S
C861 C160 1.903 . S
C877 C286 1.876 . S
C879 C146 1.910 . S
C895 C188 1.910 . S
C897 C174 1.876 . S
C913 C202 1.903 . S
C915 C216 1.940 . S
C931 C258 1.910 . S
C933 C230 1.876 . S
C949 C244 1.475 . S
C951 C272 1.501 . S
C967 C328 1.502 . S
C969 C300 1.474 . S
C985 C35 1.293 1_655 S
C987 C7 1.291 . S
C1003 C21 1.501 1_455 S
C1005 C49 1.502 1_455 S
C1021 C273 1.293 1_565 S
C1023 C63 1.291 . S
C1039 C77 1.446 . S
C1041 C259 1.455 . S
C1057 C91 1.501 1_545 S
C1059 C245 1.502 1_545 S
C1075 C231 1.666 . S
C1077 C105 1.660 . S
C1093 C119 1.291 . S
C1095 C329 1.293 1_556 S
C1111 C133 1.446 . S
C1113 C147 1.454 . S
C1129 C287 1.666 . S
C1131 C161 1.660 . S
C1147 C175 1.666 . S
C1149 C203 1.660 . S
C1165 C189 1.455 . S
C1167 C217 1.446 . S
C1183 C315 1.501 1_554 S
C1185 C301 1.502 1_554 S
