# Generated by pormake.
# Topology wmt, (6)-cn, num edge types: 1
# Building blocks:
#     Node 0, Type 0, BuildingBlock: CIFDUS_clean_sbu_1, # of connection points: 6
#     Node 1, Type 0, BuildingBlock: CIFDUS_clean_sbu_1, # of connection points: 6
#     Node 2, Type 0, BuildingBlock: CIFDUS_clean_sbu_1, # of connection points: 6
#     Node 3, Type 0, BuildingBlock: CIFDUS_clean_sbu_1, # of connection points: 6
#     Node 4, Type 0, BuildingBlock: CIFDUS_clean_sbu_1, # of connection points: 6
#     Node 5, Type 0, BuildingBlock: CIFDUS_clean_sbu_1, # of connection points: 6
#     Node 6, Type 0, BuildingBlock: CIFDUS_clean_sbu_1, # of connection points: 6
#     Node 7, Type 0, BuildingBlock: CIFDUS_clean_sbu_1, # of connection points: 6
#     Node 8, Type 0, BuildingBlock: CIFDUS_clean_sbu_1, # of connection points: 6
#     Node 9, Type 0, BuildingBlock: CIFDUS_clean_sbu_1, # of connection points: 6
#     Node 10, Type 0, BuildingBlock: CIFDUS_clean_sbu_1, # of connection points: 6
#     Node 11, Type 0, BuildingBlock: CIFDUS_clean_sbu_1, # of connection points: 6
#     Node 12, Type 0, BuildingBlock: CIFDUS_clean_sbu_1, # of connection points: 6
#     Node 13, Type 0, BuildingBlock: CIFDUS_clean_sbu_1, # of connection points: 6
#     Node 14, Type 0, BuildingBlock: CIFDUS_clean_sbu_1, # of connection points: 6
#     Node 15, Type 0, BuildingBlock: CIFDUS_clean_sbu_1, # of connection points: 6
#     Node 16, Type 0, BuildingBlock: CIFDUS_clean_sbu_1, # of connection points: 6
#     Node 17, Type 0, BuildingBlock: CIFDUS_clean_sbu_1, # of connection points: 6
#     Node 18, Type 0, BuildingBlock: CIFDUS_clean_sbu_1, # of connection points: 6
#     Node 19, Type 0, BuildingBlock: CIFDUS_clean_sbu_1, # of connection points: 6
#     Node 20, Type 0, BuildingBlock: CIFDUS_clean_sbu_1, # of connection points: 6
#     Node 21, Type 0, BuildingBlock: CIFDUS_clean_sbu_1, # of connection points: 6
#     Node 22, Type 0, BuildingBlock: CIFDUS_clean_sbu_1, # of connection points: 6
#     Node 23, Type 0, BuildingBlock: CIFDUS_clean_sbu_1, # of connection points: 6
#     Node 24, Type 0, BuildingBlock: CIFDUS_clean_sbu_1, # of connection points: 6
#     Node 25, Type 0, BuildingBlock: CIFDUS_clean_sbu_1, # of connection points: 6
#     Node 26, Type 0, BuildingBlock: CIFDUS_clean_sbu_1, # of connection points: 6
#     Node 27, Type 0, BuildingBlock: CIFDUS_clean_sbu_1, # of connection points: 6
#     Node 28, Type 0, BuildingBlock: CIFDUS_clean_sbu_1, # of connection points: 6
#     Node 29, Type 0, BuildingBlock: CIFDUS_clean_sbu_1, # of connection points: 6
#     Node 30, Type 0, BuildingBlock: CIFDUS_clean_sbu_1, # of connection points: 6
#     Node 31, Type 0, BuildingBlock: CIFDUS_clean_sbu_1, # of connection points: 6
#     Node 32, Type 0, BuildingBlock: CIFDUS_clean_sbu_1, # of connection points: 6
#     Node 33, Type 0, BuildingBlock: CIFDUS_clean_sbu_1, # of connection points: 6
#     Node 34, Type 0, BuildingBlock: CIFDUS_clean_sbu_1, # of connection points: 6
#     Node 35, Type 0, BuildingBlock: CIFDUS_clean_sbu_1, # of connection points: 6
#     Edge 36, Type (0, 0), None
#     Edge 37, Type (0, 0), None
#     Edge 38, Type (0, 0), None
#     Edge 39, Type (0, 0), None
#     Edge 40, Type (0, 0), None
#     Edge 41, Type (0, 0), None
#     Edge 42, Type (0, 0), None
#     Edge 43, Type (0, 0), None
#     Edge 44, Type (0, 0), None
#     Edge 45, Type (0, 0), None
#     Edge 46, Type (0, 0), None
#     Edge 47, Type (0, 0), None
#     Edge 48, Type (0, 0), None
#     Edge 49, Type (0, 0), None
#     Edge 50, Type (0, 0), None
#     Edge 51, Type (0, 0), None
#     Edge 52, Type (0, 0), None
#     Edge 53, Type (0, 0), None
#     Edge 54, Type (0, 0), None
#     Edge 55, Type (0, 0), None
#     Edge 56, Type (0, 0), None
#     Edge 57, Type (0, 0), None
#     Edge 58, Type (0, 0), None
#     Edge 59, Type (0, 0), None
#     Edge 60, Type (0, 0), None
#     Edge 61, Type (0, 0), None
#     Edge 62, Type (0, 0), None
#     Edge 63, Type (0, 0), None
#     Edge 64, Type (0, 0), None
#     Edge 65, Type (0, 0), None
#     Edge 66, Type (0, 0), None
#     Edge 67, Type (0, 0), None
#     Edge 68, Type (0, 0), None
#     Edge 69, Type (0, 0), None
#     Edge 70, Type (0, 0), None
#     Edge 71, Type (0, 0), None
#     Edge 72, Type (0, 0), None
#     Edge 73, Type (0, 0), None
#     Edge 74, Type (0, 0), None
#     Edge 75, Type (0, 0), None
#     Edge 76, Type (0, 0), None
#     Edge 77, Type (0, 0), None
#     Edge 78, Type (0, 0), None
#     Edge 79, Type (0, 0), None
#     Edge 80, Type (0, 0), None
#     Edge 81, Type (0, 0), None
#     Edge 82, Type (0, 0), None
#     Edge 83, Type (0, 0), None
#     Edge 84, Type (0, 0), None
#     Edge 85, Type (0, 0), None
#     Edge 86, Type (0, 0), None
#     Edge 87, Type (0, 0), None
#     Edge 88, Type (0, 0), None
#     Edge 89, Type (0, 0), None
#     Edge 90, Type (0, 0), None
#     Edge 91, Type (0, 0), None
#     Edge 92, Type (0, 0), None
#     Edge 93, Type (0, 0), None
#     Edge 94, Type (0, 0), None
#     Edge 95, Type (0, 0), None
#     Edge 96, Type (0, 0), None
#     Edge 97, Type (0, 0), None
#     Edge 98, Type (0, 0), None
#     Edge 99, Type (0, 0), None
#     Edge 100, Type (0, 0), None
#     Edge 101, Type (0, 0), None
#     Edge 102, Type (0, 0), None
#     Edge 103, Type (0, 0), None
#     Edge 104, Type (0, 0), None
#     Edge 105, Type (0, 0), None
#     Edge 106, Type (0, 0), None
#     Edge 107, Type (0, 0), None
#     Edge 108, Type (0, 0), None
#     Edge 109, Type (0, 0), None
#     Edge 110, Type (0, 0), None
#     Edge 111, Type (0, 0), None
#     Edge 112, Type (0, 0), None
#     Edge 113, Type (0, 0), None
#     Edge 114, Type (0, 0), None
#     Edge 115, Type (0, 0), None
#     Edge 116, Type (0, 0), None
#     Edge 117, Type (0, 0), None
#     Edge 118, Type (0, 0), None
#     Edge 119, Type (0, 0), None
#     Edge 120, Type (0, 0), None
#     Edge 121, Type (0, 0), None
#     Edge 122, Type (0, 0), None
#     Edge 123, Type (0, 0), None
#     Edge 124, Type (0, 0), None
#     Edge 125, Type (0, 0), None
#     Edge 126, Type (0, 0), None
#     Edge 127, Type (0, 0), None
#     Edge 128, Type (0, 0), None
#     Edge 129, Type (0, 0), None
#     Edge 130, Type (0, 0), None
#     Edge 131, Type (0, 0), None
#     Edge 132, Type (0, 0), None
#     Edge 133, Type (0, 0), None
#     Edge 134, Type (0, 0), None
#     Edge 135, Type (0, 0), None
#     Edge 136, Type (0, 0), None
#     Edge 137, Type (0, 0), None
#     Edge 138, Type (0, 0), None
#     Edge 139, Type (0, 0), None
#     Edge 140, Type (0, 0), None
#     Edge 141, Type (0, 0), None
#     Edge 142, Type (0, 0), None
#     Edge 143, Type (0, 0), None
# Relax obj value: 0.520
# Max RMSD: 0.249
# Mean RMSD: 0.248
data_MOF--net-wmt--node1-CIFDUS_clean_sbu_1--edge1-none
_symmetry_space_group_name_H-M    P1
_symmetry_Int_Tables_number       1
_symmetry_cell_setting            triclinic
loop_
_symmetry_equiv_pos_as_xyz
'x, y, z'
_cell_length_a     41.521647
_cell_length_b     41.521255
_cell_length_c     11.101727
_cell_angle_alpha  89.99895
_cell_angle_beta   90.002211
_cell_angle_gamma 120.00127
loop_
_atom_site_label
_atom_site_type_symbol
_atom_site_fract_x
_atom_site_fract_y
_atom_site_fract_z
_atom_type_partial_charge
O0 O 0.01077 0.43627 0.17822 0.0
Mn1 Mn 0.05417 0.47637 0.05067 0.0
O2 O 0.04134 0.42671 0.32755 0.0
Mn3 Mn 0.09121 0.45902 0.2605 0.0
O4 O 0.09344 0.51987 0.93576 0.0
O5 O 0.02926 0.50137 1.00299 0.0
Mn6 Mn 0.00798 0.47752 0.88279 0.0
O7 O 0.03342 0.43406 0.90948 0.0
O8 O 0.05241 0.49705 0.79085 0.0
O9 O 0.07337 0.51625 0.17567 0.0
O10 O 0.10535 0.50906 0.32042 0.0
O11 O 0.98105 0.49955 0.92972 0.0
O12 O 0.98243 0.42862 0.94388 0.0
C13 C 0.10697 0.44931 0.06023 0.0
C14 C 0.01021 0.42224 0.28504 0.0
C15 C 0.0825 0.52421 0.83149 0.0
C16 C 0.00044 0.50218 1.02254 0.0
C17 C -0.00172 0.41486 0.88933 0.0
C18 C 0.09176 0.52799 0.27156 0.0
O19 O 0.08554 0.45996 0.09923 0.0
O20 O 0.12047 0.44329 0.15714 0.0
O21 O 0.54967 0.57169 0.17821 0.0
Mn22 Mn 0.50956 0.57499 0.05064 0.0
O23 O 0.55922 0.61183 0.32753 0.0
Mn24 Mn 0.5269 0.62937 0.26047 0.0
O25 O 0.46606 0.57075 0.93572 0.0
O26 O 0.48457 0.52508 1.00297 0.0
Mn27 Mn 0.50842 0.52766 0.88277 0.0
O28 O 0.55187 0.59655 0.90946 0.0
O29 O 0.48889 0.55254 0.79082 0.0
O30 O 0.46968 0.5543 0.17564 0.0
O31 O 0.47686 0.59347 0.32038 0.0
O32 O 0.48639 0.47868 0.92971 0.0
O33 O 0.55731 0.551 0.94387 0.0
C34 C 0.53657 0.65485 0.06021 0.0
C35 C 0.56369 0.58517 0.28503 0.0
C36 C 0.46173 0.55548 0.83145 0.0
C37 C 0.48376 0.49545 1.02252 0.0
C38 C 0.57107 0.58061 0.88932 0.0
C39 C 0.45794 0.56094 0.27153 0.0
O40 O 0.52597 0.62277 0.0992 0.0
O41 O 0.54257 0.67436 0.15711 0.0
O42 O 0.41426 0.97518 0.17824 0.0
Mn43 Mn 0.41095 0.93177 0.05068 0.0
O44 O 0.37412 0.94461 0.32756 0.0
Mn45 Mn 0.35656 0.89474 0.26051 0.0
O46 O 0.41518 0.89251 0.93576 0.0
O47 O 0.46086 0.95668 1.00299 0.0
Mn48 Mn 0.45829 0.97796 0.88279 0.0
O49 O 0.38939 0.95253 0.9095 0.0
O50 O 0.43339 0.93354 0.79085 0.0
O51 O 0.43164 0.91258 0.17568 0.0
O52 O 0.39246 0.8806 0.32043 0.0
O53 O 0.50726 0.0049 0.92973 0.0
O54 O 0.43496 0.00352 0.9439 0.0
C55 C 0.33109 0.87897 0.06024 0.0
C56 C 0.40078 0.97574 0.28505 0.0
C57 C 0.43045 0.90344 0.83149 0.0
C58 C 0.4905 0.9855 1.02254 0.0
C59 C 0.40534 0.98767 0.88935 0.0
C60 C 0.42498 0.89419 0.27157 0.0
O61 O 0.36317 0.9004 0.09924 0.0
O62 O 0.31157 0.86547 0.15714 0.0
O63 O 0.43345 0.01359 0.47326 0.0
Mn64 Mn 0.47355 0.05699 0.60083 0.0
O65 O 0.4239 0.04416 0.32392 0.0
Mn66 Mn 0.4562 0.09403 0.39099 0.0
O67 O 0.51704 0.09625 0.71576 0.0
O68 O 0.49852 0.03206 0.64852 0.0
Mn69 Mn 0.47468 0.01077 0.76871 0.0
O70 O 0.43124 0.03624 0.742 0.0
O71 O 0.49421 0.0552 0.86064 0.0
O72 O 0.51343 0.07619 0.47583 0.0
O73 O 0.50624 0.10818 0.33108 0.0
O74 O 0.49674 0.98386 0.72175 0.0
O75 O 0.42579 0.98518 0.70757 0.0
C76 C 0.44649 0.10979 0.59125 0.0
C77 C 0.41943 0.01303 0.36643 0.0
C78 C 0.52137 0.0853 0.82001 0.0
C79 C 0.49936 0.00325 0.62895 0.0
C80 C 0.41206 0.00109 0.76199 0.0
C81 C 0.52517 0.09458 0.37994 0.0
O82 O 0.45715 0.08837 0.55226 0.0
O83 O 0.44047 0.12329 0.49435 0.0
O84 O 0.97236 0.41705 0.47325 0.0
Mn85 Mn 0.92895 0.41374 0.60081 0.0
O86 O 0.94178 0.37692 0.32391 0.0
Mn87 Mn 0.89192 0.35936 0.39097 0.0
O88 O 0.8897 0.41798 0.71574 0.0
O89 O 0.95389 0.46366 0.64851 0.0
Mn90 Mn 0.97518 0.4611 0.7687 0.0
O91 O 0.94971 0.39219 0.74199 0.0
O92 O 0.93075 0.4362 0.86062 0.0
O93 O 0.90975 0.43443 0.47581 0.0
O94 O 0.87777 0.39525 0.33106 0.0
O95 O 0.00208 0.51008 0.72174 0.0
O96 O 0.00076 0.4378 0.70756 0.0
C97 C 0.87615 0.33388 0.59123 0.0
C98 C 0.97291 0.40359 0.36642 0.0
C99 C 0.90065 0.43326 0.81999 0.0
C100 C 0.98269 0.4933 0.62894 0.0
C101 C 0.98485 0.40816 0.76197 0.0
C102 C 0.89136 0.42777 0.37992 0.0
O103 O 0.89758 0.36597 0.55224 0.0
O104 O 0.86266 0.31436 0.49433 0.0
O105 O 0.56888 0.5525 0.47324 0.0
Mn106 Mn 0.57219 0.5124 0.60081 0.0
O107 O 0.60901 0.56206 0.32391 0.0
Mn108 Mn 0.62658 0.52976 0.39096 0.0
O109 O 0.56796 0.46891 0.71574 0.0
O110 O 0.52228 0.48742 0.6485 0.0
Mn111 Mn 0.52483 0.51126 0.76869 0.0
O112 O 0.59375 0.55471 0.74198 0.0
O113 O 0.54974 0.49174 0.86062 0.0
O114 O 0.55151 0.47252 0.47581 0.0
O115 O 0.59068 0.47972 0.33106 0.0
O116 O 0.47586 0.48919 0.72173 0.0
O117 O 0.54814 0.56015 0.70754 0.0
C118 C 0.65205 0.53946 0.59123 0.0
C119 C 0.58235 0.56653 0.36641 0.0
C120 C 0.55268 0.46458 0.81999 0.0
C121 C 0.49264 0.48658 0.62893 0.0
C122 C 0.57777 0.57389 0.76196 0.0
C123 C 0.55816 0.46078 0.37992 0.0
O124 O 0.61997 0.52881 0.55223 0.0
O125 O 0.67157 0.54548 0.49432 0.0
O126 O 0.97237 0.55248 0.97325 0.0
Mn127 Mn 0.92896 0.51238 0.10081 0.0
O128 O 0.9418 0.56205 0.82393 0.0
Mn129 Mn 0.89193 0.52974 0.89097 0.0
O130 O 0.88969 0.46888 0.21573 0.0
O131 O 0.95386 0.48736 0.14847 0.0
Mn132 Mn 0.97516 0.51123 0.26865 0.0
O133 O 0.94971 0.55468 0.242 0.0
O134 O 0.93074 0.4917 0.36064 0.0
O135 O 0.90978 0.4725 0.97582 0.0
O136 O 0.87779 0.4797 0.83104 0.0
O137 O 0.00212 0.48921 0.22181 0.0
O138 O 0.00071 0.56013 0.20758 0.0
C139 C 0.87617 0.53945 0.09123 0.0
C140 C 0.97293 0.56651 0.86644 0.0
C141 C 0.90065 0.46455 0.31997 0.0
C142 C 0.98272 0.4866 0.12905 0.0
C143 C 0.98485 0.57389 0.26214 0.0
C144 C 0.89139 0.46078 0.87991 0.0
O145 O 0.89759 0.52879 0.05224 0.0
O146 O 0.86266 0.54546 0.99433 0.0
O147 O 0.43346 0.41707 0.97324 0.0
Mn148 Mn 0.47356 0.41377 0.10081 0.0
O149 O 0.42389 0.37693 0.82392 0.0
Mn150 Mn 0.4562 0.35938 0.89097 0.0
O151 O 0.51706 0.418 0.21573 0.0
O152 O 0.49858 0.46369 0.14847 0.0
Mn153 Mn 0.47471 0.46111 0.26864 0.0
O154 O 0.43126 0.39221 0.24199 0.0
O155 O 0.49424 0.43623 0.36063 0.0
O156 O 0.51344 0.43446 0.97581 0.0
O157 O 0.50624 0.39528 0.83104 0.0
O158 O 0.49672 0.5101 0.2218 0.0
O159 O 0.42581 0.43776 0.20756 0.0
C160 C 0.4465 0.3339 0.09124 0.0
C161 C 0.41943 0.40359 0.86643 0.0
C162 C 0.52139 0.43328 0.31998 0.0
C163 C 0.49934 0.4933 0.12904 0.0
C164 C 0.41205 0.40815 0.26213 0.0
C165 C 0.52516 0.4278 0.87991 0.0
O166 O 0.45715 0.36599 0.05224 0.0
O167 O 0.44048 0.31439 0.99434 0.0
O168 O 0.56887 0.01358 0.97327 0.0
Mn169 Mn 0.57218 0.05699 0.10083 0.0
O170 O 0.609 0.04415 0.82395 0.0
Mn171 Mn 0.62657 0.09402 0.89099 0.0
O172 O 0.56795 0.09626 0.21575 0.0
O173 O 0.52226 0.03208 0.14848 0.0
Mn174 Mn 0.52483 0.01079 0.26866 0.0
O175 O 0.59373 0.03624 0.24203 0.0
O176 O 0.54972 0.0552 0.36065 0.0
O177 O 0.55149 0.07617 0.97583 0.0
O178 O 0.59067 0.10816 0.83106 0.0
O179 O 0.47585 0.98382 0.22181 0.0
O180 O 0.54818 0.98524 0.2076 0.0
C181 C 0.65204 0.10978 0.09125 0.0
C182 C 0.58234 0.01302 0.86646 0.0
C183 C 0.55267 0.0853 0.31999 0.0
C184 C 0.49264 0.00323 0.12905 0.0
C185 C 0.57779 0.00109 0.26218 0.0
C186 C 0.55815 0.09455 0.87993 0.0
O187 O 0.61996 0.08835 0.05226 0.0
O188 O 0.67156 0.12328 0.99435 0.0
O189 O 0.54967 0.97517 0.67826 0.0
Mn190 Mn 0.50957 0.93177 0.55068 0.0
O191 O 0.55923 0.9446 0.82758 0.0
Mn192 Mn 0.52692 0.89473 0.76052 0.0
O193 O 0.46609 0.89251 0.43575 0.0
O194 O 0.48458 0.95669 0.503 0.0
Mn195 Mn 0.50844 0.978 0.38284 0.0
O196 O 0.55188 0.95252 0.40952 0.0
O197 O 0.48892 0.93358 0.29087 0.0
O198 O 0.46969 0.91258 0.67567 0.0
O199 O 0.47689 0.88059 0.82043 0.0
O200 O 0.48639 0.00494 0.42968 0.0
O201 O 0.55734 0.00358 0.44397 0.0
C202 C 0.53662 0.87898 0.56022 0.0
C203 C 0.56369 0.97572 0.78508 0.0
C204 C 0.46176 0.90348 0.33151 0.0
C205 C 0.48379 0.98553 0.52243 0.0
C206 C 0.57106 0.98767 0.38954 0.0
C207 C 0.45797 0.89419 0.77157 0.0
O208 O 0.52597 0.9004 0.59926 0.0
O209 O 0.54264 0.86547 0.6571 0.0
O210 O 0.01078 0.5717 0.67824 0.0
Mn211 Mn 0.05418 0.575 0.55066 0.0
O212 O 0.04135 0.61183 0.82756 0.0
Mn213 Mn 0.09122 0.6294 0.76051 0.0
O214 O 0.09344 0.57078 0.43573 0.0
O215 O 0.02926 0.52509 0.503 0.0
Mn216 Mn 0.00795 0.52764 0.38283 0.0
O217 O 0.03343 0.59656 0.40948 0.0
O218 O 0.05237 0.55253 0.29086 0.0
O219 O 0.07337 0.55432 0.67566 0.0
O220 O 0.10536 0.5935 0.82043 0.0
O221 O 0.98101 0.47865 0.42968 0.0
O222 O 0.98237 0.55095 0.44394 0.0
C223 C 0.10698 0.65487 0.56023 0.0
C224 C 0.01022 0.58516 0.78506 0.0
C225 C 0.08247 0.55548 0.33151 0.0
C226 C 0.00042 0.49546 0.52243 0.0
C227 C -0.00172 0.58059 0.3895 0.0
C228 C 0.09176 0.56098 0.77156 0.0
O229 O 0.08555 0.62278 0.59923 0.0
O230 O 0.12048 0.67439 0.65713 0.0
O231 O 0.41424 0.43626 0.67822 0.0
Mn232 Mn 0.41093 0.47635 0.55064 0.0
O233 O 0.37411 0.4267 0.82755 0.0
Mn234 Mn 0.35654 0.459 0.76049 0.0
O235 O 0.41515 0.51984 0.43569 0.0
O236 O 0.46085 0.50135 0.50297 0.0
Mn237 Mn 0.4583 0.47749 0.38282 0.0
O238 O 0.38938 0.43405 0.40947 0.0
O239 O 0.4334 0.49701 0.29083 0.0
O240 O 0.43162 0.51624 0.67563 0.0
O241 O 0.39244 0.50904 0.8204 0.0
O242 O 0.50728 0.49955 0.42967 0.0
O243 O 0.43499 0.4286 0.44393 0.0
C244 C 0.33107 0.44929 0.56022 0.0
C245 C 0.40077 0.42224 0.78505 0.0
C246 C 0.43045 0.52416 0.33147 0.0
C247 C 0.49048 0.50214 0.52242 0.0
C248 C 0.40535 0.41487 0.38949 0.0
C249 C 0.42496 0.52796 0.77153 0.0
O250 O 0.36315 0.45994 0.59922 0.0
O251 O 0.31155 0.44327 0.65712 0.0
O252 O 0.67732 0.76956 0.51151 0.0
Mn253 Mn 0.72073 0.80965 0.38395 0.0
O254 O 0.70789 0.76 0.66086 0.0
Mn255 Mn 0.75776 0.79229 0.59379 0.0
O256 O 0.76 0.85314 0.26904 0.0
O257 O 0.69583 0.83466 0.33631 0.0
Mn258 Mn 0.67454 0.81082 0.2161 0.0
O259 O 0.69996 0.76734 0.24275 0.0
O260 O 0.71896 0.83034 0.12414 0.0
O261 O 0.73994 0.84953 0.50896 0.0
O262 O 0.77191 0.84233 0.6537 0.0
O263 O 0.64762 0.83286 0.26306 0.0
O264 O 0.64897 0.76192 0.27718 0.0
C265 C 0.77354 0.78258 0.39354 0.0
C266 C 0.67676 0.75554 0.61835 0.0
C267 C 0.74907 0.85749 0.16478 0.0
C268 C 0.66701 0.83548 0.35587 0.0
C269 C 0.66482 0.74816 0.2226 0.0
C270 C 0.75833 0.86127 0.60485 0.0
O271 O 0.75209 0.79322 0.43251 0.0
O272 O 0.78704 0.77658 0.49046 0.0
O273 O 0.21635 0.90502 0.51155 0.0
Mn274 Mn 0.17625 0.90832 0.38398 0.0
O275 O 0.22591 0.94515 0.66087 0.0
Mn276 Mn 0.1936 0.96271 0.59382 0.0
O277 O 0.13275 0.90409 0.26906 0.0
O278 O 0.15125 0.85841 0.3363 0.0
Mn279 Mn 0.1751 0.86099 0.2161 0.0
O280 O 0.21856 0.92988 0.2428 0.0
O281 O 0.15557 0.88588 0.12416 0.0
O282 O 0.13637 0.88763 0.50898 0.0
O283 O 0.14356 0.92681 0.65373 0.0
O284 O 0.15306 0.81201 0.26305 0.0
O285 O 0.22399 0.88432 0.27721 0.0
C286 C 0.20331 0.98818 0.39356 0.0
C287 C 0.23038 0.91849 0.61836 0.0
C288 C 0.12841 0.88882 0.16479 0.0
C289 C 0.15043 0.82878 0.35586 0.0
C290 C 0.23775 0.91394 0.22266 0.0
C291 C 0.12463 0.89429 0.60487 0.0
O292 O 0.19266 0.9561 0.43255 0.0
O293 O 0.20933 0.0077 0.49046 0.0
O294 O 0.08092 0.30851 0.51154 0.0
Mn295 Mn 0.07762 0.2651 0.38398 0.0
O296 O 0.04079 0.27794 0.66087 0.0
Mn297 Mn 0.02323 0.22807 0.59382 0.0
O298 O 0.08185 0.22584 0.26907 0.0
O299 O 0.12753 0.29002 0.33631 0.0
Mn300 Mn 0.12495 0.31129 0.21611 0.0
O301 O 0.05606 0.28585 0.2428 0.0
O302 O 0.10007 0.26687 0.12416 0.0
O303 O 0.09831 0.24591 0.50899 0.0
O304 O 0.05913 0.21393 0.65374 0.0
O305 O 0.17393 0.33823 0.26305 0.0
O306 O 0.10162 0.33685 0.2772 0.0
C307 C -0.00224 0.2123 0.39356 0.0
C308 C 0.06745 0.30907 0.61836 0.0
C309 C 0.09713 0.23677 0.1648 0.0
C310 C 0.15716 0.31884 0.35586 0.0
C311 C 0.072 0.321 0.22265 0.0
C312 C 0.09165 0.22752 0.60488 0.0
O313 O 0.02984 0.23373 0.43255 0.0
O314 O 0.97824 0.1988 0.49046 0.0
O315 O 0.10012 0.34692 0.80657 0.0
Mn316 Mn 0.14022 0.39032 0.93414 0.0
O317 O 0.09057 0.3775 0.65723 0.0
Mn318 Mn 0.12287 0.42736 0.7243 0.0
O319 O 0.18371 0.42958 0.04907 0.0
O320 O 0.16519 0.36539 0.98183 0.0
Mn321 Mn 0.14135 0.3441 0.10202 0.0
O322 O 0.09791 0.36957 0.07531 0.0
O323 O 0.16088 0.38853 0.19395 0.0
O324 O 0.1801 0.40952 0.80914 0.0
O325 O 0.17291 0.44151 0.6644 0.0
O326 O 0.16342 0.31719 0.05507 0.0
O327 O 0.09246 0.31851 1.04088 0.0
C328 C 0.11314 0.44311 0.92456 0.0
C329 C 0.0861 0.34637 0.69974 0.0
C330 C 0.18804 0.41863 0.15332 0.0
C331 C 0.16603 0.33658 0.96227 0.0
C332 C 0.07873 0.33442 0.09529 0.0
C333 C 0.19184 0.42791 0.71325 0.0
O334 O 0.12381 0.4217 0.88558 0.0
O335 O 0.10714 0.45663 0.82766 0.0
O336 O 0.63891 0.75038 0.80654 0.0
Mn337 Mn 0.5955 0.74708 0.93411 0.0
O338 O 0.60833 0.71024 0.65722 0.0
Mn339 Mn 0.55847 0.69269 0.72427 0.0
O340 O 0.55626 0.75133 0.04904 0.0
O341 O 0.62045 0.79699 0.98183 0.0
Mn342 Mn 0.64174 0.79443 0.10201 0.0
O343 O 0.61625 0.72551 0.07526 0.0
O344 O 0.5973 0.76952 0.19392 0.0
O345 O 0.57631 0.76778 0.80912 0.0
O346 O 0.54434 0.7286 0.66435 0.0
O347 O 0.66865 0.84341 0.05508 0.0
O348 O 0.66731 0.77111 1.04085 0.0
C349 C 0.54273 0.66721 0.92454 0.0
C350 C 0.63946 0.7369 0.69972 0.0
C351 C 0.56721 0.7666 0.1533 0.0
C352 C 0.64926 0.82664 0.96227 0.0
C353 C 0.65139 0.74147 0.09524 0.0
C354 C 0.55793 0.76113 0.71321 0.0
O355 O 0.56412 0.69931 0.88554 0.0
O356 O 0.52924 0.64769 0.82763 0.0
O357 O 0.23556 0.88582 0.80657 0.0
Mn358 Mn 0.23887 0.84572 0.93415 0.0
O359 O 0.27569 0.89537 0.65724 0.0
Mn360 Mn 0.29325 0.86307 0.72431 0.0
O361 O 0.23463 0.80223 0.04908 0.0
O362 O 0.18896 0.82074 0.98183 0.0
Mn363 Mn 0.19151 0.84459 0.10202 0.0
O364 O 0.26043 0.88803 0.07532 0.0
O365 O 0.21641 0.82506 0.19395 0.0
O366 O 0.21818 0.80584 0.80914 0.0
O367 O 0.25736 0.81303 0.66441 0.0
O368 O 0.14253 0.82252 0.05506 0.0
O369 O 0.21482 0.89348 1.04088 0.0
C370 C 0.31873 0.8728 0.92457 0.0
C371 C 0.24903 0.89984 0.69974 0.0
C372 C 0.21935 0.7979 0.15333 0.0
C373 C 0.15931 0.81991 0.96226 0.0
C374 C 0.24445 0.90721 0.0953 0.0
C375 C 0.22483 0.7941 0.71326 0.0
O376 O 0.28664 0.86213 0.88558 0.0
O377 O 0.33825 0.8788 0.82768 0.0
O378 O 0.63899 0.88582 0.30653 0.0
Mn379 Mn 0.59557 0.84573 0.4341 0.0
O380 O 0.60843 0.89541 0.15722 0.0
Mn381 Mn 0.55856 0.86312 0.22425 0.0
O382 O 0.55628 0.80225 0.549 0.0
O383 O 0.62045 0.82069 0.48179 0.0
Mn384 Mn 0.64175 0.84456 0.60196 0.0
O385 O 0.61634 0.88804 0.57527 0.0
O386 O 0.59733 0.82506 0.69393 0.0
O387 O 0.57637 0.80586 0.3091 0.0
O388 O 0.5444 0.81307 0.16433 0.0
O389 O 0.66869 0.82251 0.55515 0.0
O390 O 0.66732 0.89345 0.54086 0.0
C391 C 0.54281 0.87283 0.42454 0.0
C392 C 0.63955 0.89987 0.19973 0.0
C393 C 0.56723 0.79791 0.65326 0.0
C394 C 0.64929 0.81991 0.46238 0.0
C395 C 0.65148 0.90723 0.59541 0.0
C396 C 0.55798 0.79414 0.2132 0.0
O397 O 0.56424 0.86217 0.38551 0.0
O398 O 0.52929 0.87883 0.32766 0.0
O399 O 0.10013 0.7504 0.30657 0.0
Mn400 Mn 0.14023 0.74709 0.43414 0.0
O401 O 0.09056 0.71026 0.15725 0.0
Mn402 Mn 0.12287 0.6927 0.2243 0.0
O403 O 0.18372 0.75132 0.54907 0.0
O404 O 0.16525 0.79701 0.4818 0.0
Mn405 Mn 0.14138 0.79444 0.60197 0.0
O406 O 0.09792 0.72554 0.57533 0.0
O407 O 0.16091 0.76956 0.69397 0.0
O408 O 0.18011 0.76779 0.30915 0.0
O409 O 0.17291 0.7286 0.16438 0.0
O410 O 0.1634 0.84342 0.55513 0.0
O411 O 0.09248 0.7711 0.54089 0.0
C412 C 0.11314 0.66723 0.42456 0.0
C413 C 0.0861 0.73693 0.19976 0.0
C414 C 0.18805 0.7666 0.65331 0.0
C415 C 0.16601 0.82663 0.46237 0.0
C416 C 0.07872 0.74148 0.59546 0.0
C417 C 0.19183 0.76112 0.21325 0.0
O418 O 0.12381 0.69931 0.38557 0.0
O419 O 0.10715 0.64771 0.32767 0.0
O420 O 0.23554 0.34691 0.30658 0.0
Mn421 Mn 0.23884 0.39031 0.43414 0.0
O422 O 0.27567 0.37748 0.15725 0.0
Mn423 Mn 0.29323 0.42734 0.2243 0.0
O424 O 0.23462 0.42958 0.54906 0.0
O425 O 0.18893 0.36541 0.4818 0.0
Mn426 Mn 0.1915 0.34412 0.60197 0.0
O427 O 0.2604 0.36956 0.57533 0.0
O428 O 0.21638 0.38853 0.69397 0.0
O429 O 0.21815 0.4095 0.30914 0.0
O430 O 0.25733 0.44148 0.16437 0.0
O431 O 0.14252 0.31715 0.55513 0.0
O432 O 0.21484 0.31857 0.5409 0.0
C433 C 0.31871 0.4431 0.42456 0.0
C434 C 0.24901 0.34635 0.19976 0.0
C435 C 0.21933 0.41863 0.65331 0.0
C436 C 0.15931 0.33656 0.46237 0.0
C437 C 0.24446 0.33442 0.59547 0.0
C438 C 0.22481 0.42788 0.21324 0.0
O439 O 0.28662 0.42168 0.38556 0.0
O440 O 0.33822 0.45661 0.32766 0.0
O441 O 0.21634 0.3085 1.01156 0.0
Mn442 Mn 0.17625 0.26509 0.88398 0.0
O443 O 0.2259 0.27792 0.16089 0.0
Mn444 Mn 0.1936 0.22806 0.09383 0.0
O445 O 0.13276 0.22583 0.76905 0.0
O446 O 0.15125 0.29002 0.83631 0.0
Mn447 Mn 0.17511 0.31133 0.71615 0.0
O448 O 0.21855 0.28585 0.74281 0.0
O449 O 0.15559 0.26691 0.62418 0.0
O450 O 0.13637 0.2459 1.00898 0.0
O451 O 0.14356 0.21391 0.15374 0.0
O452 O 0.15306 0.33826 0.76301 0.0
O453 O 0.22401 0.3369 0.77727 0.0
C454 C 0.20331 0.2123 0.89356 0.0
C455 C 0.23036 0.30905 0.11839 0.0
C456 C 0.12843 0.2368 0.66482 0.0
C457 C 0.15046 0.31886 0.85576 0.0
C458 C 0.23773 0.32099 0.72283 0.0
C459 C 0.12464 0.22752 0.10488 0.0
O460 O 0.19265 0.23372 0.93255 0.0
O461 O 0.20933 0.1988 0.99046 0.0
O462 O 0.6774 0.90504 1.01151 0.0
Mn463 Mn 0.72079 0.90832 0.88395 0.0
O464 O 0.70799 0.94516 0.16086 0.0
Mn465 Mn 0.75785 0.96271 0.09379 0.0
O466 O 0.76003 0.90406 0.76902 0.0
O467 O 0.69583 0.8584 0.83632 0.0
Mn468 Mn 0.67453 0.86096 0.71615 0.0
O469 O 0.70006 0.92989 0.74275 0.0
O470 O 0.71895 0.88582 0.62416 0.0
O471 O 0.73996 0.88761 1.00896 0.0
O472 O 0.77197 0.92679 0.15371 0.0
O473 O 0.64757 0.81198 0.76302 0.0
O474 O 0.64898 0.88431 0.77723 0.0
C475 C 0.77362 0.98818 0.89353 0.0
C476 C 0.67685 0.91851 0.11835 0.0
C477 C 0.74905 0.88876 0.6648 0.0
C478 C 0.66698 0.82878 0.85576 0.0
C479 C 0.66491 0.91394 0.72277 0.0
C480 C 0.75835 0.89427 0.10485 0.0
O481 O 0.75218 0.9561 0.93252 0.0
O482 O 0.78713 0.0077 0.99044 0.0
O483 O 0.08092 0.7696 1.01155 0.0
Mn484 Mn 0.07761 0.80969 0.88397 0.0
O485 O 0.04078 0.76004 0.16088 0.0
Mn486 Mn 0.02322 0.79234 0.09382 0.0
O487 O 0.08184 0.85318 0.76903 0.0
O488 O 0.12753 0.83469 0.83631 0.0
Mn489 Mn 0.12498 0.81083 0.71614 0.0
O490 O 0.05605 0.76739 0.7428 0.0
O491 O 0.10008 0.83035 0.62417 0.0
O492 O 0.0983 0.84957 1.00897 0.0
O493 O 0.05912 0.84238 0.15373 0.0
O494 O 0.17396 0.83288 0.76301 0.0
O495 O 0.10166 0.76193 0.77726 0.0
C496 C -0.00226 0.78263 0.89356 0.0
C497 C 0.06745 0.75557 0.11838 0.0
C498 C 0.09713 0.85751 0.66481 0.0
C499 C 0.15715 0.83548 0.85575 0.0
C500 C 0.07202 0.74821 0.72282 0.0
C501 C 0.09164 0.8613 0.10487 0.0
O502 O 0.02983 0.79329 0.93255 0.0
O503 O 0.97823 0.77661 0.99046 0.0
O504 O 0.3441 0.10294 0.84489 0.0
Mn505 Mn 0.38751 0.14304 0.71733 0.0
O506 O 0.37468 0.09338 0.99422 0.0
Mn507 Mn 0.42454 0.12568 0.92717 0.0
O508 O 0.42678 0.18654 0.60242 0.0
O509 O 0.3626 0.16804 0.66965 0.0
Mn510 Mn 0.34132 0.14419 0.54945 0.0
O511 O 0.36676 0.10073 0.57615 0.0
O512 O 0.38574 0.16372 0.45751 0.0
O513 O 0.4067 0.18292 0.84234 0.0
O514 O 0.43868 0.17573 0.98709 0.0
O515 O 0.31438 0.16622 0.59639 0.0
O516 O 0.31576 0.09529 0.61055 0.0
C517 C 0.4403 0.11596 0.72692 0.0
C518 C 0.34355 0.08891 0.95171 0.0
C519 C 0.41584 0.19087 0.49815 0.0
C520 C 0.33378 0.16885 0.6892 0.0
C521 C 0.33162 0.08153 0.556 0.0
C522 C 0.42509 0.19466 0.93823 0.0
O523 O 0.41888 0.12663 0.76591 0.0
O524 O 0.45381 0.10996 0.82382 0.0
O525 O 0.88301 0.23835 0.84488 0.0
Mn526 Mn 0.84291 0.24165 0.71731 0.0
O527 O 0.89257 0.27848 0.99421 0.0
Mn528 Mn 0.86026 0.29604 0.92715 0.0
O529 O 0.79942 0.23742 0.60239 0.0
O530 O 0.81791 0.19174 0.66963 0.0
Mn531 Mn 0.84176 0.19432 0.54943 0.0
O532 O 0.88522 0.26321 0.57614 0.0
O533 O 0.82223 0.21921 0.45748 0.0
O534 O 0.80303 0.22096 0.84231 0.0
O535 O 0.81022 0.26014 0.98706 0.0
O536 O 0.81972 0.14534 0.59637 0.0
O537 O 0.89065 0.21765 0.61054 0.0
C538 C 0.86999 0.32152 0.7269 0.0
C539 C 0.89704 0.25182 0.95169 0.0
C540 C 0.79508 0.22215 0.49812 0.0
C541 C 0.8171 0.16211 0.68918 0.0
C542 C 0.90442 0.24727 0.55599 0.0
C543 C 0.79129 0.22762 0.9382 0.0
O544 O 0.85933 0.28943 0.76588 0.0
O545 O 0.87599 0.34103 0.8238 0.0
O546 O 0.74759 0.64184 0.84488 0.0
Mn547 Mn 0.74428 0.59843 0.71731 0.0
O548 O 0.70745 0.61126 0.99421 0.0
Mn549 Mn 0.6899 0.5614 0.92715 0.0
O550 O 0.74852 0.55917 0.6024 0.0
O551 O 0.7942 0.62335 0.66964 0.0
Mn552 Mn 0.79162 0.64462 0.54943 0.0
O553 O 0.72273 0.61918 0.57614 0.0
O554 O 0.76673 0.6002 0.45749 0.0
O555 O 0.76497 0.57924 0.84232 0.0
O556 O 0.7258 0.54726 0.98706 0.0
O557 O 0.84059 0.67156 0.59638 0.0
O558 O 0.76829 0.67018 0.61054 0.0
C559 C 0.66442 0.54565 0.72689 0.0
C560 C 0.73411 0.64239 0.9517 0.0
C561 C 0.76379 0.57011 0.49813 0.0
C562 C 0.82383 0.65217 0.68919 0.0
C563 C 0.73867 0.65433 0.55599 0.0
C564 C 0.75832 0.56085 0.93821 0.0
O565 O 0.6965 0.56706 0.76588 0.0
O566 O 0.6449 0.53214 0.82379 0.0
O567 O 0.76678 0.68025 0.13991 0.0
Mn568 Mn 0.80687 0.72366 0.26748 0.0
O569 O 0.75722 0.71081 0.99056 0.0
Mn570 Mn 0.7895 0.76068 0.05764 0.0
O571 O 0.85037 0.76291 0.38241 0.0
O572 O 0.83185 0.69872 0.31516 0.0
Mn573 Mn 0.80801 0.67743 0.43535 0.0
O574 O 0.76457 0.7029 0.40865 0.0
O575 O 0.82754 0.72186 0.52728 0.0
O576 O 0.84675 0.74286 0.14247 0.0
O577 O 0.83955 0.77483 0.99773 0.0
O578 O 0.83008 0.65053 0.38839 0.0
O579 O 0.75912 0.65184 0.37422 0.0
C580 C 0.77974 0.77641 0.25788 0.0
C581 C 0.75276 0.67969 1.03308 0.0
C582 C 0.8547 0.75196 0.48665 0.0
C583 C 0.83269 0.66992 0.29559 0.0
C584 C 0.74539 0.66775 0.42863 0.0
C585 C 0.85849 0.76125 0.04658 0.0
O586 O 0.79047 0.75503 0.21892 0.0
O587 O 0.77372 0.7899 0.16097 0.0
O588 O 0.30569 0.08372 0.13991 0.0
Mn589 Mn 0.26229 0.08041 0.26748 0.0
O590 O 0.27512 0.04359 0.99057 0.0
Mn591 Mn 0.22525 0.02603 0.05764 0.0
O592 O 0.22304 0.08465 0.38241 0.0
O593 O 0.28723 0.13033 0.31517 0.0
Mn594 Mn 0.30852 0.12777 0.43536 0.0
O595 O 0.28304 0.05886 0.40865 0.0
O596 O 0.26409 0.10287 0.52728 0.0
O597 O 0.24309 0.1011 0.14248 0.0
O598 O 0.21111 0.06192 0.99773 0.0
O599 O 0.33542 0.17675 0.38841 0.0
O600 O 0.3341 0.10447 0.37422 0.0
C601 C 0.2095 0.00055 0.25789 0.0
C602 C 0.30625 0.07025 1.03308 0.0
C603 C 0.23399 0.09993 0.48666 0.0
C604 C 0.31603 0.15997 0.2956 0.0
C605 C 0.31819 0.07483 0.42864 0.0
C606 C 0.2247 0.09444 0.04658 0.0
O607 O 0.23092 0.03263 0.21891 0.0
O608 O 0.19599 0.98103 0.16099 0.0
O609 O 0.90223 0.21915 0.1399 0.0
Mn610 Mn 0.90553 0.17905 0.26747 0.0
O611 O 0.94235 0.2287 0.99057 0.0
Mn612 Mn 0.95991 0.1964 0.05763 0.0
O613 O 0.90129 0.13556 0.38241 0.0
O614 O 0.85562 0.15408 0.31516 0.0
Mn615 Mn 0.85817 0.17792 0.43535 0.0
O616 O 0.92709 0.22136 0.40865 0.0
O617 O 0.88307 0.15839 0.52728 0.0
O618 O 0.88484 0.13917 0.14247 0.0
O619 O 0.92402 0.14636 0.99773 0.0
O620 O 0.8092 0.15585 0.38839 0.0
O621 O 0.88148 0.22681 0.37421 0.0
C622 C 0.9854 0.20613 0.25789 0.0
C623 C 0.91569 0.23317 1.03307 0.0
C624 C 0.88601 0.13123 0.48665 0.0
C625 C 0.82598 0.15324 0.29559 0.0
C626 C 0.91112 0.24054 0.42863 0.0
C627 C 0.8915 0.12743 0.04658 0.0
O628 O 0.95331 0.19546 0.2189 0.0
O629 O 0.00491 0.21213 0.16099 0.0
O630 O 0.30571 0.21915 0.63991 0.0
Mn631 Mn 0.2623 0.17905 0.76748 0.0
O632 O 0.27514 0.22872 0.49059 0.0
Mn633 Mn 0.22527 0.19641 0.55763 0.0
O634 O 0.22303 0.13556 0.8824 0.0
O635 O 0.2872 0.15403 0.81513 0.0
Mn636 Mn 0.3085 0.1779 0.93531 0.0
O637 O 0.28305 0.22135 0.90867 0.0
O638 O 0.26408 0.15837 1.0273 0.0
O639 O 0.24311 0.13917 0.64248 0.0
O640 O 0.21113 0.14637 0.49771 0.0
O641 O 0.33546 0.15589 0.88847 0.0
O642 O 0.33405 0.2268 0.87424 0.0
C643 C 0.20951 0.20613 0.75789 0.0
C644 C 0.30626 0.23318 0.5331 0.0
C645 C 0.23399 0.13123 0.98664 0.0
C646 C 0.31606 0.15327 0.79571 0.0
C647 C 0.31819 0.24056 0.92881 0.0
C648 C 0.22473 0.12745 0.54658 0.0
O649 O 0.23094 0.19547 0.71891 0.0
O650 O 0.196 0.21213 0.66099 0.0
O651 O 0.76679 0.08373 0.6399 0.0
Mn652 Mn 0.80689 0.08042 0.76747 0.0
O653 O 0.75723 0.0436 0.49057 0.0
Mn654 Mn 0.78953 0.02603 0.55762 0.0
O655 O 0.85038 0.08465 0.88239 0.0
O656 O 0.83191 0.13034 0.81512 0.0
Mn657 Mn 0.80804 0.12777 0.9353 0.0
O658 O 0.76459 0.05887 0.90866 0.0
O659 O 0.82757 0.10288 1.02729 0.0
O660 O 0.84677 0.10111 0.64247 0.0
O661 O 0.83957 0.06193 0.4977 0.0
O662 O 0.83006 0.17675 0.88845 0.0
O663 O 0.75914 0.10442 0.87422 0.0
C664 C 0.7798 0.00055 0.75787 0.0
C665 C 0.75276 0.07026 0.53309 0.0
C666 C 0.85472 0.09993 0.98664 0.0
C667 C 0.83267 0.15996 0.7957 0.0
C668 C 0.74539 0.07481 0.9288 0.0
C669 C 0.85849 0.09445 0.54657 0.0
O670 O 0.79047 0.03264 0.71889 0.0
O671 O 0.7738 0.98104 0.66096 0.0
O672 O 0.9022 0.68024 0.63992 0.0
Mn673 Mn 0.90551 0.72365 0.76748 0.0
O674 O 0.94234 0.71081 0.49059 0.0
Mn675 Mn 0.9599 0.76068 0.55763 0.0
O676 O 0.90127 0.76292 0.88239 0.0
O677 O 0.85559 0.69875 0.81512 0.0
Mn678 Mn 0.85816 0.67745 0.9353 0.0
O679 O 0.92706 0.7029 0.90868 0.0
O680 O 0.88304 0.72187 1.0273 0.0
O681 O 0.88482 0.74283 0.64247 0.0
O682 O 0.924 0.77482 0.4977 0.0
O683 O 0.80918 0.65048 0.88846 0.0
O684 O 0.88151 0.6519 0.87424 0.0
C685 C 0.98538 0.77643 0.75789 0.0
C686 C 0.91568 0.67969 0.53311 0.0
C687 C 0.88598 0.75196 0.98663 0.0
C688 C 0.82597 0.66989 0.7957 0.0
C689 C 0.91112 0.66776 0.92882 0.0
C690 C 0.89148 0.76122 0.54657 0.0
O691 O 0.95329 0.75502 0.71891 0.0
O692 O 0.00489 0.78994 0.66099 0.0
O693 O 0.88301 0.64183 0.3449 0.0
Mn694 Mn 0.84291 0.59843 0.21732 0.0
O695 O 0.89257 0.61126 0.49423 0.0
Mn696 Mn 0.86027 0.56139 0.42716 0.0
O697 O 0.79943 0.55917 0.10238 0.0
O698 O 0.81792 0.62335 0.16965 0.0
Mn699 Mn 0.84177 0.64466 0.04948 0.0
O700 O 0.88522 0.61919 0.07615 0.0
O701 O 0.82225 0.60024 0.95751 0.0
O702 O 0.80303 0.57924 0.34231 0.0
O703 O 0.81023 0.54725 0.48707 0.0
O704 O 0.81972 0.67159 0.09633 0.0
O705 O 0.89067 0.67024 0.1106 0.0
C706 C 0.86999 0.54564 0.2269 0.0
C707 C 0.89703 0.64239 0.45173 0.0
C708 C 0.7951 0.57014 0.99815 0.0
C709 C 0.81713 0.65219 0.18908 0.0
C710 C 0.90439 0.65433 0.05617 0.0
C711 C 0.79131 0.56085 0.43821 0.0
O712 O 0.85932 0.56706 0.26589 0.0
O713 O 0.876 0.53213 0.32381 0.0
O714 O 0.34412 0.23837 0.3449 0.0
Mn715 Mn 0.38752 0.24167 0.21732 0.0
O716 O 0.37469 0.2785 0.49423 0.0
Mn717 Mn 0.42456 0.29607 0.42717 0.0
O718 O 0.42678 0.23745 0.10239 0.0
O719 O 0.3626 0.19176 0.16966 0.0
Mn720 Mn 0.34129 0.1943 0.04949 0.0
O721 O 0.36677 0.26323 0.07615 0.0
O722 O 0.38571 0.2192 0.95752 0.0
O723 O 0.40671 0.22098 0.34232 0.0
O724 O 0.4387 0.26017 0.48709 0.0
O725 O 0.31435 0.14532 0.09635 0.0
O726 O 0.31571 0.21762 0.1106 0.0
C727 C 0.44031 0.32154 0.22691 0.0
C728 C 0.34356 0.25183 0.45172 0.0
C729 C 0.41581 0.22215 0.99817 0.0
C730 C 0.33376 0.16213 0.1891 0.0
C731 C 0.33162 0.24726 0.05617 0.0
C732 C 0.4251 0.22765 0.43823 0.0
O733 O 0.41889 0.28946 0.2659 0.0
O734 O 0.45382 0.34106 0.32381 0.0
O735 O 0.74758 0.10293 0.34489 0.0
Mn736 Mn 0.74427 0.14302 0.21731 0.0
O737 O 0.70745 0.09337 0.49422 0.0
Mn738 Mn 0.68989 0.12567 0.42716 0.0
O739 O 0.7485 0.18651 0.10236 0.0
O740 O 0.79419 0.16802 0.16963 0.0
Mn741 Mn 0.79164 0.14416 0.04947 0.0
O742 O 0.72272 0.10071 0.07613 0.0
O743 O 0.76674 0.16368 0.9575 0.0
O744 O 0.76497 0.18291 0.3423 0.0
O745 O 0.72579 0.17571 0.48707 0.0
O746 O 0.84062 0.16621 0.09633 0.0
O747 O 0.76832 0.09526 0.11059 0.0
C748 C 0.66441 0.11595 0.22691 0.0
C749 C 0.73411 0.08891 0.45171 0.0
C750 C 0.76379 0.19083 0.99814 0.0
C751 C 0.82382 0.16881 0.18908 0.0
C752 C 0.73869 0.08154 0.05615 0.0
C753 C 0.7583 0.19463 0.4382 0.0
O754 O 0.69649 0.12661 0.26589 0.0
O755 O 0.64489 0.10995 0.32381 0.0
loop_
_geom_bond_atom_site_label_1
_geom_bond_atom_site_label_2
_geom_bond_distance
_geom_bond_site_symmetry_2
_ccdc_geom_bond_type
O0 Mn1 2.163 . S
O0 C14 1.244 . S
Mn1 O0 2.163 . S
Mn1 O4 2.160 1_554 S
Mn1 O5 2.221 1_554 S
Mn1 O7 2.163 1_554 S
Mn1 O9 2.160 . S
Mn1 O19 2.221 . S
O2 Mn3 2.087 . S
O2 C14 1.256 . S
Mn3 O2 2.087 . S
Mn3 O10 2.089 . S
Mn3 O19 2.290 . S
Mn3 O20 2.251 . S
O4 Mn1 2.160 1_556 S
O4 C15 1.239 . S
O5 Mn1 2.221 1_556 S
O5 Mn6 2.290 . S
O5 C16 1.278 1_456 S
Mn6 O5 2.290 . S
Mn6 O8 2.089 . S
Mn6 O11 2.251 1_455 S
Mn6 O12 2.087 1_455 S
O7 Mn1 2.163 1_556 S
O7 C17 1.244 . S
O8 Mn6 2.089 . S
O8 C15 1.256 . S
O9 Mn1 2.160 . S
O9 C18 1.239 . S
O10 Mn3 2.089 . S
O10 C18 1.256 . S
O11 Mn6 2.251 1_655 S
O11 C16 1.241 1_556 S
O12 Mn6 2.087 1_655 S
O12 C17 1.256 1_655 S
C13 O19 1.278 . S
C13 O20 1.241 . S
C14 O0 1.244 . S
C14 O2 1.256 . S
C15 O4 1.239 . S
C15 O8 1.256 . S
C16 O5 1.278 1_654 S
C16 O11 1.241 1_554 S
C17 O7 1.244 . S
C17 O12 1.256 1_455 S
C18 O9 1.239 . S
C18 O10 1.256 . S
O19 Mn1 2.221 . S
O19 Mn3 2.290 . S
O19 C13 1.278 . S
O20 Mn3 2.251 . S
O20 C13 1.241 . S
O21 Mn22 2.163 . S
O21 C35 1.244 . S
Mn22 O21 2.163 . S
Mn22 O25 2.160 1_554 S
Mn22 O26 2.221 1_554 S
Mn22 O28 2.163 1_554 S
Mn22 O30 2.160 . S
Mn22 O40 2.221 . S
O23 Mn24 2.087 . S
O23 C35 1.256 . S
Mn24 O23 2.087 . S
Mn24 O31 2.089 . S
Mn24 O40 2.290 . S
Mn24 O41 2.251 . S
O25 Mn22 2.160 1_556 S
O25 C36 1.239 . S
O26 Mn22 2.221 1_556 S
O26 Mn27 2.290 . S
O26 C37 1.278 1_556 S
Mn27 O26 2.290 . S
Mn27 O29 2.089 . S
Mn27 O32 2.251 . S
Mn27 O33 2.087 . S
O28 Mn22 2.163 1_556 S
O28 C38 1.244 . S
O29 Mn27 2.089 . S
O29 C36 1.256 . S
O30 Mn22 2.160 . S
O30 C39 1.239 . S
O31 Mn24 2.089 . S
O31 C39 1.256 . S
O32 Mn27 2.251 . S
O32 C37 1.241 1_556 S
O33 Mn27 2.087 . S
O33 C38 1.256 . S
C34 O40 1.278 . S
C34 O41 1.241 . S
C35 O21 1.244 . S
C35 O23 1.256 . S
C36 O25 1.239 . S
C36 O29 1.256 . S
C37 O26 1.278 1_554 S
C37 O32 1.241 1_554 S
C38 O28 1.244 . S
C38 O33 1.256 . S
C39 O30 1.239 . S
C39 O31 1.256 . S
O40 Mn22 2.221 . S
O40 Mn24 2.290 . S
O40 C34 1.278 . S
O41 Mn24 2.251 . S
O41 C34 1.241 . S
O42 Mn43 2.163 . S
O42 C56 1.244 . S
Mn43 O42 2.163 . S
Mn43 O46 2.160 1_554 S
Mn43 O47 2.221 1_554 S
Mn43 O49 2.163 1_554 S
Mn43 O51 2.160 . S
Mn43 O61 2.221 . S
O44 Mn45 2.087 . S
O44 C56 1.256 . S
Mn45 O44 2.087 . S
Mn45 O52 2.089 . S
Mn45 O61 2.290 . S
Mn45 O62 2.251 . S
O46 Mn43 2.160 1_556 S
O46 C57 1.239 . S
O47 Mn43 2.221 1_556 S
O47 Mn48 2.290 . S
O47 C58 1.278 1_566 S
Mn48 O47 2.290 . S
Mn48 O50 2.089 . S
Mn48 O53 2.251 1_565 S
Mn48 O54 2.087 1_565 S
O49 Mn43 2.163 1_556 S
O49 C59 1.244 . S
O50 Mn48 2.089 . S
O50 C57 1.256 . S
O51 Mn43 2.160 . S
O51 C60 1.239 . S
O52 Mn45 2.089 . S
O52 C60 1.256 . S
O53 Mn48 2.251 1_545 S
O53 C58 1.241 1_556 S
O54 Mn48 2.087 1_545 S
O54 C59 1.256 1_545 S
C55 O61 1.278 . S
C55 O62 1.241 . S
C56 O42 1.244 . S
C56 O44 1.256 . S
C57 O46 1.239 . S
C57 O50 1.256 . S
C58 O47 1.278 1_544 S
C58 O53 1.241 1_554 S
C59 O49 1.244 . S
C59 O54 1.256 1_565 S
C60 O51 1.239 . S
C60 O52 1.256 . S
O61 Mn43 2.221 . S
O61 Mn45 2.290 . S
O61 C55 1.278 . S
O62 Mn45 2.251 . S
O62 C55 1.241 . S
O63 Mn64 2.163 . S
O63 C77 1.244 . S
Mn64 O63 2.163 . S
Mn64 O67 2.160 . S
Mn64 O68 2.221 . S
Mn64 O70 2.163 . S
Mn64 O72 2.160 . S
Mn64 O82 2.221 . S
O65 Mn66 2.087 . S
O65 C77 1.256 . S
Mn66 O65 2.087 . S
Mn66 O73 2.089 . S
Mn66 O82 2.290 . S
Mn66 O83 2.251 . S
O67 Mn64 2.160 . S
O67 C78 1.239 . S
O68 Mn64 2.221 . S
O68 Mn69 2.290 . S
O68 C79 1.278 1_545 S
Mn69 O68 2.290 . S
Mn69 O71 2.089 . S
Mn69 O74 2.251 1_545 S
Mn69 O75 2.087 1_545 S
O70 Mn64 2.163 . S
O70 C80 1.244 . S
O71 Mn69 2.089 . S
O71 C78 1.256 . S
O72 Mn64 2.160 . S
O72 C81 1.239 . S
O73 Mn66 2.089 . S
O73 C81 1.256 . S
O74 Mn69 2.251 1_565 S
O74 C79 1.241 . S
O75 Mn69 2.087 1_565 S
O75 C80 1.256 1_565 S
C76 O82 1.278 . S
C76 O83 1.241 . S
C77 O63 1.244 . S
C77 O65 1.256 . S
C78 O67 1.239 . S
C78 O71 1.256 . S
C79 O68 1.278 1_565 S
C79 O74 1.241 . S
C80 O70 1.244 . S
C80 O75 1.256 1_545 S
C81 O72 1.239 . S
C81 O73 1.256 . S
O82 Mn64 2.221 . S
O82 Mn66 2.290 . S
O82 C76 1.278 . S
O83 Mn66 2.251 . S
O83 C76 1.241 . S
O84 Mn85 2.163 . S
O84 C98 1.244 . S
Mn85 O84 2.163 . S
Mn85 O88 2.160 . S
Mn85 O89 2.221 . S
Mn85 O91 2.163 . S
Mn85 O93 2.160 . S
Mn85 O103 2.221 . S
O86 Mn87 2.087 . S
O86 C98 1.256 . S
Mn87 O86 2.087 . S
Mn87 O94 2.089 . S
Mn87 O103 2.290 . S
Mn87 O104 2.251 . S
O88 Mn85 2.160 . S
O88 C99 1.239 . S
O89 Mn85 2.221 . S
O89 Mn90 2.290 . S
O89 C100 1.278 1_655 S
Mn90 O89 2.290 . S
Mn90 O92 2.089 . S
Mn90 O95 2.251 1_655 S
Mn90 O96 2.087 1_655 S
O91 Mn85 2.163 . S
O91 C101 1.244 . S
O92 Mn90 2.089 . S
O92 C99 1.256 . S
O93 Mn85 2.160 . S
O93 C102 1.239 . S
O94 Mn87 2.089 . S
O94 C102 1.256 . S
O95 Mn90 2.251 1_455 S
O95 C100 1.241 . S
O96 Mn90 2.087 1_455 S
O96 C101 1.256 1_455 S
C97 O103 1.278 . S
C97 O104 1.241 . S
C98 O84 1.244 . S
C98 O86 1.256 . S
C99 O88 1.239 . S
C99 O92 1.256 . S
C100 O89 1.278 1_455 S
C100 O95 1.241 . S
C101 O91 1.244 . S
C101 O96 1.256 1_655 S
C102 O93 1.239 . S
C102 O94 1.256 . S
O103 Mn85 2.221 . S
O103 Mn87 2.290 . S
O103 C97 1.278 . S
O104 Mn87 2.251 . S
O104 C97 1.241 . S
O105 Mn106 2.163 . S
O105 C119 1.244 . S
Mn106 O105 2.163 . S
Mn106 O109 2.160 . S
Mn106 O110 2.221 . S
Mn106 O112 2.163 . S
Mn106 O114 2.160 . S
Mn106 O124 2.221 . S
O107 Mn108 2.087 . S
O107 C119 1.256 . S
Mn108 O107 2.087 . S
Mn108 O115 2.089 . S
Mn108 O124 2.290 . S
Mn108 O125 2.251 . S
O109 Mn106 2.160 . S
O109 C120 1.239 . S
O110 Mn106 2.221 . S
O110 Mn111 2.290 . S
O110 C121 1.278 . S
Mn111 O110 2.290 . S
Mn111 O113 2.089 . S
Mn111 O116 2.251 . S
Mn111 O117 2.087 . S
O112 Mn106 2.163 . S
O112 C122 1.244 . S
O113 Mn111 2.089 . S
O113 C120 1.256 . S
O114 Mn106 2.160 . S
O114 C123 1.239 . S
O115 Mn108 2.089 . S
O115 C123 1.256 . S
O116 Mn111 2.251 . S
O116 C121 1.241 . S
O117 Mn111 2.087 . S
O117 C122 1.256 . S
C118 O124 1.278 . S
C118 O125 1.241 . S
C119 O105 1.244 . S
C119 O107 1.256 . S
C120 O109 1.239 . S
C120 O113 1.256 . S
C121 O110 1.278 . S
C121 O116 1.241 . S
C122 O112 1.244 . S
C122 O117 1.256 . S
C123 O114 1.239 . S
C123 O115 1.256 . S
O124 Mn106 2.221 . S
O124 Mn108 2.290 . S
O124 C118 1.278 . S
O125 Mn108 2.251 . S
O125 C118 1.241 . S
O126 Mn127 2.163 1_556 S
O126 C140 1.244 . S
Mn127 O126 2.163 1_554 S
Mn127 O130 2.160 . S
Mn127 O131 2.221 . S
Mn127 O133 2.163 . S
Mn127 O135 2.160 1_554 S
Mn127 O145 2.221 . S
O128 Mn129 2.087 . S
O128 C140 1.256 . S
Mn129 O128 2.087 . S
Mn129 O136 2.089 . S
Mn129 O145 2.290 1_556 S
Mn129 O146 2.251 . S
O130 Mn127 2.160 . S
O130 C141 1.239 . S
O131 Mn127 2.221 . S
O131 Mn132 2.290 . S
O131 C142 1.278 1_655 S
Mn132 O131 2.290 . S
Mn132 O134 2.089 . S
Mn132 O137 2.251 1_655 S
Mn132 O138 2.087 1_655 S
O133 Mn127 2.163 . S
O133 C143 1.244 . S
O134 Mn132 2.089 . S
O134 C141 1.256 . S
O135 Mn127 2.160 1_556 S
O135 C144 1.239 . S
O136 Mn129 2.089 . S
O136 C144 1.256 . S
O137 Mn132 2.251 1_455 S
O137 C142 1.241 . S
O138 Mn132 2.087 1_455 S
O138 C143 1.256 1_455 S
C139 O145 1.278 . S
C139 O146 1.241 1_554 S
C140 O126 1.244 . S
C140 O128 1.256 . S
C141 O130 1.239 . S
C141 O134 1.256 . S
C142 O131 1.278 1_455 S
C142 O137 1.241 . S
C143 O133 1.244 . S
C143 O138 1.256 1_655 S
C144 O135 1.239 . S
C144 O136 1.256 . S
O145 Mn127 2.221 . S
O145 Mn129 2.290 1_554 S
O145 C139 1.278 . S
O146 Mn129 2.251 . S
O146 C139 1.241 1_556 S
O147 Mn148 2.163 1_556 S
O147 C161 1.244 . S
Mn148 O147 2.163 1_554 S
Mn148 O151 2.160 . S
Mn148 O152 2.221 . S
Mn148 O154 2.163 . S
Mn148 O156 2.160 1_554 S
Mn148 O166 2.221 . S
O149 Mn150 2.087 . S
O149 C161 1.256 . S
Mn150 O149 2.087 . S
Mn150 O157 2.089 . S
Mn150 O166 2.290 1_556 S
Mn150 O167 2.251 . S
O151 Mn148 2.160 . S
O151 C162 1.239 . S
O152 Mn148 2.221 . S
O152 Mn153 2.290 . S
O152 C163 1.278 . S
Mn153 O152 2.290 . S
Mn153 O155 2.089 . S
Mn153 O158 2.251 . S
Mn153 O159 2.087 . S
O154 Mn148 2.163 . S
O154 C164 1.244 . S
O155 Mn153 2.089 . S
O155 C162 1.256 . S
O156 Mn148 2.160 1_556 S
O156 C165 1.239 . S
O157 Mn150 2.089 . S
O157 C165 1.256 . S
O158 Mn153 2.251 . S
O158 C163 1.241 . S
O159 Mn153 2.087 . S
O159 C164 1.256 . S
C160 O166 1.278 . S
C160 O167 1.241 1_554 S
C161 O147 1.244 . S
C161 O149 1.256 . S
C162 O151 1.239 . S
C162 O155 1.256 . S
C163 O152 1.278 . S
C163 O158 1.241 . S
C164 O154 1.244 . S
C164 O159 1.256 . S
C165 O156 1.239 . S
C165 O157 1.256 . S
O166 Mn148 2.221 . S
O166 Mn150 2.290 1_554 S
O166 C160 1.278 . S
O167 Mn150 2.251 . S
O167 C160 1.241 1_556 S
O168 Mn169 2.163 1_556 S
O168 C182 1.244 . S
Mn169 O168 2.163 1_554 S
Mn169 O172 2.160 . S
Mn169 O173 2.221 . S
Mn169 O175 2.163 . S
Mn169 O177 2.160 1_554 S
Mn169 O187 2.221 . S
O170 Mn171 2.087 . S
O170 C182 1.256 . S
Mn171 O170 2.087 . S
Mn171 O178 2.089 . S
Mn171 O187 2.290 1_556 S
Mn171 O188 2.251 . S
O172 Mn169 2.160 . S
O172 C183 1.239 . S
O173 Mn169 2.221 . S
O173 Mn174 2.290 . S
O173 C184 1.278 1_545 S
Mn174 O173 2.290 . S
Mn174 O176 2.089 . S
Mn174 O179 2.251 1_545 S
Mn174 O180 2.087 1_545 S
O175 Mn169 2.163 . S
O175 C185 1.244 . S
O176 Mn174 2.089 . S
O176 C183 1.256 . S
O177 Mn169 2.160 1_556 S
O177 C186 1.239 . S
O178 Mn171 2.089 . S
O178 C186 1.256 . S
O179 Mn174 2.251 1_565 S
O179 C184 1.241 . S
O180 Mn174 2.087 1_565 S
O180 C185 1.256 1_565 S
C181 O187 1.278 . S
C181 O188 1.241 1_554 S
C182 O168 1.244 . S
C182 O170 1.256 . S
C183 O172 1.239 . S
C183 O176 1.256 . S
C184 O173 1.278 1_565 S
C184 O179 1.241 . S
C185 O175 1.244 . S
C185 O180 1.256 1_545 S
C186 O177 1.239 . S
C186 O178 1.256 . S
O187 Mn169 2.221 . S
O187 Mn171 2.290 1_554 S
O187 C181 1.278 . S
O188 Mn171 2.251 . S
O188 C181 1.241 1_556 S
O189 Mn190 2.163 . S
O189 C203 1.244 . S
Mn190 O189 2.163 . S
Mn190 O193 2.160 . S
Mn190 O194 2.221 . S
Mn190 O196 2.163 . S
Mn190 O198 2.160 . S
Mn190 O208 2.221 . S
O191 Mn192 2.087 . S
O191 C203 1.256 . S
Mn192 O191 2.087 . S
Mn192 O199 2.089 . S
Mn192 O208 2.290 . S
Mn192 O209 2.251 . S
O193 Mn190 2.160 . S
O193 C204 1.239 . S
O194 Mn190 2.221 . S
O194 Mn195 2.290 . S
O194 C205 1.278 1_565 S
Mn195 O194 2.290 . S
Mn195 O197 2.089 . S
Mn195 O200 2.251 1_565 S
Mn195 O201 2.087 1_565 S
O196 Mn190 2.163 . S
O196 C206 1.244 . S
O197 Mn195 2.089 . S
O197 C204 1.256 . S
O198 Mn190 2.160 . S
O198 C207 1.239 . S
O199 Mn192 2.089 . S
O199 C207 1.256 . S
O200 Mn195 2.251 1_545 S
O200 C205 1.241 . S
O201 Mn195 2.087 1_545 S
O201 C206 1.256 1_545 S
C202 O208 1.278 . S
C202 O209 1.241 . S
C203 O189 1.244 . S
C203 O191 1.256 . S
C204 O193 1.239 . S
C204 O197 1.256 . S
C205 O194 1.278 1_545 S
C205 O200 1.241 . S
C206 O196 1.244 . S
C206 O201 1.256 1_565 S
C207 O198 1.239 . S
C207 O199 1.256 . S
O208 Mn190 2.221 . S
O208 Mn192 2.290 . S
O208 C202 1.278 . S
O209 Mn192 2.251 . S
O209 C202 1.241 . S
O210 Mn211 2.163 . S
O210 C224 1.244 . S
Mn211 O210 2.163 . S
Mn211 O214 2.160 . S
Mn211 O215 2.221 . S
Mn211 O217 2.163 . S
Mn211 O219 2.160 . S
Mn211 O229 2.221 . S
O212 Mn213 2.087 . S
O212 C224 1.256 . S
Mn213 O212 2.087 . S
Mn213 O220 2.089 . S
Mn213 O229 2.290 . S
Mn213 O230 2.251 . S
O214 Mn211 2.160 . S
O214 C225 1.239 . S
O215 Mn211 2.221 . S
O215 Mn216 2.290 . S
O215 C226 1.278 1_455 S
Mn216 O215 2.290 . S
Mn216 O218 2.089 . S
Mn216 O221 2.251 1_455 S
Mn216 O222 2.087 1_455 S
O217 Mn211 2.163 . S
O217 C227 1.244 . S
O218 Mn216 2.089 . S
O218 C225 1.256 . S
O219 Mn211 2.160 . S
O219 C228 1.239 . S
O220 Mn213 2.089 . S
O220 C228 1.256 . S
O221 Mn216 2.251 1_655 S
O221 C226 1.241 . S
O222 Mn216 2.087 1_655 S
O222 C227 1.256 1_655 S
C223 O229 1.278 . S
C223 O230 1.241 . S
C224 O210 1.244 . S
C224 O212 1.256 . S
C225 O214 1.239 . S
C225 O218 1.256 . S
C226 O215 1.278 1_655 S
C226 O221 1.241 . S
C227 O217 1.244 . S
C227 O222 1.256 1_455 S
C228 O219 1.239 . S
C228 O220 1.256 . S
O229 Mn211 2.221 . S
O229 Mn213 2.290 . S
O229 C223 1.278 . S
O230 Mn213 2.251 . S
O230 C223 1.241 . S
O231 Mn232 2.163 . S
O231 C245 1.244 . S
Mn232 O231 2.163 . S
Mn232 O235 2.160 . S
Mn232 O236 2.221 . S
Mn232 O238 2.163 . S
Mn232 O240 2.160 . S
Mn232 O250 2.221 . S
O233 Mn234 2.087 . S
O233 C245 1.256 . S
Mn234 O233 2.087 . S
Mn234 O241 2.089 . S
Mn234 O250 2.290 . S
Mn234 O251 2.251 . S
O235 Mn232 2.160 . S
O235 C246 1.239 . S
O236 Mn232 2.221 . S
O236 Mn237 2.290 . S
O236 C247 1.278 . S
Mn237 O236 2.290 . S
Mn237 O239 2.089 . S
Mn237 O242 2.251 . S
Mn237 O243 2.087 . S
O238 Mn232 2.163 . S
O238 C248 1.244 . S
O239 Mn237 2.089 . S
O239 C246 1.256 . S
O240 Mn232 2.160 . S
O240 C249 1.239 . S
O241 Mn234 2.089 . S
O241 C249 1.256 . S
O242 Mn237 2.251 . S
O242 C247 1.241 . S
O243 Mn237 2.087 . S
O243 C248 1.256 . S
C244 O250 1.278 . S
C244 O251 1.241 . S
C245 O231 1.244 . S
C245 O233 1.256 . S
C246 O235 1.239 . S
C246 O239 1.256 . S
C247 O236 1.278 . S
C247 O242 1.241 . S
C248 O238 1.244 . S
C248 O243 1.256 . S
C249 O240 1.239 . S
C249 O241 1.256 . S
O250 Mn232 2.221 . S
O250 Mn234 2.290 . S
O250 C244 1.278 . S
O251 Mn234 2.251 . S
O251 C244 1.241 . S
O252 Mn253 2.163 . S
O252 C266 1.244 . S
Mn253 O252 2.163 . S
Mn253 O256 2.160 . S
Mn253 O257 2.221 . S
Mn253 O259 2.163 . S
Mn253 O261 2.160 . S
Mn253 O271 2.221 . S
O254 Mn255 2.087 . S
O254 C266 1.256 . S
Mn255 O254 2.087 . S
Mn255 O262 2.089 . S
Mn255 O271 2.290 . S
Mn255 O272 2.251 . S
O256 Mn253 2.160 . S
O256 C267 1.239 . S
O257 Mn253 2.221 . S
O257 Mn258 2.290 . S
O257 C268 1.278 . S
Mn258 O257 2.290 . S
Mn258 O260 2.089 . S
Mn258 O263 2.251 . S
Mn258 O264 2.087 . S
O259 Mn253 2.163 . S
O259 C269 1.244 . S
O260 Mn258 2.089 . S
O260 C267 1.256 . S
O261 Mn253 2.160 . S
O261 C270 1.239 . S
O262 Mn255 2.089 . S
O262 C270 1.256 . S
O263 Mn258 2.251 . S
O263 C268 1.241 . S
O264 Mn258 2.087 . S
O264 C269 1.256 . S
C265 O271 1.278 . S
C265 O272 1.241 . S
C266 O252 1.244 . S
C266 O254 1.256 . S
C267 O256 1.239 . S
C267 O260 1.256 . S
C268 O257 1.278 . S
C268 O263 1.241 . S
C269 O259 1.244 . S
C269 O264 1.256 . S
C270 O261 1.239 . S
C270 O262 1.256 . S
O271 Mn253 2.221 . S
O271 Mn255 2.290 . S
O271 C265 1.278 . S
O272 Mn255 2.251 . S
O272 C265 1.241 . S
O273 Mn274 2.163 . S
O273 C287 1.244 . S
Mn274 O273 2.163 . S
Mn274 O277 2.160 . S
Mn274 O278 2.221 . S
Mn274 O280 2.163 . S
Mn274 O282 2.160 . S
Mn274 O292 2.221 . S
O275 Mn276 2.087 . S
O275 C287 1.256 . S
Mn276 O275 2.087 . S
Mn276 O283 2.089 . S
Mn276 O292 2.290 . S
Mn276 O293 2.251 1_565 S
O277 Mn274 2.160 . S
O277 C288 1.239 . S
O278 Mn274 2.221 . S
O278 Mn279 2.290 . S
O278 C289 1.278 . S
Mn279 O278 2.290 . S
Mn279 O281 2.089 . S
Mn279 O284 2.251 . S
Mn279 O285 2.087 . S
O280 Mn274 2.163 . S
O280 C290 1.244 . S
O281 Mn279 2.089 . S
O281 C288 1.256 . S
O282 Mn274 2.160 . S
O282 C291 1.239 . S
O283 Mn276 2.089 . S
O283 C291 1.256 . S
O284 Mn279 2.251 . S
O284 C289 1.241 . S
O285 Mn279 2.087 . S
O285 C290 1.256 . S
C286 O292 1.278 1_545 S
C286 O293 1.241 . S
C287 O273 1.244 . S
C287 O275 1.256 . S
C288 O277 1.239 . S
C288 O281 1.256 . S
C289 O278 1.278 . S
C289 O284 1.241 . S
C290 O280 1.244 . S
C290 O285 1.256 . S
C291 O282 1.239 . S
C291 O283 1.256 . S
O292 Mn274 2.221 . S
O292 Mn276 2.290 . S
O292 C286 1.278 1_565 S
O293 Mn276 2.251 1_545 S
O293 C286 1.241 . S
O294 Mn295 2.163 . S
O294 C308 1.244 . S
Mn295 O294 2.163 . S
Mn295 O298 2.160 . S
Mn295 O299 2.221 . S
Mn295 O301 2.163 . S
Mn295 O303 2.160 . S
Mn295 O313 2.221 . S
O296 Mn297 2.087 . S
O296 C308 1.256 . S
Mn297 O296 2.087 . S
Mn297 O304 2.089 . S
Mn297 O313 2.290 . S
Mn297 O314 2.251 1_455 S
O298 Mn295 2.160 . S
O298 C309 1.239 . S
O299 Mn295 2.221 . S
O299 Mn300 2.290 . S
O299 C310 1.278 . S
Mn300 O299 2.290 . S
Mn300 O302 2.089 . S
Mn300 O305 2.251 . S
Mn300 O306 2.087 . S
O301 Mn295 2.163 . S
O301 C311 1.244 . S
O302 Mn300 2.089 . S
O302 C309 1.256 . S
O303 Mn295 2.160 . S
O303 C312 1.239 . S
O304 Mn297 2.089 . S
O304 C312 1.256 . S
O305 Mn300 2.251 . S
O305 C310 1.241 . S
O306 Mn300 2.087 . S
O306 C311 1.256 . S
C307 O313 1.278 1_655 S
C307 O314 1.241 . S
C308 O294 1.244 . S
C308 O296 1.256 . S
C309 O298 1.239 . S
C309 O302 1.256 . S
C310 O299 1.278 . S
C310 O305 1.241 . S
C311 O301 1.244 . S
C311 O306 1.256 . S
C312 O303 1.239 . S
C312 O304 1.256 . S
O313 Mn295 2.221 . S
O313 Mn297 2.290 . S
O313 C307 1.278 1_455 S
O314 Mn297 2.251 1_655 S
O314 C307 1.241 . S
O315 Mn316 2.163 . S
O315 C329 1.244 . S
Mn316 O315 2.163 . S
Mn316 O319 2.160 1_556 S
Mn316 O320 2.221 . S
Mn316 O322 2.163 1_556 S
Mn316 O324 2.160 . S
Mn316 O334 2.221 . S
O317 Mn318 2.087 . S
O317 C329 1.256 . S
Mn318 O317 2.087 . S
Mn318 O325 2.089 . S
Mn318 O334 2.290 . S
Mn318 O335 2.251 . S
O319 Mn316 2.160 1_554 S
O319 C330 1.239 . S
O320 Mn316 2.221 . S
O320 Mn321 2.290 1_556 S
O320 C331 1.278 . S
Mn321 O320 2.290 1_554 S
Mn321 O323 2.089 . S
Mn321 O326 2.251 1_554 S
Mn321 O327 2.087 . S
O322 Mn316 2.163 1_554 S
O322 C332 1.244 . S
O323 Mn321 2.089 . S
O323 C330 1.256 . S
O324 Mn316 2.160 . S
O324 C333 1.239 . S
O325 Mn318 2.089 . S
O325 C333 1.256 . S
O326 Mn321 2.251 1_556 S
O326 C331 1.241 . S
O327 Mn321 2.087 . S
O327 C332 1.256 . S
C328 O334 1.278 . S
C328 O335 1.241 . S
C329 O315 1.244 . S
C329 O317 1.256 . S
C330 O319 1.239 . S
C330 O323 1.256 . S
C331 O320 1.278 . S
C331 O326 1.241 . S
C332 O322 1.244 . S
C332 O327 1.256 . S
C333 O324 1.239 . S
C333 O325 1.256 . S
O334 Mn316 2.221 . S
O334 Mn318 2.290 . S
O334 C328 1.278 . S
O335 Mn318 2.251 . S
O335 C328 1.241 . S
O336 Mn337 2.163 . S
O336 C350 1.244 . S
Mn337 O336 2.163 . S
Mn337 O340 2.160 1_556 S
Mn337 O341 2.221 . S
Mn337 O343 2.163 1_556 S
Mn337 O345 2.160 . S
Mn337 O355 2.221 . S
O338 Mn339 2.087 . S
O338 C350 1.256 . S
Mn339 O338 2.087 . S
Mn339 O346 2.089 . S
Mn339 O355 2.290 . S
Mn339 O356 2.251 . S
O340 Mn337 2.160 1_554 S
O340 C351 1.239 . S
O341 Mn337 2.221 . S
O341 Mn342 2.290 1_556 S
O341 C352 1.278 . S
Mn342 O341 2.290 1_554 S
Mn342 O344 2.089 . S
Mn342 O347 2.251 1_554 S
Mn342 O348 2.087 . S
O343 Mn337 2.163 1_554 S
O343 C353 1.244 . S
O344 Mn342 2.089 . S
O344 C351 1.256 . S
O345 Mn337 2.160 . S
O345 C354 1.239 . S
O346 Mn339 2.089 . S
O346 C354 1.256 . S
O347 Mn342 2.251 1_556 S
O347 C352 1.241 . S
O348 Mn342 2.087 . S
O348 C353 1.256 . S
C349 O355 1.278 . S
C349 O356 1.241 . S
C350 O336 1.244 . S
C350 O338 1.256 . S
C351 O340 1.239 . S
C351 O344 1.256 . S
C352 O341 1.278 . S
C352 O347 1.241 . S
C353 O343 1.244 . S
C353 O348 1.256 . S
C354 O345 1.239 . S
C354 O346 1.256 . S
O355 Mn337 2.221 . S
O355 Mn339 2.290 . S
O355 C349 1.278 . S
O356 Mn339 2.251 . S
O356 C349 1.241 . S
O357 Mn358 2.163 . S
O357 C371 1.244 . S
Mn358 O357 2.163 . S
Mn358 O361 2.160 1_556 S
Mn358 O362 2.221 . S
Mn358 O364 2.163 1_556 S
Mn358 O366 2.160 . S
Mn358 O376 2.221 . S
O359 Mn360 2.087 . S
O359 C371 1.256 . S
Mn360 O359 2.087 . S
Mn360 O367 2.089 . S
Mn360 O376 2.290 . S
Mn360 O377 2.251 . S
O361 Mn358 2.160 1_554 S
O361 C372 1.239 . S
O362 Mn358 2.221 . S
O362 Mn363 2.290 1_556 S
O362 C373 1.278 . S
Mn363 O362 2.290 1_554 S
Mn363 O365 2.089 . S
Mn363 O368 2.251 1_554 S
Mn363 O369 2.087 . S
O364 Mn358 2.163 1_554 S
O364 C374 1.244 . S
O365 Mn363 2.089 . S
O365 C372 1.256 . S
O366 Mn358 2.160 . S
O366 C375 1.239 . S
O367 Mn360 2.089 . S
O367 C375 1.256 . S
O368 Mn363 2.251 1_556 S
O368 C373 1.241 . S
O369 Mn363 2.087 . S
O369 C374 1.256 . S
C370 O376 1.278 . S
C370 O377 1.241 . S
C371 O357 1.244 . S
C371 O359 1.256 . S
C372 O361 1.239 . S
C372 O365 1.256 . S
C373 O362 1.278 . S
C373 O368 1.241 . S
C374 O364 1.244 . S
C374 O369 1.256 . S
C375 O366 1.239 . S
C375 O367 1.256 . S
O376 Mn358 2.221 . S
O376 Mn360 2.290 . S
O376 C370 1.278 . S
O377 Mn360 2.251 . S
O377 C370 1.241 . S
O378 Mn379 2.163 . S
O378 C392 1.244 . S
Mn379 O378 2.163 . S
Mn379 O382 2.160 . S
Mn379 O383 2.221 . S
Mn379 O385 2.163 . S
Mn379 O387 2.160 . S
Mn379 O397 2.221 . S
O380 Mn381 2.087 . S
O380 C392 1.256 . S
Mn381 O380 2.087 . S
Mn381 O388 2.089 . S
Mn381 O397 2.290 . S
Mn381 O398 2.251 . S
O382 Mn379 2.160 . S
O382 C393 1.239 . S
O383 Mn379 2.221 . S
O383 Mn384 2.290 . S
O383 C394 1.278 . S
Mn384 O383 2.290 . S
Mn384 O386 2.089 . S
Mn384 O389 2.251 . S
Mn384 O390 2.087 . S
O385 Mn379 2.163 . S
O385 C395 1.244 . S
O386 Mn384 2.089 . S
O386 C393 1.256 . S
O387 Mn379 2.160 . S
O387 C396 1.239 . S
O388 Mn381 2.089 . S
O388 C396 1.256 . S
O389 Mn384 2.251 . S
O389 C394 1.241 . S
O390 Mn384 2.087 . S
O390 C395 1.256 . S
C391 O397 1.278 . S
C391 O398 1.241 . S
C392 O378 1.244 . S
C392 O380 1.256 . S
C393 O382 1.239 . S
C393 O386 1.256 . S
C394 O383 1.278 . S
C394 O389 1.241 . S
C395 O385 1.244 . S
C395 O390 1.256 . S
C396 O387 1.239 . S
C396 O388 1.256 . S
O397 Mn379 2.221 . S
O397 Mn381 2.290 . S
O397 C391 1.278 . S
O398 Mn381 2.251 . S
O398 C391 1.241 . S
O399 Mn400 2.163 . S
O399 C413 1.244 . S
Mn400 O399 2.163 . S
Mn400 O403 2.160 . S
Mn400 O404 2.221 . S
Mn400 O406 2.163 . S
Mn400 O408 2.160 . S
Mn400 O418 2.221 . S
O401 Mn402 2.087 . S
O401 C413 1.256 . S
Mn402 O401 2.087 . S
Mn402 O409 2.089 . S
Mn402 O418 2.290 . S
Mn402 O419 2.251 . S
O403 Mn400 2.160 . S
O403 C414 1.239 . S
O404 Mn400 2.221 . S
O404 Mn405 2.290 . S
O404 C415 1.278 . S
Mn405 O404 2.290 . S
Mn405 O407 2.089 . S
Mn405 O410 2.251 . S
Mn405 O411 2.087 . S
O406 Mn400 2.163 . S
O406 C416 1.244 . S
O407 Mn405 2.089 . S
O407 C414 1.256 . S
O408 Mn400 2.160 . S
O408 C417 1.239 . S
O409 Mn402 2.089 . S
O409 C417 1.256 . S
O410 Mn405 2.251 . S
O410 C415 1.241 . S
O411 Mn405 2.087 . S
O411 C416 1.256 . S
C412 O418 1.278 . S
C412 O419 1.241 . S
C413 O399 1.244 . S
C413 O401 1.256 . S
C414 O403 1.239 . S
C414 O407 1.256 . S
C415 O404 1.278 . S
C415 O410 1.241 . S
C416 O406 1.244 . S
C416 O411 1.256 . S
C417 O408 1.239 . S
C417 O409 1.256 . S
O418 Mn400 2.221 . S
O418 Mn402 2.290 . S
O418 C412 1.278 . S
O419 Mn402 2.251 . S
O419 C412 1.241 . S
O420 Mn421 2.163 . S
O420 C434 1.244 . S
Mn421 O420 2.163 . S
Mn421 O424 2.160 . S
Mn421 O425 2.221 . S
Mn421 O427 2.163 . S
Mn421 O429 2.160 . S
Mn421 O439 2.221 . S
O422 Mn423 2.087 . S
O422 C434 1.256 . S
Mn423 O422 2.087 . S
Mn423 O430 2.089 . S
Mn423 O439 2.290 . S
Mn423 O440 2.251 . S
O424 Mn421 2.160 . S
O424 C435 1.239 . S
O425 Mn421 2.221 . S
O425 Mn426 2.290 . S
O425 C436 1.278 . S
Mn426 O425 2.290 . S
Mn426 O428 2.089 . S
Mn426 O431 2.251 . S
Mn426 O432 2.087 . S
O427 Mn421 2.163 . S
O427 C437 1.244 . S
O428 Mn426 2.089 . S
O428 C435 1.256 . S
O429 Mn421 2.160 . S
O429 C438 1.239 . S
O430 Mn423 2.089 . S
O430 C438 1.256 . S
O431 Mn426 2.251 . S
O431 C436 1.241 . S
O432 Mn426 2.087 . S
O432 C437 1.256 . S
C433 O439 1.278 . S
C433 O440 1.241 . S
C434 O420 1.244 . S
C434 O422 1.256 . S
C435 O424 1.239 . S
C435 O428 1.256 . S
C436 O425 1.278 . S
C436 O431 1.241 . S
C437 O427 1.244 . S
C437 O432 1.256 . S
C438 O429 1.239 . S
C438 O430 1.256 . S
O439 Mn421 2.221 . S
O439 Mn423 2.290 . S
O439 C433 1.278 . S
O440 Mn423 2.251 . S
O440 C433 1.241 . S
O441 Mn442 2.163 . S
O441 C455 1.244 1_556 S
Mn442 O441 2.163 . S
Mn442 O445 2.160 . S
Mn442 O446 2.221 . S
Mn442 O448 2.163 . S
Mn442 O450 2.160 . S
Mn442 O460 2.221 . S
O443 Mn444 2.087 . S
O443 C455 1.256 . S
Mn444 O443 2.087 . S
Mn444 O451 2.089 . S
Mn444 O460 2.290 1_554 S
Mn444 O461 2.251 1_554 S
O445 Mn442 2.160 . S
O445 C456 1.239 . S
O446 Mn442 2.221 . S
O446 Mn447 2.290 . S
O446 C457 1.278 . S
Mn447 O446 2.290 . S
Mn447 O449 2.089 . S
Mn447 O452 2.251 . S
Mn447 O453 2.087 . S
O448 Mn442 2.163 . S
O448 C458 1.244 . S
O449 Mn447 2.089 . S
O449 C456 1.256 . S
O450 Mn442 2.160 . S
O450 C459 1.239 1_556 S
O451 Mn444 2.089 . S
O451 C459 1.256 . S
O452 Mn447 2.251 . S
O452 C457 1.241 . S
O453 Mn447 2.087 . S
O453 C458 1.256 . S
C454 O460 1.278 . S
C454 O461 1.241 . S
C455 O441 1.244 1_554 S
C455 O443 1.256 . S
C456 O445 1.239 . S
C456 O449 1.256 . S
C457 O446 1.278 . S
C457 O452 1.241 . S
C458 O448 1.244 . S
C458 O453 1.256 . S
C459 O450 1.239 1_554 S
C459 O451 1.256 . S
O460 Mn442 2.221 . S
O460 Mn444 2.290 1_556 S
O460 C454 1.278 . S
O461 Mn444 2.251 1_556 S
O461 C454 1.241 . S
O462 Mn463 2.163 . S
O462 C476 1.244 1_556 S
Mn463 O462 2.163 . S
Mn463 O466 2.160 . S
Mn463 O467 2.221 . S
Mn463 O469 2.163 . S
Mn463 O471 2.160 . S
Mn463 O481 2.221 . S
O464 Mn465 2.087 . S
O464 C476 1.256 . S
Mn465 O464 2.087 . S
Mn465 O472 2.089 . S
Mn465 O481 2.290 1_554 S
Mn465 O482 2.251 1_564 S
O466 Mn463 2.160 . S
O466 C477 1.239 . S
O467 Mn463 2.221 . S
O467 Mn468 2.290 . S
O467 C478 1.278 . S
Mn468 O467 2.290 . S
Mn468 O470 2.089 . S
Mn468 O473 2.251 . S
Mn468 O474 2.087 . S
O469 Mn463 2.163 . S
O469 C479 1.244 . S
O470 Mn468 2.089 . S
O470 C477 1.256 . S
O471 Mn463 2.160 . S
O471 C480 1.239 1_556 S
O472 Mn465 2.089 . S
O472 C480 1.256 . S
O473 Mn468 2.251 . S
O473 C478 1.241 . S
O474 Mn468 2.087 . S
O474 C479 1.256 . S
C475 O481 1.278 1_545 S
C475 O482 1.241 . S
C476 O462 1.244 1_554 S
C476 O464 1.256 . S
C477 O466 1.239 . S
C477 O470 1.256 . S
C478 O467 1.278 . S
C478 O473 1.241 . S
C479 O469 1.244 . S
C479 O474 1.256 . S
C480 O471 1.239 1_554 S
C480 O472 1.256 . S
O481 Mn463 2.221 . S
O481 Mn465 2.290 1_556 S
O481 C475 1.278 1_565 S
O482 Mn465 2.251 1_546 S
O482 C475 1.241 . S
O483 Mn484 2.163 . S
O483 C497 1.244 1_556 S
Mn484 O483 2.163 . S
Mn484 O487 2.160 . S
Mn484 O488 2.221 . S
Mn484 O490 2.163 . S
Mn484 O492 2.160 . S
Mn484 O502 2.221 . S
O485 Mn486 2.087 . S
O485 C497 1.256 . S
Mn486 O485 2.087 . S
Mn486 O493 2.089 . S
Mn486 O502 2.290 1_554 S
Mn486 O503 2.251 1_454 S
O487 Mn484 2.160 . S
O487 C498 1.239 . S
O488 Mn484 2.221 . S
O488 Mn489 2.290 . S
O488 C499 1.278 . S
Mn489 O488 2.290 . S
Mn489 O491 2.089 . S
Mn489 O494 2.251 . S
Mn489 O495 2.087 . S
O490 Mn484 2.163 . S
O490 C500 1.244 . S
O491 Mn489 2.089 . S
O491 C498 1.256 . S
O492 Mn484 2.160 . S
O492 C501 1.239 1_556 S
O493 Mn486 2.089 . S
O493 C501 1.256 . S
O494 Mn489 2.251 . S
O494 C499 1.241 . S
O495 Mn489 2.087 . S
O495 C500 1.256 . S
C496 O502 1.278 1_655 S
C496 O503 1.241 . S
C497 O483 1.244 1_554 S
C497 O485 1.256 . S
C498 O487 1.239 . S
C498 O491 1.256 . S
C499 O488 1.278 . S
C499 O494 1.241 . S
C500 O490 1.244 . S
C500 O495 1.256 . S
C501 O492 1.239 1_554 S
C501 O493 1.256 . S
O502 Mn484 2.221 . S
O502 Mn486 2.290 1_556 S
O502 C496 1.278 1_455 S
O503 Mn486 2.251 1_656 S
O503 C496 1.241 . S
O504 Mn505 2.163 . S
O504 C518 1.244 . S
Mn505 O504 2.163 . S
Mn505 O508 2.160 . S
Mn505 O509 2.221 . S
Mn505 O511 2.163 . S
Mn505 O513 2.160 . S
Mn505 O523 2.221 . S
O506 Mn507 2.087 . S
O506 C518 1.256 . S
Mn507 O506 2.087 . S
Mn507 O514 2.089 . S
Mn507 O523 2.290 . S
Mn507 O524 2.251 . S
O508 Mn505 2.160 . S
O508 C519 1.239 . S
O509 Mn505 2.221 . S
O509 Mn510 2.290 . S
O509 C520 1.278 . S
Mn510 O509 2.290 . S
Mn510 O512 2.089 . S
Mn510 O515 2.251 . S
Mn510 O516 2.087 . S
O511 Mn505 2.163 . S
O511 C521 1.244 . S
O512 Mn510 2.089 . S
O512 C519 1.256 . S
O513 Mn505 2.160 . S
O513 C522 1.239 . S
O514 Mn507 2.089 . S
O514 C522 1.256 . S
O515 Mn510 2.251 . S
O515 C520 1.241 . S
O516 Mn510 2.087 . S
O516 C521 1.256 . S
C517 O523 1.278 . S
C517 O524 1.241 . S
C518 O504 1.244 . S
C518 O506 1.256 . S
C519 O508 1.239 . S
C519 O512 1.256 . S
C520 O509 1.278 . S
C520 O515 1.241 . S
C521 O511 1.244 . S
C521 O516 1.256 . S
C522 O513 1.239 . S
C522 O514 1.256 . S
O523 Mn505 2.221 . S
O523 Mn507 2.290 . S
O523 C517 1.278 . S
O524 Mn507 2.251 . S
O524 C517 1.241 . S
O525 Mn526 2.163 . S
O525 C539 1.244 . S
Mn526 O525 2.163 . S
Mn526 O529 2.160 . S
Mn526 O530 2.221 . S
Mn526 O532 2.163 . S
Mn526 O534 2.160 . S
Mn526 O544 2.221 . S
O527 Mn528 2.087 . S
O527 C539 1.256 . S
Mn528 O527 2.087 . S
Mn528 O535 2.089 . S
Mn528 O544 2.290 . S
Mn528 O545 2.251 . S
O529 Mn526 2.160 . S
O529 C540 1.239 . S
O530 Mn526 2.221 . S
O530 Mn531 2.290 . S
O530 C541 1.278 . S
Mn531 O530 2.290 . S
Mn531 O533 2.089 . S
Mn531 O536 2.251 . S
Mn531 O537 2.087 . S
O532 Mn526 2.163 . S
O532 C542 1.244 . S
O533 Mn531 2.089 . S
O533 C540 1.256 . S
O534 Mn526 2.160 . S
O534 C543 1.239 . S
O535 Mn528 2.089 . S
O535 C543 1.256 . S
O536 Mn531 2.251 . S
O536 C541 1.241 . S
O537 Mn531 2.087 . S
O537 C542 1.256 . S
C538 O544 1.278 . S
C538 O545 1.241 . S
C539 O525 1.244 . S
C539 O527 1.256 . S
C540 O529 1.239 . S
C540 O533 1.256 . S
C541 O530 1.278 . S
C541 O536 1.241 . S
C542 O532 1.244 . S
C542 O537 1.256 . S
C543 O534 1.239 . S
C543 O535 1.256 . S
O544 Mn526 2.221 . S
O544 Mn528 2.290 . S
O544 C538 1.278 . S
O545 Mn528 2.251 . S
O545 C538 1.241 . S
O546 Mn547 2.163 . S
O546 C560 1.244 . S
Mn547 O546 2.163 . S
Mn547 O550 2.160 . S
Mn547 O551 2.221 . S
Mn547 O553 2.163 . S
Mn547 O555 2.160 . S
Mn547 O565 2.221 . S
O548 Mn549 2.087 . S
O548 C560 1.256 . S
Mn549 O548 2.087 . S
Mn549 O556 2.089 . S
Mn549 O565 2.290 . S
Mn549 O566 2.251 . S
O550 Mn547 2.160 . S
O550 C561 1.239 . S
O551 Mn547 2.221 . S
O551 Mn552 2.290 . S
O551 C562 1.278 . S
Mn552 O551 2.290 . S
Mn552 O554 2.089 . S
Mn552 O557 2.251 . S
Mn552 O558 2.087 . S
O553 Mn547 2.163 . S
O553 C563 1.244 . S
O554 Mn552 2.089 . S
O554 C561 1.256 . S
O555 Mn547 2.160 . S
O555 C564 1.239 . S
O556 Mn549 2.089 . S
O556 C564 1.256 . S
O557 Mn552 2.251 . S
O557 C562 1.241 . S
O558 Mn552 2.087 . S
O558 C563 1.256 . S
C559 O565 1.278 . S
C559 O566 1.241 . S
C560 O546 1.244 . S
C560 O548 1.256 . S
C561 O550 1.239 . S
C561 O554 1.256 . S
C562 O551 1.278 . S
C562 O557 1.241 . S
C563 O553 1.244 . S
C563 O558 1.256 . S
C564 O555 1.239 . S
C564 O556 1.256 . S
O565 Mn547 2.221 . S
O565 Mn549 2.290 . S
O565 C559 1.278 . S
O566 Mn549 2.251 . S
O566 C559 1.241 . S
O567 Mn568 2.163 . S
O567 C581 1.244 . S
Mn568 O567 2.163 . S
Mn568 O571 2.160 . S
Mn568 O572 2.221 . S
Mn568 O574 2.163 . S
Mn568 O576 2.160 . S
Mn568 O586 2.221 . S
O569 Mn570 2.087 1_556 S
O569 C581 1.256 1_556 S
Mn570 O569 2.087 1_554 S
Mn570 O577 2.089 1_554 S
Mn570 O586 2.290 . S
Mn570 O587 2.251 . S
O571 Mn568 2.160 . S
O571 C582 1.239 . S
O572 Mn568 2.221 . S
O572 Mn573 2.290 . S
O572 C583 1.278 . S
Mn573 O572 2.290 . S
Mn573 O575 2.089 . S
Mn573 O578 2.251 . S
Mn573 O579 2.087 . S
O574 Mn568 2.163 . S
O574 C584 1.244 . S
O575 Mn573 2.089 . S
O575 C582 1.256 . S
O576 Mn568 2.160 . S
O576 C585 1.230 1_554 S
O577 Mn570 2.089 1_556 S
O577 C585 1.260 . S
O578 Mn573 2.251 . S
O578 C583 1.241 . S
O579 Mn573 2.087 . S
O579 C584 1.256 . S
C580 O586 1.278 . S
C580 O587 1.241 . S
C581 O567 1.244 . S
C581 O569 1.256 1_554 S
C582 O571 1.239 . S
C582 O575 1.256 . S
C583 O572 1.278 . S
C583 O578 1.241 . S
C584 O574 1.244 . S
C584 O579 1.256 . S
C585 O576 1.230 1_556 S
C585 O577 1.260 . S
O586 Mn568 2.221 . S
O586 Mn570 2.290 . S
O586 C580 1.278 . S
O587 Mn570 2.251 . S
O587 C580 1.241 . S
O588 Mn589 2.163 . S
O588 C602 1.244 . S
Mn589 O588 2.163 . S
Mn589 O592 2.160 . S
Mn589 O593 2.221 . S
Mn589 O595 2.163 . S
Mn589 O597 2.160 . S
Mn589 O607 2.221 . S
O590 Mn591 2.087 1_556 S
O590 C602 1.256 1_556 S
Mn591 O590 2.087 1_554 S
Mn591 O598 2.089 1_554 S
Mn591 O607 2.290 . S
Mn591 O608 2.251 1_545 S
O592 Mn589 2.160 . S
O592 C603 1.239 . S
O593 Mn589 2.221 . S
O593 Mn594 2.290 . S
O593 C604 1.278 . S
Mn594 O593 2.290 . S
Mn594 O596 2.089 . S
Mn594 O599 2.251 . S
Mn594 O600 2.087 . S
O595 Mn589 2.163 . S
O595 C605 1.244 . S
O596 Mn594 2.089 . S
O596 C603 1.256 . S
O597 Mn589 2.160 . S
O597 C606 1.230 1_554 S
O598 Mn591 2.089 1_556 S
O598 C606 1.260 . S
O599 Mn594 2.251 . S
O599 C604 1.241 . S
O600 Mn594 2.087 . S
O600 C605 1.256 . S
C601 O607 1.278 1_565 S
C601 O608 1.241 . S
C602 O588 1.244 . S
C602 O590 1.256 1_554 S
C603 O592 1.239 . S
C603 O596 1.256 . S
C604 O593 1.278 . S
C604 O599 1.241 . S
C605 O595 1.244 . S
C605 O600 1.256 . S
C606 O597 1.230 1_556 S
C606 O598 1.260 . S
O607 Mn589 2.221 . S
O607 Mn591 2.290 . S
O607 C601 1.278 1_545 S
O608 Mn591 2.251 1_565 S
O608 C601 1.241 . S
O609 Mn610 2.163 . S
O609 C623 1.244 . S
Mn610 O609 2.163 . S
Mn610 O613 2.160 . S
Mn610 O614 2.221 . S
Mn610 O616 2.163 . S
Mn610 O618 2.160 . S
Mn610 O628 2.221 . S
O611 Mn612 2.087 1_556 S
O611 C623 1.256 1_556 S
Mn612 O611 2.087 1_554 S
Mn612 O619 2.089 1_554 S
Mn612 O628 2.290 . S
Mn612 O629 2.251 1_655 S
O613 Mn610 2.160 . S
O613 C624 1.239 . S
O614 Mn610 2.221 . S
O614 Mn615 2.290 . S
O614 C625 1.278 . S
Mn615 O614 2.290 . S
Mn615 O617 2.089 . S
Mn615 O620 2.251 . S
Mn615 O621 2.087 . S
O616 Mn610 2.163 . S
O616 C626 1.244 . S
O617 Mn615 2.089 . S
O617 C624 1.256 . S
O618 Mn610 2.160 . S
O618 C627 1.229 1_554 S
O619 Mn612 2.089 1_556 S
O619 C627 1.261 . S
O620 Mn615 2.251 . S
O620 C625 1.241 . S
O621 Mn615 2.087 . S
O621 C626 1.256 . S
C622 O628 1.278 1_455 S
C622 O629 1.241 . S
C623 O609 1.244 . S
C623 O611 1.256 1_554 S
C624 O613 1.239 . S
C624 O617 1.256 . S
C625 O614 1.278 . S
C625 O620 1.241 . S
C626 O616 1.244 . S
C626 O621 1.256 . S
C627 O618 1.229 1_556 S
C627 O619 1.261 . S
O628 Mn610 2.221 . S
O628 Mn612 2.290 . S
O628 C622 1.278 1_655 S
O629 Mn612 2.251 1_455 S
O629 C622 1.241 . S
O630 Mn631 2.163 . S
O630 C644 1.244 . S
Mn631 O630 2.163 . S
Mn631 O634 2.160 . S
Mn631 O635 2.221 . S
Mn631 O637 2.163 . S
Mn631 O639 2.160 . S
Mn631 O649 2.221 . S
O632 Mn633 2.087 . S
O632 C644 1.256 . S
Mn633 O632 2.087 . S
Mn633 O640 2.089 . S
Mn633 O649 2.290 . S
Mn633 O650 2.251 . S
O634 Mn631 2.160 . S
O634 C645 1.239 . S
O635 Mn631 2.221 . S
O635 Mn636 2.290 . S
O635 C646 1.278 . S
Mn636 O635 2.290 . S
Mn636 O638 2.089 . S
Mn636 O641 2.251 . S
Mn636 O642 2.087 . S
O637 Mn631 2.163 . S
O637 C647 1.244 . S
O638 Mn636 2.089 . S
O638 C645 1.256 . S
O639 Mn631 2.160 . S
O639 C648 1.239 . S
O640 Mn633 2.089 . S
O640 C648 1.256 . S
O641 Mn636 2.251 . S
O641 C646 1.241 . S
O642 Mn636 2.087 . S
O642 C647 1.256 . S
C643 O649 1.278 . S
C643 O650 1.241 . S
C644 O630 1.244 . S
C644 O632 1.256 . S
C645 O634 1.239 . S
C645 O638 1.256 . S
C646 O635 1.278 . S
C646 O641 1.241 . S
C647 O637 1.244 . S
C647 O642 1.256 . S
C648 O639 1.239 . S
C648 O640 1.256 . S
O649 Mn631 2.221 . S
O649 Mn633 2.290 . S
O649 C643 1.278 . S
O650 Mn633 2.251 . S
O650 C643 1.241 . S
O651 Mn652 2.163 . S
O651 C665 1.244 . S
Mn652 O651 2.163 . S
Mn652 O655 2.160 . S
Mn652 O656 2.221 . S
Mn652 O658 2.163 . S
Mn652 O660 2.160 . S
Mn652 O670 2.221 . S
O653 Mn654 2.087 . S
O653 C665 1.256 . S
Mn654 O653 2.087 . S
Mn654 O661 2.089 . S
Mn654 O670 2.290 . S
Mn654 O671 2.251 1_545 S
O655 Mn652 2.160 . S
O655 C666 1.239 . S
O656 Mn652 2.221 . S
O656 Mn657 2.290 . S
O656 C667 1.278 . S
Mn657 O656 2.290 . S
Mn657 O659 2.089 . S
Mn657 O662 2.251 . S
Mn657 O663 2.087 . S
O658 Mn652 2.163 . S
O658 C668 1.244 . S
O659 Mn657 2.089 . S
O659 C666 1.256 . S
O660 Mn652 2.160 . S
O660 C669 1.239 . S
O661 Mn654 2.089 . S
O661 C669 1.256 . S
O662 Mn657 2.251 . S
O662 C667 1.241 . S
O663 Mn657 2.087 . S
O663 C668 1.256 . S
C664 O670 1.278 1_565 S
C664 O671 1.241 . S
C665 O651 1.244 . S
C665 O653 1.256 . S
C666 O655 1.239 . S
C666 O659 1.256 . S
C667 O656 1.278 . S
C667 O662 1.241 . S
C668 O658 1.244 . S
C668 O663 1.256 . S
C669 O660 1.239 . S
C669 O661 1.256 . S
O670 Mn652 2.221 . S
O670 Mn654 2.290 . S
O670 C664 1.278 1_545 S
O671 Mn654 2.251 1_565 S
O671 C664 1.241 . S
O672 Mn673 2.163 . S
O672 C686 1.244 . S
Mn673 O672 2.163 . S
Mn673 O676 2.160 . S
Mn673 O677 2.221 . S
Mn673 O679 2.163 . S
Mn673 O681 2.160 . S
Mn673 O691 2.221 . S
O674 Mn675 2.087 . S
O674 C686 1.256 . S
Mn675 O674 2.087 . S
Mn675 O682 2.089 . S
Mn675 O691 2.290 . S
Mn675 O692 2.251 1_655 S
O676 Mn673 2.160 . S
O676 C687 1.239 . S
O677 Mn673 2.221 . S
O677 Mn678 2.290 . S
O677 C688 1.278 . S
Mn678 O677 2.290 . S
Mn678 O680 2.089 . S
Mn678 O683 2.251 . S
Mn678 O684 2.087 . S
O679 Mn673 2.163 . S
O679 C689 1.244 . S
O680 Mn678 2.089 . S
O680 C687 1.256 . S
O681 Mn673 2.160 . S
O681 C690 1.239 . S
O682 Mn675 2.089 . S
O682 C690 1.256 . S
O683 Mn678 2.251 . S
O683 C688 1.241 . S
O684 Mn678 2.087 . S
O684 C689 1.256 . S
C685 O691 1.278 1_455 S
C685 O692 1.241 . S
C686 O672 1.244 . S
C686 O674 1.256 . S
C687 O676 1.239 . S
C687 O680 1.256 . S
C688 O677 1.278 . S
C688 O683 1.241 . S
C689 O679 1.244 . S
C689 O684 1.256 . S
C690 O681 1.239 . S
C690 O682 1.256 . S
O691 Mn673 2.221 . S
O691 Mn675 2.290 . S
O691 C685 1.278 1_655 S
O692 Mn675 2.251 1_455 S
O692 C685 1.241 . S
O693 Mn694 2.163 . S
O693 C707 1.244 . S
Mn694 O693 2.163 . S
Mn694 O697 2.160 . S
Mn694 O698 2.221 . S
Mn694 O700 2.163 . S
Mn694 O702 2.160 . S
Mn694 O712 2.221 . S
O695 Mn696 2.087 . S
O695 C707 1.256 . S
Mn696 O695 2.087 . S
Mn696 O703 2.089 . S
Mn696 O712 2.290 . S
Mn696 O713 2.251 . S
O697 Mn694 2.160 . S
O697 C708 1.239 1_554 S
O698 Mn694 2.221 . S
O698 Mn699 2.290 1_554 S
O698 C709 1.278 . S
Mn699 O698 2.290 1_556 S
Mn699 O701 2.089 . S
Mn699 O704 2.251 1_556 S
Mn699 O705 2.087 . S
O700 Mn694 2.163 . S
O700 C710 1.244 1_554 S
O701 Mn699 2.089 . S
O701 C708 1.256 . S
O702 Mn694 2.160 . S
O702 C711 1.239 . S
O703 Mn696 2.089 . S
O703 C711 1.256 . S
O704 Mn699 2.251 1_554 S
O704 C709 1.241 . S
O705 Mn699 2.087 . S
O705 C710 1.256 . S
C706 O712 1.278 . S
C706 O713 1.241 . S
C707 O693 1.244 . S
C707 O695 1.256 . S
C708 O697 1.239 1_556 S
C708 O701 1.256 . S
C709 O698 1.278 . S
C709 O704 1.241 . S
C710 O700 1.244 1_556 S
C710 O705 1.256 . S
C711 O702 1.239 . S
C711 O703 1.256 . S
O712 Mn694 2.221 . S
O712 Mn696 2.290 . S
O712 C706 1.278 . S
O713 Mn696 2.251 . S
O713 C706 1.241 . S
O714 Mn715 2.163 . S
O714 C728 1.244 . S
Mn715 O714 2.163 . S
Mn715 O718 2.160 . S
Mn715 O719 2.221 . S
Mn715 O721 2.163 . S
Mn715 O723 2.160 . S
Mn715 O733 2.221 . S
O716 Mn717 2.087 . S
O716 C728 1.256 . S
Mn717 O716 2.087 . S
Mn717 O724 2.089 . S
Mn717 O733 2.290 . S
Mn717 O734 2.251 . S
O718 Mn715 2.160 . S
O718 C729 1.239 1_554 S
O719 Mn715 2.221 . S
O719 Mn720 2.290 1_554 S
O719 C730 1.278 . S
Mn720 O719 2.290 1_556 S
Mn720 O722 2.089 . S
Mn720 O725 2.251 1_556 S
Mn720 O726 2.087 . S
O721 Mn715 2.163 . S
O721 C731 1.244 1_554 S
O722 Mn720 2.089 . S
O722 C729 1.256 . S
O723 Mn715 2.160 . S
O723 C732 1.239 . S
O724 Mn717 2.089 . S
O724 C732 1.256 . S
O725 Mn720 2.251 1_554 S
O725 C730 1.241 . S
O726 Mn720 2.087 . S
O726 C731 1.256 . S
C727 O733 1.278 . S
C727 O734 1.241 . S
C728 O714 1.244 . S
C728 O716 1.256 . S
C729 O718 1.239 1_556 S
C729 O722 1.256 . S
C730 O719 1.278 . S
C730 O725 1.241 . S
C731 O721 1.244 1_556 S
C731 O726 1.256 . S
C732 O723 1.239 . S
C732 O724 1.256 . S
O733 Mn715 2.221 . S
O733 Mn717 2.290 . S
O733 C727 1.278 . S
O734 Mn717 2.251 . S
O734 C727 1.241 . S
O735 Mn736 2.163 . S
O735 C749 1.244 . S
Mn736 O735 2.163 . S
Mn736 O739 2.160 . S
Mn736 O740 2.221 . S
Mn736 O742 2.163 . S
Mn736 O744 2.160 . S
Mn736 O754 2.221 . S
O737 Mn738 2.087 . S
O737 C749 1.256 . S
Mn738 O737 2.087 . S
Mn738 O745 2.089 . S
Mn738 O754 2.290 . S
Mn738 O755 2.251 . S
O739 Mn736 2.160 . S
O739 C750 1.239 1_554 S
O740 Mn736 2.221 . S
O740 Mn741 2.290 1_554 S
O740 C751 1.278 . S
Mn741 O740 2.290 1_556 S
Mn741 O743 2.089 . S
Mn741 O746 2.251 1_556 S
Mn741 O747 2.087 . S
O742 Mn736 2.163 . S
O742 C752 1.244 1_554 S
O743 Mn741 2.089 . S
O743 C750 1.256 . S
O744 Mn736 2.160 . S
O744 C753 1.239 . S
O745 Mn738 2.089 . S
O745 C753 1.256 . S
O746 Mn741 2.251 1_554 S
O746 C751 1.241 . S
O747 Mn741 2.087 . S
O747 C752 1.256 . S
C748 O754 1.278 . S
C748 O755 1.241 . S
C749 O735 1.244 . S
C749 O737 1.256 . S
C750 O739 1.239 1_556 S
C750 O743 1.256 . S
C751 O740 1.278 . S
C751 O746 1.241 . S
C752 O742 1.244 1_556 S
C752 O747 1.256 . S
C753 O744 1.239 . S
C753 O745 1.256 . S
O754 Mn736 2.221 . S
O754 Mn738 2.290 . S
O754 C748 1.278 . S
O755 Mn738 2.251 . S
O755 C748 1.241 . S
C328 C13 1.711 1_556 S
C349 C34 1.711 1_556 S
C55 C370 1.712 1_554 S
C76 C517 1.710 . S
C97 C538 1.711 . S
C118 C559 1.711 . S
C706 C139 1.710 . S
C727 C160 1.711 . S
C181 C748 1.711 . S
C391 C202 1.711 . S
C223 C412 1.712 . S
C244 C433 1.711 . S
C580 C265 1.710 . S
C286 C601 1.711 1_545 S
C622 C307 1.712 1_455 S
C643 C454 1.710 . S
C664 C475 1.712 1_565 S
C496 C685 1.711 1_655 S
C17 C101 1.191 1_455 S
C38 C122 1.191 . S
C59 C80 1.191 1_565 S
C143 C227 1.191 1_655 S
C164 C248 1.191 . S
C185 C206 1.191 1_545 S
C269 C353 1.191 . S
C374 C290 1.191 . S
C311 C332 1.191 . S
C395 C479 1.191 . S
C416 C500 1.191 . S
C458 C437 1.191 . S
C521 C605 1.191 . S
C626 C542 1.191 . S
C563 C584 1.191 . S
C647 C731 1.191 . S
C668 C752 1.191 . S
C689 C710 1.191 . S
C228 C15 1.615 . S
C36 C249 1.615 . S
C57 C207 1.615 . S
C78 C186 1.616 . S
C99 C144 1.615 . S
C165 C120 1.615 . S
C141 C102 1.615 . S
C123 C162 1.615 . S
C183 C81 1.615 . S
C204 C60 1.615 . S
C18 C225 1.615 . S
C39 C246 1.616 . S
C480 C267 1.616 . S
C501 C288 1.615 . S
C459 C309 1.615 . S
C438 C330 1.616 . S
C351 C396 1.615 . S
C417 C372 1.616 . S
C354 C393 1.615 . S
C414 C375 1.615 . S
C435 C333 1.615 . S
C312 C456 1.616 . S
C477 C270 1.615 . S
C498 C291 1.615 . S
C519 C732 1.616 . S
C540 C753 1.615 . S
C711 C561 1.615 . S
C690 C582 1.615 . S
C603 C648 1.615 . S
C669 C624 1.615 . S
C645 C606 1.620 . S
C627 C666 1.621 . S
C687 C585 1.620 . S
C708 C564 1.615 . S
C522 C729 1.616 . S
C543 C750 1.615 . S
C14 C98 2.166 1_455 S
C119 C35 2.166 . S
C56 C77 2.166 1_565 S
C140 C224 2.166 1_655 S
C245 C161 2.166 . S
C182 C203 2.166 1_545 S
C350 C266 2.166 . S
C371 C287 2.166 . S
C329 C308 2.166 . S
C476 C392 2.166 . S
C413 C497 2.166 . S
C455 C434 2.166 . S
C602 C518 2.166 1_554 S
C539 C623 2.166 1_556 S
C560 C581 2.166 1_556 S
C728 C644 2.166 . S
C665 C749 2.166 . S
C686 C707 2.166 . S
C16 C142 1.046 1_655 S
C37 C163 1.045 . S
C184 C58 1.045 1_565 S
C205 C79 1.046 1_545 S
C100 C226 1.045 1_455 S
C121 C247 1.045 . S
C394 C268 1.046 . S
C289 C415 1.045 . S
C436 C310 1.045 . S
C457 C331 1.045 . S
C478 C352 1.045 . S
C499 C373 1.045 . S
C646 C520 1.045 . S
C541 C667 1.045 . S
C688 C562 1.045 . S
C709 C583 1.045 . S
C730 C604 1.045 . S
C625 C751 1.045 . S
