# Generated by pormake.
# Topology uol, (4)-cn, num edge types: 1
# Building blocks:
#     Node 0, Type 0, BuildingBlock: KUFVIS_clean_sbu_0, # of connection points: 4
#     Node 1, Type 0, BuildingBlock: KUFVIS_clean_sbu_0, # of connection points: 4
#     Node 2, Type 0, BuildingBlock: KUFVIS_clean_sbu_0, # of connection points: 4
#     Node 3, Type 0, BuildingBlock: KUFVIS_clean_sbu_0, # of connection points: 4
#     Node 4, Type 0, BuildingBlock: KUFVIS_clean_sbu_0, # of connection points: 4
#     Node 5, Type 0, BuildingBlock: KUFVIS_clean_sbu_0, # of connection points: 4
#     Node 6, Type 0, BuildingBlock: KUFVIS_clean_sbu_0, # of connection points: 4
#     Node 7, Type 0, BuildingBlock: KUFVIS_clean_sbu_0, # of connection points: 4
#     Node 8, Type 0, BuildingBlock: KUFVIS_clean_sbu_0, # of connection points: 4
#     Node 9, Type 0, BuildingBlock: KUFVIS_clean_sbu_0, # of connection points: 4
#     Node 10, Type 0, BuildingBlock: KUFVIS_clean_sbu_0, # of connection points: 4
#     Node 11, Type 0, BuildingBlock: KUFVIS_clean_sbu_0, # of connection points: 4
#     Edge 12, Type (0, 0), BuildingBlock: EYOCIG_clean_linker_4, # of connection points: 2
#     Edge 13, Type (0, 0), BuildingBlock: EYOCIG_clean_linker_4, # of connection points: 2
#     Edge 14, Type (0, 0), BuildingBlock: EYOCIG_clean_linker_4, # of connection points: 2
#     Edge 15, Type (0, 0), BuildingBlock: EYOCIG_clean_linker_4, # of connection points: 2
#     Edge 16, Type (0, 0), BuildingBlock: EYOCIG_clean_linker_4, # of connection points: 2
#     Edge 17, Type (0, 0), BuildingBlock: EYOCIG_clean_linker_4, # of connection points: 2
#     Edge 18, Type (0, 0), BuildingBlock: EYOCIG_clean_linker_4, # of connection points: 2
#     Edge 19, Type (0, 0), BuildingBlock: EYOCIG_clean_linker_4, # of connection points: 2
#     Edge 20, Type (0, 0), BuildingBlock: EYOCIG_clean_linker_4, # of connection points: 2
#     Edge 21, Type (0, 0), BuildingBlock: EYOCIG_clean_linker_4, # of connection points: 2
#     Edge 22, Type (0, 0), BuildingBlock: EYOCIG_clean_linker_4, # of connection points: 2
#     Edge 23, Type (0, 0), BuildingBlock: EYOCIG_clean_linker_4, # of connection points: 2
#     Edge 24, Type (0, 0), BuildingBlock: EYOCIG_clean_linker_4, # of connection points: 2
#     Edge 25, Type (0, 0), BuildingBlock: EYOCIG_clean_linker_4, # of connection points: 2
#     Edge 26, Type (0, 0), BuildingBlock: EYOCIG_clean_linker_4, # of connection points: 2
#     Edge 27, Type (0, 0), BuildingBlock: EYOCIG_clean_linker_4, # of connection points: 2
#     Edge 28, Type (0, 0), BuildingBlock: EYOCIG_clean_linker_4, # of connection points: 2
#     Edge 29, Type (0, 0), BuildingBlock: EYOCIG_clean_linker_4, # of connection points: 2
#     Edge 30, Type (0, 0), BuildingBlock: EYOCIG_clean_linker_4, # of connection points: 2
#     Edge 31, Type (0, 0), BuildingBlock: EYOCIG_clean_linker_4, # of connection points: 2
#     Edge 32, Type (0, 0), BuildingBlock: EYOCIG_clean_linker_4, # of connection points: 2
#     Edge 33, Type (0, 0), BuildingBlock: EYOCIG_clean_linker_4, # of connection points: 2
#     Edge 34, Type (0, 0), BuildingBlock: EYOCIG_clean_linker_4, # of connection points: 2
#     Edge 35, Type (0, 0), BuildingBlock: EYOCIG_clean_linker_4, # of connection points: 2
# Relax obj value: 0.138
# Max RMSD: 0.196
# Mean RMSD: 0.196
data_MOF--net-uol--node1-KUFVIS_clean_sbu_0--edge1-EYOCIG_clean_linker_4
_symmetry_space_group_name_H-M    P1
_symmetry_Int_Tables_number       1
_symmetry_cell_setting            triclinic
loop_
_symmetry_equiv_pos_as_xyz
'x, y, z'
_cell_length_a     25.941593
_cell_length_b     25.927
_cell_length_c     51.612872
_cell_angle_alpha  89.984901
_cell_angle_beta   90.025102
_cell_angle_gamma 119.99969
loop_
_atom_site_label
_atom_site_type_symbol
_atom_site_fract_x
_atom_site_fract_y
_atom_site_fract_z
_atom_type_partial_charge
Mn0 Mn 0.13873 0.32938 0.11971 0.0
Mn1 Mn 0.17434 0.39546 0.17865 0.0
C2 C 0.17454 0.29343 0.15152 0.0
C3 C 0.16723 0.32336 0.07759 0.0
C4 C 0.04783 0.30735 0.16256 0.0
O5 O 0.14075 0.40768 0.11313 0.0
O6 O 0.16686 0.44868 0.15293 0.0
C7 C 0.29547 0.49038 0.16394 0.0
N8 N 0.25923 0.44381 0.17955 0.0
C9 C 0.34333 0.45033 0.20231 0.0
C10 C 0.38149 0.49857 0.18657 0.0
C11 C 0.35744 0.51863 0.1673 0.0
C12 C 0.28197 0.42381 0.19799 0.0
H13 H 0.27727 0.50558 0.14891 0.0
C14 C 0.15354 0.44976 0.12915 0.0
O15 O 0.11145 0.3014 0.08348 0.0
O16 O 0.20611 0.35132 0.09556 0.0
N17 N 0.18384 0.35056 0.20583 0.0
C18 C 0.14088 0.30433 0.21974 0.0
C19 C 0.15739 0.28046 0.24045 0.0
C20 C 0.21781 0.30456 0.24676 0.0
C21 C 0.26119 0.35267 0.23241 0.0
C22 C 0.24198 0.37529 0.21228 0.0
H23 H 0.09433 0.28593 0.21513 0.0
O24 O 0.14651 0.26053 0.13177 0.0
O25 O 0.18249 0.34706 0.15174 0.0
O26 O 0.05962 0.29748 0.13962 0.0
O27 O 0.08674 0.34347 0.17865 0.0
C28 C 0.32273 0.37878 0.23716 0.0
C29 C 0.3638 0.42728 0.22198 0.0
H30 H 0.42932 0.52038 0.18906 0.0
H31 H 0.38661 0.55565 0.15499 0.0
H32 H 0.12363 0.24354 0.25152 0.0
H33 H 0.23039 0.28564 0.26258 0.0
H34 H 0.33896 0.3617 0.25235 0.0
H35 H 0.41102 0.44668 0.22567 0.0
Mn36 Mn 0.79591 0.14549 0.28631 0.0
Mn37 Mn 0.76561 0.18121 0.34526 0.0
C38 C 0.86767 0.18123 0.31811 0.0
C39 C 0.83043 0.17395 0.24419 0.0
C40 C 0.72698 0.05459 0.32919 0.0
O41 O 0.71973 0.14765 0.27974 0.0
O42 O 0.70493 0.17378 0.31954 0.0
C43 C 0.79201 0.30245 0.33052 0.0
N44 N 0.80227 0.26615 0.34613 0.0
C45 C 0.87993 0.35026 0.36887 0.0
C46 C 0.86993 0.38848 0.35313 0.0
C47 C 0.8258 0.36445 0.33386 0.0
C48 C 0.84501 0.28887 0.36457 0.0
H49 H 0.75859 0.28426 0.3155 0.0
C50 C 0.69051 0.16047 0.29576 0.0
O51 O 0.79651 0.11815 0.25009 0.0
O52 O 0.84142 0.21288 0.26215 0.0
N53 N 0.81999 0.19066 0.37243 0.0
C54 C 0.82316 0.14763 0.38635 0.0
C55 C 0.86354 0.16412 0.40706 0.0
C56 C 0.89994 0.22457 0.41335 0.0
C57 C 0.8953 0.26801 0.39899 0.0
C58 C 0.85347 0.24883 0.37887 0.0
H59 H 0.79496 0.10107 0.38175 0.0
O60 O 0.87245 0.15315 0.29837 0.0
O61 O 0.82208 0.18928 0.31834 0.0
O62 O 0.7486 0.06636 0.30624 0.0
O63 O 0.72987 0.09354 0.34527 0.0
C64 C 0.9308 0.32957 0.40372 0.0
C65 C 0.92344 0.3707 0.38854 0.0
H66 H 0.89599 0.43632 0.35561 0.0
H67 H 0.81801 0.39367 0.32155 0.0
H68 H 0.86663 0.13032 0.41813 0.0
H69 H 0.93144 0.23713 0.42917 0.0
H70 H 0.9641 0.34578 0.41891 0.0
H71 H 0.95132 0.41795 0.39222 0.0
Mn72 Mn 0.63673 0.8026 0.453 0.0
Mn73 Mn 0.57072 0.77226 0.51194 0.0
C74 C 0.67266 0.87445 0.48477 0.0
C75 C 0.64276 0.83707 0.41085 0.0
C76 C 0.65879 0.73379 0.49591 0.0
O77 O 0.55846 0.72631 0.44645 0.0
O78 O 0.51752 0.71148 0.48624 0.0
C79 C 0.4758 0.79846 0.49718 0.0
N80 N 0.52238 0.80882 0.51279 0.0
C81 C 0.51585 0.88648 0.53549 0.0
C82 C 0.46761 0.87637 0.51975 0.0
C83 C 0.44755 0.83219 0.50051 0.0
C84 C 0.54237 0.85161 0.53121 0.0
H85 H 0.4606 0.765 0.48218 0.0
C86 C 0.51642 0.69704 0.46247 0.0
O87 O 0.66469 0.80321 0.41679 0.0
O88 O 0.6148 0.84803 0.42881 0.0
N89 N 0.61561 0.82672 0.53909 0.0
C90 C 0.66182 0.82999 0.55302 0.0
C91 C 0.68569 0.87044 0.57371 0.0
C92 C 0.6616 0.9068 0.57998 0.0
C93 C 0.6135 0.90205 0.56561 0.0
C94 C 0.59088 0.86017 0.54551 0.0
H95 H 0.68023 0.80183 0.54843 0.0
O96 O 0.70553 0.87926 0.46503 0.0
O97 O 0.61906 0.82877 0.485 0.0
O98 O 0.66862 0.75539 0.47296 0.0
O99 O 0.6227 0.73661 0.51198 0.0
C100 C 0.58739 0.93751 0.57033 0.0
C101 C 0.53889 0.93005 0.55514 0.0
H102 H 0.44579 0.90239 0.52222 0.0
H103 H 0.41052 0.82432 0.4882 0.0
H104 H 0.7226 0.8736 0.58478 0.0
H105 H 0.68052 0.93834 0.59578 0.0
H106 H 0.60446 0.97085 0.5855 0.0
H107 H 0.51949 0.95789 0.5588 0.0
Mn108 Mn 0.82089 0.64395 0.61975 0.0
Mn109 Mn 0.78531 0.57782 0.67868 0.0
C110 C 0.78501 0.67981 0.65154 0.0
C111 C 0.79239 0.64999 0.57761 0.0
C112 C 0.9118 0.66601 0.66262 0.0
O113 O 0.81894 0.56569 0.61317 0.0
O114 O 0.79283 0.52463 0.65296 0.0
C115 C 0.6642 0.48284 0.66395 0.0
N116 N 0.70043 0.52942 0.67956 0.0
C117 C 0.61631 0.52283 0.70229 0.0
C118 C 0.57816 0.47458 0.68656 0.0
C119 C 0.60224 0.45455 0.66729 0.0
C120 C 0.67768 0.54939 0.69799 0.0
H121 H 0.68242 0.46766 0.64893 0.0
C122 C 0.80617 0.52359 0.62918 0.0
O123 O 0.84818 0.67198 0.58353 0.0
O124 O 0.75351 0.62198 0.59558 0.0
N125 N 0.77579 0.62269 0.70584 0.0
C126 C 0.81874 0.66893 0.71976 0.0
C127 C 0.80221 0.69279 0.74046 0.0
C128 C 0.74179 0.66866 0.74675 0.0
C129 C 0.69842 0.62052 0.7324 0.0
C130 C 0.71765 0.59792 0.71229 0.0
H131 H 0.86528 0.68738 0.71516 0.0
O132 O 0.81303 0.71274 0.6318 0.0
O133 O 0.77711 0.6262 0.65176 0.0
O134 O 0.9 0.67589 0.63968 0.0
O135 O 0.87291 0.62985 0.6787 0.0
C136 C 0.63688 0.59438 0.73713 0.0
C137 C 0.59583 0.54586 0.72195 0.0
H138 H 0.53034 0.45274 0.68903 0.0
H139 H 0.57307 0.41752 0.65498 0.0
H140 H 0.83596 0.72973 0.75152 0.0
H141 H 0.72919 0.68757 0.76256 0.0
H142 H 0.62064 0.61143 0.75231 0.0
H143 H 0.5486 0.52643 0.72563 0.0
Mn144 Mn 0.16386 0.82791 0.7864 0.0
Mn145 Mn 0.1943 0.79219 0.84533 0.0
C146 C 0.09214 0.79208 0.81819 0.0
C147 C 0.1293 0.79947 0.74427 0.0
C148 C 0.2328 0.9188 0.82928 0.0
O149 O 0.24007 0.82584 0.77982 0.0
O150 O 0.25496 0.79967 0.81961 0.0
C151 C 0.16797 0.67099 0.83059 0.0
N152 N 0.1577 0.70725 0.84621 0.0
C153 C 0.08009 0.6231 0.86893 0.0
C154 C 0.09011 0.58492 0.85319 0.0
C155 C 0.13422 0.60898 0.83393 0.0
C156 C 0.11497 0.6845 0.86464 0.0
H157 H 0.20137 0.6892 0.81558 0.0
C158 C 0.26934 0.81301 0.79583 0.0
O159 O 0.16318 0.85527 0.75018 0.0
O160 O 0.11836 0.76054 0.76223 0.0
N161 N 0.13995 0.78269 0.8725 0.0
C162 C 0.13675 0.82569 0.88642 0.0
C163 C 0.09638 0.80917 0.90712 0.0
C164 C 0.06001 0.74871 0.9134 0.0
C165 C 0.06468 0.7053 0.89905 0.0
C166 C 0.1065 0.72452 0.87893 0.0
H167 H 0.16492 0.87226 0.88182 0.0
O168 O 0.0873 0.82016 0.79846 0.0
O169 O 0.13777 0.78409 0.81842 0.0
O170 O 0.21114 0.90703 0.80633 0.0
O171 O 0.22999 0.87985 0.84535 0.0
C172 C 0.02921 0.64373 0.90378 0.0
C173 C 0.03659 0.60263 0.88859 0.0
H174 H 0.06407 0.53707 0.85567 0.0
H175 H 0.14202 0.57979 0.82162 0.0
H176 H 0.09327 0.84295 0.91819 0.0
H177 H 0.02852 0.73612 0.92922 0.0
H178 H -0.00408 0.62749 0.91895 0.0
H179 H 0.00873 0.55538 0.89227 0.0
Mn180 Mn 0.32294 0.17087 0.95305 0.0
Mn181 Mn 0.38902 0.20132 1.012 0.0
C182 C 0.28705 0.09908 0.98484 0.0
C183 C 0.31687 0.13634 0.91092 0.0
C184 C 0.3009 0.23973 0.99592 0.0
O185 O 0.40119 0.24716 0.94649 0.0
O186 O 0.44219 0.26205 0.98628 0.0
C187 C 0.48393 0.17511 0.99728 0.0
N188 N 0.43738 0.16476 1.01288 0.0
C189 C 0.44394 0.08714 0.03562 0.0
C190 C 0.49216 0.09723 1.01989 0.0
C191 C 0.5122 0.14138 1.00063 0.0
C192 C 0.41741 0.122 0.03132 0.0
H193 H 0.49911 0.20854 0.98227 0.0
C194 C 0.44326 0.27645 0.9625 0.0
O195 O 0.29494 0.1702 0.91683 0.0
O196 O 0.34486 0.12541 0.92889 0.0
N197 N 0.34418 0.14689 0.03916 0.0
C198 C 0.29798 0.14363 0.05308 0.0
C199 C 0.27414 0.10322 0.07378 0.0
C200 C 0.29824 0.06687 0.08007 0.0
C201 C 0.34632 0.0716 0.06572 0.0
C202 C 0.36891 0.11346 0.0456 0.0
H203 H 0.27957 0.17179 0.04848 0.0
O204 O 0.25416 0.09423 0.9651 0.0
O205 O 0.34065 0.14476 0.98508 0.0
O206 O 0.29106 0.2181 0.97298 0.0
O207 O 0.33703 0.23695 1.01201 0.0
C208 C 0.37244 0.03615 0.07045 0.0
C209 C 0.42092 0.0436 0.05528 0.0
H210 H 0.51398 0.07121 1.02237 0.0
H211 H 0.5492 0.14924 0.98833 0.0
H212 H 0.23724 0.10006 0.08484 0.0
H213 H 0.27934 0.03535 0.09588 0.0
H214 H 0.35539 0.00283 0.08563 0.0
H215 H 0.44033 0.01576 0.05896 0.0
Mn216 Mn 0.63681 0.82781 0.76778 0.0
Mn217 Mn 0.57066 0.79204 0.70885 0.0
C218 C 0.67269 0.79191 0.736 0.0
C219 C 0.64296 0.79942 0.80992 0.0
C220 C 0.65875 0.91866 0.72487 0.0
O221 O 0.55855 0.82578 0.77435 0.0
O222 O 0.51751 0.79959 0.73456 0.0
C223 C 0.47581 0.67088 0.72362 0.0
N224 N 0.52233 0.70711 0.708 0.0
C225 C 0.51579 0.6229 0.68531 0.0
C226 C 0.4676 0.58476 0.70105 0.0
C227 C 0.44756 0.60887 0.7203 0.0
C228 C 0.5423 0.68431 0.68958 0.0
H229 H 0.46063 0.68913 0.73863 0.0
C230 C 0.51647 0.81296 0.75834 0.0
O231 O 0.66486 0.85521 0.80399 0.0
O232 O 0.61496 0.76046 0.79197 0.0
N233 N 0.61549 0.78248 0.68169 0.0
C234 C 0.66166 0.82544 0.66776 0.0
C235 C 0.6855 0.80887 0.64707 0.0
C236 C 0.66142 0.7484 0.6408 0.0
C237 C 0.61336 0.70502 0.65517 0.0
C238 C 0.59077 0.72429 0.67528 0.0
H239 H 0.68006 0.87202 0.67234 0.0
O240 O 0.7056 0.82001 0.75573 0.0
O241 O 0.61908 0.78394 0.73578 0.0
O242 O 0.66864 0.90691 0.74782 0.0
O243 O 0.62262 0.8797 0.7088 0.0
C244 C 0.58726 0.64344 0.65046 0.0
C245 C 0.5388 0.60238 0.66566 0.0
H246 H 0.44579 0.5369 0.6986 0.0
H247 H 0.41058 0.57971 0.73262 0.0
H248 H 0.72237 0.84262 0.63599 0.0
H249 H 0.68031 0.73578 0.625 0.0
H250 H 0.60431 0.62717 0.63529 0.0
H251 H 0.51941 0.55512 0.662 0.0
Mn252 Mn 0.79607 0.64406 0.93446 0.0
Mn253 Mn 0.7656 0.57794 0.87553 0.0
C254 C 0.8678 0.67996 0.90267 0.0
C255 C 0.83059 0.65011 0.9766 0.0
C256 C 0.72719 0.66609 0.89158 0.0
O257 O 0.71981 0.56577 0.94103 0.0
O258 O 0.70491 0.52474 0.90124 0.0
C259 C 0.79183 0.483 0.89027 0.0
N260 N 0.80214 0.52957 0.87466 0.0
C261 C 0.87971 0.52302 0.85193 0.0
C262 C 0.86965 0.47478 0.86767 0.0
C263 C 0.82554 0.45473 0.88693 0.0
C264 C 0.84486 0.54956 0.85622 0.0
H265 H 0.75843 0.4678 0.90529 0.0
C266 C 0.69053 0.52368 0.92502 0.0
O267 O 0.79676 0.67207 0.97068 0.0
O268 O 0.8415 0.62212 0.95864 0.0
N269 N 0.81998 0.62283 0.84836 0.0
C270 C 0.82322 0.66906 0.83444 0.0
C271 C 0.8636 0.69293 0.81375 0.0
C272 C 0.89993 0.66882 0.80746 0.0
C273 C 0.89521 0.6207 0.82182 0.0
C274 C 0.85338 0.59808 0.84193 0.0
H275 H 0.79509 0.68749 0.83904 0.0
O276 O 0.87266 0.71288 0.92241 0.0
O277 O 0.82214 0.62634 0.90245 0.0
O278 O 0.74885 0.67596 0.91452 0.0
O279 O 0.72996 0.62994 0.8755 0.0
C280 C 0.93063 0.59457 0.81709 0.0
C281 C 0.92321 0.54606 0.83227 0.0
H282 H 0.89565 0.45295 0.8652 0.0
H283 H 0.8177 0.4177 0.89924 0.0
H284 H 0.86676 0.72986 0.80268 0.0
H285 H 0.93142 0.68774 0.79165 0.0
H286 H 0.96393 0.61164 0.80191 0.0
H287 H 0.95103 0.52665 0.8286 0.0
Mn288 Mn 0.13893 0.80279 0.10113 0.0
Mn289 Mn 0.17447 0.77233 0.04219 0.0
C290 C 0.1748 0.8746 0.06935 0.0
C291 C 0.16744 0.83728 0.14327 0.0
C292 C 0.048 0.73396 0.05826 0.0
O293 O 0.14088 0.72646 0.10769 0.0
O294 O 0.16695 0.71158 0.0679 0.0
C295 C 0.29558 0.79848 0.0569 0.0
N296 N 0.25936 0.80885 0.0413 0.0
C297 C 0.34347 0.88644 1.01856 0.0
C298 C 0.38162 0.87633 0.03429 0.0
C299 C 0.35755 0.83218 0.05355 0.0
C300 C 0.28211 0.85161 1.02287 0.0
H301 H 0.27736 0.76505 0.07192 0.0
C302 C 0.15363 0.69716 0.09167 0.0
O303 O 0.11166 0.80346 0.13735 0.0
O304 O 0.20632 0.8482 0.1253 0.0
N305 N 0.184 0.82678 1.01503 0.0
C306 C 0.14105 0.83007 1.00112 0.0
C307 C 0.15758 0.87048 0.98042 0.0
C308 C 0.218 0.9068 0.97412 0.0
C309 C 0.26137 0.90204 0.98847 0.0
C310 C 0.24214 0.86018 1.00858 0.0
H311 H 0.0945 0.80194 1.00572 0.0
O312 O 0.14679 0.87946 0.08909 0.0
O313 O 0.1827 0.82889 0.06911 0.0
O314 O 0.05982 0.7556 0.0812 0.0
O315 O 0.08688 0.73673 0.04218 0.0
C316 C 0.3229 0.93745 0.98373 0.0
C317 C 0.36396 0.92998 0.9989 0.0
H318 H 0.42944 0.90232 0.03181 0.0
H319 H 0.38671 0.8243 0.06586 0.0
H320 H 0.12383 0.87367 0.96936 0.0
H321 H 0.23059 0.93833 0.95831 0.0
H322 H 0.33914 0.97077 0.96855 0.0
H323 H 0.41118 0.9578 0.99522 0.0
Mn324 Mn 0.32286 0.14555 0.26786 0.0
Mn325 Mn 0.38887 0.18132 0.20893 0.0
C326 C 0.28685 0.18135 0.23608 0.0
C327 C 0.31678 0.17396 0.31 0.0
C328 C 0.3009 0.05469 0.22497 0.0
O329 O 0.40117 0.14766 0.27443 0.0
O330 O 0.4421 0.17383 0.23463 0.0
C331 C 0.48368 0.30252 0.22369 0.0
N332 N 0.43715 0.26627 0.20807 0.0
C333 C 0.4436 0.35043 0.18536 0.0
C334 C 0.4918 0.38861 0.2011 0.0
C335 C 0.51188 0.36453 0.22036 0.0
C336 C 0.41713 0.28902 0.18964 0.0
H337 H 0.4989 0.2843 0.2387 0.0
C338 C 0.44322 0.16049 0.25841 0.0
O339 O 0.29491 0.11816 0.30408 0.0
O340 O 0.34471 0.2129 0.29204 0.0
N341 N 0.34397 0.19084 0.18176 0.0
C342 C 0.2978 0.14785 0.16782 0.0
C343 C 0.27392 0.16439 0.14713 0.0
C344 C 0.29796 0.22485 0.14085 0.0
C345 C 0.34601 0.26825 0.15522 0.0
C346 C 0.36864 0.24902 0.17534 0.0
H347 H 0.27944 0.10128 0.17241 0.0
O348 O 0.25399 0.15326 0.25582 0.0
O349 O 0.34048 0.18938 0.23585 0.0
O350 O 0.29106 0.06644 0.24792 0.0
O351 O 0.33696 0.09366 0.20889 0.0
C352 C 0.37207 0.32983 0.1505 0.0
C353 C 0.42054 0.37092 0.1657 0.0
H354 H 0.51357 0.43646 0.19864 0.0
H355 H 0.54888 0.39371 0.23267 0.0
H356 H 0.23705 0.13061 0.13604 0.0
H357 H 0.27904 0.23744 0.12504 0.0
H358 H 0.35499 0.34607 0.13532 0.0
H359 H 0.4399 0.41817 0.16203 0.0
Mn360 Mn 0.16371 0.32924 0.43449 0.0
Mn361 Mn 0.19412 0.39533 0.37554 0.0
C362 C 0.09197 0.29328 0.40268 0.0
C363 C 0.12919 0.3232 0.47661 0.0
C364 C 0.23261 0.30724 0.39164 0.0
O365 O 0.23994 0.40756 0.44106 0.0
O366 O 0.2548 0.44856 0.40127 0.0
C367 C 0.16783 0.49022 0.39026 0.0
N368 N 0.15754 0.44366 0.37465 0.0
C369 C 0.07994 0.45016 0.35189 0.0
C370 C 0.08997 0.49839 0.36763 0.0
C371 C 0.13408 0.51846 0.3869 0.0
C372 C 0.11481 0.42366 0.3562 0.0
H373 H 0.20123 0.50543 0.40528 0.0
C374 C 0.2692 0.44964 0.42505 0.0
O375 O 0.16304 0.30126 0.47072 0.0
O376 O 0.11825 0.35116 0.45863 0.0
N377 N 0.13975 0.35042 0.34837 0.0
C378 C 0.13654 0.30421 0.33445 0.0
C379 C 0.09616 0.28033 0.31375 0.0
C380 C 0.05981 0.30441 0.30744 0.0
C381 C 0.0645 0.35251 0.32179 0.0
C382 C 0.10632 0.37514 0.34191 0.0
H383 H 0.16469 0.28581 0.33907 0.0
O384 O 0.08714 0.26038 0.42243 0.0
O385 O 0.13761 0.34692 0.40246 0.0
O386 O 0.21097 0.29738 0.41457 0.0
O387 O 0.2298 0.34336 0.37555 0.0
C388 C 0.02904 0.37861 0.31704 0.0
C389 C 0.03644 0.42711 0.33222 0.0
H390 H 0.06394 0.52019 0.36514 0.0
H391 H 0.1419 0.55548 0.39921 0.0
H392 H 0.09304 0.24342 0.30268 0.0
H393 H 0.02832 0.28549 0.29162 0.0
H394 H -0.00425 0.36153 0.30185 0.0
H395 H 0.0086 0.4465 0.32853 0.0
Mn396 Mn 0.82089 0.17068 0.60107 0.0
Mn397 Mn 0.78539 0.20129 0.54212 0.0
C398 C 0.785 0.09894 0.56926 0.0
C399 C 0.79235 0.13612 0.64319 0.0
C400 C 0.91185 0.23955 0.55823 0.0
O401 O 0.81898 0.24702 0.60764 0.0
O402 O 0.79294 0.262 0.56784 0.0
C403 C 0.6643 0.17518 0.55679 0.0
N404 N 0.70051 0.16481 0.5412 0.0
C405 C 0.61638 0.08728 0.51843 0.0
C406 C 0.57825 0.09739 0.53415 0.0
C407 C 0.60233 0.14151 0.55342 0.0
C408 C 0.67775 0.12208 0.52276 0.0
H409 H 0.68253 0.20858 0.57182 0.0
C410 C 0.80625 0.27636 0.59163 0.0
O411 O 0.84814 0.16992 0.63729 0.0
O412 O 0.75349 0.12526 0.62521 0.0
N413 N 0.77584 0.14688 0.51495 0.0
C414 C 0.81879 0.14358 0.50105 0.0
C415 C 0.80224 0.10319 0.48034 0.0
C416 C 0.74182 0.06691 0.47402 0.0
C417 C 0.69846 0.07168 0.48836 0.0
C418 C 0.7177 0.11351 0.50848 0.0
H419 H 0.86533 0.17169 0.50567 0.0
O420 O 0.81299 0.09402 0.589 0.0
O421 O 0.77713 0.14467 0.56903 0.0
O422 O 0.90002 0.21786 0.58116 0.0
O423 O 0.87299 0.23684 0.54214 0.0
C424 C 0.63692 0.03629 0.4836 0.0
C425 C 0.59588 0.04377 0.49876 0.0
H426 H 0.53043 0.07142 0.53165 0.0
H427 H 0.57318 0.14939 0.56572 0.0
H428 H 0.83598 0.1 0.46929 0.0
H429 H 0.72921 0.0354 0.45821 0.0
H430 H 0.62068 0.00299 0.46841 0.0
H431 H 0.54866 0.01597 0.49506 0.0
C432 C 0.15268 0.59938 0.10693 0.0
C433 C 0.15273 0.6442 0.10057 0.0
C434 C 0.15266 0.54662 0.11388 0.0
C435 C 0.15267 0.50184 0.12024 0.0
C436 C 0.59281 0.15963 0.28054 0.0
C437 C 0.63759 0.15962 0.28688 0.0
C438 C 0.54007 0.15963 0.27363 0.0
C439 C 0.49528 0.15963 0.26729 0.0
C440 C 0.41962 0.59926 0.44724 0.0
C441 C 0.46438 0.64408 0.45359 0.0
C442 C 0.36689 0.54651 0.4403 0.0
C443 C 0.32212 0.50172 0.43394 0.0
C444 C 0.80714 0.42681 0.6139 0.0
C445 C 0.80708 0.47155 0.62028 0.0
C446 C 0.80716 0.37409 0.60692 0.0
C447 C 0.80713 0.3293 0.60054 0.0
C448 C 0.41969 0.81386 0.7736 0.0
C449 C 0.46444 0.81384 0.76723 0.0
C450 C 0.36699 0.81387 0.78056 0.0
C451 C 0.32223 0.81387 0.78693 0.0
C452 C 0.54007 0.37417 0.94724 0.0
C453 C 0.49531 0.32938 0.95361 0.0
C454 C 0.5928 0.42688 0.94028 0.0
C455 C 0.63759 0.47164 0.93391 0.0
C456 C 0.24399 0.22639 0.20239 0.0
C457 C 0.26525 0.20658 0.21734 0.0
C458 C 0.21965 0.25068 0.18522 0.0
C459 C 0.1998 0.27189 0.17027 0.0
C460 C 0.95552 0.22623 0.35181 0.0
C461 C 0.91447 0.20644 0.33686 0.0
C462 C 0.00413 0.25052 0.36898 0.0
C463 C 0.04518 0.27173 0.38393 0.0
C464 C 0.73979 0.01106 0.53557 0.0
C465 C 0.75967 0.05214 0.55051 0.0
C466 C 0.71543 0.9624 0.51842 0.0
C467 C 0.6942 0.92129 0.50349 0.0
C468 C 0.73978 0.72247 0.6852 0.0
C469 C 0.75967 0.70129 0.67027 0.0
C470 C 0.71542 0.74676 0.70234 0.0
C471 C 0.6942 0.76661 0.71727 0.0
C472 C 0.95567 0.72266 0.86901 0.0
C473 C 0.9146 0.70146 0.88394 0.0
C474 C 0.0043 0.74696 0.85186 0.0
C475 C 0.04535 0.7668 0.83693 0.0
C476 C 0.21998 0.96252 0.03568 0.0
C477 C 0.2001 0.92143 0.05061 0.0
C478 C 0.24432 0.01118 1.01852 0.0
C479 C 0.26554 0.05226 1.00359 0.0
C480 C 0.20843 0.3007 0.03497 0.0
C481 C 0.18562 0.30913 0.05365 0.0
C482 C 0.23863 0.28377 1.0171 0.0
C483 C 0.26488 0.2633 1.00562 0.0
C484 C 0.89435 0.21505 0.20158 0.0
C485 C 0.86307 0.19228 0.22026 0.0
C486 C 0.9415 0.24517 0.18371 0.0
C487 C -0.01177 0.27137 0.17224 0.0
C488 C 0.68268 0.94818 0.35035 0.0
C489 C 0.70327 -0.00506 0.33887 0.0
C490 C 0.66561 0.90101 0.36823 0.0
C491 C 0.65709 0.86973 0.38692 0.0
C492 C 0.7512 0.67272 0.53499 0.0
C493 C 0.77401 0.66426 0.55368 0.0
C494 C 0.72102 0.68969 0.5171 0.0
C495 C 0.69479 0.71019 0.50562 0.0
C496 C 0.06532 0.75836 0.70166 0.0
C497 C 0.09662 0.78114 0.72034 0.0
C498 C 0.01815 0.72822 0.68379 0.0
C499 C 0.97141 0.70201 0.67231 0.0
C500 C 0.29405 0.07237 0.86831 0.0
C501 C 0.30256 0.10366 0.88699 0.0
C502 C 0.27701 0.02519 0.85044 0.0
C503 C 0.25646 0.97843 0.83897 0.0
C504 C 0.66589 0.75836 0.85254 0.0
C505 C 0.65733 0.78111 0.83385 0.0
C506 C 0.68296 0.72825 0.87041 0.0
C507 C 0.70353 0.70205 0.88188 0.0
C508 C 0.89451 0.67288 1.01922 0.0
C509 C 0.86325 0.6644 1.00053 0.0
C510 C 0.94167 0.68986 0.03709 0.0
C511 C -0.0116 0.71037 0.04857 0.0
C512 C 0.20862 0.90119 0.18589 0.0
C513 C 0.18583 0.86993 0.1672 0.0
C514 C 0.23876 0.94833 0.20378 0.0
C515 C 0.26495 -0.00493 0.21527 0.0
C516 C 0.2939 0.215 0.35262 0.0
C517 C 0.30244 0.19226 0.33393 0.0
C518 C 0.27684 0.24511 0.37049 0.0
C519 C 0.25628 0.27128 0.38196 0.0
C520 C 0.0653 0.30049 0.51922 0.0
C521 C 0.09656 0.30894 0.50054 0.0
C522 C 0.01816 0.28356 0.53708 0.0
C523 C 0.97144 0.26309 0.54855 0.0
C524 C 0.72095 0.025 0.70367 0.0
C525 C 0.69473 0.97827 0.71516 0.0
C526 C 0.75112 0.07216 0.68579 0.0
C527 C 0.77393 0.10344 0.66711 0.0
loop_
_geom_bond_atom_site_label_1
_geom_bond_atom_site_label_2
_geom_bond_distance
_geom_bond_site_symmetry_2
_ccdc_geom_bond_type
Mn0 O5 2.095 . S
Mn0 O15 2.162 . S
Mn0 O16 2.297 . S
Mn0 O24 2.385 . S
Mn0 O25 2.209 . S
Mn0 O26 2.094 . S
Mn1 O6 2.121 . S
Mn1 N8 2.257 . S
Mn1 N17 2.282 . S
Mn1 O25 2.215 . S
Mn1 O27 2.117 . S
C2 O24 1.234 . S
C2 O25 1.283 . S
C3 O15 1.281 . S
C3 O16 1.236 . S
C4 O26 1.240 . S
C4 O27 1.264 . S
O5 Mn0 2.095 . S
O5 C14 1.250 . S
O6 Mn1 2.121 . S
O6 C14 1.258 . S
C7 N8 1.326 . S
C7 C11 1.460 . S
C7 H13 0.929 . S
N8 Mn1 2.257 . S
N8 C7 1.326 . S
N8 C12 1.362 . S
C9 C10 1.258 . S
C9 C12 1.431 . S
C9 C29 1.449 . S
C10 C9 1.258 . S
C10 C11 1.477 . S
C10 H30 0.931 . S
C11 C7 1.460 . S
C11 C10 1.477 . S
C11 H31 0.930 . S
C12 N8 1.362 . S
C12 C9 1.431 . S
C12 C22 1.476 . S
H13 C7 0.929 . S
C14 O5 1.250 . S
C14 O6 1.258 . S
O15 Mn0 2.162 . S
O15 C3 1.281 . S
O16 Mn0 2.297 . S
O16 C3 1.236 . S
N17 Mn1 2.282 . S
N17 C18 1.328 . S
N17 C22 1.318 . S
C18 N17 1.328 . S
C18 C19 1.457 . S
C18 H23 0.929 . S
C19 C18 1.457 . S
C19 C20 1.291 . S
C19 H32 0.931 . S
C20 C19 1.291 . S
C20 C21 1.373 . S
C20 H33 0.929 . S
C21 C20 1.373 . S
C21 C22 1.396 . S
C21 C28 1.403 . S
C22 C12 1.476 . S
C22 N17 1.318 . S
C22 C21 1.396 . S
H23 C18 0.929 . S
O24 Mn0 2.385 . S
O24 C2 1.234 . S
O25 Mn0 2.209 . S
O25 Mn1 2.215 . S
O25 C2 1.283 . S
O26 Mn0 2.094 . S
O26 C4 1.240 . S
O27 Mn1 2.117 . S
O27 C4 1.264 . S
C28 C21 1.403 . S
C28 C29 1.399 . S
C28 H34 0.929 . S
C29 C9 1.449 . S
C29 C28 1.399 . S
C29 H35 0.930 . S
H30 C10 0.931 . S
H31 C11 0.930 . S
H32 C19 0.931 . S
H33 C20 0.929 . S
H34 C28 0.929 . S
H35 C29 0.930 . S
Mn36 O41 2.095 . S
Mn36 O51 2.162 . S
Mn36 O52 2.297 . S
Mn36 O60 2.385 . S
Mn36 O61 2.209 . S
Mn36 O62 2.094 . S
Mn37 O42 2.121 . S
Mn37 N44 2.257 . S
Mn37 N53 2.282 . S
Mn37 O61 2.215 . S
Mn37 O63 2.117 . S
C38 O60 1.234 . S
C38 O61 1.283 . S
C39 O51 1.281 . S
C39 O52 1.236 . S
C40 O62 1.240 . S
C40 O63 1.264 . S
O41 Mn36 2.095 . S
O41 C50 1.250 . S
O42 Mn37 2.121 . S
O42 C50 1.258 . S
C43 N44 1.326 . S
C43 C47 1.460 . S
C43 H49 0.929 . S
N44 Mn37 2.257 . S
N44 C43 1.326 . S
N44 C48 1.362 . S
C45 C46 1.258 . S
C45 C48 1.431 . S
C45 C65 1.449 . S
C46 C45 1.258 . S
C46 C47 1.477 . S
C46 H66 0.931 . S
C47 C43 1.460 . S
C47 C46 1.477 . S
C47 H67 0.930 . S
C48 N44 1.362 . S
C48 C45 1.431 . S
C48 C58 1.476 . S
H49 C43 0.929 . S
C50 O41 1.250 . S
C50 O42 1.258 . S
O51 Mn36 2.162 . S
O51 C39 1.281 . S
O52 Mn36 2.297 . S
O52 C39 1.236 . S
N53 Mn37 2.282 . S
N53 C54 1.328 . S
N53 C58 1.318 . S
C54 N53 1.328 . S
C54 C55 1.457 . S
C54 H59 0.929 . S
C55 C54 1.457 . S
C55 C56 1.291 . S
C55 H68 0.931 . S
C56 C55 1.291 . S
C56 C57 1.373 . S
C56 H69 0.929 . S
C57 C56 1.373 . S
C57 C58 1.396 . S
C57 C64 1.403 . S
C58 C48 1.476 . S
C58 N53 1.318 . S
C58 C57 1.396 . S
H59 C54 0.929 . S
O60 Mn36 2.385 . S
O60 C38 1.234 . S
O61 Mn36 2.209 . S
O61 Mn37 2.215 . S
O61 C38 1.283 . S
O62 Mn36 2.094 . S
O62 C40 1.240 . S
O63 Mn37 2.117 . S
O63 C40 1.264 . S
C64 C57 1.403 . S
C64 C65 1.399 . S
C64 H70 0.929 . S
C65 C45 1.449 . S
C65 C64 1.399 . S
C65 H71 0.930 . S
H66 C46 0.931 . S
H67 C47 0.930 . S
H68 C55 0.931 . S
H69 C56 0.929 . S
H70 C64 0.929 . S
H71 C65 0.930 . S
Mn72 O77 2.095 . S
Mn72 O87 2.162 . S
Mn72 O88 2.297 . S
Mn72 O96 2.385 . S
Mn72 O97 2.209 . S
Mn72 O98 2.094 . S
Mn73 O78 2.121 . S
Mn73 N80 2.257 . S
Mn73 N89 2.282 . S
Mn73 O97 2.215 . S
Mn73 O99 2.117 . S
C74 O96 1.234 . S
C74 O97 1.283 . S
C75 O87 1.281 . S
C75 O88 1.236 . S
C76 O98 1.240 . S
C76 O99 1.264 . S
O77 Mn72 2.095 . S
O77 C86 1.250 . S
O78 Mn73 2.121 . S
O78 C86 1.258 . S
C79 N80 1.326 . S
C79 C83 1.460 . S
C79 H85 0.929 . S
N80 Mn73 2.257 . S
N80 C79 1.326 . S
N80 C84 1.362 . S
C81 C82 1.258 . S
C81 C84 1.431 . S
C81 C101 1.449 . S
C82 C81 1.258 . S
C82 C83 1.477 . S
C82 H102 0.931 . S
C83 C79 1.460 . S
C83 C82 1.477 . S
C83 H103 0.930 . S
C84 N80 1.362 . S
C84 C81 1.431 . S
C84 C94 1.476 . S
H85 C79 0.929 . S
C86 O77 1.250 . S
C86 O78 1.258 . S
O87 Mn72 2.162 . S
O87 C75 1.281 . S
O88 Mn72 2.297 . S
O88 C75 1.236 . S
N89 Mn73 2.282 . S
N89 C90 1.328 . S
N89 C94 1.318 . S
C90 N89 1.328 . S
C90 C91 1.457 . S
C90 H95 0.929 . S
C91 C90 1.457 . S
C91 C92 1.291 . S
C91 H104 0.931 . S
C92 C91 1.291 . S
C92 C93 1.373 . S
C92 H105 0.929 . S
C93 C92 1.373 . S
C93 C94 1.396 . S
C93 C100 1.403 . S
C94 C84 1.476 . S
C94 N89 1.318 . S
C94 C93 1.396 . S
H95 C90 0.929 . S
O96 Mn72 2.385 . S
O96 C74 1.234 . S
O97 Mn72 2.209 . S
O97 Mn73 2.215 . S
O97 C74 1.283 . S
O98 Mn72 2.094 . S
O98 C76 1.240 . S
O99 Mn73 2.117 . S
O99 C76 1.264 . S
C100 C93 1.403 . S
C100 C101 1.399 . S
C100 H106 0.929 . S
C101 C81 1.449 . S
C101 C100 1.399 . S
C101 H107 0.930 . S
H102 C82 0.931 . S
H103 C83 0.930 . S
H104 C91 0.931 . S
H105 C92 0.929 . S
H106 C100 0.929 . S
H107 C101 0.930 . S
Mn108 O113 2.095 . S
Mn108 O123 2.162 . S
Mn108 O124 2.297 . S
Mn108 O132 2.385 . S
Mn108 O133 2.209 . S
Mn108 O134 2.094 . S
Mn109 O114 2.121 . S
Mn109 N116 2.257 . S
Mn109 N125 2.282 . S
Mn109 O133 2.215 . S
Mn109 O135 2.117 . S
C110 O132 1.234 . S
C110 O133 1.283 . S
C111 O123 1.281 . S
C111 O124 1.236 . S
C112 O134 1.240 . S
C112 O135 1.264 . S
O113 Mn108 2.095 . S
O113 C122 1.250 . S
O114 Mn109 2.121 . S
O114 C122 1.258 . S
C115 N116 1.326 . S
C115 C119 1.460 . S
C115 H121 0.929 . S
N116 Mn109 2.257 . S
N116 C115 1.326 . S
N116 C120 1.362 . S
C117 C118 1.258 . S
C117 C120 1.431 . S
C117 C137 1.449 . S
C118 C117 1.258 . S
C118 C119 1.477 . S
C118 H138 0.931 . S
C119 C115 1.460 . S
C119 C118 1.477 . S
C119 H139 0.930 . S
C120 N116 1.362 . S
C120 C117 1.431 . S
C120 C130 1.476 . S
H121 C115 0.929 . S
C122 O113 1.250 . S
C122 O114 1.258 . S
O123 Mn108 2.162 . S
O123 C111 1.281 . S
O124 Mn108 2.297 . S
O124 C111 1.236 . S
N125 Mn109 2.282 . S
N125 C126 1.328 . S
N125 C130 1.318 . S
C126 N125 1.328 . S
C126 C127 1.457 . S
C126 H131 0.929 . S
C127 C126 1.457 . S
C127 C128 1.291 . S
C127 H140 0.931 . S
C128 C127 1.291 . S
C128 C129 1.373 . S
C128 H141 0.929 . S
C129 C128 1.373 . S
C129 C130 1.396 . S
C129 C136 1.403 . S
C130 C120 1.476 . S
C130 N125 1.318 . S
C130 C129 1.396 . S
H131 C126 0.929 . S
O132 Mn108 2.385 . S
O132 C110 1.234 . S
O133 Mn108 2.209 . S
O133 Mn109 2.215 . S
O133 C110 1.283 . S
O134 Mn108 2.094 . S
O134 C112 1.240 . S
O135 Mn109 2.117 . S
O135 C112 1.264 . S
C136 C129 1.403 . S
C136 C137 1.399 . S
C136 H142 0.929 . S
C137 C117 1.449 . S
C137 C136 1.399 . S
C137 H143 0.930 . S
H138 C118 0.931 . S
H139 C119 0.930 . S
H140 C127 0.931 . S
H141 C128 0.929 . S
H142 C136 0.929 . S
H143 C137 0.930 . S
Mn144 O149 2.095 . S
Mn144 O159 2.162 . S
Mn144 O160 2.297 . S
Mn144 O168 2.385 . S
Mn144 O169 2.209 . S
Mn144 O170 2.094 . S
Mn145 O150 2.121 . S
Mn145 N152 2.257 . S
Mn145 N161 2.282 . S
Mn145 O169 2.215 . S
Mn145 O171 2.117 . S
C146 O168 1.234 . S
C146 O169 1.283 . S
C147 O159 1.281 . S
C147 O160 1.236 . S
C148 O170 1.240 . S
C148 O171 1.264 . S
O149 Mn144 2.095 . S
O149 C158 1.250 . S
O150 Mn145 2.121 . S
O150 C158 1.258 . S
C151 N152 1.326 . S
C151 C155 1.460 . S
C151 H157 0.929 . S
N152 Mn145 2.257 . S
N152 C151 1.326 . S
N152 C156 1.362 . S
C153 C154 1.258 . S
C153 C156 1.431 . S
C153 C173 1.449 . S
C154 C153 1.258 . S
C154 C155 1.477 . S
C154 H174 0.931 . S
C155 C151 1.460 . S
C155 C154 1.477 . S
C155 H175 0.930 . S
C156 N152 1.362 . S
C156 C153 1.431 . S
C156 C166 1.476 . S
H157 C151 0.929 . S
C158 O149 1.250 . S
C158 O150 1.258 . S
O159 Mn144 2.162 . S
O159 C147 1.281 . S
O160 Mn144 2.297 . S
O160 C147 1.236 . S
N161 Mn145 2.282 . S
N161 C162 1.328 . S
N161 C166 1.318 . S
C162 N161 1.328 . S
C162 C163 1.457 . S
C162 H167 0.929 . S
C163 C162 1.457 . S
C163 C164 1.291 . S
C163 H176 0.931 . S
C164 C163 1.291 . S
C164 C165 1.373 . S
C164 H177 0.929 . S
C165 C164 1.373 . S
C165 C166 1.396 . S
C165 C172 1.403 . S
C166 C156 1.476 . S
C166 N161 1.318 . S
C166 C165 1.396 . S
H167 C162 0.929 . S
O168 Mn144 2.385 . S
O168 C146 1.234 . S
O169 Mn144 2.209 . S
O169 Mn145 2.215 . S
O169 C146 1.283 . S
O170 Mn144 2.094 . S
O170 C148 1.240 . S
O171 Mn145 2.117 . S
O171 C148 1.264 . S
C172 C165 1.403 . S
C172 C173 1.399 . S
C172 H178 0.929 . S
C173 C153 1.449 . S
C173 C172 1.399 . S
C173 H179 0.930 . S
H174 C154 0.931 . S
H175 C155 0.930 . S
H176 C163 0.931 . S
H177 C164 0.929 . S
H178 C172 0.929 . S
H179 C173 0.930 . S
Mn180 O185 2.095 . S
Mn180 O195 2.162 . S
Mn180 O196 2.297 . S
Mn180 O204 2.385 . S
Mn180 O205 2.209 . S
Mn180 O206 2.094 . S
Mn181 O186 2.121 . S
Mn181 N188 2.257 1_556 S
Mn181 N197 2.282 1_556 S
Mn181 O205 2.215 . S
Mn181 O207 2.117 . S
C182 O204 1.234 . S
C182 O205 1.283 . S
C183 O195 1.281 . S
C183 O196 1.236 . S
C184 O206 1.240 . S
C184 O207 1.264 . S
O185 Mn180 2.095 . S
O185 C194 1.250 . S
O186 Mn181 2.121 . S
O186 C194 1.258 . S
C187 N188 1.326 1_556 S
C187 C191 1.460 1_556 S
C187 H193 0.929 . S
N188 Mn181 2.257 1_554 S
N188 C187 1.326 1_554 S
N188 C192 1.362 . S
C189 C190 1.258 . S
C189 C192 1.431 . S
C189 C209 1.449 . S
C190 C189 1.258 . S
C190 C191 1.477 . S
C190 H210 0.931 . S
C191 C187 1.460 1_554 S
C191 C190 1.477 . S
C191 H211 0.930 . S
C192 N188 1.362 . S
C192 C189 1.431 . S
C192 C202 1.476 . S
H193 C187 0.929 . S
C194 O185 1.250 . S
C194 O186 1.258 . S
O195 Mn180 2.162 . S
O195 C183 1.281 . S
O196 Mn180 2.297 . S
O196 C183 1.236 . S
N197 Mn181 2.282 1_554 S
N197 C198 1.328 . S
N197 C202 1.318 . S
C198 N197 1.328 . S
C198 C199 1.457 . S
C198 H203 0.929 . S
C199 C198 1.457 . S
C199 C200 1.291 . S
C199 H212 0.931 . S
C200 C199 1.291 . S
C200 C201 1.373 . S
C200 H213 0.929 . S
C201 C200 1.373 . S
C201 C202 1.396 . S
C201 C208 1.403 . S
C202 C192 1.476 . S
C202 N197 1.318 . S
C202 C201 1.396 . S
H203 C198 0.929 . S
O204 Mn180 2.385 . S
O204 C182 1.234 . S
O205 Mn180 2.209 . S
O205 Mn181 2.215 . S
O205 C182 1.283 . S
O206 Mn180 2.094 . S
O206 C184 1.240 . S
O207 Mn181 2.117 . S
O207 C184 1.264 . S
C208 C201 1.403 . S
C208 C209 1.399 . S
C208 H214 0.929 . S
C209 C189 1.449 . S
C209 C208 1.399 . S
C209 H215 0.930 . S
H210 C190 0.931 . S
H211 C191 0.930 . S
H212 C199 0.931 . S
H213 C200 0.929 . S
H214 C208 0.929 . S
H215 C209 0.930 . S
Mn216 O221 2.095 . S
Mn216 O231 2.162 . S
Mn216 O232 2.297 . S
Mn216 O240 2.385 . S
Mn216 O241 2.209 . S
Mn216 O242 2.094 . S
Mn217 O222 2.121 . S
Mn217 N224 2.257 . S
Mn217 N233 2.282 . S
Mn217 O241 2.215 . S
Mn217 O243 2.117 . S
C218 O240 1.234 . S
C218 O241 1.283 . S
C219 O231 1.281 . S
C219 O232 1.236 . S
C220 O242 1.240 . S
C220 O243 1.264 . S
O221 Mn216 2.095 . S
O221 C230 1.250 . S
O222 Mn217 2.121 . S
O222 C230 1.258 . S
C223 N224 1.326 . S
C223 C227 1.460 . S
C223 H229 0.929 . S
N224 Mn217 2.257 . S
N224 C223 1.326 . S
N224 C228 1.362 . S
C225 C226 1.258 . S
C225 C228 1.431 . S
C225 C245 1.449 . S
C226 C225 1.258 . S
C226 C227 1.477 . S
C226 H246 0.931 . S
C227 C223 1.460 . S
C227 C226 1.477 . S
C227 H247 0.930 . S
C228 N224 1.362 . S
C228 C225 1.431 . S
C228 C238 1.476 . S
H229 C223 0.929 . S
C230 O221 1.250 . S
C230 O222 1.258 . S
O231 Mn216 2.162 . S
O231 C219 1.281 . S
O232 Mn216 2.297 . S
O232 C219 1.236 . S
N233 Mn217 2.282 . S
N233 C234 1.328 . S
N233 C238 1.318 . S
C234 N233 1.328 . S
C234 C235 1.457 . S
C234 H239 0.929 . S
C235 C234 1.457 . S
C235 C236 1.291 . S
C235 H248 0.931 . S
C236 C235 1.291 . S
C236 C237 1.373 . S
C236 H249 0.929 . S
C237 C236 1.373 . S
C237 C238 1.396 . S
C237 C244 1.403 . S
C238 C228 1.476 . S
C238 N233 1.318 . S
C238 C237 1.396 . S
H239 C234 0.929 . S
O240 Mn216 2.385 . S
O240 C218 1.234 . S
O241 Mn216 2.209 . S
O241 Mn217 2.215 . S
O241 C218 1.283 . S
O242 Mn216 2.094 . S
O242 C220 1.240 . S
O243 Mn217 2.117 . S
O243 C220 1.264 . S
C244 C237 1.403 . S
C244 C245 1.399 . S
C244 H250 0.929 . S
C245 C225 1.449 . S
C245 C244 1.399 . S
C245 H251 0.930 . S
H246 C226 0.931 . S
H247 C227 0.930 . S
H248 C235 0.931 . S
H249 C236 0.929 . S
H250 C244 0.929 . S
H251 C245 0.930 . S
Mn252 O257 2.095 . S
Mn252 O267 2.162 . S
Mn252 O268 2.297 . S
Mn252 O276 2.385 . S
Mn252 O277 2.209 . S
Mn252 O278 2.094 . S
Mn253 O258 2.121 . S
Mn253 N260 2.257 . S
Mn253 N269 2.282 . S
Mn253 O277 2.215 . S
Mn253 O279 2.117 . S
C254 O276 1.234 . S
C254 O277 1.283 . S
C255 O267 1.281 . S
C255 O268 1.236 . S
C256 O278 1.240 . S
C256 O279 1.264 . S
O257 Mn252 2.095 . S
O257 C266 1.250 . S
O258 Mn253 2.121 . S
O258 C266 1.258 . S
C259 N260 1.326 . S
C259 C263 1.460 . S
C259 H265 0.929 . S
N260 Mn253 2.257 . S
N260 C259 1.326 . S
N260 C264 1.362 . S
C261 C262 1.258 . S
C261 C264 1.431 . S
C261 C281 1.449 . S
C262 C261 1.258 . S
C262 C263 1.477 . S
C262 H282 0.931 . S
C263 C259 1.460 . S
C263 C262 1.477 . S
C263 H283 0.930 . S
C264 N260 1.362 . S
C264 C261 1.431 . S
C264 C274 1.476 . S
H265 C259 0.929 . S
C266 O257 1.250 . S
C266 O258 1.258 . S
O267 Mn252 2.162 . S
O267 C255 1.281 . S
O268 Mn252 2.297 . S
O268 C255 1.236 . S
N269 Mn253 2.282 . S
N269 C270 1.328 . S
N269 C274 1.318 . S
C270 N269 1.328 . S
C270 C271 1.457 . S
C270 H275 0.929 . S
C271 C270 1.457 . S
C271 C272 1.291 . S
C271 H284 0.931 . S
C272 C271 1.291 . S
C272 C273 1.373 . S
C272 H285 0.929 . S
C273 C272 1.373 . S
C273 C274 1.396 . S
C273 C280 1.403 . S
C274 C264 1.476 . S
C274 N269 1.318 . S
C274 C273 1.396 . S
H275 C270 0.929 . S
O276 Mn252 2.385 . S
O276 C254 1.234 . S
O277 Mn252 2.209 . S
O277 Mn253 2.215 . S
O277 C254 1.283 . S
O278 Mn252 2.094 . S
O278 C256 1.240 . S
O279 Mn253 2.117 . S
O279 C256 1.264 . S
C280 C273 1.403 . S
C280 C281 1.399 . S
C280 H286 0.929 . S
C281 C261 1.449 . S
C281 C280 1.399 . S
C281 H287 0.930 . S
H282 C262 0.931 . S
H283 C263 0.930 . S
H284 C271 0.931 . S
H285 C272 0.929 . S
H286 C280 0.929 . S
H287 C281 0.930 . S
Mn288 O293 2.095 . S
Mn288 O303 2.162 . S
Mn288 O304 2.297 . S
Mn288 O312 2.385 . S
Mn288 O313 2.209 . S
Mn288 O314 2.094 . S
Mn289 O294 2.121 . S
Mn289 N296 2.257 1_554 S
Mn289 N305 2.282 1_554 S
Mn289 O313 2.215 . S
Mn289 O315 2.117 . S
C290 O312 1.234 . S
C290 O313 1.283 . S
C291 O303 1.281 . S
C291 O304 1.236 . S
C292 O314 1.240 . S
C292 O315 1.264 . S
O293 Mn288 2.095 . S
O293 C302 1.250 . S
O294 Mn289 2.121 . S
O294 C302 1.258 . S
C295 N296 1.326 1_554 S
C295 C299 1.460 1_554 S
C295 H301 0.929 . S
N296 Mn289 2.257 1_556 S
N296 C295 1.326 1_556 S
N296 C300 1.362 . S
C297 C298 1.258 . S
C297 C300 1.431 . S
C297 C317 1.449 . S
C298 C297 1.258 . S
C298 C299 1.477 . S
C298 H318 0.931 . S
C299 C295 1.460 1_556 S
C299 C298 1.477 . S
C299 H319 0.930 . S
C300 N296 1.362 . S
C300 C297 1.431 . S
C300 C310 1.476 . S
H301 C295 0.929 . S
C302 O293 1.250 . S
C302 O294 1.258 . S
O303 Mn288 2.162 . S
O303 C291 1.281 . S
O304 Mn288 2.297 . S
O304 C291 1.236 . S
N305 Mn289 2.282 1_556 S
N305 C306 1.328 . S
N305 C310 1.318 . S
C306 N305 1.328 . S
C306 C307 1.457 . S
C306 H311 0.929 . S
C307 C306 1.457 . S
C307 C308 1.291 . S
C307 H320 0.931 . S
C308 C307 1.291 . S
C308 C309 1.373 . S
C308 H321 0.929 . S
C309 C308 1.373 . S
C309 C310 1.396 . S
C309 C316 1.403 . S
C310 C300 1.476 . S
C310 N305 1.318 . S
C310 C309 1.396 . S
H311 C306 0.929 . S
O312 Mn288 2.385 . S
O312 C290 1.234 . S
O313 Mn288 2.209 . S
O313 Mn289 2.215 . S
O313 C290 1.283 . S
O314 Mn288 2.094 . S
O314 C292 1.240 . S
O315 Mn289 2.117 . S
O315 C292 1.264 . S
C316 C309 1.403 . S
C316 C317 1.399 . S
C316 H322 0.929 . S
C317 C297 1.449 . S
C317 C316 1.399 . S
C317 H323 0.930 . S
H318 C298 0.931 . S
H319 C299 0.930 . S
H320 C307 0.931 . S
H321 C308 0.929 . S
H322 C316 0.929 . S
H323 C317 0.930 . S
Mn324 O329 2.095 . S
Mn324 O339 2.162 . S
Mn324 O340 2.297 . S
Mn324 O348 2.385 . S
Mn324 O349 2.209 . S
Mn324 O350 2.094 . S
Mn325 O330 2.121 . S
Mn325 N332 2.257 . S
Mn325 N341 2.282 . S
Mn325 O349 2.215 . S
Mn325 O351 2.117 . S
C326 O348 1.234 . S
C326 O349 1.283 . S
C327 O339 1.281 . S
C327 O340 1.236 . S
C328 O350 1.240 . S
C328 O351 1.264 . S
O329 Mn324 2.095 . S
O329 C338 1.250 . S
O330 Mn325 2.121 . S
O330 C338 1.258 . S
C331 N332 1.326 . S
C331 C335 1.460 . S
C331 H337 0.929 . S
N332 Mn325 2.257 . S
N332 C331 1.326 . S
N332 C336 1.362 . S
C333 C334 1.258 . S
C333 C336 1.431 . S
C333 C353 1.449 . S
C334 C333 1.258 . S
C334 C335 1.477 . S
C334 H354 0.931 . S
C335 C331 1.460 . S
C335 C334 1.477 . S
C335 H355 0.930 . S
C336 N332 1.362 . S
C336 C333 1.431 . S
C336 C346 1.476 . S
H337 C331 0.929 . S
C338 O329 1.250 . S
C338 O330 1.258 . S
O339 Mn324 2.162 . S
O339 C327 1.281 . S
O340 Mn324 2.297 . S
O340 C327 1.236 . S
N341 Mn325 2.282 . S
N341 C342 1.328 . S
N341 C346 1.318 . S
C342 N341 1.328 . S
C342 C343 1.457 . S
C342 H347 0.929 . S
C343 C342 1.457 . S
C343 C344 1.291 . S
C343 H356 0.931 . S
C344 C343 1.291 . S
C344 C345 1.373 . S
C344 H357 0.929 . S
C345 C344 1.373 . S
C345 C346 1.396 . S
C345 C352 1.403 . S
C346 C336 1.476 . S
C346 N341 1.318 . S
C346 C345 1.396 . S
H347 C342 0.929 . S
O348 Mn324 2.385 . S
O348 C326 1.234 . S
O349 Mn324 2.209 . S
O349 Mn325 2.215 . S
O349 C326 1.283 . S
O350 Mn324 2.094 . S
O350 C328 1.240 . S
O351 Mn325 2.117 . S
O351 C328 1.264 . S
C352 C345 1.403 . S
C352 C353 1.399 . S
C352 H358 0.929 . S
C353 C333 1.449 . S
C353 C352 1.399 . S
C353 H359 0.930 . S
H354 C334 0.931 . S
H355 C335 0.930 . S
H356 C343 0.931 . S
H357 C344 0.929 . S
H358 C352 0.929 . S
H359 C353 0.930 . S
Mn360 O365 2.095 . S
Mn360 O375 2.162 . S
Mn360 O376 2.297 . S
Mn360 O384 2.385 . S
Mn360 O385 2.209 . S
Mn360 O386 2.094 . S
Mn361 O366 2.121 . S
Mn361 N368 2.257 . S
Mn361 N377 2.282 . S
Mn361 O385 2.215 . S
Mn361 O387 2.117 . S
C362 O384 1.234 . S
C362 O385 1.283 . S
C363 O375 1.281 . S
C363 O376 1.236 . S
C364 O386 1.240 . S
C364 O387 1.264 . S
O365 Mn360 2.095 . S
O365 C374 1.250 . S
O366 Mn361 2.121 . S
O366 C374 1.258 . S
C367 N368 1.326 . S
C367 C371 1.460 . S
C367 H373 0.929 . S
N368 Mn361 2.257 . S
N368 C367 1.326 . S
N368 C372 1.362 . S
C369 C370 1.258 . S
C369 C372 1.431 . S
C369 C389 1.449 . S
C370 C369 1.258 . S
C370 C371 1.477 . S
C370 H390 0.931 . S
C371 C367 1.460 . S
C371 C370 1.477 . S
C371 H391 0.930 . S
C372 N368 1.362 . S
C372 C369 1.431 . S
C372 C382 1.476 . S
H373 C367 0.929 . S
C374 O365 1.250 . S
C374 O366 1.258 . S
O375 Mn360 2.162 . S
O375 C363 1.281 . S
O376 Mn360 2.297 . S
O376 C363 1.236 . S
N377 Mn361 2.282 . S
N377 C378 1.328 . S
N377 C382 1.318 . S
C378 N377 1.328 . S
C378 C379 1.457 . S
C378 H383 0.929 . S
C379 C378 1.457 . S
C379 C380 1.291 . S
C379 H392 0.931 . S
C380 C379 1.291 . S
C380 C381 1.373 . S
C380 H393 0.929 . S
C381 C380 1.373 . S
C381 C382 1.396 . S
C381 C388 1.403 . S
C382 C372 1.476 . S
C382 N377 1.318 . S
C382 C381 1.396 . S
H383 C378 0.929 . S
O384 Mn360 2.385 . S
O384 C362 1.234 . S
O385 Mn360 2.209 . S
O385 Mn361 2.215 . S
O385 C362 1.283 . S
O386 Mn360 2.094 . S
O386 C364 1.240 . S
O387 Mn361 2.117 . S
O387 C364 1.264 . S
C388 C381 1.403 . S
C388 C389 1.399 . S
C388 H394 0.929 . S
C389 C369 1.449 . S
C389 C388 1.399 . S
C389 H395 0.930 . S
H390 C370 0.931 . S
H391 C371 0.930 . S
H392 C379 0.931 . S
H393 C380 0.929 . S
H394 C388 0.929 . S
H395 C389 0.930 . S
Mn396 O401 2.095 . S
Mn396 O411 2.162 . S
Mn396 O412 2.297 . S
Mn396 O420 2.385 . S
Mn396 O421 2.209 . S
Mn396 O422 2.094 . S
Mn397 O402 2.121 . S
Mn397 N404 2.257 . S
Mn397 N413 2.282 . S
Mn397 O421 2.215 . S
Mn397 O423 2.117 . S
C398 O420 1.234 . S
C398 O421 1.283 . S
C399 O411 1.281 . S
C399 O412 1.236 . S
C400 O422 1.240 . S
C400 O423 1.264 . S
O401 Mn396 2.095 . S
O401 C410 1.250 . S
O402 Mn397 2.121 . S
O402 C410 1.258 . S
C403 N404 1.326 . S
C403 C407 1.460 . S
C403 H409 0.929 . S
N404 Mn397 2.257 . S
N404 C403 1.326 . S
N404 C408 1.362 . S
C405 C406 1.258 . S
C405 C408 1.431 . S
C405 C425 1.449 . S
C406 C405 1.258 . S
C406 C407 1.477 . S
C406 H426 0.931 . S
C407 C403 1.460 . S
C407 C406 1.477 . S
C407 H427 0.930 . S
C408 N404 1.362 . S
C408 C405 1.431 . S
C408 C418 1.476 . S
H409 C403 0.929 . S
C410 O401 1.250 . S
C410 O402 1.258 . S
O411 Mn396 2.162 . S
O411 C399 1.281 . S
O412 Mn396 2.297 . S
O412 C399 1.236 . S
N413 Mn397 2.282 . S
N413 C414 1.328 . S
N413 C418 1.318 . S
C414 N413 1.328 . S
C414 C415 1.457 . S
C414 H419 0.929 . S
C415 C414 1.457 . S
C415 C416 1.291 . S
C415 H428 0.931 . S
C416 C415 1.291 . S
C416 C417 1.373 . S
C416 H429 0.929 . S
C417 C416 1.373 . S
C417 C418 1.396 . S
C417 C424 1.403 . S
C418 C408 1.476 . S
C418 N413 1.318 . S
C418 C417 1.396 . S
H419 C414 0.929 . S
O420 Mn396 2.385 . S
O420 C398 1.234 . S
O421 Mn396 2.209 . S
O421 Mn397 2.215 . S
O421 C398 1.283 . S
O422 Mn396 2.094 . S
O422 C400 1.240 . S
O423 Mn397 2.117 . S
O423 C400 1.264 . S
C424 C417 1.403 . S
C424 C425 1.399 . S
C424 H430 0.929 . S
C425 C405 1.449 . S
C425 C424 1.399 . S
C425 H431 0.930 . S
H426 C406 0.931 . S
H427 C407 0.930 . S
H428 C415 0.931 . S
H429 C416 0.929 . S
H430 C424 0.929 . S
H431 C425 0.930 . S
C432 C433 1.170 . S
C432 C434 1.380 . S
C433 C432 1.170 . S
C434 C432 1.380 . S
C434 C435 1.170 . S
C435 C434 1.170 . S
C436 C437 1.170 . S
C436 C438 1.380 . S
C437 C436 1.170 . S
C438 C436 1.380 . S
C438 C439 1.170 . S
C439 C438 1.170 . S
C440 C441 1.170 . S
C440 C442 1.380 . S
C441 C440 1.170 . S
C442 C440 1.380 . S
C442 C443 1.170 . S
C443 C442 1.170 . S
C444 C445 1.170 . S
C444 C446 1.380 . S
C445 C444 1.170 . S
C446 C444 1.380 . S
C446 C447 1.170 . S
C447 C446 1.170 . S
C448 C449 1.170 . S
C448 C450 1.380 . S
C449 C448 1.170 . S
C450 C448 1.380 . S
C450 C451 1.170 . S
C451 C450 1.170 . S
C452 C453 1.170 . S
C452 C454 1.380 . S
C453 C452 1.170 . S
C454 C452 1.380 . S
C454 C455 1.170 . S
C455 C454 1.170 . S
C456 C457 1.170 . S
C456 C458 1.380 . S
C457 C456 1.170 . S
C458 C456 1.380 . S
C458 C459 1.170 . S
C459 C458 1.170 . S
C460 C461 1.170 . S
C460 C462 1.380 1_655 S
C461 C460 1.170 . S
C462 C460 1.380 1_455 S
C462 C463 1.170 . S
C463 C462 1.170 . S
C464 C465 1.170 . S
C464 C466 1.380 1_545 S
C465 C464 1.170 . S
C466 C464 1.380 1_565 S
C466 C467 1.170 . S
C467 C466 1.170 . S
C468 C469 1.170 . S
C468 C470 1.380 . S
C469 C468 1.170 . S
C470 C468 1.380 . S
C470 C471 1.170 . S
C471 C470 1.170 . S
C472 C473 1.170 . S
C472 C474 1.380 1_655 S
C473 C472 1.170 . S
C474 C472 1.380 1_455 S
C474 C475 1.170 . S
C475 C474 1.170 . S
C476 C477 1.170 . S
C476 C478 1.380 1_564 S
C477 C476 1.170 . S
C478 C476 1.380 1_546 S
C478 C479 1.170 . S
C479 C478 1.170 . S
C480 C481 1.170 . S
C480 C482 1.380 . S
C481 C480 1.170 . S
C482 C480 1.380 . S
C482 C483 1.170 1_554 S
C483 C482 1.170 1_556 S
C484 C485 1.170 . S
C484 C486 1.380 . S
C485 C484 1.170 . S
C486 C484 1.380 . S
C486 C487 1.170 1_655 S
C487 C486 1.170 1_455 S
C488 C489 1.170 1_565 S
C488 C490 1.380 . S
C489 C488 1.170 1_545 S
C490 C488 1.380 . S
C490 C491 1.170 . S
C491 C490 1.170 . S
C492 C493 1.170 . S
C492 C494 1.380 . S
C493 C492 1.170 . S
C494 C492 1.380 . S
C494 C495 1.170 . S
C495 C494 1.170 . S
C496 C497 1.170 . S
C496 C498 1.380 . S
C497 C496 1.170 . S
C498 C496 1.380 . S
C498 C499 1.170 1_455 S
C499 C498 1.170 1_655 S
C500 C501 1.170 . S
C500 C502 1.380 . S
C501 C500 1.170 . S
C502 C500 1.380 . S
C502 C503 1.170 1_545 S
C503 C502 1.170 1_565 S
C504 C505 1.170 . S
C504 C506 1.380 . S
C505 C504 1.170 . S
C506 C504 1.380 . S
C506 C507 1.170 . S
C507 C506 1.170 . S
C508 C509 1.170 . S
C508 C510 1.380 . S
C509 C508 1.170 . S
C510 C508 1.380 . S
C510 C511 1.170 1_656 S
C511 C510 1.170 1_454 S
C512 C513 1.170 . S
C512 C514 1.380 . S
C513 C512 1.170 . S
C514 C512 1.380 . S
C514 C515 1.170 1_565 S
C515 C514 1.170 1_545 S
C516 C517 1.170 . S
C516 C518 1.380 . S
C517 C516 1.170 . S
C518 C516 1.380 . S
C518 C519 1.170 . S
C519 C518 1.170 . S
C520 C521 1.170 . S
C520 C522 1.380 . S
C521 C520 1.170 . S
C522 C520 1.380 . S
C522 C523 1.170 1_455 S
C523 C522 1.170 1_655 S
C524 C525 1.170 1_545 S
C524 C526 1.380 . S
C525 C524 1.170 1_565 S
C526 C524 1.380 . S
C526 C527 1.170 . S
C527 C526 1.170 . S
C433 C302 1.224 . S
C435 C14 1.206 . S
C437 C50 1.229 . S
C439 C338 1.205 . S
C441 C86 1.249 . S
C443 C374 1.223 . S
C445 C122 1.208 . S
C447 C410 1.220 . S
C449 C230 1.233 . S
C451 C158 1.248 . S
C453 C194 1.205 . S
C455 C266 1.227 . S
C457 C326 0.987 . S
C459 C2 0.989 . S
C461 C38 1.000 . S
C463 C362 1.002 . S
C465 C398 1.026 . S
C467 C74 1.027 . S
C469 C110 0.976 . S
C471 C218 0.976 . S
C473 C254 0.977 . S
C475 C146 0.977 . S
C477 C290 1.022 . S
C479 C182 1.023 . S
C481 C3 1.477 . S
C483 C184 1.442 . S
C485 C39 1.485 . S
C487 C4 1.430 . S
C489 C40 1.465 . S
C491 C75 1.479 . S
C493 C111 1.477 . S
C495 C76 1.464 . S
C497 C147 1.481 . S
C499 C112 1.466 . S
C501 C183 1.490 . S
C503 C148 1.452 . S
C505 C219 1.482 . S
C507 C256 1.466 . S
C509 C255 1.486 . S
C511 C292 1.463 . S
C513 C291 1.479 . S
C515 C328 1.465 . S
C517 C327 1.491 . S
C519 C364 1.443 . S
C521 C363 1.489 . S
C523 C400 1.434 . S
C525 C220 1.465 . S
C527 C399 1.478 . S
