# Generated by pormake.
# Topology dft, (4)-cn, num edge types: 1
# Building blocks:
#     Node 0, Type 0, BuildingBlock: GALJAG_clean_sbu_0, # of connection points: 4
#     Node 1, Type 0, BuildingBlock: GALJAG_clean_sbu_0, # of connection points: 4
#     Node 2, Type 0, BuildingBlock: GALJAG_clean_sbu_0, # of connection points: 4
#     Node 3, Type 0, BuildingBlock: GALJAG_clean_sbu_0, # of connection points: 4
#     Node 4, Type 0, BuildingBlock: GALJAG_clean_sbu_0, # of connection points: 4
#     Node 5, Type 0, BuildingBlock: GALJAG_clean_sbu_0, # of connection points: 4
#     Node 6, Type 0, BuildingBlock: GALJAG_clean_sbu_0, # of connection points: 4
#     Node 7, Type 0, BuildingBlock: GALJAG_clean_sbu_0, # of connection points: 4
#     Edge 8, Type (0, 0), BuildingBlock: ZUJKAS_clean_linker_0, # of connection points: 2
#     Edge 9, Type (0, 0), BuildingBlock: ZUJKAS_clean_linker_0, # of connection points: 2
#     Edge 10, Type (0, 0), BuildingBlock: ZUJKAS_clean_linker_0, # of connection points: 2
#     Edge 11, Type (0, 0), BuildingBlock: ZUJKAS_clean_linker_0, # of connection points: 2
#     Edge 12, Type (0, 0), BuildingBlock: ZUJKAS_clean_linker_0, # of connection points: 2
#     Edge 13, Type (0, 0), BuildingBlock: ZUJKAS_clean_linker_0, # of connection points: 2
#     Edge 14, Type (0, 0), BuildingBlock: ZUJKAS_clean_linker_0, # of connection points: 2
#     Edge 15, Type (0, 0), BuildingBlock: ZUJKAS_clean_linker_0, # of connection points: 2
#     Edge 16, Type (0, 0), BuildingBlock: ZUJKAS_clean_linker_0, # of connection points: 2
#     Edge 17, Type (0, 0), BuildingBlock: ZUJKAS_clean_linker_0, # of connection points: 2
#     Edge 18, Type (0, 0), BuildingBlock: ZUJKAS_clean_linker_0, # of connection points: 2
#     Edge 19, Type (0, 0), BuildingBlock: ZUJKAS_clean_linker_0, # of connection points: 2
#     Edge 20, Type (0, 0), BuildingBlock: ZUJKAS_clean_linker_0, # of connection points: 2
#     Edge 21, Type (0, 0), BuildingBlock: ZUJKAS_clean_linker_0, # of connection points: 2
#     Edge 22, Type (0, 0), BuildingBlock: ZUJKAS_clean_linker_0, # of connection points: 2
#     Edge 23, Type (0, 0), BuildingBlock: ZUJKAS_clean_linker_0, # of connection points: 2
# Relax obj value: 0.096
# Max RMSD: 0.146
# Mean RMSD: 0.146
data_MOF--net-dft--node1-GALJAG_clean_sbu_0--edge1-ZUJKAS_clean_linker_0
_symmetry_space_group_name_H-M    P1
_symmetry_Int_Tables_number       1
_symmetry_cell_setting            triclinic
loop_
_symmetry_equiv_pos_as_xyz
'x, y, z'
_cell_length_a     43.648364
_cell_length_b     43.596845
_cell_length_c     58.429298
_cell_angle_alpha  90.045871
_cell_angle_beta   89.996656
_cell_angle_gamma 90.026696
loop_
_atom_site_label
_atom_site_type_symbol
_atom_site_fract_x
_atom_site_fract_y
_atom_site_fract_z
_atom_type_partial_charge
In0 In 0.31076 0.03107 0.16646 0.0
O1 O 0.35472 0.05934 0.1638 0.0
O2 O 0.35773 0.01437 0.17762 0.0
C3 C 0.27638 0.07418 0.18765 0.0
C4 C 0.30497 0.02934 0.12036 0.0
C5 C 0.29092 0.97983 0.18758 0.0
O6 O 0.30524 0.07538 0.18713 0.0
O7 O 0.26495 0.05157 0.17726 0.0
O8 O 0.28464 0.98579 0.16697 0.0
O9 O 0.30733 -0.00036 0.19747 0.0
C10 C 0.37159 0.03863 0.17208 0.0
O11 O 0.32029 0.00989 0.13144 0.0
O12 O 0.29244 0.0497 0.1325 0.0
In13 In 0.03876 0.31112 0.66758 0.0
O14 O 0.01566 0.35723 0.67389 0.0
O15 O 0.06275 0.35746 0.66469 0.0
C16 C 0.99371 0.27638 0.68623 0.0
C17 C 0.03607 0.30456 0.62172 0.0
C18 C 0.08811 0.29117 0.6912 0.0
O19 O 0.00164 0.30195 0.69432 0.0
O20 O 0.00821 0.26841 0.66856 0.0
O21 O 0.08345 0.28435 0.67052 0.0
O22 O 0.06798 0.30824 0.69997 0.0
C23 C 0.03933 0.37293 0.66984 0.0
O24 O 0.05763 0.29379 0.63364 0.0
O25 O 0.0156 0.31842 0.63296 0.0
In26 In 0.76103 0.04533 0.16786 0.0
O27 O 0.71462 0.02338 0.17503 0.0
O28 O 0.71543 0.071 0.16758 0.0
C29 C 0.79391 0.00046 0.18831 0.0
C30 C 0.76846 0.03775 0.12234 0.0
C31 C 0.78261 0.0967 0.18811 0.0
O32 O 0.76898 0.01039 0.19626 0.0
O33 O 0.80223 0.01293 0.16986 0.0
O34 O 0.77939 0.09442 0.16673 0.0
O35 O 0.77482 0.07319 0.19922 0.0
C36 C 0.69953 0.04778 0.17248 0.0
O37 O 0.78381 0.05685 0.13384 0.0
O38 O 0.74969 0.02207 0.13387 0.0
In39 In 0.0349 0.76332 0.66243 0.0
O40 O 0.01358 0.77969 0.62889 0.0
O41 O 0.0553 0.75476 0.62704 0.0
C42 C 0.98669 0.78922 0.68399 0.0
C43 C 0.03498 0.70181 0.66673 0.0
C44 C 0.08205 0.79279 0.68299 0.0
O45 O 0.0031 0.80352 0.66981 0.0
O46 O 0.99427 0.76163 0.68707 0.0
O47 O 0.06555 0.77342 0.69318 0.0
O48 O 0.07524 0.79688 0.66225 0.0
C49 C 0.03417 0.76831 0.61635 0.0
O50 O 0.05775 0.71816 0.67212 0.0
O51 O 0.01215 0.71652 0.65932 0.0
In52 In 0.30964 0.04166 0.82959 0.0
O53 O 0.28638 0.05214 0.86364 0.0
O54 O 0.32048 0.01748 0.86335 0.0
C55 C 0.28808 0.09315 0.80961 0.0
C56 C 0.37119 0.04501 0.82545 0.0
C57 C 0.27727 -0.00296 0.80828 0.0
O58 O 0.29116 0.09058 0.83098 0.0
O59 O 0.2963 0.06993 0.79829 0.0
O60 O 0.30379 0.00492 0.80209 0.0
O61 O 0.26711 0.01143 0.8254 0.0
C62 C 0.30153 0.03279 0.87497 0.0
O63 O 0.3564 0.02047 0.8226 0.0
O64 O 0.35495 0.06801 0.83036 0.0
In65 In 0.03149 0.31019 0.33053 0.0
O66 O 0.04609 0.35267 0.31041 0.0
O67 O 0.02072 0.35936 0.341 0.0
C68 C 0.07515 0.27366 0.31214 0.0
C69 C 0.03443 0.30248 0.37635 0.0
C70 C 0.97974 0.29284 0.30879 0.0
O71 O 0.08042 0.301 0.31801 0.0
O72 O 0.0482 0.26469 0.31596 0.0
O73 O 0.9883 0.2812 0.32748 0.0
O74 O -0.0029 0.31357 0.30115 0.0
C75 C 0.03404 0.37147 0.32413 0.0
O76 O 0.00952 0.30269 0.36542 0.0
O77 O 0.05804 0.30599 0.36415 0.0
In78 In 0.76067 0.02987 0.83079 0.0
O79 O 0.75347 0.00794 0.86577 0.0
O80 O 0.77436 0.05196 0.86473 0.0
C81 C 0.78551 0.9793 0.8115 0.0
C82 C 0.69948 0.03636 0.82649 0.0
C83 C 0.79348 0.0733 0.80867 0.0
O84 O 0.79115 0.98731 0.83179 0.0
O85 O 0.76714 -0.00341 0.80102 0.0
O86 O 0.76665 0.06596 0.80281 0.0
O87 O 0.80356 0.05911 0.8259 0.0
C88 C 0.76502 0.02992 0.87686 0.0
O89 O 0.71671 0.05826 0.83231 0.0
O90 O 0.71314 0.01138 0.82273 0.0
In91 In 0.04004 0.76001 0.32501 0.0
O92 O 0.04765 0.78433 0.35905 0.0
O93 O 0.01872 0.74514 0.35899 0.0
C94 C 0.09142 0.78026 0.30392 0.0
C95 C 0.04297 0.69892 0.31822 0.0
C96 C 0.99378 0.79399 0.30763 0.0
O97 O 0.09023 0.77522 0.32512 0.0
O98 O 0.06687 0.77487 0.29336 0.0
O99 O -0.00157 0.76654 0.30178 0.0
O100 O 0.01213 0.80413 0.32248 0.0
C101 C 0.03118 0.76622 0.37052 0.0
O102 O 0.02165 0.71525 0.31024 0.0
O103 O 0.06281 0.71338 0.32965 0.0
H104 H 0.33401 0.99065 0.09079 0.0
H105 H 0.33091 0.99033 0.04897 0.0
H106 H 0.26639 0.06519 0.05128 0.0
H107 H 0.26988 0.06608 0.09309 0.0
H108 H 0.28136 0.98155 0.02024 0.0
H109 H 0.33166 0.09734 0.00777 0.0
H110 H 0.33336 0.07741 0.03479 0.0
H111 H 0.29884 0.0968 0.02628 0.0
C112 C 0.31919 0.00707 0.08238 0.0
C113 C 0.30236 0.02856 0.09517 0.0
C114 C 0.31741 0.00682 0.05851 0.0
C115 C 0.29881 0.02805 0.04702 0.0
C116 C 0.28142 0.04906 0.05979 0.0
H117 H 0.26388 0.06498 0.90343 0.0
H118 H 0.26135 0.06212 0.94522 0.0
C119 C 0.28331 0.04944 0.08366 0.0
C120 C 0.29766 0.02815 0.02168 0.0
H121 H 0.31161 0.07278 0.97484 0.0
C122 C 0.28803 0.00146 0.01029 0.0
C123 C 0.30645 0.05415 0.00876 0.0
C124 C 0.31844 0.08296 0.01998 0.0
C125 C 0.28656 0.00021 0.9863 0.0
C126 C 0.29528 0.02622 0.97344 0.0
C127 C 0.3048 0.05293 0.98481 0.0
C128 C 0.29529 0.02619 0.94811 0.0
C129 C 0.27529 0.97125 0.97492 0.0
C130 C 0.31517 0.00686 0.93593 0.0
C131 C 0.31669 0.00846 0.91207 0.0
C132 C 0.29844 0.02952 0.90002 0.0
C133 C 0.27818 0.04849 0.91225 0.0
C134 C 0.27672 0.04691 0.9361 0.0
H135 H 0.26255 0.95634 0.98705 0.0
H136 H 0.26017 0.97668 0.96019 0.0
H137 H 0.29522 0.9581 0.96838 0.0
H138 H 0.33009 0.9911 0.94493 0.0
H139 H 0.33261 0.99366 0.9031 0.0
H140 H 0.07466 0.2715 0.59451 0.0
H141 H 0.075 0.26899 0.55262 0.0
H142 H -0.00318 0.3293 0.55015 0.0
H143 H -0.0038 0.33186 0.59206 0.0
H144 H 0.02376 0.25108 0.52167 0.0
H145 H 0.06607 0.37044 0.50983 0.0
H146 H 0.0703 0.34985 0.53647 0.0
H147 H 0.03383 0.36573 0.52871 0.0
C148 C 0.05746 0.28413 0.58505 0.0
C149 C 0.03546 0.30198 0.59653 0.0
C150 C 0.05768 0.28263 0.56116 0.0
C151 C 0.03613 0.2992 0.54839 0.0
C152 C 0.01382 0.31662 0.55977 0.0
H153 H 0.98678 0.29171 0.40541 0.0
H154 H 0.98828 0.28904 0.44722 0.0
C155 C 0.01344 0.31796 0.58367 0.0
C156 C 0.0372 0.29855 0.52312 0.0
H157 H 0.05171 0.34326 0.47644 0.0
C158 C 0.02992 0.27116 0.51173 0.0
C159 C 0.04562 0.32473 0.51033 0.0
C160 C 0.05465 0.35436 0.52187 0.0
C161 C 0.0302 0.26948 0.48773 0.0
C162 C 0.03783 0.29591 0.47493 0.0
C163 C 0.04574 0.32309 0.48635 0.0
C164 C 0.03725 0.29604 0.44962 0.0
C165 C 0.02256 0.23944 0.47624 0.0
C166 C 0.06427 0.30114 0.43718 0.0
C167 C 0.0635 0.30266 0.41329 0.0
C168 C 0.03562 0.29944 0.4015 0.0
C169 C 0.00862 0.29419 0.41402 0.0
C170 C 0.00944 0.29252 0.43789 0.0
H171 H 0.02415 0.21982 0.48831 0.0
H172 H -0.00124 0.24042 0.4696 0.0
H173 H 0.03812 0.23515 0.46154 0.0
H174 H 0.08592 0.30409 0.44599 0.0
H175 H 0.08464 0.30682 0.40409 0.0
H176 H 0.79419 0.07163 0.90409 0.0
H177 H 0.79802 0.07133 0.94589 0.0
H178 H 0.74426 0.98833 0.94832 0.0
H179 H 0.74101 0.98807 0.90654 0.0
H180 H 0.75239 0.07464 0.97727 0.0
H181 H 0.81612 0.96574 0.98852 0.0
H182 H 0.81241 0.98437 0.96109 0.0
H183 H 0.78162 0.96128 0.97217 0.0
C184 C 0.78337 0.05321 0.91354 0.0
C185 C 0.76742 0.02979 0.90207 0.0
C186 C 0.78558 0.05306 0.9374 0.0
C187 C 0.7719 0.02951 0.9502 0.0
C188 C 0.75569 0.00627 0.93877 0.0
H189 H 0.7384 -0.00212 0.09411 0.0
H190 H 0.74061 -0.00422 0.05223 0.0
C191 C 0.75366 0.00629 0.91491 0.0
C192 C 0.77341 0.03002 0.97555 0.0
H193 H 0.79438 0.98777 0.02222 0.0
C194 C 0.76182 0.05577 0.98709 0.0
C195 C 0.78571 0.00533 0.98832 0.0
C196 C 0.79994 0.97775 0.9769 0.0
C197 C 0.76156 0.05723 0.01107 0.0
C198 C 0.77346 0.03239 0.0238 0.0
C199 C 0.78521 0.00671 0.01233 0.0
C200 C 0.77352 0.03264 0.04911 0.0
C201 C 0.74793 0.08501 0.02265 0.0
C202 C 0.7918 0.05364 0.06113 0.0
C203 C 0.79066 0.05484 0.08501 0.0
C204 C 0.77121 0.03504 0.09723 0.0
C205 C 0.75353 0.01347 0.08515 0.0
C206 C 0.75478 0.01222 0.06126 0.0
H207 H 0.73432 0.09923 0.0106 0.0
H208 H 0.73298 0.07803 0.03712 0.0
H209 H 0.76666 0.09944 0.02966 0.0
H210 H 0.80671 0.0693 0.05201 0.0
H211 H 0.80462 0.07163 0.09386 0.0
H212 H 0.04758 0.81432 0.3977 0.0
H213 H 0.04574 0.81695 0.4395 0.0
H214 H 0.00731 0.7258 0.44179 0.0
H215 H 0.00805 0.72351 0.39993 0.0
H216 H 0.97987 0.76268 0.47214 0.0
H217 H 0.10583 0.77426 0.48063 0.0
H218 H 0.08904 0.80413 0.4637 0.0
H219 H 0.0876 0.76503 0.45381 0.0
C220 C 0.03857 0.79492 0.40713 0.0
C221 C 0.02819 0.7686 0.39561 0.0
C222 C 0.03774 0.79637 0.43101 0.0
C223 C 0.02712 0.77127 0.4438 0.0
C224 C 0.0158 0.74536 0.43227 0.0
H225 H 0.06845 0.73555 0.58603 0.0
H226 H 0.06543 0.73655 0.54426 0.0
C227 C 0.01624 0.74406 0.40837 0.0
C228 C 0.02819 0.77178 0.46918 0.0
H229 H 0.07667 0.78063 0.51455 0.0
C230 C 0.00103 0.76654 0.48144 0.0
C231 C 0.05593 0.77632 0.48128 0.0
C232 C 0.0863 0.77994 0.4692 0.0
C233 C 0.00079 0.76587 0.50547 0.0
C234 C 0.02834 0.7715 0.51757 0.0
C235 C 0.0555 0.77663 0.50528 0.0
C236 C 0.02985 0.77111 0.54294 0.0
C237 C 0.9712 0.75823 0.51756 0.0
C238 C 0.01115 0.79049 0.55613 0.0
C239 C 0.01254 0.78963 0.58003 0.0
C240 C 0.03313 0.76984 0.59113 0.0
C241 C 0.05238 0.75105 0.57792 0.0
C242 C 0.05067 0.75161 0.55406 0.0
H243 H 0.95502 0.7459 0.50611 0.0
H244 H 0.97539 0.74383 0.53291 0.0
H245 H 0.95995 0.77979 0.52313 0.0
H246 H -0.00444 0.80638 0.54795 0.0
H247 H -0.00236 0.80457 0.5898 0.0
H248 H 0.40688 0.0883 0.16101 0.0
H249 H 0.46292 0.0921 0.16272 0.0
H250 H 0.46773 0.00035 0.18997 0.0
H251 H 0.41191 -0.00372 0.18827 0.0
H252 H 0.5046 0.08259 0.20202 0.0
H253 H 0.52161 -0.00022 0.13073 0.0
H254 H 0.4855 0.01879 0.13587 0.0
H255 H 0.49687 0.98692 0.15337 0.0
C256 C 0.4199 0.06902 0.16748 0.0
C257 C 0.40509 0.0419 0.17434 0.0
C258 C 0.45183 0.07125 0.16848 0.0
C259 C 0.46933 0.04636 0.1762 0.0
C260 C 0.45455 0.01963 0.18368 0.0
H261 H 0.66119 0.0011 0.18432 0.0
H262 H 0.60525 0.00236 0.18649 0.0
C263 C 0.4227 0.01739 0.18274 0.0
C264 C 0.50312 0.04785 0.17586 0.0
H265 H 0.56592 0.01563 0.15082 0.0
C266 C 0.5181 0.06811 0.19078 0.0
C267 C 0.52047 0.02889 0.16113 0.0
C268 C 0.50539 0.00751 0.14421 0.0
C269 C 0.55022 0.06933 0.19178 0.0
C270 C 0.56759 0.05018 0.17715 0.0
C271 C 0.55251 0.03018 0.16208 0.0
C272 C 0.60148 0.05025 0.17718 0.0
C273 C 0.56527 0.09046 0.20889 0.0
C274 C 0.61785 0.07677 0.1712 0.0
C275 C 0.64982 0.07613 0.17001 0.0
C276 C 0.66587 0.04888 0.17458 0.0
C277 C 0.64943 0.02242 0.1807 0.0
C278 C 0.6175 0.02311 0.18195 0.0
H279 H 0.54913 0.09752 0.22262 0.0
H280 H 0.58549 0.07933 0.21688 0.0
H281 H 0.57321 0.11147 0.19997 0.0
H282 H 0.60588 0.09777 0.16698 0.0
H283 H 0.66192 0.09683 0.16515 0.0
H284 H 0.99301 0.41063 0.68364 0.0
H285 H 0.9928 0.46683 0.68407 0.0
H286 H 0.08538 0.46777 0.65836 0.0
H287 H 0.08587 0.41156 0.65791 0.0
H288 H 0.03707 0.50812 0.70749 0.0
H289 H 0.03272 0.52136 0.6128 0.0
H290 H 0.02192 0.48621 0.62704 0.0
H291 H 0.06164 0.49599 0.62389 0.0
C292 C 0.01334 0.42281 0.67811 0.0
C293 C 0.03942 0.40676 0.67065 0.0
C294 C 0.01319 0.45485 0.67841 0.0
C295 C 0.03897 0.47129 0.67106 0.0
C296 C 0.06518 0.45538 0.66387 0.0
H297 H 0.08015 0.66543 0.68425 0.0
H298 H 0.0809 0.60929 0.68618 0.0
C299 C 0.06543 0.42333 0.6637 0.0
C300 C 0.03833 0.50515 0.67074 0.0
H301 H 0.03772 0.56668 0.63469 0.0
C302 C 0.03723 0.521 0.69162 0.0
C303 C 0.03826 0.52169 0.64995 0.0
C304 C 0.03847 0.50557 0.62709 0.0
C305 C 0.0364 0.55317 0.69225 0.0
C306 C 0.03682 0.56972 0.67146 0.0
C307 C 0.03758 0.55383 0.65058 0.0
C308 C 0.03607 0.60359 0.67096 0.0
C309 C 0.03464 0.56925 0.71508 0.0
C310 C 0.01075 0.61881 0.66155 0.0
C311 C 0.01023 0.6508 0.66044 0.0
C312 C 0.0352 0.66805 0.66853 0.0
C313 C 0.06056 0.65272 0.67794 0.0
C314 C 0.06098 0.62071 0.67915 0.0
H315 H 0.02834 0.55327 0.72912 0.0
H316 H 0.05731 0.57941 0.71916 0.0
H317 H 0.01762 0.58817 0.71452 0.0
H318 H 0.99138 0.60591 0.65506 0.0
H319 H 0.99042 0.66199 0.65305 0.0
H320 H 0.66463 0.08721 0.835 0.0
H321 H 0.60858 0.09106 0.83399 0.0
H322 H 0.60264 -0.00363 0.81304 0.0
H323 H 0.65847 0.99223 0.8142 0.0
H324 H 0.56658 0.07918 0.7971 0.0
H325 H 0.54872 0.00126 0.87104 0.0
H326 H 0.58538 0.01845 0.86467 0.0
H327 H 0.57238 0.98563 0.84875 0.0
C328 C 0.65135 0.06725 0.83013 0.0
C329 C 0.66587 0.03935 0.82485 0.0
C330 C 0.6194 0.0695 0.82953 0.0
C331 C 0.60155 0.04386 0.82378 0.0
C332 C 0.61604 0.01625 0.81791 0.0
H333 H 0.41016 -0.0015 0.81452 0.0
H334 H 0.46612 0.00012 0.81319 0.0
C335 C 0.64792 0.01397 0.8185 0.0
C336 C 0.56774 0.04573 0.82416 0.0
H337 H 0.50453 0.01512 0.8498 0.0
C338 C 0.55294 0.06537 0.8087 0.0
C339 C 0.55014 0.02771 0.83939 0.0
C340 C 0.56491 0.00726 0.85706 0.0
C341 C 0.52082 0.06674 0.80757 0.0
C342 C 0.50324 0.04833 0.82256 0.0
C343 C 0.51811 0.02907 0.83825 0.0
C344 C 0.46935 0.04819 0.82212 0.0
C345 C 0.50597 0.08717 0.78994 0.0
C346 C 0.45267 0.07471 0.8276 0.0
C347 C 0.42067 0.07386 0.82834 0.0
C348 C 0.4049 0.04641 0.82377 0.0
C349 C 0.42168 0.01997 0.81812 0.0
C350 C 0.45362 0.02086 0.81736 0.0
H351 H 0.52238 0.09414 0.77637 0.0
H352 H 0.48615 0.07548 0.78181 0.0
H353 H 0.49743 0.10827 0.79844 0.0
H354 H 0.46442 0.09588 0.83177 0.0
H355 H 0.40831 0.09455 0.83284 0.0
H356 H 0.01476 0.41587 0.35356 0.0
H357 H 0.0169 0.47137 0.34813 0.0
H358 H 0.05767 0.45835 0.28156 0.0
H359 H 0.05632 0.40265 0.28715 0.0
H360 H 0.08677 0.50252 0.30565 0.0
H361 H 0.96183 0.52306 0.30827 0.0
H362 H 0.97484 0.50295 0.3332 0.0
H363 H 0.97796 0.48514 0.30547 0.0
C364 C 0.02408 0.42482 0.33772 0.0
C365 C 0.03523 0.40497 0.32072 0.0
C366 C 0.02509 0.45653 0.33458 0.0
C367 C 0.03683 0.46896 0.31424 0.0
C368 C 0.0483 0.4492 0.29731 0.0
H369 H 0.00978 0.66443 0.28819 0.0
H370 H 0.01025 0.60857 0.28398 0.0
C371 C 0.0475 0.41743 0.30052 0.0
C372 C 0.03795 0.50265 0.31106 0.0
H373 H 0.99392 0.56712 0.31395 0.0
C374 C 0.06643 0.51666 0.30719 0.0
C375 C 0.01132 0.52101 0.31255 0.0
C376 C 0.97973 0.50724 0.31484 0.0
C377 C 0.06919 0.54868 0.30578 0.0
C378 C 0.04285 0.56714 0.30897 0.0
C379 C 0.01419 0.55302 0.31183 0.0
C380 C 0.04448 0.60108 0.31021 0.0
C381 C 0.10027 0.5623 0.30079 0.0
C382 C 0.06356 0.61545 0.32633 0.0
C383 C 0.06363 0.64735 0.32854 0.0
C384 C 0.0441 0.6654 0.31501 0.0
C385 C 0.02503 0.65105 0.29887 0.0
C386 C 0.02529 0.61917 0.29644 0.0
H387 H 0.11491 0.54594 0.29115 0.0
H388 H 0.09833 0.58385 0.29077 0.0
H389 H 0.11201 0.5675 0.31718 0.0
H390 H 0.07787 0.60198 0.33764 0.0
H391 H 0.07835 0.65781 0.34127 0.0
H392 H 0.13521 0.28703 0.30305 0.0
H393 H 0.17205 0.25534 0.28184 0.0
H394 H 0.10356 0.18484 0.27388 0.0
H395 H 0.06672 0.21618 0.29503 0.0
H396 H 0.1909 0.19065 0.29156 0.0
H397 H 0.13384 0.20696 0.20741 0.0
H398 H 0.12774 0.23251 0.23134 0.0
H399 H 0.10914 0.19578 0.23058 0.0
C400 C 0.12809 0.2647 0.29688 0.0
C401 C 0.09807 0.25411 0.3006 0.0
C402 C 0.14912 0.24668 0.28479 0.0
C403 C 0.14031 0.21801 0.2761 0.0
C404 C 0.11061 0.20711 0.28023 0.0
H405 H 0.21477 0.07223 0.1948 0.0
H406 H 0.1835 0.10853 0.21648 0.0
C407 C 0.08966 0.22499 0.29239 0.0
C408 C 0.16197 0.19938 0.26249 0.0
H409 H 0.17302 0.16943 0.20918 0.0
C410 C 0.18726 0.18617 0.2735 0.0
C411 C 0.15698 0.19367 0.23898 0.0
C412 C 0.1306 0.20813 0.22625 0.0
C413 C 0.20717 0.16635 0.26174 0.0
C414 C 0.20194 0.16027 0.23825 0.0
C415 C 0.17697 0.17408 0.22718 0.0
C416 C 0.22126 0.13864 0.22502 0.0
C417 C 0.23287 0.1512 0.27479 0.0
C418 C 0.25282 0.14374 0.22234 0.0
C419 C 0.27081 0.12288 0.21007 0.0
C420 C 0.25743 0.0968 0.20004 0.0
C421 C 0.22573 0.09212 0.20234 0.0
C422 C 0.20783 0.11284 0.21472 0.0
H423 H 0.22908 0.1522 0.29359 0.0
H424 H 0.23545 0.12681 0.26965 0.0
H425 H 0.25468 0.16324 0.27099 0.0
H426 H 0.26353 0.16388 0.22968 0.0
H427 H 0.29516 0.12718 0.20844 0.0
H428 H 0.9708 0.22195 0.67062 0.0
H429 H 0.93352 0.18856 0.68961 0.0
H430 H 0.92731 0.25267 0.74569 0.0
H431 H 0.96397 0.28645 0.72658 0.0
H432 H 0.93916 0.16043 0.73047 0.0
H433 H 0.83787 0.23684 0.73211 0.0
H434 H 0.87107 0.24465 0.71464 0.0
H435 H 0.87115 0.25428 0.7446 0.0
C436 C 0.9612 0.22908 0.68688 0.0
C437 C 0.97019 0.25685 0.69709 0.0
C438 C 0.93994 0.20998 0.6977 0.0
C439 C 0.92728 0.21833 0.7189 0.0
C440 C 0.93618 0.24611 0.72908 0.0
H441 H 0.85011 0.09525 0.81973 0.0
H442 H 0.88192 0.13059 0.79754 0.0
C443 C 0.95729 0.2653 0.71821 0.0
C444 C 0.90618 0.19716 0.731 0.0
H445 H 0.83582 0.19269 0.75635 0.0
C446 C 0.91647 0.16741 0.73597 0.0
C447 C 0.87643 0.20615 0.73791 0.0
C448 C 0.86332 0.23711 0.73184 0.0
C449 C 0.89813 0.14663 0.74815 0.0
C450 C 0.86899 0.15614 0.75606 0.0
C451 C 0.85835 0.1856 0.75056 0.0
C452 C 0.84919 0.13576 0.76997 0.0
C453 C 0.91003 0.11458 0.75218 0.0
C454 C 0.81976 0.12789 0.76229 0.0
C455 C 0.80137 0.10801 0.77508 0.0
C456 C 0.81213 0.09569 0.7958 0.0
C457 C 0.84131 0.10419 0.80374 0.0
C458 C 0.85959 0.12421 0.79101 0.0
H459 H 0.9281 0.10834 0.73961 0.0
H460 H 0.92026 0.11329 0.76953 0.0
H461 H 0.89129 0.09741 0.75108 0.0
H462 H 0.81121 0.13671 0.74617 0.0
H463 H 0.77896 0.10189 0.76856 0.0
H464 H 0.97739 0.85221 0.31947 0.0
H465 H 0.94032 0.88544 0.30025 0.0
H466 H 0.92034 0.8132 0.25199 0.0
H467 H 0.95681 0.77959 0.2715 0.0
H468 H 0.94292 0.90551 0.25681 0.0
H469 H 0.83514 0.84059 0.26982 0.0
H470 H 0.86976 0.83221 0.28549 0.0
H471 H 0.86482 0.81809 0.25679 0.0
C472 C 0.96478 0.84327 0.30496 0.0
C473 C 0.96992 0.8133 0.297 0.0
C474 C 0.94365 0.86229 0.29398 0.0
C475 C 0.92728 0.8517 0.27485 0.0
C476 C 0.93215 0.82163 0.26703 0.0
H477 H 0.84528 0.97146 0.17268 0.0
H478 H 0.87711 0.93438 0.19326 0.0
C479 C 0.95314 0.80252 0.27811 0.0
C480 C 0.90666 0.8728 0.26226 0.0
H481 H 0.83346 0.88145 0.24271 0.0
C482 C 0.91894 0.90032 0.25382 0.0
C483 C 0.87532 0.86614 0.25859 0.0
C484 C 0.86036 0.8378 0.26834 0.0
C485 C 0.90085 0.92124 0.2416 0.0
C486 C 0.8698 0.91405 0.23717 0.0
C487 C 0.85738 0.88672 0.24587 0.0
C488 C 0.84962 0.93505 0.22411 0.0
C489 C 0.91507 0.95112 0.23401 0.0
C490 C 0.82293 0.94675 0.23425 0.0
C491 C 0.80448 0.96756 0.22241 0.0
C492 C 0.81246 0.97709 0.20022 0.0
C493 C 0.83874 0.96475 0.18985 0.0
C494 C 0.85704 0.94372 0.20163 0.0
H495 H 0.9359 0.95673 0.24413 0.0
H496 H 0.92194 0.94922 0.21579 0.0
H497 H 0.89858 0.97038 0.23566 0.0
H498 H 0.81669 0.94025 0.25153 0.0
H499 H 0.78432 0.97664 0.23083 0.0
H500 H 0.11769 0.8385 0.66532 0.0
H501 H 0.15445 0.87084 0.68589 0.0
H502 H 0.13668 0.82044 0.74798 0.0
H503 H 0.10012 0.78789 0.72753 0.0
H504 H 0.1401 0.90785 0.72366 0.0
H505 H 0.23086 0.82351 0.74515 0.0
H506 H 0.20241 0.81654 0.7233 0.0
H507 H 0.19283 0.81174 0.75299 0.0
C508 C 0.12195 0.83404 0.68328 0.0
C509 C 0.10607 0.81066 0.69483 0.0
C510 C 0.14289 0.85255 0.695 0.0
C511 C 0.1485 0.84781 0.71838 0.0
C512 C 0.13311 0.82411 0.72984 0.0
H513 H 0.21876 0.97833 0.81721 0.0
H514 H 0.18801 0.94157 0.79533 0.0
C515 C 0.11211 0.80563 0.71816 0.0
C516 C 0.16881 0.86898 0.73115 0.0
H517 H 0.2335 0.87197 0.76394 0.0
C518 C 0.16062 0.90006 0.73237 0.0
C519 C 0.19566 0.85875 0.74233 0.0
C520 C 0.2062 0.82587 0.74076 0.0
C521 C 0.17825 0.92112 0.74486 0.0
C522 C 0.20453 0.91071 0.75668 0.0
C523 C 0.21312 0.87977 0.75506 0.0
C524 C 0.22356 0.93179 0.77056 0.0
C525 C 0.16878 0.95441 0.74514 0.0
C526 C 0.25397 0.93775 0.76424 0.0
C527 C 0.27161 0.95864 0.77673 0.0
C528 C 0.25915 0.97377 0.79584 0.0
C529 C 0.22893 0.96713 0.80249 0.0
C530 C 0.21129 0.94626 0.78997 0.0
H531 H 0.15264 0.95986 0.73101 0.0
H532 H 0.15714 0.95957 0.76158 0.0
H533 H 0.18908 0.96967 0.7437 0.0
H534 H 0.26387 0.92668 0.74936 0.0
H535 H 0.29486 0.96323 0.77123 0.0
H536 H 0.78145 0.96168 0.76683 0.0
H537 H 0.81124 0.92191 0.74753 0.0
H538 H 0.85373 0.8977 0.81169 0.0
H539 H 0.82443 0.93795 0.83104 0.0
H540 H 0.89522 0.90894 0.77876 0.0
H541 H 0.80751 0.82915 0.74504 0.0
H542 H 0.79988 0.86821 0.73728 0.0
H543 H 0.79916 0.85718 0.76695 0.0
C544 C 0.79674 0.94753 0.7769 0.0
C545 C 0.80075 0.95299 0.80041 0.0
C546 C 0.81356 0.92462 0.76588 0.0
C547 C 0.83439 0.90655 0.77823 0.0
C548 C 0.83763 0.91127 0.80187 0.0
H549 H 0.94912 0.76357 0.71619 0.0
H550 H 0.91093 0.78991 0.73994 0.0
C551 C 0.82092 0.93428 0.81289 0.0
C552 C 0.85529 0.88537 0.76602 0.0
H553 H 0.85734 0.82667 0.72728 0.0
C554 C 0.88692 0.89068 0.76776 0.0
C555 C 0.84447 0.86135 0.75184 0.0
C556 C 0.8109 0.85341 0.75033 0.0
C557 C 0.90795 0.87351 0.75498 0.0
C558 C 0.89702 0.85081 0.73976 0.0
C559 C 0.86554 0.84446 0.73873 0.0
C560 C 0.91809 0.83427 0.72429 0.0
C561 C 0.94172 0.88002 0.75768 0.0
C562 C 0.93403 0.85042 0.70729 0.0
C563 C 0.95574 0.83552 0.69375 0.0
C564 C 0.96182 0.80418 0.69695 0.0
C565 C 0.94498 0.78777 0.71342 0.0
C566 C 0.92317 0.80273 0.72695 0.0
H567 H 0.94669 0.89223 0.77397 0.0
H568 H 0.95524 0.85845 0.75723 0.0
H569 H 0.94951 0.89477 0.74335 0.0
H570 H 0.93005 0.87471 0.7048 0.0
H571 H 0.96824 0.84872 0.68111 0.0
H572 H 0.30324 0.96125 0.23118 0.0
H573 H 0.27884 0.91935 0.25226 0.0
H574 H 0.22554 0.89634 0.19247 0.0
H575 H 0.2503 0.93769 0.17119 0.0
H576 H 0.21855 0.91725 0.26122 0.0
H577 H 0.25122 0.81221 0.21411 0.0
H578 H 0.27104 0.84824 0.21039 0.0
H579 H 0.2357 0.84091 0.19545 0.0
C580 C 0.28674 0.94687 0.22242 0.0
C581 C 0.27856 0.95277 0.19958 0.0
C582 C 0.27287 0.92293 0.23446 0.0
C583 C 0.25068 0.90445 0.22385 0.0
C584 C 0.24316 0.90977 0.20083 0.0
H585 H 0.098 0.79468 0.25884 0.0
H586 H 0.14089 0.82156 0.24087 0.0
C587 C 0.25713 0.9336 0.18875 0.0
C588 C 0.23271 0.88218 0.23749 0.0
H589 H 0.20596 0.80858 0.23779 0.0
C590 C 0.21628 0.89332 0.25639 0.0
C591 C 0.22976 0.85101 0.23112 0.0
C592 C 0.24814 0.83732 0.21179 0.0
C593 C 0.19569 0.87459 0.26835 0.0
C594 C 0.19178 0.84377 0.26138 0.0
C595 C 0.20902 0.83225 0.24302 0.0
C596 C 0.16799 0.82411 0.27181 0.0
C597 C 0.17712 0.88836 0.28759 0.0
C598 C 0.1695 0.81593 0.295 0.0
C599 C 0.14497 0.8007 0.30534 0.0
C600 C 0.11866 0.79334 0.2926 0.0
C601 C 0.11791 0.80021 0.26911 0.0
C602 C 0.14241 0.81545 0.2588 0.0
H603 H 0.17896 0.91377 0.2881 0.0
H604 H 0.15258 0.88204 0.28589 0.0
H605 H 0.18552 0.87926 0.30417 0.0
H606 H 0.18927 0.82211 0.30521 0.0
H607 H 0.14625 0.79547 0.32344 0.0
H608 H 0.1014 0.30066 0.73632 0.0
H609 H 0.14196 0.27624 0.75883 0.0
H610 H 0.1734 0.22867 0.69848 0.0
H611 H 0.13329 0.25326 0.67587 0.0
H612 H 0.14648 0.21439 0.76492 0.0
H613 H 0.25355 0.25821 0.72623 0.0
H614 H 0.21686 0.27641 0.72176 0.0
H615 H 0.22756 0.24325 0.70521 0.0
C616 C 0.11731 0.28541 0.7278 0.0
C617 C 0.11416 0.27878 0.70437 0.0
C618 C 0.14047 0.27153 0.74065 0.0
C619 C 0.16096 0.25099 0.73026 0.0
C620 C 0.15833 0.24501 0.70674 0.0
H621 H 0.27772 0.1028 0.76418 0.0
H622 H 0.24937 0.14516 0.74674 0.0
C623 C 0.13521 0.25887 0.69388 0.0
C624 C 0.18282 0.23316 0.74432 0.0
H625 H 0.25777 0.21125 0.74781 0.0
C626 C 0.1709 0.21413 0.76151 0.0
C627 C 0.21465 0.23287 0.73978 0.0
C628 C 0.22897 0.25403 0.72239 0.0
C629 C 0.18969 0.19357 0.77345 0.0
C630 C 0.22132 0.19239 0.76826 0.0
C631 C 0.23348 0.21221 0.75168 0.0
C632 C 0.24149 0.16903 0.77869 0.0
C633 C 0.1753 0.17219 0.79069 0.0
C634 C 0.24713 0.16895 0.80232 0.0
C635 C 0.26324 0.14473 0.81233 0.0
C636 C 0.27401 0.12031 0.79883 0.0
C637 C 0.26957 0.12123 0.77502 0.0
C638 C 0.25347 0.14544 0.76504 0.0
H639 H 0.14988 0.17227 0.78966 0.0
H640 H 0.18354 0.14834 0.7881 0.0
H641 H 0.18196 0.17946 0.8082 0.0
H642 H 0.23838 0.1872 0.81307 0.0
H643 H 0.2665 0.14472 0.83072 0.0
H644 H 0.94078 0.24709 0.32139 0.0
H645 H 0.90032 0.22373 0.29831 0.0
H646 H 0.91741 0.28906 0.2444 0.0
H647 H 0.95831 0.31238 0.26732 0.0
H648 H 0.84614 0.24748 0.27677 0.0
H649 H 0.93275 0.20469 0.21435 0.0
H650 H 0.94339 0.21961 0.24203 0.0
H651 H 0.93219 0.24532 0.21956 0.0
C652 C 0.9357 0.25673 0.30474 0.0
C653 C 0.95293 0.28131 0.29602 0.0
C654 C 0.91252 0.24342 0.29161 0.0
C655 C 0.90623 0.25442 0.26956 0.0
C656 C 0.92228 0.27999 0.26127 0.0
H657 H 0.80227 0.14956 0.16771 0.0
H658 H 0.82789 0.19314 0.1861 0.0
C659 C 0.94554 0.29331 0.27439 0.0
C660 C 0.8845 0.23746 0.25483 0.0
H661 H 0.88199 0.18899 0.209 0.0
C662 C 0.85382 0.23499 0.26176 0.0
C663 C 0.89463 0.22133 0.23522 0.0
C664 C 0.92755 0.22258 0.22733 0.0
C665 C 0.83316 0.21602 0.24997 0.0
C666 C 0.84371 0.19868 0.23108 0.0
C667 C 0.87399 0.20232 0.2235 0.0
C668 C 0.82487 0.1744 0.22031 0.0
C669 C 0.80038 0.21441 0.25804 0.0
C670 C 0.81464 0.1495 0.23346 0.0
C671 C 0.80008 0.12465 0.22304 0.0
C672 C 0.79573 0.12412 0.19923 0.0
C673 C 0.80533 0.14937 0.18611 0.0
C674 C 0.8199 0.17427 0.19657 0.0
H675 H 0.79354 0.23585 0.26697 0.0
H676 H 0.78442 0.21035 0.24355 0.0
H677 H 0.79796 0.19521 0.27038 0.0
H678 H 0.81895 0.14873 0.25171 0.0
H679 H 0.79302 0.10548 0.23357 0.0
loop_
_geom_bond_atom_site_label_1
_geom_bond_atom_site_label_2
_geom_bond_distance
_geom_bond_site_symmetry_2
_ccdc_geom_bond_type
In0 O1 2.294 . S
In0 O2 2.326 . S
In0 O6 2.266 . S
In0 O7 2.326 . S
In0 O8 2.266 1_545 S
In0 O9 2.326 . S
In0 O11 2.294 . S
In0 O12 2.326 . S
O1 In0 2.294 . S
O1 C10 1.240 . S
O2 In0 2.326 . S
O2 C10 1.252 . S
C3 O6 1.252 . S
C3 O7 1.260 . S
C4 O11 1.240 . S
C4 O12 1.252 . S
C5 O8 1.252 . S
C5 O9 1.260 1_565 S
O6 In0 2.266 . S
O6 C3 1.252 . S
O7 In0 2.326 . S
O7 C3 1.260 . S
O8 In0 2.266 1_565 S
O8 C5 1.252 . S
O9 In0 2.326 . S
O9 C5 1.260 1_545 S
C10 O1 1.240 . S
C10 O2 1.252 . S
O11 In0 2.294 . S
O11 C4 1.240 . S
O12 In0 2.326 . S
O12 C4 1.252 . S
In13 O14 2.294 . S
In13 O15 2.326 . S
In13 O19 2.266 . S
In13 O20 2.326 . S
In13 O21 2.266 . S
In13 O22 2.326 . S
In13 O24 2.294 . S
In13 O25 2.326 . S
O14 In13 2.294 . S
O14 C23 1.240 . S
O15 In13 2.326 . S
O15 C23 1.252 . S
C16 O19 1.252 . S
C16 O20 1.260 . S
C17 O24 1.240 . S
C17 O25 1.252 . S
C18 O21 1.252 . S
C18 O22 1.260 . S
O19 In13 2.266 . S
O19 C16 1.252 . S
O20 In13 2.326 . S
O20 C16 1.260 . S
O21 In13 2.266 . S
O21 C18 1.252 . S
O22 In13 2.326 . S
O22 C18 1.260 . S
C23 O14 1.240 . S
C23 O15 1.252 . S
O24 In13 2.294 . S
O24 C17 1.240 . S
O25 In13 2.326 . S
O25 C17 1.252 . S
In26 O27 2.294 . S
In26 O28 2.326 . S
In26 O32 2.266 . S
In26 O33 2.326 . S
In26 O34 2.266 . S
In26 O35 2.326 . S
In26 O37 2.294 . S
In26 O38 2.326 . S
O27 In26 2.294 . S
O27 C36 1.240 . S
O28 In26 2.326 . S
O28 C36 1.252 . S
C29 O32 1.252 . S
C29 O33 1.260 . S
C30 O37 1.240 . S
C30 O38 1.252 . S
C31 O34 1.252 . S
C31 O35 1.260 . S
O32 In26 2.266 . S
O32 C29 1.252 . S
O33 In26 2.326 . S
O33 C29 1.260 . S
O34 In26 2.266 . S
O34 C31 1.252 . S
O35 In26 2.326 . S
O35 C31 1.260 . S
C36 O27 1.240 . S
C36 O28 1.252 . S
O37 In26 2.294 . S
O37 C30 1.240 . S
O38 In26 2.326 . S
O38 C30 1.252 . S
In39 O40 2.294 . S
In39 O41 2.326 . S
In39 O45 2.266 1_455 S
In39 O46 2.326 . S
In39 O47 2.266 . S
In39 O48 2.326 . S
In39 O50 2.294 . S
In39 O51 2.326 . S
O40 In39 2.294 . S
O40 C49 1.240 . S
O41 In39 2.326 . S
O41 C49 1.252 . S
C42 O45 1.252 . S
C42 O46 1.260 1_655 S
C43 O50 1.240 . S
C43 O51 1.252 . S
C44 O47 1.252 . S
C44 O48 1.260 . S
O45 In39 2.266 1_655 S
O45 C42 1.252 . S
O46 In39 2.326 . S
O46 C42 1.260 1_455 S
O47 In39 2.266 . S
O47 C44 1.252 . S
O48 In39 2.326 . S
O48 C44 1.260 . S
C49 O40 1.240 . S
C49 O41 1.252 . S
O50 In39 2.294 . S
O50 C43 1.240 . S
O51 In39 2.326 . S
O51 C43 1.252 . S
In52 O53 2.294 . S
In52 O54 2.326 . S
In52 O58 2.266 . S
In52 O59 2.326 . S
In52 O60 2.266 . S
In52 O61 2.326 . S
In52 O63 2.294 . S
In52 O64 2.326 . S
O53 In52 2.294 . S
O53 C62 1.240 . S
O54 In52 2.326 . S
O54 C62 1.252 . S
C55 O58 1.252 . S
C55 O59 1.260 . S
C56 O63 1.240 . S
C56 O64 1.252 . S
C57 O60 1.252 . S
C57 O61 1.260 . S
O58 In52 2.266 . S
O58 C55 1.252 . S
O59 In52 2.326 . S
O59 C55 1.260 . S
O60 In52 2.266 . S
O60 C57 1.252 . S
O61 In52 2.326 . S
O61 C57 1.260 . S
C62 O53 1.240 . S
C62 O54 1.252 . S
O63 In52 2.294 . S
O63 C56 1.240 . S
O64 In52 2.326 . S
O64 C56 1.252 . S
In65 O66 2.294 . S
In65 O67 2.326 . S
In65 O71 2.266 . S
In65 O72 2.326 . S
In65 O73 2.266 1_455 S
In65 O74 2.326 . S
In65 O76 2.294 . S
In65 O77 2.326 . S
O66 In65 2.294 . S
O66 C75 1.240 . S
O67 In65 2.326 . S
O67 C75 1.252 . S
C68 O71 1.252 . S
C68 O72 1.260 . S
C69 O76 1.240 . S
C69 O77 1.252 . S
C70 O73 1.252 . S
C70 O74 1.260 1_655 S
O71 In65 2.266 . S
O71 C68 1.252 . S
O72 In65 2.326 . S
O72 C68 1.260 . S
O73 In65 2.266 1_655 S
O73 C70 1.252 . S
O74 In65 2.326 . S
O74 C70 1.260 1_455 S
C75 O66 1.240 . S
C75 O67 1.252 . S
O76 In65 2.294 . S
O76 C69 1.240 . S
O77 In65 2.326 . S
O77 C69 1.252 . S
In78 O79 2.294 . S
In78 O80 2.326 . S
In78 O84 2.266 1_545 S
In78 O85 2.326 . S
In78 O86 2.266 . S
In78 O87 2.326 . S
In78 O89 2.294 . S
In78 O90 2.326 . S
O79 In78 2.294 . S
O79 C88 1.240 . S
O80 In78 2.326 . S
O80 C88 1.252 . S
C81 O84 1.252 . S
C81 O85 1.260 1_565 S
C82 O89 1.240 . S
C82 O90 1.252 . S
C83 O86 1.252 . S
C83 O87 1.260 . S
O84 In78 2.266 1_565 S
O84 C81 1.252 . S
O85 In78 2.326 . S
O85 C81 1.260 1_545 S
O86 In78 2.266 . S
O86 C83 1.252 . S
O87 In78 2.326 . S
O87 C83 1.260 . S
C88 O79 1.240 . S
C88 O80 1.252 . S
O89 In78 2.294 . S
O89 C82 1.240 . S
O90 In78 2.326 . S
O90 C82 1.252 . S
In91 O92 2.294 . S
In91 O93 2.326 . S
In91 O97 2.266 . S
In91 O98 2.326 . S
In91 O99 2.266 . S
In91 O100 2.326 . S
In91 O102 2.294 . S
In91 O103 2.326 . S
O92 In91 2.294 . S
O92 C101 1.240 . S
O93 In91 2.326 . S
O93 C101 1.252 . S
C94 O97 1.252 . S
C94 O98 1.260 . S
C95 O102 1.240 . S
C95 O103 1.252 . S
C96 O99 1.252 . S
C96 O100 1.260 . S
O97 In91 2.266 . S
O97 C94 1.252 . S
O98 In91 2.326 . S
O98 C94 1.260 . S
O99 In91 2.266 . S
O99 C96 1.252 . S
O100 In91 2.326 . S
O100 C96 1.260 . S
C101 O92 1.240 . S
C101 O93 1.252 . S
O102 In91 2.294 . S
O102 C95 1.240 . S
O103 In91 2.326 . S
O103 C95 1.252 . S
H104 C112 0.929 . S
H105 C114 0.930 . S
H106 C116 0.930 . S
H107 C119 0.929 . S
H108 C122 0.930 1_565 S
H109 C124 0.960 . S
H110 C124 0.960 . S
H111 C124 0.960 . S
C112 H104 0.929 . S
C112 C113 1.377 . S
C112 C114 1.384 . S
C113 C112 1.377 . S
C113 C119 1.390 . S
C114 H105 0.930 . S
C114 C112 1.384 . S
C114 C115 1.372 . S
C115 C114 1.372 . S
C115 C116 1.400 . S
C115 C120 1.490 . S
C116 H106 0.930 . S
C116 C115 1.400 . S
C116 C119 1.386 . S
H117 C133 0.930 . S
H118 C134 0.931 . S
C119 H107 0.929 . S
C119 C113 1.390 . S
C119 C116 1.386 . S
C120 C115 1.490 . S
C120 C122 1.395 . S
C120 C123 1.403 . S
H121 C127 0.930 . S
C122 H108 0.930 1_545 S
C122 C120 1.395 . S
C122 C125 1.403 1_554 S
C123 C120 1.403 . S
C123 C124 1.524 . S
C123 C127 1.400 1_554 S
C124 H109 0.960 . S
C124 H110 0.960 . S
C124 H111 0.960 . S
C124 C123 1.524 . S
C125 C122 1.403 1_556 S
C125 C126 1.392 . S
C125 C129 1.495 1_545 S
C126 C125 1.392 . S
C126 C127 1.385 . S
C126 C128 1.478 . S
C127 H121 0.930 . S
C127 C123 1.400 1_556 S
C127 C126 1.385 . S
C128 C126 1.478 . S
C128 C130 1.381 . S
C128 C134 1.383 . S
C129 C125 1.495 1_565 S
C129 H135 0.959 . S
C129 H136 0.961 . S
C129 H137 0.960 . S
C130 C128 1.381 . S
C130 C131 1.394 . S
C130 H138 0.930 . S
C131 C130 1.394 . S
C131 C132 1.383 . S
C131 H139 0.929 . S
C132 C131 1.383 . S
C132 C133 1.377 . S
C133 H117 0.930 . S
C133 C132 1.377 . S
C133 C134 1.379 . S
C134 H118 0.931 . S
C134 C128 1.383 . S
C134 C133 1.379 . S
H135 C129 0.959 . S
H136 C129 0.961 . S
H137 C129 0.960 . S
H138 C130 0.930 . S
H139 C131 0.929 . S
H140 C148 0.929 . S
H141 C150 0.930 . S
H142 C152 0.930 . S
H143 C155 0.929 . S
H144 C158 0.930 . S
H145 C160 0.960 . S
H146 C160 0.960 . S
H147 C160 0.960 . S
C148 H140 0.929 . S
C148 C149 1.377 . S
C148 C150 1.384 . S
C149 C148 1.377 . S
C149 C155 1.390 . S
C150 H141 0.930 . S
C150 C148 1.384 . S
C150 C151 1.372 . S
C151 C150 1.372 . S
C151 C152 1.400 . S
C151 C156 1.490 . S
C152 H142 0.930 . S
C152 C151 1.400 . S
C152 C155 1.386 . S
H153 C169 0.930 . S
H154 C170 0.931 . S
C155 H143 0.929 . S
C155 C149 1.390 . S
C155 C152 1.386 . S
C156 C151 1.490 . S
C156 C158 1.395 . S
C156 C159 1.403 . S
H157 C163 0.930 . S
C158 H144 0.930 . S
C158 C156 1.395 . S
C158 C161 1.403 . S
C159 C156 1.403 . S
C159 C160 1.524 . S
C159 C163 1.400 . S
C160 H145 0.960 . S
C160 H146 0.960 . S
C160 H147 0.960 . S
C160 C159 1.524 . S
C161 C158 1.403 . S
C161 C162 1.392 . S
C161 C165 1.495 . S
C162 C161 1.392 . S
C162 C163 1.385 . S
C162 C164 1.478 . S
C163 H157 0.930 . S
C163 C159 1.400 . S
C163 C162 1.385 . S
C164 C162 1.478 . S
C164 C166 1.381 . S
C164 C170 1.383 . S
C165 C161 1.495 . S
C165 H171 0.959 . S
C165 H172 0.961 . S
C165 H173 0.960 . S
C166 C164 1.381 . S
C166 C167 1.394 . S
C166 H174 0.930 . S
C167 C166 1.394 . S
C167 C168 1.383 . S
C167 H175 0.929 . S
C168 C167 1.383 . S
C168 C169 1.377 . S
C169 H153 0.930 . S
C169 C168 1.377 . S
C169 C170 1.379 . S
C170 H154 0.931 . S
C170 C164 1.383 . S
C170 C169 1.379 . S
H171 C165 0.959 . S
H172 C165 0.961 . S
H173 C165 0.960 . S
H174 C166 0.930 . S
H175 C167 0.929 . S
H176 C184 0.929 . S
H177 C186 0.930 . S
H178 C188 0.930 . S
H179 C191 0.929 . S
H180 C194 0.930 . S
H181 C196 0.960 . S
H182 C196 0.960 . S
H183 C196 0.960 . S
C184 H176 0.929 . S
C184 C185 1.377 . S
C184 C186 1.384 . S
C185 C184 1.377 . S
C185 C191 1.390 . S
C186 H177 0.930 . S
C186 C184 1.384 . S
C186 C187 1.372 . S
C187 C186 1.372 . S
C187 C188 1.400 . S
C187 C192 1.490 . S
C188 H178 0.930 . S
C188 C187 1.400 . S
C188 C191 1.386 . S
H189 C205 0.930 . S
H190 C206 0.931 . S
C191 H179 0.929 . S
C191 C185 1.390 . S
C191 C188 1.386 . S
C192 C187 1.490 . S
C192 C194 1.395 . S
C192 C195 1.403 . S
H193 C199 0.962 . S
C194 H180 0.930 . S
C194 C192 1.395 . S
C194 C197 1.403 1_556 S
C195 C192 1.403 . S
C195 C196 1.524 1_545 S
C195 C199 1.400 1_556 S
C196 H181 0.960 . S
C196 H182 0.960 . S
C196 H183 0.960 . S
C196 C195 1.524 1_565 S
C197 C194 1.403 1_554 S
C197 C198 1.392 . S
C197 C201 1.495 . S
C198 C197 1.392 . S
C198 C199 1.385 . S
C198 C200 1.478 . S
C199 H193 0.962 . S
C199 C195 1.400 1_554 S
C199 C198 1.385 . S
C200 C198 1.478 . S
C200 C202 1.381 . S
C200 C206 1.383 . S
C201 C197 1.495 . S
C201 H207 0.959 . S
C201 H208 0.961 . S
C201 H209 0.960 . S
C202 C200 1.381 . S
C202 C203 1.394 . S
C202 H210 0.930 . S
C203 C202 1.394 . S
C203 C204 1.383 . S
C203 H211 0.929 . S
C204 C203 1.383 . S
C204 C205 1.377 . S
C205 H189 0.930 . S
C205 C204 1.377 . S
C205 C206 1.379 . S
C206 H190 0.931 . S
C206 C200 1.383 . S
C206 C205 1.379 . S
H207 C201 0.959 . S
H208 C201 0.961 . S
H209 C201 0.960 . S
H210 C202 0.930 . S
H211 C203 0.929 . S
H212 C220 0.929 . S
H213 C222 0.930 . S
H214 C224 0.930 . S
H215 C227 0.929 . S
H216 C230 0.930 1_655 S
H217 C232 0.960 . S
H218 C232 0.960 . S
H219 C232 0.960 . S
C220 H212 0.929 . S
C220 C221 1.377 . S
C220 C222 1.384 . S
C221 C220 1.377 . S
C221 C227 1.390 . S
C222 H213 0.930 . S
C222 C220 1.384 . S
C222 C223 1.372 . S
C223 C222 1.372 . S
C223 C224 1.400 . S
C223 C228 1.490 . S
C224 H214 0.930 . S
C224 C223 1.400 . S
C224 C227 1.386 . S
H225 C241 0.930 . S
H226 C242 0.931 . S
C227 H215 0.929 . S
C227 C221 1.390 . S
C227 C224 1.386 . S
C228 C223 1.490 . S
C228 C230 1.395 . S
C228 C231 1.403 . S
H229 C235 0.930 . S
C230 H216 0.930 1_455 S
C230 C228 1.395 . S
C230 C233 1.403 . S
C231 C228 1.403 . S
C231 C232 1.524 . S
C231 C235 1.400 . S
C232 H217 0.960 . S
C232 H218 0.960 . S
C232 H219 0.960 . S
C232 C231 1.524 . S
C233 C230 1.403 . S
C233 C234 1.392 . S
C233 C237 1.495 1_455 S
C234 C233 1.392 . S
C234 C235 1.385 . S
C234 C236 1.478 . S
C235 H229 0.930 . S
C235 C231 1.400 . S
C235 C234 1.385 . S
C236 C234 1.478 . S
C236 C238 1.381 . S
C236 C242 1.383 . S
C237 C233 1.495 1_655 S
C237 H243 0.959 . S
C237 H244 0.961 . S
C237 H245 0.960 . S
C238 C236 1.381 . S
C238 C239 1.394 . S
C238 H246 0.930 . S
C239 C238 1.394 . S
C239 C240 1.383 . S
C239 H247 0.929 . S
C240 C239 1.383 . S
C240 C241 1.377 . S
C241 H225 0.930 . S
C241 C240 1.377 . S
C241 C242 1.379 . S
C242 H226 0.931 . S
C242 C236 1.383 . S
C242 C241 1.379 . S
H243 C237 0.959 . S
H244 C237 0.961 . S
H245 C237 0.960 . S
H246 C238 0.930 . S
H247 C239 0.929 . S
H248 C256 0.929 . S
H249 C258 0.930 . S
H250 C260 0.930 1_565 S
H251 C263 0.929 . S
H252 C266 0.930 . S
H253 C268 0.960 1_565 S
H254 C268 0.960 . S
H255 C268 0.960 1_565 S
C256 H248 0.929 . S
C256 C257 1.377 . S
C256 C258 1.384 . S
C257 C256 1.377 . S
C257 C263 1.390 1_545 S
C258 H249 0.930 . S
C258 C256 1.384 . S
C258 C259 1.372 . S
C259 C258 1.372 . S
C259 C260 1.400 . S
C259 C264 1.490 . S
C260 H250 0.930 1_545 S
C260 C259 1.400 . S
C260 C263 1.386 1_545 S
H261 C277 0.930 . S
H262 C278 0.931 . S
C263 H251 0.929 . S
C263 C257 1.390 1_565 S
C263 C260 1.386 1_565 S
C264 C259 1.490 . S
C264 C266 1.395 . S
C264 C267 1.403 . S
H265 C271 0.930 . S
C266 H252 0.930 . S
C266 C264 1.395 . S
C266 C269 1.403 . S
C267 C264 1.403 . S
C267 C268 1.524 . S
C267 C271 1.400 . S
C268 H253 0.960 1_545 S
C268 H254 0.960 . S
C268 H255 0.960 1_545 S
C268 C267 1.524 . S
C269 C266 1.403 . S
C269 C270 1.392 . S
C269 C273 1.495 . S
C270 C269 1.392 . S
C270 C271 1.385 . S
C270 C272 1.478 . S
C271 H265 0.930 . S
C271 C267 1.400 . S
C271 C270 1.385 . S
C272 C270 1.478 . S
C272 C274 1.381 . S
C272 C278 1.383 . S
C273 C269 1.495 . S
C273 H279 0.959 . S
C273 H280 0.961 . S
C273 H281 0.960 . S
C274 C272 1.381 . S
C274 C275 1.394 . S
C274 H282 0.930 . S
C275 C274 1.394 . S
C275 C276 1.383 . S
C275 H283 0.929 . S
C276 C275 1.383 . S
C276 C277 1.377 . S
C277 H261 0.930 . S
C277 C276 1.377 . S
C277 C278 1.379 . S
C278 H262 0.931 . S
C278 C272 1.383 . S
C278 C277 1.379 . S
H279 C273 0.959 . S
H280 C273 0.961 . S
H281 C273 0.960 . S
H282 C274 0.930 . S
H283 C275 0.929 . S
H284 C292 0.929 . S
H285 C294 0.930 . S
H286 C296 0.930 . S
H287 C299 0.929 . S
H288 C302 0.930 . S
H289 C304 0.960 . S
H290 C304 0.960 . S
H291 C304 0.960 . S
C292 H284 0.929 . S
C292 C293 1.377 . S
C292 C294 1.384 . S
C293 C292 1.377 . S
C293 C299 1.390 . S
C294 H285 0.930 . S
C294 C292 1.384 . S
C294 C295 1.372 . S
C295 C294 1.372 . S
C295 C296 1.400 . S
C295 C300 1.490 . S
C296 H286 0.930 . S
C296 C295 1.400 . S
C296 C299 1.386 . S
H297 C313 0.930 . S
H298 C314 0.931 . S
C299 H287 0.929 . S
C299 C293 1.390 . S
C299 C296 1.386 . S
C300 C295 1.490 . S
C300 C302 1.395 . S
C300 C303 1.403 . S
H301 C307 0.930 . S
C302 H288 0.930 . S
C302 C300 1.395 . S
C302 C305 1.403 . S
C303 C300 1.403 . S
C303 C304 1.524 . S
C303 C307 1.400 . S
C304 H289 0.960 . S
C304 H290 0.960 . S
C304 H291 0.960 . S
C304 C303 1.524 . S
C305 C302 1.403 . S
C305 C306 1.392 . S
C305 C309 1.495 . S
C306 C305 1.392 . S
C306 C307 1.385 . S
C306 C308 1.478 . S
C307 H301 0.930 . S
C307 C303 1.400 . S
C307 C306 1.385 . S
C308 C306 1.478 . S
C308 C310 1.381 . S
C308 C314 1.383 . S
C309 C305 1.495 . S
C309 H315 0.959 . S
C309 H316 0.961 . S
C309 H317 0.960 . S
C310 C308 1.381 . S
C310 C311 1.394 . S
C310 H318 0.930 1_455 S
C311 C310 1.394 . S
C311 C312 1.383 . S
C311 H319 0.929 1_455 S
C312 C311 1.383 . S
C312 C313 1.377 . S
C313 H297 0.930 . S
C313 C312 1.377 . S
C313 C314 1.379 . S
C314 H298 0.931 . S
C314 C308 1.383 . S
C314 C313 1.379 . S
H315 C309 0.959 . S
H316 C309 0.961 . S
H317 C309 0.960 . S
H318 C310 0.930 1_655 S
H319 C311 0.929 1_655 S
H320 C328 0.929 . S
H321 C330 0.930 . S
H322 C332 0.930 1_565 S
H323 C335 0.929 . S
H324 C338 0.930 . S
H325 C340 0.960 . S
H326 C340 0.960 1_545 S
H327 C340 0.960 . S
C328 H320 0.929 . S
C328 C329 1.377 . S
C328 C330 1.384 . S
C329 C328 1.377 . S
C329 C335 1.390 1_545 S
C330 H321 0.930 . S
C330 C328 1.384 . S
C330 C331 1.372 . S
C331 C330 1.372 . S
C331 C332 1.400 . S
C331 C336 1.490 . S
C332 H322 0.930 1_545 S
C332 C331 1.400 . S
C332 C335 1.386 1_545 S
H333 C349 0.930 . S
H334 C350 0.931 . S
C335 H323 0.929 . S
C335 C329 1.390 1_565 S
C335 C332 1.386 1_565 S
C336 C331 1.490 . S
C336 C338 1.395 . S
C336 C339 1.403 . S
H337 C343 0.930 . S
C338 H324 0.930 . S
C338 C336 1.395 . S
C338 C341 1.403 . S
C339 C336 1.403 . S
C339 C340 1.524 1_545 S
C339 C343 1.400 . S
C340 H325 0.960 . S
C340 H326 0.960 1_565 S
C340 H327 0.960 . S
C340 C339 1.524 1_565 S
C341 C338 1.403 . S
C341 C342 1.392 . S
C341 C345 1.495 . S
C342 C341 1.392 . S
C342 C343 1.385 . S
C342 C344 1.478 . S
C343 H337 0.930 . S
C343 C339 1.400 . S
C343 C342 1.385 . S
C344 C342 1.478 . S
C344 C346 1.381 . S
C344 C350 1.383 . S
C345 C341 1.495 . S
C345 H351 0.959 . S
C345 H352 0.961 . S
C345 H353 0.960 . S
C346 C344 1.381 . S
C346 C347 1.394 . S
C346 H354 0.930 . S
C347 C346 1.394 . S
C347 C348 1.383 . S
C347 H355 0.929 . S
C348 C347 1.383 . S
C348 C349 1.377 . S
C349 H333 0.930 . S
C349 C348 1.377 . S
C349 C350 1.379 . S
C350 H334 0.931 . S
C350 C344 1.383 . S
C350 C349 1.379 . S
H351 C345 0.959 . S
H352 C345 0.961 . S
H353 C345 0.960 . S
H354 C346 0.930 . S
H355 C347 0.929 . S
H356 C364 0.929 . S
H357 C366 0.930 . S
H358 C368 0.930 . S
H359 C371 0.929 . S
H360 C374 0.930 . S
H361 C376 0.960 . S
H362 C376 0.960 . S
H363 C376 0.960 . S
C364 H356 0.929 . S
C364 C365 1.377 . S
C364 C366 1.384 . S
C365 C364 1.377 . S
C365 C371 1.390 . S
C366 H357 0.930 . S
C366 C364 1.384 . S
C366 C367 1.372 . S
C367 C366 1.372 . S
C367 C368 1.400 . S
C367 C372 1.490 . S
C368 H358 0.930 . S
C368 C367 1.400 . S
C368 C371 1.386 . S
H369 C385 0.930 . S
H370 C386 0.931 . S
C371 H359 0.929 . S
C371 C365 1.390 . S
C371 C368 1.386 . S
C372 C367 1.490 . S
C372 C374 1.395 . S
C372 C375 1.403 . S
H373 C379 0.930 . S
C374 H360 0.930 . S
C374 C372 1.395 . S
C374 C377 1.403 . S
C375 C372 1.403 . S
C375 C376 1.524 1_455 S
C375 C379 1.400 . S
C376 H361 0.960 . S
C376 H362 0.960 . S
C376 H363 0.960 . S
C376 C375 1.524 1_655 S
C377 C374 1.403 . S
C377 C378 1.392 . S
C377 C381 1.495 . S
C378 C377 1.392 . S
C378 C379 1.385 . S
C378 C380 1.478 . S
C379 H373 0.930 . S
C379 C375 1.400 . S
C379 C378 1.385 . S
C380 C378 1.478 . S
C380 C382 1.381 . S
C380 C386 1.383 . S
C381 C377 1.495 . S
C381 H387 0.959 . S
C381 H388 0.961 . S
C381 H389 0.960 . S
C382 C380 1.381 . S
C382 C383 1.394 . S
C382 H390 0.930 . S
C383 C382 1.394 . S
C383 C384 1.383 . S
C383 H391 0.929 . S
C384 C383 1.383 . S
C384 C385 1.377 . S
C385 H369 0.930 . S
C385 C384 1.377 . S
C385 C386 1.379 . S
C386 H370 0.931 . S
C386 C380 1.383 . S
C386 C385 1.379 . S
H387 C381 0.959 . S
H388 C381 0.961 . S
H389 C381 0.960 . S
H390 C382 0.930 . S
H391 C383 0.929 . S
H392 C400 0.929 . S
H393 C402 0.930 . S
H394 C404 0.930 . S
H395 C407 0.929 . S
H396 C410 0.930 . S
H397 C412 0.960 . S
H398 C412 0.960 . S
H399 C412 0.960 . S
C400 H392 0.929 . S
C400 C401 1.377 . S
C400 C402 1.384 . S
C401 C400 1.377 . S
C401 C407 1.390 . S
C402 H393 0.930 . S
C402 C400 1.384 . S
C402 C403 1.372 . S
C403 C402 1.372 . S
C403 C404 1.400 . S
C403 C408 1.490 . S
C404 H394 0.930 . S
C404 C403 1.400 . S
C404 C407 1.386 . S
H405 C421 0.930 . S
H406 C422 0.931 . S
C407 H395 0.929 . S
C407 C401 1.390 . S
C407 C404 1.386 . S
C408 C403 1.490 . S
C408 C410 1.395 . S
C408 C411 1.403 . S
H409 C415 0.930 . S
C410 H396 0.930 . S
C410 C408 1.395 . S
C410 C413 1.403 . S
C411 C408 1.403 . S
C411 C412 1.524 . S
C411 C415 1.400 . S
C412 H397 0.960 . S
C412 H398 0.960 . S
C412 H399 0.960 . S
C412 C411 1.524 . S
C413 C410 1.403 . S
C413 C414 1.392 . S
C413 C417 1.495 . S
C414 C413 1.392 . S
C414 C415 1.385 . S
C414 C416 1.478 . S
C415 H409 0.930 . S
C415 C411 1.400 . S
C415 C414 1.385 . S
C416 C414 1.478 . S
C416 C418 1.381 . S
C416 C422 1.383 . S
C417 C413 1.495 . S
C417 H423 0.959 . S
C417 H424 0.961 . S
C417 H425 0.960 . S
C418 C416 1.381 . S
C418 C419 1.394 . S
C418 H426 0.930 . S
C419 C418 1.394 . S
C419 C420 1.383 . S
C419 H427 0.929 . S
C420 C419 1.383 . S
C420 C421 1.377 . S
C421 H405 0.930 . S
C421 C420 1.377 . S
C421 C422 1.379 . S
C422 H406 0.931 . S
C422 C416 1.383 . S
C422 C421 1.379 . S
H423 C417 0.959 . S
H424 C417 0.961 . S
H425 C417 0.960 . S
H426 C418 0.930 . S
H427 C419 0.929 . S
H428 C436 0.929 . S
H429 C438 0.930 . S
H430 C440 0.930 . S
H431 C443 0.929 . S
H432 C446 0.930 . S
H433 C448 0.960 . S
H434 C448 0.960 . S
H435 C448 0.960 . S
C436 H428 0.929 . S
C436 C437 1.377 . S
C436 C438 1.384 . S
C437 C436 1.377 . S
C437 C443 1.390 . S
C438 H429 0.930 . S
C438 C436 1.384 . S
C438 C439 1.372 . S
C439 C438 1.372 . S
C439 C440 1.400 . S
C439 C444 1.490 . S
C440 H430 0.930 . S
C440 C439 1.400 . S
C440 C443 1.386 . S
H441 C457 0.930 . S
H442 C458 0.931 . S
C443 H431 0.929 . S
C443 C437 1.390 . S
C443 C440 1.386 . S
C444 C439 1.490 . S
C444 C446 1.395 . S
C444 C447 1.403 . S
H445 C451 0.930 . S
C446 H432 0.930 . S
C446 C444 1.395 . S
C446 C449 1.403 . S
C447 C444 1.403 . S
C447 C448 1.524 . S
C447 C451 1.400 . S
C448 H433 0.960 . S
C448 H434 0.960 . S
C448 H435 0.960 . S
C448 C447 1.524 . S
C449 C446 1.403 . S
C449 C450 1.392 . S
C449 C453 1.495 . S
C450 C449 1.392 . S
C450 C451 1.385 . S
C450 C452 1.478 . S
C451 H445 0.930 . S
C451 C447 1.400 . S
C451 C450 1.385 . S
C452 C450 1.478 . S
C452 C454 1.381 . S
C452 C458 1.383 . S
C453 C449 1.495 . S
C453 H459 0.959 . S
C453 H460 0.961 . S
C453 H461 0.960 . S
C454 C452 1.381 . S
C454 C455 1.394 . S
C454 H462 0.930 . S
C455 C454 1.394 . S
C455 C456 1.383 . S
C455 H463 0.929 . S
C456 C455 1.383 . S
C456 C457 1.377 . S
C457 H441 0.930 . S
C457 C456 1.377 . S
C457 C458 1.379 . S
C458 H442 0.931 . S
C458 C452 1.383 . S
C458 C457 1.379 . S
H459 C453 0.959 . S
H460 C453 0.961 . S
H461 C453 0.960 . S
H462 C454 0.930 . S
H463 C455 0.929 . S
H464 C472 0.929 . S
H465 C474 0.930 . S
H466 C476 0.930 . S
H467 C479 0.929 . S
H468 C482 0.930 . S
H469 C484 0.960 . S
H470 C484 0.960 . S
H471 C484 0.960 . S
C472 H464 0.929 . S
C472 C473 1.377 . S
C472 C474 1.384 . S
C473 C472 1.377 . S
C473 C479 1.390 . S
C474 H465 0.930 . S
C474 C472 1.384 . S
C474 C475 1.372 . S
C475 C474 1.372 . S
C475 C476 1.400 . S
C475 C480 1.490 . S
C476 H466 0.930 . S
C476 C475 1.400 . S
C476 C479 1.386 . S
H477 C493 0.930 . S
H478 C494 0.931 . S
C479 H467 0.929 . S
C479 C473 1.390 . S
C479 C476 1.386 . S
C480 C475 1.490 . S
C480 C482 1.395 . S
C480 C483 1.403 . S
H481 C487 0.930 . S
C482 H468 0.930 . S
C482 C480 1.395 . S
C482 C485 1.403 . S
C483 C480 1.403 . S
C483 C484 1.524 . S
C483 C487 1.400 . S
C484 H469 0.960 . S
C484 H470 0.960 . S
C484 H471 0.960 . S
C484 C483 1.524 . S
C485 C482 1.403 . S
C485 C486 1.392 . S
C485 C489 1.495 . S
C486 C485 1.392 . S
C486 C487 1.385 . S
C486 C488 1.478 . S
C487 H481 0.930 . S
C487 C483 1.400 . S
C487 C486 1.385 . S
C488 C486 1.478 . S
C488 C490 1.381 . S
C488 C494 1.383 . S
C489 C485 1.495 . S
C489 H495 0.959 . S
C489 H496 0.961 . S
C489 H497 0.960 . S
C490 C488 1.381 . S
C490 C491 1.394 . S
C490 H498 0.930 . S
C491 C490 1.394 . S
C491 C492 1.383 . S
C491 H499 0.929 1_565 S
C492 C491 1.383 . S
C492 C493 1.377 . S
C493 H477 0.930 . S
C493 C492 1.377 . S
C493 C494 1.379 . S
C494 H478 0.931 . S
C494 C488 1.383 . S
C494 C493 1.379 . S
H495 C489 0.959 . S
H496 C489 0.961 . S
H497 C489 0.960 . S
H498 C490 0.930 . S
H499 C491 0.929 1_545 S
H500 C508 0.929 . S
H501 C510 0.930 . S
H502 C512 0.930 . S
H503 C515 0.929 . S
H504 C518 0.930 . S
H505 C520 0.960 . S
H506 C520 0.960 . S
H507 C520 0.960 . S
C508 H500 0.929 . S
C508 C509 1.377 . S
C508 C510 1.384 . S
C509 C508 1.377 . S
C509 C515 1.390 . S
C510 H501 0.930 . S
C510 C508 1.384 . S
C510 C511 1.372 . S
C511 C510 1.372 . S
C511 C512 1.400 . S
C511 C516 1.490 . S
C512 H502 0.930 . S
C512 C511 1.400 . S
C512 C515 1.386 . S
H513 C529 0.930 . S
H514 C530 0.931 . S
C515 H503 0.929 . S
C515 C509 1.390 . S
C515 C512 1.386 . S
C516 C511 1.490 . S
C516 C518 1.395 . S
C516 C519 1.403 . S
H517 C523 0.930 . S
C518 H504 0.930 . S
C518 C516 1.395 . S
C518 C521 1.403 . S
C519 C516 1.403 . S
C519 C520 1.524 . S
C519 C523 1.400 . S
C520 H505 0.960 . S
C520 H506 0.960 . S
C520 H507 0.960 . S
C520 C519 1.524 . S
C521 C518 1.403 . S
C521 C522 1.392 . S
C521 C525 1.495 . S
C522 C521 1.392 . S
C522 C523 1.385 . S
C522 C524 1.478 . S
C523 H517 0.930 . S
C523 C519 1.400 . S
C523 C522 1.385 . S
C524 C522 1.478 . S
C524 C526 1.381 . S
C524 C530 1.383 . S
C525 C521 1.495 . S
C525 H531 0.959 . S
C525 H532 0.961 . S
C525 H533 0.960 . S
C526 C524 1.381 . S
C526 C527 1.408 . S
C526 H534 0.930 . S
C527 C526 1.408 . S
C527 C528 1.390 . S
C527 H535 0.909 1_565 S
C528 C527 1.390 . S
C528 C529 1.377 . S
C529 H513 0.930 . S
C529 C528 1.377 . S
C529 C530 1.379 . S
C530 H514 0.931 . S
C530 C524 1.383 . S
C530 C529 1.379 . S
H531 C525 0.959 . S
H532 C525 0.961 . S
H533 C525 0.960 . S
H534 C526 0.930 . S
H535 C527 0.909 1_545 S
H536 C544 0.929 1_545 S
H537 C546 0.930 . S
H538 C548 0.930 . S
H539 C551 0.929 . S
H540 C554 0.930 . S
H541 C556 0.960 . S
H542 C556 0.960 . S
H543 C556 0.960 . S
C544 H536 0.929 1_565 S
C544 C545 1.377 . S
C544 C546 1.384 . S
C545 C544 1.377 . S
C545 C551 1.390 . S
C546 H537 0.930 . S
C546 C544 1.384 . S
C546 C547 1.372 . S
C547 C546 1.372 . S
C547 C548 1.400 . S
C547 C552 1.490 . S
C548 H538 0.930 . S
C548 C547 1.400 . S
C548 C551 1.386 . S
H549 C565 0.930 . S
H550 C566 0.931 . S
C551 H539 0.929 . S
C551 C545 1.390 . S
C551 C548 1.386 . S
C552 C547 1.490 . S
C552 C554 1.395 . S
C552 C555 1.403 . S
H553 C559 0.930 . S
C554 H540 0.930 . S
C554 C552 1.395 . S
C554 C557 1.403 . S
C555 C552 1.403 . S
C555 C556 1.524 . S
C555 C559 1.400 . S
C556 H541 0.960 . S
C556 H542 0.960 . S
C556 H543 0.960 . S
C556 C555 1.524 . S
C557 C554 1.403 . S
C557 C558 1.392 . S
C557 C561 1.495 . S
C558 C557 1.392 . S
C558 C559 1.385 . S
C558 C560 1.478 . S
C559 H553 0.930 . S
C559 C555 1.400 . S
C559 C558 1.385 . S
C560 C558 1.478 . S
C560 C562 1.381 . S
C560 C566 1.383 . S
C561 C557 1.495 . S
C561 H567 0.959 . S
C561 H568 0.961 . S
C561 H569 0.960 . S
C562 C560 1.381 . S
C562 C563 1.394 . S
C562 H570 0.930 . S
C563 C562 1.394 . S
C563 C564 1.383 . S
C563 H571 0.929 . S
C564 C563 1.383 . S
C564 C565 1.377 . S
C565 H549 0.930 . S
C565 C564 1.377 . S
C565 C566 1.379 . S
C566 H550 0.931 . S
C566 C560 1.383 . S
C566 C565 1.379 . S
H567 C561 0.959 . S
H568 C561 0.961 . S
H569 C561 0.960 . S
H570 C562 0.930 . S
H571 C563 0.929 . S
H572 C580 0.929 . S
H573 C582 0.930 . S
H574 C584 0.930 . S
H575 C587 0.929 . S
H576 C590 0.930 . S
H577 C592 0.960 . S
H578 C592 0.960 . S
H579 C592 0.960 . S
C580 H572 0.929 . S
C580 C581 1.377 . S
C580 C582 1.384 . S
C581 C580 1.377 . S
C581 C587 1.390 . S
C582 H573 0.930 . S
C582 C580 1.384 . S
C582 C583 1.372 . S
C583 C582 1.372 . S
C583 C584 1.400 . S
C583 C588 1.490 . S
C584 H574 0.930 . S
C584 C583 1.400 . S
C584 C587 1.386 . S
H585 C601 0.930 . S
H586 C602 0.931 . S
C587 H575 0.929 . S
C587 C581 1.390 . S
C587 C584 1.386 . S
C588 C583 1.490 . S
C588 C590 1.395 . S
C588 C591 1.403 . S
H589 C595 0.930 . S
C590 H576 0.930 . S
C590 C588 1.395 . S
C590 C593 1.403 . S
C591 C588 1.403 . S
C591 C592 1.524 . S
C591 C595 1.400 . S
C592 H577 0.960 . S
C592 H578 0.960 . S
C592 H579 0.960 . S
C592 C591 1.524 . S
C593 C590 1.403 . S
C593 C594 1.392 . S
C593 C597 1.495 . S
C594 C593 1.392 . S
C594 C595 1.385 . S
C594 C596 1.478 . S
C595 H589 0.930 . S
C595 C591 1.400 . S
C595 C594 1.385 . S
C596 C594 1.478 . S
C596 C598 1.381 . S
C596 C602 1.383 . S
C597 C593 1.495 . S
C597 H603 0.959 . S
C597 H604 0.961 . S
C597 H605 0.960 . S
C598 C596 1.381 . S
C598 C599 1.394 . S
C598 H606 0.930 . S
C599 C598 1.394 . S
C599 C600 1.383 . S
C599 H607 0.929 . S
C600 C599 1.383 . S
C600 C601 1.377 . S
C601 H585 0.930 . S
C601 C600 1.377 . S
C601 C602 1.379 . S
C602 H586 0.931 . S
C602 C596 1.383 . S
C602 C601 1.379 . S
H603 C597 0.959 . S
H604 C597 0.961 . S
H605 C597 0.960 . S
H606 C598 0.930 . S
H607 C599 0.929 . S
H608 C616 0.929 . S
H609 C618 0.930 . S
H610 C620 0.930 . S
H611 C623 0.929 . S
H612 C626 0.930 . S
H613 C628 0.960 . S
H614 C628 0.960 . S
H615 C628 0.960 . S
C616 H608 0.929 . S
C616 C617 1.377 . S
C616 C618 1.384 . S
C617 C616 1.377 . S
C617 C623 1.390 . S
C618 H609 0.930 . S
C618 C616 1.384 . S
C618 C619 1.372 . S
C619 C618 1.372 . S
C619 C620 1.400 . S
C619 C624 1.490 . S
C620 H610 0.930 . S
C620 C619 1.400 . S
C620 C623 1.386 . S
H621 C637 0.930 . S
H622 C638 0.931 . S
C623 H611 0.929 . S
C623 C617 1.390 . S
C623 C620 1.386 . S
C624 C619 1.490 . S
C624 C626 1.395 . S
C624 C627 1.403 . S
H625 C631 0.930 . S
C626 H612 0.930 . S
C626 C624 1.395 . S
C626 C629 1.403 . S
C627 C624 1.403 . S
C627 C628 1.524 . S
C627 C631 1.400 . S
C628 H613 0.960 . S
C628 H614 0.960 . S
C628 H615 0.960 . S
C628 C627 1.524 . S
C629 C626 1.403 . S
C629 C630 1.392 . S
C629 C633 1.495 . S
C630 C629 1.392 . S
C630 C631 1.385 . S
C630 C632 1.478 . S
C631 H625 0.930 . S
C631 C627 1.400 . S
C631 C630 1.385 . S
C632 C630 1.478 . S
C632 C634 1.381 . S
C632 C638 1.383 . S
C633 C629 1.495 . S
C633 H639 0.959 . S
C633 H640 0.961 . S
C633 H641 0.960 . S
C634 C632 1.381 . S
C634 C635 1.394 . S
C634 H642 0.930 . S
C635 C634 1.394 . S
C635 C636 1.383 . S
C635 H643 0.929 . S
C636 C635 1.383 . S
C636 C637 1.377 . S
C637 H621 0.930 . S
C637 C636 1.377 . S
C637 C638 1.379 . S
C638 H622 0.931 . S
C638 C632 1.383 . S
C638 C637 1.379 . S
H639 C633 0.959 . S
H640 C633 0.961 . S
H641 C633 0.960 . S
H642 C634 0.930 . S
H643 C635 0.929 . S
H644 C652 0.929 . S
H645 C654 0.930 . S
H646 C656 0.930 . S
H647 C659 0.929 . S
H648 C662 0.930 . S
H649 C664 0.960 . S
H650 C664 0.960 . S
H651 C664 0.960 . S
C652 H644 0.929 . S
C652 C653 1.377 . S
C652 C654 1.384 . S
C653 C652 1.377 . S
C653 C659 1.390 . S
C654 H645 0.930 . S
C654 C652 1.384 . S
C654 C655 1.372 . S
C655 C654 1.372 . S
C655 C656 1.400 . S
C655 C660 1.490 . S
C656 H646 0.930 . S
C656 C655 1.400 . S
C656 C659 1.386 . S
H657 C673 0.930 . S
H658 C674 0.931 . S
C659 H647 0.929 . S
C659 C653 1.390 . S
C659 C656 1.386 . S
C660 C655 1.490 . S
C660 C662 1.395 . S
C660 C663 1.403 . S
H661 C667 0.930 . S
C662 H648 0.930 . S
C662 C660 1.395 . S
C662 C665 1.403 . S
C663 C660 1.403 . S
C663 C664 1.524 . S
C663 C667 1.400 . S
C664 H649 0.960 . S
C664 H650 0.960 . S
C664 H651 0.960 . S
C664 C663 1.524 . S
C665 C662 1.403 . S
C665 C666 1.392 . S
C665 C669 1.495 . S
C666 C665 1.392 . S
C666 C667 1.385 . S
C666 C668 1.478 . S
C667 H661 0.930 . S
C667 C663 1.400 . S
C667 C666 1.385 . S
C668 C666 1.478 . S
C668 C670 1.381 . S
C668 C674 1.383 . S
C669 C665 1.495 . S
C669 H675 0.959 . S
C669 H676 0.961 . S
C669 H677 0.960 . S
C670 C668 1.381 . S
C670 C671 1.394 . S
C670 H678 0.930 . S
C671 C670 1.394 . S
C671 C672 1.383 . S
C671 H679 0.929 . S
C672 C671 1.383 . S
C672 C673 1.377 . S
C673 H657 0.930 . S
C673 C672 1.377 . S
C673 C674 1.379 . S
C674 H658 0.931 . S
C674 C668 1.383 . S
C674 C673 1.379 . S
H675 C669 0.959 . S
H676 C669 0.961 . S
H677 C669 0.960 . S
H678 C670 0.930 . S
H679 C671 0.929 . S
C113 C4 1.637 . S
C132 C62 1.640 . S
C149 C17 1.635 . S
C168 C69 1.629 . S
C185 C88 1.635 . S
C204 C30 1.625 . S
C221 C101 1.635 . S
C240 C49 1.626 . S
C257 C10 1.355 . S
C276 C36 1.367 . S
C293 C23 1.354 . S
C312 C43 1.353 . S
C329 C82 1.356 . S
C348 C56 1.369 . S
C365 C75 1.360 . S
C384 C95 1.367 . S
C401 C68 1.681 . S
C420 C3 1.674 . S
C437 C16 1.683 1_655 S
C456 C83 1.677 . S
C473 C96 1.683 1_655 S
C492 C29 1.676 1_565 S
C509 C44 1.683 . S
C528 C57 1.677 1_565 S
C545 C81 1.086 . S
C564 C42 1.079 . S
C581 C5 1.086 . S
C600 C94 1.070 . S
C617 C18 1.088 . S
C636 C55 1.065 . S
C653 C70 1.080 . S
C672 C31 1.101 . S
