# Generated by pormake.
# Topology snp, (6)-cn, num edge types: 1
# Building blocks:
#     Node 0, Type 0, BuildingBlock: KUMBUR_clean_sbu_0, # of connection points: 6
#     Node 1, Type 0, BuildingBlock: KUMBUR_clean_sbu_0, # of connection points: 6
#     Node 2, Type 0, BuildingBlock: KUMBUR_clean_sbu_0, # of connection points: 6
#     Node 3, Type 0, BuildingBlock: KUMBUR_clean_sbu_0, # of connection points: 6
#     Edge 4, Type (0, 0), BuildingBlock: FUNLAD_clean_linker_0, # of connection points: 2
#     Edge 5, Type (0, 0), BuildingBlock: FUNLAD_clean_linker_0, # of connection points: 2
#     Edge 6, Type (0, 0), BuildingBlock: FUNLAD_clean_linker_0, # of connection points: 2
#     Edge 7, Type (0, 0), BuildingBlock: FUNLAD_clean_linker_0, # of connection points: 2
#     Edge 8, Type (0, 0), BuildingBlock: FUNLAD_clean_linker_0, # of connection points: 2
#     Edge 9, Type (0, 0), BuildingBlock: FUNLAD_clean_linker_0, # of connection points: 2
#     Edge 10, Type (0, 0), BuildingBlock: FUNLAD_clean_linker_0, # of connection points: 2
#     Edge 11, Type (0, 0), BuildingBlock: FUNLAD_clean_linker_0, # of connection points: 2
#     Edge 12, Type (0, 0), BuildingBlock: FUNLAD_clean_linker_0, # of connection points: 2
#     Edge 13, Type (0, 0), BuildingBlock: FUNLAD_clean_linker_0, # of connection points: 2
#     Edge 14, Type (0, 0), BuildingBlock: FUNLAD_clean_linker_0, # of connection points: 2
#     Edge 15, Type (0, 0), BuildingBlock: FUNLAD_clean_linker_0, # of connection points: 2
# Relax obj value: 0.225
# Max RMSD: 0.249
# Mean RMSD: 0.227
data_MOF--net-snp--node1-KUMBUR_clean_sbu_0--edge1-FUNLAD_clean_linker_0
_symmetry_space_group_name_H-M    P1
_symmetry_Int_Tables_number       1
_symmetry_cell_setting            triclinic
loop_
_symmetry_equiv_pos_as_xyz
'x, y, z'
_cell_length_a     28.440927
_cell_length_b     29.856076
_cell_length_c     37.497663
_cell_angle_alpha  115.47092
_cell_angle_beta   99.193698
_cell_angle_gamma 93.886414
loop_
_atom_site_label
_atom_site_type_symbol
_atom_site_fract_x
_atom_site_fract_y
_atom_site_fract_z
_atom_type_partial_charge
Tb0 Tb 0.37118 0.14553 0.22824 0.0
C1 C 0.45119 0.95491 0.21503 0.0
C2 C 0.41817 0.8895 0.14754 0.0
C3 C 0.49691 0.88796 0.18309 0.0
C4 C 0.41482 0.93436 0.18104 0.0
C5 C 0.49251 0.93176 0.21678 0.0
C6 C 0.45978 0.86687 0.14848 0.0
C7 C 0.52096 0.99572 0.2854 0.0
N8 N 0.44572 0.99771 0.24665 0.0
C9 C 0.47932 0.01733 0.28222 0.0
C10 C 0.52783 0.95302 0.25243 0.0
Tb11 Tb 0.37554 0.03002 0.23855 0.0
N12 N 0.37509 0.95711 0.18163 0.0
C13 C 0.3358 0.93454 0.15053 0.0
C14 C 0.3791 0.86805 0.11462 0.0
C15 C 0.33746 0.89036 0.11638 0.0
H16 H 0.47497 0.0503 0.30811 0.0
H17 H 0.30654 0.87355 0.09148 0.0
H18 H 0.46319 0.83258 0.12295 0.0
H19 H 0.54775 0.01204 0.31335 0.0
H20 H 0.30319 0.95082 0.15144 0.0
H21 H 0.51145 0.25401 0.36527 0.0
H22 H 0.38024 0.83369 0.08824 0.0
H23 H 0.26251 0.17152 0.19998 0.0
H24 H 0.48024 0.18681 0.29909 0.0
H25 H 0.20953 0.23227 0.23027 0.0
H26 H 0.5285 0.86975 0.18371 0.0
H27 H 0.46086 0.3159 0.39977 0.0
H28 H 0.38209 0.34698 0.3991 0.0
H29 H 0.56012 0.9364 0.25502 0.0
H30 H 0.29987 0.34032 0.36327 0.0
N31 N 0.40979 0.20872 0.29163 0.0
C32 C 0.45633 0.21302 0.31137 0.0
C33 C 0.44626 0.2863 0.36958 0.0
C34 C 0.39911 0.28242 0.35 0.0
C35 C 0.47491 0.25153 0.35015 0.0
C36 C 0.38157 0.24297 0.31062 0.0
H37 H 0.23554 0.29804 0.30071 0.0
N38 N 0.3181 0.20011 0.25349 0.0
C39 C 0.2443 0.23415 0.24794 0.0
C40 C 0.33454 0.23847 0.291 0.0
C41 C 0.27466 0.19955 0.23101 0.0
C42 C 0.25914 0.27118 0.28762 0.0
C43 C 0.30496 0.27432 0.30942 0.0
O44 O 0.3377 0.15152 0.17641 0.0
O45 O 0.36114 0.06385 0.19804 0.0
O46 O 0.44508 0.05047 0.22681 0.0
O47 O 0.44632 0.13347 0.2357 0.0
O48 O 0.39279 0.10044 0.17129 0.0
O49 O 0.40228 0.20228 0.2166 0.0
O50 O 0.36456 0.02338 0.29055 0.0
O51 O 0.36397 0.10755 0.26458 0.0
O52 O 0.29755 0.11329 0.22453 0.0
O53 O 0.30201 0.02934 0.20861 0.0
O54 O 0.40391 0.08533 0.30168 0.0
O55 O 0.32254 0.97268 0.23238 0.0
C56 C 0.3785 0.05673 0.16741 0.0
C57 C 0.35104 0.23141 0.17699 0.0
C58 C 0.3285 0.26738 0.13007 0.0
C59 C 0.34359 0.22767 0.13769 0.0
C60 C 0.31989 0.31043 0.16244 0.0
C61 C 0.34344 0.27531 0.20886 0.0
C62 C 0.32727 0.31421 0.20144 0.0
C63 C 0.46693 0.09287 0.22948 0.0
C64 C 0.36921 0.19008 0.18398 0.0
C65 C 0.32227 0.3129 0.34859 0.0
C66 C 0.36914 0.31681 0.36888 0.0
C67 C 0.38445 0.12239 0.30078 0.0
C68 C 0.33853 0.94201 0.28115 0.0
C69 C 0.31661 0.93863 0.31128 0.0
C70 C 0.32218 0.8987 0.32149 0.0
C71 C 0.35091 0.86307 0.30178 0.0
C72 C 0.36673 0.9058 0.26185 0.0
C73 C 0.37305 0.86675 0.2723 0.0
C74 C 0.27692 0.06653 0.21261 0.0
C75 C 0.33224 0.98375 0.27055 0.0
H76 H 0.35004 0.19397 0.11316 0.0
H77 H 0.3089 0.34197 0.15794 0.0
H78 H 0.3505 0.27992 0.23951 0.0
H79 H 0.32135 0.34791 0.22619 0.0
H80 H 0.29445 0.96632 0.32603 0.0
H81 H 0.35631 0.83227 0.30923 0.0
H82 H 0.38373 0.90753 0.23863 0.0
H83 H 0.39499 0.83904 0.25733 0.0
Tb84 Tb 0.06453 0.2378 0.57295 0.0
C85 C 0.26627 0.36404 0.65044 0.0
C86 C 0.32132 0.30922 0.6182 0.0
C87 C 0.3416 0.39942 0.64319 0.0
C88 C 0.27727 0.31641 0.63106 0.0
C89 C 0.29865 0.4063 0.65756 0.0
C90 C 0.35292 0.3509 0.6235 0.0
C91 C 0.2456 0.45877 0.69537 0.0
N92 N 0.22462 0.36896 0.66404 0.0
C93 C 0.21475 0.41563 0.68767 0.0
C94 C 0.28746 0.45411 0.67983 0.0
Tb95 Tb 0.17573 0.29616 0.64895 0.0
N96 N 0.24599 0.27735 0.62695 0.0
C97 C 0.2586 0.23029 0.61313 0.0
C98 C 0.33294 0.26063 0.60167 0.0
C99 C 0.3018 0.22113 0.5998 0.0
H100 H 0.18242 0.41978 0.69968 0.0
H101 H 0.3109 0.18354 0.5879 0.0
H102 H 0.38672 0.34613 0.61347 0.0
H103 H 0.23703 0.49557 0.71325 0.0
H104 H 0.23493 0.19921 0.61127 0.0
H105 H 0.93393 0.35277 0.64053 0.0
H106 H 0.36637 0.25344 0.59134 0.0
H107 H 0.05851 0.1141 0.52419 0.0
H108 H 0.00949 0.33652 0.61687 0.0
H109 H 0.00254 0.03856 0.50918 0.0
H110 H 0.36681 0.43137 0.64801 0.0
H111 H 0.87496 0.28232 0.63211 0.0
H112 H 0.85146 0.18913 0.6058 0.0
H113 H 0.31137 0.48758 0.68596 0.0
H114 H 0.87009 0.10357 0.57002 0.0
N115 N 0.99477 0.25725 0.59568 0.0
C116 C 0.98442 0.30514 0.61277 0.0
C117 C 0.90825 0.27483 0.6216 0.0
C118 C 0.91811 0.22574 0.60269 0.0
C119 C 0.94142 0.31467 0.62636 0.0
C120 C 0.96206 0.21817 0.58974 0.0
H121 H 0.92625 0.04698 0.5336 0.0
N122 N 0.01489 0.16526 0.5575 0.0
C123 C 0.99372 0.07546 0.52645 0.0
C124 C 0.97251 0.17038 0.5699 0.0
C125 C 0.02533 0.11847 0.53496 0.0
C126 C 0.95071 0.08035 0.54031 0.0
C127 C 0.9394 0.12827 0.56203 0.0
O128 O 0.05099 0.20222 0.50925 0.0
O129 O 0.14185 0.25614 0.58581 0.0
O130 O 0.1654 0.34035 0.61559 0.0
O131 O 0.08203 0.31904 0.59197 0.0
O132 O 0.11194 0.18968 0.53765 0.0
O133 O 0.03054 0.27472 0.54175 0.0
O134 O 0.18377 0.32988 0.71244 0.0
O135 O 0.09825 0.27786 0.63635 0.0
O136 O 0.07432 0.19474 0.60744 0.0
O137 O 0.15714 0.21449 0.62929 0.0
O138 O 0.12779 0.34388 0.684 0.0
O139 O 0.21549 0.26429 0.6815 0.0
C140 C 0.15206 0.21858 0.55757 0.0
C141 C 0.98362 0.2228 0.47669 0.0
C142 C 0.93869 0.21042 0.41096 0.0
C143 C 0.98257 0.2233 0.43922 0.0
C144 C 0.89603 0.1967 0.4208 0.0
C145 C 0.94061 0.20905 0.48573 0.0
C146 C 0.89712 0.19602 0.4579 0.0
C147 C 0.1234 0.34871 0.60056 0.0
C148 C 0.02956 0.23807 0.50632 0.0
C149 C 0.89594 0.13541 0.57556 0.0
C150 C 0.88533 0.18411 0.59591 0.0
C151 C 0.08746 0.31454 0.66523 0.0
C152 C 0.25181 0.31617 0.74979 0.0
C153 C 0.2504 0.30608 0.78297 0.0
C154 C 0.29094 0.32143 0.81486 0.0
C155 C 0.33282 0.34765 0.81303 0.0
C156 C 0.29383 0.34228 0.74855 0.0
C157 C 0.3341 0.35804 0.78016 0.0
C158 C 0.11527 0.18965 0.62685 0.0
C159 C 0.20951 0.29723 0.71631 0.0
H160 H 0.01576 0.23445 0.43239 0.0
H161 H 0.86183 0.1857 0.39955 0.0
H162 H 0.94049 0.20864 0.51428 0.0
H163 H 0.86409 0.18532 0.4651 0.0
H164 H 0.21793 0.28537 0.78348 0.0
H165 H 0.36447 0.36069 0.83723 0.0
H166 H 0.29558 0.35016 0.72316 0.0
H167 H 0.36651 0.37827 0.77915 0.0
Tb168 Tb 0.82111 0.09774 0.98313 0.0
C169 C 0.88099 0.8994 0.94779 0.0
C170 C 0.82001 0.84388 0.8889 0.0
C171 C 0.90207 0.82603 0.89466 0.0
C172 C 0.83359 0.88719 0.92655 0.0
C173 C 0.91511 0.86761 0.9328 0.0
C174 C 0.8547 0.81436 0.87266 0.0
C175 C 0.971 0.91638 0.99629 0.0
N176 N 0.89297 0.94034 0.98431 0.0
C177 C 0.93627 0.94695 1.00975 0.0
C178 C 0.96083 0.87729 0.95724 0.0
Tb179 Tb 0.83317 0.98882 1.00229 0.0
N180 N 0.80062 0.91651 0.94315 0.0
C181 C 0.75274 0.90156 0.92428 0.0
C182 C 0.77176 0.83072 0.86887 0.0
C183 C 0.73797 0.85922 0.88696 0.0
H184 H 0.9452 0.97764 0.03992 0.0
H185 H 0.70024 0.84849 0.87218 0.0
H186 H 0.84488 0.78146 0.84362 0.0
H187 H 0.00572 0.92325 1.01599 0.0
H188 H 0.72456 0.92106 0.93683 0.0
H189 H 0.89604 0.26107 0.12471 0.0
H190 H 0.76003 0.79788 0.83994 0.0
H191 H 0.71799 0.07316 0.91673 0.0
H192 H 0.89736 0.18172 0.06582 0.0
H193 H 0.64322 0.10911 0.9132 0.0
H194 H 0.92803 0.80179 0.88241 0.0
H195 H 0.82138 0.29932 0.13025 0.0
H196 H 0.73566 0.29708 0.09863 0.0
H197 H 0.98786 0.85364 0.94682 0.0
H198 H 0.66696 0.25605 0.04067 0.0
N199 N 0.82351 0.17288 0.03863 0.0
C200 C 0.86435 0.19736 0.06776 0.0
C201 C 0.82165 0.26409 0.10437 0.0
C202 C 0.78078 0.24054 0.0733 0.0
C203 C 0.86384 0.24269 0.1013 0.0
C204 C 0.78309 0.19464 0.04039 0.0
H205 H 0.63234 0.18615 0.97112 0.0
N206 N 0.7496 0.12844 0.97677 0.0
C207 C 0.67145 0.12703 0.94019 0.0
C208 C 0.74484 0.17195 1.00802 0.0
C209 C 0.71415 0.10675 0.94236 0.0
C210 C 0.66542 0.17051 0.97293 0.0
C211 C 0.70259 0.19389 1.00726 0.0
O212 O 0.82584 0.10122 0.92869 0.0
O213 O 0.83204 0.02029 0.96081 0.0
O214 O 0.90355 0.01904 0.99791 0.0
O215 O 0.89678 0.10128 1.00978 0.0
O216 O 0.79003 0.03781 0.92182 0.0
O217 O 0.87285 0.15258 0.98417 0.0
O218 O 0.86675 0.9929 0.05817 0.0
O219 O 0.8419 0.07046 0.02755 0.0
O220 O 0.75466 0.07823 0.99926 0.0
O221 O 0.75681 0.99515 0.98835 0.0
O222 O 0.8101 0.0381 0.0571 0.0
O223 O 0.80488 0.93638 0.0198 0.0
C224 C 0.80905 1.00161 0.92496 0.0
C225 C 0.85244 0.18132 0.93484 0.0
C226 C 0.87162 0.22712 0.89679 0.0
C227 C 0.87792 0.18764 0.90758 0.0
C228 C 0.83898 0.25964 0.91356 0.0
C229 C 0.82058 0.21462 0.95127 0.0
C230 C 0.81384 0.25341 0.94058 0.0
C231 C 0.92273 0.06481 1.00565 0.0
C232 C 0.85946 0.14004 0.94595 0.0
C233 C 0.69923 0.23871 0.0405 0.0
C234 C 0.7383 0.26201 0.07351 0.0
C235 C 0.82473 0.08049 0.05866 0.0
C236 C 0.85878 0.91786 0.06565 0.0
C237 C 0.86618 0.92717 0.10649 0.0
C238 C 0.88534 0.89252 0.11899 0.0
C239 C 0.89763 0.84876 0.08977 0.0
C240 C 0.87055 0.8735 0.03715 0.0
C241 C 0.89031 0.83949 0.04929 0.0
C242 C 0.73478 0.03517 0.99664 0.0
C243 C 0.83741 0.9543 0.05354 0.0
H244 H 0.90304 0.16227 0.89533 0.0
H245 H 0.83231 0.28967 0.90542 0.0
H246 H 0.80097 0.21074 0.97239 0.0
H247 H 0.7889 0.27874 0.95325 0.0
H248 H 0.8569 0.96141 0.12847 0.0
H249 H 0.91176 0.8209 0.09793 0.0
H250 H 0.86419 0.86489 1.00551 0.0
H251 H 0.89937 0.80536 0.0271 0.0
Tb252 Tb 0.03067 0.83901 0.58744 0.0
C253 C 0.23588 0.94496 0.68281 0.0
C254 C 0.28602 0.91163 0.63396 0.0
C255 C 0.3105 0.99545 0.68965 0.0
C256 C 0.24389 0.90687 0.64818 0.0
C257 C 0.26974 0.98913 0.70478 0.0
C258 C 0.31858 0.95675 0.65419 0.0
C259 C 0.22345 0.01431 0.7571 0.0
N260 N 0.19639 0.93705 0.69648 0.0
C261 C 0.19083 0.96986 0.73403 0.0
C262 C 0.26261 0.02447 0.74206 0.0
Tb263 Tb 0.14569 0.86286 0.65756 0.0
N264 N 0.21217 0.8636 0.6303 0.0
C265 C 0.22276 0.82192 0.60009 0.0
C266 C 0.29511 0.87018 0.60099 0.0
C267 C 0.26377 0.82484 0.58446 0.0
H268 H 0.1604 0.96252 0.74569 0.0
H269 H 0.27113 0.7921 0.55969 0.0
H270 H 0.35093 0.96139 0.64351 0.0
H271 H 0.21817 0.04081 0.78631 0.0
H272 H 0.19891 0.7866 0.58705 0.0
H273 H 0.88718 0.91092 0.66476 0.0
H274 H 0.327 0.87226 0.58903 0.0
H275 H 0.02948 0.72959 0.50724 0.0
H276 H 0.96461 0.91603 0.64484 0.0
H277 H 0.97809 0.64763 0.46979 0.0
H278 H 0.33673 0.02936 0.7058 0.0
H279 H 0.83444 0.82902 0.6365 0.0
H280 H 0.81847 0.73708 0.58795 0.0
H281 H 0.28784 0.05887 0.75997 0.0
H282 H 0.84299 0.66537 0.53428 0.0
N283 N 0.95812 0.83779 0.60711 0.0
C284 C 0.94268 0.88006 0.63253 0.0
C285 C 0.86879 0.83109 0.62785 0.0
C286 C 0.88309 0.78845 0.59968 0.0
C287 C 0.89837 0.87733 0.64376 0.0
C288 C 0.92822 0.79331 0.58952 0.0
H289 H 0.90211 0.63189 0.48956 0.0
N290 N 0.98398 0.76118 0.54912 0.0
C291 C 0.96738 0.67707 0.49498 0.0
C292 C 0.94151 0.75352 0.55921 0.0
C293 C 0.99642 0.72405 0.51638 0.0
C294 C 0.92461 0.66827 0.50628 0.0
C295 C 0.91081 0.70695 0.53838 0.0
O296 O 0.02203 0.83816 0.53023 0.0
O297 O 0.10873 0.85906 0.60097 0.0
O298 O 0.13123 0.93441 0.65888 0.0
O299 O 0.04726 0.91726 0.63582 0.0
O300 O 0.07635 0.80999 0.54341 0.0
O301 O 0.99595 0.89451 0.57822 0.0
O302 O 0.15859 0.86024 0.71341 0.0
O303 O 0.06819 0.8497 0.6455 0.0
O304 O 0.04038 0.77229 0.59653 0.0
O305 O 0.12431 0.78386 0.61257 0.0
O306 O 0.10278 0.88148 0.70427 0.0
O307 O 0.18703 0.80957 0.66359 0.0
C308 C 0.11705 0.83456 0.56625 0.0
C309 C 0.95463 0.87039 0.51074 0.0
C310 C 0.91745 0.87296 0.44797 0.0
C311 C 0.95876 0.87867 0.47698 0.0
C312 C 0.87199 0.85878 0.45355 0.0
C313 C 0.90888 0.85608 0.51537 0.0
C314 C 0.86788 0.85046 0.48694 0.0
C315 C 0.08828 0.94899 0.6557 0.0
C316 C 0.99851 0.87605 0.54027 0.0
C317 C 0.86693 0.70095 0.54968 0.0
C318 C 0.85303 0.74171 0.58028 0.0
C319 C 0.06093 0.86453 0.68093 0.0
C320 C 0.23476 0.83996 0.73034 0.0
C321 C 0.23643 0.85114 0.77117 0.0
C322 C 0.28092 0.86479 0.79893 0.0
C323 C 0.32373 0.86688 0.785 0.0
C324 C 0.27813 0.84264 0.71743 0.0
C325 C 0.32223 0.85591 0.74464 0.0
C326 C 0.08174 0.75501 0.60002 0.0
C327 C 0.18755 0.82723 0.70219 0.0
H328 H 0.99415 0.88988 0.47352 0.0
H329 H 0.83952 0.85308 0.43165 0.0
H330 H 0.90481 0.84914 0.54084 0.0
H331 H 0.83269 0.83924 0.49064 0.0
H332 H 0.20304 0.84908 0.78125 0.0
H333 H 0.35851 0.87804 0.80552 0.0
H334 H 0.27809 0.83483 0.68642 0.0
H335 H 0.35546 0.85812 0.73446 0.0
C336 C 0.0037 0.03973 1.00728 0.0
C337 C 0.97498 0.0776 0.02058 0.0
C338 C 0.0479 0.04397 0.03148 0.0
C339 C 0.06386 0.08658 0.0688 0.0
C340 C 0.03894 0.12776 0.07866 0.0
C341 C 0.99443 0.12328 0.0546 0.0
C342 C 0.10239 0.0864 0.0999 0.0
C343 C 0.10533 0.04553 0.10628 0.0
C344 C 0.14212 0.04603 0.13882 0.0
C345 C 0.16676 1.00487 0.13099 0.0
C346 C 0.20857 0.00902 0.15801 0.0
C347 C 0.22571 0.05437 0.19303 0.0
H348 H 0.13529 0.11975 0.18406 0.0
C349 C 0.19677 0.09237 0.20366 0.0
C350 C 0.15537 0.0885 0.17651 0.0
H351 H 0.20814 0.12667 0.23152 0.0
H352 H 0.99001 1.00497 0.98016 0.0
H353 H 0.0678 0.01258 0.0224 0.0
H354 H 0.05143 0.16141 0.10693 0.0
H355 H 0.9733 0.15342 0.06512 0.0
H356 H 0.12589 0.12157 0.1201 0.0
H357 H 0.0818 0.01035 0.08619 0.0
H358 H 0.15613 0.97123 0.10248 0.0
H359 H 0.22959 0.97865 0.14943 0.0
C360 C 0.04114 0.01596 0.69271 0.0
C361 C 0.08527 1.00174 0.6827 0.0
C362 C 0.04002 0.06183 0.72525 0.0
C363 C 0.08282 0.09478 0.7474 0.0
C364 C 0.12654 0.08229 0.73591 0.0
C365 C 0.12757 0.03661 0.70329 0.0
C366 C 0.08116 0.14542 0.77876 0.0
C367 C 0.09024 0.18577 0.77244 0.0
C368 C 0.09782 0.18024 0.73282 0.0
C369 C 0.05883 0.16165 0.6997 0.0
C370 C 0.06568 0.15706 0.66232 0.0
C371 C 0.11149 0.17216 0.65795 0.0
H372 H 0.17531 0.19875 0.75153 0.0
C373 C 0.15133 0.18257 0.68934 0.0
C374 C 0.14442 0.18822 0.727 0.0
H375 H 0.18763 0.1891 0.68569 0.0
H376 H 0.00763 0.99103 0.67677 0.0
H377 H 0.00575 0.07187 0.73278 0.0
H378 H 0.15981 0.10815 0.75198 0.0
H379 H 0.16175 0.02808 0.69493 0.0
H380 H 0.07207 0.14995 0.80703 0.0
H381 H 0.09046 0.22303 0.79628 0.0
H382 H 0.02288 0.15239 0.70316 0.0
H383 H 0.03435 0.146 0.63805 0.0
C384 C 0.67873 0.0821 0.03923 0.0
C385 C 0.69176 0.03589 1.01445 0.0
C386 C 0.64775 0.08461 0.06516 0.0
C387 C 0.62887 0.04088 0.0667 0.0
C388 C 0.63812 0.99428 0.03926 0.0
C389 C 0.66956 0.99177 1.01358 0.0
C390 C 0.60024 0.04274 0.09696 0.0
C391 C 0.60786 0.08151 0.13428 0.0
C392 C 0.57843 0.08407 0.16423 0.0
C393 C 0.56997 0.13111 0.19159 0.0
C394 C 0.53684 0.13451 0.21612 0.0
C395 C 0.51197 0.09081 0.21405 0.0
H396 H 0.56463 1.00391 0.14568 0.0
C397 C 0.52449 0.04408 0.18982 0.0
C398 C 0.55726 0.04069 0.16507 0.0
H399 H 0.50639 0.00958 0.18741 0.0
H400 H 0.69487 0.11692 0.04078 0.0
H401 H 0.63968 0.12099 0.08468 0.0
H402 H 0.62312 0.95993 0.03925 0.0
H403 H 0.67849 0.9555 0.99475 0.0
H404 H 0.57323 0.01044 0.08847 0.0
H405 H 0.63494 0.11374 0.14268 0.0
H406 H 0.58672 0.16521 0.1922 0.0
H407 H 0.52851 0.17119 0.23474 0.0
C408 C 0.07769 0.41087 0.58793 0.0
C409 C 0.12196 0.39482 0.59522 0.0
C410 C 0.07622 0.45567 0.58479 0.0
C411 C 0.1191 0.48523 0.58847 0.0
C412 C 0.16327 0.46878 0.5952 0.0
C413 C 0.16472 0.42392 0.5983 0.0
C414 C 0.11965 0.53481 0.58817 0.0
C415 C 0.08113 0.54932 0.57234 0.0
C416 C 0.0815 0.6009 0.57616 0.0
C417 C 0.03818 0.6209 0.57703 0.0
C418 C 0.03786 0.67073 0.58389 0.0
C419 C 0.08089 0.7013 0.58962 0.0
H420 H 0.15786 0.61617 0.57768 0.0
C421 C 0.12382 0.68052 0.58678 0.0
C422 C 0.12412 0.63081 0.57991 0.0
H423 H 0.15748 0.70276 0.59026 0.0
H424 H 0.04405 0.38948 0.58557 0.0
H425 H 0.04147 0.46747 0.58083 0.0
H426 H 0.19687 0.49088 0.59835 0.0
H427 H 0.1994 0.41229 0.60334 0.0
H428 H 0.15321 0.56074 0.60271 0.0
H429 H 0.0473 0.52388 0.55804 0.0
H430 H 0.00474 0.59844 0.57374 0.0
H431 H 0.00415 0.68556 0.58581 0.0
C432 C 0.2134 0.25889 0.53458 0.0
C433 C 0.1933 0.21683 0.53786 0.0
C434 C 0.24809 0.25436 0.51097 0.0
C435 C 0.26349 0.20782 0.4907 0.0
C436 C 0.24444 0.1664 0.49518 0.0
C437 C 0.20893 0.17058 0.51775 0.0
C438 C 0.29797 0.20043 0.46349 0.0
C439 C 0.29462 0.21905 0.43636 0.0
C440 C 0.32085 0.20105 0.40269 0.0
C441 C 0.29597 0.18902 0.36351 0.0
C442 C 0.3172 0.16517 0.33033 0.0
C443 C 0.36465 0.15503 0.33577 0.0
H444 H 0.3891 0.20179 0.43838 0.0
C445 C 0.39054 0.16969 0.37524 0.0
C446 C 0.36881 0.19227 0.40841 0.0
H447 H 0.42698 0.16183 0.38029 0.0
H448 H 0.20119 0.29472 0.54908 0.0
H449 H 0.26256 0.28704 0.50833 0.0
H450 H 0.2557 0.13016 0.47988 0.0
H451 H 0.19345 0.13753 0.51942 0.0
H452 H 0.32193 0.17299 0.46163 0.0
H453 H 0.26682 0.24192 0.43516 0.0
H454 H 0.25896 0.19528 0.35826 0.0
H455 H 0.2956 0.1529 0.3004 0.0
C456 C 0.02528 0.26527 0.68128 0.0
C457 C 0.05152 0.31126 0.68937 0.0
C458 C 0.9987 0.26089 0.70819 0.0
C459 C 0.99867 0.30252 0.74494 0.0
C460 C 0.02256 0.34941 0.75228 0.0
C461 C 0.04879 0.3537 0.7249 0.0
C462 C 0.97436 0.29817 0.77606 0.0
C463 C 0.96816 0.25539 0.7802 0.0
C464 C 0.94449 0.24963 0.8112 0.0
C465 C 0.92898 0.20095 0.80583 0.0
C466 C 0.90607 0.19349 0.83371 0.0
C467 C 0.89834 0.23462 0.86799 0.0
H468 H 0.95066 0.32894 0.85241 0.0
C469 C 0.91514 0.28334 0.87398 0.0
C470 C 0.9379 0.29081 0.84606 0.0
H471 H 0.91102 0.31597 0.90053 0.0
H472 H 0.02591 0.23206 0.65465 0.0
H473 H 0.97875 0.22457 0.70018 0.0
H474 H 0.02248 0.3825 0.77999 0.0
H475 H 0.06861 0.38995 0.73238 0.0
H476 H 0.96277 0.33183 0.79669 0.0
H477 H 0.98082 0.22232 0.75971 0.0
H478 H 0.93394 0.1684 0.77956 0.0
H479 H 0.89342 0.15544 0.82784 0.0
C480 C 0.88694 0.90304 0.39626 0.0
C481 C 0.92133 0.88031 0.41141 0.0
C482 C 0.88826 0.90661 0.36034 0.0
C483 C 0.92431 0.88773 0.3385 0.0
C484 C 0.95925 0.86603 0.35421 0.0
C485 C 0.95792 0.86249 0.39014 0.0
C486 C 0.92563 0.88723 0.29846 0.0
C487 C 0.89898 0.91267 0.28247 0.0
C488 C 0.89801 0.90904 0.24119 0.0
C489 C 0.85916 0.92435 0.22321 0.0
C490 C 0.85555 0.92008 0.18411 0.0
C491 C 0.89094 0.90061 0.16184 0.0
H492 H 0.96582 0.88052 0.23234 0.0
C493 C 0.9307 0.88685 0.18032 0.0
C494 C 0.93431 0.89108 0.21943 0.0
H495 H 0.95927 0.8728 0.16454 0.0
H496 H 0.85854 0.91777 0.41203 0.0
H497 H 0.86006 0.92306 0.34961 0.0
H498 H 0.98742 0.85092 0.33823 0.0
H499 H 0.98473 0.84425 0.40052 0.0
H500 H 0.94912 0.86353 0.28115 0.0
H501 H 0.8752 0.93618 0.29949 0.0
H502 H 0.83077 0.93872 0.23914 0.0
H503 H 0.8242 0.93071 0.17092 0.0
C504 C 0.31849 0.86315 0.86395 0.0
C505 C 0.28312 0.87837 0.84254 0.0
C506 C 0.32309 0.87895 0.90554 0.0
C507 C 0.29243 0.91075 0.92704 0.0
C508 C 0.25615 0.9246 0.90524 0.0
C509 C 0.25148 0.90864 0.86363 0.0
C510 C 0.2979 0.9324 0.97204 0.0
C511 C 0.33253 0.92471 0.99722 0.0
C512 C 0.34131 0.95275 0.04228 0.0
C513 C 0.38817 0.96014 0.06484 0.0
C514 C 0.3996 0.99131 0.10652 0.0
C515 C 0.36407 0.01446 0.12674 0.0
H516 H 0.26832 0.96825 0.04717 0.0
C517 C 0.31662 1.00508 0.10484 0.0
C518 C 0.30517 0.97415 0.06306 0.0
H519 H 0.28893 0.02368 0.11972 0.0
H520 H 0.34298 0.83913 0.84856 0.0
H521 H 0.35128 0.86648 0.92033 0.0
H522 H 0.23182 0.94892 0.92062 0.0
H523 H 0.22406 0.92148 0.84828 0.0
H524 H 0.27365 0.95857 0.98512 0.0
H525 H 0.3584 0.90039 0.98502 0.0
H526 H 0.41671 0.94391 0.04986 0.0
H527 H 0.43664 0.99897 0.12267 0.0
C528 C 0.87603 0.96174 0.89386 0.0
C529 C 0.82665 0.9651 0.8903 0.0
C530 C 0.89457 0.93471 0.85985 0.0
C531 C 0.86435 0.91117 0.82121 0.0
C532 C 0.81454 0.91187 0.81773 0.0
C533 C 0.79589 0.93924 0.85201 0.0
C534 C 0.88556 0.89027 0.78458 0.0
C535 C 0.92401 0.91722 0.78238 0.0
C536 C 0.95115 0.90147 0.74921 0.0
C537 C 0.98439 0.93873 0.74971 0.0
C538 C 0.01745 0.92617 0.72474 0.0
C539 C 0.01723 0.87627 0.69722 0.0
H540 H 0.92522 0.82123 0.72013 0.0
C541 C 0.98289 0.83859 0.69517 0.0
C542 C 0.94974 0.85112 0.72092 0.0
H543 H 0.98348 0.7995 0.67545 0.0
H544 H 0.90092 0.9819 0.92261 0.0
H545 H 0.93304 0.93401 0.86358 0.0
H546 H 0.79049 0.89383 0.78831 0.0
H547 H 0.75775 0.94172 0.84843 0.0
H548 H 0.86826 0.85492 0.75921 0.0
H549 H 0.93701 0.95444 0.80729 0.0
H550 H 0.98694 0.97767 0.7714 0.0
H551 H 0.04558 0.95534 0.72903 0.0
C552 C 0.29789 0.93244 0.38936 0.0
C553 C 0.29688 0.89236 0.35129 0.0
C554 C 0.27563 0.92481 0.41765 0.0
C555 C 0.25146 0.87698 0.40808 0.0
C556 C 0.2497 0.83754 0.36968 0.0
C557 C 0.27227 0.84498 0.34183 0.0
C558 C 0.22621 0.86592 0.43603 0.0
C559 C 0.23493 0.89294 0.47668 0.0
C560 C 0.20929 0.87742 0.50243 0.0
C561 C 0.20156 0.91379 0.53941 0.0
C562 C 0.17377 0.90013 0.56203 0.0
C563 C 0.15386 0.84971 0.54818 0.0
H564 H 0.19882 0.79705 0.4632 0.0
C565 C 0.16384 0.81321 0.51253 0.0
C566 C 0.19174 0.82667 0.49026 0.0
H567 H 0.14909 0.77404 0.50137 0.0
H568 H 0.31658 0.96941 0.39748 0.0
H569 H 0.27697 0.95645 0.44655 0.0
H570 H 0.23104 0.80041 0.3612 0.0
H571 H 0.27022 0.81349 0.31261 0.0
H572 H 0.19932 0.83239 0.42179 0.0
H573 H 0.26053 0.92746 0.49151 0.0
H574 H 0.21534 0.95305 0.54997 0.0
H575 H 0.16618 0.92909 0.58925 0.0
C576 C 0.3298 0.29541 0.86689 0.0
C577 C 0.28965 0.31005 0.84983 0.0
C578 C 0.32909 0.28572 0.90021 0.0
C579 C 0.28806 0.29059 0.91758 0.0
C580 C 0.2477 0.30441 0.89998 0.0
C581 C 0.24842 0.31401 0.86664 0.0
C582 C 0.28548 0.28253 0.95409 0.0
C583 C 0.32276 0.27391 0.97643 0.0
C584 C 0.3206 0.26911 1.01428 0.0
C585 C 0.35715 0.24835 0.02919 0.0
C586 C 0.35886 0.24632 0.06599 0.0
C587 C 0.32414 0.26537 0.08914 0.0
H588 H 0.25691 0.30461 0.02752 0.0
C589 C 0.28695 0.28527 0.07391 0.0
C590 C 0.28522 0.28729 0.03708 0.0
H591 H 0.25938 0.29995 0.09076 0.0
H592 H 0.36183 0.29096 0.85424 0.0
H593 H 0.36091 0.27439 0.9118 0.0
H594 H 0.21547 0.30848 0.91239 0.0
H595 H 0.21692 0.32555 0.85456 0.0
H596 H 0.25094 0.28448 0.963 0.0
H597 H 0.35705 0.27034 0.96721 0.0
H598 H 0.38513 0.23434 1.01262 0.0
H599 H 0.38844 0.23141 0.07695 0.0
C600 C 0.8924 0.13081 0.11656 0.0
C601 C 0.84339 0.12274 0.09862 0.0
C602 C 0.90827 0.15999 0.15826 0.0
C603 C 0.87511 0.18096 0.18271 0.0
C604 C 0.82682 0.17614 0.16406 0.0
C605 C 0.81093 0.14659 0.12243 0.0
C606 C 0.88824 0.20379 0.22763 0.0
C607 C 0.92133 0.18749 0.24749 0.0
C608 C 0.928 0.20011 0.29129 0.0
C609 C 0.96698 0.18444 0.30878 0.0
C610 C 0.97155 0.18946 0.3481 0.0
C611 C 0.93701 0.21006 0.37091 0.0
H612 H 0.86353 0.2349 0.30297 0.0
C613 C 0.89907 0.2276 0.35413 0.0
C614 C 0.89449 0.22266 0.31485 0.0
H615 H 0.87221 0.24435 0.37114 0.0
H616 H 0.91782 0.11182 0.09878 0.0
H617 H 0.94604 0.1642 0.17138 0.0
H618 H 0.8006 0.19224 0.18208 0.0
H619 H 0.77284 0.14006 0.10919 0.0
H620 H 0.86609 0.23034 0.24396 0.0
H621 H 0.94252 0.16025 0.23032 0.0
H622 H 0.99331 0.16675 0.29148 0.0
H623 H 0.00104 0.17522 0.35995 0.0
loop_
_geom_bond_atom_site_label_1
_geom_bond_atom_site_label_2
_geom_bond_distance
_geom_bond_site_symmetry_2
_ccdc_geom_bond_type
Tb0 N31 2.660 . S
Tb0 N38 2.600 . S
Tb0 O44 2.546 . S
Tb0 O45 2.610 1_545 S
Tb0 O47 2.320 . S
Tb0 O48 2.552 . S
Tb0 O49 2.413 . S
Tb0 O51 2.362 . S
Tb0 O52 2.421 . S
Tb0 C64 2.833 . S
C1 C4 1.432 . S
C1 C5 1.414 . S
C1 N8 1.359 . S
C2 C4 1.417 . S
C2 C6 1.432 . S
C2 C14 1.410 . S
C3 C5 1.444 . S
C3 C6 1.317 . S
C3 H26 0.929 . S
C4 C1 1.432 . S
C4 C2 1.417 . S
C4 N12 1.360 . S
C5 C1 1.414 . S
C5 C3 1.444 . S
C5 C10 1.385 . S
C6 C2 1.432 . S
C6 C3 1.317 . S
C6 H18 0.930 1_554 S
C7 C9 1.392 . S
C7 C10 1.370 . S
C7 H19 0.931 . S
N8 C1 1.359 . S
N8 C9 1.327 . S
N8 Tb11 2.600 . S
C9 C7 1.392 . S
C9 N8 1.327 . S
C9 H16 0.930 . S
C10 C5 1.385 . S
C10 C7 1.370 . S
C10 H29 0.930 . S
Tb11 N8 2.600 . S
Tb11 N12 2.660 . S
Tb11 O45 2.362 . S
Tb11 O46 2.421 . S
Tb11 O50 2.546 . S
Tb11 O51 2.610 1_565 S
Tb11 O53 2.320 . S
Tb11 O54 2.552 1_565 S
Tb11 O55 2.413 . S
Tb11 C75 2.833 . S
N12 C4 1.360 . S
N12 Tb11 2.660 . S
N12 C13 1.305 . S
C13 N12 1.305 . S
C13 C15 1.407 . S
C13 H20 0.930 . S
C14 C2 1.410 . S
C14 C15 1.345 . S
C14 H22 0.930 . S
C15 C13 1.407 . S
C15 C14 1.345 . S
C15 H17 0.930 . S
H16 C9 0.930 . S
H17 C15 0.930 . S
H18 C6 0.930 1_556 S
H19 C7 0.931 . S
H20 C13 0.930 . S
H21 C35 0.930 . S
H22 C14 0.930 . S
H23 C41 0.930 . S
H24 C32 0.930 . S
H25 C39 0.931 . S
H26 C3 0.929 . S
H27 C33 0.930 . S
H28 C66 0.930 . S
H29 C10 0.930 . S
H30 C65 0.929 . S
N31 Tb0 2.660 . S
N31 C32 1.305 . S
N31 C36 1.360 . S
C32 H24 0.930 . S
C32 N31 1.305 . S
C32 C35 1.407 . S
C33 H27 0.930 . S
C33 C34 1.410 . S
C33 C35 1.345 . S
C34 C33 1.410 . S
C34 C36 1.417 . S
C34 C66 1.432 . S
C35 H21 0.930 . S
C35 C32 1.407 . S
C35 C33 1.345 . S
C36 N31 1.360 . S
C36 C34 1.417 . S
C36 C40 1.432 . S
H37 C42 0.930 . S
N38 Tb0 2.600 . S
N38 C40 1.359 . S
N38 C41 1.327 . S
C39 H25 0.931 . S
C39 C41 1.392 . S
C39 C42 1.370 . S
C40 C36 1.432 . S
C40 N38 1.359 . S
C40 C43 1.414 . S
C41 H23 0.930 . S
C41 N38 1.327 . S
C41 C39 1.392 . S
C42 H37 0.930 . S
C42 C39 1.370 . S
C42 C43 1.385 . S
C43 C40 1.414 . S
C43 C42 1.385 . S
C43 C65 1.444 . S
O44 Tb0 2.546 . S
O44 C64 1.251 . S
O45 Tb0 2.610 1_565 S
O45 Tb11 2.362 . S
O45 C56 1.283 . S
O46 Tb11 2.421 . S
O46 C63 1.262 1_565 S
O47 Tb0 2.320 . S
O47 C63 1.260 . S
O48 Tb0 2.552 . S
O48 C56 1.243 1_545 S
O49 Tb0 2.413 . S
O49 C64 1.256 . S
O50 Tb11 2.546 . S
O50 C75 1.251 . S
O51 Tb0 2.362 . S
O51 Tb11 2.610 1_545 S
O51 C67 1.283 . S
O52 Tb0 2.421 . S
O52 C74 1.262 . S
O53 Tb11 2.320 . S
O53 C74 1.260 1_565 S
O54 Tb11 2.552 1_545 S
O54 C67 1.243 . S
O55 Tb11 2.413 . S
O55 C75 1.256 . S
C56 O45 1.283 . S
C56 O48 1.243 1_565 S
C57 C59 1.382 . S
C57 C61 1.393 . S
C57 C64 1.500 . S
C58 C59 1.400 . S
C58 C60 1.384 . S
C59 C57 1.382 . S
C59 C58 1.400 . S
C59 H76 0.930 . S
C60 C58 1.384 . S
C60 C62 1.392 . S
C60 H77 0.931 . S
C61 C57 1.393 . S
C61 C62 1.401 . S
C61 H78 0.930 . S
C62 C60 1.392 . S
C62 C61 1.401 . S
C62 H79 0.930 . S
C63 O46 1.262 1_545 S
C63 O47 1.260 . S
C64 Tb0 2.833 . S
C64 O44 1.251 . S
C64 O49 1.256 . S
C64 C57 1.500 . S
C65 H30 0.929 . S
C65 C43 1.444 . S
C65 C66 1.317 . S
C66 H28 0.930 . S
C66 C34 1.432 . S
C66 C65 1.317 . S
C67 O51 1.283 . S
C67 O54 1.243 . S
C68 C69 1.382 . S
C68 C72 1.393 . S
C68 C75 1.500 . S
C69 C68 1.382 . S
C69 C70 1.400 . S
C69 H80 0.930 . S
C70 C69 1.400 . S
C70 C71 1.384 . S
C71 C70 1.384 . S
C71 C73 1.392 . S
C71 H81 0.931 . S
C72 C68 1.393 . S
C72 C73 1.401 . S
C72 H82 0.930 . S
C73 C71 1.392 . S
C73 C72 1.401 . S
C73 H83 0.930 . S
C74 O52 1.262 . S
C74 O53 1.260 1_545 S
C75 Tb11 2.833 . S
C75 O50 1.251 . S
C75 O55 1.256 . S
C75 C68 1.500 . S
H76 C59 0.930 . S
H77 C60 0.931 . S
H78 C61 0.930 . S
H79 C62 0.930 . S
H80 C69 0.930 . S
H81 C71 0.931 . S
H82 C72 0.930 . S
H83 C73 0.930 . S
Tb84 N115 2.660 . S
Tb84 N122 2.600 . S
Tb84 O128 2.546 . S
Tb84 O129 2.610 . S
Tb84 O131 2.320 . S
Tb84 O132 2.552 . S
Tb84 O133 2.413 . S
Tb84 O135 2.362 . S
Tb84 O136 2.421 . S
Tb84 C148 2.833 . S
C85 C88 1.432 . S
C85 C89 1.414 . S
C85 N92 1.359 . S
C86 C88 1.417 . S
C86 C90 1.432 . S
C86 C98 1.410 . S
C87 C89 1.444 . S
C87 C90 1.317 . S
C87 H110 0.929 . S
C88 C85 1.432 . S
C88 C86 1.417 . S
C88 N96 1.360 . S
C89 C85 1.414 . S
C89 C87 1.444 . S
C89 C94 1.385 . S
C90 C86 1.432 . S
C90 C87 1.317 . S
C90 H102 0.930 . S
C91 C93 1.392 . S
C91 C94 1.370 . S
C91 H103 0.931 . S
N92 C85 1.359 . S
N92 C93 1.327 . S
N92 Tb95 2.600 . S
C93 C91 1.392 . S
C93 N92 1.327 . S
C93 H100 0.930 . S
C94 C89 1.385 . S
C94 C91 1.370 . S
C94 H113 0.930 . S
Tb95 N92 2.600 . S
Tb95 N96 2.660 . S
Tb95 O129 2.362 . S
Tb95 O130 2.421 . S
Tb95 O134 2.546 . S
Tb95 O135 2.610 . S
Tb95 O137 2.320 . S
Tb95 O138 2.552 . S
Tb95 O139 2.413 . S
Tb95 C159 2.833 . S
N96 C88 1.360 . S
N96 Tb95 2.660 . S
N96 C97 1.305 . S
C97 N96 1.305 . S
C97 C99 1.407 . S
C97 H104 0.930 . S
C98 C86 1.410 . S
C98 C99 1.345 . S
C98 H106 0.930 . S
C99 C97 1.407 . S
C99 C98 1.345 . S
C99 H101 0.930 . S
H100 C93 0.930 . S
H101 C99 0.930 . S
H102 C90 0.930 . S
H103 C91 0.931 . S
H104 C97 0.930 . S
H105 C119 0.930 . S
H106 C98 0.930 . S
H107 C125 0.930 . S
H108 C116 0.930 . S
H109 C123 0.931 . S
H110 C87 0.929 . S
H111 C117 0.930 . S
H112 C150 0.930 . S
H113 C94 0.930 . S
H114 C149 0.929 . S
N115 Tb84 2.660 . S
N115 C116 1.305 . S
N115 C120 1.360 . S
C116 H108 0.930 . S
C116 N115 1.305 . S
C116 C119 1.407 . S
C117 H111 0.930 . S
C117 C118 1.410 . S
C117 C119 1.345 1_655 S
C118 C117 1.410 . S
C118 C120 1.417 1_655 S
C118 C150 1.432 . S
C119 H105 0.930 . S
C119 C116 1.407 . S
C119 C117 1.345 1_455 S
C120 N115 1.360 . S
C120 C118 1.417 1_455 S
C120 C124 1.432 . S
H121 C126 0.930 . S
N122 Tb84 2.600 . S
N122 C124 1.359 . S
N122 C125 1.327 . S
C123 H109 0.931 . S
C123 C125 1.392 1_655 S
C123 C126 1.370 . S
C124 C120 1.432 . S
C124 N122 1.359 . S
C124 C127 1.414 1_455 S
C125 H107 0.930 . S
C125 N122 1.327 . S
C125 C123 1.392 1_455 S
C126 H121 0.930 . S
C126 C123 1.370 . S
C126 C127 1.385 . S
C127 C124 1.414 1_655 S
C127 C126 1.385 . S
C127 C149 1.444 . S
O128 Tb84 2.546 . S
O128 C148 1.251 . S
O129 Tb84 2.610 . S
O129 Tb95 2.362 . S
O129 C140 1.283 . S
O130 Tb95 2.421 . S
O130 C147 1.262 . S
O131 Tb84 2.320 . S
O131 C147 1.260 . S
O132 Tb84 2.552 . S
O132 C140 1.243 . S
O133 Tb84 2.413 . S
O133 C148 1.256 . S
O134 Tb95 2.546 . S
O134 C159 1.251 . S
O135 Tb84 2.362 . S
O135 Tb95 2.610 . S
O135 C151 1.283 . S
O136 Tb84 2.421 . S
O136 C158 1.262 . S
O137 Tb95 2.320 . S
O137 C158 1.260 . S
O138 Tb95 2.552 . S
O138 C151 1.243 . S
O139 Tb95 2.413 . S
O139 C159 1.256 . S
C140 O129 1.283 . S
C140 O132 1.243 . S
C141 C143 1.382 . S
C141 C145 1.393 . S
C141 C148 1.500 . S
C142 C143 1.400 . S
C142 C144 1.384 1_455 S
C143 C141 1.382 . S
C143 C142 1.400 . S
C143 H160 0.930 . S
C144 C142 1.384 1_655 S
C144 C146 1.392 . S
C144 H161 0.931 . S
C145 C141 1.393 . S
C145 C146 1.401 1_455 S
C145 H162 0.930 . S
C146 C144 1.392 . S
C146 C145 1.401 1_655 S
C146 H163 0.930 . S
C147 O130 1.262 . S
C147 O131 1.260 . S
C148 Tb84 2.833 . S
C148 O128 1.251 . S
C148 O133 1.256 . S
C148 C141 1.500 . S
C149 H114 0.929 . S
C149 C127 1.444 . S
C149 C150 1.317 . S
C150 H112 0.930 . S
C150 C118 1.432 . S
C150 C149 1.317 . S
C151 O135 1.283 . S
C151 O138 1.243 . S
C152 C153 1.382 . S
C152 C156 1.393 . S
C152 C159 1.500 . S
C153 C152 1.382 . S
C153 C154 1.400 . S
C153 H164 0.930 . S
C154 C153 1.400 . S
C154 C155 1.384 . S
C155 C154 1.384 . S
C155 C157 1.392 . S
C155 H165 0.931 . S
C156 C152 1.393 . S
C156 C157 1.401 . S
C156 H166 0.930 . S
C157 C155 1.392 . S
C157 C156 1.401 . S
C157 H167 0.930 . S
C158 O136 1.262 . S
C158 O137 1.260 . S
C159 Tb95 2.833 . S
C159 O134 1.251 . S
C159 O139 1.256 . S
C159 C152 1.500 . S
H160 C143 0.930 . S
H161 C144 0.931 . S
H162 C145 0.930 . S
H163 C146 0.930 . S
H164 C153 0.930 . S
H165 C155 0.931 . S
H166 C156 0.930 . S
H167 C157 0.930 . S
Tb168 N199 2.660 . S
Tb168 N206 2.600 . S
Tb168 O212 2.546 . S
Tb168 O213 2.610 . S
Tb168 O215 2.320 . S
Tb168 O216 2.552 1_554 S
Tb168 O217 2.413 . S
Tb168 O219 2.362 . S
Tb168 O220 2.421 . S
Tb168 C232 2.833 . S
C169 C172 1.432 . S
C169 C173 1.414 . S
C169 N176 1.359 1_556 S
C170 C172 1.417 . S
C170 C174 1.432 . S
C170 C182 1.410 . S
C171 C173 1.444 . S
C171 C174 1.317 . S
C171 H194 0.929 . S
C172 C169 1.432 . S
C172 C170 1.417 . S
C172 N180 1.360 . S
C173 C169 1.414 . S
C173 C171 1.444 . S
C173 C178 1.385 . S
C174 C170 1.432 . S
C174 C171 1.317 . S
C174 H186 0.930 . S
C175 C177 1.392 . S
C175 C178 1.370 1_554 S
C175 H187 0.931 1_655 S
N176 C169 1.359 1_554 S
N176 C177 1.327 . S
N176 Tb179 2.600 1_565 S
C177 C175 1.392 . S
C177 N176 1.327 . S
C177 H184 0.930 . S
C178 C173 1.385 . S
C178 C175 1.370 1_556 S
C178 H197 0.930 . S
Tb179 N176 2.600 1_545 S
Tb179 N180 2.660 1_544 S
Tb179 O213 2.362 . S
Tb179 O214 2.421 . S
Tb179 O218 2.546 1_545 S
Tb179 O219 2.610 . S
Tb179 O221 2.320 . S
Tb179 O222 2.552 . S
Tb179 O223 2.413 1_545 S
Tb179 C243 2.833 1_545 S
N180 C172 1.360 . S
N180 Tb179 2.660 1_566 S
N180 C181 1.305 . S
C181 N180 1.305 . S
C181 C183 1.407 . S
C181 H188 0.930 . S
C182 C170 1.410 . S
C182 C183 1.345 . S
C182 H190 0.930 . S
C183 C181 1.407 . S
C183 C182 1.345 . S
C183 H185 0.930 . S
H184 C177 0.930 . S
H185 C183 0.930 . S
H186 C174 0.930 . S
H187 C175 0.931 1_455 S
H188 C181 0.930 . S
H189 C203 0.930 . S
H190 C182 0.930 . S
H191 C209 0.930 . S
H192 C200 0.930 . S
H193 C207 0.931 . S
H194 C171 0.929 . S
H195 C201 0.930 1_455 S
H196 C234 0.930 . S
H197 C178 0.930 . S
H198 C233 0.929 . S
N199 Tb168 2.660 . S
N199 C200 1.305 . S
N199 C204 1.360 . S
C200 H192 0.930 . S
C200 N199 1.305 . S
C200 C203 1.407 1_655 S
C201 H195 0.930 1_655 S
C201 C202 1.410 . S
C201 C203 1.345 1_655 S
C202 C201 1.410 . S
C202 C204 1.417 . S
C202 C234 1.432 . S
C203 H189 0.930 . S
C203 C200 1.407 1_455 S
C203 C201 1.345 1_455 S
C204 N199 1.360 . S
C204 C202 1.417 . S
C204 C208 1.432 . S
H205 C210 0.930 . S
N206 Tb168 2.600 . S
N206 C208 1.359 . S
N206 C209 1.327 . S
C207 H193 0.931 . S
C207 C209 1.392 . S
C207 C210 1.370 . S
C208 C204 1.432 . S
C208 N206 1.359 . S
C208 C211 1.414 . S
C209 H191 0.930 . S
C209 N206 1.327 . S
C209 C207 1.392 . S
C210 H205 0.930 . S
C210 C207 1.370 . S
C210 C211 1.385 . S
C211 C208 1.414 . S
C211 C210 1.385 . S
C211 C233 1.444 . S
O212 Tb168 2.546 . S
O212 C232 1.251 . S
O213 Tb168 2.610 . S
O213 Tb179 2.362 . S
O213 C224 1.283 1_554 S
O214 Tb179 2.421 . S
O214 C231 1.262 . S
O215 Tb168 2.320 . S
O215 C231 1.260 . S
O216 Tb168 2.552 1_556 S
O216 C224 1.243 . S
O217 Tb168 2.413 . S
O217 C232 1.256 . S
O218 Tb179 2.546 1_565 S
O218 C243 1.251 . S
O219 Tb168 2.362 . S
O219 Tb179 2.610 . S
O219 C235 1.283 . S
O220 Tb168 2.421 . S
O220 C242 1.262 . S
O221 Tb179 2.320 . S
O221 C242 1.260 . S
O222 Tb179 2.552 . S
O222 C235 1.243 . S
O223 Tb179 2.413 1_565 S
O223 C243 1.256 . S
C224 O213 1.283 1_556 S
C224 O216 1.243 . S
C225 C227 1.382 . S
C225 C229 1.393 . S
C225 C232 1.500 1_556 S
C226 C227 1.400 . S
C226 C228 1.384 . S
C227 C225 1.382 . S
C227 C226 1.400 . S
C227 H244 0.930 . S
C228 C226 1.384 . S
C228 C230 1.392 . S
C228 H245 0.931 . S
C229 C225 1.393 . S
C229 C230 1.401 . S
C229 H246 0.930 . S
C230 C228 1.392 . S
C230 C229 1.401 . S
C230 H247 0.930 . S
C231 O214 1.262 . S
C231 O215 1.260 . S
C232 Tb168 2.833 . S
C232 O212 1.251 . S
C232 O217 1.256 . S
C232 C225 1.500 1_554 S
C233 H198 0.929 . S
C233 C211 1.444 . S
C233 C234 1.317 . S
C234 H196 0.930 . S
C234 C202 1.432 . S
C234 C233 1.317 . S
C235 O219 1.283 . S
C235 O222 1.243 . S
C236 C237 1.382 . S
C236 C240 1.393 . S
C236 C243 1.500 . S
C237 C236 1.382 . S
C237 C238 1.400 . S
C237 H248 0.930 . S
C238 C237 1.400 . S
C238 C239 1.384 . S
C239 C238 1.384 . S
C239 C241 1.392 . S
C239 H249 0.931 . S
C240 C236 1.393 . S
C240 C241 1.401 . S
C240 H250 0.930 . S
C241 C239 1.392 . S
C241 C240 1.401 . S
C241 H251 0.930 . S
C242 O220 1.262 . S
C242 O221 1.260 . S
C243 Tb179 2.833 1_565 S
C243 O218 1.251 . S
C243 O223 1.256 . S
C243 C236 1.500 . S
H244 C227 0.930 . S
H245 C228 0.931 . S
H246 C229 0.930 . S
H247 C230 0.930 . S
H248 C237 0.930 . S
H249 C239 0.931 . S
H250 C240 0.930 . S
H251 C241 0.930 . S
Tb252 N283 2.660 . S
Tb252 N290 2.600 . S
Tb252 O296 2.546 . S
Tb252 O297 2.610 1_655 S
Tb252 O299 2.320 . S
Tb252 O300 2.552 1_655 S
Tb252 O301 2.413 . S
Tb252 O303 2.362 . S
Tb252 O304 2.421 . S
Tb252 C316 2.833 . S
C253 C256 1.432 . S
C253 C257 1.414 . S
C253 N260 1.359 . S
C254 C256 1.417 . S
C254 C258 1.432 . S
C254 C266 1.410 . S
C255 C257 1.444 . S
C255 C258 1.317 . S
C255 H278 0.929 . S
C256 C253 1.432 . S
C256 C254 1.417 . S
C256 N264 1.360 . S
C257 C253 1.414 . S
C257 C255 1.444 . S
C257 C262 1.385 . S
C258 C254 1.432 . S
C258 C255 1.317 . S
C258 H270 0.930 . S
C259 C261 1.392 . S
C259 C262 1.370 . S
C259 H271 0.931 1_565 S
N260 C253 1.359 . S
N260 C261 1.327 . S
N260 Tb263 2.600 . S
C261 C259 1.392 . S
C261 N260 1.327 . S
C261 H268 0.930 . S
C262 C257 1.385 . S
C262 C259 1.370 . S
C262 H281 0.930 . S
Tb263 N260 2.600 . S
Tb263 N264 2.660 . S
Tb263 O297 2.362 . S
Tb263 O298 2.421 . S
Tb263 O302 2.546 . S
Tb263 O303 2.610 1_455 S
Tb263 O305 2.320 . S
Tb263 O306 2.552 . S
Tb263 O307 2.413 . S
Tb263 C327 2.833 . S
N264 C256 1.360 . S
N264 Tb263 2.660 . S
N264 C265 1.305 . S
C265 N264 1.305 . S
C265 C267 1.407 . S
C265 H272 0.930 . S
C266 C254 1.410 . S
C266 C267 1.345 . S
C266 H274 0.930 . S
C267 C265 1.407 . S
C267 C266 1.345 . S
C267 H269 0.930 . S
H268 C261 0.930 . S
H269 C267 0.930 . S
H270 C258 0.930 . S
H271 C259 0.931 1_545 S
H272 C265 0.930 . S
H273 C287 0.930 . S
H274 C266 0.930 . S
H275 C293 0.930 . S
H276 C284 0.930 . S
H277 C291 0.931 . S
H278 C255 0.929 . S
H279 C285 0.930 . S
H280 C318 0.930 . S
H281 C262 0.930 . S
H282 C317 0.929 . S
N283 Tb252 2.660 . S
N283 C284 1.305 . S
N283 C288 1.360 . S
C284 H276 0.930 . S
C284 N283 1.305 . S
C284 C287 1.407 . S
C285 H279 0.930 . S
C285 C286 1.410 . S
C285 C287 1.345 . S
C286 C285 1.410 . S
C286 C288 1.417 . S
C286 C318 1.432 . S
C287 H273 0.930 . S
C287 C284 1.407 . S
C287 C285 1.345 . S
C288 N283 1.360 . S
C288 C286 1.417 . S
C288 C292 1.432 . S
H289 C294 0.930 . S
N290 Tb252 2.600 . S
N290 C292 1.359 . S
N290 C293 1.327 . S
C291 H277 0.931 . S
C291 C293 1.392 . S
C291 C294 1.370 . S
C292 C288 1.432 . S
C292 N290 1.359 . S
C292 C295 1.414 . S
C293 H275 0.930 . S
C293 N290 1.327 . S
C293 C291 1.392 . S
C294 H289 0.930 . S
C294 C291 1.370 . S
C294 C295 1.385 . S
C295 C292 1.414 . S
C295 C294 1.385 . S
C295 C317 1.444 . S
O296 Tb252 2.546 . S
O296 C316 1.251 . S
O297 Tb252 2.610 1_455 S
O297 Tb263 2.362 . S
O297 C308 1.283 . S
O298 Tb263 2.421 . S
O298 C315 1.262 . S
O299 Tb252 2.320 . S
O299 C315 1.260 1_655 S
O300 Tb252 2.552 1_455 S
O300 C308 1.243 . S
O301 Tb252 2.413 . S
O301 C316 1.256 . S
O302 Tb263 2.546 . S
O302 C327 1.251 . S
O303 Tb252 2.362 . S
O303 Tb263 2.610 1_655 S
O303 C319 1.283 . S
O304 Tb252 2.421 . S
O304 C326 1.262 1_655 S
O305 Tb263 2.320 . S
O305 C326 1.260 . S
O306 Tb263 2.552 . S
O306 C319 1.243 1_455 S
O307 Tb263 2.413 . S
O307 C327 1.256 . S
C308 O297 1.283 . S
C308 O300 1.243 . S
C309 C311 1.382 . S
C309 C313 1.393 . S
C309 C316 1.500 . S
C310 C311 1.400 . S
C310 C312 1.384 . S
C311 C309 1.382 . S
C311 C310 1.400 . S
C311 H328 0.930 . S
C312 C310 1.384 . S
C312 C314 1.392 . S
C312 H329 0.931 . S
C313 C309 1.393 . S
C313 C314 1.401 . S
C313 H330 0.930 . S
C314 C312 1.392 . S
C314 C313 1.401 . S
C314 H331 0.930 . S
C315 O298 1.262 . S
C315 O299 1.260 1_455 S
C316 Tb252 2.833 . S
C316 O296 1.251 . S
C316 O301 1.256 . S
C316 C309 1.500 . S
C317 H282 0.929 . S
C317 C295 1.444 . S
C317 C318 1.317 . S
C318 H280 0.930 . S
C318 C286 1.432 . S
C318 C317 1.317 . S
C319 O303 1.283 . S
C319 O306 1.243 1_655 S
C320 C321 1.382 . S
C320 C324 1.393 . S
C320 C327 1.500 . S
C321 C320 1.382 . S
C321 C322 1.400 . S
C321 H332 0.930 . S
C322 C321 1.400 . S
C322 C323 1.384 . S
C323 C322 1.384 . S
C323 C325 1.392 . S
C323 H333 0.931 . S
C324 C320 1.393 . S
C324 C325 1.401 . S
C324 H334 0.930 . S
C325 C323 1.392 . S
C325 C324 1.401 . S
C325 H335 0.930 . S
C326 O304 1.262 1_455 S
C326 O305 1.260 . S
C327 Tb263 2.833 . S
C327 O302 1.251 . S
C327 O307 1.256 . S
C327 C320 1.500 . S
H328 C311 0.930 . S
H329 C312 0.931 . S
H330 C313 0.930 . S
H331 C314 0.930 . S
H332 C321 0.930 . S
H333 C323 0.931 . S
H334 C324 0.930 . S
H335 C325 0.930 . S
C336 C337 1.386 . S
C336 C338 1.383 1_655 S
C336 H352 0.951 . S
C337 C336 1.386 . S
C337 C341 1.383 1_655 S
C338 C336 1.383 1_455 S
C338 C339 1.402 . S
C338 H353 0.951 . S
C339 C338 1.402 . S
C339 C340 1.375 . S
C339 C342 1.481 . S
C340 C339 1.375 . S
C340 C341 1.367 . S
C340 H354 0.951 . S
C341 C337 1.383 1_455 S
C341 C340 1.367 . S
C341 H355 0.950 . S
C342 C339 1.481 . S
C342 C343 1.297 . S
C342 H356 0.950 . S
C343 C342 1.297 . S
C343 C344 1.479 . S
C343 H357 0.950 . S
C344 C343 1.479 . S
C344 C345 1.375 1_545 S
C344 C350 1.404 . S
C345 C344 1.375 1_565 S
C345 C346 1.369 . S
C345 H358 0.950 . S
C346 C345 1.369 . S
C346 C347 1.392 1_565 S
C346 H359 0.951 . S
C347 C346 1.392 1_545 S
C347 C349 1.384 . S
H348 C350 0.949 . S
C349 C347 1.384 . S
C349 C350 1.385 . S
C349 H351 0.950 . S
C350 C344 1.404 . S
C350 H348 0.949 . S
C350 C349 1.385 . S
H351 C349 0.950 . S
H352 C336 0.951 . S
H353 C338 0.951 . S
H354 C340 0.951 . S
H355 C341 0.950 . S
H356 C342 0.950 . S
H357 C343 0.950 . S
H358 C345 0.950 . S
H359 C346 0.951 . S
C360 C361 1.386 . S
C360 C362 1.383 . S
C360 H376 0.951 . S
C361 C360 1.386 . S
C361 C365 1.383 . S
C362 C360 1.383 . S
C362 C363 1.402 1_565 S
C362 H377 0.951 . S
C363 C362 1.402 1_545 S
C363 C364 1.375 1_545 S
C363 C366 1.481 . S
C364 C363 1.375 1_565 S
C364 C365 1.367 . S
C364 H378 0.951 1_565 S
C365 C361 1.383 . S
C365 C364 1.367 . S
C365 H379 0.950 . S
C366 C363 1.481 . S
C366 C367 1.297 . S
C366 H380 0.950 . S
C367 C366 1.297 . S
C367 C368 1.479 . S
C367 H381 0.950 . S
C368 C367 1.479 . S
C368 C369 1.375 . S
C368 C374 1.404 . S
C369 C368 1.375 . S
C369 C370 1.369 . S
C369 H382 0.950 . S
C370 C369 1.369 . S
C370 C371 1.392 . S
C370 H383 0.951 . S
C371 C370 1.392 . S
C371 C373 1.384 . S
H372 C374 0.949 . S
C373 C371 1.384 . S
C373 C374 1.385 . S
C373 H375 0.950 . S
C374 C368 1.404 . S
C374 H372 0.949 . S
C374 C373 1.385 . S
H375 C373 0.950 . S
H376 C360 0.951 . S
H377 C362 0.951 . S
H378 C364 0.951 1_545 S
H379 C365 0.950 . S
H380 C366 0.950 . S
H381 C367 0.950 . S
H382 C369 0.950 . S
H383 C370 0.951 . S
C384 C385 1.386 . S
C384 C386 1.383 . S
C384 H400 0.951 . S
C385 C384 1.386 . S
C385 C389 1.383 . S
C386 C384 1.383 . S
C386 C387 1.402 . S
C386 H401 0.951 . S
C387 C386 1.402 . S
C387 C388 1.375 . S
C387 C390 1.481 . S
C388 C387 1.375 . S
C388 C389 1.367 . S
C388 H402 0.951 1_545 S
C389 C385 1.383 . S
C389 C388 1.367 . S
C389 H403 0.950 . S
C390 C387 1.481 . S
C390 C391 1.297 . S
C390 H404 0.950 . S
C391 C390 1.297 . S
C391 C392 1.479 . S
C391 H405 0.950 . S
C392 C391 1.479 . S
C392 C393 1.375 . S
C392 C398 1.396 1_545 S
C393 C392 1.375 . S
C393 C394 1.369 . S
C393 H406 0.950 . S
C394 C393 1.369 . S
C394 C395 1.392 . S
C394 H407 0.951 . S
C395 C394 1.392 . S
C395 C397 1.384 1_545 S
H396 C398 0.952 . S
C397 C395 1.384 1_565 S
C397 C398 1.389 . S
C397 H399 0.950 . S
C398 C392 1.396 1_565 S
C398 H396 0.952 . S
C398 C397 1.389 . S
H399 C397 0.950 . S
H400 C384 0.951 . S
H401 C386 0.951 . S
H402 C388 0.951 1_565 S
H403 C389 0.950 . S
H404 C390 0.950 . S
H405 C391 0.950 . S
H406 C393 0.950 . S
H407 C394 0.951 . S
C408 C409 1.386 . S
C408 C410 1.383 . S
C408 H424 0.951 . S
C409 C408 1.386 . S
C409 C413 1.383 . S
C410 C408 1.383 . S
C410 C411 1.402 . S
C410 H425 0.951 . S
C411 C410 1.402 . S
C411 C412 1.375 . S
C411 C414 1.481 . S
C412 C411 1.375 . S
C412 C413 1.367 . S
C412 H426 0.951 . S
C413 C409 1.383 . S
C413 C412 1.367 . S
C413 H427 0.950 . S
C414 C411 1.481 . S
C414 C415 1.297 . S
C414 H428 0.950 . S
C415 C414 1.297 . S
C415 C416 1.479 . S
C415 H429 0.950 . S
C416 C415 1.479 . S
C416 C417 1.375 . S
C416 C422 1.404 . S
C417 C416 1.375 . S
C417 C418 1.369 . S
C417 H430 0.950 . S
C418 C417 1.369 . S
C418 C419 1.392 . S
C418 H431 0.951 . S
C419 C418 1.392 . S
C419 C421 1.384 . S
H420 C422 0.949 . S
C421 C419 1.384 . S
C421 C422 1.385 . S
C421 H423 0.950 . S
C422 C416 1.404 . S
C422 H420 0.949 . S
C422 C421 1.385 . S
H423 C421 0.950 . S
H424 C408 0.951 . S
H425 C410 0.951 . S
H426 C412 0.951 . S
H427 C413 0.950 . S
H428 C414 0.950 . S
H429 C415 0.950 . S
H430 C417 0.950 . S
H431 C418 0.951 . S
C432 C433 1.386 . S
C432 C434 1.383 . S
C432 H448 0.951 . S
C433 C432 1.386 . S
C433 C437 1.383 . S
C434 C432 1.383 . S
C434 C435 1.402 . S
C434 H449 0.951 . S
C435 C434 1.402 . S
C435 C436 1.375 . S
C435 C438 1.481 . S
C436 C435 1.375 . S
C436 C437 1.367 . S
C436 H450 0.951 . S
C437 C433 1.383 . S
C437 C436 1.367 . S
C437 H451 0.950 . S
C438 C435 1.481 . S
C438 C439 1.297 . S
C438 H452 0.950 . S
C439 C438 1.297 . S
C439 C440 1.479 . S
C439 H453 0.950 . S
C440 C439 1.479 . S
C440 C441 1.375 . S
C440 C446 1.404 . S
C441 C440 1.375 . S
C441 C442 1.369 . S
C441 H454 0.950 . S
C442 C441 1.369 . S
C442 C443 1.392 . S
C442 H455 0.951 . S
C443 C442 1.392 . S
C443 C445 1.384 . S
H444 C446 0.949 . S
C445 C443 1.384 . S
C445 C446 1.385 . S
C445 H447 0.950 . S
C446 C440 1.404 . S
C446 H444 0.949 . S
C446 C445 1.385 . S
H447 C445 0.950 . S
H448 C432 0.951 . S
H449 C434 0.951 . S
H450 C436 0.951 . S
H451 C437 0.950 . S
H452 C438 0.950 . S
H453 C439 0.950 . S
H454 C441 0.950 . S
H455 C442 0.951 . S
C456 C457 1.386 . S
C456 C458 1.383 . S
C456 H472 0.951 . S
C457 C456 1.386 . S
C457 C461 1.383 . S
C458 C456 1.383 . S
C458 C459 1.402 . S
C458 H473 0.951 . S
C459 C458 1.402 . S
C459 C460 1.375 . S
C459 C462 1.481 . S
C460 C459 1.375 . S
C460 C461 1.367 . S
C460 H474 0.951 . S
C461 C457 1.383 . S
C461 C460 1.367 . S
C461 H475 0.950 . S
C462 C459 1.481 . S
C462 C463 1.297 . S
C462 H476 0.950 . S
C463 C462 1.297 . S
C463 C464 1.479 . S
C463 H477 0.950 1_455 S
C464 C463 1.479 . S
C464 C465 1.375 1_455 S
C464 C470 1.404 . S
C465 C464 1.375 1_655 S
C465 C466 1.369 . S
C465 H478 0.950 . S
C466 C465 1.369 . S
C466 C467 1.392 . S
C466 H479 0.951 . S
C467 C466 1.392 . S
C467 C469 1.384 1_655 S
H468 C470 0.949 . S
C469 C467 1.384 1_455 S
C469 C470 1.385 . S
C469 H471 0.950 . S
C470 C464 1.404 . S
C470 H468 0.949 . S
C470 C469 1.385 . S
H471 C469 0.950 . S
H472 C456 0.951 . S
H473 C458 0.951 . S
H474 C460 0.951 . S
H475 C461 0.950 . S
H476 C462 0.950 . S
H477 C463 0.950 1_655 S
H478 C465 0.950 . S
H479 C466 0.951 . S
C480 C481 1.386 . S
C480 C482 1.383 . S
C480 H496 0.951 . S
C481 C480 1.386 . S
C481 C485 1.383 . S
C482 C480 1.383 . S
C482 C483 1.402 . S
C482 H497 0.951 . S
C483 C482 1.402 . S
C483 C484 1.375 . S
C483 C486 1.481 . S
C484 C483 1.375 . S
C484 C485 1.367 . S
C484 H498 0.951 . S
C485 C481 1.383 . S
C485 C484 1.367 . S
C485 H499 0.950 . S
C486 C483 1.481 . S
C486 C487 1.297 . S
C486 H500 0.950 . S
C487 C486 1.297 . S
C487 C488 1.479 . S
C487 H501 0.950 . S
C488 C487 1.479 . S
C488 C489 1.375 . S
C488 C494 1.404 . S
C489 C488 1.375 . S
C489 C490 1.369 . S
C489 H502 0.950 . S
C490 C489 1.369 . S
C490 C491 1.392 . S
C490 H503 0.951 . S
C491 C490 1.392 . S
C491 C493 1.384 . S
H492 C494 0.949 . S
C493 C491 1.384 . S
C493 C494 1.385 . S
C493 H495 0.950 . S
C494 C488 1.404 . S
C494 H492 0.949 . S
C494 C493 1.385 . S
H495 C493 0.950 . S
H496 C480 0.951 . S
H497 C482 0.951 . S
H498 C484 0.951 . S
H499 C485 0.950 . S
H500 C486 0.950 . S
H501 C487 0.950 . S
H502 C489 0.950 . S
H503 C490 0.951 . S
C504 C505 1.386 . S
C504 C506 1.383 . S
C504 H520 0.951 . S
C505 C504 1.386 . S
C505 C509 1.383 . S
C506 C504 1.383 . S
C506 C507 1.402 . S
C506 H521 0.951 . S
C507 C506 1.402 . S
C507 C508 1.375 . S
C507 C510 1.481 . S
C508 C507 1.375 . S
C508 C509 1.367 . S
C508 H522 0.951 . S
C509 C505 1.383 . S
C509 C508 1.367 . S
C509 H523 0.950 . S
C510 C507 1.481 . S
C510 C511 1.297 . S
C510 H524 0.950 . S
C511 C510 1.297 . S
C511 C512 1.479 . S
C511 H525 0.950 . S
C512 C511 1.479 . S
C512 C513 1.375 . S
C512 C518 1.404 . S
C513 C512 1.375 . S
C513 C514 1.369 1_556 S
C513 H526 0.950 . S
C514 C513 1.369 1_554 S
C514 C515 1.392 . S
C514 H527 0.951 . S
C515 C514 1.392 . S
C515 C517 1.384 . S
H516 C518 0.949 . S
C517 C515 1.384 . S
C517 C518 1.385 1_554 S
C517 H519 0.950 1_565 S
C518 C512 1.404 . S
C518 H516 0.949 . S
C518 C517 1.385 1_556 S
H519 C517 0.950 1_545 S
H520 C504 0.951 . S
H521 C506 0.951 . S
H522 C508 0.951 . S
H523 C509 0.950 . S
H524 C510 0.950 . S
H525 C511 0.950 . S
H526 C513 0.950 . S
H527 C514 0.951 . S
C528 C529 1.386 . S
C528 C530 1.383 1_545 S
C528 H544 0.951 . S
C529 C528 1.386 . S
C529 C533 1.383 1_545 S
C530 C528 1.383 1_565 S
C530 C531 1.402 . S
C530 H545 0.951 1_565 S
C531 C530 1.402 . S
C531 C532 1.375 . S
C531 C534 1.481 . S
C532 C531 1.375 . S
C532 C533 1.367 . S
C532 H546 0.951 . S
C533 C529 1.383 1_565 S
C533 C532 1.367 . S
C533 H547 0.950 . S
C534 C531 1.481 . S
C534 C535 1.297 . S
C534 H548 0.950 . S
C535 C534 1.297 . S
C535 C536 1.479 . S
C535 H549 0.950 . S
C536 C535 1.479 . S
C536 C537 1.375 . S
C536 C542 1.404 . S
C537 C536 1.375 . S
C537 C538 1.369 . S
C537 H550 0.950 . S
C538 C537 1.369 . S
C538 C539 1.392 . S
C538 H551 0.951 . S
C539 C538 1.392 . S
C539 C541 1.384 . S
H540 C542 0.949 . S
C541 C539 1.384 . S
C541 C542 1.385 . S
C541 H543 0.950 . S
C542 C536 1.404 . S
C542 H540 0.949 . S
C542 C541 1.385 . S
H543 C541 0.950 . S
H544 C528 0.951 . S
H545 C530 0.951 1_545 S
H546 C532 0.951 . S
H547 C533 0.950 . S
H548 C534 0.950 . S
H549 C535 0.950 . S
H550 C537 0.950 . S
H551 C538 0.951 . S
C552 C553 1.386 . S
C552 C554 1.383 . S
C552 H568 0.951 . S
C553 C552 1.386 . S
C553 C557 1.383 . S
C554 C552 1.383 . S
C554 C555 1.402 . S
C554 H569 0.951 . S
C555 C554 1.402 . S
C555 C556 1.375 . S
C555 C558 1.481 . S
C556 C555 1.375 . S
C556 C557 1.367 . S
C556 H570 0.951 . S
C557 C553 1.383 . S
C557 C556 1.367 . S
C557 H571 0.950 . S
C558 C555 1.481 . S
C558 C559 1.297 . S
C558 H572 0.950 . S
C559 C558 1.297 . S
C559 C560 1.479 . S
C559 H573 0.950 . S
C560 C559 1.479 . S
C560 C561 1.375 . S
C560 C566 1.404 . S
C561 C560 1.375 . S
C561 C562 1.369 . S
C561 H574 0.950 . S
C562 C561 1.369 . S
C562 C563 1.392 . S
C562 H575 0.951 . S
C563 C562 1.392 . S
C563 C565 1.384 . S
H564 C566 0.949 . S
C565 C563 1.384 . S
C565 C566 1.385 . S
C565 H567 0.950 . S
C566 C560 1.404 . S
C566 H564 0.949 . S
C566 C565 1.385 . S
H567 C565 0.950 . S
H568 C552 0.951 . S
H569 C554 0.951 . S
H570 C556 0.951 . S
H571 C557 0.950 . S
H572 C558 0.950 . S
H573 C559 0.950 . S
H574 C561 0.950 . S
H575 C562 0.951 . S
C576 C577 1.386 . S
C576 C578 1.383 . S
C576 H592 0.951 . S
C577 C576 1.386 . S
C577 C581 1.383 . S
C578 C576 1.383 . S
C578 C579 1.402 . S
C578 H593 0.951 . S
C579 C578 1.402 . S
C579 C580 1.375 . S
C579 C582 1.481 . S
C580 C579 1.375 . S
C580 C581 1.367 . S
C580 H594 0.951 . S
C581 C577 1.383 . S
C581 C580 1.367 . S
C581 H595 0.950 . S
C582 C579 1.481 . S
C582 C583 1.297 . S
C582 H596 0.950 . S
C583 C582 1.297 . S
C583 C584 1.479 . S
C583 H597 0.950 . S
C584 C583 1.479 . S
C584 C585 1.375 . S
C584 C590 1.404 . S
C585 C584 1.375 . S
C585 C586 1.369 1_556 S
C585 H598 0.950 . S
C586 C585 1.369 1_554 S
C586 C587 1.392 . S
C586 H599 0.951 . S
C587 C586 1.392 . S
C587 C589 1.384 . S
H588 C590 0.949 . S
C589 C587 1.384 . S
C589 C590 1.385 1_554 S
C589 H591 0.950 . S
C590 C584 1.404 . S
C590 H588 0.949 . S
C590 C589 1.385 1_556 S
H591 C589 0.950 . S
H592 C576 0.951 . S
H593 C578 0.951 . S
H594 C580 0.951 . S
H595 C581 0.950 . S
H596 C582 0.950 . S
H597 C583 0.950 . S
H598 C585 0.950 . S
H599 C586 0.951 . S
C600 C601 1.386 . S
C600 C602 1.383 . S
C600 H616 0.951 . S
C601 C600 1.386 . S
C601 C605 1.383 . S
C602 C600 1.383 . S
C602 C603 1.402 . S
C602 H617 0.951 . S
C603 C602 1.402 . S
C603 C604 1.375 . S
C603 C606 1.481 . S
C604 C603 1.375 . S
C604 C605 1.367 . S
C604 H618 0.951 . S
C605 C601 1.383 . S
C605 C604 1.367 . S
C605 H619 0.950 . S
C606 C603 1.481 . S
C606 C607 1.297 . S
C606 H620 0.950 . S
C607 C606 1.297 . S
C607 C608 1.479 1_655 S
C607 H621 0.950 . S
C608 C607 1.479 1_455 S
C608 C609 1.375 . S
C608 C614 1.404 . S
C609 C608 1.375 . S
C609 C610 1.369 . S
C609 H622 0.950 . S
C610 C609 1.369 . S
C610 C611 1.392 . S
C610 H623 0.951 . S
C611 C610 1.392 . S
C611 C613 1.384 . S
H612 C614 0.949 1_655 S
C613 C611 1.384 . S
C613 C614 1.385 . S
C613 H615 0.950 . S
C614 C608 1.404 . S
C614 H612 0.949 1_455 S
C614 C613 1.385 . S
H615 C613 0.950 . S
H616 C600 0.951 . S
H617 C602 0.951 . S
H618 C604 0.951 . S
H619 C605 0.950 . S
H620 C606 0.950 . S
H621 C607 0.950 . S
H622 C609 0.950 . S
H623 C610 0.951 . S
C337 C231 0.849 . S
C347 C74 0.618 . S
C361 C315 0.298 . S
C371 C158 0.306 . S
C385 C242 1.172 . S
C395 C63 1.187 . S
C409 C147 1.312 . S
C419 C326 1.213 . S
C433 C140 1.936 . S
C443 C67 2.070 . S
C457 C151 2.139 . S
C467 C226 2.186 . S
C481 C310 1.104 . S
C491 C238 0.909 . S
C505 C322 0.657 . S
C515 C56 0.815 . S
C529 C224 2.094 . S
C539 C319 1.885 . S
C553 C70 2.158 . S
C563 C308 2.111 . S
C577 C154 1.076 . S
C587 C58 0.876 . S
C601 C235 0.834 . S
C611 C142 0.876 . S
