# Generated by pormake.
# Topology snp, (6)-cn, num edge types: 1
# Building blocks:
#     Node 0, Type 0, BuildingBlock: INOVEN_clean_sbu_0, # of connection points: 6
#     Node 1, Type 0, BuildingBlock: INOVEN_clean_sbu_0, # of connection points: 6
#     Node 2, Type 0, BuildingBlock: INOVEN_clean_sbu_0, # of connection points: 6
#     Node 3, Type 0, BuildingBlock: INOVEN_clean_sbu_0, # of connection points: 6
#     Edge 4, Type (0, 0), BuildingBlock: AJUNOK_clean_linker_0, # of connection points: 2
#     Edge 5, Type (0, 0), BuildingBlock: AJUNOK_clean_linker_0, # of connection points: 2
#     Edge 6, Type (0, 0), BuildingBlock: AJUNOK_clean_linker_0, # of connection points: 2
#     Edge 7, Type (0, 0), BuildingBlock: AJUNOK_clean_linker_0, # of connection points: 2
#     Edge 8, Type (0, 0), BuildingBlock: AJUNOK_clean_linker_0, # of connection points: 2
#     Edge 9, Type (0, 0), BuildingBlock: AJUNOK_clean_linker_0, # of connection points: 2
#     Edge 10, Type (0, 0), BuildingBlock: AJUNOK_clean_linker_0, # of connection points: 2
#     Edge 11, Type (0, 0), BuildingBlock: AJUNOK_clean_linker_0, # of connection points: 2
#     Edge 12, Type (0, 0), BuildingBlock: AJUNOK_clean_linker_0, # of connection points: 2
#     Edge 13, Type (0, 0), BuildingBlock: AJUNOK_clean_linker_0, # of connection points: 2
#     Edge 14, Type (0, 0), BuildingBlock: AJUNOK_clean_linker_0, # of connection points: 2
#     Edge 15, Type (0, 0), BuildingBlock: AJUNOK_clean_linker_0, # of connection points: 2
# Relax obj value: 0.232
# Max RMSD: 0.248
# Mean RMSD: 0.238
data_MOF--net-snp--node1-INOVEN_clean_sbu_0--edge1-AJUNOK_clean_linker_0
_symmetry_space_group_name_H-M    P1
_symmetry_Int_Tables_number       1
_symmetry_cell_setting            triclinic
loop_
_symmetry_equiv_pos_as_xyz
'x, y, z'
_cell_length_a     19.02285
_cell_length_b     18.810055
_cell_length_c     28.698187
_cell_angle_alpha  81.641565
_cell_angle_beta   107.74571
_cell_angle_gamma 99.195576
loop_
_atom_site_label
_atom_site_type_symbol
_atom_site_fract_x
_atom_site_fract_y
_atom_site_fract_z
_atom_type_partial_charge
Gd0 Gd 0.28788 0.13096 0.15295 0.0
Gd1 Gd 0.27734 -0.01398 0.10873 0.0
C2 C 0.28815 -0.02107 0.2225 0.0
C3 C 0.27662 0.23057 0.20316 0.0
C4 C 0.26615 0.23504 0.25169 0.0
C5 C 0.30878 0.1993 0.29513 0.0
C6 C 0.21348 0.27724 0.25473 0.0
C7 C 0.24821 0.25056 0.34401 0.0
C8 C 0.2047 0.28508 0.30036 0.0
C9 C 0.29995 0.20704 0.34081 0.0
C10 C 0.41625 0.08969 0.1499 0.0
C11 C 0.25251 0.14144 1.0362 0.0
C12 C 0.3066 0.88882 0.06491 0.0
C13 C 0.28617 0.86827 1.01423 0.0
C14 C 0.21232 0.84305 0.98948 0.0
C15 C 0.34126 0.8737 0.99015 0.0
C16 C 0.24911 0.83 0.91742 0.0
C17 C 0.32283 0.85521 0.94203 0.0
C18 C 0.19406 0.8241 0.94157 0.0
C19 C 0.14926 0.01214 0.11834 0.0
O20 O 0.27081 0.04574 0.213 0.0
O21 O 0.30442 0.94587 0.18993 0.0
O22 O 0.3403 0.21319 0.2027 0.0
O23 O 0.2202 0.19952 0.17085 0.0
O24 O 0.40294 0.15679 0.1417 0.0
O25 O 0.36286 0.04993 0.16038 0.0
O26 O 0.26323 0.0719 1.04164 0.0
O27 O 0.25565 0.17592 0.07395 0.0
O28 O 0.25395 0.87772 0.08679 0.0
O29 O 0.34953 0.95031 0.07344 0.0
O30 O 0.16398 0.94742 0.11705 0.0
O31 O 0.19857 0.05913 0.10714 0.0
H32 H 0.34984 0.1664 0.29392 0.0
H33 H 0.17965 0.30497 0.22176 0.0
H34 H 0.16403 0.31853 0.30154 0.0
H35 H 0.33518 0.18061 0.37373 0.0
H36 H 0.16837 0.83843 1.00685 0.0
H37 H 0.3986 0.89268 1.00848 0.0
H38 H 0.36618 0.86038 0.92408 0.0
H39 H 0.13653 0.8062 0.92301 0.0
Gd40 Gd 0.97745 0.26122 0.74626 0.0
Gd41 Gd 0.12328 0.30083 0.72123 0.0
C42 C 0.13543 0.26767 0.83441 0.0
C43 C 0.86891 0.20894 0.78263 0.0
C44 C 0.85724 0.20891 0.83085 0.0
C45 C 0.90867 0.24961 0.8666 0.0
C46 C 0.79668 0.1652 0.84233 0.0
C47 C 0.84309 0.19718 0.9263 0.0
C48 C 0.7897 0.15925 0.88989 0.0
C49 C 0.90168 0.24359 0.91414 0.0
C50 C 0.01325 0.40368 0.72415 0.0
C51 C 0.9662 0.27678 0.63298 0.0
C52 C 0.22371 0.35174 0.67732 0.0
C53 C 0.22971 0.34092 0.62834 0.0
C54 C 0.27956 0.29537 0.6251 0.0
C55 C 0.18312 0.37193 0.58447 0.0
C56 C 0.2334 0.30889 0.53552 0.0
C57 C 0.18493 0.35604 0.53864 0.0
C58 C 0.28137 0.27952 0.57929 0.0
C59 C 0.07931 0.15647 0.73099 0.0
O60 O 0.06355 0.24464 0.82002 0.0
O61 O 0.17152 0.302 0.80324 0.0
O62 O 0.87226 0.27219 0.75715 0.0
O63 O 0.92032 0.17075 0.78186 0.0
O64 O 0.94615 0.37093 0.71459 0.0
O65 O 0.0586 0.36072 0.74982 0.0
O66 O 0.03547 0.30906 0.6467 0.0
O67 O 0.93381 0.24305 0.66623 0.0
O68 O 0.22959 0.29485 0.7097 0.0
O69 O 0.17147 0.38886 0.67808 0.0
O70 O 0.1474 0.1862 0.74596 0.0
O71 O 0.03846 0.20536 0.71174 0.0
H72 H 0.95574 0.28373 0.85825 0.0
H73 H 0.75659 0.13346 0.81514 0.0
H74 H 0.74521 0.12177 0.89907 0.0
H75 H 0.94413 0.27185 0.94214 0.0
H76 H 0.3166 0.27107 0.65813 0.0
H77 H 0.1443 0.4076 0.58543 0.0
H78 H 0.1474 0.3797 0.50559 0.0
H79 H 0.32068 0.2445 0.57815 0.0
Gd80 Gd 0.83456 0.0833 0.23586 0.0
Gd81 Gd 0.833 0.93646 0.19625 0.0
C82 C 0.85178 0.92936 0.31082 0.0
C83 C 0.79532 0.1774 0.27682 0.0
C84 C 0.81648 0.19507 0.32805 0.0
C85 C 0.88907 0.18965 0.35889 0.0
C86 C 0.76356 0.21525 0.34698 0.0
C87 C 0.85599 0.22593 0.42664 0.0
C88 C 0.78311 0.23046 0.39599 0.0
C89 C 0.90875 0.20548 0.4076 0.0
C90 C 0.96871 0.05784 0.23773 0.0
C91 C 0.84313 0.08747 0.12569 0.0
C92 C 0.85465 0.83665 0.15014 0.0
C93 C 0.85889 0.82945 0.10033 0.0
C94 C 0.81331 0.86452 0.05787 0.0
C95 C 0.90883 0.78583 0.09511 0.0
C96 C 0.86443 0.8085 1.00565 0.0
C97 C 0.91174 0.77559 0.04834 0.0
C98 C 0.81603 0.8541 1.01104 0.0
C99 C 0.69982 -0.01895 0.18686 0.0
O100 O 0.83983 -0.00141 0.30258 0.0
O101 O 0.85665 0.89375 0.27564 0.0
O102 O 0.84773 0.19267 0.25469 0.0
O103 O 0.75624 0.11407 0.26842 0.0
O104 O 0.95297 0.12178 0.23992 0.0
O105 O 0.91672 0.01 0.24475 0.0
O106 O 0.85641 0.01954 0.13729 0.0
O107 O 0.82216 0.1226 0.15525 0.0
O108 O 0.78957 0.84398 0.15423 0.0
O109 O 0.9087 0.87847 0.17705 0.0
O110 O 0.71164 0.91356 0.19718 0.0
O111 O 0.75708 0.0189 0.18081 0.0
H112 H 0.9306 0.17296 0.3454 0.0
H113 H 0.70714 0.21912 0.32387 0.0
H114 H 0.7416 0.24654 0.40978 0.0
H115 H 0.96508 0.2009 0.43065 0.0
H116 H 0.77524 0.89959 0.06086 0.0
H117 H 0.94497 0.75873 0.12731 0.0
H118 H 0.94972 0.7403 0.04554 0.0
H119 H 0.78025 0.88181 0.97899 0.0
Gd120 Gd 0.98011 0.76258 0.62571 0.0
Gd121 Gd 0.12133 0.81632 0.59776 0.0
C122 C 0.13984 0.78579 0.71105 0.0
C123 C 0.88483 0.70212 0.67177 0.0
C124 C 0.87756 0.71326 0.72048 0.0
C125 C 0.82752 0.75903 0.72325 0.0
C126 C 0.92309 0.68194 0.7647 0.0
C127 C 0.87039 0.74377 0.81303 0.0
C128 C 0.91989 0.69739 0.81035 0.0
C129 C 0.82416 0.77425 0.76886 0.0
C130 C 0.01533 0.90806 0.62279 0.0
C131 C 0.96105 0.80627 0.51294 0.0
C132 C 0.22398 0.88012 0.5588 0.0
C133 C 0.23675 0.88454 0.5103 0.0
C134 C 0.30974 0.89468 0.50704 0.0
C135 C 0.17711 0.87716 0.46733 0.0
C136 C 0.26364 0.89262 0.41813 0.0
C137 C 0.19044 0.8815 0.42161 0.0
C138 C 0.32312 0.89878 0.46139 0.0
C139 C 0.09045 0.6708 0.61183 0.0
O140 O 0.07292 0.74853 0.69747 0.0
O141 O 0.16709 0.82864 0.67827 0.0
O142 O 0.87175 0.75619 0.63741 0.0
O143 O 0.94208 0.67158 0.67181 0.0
O144 O 0.94879 0.87521 0.60743 0.0
O145 O 0.06015 0.8618 0.63813 0.0
O146 O 0.03043 0.83706 0.5272 0.0
O147 O 0.92989 0.76283 0.54369 0.0
O148 O 0.22741 0.81662 0.58422 0.0
O149 O 0.16892 0.91219 0.56092 0.0
O150 O 0.1568 0.70541 0.62357 0.0
O151 O 0.04432 0.71457 0.58974 0.0
H152 H 0.7917 0.78425 0.69004 0.0
H153 H 0.96185 0.64601 0.7641 0.0
H154 H 0.95591 0.67266 0.84366 0.0
H155 H 0.78628 0.81116 0.7695 0.0
H156 H 0.35647 0.89992 0.53983 0.0
H157 H 0.12025 0.86897 0.46896 0.0
H158 H 0.14342 0.87843 0.38886 0.0
H159 H 0.38007 0.90759 0.45981 0.0
C160 C 0.04459 -0.01795 0.21338 0.0
C161 C 0.01839 0.04879 0.20913 0.0
C162 C 0.08522 0.9701 0.18268 0.0
C163 C 0.10179 0.02493 0.14727 0.0
H164 H 0.03303 0.93862 0.24028 0.0
H165 H 0.10441 0.91772 0.18713 0.0
S166 S 0.04184 0.20784 0.1191 0.0
N167 N 1.01054 0.17043 0.16581 0.0
N168 N 0.08506 0.1462 0.10726 0.0
C169 C 0.07568 0.09171 0.14238 0.0
C170 C 0.03483 0.1043 0.17382 0.0
C171 C 0.10283 0.00375 0.66806 0.0
C172 C 0.02901 0.9736 0.64805 0.0
C173 C 0.1195 0.05987 0.69808 0.0
C174 C 0.06274 0.08793 0.70894 0.0
H175 H 0.14821 -0.01649 0.66068 0.0
H176 H 0.17705 0.08292 0.71136 0.0
S177 S 0.86117 0.02357 0.66974 0.0
N178 N 0.89886 0.97301 0.64376 0.0
N179 N 0.93077 0.07891 0.70032 0.0
C180 C 0.98894 0.05713 0.69032 0.0
C181 C 0.9718 0.00011 0.65957 0.0
C182 C 0.56439 0.96313 0.18123 0.0
C183 C 0.62794 0.00975 0.17692 0.0
C184 C 0.4959 -0.01045 0.17145 0.0
C185 C 0.48842 0.06359 0.15699 0.0
H186 H 0.5675 0.90589 0.19234 0.0
H187 H 0.44857 0.95154 0.17573 0.0
S188 S 0.63753 0.20816 0.13936 0.0
N189 N 0.67853 0.13379 0.15637 0.0
N190 N 0.54994 0.18279 0.13823 0.0
C191 C 0.55119 0.11064 0.15206 0.0
C192 C 0.62093 0.08388 0.16201 0.0
C193 C 0.10465 0.50868 0.70815 0.0
C194 C 0.03265 0.47125 0.69496 0.0
C195 C 0.12364 0.57219 0.68007 0.0
C196 C 0.07113 0.60045 0.63797 0.0
H197 H 0.14638 0.48908 0.74053 0.0
H198 H 0.17944 0.60013 0.69213 0.0
S199 S 0.87626 0.52096 0.58621 0.0
N200 N 0.9092 0.46582 0.63571 0.0
N201 N 0.94552 0.58497 0.58334 0.0
C202 C 0.99952 0.5629 0.62388 0.0
C203 C 0.98002 0.49846 0.65239 0.0
C204 C 0.23917 0.34825 0.44913 0.0
C205 C 0.2351 0.29192 0.48665 0.0
C206 C 0.24267 0.33419 0.4032 0.0
C207 C 0.24215 0.26318 0.39276 0.0
H208 H 0.2411 0.40394 0.45561 0.0
H209 H 0.24728 0.37961 0.37593 0.0
S210 S 0.22471 0.09562 0.4766 0.0
N211 N 0.22581 0.16169 0.50908 0.0
N212 N 0.23234 0.13535 0.42282 0.0
C213 C 0.2365 0.20612 0.42957 0.0
C214 C 0.23297 0.22044 0.47641 0.0
C215 C 0.81188 0.20812 1.004 0.0
C216 C 0.84765 0.17473 0.97833 0.0
C217 C 0.81287 0.18182 0.05272 0.0
C218 C 0.84885 0.12095 0.07662 0.0
H219 H 0.78196 0.25368 0.98601 0.0
H220 H 0.78322 0.20764 0.07105 0.0
S221 S 0.9542 0.01811 1.02443 0.0
N222 N 0.92279 0.08147 0.98013 0.0
N223 N 0.92421 0.03069 0.07047 0.0
C224 C 0.88645 0.0888 0.05105 0.0
C225 C 0.88592 0.11607 1.00218 0.0
C226 C 0.92472 0.79573 0.42276 0.0
C227 C 0.91766 0.82804 0.46196 0.0
C228 C 0.89965 0.82688 0.37387 0.0
C229 C 0.86804 0.89264 0.36228 0.0
H230 H 0.95296 0.74787 0.43013 0.0
H231 H 0.90865 0.80082 0.34527 0.0
S232 S 0.83584 -0.00249 0.45265 0.0
N233 N 0.8752 0.92769 0.4865 0.0
N234 N 0.82848 -0.01313 0.39515 0.0
C235 C 0.8586 0.92407 0.40142 0.0
C236 C 0.88352 0.89176 0.45107 0.0
C237 C 0.2227 0.85405 0.77993 0.0
C238 C 0.1765 0.79061 0.76411 0.0
C239 C 0.24832 0.86518 0.82987 0.0
C240 C 0.22861 0.81331 0.86571 0.0
H241 H 0.23629 0.89709 0.75344 0.0
H242 H 0.28107 0.91611 0.84026 0.0
S243 S 0.11911 0.63333 0.84435 0.0
N244 N 0.11938 0.67174 0.78885 0.0
N245 N 0.1673 0.69298 0.88273 0.0
C246 C 0.18602 0.74799 0.85072 0.0
C247 C 0.1601 0.73654 0.79991 0.0
C248 C 0.93217 0.79719 0.9444 0.0
C249 C 0.86462 0.79363 0.95586 0.0
C250 C 0.93359 0.78109 0.89833 0.0
C251 C 0.86754 0.76074 0.86173 0.0
H252 H 0.98444 0.81299 0.97119 0.0
H253 H 0.98688 0.78526 0.89113 0.0
S254 S 0.67656 0.73762 0.87447 0.0
N255 N 0.73029 0.76459 0.92747 0.0
N256 N 0.73296 0.7345 0.84122 0.0
C257 C 0.79974 0.75639 0.87288 0.0
C258 C 0.79829 0.77278 0.91975 0.0
C259 C 0.33294 -0.01315 0.31191 0.0
C260 C 0.29386 0.94535 0.27293 0.0
C261 C 0.32545 0.96721 0.35918 0.0
C262 C 0.27793 0.90549 0.36928 0.0
H263 H 0.36704 0.03695 0.30523 0.0
H264 H 0.35399 0.00297 0.38734 0.0
S265 S 0.16861 0.77481 0.28075 0.0
N266 N 0.2106 0.83695 0.24792 0.0
N267 N 0.19575 0.79952 0.33712 0.0
C268 C 0.24146 0.86127 0.33114 0.0
C269 C 0.24986 0.88114 0.28289 0.0
C270 C 0.22292 0.19176 0.89782 0.0
C271 C 0.17595 0.2465 0.88644 0.0
C272 C 0.24876 0.15891 0.94635 0.0
C273 C 0.22958 0.18037 0.98554 0.0
H274 H 0.23663 0.17154 0.86859 0.0
H275 H 0.28288 0.1155 0.95303 0.0
S276 S 0.10968 0.32349 0.97477 0.0
N277 N 0.11214 0.32137 0.91797 0.0
N278 N 0.16189 0.26212 1.00901 0.0
C279 C 0.18465 0.23706 0.97458 0.0
C280 C 0.15741 0.26931 0.92512 0.0
C281 C 0.94057 0.29307 0.49561 0.0
C282 C 0.878 0.24277 0.47843 0.0
C283 C 0.96614 0.30616 0.54515 0.0
C284 C 0.93081 0.26884 0.57978 0.0
H285 H 0.97063 0.32195 0.4706 0.0
H286 H 0.01521 0.34473 0.55645 0.0
S287 S 0.76289 0.13275 0.55268 0.0
N288 N 0.77978 0.15678 0.49909 0.0
N289 N 0.82758 0.18103 0.59241 0.0
C290 C 0.86652 0.21995 0.56263 0.0
C291 C 0.84029 0.20693 0.51196 0.0
loop_
_geom_bond_atom_site_label_1
_geom_bond_atom_site_label_2
_geom_bond_distance
_geom_bond_site_symmetry_2
_ccdc_geom_bond_type
Gd0 C3 2.818 . S
Gd0 O20 2.377 . S
Gd0 O22 2.448 . S
Gd0 O23 2.506 . S
Gd0 O24 2.435 . S
Gd0 O25 2.717 . S
Gd0 O27 2.395 . S
Gd0 O31 2.327 . S
Gd1 C12 2.818 1_544 S
Gd1 O21 2.395 1_545 S
Gd1 O25 2.327 . S
Gd1 O26 2.377 . S
Gd1 O28 2.448 1_544 S
Gd1 O29 2.506 1_545 S
Gd1 O30 2.435 . S
Gd1 O31 2.717 . S
C2 O20 1.240 . S
C2 O21 1.240 1_545 S
C3 Gd0 2.818 . S
C3 C4 1.510 . S
C3 O22 1.249 . S
C3 O23 1.252 . S
C4 C3 1.510 . S
C4 C5 1.404 . S
C4 C6 1.352 . S
C5 C4 1.404 . S
C5 C9 1.389 . S
C5 H32 0.930 . S
C6 C4 1.352 . S
C6 C8 1.374 . S
C6 H33 0.931 . S
C7 C8 1.359 . S
C7 C9 1.364 . S
C8 C6 1.374 . S
C8 C7 1.359 . S
C8 H34 0.931 . S
C9 C5 1.389 . S
C9 C7 1.364 . S
C9 H35 0.931 . S
C10 O24 1.256 . S
C10 O25 1.257 . S
C11 O26 1.240 . S
C11 O27 1.240 . S
C12 Gd1 2.818 1_566 S
C12 C13 1.510 . S
C12 O28 1.249 . S
C12 O29 1.252 1_556 S
C13 C12 1.510 . S
C13 C14 1.404 . S
C13 C15 1.352 . S
C14 C13 1.404 . S
C14 C18 1.389 . S
C14 H36 0.930 . S
C15 C13 1.352 . S
C15 C17 1.374 . S
C15 H37 0.931 . S
C16 C17 1.359 . S
C16 C18 1.364 . S
C17 C15 1.374 . S
C17 C16 1.359 . S
C17 H38 0.931 . S
C18 C14 1.389 . S
C18 C16 1.364 . S
C18 H39 0.931 . S
C19 O30 1.256 . S
C19 O31 1.257 . S
O20 Gd0 2.377 . S
O20 C2 1.240 . S
O21 Gd1 2.395 1_565 S
O21 C2 1.240 1_565 S
O22 Gd0 2.448 . S
O22 C3 1.249 . S
O23 Gd0 2.506 . S
O23 C3 1.252 . S
O24 Gd0 2.435 . S
O24 C10 1.256 . S
O25 Gd0 2.717 . S
O25 Gd1 2.327 . S
O25 C10 1.257 . S
O26 Gd1 2.377 . S
O26 C11 1.240 . S
O27 Gd0 2.395 . S
O27 C11 1.240 . S
O28 Gd1 2.448 1_566 S
O28 C12 1.249 . S
O29 Gd1 2.506 1_565 S
O29 C12 1.252 1_554 S
O30 Gd1 2.435 . S
O30 C19 1.256 . S
O31 Gd0 2.327 . S
O31 Gd1 2.717 . S
O31 C19 1.257 . S
H32 C5 0.930 . S
H33 C6 0.931 . S
H34 C8 0.931 . S
H35 C9 0.931 . S
H36 C14 0.930 . S
H37 C15 0.931 . S
H38 C17 0.931 . S
H39 C18 0.931 . S
Gd40 C43 2.818 . S
Gd40 O60 2.377 1_655 S
Gd40 O62 2.448 . S
Gd40 O63 2.506 . S
Gd40 O64 2.435 . S
Gd40 O65 2.717 1_655 S
Gd40 O67 2.395 . S
Gd40 O71 2.327 1_655 S
Gd41 C52 2.818 . S
Gd41 O61 2.395 . S
Gd41 O65 2.327 . S
Gd41 O66 2.377 . S
Gd41 O68 2.448 . S
Gd41 O69 2.506 . S
Gd41 O70 2.435 . S
Gd41 O71 2.717 . S
C42 O60 1.240 . S
C42 O61 1.240 . S
C43 Gd40 2.818 . S
C43 C44 1.510 . S
C43 O62 1.249 . S
C43 O63 1.252 . S
C44 C43 1.510 . S
C44 C45 1.404 . S
C44 C46 1.352 . S
C45 C44 1.404 . S
C45 C49 1.389 . S
C45 H72 0.930 . S
C46 C44 1.352 . S
C46 C48 1.374 . S
C46 H73 0.931 . S
C47 C48 1.359 . S
C47 C49 1.364 . S
C48 C46 1.374 . S
C48 C47 1.359 . S
C48 H74 0.931 . S
C49 C45 1.389 . S
C49 C47 1.364 . S
C49 H75 0.931 . S
C50 O64 1.256 1_455 S
C50 O65 1.257 . S
C51 O66 1.240 1_655 S
C51 O67 1.240 . S
C52 Gd41 2.818 . S
C52 C53 1.510 . S
C52 O68 1.249 . S
C52 O69 1.252 . S
C53 C52 1.510 . S
C53 C54 1.404 . S
C53 C55 1.352 . S
C54 C53 1.404 . S
C54 C58 1.389 . S
C54 H76 0.930 . S
C55 C53 1.352 . S
C55 C57 1.374 . S
C55 H77 0.931 . S
C56 C57 1.359 . S
C56 C58 1.364 . S
C57 C55 1.374 . S
C57 C56 1.359 . S
C57 H78 0.931 . S
C58 C54 1.389 . S
C58 C56 1.364 . S
C58 H79 0.931 . S
C59 O70 1.256 . S
C59 O71 1.257 . S
O60 Gd40 2.377 1_455 S
O60 C42 1.240 . S
O61 Gd41 2.395 . S
O61 C42 1.240 . S
O62 Gd40 2.448 . S
O62 C43 1.249 . S
O63 Gd40 2.506 . S
O63 C43 1.252 . S
O64 Gd40 2.435 . S
O64 C50 1.256 1_655 S
O65 Gd40 2.717 1_455 S
O65 Gd41 2.327 . S
O65 C50 1.257 . S
O66 Gd41 2.377 . S
O66 C51 1.240 1_455 S
O67 Gd40 2.395 . S
O67 C51 1.240 . S
O68 Gd41 2.448 . S
O68 C52 1.249 . S
O69 Gd41 2.506 . S
O69 C52 1.252 . S
O70 Gd41 2.435 . S
O70 C59 1.256 . S
O71 Gd40 2.327 1_455 S
O71 Gd41 2.717 . S
O71 C59 1.257 . S
H72 C45 0.930 . S
H73 C46 0.931 . S
H74 C48 0.931 . S
H75 C49 0.931 . S
H76 C54 0.930 . S
H77 C55 0.931 . S
H78 C57 0.931 . S
H79 C58 0.931 . S
Gd80 C83 2.818 . S
Gd80 O100 2.377 1_545 S
Gd80 O102 2.448 . S
Gd80 O103 2.506 . S
Gd80 O104 2.435 . S
Gd80 O105 2.717 1_545 S
Gd80 O107 2.395 . S
Gd80 O111 2.327 . S
Gd81 C92 2.818 . S
Gd81 O101 2.395 . S
Gd81 O105 2.327 . S
Gd81 O106 2.377 1_565 S
Gd81 O108 2.448 . S
Gd81 O109 2.506 . S
Gd81 O110 2.435 . S
Gd81 O111 2.717 1_565 S
C82 O100 1.240 . S
C82 O101 1.240 . S
C83 Gd80 2.818 . S
C83 C84 1.510 . S
C83 O102 1.249 . S
C83 O103 1.252 . S
C84 C83 1.510 . S
C84 C85 1.404 . S
C84 C86 1.352 . S
C85 C84 1.404 . S
C85 C89 1.389 . S
C85 H112 0.930 . S
C86 C84 1.352 . S
C86 C88 1.374 . S
C86 H113 0.931 . S
C87 C88 1.359 . S
C87 C89 1.364 . S
C88 C86 1.374 . S
C88 C87 1.359 . S
C88 H114 0.931 . S
C89 C85 1.389 . S
C89 C87 1.364 . S
C89 H115 0.931 . S
C90 O104 1.256 . S
C90 O105 1.257 1_545 S
C91 O106 1.240 . S
C91 O107 1.240 . S
C92 Gd81 2.818 . S
C92 C93 1.510 . S
C92 O108 1.249 . S
C92 O109 1.252 . S
C93 C92 1.510 . S
C93 C94 1.404 1_554 S
C93 C95 1.352 1_554 S
C94 C93 1.404 1_556 S
C94 C98 1.389 . S
C94 H116 0.930 . S
C95 C93 1.352 1_556 S
C95 C97 1.374 . S
C95 H117 0.931 1_556 S
C96 C97 1.359 . S
C96 C98 1.364 . S
C97 C95 1.374 . S
C97 C96 1.359 . S
C97 H118 0.931 . S
C98 C94 1.389 . S
C98 C96 1.364 . S
C98 H119 0.931 . S
C99 O110 1.256 . S
C99 O111 1.257 1_565 S
O100 Gd80 2.377 1_565 S
O100 C82 1.240 . S
O101 Gd81 2.395 . S
O101 C82 1.240 . S
O102 Gd80 2.448 . S
O102 C83 1.249 . S
O103 Gd80 2.506 . S
O103 C83 1.252 . S
O104 Gd80 2.435 . S
O104 C90 1.256 . S
O105 Gd80 2.717 1_565 S
O105 Gd81 2.327 . S
O105 C90 1.257 1_565 S
O106 Gd81 2.377 1_545 S
O106 C91 1.240 . S
O107 Gd80 2.395 . S
O107 C91 1.240 . S
O108 Gd81 2.448 . S
O108 C92 1.249 . S
O109 Gd81 2.506 . S
O109 C92 1.252 . S
O110 Gd81 2.435 . S
O110 C99 1.256 . S
O111 Gd80 2.327 . S
O111 Gd81 2.717 1_545 S
O111 C99 1.257 1_545 S
H112 C85 0.930 . S
H113 C86 0.931 . S
H114 C88 0.931 . S
H115 C89 0.931 . S
H116 C94 0.930 . S
H117 C95 0.931 1_554 S
H118 C97 0.931 . S
H119 C98 0.931 . S
Gd120 C123 2.818 . S
Gd120 O140 2.377 1_655 S
Gd120 O142 2.448 . S
Gd120 O143 2.506 . S
Gd120 O144 2.435 . S
Gd120 O145 2.717 1_655 S
Gd120 O147 2.395 . S
Gd120 O151 2.327 1_655 S
Gd121 C132 2.818 . S
Gd121 O141 2.395 . S
Gd121 O145 2.327 . S
Gd121 O146 2.377 . S
Gd121 O148 2.448 . S
Gd121 O149 2.506 . S
Gd121 O150 2.435 . S
Gd121 O151 2.717 . S
C122 O140 1.240 . S
C122 O141 1.240 . S
C123 Gd120 2.818 . S
C123 C124 1.510 . S
C123 O142 1.249 . S
C123 O143 1.252 . S
C124 C123 1.510 . S
C124 C125 1.404 . S
C124 C126 1.352 . S
C125 C124 1.404 . S
C125 C129 1.389 . S
C125 H152 0.930 . S
C126 C124 1.352 . S
C126 C128 1.374 . S
C126 H153 0.931 . S
C127 C128 1.359 . S
C127 C129 1.364 . S
C128 C126 1.374 . S
C128 C127 1.359 . S
C128 H154 0.931 . S
C129 C125 1.389 . S
C129 C127 1.364 . S
C129 H155 0.931 . S
C130 O144 1.256 1_455 S
C130 O145 1.257 . S
C131 O146 1.240 1_655 S
C131 O147 1.240 . S
C132 Gd121 2.818 . S
C132 C133 1.510 . S
C132 O148 1.249 . S
C132 O149 1.252 . S
C133 C132 1.510 . S
C133 C134 1.404 . S
C133 C135 1.352 . S
C134 C133 1.404 . S
C134 C138 1.389 . S
C134 H156 0.930 . S
C135 C133 1.352 . S
C135 C137 1.374 . S
C135 H157 0.931 . S
C136 C137 1.359 . S
C136 C138 1.364 . S
C137 C135 1.374 . S
C137 C136 1.359 . S
C137 H158 0.931 1_565 S
C138 C134 1.389 . S
C138 C136 1.364 . S
C138 H159 0.931 . S
C139 O150 1.256 . S
C139 O151 1.257 . S
O140 Gd120 2.377 1_455 S
O140 C122 1.240 . S
O141 Gd121 2.395 . S
O141 C122 1.240 . S
O142 Gd120 2.448 . S
O142 C123 1.249 . S
O143 Gd120 2.506 . S
O143 C123 1.252 . S
O144 Gd120 2.435 . S
O144 C130 1.256 1_655 S
O145 Gd120 2.717 1_455 S
O145 Gd121 2.327 . S
O145 C130 1.257 . S
O146 Gd121 2.377 . S
O146 C131 1.240 1_455 S
O147 Gd120 2.395 . S
O147 C131 1.240 . S
O148 Gd121 2.448 . S
O148 C132 1.249 . S
O149 Gd121 2.506 . S
O149 C132 1.252 . S
O150 Gd121 2.435 . S
O150 C139 1.256 . S
O151 Gd120 2.327 1_455 S
O151 Gd121 2.717 . S
O151 C139 1.257 . S
H152 C125 0.930 . S
H153 C126 0.931 . S
H154 C128 0.931 . S
H155 C129 0.931 . S
H156 C134 0.930 . S
H157 C135 0.931 . S
H158 C137 0.931 1_545 S
H159 C138 0.931 . S
C160 C161 1.369 1_655 S
C160 C162 1.419 1_655 S
C160 H164 0.930 . S
C161 C160 1.369 1_455 S
C161 C170 1.429 . S
C162 C160 1.419 1_455 S
C162 C163 1.363 . S
C162 H165 0.929 1_455 S
C163 C162 1.363 . S
C163 C169 1.428 . S
H164 C160 0.930 . S
H165 C162 0.929 1_655 S
S166 N167 1.613 . S
S166 N168 1.610 . S
N167 S166 1.613 . S
N167 C170 1.350 . S
N168 S166 1.610 . S
N168 C169 1.351 . S
C169 C163 1.428 . S
C169 N168 1.351 . S
C169 C170 1.434 . S
C170 C161 1.429 . S
C170 N167 1.350 . S
C170 C169 1.434 . S
C171 C172 1.369 1_565 S
C171 C173 1.419 1_565 S
C171 H175 0.930 . S
C172 C171 1.369 1_545 S
C172 C181 1.429 . S
C173 C171 1.419 1_545 S
C173 C174 1.363 . S
C173 H176 0.929 . S
C174 C173 1.363 . S
C174 C180 1.428 . S
H175 C171 0.930 . S
H176 C173 0.929 . S
S177 N178 1.613 . S
S177 N179 1.610 . S
N178 S177 1.613 . S
N178 C181 1.350 1_655 S
N179 S177 1.610 . S
N179 C180 1.351 1_655 S
C180 C174 1.428 . S
C180 N179 1.351 1_455 S
C180 C181 1.434 . S
C181 C172 1.429 . S
C181 N178 1.350 1_455 S
C181 C180 1.434 . S
C182 C183 1.369 . S
C182 C184 1.419 . S
C182 H186 0.930 1_545 S
C183 C182 1.369 . S
C183 C192 1.429 . S
C184 C182 1.419 . S
C184 C185 1.363 . S
C184 H187 0.929 . S
C185 C184 1.363 . S
C185 C191 1.428 . S
H186 C182 0.930 1_565 S
H187 C184 0.929 . S
S188 N189 1.613 . S
S188 N190 1.610 . S
N189 S188 1.613 . S
N189 C192 1.350 . S
N190 S188 1.610 . S
N190 C191 1.351 . S
C191 C185 1.428 . S
C191 N190 1.351 . S
C191 C192 1.434 . S
C192 C183 1.429 . S
C192 N189 1.350 . S
C192 C191 1.434 . S
C193 C194 1.369 . S
C193 C195 1.419 . S
C193 H197 0.930 . S
C194 C193 1.369 . S
C194 C203 1.429 1_455 S
C195 C193 1.419 . S
C195 C196 1.363 . S
C195 H198 0.929 . S
C196 C195 1.363 . S
C196 C202 1.428 1_455 S
H197 C193 0.930 . S
H198 C195 0.929 . S
S199 N200 1.613 . S
S199 N201 1.610 . S
N200 S199 1.613 . S
N200 C203 1.350 . S
N201 S199 1.610 . S
N201 C202 1.351 . S
C202 C196 1.428 1_655 S
C202 N201 1.351 . S
C202 C203 1.434 . S
C203 C194 1.429 1_655 S
C203 N200 1.350 . S
C203 C202 1.434 . S
C204 C205 1.369 . S
C204 C206 1.419 . S
C204 H208 0.930 . S
C205 C204 1.369 . S
C205 C214 1.429 . S
C206 C204 1.419 . S
C206 C207 1.363 . S
C206 H209 0.929 . S
C207 C206 1.363 . S
C207 C213 1.428 . S
H208 C204 0.930 . S
H209 C206 0.929 . S
S210 N211 1.613 . S
S210 N212 1.610 . S
N211 S210 1.613 . S
N211 C214 1.350 . S
N212 S210 1.610 . S
N212 C213 1.351 . S
C213 C207 1.428 . S
C213 N212 1.351 . S
C213 C214 1.434 . S
C214 C205 1.429 . S
C214 N211 1.350 . S
C214 C213 1.434 . S
C215 C216 1.369 . S
C215 C217 1.403 1_556 S
C215 H219 0.930 . S
C216 C215 1.369 . S
C216 C225 1.429 . S
C217 C215 1.403 1_554 S
C217 C218 1.371 . S
C217 H220 0.937 . S
C218 C217 1.371 . S
C218 C224 1.428 . S
H219 C215 0.930 . S
H220 C217 0.937 . S
S221 N222 1.613 1_554 S
S221 N223 1.610 . S
N222 S221 1.613 1_556 S
N222 C225 1.350 . S
N223 S221 1.610 . S
N223 C224 1.351 . S
C224 C218 1.428 . S
C224 N223 1.351 . S
C224 C225 1.434 1_554 S
C225 C216 1.429 . S
C225 N222 1.350 . S
C225 C224 1.434 1_556 S
C226 C227 1.369 . S
C226 C228 1.419 . S
C226 H230 0.930 . S
C227 C226 1.369 . S
C227 C236 1.429 . S
C228 C226 1.419 . S
C228 C229 1.363 . S
C228 H231 0.929 . S
C229 C228 1.363 . S
C229 C235 1.428 . S
H230 C226 0.930 . S
H231 C228 0.929 . S
S232 N233 1.613 1_545 S
S232 N234 1.610 . S
N233 S232 1.613 1_565 S
N233 C236 1.350 . S
N234 S232 1.610 . S
N234 C235 1.351 1_545 S
C235 C229 1.428 . S
C235 N234 1.351 1_565 S
C235 C236 1.434 . S
C236 C227 1.429 . S
C236 N233 1.350 . S
C236 C235 1.434 . S
C237 C238 1.369 . S
C237 C239 1.419 . S
C237 H241 0.930 . S
C238 C237 1.369 . S
C238 C247 1.429 . S
C239 C237 1.419 . S
C239 C240 1.363 . S
C239 H242 0.929 . S
C240 C239 1.363 . S
C240 C246 1.428 . S
H241 C237 0.930 . S
H242 C239 0.929 . S
S243 N244 1.613 . S
S243 N245 1.610 . S
N244 S243 1.613 . S
N244 C247 1.350 . S
N245 S243 1.610 . S
N245 C246 1.351 . S
C246 C240 1.428 . S
C246 N245 1.351 . S
C246 C247 1.434 . S
C247 C238 1.429 . S
C247 N244 1.350 . S
C247 C246 1.434 . S
C248 C249 1.369 . S
C248 C250 1.419 . S
C248 H252 0.930 . S
C249 C248 1.369 . S
C249 C258 1.429 . S
C250 C248 1.419 . S
C250 C251 1.363 . S
C250 H253 0.929 . S
C251 C250 1.363 . S
C251 C257 1.428 . S
H252 C248 0.930 . S
H253 C250 0.929 . S
S254 N255 1.613 . S
S254 N256 1.610 . S
N255 S254 1.613 . S
N255 C258 1.350 . S
N256 S254 1.610 . S
N256 C257 1.351 . S
C257 C251 1.428 . S
C257 N256 1.351 . S
C257 C258 1.434 . S
C258 C249 1.429 . S
C258 N255 1.350 . S
C258 C257 1.434 . S
C259 C260 1.368 1_565 S
C259 C261 1.419 . S
C259 H263 0.930 1_565 S
C260 C259 1.368 1_545 S
C260 C269 1.428 1_545 S
C261 C259 1.419 . S
C261 C262 1.363 . S
C261 H264 0.929 . S
C262 C261 1.363 . S
C262 C268 1.428 . S
H263 C259 0.930 1_545 S
H264 C261 0.929 . S
S265 N266 1.613 . S
S265 N267 1.610 . S
N266 S265 1.613 . S
N266 C269 1.350 . S
N267 S265 1.610 . S
N267 C268 1.351 . S
C268 C262 1.428 . S
C268 N267 1.351 . S
C268 C269 1.434 . S
C269 C260 1.428 1_565 S
C269 N266 1.350 . S
C269 C268 1.434 . S
C270 C271 1.369 . S
C270 C272 1.419 . S
C270 H274 0.930 . S
C271 C270 1.369 . S
C271 C280 1.429 . S
C272 C270 1.419 . S
C272 C273 1.363 . S
C272 H275 0.929 . S
C273 C272 1.363 . S
C273 C279 1.428 . S
H274 C270 0.930 . S
H275 C272 0.929 . S
S276 N277 1.613 . S
S276 N278 1.610 . S
N277 S276 1.613 . S
N277 C280 1.350 . S
N278 S276 1.610 . S
N278 C279 1.351 . S
C279 C273 1.428 . S
C279 N278 1.351 . S
C279 C280 1.434 . S
C280 C271 1.429 . S
C280 N277 1.350 . S
C280 C279 1.434 . S
C281 C282 1.369 . S
C281 C283 1.419 . S
C281 H285 0.930 . S
C282 C281 1.369 . S
C282 C291 1.429 . S
C283 C281 1.419 . S
C283 C284 1.363 . S
C283 H286 0.929 . S
C284 C283 1.363 . S
C284 C290 1.428 . S
H285 C281 0.930 . S
H286 C283 0.929 . S
S287 N288 1.613 . S
S287 N289 1.610 . S
N288 S287 1.613 . S
N288 C291 1.350 . S
N289 S287 1.610 . S
N289 C290 1.351 . S
C290 C284 1.428 . S
C290 N289 1.351 . S
C290 C291 1.434 . S
C291 C282 1.429 . S
C291 N288 1.350 . S
C291 C290 1.434 . S
C161 C90 1.306 1_455 S
C163 C19 1.299 . S
C172 C130 1.240 1_545 S
C174 C59 1.224 . S
C183 C99 1.331 1_545 S
C185 C10 1.337 . S
C194 C50 1.184 . S
C196 C139 1.192 . S
C205 C56 1.125 . S
C207 C7 1.120 . S
C216 C47 1.656 . S
C218 C91 1.682 . S
C227 C131 2.146 . S
C229 C82 2.094 . S
C238 C122 1.366 . S
C240 C16 1.382 . S
C249 C96 1.123 . S
C251 C127 1.131 . S
C260 C2 1.684 . S
C262 C136 1.656 . S
C271 C42 2.147 . S
C273 C11 2.095 1_556 S
C282 C87 1.380 . S
C284 C51 1.359 . S
