# Generated by pormake.
# Topology upc, (4)-cn, num edge types: 1
# Building blocks:
#     Node 0, Type 0, BuildingBlock: KOZSID_clean_sbu_0, # of connection points: 4
#     Node 1, Type 0, BuildingBlock: KOZSID_clean_sbu_0, # of connection points: 4
#     Node 2, Type 0, BuildingBlock: KOZSID_clean_sbu_0, # of connection points: 4
#     Node 3, Type 0, BuildingBlock: KOZSID_clean_sbu_0, # of connection points: 4
#     Node 4, Type 0, BuildingBlock: KOZSID_clean_sbu_0, # of connection points: 4
#     Node 5, Type 0, BuildingBlock: KOZSID_clean_sbu_0, # of connection points: 4
#     Node 6, Type 0, BuildingBlock: KOZSID_clean_sbu_0, # of connection points: 4
#     Node 7, Type 0, BuildingBlock: KOZSID_clean_sbu_0, # of connection points: 4
#     Node 8, Type 0, BuildingBlock: KOZSID_clean_sbu_0, # of connection points: 4
#     Node 9, Type 0, BuildingBlock: KOZSID_clean_sbu_0, # of connection points: 4
#     Node 10, Type 0, BuildingBlock: KOZSID_clean_sbu_0, # of connection points: 4
#     Node 11, Type 0, BuildingBlock: KOZSID_clean_sbu_0, # of connection points: 4
#     Node 12, Type 0, BuildingBlock: KOZSID_clean_sbu_0, # of connection points: 4
#     Node 13, Type 0, BuildingBlock: KOZSID_clean_sbu_0, # of connection points: 4
#     Node 14, Type 0, BuildingBlock: KOZSID_clean_sbu_0, # of connection points: 4
#     Node 15, Type 0, BuildingBlock: KOZSID_clean_sbu_0, # of connection points: 4
#     Edge 16, Type (0, 0), BuildingBlock: XUDNAN_clean_linker_2, # of connection points: 2
#     Edge 17, Type (0, 0), BuildingBlock: XUDNAN_clean_linker_2, # of connection points: 2
#     Edge 18, Type (0, 0), BuildingBlock: XUDNAN_clean_linker_2, # of connection points: 2
#     Edge 19, Type (0, 0), BuildingBlock: XUDNAN_clean_linker_2, # of connection points: 2
#     Edge 20, Type (0, 0), BuildingBlock: XUDNAN_clean_linker_2, # of connection points: 2
#     Edge 21, Type (0, 0), BuildingBlock: XUDNAN_clean_linker_2, # of connection points: 2
#     Edge 22, Type (0, 0), BuildingBlock: XUDNAN_clean_linker_2, # of connection points: 2
#     Edge 23, Type (0, 0), BuildingBlock: XUDNAN_clean_linker_2, # of connection points: 2
#     Edge 24, Type (0, 0), BuildingBlock: XUDNAN_clean_linker_2, # of connection points: 2
#     Edge 25, Type (0, 0), BuildingBlock: XUDNAN_clean_linker_2, # of connection points: 2
#     Edge 26, Type (0, 0), BuildingBlock: XUDNAN_clean_linker_2, # of connection points: 2
#     Edge 27, Type (0, 0), BuildingBlock: XUDNAN_clean_linker_2, # of connection points: 2
#     Edge 28, Type (0, 0), BuildingBlock: XUDNAN_clean_linker_2, # of connection points: 2
#     Edge 29, Type (0, 0), BuildingBlock: XUDNAN_clean_linker_2, # of connection points: 2
#     Edge 30, Type (0, 0), BuildingBlock: XUDNAN_clean_linker_2, # of connection points: 2
#     Edge 31, Type (0, 0), BuildingBlock: XUDNAN_clean_linker_2, # of connection points: 2
#     Edge 32, Type (0, 0), BuildingBlock: XUDNAN_clean_linker_2, # of connection points: 2
#     Edge 33, Type (0, 0), BuildingBlock: XUDNAN_clean_linker_2, # of connection points: 2
#     Edge 34, Type (0, 0), BuildingBlock: XUDNAN_clean_linker_2, # of connection points: 2
#     Edge 35, Type (0, 0), BuildingBlock: XUDNAN_clean_linker_2, # of connection points: 2
#     Edge 36, Type (0, 0), BuildingBlock: XUDNAN_clean_linker_2, # of connection points: 2
#     Edge 37, Type (0, 0), BuildingBlock: XUDNAN_clean_linker_2, # of connection points: 2
#     Edge 38, Type (0, 0), BuildingBlock: XUDNAN_clean_linker_2, # of connection points: 2
#     Edge 39, Type (0, 0), BuildingBlock: XUDNAN_clean_linker_2, # of connection points: 2
#     Edge 40, Type (0, 0), BuildingBlock: XUDNAN_clean_linker_2, # of connection points: 2
#     Edge 41, Type (0, 0), BuildingBlock: XUDNAN_clean_linker_2, # of connection points: 2
#     Edge 42, Type (0, 0), BuildingBlock: XUDNAN_clean_linker_2, # of connection points: 2
#     Edge 43, Type (0, 0), BuildingBlock: XUDNAN_clean_linker_2, # of connection points: 2
#     Edge 44, Type (0, 0), BuildingBlock: XUDNAN_clean_linker_2, # of connection points: 2
#     Edge 45, Type (0, 0), BuildingBlock: XUDNAN_clean_linker_2, # of connection points: 2
#     Edge 46, Type (0, 0), BuildingBlock: XUDNAN_clean_linker_2, # of connection points: 2
#     Edge 47, Type (0, 0), BuildingBlock: XUDNAN_clean_linker_2, # of connection points: 2
# Relax obj value: 0.176
# Max RMSD: 0.237
# Mean RMSD: 0.232
data_MOF--net-upc--node1-KOZSID_clean_sbu_0--edge1-XUDNAN_clean_linker_2
_symmetry_space_group_name_H-M    P1
_symmetry_Int_Tables_number       1
_symmetry_cell_setting            triclinic
loop_
_symmetry_equiv_pos_as_xyz
'x, y, z'
_cell_length_a     44.808395
_cell_length_b     44.781312
_cell_length_c     45.860625
_cell_angle_alpha  89.884369
_cell_angle_beta   89.947565
_cell_angle_gamma 90.008437
loop_
_atom_site_label
_atom_site_type_symbol
_atom_site_fract_x
_atom_site_fract_y
_atom_site_fract_z
_atom_type_partial_charge
C0 C 0.22121 0.63356 0.13469 0.0
C1 C 0.25131 0.62739 0.13169 0.0
C2 C 0.25481 0.59759 0.13778 0.0
C3 C 0.22671 0.587 0.14412 0.0
N4 N 0.20549 0.60815 0.14182 0.0
Co5 Co 0.16212 0.60176 0.15171 0.0
N6 N 0.1692 0.56368 0.1735 0.0
C7 C 0.19628 0.55098 0.17672 0.0
C8 C 0.19687 0.52959 0.19806 0.0
C9 C 0.1683 0.52827 0.20861 0.0
C10 C 0.15109 0.54786 0.19207 0.0
N11 N 0.11862 0.59506 0.15992 0.0
C12 C 0.10378 0.57204 0.1735 0.0
C13 C 0.07354 0.57319 0.16677 0.0
C14 C 0.06909 0.59814 0.15003 0.0
C15 C 0.09678 0.61056 0.14647 0.0
N16 N 0.15605 0.64196 0.13293 0.0
C17 C 0.12925 0.65391 0.12666 0.0
C18 C 0.131 0.68316 0.11766 0.0
C19 C 0.16076 0.69047 0.11894 0.0
C20 C 0.1757 0.66524 0.12853 0.0
N21 N 0.15495 0.5793 0.11423 0.0
C22 C 0.11903 0.5447 0.07603 0.0
C23 C 0.12201 0.57562 0.07208 0.0
C24 C 0.14056 0.59236 0.09095 0.0
C25 C 0.13795 0.53119 0.09633 0.0
C26 C 0.15622 0.5486 0.11437 0.0
N27 N 0.16752 0.62259 0.18867 0.0
C28 C 0.14751 0.65496 0.2253 0.0
C29 C 0.17468 0.65451 0.24015 0.0
C30 C 0.19795 0.637 0.22955 0.0
C31 C 0.19368 0.62068 0.20404 0.0
C32 C 0.14456 0.6393 0.19946 0.0
H33 H 0.21204 0.60742 0.19653 0.0
H34 H 0.12396 0.64179 0.18782 0.0
H35 H 0.14158 0.61602 0.08734 0.0
H36 H 0.16973 0.53646 0.12952 0.0
C37 C 0.22105 0.5615 0.16101 0.0
C38 C 0.20876 0.66414 0.13197 0.0
C39 C 0.11757 0.54858 0.19238 0.0
C40 C 0.10305 0.63762 0.1321 0.0
H41 H 0.26903 0.64312 0.12706 0.0
H42 H 0.27576 0.58582 0.14018 0.0
H43 H 0.21601 0.51716 0.20581 0.0
H44 H 0.16127 0.51429 0.22656 0.0
H45 H 0.05632 0.55735 0.17242 0.0
H46 H 0.04812 0.60609 0.14126 0.0
H47 H 0.11272 0.6978 0.11189 0.0
H48 H 0.17042 0.71195 0.11359 0.0
H49 H 0.10873 0.58709 0.05583 0.0
H50 H 0.13758 0.50718 0.09932 0.0
H51 H 0.12938 0.66926 0.23237 0.0
H52 H 0.21953 0.63692 0.2402 0.0
C53 C 0.87098 0.20328 0.12426 0.0
C54 C 0.87924 0.23114 0.11389 0.0
C55 C 0.90979 0.23128 0.11222 0.0
C56 C 0.91879 0.20351 0.12151 0.0
N57 N 0.89572 0.18531 0.1282 0.0
Co58 Co 0.89969 0.14481 0.14723 0.0
N59 N 0.94358 0.14903 0.15503 0.0
C60 C 0.96068 0.17197 0.14564 0.0
C61 C 0.98977 0.16994 0.15472 0.0
C62 C 0.99129 0.14421 0.17089 0.0
C63 C 0.96299 0.13162 0.17074 0.0
N64 N 0.90251 0.10477 0.16715 0.0
C65 C 0.92535 0.09116 0.18184 0.0
C66 C 0.91682 0.06312 0.19182 0.0
C67 C 0.88778 0.05909 0.18362 0.0
C68 C 0.8801 0.08465 0.16897 0.0
N69 N 0.85521 0.14134 0.14013 0.0
C70 C 0.8388 0.1165 0.14493 0.0
C71 C 0.8087 0.12092 0.14149 0.0
C72 C 0.80546 0.15053 0.13488 0.0
C73 C 0.83385 0.16279 0.13454 0.0
N74 N 0.91005 0.1247 0.10889 0.0
C75 C 0.9416 0.08618 0.06966 0.0
C76 C 0.91501 0.07722 0.08345 0.0
C77 C 0.89955 0.09672 0.10229 0.0
C78 C 0.94941 0.11632 0.07289 0.0
C79 C 0.9331 0.13507 0.09181 0.0
N80 N 0.8915 0.16378 0.18484 0.0
C81 C 0.8627 0.16611 0.22876 0.0
C82 C 0.87376 0.19477 0.2345 0.0
C83 C 0.896 0.20635 0.21662 0.0
C84 C 0.9049 0.19025 0.1922 0.0
C85 C 0.87165 0.15119 0.20378 0.0
H86 H 0.92145 0.20039 0.17875 0.0
H87 H 0.86108 0.13032 0.19923 0.0
H88 H 0.87969 0.0882 0.11198 0.0
H89 H 0.94047 0.15758 0.09304 0.0
C90 C 0.94802 0.19614 0.13028 0.0
C91 C 0.8392 0.19526 0.13033 0.0
C92 C 0.95567 0.10329 0.18611 0.0
C93 C 0.85155 0.09141 0.15834 0.0
H94 H 0.86467 0.24979 0.10911 0.0
H95 H 0.92385 0.25021 0.10698 0.0
H96 H 1.00763 0.18571 0.15073 0.0
H97 H 1.01097 0.13592 0.1819 0.0
H98 H 0.93018 0.04713 0.20376 0.0
H99 H 0.87379 0.03994 0.18821 0.0
H100 H 0.79097 0.10501 0.14552 0.0
H101 H 0.78443 0.162 0.13202 0.0
H102 H 0.90632 0.05489 0.08033 0.0
H103 H 0.9689 0.1253 0.06202 0.0
H104 H 0.84497 0.15645 0.2418 0.0
H105 H 0.90487 0.22854 0.22029 0.0
C106 C 0.3363 0.87933 0.13392 0.0
C107 C 0.30682 0.88811 0.13122 0.0
C108 C 0.30593 0.91816 0.13728 0.0
C109 C 0.33491 0.92637 0.14321 0.0
N110 N 0.35404 0.90342 0.1406 0.0
Co111 Co 0.39734 0.90518 0.15087 0.0
N112 N 0.39311 0.94145 0.1759 0.0
C113 C 0.36833 0.95839 0.177 0.0
C114 C 0.36926 0.97903 0.19901 0.0
C115 C 0.39667 0.97551 0.21194 0.0
C116 C 0.41182 0.9536 0.19642 0.0
N117 N 0.44067 0.90651 0.16006 0.0
C118 C 0.45693 0.92607 0.17662 0.0
C119 C 0.48693 0.92446 0.16873 0.0
C120 C 0.48959 0.90262 0.14804 0.0
C121 C 0.46117 0.89254 0.14341 0.0
N122 N 0.40007 0.86743 0.12755 0.0
C123 C 0.42554 0.8561 0.11692 0.0
C124 C 0.42174 0.82813 0.10514 0.0
C125 C 0.392 0.82129 0.10888 0.0
C126 C 0.37902 0.84555 0.12265 0.0
N127 N 0.40715 0.93092 0.11606 0.0
C128 C 0.4382 0.96193 0.07085 0.0
C129 C 0.42229 0.93543 0.06509 0.0
C130 C 0.40653 0.92055 0.08785 0.0
C131 C 0.43608 0.97352 0.09892 0.0
C132 C 0.42076 0.95805 0.12081 0.0
N133 N 0.38923 0.8806 0.18494 0.0
C134 C 0.39482 0.83192 0.20564 0.0
C135 C 0.36537 0.83325 0.21601 0.0
C136 C 0.35075 0.86088 0.21564 0.0
C137 C 0.36337 0.88451 0.20026 0.0
C138 C 0.40637 0.85597 0.19002 0.0
H139 H 0.35041 0.90458 0.19797 0.0
H140 H 0.42766 0.85329 0.1794 0.0
H141 H 0.39536 0.89984 0.08281 0.0
H142 H 0.42248 0.96767 0.14204 0.0
C143 C 0.34308 0.95112 0.16022 0.0
C144 C 0.34656 0.84786 0.12993 0.0
C145 C 0.44477 0.94788 0.19845 0.0
C146 C 0.45283 0.86966 0.12403 0.0
H147 H 0.28782 0.87399 0.12654 0.0
H148 H 0.28608 0.93167 0.13987 0.0
H149 H 0.35158 0.99394 0.20582 0.0
H150 H 0.40399 0.98753 0.23098 0.0
H151 H 0.50514 0.93835 0.17606 0.0
H152 H 0.5098 0.89554 0.1371 0.0
H153 H 0.43888 0.81356 0.09653 0.0
H154 H 0.38137 0.80061 0.10265 0.0
H155 H 0.42323 0.92548 0.04361 0.0
H156 H 0.44799 0.99377 0.10457 0.0
H157 H 0.40781 0.81159 0.20713 0.0
H158 H 0.32834 0.86346 0.22409 0.0
C159 C 0.62921 0.32946 0.13462 0.0
C160 C 0.62114 0.30044 0.12779 0.0
C161 C 0.59059 0.29887 0.13031 0.0
C162 C 0.58139 0.32689 0.13866 0.0
N163 N 0.60426 0.34615 0.1412 0.0
Co164 Co 0.60007 0.3881 0.15607 0.0
N165 N 0.56091 0.38061 0.17536 0.0
C166 C 0.54362 0.3567 0.17006 0.0
C167 C 0.5175 0.35708 0.18576 0.0
C168 C 0.51826 0.38305 0.20169 0.0
C169 C 0.54495 0.39726 0.19499 0.0
N170 N 0.59605 0.43034 0.16936 0.0
C171 C 0.57655 0.44369 0.18821 0.0
C172 C 0.58247 0.47408 0.19003 0.0
C173 C 0.60561 0.47994 0.17122 0.0
C174 C 0.6129 0.45293 0.15903 0.0
N175 N 0.64052 0.39403 0.13862 0.0
C176 C 0.6528 0.42075 0.13286 0.0
C177 C 0.68199 0.41848 0.1238 0.0
C178 C 0.68858 0.38845 0.12416 0.0
C179 C 0.66308 0.37379 0.13352 0.0
N180 N 0.57936 0.40122 0.11951 0.0
C181 C 0.55209 0.43183 0.07166 0.0
C182 C 0.57927 0.41602 0.06837 0.0
C183 C 0.59236 0.40074 0.09241 0.0
C184 C 0.53849 0.4301 0.09905 0.0
C185 C 0.55237 0.41549 0.12225 0.0
N186 N 0.61972 0.37687 0.19241 0.0
C187 C 0.65735 0.38852 0.22752 0.0
C188 C 0.66247 0.35805 0.23176 0.0
C189 C 0.64143 0.33772 0.22109 0.0
C190 C 0.61926 0.34799 0.20221 0.0
C191 C 0.63694 0.39737 0.20663 0.0
H192 H 0.60378 0.33195 0.19347 0.0
H193 H 0.63745 0.42048 0.2005 0.0
H194 H 0.61346 0.38953 0.08926 0.0
H195 H 0.54129 0.41747 0.14279 0.0
C196 C 0.55396 0.3334 0.15216 0.0
C197 C 0.66067 0.34046 0.1352 0.0
C198 C 0.55178 0.42851 0.2039 0.0
C199 C 0.63841 0.44699 0.14207 0.0
H200 H 0.63571 0.28197 0.12264 0.0
H201 H 0.57704 0.27893 0.12873 0.0
H202 H 0.49998 0.34045 0.18572 0.0
H203 H 0.50061 0.39116 0.2157 0.0
H204 H 0.57154 0.49043 0.20366 0.0
H205 H 0.61661 0.50118 0.16781 0.0
H206 H 0.69727 0.43658 0.11909 0.0
H207 H 0.70976 0.37845 0.1184 0.0
H208 H 0.59093 0.41617 0.0477 0.0
H209 H 0.5171 0.44053 0.10312 0.0
H210 H 0.67199 0.40519 0.2369 0.0
H211 H 0.64374 0.31394 0.22472 0.0
C212 C 0.19135 0.89092 0.37162 0.0
C213 C 0.22098 0.89839 0.3762 0.0
C214 C 0.22327 0.92861 0.37211 0.0
C215 C 0.19505 0.93822 0.36517 0.0
N216 N 0.17466 0.91609 0.3652 0.0
Co217 Co 0.13138 0.92165 0.3534 0.0
N218 N 0.13736 0.96296 0.33758 0.0
C219 C 0.16347 0.97786 0.33795 0.0
C220 C 0.16211 1.00514 0.32432 0.0
C221 C 0.13345 1.00748 0.31416 0.0
C222 C 0.11879 0.98143 0.32216 0.0
N223 N 0.0879 0.92727 0.34388 0.0
C224 C 0.07294 0.94978 0.32979 0.0
C225 C 0.04272 0.94329 0.32784 0.0
C226 C 0.03858 0.91603 0.34081 0.0
C227 C 0.06635 0.90718 0.34993 0.0
N228 N 0.12669 0.87869 0.36626 0.0
C229 C 0.10051 0.86383 0.36663 0.0
C230 C 0.10344 0.83393 0.37258 0.0
C231 C 0.13347 0.82908 0.37523 0.0
C232 C 0.14745 0.85631 0.37067 0.0
N233 N 0.12118 0.93806 0.39313 0.0
C234 C 0.08624 0.96946 0.43498 0.0
C235 C 0.08289 0.93866 0.43072 0.0
C236 C 0.10099 0.92339 0.41056 0.0
C237 C 0.1103 0.98325 0.42082 0.0
C238 C 0.12755 0.9672 0.40038 0.0
N239 N 0.13948 0.90627 0.31394 0.0
C240 C 0.11974 0.87186 0.27911 0.0
C241 C 0.14741 0.85791 0.27836 0.0
C242 C 0.17238 0.87342 0.28854 0.0
C243 C 0.16782 0.89858 0.30574 0.0
C244 C 0.11632 0.89658 0.29685 0.0
H245 H 0.18715 0.90936 0.31469 0.0
H246 H 0.09411 0.90507 0.29851 0.0
H247 H 0.09694 0.90002 0.40824 0.0
H248 H 0.14487 0.97938 0.3896 0.0
C249 C 0.1885 0.96556 0.35175 0.0
C250 C 0.18066 0.85938 0.37087 0.0
C251 C 0.08698 0.97578 0.31528 0.0
C252 C 0.07385 0.87845 0.35955 0.0
H253 H 0.23944 0.88346 0.38035 0.0
H254 H 0.24365 0.94159 0.37174 0.0
H255 H 0.17985 0.02137 0.32196 0.0
H256 H 0.1243 0.02631 0.30236 0.0
H257 H 0.02557 0.95606 0.31693 0.0
H258 H 0.01803 0.90335 0.34179 0.0
H259 H 0.08589 0.81737 0.37377 0.0
H260 H 0.14396 0.80775 0.37946 0.0
H261 H 0.06551 0.9265 0.44211 0.0
H262 H 0.11461 1.00682 0.42399 0.0
H263 H 0.1002 0.86135 0.26972 0.0
H264 H 0.19462 0.86408 0.28683 0.0
C265 C 0.64841 0.1977 0.37652 0.0
C266 C 0.63877 0.22686 0.37987 0.0
C267 C 0.60849 0.22679 0.37534 0.0
C268 C 0.60096 0.19759 0.36967 0.0
N269 N 0.62457 0.17904 0.37116 0.0
Co270 Co 0.62317 0.13538 0.36125 0.0
N271 N 0.58372 0.13776 0.34058 0.0
C272 C 0.56733 0.16294 0.33853 0.0
C273 C 0.54451 0.16071 0.31882 0.0
C274 C 0.54634 0.13231 0.30787 0.0
C275 C 0.56954 0.11798 0.32235 0.0
N276 N 0.62217 0.09175 0.35251 0.0
C277 C 0.60077 0.0745 0.33954 0.0
C278 C 0.60525 0.04457 0.34653 0.0
C279 C 0.6311 0.04284 0.36228 0.0
C280 C 0.64054 0.07174 0.36524 0.0
N281 N 0.66439 0.13416 0.37926 0.0
C282 C 0.67994 0.10892 0.38435 0.0
C283 C 0.70925 0.114 0.39147 0.0
C284 C 0.71295 0.14435 0.39001 0.0
C285 C 0.68553 0.15639 0.38241 0.0
N286 N 0.60229 0.1252 0.39935 0.0
C287 C 0.56941 0.09079 0.44101 0.0
C288 C 0.60071 0.09113 0.44088 0.0
C289 C 0.61652 0.10918 0.42084 0.0
C290 C 0.55511 0.11095 0.42237 0.0
C291 C 0.57176 0.1279 0.40209 0.0
N292 N 0.64263 0.14417 0.32415 0.0
C293 C 0.68831 0.13917 0.29784 0.0
C294 C 0.68634 0.16926 0.28962 0.0
C295 C 0.65925 0.1841 0.29334 0.0
C296 C 0.63724 0.17071 0.31028 0.0
C297 C 0.66601 0.12695 0.31522 0.0
H298 H 0.61771 0.18366 0.31485 0.0
H299 H 0.66959 0.105 0.32406 0.0
H300 H 0.64029 0.1088 0.4225 0.0
H301 H 0.559 0.14202 0.3881 0.0
C302 C 0.57556 0.18884 0.35391 0.0
C303 C 0.68059 0.18901 0.3778 0.0
C304 C 0.57644 0.08534 0.3199 0.0
C305 C 0.66707 0.08097 0.37873 0.0
H306 H 0.65245 0.24638 0.38373 0.0
H307 H 0.59424 0.24621 0.37346 0.0
H308 H 0.52912 0.17808 0.31222 0.0
H309 H 0.53254 0.124 0.29046 0.0
H310 H 0.59134 0.0257 0.34096 0.0
H311 H 0.64163 0.02287 0.37072 0.0
H312 H 0.7264 0.09749 0.39552 0.0
H313 H 0.73379 0.15601 0.39318 0.0
H314 H 0.61302 0.07695 0.45576 0.0
H315 H 0.53098 0.11236 0.42213 0.0
H316 H 0.70839 0.12633 0.29381 0.0
H317 H 0.65635 0.20704 0.28638 0.0
C318 C 0.31867 0.64975 0.38246 0.0
C319 C 0.2907 0.64167 0.39261 0.0
C320 C 0.29047 0.61112 0.39458 0.0
C321 C 0.3183 0.60196 0.38569 0.0
N322 N 0.3366 0.62493 0.37898 0.0
Co323 Co 0.37739 0.62068 0.3607 0.0
N324 N 0.37296 0.57679 0.35288 0.0
C325 C 0.34944 0.56 0.36133 0.0
C326 C 0.35149 0.53082 0.3525 0.0
C327 C 0.37786 0.52891 0.33747 0.0
C328 C 0.3908 0.55707 0.33808 0.0
N329 N 0.41792 0.61746 0.34194 0.0
C330 C 0.43204 0.59425 0.32831 0.0
C331 C 0.46051 0.60245 0.31938 0.0
C332 C 0.46437 0.63163 0.32725 0.0
C333 C 0.43828 0.63971 0.3407 0.0
N334 N 0.38086 0.66525 0.36747 0.0
C335 C 0.40573 0.68161 0.36276 0.0
C336 C 0.40124 0.71179 0.36559 0.0
C337 C 0.37153 0.71512 0.37161 0.0
C338 C 0.3593 0.68671 0.37225 0.0
N339 N 0.39673 0.6104 0.39947 0.0
C340 C 0.43611 0.57997 0.43878 0.0
C341 C 0.44365 0.60763 0.4262 0.0
C342 C 0.42367 0.62254 0.40737 0.0
C343 C 0.40671 0.57029 0.43436 0.0
C344 C 0.38747 0.586 0.41537 0.0
N345 N 0.35929 0.62895 0.32259 0.0
C346 C 0.35935 0.65673 0.27791 0.0
C347 C 0.33043 0.6468 0.27155 0.0
C348 C 0.31728 0.62574 0.28986 0.0
C349 C 0.33234 0.61672 0.31497 0.0
C350 C 0.37316 0.64779 0.30351 0.0
H351 H 0.32113 0.60099 0.32861 0.0
H352 H 0.39434 0.65756 0.30826 0.0
H353 H 0.43103 0.64334 0.39866 0.0
H354 H 0.36562 0.57709 0.41303 0.0
C355 C 0.32535 0.57278 0.37662 0.0
C356 C 0.32677 0.68141 0.37598 0.0
C357 C 0.41998 0.56386 0.32418 0.0
C358 C 0.43123 0.66852 0.35048 0.0
H359 H 0.27202 0.65633 0.39694 0.0
H360 H 0.27141 0.59716 0.39958 0.0
H361 H 0.33547 0.5131 0.35614 0.0
H362 H 0.38646 0.50904 0.32705 0.0
H363 H 0.47691 0.58878 0.30838 0.0
H364 H 0.48378 0.64544 0.32324 0.0
H365 H 0.41723 0.72946 0.36161 0.0
H366 H 0.35998 0.73618 0.37393 0.0
H367 H 0.46527 0.61758 0.43025 0.0
H368 H 0.39882 0.54979 0.44427 0.0
H369 H 0.37027 0.67356 0.26469 0.0
H370 H 0.29486 0.61774 0.28577 0.0
C371 C 0.8919 0.31821 0.37561 0.0
C372 C 0.89783 0.28853 0.38187 0.0
C373 C 0.92819 0.28488 0.37947 0.0
C374 C 0.93942 0.31241 0.37183 0.0
N375 N 0.91802 0.33334 0.36973 0.0
Co376 Co 0.92506 0.37526 0.35571 0.0
N377 N 0.96404 0.36598 0.33681 0.0
C378 C 0.97849 0.3398 0.33981 0.0
C379 C 1.00102 0.3365 0.31985 0.0
C380 C 1.00134 0.36254 0.30403 0.0
C381 C 0.9799 0.38135 0.31601 0.0
N382 N 0.93159 0.41742 0.34274 0.0
C383 C 0.95422 0.43055 0.32707 0.0
C384 C 0.95341 0.46138 0.33093 0.0
C385 C 0.9293 0.46767 0.34823 0.0
C386 C 0.91695 0.44056 0.35494 0.0
N387 N 0.88476 0.38328 0.37277 0.0
C388 C 0.87437 0.41052 0.37944 0.0
C389 C 0.84506 0.40998 0.38839 0.0
C390 C 0.8364 0.38051 0.38704 0.0
C391 C 0.86087 0.36449 0.37726 0.0
N392 N 0.94579 0.38654 0.39265 0.0
C393 C 0.97259 0.4173 0.44019 0.0
C394 C 0.94449 0.40326 0.44306 0.0
C395 C 0.93167 0.38775 0.41918 0.0
C396 C 0.98761 0.41321 0.41379 0.0
C397 C 0.97401 0.39838 0.39067 0.0
N398 N 0.90569 0.36547 0.3193 0.0
C399 C 0.86642 0.37601 0.28581 0.0
C400 C 0.86845 0.34687 0.27488 0.0
C401 C 0.8917 0.32849 0.28416 0.0
C402 C 0.91034 0.33839 0.30632 0.0
C403 C 0.88531 0.38486 0.30804 0.0
H404 H 0.92701 0.32319 0.31421 0.0
H405 H 0.88178 0.40647 0.31768 0.0
H406 H 0.90982 0.37796 0.42192 0.0
H407 H 0.98637 0.39843 0.37071 0.0
C408 C 0.96679 0.31697 0.35757 0.0
C409 C 0.86124 0.33123 0.37488 0.0
C410 C 0.97817 0.41456 0.3105 0.0
C411 C 0.89101 0.4359 0.3717 0.0
H412 H 0.88187 0.27102 0.38642 0.0
H413 H 0.94021 0.26394 0.38039 0.0
H414 H 0.0146 0.31687 0.31615 0.0
H415 H 0.01593 0.36688 0.28574 0.0
H416 H 0.96928 0.47787 0.32355 0.0
H417 H 0.92209 0.48945 0.35562 0.0
H418 H 0.83114 0.42891 0.39387 0.0
H419 H 0.81461 0.37175 0.39259 0.0
H420 H 0.93192 0.40513 0.46313 0.0
H421 H 1.0098 0.42214 0.41043 0.0
H422 H 0.8485 0.3909 0.27948 0.0
H423 H 0.894 0.30592 0.27598 0.0
C424 C 0.91489 0.35526 0.85255 0.0
C425 C 0.89012 0.36515 0.83706 0.0
C426 C 0.8804 0.39062 0.8504 0.0
C427 C 0.89929 0.39466 0.87353 0.0
N428 N 0.92031 0.37313 0.87586 0.0
Co429 Co 0.94971 0.36873 0.90832 0.0
N430 N 0.93914 0.40874 0.9253 0.0
C431 C 0.91738 0.42729 0.91586 0.0
C432 C 0.91731 0.45446 0.92965 0.0
C433 C 0.94094 0.45353 0.94849 0.0
C434 C 0.95411 0.42574 0.94516 0.0
N435 N 0.9788 0.36435 0.94128 0.0
C436 C 0.98933 0.38496 0.96048 0.0
C437 C 1.01046 0.37266 0.97906 0.0
C438 C 0.01381 0.34354 0.97097 0.0
C439 C 0.99465 0.33965 0.948 0.0
N440 N 0.96185 0.32955 0.89078 0.0
C441 C 0.98233 0.31044 0.90178 0.0
C442 C 0.98991 0.28788 0.88317 0.0
C443 C 0.97333 0.29284 0.85875 0.0
C444 C 0.95566 0.31781 0.86417 0.0
N445 N 0.98063 0.38868 0.88412 0.0
C446 C 0.02126 0.41199 0.84261 0.0
C447 C 0.02937 0.38845 0.86126 0.0
C448 C 1.00897 0.37739 0.88188 0.0
C449 C 0.99293 0.42459 0.8465 0.0
C450 C 0.97319 0.41272 0.86711 0.0
N451 N 0.91734 0.3478 0.93152 0.0
C452 C 0.89507 0.3008 0.94761 0.0
C453 C 0.86635 0.3131 0.94732 0.0
C454 C 0.86409 0.3437 0.94182 0.0
C455 C 0.88965 0.36057 0.935 0.0
C456 C 0.92 0.31835 0.93976 0.0
H457 H 0.88611 0.3838 0.93195 0.0
H458 H 0.94102 0.30726 0.9397 0.0
H459 H 0.01613 0.35917 0.89533 0.0
H460 H 0.95165 0.42285 0.86849 0.0
C461 C 0.89929 0.41942 0.89217 0.0
C462 C 0.93305 0.32939 0.84381 0.0
C463 C 0.98116 0.41666 0.96093 0.0
C464 C 0.99592 0.31574 0.92865 0.0
H465 H 0.88023 0.35523 0.81788 0.0
H466 H 0.86206 0.40478 0.84372 0.0
H467 H 0.90264 0.4732 0.92557 0.0
H468 H 0.94817 0.47152 0.96254 0.0
H469 H 0.02313 0.3839 0.99586 0.0
H470 H 0.02996 0.32776 0.97941 0.0
H471 H 1.00649 0.27062 0.88645 0.0
H472 H 0.97495 0.27971 0.8391 0.0
H473 H 0.05101 0.37786 0.85942 0.0
H474 H 0.98575 0.44348 0.83352 0.0
H475 H 0.89821 0.27737 0.95268 0.0
H476 H 0.84255 0.35465 0.94266 0.0
C477 C 0.16369 0.92847 0.83897 0.0
C478 C 0.15311 0.91218 0.81542 0.0
C479 C 0.12678 0.89943 0.82409 0.0
C480 C 0.12249 0.90895 0.85219 0.0
N481 N 0.14472 0.92654 0.86212 0.0
Co482 Co 0.14466 0.94893 0.89995 0.0
N483 N 0.1039 0.93418 0.91105 0.0
C484 C 0.08857 0.91235 0.89735 0.0
C485 C 0.06051 0.90808 0.90861 0.0
C486 C 0.05762 0.9287 0.9304 0.0
C487 C 0.08424 0.9445 0.93146 0.0
N488 N 0.14348 0.97347 0.93654 0.0
C489 C 0.11996 0.9813 0.95381 0.0
C490 C 0.12864 1.00102 0.97552 0.0
C491 C 0.15832 1.0065 0.97138 0.0
C492 C 0.16612 0.98988 0.94749 0.0
N493 N 0.18587 0.96268 0.89023 0.0
C494 C 0.20454 0.97748 0.90819 0.0
C495 C 0.23245 0.9818 0.89669 0.0
C496 C 0.23138 0.9692 0.86963 0.0
C497 C 0.20259 0.95828 0.866 0.0
N498 N 0.12694 0.98305 0.87816 0.0
C499 C 0.10795 0.0245 0.83543 0.0
C500 C 0.13403 0.02942 0.85168 0.0
C501 C 0.14278 1.00881 0.87327 0.0
C502 C 0.09055 0.99969 0.84269 0.0
C503 C 0.10033 0.97948 0.86382 0.0
N504 N 0.16347 0.91352 0.92053 0.0
C505 C 0.20206 0.89313 0.95242 0.0
C506 C 0.20114 0.86505 0.93867 0.0
C507 C 0.17899 0.86139 0.91743 0.0
C508 C 0.16041 0.88524 0.9093 0.0
C509 C 0.18315 0.91664 0.94329 0.0
H510 H 0.14435 0.88013 0.89306 0.0
H511 H 0.18534 0.93728 0.9547 0.0
H512 H 0.16303 1.01334 0.885 0.0
H513 H 0.08663 0.96025 0.867 0.0
C514 C 0.0978 0.9023 0.86985 0.0
C515 C 0.19162 0.94568 0.83859 0.0
C516 C 0.0892 0.9704 0.95074 0.0
C517 C 0.19402 0.99021 0.93395 0.0
H518 H 0.16303 0.90998 0.79405 0.0
H519 H 0.11218 0.88545 0.8112 0.0
H520 H 0.0432 0.89356 0.90027 0.0
H521 H 0.03755 0.93264 0.94292 0.0
H522 H 0.11488 1.01072 0.99244 0.0
H523 H 0.17235 0.02145 0.98383 0.0
H524 H 0.251 0.99365 0.90637 0.0
H525 H 0.2495 0.96883 0.85402 0.0
H526 H 0.14792 0.04873 0.84738 0.0
H527 H 0.07022 0.99477 0.83087 0.0
H528 H 0.21753 0.89729 0.97006 0.0
H529 H 0.17645 0.84047 0.90595 0.0
C530 C 0.60959 0.176 0.84338 0.0
C531 C 0.63461 0.17257 0.82573 0.0
C532 C 0.65233 0.15137 0.83872 0.0
C533 C 0.63749 0.14324 0.86368 0.0
N534 N 0.61148 0.15788 0.86702 0.0
Co535 Co 0.5856 0.15514 0.90184 0.0
N536 N 0.60289 0.11625 0.91414 0.0
C537 C 0.62881 0.10479 0.90451 0.0
C538 C 0.63355 0.07622 0.91439 0.0
C539 C 0.60912 0.06938 0.9313 0.0
C540 C 0.59082 0.09442 0.93132 0.0
N541 N 0.56035 0.15256 0.93733 0.0
C542 C 0.55265 0.12848 0.9538 0.0
C543 C 0.53462 0.137 0.97697 0.0
C544 C 0.53045 0.16724 0.97444 0.0
C545 C 0.5463 0.17563 0.95012 0.0
N546 N 0.56676 0.19325 0.8894 0.0
C547 C 0.54989 0.21103 0.90635 0.0
C548 C 0.53729 0.23421 0.89115 0.0
C549 C 0.54723 0.23106 0.86303 0.0
C550 C 0.56609 0.20641 0.86269 0.0
N551 N 0.55555 0.13346 0.87901 0.0
C552 C 0.51564 0.11087 0.83681 0.0
C553 C 0.50566 0.12946 0.85963 0.0
C554 C 0.52594 0.14072 0.88023 0.0
C555 C 0.54589 0.10253 0.83718 0.0
C556 C 0.56505 0.1134 0.85863 0.0
N557 N 0.61727 0.17763 0.92319 0.0
C558 C 0.65315 0.2182 0.92091 0.0
C559 C 0.67168 0.2048 0.94178 0.0
C560 C 0.66073 0.17833 0.95488 0.0
C561 C 0.6334 0.16547 0.94566 0.0
C562 C 0.62689 0.20428 0.91169 0.0
H563 H 0.62618 0.14491 0.95579 0.0
H564 H 0.61555 0.21475 0.8938 0.0
H565 H 0.51789 0.15616 0.89646 0.0
H566 H 0.5881 0.10675 0.85762 0.0
C567 C 0.64462 0.11904 0.88195 0.0
C568 C 0.58545 0.19776 0.83794 0.0
C569 C 0.56296 0.09764 0.94878 0.0
C570 C 0.54241 0.20243 0.93482 0.0
H571 H 0.63973 0.18431 0.80571 0.0
H572 H 0.67313 0.14243 0.83049 0.0
H573 H 0.65167 0.06139 0.90858 0.0
H574 H 0.60522 0.04813 0.94181 0.0
H575 H 0.52511 0.12283 0.9937 0.0
H576 H 0.516 0.18105 0.98768 0.0
H577 H 0.52162 0.25065 0.89919 0.0
H578 H 0.54101 0.24539 0.84507 0.0
H579 H 0.48249 0.13595 0.86143 0.0
H580 H 0.55557 0.08873 0.82035 0.0
H581 H 0.65904 0.23922 0.91078 0.0
H582 H 0.67355 0.16678 0.97138 0.0
C583 C 0.36536 0.61717 0.83763 0.0
C584 C 0.37752 0.63738 0.81787 0.0
C585 C 0.39961 0.65262 0.83228 0.0
C586 C 0.40019 0.64069 0.85986 0.0
N587 N 0.38013 0.61856 0.8634 0.0
Co588 Co 0.37503 0.59443 0.89922 0.0
N589 N 0.41417 0.60704 0.91515 0.0
C590 C 0.42989 0.63117 0.90692 0.0
C591 C 0.45732 0.63248 0.9204 0.0
C592 C 0.45886 0.60748 0.93789 0.0
C593 C 0.43229 0.59223 0.93404 0.0
N594 N 0.37058 0.5702 0.93517 0.0
C595 C 0.39206 0.55864 0.95275 0.0
C596 C 0.37956 0.54143 0.97474 0.0
C597 C 0.34918 0.54227 0.97056 0.0
C598 C 0.34485 0.55983 0.94629 0.0
N599 N 0.33581 0.58109 0.88405 0.0
C600 C 0.31368 0.56946 0.90045 0.0
C601 C 0.28829 0.56386 0.88478 0.0
C602 C 0.29467 0.5729 0.85691 0.0
C603 C 0.32394 0.58342 0.85695 0.0
N604 N 0.39451 0.56077 0.8793 0.0
C605 C 0.41463 0.51916 0.83791 0.0
C606 C 0.38962 0.51307 0.85542 0.0
C607 C 0.38025 0.53392 0.87636 0.0
C608 C 0.43074 0.54532 0.84344 0.0
C609 C 0.42029 0.56577 0.86402 0.0
N610 N 0.35474 0.62934 0.9175 0.0
C611 C 0.3189 0.66941 0.91121 0.0
C612 C 0.3261 0.68193 0.93814 0.0
C613 C 0.34825 0.66727 0.95482 0.0
C614 C 0.36206 0.64082 0.94425 0.0
C615 C 0.33336 0.64379 0.90138 0.0
H616 H 0.37891 0.62998 0.95739 0.0
H617 H 0.3274 0.63636 0.87999 0.0
H618 H 0.36042 0.52912 0.88888 0.0
H619 H 0.43211 0.58658 0.86598 0.0
C620 C 0.42195 0.6464 0.88127 0.0
C621 C 0.33789 0.59958 0.83232 0.0
C622 C 0.42418 0.56433 0.94917 0.0
C623 C 0.31879 0.56091 0.92948 0.0
H624 H 0.37086 0.64114 0.79549 0.0
H625 H 0.41411 0.66969 0.82338 0.0
H626 H 0.47504 0.64838 0.91632 0.0
H627 H 0.47753 0.60086 0.95139 0.0
H628 H 0.39111 0.52916 0.99165 0.0
H629 H 0.33249 0.52983 0.98259 0.0
H630 H 0.26765 0.55414 0.89258 0.0
H631 H 0.27896 0.57272 0.83904 0.0
H632 H 0.37681 0.49282 0.8523 0.0
H633 H 0.45016 0.55105 0.8305 0.0
H634 H 0.30273 0.67999 0.89699 0.0
H635 H 0.35479 0.67608 0.97582 0.0
C636 C 0.9133 0.17914 0.66325 0.0
C637 C 0.88949 0.17302 0.6818 0.0
C638 C 0.87289 0.15104 0.66883 0.0
C639 C 0.88716 0.14503 0.64305 0.0
N640 N 0.91199 0.16152 0.63917 0.0
Co641 Co 0.9367 0.16157 0.60317 0.0
N642 N 0.91986 0.12303 0.58934 0.0
C643 C 0.89454 0.11033 0.5991 0.0
C644 C 0.89015 0.08227 0.58788 0.0
C645 C 0.91417 0.07704 0.56999 0.0
C646 C 0.93187 0.10249 0.57079 0.0
N647 N 0.96111 0.16146 0.56698 0.0
C648 C 0.96891 0.13843 0.54931 0.0
C649 C 0.98621 0.14842 0.52614 0.0
C650 C 0.98984 0.17857 0.52988 0.0
C651 C 0.97442 0.18539 0.55489 0.0
N652 N 0.95458 0.19971 0.61653 0.0
C653 C 0.97098 0.21851 0.60006 0.0
C654 C 0.98333 0.24133 0.61584 0.0
C655 C 0.97356 0.23699 0.64382 0.0
C656 C 0.95498 0.2121 0.64347 0.0
N657 N 0.9681 0.13959 0.62421 0.0
C658 C 1.00947 0.11533 0.66411 0.0
C659 C 0.01783 0.13798 0.6444 0.0
C660 C 0.99697 0.14953 0.62449 0.0
C661 C 0.98045 0.10382 0.66172 0.0
C662 C 0.96026 0.11623 0.64188 0.0
N663 N 0.90414 0.18425 0.58352 0.0
C664 C 0.86593 0.22232 0.58824 0.0
C665 C 0.85131 0.21283 0.5629 0.0
C666 C 0.86484 0.18911 0.54739 0.0
C667 C 0.89114 0.17522 0.55799 0.0
C668 C 0.89195 0.20818 0.59784 0.0
H669 H 0.90047 0.15668 0.546 0.0
H670 H 0.90124 0.21612 0.61792 0.0
H671 H 1.00385 0.16746 0.61028 0.0
H672 H 0.93783 0.10762 0.6418 0.0
C673 C 0.87982 0.12217 0.62346 0.0
C674 C 0.93439 0.20413 0.66746 0.0
C675 C 0.95932 0.10722 0.55316 0.0
C676 C 0.97811 0.21146 0.57117 0.0
H677 H 0.88402 0.18381 0.70218 0.0
H678 H 0.85289 0.1406 0.67731 0.0
H679 H 0.87274 0.06657 0.59364 0.0
H680 H 0.91833 0.05645 0.55845 0.0
H681 H 0.99559 0.13528 0.50861 0.0
H682 H 1.00369 0.19333 0.51694 0.0
H683 H 0.99839 0.25853 0.60816 0.0
H684 H 0.97877 0.2512 0.66218 0.0
H685 H 0.03993 0.1477 0.64505 0.0
H686 H 0.97299 0.08563 0.6755 0.0
H687 H 0.85677 0.23988 0.60172 0.0
H688 H 0.8551 0.18099 0.52733 0.0
C689 C 0.35155 0.92664 0.66645 0.0
C690 C 0.35805 0.90536 0.6876 0.0
C691 C 0.37875 0.8863 0.67568 0.0
C692 C 0.38415 0.89707 0.64813 0.0
N693 N 0.36838 0.92192 0.64223 0.0
Co694 Co 0.37075 0.94506 0.60542 0.0
N695 N 0.40944 0.92692 0.59391 0.0
C696 C 0.42098 0.90168 0.60516 0.0
C697 C 0.44959 0.89656 0.59563 0.0
C698 C 0.45633 0.91997 0.57732 0.0
C699 C 0.43121 0.9381 0.57611 0.0
N700 N 0.37302 0.96789 0.56846 0.0
C701 C 0.39701 0.9749 0.55166 0.0
C702 C 0.38824 0.9909 0.52716 0.0
C703 C 0.35786 0.99437 0.52909 0.0
C704 C 0.34969 0.98016 0.55444 0.0
N705 N 0.33253 0.96426 0.61632 0.0
C706 C 0.31357 0.97749 0.59757 0.0
C707 C 0.28791 0.98731 0.61076 0.0
C708 C 0.29083 0.97949 0.63954 0.0
C709 C 0.31837 0.96545 0.64243 0.0
N710 N 0.39259 0.97655 0.62618 0.0
C711 C 0.41711 0.01784 0.66596 0.0
C712 C 0.39633 0.02691 0.64458 0.0
C713 C 0.38423 1.0059 0.62503 0.0
C714 C 0.42624 0.98788 0.66551 0.0
C715 C 0.41431 0.96806 0.64534 0.0
N716 N 0.34833 0.91207 0.58628 0.0
C717 C 0.30851 0.87576 0.591 0.0
C718 C 0.32003 0.85821 0.56841 0.0
C719 C 0.34532 0.86953 0.5536 0.0
C720 C 0.35895 0.89656 0.5627 0.0
C721 C 0.32297 0.90182 0.59973 0.0
H722 H 0.3787 0.90423 0.55142 0.0
H723 H 0.31398 0.91272 0.61859 0.0
H724 H 0.36737 1.01308 0.60973 0.0
H725 H 0.4216 0.94525 0.64658 0.0
C726 C 0.40767 0.88829 0.6297 0.0
C727 C 0.32834 0.95 0.66914 0.0
C728 C 0.4279 0.96519 0.55739 0.0
C729 C 0.32222 0.98333 0.56873 0.0
H730 H 0.34912 0.90376 0.70945 0.0
H731 H 0.38965 0.86774 0.68643 0.0
H732 H 0.46468 0.87921 0.60291 0.0
H733 H 0.47772 0.9235 0.56702 0.0
H734 H 0.40227 0.99928 0.50976 0.0
H735 H 0.34372 1.00708 0.51452 0.0
H736 H 0.26944 0.99904 0.60077 0.0
H737 H 0.27406 0.98287 0.65619 0.0
H738 H 0.38889 0.04984 0.6432 0.0
H739 H 0.44151 0.97889 0.6815 0.0
H740 H 0.28851 0.86924 0.60263 0.0
H741 H 0.35523 0.8572 0.53579 0.0
C742 C 0.59972 0.35576 0.66222 0.0
C743 C 0.62382 0.36002 0.68081 0.0
C744 C 0.64155 0.38153 0.66836 0.0
C745 C 0.62756 0.38917 0.64282 0.0
N746 N 0.6019 0.37414 0.63863 0.0
Co747 Co 0.57713 0.37667 0.60281 0.0
N748 N 0.59601 0.41467 0.58985 0.0
C749 C 0.62208 0.42556 0.59967 0.0
C750 C 0.62825 0.45346 0.5887 0.0
C751 C 0.60457 0.4605 0.57093 0.0
C752 C 0.58522 0.43631 0.57169 0.0
N753 N 0.55265 0.37932 0.56679 0.0
C754 C 0.54589 0.40336 0.5499 0.0
C755 C 0.52772 0.39517 0.52677 0.0
C756 C 0.52251 0.36515 0.52967 0.0
C757 C 0.53787 0.3566 0.55421 0.0
N758 N 0.5571 0.3392 0.61533 0.0
C759 C 0.5397 0.32185 0.59844 0.0
C760 C 0.5263 0.2991 0.61362 0.0
C761 C 0.53643 0.3019 0.64163 0.0
C762 C 0.55617 0.32587 0.64191 0.0
N763 N 0.54714 0.39974 0.62457 0.0
C764 C 0.50756 0.42548 0.66527 0.0
C765 C 0.49787 0.40344 0.64557 0.0
C766 C 0.51783 0.39122 0.6252 0.0
C767 C 0.53704 0.43567 0.66244 0.0
C768 C 0.55636 0.42244 0.64232 0.0
N769 N 0.60846 0.35285 0.58244 0.0
C770 C 0.64324 0.31141 0.58534 0.0
C771 C 0.65929 0.32183 0.56136 0.0
C772 C 0.64878 0.34775 0.54727 0.0
C773 C 0.62313 0.36276 0.55798 0.0
C774 C 0.61836 0.32708 0.59551 0.0
H775 H 0.6157 0.38276 0.54695 0.0
H776 H 0.60803 0.31854 0.6149 0.0
H777 H 0.50987 0.3739 0.61089 0.0
H778 H 0.57918 0.42989 0.64206 0.0
C779 C 0.63613 0.4122 0.62372 0.0
C780 C 0.57728 0.33185 0.66596 0.0
C781 C 0.5573 0.43383 0.55442 0.0
C782 C 0.53284 0.33025 0.56983 0.0
H783 H 0.62866 0.3483 0.7009 0.0
H784 H 0.66209 0.39061 0.67703 0.0
H785 H 0.64672 0.46787 0.59444 0.0
H786 H 0.60174 0.48136 0.55937 0.0
H787 H 0.5188 0.40946 0.50983 0.0
H788 H 0.50766 0.35165 0.51657 0.0
H789 H 0.51041 0.28292 0.60552 0.0
H790 H 0.53069 0.28724 0.65957 0.0
H791 H 0.4754 0.39466 0.64651 0.0
H792 H 0.54559 0.4534 0.67608 0.0
H793 H 0.65037 0.29147 0.59681 0.0
H794 H 0.66033 0.35641 0.52831 0.0
C795 C 0.16674 0.61308 0.6653 0.0
C796 C 0.15393 0.63065 0.68689 0.0
C797 C 0.12649 0.63917 0.67692 0.0
C798 C 0.12375 0.626 0.65012 0.0
N799 N 0.14787 0.60969 0.64235 0.0
Co800 Co 0.15142 0.58394 0.60685 0.0
N801 N 0.10993 0.59397 0.5936 0.0
C802 C 0.09183 0.6151 0.60494 0.0
C803 C 0.06386 0.61526 0.59268 0.0
C804 C 0.06393 0.59239 0.57293 0.0
C805 C 0.09197 0.57947 0.57433 0.0
N806 N 0.15401 0.55674 0.57216 0.0
C807 C 0.13181 0.54532 0.55526 0.0
C808 C 0.14265 0.52434 0.53571 0.0
C809 C 0.17256 0.52192 0.54084 0.0
C810 C 0.17823 0.54133 0.56324 0.0
N811 N 0.19316 0.57428 0.61917 0.0
C812 C 0.21336 0.55849 0.60364 0.0
C813 C 0.24111 0.55765 0.61605 0.0
C814 C 0.23849 0.57383 0.64106 0.0
C815 C 0.20896 0.58326 0.64279 0.0
N816 N 0.13565 0.55016 0.63048 0.0
C817 C 0.11774 0.50799 0.67301 0.0
C818 C 0.14399 0.50392 0.65677 0.0
C819 C 0.15227 0.52494 0.63541 0.0
C820 C 0.09983 0.53253 0.66609 0.0
C821 C 0.10906 0.55307 0.64502 0.0
N822 N 0.16814 0.619 0.58426 0.0
C823 C 0.20889 0.64066 0.55591 0.0
C824 C 0.20257 0.66943 0.56626 0.0
C825 C 0.17695 0.67266 0.58334 0.0
C826 C 0.15997 0.64764 0.59141 0.0
C827 C 0.19146 0.61602 0.56495 0.0
H828 H 0.14083 0.6522 0.60429 0.0
H829 H 0.19786 0.59474 0.55666 0.0
H830 H 0.17264 0.52103 0.6237 0.0
H831 H 0.09481 0.57184 0.64176 0.0
C832 C 0.09895 0.62851 0.63163 0.0
C833 C 0.19694 0.60043 0.66731 0.0
C834 C 0.10007 0.55239 0.55832 0.0
C835 C 0.20512 0.54328 0.57838 0.0
H836 H 0.16329 0.63669 0.70779 0.0
H837 H 0.11034 0.65307 0.68803 0.0
H838 H 0.04486 0.62862 0.59915 0.0
H839 H 0.04509 0.58503 0.56005 0.0
H840 H 0.13012 0.51131 0.52011 0.0
H841 H 0.188 0.50662 0.53055 0.0
H842 H 0.26084 0.54642 0.60798 0.0
H843 H 0.25645 0.57811 0.65623 0.0
H844 H 0.1583 0.48488 0.66081 0.0
H845 H 0.07938 0.53688 0.67795 0.0
H846 H 0.22797 0.63689 0.54187 0.0
H847 H 0.17009 0.69454 0.59084 0.0
H848 H 0.24828 0.6942 0.0915 0.0
H849 H 0.21555 0.69894 0.18008 0.0
H850 H 0.24603 0.74459 0.18803 0.0
H851 H 0.32384 0.71918 0.10705 0.0
H852 H 0.32855 0.74168 0.0748 0.0
H853 H 0.30361 0.71008 0.0744 0.0
H854 H 0.26032 0.74345 0.05762 0.0
H855 H 0.28504 0.77523 0.05731 0.0
H856 H 0.25099 0.7764 0.07823 0.0
H857 H 0.2761 0.7934 0.18596 0.0
H858 H 0.31072 0.83512 0.17664 0.0
H859 H 0.32956 0.79959 0.09086 0.0
C860 C 0.24714 0.70506 0.11253 0.0
C861 C 0.22837 0.69274 0.13512 0.0
C862 C 0.22865 0.70783 0.16224 0.0
C863 C 0.24588 0.73403 0.16692 0.0
C864 C 0.26309 0.74609 0.1443 0.0
C865 C 0.26441 0.7318 0.11766 0.0
C866 C 0.28632 0.74906 0.09768 0.0
C867 C 0.31211 0.7288 0.08792 0.0
C868 C 0.26968 0.76178 0.07113 0.0
C869 C 0.29761 0.77461 0.11751 0.0
C870 C 0.2831 0.7727 0.14405 0.0
C871 C 0.28793 0.7945 0.1654 0.0
C872 C 0.30807 0.81835 0.15995 0.0
C873 C 0.32471 0.82082 0.13366 0.0
C874 C 0.31874 0.79833 0.11191 0.0
H875 H 0.7849 0.20659 0.09784 0.0
H876 H 0.83616 0.2403 0.17042 0.0
H877 H 0.79688 0.27803 0.18012 0.0
H878 H 0.759 0.28058 0.0732 0.0
H879 H 0.72263 0.26789 0.06192 0.0
H880 H 0.75388 0.24256 0.06137 0.0
H881 H 0.72478 0.20576 0.09412 0.0
H882 H 0.69346 0.23103 0.09486 0.0
H883 H 0.71 0.21843 0.12852 0.0
H884 H 0.74904 0.31078 0.18417 0.0
H885 H 0.70419 0.34229 0.17644 0.0
H886 H 0.68246 0.29105 0.09964 0.0
C887 C 0.78781 0.22172 0.11598 0.0
C888 C 0.81408 0.21933 0.13404 0.0
C889 C 0.81655 0.24065 0.15677 0.0
C890 C 0.79407 0.26236 0.16239 0.0
C891 C 0.76848 0.2637 0.14478 0.0
C892 C 0.76548 0.24428 0.12156 0.0
C893 C 0.73636 0.25192 0.10503 0.0
C894 C 0.74338 0.26129 0.0735 0.0
C895 C 0.71487 0.22519 0.10566 0.0
C896 C 0.72342 0.27842 0.12254 0.0
C897 C 0.74231 0.28441 0.14561 0.0
C898 C 0.73498 0.30701 0.16545 0.0
C899 C 0.70896 0.32466 0.16117 0.0
C900 C 0.68882 0.31979 0.13782 0.0
C901 C 0.69657 0.29581 0.11818 0.0
H902 H 0.22999 0.83746 0.40647 0.0
H903 H 0.18019 0.81642 0.32857 0.0
H904 H 0.20999 0.77043 0.32224 0.0
H905 H 0.30281 0.81045 0.37832 0.0
H906 H 0.31509 0.79556 0.41282 0.0
H907 H 0.2896 0.8267 0.41186 0.0
H908 H 0.25252 0.79728 0.44404 0.0
H909 H 0.27783 0.76601 0.44496 0.0
H910 H 0.24005 0.7609 0.43248 0.0
H911 H 0.24515 0.72419 0.32455 0.0
H912 H 0.28319 0.6852 0.33412 0.0
H913 H 0.31456 0.73521 0.40866 0.0
C914 C 0.22548 0.82349 0.38777 0.0
C915 C 0.20177 0.83145 0.36789 0.0
C916 C 0.19727 0.81142 0.34431 0.0
C917 C 0.21443 0.78501 0.34047 0.0
C918 C 0.23716 0.77784 0.36024 0.0
C919 C 0.24298 0.79669 0.3834 0.0
C920 C 0.26925 0.78363 0.40118 0.0
C921 C 0.29576 0.80539 0.40105 0.0
C922 C 0.25932 0.77654 0.43253 0.0
C923 C 0.27713 0.75465 0.38455 0.0
C924 C 0.25804 0.75177 0.36106 0.0
C925 C 0.26021 0.72667 0.34283 0.0
C926 C 0.28213 0.70435 0.34842 0.0
C927 C 0.30276 0.7065 0.37183 0.0
C928 C 0.29978 0.73244 0.39022 0.0
H929 H 0.83568 0.2858 0.41236 0.0
H930 H 0.8183 0.33426 0.33236 0.0
H931 H 0.77183 0.30509 0.32557 0.0
H932 H 0.81041 0.21414 0.39388 0.0
H933 H 0.78907 0.20517 0.426 0.0
H934 H 0.81999 0.23083 0.42808 0.0
H935 H 0.78819 0.27223 0.4494 0.0
H936 H 0.75689 0.24693 0.45006 0.0
H937 H 0.75363 0.2826 0.43207 0.0
H938 H 0.72827 0.2666 0.3243 0.0
H939 H 0.68911 0.22869 0.33269 0.0
H940 H 0.731 0.20454 0.41451 0.0
C941 C 0.82247 0.28996 0.39305 0.0
C942 C 0.832 0.3123 0.37232 0.0
C943 C 0.81261 0.31729 0.34829 0.0
C944 C 0.786 0.30048 0.3441 0.0
C945 C 0.77786 0.27823 0.36416 0.0
C946 C 0.79519 0.27339 0.38866 0.0
C947 C 0.77983 0.24949 0.40791 0.0
C948 C 0.80103 0.22334 0.4143 0.0
C949 C 0.769 0.26365 0.43656 0.0
C950 C 0.7528 0.23976 0.3892 0.0
C951 C 0.75183 0.25731 0.36436 0.0
C952 C 0.72891 0.25315 0.34392 0.0
C953 C 0.70649 0.23121 0.34887 0.0
C954 C 0.70632 0.21249 0.37397 0.0
C955 C 0.7302 0.2174 0.39453 0.0
H956 H 0.81797 0.30575 0.91106 0.0
H957 H 0.8529 0.2777 0.99474 0.0
H958 H 0.8072 0.2475 1.00333 0.0
H959 H 0.74043 0.31052 0.93086 0.0
H960 H 0.72712 0.29549 0.89684 0.0
H961 H 0.76199 0.31546 0.898 0.0
H962 H 0.78909 0.26999 0.87531 0.0
H963 H 0.75427 0.24996 0.87396 0.0
H964 H 0.78588 0.23391 0.89254 0.0
H965 H 0.75529 0.22147 1.00307 0.0
H966 H 0.70582 0.19974 0.99264 0.0
H967 H 0.70807 0.24073 0.90663 0.0
C968 C 0.81593 0.29332 0.93124 0.0
C969 C 0.83897 0.29436 0.95238 0.0
C970 C 0.83559 0.27733 0.97827 0.0
C971 C 0.80962 0.26016 0.98334 0.0
C972 C 0.78727 0.25964 0.96206 0.0
C973 C 0.79048 0.2755 0.93632 0.0
C974 C 0.76396 0.27027 0.91633 0.0
C975 C 0.7474 0.29968 0.91015 0.0
C976 C 0.77389 0.25513 0.88786 0.0
C977 C 0.74509 0.24932 0.93488 0.0
C978 C 0.75866 0.24363 0.96131 0.0
C979 C 0.74476 0.22558 0.98221 0.0
C980 C 0.7165 0.21306 0.97593 0.0
C981 C 0.70211 0.21817 0.94872 0.0
C982 C 0.71728 0.23652 0.92801 0.0
H983 H 0.26668 0.69759 0.93282 0.0
H984 H 0.35172 0.73235 0.9623 0.0
H985 H 0.32859 0.7822 0.96899 0.0
H986 H 0.24519 0.75942 0.89135 0.0
H987 H 0.20612 0.75752 0.90057 0.0
H988 H 0.22852 0.72417 0.90119 0.0
H989 H 0.21341 0.7145 0.9549 0.0
H990 H 0.1907 0.74772 0.95439 0.0
H991 H 0.21926 0.74329 0.98172 0.0
H992 H 0.2966 0.83029 0.96673 0.0
H993 H 0.25943 0.87 0.95887 0.0
H994 H 0.19448 0.80299 0.93311 0.0
C995 C 0.28043 0.71554 0.94113 0.0
C996 C 0.31122 0.71078 0.94702 0.0
C997 C 0.32813 0.73507 0.95796 0.0
C998 C 0.31514 0.76361 0.96162 0.0
C999 C 0.285 0.76767 0.95464 0.0
C1000 C 0.26778 0.74405 0.94507 0.0
C1001 C 0.23619 0.75426 0.93811 0.0
C1002 C 0.22857 0.7485 0.9059 0.0
C1003 C 0.21355 0.73904 0.9585 0.0
C1004 C 0.23839 0.78751 0.9444 0.0
C1005 C 0.26666 0.79486 0.95401 0.0
C1006 C 0.27428 0.82453 0.95971 0.0
C1007 C 0.2527 0.8471 0.95534 0.0
C1008 C 0.22339 0.8403 0.94541 0.0
C1009 C 0.21643 0.8097 0.94033 0.0
H1010 H 0.71859 0.3343 0.57257 0.0
H1011 H 0.66094 0.26946 0.53125 0.0
H1012 H 0.70436 0.23621 0.52307 0.0
H1013 H 0.78602 0.32035 0.52615 0.0
H1014 H 0.81118 0.325 0.55645 0.0
H1015 H 0.77632 0.34506 0.55566 0.0
H1016 H 0.76253 0.32286 0.60608 0.0
H1017 H 0.79717 0.30254 0.60689 0.0
H1018 H 0.76229 0.28289 0.61091 0.0
H1019 H 0.75382 0.20752 0.52407 0.0
H1020 H 0.80375 0.18661 0.53374 0.0
H1021 H 0.83022 0.2708 0.57296 0.0
C1022 C 0.71538 0.31356 0.56088 0.0
C1023 C 0.68643 0.30485 0.55177 0.0
C1024 C 0.68296 0.27693 0.53771 0.0
C1025 C 0.70754 0.25782 0.53312 0.0
C1026 C 0.73572 0.26676 0.5428 0.0
C1027 C 0.73979 0.29413 0.55618 0.0
C1028 C 0.77199 0.29755 0.56623 0.0
C1029 C 0.78728 0.32353 0.55016 0.0
C1030 C 0.77357 0.3017 0.5995 0.0
C1031 C 0.78519 0.26765 0.5571 0.0
C1032 C 0.76399 0.25026 0.54343 0.0
C1033 C 0.77065 0.22122 0.53441 0.0
C1034 C 0.7994 0.20952 0.53985 0.0
C1035 C 0.82162 0.22667 0.55425 0.0
C1036 C 0.81413 0.25648 0.56234 0.0
H1037 H 0.22178 0.71249 0.60466 0.0
H1038 H 0.22876 0.68628 0.514 0.0
H1039 H 0.26035 0.73073 0.50413 0.0
H1040 H 0.21762 0.79134 0.59335 0.0
H1041 H 0.23987 0.80037 0.62485 0.0
H1042 H 0.21815 0.76654 0.62437 0.0
H1043 H 0.26571 0.73557 0.63519 0.0
H1044 H 0.28756 0.76933 0.63577 0.0
H1045 H 0.29775 0.73927 0.61165 0.0
H1046 H 0.29019 0.78085 0.50436 0.0
H1047 H 0.31573 0.82867 0.51503 0.0
H1048 H 0.29152 0.81904 0.60628 0.0
C1049 C 0.22984 0.7161 0.58266 0.0
C1050 C 0.22247 0.69583 0.56007 0.0
C1051 C 0.23407 0.70129 0.53174 0.0
C1052 C 0.25199 0.72661 0.52592 0.0
C1053 C 0.25864 0.74622 0.54872 0.0
C1054 C 0.24808 0.74095 0.57661 0.0
C1055 C 0.25864 0.76493 0.59753 0.0
C1056 C 0.23198 0.78179 0.6108 0.0
C1057 C 0.2786 0.75147 0.62144 0.0
C1058 C 0.27645 0.78487 0.57713 0.0
C1059 C 0.27622 0.77393 0.54901 0.0
C1060 C 0.29063 0.78934 0.52644 0.0
C1061 C 0.30533 0.81655 0.53277 0.0
C1062 C 0.30574 0.82835 0.56151 0.0
C1063 C 0.29133 0.8116 0.58386 0.0
H1064 H 0.97513 0.46818 0.27569 0.0
H1065 H 0.04001 0.4045 0.30856 0.0
H1066 H 0.0779 0.42615 0.27643 0.0
H1067 H 1.00387 0.49002 0.20671 0.0
H1068 H 1.00203 0.5298 0.21232 0.0
H1069 H 0.97671 0.50539 0.23153 0.0
H1070 H 0.99418 0.52692 0.28089 0.0
H1071 H 0.01908 0.55183 0.26179 0.0
H1072 H 0.03341 0.52715 0.28954 0.0
H1073 H 0.1051 0.45063 0.23049 0.0
H1074 H 0.1288 0.48744 0.19832 0.0
H1075 H 0.06014 0.55178 0.22104 0.0
C1076 C 0.99731 0.45878 0.27691 0.0
C1077 C 1.00281 0.43185 0.29324 0.0
C1078 C 0.03308 0.42204 0.29388 0.0
C1079 C 0.05541 0.43496 0.2761 0.0
C1080 C 0.04875 0.46041 0.25977 0.0
C1081 C 0.02116 0.47376 0.26217 0.0
C1082 C 0.02245 0.50506 0.24834 0.0
C1083 C 0.99991 0.50772 0.22324 0.0
C1084 C 0.01696 0.52918 0.27152 0.0
C1085 C 0.05466 0.50644 0.23679 0.0
C1086 C 0.06855 0.47953 0.2421 0.0
C1087 C 0.09555 0.47274 0.22848 0.0
C1088 C 0.10944 0.49441 0.21061 0.0
C1089 C 0.09877 0.52433 0.2086 0.0
C1090 C 0.0702 0.52987 0.22191 0.0
H1091 H 0.95845 0.08432 0.24465 0.0
H1092 H 1.00677 0.07875 0.16303 0.0
H1093 H 0.04479 0.04674 0.18673 0.0
H1094 H 0.0239 0.08628 0.29248 0.0
H1095 H 1.00709 0.06358 0.32054 0.0
H1096 H 0.98398 0.08651 0.29742 0.0
H1097 H 0.95322 0.04002 0.28286 0.0
H1098 H 0.97632 0.01693 0.30584 0.0
H1099 H 0.97204 1.00799 0.26777 0.0
H1100 H 0.07787 0.01382 0.21959 0.0
H1101 H 0.10268 0.98403 0.25809 0.0
H1102 H 0.03424 1.01048 0.31961 0.0
C1103 C 0.97718 0.07654 0.23183 0.0
C1104 C 0.97958 0.08467 0.20176 0.0
C1105 C 1.00442 0.0735 0.18598 0.0
C1106 C 0.02615 0.05507 0.19933 0.0
C1107 C 0.02315 0.04751 0.22884 0.0
C1108 C 0.99926 0.05798 0.24495 0.0
C1109 C 1.00127 0.04622 0.27631 0.0
C1110 C 1.00423 0.0722 0.29797 0.0
C1111 C 0.97409 0.02663 0.28363 0.0
C1112 C 0.0299 0.02755 0.27536 0.0
C1113 C 0.0421 0.0286 0.24768 0.0
C1114 C 0.06837 1.01302 0.24128 0.0
C1115 C 0.08244 0.99608 0.26342 0.0
C1116 C 0.07064 0.99441 0.29211 0.0
C1117 C 0.04389 1.01072 0.29796 0.0
H1118 H 0.51436 0.08121 0.30138 0.0
H1119 H 0.60014 0.03747 0.28956 0.0
H1120 H 0.57477 0.99599 0.2649 0.0
H1121 H 0.46268 0.0234 0.29948 0.0
H1122 H 0.43751 0.03909 0.27291 0.0
H1123 H 0.46017 0.06334 0.29507 0.0
H1124 H 0.4825 0.08813 0.24902 0.0
H1125 H 0.45915 0.06465 0.22675 0.0
H1126 H 0.49898 0.06505 0.22116 0.0
H1127 H 0.53533 0.95397 0.2512 0.0
H1128 H 0.49507 0.92653 0.22656 0.0
H1129 H 0.44505 1.00938 0.21907 0.0
C1130 C 0.52868 0.06417 0.2925 0.0
C1131 C 0.55993 0.06299 0.29948 0.0
C1132 C 0.57614 0.03864 0.28722 0.0
C1133 C 0.56187 0.01481 0.27265 0.0
C1134 C 0.5313 0.01646 0.26719 0.0
C1135 C 0.5155 0.04178 0.27447 0.0
C1136 C 0.48455 0.0406 0.26014 0.0
C1137 C 0.45976 0.04169 0.28329 0.0
C1138 C 0.48109 0.06612 0.23794 0.0
C1139 C 0.48516 1.0101 0.2449 0.0
C1140 C 0.51171 0.99591 0.25101 0.0
C1141 C 0.51538 0.96571 0.24445 0.0
C1142 C 0.49222 0.95026 0.22997 0.0
C1143 C 0.46644 0.96511 0.21895 0.0
C1144 C 0.46327 0.99596 0.22703 0.0
H1145 H 0.51741 0.48098 0.19694 0.0
H1146 H 0.54042 0.41355 0.26091 0.0
H1147 H 0.50919 0.43953 0.29759 0.0
H1148 H 0.5188 0.54407 0.2471 0.0
H1149 H 0.48784 0.56305 0.23017 0.0
H1150 H 0.51138 0.53884 0.20882 0.0
H1151 H 0.4651 0.50844 0.19299 0.0
H1152 H 0.44143 0.5325 0.21436 0.0
H1153 H 0.44087 0.49272 0.22042 0.0
H1154 H 0.47535 0.47405 0.32835 0.0
H1155 H 0.44288 0.51312 0.34967 0.0
H1156 H 0.44164 0.55944 0.2667 0.0
C1157 C 0.51614 0.4718 0.21875 0.0
C1158 C 0.532 0.44509 0.2259 0.0
C1159 C 0.52884 0.43381 0.25467 0.0
C1160 C 0.51107 0.44855 0.27576 0.0
C1161 C 0.49614 0.47491 0.26814 0.0
C1162 C 0.49852 0.48647 0.24026 0.0
C1163 C 0.48036 0.51535 0.23784 0.0
C1164 C 0.50081 0.5419 0.23054 0.0
C1165 C 0.45546 0.51205 0.21504 0.0
C1166 C 0.46737 0.51827 0.26859 0.0
C1167 C 0.47675 0.49462 0.28572 0.0
C1168 C 0.46788 0.49249 0.31494 0.0
C1169 C 0.44922 0.51483 0.32693 0.0
C1170 C 0.43913 0.53943 0.31005 0.0
C1171 C 0.4486 0.54095 0.28033 0.0
H1172 H 0.06205 0.48728 0.68903 0.0
H1173 H 0.15513 0.48516 0.71496 0.0
H1174 H 0.14118 0.45822 0.76008 0.0
H1175 H 0.03245 0.50203 0.75844 0.0
H1176 H 0.99976 0.47901 0.75408 0.0
H1177 H 0.01731 0.49549 0.72261 0.0
H1178 H 0.02294 0.44322 0.69912 0.0
H1179 H 1.00512 0.42658 0.73042 0.0
H1180 H 0.04148 0.41387 0.71906 0.0
H1181 H 0.11614 0.43541 0.80483 0.0
H1182 H 0.0828 0.41667 0.84367 0.0
H1183 H 1.00627 0.43282 0.78777 0.0
C1184 C 0.07959 0.4809 0.70402 0.0
C1185 C 0.10977 0.48835 0.69829 0.0
C1186 C 0.13195 0.47935 0.71852 0.0
C1187 C 0.12419 0.46421 0.74436 0.0
C1188 C 0.09416 0.45794 0.74965 0.0
C1189 C 0.07226 0.46572 0.72984 0.0
C1190 C 0.04152 0.45732 0.74105 0.0
C1191 C 0.0216 0.48512 0.74423 0.0
C1192 C 0.02691 0.43385 0.72123 0.0
C1193 C 0.04943 0.4442 0.77055 0.0
C1194 C 0.07988 0.44464 0.77512 0.0
C1195 C 0.09228 0.43461 0.80126 0.0
C1196 C 0.0731 0.42384 0.82322 0.0
C1197 C 0.04172 0.4231 0.81904 0.0
C1198 C 0.03 0.43333 0.79209 0.0
H1199 H 0.05216 0.04484 0.8195 0.0
H1200 H 0.1449 0.04576 0.79232 0.0
H1201 H 0.13045 0.07084 0.74632 0.0
H1202 H 0.02138 0.02776 0.7512 0.0
H1203 H 0.98894 0.0512 0.75519 0.0
H1204 H 1.00682 0.03583 0.78699 0.0
H1205 H 1.01326 0.08893 0.80841 0.0
H1206 H 0.99507 0.10446 0.77681 0.0
H1207 H 0.03169 0.11733 0.78707 0.0
H1208 H 0.10478 0.09173 0.70089 0.0
H1209 H 0.071 0.10938 0.662 0.0
H1210 H 0.99531 0.09631 0.7199 0.0
C1211 C 0.06952 0.05065 0.80405 0.0
C1212 C 0.09975 0.04336 0.80968 0.0
C1213 C 0.12169 0.05149 0.78883 0.0
C1214 C 0.11365 0.06555 0.76249 0.0
C1215 C 0.08355 0.07167 0.75734 0.0
C1216 C 0.0619 0.06484 0.77778 0.0
C1217 C 0.03106 0.07304 0.76674 0.0
C1218 C 1.01087 0.04531 0.76492 0.0
C1219 C 0.01694 0.09739 0.7859 0.0
C1220 C 0.0386 0.08494 0.73664 0.0
C1221 C 0.06897 0.08404 0.73158 0.0
C1222 C 0.081 0.09292 0.70485 0.0
C1223 C 0.06155 0.10308 0.68285 0.0
C1224 C 0.03025 0.10442 0.68755 0.0
C1225 C 0.01893 0.09528 0.71508 0.0
H1226 H 0.52127 0.06165 0.79993 0.0
H1227 H 0.46372 0.13812 0.81634 0.0
H1228 H 0.4323 0.12325 0.77495 0.0
H1229 H 0.52057 0.07121 0.72191 0.0
H1230 H 0.5225 0.03163 0.71506 0.0
H1231 H 0.53888 0.04687 0.74764 0.0
H1232 H 0.50714 1.01069 0.77914 0.0
H1233 H 0.49062 0.99539 0.74668 0.0
H1234 H 0.46713 1.01039 0.77501 0.0
H1235 H 0.40591 0.09833 0.73135 0.0
H1236 H 0.3893 0.0678 0.68975 0.0
H1237 H 0.4703 0.01478 0.69712 0.0
C1238 C 0.5025 0.0759 0.79495 0.0
C1239 C 0.49544 0.10125 0.81219 0.0
C1240 C 0.46971 0.11817 0.80449 0.0
C1241 C 0.45172 0.1101 0.78059 0.0
C1242 C 0.45992 0.08542 0.76392 0.0
C1243 C 0.48498 0.06888 0.77064 0.0
C1244 C 0.49004 0.04428 0.74858 0.0
C1245 C 0.51975 0.04878 0.73233 0.0
C1246 C 0.48864 1.01337 0.76324 0.0
C1247 C 0.46364 0.04923 0.72856 0.0
C1248 C 0.44623 0.07276 0.73787 0.0
C1249 C 0.41971 0.08015 0.72364 0.0
C1250 C 0.41059 0.06274 0.69967 0.0
C1251 C 0.42818 0.03841 0.68961 0.0
C1252 C 0.45553 0.03244 0.70413 0.0
H1253 H 0.52366 0.44537 0.72029 0.0
H1254 H 0.44603 0.43237 0.66496 0.0
H1255 H 0.41372 0.45075 0.70457 0.0
H1256 H 0.48969 0.4263 0.78892 0.0
H1257 H 0.509 0.45506 0.80884 0.0
H1258 H 0.52593 0.43881 0.77695 0.0
H1259 H 0.53146 0.49134 0.75376 0.0
H1260 H 0.51481 0.50775 0.78567 0.0
H1261 H 0.49903 0.51488 0.75019 0.0
H1262 H 0.38964 0.47168 0.75047 0.0
H1263 H 0.37661 0.4972 0.79652 0.0
H1264 H 0.47022 0.49961 0.82035 0.0
C1265 C 0.49993 0.4466 0.71611 0.0
C1266 C 0.48767 0.43712 0.68913 0.0
C1267 C 0.45625 0.43878 0.68537 0.0
C1268 C 0.43761 0.44939 0.70779 0.0
C1269 C 0.45057 0.45856 0.73393 0.0
C1270 C 0.48106 0.45755 0.73804 0.0
C1271 C 0.48964 0.47017 0.76756 0.0
C1272 C 0.50444 0.44615 0.78669 0.0
C1273 C 0.50993 0.49767 0.76408 0.0
C1274 C 0.45921 0.47874 0.77937 0.0
C1275 C 0.43689 0.47145 0.75984 0.0
C1276 C 0.40696 0.47739 0.7659 0.0
C1277 C 0.39974 0.4917 0.79226 0.0
C1278 C 0.42234 0.5003 0.81217 0.0
C1279 C 0.45242 0.49333 0.80562 0.0
H1280 H 0.21043 0.70119 0.23217 0.0
H1281 H 0.14743 0.66221 0.29274 0.0
H1282 H 0.13702 0.71214 0.3131 0.0
H1283 H 0.23516 0.76926 0.27301 0.0
H1284 H 0.23196 0.79227 0.24085 0.0
H1285 H 0.24211 0.75368 0.23743 0.0
H1286 H 0.19601 0.74311 0.20243 0.0
H1287 H 0.18954 0.78262 0.20441 0.0
H1288 H 0.16028 0.75655 0.21351 0.0
H1289 H 0.12205 0.76527 0.31537 0.0
H1290 H 0.11323 0.8192 0.30904 0.0
H1291 H 0.18467 0.82377 0.24534 0.0
C1292 C 0.19614 0.70305 0.25112 0.0
C1293 C 0.18002 0.67821 0.26135 0.0
C1294 C 0.16038 0.68117 0.28527 0.0
C1295 C 0.15407 0.70945 0.29658 0.0
C1296 C 0.16753 0.7341 0.28344 0.0
C1297 C 0.18868 0.73118 0.26163 0.0
C1298 C 0.1951 0.76078 0.247 0.0
C1299 C 0.22804 0.76953 0.2498 0.0
C1300 C 0.18469 0.76079 0.21497 0.0
C1301 C 0.17536 0.78086 0.26459 0.0
C1302 C 0.15878 0.76498 0.28479 0.0
C1303 C 0.13557 0.77805 0.30029 0.0
C1304 C 0.13033 0.80849 0.29604 0.0
C1305 C 0.14857 0.82537 0.2768 0.0
C1306 C 0.17091 0.81129 0.26051 0.0
H1307 H 0.85737 0.18578 0.29066 0.0
H1308 H 0.84755 0.24632 0.21807 0.0
H1309 H 0.79478 0.25352 0.23027 0.0
H1310 H 0.80013 0.14802 0.27856 0.0
H1311 H 0.78721 0.14065 0.3151 0.0
H1312 H 0.82573 0.14895 0.30889 0.0
H1313 H 0.82299 0.19171 0.34537 0.0
H1314 H 0.7837 0.18567 0.35201 0.0
H1315 H 0.797 0.22179 0.34021 0.0
H1316 H 0.74234 0.24118 0.23953 0.0
H1317 H 0.69518 0.214 0.24894 0.0
H1318 H 0.73891 0.16378 0.31766 0.0
C1319 C 0.84476 0.20278 0.27924 0.0
C1320 C 0.85563 0.2145 0.25286 0.0
C1321 C 0.83897 0.2364 0.23787 0.0
C1322 C 0.80891 0.24055 0.24462 0.0
C1323 C 0.7971 0.22509 0.2683 0.0
C1324 C 0.81481 0.2074 0.28615 0.0
C1325 C 0.79603 0.18807 0.30595 0.0
C1326 C 0.80269 0.15449 0.30182 0.0
C1327 C 0.80011 0.19734 0.33781 0.0
C1328 C 0.76536 0.196 0.29497 0.0
C1329 C 0.76621 0.21781 0.27368 0.0
C1330 C 0.74114 0.2249 0.25696 0.0
C1331 C 0.7146 0.20914 0.26215 0.0
C1332 C 0.71372 0.18637 0.28352 0.0
C1333 C 0.73915 0.1806 0.30066 0.0
H1334 H 0.34369 0.66143 0.21565 0.0
H1335 H 0.27831 0.67459 0.28356 0.0
H1336 H 0.27298 0.72674 0.26941 0.0
H1337 H 0.38221 0.71735 0.23134 0.0
H1338 H 0.39381 0.72964 0.19567 0.0
H1339 H 0.38342 0.69149 0.20124 0.0
H1340 H 0.34554 0.69582 0.16033 0.0
H1341 H 0.35289 0.73502 0.1544 0.0
H1342 H 0.31562 0.72224 0.16245 0.0
H1343 H 0.29079 0.77818 0.26335 0.0
H1344 H 0.31993 0.82412 0.25598 0.0
H1345 H 0.37221 0.77916 0.18944 0.0
C1346 C 0.32623 0.67475 0.22552 0.0
C1347 C 0.31237 0.66478 0.25129 0.0
C1348 C 0.28963 0.68221 0.26407 0.0
C1349 C 0.2865 0.71214 0.25612 0.0
C1350 C 0.30479 0.72331 0.23403 0.0
C1351 C 0.32336 0.7048 0.2179 0.0
C1352 C 0.34544 0.72274 0.20004 0.0
C1353 C 0.37809 0.7148 0.20758 0.0
C1354 C 0.33954 0.71879 0.16735 0.0
C1355 C 0.33783 0.75385 0.21022 0.0
C1356 C 0.31441 0.75383 0.2298 0.0
C1357 C 0.30779 0.77891 0.24663 0.0
C1358 C 0.32483 0.80484 0.24262 0.0
C1359 C 0.34845 0.80544 0.2221 0.0
C1360 C 0.35457 0.77959 0.20555 0.0
H1361 H 0.71421 0.38482 0.21591 0.0
H1362 H 0.67974 0.30827 0.26373 0.0
H1363 H 0.73165 0.29074 0.2714 0.0
H1364 H 0.7798 0.35069 0.17971 0.0
H1365 H 0.79879 0.38529 0.18535 0.0
H1366 H 0.75883 0.38505 0.1811 0.0
H1367 H 0.75878 0.41515 0.2311 0.0
H1368 H 0.79846 0.41074 0.23446 0.0
H1369 H 0.77425 0.39743 0.26304 0.0
H1370 H 0.78635 0.28656 0.27939 0.0
H1371 H 0.83969 0.29532 0.28835 0.0
H1372 H 0.8372 0.37218 0.23083 0.0
C1373 C 0.71723 0.36454 0.22846 0.0
C1374 C 0.69283 0.34813 0.23964 0.0
C1375 C 0.69812 0.3212 0.25499 0.0
C1376 C 0.72741 0.31096 0.25913 0.0
C1377 C 0.75077 0.3276 0.24715 0.0
C1378 C 0.74588 0.35381 0.23211 0.0
C1379 C 0.77452 0.36933 0.22375 0.0
C1380 C 0.77807 0.37272 0.19054 0.0
C1381 C 0.77662 0.39994 0.23901 0.0
C1382 C 0.79662 0.34744 0.23611 0.0
C1383 C 0.78253 0.32373 0.24984 0.0
C1384 C 0.79793 0.30402 0.26768 0.0
C1385 C 0.82831 0.30905 0.27238 0.0
C1386 C 0.84247 0.33427 0.25988 0.0
C1387 C 0.82696 0.35231 0.23992 0.0
H1388 H 0.93364 0.19623 0.72747 0.0
H1389 H 0.92005 0.26306 0.66021 0.0
H1390 H 0.91733 0.30233 0.69774 0.0
H1391 H 0.87754 0.2319 0.77718 0.0
H1392 H 0.89763 0.22091 0.8095 0.0
H1393 H 0.89928 0.19803 0.77724 0.0
H1394 H 0.95701 0.2013 0.77804 0.0
H1395 H 0.95551 0.22449 0.81004 0.0
H1396 H 0.97473 0.23746 0.77788 0.0
H1397 H 0.92624 0.33473 0.74194 0.0
H1398 H 0.93234 0.35732 0.79069 0.0
H1399 H 0.92429 0.26958 0.83023 0.0
C1400 C 0.92967 0.21908 0.72074 0.0
C1401 C 0.92853 0.2268 0.69083 0.0
C1402 C 0.92241 0.25682 0.68292 0.0
C1403 C 0.92061 0.27927 0.70407 0.0
C1404 C 0.92307 0.27114 0.73326 0.0
C1405 C 0.92601 0.24164 0.74173 0.0
C1406 C 0.92591 0.23896 0.77473 0.0
C1407 C 0.89845 0.22141 0.78529 0.0
C1408 C 0.95502 0.22471 0.78581 0.0
C1409 C 0.92391 0.27164 0.78333 0.0
C1410 C 0.92309 0.28983 0.75902 0.0
C1411 C 0.92565 0.32078 0.76122 0.0
C1412 C 0.92904 0.33342 0.789 0.0
C1413 C 0.92862 0.31536 0.8144 0.0
C1414 C 0.92502 0.28408 0.81133 0.0
H1415 H 0.29633 0.90777 0.70084 0.0
H1416 H 0.31833 1.00202 0.69797 0.0
H1417 H 0.28307 1.01135 0.73852 0.0
H1418 H 0.22009 0.91332 0.71937 0.0
H1419 H 0.21989 0.88269 0.74492 0.0
H1420 H 0.24631 0.88307 0.71528 0.0
H1421 H 0.29023 0.87815 0.75164 0.0
H1422 H 0.26391 0.87697 0.78135 0.0
H1423 H 0.2934 0.90436 0.78127 0.0
H1424 H 0.24219 1.01089 0.77634 0.0
H1425 H 0.20652 0.99981 0.81608 0.0
H1426 H 0.21702 0.905 0.8001 0.0
C1427 C 0.29452 0.93021 0.70938 0.0
C1428 C 0.31046 0.95418 0.69648 0.0
C1429 C 0.30653 0.98336 0.70768 0.0
C1430 C 0.28642 0.98887 0.73055 0.0
C1431 C 0.27082 0.96484 0.74253 0.0
C1432 C 0.27533 0.93595 0.73297 0.0
C1433 C 0.25695 0.91397 0.75078 0.0
C1434 C 0.23448 0.89728 0.73142 0.0
C1435 C 0.27734 0.89207 0.76725 0.0
C1436 C 0.24112 0.93504 0.7716 0.0
C1437 C 0.24894 0.96435 0.76593 0.0
C1438 C 0.23631 0.988 0.78129 0.0
C1439 C 0.21597 0.98151 0.80371 0.0
C1440 C 0.20896 0.9516 0.8112 0.0
C1441 C 0.22154 0.92809 0.79464 0.0
H1442 H 0.58723 0.25895 0.82637 0.0
H1443 H 0.58254 0.17252 0.78406 0.0
H1444 H 0.5843 0.19747 0.7359 0.0
H1445 H 0.53444 0.29346 0.77557 0.0
H1446 H 0.55232 0.32948 0.77718 0.0
H1447 H 0.55387 0.30472 0.80815 0.0
H1448 H 0.61157 0.30811 0.80757 0.0
H1449 H 0.61023 0.33246 0.77627 0.0
H1450 H 0.63165 0.29843 0.77484 0.0
H1451 H 0.59095 0.23189 0.69272 0.0
H1452 H 0.5895 0.27283 0.65669 0.0
H1453 H 0.57743 0.33704 0.72636 0.0
C1454 C 0.58558 0.24523 0.80705 0.0
C1455 C 0.58428 0.21364 0.80908 0.0
C1456 C 0.58353 0.19667 0.78306 0.0
C1457 C 0.5846 0.21065 0.75564 0.0
C1458 C 0.5855 0.24176 0.75449 0.0
C1459 C 0.58498 0.25889 0.77947 0.0
C1460 C 0.58323 0.29196 0.77204 0.0
C1461 C 0.55424 0.30572 0.78394 0.0
C1462 C 0.61081 0.30872 0.78336 0.0
C1463 C 0.58306 0.29073 0.73894 0.0
C1464 C 0.58543 0.26156 0.72939 0.0
C1465 C 0.58808 0.25471 0.69991 0.0
C1466 C 0.58712 0.27813 0.67961 0.0
C1467 C 0.58198 0.30799 0.68859 0.0
C1468 C 0.58062 0.31438 0.71879 0.0
H1469 H 0.31369 0.55961 0.7935 0.0
H1470 H 0.31716 0.65398 0.81402 0.0
H1471 H 0.28278 0.66474 0.7733 0.0
H1472 H 0.30461 0.56487 0.71472 0.0
H1473 H 0.27759 0.5351 0.7132 0.0
H1474 H 0.30558 0.53524 0.74138 0.0
H1475 H 0.26408 0.53219 0.78067 0.0
H1476 H 0.23595 0.53229 0.75263 0.0
H1477 H 0.23497 0.55997 0.7811 0.0
H1478 H 0.24893 0.66523 0.72928 0.0
H1479 H 0.2142 0.65493 0.68857 0.0
H1480 H 0.22521 0.55984 0.70275 0.0
C1481 C 0.30763 0.58256 0.78895 0.0
C1482 C 0.31906 0.6061 0.80614 0.0
C1483 C 0.30972 0.63576 0.80035 0.0
C1484 C 0.28994 0.64205 0.77746 0.0
C1485 C 0.27882 0.61833 0.76114 0.0
C1486 C 0.28692 0.58912 0.76691 0.0
C1487 C 0.26951 0.56756 0.74798 0.0
C1488 C 0.29058 0.54964 0.72814 0.0
C1489 C 0.24996 0.54678 0.76672 0.0
C1490 C 0.25062 0.58922 0.73048 0.0
C1491 C 0.25674 0.61843 0.73803 0.0
C1492 C 0.2435 0.64243 0.72357 0.0
C1493 C 0.22364 0.63641 0.70066 0.0
C1494 C 0.21648 0.60664 0.69302 0.0
C1495 C 0.22994 0.58282 0.70847 0.0
H1496 H 0.10717 0.53333 0.01694 0.0
H1497 H 0.07521 0.51502 0.1044 0.0
H1498 H 0.03519 0.48324 0.08434 0.0
H1499 H 0.03361 0.53389 0.98082 0.0
H1500 H 0.04676 0.51515 0.94853 0.0
H1501 H 0.07184 0.53828 0.96932 0.0
H1502 H 0.10843 0.49388 0.97453 0.0
H1503 H 0.08348 0.47067 0.95375 0.0
H1504 H 0.09522 0.45909 0.98961 0.0
H1505 H 0.99919 0.45213 0.05532 0.0
H1506 H 0.97135 0.42188 0.01928 0.0
H1507 H 0.02647 0.45767 0.94993 0.0
C1508 C 0.09147 0.5229 0.03174 0.0
C1509 C 0.0943 0.52686 0.06236 0.0
C1510 C 0.07356 0.51237 0.08098 0.0
C1511 C 0.05065 0.4943 0.06974 0.0
C1512 C 0.0486 0.49051 0.03964 0.0
C1513 C 0.06849 0.50425 0.02081 0.0
C1514 C 0.06197 0.49499 0.98942 0.0
C1515 C 0.05301 0.5222 0.97093 0.0
C1516 C 0.08888 0.47869 0.97605 0.0
C1517 C 0.0356 0.47381 0.99365 0.0
C1518 C 0.02811 0.47189 0.02284 0.0
C1519 C 1.00483 0.45357 0.03241 0.0
C1520 C 0.98904 0.43651 0.01181 0.0
C1521 C 0.99656 0.43753 0.98186 0.0
C1522 C 0.02005 0.45667 0.97267 0.0
H1523 H 0.06511 0.02767 0.95247 0.0
H1524 H 0.05917 0.94118 0.99452 0.0
H1525 H 0.02048 0.96082 0.02794 0.0
H1526 H 0.05684 0.07121 0.01834 0.0
H1527 H 0.03506 0.10033 1.00146 0.0
H1528 H 0.06142 0.07929 0.98007 0.0
H1529 H 0.01949 0.06497 0.94396 0.0
H1530 H 0.99299 0.08599 0.96522 0.0
H1531 H 0.98615 0.04713 0.9575 0.0
H1532 H 0.98275 0.99018 0.05762 0.0
H1533 H 0.95 0.02652 0.08183 0.0
H1534 H 0.9795 0.09515 0.02121 0.0
C1535 C 0.0554 1.01284 0.96857 0.0
C1536 C 0.06478 0.98253 0.97035 0.0
C1537 C 0.05194 0.96413 0.99217 0.0
C1538 C 0.03001 0.9752 0.01139 0.0
C1539 C 0.0211 1.00501 0.00894 0.0
C1540 C 0.03345 0.02365 0.98813 0.0
C1541 C 0.02036 0.05502 0.99074 0.0
C1542 C 0.04488 0.07781 0.99809 0.0
C1543 C 1.00376 0.06379 0.96268 0.0
C1544 C 0.99871 0.05112 0.0162 0.0
C1545 C 0.99953 0.02203 0.02627 0.0
C1546 C 0.98183 1.01294 0.04969 0.0
C1547 C 0.96292 0.0339 0.06322 0.0
C1548 C 0.96138 0.06406 0.05355 0.0
C1549 C 0.97983 0.07253 0.02953 0.0
H1550 H 0.42986 0.99972 0.0225 0.0
H1551 H 0.49804 0.9567 0.07465 0.0
H1552 H 0.53708 0.98465 0.04803 0.0
H1553 H 0.474 1.00229 0.95333 0.0
H1554 H 0.45982 0.03846 0.943 0.0
H1555 H 0.43713 1.01356 0.96459 0.0
H1556 H 0.43123 0.05465 0.00376 0.0
H1557 H 0.45407 0.07956 0.98239 0.0
H1558 H 0.46409 0.07125 0.01958 0.0
H1559 H 0.56859 0.02172 0.02004 0.0
H1560 H 0.59058 0.06139 0.98941 0.0
H1561 H 0.5038 0.07887 0.95147 0.0
C1562 C 0.45306 0.99557 0.02763 0.0
C1563 C 0.46087 0.97539 0.05039 0.0
C1564 C 0.49151 0.97148 0.05704 0.0
C1565 C 0.51387 0.98746 0.04211 0.0
C1566 C 0.50558 1.0075 0.02023 0.0
C1567 C 0.47594 1.01136 0.01263 0.0
C1568 C 0.47334 0.03507 0.98873 0.0
C1569 C 0.46029 0.02153 0.96075 0.0
C1570 C 0.45456 0.06171 0.99925 0.0
C1571 C 0.50596 0.04407 0.9844 0.0
C1572 C 0.5241 0.02796 1.003 0.0
C1573 C 0.55469 0.03372 0.00469 0.0
C1574 C 0.56716 0.05613 0.98682 0.0
C1575 C 0.54947 0.07233 0.96662 0.0
C1576 C 0.51826 0.06622 0.9658 0.0
H1577 H 0.44134 0.55813 0.00701 0.0
H1578 H 0.45892 0.52379 0.92056 0.0
H1579 H 0.49488 0.48732 0.94136 0.0
H1580 H 0.51787 0.55092 0.0344 0.0
H1581 H 0.50605 0.54029 0.07054 0.0
H1582 H 0.48268 0.56404 0.04851 0.0
H1583 H 0.43887 0.52683 0.0547 0.0
H1584 H 0.46215 0.50293 0.07664 0.0
H1585 H 0.44404 0.48828 0.04463 0.0
H1586 H 0.52763 0.45212 0.97306 0.0
H1587 H 0.55385 0.42339 0.01142 0.0
H1588 H 0.51683 0.48292 0.07678 0.0
C1589 C 0.45299 0.54306 0.9925 0.0
C1590 C 0.4473 0.54377 0.9621 0.0
C1591 C 0.46298 0.52368 0.94385 0.0
C1592 C 0.48342 0.50284 0.95553 0.0
C1593 C 0.4883 0.50238 0.98565 0.0
C1594 C 0.47365 0.52221 0.00383 0.0
C1595 C 0.48257 0.51702 0.03542 0.0
C1596 C 0.49823 0.54471 0.04795 0.0
C1597 C 0.45529 0.50824 0.05394 0.0
C1598 C 0.5042 0.491 0.03234 0.0
C1599 C 0.50727 0.48277 1.00351 0.0
C1600 C 0.52546 0.45866 0.99566 0.0
C1601 C 0.54054 0.44248 0.01774 0.0
C1602 C 0.5376 0.45026 0.04762 0.0
C1603 C 0.5194 0.47541 0.05453 0.0
H1604 H 0.09367 1.01231 0.479 0.0
H1605 H 0.02602 0.96711 0.42792 0.0
H1606 H 0.98681 0.99654 0.45244 0.0
H1607 H 0.04975 0.01481 0.54634 0.0
H1608 H 0.0633 0.05105 0.55709 0.0
H1609 H 0.08644 0.02691 0.53526 0.0
H1610 H 0.09164 0.06857 0.49638 0.0
H1611 H 0.06851 0.09281 0.5181 0.0
H1612 H 0.05851 0.08496 0.48084 0.0
H1613 H 0.95483 0.03378 0.47977 0.0
H1614 H 0.93218 0.07211 0.51142 0.0
H1615 H 0.01873 0.09014 0.54959 0.0
C1616 C 0.07059 1.00859 0.47307 0.0
C1617 C 0.06306 0.98715 0.45143 0.0
C1618 C 0.03248 0.98302 0.44452 0.0
C1619 C 1.00998 0.99981 0.45827 0.0
C1620 C 0.01805 0.02062 0.47944 0.0
C1621 C 0.04758 0.02483 0.48716 0.0
C1622 C 0.04987 0.04816 0.51129 0.0
C1623 C 0.06313 0.03441 0.53915 0.0
C1624 C 0.06823 0.07523 0.50103 0.0
C1625 C 0.01714 0.05652 0.51567 0.0
C1626 C 0.99926 0.04058 0.49676 0.0
C1627 C 0.96855 0.04568 0.4953 0.0
C1628 C 0.95572 0.06727 0.51376 0.0
C1629 C 0.97319 0.08309 0.53435 0.0
C1630 C 1.00449 0.07772 0.53489 0.0
H1631 H 0.52305 0.09878 0.48136 0.0
H1632 H 0.57608 0.03041 0.43917 0.0
H1633 H 0.54656 0.99131 0.46415 0.0
H1634 H 0.51721 0.05943 0.55156 0.0
H1635 H 0.47962 0.07182 0.55859 0.0
H1636 H 0.50444 0.09462 0.53705 0.0
H1637 H 0.46601 0.09501 0.49496 0.0
H1638 H 0.44112 0.07217 0.51636 0.0
H1639 H 0.45254 0.06007 0.4806 0.0
H1640 H 0.5077 0.95927 0.49018 0.0
H1641 H 0.46742 0.93705 0.51981 0.0
H1642 H 0.44338 0.02493 0.55138 0.0
C1643 C 0.52851 0.07556 0.47755 0.0
C1644 C 0.55207 0.06777 0.45817 0.0
C1645 C 0.55844 0.03706 0.45397 0.0
C1646 C 0.54163 0.01463 0.46801 0.0
C1647 C 0.51861 0.02296 0.48686 0.0
C1648 C 0.51236 0.05272 0.49211 0.0
C1649 C 0.48698 0.05542 0.51422 0.0
C1650 C 0.49771 0.07127 0.542 0.0
C1651 C 0.46007 0.07163 0.50072 0.0
C1652 C 0.47977 0.02266 0.52027 0.0
C1653 C 0.49802 1.00435 0.50388 0.0
C1654 C 0.49409 0.9734 0.50393 0.0
C1655 C 0.47137 0.96082 0.52137 0.0
C1656 C 0.45324 0.97879 0.53966 0.0
C1657 C 0.45751 1.01031 0.53863 0.0
H1658 H 0.49978 0.45686 0.554 0.0
H1659 H 0.58553 0.46629 0.51129 0.0
H1660 H 0.5646 0.50554 0.47932 0.0
H1661 H 0.4562 0.4647 0.48856 0.0
H1662 H 0.42613 0.4849 0.50565 0.0
H1663 H 0.44826 0.45914 0.52673 0.0
H1664 H 0.46069 0.50107 0.56349 0.0
H1665 H 0.43852 0.52696 0.54258 0.0
H1666 H 0.477 0.53542 0.55049 0.0
H1667 H 0.53387 0.54331 0.45079 0.0
H1668 H 0.4961 0.57487 0.42699 0.0
H1669 H 0.42872 0.54079 0.48651 0.0
C1670 C 0.51426 0.46763 0.53825 0.0
C1671 C 0.54483 0.45924 0.53616 0.0
C1672 C 0.56259 0.47314 0.51443 0.0
C1673 C 0.55072 0.4953 0.49587 0.0
C1674 C 0.52068 0.50324 0.49869 0.0
C1675 C 0.5026 0.4897 0.51924 0.0
C1676 C 0.47069 0.50143 0.51673 0.0
C1677 C 0.44904 0.47603 0.50895 0.0
C1678 C 0.46117 0.51716 0.54501 0.0
C1679 C 0.47363 0.52368 0.49161 0.0
C1680 C 0.50275 0.52441 0.48167 0.0
C1681 C 0.51108 0.54299 0.4586 0.0
C1682 C 0.4893 0.56117 0.4453 0.0
C1683 C 0.45907 0.56102 0.45476 0.0
C1684 C 0.45138 0.54172 0.4784 0.0
H1685 H 1.00824 0.46746 0.43329 0.0
H1686 H 0.96908 0.41142 0.50055 0.0
H1687 H 0.9949 0.44149 0.53815 0.0
H1688 H 0.07996 0.47339 0.4661 0.0
H1689 H 0.08587 0.51139 0.45443 0.0
H1690 H 0.06243 0.487 0.43329 0.0
H1691 H 0.01902 0.52496 0.4372 0.0
H1692 H 0.04233 0.54948 0.45839 0.0
H1693 H 1.00684 0.53733 0.47266 0.0
H1694 H 0.02778 0.47719 0.56871 0.0
H1695 H 0.06429 0.51371 0.5884 0.0
H1696 H 0.08324 0.54455 0.50083 0.0
C1697 C 1.00508 0.46113 0.45586 0.0
C1698 C 0.98655 0.43654 0.46362 0.0
C1699 C 0.98277 0.43008 0.49372 0.0
C1700 C 0.99756 0.44703 0.51531 0.0
C1701 C 0.01616 0.47057 0.50669 0.0
C1702 C 0.01987 0.47756 0.47758 0.0
C1703 C 0.04186 0.50313 0.47369 0.0
C1704 C 0.06914 0.49312 0.45582 0.0
C1705 C 0.02659 0.53033 0.45966 0.0
C1706 C 0.05031 0.5094 0.50514 0.0
C1707 C 0.03509 0.49056 0.52395 0.0
C1708 C 0.03965 0.492 0.55407 0.0
C1709 C 0.06038 0.51283 0.5651 0.0
C1710 C 0.07658 0.53189 0.54617 0.0
C1711 C 0.07114 0.53027 0.51582 0.0
loop_
_geom_bond_atom_site_label_1
_geom_bond_atom_site_label_2
_geom_bond_distance
_geom_bond_site_symmetry_2
_ccdc_geom_bond_type
C0 C1 1.443 . S
C0 N4 1.376 . S
C0 C38 1.389 . S
C1 C0 1.443 . S
C1 C2 1.340 . S
C1 H41 0.951 . S
C2 C1 1.340 . S
C2 C3 1.439 . S
C2 H42 0.950 . S
C3 C2 1.439 . S
C3 N4 1.374 . S
C3 C37 1.395 . S
N4 C0 1.376 . S
N4 C3 1.374 . S
N4 Co5 2.008 . S
Co5 N4 2.008 . S
Co5 N6 1.995 . S
Co5 N11 2.008 . S
Co5 N16 1.995 . S
Co5 N21 2.282 . S
Co5 N27 2.282 . S
N6 Co5 1.995 . S
N6 C7 1.376 . S
N6 C10 1.383 . S
C7 N6 1.376 . S
C7 C8 1.446 . S
C7 C37 1.391 . S
C8 C7 1.446 . S
C8 C9 1.339 . S
C8 H43 0.949 . S
C9 C8 1.339 . S
C9 C10 1.439 . S
C9 H44 0.950 . S
C10 N6 1.383 . S
C10 C9 1.439 . S
C10 C39 1.392 . S
N11 Co5 2.008 . S
N11 C12 1.376 . S
N11 C15 1.374 . S
C12 N11 1.376 . S
C12 C13 1.443 . S
C12 C39 1.389 . S
C13 C12 1.443 . S
C13 C14 1.340 . S
C13 H45 0.951 . S
C14 C13 1.340 . S
C14 C15 1.439 . S
C14 H46 0.950 . S
C15 N11 1.374 . S
C15 C14 1.439 . S
C15 C40 1.395 . S
N16 Co5 1.995 . S
N16 C17 1.376 . S
N16 C20 1.383 . S
C17 N16 1.376 . S
C17 C18 1.446 . S
C17 C40 1.391 . S
C18 C17 1.446 . S
C18 C19 1.339 . S
C18 H47 0.949 . S
C19 C18 1.339 . S
C19 C20 1.439 . S
C19 H48 0.950 . S
C20 N16 1.383 . S
C20 C19 1.439 . S
C20 C38 1.392 . S
N21 Co5 2.282 . S
N21 C24 1.332 . S
N21 C26 1.332 . S
C22 C23 1.386 . S
C22 C25 1.388 . S
C23 C22 1.386 . S
C23 C24 1.382 . S
C23 H49 0.950 . S
C24 N21 1.332 . S
C24 C23 1.382 . S
C24 H35 0.952 . S
C25 C22 1.388 . S
C25 C26 1.382 . S
C25 H50 0.950 . S
C26 N21 1.332 . S
C26 C25 1.382 . S
C26 H36 0.948 . S
N27 Co5 2.282 . S
N27 C31 1.332 . S
N27 C32 1.332 . S
C28 C29 1.388 . S
C28 C32 1.382 . S
C28 H51 0.950 . S
C29 C28 1.388 . S
C29 C30 1.386 . S
C30 C29 1.386 . S
C30 C31 1.382 . S
C30 H52 0.950 . S
C31 N27 1.332 . S
C31 C30 1.382 . S
C31 H33 0.952 . S
C32 N27 1.332 . S
C32 C28 1.382 . S
C32 H34 0.948 . S
H33 C31 0.952 . S
H34 C32 0.948 . S
H35 C24 0.952 . S
H36 C26 0.948 . S
C37 C3 1.395 . S
C37 C7 1.391 . S
C38 C0 1.389 . S
C38 C20 1.392 . S
C39 C10 1.392 . S
C39 C12 1.389 . S
C40 C15 1.395 . S
C40 C17 1.391 . S
H41 C1 0.951 . S
H42 C2 0.950 . S
H43 C8 0.949 . S
H44 C9 0.950 . S
H45 C13 0.951 . S
H46 C14 0.950 . S
H47 C18 0.949 . S
H48 C19 0.950 . S
H49 C23 0.950 . S
H50 C25 0.950 . S
H51 C28 0.950 . S
H52 C30 0.950 . S
C53 C54 1.443 . S
C53 N57 1.376 . S
C53 C91 1.389 . S
C54 C53 1.443 . S
C54 C55 1.340 . S
C54 H94 0.951 . S
C55 C54 1.340 . S
C55 C56 1.439 . S
C55 H95 0.950 . S
C56 C55 1.439 . S
C56 N57 1.374 . S
C56 C90 1.395 . S
N57 C53 1.376 . S
N57 C56 1.374 . S
N57 Co58 2.008 . S
Co58 N57 2.008 . S
Co58 N59 1.995 . S
Co58 N64 2.008 . S
Co58 N69 1.995 . S
Co58 N74 2.282 . S
Co58 N80 2.282 . S
N59 Co58 1.995 . S
N59 C60 1.376 . S
N59 C63 1.383 . S
C60 N59 1.376 . S
C60 C61 1.446 . S
C60 C90 1.391 . S
C61 C60 1.446 . S
C61 C62 1.339 . S
C61 H96 0.949 . S
C62 C61 1.339 . S
C62 C63 1.439 . S
C62 H97 0.950 . S
C63 N59 1.383 . S
C63 C62 1.439 . S
C63 C92 1.392 . S
N64 Co58 2.008 . S
N64 C65 1.376 . S
N64 C68 1.374 . S
C65 N64 1.376 . S
C65 C66 1.443 . S
C65 C92 1.389 . S
C66 C65 1.443 . S
C66 C67 1.340 . S
C66 H98 0.951 . S
C67 C66 1.340 . S
C67 C68 1.439 . S
C67 H99 0.950 . S
C68 N64 1.374 . S
C68 C67 1.439 . S
C68 C93 1.395 . S
N69 Co58 1.995 . S
N69 C70 1.376 . S
N69 C73 1.383 . S
C70 N69 1.376 . S
C70 C71 1.446 . S
C70 C93 1.391 . S
C71 C70 1.446 . S
C71 C72 1.339 . S
C71 H100 0.949 . S
C72 C71 1.339 . S
C72 C73 1.439 . S
C72 H101 0.950 . S
C73 N69 1.383 . S
C73 C72 1.439 . S
C73 C91 1.392 . S
N74 Co58 2.282 . S
N74 C77 1.332 . S
N74 C79 1.332 . S
C75 C76 1.386 . S
C75 C78 1.388 . S
C76 C75 1.386 . S
C76 C77 1.382 . S
C76 H102 0.950 . S
C77 N74 1.332 . S
C77 C76 1.382 . S
C77 H88 0.952 . S
C78 C75 1.388 . S
C78 C79 1.382 . S
C78 H103 0.950 1_655 S
C79 N74 1.332 . S
C79 C78 1.382 . S
C79 H89 0.948 . S
N80 Co58 2.282 . S
N80 C84 1.332 . S
N80 C85 1.332 . S
C81 C82 1.388 . S
C81 C85 1.382 . S
C81 H104 0.950 . S
C82 C81 1.388 . S
C82 C83 1.386 . S
C83 C82 1.386 . S
C83 C84 1.382 . S
C83 H105 0.950 . S
C84 N80 1.332 . S
C84 C83 1.382 . S
C84 H86 0.952 . S
C85 N80 1.332 . S
C85 C81 1.382 . S
C85 H87 0.948 . S
H86 C84 0.952 . S
H87 C85 0.948 . S
H88 C77 0.952 . S
H89 C79 0.948 . S
C90 C56 1.395 . S
C90 C60 1.391 . S
C91 C53 1.389 . S
C91 C73 1.392 . S
C92 C63 1.392 . S
C92 C65 1.389 . S
C93 C68 1.395 . S
C93 C70 1.391 . S
H94 C54 0.951 . S
H95 C55 0.950 . S
H96 C61 0.949 . S
H97 C62 0.950 . S
H98 C66 0.951 . S
H99 C67 0.950 . S
H100 C71 0.949 . S
H101 C72 0.950 . S
H102 C76 0.950 . S
H103 C78 0.950 1_455 S
H104 C81 0.950 . S
H105 C83 0.950 . S
C106 C107 1.443 . S
C106 N110 1.376 . S
C106 C144 1.389 . S
C107 C106 1.443 . S
C107 C108 1.340 . S
C107 H147 0.951 . S
C108 C107 1.340 . S
C108 C109 1.439 . S
C108 H148 0.950 . S
C109 C108 1.439 . S
C109 N110 1.374 . S
C109 C143 1.395 . S
N110 C106 1.376 . S
N110 C109 1.374 . S
N110 Co111 2.008 . S
Co111 N110 2.008 . S
Co111 N112 1.995 . S
Co111 N117 2.008 . S
Co111 N122 1.995 . S
Co111 N127 2.282 . S
Co111 N133 2.282 . S
N112 Co111 1.995 . S
N112 C113 1.376 . S
N112 C116 1.383 . S
C113 N112 1.376 . S
C113 C114 1.446 . S
C113 C143 1.391 . S
C114 C113 1.446 . S
C114 C115 1.339 . S
C114 H149 0.949 . S
C115 C114 1.339 . S
C115 C116 1.439 . S
C115 H150 0.950 . S
C116 N112 1.383 . S
C116 C115 1.439 . S
C116 C145 1.392 . S
N117 Co111 2.008 . S
N117 C118 1.376 . S
N117 C121 1.374 . S
C118 N117 1.376 . S
C118 C119 1.443 . S
C118 C145 1.389 . S
C119 C118 1.443 . S
C119 C120 1.340 . S
C119 H151 0.951 . S
C120 C119 1.340 . S
C120 C121 1.439 . S
C120 H152 0.950 . S
C121 N117 1.374 . S
C121 C120 1.439 . S
C121 C146 1.395 . S
N122 Co111 1.995 . S
N122 C123 1.376 . S
N122 C126 1.383 . S
C123 N122 1.376 . S
C123 C124 1.446 . S
C123 C146 1.391 . S
C124 C123 1.446 . S
C124 C125 1.339 . S
C124 H153 0.949 . S
C125 C124 1.339 . S
C125 C126 1.439 . S
C125 H154 0.950 . S
C126 N122 1.383 . S
C126 C125 1.439 . S
C126 C144 1.392 . S
N127 Co111 2.282 . S
N127 C130 1.332 . S
N127 C132 1.332 . S
C128 C129 1.386 . S
C128 C131 1.388 . S
C129 C128 1.386 . S
C129 C130 1.382 . S
C129 H155 0.950 . S
C130 N127 1.332 . S
C130 C129 1.382 . S
C130 H141 0.952 . S
C131 C128 1.388 . S
C131 C132 1.382 . S
C131 H156 0.950 1_565 S
C132 N127 1.332 . S
C132 C131 1.382 . S
C132 H142 0.948 . S
N133 Co111 2.282 . S
N133 C137 1.332 . S
N133 C138 1.332 . S
C134 C135 1.388 . S
C134 C138 1.382 . S
C134 H157 0.950 . S
C135 C134 1.388 . S
C135 C136 1.386 . S
C136 C135 1.386 . S
C136 C137 1.382 . S
C136 H158 0.950 . S
C137 N133 1.332 . S
C137 C136 1.382 . S
C137 H139 0.952 . S
C138 N133 1.332 . S
C138 C134 1.382 . S
C138 H140 0.948 . S
H139 C137 0.952 . S
H140 C138 0.948 . S
H141 C130 0.952 . S
H142 C132 0.948 . S
C143 C109 1.395 . S
C143 C113 1.391 . S
C144 C106 1.389 . S
C144 C126 1.392 . S
C145 C116 1.392 . S
C145 C118 1.389 . S
C146 C121 1.395 . S
C146 C123 1.391 . S
H147 C107 0.951 . S
H148 C108 0.950 . S
H149 C114 0.949 . S
H150 C115 0.950 . S
H151 C119 0.951 . S
H152 C120 0.950 . S
H153 C124 0.949 . S
H154 C125 0.950 . S
H155 C129 0.950 . S
H156 C131 0.950 1_545 S
H157 C134 0.950 . S
H158 C136 0.950 . S
C159 C160 1.443 . S
C159 N163 1.376 . S
C159 C197 1.389 . S
C160 C159 1.443 . S
C160 C161 1.340 . S
C160 H200 0.951 . S
C161 C160 1.340 . S
C161 C162 1.439 . S
C161 H201 0.950 . S
C162 C161 1.439 . S
C162 N163 1.374 . S
C162 C196 1.395 . S
N163 C159 1.376 . S
N163 C162 1.374 . S
N163 Co164 2.008 . S
Co164 N163 2.008 . S
Co164 N165 1.995 . S
Co164 N170 2.008 . S
Co164 N175 1.995 . S
Co164 N180 2.282 . S
Co164 N186 2.282 . S
N165 Co164 1.995 . S
N165 C166 1.376 . S
N165 C169 1.383 . S
C166 N165 1.376 . S
C166 C167 1.446 . S
C166 C196 1.391 . S
C167 C166 1.446 . S
C167 C168 1.339 . S
C167 H202 0.949 . S
C168 C167 1.339 . S
C168 C169 1.439 . S
C168 H203 0.950 . S
C169 N165 1.383 . S
C169 C168 1.439 . S
C169 C198 1.392 . S
N170 Co164 2.008 . S
N170 C171 1.376 . S
N170 C174 1.374 . S
C171 N170 1.376 . S
C171 C172 1.443 . S
C171 C198 1.389 . S
C172 C171 1.443 . S
C172 C173 1.340 . S
C172 H204 0.951 . S
C173 C172 1.340 . S
C173 C174 1.439 . S
C173 H205 0.950 . S
C174 N170 1.374 . S
C174 C173 1.439 . S
C174 C199 1.395 . S
N175 Co164 1.995 . S
N175 C176 1.376 . S
N175 C179 1.383 . S
C176 N175 1.376 . S
C176 C177 1.446 . S
C176 C199 1.391 . S
C177 C176 1.446 . S
C177 C178 1.339 . S
C177 H206 0.949 . S
C178 C177 1.339 . S
C178 C179 1.439 . S
C178 H207 0.950 . S
C179 N175 1.383 . S
C179 C178 1.439 . S
C179 C197 1.392 . S
N180 Co164 2.282 . S
N180 C183 1.332 . S
N180 C185 1.332 . S
C181 C182 1.386 . S
C181 C184 1.388 . S
C182 C181 1.386 . S
C182 C183 1.382 . S
C182 H208 0.950 . S
C183 N180 1.332 . S
C183 C182 1.382 . S
C183 H194 0.952 . S
C184 C181 1.388 . S
C184 C185 1.382 . S
C184 H209 0.950 . S
C185 N180 1.332 . S
C185 C184 1.382 . S
C185 H195 0.948 . S
N186 Co164 2.282 . S
N186 C190 1.332 . S
N186 C191 1.332 . S
C187 C188 1.388 . S
C187 C191 1.382 . S
C187 H210 0.950 . S
C188 C187 1.388 . S
C188 C189 1.386 . S
C189 C188 1.386 . S
C189 C190 1.382 . S
C189 H211 0.950 . S
C190 N186 1.332 . S
C190 C189 1.382 . S
C190 H192 0.952 . S
C191 N186 1.332 . S
C191 C187 1.382 . S
C191 H193 0.948 . S
H192 C190 0.952 . S
H193 C191 0.948 . S
H194 C183 0.952 . S
H195 C185 0.948 . S
C196 C162 1.395 . S
C196 C166 1.391 . S
C197 C159 1.389 . S
C197 C179 1.392 . S
C198 C169 1.392 . S
C198 C171 1.389 . S
C199 C174 1.395 . S
C199 C176 1.391 . S
H200 C160 0.951 . S
H201 C161 0.950 . S
H202 C167 0.949 . S
H203 C168 0.950 . S
H204 C172 0.951 . S
H205 C173 0.950 . S
H206 C177 0.949 . S
H207 C178 0.950 . S
H208 C182 0.950 . S
H209 C184 0.950 . S
H210 C187 0.950 . S
H211 C189 0.950 . S
C212 C213 1.443 . S
C212 N216 1.376 . S
C212 C250 1.389 . S
C213 C212 1.443 . S
C213 C214 1.340 . S
C213 H253 0.951 . S
C214 C213 1.340 . S
C214 C215 1.439 . S
C214 H254 0.950 . S
C215 C214 1.439 . S
C215 N216 1.374 . S
C215 C249 1.395 . S
N216 C212 1.376 . S
N216 C215 1.374 . S
N216 Co217 2.008 . S
Co217 N216 2.008 . S
Co217 N218 1.995 . S
Co217 N223 2.008 . S
Co217 N228 1.995 . S
Co217 N233 2.282 . S
Co217 N239 2.282 . S
N218 Co217 1.995 . S
N218 C219 1.376 . S
N218 C222 1.383 . S
C219 N218 1.376 . S
C219 C220 1.446 . S
C219 C249 1.391 . S
C220 C219 1.446 . S
C220 C221 1.339 . S
C220 H255 0.949 . S
C221 C220 1.339 . S
C221 C222 1.439 . S
C221 H256 0.950 . S
C222 N218 1.383 . S
C222 C221 1.439 . S
C222 C251 1.392 . S
N223 Co217 2.008 . S
N223 C224 1.376 . S
N223 C227 1.374 . S
C224 N223 1.376 . S
C224 C225 1.443 . S
C224 C251 1.389 . S
C225 C224 1.443 . S
C225 C226 1.340 . S
C225 H257 0.951 . S
C226 C225 1.340 . S
C226 C227 1.439 . S
C226 H258 0.950 . S
C227 N223 1.374 . S
C227 C226 1.439 . S
C227 C252 1.395 . S
N228 Co217 1.995 . S
N228 C229 1.376 . S
N228 C232 1.383 . S
C229 N228 1.376 . S
C229 C230 1.446 . S
C229 C252 1.391 . S
C230 C229 1.446 . S
C230 C231 1.339 . S
C230 H259 0.949 . S
C231 C230 1.339 . S
C231 C232 1.439 . S
C231 H260 0.950 . S
C232 N228 1.383 . S
C232 C231 1.439 . S
C232 C250 1.392 . S
N233 Co217 2.282 . S
N233 C236 1.332 . S
N233 C238 1.332 . S
C234 C235 1.386 . S
C234 C237 1.388 . S
C235 C234 1.386 . S
C235 C236 1.382 . S
C235 H261 0.950 . S
C236 N233 1.332 . S
C236 C235 1.382 . S
C236 H247 0.952 . S
C237 C234 1.388 . S
C237 C238 1.382 . S
C237 H262 0.950 1_565 S
C238 N233 1.332 . S
C238 C237 1.382 . S
C238 H248 0.948 . S
N239 Co217 2.282 . S
N239 C243 1.332 . S
N239 C244 1.332 . S
C240 C241 1.388 . S
C240 C244 1.382 . S
C240 H263 0.950 . S
C241 C240 1.388 . S
C241 C242 1.386 . S
C242 C241 1.386 . S
C242 C243 1.382 . S
C242 H264 0.950 . S
C243 N239 1.332 . S
C243 C242 1.382 . S
C243 H245 0.952 . S
C244 N239 1.332 . S
C244 C240 1.382 . S
C244 H246 0.948 . S
H245 C243 0.952 . S
H246 C244 0.948 . S
H247 C236 0.952 . S
H248 C238 0.948 . S
C249 C215 1.395 . S
C249 C219 1.391 . S
C250 C212 1.389 . S
C250 C232 1.392 . S
C251 C222 1.392 . S
C251 C224 1.389 . S
C252 C227 1.395 . S
C252 C229 1.391 . S
H253 C213 0.951 . S
H254 C214 0.950 . S
H255 C220 0.949 . S
H256 C221 0.950 . S
H257 C225 0.951 . S
H258 C226 0.950 . S
H259 C230 0.949 . S
H260 C231 0.950 . S
H261 C235 0.950 . S
H262 C237 0.950 1_545 S
H263 C240 0.950 . S
H264 C242 0.950 . S
C265 C266 1.443 . S
C265 N269 1.376 . S
C265 C303 1.389 . S
C266 C265 1.443 . S
C266 C267 1.340 . S
C266 H306 0.951 . S
C267 C266 1.340 . S
C267 C268 1.439 . S
C267 H307 0.950 . S
C268 C267 1.439 . S
C268 N269 1.374 . S
C268 C302 1.395 . S
N269 C265 1.376 . S
N269 C268 1.374 . S
N269 Co270 2.008 . S
Co270 N269 2.008 . S
Co270 N271 1.995 . S
Co270 N276 2.008 . S
Co270 N281 1.995 . S
Co270 N286 2.282 . S
Co270 N292 2.282 . S
N271 Co270 1.995 . S
N271 C272 1.376 . S
N271 C275 1.383 . S
C272 N271 1.376 . S
C272 C273 1.446 . S
C272 C302 1.391 . S
C273 C272 1.446 . S
C273 C274 1.339 . S
C273 H308 0.949 . S
C274 C273 1.339 . S
C274 C275 1.439 . S
C274 H309 0.950 . S
C275 N271 1.383 . S
C275 C274 1.439 . S
C275 C304 1.392 . S
N276 Co270 2.008 . S
N276 C277 1.376 . S
N276 C280 1.374 . S
C277 N276 1.376 . S
C277 C278 1.443 . S
C277 C304 1.389 . S
C278 C277 1.443 . S
C278 C279 1.340 . S
C278 H310 0.951 . S
C279 C278 1.340 . S
C279 C280 1.439 . S
C279 H311 0.950 . S
C280 N276 1.374 . S
C280 C279 1.439 . S
C280 C305 1.395 . S
N281 Co270 1.995 . S
N281 C282 1.376 . S
N281 C285 1.383 . S
C282 N281 1.376 . S
C282 C283 1.446 . S
C282 C305 1.391 . S
C283 C282 1.446 . S
C283 C284 1.339 . S
C283 H312 0.949 . S
C284 C283 1.339 . S
C284 C285 1.439 . S
C284 H313 0.950 . S
C285 N281 1.383 . S
C285 C284 1.439 . S
C285 C303 1.392 . S
N286 Co270 2.282 . S
N286 C289 1.332 . S
N286 C291 1.332 . S
C287 C288 1.386 . S
C287 C290 1.388 . S
C288 C287 1.386 . S
C288 C289 1.382 . S
C288 H314 0.950 . S
C289 N286 1.332 . S
C289 C288 1.382 . S
C289 H300 0.952 . S
C290 C287 1.388 . S
C290 C291 1.382 . S
C290 H315 0.950 . S
C291 N286 1.332 . S
C291 C290 1.382 . S
C291 H301 0.948 . S
N292 Co270 2.282 . S
N292 C296 1.332 . S
N292 C297 1.332 . S
C293 C294 1.388 . S
C293 C297 1.382 . S
C293 H316 0.950 . S
C294 C293 1.388 . S
C294 C295 1.386 . S
C295 C294 1.386 . S
C295 C296 1.382 . S
C295 H317 0.950 . S
C296 N292 1.332 . S
C296 C295 1.382 . S
C296 H298 0.952 . S
C297 N292 1.332 . S
C297 C293 1.382 . S
C297 H299 0.948 . S
H298 C296 0.952 . S
H299 C297 0.948 . S
H300 C289 0.952 . S
H301 C291 0.948 . S
C302 C268 1.395 . S
C302 C272 1.391 . S
C303 C265 1.389 . S
C303 C285 1.392 . S
C304 C275 1.392 . S
C304 C277 1.389 . S
C305 C280 1.395 . S
C305 C282 1.391 . S
H306 C266 0.951 . S
H307 C267 0.950 . S
H308 C273 0.949 . S
H309 C274 0.950 . S
H310 C278 0.951 . S
H311 C279 0.950 . S
H312 C283 0.949 . S
H313 C284 0.950 . S
H314 C288 0.950 . S
H315 C290 0.950 . S
H316 C293 0.950 . S
H317 C295 0.950 . S
C318 C319 1.443 . S
C318 N322 1.376 . S
C318 C356 1.389 . S
C319 C318 1.443 . S
C319 C320 1.340 . S
C319 H359 0.951 . S
C320 C319 1.340 . S
C320 C321 1.439 . S
C320 H360 0.950 . S
C321 C320 1.439 . S
C321 N322 1.374 . S
C321 C355 1.395 . S
N322 C318 1.376 . S
N322 C321 1.374 . S
N322 Co323 2.008 . S
Co323 N322 2.008 . S
Co323 N324 1.995 . S
Co323 N329 2.008 . S
Co323 N334 1.995 . S
Co323 N339 2.282 . S
Co323 N345 2.282 . S
N324 Co323 1.995 . S
N324 C325 1.376 . S
N324 C328 1.383 . S
C325 N324 1.376 . S
C325 C326 1.446 . S
C325 C355 1.391 . S
C326 C325 1.446 . S
C326 C327 1.339 . S
C326 H361 0.949 . S
C327 C326 1.339 . S
C327 C328 1.439 . S
C327 H362 0.950 . S
C328 N324 1.383 . S
C328 C327 1.439 . S
C328 C357 1.392 . S
N329 Co323 2.008 . S
N329 C330 1.376 . S
N329 C333 1.374 . S
C330 N329 1.376 . S
C330 C331 1.443 . S
C330 C357 1.389 . S
C331 C330 1.443 . S
C331 C332 1.340 . S
C331 H363 0.951 . S
C332 C331 1.340 . S
C332 C333 1.439 . S
C332 H364 0.950 . S
C333 N329 1.374 . S
C333 C332 1.439 . S
C333 C358 1.395 . S
N334 Co323 1.995 . S
N334 C335 1.376 . S
N334 C338 1.383 . S
C335 N334 1.376 . S
C335 C336 1.446 . S
C335 C358 1.391 . S
C336 C335 1.446 . S
C336 C337 1.339 . S
C336 H365 0.949 . S
C337 C336 1.339 . S
C337 C338 1.439 . S
C337 H366 0.950 . S
C338 N334 1.383 . S
C338 C337 1.439 . S
C338 C356 1.392 . S
N339 Co323 2.282 . S
N339 C342 1.332 . S
N339 C344 1.332 . S
C340 C341 1.386 . S
C340 C343 1.388 . S
C341 C340 1.386 . S
C341 C342 1.382 . S
C341 H367 0.950 . S
C342 N339 1.332 . S
C342 C341 1.382 . S
C342 H353 0.952 . S
C343 C340 1.388 . S
C343 C344 1.382 . S
C343 H368 0.950 . S
C344 N339 1.332 . S
C344 C343 1.382 . S
C344 H354 0.948 . S
N345 Co323 2.282 . S
N345 C349 1.332 . S
N345 C350 1.332 . S
C346 C347 1.388 . S
C346 C350 1.382 . S
C346 H369 0.950 . S
C347 C346 1.388 . S
C347 C348 1.386 . S
C348 C347 1.386 . S
C348 C349 1.382 . S
C348 H370 0.950 . S
C349 N345 1.332 . S
C349 C348 1.382 . S
C349 H351 0.952 . S
C350 N345 1.332 . S
C350 C346 1.382 . S
C350 H352 0.948 . S
H351 C349 0.952 . S
H352 C350 0.948 . S
H353 C342 0.952 . S
H354 C344 0.948 . S
C355 C321 1.395 . S
C355 C325 1.391 . S
C356 C318 1.389 . S
C356 C338 1.392 . S
C357 C328 1.392 . S
C357 C330 1.389 . S
C358 C333 1.395 . S
C358 C335 1.391 . S
H359 C319 0.951 . S
H360 C320 0.950 . S
H361 C326 0.949 . S
H362 C327 0.950 . S
H363 C331 0.951 . S
H364 C332 0.950 . S
H365 C336 0.949 . S
H366 C337 0.950 . S
H367 C341 0.950 . S
H368 C343 0.950 . S
H369 C346 0.950 . S
H370 C348 0.950 . S
C371 C372 1.443 . S
C371 N375 1.376 . S
C371 C409 1.389 . S
C372 C371 1.443 . S
C372 C373 1.340 . S
C372 H412 0.951 . S
C373 C372 1.340 . S
C373 C374 1.439 . S
C373 H413 0.950 . S
C374 C373 1.439 . S
C374 N375 1.374 . S
C374 C408 1.395 . S
N375 C371 1.376 . S
N375 C374 1.374 . S
N375 Co376 2.008 . S
Co376 N375 2.008 . S
Co376 N377 1.995 . S
Co376 N382 2.008 . S
Co376 N387 1.995 . S
Co376 N392 2.282 . S
Co376 N398 2.282 . S
N377 Co376 1.995 . S
N377 C378 1.376 . S
N377 C381 1.383 . S
C378 N377 1.376 . S
C378 C379 1.446 . S
C378 C408 1.391 . S
C379 C378 1.446 . S
C379 C380 1.339 . S
C379 H414 0.949 . S
C380 C379 1.339 . S
C380 C381 1.439 . S
C380 H415 0.950 . S
C381 N377 1.383 . S
C381 C380 1.439 . S
C381 C410 1.392 . S
N382 Co376 2.008 . S
N382 C383 1.376 . S
N382 C386 1.374 . S
C383 N382 1.376 . S
C383 C384 1.443 . S
C383 C410 1.389 . S
C384 C383 1.443 . S
C384 C385 1.340 . S
C384 H416 0.951 . S
C385 C384 1.340 . S
C385 C386 1.439 . S
C385 H417 0.950 . S
C386 N382 1.374 . S
C386 C385 1.439 . S
C386 C411 1.395 . S
N387 Co376 1.995 . S
N387 C388 1.376 . S
N387 C391 1.383 . S
C388 N387 1.376 . S
C388 C389 1.446 . S
C388 C411 1.391 . S
C389 C388 1.446 . S
C389 C390 1.339 . S
C389 H418 0.949 . S
C390 C389 1.339 . S
C390 C391 1.439 . S
C390 H419 0.950 . S
C391 N387 1.383 . S
C391 C390 1.439 . S
C391 C409 1.392 . S
N392 Co376 2.282 . S
N392 C395 1.332 . S
N392 C397 1.332 . S
C393 C394 1.386 . S
C393 C396 1.388 . S
C394 C393 1.386 . S
C394 C395 1.382 . S
C394 H420 0.950 . S
C395 N392 1.332 . S
C395 C394 1.382 . S
C395 H406 0.952 . S
C396 C393 1.388 . S
C396 C397 1.382 . S
C396 H421 0.950 1_655 S
C397 N392 1.332 . S
C397 C396 1.382 . S
C397 H407 0.948 . S
N398 Co376 2.282 . S
N398 C402 1.332 . S
N398 C403 1.332 . S
C399 C400 1.388 . S
C399 C403 1.382 . S
C399 H422 0.950 . S
C400 C399 1.388 . S
C400 C401 1.386 . S
C401 C400 1.386 . S
C401 C402 1.382 . S
C401 H423 0.950 . S
C402 N398 1.332 . S
C402 C401 1.382 . S
C402 H404 0.952 . S
C403 N398 1.332 . S
C403 C399 1.382 . S
C403 H405 0.948 . S
H404 C402 0.952 . S
H405 C403 0.948 . S
H406 C395 0.952 . S
H407 C397 0.948 . S
C408 C374 1.395 . S
C408 C378 1.391 . S
C409 C371 1.389 . S
C409 C391 1.392 . S
C410 C381 1.392 . S
C410 C383 1.389 . S
C411 C386 1.395 . S
C411 C388 1.391 . S
H412 C372 0.951 . S
H413 C373 0.950 . S
H414 C379 0.949 . S
H415 C380 0.950 . S
H416 C384 0.951 . S
H417 C385 0.950 . S
H418 C389 0.949 . S
H419 C390 0.950 . S
H420 C394 0.950 . S
H421 C396 0.950 1_455 S
H422 C399 0.950 . S
H423 C401 0.950 . S
C424 C425 1.443 . S
C424 N428 1.376 . S
C424 C462 1.389 . S
C425 C424 1.443 . S
C425 C426 1.340 . S
C425 H465 0.951 . S
C426 C425 1.340 . S
C426 C427 1.439 . S
C426 H466 0.950 . S
C427 C426 1.439 . S
C427 N428 1.374 . S
C427 C461 1.395 . S
N428 C424 1.376 . S
N428 C427 1.374 . S
N428 Co429 2.008 . S
Co429 N428 2.008 . S
Co429 N430 1.995 . S
Co429 N435 2.008 . S
Co429 N440 1.995 . S
Co429 N445 2.282 . S
Co429 N451 2.282 . S
N430 Co429 1.995 . S
N430 C431 1.376 . S
N430 C434 1.383 . S
C431 N430 1.376 . S
C431 C432 1.446 . S
C431 C461 1.391 . S
C432 C431 1.446 . S
C432 C433 1.339 . S
C432 H467 0.949 . S
C433 C432 1.339 . S
C433 C434 1.439 . S
C433 H468 0.950 . S
C434 N430 1.383 . S
C434 C433 1.439 . S
C434 C463 1.392 . S
N435 Co429 2.008 . S
N435 C436 1.376 . S
N435 C439 1.374 . S
C436 N435 1.376 . S
C436 C437 1.443 . S
C436 C463 1.389 . S
C437 C436 1.443 . S
C437 C438 1.340 . S
C437 H469 0.951 . S
C438 C437 1.340 . S
C438 C439 1.439 . S
C438 H470 0.950 . S
C439 N435 1.374 . S
C439 C438 1.439 . S
C439 C464 1.395 . S
N440 Co429 1.995 . S
N440 C441 1.376 . S
N440 C444 1.383 . S
C441 N440 1.376 . S
C441 C442 1.446 . S
C441 C464 1.391 . S
C442 C441 1.446 . S
C442 C443 1.339 . S
C442 H471 0.949 . S
C443 C442 1.339 . S
C443 C444 1.439 . S
C443 H472 0.950 . S
C444 N440 1.383 . S
C444 C443 1.439 . S
C444 C462 1.392 . S
N445 Co429 2.282 . S
N445 C448 1.332 . S
N445 C450 1.332 . S
C446 C447 1.386 . S
C446 C449 1.388 . S
C447 C446 1.386 . S
C447 C448 1.382 . S
C447 H473 0.950 1_655 S
C448 N445 1.332 . S
C448 C447 1.382 . S
C448 H459 0.952 . S
C449 C446 1.388 . S
C449 C450 1.382 . S
C449 H474 0.950 . S
C450 N445 1.332 . S
C450 C449 1.382 . S
C450 H460 0.948 . S
N451 Co429 2.282 . S
N451 C455 1.332 . S
N451 C456 1.332 . S
C452 C453 1.388 . S
C452 C456 1.382 . S
C452 H475 0.950 . S
C453 C452 1.388 . S
C453 C454 1.386 . S
C454 C453 1.386 . S
C454 C455 1.382 . S
C454 H476 0.950 . S
C455 N451 1.332 . S
C455 C454 1.382 . S
C455 H457 0.952 . S
C456 N451 1.332 . S
C456 C452 1.382 . S
C456 H458 0.948 . S
H457 C455 0.952 . S
H458 C456 0.948 . S
H459 C448 0.952 . S
H460 C450 0.948 . S
C461 C427 1.395 . S
C461 C431 1.391 . S
C462 C424 1.389 . S
C462 C444 1.392 . S
C463 C434 1.392 . S
C463 C436 1.389 . S
C464 C439 1.395 . S
C464 C441 1.391 . S
H465 C425 0.951 . S
H466 C426 0.950 . S
H467 C432 0.949 . S
H468 C433 0.950 . S
H469 C437 0.951 . S
H470 C438 0.950 . S
H471 C442 0.949 . S
H472 C443 0.950 . S
H473 C447 0.950 1_455 S
H474 C449 0.950 . S
H475 C452 0.950 . S
H476 C454 0.950 . S
C477 C478 1.443 . S
C477 N481 1.376 . S
C477 C515 1.389 . S
C478 C477 1.443 . S
C478 C479 1.340 . S
C478 H518 0.951 . S
C479 C478 1.340 . S
C479 C480 1.439 . S
C479 H519 0.950 . S
C480 C479 1.439 . S
C480 N481 1.374 . S
C480 C514 1.395 . S
N481 C477 1.376 . S
N481 C480 1.374 . S
N481 Co482 2.008 . S
Co482 N481 2.008 . S
Co482 N483 1.995 . S
Co482 N488 2.008 . S
Co482 N493 1.995 . S
Co482 N498 2.282 . S
Co482 N504 2.282 . S
N483 Co482 1.995 . S
N483 C484 1.376 . S
N483 C487 1.383 . S
C484 N483 1.376 . S
C484 C485 1.446 . S
C484 C514 1.391 . S
C485 C484 1.446 . S
C485 C486 1.339 . S
C485 H520 0.949 . S
C486 C485 1.339 . S
C486 C487 1.439 . S
C486 H521 0.950 . S
C487 N483 1.383 . S
C487 C486 1.439 . S
C487 C516 1.392 . S
N488 Co482 2.008 . S
N488 C489 1.376 . S
N488 C492 1.374 . S
C489 N488 1.376 . S
C489 C490 1.443 . S
C489 C516 1.389 . S
C490 C489 1.443 . S
C490 C491 1.340 . S
C490 H522 0.951 . S
C491 C490 1.340 . S
C491 C492 1.439 . S
C491 H523 0.950 . S
C492 N488 1.374 . S
C492 C491 1.439 . S
C492 C517 1.395 . S
N493 Co482 1.995 . S
N493 C494 1.376 . S
N493 C497 1.383 . S
C494 N493 1.376 . S
C494 C495 1.446 . S
C494 C517 1.391 . S
C495 C494 1.446 . S
C495 C496 1.339 . S
C495 H524 0.949 . S
C496 C495 1.339 . S
C496 C497 1.439 . S
C496 H525 0.950 . S
C497 N493 1.383 . S
C497 C496 1.439 . S
C497 C515 1.392 . S
N498 Co482 2.282 . S
N498 C501 1.332 . S
N498 C503 1.332 . S
C499 C500 1.386 . S
C499 C502 1.388 . S
C500 C499 1.386 . S
C500 C501 1.382 . S
C500 H526 0.950 1_565 S
C501 N498 1.332 . S
C501 C500 1.382 . S
C501 H512 0.952 . S
C502 C499 1.388 . S
C502 C503 1.382 . S
C502 H527 0.950 . S
C503 N498 1.332 . S
C503 C502 1.382 . S
C503 H513 0.948 . S
N504 Co482 2.282 . S
N504 C508 1.332 . S
N504 C509 1.332 . S
C505 C506 1.388 . S
C505 C509 1.382 . S
C505 H528 0.950 . S
C506 C505 1.388 . S
C506 C507 1.386 . S
C507 C506 1.386 . S
C507 C508 1.382 . S
C507 H529 0.950 . S
C508 N504 1.332 . S
C508 C507 1.382 . S
C508 H510 0.952 . S
C509 N504 1.332 . S
C509 C505 1.382 . S
C509 H511 0.948 . S
H510 C508 0.952 . S
H511 C509 0.948 . S
H512 C501 0.952 . S
H513 C503 0.948 . S
C514 C480 1.395 . S
C514 C484 1.391 . S
C515 C477 1.389 . S
C515 C497 1.392 . S
C516 C487 1.392 . S
C516 C489 1.389 . S
C517 C492 1.395 . S
C517 C494 1.391 . S
H518 C478 0.951 . S
H519 C479 0.950 . S
H520 C485 0.949 . S
H521 C486 0.950 . S
H522 C490 0.951 . S
H523 C491 0.950 . S
H524 C495 0.949 . S
H525 C496 0.950 . S
H526 C500 0.950 1_545 S
H527 C502 0.950 . S
H528 C505 0.950 . S
H529 C507 0.950 . S
C530 C531 1.443 . S
C530 N534 1.376 . S
C530 C568 1.389 . S
C531 C530 1.443 . S
C531 C532 1.340 . S
C531 H571 0.951 . S
C532 C531 1.340 . S
C532 C533 1.439 . S
C532 H572 0.950 . S
C533 C532 1.439 . S
C533 N534 1.374 . S
C533 C567 1.395 . S
N534 C530 1.376 . S
N534 C533 1.374 . S
N534 Co535 2.008 . S
Co535 N534 2.008 . S
Co535 N536 1.995 . S
Co535 N541 2.008 . S
Co535 N546 1.995 . S
Co535 N551 2.282 . S
Co535 N557 2.282 . S
N536 Co535 1.995 . S
N536 C537 1.376 . S
N536 C540 1.383 . S
C537 N536 1.376 . S
C537 C538 1.446 . S
C537 C567 1.391 . S
C538 C537 1.446 . S
C538 C539 1.339 . S
C538 H573 0.949 . S
C539 C538 1.339 . S
C539 C540 1.439 . S
C539 H574 0.950 . S
C540 N536 1.383 . S
C540 C539 1.439 . S
C540 C569 1.392 . S
N541 Co535 2.008 . S
N541 C542 1.376 . S
N541 C545 1.374 . S
C542 N541 1.376 . S
C542 C543 1.443 . S
C542 C569 1.389 . S
C543 C542 1.443 . S
C543 C544 1.340 . S
C543 H575 0.951 . S
C544 C543 1.340 . S
C544 C545 1.439 . S
C544 H576 0.950 . S
C545 N541 1.374 . S
C545 C544 1.439 . S
C545 C570 1.395 . S
N546 Co535 1.995 . S
N546 C547 1.376 . S
N546 C550 1.383 . S
C547 N546 1.376 . S
C547 C548 1.446 . S
C547 C570 1.391 . S
C548 C547 1.446 . S
C548 C549 1.339 . S
C548 H577 0.949 . S
C549 C548 1.339 . S
C549 C550 1.439 . S
C549 H578 0.950 . S
C550 N546 1.383 . S
C550 C549 1.439 . S
C550 C568 1.392 . S
N551 Co535 2.282 . S
N551 C554 1.332 . S
N551 C556 1.332 . S
C552 C553 1.386 . S
C552 C555 1.388 . S
C553 C552 1.386 . S
C553 C554 1.382 . S
C553 H579 0.950 . S
C554 N551 1.332 . S
C554 C553 1.382 . S
C554 H565 0.952 . S
C555 C552 1.388 . S
C555 C556 1.382 . S
C555 H580 0.950 . S
C556 N551 1.332 . S
C556 C555 1.382 . S
C556 H566 0.948 . S
N557 Co535 2.282 . S
N557 C561 1.332 . S
N557 C562 1.332 . S
C558 C559 1.388 . S
C558 C562 1.382 . S
C558 H581 0.950 . S
C559 C558 1.388 . S
C559 C560 1.386 . S
C560 C559 1.386 . S
C560 C561 1.382 . S
C560 H582 0.950 . S
C561 N557 1.332 . S
C561 C560 1.382 . S
C561 H563 0.952 . S
C562 N557 1.332 . S
C562 C558 1.382 . S
C562 H564 0.948 . S
H563 C561 0.952 . S
H564 C562 0.948 . S
H565 C554 0.952 . S
H566 C556 0.948 . S
C567 C533 1.395 . S
C567 C537 1.391 . S
C568 C530 1.389 . S
C568 C550 1.392 . S
C569 C540 1.392 . S
C569 C542 1.389 . S
C570 C545 1.395 . S
C570 C547 1.391 . S
H571 C531 0.951 . S
H572 C532 0.950 . S
H573 C538 0.949 . S
H574 C539 0.950 . S
H575 C543 0.951 . S
H576 C544 0.950 . S
H577 C548 0.949 . S
H578 C549 0.950 . S
H579 C553 0.950 . S
H580 C555 0.950 . S
H581 C558 0.950 . S
H582 C560 0.950 . S
C583 C584 1.443 . S
C583 N587 1.376 . S
C583 C621 1.389 . S
C584 C583 1.443 . S
C584 C585 1.340 . S
C584 H624 0.951 . S
C585 C584 1.340 . S
C585 C586 1.439 . S
C585 H625 0.950 . S
C586 C585 1.439 . S
C586 N587 1.374 . S
C586 C620 1.395 . S
N587 C583 1.376 . S
N587 C586 1.374 . S
N587 Co588 2.008 . S
Co588 N587 2.008 . S
Co588 N589 1.995 . S
Co588 N594 2.008 . S
Co588 N599 1.995 . S
Co588 N604 2.282 . S
Co588 N610 2.282 . S
N589 Co588 1.995 . S
N589 C590 1.376 . S
N589 C593 1.383 . S
C590 N589 1.376 . S
C590 C591 1.446 . S
C590 C620 1.391 . S
C591 C590 1.446 . S
C591 C592 1.339 . S
C591 H626 0.949 . S
C592 C591 1.339 . S
C592 C593 1.439 . S
C592 H627 0.950 . S
C593 N589 1.383 . S
C593 C592 1.439 . S
C593 C622 1.392 . S
N594 Co588 2.008 . S
N594 C595 1.376 . S
N594 C598 1.374 . S
C595 N594 1.376 . S
C595 C596 1.443 . S
C595 C622 1.389 . S
C596 C595 1.443 . S
C596 C597 1.340 . S
C596 H628 0.951 . S
C597 C596 1.340 . S
C597 C598 1.439 . S
C597 H629 0.950 . S
C598 N594 1.374 . S
C598 C597 1.439 . S
C598 C623 1.395 . S
N599 Co588 1.995 . S
N599 C600 1.376 . S
N599 C603 1.383 . S
C600 N599 1.376 . S
C600 C601 1.446 . S
C600 C623 1.391 . S
C601 C600 1.446 . S
C601 C602 1.339 . S
C601 H630 0.949 . S
C602 C601 1.339 . S
C602 C603 1.439 . S
C602 H631 0.950 . S
C603 N599 1.383 . S
C603 C602 1.439 . S
C603 C621 1.392 . S
N604 Co588 2.282 . S
N604 C607 1.332 . S
N604 C609 1.332 . S
C605 C606 1.386 . S
C605 C608 1.388 . S
C606 C605 1.386 . S
C606 C607 1.382 . S
C606 H632 0.950 . S
C607 N604 1.332 . S
C607 C606 1.382 . S
C607 H618 0.952 . S
C608 C605 1.388 . S
C608 C609 1.382 . S
C608 H633 0.950 . S
C609 N604 1.332 . S
C609 C608 1.382 . S
C609 H619 0.948 . S
N610 Co588 2.282 . S
N610 C614 1.332 . S
N610 C615 1.332 . S
C611 C612 1.388 . S
C611 C615 1.382 . S
C611 H634 0.950 . S
C612 C611 1.388 . S
C612 C613 1.386 . S
C613 C612 1.386 . S
C613 C614 1.382 . S
C613 H635 0.950 . S
C614 N610 1.332 . S
C614 C613 1.382 . S
C614 H616 0.952 . S
C615 N610 1.332 . S
C615 C611 1.382 . S
C615 H617 0.948 . S
H616 C614 0.952 . S
H617 C615 0.948 . S
H618 C607 0.952 . S
H619 C609 0.948 . S
C620 C586 1.395 . S
C620 C590 1.391 . S
C621 C583 1.389 . S
C621 C603 1.392 . S
C622 C593 1.392 . S
C622 C595 1.389 . S
C623 C598 1.395 . S
C623 C600 1.391 . S
H624 C584 0.951 . S
H625 C585 0.950 . S
H626 C591 0.949 . S
H627 C592 0.950 . S
H628 C596 0.951 . S
H629 C597 0.950 . S
H630 C601 0.949 . S
H631 C602 0.950 . S
H632 C606 0.950 . S
H633 C608 0.950 . S
H634 C611 0.950 . S
H635 C613 0.950 . S
C636 C637 1.443 . S
C636 N640 1.376 . S
C636 C674 1.389 . S
C637 C636 1.443 . S
C637 C638 1.340 . S
C637 H677 0.951 . S
C638 C637 1.340 . S
C638 C639 1.439 . S
C638 H678 0.950 . S
C639 C638 1.439 . S
C639 N640 1.374 . S
C639 C673 1.395 . S
N640 C636 1.376 . S
N640 C639 1.374 . S
N640 Co641 2.008 . S
Co641 N640 2.008 . S
Co641 N642 1.995 . S
Co641 N647 2.008 . S
Co641 N652 1.995 . S
Co641 N657 2.282 . S
Co641 N663 2.282 . S
N642 Co641 1.995 . S
N642 C643 1.376 . S
N642 C646 1.383 . S
C643 N642 1.376 . S
C643 C644 1.446 . S
C643 C673 1.391 . S
C644 C643 1.446 . S
C644 C645 1.339 . S
C644 H679 0.949 . S
C645 C644 1.339 . S
C645 C646 1.439 . S
C645 H680 0.950 . S
C646 N642 1.383 . S
C646 C645 1.439 . S
C646 C675 1.392 . S
N647 Co641 2.008 . S
N647 C648 1.376 . S
N647 C651 1.374 . S
C648 N647 1.376 . S
C648 C649 1.443 . S
C648 C675 1.389 . S
C649 C648 1.443 . S
C649 C650 1.340 . S
C649 H681 0.951 . S
C650 C649 1.340 . S
C650 C651 1.439 . S
C650 H682 0.950 . S
C651 N647 1.374 . S
C651 C650 1.439 . S
C651 C676 1.395 . S
N652 Co641 1.995 . S
N652 C653 1.376 . S
N652 C656 1.383 . S
C653 N652 1.376 . S
C653 C654 1.446 . S
C653 C676 1.391 . S
C654 C653 1.446 . S
C654 C655 1.339 . S
C654 H683 0.949 . S
C655 C654 1.339 . S
C655 C656 1.439 . S
C655 H684 0.950 . S
C656 N652 1.383 . S
C656 C655 1.439 . S
C656 C674 1.392 . S
N657 Co641 2.282 . S
N657 C660 1.332 . S
N657 C662 1.332 . S
C658 C659 1.386 . S
C658 C661 1.388 . S
C659 C658 1.386 . S
C659 C660 1.382 . S
C659 H685 0.950 1_655 S
C660 N657 1.332 . S
C660 C659 1.382 . S
C660 H671 0.952 . S
C661 C658 1.388 . S
C661 C662 1.382 . S
C661 H686 0.950 . S
C662 N657 1.332 . S
C662 C661 1.382 . S
C662 H672 0.948 . S
N663 Co641 2.282 . S
N663 C667 1.332 . S
N663 C668 1.332 . S
C664 C665 1.388 . S
C664 C668 1.382 . S
C664 H687 0.950 . S
C665 C664 1.388 . S
C665 C666 1.386 . S
C666 C665 1.386 . S
C666 C667 1.382 . S
C666 H688 0.950 . S
C667 N663 1.332 . S
C667 C666 1.382 . S
C667 H669 0.952 . S
C668 N663 1.332 . S
C668 C664 1.382 . S
C668 H670 0.948 . S
H669 C667 0.952 . S
H670 C668 0.948 . S
H671 C660 0.952 . S
H672 C662 0.948 . S
C673 C639 1.395 . S
C673 C643 1.391 . S
C674 C636 1.389 . S
C674 C656 1.392 . S
C675 C646 1.392 . S
C675 C648 1.389 . S
C676 C651 1.395 . S
C676 C653 1.391 . S
H677 C637 0.951 . S
H678 C638 0.950 . S
H679 C644 0.949 . S
H680 C645 0.950 . S
H681 C649 0.951 . S
H682 C650 0.950 . S
H683 C654 0.949 . S
H684 C655 0.950 . S
H685 C659 0.950 1_455 S
H686 C661 0.950 . S
H687 C664 0.950 . S
H688 C666 0.950 . S
C689 C690 1.443 . S
C689 N693 1.376 . S
C689 C727 1.389 . S
C690 C689 1.443 . S
C690 C691 1.340 . S
C690 H730 0.951 . S
C691 C690 1.340 . S
C691 C692 1.439 . S
C691 H731 0.950 . S
C692 C691 1.439 . S
C692 N693 1.374 . S
C692 C726 1.395 . S
N693 C689 1.376 . S
N693 C692 1.374 . S
N693 Co694 2.008 . S
Co694 N693 2.008 . S
Co694 N695 1.995 . S
Co694 N700 2.008 . S
Co694 N705 1.995 . S
Co694 N710 2.282 . S
Co694 N716 2.282 . S
N695 Co694 1.995 . S
N695 C696 1.376 . S
N695 C699 1.383 . S
C696 N695 1.376 . S
C696 C697 1.446 . S
C696 C726 1.391 . S
C697 C696 1.446 . S
C697 C698 1.339 . S
C697 H732 0.949 . S
C698 C697 1.339 . S
C698 C699 1.439 . S
C698 H733 0.950 . S
C699 N695 1.383 . S
C699 C698 1.439 . S
C699 C728 1.392 . S
N700 Co694 2.008 . S
N700 C701 1.376 . S
N700 C704 1.374 . S
C701 N700 1.376 . S
C701 C702 1.443 . S
C701 C728 1.389 . S
C702 C701 1.443 . S
C702 C703 1.340 . S
C702 H734 0.951 . S
C703 C702 1.340 . S
C703 C704 1.439 . S
C703 H735 0.950 . S
C704 N700 1.374 . S
C704 C703 1.439 . S
C704 C729 1.395 . S
N705 Co694 1.995 . S
N705 C706 1.376 . S
N705 C709 1.383 . S
C706 N705 1.376 . S
C706 C707 1.446 . S
C706 C729 1.391 . S
C707 C706 1.446 . S
C707 C708 1.339 . S
C707 H736 0.949 . S
C708 C707 1.339 . S
C708 C709 1.439 . S
C708 H737 0.950 . S
C709 N705 1.383 . S
C709 C708 1.439 . S
C709 C727 1.392 . S
N710 Co694 2.282 . S
N710 C713 1.332 . S
N710 C715 1.332 . S
C711 C712 1.386 . S
C711 C714 1.388 . S
C712 C711 1.386 . S
C712 C713 1.382 . S
C712 H738 0.950 1_565 S
C713 N710 1.332 . S
C713 C712 1.382 . S
C713 H724 0.952 . S
C714 C711 1.388 . S
C714 C715 1.382 . S
C714 H739 0.950 . S
C715 N710 1.332 . S
C715 C714 1.382 . S
C715 H725 0.948 . S
N716 Co694 2.282 . S
N716 C720 1.332 . S
N716 C721 1.332 . S
C717 C718 1.388 . S
C717 C721 1.382 . S
C717 H740 0.950 . S
C718 C717 1.388 . S
C718 C719 1.386 . S
C719 C718 1.386 . S
C719 C720 1.382 . S
C719 H741 0.950 . S
C720 N716 1.332 . S
C720 C719 1.382 . S
C720 H722 0.952 . S
C721 N716 1.332 . S
C721 C717 1.382 . S
C721 H723 0.948 . S
H722 C720 0.952 . S
H723 C721 0.948 . S
H724 C713 0.952 . S
H725 C715 0.948 . S
C726 C692 1.395 . S
C726 C696 1.391 . S
C727 C689 1.389 . S
C727 C709 1.392 . S
C728 C699 1.392 . S
C728 C701 1.389 . S
C729 C704 1.395 . S
C729 C706 1.391 . S
H730 C690 0.951 . S
H731 C691 0.950 . S
H732 C697 0.949 . S
H733 C698 0.950 . S
H734 C702 0.951 . S
H735 C703 0.950 . S
H736 C707 0.949 . S
H737 C708 0.950 . S
H738 C712 0.950 1_545 S
H739 C714 0.950 . S
H740 C717 0.950 . S
H741 C719 0.950 . S
C742 C743 1.443 . S
C742 N746 1.376 . S
C742 C780 1.389 . S
C743 C742 1.443 . S
C743 C744 1.340 . S
C743 H783 0.951 . S
C744 C743 1.340 . S
C744 C745 1.439 . S
C744 H784 0.950 . S
C745 C744 1.439 . S
C745 N746 1.374 . S
C745 C779 1.395 . S
N746 C742 1.376 . S
N746 C745 1.374 . S
N746 Co747 2.008 . S
Co747 N746 2.008 . S
Co747 N748 1.995 . S
Co747 N753 2.008 . S
Co747 N758 1.995 . S
Co747 N763 2.282 . S
Co747 N769 2.282 . S
N748 Co747 1.995 . S
N748 C749 1.376 . S
N748 C752 1.383 . S
C749 N748 1.376 . S
C749 C750 1.446 . S
C749 C779 1.391 . S
C750 C749 1.446 . S
C750 C751 1.339 . S
C750 H785 0.949 . S
C751 C750 1.339 . S
C751 C752 1.439 . S
C751 H786 0.950 . S
C752 N748 1.383 . S
C752 C751 1.439 . S
C752 C781 1.392 . S
N753 Co747 2.008 . S
N753 C754 1.376 . S
N753 C757 1.374 . S
C754 N753 1.376 . S
C754 C755 1.443 . S
C754 C781 1.389 . S
C755 C754 1.443 . S
C755 C756 1.340 . S
C755 H787 0.951 . S
C756 C755 1.340 . S
C756 C757 1.439 . S
C756 H788 0.950 . S
C757 N753 1.374 . S
C757 C756 1.439 . S
C757 C782 1.395 . S
N758 Co747 1.995 . S
N758 C759 1.376 . S
N758 C762 1.383 . S
C759 N758 1.376 . S
C759 C760 1.446 . S
C759 C782 1.391 . S
C760 C759 1.446 . S
C760 C761 1.339 . S
C760 H789 0.949 . S
C761 C760 1.339 . S
C761 C762 1.439 . S
C761 H790 0.950 . S
C762 N758 1.383 . S
C762 C761 1.439 . S
C762 C780 1.392 . S
N763 Co747 2.282 . S
N763 C766 1.332 . S
N763 C768 1.332 . S
C764 C765 1.386 . S
C764 C767 1.388 . S
C765 C764 1.386 . S
C765 C766 1.382 . S
C765 H791 0.950 . S
C766 N763 1.332 . S
C766 C765 1.382 . S
C766 H777 0.952 . S
C767 C764 1.388 . S
C767 C768 1.382 . S
C767 H792 0.950 . S
C768 N763 1.332 . S
C768 C767 1.382 . S
C768 H778 0.948 . S
N769 Co747 2.282 . S
N769 C773 1.332 . S
N769 C774 1.332 . S
C770 C771 1.388 . S
C770 C774 1.382 . S
C770 H793 0.950 . S
C771 C770 1.388 . S
C771 C772 1.386 . S
C772 C771 1.386 . S
C772 C773 1.382 . S
C772 H794 0.950 . S
C773 N769 1.332 . S
C773 C772 1.382 . S
C773 H775 0.952 . S
C774 N769 1.332 . S
C774 C770 1.382 . S
C774 H776 0.948 . S
H775 C773 0.952 . S
H776 C774 0.948 . S
H777 C766 0.952 . S
H778 C768 0.948 . S
C779 C745 1.395 . S
C779 C749 1.391 . S
C780 C742 1.389 . S
C780 C762 1.392 . S
C781 C752 1.392 . S
C781 C754 1.389 . S
C782 C757 1.395 . S
C782 C759 1.391 . S
H783 C743 0.951 . S
H784 C744 0.950 . S
H785 C750 0.949 . S
H786 C751 0.950 . S
H787 C755 0.951 . S
H788 C756 0.950 . S
H789 C760 0.949 . S
H790 C761 0.950 . S
H791 C765 0.950 . S
H792 C767 0.950 . S
H793 C770 0.950 . S
H794 C772 0.950 . S
C795 C796 1.443 . S
C795 N799 1.376 . S
C795 C833 1.389 . S
C796 C795 1.443 . S
C796 C797 1.340 . S
C796 H836 0.951 . S
C797 C796 1.340 . S
C797 C798 1.439 . S
C797 H837 0.950 . S
C798 C797 1.439 . S
C798 N799 1.374 . S
C798 C832 1.395 . S
N799 C795 1.376 . S
N799 C798 1.374 . S
N799 Co800 2.008 . S
Co800 N799 2.008 . S
Co800 N801 1.995 . S
Co800 N806 2.008 . S
Co800 N811 1.995 . S
Co800 N816 2.282 . S
Co800 N822 2.282 . S
N801 Co800 1.995 . S
N801 C802 1.376 . S
N801 C805 1.383 . S
C802 N801 1.376 . S
C802 C803 1.446 . S
C802 C832 1.391 . S
C803 C802 1.446 . S
C803 C804 1.339 . S
C803 H838 0.949 . S
C804 C803 1.339 . S
C804 C805 1.439 . S
C804 H839 0.950 . S
C805 N801 1.383 . S
C805 C804 1.439 . S
C805 C834 1.392 . S
N806 Co800 2.008 . S
N806 C807 1.376 . S
N806 C810 1.374 . S
C807 N806 1.376 . S
C807 C808 1.443 . S
C807 C834 1.389 . S
C808 C807 1.443 . S
C808 C809 1.340 . S
C808 H840 0.951 . S
C809 C808 1.340 . S
C809 C810 1.439 . S
C809 H841 0.950 . S
C810 N806 1.374 . S
C810 C809 1.439 . S
C810 C835 1.395 . S
N811 Co800 1.995 . S
N811 C812 1.376 . S
N811 C815 1.383 . S
C812 N811 1.376 . S
C812 C813 1.446 . S
C812 C835 1.391 . S
C813 C812 1.446 . S
C813 C814 1.339 . S
C813 H842 0.949 . S
C814 C813 1.339 . S
C814 C815 1.439 . S
C814 H843 0.950 . S
C815 N811 1.383 . S
C815 C814 1.439 . S
C815 C833 1.392 . S
N816 Co800 2.282 . S
N816 C819 1.332 . S
N816 C821 1.332 . S
C817 C818 1.386 . S
C817 C820 1.388 . S
C818 C817 1.386 . S
C818 C819 1.382 . S
C818 H844 0.950 . S
C819 N816 1.332 . S
C819 C818 1.382 . S
C819 H830 0.952 . S
C820 C817 1.388 . S
C820 C821 1.382 . S
C820 H845 0.950 . S
C821 N816 1.332 . S
C821 C820 1.382 . S
C821 H831 0.948 . S
N822 Co800 2.282 . S
N822 C826 1.332 . S
N822 C827 1.332 . S
C823 C824 1.388 . S
C823 C827 1.382 . S
C823 H846 0.950 . S
C824 C823 1.388 . S
C824 C825 1.386 . S
C825 C824 1.386 . S
C825 C826 1.382 . S
C825 H847 0.950 . S
C826 N822 1.332 . S
C826 C825 1.382 . S
C826 H828 0.952 . S
C827 N822 1.332 . S
C827 C823 1.382 . S
C827 H829 0.948 . S
H828 C826 0.952 . S
H829 C827 0.948 . S
H830 C819 0.952 . S
H831 C821 0.948 . S
C832 C798 1.395 . S
C832 C802 1.391 . S
C833 C795 1.389 . S
C833 C815 1.392 . S
C834 C805 1.392 . S
C834 C807 1.389 . S
C835 C810 1.395 . S
C835 C812 1.391 . S
H836 C796 0.951 . S
H837 C797 0.950 . S
H838 C803 0.949 . S
H839 C804 0.950 . S
H840 C808 0.951 . S
H841 C809 0.950 . S
H842 C813 0.949 . S
H843 C814 0.950 . S
H844 C818 0.950 . S
H845 C820 0.950 . S
H846 C823 0.950 . S
H847 C825 0.950 . S
H848 C860 0.930 . S
H849 C862 0.930 . S
H850 C863 0.930 . S
H851 C867 0.959 . S
H852 C867 0.959 . S
H853 C867 0.961 . S
H854 C868 0.960 . S
H855 C868 0.961 . S
H856 C868 0.959 . S
H857 C871 0.929 . S
H858 C872 0.931 . S
H859 C874 0.930 . S
C860 H848 0.930 . S
C860 C861 1.399 . S
C860 C865 1.399 . S
C861 C860 1.399 . S
C861 C862 1.376 . S
C862 H849 0.930 . S
C862 C861 1.376 . S
C862 C863 1.388 . S
C863 H850 0.930 . S
C863 C862 1.388 . S
C863 C864 1.390 . S
C864 C863 1.390 . S
C864 C865 1.394 . S
C864 C870 1.465 . S
C865 C860 1.399 . S
C865 C864 1.394 . S
C865 C866 1.516 . S
C866 C865 1.516 . S
C866 C867 1.502 . S
C866 C868 1.561 . S
C866 C869 1.526 . S
C867 H851 0.959 . S
C867 H852 0.959 . S
C867 H853 0.961 . S
C867 C866 1.502 . S
C868 H854 0.960 . S
C868 H855 0.961 . S
C868 H856 0.959 . S
C868 C866 1.561 . S
C869 C866 1.526 . S
C869 C870 1.396 . S
C869 C874 1.390 . S
C870 C864 1.465 . S
C870 C869 1.396 . S
C870 C871 1.399 . S
C871 H857 0.929 . S
C871 C870 1.399 . S
C871 C872 1.385 . S
C872 H858 0.931 . S
C872 C871 1.385 . S
C872 C873 1.389 . S
C873 C872 1.389 . S
C873 C874 1.387 . S
C874 H859 0.930 . S
C874 C869 1.390 . S
C874 C873 1.387 . S
H875 C887 0.930 . S
H876 C889 0.930 . S
H877 C890 0.930 . S
H878 C894 0.959 . S
H879 C894 0.959 . S
H880 C894 0.961 . S
H881 C895 0.960 . S
H882 C895 0.961 . S
H883 C895 0.959 . S
H884 C898 0.929 . S
H885 C899 0.931 . S
H886 C901 0.930 . S
C887 H875 0.930 . S
C887 C888 1.399 . S
C887 C892 1.399 . S
C888 C887 1.399 . S
C888 C889 1.376 . S
C889 H876 0.930 . S
C889 C888 1.376 . S
C889 C890 1.388 . S
C890 H877 0.930 . S
C890 C889 1.388 . S
C890 C891 1.390 . S
C891 C890 1.390 . S
C891 C892 1.394 . S
C891 C897 1.465 . S
C892 C887 1.399 . S
C892 C891 1.394 . S
C892 C893 1.516 . S
C893 C892 1.516 . S
C893 C894 1.502 . S
C893 C895 1.561 . S
C893 C896 1.526 . S
C894 H878 0.959 . S
C894 H879 0.959 . S
C894 H880 0.961 . S
C894 C893 1.502 . S
C895 H881 0.960 . S
C895 H882 0.961 . S
C895 H883 0.959 . S
C895 C893 1.561 . S
C896 C893 1.526 . S
C896 C897 1.396 . S
C896 C901 1.390 . S
C897 C891 1.465 . S
C897 C896 1.396 . S
C897 C898 1.399 . S
C898 H884 0.929 . S
C898 C897 1.399 . S
C898 C899 1.385 . S
C899 H885 0.931 . S
C899 C898 1.385 . S
C899 C900 1.389 . S
C900 C899 1.389 . S
C900 C901 1.387 . S
C901 H886 0.930 . S
C901 C896 1.390 . S
C901 C900 1.387 . S
H902 C914 0.930 . S
H903 C916 0.930 . S
H904 C917 0.930 . S
H905 C921 0.959 . S
H906 C921 0.959 . S
H907 C921 0.961 . S
H908 C922 0.960 . S
H909 C922 0.961 . S
H910 C922 0.959 . S
H911 C925 0.929 . S
H912 C926 0.931 . S
H913 C928 0.930 . S
C914 H902 0.930 . S
C914 C915 1.399 . S
C914 C919 1.399 . S
C915 C914 1.399 . S
C915 C916 1.376 . S
C916 H903 0.930 . S
C916 C915 1.376 . S
C916 C917 1.388 . S
C917 H904 0.930 . S
C917 C916 1.388 . S
C917 C918 1.390 . S
C918 C917 1.390 . S
C918 C919 1.394 . S
C918 C924 1.465 . S
C919 C914 1.399 . S
C919 C918 1.394 . S
C919 C920 1.516 . S
C920 C919 1.516 . S
C920 C921 1.502 . S
C920 C922 1.561 . S
C920 C923 1.526 . S
C921 H905 0.959 . S
C921 H906 0.959 . S
C921 H907 0.961 . S
C921 C920 1.502 . S
C922 H908 0.960 . S
C922 H909 0.961 . S
C922 H910 0.959 . S
C922 C920 1.561 . S
C923 C920 1.526 . S
C923 C924 1.396 . S
C923 C928 1.390 . S
C924 C918 1.465 . S
C924 C923 1.396 . S
C924 C925 1.399 . S
C925 H911 0.929 . S
C925 C924 1.399 . S
C925 C926 1.385 . S
C926 H912 0.931 . S
C926 C925 1.385 . S
C926 C927 1.389 . S
C927 C926 1.389 . S
C927 C928 1.387 . S
C928 H913 0.930 . S
C928 C923 1.390 . S
C928 C927 1.387 . S
H929 C941 0.930 . S
H930 C943 0.930 . S
H931 C944 0.930 . S
H932 C948 0.959 . S
H933 C948 0.959 . S
H934 C948 0.961 . S
H935 C949 0.960 . S
H936 C949 0.961 . S
H937 C949 0.959 . S
H938 C952 0.929 . S
H939 C953 0.931 . S
H940 C955 0.930 . S
C941 H929 0.930 . S
C941 C942 1.399 . S
C941 C946 1.399 . S
C942 C941 1.399 . S
C942 C943 1.376 . S
C943 H930 0.930 . S
C943 C942 1.376 . S
C943 C944 1.388 . S
C944 H931 0.930 . S
C944 C943 1.388 . S
C944 C945 1.390 . S
C945 C944 1.390 . S
C945 C946 1.394 . S
C945 C951 1.465 . S
C946 C941 1.399 . S
C946 C945 1.394 . S
C946 C947 1.516 . S
C947 C946 1.516 . S
C947 C948 1.502 . S
C947 C949 1.561 . S
C947 C950 1.526 . S
C948 H932 0.959 . S
C948 H933 0.959 . S
C948 H934 0.961 . S
C948 C947 1.502 . S
C949 H935 0.960 . S
C949 H936 0.961 . S
C949 H937 0.959 . S
C949 C947 1.561 . S
C950 C947 1.526 . S
C950 C951 1.396 . S
C950 C955 1.390 . S
C951 C945 1.465 . S
C951 C950 1.396 . S
C951 C952 1.399 . S
C952 H938 0.929 . S
C952 C951 1.399 . S
C952 C953 1.385 . S
C953 H939 0.931 . S
C953 C952 1.385 . S
C953 C954 1.389 . S
C954 C953 1.389 . S
C954 C955 1.387 . S
C955 H940 0.930 . S
C955 C950 1.390 . S
C955 C954 1.387 . S
H956 C968 0.930 . S
H957 C970 0.930 . S
H958 C971 0.930 . S
H959 C975 0.959 . S
H960 C975 0.959 . S
H961 C975 0.961 . S
H962 C976 0.960 . S
H963 C976 0.961 . S
H964 C976 0.959 . S
H965 C979 0.929 . S
H966 C980 0.931 . S
H967 C982 0.930 . S
C968 H956 0.930 . S
C968 C969 1.399 . S
C968 C973 1.399 . S
C969 C968 1.399 . S
C969 C970 1.376 . S
C970 H957 0.930 . S
C970 C969 1.376 . S
C970 C971 1.388 . S
C971 H958 0.930 . S
C971 C970 1.388 . S
C971 C972 1.390 . S
C972 C971 1.390 . S
C972 C973 1.394 . S
C972 C978 1.465 . S
C973 C968 1.399 . S
C973 C972 1.394 . S
C973 C974 1.516 . S
C974 C973 1.516 . S
C974 C975 1.502 . S
C974 C976 1.561 . S
C974 C977 1.526 . S
C975 H959 0.959 . S
C975 H960 0.959 . S
C975 H961 0.961 . S
C975 C974 1.502 . S
C976 H962 0.960 . S
C976 H963 0.961 . S
C976 H964 0.959 . S
C976 C974 1.561 . S
C977 C974 1.526 . S
C977 C978 1.396 . S
C977 C982 1.390 . S
C978 C972 1.465 . S
C978 C977 1.396 . S
C978 C979 1.399 . S
C979 H965 0.929 . S
C979 C978 1.399 . S
C979 C980 1.385 . S
C980 H966 0.931 . S
C980 C979 1.385 . S
C980 C981 1.389 . S
C981 C980 1.389 . S
C981 C982 1.387 . S
C982 H967 0.930 . S
C982 C977 1.390 . S
C982 C981 1.387 . S
H983 C995 0.930 . S
H984 C997 0.930 . S
H985 C998 0.930 . S
H986 C1002 0.959 . S
H987 C1002 0.959 . S
H988 C1002 0.961 . S
H989 C1003 0.960 . S
H990 C1003 0.961 . S
H991 C1003 0.959 . S
H992 C1006 0.929 . S
H993 C1007 0.931 . S
H994 C1009 0.930 . S
C995 H983 0.930 . S
C995 C996 1.399 . S
C995 C1000 1.399 . S
C996 C995 1.399 . S
C996 C997 1.376 . S
C997 H984 0.930 . S
C997 C996 1.376 . S
C997 C998 1.388 . S
C998 H985 0.930 . S
C998 C997 1.388 . S
C998 C999 1.390 . S
C999 C998 1.390 . S
C999 C1000 1.394 . S
C999 C1005 1.465 . S
C1000 C995 1.399 . S
C1000 C999 1.394 . S
C1000 C1001 1.516 . S
C1001 C1000 1.516 . S
C1001 C1002 1.502 . S
C1001 C1003 1.561 . S
C1001 C1004 1.526 . S
C1002 H986 0.959 . S
C1002 H987 0.959 . S
C1002 H988 0.961 . S
C1002 C1001 1.502 . S
C1003 H989 0.960 . S
C1003 H990 0.961 . S
C1003 H991 0.959 . S
C1003 C1001 1.561 . S
C1004 C1001 1.526 . S
C1004 C1005 1.396 . S
C1004 C1009 1.390 . S
C1005 C999 1.465 . S
C1005 C1004 1.396 . S
C1005 C1006 1.399 . S
C1006 H992 0.929 . S
C1006 C1005 1.399 . S
C1006 C1007 1.385 . S
C1007 H993 0.931 . S
C1007 C1006 1.385 . S
C1007 C1008 1.389 . S
C1008 C1007 1.389 . S
C1008 C1009 1.387 . S
C1009 H994 0.930 . S
C1009 C1004 1.390 . S
C1009 C1008 1.387 . S
H1010 C1022 0.930 . S
H1011 C1024 0.930 . S
H1012 C1025 0.930 . S
H1013 C1029 0.959 . S
H1014 C1029 0.959 . S
H1015 C1029 0.961 . S
H1016 C1030 0.960 . S
H1017 C1030 0.961 . S
H1018 C1030 0.959 . S
H1019 C1033 0.929 . S
H1020 C1034 0.931 . S
H1021 C1036 0.930 . S
C1022 H1010 0.930 . S
C1022 C1023 1.399 . S
C1022 C1027 1.399 . S
C1023 C1022 1.399 . S
C1023 C1024 1.376 . S
C1024 H1011 0.930 . S
C1024 C1023 1.376 . S
C1024 C1025 1.388 . S
C1025 H1012 0.930 . S
C1025 C1024 1.388 . S
C1025 C1026 1.390 . S
C1026 C1025 1.390 . S
C1026 C1027 1.394 . S
C1026 C1032 1.465 . S
C1027 C1022 1.399 . S
C1027 C1026 1.394 . S
C1027 C1028 1.516 . S
C1028 C1027 1.516 . S
C1028 C1029 1.502 . S
C1028 C1030 1.561 . S
C1028 C1031 1.526 . S
C1029 H1013 0.959 . S
C1029 H1014 0.959 . S
C1029 H1015 0.961 . S
C1029 C1028 1.502 . S
C1030 H1016 0.960 . S
C1030 H1017 0.961 . S
C1030 H1018 0.959 . S
C1030 C1028 1.561 . S
C1031 C1028 1.526 . S
C1031 C1032 1.396 . S
C1031 C1036 1.390 . S
C1032 C1026 1.465 . S
C1032 C1031 1.396 . S
C1032 C1033 1.399 . S
C1033 H1019 0.929 . S
C1033 C1032 1.399 . S
C1033 C1034 1.385 . S
C1034 H1020 0.931 . S
C1034 C1033 1.385 . S
C1034 C1035 1.389 . S
C1035 C1034 1.389 . S
C1035 C1036 1.387 . S
C1036 H1021 0.930 . S
C1036 C1031 1.390 . S
C1036 C1035 1.387 . S
H1037 C1049 0.930 . S
H1038 C1051 0.930 . S
H1039 C1052 0.930 . S
H1040 C1056 0.959 . S
H1041 C1056 0.959 . S
H1042 C1056 0.961 . S
H1043 C1057 0.960 . S
H1044 C1057 0.961 . S
H1045 C1057 0.959 . S
H1046 C1060 0.929 . S
H1047 C1061 0.931 . S
H1048 C1063 0.930 . S
C1049 H1037 0.930 . S
C1049 C1050 1.399 . S
C1049 C1054 1.399 . S
C1050 C1049 1.399 . S
C1050 C1051 1.376 . S
C1051 H1038 0.930 . S
C1051 C1050 1.376 . S
C1051 C1052 1.388 . S
C1052 H1039 0.930 . S
C1052 C1051 1.388 . S
C1052 C1053 1.390 . S
C1053 C1052 1.390 . S
C1053 C1054 1.394 . S
C1053 C1059 1.465 . S
C1054 C1049 1.399 . S
C1054 C1053 1.394 . S
C1054 C1055 1.516 . S
C1055 C1054 1.516 . S
C1055 C1056 1.502 . S
C1055 C1057 1.561 . S
C1055 C1058 1.526 . S
C1056 H1040 0.959 . S
C1056 H1041 0.959 . S
C1056 H1042 0.961 . S
C1056 C1055 1.502 . S
C1057 H1043 0.960 . S
C1057 H1044 0.961 . S
C1057 H1045 0.959 . S
C1057 C1055 1.561 . S
C1058 C1055 1.526 . S
C1058 C1059 1.396 . S
C1058 C1063 1.390 . S
C1059 C1053 1.465 . S
C1059 C1058 1.396 . S
C1059 C1060 1.399 . S
C1060 H1046 0.929 . S
C1060 C1059 1.399 . S
C1060 C1061 1.385 . S
C1061 H1047 0.931 . S
C1061 C1060 1.385 . S
C1061 C1062 1.389 . S
C1062 C1061 1.389 . S
C1062 C1063 1.387 . S
C1063 H1048 0.930 . S
C1063 C1058 1.390 . S
C1063 C1062 1.387 . S
H1064 C1076 0.930 . S
H1065 C1078 0.930 . S
H1066 C1079 0.930 . S
H1067 C1083 0.959 . S
H1068 C1083 0.959 . S
H1069 C1083 0.961 . S
H1070 C1084 0.960 1_655 S
H1071 C1084 0.961 . S
H1072 C1084 0.959 . S
H1073 C1087 0.929 . S
H1074 C1088 0.931 . S
H1075 C1090 0.930 . S
C1076 H1064 0.930 . S
C1076 C1077 1.399 . S
C1076 C1081 1.399 . S
C1077 C1076 1.399 . S
C1077 C1078 1.376 1_655 S
C1078 H1065 0.930 . S
C1078 C1077 1.376 1_455 S
C1078 C1079 1.388 . S
C1079 H1066 0.930 . S
C1079 C1078 1.388 . S
C1079 C1080 1.390 . S
C1080 C1079 1.390 . S
C1080 C1081 1.394 1_455 S
C1080 C1086 1.465 . S
C1081 C1076 1.399 . S
C1081 C1080 1.394 1_655 S
C1081 C1082 1.516 . S
C1082 C1081 1.516 . S
C1082 C1083 1.502 . S
C1082 C1084 1.561 1_655 S
C1082 C1085 1.526 1_655 S
C1083 H1067 0.959 . S
C1083 H1068 0.959 . S
C1083 H1069 0.961 . S
C1083 C1082 1.502 . S
C1084 H1070 0.960 1_455 S
C1084 H1071 0.961 . S
C1084 H1072 0.959 . S
C1084 C1082 1.561 1_455 S
C1085 C1082 1.526 1_455 S
C1085 C1086 1.396 . S
C1085 C1090 1.390 . S
C1086 C1080 1.465 . S
C1086 C1085 1.396 . S
C1086 C1087 1.399 . S
C1087 H1073 0.929 . S
C1087 C1086 1.399 . S
C1087 C1088 1.385 . S
C1088 H1074 0.931 . S
C1088 C1087 1.385 . S
C1088 C1089 1.389 . S
C1089 C1088 1.389 . S
C1089 C1090 1.387 . S
C1090 H1075 0.930 . S
C1090 C1085 1.390 . S
C1090 C1089 1.387 . S
H1091 C1103 0.930 . S
H1092 C1105 0.930 . S
H1093 C1106 0.930 . S
H1094 C1110 0.959 1_455 S
H1095 C1110 0.959 . S
H1096 C1110 0.961 . S
H1097 C1111 0.960 . S
H1098 C1111 0.961 1_565 S
H1099 C1111 0.959 1_565 S
H1100 C1114 0.929 . S
H1101 C1115 0.931 . S
H1102 C1117 0.930 . S
C1103 H1091 0.930 . S
C1103 C1104 1.399 . S
C1103 C1108 1.399 . S
C1104 C1103 1.399 . S
C1104 C1105 1.376 1_655 S
C1105 H1092 0.930 . S
C1105 C1104 1.376 1_455 S
C1105 C1106 1.388 . S
C1106 H1093 0.930 . S
C1106 C1105 1.388 . S
C1106 C1107 1.390 . S
C1107 C1106 1.390 . S
C1107 C1108 1.394 1_455 S
C1107 C1113 1.465 . S
C1108 C1103 1.399 . S
C1108 C1107 1.394 1_655 S
C1108 C1109 1.516 . S
C1109 C1108 1.516 . S
C1109 C1110 1.502 . S
C1109 C1111 1.561 . S
C1109 C1112 1.526 1_655 S
C1110 H1094 0.959 1_655 S
C1110 H1095 0.959 . S
C1110 H1096 0.961 . S
C1110 C1109 1.502 . S
C1111 H1097 0.960 . S
C1111 H1098 0.961 1_545 S
C1111 H1099 0.959 1_545 S
C1111 C1109 1.561 . S
C1112 C1109 1.526 1_455 S
C1112 C1113 1.396 . S
C1112 C1117 1.390 1_545 S
C1113 C1107 1.465 . S
C1113 C1112 1.396 . S
C1113 C1114 1.399 1_545 S
C1114 H1100 0.929 . S
C1114 C1113 1.399 1_565 S
C1114 C1115 1.385 . S
C1115 H1101 0.931 . S
C1115 C1114 1.385 . S
C1115 C1116 1.389 . S
C1116 C1115 1.389 . S
C1116 C1117 1.387 . S
C1117 H1102 0.930 . S
C1117 C1112 1.390 1_565 S
C1117 C1116 1.387 . S
H1118 C1130 0.930 . S
H1119 C1132 0.930 . S
H1120 C1133 0.930 1_565 S
H1121 C1137 0.959 . S
H1122 C1137 0.959 . S
H1123 C1137 0.961 . S
H1124 C1138 0.960 . S
H1125 C1138 0.961 . S
H1126 C1138 0.959 . S
H1127 C1141 0.929 . S
H1128 C1142 0.931 . S
H1129 C1144 0.930 . S
C1130 H1118 0.930 . S
C1130 C1131 1.399 . S
C1130 C1135 1.399 . S
C1131 C1130 1.399 . S
C1131 C1132 1.376 . S
C1132 H1119 0.930 . S
C1132 C1131 1.376 . S
C1132 C1133 1.388 . S
C1133 H1120 0.930 1_545 S
C1133 C1132 1.388 . S
C1133 C1134 1.390 . S
C1134 C1133 1.390 . S
C1134 C1135 1.394 . S
C1134 C1140 1.465 . S
C1135 C1130 1.399 . S
C1135 C1134 1.394 . S
C1135 C1136 1.516 . S
C1136 C1135 1.516 . S
C1136 C1137 1.502 . S
C1136 C1138 1.561 . S
C1136 C1139 1.526 . S
C1137 H1121 0.959 . S
C1137 H1122 0.959 . S
C1137 H1123 0.961 . S
C1137 C1136 1.502 . S
C1138 H1124 0.960 . S
C1138 H1125 0.961 . S
C1138 H1126 0.959 . S
C1138 C1136 1.561 . S
C1139 C1136 1.526 . S
C1139 C1140 1.396 . S
C1139 C1144 1.390 . S
C1140 C1134 1.465 . S
C1140 C1139 1.396 . S
C1140 C1141 1.399 1_545 S
C1141 H1127 0.929 . S
C1141 C1140 1.399 1_565 S
C1141 C1142 1.385 . S
C1142 H1128 0.931 . S
C1142 C1141 1.385 . S
C1142 C1143 1.389 . S
C1143 C1142 1.389 . S
C1143 C1144 1.387 1_565 S
C1144 H1129 0.930 . S
C1144 C1139 1.390 . S
C1144 C1143 1.387 1_545 S
H1145 C1157 0.930 . S
H1146 C1159 0.930 . S
H1147 C1160 0.930 . S
H1148 C1164 0.959 . S
H1149 C1164 0.959 . S
H1150 C1164 0.961 . S
H1151 C1165 0.960 . S
H1152 C1165 0.961 . S
H1153 C1165 0.959 . S
H1154 C1168 0.929 . S
H1155 C1169 0.931 . S
H1156 C1171 0.930 . S
C1157 H1145 0.930 . S
C1157 C1158 1.399 . S
C1157 C1162 1.399 . S
C1158 C1157 1.399 . S
C1158 C1159 1.376 . S
C1159 H1146 0.930 . S
C1159 C1158 1.376 . S
C1159 C1160 1.388 . S
C1160 H1147 0.930 . S
C1160 C1159 1.388 . S
C1160 C1161 1.390 . S
C1161 C1160 1.390 . S
C1161 C1162 1.394 . S
C1161 C1167 1.465 . S
C1162 C1157 1.399 . S
C1162 C1161 1.394 . S
C1162 C1163 1.516 . S
C1163 C1162 1.516 . S
C1163 C1164 1.502 . S
C1163 C1165 1.561 . S
C1163 C1166 1.526 . S
C1164 H1148 0.959 . S
C1164 H1149 0.959 . S
C1164 H1150 0.961 . S
C1164 C1163 1.502 . S
C1165 H1151 0.960 . S
C1165 H1152 0.961 . S
C1165 H1153 0.959 . S
C1165 C1163 1.561 . S
C1166 C1163 1.526 . S
C1166 C1167 1.396 . S
C1166 C1171 1.390 . S
C1167 C1161 1.465 . S
C1167 C1166 1.396 . S
C1167 C1168 1.399 . S
C1168 H1154 0.929 . S
C1168 C1167 1.399 . S
C1168 C1169 1.385 . S
C1169 H1155 0.931 . S
C1169 C1168 1.385 . S
C1169 C1170 1.389 . S
C1170 C1169 1.389 . S
C1170 C1171 1.387 . S
C1171 H1156 0.930 . S
C1171 C1166 1.390 . S
C1171 C1170 1.387 . S
H1172 C1184 0.930 . S
H1173 C1186 0.930 . S
H1174 C1187 0.930 . S
H1175 C1191 0.959 . S
H1176 C1191 0.959 . S
H1177 C1191 0.961 . S
H1178 C1192 0.960 . S
H1179 C1192 0.961 . S
H1180 C1192 0.959 . S
H1181 C1195 0.929 . S
H1182 C1196 0.931 . S
H1183 C1198 0.930 . S
C1184 H1172 0.930 . S
C1184 C1185 1.399 . S
C1184 C1189 1.399 . S
C1185 C1184 1.399 . S
C1185 C1186 1.376 . S
C1186 H1173 0.930 . S
C1186 C1185 1.376 . S
C1186 C1187 1.388 . S
C1187 H1174 0.930 . S
C1187 C1186 1.388 . S
C1187 C1188 1.390 . S
C1188 C1187 1.390 . S
C1188 C1189 1.394 . S
C1188 C1194 1.465 . S
C1189 C1184 1.399 . S
C1189 C1188 1.394 . S
C1189 C1190 1.516 . S
C1190 C1189 1.516 . S
C1190 C1191 1.502 1_455 S
C1190 C1192 1.561 . S
C1190 C1193 1.526 . S
C1191 H1175 0.959 . S
C1191 H1176 0.959 . S
C1191 H1177 0.961 . S
C1191 C1190 1.502 1_655 S
C1192 H1178 0.960 . S
C1192 H1179 0.961 . S
C1192 H1180 0.959 . S
C1192 C1190 1.561 . S
C1193 C1190 1.526 . S
C1193 C1194 1.396 . S
C1193 C1198 1.390 1_455 S
C1194 C1188 1.465 . S
C1194 C1193 1.396 . S
C1194 C1195 1.399 . S
C1195 H1181 0.929 . S
C1195 C1194 1.399 . S
C1195 C1196 1.385 . S
C1196 H1182 0.931 . S
C1196 C1195 1.385 . S
C1196 C1197 1.389 1_455 S
C1197 C1196 1.389 1_655 S
C1197 C1198 1.387 . S
C1198 H1183 0.930 . S
C1198 C1193 1.390 1_655 S
C1198 C1197 1.387 . S
H1199 C1211 0.930 . S
H1200 C1213 0.930 . S
H1201 C1214 0.930 . S
H1202 C1218 0.959 . S
H1203 C1218 0.959 . S
H1204 C1218 0.961 . S
H1205 C1219 0.960 . S
H1206 C1219 0.961 . S
H1207 C1219 0.959 . S
H1208 C1222 0.940 . S
H1209 C1223 0.931 . S
H1210 C1225 0.930 . S
C1211 H1199 0.930 . S
C1211 C1212 1.399 1_545 S
C1211 C1216 1.399 . S
C1212 C1211 1.399 1_565 S
C1212 C1213 1.376 . S
C1213 H1200 0.930 . S
C1213 C1212 1.376 . S
C1213 C1214 1.388 . S
C1214 H1201 0.930 . S
C1214 C1213 1.388 . S
C1214 C1215 1.381 1_565 S
C1215 C1214 1.381 1_545 S
C1215 C1216 1.401 . S
C1215 C1221 1.469 . S
C1216 C1211 1.399 . S
C1216 C1215 1.401 . S
C1216 C1217 1.516 . S
C1217 C1216 1.516 . S
C1217 C1218 1.502 1_455 S
C1217 C1219 1.561 . S
C1217 C1220 1.526 . S
C1218 H1202 0.959 . S
C1218 H1203 0.959 . S
C1218 H1204 0.961 . S
C1218 C1217 1.502 1_655 S
C1219 H1205 0.960 . S
C1219 H1206 0.961 . S
C1219 H1207 0.959 . S
C1219 C1217 1.561 . S
C1220 C1217 1.526 . S
C1220 C1221 1.396 . S
C1220 C1225 1.390 1_455 S
C1221 C1215 1.469 . S
C1221 C1220 1.396 . S
C1221 C1222 1.394 1_545 S
C1222 H1208 0.940 . S
C1222 C1221 1.394 1_565 S
C1222 C1223 1.379 1_565 S
C1223 H1209 0.931 . S
C1223 C1222 1.379 1_545 S
C1223 C1224 1.389 1_455 S
C1224 C1223 1.389 1_655 S
C1224 C1225 1.387 . S
C1225 H1210 0.930 . S
C1225 C1220 1.390 1_655 S
C1225 C1224 1.387 . S
H1226 C1238 0.930 . S
H1227 C1240 0.930 . S
H1228 C1241 0.930 . S
H1229 C1245 0.959 1_545 S
H1230 C1245 0.959 . S
H1231 C1245 0.961 . S
H1232 C1246 0.960 . S
H1233 C1246 0.961 . S
H1234 C1246 0.959 . S
H1235 C1249 0.929 . S
H1236 C1250 0.931 . S
H1237 C1252 0.930 . S
C1238 H1226 0.930 . S
C1238 C1239 1.399 . S
C1238 C1243 1.399 . S
C1239 C1238 1.399 . S
C1239 C1240 1.376 . S
C1240 H1227 0.930 . S
C1240 C1239 1.376 . S
C1240 C1241 1.388 . S
C1241 H1228 0.930 . S
C1241 C1240 1.388 . S
C1241 C1242 1.390 . S
C1242 C1241 1.390 . S
C1242 C1243 1.394 . S
C1242 C1248 1.465 . S
C1243 C1238 1.399 . S
C1243 C1242 1.394 . S
C1243 C1244 1.516 1_545 S
C1244 C1243 1.516 1_565 S
C1244 C1245 1.502 . S
C1244 C1246 1.561 . S
C1244 C1247 1.526 . S
C1245 H1229 0.959 1_565 S
C1245 H1230 0.959 . S
C1245 H1231 0.961 . S
C1245 C1244 1.502 . S
C1246 H1232 0.960 . S
C1246 H1233 0.961 . S
C1246 H1234 0.959 . S
C1246 C1244 1.561 . S
C1247 C1244 1.526 . S
C1247 C1248 1.396 1_565 S
C1247 C1252 1.390 . S
C1248 C1242 1.465 . S
C1248 C1247 1.396 1_545 S
C1248 C1249 1.399 . S
C1249 H1235 0.929 . S
C1249 C1248 1.399 . S
C1249 C1250 1.385 . S
C1250 H1236 0.931 . S
C1250 C1249 1.385 . S
C1250 C1251 1.389 1_545 S
C1251 C1250 1.389 1_565 S
C1251 C1252 1.387 . S
C1252 H1237 0.930 . S
C1252 C1247 1.390 . S
C1252 C1251 1.387 . S
H1253 C1265 0.930 . S
H1254 C1267 0.930 . S
H1255 C1268 0.930 . S
H1256 C1272 0.959 . S
H1257 C1272 0.959 . S
H1258 C1272 0.961 . S
H1259 C1273 0.960 . S
H1260 C1273 0.961 . S
H1261 C1273 0.959 . S
H1262 C1276 0.929 . S
H1263 C1277 0.931 . S
H1264 C1279 0.930 . S
C1265 H1253 0.930 . S
C1265 C1266 1.399 . S
C1265 C1270 1.399 . S
C1266 C1265 1.399 . S
C1266 C1267 1.376 . S
C1267 H1254 0.930 . S
C1267 C1266 1.376 . S
C1267 C1268 1.388 . S
C1268 H1255 0.930 . S
C1268 C1267 1.388 . S
C1268 C1269 1.390 . S
C1269 C1268 1.390 . S
C1269 C1270 1.394 . S
C1269 C1275 1.465 . S
C1270 C1265 1.399 . S
C1270 C1269 1.394 . S
C1270 C1271 1.516 . S
C1271 C1270 1.516 . S
C1271 C1272 1.502 . S
C1271 C1273 1.561 . S
C1271 C1274 1.526 . S
C1272 H1256 0.959 . S
C1272 H1257 0.959 . S
C1272 H1258 0.961 . S
C1272 C1271 1.502 . S
C1273 H1259 0.960 . S
C1273 H1260 0.961 . S
C1273 H1261 0.959 . S
C1273 C1271 1.561 . S
C1274 C1271 1.526 . S
C1274 C1275 1.396 . S
C1274 C1279 1.390 . S
C1275 C1269 1.465 . S
C1275 C1274 1.396 . S
C1275 C1276 1.399 . S
C1276 H1262 0.929 . S
C1276 C1275 1.399 . S
C1276 C1277 1.385 . S
C1277 H1263 0.931 . S
C1277 C1276 1.385 . S
C1277 C1278 1.389 . S
C1278 C1277 1.389 . S
C1278 C1279 1.387 . S
C1279 H1264 0.930 . S
C1279 C1274 1.390 . S
C1279 C1278 1.387 . S
H1280 C1292 0.930 . S
H1281 C1294 0.930 . S
H1282 C1295 0.930 . S
H1283 C1299 0.959 . S
H1284 C1299 0.959 . S
H1285 C1299 0.961 . S
H1286 C1300 0.960 . S
H1287 C1300 0.961 . S
H1288 C1300 0.959 . S
H1289 C1303 0.929 . S
H1290 C1304 0.931 . S
H1291 C1306 0.930 . S
C1292 H1280 0.930 . S
C1292 C1293 1.399 . S
C1292 C1297 1.399 . S
C1293 C1292 1.399 . S
C1293 C1294 1.376 . S
C1294 H1281 0.930 . S
C1294 C1293 1.376 . S
C1294 C1295 1.388 . S
C1295 H1282 0.930 . S
C1295 C1294 1.388 . S
C1295 C1296 1.390 . S
C1296 C1295 1.390 . S
C1296 C1297 1.394 . S
C1296 C1302 1.465 . S
C1297 C1292 1.399 . S
C1297 C1296 1.394 . S
C1297 C1298 1.516 . S
C1298 C1297 1.516 . S
C1298 C1299 1.502 . S
C1298 C1300 1.561 . S
C1298 C1301 1.526 . S
C1299 H1283 0.959 . S
C1299 H1284 0.959 . S
C1299 H1285 0.961 . S
C1299 C1298 1.502 . S
C1300 H1286 0.960 . S
C1300 H1287 0.961 . S
C1300 H1288 0.959 . S
C1300 C1298 1.561 . S
C1301 C1298 1.526 . S
C1301 C1302 1.396 . S
C1301 C1306 1.390 . S
C1302 C1296 1.465 . S
C1302 C1301 1.396 . S
C1302 C1303 1.399 . S
C1303 H1289 0.929 . S
C1303 C1302 1.399 . S
C1303 C1304 1.385 . S
C1304 H1290 0.931 . S
C1304 C1303 1.385 . S
C1304 C1305 1.389 . S
C1305 C1304 1.389 . S
C1305 C1306 1.387 . S
C1306 H1291 0.930 . S
C1306 C1301 1.390 . S
C1306 C1305 1.387 . S
H1307 C1319 0.930 . S
H1308 C1321 0.930 . S
H1309 C1322 0.930 . S
H1310 C1326 0.959 . S
H1311 C1326 0.959 . S
H1312 C1326 0.961 . S
H1313 C1327 0.960 . S
H1314 C1327 0.961 . S
H1315 C1327 0.959 . S
H1316 C1330 0.929 . S
H1317 C1331 0.931 . S
H1318 C1333 0.930 . S
C1319 H1307 0.930 . S
C1319 C1320 1.399 . S
C1319 C1324 1.399 . S
C1320 C1319 1.399 . S
C1320 C1321 1.376 . S
C1321 H1308 0.930 . S
C1321 C1320 1.376 . S
C1321 C1322 1.388 . S
C1322 H1309 0.930 . S
C1322 C1321 1.388 . S
C1322 C1323 1.390 . S
C1323 C1322 1.390 . S
C1323 C1324 1.394 . S
C1323 C1329 1.465 . S
C1324 C1319 1.399 . S
C1324 C1323 1.394 . S
C1324 C1325 1.516 . S
C1325 C1324 1.516 . S
C1325 C1326 1.502 . S
C1325 C1327 1.561 . S
C1325 C1328 1.526 . S
C1326 H1310 0.959 . S
C1326 H1311 0.959 . S
C1326 H1312 0.961 . S
C1326 C1325 1.502 . S
C1327 H1313 0.960 . S
C1327 H1314 0.961 . S
C1327 H1315 0.959 . S
C1327 C1325 1.561 . S
C1328 C1325 1.526 . S
C1328 C1329 1.396 . S
C1328 C1333 1.390 . S
C1329 C1323 1.465 . S
C1329 C1328 1.396 . S
C1329 C1330 1.399 . S
C1330 H1316 0.929 . S
C1330 C1329 1.399 . S
C1330 C1331 1.385 . S
C1331 H1317 0.931 . S
C1331 C1330 1.385 . S
C1331 C1332 1.389 . S
C1332 C1331 1.389 . S
C1332 C1333 1.387 . S
C1333 H1318 0.930 . S
C1333 C1328 1.390 . S
C1333 C1332 1.387 . S
H1334 C1346 0.930 . S
H1335 C1348 0.930 . S
H1336 C1349 0.930 . S
H1337 C1353 0.959 . S
H1338 C1353 0.959 . S
H1339 C1353 0.961 . S
H1340 C1354 0.960 . S
H1341 C1354 0.961 . S
H1342 C1354 0.959 . S
H1343 C1357 0.929 . S
H1344 C1358 0.931 . S
H1345 C1360 0.930 . S
C1346 H1334 0.930 . S
C1346 C1347 1.399 . S
C1346 C1351 1.399 . S
C1347 C1346 1.399 . S
C1347 C1348 1.376 . S
C1348 H1335 0.930 . S
C1348 C1347 1.376 . S
C1348 C1349 1.388 . S
C1349 H1336 0.930 . S
C1349 C1348 1.388 . S
C1349 C1350 1.390 . S
C1350 C1349 1.390 . S
C1350 C1351 1.394 . S
C1350 C1356 1.465 . S
C1351 C1346 1.399 . S
C1351 C1350 1.394 . S
C1351 C1352 1.516 . S
C1352 C1351 1.516 . S
C1352 C1353 1.502 . S
C1352 C1354 1.561 . S
C1352 C1355 1.526 . S
C1353 H1337 0.959 . S
C1353 H1338 0.959 . S
C1353 H1339 0.961 . S
C1353 C1352 1.502 . S
C1354 H1340 0.960 . S
C1354 H1341 0.961 . S
C1354 H1342 0.959 . S
C1354 C1352 1.561 . S
C1355 C1352 1.526 . S
C1355 C1356 1.396 . S
C1355 C1360 1.390 . S
C1356 C1350 1.465 . S
C1356 C1355 1.396 . S
C1356 C1357 1.399 . S
C1357 H1343 0.929 . S
C1357 C1356 1.399 . S
C1357 C1358 1.385 . S
C1358 H1344 0.931 . S
C1358 C1357 1.385 . S
C1358 C1359 1.389 . S
C1359 C1358 1.389 . S
C1359 C1360 1.387 . S
C1360 H1345 0.930 . S
C1360 C1355 1.390 . S
C1360 C1359 1.387 . S
H1361 C1373 0.930 . S
H1362 C1375 0.930 . S
H1363 C1376 0.930 . S
H1364 C1380 0.959 . S
H1365 C1380 0.959 . S
H1366 C1380 0.961 . S
H1367 C1381 0.960 . S
H1368 C1381 0.961 . S
H1369 C1381 0.959 . S
H1370 C1384 0.929 . S
H1371 C1385 0.931 . S
H1372 C1387 0.930 . S
C1373 H1361 0.930 . S
C1373 C1374 1.399 . S
C1373 C1378 1.399 . S
C1374 C1373 1.399 . S
C1374 C1375 1.376 . S
C1375 H1362 0.930 . S
C1375 C1374 1.376 . S
C1375 C1376 1.388 . S
C1376 H1363 0.930 . S
C1376 C1375 1.388 . S
C1376 C1377 1.390 . S
C1377 C1376 1.390 . S
C1377 C1378 1.394 . S
C1377 C1383 1.465 . S
C1378 C1373 1.399 . S
C1378 C1377 1.394 . S
C1378 C1379 1.516 . S
C1379 C1378 1.516 . S
C1379 C1380 1.502 . S
C1379 C1381 1.561 . S
C1379 C1382 1.526 . S
C1380 H1364 0.959 . S
C1380 H1365 0.959 . S
C1380 H1366 0.961 . S
C1380 C1379 1.502 . S
C1381 H1367 0.960 . S
C1381 H1368 0.961 . S
C1381 H1369 0.959 . S
C1381 C1379 1.561 . S
C1382 C1379 1.526 . S
C1382 C1383 1.396 . S
C1382 C1387 1.390 . S
C1383 C1377 1.465 . S
C1383 C1382 1.396 . S
C1383 C1384 1.399 . S
C1384 H1370 0.929 . S
C1384 C1383 1.399 . S
C1384 C1385 1.385 . S
C1385 H1371 0.931 . S
C1385 C1384 1.385 . S
C1385 C1386 1.389 . S
C1386 C1385 1.389 . S
C1386 C1387 1.387 . S
C1387 H1372 0.930 . S
C1387 C1382 1.390 . S
C1387 C1386 1.387 . S
H1388 C1400 0.930 . S
H1389 C1402 0.930 . S
H1390 C1403 0.930 . S
H1391 C1407 0.959 . S
H1392 C1407 0.959 . S
H1393 C1407 0.961 . S
H1394 C1408 0.960 . S
H1395 C1408 0.961 . S
H1396 C1408 0.959 . S
H1397 C1411 0.929 . S
H1398 C1412 0.931 . S
H1399 C1414 0.930 . S
C1400 H1388 0.930 . S
C1400 C1401 1.399 . S
C1400 C1405 1.399 . S
C1401 C1400 1.399 . S
C1401 C1402 1.376 . S
C1402 H1389 0.930 . S
C1402 C1401 1.376 . S
C1402 C1403 1.388 . S
C1403 H1390 0.930 . S
C1403 C1402 1.388 . S
C1403 C1404 1.390 . S
C1404 C1403 1.390 . S
C1404 C1405 1.394 . S
C1404 C1410 1.465 . S
C1405 C1400 1.399 . S
C1405 C1404 1.394 . S
C1405 C1406 1.516 . S
C1406 C1405 1.516 . S
C1406 C1407 1.502 . S
C1406 C1408 1.561 . S
C1406 C1409 1.526 . S
C1407 H1391 0.959 . S
C1407 H1392 0.959 . S
C1407 H1393 0.961 . S
C1407 C1406 1.502 . S
C1408 H1394 0.960 . S
C1408 H1395 0.961 . S
C1408 H1396 0.959 . S
C1408 C1406 1.561 . S
C1409 C1406 1.526 . S
C1409 C1410 1.396 . S
C1409 C1414 1.390 . S
C1410 C1404 1.465 . S
C1410 C1409 1.396 . S
C1410 C1411 1.399 . S
C1411 H1397 0.929 . S
C1411 C1410 1.399 . S
C1411 C1412 1.385 . S
C1412 H1398 0.931 . S
C1412 C1411 1.385 . S
C1412 C1413 1.389 . S
C1413 C1412 1.389 . S
C1413 C1414 1.387 . S
C1414 H1399 0.930 . S
C1414 C1409 1.390 . S
C1414 C1413 1.387 . S
H1415 C1427 0.930 . S
H1416 C1429 0.930 . S
H1417 C1430 0.930 . S
H1418 C1434 0.959 . S
H1419 C1434 0.959 . S
H1420 C1434 0.961 . S
H1421 C1435 0.960 . S
H1422 C1435 0.961 . S
H1423 C1435 0.959 . S
H1424 C1438 0.929 . S
H1425 C1439 0.931 . S
H1426 C1441 0.930 . S
C1427 H1415 0.930 . S
C1427 C1428 1.399 . S
C1427 C1432 1.399 . S
C1428 C1427 1.399 . S
C1428 C1429 1.376 . S
C1429 H1416 0.930 . S
C1429 C1428 1.376 . S
C1429 C1430 1.388 . S
C1430 H1417 0.930 . S
C1430 C1429 1.388 . S
C1430 C1431 1.390 . S
C1431 C1430 1.390 . S
C1431 C1432 1.394 . S
C1431 C1437 1.465 . S
C1432 C1427 1.399 . S
C1432 C1431 1.394 . S
C1432 C1433 1.516 . S
C1433 C1432 1.516 . S
C1433 C1434 1.502 . S
C1433 C1435 1.561 . S
C1433 C1436 1.526 . S
C1434 H1418 0.959 . S
C1434 H1419 0.959 . S
C1434 H1420 0.961 . S
C1434 C1433 1.502 . S
C1435 H1421 0.960 . S
C1435 H1422 0.961 . S
C1435 H1423 0.959 . S
C1435 C1433 1.561 . S
C1436 C1433 1.526 . S
C1436 C1437 1.396 . S
C1436 C1441 1.390 . S
C1437 C1431 1.465 . S
C1437 C1436 1.396 . S
C1437 C1438 1.399 . S
C1438 H1424 0.929 . S
C1438 C1437 1.399 . S
C1438 C1439 1.385 . S
C1439 H1425 0.931 . S
C1439 C1438 1.385 . S
C1439 C1440 1.389 . S
C1440 C1439 1.389 . S
C1440 C1441 1.387 . S
C1441 H1426 0.930 . S
C1441 C1436 1.390 . S
C1441 C1440 1.387 . S
H1442 C1454 0.930 . S
H1443 C1456 0.930 . S
H1444 C1457 0.930 . S
H1445 C1461 0.959 . S
H1446 C1461 0.959 . S
H1447 C1461 0.961 . S
H1448 C1462 0.960 . S
H1449 C1462 0.961 . S
H1450 C1462 0.959 . S
H1451 C1465 0.929 . S
H1452 C1466 0.931 . S
H1453 C1468 0.930 . S
C1454 H1442 0.930 . S
C1454 C1455 1.399 . S
C1454 C1459 1.399 . S
C1455 C1454 1.399 . S
C1455 C1456 1.376 . S
C1456 H1443 0.930 . S
C1456 C1455 1.376 . S
C1456 C1457 1.388 . S
C1457 H1444 0.930 . S
C1457 C1456 1.388 . S
C1457 C1458 1.390 . S
C1458 C1457 1.390 . S
C1458 C1459 1.394 . S
C1458 C1464 1.465 . S
C1459 C1454 1.399 . S
C1459 C1458 1.394 . S
C1459 C1460 1.516 . S
C1460 C1459 1.516 . S
C1460 C1461 1.502 . S
C1460 C1462 1.561 . S
C1460 C1463 1.526 . S
C1461 H1445 0.959 . S
C1461 H1446 0.959 . S
C1461 H1447 0.961 . S
C1461 C1460 1.502 . S
C1462 H1448 0.960 . S
C1462 H1449 0.961 . S
C1462 H1450 0.959 . S
C1462 C1460 1.561 . S
C1463 C1460 1.526 . S
C1463 C1464 1.396 . S
C1463 C1468 1.390 . S
C1464 C1458 1.465 . S
C1464 C1463 1.396 . S
C1464 C1465 1.399 . S
C1465 H1451 0.929 . S
C1465 C1464 1.399 . S
C1465 C1466 1.385 . S
C1466 H1452 0.931 . S
C1466 C1465 1.385 . S
C1466 C1467 1.389 . S
C1467 C1466 1.389 . S
C1467 C1468 1.387 . S
C1468 H1453 0.930 . S
C1468 C1463 1.390 . S
C1468 C1467 1.387 . S
H1469 C1481 0.930 . S
H1470 C1483 0.930 . S
H1471 C1484 0.930 . S
H1472 C1488 0.959 . S
H1473 C1488 0.959 . S
H1474 C1488 0.961 . S
H1475 C1489 0.960 . S
H1476 C1489 0.961 . S
H1477 C1489 0.959 . S
H1478 C1492 0.929 . S
H1479 C1493 0.931 . S
H1480 C1495 0.930 . S
C1481 H1469 0.930 . S
C1481 C1482 1.399 . S
C1481 C1486 1.399 . S
C1482 C1481 1.399 . S
C1482 C1483 1.376 . S
C1483 H1470 0.930 . S
C1483 C1482 1.376 . S
C1483 C1484 1.388 . S
C1484 H1471 0.930 . S
C1484 C1483 1.388 . S
C1484 C1485 1.390 . S
C1485 C1484 1.390 . S
C1485 C1486 1.394 . S
C1485 C1491 1.465 . S
C1486 C1481 1.399 . S
C1486 C1485 1.394 . S
C1486 C1487 1.516 . S
C1487 C1486 1.516 . S
C1487 C1488 1.502 . S
C1487 C1489 1.561 . S
C1487 C1490 1.526 . S
C1488 H1472 0.959 . S
C1488 H1473 0.959 . S
C1488 H1474 0.961 . S
C1488 C1487 1.502 . S
C1489 H1475 0.960 . S
C1489 H1476 0.961 . S
C1489 H1477 0.959 . S
C1489 C1487 1.561 . S
C1490 C1487 1.526 . S
C1490 C1491 1.396 . S
C1490 C1495 1.390 . S
C1491 C1485 1.465 . S
C1491 C1490 1.396 . S
C1491 C1492 1.399 . S
C1492 H1478 0.929 . S
C1492 C1491 1.399 . S
C1492 C1493 1.385 . S
C1493 H1479 0.931 . S
C1493 C1492 1.385 . S
C1493 C1494 1.389 . S
C1494 C1493 1.389 . S
C1494 C1495 1.387 . S
C1495 H1480 0.930 . S
C1495 C1490 1.390 . S
C1495 C1494 1.387 . S
H1496 C1508 0.940 . S
H1497 C1510 0.930 . S
H1498 C1511 0.930 . S
H1499 C1515 0.959 1_655 S
H1500 C1515 0.959 . S
H1501 C1515 0.961 . S
H1502 C1516 0.960 . S
H1503 C1516 0.961 . S
H1504 C1516 0.959 . S
H1505 C1519 0.929 1_554 S
H1506 C1520 0.931 . S
H1507 C1522 0.930 . S
C1508 H1496 0.940 . S
C1508 C1509 1.382 1_556 S
C1508 C1513 1.406 . S
C1509 C1508 1.382 1_554 S
C1509 C1510 1.376 . S
C1510 H1497 0.930 . S
C1510 C1509 1.376 . S
C1510 C1511 1.388 . S
C1511 H1498 0.930 . S
C1511 C1510 1.388 . S
C1511 C1512 1.390 . S
C1512 C1511 1.390 . S
C1512 C1513 1.394 1_554 S
C1512 C1518 1.465 1_454 S
C1513 C1508 1.406 . S
C1513 C1512 1.394 1_556 S
C1513 C1514 1.516 . S
C1514 C1513 1.516 . S
C1514 C1515 1.502 . S
C1514 C1516 1.561 . S
C1514 C1517 1.526 1_455 S
C1515 H1499 0.959 1_455 S
C1515 H1500 0.959 . S
C1515 H1501 0.961 . S
C1515 C1514 1.502 . S
C1516 H1502 0.960 . S
C1516 H1503 0.961 . S
C1516 H1504 0.959 . S
C1516 C1514 1.561 . S
C1517 C1514 1.526 1_655 S
C1517 C1518 1.396 . S
C1517 C1522 1.390 . S
C1518 C1512 1.465 1_656 S
C1518 C1517 1.396 . S
C1518 C1519 1.399 . S
C1519 H1505 0.929 1_556 S
C1519 C1518 1.399 . S
C1519 C1520 1.385 . S
C1520 H1506 0.931 . S
C1520 C1519 1.385 . S
C1520 C1521 1.389 . S
C1521 C1520 1.389 . S
C1521 C1522 1.387 . S
C1522 H1507 0.930 . S
C1522 C1517 1.390 . S
C1522 C1521 1.387 . S
H1523 C1535 0.930 . S
H1524 C1537 0.930 . S
H1525 C1538 0.930 1_554 S
H1526 C1542 0.959 . S
H1527 C1542 0.959 . S
H1528 C1542 0.961 . S
H1529 C1543 0.960 . S
H1530 C1543 0.961 . S
H1531 C1543 0.959 1_655 S
H1532 C1546 0.936 . S
H1533 C1547 0.931 . S
H1534 C1549 0.919 1_556 S
C1535 H1523 0.930 . S
C1535 C1536 1.399 . S
C1535 C1540 1.417 . S
C1536 C1535 1.399 . S
C1536 C1537 1.376 . S
C1537 H1524 0.930 . S
C1537 C1536 1.376 . S
C1537 C1538 1.388 . S
C1538 H1525 0.930 1_556 S
C1538 C1537 1.388 . S
C1538 C1539 1.390 . S
C1539 C1538 1.390 . S
C1539 C1540 1.403 . S
C1539 C1545 1.465 1_566 S
C1540 C1535 1.417 . S
C1540 C1539 1.403 . S
C1540 C1541 1.489 1_565 S
C1541 C1540 1.489 1_545 S
C1541 C1542 1.502 . S
C1541 C1543 1.561 . S
C1541 C1544 1.526 . S
C1542 H1526 0.959 . S
C1542 H1527 0.959 . S
C1542 H1528 0.961 . S
C1542 C1541 1.502 . S
C1543 H1529 0.960 . S
C1543 H1530 0.961 . S
C1543 H1531 0.959 1_455 S
C1543 C1541 1.561 . S
C1544 C1541 1.526 . S
C1544 C1545 1.396 1_556 S
C1544 C1549 1.382 1_556 S
C1545 C1539 1.465 1_544 S
C1545 C1544 1.396 1_554 S
C1545 C1546 1.399 1_455 S
C1546 H1532 0.936 . S
C1546 C1545 1.399 1_655 S
C1546 C1547 1.385 . S
C1547 H1533 0.931 . S
C1547 C1546 1.385 . S
C1547 C1548 1.389 . S
C1548 C1547 1.389 . S
C1548 C1549 1.406 1_655 S
C1549 H1534 0.919 1_554 S
C1549 C1544 1.382 1_554 S
C1549 C1548 1.406 1_455 S
H1550 C1562 0.930 1_556 S
H1551 C1564 0.930 . S
H1552 C1565 0.930 . S
H1553 C1569 0.959 . S
H1554 C1569 0.959 . S
H1555 C1569 0.961 . S
H1556 C1570 0.960 . S
H1557 C1570 0.961 . S
H1558 C1570 0.959 . S
H1559 C1573 0.929 1_554 S
H1560 C1574 0.931 . S
H1561 C1576 0.930 . S
C1562 H1550 0.930 1_554 S
C1562 C1563 1.385 1_545 S
C1562 C1567 1.399 1_554 S
C1563 C1562 1.385 1_565 S
C1563 C1564 1.385 . S
C1564 H1551 0.930 . S
C1564 C1563 1.385 . S
C1564 C1565 1.388 . S
C1565 H1552 0.930 . S
C1565 C1564 1.388 . S
C1565 C1566 1.390 1_565 S
C1566 C1565 1.390 1_545 S
C1566 C1567 1.394 1_554 S
C1566 C1572 1.465 1_554 S
C1567 C1562 1.399 1_556 S
C1567 C1566 1.394 1_556 S
C1567 C1568 1.516 . S
C1568 C1567 1.516 . S
C1568 C1569 1.502 . S
C1568 C1570 1.561 . S
C1568 C1571 1.526 . S
C1569 H1553 0.959 . S
C1569 H1554 0.959 . S
C1569 H1555 0.961 . S
C1569 C1568 1.502 . S
C1570 H1556 0.960 . S
C1570 H1557 0.961 . S
C1570 H1558 0.959 . S
C1570 C1568 1.561 . S
C1571 C1568 1.526 . S
C1571 C1572 1.396 . S
C1571 C1576 1.390 . S
C1572 C1566 1.465 1_556 S
C1572 C1571 1.396 . S
C1572 C1573 1.399 . S
C1573 H1559 0.929 1_556 S
C1573 C1572 1.399 . S
C1573 C1574 1.385 . S
C1574 H1560 0.931 . S
C1574 C1573 1.385 . S
C1574 C1575 1.389 . S
C1575 C1574 1.389 . S
C1575 C1576 1.387 . S
C1576 H1561 0.930 . S
C1576 C1571 1.390 . S
C1576 C1575 1.387 . S
H1577 C1589 0.930 . S
H1578 C1591 0.930 . S
H1579 C1592 0.930 . S
H1580 C1596 0.959 . S
H1581 C1596 0.959 . S
H1582 C1596 0.961 . S
H1583 C1597 0.960 . S
H1584 C1597 0.961 . S
H1585 C1597 0.959 . S
H1586 C1600 0.929 . S
H1587 C1601 0.931 . S
H1588 C1603 0.930 . S
C1589 H1577 0.930 . S
C1589 C1590 1.399 . S
C1589 C1594 1.399 . S
C1590 C1589 1.399 . S
C1590 C1591 1.376 . S
C1591 H1578 0.930 . S
C1591 C1590 1.376 . S
C1591 C1592 1.388 . S
C1592 H1579 0.930 . S
C1592 C1591 1.388 . S
C1592 C1593 1.390 . S
C1593 C1592 1.390 . S
C1593 C1594 1.394 . S
C1593 C1599 1.465 . S
C1594 C1589 1.399 . S
C1594 C1593 1.394 . S
C1594 C1595 1.516 1_556 S
C1595 C1594 1.516 1_554 S
C1595 C1596 1.502 . S
C1595 C1597 1.561 . S
C1595 C1598 1.526 . S
C1596 H1580 0.959 . S
C1596 H1581 0.959 . S
C1596 H1582 0.961 . S
C1596 C1595 1.502 . S
C1597 H1583 0.960 . S
C1597 H1584 0.961 . S
C1597 H1585 0.959 . S
C1597 C1595 1.561 . S
C1598 C1595 1.526 . S
C1598 C1599 1.396 1_554 S
C1598 C1603 1.390 . S
C1599 C1593 1.465 . S
C1599 C1598 1.396 1_556 S
C1599 C1600 1.399 . S
C1600 H1586 0.929 . S
C1600 C1599 1.399 . S
C1600 C1601 1.385 . S
C1601 H1587 0.931 . S
C1601 C1600 1.385 . S
C1601 C1602 1.389 1_556 S
C1602 C1601 1.389 1_554 S
C1602 C1603 1.387 . S
C1603 H1588 0.930 . S
C1603 C1598 1.390 . S
C1603 C1602 1.387 . S
H1604 C1616 0.930 1_565 S
H1605 C1618 0.930 . S
H1606 C1619 0.930 . S
H1607 C1623 0.959 . S
H1608 C1623 0.959 1_545 S
H1609 C1623 0.961 . S
H1610 C1624 0.960 . S
H1611 C1624 0.961 . S
H1612 C1624 0.959 . S
H1613 C1627 0.929 . S
H1614 C1628 0.931 . S
H1615 C1630 0.930 . S
C1616 H1604 0.930 1_545 S
C1616 C1617 1.399 . S
C1616 C1621 1.399 . S
C1617 C1616 1.399 . S
C1617 C1618 1.376 . S
C1618 H1605 0.930 . S
C1618 C1617 1.376 . S
C1618 C1619 1.388 . S
C1619 H1606 0.930 . S
C1619 C1618 1.388 . S
C1619 C1620 1.390 . S
C1620 C1619 1.390 . S
C1620 C1621 1.394 . S
C1620 C1626 1.465 1_455 S
C1621 C1616 1.399 . S
C1621 C1620 1.394 . S
C1621 C1622 1.516 . S
C1622 C1621 1.516 . S
C1622 C1623 1.502 1_545 S
C1622 C1624 1.561 . S
C1622 C1625 1.526 1_455 S
C1623 H1607 0.959 . S
C1623 H1608 0.959 1_565 S
C1623 H1609 0.961 . S
C1623 C1622 1.502 1_565 S
C1624 H1610 0.960 . S
C1624 H1611 0.961 . S
C1624 H1612 0.959 . S
C1624 C1622 1.561 . S
C1625 C1622 1.526 1_655 S
C1625 C1626 1.396 . S
C1625 C1630 1.390 . S
C1626 C1620 1.465 1_655 S
C1626 C1625 1.396 . S
C1626 C1627 1.399 . S
C1627 H1613 0.929 . S
C1627 C1626 1.399 . S
C1627 C1628 1.385 . S
C1628 H1614 0.931 . S
C1628 C1627 1.385 . S
C1628 C1629 1.389 . S
C1629 C1628 1.389 . S
C1629 C1630 1.387 . S
C1630 H1615 0.930 . S
C1630 C1625 1.390 . S
C1630 C1629 1.387 . S
H1631 C1643 0.930 . S
H1632 C1645 0.930 . S
H1633 C1646 0.930 . S
H1634 C1650 0.959 . S
H1635 C1650 0.959 . S
H1636 C1650 0.961 . S
H1637 C1651 0.960 . S
H1638 C1651 0.961 . S
H1639 C1651 0.959 . S
H1640 C1654 0.929 . S
H1641 C1655 0.931 . S
H1642 C1657 0.930 . S
C1643 H1631 0.930 . S
C1643 C1644 1.399 . S
C1643 C1648 1.399 . S
C1644 C1643 1.399 . S
C1644 C1645 1.376 . S
C1645 H1632 0.930 . S
C1645 C1644 1.376 . S
C1645 C1646 1.388 . S
C1646 H1633 0.930 . S
C1646 C1645 1.388 . S
C1646 C1647 1.390 . S
C1647 C1646 1.390 . S
C1647 C1648 1.394 . S
C1647 C1653 1.465 1_545 S
C1648 C1643 1.399 . S
C1648 C1647 1.394 . S
C1648 C1649 1.516 . S
C1649 C1648 1.516 . S
C1649 C1650 1.502 . S
C1649 C1651 1.561 . S
C1649 C1652 1.526 1_545 S
C1650 H1634 0.959 . S
C1650 H1635 0.959 . S
C1650 H1636 0.961 . S
C1650 C1649 1.502 . S
C1651 H1637 0.960 . S
C1651 H1638 0.961 . S
C1651 H1639 0.959 . S
C1651 C1649 1.561 . S
C1652 C1649 1.526 1_565 S
C1652 C1653 1.396 . S
C1652 C1657 1.390 . S
C1653 C1647 1.465 1_565 S
C1653 C1652 1.396 . S
C1653 C1654 1.399 . S
C1654 H1640 0.929 . S
C1654 C1653 1.399 . S
C1654 C1655 1.385 . S
C1655 H1641 0.931 . S
C1655 C1654 1.385 . S
C1655 C1656 1.389 . S
C1656 C1655 1.389 . S
C1656 C1657 1.387 . S
C1657 H1642 0.930 . S
C1657 C1652 1.390 . S
C1657 C1656 1.387 . S
H1658 C1670 0.930 . S
H1659 C1672 0.930 . S
H1660 C1673 0.930 . S
H1661 C1677 0.959 . S
H1662 C1677 0.959 . S
H1663 C1677 0.961 . S
H1664 C1678 0.960 . S
H1665 C1678 0.961 . S
H1666 C1678 0.959 . S
H1667 C1681 0.929 . S
H1668 C1682 0.931 . S
H1669 C1684 0.930 . S
C1670 H1658 0.930 . S
C1670 C1671 1.399 . S
C1670 C1675 1.399 . S
C1671 C1670 1.399 . S
C1671 C1672 1.376 . S
C1672 H1659 0.930 . S
C1672 C1671 1.376 . S
C1672 C1673 1.388 . S
C1673 H1660 0.930 . S
C1673 C1672 1.388 . S
C1673 C1674 1.390 . S
C1674 C1673 1.390 . S
C1674 C1675 1.394 . S
C1674 C1680 1.465 . S
C1675 C1670 1.399 . S
C1675 C1674 1.394 . S
C1675 C1676 1.516 . S
C1676 C1675 1.516 . S
C1676 C1677 1.502 . S
C1676 C1678 1.561 . S
C1676 C1679 1.526 . S
C1677 H1661 0.959 . S
C1677 H1662 0.959 . S
C1677 H1663 0.961 . S
C1677 C1676 1.502 . S
C1678 H1664 0.960 . S
C1678 H1665 0.961 . S
C1678 H1666 0.959 . S
C1678 C1676 1.561 . S
C1679 C1676 1.526 . S
C1679 C1680 1.396 . S
C1679 C1684 1.390 . S
C1680 C1674 1.465 . S
C1680 C1679 1.396 . S
C1680 C1681 1.399 . S
C1681 H1667 0.929 . S
C1681 C1680 1.399 . S
C1681 C1682 1.385 . S
C1682 H1668 0.931 . S
C1682 C1681 1.385 . S
C1682 C1683 1.389 . S
C1683 C1682 1.389 . S
C1683 C1684 1.387 . S
C1684 H1669 0.930 . S
C1684 C1679 1.390 . S
C1684 C1683 1.387 . S
H1685 C1697 0.930 . S
H1686 C1699 0.930 . S
H1687 C1700 0.930 . S
H1688 C1704 0.959 . S
H1689 C1704 0.959 . S
H1690 C1704 0.961 . S
H1691 C1705 0.960 . S
H1692 C1705 0.961 . S
H1693 C1705 0.959 . S
H1694 C1708 0.929 1_655 S
H1695 C1709 0.931 . S
H1696 C1711 0.930 . S
C1697 H1685 0.930 . S
C1697 C1698 1.399 1_455 S
C1697 C1702 1.399 . S
C1698 C1697 1.399 1_655 S
C1698 C1699 1.376 . S
C1699 H1686 0.930 . S
C1699 C1698 1.376 . S
C1699 C1700 1.388 . S
C1700 H1687 0.930 . S
C1700 C1699 1.388 . S
C1700 C1701 1.390 1_655 S
C1701 C1700 1.390 1_455 S
C1701 C1702 1.394 . S
C1701 C1707 1.465 . S
C1702 C1697 1.399 . S
C1702 C1701 1.394 . S
C1702 C1703 1.516 . S
C1703 C1702 1.516 . S
C1703 C1704 1.502 . S
C1703 C1705 1.561 . S
C1703 C1706 1.526 . S
C1704 H1688 0.959 . S
C1704 H1689 0.959 . S
C1704 H1690 0.961 . S
C1704 C1703 1.502 . S
C1705 H1691 0.960 . S
C1705 H1692 0.961 . S
C1705 H1693 0.959 . S
C1705 C1703 1.561 . S
C1706 C1703 1.526 . S
C1706 C1707 1.396 . S
C1706 C1711 1.390 . S
C1707 C1701 1.465 . S
C1707 C1706 1.396 . S
C1707 C1708 1.399 . S
C1708 H1694 0.929 1_455 S
C1708 C1707 1.399 . S
C1708 C1709 1.385 . S
C1709 H1695 0.931 . S
C1709 C1708 1.385 . S
C1709 C1710 1.389 . S
C1710 C1709 1.389 . S
C1710 C1711 1.387 . S
C1711 H1696 0.930 . S
C1711 C1706 1.390 . S
C1711 C1710 1.387 . S
C861 C38 2.493 . S
C873 C144 2.495 . S
C888 C91 2.492 . S
C900 C197 2.492 . S
C915 C250 2.493 . S
C927 C356 2.496 . S
C942 C409 2.491 . S
C954 C303 2.492 . S
C969 C453 1.033 . S
C981 C559 1.031 . S
C996 C612 0.994 . S
C1008 C506 0.997 . S
C1023 C771 0.994 . S
C1035 C665 0.992 . S
C1050 C824 1.031 . S
C1062 C718 1.028 . S
C1077 C410 2.425 . S
C1089 C39 2.417 . S
C1104 C92 2.433 . S
C1116 C251 2.397 . S
C1131 C304 2.402 . S
C1143 C145 2.416 . S
C1158 C198 2.408 . S
C1170 C357 2.431 . S
C1185 C817 0.964 . S
C1197 C446 1.096 . S
C1212 C499 0.964 . S
C1224 C658 1.095 . S
C1239 C552 1.070 . S
C1251 C711 1.026 . S
C1266 C764 1.028 . S
C1278 C605 1.006 . S
C1293 C29 0.789 . S
C1305 C241 0.706 . S
C1320 C82 0.827 . S
C1332 C294 0.799 . S
C1347 C347 0.744 . S
C1359 C135 0.829 . S
C1374 C188 0.834 . S
C1386 C400 0.768 . S
C1401 C674 1.316 . S
C1413 C462 1.336 . S
C1428 C727 1.322 . S
C1440 C515 1.311 . S
C1455 C568 1.358 . S
C1467 C780 1.346 . S
C1482 C621 1.347 . S
C1494 C833 1.357 . S
C1509 C22 2.300 . S
C1521 C463 2.288 . S
C1536 C516 2.319 . S
C1548 C75 2.261 . S
C1563 C128 2.275 . S
C1575 C569 2.318 . S
C1590 C622 2.269 . S
C1602 C181 2.304 . S
C1617 C234 2.284 1_545 S
C1629 C675 2.303 . S
C1644 C287 2.282 . S
C1656 C728 2.304 . S
C1671 C781 2.288 . S
C1683 C340 2.299 . S
C1698 C393 2.277 . S
C1710 C834 2.294 . S
