# Generated by pormake.
# Topology dia, (4)-cn, num edge types: 1
# Building blocks:
#     Node 0, Type 0, BuildingBlock: NAHDIM_clean_sbu_0, # of connection points: 4
#     Node 1, Type 0, BuildingBlock: NAHDIM_clean_sbu_0, # of connection points: 4
#     Node 2, Type 0, BuildingBlock: NAHDIM_clean_sbu_0, # of connection points: 4
#     Node 3, Type 0, BuildingBlock: NAHDIM_clean_sbu_0, # of connection points: 4
#     Node 4, Type 0, BuildingBlock: NAHDIM_clean_sbu_0, # of connection points: 4
#     Node 5, Type 0, BuildingBlock: NAHDIM_clean_sbu_0, # of connection points: 4
#     Node 6, Type 0, BuildingBlock: NAHDIM_clean_sbu_0, # of connection points: 4
#     Node 7, Type 0, BuildingBlock: NAHDIM_clean_sbu_0, # of connection points: 4
#     Edge 8, Type (0, 0), BuildingBlock: AJUNOK_clean_linker_0, # of connection points: 2
#     Edge 9, Type (0, 0), BuildingBlock: AJUNOK_clean_linker_0, # of connection points: 2
#     Edge 10, Type (0, 0), BuildingBlock: AJUNOK_clean_linker_0, # of connection points: 2
#     Edge 11, Type (0, 0), BuildingBlock: AJUNOK_clean_linker_0, # of connection points: 2
#     Edge 12, Type (0, 0), BuildingBlock: AJUNOK_clean_linker_0, # of connection points: 2
#     Edge 13, Type (0, 0), BuildingBlock: AJUNOK_clean_linker_0, # of connection points: 2
#     Edge 14, Type (0, 0), BuildingBlock: AJUNOK_clean_linker_0, # of connection points: 2
#     Edge 15, Type (0, 0), BuildingBlock: AJUNOK_clean_linker_0, # of connection points: 2
#     Edge 16, Type (0, 0), BuildingBlock: AJUNOK_clean_linker_0, # of connection points: 2
#     Edge 17, Type (0, 0), BuildingBlock: AJUNOK_clean_linker_0, # of connection points: 2
#     Edge 18, Type (0, 0), BuildingBlock: AJUNOK_clean_linker_0, # of connection points: 2
#     Edge 19, Type (0, 0), BuildingBlock: AJUNOK_clean_linker_0, # of connection points: 2
#     Edge 20, Type (0, 0), BuildingBlock: AJUNOK_clean_linker_0, # of connection points: 2
#     Edge 21, Type (0, 0), BuildingBlock: AJUNOK_clean_linker_0, # of connection points: 2
#     Edge 22, Type (0, 0), BuildingBlock: AJUNOK_clean_linker_0, # of connection points: 2
#     Edge 23, Type (0, 0), BuildingBlock: AJUNOK_clean_linker_0, # of connection points: 2
# Relax obj value: 0.005
# Max RMSD: 0.032
# Mean RMSD: 0.032
data_MOF--net-dia--node1-NAHDIM_clean_sbu_0--edge1-AJUNOK_clean_linker_0
_symmetry_space_group_name_H-M    P1
_symmetry_Int_Tables_number       1
_symmetry_cell_setting            triclinic
loop_
_symmetry_equiv_pos_as_xyz
'x, y, z'
_cell_length_a     27.500686
_cell_length_b     25.180208
_cell_length_c     25.271388
_cell_angle_alpha  88.49961
_cell_angle_beta   94.334065
_cell_angle_gamma 94.173772
loop_
_atom_site_label
_atom_site_type_symbol
_atom_site_fract_x
_atom_site_fract_y
_atom_site_fract_z
_atom_type_partial_charge
C0 C 0.07736 0.17773 0.72609 0.0
O1 O 0.0911 0.13278 0.74793 0.0
O2 O 0.17605 0.10371 0.69483 0.0
Zn3 Zn 0.13603 0.14798 0.64272 0.0
O4 O 0.09454 0.09927 0.59277 0.0
C5 C 0.19739 0.18591 0.55835 0.0
O6 O 0.18209 0.14027 0.53666 0.0
O7 O 0.09225 0.19225 0.68122 0.0
C8 C 0.06598 0.11767 0.55603 0.0
O9 O 0.06401 0.16954 0.55069 0.0
C10 C 0.20186 0.06917 0.67723 0.0
O11 O 0.20102 0.06319 0.6257 0.0
O12 O 0.18206 0.19725 0.6026 0.0
C13 C 0.95341 0.30527 0.84177 0.0
O14 O 0.94868 0.29365 0.89221 0.0
O15 O 0.84602 0.32628 0.90466 0.0
Zn16 Zn 0.88742 0.38125 0.86573 0.0
O17 O 0.92989 0.42636 0.91823 0.0
C18 C 0.8012 0.41081 0.80208 0.0
O19 O 0.78635 0.3609 0.81141 0.0
O20 O 0.9302 0.34303 0.82028 0.0
C21 C 0.94321 0.47437 0.90659 0.0
O22 O 0.92885 0.49406 0.85981 0.0
C23 C 0.82354 0.33739 0.94458 0.0
O24 O 0.82805 0.38642 0.96181 0.0
O25 O 0.84348 0.42797 0.82068 0.0
C26 C 0.55883 0.15559 0.19787 0.0
O27 O 0.54358 0.10702 0.18372 0.0
O28 O 0.68152 0.08657 0.1753 0.0
Zn29 Zn 0.63791 0.13664 0.13346 0.0
O30 O 0.59018 0.09706 0.08109 0.0
C31 C 0.70129 0.17706 0.05381 0.0
O32 O 0.69551 0.12729 0.03893 0.0
O33 O 0.59903 0.17603 0.1822 0.0
C34 C 0.5967 0.05189 0.06257 0.0
O35 O 0.63733 0.02915 0.0766 0.0
C36 C 0.66523 0.04312 0.19644 0.0
O37 O 0.61797 0.03033 0.19208 0.0
O38 O 0.68008 0.19054 0.09385 0.0
C39 C 0.92156 0.79755 0.30644 0.0
O40 O 0.87946 0.77503 0.31966 0.0
O41 O 0.85574 0.82825 0.4135 0.0
Zn42 Zn 0.89267 0.88258 0.36902 0.0
O43 O 0.93642 0.93029 0.41814 0.0
C44 C 0.80339 0.90538 0.30708 0.0
O45 O 0.79263 0.85439 0.31585 0.0
O46 O 0.93455 0.84436 0.32216 0.0
C47 C 0.9431 0.98022 0.41002 0.0
O48 O 0.92072 0.00194 0.36798 0.0
C49 C 0.8236 0.84127 0.44334 0.0
O50 O 0.81463 0.89169 0.44549 0.0
O51 O 0.84473 0.92597 0.3251 0.0
C52 C 0.04883 0.67112 0.19368 0.0
O53 O 0.03518 0.62076 0.18527 0.0
O54 O 0.17085 0.59976 0.19497 0.0
Zn55 Zn 0.13259 0.64362 0.14086 0.0
O56 O 0.09051 0.59423 0.09206 0.0
C57 C 0.19342 0.67722 0.05504 0.0
O58 O 0.17703 0.6309 0.03562 0.0
O59 O 0.08963 0.68989 0.1782 0.0
C60 C 0.0635 0.61251 0.05387 0.0
O61 O 0.06375 0.66436 0.0463 0.0
C62 C 0.20183 0.56917 0.18025 0.0
O63 O 0.20855 0.56702 0.12947 0.0
O64 O 0.17929 0.69079 0.09919 0.0
C65 C 0.43466 0.27249 0.32315 0.0
O66 O 0.4119 0.24727 0.36128 0.0
O67 O 0.34552 0.31723 0.40253 0.0
Zn68 Zn 0.39108 0.36533 0.36035 0.0
O69 O 0.44107 0.40609 0.4091 0.0
C70 C 0.31398 0.43484 0.3283 0.0
O71 O 0.30064 0.42297 0.37624 0.0
O72 O 0.4295 0.32183 0.31486 0.0
C73 C 0.44 0.45477 0.42061 0.0
O74 O 0.40315 0.48147 0.40132 0.0
C75 C 0.33649 0.32798 0.44952 0.0
O76 O 0.35791 0.37121 0.47133 0.0
O77 O 0.35172 0.41509 0.31307 0.0
C78 C 0.44069 0.7747 0.8344 0.0
O79 O 0.42615 0.75586 0.87998 0.0
O80 O 0.34148 0.81453 0.89983 0.0
Zn81 Zn 0.38893 0.86391 0.86185 0.0
O82 O 0.43637 0.90284 0.91457 0.0
C83 C 0.31724 0.93961 0.82698 0.0
O84 O 0.3063 0.93619 0.87672 0.0
O85 O 0.42871 0.82044 0.81809 0.0
C86 C 0.44548 0.953 0.91554 0.0
O87 O 0.4213 0.98341 0.88141 0.0
C88 C 0.32938 0.82315 0.9462 0.0
O89 O 0.34782 0.86644 0.97038 0.0
O90 O 0.35167 0.91348 0.81267 0.0
C91 C 0.56342 0.65846 0.70695 0.0
O92 O 0.55608 0.60677 0.70118 0.0
O93 O 0.67867 0.59623 0.6727 0.0
Zn94 Zn 0.63356 0.64483 0.63115 0.0
O95 O 0.58473 0.60335 0.58182 0.0
C96 C 0.71067 0.68377 0.56648 0.0
O97 O 0.72228 0.6342 0.57259 0.0
O98 O 0.59574 0.68401 0.68101 0.0
C99 C 0.59536 0.56462 0.55466 0.0
O100 O 0.64059 0.55065 0.55789 0.0
C101 C 0.66613 0.54854 0.68639 0.0
O102 O 0.62125 0.52915 0.67374 0.0
O103 O 0.67371 0.69797 0.5884 0.0
C104 C 0.28185 0.24441 0.45611 0.0
C105 C 0.30132 0.29271 0.47852 0.0
C106 C 0.24835 0.21039 0.48217 0.0
C107 C 0.23271 0.2232 0.53175 0.0
H108 H 0.29258 0.23251 0.41804 0.0
H109 H 0.23466 0.17371 0.46308 0.0
S110 S 0.27224 0.34529 0.60761 0.0
N111 N 0.3022 0.35179 0.55338 0.0
N112 N 0.23929 0.28799 0.60228 0.0
C113 C 0.25179 0.27147 0.55467 0.0
C114 C 0.28605 0.30612 0.52813 0.0
C115 C 0.68748 0.46138 0.72847 0.0
C116 C 0.70175 0.51467 0.71556 0.0
C117 C 0.71998 0.42822 0.75594 0.0
C118 C 0.76822 0.44688 0.77186 0.0
H119 H 0.65077 0.44486 0.71736 0.0
H120 H 0.70687 0.38764 0.76499 0.0
S121 S 0.82442 0.58316 0.74729 0.0
N122 N 0.76793 0.58452 0.72041 0.0
N123 N 0.82892 0.52229 0.77208 0.0
C124 C 0.78319 0.50007 0.75902 0.0
C125 C 0.75004 0.53389 0.7309 0.0
C126 C 0.52313 0.05566 0.99839 0.0
C127 C 0.55862 0.02547 0.02557 0.0
C128 C 0.48679 0.0319 0.96295 0.0
C129 C 0.48403 0.97685 0.9538 0.0
H130 H 0.52365 0.0982 0.00404 0.0
H131 H 0.46053 0.05696 0.9428 0.0
S132 S 0.56757 0.87968 0.0161 0.0
N133 N 0.58837 0.93741 0.04148 0.0
N134 N 0.51993 0.89261 0.97535 0.0
C135 C 0.51903 0.94604 0.98116 0.0
C136 C 0.55637 0.97038 0.01684 0.0
C137 C 0.94107 0.71371 0.264 0.0
C138 C 0.95429 0.76734 0.27606 0.0
C139 C 0.97172 0.68329 0.23723 0.0
C140 C 0.01699 0.70509 0.22118 0.0
H141 H 0.90687 0.69462 0.27577 0.0
H142 H 0.95974 0.64213 0.22938 0.0
S143 S 0.06841 0.84429 0.24152 0.0
N144 N 0.01556 0.84145 0.26873 0.0
N145 N 0.07312 0.78434 0.21838 0.0
C146 C 0.03051 0.75894 0.23232 0.0
C147 C 0.99923 0.78999 0.25972 0.0
C148 C 0.25609 0.00751 0.80543 0.0
C149 C 0.28907 0.97277 0.78788 0.0
C150 C 0.22836 0.03863 0.76947 0.0
C151 C 0.23217 0.03611 0.71436 0.0
H152 H 0.25156 0.01086 0.84739 0.0
H153 H 0.20349 0.06463 0.78517 0.0
S154 S 0.31321 0.95142 0.64757 0.0
N155 N 0.32401 0.93777 0.7114 0.0
N156 N 0.27191 0.99599 0.64395 0.0
C157 C 0.2651 0.00158 0.69619 0.0
C158 C 0.29354 0.97007 0.73286 0.0
C159 C 0.9817 0.56324 0.93474 0.0
C160 C 0.97403 0.5082 0.94515 0.0
C161 C 0.01038 0.59648 0.97022 0.0
C162 C 0.03298 0.57608 0.0175 0.0
H163 H 0.96523 0.58111 0.89892 0.0
H164 H 0.01505 0.63852 0.96015 0.0
S165 S 0.02469 0.43463 0.0637 0.0
N166 N 0.9915 0.43469 0.0065 0.0
N167 N 0.04557 0.49706 0.07302 0.0
C168 C 0.02575 0.52105 0.02849 0.0
C169 C 0.99624 0.48718 0.99243 0.0
C170 C 0.46154 0.18803 0.28858 0.0
C171 C 0.46693 0.24391 0.291 0.0
C172 C 0.49146 0.15993 0.25846 0.0
C173 C 0.52852 0.1865 0.23023 0.0
H174 H 0.43359 0.16571 0.30966 0.0
H175 H 0.48558 0.11694 0.25758 0.0
S176 S 0.55868 0.33263 0.2246 0.0
N177 N 0.51268 0.32489 0.26309 0.0
N178 N 0.56925 0.27209 0.20705 0.0
C179 C 0.53475 0.24238 0.23281 0.0
C180 C 0.50385 0.27107 0.26296 0.0
C181 C 0.75846 0.81497 0.50503 0.0
C182 C 0.7958 0.80012 0.47447 0.0
C183 C 0.73121 0.77714 0.53443 0.0
C184 C 0.74022 0.7228 0.53476 0.0
H185 H 0.74994 0.85622 0.50626 0.0
H186 H 0.70293 0.79082 0.55725 0.0
S187 S 0.83371 0.66271 0.46102 0.0
N188 N 0.84017 0.72689 0.44611 0.0
N189 N 0.78911 0.65595 0.50138 0.0
C190 C 0.77748 0.70729 0.50439 0.0
C191 C 0.80518 0.74585 0.47427 0.0
C192 C 0.26802 0.50742 0.20267 0.0
C193 C 0.23003 0.53607 0.21938 0.0
C194 C 0.2951 0.47534 0.23822 0.0
C195 C 0.2852 0.47018 0.29202 0.0
H196 H 0.2771 0.50968 0.16167 0.0
H197 H 0.32377 0.45403 0.2231 0.0
S198 S 0.18998 0.5374 0.35646 0.0
N199 N 0.18428 0.55765 0.2938 0.0
N200 N 0.23502 0.49725 0.36054 0.0
C201 C 0.24747 0.49881 0.30945 0.0
C202 C 0.21999 0.53176 0.27322 0.0
C203 C 0.77237 0.3069 0.01899 0.0
C204 C 0.79246 0.29569 0.97127 0.0
C205 C 0.74297 0.26841 0.04519 0.0
C206 C 0.73236 0.217 0.02482 0.0
H207 H 0.77951 0.34572 0.03658 0.0
H208 H 0.72867 0.27914 0.08192 0.0
S209 S 0.77451 0.16771 0.89996 0.0
N210 N 0.79866 0.22953 0.90396 0.0
N211 N 0.74349 0.15734 0.95312 0.0
C212 C 0.75192 0.20529 0.97689 0.0
C213 C 0.7819 0.24453 0.95018 0.0
C214 C 0.78135 0.9924 0.26481 0.0
C215 C 0.76746 0.93907 0.27812 0.0
C216 C 0.74815 0.02551 0.23833 0.0
C217 C 0.69948 0.00691 0.22439 0.0
H218 H 0.81826 0.00892 0.27487 0.0
H219 H 0.76079 0.06622 0.22913 0.0
S220 S 0.64451 0.87021 0.2492 0.0
N221 N 0.70151 0.86898 0.27456 0.0
N222 N 0.63921 0.93123 0.22509 0.0
C223 C 0.68504 0.95362 0.23725 0.0
C224 C 0.71897 0.91973 0.26395 0.0
C225 C 0.97716 0.06971 0.44173 0.0
C226 C 0.97517 0.01388 0.44774 0.0
C227 C 1.00655 0.10271 0.47687 0.0
C228 C 0.03544 0.08136 0.51946 0.0
H229 H 0.95561 0.08836 0.40975 0.0
H230 H 1.00652 0.1454 0.47039 0.0
S231 S 0.04421 0.9375 0.55245 0.0
N232 N 1.00525 0.93855 0.49952 0.0
N233 N 0.06052 1.00047 0.56536 0.0
C234 C 0.03409 0.02551 0.52583 0.0
C235 C 1.00398 0.99186 0.49009 0.0
C236 C 1.00673 0.22976 0.83497 0.0
C237 C 0.98481 0.274 0.81084 0.0
C238 C 0.03629 0.19899 0.80717 0.0
C239 C 0.04552 0.21121 0.75405 0.0
H240 H 1.00098 0.21847 0.8758 0.0
H241 H 0.05223 0.16546 0.8278 0.0
S242 S 0.99666 0.32271 0.67204 0.0
N243 N 0.97422 0.32832 0.73024 0.0
N244 N 0.02992 0.2706 0.67805 0.0
C245 C 0.02389 0.25537 0.72928 0.0
C246 C 0.99353 0.28666 0.7576 0.0
C247 C 0.52961 0.74236 0.73406 0.0
C248 C 0.53272 0.68704 0.74092 0.0
C249 C 0.49952 0.77017 0.76419 0.0
C250 C 0.47185 0.74395 0.80296 0.0
H251 H 0.55003 0.76439 0.7046 0.0
H252 H 0.49828 0.8127 0.75721 0.0
S253 S 0.46767 0.59951 0.8373 0.0
N254 N 0.50582 0.60704 0.78983 0.0
N255 N 0.4497 0.65943 0.84683 0.0
C256 C 0.47499 0.68873 0.8107 0.0
C257 C 0.50526 0.66026 0.77957 0.0
C258 C 0.24431 0.76333 0.0472 0.0
C259 C 0.22805 0.71335 0.02618 0.0
C260 C 0.277 0.79834 0.0211 0.0
C261 C 0.2948 0.785 0.97277 0.0
H262 H 0.23173 0.77576 0.08422 0.0
H263 H 0.28818 0.83631 0.03904 0.0
S264 S 0.26451 0.65849 0.9011 0.0
N265 N 0.23289 0.65202 0.95414 0.0
N266 N 0.29421 0.71775 0.90518 0.0
C267 C 0.279 0.73507 0.95127 0.0
C268 C 0.24571 0.69932 0.97792 0.0
C269 C 0.47484 0.5322 0.4747 0.0
C270 C 0.48021 0.48139 0.45499 0.0
C271 C 0.51218 0.55857 0.50695 0.0
C272 C 0.55669 0.5355 0.5204 0.0
H273 H 0.44141 0.55188 0.46541 0.0
H274 H 0.50613 0.59763 0.52108 0.0
S275 S 0.58932 0.40287 0.4795 0.0
N276 N 0.53365 0.4087 0.45171 0.0
N277 N 0.60384 0.45847 0.51201 0.0
C278 C 0.56266 0.48471 0.50099 0.0
C279 C 0.52444 0.4576 0.46846 0.0
loop_
_geom_bond_atom_site_label_1
_geom_bond_atom_site_label_2
_geom_bond_distance
_geom_bond_site_symmetry_2
_ccdc_geom_bond_type
C0 O1 1.160 . S
C0 O7 1.185 . S
O1 C0 1.160 . S
O2 Zn3 1.899 . S
O2 C10 1.284 . S
Zn3 O2 1.899 . S
Zn3 O4 2.032 . S
Zn3 O7 2.086 . S
Zn3 O12 1.977 . S
O4 Zn3 2.032 . S
O4 C8 1.278 . S
C5 O6 1.203 . S
C5 O12 1.267 . S
O6 C5 1.203 . S
O7 C0 1.185 . S
O7 Zn3 2.086 . S
C8 O4 1.278 . S
C8 O9 1.211 . S
O9 C8 1.211 . S
C10 O2 1.284 . S
C10 O11 1.273 . S
O11 C10 1.273 . S
O12 Zn3 1.977 . S
O12 C5 1.267 . S
C13 O14 1.160 . S
C13 O20 1.185 . S
O14 C13 1.160 . S
O15 Zn16 1.899 . S
O15 C23 1.284 . S
Zn16 O15 1.899 . S
Zn16 O17 2.032 . S
Zn16 O20 2.086 . S
Zn16 O25 1.977 . S
O17 Zn16 2.032 . S
O17 C21 1.278 . S
C18 O19 1.203 . S
C18 O25 1.267 . S
O19 C18 1.203 . S
O20 C13 1.185 . S
O20 Zn16 2.086 . S
C21 O17 1.278 . S
C21 O22 1.211 . S
O22 C21 1.211 . S
C23 O15 1.284 . S
C23 O24 1.273 . S
O24 C23 1.273 . S
O25 Zn16 1.977 . S
O25 C18 1.267 . S
C26 O27 1.160 . S
C26 O33 1.185 . S
O27 C26 1.160 . S
O28 Zn29 1.899 . S
O28 C36 1.284 . S
Zn29 O28 1.899 . S
Zn29 O30 2.032 . S
Zn29 O33 2.086 . S
Zn29 O38 1.977 . S
O30 Zn29 2.032 . S
O30 C34 1.278 . S
C31 O32 1.203 . S
C31 O38 1.267 . S
O32 C31 1.203 . S
O33 C26 1.185 . S
O33 Zn29 2.086 . S
C34 O30 1.278 . S
C34 O35 1.211 . S
O35 C34 1.211 . S
C36 O28 1.284 . S
C36 O37 1.273 . S
O37 C36 1.273 . S
O38 Zn29 1.977 . S
O38 C31 1.267 . S
C39 O40 1.160 . S
C39 O46 1.185 . S
O40 C39 1.160 . S
O41 Zn42 1.899 . S
O41 C49 1.284 . S
Zn42 O41 1.899 . S
Zn42 O43 2.032 . S
Zn42 O46 2.086 . S
Zn42 O51 1.977 . S
O43 Zn42 2.032 . S
O43 C47 1.278 . S
C44 O45 1.203 . S
C44 O51 1.267 . S
O45 C44 1.203 . S
O46 C39 1.185 . S
O46 Zn42 2.086 . S
C47 O43 1.278 . S
C47 O48 1.211 . S
O48 C47 1.211 . S
C49 O41 1.284 . S
C49 O50 1.273 . S
O50 C49 1.273 . S
O51 Zn42 1.977 . S
O51 C44 1.267 . S
C52 O53 1.160 . S
C52 O59 1.185 . S
O53 C52 1.160 . S
O54 Zn55 1.899 . S
O54 C62 1.284 . S
Zn55 O54 1.899 . S
Zn55 O56 2.032 . S
Zn55 O59 2.086 . S
Zn55 O64 1.977 . S
O56 Zn55 2.032 . S
O56 C60 1.278 . S
C57 O58 1.203 . S
C57 O64 1.267 . S
O58 C57 1.203 . S
O59 C52 1.185 . S
O59 Zn55 2.086 . S
C60 O56 1.278 . S
C60 O61 1.211 . S
O61 C60 1.211 . S
C62 O54 1.284 . S
C62 O63 1.273 . S
O63 C62 1.273 . S
O64 Zn55 1.977 . S
O64 C57 1.267 . S
C65 O66 1.160 . S
C65 O72 1.185 . S
O66 C65 1.160 . S
O67 Zn68 1.899 . S
O67 C75 1.284 . S
Zn68 O67 1.899 . S
Zn68 O69 2.032 . S
Zn68 O72 2.086 . S
Zn68 O77 1.977 . S
O69 Zn68 2.032 . S
O69 C73 1.278 . S
C70 O71 1.203 . S
C70 O77 1.267 . S
O71 C70 1.203 . S
O72 C65 1.185 . S
O72 Zn68 2.086 . S
C73 O69 1.278 . S
C73 O74 1.211 . S
O74 C73 1.211 . S
C75 O67 1.284 . S
C75 O76 1.273 . S
O76 C75 1.273 . S
O77 Zn68 1.977 . S
O77 C70 1.267 . S
C78 O79 1.160 . S
C78 O85 1.185 . S
O79 C78 1.160 . S
O80 Zn81 1.899 . S
O80 C88 1.284 . S
Zn81 O80 1.899 . S
Zn81 O82 2.032 . S
Zn81 O85 2.086 . S
Zn81 O90 1.977 . S
O82 Zn81 2.032 . S
O82 C86 1.278 . S
C83 O84 1.203 . S
C83 O90 1.267 . S
O84 C83 1.203 . S
O85 C78 1.185 . S
O85 Zn81 2.086 . S
C86 O82 1.278 . S
C86 O87 1.211 . S
O87 C86 1.211 . S
C88 O80 1.284 . S
C88 O89 1.273 . S
O89 C88 1.273 . S
O90 Zn81 1.977 . S
O90 C83 1.267 . S
C91 O92 1.160 . S
C91 O98 1.185 . S
O92 C91 1.160 . S
O93 Zn94 1.899 . S
O93 C101 1.284 . S
Zn94 O93 1.899 . S
Zn94 O95 2.032 . S
Zn94 O98 2.086 . S
Zn94 O103 1.977 . S
O95 Zn94 2.032 . S
O95 C99 1.278 . S
C96 O97 1.203 . S
C96 O103 1.267 . S
O97 C96 1.203 . S
O98 C91 1.185 . S
O98 Zn94 2.086 . S
C99 O95 1.278 . S
C99 O100 1.211 . S
O100 C99 1.211 . S
C101 O93 1.284 . S
C101 O102 1.273 . S
O102 C101 1.273 . S
O103 Zn94 1.977 . S
O103 C96 1.267 . S
C104 C105 1.369 . S
C104 C106 1.419 . S
C104 H108 0.930 . S
C105 C104 1.369 . S
C105 C114 1.429 . S
C106 C104 1.419 . S
C106 C107 1.363 . S
C106 H109 0.929 . S
C107 C106 1.363 . S
C107 C113 1.428 . S
H108 C104 0.930 . S
H109 C106 0.929 . S
S110 N111 1.613 . S
S110 N112 1.610 . S
N111 S110 1.613 . S
N111 C114 1.350 . S
N112 S110 1.610 . S
N112 C113 1.351 . S
C113 C107 1.428 . S
C113 N112 1.351 . S
C113 C114 1.434 . S
C114 C105 1.429 . S
C114 N111 1.350 . S
C114 C113 1.434 . S
C115 C116 1.369 . S
C115 C117 1.419 . S
C115 H119 0.930 . S
C116 C115 1.369 . S
C116 C125 1.429 . S
C117 C115 1.419 . S
C117 C118 1.363 . S
C117 H120 0.929 . S
C118 C117 1.363 . S
C118 C124 1.428 . S
H119 C115 0.930 . S
H120 C117 0.929 . S
S121 N122 1.613 . S
S121 N123 1.610 . S
N122 S121 1.613 . S
N122 C125 1.350 . S
N123 S121 1.610 . S
N123 C124 1.351 . S
C124 C118 1.428 . S
C124 N123 1.351 . S
C124 C125 1.434 . S
C125 C116 1.429 . S
C125 N122 1.350 . S
C125 C124 1.434 . S
C126 C127 1.369 1_556 S
C126 C128 1.419 . S
C126 H130 0.930 . S
C127 C126 1.369 1_554 S
C127 C136 1.429 1_545 S
C128 C126 1.419 . S
C128 C129 1.363 1_545 S
C128 H131 0.929 . S
C129 C128 1.363 1_565 S
C129 C135 1.428 1_556 S
H130 C126 0.930 . S
H131 C128 0.929 . S
S132 N133 1.613 . S
S132 N134 1.610 . S
N133 S132 1.613 . S
N133 C136 1.350 . S
N134 S132 1.610 . S
N134 C135 1.351 . S
C135 C129 1.428 1_554 S
C135 N134 1.351 . S
C135 C136 1.434 . S
C136 C127 1.429 1_565 S
C136 N133 1.350 . S
C136 C135 1.434 . S
C137 C138 1.369 . S
C137 C139 1.419 . S
C137 H141 0.930 . S
C138 C137 1.369 . S
C138 C147 1.429 1_655 S
C139 C137 1.419 . S
C139 C140 1.363 1_655 S
C139 H142 0.929 . S
C140 C139 1.363 1_455 S
C140 C146 1.428 . S
H141 C137 0.930 . S
H142 C139 0.929 . S
S143 N144 1.613 . S
S143 N145 1.610 . S
N144 S143 1.613 . S
N144 C147 1.350 . S
N145 S143 1.610 . S
N145 C146 1.351 . S
C146 C140 1.428 . S
C146 N145 1.351 . S
C146 C147 1.434 . S
C147 C138 1.429 1_455 S
C147 N144 1.350 . S
C147 C146 1.434 . S
C148 C149 1.369 1_545 S
C148 C150 1.419 . S
C148 H152 0.930 . S
C149 C148 1.369 1_565 S
C149 C158 1.429 . S
C150 C148 1.419 . S
C150 C151 1.363 . S
C150 H153 0.929 . S
C151 C150 1.363 . S
C151 C157 1.428 1_545 S
H152 C148 0.930 . S
H153 C150 0.929 . S
S154 N155 1.613 . S
S154 N156 1.610 . S
N155 S154 1.613 . S
N155 C158 1.350 . S
N156 S154 1.610 . S
N156 C157 1.351 . S
C157 C151 1.428 1_565 S
C157 N156 1.351 . S
C157 C158 1.434 . S
C158 C149 1.429 . S
C158 N155 1.350 . S
C158 C157 1.434 . S
C159 C160 1.369 . S
C159 C161 1.419 1_655 S
C159 H163 0.930 . S
C160 C159 1.369 . S
C160 C169 1.429 1_556 S
C161 C159 1.419 1_455 S
C161 C162 1.363 1_556 S
C161 H164 0.929 . S
C162 C161 1.363 1_554 S
C162 C168 1.428 . S
H163 C159 0.930 . S
H164 C161 0.929 . S
S165 N166 1.613 1_455 S
S165 N167 1.610 . S
N166 S165 1.613 1_655 S
N166 C169 1.350 . S
N167 S165 1.610 . S
N167 C168 1.351 . S
C168 C162 1.428 . S
C168 N167 1.351 . S
C168 C169 1.434 1_455 S
C169 C160 1.429 1_554 S
C169 N166 1.350 . S
C169 C168 1.434 1_655 S
C170 C171 1.369 . S
C170 C172 1.419 . S
C170 H174 0.930 . S
C171 C170 1.369 . S
C171 C180 1.429 . S
C172 C170 1.419 . S
C172 C173 1.363 . S
C172 H175 0.929 . S
C173 C172 1.363 . S
C173 C179 1.428 . S
H174 C170 0.930 . S
H175 C172 0.929 . S
S176 N177 1.613 . S
S176 N178 1.610 . S
N177 S176 1.613 . S
N177 C180 1.350 . S
N178 S176 1.610 . S
N178 C179 1.351 . S
C179 C173 1.428 . S
C179 N178 1.351 . S
C179 C180 1.434 . S
C180 C171 1.429 . S
C180 N177 1.350 . S
C180 C179 1.434 . S
C181 C182 1.369 . S
C181 C183 1.419 . S
C181 H185 0.930 . S
C182 C181 1.369 . S
C182 C191 1.429 . S
C183 C181 1.419 . S
C183 C184 1.363 . S
C183 H186 0.929 . S
C184 C183 1.363 . S
C184 C190 1.428 . S
H185 C181 0.930 . S
H186 C183 0.929 . S
S187 N188 1.613 . S
S187 N189 1.610 . S
N188 S187 1.613 . S
N188 C191 1.350 . S
N189 S187 1.610 . S
N189 C190 1.351 . S
C190 C184 1.428 . S
C190 N189 1.351 . S
C190 C191 1.434 . S
C191 C182 1.429 . S
C191 N188 1.350 . S
C191 C190 1.434 . S
C192 C193 1.369 . S
C192 C194 1.419 . S
C192 H196 0.930 . S
C193 C192 1.369 . S
C193 C202 1.429 . S
C194 C192 1.419 . S
C194 C195 1.363 . S
C194 H197 0.929 . S
C195 C194 1.363 . S
C195 C201 1.428 . S
H196 C192 0.930 . S
H197 C194 0.929 . S
S198 N199 1.613 . S
S198 N200 1.610 . S
N199 S198 1.613 . S
N199 C202 1.350 . S
N200 S198 1.610 . S
N200 C201 1.351 . S
C201 C195 1.428 . S
C201 N200 1.351 . S
C201 C202 1.434 . S
C202 C193 1.429 . S
C202 N199 1.350 . S
C202 C201 1.434 . S
C203 C204 1.369 1_554 S
C203 C205 1.419 . S
C203 H207 0.930 . S
C204 C203 1.369 1_556 S
C204 C213 1.429 . S
C205 C203 1.419 . S
C205 C206 1.363 . S
C205 H208 0.929 . S
C206 C205 1.363 . S
C206 C212 1.428 1_554 S
H207 C203 0.930 . S
H208 C205 0.929 . S
S209 N210 1.613 . S
S209 N211 1.610 . S
N210 S209 1.613 . S
N210 C213 1.350 . S
N211 S209 1.610 . S
N211 C212 1.351 . S
C212 C206 1.428 1_556 S
C212 N211 1.351 . S
C212 C213 1.434 . S
C213 C204 1.429 . S
C213 N210 1.350 . S
C213 C212 1.434 . S
C214 C215 1.369 1_545 S
C214 C216 1.419 . S
C214 H218 0.930 . S
C215 C214 1.369 1_565 S
C215 C224 1.429 . S
C216 C214 1.419 . S
C216 C217 1.363 . S
C216 H219 0.929 . S
C217 C216 1.363 . S
C217 C223 1.428 1_545 S
H218 C214 0.930 . S
H219 C216 0.929 . S
S220 N221 1.613 . S
S220 N222 1.610 . S
N221 S220 1.613 . S
N221 C224 1.350 . S
N222 S220 1.610 . S
N222 C223 1.351 . S
C223 C217 1.428 1_565 S
C223 N222 1.351 . S
C223 C224 1.434 . S
C224 C215 1.429 . S
C224 N221 1.350 . S
C224 C223 1.434 . S
C225 C226 1.369 1_545 S
C225 C227 1.419 1_655 S
C225 H229 0.930 . S
C226 C225 1.369 1_565 S
C226 C235 1.429 . S
C227 C225 1.419 1_455 S
C227 C228 1.363 . S
C227 H230 0.929 . S
C228 C227 1.363 . S
C228 C234 1.428 1_545 S
H229 C225 0.930 . S
H230 C227 0.929 . S
S231 N232 1.613 1_455 S
S231 N233 1.610 . S
N232 S231 1.613 1_655 S
N232 C235 1.350 . S
N233 S231 1.610 . S
N233 C234 1.351 . S
C234 C228 1.428 1_565 S
C234 N233 1.351 . S
C234 C235 1.434 1_455 S
C235 C226 1.429 . S
C235 N232 1.350 . S
C235 C234 1.434 1_655 S
C236 C237 1.369 1_455 S
C236 C238 1.419 . S
C236 H240 0.930 . S
C237 C236 1.369 1_655 S
C237 C246 1.429 . S
C238 C236 1.419 . S
C238 C239 1.363 . S
C238 H241 0.929 . S
C239 C238 1.363 . S
C239 C245 1.428 1_455 S
H240 C236 0.930 . S
H241 C238 0.929 . S
S242 N243 1.613 . S
S242 N244 1.610 . S
N243 S242 1.613 . S
N243 C246 1.350 . S
N244 S242 1.610 . S
N244 C245 1.351 . S
C245 C239 1.428 1_655 S
C245 N244 1.351 . S
C245 C246 1.434 . S
C246 C237 1.429 . S
C246 N243 1.350 . S
C246 C245 1.434 . S
C247 C248 1.369 . S
C247 C249 1.419 . S
C247 H251 0.930 . S
C248 C247 1.369 . S
C248 C257 1.429 . S
C249 C247 1.419 . S
C249 C250 1.363 . S
C249 H252 0.929 . S
C250 C249 1.363 . S
C250 C256 1.428 . S
H251 C247 0.930 . S
H252 C249 0.929 . S
S253 N254 1.613 . S
S253 N255 1.610 . S
N254 S253 1.613 . S
N254 C257 1.350 . S
N255 S253 1.610 . S
N255 C256 1.351 . S
C256 C250 1.428 . S
C256 N255 1.351 . S
C256 C257 1.434 . S
C257 C248 1.429 . S
C257 N254 1.350 . S
C257 C256 1.434 . S
C258 C259 1.369 . S
C258 C260 1.419 . S
C258 H262 0.930 . S
C259 C258 1.369 . S
C259 C268 1.429 1_554 S
C260 C258 1.419 . S
C260 C261 1.363 1_554 S
C260 H263 0.929 . S
C261 C260 1.363 1_556 S
C261 C267 1.428 . S
H262 C258 0.930 . S
H263 C260 0.929 . S
S264 N265 1.613 . S
S264 N266 1.610 . S
N265 S264 1.613 . S
N265 C268 1.350 . S
N266 S264 1.610 . S
N266 C267 1.351 . S
C267 C261 1.428 . S
C267 N266 1.351 . S
C267 C268 1.434 . S
C268 C259 1.429 1_556 S
C268 N265 1.350 . S
C268 C267 1.434 . S
C269 C270 1.369 . S
C269 C271 1.419 . S
C269 H273 0.930 . S
C270 C269 1.369 . S
C270 C279 1.429 . S
C271 C269 1.419 . S
C271 C272 1.363 . S
C271 H274 0.929 . S
C272 C271 1.363 . S
C272 C278 1.428 . S
H273 C269 0.930 . S
H274 C271 0.929 . S
S275 N276 1.613 . S
S275 N277 1.610 . S
N276 S275 1.613 . S
N276 C279 1.350 . S
N277 S275 1.610 . S
N277 C278 1.351 . S
C278 C272 1.428 . S
C278 N277 1.351 . S
C278 C279 1.434 . S
C279 C270 1.429 . S
C279 N276 1.350 . S
C279 C278 1.434 . S
C105 C75 1.484 . S
C107 C5 1.478 . S
C116 C101 1.488 . S
C118 C18 1.480 . S
C127 C34 1.473 . S
C129 C86 1.476 . S
C138 C39 1.483 . S
C140 C52 1.481 . S
C149 C83 1.481 . S
C151 C10 1.485 . S
C160 C21 1.475 . S
C162 C60 1.475 . S
C171 C65 1.484 . S
C173 C26 1.482 . S
C182 C49 1.488 . S
C184 C96 1.477 . S
C193 C62 1.488 . S
C195 C70 1.476 . S
C204 C23 1.488 . S
C206 C31 1.480 . S
C215 C44 1.479 . S
C217 C36 1.485 . S
C226 C47 1.475 . S
C228 C8 1.475 . S
C237 C13 1.480 . S
C239 C0 1.483 . S
C248 C91 1.480 . S
C250 C78 1.478 . S
C259 C57 1.476 . S
C261 C88 1.488 . S
C270 C73 1.476 . S
C272 C99 1.475 . S
