# Generated by pormake.
# Topology wkj, (6)-cn, num edge types: 1
# Building blocks:
#     Node 0, Type 0, BuildingBlock: KUMJIN_clean_sbu_0, # of connection points: 6
#     Node 1, Type 0, BuildingBlock: KUMJIN_clean_sbu_0, # of connection points: 6
#     Node 2, Type 0, BuildingBlock: KUMJIN_clean_sbu_0, # of connection points: 6
#     Node 3, Type 0, BuildingBlock: KUMJIN_clean_sbu_0, # of connection points: 6
#     Node 4, Type 0, BuildingBlock: KUMJIN_clean_sbu_0, # of connection points: 6
#     Node 5, Type 0, BuildingBlock: KUMJIN_clean_sbu_0, # of connection points: 6
#     Node 6, Type 0, BuildingBlock: KUMJIN_clean_sbu_0, # of connection points: 6
#     Node 7, Type 0, BuildingBlock: KUMJIN_clean_sbu_0, # of connection points: 6
#     Node 8, Type 0, BuildingBlock: KUMJIN_clean_sbu_0, # of connection points: 6
#     Node 9, Type 0, BuildingBlock: KUMJIN_clean_sbu_0, # of connection points: 6
#     Node 10, Type 0, BuildingBlock: KUMJIN_clean_sbu_0, # of connection points: 6
#     Node 11, Type 0, BuildingBlock: KUMJIN_clean_sbu_0, # of connection points: 6
#     Edge 12, Type (0, 0), BuildingBlock: ZUJKAS_clean_linker_0, # of connection points: 2
#     Edge 13, Type (0, 0), BuildingBlock: ZUJKAS_clean_linker_0, # of connection points: 2
#     Edge 14, Type (0, 0), BuildingBlock: ZUJKAS_clean_linker_0, # of connection points: 2
#     Edge 15, Type (0, 0), BuildingBlock: ZUJKAS_clean_linker_0, # of connection points: 2
#     Edge 16, Type (0, 0), BuildingBlock: ZUJKAS_clean_linker_0, # of connection points: 2
#     Edge 17, Type (0, 0), BuildingBlock: ZUJKAS_clean_linker_0, # of connection points: 2
#     Edge 18, Type (0, 0), BuildingBlock: ZUJKAS_clean_linker_0, # of connection points: 2
#     Edge 19, Type (0, 0), BuildingBlock: ZUJKAS_clean_linker_0, # of connection points: 2
#     Edge 20, Type (0, 0), BuildingBlock: ZUJKAS_clean_linker_0, # of connection points: 2
#     Edge 21, Type (0, 0), BuildingBlock: ZUJKAS_clean_linker_0, # of connection points: 2
#     Edge 22, Type (0, 0), BuildingBlock: ZUJKAS_clean_linker_0, # of connection points: 2
#     Edge 23, Type (0, 0), BuildingBlock: ZUJKAS_clean_linker_0, # of connection points: 2
#     Edge 24, Type (0, 0), BuildingBlock: ZUJKAS_clean_linker_0, # of connection points: 2
#     Edge 25, Type (0, 0), BuildingBlock: ZUJKAS_clean_linker_0, # of connection points: 2
#     Edge 26, Type (0, 0), BuildingBlock: ZUJKAS_clean_linker_0, # of connection points: 2
#     Edge 27, Type (0, 0), BuildingBlock: ZUJKAS_clean_linker_0, # of connection points: 2
#     Edge 28, Type (0, 0), BuildingBlock: ZUJKAS_clean_linker_0, # of connection points: 2
#     Edge 29, Type (0, 0), BuildingBlock: ZUJKAS_clean_linker_0, # of connection points: 2
#     Edge 30, Type (0, 0), BuildingBlock: ZUJKAS_clean_linker_0, # of connection points: 2
#     Edge 31, Type (0, 0), BuildingBlock: ZUJKAS_clean_linker_0, # of connection points: 2
#     Edge 32, Type (0, 0), BuildingBlock: ZUJKAS_clean_linker_0, # of connection points: 2
#     Edge 33, Type (0, 0), BuildingBlock: ZUJKAS_clean_linker_0, # of connection points: 2
#     Edge 34, Type (0, 0), BuildingBlock: ZUJKAS_clean_linker_0, # of connection points: 2
#     Edge 35, Type (0, 0), BuildingBlock: ZUJKAS_clean_linker_0, # of connection points: 2
#     Edge 36, Type (0, 0), BuildingBlock: ZUJKAS_clean_linker_0, # of connection points: 2
#     Edge 37, Type (0, 0), BuildingBlock: ZUJKAS_clean_linker_0, # of connection points: 2
#     Edge 38, Type (0, 0), BuildingBlock: ZUJKAS_clean_linker_0, # of connection points: 2
#     Edge 39, Type (0, 0), BuildingBlock: ZUJKAS_clean_linker_0, # of connection points: 2
#     Edge 40, Type (0, 0), BuildingBlock: ZUJKAS_clean_linker_0, # of connection points: 2
#     Edge 41, Type (0, 0), BuildingBlock: ZUJKAS_clean_linker_0, # of connection points: 2
#     Edge 42, Type (0, 0), BuildingBlock: ZUJKAS_clean_linker_0, # of connection points: 2
#     Edge 43, Type (0, 0), BuildingBlock: ZUJKAS_clean_linker_0, # of connection points: 2
#     Edge 44, Type (0, 0), BuildingBlock: ZUJKAS_clean_linker_0, # of connection points: 2
#     Edge 45, Type (0, 0), BuildingBlock: ZUJKAS_clean_linker_0, # of connection points: 2
#     Edge 46, Type (0, 0), BuildingBlock: ZUJKAS_clean_linker_0, # of connection points: 2
#     Edge 47, Type (0, 0), BuildingBlock: ZUJKAS_clean_linker_0, # of connection points: 2
# Relax obj value: 0.444
# Max RMSD: 0.214
# Mean RMSD: 0.214
data_MOF--net-wkj--node1-KUMJIN_clean_sbu_0--edge1-ZUJKAS_clean_linker_0
_symmetry_space_group_name_H-M    P1
_symmetry_Int_Tables_number       1
_symmetry_cell_setting            triclinic
loop_
_symmetry_equiv_pos_as_xyz
'x, y, z'
_cell_length_a     65.270335
_cell_length_b     65.418455
_cell_length_c     37.162233
_cell_angle_alpha  89.683332
_cell_angle_beta   90.056178
_cell_angle_gamma 120.12047
loop_
_atom_site_label
_atom_site_type_symbol
_atom_site_fract_x
_atom_site_fract_y
_atom_site_fract_z
_atom_type_partial_charge
Eu0 Eu 0.44999 0.07804 0.33721 0.0
C1 C 0.54124 0.08589 0.36827 0.0
C2 C 0.55627 0.11802 0.41115 0.0
C3 C 0.56725 0.08775 0.4167 0.0
C4 C 0.54203 0.10619 0.38109 0.0
C5 C 0.55424 0.07677 0.38559 0.0
C6 C 0.56837 0.10839 0.42933 0.0
C7 C 0.54243 0.04781 0.33831 0.0
N8 N 0.52869 0.07568 0.33795 0.0
C9 C 0.52986 0.05746 0.32201 0.0
C10 C 0.55432 0.05723 0.37059 0.0
Eu11 Eu 0.50572 0.09159 0.31485 0.0
N12 N 0.52953 0.11479 0.36368 0.0
C13 C 0.53185 0.13597 0.37365 0.0
C14 C 0.5582 0.13937 0.42184 0.0
C15 C 0.54619 0.14852 0.40271 0.0
H16 H 0.52054 0.04997 0.29718 0.0
H17 H 0.54767 0.16509 0.41069 0.0
H18 H 0.57898 0.11701 0.45285 0.0
H19 H 0.54281 0.03303 0.32609 0.0
H20 H 0.52231 0.14317 0.36007 0.0
H21 H 0.37512 -0.00412 0.38888 0.0
H22 H 0.56903 0.14901 0.44467 0.0
H23 H 0.45435 0.10449 0.25491 0.0
H24 H 0.41119 0.03518 0.39282 0.0
H25 H 0.43313 0.09495 0.19784 0.0
H26 H 0.57705 0.08078 0.43064 0.0
H27 H 0.35625 0.98074 0.3298 0.0
H28 H 0.35479 0.98795 0.26392 0.0
H29 H 0.56402 0.04968 0.38319 0.0
H30 H 0.37027 0.01512 0.21224 0.0
N31 N 0.41391 0.04127 0.33637 0.0
C32 C 0.40353 0.02829 0.36684 0.0
C33 C 0.37237 -0.00225 0.33135 0.0
C34 C 0.38205 0.01184 0.30062 0.0
C35 C 0.38295 0.00621 0.36473 0.0
C36 C 0.40309 0.0339 0.304 0.0
H37 H 0.39868 0.05522 0.18792 0.0
N38 N 0.43169 0.07078 0.27925 0.0
C39 C 0.42702 0.08188 0.21921 0.0
C40 C 0.41201 0.04919 0.27477 0.0
C41 C 0.43894 0.08727 0.25213 0.0
C42 C 0.40767 0.05941 0.21365 0.0
C43 C 0.3998 0.0428 0.24159 0.0
O44 O 0.44983 0.10891 0.35886 0.0
O45 O 0.48698 0.09506 0.36391 0.0
O46 O 0.48933 0.05581 0.34345 0.0
O47 O 0.44986 0.04462 0.35148 0.0
O48 O 0.45942 0.07121 0.39495 0.0
O49 O 0.41756 0.07552 0.35914 0.0
O50 O 0.5178 0.11282 0.26551 0.0
O51 O 0.46966 0.07571 0.28612 0.0
O52 O 0.46562 0.11539 0.31511 0.0
O53 O 0.50454 0.12644 0.30461 0.0
O54 O 0.48832 0.05836 0.27964 0.0
O55 O 0.54027 0.10188 0.29144 0.0
C56 C 0.48215 0.08515 0.39593 0.0
C57 C 0.42488 0.10133 0.40799 0.0
C58 C 0.42516 0.09175 0.47145 0.0
C59 C 0.42518 0.08643 0.43492 0.0
C60 C 0.42397 0.11193 0.48081 0.0
C61 C 0.42384 0.12146 0.41766 0.0
C62 C 0.4232 0.12661 0.45397 0.0
C63 C 0.46761 0.04065 0.35466 0.0
C64 C 0.42812 0.09726 0.37012 0.0
C65 C 0.37962 0.02039 0.23766 0.0
C66 C 0.3708 0.00491 0.26708 0.0
C67 C 0.46912 0.05773 0.26936 0.0
C68 C 0.5585 0.14092 0.26846 0.0
C69 C 0.56006 0.15634 0.24085 0.0
C70 C 0.57854 0.18012 0.24021 0.0
C71 C 0.59488 0.18837 0.26881 0.0
C72 C 0.57494 0.14966 0.29679 0.0
C73 C 0.59289 0.17328 0.29698 0.0
C74 C 0.48716 0.1315 0.30533 0.0
C75 C 0.53911 0.11607 0.26804 0.0
H76 H 0.42536 0.07059 0.42743 0.0
H77 H 0.42388 0.11648 0.50876 0.0
H78 H 0.42389 0.13334 0.39719 0.0
H79 H 0.42244 0.1422 0.46135 0.0
H80 H 0.54678 0.14962 0.21985 0.0
H81 H 0.60968 0.20628 0.26909 0.0
H82 H 0.57398 0.13833 0.31886 0.0
H83 H 0.60558 0.17983 0.31877 0.0
Eu84 Eu 0.36433 0.45346 0.66645 0.0
C85 C 0.45539 0.54745 0.6826 0.0
C86 C 0.44774 0.56711 0.73169 0.0
C87 C 0.48804 0.57635 0.71893 0.0
C88 C 0.43948 0.55061 0.70337 0.0
C89 C 0.47982 0.56018 0.6904 0.0
C90 C 0.47207 0.57988 0.7394 0.0
C91 C 0.48622 0.53965 0.64165 0.0
N92 N 0.44689 0.53136 0.6555 0.0
C93 C 0.46187 0.52744 0.63482 0.0
C94 C 0.49524 0.55608 0.66952 0.0
Eu95 Eu 0.40552 0.51246 0.6461 0.0
N96 N 0.4159 0.53709 0.69666 0.0
C97 C 0.39979 0.54041 0.71523 0.0
C98 C 0.43124 0.57005 0.75172 0.0
C99 C 0.40718 0.55676 0.74326 0.0
H100 H 0.45506 0.51455 0.61354 0.0
H101 H 0.39433 0.55908 0.75836 0.0
H102 H 0.4787 0.59243 0.76131 0.0
H103 H 0.49802 0.53632 0.62549 0.0
H104 H 0.38119 0.53028 0.70845 0.0
H105 H 0.40297 0.39646 0.64297 0.0
H106 H 0.43689 0.58252 0.7737 0.0
H107 H 0.31785 0.44995 0.61806 0.0
H108 H 0.39082 0.41958 0.67918 0.0
H109 H 0.30262 0.44165 0.5569 0.0
H110 H 0.50674 0.58622 0.7254 0.0
H111 H 0.39166 0.38878 0.57899 0.0
H112 H 0.36938 0.39234 0.5272 0.0
H113 H 0.51411 0.56543 0.6748 0.0
H114 H 0.34271 0.40536 0.5033 0.0
N115 N 0.37509 0.42817 0.63525 0.0
C116 C 0.38674 0.41779 0.65081 0.0
C117 C 0.38673 0.39962 0.59455 0.0
C118 C 0.373 0.40833 0.57948 0.0
C119 C 0.39324 0.40401 0.63056 0.0
C120 C 0.36719 0.42259 0.60079 0.0
H121 H 0.31799 0.42395 0.51387 0.0
N122 N 0.34585 0.44275 0.60865 0.0
C123 C 0.31721 0.43909 0.56447 0.0
C124 C 0.35231 0.43018 0.58709 0.0
C125 C 0.32683 0.44499 0.59898 0.0
C126 C 0.32574 0.42889 0.54044 0.0
C127 C 0.34275 0.42337 0.55209 0.0
O128 O 0.32709 0.43505 0.68336 0.0
O129 O 0.38262 0.49027 0.69359 0.0
O130 O 0.42436 0.49843 0.68158 0.0
O131 O 0.39868 0.45792 0.68647 0.0
O132 O 0.37536 0.46248 0.72658 0.0
O133 O 0.34772 0.41787 0.68912 0.0
O134 O 0.42539 0.54445 0.61341 0.0
O135 O 0.3896 0.47604 0.62041 0.0
O136 O 0.34336 0.47304 0.66501 0.0
O137 O 0.36777 0.50438 0.62893 0.0
O138 O 0.41549 0.5032 0.59134 0.0
O139 O 0.39115 0.53597 0.63791 0.0
C140 C 0.38492 0.4853 0.72731 0.0
C141 C 0.31624 0.40639 0.72969 0.0
C142 C 0.31981 0.40617 0.79518 0.0
C143 C 0.32687 0.41804 0.76181 0.0
C144 C 0.29983 0.38315 0.79579 0.0
C145 C 0.29645 0.38364 0.731 0.0
C146 C 0.28798 0.3723 0.76403 0.0
C147 C 0.41921 0.477 0.69244 0.0
C148 C 0.32734 0.41634 0.69473 0.0
C149 C 0.34959 0.41035 0.53036 0.0
C150 C 0.3647 0.40287 0.54401 0.0
C151 C 0.40171 0.48059 0.59022 0.0
C152 C 0.41186 0.5725 0.60399 0.0
C153 C 0.39258 0.57194 0.58634 0.0
C154 C 0.39413 0.59294 0.57363 0.0
C155 C 0.41503 0.61457 0.57992 0.0
C156 C 0.43265 0.59412 0.60954 0.0
C157 C 0.43411 0.6151 0.5978 0.0
C158 C 0.34668 0.49073 0.64384 0.0
C159 C 0.40963 0.55084 0.61924 0.0
H160 H 0.34126 0.43596 0.76054 0.0
H161 H 0.29382 0.37286 0.82033 0.0
H162 H 0.288 0.37439 0.70643 0.0
H163 H 0.27289 0.35454 0.76489 0.0
H164 H 0.37656 0.55516 0.58207 0.0
H165 H 0.41701 0.63103 0.56984 0.0
H166 H 0.44752 0.5948 0.62364 0.0
H167 H 0.45016 0.6318 0.60223 0.0
Eu168 Eu 0.89755 0.36571 1.00368 0.0
C169 C 0.88495 0.44774 1.02727 0.0
C170 C 0.84928 0.43117 1.06359 0.0
C171 C 0.87863 0.47282 1.06863 0.0
C172 C 0.86402 0.42819 1.03887 0.0
C173 C 0.89229 0.4703 1.0418 0.0
C174 C 0.857 0.45338 1.07911 0.0
C175 C 0.92426 0.48699 0.99859 0.0
N176 N 0.89717 0.44509 0.99991 0.0
C177 C 0.91594 0.46446 0.98435 0.0
C178 C 0.91258 0.48989 1.02778 0.0
Eu179 Eu 0.88246 0.40603 0.97859 0.0
N180 N 0.8573 0.40662 1.02442 0.0
C181 C 0.83557 0.38764 1.03262 0.0
C182 C 0.82693 0.41186 1.07145 0.0
C183 C 0.81999 0.39007 1.05564 0.0
H184 H 0.92487 0.46244 0.96137 0.0
H185 H 0.8028 0.37497 1.06176 0.0
H186 H 0.84615 0.4558 0.09874 0.0
H187 H 0.93954 0.50213 0.98683 0.0
H188 H 0.82987 0.3704 1.02186 0.0
H189 H 0.97661 0.37397 1.06861 0.0
H190 H 0.81499 0.41356 0.08981 0.0
H191 H 0.87578 0.34327 0.91922 0.0
H192 H 0.93767 0.37139 1.0659 0.0
H193 H 0.88902 0.33244 0.86502 0.0
H194 H 0.88415 0.48995 1.08033 0.0
H195 H -0.00514 0.36962 1.01306 0.0
H196 H -0.00845 0.36096 0.94714 0.0
H197 H 0.91881 0.50744 1.03833 0.0
H198 H 0.96767 0.34957 0.89197 0.0
N199 N 0.93409 0.36636 1.00928 0.0
C200 C 0.94541 0.36944 1.04151 0.0
C201 C 0.97776 0.36856 1.01172 0.0
C202 C 0.96548 0.364 0.97915 0.0
C203 C 0.96751 0.37096 1.04313 0.0
C204 C 0.94327 0.36282 0.97875 0.0
H205 H 0.92934 0.33821 0.86157 0.0
N206 N 0.90795 0.35442 0.94844 0.0
C207 C 0.90069 0.33924 0.88801 0.0
C208 C 0.92979 0.35654 0.94757 0.0
C209 C 0.89317 0.34524 0.91937 0.0
C210 C 0.9235 0.34264 0.8861 0.0
C211 C 0.93826 0.35108 0.91615 0.0
O212 O 0.86722 0.33794 1.03302 0.0
O213 O 0.88086 0.38624 1.03071 0.0
O214 O 0.91952 0.42643 1.00241 0.0
O215 O 0.93206 0.39937 1.01139 0.0
O216 O 0.90705 0.38458 1.05865 0.0
O217 O 0.89743 0.33392 1.02282 0.0
O218 O 0.86059 0.39496 0.93004 0.0
O219 O 0.89824 0.3857 0.95133 0.0
O220 O 0.86169 0.34301 0.97709 0.0
O221 O 0.84848 0.36927 0.96977 0.0
O222 O 0.915 0.42156 0.94159 0.0
O223 O 0.8726 0.42963 0.95162 0.0
C224 C 0.89273 0.39279 1.06122 0.0
C225 C 0.87535 0.31632 1.07561 0.0
C226 C 0.88922 0.3228 0.13777 0.0
C227 C 0.8904 0.3312 0.10248 0.0
C228 C 0.87228 0.29924 0.14597 0.0
C229 C 0.85852 0.2929 1.0842 0.0
C230 C 0.85696 0.28444 0.1193 0.0
C231 C 0.93585 0.42106 1.01176 0.0
C232 C 0.87696 0.3251 1.03868 0.0
C233 C 0.96084 0.3534 0.91599 0.0
C234 C 0.97443 0.35988 0.9474 0.0
C235 C 0.91577 0.40285 0.93309 0.0
C236 C 0.83319 0.40835 0.93005 0.0
C237 C 0.81761 0.39428 0.9029 0.0
C238 C 0.79384 0.38903 0.9025 0.0
C239 C 0.78572 0.39738 0.9308 0.0
C240 C 0.82465 0.41658 0.95784 0.0
C241 C 0.80101 0.41088 0.95833 0.0
C242 C 0.84465 0.34734 0.96856 0.0
C243 C 0.85792 0.41336 0.92987 0.0
H244 H 0.90336 0.34919 0.09569 0.0
H245 H 0.87078 0.29229 0.17296 0.0
H246 H 0.84663 0.28118 1.06378 0.0
H247 H 0.84393 0.26633 0.12583 0.0
H248 H 0.82417 0.38748 0.88209 0.0
H249 H 0.76778 0.39421 0.93122 0.0
H250 H 0.83615 0.42739 0.97926 0.0
H251 H 0.79461 0.41732 0.97984 0.0
Eu252 Eu 0.51829 0.89849 0.33339 0.0
C253 C 0.42237 0.88551 0.36391 0.0
C254 C 0.40835 0.85278 0.40608 0.0
C255 C 0.39348 0.88012 0.40982 0.0
C256 C 0.42281 0.86581 0.37671 0.0
C257 C 0.40757 0.89279 0.38019 0.0
C258 C 0.39383 0.86013 0.42268 0.0
C259 C 0.42141 0.92442 0.33636 0.0
N260 N 0.43661 0.89775 0.33583 0.0
C261 C 0.43585 0.9166 0.32122 0.0
C262 C 0.40738 0.9126 0.36621 0.0
Eu263 Eu 0.46115 0.88379 0.31264 0.0
N264 N 0.43761 0.85958 0.36089 0.0
C265 C 0.4378 0.8397 0.3718 0.0
C266 C 0.4091 0.83287 0.41815 0.0
C267 C 0.42377 0.82621 0.40074 0.0
H268 H 0.44688 0.92599 0.29837 0.0
H269 H 0.42434 0.81073 0.40967 0.0
H270 H 0.3828 0.85048 0.44548 0.0
H271 H 0.42123 0.93963 0.32515 0.0
H272 H 0.44915 0.83445 0.35877 0.0
H273 H 0.58801 -0.00883 0.35274 0.0
H274 H 0.39836 0.82247 0.44072 0.0
H275 H 0.51388 0.86308 0.26215 0.0
H276 H 0.55739 0.95124 0.3717 0.0
H277 H 0.52824 0.86708 0.20081 0.0
H278 H 0.38217 0.88557 0.42287 0.0
H279 H 0.60014 -0.00079 0.2889 0.0
H280 H 0.59755 0.9837 0.22684 0.0
H281 H 0.39632 0.91879 0.37804 0.0
H282 H 0.58185 0.94986 0.18589 0.0
N283 N 0.55028 0.93714 0.31873 0.0
C284 C 0.56181 0.95472 0.34356 0.0
C285 C 0.58629 0.98174 0.297 0.0
C286 C 0.57608 0.96327 0.27224 0.0
C287 C 0.57947 0.9773 0.333 0.0
C288 C 0.55806 0.94076 0.28411 0.0
H289 H 0.55666 0.90646 0.17624 0.0
N290 N 0.53227 0.90001 0.27328 0.0
C291 C 0.53405 0.88265 0.21723 0.0
C292 C 0.54918 0.92164 0.26099 0.0
C293 C 0.52555 0.88051 0.25233 0.0
C294 C 0.55017 0.90485 0.20353 0.0
C295 C 0.5582 0.92465 0.22553 0.0
O296 O 0.52775 0.87216 0.35045 0.0
O297 O 0.48175 0.88176 0.36078 0.0
O298 O 0.47464 0.91599 0.34795 0.0
O299 O 0.51504 0.92995 0.34998 0.0
O300 O 0.50974 0.90148 0.39354 0.0
O301 O 0.55328 0.90911 0.35517 0.0
O302 O 0.43878 0.88479 0.26988 0.0
O303 O 0.49713 0.8989 0.28332 0.0
O304 O 0.49957 0.85866 0.3238 0.0
O305 O 0.46554 0.85185 0.29515 0.0
O306 O 0.47923 0.91711 0.2772 0.0
O307 O 0.43352 0.85116 0.28843 0.0
C308 C 0.48679 0.88916 0.39428 0.0
C309 C 0.55247 0.88384 0.40133 0.0
C310 C 0.55748 0.89517 0.46456 0.0
C311 C 0.55353 0.89906 0.42871 0.0
C312 C 0.56032 0.87577 0.47294 0.0
C313 C 0.55518 0.86446 0.41012 0.0
C314 C 0.55907 0.86047 0.44582 0.0
C315 C 0.49637 0.93182 0.35776 0.0
C316 C 0.54802 0.88778 0.36379 0.0
C317 C 0.57513 0.94722 0.21319 0.0
C318 C 0.58401 0.96649 0.23646 0.0
C319 C 0.49792 0.91698 0.26645 0.0
C320 C 0.42956 0.85521 0.2263 0.0
C321 C 0.41731 0.83114 0.21717 0.0
C322 C 0.41833 0.82419 0.18195 0.0
C323 C 0.43185 0.84134 0.15589 0.0
C324 C 0.44318 0.87218 0.19993 0.0
C325 C 0.44431 0.86521 0.16495 0.0
C326 C 0.48029 0.8445 0.30553 0.0
C327 C 0.42873 0.86224 0.26361 0.0
H328 H 0.55182 0.91429 0.42211 0.0
H329 H 0.56345 0.87245 0.50042 0.0
H330 H 0.55426 0.85244 0.38941 0.0
H331 H 0.56119 0.8455 0.45246 0.0
H332 H 0.40683 0.81789 0.23727 0.0
H333 H 0.43281 0.83621 0.12854 0.0
H334 H 0.45307 0.89083 0.20627 0.0
H335 H 0.45485 0.87835 0.14482 0.0
Eu336 Eu 0.60668 0.52319 0.66386 0.0
C337 C 0.515 0.43161 0.69086 0.0
C338 C 0.52396 0.4135 0.7411 0.0
C339 C 0.48358 0.40503 0.73156 0.0
C340 C 0.53138 0.4287 0.71087 0.0
C341 C 0.49094 0.41983 0.70108 0.0
C342 C 0.50002 0.4018 0.75142 0.0
C343 C 0.48311 0.43799 0.65002 0.0
N344 N 0.5227 0.44635 0.66178 0.0
C345 C 0.50714 0.44931 0.64087 0.0
C346 C 0.47499 0.42328 0.68033 0.0
Eu347 Eu 0.56339 0.46344 0.64778 0.0
N348 N 0.55459 0.44095 0.70115 0.0
C349 C 0.57106 0.4377 0.71895 0.0
C350 C 0.54089 0.41065 0.7602 0.0
C351 C 0.56451 0.42269 0.74893 0.0
H352 H 0.51335 0.46073 0.61751 0.0
H353 H 0.57767 0.42045 0.76334 0.0
H354 H 0.49403 0.39022 0.77474 0.0
H355 H 0.47086 0.44063 0.63373 0.0
H356 H 0.58931 0.44688 0.71002 0.0
H357 H 0.58968 0.59606 0.68895 0.0
H358 H 0.5359 0.39917 0.78359 0.0
H359 H 0.62615 0.5106 0.58598 0.0
H360 H 0.59512 0.56253 0.70491 0.0
H361 H 0.63595 0.52522 0.52441 0.0
H362 H 0.46518 0.39589 0.7399 0.0
H363 H 0.59559 0.61052 0.62613 0.0
H364 H 0.60709 0.60785 0.56299 0.0
H365 H 0.45637 0.41458 0.68736 0.0
H366 H 0.62042 0.58921 0.51884 0.0
N367 N 0.60231 0.55665 0.6513 0.0
C368 C 0.59697 0.56811 0.67719 0.0
C369 C 0.59761 0.59549 0.63291 0.0
C370 C 0.60428 0.58459 0.60685 0.0
C371 C 0.5942 0.58736 0.66834 0.0
C372 C 0.60667 0.56503 0.617 0.0
H373 H 0.63144 0.55877 0.50436 0.0
N374 N 0.61641 0.53572 0.60261 0.0
C375 C 0.62993 0.53369 0.54318 0.0
C376 C 0.61421 0.5545 0.59213 0.0
C377 C 0.62447 0.52552 0.57865 0.0
C378 C 0.62734 0.5526 0.53195 0.0
C379 C 0.61948 0.5633 0.55644 0.0
O380 O 0.64306 0.53199 0.67584 0.0
O381 O 0.58741 0.48689 0.69256 0.0
O382 O 0.54614 0.47975 0.68188 0.0
O383 O 0.57219 0.52043 0.6799 0.0
O384 O 0.59618 0.51528 0.72445 0.0
O385 O 0.63157 0.55659 0.68943 0.0
O386 O 0.54178 0.43328 0.61224 0.0
O387 O 0.58073 0.49956 0.62008 0.0
O388 O 0.62836 0.50572 0.65071 0.0
O389 O 0.60049 0.46784 0.63384 0.0
O390 O 0.55379 0.47299 0.59261 0.0
O391 O 0.57098 0.43499 0.64337 0.0
C392 C 0.58574 0.49245 0.72598 0.0
C393 C 0.65588 0.55135 0.73147 0.0
C394 C 0.64998 0.5522 0.79636 0.0
C395 C 0.64336 0.55332 0.76071 0.0
C396 C 0.66937 0.54891 0.80254 0.0
C397 C 0.67533 0.54829 0.7382 0.0
C398 C 0.68199 0.54706 0.77357 0.0
C399 C 0.55195 0.50184 0.68939 0.0
C400 C 0.64766 0.55068 0.69421 0.0
C401 C 0.61663 0.5824 0.54614 0.0
C402 C 0.60899 0.59298 0.57126 0.0
C403 C 0.56827 0.49546 0.59045 0.0
C404 C 0.5563 0.40717 0.59617 0.0
C405 C 0.57871 0.41266 0.58313 0.0
C406 C 0.58143 0.39572 0.56399 0.0
C407 C 0.56152 0.37342 0.55753 0.0
C408 C 0.53658 0.38495 0.58908 0.0
C409 C 0.5392 0.36817 0.56979 0.0
C410 C 0.62295 0.48467 0.63883 0.0
C411 C 0.55344 0.42264 0.62153 0.0
H412 H 0.62809 0.55531 0.75582 0.0
H413 H 0.67505 0.54822 0.82969 0.0
H414 H 0.68514 0.54651 0.71611 0.0
H415 H 0.69698 0.54463 0.77855 0.0
H416 H 0.59401 0.42978 0.58848 0.0
H417 H 0.56315 0.36028 0.54215 0.0
H418 H 0.51924 0.38033 0.59939 0.0
H419 H 0.52393 0.351 0.56455 0.0
Eu420 Eu 0.07286 0.61288 1.00297 0.0
C421 C 0.07917 0.52868 1.03277 0.0
C422 C 0.11348 0.54383 1.07181 0.0
C423 C 0.08141 0.50334 1.07897 0.0
C424 C 0.1007 0.54745 1.04422 0.0
C425 C 0.06956 0.50634 1.0497 0.0
C426 C 0.10342 0.52197 0.08978 0.0
C427 C 0.03864 0.49062 1.00488 0.0
N428 N 0.06841 0.53179 1.00364 0.0
C429 C 0.04903 0.5129 0.98851 0.0
C430 C 0.04873 0.48741 1.03594 0.0
Eu431 Eu 0.08611 0.57089 0.98037 0.0
N432 N 0.10982 0.56874 1.02713 0.0
C433 C 0.1323 0.58647 1.03472 0.0
C434 C 0.13633 0.56205 1.07989 0.0
C435 C 0.14593 0.58328 1.06078 0.0
H436 H 0.04112 0.51522 0.96444 0.0
H437 H 0.16367 0.59743 1.06665 0.0
H438 H 0.11279 0.5191 0.11153 0.0
H439 H 0.02287 0.47594 0.9935 0.0
H440 H 0.14006 0.60326 1.02113 0.0
H441 H -0.00464 0.6062 1.07108 0.0
H442 H 0.14679 0.55983 0.10056 0.0
H443 H 0.09233 0.63183 0.91571 0.0
H444 H 0.03204 0.60466 1.06598 0.0
H445 H 0.07873 0.64286 0.86205 0.0
H446 H 0.07414 0.4864 0.09256 0.0
H447 H 0.97853 0.61472 1.01734 0.0
H448 H 0.98169 0.62462 0.95184 0.0
H449 H 0.04075 0.47007 1.0484 0.0
H450 H 0.00415 0.63427 0.8953 0.0
N451 N 0.03706 0.61356 1.01025 0.0
C452 C 0.02561 0.60945 1.04261 0.0
C453 C -0.005 0.61456 1.01508 0.0
C454 C 0.00693 0.61915 0.98215 0.0
C455 C 0.0045 0.60989 1.0455 0.0
C456 C 0.02836 0.61875 0.98053 0.0
H457 H 0.04024 0.6414 0.86191 0.0
N458 N 0.0622 0.62461 0.94804 0.0
C459 C 0.06803 0.63777 0.88624 0.0
C460 C 0.04119 0.62433 0.94863 0.0
C461 C 0.07582 0.63172 0.91738 0.0
C462 C 0.04625 0.63681 0.8862 0.0
C463 C 0.03264 0.63027 0.91761 0.0
O464 O 0.10478 0.64078 1.02854 0.0
O465 O 0.08958 0.59252 1.03041 0.0
O466 O 0.05037 0.55255 1.00889 0.0
O467 O 0.03764 0.57964 1.00781 0.0
O468 O 0.06406 0.59478 1.05913 0.0
O469 O 0.07418 0.64481 1.02388 0.0
O470 O 0.10694 0.57938 0.93093 0.0
O471 O 0.07152 0.592 0.9519 0.0
O472 O 0.10757 0.63391 0.97286 0.0
O473 O 0.12092 0.60749 0.97172 0.0
O474 O 0.05361 0.5562 0.94329 0.0
O475 O 0.09521 0.54586 0.95708 0.0
C476 C 0.07852 0.58676 1.06154 0.0
C477 C 0.09802 0.66002 1.07581 0.0
C478 C 0.08395 0.65035 0.13788 0.0
C479 C 0.08085 0.64546 0.10092 0.0
C480 C 0.10474 0.67058 0.14946 0.0
C481 C 0.11865 0.68007 0.08772 0.0
C482 C 0.12192 0.68535 0.12444 0.0
C483 C 0.034 0.5584 1.01478 0.0
C484 C 0.09521 0.65323 1.03769 0.0
C485 C 0.01098 0.62992 0.91893 0.0
C486 C -0.00181 0.62443 0.95111 0.0
C487 C 0.05362 0.57526 0.9341 0.0
C488 C 0.13402 0.56551 0.93273 0.0
C489 C 0.15046 0.5826 0.90899 0.0
C490 C 0.17405 0.58747 0.90757 0.0
C491 C 0.1811 0.57529 0.93126 0.0
C492 C 0.14149 0.55359 0.95615 0.0
C493 C 0.16493 0.5586 0.95547 0.0
C494 C 0.12474 0.62934 0.96702 0.0
C495 C 0.10943 0.5609 0.93332 0.0
H496 H 0.06496 0.63031 0.09155 0.0
H497 H 0.10786 0.67485 0.17777 0.0
H498 H 0.13229 0.69142 1.06873 0.0
H499 H 0.13792 0.7008 0.13357 0.0
H500 H 0.14474 0.59211 0.89155 0.0
H501 H 0.19889 0.57804 0.93043 0.0
H502 H 0.1293 0.54045 0.97506 0.0
H503 H 0.17052 0.54924 0.97341 0.0
Eu504 Eu 0.9002 0.5263 0.50137 0.0
C505 C 0.88977 0.43215 0.47877 0.0
C506 C 0.85287 0.41039 0.44601 0.0
C507 C 0.88351 0.40003 0.43905 0.0
C508 C 0.8678 0.42906 0.46922 0.0
C509 C 0.89773 0.41752 0.4639 0.0
C510 C 0.86104 0.3963 0.43045 0.0
C511 C 0.93209 0.43649 0.50234 0.0
N512 N 0.90274 0.44842 0.50416 0.0
C513 C 0.9232 0.45006 0.51714 0.0
C514 C 0.91941 0.4203 0.47536 0.0
Eu515 Eu 0.88648 0.4712 0.52672 0.0
N516 N 0.86047 0.44337 0.48388 0.0
C517 C 0.83799 0.43911 0.47753 0.0
C518 C 0.8299 0.40602 0.4397 0.0
C519 C 0.82237 0.4203 0.45583 0.0
H520 H 0.93299 0.46235 0.53836 0.0
H521 H 0.80463 0.41709 0.45106 0.0
H522 H 0.84993 0.38219 0.41215 0.0
H523 H 0.9486 0.43838 0.512 0.0
H524 H 0.83167 0.45005 0.48863 0.0
H525 H 0.97612 0.59446 0.42611 0.0
H526 H 0.81785 0.39169 0.42245 0.0
H527 H 0.8829 0.529 0.58827 0.0
H528 H 0.93876 0.55717 0.43445 0.0
H529 H 0.89855 0.55491 0.64023 0.0
H530 H 0.88941 0.38875 0.42725 0.0
H531 H -0.00456 0.62062 0.47803 0.0
H532 H -0.00543 0.62905 0.54334 0.0
H533 H 0.92617 0.40953 0.46432 0.0
H534 H 0.97361 0.61822 0.60129 0.0
N535 N 0.93626 0.56201 0.49059 0.0
C536 C 0.94652 0.56855 0.45726 0.0
C537 C 0.9788 0.60429 0.48183 0.0
C538 C 0.96791 0.59794 0.51565 0.0
C539 C 0.96792 0.58965 0.45244 0.0
C540 C 0.94621 0.57648 0.51927 0.0
H541 H 0.93788 0.59097 0.63734 0.0
N542 N 0.91284 0.55009 0.55439 0.0
C543 C 0.90876 0.55949 0.61558 0.0
C544 C 0.93425 0.57034 0.552 0.0
C545 C 0.89983 0.5449 0.58551 0.0
C546 C 0.93101 0.57975 0.6139 0.0
C547 C 0.94392 0.58559 0.58182 0.0
O548 O 0.86869 0.52267 0.47461 0.0
O549 O 0.88301 0.48876 0.47544 0.0
O550 O 0.921 0.48755 0.49511 0.0
O551 O 0.93512 0.52756 0.49714 0.0
O552 O 0.90778 0.51638 0.44529 0.0
O553 O 0.89898 0.55732 0.48178 0.0
O554 O 0.86281 0.45788 0.57322 0.0
O555 O 0.90157 0.50732 0.55369 0.0
O556 O 0.86591 0.5136 0.53232 0.0
O557 O 0.85228 0.47384 0.53575 0.0
O558 O 0.91927 0.48929 0.56302 0.0
O559 O 0.88093 0.43974 0.55595 0.0
C560 C 0.89365 0.4938 0.44391 0.0
C561 C 0.87521 0.55114 0.43047 0.0
C562 C 0.88773 0.55782 0.36751 0.0
C563 C 0.89029 0.55193 0.40302 0.0
C564 C 0.86943 0.56258 0.35973 0.0
C565 C 0.85704 0.55587 0.42226 0.0
C566 C 0.85416 0.56151 0.38698 0.0
C567 C 0.93784 0.50959 0.48895 0.0
C568 C 0.87806 0.54508 0.46757 0.0
C569 C 0.96591 0.60646 0.57859 0.0
C570 C 0.97785 0.61264 0.54559 0.0
C571 C 0.91951 0.50848 0.57151 0.0
C572 C 0.84065 0.41623 0.57305 0.0
C573 C 0.82109 0.41423 0.59186 0.0
C574 C 0.79903 0.39304 0.59154 0.0
C575 C 0.7967 0.37431 0.57 0.0
C576 C 0.83778 0.39726 0.55183 0.0
C577 C 0.81584 0.37659 0.55001 0.0
C578 C 0.84863 0.49201 0.53911 0.0
C579 C 0.86365 0.43845 0.57502 0.0
H580 H 0.90428 0.54836 0.40947 0.0
H581 H 0.86683 0.56696 0.3326 0.0
H582 H 0.8451 0.55517 0.44309 0.0
H583 H 0.84007 0.56512 0.38075 0.0
H584 H 0.82335 0.42929 0.60703 0.0
H585 H 0.78043 0.35745 0.56941 0.0
H586 H 0.85241 0.39832 0.53658 0.0
H587 H 0.8138 0.36202 0.53372 0.0
Eu588 Eu 0.36801 0.90525 0.8371 0.0
C589 C 0.44967 0.88848 0.8164 0.0
C590 C 0.43236 0.85673 0.77287 0.0
C591 C 0.47506 0.88265 0.77486 0.0
C592 C 0.42983 0.86958 0.80121 0.0
C593 C 0.47252 0.89508 0.80356 0.0
C594 C 0.45504 0.86351 0.75958 0.0
C595 C 0.48878 0.92536 0.84913 0.0
N596 N 0.44666 0.90045 0.8437 0.0
C597 C 0.46581 0.91821 0.86093 0.0
C598 C 0.49215 0.91391 0.82009 0.0
Eu599 Eu 0.40711 0.8873 0.86138 0.0
N600 N 0.40807 0.86387 0.81384 0.0
C601 C 0.38821 0.84461 0.80087 0.0
C602 C 0.41199 0.83755 0.75852 0.0
C603 C 0.38984 0.83135 0.77281 0.0
H604 H 0.46337 0.92716 0.8834 0.0
H605 H 0.374 0.81638 0.76218 0.0
H606 H 0.4573 0.85401 0.73758 0.0
H607 H 0.50387 0.93972 0.8624 0.0
H608 H 0.37102 0.83965 0.81175 0.0
H609 H 0.40343 0.00148 0.82815 0.0
H610 H 0.41319 0.82732 0.73664 0.0
H611 H 0.32922 0.86762 0.90032 0.0
H612 H 0.39131 0.96198 0.80488 0.0
H613 H 0.31409 0.8691 0.95937 0.0
H614 H 0.49246 0.88758 0.76447 0.0
H615 H 0.39469 0.0063 0.89114 0.0
H616 H 0.37453 0.98756 0.94903 0.0
H617 H 0.50998 0.91953 0.81096 0.0
H618 H 0.34927 0.95158 0.98396 0.0
N619 N 0.37828 0.94439 0.85536 0.0
C620 C 0.3883 0.96377 0.83294 0.0
C621 C 0.38986 0.98888 0.88134 0.0
C622 C 0.37747 0.96887 0.90315 0.0
C623 C 0.39485 0.98625 0.84582 0.0
C624 C 0.37167 0.94651 0.8892 0.0
H625 H 0.32627 0.90757 0.9877 0.0
N626 N 0.35213 0.90485 0.89516 0.0
C627 C 0.32669 0.88533 0.94592 0.0
C628 C 0.35775 0.9262 0.90924 0.0
C629 C 0.33592 0.88457 0.91238 0.0
C630 C 0.33345 0.90704 0.96167 0.0
C631 C 0.34889 0.92783 0.94321 0.0
O632 O 0.33088 0.88299 0.82136 0.0
O633 O 0.38577 0.88609 0.81173 0.0
O634 O 0.42882 0.91862 0.82505 0.0
O635 O 0.40448 0.93479 0.82049 0.0
O636 O 0.38022 0.90739 0.7777 0.0
O637 O 0.34888 0.92031 0.81008 0.0
O638 O 0.42466 0.88514 0.91015 0.0
O639 O 0.38711 0.90388 0.88925 0.0
O640 O 0.34511 0.86491 0.84266 0.0
O641 O 0.36943 0.85671 0.87661 0.0
O642 O 0.42316 0.92054 0.89657 0.0
O643 O 0.40166 0.85338 0.88065 0.0
C644 C 0.38928 0.89374 0.7781 0.0
C645 C 0.32155 0.89487 0.76674 0.0
C646 C 0.32832 0.90295 0.70228 0.0
C647 C 0.33636 0.908 0.73795 0.0
C648 C 0.30517 0.88451 0.69556 0.0
C649 C 0.29853 0.87647 0.75955 0.0
C650 C 0.29041 0.87133 0.7241 0.0
C651 C 0.42452 0.93525 0.81372 0.0
C652 C 0.33011 0.89995 0.80417 0.0
C653 C 0.35554 0.95006 0.95767 0.0
C654 C 0.36997 0.97054 0.93782 0.0
C655 C 0.40466 0.92124 0.90689 0.0
C656 C 0.4 0.85021 0.94348 0.0
C657 C 0.39063 0.82574 0.94744 0.0
C658 C 0.37778 0.81373 0.97851 0.0
C659 C 0.3742 0.82689 1.00529 0.0
C660 C 0.39572 0.86272 0.97019 0.0
C661 C 0.38287 0.85105 1.00087 0.0
C662 C 0.34827 0.85005 0.86285 0.0
C663 C 0.4131 0.86211 0.91046 0.0
H664 H 0.35402 0.92255 0.74326 0.0
H665 H 0.29851 0.8803 0.6683 0.0
H666 H 0.28685 0.86608 0.78135 0.0
H667 H 0.27261 0.85712 0.71873 0.0
H668 H 0.39337 0.81618 0.92606 0.0
H669 H 0.36528 0.8188 1.03031 0.0
H670 H 0.40227 0.8815 0.96742 0.0
H671 H 0.37987 0.86083 1.02159 0.0
Eu672 Eu 0.45495 0.37414 0.16957 0.0
C673 C 0.5527 0.45128 0.13669 0.0
C674 C 0.56355 0.42969 0.09543 0.0
C675 C 0.58137 0.47225 0.08902 0.0
C676 C 0.55021 0.43007 0.12504 0.0
C677 C 0.56841 0.47263 0.11889 0.0
C678 C 0.57906 0.45086 1.07748 0.0
C679 C 0.55806 0.49337 0.16221 0.0
N680 N 0.53969 0.45107 0.1653 0.0
C681 C 0.5428 0.47181 0.17908 0.0
C682 C 0.57072 0.49376 0.13174 0.0
Eu683 Eu 0.51342 0.41355 0.19121 0.0
N684 N 0.53459 0.4098 0.14229 0.0
C685 C 0.53231 0.38866 0.13238 0.0
C686 C 0.56074 0.408 1.08451 0.0
C687 C 0.54515 0.38742 0.10322 0.0
H688 H 0.53281 0.47156 0.20244 0.0
H689 H 0.54294 0.37057 0.0951 0.0
H690 H 0.58938 0.45087 1.05466 0.0
H691 H 0.55994 0.50964 0.17264 0.0
H692 H 0.52015 0.37259 0.14631 0.0
H693 H 0.39013 0.39612 0.11548 0.0
H694 H 0.57056 0.40696 1.06179 0.0
H695 H 0.45413 0.34978 0.2516 0.0
H696 H 0.42254 0.38718 0.11273 0.0
H697 H 0.43353 0.34242 0.30938 0.0
H698 H 0.59337 0.48843 1.07485 0.0
H699 H 0.37134 0.39471 0.17389 0.0
H700 H 0.36765 0.38548 0.23982 0.0
H701 H 0.58246 0.51047 0.11862 0.0
H702 H 0.37917 0.37053 0.29226 0.0
N703 N 0.42294 0.38175 0.16913 0.0
C704 C 0.41459 0.38663 0.13836 0.0
C705 C 0.3857 0.39092 0.17284 0.0
C706 C 0.39319 0.38436 0.20388 0.0
C707 C 0.39621 0.3917 0.13983 0.0
C708 C 0.41199 0.3796 0.20113 0.0
H709 H 0.40322 0.354 0.31815 0.0
N710 N 0.43591 0.36562 0.22688 0.0
C711 C 0.42915 0.35054 0.28751 0.0
C712 C 0.41848 0.37109 0.2307 0.0
C713 C 0.44078 0.35471 0.2544 0.0
C714 C 0.4121 0.35714 0.29238 0.0
C715 C 0.40631 0.36724 0.26373 0.0
O716 O 0.45024 0.34143 0.14627 0.0
O717 O 0.49167 0.39241 0.14296 0.0
O718 O 0.50146 0.43478 0.15871 0.0
O719 O 0.46074 0.4102 0.15333 0.0
O720 O 0.46424 0.38624 0.10995 0.0
O721 O 0.41986 0.34548 0.1544 0.0
O722 O 0.53808 0.4372 0.2315 0.0
O723 O 0.47701 0.3942 0.21947 0.0
O724 O 0.46847 0.35048 0.19186 0.0
O725 O 0.50715 0.37631 0.20777 0.0
O726 O 0.49756 0.42966 0.22937 0.0
O727 O 0.53935 0.40611 0.21602 0.0
C728 C 0.48707 0.39582 0.10966 0.0
C729 C 0.41976 0.32393 0.10392 0.0
C730 C 0.41194 0.33161 1.04273 0.0
C731 C 0.4191 0.33916 1.07803 0.0
C732 C 0.40525 0.30827 1.03345 0.0
C733 C 0.41326 0.30076 0.09442 0.0
C734 C 0.406 0.29297 1.05923 0.0
C735 C 0.48039 0.43062 0.14834 0.0
C736 C 0.42772 0.33251 0.14051 0.0
C737 C 0.38845 0.3731 0.26699 0.0
C738 C 0.38192 0.38165 0.23715 0.0
C739 C 0.47745 0.41152 0.23775 0.0
C740 C 0.54749 0.41762 0.27645 0.0
C741 C 0.5615 0.40785 0.28649 0.0
C742 C 0.56242 0.40183 0.32255 0.0
C743 C 0.54888 0.40561 0.34842 0.0
C744 C 0.53407 0.42115 0.30262 0.0
C745 C 0.53475 0.41509 0.3384 0.0
C746 C 0.48894 0.3544 0.20485 0.0
C747 C 0.54677 0.42357 0.2385 0.0
H748 H 0.42364 0.35683 0.08558 0.0
H749 H 0.39957 0.30192 1.00636 0.0
H750 H 0.41379 0.28878 0.11412 0.0
H751 H 0.4009 0.27504 1.05194 0.0
H752 H 0.57158 0.40487 0.26612 0.0
H753 H 0.5496 0.40178 0.37662 0.0
H754 H 0.5231 0.42863 0.2955 0.0
H755 H 0.52448 0.41797 0.3585 0.0
Eu756 Eu 0.07113 0.45342 0.50204 0.0
C757 C 0.08246 0.54674 0.47443 0.0
C758 C 0.11727 0.56482 0.43624 0.0
C759 C 0.08748 0.57645 0.43008 0.0
C760 C 0.10325 0.54801 0.46274 0.0
C761 C 0.07462 0.56131 0.45864 0.0
C762 C 0.10889 0.57839 0.41916 0.0
C763 C 0.04394 0.54765 0.50387 0.0
N764 N 0.071 0.53282 0.50323 0.0
C765 C 0.05259 0.53388 0.51903 0.0
C766 C 0.05477 0.56114 0.47319 0.0
Eu767 Eu 0.0863 0.50919 0.52626 0.0
N768 N 0.11079 0.53434 0.47928 0.0
C769 C 0.13292 0.5379 0.47226 0.0
C770 C 0.13979 0.56826 0.42875 0.0
C771 C 0.14781 0.55507 0.44738 0.0
H772 H 0.0442 0.52357 0.54294 0.0
H773 H 0.1653 0.55777 0.44203 0.0
H774 H 0.11921 0.591 0.39825 0.0
H775 H 0.02898 0.5479 0.51594 0.0
H776 H 0.13943 0.52768 0.48562 0.0
H777 H -0.01032 0.38173 0.44416 0.0
H778 H 0.15122 0.58127 0.40905 0.0
H779 H 0.09461 0.45513 0.58624 0.0
H780 H 0.02924 0.41764 0.44326 0.0
H781 H 0.08192 0.43354 0.64312 0.0
H782 H 0.08159 0.58756 0.41739 0.0
H783 H 0.97256 0.36106 0.50176 0.0
H784 H 0.97738 0.35765 0.56796 0.0
H785 H 0.04825 0.57209 0.46187 0.0
H786 H 0.00254 0.37159 0.62174 0.0
N787 N 0.0341 0.41777 0.49984 0.0
C788 C 0.02187 0.40875 0.46851 0.0
C789 C -0.01011 0.37686 0.5015 0.0
C790 C 0.00307 0.38534 0.53317 0.0
C791 C -0.00051 0.38844 0.46894 0.0
C792 C 0.02556 0.40604 0.53147 0.0
H793 H 0.04152 0.39937 0.64968 0.0
N794 N 0.06181 0.4334 0.55905 0.0
C795 C 0.0699 0.42783 0.62048 0.0
C796 C 0.03983 0.41395 0.5618 0.0
C797 C 0.07711 0.43991 0.58765 0.0
C798 C 0.04707 0.40861 0.62412 0.0
C799 C 0.03182 0.40123 0.59455 0.0
O800 O 0.10157 0.45439 0.47601 0.0
O801 O 0.08887 0.49088 0.47544 0.0
O802 O 0.04954 0.49276 0.50088 0.0
O803 O 0.03737 0.45343 0.49062 0.0
O804 O 0.06325 0.46358 0.44598 0.0
O805 O 0.06935 0.4211 0.48204 0.0
O806 O 0.09396 0.54167 0.5538 0.0
O807 O 0.07011 0.4729 0.55344 0.0
O808 O 0.10758 0.46688 0.52642 0.0
O809 O 0.11997 0.50593 0.53719 0.0
O810 O 0.05431 0.49236 0.56461 0.0
O811 O 0.11135 0.52281 0.57117 0.0
C812 C 0.07801 0.4861 0.44418 0.0
C813 C 0.09311 0.42649 0.43103 0.0
C814 C 0.08119 0.42234 0.36807 0.0
C815 C 0.0782 0.42669 0.4041 0.0
C816 C 0.09954 0.41785 0.35933 0.0
C817 C 0.1113 0.42201 0.42194 0.0
C818 C 0.11447 0.4177 0.38618 0.0
C819 C 0.03351 0.47128 0.49024 0.0
C820 C 0.09053 0.43206 0.46831 0.0
C821 C 0.00904 0.38131 0.59669 0.0
C822 C -0.0053 0.37339 0.56609 0.0
C823 C 0.05266 0.47229 0.57196 0.0
C824 C 0.13441 0.56439 0.56952 0.0
C825 C 0.15221 0.56876 0.59457 0.0
C826 C 0.1743 0.58991 0.59321 0.0
C827 C 0.17868 0.60594 0.5648 0.0
C828 C 0.1392 0.58078 0.5416 0.0
C829 C 0.16131 0.60123 0.53906 0.0
C830 C 0.12419 0.48802 0.53654 0.0
C831 C 0.11115 0.54256 0.57257 0.0
H832 H 0.064 0.42983 0.41133 0.0
H833 H 0.10239 0.41455 0.33178 0.0
H834 H 0.12311 0.422 0.44245 0.0
H835 H 0.12857 0.41427 0.37924 0.0
H836 H 0.14856 0.55573 0.61543 0.0
H837 H 0.19515 0.6226 0.56307 0.0
H838 H 0.12588 0.57794 0.52182 0.0
H839 H 0.16479 0.61379 0.51753 0.0
Eu840 Eu 0.60673 0.07654 0.83815 0.0
C841 C 0.52083 0.08232 0.8072 0.0
C842 C 0.53582 0.11809 0.77135 0.0
C843 C 0.4954 0.08619 0.76299 0.0
C844 C 0.53957 0.10425 0.79696 0.0
C845 C 0.49842 0.07335 0.79078 0.0
C846 C 0.51398 0.10862 0.75354 0.0
C847 C 0.48255 0.04121 0.83384 0.0
N848 N 0.52391 0.07067 0.83518 0.0
C849 C 0.50492 0.0509 0.84965 0.0
C850 C 0.47937 0.05225 0.80387 0.0
Eu851 Eu 0.56297 0.08792 0.85861 0.0
N852 N 0.56077 0.11292 0.81409 0.0
C853 C 0.57797 0.13602 0.80924 0.0
C854 C 0.55373 0.14146 0.7655 0.0
C855 C 0.57466 0.15062 0.78519 0.0
H856 H 0.50715 0.04226 0.8729 0.0
H857 H 0.58844 0.16884 0.78146 0.0
H858 H 0.51103 0.11882 0.73326 0.0
H859 H 0.46776 0.02526 0.84481 0.0
H860 H 0.59428 0.14365 0.82391 0.0
H861 H 0.58355 0.98297 0.84476 0.0
H862 H 0.55137 0.15272 0.74647 0.0
H863 H 0.64475 0.11925 0.89736 0.0
H864 H 0.59236 0.02004 0.81491 0.0
H865 H 0.65652 0.12264 0.95989 0.0
H866 H 0.47842 0.07943 0.74977 0.0
H867 H 0.5903 0.98235 0.91005 0.0
H868 H 0.60597 0.00475 0.96712 0.0
H869 H 0.46195 0.0448 0.79187 0.0
H870 H 0.62586 0.04279 0.99848 0.0
N871 N 0.60105 0.04006 0.86327 0.0
C872 C 0.59411 0.01991 0.84371 0.0
C873 C 0.59359 -0.00136 0.89718 0.0
C874 C 0.60301 0.01969 0.91649 0.0
C875 C 0.58966 -0.00111 0.86042 0.0
C876 C 0.60691 0.04048 0.89852 0.0
H877 H 0.64474 0.08668 0.99613 0.0
N878 N 0.62217 0.08182 0.89821 0.0
C879 C 0.64501 0.10539 0.94846 0.0
C880 C 0.61796 0.06193 0.91635 0.0
C881 C 0.63728 0.10339 0.91293 0.0
C882 C 0.63856 0.08509 0.96865 0.0
C883 C 0.62556 0.06304 0.95235 0.0
O884 O 0.64303 0.10122 0.81981 0.0
O885 O 0.58689 0.09376 0.81004 0.0
O886 O 0.54509 0.05376 0.82612 0.0
O887 O 0.57426 0.04409 0.81845 0.0
O888 O 0.59215 0.07075 0.77973 0.0
O889 O 0.62965 0.06392 0.8176 0.0
O890 O 0.57168 0.10973 0.90678 0.0
O891 O 0.58379 0.07322 0.8882 0.0
O892 O 0.62616 0.11677 0.84057 0.0
O893 O 0.59897 0.12219 0.87156 0.0
O894 O 0.54763 0.05427 0.89339 0.0
O895 O 0.53681 0.09474 0.88405 0.0
C896 C 0.58317 0.08449 0.77769 0.0
C897 C 0.6579 0.08702 0.77419 0.0
C898 C 0.65221 0.07675 0.71029 0.0
C899 C 0.64375 0.08018 0.74327 0.0
C900 C 0.67627 0.08291 0.70839 0.0
C901 C 0.68167 0.09313 0.77158 0.0
C902 C 0.69091 0.09153 0.73859 0.0
C903 C 0.55236 0.03944 0.81429 0.0
C904 C 0.64722 0.08469 0.80984 0.0
C905 C 0.62054 0.04224 0.97071 0.0
C906 C 0.60922 0.0206 0.95285 0.0
C907 C 0.56655 0.05466 0.90438 0.0
C908 C 0.555 0.13441 0.90381 0.0
C909 C 0.57251 0.1527 0.92459 0.0
C910 C 0.57522 0.17551 0.92437 0.0
C911 C 0.56076 0.17989 0.90107 0.0
C912 C 0.54092 0.13935 0.88077 0.0
C913 C 0.54404 0.16202 0.87919 0.0
C914 C 0.62086 0.13057 0.85913 0.0
C915 C 0.5522 0.11056 0.90555 0.0
H916 H 0.62584 0.07653 0.74564 0.0
H917 H 0.68383 0.08023 0.68428 0.0
H918 H 0.69286 0.09843 0.79523 0.0
H919 H 0.70923 0.09591 0.73677 0.0
H920 H 0.58385 0.14889 0.94114 0.0
H921 H 0.56161 0.19682 0.90043 0.0
H922 H 0.52753 0.12577 0.86388 0.0
H923 H 0.53304 0.16565 0.8615 0.0
Eu924 Eu 0.51905 0.60898 0.17055 0.0
C925 C 0.42199 0.52385 0.14162 0.0
C926 C 0.40592 0.54024 0.09878 0.0
C927 C 0.39154 0.49807 0.09926 0.0
C928 C 0.42156 0.54333 0.1273 0.0
C929 C 0.40696 0.50104 0.12767 0.0
C930 C 0.39098 0.51758 1.08494 0.0
C931 C 0.42327 0.48547 0.17099 0.0
N932 N 0.43728 0.52715 0.16884 0.0
C933 C 0.43778 0.5083 0.18408 0.0
C934 C 0.40787 0.48183 0.14257 0.0
Eu935 Eu 0.46162 0.56664 0.18837 0.0
N936 N 0.43688 0.56528 0.1402 0.0
C937 C 0.43692 0.58468 0.1261 0.0
C938 C 0.40606 0.56009 1.08438 0.0
C939 C 0.42161 0.58237 0.09813 0.0
H940 H 0.44947 0.51076 0.2062 0.0
H941 H 0.42199 0.59787 0.08693 0.0
H942 H 0.37903 0.51498 1.06292 0.0
H943 H 0.42396 0.47069 0.18288 0.0
H944 H 0.44916 0.60221 0.13528 0.0
H945 H 0.58965 0.58622 0.16398 0.0
H946 H 0.3944 0.55842 1.06241 0.0
H947 H 0.50536 0.63361 0.24308 0.0
H948 H 0.5593 0.59407 0.14001 0.0
H949 H 0.51878 0.64649 0.30357 0.0
H950 H 0.37997 0.48071 0.08814 0.0
H951 H 0.60063 0.5934 0.22813 0.0
H952 H 0.59644 0.6084 0.28734 0.0
H953 H 0.39666 0.4641 0.13247 0.0
H954 H 0.57835 0.62606 0.32429 0.0
N955 N 0.55055 0.60286 0.19052 0.0
C956 C 0.56277 0.59598 0.16836 0.0
C957 C 0.5867 0.59623 0.21786 0.0
C958 C 0.57563 0.60504 0.23994 0.0
C959 C 0.5805 0.59206 0.18174 0.0
C960 C 0.55747 0.60841 0.22536 0.0
H961 H 0.55027 0.64098 0.33017 0.0
N962 N 0.52925 0.62094 0.23222 0.0
C963 C 0.52691 0.63857 0.28784 0.0
C964 C 0.54706 0.61824 0.24637 0.0
C965 C 0.51937 0.63118 0.25271 0.0
C966 C 0.54469 0.63547 0.30272 0.0
C967 C 0.55489 0.6251 0.2822 0.0
O968 O 0.53054 0.64526 0.15297 0.0
O969 O 0.48283 0.5902 0.14183 0.0
O970 O 0.47571 0.54843 0.15231 0.0
O971 O 0.51611 0.57433 0.1548 0.0
O972 O 0.51103 0.59844 0.10977 0.0
O973 O 0.55487 0.63224 0.15061 0.0
O974 O 0.4507 0.57805 0.23617 0.0
O975 O 0.49718 0.58587 0.2187 0.0
O976 O 0.5013 0.63087 0.17986 0.0
O977 O 0.46284 0.603 0.19444 0.0
O978 O 0.47859 0.54999 0.22376 0.0
O979 O 0.42782 0.54323 0.21478 0.0
C980 C 0.48811 0.58813 0.10844 0.0
C981 C 0.55737 0.65806 0.10422 0.0
C982 C 0.56588 0.65266 1.04227 0.0
C983 C 0.55865 0.6438 1.07722 0.0
C984 C 0.57151 0.67588 1.03413 0.0
C985 C 0.56272 0.68113 0.09567 0.0
C986 C 0.56967 0.68994 1.0607 0.0
C987 C 0.4977 0.55459 0.14353 0.0
C988 C 0.55096 0.64912 0.14135 0.0
C989 C 0.57247 0.62121 0.29677 0.0
C990 C 0.5827 0.61108 0.27578 0.0
C991 C 0.4976 0.5683 0.23494 0.0
C992 C 0.40988 0.56482 0.23501 0.0
C993 C 0.40956 0.58066 0.25991 0.0
C994 C 0.39095 0.58572 0.26024 0.0
C995 C 0.37319 0.57533 0.23377 0.0
C996 C 0.39203 0.5548 0.20881 0.0
C997 C 0.37394 0.56024 0.2081 0.0
C998 C 0.47975 0.62551 0.18977 0.0
C999 C 0.42945 0.5597 0.23601 0.0
H1000 H 0.55489 0.62605 1.0836 0.0
H1001 H 0.57738 0.6831 1.00736 0.0
H1002 H 0.56174 0.69237 0.11609 0.0
H1003 H 0.57396 0.70782 1.0543 0.0
H1004 H 0.42393 0.58895 0.27906 0.0
H1005 H 0.3582 0.57811 0.23341 0.0
H1006 H 0.39198 0.54278 0.18885 0.0
H1007 H 0.36016 0.55233 0.18799 0.0
H1008 H 0.46775 0.15534 0.33825 0.0
H1009 H 0.47063 0.19293 0.32305 0.0
H1010 H 0.51679 0.20166 0.2343 0.0
H1011 H 0.51524 0.16437 0.25147 0.0
H1012 H 0.53039 0.24326 0.25397 0.0
H1013 H 0.4339 0.20587 0.25568 0.0
H1014 H 0.44348 0.20269 0.29937 0.0
H1015 H 0.44684 0.18744 0.26141 0.0
C1016 C 0.47866 0.16517 0.31548 0.0
C1017 C 0.49109 0.15617 0.29618 0.0
C1018 C 0.48002 0.18688 0.30625 0.0
C1019 C 0.49304 0.20052 0.27611 0.0
C1020 C 0.50619 0.19194 0.25737 0.0
H1021 H 0.45886 0.30733 0.18858 0.0
H1022 H 0.46134 0.27242 0.20419 0.0
C1023 C 0.50536 0.17036 0.2673 0.0
C1024 C 0.49295 0.2234 0.26477 0.0
H1025 H 0.45697 0.24785 0.25602 0.0
C1026 C 0.51417 0.244 0.2543 0.0
C1027 C 0.47202 0.22525 0.26386 0.0
C1028 C 0.44778 0.20406 0.27027 0.0
C1029 C 0.51512 0.26563 0.24405 0.0
C1030 C 0.49441 0.26784 0.24529 0.0
C1031 C 0.47319 0.24712 0.25524 0.0
C1032 C 0.4938 0.29061 0.23497 0.0
C1033 C 0.53844 0.2856 0.23059 0.0
C1034 C 0.51101 0.31365 0.24649 0.0
C1035 C 0.50983 0.3342 0.23673 0.0
C1036 C 0.49105 0.33275 0.21569 0.0
C1037 C 0.4737 0.30973 0.20479 0.0
C1038 C 0.47508 0.28936 0.21399 0.0
H1039 H 0.54987 0.27896 0.21979 0.0
H1040 H 0.53583 0.2959 0.20908 0.0
H1041 H 0.54805 0.29757 0.25328 0.0
H1042 H 0.52534 0.3159 0.26373 0.0
H1043 H 0.52353 0.35127 0.24625 0.0
H1044 H 0.34111 0.51654 0.58793 0.0
H1045 H 0.30562 0.51793 0.56989 0.0
H1046 H 0.26684 0.47151 0.65798 0.0
H1047 H 0.30209 0.46976 0.6755 0.0
H1048 H 0.2382 0.45758 0.60542 0.0
H1049 H 0.2758 0.55418 0.60195 0.0
H1050 H 0.29121 0.54502 0.57212 0.0
H1051 H 0.29201 0.54084 0.61998 0.0
C1052 C 0.32522 0.50696 0.60401 0.0
C1053 C 0.32515 0.49333 0.63379 0.0
C1054 C 0.3046 0.5078 0.5936 0.0
C1055 C 0.28285 0.49523 0.61265 0.0
C1056 C 0.28288 0.48161 0.64236 0.0
H1057 H 0.15999 0.52069 0.58271 0.0
H1058 H 0.19714 0.5223 0.60109 0.0
C1059 C 0.3034 0.4807 0.65265 0.0
C1060 C 0.26002 0.49535 0.60129 0.0
H1061 H 0.23736 0.53116 0.57661 0.0
C1062 C 0.23825 0.47382 0.59928 0.0
C1063 C 0.25904 0.51626 0.59353 0.0
C1064 C 0.28069 0.5404 0.59734 0.0
C1065 C 0.21641 0.47252 0.58975 0.0
C1066 C 0.21555 0.49333 0.58042 0.0
C1067 C 0.23728 0.51494 0.583 0.0
C1068 C 0.19259 0.49299 0.5683 0.0
C1069 C 0.19427 0.44854 0.59121 0.0
C1070 C 0.17704 0.4766 0.5427 0.0
C1071 C 0.15544 0.47534 0.53279 0.0
C1072 C 0.14837 0.49094 0.54684 0.0
C1073 C 0.16437 0.50821 0.5711 0.0
C1074 C 0.18589 0.50912 0.58171 0.0
H1075 H 0.19622 0.43657 0.61046 0.0
H1076 H 0.17859 0.4498 0.59936 0.0
H1077 H 0.19099 0.44025 0.56427 0.0
H1078 H 0.18156 0.46457 0.52993 0.0
H1079 H 0.14422 0.46202 0.51355 0.0
H1080 H 0.82809 0.29962 0.97791 0.0
H1081 H 0.79033 0.2655 0.96124 0.0
H1082 H 0.76749 0.31165 0.91663 0.0
H1083 H 0.80525 0.34623 0.93516 0.0
H1084 H 0.72991 0.27635 0.94358 0.0
H1085 H 0.77016 0.2325 0.87012 0.0
H1086 H 0.77949 0.23667 0.91609 0.0
H1087 H 0.78779 0.26199 0.88728 0.0
C1088 C 0.81522 0.30278 0.96441 0.0
C1089 C 0.82047 0.32626 0.95776 0.0
C1090 C 0.79332 0.28287 0.95435 0.0
C1091 C 0.77552 0.28514 0.9361 0.0
C1092 C 0.78048 0.30866 0.93014 0.0
H1093 H 0.66268 0.15868 0.82249 0.0
H1094 H 0.6976 0.19559 0.84047 0.0
C1095 C 0.80238 0.32873 0.94077 0.0
C1096 C 0.75206 0.2632 0.92387 0.0
H1097 H 0.72918 0.20855 0.88385 0.0
C1098 C 0.72995 0.26167 0.93029 0.0
C1099 C 0.75114 0.24357 0.90569 0.0
C1100 C 0.77341 0.24384 0.89403 0.0
C1101 C 0.70776 0.24168 0.92001 0.0
C1102 C 0.70681 0.22154 0.9034 0.0
C1103 C 0.72899 0.22329 0.89666 0.0
C1104 C 0.68364 0.19902 0.89154 0.0
C1105 C 0.68563 0.24301 0.92617 0.0
C1106 C 0.66285 0.18759 0.91317 0.0
C1107 C 0.64214 0.16643 0.90205 0.0
C1108 C 0.64136 0.15521 0.86921 0.0
C1109 C 0.66208 0.16654 0.84776 0.0
C1110 C 0.68248 0.18787 0.85842 0.0
H1111 H 0.68962 0.26163 0.9272 0.0
H1112 H 0.67237 0.23381 0.90465 0.0
H1113 H 0.67771 0.23467 0.95245 0.0
H1114 H 0.66269 0.1945 0.93944 0.0
H1115 H 0.62708 0.15825 0.9201 0.0
H1116 H 0.44364 0.62683 0.2298 0.0
H1117 H 0.44132 0.66149 0.24935 0.0
H1118 H 0.50546 0.70704 0.19088 0.0
H1119 H 0.50819 0.67279 0.17263 0.0
H1120 H 0.50972 0.7287 0.24757 0.0
H1121 H 0.41803 0.70122 0.20813 0.0
H1122 H 0.41909 0.68079 0.23937 0.0
H1123 H 0.43206 0.68464 0.19526 0.0
C1124 C 0.4571 0.64415 0.2206 0.0
C1125 C 0.47604 0.64638 0.19913 0.0
C1126 C 0.45572 0.66432 0.23177 0.0
C1127 C 0.47301 0.68774 0.22157 0.0
C1128 C 0.49169 0.68975 0.19974 0.0
H1129 H 0.45646 0.81593 0.24611 0.0
H1130 H 0.45486 0.77915 0.22631 0.0
C1131 C 0.49317 0.66975 0.18895 0.0
C1132 C 0.47265 0.71016 0.23429 0.0
H1133 H 0.4376 0.73561 0.24443 0.0
C1134 C 0.49379 0.72996 0.24664 0.0
C1135 C 0.4523 0.71296 0.23307 0.0
C1136 C 0.42915 0.6939 0.2179 0.0
C1137 C 0.49519 0.75153 0.25762 0.0
C1138 C 0.47464 0.754 0.25797 0.0
C1139 C 0.45352 0.73433 0.24514 0.0
C1140 C 0.47484 0.77664 0.27093 0.0
C1141 C 0.51929 0.77183 0.26736 0.0
C1142 C 0.48606 0.78815 0.30331 0.0
C1143 C 0.48736 0.80954 0.31432 0.0
C1144 C 0.47683 0.82033 0.29431 0.0
C1145 C 0.46468 0.8084 0.26272 0.0
C1146 C 0.46379 0.78714 0.25126 0.0
H1147 H 0.53365 0.7703 0.25391 0.0
H1148 H 0.52115 0.78911 0.2597 0.0
H1149 H 0.52195 0.77159 0.29682 0.0
H1150 H 0.49398 0.78062 0.32048 0.0
H1151 H 0.49673 0.81768 0.33895 0.0
H1152 H 0.63095 0.46486 0.57725 0.0
H1153 H 0.66681 0.46413 0.55983 0.0
H1154 H 0.69931 0.49662 0.66059 0.0
H1155 H 0.66404 0.49854 0.67673 0.0
H1156 H 0.73207 0.51516 0.61966 0.0
H1157 H 0.69263 0.42323 0.57273 0.0
H1158 H 0.68182 0.43908 0.5471 0.0
H1159 H 0.67503 0.4337 0.59448 0.0
C1160 C 0.64545 0.47127 0.59618 0.0
C1161 C 0.64386 0.48117 0.62908 0.0
C1162 C 0.66635 0.47084 0.58614 0.0
C1163 C 0.68655 0.47975 0.60888 0.0
C1164 C 0.68466 0.48948 0.64186 0.0
H1165 H 0.80809 0.453 0.56987 0.0
H1166 H 0.77008 0.44987 0.58703 0.0
C1167 C 0.66407 0.4904 0.65144 0.0
C1168 C 0.70988 0.48025 0.59834 0.0
H1169 H 0.73345 0.44871 0.55894 0.0
C1170 C 0.732 0.50035 0.60663 0.0
C1171 C 0.711 0.4612 0.58152 0.0
C1172 C 0.68888 0.43802 0.57378 0.0
C1173 C 0.75424 0.50204 0.5989 0.0
C1174 C 0.7554 0.48355 0.58043 0.0
C1175 C 0.73334 0.46328 0.57249 0.0
C1176 C 0.77905 0.48504 0.56928 0.0
C1177 C 0.7763 0.5236 0.61225 0.0
C1178 C 0.7975 0.50547 0.55253 0.0
C1179 C 0.81952 0.50744 0.54339 0.0
C1180 C 0.82432 0.48884 0.54943 0.0
C1181 C 0.80562 0.46794 0.56487 0.0
C1182 C 0.78356 0.46612 0.57467 0.0
H1183 H 0.77248 0.53118 0.63628 0.0
H1184 H 0.79034 0.51948 0.61951 0.0
H1185 H 0.78313 0.53742 0.59094 0.0
H1186 H 0.79492 0.52016 0.54604 0.0
H1187 H 0.83285 0.52375 0.53097 0.0
H1188 H 0.30597 0.82462 0.82594 0.0
H1189 H 0.2707 0.78713 0.84136 0.0
H1190 H 0.30446 0.78301 0.93859 0.0
H1191 H 0.34056 0.81997 0.92175 0.0
H1192 H 0.2787 0.74066 0.92075 0.0
H1193 H 0.21738 0.77436 0.90095 0.0
H1194 H 0.23227 0.77628 0.85963 0.0
H1195 H 0.24892 0.79355 0.89795 0.0
C1196 C 0.30607 0.81581 0.85065 0.0
C1197 C 0.3266 0.82592 0.87241 0.0
C1198 C 0.28541 0.79417 0.85993 0.0
C1199 C 0.28366 0.78178 0.89225 0.0
C1200 C 0.30447 0.79165 0.91366 0.0
H1201 H 0.14115 0.6768 0.97623 0.0
H1202 H 0.17874 0.71116 0.95964 0.0
C1203 C 0.32542 0.81309 0.90392 0.0
C1204 C 0.26058 0.75883 0.90335 0.0
H1205 H 0.19965 0.73274 0.90649 0.0
C1206 C 0.2615 0.73919 0.91773 0.0
C1207 C 0.23746 0.75605 0.9006 0.0
C1208 C 0.23393 0.77626 0.88934 0.0
C1209 C 0.24083 0.71765 0.92863 0.0
C1210 C 0.21765 0.7145 0.92421 0.0
C1211 C 0.21682 0.73421 0.91001 0.0
C1212 C 0.19425 0.69195 0.93563 0.0
C1213 C 0.24443 0.69886 0.94617 0.0
C1214 C 0.18909 0.66846 0.92857 0.0
C1215 C 0.1672 0.6482 0.93919 0.0
C1216 C 0.14908 0.6504 0.95641 0.0
C1217 C 0.15418 0.67381 0.96299 0.0
C1218 C 0.17607 0.69388 0.95317 0.0
H1219 H 0.26239 0.70649 0.95812 0.0
H1220 H 0.23116 0.6894 0.96772 0.0
H1221 H 0.24273 0.6859 0.92554 0.0
H1222 H 0.20176 0.66556 0.91411 0.0
H1223 H 0.1643 0.63079 0.93309 0.0
H1224 H 0.59749 0.22457 0.91948 0.0
H1225 H 0.61353 0.25227 0.9696 0.0
H1226 H 0.60705 0.19623 1.03871 0.0
H1227 H 0.58903 0.16825 0.9911 0.0
H1228 H 0.5806 0.23817 1.03144 0.0
H1229 H 0.66876 0.25603 1.07441 0.0
H1230 H 0.65954 0.25161 1.02771 0.0
H1231 H 0.65175 0.22665 1.0569 0.0
C1232 C 0.59951 0.21805 0.94527 0.0
C1233 C 0.59103 0.19372 0.95104 0.0
C1234 C 0.60921 0.23413 0.97366 0.0
C1235 C 0.61162 0.22633 1.00772 0.0
C1236 C 0.6058 0.20275 1.01239 0.0
H1237 H 0.56743 0.16683 0.16979 0.0
H1238 H 0.57708 0.19187 0.11726 0.0
C1239 C 0.59538 0.1866 0.98467 0.0
C1240 C 0.6141 0.23999 1.0405 0.0
H1241 H 0.63804 0.24271 0.12279 0.0
C1242 C 0.59383 0.24065 1.05131 0.0
C1243 C 0.63152 0.24372 1.06627 0.0
C1244 C 0.65426 0.24472 1.05558 0.0
C1245 C 0.58824 0.2397 0.08791 0.0
C1246 C 0.6036 0.23867 0.11363 0.0
C1247 C 0.62607 0.24312 0.10288 0.0
C1248 C 0.59382 0.22467 0.1468 0.0
C1249 C 0.56439 0.2361 0.09858 0.0
C1250 C 0.59946 0.2349 0.18098 0.0
C1251 C 0.59318 0.22044 0.21169 0.0
C1252 C 0.58191 0.1956 0.20848 0.0
C1253 C 0.57558 0.18567 0.17393 0.0
C1254 C 0.58125 0.20003 0.14359 0.0
H1255 H 0.558 0.24436 1.07867 0.0
H1256 H 0.55139 0.21686 0.09957 0.0
H1257 H 0.56512 0.24356 0.12564 0.0
H1258 H 0.60925 0.25393 0.18382 0.0
H1259 H 0.59782 0.2288 0.2378 0.0
H1260 H 0.36977 0.61346 0.25962 0.0
H1261 H 0.35817 0.62761 0.31236 0.0
H1262 H 0.39709 0.60572 0.38071 0.0
H1263 H 0.40679 0.5896 0.32983 0.0
H1264 H 0.3324 0.58943 0.37169 0.0
H1265 H 0.40882 0.67236 0.4201 0.0
H1266 H 0.4039 0.66459 0.37289 0.0
H1267 H 0.41753 0.65255 0.40161 0.0
C1268 C 0.37591 0.61163 0.28583 0.0
C1269 C 0.38874 0.59965 0.29016 0.0
C1270 C 0.36957 0.62014 0.31581 0.0
C1271 C 0.37685 0.61772 0.35021 0.0
C1272 C 0.39158 0.60802 0.35418 0.0
H1273 H 0.37099 0.56217 0.51921 0.0
H1274 H 0.35238 0.56946 0.46833 0.0
C1275 C 0.39724 0.59885 0.32468 0.0
C1276 C 0.36591 0.62056 0.38299 0.0
H1277 H 0.38561 0.64278 0.46619 0.0
C1278 C 0.34345 0.60174 0.39229 0.0
C1279 C 0.38007 0.63685 0.40952 0.0
C1280 C 0.40386 0.65789 0.40044 0.0
C1281 C 0.33674 0.5964 0.4285 0.0
C1282 C 0.3529 0.6104 0.4555 0.0
C1283 C 0.37327 0.63169 0.44564 0.0
C1284 C 0.35339 0.60041 0.49113 0.0
C1285 C 0.31366 0.57441 0.43744 0.0
C1286 C 0.35877 0.61435 0.5221 0.0
C1287 C 0.36979 0.61032 0.55134 0.0
C1288 C 0.37555 0.59231 0.54986 0.0
C1289 C 0.36691 0.57626 0.52118 0.0
C1290 C 0.35597 0.58032 0.492 0.0
H1291 H 0.29963 0.57232 0.41836 0.0
H1292 H 0.31581 0.55871 0.43441 0.0
H1293 H 0.30783 0.57479 0.46537 0.0
H1294 H 0.35683 0.62986 0.52209 0.0
H1295 H 0.37569 0.62256 0.57363 0.0
H1296 H 0.7452 0.35884 0.90151 0.0
H1297 H 0.71963 0.3446 0.84823 0.0
H1298 H 0.78138 0.37597 0.7799 0.0
H1299 H 0.8068 0.39167 0.83187 0.0
H1300 H 0.72824 0.38328 0.78743 0.0
H1301 H 0.73111 0.30449 0.74209 0.0
H1302 H 0.73204 0.31208 0.78913 0.0
H1303 H 0.75847 0.32638 0.76202 0.0
C1304 C 0.75337 0.36272 0.87514 0.0
C1305 C 0.7782 0.37672 0.87122 0.0
C1306 C 0.73869 0.35428 0.84484 0.0
C1307 C 0.7487 0.35911 0.81037 0.0
C1308 C 0.77338 0.37176 0.80646 0.0
H1309 H 0.80307 0.41496 0.65645 0.0
H1310 H 0.77383 0.40323 0.70275 0.0
C1311 C 0.78796 0.38063 0.83642 0.0
C1312 C 0.73432 0.35432 0.77759 0.0
H1313 H 0.7356 0.33302 0.69509 0.0
C1314 C 0.72849 0.37144 0.76733 0.0
C1315 C 0.73403 0.33854 0.75165 0.0
C1316 C 0.73902 0.31914 0.76184 0.0
C1317 C 0.72721 0.3762 0.73081 0.0
C1318 C 0.7319 0.36349 0.70468 0.0
C1319 C 0.7325 0.34314 0.71518 0.0
C1320 C 0.74542 0.37554 0.67187 0.0
C1321 C 0.72449 0.39701 0.72056 0.0
C1322 C 0.73895 0.36473 0.6381 0.0
C1323 C 0.75578 0.37204 0.61042 0.0
C1324 C 0.77959 0.38955 0.61666 0.0
C1325 C 0.78517 0.40165 0.64967 0.0
C1326 C 0.76824 0.39492 0.67665 0.0
H1327 H 0.71211 0.39861 0.73927 0.0
H1328 H 0.74194 0.41347 0.72262 0.0
H1329 H 0.71791 0.39543 0.69255 0.0
H1330 H 0.72143 0.34967 0.63393 0.0
H1331 H 0.75035 0.36292 0.58496 0.0
H1332 H 0.39738 0.78755 0.95256 0.0
H1333 H 0.39081 0.75015 0.97574 0.0
H1334 H 0.33551 0.7459 1.0449 0.0
H1335 H 0.33933 0.78079 1.0175 0.0
H1336 H 0.40592 0.74808 1.02978 0.0
H1337 H 0.31933 0.68317 1.0671 0.0
H1338 H 0.32234 0.70087 1.02783 0.0
H1339 H 0.31427 0.70743 1.07129 0.0
C1340 C 0.38291 0.77806 0.97127 0.0
C1341 C 0.36985 0.78819 0.98475 0.0
C1342 C 0.37928 0.75651 0.98492 0.0
C1343 C 0.36351 0.7453 1.01379 0.0
C1344 C 0.34808 0.75366 1.0231 0.0
H1345 H 0.38142 0.8044 0.13646 0.0
H1346 H 0.36483 0.76593 0.10807 0.0
C1347 C 0.35087 0.77449 1.00815 0.0
C1348 C 0.36822 0.731 1.04075 0.0
H1349 H 0.34411 0.71376 0.12395 0.0
C1350 C 0.39211 0.73948 1.04983 0.0
C1351 C 0.35098 0.7171 1.06692 0.0
C1352 C 0.32531 0.70139 1.05733 0.0
C1353 C 0.39892 0.74189 0.08604 0.0
C1354 C 0.38138 0.73602 0.11268 0.0
C1355 C 0.35771 0.72029 0.10331 0.0
C1356 C 0.38568 0.75465 0.13903 0.0
C1357 C 0.42493 0.75538 0.09507 0.0
C1358 C 0.40215 0.7608 0.16708 0.0
C1359 C 0.41165 0.78301 0.18336 0.0
C1360 C 0.40486 0.79917 0.17148 0.0
C1361 C 0.38693 0.79218 0.14582 0.0
C1362 C 0.3773 0.77006 0.12994 0.0
H1363 H 0.42846 0.748 0.11972 0.0
H1364 H 0.43588 0.75473 1.07271 0.0
H1365 H 0.43051 0.77419 0.10004 0.0
H1366 H 0.40889 0.74924 0.17452 0.0
H1367 H 0.42544 0.78821 0.20328 0.0
H1368 H 0.60716 0.41522 0.29746 0.0
H1369 H 0.636 0.4069 0.32551 0.0
H1370 H 0.5829 0.36175 0.4031 0.0
H1371 H 0.55392 0.36815 0.3732 0.0
H1372 H 0.65491 0.42297 0.38144 0.0
H1373 H 0.62029 0.33202 0.41458 0.0
H1374 H 0.60773 0.33946 0.37683 0.0
H1375 H 0.59395 0.33342 0.42096 0.0
C1376 C 0.60138 0.40261 0.31946 0.0
C1377 C 0.57839 0.39292 0.33388 0.0
C1378 C 0.61799 0.39792 0.33563 0.0
C1379 C 0.61203 0.3838 0.36682 0.0
C1380 C 0.58832 0.3723 0.37875 0.0
H1381 H 0.6067 0.4311 0.517 0.0
H1382 H 0.63414 0.43173 0.47326 0.0
C1383 C 0.57168 0.37652 0.36216 0.0
C1384 C 0.63069 0.38579 0.39214 0.0
H1385 H 0.62522 0.35892 0.4724 0.0
C1386 C 0.64906 0.40866 0.40079 0.0
C1387 C 0.62589 0.36728 0.41658 0.0
C1388 C 0.61108 0.34167 0.40625 0.0
C1389 C 0.65705 0.41417 0.43639 0.0
C1390 C 0.64515 0.39686 0.46338 0.0
C1391 C 0.6327 0.37302 0.45259 0.0
C1392 C 0.63737 0.40302 0.49745 0.0
C1393 C 0.67584 0.43907 0.44535 0.0
C1394 C 0.63066 0.38781 0.52751 0.0
C1395 C 0.61384 0.38682 0.55186 0.0
C1396 C 0.60428 0.40169 0.54728 0.0
C1397 C 0.61382 0.41943 0.52098 0.0
C1398 C 0.62998 0.41994 0.49604 0.0
H1399 H 0.69183 0.44411 0.42873 0.0
H1400 H 0.66959 0.45153 0.43825 0.0
H1401 H 0.68086 0.44101 0.47423 0.0
H1402 H 0.63639 0.37494 0.53004 0.0
H1403 H 0.60691 0.3732 0.57246 0.0
H1404 H 0.16286 0.5936 0.83899 0.0
H1405 H 0.18953 0.61398 0.78975 0.0
H1406 H 0.24959 0.6369 0.86017 0.0
H1407 H 0.22264 0.61732 0.91107 0.0
H1408 H 0.23174 0.66223 0.77498 0.0
H1409 H 0.25624 0.60854 0.82289 0.0
H1410 H 0.25106 0.58863 0.78609 0.0
H1411 H 0.22652 0.58631 0.81168 0.0
C1412 C 0.18161 0.60374 0.84483 0.0
C1413 C 0.19049 0.60342 0.87918 0.0
C1414 C 0.19693 0.61543 0.81638 0.0
C1415 C 0.22152 0.62678 0.82129 0.0
C1416 C 0.23064 0.62811 0.85589 0.0
H1417 H 0.2234 0.61686 0.59107 0.0
H1418 H 0.25017 0.63309 0.6428 0.0
C1419 C 0.21519 0.61664 0.88477 0.0
C1420 C 0.23629 0.63275 0.78859 0.0
H1421 H 0.24297 0.59784 0.72781 0.0
C1422 C 0.23584 0.6492 0.76472 0.0
C1423 C 0.24212 0.61606 0.77536 0.0
C1424 C 0.2442 0.5989 0.80023 0.0
C1425 C 0.23618 0.64621 0.72744 0.0
C1426 C 0.23678 0.62628 0.71439 0.0
C1427 C 0.24214 0.6129 0.73808 0.0
C1428 C 0.22267 0.61422 0.68233 0.0
C1429 C 0.23168 0.66177 0.7025 0.0
C1430 C 0.1986 0.59796 0.68767 0.0
C1431 C 0.1832 0.5893 0.65864 0.0
C1432 C 0.19158 0.59637 0.6233 0.0
C1433 C 0.21616 0.61144 0.61788 0.0
C1434 C 0.23159 0.62054 0.64729 0.0
H1435 H 0.21272 0.65238 0.69455 0.0
H1436 H 0.23581 0.67866 0.71554 0.0
H1437 H 0.24248 0.66571 0.67765 0.0
H1438 H 0.19141 0.59307 0.71467 0.0
H1439 H 0.16452 0.57821 0.66442 0.0
H1440 H 0.43856 0.9668 0.92802 0.0
H1441 H 0.44669 0.98793 0.98548 0.0
H1442 H 0.38515 0.92886 1.03179 0.0
H1443 H 0.37762 0.90713 0.9743 0.0
H1444 H 0.45078 0.96824 1.06803 0.0
H1445 H 0.38515 -0.00205 1.05629 0.0
H1446 H 0.37717 0.96847 1.04226 0.0
H1447 H 0.39835 -0.00661 1.01661 0.0
C1448 C 0.42623 0.95807 0.94994 0.0
C1449 C 0.40649 0.9349 0.94375 0.0
C1450 C 0.43115 0.97051 0.98389 0.0
C1451 C 0.41682 0.96104 1.01529 0.0
C1452 C 0.397 0.93776 1.00944 0.0
H1453 H 0.46223 0.07271 0.1982 0.0
H1454 H 0.44907 0.05044 0.14117 0.0
C1455 C 0.39229 0.92508 0.9754 0.0
C1456 C 0.42299 0.97506 1.05305 0.0
H1457 H 0.40902 0.00972 0.10819 0.0
C1458 C 0.44128 0.97703 1.07641 0.0
C1459 C 0.41162 0.98753 1.0663 0.0
C1460 C 0.39197 0.98699 1.04436 0.0
C1461 C 0.44785 0.98991 0.1104 0.0
C1462 C 0.43649 0.00244 0.12382 0.0
C1463 C 0.41841 0.00077 0.10006 0.0
C1464 C 0.44304 0.01674 0.16154 0.0
C1465 C 0.46778 -0.00964 0.1315 0.0
C1466 C 0.44406 0.00665 0.19525 0.0
C1467 C 0.45083 0.01951 0.22893 0.0
C1468 C 0.45709 0.04374 0.23274 0.0
C1469 C 0.45625 0.05403 0.19903 0.0
C1470 C 0.44902 0.04097 0.16518 0.0
H1471 H 0.47877 0.98565 0.11451 0.0
H1472 H 0.47935 0.00806 0.14337 0.0
H1473 H 0.46027 0.97725 0.15374 0.0
H1474 H 0.43959 0.98834 0.19586 0.0
H1475 H 0.45166 0.01023 0.2526 0.0
H1476 H 0.4807 0.39838 0.31048 0.0
H1477 H 0.46731 0.40728 0.36737 0.0
H1478 H 0.43351 0.43845 0.3075 0.0
H1479 H 0.4473 0.42998 0.25104 0.0
H1480 H 0.47431 0.44481 0.40693 0.0
H1481 H 0.37964 0.40447 0.3749 0.0
H1482 H 0.3995 0.39956 0.34742 0.0
H1483 H 0.39794 0.42611 0.34195 0.0
C1484 C 0.46992 0.40662 0.3089 0.0
C1485 C 0.46469 0.41225 0.27409 0.0
C1486 C 0.46221 0.41209 0.34241 0.0
C1487 C 0.44841 0.42352 0.34421 0.0
C1488 C 0.44325 0.42914 0.30931 0.0
H1489 H 0.38453 0.47516 0.51914 0.0
H1490 H 0.39537 0.46198 0.46421 0.0
C1491 C 0.45132 0.42407 0.27595 0.0
C1492 C 0.44032 0.43011 0.38141 0.0
H1493 H 0.39266 0.429 0.42644 0.0
C1494 C 0.4563 0.44111 0.41064 0.0
C1495 C 0.41686 0.42593 0.38902 0.0
C1496 C 0.39738 0.41318 0.36192 0.0
C1497 C 0.45028 0.44836 0.44424 0.0
C1498 C 0.42674 0.44407 0.45204 0.0
C1499 C 0.41072 0.43287 0.4228 0.0
C1500 C 0.41864 0.45127 0.48882 0.0
C1501 C 0.47015 0.46182 0.47047 0.0
C1502 C 0.4266 0.44978 0.52427 0.0
C1503 C 0.41998 0.45739 0.55676 0.0
C1504 C 0.40396 0.46628 0.55722 0.0
C1505 C 0.39586 0.46757 0.52196 0.0
C1506 C 0.40249 0.46004 0.48948 0.0
H1507 H 0.48766 0.47054 0.4568 0.0
H1508 H 0.46809 0.47561 0.48455 0.0
H1509 H 0.47025 0.44934 0.49069 0.0
H1510 H 0.4383 0.44269 0.52737 0.0
H1511 H 0.42798 0.45667 0.58192 0.0
H1512 H 0.00587 0.4353 0.58746 0.0
H1513 H 0.98421 0.42213 0.64506 0.0
H1514 H 0.04793 0.46963 0.70154 0.0
H1515 H 0.06936 0.48276 0.644 0.0
H1516 H 0.97909 0.40005 0.70699 0.0
H1517 H 0.01036 0.49002 0.75599 0.0
H1518 H 0.01646 0.48479 0.71077 0.0
H1519 H 0.03464 0.4852 0.74769 0.0
C1520 C 0.01571 0.44269 0.61203 0.0
C1521 C 0.04037 0.45984 0.60918 0.0
C1522 C 0.00289 0.43514 0.64596 0.0
C1523 C 0.0133 0.44474 0.68016 0.0
C1524 C 0.03808 0.46166 0.67724 0.0
H1525 H 0.9638 0.43054 0.91614 0.0
H1526 H 0.98538 0.43919 0.85884 0.0
C1527 C 0.05092 0.46903 0.64336 0.0
C1528 C -0.00139 0.43736 0.71759 0.0
H1529 H -0.01019 0.45937 0.79825 0.0
C1530 C 0.98166 0.41339 0.72647 0.0
C1531 C 0.00064 0.45366 0.74526 0.0
C1532 C 0.01629 0.47986 0.73944 0.0
C1533 C 0.96823 0.40573 0.7601 0.0
C1534 C 0.97036 0.42206 0.7878 0.0
C1535 C -0.01275 0.446 0.77884 0.0
C1536 C 0.95599 0.41506 0.8255 0.0
C1537 C 0.95233 0.37957 0.76598 0.0
C1538 C 0.93119 0.39825 0.82952 0.0
C1539 C 0.91844 0.39305 0.86358 0.0
C1540 C 0.92945 0.40376 0.89689 0.0
C1541 C 0.95407 0.42066 0.8927 0.0
C1542 C 0.96674 0.426 0.8588 0.0
H1543 H 0.95794 0.36918 0.74933 0.0
H1544 H 0.95219 0.37465 0.79466 0.0
H1545 H 0.93401 0.3745 0.758 0.0
H1546 H 0.92102 0.38955 0.80578 0.0
H1547 H 0.89948 0.38116 0.86332 0.0
H1548 H 0.5212 0.96534 0.25004 0.0
H1549 H 0.5343 0.98707 0.19283 0.0
H1550 H 0.51178 0.92164 0.13761 0.0
H1551 H 0.49942 0.90015 0.19526 0.0
H1552 H 0.52184 -0.00344 0.13589 0.0
H1553 H 0.56514 0.95188 1.07426 0.0
H1554 H 0.53496 0.931 1.08523 0.0
H1555 H 0.55591 0.94685 0.12064 0.0
C1556 C 0.5196 0.95535 0.22602 0.0
C1557 C 0.50988 0.9304 0.22955 0.0
C1558 C 0.52705 0.96813 0.19216 0.0
C1559 C 0.52519 0.95718 0.15819 0.0
C1560 C 0.51504 0.93201 0.16166 0.0
H1561 H 0.58225 0.07216 0.97627 0.0
H1562 H 0.57359 0.05061 1.03414 0.0
C1563 C 0.50769 0.91921 0.19574 0.0
C1564 C 0.53284 0.97182 0.12057 0.0
H1565 H 0.55734 0.97592 1.03502 0.0
C1566 C 0.52975 -0.00826 0.11438 0.0
C1567 C 0.54364 0.96711 0.09022 0.0
C1568 C 0.55038 0.94825 0.0929 0.0
C1569 C 0.53602 0.00558 1.08113 0.0
C1570 C 0.54636 0.00055 1.05065 0.0
C1571 C 0.5495 0.9807 1.05672 0.0
C1572 C 0.55341 0.01501 1.01304 0.0
C1573 C 0.53065 0.0254 1.07874 0.0
C1574 C 0.54648 0.00372 0.97884 0.0
C1575 C 0.55165 0.01643 0.94491 0.0
C1576 C 0.56511 0.04162 0.94167 0.0
C1577 C 0.57251 0.05303 0.97574 0.0
C1578 C 0.567 0.04029 1.00987 0.0
H1579 H 0.51751 0.02361 0.09929 0.0
H1580 H 0.54716 0.04243 1.08344 0.0
H1581 H 0.52377 0.02609 1.05169 0.0
H1582 H 0.53615 0.98462 0.97817 0.0
H1583 H 0.54467 0.00619 0.9206 0.0
H1584 H 0.57083 0.48656 0.51821 0.0
H1585 H 0.56128 0.50076 0.46317 0.0
H1586 H 0.54916 0.54864 0.52594 0.0
H1587 H 0.5589 0.53428 0.58124 0.0
H1588 H 0.52759 0.49934 0.42945 0.0
H1589 H 0.57802 0.59553 0.44982 0.0
H1590 H 0.58219 0.57558 0.4784 0.0
H1591 H 0.5577 0.58046 0.48599 0.0
C1592 C 0.56696 0.50076 0.52075 0.0
C1593 C 0.56734 0.50968 0.55594 0.0
C1594 C 0.56098 0.5089 0.48829 0.0
C1595 C 0.55447 0.52672 0.48761 0.0
C1596 C 0.55464 0.53567 0.52297 0.0
H1597 H 0.50039 0.58711 0.30637 0.0
H1598 H 0.51378 0.57827 0.36369 0.0
C1599 C 0.56056 0.52734 0.55572 0.0
C1600 C 0.54679 0.53451 0.45088 0.0
H1601 H 0.55081 0.58218 0.40132 0.0
C1602 C 0.53302 0.51764 0.42394 0.0
C1603 C 0.55299 0.55828 0.44084 0.0
C1604 C 0.56872 0.57859 0.465 0.0
C1605 C 0.52536 0.5232 0.39027 0.0
C1606 C 0.5317 0.54697 0.38004 0.0
C1607 C 0.54537 0.56389 0.40702 0.0
C1608 C 0.52446 0.55422 0.34246 0.0
C1609 C 0.50943 0.50276 0.36642 0.0
C1610 C 0.52599 0.54508 0.30832 0.0
C1611 C 0.51855 0.55064 0.27473 0.0
C1612 C 0.50939 0.56633 0.27164 0.0
C1613 C 0.50804 0.57579 0.30558 0.0
C1614 C 0.51564 0.57031 0.33939 0.0
H1615 H 0.49963 0.48608 0.3821 0.0
H1616 H 0.49633 0.50598 0.35224 0.0
H1617 H 0.52036 0.50016 0.34614 0.0
H1618 H 0.53306 0.53328 0.30723 0.0
H1619 H 0.51979 0.54214 0.25057 0.0
H1620 H 0.00527 0.55521 0.9178 0.0
H1621 H 0.98434 0.54699 0.85989 0.0
H1622 H 0.05123 0.58371 0.80486 0.0
H1623 H 0.07204 0.59153 0.8629 0.0
H1624 H 0.97461 0.56515 0.80419 0.0
H1625 H 0.02724 0.53193 0.7366 0.0
H1626 H 0.02958 0.53739 0.78438 0.0
H1627 H 0.04474 0.56145 0.75284 0.0
C1628 C 0.01583 0.56217 0.8936 0.0
C1629 C 0.04103 0.57511 0.89715 0.0
C1630 C 0.0035 0.55711 0.85944 0.0
C1631 C 0.01522 0.56381 0.82534 0.0
C1632 C 0.04053 0.57712 0.82891 0.0
H1633 H 0.96797 0.53478 0.58746 0.0
H1634 H -0.0108 0.54787 0.64488 0.0
C1635 C 0.05287 0.58231 0.86321 0.0
C1636 C 0.00114 0.55691 0.7875 0.0
H1637 H -0.00051 0.53535 0.7009 0.0
C1638 C 0.98035 0.55858 0.78197 0.0
C1639 C 0.00737 0.54818 0.75628 0.0
C1640 C 0.02828 0.54436 0.7577 0.0
C1641 C 0.96696 0.55282 0.74844 0.0
C1642 C 0.97294 0.54368 0.71736 0.0
C1643 C -0.00625 0.54204 0.72296 0.0
C1644 C 0.95864 0.53624 0.67961 0.0
C1645 C 0.94685 0.55785 0.74666 0.0
C1646 C 0.93332 0.5248 0.67611 0.0
C1647 C 0.92082 0.51755 0.64194 0.0
C1648 C 0.93246 0.52113 0.60804 0.0
C1649 C 0.9576 0.5322 0.61155 0.0
C1650 C 0.97009 0.53957 0.64553 0.0
H1651 H 0.94934 0.57175 0.76611 0.0
H1652 H 0.94513 0.56375 0.71932 0.0
H1653 H 0.93009 0.54156 0.75383 0.0
H1654 H 0.92264 0.52034 0.70018 0.0
H1655 H 0.90165 0.50811 0.64242 0.0
H1656 H 0.49425 0.01953 0.36339 0.0
H1657 H 0.49981 0.00433 0.41984 0.0
H1658 H 0.44156 0.00874 0.46678 0.0
H1659 H 0.43588 0.02335 0.41032 0.0
H1660 H 0.51423 0.02553 0.48198 0.0
H1661 H 0.42529 0.95115 0.51733 0.0
H1662 H 0.42728 0.96304 0.4728 0.0
H1663 H 0.43112 0.98097 0.51166 0.0
C1664 C 0.48222 0.01658 0.38537 0.0
C1665 C 0.46499 0.02317 0.38228 0.0
C1666 C 0.48552 0.00817 0.41807 0.0
C1667 C 0.47152 0.00597 0.44849 0.0
C1668 C 0.45273 0.01026 0.4443 0.0
H1669 H 0.5302 0.94745 0.41049 0.0
H1670 H 0.52686 0.95955 0.47014 0.0
C1671 C 0.4493 0.01844 0.41138 0.0
C1672 C 0.47705 -0.00113 0.48361 0.0
H1673 H 0.4571 0.94292 0.51323 0.0
C1674 C 0.50125 0.00797 0.491 0.0
C1675 C 0.46086 0.9767 0.4994 0.0
C1676 C 0.43463 0.96737 0.50045 0.0
C1677 C 0.5091 -0.00772 0.50018 0.0
C1678 C 0.49255 0.96807 0.49635 0.0
C1679 C 0.46954 0.96141 0.50796 0.0
C1680 C 0.49374 0.95857 0.46042 0.0
C1681 C 0.53518 0.00124 0.50302 0.0
C1682 C 0.47697 0.9551 0.43341 0.0
C1683 C 0.47973 0.94975 0.39827 0.0
C1684 C 0.49848 0.94621 0.38941 0.0
C1685 C 0.51572 0.95048 0.41577 0.0
C1686 C 0.51338 0.95662 0.45073 0.0
H1687 H 0.54395 0.01804 0.51828 0.0
H1688 H 0.53845 0.98806 0.51676 0.0
H1689 H 0.54317 0.00492 0.4757 0.0
H1690 H 0.46153 0.95658 0.43884 0.0
H1691 H 0.46611 0.94653 0.37881 0.0
H1692 H 0.46439 0.50851 0.71105 0.0
H1693 H 0.48025 0.51428 0.77019 0.0
H1694 H 0.42023 0.44791 0.80509 0.0
H1695 H 0.40366 0.44281 0.74516 0.0
H1696 H 0.47018 0.5212 0.84025 0.0
H1697 H 0.4623 0.43681 0.86391 0.0
H1698 H 0.45081 0.43509 0.81943 0.0
H1699 H 0.43704 0.44081 0.85722 0.0
C1700 C 0.45475 0.49494 0.73108 0.0
C1701 C 0.43262 0.47562 0.72337 0.0
C1702 C 0.46354 0.4984 0.76587 0.0
C1703 C 0.45114 0.48193 0.79389 0.0
C1704 C 0.43003 0.46131 0.78504 0.0
H1705 H 0.57181 0.53408 0.74323 0.0
H1706 H 0.55502 0.5326 0.80161 0.0
C1707 C 0.42085 0.45815 0.75019 0.0
C1708 C 0.46192 0.48556 0.83065 0.0
H1709 H 0.5015 0.467 0.83662 0.0
C1710 C 0.47719 0.50934 0.83953 0.0
C1711 C 0.47046 0.47027 0.8402 0.0
C1712 C 0.45415 0.44424 0.84567 0.0
C1713 C 0.50139 0.51873 0.83177 0.0
C1714 C 0.50909 0.50239 0.82382 0.0
C1715 C 0.49495 0.47925 0.83724 0.0
C1716 C 0.52019 0.50389 0.78832 0.0
C1717 C 0.51574 0.5448 0.82344 0.0
C1718 C 0.50642 0.48798 0.76087 0.0
C1719 C 0.51598 0.48881 0.72707 0.0
C1720 C 0.53968 0.50529 0.72002 0.0
C1721 C 0.55322 0.52168 0.747 0.0
C1722 C 0.5437 0.52074 0.78094 0.0
H1723 H 0.51621 0.55494 0.84761 0.0
H1724 H 0.53404 0.55063 0.81496 0.0
H1725 H 0.50702 0.54947 0.80182 0.0
H1726 H 0.48827 0.47436 0.76572 0.0
H1727 H 0.50526 0.47569 0.70727 0.0
H1728 H 0.95771 0.46907 1.00868 0.0
H1729 H 0.96311 0.49016 1.06404 0.0
H1730 H 0.96584 0.43446 0.12309 0.0
H1731 H 0.95869 0.41274 1.06752 0.0
H1732 H 0.92738 0.47252 0.11519 0.0
H1733 H 0.00373 0.48242 0.193 0.0
H1734 H 0.00317 0.47241 0.14775 0.0
H1735 H 0.97968 0.45414 0.17855 0.0
C1736 C 0.96006 0.46162 1.03332 0.0
C1737 C 0.95526 0.43832 1.03448 0.0
C1738 C 0.96298 0.47356 1.06531 0.0
C1739 C 0.9629 0.46295 0.09856 0.0
C1740 C 0.96466 0.44252 0.09828 0.0
H1741 H -0.00408 0.56295 1.03551 0.0
H1742 H 0.97666 0.55136 0.09413 0.0
C1743 C 0.96089 0.43018 1.06608 0.0
C1744 C 0.9595 0.47305 0.13214 0.0
H1745 H 0.00289 0.5182 0.17921 0.0
C1746 C 0.94408 0.48223 0.12939 0.0
C1747 C 0.9782 0.48405 0.15735 0.0
C1748 C -0.00799 0.47266 0.17006 0.0
C1749 C 0.95323 0.50624 0.13693 0.0
C1750 C 0.97785 0.51969 0.14299 0.0
C1751 C 0.98619 0.50797 0.16538 0.0
C1752 C -0.00791 0.52986 0.10903 0.0
C1753 C 0.93842 0.5175 0.1303 0.0
C1754 C 0.007 0.52148 0.09616 0.0
C1755 C 0.01792 0.52818 1.06281 0.0
C1756 C 0.01533 0.54434 1.04144 0.0
C1757 C -0.00082 0.55138 1.05236 0.0
C1758 C -0.01191 0.54467 0.08607 0.0
H1759 H 0.92068 0.50662 0.14284 0.0
H1760 H 0.94704 0.53567 0.14138 0.0
H1761 H 0.93566 0.51816 0.10095 0.0
H1762 H 0.01103 0.50998 0.11171 0.0
H1763 H 0.03013 0.52224 1.05557 0.0
H1764 H 0.01266 0.49842 0.49043 0.0
H1765 H 0.00552 0.51231 0.43434 0.0
H1766 H 0.00055 0.45187 0.37964 0.0
H1767 H 0.00978 0.43922 0.43585 0.0
H1768 H 0.04097 0.5283 0.38203 0.0
H1769 H 0.96275 0.46267 0.30792 0.0
H1770 H 0.96282 0.45367 0.35383 0.0
H1771 H 0.98592 0.45732 0.32356 0.0
C1772 C 0.00968 0.48792 0.46662 0.0
C1773 C 0.01434 0.46933 0.4667 0.0
C1774 C 0.0055 0.49577 0.4342 0.0
C1775 C 0.00446 0.48417 0.40172 0.0
C1776 C 0.00239 0.46183 0.40376 0.0
H1777 H 0.97666 0.55143 0.46727 0.0
H1778 H -0.00541 0.55933 0.40784 0.0
C1779 C 0.00756 0.45446 0.43634 0.0
C1780 C 0.008 0.49712 0.36707 0.0
H1781 H 0.96463 0.49998 0.32135 0.0
C1782 C 0.02408 0.52164 0.36849 0.0
C1783 C -0.01103 0.48975 0.34262 0.0
C1784 C 0.97426 0.46444 0.33113 0.0
C1785 C 0.01528 0.53697 0.36211 0.0
C1786 C -0.00943 0.52629 0.35676 0.0
C1787 C 0.98153 0.50617 0.33457 0.0
C1788 C 0.97657 0.52261 0.39093 0.0
C1789 C 0.03075 0.56286 0.36952 0.0
C1790 C 0.9601 0.49938 0.40282 0.0
C1791 C 0.94998 0.49501 0.43678 0.0
C1792 C 0.95494 0.51366 0.45996 0.0
C1793 C 0.972 0.53672 0.44946 0.0
C1794 C 0.9823 0.54122 0.41515 0.0
H1795 H 0.04774 0.56981 0.35464 0.0
H1796 H 0.022 0.573 0.36161 0.0
H1797 H 0.03509 0.56548 0.3986 0.0
H1798 H 0.95455 0.48401 0.38621 0.0
H1799 H 0.93684 0.47696 0.44353 0.0
H1800 H 0.4696 0.94785 0.79482 0.0
H1801 H 0.48592 0.95759 0.73511 0.0
H1802 H 0.425 0.96155 0.69863 0.0
H1803 H 0.40888 0.95204 0.75877 0.0
H1804 H 0.47604 0.93868 0.6668 0.0
H1805 H 0.4655 0.01347 0.63704 0.0
H1806 H 0.45424 0.00416 0.68184 0.0
H1807 H 0.44087 0.98397 0.64477 0.0
C1808 C 0.46003 0.95149 0.77433 0.0
C1809 C 0.43794 0.94902 0.78182 0.0
C1810 C 0.46904 0.95654 0.73947 0.0
C1811 C 0.45638 0.95965 0.71097 0.0
C1812 C 0.43511 0.95894 0.71924 0.0
H1813 H 0.56557 0.01311 0.77303 0.0
H1814 H 0.55181 -0.0014 0.71368 0.0
C1815 C 0.4261 0.95392 0.75426 0.0
C1816 C 0.46693 0.96588 0.67399 0.0
H1817 H 0.5054 0.02396 0.66109 0.0
C1818 C 0.48237 0.95744 0.66577 0.0
C1819 C 0.47467 0.9892 0.66198 0.0
C1820 C 0.4578 -0.00184 0.65592 0.0
C1821 C 0.5068 0.97341 0.66874 0.0
C1822 C 0.51386 -0.00281 0.67693 0.0
C1823 C 0.4992 0.00518 0.66225 0.0
C1824 C 0.52282 0.00585 0.71421 0.0
C1825 C 0.5237 0.96416 0.66889 0.0
C1826 C 0.51065 0.01376 0.73665 0.0
C1827 C 0.51863 0.02214 0.77116 0.0
C1828 C 0.53902 0.02297 0.78464 0.0
C1829 C 0.54979 0.0129 0.76391 0.0
C1830 C 0.54196 0.00468 0.72912 0.0
H1831 H 0.51746 0.94881 0.65055 0.0
H1832 H 0.5416 0.97812 0.66031 0.0
H1833 H 0.52465 0.95799 0.69641 0.0
H1834 H 0.49499 0.01395 0.72765 0.0
H1835 H 0.50962 0.02939 0.78618 0.0
H1836 H 0.53518 0.57631 0.09751 0.0
H1837 H 0.53831 0.566 1.0377 0.0
H1838 H 0.46953 0.5029 1.04809 0.0
H1839 H 0.46752 0.51257 0.11016 0.0
H1840 H 0.54619 0.54146 1.00208 0.0
H1841 H 0.47467 0.52582 0.95927 0.0
H1842 H 0.45394 0.50146 0.98724 0.0
H1843 H 0.46251 0.49551 0.94458 0.0
C1844 C 0.52105 0.55973 0.08799 0.0
C1845 C 0.50133 0.54499 0.10962 0.0
C1846 C 0.52232 0.55447 1.05232 0.0
C1847 C 0.50393 0.53424 1.03636 0.0
C1848 C 0.48414 0.51913 1.05826 0.0
H1849 H 0.50675 0.47856 0.14382 0.0
H1850 H 0.51849 0.50102 0.0879 0.0
C1851 C 0.48314 0.52422 0.09454 0.0
C1852 C 0.50827 0.52643 1.00057 0.0
H1853 H 0.46868 0.46873 0.99539 0.0
C1854 C 0.52916 0.52529 1.00133 0.0
C1855 C 0.48896 0.50616 0.9858 0.0
C1856 C 0.46897 0.50749 0.96814 0.0
C1857 C 0.52715 0.50455 1.01604 0.0
C1858 C 0.50388 0.48465 1.01951 0.0
C1859 C 0.48602 0.48437 0.99752 0.0
C1860 C 0.49608 0.471 1.05369 0.0
C1861 C 0.5488 0.50592 1.03298 0.0
C1862 C 0.47713 0.44769 1.05418 0.0
C1863 C 0.46914 0.43545 0.08667 0.0
C1864 C 0.48066 0.44595 0.11912 0.0
C1865 C 0.49796 0.46991 0.11911 0.0
C1866 C 0.50527 0.48244 0.08681 0.0
H1867 H 0.56154 0.50815 1.01148 0.0
H1868 H 0.55781 0.52179 1.05035 0.0
H1869 H 0.54474 0.49023 1.04953 0.0
H1870 H 0.46906 0.43861 1.0294 0.0
H1871 H 0.4556 0.41707 0.08555 0.0
H1872 H 0.31625 0.92239 0.64711 0.0
H1873 H 0.34296 0.95251 0.60436 0.0
H1874 H 0.40181 0.94788 0.64734 0.0
H1875 H 0.37534 0.91821 0.69124 0.0
H1876 H 0.40533 -0.00559 0.65002 0.0
H1877 H 0.38223 0.95417 0.51429 0.0
H1878 H 0.35724 0.94617 0.54322 0.0
H1879 H 0.37828 0.93715 0.55485 0.0
C1880 C 0.33477 0.92734 0.64692 0.0
C1881 C 0.34374 0.91808 0.67265 0.0
C1882 C 0.35 0.9445 0.62244 0.0
C1883 C 0.37435 0.95245 0.623 0.0
C1884 C 0.38314 0.94218 0.64708 0.0
H1885 H 0.4517 0.06997 0.47194 0.0
H1886 H 0.44701 0.03809 0.51201 0.0
C1887 C 0.36798 0.9252 0.6719 0.0
C1888 C 0.39066 0.97371 0.60206 0.0
H1889 H 0.39988 -0.00365 0.51705 0.0
C1890 C 0.40469 -0.0052 0.62086 0.0
C1891 C 0.39003 0.97406 0.56413 0.0
C1892 C 0.37632 0.95165 0.54281 0.0
C1893 C 0.41655 0.01656 0.60271 0.0
C1894 C 0.41396 0.0171 0.56509 0.0
C1895 C 0.4016 -0.00416 0.54604 0.0
C1896 C 0.42063 0.03929 0.54563 0.0
C1897 C 0.43083 0.0389 0.62397 0.0
C1898 C 0.40788 0.05094 0.5521 0.0
C1899 C 0.41035 0.06899 0.52914 0.0
C1900 C 0.42556 0.0756 0.49926 0.0
C1901 C 0.43949 0.06493 0.49432 0.0
C1902 C 0.43694 0.04682 0.51722 0.0
H1903 H 0.4367 0.03525 0.6501 0.0
H1904 H 0.44663 0.05194 0.60853 0.0
H1905 H 0.41971 0.04693 0.62966 0.0
H1906 H 0.39494 0.04508 0.57363 0.0
H1907 H 0.39925 0.07669 0.53353 0.0
H1908 H 0.37592 0.32186 0.99627 0.0
H1909 H 0.37107 0.34991 0.95858 0.0
H1910 H 0.4387 0.40651 0.99396 0.0
H1911 H 0.444 0.37851 1.0315 0.0
H1912 H 0.38885 0.40866 0.99743 0.0
H1913 H 0.41957 0.39113 0.86776 0.0
H1914 H 0.40334 0.36619 0.89743 0.0
H1915 H 0.43187 0.3898 0.91074 0.0
C1916 C 0.38998 0.34016 0.9955 0.0
C1917 C 0.41031 0.34797 1.01678 0.0
C1918 C 0.38708 0.35617 0.97432 0.0
C1919 C 0.40445 0.38019 0.97404 0.0
C1920 C 0.42506 0.38805 0.99439 0.0
H1921 H 0.36809 0.43867 0.79834 0.0
H1922 H 0.39402 0.44568 0.84875 0.0
C1923 C 0.42803 0.37203 1.0156 0.0
C1924 C 0.40056 0.39673 0.95214 0.0
H1925 H 0.39406 0.40708 0.86453 0.0
C1926 C 0.39055 0.409 0.96837 0.0
C1927 C 0.40342 0.39755 0.91455 0.0
C1928 C 0.4153 0.38564 0.89639 0.0
C1929 C 0.38126 0.42035 0.94735 0.0
C1930 C 0.38153 0.41869 0.90945 0.0
C1931 C 0.39366 0.40832 0.89358 0.0
C1932 C 0.36612 0.42342 0.88566 0.0
C1933 C 0.37046 0.43314 0.96588 0.0
C1934 C 0.34151 0.41074 0.89095 0.0
C1935 C 0.3262 0.40757 0.8625 0.0
C1936 C 0.33522 0.41607 0.82777 0.0
C1937 C 0.35992 0.43136 0.82408 0.0
C1938 C 0.37509 0.43533 0.85298 0.0
H1939 H 0.38019 0.44154 0.99106 0.0
H1940 H 0.37054 0.44696 0.94827 0.0
H1941 H 0.35189 0.42024 0.97344 0.0
H1942 H 0.33402 0.40134 0.91594 0.0
H1943 H 0.30736 0.39684 0.86731 0.0
H1944 H 0.90478 0.36943 0.14932 0.0
H1945 H 0.93786 0.39678 0.18776 0.0
H1946 H 0.94473 0.33863 0.22767 0.0
H1947 H 0.91277 0.31152 0.18796 0.0
H1948 H 0.94575 0.37633 0.28122 0.0
H1949 H 0.00835 0.4101 0.16484 0.0
H1950 H 0.97982 0.40808 0.16179 0.0
H1951 H 0.98158 0.38162 0.16293 0.0
C1952 C 0.91347 0.3626 0.1662 0.0
C1953 C 0.9065 0.33849 0.1651 0.0
C1954 C 0.93204 0.37813 0.18835 0.0
C1955 C 0.94358 0.36965 0.2103 0.0
C1956 C 0.93589 0.34541 0.21085 0.0
H1957 H 0.06152 0.39053 0.31359 0.0
H1958 H 0.02979 0.38524 0.2732 0.0
C1959 C 0.91755 0.32994 0.18832 0.0
C1960 C 0.96476 0.38601 0.23103 0.0
H1961 H 0.02484 0.41876 0.22289 0.0
C1962 C 0.96303 0.38616 0.26858 0.0
C1963 C -0.01289 0.399 0.21414 0.0
C1964 C -0.01044 0.39983 0.1737 0.0
C1965 C 0.98341 0.39757 0.28999 0.0
C1966 C 0.0059 0.40872 0.27318 0.0
C1967 C 0.00751 0.41009 0.23553 0.0
C1968 C 0.02746 0.41483 0.29401 0.0
C1969 C 0.98089 0.39618 0.33043 0.0
C1970 C 0.03706 0.4337 0.31826 0.0
C1971 C 0.0554 0.43689 0.34123 0.0
C1972 C 0.06426 0.42119 0.34038 0.0
C1973 C 0.05532 0.40308 0.31471 0.0
C1974 C 0.03713 0.39998 0.2917 0.0
H1975 H 0.96209 0.38592 0.33919 0.0
H1976 H -0.00938 0.38784 0.3421 0.0
H1977 H -0.01121 0.41428 0.34157 0.0
H1978 H 0.02991 0.44545 0.32017 0.0
H1979 H 0.06226 0.45126 0.3603 0.0
H1980 H 0.66203 0.07691 0.63739 0.0
H1981 H 0.63708 0.04782 0.59355 0.0
H1982 H 0.57795 0.02093 0.66673 0.0
H1983 H 0.60317 0.04694 0.71284 0.0
H1984 H 0.58511 0.98742 0.6498 0.0
H1985 H 0.58689 0.03201 0.52207 0.0
H1986 H 0.61606 0.04336 0.53968 0.0
H1987 H 0.59462 0.04729 0.56465 0.0
C1988 C 0.64383 0.06475 0.64472 0.0
C1989 C 0.63541 0.06401 0.67993 0.0
C1990 C 0.62926 0.0485 0.61886 0.0
C1991 C 0.60557 0.03197 0.62691 0.0
C1992 C 0.59627 0.03325 0.66018 0.0
H1993 H 0.52831 0.91319 0.47732 0.0
H1994 H 0.53492 0.94446 0.52017 0.0
C1995 C 0.611 0.04866 0.68661 0.0
C1996 C 0.59215 0.0107 0.60422 0.0
H1997 H 0.5801 -0.00799 0.5172 0.0
C1998 C 0.58345 0.9885 0.62091 0.0
C1999 C 0.58978 0.0119 0.56654 0.0
C2000 C 0.5971 0.03493 0.5473 0.0
C2001 C 0.57371 0.9677 0.60082 0.0
C2002 C 0.57335 0.96916 0.56303 0.0
C2003 C 0.58071 -0.00893 0.54631 0.0
C2004 C 0.56775 0.94857 0.5404 0.0
C2005 C 0.56458 0.94434 0.62005 0.0
C2006 C 0.58355 0.93996 0.53918 0.0
C2007 C 0.5796 0.92183 0.5156 0.0
C2008 C 0.55994 0.91226 0.49254 0.0
C2009 C 0.54373 0.92044 0.4946 0.0
C2010 C 0.54754 0.93837 0.51865 0.0
H2011 H 0.56069 0.9455 0.64883 0.0
H2012 H 0.54823 0.93039 0.60697 0.0
H2013 H 0.57818 0.93892 0.61876 0.0
H2014 H 0.59932 0.94776 0.55575 0.0
H2015 H 0.59248 0.91603 0.51428 0.0
H2016 H 0.53351 0.60864 1.01867 0.0
H2017 H 0.54141 0.58231 0.98188 0.0
H2018 H 0.6144 0.63736 0.97081 0.0
H2019 H 0.60639 0.66386 1.00648 0.0
H2020 H 0.55441 0.57756 0.92212 0.0
H2021 H 0.62574 0.58813 1.01183 0.0
H2022 H 0.60695 0.60012 1.02274 0.0
H2023 H 0.63334 0.61694 0.99583 0.0
C2024 C 0.55117 0.61509 1.00801 0.0
C2025 C 0.56948 0.63807 1.01572 0.0
C2026 C 0.55575 0.59999 0.98747 0.0
C2027 C 0.5789 0.60725 0.97593 0.0
C2028 C 0.59672 0.63084 0.98131 0.0
H2029 H 0.63439 0.58363 0.80042 0.0
H2030 H 0.61263 0.58886 0.84903 0.0
C2031 C 0.59206 0.64613 1.0011 0.0
C2032 C 0.58453 0.59051 0.95768 0.0
H2033 H 0.62892 0.57762 0.94909 0.0
C2034 C 0.5704 0.57718 0.92874 0.0
C2035 C 0.60457 0.58861 0.96723 0.0
C2036 C 0.61826 0.59897 1.00146 0.0
C2037 C 0.57748 0.56454 0.90668 0.0
C2038 C 0.59966 0.5663 0.91249 0.0
C2039 C 0.6123 0.57706 0.94385 0.0
C2040 C 0.61183 0.56151 0.88304 0.0
C2041 C 0.56189 0.5505 0.87596 0.0
C2042 C 0.6189 0.54456 0.88632 0.0
C2043 C 0.63127 0.54134 0.85816 0.0
C2044 C 0.63691 0.55523 0.82664 0.0
C2045 C 0.62992 0.57228 0.8239 0.0
C2046 C 0.61749 0.57533 0.85171 0.0
H2047 H 0.54297 0.54366 0.88266 0.0
H2048 H 0.5666 0.56225 0.85208 0.0
H2049 H 0.56435 0.53535 0.86917 0.0
H2050 H 0.61476 0.53383 0.91046 0.0
H2051 H 0.63622 0.52789 0.86088 0.0
H2052 H 0.06873 0.66275 0.19831 0.0
H2053 H 0.03482 0.63716 0.23639 0.0
H2054 H 0.02155 0.57677 0.17289 0.0
H2055 H 0.05598 0.60208 0.13544 0.0
H2056 H 0.98189 0.58586 0.18157 0.0
H2057 H 0.02377 0.57603 0.29843 0.0
H2058 H 0.02964 0.60541 0.30652 0.0
H2059 H 0.04218 0.59919 0.26759 0.0
C2060 C 0.05907 0.64396 0.19297 0.0
C2061 C 0.06506 0.63453 0.1636 0.0
C2062 C 0.0396 0.62938 0.21464 0.0
C2063 C 0.02576 0.60516 0.20733 0.0
C2064 C 0.03203 0.59546 0.17886 0.0
H2065 H 0.90622 0.52903 0.35687 0.0
H2066 H 0.93798 0.53509 0.31527 0.0
C2067 C 0.05164 0.60999 0.15741 0.0
C2068 C 0.00371 0.59065 0.22788 0.0
H2069 H 0.98307 0.57505 0.31368 0.0
C2070 C 0.98205 0.58312 0.21037 0.0
C2071 C 0.00396 0.5866 0.26519 0.0
C2072 C 0.02633 0.59234 0.28511 0.0
C2073 C 0.96078 0.57346 0.22986 0.0
C2074 C 0.96135 0.57156 0.26771 0.0
C2075 C 0.98272 0.57708 0.28472 0.0
C2076 C 0.94066 0.56632 0.29045 0.0
C2077 C 0.93797 0.56606 0.20998 0.0
C2078 C 0.93173 0.58188 0.29033 0.0
C2079 C 0.91395 0.57867 0.31446 0.0
C2080 C 0.90479 0.55985 0.33928 0.0
C2081 C 0.91328 0.54388 0.33851 0.0
C2082 C 0.93121 0.54719 0.31459 0.0
H2083 H 0.93929 0.56204 0.18136 0.0
H2084 H 0.92295 0.55028 0.22281 0.0
H2085 H 0.93405 0.5807 0.21054 0.0
H2086 H 0.93919 0.5971 0.27251 0.0
H2087 H 0.90811 0.59152 0.31467 0.0
H2088 H 0.50122 0.12281 0.4487 0.0
H2089 H 0.51835 0.12488 0.50897 0.0
H2090 H 0.50892 0.05593 0.49336 0.0
H2091 H 0.49489 0.05532 0.43238 0.0
H2092 H 0.51229 0.11057 0.57365 0.0
H2093 H 0.56732 0.07242 0.53759 0.0
H2094 H 0.55245 0.07959 0.50335 0.0
H2095 H 0.53716 0.05172 0.52746 0.0
C2096 C 0.50379 0.10838 0.45701 0.0
C2097 C 0.49698 0.08915 0.43252 0.0
C2098 C 0.51349 0.10936 0.49293 0.0
C2099 C 0.51672 0.09092 0.50822 0.0
C2100 C 0.5089 0.07149 0.48405 0.0
H2101 H 0.56292 0.05269 0.72115 0.0
H2102 H 0.5477 0.05463 0.66193 0.0
C2103 C 0.49992 0.07083 0.44813 0.0
C2104 C 0.5271 0.09137 0.54833 0.0
H2105 H 0.55955 0.07231 0.59994 0.0
C2106 C 0.52278 0.10223 0.57855 0.0
C2107 C 0.54145 0.08105 0.55817 0.0
C2108 C 0.55012 0.07081 0.52986 0.0
C2109 C 0.53098 0.10236 0.61535 0.0
C2110 C 0.54473 0.09144 0.62514 0.0
C2111 C 0.54914 0.08074 0.59499 0.0
C2112 C 0.55418 0.09041 0.66522 0.0
C2113 C 0.5239 0.11383 0.64399 0.0
C2114 C 0.56459 0.10966 0.69032 0.0
C2115 C 0.57359 0.10827 0.72576 0.0
C2116 C 0.57213 0.0873 0.74027 0.0
C2117 C 0.56288 0.06868 0.71437 0.0
C2118 C 0.55426 0.07001 0.67895 0.0
H2119 H 0.50825 0.11518 0.63579 0.0
H2120 H 0.51973 0.1038 0.66971 0.0
H2121 H 0.53879 0.13201 0.6487 0.0
H2122 H 0.56691 0.12657 0.68209 0.0
H2123 H 0.58306 0.1243 0.7409 0.0
H2124 H 0.36269 0.48286 0.79378 0.0
H2125 H 0.37841 0.49948 0.85326 0.0
H2126 H 0.4488 0.53427 0.809 0.0
H2127 H 0.43278 0.51785 0.75059 0.0
H2128 H 0.39739 0.50089 0.90789 0.0
H2129 H 0.47243 0.58696 0.8676 0.0
H2130 H 0.45036 0.56844 0.83556 0.0
H2131 H 0.47444 0.56337 0.84705 0.0
C2132 C 0.3816 0.49476 0.79603 0.0
C2133 C 0.39572 0.49969 0.76418 0.0
C2134 C 0.39101 0.50434 0.83145 0.0
C2135 C 0.4157 0.5196 0.83907 0.0
C2136 C 0.42981 0.52387 0.8072 0.0
H2137 H 0.4915 0.61012 1.04122 0.0
H2138 H 0.47455 0.59446 0.98192 0.0
C2139 C 0.42032 0.51422 0.77191 0.0
C2140 C 0.42595 0.52975 0.87919 0.0
H2141 H 0.47217 0.5757 0.92764 0.0
C2142 C 0.41373 0.51749 0.91132 0.0
C2143 C 0.44735 0.55172 0.88745 0.0
C2144 C 0.46182 0.56853 0.85771 0.0
C2145 C 0.42138 0.52568 0.94814 0.0
C2146 C 0.44336 0.54711 0.95643 0.0
C2147 C 0.45557 0.55936 0.92427 0.0
C2148 C 0.45359 0.55735 0.99658 0.0
C2149 C 0.40457 0.5111 0.97779 0.0
C2150 C 0.44893 0.54334 1.02876 0.0
C2151 C 0.45828 0.55291 1.06421 0.0
C2152 C 0.47369 0.5774 1.07145 0.0
C2153 C 0.47913 0.59134 1.03926 0.0
C2154 C 0.46935 0.58194 1.00391 0.0
H2155 H 0.38614 0.50028 0.96778 0.0
H2156 H 0.40997 0.4987 0.98872 0.0
H2157 H 0.40444 0.52247 0.99974 0.0
H2158 H 0.43858 0.52437 1.02702 0.0
H2159 H 0.45393 0.54051 0.08598 0.0
H2160 H 0.85476 0.3967 0.09912 0.0
H2161 H 0.85482 0.414 0.15763 0.0
H2162 H 0.92327 0.42232 0.17819 0.0
H2163 H 0.92356 0.408 0.11891 0.0
H2164 H 0.85169 0.41551 0.21979 0.0
H2165 H 0.9477 0.47335 0.23686 0.0
H2166 H 0.93516 0.46077 0.19434 0.0
H2167 H 0.94102 0.44386 0.22739 0.0
C2168 C 0.87081 0.4044 0.11421 0.0
C2169 C 0.89049 0.4034 0.09942 0.0
C2170 C 0.87064 0.41371 0.14993 0.0
C2171 C 0.88981 0.42187 0.17542 0.0
C2172 C 0.90857 0.41895 0.16127 0.0
H2173 H 0.92419 0.50762 0.38535 0.0
H2174 H 0.92221 0.49095 0.32632 0.0
C2175 C 0.90887 0.41044 0.12549 0.0
C2176 C 0.88961 0.4317 0.21579 0.0
H2177 H 0.925 0.46464 0.28847 0.0
C2178 C 0.86811 0.42647 0.23392 0.0
C2179 C 0.91021 0.4467 0.23766 0.0
C2180 C 0.93488 0.45672 0.22313 0.0
C2181 C 0.86666 0.43492 0.26975 0.0
C2182 C 0.88726 0.44897 0.2919 0.0
C2183 C 0.90863 0.45413 0.27393 0.0
C2184 C 0.8878 0.45933 0.33181 0.0
C2185 C 0.84246 0.42911 0.2826 0.0
C2186 C 0.86951 0.4487 0.35878 0.0
C2187 C 0.87071 0.45903 0.39398 0.0
C2188 C 0.89077 0.48013 0.40663 0.0
C2189 C 0.90874 0.49071 0.3796 0.0
C2190 C 0.90747 0.48088 0.34433 0.0
H2191 H 0.8299 0.42478 0.25986 0.0
H2192 H 0.83522 0.41338 0.30053 0.0
H2193 H 0.84325 0.44414 0.29753 0.0
H2194 H 0.85378 0.43206 0.35317 0.0
H2195 H 0.85524 0.45076 0.41062 0.0
H2196 H 0.48811 0.86805 0.46021 0.0
H2197 H 0.47208 0.86744 0.52009 0.0
H2198 H 0.44034 0.9063 0.47765 0.0
H2199 H 0.45478 0.90496 0.41813 0.0
H2200 H 0.47148 0.88398 0.57522 0.0
H2201 H 0.38847 0.88103 0.53822 0.0
H2202 H 0.40531 0.87562 0.5054 0.0
H2203 H 0.41333 0.90557 0.51721 0.0
C2204 C 0.47682 0.87568 0.46287 0.0
C2205 C 0.47229 0.88541 0.43125 0.0
C2206 C 0.46764 0.87574 0.4986 0.0
C2207 C 0.45344 0.88621 0.50695 0.0
C2208 C 0.44961 0.89663 0.47527 0.0
H2209 H 0.36623 0.87471 0.71227 0.0
H2210 H 0.38101 0.87288 0.65248 0.0
C2211 C 0.45843 0.8961 0.43948 0.0
C2212 C 0.44394 0.88669 0.54756 0.0
H2213 H 0.40043 0.8904 0.59805 0.0
C2214 C 0.45569 0.88517 0.57924 0.0
C2215 C 0.423 0.88794 0.55677 0.0
C2216 C 0.40663 0.8874 0.52774 0.0
C2217 C 0.44799 0.88485 0.6164 0.0
C2218 C 0.42772 0.88724 0.62558 0.0
C2219 C 0.41595 0.88873 0.59394 0.0
C2220 C 0.41809 0.88752 0.66612 0.0
C2221 C 0.46166 0.88077 0.64547 0.0
C2222 C 0.43248 0.8962 0.69798 0.0
C2223 C 0.42351 0.89688 0.7336 0.0
C2224 C 0.39917 0.88859 0.74152 0.0
C2225 C 0.38486 0.88036 0.7098 0.0
C2226 C 0.39374 0.87967 0.67416 0.0
H2227 H 0.47105 0.87186 0.63483 0.0
H2228 H 0.47528 0.89806 0.65644 0.0
H2229 H 0.4498 0.86965 0.66756 0.0
H2230 H 0.45133 0.90351 0.69585 0.0
H2231 H 0.43625 0.90491 0.75492 0.0
H2232 H 0.60858 0.48967 0.78896 0.0
H2233 H 0.59347 0.47346 0.8492 0.0
H2234 H 0.52273 0.45055 0.81275 0.0
H2235 H 0.53791 0.46594 0.75308 0.0
H2236 H 0.57767 0.47576 0.90597 0.0
H2237 H 0.49539 0.39529 0.86848 0.0
H2238 H 0.51733 0.41275 0.83526 0.0
H2239 H 0.496 0.42091 0.85005 0.0
C2240 C 0.58959 0.48044 0.79305 0.0
C2241 C 0.5749 0.47845 0.76312 0.0
C2242 C 0.58064 0.47116 0.82884 0.0
C2243 C 0.55605 0.45933 0.83858 0.0
C2244 C 0.54151 0.45817 0.80877 0.0
H2245 H 0.4846 0.37158 1.04588 0.0
H2246 H 0.5004 0.3857 0.98503 0.0
C2247 C 0.55051 0.46739 0.77305 0.0
C2248 C 0.54638 0.44947 0.8789 0.0
H2249 H 0.49877 0.40622 0.92949 0.0
C2250 C 0.56034 0.4604 0.9102 0.0
C2251 C 0.5238 0.42896 0.88797 0.0
C2252 C 0.50734 0.41362 0.85875 0.0
C2253 C 0.55308 0.45232 0.94717 0.0
C2254 C 0.53007 0.43258 0.95632 0.0
C2255 C 0.51619 0.42144 0.92507 0.0
C2256 C 0.52049 0.42313 0.99677 0.0
C2257 C 0.57128 0.46477 0.97608 0.0
C2258 C 0.52519 0.43814 1.02724 0.0
C2259 C 0.51609 0.42977 1.0633 0.0
C2260 C 0.50171 0.4054 1.07275 0.0
C2261 C 0.49648 0.39036 1.04214 0.0
C2262 C 0.5055 0.39875 1.00604 0.0
H2263 H 0.58958 0.47302 0.96515 0.0
H2264 H 0.56898 0.4791 0.98744 0.0
H2265 H 0.56951 0.45241 0.99799 0.0
H2266 H 0.53538 0.45687 1.02294 0.0
H2267 H 0.5197 0.44286 1.08365 0.0
H2268 H 0.04548 0.47863 0.39126 0.0
H2269 H 0.04718 0.49575 0.33193 0.0
H2270 H 0.12233 0.53975 0.344 0.0
H2271 H 0.11977 0.52119 0.4031 0.0
H2272 H 0.0556 0.53547 0.30018 0.0
H2273 H 0.12703 0.52399 0.24332 0.0
H2274 H 0.11332 0.51095 0.28591 0.0
H2275 H 0.13562 0.54175 0.28317 0.0
C2276 C 0.06215 0.49302 0.3828 0.0
C2277 C 0.0817 0.50005 0.40657 0.0
C2278 C 0.06339 0.50279 0.3473 0.0
C2279 C 0.08482 0.5203 0.33093 0.0
C2280 C 0.10497 0.52679 0.35378 0.0
H2281 H 0.11947 0.59324 0.10408 0.0
H2282 H 0.121 0.57775 0.16425 0.0
C2283 C 0.10348 0.5167 0.38959 0.0
C2284 C 0.08541 0.53074 0.29106 0.0
H2285 H 0.11367 0.54463 0.20692 0.0
C2286 C 0.06847 0.53726 0.28017 0.0
C2287 C 0.10182 0.53398 0.26262 0.0
C2288 C 0.12038 0.52714 0.26899 0.0
C2289 C 0.0678 0.5468 0.24487 0.0
C2290 C 0.08383 0.54951 0.21588 0.0
C2291 C 0.10086 0.54303 0.22689 0.0
C2292 C 0.08322 0.55871 0.17533 0.0
C2293 C 0.05014 0.55505 0.24036 0.0
C2294 C 0.06196 0.55405 0.1573 0.0
C2295 C 0.06135 0.56305 0.12194 0.0
C2296 C 0.08143 0.57611 0.09919 0.0
C2297 C 0.10292 0.58131 0.11709 0.0
C2298 C 0.10376 0.57266 0.15319 0.0
H2299 H 0.04586 0.56003 0.26661 0.0
H2300 H 0.0569 0.57059 0.22209 0.0
H2301 H 0.03337 0.5404 0.2295 0.0
H2302 H 0.04517 0.54333 0.17051 0.0
H2303 H 0.04462 0.56053 0.11276 0.0
loop_
_geom_bond_atom_site_label_1
_geom_bond_atom_site_label_2
_geom_bond_distance
_geom_bond_site_symmetry_2
_ccdc_geom_bond_type
Eu0 N31 2.657 . S
Eu0 N38 2.609 . S
Eu0 O44 2.558 . S
Eu0 O45 2.612 . S
Eu0 O47 2.339 . S
Eu0 O48 2.563 . S
Eu0 O49 2.419 . S
Eu0 O51 2.380 . S
Eu0 O52 2.432 . S
Eu0 C64 2.848 . S
C1 C4 1.429 . S
C1 C5 1.411 . S
C1 N8 1.377 . S
C2 C4 1.420 . S
C2 C6 1.423 . S
C2 C14 1.392 . S
C3 C5 1.420 . S
C3 C6 1.351 . S
C3 H26 0.931 . S
C4 C1 1.429 . S
C4 C2 1.420 . S
C4 N12 1.362 . S
C5 C1 1.411 . S
C5 C3 1.420 . S
C5 C10 1.395 . S
C6 C2 1.423 . S
C6 C3 1.351 . S
C6 H18 0.930 . S
C7 C9 1.400 . S
C7 C10 1.386 . S
C7 H19 0.930 . S
N8 C1 1.377 . S
N8 C9 1.321 . S
N8 Eu11 2.609 . S
C9 C7 1.400 . S
C9 N8 1.321 . S
C9 H16 0.930 . S
C10 C5 1.395 . S
C10 C7 1.386 . S
C10 H29 0.930 . S
Eu11 N8 2.609 . S
Eu11 N12 2.657 . S
Eu11 O45 2.380 . S
Eu11 O46 2.432 . S
Eu11 O50 2.558 . S
Eu11 O51 2.612 . S
Eu11 O53 2.339 . S
Eu11 O54 2.563 . S
Eu11 O55 2.419 . S
Eu11 C75 2.848 . S
N12 C4 1.362 . S
N12 Eu11 2.657 . S
N12 C13 1.334 . S
C13 N12 1.334 . S
C13 C15 1.413 . S
C13 H20 0.929 . S
C14 C2 1.392 . S
C14 C15 1.367 . S
C14 H22 0.930 . S
C15 C13 1.413 . S
C15 C14 1.367 . S
C15 H17 0.930 . S
H16 C9 0.930 . S
H17 C15 0.930 . S
H18 C6 0.930 . S
H19 C7 0.930 . S
H20 C13 0.929 . S
H21 C35 0.930 . S
H22 C14 0.930 . S
H23 C41 0.930 . S
H24 C32 0.929 . S
H25 C39 0.930 . S
H26 C3 0.931 . S
H27 C33 0.930 . S
H28 C66 0.930 . S
H29 C10 0.930 . S
H30 C65 0.931 . S
N31 Eu0 2.657 . S
N31 C32 1.334 . S
N31 C36 1.362 . S
C32 H24 0.929 . S
C32 N31 1.334 . S
C32 C35 1.413 . S
C33 H27 0.930 . S
C33 C34 1.392 . S
C33 C35 1.367 . S
C34 C33 1.392 . S
C34 C36 1.420 . S
C34 C66 1.423 . S
C35 H21 0.930 . S
C35 C32 1.413 . S
C35 C33 1.367 . S
C36 N31 1.362 . S
C36 C34 1.420 . S
C36 C40 1.429 . S
H37 C42 0.930 . S
N38 Eu0 2.609 . S
N38 C40 1.377 . S
N38 C41 1.321 . S
C39 H25 0.930 . S
C39 C41 1.400 . S
C39 C42 1.386 . S
C40 C36 1.429 . S
C40 N38 1.377 . S
C40 C43 1.411 . S
C41 H23 0.930 . S
C41 N38 1.321 . S
C41 C39 1.400 . S
C42 H37 0.930 . S
C42 C39 1.386 . S
C42 C43 1.395 . S
C43 C40 1.411 . S
C43 C42 1.395 . S
C43 C65 1.420 . S
O44 Eu0 2.558 . S
O44 C64 1.257 . S
O45 Eu0 2.612 . S
O45 Eu11 2.380 . S
O45 C56 1.276 . S
O46 Eu11 2.432 . S
O46 C63 1.264 . S
O47 Eu0 2.339 . S
O47 C63 1.254 . S
O48 Eu0 2.563 . S
O48 C56 1.235 . S
O49 Eu0 2.419 . S
O49 C64 1.249 . S
O50 Eu11 2.558 . S
O50 C75 1.257 . S
O51 Eu0 2.380 . S
O51 Eu11 2.612 . S
O51 C67 1.276 . S
O52 Eu0 2.432 . S
O52 C74 1.264 . S
O53 Eu11 2.339 . S
O53 C74 1.254 . S
O54 Eu11 2.563 . S
O54 C67 1.235 . S
O55 Eu11 2.419 . S
O55 C75 1.249 . S
C56 O45 1.276 . S
C56 O48 1.235 . S
C57 C59 1.393 . S
C57 C61 1.395 . S
C57 C64 1.492 . S
C58 C59 1.392 . S
C58 C60 1.386 . S
C59 C57 1.393 . S
C59 C58 1.392 . S
C59 H76 0.930 . S
C60 C58 1.386 . S
C60 C62 1.395 . S
C60 H77 0.930 . S
C61 C57 1.395 . S
C61 C62 1.379 . S
C61 H78 0.930 . S
C62 C60 1.395 . S
C62 C61 1.379 . S
C62 H79 0.930 . S
C63 O46 1.264 . S
C63 O47 1.254 . S
C64 Eu0 2.848 . S
C64 O44 1.257 . S
C64 O49 1.249 . S
C64 C57 1.492 . S
C65 H30 0.931 . S
C65 C43 1.420 . S
C65 C66 1.351 . S
C66 H28 0.930 . S
C66 C34 1.423 . S
C66 C65 1.351 . S
C67 O51 1.276 . S
C67 O54 1.235 . S
C68 C69 1.393 . S
C68 C72 1.395 . S
C68 C75 1.492 . S
C69 C68 1.393 . S
C69 C70 1.392 . S
C69 H80 0.930 . S
C70 C69 1.392 . S
C70 C71 1.386 . S
C71 C70 1.386 . S
C71 C73 1.395 . S
C71 H81 0.930 . S
C72 C68 1.395 . S
C72 C73 1.379 . S
C72 H82 0.930 . S
C73 C71 1.395 . S
C73 C72 1.379 . S
C73 H83 0.930 . S
C74 O52 1.264 . S
C74 O53 1.254 . S
C75 Eu11 2.848 . S
C75 O50 1.257 . S
C75 O55 1.249 . S
C75 C68 1.492 . S
H76 C59 0.930 . S
H77 C60 0.930 . S
H78 C61 0.930 . S
H79 C62 0.930 . S
H80 C69 0.930 . S
H81 C71 0.930 . S
H82 C72 0.930 . S
H83 C73 0.930 . S
Eu84 N115 2.657 . S
Eu84 N122 2.609 . S
Eu84 O128 2.558 . S
Eu84 O129 2.612 . S
Eu84 O131 2.339 . S
Eu84 O132 2.563 . S
Eu84 O133 2.419 . S
Eu84 O135 2.380 . S
Eu84 O136 2.432 . S
Eu84 C148 2.848 . S
C85 C88 1.429 . S
C85 C89 1.411 . S
C85 N92 1.377 . S
C86 C88 1.420 . S
C86 C90 1.423 . S
C86 C98 1.392 . S
C87 C89 1.420 . S
C87 C90 1.351 . S
C87 H110 0.931 . S
C88 C85 1.429 . S
C88 C86 1.420 . S
C88 N96 1.362 . S
C89 C85 1.411 . S
C89 C87 1.420 . S
C89 C94 1.395 . S
C90 C86 1.423 . S
C90 C87 1.351 . S
C90 H102 0.930 . S
C91 C93 1.400 . S
C91 C94 1.386 . S
C91 H103 0.930 . S
N92 C85 1.377 . S
N92 C93 1.321 . S
N92 Eu95 2.609 . S
C93 C91 1.400 . S
C93 N92 1.321 . S
C93 H100 0.930 . S
C94 C89 1.395 . S
C94 C91 1.386 . S
C94 H113 0.930 . S
Eu95 N92 2.609 . S
Eu95 N96 2.657 . S
Eu95 O129 2.380 . S
Eu95 O130 2.432 . S
Eu95 O134 2.558 . S
Eu95 O135 2.612 . S
Eu95 O137 2.339 . S
Eu95 O138 2.563 . S
Eu95 O139 2.419 . S
Eu95 C159 2.848 . S
N96 C88 1.362 . S
N96 Eu95 2.657 . S
N96 C97 1.334 . S
C97 N96 1.334 . S
C97 C99 1.413 . S
C97 H104 0.929 . S
C98 C86 1.392 . S
C98 C99 1.367 . S
C98 H106 0.930 . S
C99 C97 1.413 . S
C99 C98 1.367 . S
C99 H101 0.930 . S
H100 C93 0.930 . S
H101 C99 0.930 . S
H102 C90 0.930 . S
H103 C91 0.930 . S
H104 C97 0.929 . S
H105 C119 0.930 . S
H106 C98 0.930 . S
H107 C125 0.930 . S
H108 C116 0.929 . S
H109 C123 0.930 . S
H110 C87 0.931 . S
H111 C117 0.930 . S
H112 C150 0.930 . S
H113 C94 0.930 . S
H114 C149 0.931 . S
N115 Eu84 2.657 . S
N115 C116 1.334 . S
N115 C120 1.362 . S
C116 H108 0.929 . S
C116 N115 1.334 . S
C116 C119 1.413 . S
C117 H111 0.930 . S
C117 C118 1.392 . S
C117 C119 1.367 . S
C118 C117 1.392 . S
C118 C120 1.420 . S
C118 C150 1.423 . S
C119 H105 0.930 . S
C119 C116 1.413 . S
C119 C117 1.367 . S
C120 N115 1.362 . S
C120 C118 1.420 . S
C120 C124 1.429 . S
H121 C126 0.930 . S
N122 Eu84 2.609 . S
N122 C124 1.377 . S
N122 C125 1.321 . S
C123 H109 0.930 . S
C123 C125 1.400 . S
C123 C126 1.386 . S
C124 C120 1.429 . S
C124 N122 1.377 . S
C124 C127 1.411 . S
C125 H107 0.930 . S
C125 N122 1.321 . S
C125 C123 1.400 . S
C126 H121 0.930 . S
C126 C123 1.386 . S
C126 C127 1.395 . S
C127 C124 1.411 . S
C127 C126 1.395 . S
C127 C149 1.420 . S
O128 Eu84 2.558 . S
O128 C148 1.257 . S
O129 Eu84 2.612 . S
O129 Eu95 2.380 . S
O129 C140 1.276 . S
O130 Eu95 2.432 . S
O130 C147 1.264 . S
O131 Eu84 2.339 . S
O131 C147 1.254 . S
O132 Eu84 2.563 . S
O132 C140 1.235 . S
O133 Eu84 2.419 . S
O133 C148 1.249 . S
O134 Eu95 2.558 . S
O134 C159 1.257 . S
O135 Eu84 2.380 . S
O135 Eu95 2.612 . S
O135 C151 1.276 . S
O136 Eu84 2.432 . S
O136 C158 1.264 . S
O137 Eu95 2.339 . S
O137 C158 1.254 . S
O138 Eu95 2.563 . S
O138 C151 1.235 . S
O139 Eu95 2.419 . S
O139 C159 1.249 . S
C140 O129 1.276 . S
C140 O132 1.235 . S
C141 C143 1.393 . S
C141 C145 1.395 . S
C141 C148 1.492 . S
C142 C143 1.392 . S
C142 C144 1.386 . S
C143 C141 1.393 . S
C143 C142 1.392 . S
C143 H160 0.930 . S
C144 C142 1.386 . S
C144 C146 1.395 . S
C144 H161 0.930 . S
C145 C141 1.395 . S
C145 C146 1.379 . S
C145 H162 0.930 . S
C146 C144 1.395 . S
C146 C145 1.379 . S
C146 H163 0.930 . S
C147 O130 1.264 . S
C147 O131 1.254 . S
C148 Eu84 2.848 . S
C148 O128 1.257 . S
C148 O133 1.249 . S
C148 C141 1.492 . S
C149 H114 0.931 . S
C149 C127 1.420 . S
C149 C150 1.351 . S
C150 H112 0.930 . S
C150 C118 1.423 . S
C150 C149 1.351 . S
C151 O135 1.276 . S
C151 O138 1.235 . S
C152 C153 1.393 . S
C152 C156 1.395 . S
C152 C159 1.492 . S
C153 C152 1.393 . S
C153 C154 1.392 . S
C153 H164 0.930 . S
C154 C153 1.392 . S
C154 C155 1.386 . S
C155 C154 1.386 . S
C155 C157 1.395 . S
C155 H165 0.930 . S
C156 C152 1.395 . S
C156 C157 1.379 . S
C156 H166 0.930 . S
C157 C155 1.395 . S
C157 C156 1.379 . S
C157 H167 0.930 . S
C158 O136 1.264 . S
C158 O137 1.254 . S
C159 Eu95 2.848 . S
C159 O134 1.257 . S
C159 O139 1.249 . S
C159 C152 1.492 . S
H160 C143 0.930 . S
H161 C144 0.930 . S
H162 C145 0.930 . S
H163 C146 0.930 . S
H164 C153 0.930 . S
H165 C155 0.930 . S
H166 C156 0.930 . S
H167 C157 0.930 . S
Eu168 N199 2.657 . S
Eu168 N206 2.609 . S
Eu168 O212 2.558 . S
Eu168 O213 2.612 . S
Eu168 O215 2.339 . S
Eu168 O216 2.563 . S
Eu168 O217 2.419 . S
Eu168 O219 2.380 . S
Eu168 O220 2.432 . S
Eu168 C232 2.848 1_556 S
C169 C172 1.429 . S
C169 C173 1.411 . S
C169 N176 1.377 . S
C170 C172 1.420 . S
C170 C174 1.423 . S
C170 C182 1.392 . S
C171 C173 1.420 . S
C171 C174 1.351 . S
C171 H194 0.931 . S
C172 C169 1.429 . S
C172 C170 1.420 . S
C172 N180 1.362 . S
C173 C169 1.411 . S
C173 C171 1.420 . S
C173 C178 1.395 . S
C174 C170 1.423 . S
C174 C171 1.351 . S
C174 H186 0.930 . S
C175 C177 1.400 . S
C175 C178 1.386 . S
C175 H187 0.930 . S
N176 C169 1.377 . S
N176 C177 1.321 . S
N176 Eu179 2.609 . S
C177 C175 1.400 . S
C177 N176 1.321 . S
C177 H184 0.930 . S
C178 C173 1.395 . S
C178 C175 1.386 . S
C178 H197 0.930 . S
Eu179 N176 2.609 . S
Eu179 N180 2.657 . S
Eu179 O213 2.380 . S
Eu179 O214 2.432 . S
Eu179 O218 2.558 . S
Eu179 O219 2.612 . S
Eu179 O221 2.339 . S
Eu179 O222 2.563 . S
Eu179 O223 2.419 . S
Eu179 C243 2.848 . S
N180 C172 1.362 . S
N180 Eu179 2.657 . S
N180 C181 1.334 . S
C181 N180 1.334 . S
C181 C183 1.413 . S
C181 H188 0.929 . S
C182 C170 1.392 . S
C182 C183 1.367 . S
C182 H190 0.930 . S
C183 C181 1.413 . S
C183 C182 1.367 . S
C183 H185 0.930 . S
H184 C177 0.930 . S
H185 C183 0.930 . S
H186 C174 0.930 . S
H187 C175 0.930 . S
H188 C181 0.929 . S
H189 C203 0.930 . S
H190 C182 0.930 . S
H191 C209 0.930 . S
H192 C200 0.929 . S
H193 C207 0.930 . S
H194 C171 0.931 . S
H195 C201 0.930 . S
H196 C234 0.930 . S
H197 C178 0.930 . S
H198 C233 0.931 . S
N199 Eu168 2.657 . S
N199 C200 1.334 . S
N199 C204 1.362 . S
C200 H192 0.929 . S
C200 N199 1.334 . S
C200 C203 1.413 . S
C201 H195 0.930 . S
C201 C202 1.392 . S
C201 C203 1.367 . S
C202 C201 1.392 . S
C202 C204 1.420 . S
C202 C234 1.423 . S
C203 H189 0.930 . S
C203 C200 1.413 . S
C203 C201 1.367 . S
C204 N199 1.362 . S
C204 C202 1.420 . S
C204 C208 1.429 . S
H205 C210 0.930 . S
N206 Eu168 2.609 . S
N206 C208 1.377 . S
N206 C209 1.321 . S
C207 H193 0.930 . S
C207 C209 1.400 . S
C207 C210 1.386 . S
C208 C204 1.429 . S
C208 N206 1.377 . S
C208 C211 1.411 . S
C209 H191 0.930 . S
C209 N206 1.321 . S
C209 C207 1.400 . S
C210 H205 0.930 . S
C210 C207 1.386 . S
C210 C211 1.395 . S
C211 C208 1.411 . S
C211 C210 1.395 . S
C211 C233 1.420 . S
O212 Eu168 2.558 . S
O212 C232 1.257 1_556 S
O213 Eu168 2.612 . S
O213 Eu179 2.380 . S
O213 C224 1.276 . S
O214 Eu179 2.432 . S
O214 C231 1.264 . S
O215 Eu168 2.339 . S
O215 C231 1.254 . S
O216 Eu168 2.563 . S
O216 C224 1.235 . S
O217 Eu168 2.419 . S
O217 C232 1.249 1_556 S
O218 Eu179 2.558 . S
O218 C243 1.257 . S
O219 Eu168 2.380 . S
O219 Eu179 2.612 . S
O219 C235 1.276 . S
O220 Eu168 2.432 . S
O220 C242 1.264 . S
O221 Eu179 2.339 . S
O221 C242 1.254 . S
O222 Eu179 2.563 . S
O222 C235 1.235 . S
O223 Eu179 2.419 . S
O223 C243 1.249 . S
C224 O213 1.276 . S
C224 O216 1.235 . S
C225 C227 1.393 . S
C225 C229 1.395 . S
C225 C232 1.492 . S
C226 C227 1.392 . S
C226 C228 1.386 . S
C227 C225 1.393 . S
C227 C226 1.392 . S
C227 H244 0.930 . S
C228 C226 1.386 . S
C228 C230 1.395 . S
C228 H245 0.930 . S
C229 C225 1.395 . S
C229 C230 1.379 . S
C229 H246 0.930 . S
C230 C228 1.395 . S
C230 C229 1.379 . S
C230 H247 0.930 . S
C231 O214 1.264 . S
C231 O215 1.254 . S
C232 Eu168 2.848 1_554 S
C232 O212 1.257 1_554 S
C232 O217 1.249 1_554 S
C232 C225 1.492 . S
C233 H198 0.931 . S
C233 C211 1.420 . S
C233 C234 1.351 . S
C234 H196 0.930 . S
C234 C202 1.423 . S
C234 C233 1.351 . S
C235 O219 1.276 . S
C235 O222 1.235 . S
C236 C237 1.393 . S
C236 C240 1.395 . S
C236 C243 1.492 . S
C237 C236 1.393 . S
C237 C238 1.392 . S
C237 H248 0.930 . S
C238 C237 1.392 . S
C238 C239 1.386 . S
C239 C238 1.386 . S
C239 C241 1.395 . S
C239 H249 0.930 . S
C240 C236 1.395 . S
C240 C241 1.379 . S
C240 H250 0.930 . S
C241 C239 1.395 . S
C241 C240 1.379 . S
C241 H251 0.930 . S
C242 O220 1.264 . S
C242 O221 1.254 . S
C243 Eu179 2.848 . S
C243 O218 1.257 . S
C243 O223 1.249 . S
C243 C236 1.492 . S
H244 C227 0.930 . S
H245 C228 0.930 . S
H246 C229 0.930 . S
H247 C230 0.930 . S
H248 C237 0.930 . S
H249 C239 0.930 . S
H250 C240 0.930 . S
H251 C241 0.930 . S
Eu252 N283 2.657 . S
Eu252 N290 2.609 . S
Eu252 O296 2.558 . S
Eu252 O297 2.612 . S
Eu252 O299 2.339 . S
Eu252 O300 2.563 . S
Eu252 O301 2.419 . S
Eu252 O303 2.380 . S
Eu252 O304 2.432 . S
Eu252 C316 2.848 . S
C253 C256 1.429 . S
C253 C257 1.411 . S
C253 N260 1.377 . S
C254 C256 1.420 . S
C254 C258 1.423 . S
C254 C266 1.392 . S
C255 C257 1.420 . S
C255 C258 1.351 . S
C255 H278 0.931 . S
C256 C253 1.429 . S
C256 C254 1.420 . S
C256 N264 1.362 . S
C257 C253 1.411 . S
C257 C255 1.420 . S
C257 C262 1.395 . S
C258 C254 1.423 . S
C258 C255 1.351 . S
C258 H270 0.930 . S
C259 C261 1.400 . S
C259 C262 1.386 . S
C259 H271 0.930 . S
N260 C253 1.377 . S
N260 C261 1.321 . S
N260 Eu263 2.609 . S
C261 C259 1.400 . S
C261 N260 1.321 . S
C261 H268 0.930 . S
C262 C257 1.395 . S
C262 C259 1.386 . S
C262 H281 0.930 . S
Eu263 N260 2.609 . S
Eu263 N264 2.657 . S
Eu263 O297 2.380 . S
Eu263 O298 2.432 . S
Eu263 O302 2.558 . S
Eu263 O303 2.612 . S
Eu263 O305 2.339 . S
Eu263 O306 2.563 . S
Eu263 O307 2.419 . S
Eu263 C327 2.848 . S
N264 C256 1.362 . S
N264 Eu263 2.657 . S
N264 C265 1.334 . S
C265 N264 1.334 . S
C265 C267 1.413 . S
C265 H272 0.929 . S
C266 C254 1.392 . S
C266 C267 1.367 . S
C266 H274 0.930 . S
C267 C265 1.413 . S
C267 C266 1.367 . S
C267 H269 0.930 . S
H268 C261 0.930 . S
H269 C267 0.930 . S
H270 C258 0.930 . S
H271 C259 0.930 . S
H272 C265 0.929 . S
H273 C287 0.930 . S
H274 C266 0.930 . S
H275 C293 0.930 . S
H276 C284 0.929 . S
H277 C291 0.930 . S
H278 C255 0.931 . S
H279 C285 0.930 . S
H280 C318 0.930 . S
H281 C262 0.930 . S
H282 C317 0.931 . S
N283 Eu252 2.657 . S
N283 C284 1.334 . S
N283 C288 1.362 . S
C284 H276 0.929 . S
C284 N283 1.334 . S
C284 C287 1.413 . S
C285 H279 0.930 . S
C285 C286 1.392 . S
C285 C287 1.367 . S
C286 C285 1.392 . S
C286 C288 1.420 . S
C286 C318 1.423 . S
C287 H273 0.930 . S
C287 C284 1.413 . S
C287 C285 1.367 . S
C288 N283 1.362 . S
C288 C286 1.420 . S
C288 C292 1.429 . S
H289 C294 0.930 . S
N290 Eu252 2.609 . S
N290 C292 1.377 . S
N290 C293 1.321 . S
C291 H277 0.930 . S
C291 C293 1.400 . S
C291 C294 1.386 . S
C292 C288 1.429 . S
C292 N290 1.377 . S
C292 C295 1.411 . S
C293 H275 0.930 . S
C293 N290 1.321 . S
C293 C291 1.400 . S
C294 H289 0.930 . S
C294 C291 1.386 . S
C294 C295 1.395 . S
C295 C292 1.411 . S
C295 C294 1.395 . S
C295 C317 1.420 . S
O296 Eu252 2.558 . S
O296 C316 1.257 . S
O297 Eu252 2.612 . S
O297 Eu263 2.380 . S
O297 C308 1.276 . S
O298 Eu263 2.432 . S
O298 C315 1.264 . S
O299 Eu252 2.339 . S
O299 C315 1.254 . S
O300 Eu252 2.563 . S
O300 C308 1.235 . S
O301 Eu252 2.419 . S
O301 C316 1.249 . S
O302 Eu263 2.558 . S
O302 C327 1.257 . S
O303 Eu252 2.380 . S
O303 Eu263 2.612 . S
O303 C319 1.276 . S
O304 Eu252 2.432 . S
O304 C326 1.264 . S
O305 Eu263 2.339 . S
O305 C326 1.254 . S
O306 Eu263 2.563 . S
O306 C319 1.235 . S
O307 Eu263 2.419 . S
O307 C327 1.249 . S
C308 O297 1.276 . S
C308 O300 1.235 . S
C309 C311 1.393 . S
C309 C313 1.395 . S
C309 C316 1.492 . S
C310 C311 1.392 . S
C310 C312 1.386 . S
C311 C309 1.393 . S
C311 C310 1.392 . S
C311 H328 0.930 . S
C312 C310 1.386 . S
C312 C314 1.395 . S
C312 H329 0.930 . S
C313 C309 1.395 . S
C313 C314 1.379 . S
C313 H330 0.930 . S
C314 C312 1.395 . S
C314 C313 1.379 . S
C314 H331 0.930 . S
C315 O298 1.264 . S
C315 O299 1.254 . S
C316 Eu252 2.848 . S
C316 O296 1.257 . S
C316 O301 1.249 . S
C316 C309 1.492 . S
C317 H282 0.931 . S
C317 C295 1.420 . S
C317 C318 1.351 . S
C318 H280 0.930 . S
C318 C286 1.423 . S
C318 C317 1.351 . S
C319 O303 1.276 . S
C319 O306 1.235 . S
C320 C321 1.393 . S
C320 C324 1.395 . S
C320 C327 1.492 . S
C321 C320 1.393 . S
C321 C322 1.392 . S
C321 H332 0.930 . S
C322 C321 1.392 . S
C322 C323 1.386 . S
C323 C322 1.386 . S
C323 C325 1.395 . S
C323 H333 0.930 . S
C324 C320 1.395 . S
C324 C325 1.379 . S
C324 H334 0.930 . S
C325 C323 1.395 . S
C325 C324 1.379 . S
C325 H335 0.930 . S
C326 O304 1.264 . S
C326 O305 1.254 . S
C327 Eu263 2.848 . S
C327 O302 1.257 . S
C327 O307 1.249 . S
C327 C320 1.492 . S
H328 C311 0.930 . S
H329 C312 0.930 . S
H330 C313 0.930 . S
H331 C314 0.930 . S
H332 C321 0.930 . S
H333 C323 0.930 . S
H334 C324 0.930 . S
H335 C325 0.930 . S
Eu336 N367 2.657 . S
Eu336 N374 2.609 . S
Eu336 O380 2.558 . S
Eu336 O381 2.612 . S
Eu336 O383 2.339 . S
Eu336 O384 2.563 . S
Eu336 O385 2.419 . S
Eu336 O387 2.380 . S
Eu336 O388 2.432 . S
Eu336 C400 2.848 . S
C337 C340 1.429 . S
C337 C341 1.411 . S
C337 N344 1.377 . S
C338 C340 1.420 . S
C338 C342 1.423 . S
C338 C350 1.392 . S
C339 C341 1.420 . S
C339 C342 1.351 . S
C339 H362 0.931 . S
C340 C337 1.429 . S
C340 C338 1.420 . S
C340 N348 1.362 . S
C341 C337 1.411 . S
C341 C339 1.420 . S
C341 C346 1.395 . S
C342 C338 1.423 . S
C342 C339 1.351 . S
C342 H354 0.930 . S
C343 C345 1.400 . S
C343 C346 1.386 . S
C343 H355 0.930 . S
N344 C337 1.377 . S
N344 C345 1.321 . S
N344 Eu347 2.609 . S
C345 C343 1.400 . S
C345 N344 1.321 . S
C345 H352 0.930 . S
C346 C341 1.395 . S
C346 C343 1.386 . S
C346 H365 0.930 . S
Eu347 N344 2.609 . S
Eu347 N348 2.657 . S
Eu347 O381 2.380 . S
Eu347 O382 2.432 . S
Eu347 O386 2.558 . S
Eu347 O387 2.612 . S
Eu347 O389 2.339 . S
Eu347 O390 2.563 . S
Eu347 O391 2.419 . S
Eu347 C411 2.848 . S
N348 C340 1.362 . S
N348 Eu347 2.657 . S
N348 C349 1.334 . S
C349 N348 1.334 . S
C349 C351 1.413 . S
C349 H356 0.929 . S
C350 C338 1.392 . S
C350 C351 1.367 . S
C350 H358 0.930 . S
C351 C349 1.413 . S
C351 C350 1.367 . S
C351 H353 0.930 . S
H352 C345 0.930 . S
H353 C351 0.930 . S
H354 C342 0.930 . S
H355 C343 0.930 . S
H356 C349 0.929 . S
H357 C371 0.930 . S
H358 C350 0.930 . S
H359 C377 0.930 . S
H360 C368 0.929 . S
H361 C375 0.930 . S
H362 C339 0.931 . S
H363 C369 0.930 . S
H364 C402 0.930 . S
H365 C346 0.930 . S
H366 C401 0.931 . S
N367 Eu336 2.657 . S
N367 C368 1.334 . S
N367 C372 1.362 . S
C368 H360 0.929 . S
C368 N367 1.334 . S
C368 C371 1.413 . S
C369 H363 0.930 . S
C369 C370 1.392 . S
C369 C371 1.367 . S
C370 C369 1.392 . S
C370 C372 1.420 . S
C370 C402 1.423 . S
C371 H357 0.930 . S
C371 C368 1.413 . S
C371 C369 1.367 . S
C372 N367 1.362 . S
C372 C370 1.420 . S
C372 C376 1.429 . S
H373 C378 0.930 . S
N374 Eu336 2.609 . S
N374 C376 1.377 . S
N374 C377 1.321 . S
C375 H361 0.930 . S
C375 C377 1.400 . S
C375 C378 1.386 . S
C376 C372 1.429 . S
C376 N374 1.377 . S
C376 C379 1.411 . S
C377 H359 0.930 . S
C377 N374 1.321 . S
C377 C375 1.400 . S
C378 H373 0.930 . S
C378 C375 1.386 . S
C378 C379 1.395 . S
C379 C376 1.411 . S
C379 C378 1.395 . S
C379 C401 1.420 . S
O380 Eu336 2.558 . S
O380 C400 1.257 . S
O381 Eu336 2.612 . S
O381 Eu347 2.380 . S
O381 C392 1.276 . S
O382 Eu347 2.432 . S
O382 C399 1.264 . S
O383 Eu336 2.339 . S
O383 C399 1.254 . S
O384 Eu336 2.563 . S
O384 C392 1.235 . S
O385 Eu336 2.419 . S
O385 C400 1.249 . S
O386 Eu347 2.558 . S
O386 C411 1.257 . S
O387 Eu336 2.380 . S
O387 Eu347 2.612 . S
O387 C403 1.276 . S
O388 Eu336 2.432 . S
O388 C410 1.264 . S
O389 Eu347 2.339 . S
O389 C410 1.254 . S
O390 Eu347 2.563 . S
O390 C403 1.235 . S
O391 Eu347 2.419 . S
O391 C411 1.249 . S
C392 O381 1.276 . S
C392 O384 1.235 . S
C393 C395 1.393 . S
C393 C397 1.395 . S
C393 C400 1.492 . S
C394 C395 1.392 . S
C394 C396 1.386 . S
C395 C393 1.393 . S
C395 C394 1.392 . S
C395 H412 0.930 . S
C396 C394 1.386 . S
C396 C398 1.395 . S
C396 H413 0.930 . S
C397 C393 1.395 . S
C397 C398 1.379 . S
C397 H414 0.930 . S
C398 C396 1.395 . S
C398 C397 1.379 . S
C398 H415 0.930 . S
C399 O382 1.264 . S
C399 O383 1.254 . S
C400 Eu336 2.848 . S
C400 O380 1.257 . S
C400 O385 1.249 . S
C400 C393 1.492 . S
C401 H366 0.931 . S
C401 C379 1.420 . S
C401 C402 1.351 . S
C402 H364 0.930 . S
C402 C370 1.423 . S
C402 C401 1.351 . S
C403 O387 1.276 . S
C403 O390 1.235 . S
C404 C405 1.393 . S
C404 C408 1.395 . S
C404 C411 1.492 . S
C405 C404 1.393 . S
C405 C406 1.392 . S
C405 H416 0.930 . S
C406 C405 1.392 . S
C406 C407 1.386 . S
C407 C406 1.386 . S
C407 C409 1.395 . S
C407 H417 0.930 . S
C408 C404 1.395 . S
C408 C409 1.379 . S
C408 H418 0.930 . S
C409 C407 1.395 . S
C409 C408 1.379 . S
C409 H419 0.930 . S
C410 O388 1.264 . S
C410 O389 1.254 . S
C411 Eu347 2.848 . S
C411 O386 1.257 . S
C411 O391 1.249 . S
C411 C404 1.492 . S
H412 C395 0.930 . S
H413 C396 0.930 . S
H414 C397 0.930 . S
H415 C398 0.930 . S
H416 C405 0.930 . S
H417 C407 0.930 . S
H418 C408 0.930 . S
H419 C409 0.930 . S
Eu420 N451 2.657 . S
Eu420 N458 2.609 . S
Eu420 O464 2.558 . S
Eu420 O465 2.612 . S
Eu420 O467 2.339 . S
Eu420 O468 2.563 . S
Eu420 O469 2.419 . S
Eu420 O471 2.380 . S
Eu420 O472 2.432 . S
Eu420 C484 2.848 1_556 S
C421 C424 1.429 . S
C421 C425 1.411 . S
C421 N428 1.377 . S
C422 C424 1.420 . S
C422 C426 1.423 . S
C422 C434 1.392 . S
C423 C425 1.420 . S
C423 C426 1.351 . S
C423 H446 0.931 . S
C424 C421 1.429 . S
C424 C422 1.420 . S
C424 N432 1.362 . S
C425 C421 1.411 . S
C425 C423 1.420 . S
C425 C430 1.395 . S
C426 C422 1.423 . S
C426 C423 1.351 . S
C426 H438 0.930 . S
C427 C429 1.400 . S
C427 C430 1.386 . S
C427 H439 0.930 . S
N428 C421 1.377 . S
N428 C429 1.321 . S
N428 Eu431 2.609 . S
C429 C427 1.400 . S
C429 N428 1.321 . S
C429 H436 0.930 . S
C430 C425 1.395 . S
C430 C427 1.386 . S
C430 H449 0.930 . S
Eu431 N428 2.609 . S
Eu431 N432 2.657 . S
Eu431 O465 2.380 . S
Eu431 O466 2.432 . S
Eu431 O470 2.558 . S
Eu431 O471 2.612 . S
Eu431 O473 2.339 . S
Eu431 O474 2.563 . S
Eu431 O475 2.419 . S
Eu431 C495 2.848 . S
N432 C424 1.362 . S
N432 Eu431 2.657 . S
N432 C433 1.334 . S
C433 N432 1.334 . S
C433 C435 1.413 . S
C433 H440 0.929 . S
C434 C422 1.392 . S
C434 C435 1.367 . S
C434 H442 0.930 . S
C435 C433 1.413 . S
C435 C434 1.367 . S
C435 H437 0.930 . S
H436 C429 0.930 . S
H437 C435 0.930 . S
H438 C426 0.930 . S
H439 C427 0.930 . S
H440 C433 0.929 . S
H441 C455 0.930 . S
H442 C434 0.930 . S
H443 C461 0.930 . S
H444 C452 0.929 . S
H445 C459 0.930 . S
H446 C423 0.931 . S
H447 C453 0.930 . S
H448 C486 0.930 . S
H449 C430 0.930 . S
H450 C485 0.931 . S
N451 Eu420 2.657 . S
N451 C452 1.334 . S
N451 C456 1.362 . S
C452 H444 0.929 . S
C452 N451 1.334 . S
C452 C455 1.413 . S
C453 H447 0.930 . S
C453 C454 1.392 . S
C453 C455 1.367 . S
C454 C453 1.392 . S
C454 C456 1.420 . S
C454 C486 1.423 . S
C455 H441 0.930 . S
C455 C452 1.413 . S
C455 C453 1.367 . S
C456 N451 1.362 . S
C456 C454 1.420 . S
C456 C460 1.429 . S
H457 C462 0.930 . S
N458 Eu420 2.609 . S
N458 C460 1.377 . S
N458 C461 1.321 . S
C459 H445 0.930 . S
C459 C461 1.400 . S
C459 C462 1.386 . S
C460 C456 1.429 . S
C460 N458 1.377 . S
C460 C463 1.411 . S
C461 H443 0.930 . S
C461 N458 1.321 . S
C461 C459 1.400 . S
C462 H457 0.930 . S
C462 C459 1.386 . S
C462 C463 1.395 . S
C463 C460 1.411 . S
C463 C462 1.395 . S
C463 C485 1.420 . S
O464 Eu420 2.558 . S
O464 C484 1.257 1_556 S
O465 Eu420 2.612 . S
O465 Eu431 2.380 . S
O465 C476 1.276 . S
O466 Eu431 2.432 . S
O466 C483 1.264 . S
O467 Eu420 2.339 . S
O467 C483 1.254 . S
O468 Eu420 2.563 . S
O468 C476 1.235 . S
O469 Eu420 2.419 . S
O469 C484 1.249 1_556 S
O470 Eu431 2.558 . S
O470 C495 1.257 . S
O471 Eu420 2.380 . S
O471 Eu431 2.612 . S
O471 C487 1.276 . S
O472 Eu420 2.432 . S
O472 C494 1.264 . S
O473 Eu431 2.339 . S
O473 C494 1.254 . S
O474 Eu431 2.563 . S
O474 C487 1.235 . S
O475 Eu431 2.419 . S
O475 C495 1.249 . S
C476 O465 1.276 . S
C476 O468 1.235 . S
C477 C479 1.393 . S
C477 C481 1.395 . S
C477 C484 1.492 . S
C478 C479 1.392 . S
C478 C480 1.386 . S
C479 C477 1.393 . S
C479 C478 1.392 . S
C479 H496 0.930 . S
C480 C478 1.386 . S
C480 C482 1.395 . S
C480 H497 0.930 . S
C481 C477 1.395 . S
C481 C482 1.379 . S
C481 H498 0.930 . S
C482 C480 1.395 . S
C482 C481 1.379 . S
C482 H499 0.930 . S
C483 O466 1.264 . S
C483 O467 1.254 . S
C484 Eu420 2.848 1_554 S
C484 O464 1.257 1_554 S
C484 O469 1.249 1_554 S
C484 C477 1.492 . S
C485 H450 0.931 . S
C485 C463 1.420 . S
C485 C486 1.351 . S
C486 H448 0.930 . S
C486 C454 1.423 . S
C486 C485 1.351 . S
C487 O471 1.276 . S
C487 O474 1.235 . S
C488 C489 1.393 . S
C488 C492 1.395 . S
C488 C495 1.492 . S
C489 C488 1.393 . S
C489 C490 1.392 . S
C489 H500 0.930 . S
C490 C489 1.392 . S
C490 C491 1.386 . S
C491 C490 1.386 . S
C491 C493 1.395 . S
C491 H501 0.930 . S
C492 C488 1.395 . S
C492 C493 1.379 . S
C492 H502 0.930 . S
C493 C491 1.395 . S
C493 C492 1.379 . S
C493 H503 0.930 . S
C494 O472 1.264 . S
C494 O473 1.254 . S
C495 Eu431 2.848 . S
C495 O470 1.257 . S
C495 O475 1.249 . S
C495 C488 1.492 . S
H496 C479 0.930 . S
H497 C480 0.930 . S
H498 C481 0.930 . S
H499 C482 0.930 . S
H500 C489 0.930 . S
H501 C491 0.930 . S
H502 C492 0.930 . S
H503 C493 0.930 . S
Eu504 N535 2.657 . S
Eu504 N542 2.609 . S
Eu504 O548 2.558 . S
Eu504 O549 2.612 . S
Eu504 O551 2.339 . S
Eu504 O552 2.563 . S
Eu504 O553 2.419 . S
Eu504 O555 2.380 . S
Eu504 O556 2.432 . S
Eu504 C568 2.848 . S
C505 C508 1.429 . S
C505 C509 1.411 . S
C505 N512 1.377 . S
C506 C508 1.420 . S
C506 C510 1.423 . S
C506 C518 1.392 . S
C507 C509 1.420 . S
C507 C510 1.351 . S
C507 H530 0.931 . S
C508 C505 1.429 . S
C508 C506 1.420 . S
C508 N516 1.362 . S
C509 C505 1.411 . S
C509 C507 1.420 . S
C509 C514 1.395 . S
C510 C506 1.423 . S
C510 C507 1.351 . S
C510 H522 0.930 . S
C511 C513 1.400 . S
C511 C514 1.386 . S
C511 H523 0.930 . S
N512 C505 1.377 . S
N512 C513 1.321 . S
N512 Eu515 2.609 . S
C513 C511 1.400 . S
C513 N512 1.321 . S
C513 H520 0.930 . S
C514 C509 1.395 . S
C514 C511 1.386 . S
C514 H533 0.930 . S
Eu515 N512 2.609 . S
Eu515 N516 2.657 . S
Eu515 O549 2.380 . S
Eu515 O550 2.432 . S
Eu515 O554 2.558 . S
Eu515 O555 2.612 . S
Eu515 O557 2.339 . S
Eu515 O558 2.563 . S
Eu515 O559 2.419 . S
Eu515 C579 2.848 . S
N516 C508 1.362 . S
N516 Eu515 2.657 . S
N516 C517 1.334 . S
C517 N516 1.334 . S
C517 C519 1.413 . S
C517 H524 0.929 . S
C518 C506 1.392 . S
C518 C519 1.367 . S
C518 H526 0.930 . S
C519 C517 1.413 . S
C519 C518 1.367 . S
C519 H521 0.930 . S
H520 C513 0.930 . S
H521 C519 0.930 . S
H522 C510 0.930 . S
H523 C511 0.930 . S
H524 C517 0.929 . S
H525 C539 0.930 . S
H526 C518 0.930 . S
H527 C545 0.930 . S
H528 C536 0.929 . S
H529 C543 0.930 . S
H530 C507 0.931 . S
H531 C537 0.930 . S
H532 C570 0.930 . S
H533 C514 0.930 . S
H534 C569 0.931 . S
N535 Eu504 2.657 . S
N535 C536 1.334 . S
N535 C540 1.362 . S
C536 H528 0.929 . S
C536 N535 1.334 . S
C536 C539 1.413 . S
C537 H531 0.930 . S
C537 C538 1.392 . S
C537 C539 1.367 . S
C538 C537 1.392 . S
C538 C540 1.420 . S
C538 C570 1.423 . S
C539 H525 0.930 . S
C539 C536 1.413 . S
C539 C537 1.367 . S
C540 N535 1.362 . S
C540 C538 1.420 . S
C540 C544 1.429 . S
H541 C546 0.930 . S
N542 Eu504 2.609 . S
N542 C544 1.377 . S
N542 C545 1.321 . S
C543 H529 0.930 . S
C543 C545 1.400 . S
C543 C546 1.386 . S
C544 C540 1.429 . S
C544 N542 1.377 . S
C544 C547 1.411 . S
C545 H527 0.930 . S
C545 N542 1.321 . S
C545 C543 1.400 . S
C546 H541 0.930 . S
C546 C543 1.386 . S
C546 C547 1.395 . S
C547 C544 1.411 . S
C547 C546 1.395 . S
C547 C569 1.420 . S
O548 Eu504 2.558 . S
O548 C568 1.257 . S
O549 Eu504 2.612 . S
O549 Eu515 2.380 . S
O549 C560 1.276 . S
O550 Eu515 2.432 . S
O550 C567 1.264 . S
O551 Eu504 2.339 . S
O551 C567 1.254 . S
O552 Eu504 2.563 . S
O552 C560 1.235 . S
O553 Eu504 2.419 . S
O553 C568 1.249 . S
O554 Eu515 2.558 . S
O554 C579 1.257 . S
O555 Eu504 2.380 . S
O555 Eu515 2.612 . S
O555 C571 1.276 . S
O556 Eu504 2.432 . S
O556 C578 1.264 . S
O557 Eu515 2.339 . S
O557 C578 1.254 . S
O558 Eu515 2.563 . S
O558 C571 1.235 . S
O559 Eu515 2.419 . S
O559 C579 1.249 . S
C560 O549 1.276 . S
C560 O552 1.235 . S
C561 C563 1.393 . S
C561 C565 1.395 . S
C561 C568 1.492 . S
C562 C563 1.392 . S
C562 C564 1.386 . S
C563 C561 1.393 . S
C563 C562 1.392 . S
C563 H580 0.930 . S
C564 C562 1.386 . S
C564 C566 1.395 . S
C564 H581 0.930 . S
C565 C561 1.395 . S
C565 C566 1.379 . S
C565 H582 0.930 . S
C566 C564 1.395 . S
C566 C565 1.379 . S
C566 H583 0.930 . S
C567 O550 1.264 . S
C567 O551 1.254 . S
C568 Eu504 2.848 . S
C568 O548 1.257 . S
C568 O553 1.249 . S
C568 C561 1.492 . S
C569 H534 0.931 . S
C569 C547 1.420 . S
C569 C570 1.351 . S
C570 H532 0.930 . S
C570 C538 1.423 . S
C570 C569 1.351 . S
C571 O555 1.276 . S
C571 O558 1.235 . S
C572 C573 1.393 . S
C572 C576 1.395 . S
C572 C579 1.492 . S
C573 C572 1.393 . S
C573 C574 1.392 . S
C573 H584 0.930 . S
C574 C573 1.392 . S
C574 C575 1.386 . S
C575 C574 1.386 . S
C575 C577 1.395 . S
C575 H585 0.930 . S
C576 C572 1.395 . S
C576 C577 1.379 . S
C576 H586 0.930 . S
C577 C575 1.395 . S
C577 C576 1.379 . S
C577 H587 0.930 . S
C578 O556 1.264 . S
C578 O557 1.254 . S
C579 Eu515 2.848 . S
C579 O554 1.257 . S
C579 O559 1.249 . S
C579 C572 1.492 . S
H580 C563 0.930 . S
H581 C564 0.930 . S
H582 C565 0.930 . S
H583 C566 0.930 . S
H584 C573 0.930 . S
H585 C575 0.930 . S
H586 C576 0.930 . S
H587 C577 0.930 . S
Eu588 N619 2.657 . S
Eu588 N626 2.609 . S
Eu588 O632 2.558 . S
Eu588 O633 2.612 . S
Eu588 O635 2.339 . S
Eu588 O636 2.563 . S
Eu588 O637 2.419 . S
Eu588 O639 2.380 . S
Eu588 O640 2.432 . S
Eu588 C652 2.848 . S
C589 C592 1.429 . S
C589 C593 1.411 . S
C589 N596 1.377 . S
C590 C592 1.420 . S
C590 C594 1.423 . S
C590 C602 1.392 . S
C591 C593 1.420 . S
C591 C594 1.351 . S
C591 H614 0.931 . S
C592 C589 1.429 . S
C592 C590 1.420 . S
C592 N600 1.362 . S
C593 C589 1.411 . S
C593 C591 1.420 . S
C593 C598 1.395 . S
C594 C590 1.423 . S
C594 C591 1.351 . S
C594 H606 0.930 . S
C595 C597 1.400 . S
C595 C598 1.386 . S
C595 H607 0.930 . S
N596 C589 1.377 . S
N596 C597 1.321 . S
N596 Eu599 2.609 . S
C597 C595 1.400 . S
C597 N596 1.321 . S
C597 H604 0.930 . S
C598 C593 1.395 . S
C598 C595 1.386 . S
C598 H617 0.930 . S
Eu599 N596 2.609 . S
Eu599 N600 2.657 . S
Eu599 O633 2.380 . S
Eu599 O634 2.432 . S
Eu599 O638 2.558 . S
Eu599 O639 2.612 . S
Eu599 O641 2.339 . S
Eu599 O642 2.563 . S
Eu599 O643 2.419 . S
Eu599 C663 2.848 . S
N600 C592 1.362 . S
N600 Eu599 2.657 . S
N600 C601 1.334 . S
C601 N600 1.334 . S
C601 C603 1.413 . S
C601 H608 0.929 . S
C602 C590 1.392 . S
C602 C603 1.367 . S
C602 H610 0.930 . S
C603 C601 1.413 . S
C603 C602 1.367 . S
C603 H605 0.930 . S
H604 C597 0.930 . S
H605 C603 0.930 . S
H606 C594 0.930 . S
H607 C595 0.930 . S
H608 C601 0.929 . S
H609 C623 0.930 . S
H610 C602 0.930 . S
H611 C629 0.930 . S
H612 C620 0.929 . S
H613 C627 0.930 . S
H614 C591 0.931 . S
H615 C621 0.930 . S
H616 C654 0.930 . S
H617 C598 0.930 . S
H618 C653 0.931 . S
N619 Eu588 2.657 . S
N619 C620 1.334 . S
N619 C624 1.362 . S
C620 H612 0.929 . S
C620 N619 1.334 . S
C620 C623 1.413 . S
C621 H615 0.930 . S
C621 C622 1.392 . S
C621 C623 1.367 . S
C622 C621 1.392 . S
C622 C624 1.420 . S
C622 C654 1.423 . S
C623 H609 0.930 . S
C623 C620 1.413 . S
C623 C621 1.367 . S
C624 N619 1.362 . S
C624 C622 1.420 . S
C624 C628 1.429 . S
H625 C630 0.930 . S
N626 Eu588 2.609 . S
N626 C628 1.377 . S
N626 C629 1.321 . S
C627 H613 0.930 . S
C627 C629 1.400 . S
C627 C630 1.386 . S
C628 C624 1.429 . S
C628 N626 1.377 . S
C628 C631 1.411 . S
C629 H611 0.930 . S
C629 N626 1.321 . S
C629 C627 1.400 . S
C630 H625 0.930 . S
C630 C627 1.386 . S
C630 C631 1.395 . S
C631 C628 1.411 . S
C631 C630 1.395 . S
C631 C653 1.420 . S
O632 Eu588 2.558 . S
O632 C652 1.257 . S
O633 Eu588 2.612 . S
O633 Eu599 2.380 . S
O633 C644 1.276 . S
O634 Eu599 2.432 . S
O634 C651 1.264 . S
O635 Eu588 2.339 . S
O635 C651 1.254 . S
O636 Eu588 2.563 . S
O636 C644 1.235 . S
O637 Eu588 2.419 . S
O637 C652 1.249 . S
O638 Eu599 2.558 . S
O638 C663 1.257 . S
O639 Eu588 2.380 . S
O639 Eu599 2.612 . S
O639 C655 1.276 . S
O640 Eu588 2.432 . S
O640 C662 1.264 . S
O641 Eu599 2.339 . S
O641 C662 1.254 . S
O642 Eu599 2.563 . S
O642 C655 1.235 . S
O643 Eu599 2.419 . S
O643 C663 1.249 . S
C644 O633 1.276 . S
C644 O636 1.235 . S
C645 C647 1.393 . S
C645 C649 1.395 . S
C645 C652 1.492 . S
C646 C647 1.392 . S
C646 C648 1.386 . S
C647 C645 1.393 . S
C647 C646 1.392 . S
C647 H664 0.930 . S
C648 C646 1.386 . S
C648 C650 1.395 . S
C648 H665 0.930 . S
C649 C645 1.395 . S
C649 C650 1.379 . S
C649 H666 0.930 . S
C650 C648 1.395 . S
C650 C649 1.379 . S
C650 H667 0.930 . S
C651 O634 1.264 . S
C651 O635 1.254 . S
C652 Eu588 2.848 . S
C652 O632 1.257 . S
C652 O637 1.249 . S
C652 C645 1.492 . S
C653 H618 0.931 . S
C653 C631 1.420 . S
C653 C654 1.351 . S
C654 H616 0.930 . S
C654 C622 1.423 . S
C654 C653 1.351 . S
C655 O639 1.276 . S
C655 O642 1.235 . S
C656 C657 1.393 . S
C656 C660 1.395 . S
C656 C663 1.492 . S
C657 C656 1.393 . S
C657 C658 1.392 . S
C657 H668 0.930 . S
C658 C657 1.392 . S
C658 C659 1.386 . S
C659 C658 1.386 . S
C659 C661 1.395 . S
C659 H669 0.930 . S
C660 C656 1.395 . S
C660 C661 1.379 . S
C660 H670 0.930 . S
C661 C659 1.395 . S
C661 C660 1.379 . S
C661 H671 0.930 . S
C662 O640 1.264 . S
C662 O641 1.254 . S
C663 Eu599 2.848 . S
C663 O638 1.257 . S
C663 O643 1.249 . S
C663 C656 1.492 . S
H664 C647 0.930 . S
H665 C648 0.930 . S
H666 C649 0.930 . S
H667 C650 0.930 . S
H668 C657 0.930 . S
H669 C659 0.930 . S
H670 C660 0.930 . S
H671 C661 0.930 . S
Eu672 N703 2.657 . S
Eu672 N710 2.609 . S
Eu672 O716 2.558 . S
Eu672 O717 2.612 . S
Eu672 O719 2.339 . S
Eu672 O720 2.563 . S
Eu672 O721 2.419 . S
Eu672 O723 2.380 . S
Eu672 O724 2.432 . S
Eu672 C736 2.848 1_554 S
C673 C676 1.429 . S
C673 C677 1.411 . S
C673 N680 1.377 . S
C674 C676 1.420 . S
C674 C678 1.423 . S
C674 C686 1.392 . S
C675 C677 1.420 . S
C675 C678 1.351 . S
C675 H698 0.931 . S
C676 C673 1.429 . S
C676 C674 1.420 . S
C676 N684 1.362 . S
C677 C673 1.411 . S
C677 C675 1.420 . S
C677 C682 1.395 . S
C678 C674 1.423 . S
C678 C675 1.351 . S
C678 H690 0.930 . S
C679 C681 1.400 . S
C679 C682 1.386 . S
C679 H691 0.930 . S
N680 C673 1.377 . S
N680 C681 1.321 . S
N680 Eu683 2.609 . S
C681 C679 1.400 . S
C681 N680 1.321 . S
C681 H688 0.930 . S
C682 C677 1.395 . S
C682 C679 1.386 . S
C682 H701 0.930 . S
Eu683 N680 2.609 . S
Eu683 N684 2.657 . S
Eu683 O717 2.380 . S
Eu683 O718 2.432 . S
Eu683 O722 2.558 . S
Eu683 O723 2.612 . S
Eu683 O725 2.339 . S
Eu683 O726 2.563 . S
Eu683 O727 2.419 . S
Eu683 C747 2.848 . S
N684 C676 1.362 . S
N684 Eu683 2.657 . S
N684 C685 1.334 . S
C685 N684 1.334 . S
C685 C687 1.413 . S
C685 H692 0.929 . S
C686 C674 1.392 . S
C686 C687 1.367 . S
C686 H694 0.930 . S
C687 C685 1.413 . S
C687 C686 1.367 . S
C687 H689 0.930 . S
H688 C681 0.930 . S
H689 C687 0.930 . S
H690 C678 0.930 . S
H691 C679 0.930 . S
H692 C685 0.929 . S
H693 C707 0.930 . S
H694 C686 0.930 . S
H695 C713 0.930 . S
H696 C704 0.929 . S
H697 C711 0.930 . S
H698 C675 0.931 . S
H699 C705 0.930 . S
H700 C738 0.930 . S
H701 C682 0.930 . S
H702 C737 0.931 . S
N703 Eu672 2.657 . S
N703 C704 1.334 . S
N703 C708 1.362 . S
C704 H696 0.929 . S
C704 N703 1.334 . S
C704 C707 1.413 . S
C705 H699 0.930 . S
C705 C706 1.392 . S
C705 C707 1.367 . S
C706 C705 1.392 . S
C706 C708 1.420 . S
C706 C738 1.423 . S
C707 H693 0.930 . S
C707 C704 1.413 . S
C707 C705 1.367 . S
C708 N703 1.362 . S
C708 C706 1.420 . S
C708 C712 1.429 . S
H709 C714 0.930 . S
N710 Eu672 2.609 . S
N710 C712 1.377 . S
N710 C713 1.321 . S
C711 H697 0.930 . S
C711 C713 1.400 . S
C711 C714 1.386 . S
C712 C708 1.429 . S
C712 N710 1.377 . S
C712 C715 1.411 . S
C713 H695 0.930 . S
C713 N710 1.321 . S
C713 C711 1.400 . S
C714 H709 0.930 . S
C714 C711 1.386 . S
C714 C715 1.395 . S
C715 C712 1.411 . S
C715 C714 1.395 . S
C715 C737 1.420 . S
O716 Eu672 2.558 . S
O716 C736 1.257 1_554 S
O717 Eu672 2.612 . S
O717 Eu683 2.380 . S
O717 C728 1.276 . S
O718 Eu683 2.432 . S
O718 C735 1.264 . S
O719 Eu672 2.339 . S
O719 C735 1.254 . S
O720 Eu672 2.563 . S
O720 C728 1.235 . S
O721 Eu672 2.419 . S
O721 C736 1.249 1_554 S
O722 Eu683 2.558 . S
O722 C747 1.257 . S
O723 Eu672 2.380 . S
O723 Eu683 2.612 . S
O723 C739 1.276 . S
O724 Eu672 2.432 . S
O724 C746 1.264 . S
O725 Eu683 2.339 . S
O725 C746 1.254 . S
O726 Eu683 2.563 . S
O726 C739 1.235 . S
O727 Eu683 2.419 . S
O727 C747 1.249 . S
C728 O717 1.276 . S
C728 O720 1.235 . S
C729 C731 1.393 . S
C729 C733 1.395 . S
C729 C736 1.492 . S
C730 C731 1.392 . S
C730 C732 1.386 . S
C731 C729 1.393 . S
C731 C730 1.392 . S
C731 H748 0.930 . S
C732 C730 1.386 . S
C732 C734 1.395 . S
C732 H749 0.930 . S
C733 C729 1.395 . S
C733 C734 1.379 . S
C733 H750 0.930 . S
C734 C732 1.395 . S
C734 C733 1.379 . S
C734 H751 0.930 . S
C735 O718 1.264 . S
C735 O719 1.254 . S
C736 Eu672 2.848 1_556 S
C736 O716 1.257 1_556 S
C736 O721 1.249 1_556 S
C736 C729 1.492 . S
C737 H702 0.931 . S
C737 C715 1.420 . S
C737 C738 1.351 . S
C738 H700 0.930 . S
C738 C706 1.423 . S
C738 C737 1.351 . S
C739 O723 1.276 . S
C739 O726 1.235 . S
C740 C741 1.393 . S
C740 C744 1.395 . S
C740 C747 1.492 . S
C741 C740 1.393 . S
C741 C742 1.392 . S
C741 H752 0.930 . S
C742 C741 1.392 . S
C742 C743 1.386 . S
C743 C742 1.386 . S
C743 C745 1.395 . S
C743 H753 0.930 . S
C744 C740 1.395 . S
C744 C745 1.379 . S
C744 H754 0.930 . S
C745 C743 1.395 . S
C745 C744 1.379 . S
C745 H755 0.930 . S
C746 O724 1.264 . S
C746 O725 1.254 . S
C747 Eu683 2.848 . S
C747 O722 1.257 . S
C747 O727 1.249 . S
C747 C740 1.492 . S
H748 C731 0.930 . S
H749 C732 0.930 . S
H750 C733 0.930 . S
H751 C734 0.930 . S
H752 C741 0.930 . S
H753 C743 0.930 . S
H754 C744 0.930 . S
H755 C745 0.930 . S
Eu756 N787 2.657 . S
Eu756 N794 2.609 . S
Eu756 O800 2.558 . S
Eu756 O801 2.612 . S
Eu756 O803 2.339 . S
Eu756 O804 2.563 . S
Eu756 O805 2.419 . S
Eu756 O807 2.380 . S
Eu756 O808 2.432 . S
Eu756 C820 2.848 . S
C757 C760 1.429 . S
C757 C761 1.411 . S
C757 N764 1.377 . S
C758 C760 1.420 . S
C758 C762 1.423 . S
C758 C770 1.392 . S
C759 C761 1.420 . S
C759 C762 1.351 . S
C759 H782 0.931 . S
C760 C757 1.429 . S
C760 C758 1.420 . S
C760 N768 1.362 . S
C761 C757 1.411 . S
C761 C759 1.420 . S
C761 C766 1.395 . S
C762 C758 1.423 . S
C762 C759 1.351 . S
C762 H774 0.930 . S
C763 C765 1.400 . S
C763 C766 1.386 . S
C763 H775 0.930 . S
N764 C757 1.377 . S
N764 C765 1.321 . S
N764 Eu767 2.609 . S
C765 C763 1.400 . S
C765 N764 1.321 . S
C765 H772 0.930 . S
C766 C761 1.395 . S
C766 C763 1.386 . S
C766 H785 0.930 . S
Eu767 N764 2.609 . S
Eu767 N768 2.657 . S
Eu767 O801 2.380 . S
Eu767 O802 2.432 . S
Eu767 O806 2.558 . S
Eu767 O807 2.612 . S
Eu767 O809 2.339 . S
Eu767 O810 2.563 . S
Eu767 O811 2.419 . S
Eu767 C831 2.848 . S
N768 C760 1.362 . S
N768 Eu767 2.657 . S
N768 C769 1.334 . S
C769 N768 1.334 . S
C769 C771 1.413 . S
C769 H776 0.929 . S
C770 C758 1.392 . S
C770 C771 1.367 . S
C770 H778 0.930 . S
C771 C769 1.413 . S
C771 C770 1.367 . S
C771 H773 0.930 . S
H772 C765 0.930 . S
H773 C771 0.930 . S
H774 C762 0.930 . S
H775 C763 0.930 . S
H776 C769 0.929 . S
H777 C791 0.930 . S
H778 C770 0.930 . S
H779 C797 0.930 . S
H780 C788 0.929 . S
H781 C795 0.930 . S
H782 C759 0.931 . S
H783 C789 0.930 . S
H784 C822 0.930 . S
H785 C766 0.930 . S
H786 C821 0.931 . S
N787 Eu756 2.657 . S
N787 C788 1.334 . S
N787 C792 1.362 . S
C788 H780 0.929 . S
C788 N787 1.334 . S
C788 C791 1.413 . S
C789 H783 0.930 . S
C789 C790 1.392 . S
C789 C791 1.367 . S
C790 C789 1.392 . S
C790 C792 1.420 . S
C790 C822 1.423 . S
C791 H777 0.930 . S
C791 C788 1.413 . S
C791 C789 1.367 . S
C792 N787 1.362 . S
C792 C790 1.420 . S
C792 C796 1.429 . S
H793 C798 0.930 . S
N794 Eu756 2.609 . S
N794 C796 1.377 . S
N794 C797 1.321 . S
C795 H781 0.930 . S
C795 C797 1.400 . S
C795 C798 1.386 . S
C796 C792 1.429 . S
C796 N794 1.377 . S
C796 C799 1.411 . S
C797 H779 0.930 . S
C797 N794 1.321 . S
C797 C795 1.400 . S
C798 H793 0.930 . S
C798 C795 1.386 . S
C798 C799 1.395 . S
C799 C796 1.411 . S
C799 C798 1.395 . S
C799 C821 1.420 . S
O800 Eu756 2.558 . S
O800 C820 1.257 . S
O801 Eu756 2.612 . S
O801 Eu767 2.380 . S
O801 C812 1.276 . S
O802 Eu767 2.432 . S
O802 C819 1.264 . S
O803 Eu756 2.339 . S
O803 C819 1.254 . S
O804 Eu756 2.563 . S
O804 C812 1.235 . S
O805 Eu756 2.419 . S
O805 C820 1.249 . S
O806 Eu767 2.558 . S
O806 C831 1.257 . S
O807 Eu756 2.380 . S
O807 Eu767 2.612 . S
O807 C823 1.276 . S
O808 Eu756 2.432 . S
O808 C830 1.264 . S
O809 Eu767 2.339 . S
O809 C830 1.254 . S
O810 Eu767 2.563 . S
O810 C823 1.235 . S
O811 Eu767 2.419 . S
O811 C831 1.249 . S
C812 O801 1.276 . S
C812 O804 1.235 . S
C813 C815 1.393 . S
C813 C817 1.395 . S
C813 C820 1.492 . S
C814 C815 1.392 . S
C814 C816 1.386 . S
C815 C813 1.393 . S
C815 C814 1.392 . S
C815 H832 0.930 . S
C816 C814 1.386 . S
C816 C818 1.395 . S
C816 H833 0.930 . S
C817 C813 1.395 . S
C817 C818 1.379 . S
C817 H834 0.930 . S
C818 C816 1.395 . S
C818 C817 1.379 . S
C818 H835 0.930 . S
C819 O802 1.264 . S
C819 O803 1.254 . S
C820 Eu756 2.848 . S
C820 O800 1.257 . S
C820 O805 1.249 . S
C820 C813 1.492 . S
C821 H786 0.931 . S
C821 C799 1.420 . S
C821 C822 1.351 . S
C822 H784 0.930 . S
C822 C790 1.423 . S
C822 C821 1.351 . S
C823 O807 1.276 . S
C823 O810 1.235 . S
C824 C825 1.393 . S
C824 C828 1.395 . S
C824 C831 1.492 . S
C825 C824 1.393 . S
C825 C826 1.392 . S
C825 H836 0.930 . S
C826 C825 1.392 . S
C826 C827 1.386 . S
C827 C826 1.386 . S
C827 C829 1.395 . S
C827 H837 0.930 . S
C828 C824 1.395 . S
C828 C829 1.379 . S
C828 H838 0.930 . S
C829 C827 1.395 . S
C829 C828 1.379 . S
C829 H839 0.930 . S
C830 O808 1.264 . S
C830 O809 1.254 . S
C831 Eu767 2.848 . S
C831 O806 1.257 . S
C831 O811 1.249 . S
C831 C824 1.492 . S
H832 C815 0.930 . S
H833 C816 0.930 . S
H834 C817 0.930 . S
H835 C818 0.930 . S
H836 C825 0.930 . S
H837 C827 0.930 . S
H838 C828 0.930 . S
H839 C829 0.930 . S
Eu840 N871 2.657 . S
Eu840 N878 2.609 . S
Eu840 O884 2.558 . S
Eu840 O885 2.612 . S
Eu840 O887 2.339 . S
Eu840 O888 2.563 . S
Eu840 O889 2.419 . S
Eu840 O891 2.380 . S
Eu840 O892 2.432 . S
Eu840 C904 2.848 . S
C841 C844 1.429 . S
C841 C845 1.411 . S
C841 N848 1.377 . S
C842 C844 1.420 . S
C842 C846 1.423 . S
C842 C854 1.392 . S
C843 C845 1.420 . S
C843 C846 1.351 . S
C843 H866 0.931 . S
C844 C841 1.429 . S
C844 C842 1.420 . S
C844 N852 1.362 . S
C845 C841 1.411 . S
C845 C843 1.420 . S
C845 C850 1.395 . S
C846 C842 1.423 . S
C846 C843 1.351 . S
C846 H858 0.930 . S
C847 C849 1.400 . S
C847 C850 1.386 . S
C847 H859 0.930 . S
N848 C841 1.377 . S
N848 C849 1.321 . S
N848 Eu851 2.609 . S
C849 C847 1.400 . S
C849 N848 1.321 . S
C849 H856 0.930 . S
C850 C845 1.395 . S
C850 C847 1.386 . S
C850 H869 0.930 . S
Eu851 N848 2.609 . S
Eu851 N852 2.657 . S
Eu851 O885 2.380 . S
Eu851 O886 2.432 . S
Eu851 O890 2.558 . S
Eu851 O891 2.612 . S
Eu851 O893 2.339 . S
Eu851 O894 2.563 . S
Eu851 O895 2.419 . S
Eu851 C915 2.848 . S
N852 C844 1.362 . S
N852 Eu851 2.657 . S
N852 C853 1.334 . S
C853 N852 1.334 . S
C853 C855 1.413 . S
C853 H860 0.929 . S
C854 C842 1.392 . S
C854 C855 1.367 . S
C854 H862 0.930 . S
C855 C853 1.413 . S
C855 C854 1.367 . S
C855 H857 0.930 . S
H856 C849 0.930 . S
H857 C855 0.930 . S
H858 C846 0.930 . S
H859 C847 0.930 . S
H860 C853 0.929 . S
H861 C875 0.930 . S
H862 C854 0.930 . S
H863 C881 0.930 . S
H864 C872 0.929 . S
H865 C879 0.930 . S
H866 C843 0.931 . S
H867 C873 0.930 . S
H868 C906 0.930 . S
H869 C850 0.930 . S
H870 C905 0.931 . S
N871 Eu840 2.657 . S
N871 C872 1.334 . S
N871 C876 1.362 . S
C872 H864 0.929 . S
C872 N871 1.334 . S
C872 C875 1.413 . S
C873 H867 0.930 . S
C873 C874 1.392 . S
C873 C875 1.367 . S
C874 C873 1.392 . S
C874 C876 1.420 . S
C874 C906 1.423 . S
C875 H861 0.930 . S
C875 C872 1.413 . S
C875 C873 1.367 . S
C876 N871 1.362 . S
C876 C874 1.420 . S
C876 C880 1.429 . S
H877 C882 0.930 . S
N878 Eu840 2.609 . S
N878 C880 1.377 . S
N878 C881 1.321 . S
C879 H865 0.930 . S
C879 C881 1.400 . S
C879 C882 1.386 . S
C880 C876 1.429 . S
C880 N878 1.377 . S
C880 C883 1.411 . S
C881 H863 0.930 . S
C881 N878 1.321 . S
C881 C879 1.400 . S
C882 H877 0.930 . S
C882 C879 1.386 . S
C882 C883 1.395 . S
C883 C880 1.411 . S
C883 C882 1.395 . S
C883 C905 1.420 . S
O884 Eu840 2.558 . S
O884 C904 1.257 . S
O885 Eu840 2.612 . S
O885 Eu851 2.380 . S
O885 C896 1.276 . S
O886 Eu851 2.432 . S
O886 C903 1.264 . S
O887 Eu840 2.339 . S
O887 C903 1.254 . S
O888 Eu840 2.563 . S
O888 C896 1.235 . S
O889 Eu840 2.419 . S
O889 C904 1.249 . S
O890 Eu851 2.558 . S
O890 C915 1.257 . S
O891 Eu840 2.380 . S
O891 Eu851 2.612 . S
O891 C907 1.276 . S
O892 Eu840 2.432 . S
O892 C914 1.264 . S
O893 Eu851 2.339 . S
O893 C914 1.254 . S
O894 Eu851 2.563 . S
O894 C907 1.235 . S
O895 Eu851 2.419 . S
O895 C915 1.249 . S
C896 O885 1.276 . S
C896 O888 1.235 . S
C897 C899 1.393 . S
C897 C901 1.395 . S
C897 C904 1.492 . S
C898 C899 1.392 . S
C898 C900 1.386 . S
C899 C897 1.393 . S
C899 C898 1.392 . S
C899 H916 0.930 . S
C900 C898 1.386 . S
C900 C902 1.395 . S
C900 H917 0.930 . S
C901 C897 1.395 . S
C901 C902 1.379 . S
C901 H918 0.930 . S
C902 C900 1.395 . S
C902 C901 1.379 . S
C902 H919 0.930 . S
C903 O886 1.264 . S
C903 O887 1.254 . S
C904 Eu840 2.848 . S
C904 O884 1.257 . S
C904 O889 1.249 . S
C904 C897 1.492 . S
C905 H870 0.931 . S
C905 C883 1.420 . S
C905 C906 1.351 . S
C906 H868 0.930 . S
C906 C874 1.423 . S
C906 C905 1.351 . S
C907 O891 1.276 . S
C907 O894 1.235 . S
C908 C909 1.393 . S
C908 C912 1.395 . S
C908 C915 1.492 . S
C909 C908 1.393 . S
C909 C910 1.392 . S
C909 H920 0.930 . S
C910 C909 1.392 . S
C910 C911 1.386 . S
C911 C910 1.386 . S
C911 C913 1.395 . S
C911 H921 0.930 . S
C912 C908 1.395 . S
C912 C913 1.379 . S
C912 H922 0.930 . S
C913 C911 1.395 . S
C913 C912 1.379 . S
C913 H923 0.930 . S
C914 O892 1.264 . S
C914 O893 1.254 . S
C915 Eu851 2.848 . S
C915 O890 1.257 . S
C915 O895 1.249 . S
C915 C908 1.492 . S
H916 C899 0.930 . S
H917 C900 0.930 . S
H918 C901 0.930 . S
H919 C902 0.930 . S
H920 C909 0.930 . S
H921 C911 0.930 . S
H922 C912 0.930 . S
H923 C913 0.930 . S
Eu924 N955 2.657 . S
Eu924 N962 2.609 . S
Eu924 O968 2.558 . S
Eu924 O969 2.612 . S
Eu924 O971 2.339 . S
Eu924 O972 2.563 . S
Eu924 O973 2.419 . S
Eu924 O975 2.380 . S
Eu924 O976 2.432 . S
Eu924 C988 2.848 1_554 S
C925 C928 1.429 . S
C925 C929 1.411 . S
C925 N932 1.377 . S
C926 C928 1.420 . S
C926 C930 1.423 . S
C926 C938 1.392 . S
C927 C929 1.420 . S
C927 C930 1.351 . S
C927 H950 0.931 . S
C928 C925 1.429 . S
C928 C926 1.420 . S
C928 N936 1.362 . S
C929 C925 1.411 . S
C929 C927 1.420 . S
C929 C934 1.395 . S
C930 C926 1.423 . S
C930 C927 1.351 . S
C930 H942 0.930 . S
C931 C933 1.400 . S
C931 C934 1.386 . S
C931 H943 0.930 . S
N932 C925 1.377 . S
N932 C933 1.321 . S
N932 Eu935 2.609 . S
C933 C931 1.400 . S
C933 N932 1.321 . S
C933 H940 0.930 . S
C934 C929 1.395 . S
C934 C931 1.386 . S
C934 H953 0.930 . S
Eu935 N932 2.609 . S
Eu935 N936 2.657 . S
Eu935 O969 2.380 . S
Eu935 O970 2.432 . S
Eu935 O974 2.558 . S
Eu935 O975 2.612 . S
Eu935 O977 2.339 . S
Eu935 O978 2.563 . S
Eu935 O979 2.419 . S
Eu935 C999 2.848 . S
N936 C928 1.362 . S
N936 Eu935 2.657 . S
N936 C937 1.334 . S
C937 N936 1.334 . S
C937 C939 1.413 . S
C937 H944 0.929 . S
C938 C926 1.392 . S
C938 C939 1.367 . S
C938 H946 0.930 . S
C939 C937 1.413 . S
C939 C938 1.367 . S
C939 H941 0.930 . S
H940 C933 0.930 . S
H941 C939 0.930 . S
H942 C930 0.930 . S
H943 C931 0.930 . S
H944 C937 0.929 . S
H945 C959 0.930 . S
H946 C938 0.930 . S
H947 C965 0.930 . S
H948 C956 0.929 . S
H949 C963 0.930 . S
H950 C927 0.931 . S
H951 C957 0.930 . S
H952 C990 0.930 . S
H953 C934 0.930 . S
H954 C989 0.931 . S
N955 Eu924 2.657 . S
N955 C956 1.334 . S
N955 C960 1.362 . S
C956 H948 0.929 . S
C956 N955 1.334 . S
C956 C959 1.413 . S
C957 H951 0.930 . S
C957 C958 1.392 . S
C957 C959 1.367 . S
C958 C957 1.392 . S
C958 C960 1.420 . S
C958 C990 1.423 . S
C959 H945 0.930 . S
C959 C956 1.413 . S
C959 C957 1.367 . S
C960 N955 1.362 . S
C960 C958 1.420 . S
C960 C964 1.429 . S
H961 C966 0.930 . S
N962 Eu924 2.609 . S
N962 C964 1.377 . S
N962 C965 1.321 . S
C963 H949 0.930 . S
C963 C965 1.400 . S
C963 C966 1.386 . S
C964 C960 1.429 . S
C964 N962 1.377 . S
C964 C967 1.411 . S
C965 H947 0.930 . S
C965 N962 1.321 . S
C965 C963 1.400 . S
C966 H961 0.930 . S
C966 C963 1.386 . S
C966 C967 1.395 . S
C967 C964 1.411 . S
C967 C966 1.395 . S
C967 C989 1.420 . S
O968 Eu924 2.558 . S
O968 C988 1.257 1_554 S
O969 Eu924 2.612 . S
O969 Eu935 2.380 . S
O969 C980 1.276 . S
O970 Eu935 2.432 . S
O970 C987 1.264 . S
O971 Eu924 2.339 . S
O971 C987 1.254 . S
O972 Eu924 2.563 . S
O972 C980 1.235 . S
O973 Eu924 2.419 . S
O973 C988 1.249 1_554 S
O974 Eu935 2.558 . S
O974 C999 1.257 . S
O975 Eu924 2.380 . S
O975 Eu935 2.612 . S
O975 C991 1.276 . S
O976 Eu924 2.432 . S
O976 C998 1.264 . S
O977 Eu935 2.339 . S
O977 C998 1.254 . S
O978 Eu935 2.563 . S
O978 C991 1.235 . S
O979 Eu935 2.419 . S
O979 C999 1.249 . S
C980 O969 1.276 . S
C980 O972 1.235 . S
C981 C983 1.393 . S
C981 C985 1.395 . S
C981 C988 1.492 . S
C982 C983 1.392 . S
C982 C984 1.386 . S
C983 C981 1.393 . S
C983 C982 1.392 . S
C983 H1000 0.930 . S
C984 C982 1.386 . S
C984 C986 1.395 . S
C984 H1001 0.930 . S
C985 C981 1.395 . S
C985 C986 1.379 . S
C985 H1002 0.930 . S
C986 C984 1.395 . S
C986 C985 1.379 . S
C986 H1003 0.930 . S
C987 O970 1.264 . S
C987 O971 1.254 . S
C988 Eu924 2.848 1_556 S
C988 O968 1.257 1_556 S
C988 O973 1.249 1_556 S
C988 C981 1.492 . S
C989 H954 0.931 . S
C989 C967 1.420 . S
C989 C990 1.351 . S
C990 H952 0.930 . S
C990 C958 1.423 . S
C990 C989 1.351 . S
C991 O975 1.276 . S
C991 O978 1.235 . S
C992 C993 1.393 . S
C992 C996 1.395 . S
C992 C999 1.492 . S
C993 C992 1.393 . S
C993 C994 1.392 . S
C993 H1004 0.930 . S
C994 C993 1.392 . S
C994 C995 1.386 . S
C995 C994 1.386 . S
C995 C997 1.395 . S
C995 H1005 0.930 . S
C996 C992 1.395 . S
C996 C997 1.379 . S
C996 H1006 0.930 . S
C997 C995 1.395 . S
C997 C996 1.379 . S
C997 H1007 0.930 . S
C998 O976 1.264 . S
C998 O977 1.254 . S
C999 Eu935 2.848 . S
C999 O974 1.257 . S
C999 O979 1.249 . S
C999 C992 1.492 . S
H1000 C983 0.930 . S
H1001 C984 0.930 . S
H1002 C985 0.930 . S
H1003 C986 0.930 . S
H1004 C993 0.930 . S
H1005 C995 0.930 . S
H1006 C996 0.930 . S
H1007 C997 0.930 . S
H1008 C1016 0.929 . S
H1009 C1018 0.930 . S
H1010 C1020 0.930 . S
H1011 C1023 0.929 . S
H1012 C1026 0.930 . S
H1013 C1028 0.960 . S
H1014 C1028 0.960 . S
H1015 C1028 0.960 . S
C1016 H1008 0.929 . S
C1016 C1017 1.377 . S
C1016 C1018 1.384 . S
C1017 C1016 1.377 . S
C1017 C1023 1.390 . S
C1018 H1009 0.930 . S
C1018 C1016 1.384 . S
C1018 C1019 1.372 . S
C1019 C1018 1.372 . S
C1019 C1020 1.400 . S
C1019 C1024 1.490 . S
C1020 H1010 0.930 . S
C1020 C1019 1.400 . S
C1020 C1023 1.386 . S
H1021 C1037 0.930 . S
H1022 C1038 0.931 . S
C1023 H1011 0.929 . S
C1023 C1017 1.390 . S
C1023 C1020 1.386 . S
C1024 C1019 1.490 . S
C1024 C1026 1.395 . S
C1024 C1027 1.403 . S
H1025 C1031 0.930 . S
C1026 H1012 0.930 . S
C1026 C1024 1.395 . S
C1026 C1029 1.403 . S
C1027 C1024 1.403 . S
C1027 C1028 1.524 . S
C1027 C1031 1.400 . S
C1028 H1013 0.960 . S
C1028 H1014 0.960 . S
C1028 H1015 0.960 . S
C1028 C1027 1.524 . S
C1029 C1026 1.403 . S
C1029 C1030 1.392 . S
C1029 C1033 1.495 . S
C1030 C1029 1.392 . S
C1030 C1031 1.385 . S
C1030 C1032 1.478 . S
C1031 H1025 0.930 . S
C1031 C1027 1.400 . S
C1031 C1030 1.385 . S
C1032 C1030 1.478 . S
C1032 C1034 1.381 . S
C1032 C1038 1.383 . S
C1033 C1029 1.495 . S
C1033 H1039 0.959 . S
C1033 H1040 0.961 . S
C1033 H1041 0.960 . S
C1034 C1032 1.381 . S
C1034 C1035 1.394 . S
C1034 H1042 0.930 . S
C1035 C1034 1.394 . S
C1035 C1036 1.383 . S
C1035 H1043 0.929 . S
C1036 C1035 1.383 . S
C1036 C1037 1.377 . S
C1037 H1021 0.930 . S
C1037 C1036 1.377 . S
C1037 C1038 1.379 . S
C1038 H1022 0.931 . S
C1038 C1032 1.383 . S
C1038 C1037 1.379 . S
H1039 C1033 0.959 . S
H1040 C1033 0.961 . S
H1041 C1033 0.960 . S
H1042 C1034 0.930 . S
H1043 C1035 0.929 . S
H1044 C1052 0.929 . S
H1045 C1054 0.930 . S
H1046 C1056 0.930 . S
H1047 C1059 0.929 . S
H1048 C1062 0.930 . S
H1049 C1064 0.960 . S
H1050 C1064 0.960 . S
H1051 C1064 0.960 . S
C1052 H1044 0.929 . S
C1052 C1053 1.377 . S
C1052 C1054 1.384 . S
C1053 C1052 1.377 . S
C1053 C1059 1.390 . S
C1054 H1045 0.930 . S
C1054 C1052 1.384 . S
C1054 C1055 1.372 . S
C1055 C1054 1.372 . S
C1055 C1056 1.400 . S
C1055 C1060 1.490 . S
C1056 H1046 0.930 . S
C1056 C1055 1.400 . S
C1056 C1059 1.386 . S
H1057 C1073 0.930 . S
H1058 C1074 0.931 . S
C1059 H1047 0.929 . S
C1059 C1053 1.390 . S
C1059 C1056 1.386 . S
C1060 C1055 1.490 . S
C1060 C1062 1.395 . S
C1060 C1063 1.403 . S
H1061 C1067 0.930 . S
C1062 H1048 0.930 . S
C1062 C1060 1.395 . S
C1062 C1065 1.403 . S
C1063 C1060 1.403 . S
C1063 C1064 1.524 . S
C1063 C1067 1.400 . S
C1064 H1049 0.960 . S
C1064 H1050 0.960 . S
C1064 H1051 0.960 . S
C1064 C1063 1.524 . S
C1065 C1062 1.403 . S
C1065 C1066 1.392 . S
C1065 C1069 1.495 . S
C1066 C1065 1.392 . S
C1066 C1067 1.385 . S
C1066 C1068 1.478 . S
C1067 H1061 0.930 . S
C1067 C1063 1.400 . S
C1067 C1066 1.385 . S
C1068 C1066 1.478 . S
C1068 C1070 1.381 . S
C1068 C1074 1.383 . S
C1069 C1065 1.495 . S
C1069 H1075 0.959 . S
C1069 H1076 0.961 . S
C1069 H1077 0.960 . S
C1070 C1068 1.381 . S
C1070 C1071 1.394 . S
C1070 H1078 0.930 . S
C1071 C1070 1.394 . S
C1071 C1072 1.383 . S
C1071 H1079 0.929 . S
C1072 C1071 1.383 . S
C1072 C1073 1.377 . S
C1073 H1057 0.930 . S
C1073 C1072 1.377 . S
C1073 C1074 1.379 . S
C1074 H1058 0.931 . S
C1074 C1068 1.383 . S
C1074 C1073 1.379 . S
H1075 C1069 0.959 . S
H1076 C1069 0.961 . S
H1077 C1069 0.960 . S
H1078 C1070 0.930 . S
H1079 C1071 0.929 . S
H1080 C1088 0.929 . S
H1081 C1090 0.930 . S
H1082 C1092 0.930 . S
H1083 C1095 0.929 . S
H1084 C1098 0.930 . S
H1085 C1100 0.960 . S
H1086 C1100 0.960 . S
H1087 C1100 0.960 . S
C1088 H1080 0.929 . S
C1088 C1089 1.377 . S
C1088 C1090 1.384 . S
C1089 C1088 1.377 . S
C1089 C1095 1.390 . S
C1090 H1081 0.930 . S
C1090 C1088 1.384 . S
C1090 C1091 1.372 . S
C1091 C1090 1.372 . S
C1091 C1092 1.400 . S
C1091 C1096 1.490 . S
C1092 H1082 0.930 . S
C1092 C1091 1.400 . S
C1092 C1095 1.386 . S
H1093 C1109 0.930 . S
H1094 C1110 0.931 . S
C1095 H1083 0.929 . S
C1095 C1089 1.390 . S
C1095 C1092 1.386 . S
C1096 C1091 1.490 . S
C1096 C1098 1.395 . S
C1096 C1099 1.403 . S
H1097 C1103 0.930 . S
C1098 H1084 0.930 . S
C1098 C1096 1.395 . S
C1098 C1101 1.403 . S
C1099 C1096 1.403 . S
C1099 C1100 1.524 . S
C1099 C1103 1.400 . S
C1100 H1085 0.960 . S
C1100 H1086 0.960 . S
C1100 H1087 0.960 . S
C1100 C1099 1.524 . S
C1101 C1098 1.403 . S
C1101 C1102 1.392 . S
C1101 C1105 1.495 . S
C1102 C1101 1.392 . S
C1102 C1103 1.385 . S
C1102 C1104 1.478 . S
C1103 H1097 0.930 . S
C1103 C1099 1.400 . S
C1103 C1102 1.385 . S
C1104 C1102 1.478 . S
C1104 C1106 1.381 . S
C1104 C1110 1.383 . S
C1105 C1101 1.495 . S
C1105 H1111 0.959 . S
C1105 H1112 0.961 . S
C1105 H1113 0.960 . S
C1106 C1104 1.381 . S
C1106 C1107 1.394 . S
C1106 H1114 0.930 . S
C1107 C1106 1.394 . S
C1107 C1108 1.383 . S
C1107 H1115 0.929 . S
C1108 C1107 1.383 . S
C1108 C1109 1.377 . S
C1109 H1093 0.930 . S
C1109 C1108 1.377 . S
C1109 C1110 1.379 . S
C1110 H1094 0.931 . S
C1110 C1104 1.383 . S
C1110 C1109 1.379 . S
H1111 C1105 0.959 . S
H1112 C1105 0.961 . S
H1113 C1105 0.960 . S
H1114 C1106 0.930 . S
H1115 C1107 0.929 . S
H1116 C1124 0.929 . S
H1117 C1126 0.930 . S
H1118 C1128 0.930 . S
H1119 C1131 0.929 . S
H1120 C1134 0.930 . S
H1121 C1136 0.960 . S
H1122 C1136 0.960 . S
H1123 C1136 0.960 . S
C1124 H1116 0.929 . S
C1124 C1125 1.377 . S
C1124 C1126 1.384 . S
C1125 C1124 1.377 . S
C1125 C1131 1.390 . S
C1126 H1117 0.930 . S
C1126 C1124 1.384 . S
C1126 C1127 1.372 . S
C1127 C1126 1.372 . S
C1127 C1128 1.400 . S
C1127 C1132 1.490 . S
C1128 H1118 0.930 . S
C1128 C1127 1.400 . S
C1128 C1131 1.386 . S
H1129 C1145 0.930 . S
H1130 C1146 0.931 . S
C1131 H1119 0.929 . S
C1131 C1125 1.390 . S
C1131 C1128 1.386 . S
C1132 C1127 1.490 . S
C1132 C1134 1.395 . S
C1132 C1135 1.403 . S
H1133 C1139 0.930 . S
C1134 H1120 0.930 . S
C1134 C1132 1.395 . S
C1134 C1137 1.403 . S
C1135 C1132 1.403 . S
C1135 C1136 1.524 . S
C1135 C1139 1.400 . S
C1136 H1121 0.960 . S
C1136 H1122 0.960 . S
C1136 H1123 0.960 . S
C1136 C1135 1.524 . S
C1137 C1134 1.403 . S
C1137 C1138 1.392 . S
C1137 C1141 1.495 . S
C1138 C1137 1.392 . S
C1138 C1139 1.385 . S
C1138 C1140 1.478 . S
C1139 H1133 0.930 . S
C1139 C1135 1.400 . S
C1139 C1138 1.385 . S
C1140 C1138 1.478 . S
C1140 C1142 1.381 . S
C1140 C1146 1.383 . S
C1141 C1137 1.495 . S
C1141 H1147 0.959 . S
C1141 H1148 0.961 . S
C1141 H1149 0.960 . S
C1142 C1140 1.381 . S
C1142 C1143 1.394 . S
C1142 H1150 0.930 . S
C1143 C1142 1.394 . S
C1143 C1144 1.383 . S
C1143 H1151 0.929 . S
C1144 C1143 1.383 . S
C1144 C1145 1.377 . S
C1145 H1129 0.930 . S
C1145 C1144 1.377 . S
C1145 C1146 1.379 . S
C1146 H1130 0.931 . S
C1146 C1140 1.383 . S
C1146 C1145 1.379 . S
H1147 C1141 0.959 . S
H1148 C1141 0.961 . S
H1149 C1141 0.960 . S
H1150 C1142 0.930 . S
H1151 C1143 0.929 . S
H1152 C1160 0.929 . S
H1153 C1162 0.930 . S
H1154 C1164 0.930 . S
H1155 C1167 0.929 . S
H1156 C1170 0.930 . S
H1157 C1172 0.960 . S
H1158 C1172 0.960 . S
H1159 C1172 0.960 . S
C1160 H1152 0.929 . S
C1160 C1161 1.377 . S
C1160 C1162 1.384 . S
C1161 C1160 1.377 . S
C1161 C1167 1.390 . S
C1162 H1153 0.930 . S
C1162 C1160 1.384 . S
C1162 C1163 1.372 . S
C1163 C1162 1.372 . S
C1163 C1164 1.400 . S
C1163 C1168 1.490 . S
C1164 H1154 0.930 . S
C1164 C1163 1.400 . S
C1164 C1167 1.386 . S
H1165 C1181 0.930 . S
H1166 C1182 0.931 . S
C1167 H1155 0.929 . S
C1167 C1161 1.390 . S
C1167 C1164 1.386 . S
C1168 C1163 1.490 . S
C1168 C1170 1.395 . S
C1168 C1171 1.403 . S
H1169 C1175 0.930 . S
C1170 H1156 0.930 . S
C1170 C1168 1.395 . S
C1170 C1173 1.403 . S
C1171 C1168 1.403 . S
C1171 C1172 1.524 . S
C1171 C1175 1.400 . S
C1172 H1157 0.960 . S
C1172 H1158 0.960 . S
C1172 H1159 0.960 . S
C1172 C1171 1.524 . S
C1173 C1170 1.403 . S
C1173 C1174 1.392 . S
C1173 C1177 1.495 . S
C1174 C1173 1.392 . S
C1174 C1175 1.385 . S
C1174 C1176 1.478 . S
C1175 H1169 0.930 . S
C1175 C1171 1.400 . S
C1175 C1174 1.385 . S
C1176 C1174 1.478 . S
C1176 C1178 1.381 . S
C1176 C1182 1.383 . S
C1177 C1173 1.495 . S
C1177 H1183 0.959 . S
C1177 H1184 0.961 . S
C1177 H1185 0.960 . S
C1178 C1176 1.381 . S
C1178 C1179 1.394 . S
C1178 H1186 0.930 . S
C1179 C1178 1.394 . S
C1179 C1180 1.383 . S
C1179 H1187 0.929 . S
C1180 C1179 1.383 . S
C1180 C1181 1.377 . S
C1181 H1165 0.930 . S
C1181 C1180 1.377 . S
C1181 C1182 1.379 . S
C1182 H1166 0.931 . S
C1182 C1176 1.383 . S
C1182 C1181 1.379 . S
H1183 C1177 0.959 . S
H1184 C1177 0.961 . S
H1185 C1177 0.960 . S
H1186 C1178 0.930 . S
H1187 C1179 0.929 . S
H1188 C1196 0.929 . S
H1189 C1198 0.930 . S
H1190 C1200 0.930 . S
H1191 C1203 0.929 . S
H1192 C1206 0.930 . S
H1193 C1208 0.960 . S
H1194 C1208 0.960 . S
H1195 C1208 0.960 . S
C1196 H1188 0.929 . S
C1196 C1197 1.377 . S
C1196 C1198 1.384 . S
C1197 C1196 1.377 . S
C1197 C1203 1.390 . S
C1198 H1189 0.930 . S
C1198 C1196 1.384 . S
C1198 C1199 1.372 . S
C1199 C1198 1.372 . S
C1199 C1200 1.400 . S
C1199 C1204 1.490 . S
C1200 H1190 0.930 . S
C1200 C1199 1.400 . S
C1200 C1203 1.386 . S
H1201 C1217 0.930 . S
H1202 C1218 0.931 . S
C1203 H1191 0.929 . S
C1203 C1197 1.390 . S
C1203 C1200 1.386 . S
C1204 C1199 1.490 . S
C1204 C1206 1.395 . S
C1204 C1207 1.403 . S
H1205 C1211 0.930 . S
C1206 H1192 0.930 . S
C1206 C1204 1.395 . S
C1206 C1209 1.403 . S
C1207 C1204 1.403 . S
C1207 C1208 1.524 . S
C1207 C1211 1.400 . S
C1208 H1193 0.960 . S
C1208 H1194 0.960 . S
C1208 H1195 0.960 . S
C1208 C1207 1.524 . S
C1209 C1206 1.403 . S
C1209 C1210 1.392 . S
C1209 C1213 1.495 . S
C1210 C1209 1.392 . S
C1210 C1211 1.385 . S
C1210 C1212 1.478 . S
C1211 H1205 0.930 . S
C1211 C1207 1.400 . S
C1211 C1210 1.385 . S
C1212 C1210 1.478 . S
C1212 C1214 1.381 . S
C1212 C1218 1.383 . S
C1213 C1209 1.495 . S
C1213 H1219 0.959 . S
C1213 H1220 0.961 . S
C1213 H1221 0.960 . S
C1214 C1212 1.381 . S
C1214 C1215 1.394 . S
C1214 H1222 0.930 . S
C1215 C1214 1.394 . S
C1215 C1216 1.383 . S
C1215 H1223 0.929 . S
C1216 C1215 1.383 . S
C1216 C1217 1.377 . S
C1217 H1201 0.930 . S
C1217 C1216 1.377 . S
C1217 C1218 1.379 . S
C1218 H1202 0.931 . S
C1218 C1212 1.383 . S
C1218 C1217 1.379 . S
H1219 C1213 0.959 . S
H1220 C1213 0.961 . S
H1221 C1213 0.960 . S
H1222 C1214 0.930 . S
H1223 C1215 0.929 . S
H1224 C1232 0.929 . S
H1225 C1234 0.930 . S
H1226 C1236 0.930 . S
H1227 C1239 0.929 . S
H1228 C1242 0.930 . S
H1229 C1244 0.960 1_554 S
H1230 C1244 0.960 . S
H1231 C1244 0.960 . S
C1232 H1224 0.929 . S
C1232 C1233 1.377 . S
C1232 C1234 1.384 . S
C1233 C1232 1.377 . S
C1233 C1239 1.390 . S
C1234 H1225 0.930 . S
C1234 C1232 1.384 . S
C1234 C1235 1.372 . S
C1235 C1234 1.372 . S
C1235 C1236 1.400 . S
C1235 C1240 1.490 . S
C1236 H1226 0.930 . S
C1236 C1235 1.400 . S
C1236 C1239 1.386 . S
H1237 C1253 0.930 . S
H1238 C1254 0.931 . S
C1239 H1227 0.929 . S
C1239 C1233 1.390 . S
C1239 C1236 1.386 . S
C1240 C1235 1.490 . S
C1240 C1242 1.395 . S
C1240 C1243 1.403 . S
H1241 C1247 0.930 . S
C1242 H1228 0.930 . S
C1242 C1240 1.395 . S
C1242 C1245 1.396 1_556 S
C1243 C1240 1.403 . S
C1243 C1244 1.524 . S
C1243 C1247 1.400 1_556 S
C1244 H1229 0.960 1_556 S
C1244 H1230 0.960 . S
C1244 H1231 0.960 . S
C1244 C1243 1.524 . S
C1245 C1242 1.396 1_554 S
C1245 C1246 1.399 . S
C1245 C1249 1.495 . S
C1246 C1245 1.399 . S
C1246 C1247 1.385 . S
C1246 C1248 1.478 . S
C1247 H1241 0.930 . S
C1247 C1243 1.400 1_554 S
C1247 C1246 1.385 . S
C1248 C1246 1.478 . S
C1248 C1250 1.381 . S
C1248 C1254 1.383 . S
C1249 C1245 1.495 . S
C1249 H1255 0.959 1_554 S
C1249 H1256 0.961 . S
C1249 H1257 0.960 . S
C1250 C1248 1.381 . S
C1250 C1251 1.394 . S
C1250 H1258 0.930 . S
C1251 C1250 1.394 . S
C1251 C1252 1.383 . S
C1251 H1259 0.929 . S
C1252 C1251 1.383 . S
C1252 C1253 1.377 . S
C1253 H1237 0.930 . S
C1253 C1252 1.377 . S
C1253 C1254 1.379 . S
C1254 H1238 0.931 . S
C1254 C1248 1.383 . S
C1254 C1253 1.379 . S
H1255 C1249 0.959 1_556 S
H1256 C1249 0.961 . S
H1257 C1249 0.960 . S
H1258 C1250 0.930 . S
H1259 C1251 0.929 . S
H1260 C1268 0.929 . S
H1261 C1270 0.930 . S
H1262 C1272 0.930 . S
H1263 C1275 0.929 . S
H1264 C1278 0.930 . S
H1265 C1280 0.960 . S
H1266 C1280 0.960 . S
H1267 C1280 0.960 . S
C1268 H1260 0.929 . S
C1268 C1269 1.377 . S
C1268 C1270 1.384 . S
C1269 C1268 1.377 . S
C1269 C1275 1.390 . S
C1270 H1261 0.930 . S
C1270 C1268 1.384 . S
C1270 C1271 1.372 . S
C1271 C1270 1.372 . S
C1271 C1272 1.400 . S
C1271 C1276 1.490 . S
C1272 H1262 0.930 . S
C1272 C1271 1.400 . S
C1272 C1275 1.386 . S
H1273 C1289 0.930 . S
H1274 C1290 0.931 . S
C1275 H1263 0.929 . S
C1275 C1269 1.390 . S
C1275 C1272 1.386 . S
C1276 C1271 1.490 . S
C1276 C1278 1.395 . S
C1276 C1279 1.403 . S
H1277 C1283 0.930 . S
C1278 H1264 0.930 . S
C1278 C1276 1.395 . S
C1278 C1281 1.403 . S
C1279 C1276 1.403 . S
C1279 C1280 1.524 . S
C1279 C1283 1.400 . S
C1280 H1265 0.960 . S
C1280 H1266 0.960 . S
C1280 H1267 0.960 . S
C1280 C1279 1.524 . S
C1281 C1278 1.403 . S
C1281 C1282 1.392 . S
C1281 C1285 1.495 . S
C1282 C1281 1.392 . S
C1282 C1283 1.385 . S
C1282 C1284 1.478 . S
C1283 H1277 0.930 . S
C1283 C1279 1.400 . S
C1283 C1282 1.385 . S
C1284 C1282 1.478 . S
C1284 C1286 1.381 . S
C1284 C1290 1.383 . S
C1285 C1281 1.495 . S
C1285 H1291 0.959 . S
C1285 H1292 0.961 . S
C1285 H1293 0.960 . S
C1286 C1284 1.381 . S
C1286 C1287 1.394 . S
C1286 H1294 0.930 . S
C1287 C1286 1.394 . S
C1287 C1288 1.383 . S
C1287 H1295 0.929 . S
C1288 C1287 1.383 . S
C1288 C1289 1.377 . S
C1289 H1273 0.930 . S
C1289 C1288 1.377 . S
C1289 C1290 1.379 . S
C1290 H1274 0.931 . S
C1290 C1284 1.383 . S
C1290 C1289 1.379 . S
H1291 C1285 0.959 . S
H1292 C1285 0.961 . S
H1293 C1285 0.960 . S
H1294 C1286 0.930 . S
H1295 C1287 0.929 . S
H1296 C1304 0.929 . S
H1297 C1306 0.930 . S
H1298 C1308 0.930 . S
H1299 C1311 0.929 . S
H1300 C1314 0.930 . S
H1301 C1316 0.960 . S
H1302 C1316 0.960 . S
H1303 C1316 0.960 . S
C1304 H1296 0.929 . S
C1304 C1305 1.377 . S
C1304 C1306 1.384 . S
C1305 C1304 1.377 . S
C1305 C1311 1.390 . S
C1306 H1297 0.930 . S
C1306 C1304 1.384 . S
C1306 C1307 1.372 . S
C1307 C1306 1.372 . S
C1307 C1308 1.400 . S
C1307 C1312 1.490 . S
C1308 H1298 0.930 . S
C1308 C1307 1.400 . S
C1308 C1311 1.386 . S
H1309 C1325 0.930 . S
H1310 C1326 0.931 . S
C1311 H1299 0.929 . S
C1311 C1305 1.390 . S
C1311 C1308 1.386 . S
C1312 C1307 1.490 . S
C1312 C1314 1.395 . S
C1312 C1315 1.403 . S
H1313 C1319 0.930 . S
C1314 H1300 0.930 . S
C1314 C1312 1.395 . S
C1314 C1317 1.403 . S
C1315 C1312 1.403 . S
C1315 C1316 1.524 . S
C1315 C1319 1.400 . S
C1316 H1301 0.960 . S
C1316 H1302 0.960 . S
C1316 H1303 0.960 . S
C1316 C1315 1.524 . S
C1317 C1314 1.403 . S
C1317 C1318 1.392 . S
C1317 C1321 1.495 . S
C1318 C1317 1.392 . S
C1318 C1319 1.385 . S
C1318 C1320 1.478 . S
C1319 H1313 0.930 . S
C1319 C1315 1.400 . S
C1319 C1318 1.385 . S
C1320 C1318 1.478 . S
C1320 C1322 1.381 . S
C1320 C1326 1.383 . S
C1321 C1317 1.495 . S
C1321 H1327 0.959 . S
C1321 H1328 0.961 . S
C1321 H1329 0.960 . S
C1322 C1320 1.381 . S
C1322 C1323 1.394 . S
C1322 H1330 0.930 . S
C1323 C1322 1.394 . S
C1323 C1324 1.383 . S
C1323 H1331 0.929 . S
C1324 C1323 1.383 . S
C1324 C1325 1.377 . S
C1325 H1309 0.930 . S
C1325 C1324 1.377 . S
C1325 C1326 1.379 . S
C1326 H1310 0.931 . S
C1326 C1320 1.383 . S
C1326 C1325 1.379 . S
H1327 C1321 0.959 . S
H1328 C1321 0.961 . S
H1329 C1321 0.960 . S
H1330 C1322 0.930 . S
H1331 C1323 0.929 . S
H1332 C1340 0.929 . S
H1333 C1342 0.930 . S
H1334 C1344 0.930 . S
H1335 C1347 0.929 . S
H1336 C1350 0.930 . S
H1337 C1352 0.960 . S
H1338 C1352 0.960 . S
H1339 C1352 0.960 . S
C1340 H1332 0.929 . S
C1340 C1341 1.377 . S
C1340 C1342 1.384 . S
C1341 C1340 1.377 . S
C1341 C1347 1.390 . S
C1342 H1333 0.930 . S
C1342 C1340 1.384 . S
C1342 C1343 1.372 . S
C1343 C1342 1.372 . S
C1343 C1344 1.400 . S
C1343 C1348 1.490 . S
C1344 H1334 0.930 . S
C1344 C1343 1.400 . S
C1344 C1347 1.386 . S
H1345 C1361 0.930 . S
H1346 C1362 0.931 . S
C1347 H1335 0.929 . S
C1347 C1341 1.390 . S
C1347 C1344 1.386 . S
C1348 C1343 1.490 . S
C1348 C1350 1.395 . S
C1348 C1351 1.403 . S
H1349 C1355 0.930 . S
C1350 H1336 0.930 . S
C1350 C1348 1.395 . S
C1350 C1353 1.403 1_556 S
C1351 C1348 1.403 . S
C1351 C1352 1.524 . S
C1351 C1355 1.400 1_556 S
C1352 H1337 0.960 . S
C1352 H1338 0.960 . S
C1352 H1339 0.960 . S
C1352 C1351 1.524 . S
C1353 C1350 1.403 1_554 S
C1353 C1354 1.392 . S
C1353 C1357 1.495 . S
C1354 C1353 1.392 . S
C1354 C1355 1.385 . S
C1354 C1356 1.478 . S
C1355 H1349 0.930 . S
C1355 C1351 1.400 1_554 S
C1355 C1354 1.385 . S
C1356 C1354 1.478 . S
C1356 C1358 1.381 . S
C1356 C1362 1.383 . S
C1357 C1353 1.495 . S
C1357 H1363 0.959 . S
C1357 H1364 0.961 . S
C1357 H1365 0.960 . S
C1358 C1356 1.381 . S
C1358 C1359 1.394 . S
C1358 H1366 0.930 . S
C1359 C1358 1.394 . S
C1359 C1360 1.383 . S
C1359 H1367 0.929 . S
C1360 C1359 1.383 . S
C1360 C1361 1.377 . S
C1361 H1345 0.930 . S
C1361 C1360 1.377 . S
C1361 C1362 1.379 . S
C1362 H1346 0.931 . S
C1362 C1356 1.383 . S
C1362 C1361 1.379 . S
H1363 C1357 0.959 . S
H1364 C1357 0.961 . S
H1365 C1357 0.960 . S
H1366 C1358 0.930 . S
H1367 C1359 0.929 . S
H1368 C1376 0.929 . S
H1369 C1378 0.930 . S
H1370 C1380 0.930 . S
H1371 C1383 0.929 . S
H1372 C1386 0.930 . S
H1373 C1388 0.960 . S
H1374 C1388 0.960 . S
H1375 C1388 0.960 . S
C1376 H1368 0.929 . S
C1376 C1377 1.377 . S
C1376 C1378 1.384 . S
C1377 C1376 1.377 . S
C1377 C1383 1.390 . S
C1378 H1369 0.930 . S
C1378 C1376 1.384 . S
C1378 C1379 1.372 . S
C1379 C1378 1.372 . S
C1379 C1380 1.400 . S
C1379 C1384 1.490 . S
C1380 H1370 0.930 . S
C1380 C1379 1.400 . S
C1380 C1383 1.386 . S
H1381 C1397 0.930 . S
H1382 C1398 0.931 . S
C1383 H1371 0.929 . S
C1383 C1377 1.390 . S
C1383 C1380 1.386 . S
C1384 C1379 1.490 . S
C1384 C1386 1.395 . S
C1384 C1387 1.403 . S
H1385 C1391 0.930 . S
C1386 H1372 0.930 . S
C1386 C1384 1.395 . S
C1386 C1389 1.403 . S
C1387 C1384 1.403 . S
C1387 C1388 1.524 . S
C1387 C1391 1.400 . S
C1388 H1373 0.960 . S
C1388 H1374 0.960 . S
C1388 H1375 0.960 . S
C1388 C1387 1.524 . S
C1389 C1386 1.403 . S
C1389 C1390 1.392 . S
C1389 C1393 1.495 . S
C1390 C1389 1.392 . S
C1390 C1391 1.385 . S
C1390 C1392 1.478 . S
C1391 H1385 0.930 . S
C1391 C1387 1.400 . S
C1391 C1390 1.385 . S
C1392 C1390 1.478 . S
C1392 C1394 1.381 . S
C1392 C1398 1.383 . S
C1393 C1389 1.495 . S
C1393 H1399 0.959 . S
C1393 H1400 0.961 . S
C1393 H1401 0.960 . S
C1394 C1392 1.381 . S
C1394 C1395 1.394 . S
C1394 H1402 0.930 . S
C1395 C1394 1.394 . S
C1395 C1396 1.383 . S
C1395 H1403 0.929 . S
C1396 C1395 1.383 . S
C1396 C1397 1.377 . S
C1397 H1381 0.930 . S
C1397 C1396 1.377 . S
C1397 C1398 1.379 . S
C1398 H1382 0.931 . S
C1398 C1392 1.383 . S
C1398 C1397 1.379 . S
H1399 C1393 0.959 . S
H1400 C1393 0.961 . S
H1401 C1393 0.960 . S
H1402 C1394 0.930 . S
H1403 C1395 0.929 . S
H1404 C1412 0.929 . S
H1405 C1414 0.930 . S
H1406 C1416 0.930 . S
H1407 C1419 0.929 . S
H1408 C1422 0.930 . S
H1409 C1424 0.960 . S
H1410 C1424 0.960 . S
H1411 C1424 0.960 . S
C1412 H1404 0.929 . S
C1412 C1413 1.377 . S
C1412 C1414 1.384 . S
C1413 C1412 1.377 . S
C1413 C1419 1.390 . S
C1414 H1405 0.930 . S
C1414 C1412 1.384 . S
C1414 C1415 1.372 . S
C1415 C1414 1.372 . S
C1415 C1416 1.400 . S
C1415 C1420 1.490 . S
C1416 H1406 0.930 . S
C1416 C1415 1.400 . S
C1416 C1419 1.386 . S
H1417 C1433 0.930 . S
H1418 C1434 0.931 . S
C1419 H1407 0.929 . S
C1419 C1413 1.390 . S
C1419 C1416 1.386 . S
C1420 C1415 1.490 . S
C1420 C1422 1.395 . S
C1420 C1423 1.403 . S
H1421 C1427 0.930 . S
C1422 H1408 0.930 . S
C1422 C1420 1.395 . S
C1422 C1425 1.403 . S
C1423 C1420 1.403 . S
C1423 C1424 1.524 . S
C1423 C1427 1.400 . S
C1424 H1409 0.960 . S
C1424 H1410 0.960 . S
C1424 H1411 0.960 . S
C1424 C1423 1.524 . S
C1425 C1422 1.403 . S
C1425 C1426 1.392 . S
C1425 C1429 1.495 . S
C1426 C1425 1.392 . S
C1426 C1427 1.385 . S
C1426 C1428 1.478 . S
C1427 H1421 0.930 . S
C1427 C1423 1.400 . S
C1427 C1426 1.385 . S
C1428 C1426 1.478 . S
C1428 C1430 1.381 . S
C1428 C1434 1.383 . S
C1429 C1425 1.495 . S
C1429 H1435 0.959 . S
C1429 H1436 0.961 . S
C1429 H1437 0.960 . S
C1430 C1428 1.381 . S
C1430 C1431 1.394 . S
C1430 H1438 0.930 . S
C1431 C1430 1.394 . S
C1431 C1432 1.383 . S
C1431 H1439 0.929 . S
C1432 C1431 1.383 . S
C1432 C1433 1.377 . S
C1433 H1417 0.930 . S
C1433 C1432 1.377 . S
C1433 C1434 1.379 . S
C1434 H1418 0.931 . S
C1434 C1428 1.383 . S
C1434 C1433 1.379 . S
H1435 C1429 0.959 . S
H1436 C1429 0.961 . S
H1437 C1429 0.960 . S
H1438 C1430 0.930 . S
H1439 C1431 0.929 . S
H1440 C1448 0.929 . S
H1441 C1450 0.930 . S
H1442 C1452 0.930 . S
H1443 C1455 0.929 . S
H1444 C1458 0.930 . S
H1445 C1460 0.960 . S
H1446 C1460 0.960 . S
H1447 C1460 0.960 . S
C1448 H1440 0.929 . S
C1448 C1449 1.377 . S
C1448 C1450 1.384 . S
C1449 C1448 1.377 . S
C1449 C1455 1.390 . S
C1450 H1441 0.930 . S
C1450 C1448 1.384 . S
C1450 C1451 1.372 . S
C1451 C1450 1.372 . S
C1451 C1452 1.400 . S
C1451 C1456 1.490 . S
C1452 H1442 0.930 . S
C1452 C1451 1.400 . S
C1452 C1455 1.386 . S
H1453 C1469 0.930 . S
H1454 C1470 0.931 . S
C1455 H1443 0.929 . S
C1455 C1449 1.390 . S
C1455 C1452 1.386 . S
C1456 C1451 1.490 . S
C1456 C1458 1.395 . S
C1456 C1459 1.403 . S
H1457 C1463 0.930 . S
C1458 H1444 0.930 . S
C1458 C1456 1.395 . S
C1458 C1461 1.403 1_566 S
C1459 C1456 1.403 . S
C1459 C1460 1.524 . S
C1459 C1463 1.400 1_566 S
C1460 H1445 0.960 . S
C1460 H1446 0.960 . S
C1460 H1447 0.960 . S
C1460 C1459 1.524 . S
C1461 C1458 1.403 1_544 S
C1461 C1462 1.392 . S
C1461 C1465 1.495 . S
C1462 C1461 1.392 . S
C1462 C1463 1.385 . S
C1462 C1464 1.478 . S
C1463 H1457 0.930 . S
C1463 C1459 1.400 1_544 S
C1463 C1462 1.385 . S
C1464 C1462 1.478 . S
C1464 C1466 1.381 . S
C1464 C1470 1.383 . S
C1465 C1461 1.495 . S
C1465 H1471 0.959 . S
C1465 H1472 0.961 . S
C1465 H1473 0.960 . S
C1466 C1464 1.381 . S
C1466 C1467 1.394 . S
C1466 H1474 0.930 . S
C1467 C1466 1.394 . S
C1467 C1468 1.383 . S
C1467 H1475 0.929 . S
C1468 C1467 1.383 . S
C1468 C1469 1.377 . S
C1469 H1453 0.930 . S
C1469 C1468 1.377 . S
C1469 C1470 1.379 . S
C1470 H1454 0.931 . S
C1470 C1464 1.383 . S
C1470 C1469 1.379 . S
H1471 C1465 0.959 . S
H1472 C1465 0.961 . S
H1473 C1465 0.960 . S
H1474 C1466 0.930 . S
H1475 C1467 0.929 . S
H1476 C1484 0.929 . S
H1477 C1486 0.930 . S
H1478 C1488 0.930 . S
H1479 C1491 0.929 . S
H1480 C1494 0.930 . S
H1481 C1496 0.960 . S
H1482 C1496 0.960 . S
H1483 C1496 0.960 . S
C1484 H1476 0.929 . S
C1484 C1485 1.377 . S
C1484 C1486 1.384 . S
C1485 C1484 1.377 . S
C1485 C1491 1.390 . S
C1486 H1477 0.930 . S
C1486 C1484 1.384 . S
C1486 C1487 1.372 . S
C1487 C1486 1.372 . S
C1487 C1488 1.400 . S
C1487 C1492 1.490 . S
C1488 H1478 0.930 . S
C1488 C1487 1.400 . S
C1488 C1491 1.386 . S
H1489 C1505 0.930 . S
H1490 C1506 0.931 . S
C1491 H1479 0.929 . S
C1491 C1485 1.390 . S
C1491 C1488 1.386 . S
C1492 C1487 1.490 . S
C1492 C1494 1.395 . S
C1492 C1495 1.403 . S
H1493 C1499 0.930 . S
C1494 H1480 0.930 . S
C1494 C1492 1.395 . S
C1494 C1497 1.403 . S
C1495 C1492 1.403 . S
C1495 C1496 1.524 . S
C1495 C1499 1.400 . S
C1496 H1481 0.960 . S
C1496 H1482 0.960 . S
C1496 H1483 0.960 . S
C1496 C1495 1.524 . S
C1497 C1494 1.403 . S
C1497 C1498 1.392 . S
C1497 C1501 1.495 . S
C1498 C1497 1.392 . S
C1498 C1499 1.385 . S
C1498 C1500 1.478 . S
C1499 H1493 0.930 . S
C1499 C1495 1.400 . S
C1499 C1498 1.385 . S
C1500 C1498 1.478 . S
C1500 C1502 1.381 . S
C1500 C1506 1.383 . S
C1501 C1497 1.495 . S
C1501 H1507 0.959 . S
C1501 H1508 0.961 . S
C1501 H1509 0.960 . S
C1502 C1500 1.381 . S
C1502 C1503 1.394 . S
C1502 H1510 0.930 . S
C1503 C1502 1.394 . S
C1503 C1504 1.383 . S
C1503 H1511 0.929 . S
C1504 C1503 1.383 . S
C1504 C1505 1.377 . S
C1505 H1489 0.930 . S
C1505 C1504 1.377 . S
C1505 C1506 1.379 . S
C1506 H1490 0.931 . S
C1506 C1500 1.383 . S
C1506 C1505 1.379 . S
H1507 C1501 0.959 . S
H1508 C1501 0.961 . S
H1509 C1501 0.960 . S
H1510 C1502 0.930 . S
H1511 C1503 0.929 . S
H1512 C1520 0.929 . S
H1513 C1522 0.930 . S
H1514 C1524 0.930 . S
H1515 C1527 0.929 . S
H1516 C1530 0.930 . S
H1517 C1532 0.960 . S
H1518 C1532 0.960 . S
H1519 C1532 0.960 . S
C1520 H1512 0.929 . S
C1520 C1521 1.377 . S
C1520 C1522 1.384 . S
C1521 C1520 1.377 . S
C1521 C1527 1.390 . S
C1522 H1513 0.930 . S
C1522 C1520 1.384 . S
C1522 C1523 1.372 . S
C1523 C1522 1.372 . S
C1523 C1524 1.400 . S
C1523 C1528 1.490 . S
C1524 H1514 0.930 . S
C1524 C1523 1.400 . S
C1524 C1527 1.386 . S
H1525 C1541 0.930 . S
H1526 C1542 0.931 . S
C1527 H1515 0.929 . S
C1527 C1521 1.390 . S
C1527 C1524 1.386 . S
C1528 C1523 1.490 . S
C1528 C1530 1.395 . S
C1528 C1531 1.403 . S
H1529 C1535 0.930 . S
C1530 H1516 0.930 . S
C1530 C1528 1.395 . S
C1530 C1533 1.403 1_455 S
C1531 C1528 1.403 . S
C1531 C1532 1.524 . S
C1531 C1535 1.400 1_455 S
C1532 H1517 0.960 . S
C1532 H1518 0.960 . S
C1532 H1519 0.960 . S
C1532 C1531 1.524 . S
C1533 C1530 1.403 1_655 S
C1533 C1534 1.392 . S
C1533 C1537 1.495 . S
C1534 C1533 1.392 . S
C1534 C1535 1.385 . S
C1534 C1536 1.478 . S
C1535 H1529 0.930 . S
C1535 C1531 1.400 1_655 S
C1535 C1534 1.385 . S
C1536 C1534 1.478 . S
C1536 C1538 1.381 . S
C1536 C1542 1.383 . S
C1537 C1533 1.495 . S
C1537 H1543 0.959 . S
C1537 H1544 0.961 . S
C1537 H1545 0.960 . S
C1538 C1536 1.381 . S
C1538 C1539 1.394 . S
C1538 H1546 0.930 . S
C1539 C1538 1.394 . S
C1539 C1540 1.383 . S
C1539 H1547 0.929 . S
C1540 C1539 1.383 . S
C1540 C1541 1.377 . S
C1541 H1525 0.930 . S
C1541 C1540 1.377 . S
C1541 C1542 1.379 . S
C1542 H1526 0.931 . S
C1542 C1536 1.383 . S
C1542 C1541 1.379 . S
H1543 C1537 0.959 . S
H1544 C1537 0.961 . S
H1545 C1537 0.960 . S
H1546 C1538 0.930 . S
H1547 C1539 0.929 . S
H1548 C1556 0.929 . S
H1549 C1558 0.930 . S
H1550 C1560 0.930 . S
H1551 C1563 0.929 . S
H1552 C1566 0.930 . S
H1553 C1568 0.960 . S
H1554 C1568 0.954 1_554 S
H1555 C1568 0.960 1_554 S
C1556 H1548 0.929 . S
C1556 C1557 1.377 . S
C1556 C1558 1.384 . S
C1557 C1556 1.377 . S
C1557 C1563 1.390 . S
C1558 H1549 0.930 . S
C1558 C1556 1.384 . S
C1558 C1559 1.372 . S
C1559 C1558 1.372 . S
C1559 C1560 1.400 . S
C1559 C1564 1.490 . S
C1560 H1550 0.930 . S
C1560 C1559 1.400 . S
C1560 C1563 1.386 . S
H1561 C1577 0.930 . S
H1562 C1578 0.931 . S
C1563 H1551 0.929 . S
C1563 C1557 1.390 . S
C1563 C1560 1.386 . S
C1564 C1559 1.490 . S
C1564 C1566 1.395 1_565 S
C1564 C1567 1.406 . S
H1565 C1571 0.930 . S
C1566 H1552 0.930 . S
C1566 C1564 1.395 1_545 S
C1566 C1569 1.403 . S
C1567 C1564 1.406 . S
C1567 C1568 1.523 1_554 S
C1567 C1571 1.397 1_554 S
C1568 H1553 0.960 . S
C1568 H1554 0.954 1_556 S
C1568 H1555 0.960 1_556 S
C1568 C1567 1.523 1_556 S
C1569 C1566 1.403 . S
C1569 C1570 1.392 1_554 S
C1569 C1573 1.495 . S
C1570 C1569 1.392 1_556 S
C1570 C1571 1.385 1_545 S
C1570 C1572 1.478 . S
C1571 H1565 0.930 . S
C1571 C1567 1.397 1_556 S
C1571 C1570 1.385 1_565 S
C1572 C1570 1.478 . S
C1572 C1574 1.381 . S
C1572 C1578 1.383 . S
C1573 C1569 1.495 . S
C1573 H1579 0.959 . S
C1573 H1580 0.959 1_554 S
C1573 H1581 0.960 1_554 S
C1574 C1572 1.381 . S
C1574 C1575 1.394 . S
C1574 H1582 0.930 . S
C1575 C1574 1.394 . S
C1575 C1576 1.383 . S
C1575 H1583 0.929 . S
C1576 C1575 1.383 . S
C1576 C1577 1.377 . S
C1577 H1561 0.930 . S
C1577 C1576 1.377 . S
C1577 C1578 1.379 . S
C1578 H1562 0.931 . S
C1578 C1572 1.383 . S
C1578 C1577 1.379 . S
H1579 C1573 0.959 . S
H1580 C1573 0.959 1_556 S
H1581 C1573 0.960 1_556 S
H1582 C1574 0.930 . S
H1583 C1575 0.929 . S
H1584 C1592 0.929 . S
H1585 C1594 0.930 . S
H1586 C1596 0.930 . S
H1587 C1599 0.929 . S
H1588 C1602 0.930 . S
H1589 C1604 0.960 . S
H1590 C1604 0.960 . S
H1591 C1604 0.960 . S
C1592 H1584 0.929 . S
C1592 C1593 1.377 . S
C1592 C1594 1.384 . S
C1593 C1592 1.377 . S
C1593 C1599 1.390 . S
C1594 H1585 0.930 . S
C1594 C1592 1.384 . S
C1594 C1595 1.372 . S
C1595 C1594 1.372 . S
C1595 C1596 1.400 . S
C1595 C1600 1.490 . S
C1596 H1586 0.930 . S
C1596 C1595 1.400 . S
C1596 C1599 1.386 . S
H1597 C1613 0.930 . S
H1598 C1614 0.931 . S
C1599 H1587 0.929 . S
C1599 C1593 1.390 . S
C1599 C1596 1.386 . S
C1600 C1595 1.490 . S
C1600 C1602 1.395 . S
C1600 C1603 1.403 . S
H1601 C1607 0.930 . S
C1602 H1588 0.930 . S
C1602 C1600 1.395 . S
C1602 C1605 1.403 . S
C1603 C1600 1.403 . S
C1603 C1604 1.524 . S
C1603 C1607 1.400 . S
C1604 H1589 0.960 . S
C1604 H1590 0.960 . S
C1604 H1591 0.960 . S
C1604 C1603 1.524 . S
C1605 C1602 1.403 . S
C1605 C1606 1.392 . S
C1605 C1609 1.495 . S
C1606 C1605 1.392 . S
C1606 C1607 1.385 . S
C1606 C1608 1.478 . S
C1607 H1601 0.930 . S
C1607 C1603 1.400 . S
C1607 C1606 1.385 . S
C1608 C1606 1.478 . S
C1608 C1610 1.381 . S
C1608 C1614 1.383 . S
C1609 C1605 1.495 . S
C1609 H1615 0.959 . S
C1609 H1616 0.961 . S
C1609 H1617 0.960 . S
C1610 C1608 1.381 . S
C1610 C1611 1.394 . S
C1610 H1618 0.930 . S
C1611 C1610 1.394 . S
C1611 C1612 1.383 . S
C1611 H1619 0.929 . S
C1612 C1611 1.383 . S
C1612 C1613 1.377 . S
C1613 H1597 0.930 . S
C1613 C1612 1.377 . S
C1613 C1614 1.379 . S
C1614 H1598 0.931 . S
C1614 C1608 1.383 . S
C1614 C1613 1.379 . S
H1615 C1609 0.959 . S
H1616 C1609 0.961 . S
H1617 C1609 0.960 . S
H1618 C1610 0.930 . S
H1619 C1611 0.929 . S
H1620 C1628 0.929 . S
H1621 C1630 0.930 1_655 S
H1622 C1632 0.930 . S
H1623 C1635 0.929 . S
H1624 C1638 0.930 . S
H1625 C1640 0.960 . S
H1626 C1640 0.960 . S
H1627 C1640 0.960 . S
C1628 H1620 0.929 . S
C1628 C1629 1.377 . S
C1628 C1630 1.384 . S
C1629 C1628 1.377 . S
C1629 C1635 1.390 . S
C1630 H1621 0.930 1_455 S
C1630 C1628 1.384 . S
C1630 C1631 1.372 . S
C1631 C1630 1.372 . S
C1631 C1632 1.400 . S
C1631 C1636 1.490 . S
C1632 H1622 0.930 . S
C1632 C1631 1.400 . S
C1632 C1635 1.386 . S
H1633 C1649 0.930 . S
H1634 C1650 0.931 . S
C1635 H1623 0.929 . S
C1635 C1629 1.390 . S
C1635 C1632 1.386 . S
C1636 C1631 1.490 . S
C1636 C1638 1.395 1_455 S
C1636 C1639 1.403 . S
H1637 C1643 0.931 1_455 S
C1638 H1624 0.930 . S
C1638 C1636 1.395 1_655 S
C1638 C1641 1.403 . S
C1639 C1636 1.403 . S
C1639 C1640 1.524 . S
C1639 C1643 1.400 1_455 S
C1640 H1625 0.960 . S
C1640 H1626 0.960 . S
C1640 H1627 0.960 . S
C1640 C1639 1.524 . S
C1641 C1638 1.403 . S
C1641 C1642 1.392 . S
C1641 C1645 1.495 . S
C1642 C1641 1.392 . S
C1642 C1643 1.384 . S
C1642 C1644 1.478 . S
C1643 H1637 0.931 1_655 S
C1643 C1639 1.400 1_655 S
C1643 C1642 1.384 . S
C1644 C1642 1.478 . S
C1644 C1646 1.381 . S
C1644 C1650 1.383 . S
C1645 C1641 1.495 . S
C1645 H1651 0.959 . S
C1645 H1652 0.961 . S
C1645 H1653 0.960 . S
C1646 C1644 1.381 . S
C1646 C1647 1.394 . S
C1646 H1654 0.930 . S
C1647 C1646 1.394 . S
C1647 C1648 1.383 . S
C1647 H1655 0.929 . S
C1648 C1647 1.383 . S
C1648 C1649 1.377 . S
C1649 H1633 0.930 . S
C1649 C1648 1.377 . S
C1649 C1650 1.379 . S
C1650 H1634 0.931 . S
C1650 C1644 1.383 . S
C1650 C1649 1.379 . S
H1651 C1645 0.959 . S
H1652 C1645 0.961 . S
H1653 C1645 0.960 . S
H1654 C1646 0.930 . S
H1655 C1647 0.929 . S
H1656 C1664 0.929 . S
H1657 C1666 0.930 . S
H1658 C1668 0.930 . S
H1659 C1671 0.929 . S
H1660 C1674 0.930 . S
H1661 C1676 0.960 . S
H1662 C1676 0.960 . S
H1663 C1676 0.960 1_545 S
C1664 H1656 0.929 . S
C1664 C1665 1.377 . S
C1664 C1666 1.384 . S
C1665 C1664 1.377 . S
C1665 C1671 1.390 . S
C1666 H1657 0.930 . S
C1666 C1664 1.384 . S
C1666 C1667 1.372 . S
C1667 C1666 1.372 . S
C1667 C1668 1.400 . S
C1667 C1672 1.490 . S
C1668 H1658 0.930 . S
C1668 C1667 1.400 . S
C1668 C1671 1.386 . S
H1669 C1685 0.930 . S
H1670 C1686 0.931 . S
C1671 H1659 0.929 . S
C1671 C1665 1.390 . S
C1671 C1668 1.386 . S
C1672 C1667 1.490 . S
C1672 C1674 1.395 . S
C1672 C1675 1.415 . S
H1673 C1679 0.930 . S
C1674 H1660 0.930 . S
C1674 C1672 1.395 . S
C1674 C1677 1.412 . S
C1675 C1672 1.415 . S
C1675 C1676 1.530 1_545 S
C1675 C1679 1.380 1_545 S
C1676 H1661 0.960 . S
C1676 H1662 0.960 . S
C1676 H1663 0.960 1_565 S
C1676 C1675 1.530 1_565 S
C1677 C1674 1.412 . S
C1677 C1678 1.387 1_545 S
C1677 C1681 1.492 . S
C1678 C1677 1.387 1_565 S
C1678 C1679 1.385 . S
C1678 C1680 1.478 . S
C1679 H1673 0.930 . S
C1679 C1675 1.380 1_565 S
C1679 C1678 1.385 . S
C1680 C1678 1.478 . S
C1680 C1682 1.381 . S
C1680 C1686 1.383 . S
C1681 C1677 1.492 . S
C1681 H1687 0.959 . S
C1681 H1688 0.961 . S
C1681 H1689 0.960 1_545 S
C1682 C1680 1.381 . S
C1682 C1683 1.394 . S
C1682 H1690 0.930 . S
C1683 C1682 1.394 . S
C1683 C1684 1.383 . S
C1683 H1691 0.929 . S
C1684 C1683 1.383 . S
C1684 C1685 1.377 . S
C1685 H1669 0.930 . S
C1685 C1684 1.377 . S
C1685 C1686 1.379 . S
C1686 H1670 0.931 . S
C1686 C1680 1.383 . S
C1686 C1685 1.379 . S
H1687 C1681 0.959 . S
H1688 C1681 0.961 . S
H1689 C1681 0.960 1_565 S
H1690 C1682 0.930 . S
H1691 C1683 0.929 . S
H1692 C1700 0.929 . S
H1693 C1702 0.930 . S
H1694 C1704 0.930 . S
H1695 C1707 0.929 . S
H1696 C1710 0.930 . S
H1697 C1712 0.960 . S
H1698 C1712 0.960 . S
H1699 C1712 0.960 . S
C1700 H1692 0.929 . S
C1700 C1701 1.377 . S
C1700 C1702 1.384 . S
C1701 C1700 1.377 . S
C1701 C1707 1.390 . S
C1702 H1693 0.930 . S
C1702 C1700 1.384 . S
C1702 C1703 1.372 . S
C1703 C1702 1.372 . S
C1703 C1704 1.400 . S
C1703 C1708 1.490 . S
C1704 H1694 0.930 . S
C1704 C1703 1.400 . S
C1704 C1707 1.386 . S
H1705 C1721 0.930 . S
H1706 C1722 0.931 . S
C1707 H1695 0.929 . S
C1707 C1701 1.390 . S
C1707 C1704 1.386 . S
C1708 C1703 1.490 . S
C1708 C1710 1.395 . S
C1708 C1711 1.403 . S
H1709 C1715 0.930 . S
C1710 H1696 0.930 . S
C1710 C1708 1.395 . S
C1710 C1713 1.403 . S
C1711 C1708 1.403 . S
C1711 C1712 1.524 . S
C1711 C1715 1.400 . S
C1712 H1697 0.960 . S
C1712 H1698 0.960 . S
C1712 H1699 0.960 . S
C1712 C1711 1.524 . S
C1713 C1710 1.403 . S
C1713 C1714 1.392 . S
C1713 C1717 1.495 . S
C1714 C1713 1.392 . S
C1714 C1715 1.385 . S
C1714 C1716 1.478 . S
C1715 H1709 0.930 . S
C1715 C1711 1.400 . S
C1715 C1714 1.385 . S
C1716 C1714 1.478 . S
C1716 C1718 1.381 . S
C1716 C1722 1.383 . S
C1717 C1713 1.495 . S
C1717 H1723 0.959 . S
C1717 H1724 0.961 . S
C1717 H1725 0.960 . S
C1718 C1716 1.381 . S
C1718 C1719 1.394 . S
C1718 H1726 0.930 . S
C1719 C1718 1.394 . S
C1719 C1720 1.383 . S
C1719 H1727 0.929 . S
C1720 C1719 1.383 . S
C1720 C1721 1.377 . S
C1721 H1705 0.930 . S
C1721 C1720 1.377 . S
C1721 C1722 1.379 . S
C1722 H1706 0.931 . S
C1722 C1716 1.383 . S
C1722 C1721 1.379 . S
H1723 C1717 0.959 . S
H1724 C1717 0.961 . S
H1725 C1717 0.960 . S
H1726 C1718 0.930 . S
H1727 C1719 0.929 . S
H1728 C1736 0.929 . S
H1729 C1738 0.930 . S
H1730 C1740 0.930 . S
H1731 C1743 0.929 . S
H1732 C1746 0.930 . S
H1733 C1748 0.960 . S
H1734 C1748 0.960 . S
H1735 C1748 0.960 1_655 S
C1736 H1728 0.929 . S
C1736 C1737 1.377 . S
C1736 C1738 1.384 . S
C1737 C1736 1.377 . S
C1737 C1743 1.390 . S
C1738 H1729 0.930 . S
C1738 C1736 1.384 . S
C1738 C1739 1.372 . S
C1739 C1738 1.372 . S
C1739 C1740 1.400 . S
C1739 C1744 1.490 . S
C1740 H1730 0.930 . S
C1740 C1739 1.400 . S
C1740 C1743 1.386 . S
H1741 C1757 0.930 . S
H1742 C1758 0.931 . S
C1743 H1731 0.929 . S
C1743 C1737 1.390 . S
C1743 C1740 1.386 . S
C1744 C1739 1.490 . S
C1744 C1746 1.395 . S
C1744 C1747 1.403 1_655 S
H1745 C1751 0.930 . S
C1746 H1732 0.930 . S
C1746 C1744 1.395 . S
C1746 C1749 1.403 . S
C1747 C1744 1.403 1_455 S
C1747 C1748 1.524 . S
C1747 C1751 1.400 . S
C1748 H1733 0.960 . S
C1748 H1734 0.960 . S
C1748 H1735 0.960 1_455 S
C1748 C1747 1.524 . S
C1749 C1746 1.403 . S
C1749 C1750 1.392 1_655 S
C1749 C1753 1.495 . S
C1750 C1749 1.392 1_455 S
C1750 C1751 1.385 . S
C1750 C1752 1.478 . S
C1751 H1745 0.930 . S
C1751 C1747 1.400 . S
C1751 C1750 1.385 . S
C1752 C1750 1.478 . S
C1752 C1754 1.381 . S
C1752 C1758 1.383 . S
C1753 C1749 1.495 . S
C1753 H1759 0.959 . S
C1753 H1760 0.961 . S
C1753 H1761 0.960 1_655 S
C1754 C1752 1.381 . S
C1754 C1755 1.394 . S
C1754 H1762 0.930 . S
C1755 C1754 1.394 . S
C1755 C1756 1.383 . S
C1755 H1763 0.929 . S
C1756 C1755 1.383 . S
C1756 C1757 1.377 . S
C1757 H1741 0.930 . S
C1757 C1756 1.377 . S
C1757 C1758 1.379 . S
C1758 H1742 0.931 . S
C1758 C1752 1.383 . S
C1758 C1757 1.379 . S
H1759 C1753 0.959 . S
H1760 C1753 0.961 . S
H1761 C1753 0.960 1_455 S
H1762 C1754 0.930 . S
H1763 C1755 0.929 . S
H1764 C1772 0.929 . S
H1765 C1774 0.930 . S
H1766 C1776 0.930 . S
H1767 C1779 0.929 . S
H1768 C1782 0.930 . S
H1769 C1784 0.960 . S
H1770 C1784 0.960 . S
H1771 C1784 0.960 1_455 S
C1772 H1764 0.929 . S
C1772 C1773 1.377 . S
C1772 C1774 1.384 . S
C1773 C1772 1.377 . S
C1773 C1779 1.390 . S
C1774 H1765 0.930 . S
C1774 C1772 1.384 . S
C1774 C1775 1.372 . S
C1775 C1774 1.372 . S
C1775 C1776 1.400 . S
C1775 C1780 1.490 . S
C1776 H1766 0.930 . S
C1776 C1775 1.400 . S
C1776 C1779 1.386 . S
H1777 C1793 0.930 . S
H1778 C1794 0.931 . S
C1779 H1767 0.929 . S
C1779 C1773 1.390 . S
C1779 C1776 1.386 . S
C1780 C1775 1.490 . S
C1780 C1782 1.395 . S
C1780 C1783 1.403 1_455 S
H1781 C1787 0.930 . S
C1782 H1768 0.930 . S
C1782 C1780 1.395 . S
C1782 C1785 1.403 . S
C1783 C1780 1.403 1_655 S
C1783 C1784 1.524 . S
C1783 C1787 1.400 . S
C1784 H1769 0.960 . S
C1784 H1770 0.960 . S
C1784 H1771 0.960 1_655 S
C1784 C1783 1.524 . S
C1785 C1782 1.403 . S
C1785 C1786 1.392 1_455 S
C1785 C1789 1.495 . S
C1786 C1785 1.392 1_655 S
C1786 C1787 1.385 . S
C1786 C1788 1.478 . S
C1787 H1781 0.930 . S
C1787 C1783 1.400 . S
C1787 C1786 1.385 . S
C1788 C1786 1.478 . S
C1788 C1790 1.381 . S
C1788 C1794 1.383 . S
C1789 C1785 1.495 . S
C1789 H1795 0.959 . S
C1789 H1796 0.961 . S
C1789 H1797 0.960 1_455 S
C1790 C1788 1.381 . S
C1790 C1791 1.394 . S
C1790 H1798 0.930 . S
C1791 C1790 1.394 . S
C1791 C1792 1.383 . S
C1791 H1799 0.929 . S
C1792 C1791 1.383 . S
C1792 C1793 1.377 . S
C1793 H1777 0.930 . S
C1793 C1792 1.377 . S
C1793 C1794 1.379 . S
C1794 H1778 0.931 . S
C1794 C1788 1.383 . S
C1794 C1793 1.379 . S
H1795 C1789 0.959 . S
H1796 C1789 0.961 . S
H1797 C1789 0.960 1_655 S
H1798 C1790 0.930 . S
H1799 C1791 0.929 . S
H1800 C1808 0.929 . S
H1801 C1810 0.930 . S
H1802 C1812 0.930 . S
H1803 C1815 0.929 . S
H1804 C1818 0.930 . S
H1805 C1820 0.960 . S
H1806 C1820 0.960 . S
H1807 C1820 0.960 . S
C1808 H1800 0.929 . S
C1808 C1809 1.377 . S
C1808 C1810 1.384 . S
C1809 C1808 1.377 . S
C1809 C1815 1.390 . S
C1810 H1801 0.930 . S
C1810 C1808 1.384 . S
C1810 C1811 1.372 . S
C1811 C1810 1.372 . S
C1811 C1812 1.400 . S
C1811 C1816 1.490 . S
C1812 H1802 0.930 . S
C1812 C1811 1.400 . S
C1812 C1815 1.386 . S
H1813 C1829 0.930 . S
H1814 C1830 0.931 . S
C1815 H1803 0.929 . S
C1815 C1809 1.390 . S
C1815 C1812 1.386 . S
C1816 C1811 1.490 . S
C1816 C1818 1.395 . S
C1816 C1819 1.403 . S
H1817 C1823 0.930 . S
C1818 H1804 0.930 . S
C1818 C1816 1.395 . S
C1818 C1821 1.403 1_565 S
C1819 C1816 1.403 . S
C1819 C1820 1.524 . S
C1819 C1823 1.400 1_565 S
C1820 H1805 0.960 . S
C1820 H1806 0.960 . S
C1820 H1807 0.960 . S
C1820 C1819 1.524 . S
C1821 C1818 1.403 1_545 S
C1821 C1822 1.392 . S
C1821 C1825 1.495 . S
C1822 C1821 1.392 . S
C1822 C1823 1.385 . S
C1822 C1824 1.478 . S
C1823 H1817 0.930 . S
C1823 C1819 1.400 1_545 S
C1823 C1822 1.385 . S
C1824 C1822 1.478 . S
C1824 C1826 1.381 . S
C1824 C1830 1.383 . S
C1825 C1821 1.495 . S
C1825 H1831 0.959 . S
C1825 H1832 0.961 . S
C1825 H1833 0.960 . S
C1826 C1824 1.381 . S
C1826 C1827 1.394 . S
C1826 H1834 0.930 . S
C1827 C1826 1.394 . S
C1827 C1828 1.383 . S
C1827 H1835 0.929 . S
C1828 C1827 1.383 . S
C1828 C1829 1.377 . S
C1829 H1813 0.930 . S
C1829 C1828 1.377 . S
C1829 C1830 1.379 . S
C1830 H1814 0.931 . S
C1830 C1824 1.383 . S
C1830 C1829 1.379 . S
H1831 C1825 0.959 . S
H1832 C1825 0.961 . S
H1833 C1825 0.960 . S
H1834 C1826 0.930 . S
H1835 C1827 0.929 . S
H1836 C1844 0.929 . S
H1837 C1846 0.930 . S
H1838 C1848 0.930 . S
H1839 C1851 0.929 . S
H1840 C1854 0.930 . S
H1841 C1856 0.960 . S
H1842 C1856 0.960 . S
H1843 C1856 0.960 . S
C1844 H1836 0.929 . S
C1844 C1845 1.377 . S
C1844 C1846 1.384 . S
C1845 C1844 1.377 . S
C1845 C1851 1.390 . S
C1846 H1837 0.930 . S
C1846 C1844 1.384 . S
C1846 C1847 1.372 . S
C1847 C1846 1.372 . S
C1847 C1848 1.400 . S
C1847 C1852 1.490 . S
C1848 H1838 0.930 . S
C1848 C1847 1.400 . S
C1848 C1851 1.386 . S
H1849 C1865 0.930 . S
H1850 C1866 0.931 . S
C1851 H1839 0.929 . S
C1851 C1845 1.390 . S
C1851 C1848 1.386 . S
C1852 C1847 1.490 . S
C1852 C1854 1.395 . S
C1852 C1855 1.403 . S
H1853 C1859 0.930 . S
C1854 H1840 0.930 . S
C1854 C1852 1.395 . S
C1854 C1857 1.403 . S
C1855 C1852 1.403 . S
C1855 C1856 1.524 . S
C1855 C1859 1.400 . S
C1856 H1841 0.960 . S
C1856 H1842 0.960 . S
C1856 H1843 0.960 . S
C1856 C1855 1.524 . S
C1857 C1854 1.403 . S
C1857 C1858 1.392 . S
C1857 C1861 1.495 . S
C1858 C1857 1.392 . S
C1858 C1859 1.385 . S
C1858 C1860 1.478 . S
C1859 H1853 0.930 . S
C1859 C1855 1.400 . S
C1859 C1858 1.385 . S
C1860 C1858 1.478 . S
C1860 C1862 1.381 . S
C1860 C1866 1.383 . S
C1861 C1857 1.495 . S
C1861 H1867 0.959 . S
C1861 H1868 0.961 . S
C1861 H1869 0.960 . S
C1862 C1860 1.381 . S
C1862 C1863 1.394 . S
C1862 H1870 0.930 . S
C1863 C1862 1.394 . S
C1863 C1864 1.383 . S
C1863 H1871 0.929 . S
C1864 C1863 1.383 . S
C1864 C1865 1.377 . S
C1865 H1849 0.930 . S
C1865 C1864 1.377 . S
C1865 C1866 1.379 . S
C1866 H1850 0.931 . S
C1866 C1860 1.383 . S
C1866 C1865 1.379 . S
H1867 C1861 0.959 . S
H1868 C1861 0.961 . S
H1869 C1861 0.960 . S
H1870 C1862 0.930 . S
H1871 C1863 0.929 . S
H1872 C1880 0.929 . S
H1873 C1882 0.930 . S
H1874 C1884 0.930 . S
H1875 C1887 0.929 . S
H1876 C1890 0.930 . S
H1877 C1892 0.960 . S
H1878 C1892 0.960 . S
H1879 C1892 0.960 . S
C1880 H1872 0.929 . S
C1880 C1881 1.377 . S
C1880 C1882 1.384 . S
C1881 C1880 1.377 . S
C1881 C1887 1.390 . S
C1882 H1873 0.930 . S
C1882 C1880 1.384 . S
C1882 C1883 1.372 . S
C1883 C1882 1.372 . S
C1883 C1884 1.400 . S
C1883 C1888 1.490 . S
C1884 H1874 0.930 . S
C1884 C1883 1.400 . S
C1884 C1887 1.386 . S
H1885 C1901 0.930 . S
H1886 C1902 0.931 . S
C1887 H1875 0.929 . S
C1887 C1881 1.390 . S
C1887 C1884 1.386 . S
C1888 C1883 1.490 . S
C1888 C1890 1.395 1_565 S
C1888 C1891 1.403 . S
H1889 C1895 0.930 . S
C1890 H1876 0.930 . S
C1890 C1888 1.395 1_545 S
C1890 C1893 1.403 . S
C1891 C1888 1.403 . S
C1891 C1892 1.524 . S
C1891 C1895 1.400 . S
C1892 H1877 0.960 . S
C1892 H1878 0.960 . S
C1892 H1879 0.960 . S
C1892 C1891 1.524 . S
C1893 C1890 1.403 . S
C1893 C1894 1.392 . S
C1893 C1897 1.495 . S
C1894 C1893 1.392 . S
C1894 C1895 1.385 1_545 S
C1894 C1896 1.478 . S
C1895 H1889 0.930 . S
C1895 C1891 1.400 . S
C1895 C1894 1.385 1_565 S
C1896 C1894 1.478 . S
C1896 C1898 1.381 . S
C1896 C1902 1.383 . S
C1897 C1893 1.495 . S
C1897 H1903 0.959 . S
C1897 H1904 0.961 . S
C1897 H1905 0.960 . S
C1898 C1896 1.381 . S
C1898 C1899 1.394 . S
C1898 H1906 0.930 . S
C1899 C1898 1.394 . S
C1899 C1900 1.383 . S
C1899 H1907 0.929 . S
C1900 C1899 1.383 . S
C1900 C1901 1.377 . S
C1901 H1885 0.930 . S
C1901 C1900 1.377 . S
C1901 C1902 1.379 . S
C1902 H1886 0.931 . S
C1902 C1896 1.383 . S
C1902 C1901 1.379 . S
H1903 C1897 0.959 . S
H1904 C1897 0.961 . S
H1905 C1897 0.960 . S
H1906 C1898 0.930 . S
H1907 C1899 0.929 . S
H1908 C1916 0.929 . S
H1909 C1918 0.930 . S
H1910 C1920 0.930 . S
H1911 C1923 0.929 . S
H1912 C1926 0.930 . S
H1913 C1928 0.960 . S
H1914 C1928 0.960 . S
H1915 C1928 0.960 . S
C1916 H1908 0.929 . S
C1916 C1917 1.377 . S
C1916 C1918 1.384 . S
C1917 C1916 1.377 . S
C1917 C1923 1.390 . S
C1918 H1909 0.930 . S
C1918 C1916 1.384 . S
C1918 C1919 1.372 . S
C1919 C1918 1.372 . S
C1919 C1920 1.400 . S
C1919 C1924 1.490 . S
C1920 H1910 0.930 . S
C1920 C1919 1.400 . S
C1920 C1923 1.386 . S
H1921 C1937 0.930 . S
H1922 C1938 0.931 . S
C1923 H1911 0.929 . S
C1923 C1917 1.390 . S
C1923 C1920 1.386 . S
C1924 C1919 1.490 . S
C1924 C1926 1.395 . S
C1924 C1927 1.403 . S
H1925 C1931 0.930 . S
C1926 H1912 0.930 . S
C1926 C1924 1.395 . S
C1926 C1929 1.403 . S
C1927 C1924 1.403 . S
C1927 C1928 1.524 . S
C1927 C1931 1.400 . S
C1928 H1913 0.960 . S
C1928 H1914 0.960 . S
C1928 H1915 0.960 . S
C1928 C1927 1.524 . S
C1929 C1926 1.403 . S
C1929 C1930 1.392 . S
C1929 C1933 1.495 . S
C1930 C1929 1.392 . S
C1930 C1931 1.385 . S
C1930 C1932 1.478 . S
C1931 H1925 0.930 . S
C1931 C1927 1.400 . S
C1931 C1930 1.385 . S
C1932 C1930 1.478 . S
C1932 C1934 1.381 . S
C1932 C1938 1.383 . S
C1933 C1929 1.495 . S
C1933 H1939 0.959 . S
C1933 H1940 0.961 . S
C1933 H1941 0.960 . S
C1934 C1932 1.381 . S
C1934 C1935 1.394 . S
C1934 H1942 0.930 . S
C1935 C1934 1.394 . S
C1935 C1936 1.383 . S
C1935 H1943 0.929 . S
C1936 C1935 1.383 . S
C1936 C1937 1.377 . S
C1937 H1921 0.930 . S
C1937 C1936 1.377 . S
C1937 C1938 1.379 . S
C1938 H1922 0.931 . S
C1938 C1932 1.383 . S
C1938 C1937 1.379 . S
H1939 C1933 0.959 . S
H1940 C1933 0.961 . S
H1941 C1933 0.960 . S
H1942 C1934 0.930 . S
H1943 C1935 0.929 . S
H1944 C1952 0.929 . S
H1945 C1954 0.930 . S
H1946 C1956 0.930 . S
H1947 C1959 0.929 . S
H1948 C1962 0.930 . S
H1949 C1964 0.960 . S
H1950 C1964 0.960 . S
H1951 C1964 0.960 . S
C1952 H1944 0.929 . S
C1952 C1953 1.377 . S
C1952 C1954 1.384 . S
C1953 C1952 1.377 . S
C1953 C1959 1.390 . S
C1954 H1945 0.930 . S
C1954 C1952 1.384 . S
C1954 C1955 1.372 . S
C1955 C1954 1.372 . S
C1955 C1956 1.400 . S
C1955 C1960 1.490 . S
C1956 H1946 0.930 . S
C1956 C1955 1.400 . S
C1956 C1959 1.386 . S
H1957 C1973 0.930 . S
H1958 C1974 0.931 . S
C1959 H1947 0.929 . S
C1959 C1953 1.390 . S
C1959 C1956 1.386 . S
C1960 C1955 1.490 . S
C1960 C1962 1.395 . S
C1960 C1963 1.403 1_655 S
H1961 C1967 0.930 . S
C1962 H1948 0.930 . S
C1962 C1960 1.395 . S
C1962 C1965 1.403 . S
C1963 C1960 1.403 1_455 S
C1963 C1964 1.524 . S
C1963 C1967 1.400 . S
C1964 H1949 0.960 . S
C1964 H1950 0.960 . S
C1964 H1951 0.960 . S
C1964 C1963 1.524 . S
C1965 C1962 1.403 . S
C1965 C1966 1.392 1_655 S
C1965 C1969 1.495 . S
C1966 C1965 1.392 1_455 S
C1966 C1967 1.385 . S
C1966 C1968 1.478 . S
C1967 H1961 0.930 . S
C1967 C1963 1.400 . S
C1967 C1966 1.385 . S
C1968 C1966 1.478 . S
C1968 C1970 1.381 . S
C1968 C1974 1.383 . S
C1969 C1965 1.495 . S
C1969 H1975 0.959 . S
C1969 H1976 0.961 . S
C1969 H1977 0.960 . S
C1970 C1968 1.381 . S
C1970 C1971 1.394 . S
C1970 H1978 0.930 . S
C1971 C1970 1.394 . S
C1971 C1972 1.383 . S
C1971 H1979 0.929 . S
C1972 C1971 1.383 . S
C1972 C1973 1.377 . S
C1973 H1957 0.930 . S
C1973 C1972 1.377 . S
C1973 C1974 1.379 . S
C1974 H1958 0.931 . S
C1974 C1968 1.383 . S
C1974 C1973 1.379 . S
H1975 C1969 0.959 . S
H1976 C1969 0.961 . S
H1977 C1969 0.960 . S
H1978 C1970 0.930 . S
H1979 C1971 0.929 . S
H1980 C1988 0.929 . S
H1981 C1990 0.930 . S
H1982 C1992 0.930 . S
H1983 C1995 0.929 . S
H1984 C1998 0.930 . S
H1985 C2000 0.960 . S
H1986 C2000 0.960 . S
H1987 C2000 0.960 . S
C1988 H1980 0.929 . S
C1988 C1989 1.377 . S
C1988 C1990 1.384 . S
C1989 C1988 1.377 . S
C1989 C1995 1.390 . S
C1990 H1981 0.930 . S
C1990 C1988 1.384 . S
C1990 C1991 1.372 . S
C1991 C1990 1.372 . S
C1991 C1992 1.400 . S
C1991 C1996 1.490 . S
C1992 H1982 0.930 . S
C1992 C1991 1.400 . S
C1992 C1995 1.386 . S
H1993 C2009 0.930 . S
H1994 C2010 0.931 . S
C1995 H1983 0.929 . S
C1995 C1989 1.390 . S
C1995 C1992 1.386 . S
C1996 C1991 1.490 . S
C1996 C1998 1.395 1_545 S
C1996 C1999 1.403 . S
H1997 C2003 0.930 . S
C1998 H1984 0.930 . S
C1998 C1996 1.395 1_565 S
C1998 C2001 1.403 . S
C1999 C1996 1.403 . S
C1999 C2000 1.524 . S
C1999 C2003 1.400 . S
C2000 H1985 0.960 . S
C2000 H1986 0.960 . S
C2000 H1987 0.960 . S
C2000 C1999 1.524 . S
C2001 C1998 1.403 . S
C2001 C2002 1.392 . S
C2001 C2005 1.495 . S
C2002 C2001 1.392 . S
C2002 C2003 1.385 1_565 S
C2002 C2004 1.478 . S
C2003 H1997 0.930 . S
C2003 C1999 1.400 . S
C2003 C2002 1.385 1_545 S
C2004 C2002 1.478 . S
C2004 C2006 1.381 . S
C2004 C2010 1.383 . S
C2005 C2001 1.495 . S
C2005 H2011 0.959 . S
C2005 H2012 0.961 . S
C2005 H2013 0.960 . S
C2006 C2004 1.381 . S
C2006 C2007 1.394 . S
C2006 H2014 0.930 . S
C2007 C2006 1.394 . S
C2007 C2008 1.383 . S
C2007 H2015 0.929 . S
C2008 C2007 1.383 . S
C2008 C2009 1.377 . S
C2009 H1993 0.930 . S
C2009 C2008 1.377 . S
C2009 C2010 1.379 . S
C2010 H1994 0.931 . S
C2010 C2004 1.383 . S
C2010 C2009 1.379 . S
H2011 C2005 0.959 . S
H2012 C2005 0.961 . S
H2013 C2005 0.960 . S
H2014 C2006 0.930 . S
H2015 C2007 0.929 . S
H2016 C2024 0.929 . S
H2017 C2026 0.930 . S
H2018 C2028 0.930 . S
H2019 C2031 0.929 . S
H2020 C2034 0.930 . S
H2021 C2036 0.960 . S
H2022 C2036 0.960 . S
H2023 C2036 0.960 . S
C2024 H2016 0.929 . S
C2024 C2025 1.377 . S
C2024 C2026 1.384 . S
C2025 C2024 1.377 . S
C2025 C2031 1.390 . S
C2026 H2017 0.930 . S
C2026 C2024 1.384 . S
C2026 C2027 1.372 . S
C2027 C2026 1.372 . S
C2027 C2028 1.400 . S
C2027 C2032 1.490 . S
C2028 H2018 0.930 . S
C2028 C2027 1.400 . S
C2028 C2031 1.386 . S
H2029 C2045 0.930 . S
H2030 C2046 0.931 . S
C2031 H2019 0.929 . S
C2031 C2025 1.390 . S
C2031 C2028 1.386 . S
C2032 C2027 1.490 . S
C2032 C2034 1.395 . S
C2032 C2035 1.403 . S
H2033 C2039 0.930 . S
C2034 H2020 0.930 . S
C2034 C2032 1.395 . S
C2034 C2037 1.403 . S
C2035 C2032 1.403 . S
C2035 C2036 1.524 . S
C2035 C2039 1.400 . S
C2036 H2021 0.960 . S
C2036 H2022 0.960 . S
C2036 H2023 0.960 . S
C2036 C2035 1.524 . S
C2037 C2034 1.403 . S
C2037 C2038 1.392 . S
C2037 C2041 1.495 . S
C2038 C2037 1.392 . S
C2038 C2039 1.385 . S
C2038 C2040 1.478 . S
C2039 H2033 0.930 . S
C2039 C2035 1.400 . S
C2039 C2038 1.385 . S
C2040 C2038 1.478 . S
C2040 C2042 1.381 . S
C2040 C2046 1.383 . S
C2041 C2037 1.495 . S
C2041 H2047 0.959 . S
C2041 H2048 0.961 . S
C2041 H2049 0.960 . S
C2042 C2040 1.381 . S
C2042 C2043 1.394 . S
C2042 H2050 0.930 . S
C2043 C2042 1.394 . S
C2043 C2044 1.383 . S
C2043 H2051 0.929 . S
C2044 C2043 1.383 . S
C2044 C2045 1.377 . S
C2045 H2029 0.930 . S
C2045 C2044 1.377 . S
C2045 C2046 1.379 . S
C2046 H2030 0.931 . S
C2046 C2040 1.383 . S
C2046 C2045 1.379 . S
H2047 C2041 0.959 . S
H2048 C2041 0.961 . S
H2049 C2041 0.960 . S
H2050 C2042 0.930 . S
H2051 C2043 0.929 . S
H2052 C2060 0.929 . S
H2053 C2062 0.930 . S
H2054 C2064 0.930 . S
H2055 C2067 0.929 . S
H2056 C2070 0.930 . S
H2057 C2072 0.960 . S
H2058 C2072 0.960 . S
H2059 C2072 0.960 . S
C2060 H2052 0.929 . S
C2060 C2061 1.377 . S
C2060 C2062 1.384 . S
C2061 C2060 1.377 . S
C2061 C2067 1.390 . S
C2062 H2053 0.930 . S
C2062 C2060 1.384 . S
C2062 C2063 1.372 . S
C2063 C2062 1.372 . S
C2063 C2064 1.400 . S
C2063 C2068 1.490 . S
C2064 H2054 0.930 . S
C2064 C2063 1.400 . S
C2064 C2067 1.386 . S
H2065 C2081 0.930 . S
H2066 C2082 0.931 . S
C2067 H2055 0.929 . S
C2067 C2061 1.390 . S
C2067 C2064 1.386 . S
C2068 C2063 1.490 . S
C2068 C2070 1.395 1_455 S
C2068 C2071 1.403 . S
H2069 C2075 0.930 . S
C2070 H2056 0.930 . S
C2070 C2068 1.395 1_655 S
C2070 C2073 1.403 . S
C2071 C2068 1.403 . S
C2071 C2072 1.524 . S
C2071 C2075 1.400 . S
C2072 H2057 0.960 . S
C2072 H2058 0.960 . S
C2072 H2059 0.960 . S
C2072 C2071 1.524 . S
C2073 C2070 1.403 . S
C2073 C2074 1.392 . S
C2073 C2077 1.495 . S
C2074 C2073 1.392 . S
C2074 C2075 1.385 1_655 S
C2074 C2076 1.478 . S
C2075 H2069 0.930 . S
C2075 C2071 1.400 . S
C2075 C2074 1.385 1_455 S
C2076 C2074 1.478 . S
C2076 C2078 1.381 . S
C2076 C2082 1.383 . S
C2077 C2073 1.495 . S
C2077 H2083 0.959 . S
C2077 H2084 0.961 . S
C2077 H2085 0.960 . S
C2078 C2076 1.381 . S
C2078 C2079 1.394 . S
C2078 H2086 0.930 . S
C2079 C2078 1.394 . S
C2079 C2080 1.383 . S
C2079 H2087 0.929 . S
C2080 C2079 1.383 . S
C2080 C2081 1.377 . S
C2081 H2065 0.930 . S
C2081 C2080 1.377 . S
C2081 C2082 1.379 . S
C2082 H2066 0.931 . S
C2082 C2076 1.383 . S
C2082 C2081 1.379 . S
H2083 C2077 0.959 . S
H2084 C2077 0.961 . S
H2085 C2077 0.960 . S
H2086 C2078 0.930 . S
H2087 C2079 0.929 . S
H2088 C2096 0.929 . S
H2089 C2098 0.930 . S
H2090 C2100 0.930 . S
H2091 C2103 0.929 . S
H2092 C2106 0.930 . S
H2093 C2108 0.960 . S
H2094 C2108 0.960 . S
H2095 C2108 0.960 . S
C2096 H2088 0.929 . S
C2096 C2097 1.377 . S
C2096 C2098 1.384 . S
C2097 C2096 1.377 . S
C2097 C2103 1.390 . S
C2098 H2089 0.930 . S
C2098 C2096 1.384 . S
C2098 C2099 1.372 . S
C2099 C2098 1.372 . S
C2099 C2100 1.400 . S
C2099 C2104 1.490 . S
C2100 H2090 0.930 . S
C2100 C2099 1.400 . S
C2100 C2103 1.386 . S
H2101 C2117 0.930 . S
H2102 C2118 0.931 . S
C2103 H2091 0.929 . S
C2103 C2097 1.390 . S
C2103 C2100 1.386 . S
C2104 C2099 1.490 . S
C2104 C2106 1.395 . S
C2104 C2107 1.403 . S
H2105 C2111 0.930 . S
C2106 H2092 0.930 . S
C2106 C2104 1.395 . S
C2106 C2109 1.403 . S
C2107 C2104 1.403 . S
C2107 C2108 1.524 . S
C2107 C2111 1.400 . S
C2108 H2093 0.960 . S
C2108 H2094 0.960 . S
C2108 H2095 0.960 . S
C2108 C2107 1.524 . S
C2109 C2106 1.403 . S
C2109 C2110 1.392 . S
C2109 C2113 1.495 . S
C2110 C2109 1.392 . S
C2110 C2111 1.385 . S
C2110 C2112 1.478 . S
C2111 H2105 0.930 . S
C2111 C2107 1.400 . S
C2111 C2110 1.385 . S
C2112 C2110 1.478 . S
C2112 C2114 1.381 . S
C2112 C2118 1.383 . S
C2113 C2109 1.495 . S
C2113 H2119 0.959 . S
C2113 H2120 0.961 . S
C2113 H2121 0.960 . S
C2114 C2112 1.381 . S
C2114 C2115 1.394 . S
C2114 H2122 0.930 . S
C2115 C2114 1.394 . S
C2115 C2116 1.383 . S
C2115 H2123 0.929 . S
C2116 C2115 1.383 . S
C2116 C2117 1.377 . S
C2117 H2101 0.930 . S
C2117 C2116 1.377 . S
C2117 C2118 1.379 . S
C2118 H2102 0.931 . S
C2118 C2112 1.383 . S
C2118 C2117 1.379 . S
H2119 C2113 0.959 . S
H2120 C2113 0.961 . S
H2121 C2113 0.960 . S
H2122 C2114 0.930 . S
H2123 C2115 0.929 . S
H2124 C2132 0.929 . S
H2125 C2134 0.930 . S
H2126 C2136 0.930 . S
H2127 C2139 0.929 . S
H2128 C2142 0.930 . S
H2129 C2144 0.960 . S
H2130 C2144 0.960 . S
H2131 C2144 0.960 . S
C2132 H2124 0.929 . S
C2132 C2133 1.377 . S
C2132 C2134 1.384 . S
C2133 C2132 1.377 . S
C2133 C2139 1.390 . S
C2134 H2125 0.930 . S
C2134 C2132 1.384 . S
C2134 C2135 1.372 . S
C2135 C2134 1.372 . S
C2135 C2136 1.400 . S
C2135 C2140 1.490 . S
C2136 H2126 0.930 . S
C2136 C2135 1.400 . S
C2136 C2139 1.386 . S
H2137 C2153 0.930 . S
H2138 C2154 0.931 . S
C2139 H2127 0.929 . S
C2139 C2133 1.390 . S
C2139 C2136 1.386 . S
C2140 C2135 1.490 . S
C2140 C2142 1.395 . S
C2140 C2143 1.403 . S
H2141 C2147 0.930 . S
C2142 H2128 0.930 . S
C2142 C2140 1.395 . S
C2142 C2145 1.403 . S
C2143 C2140 1.403 . S
C2143 C2144 1.524 . S
C2143 C2147 1.400 . S
C2144 H2129 0.960 . S
C2144 H2130 0.960 . S
C2144 H2131 0.960 . S
C2144 C2143 1.524 . S
C2145 C2142 1.403 . S
C2145 C2146 1.392 . S
C2145 C2149 1.495 . S
C2146 C2145 1.392 . S
C2146 C2147 1.385 . S
C2146 C2148 1.478 . S
C2147 H2141 0.930 . S
C2147 C2143 1.400 . S
C2147 C2146 1.385 . S
C2148 C2146 1.478 . S
C2148 C2150 1.381 . S
C2148 C2154 1.383 . S
C2149 C2145 1.495 . S
C2149 H2155 0.959 . S
C2149 H2156 0.961 . S
C2149 H2157 0.960 . S
C2150 C2148 1.381 . S
C2150 C2151 1.394 . S
C2150 H2158 0.930 . S
C2151 C2150 1.394 . S
C2151 C2152 1.383 . S
C2151 H2159 0.929 . S
C2152 C2151 1.383 . S
C2152 C2153 1.377 . S
C2153 H2137 0.930 . S
C2153 C2152 1.377 . S
C2153 C2154 1.379 . S
C2154 H2138 0.931 . S
C2154 C2148 1.383 . S
C2154 C2153 1.379 . S
H2155 C2149 0.959 . S
H2156 C2149 0.961 . S
H2157 C2149 0.960 . S
H2158 C2150 0.930 . S
H2159 C2151 0.929 . S
H2160 C2168 0.929 . S
H2161 C2170 0.930 . S
H2162 C2172 0.930 . S
H2163 C2175 0.929 . S
H2164 C2178 0.930 . S
H2165 C2180 0.960 . S
H2166 C2180 0.960 . S
H2167 C2180 0.960 . S
C2168 H2160 0.929 . S
C2168 C2169 1.377 . S
C2168 C2170 1.384 . S
C2169 C2168 1.377 . S
C2169 C2175 1.390 . S
C2170 H2161 0.930 . S
C2170 C2168 1.384 . S
C2170 C2171 1.372 . S
C2171 C2170 1.372 . S
C2171 C2172 1.400 . S
C2171 C2176 1.490 . S
C2172 H2162 0.930 . S
C2172 C2171 1.400 . S
C2172 C2175 1.386 . S
H2173 C2189 0.930 . S
H2174 C2190 0.931 . S
C2175 H2163 0.929 . S
C2175 C2169 1.390 . S
C2175 C2172 1.386 . S
C2176 C2171 1.490 . S
C2176 C2178 1.395 . S
C2176 C2179 1.403 . S
H2177 C2183 0.930 . S
C2178 H2164 0.930 . S
C2178 C2176 1.395 . S
C2178 C2181 1.403 . S
C2179 C2176 1.403 . S
C2179 C2180 1.524 . S
C2179 C2183 1.400 . S
C2180 H2165 0.960 . S
C2180 H2166 0.960 . S
C2180 H2167 0.960 . S
C2180 C2179 1.524 . S
C2181 C2178 1.403 . S
C2181 C2182 1.392 . S
C2181 C2185 1.495 . S
C2182 C2181 1.392 . S
C2182 C2183 1.385 . S
C2182 C2184 1.478 . S
C2183 H2177 0.930 . S
C2183 C2179 1.400 . S
C2183 C2182 1.385 . S
C2184 C2182 1.478 . S
C2184 C2186 1.381 . S
C2184 C2190 1.383 . S
C2185 C2181 1.495 . S
C2185 H2191 0.959 . S
C2185 H2192 0.961 . S
C2185 H2193 0.960 . S
C2186 C2184 1.381 . S
C2186 C2187 1.394 . S
C2186 H2194 0.930 . S
C2187 C2186 1.394 . S
C2187 C2188 1.383 . S
C2187 H2195 0.929 . S
C2188 C2187 1.383 . S
C2188 C2189 1.377 . S
C2189 H2173 0.930 . S
C2189 C2188 1.377 . S
C2189 C2190 1.379 . S
C2190 H2174 0.931 . S
C2190 C2184 1.383 . S
C2190 C2189 1.379 . S
H2191 C2185 0.959 . S
H2192 C2185 0.961 . S
H2193 C2185 0.960 . S
H2194 C2186 0.930 . S
H2195 C2187 0.929 . S
H2196 C2204 0.929 . S
H2197 C2206 0.930 . S
H2198 C2208 0.930 . S
H2199 C2211 0.929 . S
H2200 C2214 0.930 . S
H2201 C2216 0.960 . S
H2202 C2216 0.960 . S
H2203 C2216 0.960 . S
C2204 H2196 0.929 . S
C2204 C2205 1.377 . S
C2204 C2206 1.384 . S
C2205 C2204 1.377 . S
C2205 C2211 1.390 . S
C2206 H2197 0.930 . S
C2206 C2204 1.384 . S
C2206 C2207 1.372 . S
C2207 C2206 1.372 . S
C2207 C2208 1.400 . S
C2207 C2212 1.490 . S
C2208 H2198 0.930 . S
C2208 C2207 1.400 . S
C2208 C2211 1.386 . S
H2209 C2225 0.930 . S
H2210 C2226 0.931 . S
C2211 H2199 0.929 . S
C2211 C2205 1.390 . S
C2211 C2208 1.386 . S
C2212 C2207 1.490 . S
C2212 C2214 1.395 . S
C2212 C2215 1.403 . S
H2213 C2219 0.930 . S
C2214 H2200 0.930 . S
C2214 C2212 1.395 . S
C2214 C2217 1.403 . S
C2215 C2212 1.403 . S
C2215 C2216 1.524 . S
C2215 C2219 1.400 . S
C2216 H2201 0.960 . S
C2216 H2202 0.960 . S
C2216 H2203 0.960 . S
C2216 C2215 1.524 . S
C2217 C2214 1.403 . S
C2217 C2218 1.392 . S
C2217 C2221 1.495 . S
C2218 C2217 1.392 . S
C2218 C2219 1.385 . S
C2218 C2220 1.478 . S
C2219 H2213 0.930 . S
C2219 C2215 1.400 . S
C2219 C2218 1.385 . S
C2220 C2218 1.478 . S
C2220 C2222 1.381 . S
C2220 C2226 1.383 . S
C2221 C2217 1.495 . S
C2221 H2227 0.959 . S
C2221 H2228 0.961 . S
C2221 H2229 0.960 . S
C2222 C2220 1.381 . S
C2222 C2223 1.394 . S
C2222 H2230 0.930 . S
C2223 C2222 1.394 . S
C2223 C2224 1.383 . S
C2223 H2231 0.929 . S
C2224 C2223 1.383 . S
C2224 C2225 1.377 . S
C2225 H2209 0.930 . S
C2225 C2224 1.377 . S
C2225 C2226 1.379 . S
C2226 H2210 0.931 . S
C2226 C2220 1.383 . S
C2226 C2225 1.379 . S
H2227 C2221 0.959 . S
H2228 C2221 0.961 . S
H2229 C2221 0.960 . S
H2230 C2222 0.930 . S
H2231 C2223 0.929 . S
H2232 C2240 0.929 . S
H2233 C2242 0.930 . S
H2234 C2244 0.930 . S
H2235 C2247 0.929 . S
H2236 C2250 0.930 . S
H2237 C2252 0.960 . S
H2238 C2252 0.960 . S
H2239 C2252 0.960 . S
C2240 H2232 0.929 . S
C2240 C2241 1.377 . S
C2240 C2242 1.384 . S
C2241 C2240 1.377 . S
C2241 C2247 1.390 . S
C2242 H2233 0.930 . S
C2242 C2240 1.384 . S
C2242 C2243 1.372 . S
C2243 C2242 1.372 . S
C2243 C2244 1.400 . S
C2243 C2248 1.490 . S
C2244 H2234 0.930 . S
C2244 C2243 1.400 . S
C2244 C2247 1.386 . S
H2245 C2261 0.930 . S
H2246 C2262 0.931 . S
C2247 H2235 0.929 . S
C2247 C2241 1.390 . S
C2247 C2244 1.386 . S
C2248 C2243 1.490 . S
C2248 C2250 1.395 . S
C2248 C2251 1.403 . S
H2249 C2255 0.930 . S
C2250 H2236 0.930 . S
C2250 C2248 1.395 . S
C2250 C2253 1.403 . S
C2251 C2248 1.403 . S
C2251 C2252 1.524 . S
C2251 C2255 1.400 . S
C2252 H2237 0.960 . S
C2252 H2238 0.960 . S
C2252 H2239 0.960 . S
C2252 C2251 1.524 . S
C2253 C2250 1.403 . S
C2253 C2254 1.392 . S
C2253 C2257 1.495 . S
C2254 C2253 1.392 . S
C2254 C2255 1.385 . S
C2254 C2256 1.478 . S
C2255 H2249 0.930 . S
C2255 C2251 1.400 . S
C2255 C2254 1.385 . S
C2256 C2254 1.478 . S
C2256 C2258 1.381 . S
C2256 C2262 1.383 . S
C2257 C2253 1.495 . S
C2257 H2263 0.959 . S
C2257 H2264 0.961 . S
C2257 H2265 0.960 . S
C2258 C2256 1.381 . S
C2258 C2259 1.394 . S
C2258 H2266 0.930 . S
C2259 C2258 1.394 . S
C2259 C2260 1.383 . S
C2259 H2267 0.929 . S
C2260 C2259 1.383 . S
C2260 C2261 1.377 . S
C2261 H2245 0.930 . S
C2261 C2260 1.377 . S
C2261 C2262 1.379 . S
C2262 H2246 0.931 . S
C2262 C2256 1.383 . S
C2262 C2261 1.379 . S
H2263 C2257 0.959 . S
H2264 C2257 0.961 . S
H2265 C2257 0.960 . S
H2266 C2258 0.930 . S
H2267 C2259 0.929 . S
H2268 C2276 0.929 . S
H2269 C2278 0.930 . S
H2270 C2280 0.930 . S
H2271 C2283 0.929 . S
H2272 C2286 0.930 . S
H2273 C2288 0.960 . S
H2274 C2288 0.960 . S
H2275 C2288 0.960 . S
C2276 H2268 0.929 . S
C2276 C2277 1.377 . S
C2276 C2278 1.384 . S
C2277 C2276 1.377 . S
C2277 C2283 1.390 . S
C2278 H2269 0.930 . S
C2278 C2276 1.384 . S
C2278 C2279 1.372 . S
C2279 C2278 1.372 . S
C2279 C2280 1.400 . S
C2279 C2284 1.490 . S
C2280 H2270 0.930 . S
C2280 C2279 1.400 . S
C2280 C2283 1.386 . S
H2281 C2297 0.930 . S
H2282 C2298 0.931 . S
C2283 H2271 0.929 . S
C2283 C2277 1.390 . S
C2283 C2280 1.386 . S
C2284 C2279 1.490 . S
C2284 C2286 1.395 . S
C2284 C2287 1.403 . S
H2285 C2291 0.930 . S
C2286 H2272 0.930 . S
C2286 C2284 1.395 . S
C2286 C2289 1.403 . S
C2287 C2284 1.403 . S
C2287 C2288 1.524 . S
C2287 C2291 1.400 . S
C2288 H2273 0.960 . S
C2288 H2274 0.960 . S
C2288 H2275 0.960 . S
C2288 C2287 1.524 . S
C2289 C2286 1.403 . S
C2289 C2290 1.392 . S
C2289 C2293 1.495 . S
C2290 C2289 1.392 . S
C2290 C2291 1.385 . S
C2290 C2292 1.478 . S
C2291 H2285 0.930 . S
C2291 C2287 1.400 . S
C2291 C2290 1.385 . S
C2292 C2290 1.478 . S
C2292 C2294 1.381 . S
C2292 C2298 1.383 . S
C2293 C2289 1.495 . S
C2293 H2299 0.959 . S
C2293 H2300 0.961 . S
C2293 H2301 0.960 . S
C2294 C2292 1.381 . S
C2294 C2295 1.394 . S
C2294 H2302 0.930 . S
C2295 C2294 1.394 . S
C2295 C2296 1.383 . S
C2295 H2303 0.929 . S
C2296 C2295 1.383 . S
C2296 C2297 1.377 . S
C2297 H2281 0.930 . S
C2297 C2296 1.377 . S
C2297 C2298 1.379 . S
C2298 H2282 0.931 . S
C2298 C2292 1.383 . S
C2298 C2297 1.379 . S
H2299 C2293 0.959 . S
H2300 C2293 0.961 . S
H2301 C2293 0.960 . S
H2302 C2294 0.930 . S
H2303 C2295 0.929 . S
C1017 C74 0.914 . S
C1036 C746 0.891 . S
C1053 C158 0.916 . S
C1072 C830 0.913 . S
C1089 C242 0.919 . S
C1108 C914 0.907 . S
C1125 C998 0.916 . S
C1144 C326 0.913 . S
C1161 C410 0.924 . S
C1180 C578 0.944 . S
C1197 C662 0.914 . S
C1216 C494 0.891 . S
C1233 C910 1.361 . S
C1252 C70 1.384 . S
C1269 C994 1.368 . S
C1288 C154 1.417 . S
C1305 C238 1.366 . S
C1324 C574 1.406 . S
C1341 C658 1.352 . S
C1360 C322 1.338 . S
C1377 C742 1.365 . S
C1396 C406 1.403 . S
C1413 C490 1.347 . S
C1432 C826 1.314 . S
C1449 C655 4.621 . S
C1468 C67 4.601 . S
C1485 C739 4.621 . S
C1504 C151 4.601 . S
C1521 C823 4.619 . S
C1540 C235 4.627 . S
C1557 C319 4.618 . S
C1576 C907 4.608 . S
C1593 C403 4.620 . S
C1612 C991 4.601 . S
C1629 C487 4.617 . S
C1648 C571 4.626 . S
C1665 C63 0.757 . S
C1684 C315 0.719 . S
C1701 C147 0.755 . S
C1720 C399 0.728 . S
C1737 C231 0.755 . S
C1756 C483 0.729 . S
C1773 C819 0.752 . S
C1792 C567 0.739 . S
C1809 C651 0.765 . S
C1828 C903 0.707 . S
C1845 C987 0.777 . S
C1864 C735 0.761 . S
C1881 C646 0.943 . S
C1900 C58 0.942 . S
C1917 C730 0.940 . S
C1936 C142 0.983 . S
C1953 C226 0.954 . S
C1972 C814 0.987 . S
C1989 C898 0.946 . S
C2008 C310 0.928 . S
C2025 C982 0.956 . S
C2044 C394 0.981 . S
C2061 C478 0.944 . S
C2080 C562 0.936 . S
C2097 C56 3.491 . S
C2116 C896 3.497 . S
C2133 C140 3.489 . S
C2152 C980 3.483 1_556 S
C2169 C224 3.491 1_554 S
C2188 C560 3.496 . S
C2205 C308 3.491 . S
C2224 C644 3.492 . S
C2241 C392 3.489 . S
C2260 C728 3.485 1_556 S
C2277 C812 3.486 . S
C2296 C476 3.469 1_554 S
