# Generated by pormake.
# Topology qtz-x, (6)-cn, num edge types: 1
# Building blocks:
#     Node 0, Type 0, BuildingBlock: PAMTUU_clean_sbu_0, # of connection points: 6
#     Node 1, Type 0, BuildingBlock: PAMTUU_clean_sbu_0, # of connection points: 6
#     Node 2, Type 0, BuildingBlock: PAMTUU_clean_sbu_0, # of connection points: 6
#     Edge 3, Type (0, 0), BuildingBlock: MIFKUJ_clean_linker_0, # of connection points: 2
#     Edge 4, Type (0, 0), BuildingBlock: MIFKUJ_clean_linker_0, # of connection points: 2
#     Edge 5, Type (0, 0), BuildingBlock: MIFKUJ_clean_linker_0, # of connection points: 2
#     Edge 6, Type (0, 0), BuildingBlock: MIFKUJ_clean_linker_0, # of connection points: 2
#     Edge 7, Type (0, 0), BuildingBlock: MIFKUJ_clean_linker_0, # of connection points: 2
#     Edge 8, Type (0, 0), BuildingBlock: MIFKUJ_clean_linker_0, # of connection points: 2
#     Edge 9, Type (0, 0), BuildingBlock: MIFKUJ_clean_linker_0, # of connection points: 2
#     Edge 10, Type (0, 0), BuildingBlock: MIFKUJ_clean_linker_0, # of connection points: 2
#     Edge 11, Type (0, 0), BuildingBlock: MIFKUJ_clean_linker_0, # of connection points: 2
# Relax obj value: 0.122
# Max RMSD: 0.225
# Mean RMSD: 0.225
data_MOF--net-qtz-x--node1-PAMTUU_clean_sbu_0--edge1-MIFKUJ_clean_linker_0
_symmetry_space_group_name_H-M    P1
_symmetry_Int_Tables_number       1
_symmetry_cell_setting            triclinic
loop_
_symmetry_equiv_pos_as_xyz
'x, y, z'
_cell_length_a     19.558837
_cell_length_b     19.594138
_cell_length_c     66.826232
_cell_angle_alpha  90.248933
_cell_angle_beta   89.70722
_cell_angle_gamma 120.06457
loop_
_atom_site_label
_atom_site_type_symbol
_atom_site_fract_x
_atom_site_fract_y
_atom_site_fract_z
_atom_type_partial_charge
Tb0 Tb 0.07472 0.62236 0.16029 0.0
Tb1 Tb 0.90128 0.53992 0.18337 0.0
C2 C -0.01006 0.44884 0.1738 0.0
C3 C 0.21533 0.69203 0.11797 0.0
C4 C 0.24234 0.70119 0.07625 0.0
C5 C 0.30523 0.72444 0.08977 0.0
C6 C 0.29171 0.71959 0.11045 0.0
C7 C 0.15282 0.67125 0.10457 0.0
C8 C 0.16612 0.67557 0.0839 0.0
C9 C 0.19992 0.67849 0.13959 0.0
O10 O 0.98375 0.55421 0.13829 0.0
O11 O 0.87619 0.55381 0.1524 0.0
O12 O 0.95289 0.66662 0.18548 0.0
O13 O 0.02828 0.70164 0.157 0.0
O14 O 0.80054 0.43677 0.19326 0.0
O15 O 0.81316 0.55046 0.19901 0.0
O16 O -0.01201 0.56223 0.20641 0.0
O17 O 0.10287 0.65869 0.19154 0.0
O18 O 0.05694 0.51559 0.17443 0.0
O19 O 0.92247 0.44753 0.17241 0.0
C20 C 0.91381 0.54784 0.1367 0.0
O21 O 0.17618 0.72173 0.14881 0.0
O22 O 0.15786 0.60471 0.1447 0.0
C23 C -0.00885 0.71704 0.17112 0.0
C24 C 0.75412 0.45487 0.22468 0.0
C25 C 0.7174 0.41705 0.26563 0.0
C26 C 0.71063 0.47856 0.2569 0.0
C27 C 0.7284 0.49697 0.23662 0.0
C28 C 0.76099 0.39342 0.23344 0.0
C29 C 0.74277 0.37474 0.25365 0.0
C30 C 0.77378 0.47565 0.20328 0.0
C31 C 0.06163 0.6204 0.2075 0.0
H32 H 0.36443 0.74353 0.08439 0.0
H33 H 0.34054 0.73526 0.12056 0.0
H34 H 0.09337 0.64984 0.1101 0.0
H35 H 0.11659 0.65802 0.07391 0.0
H36 H 0.69045 0.51171 0.26568 0.0
H37 H 0.7221 0.54429 0.23027 0.0
H38 H 0.78074 0.35973 0.22474 0.0
H39 H 0.74953 0.32764 0.25998 0.0
Tb40 Tb 0.46421 -0.00876 0.49345 0.0
Tb41 Tb 0.55018 0.1652 0.51663 0.0
C42 C 0.37283 0.07615 0.5058 0.0
C43 C 0.383 0.84987 0.45127 0.0
C44 C 0.34072 0.81711 0.41041 0.0
C45 C 0.29211 0.7653 0.42552 0.0
C46 C 0.31306 0.7816 0.44573 0.0
C47 C 0.43181 0.90162 0.43624 0.0
C48 C 0.41089 0.88552 0.41606 0.0
C49 C 0.4044 0.86668 0.47266 0.0
O50 O 0.52588 0.07967 0.47054 0.0
O51 O 0.54391 0.19408 0.48547 0.0
O52 O 0.6408 0.14596 0.50345 0.0
O53 O 0.57399 0.01217 0.50661 0.0
O54 O 0.55333 0.27023 0.52513 0.0
O55 O 0.64431 0.24571 0.53455 0.0
O56 O 0.52395 0.07762 0.53965 0.0
O57 O 0.43143 0.96068 0.52477 0.0
O58 O 0.38877 0.04237 0.49095 0.0
O59 O 0.42342 0.11125 0.52032 0.0
C60 C 0.54095 0.15297 0.46953 0.0
O61 O 0.47961 0.90966 0.47652 0.0
O62 O 0.36258 0.88823 0.48344 0.0
C63 C 0.64052 0.07915 0.50505 0.0
C64 C 0.60556 0.31014 0.55805 0.0
C65 C 0.59246 0.3417 0.59891 0.0
C66 C 0.66509 0.35585 0.59086 0.0
C67 C 0.67155 0.34061 0.57068 0.0
C68 C 0.53291 0.2962 0.56597 0.0
C69 C 0.52656 0.3121 0.58613 0.0
C70 C 0.61339 0.29067 0.53701 0.0
C71 C 0.46896 0.0028 0.54065 0.0
H72 H 0.2382 0.71156 0.42174 0.0
H73 H 0.27465 0.74072 0.45704 0.0
H74 H 0.48627 0.95469 0.44007 0.0
H75 H 0.44926 0.92737 0.40492 0.0
H76 H 0.71687 0.37728 0.60023 0.0
H77 H 0.72813 0.35152 0.565 0.0
H78 H 0.48075 0.27253 0.55665 0.0
H79 H 0.46995 0.30156 0.59165 0.0
Tb80 Tb 0.42096 0.59328 0.82676 0.0
Tb81 Tb 0.50847 0.51082 0.85078 0.0
C82 C 0.5956 0.6856 0.8391 0.0
C83 C 0.37017 0.68055 0.78404 0.0
C84 C 0.38591 0.72533 0.74325 0.0
C85 C 0.44163 0.77515 0.75747 0.0
C86 C 0.43389 0.75305 0.77762 0.0
C87 C 0.31423 0.63111 0.76983 0.0
C88 C 0.32221 0.65301 0.74969 0.0
C89 C 0.36129 0.65583 0.80533 0.0
O90 O 0.43925 0.52142 0.805 0.0
O91 O 0.5419 0.51369 0.8194 0.0
O92 O 0.39747 0.41765 0.83888 0.0
O93 O 0.32986 0.48488 0.84014 0.0
O94 O 0.61282 0.51269 0.85923 0.0
O95 O 0.49892 0.42022 0.86933 0.0
O96 O 0.44301 0.53433 0.87339 0.0
O97 O 0.42006 0.62629 0.85801 0.0
O98 O 0.5482 0.66605 0.82371 0.0
O99 O 0.57752 0.63752 0.85426 0.0
C100 C 0.49782 0.50696 0.80386 0.0
O101 O 0.32804 0.58023 0.80855 0.0
O102 O 0.4216 0.69575 0.81714 0.0
C103 C 0.33071 0.41835 0.83966 0.0
C104 C 0.6037 0.46509 0.89212 0.0
C105 C 0.65192 0.48316 0.93258 0.0
C106 C 0.64783 0.4215 0.92074 0.0
C107 C 0.62401 0.41267 0.90073 0.0
C108 C 0.60758 0.52675 0.90377 0.0
C109 C 0.63163 0.53583 0.92379 0.0
C110 C 0.5752 0.453 0.87133 0.0
C111 C 0.42226 0.58861 0.87409 0.0
H112 H 0.49177 0.83095 0.75297 0.0
H113 H 0.47802 0.79276 0.78814 0.0
H114 H 0.26402 0.57526 0.77428 0.0
H115 H 0.27763 0.61378 0.73919 0.0
H116 H 0.66156 0.37896 0.92704 0.0
H117 H 0.62053 0.36423 0.89204 0.0
H118 H 0.5916 0.56761 0.89741 0.0
H119 H 0.63486 0.58447 0.93231 0.0
H120 H 0.88726 0.75121 0.18949 0.0
H121 H 0.88886 0.87685 0.18942 0.0
H122 H 0.09922 0.97996 0.15286 0.0
H123 H 0.09732 0.85379 0.15249 0.0
H124 H 0.09871 0.06965 0.18935 0.0
H125 H 0.94941 0.9415 0.12971 0.0
H126 H 0.84284 0.83061 0.11108 0.0
H127 H 0.66926 0.84116 0.14852 0.0
H128 H 0.77495 0.95137 0.16759 0.0
H129 H 0.11319 0.4265 0.16458 0.0
H130 H 0.11394 0.30238 0.16402 0.0
H131 H 0.87041 0.17843 0.18342 0.0
H132 H 0.86844 0.30227 0.1832 0.0
H133 H 0.88862 0.09768 0.15563 0.0
H134 H 0.02932 0.22109 0.21552 0.0
H135 H 0.13078 0.32732 0.2364 0.0
H136 H 0.31367 0.32113 0.20203 0.0
H137 H 0.21331 0.2156 0.18075 0.0
C138 C 0.93389 0.80059 0.18143 0.0
C139 C -0.00785 0.79279 0.17097 0.0
C140 C 0.93457 0.87212 0.18138 0.0
C141 C -0.00592 0.93721 0.17112 0.0
C142 C 0.05291 0.93009 0.16086 0.0
C143 C 0.05148 0.85807 0.16059 0.0
C144 C -0.00562 0.01265 0.17111 0.0
C145 C 0.05361 0.07652 0.18176 0.0
C146 C 0.93377 0.01996 0.16177 0.0
C147 C 0.87014 0.95416 0.1502 0.0
C148 C 0.88856 0.91972 0.13409 0.0
C149 C 0.8283 0.85707 0.12343 0.0
C150 C 0.74934 0.82872 0.12865 0.0
C151 C 0.73046 0.86312 0.14451 0.0
C152 C 0.79052 0.92571 0.15524 0.0
C153 C 0.0599 0.37284 0.16881 0.0
C154 C -0.00918 0.37403 0.17401 0.0
C155 C 0.06049 0.30193 0.16857 0.0
C156 C -0.00737 0.23114 0.17401 0.0
C157 C 0.92351 0.23228 0.17918 0.0
C158 C 0.92248 0.30305 0.17909 0.0
C159 C -0.00669 0.15574 0.17389 0.0
C160 C 0.93405 0.09147 0.16325 0.0
C161 C 0.0532 0.14767 0.18358 0.0
C162 C 0.11376 0.21092 0.19641 0.0
C163 C 0.09118 0.24277 0.21232 0.0
C164 C 0.14849 0.30281 0.22424 0.0
C165 C 0.22861 0.33109 0.22051 0.0
C166 C 0.25158 0.29923 0.20488 0.0
C167 C 0.19451 0.23926 0.19289 0.0
H168 H 0.27289 0.37755 0.22975 0.0
H169 H 0.70277 0.78022 0.12038 0.0
H170 H 0.31669 0.13525 0.53462 0.0
H171 H 0.19125 0.13435 0.53463 0.0
H172 H 0.13213 0.01441 0.47763 0.0
H173 H 0.25746 0.01553 0.47737 0.0
H174 H 0.10255 0.13443 0.47803 0.0
H175 H 0.04749 0.91378 0.51944 0.0
H176 H 0.06847 0.84473 0.54741 0.0
H177 H 0.03854 -0.00599 0.5895 0.0
H178 H 0.01852 0.06478 0.56175 0.0
H179 H 0.66116 0.95177 0.50802 0.0
H180 H 0.78547 0.95098 0.50807 0.0
H181 H 0.91464 0.20454 0.50291 0.0
H182 H 0.79037 0.20595 0.50258 0.0
H183 H 0.90745 0.01394 0.53319 0.0
H184 H 0.07756 0.25851 0.47457 0.0
H185 H 0.05128 0.31378 0.44438 0.0
H186 H 0.84027 0.09255 0.43336 0.0
H187 H 0.86545 0.03607 0.4634 0.0
C188 C 0.277 0.10861 0.52208 0.0
C189 C 0.29697 0.07535 0.506 0.0
C190 C 0.20529 0.10796 0.52216 0.0
C191 C 0.15237 0.07386 0.50619 0.0
C192 C 0.17233 0.04108 0.49008 0.0
C193 C 0.24386 0.04156 0.49 0.0
C194 C 0.0763 0.07284 0.50616 0.0
C195 C 0.05997 0.10831 0.49012 0.0
C196 C 0.02038 0.03756 0.52177 0.0
C197 C 0.03237 -0.00486 0.5385 0.0
C198 C 0.04609 0.93236 0.53465 0.0
C199 C 0.05767 0.89282 0.55047 0.0
C200 C 0.05508 0.91512 0.57022 0.0
C201 C 0.04068 0.9769 0.57419 0.0
C202 C 0.02916 0.01671 0.55843 0.0
C203 C 0.71594 0.00746 0.50687 0.0
C204 C 0.71589 0.07896 0.50522 0.0
C205 C 0.78692 0.00685 0.50697 0.0
C206 C 0.85911 0.07758 0.50535 0.0
C207 C 0.85942 0.14918 0.50391 0.0
C208 C 0.78838 0.14988 0.50378 0.0
C209 C 0.93401 0.07618 0.50514 0.0
C210 C 0.95025 0.04048 0.52117 0.0
C211 C -0.01088 0.10965 0.48929 0.0
C212 C 0.97302 0.14341 0.47133 0.0
C213 C 0.02556 0.22176 0.46569 0.0
C214 C 0.01081 0.25331 0.44862 0.0
C215 C 0.94399 0.20684 0.43699 0.0
C216 C 0.89174 0.12871 0.44243 0.0
C217 C 0.9061 0.09696 0.4595 0.0
H218 H 0.93288 0.2313 0.42374 0.0
H219 H 0.06402 0.88441 0.58245 0.0
H220 H 0.65816 0.79544 0.80923 0.0
H221 H 0.78311 0.92062 0.80971 0.0
H222 H 0.82644 0.87331 0.86989 0.0
H223 H 0.70166 0.74841 0.86963 0.0
H224 H 0.85936 0.02534 0.86548 0.0
H225 H 0.91897 0.84347 0.83214 0.0
H226 H 0.90053 0.74404 0.80673 0.0
H227 H 0.94385 0.91065 0.75995 0.0
H228 H 0.96147 0.01079 0.78509 0.0
H229 H 0.30877 0.26936 0.8416 0.0
H230 H 0.18344 0.14489 0.84193 0.0
H231 H 0.05679 0.27199 0.83763 0.0
H232 H 0.18163 0.39677 0.83765 0.0
H233 H 0.06719 0.07776 0.81506 0.0
H234 H 0.8855 0.17406 0.8639 0.0
H235 H 0.9075 0.27068 0.8905 0.0
H236 H 0.11606 0.26833 0.90915 0.0
H237 H 0.0947 0.17092 0.88286 0.0
C238 C 0.69418 0.81173 0.82259 0.0
C239 C 0.67024 0.76185 0.83936 0.0
C240 C 0.76555 0.88315 0.82281 0.0
C241 C 0.81408 0.90575 0.83979 0.0
C242 C 0.78968 0.85682 0.85667 0.0
C243 C 0.71854 0.78533 0.85644 0.0
C244 C 0.89109 0.97982 0.83986 0.0
C245 C 0.9048 0.03697 0.85445 0.0
C246 C 0.95059 -0.00579 0.82563 0.0
C247 C 0.94078 0.93437 0.81049 0.0
C248 C 0.92399 0.85872 0.81643 0.0
C249 C 0.91378 0.80227 0.80208 0.0
C250 C 0.9208 0.82095 0.78174 0.0
C251 C 0.93832 0.89623 0.77571 0.0
C252 C 0.94849 0.95288 0.79001 0.0
C253 C 0.25428 0.27091 0.84075 0.0
C254 C 0.25513 0.34297 0.83972 0.0
C255 C 0.18276 0.19971 0.84088 0.0
C256 C 0.11093 0.19932 0.83999 0.0
C257 C 0.11159 0.27108 0.83864 0.0
C258 C 0.18303 0.34232 0.83862 0.0
C259 C 0.03528 0.12375 0.84056 0.0
C260 C 0.02173 0.06632 0.82607 0.0
C261 C 0.97645 0.10861 0.85508 0.0
C262 C -0.01118 0.16572 0.87129 0.0
C263 C 0.9358 0.19385 0.87375 0.0
C264 C 0.94822 0.24882 0.88876 0.0
C265 C 0.01327 0.2758 0.90147 0.0
C266 C 0.06584 0.24758 0.89925 0.0
C267 C 0.05364 0.19254 0.88429 0.0
H268 H 0.02283 0.31842 0.91305 0.0
H269 H 0.91284 0.77716 0.77065 0.0
H270 H 0.42163 0.52223 0.90991 0.0
H271 H 0.38752 0.55021 0.94269 0.0
H272 H 0.34127 0.72442 0.91688 0.0
H273 H 0.37437 0.69567 0.88357 0.0
H274 H 0.45392 0.67809 0.96449 0.0
H275 H 0.19535 0.73002 0.94604 0.0
H276 H 0.09018 0.69011 0.92084 0.0
H277 H 0.09415 0.47612 0.90971 0.0
H278 H 0.19846 0.5142 0.93504 0.0
H279 H 0.36407 0.81266 0.05353 0.0
H280 H 0.39113 0.80427 0.01808 0.0
H281 H 0.17878 0.57713 0.01405 0.0
H282 H 0.15098 0.58562 0.04939 0.0
H283 H 0.1965 0.65751 0.98079 0.0
H284 H 0.36182 0.59248 0.02023 0.0
H285 H 0.46029 0.61504 0.04619 0.0
H286 H 0.63112 0.82637 0.01627 0.0
H287 H 0.53361 0.805 0.99018 0.0
C288 C 0.40396 0.5664 0.91104 0.0
C289 C 0.40062 0.60656 0.89398 0.0
C290 C 0.38473 0.58255 0.92991 0.0
C291 C 0.36157 0.63922 0.93231 0.0
C292 C 0.35818 0.67979 0.91537 0.0
C293 C 0.37737 0.66348 0.89635 0.0
C294 C 0.34213 0.65556 0.9527 0.0
C295 C 0.39781 0.67417 0.96797 0.0
C296 C 0.26855 0.64937 0.9574 0.0
C297 C 0.20542 0.62553 0.94225 0.0
C298 C 0.17363 0.67439 0.93824 0.0
C299 C 0.11416 0.65207 0.92394 0.0
C300 C 0.08571 0.58076 0.91363 0.0
C301 C 0.11645 0.53147 0.91765 0.0
C302 C 0.17583 0.55346 0.93196 0.0
C303 C 0.32299 0.7611 0.04506 0.0
C304 C 0.25568 0.69956 0.05433 0.0
C305 C 0.33845 0.75639 0.02479 0.0
C306 C 0.28762 0.6895 0.01343 0.0
C307 C 0.21883 0.6294 0.02246 0.0
C308 C 0.20299 0.63436 0.04269 0.0
C309 C 0.30829 0.67982 0.99253 0.0
C310 C 0.253 0.66256 0.97719 0.0
C311 C 0.38142 0.68503 0.98781 0.0
C312 C 0.44029 0.69758 1.00339 0.0
C313 C 0.42033 0.64391 0.01926 0.0
C314 C 0.47601 0.65637 0.03397 0.0
C315 C 0.55192 0.72211 0.03291 0.0
C316 C 0.57239 0.77536 0.01708 0.0
C317 C 0.51701 0.76305 1.00231 0.0
H318 H 0.59486 0.73172 0.04434 0.0
H319 H 0.03972 0.56363 0.90256 0.0
H320 H 0.48756 0.07724 0.43406 0.0
H321 H 0.5178 0.13299 0.40055 0.0
H322 H 0.65561 0.36647 0.42552 0.0
H323 H 0.62453 0.31045 0.45947 0.0
H324 H 0.56613 0.36164 0.3922 0.0
H325 H 0.74818 0.27477 0.40904 0.0
H326 H 0.78245 0.17844 0.42205 0.0
H327 H 0.65077 0.01746 0.37473 0.0
H328 H 0.6138 0.11218 0.36173 0.0
H329 H 0.75794 0.51733 0.2978 0.0
H330 H 0.72879 0.48239 0.33321 0.0
H331 H 0.60305 0.23563 0.31735 0.0
H332 H 0.63262 0.27017 0.28205 0.0
H333 H 0.69725 0.25862 0.34749 0.0
H334 H 0.50737 0.33799 0.33179 0.0
H335 H 0.46297 0.42797 0.31959 0.0
H336 H 0.60335 0.59836 0.36433 0.0
H337 H 0.64944 0.50977 0.37664 0.0
C338 C 0.52451 0.14043 0.4325 0.0
C339 C 0.55522 0.18924 0.44942 0.0
C340 C 0.5414 0.1723 0.4133 0.0
C341 C 0.59033 0.25373 0.41051 0.0
C342 C 0.6181 0.30338 0.42735 0.0
C343 C 0.60052 0.27134 0.44671 0.0
C344 C 0.61545 0.28532 0.38994 0.0
C345 C 0.59605 0.34031 0.38249 0.0
C346 C 0.6532 0.2563 0.37718 0.0
C347 C 0.67795 0.20048 0.38446 0.0
C348 C 0.72636 0.21876 0.40143 0.0
C349 C 0.74625 0.16439 0.40881 0.0
C350 C 0.71906 0.0919 0.3992 0.0
C351 C 0.67192 0.07369 0.38215 0.0
C352 C 0.65145 0.12771 0.37476 0.0
C353 C 0.72339 0.45567 0.30187 0.0
C354 C 0.69774 0.39649 0.28712 0.0
C355 C 0.70672 0.43576 0.32212 0.0
C356 C 0.66318 0.35632 0.32799 0.0
C357 C 0.63703 0.2973 0.31324 0.0
C358 C 0.65412 0.31712 0.29305 0.0
C359 C 0.64653 0.33396 0.34947 0.0
C360 C 0.66791 0.28072 0.35716 0.0
C361 C 0.61023 0.36433 0.36235 0.0
C362 C 0.58256 0.41763 0.35498 0.0
C363 C 0.5293 0.39493 0.33892 0.0
C364 C 0.50372 0.44562 0.332 0.0
C365 C 0.53051 0.51894 0.34114 0.0
C366 C 0.58277 0.54162 0.35724 0.0
C367 C 0.6086 0.49117 0.3642 0.0
H368 H 0.51062 0.55809 0.33576 0.0
H369 H 0.73444 0.04981 0.40495 0.0
H370 H 0.42515 0.8701 0.7281 0.0
H371 H 0.43252 0.90769 0.693 0.0
H372 H 0.36914 0.67178 0.67482 0.0
H373 H 0.36345 0.63422 0.70996 0.0
H374 H 0.48499 0.7786 0.65145 0.0
H375 H 0.23472 0.73133 0.67441 0.0
H376 H 0.13911 0.74305 0.69622 0.0
H377 H 0.24866 0.98982 0.68263 0.0
H378 H 0.34609 0.98003 0.66106 0.0
H379 H 0.40484 0.84589 0.55028 0.0
H380 H 0.38341 0.78877 0.58402 0.0
H381 H 0.46977 0.01952 0.6099 0.0
H382 H 0.49193 0.07677 0.57653 0.0
H383 H 0.33166 0.90217 0.62822 0.0
H384 H 0.58868 0.94846 0.60748 0.0
H385 H 0.68115 0.93384 0.58508 0.0
H386 H 0.55187 0.68302 0.59373 0.0
H387 H 0.45782 0.69608 0.61595 0.0
C388 C 0.41362 0.82641 0.71664 0.0
C389 C 0.39322 0.749 0.72185 0.0
C390 C 0.41715 0.8478 0.69656 0.0
C391 C 0.4002 0.79226 0.68124 0.0
C392 C 0.38194 0.71551 0.68636 0.0
C393 C 0.37812 0.69398 0.70646 0.0
C394 C 0.4011 0.8144 0.65992 0.0
C395 C 0.45042 0.80441 0.64631 0.0
C396 C 0.35655 0.84875 0.65319 0.0
C397 C 0.29842 0.85512 0.6663 0.0
C398 C 0.23907 0.78833 0.67625 0.0
C399 C 0.18443 0.79459 0.68855 0.0
C400 C 0.188 0.8672 0.69087 0.0
C401 C 0.2461 0.93365 0.68086 0.0
C402 C 0.3011 0.92779 0.6686 0.0
C403 C 0.41863 0.88418 0.56318 0.0
C404 C 0.45054 0.96585 0.56073 0.0
C405 C 0.40671 0.8516 0.58242 0.0
C406 C 0.42549 0.90007 0.59945 0.0
C407 C 0.45496 0.98108 0.59698 0.0
C408 C 0.46792 0.01371 0.57786 0.0
C409 C 0.41641 0.86757 0.61995 0.0
C410 C 0.36555 0.87564 0.63338 0.0
C411 C 0.45904 0.83102 0.62646 0.0
C412 C 0.51564 0.82315 0.61316 0.0
C413 C 0.57951 0.89011 0.60445 0.0
C414 C 0.6323 0.88213 0.59182 0.0
C415 C 0.62223 0.80752 0.58793 0.0
C416 C 0.55948 0.74076 0.59672 0.0
C417 C 0.50643 0.74842 0.60933 0.0
H418 H 0.66318 0.80146 0.57816 0.0
H419 H 0.14557 0.87191 0.70038 0.0
H420 H 0.59297 0.52594 0.96474 0.0
H421 H 0.63212 0.53734 0.99985 0.0
H422 H 0.80426 0.46979 0.98424 0.0
H423 H 0.7668 0.45984 0.9491 0.0
H424 H 0.71865 0.38915 0.01635 0.0
H425 H 0.85648 0.65682 0.99452 0.0
H426 H 0.87534 0.78107 0.98042 0.0
H427 H 0.73459 0.79701 0.02768 0.0
H428 H 0.7116 0.67088 0.04157 0.0
H429 H 0.96162 0.50751 0.10238 0.0
H430 H 0.90865 0.49406 0.06873 0.0
H431 H 0.73392 0.54806 0.09111 0.0
H432 H 0.78671 0.56167 0.12505 0.0
H433 H 0.81174 0.63296 0.05664 0.0
H434 H 0.67588 0.36452 0.0785 0.0
H435 H 0.66376 0.24352 0.09305 0.0
H436 H 0.81012 0.2346 0.04619 0.0
H437 H 0.82409 0.35627 0.0315 0.0
C438 C 0.63994 0.51455 0.9687 0.0
C439 C 0.67657 0.49182 0.95399 0.0
C440 C 0.66205 0.52082 0.98883 0.0
C441 C 0.72131 0.50462 0.99471 0.0
C442 C 0.75805 0.48212 0.98009 0.0
C443 C 0.73626 0.47615 0.95998 0.0
C444 C 0.74438 0.50968 0.0161 0.0
C445 C 0.73968 0.44277 0.02508 0.0
C446 C 0.77002 0.57904 0.02769 0.0
C447 C 0.78119 0.65348 0.01891 0.0
C448 C 0.82807 0.68584 1.00168 0.0
C449 C 0.83947 0.75667 0.99372 0.0
C450 C 0.80539 0.79647 1.00302 0.0
C451 C 0.75988 0.76551 0.02032 0.0
C452 C 0.74747 0.69422 0.02821 0.0
C453 C 0.91156 0.51605 0.10025 0.0
C454 C 0.87822 0.53538 0.11649 0.0
C455 C 0.8812 0.50811 0.08097 0.0
C456 C 0.81695 0.51947 0.07741 0.0
C457 C 0.78342 0.53883 0.09354 0.0
C458 C 0.81338 0.54614 0.11293 0.0
C459 C 0.78639 0.51272 0.05674 0.0
C460 C 0.78982 0.57923 0.04791 0.0
C461 C 0.75996 0.44323 0.04524 0.0
C462 C 0.75157 0.36993 0.054 0.0
C463 C 0.70603 0.33714 0.07138 0.0
C464 C 0.69872 0.26835 0.07964 0.0
C465 C 0.73629 0.23149 0.07058 0.0
C466 C 0.78111 0.26326 0.05321 0.0
C467 C 0.78868 0.33209 0.0449 0.0
H468 H 0.73054 0.17822 0.07699 0.0
H469 H 0.81473 0.85158 0.99692 0.0
H470 H 0.21937 0.70517 0.21737 0.0
H471 H 0.27643 0.7436 0.25105 0.0
H472 H 0.04238 0.62849 0.27668 0.0
H473 H 0.98516 0.58888 0.24337 0.0
H474 H 0.1452 0.786 0.29089 0.0
H475 H 0.14061 0.53924 0.28001 0.0
H476 H 0.17342 0.4494 0.2619 0.0
H477 H 0.42083 0.61362 0.26948 0.0
H478 H 0.38947 0.70511 0.28735 0.0
H479 H 0.19321 0.75631 0.394 0.0
H480 H 0.15606 0.72878 0.35883 0.0
H481 H 0.3994 0.8144 0.34265 0.0
H482 H 0.43678 0.83955 0.37796 0.0
H483 H 0.30501 0.68312 0.32218 0.0
H484 H 0.31472 0.92676 0.3343 0.0
H485 H 0.28732 0.02172 0.35171 0.0
H486 H 0.03913 0.87276 0.34079 0.0
H487 H 0.06491 0.77626 0.32355 0.0
C488 C 0.18018 0.68794 0.23019 0.0
C489 C 0.09775 0.64373 0.22767 0.0
C490 C 0.21283 0.70978 0.24941 0.0
C491 C 0.16355 0.68879 0.26635 0.0
C492 C 0.08143 0.64533 0.26382 0.0
C493 C 0.04889 0.62242 0.24473 0.0
C494 C 0.19675 0.7123 0.2868 0.0
C495 C 0.17964 0.76308 0.29781 0.0
C496 C 0.24386 0.68442 0.29555 0.0
C497 C 0.2627 0.62949 0.28478 0.0
C498 C 0.20202 0.55661 0.27762 0.0
C499 C 0.22035 0.50529 0.26744 0.0
C500 C 0.29916 0.52591 0.26448 0.0
C501 C 0.35981 0.59782 0.27174 0.0
C502 C 0.34179 0.64941 0.28189 0.0
C503 C 0.23886 0.76856 0.38302 0.0
C504 C 0.31808 0.80029 0.38889 0.0
C505 C 0.2176 0.75356 0.36285 0.0
C506 C 0.27504 0.77049 0.348 0.0
C507 C 0.35404 0.80116 0.35379 0.0
C508 C 0.37539 0.81616 0.374 0.0
C509 C 0.25215 0.75577 0.3265 0.0
C510 C 0.27124 0.70677 0.31525 0.0
C511 C 0.20764 0.78613 0.31741 0.0
C512 C 0.19171 0.84391 0.32779 0.0
C513 C 0.25422 0.9139 0.33576 0.0
C514 C 0.23899 0.96808 0.34557 0.0
C515 C 0.16151 0.95319 0.3474 0.0
C516 C 0.09911 0.88416 0.33938 0.0
C517 C 0.114 0.82973 0.32957 0.0
H518 H 0.14985 -0.00477 0.35499 0.0
H519 H 0.31325 0.48607 0.25663 0.0
H520 H 0.6401 0.54714 0.78637 0.0
H521 H 0.662 0.51553 0.75205 0.0
H522 H 0.41028 0.37665 0.74324 0.0
H523 H 0.38812 0.41028 0.77708 0.0
H524 H 0.51688 0.30923 0.72937 0.0
H525 H 0.46753 0.52838 0.72435 0.0
H526 H 0.49167 0.66038 0.73374 0.0
H527 H 0.73395 0.76265 0.7153 0.0
H528 H 0.71153 0.6307 0.70618 0.0
H529 H 0.46764 0.25638 0.62451 0.0
H530 H 0.45668 0.28192 0.6598 0.0
H531 H 0.69179 0.48427 0.65814 0.0
H532 H 0.70139 0.46206 0.62254 0.0
H533 H 0.60149 0.52035 0.67846 0.0
H534 H 0.64547 0.30139 0.6788 0.0
H535 H 0.62177 0.16875 0.67026 0.0
H536 H 0.39393 0.06427 0.69852 0.0
H537 H 0.41495 0.19623 0.70662 0.0
C538 C 0.58966 0.50903 0.77717 0.0
C539 C 0.51248 0.48126 0.78429 0.0
C540 C 0.60216 0.49122 0.75762 0.0
C541 C 0.53765 0.44379 0.74519 0.0
C542 C 0.46071 0.41312 0.75264 0.0
C543 C 0.44822 0.43261 0.77191 0.0
C544 C 0.54977 0.42993 0.72399 0.0
C545 C 0.53491 0.35495 0.71814 0.0
C546 C 0.57463 0.49027 0.70955 0.0
C547 C 0.58814 0.56963 0.71485 0.0
C548 C 0.52616 0.5789 0.72251 0.0
C549 C 0.53944 0.65373 0.72772 0.0
C550 C 0.6143 0.7199 0.72514 0.0
C551 C 0.676 0.71133 0.71731 0.0
C552 C 0.66306 0.63653 0.71213 0.0
C553 C 0.51673 0.30701 0.63153 0.0
C554 C 0.58555 0.35699 0.62056 0.0
C555 C 0.51078 0.3209 0.65185 0.0
C556 C 0.57397 0.38424 0.66182 0.0
C557 C 0.64236 0.43469 0.65088 0.0
C558 C 0.64806 0.42136 0.63051 0.0
C559 C 0.56831 0.39885 0.68352 0.0
C560 C 0.58422 0.47426 0.68956 0.0
C561 C 0.54456 0.33863 0.69813 0.0
C562 C 0.53149 0.25898 0.69312 0.0
C563 C 0.58986 0.2502 0.68297 0.0
C564 C 0.57684 0.17506 0.67819 0.0
C565 C 0.50612 0.1081 0.68371 0.0
C566 C 0.44836 0.11615 0.69408 0.0
C567 C 0.46076 0.19113 0.69875 0.0
H568 H 0.4962 0.05 0.68001 0.0
H569 H 0.62443 0.7778 0.72918 0.0
loop_
_geom_bond_atom_site_label_1
_geom_bond_atom_site_label_2
_geom_bond_distance
_geom_bond_site_symmetry_2
_ccdc_geom_bond_type
Tb0 C9 2.764 . S
Tb0 O10 2.325 . S
Tb0 O13 2.303 . S
Tb0 O17 2.322 . S
Tb0 O18 2.349 . S
Tb0 O21 2.415 . S
Tb0 O22 2.399 . S
Tb1 O11 2.322 . S
Tb1 O12 2.349 1_655 S
Tb1 O14 2.415 . S
Tb1 O15 2.399 . S
Tb1 O16 2.325 1_655 S
Tb1 O19 2.303 1_655 S
Tb1 C30 2.764 . S
C2 O18 1.261 . S
C2 O19 1.257 . S
C3 C6 1.358 . S
C3 C7 1.332 . S
C3 C9 1.504 . S
C4 C5 1.373 . S
C4 C8 1.308 . S
C5 C4 1.373 . S
C5 C6 1.429 . S
C5 H32 0.932 . S
C6 C3 1.358 . S
C6 C5 1.429 . S
C6 H33 0.930 . S
C7 C3 1.332 . S
C7 C8 1.394 . S
C7 H34 0.932 . S
C8 C4 1.308 . S
C8 C7 1.394 . S
C8 H35 0.929 . S
C9 Tb0 2.764 . S
C9 C3 1.504 . S
C9 O21 1.239 . S
C9 O22 1.263 . S
O10 Tb0 2.325 . S
O10 C20 1.236 . S
O11 Tb1 2.322 . S
O11 C20 1.257 1_655 S
O12 Tb1 2.349 1_455 S
O12 C23 1.261 . S
O13 Tb0 2.303 . S
O13 C23 1.257 . S
O14 Tb1 2.415 . S
O14 C30 1.239 . S
O15 Tb1 2.399 . S
O15 C30 1.263 . S
O16 Tb1 2.325 1_455 S
O16 C31 1.236 . S
O17 Tb0 2.322 . S
O17 C31 1.257 . S
O18 Tb0 2.349 . S
O18 C2 1.261 . S
O19 Tb1 2.303 1_455 S
O19 C2 1.257 . S
C20 O10 1.236 . S
C20 O11 1.257 1_455 S
O21 Tb0 2.415 . S
O21 C9 1.239 . S
O22 Tb0 2.399 . S
O22 C9 1.263 . S
C23 O12 1.261 . S
C23 O13 1.257 . S
C24 C27 1.358 . S
C24 C28 1.332 . S
C24 C30 1.504 . S
C25 C26 1.373 . S
C25 C29 1.308 . S
C26 C25 1.373 . S
C26 C27 1.429 . S
C26 H36 0.932 . S
C27 C24 1.358 . S
C27 C26 1.429 . S
C27 H37 0.930 . S
C28 C24 1.332 . S
C28 C29 1.394 . S
C28 H38 0.932 . S
C29 C25 1.308 . S
C29 C28 1.394 . S
C29 H39 0.929 . S
C30 Tb1 2.764 . S
C30 O14 1.239 . S
C30 O15 1.263 . S
C30 C24 1.504 . S
C31 O16 1.236 . S
C31 O17 1.257 . S
H32 C5 0.932 . S
H33 C6 0.930 . S
H34 C7 0.932 . S
H35 C8 0.929 . S
H36 C26 0.932 . S
H37 C27 0.930 . S
H38 C28 0.932 . S
H39 C29 0.929 . S
Tb40 C49 2.764 . S
Tb40 O50 2.325 1_565 S
Tb40 O53 2.303 . S
Tb40 O57 2.322 . S
Tb40 O58 2.349 . S
Tb40 O61 2.415 . S
Tb40 O62 2.399 . S
Tb41 O51 2.322 . S
Tb41 O52 2.349 . S
Tb41 O54 2.415 . S
Tb41 O55 2.399 . S
Tb41 O56 2.325 1_545 S
Tb41 O59 2.303 . S
Tb41 C70 2.764 . S
C42 O58 1.261 . S
C42 O59 1.257 1_565 S
C43 C46 1.358 . S
C43 C47 1.332 . S
C43 C49 1.504 . S
C44 C45 1.373 . S
C44 C48 1.308 . S
C45 C44 1.373 . S
C45 C46 1.429 . S
C45 H72 0.932 . S
C46 C43 1.358 . S
C46 C45 1.429 . S
C46 H73 0.930 . S
C47 C43 1.332 . S
C47 C48 1.394 . S
C47 H74 0.932 . S
C48 C44 1.308 . S
C48 C47 1.394 . S
C48 H75 0.929 . S
C49 Tb40 2.764 . S
C49 C43 1.504 . S
C49 O61 1.239 . S
C49 O62 1.263 . S
O50 Tb40 2.325 1_545 S
O50 C60 1.236 . S
O51 Tb41 2.322 . S
O51 C60 1.257 . S
O52 Tb41 2.349 . S
O52 C63 1.261 . S
O53 Tb40 2.303 . S
O53 C63 1.257 1_565 S
O54 Tb41 2.415 . S
O54 C70 1.239 . S
O55 Tb41 2.399 . S
O55 C70 1.263 . S
O56 Tb41 2.325 1_565 S
O56 C71 1.236 . S
O57 Tb40 2.322 . S
O57 C71 1.257 . S
O58 Tb40 2.349 . S
O58 C42 1.261 . S
O59 Tb41 2.303 . S
O59 C42 1.257 1_545 S
C60 O50 1.236 . S
C60 O51 1.257 . S
O61 Tb40 2.415 . S
O61 C49 1.239 . S
O62 Tb40 2.399 . S
O62 C49 1.263 . S
C63 O52 1.261 . S
C63 O53 1.257 1_545 S
C64 C67 1.358 . S
C64 C68 1.332 . S
C64 C70 1.504 . S
C65 C66 1.373 . S
C65 C69 1.308 . S
C66 C65 1.373 . S
C66 C67 1.429 . S
C66 H76 0.932 . S
C67 C64 1.358 . S
C67 C66 1.429 . S
C67 H77 0.930 . S
C68 C64 1.332 . S
C68 C69 1.394 . S
C68 H78 0.932 . S
C69 C65 1.308 . S
C69 C68 1.394 . S
C69 H79 0.929 . S
C70 Tb41 2.764 . S
C70 O54 1.239 . S
C70 O55 1.263 . S
C70 C64 1.504 . S
C71 O56 1.236 . S
C71 O57 1.257 . S
H72 C45 0.932 . S
H73 C46 0.930 . S
H74 C47 0.932 . S
H75 C48 0.929 . S
H76 C66 0.932 . S
H77 C67 0.930 . S
H78 C68 0.932 . S
H79 C69 0.929 . S
Tb80 C89 2.764 . S
Tb80 O90 2.325 . S
Tb80 O93 2.303 . S
Tb80 O97 2.322 . S
Tb80 O98 2.349 . S
Tb80 O101 2.415 . S
Tb80 O102 2.399 . S
Tb81 O91 2.322 . S
Tb81 O92 2.349 . S
Tb81 O94 2.415 . S
Tb81 O95 2.399 . S
Tb81 O96 2.325 . S
Tb81 O99 2.303 . S
Tb81 C110 2.764 . S
C82 O98 1.261 . S
C82 O99 1.257 . S
C83 C86 1.358 . S
C83 C87 1.332 . S
C83 C89 1.504 . S
C84 C85 1.373 . S
C84 C88 1.308 . S
C85 C84 1.373 . S
C85 C86 1.429 . S
C85 H112 0.932 . S
C86 C83 1.358 . S
C86 C85 1.429 . S
C86 H113 0.930 . S
C87 C83 1.332 . S
C87 C88 1.394 . S
C87 H114 0.932 . S
C88 C84 1.308 . S
C88 C87 1.394 . S
C88 H115 0.929 . S
C89 Tb80 2.764 . S
C89 C83 1.504 . S
C89 O101 1.239 . S
C89 O102 1.263 . S
O90 Tb80 2.325 . S
O90 C100 1.236 . S
O91 Tb81 2.322 . S
O91 C100 1.257 . S
O92 Tb81 2.349 . S
O92 C103 1.261 . S
O93 Tb80 2.303 . S
O93 C103 1.257 . S
O94 Tb81 2.415 . S
O94 C110 1.239 . S
O95 Tb81 2.399 . S
O95 C110 1.263 . S
O96 Tb81 2.325 . S
O96 C111 1.236 . S
O97 Tb80 2.322 . S
O97 C111 1.257 . S
O98 Tb80 2.349 . S
O98 C82 1.261 . S
O99 Tb81 2.303 . S
O99 C82 1.257 . S
C100 O90 1.236 . S
C100 O91 1.257 . S
O101 Tb80 2.415 . S
O101 C89 1.239 . S
O102 Tb80 2.399 . S
O102 C89 1.263 . S
C103 O92 1.261 . S
C103 O93 1.257 . S
C104 C107 1.358 . S
C104 C108 1.332 . S
C104 C110 1.504 . S
C105 C106 1.373 . S
C105 C109 1.308 . S
C106 C105 1.373 . S
C106 C107 1.429 . S
C106 H116 0.932 . S
C107 C104 1.358 . S
C107 C106 1.429 . S
C107 H117 0.930 . S
C108 C104 1.332 . S
C108 C109 1.394 . S
C108 H118 0.932 . S
C109 C105 1.308 . S
C109 C108 1.394 . S
C109 H119 0.929 . S
C110 Tb81 2.764 . S
C110 O94 1.239 . S
C110 O95 1.263 . S
C110 C104 1.504 . S
C111 O96 1.236 . S
C111 O97 1.257 . S
H112 C85 0.932 . S
H113 C86 0.930 . S
H114 C87 0.932 . S
H115 C88 0.929 . S
H116 C106 0.932 . S
H117 C107 0.930 . S
H118 C108 0.932 . S
H119 C109 0.929 . S
H120 C138 0.951 1_655 S
H121 C140 0.951 1_655 S
H122 C142 0.950 1_545 S
H123 C143 0.950 . S
H124 C145 0.950 . S
H125 C148 0.950 . S
H126 C149 0.950 . S
H127 C151 0.950 . S
H128 C152 0.950 . S
H129 C153 0.951 . S
H130 C155 0.951 . S
H131 C157 0.950 1_655 S
H132 C158 0.950 1_655 S
H133 C160 0.950 1_655 S
H134 C163 0.950 . S
H135 C164 0.950 . S
H136 C166 0.950 . S
H137 C167 0.950 . S
C138 H120 0.951 1_455 S
C138 C139 1.366 . S
C138 C140 1.388 . S
C139 C138 1.366 . S
C139 C143 1.385 . S
C140 H121 0.951 1_455 S
C140 C138 1.388 . S
C140 C141 1.366 . S
C141 C140 1.366 . S
C141 C142 1.414 . S
C141 C144 1.499 1_565 S
C142 H122 0.950 1_565 S
C142 C141 1.414 . S
C142 C143 1.374 . S
C143 H123 0.950 . S
C143 C139 1.385 . S
C143 C142 1.374 . S
C144 C141 1.499 1_545 S
C144 C145 1.373 . S
C144 C146 1.389 . S
C145 H124 0.950 . S
C145 C144 1.373 . S
C145 C161 1.377 . S
C146 C144 1.389 . S
C146 C147 1.524 1_445 S
C146 C160 1.377 . S
C147 C146 1.524 1_665 S
C147 C148 1.397 . S
C147 C152 1.363 . S
C148 H125 0.950 . S
C148 C147 1.397 . S
C148 C149 1.334 . S
C149 H126 0.950 . S
C149 C148 1.334 . S
C149 C150 1.287 . S
C150 C149 1.287 . S
C150 C151 1.524 . S
C150 H169 0.913 . S
C151 H127 0.950 . S
C151 C150 1.524 . S
C151 C152 1.415 . S
C152 H128 0.950 . S
C152 C147 1.363 . S
C152 C151 1.415 . S
C153 H129 0.951 . S
C153 C154 1.366 . S
C153 C155 1.388 . S
C154 C153 1.366 . S
C154 C158 1.385 . S
C155 H130 0.951 . S
C155 C153 1.388 . S
C155 C156 1.366 . S
C156 C155 1.366 . S
C156 C157 1.414 . S
C156 C159 1.499 . S
C157 H131 0.950 1_455 S
C157 C156 1.414 . S
C157 C158 1.374 . S
C158 H132 0.950 1_455 S
C158 C154 1.385 . S
C158 C157 1.374 . S
C159 C156 1.499 . S
C159 C160 1.373 . S
C159 C161 1.389 . S
C160 H133 0.950 1_455 S
C160 C146 1.377 . S
C160 C159 1.373 . S
C161 C145 1.377 . S
C161 C159 1.389 . S
C161 C162 1.524 . S
C162 C161 1.524 . S
C162 C163 1.397 . S
C162 C167 1.363 . S
C163 H134 0.950 . S
C163 C162 1.397 . S
C163 C164 1.334 . S
C164 H135 0.950 . S
C164 C163 1.334 . S
C164 C165 1.287 . S
C165 C164 1.287 . S
C165 C166 1.524 . S
C165 H168 0.999 . S
C166 H136 0.950 . S
C166 C165 1.524 . S
C166 C167 1.415 . S
C167 H137 0.950 . S
C167 C162 1.363 . S
C167 C166 1.415 . S
H168 C165 0.999 . S
H169 C150 0.913 . S
H170 C188 0.951 . S
H171 C190 0.951 . S
H172 C192 0.950 . S
H173 C193 0.950 . S
H174 C195 0.950 . S
H175 C198 0.950 . S
H176 C199 0.950 . S
H177 C201 0.950 . S
H178 C202 0.950 . S
H179 C203 0.951 . S
H180 C205 0.951 . S
H181 C207 0.950 . S
H182 C208 0.950 . S
H183 C210 0.950 . S
H184 C213 0.950 . S
H185 C214 0.950 . S
H186 C216 0.950 . S
H187 C217 0.950 . S
C188 H170 0.951 . S
C188 C189 1.366 . S
C188 C190 1.388 . S
C189 C188 1.366 . S
C189 C193 1.385 1_545 S
C190 H171 0.951 . S
C190 C188 1.388 . S
C190 C191 1.366 1_545 S
C191 C190 1.366 1_565 S
C191 C192 1.414 . S
C191 C194 1.499 . S
C192 H172 0.950 . S
C192 C191 1.414 . S
C192 C193 1.374 . S
C193 H173 0.950 . S
C193 C189 1.385 1_565 S
C193 C192 1.374 . S
C194 C191 1.499 . S
C194 C195 1.373 1_565 S
C194 C196 1.389 1_455 S
C195 H174 0.950 . S
C195 C194 1.373 1_545 S
C195 C211 1.377 1_455 S
C196 C194 1.389 1_655 S
C196 C197 1.524 . S
C196 C210 1.377 . S
C197 C196 1.524 . S
C197 C198 1.397 . S
C197 C202 1.363 . S
C198 H175 0.950 . S
C198 C197 1.397 . S
C198 C199 1.334 . S
C199 H176 0.950 . S
C199 C198 1.334 . S
C199 C200 1.287 . S
C200 C199 1.287 . S
C200 C201 1.524 . S
C200 H219 0.913 . S
C201 H177 0.950 . S
C201 C200 1.524 . S
C201 C202 1.415 . S
C202 H178 0.950 . S
C202 C197 1.363 . S
C202 C201 1.415 . S
C203 H179 0.951 . S
C203 C204 1.366 . S
C203 C205 1.388 . S
C204 C203 1.366 . S
C204 C208 1.385 1_565 S
C205 H180 0.951 . S
C205 C203 1.388 . S
C205 C206 1.366 1_565 S
C206 C205 1.366 1_545 S
C206 C207 1.414 . S
C206 C209 1.499 . S
C207 H181 0.950 . S
C207 C206 1.414 . S
C207 C208 1.374 . S
C208 H182 0.950 . S
C208 C204 1.385 1_545 S
C208 C207 1.374 . S
C209 C206 1.499 . S
C209 C210 1.373 1_545 S
C209 C211 1.389 . S
C210 H183 0.950 . S
C210 C196 1.377 . S
C210 C209 1.373 1_565 S
C211 C195 1.377 1_655 S
C211 C209 1.389 . S
C211 C212 1.524 . S
C212 C211 1.524 . S
C212 C213 1.397 . S
C212 C217 1.363 . S
C213 H184 0.950 . S
C213 C212 1.397 . S
C213 C214 1.334 . S
C214 H185 0.950 . S
C214 C213 1.334 . S
C214 C215 1.287 . S
C215 C214 1.287 . S
C215 C216 1.524 . S
C215 H218 0.999 . S
C216 H186 0.950 . S
C216 C215 1.524 . S
C216 C217 1.415 . S
C217 H187 0.950 . S
C217 C212 1.363 . S
C217 C216 1.415 . S
H218 C215 0.999 . S
H219 C200 0.913 . S
H220 C238 0.951 . S
H221 C240 0.951 . S
H222 C242 0.950 . S
H223 C243 0.950 . S
H224 C245 0.950 . S
H225 C248 0.950 . S
H226 C249 0.950 . S
H227 C251 0.950 . S
H228 C252 0.953 . S
H229 C253 0.951 . S
H230 C255 0.951 . S
H231 C257 0.950 . S
H232 C258 0.950 . S
H233 C260 0.950 . S
H234 C263 0.950 . S
H235 C264 0.950 . S
H236 C266 0.950 . S
H237 C267 0.950 . S
C238 H220 0.951 . S
C238 C239 1.366 . S
C238 C240 1.388 . S
C239 C238 1.366 . S
C239 C243 1.385 . S
C240 H221 0.951 . S
C240 C238 1.388 . S
C240 C241 1.366 . S
C241 C240 1.366 . S
C241 C242 1.414 . S
C241 C244 1.499 1_565 S
C242 H222 0.950 . S
C242 C241 1.414 . S
C242 C243 1.374 . S
C243 H223 0.950 . S
C243 C239 1.385 . S
C243 C242 1.374 . S
C244 C241 1.499 1_545 S
C244 C245 1.373 . S
C244 C246 1.389 . S
C245 H224 0.950 . S
C245 C244 1.373 . S
C245 C261 1.377 . S
C246 C244 1.389 . S
C246 C247 1.524 1_545 S
C246 C260 1.377 1_655 S
C247 C246 1.524 1_565 S
C247 C248 1.397 . S
C247 C252 1.363 1_565 S
C248 H225 0.950 . S
C248 C247 1.397 . S
C248 C249 1.334 . S
C249 H226 0.950 . S
C249 C248 1.334 . S
C249 C250 1.287 . S
C250 C249 1.287 . S
C250 C251 1.524 . S
C250 H269 0.913 . S
C251 H227 0.950 . S
C251 C250 1.524 . S
C251 C252 1.412 1_565 S
C252 H228 0.953 . S
C252 C247 1.363 1_545 S
C252 C251 1.412 1_545 S
C253 H229 0.951 . S
C253 C254 1.366 . S
C253 C255 1.388 . S
C254 C253 1.366 . S
C254 C258 1.385 . S
C255 H230 0.951 . S
C255 C253 1.388 . S
C255 C256 1.366 . S
C256 C255 1.366 . S
C256 C257 1.414 . S
C256 C259 1.499 . S
C257 H231 0.950 . S
C257 C256 1.414 . S
C257 C258 1.374 . S
C258 H232 0.950 . S
C258 C254 1.385 . S
C258 C257 1.374 . S
C259 C256 1.499 . S
C259 C260 1.373 . S
C259 C261 1.389 1_455 S
C260 H233 0.950 . S
C260 C246 1.377 1_455 S
C260 C259 1.373 . S
C261 C245 1.377 . S
C261 C259 1.389 1_655 S
C261 C262 1.524 . S
C262 C261 1.524 . S
C262 C263 1.397 . S
C262 C267 1.363 . S
C263 H234 0.950 . S
C263 C262 1.397 . S
C263 C264 1.334 . S
C264 H235 0.950 . S
C264 C263 1.334 . S
C264 C265 1.287 . S
C265 C264 1.287 . S
C265 C266 1.524 . S
C265 H268 0.999 . S
C266 H236 0.950 . S
C266 C265 1.524 . S
C266 C267 1.415 . S
C267 H237 0.950 . S
C267 C262 1.363 . S
C267 C266 1.415 . S
H268 C265 0.999 . S
H269 C250 0.913 . S
H270 C288 0.951 . S
H271 C290 0.951 . S
H272 C292 0.950 . S
H273 C293 0.950 . S
H274 C295 0.950 . S
H275 C298 0.950 . S
H276 C299 0.950 . S
H277 C301 0.950 . S
H278 C302 0.950 . S
H279 C303 0.951 . S
H280 C305 0.951 . S
H281 C307 0.950 . S
H282 C308 0.950 . S
H283 C310 0.950 . S
H284 C313 0.950 . S
H285 C314 0.950 . S
H286 C316 0.950 . S
H287 C317 0.950 . S
C288 H270 0.951 . S
C288 C289 1.366 . S
C288 C290 1.388 . S
C289 C288 1.366 . S
C289 C293 1.385 . S
C290 H271 0.951 . S
C290 C288 1.388 . S
C290 C291 1.366 . S
C291 C290 1.366 . S
C291 C292 1.414 . S
C291 C294 1.499 . S
C292 H272 0.950 . S
C292 C291 1.414 . S
C292 C293 1.374 . S
C293 H273 0.950 . S
C293 C289 1.385 . S
C293 C292 1.374 . S
C294 C291 1.499 . S
C294 C295 1.373 . S
C294 C296 1.389 . S
C295 H274 0.950 . S
C295 C294 1.373 . S
C295 C311 1.377 . S
C296 C294 1.389 . S
C296 C297 1.524 . S
C296 C310 1.377 . S
C297 C296 1.524 . S
C297 C298 1.397 . S
C297 C302 1.363 . S
C298 H275 0.950 . S
C298 C297 1.397 . S
C298 C299 1.334 . S
C299 H276 0.950 . S
C299 C298 1.334 . S
C299 C300 1.287 . S
C300 C299 1.287 . S
C300 C301 1.524 . S
C300 H319 0.913 . S
C301 H277 0.950 . S
C301 C300 1.524 . S
C301 C302 1.415 . S
C302 H278 0.950 . S
C302 C297 1.363 . S
C302 C301 1.415 . S
C303 H279 0.951 . S
C303 C304 1.366 . S
C303 C305 1.388 . S
C304 C303 1.366 . S
C304 C308 1.385 . S
C305 H280 0.951 . S
C305 C303 1.388 . S
C305 C306 1.366 . S
C306 C305 1.366 . S
C306 C307 1.414 . S
C306 C309 1.499 1_554 S
C307 H281 0.950 . S
C307 C306 1.414 . S
C307 C308 1.374 . S
C308 H282 0.950 . S
C308 C304 1.385 . S
C308 C307 1.374 . S
C309 C306 1.499 1_556 S
C309 C310 1.373 . S
C309 C311 1.389 . S
C310 H283 0.950 . S
C310 C296 1.377 . S
C310 C309 1.373 . S
C311 C295 1.377 . S
C311 C309 1.389 . S
C311 C312 1.524 . S
C312 C311 1.524 . S
C312 C313 1.397 1_556 S
C312 C317 1.363 . S
C313 H284 0.950 . S
C313 C312 1.397 1_554 S
C313 C314 1.334 . S
C314 H285 0.950 . S
C314 C313 1.334 . S
C314 C315 1.287 . S
C315 C314 1.287 . S
C315 C316 1.524 1_554 S
C315 H318 0.999 . S
C316 H286 0.950 . S
C316 C315 1.524 1_556 S
C316 C317 1.415 . S
C317 H287 0.950 . S
C317 C312 1.363 . S
C317 C316 1.415 . S
H318 C315 0.999 . S
H319 C300 0.913 . S
H320 C338 0.951 . S
H321 C340 0.951 . S
H322 C342 0.950 . S
H323 C343 0.950 . S
H324 C345 0.950 . S
H325 C348 0.950 . S
H326 C349 0.950 . S
H327 C351 0.950 . S
H328 C352 0.950 . S
H329 C353 0.951 . S
H330 C355 0.951 . S
H331 C357 0.950 . S
H332 C358 0.950 . S
H333 C360 0.950 . S
H334 C363 0.950 . S
H335 C364 0.950 . S
H336 C366 0.950 . S
H337 C367 0.950 . S
C338 H320 0.951 . S
C338 C339 1.366 . S
C338 C340 1.388 . S
C339 C338 1.366 . S
C339 C343 1.385 . S
C340 H321 0.951 . S
C340 C338 1.388 . S
C340 C341 1.366 . S
C341 C340 1.366 . S
C341 C342 1.414 . S
C341 C344 1.499 . S
C342 H322 0.950 . S
C342 C341 1.414 . S
C342 C343 1.374 . S
C343 H323 0.950 . S
C343 C339 1.385 . S
C343 C342 1.374 . S
C344 C341 1.499 . S
C344 C345 1.373 . S
C344 C346 1.389 . S
C345 H324 0.950 . S
C345 C344 1.373 . S
C345 C361 1.377 . S
C346 C344 1.389 . S
C346 C347 1.524 . S
C346 C360 1.377 . S
C347 C346 1.524 . S
C347 C348 1.397 . S
C347 C352 1.363 . S
C348 H325 0.950 . S
C348 C347 1.397 . S
C348 C349 1.334 . S
C349 H326 0.950 . S
C349 C348 1.334 . S
C349 C350 1.287 . S
C350 C349 1.287 . S
C350 C351 1.524 . S
C350 H369 0.913 . S
C351 H327 0.950 . S
C351 C350 1.524 . S
C351 C352 1.415 . S
C352 H328 0.950 . S
C352 C347 1.363 . S
C352 C351 1.415 . S
C353 H329 0.951 . S
C353 C354 1.366 . S
C353 C355 1.388 . S
C354 C353 1.366 . S
C354 C358 1.385 . S
C355 H330 0.951 . S
C355 C353 1.388 . S
C355 C356 1.366 . S
C356 C355 1.366 . S
C356 C357 1.414 . S
C356 C359 1.499 . S
C357 H331 0.950 . S
C357 C356 1.414 . S
C357 C358 1.374 . S
C358 H332 0.950 . S
C358 C354 1.385 . S
C358 C357 1.374 . S
C359 C356 1.499 . S
C359 C360 1.373 . S
C359 C361 1.389 . S
C360 H333 0.950 . S
C360 C346 1.377 . S
C360 C359 1.373 . S
C361 C345 1.377 . S
C361 C359 1.389 . S
C361 C362 1.524 . S
C362 C361 1.524 . S
C362 C363 1.397 . S
C362 C367 1.363 . S
C363 H334 0.950 . S
C363 C362 1.397 . S
C363 C364 1.334 . S
C364 H335 0.950 . S
C364 C363 1.334 . S
C364 C365 1.287 . S
C365 C364 1.287 . S
C365 C366 1.524 . S
C365 H368 0.999 . S
C366 H336 0.950 . S
C366 C365 1.524 . S
C366 C367 1.415 . S
C367 H337 0.950 . S
C367 C362 1.363 . S
C367 C366 1.415 . S
H368 C365 0.999 . S
H369 C350 0.913 . S
H370 C388 0.951 . S
H371 C390 0.951 . S
H372 C392 0.950 . S
H373 C393 0.950 . S
H374 C395 0.950 . S
H375 C398 0.950 . S
H376 C399 0.950 . S
H377 C401 0.950 . S
H378 C402 0.950 . S
H379 C403 0.951 . S
H380 C405 0.951 . S
H381 C407 0.950 . S
H382 C408 0.950 . S
H383 C410 0.950 . S
H384 C413 0.950 . S
H385 C414 0.950 . S
H386 C416 0.950 . S
H387 C417 0.950 . S
C388 H370 0.951 . S
C388 C389 1.366 . S
C388 C390 1.388 . S
C389 C388 1.366 . S
C389 C393 1.385 . S
C390 H371 0.951 . S
C390 C388 1.388 . S
C390 C391 1.366 . S
C391 C390 1.366 . S
C391 C392 1.414 . S
C391 C394 1.499 . S
C392 H372 0.950 . S
C392 C391 1.414 . S
C392 C393 1.374 . S
C393 H373 0.950 . S
C393 C389 1.385 . S
C393 C392 1.374 . S
C394 C391 1.499 . S
C394 C395 1.373 . S
C394 C396 1.389 . S
C395 H374 0.950 . S
C395 C394 1.373 . S
C395 C411 1.377 . S
C396 C394 1.389 . S
C396 C397 1.524 . S
C396 C410 1.377 . S
C397 C396 1.524 . S
C397 C398 1.397 . S
C397 C402 1.363 . S
C398 H375 0.950 . S
C398 C397 1.397 . S
C398 C399 1.334 . S
C399 H376 0.950 . S
C399 C398 1.334 . S
C399 C400 1.287 . S
C400 C399 1.287 . S
C400 C401 1.524 . S
C400 H419 0.913 1_455 S
C401 H377 0.950 . S
C401 C400 1.524 . S
C401 C402 1.415 . S
C402 H378 0.950 . S
C402 C397 1.363 . S
C402 C401 1.415 . S
C403 H379 0.951 . S
C403 C404 1.366 . S
C403 C405 1.388 . S
C404 C403 1.366 . S
C404 C408 1.385 . S
C405 H380 0.951 . S
C405 C403 1.388 . S
C405 C406 1.366 . S
C406 C405 1.366 . S
C406 C407 1.414 . S
C406 C409 1.499 . S
C407 H381 0.950 . S
C407 C406 1.414 . S
C407 C408 1.374 . S
C408 H382 0.950 . S
C408 C404 1.385 . S
C408 C407 1.374 . S
C409 C406 1.499 . S
C409 C410 1.373 . S
C409 C411 1.389 . S
C410 H383 0.950 . S
C410 C396 1.377 . S
C410 C409 1.373 . S
C411 C395 1.377 . S
C411 C409 1.389 . S
C411 C412 1.524 . S
C412 C411 1.524 . S
C412 C413 1.397 . S
C412 C417 1.363 . S
C413 H384 0.950 . S
C413 C412 1.397 . S
C413 C414 1.334 . S
C414 H385 0.950 . S
C414 C413 1.334 . S
C414 C415 1.287 . S
C415 C414 1.287 . S
C415 C416 1.524 . S
C415 H418 0.999 . S
C416 H386 0.950 . S
C416 C415 1.524 . S
C416 C417 1.415 . S
C417 H387 0.950 . S
C417 C412 1.363 . S
C417 C416 1.415 . S
H418 C415 0.999 . S
H419 C400 0.913 1_655 S
H420 C438 0.951 . S
H421 C440 0.951 1_554 S
H422 C442 0.950 . S
H423 C443 0.950 . S
H424 C445 0.950 . S
H425 C448 0.950 . S
H426 C449 0.950 . S
H427 C451 0.950 . S
H428 C452 0.950 . S
H429 C453 0.951 . S
H430 C455 0.951 . S
H431 C457 0.950 . S
H432 C458 0.950 . S
H433 C460 0.950 . S
H434 C463 0.950 . S
H435 C464 0.950 . S
H436 C466 0.950 . S
H437 C467 0.950 . S
C438 H420 0.951 . S
C438 C439 1.366 . S
C438 C440 1.388 . S
C439 C438 1.366 . S
C439 C443 1.385 . S
C440 H421 0.951 1_556 S
C440 C438 1.388 . S
C440 C441 1.366 . S
C441 C440 1.366 . S
C441 C442 1.414 . S
C441 C444 1.499 1_556 S
C442 H422 0.950 . S
C442 C441 1.414 . S
C442 C443 1.374 . S
C443 H423 0.950 . S
C443 C439 1.385 . S
C443 C442 1.374 . S
C444 C441 1.499 1_554 S
C444 C445 1.373 . S
C444 C446 1.389 . S
C445 H424 0.950 . S
C445 C444 1.373 . S
C445 C461 1.377 . S
C446 C444 1.389 . S
C446 C447 1.524 . S
C446 C460 1.377 . S
C447 C446 1.524 . S
C447 C448 1.397 1_554 S
C447 C452 1.363 . S
C448 H425 0.950 . S
C448 C447 1.397 1_556 S
C448 C449 1.334 . S
C449 H426 0.950 . S
C449 C448 1.334 . S
C449 C450 1.287 . S
C450 C449 1.287 . S
C450 C451 1.524 1_556 S
C450 H469 0.913 . S
C451 H427 0.950 . S
C451 C450 1.524 1_554 S
C451 C452 1.415 . S
C452 H428 0.950 . S
C452 C447 1.363 . S
C452 C451 1.415 . S
C453 H429 0.951 . S
C453 C454 1.366 . S
C453 C455 1.388 . S
C454 C453 1.366 . S
C454 C458 1.385 . S
C455 H430 0.951 . S
C455 C453 1.388 . S
C455 C456 1.366 . S
C456 C455 1.366 . S
C456 C457 1.414 . S
C456 C459 1.499 . S
C457 H431 0.950 . S
C457 C456 1.414 . S
C457 C458 1.374 . S
C458 H432 0.950 . S
C458 C454 1.385 . S
C458 C457 1.374 . S
C459 C456 1.499 . S
C459 C460 1.373 . S
C459 C461 1.389 . S
C460 H433 0.950 . S
C460 C446 1.377 . S
C460 C459 1.373 . S
C461 C445 1.377 . S
C461 C459 1.389 . S
C461 C462 1.524 . S
C462 C461 1.524 . S
C462 C463 1.397 . S
C462 C467 1.363 . S
C463 H434 0.950 . S
C463 C462 1.397 . S
C463 C464 1.334 . S
C464 H435 0.950 . S
C464 C463 1.334 . S
C464 C465 1.287 . S
C465 C464 1.287 . S
C465 C466 1.524 . S
C465 H468 0.999 . S
C466 H436 0.950 . S
C466 C465 1.524 . S
C466 C467 1.415 . S
C467 H437 0.950 . S
C467 C462 1.363 . S
C467 C466 1.415 . S
H468 C465 0.999 . S
H469 C450 0.913 . S
H470 C488 0.951 . S
H471 C490 0.951 . S
H472 C492 0.950 . S
H473 C493 0.950 . S
H474 C495 0.950 . S
H475 C498 0.950 . S
H476 C499 0.950 . S
H477 C501 0.950 . S
H478 C502 0.950 . S
H479 C503 0.951 . S
H480 C505 0.951 . S
H481 C507 0.950 . S
H482 C508 0.950 . S
H483 C510 0.950 . S
H484 C513 0.950 . S
H485 C514 0.950 . S
H486 C516 0.950 . S
H487 C517 0.950 . S
C488 H470 0.951 . S
C488 C489 1.366 . S
C488 C490 1.388 . S
C489 C488 1.366 . S
C489 C493 1.385 . S
C490 H471 0.951 . S
C490 C488 1.388 . S
C490 C491 1.366 . S
C491 C490 1.366 . S
C491 C492 1.414 . S
C491 C494 1.499 . S
C492 H472 0.950 . S
C492 C491 1.414 . S
C492 C493 1.374 . S
C493 H473 0.950 . S
C493 C489 1.385 . S
C493 C492 1.374 . S
C494 C491 1.499 . S
C494 C495 1.373 . S
C494 C496 1.389 . S
C495 H474 0.950 . S
C495 C494 1.373 . S
C495 C511 1.377 . S
C496 C494 1.389 . S
C496 C497 1.524 . S
C496 C510 1.377 . S
C497 C496 1.524 . S
C497 C498 1.397 . S
C497 C502 1.363 . S
C498 H475 0.950 . S
C498 C497 1.397 . S
C498 C499 1.334 . S
C499 H476 0.950 . S
C499 C498 1.334 . S
C499 C500 1.287 . S
C500 C499 1.287 . S
C500 C501 1.524 . S
C500 H519 0.913 . S
C501 H477 0.950 . S
C501 C500 1.524 . S
C501 C502 1.415 . S
C502 H478 0.950 . S
C502 C497 1.363 . S
C502 C501 1.415 . S
C503 H479 0.951 . S
C503 C504 1.366 . S
C503 C505 1.388 . S
C504 C503 1.366 . S
C504 C508 1.385 . S
C505 H480 0.951 . S
C505 C503 1.388 . S
C505 C506 1.366 . S
C506 C505 1.366 . S
C506 C507 1.414 . S
C506 C509 1.499 . S
C507 H481 0.950 . S
C507 C506 1.414 . S
C507 C508 1.374 . S
C508 H482 0.950 . S
C508 C504 1.385 . S
C508 C507 1.374 . S
C509 C506 1.499 . S
C509 C510 1.373 . S
C509 C511 1.389 . S
C510 H483 0.950 . S
C510 C496 1.377 . S
C510 C509 1.373 . S
C511 C495 1.377 . S
C511 C509 1.389 . S
C511 C512 1.524 . S
C512 C511 1.524 . S
C512 C513 1.397 . S
C512 C517 1.363 . S
C513 H484 0.950 . S
C513 C512 1.397 . S
C513 C514 1.334 . S
C514 H485 0.950 . S
C514 C513 1.334 . S
C514 C515 1.287 . S
C515 C514 1.287 . S
C515 C516 1.524 . S
C515 H518 0.999 . S
C516 H486 0.950 . S
C516 C515 1.524 . S
C516 C517 1.415 . S
C517 H487 0.950 . S
C517 C512 1.363 . S
C517 C516 1.415 . S
H518 C515 0.999 . S
H519 C500 0.913 . S
H520 C538 0.951 . S
H521 C540 0.951 . S
H522 C542 0.950 . S
H523 C543 0.950 . S
H524 C545 0.950 . S
H525 C548 0.950 . S
H526 C549 0.950 . S
H527 C551 0.950 . S
H528 C552 0.950 . S
H529 C553 0.951 . S
H530 C555 0.951 . S
H531 C557 0.950 . S
H532 C558 0.950 . S
H533 C560 0.950 . S
H534 C563 0.950 . S
H535 C564 0.950 . S
H536 C566 0.950 . S
H537 C567 0.950 . S
C538 H520 0.951 . S
C538 C539 1.366 . S
C538 C540 1.388 . S
C539 C538 1.366 . S
C539 C543 1.385 . S
C540 H521 0.951 . S
C540 C538 1.388 . S
C540 C541 1.366 . S
C541 C540 1.366 . S
C541 C542 1.414 . S
C541 C544 1.499 . S
C542 H522 0.950 . S
C542 C541 1.414 . S
C542 C543 1.374 . S
C543 H523 0.950 . S
C543 C539 1.385 . S
C543 C542 1.374 . S
C544 C541 1.499 . S
C544 C545 1.373 . S
C544 C546 1.389 . S
C545 H524 0.950 . S
C545 C544 1.373 . S
C545 C561 1.377 . S
C546 C544 1.389 . S
C546 C547 1.524 . S
C546 C560 1.377 . S
C547 C546 1.524 . S
C547 C548 1.397 . S
C547 C552 1.363 . S
C548 H525 0.950 . S
C548 C547 1.397 . S
C548 C549 1.334 . S
C549 H526 0.950 . S
C549 C548 1.334 . S
C549 C550 1.287 . S
C550 C549 1.287 . S
C550 C551 1.524 . S
C550 H569 0.913 . S
C551 H527 0.950 . S
C551 C550 1.524 . S
C551 C552 1.415 . S
C552 H528 0.950 . S
C552 C547 1.363 . S
C552 C551 1.415 . S
C553 H529 0.951 . S
C553 C554 1.366 . S
C553 C555 1.388 . S
C554 C553 1.366 . S
C554 C558 1.385 . S
C555 H530 0.951 . S
C555 C553 1.388 . S
C555 C556 1.366 . S
C556 C555 1.366 . S
C556 C557 1.414 . S
C556 C559 1.499 . S
C557 H531 0.950 . S
C557 C556 1.414 . S
C557 C558 1.374 . S
C558 H532 0.950 . S
C558 C554 1.385 . S
C558 C557 1.374 . S
C559 C556 1.499 . S
C559 C560 1.373 . S
C559 C561 1.389 . S
C560 H533 0.950 . S
C560 C546 1.377 . S
C560 C559 1.373 . S
C561 C545 1.377 . S
C561 C559 1.389 . S
C561 C562 1.524 . S
C562 C561 1.524 . S
C562 C563 1.397 . S
C562 C567 1.363 . S
C563 H534 0.950 . S
C563 C562 1.397 . S
C563 C564 1.334 . S
C564 H535 0.950 . S
C564 C563 1.334 . S
C564 C565 1.287 . S
C565 C564 1.287 . S
C565 C566 1.524 . S
C565 H568 0.999 . S
C566 H536 0.950 . S
C566 C565 1.524 . S
C566 C567 1.415 . S
C567 H537 0.950 . S
C567 C562 1.363 . S
C567 C566 1.415 . S
H568 C565 0.999 . S
H569 C550 0.913 . S
C139 C23 1.381 . S
C154 C2 1.381 . S
C189 C42 1.381 1_545 S
C204 C63 1.381 1_565 S
C239 C82 1.380 . S
C254 C103 1.380 . S
C289 C111 0.978 . S
C304 C4 0.956 . S
C339 C60 1.515 . S
C354 C25 1.498 . S
C389 C84 0.955 . S
C404 C71 0.978 . S
C439 C105 1.499 . S
C454 C20 1.515 1_655 S
C489 C31 0.978 . S
C504 C44 0.957 . S
C539 C100 1.515 . S
C554 C65 1.499 . S
