# Generated by pormake.
# Topology msp, (4)-cn, num edge types: 1
# Building blocks:
#     Node 0, Type 0, BuildingBlock: NAWXER_clean_sbu_0, # of connection points: 4
#     Node 1, Type 0, BuildingBlock: NAWXER_clean_sbu_0, # of connection points: 4
#     Node 2, Type 0, BuildingBlock: NAWXER_clean_sbu_0, # of connection points: 4
#     Node 3, Type 0, BuildingBlock: NAWXER_clean_sbu_0, # of connection points: 4
#     Node 4, Type 0, BuildingBlock: NAWXER_clean_sbu_0, # of connection points: 4
#     Node 5, Type 0, BuildingBlock: NAWXER_clean_sbu_0, # of connection points: 4
#     Node 6, Type 0, BuildingBlock: NAWXER_clean_sbu_0, # of connection points: 4
#     Node 7, Type 0, BuildingBlock: NAWXER_clean_sbu_0, # of connection points: 4
#     Edge 8, Type (0, 0), BuildingBlock: TEMPAE_clean_linker_10, # of connection points: 2
#     Edge 9, Type (0, 0), BuildingBlock: TEMPAE_clean_linker_10, # of connection points: 2
#     Edge 10, Type (0, 0), BuildingBlock: TEMPAE_clean_linker_10, # of connection points: 2
#     Edge 11, Type (0, 0), BuildingBlock: TEMPAE_clean_linker_10, # of connection points: 2
#     Edge 12, Type (0, 0), BuildingBlock: TEMPAE_clean_linker_10, # of connection points: 2
#     Edge 13, Type (0, 0), BuildingBlock: TEMPAE_clean_linker_10, # of connection points: 2
#     Edge 14, Type (0, 0), BuildingBlock: TEMPAE_clean_linker_10, # of connection points: 2
#     Edge 15, Type (0, 0), BuildingBlock: TEMPAE_clean_linker_10, # of connection points: 2
#     Edge 16, Type (0, 0), BuildingBlock: TEMPAE_clean_linker_10, # of connection points: 2
#     Edge 17, Type (0, 0), BuildingBlock: TEMPAE_clean_linker_10, # of connection points: 2
#     Edge 18, Type (0, 0), BuildingBlock: TEMPAE_clean_linker_10, # of connection points: 2
#     Edge 19, Type (0, 0), BuildingBlock: TEMPAE_clean_linker_10, # of connection points: 2
#     Edge 20, Type (0, 0), BuildingBlock: TEMPAE_clean_linker_10, # of connection points: 2
#     Edge 21, Type (0, 0), BuildingBlock: TEMPAE_clean_linker_10, # of connection points: 2
#     Edge 22, Type (0, 0), BuildingBlock: TEMPAE_clean_linker_10, # of connection points: 2
#     Edge 23, Type (0, 0), BuildingBlock: TEMPAE_clean_linker_10, # of connection points: 2
# Relax obj value: 0.113
# Max RMSD: 0.238
# Mean RMSD: 0.238
data_MOF--net-msp--node1-NAWXER_clean_sbu_0--edge1-TEMPAE_clean_linker_10
_symmetry_space_group_name_H-M    P1
_symmetry_Int_Tables_number       1
_symmetry_cell_setting            triclinic
loop_
_symmetry_equiv_pos_as_xyz
'x, y, z'
_cell_length_a     23.094551
_cell_length_b     19.641269
_cell_length_c     44.992595
_cell_angle_alpha  89.974916
_cell_angle_beta   100.70354
_cell_angle_gamma 90.015632
loop_
_atom_site_label
_atom_site_type_symbol
_atom_site_fract_x
_atom_site_fract_y
_atom_site_fract_z
_atom_type_partial_charge
C0 C 0.11574 0.23516 0.39832 0.0
C1 C 0.9516 0.29936 0.32022 0.0
O2 O 0.12358 0.29391 0.38719 0.0
Zn3 Zn 0.07582 0.36092 0.35281 0.0
O4 O 0.06977 0.20108 0.38778 0.0
Zn5 Zn 0.03566 0.26871 0.35915 0.0
O6 O 0.09514 0.26632 0.32645 0.0
O7 O 0.13099 0.37055 0.32648 0.0
O8 O 0.95927 0.24752 0.3372 0.0
O9 O 0.99145 0.34575 0.32293 0.0
O10 O 0.06674 0.43949 0.37702 0.0
O11 O 0.0209 0.34912 0.39017 0.0
C12 C 0.12941 0.30966 0.31702 0.0
C13 C 0.03692 0.41142 0.39464 0.0
C14 C 0.3642 0.2994 0.68461 0.0
C15 C 0.46118 0.39458 0.60694 0.0
O16 O 0.3899 0.25277 0.67188 0.0
Zn17 Zn 0.44964 0.25001 0.63999 0.0
O18 O 0.37209 0.36137 0.67854 0.0
Zn19 Zn 0.42092 0.3468 0.64872 0.0
O20 O 0.36432 0.28784 0.61339 0.0
O21 O 0.40889 0.18902 0.61061 0.0
O22 O 0.43491 0.42498 0.62551 0.0
O23 O 0.47165 0.33041 0.61013 0.0
O24 O 0.52187 0.21546 0.66238 0.0
O25 O 0.50624 0.3211 0.67519 0.0
C26 C 0.36609 0.22883 0.60118 0.0
C27 C 0.53856 0.26749 0.67822 0.0
C28 C 0.9072 0.69099 0.67872 0.0
C29 C 0.00148 0.61726 0.59616 0.0
O30 O 0.91224 0.63117 0.66881 0.0
Zn31 Zn 0.96206 0.65374 0.64065 0.0
O32 O 0.93348 0.74089 0.6683 0.0
Zn33 Zn 0.9871 0.75375 0.63354 0.0
O34 O 0.94067 0.81647 0.60684 0.0
O35 O 0.90126 0.71397 0.60814 0.0
O36 O 0.00608 0.68169 0.60042 0.0
O37 O 0.98245 0.58038 0.61544 0.0
O38 O 0.04384 0.68424 0.66911 0.0
O39 O 0.0618 0.78721 0.65351 0.0
C40 C 0.8993 0.77473 0.5974 0.0
C41 C 0.07698 0.7371 0.67089 0.0
C42 C 0.43636 0.72266 0.33166 0.0
C43 C 0.61597 0.75608 0.40394 0.0
O44 O 0.45673 0.77465 0.3466 0.0
Zn45 Zn 0.5279 0.73636 0.36797 0.0
O46 O 0.46513 0.66639 0.3354 0.0
Zn47 Zn 0.54793 0.63431 0.36291 0.0
O48 O 0.52561 0.5647 0.38896 0.0
O49 O 0.50486 0.66854 0.4024 0.0
O50 O 0.61154 0.69399 0.39471 0.0
O51 O 0.57655 0.79904 0.39319 0.0
O52 O 0.58037 0.71634 0.33366 0.0
O53 O 0.59578 0.60547 0.33439 0.0
C54 C 0.50715 0.60415 0.40749 0.0
C55 C 0.60373 0.66379 0.32369 0.0
C56 C 0.62454 0.80429 0.81748 0.0
C57 C 0.53244 0.90381 0.89578 0.0
O58 O 0.59878 0.75851 0.83069 0.0
Zn59 Zn 0.54025 0.75809 0.86325 0.0
O60 O 0.61759 0.86658 0.82328 0.0
Zn61 Zn 0.56975 0.85372 0.85359 0.0
O62 O 0.62676 0.79459 0.88881 0.0
O63 O 0.58072 0.69697 0.89239 0.0
O64 O 0.55764 0.93297 0.87644 0.0
O65 O 0.52107 0.83976 0.89318 0.0
O66 O 0.46721 0.72409 0.8419 0.0
O67 O 0.48379 0.82851 0.82777 0.0
C68 C 0.62437 0.73593 0.90128 0.0
C69 C 0.45086 0.77542 0.82553 0.0
C70 C 0.88751 0.77871 0.18634 0.0
C71 C 0.97453 0.89324 0.10937 0.0
O72 O 0.91604 0.73651 0.17266 0.0
Zn73 Zn 0.9734 0.74429 0.13931 0.0
O74 O 0.88998 0.84196 0.18097 0.0
Zn75 Zn 0.93874 0.83624 0.15095 0.0
O76 O 0.88459 0.77746 0.11501 0.0
O77 O 0.93476 0.68415 0.10893 0.0
O78 O 0.94836 0.91898 0.12913 0.0
O79 O 0.98804 0.82981 0.11099 0.0
O80 O 0.04991 0.71565 0.15884 0.0
O81 O 0.02415 0.81234 0.17749 0.0
C82 C 0.88932 0.72109 0.10115 0.0
C83 C 0.06146 0.76389 0.17762 0.0
C84 C 0.50635 0.13081 0.09443 0.0
C85 C 0.41112 0.20367 0.17674 0.0
O86 O 0.49094 0.09413 0.11487 0.0
Zn87 Zn 0.46882 0.16774 0.13907 0.0
O88 O 0.50717 0.19588 0.09728 0.0
Zn89 Zn 0.48419 0.2692 0.12949 0.0
O90 O 0.55498 0.31286 0.14951 0.0
O91 O 0.55165 0.20586 0.16344 0.0
O92 O 0.43012 0.25451 0.1634 0.0
O93 O 0.42544 0.14372 0.17047 0.0
O94 O 0.40139 0.21983 0.10567 0.0
O95 O 0.43346 0.32528 0.10193 0.0
C96 C 0.57843 0.26336 0.16529 0.0
C97 C 0.39481 0.2796 0.09374 0.0
C98 C 0.91295 0.23232 0.83326 0.0
C99 C 0.09257 0.27142 0.90551 0.0
O100 O 0.92808 0.28222 0.85076 0.0
Zn101 Zn 0.00359 0.2495 0.87032 0.0
O102 O 0.94646 0.17984 0.83481 0.0
Zn103 Zn 0.02883 0.14985 0.86292 0.0
O104 O 0.00976 0.07637 0.88852 0.0
O105 O 0.98687 0.17742 0.90403 0.0
O106 O 0.09051 0.21066 0.8948 0.0
O107 O 0.05057 0.31272 0.89656 0.0
O108 O 0.0563 0.23727 0.83503 0.0
O109 O 0.07787 0.12768 0.83431 0.0
C110 C 0.99187 0.11299 0.90822 0.0
C111 C 0.08248 0.18761 0.82439 0.0
C112 C 0.9798 0.43208 0.43605 0.0
C113 C 0.02856 0.44653 0.42265 0.0
C114 C 0.97457 0.46091 0.46406 0.0
C115 C 0.02033 0.50296 0.47955 0.0
C116 C 0.06976 0.51735 0.46611 0.0
C117 C 0.07277 0.48993 0.43761 0.0
C118 C 0.92025 0.44614 0.47715 0.0
C119 C 0.12026 0.5603 0.48218 0.0
C120 C 0.99079 0.62595 0.54028 0.0
C121 C 0.00958 0.5884 0.56685 0.0
C122 C 0.99312 0.59834 0.51176 0.0
C123 C 0.01656 0.53225 0.50975 0.0
C124 C 0.0369 0.49464 0.53659 0.0
C125 C 0.03204 0.52267 0.56483 0.0
C126 C 0.96909 0.6393 0.48377 0.0
C127 C 0.06402 0.42497 0.53548 0.0
H128 H 0.94571 0.39831 0.42457 0.0
H129 H 0.11112 0.50016 0.42761 0.0
H130 H 0.93263 0.41807 0.49879 0.0
H131 H 0.89928 0.49456 0.4822 0.0
H132 H 0.88734 0.41545 0.46157 0.0
H133 H 0.15611 0.5655 0.46894 0.0
H134 H 0.10428 0.61189 0.4866 0.0
H135 H 0.13883 0.53722 0.50443 0.0
H136 H 0.97219 0.67628 0.54174 0.0
H137 H 0.04639 0.49356 0.58536 0.0
H138 H 0.93102 0.61215 0.47017 0.0
H139 H 0.00293 0.6448 0.46937 0.0
H140 H 0.95448 0.69091 0.48927 0.0
H141 H 0.03097 0.38915 0.5231 0.0
H142 H 0.08069 0.40399 0.5584 0.0
H143 H 0.10108 0.42743 0.52295 0.0
C144 C 0.52047 0.61145 0.46358 0.0
C145 C 0.49668 0.57725 0.43674 0.0
C146 C 0.51714 0.5834 0.49196 0.0
C147 C 0.48731 0.5208 0.49353 0.0
C148 C 0.46154 0.48715 0.46638 0.0
C149 C 0.46772 0.51505 0.43831 0.0
C150 C 0.54707 0.61978 0.52024 0.0
C151 C 0.42751 0.42165 0.46698 0.0
C152 C 0.51748 0.41095 0.56475 0.0
C153 C 0.47166 0.43053 0.57943 0.0
C154 C 0.52425 0.44143 0.53726 0.0
C155 C 0.48283 0.49069 0.52355 0.0
C156 C 0.43645 0.51047 0.53832 0.0
C157 C 0.43205 0.48104 0.56628 0.0
C158 C 0.57543 0.42052 0.52277 0.0
C159 C 0.39027 0.56109 0.52412 0.0
H160 H 0.54399 0.65889 0.46239 0.0
H161 H 0.44954 0.48852 0.41754 0.0
H162 H 0.5147 0.63156 0.53488 0.0
H163 H 0.58113 0.58619 0.53341 0.0
H164 H 0.56843 0.66798 0.51512 0.0
H165 H 0.40729 0.40399 0.44393 0.0
H166 H 0.45713 0.38109 0.47822 0.0
H167 H 0.39208 0.42862 0.48034 0.0
H168 H 0.54808 0.37184 0.57481 0.0
H169 H 0.39589 0.49552 0.57725 0.0
H170 H 0.60039 0.46619 0.51787 0.0
H171 H 0.5589 0.39485 0.50089 0.0
H172 H 0.60608 0.3854 0.53734 0.0
H173 H 0.41128 0.61022 0.52017 0.0
H174 H 0.35669 0.57063 0.53839 0.0
H175 H 0.36761 0.54195 0.50175 0.0
C176 C 0.54195 0.03713 0.06441 0.0
C177 C 0.5135 0.09985 0.06536 0.0
C178 C 0.54509 0.00592 0.03657 0.0
C179 C 0.51681 0.03679 0.00917 0.0
C180 C 0.48724 0.0997 0.01017 0.0
C181 C 0.48692 0.13101 0.0382 0.0
C182 C 0.57882 0.94009 0.03647 0.0
C183 C 0.4547 0.1332 0.98169 0.0
C184 C 0.56512 0.99196 0.93519 0.0
C185 C 0.52469 0.94099 0.92345 0.0
C186 C 0.56343 0.02284 0.96316 0.0
C187 C 0.51897 0.00404 0.97942 0.0
C188 C 0.47682 0.95411 0.96722 0.0
C189 C 0.48088 0.9222 0.93965 0.0
C190 C 0.61027 0.07426 0.9757 0.0
C191 C 0.42759 0.9342 0.98335 0.0
H192 H 0.56219 0.01287 0.08543 0.0
H193 H 0.4637 0.17881 0.03894 0.0
H194 H 0.54865 0.89883 0.02642 0.0
H195 H 0.61301 0.94558 0.02225 0.0
H196 H 0.60055 0.92432 0.05957 0.0
H197 H 0.43305 0.18149 0.98641 0.0
H198 H 0.4855 0.14425 0.96611 0.0
H199 H 0.42051 0.09807 0.96971 0.0
H200 H 0.59979 0.00583 0.92306 0.0
H201 H 0.4497 0.88269 0.9307 0.0
H202 H 0.63431 0.05703 0.99812 0.0
H203 H 0.58964 0.12391 0.97913 0.0
H204 H 0.64262 0.08215 0.96057 0.0
H205 H 0.44611 0.91057 0.00546 0.0
H206 H 0.39635 0.89769 0.97001 0.0
H207 H 0.40279 0.98015 0.98802 0.0
C208 C 0.02717 0.91885 0.06669 0.0
C209 C 0.98104 0.9327 0.0821 0.0
C210 C 0.02979 0.95064 0.03893 0.0
C211 C 0.98391 0.99522 0.02567 0.0
C212 C 0.93738 0.00956 0.04126 0.0
C213 C 0.93706 0.97905 0.06951 0.0
C214 C 0.08125 0.93578 0.02359 0.0
C215 C 0.88674 0.05517 0.0276 0.0
C216 C 0.00839 0.11999 0.96437 0.0
C217 C 0.98595 0.08382 0.93784 0.0
C218 C 0.0087 0.0915 0.99304 0.0
C219 C 0.98407 0.02608 0.9953 0.0
C220 C 0.95982 0.99009 0.96852 0.0
C221 C 0.96221 0.01882 0.94008 0.0
C222 C 0.03705 0.1306 0.02086 0.0
C223 C 0.93134 0.92126 0.96992 0.0
H224 H 0.0611 0.88285 0.07631 0.0
H225 H 0.90068 0.98891 0.08105 0.0
H226 H 0.06566 0.90853 0.002 0.0
H227 H 0.10178 0.98408 0.01801 0.0
H228 H 0.11543 0.90417 0.0379 0.0
H229 H 0.85393 0.0612 0.04261 0.0
H230 H 0.90337 0.10626 0.02288 0.0
H231 H 0.86414 0.03367 0.00569 0.0
H232 H 0.02793 0.16974 0.96268 0.0
H233 H 0.94502 0.99078 0.91959 0.0
H234 H 0.07517 0.10144 0.03325 0.0
H235 H 0.00545 0.13718 0.03642 0.0
H236 H 0.05275 0.18165 0.01523 0.0
H237 H 0.96442 0.88396 0.98107 0.0
H238 H 0.91163 0.90165 0.94713 0.0
H239 H 0.89631 0.92443 0.98375 0.0
C240 C 0.67339 0.21813 0.19448 0.0
C241 C 0.635 0.27302 0.18642 0.0
C242 C 0.72669 0.22677 0.21498 0.0
C243 C 0.7409 0.29133 0.22846 0.0
C244 C 0.70228 0.34699 0.22032 0.0
C245 C 0.6502 0.33736 0.19905 0.0
C246 C 0.76746 0.16658 0.22248 0.0
C247 C 0.71492 0.41609 0.23484 0.0
C248 C 0.84354 0.28413 0.30467 0.0
C249 C 0.89722 0.30455 0.29729 0.0
C250 C 0.79185 0.28255 0.2827 0.0
C251 C 0.79444 0.29935 0.25237 0.0
C252 C 0.84852 0.32101 0.24488 0.0
C253 C 0.89924 0.32446 0.26762 0.0
C254 C 0.73474 0.26152 0.29186 0.0
C255 C 0.85336 0.33754 0.21267 0.0
H256 H 0.66196 0.16851 0.18455 0.0
H257 H 0.62035 0.37983 0.19301 0.0
H258 H 0.81267 0.18034 0.21954 0.0
H259 H 0.77002 0.15194 0.2465 0.0
H260 H 0.75253 0.12164 0.2081 0.0
H261 H 0.68085 0.45436 0.22564 0.0
H262 H 0.71697 0.41193 0.25961 0.0
H263 H 0.75842 0.435 0.23137 0.0
H264 H 0.84208 0.26909 0.32772 0.0
H265 H 0.94103 0.3395 0.26194 0.0
H266 H 0.71974 0.21215 0.28116 0.0
H267 H 0.69984 0.2996 0.28382 0.0
H268 H 0.73924 0.25604 0.31676 0.0
H269 H 0.84308 0.29145 0.1984 0.0
H270 H 0.89808 0.35573 0.21076 0.0
H271 H 0.82078 0.37712 0.20334 0.0
C272 C 0.63152 0.32017 0.70623 0.0
C273 C 0.59337 0.26428 0.70098 0.0
C274 C 0.68474 0.31582 0.72721 0.0
C275 C 0.69866 0.25506 0.74407 0.0
C276 C 0.65934 0.19916 0.73929 0.0
C277 C 0.60773 0.20405 0.71739 0.0
C278 C 0.72646 0.37571 0.73099 0.0
C279 C 0.6714 0.13442 0.75754 0.0
C280 C 0.8561 0.21232 0.78123 0.0
C281 C 0.85793 0.23616 0.8107 0.0
C282 C 0.80503 0.21998 0.75903 0.0
C283 C 0.75406 0.24975 0.76691 0.0
C284 C 0.75547 0.27253 0.7969 0.0
C285 C 0.80783 0.26668 0.81829 0.0
C286 C 0.80584 0.19706 0.72708 0.0
C287 C 0.70149 0.30216 0.80651 0.0
H288 H 0.62048 0.36654 0.69334 0.0
H289 H 0.57782 0.16104 0.7135 0.0
H290 H 0.7329 0.39496 0.75454 0.0
H291 H 0.77026 0.35944 0.7268 0.0
H292 H 0.71016 0.41819 0.71535 0.0
H293 H 0.63498 0.09691 0.75198 0.0
H294 H 0.71257 0.11041 0.75333 0.0
H295 H 0.6779 0.14625 0.78205 0.0
H296 H 0.89523 0.18961 0.77531 0.0
H297 H 0.80936 0.28495 0.84116 0.0
H298 H 0.79253 0.23973 0.71109 0.0
H299 H 0.77356 0.15537 0.72066 0.0
H300 H 0.85 0.17872 0.72427 0.0
H301 H 0.68703 0.34859 0.79315 0.0
H302 H 0.7095 0.3156 0.83091 0.0
H303 H 0.66465 0.26506 0.80196 0.0
C304 C 0.18255 0.7689 0.68547 0.0
C305 C 0.13179 0.74101 0.69346 0.0
C306 C 0.23482 0.77506 0.70686 0.0
C307 C 0.2354 0.75544 0.7372 0.0
C308 C 0.18376 0.72828 0.74546 0.0
C309 C 0.13277 0.7201 0.72328 0.0
C310 C 0.28955 0.80165 0.69691 0.0
C311 C 0.18216 0.70878 0.77776 0.0
C312 C 0.38054 0.71017 0.78772 0.0
C313 C 0.39593 0.77163 0.80294 0.0
C314 C 0.32888 0.70461 0.76593 0.0
C315 C 0.29062 0.76125 0.76005 0.0
C316 C 0.30553 0.82329 0.77573 0.0
C317 C 0.35878 0.82814 0.79664 0.0
C318 C 0.3157 0.63838 0.74894 0.0
C319 C 0.26491 0.88411 0.77072 0.0
H320 H 0.18158 0.78485 0.6623 0.0
H321 H 0.09307 0.69942 0.72943 0.0
H322 H 0.30474 0.84899 0.70937 0.0
H323 H 0.32566 0.7638 0.70232 0.0
H324 H 0.28211 0.81262 0.67227 0.0
H325 H 0.1376 0.69215 0.78074 0.0
H326 H 0.21369 0.6668 0.78508 0.0
H327 H 0.19599 0.75267 0.79296 0.0
H328 H 0.4097 0.66665 0.79241 0.0
H329 H 0.37064 0.87548 0.80862 0.0
H330 H 0.30979 0.64772 0.72423 0.0
H331 H 0.27393 0.61641 0.75341 0.0
H332 H 0.3513 0.60017 0.75536 0.0
H333 H 0.25915 0.90117 0.74685 0.0
H334 H 0.28178 0.92759 0.78563 0.0
H335 H 0.2207 0.86975 0.775 0.0
C336 C 0.3429 0.67309 0.30263 0.0
C337 C 0.38113 0.72861 0.30929 0.0
C338 C 0.2897 0.67962 0.28181 0.0
C339 C 0.27566 0.74247 0.26667 0.0
C340 C 0.31474 0.79828 0.27301 0.0
C341 C 0.36655 0.79093 0.29458 0.0
C342 C 0.24834 0.61952 0.2762 0.0
C343 C 0.30234 0.86542 0.25666 0.0
C344 C 0.16805 0.73621 0.19194 0.0
C345 C 0.11672 0.7623 0.20003 0.0
C346 C 0.22042 0.73078 0.21329 0.0
C347 C 0.22074 0.7496 0.24369 0.0
C348 C 0.16883 0.77578 0.252 0.0
C349 C 0.11758 0.78295 0.22989 0.0
C350 C 0.27538 0.70504 0.2033 0.0
C351 C 0.16708 0.7947 0.28435 0.0
H352 H 0.35402 0.62506 0.31416 0.0
H353 H 0.39642 0.83377 0.29951 0.0
H354 H 0.20412 0.63431 0.2803 0.0
H355 H 0.24295 0.60326 0.25224 0.0
H356 H 0.26439 0.57538 0.29089 0.0
H357 H 0.3379 0.90334 0.26382 0.0
H358 H 0.29739 0.8574 0.2319 0.0
H359 H 0.26026 0.88705 0.26088 0.0
H360 H 0.16731 0.72055 0.16876 0.0
H361 H 0.07758 0.80235 0.23617 0.0
H362 H 0.29012 0.65689 0.21522 0.0
H363 H 0.31162 0.74252 0.20937 0.0
H364 H 0.26836 0.69568 0.17854 0.0
H365 H 0.17951 0.75002 0.29928 0.0
H366 H 0.12282 0.81261 0.2872 0.0
H367 H 0.19961 0.83545 0.29211 0.0
C368 C 0.331 0.27082 0.19308 0.0
C369 C 0.36952 0.21507 0.19762 0.0
C370 C 0.28984 0.28189 0.21193 0.0
C371 C 0.28838 0.23738 0.23655 0.0
C372 C 0.32738 0.18104 0.24132 0.0
C373 C 0.36687 0.16992 0.22146 0.0
C374 C 0.248 0.34145 0.20551 0.0
C375 C 0.32843 0.13359 0.26782 0.0
C376 C 0.22644 0.31722 0.30082 0.0
C377 C 0.16994 0.28856 0.29688 0.0
C378 C 0.26612 0.29879 0.28211 0.0
C379 C 0.24818 0.25231 0.25813 0.0
C380 C 0.19108 0.22306 0.25404 0.0
C381 C 0.15293 0.24065 0.27386 0.0
C382 C 0.32712 0.32961 0.28789 0.0
C383 C 0.16966 0.17496 0.22818 0.0
H384 H 0.33227 0.30523 0.17436 0.0
H385 H 0.39664 0.12678 0.22501 0.0
H386 H 0.20188 0.3239 0.2041 0.0
H387 H 0.25735 0.37879 0.22427 0.0
H388 H 0.25156 0.36786 0.18408 0.0
H389 H 0.36066 0.09151 0.26807 0.0
H390 H 0.34004 0.16258 0.28927 0.0
H391 H 0.28414 0.11128 0.26725 0.0
H392 H 0.23996 0.3536 0.31891 0.0
H393 H 0.10916 0.21865 0.27077 0.0
H394 H 0.33254 0.363 0.26871 0.0
H395 H 0.36089 0.28891 0.28954 0.0
H396 H 0.33583 0.36026 0.309 0.0
H397 H 0.16951 0.20142 0.20636 0.0
H398 H 0.12452 0.15567 0.22843 0.0
H399 H 0.19995 0.13092 0.22908 0.0
C400 C 0.32106 0.32058 0.73073 0.0
C401 C 0.32355 0.28104 0.7051 0.0
C402 C 0.282 0.30405 0.75016 0.0
C403 C 0.24283 0.24834 0.74305 0.0
C404 C 0.24458 0.209 0.71684 0.0
C405 C 0.28577 0.22503 0.69851 0.0
C406 C 0.28311 0.34575 0.77844 0.0
C407 C 0.20223 0.15079 0.70785 0.0
C408 C 0.17538 0.1662 0.80526 0.0
C409 C 0.12164 0.20093 0.80253 0.0
C410 C 0.21544 0.18155 0.78624 0.0
C411 C 0.20038 0.231 0.76317 0.0
C412 C 0.14521 0.26463 0.75972 0.0
C413 C 0.107 0.25022 0.77988 0.0
C414 C 0.27455 0.14622 0.79141 0.0
C415 C 0.12652 0.31577 0.73472 0.0
H416 H 0.35049 0.36374 0.73587 0.0
H417 H 0.28722 0.19498 0.67844 0.0
H418 H 0.24003 0.37129 0.7776 0.0
H419 H 0.29039 0.312 0.79859 0.0
H420 H 0.31818 0.38523 0.78146 0.0
H421 H 0.20752 0.12728 0.68606 0.0
H422 H 0.20906 0.11091 0.72561 0.0
H423 H 0.15619 0.16912 0.70575 0.0
H424 H 0.18705 0.12868 0.82305 0.0
H425 H 0.06532 0.27687 0.77771 0.0
H426 H 0.31041 0.18461 0.79577 0.0
H427 H 0.28 0.11752 0.7709 0.0
H428 H 0.28003 0.11032 0.81082 0.0
H429 H 0.15627 0.36055 0.73811 0.0
H430 H 0.08057 0.33365 0.73374 0.0
H431 H 0.13005 0.29297 0.71256 0.0
C432 C 0.70224 0.7287 0.80379 0.0
C433 C 0.66455 0.78467 0.79689 0.0
C434 C 0.74342 0.71208 0.78555 0.0
C435 C 0.74523 0.7508 0.75916 0.0
C436 C 0.70597 0.80628 0.75168 0.0
C437 C 0.66692 0.82341 0.77101 0.0
C438 C 0.78587 0.65414 0.79489 0.0
C439 C 0.70497 0.84731 0.7232 0.0
C440 C 0.88171 0.75342 0.72296 0.0
C441 C 0.86766 0.7039 0.70039 0.0
C442 C 0.84311 0.7676 0.74293 0.0
C443 C 0.78816 0.73343 0.73935 0.0
C444 C 0.77373 0.68365 0.7164 0.0
C445 C 0.81418 0.66859 0.69757 0.0
C446 C 0.8611 0.81917 0.76781 0.0
C447 C 0.71487 0.64775 0.71112 0.0
H448 H 0.70088 0.69931 0.82405 0.0
H449 H 0.63756 0.86657 0.76565 0.0
H450 H 0.7798 0.61421 0.77717 0.0
H451 H 0.83188 0.67282 0.79735 0.0
H452 H 0.78002 0.63059 0.8166 0.0
H453 H 0.6695 0.8863 0.7198 0.0
H454 H 0.74785 0.8734 0.72413 0.0
H455 H 0.69842 0.81305 0.70325 0.0
H456 H 0.92322 0.78049 0.7252 0.0
H457 H 0.80299 0.63087 0.67984 0.0
H458 H 0.85723 0.79666 0.78999 0.0
H459 H 0.83115 0.86373 0.7641 0.0
H460 H 0.90703 0.83731 0.76896 0.0
H461 H 0.70909 0.61965 0.73175 0.0
H462 H 0.71008 0.61124 0.69197 0.0
H463 H 0.67879 0.68578 0.70629 0.0
C464 C 0.81299 0.69727 0.19938 0.0
C465 C 0.8494 0.75409 0.20705 0.0
C466 C 0.77202 0.67767 0.21733 0.0
C467 C 0.76911 0.71436 0.24414 0.0
C468 C 0.80782 0.76994 0.25261 0.0
C469 C 0.8466 0.79001 0.23361 0.0
C470 C 0.73022 0.61968 0.20695 0.0
C471 C 0.80781 0.8088 0.28156 0.0
C472 C 0.63088 0.72115 0.27866 0.0
C473 C 0.64317 0.67214 0.30157 0.0
C474 C 0.67016 0.73283 0.25881 0.0
C475 C 0.7242 0.6967 0.26283 0.0
C476 C 0.7365 0.64662 0.28581 0.0
C477 C 0.69526 0.63406 0.30455 0.0
C478 C 0.65427 0.78474 0.23386 0.0
C479 C 0.79431 0.60856 0.29154 0.0
H480 H 0.8147 0.67004 0.1786 0.0
H481 H 0.87501 0.83377 0.23958 0.0
H482 H 0.73289 0.58065 0.22495 0.0
H483 H 0.68427 0.63903 0.20234 0.0
H484 H 0.73948 0.59491 0.18614 0.0
H485 H 0.8444 0.84628 0.28629 0.0
H486 H 0.76555 0.8365 0.28013 0.0
H487 H 0.81173 0.77303 0.30094 0.0
H488 H 0.59041 0.75031 0.27626 0.0
H489 H 0.70507 0.59663 0.32251 0.0
H490 H 0.66022 0.76276 0.21191 0.0
H491 H 0.68401 0.82937 0.23845 0.0
H492 H 0.60808 0.80276 0.23169 0.0
H493 H 0.8011 0.58203 0.27071 0.0
H494 H 0.79663 0.57042 0.30996 0.0
H495 H 0.83118 0.64517 0.29777 0.0
C496 C 0.27373 0.2533 0.56441 0.0
C497 C 0.32258 0.21113 0.57392 0.0
C498 C 0.23806 0.24475 0.5359 0.0
C499 C 0.25196 0.19308 0.51644 0.0
C500 C 0.29858 0.14727 0.52674 0.0
C501 C 0.33331 0.15669 0.55548 0.0
C502 C 0.18797 0.294 0.52587 0.0
C503 C 0.31454 0.09149 0.50663 0.0
C504 C 0.13666 0.1665 0.44579 0.0
C505 C 0.15594 0.21274 0.42594 0.0
C506 C 0.16921 0.15635 0.47503 0.0
C507 C 0.22227 0.19289 0.4843 0.0
C508 C 0.24421 0.23536 0.46349 0.0
C509 C 0.21062 0.24493 0.43456 0.0
C510 C 0.1446 0.11057 0.49661 0.0
C511 C 0.30121 0.27442 0.47241 0.0
H512 H 0.26479 0.29495 0.57871 0.0
H513 H 0.37088 0.12367 0.56274 0.0
H514 H 0.19911 0.32812 0.50809 0.0
H515 H 0.14716 0.26616 0.51594 0.0
H516 H 0.17883 0.32597 0.54484 0.0
H517 H 0.34553 0.05402 0.51947 0.0
H518 H 0.27454 0.06419 0.49514 0.0
H519 H 0.33575 0.1143 0.48878 0.0
H520 H 0.09433 0.14156 0.43923 0.0
H521 H 0.22596 0.28016 0.41915 0.0
H522 H 0.12696 0.14228 0.51329 0.0
H523 H 0.1796 0.07768 0.50943 0.0
H524 H 0.10844 0.07775 0.48469 0.0
H525 H 0.29573 0.31427 0.48915 0.0
H526 H 0.31506 0.29948 0.45272 0.0
H527 H 0.33705 0.24002 0.48329 0.0
C528 C 0.80033 0.75587 0.56603 0.0
C529 C 0.85363 0.79172 0.57112 0.0
C530 C 0.76128 0.76107 0.53836 0.0
C531 C 0.77674 0.80205 0.51514 0.0
C532 C 0.82886 0.84152 0.52077 0.0
C533 C 0.86659 0.83634 0.54893 0.0
C534 C 0.70526 0.71945 0.53336 0.0
C535 C 0.84701 0.88512 0.49642 0.0
C536 C 0.71216 0.73343 0.43777 0.0
C537 C 0.66256 0.77506 0.42958 0.0
C538 C 0.75199 0.74459 0.46482 0.0
C539 C 0.74111 0.79784 0.48427 0.0
C540 C 0.69292 0.84232 0.47534 0.0
C541 C 0.65437 0.83071 0.44789 0.0
C542 C 0.80385 0.69706 0.47334 0.0
C543 C 0.67977 0.89922 0.49565 0.0
H544 H 0.7902 0.72169 0.5833 0.0
H545 H 0.90812 0.86365 0.55275 0.0
H546 H 0.66697 0.75156 0.5235 0.0
H547 H 0.70846 0.67792 0.51703 0.0
H548 H 0.69666 0.69631 0.55466 0.0
H549 H 0.88398 0.91984 0.50563 0.0
H550 H 0.86126 0.85178 0.47921 0.0
H551 H 0.80937 0.91595 0.4847 0.0
H552 H 0.71887 0.69077 0.4235 0.0
H553 H 0.61591 0.86292 0.44168 0.0
H554 H 0.79701 0.66425 0.49248 0.0
H555 H 0.84491 0.72649 0.48096 0.0
H556 H 0.81006 0.66374 0.45423 0.0
H557 H 0.66419 0.87725 0.51549 0.0
H558 H 0.64533 0.93433 0.48382 0.0
H559 H 0.72016 0.92901 0.50435 0.0
C560 C 0.79326 0.74123 0.0669 0.0
C561 C 0.84618 0.70473 0.07366 0.0
C562 C 0.75699 0.73609 0.0384 0.0
C563 C 0.77449 0.69383 0.01617 0.0
C564 C 0.8259 0.65356 0.02345 0.0
C565 C 0.86109 0.65921 0.05227 0.0
C566 C 0.7018 0.77902 0.03155 0.0
C567 C 0.84588 0.60814 1.00024 0.0
C568 C 0.6572 0.66375 0.94687 0.0
C569 C 0.66839 0.71754 0.92818 0.0
C570 C 0.69317 0.65312 0.97516 0.0
C571 C 0.74161 0.69691 0.98469 0.0
C572 C 0.75552 0.74823 0.96505 0.0
C573 C 0.7185 0.75812 0.93702 0.0
C574 C 0.67705 0.59801 0.99558 0.0
C575 C 0.80755 0.79523 0.97432 0.0
H576 H 0.78132 0.77601 0.08347 0.0
H577 H 0.90204 0.63094 0.05737 0.0
H578 H 0.70744 0.81932 0.01502 0.0
H579 H 0.66357 0.74741 0.02114 0.0
H580 H 0.69145 0.80384 0.05212 0.0
H581 H 0.88228 0.5737 0.01055 0.0
H582 H 0.80874 0.57687 0.9883 0.0
H583 H 0.86158 0.6401 0.98299 0.0
H584 H 0.61855 0.63208 0.94014 0.0
H585 H 0.72766 0.79932 0.92252 0.0
H586 H 0.65989 0.62173 0.01459 0.0
H587 H 0.71643 0.56773 0.00553 0.0
H588 H 0.64285 0.56305 0.98343 0.0
H589 H 0.79949 0.82883 0.99295 0.0
H590 H 0.81562 0.82776 0.9553 0.0
H591 H 0.84802 0.76546 0.9829 0.0
C592 C 0.35074 0.34495 0.04764 0.0
C593 C 0.346 0.2926 0.06827 0.0
C594 C 0.30929 0.35144 0.0208 0.0
C595 C 0.26168 0.30514 0.01482 0.0
C596 C 0.25465 0.25492 0.03646 0.0
C597 C 0.2973 0.24885 0.06286 0.0
C598 C 0.31844 0.40512 0.99808 0.0
C599 C 0.20358 0.20553 0.03108 0.0
C600 C 0.12917 0.33582 0.95289 0.0
C601 C 0.13992 0.28937 0.93091 0.0
C602 C 0.16957 0.34361 0.98006 0.0
C603 C 0.22211 0.30487 0.98491 0.0
C604 C 0.23492 0.2614 0.96189 0.0
C605 C 0.1933 0.25368 0.93523 0.0
C606 C 0.15424 0.38981 0.00427 0.0
C607 C 0.29122 0.22042 0.96603 0.0
H608 H 0.38851 0.37874 0.05168 0.0
H609 H 0.29328 0.20871 0.07891 0.0
H610 H 0.33057 0.38019 0.97797 0.0
H611 H 0.27714 0.43392 0.9902 0.0
H612 H 0.35386 0.44162 0.00751 0.0
H613 H 0.20121 0.17429 0.05141 0.0
H614 H 0.16138 0.23336 0.02438 0.0
H615 H 0.20812 0.17077 0.01221 0.0
H616 H 0.08763 0.36302 0.94968 0.0
H617 H 0.20174 0.21807 0.91812 0.0
H618 H 0.19203 0.4232 0.01353 0.0
H619 H 0.14441 0.35848 0.02326 0.0
H620 H 0.11529 0.42219 0.99569 0.0
H621 H 0.29698 0.19419 0.9449 0.0
H622 H 0.29095 0.18142 0.98386 0.0
H623 H 0.32988 0.25384 0.9736 0.0
loop_
_geom_bond_atom_site_label_1
_geom_bond_atom_site_label_2
_geom_bond_distance
_geom_bond_site_symmetry_2
_ccdc_geom_bond_type
C0 O2 1.247 . S
C0 O4 1.258 . S
C1 O8 1.247 . S
C1 O9 1.258 . S
O2 C0 1.247 . S
O2 Zn3 2.028 . S
Zn3 O2 2.028 . S
Zn3 O7 2.035 . S
Zn3 O9 2.035 1_455 S
Zn3 O10 2.028 . S
O4 C0 1.258 . S
O4 Zn5 2.035 . S
Zn5 O4 2.035 . S
Zn5 O6 2.028 . S
Zn5 O8 2.028 1_455 S
Zn5 O11 2.035 1_455 S
O6 Zn5 2.028 . S
O6 C12 1.247 . S
O7 Zn3 2.035 . S
O7 C12 1.258 . S
O8 C1 1.247 . S
O8 Zn5 2.028 1_655 S
O9 C1 1.258 . S
O9 Zn3 2.035 1_655 S
O10 Zn3 2.028 . S
O10 C13 1.247 1_455 S
O11 Zn5 2.035 1_655 S
O11 C13 1.258 . S
C12 O6 1.247 . S
C12 O7 1.258 . S
C13 O10 1.247 1_655 S
C13 O11 1.258 . S
C14 O16 1.247 . S
C14 O18 1.258 . S
C15 O22 1.247 . S
C15 O23 1.258 . S
O16 C14 1.247 . S
O16 Zn17 2.028 . S
Zn17 O16 2.028 . S
Zn17 O21 2.035 . S
Zn17 O23 2.035 . S
Zn17 O24 2.028 . S
O18 C14 1.258 . S
O18 Zn19 2.035 . S
Zn19 O18 2.035 . S
Zn19 O20 2.028 . S
Zn19 O22 2.028 . S
Zn19 O25 2.035 . S
O20 Zn19 2.028 . S
O20 C26 1.247 . S
O21 Zn17 2.035 . S
O21 C26 1.258 . S
O22 C15 1.247 . S
O22 Zn19 2.028 . S
O23 C15 1.258 . S
O23 Zn17 2.035 . S
O24 Zn17 2.028 . S
O24 C27 1.247 . S
O25 Zn19 2.035 . S
O25 C27 1.258 . S
C26 O20 1.247 . S
C26 O21 1.258 . S
C27 O24 1.247 . S
C27 O25 1.258 . S
C28 O30 1.247 . S
C28 O32 1.258 . S
C29 O36 1.247 . S
C29 O37 1.258 1_455 S
O30 C28 1.247 . S
O30 Zn31 2.028 . S
Zn31 O30 2.028 . S
Zn31 O35 2.035 . S
Zn31 O37 2.035 . S
Zn31 O38 2.028 1_655 S
O32 C28 1.258 . S
O32 Zn33 2.035 . S
Zn33 O32 2.035 . S
Zn33 O34 2.028 . S
Zn33 O36 2.028 1_655 S
Zn33 O39 2.035 1_655 S
O34 Zn33 2.028 . S
O34 C40 1.247 . S
O35 Zn31 2.035 . S
O35 C40 1.258 . S
O36 C29 1.247 . S
O36 Zn33 2.028 1_455 S
O37 C29 1.258 1_655 S
O37 Zn31 2.035 . S
O38 Zn31 2.028 1_455 S
O38 C41 1.247 . S
O39 Zn33 2.035 1_455 S
O39 C41 1.258 . S
C40 O34 1.247 . S
C40 O35 1.258 . S
C41 O38 1.247 . S
C41 O39 1.258 . S
C42 O44 1.247 . S
C42 O46 1.258 . S
C43 O50 1.247 . S
C43 O51 1.258 . S
O44 C42 1.247 . S
O44 Zn45 2.028 . S
Zn45 O44 2.028 . S
Zn45 O49 2.035 . S
Zn45 O51 2.035 . S
Zn45 O52 2.028 . S
O46 C42 1.258 . S
O46 Zn47 2.035 . S
Zn47 O46 2.035 . S
Zn47 O48 2.028 . S
Zn47 O50 2.028 . S
Zn47 O53 2.035 . S
O48 Zn47 2.028 . S
O48 C54 1.247 . S
O49 Zn45 2.035 . S
O49 C54 1.258 . S
O50 C43 1.247 . S
O50 Zn47 2.028 . S
O51 C43 1.258 . S
O51 Zn45 2.035 . S
O52 Zn45 2.028 . S
O52 C55 1.247 . S
O53 Zn47 2.035 . S
O53 C55 1.258 . S
C54 O48 1.247 . S
C54 O49 1.258 . S
C55 O52 1.247 . S
C55 O53 1.258 . S
C56 O58 1.247 . S
C56 O60 1.258 . S
C57 O64 1.247 . S
C57 O65 1.258 . S
O58 C56 1.247 . S
O58 Zn59 2.028 . S
Zn59 O58 2.028 . S
Zn59 O63 2.035 . S
Zn59 O65 2.035 . S
Zn59 O66 2.028 . S
O60 C56 1.258 . S
O60 Zn61 2.035 . S
Zn61 O60 2.035 . S
Zn61 O62 2.028 . S
Zn61 O64 2.028 . S
Zn61 O67 2.035 . S
O62 Zn61 2.028 . S
O62 C68 1.247 . S
O63 Zn59 2.035 . S
O63 C68 1.258 . S
O64 C57 1.247 . S
O64 Zn61 2.028 . S
O65 C57 1.258 . S
O65 Zn59 2.035 . S
O66 Zn59 2.028 . S
O66 C69 1.247 . S
O67 Zn61 2.035 . S
O67 C69 1.258 . S
C68 O62 1.247 . S
C68 O63 1.258 . S
C69 O66 1.247 . S
C69 O67 1.258 . S
C70 O72 1.247 . S
C70 O74 1.258 . S
C71 O78 1.247 1_455 S
C71 O79 1.258 . S
O72 C70 1.247 . S
O72 Zn73 2.028 . S
Zn73 O72 2.028 . S
Zn73 O77 2.035 . S
Zn73 O79 2.035 1_655 S
Zn73 O80 2.028 1_655 S
O74 C70 1.258 . S
O74 Zn75 2.035 . S
Zn75 O74 2.035 . S
Zn75 O76 2.028 . S
Zn75 O78 2.028 . S
Zn75 O81 2.035 1_655 S
O76 Zn75 2.028 . S
O76 C82 1.247 . S
O77 Zn73 2.035 . S
O77 C82 1.258 . S
O78 C71 1.247 1_655 S
O78 Zn75 2.028 . S
O79 C71 1.258 . S
O79 Zn73 2.035 1_455 S
O80 Zn73 2.028 1_455 S
O80 C83 1.247 . S
O81 Zn75 2.035 1_455 S
O81 C83 1.258 . S
C82 O76 1.247 . S
C82 O77 1.258 . S
C83 O80 1.247 . S
C83 O81 1.258 . S
C84 O86 1.247 . S
C84 O88 1.258 . S
C85 O92 1.247 . S
C85 O93 1.258 . S
O86 C84 1.247 . S
O86 Zn87 2.028 . S
Zn87 O86 2.028 . S
Zn87 O91 2.035 . S
Zn87 O93 2.035 . S
Zn87 O94 2.028 . S
O88 C84 1.258 . S
O88 Zn89 2.035 . S
Zn89 O88 2.035 . S
Zn89 O90 2.028 . S
Zn89 O92 2.028 . S
Zn89 O95 2.035 . S
O90 Zn89 2.028 . S
O90 C96 1.247 . S
O91 Zn87 2.035 . S
O91 C96 1.258 . S
O92 C85 1.247 . S
O92 Zn89 2.028 . S
O93 C85 1.258 . S
O93 Zn87 2.035 . S
O94 Zn87 2.028 . S
O94 C97 1.247 . S
O95 Zn89 2.035 . S
O95 C97 1.258 . S
C96 O90 1.247 . S
C96 O91 1.258 . S
C97 O94 1.247 . S
C97 O95 1.258 . S
C98 O100 1.247 . S
C98 O102 1.258 . S
C99 O106 1.247 . S
C99 O107 1.258 . S
O100 C98 1.247 . S
O100 Zn101 2.028 1_655 S
Zn101 O100 2.028 1_455 S
Zn101 O105 2.035 1_455 S
Zn101 O107 2.035 . S
Zn101 O108 2.028 . S
O102 C98 1.258 . S
O102 Zn103 2.035 1_655 S
Zn103 O102 2.035 1_455 S
Zn103 O104 2.028 . S
Zn103 O106 2.028 . S
Zn103 O109 2.035 . S
O104 Zn103 2.028 . S
O104 C110 1.247 1_455 S
O105 Zn101 2.035 1_655 S
O105 C110 1.258 . S
O106 C99 1.247 . S
O106 Zn103 2.028 . S
O107 C99 1.258 . S
O107 Zn101 2.035 . S
O108 Zn101 2.028 . S
O108 C111 1.247 . S
O109 Zn103 2.035 . S
O109 C111 1.258 . S
C110 O104 1.247 1_655 S
C110 O105 1.258 . S
C111 O108 1.247 . S
C111 O109 1.258 . S
C112 C113 1.391 . S
C112 C114 1.394 . S
C112 H128 0.931 . S
C113 C112 1.391 . S
C113 C117 1.376 1_655 S
C114 C112 1.394 . S
C114 C115 1.369 1_655 S
C114 C118 1.531 . S
C115 C114 1.369 1_455 S
C115 C116 1.410 . S
C115 C123 1.503 . S
C116 C115 1.410 . S
C116 C117 1.392 . S
C116 C119 1.511 . S
C117 C113 1.376 1_455 S
C117 C116 1.392 . S
C117 H129 0.929 . S
C118 C114 1.531 . S
C118 H130 0.960 . S
C118 H131 0.962 . S
C118 H132 0.960 . S
C119 C116 1.511 . S
C119 H133 0.961 . S
C119 H134 0.961 . S
C119 H135 0.961 . S
C120 C121 1.370 1_655 S
C120 C122 1.363 . S
C120 H136 0.931 . S
C121 C120 1.370 1_455 S
C121 C125 1.408 . S
C122 C120 1.363 . S
C122 C123 1.370 1_655 S
C122 C126 1.524 . S
C123 C115 1.503 . S
C123 C122 1.370 1_455 S
C123 C124 1.403 . S
C124 C123 1.403 . S
C124 C125 1.404 . S
C124 C127 1.539 . S
C125 C121 1.408 . S
C125 C124 1.404 . S
C125 H137 0.930 . S
C126 C122 1.524 . S
C126 H138 0.956 . S
C126 H139 0.961 . S
C126 H140 0.961 . S
C127 C124 1.539 . S
C127 H141 0.958 . S
C127 H142 0.961 . S
C127 H143 0.960 . S
H128 C112 0.931 . S
H129 C117 0.929 . S
H130 C118 0.960 . S
H131 C118 0.962 . S
H132 C118 0.960 . S
H133 C119 0.961 . S
H134 C119 0.961 . S
H135 C119 0.961 . S
H136 C120 0.931 . S
H137 C125 0.930 . S
H138 C126 0.956 . S
H139 C126 0.961 . S
H140 C126 0.961 . S
H141 C127 0.958 . S
H142 C127 0.961 . S
H143 C127 0.960 . S
C144 C145 1.391 . S
C144 C146 1.394 . S
C144 H160 0.931 . S
C145 C144 1.391 . S
C145 C149 1.376 . S
C146 C144 1.394 . S
C146 C147 1.369 . S
C146 C150 1.531 . S
C147 C146 1.369 . S
C147 C148 1.410 . S
C147 C155 1.503 . S
C148 C147 1.410 . S
C148 C149 1.392 . S
C148 C151 1.511 . S
C149 C145 1.376 . S
C149 C148 1.392 . S
C149 H161 0.929 . S
C150 C146 1.531 . S
C150 H162 0.960 . S
C150 H163 0.962 . S
C150 H164 0.960 . S
C151 C148 1.511 . S
C151 H165 0.961 . S
C151 H166 0.961 . S
C151 H167 0.961 . S
C152 C153 1.370 . S
C152 C154 1.363 . S
C152 H168 0.931 . S
C153 C152 1.370 . S
C153 C157 1.408 . S
C154 C152 1.363 . S
C154 C155 1.370 . S
C154 C158 1.524 . S
C155 C147 1.503 . S
C155 C154 1.370 . S
C155 C156 1.403 . S
C156 C155 1.403 . S
C156 C157 1.404 . S
C156 C159 1.539 . S
C157 C153 1.408 . S
C157 C156 1.404 . S
C157 H169 0.930 . S
C158 C154 1.524 . S
C158 H170 0.956 . S
C158 H171 0.961 . S
C158 H172 0.961 . S
C159 C156 1.539 . S
C159 H173 0.958 . S
C159 H174 0.961 . S
C159 H175 0.960 . S
H160 C144 0.931 . S
H161 C149 0.929 . S
H162 C150 0.960 . S
H163 C150 0.962 . S
H164 C150 0.960 . S
H165 C151 0.961 . S
H166 C151 0.961 . S
H167 C151 0.961 . S
H168 C152 0.931 . S
H169 C157 0.930 . S
H170 C158 0.956 . S
H171 C158 0.961 . S
H172 C158 0.961 . S
H173 C159 0.958 . S
H174 C159 0.961 . S
H175 C159 0.960 . S
C176 C177 1.391 . S
C176 C178 1.394 . S
C176 H192 0.931 . S
C177 C176 1.391 . S
C177 C181 1.376 . S
C178 C176 1.394 . S
C178 C179 1.369 . S
C178 C182 1.531 1_545 S
C179 C178 1.369 . S
C179 C180 1.410 . S
C179 C187 1.503 1_544 S
C180 C179 1.410 . S
C180 C181 1.392 . S
C180 C183 1.511 1_554 S
C181 C177 1.376 . S
C181 C180 1.392 . S
C181 H193 0.929 . S
C182 C178 1.531 1_565 S
C182 H194 0.960 . S
C182 H195 0.962 . S
C182 H196 0.960 . S
C183 C180 1.511 1_556 S
C183 H197 0.961 . S
C183 H198 0.961 . S
C183 H199 0.961 . S
C184 C185 1.370 . S
C184 C186 1.363 . S
C184 H200 0.931 . S
C185 C184 1.370 . S
C185 C189 1.408 . S
C186 C184 1.363 . S
C186 C187 1.370 . S
C186 C190 1.524 1_565 S
C187 C179 1.503 1_566 S
C187 C186 1.370 . S
C187 C188 1.403 . S
C188 C187 1.403 . S
C188 C189 1.404 . S
C188 C191 1.539 1_556 S
C189 C185 1.408 . S
C189 C188 1.404 . S
C189 H201 0.930 . S
C190 C186 1.524 1_545 S
C190 H202 0.956 . S
C190 H203 0.961 . S
C190 H204 0.961 . S
C191 C188 1.539 1_554 S
C191 H205 0.958 . S
C191 H206 0.961 1_554 S
C191 H207 0.960 . S
H192 C176 0.931 . S
H193 C181 0.929 . S
H194 C182 0.960 . S
H195 C182 0.962 . S
H196 C182 0.960 . S
H197 C183 0.961 . S
H198 C183 0.961 . S
H199 C183 0.961 . S
H200 C184 0.931 . S
H201 C189 0.930 . S
H202 C190 0.956 . S
H203 C190 0.961 . S
H204 C190 0.961 . S
H205 C191 0.958 . S
H206 C191 0.961 1_556 S
H207 C191 0.960 . S
C208 C209 1.391 . S
C208 C210 1.394 . S
C208 H224 0.931 . S
C209 C208 1.391 . S
C209 C213 1.376 1_455 S
C210 C208 1.394 . S
C210 C211 1.369 1_455 S
C210 C214 1.543 . S
C211 C210 1.369 1_655 S
C211 C212 1.410 . S
C211 C219 1.503 1_564 S
C212 C211 1.410 . S
C212 C213 1.392 . S
C212 C215 1.511 . S
C213 C209 1.376 1_655 S
C213 C212 1.392 . S
C213 H225 0.929 . S
C214 C210 1.543 . S
C214 H226 0.941 1_554 S
C214 H227 0.970 . S
C214 H228 0.962 . S
C215 C212 1.511 . S
C215 H229 0.961 . S
C215 H230 0.961 1_565 S
C215 H231 0.961 1_554 S
C216 C217 1.370 1_455 S
C216 C218 1.363 . S
C216 H232 0.931 . S
C217 C216 1.370 1_655 S
C217 C221 1.408 . S
C218 C216 1.363 . S
C218 C219 1.370 1_455 S
C218 C222 1.524 1_556 S
C219 C211 1.503 1_546 S
C219 C218 1.370 1_655 S
C219 C220 1.403 . S
C220 C219 1.403 . S
C220 C221 1.404 . S
C220 C223 1.539 1_545 S
C221 C217 1.408 . S
C221 C220 1.404 . S
C221 H233 0.930 . S
C222 C218 1.524 1_554 S
C222 H234 0.956 . S
C222 H235 0.961 . S
C222 H236 0.961 . S
C223 C220 1.539 1_565 S
C223 H237 0.958 . S
C223 H238 0.961 . S
C223 H239 0.960 . S
H224 C208 0.931 . S
H225 C213 0.929 . S
H226 C214 0.941 1_556 S
H227 C214 0.970 . S
H228 C214 0.962 . S
H229 C215 0.961 . S
H230 C215 0.961 1_545 S
H231 C215 0.961 1_556 S
H232 C216 0.931 . S
H233 C221 0.930 . S
H234 C222 0.956 . S
H235 C222 0.961 . S
H236 C222 0.961 . S
H237 C223 0.958 . S
H238 C223 0.961 . S
H239 C223 0.960 . S
C240 C241 1.391 . S
C240 C242 1.394 . S
C240 H256 0.931 . S
C241 C240 1.391 . S
C241 C245 1.376 . S
C242 C240 1.394 . S
C242 C243 1.369 . S
C242 C246 1.531 . S
C243 C242 1.369 . S
C243 C244 1.410 . S
C243 C251 1.503 . S
C244 C243 1.410 . S
C244 C245 1.392 . S
C244 C247 1.511 . S
C245 C241 1.376 . S
C245 C244 1.392 . S
C245 H257 0.929 . S
C246 C242 1.531 . S
C246 H258 0.960 . S
C246 H259 0.962 . S
C246 H260 0.960 . S
C247 C244 1.511 . S
C247 H261 0.961 . S
C247 H262 0.961 . S
C247 H263 0.961 . S
C248 C249 1.370 . S
C248 C250 1.363 . S
C248 H264 0.931 . S
C249 C248 1.370 . S
C249 C253 1.408 . S
C250 C248 1.363 . S
C250 C251 1.370 . S
C250 C254 1.524 . S
C251 C243 1.503 . S
C251 C250 1.370 . S
C251 C252 1.403 . S
C252 C251 1.403 . S
C252 C253 1.404 . S
C252 C255 1.539 . S
C253 C249 1.408 . S
C253 C252 1.404 . S
C253 H265 0.930 . S
C254 C250 1.524 . S
C254 H266 0.956 . S
C254 H267 0.961 . S
C254 H268 0.961 . S
C255 C252 1.539 . S
C255 H269 0.958 . S
C255 H270 0.961 . S
C255 H271 0.960 . S
H256 C240 0.931 . S
H257 C245 0.929 . S
H258 C246 0.960 . S
H259 C246 0.962 . S
H260 C246 0.960 . S
H261 C247 0.961 . S
H262 C247 0.961 . S
H263 C247 0.961 . S
H264 C248 0.931 . S
H265 C253 0.930 . S
H266 C254 0.956 . S
H267 C254 0.961 . S
H268 C254 0.961 . S
H269 C255 0.958 . S
H270 C255 0.961 . S
H271 C255 0.960 . S
C272 C273 1.391 . S
C272 C274 1.394 . S
C272 H288 0.931 . S
C273 C272 1.391 . S
C273 C277 1.376 . S
C274 C272 1.394 . S
C274 C275 1.369 . S
C274 C278 1.531 . S
C275 C274 1.369 . S
C275 C276 1.410 . S
C275 C283 1.503 . S
C276 C275 1.410 . S
C276 C277 1.392 . S
C276 C279 1.511 . S
C277 C273 1.376 . S
C277 C276 1.392 . S
C277 H289 0.929 . S
C278 C274 1.531 . S
C278 H290 0.960 . S
C278 H291 0.962 . S
C278 H292 0.960 . S
C279 C276 1.511 . S
C279 H293 0.961 . S
C279 H294 0.961 . S
C279 H295 0.961 . S
C280 C281 1.370 . S
C280 C282 1.363 . S
C280 H296 0.931 . S
C281 C280 1.370 . S
C281 C285 1.408 . S
C282 C280 1.363 . S
C282 C283 1.370 . S
C282 C286 1.524 . S
C283 C275 1.503 . S
C283 C282 1.370 . S
C283 C284 1.403 . S
C284 C283 1.403 . S
C284 C285 1.404 . S
C284 C287 1.539 . S
C285 C281 1.408 . S
C285 C284 1.404 . S
C285 H297 0.930 . S
C286 C282 1.524 . S
C286 H298 0.956 . S
C286 H299 0.961 . S
C286 H300 0.961 . S
C287 C284 1.539 . S
C287 H301 0.958 . S
C287 H302 0.961 . S
C287 H303 0.960 . S
H288 C272 0.931 . S
H289 C277 0.929 . S
H290 C278 0.960 . S
H291 C278 0.962 . S
H292 C278 0.960 . S
H293 C279 0.961 . S
H294 C279 0.961 . S
H295 C279 0.961 . S
H296 C280 0.931 . S
H297 C285 0.930 . S
H298 C286 0.956 . S
H299 C286 0.961 . S
H300 C286 0.961 . S
H301 C287 0.958 . S
H302 C287 0.961 . S
H303 C287 0.960 . S
C304 C305 1.391 . S
C304 C306 1.394 . S
C304 H320 0.931 . S
C305 C304 1.391 . S
C305 C309 1.376 . S
C306 C304 1.394 . S
C306 C307 1.369 . S
C306 C310 1.531 . S
C307 C306 1.369 . S
C307 C308 1.410 . S
C307 C315 1.503 . S
C308 C307 1.410 . S
C308 C309 1.392 . S
C308 C311 1.511 . S
C309 C305 1.376 . S
C309 C308 1.392 . S
C309 H321 0.929 . S
C310 C306 1.531 . S
C310 H322 0.960 . S
C310 H323 0.962 . S
C310 H324 0.960 . S
C311 C308 1.511 . S
C311 H325 0.961 . S
C311 H326 0.961 . S
C311 H327 0.961 . S
C312 C313 1.370 . S
C312 C314 1.363 . S
C312 H328 0.931 . S
C313 C312 1.370 . S
C313 C317 1.408 . S
C314 C312 1.363 . S
C314 C315 1.370 . S
C314 C318 1.524 . S
C315 C307 1.503 . S
C315 C314 1.370 . S
C315 C316 1.403 . S
C316 C315 1.403 . S
C316 C317 1.404 . S
C316 C319 1.539 . S
C317 C313 1.408 . S
C317 C316 1.404 . S
C317 H329 0.930 . S
C318 C314 1.524 . S
C318 H330 0.956 . S
C318 H331 0.961 . S
C318 H332 0.961 . S
C319 C316 1.539 . S
C319 H333 0.958 . S
C319 H334 0.961 . S
C319 H335 0.960 . S
H320 C304 0.931 . S
H321 C309 0.929 . S
H322 C310 0.960 . S
H323 C310 0.962 . S
H324 C310 0.960 . S
H325 C311 0.961 . S
H326 C311 0.961 . S
H327 C311 0.961 . S
H328 C312 0.931 . S
H329 C317 0.930 . S
H330 C318 0.956 . S
H331 C318 0.961 . S
H332 C318 0.961 . S
H333 C319 0.958 . S
H334 C319 0.961 . S
H335 C319 0.960 . S
C336 C337 1.391 . S
C336 C338 1.394 . S
C336 H352 0.931 . S
C337 C336 1.391 . S
C337 C341 1.376 . S
C338 C336 1.394 . S
C338 C339 1.369 . S
C338 C342 1.531 . S
C339 C338 1.369 . S
C339 C340 1.410 . S
C339 C347 1.503 . S
C340 C339 1.410 . S
C340 C341 1.392 . S
C340 C343 1.511 . S
C341 C337 1.376 . S
C341 C340 1.392 . S
C341 H353 0.929 . S
C342 C338 1.531 . S
C342 H354 0.960 . S
C342 H355 0.962 . S
C342 H356 0.960 . S
C343 C340 1.511 . S
C343 H357 0.961 . S
C343 H358 0.961 . S
C343 H359 0.961 . S
C344 C345 1.370 . S
C344 C346 1.363 . S
C344 H360 0.931 . S
C345 C344 1.370 . S
C345 C349 1.408 . S
C346 C344 1.363 . S
C346 C347 1.370 . S
C346 C350 1.524 . S
C347 C339 1.503 . S
C347 C346 1.370 . S
C347 C348 1.403 . S
C348 C347 1.403 . S
C348 C349 1.404 . S
C348 C351 1.539 . S
C349 C345 1.408 . S
C349 C348 1.404 . S
C349 H361 0.930 . S
C350 C346 1.524 . S
C350 H362 0.956 . S
C350 H363 0.961 . S
C350 H364 0.961 . S
C351 C348 1.539 . S
C351 H365 0.958 . S
C351 H366 0.961 . S
C351 H367 0.960 . S
H352 C336 0.931 . S
H353 C341 0.929 . S
H354 C342 0.960 . S
H355 C342 0.962 . S
H356 C342 0.960 . S
H357 C343 0.961 . S
H358 C343 0.961 . S
H359 C343 0.961 . S
H360 C344 0.931 . S
H361 C349 0.930 . S
H362 C350 0.956 . S
H363 C350 0.961 . S
H364 C350 0.961 . S
H365 C351 0.958 . S
H366 C351 0.961 . S
H367 C351 0.960 . S
C368 C369 1.391 . S
C368 C370 1.394 . S
C368 H384 0.931 . S
C369 C368 1.391 . S
C369 C373 1.376 . S
C370 C368 1.394 . S
C370 C371 1.369 . S
C370 C374 1.531 . S
C371 C370 1.369 . S
C371 C372 1.410 . S
C371 C379 1.503 . S
C372 C371 1.410 . S
C372 C373 1.392 . S
C372 C375 1.511 . S
C373 C369 1.376 . S
C373 C372 1.392 . S
C373 H385 0.929 . S
C374 C370 1.531 . S
C374 H386 0.960 . S
C374 H387 0.962 . S
C374 H388 0.960 . S
C375 C372 1.511 . S
C375 H389 0.961 . S
C375 H390 0.961 . S
C375 H391 0.961 . S
C376 C377 1.370 . S
C376 C378 1.363 . S
C376 H392 0.931 . S
C377 C376 1.370 . S
C377 C381 1.408 . S
C378 C376 1.363 . S
C378 C379 1.370 . S
C378 C382 1.524 . S
C379 C371 1.503 . S
C379 C378 1.370 . S
C379 C380 1.403 . S
C380 C379 1.403 . S
C380 C381 1.404 . S
C380 C383 1.539 . S
C381 C377 1.408 . S
C381 C380 1.404 . S
C381 H393 0.930 . S
C382 C378 1.524 . S
C382 H394 0.956 . S
C382 H395 0.961 . S
C382 H396 0.961 . S
C383 C380 1.539 . S
C383 H397 0.958 . S
C383 H398 0.961 . S
C383 H399 0.960 . S
H384 C368 0.931 . S
H385 C373 0.929 . S
H386 C374 0.960 . S
H387 C374 0.962 . S
H388 C374 0.960 . S
H389 C375 0.961 . S
H390 C375 0.961 . S
H391 C375 0.961 . S
H392 C376 0.931 . S
H393 C381 0.930 . S
H394 C382 0.956 . S
H395 C382 0.961 . S
H396 C382 0.961 . S
H397 C383 0.958 . S
H398 C383 0.961 . S
H399 C383 0.960 . S
C400 C401 1.391 . S
C400 C402 1.394 . S
C400 H416 0.931 . S
C401 C400 1.391 . S
C401 C405 1.376 . S
C402 C400 1.394 . S
C402 C403 1.369 . S
C402 C406 1.531 . S
C403 C402 1.369 . S
C403 C404 1.410 . S
C403 C411 1.503 . S
C404 C403 1.410 . S
C404 C405 1.392 . S
C404 C407 1.511 . S
C405 C401 1.376 . S
C405 C404 1.392 . S
C405 H417 0.929 . S
C406 C402 1.531 . S
C406 H418 0.960 . S
C406 H419 0.962 . S
C406 H420 0.960 . S
C407 C404 1.511 . S
C407 H421 0.961 . S
C407 H422 0.961 . S
C407 H423 0.961 . S
C408 C409 1.370 . S
C408 C410 1.363 . S
C408 H424 0.931 . S
C409 C408 1.370 . S
C409 C413 1.408 . S
C410 C408 1.363 . S
C410 C411 1.370 . S
C410 C414 1.524 . S
C411 C403 1.503 . S
C411 C410 1.370 . S
C411 C412 1.403 . S
C412 C411 1.403 . S
C412 C413 1.404 . S
C412 C415 1.539 . S
C413 C409 1.408 . S
C413 C412 1.404 . S
C413 H425 0.930 . S
C414 C410 1.524 . S
C414 H426 0.956 . S
C414 H427 0.961 . S
C414 H428 0.961 . S
C415 C412 1.539 . S
C415 H429 0.958 . S
C415 H430 0.961 . S
C415 H431 0.960 . S
H416 C400 0.931 . S
H417 C405 0.929 . S
H418 C406 0.960 . S
H419 C406 0.962 . S
H420 C406 0.960 . S
H421 C407 0.961 . S
H422 C407 0.961 . S
H423 C407 0.961 . S
H424 C408 0.931 . S
H425 C413 0.930 . S
H426 C414 0.956 . S
H427 C414 0.961 . S
H428 C414 0.961 . S
H429 C415 0.958 . S
H430 C415 0.961 . S
H431 C415 0.960 . S
C432 C433 1.391 . S
C432 C434 1.394 . S
C432 H448 0.931 . S
C433 C432 1.391 . S
C433 C437 1.376 . S
C434 C432 1.394 . S
C434 C435 1.369 . S
C434 C438 1.531 . S
C435 C434 1.369 . S
C435 C436 1.410 . S
C435 C443 1.503 . S
C436 C435 1.410 . S
C436 C437 1.392 . S
C436 C439 1.511 . S
C437 C433 1.376 . S
C437 C436 1.392 . S
C437 H449 0.929 . S
C438 C434 1.531 . S
C438 H450 0.960 . S
C438 H451 0.962 . S
C438 H452 0.960 . S
C439 C436 1.511 . S
C439 H453 0.961 . S
C439 H454 0.961 . S
C439 H455 0.961 . S
C440 C441 1.370 . S
C440 C442 1.363 . S
C440 H456 0.931 . S
C441 C440 1.370 . S
C441 C445 1.408 . S
C442 C440 1.363 . S
C442 C443 1.370 . S
C442 C446 1.524 . S
C443 C435 1.503 . S
C443 C442 1.370 . S
C443 C444 1.403 . S
C444 C443 1.403 . S
C444 C445 1.404 . S
C444 C447 1.539 . S
C445 C441 1.408 . S
C445 C444 1.404 . S
C445 H457 0.930 . S
C446 C442 1.524 . S
C446 H458 0.956 . S
C446 H459 0.961 . S
C446 H460 0.961 . S
C447 C444 1.539 . S
C447 H461 0.958 . S
C447 H462 0.961 . S
C447 H463 0.960 . S
H448 C432 0.931 . S
H449 C437 0.929 . S
H450 C438 0.960 . S
H451 C438 0.962 . S
H452 C438 0.960 . S
H453 C439 0.961 . S
H454 C439 0.961 . S
H455 C439 0.961 . S
H456 C440 0.931 . S
H457 C445 0.930 . S
H458 C446 0.956 . S
H459 C446 0.961 . S
H460 C446 0.961 . S
H461 C447 0.958 . S
H462 C447 0.961 . S
H463 C447 0.960 . S
C464 C465 1.391 . S
C464 C466 1.394 . S
C464 H480 0.931 . S
C465 C464 1.391 . S
C465 C469 1.376 . S
C466 C464 1.394 . S
C466 C467 1.369 . S
C466 C470 1.531 . S
C467 C466 1.369 . S
C467 C468 1.410 . S
C467 C475 1.503 . S
C468 C467 1.410 . S
C468 C469 1.392 . S
C468 C471 1.511 . S
C469 C465 1.376 . S
C469 C468 1.392 . S
C469 H481 0.929 . S
C470 C466 1.531 . S
C470 H482 0.960 . S
C470 H483 0.962 . S
C470 H484 0.960 . S
C471 C468 1.511 . S
C471 H485 0.961 . S
C471 H486 0.961 . S
C471 H487 0.961 . S
C472 C473 1.370 . S
C472 C474 1.363 . S
C472 H488 0.931 . S
C473 C472 1.370 . S
C473 C477 1.408 . S
C474 C472 1.363 . S
C474 C475 1.370 . S
C474 C478 1.524 . S
C475 C467 1.503 . S
C475 C474 1.370 . S
C475 C476 1.403 . S
C476 C475 1.403 . S
C476 C477 1.404 . S
C476 C479 1.539 . S
C477 C473 1.408 . S
C477 C476 1.404 . S
C477 H489 0.930 . S
C478 C474 1.524 . S
C478 H490 0.956 . S
C478 H491 0.961 . S
C478 H492 0.961 . S
C479 C476 1.539 . S
C479 H493 0.958 . S
C479 H494 0.961 . S
C479 H495 0.960 . S
H480 C464 0.931 . S
H481 C469 0.929 . S
H482 C470 0.960 . S
H483 C470 0.962 . S
H484 C470 0.960 . S
H485 C471 0.961 . S
H486 C471 0.961 . S
H487 C471 0.961 . S
H488 C472 0.931 . S
H489 C477 0.930 . S
H490 C478 0.956 . S
H491 C478 0.961 . S
H492 C478 0.961 . S
H493 C479 0.958 . S
H494 C479 0.961 . S
H495 C479 0.960 . S
C496 C497 1.391 . S
C496 C498 1.394 . S
C496 H512 0.931 . S
C497 C496 1.391 . S
C497 C501 1.376 . S
C498 C496 1.394 . S
C498 C499 1.369 . S
C498 C502 1.531 . S
C499 C498 1.369 . S
C499 C500 1.410 . S
C499 C507 1.503 . S
C500 C499 1.410 . S
C500 C501 1.392 . S
C500 C503 1.511 . S
C501 C497 1.376 . S
C501 C500 1.392 . S
C501 H513 0.929 . S
C502 C498 1.531 . S
C502 H514 0.960 . S
C502 H515 0.962 . S
C502 H516 0.960 . S
C503 C500 1.511 . S
C503 H517 0.961 . S
C503 H518 0.961 . S
C503 H519 0.961 . S
C504 C505 1.370 . S
C504 C506 1.363 . S
C504 H520 0.931 . S
C505 C504 1.370 . S
C505 C509 1.408 . S
C506 C504 1.363 . S
C506 C507 1.370 . S
C506 C510 1.524 . S
C507 C499 1.503 . S
C507 C506 1.370 . S
C507 C508 1.403 . S
C508 C507 1.403 . S
C508 C509 1.404 . S
C508 C511 1.539 . S
C509 C505 1.408 . S
C509 C508 1.404 . S
C509 H521 0.930 . S
C510 C506 1.524 . S
C510 H522 0.956 . S
C510 H523 0.961 . S
C510 H524 0.961 . S
C511 C508 1.539 . S
C511 H525 0.958 . S
C511 H526 0.961 . S
C511 H527 0.960 . S
H512 C496 0.931 . S
H513 C501 0.929 . S
H514 C502 0.960 . S
H515 C502 0.962 . S
H516 C502 0.960 . S
H517 C503 0.961 . S
H518 C503 0.961 . S
H519 C503 0.961 . S
H520 C504 0.931 . S
H521 C509 0.930 . S
H522 C510 0.956 . S
H523 C510 0.961 . S
H524 C510 0.961 . S
H525 C511 0.958 . S
H526 C511 0.961 . S
H527 C511 0.960 . S
C528 C529 1.391 . S
C528 C530 1.394 . S
C528 H544 0.931 . S
C529 C528 1.391 . S
C529 C533 1.376 . S
C530 C528 1.394 . S
C530 C531 1.369 . S
C530 C534 1.531 . S
C531 C530 1.369 . S
C531 C532 1.410 . S
C531 C539 1.503 . S
C532 C531 1.410 . S
C532 C533 1.392 . S
C532 C535 1.511 . S
C533 C529 1.376 . S
C533 C532 1.392 . S
C533 H545 0.929 . S
C534 C530 1.531 . S
C534 H546 0.960 . S
C534 H547 0.962 . S
C534 H548 0.960 . S
C535 C532 1.511 . S
C535 H549 0.961 . S
C535 H550 0.961 . S
C535 H551 0.961 . S
C536 C537 1.370 . S
C536 C538 1.363 . S
C536 H552 0.931 . S
C537 C536 1.370 . S
C537 C541 1.408 . S
C538 C536 1.363 . S
C538 C539 1.370 . S
C538 C542 1.524 . S
C539 C531 1.503 . S
C539 C538 1.370 . S
C539 C540 1.403 . S
C540 C539 1.403 . S
C540 C541 1.404 . S
C540 C543 1.539 . S
C541 C537 1.408 . S
C541 C540 1.404 . S
C541 H553 0.930 . S
C542 C538 1.524 . S
C542 H554 0.956 . S
C542 H555 0.961 . S
C542 H556 0.961 . S
C543 C540 1.539 . S
C543 H557 0.958 . S
C543 H558 0.961 . S
C543 H559 0.960 . S
H544 C528 0.931 . S
H545 C533 0.929 . S
H546 C534 0.960 . S
H547 C534 0.962 . S
H548 C534 0.960 . S
H549 C535 0.961 . S
H550 C535 0.961 . S
H551 C535 0.961 . S
H552 C536 0.931 . S
H553 C541 0.930 . S
H554 C542 0.956 . S
H555 C542 0.961 . S
H556 C542 0.961 . S
H557 C543 0.958 . S
H558 C543 0.961 . S
H559 C543 0.960 . S
C560 C561 1.391 . S
C560 C562 1.394 . S
C560 H576 0.931 . S
C561 C560 1.391 . S
C561 C565 1.376 . S
C562 C560 1.394 . S
C562 C563 1.369 . S
C562 C566 1.531 . S
C563 C562 1.369 . S
C563 C564 1.410 . S
C563 C571 1.503 1_554 S
C564 C563 1.410 . S
C564 C565 1.392 . S
C564 C567 1.511 1_554 S
C565 C561 1.376 . S
C565 C564 1.392 . S
C565 H577 0.929 . S
C566 C562 1.531 . S
C566 H578 0.960 . S
C566 H579 0.962 . S
C566 H580 0.960 . S
C567 C564 1.511 1_556 S
C567 H581 0.962 . S
C567 H582 0.961 . S
C567 H583 0.961 . S
C568 C569 1.370 . S
C568 C570 1.363 . S
C568 H584 0.931 . S
C569 C568 1.370 . S
C569 C573 1.408 . S
C570 C568 1.363 . S
C570 C571 1.370 . S
C570 C574 1.524 . S
C571 C563 1.503 1_556 S
C571 C570 1.370 . S
C571 C572 1.403 . S
C572 C571 1.403 . S
C572 C573 1.404 . S
C572 C575 1.539 . S
C573 C569 1.408 . S
C573 C572 1.404 . S
C573 H585 0.930 . S
C574 C570 1.524 . S
C574 H586 0.956 1_556 S
C574 H587 0.961 . S
C574 H588 0.961 . S
C575 C572 1.539 . S
C575 H589 0.958 . S
C575 H590 0.961 . S
C575 H591 0.960 . S
H576 C560 0.931 . S
H577 C565 0.929 . S
H578 C566 0.960 . S
H579 C566 0.962 . S
H580 C566 0.960 . S
H581 C567 0.962 . S
H582 C567 0.961 . S
H583 C567 0.961 . S
H584 C568 0.931 . S
H585 C573 0.930 . S
H586 C574 0.956 1_554 S
H587 C574 0.961 . S
H588 C574 0.961 . S
H589 C575 0.958 . S
H590 C575 0.961 . S
H591 C575 0.960 . S
C592 C593 1.391 . S
C592 C594 1.394 . S
C592 H608 0.931 . S
C593 C592 1.391 . S
C593 C597 1.376 . S
C594 C592 1.394 . S
C594 C595 1.369 . S
C594 C598 1.531 1_554 S
C595 C594 1.369 . S
C595 C596 1.410 . S
C595 C603 1.503 1_554 S
C596 C595 1.410 . S
C596 C597 1.392 . S
C596 C599 1.511 . S
C597 C593 1.376 . S
C597 C596 1.392 . S
C597 H609 0.929 . S
C598 C594 1.531 1_556 S
C598 H610 0.960 . S
C598 H611 0.962 . S
C598 H612 0.960 . S
C599 C596 1.511 . S
C599 H613 0.961 . S
C599 H614 0.961 . S
C599 H615 0.961 . S
C600 C601 1.370 . S
C600 C602 1.363 . S
C600 H616 0.931 . S
C601 C600 1.370 . S
C601 C605 1.408 . S
C602 C600 1.363 . S
C602 C603 1.370 . S
C602 C606 1.524 . S
C603 C595 1.503 1_556 S
C603 C602 1.370 . S
C603 C604 1.403 . S
C604 C603 1.403 . S
C604 C605 1.404 . S
C604 C607 1.539 . S
C605 C601 1.408 . S
C605 C604 1.404 . S
C605 H617 0.930 . S
C606 C602 1.524 . S
C606 H618 0.956 . S
C606 H619 0.961 1_556 S
C606 H620 0.961 . S
C607 C604 1.539 . S
C607 H621 0.958 . S
C607 H622 0.961 . S
C607 H623 0.960 . S
H608 C592 0.931 . S
H609 C597 0.929 . S
H610 C598 0.960 . S
H611 C598 0.962 . S
H612 C598 0.960 . S
H613 C599 0.961 . S
H614 C599 0.961 . S
H615 C599 0.961 . S
H616 C600 0.931 . S
H617 C605 0.930 . S
H618 C606 0.956 . S
H619 C606 0.961 1_554 S
H620 C606 0.961 . S
H621 C607 0.958 . S
H622 C607 0.961 . S
H623 C607 0.960 . S
C113 C13 1.820 . S
C121 C29 1.827 . S
C145 C54 1.844 . S
C153 C15 1.812 . S
C177 C84 1.790 . S
C185 C57 1.834 . S
C209 C71 1.830 . S
C217 C110 1.819 . S
C241 C96 1.938 . S
C249 C1 1.957 . S
C273 C27 1.957 . S
C281 C98 1.949 . S
C305 C41 1.943 . S
C313 C69 1.955 . S
C337 C42 1.941 . S
C345 C83 1.956 . S
C369 C85 2.085 . S
C377 C12 2.108 . S
C401 C14 2.075 . S
C409 C111 2.110 . S
C433 C56 2.119 . S
C441 C28 2.088 . S
C465 C70 2.116 . S
C473 C55 2.094 . S
C497 C26 0.598 . S
C505 C0 0.646 . S
C529 C40 0.610 . S
C537 C43 0.641 . S
C561 C82 0.640 . S
C569 C68 0.632 . S
C593 C97 0.622 . S
C601 C99 0.634 . S
