# Generated by pormake.
# Topology oof, (8)-cn, num edge types: 1
# Building blocks:
#     Node 0, Type 0, BuildingBlock: TAGTUT_clean_sbu_3, # of connection points: 8
#     Node 1, Type 0, BuildingBlock: TAGTUT_clean_sbu_3, # of connection points: 8
#     Node 2, Type 0, BuildingBlock: TAGTUT_clean_sbu_3, # of connection points: 8
#     Node 3, Type 0, BuildingBlock: TAGTUT_clean_sbu_3, # of connection points: 8
#     Edge 4, Type (0, 0), BuildingBlock: TEMPAE_clean_linker_10, # of connection points: 2
#     Edge 5, Type (0, 0), BuildingBlock: TEMPAE_clean_linker_10, # of connection points: 2
#     Edge 6, Type (0, 0), BuildingBlock: TEMPAE_clean_linker_10, # of connection points: 2
#     Edge 7, Type (0, 0), BuildingBlock: TEMPAE_clean_linker_10, # of connection points: 2
#     Edge 8, Type (0, 0), BuildingBlock: TEMPAE_clean_linker_10, # of connection points: 2
#     Edge 9, Type (0, 0), BuildingBlock: TEMPAE_clean_linker_10, # of connection points: 2
#     Edge 10, Type (0, 0), BuildingBlock: TEMPAE_clean_linker_10, # of connection points: 2
#     Edge 11, Type (0, 0), BuildingBlock: TEMPAE_clean_linker_10, # of connection points: 2
#     Edge 12, Type (0, 0), BuildingBlock: TEMPAE_clean_linker_10, # of connection points: 2
#     Edge 13, Type (0, 0), BuildingBlock: TEMPAE_clean_linker_10, # of connection points: 2
#     Edge 14, Type (0, 0), BuildingBlock: TEMPAE_clean_linker_10, # of connection points: 2
#     Edge 15, Type (0, 0), BuildingBlock: TEMPAE_clean_linker_10, # of connection points: 2
#     Edge 16, Type (0, 0), BuildingBlock: TEMPAE_clean_linker_10, # of connection points: 2
#     Edge 17, Type (0, 0), BuildingBlock: TEMPAE_clean_linker_10, # of connection points: 2
#     Edge 18, Type (0, 0), BuildingBlock: TEMPAE_clean_linker_10, # of connection points: 2
#     Edge 19, Type (0, 0), BuildingBlock: TEMPAE_clean_linker_10, # of connection points: 2
# Relax obj value: 0.060
# Max RMSD: 0.153
# Mean RMSD: 0.153
data_MOF--net-oof--node1-TAGTUT_clean_sbu_3--edge1-TEMPAE_clean_linker_10
_symmetry_space_group_name_H-M    P1
_symmetry_Int_Tables_number       1
_symmetry_cell_setting            triclinic
loop_
_symmetry_equiv_pos_as_xyz
'x, y, z'
_cell_length_a     15.908547
_cell_length_b     63.923075
_cell_length_c     15.619586
_cell_angle_alpha  89.927911
_cell_angle_beta   86.384476
_cell_angle_gamma 90.237772
loop_
_atom_site_label
_atom_site_type_symbol
_atom_site_fract_x
_atom_site_fract_y
_atom_site_fract_z
_atom_type_partial_charge
C0 C 0.16808 0.16436 0.22215 0.0
C1 C -0.00309 0.23187 0.27667 0.0
C2 C 0.80538 0.19928 0.13707 0.0
Mg3 Mg 0.11215 0.11668 0.21021 0.0
Mg4 Mg 0.92325 0.09822 0.26796 0.0
O5 O -0.01361 0.11883 0.2101 0.0
Mg6 Mg 0.97494 0.14944 0.23772 0.0
O7 O 0.97233 0.18013 0.25928 0.0
Mg8 Mg 0.01601 0.18998 0.14351 0.0
Mg9 Mg 0.87798 0.19363 0.3126 0.0
C10 C 0.78022 0.13101 0.23819 0.0
O11 O 0.94808 0.14558 0.38017 0.0
O12 O 0.10142 0.08214 0.16702 0.0
O13 O 0.86665 0.17285 0.42483 0.0
O14 O 0.10847 0.10367 0.35127 0.0
O15 O 0.96832 0.07106 0.19697 0.0
O16 O 0.97334 0.09686 0.39059 0.0
O17 O 0.0029 0.15538 0.09684 0.0
O18 O 0.09893 0.12983 0.07399 0.0
C19 C 0.05383 0.14485 0.04672 0.0
C20 C 0.04395 0.068 0.16647 0.0
O21 O 0.83362 0.14599 0.22649 0.0
O22 O 0.02957 0.22265 0.20935 0.0
O23 O 0.80066 0.11218 0.25632 0.0
O24 O 0.88118 0.19792 0.10487 0.0
O25 O 0.93842 0.22359 0.32586 0.0
O26 O 0.78685 0.19686 0.21724 0.0
O27 O 0.11386 0.15095 0.25145 0.0
O28 O 0.1461 0.18079 0.18259 0.0
C29 C 0.05078 0.09761 0.40728 0.0
C30 C 0.9054 0.15565 0.43889 0.0
C31 C 0.04402 0.88728 0.54148 0.0
C32 C 0.03328 0.96315 0.68762 0.0
C33 C 0.08759 0.93096 0.90571 0.0
Mg34 Mg 0.0265 0.84106 0.63267 0.0
Mg35 Mg 0.88775 0.83418 0.79484 0.0
O36 O -0.01698 0.84909 0.75101 0.0
Mg37 Mg 0.9816 0.8804 0.73845 0.0
O38 O -0.01242 0.91162 0.71835 0.0
Mg39 Mg 0.11345 0.91498 0.69883 0.0
Mg40 Mg 0.93558 0.92913 0.80095 0.0
C41 C 0.90791 0.86988 0.93459 0.0
O42 O 0.84085 0.88316 0.73428 0.0
O43 O 0.04464 0.80761 0.6903 0.0
O44 O 0.81146 0.91412 0.7997 0.0
O45 O 0.89456 0.83219 0.58924 0.0
O46 O 0.94904 0.80432 0.80235 0.0
O47 O 0.79718 0.83218 0.69824 0.0
O48 O 0.12227 0.88062 0.74138 0.0
O49 O 0.15591 0.85062 0.67522 0.0
C50 C 0.1768 0.86731 0.71357 0.0
C51 C 0.01049 0.79721 0.75417 0.0
O52 O 0.95469 0.8816 0.88402 0.0
O53 O 0.08942 0.94962 0.66344 0.0
O54 O 0.87215 0.85295 0.91062 0.0
O55 O 0.13098 0.92746 0.83547 0.0
O56 O 0.9692 0.95875 0.73869 0.0
O57 O 0.00808 0.92802 0.91188 0.0
O58 O 0.00344 0.87602 0.59754 0.0
O59 O 0.08898 0.90292 0.56282 0.0
C60 C 0.81805 0.83024 0.61842 0.0
C61 C 0.7887 0.89683 0.76552 0.0
C62 C 0.55313 0.64569 0.03761 0.0
C63 C 0.54474 0.56931 0.15967 0.0
C64 C 0.58141 0.59725 0.39382 0.0
Mg65 Mg 0.52995 0.69098 0.12964 0.0
Mg66 Mg 0.38951 0.69687 0.29082 0.0
O67 O 0.4859 0.68254 0.24782 0.0
Mg68 Mg 0.48596 0.65129 0.23389 0.0
O69 O 0.49519 0.62032 0.21022 0.0
Mg70 Mg 0.62111 0.61755 0.19463 0.0
Mg71 Mg 0.43685 0.60008 0.27523 0.0
C72 C 0.41134 0.66101 0.42971 0.0
O73 O 0.34447 0.64795 0.22783 0.0
O74 O 0.54672 0.72432 0.18848 0.0
O75 O 0.31385 0.61474 0.27083 0.0
O76 O 0.39807 0.69953 0.08585 0.0
O77 O 0.4495 0.72701 0.29927 0.0
O78 O 0.29956 0.6986 0.19361 0.0
O79 O 0.62651 0.6518 0.24095 0.0
O80 O 0.65935 0.68141 0.17058 0.0
C81 C 0.68083 0.66511 0.21123 0.0
C82 C 0.51141 0.73445 0.25217 0.0
O83 O 0.45803 0.64947 0.37889 0.0
O84 O 0.60337 0.58317 0.15177 0.0
O85 O 0.37477 0.67779 0.40598 0.0
O86 O 0.63095 0.60347 0.33087 0.0
O87 O 0.47343 0.57269 0.20008 0.0
O88 O 0.50138 0.59795 0.39109 0.0
O89 O 0.50942 0.65619 0.09348 0.0
O90 O 0.60048 0.63057 0.05887 0.0
C91 C 0.32117 0.701 0.11414 0.0
C92 C 0.29201 0.63316 0.24781 0.0
C93 C 0.56339 0.38174 0.53818 0.0
C94 C 0.54909 0.45905 0.65721 0.0
C95 C 0.57468 0.4312 0.89489 0.0
Mg96 Mg 0.52851 0.33681 0.63966 0.0
Mg97 Mg 0.38573 0.33406 0.80333 0.0
O98 O 0.48405 0.34697 0.75433 0.0
Mg99 Mg 0.48686 0.3777 0.73083 0.0
O100 O 0.49699 0.40837 0.70275 0.0
Mg101 Mg 0.6231 0.41105 0.69679 0.0
Mg102 Mg 0.4371 0.42812 0.76899 0.0
C103 C 0.41337 0.37177 0.93082 0.0
O104 O 0.34608 0.38067 0.7188 0.0
O105 O 0.53796 0.30419 0.70683 0.0
O106 O 0.31408 0.41329 0.7662 0.0
O107 O 0.39509 0.32895 0.59744 0.0
O108 O 0.44073 0.30356 0.81824 0.0
O109 O 0.29674 0.33194 0.7051 0.0
O110 O 0.62628 0.37697 0.74256 0.0
O111 O 0.65809 0.34602 0.68288 0.0
C112 C 0.67994 0.36304 0.71836 0.0
C113 C 0.50105 0.29506 0.77258 0.0
O114 O 0.45878 0.38175 0.87337 0.0
O115 O 0.60761 0.44526 0.65197 0.0
O116 O 0.37332 0.35479 0.9152 0.0
O117 O 0.62707 0.4253 0.83398 0.0
O118 O 0.4764 0.45564 0.69515 0.0
O119 O 0.49533 0.43023 0.88799 0.0
O120 O 0.515 0.37123 0.59104 0.0
O121 O 0.60735 0.39731 0.56251 0.0
C122 C 0.31794 0.32855 0.6261 0.0
C123 C 0.29291 0.39506 0.74015 0.0
C124 C 0.00725 0.12639 0.92 0.0
C125 C 0.03736 0.14481 0.95589 0.0
C126 C 0.97905 0.12631 0.83704 0.0
C127 C -0.01575 0.14496 0.78828 0.0
C128 C 0.01679 0.16351 0.82368 0.0
C129 C 0.04113 0.16333 0.90836 0.0
C130 C 0.94197 0.10647 0.80242 0.0
C131 C 0.02603 0.18348 0.77214 0.0
C132 C -0.00457 0.14122 0.54731 0.0
C133 C 0.91742 0.14958 0.52805 0.0
C134 C 0.01713 0.13909 0.63199 0.0
C135 C 0.95837 0.14495 0.69911 0.0
C136 C 0.8772 0.15201 0.68048 0.0
C137 C 0.85808 0.15463 0.59464 0.0
C138 C 0.10503 0.13196 0.64909 0.0
C139 C 0.81182 0.15741 0.7511 0.0
H140 H 0.00235 0.11223 0.95839 0.0
H141 H 0.06333 0.17756 0.93737 0.0
H142 H 0.87747 0.10951 0.78228 0.0
H143 H 0.98013 0.10112 0.74481 0.0
H144 H 0.93886 0.0936 0.85039 0.0
H145 H 0.96322 0.18907 0.75547 0.0
H146 H 0.05715 0.19611 0.80752 0.0
H147 H 0.06358 0.18054 0.71105 0.0
H148 H 0.04226 0.1377 0.496 0.0
H149 H 0.79777 0.16106 0.57964 0.0
H150 H 0.10256 0.11849 0.69391 0.0
H151 H 0.1391 0.14481 0.67999 0.0
H152 H 0.14196 0.12729 0.58945 0.0
H153 H 0.80443 0.14432 0.79773 0.0
H154 H 0.74955 0.16083 0.72594 0.0
H155 H 0.83264 0.17131 0.78667 0.0
C156 C 0.93198 0.88356 0.44052 0.0
C157 C 0.01788 0.88607 0.45348 0.0
C158 C 0.90318 0.8832 0.35797 0.0
C159 C 0.96225 0.88478 0.28689 0.0
C160 C 0.04891 0.88791 0.29962 0.0
C161 C 0.0757 0.88881 0.38334 0.0
C162 C 0.80952 0.88174 0.34779 0.0
C163 C 0.11326 0.88993 0.22475 0.0
C164 C 0.91969 0.857 0.08185 0.0
C165 C 0.90726 0.87386 0.02686 0.0
C166 C 0.93465 0.86037 0.16781 0.0
C167 C 0.93539 0.88107 0.19943 0.0
C168 C 0.91518 0.89799 0.14618 0.0
C169 C 0.90317 0.89425 0.05934 0.0
C170 C 0.95323 0.84187 0.22382 0.0
C171 C 0.90643 0.9199 0.18113 0.0
H172 H 0.88674 0.88234 0.49529 0.0
H173 H 0.14174 0.8912 0.39401 0.0
H174 H 0.78413 0.89779 0.34247 0.0
H175 H 0.79461 0.8731 0.28914 0.0
H176 H 0.77602 0.87418 0.4043 0.0
H177 H 0.17769 0.89293 0.24561 0.0
H178 H 0.11425 0.87534 0.18625 0.0
H179 H 0.09572 0.9029 0.18218 0.0
H180 H 0.92268 0.84122 0.05647 0.0
H181 H 0.89128 0.90717 0.01682 0.0
H182 H 0.91143 0.84207 0.28343 0.0
H183 H 0.01915 0.84291 0.24292 0.0
H184 H 0.94469 0.8267 0.19078 0.0
H185 H 0.89606 0.93158 0.13019 0.0
H186 H 0.96327 0.92431 0.21457 0.0
H187 H 0.85217 0.92047 0.22927 0.0
C188 C 0.44375 0.65025 0.93447 0.0
C189 C 0.52897 0.64717 0.94894 0.0
C190 C 0.41627 0.65068 0.8515 0.0
C191 C 0.47599 0.64847 0.7814 0.0
C192 C 0.56206 0.64505 0.79546 0.0
C193 C 0.58751 0.64413 0.87971 0.0
C194 C 0.32321 0.65303 0.83952 0.0
C195 C 0.62721 0.64275 0.72154 0.0
C196 C 0.41216 0.63734 0.55668 0.0
C197 C 0.41443 0.65753 0.52196 0.0
C198 C 0.42731 0.63421 0.64324 0.0
C199 C 0.44976 0.65153 0.69342 0.0
C200 C 0.44933 0.67198 0.6591 0.0
C201 C 0.43034 0.67475 0.57393 0.0
C202 C 0.42069 0.61251 0.68094 0.0
C203 C 0.4723 0.69083 0.71123 0.0
H204 H 0.39781 0.65184 0.9884 0.0
H205 H 0.65304 0.64143 0.89147 0.0
H206 H 0.31161 0.66344 0.78477 0.0
H207 H 0.2963 0.63747 0.82539 0.0
H208 H 0.28854 0.65919 0.89805 0.0
H209 H 0.69111 0.6397 0.74347 0.0
H210 H 0.60951 0.62971 0.67933 0.0
H211 H 0.62958 0.65724 0.6822 0.0
H212 H 0.39931 0.6241 0.51614 0.0
H213 H 0.43297 0.69036 0.54649 0.0
H214 H 0.37619 0.61245 0.7385 0.0
H215 H 0.4829 0.6077 0.70226 0.0
H216 H 0.39862 0.60084 0.63464 0.0
H217 H 0.43389 0.69118 0.77299 0.0
H218 H 0.46306 0.70578 0.67675 0.0
H219 H 0.53934 0.68977 0.72656 0.0
C220 C 0.36294 0.37138 0.08583 0.0
C221 C 0.42235 0.37767 0.02081 0.0
C222 C 0.38023 0.37346 0.17243 0.0
C223 C 0.4595 0.38144 0.19342 0.0
C224 C 0.5177 0.3888 0.12808 0.0
C225 C 0.49788 0.38708 0.04264 0.0
C226 C 0.31404 0.36706 0.24108 0.0
C227 C 0.60276 0.39752 0.14802 0.0
C228 C 0.50552 0.39948 0.41565 0.0
C229 C 0.54213 0.38155 0.44872 0.0
C230 C 0.47526 0.39943 0.33363 0.0
C231 C 0.48429 0.3812 0.28302 0.0
C232 C 0.52148 0.36302 0.31629 0.0
C233 C 0.54855 0.36329 0.39999 0.0
C234 C 0.43134 0.41863 0.30246 0.0
C235 C 0.53264 0.34336 0.26342 0.0
H236 H 0.30403 0.36439 0.06896 0.0
H237 H 0.54446 0.39184 -0.00728 0.0
H238 H 0.34195 0.35792 0.29249 0.0
H239 H 0.2861 0.38134 0.27127 0.0
H240 H 0.26268 0.35771 0.21468 0.0
H241 H 0.64077 0.40251 0.08936 0.0
H242 H 0.59478 0.41119 0.19136 0.0
H243 H 0.63858 0.3855 0.18176 0.0
H244 H 0.49785 0.41334 0.45536 0.0
H245 H 0.57515 0.34937 0.42715 0.0
H246 H 0.36282 0.41535 0.30196 0.0
H247 H 0.45395 0.42262 0.23588 0.0
H248 H 0.44053 0.43244 0.34408 0.0
H249 H 0.47023 0.33735 0.24669 0.0
H250 H 0.56527 0.33085 0.29777 0.0
H251 H 0.56959 0.3469 0.20241 0.0
C252 C 0.63707 0.12221 0.19497 0.0
C253 C 0.69105 0.13597 0.23444 0.0
C254 C 0.5516 0.12694 0.19122 0.0
C255 C 0.5199 0.14549 0.23036 0.0
C256 C 0.57429 0.15931 0.27119 0.0
C257 C 0.65979 0.15447 0.27179 0.0
C258 C 0.49547 0.11223 0.14488 0.0
C259 C 0.54206 0.179 0.31519 0.0
C260 C 0.31565 0.16799 0.16233 0.0
C261 C 0.258 0.15976 0.22522 0.0
C262 C 0.40133 0.16328 0.1627 0.0
C263 C 0.42964 0.15046 0.22874 0.0
C264 C 0.37189 0.14237 0.2932 0.0
C265 C 0.28622 0.14691 0.28998 0.0
C266 C 0.46125 0.17179 0.09194 0.0
C267 C 0.40066 0.12909 0.36581 0.0
H268 H 0.66207 0.10796 0.16578 0.0
H269 H 0.70194 0.16486 0.30351 0.0
H270 H 0.44488 0.106 0.19011 0.0
H271 H 0.46448 0.12081 0.09378 0.0
H272 H 0.53083 0.09884 0.11533 0.0
H273 H 0.59255 0.18768 0.34623 0.0
H274 H 0.5143 0.18951 0.26811 0.0
H275 H 0.49142 0.17503 0.36474 0.0
H276 H 0.29354 0.17776 0.11168 0.0
H277 H 0.24145 0.14067 0.3388 0.0
H278 H 0.49506 0.15872 0.05839 0.0
H279 H 0.50949 0.18193 0.11933 0.0
H280 H 0.42837 0.18104 0.04401 0.0
H281 H 0.43116 0.11466 0.33999 0.0
H282 H 0.34778 0.12456 0.41207 0.0
H283 H 0.44837 0.13776 0.40083 0.0
C284 C 0.67209 0.88076 0.69065 0.0
C285 C 0.69879 0.89247 0.75975 0.0
C286 C 0.58671 0.87651 0.683 0.0
C287 C 0.52732 0.88373 0.74732 0.0
C288 C 0.5541 0.89521 0.81819 0.0
C289 C 0.63985 0.89973 0.82291 0.0
C290 C 0.56016 0.86457 0.60562 0.0
C291 C 0.49233 0.90255 0.88913 0.0
C292 C 0.30098 0.89054 0.69362 0.0
C293 C 0.26578 0.87158 0.72275 0.0
C294 C 0.38673 0.89461 0.70026 0.0
C295 C 0.43687 0.87958 0.73959 0.0
C296 C 0.40088 0.86053 0.77056 0.0
C297 C 0.31556 0.85658 0.76022 0.0
C298 C 0.42393 0.91476 0.66389 0.0
C299 C 0.45215 0.84446 0.81513 0.0
H300 H 0.71794 0.87527 0.64151 0.0
H301 H 0.66099 0.90857 0.87677 0.0
H302 H 0.52897 0.84969 0.62616 0.0
H303 H 0.5137 0.87383 0.57157 0.0
H304 H 0.6143 0.86086 0.55977 0.0
H305 H 0.52406 0.91043 0.94171 0.0
H306 H 0.44686 0.91362 0.86314 0.0
H307 H 0.45553 0.88905 0.91637 0.0
H308 H 0.26195 0.90191 0.66354 0.0
H309 H 0.28724 0.84197 0.78292 0.0
H310 H 0.47588 0.91125 0.61531 0.0
H311 H 0.45122 0.92403 0.71537 0.0
H312 H 0.37646 0.92451 0.63338 0.0
H313 H 0.50366 0.83858 0.77051 0.0
H314 H 0.41337 0.83092 0.83901 0.0
H315 H 0.48193 0.85176 0.87019 0.0
C316 C 0.82952 0.66777 0.1538 0.0
C317 C 0.77047 0.66076 0.21785 0.0
C318 C 0.91508 0.66327 0.15825 0.0
C319 C 0.94171 0.65203 0.22969 0.0
C320 C 0.88245 0.6453 0.29543 0.0
C321 C 0.79702 0.64948 0.28798 0.0
C322 C 0.97663 0.67022 0.08598 0.0
C323 C 0.90933 0.63384 0.37374 0.0
C324 C 0.14837 0.62306 0.21061 0.0
C325 C 0.20242 0.63773 0.24467 0.0
C326 C 0.06315 0.62767 0.20409 0.0
C327 C 0.03162 0.64709 0.23517 0.0
C328 C 0.0859 0.66177 0.27127 0.0
C329 C 0.17132 0.65701 0.27437 0.0
C330 C 0.00726 0.61198 0.16268 0.0
C331 C 0.05379 0.6824 0.30696 0.0
H332 H 0.80856 0.67634 0.09918 0.0
H333 H 0.75107 0.64424 0.33774 0.0
H334 H 0.02459 0.68089 0.11065 0.0
H335 H 0.01059 0.65645 0.05805 0.0
H336 H 0.94509 0.6784 0.0341 0.0
H337 H 0.85552 0.6305 0.42068 0.0
H338 H 0.9395 0.61881 0.35455 0.0
H339 H 0.95681 0.64327 0.40596 0.0
H340 H 0.17331 0.60825 0.18697 0.0
H341 H 0.21365 0.6682 0.30142 0.0
H342 H 0.97783 0.61933 0.1076 0.0
H343 H 0.9555 0.60692 0.20909 0.0
H344 H 0.04245 0.5979 0.13943 0.0
H345 H 0.02915 0.692 0.25503 0.0
H346 H 0.10364 0.69151 0.33716 0.0
H347 H 0.0009 0.67966 0.35552 0.0
C348 C 0.80357 0.3858 0.68596 0.0
C349 C 0.76945 0.36746 0.72266 0.0
C350 C 0.88989 0.38986 0.68629 0.0
C351 C 0.94206 0.37546 0.72646 0.0
C352 C 0.90754 0.35693 0.76412 0.0
C353 C 0.82128 0.35297 0.76043 0.0
C354 C 0.92534 0.40942 0.64296 0.0
C355 C 0.96134 0.34151 0.80925 0.0
C356 C 0.1764 0.37726 0.67088 0.0
C357 C 0.20341 0.39015 0.7362 0.0
C358 C 0.09103 0.37237 0.66648 0.0
C359 C 0.0325 0.38009 0.73062 0.0
C360 C 0.05989 0.39276 0.79776 0.0
C361 C 0.14525 0.39793 0.79895 0.0
C362 C 0.06351 0.35922 0.59283 0.0
C363 C -0.00083 0.40073 0.86846 0.0
H364 H 0.7632 0.39665 0.65482 0.0
H365 H 0.79396 0.33875 0.78832 0.0
H366 H 0.95365 0.41967 0.69071 0.0
H367 H 0.97618 0.40523 0.59414 0.0
H368 H 0.87655 0.41846 0.61116 0.0
H369 H 0.92393 0.32819 0.83742 0.0
H370 H 0.01121 0.33522 0.76369 0.0
H371 H -0.0067 0.34952 0.86127 0.0
H372 H 0.22187 0.37135 0.62226 0.0
H373 H 0.16685 0.40766 0.85004 0.0
H374 H 0.01336 0.36738 0.55968 0.0
H375 H 0.03662 0.34418 0.61741 0.0
H376 H 0.1164 0.35576 0.54515 0.0
H377 H 0.95237 0.41125 0.84129 0.0
H378 H 0.03161 0.40943 0.91841 0.0
H379 H 0.96384 0.38744 0.89942 0.0
C380 C 0.1836 0.30984 0.60121 0.0
C381 C 0.25405 0.32113 0.56805 0.0
C382 C 0.13387 0.29828 0.54693 0.0
C383 C 0.15403 0.29842 0.45719 0.0
C384 C 0.22001 0.31147 0.42288 0.0
C385 C 0.26959 0.32259 0.4788 0.0
C386 C 0.06536 0.28428 0.58669 0.0
C387 C 0.24099 0.31285 0.32738 0.0
C388 C 0.12005 0.24736 0.3407 0.0
C389 C 0.04031 0.25022 0.30984 0.0
C390 C 0.15778 0.26304 0.38794 0.0
C391 C 0.11603 0.28241 0.40181 0.0
C392 C 0.03742 0.28582 0.36624 0.0
C393 C -0.00079 0.26941 0.3225 0.0
C394 C 0.24088 0.25853 0.42592 0.0
C395 C -0.00686 0.30659 0.37596 0.0
H396 H 0.1711 0.3087 0.6701 0.0
H397 H 0.32297 0.33168 0.45277 0.0
H398 H 0.00692 0.28566 0.55212 0.0
H399 H 0.08614 0.26774 0.58166 0.0
H400 H 0.05047 0.28796 0.65547 0.0
H401 H 0.29979 0.32183 0.31165 0.0
H402 H 0.24851 0.29703 0.29885 0.0
H403 H 0.18837 0.32056 0.29642 0.0
H404 H 0.15084 0.23233 0.33201 0.0
H405 H 0.93707 0.27147 0.29906 0.0
H406 H 0.23432 0.2604 0.49667 0.0
H407 H 0.28943 0.26986 0.40087 0.0
H408 H 0.26377 0.24246 0.41108 0.0
H409 H 0.972 0.30916 0.44412 0.0
H410 H 0.93741 0.30747 0.3367 0.0
H411 H 0.03722 0.31951 0.35672 0.0
C412 C 0.48611 0.26021 0.84548 0.0
C413 C 0.53777 0.27572 0.80591 0.0
C414 C 0.52087 0.24383 0.89184 0.0
C415 C 0.6086 0.24367 0.90247 0.0
C416 C 0.66126 0.25871 0.85887 0.0
C417 C 0.62526 0.27433 0.80982 0.0
C418 C 0.46361 0.22714 0.93188 0.0
C419 C 0.75511 0.25917 0.86857 0.0
C420 C 0.69126 0.22427 0.11046 0.0
C421 C 0.74089 0.20733 0.08191 0.0
C422 C 0.6447 0.23571 0.05324 0.0
C423 C 0.64474 0.22942 0.96617 0.0
C424 C 0.68815 0.21101 0.93928 0.0
C425 C 0.73776 0.20052 -0.00306 0.0
C426 C 0.6017 0.25556 0.08446 0.0
C427 C 0.68669 0.20288 0.8488 0.0
H428 H 0.4184 0.26118 0.84189 0.0
H429 H 0.66521 0.2864 0.77984 0.0
H430 H 0.49118 0.21141 0.91957 0.0
H431 H 0.45694 0.2293 0.00241 0.0
H432 H 0.39986 0.22758 0.90672 0.0
H433 H 0.78706 0.27204 0.83114 0.0
H434 H 0.76773 0.26117 0.9372 0.0
H435 H 0.78344 0.24412 0.84687 0.0
H436 H 0.69443 0.22966 0.17599 0.0
H437 H 0.77587 0.18732 0.97487 0.0
H438 H 0.53445 0.25536 0.06982 0.0
H439 H 0.63166 0.26921 0.05053 0.0
H440 H 0.60543 0.25788 0.1546 0.0
H441 H 0.63136 0.20852 0.81572 0.0
H442 H 0.68579 0.18551 0.84894 0.0
H443 H 0.74488 0.20798 0.81151 0.0
C444 C 0.63829 0.75245 0.29958 0.0
C445 C 0.55284 0.75338 0.28348 0.0
C446 C 0.67528 0.76781 0.34929 0.0
C447 C 0.62641 0.78501 0.38046 0.0
C448 C 0.54195 0.78694 0.35782 0.0
C449 C 0.50533 0.77076 0.31163 0.0
C450 C 0.76498 0.76484 0.3733 0.0
C451 C 0.48953 0.8057 0.38492 0.0
C452 C 0.69538 0.80759 0.58945 0.0
C453 C 0.75578 0.82234 0.55971 0.0
C454 C 0.64978 0.79594 0.5318 0.0
C455 C 0.66222 0.79981 0.44246 0.0
C456 C 0.71701 0.81615 0.41291 0.0
C457 C 0.76481 0.82686 0.47169 0.0
C458 C 0.59419 0.77823 0.56617 0.0
C459 C 0.72952 0.82149 0.31884 0.0
H460 H 0.67456 0.73882 0.27901 0.0
H461 H 0.43909 0.77143 0.29925 0.0
H462 H 0.80422 0.7784 0.35122 0.0
H463 H 0.7668 0.76395 0.44415 0.0
H464 H 0.79374 0.7504 0.34507 0.0
H465 H 0.43081 0.80658 0.35019 0.0
H466 H 0.47195 0.80484 0.45466 0.0
H467 H 0.52626 0.82034 0.37314 0.0
H468 H 0.68878 0.80391 0.65733 0.0
H469 H 0.81151 0.83825 0.44836 0.0
H470 H 0.62088 0.76309 0.54295 0.0
H471 H 0.5303 0.77952 0.5423 0.0
H472 H 0.58833 0.77788 0.63742 0.0
H473 H 0.78061 0.8117 0.28877 0.0
H474 H 0.74837 0.83809 0.30967 0.0
H475 H 0.6715 0.81863 0.28464 0.0
C476 C 0.19319 0.72173 0.08612 0.0
C477 C 0.25908 0.70878 0.05498 0.0
C478 C 0.14656 0.73345 0.0297 0.0
C479 C 0.16412 0.73152 0.93994 0.0
C480 C 0.22469 0.71685 0.90823 0.0
C481 C 0.27276 0.70596 0.96608 0.0
C482 C 0.08386 0.74923 0.06648 0.0
C483 C 0.24192 0.71356 0.8131 0.0
C484 C 0.009 0.76013 0.80568 0.0
C485 C 0.05365 0.77859 0.78507 0.0
C486 C 0.04626 0.7439 0.85088 0.0
C487 C 0.1279 0.74685 0.88044 0.0
C488 C 0.17366 0.76534 0.85783 0.0
C489 C 0.13658 0.78076 0.80873 0.0
C490 C -0.00313 0.72404 0.8698 0.0
C491 C 0.25961 0.76955 0.89034 0.0
H492 H 0.18249 0.72403 0.1547 0.0
H493 H 0.32329 0.69586 0.94163 0.0
H494 H 0.10661 0.76527 0.05001 0.0
H495 H 0.02223 0.74717 0.03821 0.0
H496 H 0.07414 0.74799 0.13737 0.0
H497 H 0.28204 0.6997 0.79906 0.0
H498 H 0.18186 0.71156 0.78145 0.0
H499 H 0.27445 0.72747 0.78411 0.0
H500 H 0.94445 0.75858 0.78799 0.0
H501 H 0.17023 0.79526 0.79436 0.0
H502 H 0.96859 0.72448 0.93649 0.0
H503 H 0.03841 0.71014 0.86397 0.0
H504 H 0.94508 0.72211 0.82592 0.0
H505 H 0.25524 0.7696 0.96156 0.0
H506 H 0.2864 0.78478 0.86742 0.0
H507 H 0.30406 0.75699 0.86936 0.0
C508 C 0.01544 0.03608 0.0819 0.0
C509 C 0.06747 0.04698 0.13535 0.0
C510 C 0.03602 0.01578 0.05406 0.0
C511 C 0.10884 1.00592 0.08301 0.0
C512 C 0.16079 0.01678 0.1384 0.0
C513 C 0.1402 0.03737 0.16279 0.0
C514 C 0.97962 1.00486 -0.00625 0.0
C515 C 0.23594 1.0064 0.17442 0.0
C516 C 0.08359 0.94797 0.0495 0.0
C517 C 0.12198 0.94591 0.96682 0.0
C518 C 0.08773 0.96697 0.09416 0.0
C519 C 0.12956 0.9843 0.0538 0.0
C520 C 0.17811 0.98135 0.97574 0.0
C521 C 0.17502 0.96201 0.93388 0.0
C522 C 0.03941 0.96886 0.18001 0.0
C523 C 0.22483 0.99932 0.93123 0.0
H524 H 0.95917 0.04356 0.06103 0.0
H525 H 0.17939 0.04574 0.20577 0.0
H526 H 0.01708 0.99965 0.93535 0.0
H527 H 0.95127 0.99073 0.02536 0.0
H528 H 0.92802 0.0151 0.97387 0.0
H529 H 0.27198 0.01728 0.21384 0.0
H530 H 0.21428 0.99292 0.21503 0.0
H531 H 0.27882 1.00014 0.12197 0.0
H532 H 0.04446 0.93537 0.07598 0.0
H533 H 0.20582 0.96051 0.87027 0.0
H534 H 0.97104 0.96974 0.17002 0.0
H535 H 0.05781 0.98284 0.21653 0.0
H536 H 0.0498 0.95478 0.21953 0.0
H537 H 0.17934 1.01153 0.9145 0.0
H538 H 0.26103 0.99435 0.8716 0.0
H539 H 0.26886 1.0066 0.97478 0.0
C540 C 0.01008 0.08146 0.5485 0.0
C541 C 0.0734 0.08585 0.48419 0.0
C542 C 0.01294 0.0632 0.59801 0.0
C543 C 0.08173 0.04941 0.58411 0.0
C544 C 0.15265 0.05583 0.53111 0.0
C545 C 0.14758 0.07401 0.48098 0.0
C546 C 0.93816 0.05752 0.6579 0.0
C547 C 0.23029 0.04239 0.52072 0.0
C548 C 0.07658 0.99958 0.71894 0.0
C549 C 0.04661 0.98503 0.66108 0.0
C550 C 0.09019 0.02058 0.69499 0.0
C551 C 0.07238 0.02712 0.61133 0.0
C552 C 0.04175 1.0123 0.55289 0.0
C553 C 0.03026 0.99136 0.57828 0.0
C554 C 0.12446 0.03531 0.75985 0.0
C555 C 0.01945 0.01863 0.46386 0.0
H556 H 0.9538 0.09101 0.55337 0.0
H557 H 0.19781 0.07753 0.43292 0.0
H558 H 0.9054 0.04372 0.63236 0.0
H559 H 0.95944 0.05321 0.72185 0.0
H560 H 0.89238 0.07056 0.66595 0.0
H561 H 0.28532 0.05137 0.49264 0.0
H562 H 0.24602 0.03583 0.58358 0.0
H563 H 0.2183 0.0291 0.47749 0.0
H564 H 0.09013 0.99448 0.78288 0.0
H565 H 0.00716 0.97997 0.53393 0.0
H566 H 0.12268 0.052 0.7407 0.0
H567 H 0.19086 0.03109 0.76936 0.0
H568 H 0.08847 0.03342 0.8227 0.0
H569 H 0.97317 0.0316 0.4679 0.0
H570 H -0.00766 1.00547 0.42813 0.0
H571 H 0.07645 0.02441 0.42645 0.0
C572 C 0.51574 0.53911 0.06549 0.0
C573 C 0.56318 0.54806 0.12825 0.0
C574 C 0.53195 0.51863 0.03674 0.0
C575 C 0.59506 0.50663 0.07415 0.0
C576 C 0.64265 0.51565 0.13834 0.0
C577 C 0.6267 0.5364 0.16396 0.0
C578 C 0.48136 0.50984 0.96633 0.0
C579 C 0.70858 0.50329 0.18166 0.0
C580 C 0.55351 0.44928 0.03578 0.0
C581 C 0.60347 0.44596 0.95982 0.0
C582 C 0.5567 0.46843 0.07959 0.0
C583 C 0.60977 0.48465 0.04548 0.0
C584 C 0.66721 0.48046 0.97471 0.0
C585 C 0.66437 0.46098 0.9336 0.0
C586 C 0.49719 0.47207 0.15716 0.0
C587 C 0.72439 0.49732 0.93567 0.0
H588 H 0.46664 0.54823 0.03829 0.0
H589 H 0.66235 0.54336 0.21368 0.0
H590 H 0.52426 0.50432 0.91231 0.0
H591 H 0.44398 0.49615 -0.00926 0.0
H592 H 0.4376 0.52153 0.94132 0.0
H593 H 0.74867 0.51344 0.2201 0.0
H594 H 0.67698 0.49154 0.22516 0.0
H595 H 0.74962 0.49465 0.13389 0.0
H596 H 0.50672 0.43766 0.05659 0.0
H597 H 0.7029 0.45862 0.87465 0.0
H598 H 0.4478 0.48335 0.14094 0.0
H599 H 0.53163 0.47899 0.20994 0.0
H600 H 0.46583 0.45742 0.18039 0.0
H601 H 0.68645 0.50845 0.89962 0.0
H602 H 0.77428 0.49076 0.89059 0.0
H603 H 0.75466 0.5063 0.98612 0.0
C604 C 0.51639 0.49005 0.56889 0.0
C605 C 0.56892 0.48021 0.62478 0.0
C606 C 0.53423 0.51041 0.53911 0.0
C607 C 0.60446 0.52139 0.56871 0.0
C608 C 0.65679 0.51157 0.6266 0.0
C609 C 0.63918 0.49091 0.65281 0.0
C610 C 0.47765 0.52019 0.47618 0.0
C611 C 0.7297 0.52308 0.66254 0.0
C612 C 0.66876 0.56648 0.42228 0.0
C613 C 0.61388 0.5821 0.45492 0.0
C614 C 0.67193 0.54691 0.46269 0.0
C615 C 0.6214 0.54324 0.53914 0.0
C616 C 0.57583 0.55999 0.5788 0.0
C617 C 0.57155 0.57916 0.53533 0.0
C618 C 0.7207 0.52951 0.41745 0.0
C619 C 0.52373 0.55711 0.66212 0.0
H620 H 0.46205 0.48169 0.54763 0.0
H621 H 0.67879 0.4833 0.69745 0.0
H622 H 0.4458 0.53405 0.50573 0.0
H623 H 0.51561 0.52564 0.41829 0.0
H624 H 0.42873 0.50912 0.45581 0.0
H625 H 0.76417 0.51322 0.70719 0.0
H626 H 0.77449 0.52846 0.60972 0.0
H627 H 0.70621 0.53722 0.69746 0.0
H628 H 0.70122 0.56854 0.35965 0.0
H629 H 0.52954 0.59122 0.56057 0.0
H630 H 0.67619 0.51917 0.38527 0.0
H631 H 0.7536 0.51979 0.46363 0.0
H632 H 0.76779 0.53562 0.36799 0.0
H633 H 0.45828 0.55291 0.64797 0.0
H634 H 0.52136 0.57182 0.69968 0.0
H635 H 0.54878 0.54457 0.70242 0.0
loop_
_geom_bond_atom_site_label_1
_geom_bond_atom_site_label_2
_geom_bond_distance
_geom_bond_site_symmetry_2
_ccdc_geom_bond_type
C0 O27 1.312 . S
C0 O28 1.208 . S
C1 O22 1.331 . S
C1 O25 1.244 . S
C2 O24 1.264 . S
C2 O26 1.273 . S
Mg3 O5 1.936 1_455 S
Mg3 O12 2.081 . S
Mg3 O14 2.023 . S
Mg3 O18 2.031 . S
Mg3 O27 2.291 . S
Mg4 O5 1.963 . S
Mg4 O15 1.942 . S
Mg4 O16 1.955 . S
Mg4 O23 1.986 . S
O5 Mg3 1.936 1_655 S
O5 Mg4 1.963 . S
O5 Mg6 1.915 . S
Mg6 O5 1.915 . S
Mg6 O7 1.915 1_655 S
Mg6 O11 2.013 . S
Mg6 O17 2.114 1_655 S
Mg6 O21 2.013 . S
Mg6 O27 2.114 1_655 S
O7 Mg6 1.915 1_455 S
O7 Mg8 1.936 . S
O7 Mg9 1.963 1_455 S
Mg8 O7 1.936 . S
Mg8 O17 2.291 . S
Mg8 O22 2.081 . S
Mg8 O24 2.023 1_455 S
Mg8 O28 2.031 . S
Mg9 O7 1.963 1_655 S
Mg9 O13 1.986 . S
Mg9 O25 1.942 1_655 S
Mg9 O26 1.955 . S
C10 O21 1.191 . S
C10 O23 1.307 . S
O11 Mg6 2.013 . S
O11 C30 1.191 . S
O12 Mg3 2.081 . S
O12 C20 1.331 1_455 S
O13 Mg9 1.986 . S
O13 C30 1.307 . S
O14 Mg3 2.023 . S
O14 C29 1.264 . S
O15 Mg4 1.942 . S
O15 C20 1.244 . S
O16 Mg4 1.955 . S
O16 C29 1.273 1_655 S
O17 Mg6 2.114 1_455 S
O17 Mg8 2.291 . S
O17 C19 1.312 . S
O18 Mg3 2.031 . S
O18 C19 1.208 . S
C19 O17 1.312 . S
C19 O18 1.208 . S
C20 O12 1.331 1_655 S
C20 O15 1.244 . S
O21 Mg6 2.013 . S
O21 C10 1.191 . S
O22 C1 1.331 . S
O22 Mg8 2.081 . S
O23 Mg4 1.986 . S
O23 C10 1.307 . S
O24 C2 1.264 . S
O24 Mg8 2.023 1_655 S
O25 C1 1.244 . S
O25 Mg9 1.942 1_455 S
O26 C2 1.273 . S
O26 Mg9 1.955 . S
O27 C0 1.312 . S
O27 Mg3 2.291 . S
O27 Mg6 2.114 1_455 S
O28 C0 1.208 . S
O28 Mg8 2.031 . S
C29 O14 1.264 . S
C29 O16 1.273 1_455 S
C30 O11 1.191 . S
C30 O13 1.307 . S
C31 O58 1.312 . S
C31 O59 1.208 . S
C32 O53 1.331 1_655 S
C32 O56 1.244 . S
C33 O55 1.264 . S
C33 O57 1.273 1_455 S
Mg34 O36 1.936 . S
Mg34 O43 2.081 . S
Mg34 O45 2.023 1_455 S
Mg34 O49 2.031 . S
Mg34 O58 2.291 . S
Mg35 O36 1.963 1_655 S
Mg35 O46 1.942 1_655 S
Mg35 O47 1.955 . S
Mg35 O54 1.986 . S
O36 Mg34 1.936 . S
O36 Mg35 1.963 1_455 S
O36 Mg37 1.915 1_455 S
Mg37 O36 1.915 1_655 S
Mg37 O38 1.915 . S
Mg37 O42 2.013 . S
Mg37 O48 2.114 1_655 S
Mg37 O52 2.013 . S
Mg37 O58 2.114 1_655 S
O38 Mg37 1.915 . S
O38 Mg39 1.936 1_655 S
O38 Mg40 1.963 . S
Mg39 O38 1.936 1_455 S
Mg39 O48 2.291 . S
Mg39 O53 2.081 . S
Mg39 O55 2.023 . S
Mg39 O59 2.031 . S
Mg40 O38 1.963 . S
Mg40 O44 1.986 . S
Mg40 O56 1.942 . S
Mg40 O57 1.955 . S
C41 O52 1.191 . S
C41 O54 1.307 . S
O42 Mg37 2.013 . S
O42 C61 1.191 . S
O43 Mg34 2.081 . S
O43 C51 1.331 . S
O44 Mg40 1.986 . S
O44 C61 1.307 . S
O45 Mg34 2.023 1_655 S
O45 C60 1.264 . S
O46 Mg35 1.942 1_455 S
O46 C51 1.244 . S
O47 Mg35 1.955 . S
O47 C60 1.273 . S
O48 Mg37 2.114 1_455 S
O48 Mg39 2.291 . S
O48 C50 1.312 . S
O49 Mg34 2.031 . S
O49 C50 1.208 . S
C50 O48 1.312 . S
C50 O49 1.208 . S
C51 O43 1.331 . S
C51 O46 1.244 . S
O52 Mg37 2.013 . S
O52 C41 1.191 . S
O53 C32 1.331 1_455 S
O53 Mg39 2.081 . S
O54 Mg35 1.986 . S
O54 C41 1.307 . S
O55 C33 1.264 . S
O55 Mg39 2.023 . S
O56 C32 1.244 . S
O56 Mg40 1.942 . S
O57 C33 1.273 1_655 S
O57 Mg40 1.955 . S
O58 C31 1.312 . S
O58 Mg34 2.291 . S
O58 Mg37 2.114 1_455 S
O59 C31 1.208 . S
O59 Mg39 2.031 . S
C60 O45 1.264 . S
C60 O47 1.273 . S
C61 O42 1.191 . S
C61 O44 1.307 . S
C62 O89 1.312 . S
C62 O90 1.208 . S
C63 O84 1.331 . S
C63 O87 1.244 . S
C64 O86 1.264 . S
C64 O88 1.273 . S
Mg65 O67 1.936 . S
Mg65 O74 2.081 . S
Mg65 O76 2.023 . S
Mg65 O80 2.031 . S
Mg65 O89 2.291 . S
Mg66 O67 1.963 . S
Mg66 O77 1.942 . S
Mg66 O78 1.955 . S
Mg66 O85 1.986 . S
O67 Mg65 1.936 . S
O67 Mg66 1.963 . S
O67 Mg68 1.915 . S
Mg68 O67 1.915 . S
Mg68 O69 1.915 . S
Mg68 O73 2.013 . S
Mg68 O79 2.114 . S
Mg68 O83 2.013 . S
Mg68 O89 2.114 . S
O69 Mg68 1.915 . S
O69 Mg70 1.936 . S
O69 Mg71 1.963 . S
Mg70 O69 1.936 . S
Mg70 O79 2.291 . S
Mg70 O84 2.081 . S
Mg70 O86 2.023 . S
Mg70 O90 2.031 . S
Mg71 O69 1.963 . S
Mg71 O75 1.986 . S
Mg71 O87 1.942 . S
Mg71 O88 1.955 . S
C72 O83 1.191 . S
C72 O85 1.307 . S
O73 Mg68 2.013 . S
O73 C92 1.191 . S
O74 Mg65 2.081 . S
O74 C82 1.331 . S
O75 Mg71 1.986 . S
O75 C92 1.307 . S
O76 Mg65 2.023 . S
O76 C91 1.264 . S
O77 Mg66 1.942 . S
O77 C82 1.244 . S
O78 Mg66 1.955 . S
O78 C91 1.273 . S
O79 Mg68 2.114 . S
O79 Mg70 2.291 . S
O79 C81 1.312 . S
O80 Mg65 2.031 . S
O80 C81 1.208 . S
C81 O79 1.312 . S
C81 O80 1.208 . S
C82 O74 1.331 . S
C82 O77 1.244 . S
O83 Mg68 2.013 . S
O83 C72 1.191 . S
O84 C63 1.331 . S
O84 Mg70 2.081 . S
O85 Mg66 1.986 . S
O85 C72 1.307 . S
O86 C64 1.264 . S
O86 Mg70 2.023 . S
O87 C63 1.244 . S
O87 Mg71 1.942 . S
O88 C64 1.273 . S
O88 Mg71 1.955 . S
O89 C62 1.312 . S
O89 Mg65 2.291 . S
O89 Mg68 2.114 . S
O90 C62 1.208 . S
O90 Mg70 2.031 . S
C91 O76 1.264 . S
C91 O78 1.273 . S
C92 O73 1.191 . S
C92 O75 1.307 . S
C93 O120 1.312 . S
C93 O121 1.208 . S
C94 O115 1.331 . S
C94 O118 1.244 . S
C95 O117 1.264 . S
C95 O119 1.273 . S
Mg96 O98 1.936 . S
Mg96 O105 2.081 . S
Mg96 O107 2.023 . S
Mg96 O111 2.031 . S
Mg96 O120 2.291 . S
Mg97 O98 1.963 . S
Mg97 O108 1.942 . S
Mg97 O109 1.955 . S
Mg97 O116 1.986 . S
O98 Mg96 1.936 . S
O98 Mg97 1.963 . S
O98 Mg99 1.915 . S
Mg99 O98 1.915 . S
Mg99 O100 1.915 . S
Mg99 O104 2.013 . S
Mg99 O110 2.114 . S
Mg99 O114 2.013 . S
Mg99 O120 2.114 . S
O100 Mg99 1.915 . S
O100 Mg101 1.936 . S
O100 Mg102 1.963 . S
Mg101 O100 1.936 . S
Mg101 O110 2.291 . S
Mg101 O115 2.081 . S
Mg101 O117 2.023 . S
Mg101 O121 2.031 . S
Mg102 O100 1.963 . S
Mg102 O106 1.986 . S
Mg102 O118 1.942 . S
Mg102 O119 1.955 . S
C103 O114 1.191 . S
C103 O116 1.307 . S
O104 Mg99 2.013 . S
O104 C123 1.191 . S
O105 Mg96 2.081 . S
O105 C113 1.331 . S
O106 Mg102 1.986 . S
O106 C123 1.307 . S
O107 Mg96 2.023 . S
O107 C122 1.264 . S
O108 Mg97 1.942 . S
O108 C113 1.244 . S
O109 Mg97 1.955 . S
O109 C122 1.273 . S
O110 Mg99 2.114 . S
O110 Mg101 2.291 . S
O110 C112 1.312 . S
O111 Mg96 2.031 . S
O111 C112 1.208 . S
C112 O110 1.312 . S
C112 O111 1.208 . S
C113 O105 1.331 . S
C113 O108 1.244 . S
O114 Mg99 2.013 . S
O114 C103 1.191 . S
O115 C94 1.331 . S
O115 Mg101 2.081 . S
O116 Mg97 1.986 . S
O116 C103 1.307 . S
O117 C95 1.264 . S
O117 Mg101 2.023 . S
O118 C94 1.244 . S
O118 Mg102 1.942 . S
O119 C95 1.273 . S
O119 Mg102 1.955 . S
O120 C93 1.312 . S
O120 Mg96 2.291 . S
O120 Mg99 2.114 . S
O121 C93 1.208 . S
O121 Mg101 2.031 . S
C122 O107 1.264 . S
C122 O109 1.273 . S
C123 O104 1.191 . S
C123 O106 1.307 . S
C124 C125 1.391 . S
C124 C126 1.394 . S
C124 H140 0.931 . S
C125 C124 1.391 . S
C125 C129 1.376 1_455 S
C126 C124 1.394 . S
C126 C127 1.369 1_455 S
C126 C130 1.531 . S
C127 C126 1.369 1_655 S
C127 C128 1.410 . S
C127 C135 1.503 . S
C128 C127 1.410 . S
C128 C129 1.392 . S
C128 C131 1.511 . S
C129 C125 1.376 1_655 S
C129 C128 1.392 . S
C129 H141 0.929 . S
C130 C126 1.531 . S
C130 H142 0.960 . S
C130 H143 0.962 . S
C130 H144 0.960 . S
C131 C128 1.511 . S
C131 H145 0.961 . S
C131 H146 0.961 . S
C131 H147 0.961 . S
C132 C133 1.370 1_455 S
C132 C134 1.363 . S
C132 H148 0.931 . S
C133 C132 1.370 1_655 S
C133 C137 1.408 . S
C134 C132 1.363 . S
C134 C135 1.370 1_455 S
C134 C138 1.524 . S
C135 C127 1.503 . S
C135 C134 1.370 1_655 S
C135 C136 1.403 . S
C136 C135 1.403 . S
C136 C137 1.404 . S
C136 C139 1.539 . S
C137 C133 1.408 . S
C137 C136 1.404 . S
C137 H149 0.930 . S
C138 C134 1.524 . S
C138 H150 0.956 . S
C138 H151 0.961 . S
C138 H152 0.961 . S
C139 C136 1.539 . S
C139 H153 0.958 . S
C139 H154 0.961 . S
C139 H155 0.960 . S
H140 C124 0.931 . S
H141 C129 0.929 . S
H142 C130 0.960 . S
H143 C130 0.962 . S
H144 C130 0.960 . S
H145 C131 0.961 . S
H146 C131 0.961 . S
H147 C131 0.961 . S
H148 C132 0.931 . S
H149 C137 0.930 . S
H150 C138 0.956 . S
H151 C138 0.961 . S
H152 C138 0.961 . S
H153 C139 0.958 . S
H154 C139 0.961 . S
H155 C139 0.960 . S
C156 C157 1.391 1_655 S
C156 C158 1.394 . S
C156 H172 0.931 . S
C157 C156 1.391 1_455 S
C157 C161 1.376 . S
C158 C156 1.394 . S
C158 C159 1.369 1_655 S
C158 C162 1.531 . S
C159 C158 1.369 1_455 S
C159 C160 1.410 . S
C159 C167 1.502 1_455 S
C160 C159 1.410 . S
C160 C161 1.392 . S
C160 C163 1.511 . S
C161 C157 1.376 . S
C161 C160 1.392 . S
C161 H173 0.929 . S
C162 C158 1.531 . S
C162 H174 0.960 . S
C162 H175 0.962 . S
C162 H176 0.960 . S
C163 C160 1.511 . S
C163 H177 0.961 . S
C163 H178 0.961 . S
C163 H179 0.961 . S
C164 C165 1.370 . S
C164 C166 1.363 . S
C164 H180 0.931 . S
C165 C164 1.370 . S
C165 C169 1.408 1_655 S
C166 C164 1.363 . S
C166 C167 1.373 . S
C166 C170 1.524 . S
C167 C159 1.502 1_655 S
C167 C166 1.373 . S
C167 C168 1.402 1_655 S
C168 C167 1.402 1_455 S
C168 C169 1.404 . S
C168 C171 1.539 . S
C169 C165 1.408 1_455 S
C169 C168 1.404 . S
C169 H181 0.930 . S
C170 C166 1.524 . S
C170 H182 0.956 . S
C170 H183 0.961 . S
C170 H184 0.961 . S
C171 C168 1.539 . S
C171 H185 0.958 . S
C171 H186 0.961 . S
C171 H187 0.960 . S
H172 C156 0.931 . S
H173 C161 0.929 . S
H174 C162 0.960 . S
H175 C162 0.962 . S
H176 C162 0.960 . S
H177 C163 0.961 . S
H178 C163 0.961 . S
H179 C163 0.961 . S
H180 C164 0.931 . S
H181 C169 0.930 . S
H182 C170 0.956 . S
H183 C170 0.961 . S
H184 C170 0.961 . S
H185 C171 0.958 . S
H186 C171 0.961 . S
H187 C171 0.960 . S
C188 C189 1.391 . S
C188 C190 1.394 . S
C188 H204 0.931 . S
C189 C188 1.391 . S
C189 C193 1.376 . S
C190 C188 1.394 . S
C190 C191 1.369 . S
C190 C194 1.531 . S
C191 C190 1.369 . S
C191 C192 1.410 . S
C191 C199 1.503 . S
C192 C191 1.410 . S
C192 C193 1.392 . S
C192 C195 1.511 . S
C193 C189 1.376 . S
C193 C192 1.392 . S
C193 H205 0.929 . S
C194 C190 1.531 . S
C194 H206 0.960 . S
C194 H207 0.962 . S
C194 H208 0.960 . S
C195 C192 1.511 . S
C195 H209 0.961 . S
C195 H210 0.961 . S
C195 H211 0.961 . S
C196 C197 1.370 . S
C196 C198 1.363 . S
C196 H212 0.931 . S
C197 C196 1.370 . S
C197 C201 1.408 . S
C198 C196 1.363 . S
C198 C199 1.370 . S
C198 C202 1.524 . S
C199 C191 1.503 . S
C199 C198 1.370 . S
C199 C200 1.403 . S
C200 C199 1.403 . S
C200 C201 1.404 . S
C200 C203 1.539 . S
C201 C197 1.408 . S
C201 C200 1.404 . S
C201 H213 0.930 . S
C202 C198 1.524 . S
C202 H214 0.956 . S
C202 H215 0.961 . S
C202 H216 0.961 . S
C203 C200 1.539 . S
C203 H217 0.958 . S
C203 H218 0.961 . S
C203 H219 0.960 . S
H204 C188 0.931 . S
H205 C193 0.929 . S
H206 C194 0.960 . S
H207 C194 0.962 . S
H208 C194 0.960 . S
H209 C195 0.961 . S
H210 C195 0.961 . S
H211 C195 0.961 . S
H212 C196 0.931 . S
H213 C201 0.930 . S
H214 C202 0.956 . S
H215 C202 0.961 . S
H216 C202 0.961 . S
H217 C203 0.958 . S
H218 C203 0.961 . S
H219 C203 0.960 . S
C220 C221 1.391 . S
C220 C222 1.394 . S
C220 H236 0.931 . S
C221 C220 1.391 . S
C221 C225 1.376 . S
C222 C220 1.394 . S
C222 C223 1.369 . S
C222 C226 1.531 . S
C223 C222 1.369 . S
C223 C224 1.410 . S
C223 C231 1.503 . S
C224 C223 1.410 . S
C224 C225 1.392 . S
C224 C227 1.511 . S
C225 C221 1.376 . S
C225 C224 1.392 . S
C225 H237 0.929 . S
C226 C222 1.531 . S
C226 H238 0.960 . S
C226 H239 0.962 . S
C226 H240 0.960 . S
C227 C224 1.511 . S
C227 H241 0.961 . S
C227 H242 0.961 . S
C227 H243 0.961 . S
C228 C229 1.370 . S
C228 C230 1.363 . S
C228 H244 0.931 . S
C229 C228 1.370 . S
C229 C233 1.408 . S
C230 C228 1.363 . S
C230 C231 1.370 . S
C230 C234 1.524 . S
C231 C223 1.503 . S
C231 C230 1.370 . S
C231 C232 1.403 . S
C232 C231 1.403 . S
C232 C233 1.404 . S
C232 C235 1.539 . S
C233 C229 1.408 . S
C233 C232 1.404 . S
C233 H245 0.930 . S
C234 C230 1.524 . S
C234 H246 0.956 . S
C234 H247 0.961 . S
C234 H248 0.961 . S
C235 C232 1.539 . S
C235 H249 0.958 . S
C235 H250 0.961 . S
C235 H251 0.960 . S
H236 C220 0.931 . S
H237 C225 0.929 . S
H238 C226 0.960 . S
H239 C226 0.962 . S
H240 C226 0.960 . S
H241 C227 0.961 . S
H242 C227 0.961 . S
H243 C227 0.961 . S
H244 C228 0.931 . S
H245 C233 0.930 . S
H246 C234 0.956 . S
H247 C234 0.961 . S
H248 C234 0.961 . S
H249 C235 0.958 . S
H250 C235 0.961 . S
H251 C235 0.960 . S
C252 C253 1.391 . S
C252 C254 1.394 . S
C252 H268 0.931 . S
C253 C252 1.391 . S
C253 C257 1.376 . S
C254 C252 1.394 . S
C254 C255 1.369 . S
C254 C258 1.531 . S
C255 C254 1.369 . S
C255 C256 1.410 . S
C255 C263 1.503 . S
C256 C255 1.410 . S
C256 C257 1.392 . S
C256 C259 1.511 . S
C257 C253 1.376 . S
C257 C256 1.392 . S
C257 H269 0.929 . S
C258 C254 1.531 . S
C258 H270 0.960 . S
C258 H271 0.962 . S
C258 H272 0.960 . S
C259 C256 1.511 . S
C259 H273 0.961 . S
C259 H274 0.961 . S
C259 H275 0.961 . S
C260 C261 1.370 . S
C260 C262 1.363 . S
C260 H276 0.931 . S
C261 C260 1.370 . S
C261 C265 1.408 . S
C262 C260 1.363 . S
C262 C263 1.370 . S
C262 C266 1.524 . S
C263 C255 1.503 . S
C263 C262 1.370 . S
C263 C264 1.403 . S
C264 C263 1.403 . S
C264 C265 1.404 . S
C264 C267 1.539 . S
C265 C261 1.408 . S
C265 C264 1.404 . S
C265 H277 0.930 . S
C266 C262 1.524 . S
C266 H278 0.956 . S
C266 H279 0.961 . S
C266 H280 0.961 . S
C267 C264 1.539 . S
C267 H281 0.958 . S
C267 H282 0.961 . S
C267 H283 0.960 . S
H268 C252 0.931 . S
H269 C257 0.929 . S
H270 C258 0.960 . S
H271 C258 0.962 . S
H272 C258 0.960 . S
H273 C259 0.961 . S
H274 C259 0.961 . S
H275 C259 0.961 . S
H276 C260 0.931 . S
H277 C265 0.930 . S
H278 C266 0.956 . S
H279 C266 0.961 . S
H280 C266 0.961 . S
H281 C267 0.958 . S
H282 C267 0.961 . S
H283 C267 0.960 . S
C284 C285 1.391 . S
C284 C286 1.394 . S
C284 H300 0.931 . S
C285 C284 1.391 . S
C285 C289 1.376 . S
C286 C284 1.394 . S
C286 C287 1.369 . S
C286 C290 1.531 . S
C287 C286 1.369 . S
C287 C288 1.410 . S
C287 C295 1.503 . S
C288 C287 1.410 . S
C288 C289 1.392 . S
C288 C291 1.511 . S
C289 C285 1.376 . S
C289 C288 1.392 . S
C289 H301 0.929 . S
C290 C286 1.531 . S
C290 H302 0.960 . S
C290 H303 0.962 . S
C290 H304 0.960 . S
C291 C288 1.511 . S
C291 H305 0.961 . S
C291 H306 0.961 . S
C291 H307 0.961 . S
C292 C293 1.370 . S
C292 C294 1.363 . S
C292 H308 0.931 . S
C293 C292 1.370 . S
C293 C297 1.408 . S
C294 C292 1.363 . S
C294 C295 1.370 . S
C294 C298 1.524 . S
C295 C287 1.503 . S
C295 C294 1.370 . S
C295 C296 1.403 . S
C296 C295 1.403 . S
C296 C297 1.404 . S
C296 C299 1.539 . S
C297 C293 1.408 . S
C297 C296 1.404 . S
C297 H309 0.930 . S
C298 C294 1.524 . S
C298 H310 0.956 . S
C298 H311 0.961 . S
C298 H312 0.961 . S
C299 C296 1.539 . S
C299 H313 0.958 . S
C299 H314 0.961 . S
C299 H315 0.960 . S
H300 C284 0.931 . S
H301 C289 0.929 . S
H302 C290 0.960 . S
H303 C290 0.962 . S
H304 C290 0.960 . S
H305 C291 0.961 . S
H306 C291 0.961 . S
H307 C291 0.961 . S
H308 C292 0.931 . S
H309 C297 0.930 . S
H310 C298 0.956 . S
H311 C298 0.961 . S
H312 C298 0.961 . S
H313 C299 0.958 . S
H314 C299 0.961 . S
H315 C299 0.960 . S
C316 C317 1.391 . S
C316 C318 1.394 . S
C316 H332 0.931 . S
C317 C316 1.391 . S
C317 C321 1.376 . S
C318 C316 1.394 . S
C318 C319 1.369 . S
C318 C322 1.531 . S
C319 C318 1.369 . S
C319 C320 1.410 . S
C319 C327 1.503 1_655 S
C320 C319 1.410 . S
C320 C321 1.392 . S
C320 C323 1.511 . S
C321 C317 1.376 . S
C321 C320 1.392 . S
C321 H333 0.929 . S
C322 C318 1.531 . S
C322 H334 0.960 1_655 S
C322 H335 0.962 . S
C322 H336 0.960 . S
C323 C320 1.511 . S
C323 H337 0.961 . S
C323 H338 0.962 . S
C323 H339 0.961 . S
C324 C325 1.370 . S
C324 C326 1.363 . S
C324 H340 0.931 . S
C325 C324 1.370 . S
C325 C329 1.408 . S
C326 C324 1.363 . S
C326 C327 1.370 . S
C326 C330 1.524 . S
C327 C319 1.503 1_455 S
C327 C326 1.370 . S
C327 C328 1.403 . S
C328 C327 1.403 . S
C328 C329 1.404 . S
C328 C331 1.539 . S
C329 C325 1.408 . S
C329 C328 1.404 . S
C329 H341 0.930 . S
C330 C326 1.524 . S
C330 H342 0.956 . S
C330 H343 0.961 1_455 S
C330 H344 0.961 . S
C331 C328 1.539 . S
C331 H345 0.958 . S
C331 H346 0.961 . S
C331 H347 0.960 1_455 S
H332 C316 0.931 . S
H333 C321 0.929 . S
H334 C322 0.960 1_455 S
H335 C322 0.962 . S
H336 C322 0.960 . S
H337 C323 0.961 . S
H338 C323 0.962 . S
H339 C323 0.961 . S
H340 C324 0.931 . S
H341 C329 0.930 . S
H342 C330 0.956 . S
H343 C330 0.961 1_655 S
H344 C330 0.961 . S
H345 C331 0.958 . S
H346 C331 0.961 . S
H347 C331 0.960 1_655 S
C348 C349 1.391 . S
C348 C350 1.394 . S
C348 H364 0.931 . S
C349 C348 1.391 . S
C349 C353 1.376 . S
C350 C348 1.394 . S
C350 C351 1.369 . S
C350 C354 1.531 . S
C351 C350 1.369 . S
C351 C352 1.410 . S
C351 C359 1.503 1_655 S
C352 C351 1.410 . S
C352 C353 1.392 . S
C352 C355 1.511 . S
C353 C349 1.376 . S
C353 C352 1.392 . S
C353 H365 0.929 . S
C354 C350 1.531 . S
C354 H366 0.960 1_655 S
C354 H367 0.962 . S
C354 H368 0.960 . S
C355 C352 1.511 . S
C355 H369 0.961 . S
C355 H370 0.961 . S
C355 H371 0.961 . S
C356 C357 1.370 . S
C356 C358 1.363 . S
C356 H372 0.931 . S
C357 C356 1.370 . S
C357 C361 1.408 . S
C358 C356 1.363 . S
C358 C359 1.370 . S
C358 C362 1.524 . S
C359 C351 1.503 1_455 S
C359 C358 1.370 . S
C359 C360 1.403 . S
C360 C359 1.403 . S
C360 C361 1.404 . S
C360 C363 1.539 . S
C361 C357 1.408 . S
C361 C360 1.404 . S
C361 H373 0.930 . S
C362 C358 1.524 . S
C362 H374 0.956 . S
C362 H375 0.961 1_455 S
C362 H376 0.961 . S
C363 C360 1.539 . S
C363 H377 0.958 . S
C363 H378 0.961 . S
C363 H379 0.960 1_455 S
H364 C348 0.931 . S
H365 C353 0.929 . S
H366 C354 0.960 1_455 S
H367 C354 0.962 . S
H368 C354 0.960 . S
H369 C355 0.961 . S
H370 C355 0.961 . S
H371 C355 0.961 . S
H372 C356 0.931 . S
H373 C361 0.930 . S
H374 C362 0.956 . S
H375 C362 0.961 1_655 S
H376 C362 0.961 . S
H377 C363 0.958 . S
H378 C363 0.961 . S
H379 C363 0.960 1_655 S
C380 C381 1.391 . S
C380 C382 1.394 . S
C380 H396 0.931 . S
C381 C380 1.391 . S
C381 C385 1.376 . S
C382 C380 1.394 . S
C382 C383 1.369 . S
C382 C386 1.531 . S
C383 C382 1.369 . S
C383 C384 1.410 . S
C383 C391 1.503 . S
C384 C383 1.410 . S
C384 C385 1.392 . S
C384 C387 1.511 . S
C385 C381 1.376 . S
C385 C384 1.392 . S
C385 H397 0.929 . S
C386 C382 1.531 . S
C386 H398 0.960 . S
C386 H399 0.962 . S
C386 H400 0.960 . S
C387 C384 1.511 . S
C387 H401 0.961 . S
C387 H402 0.961 . S
C387 H403 0.961 . S
C388 C389 1.370 . S
C388 C390 1.363 . S
C388 H404 0.931 . S
C389 C388 1.370 . S
C389 C393 1.408 . S
C390 C388 1.363 . S
C390 C391 1.370 . S
C390 C394 1.524 . S
C391 C383 1.503 . S
C391 C390 1.370 . S
C391 C392 1.403 . S
C392 C391 1.403 . S
C392 C393 1.404 . S
C392 C395 1.539 . S
C393 C389 1.408 . S
C393 C392 1.404 . S
C393 H405 0.930 . S
C394 C390 1.524 . S
C394 H406 0.956 . S
C394 H407 0.961 . S
C394 H408 0.961 . S
C395 C392 1.539 . S
C395 H409 0.958 . S
C395 H410 0.961 . S
C395 H411 0.960 . S
H396 C380 0.931 . S
H397 C385 0.929 . S
H398 C386 0.960 . S
H399 C386 0.962 . S
H400 C386 0.960 . S
H401 C387 0.961 . S
H402 C387 0.961 . S
H403 C387 0.961 . S
H404 C388 0.931 . S
H405 C393 0.930 . S
H406 C394 0.956 . S
H407 C394 0.961 . S
H408 C394 0.961 . S
H409 C395 0.958 . S
H410 C395 0.961 . S
H411 C395 0.960 . S
C412 C413 1.391 . S
C412 C414 1.394 . S
C412 H428 0.931 . S
C413 C412 1.391 . S
C413 C417 1.376 . S
C414 C412 1.394 . S
C414 C415 1.369 . S
C414 C418 1.531 . S
C415 C414 1.369 . S
C415 C416 1.410 . S
C415 C423 1.503 1_556 S
C416 C415 1.410 . S
C416 C417 1.392 . S
C416 C419 1.511 1_556 S
C417 C413 1.376 . S
C417 C416 1.392 . S
C417 H429 0.929 . S
C418 C414 1.531 . S
C418 H430 0.960 . S
C418 H431 0.962 . S
C418 H432 0.960 . S
C419 C416 1.511 1_554 S
C419 H433 0.961 . S
C419 H434 0.961 . S
C419 H435 0.961 1_554 S
C420 C421 1.370 . S
C420 C422 1.363 . S
C420 H436 0.931 . S
C421 C420 1.370 . S
C421 C425 1.408 . S
C422 C420 1.363 . S
C422 C423 1.370 . S
C422 C426 1.524 . S
C423 C415 1.503 1_554 S
C423 C422 1.370 . S
C423 C424 1.403 1_554 S
C424 C423 1.403 1_556 S
C424 C425 1.404 1_556 S
C424 C427 1.539 . S
C425 C421 1.408 . S
C425 C424 1.404 1_554 S
C425 H437 0.930 1_554 S
C426 C422 1.524 . S
C426 H438 0.956 . S
C426 H439 0.961 . S
C426 H440 0.961 . S
C427 C424 1.539 . S
C427 H441 0.958 . S
C427 H442 0.961 . S
C427 H443 0.960 . S
H428 C412 0.931 . S
H429 C417 0.929 . S
H430 C418 0.960 . S
H431 C418 0.962 . S
H432 C418 0.960 . S
H433 C419 0.961 . S
H434 C419 0.961 . S
H435 C419 0.961 1_556 S
H436 C420 0.931 . S
H437 C425 0.930 1_556 S
H438 C426 0.956 . S
H439 C426 0.961 . S
H440 C426 0.961 . S
H441 C427 0.958 . S
H442 C427 0.961 . S
H443 C427 0.960 . S
C444 C445 1.391 . S
C444 C446 1.394 . S
C444 H460 0.931 . S
C445 C444 1.391 . S
C445 C449 1.376 . S
C446 C444 1.394 . S
C446 C447 1.369 . S
C446 C450 1.531 . S
C447 C446 1.369 . S
C447 C448 1.410 . S
C447 C455 1.503 . S
C448 C447 1.410 . S
C448 C449 1.392 . S
C448 C451 1.511 . S
C449 C445 1.376 . S
C449 C448 1.392 . S
C449 H461 0.929 . S
C450 C446 1.531 . S
C450 H462 0.960 . S
C450 H463 0.962 . S
C450 H464 0.960 . S
C451 C448 1.511 . S
C451 H465 0.961 . S
C451 H466 0.961 . S
C451 H467 0.961 . S
C452 C453 1.370 . S
C452 C454 1.363 . S
C452 H468 0.931 . S
C453 C452 1.370 . S
C453 C457 1.408 . S
C454 C452 1.363 . S
C454 C455 1.370 . S
C454 C458 1.524 . S
C455 C447 1.503 . S
C455 C454 1.370 . S
C455 C456 1.403 . S
C456 C455 1.403 . S
C456 C457 1.404 . S
C456 C459 1.539 . S
C457 C453 1.408 . S
C457 C456 1.404 . S
C457 H469 0.930 . S
C458 C454 1.524 . S
C458 H470 0.956 . S
C458 H471 0.961 . S
C458 H472 0.961 . S
C459 C456 1.539 . S
C459 H473 0.958 . S
C459 H474 0.961 . S
C459 H475 0.960 . S
H460 C444 0.931 . S
H461 C449 0.929 . S
H462 C450 0.960 . S
H463 C450 0.962 . S
H464 C450 0.960 . S
H465 C451 0.961 . S
H466 C451 0.961 . S
H467 C451 0.961 . S
H468 C452 0.931 . S
H469 C457 0.930 . S
H470 C458 0.956 . S
H471 C458 0.961 . S
H472 C458 0.961 . S
H473 C459 0.958 . S
H474 C459 0.961 . S
H475 C459 0.960 . S
C476 C477 1.391 . S
C476 C478 1.394 . S
C476 H492 0.931 . S
C477 C476 1.391 . S
C477 C481 1.376 . S
C478 C476 1.394 . S
C478 C479 1.369 . S
C478 C482 1.531 . S
C479 C478 1.369 . S
C479 C480 1.410 . S
C479 C487 1.503 1_554 S
C480 C479 1.410 . S
C480 C481 1.392 . S
C480 C483 1.511 . S
C481 C477 1.376 . S
C481 C480 1.392 . S
C481 H493 0.929 . S
C482 C478 1.531 . S
C482 H494 0.960 . S
C482 H495 0.962 . S
C482 H496 0.960 . S
C483 C480 1.511 . S
C483 H497 0.961 . S
C483 H498 0.961 1_554 S
C483 H499 0.961 . S
C484 C485 1.370 . S
C484 C486 1.363 . S
C484 H500 0.931 . S
C485 C484 1.370 . S
C485 C489 1.408 . S
C486 C484 1.363 . S
C486 C487 1.370 . S
C486 C490 1.524 . S
C487 C479 1.503 1_556 S
C487 C486 1.370 . S
C487 C488 1.403 1_556 S
C488 C487 1.403 1_554 S
C488 C489 1.404 1_554 S
C488 C491 1.539 . S
C489 C485 1.408 . S
C489 C488 1.404 1_556 S
C489 H501 0.930 1_556 S
C490 C486 1.524 . S
C490 H502 0.956 . S
C490 H503 0.961 . S
C490 H504 0.961 . S
C491 C488 1.539 . S
C491 H505 0.958 . S
C491 H506 0.961 . S
C491 H507 0.960 . S
H492 C476 0.931 . S
H493 C481 0.929 . S
H494 C482 0.960 . S
H495 C482 0.962 . S
H496 C482 0.960 . S
H497 C483 0.961 . S
H498 C483 0.961 1_556 S
H499 C483 0.961 . S
H500 C484 0.931 . S
H501 C489 0.930 1_554 S
H502 C490 0.956 . S
H503 C490 0.961 . S
H504 C490 0.961 . S
H505 C491 0.958 . S
H506 C491 0.961 . S
H507 C491 0.960 . S
C508 C509 1.382 1_556 S
C508 C510 1.398 . S
C508 H524 0.935 . S
C509 C508 1.382 1_554 S
C509 C513 1.376 . S
C510 C508 1.398 . S
C510 C511 1.369 . S
C510 C514 1.531 . S
C511 C510 1.369 . S
C511 C512 1.410 1_656 S
C511 C519 1.503 1_645 S
C512 C511 1.410 1_454 S
C512 C513 1.392 1_455 S
C512 C515 1.511 . S
C513 C509 1.376 . S
C513 C512 1.392 1_655 S
C513 H525 0.929 1_655 S
C514 C510 1.531 . S
C514 H526 0.960 . S
C514 H527 0.962 . S
C514 H528 0.960 . S
C515 C512 1.511 . S
C515 H529 0.961 . S
C515 H530 0.961 1_545 S
C515 H531 0.961 . S
C516 C517 1.370 . S
C516 C518 1.363 1_455 S
C516 H532 0.931 1_455 S
C517 C516 1.370 . S
C517 C521 1.408 . S
C518 C516 1.363 1_655 S
C518 C519 1.370 1_655 S
C518 C522 1.524 1_556 S
C519 C511 1.503 1_465 S
C519 C518 1.370 1_455 S
C519 C520 1.403 . S
C520 C519 1.403 . S
C520 C521 1.404 . S
C520 C523 1.539 1_565 S
C521 C517 1.408 . S
C521 C520 1.404 . S
C521 H533 0.930 . S
C522 C518 1.524 1_554 S
C522 H534 0.956 . S
C522 H535 0.961 . S
C522 H536 0.961 . S
C523 C520 1.539 1_545 S
C523 H537 0.958 . S
C523 H538 0.961 . S
C523 H539 0.960 . S
H524 C508 0.935 . S
H525 C513 0.929 1_455 S
H526 C514 0.960 . S
H527 C514 0.962 . S
H528 C514 0.960 . S
H529 C515 0.961 . S
H530 C515 0.961 1_565 S
H531 C515 0.961 . S
H532 C516 0.931 1_655 S
H533 C521 0.930 . S
H534 C522 0.956 . S
H535 C522 0.961 . S
H536 C522 0.961 . S
H537 C523 0.958 . S
H538 C523 0.961 . S
H539 C523 0.960 . S
C540 C541 1.391 . S
C540 C542 1.394 1_455 S
C540 H556 0.931 1_455 S
C541 C540 1.391 . S
C541 C545 1.376 . S
C542 C540 1.394 1_655 S
C542 C543 1.369 1_655 S
C542 C546 1.531 . S
C543 C542 1.369 1_455 S
C543 C544 1.410 . S
C543 C551 1.503 1_445 S
C544 C543 1.410 . S
C544 C545 1.392 . S
C544 C547 1.511 . S
C545 C541 1.376 . S
C545 C544 1.392 . S
C545 H557 0.929 . S
C546 C542 1.531 . S
C546 H558 0.960 1_545 S
C546 H559 0.962 . S
C546 H560 0.960 . S
C547 C544 1.511 . S
C547 H561 0.961 . S
C547 H562 0.961 . S
C547 H563 0.961 . S
C548 C549 1.370 . S
C548 C550 1.363 . S
C548 H564 0.931 . S
C549 C548 1.370 . S
C549 C553 1.408 . S
C550 C548 1.363 . S
C550 C551 1.370 . S
C550 C554 1.524 1_565 S
C551 C543 1.503 1_665 S
C551 C550 1.370 . S
C551 C552 1.403 1_655 S
C552 C551 1.403 1_455 S
C552 C553 1.404 1_455 S
C552 C555 1.539 . S
C553 C549 1.408 . S
C553 C552 1.404 1_655 S
C553 H565 0.930 1_655 S
C554 C550 1.524 1_545 S
C554 H566 0.956 . S
C554 H567 0.961 . S
C554 H568 0.961 . S
C555 C552 1.539 . S
C555 H569 0.958 . S
C555 H570 0.961 . S
C555 H571 0.960 . S
H556 C540 0.931 1_655 S
H557 C545 0.929 . S
H558 C546 0.960 1_565 S
H559 C546 0.962 . S
H560 C546 0.960 . S
H561 C547 0.961 . S
H562 C547 0.961 . S
H563 C547 0.961 . S
H564 C548 0.931 . S
H565 C553 0.930 1_455 S
H566 C554 0.956 . S
H567 C554 0.961 . S
H568 C554 0.961 . S
H569 C555 0.958 . S
H570 C555 0.961 . S
H571 C555 0.960 . S
C572 C573 1.391 . S
C572 C574 1.394 1_554 S
C572 H588 0.931 1_554 S
C573 C572 1.391 . S
C573 C577 1.376 . S
C574 C572 1.394 1_556 S
C574 C575 1.369 . S
C574 C578 1.531 . S
C575 C574 1.369 . S
C575 C576 1.410 1_556 S
C575 C583 1.503 . S
C576 C575 1.410 1_554 S
C576 C577 1.392 . S
C576 C579 1.511 . S
C577 C573 1.376 . S
C577 C576 1.392 . S
C577 H589 0.929 . S
C578 C574 1.531 . S
C578 H590 0.960 . S
C578 H591 0.962 . S
C578 H592 0.960 . S
C579 C576 1.511 . S
C579 H593 0.961 . S
C579 H594 0.961 . S
C579 H595 0.961 . S
C580 C581 1.370 . S
C580 C582 1.363 1_556 S
C580 H596 0.930 . S
C581 C580 1.370 . S
C581 C585 1.408 . S
C582 C580 1.363 1_554 S
C582 C583 1.370 1_554 S
C582 C586 1.524 . S
C583 C575 1.503 . S
C583 C582 1.370 1_556 S
C583 C584 1.403 . S
C584 C583 1.403 . S
C584 C585 1.404 . S
C584 C587 1.539 . S
C585 C581 1.408 . S
C585 C584 1.404 . S
C585 H597 0.930 . S
C586 C582 1.524 . S
C586 H598 0.956 . S
C586 H599 0.961 . S
C586 H600 0.961 . S
C587 C584 1.539 . S
C587 H601 0.958 . S
C587 H602 0.961 . S
C587 H603 0.960 . S
H588 C572 0.931 1_556 S
H589 C577 0.929 . S
H590 C578 0.960 . S
H591 C578 0.962 . S
H592 C578 0.960 . S
H593 C579 0.961 . S
H594 C579 0.961 . S
H595 C579 0.961 . S
H596 C580 0.930 . S
H597 C585 0.930 . S
H598 C586 0.956 . S
H599 C586 0.961 . S
H600 C586 0.961 . S
H601 C587 0.958 . S
H602 C587 0.961 . S
H603 C587 0.960 . S
C604 C605 1.391 . S
C604 C606 1.394 . S
C604 H620 0.931 . S
C605 C604 1.391 . S
C605 C609 1.376 . S
C606 C604 1.394 . S
C606 C607 1.369 . S
C606 C610 1.531 . S
C607 C606 1.369 . S
C607 C608 1.410 . S
C607 C615 1.503 . S
C608 C607 1.410 . S
C608 C609 1.392 . S
C608 C611 1.511 . S
C609 C605 1.376 . S
C609 C608 1.392 . S
C609 H621 0.929 . S
C610 C606 1.531 . S
C610 H622 0.960 . S
C610 H623 0.962 . S
C610 H624 0.960 . S
C611 C608 1.511 . S
C611 H625 0.961 . S
C611 H626 0.961 . S
C611 H627 0.961 . S
C612 C613 1.370 . S
C612 C614 1.363 . S
C612 H628 0.931 . S
C613 C612 1.370 . S
C613 C617 1.408 . S
C614 C612 1.363 . S
C614 C615 1.370 . S
C614 C618 1.524 . S
C615 C607 1.503 . S
C615 C614 1.370 . S
C615 C616 1.403 . S
C616 C615 1.403 . S
C616 C617 1.404 . S
C616 C619 1.539 . S
C617 C613 1.408 . S
C617 C616 1.404 . S
C617 H629 0.930 . S
C618 C614 1.524 . S
C618 H630 0.956 . S
C618 H631 0.961 . S
C618 H632 0.961 . S
C619 C616 1.539 . S
C619 H633 0.958 . S
C619 H634 0.961 . S
C619 H635 0.960 . S
H620 C604 0.931 . S
H621 C609 0.929 . S
H622 C610 0.960 . S
H623 C610 0.962 . S
H624 C610 0.960 . S
H625 C611 0.961 . S
H626 C611 0.961 . S
H627 C611 0.961 . S
H628 C612 0.931 . S
H629 C617 0.930 . S
H630 C618 0.956 . S
H631 C618 0.961 . S
H632 C618 0.961 . S
H633 C619 0.958 . S
H634 C619 0.961 . S
H635 C619 0.960 . S
C125 C19 1.293 1_556 S
C133 C30 1.310 . S
C157 C31 1.272 . S
C165 C41 1.315 1_554 S
C189 C62 1.310 1_556 S
C197 C72 1.300 . S
C221 C103 1.286 1_554 S
C229 C93 1.304 . S
C253 C10 1.239 . S
C261 C0 1.263 . S
C285 C61 1.255 . S
C293 C50 1.259 . S
C317 C81 1.251 . S
C325 C92 1.266 . S
C349 C112 1.281 . S
C357 C123 1.255 . S
C381 C122 1.827 . S
C389 C1 1.809 . S
C413 C113 1.813 . S
C421 C2 1.816 . S
C445 C82 1.803 . S
C453 C60 1.822 . S
C477 C91 1.801 . S
C485 C51 1.819 . S
C509 C20 1.453 . S
C517 C33 1.453 . S
C541 C29 1.446 . S
C549 C32 1.461 . S
C573 C63 1.463 . S
C581 C95 1.449 . S
C605 C94 1.422 . S
C613 C64 1.463 . S
