# Generated by pormake.
# Topology umo, (4)-cn, num edge types: 1
# Building blocks:
#     Node 0, Type 0, BuildingBlock: NAWXER_clean_sbu_0, # of connection points: 4
#     Node 1, Type 0, BuildingBlock: NAWXER_clean_sbu_0, # of connection points: 4
#     Node 2, Type 0, BuildingBlock: NAWXER_clean_sbu_0, # of connection points: 4
#     Node 3, Type 0, BuildingBlock: NAWXER_clean_sbu_0, # of connection points: 4
#     Node 4, Type 0, BuildingBlock: NAWXER_clean_sbu_0, # of connection points: 4
#     Node 5, Type 0, BuildingBlock: NAWXER_clean_sbu_0, # of connection points: 4
#     Node 6, Type 0, BuildingBlock: NAWXER_clean_sbu_0, # of connection points: 4
#     Node 7, Type 0, BuildingBlock: NAWXER_clean_sbu_0, # of connection points: 4
#     Node 8, Type 0, BuildingBlock: NAWXER_clean_sbu_0, # of connection points: 4
#     Node 9, Type 0, BuildingBlock: NAWXER_clean_sbu_0, # of connection points: 4
#     Node 10, Type 0, BuildingBlock: NAWXER_clean_sbu_0, # of connection points: 4
#     Node 11, Type 0, BuildingBlock: NAWXER_clean_sbu_0, # of connection points: 4
#     Edge 12, Type (0, 0), BuildingBlock: MIFKUJ_clean_linker_0, # of connection points: 2
#     Edge 13, Type (0, 0), BuildingBlock: MIFKUJ_clean_linker_0, # of connection points: 2
#     Edge 14, Type (0, 0), BuildingBlock: MIFKUJ_clean_linker_0, # of connection points: 2
#     Edge 15, Type (0, 0), BuildingBlock: MIFKUJ_clean_linker_0, # of connection points: 2
#     Edge 16, Type (0, 0), BuildingBlock: MIFKUJ_clean_linker_0, # of connection points: 2
#     Edge 17, Type (0, 0), BuildingBlock: MIFKUJ_clean_linker_0, # of connection points: 2
#     Edge 18, Type (0, 0), BuildingBlock: MIFKUJ_clean_linker_0, # of connection points: 2
#     Edge 19, Type (0, 0), BuildingBlock: MIFKUJ_clean_linker_0, # of connection points: 2
#     Edge 20, Type (0, 0), BuildingBlock: MIFKUJ_clean_linker_0, # of connection points: 2
#     Edge 21, Type (0, 0), BuildingBlock: MIFKUJ_clean_linker_0, # of connection points: 2
#     Edge 22, Type (0, 0), BuildingBlock: MIFKUJ_clean_linker_0, # of connection points: 2
#     Edge 23, Type (0, 0), BuildingBlock: MIFKUJ_clean_linker_0, # of connection points: 2
#     Edge 24, Type (0, 0), BuildingBlock: MIFKUJ_clean_linker_0, # of connection points: 2
#     Edge 25, Type (0, 0), BuildingBlock: MIFKUJ_clean_linker_0, # of connection points: 2
#     Edge 26, Type (0, 0), BuildingBlock: MIFKUJ_clean_linker_0, # of connection points: 2
#     Edge 27, Type (0, 0), BuildingBlock: MIFKUJ_clean_linker_0, # of connection points: 2
#     Edge 28, Type (0, 0), BuildingBlock: MIFKUJ_clean_linker_0, # of connection points: 2
#     Edge 29, Type (0, 0), BuildingBlock: MIFKUJ_clean_linker_0, # of connection points: 2
#     Edge 30, Type (0, 0), BuildingBlock: MIFKUJ_clean_linker_0, # of connection points: 2
#     Edge 31, Type (0, 0), BuildingBlock: MIFKUJ_clean_linker_0, # of connection points: 2
#     Edge 32, Type (0, 0), BuildingBlock: MIFKUJ_clean_linker_0, # of connection points: 2
#     Edge 33, Type (0, 0), BuildingBlock: MIFKUJ_clean_linker_0, # of connection points: 2
#     Edge 34, Type (0, 0), BuildingBlock: MIFKUJ_clean_linker_0, # of connection points: 2
#     Edge 35, Type (0, 0), BuildingBlock: MIFKUJ_clean_linker_0, # of connection points: 2
# Relax obj value: 0.169
# Max RMSD: 0.217
# Mean RMSD: 0.217
data_MOF--net-umo--node1-NAWXER_clean_sbu_0--edge1-MIFKUJ_clean_linker_0
_symmetry_space_group_name_H-M    P1
_symmetry_Int_Tables_number       1
_symmetry_cell_setting            triclinic
loop_
_symmetry_equiv_pos_as_xyz
'x, y, z'
_cell_length_a     63.793955
_cell_length_b     63.682893
_cell_length_c     48.796167
_cell_angle_alpha  90.088876
_cell_angle_beta   89.997371
_cell_angle_gamma 119.95711
loop_
_atom_site_label
_atom_site_type_symbol
_atom_site_fract_x
_atom_site_fract_y
_atom_site_fract_z
_atom_type_partial_charge
C0 C 0.1984 0.57121 0.4071 0.0
C1 C 0.1166 0.5062 0.39207 0.0
O2 O 0.19458 0.55162 0.41897 0.0
Zn3 Zn 0.16463 0.5148 0.42316 0.0
O4 O 0.18143 0.57168 0.39403 0.0
Zn5 Zn 0.15748 0.53891 0.40103 0.0
O6 O 0.15235 0.53926 0.44443 0.0
O7 O 0.15958 0.5119 0.46267 0.0
O8 O 0.12646 0.52842 0.38571 0.0
O9 O 0.12861 0.49862 0.40594 0.0
O10 O 0.17795 0.4968 0.40499 0.0
O11 O 0.17145 0.52024 0.3772 0.0
C12 C 0.15383 0.52822 0.46564 0.0
C13 C 0.17874 0.505 0.38102 0.0
C14 C 0.60667 0.11983 0.54918 0.0
C15 C 0.62177 0.20137 0.56443 0.0
O16 O 0.62609 0.13226 0.56319 0.0
Zn17 Zn 0.64592 0.16867 0.57925 0.0
O18 O 0.59433 0.12948 0.5419 0.0
Zn19 Zn 0.61426 0.16079 0.55742 0.0
O20 O 0.64672 0.17596 0.53327 0.0
O21 O 0.67689 0.18224 0.56051 0.0
O22 O 0.60415 0.18405 0.55189 0.0
O23 O 0.63827 0.19811 0.57528 0.0
O24 O 0.64449 0.16415 0.61883 0.0
O25 O 0.60943 0.15558 0.60084 0.0
C26 C 0.6693 0.18349 0.53679 0.0
C27 C 0.62229 0.15768 0.62196 0.0
C28 C 0.48078 0.6718 0.71168 0.0
C29 C 0.45819 0.62454 0.79684 0.0
O30 O 0.46553 0.64929 0.70781 0.0
Zn31 Zn 0.44675 0.61702 0.73207 0.0
O32 O 0.48874 0.67925 0.73571 0.0
Zn33 Zn 0.47105 0.64819 0.75427 0.0
O34 O 0.4866 0.62736 0.73792 0.0
O35 O 0.45672 0.59587 0.71707 0.0
O36 O 0.47444 0.64661 0.79372 0.0
O37 O 0.44707 0.61185 0.77569 0.0
O38 O 0.41376 0.60826 0.72615 0.0
O39 O 0.4342 0.641 0.75175 0.0
C40 C 0.47877 0.60762 0.72419 0.0
C41 C 0.41432 0.62521 0.74046 0.0
C42 C 0.79091 0.41889 0.90096 0.0
C43 C 0.86893 0.48983 0.88498 0.0
O44 O 0.79244 0.4379 0.91199 0.0
Zn45 Zn 0.81915 0.4757 0.91597 0.0
O46 O 0.80877 0.42037 0.88781 0.0
Zn47 Zn 0.82976 0.45446 0.8932 0.0
O48 O 0.83669 0.45586 0.93667 0.0
O49 O 0.82329 0.47847 0.95537 0.0
O50 O 0.86074 0.46825 0.87665 0.0
O51 O 0.85572 0.49516 0.90003 0.0
O52 O 0.80291 0.49088 0.89818 0.0
O53 O 0.81238 0.47003 0.86964 0.0
C54 C 0.8329 0.46527 0.95803 0.0
C55 C 0.80292 0.48338 0.87404 0.0
C56 C 0.38622 0.87607 0.05364 0.0
C57 C 0.37357 0.7954 0.06617 0.0
O58 O 0.36652 0.86297 0.06689 0.0
Zn59 Zn 0.34795 0.8264 0.08275 0.0
O60 O 0.39948 0.86726 0.04707 0.0
Zn61 Zn 0.37977 0.83553 0.06091 0.0
O62 O 0.34731 0.82091 0.03634 0.0
O63 O 0.31688 0.81206 0.06441 0.0
O64 O 0.39065 0.81315 0.05362 0.0
O65 O 0.3568 0.79787 0.07764 0.0
O66 O 0.34924 0.83033 0.12247 0.0
O67 O 0.38441 0.83928 0.10456 0.0
C68 C 0.32461 0.81248 0.04028 0.0
C69 C 0.37137 0.83657 0.1257 0.0
C70 C 0.50928 0.32237 0.20601 0.0
C71 C 0.52916 0.37264 0.2887 0.0
O72 O 0.52373 0.34491 0.2013 0.0
Zn73 Zn 0.54119 0.37814 0.2241 0.0
O74 O 0.50141 0.31552 0.23018 0.0
Zn75 Zn 0.51766 0.34738 0.24729 0.0
O76 O 0.50081 0.36603 0.22854 0.0
O77 O 0.53005 0.39753 0.20712 0.0
O78 O 0.51358 0.35026 0.28632 0.0
O79 O 0.54021 0.38478 0.26727 0.0
O80 O 0.57452 0.38802 0.21884 0.0
O81 O 0.55507 0.35625 0.24601 0.0
C82 C 0.50795 0.38508 0.21378 0.0
C83 C 0.57467 0.37212 0.23438 0.0
C84 C 0.48793 0.8108 0.47885 0.0
C85 C 0.46664 0.83681 0.39372 0.0
O86 O 0.47289 0.81833 0.48257 0.0
Zn87 Zn 0.45455 0.83228 0.45829 0.0
O88 O 0.49605 0.81125 0.45494 0.0
Zn89 Zn 0.47888 0.82525 0.43631 0.0
O90 O 0.49453 0.86147 0.45324 0.0
O91 O 0.46475 0.86319 0.47412 0.0
O92 O 0.48251 0.83049 0.39693 0.0
O93 O 0.45549 0.83843 0.41478 0.0
O94 O 0.42137 0.80806 0.46353 0.0
O95 O 0.44206 0.79577 0.43846 0.0
C96 C 0.48687 0.87336 0.4673 0.0
C97 C 0.42208 0.79165 0.4494 0.0
C98 C 0.61986 0.4669 0.55783 0.0
C99 C 0.66409 0.48614 0.6449 0.0
O100 O 0.60646 0.45517 0.57819 0.0
Zn101 Zn 0.60987 0.4534 0.62159 0.0
O102 O 0.6418 0.48289 0.56213 0.0
Zn103 Zn 0.64205 0.47835 0.60167 0.0
O104 O 0.63503 0.44136 0.60421 0.0
O105 O 0.6002 0.42003 0.62588 0.0
O106 O 0.6724 0.49529 0.6215 0.0
O107 O 0.64144 0.47084 0.64753 0.0
O108 O 0.5885 0.4632 0.63605 0.0
O109 O 0.62128 0.49388 0.61831 0.0
C110 C 0.61838 0.42111 0.6139 0.0
C111 C 0.60093 0.48563 0.63075 0.0
C112 C 0.17892 0.67605 0.81266 0.0
C113 C 0.14863 0.62509 0.73054 0.0
O114 O 0.16999 0.65342 0.81764 0.0
Zn115 Zn 0.15298 0.61984 0.79571 0.0
O116 O 0.17831 0.6829 0.78836 0.0
Zn117 Zn 0.16206 0.65074 0.77163 0.0
O118 O 0.12603 0.6335 0.78879 0.0
O119 O 0.12232 0.60253 0.81307 0.0
O120 O 0.1565 0.64774 0.73243 0.0
O121 O 0.14619 0.61286 0.75238 0.0
O122 O 0.17507 0.60837 0.80232 0.0
O123 O 0.18955 0.64051 0.77541 0.0
C124 C 0.11356 0.61533 0.80456 0.0
C125 C 0.19213 0.62411 0.78766 0.0
C126 C 0.50266 0.11613 0.96098 0.0
C127 C 0.57221 0.19593 0.95036 0.0
O128 O 0.49668 0.13003 0.94836 0.0
Zn129 Zn 0.51561 0.16709 0.93393 0.0
O130 O 0.52448 0.12419 0.96803 0.0
Zn131 Zn 0.53742 0.1563 0.95505 0.0
O132 O 0.52077 0.17171 0.98036 0.0
O133 O 0.49971 0.18192 0.9531 0.0
O134 O 0.57095 0.17752 0.962 0.0
O135 O 0.55325 0.19453 0.9394 0.0
O136 O 0.51299 0.16414 0.89416 0.0
O137 O 0.53764 0.15277 0.9114 0.0
C138 C 0.50711 0.18097 0.97701 0.0
C139 C 0.52777 0.1565 0.89052 0.0
C140 C 0.38377 0.50624 0.13516 0.0
C141 C 0.37252 0.57529 0.12477 0.0
O142 O 0.36356 0.49995 0.1232 0.0
Zn143 Zn 0.34447 0.51815 0.11007 0.0
O144 O 0.39733 0.52811 0.14231 0.0
Zn145 Zn 0.37758 0.54073 0.13009 0.0
O146 O 0.34642 0.52477 0.15651 0.0
O147 O 0.31454 0.50205 0.13081 0.0
O148 O 0.39003 0.57444 0.13602 0.0
O149 O 0.35462 0.55597 0.11477 0.0
O150 O 0.34361 0.51504 0.07016 0.0
O151 O 0.37989 0.54036 0.08635 0.0
C152 C 0.32351 0.51057 0.15424 0.0
C153 C 0.36583 0.53019 0.06588 0.0
C154 C 0.81239 0.32613 0.31021 0.0
C155 C 0.83793 0.36791 0.22179 0.0
O156 O 0.82163 0.34917 0.31227 0.0
Zn157 Zn 0.83751 0.38024 0.28559 0.0
O158 O 0.81178 0.31688 0.2869 0.0
Zn159 Zn 0.82656 0.34684 0.26608 0.0
O160 O 0.86369 0.36548 0.28051 0.0
O161 O 0.86936 0.39957 0.29906 0.0
O162 O 0.82901 0.34541 0.22647 0.0
O163 O 0.84217 0.38249 0.24187 0.0
O164 O 0.8163 0.39293 0.29082 0.0
O165 O 0.79943 0.35758 0.26952 0.0
C166 C 0.8775 0.38568 0.29272 0.0
C167 C 0.79798 0.37552 0.27937 0.0
H168 H 0.21748 0.61012 0.37276 0.0
H169 H 0.25718 0.64672 0.37601 0.0
H170 H 0.27263 0.61867 0.44907 0.0
H171 H 0.23345 0.58166 0.44519 0.0
H172 H 0.27457 0.68018 0.41185 0.0
H173 H 0.33076 0.63985 0.45807 0.0
H174 H 0.33399 0.60292 0.45443 0.0
H175 H 0.30395 0.59002 0.37336 0.0
H176 H 0.30034 0.62677 0.37654 0.0
H177 H 0.37848 0.77331 0.47549 0.0
H178 H 0.34142 0.7352 0.46559 0.0
H179 H 0.37832 0.71971 0.40141 0.0
H180 H 0.41554 0.75733 0.41171 0.0
H181 H 0.35137 0.68042 0.42879 0.0
H182 H 0.33966 0.74103 0.38655 0.0
H183 H 0.33832 0.77899 0.38348 0.0
H184 H 0.28218 0.7527 0.44422 0.0
H185 H 0.28342 0.7147 0.44793 0.0
C186 C 0.22945 0.61173 0.38939 0.0
C187 C 0.22243 0.59311 0.40874 0.0
C188 C 0.25211 0.63262 0.39123 0.0
C189 C 0.26801 0.63536 0.41261 0.0
C190 C 0.26095 0.61675 0.43199 0.0
C191 C 0.23848 0.59567 0.42988 0.0
C192 C 0.29141 0.65818 0.41553 0.0
C193 C 0.29137 0.68021 0.41542 0.0
C194 C 0.31344 0.65833 0.41963 0.0
C195 C 0.31513 0.63597 0.41765 0.0
C196 C 0.32482 0.62911 0.43947 0.0
C197 C 0.32663 0.60818 0.43752 0.0
C198 C 0.31902 0.59405 0.41374 0.0
C199 C 0.30957 0.60084 0.39186 0.0
C200 C 0.30756 0.62168 0.39376 0.0
C201 C 0.3787 0.76172 0.45936 0.0
C202 C 0.39988 0.76831 0.44435 0.0
C203 C 0.35751 0.74003 0.45363 0.0
C204 C 0.35704 0.72481 0.43249 0.0
C205 C 0.37828 0.73118 0.41781 0.0
C206 C 0.39953 0.7527 0.42372 0.0
C207 C 0.33438 0.70228 0.42558 0.0
C208 C 0.33457 0.68035 0.42503 0.0
C209 C 0.31265 0.7023 0.41989 0.0
C210 C 0.31179 0.7251 0.41769 0.0
C211 C 0.32715 0.74342 0.3994 0.0
C212 C 0.32639 0.76493 0.39752 0.0
C213 C 0.31021 0.76828 0.41369 0.0
C214 C 0.29472 0.75009 0.43173 0.0
C215 C 0.29543 0.72855 0.43371 0.0
H216 H 0.30965 0.78494 0.4122 0.0
H217 H 0.32053 0.5779 0.41222 0.0
H218 H 0.58502 0.21117 0.55857 0.0
H219 H 0.58666 0.24986 0.566 0.0
H220 H 0.66309 0.28377 0.58347 0.0
H221 H 0.66134 0.24484 0.57708 0.0
H222 H 0.64296 0.29773 0.61951 0.0
H223 H 0.64119 0.29363 0.52219 0.0
H224 H 0.6268 0.27566 0.47643 0.0
H225 H 0.55828 0.27089 0.49171 0.0
H226 H 0.57211 0.28853 0.53773 0.0
H227 H 0.65897 0.41809 0.605 0.0
H228 H 0.66126 0.38133 0.59647 0.0
H229 H 0.58378 0.33783 0.60466 0.0
H230 H 0.58134 0.37438 0.61384 0.0
H231 H 0.60724 0.33094 0.5543 0.0
H232 H 0.61093 0.33419 0.65382 0.0
H233 H 0.62797 0.35415 0.6981 0.0
H234 H 0.69717 0.36346 0.67559 0.0
H235 H 0.6806 0.34383 0.63097 0.0
C236 C 0.60221 0.22691 0.56378 0.0
C237 C 0.62305 0.22502 0.56726 0.0
C238 C 0.60316 0.24905 0.56791 0.0
C239 C 0.62508 0.2698 0.57494 0.0
C240 C 0.64599 0.26799 0.57808 0.0
C241 C 0.64497 0.24577 0.57438 0.0
C242 C 0.62591 0.29314 0.58004 0.0
C243 C 0.6355 0.30516 0.60501 0.0
C244 C 0.61602 0.30279 0.56124 0.0
C245 C 0.60763 0.29223 0.53352 0.0
C246 C 0.62299 0.28859 0.51589 0.0
C247 C 0.61494 0.27849 0.48989 0.0
C248 C 0.59163 0.27209 0.4812 0.0
C249 C 0.57633 0.27584 0.49848 0.0
C250 C 0.58427 0.28591 0.52451 0.0
C251 C 0.64245 0.40066 0.60515 0.0
C252 C 0.61997 0.39902 0.61007 0.0
C253 C 0.64381 0.37977 0.60032 0.0
C254 C 0.62268 0.35705 0.59992 0.0
C255 C 0.60024 0.35531 0.60489 0.0
C256 C 0.59891 0.37614 0.61025 0.0
C257 C 0.6239 0.33505 0.59376 0.0
C258 C 0.61479 0.32343 0.56859 0.0
C259 C 0.63466 0.32606 0.61209 0.0
C260 C 0.6446 0.33779 0.63893 0.0
C261 C 0.62984 0.34071 0.65819 0.0
C262 C 0.6394 0.35191 0.68339 0.0
C263 C 0.66365 0.36011 0.68964 0.0
C264 C 0.67839 0.35711 0.67072 0.0
C265 C 0.66892 0.34593 0.64548 0.0
H266 H 0.67101 0.36876 0.70916 0.0
H267 H 0.58544 0.26428 0.46107 0.0
H268 H 0.20767 0.59804 0.81732 0.0
H269 H 0.24589 0.59814 0.81206 0.0
H270 H 0.26545 0.64837 0.74475 0.0
H271 H 0.22771 0.64882 0.75025 0.0
H272 H 0.26462 0.58524 0.77153 0.0
H273 H 0.32508 0.68779 0.74566 0.0
H274 H 0.32721 0.72655 0.75715 0.0
H275 H 0.28907 0.69611 0.8323 0.0
H276 H 0.28703 0.6573 0.82148 0.0
H277 H 0.37243 0.60358 0.71075 0.0
H278 H 0.33484 0.60347 0.7209 0.0
H279 H 0.36789 0.64728 0.79283 0.0
H280 H 0.40574 0.64831 0.78212 0.0
H281 H 0.34263 0.66281 0.7695 0.0
H282 H 0.32764 0.58471 0.7964 0.0
H283 H 0.32578 0.54528 0.79141 0.0
H284 H 0.27394 0.52573 0.72638 0.0
H285 H 0.27572 0.5652 0.73072 0.0
C286 C 0.22015 0.60911 0.80143 0.0
C287 C 0.21483 0.6236 0.78436 0.0
C288 C 0.24191 0.6091 0.79842 0.0
C289 C 0.25861 0.62352 0.77829 0.0
C290 C 0.25303 0.63751 0.7608 0.0
C291 C 0.23143 0.6377 0.76394 0.0
C292 C 0.28193 0.62405 0.77542 0.0
C293 C 0.2817 0.60217 0.77116 0.0
C294 C 0.30422 0.64612 0.77572 0.0
C295 C 0.30573 0.66956 0.78261 0.0
C296 C 0.31726 0.6894 0.7647 0.0
C297 C 0.31843 0.71137 0.77109 0.0
C298 C 0.30821 0.71376 0.7954 0.0
C299 C 0.29689 0.69421 0.81343 0.0
C300 C 0.29571 0.67221 0.80716 0.0
C301 C 0.37167 0.61329 0.72862 0.0
C302 C 0.39196 0.62593 0.74566 0.0
C303 C 0.35016 0.61309 0.73451 0.0
C304 C 0.34841 0.625 0.75792 0.0
C305 C 0.36881 0.63796 0.77467 0.0
C306 C 0.39043 0.63854 0.76852 0.0
C307 C 0.32534 0.62401 0.76494 0.0
C308 C 0.32559 0.64584 0.76998 0.0
C309 C 0.30318 0.6018 0.76638 0.0
C310 C 0.30198 0.578 0.76374 0.0
C311 C 0.31597 0.57207 0.78091 0.0
C312 C 0.31491 0.5497 0.77822 0.0
C313 C 0.29979 0.53303 0.75855 0.0
C314 C 0.28566 0.53867 0.74158 0.0
C315 C 0.28666 0.56103 0.74417 0.0
H316 H 0.299 0.51573 0.7565 0.0
H317 H 0.30911 0.73078 0.80028 0.0
H318 H 0.78619 0.37391 0.8988 0.0
H319 H 0.74992 0.33519 0.90882 0.0
H320 H 0.70938 0.37214 0.92097 0.0
H321 H 0.74583 0.41093 0.91223 0.0
H322 H 0.6988 0.34133 0.95956 0.0
H323 H 0.70402 0.33765 0.86179 0.0
H324 H 0.72318 0.33917 0.81738 0.0
H325 H 0.73263 0.27968 0.84183 0.0
H326 H 0.71379 0.278 0.88654 0.0
H327 H 0.5795 0.24119 0.94094 0.0
H328 H 0.61824 0.27854 0.93481 0.0
H329 H 0.65611 0.23918 0.94815 0.0
H330 H 0.61742 0.20173 0.9548 0.0
H331 H 0.6689 0.26957 0.89861 0.0
H332 H 0.65955 0.27264 0.99624 0.0
H333 H 0.63715 0.27098 0.03813 0.0
H334 H 0.63227 0.33241 0.01066 0.0
H335 H 0.65427 0.33418 0.96835 0.0
C336 C 0.76946 0.37369 0.90337 0.0
C337 C 0.76875 0.39535 0.90471 0.0
C338 C 0.74874 0.35157 0.90904 0.0
C339 C 0.72685 0.35072 0.91539 0.0
C340 C 0.72608 0.37236 0.91625 0.0
C341 C 0.74688 0.39448 0.91113 0.0
C342 C 0.70482 0.32741 0.9218 0.0
C343 C 0.69217 0.32575 0.94604 0.0
C344 C 0.69637 0.30689 0.90448 0.0
C345 C 0.70774 0.30788 0.87762 0.0
C346 C 0.71036 0.32502 0.85778 0.0
C347 C 0.72113 0.32589 0.83254 0.0
C348 C 0.72919 0.30958 0.82682 0.0
C349 C 0.72643 0.29233 0.8463 0.0
C350 C 0.71569 0.2914 0.87159 0.0
C351 C 0.59609 0.24053 0.94277 0.0
C352 C 0.59551 0.21861 0.94833 0.0
C353 C 0.61813 0.26184 0.93933 0.0
C354 C 0.63987 0.26146 0.94108 0.0
C355 C 0.63942 0.23968 0.94678 0.0
C356 C 0.61737 0.21841 0.95069 0.0
C357 C 0.663 0.28378 0.93603 0.0
C358 C 0.67578 0.28519 0.91211 0.0
C359 C 0.67128 0.30419 0.95333 0.0
C360 C 0.6584 0.30341 0.979 0.0
C361 C 0.65354 0.28568 0.99902 0.0
C362 C 0.64094 0.28474 0.02286 0.0
C363 C 0.63327 0.30156 0.02703 0.0
C364 C 0.63822 0.31939 1.00739 0.0
C365 C 0.65078 0.32038 0.98349 0.0
H366 H 0.6235 0.30079 0.04549 0.0
H367 H 0.73752 0.31028 0.80726 0.0
H368 H 0.33671 0.75217 0.08404 0.0
H369 H 0.33801 0.71521 0.09321 0.0
H370 H 0.41197 0.74984 0.06508 0.0
H371 H 0.41063 0.78679 0.05517 0.0
H372 H 0.38789 0.70399 0.04835 0.0
H373 H 0.39994 0.74563 0.13281 0.0
H374 H 0.39176 0.76717 0.16957 0.0
H375 H 0.32354 0.70335 0.18585 0.0
H376 H 0.33114 0.68152 0.14888 0.0
H377 H 0.41262 0.61994 0.12093 0.0
H378 H 0.414 0.65824 0.11031 0.0
H379 H 0.33602 0.62153 0.11031 0.0
H380 H 0.33445 0.58302 0.12012 0.0
H381 H 0.36518 0.66968 0.14208 0.0
H382 H 0.35547 0.62931 0.0541 0.0
H383 H 0.36736 0.60966 0.01861 0.0
H384 H 0.43661 0.67426 0.01105 0.0
H385 H 0.42534 0.69411 0.047 0.0
C386 C 0.35319 0.75187 0.07957 0.0
C387 C 0.37365 0.77244 0.06916 0.0
C388 C 0.35393 0.73077 0.08491 0.0
C389 C 0.37526 0.73001 0.08037 0.0
C390 C 0.39539 0.75014 0.06885 0.0
C391 C 0.39459 0.77122 0.06323 0.0
C392 C 0.37669 0.70845 0.0886 0.0
C393 C 0.38323 0.69667 0.06893 0.0
C394 C 0.37066 0.69898 0.11551 0.0
C395 C 0.36602 0.71199 0.13788 0.0
C396 C 0.38311 0.73623 0.14408 0.0
C397 C 0.37859 0.74849 0.16498 0.0
C398 C 0.35712 0.73665 0.18 0.0
C399 C 0.34015 0.7125 0.17418 0.0
C400 C 0.34456 0.70017 0.15327 0.0
C401 C 0.39579 0.62012 0.11897 0.0
C402 C 0.37341 0.59862 0.1213 0.0
C403 C 0.39663 0.6419 0.1128 0.0
C404 C 0.37511 0.64247 0.10943 0.0
C405 C 0.35276 0.62125 0.11282 0.0
C406 C 0.3519 0.59937 0.11837 0.0
C407 C 0.37586 0.66511 0.1017 0.0
C408 C 0.36987 0.67712 0.12155 0.0
C409 C 0.38292 0.67505 0.07517 0.0
C410 C 0.38968 0.66308 0.05356 0.0
C411 C 0.37336 0.63922 0.04516 0.0
C412 C 0.37996 0.62806 0.0249 0.0
C413 C 0.40276 0.64067 0.01266 0.0
C414 C 0.41899 0.66448 0.02062 0.0
C415 C 0.4125 0.67569 0.04094 0.0
H416 H 0.40783 0.63203 0.99695 0.0
H417 H 0.35366 0.74617 0.19618 0.0
H418 H 0.78656 0.40751 0.30298 0.0
H419 H 0.74836 0.4076 0.29922 0.0
H420 H 0.71999 0.3449 0.24634 0.0
H421 H 0.75775 0.34431 0.2505 0.0
H422 H 0.72612 0.41345 0.25734 0.0
H423 H 0.66061 0.30875 0.2566 0.0
H424 H 0.658 0.27223 0.2774 0.0
H425 H 0.70415 0.31524 0.34332 0.0
H426 H 0.70676 0.35195 0.32315 0.0
H427 H 0.61441 0.38874 0.20158 0.0
H428 H 0.65245 0.38988 0.21212 0.0
H429 H 0.62467 0.3591 0.29183 0.0
H430 H 0.58621 0.35665 0.28068 0.0
H431 H 0.64707 0.33915 0.27347 0.0
H432 H 0.66704 0.42167 0.28115 0.0
H433 H 0.66979 0.46008 0.26674 0.0
H434 H 0.71487 0.4649 0.19892 0.0
H435 H 0.71214 0.42635 0.21272 0.0
C436 C 0.77214 0.3937 0.29063 0.0
C437 C 0.7751 0.37582 0.27715 0.0
C438 C 0.75038 0.39381 0.28847 0.0
C439 C 0.73128 0.37608 0.27279 0.0
C440 C 0.73433 0.35845 0.25901 0.0
C441 C 0.75597 0.3582 0.26132 0.0
C442 C 0.70822 0.37616 0.27032 0.0
C443 C 0.70881 0.39726 0.26098 0.0
C444 C 0.68572 0.35521 0.27579 0.0
C445 C 0.68405 0.33314 0.2882 0.0
C446 C 0.67012 0.3104 0.27559 0.0
C447 C 0.66865 0.28967 0.28727 0.0
C448 C 0.68096 0.29143 0.31162 0.0
C449 C 0.6947 0.31391 0.3244 0.0
C450 C 0.69621 0.33469 0.31283 0.0
C451 C 0.61648 0.38217 0.22129 0.0
C452 C 0.59747 0.3726 0.24032 0.0
C453 C 0.63824 0.38298 0.22739 0.0
C454 C 0.64161 0.37501 0.253 0.0
C455 C 0.62252 0.36534 0.27194 0.0
C456 C 0.60057 0.36395 0.26557 0.0
C457 C 0.66486 0.37633 0.2599 0.0
C458 C 0.66433 0.35544 0.27002 0.0
C459 C 0.68742 0.39776 0.25614 0.0
C460 C 0.68922 0.42103 0.24785 0.0
C461 C 0.67742 0.43085 0.26306 0.0
C462 C 0.67899 0.45265 0.25502 0.0
C463 C 0.69246 0.46489 0.2319 0.0
C464 C 0.70443 0.45539 0.21681 0.0
C465 C 0.7029 0.43358 0.22476 0.0
H466 H 0.69365 0.48176 0.2257 0.0
H467 H 0.67981 0.27536 0.32061 0.0
H468 H 0.13859 0.57889 0.71971 0.0
H469 H 0.13646 0.56057 0.67507 0.0
H470 H 0.14761 0.62563 0.63498 0.0
H471 H 0.14993 0.64429 0.67972 0.0
H472 H 0.11167 0.58196 0.60973 0.0
H473 H 0.1939 0.61794 0.64215 0.0
H474 H 0.22532 0.62477 0.67611 0.0
H475 H 0.20348 0.54917 0.67371 0.0
H476 H 0.17162 0.5418 0.64008 0.0
H477 H 0.14851 0.56698 0.47854 0.0
H478 H 0.14474 0.58095 0.52372 0.0
H479 H 0.14683 0.52058 0.56087 0.0
H480 H 0.15141 0.50683 0.51543 0.0
H481 H 0.17444 0.55998 0.58878 0.0
H482 H 0.0933 0.52337 0.55585 0.0
H483 H 0.06053 0.51521 0.52328 0.0
H484 H 0.07853 0.58972 0.52766 0.0
H485 H 0.11164 0.59842 0.55998 0.0
C486 C 0.1403 0.58927 0.70144 0.0
C487 C 0.14456 0.61315 0.70334 0.0
C488 C 0.13916 0.57875 0.67592 0.0
C489 C 0.14215 0.59183 0.65173 0.0
C490 C 0.14531 0.61525 0.65343 0.0
C491 C 0.14666 0.6259 0.67901 0.0
C492 C 0.14308 0.58142 0.62478 0.0
C493 C 0.12553 0.57739 0.60497 0.0
C494 C 0.16076 0.5748 0.61895 0.0
C495 C 0.1802 0.57928 0.6388 0.0
C496 C 0.19567 0.60274 0.64902 0.0
C497 C 0.21358 0.60671 0.66819 0.0
C498 C 0.21636 0.58741 0.67712 0.0
C499 C 0.20128 0.5641 0.66681 0.0
C500 C 0.1833 0.56002 0.64768 0.0
C501 C 0.14797 0.55649 0.49625 0.0
C502 C 0.15014 0.53566 0.49329 0.0
C503 C 0.1457 0.56448 0.52216 0.0
C504 C 0.14507 0.55164 0.54581 0.0
C505 C 0.14717 0.53078 0.54296 0.0
C506 C 0.1497 0.52287 0.51696 0.0
C507 C 0.14304 0.56055 0.57343 0.0
C508 C 0.16043 0.56436 0.59345 0.0
C509 C 0.12506 0.56676 0.57953 0.0
C510 C 0.10509 0.56159 0.56017 0.0
C511 C 0.09039 0.53806 0.54972 0.0
C512 C 0.07173 0.53333 0.53133 0.0
C513 C 0.06749 0.55195 0.52336 0.0
C514 C 0.08185 0.57533 0.53383 0.0
C515 C 0.10055 0.58016 0.55222 0.0
H516 H 0.05303 0.54825 0.50911 0.0
H517 H 0.23021 0.59051 0.69199 0.0
H518 H 0.64164 0.15582 0.67176 0.0
H519 H 0.62415 0.15301 0.71738 0.0
H520 H 0.56135 0.14999 0.68034 0.0
H521 H 0.57842 0.15252 0.63494 0.0
H522 H 0.58174 0.18437 0.72259 0.0
H523 H 0.55606 0.1002 0.70601 0.0
H524 H 0.56222 0.06589 0.69485 0.0
H525 H 0.60819 0.08198 0.76524 0.0
H526 H 0.60258 0.11662 0.77661 0.0
H527 H 0.50864 0.15905 0.8409 0.0
H528 H 0.52306 0.15665 0.79511 0.0
H529 H 0.57873 0.14593 0.83129 0.0
H530 H 0.56397 0.14747 0.87684 0.0
H531 H 0.56193 0.11815 0.789 0.0
H532 H 0.58995 0.20214 0.80571 0.0
H533 H 0.58658 0.238 0.81751 0.0
H534 H 0.54016 0.22472 0.74812 0.0
H535 H 0.543 0.18856 0.73612 0.0
C536 C 0.62401 0.15433 0.67334 0.0
C537 C 0.61144 0.15436 0.64967 0.0
C538 C 0.61403 0.1527 0.6994 0.0
C539 C 0.59143 0.15128 0.70222 0.0
C540 C 0.57881 0.15111 0.67864 0.0
C541 C 0.58859 0.15244 0.65267 0.0
C542 C 0.58113 0.15073 0.7297 0.0
C543 C 0.57711 0.16974 0.73701 0.0
C544 C 0.57576 0.13201 0.74876 0.0
C545 C 0.5791 0.11116 0.74199 0.0
C546 C 0.56766 0.09656 0.71897 0.0
C547 C 0.57102 0.07702 0.71264 0.0
C548 C 0.58565 0.0718 0.72928 0.0
C549 C 0.5969 0.08607 0.75234 0.0
C550 C 0.59362 0.10564 0.75875 0.0
C551 C 0.52381 0.15598 0.83907 0.0
C552 C 0.53517 0.15355 0.86257 0.0
C553 C 0.53216 0.15475 0.81287 0.0
C554 C 0.55231 0.15153 0.80966 0.0
C555 C 0.5632 0.14845 0.83312 0.0
C556 C 0.55472 0.14939 0.85923 0.0
C557 C 0.56243 0.15183 0.78202 0.0
C558 C 0.56649 0.1328 0.77464 0.0
C559 C 0.56824 0.17078 0.76303 0.0
C560 C 0.56647 0.19249 0.7702 0.0
C561 C 0.57887 0.20675 0.7931 0.0
C562 C 0.57708 0.22715 0.7998 0.0
C563 C 0.5631 0.23359 0.78362 0.0
C564 C 0.55094 0.21968 0.76066 0.0
C565 C 0.55264 0.19924 0.75389 0.0
H566 H 0.56175 0.2494 0.78884 0.0
H567 H 0.58822 0.05666 0.72435 0.0
H568 H 0.34488 0.50868 0.01657 0.0
H569 H 0.36093 0.52332 0.97038 0.0
H570 H 0.42414 0.58406 1.00565 0.0
H571 H 0.40857 0.56957 0.05149 0.0
H572 H 0.40274 0.59724 0.96433 0.0
H573 H 0.42928 0.53935 0.97994 0.0
H574 H 0.4235 0.49903 0.99099 0.0
H575 H 0.37666 0.46853 0.92134 0.0
H576 H 0.38188 0.50864 0.9101 0.0
H577 H 0.47723 0.64535 0.84689 0.0
H578 H 0.46204 0.62825 0.89236 0.0
H579 H 0.40591 0.56274 0.85498 0.0
H580 H 0.4213 0.57937 0.80971 0.0
H581 H 0.42256 0.55112 0.89733 0.0
H582 H 0.39604 0.60809 0.88052 0.0
H583 H 0.39946 0.64749 0.86977 0.0
H584 H 0.44312 0.67881 0.94157 0.0
H585 H 0.44039 0.63972 0.95245 0.0
C586 C 0.36227 0.52504 0.01444 0.0
C587 C 0.37547 0.53786 0.03774 0.0
C588 C 0.37143 0.53336 0.98807 0.0
C589 C 0.39377 0.55476 0.98462 0.0
C590 C 0.40689 0.56753 1.00784 0.0
C591 C 0.39797 0.55909 0.03406 0.0
C592 C 0.40346 0.56431 0.95691 0.0
C593 C 0.40737 0.58732 0.94975 0.0
C594 C 0.40883 0.55104 0.93769 0.0
C595 C 0.40575 0.52694 0.94436 0.0
C596 C 0.41757 0.52401 0.96712 0.0
C597 C 0.41444 0.5012 0.97339 0.0
C598 C 0.39967 0.48122 0.95692 0.0
C599 C 0.38806 0.48402 0.9341 0.0
C600 C 0.39111 0.50679 0.92776 0.0
C601 C 0.46181 0.62722 0.84837 0.0
C602 C 0.45048 0.6138 0.82459 0.0
C603 C 0.45301 0.6175 0.87439 0.0
C604 C 0.43253 0.59431 0.87718 0.0
C605 C 0.42168 0.58066 0.85347 0.0
C606 C 0.43053 0.59026 0.82752 0.0
C607 C 0.42211 0.5843 0.90466 0.0
C608 C 0.41799 0.56115 0.91181 0.0
C609 C 0.41631 0.59738 0.92382 0.0
C610 C 0.41829 0.62103 0.91707 0.0
C611 C 0.40662 0.62345 0.89383 0.0
C612 C 0.4084 0.64572 0.88775 0.0
C613 C 0.42158 0.66567 0.90491 0.0
C614 C 0.43299 0.66337 0.92823 0.0
C615 C 0.43135 0.64116 0.93435 0.0
H616 H 0.42289 0.68289 0.90019 0.0
H617 H 0.39727 0.46357 0.96181 0.0
H618 H 0.81187 0.34496 0.17594 0.0
H619 H 0.81458 0.36282 0.13083 0.0
H620 H 0.87576 0.42998 0.15846 0.0
H621 H 0.87197 0.41259 0.20403 0.0
H622 H 0.84952 0.44129 0.1329 0.0
H623 H 0.87908 0.38808 0.11006 0.0
H624 H 0.87938 0.34955 0.10754 0.0
H625 H 0.81374 0.31771 0.06043 0.0
H626 H 0.81287 0.35596 0.06297 0.0
H627 H 0.86457 0.44986 0.97143 0.0
H628 H 0.86997 0.43571 0.016 0.0
H629 H 0.81597 0.44983 0.05077 0.0
H630 H 0.81156 0.46522 1.00661 0.0
H631 H 0.84292 0.39974 0.04466 0.0
H632 H 0.8221 0.45925 0.11804 0.0
H633 H 0.82847 0.50075 0.12017 0.0
H634 H 0.88904 0.52552 0.06558 0.0
H635 H 0.88323 0.48426 0.06341 0.0
C636 C 0.82612 0.36341 0.1722 0.0
C637 C 0.84176 0.37737 0.19345 0.0
C638 C 0.82774 0.37363 0.14633 0.0
C639 C 0.84557 0.39779 0.14089 0.0
C640 C 0.86173 0.4114 0.16198 0.0
C641 C 0.85968 0.4014 0.18801 0.0
C642 C 0.84657 0.40933 0.11388 0.0
C643 C 0.84821 0.43219 0.11364 0.0
C644 C 0.84536 0.39788 0.08852 0.0
C645 C 0.84581 0.37483 0.08691 0.0
C646 C 0.86462 0.37281 0.09932 0.0
C647 C 0.86491 0.35103 0.09786 0.0
C648 C 0.84656 0.33118 0.08389 0.0
C649 C 0.82792 0.33309 0.07127 0.0
C650 C 0.82754 0.35483 0.07269 0.0
C651 C 0.85418 0.45035 0.98873 0.0
C652 C 0.83779 0.45885 0.98556 0.0
C653 C 0.85716 0.4421 0.0142 0.0
C654 C 0.84355 0.4418 0.03702 0.0
C655 C 0.82721 0.45039 0.03383 0.0
C656 C 0.82462 0.45915 1.00849 0.0
C657 C 0.84573 0.4316 0.06375 0.0
C658 C 0.84449 0.40893 0.06393 0.0
C659 C 0.84832 0.44367 0.08902 0.0
C660 C 0.85207 0.4686 0.09037 0.0
C661 C 0.83683 0.47357 0.10658 0.0
C662 C 0.84033 0.49705 0.10777 0.0
C663 C 0.8591 0.51574 0.09295 0.0
C664 C 0.87445 0.51101 0.07697 0.0
C665 C 0.87104 0.48757 0.07572 0.0
H666 H 0.86177 0.5339 0.09389 0.0
H667 H 0.84682 0.31433 0.08278 0.0
H668 H 0.35382 0.84188 0.17521 0.0
H669 H 0.37094 0.84396 0.22094 0.0
H670 H 0.42911 0.83759 0.18455 0.0
H671 H 0.41248 0.83593 0.13902 0.0
H672 H 0.40588 0.80553 0.2293 0.0
H673 H 0.44146 0.89031 0.20635 0.0
H674 H 0.44038 0.92692 0.19227 0.0
H675 H 0.39759 0.92076 0.26297 0.0
H676 H 0.39813 0.88387 0.27727 0.0
H677 H 0.48308 0.831 0.34375 0.0
H678 H 0.46778 0.83287 0.29832 0.0
H679 H 0.41778 0.85145 0.33534 0.0
H680 H 0.43319 0.85004 0.38064 0.0
H681 H 0.43599 0.87725 0.29036 0.0
H682 H 0.39946 0.79374 0.3142 0.0
H683 H 0.3978 0.75595 0.32902 0.0
H684 H 0.43841 0.75772 0.25801 0.0
H685 H 0.44066 0.79578 0.24298 0.0
C686 C 0.37035 0.8411 0.17698 0.0
C687 C 0.38186 0.8389 0.15345 0.0
C688 C 0.38011 0.8423 0.20308 0.0
C689 C 0.40133 0.84097 0.20611 0.0
C690 C 0.41274 0.83866 0.18269 0.0
C691 C 0.40326 0.83786 0.15665 0.0
C692 C 0.41159 0.84166 0.23366 0.0
C693 C 0.41275 0.82132 0.24254 0.0
C694 C 0.41987 0.86197 0.25122 0.0
C695 C 0.41961 0.88418 0.24271 0.0
C696 C 0.43163 0.89663 0.21876 0.0
C697 C 0.43116 0.91746 0.21077 0.0
C698 C 0.41886 0.92612 0.22667 0.0
C699 C 0.40707 0.914 0.25065 0.0
C700 C 0.40747 0.89314 0.25871 0.0
C701 C 0.46903 0.83577 0.34221 0.0
C702 C 0.45931 0.84025 0.36591 0.0
C703 C 0.46018 0.83668 0.31622 0.0
C704 C 0.44132 0.84192 0.31338 0.0
C705 C 0.43226 0.84731 0.33694 0.0
C706 C 0.44111 0.84644 0.36288 0.0
C707 C 0.43054 0.84116 0.28603 0.0
C708 C 0.42918 0.86144 0.27718 0.0
C709 C 0.42172 0.82062 0.26863 0.0
C710 C 0.42049 0.79778 0.27764 0.0
C711 C 0.40824 0.78621 0.30187 0.0
C712 C 0.40716 0.76471 0.31029 0.0
C713 C 0.41806 0.75448 0.29451 0.0
C714 C 0.43002 0.7657 0.27024 0.0
C715 C 0.43121 0.78723 0.26176 0.0
H716 H 0.41718 0.73783 0.30105 0.0
H717 H 0.41852 0.94225 0.22045 0.0
H718 H 0.50894 0.35376 0.33891 0.0
H719 H 0.52348 0.37241 0.38405 0.0
H720 H 0.58043 0.43645 0.34553 0.0
H721 H 0.56606 0.41812 0.30052 0.0
H722 H 0.59723 0.41943 0.38713 0.0
H723 H 0.53378 0.43834 0.37334 0.0
H724 H 0.4921 0.42894 0.36326 0.0
H725 H 0.46611 0.38215 0.43339 0.0
H726 H 0.50761 0.391 0.44368 0.0
H727 H 0.641 0.48934 0.50912 0.0
H728 H 0.6249 0.4762 0.46274 0.0
H729 H 0.56064 0.41567 0.49652 0.0
H730 H 0.57612 0.42908 0.54261 0.0
H731 H 0.5479 0.43272 0.45611 0.0
H732 H 0.60895 0.41049 0.46888 0.0
H733 H 0.64968 0.41719 0.47926 0.0
H734 H 0.67908 0.46683 0.41185 0.0
H735 H 0.63854 0.46065 0.40128 0.0
C736 C 0.52437 0.37192 0.34003 0.0
C737 C 0.53629 0.38441 0.31605 0.0
C738 C 0.53265 0.38257 0.36585 0.0
C739 C 0.55303 0.40585 0.36815 0.0
C740 C 0.5647 0.41847 0.34425 0.0
C741 C 0.55635 0.40796 0.3185 0.0
C742 C 0.56283 0.41675 0.39545 0.0
C743 C 0.58658 0.42269 0.40209 0.0
C744 C 0.54873 0.4204 0.4152 0.0
C745 C 0.52378 0.41516 0.40913 0.0
C746 C 0.51916 0.42589 0.38649 0.0
C747 C 0.49557 0.4207 0.38076 0.0
C748 C 0.47647 0.40491 0.39763 0.0
C749 C 0.48093 0.39435 0.42032 0.0
C750 C 0.50448 0.39947 0.42612 0.0
C751 C 0.62335 0.47337 0.50663 0.0
C752 C 0.60992 0.46025 0.52961 0.0
C753 C 0.61421 0.46576 0.48009 0.0
C754 C 0.59167 0.44467 0.47602 0.0
C755 C 0.57803 0.43198 0.499 0.0
C756 C 0.587 0.43969 0.52543 0.0
C757 C 0.58234 0.43533 0.44797 0.0
C758 C 0.55865 0.42963 0.44115 0.0
C759 C 0.59638 0.43155 0.42816 0.0
C760 C 0.62077 0.43532 0.4345 0.0
C761 C 0.62414 0.42298 0.45641 0.0
C762 C 0.64718 0.42666 0.4623 0.0
C763 C 0.66697 0.44249 0.44628 0.0
C764 C 0.66374 0.45462 0.42428 0.0
C765 C 0.64074 0.45102 0.41832 0.0
H766 H 0.68479 0.4453 0.45087 0.0
H767 H 0.45822 0.40091 0.39316 0.0
H768 H 0.91423 0.43125 0.30233 0.0
H769 H 0.95568 0.4438 0.31557 0.0
H770 H 0.93951 0.3695 0.31262 0.0
H771 H 0.89767 0.35666 0.2988 0.0
H772 H 0.96402 0.39779 0.36284 0.0
H773 H 0.97354 0.40044 0.26606 0.0
H774 H 0.96795 0.40965 0.21847 0.0
H775 H 0.00512 0.48571 0.2372 0.0
H776 H 0.0106 0.47696 0.28503 0.0
H777 H 0.09237 0.45645 0.39354 0.0
H778 H 0.05245 0.4287 0.37397 0.0
H779 H 0.04534 0.48984 0.34905 0.0
H780 H 0.08507 0.51749 0.36798 0.0
H781 H 0.03366 0.45815 0.30812 0.0
H782 H 0.01595 0.45498 0.40569 0.0
H783 H 0.02006 0.44688 0.45423 0.0
H784 H -0.00244 0.37283 0.4346 0.0
H785 H 0.99359 0.3806 0.38585 0.0
C786 C 0.91946 0.41754 0.30434 0.0
C787 C 0.90275 0.39297 0.29955 0.0
C788 C 0.94316 0.42476 0.31181 0.0
C789 C 0.95058 0.40757 0.31491 0.0
C790 C 0.93402 0.38298 0.31021 0.0
C791 C 0.91026 0.37573 0.30224 0.0
C792 C 0.9756 0.41584 0.3239 0.0
C793 C 0.9794 0.41046 0.35066 0.0
C794 C 0.99546 0.43257 0.30804 0.0
C795 C 0.9924 0.43801 0.2792 0.0
C796 C 0.98038 0.41913 0.26009 0.0
C797 C 0.97725 0.42427 0.23306 0.0
C798 C 0.98616 0.44825 0.22482 0.0
C799 C -0.00175 0.46714 0.2436 0.0
C800 C 0.00141 0.4621 0.27067 0.0
C801 C 0.08218 0.46393 0.38406 0.0
C802 C 0.09188 0.48916 0.38225 0.0
C803 C 0.05941 0.44806 0.37288 0.0
C804 C 0.04597 0.45723 0.36 0.0
C805 C 0.0555 0.48238 0.35866 0.0
C806 C 0.07819 0.49817 0.36963 0.0
C807 C 0.02201 0.44101 0.34756 0.0
C808 C 0.01845 0.44491 0.32007 0.0
C809 C 0.00238 0.42307 0.36286 0.0
C810 C 0.0048 0.41845 0.39211 0.0
C811 C 0.01209 0.43703 0.4117 0.0
C812 C 0.01435 0.43249 0.43925 0.0
C813 C 0.00916 0.40938 0.44748 0.0
C814 C 0.00163 0.39074 0.42818 0.0
C815 C -0.00063 0.3952 0.4006 0.0
H816 H 0.01092 0.40589 0.46882 0.0
H817 H 0.98371 0.45219 0.20388 0.0
H818 H 0.53483 0.90202 0.45412 0.0
H819 H 0.56225 0.94379 0.46907 0.0
H820 H 0.50415 0.94334 0.51478 0.0
H821 H 0.4768 0.90182 0.50019 0.0
H822 H 0.55977 0.9846 0.46038 0.0
H823 H 0.5257 0.97506 0.57303 0.0
H824 H 0.51037 0.9443 0.60963 0.0
H825 H 0.54739 0.91029 0.57374 0.0
H826 H 0.56326 0.94105 0.53717 0.0
H827 H 0.57007 0.09102 0.5143 0.0
H828 H 0.55709 0.04947 0.5006 0.0
H829 H 0.61239 0.04974 0.55171 0.0
H830 H 0.62559 0.09155 0.56565 0.0
H831 H 0.56828 0.00863 0.55837 0.0
H832 H 0.62042 0.05216 0.48494 0.0
H833 H 0.63779 0.08292 0.44845 0.0
H834 H 0.56957 0.04893 0.40629 0.0
H835 H 0.55167 0.01816 0.44274 0.0
C836 C 0.52793 0.91082 0.46743 0.0
C837 C 0.50363 0.89859 0.47599 0.0
C838 C 0.54361 0.93466 0.47592 0.0
C839 C 0.5353 0.94651 0.49332 0.0
C840 C 0.51105 0.93437 0.50175 0.0
C841 C 0.49539 0.91066 0.49323 0.0
C842 C 0.55149 0.9719 0.50201 0.0
C843 C 0.56185 0.98986 0.4818 0.0
C844 C 0.55471 0.97867 0.53001 0.0
C845 C 0.54556 0.96031 0.55224 0.0
C846 C 0.53071 0.96112 0.57303 0.0
C847 C 0.52189 0.94366 0.59376 0.0
C848 C 0.52786 0.92532 0.59398 0.0
C849 C 0.54272 0.92446 0.57351 0.0
C850 C 0.55161 0.94189 0.55275 0.0
C851 C 0.57954 0.08231 0.52264 0.0
C852 C 0.59888 0.0946 0.54106 0.0
C853 C 0.57218 0.0586 0.51465 0.0
C854 C 0.58399 0.04667 0.52489 0.0
C855 C 0.60315 0.05873 0.54349 0.0
C856 C 0.61066 0.08258 0.55138 0.0
C857 C 0.57554 0.0213 0.51668 0.0
C858 C 0.56661 0.00335 0.53698 0.0
C859 C 0.57398 0.01454 0.48879 0.0
C860 C 0.58467 0.03291 0.46668 0.0
C861 C 0.60907 0.05133 0.46798 0.0
C862 C 0.61902 0.06876 0.44729 0.0
C863 C 0.60478 0.0679 0.42509 0.0
C864 C 0.58058 0.04957 0.4235 0.0
C865 C 0.57053 0.03211 0.44416 0.0
H866 H 0.61252 0.08141 0.40909 0.0
H867 H 0.52099 0.91181 0.61002 0.0
H868 H 0.52841 0.63177 0.72586 0.0
H869 H 0.55512 0.61609 0.71226 0.0
H870 H 0.49275 0.54722 0.69204 0.0
H871 H 0.4661 0.56264 0.70526 0.0
H872 H 0.5278 0.54413 0.72489 0.0
H873 H 0.52268 0.58529 0.64257 0.0
H874 H 0.52846 0.6215 0.61769 0.0
H875 H 0.60439 0.65811 0.63635 0.0
H876 H 0.59897 0.6222 0.66167 0.0
H877 H 0.55458 0.47327 0.64222 0.0
H878 H 0.53973 0.49916 0.65992 0.0
H879 H 0.61214 0.56069 0.65795 0.0
H880 H 0.6271 0.53479 0.63914 0.0
H881 H 0.58024 0.57389 0.6425 0.0
H882 H 0.58771 0.53211 0.71865 0.0
H883 H 0.58344 0.49718 0.74499 0.0
H884 H 0.50608 0.46395 0.74138 0.0
H885 H 0.50985 0.49851 0.71466 0.0
C886 C 0.52044 0.61328 0.71857 0.0
C887 C 0.49516 0.59844 0.71659 0.0
C888 C 0.5357 0.6044 0.71076 0.0
C889 C 0.52584 0.58054 0.70113 0.0
C890 C 0.50066 0.56568 0.69947 0.0
C891 C 0.48547 0.57457 0.70695 0.0
C892 C 0.54142 0.57063 0.69262 0.0
C893 C 0.53926 0.55057 0.70687 0.0
C894 C 0.55712 0.57979 0.66982 0.0
C895 C 0.56037 0.60119 0.65429 0.0
C896 C 0.54057 0.60113 0.64155 0.0
C897 C 0.54379 0.62158 0.62733 0.0
C898 C 0.56676 0.64213 0.62552 0.0
C899 C 0.58659 0.64221 0.63782 0.0
C900 C 0.58346 0.62181 0.65209 0.0
C901 C 0.56737 0.49233 0.64541 0.0
C902 C 0.59204 0.50196 0.63961 0.0
C903 C 0.55887 0.50711 0.65566 0.0
C904 C 0.57493 0.53173 0.66099 0.0
C905 C 0.59948 0.54169 0.65422 0.0
C906 C 0.60799 0.5269 0.6435 0.0
C907 C 0.56575 0.54661 0.67407 0.0
C908 C 0.5692 0.56767 0.66084 0.0
C909 C 0.5515 0.53863 0.69815 0.0
C910 C 0.54908 0.51789 0.71453 0.0
C911 C 0.56978 0.5173 0.72335 0.0
C912 C 0.56745 0.49756 0.73836 0.0
C913 C 0.5445 0.47835 0.74483 0.0
C914 C 0.52384 0.47885 0.73636 0.0
C915 C 0.52607 0.49854 0.72132 0.0
H916 H 0.54273 0.46308 0.75644 0.0
H917 H 0.56921 0.65795 0.61453 0.0
H918 H 0.07444 0.60471 0.77294 0.0
H919 H 0.03303 0.59024 0.78877 0.0
H920 H 0.05778 0.6003 0.87279 0.0
H921 H 0.09868 0.61279 0.85676 0.0
H922 H 0.02151 0.56039 0.8708 0.0
H923 H 0.0357 0.63637 0.83805 0.0
H924 H 0.04821 0.67052 0.80609 0.0
H925 H 0.99348 0.62369 0.74895 0.0
H926 H 0.98085 0.58915 0.78039 0.0
H927 H 0.90093 0.52953 0.91446 0.0
H928 H 0.94327 0.55834 0.90255 0.0
H929 H 0.93413 0.5214 0.82557 0.0
H930 H 0.89226 0.49214 0.83771 0.0
H931 H 0.9623 0.57978 0.82904 0.0
H932 H 0.95622 0.50315 0.86269 0.0
H933 H 0.94366 0.47143 0.89803 0.0
H934 H 0.98452 0.52566 0.95863 0.0
H935 H -0.00298 0.55771 0.92365 0.0
C936 C 0.07091 0.60405 0.79474 0.0
C937 C 0.08944 0.60968 0.81373 0.0
C938 C 0.04733 0.59602 0.80384 0.0
C939 C 0.04216 0.59442 0.83207 0.0
C940 C 0.06114 0.6012 0.85094 0.0
C941 C 0.08449 0.6084 0.84184 0.0
C942 C 0.01677 0.58346 0.84196 0.0
C943 C 0.00887 0.56521 0.86198 0.0
C944 C -8e-05 0.5894 0.83057 0.0
C945 C 0.00744 0.61011 0.81153 0.0
C946 C 0.02644 0.6333 0.81859 0.0
C947 C 0.03354 0.65274 0.80057 0.0
C948 C 0.02168 0.64927 0.77548 0.0
C949 C 0.00266 0.62635 0.76838 0.0
C950 C 0.9955 0.60684 0.78632 0.0
C951 C 0.90793 0.52781 0.89488 0.0
C952 C 0.89352 0.50856 0.87708 0.0
C953 C 0.93199 0.54425 0.8881 0.0
C954 C 0.9416 0.54194 0.86316 0.0
C955 C 0.92687 0.52348 0.84481 0.0
C956 C 0.9031 0.50672 0.85186 0.0
C957 C 0.96763 0.55699 0.85727 0.0
C958 C 0.97542 0.57571 0.83804 0.0
C959 C 0.98458 0.55205 0.86983 0.0
C960 C 0.97728 0.53278 0.89069 0.0
C961 C 0.96232 0.50829 0.88361 0.0
C962 C 0.95526 0.49027 0.90355 0.0
C963 C 0.96322 0.49653 0.93058 0.0
C964 C 0.97833 0.52084 0.9377 0.0
C965 C 0.98541 0.53893 0.91784 0.0
H966 H 0.95774 0.48255 0.946 0.0
H967 H 0.0272 0.66435 0.76156 0.0
H968 H 0.51103 0.07924 0.97178 0.0
H969 H 0.48162 0.03762 0.98392 0.0
H970 H 0.42388 0.05402 0.97772 0.0
H971 H 0.45341 0.09604 0.96496 0.0
H972 H 0.42636 0.02829 0.02876 0.0
H973 H 0.42123 0.0209 0.93163 0.0
H974 H 0.43698 0.02773 0.88439 0.0
H975 H 0.47593 0.9906 0.9026 0.0
H976 H 0.46073 0.98387 0.95008 0.0
H977 H 0.35895 0.89849 0.05565 0.0
H978 H 0.36983 0.93852 0.03724 0.0
H979 H 0.43961 0.94924 0.0132 0.0
H980 H 0.42887 0.9095 0.03103 0.0
H981 H 0.41863 0.95999 0.97212 0.0
H982 H 0.43197 0.97633 0.07034 0.0
H983 H 0.41897 0.97101 0.11867 0.0
H984 H 0.36639 0.99203 0.09905 0.0
H985 H 0.37891 0.99718 0.05051 0.0
C986 C 0.49208 0.07404 0.97287 0.0
C987 C 0.48448 0.09085 0.96742 0.0
C988 C 0.47532 0.05026 0.97974 0.0
C989 C 0.45067 0.04286 0.98157 0.0
C990 C 0.44288 0.05952 0.9763 0.0
C991 C 0.4597 0.08337 0.96893 0.0
C992 C 0.43358 0.01763 0.98957 0.0
C993 C 0.42395 0.01319 0.01614 0.0
C994 C 0.43081 -0.00185 0.97312 0.0
C995 C 0.43988 0.00195 0.94448 0.0
C996 C 0.43328 0.01433 0.92563 0.0
C997 C 0.44209 0.01816 0.89879 0.0
C998 C 0.45746 0.00962 0.89051 0.0
C999 C 0.46401 0.99719 0.90904 0.0
C1000 C 0.45526 0.99332 0.93591 0.0
C1001 C 0.37667 0.9095 0.04662 0.0
C1002 C 0.39303 0.90082 0.0447 0.0
C1003 C 0.38283 0.93232 0.0361 0.0
C1004 C 0.40547 0.94676 0.02375 0.0
C1005 C 0.42193 0.93827 0.02239 0.0
C1006 C 0.4158 0.91557 0.03272 0.0
C1007 C 0.41247 0.97073 0.01185 0.0
C1008 C 0.42019 0.9749 0.98446 0.0
C1009 C 0.41363 0.98993 0.02765 0.0
C1010 C 0.40613 0.9868 0.05677 0.0
C1011 C 0.41749 0.9796 0.0763 0.0
C1012 C 0.41024 0.97666 0.10373 0.0
C1013 C 0.3918 0.98109 0.11191 0.0
C1014 C 0.38063 0.98854 0.09268 0.0
C1015 C 0.38779 0.99147 0.06521 0.0
H1016 H 0.38622 0.97882 0.13315 0.0
H1017 H 0.46427 0.01261 0.86972 0.0
H1018 H 0.42955 0.51546 0.14415 0.0
H1019 H 0.4429 0.48634 0.15333 0.0
H1020 H 0.36924 0.42758 0.1478 0.0
H1021 H 0.35562 0.45678 0.13798 0.0
H1022 H 0.39935 0.42967 0.19718 0.0
H1023 H 0.39839 0.42745 0.09942 0.0
H1024 H 0.40601 0.44505 0.05304 0.0
H1025 H 0.48245 0.48342 0.06876 0.0
H1026 H 0.47528 0.46637 0.11542 0.0
H1027 H 0.45835 0.35927 0.21618 0.0
H1028 H 0.4301 0.3718 0.19916 0.0
H1029 H 0.49037 0.44019 0.17333 0.0
H1030 H 0.51848 0.42764 0.18952 0.0
H1031 H 0.45712 0.42282 0.13485 0.0
H1032 H 0.45818 0.43321 0.23384 0.0
H1033 H 0.45228 0.41913 0.28178 0.0
H1034 H 0.37756 0.36836 0.26505 0.0
H1035 H 0.38312 0.38196 0.2169 0.0
C1036 C 0.41615 0.49636 0.14482 0.0
C1037 C 0.39155 0.48836 0.14036 0.0
C1038 C 0.42382 0.47976 0.14997 0.0
C1039 C 0.40703 0.45491 0.15109 0.0
C1040 C 0.3824 0.44675 0.14691 0.0
C1041 C 0.37471 0.46339 0.14124 0.0
C1042 C 0.41575 0.43791 0.15719 0.0
C1043 C 0.41146 0.4275 0.18333 0.0
C1044 C 0.4318 0.43558 0.13918 0.0
C1045 C 0.43626 0.4457 0.111 0.0
C1046 C 0.41682 0.43977 0.09307 0.0
C1047 C 0.42106 0.44963 0.06671 0.0
C1048 C 0.44469 0.46536 0.05797 0.0
C1049 C 0.46415 0.47122 0.07556 0.0
C1050 C 0.46 0.46143 0.10195 0.0
C1051 C 0.46553 0.37698 0.20688 0.0
C1052 C 0.49064 0.39249 0.20422 0.0
C1053 C 0.44938 0.3841 0.19719 0.0
C1054 C 0.45814 0.40697 0.18506 0.0
C1055 C 0.48319 0.42239 0.18243 0.0
C1056 C 0.49926 0.41523 0.19183 0.0
C1057 C 0.44159 0.4154 0.17536 0.0
C1058 C 0.44444 0.42423 0.14847 0.0
C1059 C 0.42445 0.41653 0.19283 0.0
C1060 C 0.42114 0.40836 0.22172 0.0
C1061 C 0.44055 0.4189 0.24034 0.0
C1062 C 0.43726 0.41104 0.26755 0.0
C1063 C 0.41458 0.3928 0.27643 0.0
C1064 C 0.39513 0.38244 0.25813 0.0
C1065 C 0.39834 0.39022 0.23088 0.0
H1066 H 0.41207 0.38674 0.2975 0.0
H1067 H 0.44793 0.47299 0.03756 0.0
H1068 H 0.20479 0.48117 0.3821 0.0
H1069 H 0.22784 0.47715 0.34414 0.0
H1070 H 0.20052 0.51111 0.28958 0.0
H1071 H 0.17769 0.51531 0.3271 0.0
H1072 H 0.2175 0.45682 0.2903 0.0
H1073 H 0.24988 0.55464 0.25332 0.0
H1074 H 0.25455 0.59277 0.27198 0.0
H1075 H 0.26358 0.57214 0.3529 0.0
H1076 H 0.26007 0.53441 0.33461 0.0
H1077 H 0.27399 0.48205 0.15771 0.0
H1078 H 0.24839 0.47661 0.1976 0.0
H1079 H 0.31187 0.52233 0.24573 0.0
H1080 H 0.33748 0.52795 0.20617 0.0
H1081 H 0.2786 0.53591 0.25111 0.0
H1082 H 0.28056 0.46183 0.25636 0.0
H1083 H 0.27589 0.42328 0.23919 0.0
H1084 H 0.2003 0.39642 0.22474 0.0
H1085 H 0.20459 0.43496 0.24148 0.0
C1086 C 0.20334 0.48734 0.3619 0.0
C1087 C 0.18968 0.49888 0.35774 0.0
C1088 C 0.21647 0.48498 0.34022 0.0
C1089 C 0.21616 0.49417 0.31417 0.0
C1090 C 0.20126 0.50419 0.30961 0.0
C1091 C 0.18824 0.50659 0.33115 0.0
C1092 C 0.23304 0.49555 0.29238 0.0
C1093 C 0.23087 0.47408 0.28169 0.0
C1094 C 0.25076 0.51814 0.28151 0.0
C1095 C 0.2544 0.54151 0.29258 0.0
C1096 C 0.25317 0.55837 0.27505 0.0
C1097 C 0.25568 0.57995 0.28556 0.0
C1098 C 0.2594 0.58489 0.31361 0.0
C1099 C 0.26085 0.56836 0.33116 0.0
C1100 C 0.25865 0.54689 0.32071 0.0
C1101 C 0.28251 0.49075 0.17687 0.0
C1102 C 0.30781 0.50549 0.17867 0.0
C1103 C 0.26785 0.48756 0.19967 0.0
C1104 C 0.27821 0.49902 0.2247 0.0
C1105 C 0.30346 0.51336 0.22664 0.0
C1106 C 0.31809 0.51649 0.20396 0.0
C1107 C 0.26282 0.49714 0.24853 0.0
C1108 C 0.26528 0.5186 0.25966 0.0
C1109 C 0.2456 0.47458 0.25994 0.0
C1110 C 0.24295 0.45137 0.24994 0.0
C1111 C 0.26298 0.44778 0.24931 0.0
C1112 C 0.2604 0.42592 0.2397 0.0
C1113 C 0.23783 0.40744 0.23082 0.0
C1114 C 0.21778 0.41076 0.2316 0.0
C1115 C 0.22027 0.43261 0.24117 0.0
H1116 H 0.23586 0.39052 0.22338 0.0
H1117 H 0.26115 0.60151 0.32176 0.0
H1118 H 0.8117 0.34089 0.36257 0.0
H1119 H 0.79095 0.31589 0.40225 0.0
H1120 H 0.7666 0.25136 0.35329 0.0
H1121 H 0.78763 0.27634 0.31336 0.0
H1122 H 0.74416 0.2866 0.40929 0.0
H1123 H 0.75933 0.20471 0.39533 0.0
H1124 H 0.79029 0.19607 0.37701 0.0
H1125 H 0.84543 0.26976 0.39204 0.0
H1126 H 0.81487 0.27875 0.4108 0.0
H1127 H 0.65785 0.18765 0.48404 0.0
H1128 H 0.68526 0.21069 0.44696 0.0
H1129 H 0.74653 0.22917 0.4993 0.0
H1130 H 0.71907 0.20595 0.53685 0.0
H1131 H 0.75346 0.21871 0.44482 0.0
H1132 H 0.72959 0.26902 0.4927 0.0
H1133 H 0.70045 0.27898 0.51368 0.0
H1134 H 0.66729 0.2726 0.43523 0.0
H1135 H 0.69598 0.26217 0.41384 0.0
C1136 C 0.80216 0.32138 0.36021 0.0
C1137 C 0.80132 0.31065 0.33469 0.0
C1138 C 0.79023 0.30709 0.38297 0.0
C1139 C 0.77724 0.28174 0.38084 0.0
C1140 C 0.77674 0.27089 0.35555 0.0
C1141 C 0.78873 0.2852 0.3327 0.0
C1142 C 0.76326 0.26684 0.40477 0.0
C1143 C 0.74626 0.27179 0.41701 0.0
C1144 C 0.76618 0.24771 0.41522 0.0
C1145 C 0.78475 0.24244 0.40421 0.0
C1146 C 0.77807 0.21904 0.39481 0.0
C1147 C 0.79555 0.21409 0.38434 0.0
C1148 C 0.8198 0.23237 0.38328 0.0
C1149 C 0.82663 0.25564 0.39277 0.0
C1150 C 0.80923 0.26068 0.40329 0.0
C1151 C 0.67714 0.19634 0.48771 0.0
C1152 C 0.68624 0.19513 0.51358 0.0
C1153 C 0.69279 0.20954 0.46643 0.0
C1154 C 0.71791 0.22191 0.47048 0.0
C1155 C 0.72718 0.21978 0.49579 0.0
C1156 C 0.71147 0.20656 0.51722 0.0
C1157 C 0.73418 0.23827 0.4488 0.0
C1158 C 0.75149 0.23357 0.43701 0.0
C1159 C 0.73187 0.25794 0.43903 0.0
C1160 C 0.71482 0.2646 0.45171 0.0
C1161 C 0.71598 0.26957 0.47995 0.0
C1162 C 0.69956 0.27532 0.49191 0.0
C1163 C 0.682 0.27638 0.47581 0.0
C1164 C 0.68088 0.27175 0.44768 0.0
C1165 C 0.69724 0.26593 0.43562 0.0
H1166 H 0.66932 0.28083 0.48512 0.0
H1167 H 0.8333 0.22851 0.37515 0.0
H1168 H 0.47881 0.66112 0.65732 0.0
H1169 H 0.48631 0.68815 0.6184 0.0
H1170 H 0.50505 0.74768 0.67393 0.0
H1171 H 0.49801 0.72078 0.71311 0.0
H1172 H 0.46789 0.73845 0.63318 0.0
H1173 H 0.54846 0.74986 0.63911 0.0
H1174 H 0.57783 0.73546 0.64154 0.0
H1175 H 0.55338 0.70028 0.5635 0.0
H1176 H 0.52361 0.71419 0.56077 0.0
H1177 H 0.49296 0.82502 0.53205 0.0
H1178 H 0.49814 0.80491 0.5719 0.0
H1179 H 0.50056 0.75185 0.51884 0.0
H1180 H 0.49685 0.77297 0.47872 0.0
H1181 H 0.5287 0.75873 0.55957 0.0
H1182 H 0.44722 0.74199 0.55308 0.0
H1183 H 0.41409 0.75117 0.54903 0.0
H1184 H 0.43511 0.78968 0.62554 0.0
H1185 H 0.46861 0.78102 0.62986 0.0
C1186 C 0.48486 0.68005 0.66127 0.0
C1187 C 0.48779 0.68882 0.6883 0.0
C1188 C 0.4892 0.69547 0.63899 0.0
C1189 C 0.49627 0.71991 0.64329 0.0
C1190 C 0.49967 0.72887 0.67021 0.0
C1191 C 0.49574 0.71353 0.69254 0.0
C1192 C 0.49843 0.73555 0.61969 0.0
C1193 C 0.48149 0.74334 0.61734 0.0
C1194 C 0.51548 0.74092 0.59847 0.0
C1195 C 0.53367 0.73291 0.59985 0.0
C1196 C 0.54923 0.73891 0.62255 0.0
C1197 C 0.56597 0.73086 0.62396 0.0
C1198 C 0.56743 0.71691 0.60272 0.0
C1199 C 0.55221 0.71108 0.57995 0.0
C1200 C 0.53543 0.71907 0.57844 0.0
C1201 C 0.49502 0.8093 0.52889 0.0
C1202 C 0.49432 0.80043 0.50234 0.0
C1203 C 0.49779 0.79768 0.5517 0.0
C1204 C 0.49896 0.77634 0.54857 0.0
C1205 C 0.49953 0.76817 0.52191 0.0
C1206 C 0.49741 0.78023 0.49897 0.0
C1207 C 0.49822 0.76194 0.57306 0.0
C1208 C 0.51526 0.75416 0.57551 0.0
C1209 C 0.48076 0.75592 0.59409 0.0
C1210 C 0.46057 0.76108 0.59164 0.0
C1211 C 0.44488 0.75256 0.56895 0.0
C1212 C 0.42602 0.75765 0.56662 0.0
C1213 C 0.42254 0.77105 0.58698 0.0
C1214 C 0.43786 0.77934 0.60976 0.0
C1215 C 0.45678 0.77433 0.61217 0.0
H1216 H 0.40793 0.77497 0.58514 0.0
H1217 H 0.58036 0.71066 0.60388 0.0
H1218 H 0.81295 0.48501 0.81955 0.0
H1219 H 0.79123 0.49041 0.78125 0.0
H1220 H 0.7438 0.49802 0.8382 0.0
H1221 H 0.76592 0.49337 0.87675 0.0
H1222 H 0.72291 0.45923 0.79084 0.0
H1223 H 0.77567 0.54465 0.81187 0.0
H1224 H 0.81558 0.58082 0.81985 0.0
H1225 H 0.8386 0.57347 0.73947 0.0
H1226 H 0.79892 0.53702 0.73118 0.0
H1227 H 0.65169 0.48026 0.69888 0.0
H1228 H 0.67718 0.48438 0.73811 0.0
H1229 H 0.73845 0.50707 0.68434 0.0
H1230 H 0.7131 0.50382 0.64497 0.0
H1231 H 0.7534 0.53119 0.73035 0.0
H1232 H 0.70494 0.4482 0.70708 0.0
H1233 H 0.66764 0.41008 0.69605 0.0
H1234 H 0.6398 0.4091 0.77645 0.0
H1235 H 0.67673 0.44757 0.78775 0.0
C1236 C 0.79809 0.48816 0.82394 0.0
C1237 C 0.79112 0.48877 0.85115 0.0
C1238 C 0.78576 0.49127 0.80205 0.0
C1239 C 0.76597 0.49461 0.80697 0.0
C1240 C 0.75911 0.49553 0.83407 0.0
C1241 C 0.7718 0.49297 0.85603 0.0
C1242 C 0.75163 0.49569 0.7837 0.0
C1243 C 0.7293 0.47509 0.77788 0.0
C1244 C 0.76063 0.51598 0.76611 0.0
C1245 C 0.78442 0.53796 0.77103 0.0
C1246 C 0.78932 0.5506 0.79601 0.0
C1247 C 0.81188 0.57119 0.80056 0.0
C1248 C 0.82964 0.5794 0.78021 0.0
C1249 C 0.82484 0.56708 0.75523 0.0
C1250 C 0.80231 0.54646 0.75059 0.0
C1251 C 0.67067 0.48642 0.69542 0.0
C1252 C 0.68033 0.49149 0.66878 0.0
C1253 C 0.68521 0.48866 0.71788 0.0
C1254 C 0.70963 0.49544 0.71417 0.0
C1255 C 0.71964 0.50168 0.68775 0.0
C1256 C 0.70514 0.4998 0.66524 0.0
C1257 C 0.72423 0.49484 0.73768 0.0
C1258 C 0.74676 0.51537 0.7434 0.0
C1259 C 0.71574 0.47417 0.75477 0.0
C1260 C 0.69352 0.45093 0.74816 0.0
C1261 C 0.69079 0.43997 0.72234 0.0
C1262 C 0.66971 0.41828 0.71604 0.0
C1263 C 0.65135 0.40718 0.73553 0.0
C1264 C 0.65403 0.41774 0.76136 0.0
C1265 C 0.67503 0.43951 0.76772 0.0
H1266 H 0.63505 0.39037 0.73063 0.0
H1267 H 0.8471 0.59535 0.78377 0.0
H1268 H 0.33458 0.82318 0.98608 0.0
H1269 H 0.30779 0.80325 0.94695 0.0
H1270 H 0.2501 0.75767 1.00214 0.0
H1271 H 0.27661 0.77796 0.04149 0.0
H1272 H 0.26415 0.73382 0.95798 0.0
H1273 H 0.24204 0.79559 0.97246 0.0
H1274 H 0.25092 0.83776 0.97781 0.0
H1275 H 0.28352 0.85519 0.89798 0.0
H1276 H 0.27515 0.81318 0.89232 0.0
H1277 H 0.17011 0.66801 0.86711 0.0
H1278 H 0.19332 0.69452 0.90491 0.0
H1279 H 0.23912 0.74995 0.84735 0.0
H1280 H 0.21524 0.72359 0.8092 0.0
H1281 H 0.23254 0.77039 0.89177 0.0
H1282 H 0.25713 0.71248 0.87531 0.0
H1283 H 0.25228 0.67203 0.86746 0.0
H1284 H 0.2211 0.64947 0.9475 0.0
H1285 H 0.2254 0.68968 0.95568 0.0
C1286 C 0.31608 0.80914 0.9899 0.0
C1287 C 0.30769 0.8021 0.01686 0.0
C1288 C 0.30081 0.79784 0.96753 0.0
C1289 C 0.27701 0.77903 0.9717 0.0
C1290 C 0.26842 0.77222 0.99856 0.0
C1291 C 0.28354 0.78388 0.02099 0.0
C1292 C 0.26168 0.7654 0.948 0.0
C1293 C 0.25687 0.74163 0.94374 0.0
C1294 C 0.25327 0.7761 0.92876 0.0
C1295 C 0.2582 0.80131 0.9321 0.0
C1296 C 0.25131 0.80847 0.95616 0.0
C1297 C 0.2562 0.83233 0.95922 0.0
C1298 C 0.26784 0.84916 0.93828 0.0
C1299 C 0.27454 0.84214 0.9142 0.0
C1300 C 0.2697 0.81831 0.91105 0.0
C1301 C 0.18491 0.68598 0.86246 0.0
C1302 C 0.19103 0.69363 0.83518 0.0
C1303 C 0.19824 0.70109 0.88411 0.0
C1304 C 0.21839 0.724 0.879 0.0
C1305 C 0.22375 0.73229 0.8518 0.0
C1306 C 0.2101 0.71723 0.83003 0.0
C1307 C 0.23444 0.73847 0.90204 0.0
C1308 C 0.23965 0.76246 0.90605 0.0
C1309 C 0.24385 0.72822 0.92073 0.0
C1310 C 0.24138 0.70404 0.91601 0.0
C1311 C 0.24908 0.69884 0.89117 0.0
C1312 C 0.24645 0.67596 0.88666 0.0
C1313 C 0.23634 0.65818 0.90694 0.0
C1314 C 0.2289 0.66326 0.9318 0.0
C1315 C 0.23144 0.6861 0.93639 0.0
H1316 H 0.23432 0.64047 0.90342 0.0
H1317 H 0.2716 0.86763 0.94069 0.0
H1318 H 0.50845 0.33055 0.15144 0.0
H1319 H 0.50256 0.30289 0.11354 0.0
H1320 H 0.49158 0.24714 0.17128 0.0
H1321 H 0.49684 0.27458 0.20946 0.0
H1322 H 0.52994 0.26111 0.12734 0.0
H1323 H 0.44544 0.23651 0.14021 0.0
H1324 H 0.41135 0.24422 0.14463 0.0
H1325 H 0.42642 0.27631 0.06454 0.0
H1326 H 0.46083 0.26911 0.0598 0.0
H1327 H 0.50856 0.17115 0.03105 0.0
H1328 H 0.50386 0.19197 0.07056 0.0
H1329 H 0.48971 0.23706 0.01651 0.0
H1330 H 0.49345 0.21552 0.97683 0.0
H1331 H 0.46284 0.22777 0.05969 0.0
H1332 H 0.54638 0.25676 0.04518 0.0
H1333 H 0.58347 0.25456 0.03788 0.0
H1334 H 0.57492 0.2218 0.11698 0.0
H1335 H 0.53748 0.22337 0.12455 0.0
C1336 C 0.50442 0.31227 0.15609 0.0
C1337 C 0.50312 0.30471 0.18341 0.0
C1338 C 0.50102 0.29651 0.13442 0.0
C1339 C 0.49665 0.27302 0.13965 0.0
C1340 C 0.49489 0.26521 0.16689 0.0
C1341 C 0.49778 0.28084 0.18863 0.0
C1342 C 0.49552 0.25731 0.1166 0.0
C1343 C 0.51505 0.25335 0.11283 0.0
C1344 C 0.47666 0.24832 0.09702 0.0
C1345 C 0.45585 0.25246 0.09976 0.0
C1346 C 0.44162 0.2454 0.12364 0.0
C1347 C 0.42221 0.24964 0.12618 0.0
C1348 C 0.41676 0.2608 0.10491 0.0
C1349 C 0.43067 0.26769 0.08101 0.0
C1350 C 0.45011 0.2635 0.07838 0.0
C1351 C 0.50416 0.18531 0.02757 0.0
C1352 C 0.50158 0.19184 1.00081 0.0
C1353 C 0.5016 0.1973 0.05019 0.0
C1354 C 0.49703 0.21654 0.04657 0.0
C1355 C 0.49335 0.22237 0.01988 0.0
C1356 C 0.49551 0.21006 0.9972 0.0
C1357 C 0.49716 0.23115 0.07051 0.0
C1358 C 0.47762 0.23518 0.07433 0.0
C1359 C 0.51644 0.24094 0.08973 0.0
C1360 C 0.53896 0.23994 0.08531 0.0
C1361 C 0.55229 0.2489 0.06093 0.0
C1362 C 0.5734 0.2478 0.05676 0.0
C1363 C 0.58154 0.23803 0.07694 0.0
C1364 C 0.56858 0.22934 0.10135 0.0
C1365 C 0.5474 0.23033 0.1056 0.0
H1366 H 0.59791 0.23723 0.07368 0.0
H1367 H 0.40173 0.26407 0.10692 0.0
loop_
_geom_bond_atom_site_label_1
_geom_bond_atom_site_label_2
_geom_bond_distance
_geom_bond_site_symmetry_2
_ccdc_geom_bond_type
C0 O2 1.247 . S
C0 O4 1.258 . S
C1 O8 1.247 . S
C1 O9 1.258 . S
O2 C0 1.247 . S
O2 Zn3 2.028 . S
Zn3 O2 2.028 . S
Zn3 O7 2.035 . S
Zn3 O9 2.035 . S
Zn3 O10 2.028 . S
O4 C0 1.258 . S
O4 Zn5 2.035 . S
Zn5 O4 2.035 . S
Zn5 O6 2.028 . S
Zn5 O8 2.028 . S
Zn5 O11 2.035 . S
O6 Zn5 2.028 . S
O6 C12 1.247 . S
O7 Zn3 2.035 . S
O7 C12 1.258 . S
O8 C1 1.247 . S
O8 Zn5 2.028 . S
O9 C1 1.258 . S
O9 Zn3 2.035 . S
O10 Zn3 2.028 . S
O10 C13 1.247 . S
O11 Zn5 2.035 . S
O11 C13 1.258 . S
C12 O6 1.247 . S
C12 O7 1.258 . S
C13 O10 1.247 . S
C13 O11 1.258 . S
C14 O16 1.247 . S
C14 O18 1.258 . S
C15 O22 1.247 . S
C15 O23 1.258 . S
O16 C14 1.247 . S
O16 Zn17 2.028 . S
Zn17 O16 2.028 . S
Zn17 O21 2.035 . S
Zn17 O23 2.035 . S
Zn17 O24 2.028 . S
O18 C14 1.258 . S
O18 Zn19 2.035 . S
Zn19 O18 2.035 . S
Zn19 O20 2.028 . S
Zn19 O22 2.028 . S
Zn19 O25 2.035 . S
O20 Zn19 2.028 . S
O20 C26 1.247 . S
O21 Zn17 2.035 . S
O21 C26 1.258 . S
O22 C15 1.247 . S
O22 Zn19 2.028 . S
O23 C15 1.258 . S
O23 Zn17 2.035 . S
O24 Zn17 2.028 . S
O24 C27 1.247 . S
O25 Zn19 2.035 . S
O25 C27 1.258 . S
C26 O20 1.247 . S
C26 O21 1.258 . S
C27 O24 1.247 . S
C27 O25 1.258 . S
C28 O30 1.247 . S
C28 O32 1.258 . S
C29 O36 1.247 . S
C29 O37 1.258 . S
O30 C28 1.247 . S
O30 Zn31 2.028 . S
Zn31 O30 2.028 . S
Zn31 O35 2.035 . S
Zn31 O37 2.035 . S
Zn31 O38 2.028 . S
O32 C28 1.258 . S
O32 Zn33 2.035 . S
Zn33 O32 2.035 . S
Zn33 O34 2.028 . S
Zn33 O36 2.028 . S
Zn33 O39 2.035 . S
O34 Zn33 2.028 . S
O34 C40 1.247 . S
O35 Zn31 2.035 . S
O35 C40 1.258 . S
O36 C29 1.247 . S
O36 Zn33 2.028 . S
O37 C29 1.258 . S
O37 Zn31 2.035 . S
O38 Zn31 2.028 . S
O38 C41 1.247 . S
O39 Zn33 2.035 . S
O39 C41 1.258 . S
C40 O34 1.247 . S
C40 O35 1.258 . S
C41 O38 1.247 . S
C41 O39 1.258 . S
C42 O44 1.247 . S
C42 O46 1.258 . S
C43 O50 1.247 . S
C43 O51 1.258 . S
O44 C42 1.247 . S
O44 Zn45 2.028 . S
Zn45 O44 2.028 . S
Zn45 O49 2.035 . S
Zn45 O51 2.035 . S
Zn45 O52 2.028 . S
O46 C42 1.258 . S
O46 Zn47 2.035 . S
Zn47 O46 2.035 . S
Zn47 O48 2.028 . S
Zn47 O50 2.028 . S
Zn47 O53 2.035 . S
O48 Zn47 2.028 . S
O48 C54 1.247 . S
O49 Zn45 2.035 . S
O49 C54 1.258 . S
O50 C43 1.247 . S
O50 Zn47 2.028 . S
O51 C43 1.258 . S
O51 Zn45 2.035 . S
O52 Zn45 2.028 . S
O52 C55 1.247 . S
O53 Zn47 2.035 . S
O53 C55 1.258 . S
C54 O48 1.247 . S
C54 O49 1.258 . S
C55 O52 1.247 . S
C55 O53 1.258 . S
C56 O58 1.247 . S
C56 O60 1.258 . S
C57 O64 1.247 . S
C57 O65 1.258 . S
O58 C56 1.247 . S
O58 Zn59 2.028 . S
Zn59 O58 2.028 . S
Zn59 O63 2.035 . S
Zn59 O65 2.035 . S
Zn59 O66 2.028 . S
O60 C56 1.258 . S
O60 Zn61 2.035 . S
Zn61 O60 2.035 . S
Zn61 O62 2.028 . S
Zn61 O64 2.028 . S
Zn61 O67 2.035 . S
O62 Zn61 2.028 . S
O62 C68 1.247 . S
O63 Zn59 2.035 . S
O63 C68 1.258 . S
O64 C57 1.247 . S
O64 Zn61 2.028 . S
O65 C57 1.258 . S
O65 Zn59 2.035 . S
O66 Zn59 2.028 . S
O66 C69 1.247 . S
O67 Zn61 2.035 . S
O67 C69 1.258 . S
C68 O62 1.247 . S
C68 O63 1.258 . S
C69 O66 1.247 . S
C69 O67 1.258 . S
C70 O72 1.247 . S
C70 O74 1.258 . S
C71 O78 1.247 . S
C71 O79 1.258 . S
O72 C70 1.247 . S
O72 Zn73 2.028 . S
Zn73 O72 2.028 . S
Zn73 O77 2.035 . S
Zn73 O79 2.035 . S
Zn73 O80 2.028 . S
O74 C70 1.258 . S
O74 Zn75 2.035 . S
Zn75 O74 2.035 . S
Zn75 O76 2.028 . S
Zn75 O78 2.028 . S
Zn75 O81 2.035 . S
O76 Zn75 2.028 . S
O76 C82 1.247 . S
O77 Zn73 2.035 . S
O77 C82 1.258 . S
O78 C71 1.247 . S
O78 Zn75 2.028 . S
O79 C71 1.258 . S
O79 Zn73 2.035 . S
O80 Zn73 2.028 . S
O80 C83 1.247 . S
O81 Zn75 2.035 . S
O81 C83 1.258 . S
C82 O76 1.247 . S
C82 O77 1.258 . S
C83 O80 1.247 . S
C83 O81 1.258 . S
C84 O86 1.247 . S
C84 O88 1.258 . S
C85 O92 1.247 . S
C85 O93 1.258 . S
O86 C84 1.247 . S
O86 Zn87 2.028 . S
Zn87 O86 2.028 . S
Zn87 O91 2.035 . S
Zn87 O93 2.035 . S
Zn87 O94 2.028 . S
O88 C84 1.258 . S
O88 Zn89 2.035 . S
Zn89 O88 2.035 . S
Zn89 O90 2.028 . S
Zn89 O92 2.028 . S
Zn89 O95 2.035 . S
O90 Zn89 2.028 . S
O90 C96 1.247 . S
O91 Zn87 2.035 . S
O91 C96 1.258 . S
O92 C85 1.247 . S
O92 Zn89 2.028 . S
O93 C85 1.258 . S
O93 Zn87 2.035 . S
O94 Zn87 2.028 . S
O94 C97 1.247 . S
O95 Zn89 2.035 . S
O95 C97 1.258 . S
C96 O90 1.247 . S
C96 O91 1.258 . S
C97 O94 1.247 . S
C97 O95 1.258 . S
C98 O100 1.247 . S
C98 O102 1.258 . S
C99 O106 1.247 . S
C99 O107 1.258 . S
O100 C98 1.247 . S
O100 Zn101 2.028 . S
Zn101 O100 2.028 . S
Zn101 O105 2.035 . S
Zn101 O107 2.035 . S
Zn101 O108 2.028 . S
O102 C98 1.258 . S
O102 Zn103 2.035 . S
Zn103 O102 2.035 . S
Zn103 O104 2.028 . S
Zn103 O106 2.028 . S
Zn103 O109 2.035 . S
O104 Zn103 2.028 . S
O104 C110 1.247 . S
O105 Zn101 2.035 . S
O105 C110 1.258 . S
O106 C99 1.247 . S
O106 Zn103 2.028 . S
O107 C99 1.258 . S
O107 Zn101 2.035 . S
O108 Zn101 2.028 . S
O108 C111 1.247 . S
O109 Zn103 2.035 . S
O109 C111 1.258 . S
C110 O104 1.247 . S
C110 O105 1.258 . S
C111 O108 1.247 . S
C111 O109 1.258 . S
C112 O114 1.247 . S
C112 O116 1.258 . S
C113 O120 1.247 . S
C113 O121 1.258 . S
O114 C112 1.247 . S
O114 Zn115 2.028 . S
Zn115 O114 2.028 . S
Zn115 O119 2.035 . S
Zn115 O121 2.035 . S
Zn115 O122 2.028 . S
O116 C112 1.258 . S
O116 Zn117 2.035 . S
Zn117 O116 2.035 . S
Zn117 O118 2.028 . S
Zn117 O120 2.028 . S
Zn117 O123 2.035 . S
O118 Zn117 2.028 . S
O118 C124 1.247 . S
O119 Zn115 2.035 . S
O119 C124 1.258 . S
O120 C113 1.247 . S
O120 Zn117 2.028 . S
O121 C113 1.258 . S
O121 Zn115 2.035 . S
O122 Zn115 2.028 . S
O122 C125 1.247 . S
O123 Zn117 2.035 . S
O123 C125 1.258 . S
C124 O118 1.247 . S
C124 O119 1.258 . S
C125 O122 1.247 . S
C125 O123 1.258 . S
C126 O128 1.247 . S
C126 O130 1.258 . S
C127 O134 1.247 . S
C127 O135 1.258 . S
O128 C126 1.247 . S
O128 Zn129 2.028 . S
Zn129 O128 2.028 . S
Zn129 O133 2.035 . S
Zn129 O135 2.035 . S
Zn129 O136 2.028 . S
O130 C126 1.258 . S
O130 Zn131 2.035 . S
Zn131 O130 2.035 . S
Zn131 O132 2.028 . S
Zn131 O134 2.028 . S
Zn131 O137 2.035 . S
O132 Zn131 2.028 . S
O132 C138 1.247 . S
O133 Zn129 2.035 . S
O133 C138 1.258 . S
O134 C127 1.247 . S
O134 Zn131 2.028 . S
O135 C127 1.258 . S
O135 Zn129 2.035 . S
O136 Zn129 2.028 . S
O136 C139 1.247 . S
O137 Zn131 2.035 . S
O137 C139 1.258 . S
C138 O132 1.247 . S
C138 O133 1.258 . S
C139 O136 1.247 . S
C139 O137 1.258 . S
C140 O142 1.247 . S
C140 O144 1.258 . S
C141 O148 1.247 . S
C141 O149 1.258 . S
O142 C140 1.247 . S
O142 Zn143 2.028 . S
Zn143 O142 2.028 . S
Zn143 O147 2.035 . S
Zn143 O149 2.035 . S
Zn143 O150 2.028 . S
O144 C140 1.258 . S
O144 Zn145 2.035 . S
Zn145 O144 2.035 . S
Zn145 O146 2.028 . S
Zn145 O148 2.028 . S
Zn145 O151 2.035 . S
O146 Zn145 2.028 . S
O146 C152 1.247 . S
O147 Zn143 2.035 . S
O147 C152 1.258 . S
O148 C141 1.247 . S
O148 Zn145 2.028 . S
O149 C141 1.258 . S
O149 Zn143 2.035 . S
O150 Zn143 2.028 . S
O150 C153 1.247 . S
O151 Zn145 2.035 . S
O151 C153 1.258 . S
C152 O146 1.247 . S
C152 O147 1.258 . S
C153 O150 1.247 . S
C153 O151 1.258 . S
C154 O156 1.247 . S
C154 O158 1.258 . S
C155 O162 1.247 . S
C155 O163 1.258 . S
O156 C154 1.247 . S
O156 Zn157 2.028 . S
Zn157 O156 2.028 . S
Zn157 O161 2.035 . S
Zn157 O163 2.035 . S
Zn157 O164 2.028 . S
O158 C154 1.258 . S
O158 Zn159 2.035 . S
Zn159 O158 2.035 . S
Zn159 O160 2.028 . S
Zn159 O162 2.028 . S
Zn159 O165 2.035 . S
O160 Zn159 2.028 . S
O160 C166 1.247 . S
O161 Zn157 2.035 . S
O161 C166 1.258 . S
O162 C155 1.247 . S
O162 Zn159 2.028 . S
O163 C155 1.258 . S
O163 Zn157 2.035 . S
O164 Zn157 2.028 . S
O164 C167 1.247 . S
O165 Zn159 2.035 . S
O165 C167 1.258 . S
C166 O160 1.247 . S
C166 O161 1.258 . S
C167 O164 1.247 . S
C167 O165 1.258 . S
H168 C186 0.951 . S
H169 C188 0.951 . S
H170 C190 0.950 . S
H171 C191 0.950 . S
H172 C193 0.950 . S
H173 C196 0.950 . S
H174 C197 0.950 . S
H175 C199 0.950 . S
H176 C200 0.950 . S
H177 C201 0.951 . S
H178 C203 0.951 . S
H179 C205 0.950 . S
H180 C206 0.950 . S
H181 C208 0.950 . S
H182 C211 0.950 . S
H183 C212 0.950 . S
H184 C214 0.950 . S
H185 C215 0.950 . S
C186 H168 0.951 . S
C186 C187 1.366 . S
C186 C188 1.388 . S
C187 C186 1.366 . S
C187 C191 1.385 . S
C188 H169 0.951 . S
C188 C186 1.388 . S
C188 C189 1.366 . S
C189 C188 1.366 . S
C189 C190 1.414 . S
C189 C192 1.499 . S
C190 H170 0.950 . S
C190 C189 1.414 . S
C190 C191 1.374 . S
C191 H171 0.950 . S
C191 C187 1.385 . S
C191 C190 1.374 . S
C192 C189 1.499 . S
C192 C193 1.373 . S
C192 C194 1.389 . S
C193 H172 0.950 . S
C193 C192 1.373 . S
C193 C209 1.377 . S
C194 C192 1.389 . S
C194 C195 1.524 . S
C194 C208 1.377 . S
C195 C194 1.524 . S
C195 C196 1.397 . S
C195 C200 1.363 . S
C196 H173 0.950 . S
C196 C195 1.397 . S
C196 C197 1.334 . S
C197 H174 0.950 . S
C197 C196 1.334 . S
C197 C198 1.287 . S
C198 C197 1.287 . S
C198 C199 1.524 . S
C198 H217 0.913 . S
C199 H175 0.950 . S
C199 C198 1.524 . S
C199 C200 1.415 . S
C200 H176 0.950 . S
C200 C195 1.363 . S
C200 C199 1.415 . S
C201 H177 0.951 . S
C201 C202 1.366 . S
C201 C203 1.388 . S
C202 C201 1.366 . S
C202 C206 1.385 . S
C203 H178 0.951 . S
C203 C201 1.388 . S
C203 C204 1.366 . S
C204 C203 1.366 . S
C204 C205 1.414 . S
C204 C207 1.499 . S
C205 H179 0.950 . S
C205 C204 1.414 . S
C205 C206 1.374 . S
C206 H180 0.950 . S
C206 C202 1.385 . S
C206 C205 1.374 . S
C207 C204 1.499 . S
C207 C208 1.373 . S
C207 C209 1.389 . S
C208 H181 0.950 . S
C208 C194 1.377 . S
C208 C207 1.373 . S
C209 C193 1.377 . S
C209 C207 1.389 . S
C209 C210 1.524 . S
C210 C209 1.524 . S
C210 C211 1.397 . S
C210 C215 1.363 . S
C211 H182 0.950 . S
C211 C210 1.397 . S
C211 C212 1.334 . S
C212 H183 0.950 . S
C212 C211 1.334 . S
C212 C213 1.287 . S
C213 C212 1.287 . S
C213 C214 1.524 . S
C213 H216 0.999 . S
C214 H184 0.950 . S
C214 C213 1.524 . S
C214 C215 1.415 . S
C215 H185 0.950 . S
C215 C210 1.363 . S
C215 C214 1.415 . S
H216 C213 0.999 . S
H217 C198 0.913 . S
H218 C236 0.951 . S
H219 C238 0.951 . S
H220 C240 0.950 . S
H221 C241 0.950 . S
H222 C243 0.950 . S
H223 C246 0.950 . S
H224 C247 0.950 . S
H225 C249 0.950 . S
H226 C250 0.950 . S
H227 C251 0.951 . S
H228 C253 0.951 . S
H229 C255 0.950 . S
H230 C256 0.950 . S
H231 C258 0.950 . S
H232 C261 0.950 . S
H233 C262 0.950 . S
H234 C264 0.950 . S
H235 C265 0.950 . S
C236 H218 0.951 . S
C236 C237 1.366 . S
C236 C238 1.388 . S
C237 C236 1.366 . S
C237 C241 1.385 . S
C238 H219 0.951 . S
C238 C236 1.388 . S
C238 C239 1.366 . S
C239 C238 1.366 . S
C239 C240 1.414 . S
C239 C242 1.499 . S
C240 H220 0.950 . S
C240 C239 1.414 . S
C240 C241 1.374 . S
C241 H221 0.950 . S
C241 C237 1.385 . S
C241 C240 1.374 . S
C242 C239 1.499 . S
C242 C243 1.373 . S
C242 C244 1.389 . S
C243 H222 0.950 . S
C243 C242 1.373 . S
C243 C259 1.377 . S
C244 C242 1.389 . S
C244 C245 1.524 . S
C244 C258 1.377 . S
C245 C244 1.524 . S
C245 C246 1.397 . S
C245 C250 1.363 . S
C246 H223 0.950 . S
C246 C245 1.397 . S
C246 C247 1.334 . S
C247 H224 0.950 . S
C247 C246 1.334 . S
C247 C248 1.287 . S
C248 C247 1.287 . S
C248 C249 1.524 . S
C248 H267 0.913 . S
C249 H225 0.950 . S
C249 C248 1.524 . S
C249 C250 1.415 . S
C250 H226 0.950 . S
C250 C245 1.363 . S
C250 C249 1.415 . S
C251 H227 0.951 . S
C251 C252 1.366 . S
C251 C253 1.388 . S
C252 C251 1.366 . S
C252 C256 1.385 . S
C253 H228 0.951 . S
C253 C251 1.388 . S
C253 C254 1.366 . S
C254 C253 1.366 . S
C254 C255 1.414 . S
C254 C257 1.499 . S
C255 H229 0.950 . S
C255 C254 1.414 . S
C255 C256 1.374 . S
C256 H230 0.950 . S
C256 C252 1.385 . S
C256 C255 1.374 . S
C257 C254 1.499 . S
C257 C258 1.373 . S
C257 C259 1.389 . S
C258 H231 0.950 . S
C258 C244 1.377 . S
C258 C257 1.373 . S
C259 C243 1.377 . S
C259 C257 1.389 . S
C259 C260 1.524 . S
C260 C259 1.524 . S
C260 C261 1.397 . S
C260 C265 1.363 . S
C261 H232 0.950 . S
C261 C260 1.397 . S
C261 C262 1.334 . S
C262 H233 0.950 . S
C262 C261 1.334 . S
C262 C263 1.287 . S
C263 C262 1.287 . S
C263 C264 1.524 . S
C263 H266 0.999 . S
C264 H234 0.950 . S
C264 C263 1.524 . S
C264 C265 1.415 . S
C265 H235 0.950 . S
C265 C260 1.363 . S
C265 C264 1.415 . S
H266 C263 0.999 . S
H267 C248 0.913 . S
H268 C286 0.951 . S
H269 C288 0.951 . S
H270 C290 0.950 . S
H271 C291 0.950 . S
H272 C293 0.950 . S
H273 C296 0.950 . S
H274 C297 0.950 . S
H275 C299 0.950 . S
H276 C300 0.950 . S
H277 C301 0.951 . S
H278 C303 0.951 . S
H279 C305 0.950 . S
H280 C306 0.950 . S
H281 C308 0.950 . S
H282 C311 0.950 . S
H283 C312 0.950 . S
H284 C314 0.950 . S
H285 C315 0.950 . S
C286 H268 0.951 . S
C286 C287 1.366 . S
C286 C288 1.388 . S
C287 C286 1.366 . S
C287 C291 1.385 . S
C288 H269 0.951 . S
C288 C286 1.388 . S
C288 C289 1.366 . S
C289 C288 1.366 . S
C289 C290 1.414 . S
C289 C292 1.499 . S
C290 H270 0.950 . S
C290 C289 1.414 . S
C290 C291 1.374 . S
C291 H271 0.950 . S
C291 C287 1.385 . S
C291 C290 1.374 . S
C292 C289 1.499 . S
C292 C293 1.373 . S
C292 C294 1.389 . S
C293 H272 0.950 . S
C293 C292 1.373 . S
C293 C309 1.377 . S
C294 C292 1.389 . S
C294 C295 1.524 . S
C294 C308 1.377 . S
C295 C294 1.524 . S
C295 C296 1.397 . S
C295 C300 1.363 . S
C296 H273 0.950 . S
C296 C295 1.397 . S
C296 C297 1.334 . S
C297 H274 0.950 . S
C297 C296 1.334 . S
C297 C298 1.287 . S
C298 C297 1.287 . S
C298 C299 1.524 . S
C298 H317 0.913 . S
C299 H275 0.950 . S
C299 C298 1.524 . S
C299 C300 1.415 . S
C300 H276 0.950 . S
C300 C295 1.363 . S
C300 C299 1.415 . S
C301 H277 0.951 . S
C301 C302 1.366 . S
C301 C303 1.388 . S
C302 C301 1.366 . S
C302 C306 1.385 . S
C303 H278 0.951 . S
C303 C301 1.388 . S
C303 C304 1.366 . S
C304 C303 1.366 . S
C304 C305 1.414 . S
C304 C307 1.499 . S
C305 H279 0.950 . S
C305 C304 1.414 . S
C305 C306 1.374 . S
C306 H280 0.950 . S
C306 C302 1.385 . S
C306 C305 1.374 . S
C307 C304 1.499 . S
C307 C308 1.373 . S
C307 C309 1.389 . S
C308 H281 0.950 . S
C308 C294 1.377 . S
C308 C307 1.373 . S
C309 C293 1.377 . S
C309 C307 1.389 . S
C309 C310 1.524 . S
C310 C309 1.524 . S
C310 C311 1.397 . S
C310 C315 1.363 . S
C311 H282 0.950 . S
C311 C310 1.397 . S
C311 C312 1.334 . S
C312 H283 0.950 . S
C312 C311 1.334 . S
C312 C313 1.287 . S
C313 C312 1.287 . S
C313 C314 1.524 . S
C313 H316 0.999 . S
C314 H284 0.950 . S
C314 C313 1.524 . S
C314 C315 1.415 . S
C315 H285 0.950 . S
C315 C310 1.363 . S
C315 C314 1.415 . S
H316 C313 0.999 . S
H317 C298 0.913 . S
H318 C336 0.951 . S
H319 C338 0.951 . S
H320 C340 0.950 . S
H321 C341 0.950 . S
H322 C343 0.950 . S
H323 C346 0.950 . S
H324 C347 0.950 . S
H325 C349 0.950 . S
H326 C350 0.950 . S
H327 C351 0.951 . S
H328 C353 0.951 . S
H329 C355 0.950 . S
H330 C356 0.950 . S
H331 C358 0.950 . S
H332 C361 0.950 . S
H333 C362 0.950 1_554 S
H334 C364 0.950 . S
H335 C365 0.950 . S
C336 H318 0.951 . S
C336 C337 1.366 . S
C336 C338 1.388 . S
C337 C336 1.366 . S
C337 C341 1.385 . S
C338 H319 0.951 . S
C338 C336 1.388 . S
C338 C339 1.366 . S
C339 C338 1.366 . S
C339 C340 1.414 . S
C339 C342 1.499 . S
C340 H320 0.950 . S
C340 C339 1.414 . S
C340 C341 1.374 . S
C341 H321 0.950 . S
C341 C337 1.385 . S
C341 C340 1.374 . S
C342 C339 1.499 . S
C342 C343 1.373 . S
C342 C344 1.389 . S
C343 H322 0.950 . S
C343 C342 1.373 . S
C343 C359 1.377 . S
C344 C342 1.389 . S
C344 C345 1.524 . S
C344 C358 1.377 . S
C345 C344 1.524 . S
C345 C346 1.397 . S
C345 C350 1.363 . S
C346 H323 0.950 . S
C346 C345 1.397 . S
C346 C347 1.334 . S
C347 H324 0.950 . S
C347 C346 1.334 . S
C347 C348 1.287 . S
C348 C347 1.287 . S
C348 C349 1.524 . S
C348 H367 0.913 . S
C349 H325 0.950 . S
C349 C348 1.524 . S
C349 C350 1.415 . S
C350 H326 0.950 . S
C350 C345 1.363 . S
C350 C349 1.415 . S
C351 H327 0.951 . S
C351 C352 1.366 . S
C351 C353 1.388 . S
C352 C351 1.366 . S
C352 C356 1.385 . S
C353 H328 0.951 . S
C353 C351 1.388 . S
C353 C354 1.366 . S
C354 C353 1.366 . S
C354 C355 1.414 . S
C354 C357 1.499 . S
C355 H329 0.950 . S
C355 C354 1.414 . S
C355 C356 1.374 . S
C356 H330 0.950 . S
C356 C352 1.385 . S
C356 C355 1.374 . S
C357 C354 1.499 . S
C357 C358 1.373 . S
C357 C359 1.389 . S
C358 H331 0.950 . S
C358 C344 1.377 . S
C358 C357 1.373 . S
C359 C343 1.377 . S
C359 C357 1.389 . S
C359 C360 1.524 . S
C360 C359 1.524 . S
C360 C361 1.397 . S
C360 C365 1.363 . S
C361 H332 0.950 . S
C361 C360 1.397 . S
C361 C362 1.334 . S
C362 H333 0.950 1_556 S
C362 C361 1.334 . S
C362 C363 1.287 . S
C363 C362 1.287 . S
C363 C364 1.524 . S
C363 H366 0.999 1_556 S
C364 H334 0.950 . S
C364 C363 1.524 . S
C364 C365 1.415 . S
C365 H335 0.950 . S
C365 C360 1.363 . S
C365 C364 1.415 . S
H366 C363 0.999 1_554 S
H367 C348 0.913 . S
H368 C386 0.951 . S
H369 C388 0.951 . S
H370 C390 0.950 . S
H371 C391 0.950 . S
H372 C393 0.950 . S
H373 C396 0.950 . S
H374 C397 0.950 . S
H375 C399 0.950 . S
H376 C400 0.950 . S
H377 C401 0.951 . S
H378 C403 0.951 . S
H379 C405 0.950 . S
H380 C406 0.950 . S
H381 C408 0.950 . S
H382 C411 0.950 . S
H383 C412 0.943 1_556 S
H384 C414 0.950 . S
H385 C415 0.950 . S
C386 H368 0.951 . S
C386 C387 1.366 . S
C386 C388 1.388 . S
C387 C386 1.366 . S
C387 C391 1.385 . S
C388 H369 0.951 . S
C388 C386 1.388 . S
C388 C389 1.366 . S
C389 C388 1.366 . S
C389 C390 1.414 . S
C389 C392 1.499 . S
C390 H370 0.950 . S
C390 C389 1.414 . S
C390 C391 1.374 . S
C391 H371 0.950 . S
C391 C387 1.385 . S
C391 C390 1.374 . S
C392 C389 1.499 . S
C392 C393 1.373 . S
C392 C394 1.389 . S
C393 H372 0.950 . S
C393 C392 1.373 . S
C393 C409 1.377 . S
C394 C392 1.389 . S
C394 C395 1.524 . S
C394 C408 1.377 . S
C395 C394 1.524 . S
C395 C396 1.397 . S
C395 C400 1.363 . S
C396 H373 0.950 . S
C396 C395 1.397 . S
C396 C397 1.334 . S
C397 H374 0.950 . S
C397 C396 1.334 . S
C397 C398 1.287 . S
C398 C397 1.287 . S
C398 C399 1.524 . S
C398 H417 0.913 . S
C399 H375 0.950 . S
C399 C398 1.524 . S
C399 C400 1.415 . S
C400 H376 0.950 . S
C400 C395 1.363 . S
C400 C399 1.415 . S
C401 H377 0.951 . S
C401 C402 1.366 . S
C401 C403 1.388 . S
C402 C401 1.366 . S
C402 C406 1.385 . S
C403 H378 0.951 . S
C403 C401 1.388 . S
C403 C404 1.366 . S
C404 C403 1.366 . S
C404 C405 1.414 . S
C404 C407 1.499 . S
C405 H379 0.950 . S
C405 C404 1.414 . S
C405 C406 1.374 . S
C406 H380 0.950 . S
C406 C402 1.385 . S
C406 C405 1.374 . S
C407 C404 1.499 . S
C407 C408 1.373 . S
C407 C409 1.389 . S
C408 H381 0.950 . S
C408 C394 1.377 . S
C408 C407 1.373 . S
C409 C393 1.377 . S
C409 C407 1.389 . S
C409 C410 1.524 . S
C410 C409 1.524 . S
C410 C411 1.397 . S
C410 C415 1.363 . S
C411 H382 0.950 . S
C411 C410 1.397 . S
C411 C412 1.365 . S
C412 H383 0.943 1_554 S
C412 C411 1.365 . S
C412 C413 1.264 1_554 S
C413 C412 1.264 1_556 S
C413 C414 1.524 . S
C413 H416 0.999 . S
C414 H384 0.950 . S
C414 C413 1.524 . S
C414 C415 1.415 1_556 S
C415 H385 0.950 . S
C415 C410 1.363 . S
C415 C414 1.415 1_554 S
H416 C413 0.999 . S
H417 C398 0.913 . S
H418 C436 0.951 . S
H419 C438 0.951 . S
H420 C440 0.950 . S
H421 C441 0.950 . S
H422 C443 0.950 . S
H423 C446 0.950 . S
H424 C447 0.950 . S
H425 C449 0.950 . S
H426 C450 0.950 . S
H427 C451 0.951 . S
H428 C453 0.951 . S
H429 C455 0.950 . S
H430 C456 0.950 . S
H431 C458 0.950 . S
H432 C461 0.950 . S
H433 C462 0.950 . S
H434 C464 0.950 . S
H435 C465 0.950 . S
C436 H418 0.951 . S
C436 C437 1.366 . S
C436 C438 1.388 . S
C437 C436 1.366 . S
C437 C441 1.385 . S
C438 H419 0.951 . S
C438 C436 1.388 . S
C438 C439 1.366 . S
C439 C438 1.366 . S
C439 C440 1.414 . S
C439 C442 1.499 . S
C440 H420 0.950 . S
C440 C439 1.414 . S
C440 C441 1.374 . S
C441 H421 0.950 . S
C441 C437 1.385 . S
C441 C440 1.374 . S
C442 C439 1.499 . S
C442 C443 1.373 . S
C442 C444 1.389 . S
C443 H422 0.950 . S
C443 C442 1.373 . S
C443 C459 1.377 . S
C444 C442 1.389 . S
C444 C445 1.524 . S
C444 C458 1.377 . S
C445 C444 1.524 . S
C445 C446 1.397 . S
C445 C450 1.363 . S
C446 H423 0.950 . S
C446 C445 1.397 . S
C446 C447 1.334 . S
C447 H424 0.950 . S
C447 C446 1.334 . S
C447 C448 1.287 . S
C448 C447 1.287 . S
C448 C449 1.524 . S
C448 H467 0.913 . S
C449 H425 0.950 . S
C449 C448 1.524 . S
C449 C450 1.415 . S
C450 H426 0.950 . S
C450 C445 1.363 . S
C450 C449 1.415 . S
C451 H427 0.951 . S
C451 C452 1.366 . S
C451 C453 1.388 . S
C452 C451 1.366 . S
C452 C456 1.385 . S
C453 H428 0.951 . S
C453 C451 1.388 . S
C453 C454 1.366 . S
C454 C453 1.366 . S
C454 C455 1.414 . S
C454 C457 1.499 . S
C455 H429 0.950 . S
C455 C454 1.414 . S
C455 C456 1.374 . S
C456 H430 0.950 . S
C456 C452 1.385 . S
C456 C455 1.374 . S
C457 C454 1.499 . S
C457 C458 1.373 . S
C457 C459 1.389 . S
C458 H431 0.950 . S
C458 C444 1.377 . S
C458 C457 1.373 . S
C459 C443 1.377 . S
C459 C457 1.389 . S
C459 C460 1.524 . S
C460 C459 1.524 . S
C460 C461 1.397 . S
C460 C465 1.363 . S
C461 H432 0.950 . S
C461 C460 1.397 . S
C461 C462 1.334 . S
C462 H433 0.950 . S
C462 C461 1.334 . S
C462 C463 1.287 . S
C463 C462 1.287 . S
C463 C464 1.524 . S
C463 H466 0.999 . S
C464 H434 0.950 . S
C464 C463 1.524 . S
C464 C465 1.415 . S
C465 H435 0.950 . S
C465 C460 1.363 . S
C465 C464 1.415 . S
H466 C463 0.999 . S
H467 C448 0.913 . S
H468 C486 0.951 . S
H469 C488 0.951 . S
H470 C490 0.950 . S
H471 C491 0.950 . S
H472 C493 0.950 . S
H473 C496 0.950 . S
H474 C497 0.950 . S
H475 C499 0.950 . S
H476 C500 0.950 . S
H477 C501 0.951 . S
H478 C503 0.951 . S
H479 C505 0.950 . S
H480 C506 0.950 . S
H481 C508 0.950 . S
H482 C511 0.950 . S
H483 C512 0.950 . S
H484 C514 0.950 . S
H485 C515 0.950 . S
C486 H468 0.951 . S
C486 C487 1.366 . S
C486 C488 1.388 . S
C487 C486 1.366 . S
C487 C491 1.385 . S
C488 H469 0.951 . S
C488 C486 1.388 . S
C488 C489 1.366 . S
C489 C488 1.366 . S
C489 C490 1.414 . S
C489 C492 1.499 . S
C490 H470 0.950 . S
C490 C489 1.414 . S
C490 C491 1.374 . S
C491 H471 0.950 . S
C491 C487 1.385 . S
C491 C490 1.374 . S
C492 C489 1.499 . S
C492 C493 1.373 . S
C492 C494 1.389 . S
C493 H472 0.950 . S
C493 C492 1.373 . S
C493 C509 1.377 . S
C494 C492 1.389 . S
C494 C495 1.524 . S
C494 C508 1.377 . S
C495 C494 1.524 . S
C495 C496 1.397 . S
C495 C500 1.363 . S
C496 H473 0.950 . S
C496 C495 1.397 . S
C496 C497 1.334 . S
C497 H474 0.950 . S
C497 C496 1.334 . S
C497 C498 1.287 . S
C498 C497 1.287 . S
C498 C499 1.524 . S
C498 H517 0.913 . S
C499 H475 0.950 . S
C499 C498 1.524 . S
C499 C500 1.415 . S
C500 H476 0.950 . S
C500 C495 1.363 . S
C500 C499 1.415 . S
C501 H477 0.951 . S
C501 C502 1.366 . S
C501 C503 1.388 . S
C502 C501 1.366 . S
C502 C506 1.385 . S
C503 H478 0.951 . S
C503 C501 1.388 . S
C503 C504 1.366 . S
C504 C503 1.366 . S
C504 C505 1.414 . S
C504 C507 1.499 . S
C505 H479 0.950 . S
C505 C504 1.414 . S
C505 C506 1.374 . S
C506 H480 0.950 . S
C506 C502 1.385 . S
C506 C505 1.374 . S
C507 C504 1.499 . S
C507 C508 1.373 . S
C507 C509 1.389 . S
C508 H481 0.950 . S
C508 C494 1.377 . S
C508 C507 1.373 . S
C509 C493 1.377 . S
C509 C507 1.389 . S
C509 C510 1.524 . S
C510 C509 1.524 . S
C510 C511 1.397 . S
C510 C515 1.363 . S
C511 H482 0.950 . S
C511 C510 1.397 . S
C511 C512 1.334 . S
C512 H483 0.950 . S
C512 C511 1.334 . S
C512 C513 1.287 . S
C513 C512 1.287 . S
C513 C514 1.524 . S
C513 H516 0.999 . S
C514 H484 0.950 . S
C514 C513 1.524 . S
C514 C515 1.415 . S
C515 H485 0.950 . S
C515 C510 1.363 . S
C515 C514 1.415 . S
H516 C513 0.999 . S
H517 C498 0.913 . S
H518 C536 0.951 . S
H519 C538 0.951 . S
H520 C540 0.950 . S
H521 C541 0.950 . S
H522 C543 0.950 . S
H523 C546 0.950 . S
H524 C547 0.950 . S
H525 C549 0.950 . S
H526 C550 0.950 . S
H527 C551 0.951 . S
H528 C553 0.951 . S
H529 C555 0.950 . S
H530 C556 0.950 . S
H531 C558 0.950 . S
H532 C561 0.950 . S
H533 C562 0.950 . S
H534 C564 0.950 . S
H535 C565 0.950 . S
C536 H518 0.951 . S
C536 C537 1.366 . S
C536 C538 1.388 . S
C537 C536 1.366 . S
C537 C541 1.385 . S
C538 H519 0.951 . S
C538 C536 1.388 . S
C538 C539 1.366 . S
C539 C538 1.366 . S
C539 C540 1.414 . S
C539 C542 1.499 . S
C540 H520 0.950 . S
C540 C539 1.414 . S
C540 C541 1.374 . S
C541 H521 0.950 . S
C541 C537 1.385 . S
C541 C540 1.374 . S
C542 C539 1.499 . S
C542 C543 1.373 . S
C542 C544 1.389 . S
C543 H522 0.950 . S
C543 C542 1.373 . S
C543 C559 1.377 . S
C544 C542 1.389 . S
C544 C545 1.524 . S
C544 C558 1.377 . S
C545 C544 1.524 . S
C545 C546 1.397 . S
C545 C550 1.363 . S
C546 H523 0.950 . S
C546 C545 1.397 . S
C546 C547 1.334 . S
C547 H524 0.950 . S
C547 C546 1.334 . S
C547 C548 1.287 . S
C548 C547 1.287 . S
C548 C549 1.524 . S
C548 H567 0.913 . S
C549 H525 0.950 . S
C549 C548 1.524 . S
C549 C550 1.415 . S
C550 H526 0.950 . S
C550 C545 1.363 . S
C550 C549 1.415 . S
C551 H527 0.951 . S
C551 C552 1.366 . S
C551 C553 1.388 . S
C552 C551 1.366 . S
C552 C556 1.385 . S
C553 H528 0.951 . S
C553 C551 1.388 . S
C553 C554 1.366 . S
C554 C553 1.366 . S
C554 C555 1.414 . S
C554 C557 1.499 . S
C555 H529 0.950 . S
C555 C554 1.414 . S
C555 C556 1.374 . S
C556 H530 0.950 . S
C556 C552 1.385 . S
C556 C555 1.374 . S
C557 C554 1.499 . S
C557 C558 1.373 . S
C557 C559 1.389 . S
C558 H531 0.950 . S
C558 C544 1.377 . S
C558 C557 1.373 . S
C559 C543 1.377 . S
C559 C557 1.389 . S
C559 C560 1.524 . S
C560 C559 1.524 . S
C560 C561 1.397 . S
C560 C565 1.363 . S
C561 H532 0.950 . S
C561 C560 1.397 . S
C561 C562 1.334 . S
C562 H533 0.950 . S
C562 C561 1.334 . S
C562 C563 1.287 . S
C563 C562 1.287 . S
C563 C564 1.524 . S
C563 H566 0.999 . S
C564 H534 0.950 . S
C564 C563 1.524 . S
C564 C565 1.415 . S
C565 H535 0.950 . S
C565 C560 1.363 . S
C565 C564 1.415 . S
H566 C563 0.999 . S
H567 C548 0.913 . S
H568 C586 0.955 . S
H569 C588 0.951 . S
H570 C590 0.950 . S
H571 C591 0.950 . S
H572 C593 0.950 . S
H573 C596 0.950 . S
H574 C597 0.950 . S
H575 C599 0.950 . S
H576 C600 0.950 . S
H577 C601 0.951 . S
H578 C603 0.951 . S
H579 C605 0.950 . S
H580 C606 0.950 . S
H581 C608 0.950 . S
H582 C611 0.950 . S
H583 C612 0.950 . S
H584 C614 0.950 . S
H585 C615 0.950 . S
C586 H568 0.955 . S
C586 C587 1.386 . S
C586 C588 1.364 1_554 S
C587 C586 1.386 . S
C587 C591 1.385 . S
C588 H569 0.951 . S
C588 C586 1.364 1_556 S
C588 C589 1.366 . S
C589 C588 1.366 . S
C589 C590 1.414 . S
C589 C592 1.499 . S
C590 H570 0.950 . S
C590 C589 1.414 . S
C590 C591 1.374 1_556 S
C591 H571 0.950 . S
C591 C587 1.385 . S
C591 C590 1.374 1_554 S
C592 C589 1.499 . S
C592 C593 1.373 . S
C592 C594 1.389 . S
C593 H572 0.950 . S
C593 C592 1.373 . S
C593 C609 1.377 . S
C594 C592 1.389 . S
C594 C595 1.524 . S
C594 C608 1.377 . S
C595 C594 1.524 . S
C595 C596 1.397 . S
C595 C600 1.363 . S
C596 H573 0.950 . S
C596 C595 1.397 . S
C596 C597 1.334 . S
C597 H574 0.950 . S
C597 C596 1.334 . S
C597 C598 1.287 . S
C598 C597 1.287 . S
C598 C599 1.524 . S
C598 H617 0.913 . S
C599 H575 0.950 . S
C599 C598 1.524 . S
C599 C600 1.415 . S
C600 H576 0.950 . S
C600 C595 1.363 . S
C600 C599 1.415 . S
C601 H577 0.951 . S
C601 C602 1.366 . S
C601 C603 1.388 . S
C602 C601 1.366 . S
C602 C606 1.385 . S
C603 H578 0.951 . S
C603 C601 1.388 . S
C603 C604 1.366 . S
C604 C603 1.366 . S
C604 C605 1.414 . S
C604 C607 1.499 . S
C605 H579 0.950 . S
C605 C604 1.414 . S
C605 C606 1.374 . S
C606 H580 0.950 . S
C606 C602 1.385 . S
C606 C605 1.374 . S
C607 C604 1.499 . S
C607 C608 1.373 . S
C607 C609 1.389 . S
C608 H581 0.950 . S
C608 C594 1.377 . S
C608 C607 1.373 . S
C609 C593 1.377 . S
C609 C607 1.389 . S
C609 C610 1.524 . S
C610 C609 1.524 . S
C610 C611 1.397 . S
C610 C615 1.363 . S
C611 H582 0.950 . S
C611 C610 1.397 . S
C611 C612 1.334 . S
C612 H583 0.950 . S
C612 C611 1.334 . S
C612 C613 1.287 . S
C613 C612 1.287 . S
C613 C614 1.524 . S
C613 H616 0.999 . S
C614 H584 0.950 . S
C614 C613 1.524 . S
C614 C615 1.415 . S
C615 H585 0.950 . S
C615 C610 1.363 . S
C615 C614 1.415 . S
H616 C613 0.999 . S
H617 C598 0.913 . S
H618 C636 0.951 . S
H619 C638 0.951 . S
H620 C640 0.950 . S
H621 C641 0.950 . S
H622 C643 0.950 . S
H623 C646 0.950 . S
H624 C647 0.950 . S
H625 C649 0.950 . S
H626 C650 0.950 . S
H627 C651 0.951 . S
H628 C653 0.951 . S
H629 C655 0.950 . S
H630 C656 0.950 . S
H631 C658 0.950 . S
H632 C661 0.950 . S
H633 C662 0.950 . S
H634 C664 0.950 . S
H635 C665 0.950 . S
C636 H618 0.951 . S
C636 C637 1.366 . S
C636 C638 1.388 . S
C637 C636 1.366 . S
C637 C641 1.385 . S
C638 H619 0.951 . S
C638 C636 1.388 . S
C638 C639 1.366 . S
C639 C638 1.366 . S
C639 C640 1.414 . S
C639 C642 1.499 . S
C640 H620 0.950 . S
C640 C639 1.414 . S
C640 C641 1.374 . S
C641 H621 0.950 . S
C641 C637 1.385 . S
C641 C640 1.374 . S
C642 C639 1.499 . S
C642 C643 1.373 . S
C642 C644 1.389 . S
C643 H622 0.950 . S
C643 C642 1.373 . S
C643 C659 1.377 . S
C644 C642 1.389 . S
C644 C645 1.524 . S
C644 C658 1.377 . S
C645 C644 1.524 . S
C645 C646 1.397 . S
C645 C650 1.363 . S
C646 H623 0.950 . S
C646 C645 1.397 . S
C646 C647 1.334 . S
C647 H624 0.950 . S
C647 C646 1.334 . S
C647 C648 1.287 . S
C648 C647 1.287 . S
C648 C649 1.524 . S
C648 H667 0.913 . S
C649 H625 0.950 . S
C649 C648 1.524 . S
C649 C650 1.415 . S
C650 H626 0.950 . S
C650 C645 1.363 . S
C650 C649 1.415 . S
C651 H627 0.951 . S
C651 C652 1.366 . S
C651 C653 1.388 1_556 S
C652 C651 1.366 . S
C652 C656 1.385 . S
C653 H628 0.951 . S
C653 C651 1.388 1_554 S
C653 C654 1.366 . S
C654 C653 1.366 . S
C654 C655 1.414 . S
C654 C657 1.499 . S
C655 H629 0.950 . S
C655 C654 1.414 . S
C655 C656 1.374 1_554 S
C656 H630 0.950 . S
C656 C652 1.385 . S
C656 C655 1.374 1_556 S
C657 C654 1.499 . S
C657 C658 1.373 . S
C657 C659 1.389 . S
C658 H631 0.950 . S
C658 C644 1.377 . S
C658 C657 1.373 . S
C659 C643 1.377 . S
C659 C657 1.389 . S
C659 C660 1.524 . S
C660 C659 1.524 . S
C660 C661 1.397 . S
C660 C665 1.363 . S
C661 H632 0.950 . S
C661 C660 1.397 . S
C661 C662 1.334 . S
C662 H633 0.950 . S
C662 C661 1.334 . S
C662 C663 1.287 . S
C663 C662 1.287 . S
C663 C664 1.524 . S
C663 H666 0.999 . S
C664 H634 0.950 . S
C664 C663 1.524 . S
C664 C665 1.415 . S
C665 H635 0.950 . S
C665 C660 1.363 . S
C665 C664 1.415 . S
H666 C663 0.999 . S
H667 C648 0.913 . S
H668 C686 0.951 . S
H669 C688 0.951 . S
H670 C690 0.950 . S
H671 C691 0.950 . S
H672 C693 0.950 . S
H673 C696 0.950 . S
H674 C697 0.950 . S
H675 C699 0.950 . S
H676 C700 0.950 . S
H677 C701 0.951 . S
H678 C703 0.951 . S
H679 C705 0.950 . S
H680 C706 0.950 . S
H681 C708 0.950 . S
H682 C711 0.950 . S
H683 C712 0.950 . S
H684 C714 0.950 . S
H685 C715 0.950 . S
C686 H668 0.951 . S
C686 C687 1.366 . S
C686 C688 1.388 . S
C687 C686 1.366 . S
C687 C691 1.385 . S
C688 H669 0.951 . S
C688 C686 1.388 . S
C688 C689 1.366 . S
C689 C688 1.366 . S
C689 C690 1.414 . S
C689 C692 1.499 . S
C690 H670 0.950 . S
C690 C689 1.414 . S
C690 C691 1.374 . S
C691 H671 0.950 . S
C691 C687 1.385 . S
C691 C690 1.374 . S
C692 C689 1.499 . S
C692 C693 1.373 . S
C692 C694 1.389 . S
C693 H672 0.950 . S
C693 C692 1.373 . S
C693 C709 1.377 . S
C694 C692 1.389 . S
C694 C695 1.524 . S
C694 C708 1.377 . S
C695 C694 1.524 . S
C695 C696 1.397 . S
C695 C700 1.363 . S
C696 H673 0.950 . S
C696 C695 1.397 . S
C696 C697 1.334 . S
C697 H674 0.950 . S
C697 C696 1.334 . S
C697 C698 1.287 . S
C698 C697 1.287 . S
C698 C699 1.524 . S
C698 H717 0.913 . S
C699 H675 0.950 . S
C699 C698 1.524 . S
C699 C700 1.415 . S
C700 H676 0.950 . S
C700 C695 1.363 . S
C700 C699 1.415 . S
C701 H677 0.951 . S
C701 C702 1.366 . S
C701 C703 1.388 . S
C702 C701 1.366 . S
C702 C706 1.385 . S
C703 H678 0.951 . S
C703 C701 1.388 . S
C703 C704 1.366 . S
C704 C703 1.366 . S
C704 C705 1.414 . S
C704 C707 1.499 . S
C705 H679 0.950 . S
C705 C704 1.414 . S
C705 C706 1.374 . S
C706 H680 0.950 . S
C706 C702 1.385 . S
C706 C705 1.374 . S
C707 C704 1.499 . S
C707 C708 1.373 . S
C707 C709 1.389 . S
C708 H681 0.950 . S
C708 C694 1.377 . S
C708 C707 1.373 . S
C709 C693 1.377 . S
C709 C707 1.389 . S
C709 C710 1.524 . S
C710 C709 1.524 . S
C710 C711 1.397 . S
C710 C715 1.363 . S
C711 H682 0.950 . S
C711 C710 1.397 . S
C711 C712 1.334 . S
C712 H683 0.950 . S
C712 C711 1.334 . S
C712 C713 1.287 . S
C713 C712 1.287 . S
C713 C714 1.524 . S
C713 H716 0.999 . S
C714 H684 0.950 . S
C714 C713 1.524 . S
C714 C715 1.415 . S
C715 H685 0.950 . S
C715 C710 1.363 . S
C715 C714 1.415 . S
H716 C713 0.999 . S
H717 C698 0.913 . S
H718 C736 0.951 . S
H719 C738 0.951 . S
H720 C740 0.950 . S
H721 C741 0.950 . S
H722 C743 0.950 . S
H723 C746 0.950 . S
H724 C747 0.950 . S
H725 C749 0.950 . S
H726 C750 0.950 . S
H727 C751 0.951 . S
H728 C753 0.951 . S
H729 C755 0.950 . S
H730 C756 0.950 . S
H731 C758 0.950 . S
H732 C761 0.950 . S
H733 C762 0.950 . S
H734 C764 0.950 . S
H735 C765 0.950 . S
C736 H718 0.951 . S
C736 C737 1.366 . S
C736 C738 1.388 . S
C737 C736 1.366 . S
C737 C741 1.385 . S
C738 H719 0.951 . S
C738 C736 1.388 . S
C738 C739 1.366 . S
C739 C738 1.366 . S
C739 C740 1.414 . S
C739 C742 1.499 . S
C740 H720 0.950 . S
C740 C739 1.414 . S
C740 C741 1.374 . S
C741 H721 0.950 . S
C741 C737 1.385 . S
C741 C740 1.374 . S
C742 C739 1.499 . S
C742 C743 1.373 . S
C742 C744 1.389 . S
C743 H722 0.950 . S
C743 C742 1.373 . S
C743 C759 1.377 . S
C744 C742 1.389 . S
C744 C745 1.524 . S
C744 C758 1.377 . S
C745 C744 1.524 . S
C745 C746 1.397 . S
C745 C750 1.363 . S
C746 H723 0.950 . S
C746 C745 1.397 . S
C746 C747 1.334 . S
C747 H724 0.950 . S
C747 C746 1.334 . S
C747 C748 1.287 . S
C748 C747 1.287 . S
C748 C749 1.524 . S
C748 H767 0.913 . S
C749 H725 0.950 . S
C749 C748 1.524 . S
C749 C750 1.415 . S
C750 H726 0.950 . S
C750 C745 1.363 . S
C750 C749 1.415 . S
C751 H727 0.951 . S
C751 C752 1.366 . S
C751 C753 1.388 . S
C752 C751 1.366 . S
C752 C756 1.385 . S
C753 H728 0.951 . S
C753 C751 1.388 . S
C753 C754 1.366 . S
C754 C753 1.366 . S
C754 C755 1.414 . S
C754 C757 1.499 . S
C755 H729 0.950 . S
C755 C754 1.414 . S
C755 C756 1.374 . S
C756 H730 0.950 . S
C756 C752 1.385 . S
C756 C755 1.374 . S
C757 C754 1.499 . S
C757 C758 1.373 . S
C757 C759 1.389 . S
C758 H731 0.950 . S
C758 C744 1.377 . S
C758 C757 1.373 . S
C759 C743 1.377 . S
C759 C757 1.389 . S
C759 C760 1.524 . S
C760 C759 1.524 . S
C760 C761 1.397 . S
C760 C765 1.363 . S
C761 H732 0.950 . S
C761 C760 1.397 . S
C761 C762 1.334 . S
C762 H733 0.950 . S
C762 C761 1.334 . S
C762 C763 1.287 . S
C763 C762 1.287 . S
C763 C764 1.524 . S
C763 H766 0.999 . S
C764 H734 0.950 . S
C764 C763 1.524 . S
C764 C765 1.415 . S
C765 H735 0.950 . S
C765 C760 1.363 . S
C765 C764 1.415 . S
H766 C763 0.999 . S
H767 C748 0.913 . S
H768 C786 0.951 . S
H769 C788 0.951 . S
H770 C790 0.950 . S
H771 C791 0.950 . S
H772 C793 0.950 . S
H773 C796 0.950 . S
H774 C797 0.950 . S
H775 C799 0.950 . S
H776 C800 0.950 . S
H777 C801 0.951 . S
H778 C803 0.951 . S
H779 C805 0.950 . S
H780 C806 0.950 . S
H781 C808 0.950 . S
H782 C811 0.950 . S
H783 C812 0.950 . S
H784 C814 0.950 . S
H785 C815 0.950 . S
C786 H768 0.951 . S
C786 C787 1.366 . S
C786 C788 1.388 . S
C787 C786 1.366 . S
C787 C791 1.385 . S
C788 H769 0.951 . S
C788 C786 1.388 . S
C788 C789 1.366 . S
C789 C788 1.366 . S
C789 C790 1.414 . S
C789 C792 1.499 . S
C790 H770 0.950 . S
C790 C789 1.414 . S
C790 C791 1.374 . S
C791 H771 0.950 . S
C791 C787 1.385 . S
C791 C790 1.374 . S
C792 C789 1.499 . S
C792 C793 1.373 . S
C792 C794 1.389 . S
C793 H772 0.950 . S
C793 C792 1.373 . S
C793 C809 1.377 1_655 S
C794 C792 1.389 . S
C794 C795 1.524 . S
C794 C808 1.377 1_655 S
C795 C794 1.524 . S
C795 C796 1.397 . S
C795 C800 1.363 1_655 S
C796 H773 0.950 . S
C796 C795 1.397 . S
C796 C797 1.334 . S
C797 H774 0.950 . S
C797 C796 1.334 . S
C797 C798 1.279 . S
C798 C797 1.279 . S
C798 C799 1.530 1_655 S
C798 H817 0.927 . S
C799 H775 0.950 . S
C799 C798 1.530 1_455 S
C799 C800 1.415 . S
C800 H776 0.950 . S
C800 C795 1.363 1_455 S
C800 C799 1.415 . S
C801 H777 0.951 . S
C801 C802 1.366 . S
C801 C803 1.388 . S
C802 C801 1.366 . S
C802 C806 1.385 . S
C803 H778 0.951 . S
C803 C801 1.388 . S
C803 C804 1.366 . S
C804 C803 1.366 . S
C804 C805 1.414 . S
C804 C807 1.499 . S
C805 H779 0.950 . S
C805 C804 1.414 . S
C805 C806 1.374 . S
C806 H780 0.950 . S
C806 C802 1.385 . S
C806 C805 1.374 . S
C807 C804 1.499 . S
C807 C808 1.373 . S
C807 C809 1.389 . S
C808 H781 0.950 . S
C808 C794 1.377 1_455 S
C808 C807 1.373 . S
C809 C793 1.377 1_455 S
C809 C807 1.389 . S
C809 C810 1.524 . S
C810 C809 1.524 . S
C810 C811 1.397 . S
C810 C815 1.363 1_455 S
C811 H782 0.950 . S
C811 C810 1.397 . S
C811 C812 1.334 . S
C812 H783 0.950 . S
C812 C811 1.334 . S
C812 C813 1.279 . S
C813 C812 1.279 . S
C813 C814 1.530 1_455 S
C813 H816 1.001 . S
C814 H784 0.950 . S
C814 C813 1.530 1_655 S
C814 C815 1.415 . S
C815 H785 0.950 . S
C815 C810 1.363 1_655 S
C815 C814 1.415 . S
H816 C813 1.001 . S
H817 C798 0.927 . S
H818 C836 0.951 . S
H819 C838 0.951 . S
H820 C840 0.950 . S
H821 C841 0.950 . S
H822 C843 0.950 . S
H823 C846 0.950 . S
H824 C847 0.950 . S
H825 C849 0.950 . S
H826 C850 0.950 . S
H827 C851 0.951 . S
H828 C853 0.951 . S
H829 C855 0.950 . S
H830 C856 0.950 . S
H831 C858 0.950 . S
H832 C861 0.950 . S
H833 C862 0.950 . S
H834 C864 0.950 . S
H835 C865 0.950 . S
C836 H818 0.951 . S
C836 C837 1.366 . S
C836 C838 1.388 . S
C837 C836 1.366 . S
C837 C841 1.385 . S
C838 H819 0.951 . S
C838 C836 1.388 . S
C838 C839 1.366 . S
C839 C838 1.366 . S
C839 C840 1.414 . S
C839 C842 1.499 . S
C840 H820 0.950 . S
C840 C839 1.414 . S
C840 C841 1.374 . S
C841 H821 0.950 . S
C841 C837 1.385 . S
C841 C840 1.374 . S
C842 C839 1.499 . S
C842 C843 1.373 . S
C842 C844 1.389 . S
C843 H822 0.950 . S
C843 C842 1.373 . S
C843 C859 1.377 1_565 S
C844 C842 1.389 . S
C844 C845 1.524 . S
C844 C858 1.377 1_565 S
C845 C844 1.524 . S
C845 C846 1.397 . S
C845 C850 1.363 . S
C846 H823 0.950 . S
C846 C845 1.397 . S
C846 C847 1.334 . S
C847 H824 0.950 . S
C847 C846 1.334 . S
C847 C848 1.287 . S
C848 C847 1.287 . S
C848 C849 1.524 . S
C848 H867 0.913 . S
C849 H825 0.950 . S
C849 C848 1.524 . S
C849 C850 1.415 . S
C850 H826 0.950 . S
C850 C845 1.363 . S
C850 C849 1.415 . S
C851 H827 0.951 . S
C851 C852 1.366 . S
C851 C853 1.388 . S
C852 C851 1.366 . S
C852 C856 1.385 . S
C853 H828 0.951 . S
C853 C851 1.388 . S
C853 C854 1.366 . S
C854 C853 1.366 . S
C854 C855 1.414 . S
C854 C857 1.499 . S
C855 H829 0.950 . S
C855 C854 1.414 . S
C855 C856 1.374 . S
C856 H830 0.950 . S
C856 C852 1.385 . S
C856 C855 1.374 . S
C857 C854 1.499 . S
C857 C858 1.373 . S
C857 C859 1.389 . S
C858 H831 0.950 . S
C858 C844 1.377 1_545 S
C858 C857 1.373 . S
C859 C843 1.377 1_545 S
C859 C857 1.389 . S
C859 C860 1.524 . S
C860 C859 1.524 . S
C860 C861 1.397 . S
C860 C865 1.363 . S
C861 H832 0.950 . S
C861 C860 1.397 . S
C861 C862 1.334 . S
C862 H833 0.950 . S
C862 C861 1.334 . S
C862 C863 1.287 . S
C863 C862 1.287 . S
C863 C864 1.524 . S
C863 H866 0.999 . S
C864 H834 0.950 . S
C864 C863 1.524 . S
C864 C865 1.415 . S
C865 H835 0.950 . S
C865 C860 1.363 . S
C865 C864 1.415 . S
H866 C863 0.999 . S
H867 C848 0.913 . S
H868 C886 0.951 . S
H869 C888 0.951 . S
H870 C890 0.950 . S
H871 C891 0.950 . S
H872 C893 0.950 . S
H873 C896 0.950 . S
H874 C897 0.950 . S
H875 C899 0.950 . S
H876 C900 0.950 . S
H877 C901 0.951 . S
H878 C903 0.951 . S
H879 C905 0.950 . S
H880 C906 0.950 . S
H881 C908 0.950 . S
H882 C911 0.950 . S
H883 C912 0.950 . S
H884 C914 0.950 . S
H885 C915 0.950 . S
C886 H868 0.951 . S
C886 C887 1.366 . S
C886 C888 1.388 . S
C887 C886 1.366 . S
C887 C891 1.385 . S
C888 H869 0.951 . S
C888 C886 1.388 . S
C888 C889 1.366 . S
C889 C888 1.366 . S
C889 C890 1.414 . S
C889 C892 1.499 . S
C890 H870 0.950 . S
C890 C889 1.414 . S
C890 C891 1.374 . S
C891 H871 0.950 . S
C891 C887 1.385 . S
C891 C890 1.374 . S
C892 C889 1.499 . S
C892 C893 1.373 . S
C892 C894 1.389 . S
C893 H872 0.950 . S
C893 C892 1.373 . S
C893 C909 1.377 . S
C894 C892 1.389 . S
C894 C895 1.524 . S
C894 C908 1.377 . S
C895 C894 1.524 . S
C895 C896 1.397 . S
C895 C900 1.363 . S
C896 H873 0.950 . S
C896 C895 1.397 . S
C896 C897 1.334 . S
C897 H874 0.950 . S
C897 C896 1.334 . S
C897 C898 1.287 . S
C898 C897 1.287 . S
C898 C899 1.524 . S
C898 H917 0.913 . S
C899 H875 0.950 . S
C899 C898 1.524 . S
C899 C900 1.415 . S
C900 H876 0.950 . S
C900 C895 1.363 . S
C900 C899 1.415 . S
C901 H877 0.951 . S
C901 C902 1.366 . S
C901 C903 1.388 . S
C902 C901 1.366 . S
C902 C906 1.385 . S
C903 H878 0.951 . S
C903 C901 1.388 . S
C903 C904 1.366 . S
C904 C903 1.366 . S
C904 C905 1.414 . S
C904 C907 1.499 . S
C905 H879 0.950 . S
C905 C904 1.414 . S
C905 C906 1.374 . S
C906 H880 0.950 . S
C906 C902 1.385 . S
C906 C905 1.374 . S
C907 C904 1.499 . S
C907 C908 1.373 . S
C907 C909 1.389 . S
C908 H881 0.950 . S
C908 C894 1.377 . S
C908 C907 1.373 . S
C909 C893 1.377 . S
C909 C907 1.389 . S
C909 C910 1.524 . S
C910 C909 1.524 . S
C910 C911 1.397 . S
C910 C915 1.363 . S
C911 H882 0.950 . S
C911 C910 1.397 . S
C911 C912 1.334 . S
C912 H883 0.950 . S
C912 C911 1.334 . S
C912 C913 1.287 . S
C913 C912 1.287 . S
C913 C914 1.524 . S
C913 H916 0.999 . S
C914 H884 0.950 . S
C914 C913 1.524 . S
C914 C915 1.415 . S
C915 H885 0.950 . S
C915 C910 1.363 . S
C915 C914 1.415 . S
H916 C913 0.999 . S
H917 C898 0.913 . S
H918 C936 0.951 . S
H919 C938 0.951 . S
H920 C940 0.950 . S
H921 C941 0.950 . S
H922 C943 0.950 . S
H923 C946 0.950 . S
H924 C947 0.950 . S
H925 C949 0.950 . S
H926 C950 0.950 . S
H927 C951 0.951 . S
H928 C953 0.951 . S
H929 C955 0.950 . S
H930 C956 0.950 . S
H931 C958 0.950 . S
H932 C961 0.950 . S
H933 C962 0.950 . S
H934 C964 0.950 . S
H935 C965 0.950 . S
C936 H918 0.951 . S
C936 C937 1.366 . S
C936 C938 1.388 . S
C937 C936 1.366 . S
C937 C941 1.385 . S
C938 H919 0.951 . S
C938 C936 1.388 . S
C938 C939 1.366 . S
C939 C938 1.366 . S
C939 C940 1.414 . S
C939 C942 1.499 . S
C940 H920 0.950 . S
C940 C939 1.414 . S
C940 C941 1.374 . S
C941 H921 0.950 . S
C941 C937 1.385 . S
C941 C940 1.374 . S
C942 C939 1.499 . S
C942 C943 1.373 . S
C942 C944 1.389 . S
C943 H922 0.950 . S
C943 C942 1.373 . S
C943 C959 1.377 1_455 S
C944 C942 1.389 . S
C944 C945 1.524 . S
C944 C958 1.377 1_455 S
C945 C944 1.524 . S
C945 C946 1.397 . S
C945 C950 1.363 1_455 S
C946 H923 0.950 . S
C946 C945 1.397 . S
C946 C947 1.334 . S
C947 H924 0.950 . S
C947 C946 1.334 . S
C947 C948 1.287 . S
C948 C947 1.287 . S
C948 C949 1.524 1_455 S
C948 H967 0.913 . S
C949 H925 0.950 . S
C949 C948 1.524 1_655 S
C949 C950 1.415 . S
C950 H926 0.950 . S
C950 C945 1.363 1_655 S
C950 C949 1.415 . S
C951 H927 0.951 . S
C951 C952 1.366 . S
C951 C953 1.388 . S
C952 C951 1.366 . S
C952 C956 1.385 . S
C953 H928 0.951 . S
C953 C951 1.388 . S
C953 C954 1.366 . S
C954 C953 1.366 . S
C954 C955 1.414 . S
C954 C957 1.499 . S
C955 H929 0.950 . S
C955 C954 1.414 . S
C955 C956 1.374 . S
C956 H930 0.950 . S
C956 C952 1.385 . S
C956 C955 1.374 . S
C957 C954 1.499 . S
C957 C958 1.373 . S
C957 C959 1.389 . S
C958 H931 0.950 . S
C958 C944 1.377 1_655 S
C958 C957 1.373 . S
C959 C943 1.377 1_655 S
C959 C957 1.389 . S
C959 C960 1.524 . S
C960 C959 1.524 . S
C960 C961 1.397 . S
C960 C965 1.363 1_655 S
C961 H932 0.950 . S
C961 C960 1.397 . S
C961 C962 1.334 . S
C962 H933 0.950 . S
C962 C961 1.334 . S
C962 C963 1.287 . S
C963 C962 1.287 . S
C963 C964 1.524 1_655 S
C963 H966 0.999 . S
C964 H934 0.950 . S
C964 C963 1.524 1_455 S
C964 C965 1.415 . S
C965 H935 0.950 . S
C965 C960 1.363 1_455 S
C965 C964 1.415 . S
H966 C963 0.999 . S
H967 C948 0.913 . S
H968 C986 0.951 . S
H969 C988 0.951 . S
H970 C990 0.950 . S
H971 C991 0.950 . S
H972 C993 0.950 . S
H973 C996 0.950 . S
H974 C997 0.950 . S
H975 C999 0.950 . S
H976 C1000 0.950 . S
H977 C1001 0.951 . S
H978 C1003 0.951 . S
H979 C1005 0.950 . S
H980 C1006 0.950 . S
H981 C1008 0.950 . S
H982 C1011 0.950 . S
H983 C1012 0.950 . S
H984 C1014 0.950 . S
H985 C1015 0.950 . S
C986 H968 0.951 . S
C986 C987 1.366 . S
C986 C988 1.388 . S
C987 C986 1.366 . S
C987 C991 1.385 . S
C988 H969 0.951 . S
C988 C986 1.388 . S
C988 C989 1.366 . S
C989 C988 1.366 . S
C989 C990 1.414 . S
C989 C992 1.499 . S
C990 H970 0.950 . S
C990 C989 1.414 . S
C990 C991 1.374 . S
C991 H971 0.950 . S
C991 C987 1.385 . S
C991 C990 1.374 . S
C992 C989 1.499 . S
C992 C993 1.373 1_556 S
C992 C994 1.389 . S
C993 H972 0.950 . S
C993 C992 1.373 1_554 S
C993 C1009 1.377 1_545 S
C994 C992 1.389 . S
C994 C995 1.524 . S
C994 C1008 1.377 1_545 S
C995 C994 1.524 . S
C995 C996 1.397 . S
C995 C1000 1.363 1_545 S
C996 H973 0.950 . S
C996 C995 1.397 . S
C996 C997 1.334 . S
C997 H974 0.950 . S
C997 C996 1.334 . S
C997 C998 1.287 . S
C998 C997 1.287 . S
C998 C999 1.524 1_545 S
C998 H1017 0.913 . S
C999 H975 0.950 . S
C999 C998 1.524 1_565 S
C999 C1000 1.415 . S
C1000 H976 0.950 . S
C1000 C995 1.363 1_565 S
C1000 C999 1.415 . S
C1001 H977 0.951 . S
C1001 C1002 1.366 . S
C1001 C1003 1.388 . S
C1002 C1001 1.366 . S
C1002 C1006 1.385 . S
C1003 H978 0.951 . S
C1003 C1001 1.388 . S
C1003 C1004 1.366 . S
C1004 C1003 1.366 . S
C1004 C1005 1.414 . S
C1004 C1007 1.499 . S
C1005 H979 0.950 . S
C1005 C1004 1.414 . S
C1005 C1006 1.374 . S
C1006 H980 0.950 . S
C1006 C1002 1.385 . S
C1006 C1005 1.374 . S
C1007 C1004 1.499 . S
C1007 C1008 1.373 1_554 S
C1007 C1009 1.389 . S
C1008 H981 0.950 . S
C1008 C994 1.377 1_565 S
C1008 C1007 1.373 1_556 S
C1009 C993 1.377 1_565 S
C1009 C1007 1.389 . S
C1009 C1010 1.524 . S
C1010 C1009 1.524 . S
C1010 C1011 1.397 . S
C1010 C1015 1.363 1_565 S
C1011 H982 0.950 . S
C1011 C1010 1.397 . S
C1011 C1012 1.334 . S
C1012 H983 0.950 . S
C1012 C1011 1.334 . S
C1012 C1013 1.287 . S
C1013 C1012 1.287 . S
C1013 C1014 1.524 1_565 S
C1013 H1016 1.012 . S
C1014 H984 0.950 . S
C1014 C1013 1.524 1_545 S
C1014 C1015 1.415 . S
C1015 H985 0.950 . S
C1015 C1010 1.363 1_545 S
C1015 C1014 1.415 . S
H1016 C1013 1.012 . S
H1017 C998 0.913 . S
H1018 C1036 0.951 . S
H1019 C1038 0.951 . S
H1020 C1040 0.950 . S
H1021 C1041 0.950 . S
H1022 C1043 0.950 . S
H1023 C1046 0.950 . S
H1024 C1047 0.950 . S
H1025 C1049 0.950 . S
H1026 C1050 0.950 . S
H1027 C1051 0.951 . S
H1028 C1053 0.951 . S
H1029 C1055 0.950 . S
H1030 C1056 0.950 . S
H1031 C1058 0.950 . S
H1032 C1061 0.950 . S
H1033 C1062 0.950 . S
H1034 C1064 0.950 . S
H1035 C1065 0.950 . S
C1036 H1018 0.951 . S
C1036 C1037 1.366 . S
C1036 C1038 1.388 . S
C1037 C1036 1.366 . S
C1037 C1041 1.385 . S
C1038 H1019 0.951 . S
C1038 C1036 1.388 . S
C1038 C1039 1.366 . S
C1039 C1038 1.366 . S
C1039 C1040 1.414 . S
C1039 C1042 1.499 . S
C1040 H1020 0.950 . S
C1040 C1039 1.414 . S
C1040 C1041 1.374 . S
C1041 H1021 0.950 . S
C1041 C1037 1.385 . S
C1041 C1040 1.374 . S
C1042 C1039 1.499 . S
C1042 C1043 1.373 . S
C1042 C1044 1.389 . S
C1043 H1022 0.950 . S
C1043 C1042 1.373 . S
C1043 C1059 1.377 . S
C1044 C1042 1.389 . S
C1044 C1045 1.524 . S
C1044 C1058 1.377 . S
C1045 C1044 1.524 . S
C1045 C1046 1.397 . S
C1045 C1050 1.363 . S
C1046 H1023 0.950 . S
C1046 C1045 1.397 . S
C1046 C1047 1.334 . S
C1047 H1024 0.950 . S
C1047 C1046 1.334 . S
C1047 C1048 1.287 . S
C1048 C1047 1.287 . S
C1048 C1049 1.524 . S
C1048 H1067 0.913 . S
C1049 H1025 0.950 . S
C1049 C1048 1.524 . S
C1049 C1050 1.415 . S
C1050 H1026 0.950 . S
C1050 C1045 1.363 . S
C1050 C1049 1.415 . S
C1051 H1027 0.951 . S
C1051 C1052 1.366 . S
C1051 C1053 1.388 . S
C1052 C1051 1.366 . S
C1052 C1056 1.385 . S
C1053 H1028 0.951 . S
C1053 C1051 1.388 . S
C1053 C1054 1.366 . S
C1054 C1053 1.366 . S
C1054 C1055 1.414 . S
C1054 C1057 1.499 . S
C1055 H1029 0.950 . S
C1055 C1054 1.414 . S
C1055 C1056 1.374 . S
C1056 H1030 0.950 . S
C1056 C1052 1.385 . S
C1056 C1055 1.374 . S
C1057 C1054 1.499 . S
C1057 C1058 1.373 . S
C1057 C1059 1.389 . S
C1058 H1031 0.950 . S
C1058 C1044 1.377 . S
C1058 C1057 1.373 . S
C1059 C1043 1.377 . S
C1059 C1057 1.389 . S
C1059 C1060 1.524 . S
C1060 C1059 1.524 . S
C1060 C1061 1.397 . S
C1060 C1065 1.363 . S
C1061 H1032 0.950 . S
C1061 C1060 1.397 . S
C1061 C1062 1.334 . S
C1062 H1033 0.950 . S
C1062 C1061 1.334 . S
C1062 C1063 1.287 . S
C1063 C1062 1.287 . S
C1063 C1064 1.524 . S
C1063 H1066 0.999 . S
C1064 H1034 0.950 . S
C1064 C1063 1.524 . S
C1064 C1065 1.415 . S
C1065 H1035 0.950 . S
C1065 C1060 1.363 . S
C1065 C1064 1.415 . S
H1066 C1063 0.999 . S
H1067 C1048 0.913 . S
H1068 C1086 0.951 . S
H1069 C1088 0.951 . S
H1070 C1090 0.950 . S
H1071 C1091 0.950 . S
H1072 C1093 0.950 . S
H1073 C1096 0.950 . S
H1074 C1097 0.950 . S
H1075 C1099 0.950 . S
H1076 C1100 0.950 . S
H1077 C1101 0.951 . S
H1078 C1103 0.951 . S
H1079 C1105 0.950 . S
H1080 C1106 0.950 . S
H1081 C1108 0.950 . S
H1082 C1111 0.950 . S
H1083 C1112 0.950 . S
H1084 C1114 0.950 . S
H1085 C1115 0.950 . S
C1086 H1068 0.951 . S
C1086 C1087 1.366 . S
C1086 C1088 1.388 . S
C1087 C1086 1.366 . S
C1087 C1091 1.385 . S
C1088 H1069 0.951 . S
C1088 C1086 1.388 . S
C1088 C1089 1.366 . S
C1089 C1088 1.366 . S
C1089 C1090 1.414 . S
C1089 C1092 1.499 . S
C1090 H1070 0.950 . S
C1090 C1089 1.414 . S
C1090 C1091 1.374 . S
C1091 H1071 0.950 . S
C1091 C1087 1.385 . S
C1091 C1090 1.374 . S
C1092 C1089 1.499 . S
C1092 C1093 1.373 . S
C1092 C1094 1.389 . S
C1093 H1072 0.950 . S
C1093 C1092 1.373 . S
C1093 C1109 1.377 . S
C1094 C1092 1.389 . S
C1094 C1095 1.524 . S
C1094 C1108 1.377 . S
C1095 C1094 1.524 . S
C1095 C1096 1.397 . S
C1095 C1100 1.363 . S
C1096 H1073 0.950 . S
C1096 C1095 1.397 . S
C1096 C1097 1.334 . S
C1097 H1074 0.950 . S
C1097 C1096 1.334 . S
C1097 C1098 1.287 . S
C1098 C1097 1.287 . S
C1098 C1099 1.524 . S
C1098 H1117 0.913 . S
C1099 H1075 0.950 . S
C1099 C1098 1.524 . S
C1099 C1100 1.415 . S
C1100 H1076 0.950 . S
C1100 C1095 1.363 . S
C1100 C1099 1.415 . S
C1101 H1077 0.951 . S
C1101 C1102 1.366 . S
C1101 C1103 1.388 . S
C1102 C1101 1.366 . S
C1102 C1106 1.385 . S
C1103 H1078 0.951 . S
C1103 C1101 1.388 . S
C1103 C1104 1.366 . S
C1104 C1103 1.366 . S
C1104 C1105 1.414 . S
C1104 C1107 1.499 . S
C1105 H1079 0.950 . S
C1105 C1104 1.414 . S
C1105 C1106 1.374 . S
C1106 H1080 0.950 . S
C1106 C1102 1.385 . S
C1106 C1105 1.374 . S
C1107 C1104 1.499 . S
C1107 C1108 1.373 . S
C1107 C1109 1.389 . S
C1108 H1081 0.950 . S
C1108 C1094 1.377 . S
C1108 C1107 1.373 . S
C1109 C1093 1.377 . S
C1109 C1107 1.389 . S
C1109 C1110 1.524 . S
C1110 C1109 1.524 . S
C1110 C1111 1.397 . S
C1110 C1115 1.363 . S
C1111 H1082 0.950 . S
C1111 C1110 1.397 . S
C1111 C1112 1.334 . S
C1112 H1083 0.950 . S
C1112 C1111 1.334 . S
C1112 C1113 1.287 . S
C1113 C1112 1.287 . S
C1113 C1114 1.524 . S
C1113 H1116 0.999 . S
C1114 H1084 0.950 . S
C1114 C1113 1.524 . S
C1114 C1115 1.415 . S
C1115 H1085 0.950 . S
C1115 C1110 1.363 . S
C1115 C1114 1.415 . S
H1116 C1113 0.999 . S
H1117 C1098 0.913 . S
H1118 C1136 0.951 . S
H1119 C1138 0.951 . S
H1120 C1140 0.950 . S
H1121 C1141 0.950 . S
H1122 C1143 0.950 . S
H1123 C1146 0.950 . S
H1124 C1147 0.950 . S
H1125 C1149 0.950 . S
H1126 C1150 0.950 . S
H1127 C1151 0.951 . S
H1128 C1153 0.951 . S
H1129 C1155 0.950 . S
H1130 C1156 0.950 . S
H1131 C1158 0.950 . S
H1132 C1161 0.950 . S
H1133 C1162 0.950 . S
H1134 C1164 0.950 . S
H1135 C1165 0.950 . S
C1136 H1118 0.951 . S
C1136 C1137 1.366 . S
C1136 C1138 1.388 . S
C1137 C1136 1.366 . S
C1137 C1141 1.385 . S
C1138 H1119 0.951 . S
C1138 C1136 1.388 . S
C1138 C1139 1.366 . S
C1139 C1138 1.366 . S
C1139 C1140 1.414 . S
C1139 C1142 1.499 . S
C1140 H1120 0.950 . S
C1140 C1139 1.414 . S
C1140 C1141 1.374 . S
C1141 H1121 0.950 . S
C1141 C1137 1.385 . S
C1141 C1140 1.374 . S
C1142 C1139 1.499 . S
C1142 C1143 1.373 . S
C1142 C1144 1.389 . S
C1143 H1122 0.950 . S
C1143 C1142 1.373 . S
C1143 C1159 1.377 . S
C1144 C1142 1.389 . S
C1144 C1145 1.524 . S
C1144 C1158 1.377 . S
C1145 C1144 1.524 . S
C1145 C1146 1.397 . S
C1145 C1150 1.363 . S
C1146 H1123 0.950 . S
C1146 C1145 1.397 . S
C1146 C1147 1.334 . S
C1147 H1124 0.950 . S
C1147 C1146 1.334 . S
C1147 C1148 1.287 . S
C1148 C1147 1.287 . S
C1148 C1149 1.524 . S
C1148 H1167 0.913 . S
C1149 H1125 0.950 . S
C1149 C1148 1.524 . S
C1149 C1150 1.415 . S
C1150 H1126 0.950 . S
C1150 C1145 1.363 . S
C1150 C1149 1.415 . S
C1151 H1127 0.951 . S
C1151 C1152 1.366 . S
C1151 C1153 1.388 . S
C1152 C1151 1.366 . S
C1152 C1156 1.385 . S
C1153 H1128 0.951 . S
C1153 C1151 1.388 . S
C1153 C1154 1.366 . S
C1154 C1153 1.366 . S
C1154 C1155 1.414 . S
C1154 C1157 1.499 . S
C1155 H1129 0.950 . S
C1155 C1154 1.414 . S
C1155 C1156 1.374 . S
C1156 H1130 0.950 . S
C1156 C1152 1.385 . S
C1156 C1155 1.374 . S
C1157 C1154 1.499 . S
C1157 C1158 1.373 . S
C1157 C1159 1.389 . S
C1158 H1131 0.950 . S
C1158 C1144 1.377 . S
C1158 C1157 1.373 . S
C1159 C1143 1.377 . S
C1159 C1157 1.389 . S
C1159 C1160 1.524 . S
C1160 C1159 1.524 . S
C1160 C1161 1.397 . S
C1160 C1165 1.363 . S
C1161 H1132 0.950 . S
C1161 C1160 1.397 . S
C1161 C1162 1.334 . S
C1162 H1133 0.950 . S
C1162 C1161 1.334 . S
C1162 C1163 1.287 . S
C1163 C1162 1.287 . S
C1163 C1164 1.524 . S
C1163 H1166 0.999 . S
C1164 H1134 0.950 . S
C1164 C1163 1.524 . S
C1164 C1165 1.415 . S
C1165 H1135 0.950 . S
C1165 C1160 1.363 . S
C1165 C1164 1.415 . S
H1166 C1163 0.999 . S
H1167 C1148 0.913 . S
H1168 C1186 0.951 . S
H1169 C1188 0.951 . S
H1170 C1190 0.950 . S
H1171 C1191 0.950 . S
H1172 C1193 0.950 . S
H1173 C1196 0.950 . S
H1174 C1197 0.950 . S
H1175 C1199 0.950 . S
H1176 C1200 0.950 . S
H1177 C1201 0.951 . S
H1178 C1203 0.951 . S
H1179 C1205 0.950 . S
H1180 C1206 0.950 . S
H1181 C1208 0.950 . S
H1182 C1211 0.950 . S
H1183 C1212 0.950 . S
H1184 C1214 0.950 . S
H1185 C1215 0.950 . S
C1186 H1168 0.951 . S
C1186 C1187 1.366 . S
C1186 C1188 1.388 . S
C1187 C1186 1.366 . S
C1187 C1191 1.385 . S
C1188 H1169 0.951 . S
C1188 C1186 1.388 . S
C1188 C1189 1.366 . S
C1189 C1188 1.366 . S
C1189 C1190 1.414 . S
C1189 C1192 1.499 . S
C1190 H1170 0.950 . S
C1190 C1189 1.414 . S
C1190 C1191 1.374 . S
C1191 H1171 0.950 . S
C1191 C1187 1.385 . S
C1191 C1190 1.374 . S
C1192 C1189 1.499 . S
C1192 C1193 1.373 . S
C1192 C1194 1.389 . S
C1193 H1172 0.950 . S
C1193 C1192 1.373 . S
C1193 C1209 1.377 . S
C1194 C1192 1.389 . S
C1194 C1195 1.524 . S
C1194 C1208 1.377 . S
C1195 C1194 1.524 . S
C1195 C1196 1.397 . S
C1195 C1200 1.363 . S
C1196 H1173 0.950 . S
C1196 C1195 1.397 . S
C1196 C1197 1.334 . S
C1197 H1174 0.950 . S
C1197 C1196 1.334 . S
C1197 C1198 1.287 . S
C1198 C1197 1.287 . S
C1198 C1199 1.524 . S
C1198 H1217 0.913 . S
C1199 H1175 0.950 . S
C1199 C1198 1.524 . S
C1199 C1200 1.415 . S
C1200 H1176 0.950 . S
C1200 C1195 1.363 . S
C1200 C1199 1.415 . S
C1201 H1177 0.951 . S
C1201 C1202 1.366 . S
C1201 C1203 1.388 . S
C1202 C1201 1.366 . S
C1202 C1206 1.385 . S
C1203 H1178 0.951 . S
C1203 C1201 1.388 . S
C1203 C1204 1.366 . S
C1204 C1203 1.366 . S
C1204 C1205 1.414 . S
C1204 C1207 1.499 . S
C1205 H1179 0.950 . S
C1205 C1204 1.414 . S
C1205 C1206 1.374 . S
C1206 H1180 0.950 . S
C1206 C1202 1.385 . S
C1206 C1205 1.374 . S
C1207 C1204 1.499 . S
C1207 C1208 1.373 . S
C1207 C1209 1.389 . S
C1208 H1181 0.950 . S
C1208 C1194 1.377 . S
C1208 C1207 1.373 . S
C1209 C1193 1.377 . S
C1209 C1207 1.389 . S
C1209 C1210 1.524 . S
C1210 C1209 1.524 . S
C1210 C1211 1.397 . S
C1210 C1215 1.363 . S
C1211 H1182 0.950 . S
C1211 C1210 1.397 . S
C1211 C1212 1.334 . S
C1212 H1183 0.950 . S
C1212 C1211 1.334 . S
C1212 C1213 1.287 . S
C1213 C1212 1.287 . S
C1213 C1214 1.524 . S
C1213 H1216 0.999 . S
C1214 H1184 0.950 . S
C1214 C1213 1.524 . S
C1214 C1215 1.415 . S
C1215 H1185 0.950 . S
C1215 C1210 1.363 . S
C1215 C1214 1.415 . S
H1216 C1213 0.999 . S
H1217 C1198 0.913 . S
H1218 C1236 0.951 . S
H1219 C1238 0.951 . S
H1220 C1240 0.950 . S
H1221 C1241 0.950 . S
H1222 C1243 0.950 . S
H1223 C1246 0.950 . S
H1224 C1247 0.950 . S
H1225 C1249 0.950 . S
H1226 C1250 0.950 . S
H1227 C1251 0.951 . S
H1228 C1253 0.951 . S
H1229 C1255 0.950 . S
H1230 C1256 0.950 . S
H1231 C1258 0.950 . S
H1232 C1261 0.950 . S
H1233 C1262 0.950 . S
H1234 C1264 0.950 . S
H1235 C1265 0.950 . S
C1236 H1218 0.951 . S
C1236 C1237 1.366 . S
C1236 C1238 1.388 . S
C1237 C1236 1.366 . S
C1237 C1241 1.385 . S
C1238 H1219 0.951 . S
C1238 C1236 1.388 . S
C1238 C1239 1.366 . S
C1239 C1238 1.366 . S
C1239 C1240 1.414 . S
C1239 C1242 1.499 . S
C1240 H1220 0.950 . S
C1240 C1239 1.414 . S
C1240 C1241 1.374 . S
C1241 H1221 0.950 . S
C1241 C1237 1.385 . S
C1241 C1240 1.374 . S
C1242 C1239 1.499 . S
C1242 C1243 1.373 . S
C1242 C1244 1.389 . S
C1243 H1222 0.950 . S
C1243 C1242 1.373 . S
C1243 C1259 1.377 . S
C1244 C1242 1.389 . S
C1244 C1245 1.524 . S
C1244 C1258 1.377 . S
C1245 C1244 1.524 . S
C1245 C1246 1.397 . S
C1245 C1250 1.363 . S
C1246 H1223 0.950 . S
C1246 C1245 1.397 . S
C1246 C1247 1.334 . S
C1247 H1224 0.950 . S
C1247 C1246 1.334 . S
C1247 C1248 1.287 . S
C1248 C1247 1.287 . S
C1248 C1249 1.524 . S
C1248 H1267 0.913 . S
C1249 H1225 0.950 . S
C1249 C1248 1.524 . S
C1249 C1250 1.415 . S
C1250 H1226 0.950 . S
C1250 C1245 1.363 . S
C1250 C1249 1.415 . S
C1251 H1227 0.951 . S
C1251 C1252 1.366 . S
C1251 C1253 1.388 . S
C1252 C1251 1.366 . S
C1252 C1256 1.385 . S
C1253 H1228 0.951 . S
C1253 C1251 1.388 . S
C1253 C1254 1.366 . S
C1254 C1253 1.366 . S
C1254 C1255 1.414 . S
C1254 C1257 1.499 . S
C1255 H1229 0.950 . S
C1255 C1254 1.414 . S
C1255 C1256 1.374 . S
C1256 H1230 0.950 . S
C1256 C1252 1.385 . S
C1256 C1255 1.374 . S
C1257 C1254 1.499 . S
C1257 C1258 1.373 . S
C1257 C1259 1.389 . S
C1258 H1231 0.950 . S
C1258 C1244 1.377 . S
C1258 C1257 1.373 . S
C1259 C1243 1.377 . S
C1259 C1257 1.389 . S
C1259 C1260 1.524 . S
C1260 C1259 1.524 . S
C1260 C1261 1.397 . S
C1260 C1265 1.363 . S
C1261 H1232 0.950 . S
C1261 C1260 1.397 . S
C1261 C1262 1.334 . S
C1262 H1233 0.950 . S
C1262 C1261 1.334 . S
C1262 C1263 1.287 . S
C1263 C1262 1.287 . S
C1263 C1264 1.524 . S
C1263 H1266 0.999 . S
C1264 H1234 0.950 . S
C1264 C1263 1.524 . S
C1264 C1265 1.415 . S
C1265 H1235 0.950 . S
C1265 C1260 1.363 . S
C1265 C1264 1.415 . S
H1266 C1263 0.999 . S
H1267 C1248 0.913 . S
H1268 C1286 0.951 . S
H1269 C1288 0.951 . S
H1270 C1290 0.950 . S
H1271 C1291 0.950 . S
H1272 C1293 0.950 . S
H1273 C1296 0.950 . S
H1274 C1297 0.950 . S
H1275 C1299 0.950 . S
H1276 C1300 0.950 . S
H1277 C1301 0.951 . S
H1278 C1303 0.951 . S
H1279 C1305 0.950 . S
H1280 C1306 0.950 . S
H1281 C1308 0.950 . S
H1282 C1311 0.950 . S
H1283 C1312 0.950 . S
H1284 C1314 0.950 . S
H1285 C1315 0.950 . S
C1286 H1268 0.951 . S
C1286 C1287 1.360 1_556 S
C1286 C1288 1.388 . S
C1287 C1286 1.360 1_554 S
C1287 C1291 1.386 . S
C1288 H1269 0.951 . S
C1288 C1286 1.388 . S
C1288 C1289 1.366 . S
C1289 C1288 1.366 . S
C1289 C1290 1.414 . S
C1289 C1292 1.499 . S
C1290 H1270 0.950 . S
C1290 C1289 1.414 . S
C1290 C1291 1.374 1_556 S
C1291 H1271 0.950 . S
C1291 C1287 1.386 . S
C1291 C1290 1.374 1_554 S
C1292 C1289 1.499 . S
C1292 C1293 1.373 . S
C1292 C1294 1.389 . S
C1293 H1272 0.950 . S
C1293 C1292 1.373 . S
C1293 C1309 1.377 . S
C1294 C1292 1.389 . S
C1294 C1295 1.524 . S
C1294 C1308 1.377 . S
C1295 C1294 1.524 . S
C1295 C1296 1.397 . S
C1295 C1300 1.363 . S
C1296 H1273 0.950 . S
C1296 C1295 1.397 . S
C1296 C1297 1.334 . S
C1297 H1274 0.950 . S
C1297 C1296 1.334 . S
C1297 C1298 1.287 . S
C1298 C1297 1.287 . S
C1298 C1299 1.524 . S
C1298 H1317 0.913 . S
C1299 H1275 0.950 . S
C1299 C1298 1.524 . S
C1299 C1300 1.415 . S
C1300 H1276 0.950 . S
C1300 C1295 1.363 . S
C1300 C1299 1.415 . S
C1301 H1277 0.951 . S
C1301 C1302 1.366 . S
C1301 C1303 1.388 . S
C1302 C1301 1.366 . S
C1302 C1306 1.385 . S
C1303 H1278 0.951 . S
C1303 C1301 1.388 . S
C1303 C1304 1.366 . S
C1304 C1303 1.366 . S
C1304 C1305 1.414 . S
C1304 C1307 1.499 . S
C1305 H1279 0.950 . S
C1305 C1304 1.414 . S
C1305 C1306 1.374 . S
C1306 H1280 0.950 . S
C1306 C1302 1.385 . S
C1306 C1305 1.374 . S
C1307 C1304 1.499 . S
C1307 C1308 1.373 . S
C1307 C1309 1.389 . S
C1308 H1281 0.950 . S
C1308 C1294 1.377 . S
C1308 C1307 1.373 . S
C1309 C1293 1.377 . S
C1309 C1307 1.389 . S
C1309 C1310 1.524 . S
C1310 C1309 1.524 . S
C1310 C1311 1.397 . S
C1310 C1315 1.363 . S
C1311 H1282 0.950 . S
C1311 C1310 1.397 . S
C1311 C1312 1.334 . S
C1312 H1283 0.950 . S
C1312 C1311 1.334 . S
C1312 C1313 1.287 . S
C1313 C1312 1.287 . S
C1313 C1314 1.524 . S
C1313 H1316 0.999 . S
C1314 H1284 0.950 . S
C1314 C1313 1.524 . S
C1314 C1315 1.415 . S
C1315 H1285 0.950 . S
C1315 C1310 1.363 . S
C1315 C1314 1.415 . S
H1316 C1313 0.999 . S
H1317 C1298 0.913 . S
H1318 C1336 0.951 . S
H1319 C1338 0.951 . S
H1320 C1340 0.950 . S
H1321 C1341 0.950 . S
H1322 C1343 0.950 . S
H1323 C1346 0.950 . S
H1324 C1347 0.950 . S
H1325 C1349 0.950 . S
H1326 C1350 0.950 . S
H1327 C1351 0.951 . S
H1328 C1353 0.951 . S
H1329 C1355 0.950 . S
H1330 C1356 0.953 . S
H1331 C1358 0.950 . S
H1332 C1361 0.950 . S
H1333 C1362 0.950 . S
H1334 C1364 0.950 . S
H1335 C1365 0.950 . S
C1336 H1318 0.951 . S
C1336 C1337 1.366 . S
C1336 C1338 1.388 . S
C1337 C1336 1.366 . S
C1337 C1341 1.385 . S
C1338 H1319 0.951 . S
C1338 C1336 1.388 . S
C1338 C1339 1.366 . S
C1339 C1338 1.366 . S
C1339 C1340 1.414 . S
C1339 C1342 1.499 . S
C1340 H1320 0.950 . S
C1340 C1339 1.414 . S
C1340 C1341 1.374 . S
C1341 H1321 0.950 . S
C1341 C1337 1.385 . S
C1341 C1340 1.374 . S
C1342 C1339 1.499 . S
C1342 C1343 1.373 . S
C1342 C1344 1.389 . S
C1343 H1322 0.950 . S
C1343 C1342 1.373 . S
C1343 C1359 1.377 . S
C1344 C1342 1.389 . S
C1344 C1345 1.524 . S
C1344 C1358 1.377 . S
C1345 C1344 1.524 . S
C1345 C1346 1.397 . S
C1345 C1350 1.363 . S
C1346 H1323 0.950 . S
C1346 C1345 1.397 . S
C1346 C1347 1.334 . S
C1347 H1324 0.950 . S
C1347 C1346 1.334 . S
C1347 C1348 1.287 . S
C1348 C1347 1.287 . S
C1348 C1349 1.524 . S
C1348 H1367 0.913 . S
C1349 H1325 0.950 . S
C1349 C1348 1.524 . S
C1349 C1350 1.415 . S
C1350 H1326 0.950 . S
C1350 C1345 1.363 . S
C1350 C1349 1.415 . S
C1351 H1327 0.951 . S
C1351 C1352 1.361 1_554 S
C1351 C1353 1.388 . S
C1352 C1351 1.361 1_556 S
C1352 C1356 1.385 . S
C1353 H1328 0.951 . S
C1353 C1351 1.388 . S
C1353 C1354 1.366 . S
C1354 C1353 1.366 . S
C1354 C1355 1.414 . S
C1354 C1357 1.499 . S
C1355 H1329 0.950 . S
C1355 C1354 1.414 . S
C1355 C1356 1.371 1_554 S
C1356 H1330 0.953 . S
C1356 C1352 1.385 . S
C1356 C1355 1.371 1_556 S
C1357 C1354 1.499 . S
C1357 C1358 1.373 . S
C1357 C1359 1.389 . S
C1358 H1331 0.950 . S
C1358 C1344 1.377 . S
C1358 C1357 1.373 . S
C1359 C1343 1.377 . S
C1359 C1357 1.389 . S
C1359 C1360 1.524 . S
C1360 C1359 1.524 . S
C1360 C1361 1.397 . S
C1360 C1365 1.363 . S
C1361 H1332 0.950 . S
C1361 C1360 1.397 . S
C1361 C1362 1.334 . S
C1362 H1333 0.950 . S
C1362 C1361 1.334 . S
C1362 C1363 1.287 . S
C1363 C1362 1.287 . S
C1363 C1364 1.524 . S
C1363 H1366 0.999 . S
C1364 H1334 0.950 . S
C1364 C1363 1.524 . S
C1364 C1365 1.415 . S
C1365 H1335 0.950 . S
C1365 C1360 1.363 . S
C1365 C1364 1.415 . S
H1366 C1363 0.999 . S
H1367 C1348 0.913 . S
C187 C0 1.431 . S
C202 C97 1.430 . S
C237 C15 1.430 . S
C252 C110 1.431 . S
C287 C125 1.430 . S
C302 C41 1.430 . S
C337 C42 1.431 . S
C352 C127 1.430 . S
C387 C57 1.430 . S
C402 C141 1.430 . S
C437 C167 1.430 . S
C452 C83 1.430 . S
C487 C113 1.525 . S
C502 C12 1.525 . S
C537 C27 1.525 . S
C552 C139 1.526 . S
C587 C153 1.525 . S
C602 C29 1.525 . S
C637 C155 1.525 . S
C652 C54 1.525 . S
C687 C69 1.525 . S
C702 C85 1.525 . S
C737 C71 1.525 . S
C752 C98 1.525 . S
C787 C166 1.895 . S
C802 C1 1.892 . S
C837 C96 1.895 . S
C852 C14 1.895 . S
C887 C40 1.895 . S
C902 C111 1.893 . S
C937 C124 1.895 . S
C952 C43 1.893 . S
C987 C126 1.895 . S
C1002 C56 1.895 . S
C1037 C140 1.895 . S
C1052 C82 1.895 . S
C1087 C13 1.589 . S
C1102 C152 1.590 . S
C1137 C154 1.590 . S
C1152 C26 1.590 . S
C1187 C28 1.590 . S
C1202 C84 1.590 . S
C1237 C55 1.589 . S
C1252 C99 1.589 . S
C1287 C68 1.594 . S
C1302 C112 1.590 . S
C1337 C70 1.590 . S
C1352 C138 1.594 . S
