# Generated by pormake.
# Topology xfg, (7)-cn, num edge types: 1
# Building blocks:
#     Node 0, Type 0, BuildingBlock: NUHQUE_clean_sbu_2, # of connection points: 7
#     Node 1, Type 0, BuildingBlock: NUHQUE_clean_sbu_2, # of connection points: 7
#     Node 2, Type 0, BuildingBlock: NUHQUE_clean_sbu_2, # of connection points: 7
#     Node 3, Type 0, BuildingBlock: NUHQUE_clean_sbu_2, # of connection points: 7
#     Node 4, Type 0, BuildingBlock: NUHQUE_clean_sbu_2, # of connection points: 7
#     Node 5, Type 0, BuildingBlock: NUHQUE_clean_sbu_2, # of connection points: 7
#     Node 6, Type 0, BuildingBlock: NUHQUE_clean_sbu_2, # of connection points: 7
#     Node 7, Type 0, BuildingBlock: NUHQUE_clean_sbu_2, # of connection points: 7
#     Node 8, Type 0, BuildingBlock: NUHQUE_clean_sbu_2, # of connection points: 7
#     Node 9, Type 0, BuildingBlock: NUHQUE_clean_sbu_2, # of connection points: 7
#     Node 10, Type 0, BuildingBlock: NUHQUE_clean_sbu_2, # of connection points: 7
#     Node 11, Type 0, BuildingBlock: NUHQUE_clean_sbu_2, # of connection points: 7
#     Node 12, Type 0, BuildingBlock: NUHQUE_clean_sbu_2, # of connection points: 7
#     Node 13, Type 0, BuildingBlock: NUHQUE_clean_sbu_2, # of connection points: 7
#     Node 14, Type 0, BuildingBlock: NUHQUE_clean_sbu_2, # of connection points: 7
#     Node 15, Type 0, BuildingBlock: NUHQUE_clean_sbu_2, # of connection points: 7
#     Edge 16, Type (0, 0), None
#     Edge 17, Type (0, 0), None
#     Edge 18, Type (0, 0), None
#     Edge 19, Type (0, 0), None
#     Edge 20, Type (0, 0), None
#     Edge 21, Type (0, 0), None
#     Edge 22, Type (0, 0), None
#     Edge 23, Type (0, 0), None
#     Edge 24, Type (0, 0), None
#     Edge 25, Type (0, 0), None
#     Edge 26, Type (0, 0), None
#     Edge 27, Type (0, 0), None
#     Edge 28, Type (0, 0), None
#     Edge 29, Type (0, 0), None
#     Edge 30, Type (0, 0), None
#     Edge 31, Type (0, 0), None
#     Edge 32, Type (0, 0), None
#     Edge 33, Type (0, 0), None
#     Edge 34, Type (0, 0), None
#     Edge 35, Type (0, 0), None
#     Edge 36, Type (0, 0), None
#     Edge 37, Type (0, 0), None
#     Edge 38, Type (0, 0), None
#     Edge 39, Type (0, 0), None
#     Edge 40, Type (0, 0), None
#     Edge 41, Type (0, 0), None
#     Edge 42, Type (0, 0), None
#     Edge 43, Type (0, 0), None
#     Edge 44, Type (0, 0), None
#     Edge 45, Type (0, 0), None
#     Edge 46, Type (0, 0), None
#     Edge 47, Type (0, 0), None
#     Edge 48, Type (0, 0), None
#     Edge 49, Type (0, 0), None
#     Edge 50, Type (0, 0), None
#     Edge 51, Type (0, 0), None
#     Edge 52, Type (0, 0), None
#     Edge 53, Type (0, 0), None
#     Edge 54, Type (0, 0), None
#     Edge 55, Type (0, 0), None
#     Edge 56, Type (0, 0), None
#     Edge 57, Type (0, 0), None
#     Edge 58, Type (0, 0), None
#     Edge 59, Type (0, 0), None
#     Edge 60, Type (0, 0), None
#     Edge 61, Type (0, 0), None
#     Edge 62, Type (0, 0), None
#     Edge 63, Type (0, 0), None
#     Edge 64, Type (0, 0), None
#     Edge 65, Type (0, 0), None
#     Edge 66, Type (0, 0), None
#     Edge 67, Type (0, 0), None
#     Edge 68, Type (0, 0), None
#     Edge 69, Type (0, 0), None
#     Edge 70, Type (0, 0), None
#     Edge 71, Type (0, 0), None
# Relax obj value: 0.154
# Max RMSD: 0.189
# Mean RMSD: 0.189
data_MOF--net-xfg--node1-NUHQUE_clean_sbu_2--edge1-none
_symmetry_space_group_name_H-M    P1
_symmetry_Int_Tables_number       1
_symmetry_cell_setting            triclinic
loop_
_symmetry_equiv_pos_as_xyz
'x, y, z'
_cell_length_a     16.252245
_cell_length_b     16.248682
_cell_length_c     35.029681
_cell_angle_alpha  90.0
_cell_angle_beta   90.0
_cell_angle_gamma 90.000412
loop_
_atom_site_label
_atom_site_type_symbol
_atom_site_fract_x
_atom_site_fract_y
_atom_site_fract_z
_atom_type_partial_charge
O0 O 0.33474 0.25169 1.03224 0.0
Tb1 Tb 0.35621 0.14787 0.07036 0.0
Eu2 Eu 0.46417 0.13854 0.14933 0.0
C3 C 0.39375 0.28344 1.01099 0.0
O4 O 0.47006 0.2819 1.02319 0.0
C5 C 0.54969 0.09742 0.07014 0.0
O6 O 0.51855 0.11466 0.20737 0.0
C7 C 0.43975 0.29656 0.14444 0.0
C8 C 0.53814 1.04107 0.21975 0.0
O9 O 0.53799 0.97873 0.19589 0.0
C10 C 0.27802 0.10978 0.14817 0.0
C11 C 0.37486 0.36044 0.14861 0.0
C12 C 0.34113 0.39417 0.11517 0.0
C13 C 0.29258 0.46517 0.11661 0.0
C14 C 0.26917 0.49706 0.15213 0.0
C15 C 0.3061 0.4686 0.1857 0.0
C16 C 0.35863 0.39952 0.18402 0.0
O17 O 0.48695 0.13576 1.05403 0.0
O18 O 0.55353 1.08441 0.10727 0.0
O19 O 0.27173 0.09827 1.02833 0.0
O20 O 0.34643 1.01592 0.05956 0.0
C21 C 0.29264 1.02149 1.03206 0.0
O22 O 0.34578 1.06918 0.1551 0.0
O23 O 0.28045 0.16701 0.12166 0.0
O24 O 0.46757 0.26056 0.17535 0.0
O25 O 0.43416 0.24631 0.11519 0.0
H26 H 0.36076 0.37112 0.08762 0.0
H27 H 0.23356 0.55357 0.15329 0.0
H28 H 0.39127 0.38048 0.20951 0.0
O29 O 0.66832 0.58478 0.28226 0.0
Tb30 Tb 0.77223 0.60601 0.32033 0.0
Eu31 Eu 0.78129 0.71412 0.3993 0.0
C32 C 0.63663 0.64391 0.26105 0.0
O33 O 0.63834 0.72021 0.27329 0.0
C34 C 0.82264 0.79963 0.32012 0.0
O35 O 0.80511 0.76844 0.45735 0.0
C36 C 0.62333 0.68954 0.39438 0.0
C37 C 0.87863 0.78842 0.46969 0.0
O38 O 0.94088 0.78859 0.44578 0.0
C39 C 0.81028 0.52795 0.39817 0.0
C40 C 0.55947 0.62464 0.39858 0.0
C41 C 0.52574 0.59083 0.36516 0.0
C42 C 0.45471 0.54234 0.36662 0.0
C43 C 0.42282 0.51902 0.40215 0.0
C44 C 0.45129 0.55601 0.4357 0.0
C45 C 0.52038 0.60851 0.43399 0.0
O46 O 0.78468 0.73672 0.30395 0.0
O47 O 0.83532 0.8036 0.35726 0.0
O48 O 0.82167 0.52144 0.27829 0.0
O49 O 0.90414 0.59597 0.30954 0.0
C50 C 0.89848 0.5422 0.28202 0.0
O51 O 0.85079 0.5958 0.40509 0.0
O52 O 0.75311 0.53026 0.37165 0.0
O53 O 0.65925 0.71754 0.42527 0.0
O54 O 0.67362 0.68384 0.36515 0.0
H55 H 0.5488 0.61039 0.3376 0.0
H56 H 0.36629 0.48345 0.40333 0.0
H57 H 0.53943 0.64122 0.45947 0.0
O58 O 0.33507 0.91838 0.53224 0.0
Tb59 Tb 0.3136 1.02219 0.57036 0.0
Eu60 Eu 0.20564 1.03153 0.64933 0.0
C61 C 0.27605 0.88662 0.51099 0.0
O62 O 0.19974 0.88816 0.52319 0.0
C63 C 0.12012 1.07264 0.57014 0.0
O64 O 0.15126 1.0554 0.70737 0.0
C65 C 0.23006 0.8735 0.64444 0.0
C66 C 0.13166 0.12899 0.71975 0.0
O67 O 0.13182 0.19134 0.69589 0.0
C68 C 0.39179 1.06028 0.64817 0.0
C69 C 0.29495 0.80962 0.64861 0.0
C70 C 0.32868 0.77589 0.61517 0.0
C71 C 0.37723 0.70489 0.61661 0.0
C72 C 0.40063 0.673 0.65213 0.0
C73 C 0.36371 0.70146 0.6857 0.0
C74 C 0.31118 0.77054 0.68402 0.0
O75 O 0.18286 1.0343 0.55403 0.0
O76 O 0.11628 0.08565 0.60727 0.0
O77 O 0.39808 1.0718 0.52833 0.0
O78 O 0.32338 0.15415 0.55956 0.0
C79 C 0.37717 0.14858 0.53206 0.0
O80 O 0.32403 0.10089 0.6551 0.0
O81 O 0.38936 1.00305 0.62166 0.0
O82 O 0.20224 0.90951 0.67535 0.0
O83 O 0.23565 0.92375 0.61519 0.0
H84 H 0.30905 0.79894 0.58762 0.0
H85 H 0.43625 0.6165 0.65329 0.0
H86 H 0.27854 0.78959 0.70951 0.0
O87 O 1.00149 0.58529 0.78226 0.0
Tb88 Tb 0.89758 0.56406 0.82033 0.0
Eu89 Eu 0.88852 0.45595 0.8993 0.0
C90 C 1.03317 0.52615 0.76105 0.0
O91 O 1.03147 0.44986 0.77329 0.0
C92 C 0.84717 0.37043 0.82012 0.0
O93 O 0.8647 0.40162 0.95735 0.0
C94 C 1.04648 0.48052 0.89438 0.0
C95 C 0.79118 0.38165 0.96969 0.0
O96 O 0.72893 0.38148 0.94578 0.0
C97 C 0.85952 0.64211 0.89817 0.0
C98 C 0.11034 0.54542 0.89858 0.0
C99 C 0.14406 0.57923 0.86516 0.0
C100 C 0.2151 0.62773 0.86662 0.0
C101 C 0.24699 0.65104 0.90215 0.0
C102 C 0.21852 0.61405 0.9357 0.0
C103 C 0.14943 0.56155 0.93399 0.0
O104 O 0.88513 0.43335 0.80395 0.0
O105 O 0.83449 0.36646 0.85726 0.0
O106 O 0.84814 0.64862 0.77829 0.0
O107 O 0.76567 0.57409 0.80954 0.0
C108 C 0.77133 0.62786 0.78202 0.0
O109 O 0.81902 0.57427 0.90509 0.0
O110 O 0.9167 0.63981 0.87165 0.0
O111 O 1.01055 0.45253 0.92527 0.0
O112 O 0.99619 0.48622 0.86515 0.0
H113 H 0.12101 0.55968 0.8376 0.0
H114 H 0.30352 0.68662 0.90333 0.0
H115 H 0.13038 0.52885 0.95947 0.0
O116 O 0.83521 0.91843 0.08349 0.0
Tb117 Tb 0.81374 1.02227 1.04539 0.0
Eu118 Eu 0.70576 1.03161 0.96642 0.0
C119 C 0.77619 0.88665 0.10473 0.0
O120 O 0.69988 0.88822 0.09253 0.0
C121 C 0.62027 1.07276 1.04561 0.0
O122 O 0.6514 1.05546 0.90838 0.0
C123 C 0.73012 0.87358 0.97133 0.0
C124 C 0.63166 0.12903 0.896 0.0
O125 O 0.63172 0.19137 0.91987 0.0
C126 C 0.89193 1.06033 0.96757 0.0
C127 C 0.79496 0.80966 0.96715 0.0
C128 C 0.82864 0.77587 1.00059 0.0
C129 C 0.87714 0.70483 0.99915 0.0
C130 C 0.90055 0.67296 0.96362 0.0
C131 C 0.86368 0.70151 0.93006 0.0
C132 C 0.81119 0.77062 0.93174 0.0
O133 O 0.68299 1.03438 0.06172 0.0
O134 O 0.61643 0.08578 1.00849 0.0
O135 O 0.89821 1.07187 0.08741 0.0
O136 O 0.82351 0.15422 1.05618 0.0
C137 C 0.8773 0.14866 0.08369 0.0
O138 O 0.82417 0.10094 0.96064 0.0
O139 O 0.8895 1.00311 0.99408 0.0
O140 O 0.70227 0.90958 0.94043 0.0
O141 O 0.73578 0.92386 1.00057 0.0
H142 H 0.80901 0.7989 1.02815 0.0
H143 H 0.93611 0.61642 0.96245 0.0
H144 H 0.7786 0.78972 0.90625 0.0
O145 O 0.5016 0.58522 0.83348 0.0
Tb146 Tb 0.3977 0.56395 0.7954 0.0
Eu147 Eu 0.38867 0.45586 0.71642 0.0
C148 C 0.53328 0.52611 0.8547 0.0
O149 O 0.53165 0.44981 0.84247 0.0
C150 C 0.34737 0.37032 0.79559 0.0
O151 O 0.36485 0.40151 0.65837 0.0
C152 C 0.54662 0.4805 0.72134 0.0
C153 C 0.29132 0.3816 0.64603 0.0
O154 O 0.22907 0.38146 0.66994 0.0
C155 C 0.35959 0.64201 0.71757 0.0
C156 C 0.61044 0.54543 0.71714 0.0
C157 C 0.64406 0.57935 0.75056 0.0
C158 C 0.71505 0.62791 0.7491 0.0
C159 C 0.74705 0.65114 0.71358 0.0
C160 C 0.71864 0.61408 0.68003 0.0
C161 C 0.64958 0.56153 0.68174 0.0
O162 O 0.38538 0.43321 0.81176 0.0
O163 O 0.33465 0.36637 0.75845 0.0
O164 O 0.34826 0.64842 0.83748 0.0
O165 O 0.26578 0.57382 0.8062 0.0
C166 C 0.2715 0.62749 0.83375 0.0
O167 O 0.31914 0.57415 0.71061 0.0
O168 O 0.41673 0.63978 0.74411 0.0
O169 O 0.51071 0.45248 0.69045 0.0
O170 O 0.49631 0.48618 0.75057 0.0
H171 H 0.62095 0.55986 0.77812 0.0
H172 H 0.80355 0.68674 0.71241 0.0
H173 H 0.6306 0.52877 0.65627 0.0
O174 O 0.8346 0.25163 0.58349 0.0
Tb175 Tb 0.85607 0.1478 0.54539 0.0
Eu176 Eu 0.96405 0.13845 0.46642 0.0
C177 C 0.89362 0.28341 0.60473 0.0
O178 O 0.96993 0.28185 0.59253 0.0
C179 C 1.04954 0.0973 0.54561 0.0
O180 O 1.01841 0.1146 0.40838 0.0
C181 C 0.93969 0.29648 0.47133 0.0
C182 C 1.03815 1.04104 0.396 0.0
O183 O 1.03809 0.9787 0.41987 0.0
C184 C 0.77788 0.10974 0.46757 0.0
C185 C 0.87485 0.3604 0.46715 0.0
C186 C 0.84117 0.39419 0.50059 0.0
C187 C 0.79266 0.46523 0.49915 0.0
C188 C 0.76926 0.4971 0.46362 0.0
C189 C 0.80613 0.46855 0.43006 0.0
C190 C 0.85862 0.39944 0.43174 0.0
O191 O 0.98681 0.13568 0.56172 0.0
O192 O 1.05338 1.08428 0.50849 0.0
O193 O 0.7716 0.09819 0.58741 0.0
O194 O 0.84629 1.01584 0.55618 0.0
C195 C 0.79251 1.02141 0.58369 0.0
O196 O 0.84564 1.06912 0.46064 0.0
O197 O 0.78031 0.16695 0.49408 0.0
O198 O 0.96754 0.26049 0.44043 0.0
O199 O 0.93403 0.24621 0.50057 0.0
H200 H 0.8608 0.37116 0.52815 0.0
H201 H 0.7337 0.55364 0.46245 0.0
H202 H 0.89121 0.38034 0.40625 0.0
O203 O 0.16821 0.58484 0.33348 0.0
Tb204 Tb 0.27211 0.60612 0.2954 0.0
Eu205 Eu 0.28114 0.71421 0.21642 0.0
C206 C 0.13653 0.64395 0.3547 0.0
O207 O 0.13816 0.72025 0.34247 0.0
C208 C 0.32244 0.79975 0.29559 0.0
O209 O 0.30496 0.76855 0.15837 0.0
C210 C 0.12319 0.68957 0.22134 0.0
C211 C 0.37849 0.78846 0.14603 0.0
O212 O 0.44074 0.7886 0.16994 0.0
C213 C 0.31022 0.52805 0.21757 0.0
C214 C 1.05937 0.62463 0.21714 0.0
C215 C 1.02575 0.59071 0.25056 0.0
C216 C 0.95476 0.54215 0.2491 0.0
C217 C 0.92276 0.51892 0.21358 0.0
C218 C 0.95116 0.55599 0.18003 0.0
C219 C 1.02023 0.60854 0.18174 0.0
O220 O 0.28443 0.73685 0.31176 0.0
O221 O 0.33516 0.8037 0.25845 0.0
O222 O 0.32155 0.52164 0.33748 0.0
O223 O 0.40403 0.59625 0.3062 0.0
C224 C 0.39831 0.54257 0.33375 0.0
O225 O 0.35067 0.59591 0.21061 0.0
O226 O 0.25308 0.53028 0.24411 0.0
O227 O 0.1591 0.71759 0.19045 0.0
O228 O 0.1735 0.68389 0.25057 0.0
H229 H 1.04886 0.61021 0.27812 0.0
H230 H 0.86625 0.48332 0.21241 0.0
H231 H 1.03921 0.6413 0.15627 0.0
O232 O 0.83478 0.75178 0.53224 0.0
Tb233 Tb 0.85627 0.64797 0.57036 0.0
Eu234 Eu 0.96426 0.63861 0.64934 0.0
C235 C 0.89378 0.78353 0.51098 0.0
O236 O 0.97013 0.78198 0.52313 0.0
C237 C 1.04971 0.59745 0.57015 0.0
O238 O 1.01868 0.61475 0.70737 0.0
C239 C 0.93984 0.79664 0.64444 0.0
C240 C 1.03828 0.54116 0.71975 0.0
O241 O 1.03813 0.47878 0.6959 0.0
C242 C 0.7781 0.60986 0.64818 0.0
C243 C 0.87494 0.86051 0.64861 0.0
C244 C 0.84112 0.89415 0.61517 0.0
C245 C 0.79251 0.96512 0.61661 0.0
C246 C 0.76919 0.9971 0.65213 0.0
C247 C 0.80619 0.9687 0.68569 0.0
C248 C 0.85875 0.89963 0.68401 0.0
O249 O 0.98703 0.63592 0.55405 0.0
O250 O 1.05354 0.5844 0.60727 0.0
O251 O 0.77186 0.5984 0.52829 0.0
O252 O 0.84659 0.516 0.55955 0.0
C253 C 0.79289 0.52165 0.53202 0.0
O254 O 0.84586 0.56928 0.65514 0.0
O255 O 0.78045 0.66705 0.62165 0.0
O256 O 0.96768 0.76065 0.67534 0.0
O257 O 0.93423 0.74637 0.61519 0.0
H258 H 0.86068 0.87107 0.58762 0.0
H259 H 0.73355 1.05359 0.65328 0.0
H260 H 0.89143 0.88063 0.70949 0.0
O261 O 0.16837 1.08487 0.78226 0.0
Tb262 Tb 0.27229 0.10609 0.82033 0.0
Eu263 Eu 0.28132 0.21422 0.89929 0.0
C264 C 0.13668 0.14401 0.76106 0.0
O265 O 0.13842 0.22032 0.77326 0.0
C266 C 0.3227 0.29971 0.82012 0.0
O267 O 0.30512 0.26854 0.95735 0.0
C268 C 0.12336 0.18963 0.89437 0.0
C269 C 0.37864 0.28847 0.9697 0.0
O270 O 0.44093 0.28863 0.94581 0.0
C271 C 0.31035 1.02805 0.89818 0.0
C272 C 1.05951 0.12473 0.89858 0.0
C273 C 1.02578 0.0909 0.86516 0.0
C274 C 0.95474 1.0424 0.86662 0.0
C275 C 0.92284 1.0191 0.90216 0.0
C276 C 0.95134 1.05609 0.9357 0.0
C277 C 1.02043 0.10861 0.934 0.0
O278 O 0.28474 0.23679 0.80395 0.0
O279 O 0.33536 0.3037 0.85726 0.0
O280 O 0.3217 1.02151 0.77829 0.0
O281 O 0.40418 0.09603 0.80954 0.0
C282 C 0.39851 1.04227 0.78202 0.0
O283 O 0.35083 0.09591 0.90511 0.0
O284 O 0.25319 1.03034 0.87165 0.0
O285 O 0.15927 0.21766 0.92525 0.0
O286 O 0.17367 0.18389 0.86514 0.0
H287 H 1.04884 0.11044 0.8376 0.0
H288 H 0.86631 0.98354 0.90334 0.0
H289 H 1.03948 0.14131 0.95947 0.0
O290 O 0.83503 0.41828 1.03224 0.0
Tb291 Tb 0.81354 0.5221 0.07036 0.0
Eu292 Eu 0.70555 0.53145 0.14934 0.0
C293 C 0.77602 0.38654 1.01098 0.0
O294 O 0.69968 0.38808 1.02313 0.0
C295 C 0.6201 0.57261 0.07015 0.0
O296 O 0.65113 0.55532 0.20737 0.0
C297 C 0.72997 0.37343 0.14444 0.0
C298 C 0.63153 0.62891 0.21975 0.0
O299 O 0.63168 0.69128 0.1959 0.0
C300 C 0.89171 0.5602 0.14818 0.0
C301 C 0.79487 0.30956 0.14861 0.0
C302 C 0.82869 0.27591 0.11517 0.0
C303 C 0.8773 0.20495 0.11661 0.0
C304 C 0.90062 0.17297 0.15213 0.0
C305 C 0.86362 0.20137 0.18569 0.0
C306 C 0.81106 0.27043 0.18401 0.0
O307 O 0.68278 0.53415 1.05405 0.0
O308 O 0.61627 0.58567 0.10727 0.0
O309 O 0.89795 0.57167 1.02829 0.0
O310 O 0.82321 0.65407 0.05955 0.0
C311 C 0.87691 0.64841 1.03202 0.0
O312 O 0.82395 0.60079 0.15514 0.0
O313 O 0.88936 0.50301 0.12165 0.0
O314 O 0.70213 0.40942 0.17534 0.0
O315 O 0.73558 0.4237 0.11519 0.0
H316 H 0.80913 0.299 0.08762 0.0
H317 H 0.93626 0.11648 0.15328 0.0
H318 H 0.77838 0.28943 0.20949 0.0
O319 O 0.50144 0.0852 0.28226 0.0
Tb320 Tb 0.39752 1.06398 0.32033 0.0
Eu321 Eu 0.38849 0.95584 0.39929 0.0
C322 C 0.53313 1.02606 0.26106 0.0
O323 O 0.53139 0.94974 0.27326 0.0
C324 C 0.34711 0.87035 0.32012 0.0
O325 O 0.36469 0.90153 0.45735 0.0
C326 C 0.54645 0.98044 0.39437 0.0
C327 C 0.29117 0.88159 0.4697 0.0
O328 O 0.22888 0.88143 0.44581 0.0
C329 C 0.35946 0.14201 0.39818 0.0
C330 C 0.6103 1.04534 0.39858 0.0
C331 C 0.64403 1.07917 0.36516 0.0
C332 C 0.71507 0.12766 0.36662 0.0
C333 C 0.74697 0.15096 0.40216 0.0
C334 C 0.71846 0.11397 0.4357 0.0
C335 C 0.64938 1.06146 0.434 0.0
O336 O 0.38507 0.93327 0.30395 0.0
O337 O 0.33445 0.86637 0.35726 0.0
O338 O 0.3481 0.14855 0.27829 0.0
O339 O 0.26562 1.07403 0.30954 0.0
C340 C 0.2713 0.12779 0.28202 0.0
O341 O 0.31898 1.07415 0.40511 0.0
O342 O 0.41662 0.13972 0.37165 0.0
O343 O 0.51054 0.9524 0.42525 0.0
O344 O 0.49614 0.98617 0.36514 0.0
H345 H 0.62097 1.05962 0.3376 0.0
H346 H 0.8035 0.18652 0.40334 0.0
H347 H 0.63033 1.02875 0.45947 0.0
O348 O 0.33517 0.41834 0.58349 0.0
Tb349 Tb 0.31368 0.52217 0.54539 0.0
Eu350 Eu 0.20568 0.53154 0.46641 0.0
C351 C 0.27616 0.38656 0.60474 0.0
O352 O 0.19982 0.38814 0.59259 0.0
C353 C 0.12025 0.57273 0.54561 0.0
O354 O 0.15127 0.55538 0.40838 0.0
C355 C 0.23003 0.37351 0.47133 0.0
C356 C 0.13153 0.62894 0.396 0.0
O357 O 0.13159 0.69131 0.41985 0.0
C358 C 0.39185 0.56025 0.46757 0.0
C359 C 0.29488 0.3096 0.46715 0.0
C360 C 0.32865 0.27589 0.50059 0.0
C361 C 0.37722 0.20489 0.49914 0.0
C362 C 0.40053 0.17292 0.46362 0.0
C363 C 0.36359 0.20142 0.43007 0.0
C364 C 0.31108 0.27051 0.43175 0.0
O365 O 0.18292 0.53423 0.5617 0.0
O366 O 0.11642 0.5858 0.50849 0.0
O367 O 0.39808 0.57175 0.58745 0.0
O368 O 0.32335 0.65414 0.55619 0.0
C369 C 0.37704 0.64849 0.58373 0.0
O370 O 0.32409 0.60084 0.4606 0.0
O371 O 0.3895 0.50307 0.4941 0.0
O372 O 0.20216 0.40949 0.44043 0.0
O373 O 0.23571 0.4238 0.50057 0.0
H374 H 0.30909 0.29896 0.52815 0.0
H375 H 0.43612 0.1164 0.46246 0.0
H376 H 0.27843 0.28956 0.40626 0.0
O377 O 1.00155 0.08513 0.33348 0.0
Tb378 Tb 0.89764 1.06387 0.2954 0.0
Eu379 Eu 0.88864 0.95575 0.21642 0.0
C380 C 1.03323 1.02601 0.35469 0.0
O381 O 1.03157 0.9497 0.34249 0.0
C382 C 0.84731 0.87024 0.2956 0.0
O383 O 0.86484 0.90142 0.15837 0.0
C384 C 1.04658 0.98041 0.22135 0.0
C385 C 0.79131 0.88154 0.14602 0.0
O386 O 0.72901 0.88142 0.1699 0.0
C387 C 0.85952 0.14191 0.21756 0.0
C388 C 0.1104 1.04535 0.21714 0.0
C389 C 0.14402 1.07928 0.25056 0.0
C390 C 0.21502 0.12784 0.2491 0.0
C391 C 0.24702 0.15106 0.21357 0.0
C392 C 0.21859 0.11399 0.18004 0.0
C393 C 0.14953 1.06143 0.18173 0.0
O394 O 0.88531 0.93314 0.31176 0.0
O395 O 0.83461 0.86627 0.25845 0.0
O396 O 0.84823 0.14835 0.33748 0.0
O397 O 0.76573 1.07375 0.3062 0.0
C398 C 0.77147 0.12743 0.33375 0.0
O399 O 0.81909 1.07404 0.21059 0.0
O400 O 0.91666 0.1397 0.2441 0.0
O401 O 1.01069 0.95235 0.19047 0.0
O402 O 0.99626 0.98612 0.25058 0.0
H403 H 0.12092 1.0598 0.27812 0.0
H404 H 0.30354 0.18665 0.2124 0.0
H405 H 0.13055 1.02867 0.15627 0.0
O406 O 0.33464 0.75173 0.08349 0.0
Tb407 Tb 0.35613 0.64789 1.04539 0.0
Eu408 Eu 0.46413 0.63852 0.96641 0.0
C409 C 0.39365 0.7835 0.10474 0.0
O410 O 0.46999 0.78193 0.09259 0.0
C411 C 0.54956 0.59733 1.04561 0.0
O412 O 0.51854 0.61468 0.90838 0.0
C413 C 0.43978 0.79655 0.97133 0.0
C414 C 0.53828 0.54112 0.896 0.0
O415 O 0.53822 0.47876 0.91985 0.0
C416 C 0.27796 0.60982 0.96757 0.0
C417 C 0.37493 0.86046 0.96715 0.0
C418 C 0.34115 0.89418 1.00059 0.0
C419 C 0.29259 0.96517 0.99914 0.0
C420 C 0.26928 0.99714 0.96362 0.0
C421 C 0.30622 0.96865 0.93007 0.0
C422 C 0.35873 0.89955 0.93175 0.0
O423 O 0.48689 0.63584 0.0617 0.0
O424 O 0.55339 0.58427 1.00849 0.0
O425 O 0.27172 0.59832 0.08745 0.0
O426 O 0.34646 0.51592 1.05619 0.0
C427 C 0.29277 0.52158 0.08373 0.0
O428 O 0.34572 0.56922 0.9606 0.0
O429 O 0.28031 0.66699 0.9941 0.0
O430 O 0.46765 0.76058 0.94043 0.0
O431 O 0.4341 0.74626 1.00057 0.0
H432 H 0.36072 0.87111 1.02815 0.0
H433 H 0.23369 1.05366 0.96246 0.0
H434 H 0.39138 0.8805 0.90626 0.0
O435 O 0.66826 1.08493 0.83348 0.0
Tb436 Tb 0.77217 0.1062 0.7954 0.0
Eu437 Eu 0.78117 0.21431 0.71642 0.0
C438 C 0.63658 0.14405 0.85469 0.0
O439 O 0.63824 0.22037 0.84249 0.0
C440 C 0.8225 0.29983 0.7956 0.0
O441 O 0.80497 0.26865 0.65837 0.0
C442 C 0.62323 0.18965 0.72135 0.0
C443 C 0.8785 0.28852 0.64602 0.0
O444 O 0.9408 0.28864 0.6699 0.0
C445 C 0.81029 1.02816 0.71756 0.0
C446 C 0.55941 0.12472 0.71714 0.0
C447 C 0.52578 0.09078 0.75056 0.0
C448 C 0.45479 1.04222 0.7491 0.0
C449 C 0.42279 1.01901 0.71357 0.0
C450 C 0.45122 1.05607 0.68004 0.0
C451 C 0.52027 0.10863 0.68173 0.0
O452 O 0.7845 0.23693 0.81176 0.0
O453 O 0.8352 0.30379 0.75845 0.0
O454 O 0.82158 1.02172 0.83748 0.0
O455 O 0.90408 0.09631 0.8062 0.0
C456 C 0.89834 1.04264 0.83375 0.0
O457 O 0.85072 0.09603 0.71059 0.0
O458 O 0.75315 1.03036 0.7441 0.0
O459 O 0.65912 0.21771 0.69047 0.0
O460 O 0.67354 0.18394 0.75058 0.0
H461 H 0.54889 0.11026 0.77812 0.0
H462 H 0.36627 0.98341 0.7124 0.0
H463 H 0.53926 0.14139 0.65627 0.0
loop_
_geom_bond_atom_site_label_1
_geom_bond_atom_site_label_2
_geom_bond_distance
_geom_bond_site_symmetry_2
_ccdc_geom_bond_type
O0 Tb1 2.292 1_556 S
O0 C3 1.255 . S
Tb1 O0 2.292 1_554 S
Tb1 O17 2.326 . S
Tb1 O19 2.500 1_544 S
Tb1 O20 2.473 1_545 S
Tb1 O23 2.324 . S
Eu2 O6 2.292 . S
Eu2 C7 2.852 . S
Eu2 O18 2.324 . S
Eu2 O22 2.326 . S
Eu2 O24 2.500 . S
Eu2 O25 2.473 . S
C3 O0 1.255 . S
C3 O4 1.247 . S
O4 C3 1.247 . S
C5 O17 1.242 . S
C5 O18 1.258 . S
O6 Eu2 2.292 . S
O6 C8 1.255 . S
C7 Eu2 2.852 . S
C7 C11 1.503 . S
C7 O24 1.273 . S
C7 O25 1.257 . S
C8 O6 1.255 . S
C8 O9 1.247 1_545 S
O9 C8 1.247 1_565 S
C10 O22 1.242 . S
C10 O23 1.258 . S
C11 C7 1.503 . S
C11 C12 1.379 . S
C11 C16 1.392 . S
C12 C11 1.379 . S
C12 C13 1.404 . S
C12 H26 0.929 . S
C13 C12 1.404 . S
C13 C14 1.389 . S
C14 C13 1.389 . S
C14 C15 1.399 . S
C14 H27 0.931 . S
C15 C14 1.399 . S
C15 C16 1.390 . S
C16 C11 1.392 . S
C16 C15 1.390 . S
C16 H28 0.929 . S
O17 Tb1 2.326 . S
O17 C5 1.242 . S
O18 Eu2 2.324 . S
O18 C5 1.258 . S
O19 Tb1 2.500 1_566 S
O19 C21 1.273 1_556 S
O20 Tb1 2.473 1_565 S
O20 C21 1.257 . S
C21 O19 1.273 1_554 S
C21 O20 1.257 . S
O22 Eu2 2.326 . S
O22 C10 1.242 . S
O23 Tb1 2.324 . S
O23 C10 1.258 . S
O24 Eu2 2.500 . S
O24 C7 1.273 . S
O25 Eu2 2.473 . S
O25 C7 1.257 . S
H26 C12 0.929 . S
H27 C14 0.931 . S
H28 C16 0.929 . S
O29 Tb30 2.292 . S
O29 C32 1.255 . S
Tb30 O29 2.292 . S
Tb30 O46 2.326 . S
Tb30 O48 2.500 . S
Tb30 O49 2.473 . S
Tb30 O52 2.324 . S
Eu31 O35 2.292 . S
Eu31 C36 2.852 . S
Eu31 O47 2.324 . S
Eu31 O51 2.326 . S
Eu31 O53 2.500 . S
Eu31 O54 2.473 . S
C32 O29 1.255 . S
C32 O33 1.247 . S
O33 C32 1.247 . S
C34 O46 1.242 . S
C34 O47 1.258 . S
O35 Eu31 2.292 . S
O35 C37 1.255 . S
C36 Eu31 2.852 . S
C36 C40 1.503 . S
C36 O53 1.273 . S
C36 O54 1.257 . S
C37 O35 1.255 . S
C37 O38 1.247 . S
O38 C37 1.247 . S
C39 O51 1.242 . S
C39 O52 1.258 . S
C40 C36 1.503 . S
C40 C41 1.379 . S
C40 C45 1.392 . S
C41 C40 1.379 . S
C41 C42 1.404 . S
C41 H55 0.929 . S
C42 C41 1.404 . S
C42 C43 1.389 . S
C43 C42 1.389 . S
C43 C44 1.399 . S
C43 H56 0.931 . S
C44 C43 1.399 . S
C44 C45 1.390 . S
C45 C40 1.392 . S
C45 C44 1.390 . S
C45 H57 0.929 . S
O46 Tb30 2.326 . S
O46 C34 1.242 . S
O47 Eu31 2.324 . S
O47 C34 1.258 . S
O48 Tb30 2.500 . S
O48 C50 1.273 . S
O49 Tb30 2.473 . S
O49 C50 1.257 . S
C50 O48 1.273 . S
C50 O49 1.257 . S
O51 Eu31 2.326 . S
O51 C39 1.242 . S
O52 Tb30 2.324 . S
O52 C39 1.258 . S
O53 Eu31 2.500 . S
O53 C36 1.273 . S
O54 Eu31 2.473 . S
O54 C36 1.257 . S
H55 C41 0.929 . S
H56 C43 0.931 . S
H57 C45 0.929 . S
O58 Tb59 2.292 . S
O58 C61 1.255 . S
Tb59 O58 2.292 . S
Tb59 O75 2.326 . S
Tb59 O77 2.500 1_565 S
Tb59 O78 2.473 1_565 S
Tb59 O81 2.324 . S
Eu60 O64 2.292 . S
Eu60 C65 2.852 . S
Eu60 O76 2.324 . S
Eu60 O80 2.326 . S
Eu60 O82 2.500 . S
Eu60 O83 2.473 . S
C61 O58 1.255 . S
C61 O62 1.247 . S
O62 C61 1.247 . S
C63 O75 1.242 . S
C63 O76 1.258 . S
O64 Eu60 2.292 . S
O64 C66 1.255 . S
C65 Eu60 2.852 . S
C65 C69 1.503 . S
C65 O82 1.273 . S
C65 O83 1.257 . S
C66 O64 1.255 . S
C66 O67 1.247 1_565 S
O67 C66 1.247 1_545 S
C68 O80 1.242 . S
C68 O81 1.258 . S
C69 C65 1.503 . S
C69 C70 1.379 . S
C69 C74 1.392 . S
C70 C69 1.379 . S
C70 C71 1.404 . S
C70 H84 0.929 . S
C71 C70 1.404 . S
C71 C72 1.389 . S
C72 C71 1.389 . S
C72 C73 1.399 . S
C72 H85 0.931 . S
C73 C72 1.399 . S
C73 C74 1.390 . S
C74 C69 1.392 . S
C74 C73 1.390 . S
C74 H86 0.929 . S
O75 Tb59 2.326 . S
O75 C63 1.242 . S
O76 Eu60 2.324 . S
O76 C63 1.258 . S
O77 Tb59 2.500 1_545 S
O77 C79 1.273 . S
O78 Tb59 2.473 1_545 S
O78 C79 1.257 . S
C79 O77 1.273 . S
C79 O78 1.257 . S
O80 Eu60 2.326 . S
O80 C68 1.242 . S
O81 Tb59 2.324 . S
O81 C68 1.258 . S
O82 Eu60 2.500 . S
O82 C65 1.273 . S
O83 Eu60 2.473 . S
O83 C65 1.257 . S
H84 C70 0.929 . S
H85 C72 0.931 . S
H86 C74 0.929 . S
O87 Tb88 2.292 . S
O87 C90 1.255 . S
Tb88 O87 2.292 . S
Tb88 O104 2.326 . S
Tb88 O106 2.500 . S
Tb88 O107 2.473 . S
Tb88 O110 2.324 . S
Eu89 O93 2.292 . S
Eu89 C94 2.852 . S
Eu89 O105 2.324 . S
Eu89 O109 2.326 . S
Eu89 O111 2.500 . S
Eu89 O112 2.473 . S
C90 O87 1.255 . S
C90 O91 1.247 . S
O91 C90 1.247 . S
C92 O104 1.242 . S
C92 O105 1.258 . S
O93 Eu89 2.292 . S
O93 C95 1.255 . S
C94 Eu89 2.852 . S
C94 C98 1.503 1_655 S
C94 O111 1.273 . S
C94 O112 1.257 . S
C95 O93 1.255 . S
C95 O96 1.247 . S
O96 C95 1.247 . S
C97 O109 1.242 . S
C97 O110 1.258 . S
C98 C94 1.503 1_455 S
C98 C99 1.379 . S
C98 C103 1.392 . S
C99 C98 1.379 . S
C99 C100 1.404 . S
C99 H113 0.929 . S
C100 C99 1.404 . S
C100 C101 1.389 . S
C101 C100 1.389 . S
C101 C102 1.399 . S
C101 H114 0.931 . S
C102 C101 1.399 . S
C102 C103 1.390 . S
C103 C98 1.392 . S
C103 C102 1.390 . S
C103 H115 0.929 . S
O104 Tb88 2.326 . S
O104 C92 1.242 . S
O105 Eu89 2.324 . S
O105 C92 1.258 . S
O106 Tb88 2.500 . S
O106 C108 1.273 . S
O107 Tb88 2.473 . S
O107 C108 1.257 . S
C108 O106 1.273 . S
C108 O107 1.257 . S
O109 Eu89 2.326 . S
O109 C97 1.242 . S
O110 Tb88 2.324 . S
O110 C97 1.258 . S
O111 Eu89 2.500 . S
O111 C94 1.273 . S
O112 Eu89 2.473 . S
O112 C94 1.257 . S
H113 C99 0.929 . S
H114 C101 0.931 . S
H115 C103 0.929 . S
O116 Tb117 2.292 1_554 S
O116 C119 1.255 . S
Tb117 O116 2.292 1_556 S
Tb117 O133 2.326 . S
Tb117 O135 2.500 1_566 S
Tb117 O136 2.473 1_565 S
Tb117 O139 2.324 . S
Eu118 O122 2.292 . S
Eu118 C123 2.852 . S
Eu118 O134 2.324 . S
Eu118 O138 2.326 . S
Eu118 O140 2.500 . S
Eu118 O141 2.473 . S
C119 O116 1.255 . S
C119 O120 1.247 . S
O120 C119 1.247 . S
C121 O133 1.242 . S
C121 O134 1.258 . S
O122 Eu118 2.292 . S
O122 C124 1.255 . S
C123 Eu118 2.852 . S
C123 C127 1.503 . S
C123 O140 1.273 . S
C123 O141 1.257 . S
C124 O122 1.255 . S
C124 O125 1.247 1_565 S
O125 C124 1.247 1_545 S
C126 O138 1.242 . S
C126 O139 1.258 . S
C127 C123 1.503 . S
C127 C128 1.379 . S
C127 C132 1.392 . S
C128 C127 1.379 . S
C128 C129 1.404 . S
C128 H142 0.929 . S
C129 C128 1.404 . S
C129 C130 1.389 . S
C130 C129 1.389 . S
C130 C131 1.399 . S
C130 H143 0.931 . S
C131 C130 1.399 . S
C131 C132 1.390 . S
C132 C127 1.392 . S
C132 C131 1.390 . S
C132 H144 0.929 . S
O133 Tb117 2.326 . S
O133 C121 1.242 . S
O134 Eu118 2.324 . S
O134 C121 1.258 . S
O135 Tb117 2.500 1_544 S
O135 C137 1.273 1_554 S
O136 Tb117 2.473 1_545 S
O136 C137 1.257 . S
C137 O135 1.273 1_556 S
C137 O136 1.257 . S
O138 Eu118 2.326 . S
O138 C126 1.242 . S
O139 Tb117 2.324 . S
O139 C126 1.258 . S
O140 Eu118 2.500 . S
O140 C123 1.273 . S
O141 Eu118 2.473 . S
O141 C123 1.257 . S
H142 C128 0.929 . S
H143 C130 0.931 . S
H144 C132 0.929 . S
O145 Tb146 2.292 . S
O145 C148 1.255 . S
Tb146 O145 2.292 . S
Tb146 O162 2.326 . S
Tb146 O164 2.500 . S
Tb146 O165 2.473 . S
Tb146 O168 2.324 . S
Eu147 O151 2.292 . S
Eu147 C152 2.852 . S
Eu147 O163 2.324 . S
Eu147 O167 2.326 . S
Eu147 O169 2.500 . S
Eu147 O170 2.473 . S
C148 O145 1.255 . S
C148 O149 1.247 . S
O149 C148 1.247 . S
C150 O162 1.242 . S
C150 O163 1.258 . S
O151 Eu147 2.292 . S
O151 C153 1.255 . S
C152 Eu147 2.852 . S
C152 C156 1.503 . S
C152 O169 1.273 . S
C152 O170 1.257 . S
C153 O151 1.255 . S
C153 O154 1.247 . S
O154 C153 1.247 . S
C155 O167 1.242 . S
C155 O168 1.258 . S
C156 C152 1.503 . S
C156 C157 1.379 . S
C156 C161 1.392 . S
C157 C156 1.379 . S
C157 C158 1.404 . S
C157 H171 0.929 . S
C158 C157 1.404 . S
C158 C159 1.389 . S
C159 C158 1.389 . S
C159 C160 1.399 . S
C159 H172 0.931 . S
C160 C159 1.399 . S
C160 C161 1.390 . S
C161 C156 1.392 . S
C161 C160 1.390 . S
C161 H173 0.929 . S
O162 Tb146 2.326 . S
O162 C150 1.242 . S
O163 Eu147 2.324 . S
O163 C150 1.258 . S
O164 Tb146 2.500 . S
O164 C166 1.273 . S
O165 Tb146 2.473 . S
O165 C166 1.257 . S
C166 O164 1.273 . S
C166 O165 1.257 . S
O167 Eu147 2.326 . S
O167 C155 1.242 . S
O168 Tb146 2.324 . S
O168 C155 1.258 . S
O169 Eu147 2.500 . S
O169 C152 1.273 . S
O170 Eu147 2.473 . S
O170 C152 1.257 . S
H171 C157 0.929 . S
H172 C159 0.931 . S
H173 C161 0.929 . S
O174 Tb175 2.292 . S
O174 C177 1.255 . S
Tb175 O174 2.292 . S
Tb175 O191 2.326 . S
Tb175 O193 2.500 1_545 S
Tb175 O194 2.473 1_545 S
Tb175 O197 2.324 . S
Eu176 O180 2.292 . S
Eu176 C181 2.852 . S
Eu176 O192 2.324 . S
Eu176 O196 2.326 . S
Eu176 O198 2.500 . S
Eu176 O199 2.473 . S
C177 O174 1.255 . S
C177 O178 1.247 . S
O178 C177 1.247 . S
C179 O191 1.242 . S
C179 O192 1.258 . S
O180 Eu176 2.292 . S
O180 C182 1.255 . S
C181 Eu176 2.852 . S
C181 C185 1.503 . S
C181 O198 1.273 . S
C181 O199 1.257 . S
C182 O180 1.255 . S
C182 O183 1.247 1_545 S
O183 C182 1.247 1_565 S
C184 O196 1.242 . S
C184 O197 1.258 . S
C185 C181 1.503 . S
C185 C186 1.379 . S
C185 C190 1.392 . S
C186 C185 1.379 . S
C186 C187 1.404 . S
C186 H200 0.929 . S
C187 C186 1.404 . S
C187 C188 1.389 . S
C188 C187 1.389 . S
C188 C189 1.399 . S
C188 H201 0.931 . S
C189 C188 1.399 . S
C189 C190 1.390 . S
C190 C185 1.392 . S
C190 C189 1.390 . S
C190 H202 0.929 . S
O191 Tb175 2.326 . S
O191 C179 1.242 . S
O192 Eu176 2.324 . S
O192 C179 1.258 . S
O193 Tb175 2.500 1_565 S
O193 C195 1.273 . S
O194 Tb175 2.473 1_565 S
O194 C195 1.257 . S
C195 O193 1.273 . S
C195 O194 1.257 . S
O196 Eu176 2.326 . S
O196 C184 1.242 . S
O197 Tb175 2.324 . S
O197 C184 1.258 . S
O198 Eu176 2.500 . S
O198 C181 1.273 . S
O199 Eu176 2.473 . S
O199 C181 1.257 . S
H200 C186 0.929 . S
H201 C188 0.931 . S
H202 C190 0.929 . S
O203 Tb204 2.292 . S
O203 C206 1.255 . S
Tb204 O203 2.292 . S
Tb204 O220 2.326 . S
Tb204 O222 2.500 . S
Tb204 O223 2.473 . S
Tb204 O226 2.324 . S
Eu205 O209 2.292 . S
Eu205 C210 2.852 . S
Eu205 O221 2.324 . S
Eu205 O225 2.326 . S
Eu205 O227 2.500 . S
Eu205 O228 2.473 . S
C206 O203 1.255 . S
C206 O207 1.247 . S
O207 C206 1.247 . S
C208 O220 1.242 . S
C208 O221 1.258 . S
O209 Eu205 2.292 . S
O209 C211 1.255 . S
C210 Eu205 2.852 . S
C210 C214 1.503 1_455 S
C210 O227 1.273 . S
C210 O228 1.257 . S
C211 O209 1.255 . S
C211 O212 1.247 . S
O212 C211 1.247 . S
C213 O225 1.242 . S
C213 O226 1.258 . S
C214 C210 1.503 1_655 S
C214 C215 1.379 . S
C214 C219 1.392 . S
C215 C214 1.379 . S
C215 C216 1.404 . S
C215 H229 0.929 . S
C216 C215 1.404 . S
C216 C217 1.389 . S
C217 C216 1.389 . S
C217 C218 1.399 . S
C217 H230 0.931 . S
C218 C217 1.399 . S
C218 C219 1.390 . S
C219 C214 1.392 . S
C219 C218 1.390 . S
C219 H231 0.929 . S
O220 Tb204 2.326 . S
O220 C208 1.242 . S
O221 Eu205 2.324 . S
O221 C208 1.258 . S
O222 Tb204 2.500 . S
O222 C224 1.273 . S
O223 Tb204 2.473 . S
O223 C224 1.257 . S
C224 O222 1.273 . S
C224 O223 1.257 . S
O225 Eu205 2.326 . S
O225 C213 1.242 . S
O226 Tb204 2.324 . S
O226 C213 1.258 . S
O227 Eu205 2.500 . S
O227 C210 1.273 . S
O228 Eu205 2.473 . S
O228 C210 1.257 . S
H229 C215 0.929 . S
H230 C217 0.931 . S
H231 C219 0.929 . S
O232 Tb233 2.292 . S
O232 C235 1.255 . S
Tb233 O232 2.292 . S
Tb233 O249 2.326 . S
Tb233 O251 2.500 . S
Tb233 O252 2.473 . S
Tb233 O255 2.324 . S
Eu234 O238 2.292 . S
Eu234 C239 2.852 . S
Eu234 O250 2.324 . S
Eu234 O254 2.326 . S
Eu234 O256 2.500 . S
Eu234 O257 2.473 . S
C235 O232 1.255 . S
C235 O236 1.247 . S
O236 C235 1.247 . S
C237 O249 1.242 . S
C237 O250 1.258 . S
O238 Eu234 2.292 . S
O238 C240 1.255 . S
C239 Eu234 2.852 . S
C239 C243 1.503 . S
C239 O256 1.273 . S
C239 O257 1.257 . S
C240 O238 1.255 . S
C240 O241 1.247 . S
O241 C240 1.247 . S
C242 O254 1.242 . S
C242 O255 1.258 . S
C243 C239 1.503 . S
C243 C244 1.379 . S
C243 C248 1.392 . S
C244 C243 1.379 . S
C244 C245 1.404 . S
C244 H258 0.929 . S
C245 C244 1.404 . S
C245 C246 1.389 . S
C246 C245 1.389 . S
C246 C247 1.399 . S
C246 H259 0.931 . S
C247 C246 1.399 . S
C247 C248 1.390 . S
C248 C243 1.392 . S
C248 C247 1.390 . S
C248 H260 0.929 . S
O249 Tb233 2.326 . S
O249 C237 1.242 . S
O250 Eu234 2.324 . S
O250 C237 1.258 . S
O251 Tb233 2.500 . S
O251 C253 1.273 . S
O252 Tb233 2.473 . S
O252 C253 1.257 . S
C253 O251 1.273 . S
C253 O252 1.257 . S
O254 Eu234 2.326 . S
O254 C242 1.242 . S
O255 Tb233 2.324 . S
O255 C242 1.258 . S
O256 Eu234 2.500 . S
O256 C239 1.273 . S
O257 Eu234 2.473 . S
O257 C239 1.257 . S
H258 C244 0.929 . S
H259 C246 0.931 . S
H260 C248 0.929 . S
O261 Tb262 2.292 1_545 S
O261 C264 1.255 . S
Tb262 O261 2.292 1_565 S
Tb262 O278 2.326 1_565 S
Tb262 O280 2.500 1_565 S
Tb262 O281 2.473 1_565 S
Tb262 O284 2.324 . S
Eu263 O267 2.292 . S
Eu263 C268 2.852 . S
Eu263 O279 2.324 . S
Eu263 O283 2.326 . S
Eu263 O285 2.500 . S
Eu263 O286 2.473 . S
C264 O261 1.255 . S
C264 O265 1.247 . S
O265 C264 1.247 . S
C266 O278 1.242 . S
C266 O279 1.258 . S
O267 Eu263 2.292 . S
O267 C269 1.255 . S
C268 Eu263 2.852 . S
C268 C272 1.503 1_455 S
C268 O285 1.273 . S
C268 O286 1.257 . S
C269 O267 1.255 . S
C269 O270 1.247 . S
O270 C269 1.247 . S
C271 O283 1.242 1_565 S
C271 O284 1.258 . S
C272 C268 1.503 1_655 S
C272 C273 1.379 . S
C272 C277 1.392 . S
C273 C272 1.379 . S
C273 C274 1.404 . S
C273 H287 0.929 . S
C274 C273 1.404 . S
C274 C275 1.389 . S
C275 C274 1.389 . S
C275 C276 1.399 . S
C275 H288 0.931 1_545 S
C276 C275 1.399 . S
C276 C277 1.390 . S
C277 C272 1.392 . S
C277 C276 1.390 . S
C277 H289 0.929 . S
O278 Tb262 2.326 1_545 S
O278 C266 1.242 . S
O279 Eu263 2.324 . S
O279 C266 1.258 . S
O280 Tb262 2.500 1_545 S
O280 C282 1.273 . S
O281 Tb262 2.473 1_545 S
O281 C282 1.257 . S
C282 O280 1.273 . S
C282 O281 1.257 . S
O283 Eu263 2.326 . S
O283 C271 1.242 1_545 S
O284 Tb262 2.324 . S
O284 C271 1.258 . S
O285 Eu263 2.500 . S
O285 C268 1.273 . S
O286 Eu263 2.473 . S
O286 C268 1.257 . S
H287 C273 0.929 . S
H288 C275 0.931 1_565 S
H289 C277 0.929 . S
O290 Tb291 2.292 1_556 S
O290 C293 1.255 . S
Tb291 O290 2.292 1_554 S
Tb291 O307 2.326 . S
Tb291 O309 2.500 1_554 S
Tb291 O310 2.473 . S
Tb291 O313 2.324 . S
Eu292 O296 2.292 . S
Eu292 C297 2.852 . S
Eu292 O308 2.324 . S
Eu292 O312 2.326 . S
Eu292 O314 2.500 . S
Eu292 O315 2.473 . S
C293 O290 1.255 . S
C293 O294 1.247 . S
O294 C293 1.247 . S
C295 O307 1.242 . S
C295 O308 1.258 . S
O296 Eu292 2.292 . S
O296 C298 1.255 . S
C297 Eu292 2.852 . S
C297 C301 1.503 . S
C297 O314 1.273 . S
C297 O315 1.257 . S
C298 O296 1.255 . S
C298 O299 1.247 . S
O299 C298 1.247 . S
C300 O312 1.242 . S
C300 O313 1.258 . S
C301 C297 1.503 . S
C301 C302 1.379 . S
C301 C306 1.392 . S
C302 C301 1.379 . S
C302 C303 1.404 . S
C302 H316 0.929 . S
C303 C302 1.404 . S
C303 C304 1.389 . S
C304 C303 1.389 . S
C304 C305 1.399 . S
C304 H317 0.931 . S
C305 C304 1.399 . S
C305 C306 1.390 . S
C306 C301 1.392 . S
C306 C305 1.390 . S
C306 H318 0.929 . S
O307 Tb291 2.326 . S
O307 C295 1.242 . S
O308 Eu292 2.324 . S
O308 C295 1.258 . S
O309 Tb291 2.500 1_556 S
O309 C311 1.273 1_556 S
O310 Tb291 2.473 . S
O310 C311 1.257 . S
C311 O309 1.273 1_554 S
C311 O310 1.257 . S
O312 Eu292 2.326 . S
O312 C300 1.242 . S
O313 Tb291 2.324 . S
O313 C300 1.258 . S
O314 Eu292 2.500 . S
O314 C297 1.273 . S
O315 Eu292 2.473 . S
O315 C297 1.257 . S
H316 C302 0.929 . S
H317 C304 0.931 . S
H318 C306 0.929 . S
O319 Tb320 2.292 1_565 S
O319 C322 1.255 . S
Tb320 O319 2.292 1_545 S
Tb320 O336 2.326 1_545 S
Tb320 O338 2.500 1_545 S
Tb320 O339 2.473 1_545 S
Tb320 O342 2.324 . S
Eu321 O325 2.292 . S
Eu321 C326 2.852 . S
Eu321 O337 2.324 . S
Eu321 O341 2.326 . S
Eu321 O343 2.500 . S
Eu321 O344 2.473 . S
C322 O319 1.255 . S
C322 O323 1.247 . S
O323 C322 1.247 . S
C324 O336 1.242 . S
C324 O337 1.258 . S
O325 Eu321 2.292 . S
O325 C327 1.255 . S
C326 Eu321 2.852 . S
C326 C330 1.503 . S
C326 O343 1.273 . S
C326 O344 1.257 . S
C327 O325 1.255 . S
C327 O328 1.247 . S
O328 C327 1.247 . S
C329 O341 1.242 1_545 S
C329 O342 1.258 . S
C330 C326 1.503 . S
C330 C331 1.379 . S
C330 C335 1.392 . S
C331 C330 1.379 . S
C331 C332 1.404 . S
C331 H345 0.929 . S
C332 C331 1.404 . S
C332 C333 1.389 . S
C333 C332 1.389 . S
C333 C334 1.399 . S
C333 H346 0.931 1_565 S
C334 C333 1.399 . S
C334 C335 1.390 . S
C335 C330 1.392 . S
C335 C334 1.390 . S
C335 H347 0.929 . S
O336 Tb320 2.326 1_565 S
O336 C324 1.242 . S
O337 Eu321 2.324 . S
O337 C324 1.258 . S
O338 Tb320 2.500 1_565 S
O338 C340 1.273 . S
O339 Tb320 2.473 1_565 S
O339 C340 1.257 . S
C340 O338 1.273 . S
C340 O339 1.257 . S
O341 Eu321 2.326 . S
O341 C329 1.242 1_565 S
O342 Tb320 2.324 . S
O342 C329 1.258 . S
O343 Eu321 2.500 . S
O343 C326 1.273 . S
O344 Eu321 2.473 . S
O344 C326 1.257 . S
H345 C331 0.929 . S
H346 C333 0.931 1_545 S
H347 C335 0.929 . S
O348 Tb349 2.292 . S
O348 C351 1.255 . S
Tb349 O348 2.292 . S
Tb349 O365 2.326 . S
Tb349 O367 2.500 . S
Tb349 O368 2.473 . S
Tb349 O371 2.324 . S
Eu350 O354 2.292 . S
Eu350 C355 2.852 . S
Eu350 O366 2.324 . S
Eu350 O370 2.326 . S
Eu350 O372 2.500 . S
Eu350 O373 2.473 . S
C351 O348 1.255 . S
C351 O352 1.247 . S
O352 C351 1.247 . S
C353 O365 1.242 . S
C353 O366 1.258 . S
O354 Eu350 2.292 . S
O354 C356 1.255 . S
C355 Eu350 2.852 . S
C355 C359 1.503 . S
C355 O372 1.273 . S
C355 O373 1.257 . S
C356 O354 1.255 . S
C356 O357 1.247 . S
O357 C356 1.247 . S
C358 O370 1.242 . S
C358 O371 1.258 . S
C359 C355 1.503 . S
C359 C360 1.379 . S
C359 C364 1.392 . S
C360 C359 1.379 . S
C360 C361 1.404 . S
C360 H374 0.929 . S
C361 C360 1.404 . S
C361 C362 1.389 . S
C362 C361 1.389 . S
C362 C363 1.399 . S
C362 H375 0.931 . S
C363 C362 1.399 . S
C363 C364 1.390 . S
C364 C359 1.392 . S
C364 C363 1.390 . S
C364 H376 0.929 . S
O365 Tb349 2.326 . S
O365 C353 1.242 . S
O366 Eu350 2.324 . S
O366 C353 1.258 . S
O367 Tb349 2.500 . S
O367 C369 1.273 . S
O368 Tb349 2.473 . S
O368 C369 1.257 . S
C369 O367 1.273 . S
C369 O368 1.257 . S
O370 Eu350 2.326 . S
O370 C358 1.242 . S
O371 Tb349 2.324 . S
O371 C358 1.258 . S
O372 Eu350 2.500 . S
O372 C355 1.273 . S
O373 Eu350 2.473 . S
O373 C355 1.257 . S
H374 C360 0.929 . S
H375 C362 0.931 . S
H376 C364 0.929 . S
O377 Tb378 2.292 1_565 S
O377 C380 1.255 . S
Tb378 O377 2.292 1_545 S
Tb378 O394 2.326 1_545 S
Tb378 O396 2.500 1_545 S
Tb378 O397 2.473 1_545 S
Tb378 O400 2.324 . S
Eu379 O383 2.292 . S
Eu379 C384 2.852 . S
Eu379 O395 2.324 . S
Eu379 O399 2.326 . S
Eu379 O401 2.500 . S
Eu379 O402 2.473 . S
C380 O377 1.255 . S
C380 O381 1.247 . S
O381 C380 1.247 . S
C382 O394 1.242 . S
C382 O395 1.258 . S
O383 Eu379 2.292 . S
O383 C385 1.255 . S
C384 Eu379 2.852 . S
C384 C388 1.503 1_655 S
C384 O401 1.273 . S
C384 O402 1.257 . S
C385 O383 1.255 . S
C385 O386 1.247 . S
O386 C385 1.247 . S
C387 O399 1.242 1_545 S
C387 O400 1.258 . S
C388 C384 1.503 1_455 S
C388 C389 1.379 . S
C388 C393 1.392 . S
C389 C388 1.379 . S
C389 C390 1.404 . S
C389 H403 0.929 . S
C390 C389 1.404 . S
C390 C391 1.389 . S
C391 C390 1.389 . S
C391 C392 1.399 . S
C391 H404 0.931 1_565 S
C392 C391 1.399 . S
C392 C393 1.390 . S
C393 C388 1.392 . S
C393 C392 1.390 . S
C393 H405 0.929 . S
O394 Tb378 2.326 1_565 S
O394 C382 1.242 . S
O395 Eu379 2.324 . S
O395 C382 1.258 . S
O396 Tb378 2.500 1_565 S
O396 C398 1.273 . S
O397 Tb378 2.473 1_565 S
O397 C398 1.257 . S
C398 O396 1.273 . S
C398 O397 1.257 . S
O399 Eu379 2.326 . S
O399 C387 1.242 1_565 S
O400 Tb378 2.324 . S
O400 C387 1.258 . S
O401 Eu379 2.500 . S
O401 C384 1.273 . S
O402 Eu379 2.473 . S
O402 C384 1.257 . S
H403 C389 0.929 . S
H404 C391 0.931 1_545 S
H405 C393 0.929 . S
O406 Tb407 2.292 1_554 S
O406 C409 1.255 . S
Tb407 O406 2.292 1_556 S
Tb407 O423 2.326 . S
Tb407 O425 2.500 1_556 S
Tb407 O426 2.473 . S
Tb407 O429 2.324 . S
Eu408 O412 2.292 . S
Eu408 C413 2.852 . S
Eu408 O424 2.324 . S
Eu408 O428 2.326 . S
Eu408 O430 2.500 . S
Eu408 O431 2.473 . S
C409 O406 1.255 . S
C409 O410 1.247 . S
O410 C409 1.247 . S
C411 O423 1.242 . S
C411 O424 1.258 . S
O412 Eu408 2.292 . S
O412 C414 1.255 . S
C413 Eu408 2.852 . S
C413 C417 1.503 . S
C413 O430 1.273 . S
C413 O431 1.257 . S
C414 O412 1.255 . S
C414 O415 1.247 . S
O415 C414 1.247 . S
C416 O428 1.242 . S
C416 O429 1.258 . S
C417 C413 1.503 . S
C417 C418 1.379 . S
C417 C422 1.392 . S
C418 C417 1.379 . S
C418 C419 1.404 . S
C418 H432 0.929 . S
C419 C418 1.404 . S
C419 C420 1.389 . S
C420 C419 1.389 . S
C420 C421 1.399 . S
C420 H433 0.931 . S
C421 C420 1.399 . S
C421 C422 1.390 . S
C422 C417 1.392 . S
C422 C421 1.390 . S
C422 H434 0.929 . S
O423 Tb407 2.326 . S
O423 C411 1.242 . S
O424 Eu408 2.324 . S
O424 C411 1.258 . S
O425 Tb407 2.500 1_554 S
O425 C427 1.273 1_554 S
O426 Tb407 2.473 . S
O426 C427 1.257 . S
C427 O425 1.273 1_556 S
C427 O426 1.257 . S
O428 Eu408 2.326 . S
O428 C416 1.242 . S
O429 Tb407 2.324 . S
O429 C416 1.258 . S
O430 Eu408 2.500 . S
O430 C413 1.273 . S
O431 Eu408 2.473 . S
O431 C413 1.257 . S
H432 C418 0.929 . S
H433 C420 0.931 . S
H434 C422 0.929 . S
O435 Tb436 2.292 1_545 S
O435 C438 1.255 . S
Tb436 O435 2.292 1_565 S
Tb436 O452 2.326 1_565 S
Tb436 O454 2.500 1_565 S
Tb436 O455 2.473 1_565 S
Tb436 O458 2.324 . S
Eu437 O441 2.292 . S
Eu437 C442 2.852 . S
Eu437 O453 2.324 . S
Eu437 O457 2.326 . S
Eu437 O459 2.500 . S
Eu437 O460 2.473 . S
C438 O435 1.255 . S
C438 O439 1.247 . S
O439 C438 1.247 . S
C440 O452 1.242 . S
C440 O453 1.258 . S
O441 Eu437 2.292 . S
O441 C443 1.255 . S
C442 Eu437 2.852 . S
C442 C446 1.503 . S
C442 O459 1.273 . S
C442 O460 1.257 . S
C443 O441 1.255 . S
C443 O444 1.247 . S
O444 C443 1.247 . S
C445 O457 1.242 1_565 S
C445 O458 1.258 . S
C446 C442 1.503 . S
C446 C447 1.379 . S
C446 C451 1.392 . S
C447 C446 1.379 . S
C447 C448 1.404 . S
C447 H461 0.929 . S
C448 C447 1.404 . S
C448 C449 1.389 . S
C449 C448 1.389 . S
C449 C450 1.399 . S
C449 H462 0.931 1_545 S
C450 C449 1.399 . S
C450 C451 1.390 . S
C451 C446 1.392 . S
C451 C450 1.390 . S
C451 H463 0.929 . S
O452 Tb436 2.326 1_545 S
O452 C440 1.242 . S
O453 Eu437 2.324 . S
O453 C440 1.258 . S
O454 Tb436 2.500 1_545 S
O454 C456 1.273 . S
O455 Tb436 2.473 1_545 S
O455 C456 1.257 . S
C456 O454 1.273 . S
C456 O455 1.257 . S
O457 Eu437 2.326 . S
O457 C445 1.242 1_545 S
O458 Tb436 2.324 . S
O458 C445 1.258 . S
O459 Eu437 2.500 . S
O459 C442 1.273 . S
O460 Eu437 2.473 . S
O460 C442 1.257 . S
H461 C447 0.929 . S
H462 C449 0.931 1_565 S
H463 C451 0.929 . S
C269 C3 1.092 . S
C298 C32 1.092 . S
C327 C61 1.092 . S
C240 C90 1.092 . S
C119 C385 1.092 . S
C414 C148 1.092 . S
C443 C177 1.092 . S
C206 C356 1.092 . S
C37 C235 1.092 . S
C66 C264 1.092 1_565 S
C293 C95 1.092 . S
C8 C322 1.092 1_545 S
C153 C351 1.092 . S
C380 C182 1.092 1_565 S
C409 C211 1.092 . S
C124 C438 1.092 1_565 S
C213 C15 3.141 . S
C44 C358 3.141 . S
C73 C155 3.141 . S
C416 C102 3.141 . S
C97 C131 3.141 . S
C242 C160 3.141 . S
C39 C189 3.141 . S
C300 C218 3.141 . S
C247 C445 3.141 . S
C276 C126 3.141 1_545 S
C387 C305 3.141 . S
C184 C334 3.141 1_545 S
C363 C329 3.141 . S
C392 C10 3.141 1_565 S
C421 C271 3.141 . S
C450 C68 3.141 1_545 S
C121 C5 3.280 1_566 S
C34 C382 3.280 . S
C179 C63 3.280 1_645 S
C440 C92 3.280 . S
C266 C150 3.280 . S
C208 C324 3.280 . S
C237 C353 3.280 1_655 S
C295 C411 3.280 1_554 S
C419 C21 2.164 1_556 S
C216 C50 2.164 . S
C79 C361 2.164 . S
C158 C108 2.164 . S
C137 C303 2.164 1_556 S
C166 C100 2.164 . S
C195 C245 2.164 . S
C42 C224 2.164 . S
C253 C187 2.164 . S
C448 C282 2.164 . S
C311 C129 2.164 1_554 S
C340 C390 2.164 . S
C71 C369 2.164 . S
C398 C332 2.164 . S
C427 C13 2.164 1_556 S
C456 C274 2.164 . S
