# Generated by pormake.
# Topology wnd, (6)-cn, num edge types: 1
# Building blocks:
#     Node 0, Type 0, BuildingBlock: GEDQOX_clean_sbu_0, # of connection points: 6
#     Node 1, Type 0, BuildingBlock: GEDQOX_clean_sbu_0, # of connection points: 6
#     Node 2, Type 0, BuildingBlock: GEDQOX_clean_sbu_0, # of connection points: 6
#     Node 3, Type 0, BuildingBlock: GEDQOX_clean_sbu_0, # of connection points: 6
#     Node 4, Type 0, BuildingBlock: GEDQOX_clean_sbu_0, # of connection points: 6
#     Node 5, Type 0, BuildingBlock: GEDQOX_clean_sbu_0, # of connection points: 6
#     Node 6, Type 0, BuildingBlock: GEDQOX_clean_sbu_0, # of connection points: 6
#     Node 7, Type 0, BuildingBlock: GEDQOX_clean_sbu_0, # of connection points: 6
#     Node 8, Type 0, BuildingBlock: GEDQOX_clean_sbu_0, # of connection points: 6
#     Node 9, Type 0, BuildingBlock: GEDQOX_clean_sbu_0, # of connection points: 6
#     Node 10, Type 0, BuildingBlock: GEDQOX_clean_sbu_0, # of connection points: 6
#     Node 11, Type 0, BuildingBlock: GEDQOX_clean_sbu_0, # of connection points: 6
#     Node 12, Type 0, BuildingBlock: GEDQOX_clean_sbu_0, # of connection points: 6
#     Node 13, Type 0, BuildingBlock: GEDQOX_clean_sbu_0, # of connection points: 6
#     Node 14, Type 0, BuildingBlock: GEDQOX_clean_sbu_0, # of connection points: 6
#     Node 15, Type 0, BuildingBlock: GEDQOX_clean_sbu_0, # of connection points: 6
#     Node 16, Type 0, BuildingBlock: GEDQOX_clean_sbu_0, # of connection points: 6
#     Node 17, Type 0, BuildingBlock: GEDQOX_clean_sbu_0, # of connection points: 6
#     Node 18, Type 0, BuildingBlock: GEDQOX_clean_sbu_0, # of connection points: 6
#     Node 19, Type 0, BuildingBlock: GEDQOX_clean_sbu_0, # of connection points: 6
#     Node 20, Type 0, BuildingBlock: GEDQOX_clean_sbu_0, # of connection points: 6
#     Node 21, Type 0, BuildingBlock: GEDQOX_clean_sbu_0, # of connection points: 6
#     Node 22, Type 0, BuildingBlock: GEDQOX_clean_sbu_0, # of connection points: 6
#     Node 23, Type 0, BuildingBlock: GEDQOX_clean_sbu_0, # of connection points: 6
#     Node 24, Type 0, BuildingBlock: GEDQOX_clean_sbu_0, # of connection points: 6
#     Node 25, Type 0, BuildingBlock: GEDQOX_clean_sbu_0, # of connection points: 6
#     Node 26, Type 0, BuildingBlock: GEDQOX_clean_sbu_0, # of connection points: 6
#     Node 27, Type 0, BuildingBlock: GEDQOX_clean_sbu_0, # of connection points: 6
#     Node 28, Type 0, BuildingBlock: GEDQOX_clean_sbu_0, # of connection points: 6
#     Node 29, Type 0, BuildingBlock: GEDQOX_clean_sbu_0, # of connection points: 6
#     Node 30, Type 0, BuildingBlock: GEDQOX_clean_sbu_0, # of connection points: 6
#     Node 31, Type 0, BuildingBlock: GEDQOX_clean_sbu_0, # of connection points: 6
#     Node 32, Type 0, BuildingBlock: GEDQOX_clean_sbu_0, # of connection points: 6
#     Node 33, Type 0, BuildingBlock: GEDQOX_clean_sbu_0, # of connection points: 6
#     Node 34, Type 0, BuildingBlock: GEDQOX_clean_sbu_0, # of connection points: 6
#     Node 35, Type 0, BuildingBlock: GEDQOX_clean_sbu_0, # of connection points: 6
#     Edge 36, Type (0, 0), BuildingBlock: UVAHIK_clean_linker_0, # of connection points: 2
#     Edge 37, Type (0, 0), BuildingBlock: UVAHIK_clean_linker_0, # of connection points: 2
#     Edge 38, Type (0, 0), BuildingBlock: UVAHIK_clean_linker_0, # of connection points: 2
#     Edge 39, Type (0, 0), BuildingBlock: UVAHIK_clean_linker_0, # of connection points: 2
#     Edge 40, Type (0, 0), BuildingBlock: UVAHIK_clean_linker_0, # of connection points: 2
#     Edge 41, Type (0, 0), BuildingBlock: UVAHIK_clean_linker_0, # of connection points: 2
#     Edge 42, Type (0, 0), BuildingBlock: UVAHIK_clean_linker_0, # of connection points: 2
#     Edge 43, Type (0, 0), BuildingBlock: UVAHIK_clean_linker_0, # of connection points: 2
#     Edge 44, Type (0, 0), BuildingBlock: UVAHIK_clean_linker_0, # of connection points: 2
#     Edge 45, Type (0, 0), BuildingBlock: UVAHIK_clean_linker_0, # of connection points: 2
#     Edge 46, Type (0, 0), BuildingBlock: UVAHIK_clean_linker_0, # of connection points: 2
#     Edge 47, Type (0, 0), BuildingBlock: UVAHIK_clean_linker_0, # of connection points: 2
#     Edge 48, Type (0, 0), BuildingBlock: UVAHIK_clean_linker_0, # of connection points: 2
#     Edge 49, Type (0, 0), BuildingBlock: UVAHIK_clean_linker_0, # of connection points: 2
#     Edge 50, Type (0, 0), BuildingBlock: UVAHIK_clean_linker_0, # of connection points: 2
#     Edge 51, Type (0, 0), BuildingBlock: UVAHIK_clean_linker_0, # of connection points: 2
#     Edge 52, Type (0, 0), BuildingBlock: UVAHIK_clean_linker_0, # of connection points: 2
#     Edge 53, Type (0, 0), BuildingBlock: UVAHIK_clean_linker_0, # of connection points: 2
#     Edge 54, Type (0, 0), BuildingBlock: UVAHIK_clean_linker_0, # of connection points: 2
#     Edge 55, Type (0, 0), BuildingBlock: UVAHIK_clean_linker_0, # of connection points: 2
#     Edge 56, Type (0, 0), BuildingBlock: UVAHIK_clean_linker_0, # of connection points: 2
#     Edge 57, Type (0, 0), BuildingBlock: UVAHIK_clean_linker_0, # of connection points: 2
#     Edge 58, Type (0, 0), BuildingBlock: UVAHIK_clean_linker_0, # of connection points: 2
#     Edge 59, Type (0, 0), BuildingBlock: UVAHIK_clean_linker_0, # of connection points: 2
#     Edge 60, Type (0, 0), BuildingBlock: UVAHIK_clean_linker_0, # of connection points: 2
#     Edge 61, Type (0, 0), BuildingBlock: UVAHIK_clean_linker_0, # of connection points: 2
#     Edge 62, Type (0, 0), BuildingBlock: UVAHIK_clean_linker_0, # of connection points: 2
#     Edge 63, Type (0, 0), BuildingBlock: UVAHIK_clean_linker_0, # of connection points: 2
#     Edge 64, Type (0, 0), BuildingBlock: UVAHIK_clean_linker_0, # of connection points: 2
#     Edge 65, Type (0, 0), BuildingBlock: UVAHIK_clean_linker_0, # of connection points: 2
#     Edge 66, Type (0, 0), BuildingBlock: UVAHIK_clean_linker_0, # of connection points: 2
#     Edge 67, Type (0, 0), BuildingBlock: UVAHIK_clean_linker_0, # of connection points: 2
#     Edge 68, Type (0, 0), BuildingBlock: UVAHIK_clean_linker_0, # of connection points: 2
#     Edge 69, Type (0, 0), BuildingBlock: UVAHIK_clean_linker_0, # of connection points: 2
#     Edge 70, Type (0, 0), BuildingBlock: UVAHIK_clean_linker_0, # of connection points: 2
#     Edge 71, Type (0, 0), BuildingBlock: UVAHIK_clean_linker_0, # of connection points: 2
#     Edge 72, Type (0, 0), BuildingBlock: UVAHIK_clean_linker_0, # of connection points: 2
#     Edge 73, Type (0, 0), BuildingBlock: UVAHIK_clean_linker_0, # of connection points: 2
#     Edge 74, Type (0, 0), BuildingBlock: UVAHIK_clean_linker_0, # of connection points: 2
#     Edge 75, Type (0, 0), BuildingBlock: UVAHIK_clean_linker_0, # of connection points: 2
#     Edge 76, Type (0, 0), BuildingBlock: UVAHIK_clean_linker_0, # of connection points: 2
#     Edge 77, Type (0, 0), BuildingBlock: UVAHIK_clean_linker_0, # of connection points: 2
#     Edge 78, Type (0, 0), BuildingBlock: UVAHIK_clean_linker_0, # of connection points: 2
#     Edge 79, Type (0, 0), BuildingBlock: UVAHIK_clean_linker_0, # of connection points: 2
#     Edge 80, Type (0, 0), BuildingBlock: UVAHIK_clean_linker_0, # of connection points: 2
#     Edge 81, Type (0, 0), BuildingBlock: UVAHIK_clean_linker_0, # of connection points: 2
#     Edge 82, Type (0, 0), BuildingBlock: UVAHIK_clean_linker_0, # of connection points: 2
#     Edge 83, Type (0, 0), BuildingBlock: UVAHIK_clean_linker_0, # of connection points: 2
#     Edge 84, Type (0, 0), BuildingBlock: UVAHIK_clean_linker_0, # of connection points: 2
#     Edge 85, Type (0, 0), BuildingBlock: UVAHIK_clean_linker_0, # of connection points: 2
#     Edge 86, Type (0, 0), BuildingBlock: UVAHIK_clean_linker_0, # of connection points: 2
#     Edge 87, Type (0, 0), BuildingBlock: UVAHIK_clean_linker_0, # of connection points: 2
#     Edge 88, Type (0, 0), BuildingBlock: UVAHIK_clean_linker_0, # of connection points: 2
#     Edge 89, Type (0, 0), BuildingBlock: UVAHIK_clean_linker_0, # of connection points: 2
#     Edge 90, Type (0, 0), BuildingBlock: UVAHIK_clean_linker_0, # of connection points: 2
#     Edge 91, Type (0, 0), BuildingBlock: UVAHIK_clean_linker_0, # of connection points: 2
#     Edge 92, Type (0, 0), BuildingBlock: UVAHIK_clean_linker_0, # of connection points: 2
#     Edge 93, Type (0, 0), BuildingBlock: UVAHIK_clean_linker_0, # of connection points: 2
#     Edge 94, Type (0, 0), BuildingBlock: UVAHIK_clean_linker_0, # of connection points: 2
#     Edge 95, Type (0, 0), BuildingBlock: UVAHIK_clean_linker_0, # of connection points: 2
#     Edge 96, Type (0, 0), BuildingBlock: UVAHIK_clean_linker_0, # of connection points: 2
#     Edge 97, Type (0, 0), BuildingBlock: UVAHIK_clean_linker_0, # of connection points: 2
#     Edge 98, Type (0, 0), BuildingBlock: UVAHIK_clean_linker_0, # of connection points: 2
#     Edge 99, Type (0, 0), BuildingBlock: UVAHIK_clean_linker_0, # of connection points: 2
#     Edge 100, Type (0, 0), BuildingBlock: UVAHIK_clean_linker_0, # of connection points: 2
#     Edge 101, Type (0, 0), BuildingBlock: UVAHIK_clean_linker_0, # of connection points: 2
#     Edge 102, Type (0, 0), BuildingBlock: UVAHIK_clean_linker_0, # of connection points: 2
#     Edge 103, Type (0, 0), BuildingBlock: UVAHIK_clean_linker_0, # of connection points: 2
#     Edge 104, Type (0, 0), BuildingBlock: UVAHIK_clean_linker_0, # of connection points: 2
#     Edge 105, Type (0, 0), BuildingBlock: UVAHIK_clean_linker_0, # of connection points: 2
#     Edge 106, Type (0, 0), BuildingBlock: UVAHIK_clean_linker_0, # of connection points: 2
#     Edge 107, Type (0, 0), BuildingBlock: UVAHIK_clean_linker_0, # of connection points: 2
#     Edge 108, Type (0, 0), BuildingBlock: UVAHIK_clean_linker_0, # of connection points: 2
#     Edge 109, Type (0, 0), BuildingBlock: UVAHIK_clean_linker_0, # of connection points: 2
#     Edge 110, Type (0, 0), BuildingBlock: UVAHIK_clean_linker_0, # of connection points: 2
#     Edge 111, Type (0, 0), BuildingBlock: UVAHIK_clean_linker_0, # of connection points: 2
#     Edge 112, Type (0, 0), BuildingBlock: UVAHIK_clean_linker_0, # of connection points: 2
#     Edge 113, Type (0, 0), BuildingBlock: UVAHIK_clean_linker_0, # of connection points: 2
#     Edge 114, Type (0, 0), BuildingBlock: UVAHIK_clean_linker_0, # of connection points: 2
#     Edge 115, Type (0, 0), BuildingBlock: UVAHIK_clean_linker_0, # of connection points: 2
#     Edge 116, Type (0, 0), BuildingBlock: UVAHIK_clean_linker_0, # of connection points: 2
#     Edge 117, Type (0, 0), BuildingBlock: UVAHIK_clean_linker_0, # of connection points: 2
#     Edge 118, Type (0, 0), BuildingBlock: UVAHIK_clean_linker_0, # of connection points: 2
#     Edge 119, Type (0, 0), BuildingBlock: UVAHIK_clean_linker_0, # of connection points: 2
#     Edge 120, Type (0, 0), BuildingBlock: UVAHIK_clean_linker_0, # of connection points: 2
#     Edge 121, Type (0, 0), BuildingBlock: UVAHIK_clean_linker_0, # of connection points: 2
#     Edge 122, Type (0, 0), BuildingBlock: UVAHIK_clean_linker_0, # of connection points: 2
#     Edge 123, Type (0, 0), BuildingBlock: UVAHIK_clean_linker_0, # of connection points: 2
#     Edge 124, Type (0, 0), BuildingBlock: UVAHIK_clean_linker_0, # of connection points: 2
#     Edge 125, Type (0, 0), BuildingBlock: UVAHIK_clean_linker_0, # of connection points: 2
#     Edge 126, Type (0, 0), BuildingBlock: UVAHIK_clean_linker_0, # of connection points: 2
#     Edge 127, Type (0, 0), BuildingBlock: UVAHIK_clean_linker_0, # of connection points: 2
#     Edge 128, Type (0, 0), BuildingBlock: UVAHIK_clean_linker_0, # of connection points: 2
#     Edge 129, Type (0, 0), BuildingBlock: UVAHIK_clean_linker_0, # of connection points: 2
#     Edge 130, Type (0, 0), BuildingBlock: UVAHIK_clean_linker_0, # of connection points: 2
#     Edge 131, Type (0, 0), BuildingBlock: UVAHIK_clean_linker_0, # of connection points: 2
#     Edge 132, Type (0, 0), BuildingBlock: UVAHIK_clean_linker_0, # of connection points: 2
#     Edge 133, Type (0, 0), BuildingBlock: UVAHIK_clean_linker_0, # of connection points: 2
#     Edge 134, Type (0, 0), BuildingBlock: UVAHIK_clean_linker_0, # of connection points: 2
#     Edge 135, Type (0, 0), BuildingBlock: UVAHIK_clean_linker_0, # of connection points: 2
#     Edge 136, Type (0, 0), BuildingBlock: UVAHIK_clean_linker_0, # of connection points: 2
#     Edge 137, Type (0, 0), BuildingBlock: UVAHIK_clean_linker_0, # of connection points: 2
#     Edge 138, Type (0, 0), BuildingBlock: UVAHIK_clean_linker_0, # of connection points: 2
#     Edge 139, Type (0, 0), BuildingBlock: UVAHIK_clean_linker_0, # of connection points: 2
#     Edge 140, Type (0, 0), BuildingBlock: UVAHIK_clean_linker_0, # of connection points: 2
#     Edge 141, Type (0, 0), BuildingBlock: UVAHIK_clean_linker_0, # of connection points: 2
#     Edge 142, Type (0, 0), BuildingBlock: UVAHIK_clean_linker_0, # of connection points: 2
#     Edge 143, Type (0, 0), BuildingBlock: UVAHIK_clean_linker_0, # of connection points: 2
# Relax obj value: 0.091
# Max RMSD: 0.193
# Mean RMSD: 0.193
data_MOF--net-wnd--node1-GEDQOX_clean_sbu_0--edge1-UVAHIK_clean_linker_0
_symmetry_space_group_name_H-M    P1
_symmetry_Int_Tables_number       1
_symmetry_cell_setting            triclinic
loop_
_symmetry_equiv_pos_as_xyz
'x, y, z'
_cell_length_a     49.743249
_cell_length_b     49.823753
_cell_length_c     208.25393
_cell_angle_alpha  89.9913
_cell_angle_beta   90.02226
_cell_angle_gamma 119.9514
loop_
_atom_site_label
_atom_site_type_symbol
_atom_site_fract_x
_atom_site_fract_y
_atom_site_fract_z
_atom_type_partial_charge
Nd0 Nd 0.54386 0.06401 0.05553 0.0
Nd1 Nd 0.47193 0.01386 0.05118 0.0
C2 C 0.59571 0.10494 0.06134 0.0
C3 C 0.6276 0.12923 0.05955 0.0
C4 C 0.64031 0.15865 0.06237 0.0
C5 C 0.67001 0.18236 0.06068 0.0
C6 C 0.68789 0.17724 0.05612 0.0
C7 C 0.67526 0.14759 0.05335 0.0
C8 C 0.64537 0.12387 0.05502 0.0
C9 C 0.53901 0.05644 0.04222 0.0
C10 C 0.49463 0.08741 0.05195 0.0
C11 C 0.42166 0.97114 0.04513 0.0
C12 C 0.39623 0.93904 0.0464 0.0
C13 C 0.3778 0.92061 0.0413 0.0
C14 C 0.35407 0.89 0.04237 0.0
C15 C 0.34809 0.87691 0.04857 0.0
C16 C 0.36678 0.89557 0.05367 0.0
C17 C 0.39056 0.92622 0.0526 0.0
C18 C 0.47573 0.02708 0.06433 0.0
C19 C 0.52061 0.98916 0.0554 0.0
O20 O 0.57336 0.11047 0.05985 0.0
O21 O 0.58802 0.0759 0.06046 0.0
O22 O 0.56453 0.07473 0.04523 0.0
O23 O 0.51781 0.04359 0.04634 0.0
O24 O 0.51752 0.09077 0.05572 0.0
O25 O 0.47707 0.06162 0.04862 0.0
O26 O 0.44936 0.97472 0.04429 0.0
O27 O 0.42212 0.99334 0.0486 0.0
O28 O 0.45049 1.00728 0.0614 0.0
O29 O 0.49756 0.03646 0.0603 0.0
O30 O 0.49407 0.98328 0.05271 0.0
O31 O 0.54144 0.01713 0.05751 0.0
H32 H 0.62714 0.16337 0.06589 0.0
H33 H 0.6791 0.20471 0.06299 0.0
H34 H 0.68823 0.14289 0.04978 0.0
H35 H 0.6361 0.10147 0.05272 0.0
H36 H 0.38189 0.92987 0.03647 0.0
H37 H 0.34072 0.87643 0.03828 0.0
H38 H 0.36282 0.88664 0.05853 0.0
H39 H 0.40456 0.93991 0.05661 0.0
Nd40 Nd 0.02243 0.51245 0.05448 0.0
Nd41 Nd 0.06352 0.48502 0.05014 0.0
C42 C 0.98439 0.52615 0.06073 0.0
C43 C 0.95872 0.53189 0.05916 0.0
C44 C 0.95217 0.55014 0.06328 0.0
C45 C 0.92833 0.55638 0.06183 0.0
C46 C 0.91045 0.54446 0.05622 0.0
C47 C 0.91719 0.5262 0.05208 0.0
C48 C 0.94115 0.52007 0.05353 0.0
C49 C 0.03266 0.52275 0.04134 0.0
C50 C 0.98984 0.44385 0.04753 0.0
C51 C 0.10777 0.47301 0.04653 0.0
C52 C 0.14207 0.48689 0.04686 0.0
C53 C 0.158 0.48204 0.04184 0.0
C54 C 0.18956 0.49118 0.04246 0.0
C55 C 0.20602 0.50517 0.04816 0.0
C56 C 0.19012 0.51095 0.05309 0.0
C57 C 0.15868 0.50207 0.05244 0.0
C58 C 0.03185 0.46097 0.06143 0.0
C59 C 0.09696 0.5582 0.05523 0.0
O60 O 0.97912 0.4978 0.06 0.0
O61 O 1.01196 0.54705 0.05874 0.0
O62 O 0.01654 0.53137 0.04475 0.0
O63 O 0.04283 0.5095 0.04495 0.0
O64 O 0.98704 0.46278 0.05157 0.0
O65 O 0.01726 0.44916 0.0454 0.0
O66 O 0.09599 0.48514 0.04263 0.0
O67 O 0.0931 0.46453 0.05201 0.0
O68 O 0.03571 0.44523 0.05695 0.0
O69 O 0.04556 0.48981 0.06002 0.0
O70 O 0.0999 0.53612 0.05237 0.0
O71 O 0.06978 0.55346 0.05722 0.0
H72 H 0.96551 0.55957 0.06764 0.0
H73 H 0.92358 0.57017 0.06517 0.0
H74 H 0.90419 0.51693 0.04768 0.0
H75 H 0.94603 0.50619 0.05024 0.0
H76 H 0.14579 0.47037 0.03749 0.0
H77 H 0.20091 0.4869 0.03849 0.0
H78 H 0.20156 0.52129 0.05758 0.0
H79 H 0.14709 0.50613 0.05641 0.0
Nd80 Nd 0.57037 0.5388 0.05517 0.0
Nd81 Nd 0.59752 0.61194 0.0508 0.0
C82 C 0.55579 0.48646 0.06122 0.0
C83 C 0.54961 0.4548 0.05965 0.0
C84 C 0.56097 0.44023 0.0637 0.0
C85 C 0.55434 0.40986 0.06248 0.0
C86 C 0.53599 0.39314 0.05717 0.0
C87 C 0.52509 0.40808 0.05305 0.0
C88 C 0.53186 0.43854 0.05427 0.0
C89 C 0.5662 0.54361 0.04193 0.0
C90 C 0.64257 0.58116 0.0501 0.0
C91 C 0.60758 0.66346 0.04491 0.0
C92 C 0.60246 0.68986 0.04628 0.0
C93 C 0.60013 0.70702 0.04118 0.0
C94 C 0.59453 0.73156 0.04235 0.0
C95 C 0.59108 0.73966 0.04866 0.0
C96 C 0.59343 0.7223 0.05377 0.0
C97 C 0.59898 0.69768 0.05259 0.0
C98 C 0.60735 0.60689 0.06387 0.0
C99 C 0.52375 0.56807 0.05527 0.0
O100 O 0.5844 0.50924 0.0606 0.0
O101 O 0.53523 0.49388 0.05931 0.0
O102 O 0.55707 0.51772 0.04496 0.0
O103 O 0.57681 0.56526 0.04601 0.0
O104 O 0.62211 0.55738 0.05356 0.0
O105 O 0.63748 0.60323 0.04782 0.0
O106 O 0.58265 0.63649 0.04401 0.0
O107 O 0.62871 0.6615 0.04832 0.0
O108 O 0.61509 0.63283 0.06099 0.0
O109 O 0.59301 0.58547 0.05984 0.0
O110 O 0.54543 0.59351 0.05243 0.0
O111 O 0.52908 0.54618 0.05748 0.0
H112 H 0.57484 0.45231 0.06786 0.0
H113 H 0.56372 0.39952 0.0657 0.0
H114 H 0.51068 0.39602 0.04895 0.0
H115 H 0.52285 0.44922 0.05104 0.0
H116 H 0.60243 0.70127 0.03627 0.0
H117 H 0.59235 0.74382 0.03827 0.0
H118 H 0.5913 0.72788 0.05869 0.0
H119 H 0.6005 0.68471 0.05661 0.0
Nd120 Nd 0.07017 0.53839 0.45843 0.0
Nd121 Nd 0.02276 0.46585 0.46292 0.0
C122 C 0.10829 0.58981 0.45216 0.0
C123 C 0.13382 0.62145 0.45362 0.0
C124 C 0.15756 0.63714 0.44912 0.0
C125 C 0.18131 0.66754 0.45028 0.0
C126 C 0.18185 0.68308 0.45597 0.0
C127 C 0.15824 0.66699 0.46054 0.0
C128 C 0.1345 0.6365 0.45938 0.0
C129 C 0.06068 0.53462 0.47165 0.0
C130 C 0.09843 0.49505 0.46366 0.0
C131 C 0.98086 0.41507 0.46891 0.0
C132 C 0.9492 0.38848 0.46766 0.0
C133 C 0.92581 0.38038 0.47227 0.0
C134 C 0.89574 0.35554 0.47123 0.0
C135 C 0.88813 0.3379 0.46554 0.0
C136 C 0.91165 0.34617 0.4609 0.0
C137 C 0.94176 0.37115 0.46194 0.0
C138 C 0.03782 0.46989 0.44988 0.0
C139 C 0.99446 0.5105 0.45807 0.0
O140 O 0.11393 0.56702 0.453 0.0
O141 O 0.08043 0.58294 0.45403 0.0
O142 O 0.07811 0.56019 0.46857 0.0
O143 O 0.04935 0.51271 0.46763 0.0
O144 O 0.10248 0.51896 0.46016 0.0
O145 O 0.07102 0.47357 0.46596 0.0
O146 O 0.98311 0.44221 0.46969 0.0
O147 O 1.0041 0.41655 0.46564 0.0
O148 O 0.019 0.44422 0.45279 0.0
O149 O 0.04539 0.49156 0.45387 0.0
O150 O 0.98983 0.48496 0.46102 0.0
O151 O 0.02207 0.53188 0.45593 0.0
H152 H 0.15762 0.62593 0.44466 0.0
H153 H 0.19936 0.67883 0.4467 0.0
H154 H 0.15766 0.67817 0.46495 0.0
H155 H 0.11648 0.62484 0.46294 0.0
H156 H 0.9308 0.39342 0.47671 0.0
H157 H 0.87832 0.35045 0.47488 0.0
H158 H 0.90697 0.33309 0.45649 0.0
H159 H 0.95921 0.37683 0.45827 0.0
Nd160 Nd 0.54605 0.56486 0.45778 0.0
Nd161 Nd 0.61893 0.58965 0.46208 0.0
C162 C 0.49402 0.55051 0.45159 0.0
C163 C 0.46264 0.54452 0.45325 0.0
C164 C 0.43802 0.52812 0.44896 0.0
C165 C 0.40796 0.52165 0.45052 0.0
C166 C 0.40188 0.53151 0.4564 0.0
C167 C 0.42672 0.54793 0.4607 0.0
C168 C 0.45677 0.55429 0.45915 0.0
C169 C 0.55098 0.56102 0.47101 0.0
C170 C 0.59084 0.63718 0.46246 0.0
C171 C 0.66989 0.59862 0.46803 0.0
C172 C 0.69578 0.59252 0.46674 0.0
C173 C 0.70497 0.57892 0.47153 0.0
C174 C 0.72887 0.57232 0.4704 0.0
C175 C 0.74435 0.57925 0.46444 0.0
C176 C 0.73517 0.59303 0.45965 0.0
C177 C 0.71111 0.59947 0.46078 0.0
C178 C 0.6139 0.59915 0.44901 0.0
C179 C 0.57315 0.51621 0.45773 0.0
O180 O 0.51692 0.579 0.45228 0.0
O181 O 0.50106 0.52983 0.45357 0.0
O182 O 0.52512 0.55285 0.46802 0.0
O183 O 0.57249 0.57075 0.4669 0.0
O184 O 0.56614 0.61694 0.45918 0.0
O185 O 0.61229 0.63117 0.46476 0.0
O186 O 0.64253 0.57426 0.469 0.0
O187 O 0.66859 0.62002 0.4646 0.0
O188 O 0.63981 0.60609 0.45185 0.0
O189 O 0.59253 0.58555 0.45308 0.0
O190 O 0.59933 0.53747 0.46043 0.0
O191 O 0.5515 0.52228 0.45566 0.0
H192 H 0.44205 0.5203 0.4444 0.0
H193 H 0.38957 0.50934 0.44705 0.0
H194 H 0.42287 0.55555 0.4653 0.0
H195 H 0.4754 0.56673 0.46256 0.0
H196 H 0.69356 0.57332 0.47616 0.0
H197 H 0.73547 0.56208 0.47423 0.0
H198 H 0.74622 0.59836 0.45498 0.0
H199 H 0.70438 0.60969 0.45696 0.0
Nd200 Nd 0.51752 0.01266 0.45822 0.0
Nd201 Nd 0.49595 0.0626 0.46278 0.0
C202 C 0.52833 0.97246 0.45204 0.0
C203 C 0.5394 0.95057 0.45354 0.0
C204 C 0.55123 0.94017 0.44863 0.0
C205 C 0.56003 0.91796 0.44989 0.0
C206 C 0.55701 0.90555 0.4561 0.0
C207 C 0.54566 0.91653 0.46104 0.0
C208 C 0.53702 0.93884 0.45978 0.0
C209 C 0.52156 0.0202 0.47154 0.0
C210 C 0.4453 0.98945 0.46198 0.0
C211 C 0.48819 0.10502 0.46885 0.0
C212 C 0.49381 0.13682 0.46755 0.0
C213 C 0.50953 0.16029 0.47212 0.0
C214 C 0.51567 0.1906 0.47098 0.0
C215 C 0.50615 0.19831 0.46523 0.0
C216 C 0.49019 0.17466 0.46067 0.0
C217 C 0.4842 0.14434 0.4618 0.0
C218 C 0.48565 0.04957 0.44963 0.0
C219 C 0.56932 0.08746 0.45857 0.0
O220 O 0.50125 0.96559 0.45441 0.0
O221 O 0.54865 1.00212 0.45238 0.0
O222 O 0.5285 1.00192 0.46843 0.0
O223 O 0.51276 0.03307 0.46749 0.0
O224 O 0.46441 0.9864 0.45803 0.0
O225 O 0.45384 0.01489 0.46544 0.0
O226 O 0.51286 0.10222 0.46956 0.0
O227 O 0.466 0.08194 0.46563 0.0
O228 O 0.48044 0.06935 0.45263 0.0
O229 O 0.49824 0.04005 0.45359 0.0
O230 O 0.54852 0.0933 0.4612 0.0
O231 O 0.56238 0.05951 0.45649 0.0
H232 H 0.55315 0.94881 0.44378 0.0
H233 H 0.56837 0.90987 0.44595 0.0
H234 H 0.54342 0.90784 0.46589 0.0
H235 H 0.52806 0.9466 0.46366 0.0
H236 H 0.51717 0.15518 0.47659 0.0
H237 H 0.52762 0.20795 0.47465 0.0
H238 H 0.48279 0.1797 0.45616 0.0
H239 H 0.47224 0.12687 0.45814 0.0
Nd240 Nd 0.61475 0.06239 0.96391 0.0
Nd241 Nd 0.54644 0.01948 0.95963 0.0
C242 C 0.66974 0.10716 0.96801 0.0
C243 C 0.69167 0.14084 0.96699 0.0
C244 C 0.70383 0.16088 0.97228 0.0
C245 C 0.72681 0.19203 0.97144 0.0
C246 C 0.73848 0.20398 0.96528 0.0
C247 C 0.72566 0.18394 0.95998 0.0
C248 C 0.70257 0.1529 0.96082 0.0
C249 C 0.60859 0.03204 0.9525 0.0
C250 C 0.57356 0.09405 0.95863 0.0
C251 C 0.495 0.98033 0.95344 0.0
C252 C 0.46355 0.95498 0.95509 0.0
C253 C 0.44768 0.93012 0.95084 0.0
C254 C 0.4176 0.90625 0.95225 0.0
C255 C 0.40265 0.90673 0.95796 0.0
C256 C 0.41882 0.93165 0.96224 0.0
C257 C 0.44894 0.95546 0.96083 0.0
C258 C 0.54635 0.02877 0.97282 0.0
C259 C 0.58459 0.98901 0.96641 0.0
O260 O 0.64391 0.09877 0.97114 0.0
O261 O 0.66587 0.08875 0.96321 0.0
O262 O 0.62922 0.0375 0.95686 0.0
O263 O 0.59197 0.04406 0.95403 0.0
O264 O 0.5999 0.09808 0.96106 0.0
O265 O 0.5505 0.06626 0.95716 0.0
O266 O 0.51801 0.9751 0.95439 0.0
O267 O 0.50177 1.00834 0.95511 0.0
O268 O 0.52168 0.01214 0.96943 0.0
O269 O 0.56969 0.03988 0.96917 0.0
O270 O 0.56312 0.98555 0.96222 0.0
O271 O 0.60521 0.0166 0.96873 0.0
H272 H 0.69595 0.15229 0.97709 0.0
H273 H 0.73551 0.2067 0.97564 0.0
H274 H 0.73411 0.1919 0.95517 0.0
H275 H 0.69383 0.13816 0.95662 0.0
H276 H 0.45855 0.9292 0.9464 0.0
H277 H 0.4062 0.88725 0.94889 0.0
H278 H 0.40804 0.93308 0.96665 0.0
H279 H 0.4607 0.97437 0.9642 0.0
Nd280 Nd 0.02621 0.59282 0.96224 0.0
Nd281 Nd 0.06865 0.56513 0.95887 0.0
C282 C 0.98907 0.61308 0.96647 0.0
C283 C 0.95633 0.60566 0.96539 0.0
C284 C 0.93475 0.59355 0.97044 0.0
C285 C 0.90387 0.58637 0.96956 0.0
C286 C 0.89363 0.59127 0.96359 0.0
C287 C 0.91533 0.60361 0.95854 0.0
C288 C 0.9462 0.61064 0.95942 0.0
C289 C 0.04083 0.59551 0.94923 0.0
C290 C 0.99364 0.51997 0.95861 0.0
C291 C 0.10547 0.54802 0.95315 0.0
C292 C 0.13049 0.54159 0.95496 0.0
C293 C 0.14892 0.55512 0.96043 0.0
C294 C 0.17294 0.54924 0.962 0.0
C295 C 0.17899 0.52957 0.95815 0.0
C296 C 0.16016 0.51582 0.95272 0.0
C297 C 0.13623 0.52181 0.95115 0.0
C298 C 0.05675 0.55706 0.97195 0.0
C299 C 0.10204 0.63636 0.96427 0.0
O300 O 0.99306 0.59231 0.96949 0.0
O301 O 1.00899 0.6263 0.96179 0.0
O302 O 1.01343 0.58751 0.95145 0.0
O303 O 0.05861 0.59977 0.95391 0.0
O304 O 0.9916 0.54081 0.96214 0.0
O305 O 0.01981 0.52673 0.95564 0.0
O306 O 0.11178 0.57678 0.95356 0.0
O307 O 0.07749 0.52834 0.95515 0.0
O308 O 0.07377 0.54845 0.96887 0.0
O309 O 0.04674 0.56955 0.96806 0.0
O310 O 0.10549 0.61396 0.96173 0.0
O311 O 0.07434 0.63351 0.96529 0.0
H312 H 0.94179 0.58965 0.97511 0.0
H313 H 0.88812 0.57738 0.9736 0.0
H314 H 0.90835 0.60743 0.95386 0.0
H315 H 0.96208 0.61988 0.9554 0.0
H316 H 0.14478 0.57031 0.96348 0.0
H317 H 0.18662 0.55991 0.96626 0.0
H318 H 0.16429 0.50088 0.94959 0.0
H319 H 0.12233 0.51113 0.94691 0.0
Nd320 Nd 0.49931 0.47516 0.96247 0.0
Nd321 Nd 0.52425 0.54514 0.95953 0.0
C322 C 0.48095 0.41786 0.96653 0.0
C323 C 0.48951 0.39342 0.9655 0.0
C324 C 0.48995 0.37587 0.97073 0.0
C325 C 0.49753 0.35245 0.96989 0.0
C326 C 0.50485 0.34576 0.96377 0.0
C327 C 0.50463 0.36364 0.95853 0.0
C328 C 0.49712 0.38716 0.95938 0.0
C329 C 0.4945 0.4882 0.94962 0.0
C330 C 0.57185 0.51808 0.95861 0.0
C331 C 0.53935 0.59923 0.95415 0.0
C332 C 0.54571 0.63039 0.95618 0.0
C333 C 0.53004 0.63431 0.96139 0.0
C334 C 0.53583 0.66395 0.96312 0.0
C335 C 0.55756 0.69039 0.9597 0.0
C336 C 0.5735 0.68631 0.95455 0.0
C337 C 0.56759 0.65666 0.95281 0.0
C338 C 0.53369 0.54056 0.97251 0.0
C339 C 0.45302 0.50437 0.96485 0.0
O340 O 0.50087 0.44272 0.96964 0.0
O341 O 0.46796 0.42421 0.96175 0.0
O342 O 0.50374 0.46927 0.95153 0.0
O343 O 0.4902 0.50061 0.95449 0.0
O344 O 0.55176 0.49416 0.96203 0.0
O345 O 0.56384 0.53718 0.95594 0.0
O346 O 0.51081 0.57641 0.95472 0.0
O347 O 0.5598 0.59126 0.95577 0.0
O348 O 0.54108 0.56617 0.96955 0.0
O349 O 0.52159 0.51828 0.96856 0.0
O350 O 0.47493 0.53108 0.96253 0.0
O351 O 0.45697 0.48003 0.96561 0.0
H352 H 0.48438 0.38028 0.97551 0.0
H353 H 0.49795 0.33979 0.97408 0.0
H354 H 0.50975 0.35917 0.95373 0.0
H355 H 0.49711 0.40033 0.95525 0.0
H356 H 0.51323 0.61445 0.96411 0.0
H357 H 0.52342 0.66618 0.96716 0.0
H358 H 0.59012 0.70599 0.95176 0.0
H359 H 0.57995 0.65421 0.94877 0.0
Nd360 Nd 0.06463 0.61054 0.54958 0.0
Nd361 Nd 0.01935 0.53769 0.55421 0.0
C362 C 0.10586 0.66174 0.54361 0.0
C363 C 0.13756 0.68831 0.54489 0.0
C364 C 0.1613 0.6958 0.54038 0.0
C365 C 0.19147 0.72036 0.54149 0.0
C366 C 0.1988 0.73828 0.54713 0.0
C367 C 0.1749 0.73087 0.55163 0.0
C368 C 0.1447 0.70615 0.55053 0.0
C369 C 0.05026 0.60618 0.56267 0.0
C370 C 0.09526 0.56755 0.55428 0.0
C371 C 0.9822 0.48592 0.56049 0.0
C372 C 0.95636 0.45436 0.55904 0.0
C373 C 0.93211 0.4393 0.56346 0.0
C374 C 0.90797 0.40905 0.56231 0.0
C375 C 0.90753 0.39301 0.5567 0.0
C376 C 0.93169 0.40844 0.55221 0.0
C377 C 0.9558 0.43878 0.55336 0.0
C378 C 0.02744 0.54152 0.54094 0.0
C379 C 0.98877 0.57941 0.54917 0.0
O380 O 0.1037 0.6347 0.5427 0.0
O381 O 0.08266 0.65988 0.54696 0.0
O382 O 0.0677 0.63207 0.5597 0.0
O383 O 0.04385 0.58467 0.55871 0.0
O384 O 0.09877 0.59269 0.55133 0.0
O385 O 0.06816 0.54568 0.55654 0.0
O386 O 0.97651 0.5088 0.5599 0.0
O387 O 1.00979 0.49292 0.55839 0.0
O388 O 1.01089 0.51587 0.54406 0.0
O389 O 0.03861 0.56348 0.54495 0.0
O390 O 0.98619 0.55629 0.55276 0.0
O391 O 0.01556 0.60118 0.54669 0.0
H392 H 0.1565 0.68255 0.53599 0.0
H393 H 0.20902 0.72552 0.53787 0.0
H394 H 0.17963 0.74385 0.55606 0.0
H395 H 0.12703 0.70091 0.55413 0.0
H396 H 0.93192 0.45089 0.56785 0.0
H397 H 0.88954 0.3983 0.56582 0.0
H398 H 0.93238 0.39688 0.54787 0.0
H399 H 0.97418 0.44992 0.54985 0.0
Nd400 Nd 0.47314 0.4876 0.54884 0.0
Nd401 Nd 0.54142 0.51393 0.55349 0.0
C402 C 0.419 0.47788 0.54427 0.0
C403 C 0.39621 0.48842 0.54555 0.0
C404 C 0.38641 0.50041 0.54053 0.0
C405 C 0.3634 0.50845 0.54157 0.0
C406 C 0.34939 0.50446 0.54764 0.0
C407 C 0.35965 0.49295 0.55268 0.0
C408 C 0.38277 0.48512 0.55166 0.0
C409 C 0.47844 0.46479 0.5605 0.0
C410 C 0.51271 0.56017 0.55425 0.0
C411 C 0.59268 0.52709 0.55986 0.0
C412 C 0.6244 0.5333 0.55835 0.0
C413 C 0.63739 0.51887 0.56197 0.0
C414 C 0.66745 0.52464 0.56068 0.0
C415 C 0.68532 0.54512 0.55574 0.0
C416 C 0.67225 0.55959 0.55211 0.0
C417 C 0.64208 0.55364 0.55338 0.0
C418 C 0.54233 0.52267 0.54026 0.0
C419 C 0.5045 0.44508 0.54685 0.0
O420 O 0.44566 0.49761 0.54169 0.0
O421 O 0.42182 0.46075 0.54867 0.0
O422 O 0.45776 0.44927 0.55617 0.0
O423 O 0.49521 0.49317 0.55884 0.0
O424 O 0.48664 0.5375 0.55183 0.0
O425 O 0.53625 0.55618 0.55575 0.0
O426 O 0.56989 0.49873 0.55898 0.0
O427 O 0.5856 0.54801 0.55808 0.0
O428 O 0.56685 0.53109 0.54373 0.0
O429 O 0.51883 0.51037 0.54385 0.0
O430 O 0.52506 0.4632 0.55116 0.0
O431 O 0.4842 0.45188 0.54425 0.0
H432 H 0.39619 0.50306 0.53577 0.0
H433 H 0.35598 0.517 0.53755 0.0
H434 H 0.34982 0.49001 0.55744 0.0
H435 H 0.3898 0.47611 0.55565 0.0
H436 H 0.62429 0.50318 0.56583 0.0
H437 H 0.67687 0.51337 0.56362 0.0
H438 H 0.68519 0.57519 0.54823 0.0
H439 H 0.63261 0.56496 0.55047 0.0
Nd440 Nd 0.59024 0.01485 0.54975 0.0
Nd441 Nd 0.56893 0.06526 0.55406 0.0
C442 C 0.59706 0.97148 0.54382 0.0
C443 C 0.59031 0.93928 0.54514 0.0
C444 C 0.57503 0.91617 0.54048 0.0
C445 C 0.56802 0.88557 0.54161 0.0
C446 C 0.57619 0.87718 0.54744 0.0
C447 C 0.59162 0.90045 0.55211 0.0
C448 C 0.59849 0.93107 0.55099 0.0
C449 C 0.60032 0.02847 0.56287 0.0
C450 C 0.517 0.99053 0.554 0.0
C451 C 0.55871 0.10663 0.55989 0.0
C452 C 0.55011 0.13022 0.55814 0.0
C453 C 0.56452 0.15888 0.56132 0.0
C454 C 0.55785 0.18213 0.55961 0.0
C455 C 0.5365 0.1773 0.55469 0.0
C456 C 0.52174 0.14835 0.55156 0.0
C457 C 0.52859 0.12511 0.55324 0.0
C458 C 0.56549 0.05736 0.54075 0.0
C459 C 0.64135 0.08796 0.55047 0.0
O460 O 0.57303 0.9752 0.54295 0.0
O461 O 0.61927 0.99411 0.54713 0.0
O462 O 0.60557 0.00856 0.55994 0.0
O463 O 0.58766 0.03773 0.55886 0.0
O464 O 0.5377 0.9845 0.55138 0.0
O465 O 0.52407 0.01863 0.55599 0.0
O466 O 0.58625 0.11237 0.55806 0.0
O467 O 0.53747 0.07735 0.55928 0.0
O468 O 0.55864 0.07587 0.54378 0.0
O469 O 0.57397 0.04446 0.54486 0.0
O470 O 0.62205 0.09141 0.55429 0.0
O471 O 0.63291 0.06226 0.54711 0.0
H472 H 0.56847 0.92181 0.53593 0.0
H473 H 0.55651 0.86854 0.53786 0.0
H474 H 0.59798 0.89491 0.55669 0.0
H475 H 0.61006 0.94824 0.55471 0.0
H476 H 0.5812 0.16338 0.56511 0.0
H477 H 0.56936 0.20391 0.56219 0.0
H478 H 0.50543 0.14391 0.5477 0.0
H479 H 0.51734 0.10331 0.55067 0.0
Nd480 Nd 0.2107 0.3992 0.38779 0.0
Nd481 Nd 0.13928 0.34945 0.38313 0.0
C482 C 0.26116 0.43961 0.39409 0.0
C483 C 0.29428 0.46179 0.39285 0.0
C484 C 0.31098 0.48556 0.39729 0.0
C485 C 0.34202 0.50774 0.39613 0.0
C486 C 0.35721 0.50668 0.39051 0.0
C487 C 0.3403 0.48269 0.38606 0.0
C488 C 0.30912 0.46047 0.38722 0.0
C489 C 0.20756 0.39187 0.37447 0.0
C490 C 0.16174 0.42247 0.38402 0.0
C491 C 0.08922 0.30741 0.37695 0.0
C492 C 0.06272 0.27576 0.37821 0.0
C493 C 0.05435 0.25255 0.37355 0.0
C494 C 0.02985 0.22237 0.37464 0.0
C495 C 1.01291 0.21455 0.38042 0.0
C496 C 0.02123 0.23794 0.38508 0.0
C497 C 0.0459 0.26813 0.384 0.0
C498 C 0.1417 0.36212 0.39628 0.0
C499 C 0.18765 0.32443 0.38739 0.0
O500 O 0.24131 0.44653 0.39156 0.0
O501 O 0.25199 0.40997 0.39374 0.0
O502 O 0.23274 0.41004 0.37761 0.0
O503 O 0.18577 0.37903 0.37849 0.0
O504 O 0.18366 0.42525 0.38802 0.0
O505 O 0.14505 0.39725 0.3805 0.0
O506 O 0.11657 0.30986 0.37633 0.0
O507 O 0.09021 0.33057 0.38015 0.0
O508 O 0.11676 0.34244 0.39325 0.0
O509 O 0.16389 0.37171 0.39234 0.0
O510 O 0.16113 0.31872 0.38471 0.0
O511 O 0.20862 0.35231 0.38951 0.0
H512 H 0.29988 0.48721 0.40163 0.0
H513 H 0.35391 0.52611 0.39961 0.0
H514 H 0.35119 0.48091 0.38171 0.0
H515 H 0.29657 0.4424 0.38371 0.0
H516 H 0.06687 0.25777 0.36904 0.0
H517 H 0.02396 0.20521 0.3709 0.0
H518 H 1.00903 0.23278 0.38962 0.0
H519 H 0.05192 0.28542 0.38771 0.0
Nd520 Nd 0.68569 0.84588 0.38775 0.0
Nd521 Nd 0.73511 0.82365 0.3831 0.0
C522 C 0.64617 0.85793 0.39385 0.0
C523 C 0.62328 0.86746 0.39211 0.0
C524 C 0.61689 0.88525 0.3964 0.0
C525 C 0.59443 0.89347 0.39492 0.0
C526 C 0.57774 0.8839 0.38911 0.0
C527 C 0.58461 0.86647 0.38477 0.0
C528 C 0.60719 0.85844 0.38624 0.0
C529 C 0.69251 0.84923 0.37442 0.0
C530 C 0.66159 0.77339 0.38406 0.0
C531 C 0.7772 0.8155 0.37698 0.0
C532 C 0.809 0.82105 0.3783 0.0
C533 C 0.83214 0.83512 0.37359 0.0
C534 C 0.86249 0.84129 0.37476 0.0
C535 C 0.87054 0.83346 0.38068 0.0
C536 C 0.84722 0.81919 0.38538 0.0
C537 C 0.81688 0.81318 0.38422 0.0
C538 C 0.72294 0.81434 0.39629 0.0
C539 C 0.76076 0.89693 0.38734 0.0
O540 O 0.63957 0.83006 0.39208 0.0
O541 O 0.67554 0.87856 0.39308 0.0
O542 O 0.67439 0.85634 0.37755 0.0
O543 O 0.70548 0.84049 0.37845 0.0
O544 O 0.65865 0.79283 0.38793 0.0
O545 O 0.68702 0.78154 0.38061 0.0
O546 O 0.7745 0.84017 0.37626 0.0
O547 O 0.75412 0.79348 0.38023 0.0
O548 O 0.74235 0.80865 0.39326 0.0
O549 O 0.71338 0.82686 0.39232 0.0
O550 O 0.76617 0.87614 0.38458 0.0
O551 O 0.73301 0.8901 0.38955 0.0
H552 H 0.62901 0.89248 0.40095 0.0
H553 H 0.58958 0.90666 0.3984 0.0
H554 H 0.57257 0.85909 0.38022 0.0
H555 H 0.61188 0.84493 0.38282 0.0
H556 H 0.82673 0.84144 0.36899 0.0
H557 H 0.8796 0.85192 0.37099 0.0
H558 H 0.85255 0.81316 0.39002 0.0
H559 H 0.79966 0.80258 0.38798 0.0
Nd560 Nd 0.23735 0.87332 0.3876 0.0
Nd561 Nd 0.26208 0.94571 0.38314 0.0
C562 C 0.22404 0.8219 0.39388 0.0
C563 C 0.21765 0.79018 0.39241 0.0
C564 C 0.22669 0.77483 0.3968 0.0
C565 C 0.21998 0.74442 0.39563 0.0
C566 C 0.20392 0.72853 0.39004 0.0
C567 C 0.19535 0.74425 0.38559 0.0
C568 C 0.20218 0.77475 0.38676 0.0
C569 C 0.23208 0.87706 0.37436 0.0
C570 C 0.30928 0.91731 0.38259 0.0
C571 C 0.27109 0.99654 0.37715 0.0
C572 C 0.26604 0.02313 0.3784 0.0
C573 C 0.25148 0.03175 0.37372 0.0
C574 C 0.24625 0.05659 0.37476 0.0
C575 C 0.25555 0.07369 0.38053 0.0
C576 C 0.27006 0.06488 0.38524 0.0
C577 C 0.27519 0.03991 0.3842 0.0
C578 C 0.2727 0.94166 0.3962 0.0
C579 C 0.18887 0.90053 0.38777 0.0
O580 O 0.25248 0.84454 0.39297 0.0
O581 O 0.20307 0.82895 0.39207 0.0
O582 O 0.22417 0.85155 0.37746 0.0
O583 O 0.24235 0.89899 0.37838 0.0
O584 O 0.28935 0.8933 0.38607 0.0
O585 O 0.30309 0.93851 0.38024 0.0
O586 O 0.24618 0.96942 0.37637 0.0
O587 O 0.29278 0.99501 0.38044 0.0
O588 O 0.27935 0.96728 0.3933 0.0
O589 O 0.25889 0.92 0.3922 0.0
O590 O 0.2099 0.92629 0.38491 0.0
O591 O 0.19513 0.87916 0.38991 0.0
H592 H 0.23882 0.78633 0.40116 0.0
H593 H 0.22755 0.73342 0.3991 0.0
H594 H 0.18277 0.73279 0.38126 0.0
H595 H 0.19505 0.78615 0.38328 0.0
H596 H 0.244 0.01913 0.36923 0.0
H597 H 0.2345 0.06209 0.37106 0.0
H598 H 0.27789 0.07754 0.38971 0.0
H599 H 0.28636 0.03379 0.38792 0.0
Nd600 Nd 0.73169 0.8666 0.7918 0.0
Nd601 Nd 0.68992 0.79835 0.79572 0.0
C602 C 0.771 0.91843 0.78577 0.0
C603 C 0.79658 0.94992 0.78733 0.0
C604 C 0.82232 0.96431 0.78324 0.0
C605 C 0.84612 0.99464 0.78443 0.0
C606 C 0.84472 0.01143 0.78974 0.0
C607 C 0.81913 0.99665 0.79392 0.0
C608 C 0.79534 0.96621 0.79273 0.0
C609 C 0.72054 0.86594 0.80489 0.0
C610 C 0.76285 0.82969 0.79892 0.0
C611 C 0.64569 0.74131 0.79886 0.0
C612 C 0.6117 0.71917 0.79814 0.0
C613 C 0.5901 0.71634 0.80284 0.0
C614 C 0.55855 0.69369 0.80226 0.0
C615 C 0.54779 0.67322 0.79698 0.0
C616 C 0.56948 0.67627 0.79229 0.0
C617 C 0.60085 0.69876 0.79287 0.0
C618 C 0.72318 0.80685 0.78461 0.0
C619 C 0.65733 0.83931 0.79083 0.0
O620 O 0.77624 0.89541 0.78662 0.0
O621 O 0.74302 0.91167 0.78751 0.0
O622 O 0.73701 0.89078 0.80156 0.0
O623 O 0.71026 0.84258 0.80126 0.0
O624 O 0.76656 0.85179 0.7949 0.0
O625 O 0.735 0.80774 0.80086 0.0
O626 O 0.65546 0.76489 0.80281 0.0
O627 O 0.66217 0.74842 0.79362 0.0
O628 O 0.71909 0.78723 0.78909 0.0
O629 O 0.70921 0.82183 0.78595 0.0
O630 O 0.65376 0.81351 0.79343 0.0
O631 O 0.68489 0.8619 0.78909 0.0
H632 H 0.82387 0.95215 0.77907 0.0
H633 H 0.8657 1.00491 0.78117 0.0
H634 H 0.81706 0.00882 0.79802 0.0
H635 H 0.77578 0.95561 0.79599 0.0
H636 H 0.59761 0.73137 0.807 0.0
H637 H 0.54258 0.69226 0.80596 0.0
H638 H 0.56242 0.66067 0.78822 0.0
H639 H 0.61675 0.6997 0.7892 0.0
Nd640 Nd 0.2096 0.89482 0.7921 0.0
Nd641 Nd 0.27935 0.91939 0.7952 0.0
C642 C 0.15571 0.87963 0.78656 0.0
C643 C 0.12447 0.87312 0.78857 0.0
C644 C 0.09863 0.85419 0.78474 0.0
C645 C 0.06894 0.8483 0.78648 0.0
C646 C 0.06444 0.86131 0.7921 0.0
C647 C 0.09044 0.88002 0.79597 0.0
C648 C 0.12011 0.88578 0.79423 0.0
C649 C 0.21347 0.88599 0.80513 0.0
C650 C 0.25062 0.96618 0.79728 0.0
C651 C 0.33666 0.93701 0.79921 0.0
C652 C 0.36085 0.92793 0.7981 0.0
C653 C 0.36746 0.91219 0.8029 0.0
C654 C 0.39049 0.90405 0.802 0.0
C655 C 0.40787 0.91158 0.79627 0.0
C656 C 0.40125 0.9274 0.79147 0.0
C657 C 0.37813 0.93544 0.79236 0.0
C658 C 0.26672 0.92274 0.78225 0.0
C659 C 0.23607 0.84679 0.79157 0.0
O660 O 0.1784 0.90816 0.7872 0.0
O661 O 0.16377 0.85929 0.7882 0.0
O662 O 0.18801 0.87863 0.80209 0.0
O663 O 0.236 0.89774 0.80123 0.0
O664 O 0.22391 0.94433 0.79493 0.0
O665 O 0.27485 0.9621 0.79815 0.0
O666 O 0.31169 0.91746 0.80235 0.0
O667 O 0.33048 0.95058 0.79452 0.0
O668 O 0.28525 0.91337 0.78435 0.0
O669 O 0.25441 0.92796 0.78702 0.0
O670 O 0.25981 0.86692 0.79503 0.0
O671 O 0.21731 0.85483 0.78874 0.0
H672 H 0.10145 0.84417 0.78035 0.0
H673 H 0.04962 0.83411 0.78334 0.0
H674 H 0.08786 0.89009 0.80037 0.0
H675 H 0.13968 0.90027 0.7973 0.0
H676 H 0.3549 0.9063 0.80741 0.0
H677 H 0.39507 0.89234 0.80586 0.0
H678 H 0.41375 0.93333 0.78696 0.0
H679 H 0.37386 0.9476 0.78854 0.0
Nd680 Nd 0.17994 0.344 0.7917 0.0
Nd681 Nd 0.15621 0.3925 0.79611 0.0
C682 C 0.19258 0.30438 0.78581 0.0
C683 C 0.20196 0.2814 0.7876 0.0
C684 C 0.21928 0.27445 0.78328 0.0
C685 C 0.22711 0.25173 0.78477 0.0
C686 C 0.21766 0.23531 0.7906 0.0
C687 C 0.20069 0.24274 0.79497 0.0
C688 C 0.19301 0.26557 0.79349 0.0
C689 C 0.18297 0.35153 0.80502 0.0
C690 C 0.10705 0.31886 0.7953 0.0
C691 C 0.14704 0.43419 0.80214 0.0
C692 C 0.15251 0.46576 0.80075 0.0
C693 C 0.15152 0.48413 0.80575 0.0
C694 C 0.15744 0.51434 0.80455 0.0
C695 C 0.16455 0.52704 0.79831 0.0
C696 C 0.16546 0.5084 0.79331 0.0
C697 C 0.15957 0.47817 0.79452 0.0
C698 C 0.14697 0.37947 0.78295 0.0
C699 C 0.22973 0.41929 0.79184 0.0
O700 O 0.16455 0.29781 0.78747 0.0
O701 O 0.21318 0.33372 0.78661 0.0
O702 O 0.19071 0.33374 0.80196 0.0
O703 O 0.17387 0.36392 0.80093 0.0
O704 O 0.12687 0.31623 0.79149 0.0
O705 O 0.11464 0.34429 0.79869 0.0
O706 O 0.17185 0.43174 0.80294 0.0
O707 O 0.12554 0.41132 0.79876 0.0
O708 O 0.14085 0.39871 0.78591 0.0
O709 O 0.15982 0.37042 0.78695 0.0
O710 O 0.20856 0.42432 0.79456 0.0
O711 O 0.22351 0.3916 0.78974 0.0
H712 H 0.2264 0.28631 0.7787 0.0
H713 H 0.23991 0.24649 0.78126 0.0
H714 H 0.1934 0.23095 0.79954 0.0
H715 H 0.17981 0.27063 0.79693 0.0
H716 H 0.1464 0.47518 0.8106 0.0
H717 H 0.15701 0.52795 0.80856 0.0
H718 H 0.17044 0.51702 0.78843 0.0
H719 H 0.1606 0.4645 0.79058 0.0
Nd720 Nd 0.28236 0.39485 0.29642 0.0
Nd721 Nd 0.21059 0.34475 0.29208 0.0
C722 C 0.33294 0.43712 0.30246 0.0
C723 C 0.35934 0.46863 0.30114 0.0
C724 C 0.37666 0.4878 0.30626 0.0
C725 C 0.40131 0.51789 0.30513 0.0
C726 C 0.40935 0.52968 0.29883 0.0
C727 C 0.39182 0.51027 0.2937 0.0
C728 C 0.3671 0.48015 0.29484 0.0
C729 C 0.27896 0.38111 0.28331 0.0
C730 C 0.23354 0.41962 0.29237 0.0
C731 C 0.15882 0.30423 0.28618 0.0
C732 C 0.12563 0.28311 0.28772 0.0
C733 C 0.10283 0.27787 0.28315 0.0
C734 C 0.07153 0.25639 0.28432 0.0
C735 C 0.06222 0.23944 0.29011 0.0
C736 C 0.08514 0.24535 0.29475 0.0
C737 C 0.11645 0.26695 0.29358 0.0
C738 C 0.21491 0.3529 0.30538 0.0
C739 C 0.25986 0.32163 0.29566 0.0
O740 O 0.30566 0.43477 0.30312 0.0
O741 O 0.33177 0.41407 0.29919 0.0
O742 O 0.30407 0.40111 0.28625 0.0
O743 O 0.25696 0.37186 0.2873 0.0
O744 O 0.26051 0.4256 0.29486 0.0
O745 O 0.21225 0.39153 0.29042 0.0
O746 O 0.17876 0.2972 0.28865 0.0
O747 O 0.1689 0.33409 0.28621 0.0
O748 O 0.18952 0.33449 0.30234 0.0
O749 O 0.23637 0.36559 0.30129 0.0
O750 O 0.23746 0.31849 0.29176 0.0
O751 O 0.27691 0.34715 0.29908 0.0
H752 H 0.37097 0.47956 0.31115 0.0
H753 H 0.41372 0.53211 0.30922 0.0
H754 H 0.39737 0.51819 0.28879 0.0
H755 H 0.35402 0.46587 0.29081 0.0
H756 H 0.10929 0.29011 0.2786 0.0
H757 H 0.05462 0.25304 0.28067 0.0
H758 H 0.07908 0.23265 0.29924 0.0
H759 H 0.13355 0.27057 0.29721 0.0
Nd760 Nd 0.68507 0.92202 0.29708 0.0
Nd761 Nd 0.7347 0.90087 0.29201 0.0
C762 C 0.64307 0.92934 0.30347 0.0
C763 C 0.61138 0.92436 0.30223 0.0
C764 C 0.58787 0.90878 0.30681 0.0
C765 C 0.55766 0.9032 0.30571 0.0
C766 C 0.55008 0.91314 0.3 0.0
C767 C 0.57377 0.92894 0.29543 0.0
C768 C 0.60399 0.93437 0.29652 0.0
C769 C 0.69687 0.93353 0.28395 0.0
C770 C 0.65999 0.84892 0.29257 0.0
C771 C 0.77512 0.89113 0.28561 0.0
C772 C 0.79703 0.87975 0.2868 0.0
C773 C 0.82021 0.88584 0.28227 0.0
C774 C 0.84224 0.87671 0.2834 0.0
C775 C 0.84167 0.86119 0.2891 0.0
C776 C 0.81823 0.85505 0.29364 0.0
C777 C 0.79616 0.86426 0.2925 0.0
C778 C 0.72853 0.89652 0.30537 0.0
C779 C 0.75799 0.97312 0.29564 0.0
O780 O 0.64553 0.90442 0.30392 0.0
O781 O 0.66637 0.95189 0.30038 0.0
O782 O 0.6773 0.9383 0.28717 0.0
O783 O 0.70642 0.92007 0.28769 0.0
O784 O 0.65434 0.8695 0.29537 0.0
O785 O 0.68781 0.85603 0.29035 0.0
O786 O 0.78216 0.91762 0.28828 0.0
O787 O 0.74535 0.87088 0.28586 0.0
O788 O 0.74651 0.88964 0.30212 0.0
O789 O 0.71533 0.90538 0.30144 0.0
O790 O 0.76009 0.95378 0.29159 0.0
O791 O 0.73336 0.96448 0.2994 0.0
H792 H 0.59287 0.90082 0.31125 0.0
H793 H 0.54028 0.89135 0.30938 0.0
H794 H 0.56884 0.93664 0.29095 0.0
H795 H 0.62149 0.94621 0.29286 0.0
H796 H 0.82153 0.89807 0.27787 0.0
H797 H 0.86017 0.88245 0.27984 0.0
H798 H 0.8168 0.84293 0.29805 0.0
H799 H 0.77856 0.85948 0.29609 0.0
Nd800 Nd 0.15801 0.79829 0.29663 0.0
Nd801 Nd 0.17932 0.8696 0.29199 0.0
C802 C 0.15043 0.74819 0.30273 0.0
C803 C 0.15567 0.72168 0.30148 0.0
C804 C 0.17162 0.71407 0.30603 0.0
C805 C 0.17691 0.68925 0.305 0.0
C806 C 0.1663 0.67113 0.29938 0.0
C807 C 0.15041 0.67893 0.2948 0.0
C808 C 0.14521 0.70388 0.29583 0.0
C809 C 0.14781 0.80081 0.28347 0.0
C810 C 0.23161 0.84711 0.29255 0.0
C811 C 0.18919 0.92002 0.2857 0.0
C812 C 0.20088 0.95329 0.2869 0.0
C813 C 0.19556 0.97066 0.28231 0.0
C814 C 0.20489 1.00181 0.28344 0.0
C815 C 0.21984 0.01645 0.28921 0.0
C816 C 0.22525 0.99889 0.29381 0.0
C817 C 0.21584 0.96761 0.29267 0.0
C818 C 0.18352 0.86648 0.3053 0.0
C819 C 0.10702 0.82042 0.29567 0.0
O820 O 0.17522 0.77554 0.30336 0.0
O821 O 0.12813 0.74916 0.29956 0.0
O822 O 0.1426 0.7759 0.2865 0.0
O823 O 0.16048 0.82296 0.28741 0.0
O824 O 0.21069 0.82038 0.29511 0.0
O825 O 0.2247 0.86816 0.29047 0.0
O826 O 0.16279 0.90075 0.28844 0.0
O827 O 0.20932 0.91031 0.28587 0.0
O828 O 0.19041 0.89158 0.30216 0.0
O829 O 0.17465 0.84466 0.3013 0.0
O830 O 0.12619 0.84238 0.2917 0.0
O831 O 0.11564 0.80378 0.29921 0.0
H832 H 0.18011 0.72746 0.31041 0.0
H833 H 0.18974 0.68456 0.3086 0.0
H834 H 0.14154 0.66548 0.29044 0.0
H835 H 0.13293 0.70915 0.2922 0.0
H836 H 0.18375 0.95997 0.27786 0.0
H837 H 0.19972 0.01421 0.27983 0.0
H838 H 0.23692 0.00934 0.29828 0.0
H839 H 0.22001 0.95456 0.2963 0.0
Nd840 Nd 0.7292 0.94346 0.88391 0.0
Nd841 Nd 0.68676 0.87443 0.88741 0.0
C842 C 0.77439 1.00093 0.88144 0.0
C843 C 0.80846 0.02172 0.88076 0.0
C844 C 0.82982 0.01488 0.8837 0.0
C845 C 0.86154 0.03733 0.88401 0.0
C846 C 0.8726 0.06728 0.88147 0.0
C847 C 0.85123 0.07348 0.8783 0.0
C848 C 0.81964 0.05102 0.87796 0.0
C849 C 0.69551 0.93366 0.895 0.0
C850 C 0.76068 0.90043 0.88789 0.0
C851 C 0.64722 0.82127 0.89302 0.0
C852 C 0.62171 0.79021 0.89114 0.0
C853 C 0.61719 0.76405 0.89458 0.0
C854 C 0.5934 0.73437 0.89288 0.0
C855 C 0.57344 0.73011 0.8877 0.0
C856 C 0.5781 0.75645 0.88425 0.0
C857 C 0.60204 0.78616 0.88594 0.0
C858 C 0.69895 0.87709 0.87432 0.0
C859 C 0.65581 0.91337 0.88097 0.0
O860 O 0.75856 0.98105 0.87688 0.0
O861 O 0.76458 0.98988 0.88719 0.0
O862 O 0.70032 0.95421 0.89068 0.0
O863 O 0.70905 0.91841 0.89352 0.0
O864 O 0.76397 0.92563 0.88506 0.0
O865 O 0.73356 0.87902 0.89012 0.0
O866 O 0.64226 0.84463 0.89246 0.0
O867 O 0.67519 0.82824 0.89124 0.0
O868 O 0.68198 0.85184 0.8775 0.0
O869 O 0.70904 0.89994 0.8781 0.0
O870 O 0.65205 0.88992 0.88459 0.0
O871 O 0.68372 0.93605 0.87923 0.0
H872 H 0.8218 0.99261 0.88598 0.0
H873 H 0.87713 0.03164 0.88652 0.0
H874 H 0.85882 0.09599 0.87618 0.0
H875 H 0.80368 0.05702 0.87572 0.0
H876 H 0.63208 0.7666 0.89861 0.0
H877 H 0.59034 0.71478 0.8957 0.0
H878 H 0.56349 0.75408 0.88018 0.0
H879 H 0.60521 0.80593 0.88316 0.0
Nd880 Nd 0.13748 0.82159 0.88294 0.0
Nd881 Nd 0.20964 0.84752 0.88781 0.0
C882 C 0.0869 0.81304 0.87685 0.0
C883 C 0.06151 0.81998 0.87818 0.0
C884 C 0.06765 0.84816 0.88101 0.0
C885 C 0.04362 0.85471 0.88209 0.0
C886 C 1.01269 0.83319 0.88043 0.0
C887 C 1.00661 0.80483 0.87768 0.0
C888 C 0.0307 0.79838 0.87656 0.0
C889 C 0.13936 0.81102 0.89606 0.0
C890 C 0.18133 0.89486 0.88766 0.0
C891 C 0.26183 0.86188 0.89396 0.0
C892 C 0.29311 0.86732 0.89225 0.0
C893 C 0.31882 0.88738 0.896 0.0
C894 C 0.3487 0.89333 0.8944 0.0
C895 C 0.35361 0.8793 0.889 0.0
C896 C 0.32768 0.85915 0.88524 0.0
C897 C 0.2978 0.85332 0.88684 0.0
C898 C 0.20666 0.8519 0.8745 0.0
C899 C 0.16718 0.77544 0.88274 0.0
O900 O 0.11463 0.8368 0.87583 0.0
O901 O 0.08759 0.79147 0.88034 0.0
O902 O 0.11445 0.80471 0.89289 0.0
O903 O 0.16217 0.82503 0.89229 0.0
O904 O 0.1564 0.87366 0.88459 0.0
O905 O 0.20253 0.88898 0.89008 0.0
O906 O 0.23857 0.83347 0.89341 0.0
O907 O 0.25493 0.88261 0.89194 0.0
O908 O 0.23211 0.86054 0.87768 0.0
O909 O 0.18465 0.84168 0.87848 0.0
O910 O 0.19046 0.79566 0.88635 0.0
O911 O 0.14578 0.78101 0.88022 0.0
H912 H 0.09108 0.86523 0.88237 0.0
H913 H 0.04928 0.87658 0.8843 0.0
H914 H 0.98326 0.78777 0.87627 0.0
H915 H 0.02525 0.7765 0.87438 0.0
H916 H 0.31579 0.8985 0.90019 0.0
H917 H 0.36792 0.90864 0.89746 0.0
H918 H 0.33052 0.84823 0.881 0.0
H919 H 0.27839 0.83798 0.88382 0.0
Nd920 Nd 0.26412 0.35505 0.88342 0.0
Nd921 Nd 0.23647 0.39599 0.88738 0.0
C922 C 0.27673 0.31094 0.88006 0.0
C923 C 0.26298 0.27667 0.88029 0.0
C924 C 0.26871 0.26128 0.8753 0.0
C925 C 0.2597 0.22978 0.87585 0.0
C926 C 0.24495 0.21281 0.88145 0.0
C927 C 0.23832 0.22817 0.88635 0.0
C928 C 0.24709 0.25957 0.88577 0.0
C929 C 0.28767 0.38699 0.8947 0.0
C930 C 0.19031 0.32149 0.88812 0.0
C931 C 0.22217 0.43425 0.89337 0.0
C932 C 0.21595 0.45959 0.89173 0.0
C933 C 0.19446 0.46353 0.89538 0.0
C934 C 0.18794 0.48714 0.8939 0.0
C935 C 0.20284 0.50749 0.88874 0.0
C936 C 0.22437 0.5034 0.88507 0.0
C937 C 0.23077 0.47965 0.88654 0.0
C938 C 0.22666 0.38532 0.87424 0.0
C939 C 0.30562 0.42846 0.88066 0.0
O940 O 0.2654 0.32293 0.87602 0.0
O941 O 0.284 0.32521 0.88559 0.0
O942 O 0.30371 0.38338 0.89025 0.0
O943 O 0.25882 0.37333 0.89324 0.0
O944 O 0.21296 0.3185 0.88556 0.0
O945 O 0.1946 0.34875 0.8899 0.0
O946 O 0.25065 0.43973 0.89268 0.0
O947 O 0.20146 0.40642 0.89149 0.0
O948 O 0.21817 0.40171 0.87758 0.0
O949 O 0.23989 0.37521 0.87789 0.0
O950 O 0.28639 0.43146 0.88458 0.0
O951 O 0.30036 0.40093 0.87865 0.0
H952 H 0.28096 0.27386 0.87103 0.0
H953 H 0.26466 0.21885 0.87189 0.0
H954 H 0.22736 0.21634 0.89077 0.0
H955 H 0.24235 0.27074 0.88972 0.0
H956 H 0.18271 0.44832 0.89939 0.0
H957 H 0.17155 0.48975 0.89688 0.0
H958 H 0.23601 0.51833 0.88102 0.0
H959 H 0.24724 0.47692 0.88361 0.0
Nd960 Nd 0.876 0.72573 0.72036 0.0
Nd961 Nd 0.80761 0.68159 0.71559 0.0
C962 C 0.9276 0.76428 0.72662 0.0
C963 C 0.95935 0.78948 0.72503 0.0
C964 C 0.98459 0.79335 0.72874 0.0
C965 C 0.01483 0.817 0.72733 0.0
C966 C 0.02055 0.83745 0.72217 0.0
C967 C 0.99514 0.83337 0.71843 0.0
C968 C 0.96491 0.80959 0.71983 0.0
C969 C 0.87628 0.72015 0.70701 0.0
C970 C 0.8345 0.75501 0.71502 0.0
C971 C 0.75522 0.63712 0.7104 0.0
C972 C 0.73214 0.60399 0.71159 0.0
C973 C 0.71374 0.58532 0.70651 0.0
C974 C 0.69037 0.55457 0.70761 0.0
C975 C 0.68465 0.54165 0.71383 0.0
C976 C 0.70366 0.56036 0.71889 0.0
C977 C 0.72711 0.5911 0.71778 0.0
C978 C 0.81086 0.70628 0.72758 0.0
C979 C 0.84948 0.65087 0.72089 0.0
O980 O 0.90473 0.76971 0.72564 0.0
O981 O 0.92063 0.73623 0.72494 0.0
O982 O 0.90078 0.73687 0.71043 0.0
O983 O 0.85332 0.70763 0.71072 0.0
O984 O 0.85474 0.75678 0.71935 0.0
O985 O 0.81723 0.72926 0.71168 0.0
O986 O 0.78279 0.64378 0.70839 0.0
O987 O 0.7564 0.65698 0.71465 0.0
O988 O 0.78885 0.69894 0.72344 0.0
O989 O 0.82967 0.69745 0.72563 0.0
O990 O 0.8229 0.64654 0.71854 0.0
O991 O 0.87253 0.67872 0.72236 0.0
H992 H 0.9809 0.77811 0.73277 0.0
H993 H 0.03368 0.81958 0.73036 0.0
H994 H 0.99864 0.84836 0.71438 0.0
H995 H 0.9459 0.80693 0.71684 0.0
H996 H 0.71719 0.59466 0.70169 0.0
H997 H 0.67679 0.54092 0.70356 0.0
H998 H 0.69995 0.55157 0.72375 0.0
H999 H 0.74096 0.605 0.72179 0.0
Nd1000 Nd 0.35414 0.17814 0.72147 0.0
Nd1001 Nd 0.39979 0.1522 0.71634 0.0
C1002 C 0.31677 0.19223 0.72785 0.0
C1003 C 0.29158 0.19905 0.72635 0.0
C1004 C 0.26328 0.1833 0.72966 0.0
C1005 C 0.23917 0.18934 0.72834 0.0
C1006 C 0.24279 0.21144 0.72369 0.0
C1007 C 0.27125 0.22733 0.72039 0.0
C1008 C 0.29532 0.22113 0.72169 0.0
C1009 C 0.36133 0.18357 0.70817 0.0
C1010 C 0.32394 0.10628 0.71627 0.0
C1011 C 0.44077 0.14344 0.70991 0.0
C1012 C 0.47256 0.14882 0.71115 0.0
C1013 C 0.49515 0.16154 0.70631 0.0
C1014 C 0.52562 0.16794 0.70743 0.0
C1015 C 0.53434 0.16172 0.71345 0.0
C1016 C 0.51155 0.14875 0.71829 0.0
C1017 C 0.4811 0.14251 0.71717 0.0
C1018 C 0.38763 0.14052 0.72943 0.0
C1019 C 0.42988 0.22526 0.72129 0.0
O1020 O 0.31063 0.16368 0.72696 0.0
O1021 O 0.34502 0.21281 0.72612 0.0
O1022 O 0.3447 0.19217 0.71142 0.0
O1023 O 0.37293 0.17287 0.71207 0.0
O1024 O 0.32122 0.12633 0.72 0.0
O1025 O 0.3507 0.112 0.71362 0.0
O1026 O 0.43828 0.16827 0.70928 0.0
O1027 O 0.4178 0.1215 0.7132 0.0
O1028 O 0.40613 0.13442 0.72617 0.0
O1029 O 0.37875 0.15485 0.72577 0.0
O1030 O 0.43348 0.20407 0.71818 0.0
O1031 O 0.40282 0.21945 0.72371 0.0
H1032 H 0.25981 0.16628 0.73328 0.0
H1033 H 0.21777 0.17692 0.73103 0.0
H1034 H 0.27477 0.24423 0.71673 0.0
H1035 H 0.31679 0.23356 0.71902 0.0
H1036 H 0.48925 0.16671 0.70164 0.0
H1037 H 0.5423 0.17754 0.70356 0.0
H1038 H 0.51739 0.14399 0.723 0.0
H1039 H 0.46432 0.13305 0.72103 0.0
Nd1040 Nd 0.90042 0.20155 0.72048 0.0
Nd1041 Nd 0.92686 0.2743 0.71613 0.0
C1042 C 0.88621 0.14907 0.72637 0.0
C1043 C 0.88038 0.11781 0.72456 0.0
C1044 C 0.89659 0.10531 0.7277 0.0
C1045 C 0.89117 0.07567 0.72615 0.0
C1046 C 0.86918 0.05758 0.72144 0.0
C1047 C 0.85321 0.07034 0.71824 0.0
C1048 C 0.85878 0.10011 0.71977 0.0
C1049 C 0.89645 0.20614 0.70721 0.0
C1050 C 0.97318 0.24489 0.71587 0.0
C1051 C 0.93614 0.32542 0.71023 0.0
C1052 C 0.92997 0.3513 0.71151 0.0
C1053 C 0.91419 0.35885 0.7069 0.0
C1054 C 0.9077 0.38283 0.70799 0.0
C1055 C 0.91691 0.40013 0.71373 0.0
C1056 C 0.93273 0.39247 0.71836 0.0
C1057 C 0.93912 0.36835 0.71727 0.0
C1058 C 0.93627 0.26955 0.72923 0.0
C1059 C 0.85317 0.22992 0.72068 0.0
O1060 O 0.91476 0.17202 0.72579 0.0
O1061 O 0.86548 0.15657 0.72463 0.0
O1062 O 0.88769 0.18039 0.71027 0.0
O1063 O 0.90681 0.22783 0.71128 0.0
O1064 O 0.95249 0.22121 0.71932 0.0
O1065 O 0.96786 0.26652 0.71341 0.0
O1066 O 0.91183 0.29813 0.70919 0.0
O1067 O 0.95746 0.32398 0.71368 0.0
O1068 O 0.94373 0.29539 0.72633 0.0
O1069 O 0.92237 0.24804 0.7252 0.0
O1070 O 0.87458 0.25547 0.71781 0.0
O1071 O 0.85892 0.20829 0.72287 0.0
H1072 H 0.91349 0.11852 0.73138 0.0
H1073 H 0.90443 0.06702 0.72864 0.0
H1074 H 0.83594 0.05711 0.71463 0.0
H1075 H 0.84599 0.10914 0.71722 0.0
H1076 H 0.90669 0.34601 0.70243 0.0
H1077 H 0.895 0.38746 0.70435 0.0
H1078 H 0.94059 0.40535 0.7228 0.0
H1079 H 0.95123 0.3631 0.72094 0.0
Nd1080 Nd 0.40352 0.20503 0.12617 0.0
Nd1081 Nd 0.35752 0.13212 0.1306 0.0
C1082 C 0.4408 0.25698 0.11996 0.0
C1083 C 0.46656 0.28857 0.12141 0.0
C1084 C 0.4911 0.30345 0.11704 0.0
C1085 C 0.51511 0.33377 0.11817 0.0
C1086 C 0.51513 0.35007 0.12371 0.0
C1087 C 0.4907 0.33482 0.12814 0.0
C1088 C 0.46671 0.3044 0.12701 0.0
C1089 C 0.39482 0.2006 0.13942 0.0
C1090 C 0.4335 0.16261 0.1311 0.0
C1091 C 0.3162 0.08084 0.13653 0.0
C1092 C 0.28444 0.05438 0.13527 0.0
C1093 C 0.26126 0.04591 0.13995 0.0
C1094 C 0.23107 0.02127 0.13889 0.0
C1095 C 0.22315 1.00421 0.13312 0.0
C1096 C 0.24649 0.01284 0.12842 0.0
C1097 C 0.2767 0.03761 0.12948 0.0
C1098 C 0.37198 0.13682 0.11751 0.0
C1099 C 0.32757 0.17582 0.12602 0.0
O1100 O 0.44655 0.23413 0.12054 0.0
O1101 O 0.41315 0.2499 0.12203 0.0
O1102 O 0.41172 0.22637 0.13636 0.0
O1103 O 0.38364 0.17884 0.13536 0.0
O1104 O 0.43678 0.18655 0.12771 0.0
O1105 O 0.40638 0.14056 0.13341 0.0
O1106 O 0.3185 0.1079 0.13748 0.0
O1107 O 0.33925 0.08266 0.13313 0.0
O1108 O 0.35372 0.11095 0.12042 0.0
O1109 O 0.37925 0.15832 0.12153 0.0
O1110 O 0.32368 0.15035 0.12887 0.0
O1111 O 0.35489 0.1977 0.12385 0.0
H1112 H 0.49159 0.29166 0.11271 0.0
H1113 H 0.53376 0.34438 0.11471 0.0
H1114 H 0.48969 0.34659 0.13243 0.0
H1115 H 0.44811 0.29341 0.13049 0.0
H1116 H 0.26647 0.05851 0.14444 0.0
H1117 H 0.21383 0.01591 0.14259 0.0
H1118 H 0.24158 1.0002 0.12394 0.0
H1119 H 0.29397 0.0436 0.12575 0.0
Nd1120 Nd 0.88173 0.23071 0.12598 0.0
Nd1121 Nd 0.95036 0.25605 0.13092 0.0
C1122 C 0.83027 0.21695 0.1196 0.0
C1123 C 0.79864 0.21075 0.12116 0.0
C1124 C 0.77384 0.1922 0.11706 0.0
C1125 C 0.74368 0.18586 0.11848 0.0
C1126 C 0.73764 0.19801 0.12405 0.0
C1127 C 0.76263 0.21648 0.12818 0.0
C1128 C 0.79277 0.2227 0.12676 0.0
C1129 C 0.88129 0.22538 0.13934 0.0
C1130 C 0.92227 0.30183 0.13124 0.0
C1131 C 1.00282 0.26462 0.13622 0.0
C1132 C 0.02574 0.25419 0.13515 0.0
C1133 C 0.04374 0.25372 0.14029 0.0
C1134 C 0.06698 0.24599 0.13929 0.0
C1135 C 0.07295 0.23863 0.1331 0.0
C1136 C 0.05432 0.23852 0.12798 0.0
C1137 C 0.031 0.24615 0.12899 0.0
C1138 C 0.94679 0.27634 0.11885 0.0
C1139 C 0.90946 0.18336 0.12564 0.0
O1140 O 0.8531 0.24533 0.12044 0.0
O1141 O 0.83721 0.19611 0.12149 0.0
O1142 O 0.85673 0.21694 0.13589 0.0
O1143 O 0.9043 0.23597 0.13565 0.0
O1144 O 0.90211 0.28286 0.12696 0.0
O1145 O 0.94 0.294 0.13463 0.0
O1146 O 0.9753 0.24417 0.13833 0.0
O1147 O 1.00155 0.28268 0.13183 0.0
O1148 O 0.96873 0.29163 0.12296 0.0
O1149 O 0.92837 0.24888 0.12088 0.0
O1150 O 0.93556 0.20559 0.12815 0.0
O1151 O 0.88649 0.188 0.12396 0.0
H1152 H 0.77783 0.18267 0.11272 0.0
H1153 H 0.72517 0.17187 0.11516 0.0
H1154 H 0.75885 0.2259 0.13255 0.0
H1155 H 0.81149 0.23681 0.13004 0.0
H1156 H 0.0401 0.25973 0.14508 0.0
H1157 H 0.08025 0.24577 0.14339 0.0
H1158 H 0.05824 0.23335 0.12314 0.0
H1159 H 0.01745 0.24632 0.12494 0.0
Nd1160 Nd 0.85238 0.67997 0.12586 0.0
Nd1161 Nd 0.83042 0.72956 0.13037 0.0
C1162 C 0.86317 0.63934 0.11991 0.0
C1163 C 0.8718 0.61569 0.1216 0.0
C1164 C 0.85416 0.58566 0.11912 0.0
C1165 C 0.86134 0.56263 0.12066 0.0
C1166 C 0.88658 0.56904 0.1247 0.0
C1167 C 0.90417 0.59919 0.12723 0.0
C1168 C 0.89683 0.62226 0.1257 0.0
C1169 C 0.85578 0.68711 0.13918 0.0
C1170 C 0.77989 0.65628 0.12953 0.0
C1171 C 0.82266 0.77186 0.13652 0.0
C1172 C 0.82884 0.80371 0.13519 0.0
C1173 C 0.83043 0.82286 0.14028 0.0
C1174 C 0.83704 0.85332 0.13914 0.0
C1175 C 0.84225 0.86547 0.13285 0.0
C1176 C 0.84066 0.84607 0.12775 0.0
C1177 C 0.83409 0.8156 0.12891 0.0
C1178 C 0.8204 0.71664 0.11722 0.0
C1179 C 0.90375 0.7548 0.12607 0.0
O1180 O 0.83544 0.63331 0.12167 0.0
O1181 O 0.88425 0.66863 0.12059 0.0
O1182 O 0.86295 0.66901 0.13608 0.0
O1183 O 0.84709 0.70003 0.13513 0.0
O1184 O 0.79928 0.65328 0.12566 0.0
O1185 O 0.78814 0.68176 0.13296 0.0
O1186 O 0.84711 0.76873 0.13725 0.0
O1187 O 0.80074 0.74933 0.13314 0.0
O1188 O 0.81498 0.73628 0.12022 0.0
O1189 O 0.83309 0.70725 0.12118 0.0
O1190 O 0.88299 0.76044 0.12879 0.0
O1191 O 0.8968 0.72694 0.12394 0.0
H1192 H 0.83459 0.57992 0.11599 0.0
H1193 H 0.84677 0.53962 0.11872 0.0
H1194 H 0.92388 0.60513 0.13031 0.0
H1195 H 0.91076 0.64519 0.12773 0.0
H1196 H 0.82677 0.81432 0.14517 0.0
H1197 H 0.83856 0.86752 0.14321 0.0
H1198 H 0.84414 0.85428 0.12284 0.0
H1199 H 0.83317 0.80132 0.1249 0.0
Nd1200 Nd 0.94953 0.72997 0.62868 0.0
Nd1201 Nd 0.87749 0.6796 0.62444 0.0
C1202 C 0.99987 0.77298 0.63464 0.0
C1203 C 0.02529 0.80529 0.63342 0.0
C1204 C 0.03335 0.82785 0.63822 0.0
C1205 C 0.05695 0.85855 0.6372 0.0
C1206 C 0.07331 0.8676 0.63135 0.0
C1207 C 0.06525 0.84489 0.62654 0.0
C1208 C 0.04148 0.81416 0.62756 0.0
C1209 C 0.94543 0.71627 0.61555 0.0
C1210 C 0.90063 0.75446 0.62454 0.0
C1211 C 0.82517 0.63883 0.61874 0.0
C1212 C 0.79308 0.61574 0.62068 0.0
C1213 C 0.76796 0.61079 0.6168 0.0
C1214 C 0.73756 0.58828 0.61844 0.0
C1215 C 0.73151 0.57001 0.62401 0.0
C1216 C 0.75683 0.5754 0.62793 0.0
C1217 C 0.78719 0.59803 0.6263 0.0
C1218 C 0.88275 0.68759 0.63774 0.0
C1219 C 0.92697 0.65657 0.62796 0.0
O1220 O 0.97212 0.76916 0.63557 0.0
O1221 O 0.99941 0.75066 0.6312 0.0
O1222 O 0.97074 0.73617 0.61845 0.0
O1223 O 0.92364 0.70711 0.61959 0.0
O1224 O 0.92742 0.76048 0.62713 0.0
O1225 O 0.87956 0.72639 0.62254 0.0
O1226 O 0.84713 0.63292 0.62038 0.0
O1227 O 0.83352 0.66815 0.61938 0.0
O1228 O 0.85717 0.6691 0.63477 0.0
O1229 O 0.9038 0.70039 0.63358 0.0
O1230 O 0.90404 0.65306 0.62418 0.0
O1231 O 0.94453 0.68237 0.63128 0.0
H1232 H 0.02132 0.82169 0.64279 0.0
H1233 H 0.06266 0.87512 0.64106 0.0
H1234 H 0.07696 0.85094 0.62195 0.0
H1235 H 0.0357 0.79742 0.62373 0.0
H1236 H 0.77187 0.62425 0.61246 0.0
H1237 H 0.71878 0.58533 0.61535 0.0
H1238 H 0.75335 0.56167 0.63221 0.0
H1239 H 0.80612 0.6014 0.62941 0.0
Nd1240 Nd 0.35803 0.25991 0.62971 0.0
Nd1241 Nd 0.39957 0.2327 0.62576 0.0
C1242 C 0.31389 0.2731 0.63269 0.0
C1243 C 0.27983 0.25983 0.63323 0.0
C1244 C 0.2589 0.23207 0.63012 0.0
C1245 C 0.22725 0.2229 0.62968 0.0
C1246 C 0.21588 0.24145 0.63228 0.0
C1247 C 0.2368 0.26854 0.63562 0.0
C1248 C 0.26833 0.27758 0.63608 0.0
C1249 C 0.39085 0.28397 0.61854 0.0
C1250 C 0.32533 0.18615 0.62522 0.0
C1251 C 0.43789 0.21872 0.6197 0.0
C1252 C 0.4633 0.21263 0.62132 0.0
C1253 C 0.46944 0.1939 0.61725 0.0
C1254 C 0.4932 0.18755 0.6187 0.0
C1255 C 0.51144 0.19984 0.62426 0.0
C1256 C 0.50508 0.21855 0.62835 0.0
C1257 C 0.48119 0.22479 0.6269 0.0
C1258 C 0.38813 0.2222 0.63885 0.0
C1259 C 0.43154 0.30197 0.63247 0.0
O1260 O 0.32875 0.26646 0.63705 0.0
O1261 O 0.32432 0.27413 0.62688 0.0
O1262 O 0.3867 0.29972 0.62297 0.0
O1263 O 0.37711 0.25516 0.61996 0.0
O1264 O 0.32245 0.20798 0.6282 0.0
O1265 O 0.35233 0.19148 0.62297 0.0
O1266 O 0.44336 0.24713 0.62044 0.0
O1267 O 0.41011 0.19794 0.62161 0.0
O1268 O 0.40474 0.21388 0.63553 0.0
O1269 O 0.37811 0.23552 0.63521 0.0
O1270 O 0.43487 0.28255 0.62867 0.0
O1271 O 0.40387 0.29676 0.6344 0.0
H1272 H 0.26725 0.21817 0.6278 0.0
H1273 H 0.21198 0.20201 0.62704 0.0
H1274 H 0.2289 0.28316 0.63778 0.0
H1275 H 0.28401 0.2992 0.63845 0.0
H1276 H 0.45587 0.18423 0.61292 0.0
H1277 H 0.49764 0.17342 0.6154 0.0
H1278 H 0.51836 0.22811 0.6327 0.0
H1279 H 0.47666 0.23906 0.63015 0.0
Nd1280 Nd 0.82454 0.13217 0.62915 0.0
Nd1281 Nd 0.85131 0.2051 0.62471 0.0
C1282 C 0.8149 0.08093 0.63506 0.0
C1283 C 0.82013 0.05442 0.6338 0.0
C1284 C 0.83579 0.04659 0.63838 0.0
C1285 C 0.84118 0.02185 0.63733 0.0
C1286 C 0.83092 1.00403 0.63166 0.0
C1287 C 0.81527 0.01202 0.62706 0.0
C1288 C 0.80998 0.03689 0.62811 0.0
C1289 C 0.81401 0.13691 0.6161 0.0
C1290 C 0.89817 0.17594 0.62456 0.0
C1291 C 0.86567 0.25685 0.61845 0.0
C1292 C 0.87144 0.28843 0.61988 0.0
C1293 C 0.86282 0.30371 0.61538 0.0
C1294 C 0.8692 0.33406 0.61649 0.0
C1295 C 0.8845 0.35 0.62214 0.0
C1296 C 0.89261 0.33435 0.6267 0.0
C1297 C 0.88612 0.3039 0.62558 0.0
C1298 C 0.85601 0.20085 0.63795 0.0
C1299 C 0.77942 0.16296 0.62993 0.0
O1300 O 0.8397 0.10802 0.63598 0.0
O1301 O 0.79352 0.0827 0.6317 0.0
O1302 O 0.80608 0.11097 0.61901 0.0
O1303 O 0.8289 0.15836 0.6201 0.0
O1304 O 0.87645 0.15013 0.62729 0.0
O1305 O 0.89293 0.19814 0.62252 0.0
O1306 O 0.83712 0.23395 0.61907 0.0
O1307 O 0.88633 0.24992 0.62052 0.0
O1308 O 0.86471 0.22658 0.63487 0.0
O1309 O 0.84533 0.17899 0.63391 0.0
O1310 O 0.79974 0.18675 0.62646 0.0
O1311 O 0.7846 0.14089 0.63218 0.0
H1312 H 0.84403 0.05976 0.64279 0.0
H1313 H 0.85381 0.01699 0.64095 0.0
H1314 H 0.80666 0.99879 0.62267 0.0
H1315 H 0.79791 0.04233 0.62447 0.0
H1316 H 0.85132 0.2922 0.61096 0.0
H1317 H 0.86198 0.34499 0.61292 0.0
H1318 H 0.90462 0.34583 0.63107 0.0
H1319 H 0.89293 0.2926 0.62915 0.0
Nd1320 Nd 0.39856 0.27354 0.21746 0.0
Nd1321 Nd 0.3515 0.2011 0.22199 0.0
C1322 C 0.44002 0.3242 0.21137 0.0
C1323 C 0.47153 0.35044 0.21272 0.0
C1324 C 0.49048 0.36845 0.20764 0.0
C1325 C 0.52069 0.39281 0.20881 0.0
C1326 C 0.53277 0.3998 0.2151 0.0
C1327 C 0.51357 0.38157 0.22018 0.0
C1328 C 0.48335 0.35716 0.219 0.0
C1329 C 0.38367 0.2697 0.23051 0.0
C1330 C 0.42735 0.22923 0.22227 0.0
C1331 C 0.31402 0.14944 0.22826 0.0
C1332 C 0.2881 0.11831 0.22665 0.0
C1333 C 0.28131 0.09323 0.2307 0.0
C1334 C 0.25724 0.06342 0.22919 0.0
C1335 C 0.23938 0.05806 0.22359 0.0
C1336 C 0.24638 0.08334 0.21953 0.0
C1337 C 0.27056 0.11315 0.22103 0.0
C1338 C 0.36033 0.20492 0.20874 0.0
C1339 C 0.32272 0.24413 0.21684 0.0
O1340 O 0.43781 0.29707 0.21062 0.0
O1341 O 0.41706 0.32278 0.21473 0.0
O1342 O 0.4022 0.29536 0.22756 0.0
O1343 O 0.37645 0.24795 0.22655 0.0
O1344 O 0.43187 0.25483 0.21936 0.0
O1345 O 0.39976 0.2077 0.22439 0.0
O1346 O 0.30882 0.17268 0.22769 0.0
O1347 O 0.34139 0.15597 0.22613 0.0
O1348 O 0.34295 0.17934 0.21183 0.0
O1349 O 0.37183 0.22675 0.21277 0.0
O1350 O 0.3189 0.22031 0.22036 0.0
O1351 O 0.35007 0.26554 0.2145 0.0
H1352 H 0.48198 0.36352 0.20275 0.0
H1353 H 0.53476 0.40581 0.20475 0.0
H1354 H 0.52174 0.38634 0.2251 0.0
H1355 H 0.46922 0.34346 0.223 0.0
H1356 H 0.29465 0.09671 0.23504 0.0
H1357 H 0.2523 0.04464 0.23247 0.0
H1358 H 0.2334 0.08005 0.21514 0.0
H1359 H 0.27563 0.13213 0.21779 0.0
Nd1360 Nd 0.80776 0.15605 0.21845 0.0
Nd1361 Nd 0.87778 0.18282 0.22176 0.0
C1362 C 0.75045 0.1361 0.2142 0.0
C1363 C 0.7253 0.14382 0.21521 0.0
C1364 C 0.71935 0.16052 0.21052 0.0
C1365 C 0.6956 0.16764 0.21137 0.0
C1366 C 0.67688 0.15811 0.21692 0.0
C1367 C 0.68282 0.14131 0.2216 0.0
C1368 C 0.70663 0.13424 0.22076 0.0
C1369 C 0.81979 0.15293 0.23142 0.0
C1370 C 0.84877 0.22868 0.22221 0.0
C1371 C 0.93149 0.19954 0.22752 0.0
C1372 C 0.96299 0.20615 0.22573 0.0
C1373 C 0.98853 0.22688 0.22944 0.0
C1374 C 0.01853 0.23313 0.22789 0.0
C1375 C 0.02363 0.21869 0.22259 0.0
C1376 C 0.99791 0.1981 0.21884 0.0
C1377 C 0.96793 0.19197 0.22038 0.0
C1378 C 0.87387 0.19164 0.20871 0.0
C1379 C 0.83946 0.11189 0.21631 0.0
O1380 O 0.77534 0.15653 0.21115 0.0
O1381 O 0.75698 0.123 0.21893 0.0
O1382 O 0.80062 0.16136 0.22925 0.0
O1383 O 0.83302 0.14843 0.22671 0.0
O1384 O 0.82558 0.20822 0.21868 0.0
O1385 O 0.8679 0.22134 0.22511 0.0
O1386 O 0.90907 0.17079 0.22703 0.0
O1387 O 0.92327 0.21936 0.22557 0.0
O1388 O 0.89953 0.19984 0.21176 0.0
O1389 O 0.85146 0.17918 0.21261 0.0
O1390 O 0.86573 0.13425 0.2187 0.0
O1391 O 0.81451 0.11478 0.21547 0.0
H1392 H 0.73312 0.16815 0.20618 0.0
H1393 H 0.69217 0.18096 0.20768 0.0
H1394 H 0.66872 0.13312 0.2259 0.0
H1395 H 0.71026 0.1211 0.22446 0.0
H1396 H 0.98525 0.23809 0.23358 0.0
H1397 H 0.03766 0.24882 0.23092 0.0
H1398 H 1.00098 0.18687 0.21468 0.0
H1399 H 0.94859 0.17608 0.21741 0.0
Nd1400 Nd 0.92407 0.68072 0.21723 0.0
Nd1401 Nd 0.89755 0.72707 0.2218 0.0
C1402 C 0.93371 0.6393 0.21123 0.0
C1403 C 0.92852 0.6079 0.21265 0.0
C1404 C 0.93016 0.58969 0.2077 0.0
C1405 C 0.9244 0.55958 0.20894 0.0
C1406 C 0.91684 0.54687 0.21517 0.0
C1407 C 0.9153 0.56536 0.22013 0.0
C1408 C 0.92102 0.59548 0.21888 0.0
C1409 C 0.93426 0.69542 0.2303 0.0
C1410 C 0.85069 0.65133 0.22195 0.0
C1411 C 0.883 0.76421 0.2281 0.0
C1412 C 0.87891 0.79087 0.22654 0.0
C1413 C 0.86176 0.79883 0.23067 0.0
C1414 C 0.85681 0.82344 0.22917 0.0
C1415 C 0.86895 0.84066 0.22349 0.0
C1416 C 0.8862 0.83256 0.21935 0.0
C1417 C 0.89105 0.80786 0.22085 0.0
C1418 C 0.89332 0.71881 0.20853 0.0
C1419 C 0.96945 0.75654 0.21662 0.0
O1420 O 0.90874 0.64146 0.21042 0.0
O1421 O 0.9551 0.66232 0.21459 0.0
O1422 O 0.94255 0.67774 0.22737 0.0
O1423 O 0.91924 0.70185 0.22631 0.0
O1424 O 0.87202 0.6472 0.21902 0.0
O1425 O 0.85635 0.67867 0.22414 0.0
O1426 O 0.91131 0.76875 0.2278 0.0
O1427 O 0.86228 0.73754 0.22567 0.0
O1428 O 0.88462 0.73581 0.21162 0.0
O1429 O 0.90367 0.70729 0.21257 0.0
O1430 O 0.94915 0.76008 0.2201 0.0
O1431 O 0.96415 0.72937 0.21431 0.0
H1432 H 0.93563 0.59868 0.20285 0.0
H1433 H 0.92533 0.54606 0.20496 0.0
H1434 H 0.90995 0.5567 0.225 0.0
H1435 H 0.91949 0.60905 0.22278 0.0
H1436 H 0.85211 0.78594 0.23507 0.0
H1437 H 0.84379 0.82922 0.23251 0.0
H1438 H 0.89558 0.84502 0.2149 0.0
H1439 H 0.9041 0.80189 0.21756 0.0
C1440 C 0.41958 0.14646 0.11135 0.0
C1441 C 0.38792 0.13753 0.11141 0.0
C1442 C 0.43246 0.13836 0.10618 0.0
C1443 C 0.40624 0.08063 0.09257 0.0
H1444 H 0.49342 0.12361 0.08806 0.0
C1445 C 0.45142 0.02311 0.075 0.0
C1446 C 0.47478 0.04138 0.07057 0.0
C1447 C 0.44437 0.0365 0.08018 0.0
C1448 C 0.46891 0.11133 0.08919 0.0
H1449 H 0.34538 0.11433 0.10595 0.0
H1450 H 0.36789 0.10247 0.09677 0.0
H1451 H 0.47434 0.14576 0.0961 0.0
H1452 H 0.51026 0.08833 0.06837 0.0
H1453 H 0.49723 0.11212 0.07725 0.0
H1454 H 0.40025 0.04704 0.08552 0.0
C1455 C 0.38287 0.11452 0.10079 0.0
C1456 C 0.45793 0.12395 0.0939 0.0
C1457 C 0.36995 0.12196 0.10602 0.0
C1458 C 0.49216 0.07351 0.07168 0.0
C1459 C 0.48459 0.08715 0.07681 0.0
C1460 C 0.41707 0.06831 0.08784 0.0
C1461 C 0.41406 0.12131 0.10088 0.0
C1462 C 0.42631 0.10878 0.0957 0.0
C1463 C 0.45978 0.06891 0.08104 0.0
C1464 C 0.44868 0.0831 0.08609 0.0
H1465 H 0.43387 0.15764 0.11552 0.0
H1466 H 0.45642 0.14398 0.10653 0.0
H1467 H 0.38191 0.06749 0.09382 0.0
H1468 H 0.43761 0.99828 0.07431 0.0
H1469 H 0.42607 0.02121 0.08341 0.0
C1470 C 0.95753 0.32472 0.11333 0.0
C1471 C 0.94462 0.29237 0.11297 0.0
C1472 C 0.96223 0.34264 0.10785 0.0
C1473 C 0.94347 0.34206 0.09057 0.0
H1474 H 0.0238 0.41725 0.09021 0.0
C1475 C 0.99484 0.41314 0.06726 0.0
C1476 C 0.01577 0.44525 0.06751 0.0
C1477 C 0.98299 0.39557 0.07285 0.0
C1478 C 1.00102 0.39675 0.09024 0.0
H1479 H 0.92515 0.25331 0.10647 0.0
H1480 H 0.93339 0.2849 0.09673 0.0
H1481 H 1.00868 0.38348 0.09954 0.0
H1482 H 0.0395 0.48435 0.07392 0.0
H1483 H 0.01824 0.45372 0.0838 0.0
H1484 H 0.93577 0.35541 0.08127 0.0
C1485 C 0.93977 0.29629 0.10136 0.0
C1486 C 0.99233 0.37714 0.09561 0.0
C1487 C 0.93486 0.2781 0.10693 0.0
C1488 C 0.02334 0.45972 0.07355 0.0
C1489 C 1.01141 0.44197 0.07921 0.0
C1490 C 0.95209 0.36183 0.0852 0.0
C1491 C 0.95451 0.329 0.10174 0.0
C1492 C 0.96346 0.34942 0.09588 0.0
C1493 C 0.99154 0.40941 0.07895 0.0
C1494 C 0.98115 0.38947 0.08491 0.0
H1495 H 0.96516 0.33659 0.1179 0.0
H1496 H 0.97272 0.36749 0.1084 0.0
H1497 H 0.92094 0.32121 0.09061 0.0
H1498 H 0.98839 0.40115 0.06269 0.0
H1499 H 0.96822 0.37076 0.07236 0.0
C1500 C 0.61962 0.62085 0.07542 0.0
C1501 C 0.62259 0.60601 0.06997 0.0
C1502 C 0.63996 0.62833 0.08066 0.0
C1503 C 0.70664 0.6203 0.08744 0.0
H1504 H 0.72383 0.69591 0.09613 0.0
C1505 C 0.79089 0.67053 0.10975 0.0
C1506 C 0.80502 0.70253 0.11096 0.0
C1507 C 0.76974 0.65691 0.1046 0.0
C1508 C 0.71996 0.67502 0.09373 0.0
H1509 H 0.64949 0.58734 0.06574 0.0
H1510 H 0.68561 0.60105 0.07476 0.0
H1511 H 0.68521 0.67536 0.0878 0.0
H1512 H 0.80988 0.74549 0.1074 0.0
H1513 H 0.77547 0.72265 0.09828 0.0
H1514 H 0.74285 0.62113 0.09324 0.0
C1515 C 0.66685 0.60603 0.07515 0.0
C1516 C 0.69691 0.66263 0.08898 0.0
C1517 C 0.64593 0.5979 0.06996 0.0
C1518 C 0.79933 0.72075 0.10663 0.0
C1519 C 0.77894 0.7074 0.10144 0.0
C1520 C 0.73013 0.63299 0.09218 0.0
C1521 C 0.66489 0.62234 0.08052 0.0
C1522 C 0.68956 0.63494 0.08573 0.0
C1523 C 0.7626 0.67505 0.10047 0.0
C1524 C 0.73739 0.66076 0.09539 0.0
H1525 H 0.60224 0.6279 0.07553 0.0
H1526 H 0.63657 0.6398 0.08473 0.0
H1527 H 0.70182 0.59884 0.08516 0.0
H1528 H 0.79459 0.65572 0.11299 0.0
H1529 H 0.75791 0.63198 0.10408 0.0
C1530 C 0.08524 0.47918 0.4437 0.0
C1531 C 0.05358 0.47024 0.44378 0.0
C1532 C 0.09802 0.4711 0.4385 0.0
C1533 C 0.07163 0.41383 0.42478 0.0
H1534 H 0.15886 0.45678 0.42033 0.0
C1535 C 0.11658 0.3573 0.4069 0.0
C1536 C 0.14032 0.37587 0.40257 0.0
C1537 C 0.10945 0.3703 0.41213 0.0
C1538 C 0.13434 0.44451 0.42144 0.0
H1539 H 1.01094 0.44707 0.43836 0.0
H1540 H 0.03327 0.43531 0.42914 0.0
H1541 H 0.13984 0.4786 0.42844 0.0
H1542 H 0.1763 0.42291 0.40058 0.0
H1543 H 0.16309 0.44603 0.40955 0.0
H1544 H 0.06555 0.38067 0.41763 0.0
C1545 C 0.04833 0.44729 0.43316 0.0
C1546 C 0.12338 0.45693 0.4262 0.0
C1547 C 0.0355 0.45467 0.4384 0.0
C1548 C 0.15792 0.40785 0.40382 0.0
C1549 C 0.15024 0.42111 0.409 0.0
C1550 C 0.08243 0.40174 0.42 0.0
C1551 C 0.07953 0.45411 0.4332 0.0
C1552 C 0.09175 0.44177 0.42798 0.0
C1553 C 0.12513 0.40262 0.41314 0.0
C1554 C 0.11405 0.41653 0.41827 0.0
H1555 H 0.09961 0.49039 0.44785 0.0
H1556 H 0.12199 0.47674 0.43883 0.0
H1557 H 0.04729 0.40068 0.42602 0.0
H1558 H 0.10262 0.33256 0.4061 0.0
H1559 H 0.0909 0.35479 0.4153 0.0
C1560 C 0.60435 0.6375 0.44301 0.0
C1561 C 0.61331 0.61482 0.44297 0.0
C1562 C 0.61247 0.65876 0.4379 0.0
C1563 C 0.67025 0.69103 0.42433 0.0
H1564 H 0.62719 0.73543 0.42007 0.0
C1565 C 0.72748 0.79408 0.40691 0.0
C1566 C 0.709 0.79926 0.40255 0.0
C1567 C 0.71426 0.77365 0.41209 0.0
C1568 C 0.63949 0.72315 0.42113 0.0
H1569 H 0.63649 0.5958 0.43741 0.0
H1570 H 0.64835 0.63067 0.42833 0.0
H1571 H 0.605 0.69374 0.42798 0.0
H1572 H 0.66193 0.78806 0.40046 0.0
H1573 H 0.63843 0.75119 0.40932 0.0
H1574 H 0.70384 0.71897 0.41732 0.0
C1575 C 0.6363 0.63336 0.43238 0.0
C1576 C 0.62685 0.69928 0.42577 0.0
C1577 C 0.62888 0.61272 0.43755 0.0
C1578 C 0.6769 0.7847 0.40373 0.0
C1579 C 0.66342 0.76345 0.40885 0.0
C1580 C 0.68257 0.71442 0.41966 0.0
C1581 C 0.62952 0.65771 0.43257 0.0
C1582 C 0.64206 0.68276 0.42747 0.0
C1583 C 0.68183 0.75674 0.413 0.0
C1584 C 0.66773 0.73129 0.418 0.0
H1585 H 0.59315 0.64033 0.44721 0.0
H1586 H 0.60686 0.67705 0.43833 0.0
H1587 H 0.68341 0.67978 0.42551 0.0
H1588 H 0.75231 0.80501 0.40617 0.0
H1589 H 0.72967 0.77053 0.41528 0.0
C1590 C 0.28631 0.95781 0.40763 0.0
C1591 C 0.28815 0.94145 0.40232 0.0
C1592 C 0.3066 0.96519 0.41286 0.0
C1593 C 0.37103 0.95422 0.41993 0.0
H1594 H 0.39147 0.03169 0.4282 0.0
C1595 C 0.4554 1.00353 0.4422 0.0
C1596 C 0.4704 0.03563 0.44336 0.0
C1597 C 0.4343 0.99025 0.43705 0.0
C1598 C 0.38672 0.01026 0.42592 0.0
H1599 H 0.3129 0.91985 0.39838 0.0
H1600 H 0.3491 0.9335 0.40737 0.0
H1601 H 0.35298 0.01175 0.41985 0.0
H1602 H 0.47688 0.07905 0.43969 0.0
H1603 H 0.44268 0.05674 0.43053 0.0
H1604 H 0.40633 0.95392 0.42584 0.0
C1605 C 0.33122 0.9398 0.40766 0.0
C1606 C 0.3637 0.99823 0.42116 0.0
C1607 C 0.31027 0.93172 0.40247 0.0
C1608 C 0.46565 0.05423 0.43896 0.0
C1609 C 0.44536 0.04119 0.43375 0.0
C1610 C 0.39455 0.96658 0.42466 0.0
C1611 C 0.33042 0.95757 0.41287 0.0
C1612 C 0.35514 0.96987 0.41807 0.0
C1613 C 0.42811 0.00882 0.43283 0.0
C1614 C 0.40297 0.99498 0.42773 0.0
H1615 H 0.26981 0.966 0.40762 0.0
H1616 H 0.30403 0.97779 0.41682 0.0
H1617 H 0.36525 0.93223 0.41778 0.0
H1618 H 0.45836 0.98844 0.4455 0.0
H1619 H 0.42176 0.96529 0.43658 0.0
C1620 C 0.62205 0.9967 0.94673 0.0
C1621 C 0.60786 0.01508 0.94651 0.0
C1622 C 0.62656 0.98368 0.94118 0.0
C1623 C 0.63256 0.9931 0.92338 0.0
H1624 H 0.63652 0.91732 0.92419 0.0
C1625 C 0.65663 0.94235 0.90065 0.0
C1626 C 0.67875 0.93262 0.90103 0.0
C1627 C 0.64474 0.94862 0.90617 0.0
C1628 C 0.63579 0.93864 0.92388 0.0
H1629 H 0.58605 0.03304 0.9402 0.0
H1630 H 0.59333 0.00964 0.93039 0.0
H1631 H 0.61953 0.93434 0.93356 0.0
H1632 H 0.70455 0.92041 0.90761 0.0
H1633 H 0.68335 0.93106 0.91738 0.0
H1634 H 0.6486 0.9972 0.91368 0.0
C1635 C 0.60154 1.00579 0.93492 0.0
C1636 C 0.62601 0.94854 0.92928 0.0
C1637 C 0.59696 0.01896 0.94055 0.0
C1638 C 0.68731 0.92751 0.90714 0.0
C1639 C 0.67526 0.93383 0.91274 0.0
C1640 C 0.64206 0.98305 0.91797 0.0
C1641 C 0.61693 0.98832 0.93514 0.0
C1642 C 0.62458 0.9762 0.92916 0.0
C1643 C 0.65453 0.94548 0.91231 0.0
C1644 C 0.64405 0.95577 0.91814 0.0
H1645 H 0.63068 0.99303 0.95123 0.0
H1646 H 0.63887 0.97098 0.94164 0.0
H1647 H 0.63244 0.01473 0.92306 0.0
H1648 H 0.64929 0.94633 0.89602 0.0
H1649 H 0.62827 0.95667 0.90561 0.0
C1650 C 0.11046 0.78612 0.90606 0.0
C1651 C 0.13751 0.79601 0.90238 0.0
C1652 C 0.10375 0.76625 0.91131 0.0
C1653 C 0.12249 0.7084 0.91846 0.0
H1654 H 0.07019 0.70937 0.93215 0.0
C1655 C 0.0841 0.62757 0.94139 0.0
C1656 C 0.05273 0.61446 0.94322 0.0
C1657 C 0.09648 0.6493 0.93635 0.0
C1658 C 0.08462 0.70857 0.92835 0.0
H1659 H 0.17933 0.79313 0.90152 0.0
H1660 H 0.16825 0.75901 0.9109 0.0
H1661 H 0.09035 0.75018 0.92413 0.0
H1662 H 1.00972 0.6135 0.94097 0.0
H1663 H 0.03131 0.65149 0.9323 0.0
H1664 H 0.11716 0.66695 0.92291 0.0
C1665 C 0.15182 0.76636 0.90963 0.0
C1666 C 0.0962 0.73206 0.92369 0.0
C1667 C 0.15853 0.78642 0.9043 0.0
C1668 C 0.03391 0.62292 0.93971 0.0
C1669 C 0.04639 0.64498 0.93476 0.0
C1670 C 0.11125 0.68509 0.92322 0.0
C1671 C 0.12394 0.75548 0.91316 0.0
C1672 C 0.11474 0.73209 0.91855 0.0
C1673 C 0.07798 0.65896 0.93308 0.0
C1674 C 0.09158 0.68448 0.92815 0.0
H1675 H 0.0935 0.79268 0.90469 0.0
H1676 H 0.08178 0.75826 0.91372 0.0
H1677 H 0.1364 0.70719 0.9146 0.0
H1678 H 0.09935 0.62177 0.944 0.0
H1679 H 0.12089 0.65956 0.93521 0.0
C1680 C 0.45483 0.49371 0.94303 0.0
C1681 C 0.47515 0.48182 0.94368 0.0
C1682 C 0.43352 0.48454 0.93791 0.0
C1683 C 0.41674 0.44883 0.92158 0.0
H1684 H 0.3332 0.43305 0.92472 0.0
C1685 C 0.33389 0.42731 0.90045 0.0
C1686 C 0.30321 0.4025 0.90084 0.0
C1687 C 0.35303 0.43806 0.90587 0.0
C1688 C 0.35636 0.43721 0.92375 0.0
H1689 H 0.48916 0.45134 0.93929 0.0
H1690 H 0.45252 0.43575 0.93033 0.0
H1691 H 0.37064 0.44945 0.93357 0.0
H1692 H 0.2682 0.37033 0.90739 0.0
H1693 H 0.30171 0.38945 0.91699 0.0
H1694 H 0.40262 0.43647 0.9118 0.0
C1695 C 0.45299 0.45222 0.93379 0.0
C1696 C 0.37802 0.44695 0.92883 0.0
C1697 C 0.47413 0.4612 0.93894 0.0
C1698 C 0.29151 0.38984 0.90693 0.0
C1699 C 0.31088 0.40068 0.91243 0.0
C1700 C 0.39525 0.43941 0.91651 0.0
C1701 C 0.43198 0.46337 0.93323 0.0
C1702 C 0.40863 0.45296 0.92783 0.0
C1703 C 0.34234 0.42426 0.91192 0.0
C1704 C 0.36472 0.43358 0.91749 0.0
H1705 H 0.45476 0.50954 0.94659 0.0
H1706 H 0.41821 0.49409 0.93763 0.0
H1707 H 0.43998 0.45335 0.92056 0.0
H1708 H 0.3437 0.43762 0.89583 0.0
H1709 H 0.37668 0.45675 0.90527 0.0
C1710 C 0.92896 0.6696 0.60826 0.0
C1711 C 0.94632 0.70176 0.60933 0.0
C1712 C 0.93655 0.65584 0.60315 0.0
C1713 C 1.00423 0.67431 0.59223 0.0
H1714 H 0.94694 0.59721 0.58385 0.0
C1715 C 0.05151 0.62021 0.5742 0.0
C1716 C 0.03389 0.6052 0.56874 0.0
C1717 C 0.03841 0.62763 0.5794 0.0
C1718 C 0.96335 0.61891 0.58609 0.0
H1719 H 0.98347 0.74477 0.60555 0.0
H1720 H 0.9951 0.7216 0.5965 0.0
H1721 H 0.92775 0.61944 0.59186 0.0
H1722 H 0.98838 0.58614 0.56445 0.0
H1723 H 0.9655 0.59966 0.57341 0.0
H1724 H 0.03955 0.6749 0.58634 0.0
C1725 C 0.97676 0.70641 0.59974 0.0
C1726 C 0.9523 0.63157 0.59077 0.0
C1727 C 0.96968 0.71992 0.60489 0.0
C1728 C 1.00237 0.59683 0.56868 0.0
C1729 C 0.98931 0.60485 0.57383 0.0
C1730 C 0.01514 0.66192 0.58753 0.0
C1731 C 0.96137 0.67398 0.59892 0.0
C1732 C 0.97255 0.65969 0.59391 0.0
C1733 C 1.0074 0.62135 0.57921 0.0
C1734 C 0.99506 0.63391 0.58437 0.0
H1735 H 0.9109 0.65483 0.61159 0.0
H1736 H 0.92392 0.63085 0.60274 0.0
H1737 H 0.02103 0.6955 0.59458 0.0
H1738 H 0.07599 0.62747 0.57435 0.0
H1739 H 0.05313 0.6393 0.58348 0.0
C1740 C 0.46558 0.41671 0.56646 0.0
C1741 C 0.47932 0.4492 0.56656 0.0
C1742 C 0.46109 0.39971 0.57208 0.0
C1743 C 0.45357 0.40435 0.58978 0.0
H1744 H 0.45153 0.32545 0.5895 0.0
C1745 C 0.42886 0.33165 0.61282 0.0
C1746 C 0.40737 0.29969 0.6125 0.0
C1747 C 0.44088 0.34944 0.60726 0.0
C1748 C 0.45172 0.34727 0.58966 0.0
H1749 H 0.50039 0.48944 0.57274 0.0
H1750 H 0.49308 0.45969 0.58269 0.0
H1751 H 0.46887 0.35874 0.58003 0.0
H1752 H 0.38288 0.26107 0.606 0.0
H1753 H 0.40425 0.29231 0.59617 0.0
H1754 H 0.43658 0.3929 0.59942 0.0
C1755 C 0.48525 0.44728 0.57819 0.0
C1756 C 0.46171 0.36653 0.58421 0.0
C1757 C 0.48984 0.46448 0.57248 0.0
C1758 C 0.39955 0.28555 0.60642 0.0
C1759 C 0.41173 0.30355 0.60079 0.0
C1760 C 0.44384 0.38523 0.59524 0.0
C1761 C 0.47026 0.41448 0.57808 0.0
C1762 C 0.46246 0.39528 0.58413 0.0
C1763 C 0.43185 0.33599 0.60115 0.0
C1764 C 0.44254 0.35627 0.59526 0.0
H1765 H 0.45726 0.40405 0.56199 0.0
H1766 H 0.44911 0.37471 0.57172 0.0
H1767 H 0.45316 0.42586 0.58994 0.0
H1768 H 0.4357 0.34331 0.61743 0.0
H1769 H 0.45689 0.37404 0.60778 0.0
C1770 C 0.80136 0.12305 0.60456 0.0
C1771 C 0.79859 0.13788 0.61004 0.0
C1772 C 0.78095 0.11576 0.59934 0.0
C1773 C 0.71468 0.12456 0.5926 0.0
H1774 H 0.69649 0.04861 0.58393 0.0
C1775 C 0.63037 0.07484 0.57027 0.0
C1776 C 0.61574 0.04274 0.56912 0.0
C1777 C 0.65157 0.08839 0.57541 0.0
C1778 C 0.70066 0.06961 0.58633 0.0
H1779 H 0.77197 0.15672 0.61433 0.0
H1780 H 0.73575 0.14338 0.60533 0.0
H1781 H 0.73522 0.06884 0.59226 0.0
H1782 H 0.61005 0.99962 0.57279 0.0
H1783 H 0.6446 0.0224 0.58189 0.0
H1784 H 0.67871 0.1242 0.5868 0.0
C1785 C 0.7544 0.13825 0.60491 0.0
C1786 C 0.72376 0.0818 0.59108 0.0
C1787 C 0.77538 0.14616 0.61009 0.0
C1788 C 0.62098 0.02443 0.57351 0.0
C1789 C 0.64144 0.03773 0.57869 0.0
C1790 C 0.69117 0.1121 0.58787 0.0
C1791 C 0.75617 0.12196 0.59951 0.0
C1792 C 0.73144 0.10959 0.59431 0.0
C1793 C 0.65828 0.0701 0.5796 0.0
C1794 C 0.68356 0.08421 0.58466 0.0
H1795 H 0.81864 0.11588 0.60441 0.0
H1796 H 0.78417 0.10427 0.59525 0.0
H1797 H 0.71978 0.1461 0.59489 0.0
H1798 H 0.62704 0.08972 0.56698 0.0
H1799 H 0.66379 0.11335 0.57589 0.0
C1800 C 0.82548 0.72265 0.73935 0.0
C1801 C 0.81183 0.72371 0.73351 0.0
C1802 C 0.82119 0.73621 0.74496 0.0
C1803 C 0.79311 0.79065 0.75049 0.0
H1804 H 0.77495 0.74498 0.76644 0.0
C1805 C 0.73121 0.81166 0.77245 0.0
C1806 C 0.74006 0.80754 0.77862 0.0
C1807 C 0.74368 0.80529 0.76693 0.0
C1808 C 0.7803 0.75836 0.76205 0.0
H1809 H 0.78418 0.7411 0.729 0.0
H1810 H 0.77694 0.76407 0.73852 0.0
H1811 H 0.7917 0.7275 0.75713 0.0
H1812 H 0.7704 0.79551 0.78379 0.0
H1813 H 0.79227 0.78526 0.77432 0.0
H1814 H 0.78097 0.82108 0.7554 0.0
C1815 C 0.79107 0.75323 0.7389 0.0
C1816 C 0.79009 0.7483 0.75669 0.0
C1817 C 0.79509 0.73965 0.73339 0.0
C1818 C 0.76282 0.79871 0.77911 0.0
C1819 C 0.7752 0.79246 0.77366 0.0
C1820 C 0.78314 0.80059 0.75585 0.0
C1821 C 0.80353 0.75143 0.74483 0.0
C1822 C 0.79632 0.76402 0.75078 0.0
C1823 C 0.7652 0.79464 0.76747 0.0
C1824 C 0.77636 0.78451 0.76172 0.0
H1825 H 0.83833 0.71042 0.73964 0.0
H1826 H 0.83144 0.73449 0.74942 0.0
H1827 H 0.79819 0.8039 0.7461 0.0
H1828 H 0.71349 0.81805 0.77189 0.0
H1829 H 0.73535 0.80729 0.76225 0.0
C1830 C 0.25699 0.95643 0.77458 0.0
C1831 C 0.27414 0.94192 0.77627 0.0
C1832 C 0.26688 0.97838 0.76958 0.0
C1833 C 0.33862 0.03551 0.7614 0.0
H1834 H 0.28555 0.03773 0.74803 0.0
C1835 C 0.39095 0.11363 0.73919 0.0
C1836 C 0.37447 0.12498 0.73572 0.0
C1837 C 0.37757 0.09355 0.7444 0.0
C1838 C 0.3007 0.03794 0.75178 0.0
H1839 H 0.31478 0.93873 0.7738 0.0
H1840 H 0.33212 0.97708 0.76518 0.0
H1841 H 0.26372 0.99723 0.75627 0.0
H1842 H 0.33079 0.12447 0.73517 0.0
H1843 H 0.30743 0.08998 0.74449 0.0
H1844 H 0.37538 0.0764 0.75714 0.0
C1845 C 0.31099 0.97151 0.76773 0.0
C1846 C 0.28813 0.01448 0.7565 0.0
C1847 C 0.30085 0.94923 0.77265 0.0
C1848 C 0.34436 0.11658 0.7378 0.0
C1849 C 0.33081 0.09633 0.74308 0.0
C1850 C 0.35103 0.05916 0.75678 0.0
C1851 C 0.29451 0.98686 0.76619 0.0
C1852 C 0.30708 0.01255 0.7613 0.0
C1853 C 0.34708 0.08403 0.74642 0.0
C1854 C 0.33255 0.0605 0.75178 0.0
H1855 H 0.23642 0.95154 0.77728 0.0
H1856 H 0.2536 0.98971 0.76855 0.0
H1857 H 0.35382 0.03531 0.7651 0.0
H1858 H 0.41405 0.11925 0.7377 0.0
H1859 H 0.39095 0.08444 0.74666 0.0
C1860 C 0.94855 0.28431 0.74075 0.0
C1861 C 0.95138 0.26895 0.73537 0.0
C1862 C 0.96871 0.29183 0.74602 0.0
C1863 C 0.03455 0.28306 0.75305 0.0
H1864 H 0.05237 0.35932 0.76152 0.0
C1865 C 0.118 0.33337 0.77546 0.0
C1866 C 0.13222 0.3654 0.77665 0.0
C1867 C 0.09712 0.31977 0.77028 0.0
C1868 C 0.04833 0.33825 0.75918 0.0
H1869 H 0.97781 0.24936 0.73132 0.0
H1870 H 0.01365 0.26318 0.74038 0.0
H1871 H 0.01405 0.33883 0.75314 0.0
H1872 H 0.13764 0.40843 0.77299 0.0
H1873 H 0.1038 0.38562 0.76379 0.0
H1874 H 0.07033 0.28367 0.75895 0.0
C1875 C 0.99513 0.26855 0.7407 0.0
C1876 C 0.02544 0.32589 0.7544 0.0
C1877 C 0.97436 0.26036 0.73548 0.0
C1878 C 0.12701 0.38367 0.77224 0.0
C1879 C 0.10693 0.37033 0.76701 0.0
C1880 C 0.0579 0.29573 0.75781 0.0
C1881 C 0.99333 0.28536 0.74599 0.0
C1882 C 0.01786 0.29796 0.75123 0.0
C1883 C 0.09039 0.33796 0.76607 0.0
C1884 C 0.06538 0.32373 0.76095 0.0
H1885 H 0.93142 0.29169 0.74078 0.0
H1886 H 0.96543 0.30369 0.75003 0.0
H1887 H 0.02953 0.26141 0.75082 0.0
H1888 H 0.12137 0.31855 0.77877 0.0
H1889 H 0.08515 0.29483 0.76978 0.0
C1890 C 0.26259 0.33466 0.27595 0.0
C1891 C 0.28013 0.36676 0.27708 0.0
C1892 C 0.27027 0.32095 0.27085 0.0
C1893 C 0.33815 0.33943 0.25995 0.0
H1894 H 0.28088 0.26205 0.25167 0.0
C1895 C 0.38544 0.28514 0.24196 0.0
C1896 C 0.36758 0.26943 0.23656 0.0
C1897 C 0.37244 0.29283 0.24713 0.0
C1898 C 0.29729 0.28384 0.25387 0.0
H1899 H 0.31769 0.40976 0.2734 0.0
H1900 H 0.32942 0.38674 0.26435 0.0
H1901 H 0.26172 0.28441 0.25963 0.0
H1902 H 0.32176 0.24938 0.23239 0.0
H1903 H 0.2991 0.26348 0.24129 0.0
H1904 H 0.37341 0.34002 0.25404 0.0
C1905 C 0.31091 0.3715 0.26755 0.0
C1906 C 0.28626 0.29658 0.25854 0.0
C1907 C 0.30376 0.38495 0.2727 0.0
C1908 C 0.33596 0.26067 0.23656 0.0
C1909 C 0.32301 0.26901 0.24168 0.0
C1910 C 0.34903 0.32699 0.25526 0.0
C1911 C 0.29533 0.33909 0.26667 0.0
C1912 C 0.30649 0.32478 0.26165 0.0
C1913 C 0.3413 0.28616 0.24699 0.0
C1914 C 0.32897 0.29886 0.25212 0.0
H1915 H 0.24428 0.31986 0.27923 0.0
H1916 H 0.25748 0.29598 0.2704 0.0
H1917 H 0.35498 0.36067 0.26227 0.0
H1918 H 0.40997 0.29264 0.24206 0.0
H1919 H 0.38734 0.30494 0.25116 0.0
C1920 C 0.74112 0.95844 0.27579 0.0
C1921 C 0.71122 0.95089 0.27788 0.0
C1922 C 0.75587 0.98012 0.27078 0.0
C1923 C 0.75526 0.04758 0.26347 0.0
H1924 H 0.79616 0.03674 0.24871 0.0
C1925 C 0.78786 0.12903 0.2414 0.0
C1926 C 0.81305 0.13437 0.23747 0.0
C1927 C 0.77843 0.10786 0.24652 0.0
C1928 C 0.78536 0.04057 0.25284 0.0
H1929 H 0.67295 0.95902 0.27607 0.0
H1930 H 0.6983 0.99617 0.26747 0.0
H1931 H 0.77475 0.99683 0.25706 0.0
H1932 H 0.84876 0.12217 0.23605 0.0
H1933 H 0.83317 0.0862 0.2451 0.0
H1934 H 0.76603 0.09127 0.25942 0.0
C1935 C 0.71068 0.98591 0.26971 0.0
C1936 C 0.77296 0.01748 0.25764 0.0
C1937 C 0.69602 0.9643 0.27463 0.0
C1938 C 0.82928 0.11874 0.23898 0.0
C1939 C 0.82001 0.09771 0.24414 0.0
C1940 C 0.76794 0.07074 0.25875 0.0
C1941 C 0.74111 0.99485 0.26781 0.0
C1942 C 0.75714 0.02038 0.26295 0.0
C1943 C 0.79406 0.09144 0.24796 0.0
C1944 C 0.78269 0.06748 0.25327 0.0
H1945 H 0.75362 0.94876 0.27821 0.0
H1946 H 0.77931 0.98639 0.26943 0.0
H1947 H 0.74378 0.05095 0.26755 0.0
H1948 H 0.77454 0.14032 0.24037 0.0
H1949 H 0.75806 0.10362 0.24921 0.0
C1950 C 0.9465 0.69472 0.24189 0.0
C1951 C 0.94976 0.71201 0.23633 0.0
C1952 C 0.96692 0.70786 0.2471 0.0
C1953 C 0.03411 0.78255 0.25363 0.0
H1954 H 0.05089 0.72443 0.2626 0.0
C1955 C 0.11835 0.8173 0.27594 0.0
C1956 C 0.13243 0.79938 0.27721 0.0
C1957 C 0.09719 0.80963 0.27079 0.0
C1958 C 0.04711 0.74134 0.26011 0.0
H1959 H 0.97723 0.75691 0.23189 0.0
H1960 H 1.01345 0.7798 0.24087 0.0
H1961 H 1.0121 0.70601 0.25429 0.0
H1962 H 0.13727 0.76111 0.27374 0.0
H1963 H 0.10279 0.74928 0.26462 0.0
H1964 H 0.07055 0.81813 0.25933 0.0
C1965 C 0.99443 0.75629 0.24136 0.0
C1966 C 0.02399 0.7305 0.25538 0.0
C1967 C 0.97347 0.74323 0.23619 0.0
C1968 C 0.12673 0.77532 0.27293 0.0
C1969 C 0.10632 0.76814 0.26774 0.0
C1970 C 0.05765 0.79352 0.25835 0.0
C1971 C 0.99215 0.73851 0.24684 0.0
C1972 C 0.01684 0.75076 0.25203 0.0
C1973 C 0.09001 0.78418 0.26672 0.0
C1974 C 0.06475 0.77309 0.26166 0.0
H1975 H 0.92883 0.67047 0.2421 0.0
H1976 H 0.96336 0.69342 0.25125 0.0
H1977 H 0.02942 0.79911 0.25126 0.0
H1978 H 0.12208 0.83594 0.27914 0.0
H1979 H 0.08537 0.82275 0.27023 0.0
C1980 C 0.56483 0.06766 0.03153 0.0
C1981 C 0.53728 0.05192 0.03512 0.0
C1982 C 0.56483 0.06422 0.02487 0.0
C1983 C 0.51477 0.04104 0.01041 0.0
H1984 H 0.58376 0.03741 1.00264 0.0
C1985 C 0.51749 0.01718 0.98321 0.0
C1986 C 0.54598 0.03225 0.97992 0.0
C1987 C 0.51615 0.01936 0.98989 0.0
C1988 C 0.56452 0.03883 1.0047 0.0
H1989 H 0.48785 0.02025 0.03446 0.0
H1990 H 0.48768 0.01407 0.02271 0.0
H1991 H 0.58082 0.04013 0.01428 0.0
H1992 H 0.59555 0.06164 0.98112 0.0
H1993 H 0.59334 0.06594 0.99283 0.0
H1994 H 0.49858 0.03999 1.00082 0.0
C1995 C 0.50941 0.02927 0.02511 0.0
C1996 C 0.56275 0.04028 0.0114 0.0
C1997 C 0.50946 0.03265 0.03184 0.0
C1998 C 0.57324 0.04975 0.9835 0.0
C1999 C 0.57191 0.05199 0.99023 0.0
C2000 C 0.51657 0.03966 1.00369 0.0
C2001 C 0.53722 0.0449 0.02153 0.0
C2002 C 0.53796 0.04161 0.01437 0.0
C2003 C 0.54329 0.03678 0.99353 0.0
C2004 C 0.54154 0.03863 1.00072 0.0
H2005 H 0.58672 0.08284 0.03388 0.0
H2006 H 0.58659 0.07714 0.02232 0.0
H2007 H 0.49556 0.04245 0.01249 0.0
H2008 H 0.49601 1.00334 0.98061 0.0
H2009 H 0.49373 1.00683 0.99221 0.0
C2010 C 0.03648 0.5658 0.9825 0.0
C2011 C 0.05227 0.55368 0.97904 0.0
C2012 C 0.03403 0.56295 0.98924 0.0
C2013 C 0.07108 0.54789 1.00342 0.0
H2014 H 0.99545 0.52972 0.01229 0.0
C2015 C 0.05199 0.51517 0.03061 0.0
C2016 C 0.03625 0.52676 0.03425 0.0
C2017 C 0.05408 0.5187 0.02388 0.0
C2018 C 0.01693 0.53513 0.00991 0.0
H2019 H 0.07724 0.52852 0.97995 0.0
H2020 H 0.07267 0.52325 0.99152 0.0
H2021 H 0.99855 0.53627 1.00065 0.0
H2022 H 1.01066 0.5514 0.03368 0.0
H2023 H 0.0146 0.55784 0.02209 0.0
H2024 H 0.08948 0.54672 0.01266 0.0
C2025 C 0.06268 0.53553 0.98913 0.0
C2026 C 0.01869 0.53895 1.00321 0.0
C2027 C 0.06508 0.53836 0.98245 0.0
C2028 C 0.02289 0.54207 0.03103 0.0
C2029 C 0.02493 0.54557 0.02435 0.0
C2030 C 0.06932 0.54406 0.01011 0.0
C2031 C 0.04741 0.548 0.99266 0.0
C2032 C 0.04575 0.54522 0.99985 0.0
C2033 C 0.04041 0.53383 0.02065 0.0
C2034 C 0.0422 0.53755 0.01347 0.0
H2035 H 0.02641 0.57778 0.98001 0.0
H2036 H 0.0222 0.573 0.99179 0.0
H2037 H 0.09256 0.55327 1.00105 0.0
H2038 H 0.06242 0.50316 0.03294 0.0
H2039 H 0.06597 0.50908 0.02121 0.0
C2040 C 0.54932 0.51741 0.03132 0.0
C2041 C 0.56348 0.54527 0.03483 0.0
C2042 C 0.54632 0.51731 0.02465 0.0
C2043 C 0.57805 0.56613 0.01011 0.0
H2044 H 0.50315 0.50102 1.00218 0.0
C2045 C 0.55289 0.56733 0.98302 0.0
C2046 C 0.53786 0.5393 0.97958 0.0
C2047 C 0.55641 0.56766 0.98968 0.0
C2048 C 0.52443 0.51911 1.00429 0.0
H2049 H 0.58578 0.59514 0.03401 0.0
H2050 H 0.58045 0.59513 0.02224 0.0
H2051 H 0.50794 0.50381 0.01384 0.0
H2052 H 0.51488 0.48944 0.98049 0.0
H2053 H 0.52124 0.48985 0.99222 0.0
H2054 H 0.59456 0.5814 1.00055 0.0
C2055 C 0.57177 0.57321 0.02471 0.0
C2056 C 0.52718 0.52081 0.011 0.0
C2057 C 0.57471 0.57329 0.03145 0.0
C2058 C 0.5266 0.5114 0.98299 0.0
C2059 C 0.5301 0.51171 0.98972 0.0
C2060 C 0.57532 0.56441 1.00338 0.0
C2061 C 0.55739 0.54511 0.02121 0.0
C2062 C 0.55406 0.5443 0.01403 0.0
C2063 C 0.54506 0.53994 0.99317 0.0
C2064 C 0.54844 0.54089 1.00036 0.0
H2065 H 0.54053 0.49534 0.03374 0.0
H2066 H 0.53571 0.49525 0.02217 0.0
H2067 H 0.5993 0.58422 0.01222 0.0
H2068 H 0.56178 0.58932 0.98057 0.0
H2069 H 0.56752 0.58982 0.99212 0.0
C2070 C 0.04995 0.57025 0.53042 0.0
C2071 C 0.03167 0.54264 0.53383 0.0
C2072 C 0.05322 0.56963 0.52369 0.0
C2073 C 0.04318 0.51523 0.51021 0.0
H2074 H 0.0435 0.5786 0.4994 0.0
C2075 C 0.03738 0.5059 0.48213 0.0
C2076 C 0.0559 0.53351 0.47874 0.0
C2077 C 0.03387 0.50648 0.48885 0.0
C2078 C 0.04375 0.56079 0.50234 0.0
H2079 H 1.00228 0.49289 0.53283 0.0
H2080 H 1.0076 0.4919 0.52129 0.0
H2081 H 0.04015 0.58194 0.51103 0.0
H2082 H 0.08537 0.58324 0.47977 0.0
H2083 H 0.07958 0.58417 0.49129 0.0
H2084 H 0.04678 0.49408 0.50152 0.0
C2085 C 0.01997 0.51401 0.52372 0.0
C2086 C 0.04191 0.5628 0.50904 0.0
C2087 C 0.01673 0.51464 0.53038 0.0
C2088 C 0.07075 0.56148 0.4822 0.0
C2089 C 0.06724 0.56208 0.48885 0.0
C2090 C 0.04501 0.51321 0.50351 0.0
C2091 C 0.03837 0.54139 0.52025 0.0
C2092 C 0.04154 0.54003 0.51309 0.0
C2093 C 0.04869 0.53469 0.4923 0.0
C2094 C 0.0454 0.536 0.49946 0.0
H2095 H 0.06175 0.59218 0.53293 0.0
H2096 H 0.06775 0.59123 0.52121 0.0
H2097 H 0.04346 0.49743 0.51315 0.0
H2098 H 0.02566 0.48397 0.47961 0.0
H2099 H 0.01922 0.48487 0.49133 0.0
C2100 C 0.58077 0.56722 0.48138 0.0
C2101 C 0.55279 0.558 0.47809 0.0
C2102 C 0.58083 0.56355 0.4881 0.0
C2103 C 0.52778 0.51929 0.50168 0.0
H2104 H 0.59037 0.58345 0.51244 0.0
C2105 C 0.51584 0.5167 0.52954 0.0
C2106 C 0.543 0.52668 0.53317 0.0
C2107 C 0.51743 0.52059 0.52282 0.0
C2108 C 0.57284 0.56508 0.50952 0.0
H2109 H 0.50311 0.53805 0.47931 0.0
H2110 H 0.50328 0.53196 0.49085 0.0
H2111 H 0.59365 0.58969 0.50079 0.0
H2112 H 0.59308 0.54847 0.53259 0.0
H2113 H 0.59583 0.55484 0.52099 0.0
H2114 H 0.50694 0.49464 0.51038 0.0
C2115 C 0.52515 0.54152 0.48831 0.0
C2116 C 0.5748 0.56868 0.50281 0.0
C2117 C 0.52512 0.54525 0.48166 0.0
C2118 C 0.57168 0.54063 0.52994 0.0
C2119 C 0.57329 0.5445 0.52327 0.0
C2120 C 0.52585 0.51567 0.50838 0.0
C2121 C 0.5529 0.5504 0.49165 0.0
C2122 C 0.55214 0.54595 0.49879 0.0
C2123 C 0.54623 0.53457 0.51958 0.0
C2124 C 0.54824 0.53856 0.51241 0.0
H2125 H 0.60247 0.57718 0.47876 0.0
H2126 H 0.60267 0.57058 0.49049 0.0
H2127 H 0.51016 0.50097 0.49876 0.0
H2128 H 0.4934 0.50589 0.53188 0.0
H2129 H 0.49607 0.51293 0.52018 0.0
C2130 C 0.56803 0.03149 0.53038 0.0
C2131 C 0.56216 0.05271 0.53365 0.0
C2132 C 0.56365 0.02764 0.52367 0.0
C2133 C 0.52316 0.04254 0.51006 0.0
H2134 H 0.58031 0.03132 0.49933 0.0
C2135 C 0.51896 0.04562 0.48196 0.0
C2136 C 0.52499 0.02463 0.47864 0.0
C2137 C 0.52334 0.04928 0.48867 0.0
C2138 C 0.56385 0.03411 0.50224 0.0
H2139 H 0.54756 0.08677 0.53241 0.0
H2140 H 0.54042 0.08042 0.52089 0.0
H2141 H 0.58787 0.03575 0.51093 0.0
H2142 H 0.5399 0.99077 0.4798 0.0
H2143 H 0.54701 0.99675 0.49133 0.0
H2144 H 0.49913 0.0409 0.50138 0.0
C2145 C 0.54778 0.06622 0.52343 0.0
C2146 C 0.56821 0.03659 0.50893 0.0
C2147 C 0.55215 0.07005 0.53007 0.0
C2148 C 0.53518 1.00732 0.48218 0.0
C2149 C 0.53954 0.01093 0.48882 0.0
C2150 C 0.5188 0.04005 0.50338 0.0
C2151 C 0.5532 0.04483 0.5201 0.0
C2152 C 0.54799 0.04094 0.51296 0.0
C2153 C 0.53392 0.03208 0.4922 0.0
C2154 C 0.53904 0.03576 0.49935 0.0
H2155 H 0.57574 0.01778 0.533 0.0
H2156 H 0.56795 0.0108 0.5213 0.0
H2157 H 0.50672 0.04536 0.51298 0.0
H2158 H 0.51111 0.05931 0.47938 0.0
H2159 H 0.51892 0.06596 0.49107 0.0
C2160 C 0.18881 0.34055 0.31604 0.0
C2161 C 0.21619 0.35772 0.31246 0.0
C2162 C 0.18824 0.34458 0.32268 0.0
C2163 C 0.2382 0.37446 0.33718 0.0
H2164 H 0.16497 0.37089 0.34462 0.0
C2165 C 0.23428 0.4045 0.36386 0.0
C2166 C 0.2067 0.38735 0.36738 0.0
C2167 C 0.23511 0.40074 0.35722 0.0
C2168 C 0.18544 0.37153 0.34265 0.0
H2169 H 0.26475 0.39257 0.31311 0.0
H2170 H 0.26389 0.39991 0.3248 0.0
H2171 H 0.16818 0.36607 0.33303 0.0
H2172 H 0.15809 0.3528 0.36662 0.0
H2173 H 0.1594 0.3459 0.35494 0.0
H2174 H 0.25544 0.37989 0.3468 0.0
C2175 C 0.24275 0.38304 0.32243 0.0
C2176 C 0.18735 0.36884 0.33597 0.0
C2177 C 0.2433 0.37898 0.31573 0.0
C2178 C 0.17969 0.36637 0.36405 0.0
C2179 C 0.1805 0.36257 0.35735 0.0
C2180 C 0.23628 0.37715 0.34385 0.0
C2181 C 0.21507 0.36602 0.32599 0.0
C2182 C 0.21373 0.37016 0.33312 0.0
C2183 C 0.20835 0.3796 0.35384 0.0
C2184 C 0.20987 0.37576 0.34671 0.0
H2185 H 0.16748 0.3238 0.31371 0.0
H2186 H 0.16666 0.33051 0.32522 0.0
H2187 H 0.25865 0.3751 0.33521 0.0
H2188 H 0.25554 0.42103 0.36625 0.0
H2189 H 0.25683 0.4148 0.35473 0.0
C2190 C 0.71804 0.8469 0.364 0.0
C2191 C 0.69684 0.85264 0.36733 0.0
C2192 C 0.72182 0.85154 0.3573 0.0
C2193 C 0.70708 0.89283 0.34389 0.0
H2194 H 0.71781 0.83614 0.33292 0.0
C2195 C 0.70349 0.89857 0.31586 0.0
C2196 C 0.7244 0.89269 0.31246 0.0
C2197 C 0.69997 0.89381 0.32256 0.0
C2198 C 0.71516 0.85246 0.33591 0.0
H2199 H 0.66265 0.8672 0.36619 0.0
H2200 H 0.66886 0.87479 0.35468 0.0
H2201 H 0.71335 0.82786 0.34451 0.0
H2202 H 0.75826 0.87763 0.31344 0.0
H2203 H 0.75253 0.86986 0.32497 0.0
H2204 H 0.7089 0.91744 0.3353 0.0
C2205 C 0.68311 0.86735 0.35718 0.0
C2206 C 0.71265 0.8477 0.34258 0.0
C2207 C 0.67937 0.86271 0.36381 0.0
C2208 C 0.74179 0.88225 0.31589 0.0
C2209 C 0.73831 0.87752 0.32253 0.0
C2210 C 0.70959 0.8976 0.33722 0.0
C2211 C 0.70454 0.86212 0.3538 0.0
C2212 C 0.70846 0.86774 0.34668 0.0
C2213 C 0.71724 0.883 0.32599 0.0
C2214 C 0.71369 0.87751 0.33311 0.0
H2215 H 0.73185 0.83914 0.36657 0.0
H2216 H 0.73867 0.84739 0.35489 0.0
H2217 H 0.7044 0.90914 0.34687 0.0
H2218 H 0.68974 0.90659 0.31335 0.0
H2219 H 0.68334 0.89811 0.32502 0.0
C2220 C 0.19842 0.89364 0.31586 0.0
C2221 C 0.18752 0.86587 0.31239 0.0
C2222 C 0.20333 0.89475 0.32248 0.0
C2223 C 0.18267 0.8461 0.33716 0.0
H2224 H 0.25365 0.91867 0.3444 0.0
C2225 C 0.2171 0.85029 0.36378 0.0
C2226 C 0.22836 0.87803 0.36727 0.0
C2227 C 0.21238 0.84941 0.35715 0.0
C2228 C 0.23346 0.89842 0.34249 0.0
H2229 H 0.17297 0.81721 0.31324 0.0
H2230 H 0.18164 0.81902 0.32492 0.0
H2231 H 0.24526 0.91482 0.33282 0.0
H2232 H 0.24382 0.9269 0.36646 0.0
H2233 H 0.23533 0.92549 0.35478 0.0
H2234 H 0.1708 0.82972 0.34683 0.0
C2235 C 0.18623 0.84004 0.32246 0.0
C2236 C 0.22865 0.89612 0.33582 0.0
C2237 C 0.18135 0.83896 0.31577 0.0
C2238 C 0.23512 0.90517 0.36392 0.0
C2239 C 0.23035 0.9043 0.35722 0.0
C2240 C 0.18746 0.84841 0.34384 0.0
C2241 C 0.19752 0.86809 0.32591 0.0
C2242 C 0.20315 0.86994 0.33304 0.0
C2243 C 0.21865 0.87627 0.35374 0.0
C2244 C 0.213 0.87456 0.34662 0.0
H2245 H 0.20329 0.91484 0.31343 0.0
H2246 H 0.21137 0.91662 0.32494 0.0
H2247 H 0.16249 0.82584 0.33525 0.0
H2248 H 0.21182 0.82892 0.36618 0.0
H2249 H 0.20409 0.82754 0.35469 0.0
C2250 C 0.72967 0.89467 0.81523 0.0
C2251 C 0.71674 0.86613 0.81198 0.0
C2252 C 0.72767 0.89595 0.82191 0.0
C2253 C 0.71501 0.84962 0.83675 0.0
H2254 H 0.70296 0.91349 0.84457 0.0
C2255 C 0.69063 0.8494 0.8639 0.0
C2256 C 0.70335 0.87766 0.86724 0.0
C2257 C 0.69313 0.84866 0.85722 0.0
C2258 C 0.70679 0.89577 0.84249 0.0
H2259 H 0.69132 0.81639 0.81326 0.0
H2260 H 0.68751 0.81846 0.82499 0.0
H2261 H 0.70394 0.90985 0.8329 0.0
H2262 H 0.72891 0.9275 0.86615 0.0
H2263 H 0.73359 0.92636 0.8544 0.0
H2264 H 0.71785 0.83553 0.84632 0.0
C2265 C 0.69952 0.83999 0.82234 0.0
C2266 C 0.70727 0.8936 0.83577 0.0
C2267 C 0.70148 0.83874 0.81561 0.0
C2268 C 0.71891 0.90536 0.86372 0.0
C2269 C 0.72137 0.90463 0.85698 0.0
C2270 C 0.71454 0.8518 0.84346 0.0
C2271 C 0.71268 0.86868 0.8256 0.0
C2272 C 0.71136 0.87046 0.83279 0.0
C2273 C 0.70846 0.87619 0.85363 0.0
C2274 C 0.71031 0.87484 0.84645 0.0
H2275 H 0.74173 0.91627 0.8126 0.0
H2276 H 0.73854 0.91846 0.82421 0.0
H2277 H 0.71881 0.83188 0.83467 0.0
H2278 H 0.67834 0.82758 0.86644 0.0
H2279 H 0.68238 0.82632 0.85485 0.0
C2280 C 0.17794 0.84438 0.86395 0.0
C2281 C 0.20565 0.85445 0.86739 0.0
C2282 C 0.17849 0.84726 0.85721 0.0
C2283 C 0.22924 0.859 0.84292 0.0
H2284 H 0.17577 0.88356 0.83436 0.0
C2285 C 0.24212 0.8922 0.81564 0.0
C2286 C 0.21439 0.88212 0.81221 0.0
C2287 C 0.24154 0.88878 0.82238 0.0
C2288 C 0.19071 0.87638 0.83665 0.0
H2289 H 0.25558 0.8756 0.86645 0.0
H2290 H 0.25655 0.88091 0.85487 0.0
H2291 H 0.17244 0.87646 0.84598 0.0
H2292 H 0.16437 0.86011 0.81315 0.0
H2293 H 0.16338 0.85394 0.8247 0.0
H2294 H 0.24756 0.859 0.83359 0.0
C2295 C 0.23429 0.87028 0.85728 0.0
C2296 C 0.1887 0.87222 0.84334 0.0
C2297 C 0.23373 0.86744 0.86396 0.0
C2298 C 0.18625 0.86834 0.81563 0.0
C2299 C 0.18566 0.86499 0.8223 0.0
C2300 C 0.23127 0.8632 0.83623 0.0
C2301 C 0.20675 0.86017 0.85377 0.0
C2302 C 0.20797 0.86351 0.84658 0.0
C2303 C 0.21324 0.87534 0.82581 0.0
C2304 C 0.21199 0.87189 0.83298 0.0
H2305 H 0.15594 0.8342 0.86645 0.0
H2306 H 0.15673 0.83898 0.85468 0.0
H2307 H 0.24418 0.85182 0.8452 0.0
H2308 H 0.26417 0.90295 0.81315 0.0
H2309 H 0.2633 0.89719 0.82491 0.0
C2310 C 0.19815 0.34037 0.81565 0.0
C2311 C 0.18601 0.35599 0.81212 0.0
C2312 C 0.20181 0.34369 0.82231 0.0
C2313 C 0.20741 0.3943 0.836 0.0
H2314 H 0.19366 0.32306 0.84609 0.0
C2315 C 0.20861 0.39605 0.86386 0.0
C2316 C 0.22224 0.38117 0.86715 0.0
C2317 C 0.20421 0.39307 0.8572 0.0
C2318 C 0.198 0.34332 0.84335 0.0
H2319 H 0.16817 0.38755 0.81288 0.0
H2320 H 0.17422 0.39324 0.82462 0.0
H2321 H 0.18448 0.31774 0.83455 0.0
H2322 H 0.24191 0.35133 0.86598 0.0
H2323 H 0.2342 0.34596 0.85429 0.0
H2324 H 0.22074 0.4198 0.84484 0.0
C2325 C 0.18124 0.37855 0.82218 0.0
C2326 C 0.19269 0.3403 0.8367 0.0
C2327 C 0.17759 0.37521 0.81545 0.0
C2328 C 0.23129 0.36303 0.8636 0.0
C2329 C 0.22673 0.35989 0.85689 0.0
C2330 C 0.21262 0.3973 0.84266 0.0
C2331 C 0.19332 0.36267 0.82572 0.0
C2332 C 0.1975 0.36578 0.83289 0.0
C2333 C 0.21319 0.37499 0.85359 0.0
C2334 C 0.2081 0.37188 0.84645 0.0
H2335 H 0.20511 0.32551 0.81325 0.0
H2336 H 0.21183 0.33161 0.82477 0.0
H2337 H 0.21186 0.41459 0.83326 0.0
H2338 H 0.20125 0.41016 0.86643 0.0
H2339 H 0.19327 0.40464 0.85489 0.0
C2340 C 0.90469 0.73374 0.69654 0.0
C2341 C 0.87654 0.717 0.6999 0.0
C2342 C 0.906 0.73107 0.68987 0.0
C2343 C 0.86371 0.67943 0.67614 0.0
H2344 H 0.91692 0.75174 0.66586 0.0
C2345 C 0.85748 0.67562 0.64848 0.0
C2346 C 0.88472 0.69218 0.64483 0.0
C2347 C 0.85769 0.67904 0.65514 0.0
C2348 C 0.90228 0.7312 0.66865 0.0
H2349 H 0.82752 0.68436 0.69883 0.0
H2350 H 0.82962 0.67961 0.68713 0.0
H2351 H 0.91383 0.75695 0.67745 0.0
H2352 H 0.93378 0.72552 0.64538 0.0
H2353 H 0.93439 0.73148 0.65713 0.0
H2354 H 0.8522 0.65363 0.66737 0.0
C2355 C 0.85087 0.6947 0.68968 0.0
C2356 C 0.90041 0.73419 0.67532 0.0
C2357 C 0.84957 0.6975 0.69639 0.0
C2358 C 0.91241 0.71245 0.64805 0.0
C2359 C 0.91265 0.71593 0.65478 0.0
C2360 C 0.86563 0.67643 0.66948 0.0
C2361 C 0.87917 0.71147 0.68632 0.0
C2362 C 0.88097 0.70837 0.67917 0.0
C2363 C 0.88522 0.69911 0.65843 0.0
C2364 C 0.88474 0.70229 0.66561 0.0
H2365 H 0.92596 0.74893 0.69909 0.0
H2366 H 0.92827 0.744 0.6875 0.0
H2367 H 0.84899 0.65888 0.67892 0.0
H2368 H 0.83564 0.65991 0.64618 0.0
H2369 H 0.83597 0.66618 0.65771 0.0
C2370 C 0.36725 0.22847 0.64953 0.0
C2371 C 0.38399 0.21785 0.64593 0.0
C2372 C 0.36463 0.2245 0.65625 0.0
C2373 C 0.40205 0.20915 0.67031 0.0
H2374 H 0.32473 0.18677 0.67894 0.0
C2375 C 0.38219 0.17617 0.69757 0.0
C2376 C 0.36509 0.1867 0.70106 0.0
C2377 C 0.38467 0.17943 0.69083 0.0
C2378 C 0.34667 0.19335 0.67664 0.0
H2379 H 0.41081 0.19448 0.64658 0.0
H2380 H 0.40606 0.1874 0.65814 0.0
H2381 H 0.32859 0.1945 0.66735 0.0
H2382 H 0.33751 0.20919 0.70022 0.0
H2383 H 0.34213 0.2152 0.68865 0.0
H2384 H 0.42017 0.20811 0.6796 0.0
C2385 C 0.3953 0.19921 0.65586 0.0
C2386 C 0.34887 0.19784 0.66996 0.0
C2387 C 0.39782 0.20308 0.64919 0.0
C2388 C 0.35074 0.20062 0.69769 0.0
C2389 C 0.35319 0.20388 0.69101 0.0
C2390 C 0.39987 0.2047 0.67699 0.0
C2391 C 0.37883 0.20996 0.65952 0.0
C2392 C 0.37659 0.20581 0.66668 0.0
C2393 C 0.37002 0.19323 0.68745 0.0
C2394 C 0.37217 0.19684 0.68027 0.0
H2395 H 0.3564 0.24 0.64717 0.0
H2396 H 0.35194 0.23332 0.65889 0.0
H2397 H 0.42397 0.2157 0.66799 0.0
H2398 H 0.39343 0.16526 0.70003 0.0
H2399 H 0.39766 0.17072 0.68827 0.0
C2400 C 0.87216 0.22745 0.64853 0.0
C2401 C 0.8593 0.19956 0.64504 0.0
C2402 C 0.87618 0.22795 0.65518 0.0
C2403 C 0.84998 0.17875 0.66981 0.0
H2404 H 0.92331 0.24775 0.67735 0.0
C2405 C 0.88044 0.17969 0.69661 0.0
C2406 C 0.89321 0.20753 0.70012 0.0
C2407 C 0.87641 0.17926 0.68996 0.0
C2408 C 0.90248 0.22853 0.67535 0.0
H2409 H 0.84033 0.15006 0.64587 0.0
H2410 H 0.84753 0.15077 0.65759 0.0
H2411 H 0.91647 0.24462 0.66573 0.0
H2412 H 0.91203 0.25702 0.69931 0.0
H2413 H 0.90483 0.25642 0.68759 0.0
H2414 H 0.836 0.16266 0.67944 0.0
C2415 C 0.85434 0.17239 0.65514 0.0
C2416 C 0.89854 0.22664 0.66866 0.0
C2417 C 0.85031 0.17192 0.64842 0.0
C2418 C 0.90211 0.2352 0.69676 0.0
C2419 C 0.89808 0.23479 0.69004 0.0
C2420 C 0.85392 0.18064 0.67651 0.0
C2421 C 0.86754 0.20053 0.65861 0.0
C2422 C 0.87219 0.20175 0.66577 0.0
C2423 C 0.88496 0.20669 0.68655 0.0
C2424 C 0.88027 0.20552 0.67939 0.0
H2425 H 0.8792 0.24923 0.64612 0.0
H2426 H 0.88575 0.24997 0.65765 0.0
H2427 H 0.82915 0.15954 0.66782 0.0
H2428 H 0.87346 0.1579 0.69901 0.0
H2429 H 0.8669 0.15727 0.68749 0.0
C2430 C 0.34979 0.17831 0.19814 0.0
C2431 C 0.3649 0.20617 0.20164 0.0
C2432 C 0.35326 0.17788 0.19149 0.0
C2433 C 0.37616 0.22732 0.17689 0.0
H2434 H 0.38037 0.15848 0.16925 0.0
C2435 C 0.40527 0.22695 0.15004 0.0
C2436 C 0.39027 0.19914 0.14652 0.0
C2437 C 0.40177 0.22726 0.15669 0.0
C2438 C 0.37879 0.17766 0.17127 0.0
H2439 H 0.39551 0.25566 0.20082 0.0
H2440 H 0.40188 0.25505 0.18911 0.0
H2441 H 0.3767 0.16132 0.18088 0.0
H2442 H 0.35982 0.14961 0.1473 0.0
H2443 H 0.35336 0.15001 0.15903 0.0
H2444 H 0.37822 0.24365 0.16728 0.0
C2445 C 0.38707 0.23341 0.19155 0.0
C2446 C 0.37676 0.17938 0.17798 0.0
C2447 C 0.38359 0.23382 0.19828 0.0
C2448 C 0.37166 0.17141 0.14987 0.0
C2449 C 0.36813 0.1717 0.15659 0.0
C2450 C 0.37817 0.22559 0.17019 0.0
C2451 C 0.37203 0.20532 0.18806 0.0
C2452 C 0.37536 0.20422 0.1809 0.0
C2453 C 0.38304 0.19975 0.1601 0.0
C2454 C 0.37961 0.20078 0.16726 0.0
H2455 H 0.33504 0.15653 0.20055 0.0
H2456 H 0.34075 0.15588 0.18901 0.0
H2457 H 0.37458 0.24651 0.17891 0.0
H2458 H 0.41997 0.24879 0.14764 0.0
H2459 H 0.4142 0.24923 0.15918 0.0
C2460 C 0.85255 0.20879 0.14975 0.0
C2461 C 0.88104 0.22242 0.14646 0.0
C2462 C 0.85132 0.20562 0.15644 0.0
C2463 C 0.89903 0.23625 0.17121 0.0
H2464 H 0.83284 0.16181 0.17902 0.0
C2465 C 0.90049 0.20986 0.19816 0.0
C2466 C 0.87255 0.19543 0.20165 0.0
C2467 C 0.90061 0.2134 0.1915 0.0
C2468 C 0.85123 0.18296 0.17694 0.0
H2469 H 0.93073 0.24353 0.14765 0.0
H2470 H 0.92873 0.23789 0.15939 0.0
H2471 H 0.8357 0.16713 0.16735 0.0
H2472 H 0.82262 0.1734 0.20082 0.0
H2473 H 0.82267 0.17982 0.1891 0.0
H2474 H 0.91456 0.25214 0.18078 0.0
C2475 C 0.90723 0.22983 0.15678 0.0
C2476 C 0.85295 0.18601 0.17022 0.0
C2477 C 0.90843 0.23292 0.15004 0.0
C2478 C 0.84453 0.18464 0.19828 0.0
C2479 C 0.84462 0.18819 0.19156 0.0
C2480 C 0.89728 0.23323 0.17792 0.0
C2481 C 0.8786 0.21604 0.16007 0.0
C2482 C 0.87696 0.21267 0.16725 0.0
C2483 C 0.87275 0.20269 0.18807 0.0
C2484 C 0.87348 0.20645 0.1809 0.0
H2485 H 0.83099 0.20056 0.14714 0.0
H2486 H 0.8289 0.19538 0.15877 0.0
H2487 H 0.91749 0.25737 0.16914 0.0
H2488 H 0.92255 0.21832 0.20058 0.0
H2489 H 0.9227 0.2241 0.18903 0.0
C2490 C 0.8514 0.71119 0.14963 0.0
C2491 C 0.85895 0.69137 0.14628 0.0
C2492 C 0.85524 0.71446 0.15636 0.0
C2493 C 0.89682 0.70121 0.16996 0.0
H2494 H 0.83557 0.70598 0.18061 0.0
C2495 C 0.89888 0.6955 0.19806 0.0
C2496 C 0.89057 0.71474 0.20142 0.0
C2497 C 0.89522 0.69229 0.19133 0.0
C2498 C 0.85316 0.70501 0.17772 0.0
H2499 H 0.87616 0.65929 0.14739 0.0
H2500 H 0.88248 0.6647 0.15894 0.0
H2501 H 0.82926 0.70274 0.16897 0.0
H2502 H 0.87239 0.74602 0.20031 0.0
H2503 H 0.86657 0.74088 0.18876 0.0
H2504 H 0.92076 0.70355 0.1787 0.0
C2505 C 0.87412 0.6782 0.15645 0.0
C2506 C 0.84952 0.70321 0.17102 0.0
C2507 C 0.87023 0.67491 0.14979 0.0
C2508 C 0.87885 0.73079 0.1979 0.0
C2509 C 0.87524 0.72765 0.19124 0.0
C2510 C 0.90049 0.70306 0.17666 0.0
C2511 C 0.86685 0.69809 0.15986 0.0
C2512 C 0.87125 0.70122 0.16702 0.0
C2513 C 0.88313 0.70822 0.18783 0.0
C2514 C 0.87876 0.70506 0.18066 0.0
H2515 H 0.84266 0.72418 0.14707 0.0
H2516 H 0.84953 0.73015 0.1588 0.0
H2517 H 0.91436 0.70017 0.16706 0.0
H2518 H 0.90798 0.68284 0.20063 0.0
H2519 H 0.90142 0.67696 0.18889 0.0
C2520 C 0.55673 0.9682 0.05784 0.0
C2521 C 0.52774 0.96328 0.0557 0.0
C2522 C 0.56399 0.94429 0.05759 0.0
C2523 C 0.52788 0.8581 0.0557 0.0
H2524 H 0.61096 0.8783 0.05073 0.0
C2525 C 0.56495 0.76425 0.05487 0.0
C2526 C 0.58484 0.76587 0.04988 0.0
C2527 C 0.55868 0.78847 0.05593 0.0
C2528 C 0.58754 0.8721 0.05208 0.0
H2529 H 0.48351 0.92866 0.05171 0.0
H2530 H 0.49617 0.88755 0.05122 0.0
H2531 H 0.59852 0.91954 0.05194 0.0
H2532 H 0.61419 0.79517 0.04218 0.0
H2533 H 0.60269 0.83672 0.04389 0.0
H2534 H 0.5166 0.8106 0.05565 0.0
C2535 C 0.51329 0.90971 0.05318 0.0
C2536 C 0.58049 0.89593 0.05286 0.0
C2537 C 0.50606 0.93353 0.05343 0.0
C2538 C 0.59843 0.79267 0.04602 0.0
C2539 C 0.59214 0.81686 0.04706 0.0
C2540 C 0.53492 0.83428 0.05491 0.0
C2541 C 0.54247 0.9147 0.0552 0.0
C2542 C 0.55047 0.88934 0.05464 0.0
C2543 C 0.57207 0.81515 0.05202 0.0
C2544 C 0.56482 0.84081 0.05305 0.0
H2545 H 0.5741 0.99071 0.05961 0.0
H2546 H 0.58654 0.94906 0.05927 0.0
H2547 H 0.50461 0.85192 0.05716 0.0
H2548 H 0.55371 0.744 0.05793 0.0
H2549 H 0.54342 0.78627 0.05984 0.0
C2550 C 0.15305 0.59727 0.05282 0.0
C2551 C 0.12455 0.59018 0.05566 0.0
C2552 C 0.17775 0.62797 0.05252 0.0
C2553 C 0.19363 0.70959 0.05322 0.0
H2554 H 0.27953 0.7297 0.05408 0.0
C2555 C 0.29456 0.83146 0.04622 0.0
C2556 C 0.3226 0.84406 0.04969 0.0
C2557 C 0.27087 0.80073 0.04719 0.0
C2558 C 0.2557 0.72466 0.05388 0.0
H2559 H 0.10046 0.61023 0.06063 0.0
H2560 H 0.14349 0.66334 0.06025 0.0
H2561 H 0.23822 0.67631 0.05564 0.0
H2562 H 0.34731 0.83339 0.05691 0.0
H2563 H 0.30589 0.78026 0.05871 0.0
H2564 H 0.21103 0.75795 0.05158 0.0
C2565 C 0.14662 0.64529 0.05811 0.0
C2566 C 0.23188 0.69381 0.0547 0.0
C2567 C 0.12192 0.61462 0.05839 0.0
C2568 C 0.32604 0.82484 0.05419 0.0
C2569 C 0.30233 0.79407 0.05516 0.0
C2570 C 0.21742 0.7404 0.0524 0.0
C2571 C 0.17478 0.65259 0.05507 0.0
C2572 C 0.20042 0.68571 0.05436 0.0
C2573 C 0.27432 0.78147 0.05168 0.0
C2574 C 0.24888 0.74848 0.05268 0.0
H2575 H 0.15605 0.57922 0.05063 0.0
H2576 H 0.19882 0.63246 0.05009 0.0
H2577 H 0.16983 0.70447 0.05283 0.0
H2578 H 0.29067 0.84544 0.04277 0.0
H2579 H 0.24995 0.79198 0.04434 0.0
C2580 C 0.26019 0.53823 0.05277 0.0
C2581 C 0.23911 0.51263 0.04906 0.0
C2582 C 0.29066 0.54441 0.05381 0.0
C2583 C 0.3408 0.5078 0.05269 0.0
H2584 H 0.40748 0.59273 0.05426 0.0
C2585 C 0.4671 0.537 0.0585 0.0
C2586 C 0.49151 0.56315 0.0555 0.0
C2587 C 0.43643 0.53128 0.05817 0.0
C2588 C 0.3893 0.56882 0.05378 0.0
H2589 H 0.23436 0.47346 0.04356 0.0
H2590 H 0.28746 0.48503 0.04511 0.0
H2591 H 0.35484 0.58207 0.05245 0.0
H2592 H 0.50232 0.60395 0.04985 0.0
H2593 H 0.44942 0.59371 0.04915 0.0
H2594 H 0.37551 0.49465 0.05372 0.0
C2595 C 0.28031 0.50003 0.04736 0.0
C2596 C 0.35879 0.56264 0.05283 0.0
C2597 C 0.24976 0.49368 0.04637 0.0
C2598 C 0.48437 0.58367 0.05228 0.0
C2599 C 0.45378 0.57783 0.0519 0.0
C2600 C 0.37137 0.51401 0.05358 0.0
C2601 C 0.30128 0.52541 0.05113 0.0
C2602 C 0.33397 0.53201 0.05224 0.0
C2603 C 0.42918 0.55141 0.05479 0.0
C2604 C 0.39622 0.54465 0.05411 0.0
H2605 H 0.25328 0.55373 0.05487 0.0
H2606 H 0.30572 0.56396 0.05681 0.0
H2607 H 0.32249 0.48386 0.05238 0.0
H2608 H 0.47158 0.52065 0.06104 0.0
H2609 H 0.4184 0.51098 0.06057 0.0
C2610 C 0.93858 0.49487 0.46015 0.0
C2611 C 0.96776 0.51628 0.45759 0.0
C2612 C 0.91428 0.50147 0.46033 0.0
C2613 C 0.8993 0.56767 0.45989 0.0
H2614 H 0.81368 0.50257 0.45796 0.0
C2615 C 0.79678 0.59275 0.45986 0.0
C2616 C 0.76978 0.57199 0.46324 0.0
C2617 C 0.82074 0.58609 0.45883 0.0
C2618 C 0.83744 0.52102 0.45857 0.0
H2619 H 0.99364 0.56128 0.45303 0.0
H2620 H 0.95117 0.57251 0.45322 0.0
H2621 H 0.85527 0.49066 0.45657 0.0
H2622 H 0.74687 0.52752 0.46808 0.0
H2623 H 0.7886 0.51608 0.46634 0.0
H2624 H 0.88137 0.59801 0.46189 0.0
C2625 C 0.94723 0.55076 0.45521 0.0
C2626 C 0.86139 0.51417 0.45778 0.0
C2627 C 0.97159 0.54417 0.45504 0.0
C2628 C 0.76738 0.54425 0.46552 0.0
C2629 C 0.79124 0.53751 0.46445 0.0
C2630 C 0.87533 0.57454 0.46066 0.0
C2631 C 0.91829 0.52968 0.45794 0.0
C2632 C 0.89272 0.53733 0.45848 0.0
C2633 C 0.81834 0.55835 0.46111 0.0
C2634 C 0.84401 0.55126 0.46007 0.0
H2635 H 0.9346 0.47319 0.46219 0.0
H2636 H 0.89261 0.48474 0.46254 0.0
H2637 H 0.923 0.58609 0.46058 0.0
H2638 H 0.79964 0.61445 0.45808 0.0
H2639 H 0.84108 0.6026 0.45618 0.0
C2640 C 0.49107 0.23684 0.46107 0.0
C2641 C 0.51304 0.23086 0.46402 0.0
C2642 C 0.49741 0.26736 0.46007 0.0
C2643 C 0.54998 0.34865 0.46562 0.0
H2644 H 0.52047 0.37074 0.4504 0.0
C2645 C 0.5895 0.47648 0.45974 0.0
C2646 C 0.5671 0.48361 0.45747 0.0
C2647 C 0.58292 0.44571 0.46019 0.0
C2648 C 0.52866 0.36496 0.45471 0.0
H2649 H 0.55944 0.2528 0.46803 0.0
H2650 H 0.57058 0.30566 0.46625 0.0
H2651 H 0.509 0.31741 0.45188 0.0
H2652 H 0.52027 0.46337 0.45373 0.0
H2653 H 0.50884 0.40973 0.45451 0.0
H2654 H 0.56968 0.39611 0.46845 0.0
C2655 C 0.54806 0.28681 0.46484 0.0
C2656 C 0.52204 0.33425 0.45557 0.0
C2657 C 0.54167 0.25635 0.46586 0.0
C2658 C 0.53821 0.45895 0.45547 0.0
C2659 C 0.53164 0.42808 0.45591 0.0
C2660 C 0.55667 0.37929 0.46475 0.0
C2661 C 0.52597 0.29288 0.46197 0.0
C2662 C 0.53269 0.32561 0.46103 0.0
C2663 C 0.55373 0.42096 0.45838 0.0
C2664 C 0.54625 0.38801 0.45927 0.0
H2665 H 0.46862 0.21789 0.45965 0.0
H2666 H 0.47958 0.27089 0.45793 0.0
H2667 H 0.55805 0.34298 0.46997 0.0
H2668 H 0.61208 0.49468 0.46131 0.0
H2669 H 0.60079 0.44133 0.46199 0.0
C2670 C 0.84207 0.3045 0.45834 0.0
C2671 C 0.85587 0.31114 0.46448 0.0
C2672 C 0.81166 0.2799 0.45741 0.0
C2673 C 0.73828 0.23029 0.46627 0.0
H2674 H 0.71531 0.17817 0.45113 0.0
C2675 C 0.60991 0.14318 0.46051 0.0
C2676 C 0.60227 0.11341 0.45834 0.0
C2677 C 0.64087 0.16702 0.46092 0.0
C2678 C 0.72133 0.19237 0.45541 0.0
H2679 H 0.8482 0.29585 0.47441 0.0
H2680 H 0.79545 0.25348 0.4728 0.0
H2681 H 0.76911 0.21947 0.45259 0.0
H2682 H 0.6218 0.08601 0.45471 0.0
H2683 H 0.67588 0.1277 0.45542 0.0
H2684 H 0.69075 0.20314 0.46914 0.0
C2685 C 0.80796 0.26763 0.4687 0.0
C2686 C 0.75218 0.21632 0.45621 0.0
C2687 C 0.83835 0.29209 0.46963 0.0
C2688 C 0.62664 0.10856 0.45639 0.0
C2689 C 0.65774 0.13255 0.45678 0.0
C2690 C 0.70748 0.20654 0.46545 0.0
C2691 C 0.79403 0.26123 0.46259 0.0
C2692 C 0.76114 0.23562 0.46167 0.0
C2693 C 0.66533 0.16201 0.45916 0.0
C2694 C 0.69846 0.18722 0.46 0.0
H2695 H 0.85448 0.31876 0.45425 0.0
H2696 H 0.80169 0.276 0.45264 0.0
H2697 H 0.74407 0.24478 0.47051 0.0
H2698 H 0.59197 0.14808 0.46202 0.0
H2699 H 0.64562 0.18948 0.46264 0.0
C2700 C 0.53477 0.32288 0.95835 0.0
C2701 C 0.51245 0.32022 0.96287 0.0
C2702 C 0.54183 0.29903 0.95755 0.0
C2703 C 0.51115 0.21467 0.96099 0.0
H2704 H 0.59547 0.23474 0.95725 0.0
C2705 C 0.54078 0.11793 0.9556 0.0
C2706 C 0.56869 0.12136 0.95807 0.0
C2707 C 0.53463 0.14256 0.95576 0.0
C2708 C 0.57179 0.22858 0.95834 0.0
H2709 H 0.47984 0.28947 0.97001 0.0
H2710 H 0.49268 0.24865 0.96875 0.0
H2711 H 0.58348 0.27624 0.95858 0.0
H2712 H 0.61232 0.15419 0.96254 0.0
H2713 H 0.60154 0.1968 0.96288 0.0
H2714 H 0.4996 0.16711 0.96096 0.0
C2715 C 0.50454 0.26903 0.96574 0.0
C2716 C 0.56479 0.25253 0.95902 0.0
C2717 C 0.49744 0.29281 0.96654 0.0
C2718 C 0.59064 0.15055 0.96054 0.0
C2719 C 0.58444 0.17517 0.96073 0.0
C2720 C 0.51815 0.19076 0.96032 0.0
C2721 C 0.52684 0.27165 0.96123 0.0
C2722 C 0.53435 0.24602 0.96039 0.0
C2723 C 0.55611 0.17149 0.95843 0.0
C2724 C 0.54861 0.19724 0.95899 0.0
H2725 H 0.54717 0.34361 0.95547 0.0
H2726 H 0.55887 0.302 0.95397 0.0
H2727 H 0.48734 0.20844 0.96195 0.0
H2728 H 0.52326 0.09593 0.95364 0.0
H2729 H 0.51283 0.13879 0.95381 0.0
C2730 C 0.93926 0.48064 0.96186 0.0
C2731 C 0.96641 0.4878 0.95842 0.0
C2732 C 0.91461 0.45013 0.96228 0.0
C2733 C 0.87955 0.37206 0.95488 0.0
H2734 H 0.84124 0.34471 0.97161 0.0
C2735 C 0.76598 0.25406 0.9589 0.0
C2736 C 0.76442 0.23679 0.9644 0.0
C2737 C 0.79068 0.28438 0.95801 0.0
C2738 C 0.85173 0.35184 0.96691 0.0
H2739 H 0.98821 0.46808 0.95255 0.0
H2740 H 0.94495 0.41471 0.95325 0.0
H2741 H 0.88396 0.39754 0.97023 0.0
H2742 H 0.78852 0.23846 0.97321 0.0
H2743 H 0.83097 0.29125 0.97172 0.0
H2744 H 0.84728 0.32617 0.95157 0.0
C2745 C 0.94285 0.43291 0.95562 0.0
C2746 C 0.87609 0.38232 0.9661 0.0
C2747 C 0.96771 0.46355 0.95523 0.0
C2748 C 0.78833 0.25099 0.96898 0.0
C2749 C 0.81288 0.28137 0.96811 0.0
C2750 C 0.85494 0.34158 0.95568 0.0
C2751 C 0.91617 0.42571 0.95926 0.0
C2752 C 0.89035 0.39294 0.96007 0.0
C2753 C 0.81448 0.29851 0.96261 0.0
C2754 C 0.84069 0.33102 0.96171 0.0
H2755 H 0.93716 0.49856 0.96437 0.0
H2756 H 0.89428 0.44566 0.96502 0.0
H2757 H 0.88981 0.37942 0.95016 0.0
H2758 H 0.74789 0.24434 0.9553 0.0
H2759 H 0.79084 0.29696 0.95376 0.0
C2760 C 0.61306 0.50434 0.96114 0.0
C2761 C 0.60462 0.52453 0.9582 0.0
C2762 C 0.64411 0.51147 0.96136 0.0
C2763 C 0.72242 0.56118 0.95416 0.0
H2764 H 0.75076 0.54362 0.97012 0.0
C2765 C 0.85313 0.60282 0.95903 0.0
C2766 C 0.86052 0.58354 0.96267 0.0
C2767 C 0.82219 0.59582 0.95829 0.0
C2768 C 0.7433 0.54833 0.96559 0.0
H2769 H 0.62273 0.56791 0.95302 0.0
H2770 H 0.67695 0.58033 0.9534 0.0
H2771 H 0.69702 0.53102 0.96907 0.0
H2772 H 0.8405 0.54106 0.96821 0.0
H2773 H 0.78691 0.52873 0.96688 0.0
H2774 H 0.76876 0.57838 0.95068 0.0
C2775 C 0.65938 0.55881 0.95552 0.0
C2776 C 0.71229 0.54109 0.96498 0.0
C2777 C 0.6282 0.55169 0.95531 0.0
C2778 C 0.83593 0.55684 0.96548 0.0
C2779 C 0.80503 0.54977 0.96472 0.0
C2780 C 0.75349 0.56833 0.95476 0.0
C2781 C 0.66788 0.53903 0.95865 0.0
C2782 C 0.70127 0.54725 0.95926 0.0
C2783 C 0.79759 0.56923 0.96114 0.0
C2784 C 0.76444 0.56191 0.96048 0.0
H2785 H 0.59571 0.48311 0.96339 0.0
H2786 H 0.64949 0.49529 0.9637 0.0
H2787 H 0.71484 0.56602 0.94966 0.0
H2788 H 0.87135 0.62378 0.95685 0.0
H2789 H 0.81767 0.61169 0.95558 0.0
C2790 C 0.325 0.53804 0.54595 0.0
C2791 C 0.32377 0.51161 0.54869 0.0
C2792 C 0.30091 0.54456 0.54694 0.0
C2793 C 0.21759 0.50746 0.55145 0.0
H2794 H 0.23636 0.59179 0.55452 0.0
C2795 C 0.12028 0.53585 0.55735 0.0
C2796 C 0.12266 0.56279 0.55461 0.0
C2797 C 0.14519 0.53012 0.55706 0.0
C2798 C 0.23057 0.56812 0.5536 0.0
H2799 H 0.29567 0.47112 0.55456 0.0
H2800 H 0.25391 0.48254 0.5563 0.0
H2801 H 0.27854 0.58083 0.55302 0.0
H2802 H 0.15384 0.60512 0.54951 0.0
H2803 H 0.19673 0.59499 0.54894 0.0
H2804 H 0.16966 0.49474 0.55191 0.0
C2805 C 0.27349 0.49825 0.55337 0.0
C2806 C 0.25488 0.56183 0.55274 0.0
C2807 C 0.29767 0.49186 0.55243 0.0
C2808 C 0.15099 0.58417 0.55171 0.0
C2809 C 0.17582 0.57839 0.55141 0.0
C2810 C 0.19327 0.51377 0.55227 0.0
C2811 C 0.27473 0.52471 0.55065 0.0
C2812 C 0.24877 0.53142 0.55163 0.0
C2813 C 0.17324 0.55109 0.554 0.0
C2814 C 0.19933 0.54422 0.55334 0.0
H2815 H 0.34478 0.55392 0.54309 0.0
H2816 H 0.30262 0.56499 0.54471 0.0
H2817 H 0.21189 0.48381 0.55052 0.0
H2818 H 0.09893 0.51882 0.55963 0.0
H2819 H 0.14236 0.5091 0.55922 0.0
C2820 C 0.54471 0.61718 0.55696 0.0
C2821 C 0.5167 0.59197 0.55473 0.0
C2822 C 0.54995 0.6476 0.55665 0.0
C2823 C 0.52403 0.69548 0.54776 0.0
H2824 H 0.56948 0.75659 0.56092 0.0
C2825 C 0.54025 0.8192 0.54655 0.0
C2826 C 0.56861 0.84436 0.54863 0.0
C2827 C 0.5333 0.78852 0.54756 0.0
C2828 C 0.55708 0.74 0.55715 0.0
H2829 H 0.47184 0.57941 0.55062 0.0
H2830 H 0.48086 0.63218 0.55014 0.0
H2831 H 0.55824 0.70335 0.56233 0.0
H2832 H 0.61196 0.85647 0.5534 0.0
H2833 H 0.60006 0.8032 0.5551 0.0
H2834 H 0.52318 0.73204 0.54253 0.0
C2835 C 0.49902 0.6285 0.55205 0.0
C2836 C 0.55055 0.70931 0.55797 0.0
C2837 C 0.49372 0.59807 0.55238 0.0
C2838 C 0.58972 0.83781 0.5518 0.0
C2839 C 0.58282 0.80711 0.55278 0.0
C2840 C 0.53065 0.72615 0.54692 0.0
C2841 C 0.52743 0.65382 0.55407 0.0
C2842 C 0.53391 0.68654 0.55329 0.0
C2843 C 0.55453 0.78191 0.55066 0.0
C2844 C 0.5473 0.74898 0.5516 0.0
H2845 H 0.56306 0.61358 0.55878 0.0
H2846 H 0.5722 0.66638 0.55821 0.0
H2847 H 0.5117 0.67889 0.54398 0.0
H2848 H 0.52312 0.82316 0.5442 0.0
H2849 H 0.51101 0.76995 0.54596 0.0
C2850 C 0.45956 0.9695 0.55607 0.0
C2851 C 0.48406 0.96455 0.55428 0.0
C2852 C 0.42849 0.94538 0.55569 0.0
C2853 C 0.37939 0.87033 0.5473 0.0
H2854 H 0.31728 0.85767 0.56001 0.0
C2855 C 0.25706 0.76146 0.54662 0.0
C2856 C 0.23123 0.76439 0.54831 0.0
C2857 C 0.28741 0.78597 0.54758 0.0
C2858 C 0.33418 0.86104 0.55637 0.0
H2859 H 0.4946 0.92956 0.55091 0.0
H2860 H 0.44106 0.888 0.55032 0.0
H2861 H 0.3706 0.90007 0.56134 0.0
H2862 H 0.21756 0.79589 0.55235 0.0
H2863 H 0.27037 0.83866 0.55396 0.0
H2864 H 0.34322 0.8317 0.54228 0.0
C2865 C 0.44567 0.91061 0.5519 0.0
C2866 C 0.36487 0.88542 0.55714 0.0
C2867 C 0.47657 0.93457 0.55229 0.0
C2868 C 0.23677 0.79256 0.55105 0.0
C2869 C 0.26719 0.81717 0.55198 0.0
C2870 C 0.34879 0.8461 0.54651 0.0
C2871 C 0.42107 0.9157 0.55348 0.0
C2872 C 0.38802 0.89027 0.55264 0.0
C2873 C 0.29304 0.81435 0.55023 0.0
C2874 C 0.32567 0.84084 0.55105 0.0
H2875 H 0.46429 0.99222 0.5576 0.0
H2876 H 0.41024 0.95029 0.55693 0.0
H2877 H 0.39627 0.87364 0.54365 0.0
H2878 H 0.25387 0.74 0.54462 0.0
H2879 H 0.30651 0.78245 0.54629 0.0
C2880 C 0.25241 0.12001 0.37647 0.0
C2881 C 0.25007 0.10046 0.38159 0.0
C2882 C 0.2465 0.14448 0.3774 0.0
C2883 C 0.24067 0.19488 0.3899 0.0
H2884 H 0.19418 0.20932 0.37675 0.0
C2885 C 0.22352 0.30304 0.3897 0.0
C2886 C 0.19454 0.29841 0.38763 0.0
C2887 C 0.23055 0.27899 0.38932 0.0
C2888 C 0.20702 0.20556 0.38051 0.0
H2889 H 0.23964 0.09194 0.39176 0.0
H2890 H 0.22965 0.13472 0.39336 0.0
H2891 H 0.2058 0.16763 0.37541 0.0
H2892 H 0.1499 0.26406 0.38374 0.0
H2893 H 0.16203 0.22258 0.38315 0.0
H2894 H 0.24153 0.23274 0.39502 0.0
C2895 C 0.23634 0.13121 0.38863 0.0
C2896 C 0.21403 0.18179 0.3797 0.0
C2897 C 0.24212 0.1066 0.3877 0.0
C2898 C 0.17256 0.26879 0.38535 0.0
C2899 C 0.1796 0.2449 0.38496 0.0
C2900 C 0.23381 0.21886 0.3907 0.0
C2901 C 0.23818 0.15038 0.38348 0.0
C2902 C 0.23093 0.176 0.38438 0.0
C2903 C 0.20885 0.2497 0.38684 0.0
C2904 C 0.21673 0.22446 0.38602 0.0
H2905 H 0.25913 0.11664 0.37173 0.0
H2906 H 0.24876 0.15902 0.37333 0.0
H2907 H 0.25395 0.19136 0.39359 0.0
H2908 H 0.24112 0.32546 0.39146 0.0
H2909 H 0.25338 0.28367 0.39079 0.0
C2910 C 0.98944 0.15646 0.3796 0.0
C2911 C 0.9869 0.18212 0.38158 0.0
C2912 C 0.96501 0.12612 0.38056 0.0
C2913 C 0.89148 0.07888 0.38981 0.0
H2914 H 0.87621 0.01793 0.37664 0.0
C2915 C 0.78249 0.95414 0.38964 0.0
C2916 C 0.78694 0.92972 0.38757 0.0
C2917 C 0.80668 0.98512 0.38925 0.0
C2918 C 0.88029 0.0345 0.38041 0.0
H2919 H 0.95619 0.19555 0.38613 0.0
H2920 H 0.91351 0.14274 0.38773 0.0
H2921 H 0.9181 0.07096 0.37526 0.0
H2922 H 0.8211 0.91917 0.38366 0.0
H2923 H 0.86283 0.97259 0.38304 0.0
H2924 H 0.85327 0.04219 0.39491 0.0
C2925 C 0.93467 0.14604 0.38553 0.0
C2926 C 0.90448 0.06507 0.37962 0.0
C2927 C 0.95921 0.17644 0.3846 0.0
C2928 C 0.81651 0.93716 0.38527 0.0
C2929 C 0.84054 0.96799 0.38487 0.0
C2930 C 0.86714 0.04823 0.39058 0.0
C2931 C 0.93709 0.12036 0.38349 0.0
C2932 C 0.91068 0.08777 0.38432 0.0
C2933 C 0.83592 0.99251 0.38675 0.0
C2934 C 0.86134 0.02551 0.38592 0.0
H2935 H 1.01056 0.15978 0.37738 0.0
H2936 H 0.96822 0.10712 0.37904 0.0
H2937 H 0.89561 0.09547 0.39358 0.0
H2938 H 0.7601 0.94945 0.39142 0.0
H2939 H 0.80214 1.00333 0.39072 0.0
C2940 C 0.90896 0.81909 0.38523 0.0
C2941 C 0.90311 0.84034 0.38193 0.0
C2942 C 0.93947 0.82545 0.38632 0.0
C2943 C 0.0214 0.89024 0.38693 0.0
H2944 H 0.04169 0.82512 0.38476 0.0
C2945 C 0.14869 0.91624 0.38565 0.0
C2946 C 0.15628 0.89458 0.38815 0.0
C2947 C 0.11782 0.90967 0.38539 0.0
C2948 C 0.03645 0.84354 0.38549 0.0
H2949 H 0.92527 0.88535 0.37731 0.0
H2950 H 0.9782 0.89625 0.37914 0.0
H2951 H 0.98829 0.81355 0.38332 0.0
H2952 H 0.1368 0.8491 0.39251 0.0
H2953 H 0.08309 0.83789 0.39217 0.0
H2954 H 0.06947 0.92026 0.3891 0.0
C2955 C 0.9592 0.87467 0.38092 0.0
C2956 C 1.0057 0.83688 0.38465 0.0
C2957 C 0.92873 0.86823 0.3798 0.0
C2958 C 0.13201 0.86642 0.39054 0.0
C2959 C 0.10106 0.85984 0.39029 0.0
C2960 C 0.0521 0.89688 0.3878 0.0
C2961 C 0.96508 0.85336 0.38419 0.0
C2962 C 0.99773 0.86018 0.3853 0.0
C2963 C 0.09341 0.88122 0.38764 0.0
C2964 C 0.06023 0.87372 0.38703 0.0
H2965 H 0.88992 0.79726 0.3869 0.0
H2966 H 0.94297 0.80857 0.3889 0.0
H2967 H 0.01617 0.90871 0.3876 0.0
H2968 H 0.16656 0.93814 0.38372 0.0
H2969 H 0.11307 0.92664 0.38323 0.0
C2970 C 0.42925 0.87504 0.79767 0.0
C2971 C 0.43289 0.90327 0.79535 0.0
C2972 C 0.45273 0.86744 0.79686 0.0
C2973 C 0.53764 0.90294 0.79354 0.0
H2974 H 0.5167 0.8184 0.78989 0.0
C2975 C 0.63336 0.87205 0.78787 0.0
C2976 C 0.63002 0.84431 0.79039 0.0
C2977 C 0.60886 0.87843 0.78813 0.0
C2978 C 0.52308 0.8421 0.79098 0.0
H2979 H 0.46483 0.94565 0.79038 0.0
H2980 H 0.50535 0.93228 0.7889 0.0
H2981 H 0.4755 0.83107 0.79108 0.0
H2982 H 0.59748 0.80122 0.79506 0.0
H2983 H 0.55502 0.81235 0.79555 0.0
H2984 H 0.58515 0.91399 0.7935 0.0
C2985 C 0.48437 0.91603 0.7914 0.0
C2986 C 0.49932 0.84941 0.79166 0.0
C2987 C 0.46084 0.92357 0.79218 0.0
C2988 C 0.60104 0.82275 0.79302 0.0
C2989 C 0.57652 0.82916 0.79329 0.0
C2990 C 0.56138 0.89564 0.79287 0.0
C2991 C 0.48077 0.88785 0.79373 0.0
C2992 C 0.50618 0.87996 0.79296 0.0
C2993 C 0.58015 0.85734 0.79094 0.0
C2994 C 0.55456 0.86509 0.79157 0.0
H2995 H 0.40804 0.85857 0.80007 0.0
H2996 H 0.44904 0.84567 0.79879 0.0
H2997 H 0.54403 0.92662 0.79465 0.0
H2998 H 0.65519 0.88928 0.78579 0.0
H2999 H 0.61256 0.90009 0.78614 0.0
C3000 C 0.20241 0.7905 0.78834 0.0
C3001 C 0.2295 0.81404 0.79125 0.0
C3002 C 0.19528 0.75939 0.78857 0.0
C3003 C 0.23028 0.70933 0.79198 0.0
H3004 H 0.14488 0.64533 0.79472 0.0
C3005 C 0.19399 0.57879 0.79259 0.0
C3006 C 0.17121 0.55956 0.79706 0.0
C3007 C 0.20059 0.60933 0.79151 0.0
C3008 C 0.16892 0.66286 0.794 0.0
H3009 H 0.27056 0.82292 0.79662 0.0
H3010 H 0.25812 0.76923 0.79706 0.0
H3011 H 0.15758 0.69907 0.79352 0.0
H3012 H 0.13714 0.55783 0.8038 0.0
H3013 H 0.14915 0.611 0.80206 0.0
H3014 H 0.24179 0.67334 0.79267 0.0
C3015 C 0.24244 0.77463 0.79451 0.0
C3016 C 0.17617 0.69379 0.79322 0.0
C3017 C 0.24953 0.80561 0.79429 0.0
C3018 C 0.15512 0.57187 0.80038 0.0
C3019 C 0.16174 0.6024 0.79931 0.0
C3020 C 0.22303 0.67844 0.79277 0.0
C3021 C 0.21507 0.75092 0.79172 0.0
C3022 C 0.20702 0.71759 0.79224 0.0
C3023 C 0.18467 0.62172 0.79487 0.0
C3024 C 0.19225 0.65468 0.79384 0.0
H3025 H 0.18636 0.79598 0.78597 0.0
H3026 H 0.1742 0.74198 0.78627 0.0
H3027 H 0.25426 0.72677 0.79116 0.0
H3028 H 0.20718 0.57047 0.78997 0.0
H3029 H 0.21814 0.62318 0.788 0.0
C3030 C 0.49724 0.63152 0.8018 0.0
C3031 C 0.51442 0.64823 0.79639 0.0
C3032 C 0.46656 0.60708 0.80116 0.0
C3033 C 0.41091 0.55161 0.78913 0.0
H3034 H 0.34929 0.53924 0.80194 0.0
C3035 C 0.28725 0.44182 0.78972 0.0
C3036 C 0.26228 0.44592 0.79156 0.0
C3037 C 0.318 0.4665 0.79008 0.0
C3038 C 0.36609 0.54242 0.79828 0.0
H3039 H 0.51188 0.65263 0.78607 0.0
H3040 H 0.4587 0.61024 0.78498 0.0
H3041 H 0.40212 0.58232 0.80305 0.0
H3042 H 0.2505 0.47993 0.79499 0.0
H3043 H 0.30358 0.52258 0.79552 0.0
H3044 H 0.37467 0.51194 0.78431 0.0
C3045 C 0.46913 0.61558 0.78971 0.0
C3046 C 0.3966 0.567 0.79897 0.0
C3047 C 0.49974 0.64002 0.79034 0.0
C3048 C 0.26895 0.47562 0.79357 0.0
C3049 C 0.29958 0.50018 0.79393 0.0
C3050 C 0.38038 0.52693 0.78846 0.0
C3051 C 0.4521 0.59856 0.7951 0.0
C3052 C 0.4195 0.57208 0.79439 0.0
C3053 C 0.32465 0.49595 0.79229 0.0
C3054 C 0.35744 0.52203 0.79301 0.0
H3055 H 0.50775 0.63675 0.80652 0.0
H3056 H 0.45442 0.59436 0.80543 0.0
H3057 H 0.42789 0.55446 0.78554 0.0
H3058 H 0.28315 0.41933 0.78818 0.0
H3059 H 0.33663 0.46222 0.7888 0.0
C3060 C 0.24895 0.4755 0.29425 0.0
C3061 C 0.22658 0.44563 0.29217 0.0
C3062 C 0.24196 0.49944 0.29467 0.0
C3063 C 0.18643 0.52471 0.28934 0.0
H3064 H 0.21797 0.57828 0.30424 0.0
C3065 C 0.17812 0.63711 0.29217 0.0
C3066 C 0.17181 0.64434 0.29833 0.0
C3067 C 0.18386 0.61245 0.29124 0.0
C3068 C 0.20874 0.56347 0.30007 0.0
H3069 H 0.1793 0.41816 0.28873 0.0
H3070 H 0.16712 0.46 0.28946 0.0
H3071 H 0.22934 0.53644 0.30288 0.0
H3072 H 0.16567 0.63001 0.30832 0.0
H3073 H 0.17592 0.58755 0.30672 0.0
H3074 H 0.16553 0.55169 0.28658 0.0
C3075 C 0.19023 0.46487 0.29074 0.0
C3076 C 0.21561 0.53959 0.29924 0.0
C3077 C 0.19721 0.44078 0.29033 0.0
C3078 C 0.1711 0.62581 0.30352 0.0
C3079 C 0.17695 0.60128 0.3026 0.0
C3080 C 0.1797 0.54878 0.29015 0.0
C3081 C 0.21236 0.49445 0.29302 0.0
C3082 C 0.20464 0.51982 0.29386 0.0
C3083 C 0.18359 0.59428 0.29645 0.0
C3084 C 0.19072 0.56852 0.29553 0.0
H3085 H 0.27191 0.48042 0.29567 0.0
H3086 H 0.25988 0.52197 0.29631 0.0
H3087 H 0.17771 0.51017 0.28511 0.0
H3088 H 0.17934 0.65094 0.28805 0.0
H3089 H 0.18924 0.6081 0.28645 0.0
C3090 C 0.46265 0.57487 0.30148 0.0
C3091 C 0.43568 0.56205 0.29765 0.0
C3092 C 0.48696 0.60529 0.30047 0.0
C3093 C 0.50449 0.68038 0.29292 0.0
H3094 H 0.5899 0.70136 0.29563 0.0
C3095 C 0.60441 0.80791 0.29467 0.0
C3096 C 0.63399 0.816 0.29227 0.0
C3097 C 0.58047 0.77693 0.29487 0.0
C3098 C 0.56625 0.69597 0.29478 0.0
H3099 H 0.41365 0.57189 0.28971 0.0
H3100 H 0.45613 0.6244 0.28787 0.0
H3101 H 0.54843 0.64775 0.29673 0.0
H3102 H 0.66103 0.79723 0.28808 0.0
H3103 H 0.61917 0.74327 0.28834 0.0
H3104 H 0.5223 0.72847 0.29086 0.0
C3105 C 0.45836 0.61106 0.29173 0.0
C3106 C 0.54229 0.66513 0.2955 0.0
C3107 C 0.43403 0.58063 0.29274 0.0
C3108 C 0.63865 0.79206 0.28996 0.0
C3109 C 0.61463 0.76097 0.29016 0.0
C3110 C 0.52842 0.71119 0.29219 0.0
C3111 C 0.4852 0.62397 0.2956 0.0
C3112 C 0.51097 0.65683 0.29463 0.0
C3113 C 0.58519 0.75286 0.29267 0.0
C3114 C 0.55971 0.71959 0.29316 0.0
H3115 H 0.46516 0.56134 0.30525 0.0
H3116 H 0.50695 0.61431 0.30361 0.0
H3117 H 0.48078 0.6752 0.29226 0.0
H3118 H 0.59975 0.82548 0.29652 0.0
H3119 H 0.55843 0.77183 0.29693 0.0
C3120 C 0.28913 0.88327 0.29053 0.0
C3121 C 0.26461 0.85407 0.29241 0.0
C3122 C 0.32021 0.89023 0.291 0.0
C3123 C 0.36938 0.86514 0.29972 0.0
H3124 H 0.4314 0.91296 0.28688 0.0
C3125 C 0.49181 0.87841 0.30065 0.0
C3126 C 0.51761 0.90683 0.29883 0.0
C3127 C 0.46144 0.87255 0.29967 0.0
C3128 C 0.41453 0.89989 0.29056 0.0
H3129 H 0.25409 0.809 0.29606 0.0
H3130 H 0.30765 0.82098 0.29681 0.0
H3131 H 0.37808 0.90203 0.28546 0.0
H3132 H 0.53118 0.95142 0.29452 0.0
H3133 H 0.47835 0.94139 0.29286 0.0
H3134 H 0.40559 0.86316 0.30487 0.0
C3135 C 0.30304 0.8388 0.29508 0.0
C3136 C 0.38383 0.89358 0.28974 0.0
C3137 C 0.27212 0.83184 0.2946 0.0
C3138 C 0.512 0.92912 0.29593 0.0
C3139 C 0.48157 0.92332 0.29497 0.0
C3140 C 0.39999 0.87153 0.30056 0.0
C3141 C 0.32764 0.86823 0.29339 0.0
C3142 C 0.36071 0.87586 0.29428 0.0
C3143 C 0.45575 0.89497 0.29685 0.0
C3144 C 0.42309 0.8888 0.29597 0.0
H3145 H 0.2844 0.90107 0.28885 0.0
H3146 H 0.33845 0.91319 0.28967 0.0
H3147 H 0.35251 0.85202 0.3034 0.0
H3148 H 0.49505 0.86039 0.30278 0.0
H3149 H 0.44236 0.85017 0.30107 0.0
C3150 C 0.95756 0.81739 0.88368 0.0
C3151 C 0.98702 0.84037 0.88153 0.0
C3152 C 0.93357 0.82409 0.88469 0.0
C3153 C 0.91842 0.89037 0.88677 0.0
H3154 H 0.83362 0.82776 0.88295 0.0
C3155 C 0.81705 0.9174 0.88575 0.0
C3156 C 0.78766 0.89487 0.88804 0.0
C3157 C 0.84159 0.91113 0.88532 0.0
C3158 C 0.85709 0.84546 0.88413 0.0
H3159 H 0.01378 0.88853 0.87865 0.0
H3160 H 0.97214 0.9001 0.88031 0.0
H3161 H 0.87529 0.81618 0.8814 0.0
H3162 H 0.76162 0.84809 0.89179 0.0
H3163 H 0.80429 0.83729 0.89106 0.0
H3164 H 0.90012 0.91978 0.88941 0.0
C3165 C 0.96764 0.87695 0.88138 0.0
C3166 C 0.88115 0.83878 0.88324 0.0
C3167 C 0.99166 0.87028 0.88041 0.0
C3168 C 0.78382 0.86611 0.89001 0.0
C3169 C 0.80831 0.85978 0.88954 0.0
C3170 C 0.89436 0.8971 0.88763 0.0
C3171 C 0.93813 0.85399 0.88354 0.0
C3172 C 0.91229 0.86111 0.88454 0.0
C3173 C 0.83751 0.88206 0.88711 0.0
C3174 C 0.86328 0.87476 0.88632 0.0
H3175 H 0.9531 0.79421 0.8847 0.0
H3176 H 0.91153 0.80581 0.88646 0.0
H3177 H 0.94186 0.90811 0.88796 0.0
H3178 H 0.82101 0.93977 0.88416 0.0
H3179 H 0.86354 0.92884 0.88338 0.0
C3180 C 0.21141 0.15825 0.8858 0.0
C3181 C 0.23755 0.17975 0.88227 0.0
C3182 C 0.20519 0.12776 0.88675 0.0
C3183 C 0.24223 0.07797 0.88575 0.0
H3184 H 0.15703 0.01112 0.88667 0.0
C3185 C 0.21215 0.95115 0.89113 0.0
C3186 C 0.18645 0.92713 0.88793 0.0
C3187 C 0.21798 0.98183 0.89088 0.0
C3188 C 0.18102 0.02935 0.88637 0.0
H3189 H 0.27767 0.18521 0.87702 0.0
H3190 H 0.26611 0.13211 0.87841 0.0
H3191 H 0.16787 0.06383 0.88504 0.0
H3192 H 0.14661 0.91706 0.88199 0.0
H3193 H 0.15702 0.96994 0.88144 0.0
H3194 H 0.25534 0.04327 0.88679 0.0
C3195 C 0.25067 0.13894 0.88058 0.0
C3196 C 0.1873 0.0599 0.88552 0.0
C3197 C 0.25704 0.1695 0.87968 0.0
C3198 C 0.16652 0.93468 0.88457 0.0
C3199 C 0.17245 0.96526 0.88428 0.0
C3200 C 0.23595 0.04737 0.88653 0.0
C3201 C 0.22471 0.11753 0.88417 0.0
C3202 C 0.21802 0.08479 0.88517 0.0
C3203 C 0.1984 0.98948 0.88739 0.0
C3204 C 0.20522 0.02246 0.88682 0.0
H3205 H 0.19549 0.16484 0.88782 0.0
H3206 H 0.18517 0.11236 0.88961 0.0
H3207 H 0.26623 0.09632 0.88562 0.0
H3208 H 0.22805 0.94636 0.89377 0.0
H3209 H 0.23791 0.99954 0.89344 0.0
C3210 C 0.91307 0.12287 0.88388 0.0
C3211 C 0.90581 0.09241 0.88236 0.0
C3212 C 0.9439 0.14641 0.88483 0.0
C3213 C 0.02571 0.16851 0.88129 0.0
H3214 H 0.04463 0.22844 0.89489 0.0
C3215 C 0.15293 0.26408 0.88674 0.0
C3216 C 0.15837 0.29372 0.88846 0.0
C3217 C 0.12259 0.23867 0.88638 0.0
C3218 C 0.03987 0.21222 0.89101 0.0
H3219 H 0.92594 0.06324 0.88063 0.0
H3220 H 0.97971 0.10429 0.88229 0.0
H3221 H 0.99151 0.18646 0.8934 0.0
H3222 H 0.13561 0.31939 0.89126 0.0
H3223 H 0.08309 0.27557 0.89055 0.0
H3224 H 0.0739 0.19452 0.8788 0.0
C3225 C 0.96142 0.10997 0.88272 0.0
C3226 C 1.00924 0.18798 0.89016 0.0
C3227 C 0.93049 0.0863 0.88182 0.0
C3228 C 0.13254 0.29697 0.88997 0.0
C3229 C 0.10222 0.27163 0.88958 0.0
C3230 C 0.05635 0.19289 0.8821 0.0
C3231 C 0.96861 0.1404 0.88426 0.0
C3232 C 1.0016 0.16581 0.88527 0.0
C3233 C 0.09663 0.24208 0.8877 0.0
C3234 C 0.06398 0.2153 0.88696 0.0
H3235 H 0.89481 0.12852 0.88443 0.0
H3236 H 0.94837 0.16952 0.88594 0.0
H3237 H 0.02081 0.1522 0.87741 0.0
H3238 H 0.17212 0.26051 0.88555 0.0
H3239 H 0.11955 0.21633 0.88504 0.0
C3240 C 0.90235 0.43175 0.72104 0.0
C3241 C 0.91 0.42592 0.71487 0.0
C3242 C 0.89548 0.45558 0.72205 0.0
C3243 C 0.87023 0.50474 0.71343 0.0
H3244 H 0.89961 0.5563 0.72865 0.0
C3245 C 0.83149 0.59418 0.71921 0.0
C3246 C 0.85446 0.62366 0.72134 0.0
C3247 C 0.83744 0.56949 0.71885 0.0
C3248 C 0.89129 0.54222 0.72435 0.0
H3249 H 0.91711 0.44174 0.70498 0.0
H3250 H 0.90488 0.48277 0.70674 0.0
H3251 H 0.91223 0.51522 0.72705 0.0
H3252 H 0.90153 0.64963 0.72499 0.0
H3253 H 0.91181 0.60665 0.72438 0.0
H3254 H 0.84971 0.53195 0.71067 0.0
C3255 C 0.90372 0.46858 0.71078 0.0
C3256 C 0.89829 0.5184 0.72347 0.0
C3257 C 0.91073 0.44489 0.70977 0.0
C3258 C 0.88318 0.62733 0.72334 0.0
C3259 C 0.88908 0.60257 0.723 0.0
C3260 C 0.86308 0.52839 0.71433 0.0
C3261 C 0.89589 0.47426 0.71693 0.0
C3262 C 0.88801 0.49939 0.71797 0.0
C3263 C 0.86651 0.57341 0.72063 0.0
C3264 C 0.87357 0.5476 0.71979 0.0
H3265 H 0.90103 0.41749 0.72508 0.0
H3266 H 0.8892 0.45892 0.72684 0.0
H3267 H 0.86156 0.49045 0.70917 0.0
H3268 H 0.80906 0.59028 0.71764 0.0
H3269 H 0.81924 0.5473 0.71712 0.0
C3270 C 0.48567 0.26451 0.71882 0.0
C3271 C 0.4571 0.25751 0.72162 0.0
C3272 C 0.5104 0.2951 0.71852 0.0
C3273 C 0.52751 0.37704 0.7191 0.0
H3274 H 0.61276 0.3951 0.72004 0.0
C3275 C 0.63049 0.49693 0.71164 0.0
C3276 C 0.65869 0.50911 0.71504 0.0
C3277 C 0.60618 0.46664 0.71276 0.0
C3278 C 0.58915 0.39068 0.71982 0.0
H3279 H 0.43283 0.27774 0.72645 0.0
H3280 H 0.47608 0.33093 0.72603 0.0
H3281 H 0.57064 0.34237 0.72177 0.0
H3282 H 0.683 0.49815 0.7223 0.0
H3283 H 0.64053 0.44587 0.72437 0.0
H3284 H 0.54602 0.42546 0.71728 0.0
C3285 C 0.47919 0.31274 0.72396 0.0
C3286 C 0.56483 0.36017 0.72074 0.0
C3287 C 0.45437 0.28206 0.72426 0.0
C3288 C 0.66166 0.48992 0.71962 0.0
C3289 C 0.63731 0.45962 0.72075 0.0
C3290 C 0.55183 0.40756 0.7182 0.0
C3291 C 0.50751 0.31982 0.72101 0.0
C3292 C 0.53357 0.35276 0.72034 0.0
C3293 C 0.60913 0.44744 0.71734 0.0
C3294 C 0.58308 0.41489 0.71849 0.0
H3295 H 0.48882 0.24642 0.7167 0.0
H3296 H 0.53151 0.2994 0.71613 0.0
H3297 H 0.50388 0.37244 0.71868 0.0
H3298 H 0.62693 0.51092 0.70814 0.0
H3299 H 0.58515 0.45819 0.70996 0.0
C3300 C 0.57331 0.1487 0.71824 0.0
C3301 C 0.56707 0.16896 0.71466 0.0
C3302 C 0.60394 0.15539 0.71931 0.0
C3303 C 0.68592 0.22027 0.71927 0.0
H3304 H 0.70592 0.15459 0.71802 0.0
C3305 C 0.8132 0.2456 0.71823 0.0
C3306 C 0.8207 0.22438 0.721 0.0
C3307 C 0.78236 0.23915 0.71791 0.0
C3308 C 0.70079 0.17321 0.71849 0.0
H3309 H 0.58869 0.21263 0.70952 0.0
H3310 H 0.64184 0.22411 0.71132 0.0
H3311 H 0.65246 0.14272 0.71657 0.0
H3312 H 0.80112 0.17989 0.7258 0.0
H3313 H 0.74755 0.16895 0.72538 0.0
H3314 H 0.73417 0.25078 0.7212 0.0
C3315 C 0.62305 0.20303 0.71334 0.0
C3316 C 0.66999 0.16637 0.71765 0.0
C3317 C 0.59244 0.19625 0.71223 0.0
C3318 C 0.79641 0.19685 0.72361 0.0
C3319 C 0.76551 0.19041 0.72332 0.0
C3320 C 0.71669 0.2271 0.72015 0.0
C3321 C 0.62931 0.18268 0.71688 0.0
C3322 C 0.66209 0.18983 0.71797 0.0
C3323 C 0.75791 0.21127 0.72038 0.0
C3324 C 0.72472 0.20374 0.71972 0.0
H3325 H 0.55447 0.12735 0.72015 0.0
H3326 H 0.60773 0.13926 0.72211 0.0
H3327 H 0.68076 0.23891 0.71968 0.0
H3328 H 0.83109 0.267 0.71612 0.0
H3329 H 0.77765 0.2557 0.71554 0.0
C3330 C 0.27164 0.15919 0.12841 0.0
C3331 C 0.30032 0.18087 0.12569 0.0
C3332 C 0.24688 0.16509 0.12871 0.0
C3333 C 0.22986 0.23006 0.12823 0.0
H3334 H 0.14462 0.16326 0.1271 0.0
C3335 C 0.12681 0.24748 0.13546 0.0
C3336 C 0.09879 0.23172 0.13199 0.0
C3337 C 0.15106 0.24129 0.13441 0.0
C3338 C 0.16824 0.18234 0.12737 0.0
H3339 H 0.32475 0.22558 0.12097 0.0
H3340 H 0.28147 0.23556 0.12137 0.0
H3341 H 0.18676 0.1525 0.12542 0.0
H3342 H 0.07474 0.19666 0.12469 0.0
H3343 H 0.11714 0.18652 0.12274 0.0
H3344 H 0.21135 0.26002 0.13003 0.0
C3345 C 0.27829 0.21417 0.1234 0.0
C3346 C 0.19255 0.17607 0.12648 0.0
C3347 C 0.30314 0.20829 0.12311 0.0
C3348 C 0.09594 0.20958 0.12742 0.0
C3349 C 0.12025 0.20344 0.12636 0.0
C3350 C 0.20555 0.23635 0.12909 0.0
C3351 C 0.24987 0.19284 0.12628 0.0
C3352 C 0.2238 0.19978 0.12694 0.0
C3353 C 0.14825 0.2192 0.12983 0.0
C3354 C 0.1743 0.21257 0.12873 0.0
H3355 H 0.26844 0.13785 0.13048 0.0
H3356 H 0.22568 0.14819 0.13105 0.0
H3357 H 0.25347 0.24898 0.1287 0.0
H3358 H 0.13027 0.265 0.13895 0.0
H3359 H 0.17195 0.25368 0.13725 0.0
C3360 C 0.92672 0.14431 0.12777 0.0
C3361 C 0.90475 0.1513 0.12519 0.0
C3362 C 0.92062 0.1136 0.12808 0.0
C3363 C 0.85451 0.03225 0.12804 0.0
H3364 H 0.91967 0.01157 0.12642 0.0
C3365 C 0.83506 0.91133 0.13529 0.0
C3366 C 0.84939 0.89815 0.13165 0.0
C3367 C 0.84193 0.94193 0.13423 0.0
C3368 C 0.90105 0.01677 0.12683 0.0
H3369 H 0.85946 0.13108 0.12068 0.0
H3370 H 0.84916 0.0779 0.12108 0.0
H3371 H 0.93159 0.06482 0.12473 0.0
H3372 H 0.8826 0.90758 0.12401 0.0
H3373 H 0.89394 0.96047 0.12205 0.0
H3374 H 0.82384 0.98418 0.13002 0.0
C3375 C 0.8709 0.09606 0.12301 0.0
C3376 C 0.908 0.04754 0.12593 0.0
C3377 C 0.87696 0.12675 0.12272 0.0
C3378 C 0.87076 0.91661 0.12688 0.0
C3379 C 0.87761 0.94724 0.12581 0.0
C3380 C 0.84755 1.00152 0.12893 0.0
C3381 C 0.89236 0.08889 0.1258 0.0
C3382 C 0.88487 0.05583 0.12655 0.0
C3383 C 0.86333 0.96043 0.12947 0.0
C3384 C 0.87072 0.99326 0.12837 0.0
H3385 H 0.94833 0.16245 0.12975 0.0
H3386 H 0.93768 0.10919 0.13032 0.0
H3387 H 0.83605 0.03757 0.12864 0.0
H3388 H 0.81821 0.89791 0.13896 0.0
H3389 H 0.83067 0.95119 0.13722 0.0
C3390 C 0.17678 0.97166 0.12591 0.0
C3391 C 0.19076 0.97767 0.13203 0.0
C3392 C 0.14628 0.94726 0.12496 0.0
C3393 C 0.07302 0.89706 0.13382 0.0
H3394 H 0.04953 0.8462 0.11848 0.0
C3395 C 0.9444 0.81045 0.1281 0.0
C3396 C 0.93668 0.78083 0.12581 0.0
C3397 C 0.97537 0.83428 0.1285 0.0
C3398 C 0.05569 0.86006 0.12281 0.0
H3399 H 0.18326 0.96146 0.14189 0.0
H3400 H 0.13035 0.91946 0.14025 0.0
H3401 H 0.10341 0.8873 0.11996 0.0
H3402 H 0.95611 0.75371 0.12198 0.0
H3403 H 1.01021 0.79538 0.12267 0.0
H3404 H 0.02555 0.86977 0.13672 0.0
C3405 C 0.14281 0.93395 0.13619 0.0
C3406 C 0.08659 0.88389 0.12363 0.0
C3407 C 0.1733 0.95821 0.13714 0.0
C3408 C 0.961 0.77614 0.12374 0.0
C3409 C 0.99211 0.80013 0.12413 0.0
C3410 C 0.04217 0.87344 0.13299 0.0
C3411 C 0.12872 0.92817 0.1301 0.0
C3412 C 0.09575 0.90272 0.12916 0.0
C3413 C 0.99978 0.82941 0.12663 0.0
C3414 C 0.03296 0.85456 0.12747 0.0
H3415 H 0.18913 0.98625 0.12186 0.0
H3416 H 0.1362 0.94385 0.12021 0.0
H3417 H 0.07896 0.91119 0.13811 0.0
H3418 H 0.9265 0.81522 0.12971 0.0
H3419 H 0.98018 0.8566 0.13032 0.0
C3420 C 0.91565 0.81021 0.62643 0.0
C3421 C 0.8935 0.78034 0.62431 0.0
C3422 C 0.90842 0.83398 0.62685 0.0
C3423 C 0.85267 0.85882 0.62147 0.0
H3424 H 0.88306 0.91169 0.63649 0.0
C3425 C 0.84339 0.97059 0.62443 0.0
C3426 C 0.83659 0.97737 0.63059 0.0
C3427 C 0.84934 0.94609 0.62348 0.0
C3428 C 0.87416 0.89708 0.63228 0.0
H3429 H 0.84639 0.75269 0.62078 0.0
H3430 H 0.8338 0.79423 0.62151 0.0
H3431 H 0.89495 0.87023 0.6351 0.0
H3432 H 0.8298 0.96245 0.64054 0.0
H3433 H 0.84043 0.92027 0.6389 0.0
H3434 H 0.83157 0.88562 0.61871 0.0
C3435 C 0.85691 0.79923 0.62283 0.0
C3436 C 0.88132 0.87342 0.63144 0.0
C3437 C 0.86413 0.77532 0.62242 0.0
C3438 C 0.8356 0.95858 0.63575 0.0
C3439 C 0.84167 0.93422 0.6348 0.0
C3440 C 0.84564 0.88267 0.6223 0.0
C3441 C 0.8788 0.82879 0.62516 0.0
C3442 C 0.87077 0.85392 0.62602 0.0
C3443 C 0.84883 0.92767 0.62867 0.0
C3444 C 0.85624 0.90215 0.62773 0.0
H3445 H 0.93859 0.81525 0.6279 0.0
H3446 H 0.92614 0.85651 0.62854 0.0
H3447 H 0.84427 0.84448 0.61721 0.0
H3448 H 0.84483 0.98464 0.62034 0.0
H3449 H 0.85511 0.94208 0.6187 0.0
C3450 C 0.30068 0.12935 0.62233 0.0
C3451 C 0.29794 0.15403 0.6249 0.0
C3452 C 0.27585 0.09872 0.62265 0.0
C3453 C 0.20333 0.04906 0.63186 0.0
H3454 H 0.18633 0.98995 0.61818 0.0
C3455 C 0.09558 0.92547 0.63261 0.0
C3456 C 0.09856 0.90054 0.63028 0.0
C3457 C 0.11933 0.95623 0.63173 0.0
C3458 C 0.19091 1.00599 0.62209 0.0
H3459 H 0.26614 0.16546 0.62966 0.0
H3460 H 0.22298 0.11244 0.63011 0.0
H3461 H 0.22812 0.04343 0.61694 0.0
H3462 H 0.12946 0.88897 0.6252 0.0
H3463 H 0.17086 0.94243 0.62371 0.0
H3464 H 0.1664 0.01171 0.63703 0.0
C3465 C 0.24452 0.11662 0.62795 0.0
C3466 C 0.21496 0.03681 0.62137 0.0
C3467 C 0.26931 0.14722 0.62763 0.0
C3468 C 0.12603 0.90744 0.627 0.0
C3469 C 0.14986 0.93824 0.62613 0.0
C3470 C 0.17935 0.01828 0.63258 0.0
C3471 C 0.24751 0.0918 0.62555 0.0
C3472 C 0.22155 0.05887 0.62624 0.0
C3473 C 0.14697 0.96318 0.62851 0.0
C3474 C 0.17268 0.99619 0.62771 0.0
H3475 H 0.32233 0.13352 0.62022 0.0
H3476 H 0.27927 0.08035 0.62079 0.0
H3477 H 0.20796 0.06505 0.63578 0.0
H3478 H 0.07462 0.92125 0.63506 0.0
H3479 H 0.11579 0.97463 0.63353 0.0
C3480 C 0.15819 0.20279 0.63162 0.0
C3481 C 0.18284 0.23357 0.63125 0.0
C3482 C 0.12738 0.19567 0.6306 0.0
C3483 C 0.0802 0.22648 0.6231 0.0
H3484 H 0.01479 0.16744 0.63418 0.0
C3485 C 0.95594 0.21048 0.62292 0.0
C3486 C 0.93045 0.18102 0.62427 0.0
C3487 C 0.98648 0.21603 0.6234 0.0
C3488 C 0.03257 0.18363 0.63096 0.0
H3489 H 0.19403 0.28084 0.62935 0.0
H3490 H 0.14061 0.26851 0.62762 0.0
H3491 H 0.06784 0.17837 0.63575 0.0
H3492 H 0.91753 0.134 0.62695 0.0
H3493 H 0.97039 0.14341 0.62759 0.0
H3494 H 0.04501 0.23167 0.61828 0.0
C3495 C 0.14503 0.2498 0.6287 0.0
C3496 C 0.06316 0.18996 0.63188 0.0
C3497 C 0.17574 0.25693 0.62977 0.0
C3498 C 0.93644 0.15705 0.6259 0.0
C3499 C 0.96694 0.16255 0.62633 0.0
C3500 C 0.04958 0.22002 0.62215 0.0
C3501 C 0.12034 0.21907 0.6291 0.0
C3502 C 0.08749 0.21163 0.628 0.0
C3503 C 0.99253 0.19227 0.6252 0.0
C3504 C 0.02524 0.19859 0.62608 0.0
H3505 H 0.16266 0.18418 0.63278 0.0
H3506 H 0.10908 0.17171 0.6309 0.0
H3507 H 0.09817 0.24294 0.61994 0.0
H3508 H 0.9524 0.22962 0.62171 0.0
H3509 H 1.00537 0.23932 0.62255 0.0
C3510 C 0.45007 0.19502 0.22493 0.0
C3511 C 0.45414 0.22353 0.22272 0.0
C3512 C 0.47453 0.18857 0.2247 0.0
C3513 C 0.54912 0.2129 0.21617 0.0
H3514 H 0.56078 0.16434 0.22927 0.0
C3515 C 0.63335 0.16528 0.21251 0.0
C3516 C 0.65125 0.16552 0.21778 0.0
C3517 C 0.60961 0.17244 0.21329 0.0
C3518 C 0.55806 0.17813 0.22558 0.0
H3519 H 0.48794 0.26802 0.21872 0.0
H3520 H 0.53038 0.25699 0.2184 0.0
H3521 H 0.51987 0.17745 0.23052 0.0
H3522 H 0.65787 0.17392 0.22803 0.0
H3523 H 0.6165 0.18623 0.22939 0.0
H3524 H 0.58751 0.21398 0.21127 0.0
C3525 C 0.5081 0.23929 0.22021 0.0
C3526 C 0.53429 0.18538 0.22627 0.0
C3527 C 0.48369 0.24573 0.22045 0.0
C3528 C 0.64442 0.17298 0.22387 0.0
C3529 C 0.6206 0.18009 0.22465 0.0
C3530 C 0.57279 0.20558 0.21548 0.0
C3531 C 0.50381 0.21042 0.22223 0.0
C3532 C 0.52943 0.2029 0.22157 0.0
C3533 C 0.60287 0.18005 0.21936 0.0
C3534 C 0.57764 0.18803 0.22016 0.0
H3535 H 0.4277 0.17723 0.22669 0.0
H3536 H 0.47013 0.166 0.22625 0.0
H3537 H 0.54599 0.22606 0.21241 0.0
H3538 H 0.63735 0.15909 0.20777 0.0
H3539 H 0.59619 0.17155 0.20912 0.0
C3540 C 0.88713 0.49505 0.22084 0.0
C3541 C 0.91034 0.51447 0.21646 0.0
C3542 C 0.88068 0.4646 0.22195 0.0
C3543 C 0.91346 0.41189 0.21982 0.0
H3544 H 0.82803 0.34723 0.22221 0.0
C3545 C 0.88091 0.28483 0.2256 0.0
C3546 C 0.85451 0.26112 0.22252 0.0
C3547 C 0.88752 0.31574 0.22535 0.0
C3548 C 0.85204 0.3649 0.22152 0.0
H3549 H 0.94533 0.51666 0.20992 0.0
H3550 H 0.93361 0.46362 0.21172 0.0
H3551 H 0.8401 0.40052 0.22064 0.0
H3552 H 0.81406 0.25167 0.21687 0.0
H3553 H 0.82564 0.30512 0.21639 0.0
H3554 H 0.92527 0.37608 0.22049 0.0
C3555 C 0.92056 0.47201 0.21437 0.0
C3556 C 0.85904 0.39568 0.2207 0.0
C3557 C 0.92703 0.50246 0.21327 0.0
C3558 C 0.83456 0.26914 0.21933 0.0
C3559 C 0.84115 0.29996 0.21908 0.0
C3560 C 0.90645 0.38108 0.22064 0.0
C3561 C 0.89721 0.45252 0.21872 0.0
C3562 C 0.88985 0.41969 0.21979 0.0
C3563 C 0.86791 0.32385 0.22202 0.0
C3564 C 0.87559 0.35703 0.22146 0.0
H3565 H 0.87349 0.50317 0.22335 0.0
H3566 H 0.86279 0.45059 0.22539 0.0
H3567 H 0.93751 0.42963 0.21923 0.0
H3568 H 0.89686 0.27964 0.22811 0.0
H3569 H 0.9081 0.33331 0.22777 0.0
C3570 C 0.58402 0.42317 0.22107 0.0
C3571 C 0.56523 0.42576 0.21633 0.0
C3572 C 0.6145 0.44726 0.22214 0.0
C3573 C 0.66798 0.53169 0.21905 0.0
H3574 H 0.73211 0.51163 0.22296 0.0
C3575 C 0.79404 0.62773 0.22494 0.0
C3576 C 0.81835 0.62439 0.22235 0.0
C3577 C 0.76322 0.60324 0.22471 0.0
C3578 C 0.71459 0.51775 0.22184 0.0
H3579 H 0.56419 0.45651 0.20908 0.0
H3580 H 0.61729 0.49792 0.21081 0.0
H3581 H 0.67886 0.4701 0.22138 0.0
H3582 H 0.82889 0.59196 0.2176 0.0
H3583 H 0.77552 0.54971 0.21713 0.0
H3584 H 0.70386 0.5793 0.21929 0.0
C3585 C 0.60838 0.47739 0.21378 0.0
C3586 C 0.68383 0.49382 0.22101 0.0
C3587 C 0.5779 0.45333 0.21272 0.0
C3588 C 0.81097 0.59554 0.21967 0.0
C3589 C 0.78019 0.57111 0.21943 0.0
C3590 C 0.69874 0.55561 0.21987 0.0
C3591 C 0.62723 0.47475 0.2185 0.0
C3592 C 0.66003 0.50037 0.21956 0.0
C3593 C 0.75573 0.57466 0.22186 0.0
C3594 C 0.72261 0.54905 0.22124 0.0
H3595 H 0.57537 0.40227 0.22391 0.0
H3596 H 0.62802 0.44436 0.22587 0.0
H3597 H 0.65038 0.53783 0.21803 0.0
H3598 H 0.79867 0.64949 0.22705 0.0
H3599 H 0.74521 0.60681 0.22674 0.0
C3600 C 0.52177 0.33986 0.06124 0.0
C3601 C 0.52781 0.36015 0.05604 0.0
C3602 C 0.5141 0.30904 0.06023 0.0
C3603 C 0.51822 0.2562 0.04807 0.0
H3604 H 0.46102 0.19287 0.05977 0.0
C3605 C 0.48544 0.12626 0.04596 0.0
C3606 C 0.48892 0.11392 0.05177 0.0
C3607 C 0.48581 0.15473 0.04591 0.0
C3608 C 0.47704 0.21026 0.05646 0.0
H3609 H 0.53054 0.36339 0.04564 0.0
H3610 H 0.5164 0.3095 0.04388 0.0
H3611 H 0.47068 0.24567 0.06076 0.0
H3612 H 0.49405 0.12088 0.06206 0.0
H3613 H 0.49385 0.16954 0.062 0.0
H3614 H 0.52459 0.22051 0.04381 0.0
C3615 C 0.518 0.31758 0.04877 0.0
C3616 C 0.48277 0.24067 0.05705 0.0
C3617 C 0.52578 0.34851 0.04978 0.0
C3618 C 0.49122 0.12973 0.05751 0.0
C3619 C 0.49102 0.15765 0.05748 0.0
C3620 C 0.5123 0.22564 0.04746 0.0
C3621 C 0.512 0.29734 0.05398 0.0
C3622 C 0.50399 0.26432 0.05296 0.0
C3623 C 0.48902 0.17096 0.05167 0.0
C3624 C 0.49214 0.20241 0.05173 0.0
H3625 H 0.52262 0.34764 0.06613 0.0
H3626 H 0.51019 0.29449 0.06439 0.0
H3627 H 0.53489 0.27368 0.04486 0.0
H3628 H 0.48403 0.11476 0.04146 0.0
H3629 H 0.48408 0.16429 0.04136 0.0
C3630 C 0.95893 0.38578 0.04627 0.0
C3631 C 0.96074 0.41483 0.04599 0.0
C3632 C 0.92983 0.35842 0.0465 0.0
C3633 C 0.85009 0.33404 0.05186 0.0
H3634 H 0.82659 0.25541 0.04373 0.0
C3635 C 0.72451 0.23314 0.05336 0.0
C3636 C 0.71936 0.20296 0.05426 0.0
C3637 C 0.75411 0.25765 0.05189 0.0
C3638 C 0.83289 0.27712 0.04609 0.0
H3639 H 0.93379 0.43794 0.04523 0.0
H3640 H 0.88356 0.39069 0.04544 0.0
H3641 H 0.87813 0.30022 0.04172 0.0
H3642 H 0.74153 0.17496 0.05419 0.0
H3643 H 0.79337 0.21788 0.05169 0.0
H3644 H 0.80547 0.31131 0.05632 0.0
C3645 C 0.9043 0.38878 0.04566 0.0
C3646 C 0.86245 0.30282 0.04493 0.0
C3647 C 0.93313 0.41588 0.04547 0.0
C3648 C 0.74459 0.19786 0.0535 0.0
C3649 C 0.77435 0.2225 0.05205 0.0
C3650 C 0.82079 0.30849 0.05304 0.0
C3651 C 0.90216 0.35975 0.04646 0.0
C3652 C 0.87125 0.33175 0.04774 0.0
C3653 C 0.77961 0.25286 0.05131 0.0
C3654 C 0.81151 0.27971 0.05012 0.0
H3655 H 0.97982 0.3843 0.04678 0.0
H3656 H 0.92905 0.33645 0.04711 0.0
H3657 H 0.8563 0.35566 0.05426 0.0
H3658 H 0.70555 0.23785 0.05377 0.0
H3659 H 0.75694 0.28046 0.05119 0.0
C3660 C 0.85614 0.52693 0.05234 0.0
C3661 C 0.88457 0.5506 0.05476 0.0
C3662 C 0.83139 0.53222 0.05124 0.0
C3663 C 0.8108 0.59372 0.0489 0.0
H3664 H 0.72964 0.52945 0.0545 0.0
C3665 C 0.70104 0.60855 0.05 0.0
C3666 C 0.67223 0.58192 0.04885 0.0
C3667 C 0.72836 0.60668 0.05012 0.0
C3668 C 0.75199 0.5475 0.0528 0.0
H3669 H 0.90943 0.5988 0.05769 0.0
H3670 H 0.86612 0.60791 0.05581 0.0
H3671 H 0.7741 0.52229 0.05586 0.0
H3672 H 0.64954 0.53314 0.04648 0.0
H3673 H 0.6968 0.53011 0.04639 0.0
H3674 H 0.78843 0.61891 0.04583 0.0
C3675 C 0.86303 0.58525 0.05476 0.0
C3676 C 0.77759 0.54337 0.0536 0.0
C3677 C 0.88776 0.57991 0.05591 0.0
C3678 C 0.67144 0.554 0.04742 0.0
C3679 C 0.69855 0.55221 0.04745 0.0
C3680 C 0.78503 0.59781 0.04806 0.0
C3681 C 0.83438 0.56135 0.05249 0.0
C3682 C 0.80732 0.56629 0.05163 0.0
C3683 C 0.72727 0.57817 0.04904 0.0
C3684 C 0.75519 0.5746 0.04996 0.0
H3685 H 0.8527 0.50402 0.05145 0.0
H3686 H 0.80981 0.51336 0.04941 0.0
H3687 H 0.83336 0.6118 0.04729 0.0
H3688 H 0.70221 0.63027 0.05119 0.0
H3689 H 0.75 0.62716 0.05137 0.0
C3690 C 0.36536 0.54795 0.46094 0.0
C3691 C 0.36992 0.52515 0.45799 0.0
C3692 C 0.33541 0.54253 0.4622 0.0
C3693 C 0.25298 0.48082 0.46394 0.0
H3694 H 0.23715 0.54757 0.45989 0.0
C3695 C 0.12897 0.46728 0.4633 0.0
C3696 C 0.12681 0.49345 0.46496 0.0
C3697 C 0.15807 0.46901 0.46311 0.0
C3698 C 0.24115 0.52878 0.46116 0.0
H3699 H 0.34626 0.47826 0.45424 0.0
H3700 H 0.29397 0.46895 0.45638 0.0
H3701 H 0.28865 0.55484 0.45826 0.0
H3702 H 0.1527 0.54109 0.46814 0.0
H3703 H 0.20287 0.54375 0.46813 0.0
H3704 H 0.20522 0.45476 0.46684 0.0
C3705 C 0.31365 0.49102 0.45774 0.0
C3706 C 0.27081 0.53298 0.46021 0.0
C3707 C 0.34365 0.49651 0.45645 0.0
C3708 C 0.15377 0.52059 0.46683 0.0
C3709 C 0.18259 0.5222 0.46674 0.0
C3710 C 0.22318 0.47664 0.46493 0.0
C3711 C 0.30912 0.51411 0.46057 0.0
C3712 C 0.27723 0.50916 0.46161 0.0
C3713 C 0.18541 0.4969 0.46462 0.0
C3714 C 0.21692 0.50069 0.4636 0.0
H3715 H 0.38496 0.57035 0.46215 0.0
H3716 H 0.33285 0.56072 0.46446 0.0
H3717 H 0.25715 0.46202 0.4651 0.0
H3718 H 0.10855 0.44624 0.46173 0.0
H3719 H 0.15929 0.44906 0.46144 0.0
C3720 C 0.56786 0.66982 0.4654 0.0
C3721 C 0.5939 0.668 0.46343 0.0
C3722 C 0.56833 0.69811 0.46534 0.0
C3723 C 0.60218 0.77118 0.45669 0.0
H3724 H 0.56794 0.79701 0.4705 0.0
C3725 C 0.59111 0.8817 0.45463 0.0
C3726 C 0.56471 0.88061 0.45737 0.0
C3727 C 0.59787 0.85792 0.45575 0.0
C3728 C 0.57722 0.79002 0.46656 0.0
H3729 H 0.64094 0.69428 0.45987 0.0
H3730 H 0.64162 0.74404 0.45963 0.0
H3731 H 0.57455 0.75209 0.47195 0.0
H3732 H 0.52446 0.85315 0.46335 0.0
H3733 H 0.53576 0.81161 0.4652 0.0
H3734 H 0.60362 0.80813 0.45117 0.0
C3735 C 0.62101 0.72354 0.46132 0.0
C3736 C 0.58123 0.76435 0.46742 0.0
C3737 C 0.62077 0.69521 0.46153 0.0
C3738 C 0.54528 0.85509 0.46125 0.0
C3739 C 0.55188 0.83122 0.46233 0.0
C3740 C 0.59781 0.79666 0.45579 0.0
C3741 C 0.59461 0.7252 0.46316 0.0
C3742 C 0.59341 0.75439 0.46247 0.0
C3743 C 0.57829 0.83221 0.4596 0.0
C3744 C 0.58484 0.80623 0.46068 0.0
H3745 H 0.54673 0.64909 0.46682 0.0
H3746 H 0.54754 0.69851 0.46673 0.0
H3747 H 0.61126 0.76384 0.45276 0.0
H3748 H 0.60679 0.90116 0.45168 0.0
H3749 H 0.61867 0.8599 0.45364 0.0
C3750 C 0.40001 0.94646 0.46782 0.0
C3751 C 0.4131 0.96323 0.46216 0.0
C3752 C 0.37269 0.9174 0.46757 0.0
C3753 C 0.3298 0.85374 0.45584 0.0
H3754 H 0.26554 0.81926 0.46883 0.0
C3755 C 0.21781 0.73719 0.45194 0.0
C3756 C 0.20669 0.71599 0.45707 0.0
C3757 C 0.24161 0.76775 0.45287 0.0
C3758 C 0.28345 0.82849 0.46519 0.0
H3759 H 0.40703 0.96405 0.45189 0.0
H3760 H 0.35908 0.9145 0.45146 0.0
H3761 H 0.30862 0.87251 0.46995 0.0
H3762 H 0.21199 0.71087 0.46727 0.0
H3763 H 0.25346 0.76435 0.46889 0.0
H3764 H 0.30489 0.81001 0.45107 0.0
C3765 C 0.37014 0.92288 0.45608 0.0
C3766 C 0.30817 0.85904 0.46583 0.0
C3767 C 0.39746 0.95152 0.45632 0.0
C3768 C 0.21969 0.72653 0.4632 0.0
C3769 C 0.2435 0.75723 0.46414 0.0
C3770 C 0.30516 0.82343 0.45519 0.0
C3771 C 0.358 0.90476 0.46165 0.0
C3772 C 0.33156 0.87219 0.46112 0.0
C3773 C 0.25503 0.77815 0.45896 0.0
C3774 C 0.2815 0.81041 0.45982 0.0
H3775 H 0.41194 0.95482 0.47236 0.0
H3776 H 0.36412 0.90415 0.47196 0.0
H3777 H 0.34777 0.86256 0.4522 0.0
H3778 H 0.20795 0.73027 0.44718 0.0
H3779 H 0.24944 0.78334 0.44879 0.0
C3780 C 0.53833 0.72652 0.96309 0.0
C3781 C 0.56317 0.72197 0.96142 0.0
C3782 C 0.54338 0.75616 0.96455 0.0
C3783 C 0.60071 0.84006 0.96238 0.0
H3784 H 0.54934 0.84996 0.97507 0.0
C3785 C 0.61397 0.9605 0.96818 0.0
C3786 C 0.5858 0.96065 0.96804 0.0
C3787 C 0.61402 0.93228 0.96833 0.0
C3788 C 0.56389 0.84763 0.97151 0.0
H3789 H 0.61306 0.74532 0.96014 0.0
H3790 H 0.62192 0.79689 0.96272 0.0
H3791 H 0.54395 0.79911 0.97336 0.0
H3792 H 0.53578 0.9316 0.96825 0.0
H3793 H 0.53584 0.88285 0.96867 0.0
H3794 H 0.6204 0.88866 0.9605 0.0
C3795 C 0.59837 0.7776 0.96279 0.0
C3796 C 0.56069 0.81836 0.97049 0.0
C3797 C 0.59328 0.74794 0.96131 0.0
C3798 C 0.55787 0.93224 0.9684 0.0
C3799 C 0.55792 0.90424 0.96865 0.0
C3800 C 0.60402 0.8694 0.96342 0.0
C3801 C 0.57347 0.7822 0.96441 0.0
C3802 C 0.57861 0.81397 0.96582 0.0
C3803 C 0.58592 0.90375 0.96845 0.0
C3804 C 0.58523 0.87347 0.96791 0.0
H3805 H 0.51476 0.70723 0.96313 0.0
H3806 H 0.52348 0.75869 0.96564 0.0
H3807 H 0.61473 0.83769 0.95869 0.0
H3808 H 0.63582 0.98202 0.9678 0.0
H3809 H 0.63602 0.93275 0.96822 0.0
C3810 C 0.15941 0.66673 0.96591 0.0
C3811 C 0.13092 0.66622 0.96552 0.0
C3812 C 0.18743 0.69472 0.96612 0.0
C3813 C 0.22203 0.77641 0.96124 0.0
H3814 H 0.29322 0.7841 0.97049 0.0
C3815 C 0.34806 0.86796 0.95452 0.0
C3816 C 0.37037 0.88142 0.95943 0.0
C3817 C 0.31801 0.84386 0.95587 0.0
C3818 C 0.27359 0.78266 0.96793 0.0
H3819 H 0.10963 0.69499 0.96529 0.0
H3820 H 0.15886 0.74422 0.96571 0.0
H3821 H 0.24229 0.73904 0.97226 0.0
H3822 H 0.37811 0.87983 0.96964 0.0
H3823 H 0.32564 0.83845 0.97201 0.0
H3824 H 0.25337 0.82015 0.95694 0.0
C3825 C 0.15937 0.72275 0.96579 0.0
C3826 C 0.24434 0.75655 0.9689 0.0
C3827 C 0.13113 0.69455 0.96562 0.0
C3828 C 0.36158 0.87031 0.96574 0.0
C3829 C 0.3315 0.84626 0.96709 0.0
C3830 C 0.25132 0.80259 0.96029 0.0
C3831 C 0.18792 0.72316 0.96592 0.0
C3832 C 0.21824 0.75274 0.96547 0.0
C3833 C 0.30931 0.83253 0.96216 0.0
C3834 C 0.27764 0.80583 0.96353 0.0
H3835 H 0.16019 0.64539 0.96586 0.0
H3836 H 0.20881 0.69396 0.96614 0.0
H3837 H 0.20258 0.77423 0.95849 0.0
H3838 H 0.35373 0.87612 0.94962 0.0
H3839 H 0.30178 0.8337 0.95193 0.0
C3840 C 0.23373 0.54797 0.96194 0.0
C3841 C 0.20508 0.5238 0.95972 0.0
C3842 C 0.25843 0.54281 0.96325 0.0
C3843 C 0.28776 0.48873 0.95969 0.0
H3844 H 0.34421 0.53238 0.9737 0.0
C3845 C 0.39441 0.47389 0.96521 0.0
C3846 C 0.4224 0.50189 0.96608 0.0
C3847 C 0.36588 0.47341 0.96524 0.0
C3848 C 0.32874 0.52006 0.96975 0.0
H3849 H 0.17997 0.47492 0.95731 0.0
H3850 H 0.22291 0.46592 0.95964 0.0
H3851 H 0.29867 0.53786 0.97207 0.0
H3852 H 0.44214 0.55096 0.968 0.0
H3853 H 0.3929 0.55006 0.96811 0.0
H3854 H 0.31817 0.47126 0.95733 0.0
C3855 C 0.22649 0.48906 0.96025 0.0
C3856 C 0.30262 0.5233 0.9688 0.0
C3857 C 0.20179 0.49424 0.95892 0.0
C3858 C 0.42105 0.52896 0.96732 0.0
C3859 C 0.3927 0.52843 0.96741 0.0
C3860 C 0.3139 0.48543 0.96066 0.0
C3861 C 0.25524 0.5133 0.96242 0.0
C3862 C 0.28199 0.50812 0.96369 0.0
C3863 C 0.36473 0.50083 0.96622 0.0
C3864 C 0.33506 0.50148 0.96563 0.0
H3865 H 0.23738 0.57115 0.96251 0.0
H3866 H 0.28031 0.56224 0.9648 0.0
H3867 H 0.27269 0.4769 0.95566 0.0
H3868 H 0.39466 0.4527 0.9642 0.0
H3869 H 0.34477 0.45168 0.96437 0.0
C3870 C 0.74184 0.58132 0.55311 0.0
C3871 C 0.71738 0.55118 0.5544 0.0
C3872 C 0.77212 0.58695 0.55209 0.0
C3873 C 0.82127 0.5516 0.55525 0.0
H3874 H 0.87677 0.61012 0.54258 0.0
C3875 C 0.93143 0.55151 0.54809 0.0
C3876 C 0.9595 0.57987 0.54811 0.0
C3877 C 0.90302 0.55064 0.54832 0.0
C3878 C 0.86162 0.59394 0.54618 0.0
H3879 H 0.70549 0.50316 0.55531 0.0
H3880 H 0.75785 0.51279 0.55347 0.0
H3881 H 0.82473 0.60319 0.54407 0.0
H3882 H 0.97966 0.62972 0.548 0.0
H3883 H 0.92937 0.62823 0.54838 0.0
H3884 H 0.85771 0.54199 0.55731 0.0
C3885 C 0.75397 0.53232 0.55343 0.0
C3886 C 0.8318 0.58996 0.54704 0.0
C3887 C 0.72383 0.52675 0.55448 0.0
C3888 C 0.95841 0.60753 0.54795 0.0
C3889 C 0.92965 0.60665 0.54819 0.0
C3890 C 0.85082 0.55545 0.55437 0.0
C3891 C 0.77866 0.56254 0.55231 0.0
C3892 C 0.81104 0.56831 0.55153 0.0
C3893 C 0.9017 0.5781 0.5486 0.0
C3894 C 0.8712 0.57624 0.54975 0.0
H3895 H 0.73775 0.60073 0.55306 0.0
H3896 H 0.79052 0.61054 0.5513 0.0
H3897 H 0.80642 0.53542 0.55888 0.0
H3898 H 0.9314 0.52975 0.54812 0.0
H3899 H 0.88196 0.52827 0.54846 0.0
C3900 C 0.49994 0.19647 0.55142 0.0
C3901 C 0.53025 0.20263 0.55277 0.0
C3902 C 0.49428 0.22054 0.54976 0.0
C3903 C 0.53376 0.30146 0.5436 0.0
H3904 H 0.46579 0.30619 0.55155 0.0
C3905 C 0.53238 0.41561 0.54561 0.0
C3906 C 0.50427 0.41586 0.54532 0.0
C3907 C 0.53281 0.38783 0.54537 0.0
C3908 C 0.48453 0.30497 0.54919 0.0
H3909 H 0.57841 0.23905 0.55325 0.0
H3910 H 0.56859 0.28079 0.55042 0.0
H3911 H 0.47178 0.26104 0.55349 0.0
H3912 H 0.45449 0.38703 0.54436 0.0
H3913 H 0.45513 0.33797 0.54393 0.0
H3914 H 0.54689 0.34552 0.53939 0.0
C3915 C 0.54913 0.25737 0.55062 0.0
C3916 C 0.48802 0.27907 0.55031 0.0
C3917 C 0.55474 0.23342 0.55233 0.0
C3918 C 0.47653 0.38759 0.54452 0.0
C3919 C 0.47691 0.35951 0.54435 0.0
C3920 C 0.53023 0.32723 0.54247 0.0
C3921 C 0.51883 0.25134 0.54933 0.0
C3922 C 0.51314 0.27732 0.54765 0.0
C3923 C 0.50509 0.35928 0.54489 0.0
C3924 C 0.50603 0.32976 0.54537 0.0
H3925 H 0.48049 0.17309 0.55176 0.0
H3926 H 0.47068 0.21499 0.54876 0.0
H3927 H 0.55296 0.30062 0.54135 0.0
H3928 H 0.55416 0.437 0.54625 0.0
H3929 H 0.55491 0.38874 0.54589 0.0
C3930 C 0.87001 0.33935 0.56078 0.0
C3931 C 0.88221 0.36026 0.55561 0.0
C3932 C 0.84583 0.30896 0.55984 0.0
C3933 C 0.80467 0.24782 0.54755 0.0
H3934 H 0.73883 0.21521 0.56021 0.0
C3935 C 0.68748 0.13045 0.54471 0.0
C3936 C 0.67368 0.11402 0.55037 0.0
C3937 C 0.71494 0.15942 0.54499 0.0
C3938 C 0.7572 0.22362 0.55667 0.0
H3939 H 0.87836 0.36497 0.54534 0.0
H3940 H 0.83628 0.3118 0.54371 0.0
H3941 H 0.78214 0.26751 0.56137 0.0
H3942 H 0.67863 0.11373 0.56068 0.0
H3943 H 0.72675 0.16307 0.56118 0.0
H3944 H 0.77948 0.20364 0.54285 0.0
C3945 C 0.84568 0.31902 0.5485 0.0
C3946 C 0.7821 0.25379 0.55734 0.0
C3947 C 0.86985 0.34956 0.54944 0.0
C3948 C 0.68875 0.12598 0.55625 0.0
C3949 C 0.71617 0.15451 0.55653 0.0
C3950 C 0.77969 0.21742 0.54689 0.0
C3951 C 0.83311 0.2984 0.5537 0.0
C3952 C 0.80633 0.26629 0.55282 0.0
C3953 C 0.72906 0.1723 0.55095 0.0
C3954 C 0.75574 0.20478 0.55148 0.0
H3955 H 0.87932 0.34636 0.56558 0.0
H3956 H 0.83721 0.2936 0.56395 0.0
H3957 H 0.82301 0.25663 0.54399 0.0
H3958 H 0.67602 0.12193 0.54013 0.0
H3959 H 0.7241 0.1724 0.54059 0.0
C3960 C 0.15831 0.46494 0.3782 0.0
C3961 C 0.15581 0.44873 0.38389 0.0
C3962 C 0.16002 0.49399 0.37844 0.0
C3963 C 0.18302 0.55868 0.39 0.0
H3964 H 0.14992 0.59167 0.37738 0.0
C3965 C 0.18697 0.67473 0.39411 0.0
C3966 C 0.19588 0.69564 0.38894 0.0
C3967 C 0.18034 0.64422 0.39317 0.0
C3968 C 0.15952 0.58285 0.38092 0.0
H3969 H 0.15086 0.44886 0.39421 0.0
H3970 H 0.15243 0.49837 0.39463 0.0
H3971 H 0.13997 0.53848 0.37628 0.0
H3972 H 0.20426 0.70026 0.37866 0.0
H3973 H 0.19243 0.64685 0.37703 0.0
H3974 H 0.20253 0.60274 0.39465 0.0
C3975 C 0.15424 0.48958 0.38999 0.0
C3976 C 0.15382 0.55235 0.38029 0.0
C3977 C 0.15295 0.46097 0.38975 0.0
C3978 C 0.19723 0.68483 0.38276 0.0
C3979 C 0.19045 0.65417 0.38181 0.0
C3980 C 0.18856 0.58893 0.39065 0.0
C3981 C 0.15909 0.50715 0.38438 0.0
C3982 C 0.16523 0.53973 0.38487 0.0
C3983 C 0.18229 0.63358 0.38703 0.0
C3984 C 0.1767 0.6014 0.38616 0.0
H3985 H 0.161 0.45616 0.37363 0.0
H3986 H 0.16378 0.50682 0.37402 0.0
H3987 H 0.19307 0.55026 0.39353 0.0
H3988 H 0.18489 0.68184 0.39891 0.0
H3989 H 0.17352 0.62886 0.39728 0.0
C3990 C 0.62324 0.72639 0.38989 0.0
C3991 C 0.63534 0.74118 0.384 0.0
C3992 C 0.59493 0.69872 0.39017 0.0
C3993 C 0.53307 0.63417 0.3805 0.0
H3994 H 0.48217 0.63055 0.39495 0.0
C3995 C 0.4008 0.54307 0.38313 0.0
C3996 C 0.39034 0.53081 0.38931 0.0
C3997 C 0.43141 0.56708 0.38213 0.0
C3998 C 0.49613 0.63094 0.39092 0.0
H3999 H 0.62793 0.73812 0.37373 0.0
H4000 H 0.57774 0.68971 0.3742 0.0
H4001 H 0.534 0.67466 0.39378 0.0
H4002 H 0.40482 0.53333 0.39923 0.0
H4003 H 0.4577 0.57518 0.39752 0.0
H4004 H 0.49441 0.59042 0.37761 0.0
C4005 C 0.59047 0.69925 0.37861 0.0
C4006 C 0.52605 0.65629 0.39025 0.0
C4007 C 0.61925 0.72693 0.37833 0.0
C4008 C 0.41165 0.54261 0.39443 0.0
C4009 C 0.44209 0.56663 0.39344 0.0
C4010 C 0.50287 0.60876 0.38116 0.0
C4011 C 0.57747 0.68531 0.38457 0.0
C4012 C 0.5452 0.65818 0.38509 0.0
C4013 C 0.45229 0.57954 0.38731 0.0
C4014 C 0.48416 0.60668 0.38642 0.0
H4015 H 0.63527 0.73679 0.39433 0.0
H4016 H 0.58634 0.6883 0.39483 0.0
H4017 H 0.54707 0.63469 0.37648 0.0
H4018 H 0.38507 0.53483 0.37907 0.0
H4019 H 0.43841 0.57659 0.37735 0.0
C4020 C 0.36776 0.94767 0.38218 0.0
C4021 C 0.33975 0.9196 0.38144 0.0
C4022 C 0.39623 0.94802 0.38218 0.0
C4023 C 0.43329 0.90213 0.37749 0.0
H4024 H 0.48702 0.94016 0.39217 0.0
C4025 C 0.52453 0.86884 0.38492 0.0
C4026 C 0.55274 0.89134 0.38765 0.0
C4027 C 0.50076 0.8754 0.38365 0.0
C4028 C 0.47267 0.92985 0.38797 0.0
H4029 H 0.3196 0.8703 0.37983 0.0
H4030 H 0.36888 0.87104 0.37965 0.0
H4031 H 0.44243 0.94737 0.3905 0.0
H4032 H 0.57812 0.93871 0.39108 0.0
H4033 H 0.53687 0.95036 0.38877 0.0
H4034 H 0.46319 0.88447 0.37495 0.0
C4035 C 0.36911 0.89274 0.38027 0.0
C4036 C 0.44706 0.93403 0.38701 0.0
C4037 C 0.34083 0.8923 0.38039 0.0
C4038 C 0.55658 0.9207 0.38904 0.0
C4039 C 0.53284 0.92736 0.38773 0.0
C4040 C 0.45899 0.89818 0.37841 0.0
C4041 C 0.39715 0.92043 0.3813 0.0
C4042 C 0.42667 0.91964 0.38184 0.0
C4043 C 0.50452 0.90477 0.38502 0.0
C4044 C 0.47869 0.91136 0.38375 0.0
H4045 H 0.36755 0.96897 0.38308 0.0
H4046 H 0.41747 0.96975 0.38297 0.0
H4047 H 0.41827 0.89106 0.37341 0.0
H4048 H 0.5205 0.84581 0.38389 0.0
H4049 H 0.47914 0.8571 0.38171 0.0
C4050 C 0.02926 0.88047 0.79619 0.0
C4051 C 0.03293 0.85607 0.79381 0.0
C4052 C 0.99972 0.87604 0.79753 0.0
C4053 C 0.91753 0.81603 0.80057 0.0
H4054 H 0.9012 0.8807 0.79499 0.0
C4055 C 0.79347 0.80216 0.79976 0.0
C4056 C 0.79135 0.82898 0.80066 0.0
C4057 C 0.82261 0.80394 0.79972 0.0
C4058 C 0.90536 0.86258 0.7967 0.0
H4059 H 1.00808 0.80748 0.79116 0.0
H4060 H 0.95652 0.79985 0.79344 0.0
H4061 H 0.95223 0.88682 0.79334 0.0
H4062 H 0.81755 0.8781 0.80268 0.0
H4063 H 0.86784 0.88101 0.80296 0.0
H4064 H 0.87042 0.79175 0.80392 0.0
C4065 C 0.97659 0.82243 0.79429 0.0
C4066 C 0.93477 0.8661 0.79573 0.0
C4067 C 1.00618 0.82691 0.79292 0.0
C4068 C 0.81853 0.85705 0.80198 0.0
C4069 C 0.84743 0.85876 0.80204 0.0
C4070 C 0.88801 0.81255 0.80158 0.0
C4071 C 0.97292 0.84705 0.79655 0.0
C4072 C 0.94136 0.84296 0.79766 0.0
C4073 C 0.85012 0.83256 0.80064 0.0
C4074 C 0.88153 0.83587 0.79968 0.0
H4075 H 0.04922 0.9033 0.79689 0.0
H4076 H 0.99787 0.89545 0.79933 0.0
H4077 H 0.92183 0.7978 0.80216 0.0
H4078 H 0.77294 0.78035 0.7986 0.0
H4079 H 0.82365 0.78326 0.7986 0.0
C4080 C 0.22628 0.99803 0.80004 0.0
C4081 C 0.25313 0.99679 0.79846 0.0
C4082 C 0.22646 0.02618 0.80007 0.0
C4083 C 0.26548 0.10288 0.79249 0.0
H4084 H 0.21851 0.12094 0.80487 0.0
C4085 C 0.25371 0.21316 0.79049 0.0
C4086 C 0.22476 0.21005 0.79207 0.0
C4087 C 0.26003 0.18918 0.79177 0.0
C4088 C 0.23147 0.11618 0.80132 0.0
H4089 H 0.30157 0.02446 0.79585 0.0
H4090 H 0.30192 0.07399 0.79588 0.0
H4091 H 0.22525 0.07621 0.80647 0.0
H4092 H 0.17963 0.17878 0.79615 0.0
H4093 H 0.19039 0.13706 0.7983 0.0
H4094 H 0.27091 0.14225 0.78723 0.0
C4095 C 0.28069 0.05297 0.7971 0.0
C4096 C 0.23548 0.09054 0.80226 0.0
C4097 C 0.28061 0.02468 0.79715 0.0
C4098 C 0.20237 0.1823 0.79497 0.0
C4099 C 0.20861 0.1583 0.79622 0.0
C4100 C 0.2613 0.12846 0.79152 0.0
C4101 C 0.25342 0.05397 0.79845 0.0
C4102 C 0.25213 0.08324 0.79781 0.0
C4103 C 0.23753 0.16131 0.79464 0.0
C4104 C 0.2438 0.13523 0.79587 0.0
H4105 H 0.20468 0.97696 0.80105 0.0
H4106 H 0.20496 0.0259 0.80108 0.0
H4107 H 0.2781 0.09777 0.78891 0.0
H4108 H 0.27169 0.23431 0.78833 0.0
H4109 H 0.28273 0.19267 0.79057 0.0
C4110 C 0.06056 0.27708 0.80114 0.0
C4111 C 0.07512 0.29209 0.7954 0.0
C4112 C 0.03345 0.2478 0.80097 0.0
C4113 C 0.99452 0.18057 0.78992 0.0
H4114 H 0.92522 0.15004 0.80173 0.0
C4115 C 0.88315 0.06444 0.78555 0.0
C4116 C 0.86957 0.04434 0.7908 0.0
C4117 C 0.90697 0.09498 0.78647 0.0
C4118 C 0.94456 0.15817 0.79843 0.0
H4119 H 0.07171 0.28964 0.78504 0.0
H4120 H 0.02428 0.23972 0.78472 0.0
H4121 H 0.96828 0.20344 0.80273 0.0
H4122 H 0.8704 0.04119 0.80119 0.0
H4123 H 0.91193 0.09471 0.80278 0.0
H4124 H 0.97108 0.13566 0.78561 0.0
C4125 C 0.03405 0.24963 0.78936 0.0
C4126 C 0.96923 0.18878 0.79901 0.0
C4127 C 0.0611 0.27845 0.78953 0.0
C4128 C 0.88008 0.05599 0.79702 0.0
C4129 C 0.90391 0.0867 0.79794 0.0
C4130 C 0.96995 0.15021 0.78934 0.0
C4131 C 0.02049 0.23325 0.79505 0.0
C4132 C 0.99437 0.2005 0.79469 0.0
C4133 C 0.91793 0.10647 0.79266 0.0
C4134 C 0.94445 0.13866 0.79353 0.0
H4135 H 0.07115 0.28699 0.80572 0.0
H4136 H 0.02366 0.2359 0.80545 0.0
H4137 H 0.01385 0.18833 0.78663 0.0
H4138 H 0.87523 0.05667 0.7807 0.0
H4139 H 0.91675 0.1097 0.7823 0.0
C4140 C 0.22605 0.05989 0.29652 0.0
C4141 C 0.22916 0.04966 0.2904 0.0
C4142 C 0.23301 0.09061 0.29749 0.0
C4143 C 0.23798 0.15692 0.28852 0.0
H4144 H 0.28097 0.20548 0.30354 0.0
C4145 C 0.27038 0.28424 0.28992 0.0
C4146 C 0.26608 0.29553 0.29577 0.0
C4147 C 0.26964 0.25587 0.28962 0.0
C4148 C 0.26867 0.19216 0.29934 0.0
H4149 H 0.24375 0.06462 0.2806 0.0
H4150 H 0.25545 0.11771 0.28228 0.0
H4151 H 0.27202 0.15268 0.30238 0.0
H4152 H 0.25857 0.28652 0.30596 0.0
H4153 H 0.25666 0.23632 0.30546 0.0
H4154 H 0.23385 0.19564 0.28551 0.0
C4155 C 0.24709 0.10185 0.28631 0.0
C4156 C 0.26357 0.16187 0.29868 0.0
C4157 C 0.24029 0.07129 0.28534 0.0
C4158 C 0.26245 0.27853 0.3014 0.0
C4159 C 0.26126 0.24972 0.3011 0.0
C4160 C 0.24288 0.18695 0.2892 0.0
C4161 C 0.24312 0.11186 0.29237 0.0
C4162 C 0.24838 0.14396 0.29322 0.0
C4163 C 0.26384 0.23754 0.29516 0.0
C4164 C 0.25859 0.20524 0.29458 0.0
H4165 H 0.21728 0.04393 0.30052 0.0
H4166 H 0.22946 0.09742 0.30221 0.0
H4167 H 0.22555 0.14362 0.28433 0.0
H4168 H 0.2733 0.29695 0.28551 0.0
H4169 H 0.27273 0.24792 0.28499 0.0
C4170 C 0.01522 0.21008 0.29731 0.0
C4171 C 0.02898 0.21511 0.29119 0.0
C4172 C 0.98423 0.1869 0.29829 0.0
C4173 C 0.91046 0.13761 0.28947 0.0
H4174 H 0.88812 0.08354 0.30429 0.0
C4175 C 0.80134 0.0174 0.28992 0.0
C4176 C 0.78449 1.00543 0.29563 0.0
C4177 C 0.82885 0.04587 0.28984 0.0
C4178 C 0.89378 0.09876 0.30018 0.0
H4179 H 0.02059 0.1988 0.28133 0.0
H4180 H 0.9669 0.15892 0.28301 0.0
H4181 H 0.94095 0.12729 0.30327 0.0
H4182 H 0.78294 0.01456 0.30575 0.0
H4183 H 0.83155 0.06483 0.30563 0.0
H4184 H 0.8636 0.10887 0.28631 0.0
C4185 C 0.97986 0.17324 0.28705 0.0
C4186 C 0.92415 0.12385 0.29959 0.0
C4187 C 1.01078 0.19626 0.28608 0.0
C4188 C 0.79531 0.02328 0.30126 0.0
C4189 C 0.82329 0.05188 0.3012 0.0
C4190 C 0.88019 0.11264 0.29007 0.0
C4191 C 0.96608 0.1682 0.29316 0.0
C4192 C 0.9331 0.14319 0.29414 0.0
C4193 C 0.8406 0.06334 0.29549 0.0
C4194 C 0.87158 0.09239 0.29535 0.0
H4195 H 0.02825 0.22431 0.30135 0.0
H4196 H 0.97436 0.18392 0.30305 0.0
H4197 H 0.91621 0.15239 0.28528 0.0
H4198 H 0.79364 1.00431 0.28548 0.0
H4199 H 0.84156 0.05358 0.28536 0.0
C4200 C 0.05945 0.81073 0.28988 0.0
C4201 C 0.07468 0.81432 0.29576 0.0
C4202 C 0.03186 0.81163 0.28957 0.0
C4203 C 0.96847 0.81177 0.29923 0.0
H4204 H 0.96417 0.85659 0.28441 0.0
C4205 C 0.87855 0.8544 0.29644 0.0
C4206 C 0.86572 0.852 0.29029 0.0
C4207 C 0.90237 0.84746 0.29743 0.0
C4208 C 0.96472 0.84369 0.28854 0.0
H4209 H 0.07252 0.82066 0.30598 0.0
H4210 H 0.02428 0.82284 0.30546 0.0
H4211 H 1.00785 0.8481 0.28561 0.0
H4212 H 0.86713 0.83871 0.28043 0.0
H4213 H 0.90862 0.82705 0.28213 0.0
H4214 H 0.92536 0.80812 0.3022 0.0
C4215 C 0.03336 0.81871 0.30108 0.0
C4216 C 0.98984 0.83868 0.28924 0.0
C4217 C 0.06094 0.81735 0.3014 0.0
C4218 C 0.87684 0.84162 0.2852 0.0
C4219 C 0.90067 0.83484 0.28618 0.0
C4220 C 0.9433 0.81698 0.29856 0.0
C4221 C 0.01899 0.81688 0.29512 0.0
C4222 C 0.99201 0.82234 0.29455 0.0
C4223 C 0.9141 0.83807 0.29228 0.0
C4224 C 0.94097 0.83277 0.29316 0.0
H4225 H 0.0695 0.80828 0.28546 0.0
H4226 H 0.02111 0.80911 0.28492 0.0
H4227 H 0.96918 0.79899 0.30338 0.0
H4228 H 0.87088 0.86258 0.30047 0.0
H4229 H 0.9123 0.85044 0.30218 0.0
C4230 C 0.39045 0.86166 0.8851 0.0
C4231 C 0.38556 0.88558 0.88731 0.0
C4232 C 0.42038 0.8674 0.88362 0.0
C4233 C 0.50419 0.92388 0.88653 0.0
H4234 H 0.51605 0.87896 0.87266 0.0
C4235 C 0.6263 0.94226 0.88016 0.0
C4236 C 0.62722 0.91465 0.87953 0.0
C4237 C 0.59767 0.94162 0.88025 0.0
C4238 C 0.51319 0.89168 0.87656 0.0
H4239 H 0.4087 0.93463 0.88953 0.0
H4240 H 0.46071 0.94468 0.88692 0.0
H4241 H 0.46466 0.872 0.87463 0.0
H4242 H 0.59908 0.86503 0.8782 0.0
H4243 H 0.54966 0.86396 0.87821 0.0
H4244 H 0.55277 0.94333 0.88848 0.0
C4245 C 0.44146 0.92126 0.88644 0.0
C4246 C 0.48359 0.88756 0.87772 0.0
C4247 C 0.41152 0.91548 0.88795 0.0
C4248 C 0.59916 0.88675 0.87864 0.0
C4249 C 0.57075 0.88615 0.87864 0.0
C4250 C 0.53385 0.9281 0.88535 0.0
C4251 C 0.4464 0.89729 0.88427 0.0
C4252 C 0.47847 0.90319 0.88279 0.0
C4253 C 0.56946 0.91341 0.87962 0.0
C4254 C 0.53868 0.91166 0.88042 0.0
H4255 H 0.37118 0.83824 0.88464 0.0
H4256 H 0.42313 0.84814 0.88209 0.0
H4257 H 0.50128 0.9361 0.89053 0.0
H4258 H 0.64748 0.96402 0.88097 0.0
H4259 H 0.59758 0.9631 0.88097 0.0
C4260 C 0.13844 0.71703 0.88159 0.0
C4261 C 0.1663 0.74559 0.88158 0.0
C4262 C 0.13901 0.68904 0.88149 0.0
C4263 C 0.19007 0.65604 0.87782 0.0
H4264 H 0.14237 0.59485 0.89081 0.0
C4265 C 0.2202 0.56264 0.88549 0.0
C4266 C 0.19616 0.533 0.88724 0.0
C4267 C 0.21412 0.58674 0.88423 0.0
C4268 C 0.15552 0.61138 0.88708 0.0
H4269 H 0.21641 0.76716 0.88114 0.0
H4270 H 0.21736 0.71892 0.88084 0.0
H4271 H 0.135 0.63936 0.88926 0.0
H4272 H 0.14656 0.50553 0.88886 0.0
H4273 H 0.1359 0.54739 0.88662 0.0
H4274 H 0.2108 0.62842 0.87565 0.0
C4275 C 0.19506 0.71783 0.88095 0.0
C4276 C 0.15123 0.63694 0.88619 0.0
C4277 C 0.19451 0.74556 0.88116 0.0
C4278 C 0.16577 0.52813 0.88763 0.0
C4279 C 0.15965 0.55222 0.88634 0.0
C4280 C 0.19423 0.63046 0.87868 0.0
C4281 C 0.16742 0.68915 0.88125 0.0
C4282 C 0.16892 0.65994 0.88164 0.0
C4283 C 0.18375 0.58195 0.88464 0.0
C4284 C 0.1775 0.60803 0.88341 0.0
H4285 H 0.11639 0.71633 0.88197 0.0
H4286 H 0.11728 0.66733 0.88168 0.0
H4287 H 0.20376 0.67305 0.87421 0.0
H4288 H 0.24395 0.56746 0.88524 0.0
H4289 H 0.23345 0.60937 0.88307 0.0
C4290 C 0.33458 0.48531 0.87866 0.0
C4291 C 0.3349 0.45732 0.87911 0.0
C4292 C 0.36223 0.51373 0.87847 0.0
C4293 C 0.44301 0.55036 0.88397 0.0
H4294 H 0.45219 0.62 0.87393 0.0
C4295 C 0.55235 0.67268 0.88612 0.0
C4296 C 0.54778 0.69838 0.88596 0.0
C4297 C 0.5281 0.64286 0.88464 0.0
C4298 C 0.44994 0.60093 0.87682 0.0
H4299 H 0.36462 0.43717 0.87955 0.0
H4300 H 0.41334 0.48713 0.87923 0.0
H4301 H 0.40746 0.56867 0.87217 0.0
H4302 H 0.51373 0.71249 0.88412 0.0
H4303 H 0.47151 0.6607 0.8816 0.0
H4304 H 0.48496 0.58271 0.88876 0.0
C4305 C 0.3915 0.48696 0.87901 0.0
C4306 C 0.42431 0.57139 0.87579 0.0
C4307 C 0.36365 0.45833 0.8791 0.0
C4308 C 0.51831 0.6934 0.88421 0.0
C4309 C 0.49403 0.66358 0.88275 0.0
C4310 C 0.4686 0.57997 0.88503 0.0
C4311 C 0.3911 0.51506 0.87881 0.0
C4312 C 0.42021 0.54577 0.87941 0.0
C4313 C 0.4985 0.6378 0.88295 0.0
C4314 C 0.47223 0.60582 0.88154 0.0
H4315 H 0.31279 0.48531 0.8787 0.0
H4316 H 0.36089 0.53477 0.87838 0.0
H4317 H 0.44043 0.5313 0.88691 0.0
H4318 H 0.57483 0.67563 0.88735 0.0
H4319 H 0.53271 0.6238 0.88475 0.0
C4320 C 0.82633 0.79438 0.70883 0.0
C4321 C 0.83009 0.78231 0.71465 0.0
C4322 C 0.82818 0.8236 0.70871 0.0
C4323 C 0.86438 0.89572 0.71825 0.0
H4324 H 0.81003 0.91847 0.70944 0.0
C4325 C 0.86291 1.00634 0.72493 0.0
C4326 C 0.86276 0.02547 0.71998 0.0
C4327 C 0.858 0.97672 0.7236 0.0
C4328 C 0.82561 0.91251 0.71186 0.0
H4329 H 0.83626 0.79014 0.72493 0.0
H4330 H 0.83847 0.83969 0.72474 0.0
H4331 H 0.80214 0.8659 0.70817 0.0
H4332 H 0.85661 0.02774 0.70971 0.0
H4333 H 0.84764 0.97569 0.70742 0.0
H4334 H 0.8876 0.94173 0.72203 0.0
C4335 C 0.83514 0.82751 0.72024 0.0
C4336 C 0.8211 0.88245 0.71113 0.0
C4337 C 0.83359 0.79887 0.72035 0.0
C4338 C 0.85668 0.01367 0.71366 0.0
C4339 C 0.85156 0.98382 0.71234 0.0
C4340 C 0.8688 0.92548 0.71899 0.0
C4341 C 0.83371 0.8409 0.71442 0.0
C4342 C 0.83998 0.8735 0.71446 0.0
C4343 C 0.85263 0.96517 0.71728 0.0
C4344 C 0.84906 0.93411 0.71595 0.0
H4345 H 0.82375 0.78217 0.70437 0.0
H4346 H 0.8268 0.83326 0.70415 0.0
H4347 H 0.8799 0.88991 0.72075 0.0
H4348 H 0.86664 0.01413 0.72987 0.0
H4349 H 0.85831 0.96274 0.72755 0.0
C4350 C 0.05827 0.89275 0.71904 0.0
C4351 C 0.05277 0.86312 0.72075 0.0
C4352 C 0.08843 0.91698 0.71782 0.0
C4353 C 0.17183 0.94186 0.72063 0.0
H4354 H 0.18479 1.00388 0.70788 0.0
C4355 C 0.29428 0.04792 0.71504 0.0
C4356 C 0.2949 0.07643 0.71514 0.0
C4357 C 0.26575 0.01988 0.71496 0.0
C4358 C 0.1816 0.98677 0.71146 0.0
H4359 H 0.07503 0.83579 0.72239 0.0
H4360 H 0.12753 0.87786 0.72019 0.0
H4361 H 0.13325 0.95906 0.7093 0.0
H4362 H 0.26626 0.09791 0.71494 0.0
H4363 H 0.21709 0.04959 0.71466 0.0
H4364 H 0.22037 0.96992 0.72278 0.0
C4365 C 0.10856 0.8826 0.71991 0.0
C4366 C 0.15193 0.96108 0.71231 0.0
C4367 C 0.07836 0.85838 0.72117 0.0
C4368 C 0.2666 0.07634 0.71487 0.0
C4369 C 0.23834 0.04857 0.71468 0.0
C4370 C 0.20162 0.96752 0.71974 0.0
C4371 C 0.1141 0.91232 0.71823 0.0
C4372 C 0.14638 0.93852 0.717 0.0
C4373 C 0.23741 0.01992 0.71484 0.0
C4374 C 0.20676 0.99064 0.71523 0.0
H4375 H 0.03927 0.89747 0.71878 0.0
H4376 H 0.09163 0.93959 0.71668 0.0
H4377 H 0.16859 0.92525 0.72433 0.0
H4378 H 0.31569 0.04727 0.71531 0.0
H4379 H 0.26584 0.9982 0.71506 0.0
C4380 C 0.22244 0.24796 0.72132 0.0
C4381 C 0.21685 0.2176 0.72227 0.0
C4382 C 0.19781 0.25357 0.72022 0.0
C4383 C 0.11232 0.21645 0.72245 0.0
H4384 H 0.11809 0.27888 0.7105 0.0
C4385 C 1.00334 0.21778 0.71467 0.0
C4386 C 1.00333 0.24597 0.71494 0.0
C4387 C 0.03094 0.21705 0.71506 0.0
C4388 C 0.11626 0.26158 0.7139 0.0
H4389 H 0.1809 0.16928 0.72251 0.0
H4390 H 0.13826 0.1789 0.72052 0.0
H4391 H 0.16312 0.27201 0.71221 0.0
H4392 H 0.03268 0.29578 0.71548 0.0
H4393 H 0.08159 0.29456 0.71615 0.0
H4394 H 0.06558 0.2057 0.72409 0.0
C4395 C 0.16155 0.19858 0.72081 0.0
C4396 C 0.14206 0.25762 0.71489 0.0
C4397 C 0.18608 0.19301 0.72194 0.0
C4398 C 0.03197 0.27373 0.71521 0.0
C4399 C 0.05991 0.27299 0.71562 0.0
C4400 C 0.08667 0.22029 0.72144 0.0
C4401 C 0.16694 0.22896 0.72001 0.0
C4402 C 0.14026 0.23462 0.71911 0.0
C4403 C 0.05952 0.24448 0.71578 0.0
C4404 C 0.08805 0.2425 0.71707 0.0
H4405 H 0.24582 0.2675 0.72159 0.0
H4406 H 0.20293 0.27728 0.71968 0.0
H4407 H 0.11018 0.19915 0.72588 0.0
H4408 H 0.98172 0.19596 0.71437 0.0
H4409 H 0.02979 0.19475 0.71498 0.0
C4410 C 0.70086 0.21571 0.12785 0.0
C4411 C 0.70559 0.19195 0.12548 0.0
C4412 C 0.67086 0.21048 0.12898 0.0
C4413 C 0.58883 0.14902 0.13149 0.0
H4414 H 0.57178 0.21339 0.12604 0.0
C4415 C 0.46429 0.13486 0.131 0.0
C4416 C 0.46242 0.16162 0.13221 0.0
C4417 C 0.49338 0.13653 0.13071 0.0
C4418 C 0.57612 0.1953 0.1277 0.0
H4419 H 0.68212 0.14366 0.12261 0.0
H4420 H 0.62974 0.13463 0.12452 0.0
H4421 H 0.62321 0.22033 0.12449 0.0
H4422 H 0.48908 0.21043 0.13453 0.0
H4423 H 0.5392 0.21312 0.13432 0.0
H4424 H 0.54149 0.12402 0.13472 0.0
C4425 C 0.64934 0.15733 0.12553 0.0
C4426 C 0.60575 0.19931 0.12679 0.0
C4427 C 0.6794 0.16262 0.12437 0.0
C4428 C 0.48984 0.18946 0.13354 0.0
C4429 C 0.51865 0.19106 0.13334 0.0
C4430 C 0.55906 0.14505 0.13244 0.0
C4431 C 0.64465 0.1813 0.12778 0.0
C4432 C 0.61266 0.17638 0.12871 0.0
C4433 C 0.52104 0.16497 0.13168 0.0
C4434 C 0.55238 0.16831 0.13061 0.0
H4435 H 0.72037 0.23865 0.12872 0.0
H4436 H 0.66821 0.2294 0.13079 0.0
H4437 H 0.59335 0.13093 0.13306 0.0
H4438 H 0.44353 0.11319 0.12987 0.0
H4439 H 0.49425 0.11594 0.12941 0.0
C4440 C 0.91772 0.34426 0.12611 0.0
C4441 C 0.92556 0.33315 0.1316 0.0
C4442 C 0.91627 0.37139 0.12631 0.0
C4443 C 0.93876 0.44425 0.13465 0.0
H4444 H 0.8652 0.43463 0.12606 0.0
C4445 C 0.90458 0.54148 0.13235 0.0
C4446 C 0.89431 0.54424 0.1262 0.0
C4447 C 0.91009 0.51706 0.13377 0.0
C4448 C 0.88593 0.43782 0.12845 0.0
H4449 H 0.9398 0.34308 0.14155 0.0
H4450 H 0.937 0.39127 0.14192 0.0
H4451 H 0.87213 0.39002 0.1274 0.0
H4452 H 0.88369 0.52421 0.11664 0.0
H4453 H 0.89262 0.48168 0.11915 0.0
H4454 H 0.95252 0.49247 0.13561 0.0
C4455 C 0.93199 0.37851 0.13746 0.0
C4456 C 0.8899 0.41221 0.12924 0.0
C4457 C 0.93363 0.35101 0.13725 0.0
C4458 C 0.89067 0.52248 0.12148 0.0
C4459 C 0.89591 0.49807 0.12291 0.0
C4460 C 0.93468 0.47009 0.13388 0.0
C4461 C 0.92231 0.38838 0.13202 0.0
C4462 C 0.91677 0.4152 0.13215 0.0
C4463 C 0.90522 0.49472 0.12909 0.0
C4464 C 0.9086 0.46726 0.1306 0.0
H4465 H 0.91188 0.33153 0.12163 0.0
H4466 H 0.90967 0.37874 0.12198 0.0
H4467 H 0.95968 0.4473 0.13692 0.0
H4468 H 0.90748 0.55764 0.13613 0.0
H4469 H 0.91718 0.51508 0.13859 0.0
C4470 C 0.73372 0.614 0.13534 0.0
C4471 C 0.74771 0.62993 0.12964 0.0
C4472 C 0.70641 0.58489 0.1351 0.0
C4473 C 0.66509 0.51956 0.12363 0.0
H4474 H 0.59847 0.48735 0.13612 0.0
C4475 C 0.55272 0.40353 0.11955 0.0
C4476 C 0.54028 0.38291 0.12476 0.0
C4477 C 0.57677 0.434 0.12046 0.0
C4478 C 0.61704 0.49595 0.13262 0.0
H4479 H 0.74317 0.62921 0.1193 0.0
H4480 H 0.69531 0.57963 0.11888 0.0
H4481 H 0.6418 0.54052 0.13719 0.0
H4482 H 0.54354 0.37881 0.13507 0.0
H4483 H 0.5854 0.43215 0.13665 0.0
H4484 H 0.64058 0.4753 0.11906 0.0
C4485 C 0.70566 0.58868 0.12353 0.0
C4486 C 0.6419 0.52644 0.13324 0.0
C4487 C 0.73294 0.61733 0.12377 0.0
C4488 C 0.55225 0.394 0.13094 0.0
C4489 C 0.57629 0.42463 0.13186 0.0
C4490 C 0.64031 0.48931 0.12301 0.0
C4491 C 0.69262 0.57139 0.12916 0.0
C4492 C 0.66613 0.53879 0.1287 0.0
C4493 C 0.58911 0.44493 0.12661 0.0
C4494 C 0.61579 0.47711 0.12746 0.0
H4495 H 0.74492 0.62303 0.13992 0.0
H4496 H 0.6971 0.5723 0.13954 0.0
H4497 H 0.68369 0.52776 0.12015 0.0
H4498 H 0.5437 0.39622 0.11475 0.0
H4499 H 0.5856 0.44913 0.11632 0.0
C4500 C 0.90167 0.4038 0.618 0.0
C4501 C 0.8923 0.38289 0.62318 0.0
C4502 C 0.90827 0.43435 0.61889 0.0
C4503 C 0.92816 0.49569 0.63113 0.0
H4504 H 0.89667 0.52907 0.61825 0.0
C4505 C 0.92981 0.61379 0.63377 0.0
C4506 C 0.93297 0.63035 0.6281 0.0
C4507 C 0.92798 0.58468 0.63352 0.0
C4508 C 0.90616 0.52044 0.62186 0.0
H4509 H 0.88295 0.37832 0.63342 0.0
H4510 H 0.89471 0.43174 0.63497 0.0
H4511 H 0.88705 0.47652 0.61716 0.0
H4512 H 0.93872 0.63065 0.61781 0.0
H4513 H 0.93697 0.58103 0.61736 0.0
H4514 H 0.94731 0.53989 0.63583 0.0
C4515 C 0.89711 0.42442 0.63022 0.0
C4516 C 0.90052 0.49012 0.62123 0.0
C4517 C 0.89037 0.39373 0.62932 0.0
C4518 C 0.93622 0.61832 0.62225 0.0
C4519 C 0.9348 0.58963 0.622 0.0
C4520 C 0.93397 0.52624 0.63175 0.0
C4521 C 0.90583 0.44505 0.625 0.0
C4522 C 0.91159 0.47734 0.62582 0.0
C4523 C 0.9294 0.57175 0.62758 0.0
C4524 C 0.92327 0.53915 0.62708 0.0
H4525 H 0.90421 0.39668 0.61323 0.0
H4526 H 0.91551 0.4497 0.61478 0.0
H4527 H 0.93719 0.48666 0.63475 0.0
H4528 H 0.92671 0.62235 0.63833 0.0
H4529 H 0.92375 0.57163 0.63793 0.0
C4530 C 0.68916 0.53847 0.63207 0.0
C4531 C 0.69913 0.54511 0.62564 0.0
C4532 C 0.6592 0.51453 0.63359 0.0
C4533 C 0.58049 0.46478 0.62671 0.0
H4534 H 0.57138 0.40829 0.64044 0.0
C4535 C 0.46038 0.36006 0.63355 0.0
C4536 C 0.46012 0.33175 0.63387 0.0
C4537 C 0.48866 0.38823 0.63344 0.0
C4538 C 0.57347 0.42392 0.63661 0.0
H4539 H 0.68482 0.53119 0.61578 0.0
H4540 H 0.63269 0.48995 0.61843 0.0
H4541 H 0.62225 0.45317 0.63824 0.0
H4542 H 0.48909 0.31082 0.63463 0.0
H4543 H 0.53806 0.35961 0.6346 0.0
H4544 H 0.53183 0.43503 0.62497 0.0
C4545 C 0.64799 0.50352 0.6223 0.0
C4546 C 0.60263 0.44981 0.63537 0.0
C4547 C 0.67799 0.52731 0.62078 0.0
C4548 C 0.48853 0.33227 0.63443 0.0
C4549 C 0.51665 0.36029 0.63442 0.0
C4550 C 0.55125 0.43903 0.62798 0.0
C4551 C 0.63823 0.49664 0.62873 0.0
C4552 C 0.60667 0.47032 0.63033 0.0
C4553 C 0.51718 0.38863 0.63374 0.0
C4554 C 0.54746 0.41795 0.63288 0.0
H4555 H 0.70441 0.55193 0.63596 0.0
H4556 H 0.65238 0.51018 0.63859 0.0
H4557 H 0.58264 0.48026 0.62284 0.0
H4558 H 0.43887 0.36036 0.63301 0.0
H4559 H 0.48825 0.40966 0.63295 0.0
C4560 C 0.75066 0.19018 0.63266 0.0
C4561 C 0.7498 0.16223 0.63124 0.0
C4562 C 0.72356 0.19199 0.63268 0.0
C4563 C 0.63707 0.14649 0.63224 0.0
H4564 H 0.6477 0.22171 0.62435 0.0
C4565 C 0.53399 0.16426 0.62461 0.0
C4566 C 0.53734 0.19369 0.62569 0.0
C4567 C 0.55875 0.15891 0.62571 0.0
C4568 C 0.6443 0.20072 0.62664 0.0
H4569 H 0.7197 0.11381 0.62897 0.0
H4570 H 0.6719 0.11695 0.62887 0.0
H4571 H 0.69218 0.21452 0.62563 0.0
H4572 H 0.56953 0.24046 0.62885 0.0
H4573 H 0.61246 0.2311 0.63082 0.0
H4574 H 0.58882 0.13264 0.63312 0.0
C4575 C 0.69362 0.13746 0.63008 0.0
C4576 C 0.66991 0.19657 0.62739 0.0
C4577 C 0.72093 0.13557 0.63016 0.0
C4578 C 0.56596 0.21746 0.62801 0.0
C4579 C 0.59073 0.21216 0.62907 0.0
C4580 C 0.61129 0.15062 0.63146 0.0
C4581 C 0.69477 0.166 0.63114 0.0
C4582 C 0.66682 0.16958 0.63027 0.0
C4583 C 0.58758 0.18291 0.62788 0.0
C4584 C 0.61466 0.17794 0.62869 0.0
H4585 H 0.7726 0.21107 0.63356 0.0
H4586 H 0.72537 0.21413 0.63372 0.0
H4587 H 0.63377 0.12548 0.6345 0.0
H4588 H 0.51218 0.14529 0.6229 0.0
H4589 H 0.55551 0.13616 0.62471 0.0
C4590 C 0.0815 0.25459 0.22155 0.0
C4591 C 0.05552 0.22463 0.22106 0.0
C4592 C 0.11144 0.25993 0.22025 0.0
C4593 C 0.1535 0.22401 0.21241 0.0
H4594 H 0.22183 0.28032 0.2233 0.0
C4595 C 0.26563 0.21851 0.21515 0.0
C4596 C 0.29434 0.24607 0.21564 0.0
C4597 C 0.23791 0.21914 0.21489 0.0
C4598 C 0.20313 0.26492 0.22014 0.0
H4599 H 0.04099 0.17675 0.21887 0.0
H4600 H 0.09294 0.18589 0.21668 0.0
H4601 H 0.17062 0.2748 0.22479 0.0
H4602 H 0.3165 0.29605 0.21608 0.0
H4603 H 0.26761 0.29722 0.21569 0.0
H4604 H 0.18582 0.21337 0.20793 0.0
C4605 C 0.09023 0.20551 0.21792 0.0
C4606 C 0.17368 0.26171 0.22099 0.0
C4607 C 0.06032 0.20021 0.2192 0.0
C4608 C 0.29475 0.27448 0.21565 0.0
C4609 C 0.26678 0.2751 0.21549 0.0
C4610 C 0.18284 0.22708 0.21159 0.0
C4611 C 0.11629 0.23544 0.21844 0.0
C4612 C 0.14828 0.24076 0.21722 0.0
C4613 C 0.238 0.24735 0.21518 0.0
C4614 C 0.20791 0.24714 0.21552 0.0
H4615 H 0.07867 0.27404 0.22289 0.0
H4616 H 0.13078 0.28336 0.22061 0.0
H4617 H 0.13482 0.20824 0.2093 0.0
H4618 H 0.26452 0.19622 0.21513 0.0
H4619 H 0.21626 0.19733 0.21472 0.0
C4620 C 0.86562 0.08205 0.21341 0.0
C4621 C 0.83821 0.08197 0.21506 0.0
C4622 C 0.86693 0.05471 0.21348 0.0
C4623 C 0.82007 0.96851 0.21466 0.0
H4624 H 0.89612 0.97878 0.22212 0.0
C4625 C 0.83512 0.86519 0.22312 0.0
C4626 C 0.8639 0.86711 0.22193 0.0
C4627 C 0.83072 0.89036 0.22183 0.0
C4628 C 0.87488 0.97546 0.21995 0.0
H4629 H 0.79013 0.0528 0.2178 0.0
H4630 H 0.79244 1.00477 0.21804 0.0
H4631 H 0.89017 0.02377 0.22049 0.0
H4632 H 0.91055 0.8972 0.21839 0.0
H4633 H 0.90281 0.94083 0.21608 0.0
H4634 H 0.80471 0.91989 0.21425 0.0
C4635 C 0.8129 0.02603 0.21659 0.0
C4636 C 0.87144 1.00136 0.21899 0.0
C4637 C 0.81151 0.05353 0.21644 0.0
C4638 C 0.88801 0.89475 0.21933 0.0
C4639 C 0.88366 0.91992 0.21806 0.0
C4640 C 0.82348 0.94247 0.21565 0.0
C4641 C 0.84098 0.02647 0.21532 0.0
C4642 C 0.84411 0.99837 0.2163 0.0
C4643 C 0.85504 0.91819 0.21934 0.0
C4644 C 0.85103 0.94566 0.21827 0.0
H4645 H 0.88654 0.10357 0.21227 0.0
H4646 H 0.88868 0.05591 0.21228 0.0
H4647 H 0.79878 0.96528 0.21254 0.0
H4648 H 0.8159 0.84417 0.22505 0.0
H4649 H 0.80845 0.88824 0.22291 0.0
C4650 C 0.99888 0.81263 0.21408 0.0
C4651 C 0.99928 0.7852 0.21541 0.0
C4652 C 0.0262 0.84126 0.21419 0.0
C4653 C 0.11261 0.88093 0.21486 0.0
H4654 H 0.10246 0.94531 0.22301 0.0
C4655 C 0.21609 0.99994 0.22309 0.0
C4656 C 0.21325 0.02636 0.22207 0.0
C4657 C 0.19114 0.97016 0.22186 0.0
C4658 C 0.10572 0.92778 0.22065 0.0
H4659 H 0.02877 0.76602 0.21763 0.0
H4660 H 0.07692 0.81644 0.21794 0.0
H4661 H 0.05764 0.89423 0.22147 0.0
H4662 H 0.18179 0.04193 0.21888 0.0
H4663 H 0.13854 0.99022 0.21669 0.0
H4664 H 0.16107 0.91478 0.21417 0.0
C4665 C 0.05542 0.81572 0.21671 0.0
C4666 C 0.07993 0.89837 0.21975 0.0
C4667 C 0.0279 0.78681 0.21652 0.0
C4668 C 0.18495 0.02221 0.21969 0.0
C4669 C 0.16001 0.99248 0.21849 0.0
C4670 C 0.13858 0.91048 0.2158 0.0
C4671 C 0.05472 0.84342 0.21576 0.0
C4672 C 0.08285 0.87456 0.21677 0.0
C4673 C 0.16265 0.96603 0.21962 0.0
C4674 C 0.13538 0.93435 0.21866 0.0
H4675 H 0.97713 0.81203 0.21318 0.0
H4676 H 0.02476 0.86186 0.21323 0.0
H4677 H 0.11578 0.86328 0.21253 0.0
H4678 H 0.23764 1.00225 0.22485 0.0
H4679 H 0.19396 0.95034 0.22282 0.0
loop_
_geom_bond_atom_site_label_1
_geom_bond_atom_site_label_2
_geom_bond_distance
_geom_bond_site_symmetry_2
_ccdc_geom_bond_type
Nd0 C2 2.836 . S
Nd0 O20 2.500 . S
Nd0 O21 2.492 . S
Nd0 O22 2.487 . S
Nd0 O23 2.682 . S
Nd0 O24 2.410 . S
Nd0 O29 2.414 . S
Nd0 O31 2.424 . S
Nd1 C11 2.836 1_545 S
Nd1 O23 2.414 . S
Nd1 O25 2.424 . S
Nd1 O26 2.500 1_545 S
Nd1 O27 2.492 1_545 S
Nd1 O28 2.487 . S
Nd1 O29 2.682 . S
Nd1 O30 2.410 1_545 S
C2 Nd0 2.836 . S
C2 C3 1.498 . S
C2 O20 1.258 . S
C2 O21 1.239 . S
C3 C2 1.498 . S
C3 C4 1.366 . S
C3 C8 1.407 . S
C4 C3 1.366 . S
C4 C5 1.392 . S
C4 H32 0.930 . S
C5 C4 1.392 . S
C5 C6 1.398 . S
C5 H33 0.929 . S
C6 C5 1.398 . S
C6 C7 1.352 . S
C7 C6 1.352 . S
C7 C8 1.384 . S
C7 H34 0.930 . S
C8 C3 1.407 . S
C8 C7 1.384 . S
C8 H35 0.929 . S
C9 O22 1.241 . S
C9 O23 1.273 . S
C10 O24 1.251 . S
C10 O25 1.268 . S
C11 Nd1 2.836 1_565 S
C11 C12 1.498 . S
C11 O26 1.258 . S
C11 O27 1.239 . S
C12 C11 1.498 . S
C12 C13 1.366 . S
C12 C17 1.407 . S
C13 C12 1.366 . S
C13 C14 1.392 . S
C13 H36 0.930 . S
C14 C13 1.392 . S
C14 C15 1.398 . S
C14 H37 0.929 . S
C15 C14 1.398 . S
C15 C16 1.352 . S
C16 C15 1.352 . S
C16 C17 1.384 . S
C16 H38 0.930 . S
C17 C12 1.407 . S
C17 C16 1.384 . S
C17 H39 0.929 . S
C18 O28 1.241 . S
C18 O29 1.273 . S
C19 O30 1.251 . S
C19 O31 1.268 1_565 S
O20 Nd0 2.500 . S
O20 C2 1.258 . S
O21 Nd0 2.492 . S
O21 C2 1.239 . S
O22 Nd0 2.487 . S
O22 C9 1.241 . S
O23 Nd0 2.682 . S
O23 Nd1 2.414 . S
O23 C9 1.273 . S
O24 Nd0 2.410 . S
O24 C10 1.251 . S
O25 Nd1 2.424 . S
O25 C10 1.268 . S
O26 Nd1 2.500 1_565 S
O26 C11 1.258 . S
O27 Nd1 2.492 1_565 S
O27 C11 1.239 . S
O28 Nd1 2.487 . S
O28 C18 1.241 . S
O29 Nd0 2.414 . S
O29 Nd1 2.682 . S
O29 C18 1.273 . S
O30 Nd1 2.410 1_565 S
O30 C19 1.251 . S
O31 Nd0 2.424 . S
O31 C19 1.268 1_545 S
H32 C4 0.930 . S
H33 C5 0.929 . S
H34 C7 0.930 . S
H35 C8 0.929 . S
H36 C13 0.930 . S
H37 C14 0.929 . S
H38 C16 0.930 . S
H39 C17 0.929 . S
Nd40 C42 2.871 . S
Nd40 O60 2.529 . S
Nd40 O61 2.526 . S
Nd40 O62 2.484 1_655 S
Nd40 O63 2.655 1_655 S
Nd40 O64 2.414 . S
Nd40 O69 2.394 1_655 S
Nd40 O71 2.396 1_655 S
Nd41 C51 2.836 . S
Nd41 O63 2.414 . S
Nd41 O65 2.424 1_455 S
Nd41 O66 2.500 . S
Nd41 O67 2.492 . S
Nd41 O68 2.487 . S
Nd41 O69 2.682 . S
Nd41 O70 2.410 . S
C42 Nd40 2.871 . S
C42 C43 1.498 . S
C42 O60 1.258 . S
C42 O61 1.239 . S
C43 C42 1.498 . S
C43 C44 1.366 . S
C43 C48 1.407 . S
C44 C43 1.366 . S
C44 C45 1.392 . S
C44 H72 0.930 . S
C45 C44 1.392 . S
C45 C46 1.398 . S
C45 H73 0.929 . S
C46 C45 1.398 . S
C46 C47 1.352 . S
C47 C46 1.352 . S
C47 C48 1.384 . S
C47 H74 0.930 . S
C48 C43 1.407 . S
C48 C47 1.384 . S
C48 H75 0.929 . S
C49 O62 1.241 . S
C49 O63 1.273 . S
C50 O64 1.251 . S
C50 O65 1.268 . S
C51 Nd41 2.836 . S
C51 C52 1.498 . S
C51 O66 1.258 . S
C51 O67 1.239 . S
C52 C51 1.498 . S
C52 C53 1.366 . S
C52 C57 1.407 . S
C53 C52 1.366 . S
C53 C54 1.392 . S
C53 H76 0.930 . S
C54 C53 1.392 . S
C54 C55 1.398 . S
C54 H77 0.929 . S
C55 C54 1.398 . S
C55 C56 1.352 . S
C56 C55 1.352 . S
C56 C57 1.384 . S
C56 H78 0.930 . S
C57 C52 1.407 . S
C57 C56 1.384 . S
C57 H79 0.929 . S
C58 O68 1.241 . S
C58 O69 1.273 . S
C59 O70 1.251 . S
C59 O71 1.268 . S
O60 Nd40 2.529 . S
O60 C42 1.258 . S
O61 Nd40 2.526 . S
O61 C42 1.239 . S
O62 Nd40 2.484 1_455 S
O62 C49 1.241 . S
O63 Nd40 2.655 1_455 S
O63 Nd41 2.414 . S
O63 C49 1.273 . S
O64 Nd40 2.414 . S
O64 C50 1.251 . S
O65 Nd41 2.424 1_655 S
O65 C50 1.268 . S
O66 Nd41 2.500 . S
O66 C51 1.258 . S
O67 Nd41 2.492 . S
O67 C51 1.239 . S
O68 Nd41 2.487 . S
O68 C58 1.241 . S
O69 Nd40 2.394 1_455 S
O69 Nd41 2.682 . S
O69 C58 1.273 . S
O70 Nd41 2.410 . S
O70 C59 1.251 . S
O71 Nd40 2.396 1_455 S
O71 C59 1.268 . S
H72 C44 0.930 . S
H73 C45 0.929 . S
H74 C47 0.930 . S
H75 C48 0.929 . S
H76 C53 0.930 . S
H77 C54 0.929 . S
H78 C56 0.930 . S
H79 C57 0.929 . S
Nd80 C82 2.836 . S
Nd80 O100 2.500 . S
Nd80 O101 2.492 . S
Nd80 O102 2.487 . S
Nd80 O103 2.682 . S
Nd80 O104 2.410 . S
Nd80 O109 2.414 . S
Nd80 O111 2.424 . S
Nd81 C91 2.836 . S
Nd81 O103 2.414 . S
Nd81 O105 2.424 . S
Nd81 O106 2.500 . S
Nd81 O107 2.492 . S
Nd81 O108 2.487 . S
Nd81 O109 2.682 . S
Nd81 O110 2.410 . S
C82 Nd80 2.836 . S
C82 C83 1.498 . S
C82 O100 1.258 . S
C82 O101 1.239 . S
C83 C82 1.498 . S
C83 C84 1.366 . S
C83 C88 1.407 . S
C84 C83 1.366 . S
C84 C85 1.392 . S
C84 H112 0.930 . S
C85 C84 1.392 . S
C85 C86 1.398 . S
C85 H113 0.929 . S
C86 C85 1.398 . S
C86 C87 1.352 . S
C87 C86 1.352 . S
C87 C88 1.384 . S
C87 H114 0.930 . S
C88 C83 1.407 . S
C88 C87 1.384 . S
C88 H115 0.929 . S
C89 O102 1.241 . S
C89 O103 1.273 . S
C90 O104 1.251 . S
C90 O105 1.268 . S
C91 Nd81 2.836 . S
C91 C92 1.498 . S
C91 O106 1.258 . S
C91 O107 1.239 . S
C92 C91 1.498 . S
C92 C93 1.366 . S
C92 C97 1.407 . S
C93 C92 1.366 . S
C93 C94 1.392 . S
C93 H116 0.930 . S
C94 C93 1.392 . S
C94 C95 1.398 . S
C94 H117 0.929 . S
C95 C94 1.398 . S
C95 C96 1.352 . S
C96 C95 1.352 . S
C96 C97 1.384 . S
C96 H118 0.930 . S
C97 C92 1.407 . S
C97 C96 1.384 . S
C97 H119 0.929 . S
C98 O108 1.241 . S
C98 O109 1.273 . S
C99 O110 1.251 . S
C99 O111 1.268 . S
O100 Nd80 2.500 . S
O100 C82 1.258 . S
O101 Nd80 2.492 . S
O101 C82 1.239 . S
O102 Nd80 2.487 . S
O102 C89 1.241 . S
O103 Nd80 2.682 . S
O103 Nd81 2.414 . S
O103 C89 1.273 . S
O104 Nd80 2.410 . S
O104 C90 1.251 . S
O105 Nd81 2.424 . S
O105 C90 1.268 . S
O106 Nd81 2.500 . S
O106 C91 1.258 . S
O107 Nd81 2.492 . S
O107 C91 1.239 . S
O108 Nd81 2.487 . S
O108 C98 1.241 . S
O109 Nd80 2.414 . S
O109 Nd81 2.682 . S
O109 C98 1.273 . S
O110 Nd81 2.410 . S
O110 C99 1.251 . S
O111 Nd80 2.424 . S
O111 C99 1.268 . S
H112 C84 0.930 . S
H113 C85 0.929 . S
H114 C87 0.930 . S
H115 C88 0.929 . S
H116 C93 0.930 . S
H117 C94 0.929 . S
H118 C96 0.930 . S
H119 C97 0.929 . S
Nd120 C122 2.836 . S
Nd120 O140 2.500 . S
Nd120 O141 2.492 . S
Nd120 O142 2.487 . S
Nd120 O143 2.682 . S
Nd120 O144 2.410 . S
Nd120 O149 2.414 . S
Nd120 O151 2.424 . S
Nd121 C131 2.836 1_455 S
Nd121 O143 2.414 . S
Nd121 O145 2.424 . S
Nd121 O146 2.500 1_455 S
Nd121 O147 2.492 1_455 S
Nd121 O148 2.487 . S
Nd121 O149 2.682 . S
Nd121 O150 2.410 1_455 S
C122 Nd120 2.836 . S
C122 C123 1.498 . S
C122 O140 1.258 . S
C122 O141 1.239 . S
C123 C122 1.498 . S
C123 C124 1.366 . S
C123 C128 1.407 . S
C124 C123 1.366 . S
C124 C125 1.392 . S
C124 H152 0.930 . S
C125 C124 1.392 . S
C125 C126 1.398 . S
C125 H153 0.929 . S
C126 C125 1.398 . S
C126 C127 1.352 . S
C127 C126 1.352 . S
C127 C128 1.384 . S
C127 H154 0.930 . S
C128 C123 1.407 . S
C128 C127 1.384 . S
C128 H155 0.929 . S
C129 O142 1.241 . S
C129 O143 1.273 . S
C130 O144 1.251 . S
C130 O145 1.268 . S
C131 Nd121 2.836 1_655 S
C131 C132 1.498 . S
C131 O146 1.258 . S
C131 O147 1.239 . S
C132 C131 1.498 . S
C132 C133 1.366 . S
C132 C137 1.407 . S
C133 C132 1.366 . S
C133 C134 1.392 . S
C133 H156 0.930 . S
C134 C133 1.392 . S
C134 C135 1.398 . S
C134 H157 0.929 . S
C135 C134 1.398 . S
C135 C136 1.352 . S
C136 C135 1.352 . S
C136 C137 1.384 . S
C136 H158 0.930 . S
C137 C132 1.407 . S
C137 C136 1.384 . S
C137 H159 0.929 . S
C138 O148 1.241 . S
C138 O149 1.273 . S
C139 O150 1.251 . S
C139 O151 1.268 1_655 S
O140 Nd120 2.500 . S
O140 C122 1.258 . S
O141 Nd120 2.492 . S
O141 C122 1.239 . S
O142 Nd120 2.487 . S
O142 C129 1.241 . S
O143 Nd120 2.682 . S
O143 Nd121 2.414 . S
O143 C129 1.273 . S
O144 Nd120 2.410 . S
O144 C130 1.251 . S
O145 Nd121 2.424 . S
O145 C130 1.268 . S
O146 Nd121 2.500 1_655 S
O146 C131 1.258 . S
O147 Nd121 2.492 1_655 S
O147 C131 1.239 . S
O148 Nd121 2.487 . S
O148 C138 1.241 . S
O149 Nd120 2.414 . S
O149 Nd121 2.682 . S
O149 C138 1.273 . S
O150 Nd121 2.410 1_655 S
O150 C139 1.251 . S
O151 Nd120 2.424 . S
O151 C139 1.268 1_455 S
H152 C124 0.930 . S
H153 C125 0.929 . S
H154 C127 0.930 . S
H155 C128 0.929 . S
H156 C133 0.930 . S
H157 C134 0.929 . S
H158 C136 0.930 . S
H159 C137 0.929 . S
Nd160 C162 2.836 . S
Nd160 O180 2.500 . S
Nd160 O181 2.492 . S
Nd160 O182 2.487 . S
Nd160 O183 2.682 . S
Nd160 O184 2.410 . S
Nd160 O189 2.414 . S
Nd160 O191 2.424 . S
Nd161 C171 2.836 . S
Nd161 O183 2.414 . S
Nd161 O185 2.424 . S
Nd161 O186 2.500 . S
Nd161 O187 2.492 . S
Nd161 O188 2.487 . S
Nd161 O189 2.682 . S
Nd161 O190 2.410 . S
C162 Nd160 2.836 . S
C162 C163 1.498 . S
C162 O180 1.258 . S
C162 O181 1.239 . S
C163 C162 1.498 . S
C163 C164 1.366 . S
C163 C168 1.407 . S
C164 C163 1.366 . S
C164 C165 1.392 . S
C164 H192 0.930 . S
C165 C164 1.392 . S
C165 C166 1.398 . S
C165 H193 0.929 . S
C166 C165 1.398 . S
C166 C167 1.352 . S
C167 C166 1.352 . S
C167 C168 1.384 . S
C167 H194 0.930 . S
C168 C163 1.407 . S
C168 C167 1.384 . S
C168 H195 0.929 . S
C169 O182 1.241 . S
C169 O183 1.273 . S
C170 O184 1.251 . S
C170 O185 1.268 . S
C171 Nd161 2.836 . S
C171 C172 1.498 . S
C171 O186 1.258 . S
C171 O187 1.239 . S
C172 C171 1.498 . S
C172 C173 1.366 . S
C172 C177 1.407 . S
C173 C172 1.366 . S
C173 C174 1.392 . S
C173 H196 0.930 . S
C174 C173 1.392 . S
C174 C175 1.398 . S
C174 H197 0.929 . S
C175 C174 1.398 . S
C175 C176 1.352 . S
C176 C175 1.352 . S
C176 C177 1.384 . S
C176 H198 0.930 . S
C177 C172 1.407 . S
C177 C176 1.384 . S
C177 H199 0.929 . S
C178 O188 1.241 . S
C178 O189 1.273 . S
C179 O190 1.251 . S
C179 O191 1.268 . S
O180 Nd160 2.500 . S
O180 C162 1.258 . S
O181 Nd160 2.492 . S
O181 C162 1.239 . S
O182 Nd160 2.487 . S
O182 C169 1.241 . S
O183 Nd160 2.682 . S
O183 Nd161 2.414 . S
O183 C169 1.273 . S
O184 Nd160 2.410 . S
O184 C170 1.251 . S
O185 Nd161 2.424 . S
O185 C170 1.268 . S
O186 Nd161 2.500 . S
O186 C171 1.258 . S
O187 Nd161 2.492 . S
O187 C171 1.239 . S
O188 Nd161 2.487 . S
O188 C178 1.241 . S
O189 Nd160 2.414 . S
O189 Nd161 2.682 . S
O189 C178 1.273 . S
O190 Nd161 2.410 . S
O190 C179 1.251 . S
O191 Nd160 2.424 . S
O191 C179 1.268 . S
H192 C164 0.930 . S
H193 C165 0.929 . S
H194 C167 0.930 . S
H195 C168 0.929 . S
H196 C173 0.930 . S
H197 C174 0.929 . S
H198 C176 0.930 . S
H199 C177 0.929 . S
Nd200 C202 2.871 . S
Nd200 O220 2.529 . S
Nd200 O221 2.526 . S
Nd200 O222 2.484 1_565 S
Nd200 O223 2.655 1_565 S
Nd200 O224 2.414 . S
Nd200 O229 2.394 1_565 S
Nd200 O231 2.396 1_565 S
Nd201 C211 2.836 . S
Nd201 O223 2.414 . S
Nd201 O225 2.424 1_545 S
Nd201 O226 2.500 . S
Nd201 O227 2.492 . S
Nd201 O228 2.487 . S
Nd201 O229 2.682 . S
Nd201 O230 2.410 . S
C202 Nd200 2.871 . S
C202 C203 1.498 . S
C202 O220 1.258 . S
C202 O221 1.239 . S
C203 C202 1.498 . S
C203 C204 1.366 . S
C203 C208 1.407 . S
C204 C203 1.366 . S
C204 C205 1.392 . S
C204 H232 0.930 . S
C205 C204 1.392 . S
C205 C206 1.398 . S
C205 H233 0.929 . S
C206 C205 1.398 . S
C206 C207 1.352 . S
C207 C206 1.352 . S
C207 C208 1.384 . S
C207 H234 0.930 . S
C208 C203 1.407 . S
C208 C207 1.384 . S
C208 H235 0.929 . S
C209 O222 1.241 . S
C209 O223 1.273 . S
C210 O224 1.251 . S
C210 O225 1.268 . S
C211 Nd201 2.836 . S
C211 C212 1.498 . S
C211 O226 1.258 . S
C211 O227 1.239 . S
C212 C211 1.498 . S
C212 C213 1.366 . S
C212 C217 1.407 . S
C213 C212 1.366 . S
C213 C214 1.392 . S
C213 H236 0.930 . S
C214 C213 1.392 . S
C214 C215 1.398 . S
C214 H237 0.929 . S
C215 C214 1.398 . S
C215 C216 1.352 . S
C216 C215 1.352 . S
C216 C217 1.384 . S
C216 H238 0.930 . S
C217 C212 1.407 . S
C217 C216 1.384 . S
C217 H239 0.929 . S
C218 O228 1.241 . S
C218 O229 1.273 . S
C219 O230 1.251 . S
C219 O231 1.268 . S
O220 Nd200 2.529 . S
O220 C202 1.258 . S
O221 Nd200 2.526 . S
O221 C202 1.239 . S
O222 Nd200 2.484 1_545 S
O222 C209 1.241 . S
O223 Nd200 2.655 1_545 S
O223 Nd201 2.414 . S
O223 C209 1.273 . S
O224 Nd200 2.414 . S
O224 C210 1.251 . S
O225 Nd201 2.424 1_565 S
O225 C210 1.268 . S
O226 Nd201 2.500 . S
O226 C211 1.258 . S
O227 Nd201 2.492 . S
O227 C211 1.239 . S
O228 Nd201 2.487 . S
O228 C218 1.241 . S
O229 Nd200 2.394 1_545 S
O229 Nd201 2.682 . S
O229 C218 1.273 . S
O230 Nd201 2.410 . S
O230 C219 1.251 . S
O231 Nd200 2.396 1_545 S
O231 C219 1.268 . S
H232 C204 0.930 . S
H233 C205 0.929 . S
H234 C207 0.930 . S
H235 C208 0.929 . S
H236 C213 0.930 . S
H237 C214 0.929 . S
H238 C216 0.930 . S
H239 C217 0.929 . S
Nd240 C242 2.836 . S
Nd240 O260 2.500 . S
Nd240 O261 2.492 . S
Nd240 O262 2.487 . S
Nd240 O263 2.682 . S
Nd240 O264 2.410 . S
Nd240 O269 2.414 . S
Nd240 O271 2.424 1_545 S
Nd241 C251 2.855 . S
Nd241 O263 2.421 1_565 S
Nd241 O265 2.399 1_565 S
Nd241 O266 2.519 . S
Nd241 O267 2.505 . S
Nd241 O268 2.484 1_565 S
Nd241 O269 2.678 1_565 S
Nd241 O270 2.433 . S
C242 Nd240 2.836 . S
C242 C243 1.498 . S
C242 O260 1.258 . S
C242 O261 1.239 . S
C243 C242 1.498 . S
C243 C244 1.366 . S
C243 C248 1.407 . S
C244 C243 1.366 . S
C244 C245 1.392 . S
C244 H272 0.930 . S
C245 C244 1.392 . S
C245 C246 1.398 . S
C245 H273 0.929 . S
C246 C245 1.398 . S
C246 C247 1.352 . S
C247 C246 1.352 . S
C247 C248 1.384 . S
C247 H274 0.930 . S
C248 C243 1.407 . S
C248 C247 1.384 . S
C248 H275 0.929 . S
C249 O262 1.241 . S
C249 O263 1.273 . S
C250 O264 1.251 . S
C250 O265 1.268 . S
C251 Nd241 2.855 . S
C251 C252 1.498 . S
C251 O266 1.258 . S
C251 O267 1.239 . S
C252 C251 1.498 . S
C252 C253 1.366 . S
C252 C257 1.407 . S
C253 C252 1.366 . S
C253 C254 1.392 . S
C253 H276 0.930 . S
C254 C253 1.392 . S
C254 C255 1.398 . S
C254 H277 0.929 . S
C255 C254 1.398 . S
C255 C256 1.352 . S
C256 C255 1.352 . S
C256 C257 1.384 . S
C256 H278 0.930 . S
C257 C252 1.407 . S
C257 C256 1.384 . S
C257 H279 0.929 . S
C258 O268 1.241 . S
C258 O269 1.273 . S
C259 O270 1.251 . S
C259 O271 1.268 . S
O260 Nd240 2.500 . S
O260 C242 1.258 . S
O261 Nd240 2.492 . S
O261 C242 1.239 . S
O262 Nd240 2.487 . S
O262 C249 1.241 . S
O263 Nd240 2.682 . S
O263 Nd241 2.421 1_545 S
O263 C249 1.273 . S
O264 Nd240 2.410 . S
O264 C250 1.251 . S
O265 Nd241 2.399 1_545 S
O265 C250 1.268 . S
O266 Nd241 2.519 . S
O266 C251 1.258 . S
O267 Nd241 2.505 . S
O267 C251 1.239 . S
O268 Nd241 2.484 1_545 S
O268 C258 1.241 . S
O269 Nd240 2.414 . S
O269 Nd241 2.678 1_545 S
O269 C258 1.273 . S
O270 Nd241 2.433 . S
O270 C259 1.251 . S
O271 Nd240 2.424 1_565 S
O271 C259 1.268 . S
H272 C244 0.930 . S
H273 C245 0.929 . S
H274 C247 0.930 . S
H275 C248 0.929 . S
H276 C253 0.930 . S
H277 C254 0.929 . S
H278 C256 0.930 . S
H279 C257 0.929 . S
Nd280 C282 2.836 1_455 S
Nd280 O300 2.500 1_455 S
Nd280 O301 2.492 1_455 S
Nd280 O302 2.487 . S
Nd280 O303 2.682 . S
Nd280 O304 2.410 1_455 S
Nd280 O309 2.414 . S
Nd280 O311 2.424 . S
Nd281 C291 2.836 . S
Nd281 O303 2.414 . S
Nd281 O305 2.424 . S
Nd281 O306 2.500 . S
Nd281 O307 2.492 . S
Nd281 O308 2.487 . S
Nd281 O309 2.682 . S
Nd281 O310 2.410 . S
C282 Nd280 2.836 1_655 S
C282 C283 1.498 . S
C282 O300 1.258 . S
C282 O301 1.239 . S
C283 C282 1.498 . S
C283 C284 1.366 . S
C283 C288 1.407 . S
C284 C283 1.366 . S
C284 C285 1.392 . S
C284 H312 0.930 . S
C285 C284 1.392 . S
C285 C286 1.398 . S
C285 H313 0.929 . S
C286 C285 1.398 . S
C286 C287 1.352 . S
C287 C286 1.352 . S
C287 C288 1.384 . S
C287 H314 0.930 . S
C288 C283 1.407 . S
C288 C287 1.384 . S
C288 H315 0.929 . S
C289 O302 1.241 . S
C289 O303 1.273 . S
C290 O304 1.251 . S
C290 O305 1.268 1_655 S
C291 Nd281 2.836 . S
C291 C292 1.498 . S
C291 O306 1.258 . S
C291 O307 1.239 . S
C292 C291 1.498 . S
C292 C293 1.366 . S
C292 C297 1.407 . S
C293 C292 1.366 . S
C293 C294 1.392 . S
C293 H316 0.930 . S
C294 C293 1.392 . S
C294 C295 1.398 . S
C294 H317 0.929 . S
C295 C294 1.398 . S
C295 C296 1.352 . S
C296 C295 1.352 . S
C296 C297 1.384 . S
C296 H318 0.930 . S
C297 C292 1.407 . S
C297 C296 1.384 . S
C297 H319 0.929 . S
C298 O308 1.241 . S
C298 O309 1.273 . S
C299 O310 1.251 . S
C299 O311 1.268 . S
O300 Nd280 2.500 1_655 S
O300 C282 1.258 . S
O301 Nd280 2.492 1_655 S
O301 C282 1.239 . S
O302 Nd280 2.487 . S
O302 C289 1.241 . S
O303 Nd280 2.682 . S
O303 Nd281 2.414 . S
O303 C289 1.273 . S
O304 Nd280 2.410 1_655 S
O304 C290 1.251 . S
O305 Nd281 2.424 . S
O305 C290 1.268 1_455 S
O306 Nd281 2.500 . S
O306 C291 1.258 . S
O307 Nd281 2.492 . S
O307 C291 1.239 . S
O308 Nd281 2.487 . S
O308 C298 1.241 . S
O309 Nd280 2.414 . S
O309 Nd281 2.682 . S
O309 C298 1.273 . S
O310 Nd281 2.410 . S
O310 C299 1.251 . S
O311 Nd280 2.424 . S
O311 C299 1.268 . S
H312 C284 0.930 . S
H313 C285 0.929 . S
H314 C287 0.930 . S
H315 C288 0.929 . S
H316 C293 0.930 . S
H317 C294 0.929 . S
H318 C296 0.930 . S
H319 C297 0.929 . S
Nd320 C322 2.836 . S
Nd320 O340 2.500 . S
Nd320 O341 2.492 . S
Nd320 O342 2.487 . S
Nd320 O343 2.682 . S
Nd320 O344 2.410 . S
Nd320 O349 2.414 . S
Nd320 O351 2.424 . S
Nd321 C331 2.836 . S
Nd321 O343 2.414 . S
Nd321 O345 2.424 . S
Nd321 O346 2.500 . S
Nd321 O347 2.492 . S
Nd321 O348 2.487 . S
Nd321 O349 2.682 . S
Nd321 O350 2.410 . S
C322 Nd320 2.836 . S
C322 C323 1.498 . S
C322 O340 1.258 . S
C322 O341 1.239 . S
C323 C322 1.498 . S
C323 C324 1.366 . S
C323 C328 1.407 . S
C324 C323 1.366 . S
C324 C325 1.392 . S
C324 H352 0.930 . S
C325 C324 1.392 . S
C325 C326 1.398 . S
C325 H353 0.929 . S
C326 C325 1.398 . S
C326 C327 1.352 . S
C327 C326 1.352 . S
C327 C328 1.384 . S
C327 H354 0.930 . S
C328 C323 1.407 . S
C328 C327 1.384 . S
C328 H355 0.929 . S
C329 O342 1.241 . S
C329 O343 1.273 . S
C330 O344 1.251 . S
C330 O345 1.268 . S
C331 Nd321 2.836 . S
C331 C332 1.498 . S
C331 O346 1.258 . S
C331 O347 1.239 . S
C332 C331 1.498 . S
C332 C333 1.366 . S
C332 C337 1.407 . S
C333 C332 1.366 . S
C333 C334 1.392 . S
C333 H356 0.930 . S
C334 C333 1.392 . S
C334 C335 1.398 . S
C334 H357 0.929 . S
C335 C334 1.398 . S
C335 C336 1.352 . S
C336 C335 1.352 . S
C336 C337 1.384 . S
C336 H358 0.930 . S
C337 C332 1.407 . S
C337 C336 1.384 . S
C337 H359 0.929 . S
C338 O348 1.241 . S
C338 O349 1.273 . S
C339 O350 1.251 . S
C339 O351 1.268 . S
O340 Nd320 2.500 . S
O340 C322 1.258 . S
O341 Nd320 2.492 . S
O341 C322 1.239 . S
O342 Nd320 2.487 . S
O342 C329 1.241 . S
O343 Nd320 2.682 . S
O343 Nd321 2.414 . S
O343 C329 1.273 . S
O344 Nd320 2.410 . S
O344 C330 1.251 . S
O345 Nd321 2.424 . S
O345 C330 1.268 . S
O346 Nd321 2.500 . S
O346 C331 1.258 . S
O347 Nd321 2.492 . S
O347 C331 1.239 . S
O348 Nd321 2.487 . S
O348 C338 1.241 . S
O349 Nd320 2.414 . S
O349 Nd321 2.682 . S
O349 C338 1.273 . S
O350 Nd321 2.410 . S
O350 C339 1.251 . S
O351 Nd320 2.424 . S
O351 C339 1.268 . S
H352 C324 0.930 . S
H353 C325 0.929 . S
H354 C327 0.930 . S
H355 C328 0.929 . S
H356 C333 0.930 . S
H357 C334 0.929 . S
H358 C336 0.930 . S
H359 C337 0.929 . S
Nd360 C362 2.836 . S
Nd360 O380 2.500 . S
Nd360 O381 2.492 . S
Nd360 O382 2.487 . S
Nd360 O383 2.682 . S
Nd360 O384 2.410 . S
Nd360 O389 2.414 . S
Nd360 O391 2.424 1_455 S
Nd361 C371 2.855 . S
Nd361 O383 2.421 1_655 S
Nd361 O385 2.399 1_655 S
Nd361 O386 2.519 . S
Nd361 O387 2.505 . S
Nd361 O388 2.484 1_655 S
Nd361 O389 2.678 1_655 S
Nd361 O390 2.433 . S
C362 Nd360 2.836 . S
C362 C363 1.498 . S
C362 O380 1.258 . S
C362 O381 1.239 . S
C363 C362 1.498 . S
C363 C364 1.366 . S
C363 C368 1.407 . S
C364 C363 1.366 . S
C364 C365 1.392 . S
C364 H392 0.930 . S
C365 C364 1.392 . S
C365 C366 1.398 . S
C365 H393 0.929 . S
C366 C365 1.398 . S
C366 C367 1.352 . S
C367 C366 1.352 . S
C367 C368 1.384 . S
C367 H394 0.930 . S
C368 C363 1.407 . S
C368 C367 1.384 . S
C368 H395 0.929 . S
C369 O382 1.241 . S
C369 O383 1.273 . S
C370 O384 1.251 . S
C370 O385 1.268 . S
C371 Nd361 2.855 . S
C371 C372 1.498 . S
C371 O386 1.258 . S
C371 O387 1.239 . S
C372 C371 1.498 . S
C372 C373 1.366 . S
C372 C377 1.407 . S
C373 C372 1.366 . S
C373 C374 1.392 . S
C373 H396 0.930 . S
C374 C373 1.392 . S
C374 C375 1.398 . S
C374 H397 0.929 . S
C375 C374 1.398 . S
C375 C376 1.352 . S
C376 C375 1.352 . S
C376 C377 1.384 . S
C376 H398 0.930 . S
C377 C372 1.407 . S
C377 C376 1.384 . S
C377 H399 0.929 . S
C378 O388 1.241 . S
C378 O389 1.273 . S
C379 O390 1.251 . S
C379 O391 1.268 . S
O380 Nd360 2.500 . S
O380 C362 1.258 . S
O381 Nd360 2.492 . S
O381 C362 1.239 . S
O382 Nd360 2.487 . S
O382 C369 1.241 . S
O383 Nd360 2.682 . S
O383 Nd361 2.421 1_455 S
O383 C369 1.273 . S
O384 Nd360 2.410 . S
O384 C370 1.251 . S
O385 Nd361 2.399 1_455 S
O385 C370 1.268 . S
O386 Nd361 2.519 . S
O386 C371 1.258 . S
O387 Nd361 2.505 . S
O387 C371 1.239 . S
O388 Nd361 2.484 1_455 S
O388 C378 1.241 . S
O389 Nd360 2.414 . S
O389 Nd361 2.678 1_455 S
O389 C378 1.273 . S
O390 Nd361 2.433 . S
O390 C379 1.251 . S
O391 Nd360 2.424 1_655 S
O391 C379 1.268 . S
H392 C364 0.930 . S
H393 C365 0.929 . S
H394 C367 0.930 . S
H395 C368 0.929 . S
H396 C373 0.930 . S
H397 C374 0.929 . S
H398 C376 0.930 . S
H399 C377 0.929 . S
Nd400 C402 2.836 . S
Nd400 O420 2.500 . S
Nd400 O421 2.492 . S
Nd400 O422 2.487 . S
Nd400 O423 2.682 . S
Nd400 O424 2.410 . S
Nd400 O429 2.414 . S
Nd400 O431 2.424 . S
Nd401 C411 2.836 . S
Nd401 O423 2.414 . S
Nd401 O425 2.424 . S
Nd401 O426 2.500 . S
Nd401 O427 2.492 . S
Nd401 O428 2.487 . S
Nd401 O429 2.682 . S
Nd401 O430 2.410 . S
C402 Nd400 2.836 . S
C402 C403 1.498 . S
C402 O420 1.258 . S
C402 O421 1.239 . S
C403 C402 1.498 . S
C403 C404 1.366 . S
C403 C408 1.407 . S
C404 C403 1.366 . S
C404 C405 1.392 . S
C404 H432 0.930 . S
C405 C404 1.392 . S
C405 C406 1.398 . S
C405 H433 0.929 . S
C406 C405 1.398 . S
C406 C407 1.352 . S
C407 C406 1.352 . S
C407 C408 1.384 . S
C407 H434 0.930 . S
C408 C403 1.407 . S
C408 C407 1.384 . S
C408 H435 0.929 . S
C409 O422 1.241 . S
C409 O423 1.273 . S
C410 O424 1.251 . S
C410 O425 1.268 . S
C411 Nd401 2.836 . S
C411 C412 1.498 . S
C411 O426 1.258 . S
C411 O427 1.239 . S
C412 C411 1.498 . S
C412 C413 1.366 . S
C412 C417 1.407 . S
C413 C412 1.366 . S
C413 C414 1.392 . S
C413 H436 0.930 . S
C414 C413 1.392 . S
C414 C415 1.398 . S
C414 H437 0.929 . S
C415 C414 1.398 . S
C415 C416 1.352 . S
C416 C415 1.352 . S
C416 C417 1.384 . S
C416 H438 0.930 . S
C417 C412 1.407 . S
C417 C416 1.384 . S
C417 H439 0.929 . S
C418 O428 1.241 . S
C418 O429 1.273 . S
C419 O430 1.251 . S
C419 O431 1.268 . S
O420 Nd400 2.500 . S
O420 C402 1.258 . S
O421 Nd400 2.492 . S
O421 C402 1.239 . S
O422 Nd400 2.487 . S
O422 C409 1.241 . S
O423 Nd400 2.682 . S
O423 Nd401 2.414 . S
O423 C409 1.273 . S
O424 Nd400 2.410 . S
O424 C410 1.251 . S
O425 Nd401 2.424 . S
O425 C410 1.268 . S
O426 Nd401 2.500 . S
O426 C411 1.258 . S
O427 Nd401 2.492 . S
O427 C411 1.239 . S
O428 Nd401 2.487 . S
O428 C418 1.241 . S
O429 Nd400 2.414 . S
O429 Nd401 2.682 . S
O429 C418 1.273 . S
O430 Nd401 2.410 . S
O430 C419 1.251 . S
O431 Nd400 2.424 . S
O431 C419 1.268 . S
H432 C404 0.930 . S
H433 C405 0.929 . S
H434 C407 0.930 . S
H435 C408 0.929 . S
H436 C413 0.930 . S
H437 C414 0.929 . S
H438 C416 0.930 . S
H439 C417 0.929 . S
Nd440 C442 2.836 1_545 S
Nd440 O460 2.500 1_545 S
Nd440 O461 2.492 1_545 S
Nd440 O462 2.487 . S
Nd440 O463 2.682 . S
Nd440 O464 2.410 1_545 S
Nd440 O469 2.414 . S
Nd440 O471 2.424 . S
Nd441 C451 2.836 . S
Nd441 O463 2.414 . S
Nd441 O465 2.424 . S
Nd441 O466 2.500 . S
Nd441 O467 2.492 . S
Nd441 O468 2.487 . S
Nd441 O469 2.682 . S
Nd441 O470 2.410 . S
C442 Nd440 2.836 1_565 S
C442 C443 1.498 . S
C442 O460 1.258 . S
C442 O461 1.239 . S
C443 C442 1.498 . S
C443 C444 1.366 . S
C443 C448 1.407 . S
C444 C443 1.366 . S
C444 C445 1.392 . S
C444 H472 0.930 . S
C445 C444 1.392 . S
C445 C446 1.398 . S
C445 H473 0.929 . S
C446 C445 1.398 . S
C446 C447 1.352 . S
C447 C446 1.352 . S
C447 C448 1.384 . S
C447 H474 0.930 . S
C448 C443 1.407 . S
C448 C447 1.384 . S
C448 H475 0.929 . S
C449 O462 1.241 . S
C449 O463 1.273 . S
C450 O464 1.251 . S
C450 O465 1.268 1_565 S
C451 Nd441 2.836 . S
C451 C452 1.498 . S
C451 O466 1.258 . S
C451 O467 1.239 . S
C452 C451 1.498 . S
C452 C453 1.366 . S
C452 C457 1.407 . S
C453 C452 1.366 . S
C453 C454 1.392 . S
C453 H476 0.930 . S
C454 C453 1.392 . S
C454 C455 1.398 . S
C454 H477 0.929 . S
C455 C454 1.398 . S
C455 C456 1.352 . S
C456 C455 1.352 . S
C456 C457 1.384 . S
C456 H478 0.930 . S
C457 C452 1.407 . S
C457 C456 1.384 . S
C457 H479 0.929 . S
C458 O468 1.241 . S
C458 O469 1.273 . S
C459 O470 1.251 . S
C459 O471 1.268 . S
O460 Nd440 2.500 1_565 S
O460 C442 1.258 . S
O461 Nd440 2.492 1_565 S
O461 C442 1.239 . S
O462 Nd440 2.487 . S
O462 C449 1.241 . S
O463 Nd440 2.682 . S
O463 Nd441 2.414 . S
O463 C449 1.273 . S
O464 Nd440 2.410 1_565 S
O464 C450 1.251 . S
O465 Nd441 2.424 . S
O465 C450 1.268 1_545 S
O466 Nd441 2.500 . S
O466 C451 1.258 . S
O467 Nd441 2.492 . S
O467 C451 1.239 . S
O468 Nd441 2.487 . S
O468 C458 1.241 . S
O469 Nd440 2.414 . S
O469 Nd441 2.682 . S
O469 C458 1.273 . S
O470 Nd441 2.410 . S
O470 C459 1.251 . S
O471 Nd440 2.424 . S
O471 C459 1.268 . S
H472 C444 0.930 . S
H473 C445 0.929 . S
H474 C447 0.930 . S
H475 C448 0.929 . S
H476 C453 0.930 . S
H477 C454 0.929 . S
H478 C456 0.930 . S
H479 C457 0.929 . S
Nd480 C482 2.836 . S
Nd480 O500 2.500 . S
Nd480 O501 2.492 . S
Nd480 O502 2.487 . S
Nd480 O503 2.682 . S
Nd480 O504 2.410 . S
Nd480 O509 2.414 . S
Nd480 O511 2.424 . S
Nd481 C491 2.836 . S
Nd481 O503 2.414 . S
Nd481 O505 2.424 . S
Nd481 O506 2.500 . S
Nd481 O507 2.492 . S
Nd481 O508 2.487 . S
Nd481 O509 2.682 . S
Nd481 O510 2.410 . S
C482 Nd480 2.836 . S
C482 C483 1.498 . S
C482 O500 1.258 . S
C482 O501 1.239 . S
C483 C482 1.498 . S
C483 C484 1.366 . S
C483 C488 1.407 . S
C484 C483 1.366 . S
C484 C485 1.392 . S
C484 H512 0.930 . S
C485 C484 1.392 . S
C485 C486 1.398 . S
C485 H513 0.929 . S
C486 C485 1.398 . S
C486 C487 1.352 . S
C487 C486 1.352 . S
C487 C488 1.384 . S
C487 H514 0.930 . S
C488 C483 1.407 . S
C488 C487 1.384 . S
C488 H515 0.929 . S
C489 O502 1.241 . S
C489 O503 1.273 . S
C490 O504 1.251 . S
C490 O505 1.268 . S
C491 Nd481 2.836 . S
C491 C492 1.498 . S
C491 O506 1.258 . S
C491 O507 1.239 . S
C492 C491 1.498 . S
C492 C493 1.366 . S
C492 C497 1.407 . S
C493 C492 1.366 . S
C493 C494 1.392 . S
C493 H516 0.930 . S
C494 C493 1.392 . S
C494 C495 1.398 . S
C494 H517 0.929 . S
C495 C494 1.398 . S
C495 C496 1.352 . S
C496 C495 1.352 . S
C496 C497 1.384 . S
C496 H518 0.930 1_455 S
C497 C492 1.407 . S
C497 C496 1.384 . S
C497 H519 0.929 . S
C498 O508 1.241 . S
C498 O509 1.273 . S
C499 O510 1.251 . S
C499 O511 1.268 . S
O500 Nd480 2.500 . S
O500 C482 1.258 . S
O501 Nd480 2.492 . S
O501 C482 1.239 . S
O502 Nd480 2.487 . S
O502 C489 1.241 . S
O503 Nd480 2.682 . S
O503 Nd481 2.414 . S
O503 C489 1.273 . S
O504 Nd480 2.410 . S
O504 C490 1.251 . S
O505 Nd481 2.424 . S
O505 C490 1.268 . S
O506 Nd481 2.500 . S
O506 C491 1.258 . S
O507 Nd481 2.492 . S
O507 C491 1.239 . S
O508 Nd481 2.487 . S
O508 C498 1.241 . S
O509 Nd480 2.414 . S
O509 Nd481 2.682 . S
O509 C498 1.273 . S
O510 Nd481 2.410 . S
O510 C499 1.251 . S
O511 Nd480 2.424 . S
O511 C499 1.268 . S
H512 C484 0.930 . S
H513 C485 0.929 . S
H514 C487 0.930 . S
H515 C488 0.929 . S
H516 C493 0.930 . S
H517 C494 0.929 . S
H518 C496 0.930 1_655 S
H519 C497 0.929 . S
Nd520 C522 2.836 . S
Nd520 O540 2.500 . S
Nd520 O541 2.492 . S
Nd520 O542 2.487 . S
Nd520 O543 2.682 . S
Nd520 O544 2.410 . S
Nd520 O549 2.414 . S
Nd520 O551 2.424 . S
Nd521 C531 2.836 . S
Nd521 O543 2.414 . S
Nd521 O545 2.424 . S
Nd521 O546 2.500 . S
Nd521 O547 2.492 . S
Nd521 O548 2.487 . S
Nd521 O549 2.682 . S
Nd521 O550 2.410 . S
C522 Nd520 2.836 . S
C522 C523 1.498 . S
C522 O540 1.258 . S
C522 O541 1.239 . S
C523 C522 1.498 . S
C523 C524 1.366 . S
C523 C528 1.407 . S
C524 C523 1.366 . S
C524 C525 1.392 . S
C524 H552 0.930 . S
C525 C524 1.392 . S
C525 C526 1.398 . S
C525 H553 0.929 . S
C526 C525 1.398 . S
C526 C527 1.352 . S
C527 C526 1.352 . S
C527 C528 1.384 . S
C527 H554 0.930 . S
C528 C523 1.407 . S
C528 C527 1.384 . S
C528 H555 0.929 . S
C529 O542 1.241 . S
C529 O543 1.273 . S
C530 O544 1.251 . S
C530 O545 1.268 . S
C531 Nd521 2.836 . S
C531 C532 1.498 . S
C531 O546 1.258 . S
C531 O547 1.239 . S
C532 C531 1.498 . S
C532 C533 1.366 . S
C532 C537 1.407 . S
C533 C532 1.366 . S
C533 C534 1.392 . S
C533 H556 0.930 . S
C534 C533 1.392 . S
C534 C535 1.398 . S
C534 H557 0.929 . S
C535 C534 1.398 . S
C535 C536 1.352 . S
C536 C535 1.352 . S
C536 C537 1.384 . S
C536 H558 0.930 . S
C537 C532 1.407 . S
C537 C536 1.384 . S
C537 H559 0.929 . S
C538 O548 1.241 . S
C538 O549 1.273 . S
C539 O550 1.251 . S
C539 O551 1.268 . S
O540 Nd520 2.500 . S
O540 C522 1.258 . S
O541 Nd520 2.492 . S
O541 C522 1.239 . S
O542 Nd520 2.487 . S
O542 C529 1.241 . S
O543 Nd520 2.682 . S
O543 Nd521 2.414 . S
O543 C529 1.273 . S
O544 Nd520 2.410 . S
O544 C530 1.251 . S
O545 Nd521 2.424 . S
O545 C530 1.268 . S
O546 Nd521 2.500 . S
O546 C531 1.258 . S
O547 Nd521 2.492 . S
O547 C531 1.239 . S
O548 Nd521 2.487 . S
O548 C538 1.241 . S
O549 Nd520 2.414 . S
O549 Nd521 2.682 . S
O549 C538 1.273 . S
O550 Nd521 2.410 . S
O550 C539 1.251 . S
O551 Nd520 2.424 . S
O551 C539 1.268 . S
H552 C524 0.930 . S
H553 C525 0.929 . S
H554 C527 0.930 . S
H555 C528 0.929 . S
H556 C533 0.930 . S
H557 C534 0.929 . S
H558 C536 0.930 . S
H559 C537 0.929 . S
Nd560 C562 2.836 . S
Nd560 O580 2.500 . S
Nd560 O581 2.492 . S
Nd560 O582 2.487 . S
Nd560 O583 2.682 . S
Nd560 O584 2.410 . S
Nd560 O589 2.414 . S
Nd560 O591 2.424 . S
Nd561 C571 2.836 . S
Nd561 O583 2.414 . S
Nd561 O585 2.424 . S
Nd561 O586 2.500 . S
Nd561 O587 2.492 . S
Nd561 O588 2.487 . S
Nd561 O589 2.682 . S
Nd561 O590 2.410 . S
C562 Nd560 2.836 . S
C562 C563 1.498 . S
C562 O580 1.258 . S
C562 O581 1.239 . S
C563 C562 1.498 . S
C563 C564 1.366 . S
C563 C568 1.407 . S
C564 C563 1.366 . S
C564 C565 1.392 . S
C564 H592 0.930 . S
C565 C564 1.392 . S
C565 C566 1.398 . S
C565 H593 0.929 . S
C566 C565 1.398 . S
C566 C567 1.352 . S
C567 C566 1.352 . S
C567 C568 1.384 . S
C567 H594 0.930 . S
C568 C563 1.407 . S
C568 C567 1.384 . S
C568 H595 0.929 . S
C569 O582 1.241 . S
C569 O583 1.273 . S
C570 O584 1.251 . S
C570 O585 1.268 . S
C571 Nd561 2.836 . S
C571 C572 1.498 . S
C571 O586 1.258 . S
C571 O587 1.239 . S
C572 C571 1.498 . S
C572 C573 1.366 . S
C572 C577 1.407 1_565 S
C573 C572 1.366 . S
C573 C574 1.392 1_565 S
C573 H596 0.930 . S
C574 C573 1.392 1_545 S
C574 C575 1.398 . S
C574 H597 0.929 . S
C575 C574 1.398 . S
C575 C576 1.352 . S
C576 C575 1.352 . S
C576 C577 1.384 . S
C576 H598 0.930 . S
C577 C572 1.407 1_545 S
C577 C576 1.384 . S
C577 H599 0.929 . S
C578 O588 1.241 . S
C578 O589 1.273 . S
C579 O590 1.251 . S
C579 O591 1.268 . S
O580 Nd560 2.500 . S
O580 C562 1.258 . S
O581 Nd560 2.492 . S
O581 C562 1.239 . S
O582 Nd560 2.487 . S
O582 C569 1.241 . S
O583 Nd560 2.682 . S
O583 Nd561 2.414 . S
O583 C569 1.273 . S
O584 Nd560 2.410 . S
O584 C570 1.251 . S
O585 Nd561 2.424 . S
O585 C570 1.268 . S
O586 Nd561 2.500 . S
O586 C571 1.258 . S
O587 Nd561 2.492 . S
O587 C571 1.239 . S
O588 Nd561 2.487 . S
O588 C578 1.241 . S
O589 Nd560 2.414 . S
O589 Nd561 2.682 . S
O589 C578 1.273 . S
O590 Nd561 2.410 . S
O590 C579 1.251 . S
O591 Nd560 2.424 . S
O591 C579 1.268 . S
H592 C564 0.930 . S
H593 C565 0.929 . S
H594 C567 0.930 . S
H595 C568 0.929 . S
H596 C573 0.930 . S
H597 C574 0.929 . S
H598 C576 0.930 . S
H599 C577 0.929 . S
Nd600 C602 2.836 . S
Nd600 O620 2.500 . S
Nd600 O621 2.492 . S
Nd600 O622 2.487 . S
Nd600 O623 2.682 . S
Nd600 O624 2.410 . S
Nd600 O629 2.414 . S
Nd600 O631 2.424 . S
Nd601 C611 2.836 . S
Nd601 O623 2.414 . S
Nd601 O625 2.424 . S
Nd601 O626 2.500 . S
Nd601 O627 2.492 . S
Nd601 O628 2.487 . S
Nd601 O629 2.682 . S
Nd601 O630 2.410 . S
C602 Nd600 2.836 . S
C602 C603 1.498 . S
C602 O620 1.258 . S
C602 O621 1.239 . S
C603 C602 1.498 . S
C603 C604 1.366 . S
C603 C608 1.407 . S
C604 C603 1.366 . S
C604 C605 1.392 . S
C604 H632 0.930 . S
C605 C604 1.392 . S
C605 C606 1.398 1_565 S
C605 H633 0.929 . S
C606 C605 1.398 1_545 S
C606 C607 1.352 . S
C607 C606 1.352 . S
C607 C608 1.384 1_545 S
C607 H634 0.930 . S
C608 C603 1.407 . S
C608 C607 1.384 1_565 S
C608 H635 0.929 . S
C609 O622 1.241 . S
C609 O623 1.273 . S
C610 O624 1.251 . S
C610 O625 1.268 . S
C611 Nd601 2.836 . S
C611 C612 1.498 . S
C611 O626 1.258 . S
C611 O627 1.239 . S
C612 C611 1.498 . S
C612 C613 1.366 . S
C612 C617 1.407 . S
C613 C612 1.366 . S
C613 C614 1.392 . S
C613 H636 0.930 . S
C614 C613 1.392 . S
C614 C615 1.398 . S
C614 H637 0.929 . S
C615 C614 1.398 . S
C615 C616 1.352 . S
C616 C615 1.352 . S
C616 C617 1.384 . S
C616 H638 0.930 . S
C617 C612 1.407 . S
C617 C616 1.384 . S
C617 H639 0.929 . S
C618 O628 1.241 . S
C618 O629 1.273 . S
C619 O630 1.251 . S
C619 O631 1.268 . S
O620 Nd600 2.500 . S
O620 C602 1.258 . S
O621 Nd600 2.492 . S
O621 C602 1.239 . S
O622 Nd600 2.487 . S
O622 C609 1.241 . S
O623 Nd600 2.682 . S
O623 Nd601 2.414 . S
O623 C609 1.273 . S
O624 Nd600 2.410 . S
O624 C610 1.251 . S
O625 Nd601 2.424 . S
O625 C610 1.268 . S
O626 Nd601 2.500 . S
O626 C611 1.258 . S
O627 Nd601 2.492 . S
O627 C611 1.239 . S
O628 Nd601 2.487 . S
O628 C618 1.241 . S
O629 Nd600 2.414 . S
O629 Nd601 2.682 . S
O629 C618 1.273 . S
O630 Nd601 2.410 . S
O630 C619 1.251 . S
O631 Nd600 2.424 . S
O631 C619 1.268 . S
H632 C604 0.930 . S
H633 C605 0.929 . S
H634 C607 0.930 . S
H635 C608 0.929 . S
H636 C613 0.930 . S
H637 C614 0.929 . S
H638 C616 0.930 . S
H639 C617 0.929 . S
Nd640 C642 2.836 . S
Nd640 O660 2.500 . S
Nd640 O661 2.492 . S
Nd640 O662 2.487 . S
Nd640 O663 2.682 . S
Nd640 O664 2.410 . S
Nd640 O669 2.414 . S
Nd640 O671 2.424 . S
Nd641 C651 2.836 . S
Nd641 O663 2.414 . S
Nd641 O665 2.424 . S
Nd641 O666 2.500 . S
Nd641 O667 2.492 . S
Nd641 O668 2.487 . S
Nd641 O669 2.682 . S
Nd641 O670 2.410 . S
C642 Nd640 2.836 . S
C642 C643 1.498 . S
C642 O660 1.258 . S
C642 O661 1.239 . S
C643 C642 1.498 . S
C643 C644 1.366 . S
C643 C648 1.407 . S
C644 C643 1.366 . S
C644 C645 1.392 . S
C644 H672 0.930 . S
C645 C644 1.392 . S
C645 C646 1.398 . S
C645 H673 0.929 . S
C646 C645 1.398 . S
C646 C647 1.352 . S
C647 C646 1.352 . S
C647 C648 1.384 . S
C647 H674 0.930 . S
C648 C643 1.407 . S
C648 C647 1.384 . S
C648 H675 0.929 . S
C649 O662 1.241 . S
C649 O663 1.273 . S
C650 O664 1.251 . S
C650 O665 1.268 . S
C651 Nd641 2.836 . S
C651 C652 1.498 . S
C651 O666 1.258 . S
C651 O667 1.239 . S
C652 C651 1.498 . S
C652 C653 1.366 . S
C652 C657 1.407 . S
C653 C652 1.366 . S
C653 C654 1.392 . S
C653 H676 0.930 . S
C654 C653 1.392 . S
C654 C655 1.398 . S
C654 H677 0.929 . S
C655 C654 1.398 . S
C655 C656 1.352 . S
C656 C655 1.352 . S
C656 C657 1.384 . S
C656 H678 0.930 . S
C657 C652 1.407 . S
C657 C656 1.384 . S
C657 H679 0.929 . S
C658 O668 1.241 . S
C658 O669 1.273 . S
C659 O670 1.251 . S
C659 O671 1.268 . S
O660 Nd640 2.500 . S
O660 C642 1.258 . S
O661 Nd640 2.492 . S
O661 C642 1.239 . S
O662 Nd640 2.487 . S
O662 C649 1.241 . S
O663 Nd640 2.682 . S
O663 Nd641 2.414 . S
O663 C649 1.273 . S
O664 Nd640 2.410 . S
O664 C650 1.251 . S
O665 Nd641 2.424 . S
O665 C650 1.268 . S
O666 Nd641 2.500 . S
O666 C651 1.258 . S
O667 Nd641 2.492 . S
O667 C651 1.239 . S
O668 Nd641 2.487 . S
O668 C658 1.241 . S
O669 Nd640 2.414 . S
O669 Nd641 2.682 . S
O669 C658 1.273 . S
O670 Nd641 2.410 . S
O670 C659 1.251 . S
O671 Nd640 2.424 . S
O671 C659 1.268 . S
H672 C644 0.930 . S
H673 C645 0.929 . S
H674 C647 0.930 . S
H675 C648 0.929 . S
H676 C653 0.930 . S
H677 C654 0.929 . S
H678 C656 0.930 . S
H679 C657 0.929 . S
Nd680 C682 2.836 . S
Nd680 O700 2.500 . S
Nd680 O701 2.492 . S
Nd680 O702 2.487 . S
Nd680 O703 2.682 . S
Nd680 O704 2.410 . S
Nd680 O709 2.414 . S
Nd680 O711 2.424 . S
Nd681 C691 2.836 . S
Nd681 O703 2.414 . S
Nd681 O705 2.424 . S
Nd681 O706 2.500 . S
Nd681 O707 2.492 . S
Nd681 O708 2.487 . S
Nd681 O709 2.682 . S
Nd681 O710 2.410 . S
C682 Nd680 2.836 . S
C682 C683 1.498 . S
C682 O700 1.258 . S
C682 O701 1.239 . S
C683 C682 1.498 . S
C683 C684 1.366 . S
C683 C688 1.407 . S
C684 C683 1.366 . S
C684 C685 1.392 . S
C684 H712 0.930 . S
C685 C684 1.392 . S
C685 C686 1.398 . S
C685 H713 0.929 . S
C686 C685 1.398 . S
C686 C687 1.352 . S
C687 C686 1.352 . S
C687 C688 1.384 . S
C687 H714 0.930 . S
C688 C683 1.407 . S
C688 C687 1.384 . S
C688 H715 0.929 . S
C689 O702 1.241 . S
C689 O703 1.273 . S
C690 O704 1.251 . S
C690 O705 1.268 . S
C691 Nd681 2.836 . S
C691 C692 1.498 . S
C691 O706 1.258 . S
C691 O707 1.239 . S
C692 C691 1.498 . S
C692 C693 1.366 . S
C692 C697 1.407 . S
C693 C692 1.366 . S
C693 C694 1.392 . S
C693 H716 0.930 . S
C694 C693 1.392 . S
C694 C695 1.398 . S
C694 H717 0.929 . S
C695 C694 1.398 . S
C695 C696 1.352 . S
C696 C695 1.352 . S
C696 C697 1.384 . S
C696 H718 0.930 . S
C697 C692 1.407 . S
C697 C696 1.384 . S
C697 H719 0.929 . S
C698 O708 1.241 . S
C698 O709 1.273 . S
C699 O710 1.251 . S
C699 O711 1.268 . S
O700 Nd680 2.500 . S
O700 C682 1.258 . S
O701 Nd680 2.492 . S
O701 C682 1.239 . S
O702 Nd680 2.487 . S
O702 C689 1.241 . S
O703 Nd680 2.682 . S
O703 Nd681 2.414 . S
O703 C689 1.273 . S
O704 Nd680 2.410 . S
O704 C690 1.251 . S
O705 Nd681 2.424 . S
O705 C690 1.268 . S
O706 Nd681 2.500 . S
O706 C691 1.258 . S
O707 Nd681 2.492 . S
O707 C691 1.239 . S
O708 Nd681 2.487 . S
O708 C698 1.241 . S
O709 Nd680 2.414 . S
O709 Nd681 2.682 . S
O709 C698 1.273 . S
O710 Nd681 2.410 . S
O710 C699 1.251 . S
O711 Nd680 2.424 . S
O711 C699 1.268 . S
H712 C684 0.930 . S
H713 C685 0.929 . S
H714 C687 0.930 . S
H715 C688 0.929 . S
H716 C693 0.930 . S
H717 C694 0.929 . S
H718 C696 0.930 . S
H719 C697 0.929 . S
Nd720 C722 2.836 . S
Nd720 O740 2.500 . S
Nd720 O741 2.492 . S
Nd720 O742 2.487 . S
Nd720 O743 2.682 . S
Nd720 O744 2.410 . S
Nd720 O749 2.414 . S
Nd720 O751 2.424 . S
Nd721 C731 2.836 . S
Nd721 O743 2.414 . S
Nd721 O745 2.424 . S
Nd721 O746 2.500 . S
Nd721 O747 2.492 . S
Nd721 O748 2.487 . S
Nd721 O749 2.682 . S
Nd721 O750 2.410 . S
C722 Nd720 2.836 . S
C722 C723 1.498 . S
C722 O740 1.258 . S
C722 O741 1.239 . S
C723 C722 1.498 . S
C723 C724 1.366 . S
C723 C728 1.407 . S
C724 C723 1.366 . S
C724 C725 1.392 . S
C724 H752 0.930 . S
C725 C724 1.392 . S
C725 C726 1.398 . S
C725 H753 0.929 . S
C726 C725 1.398 . S
C726 C727 1.352 . S
C727 C726 1.352 . S
C727 C728 1.384 . S
C727 H754 0.930 . S
C728 C723 1.407 . S
C728 C727 1.384 . S
C728 H755 0.929 . S
C729 O742 1.241 . S
C729 O743 1.273 . S
C730 O744 1.251 . S
C730 O745 1.268 . S
C731 Nd721 2.836 . S
C731 C732 1.498 . S
C731 O746 1.258 . S
C731 O747 1.239 . S
C732 C731 1.498 . S
C732 C733 1.366 . S
C732 C737 1.407 . S
C733 C732 1.366 . S
C733 C734 1.392 . S
C733 H756 0.930 . S
C734 C733 1.392 . S
C734 C735 1.398 . S
C734 H757 0.929 . S
C735 C734 1.398 . S
C735 C736 1.352 . S
C736 C735 1.352 . S
C736 C737 1.384 . S
C736 H758 0.930 . S
C737 C732 1.407 . S
C737 C736 1.384 . S
C737 H759 0.929 . S
C738 O748 1.241 . S
C738 O749 1.273 . S
C739 O750 1.251 . S
C739 O751 1.268 . S
O740 Nd720 2.500 . S
O740 C722 1.258 . S
O741 Nd720 2.492 . S
O741 C722 1.239 . S
O742 Nd720 2.487 . S
O742 C729 1.241 . S
O743 Nd720 2.682 . S
O743 Nd721 2.414 . S
O743 C729 1.273 . S
O744 Nd720 2.410 . S
O744 C730 1.251 . S
O745 Nd721 2.424 . S
O745 C730 1.268 . S
O746 Nd721 2.500 . S
O746 C731 1.258 . S
O747 Nd721 2.492 . S
O747 C731 1.239 . S
O748 Nd721 2.487 . S
O748 C738 1.241 . S
O749 Nd720 2.414 . S
O749 Nd721 2.682 . S
O749 C738 1.273 . S
O750 Nd721 2.410 . S
O750 C739 1.251 . S
O751 Nd720 2.424 . S
O751 C739 1.268 . S
H752 C724 0.930 . S
H753 C725 0.929 . S
H754 C727 0.930 . S
H755 C728 0.929 . S
H756 C733 0.930 . S
H757 C734 0.929 . S
H758 C736 0.930 . S
H759 C737 0.929 . S
Nd760 C762 2.836 . S
Nd760 O780 2.500 . S
Nd760 O781 2.492 . S
Nd760 O782 2.487 . S
Nd760 O783 2.682 . S
Nd760 O784 2.410 . S
Nd760 O789 2.414 . S
Nd760 O791 2.424 . S
Nd761 C771 2.836 . S
Nd761 O783 2.414 . S
Nd761 O785 2.424 . S
Nd761 O786 2.500 . S
Nd761 O787 2.492 . S
Nd761 O788 2.487 . S
Nd761 O789 2.682 . S
Nd761 O790 2.410 . S
C762 Nd760 2.836 . S
C762 C763 1.498 . S
C762 O780 1.258 . S
C762 O781 1.239 . S
C763 C762 1.498 . S
C763 C764 1.366 . S
C763 C768 1.407 . S
C764 C763 1.366 . S
C764 C765 1.392 . S
C764 H792 0.930 . S
C765 C764 1.392 . S
C765 C766 1.398 . S
C765 H793 0.929 . S
C766 C765 1.398 . S
C766 C767 1.352 . S
C767 C766 1.352 . S
C767 C768 1.384 . S
C767 H794 0.930 . S
C768 C763 1.407 . S
C768 C767 1.384 . S
C768 H795 0.929 . S
C769 O782 1.241 . S
C769 O783 1.273 . S
C770 O784 1.251 . S
C770 O785 1.268 . S
C771 Nd761 2.836 . S
C771 C772 1.498 . S
C771 O786 1.258 . S
C771 O787 1.239 . S
C772 C771 1.498 . S
C772 C773 1.366 . S
C772 C777 1.407 . S
C773 C772 1.366 . S
C773 C774 1.392 . S
C773 H796 0.930 . S
C774 C773 1.392 . S
C774 C775 1.398 . S
C774 H797 0.929 . S
C775 C774 1.398 . S
C775 C776 1.352 . S
C776 C775 1.352 . S
C776 C777 1.384 . S
C776 H798 0.930 . S
C777 C772 1.407 . S
C777 C776 1.384 . S
C777 H799 0.929 . S
C778 O788 1.241 . S
C778 O789 1.273 . S
C779 O790 1.251 . S
C779 O791 1.268 . S
O780 Nd760 2.500 . S
O780 C762 1.258 . S
O781 Nd760 2.492 . S
O781 C762 1.239 . S
O782 Nd760 2.487 . S
O782 C769 1.241 . S
O783 Nd760 2.682 . S
O783 Nd761 2.414 . S
O783 C769 1.273 . S
O784 Nd760 2.410 . S
O784 C770 1.251 . S
O785 Nd761 2.424 . S
O785 C770 1.268 . S
O786 Nd761 2.500 . S
O786 C771 1.258 . S
O787 Nd761 2.492 . S
O787 C771 1.239 . S
O788 Nd761 2.487 . S
O788 C778 1.241 . S
O789 Nd760 2.414 . S
O789 Nd761 2.682 . S
O789 C778 1.273 . S
O790 Nd761 2.410 . S
O790 C779 1.251 . S
O791 Nd760 2.424 . S
O791 C779 1.268 . S
H792 C764 0.930 . S
H793 C765 0.929 . S
H794 C767 0.930 . S
H795 C768 0.929 . S
H796 C773 0.930 . S
H797 C774 0.929 . S
H798 C776 0.930 . S
H799 C777 0.929 . S
Nd800 C802 2.836 . S
Nd800 O820 2.500 . S
Nd800 O821 2.492 . S
Nd800 O822 2.487 . S
Nd800 O823 2.682 . S
Nd800 O824 2.410 . S
Nd800 O829 2.414 . S
Nd800 O831 2.424 . S
Nd801 C811 2.836 . S
Nd801 O823 2.414 . S
Nd801 O825 2.424 . S
Nd801 O826 2.500 . S
Nd801 O827 2.492 . S
Nd801 O828 2.487 . S
Nd801 O829 2.682 . S
Nd801 O830 2.410 . S
C802 Nd800 2.836 . S
C802 C803 1.498 . S
C802 O820 1.258 . S
C802 O821 1.239 . S
C803 C802 1.498 . S
C803 C804 1.366 . S
C803 C808 1.407 . S
C804 C803 1.366 . S
C804 C805 1.392 . S
C804 H832 0.930 . S
C805 C804 1.392 . S
C805 C806 1.398 . S
C805 H833 0.929 . S
C806 C805 1.398 . S
C806 C807 1.352 . S
C807 C806 1.352 . S
C807 C808 1.384 . S
C807 H834 0.930 . S
C808 C803 1.407 . S
C808 C807 1.384 . S
C808 H835 0.929 . S
C809 O822 1.241 . S
C809 O823 1.273 . S
C810 O824 1.251 . S
C810 O825 1.268 . S
C811 Nd801 2.836 . S
C811 C812 1.498 . S
C811 O826 1.258 . S
C811 O827 1.239 . S
C812 C811 1.498 . S
C812 C813 1.366 . S
C812 C817 1.407 . S
C813 C812 1.366 . S
C813 C814 1.392 . S
C813 H836 0.930 . S
C814 C813 1.392 . S
C814 C815 1.398 1_565 S
C814 H837 0.929 . S
C815 C814 1.398 1_545 S
C815 C816 1.352 . S
C816 C815 1.352 . S
C816 C817 1.384 1_545 S
C816 H838 0.930 . S
C817 C812 1.407 . S
C817 C816 1.384 1_565 S
C817 H839 0.929 . S
C818 O828 1.241 . S
C818 O829 1.273 . S
C819 O830 1.251 . S
C819 O831 1.268 . S
O820 Nd800 2.500 . S
O820 C802 1.258 . S
O821 Nd800 2.492 . S
O821 C802 1.239 . S
O822 Nd800 2.487 . S
O822 C809 1.241 . S
O823 Nd800 2.682 . S
O823 Nd801 2.414 . S
O823 C809 1.273 . S
O824 Nd800 2.410 . S
O824 C810 1.251 . S
O825 Nd801 2.424 . S
O825 C810 1.268 . S
O826 Nd801 2.500 . S
O826 C811 1.258 . S
O827 Nd801 2.492 . S
O827 C811 1.239 . S
O828 Nd801 2.487 . S
O828 C818 1.241 . S
O829 Nd800 2.414 . S
O829 Nd801 2.682 . S
O829 C818 1.273 . S
O830 Nd801 2.410 . S
O830 C819 1.251 . S
O831 Nd800 2.424 . S
O831 C819 1.268 . S
H832 C804 0.930 . S
H833 C805 0.929 . S
H834 C807 0.930 . S
H835 C808 0.929 . S
H836 C813 0.930 . S
H837 C814 0.929 . S
H838 C816 0.930 . S
H839 C817 0.929 . S
Nd840 C842 2.836 . S
Nd840 O860 2.500 . S
Nd840 O861 2.492 . S
Nd840 O862 2.487 . S
Nd840 O863 2.682 . S
Nd840 O864 2.410 . S
Nd840 O869 2.414 . S
Nd840 O871 2.424 . S
Nd841 C851 2.836 . S
Nd841 O863 2.414 . S
Nd841 O865 2.424 . S
Nd841 O866 2.500 . S
Nd841 O867 2.492 . S
Nd841 O868 2.487 . S
Nd841 O869 2.682 . S
Nd841 O870 2.410 . S
C842 Nd840 2.836 . S
C842 C843 1.498 . S
C842 O860 1.258 . S
C842 O861 1.239 . S
C843 C842 1.498 . S
C843 C844 1.366 . S
C843 C848 1.407 1_565 S
C844 C843 1.366 . S
C844 C845 1.392 1_565 S
C844 H872 0.930 . S
C845 C844 1.392 1_545 S
C845 C846 1.398 . S
C845 H873 0.929 . S
C846 C845 1.398 . S
C846 C847 1.352 . S
C847 C846 1.352 . S
C847 C848 1.384 . S
C847 H874 0.930 . S
C848 C843 1.407 1_545 S
C848 C847 1.384 . S
C848 H875 0.929 . S
C849 O862 1.241 . S
C849 O863 1.273 . S
C850 O864 1.251 . S
C850 O865 1.268 . S
C851 Nd841 2.836 . S
C851 C852 1.498 . S
C851 O866 1.258 . S
C851 O867 1.239 . S
C852 C851 1.498 . S
C852 C853 1.366 . S
C852 C857 1.407 . S
C853 C852 1.366 . S
C853 C854 1.392 . S
C853 H876 0.930 . S
C854 C853 1.392 . S
C854 C855 1.398 . S
C854 H877 0.929 . S
C855 C854 1.398 . S
C855 C856 1.352 . S
C856 C855 1.352 . S
C856 C857 1.384 . S
C856 H878 0.930 . S
C857 C852 1.407 . S
C857 C856 1.384 . S
C857 H879 0.929 . S
C858 O868 1.241 . S
C858 O869 1.273 . S
C859 O870 1.251 . S
C859 O871 1.268 . S
O860 Nd840 2.500 . S
O860 C842 1.258 . S
O861 Nd840 2.492 . S
O861 C842 1.239 . S
O862 Nd840 2.487 . S
O862 C849 1.241 . S
O863 Nd840 2.682 . S
O863 Nd841 2.414 . S
O863 C849 1.273 . S
O864 Nd840 2.410 . S
O864 C850 1.251 . S
O865 Nd841 2.424 . S
O865 C850 1.268 . S
O866 Nd841 2.500 . S
O866 C851 1.258 . S
O867 Nd841 2.492 . S
O867 C851 1.239 . S
O868 Nd841 2.487 . S
O868 C858 1.241 . S
O869 Nd840 2.414 . S
O869 Nd841 2.682 . S
O869 C858 1.273 . S
O870 Nd841 2.410 . S
O870 C859 1.251 . S
O871 Nd840 2.424 . S
O871 C859 1.268 . S
H872 C844 0.930 . S
H873 C845 0.929 . S
H874 C847 0.930 . S
H875 C848 0.929 . S
H876 C853 0.930 . S
H877 C854 0.929 . S
H878 C856 0.930 . S
H879 C857 0.929 . S
Nd880 C882 2.836 . S
Nd880 O900 2.500 . S
Nd880 O901 2.492 . S
Nd880 O902 2.487 . S
Nd880 O903 2.682 . S
Nd880 O904 2.410 . S
Nd880 O909 2.414 . S
Nd880 O911 2.424 . S
Nd881 C891 2.836 . S
Nd881 O903 2.414 . S
Nd881 O905 2.424 . S
Nd881 O906 2.500 . S
Nd881 O907 2.492 . S
Nd881 O908 2.487 . S
Nd881 O909 2.682 . S
Nd881 O910 2.410 . S
C882 Nd880 2.836 . S
C882 C883 1.498 . S
C882 O900 1.258 . S
C882 O901 1.239 . S
C883 C882 1.498 . S
C883 C884 1.366 . S
C883 C888 1.407 . S
C884 C883 1.366 . S
C884 C885 1.392 . S
C884 H912 0.930 . S
C885 C884 1.392 . S
C885 C886 1.398 . S
C885 H913 0.929 . S
C886 C885 1.398 . S
C886 C887 1.352 . S
C887 C886 1.352 . S
C887 C888 1.384 . S
C887 H914 0.930 1_455 S
C888 C883 1.407 . S
C888 C887 1.384 . S
C888 H915 0.929 . S
C889 O902 1.241 . S
C889 O903 1.273 . S
C890 O904 1.251 . S
C890 O905 1.268 . S
C891 Nd881 2.836 . S
C891 C892 1.498 . S
C891 O906 1.258 . S
C891 O907 1.239 . S
C892 C891 1.498 . S
C892 C893 1.366 . S
C892 C897 1.407 . S
C893 C892 1.366 . S
C893 C894 1.392 . S
C893 H916 0.930 . S
C894 C893 1.392 . S
C894 C895 1.398 . S
C894 H917 0.929 . S
C895 C894 1.398 . S
C895 C896 1.352 . S
C896 C895 1.352 . S
C896 C897 1.384 . S
C896 H918 0.930 . S
C897 C892 1.407 . S
C897 C896 1.384 . S
C897 H919 0.929 . S
C898 O908 1.241 . S
C898 O909 1.273 . S
C899 O910 1.251 . S
C899 O911 1.268 . S
O900 Nd880 2.500 . S
O900 C882 1.258 . S
O901 Nd880 2.492 . S
O901 C882 1.239 . S
O902 Nd880 2.487 . S
O902 C889 1.241 . S
O903 Nd880 2.682 . S
O903 Nd881 2.414 . S
O903 C889 1.273 . S
O904 Nd880 2.410 . S
O904 C890 1.251 . S
O905 Nd881 2.424 . S
O905 C890 1.268 . S
O906 Nd881 2.500 . S
O906 C891 1.258 . S
O907 Nd881 2.492 . S
O907 C891 1.239 . S
O908 Nd881 2.487 . S
O908 C898 1.241 . S
O909 Nd880 2.414 . S
O909 Nd881 2.682 . S
O909 C898 1.273 . S
O910 Nd881 2.410 . S
O910 C899 1.251 . S
O911 Nd880 2.424 . S
O911 C899 1.268 . S
H912 C884 0.930 . S
H913 C885 0.929 . S
H914 C887 0.930 1_655 S
H915 C888 0.929 . S
H916 C893 0.930 . S
H917 C894 0.929 . S
H918 C896 0.930 . S
H919 C897 0.929 . S
Nd920 C922 2.836 . S
Nd920 O940 2.500 . S
Nd920 O941 2.492 . S
Nd920 O942 2.487 . S
Nd920 O943 2.682 . S
Nd920 O944 2.410 . S
Nd920 O949 2.414 . S
Nd920 O951 2.424 . S
Nd921 C931 2.836 . S
Nd921 O943 2.414 . S
Nd921 O945 2.424 . S
Nd921 O946 2.500 . S
Nd921 O947 2.492 . S
Nd921 O948 2.487 . S
Nd921 O949 2.682 . S
Nd921 O950 2.410 . S
C922 Nd920 2.836 . S
C922 C923 1.498 . S
C922 O940 1.258 . S
C922 O941 1.239 . S
C923 C922 1.498 . S
C923 C924 1.366 . S
C923 C928 1.407 . S
C924 C923 1.366 . S
C924 C925 1.392 . S
C924 H952 0.930 . S
C925 C924 1.392 . S
C925 C926 1.398 . S
C925 H953 0.929 . S
C926 C925 1.398 . S
C926 C927 1.352 . S
C927 C926 1.352 . S
C927 C928 1.384 . S
C927 H954 0.930 . S
C928 C923 1.407 . S
C928 C927 1.384 . S
C928 H955 0.929 . S
C929 O942 1.241 . S
C929 O943 1.273 . S
C930 O944 1.251 . S
C930 O945 1.268 . S
C931 Nd921 2.836 . S
C931 C932 1.498 . S
C931 O946 1.258 . S
C931 O947 1.239 . S
C932 C931 1.498 . S
C932 C933 1.366 . S
C932 C937 1.407 . S
C933 C932 1.366 . S
C933 C934 1.392 . S
C933 H956 0.930 . S
C934 C933 1.392 . S
C934 C935 1.398 . S
C934 H957 0.929 . S
C935 C934 1.398 . S
C935 C936 1.352 . S
C936 C935 1.352 . S
C936 C937 1.384 . S
C936 H958 0.930 . S
C937 C932 1.407 . S
C937 C936 1.384 . S
C937 H959 0.929 . S
C938 O948 1.241 . S
C938 O949 1.273 . S
C939 O950 1.251 . S
C939 O951 1.268 . S
O940 Nd920 2.500 . S
O940 C922 1.258 . S
O941 Nd920 2.492 . S
O941 C922 1.239 . S
O942 Nd920 2.487 . S
O942 C929 1.241 . S
O943 Nd920 2.682 . S
O943 Nd921 2.414 . S
O943 C929 1.273 . S
O944 Nd920 2.410 . S
O944 C930 1.251 . S
O945 Nd921 2.424 . S
O945 C930 1.268 . S
O946 Nd921 2.500 . S
O946 C931 1.258 . S
O947 Nd921 2.492 . S
O947 C931 1.239 . S
O948 Nd921 2.487 . S
O948 C938 1.241 . S
O949 Nd920 2.414 . S
O949 Nd921 2.682 . S
O949 C938 1.273 . S
O950 Nd921 2.410 . S
O950 C939 1.251 . S
O951 Nd920 2.424 . S
O951 C939 1.268 . S
H952 C924 0.930 . S
H953 C925 0.929 . S
H954 C927 0.930 . S
H955 C928 0.929 . S
H956 C933 0.930 . S
H957 C934 0.929 . S
H958 C936 0.930 . S
H959 C937 0.929 . S
Nd960 C962 2.836 . S
Nd960 O980 2.500 . S
Nd960 O981 2.492 . S
Nd960 O982 2.487 . S
Nd960 O983 2.682 . S
Nd960 O984 2.410 . S
Nd960 O989 2.414 . S
Nd960 O991 2.424 . S
Nd961 C971 2.836 . S
Nd961 O983 2.414 . S
Nd961 O985 2.424 . S
Nd961 O986 2.500 . S
Nd961 O987 2.492 . S
Nd961 O988 2.487 . S
Nd961 O989 2.682 . S
Nd961 O990 2.410 . S
C962 Nd960 2.836 . S
C962 C963 1.498 . S
C962 O980 1.258 . S
C962 O981 1.239 . S
C963 C962 1.498 . S
C963 C964 1.366 . S
C963 C968 1.407 . S
C964 C963 1.366 . S
C964 C965 1.392 . S
C964 H992 0.930 . S
C965 C964 1.392 . S
C965 C966 1.398 1_655 S
C965 H993 0.929 . S
C966 C965 1.398 1_455 S
C966 C967 1.352 . S
C967 C966 1.352 . S
C967 C968 1.384 1_455 S
C967 H994 0.930 . S
C968 C963 1.407 . S
C968 C967 1.384 1_655 S
C968 H995 0.929 . S
C969 O982 1.241 . S
C969 O983 1.273 . S
C970 O984 1.251 . S
C970 O985 1.268 . S
C971 Nd961 2.836 . S
C971 C972 1.498 . S
C971 O986 1.258 . S
C971 O987 1.239 . S
C972 C971 1.498 . S
C972 C973 1.366 . S
C972 C977 1.407 . S
C973 C972 1.366 . S
C973 C974 1.392 . S
C973 H996 0.930 . S
C974 C973 1.392 . S
C974 C975 1.398 . S
C974 H997 0.929 . S
C975 C974 1.398 . S
C975 C976 1.352 . S
C976 C975 1.352 . S
C976 C977 1.384 . S
C976 H998 0.930 . S
C977 C972 1.407 . S
C977 C976 1.384 . S
C977 H999 0.929 . S
C978 O988 1.241 . S
C978 O989 1.273 . S
C979 O990 1.251 . S
C979 O991 1.268 . S
O980 Nd960 2.500 . S
O980 C962 1.258 . S
O981 Nd960 2.492 . S
O981 C962 1.239 . S
O982 Nd960 2.487 . S
O982 C969 1.241 . S
O983 Nd960 2.682 . S
O983 Nd961 2.414 . S
O983 C969 1.273 . S
O984 Nd960 2.410 . S
O984 C970 1.251 . S
O985 Nd961 2.424 . S
O985 C970 1.268 . S
O986 Nd961 2.500 . S
O986 C971 1.258 . S
O987 Nd961 2.492 . S
O987 C971 1.239 . S
O988 Nd961 2.487 . S
O988 C978 1.241 . S
O989 Nd960 2.414 . S
O989 Nd961 2.682 . S
O989 C978 1.273 . S
O990 Nd961 2.410 . S
O990 C979 1.251 . S
O991 Nd960 2.424 . S
O991 C979 1.268 . S
H992 C964 0.930 . S
H993 C965 0.929 . S
H994 C967 0.930 . S
H995 C968 0.929 . S
H996 C973 0.930 . S
H997 C974 0.929 . S
H998 C976 0.930 . S
H999 C977 0.929 . S
Nd1000 C1002 2.836 . S
Nd1000 O1020 2.500 . S
Nd1000 O1021 2.492 . S
Nd1000 O1022 2.487 . S
Nd1000 O1023 2.682 . S
Nd1000 O1024 2.410 . S
Nd1000 O1029 2.414 . S
Nd1000 O1031 2.424 . S
Nd1001 C1011 2.836 . S
Nd1001 O1023 2.414 . S
Nd1001 O1025 2.424 . S
Nd1001 O1026 2.500 . S
Nd1001 O1027 2.492 . S
Nd1001 O1028 2.487 . S
Nd1001 O1029 2.682 . S
Nd1001 O1030 2.410 . S
C1002 Nd1000 2.836 . S
C1002 C1003 1.498 . S
C1002 O1020 1.258 . S
C1002 O1021 1.239 . S
C1003 C1002 1.498 . S
C1003 C1004 1.366 . S
C1003 C1008 1.407 . S
C1004 C1003 1.366 . S
C1004 C1005 1.392 . S
C1004 H1032 0.930 . S
C1005 C1004 1.392 . S
C1005 C1006 1.398 . S
C1005 H1033 0.929 . S
C1006 C1005 1.398 . S
C1006 C1007 1.352 . S
C1007 C1006 1.352 . S
C1007 C1008 1.384 . S
C1007 H1034 0.930 . S
C1008 C1003 1.407 . S
C1008 C1007 1.384 . S
C1008 H1035 0.929 . S
C1009 O1022 1.241 . S
C1009 O1023 1.273 . S
C1010 O1024 1.251 . S
C1010 O1025 1.268 . S
C1011 Nd1001 2.836 . S
C1011 C1012 1.498 . S
C1011 O1026 1.258 . S
C1011 O1027 1.239 . S
C1012 C1011 1.498 . S
C1012 C1013 1.366 . S
C1012 C1017 1.407 . S
C1013 C1012 1.366 . S
C1013 C1014 1.392 . S
C1013 H1036 0.930 . S
C1014 C1013 1.392 . S
C1014 C1015 1.398 . S
C1014 H1037 0.929 . S
C1015 C1014 1.398 . S
C1015 C1016 1.352 . S
C1016 C1015 1.352 . S
C1016 C1017 1.384 . S
C1016 H1038 0.930 . S
C1017 C1012 1.407 . S
C1017 C1016 1.384 . S
C1017 H1039 0.929 . S
C1018 O1028 1.241 . S
C1018 O1029 1.273 . S
C1019 O1030 1.251 . S
C1019 O1031 1.268 . S
O1020 Nd1000 2.500 . S
O1020 C1002 1.258 . S
O1021 Nd1000 2.492 . S
O1021 C1002 1.239 . S
O1022 Nd1000 2.487 . S
O1022 C1009 1.241 . S
O1023 Nd1000 2.682 . S
O1023 Nd1001 2.414 . S
O1023 C1009 1.273 . S
O1024 Nd1000 2.410 . S
O1024 C1010 1.251 . S
O1025 Nd1001 2.424 . S
O1025 C1010 1.268 . S
O1026 Nd1001 2.500 . S
O1026 C1011 1.258 . S
O1027 Nd1001 2.492 . S
O1027 C1011 1.239 . S
O1028 Nd1001 2.487 . S
O1028 C1018 1.241 . S
O1029 Nd1000 2.414 . S
O1029 Nd1001 2.682 . S
O1029 C1018 1.273 . S
O1030 Nd1001 2.410 . S
O1030 C1019 1.251 . S
O1031 Nd1000 2.424 . S
O1031 C1019 1.268 . S
H1032 C1004 0.930 . S
H1033 C1005 0.929 . S
H1034 C1007 0.930 . S
H1035 C1008 0.929 . S
H1036 C1013 0.930 . S
H1037 C1014 0.929 . S
H1038 C1016 0.930 . S
H1039 C1017 0.929 . S
Nd1040 C1042 2.836 . S
Nd1040 O1060 2.500 . S
Nd1040 O1061 2.492 . S
Nd1040 O1062 2.487 . S
Nd1040 O1063 2.682 . S
Nd1040 O1064 2.410 . S
Nd1040 O1069 2.414 . S
Nd1040 O1071 2.424 . S
Nd1041 C1051 2.836 . S
Nd1041 O1063 2.414 . S
Nd1041 O1065 2.424 . S
Nd1041 O1066 2.500 . S
Nd1041 O1067 2.492 . S
Nd1041 O1068 2.487 . S
Nd1041 O1069 2.682 . S
Nd1041 O1070 2.410 . S
C1042 Nd1040 2.836 . S
C1042 C1043 1.498 . S
C1042 O1060 1.258 . S
C1042 O1061 1.239 . S
C1043 C1042 1.498 . S
C1043 C1044 1.366 . S
C1043 C1048 1.407 . S
C1044 C1043 1.366 . S
C1044 C1045 1.392 . S
C1044 H1072 0.930 . S
C1045 C1044 1.392 . S
C1045 C1046 1.398 . S
C1045 H1073 0.929 . S
C1046 C1045 1.398 . S
C1046 C1047 1.352 . S
C1047 C1046 1.352 . S
C1047 C1048 1.384 . S
C1047 H1074 0.930 . S
C1048 C1043 1.407 . S
C1048 C1047 1.384 . S
C1048 H1075 0.929 . S
C1049 O1062 1.241 . S
C1049 O1063 1.273 . S
C1050 O1064 1.251 . S
C1050 O1065 1.268 . S
C1051 Nd1041 2.836 . S
C1051 C1052 1.498 . S
C1051 O1066 1.258 . S
C1051 O1067 1.239 . S
C1052 C1051 1.498 . S
C1052 C1053 1.366 . S
C1052 C1057 1.407 . S
C1053 C1052 1.366 . S
C1053 C1054 1.392 . S
C1053 H1076 0.930 . S
C1054 C1053 1.392 . S
C1054 C1055 1.398 . S
C1054 H1077 0.929 . S
C1055 C1054 1.398 . S
C1055 C1056 1.352 . S
C1056 C1055 1.352 . S
C1056 C1057 1.384 . S
C1056 H1078 0.930 . S
C1057 C1052 1.407 . S
C1057 C1056 1.384 . S
C1057 H1079 0.929 . S
C1058 O1068 1.241 . S
C1058 O1069 1.273 . S
C1059 O1070 1.251 . S
C1059 O1071 1.268 . S
O1060 Nd1040 2.500 . S
O1060 C1042 1.258 . S
O1061 Nd1040 2.492 . S
O1061 C1042 1.239 . S
O1062 Nd1040 2.487 . S
O1062 C1049 1.241 . S
O1063 Nd1040 2.682 . S
O1063 Nd1041 2.414 . S
O1063 C1049 1.273 . S
O1064 Nd1040 2.410 . S
O1064 C1050 1.251 . S
O1065 Nd1041 2.424 . S
O1065 C1050 1.268 . S
O1066 Nd1041 2.500 . S
O1066 C1051 1.258 . S
O1067 Nd1041 2.492 . S
O1067 C1051 1.239 . S
O1068 Nd1041 2.487 . S
O1068 C1058 1.241 . S
O1069 Nd1040 2.414 . S
O1069 Nd1041 2.682 . S
O1069 C1058 1.273 . S
O1070 Nd1041 2.410 . S
O1070 C1059 1.251 . S
O1071 Nd1040 2.424 . S
O1071 C1059 1.268 . S
H1072 C1044 0.930 . S
H1073 C1045 0.929 . S
H1074 C1047 0.930 . S
H1075 C1048 0.929 . S
H1076 C1053 0.930 . S
H1077 C1054 0.929 . S
H1078 C1056 0.930 . S
H1079 C1057 0.929 . S
Nd1080 C1082 2.836 . S
Nd1080 O1100 2.500 . S
Nd1080 O1101 2.492 . S
Nd1080 O1102 2.487 . S
Nd1080 O1103 2.682 . S
Nd1080 O1104 2.410 . S
Nd1080 O1109 2.414 . S
Nd1080 O1111 2.424 . S
Nd1081 C1091 2.836 . S
Nd1081 O1103 2.414 . S
Nd1081 O1105 2.424 . S
Nd1081 O1106 2.500 . S
Nd1081 O1107 2.492 . S
Nd1081 O1108 2.487 . S
Nd1081 O1109 2.682 . S
Nd1081 O1110 2.410 . S
C1082 Nd1080 2.836 . S
C1082 C1083 1.498 . S
C1082 O1100 1.258 . S
C1082 O1101 1.239 . S
C1083 C1082 1.498 . S
C1083 C1084 1.366 . S
C1083 C1088 1.407 . S
C1084 C1083 1.366 . S
C1084 C1085 1.392 . S
C1084 H1112 0.930 . S
C1085 C1084 1.392 . S
C1085 C1086 1.398 . S
C1085 H1113 0.929 . S
C1086 C1085 1.398 . S
C1086 C1087 1.352 . S
C1087 C1086 1.352 . S
C1087 C1088 1.384 . S
C1087 H1114 0.930 . S
C1088 C1083 1.407 . S
C1088 C1087 1.384 . S
C1088 H1115 0.929 . S
C1089 O1102 1.241 . S
C1089 O1103 1.273 . S
C1090 O1104 1.251 . S
C1090 O1105 1.268 . S
C1091 Nd1081 2.836 . S
C1091 C1092 1.498 . S
C1091 O1106 1.258 . S
C1091 O1107 1.239 . S
C1092 C1091 1.498 . S
C1092 C1093 1.366 . S
C1092 C1097 1.407 . S
C1093 C1092 1.366 . S
C1093 C1094 1.392 . S
C1093 H1116 0.930 . S
C1094 C1093 1.392 . S
C1094 C1095 1.398 . S
C1094 H1117 0.929 . S
C1095 C1094 1.398 . S
C1095 C1096 1.352 . S
C1096 C1095 1.352 . S
C1096 C1097 1.384 . S
C1096 H1118 0.930 1_545 S
C1097 C1092 1.407 . S
C1097 C1096 1.384 . S
C1097 H1119 0.929 . S
C1098 O1108 1.241 . S
C1098 O1109 1.273 . S
C1099 O1110 1.251 . S
C1099 O1111 1.268 . S
O1100 Nd1080 2.500 . S
O1100 C1082 1.258 . S
O1101 Nd1080 2.492 . S
O1101 C1082 1.239 . S
O1102 Nd1080 2.487 . S
O1102 C1089 1.241 . S
O1103 Nd1080 2.682 . S
O1103 Nd1081 2.414 . S
O1103 C1089 1.273 . S
O1104 Nd1080 2.410 . S
O1104 C1090 1.251 . S
O1105 Nd1081 2.424 . S
O1105 C1090 1.268 . S
O1106 Nd1081 2.500 . S
O1106 C1091 1.258 . S
O1107 Nd1081 2.492 . S
O1107 C1091 1.239 . S
O1108 Nd1081 2.487 . S
O1108 C1098 1.241 . S
O1109 Nd1080 2.414 . S
O1109 Nd1081 2.682 . S
O1109 C1098 1.273 . S
O1110 Nd1081 2.410 . S
O1110 C1099 1.251 . S
O1111 Nd1080 2.424 . S
O1111 C1099 1.268 . S
H1112 C1084 0.930 . S
H1113 C1085 0.929 . S
H1114 C1087 0.930 . S
H1115 C1088 0.929 . S
H1116 C1093 0.930 . S
H1117 C1094 0.929 . S
H1118 C1096 0.930 1_565 S
H1119 C1097 0.929 . S
Nd1120 C1122 2.836 . S
Nd1120 O1140 2.500 . S
Nd1120 O1141 2.492 . S
Nd1120 O1142 2.487 . S
Nd1120 O1143 2.682 . S
Nd1120 O1144 2.410 . S
Nd1120 O1149 2.414 . S
Nd1120 O1151 2.424 . S
Nd1121 C1131 2.836 . S
Nd1121 O1143 2.414 . S
Nd1121 O1145 2.424 . S
Nd1121 O1146 2.500 . S
Nd1121 O1147 2.492 . S
Nd1121 O1148 2.487 . S
Nd1121 O1149 2.682 . S
Nd1121 O1150 2.410 . S
C1122 Nd1120 2.836 . S
C1122 C1123 1.498 . S
C1122 O1140 1.258 . S
C1122 O1141 1.239 . S
C1123 C1122 1.498 . S
C1123 C1124 1.366 . S
C1123 C1128 1.407 . S
C1124 C1123 1.366 . S
C1124 C1125 1.392 . S
C1124 H1152 0.930 . S
C1125 C1124 1.392 . S
C1125 C1126 1.398 . S
C1125 H1153 0.929 . S
C1126 C1125 1.398 . S
C1126 C1127 1.352 . S
C1127 C1126 1.352 . S
C1127 C1128 1.384 . S
C1127 H1154 0.930 . S
C1128 C1123 1.407 . S
C1128 C1127 1.384 . S
C1128 H1155 0.929 . S
C1129 O1142 1.241 . S
C1129 O1143 1.273 . S
C1130 O1144 1.251 . S
C1130 O1145 1.268 . S
C1131 Nd1121 2.836 . S
C1131 C1132 1.498 . S
C1131 O1146 1.258 . S
C1131 O1147 1.239 . S
C1132 C1131 1.498 . S
C1132 C1133 1.366 . S
C1132 C1137 1.407 1_655 S
C1133 C1132 1.366 . S
C1133 C1134 1.392 1_655 S
C1133 H1156 0.930 . S
C1134 C1133 1.392 1_455 S
C1134 C1135 1.398 . S
C1134 H1157 0.929 . S
C1135 C1134 1.398 . S
C1135 C1136 1.352 . S
C1136 C1135 1.352 . S
C1136 C1137 1.384 . S
C1136 H1158 0.930 . S
C1137 C1132 1.407 1_455 S
C1137 C1136 1.384 . S
C1137 H1159 0.929 . S
C1138 O1148 1.241 . S
C1138 O1149 1.273 . S
C1139 O1150 1.251 . S
C1139 O1151 1.268 . S
O1140 Nd1120 2.500 . S
O1140 C1122 1.258 . S
O1141 Nd1120 2.492 . S
O1141 C1122 1.239 . S
O1142 Nd1120 2.487 . S
O1142 C1129 1.241 . S
O1143 Nd1120 2.682 . S
O1143 Nd1121 2.414 . S
O1143 C1129 1.273 . S
O1144 Nd1120 2.410 . S
O1144 C1130 1.251 . S
O1145 Nd1121 2.424 . S
O1145 C1130 1.268 . S
O1146 Nd1121 2.500 . S
O1146 C1131 1.258 . S
O1147 Nd1121 2.492 . S
O1147 C1131 1.239 . S
O1148 Nd1121 2.487 . S
O1148 C1138 1.241 . S
O1149 Nd1120 2.414 . S
O1149 Nd1121 2.682 . S
O1149 C1138 1.273 . S
O1150 Nd1121 2.410 . S
O1150 C1139 1.251 . S
O1151 Nd1120 2.424 . S
O1151 C1139 1.268 . S
H1152 C1124 0.930 . S
H1153 C1125 0.929 . S
H1154 C1127 0.930 . S
H1155 C1128 0.929 . S
H1156 C1133 0.930 . S
H1157 C1134 0.929 . S
H1158 C1136 0.930 . S
H1159 C1137 0.929 . S
Nd1160 C1162 2.836 . S
Nd1160 O1180 2.500 . S
Nd1160 O1181 2.492 . S
Nd1160 O1182 2.487 . S
Nd1160 O1183 2.682 . S
Nd1160 O1184 2.410 . S
Nd1160 O1189 2.414 . S
Nd1160 O1191 2.424 . S
Nd1161 C1171 2.836 . S
Nd1161 O1183 2.414 . S
Nd1161 O1185 2.424 . S
Nd1161 O1186 2.500 . S
Nd1161 O1187 2.492 . S
Nd1161 O1188 2.487 . S
Nd1161 O1189 2.682 . S
Nd1161 O1190 2.410 . S
C1162 Nd1160 2.836 . S
C1162 C1163 1.498 . S
C1162 O1180 1.258 . S
C1162 O1181 1.239 . S
C1163 C1162 1.498 . S
C1163 C1164 1.366 . S
C1163 C1168 1.407 . S
C1164 C1163 1.366 . S
C1164 C1165 1.392 . S
C1164 H1192 0.930 . S
C1165 C1164 1.392 . S
C1165 C1166 1.398 . S
C1165 H1193 0.929 . S
C1166 C1165 1.398 . S
C1166 C1167 1.352 . S
C1167 C1166 1.352 . S
C1167 C1168 1.384 . S
C1167 H1194 0.930 . S
C1168 C1163 1.407 . S
C1168 C1167 1.384 . S
C1168 H1195 0.929 . S
C1169 O1182 1.241 . S
C1169 O1183 1.273 . S
C1170 O1184 1.251 . S
C1170 O1185 1.268 . S
C1171 Nd1161 2.836 . S
C1171 C1172 1.498 . S
C1171 O1186 1.258 . S
C1171 O1187 1.239 . S
C1172 C1171 1.498 . S
C1172 C1173 1.366 . S
C1172 C1177 1.407 . S
C1173 C1172 1.366 . S
C1173 C1174 1.392 . S
C1173 H1196 0.930 . S
C1174 C1173 1.392 . S
C1174 C1175 1.398 . S
C1174 H1197 0.929 . S
C1175 C1174 1.398 . S
C1175 C1176 1.352 . S
C1176 C1175 1.352 . S
C1176 C1177 1.384 . S
C1176 H1198 0.930 . S
C1177 C1172 1.407 . S
C1177 C1176 1.384 . S
C1177 H1199 0.929 . S
C1178 O1188 1.241 . S
C1178 O1189 1.273 . S
C1179 O1190 1.251 . S
C1179 O1191 1.268 . S
O1180 Nd1160 2.500 . S
O1180 C1162 1.258 . S
O1181 Nd1160 2.492 . S
O1181 C1162 1.239 . S
O1182 Nd1160 2.487 . S
O1182 C1169 1.241 . S
O1183 Nd1160 2.682 . S
O1183 Nd1161 2.414 . S
O1183 C1169 1.273 . S
O1184 Nd1160 2.410 . S
O1184 C1170 1.251 . S
O1185 Nd1161 2.424 . S
O1185 C1170 1.268 . S
O1186 Nd1161 2.500 . S
O1186 C1171 1.258 . S
O1187 Nd1161 2.492 . S
O1187 C1171 1.239 . S
O1188 Nd1161 2.487 . S
O1188 C1178 1.241 . S
O1189 Nd1160 2.414 . S
O1189 Nd1161 2.682 . S
O1189 C1178 1.273 . S
O1190 Nd1161 2.410 . S
O1190 C1179 1.251 . S
O1191 Nd1160 2.424 . S
O1191 C1179 1.268 . S
H1192 C1164 0.930 . S
H1193 C1165 0.929 . S
H1194 C1167 0.930 . S
H1195 C1168 0.929 . S
H1196 C1173 0.930 . S
H1197 C1174 0.929 . S
H1198 C1176 0.930 . S
H1199 C1177 0.929 . S
Nd1200 C1202 2.836 . S
Nd1200 O1220 2.500 . S
Nd1200 O1221 2.492 . S
Nd1200 O1222 2.487 . S
Nd1200 O1223 2.682 . S
Nd1200 O1224 2.410 . S
Nd1200 O1229 2.414 . S
Nd1200 O1231 2.424 . S
Nd1201 C1211 2.836 . S
Nd1201 O1223 2.414 . S
Nd1201 O1225 2.424 . S
Nd1201 O1226 2.500 . S
Nd1201 O1227 2.492 . S
Nd1201 O1228 2.487 . S
Nd1201 O1229 2.682 . S
Nd1201 O1230 2.410 . S
C1202 Nd1200 2.836 . S
C1202 C1203 1.498 . S
C1202 O1220 1.258 . S
C1202 O1221 1.239 . S
C1203 C1202 1.498 . S
C1203 C1204 1.366 . S
C1203 C1208 1.407 1_655 S
C1204 C1203 1.366 . S
C1204 C1205 1.392 1_655 S
C1204 H1232 0.930 . S
C1205 C1204 1.392 1_455 S
C1205 C1206 1.398 . S
C1205 H1233 0.929 . S
C1206 C1205 1.398 . S
C1206 C1207 1.352 . S
C1207 C1206 1.352 . S
C1207 C1208 1.384 . S
C1207 H1234 0.930 . S
C1208 C1203 1.407 1_455 S
C1208 C1207 1.384 . S
C1208 H1235 0.929 . S
C1209 O1222 1.241 . S
C1209 O1223 1.273 . S
C1210 O1224 1.251 . S
C1210 O1225 1.268 . S
C1211 Nd1201 2.836 . S
C1211 C1212 1.498 . S
C1211 O1226 1.258 . S
C1211 O1227 1.239 . S
C1212 C1211 1.498 . S
C1212 C1213 1.366 . S
C1212 C1217 1.407 . S
C1213 C1212 1.366 . S
C1213 C1214 1.392 . S
C1213 H1236 0.930 . S
C1214 C1213 1.392 . S
C1214 C1215 1.398 . S
C1214 H1237 0.929 . S
C1215 C1214 1.398 . S
C1215 C1216 1.352 . S
C1216 C1215 1.352 . S
C1216 C1217 1.384 . S
C1216 H1238 0.930 . S
C1217 C1212 1.407 . S
C1217 C1216 1.384 . S
C1217 H1239 0.929 . S
C1218 O1228 1.241 . S
C1218 O1229 1.273 . S
C1219 O1230 1.251 . S
C1219 O1231 1.268 . S
O1220 Nd1200 2.500 . S
O1220 C1202 1.258 . S
O1221 Nd1200 2.492 . S
O1221 C1202 1.239 . S
O1222 Nd1200 2.487 . S
O1222 C1209 1.241 . S
O1223 Nd1200 2.682 . S
O1223 Nd1201 2.414 . S
O1223 C1209 1.273 . S
O1224 Nd1200 2.410 . S
O1224 C1210 1.251 . S
O1225 Nd1201 2.424 . S
O1225 C1210 1.268 . S
O1226 Nd1201 2.500 . S
O1226 C1211 1.258 . S
O1227 Nd1201 2.492 . S
O1227 C1211 1.239 . S
O1228 Nd1201 2.487 . S
O1228 C1218 1.241 . S
O1229 Nd1200 2.414 . S
O1229 Nd1201 2.682 . S
O1229 C1218 1.273 . S
O1230 Nd1201 2.410 . S
O1230 C1219 1.251 . S
O1231 Nd1200 2.424 . S
O1231 C1219 1.268 . S
H1232 C1204 0.930 . S
H1233 C1205 0.929 . S
H1234 C1207 0.930 . S
H1235 C1208 0.929 . S
H1236 C1213 0.930 . S
H1237 C1214 0.929 . S
H1238 C1216 0.930 . S
H1239 C1217 0.929 . S
Nd1240 C1242 2.836 . S
Nd1240 O1260 2.500 . S
Nd1240 O1261 2.492 . S
Nd1240 O1262 2.487 . S
Nd1240 O1263 2.682 . S
Nd1240 O1264 2.410 . S
Nd1240 O1269 2.414 . S
Nd1240 O1271 2.424 . S
Nd1241 C1251 2.836 . S
Nd1241 O1263 2.414 . S
Nd1241 O1265 2.424 . S
Nd1241 O1266 2.500 . S
Nd1241 O1267 2.492 . S
Nd1241 O1268 2.487 . S
Nd1241 O1269 2.682 . S
Nd1241 O1270 2.410 . S
C1242 Nd1240 2.836 . S
C1242 C1243 1.498 . S
C1242 O1260 1.258 . S
C1242 O1261 1.239 . S
C1243 C1242 1.498 . S
C1243 C1244 1.366 . S
C1243 C1248 1.407 . S
C1244 C1243 1.366 . S
C1244 C1245 1.392 . S
C1244 H1272 0.930 . S
C1245 C1244 1.392 . S
C1245 C1246 1.398 . S
C1245 H1273 0.929 . S
C1246 C1245 1.398 . S
C1246 C1247 1.352 . S
C1247 C1246 1.352 . S
C1247 C1248 1.384 . S
C1247 H1274 0.930 . S
C1248 C1243 1.407 . S
C1248 C1247 1.384 . S
C1248 H1275 0.929 . S
C1249 O1262 1.241 . S
C1249 O1263 1.273 . S
C1250 O1264 1.251 . S
C1250 O1265 1.268 . S
C1251 Nd1241 2.836 . S
C1251 C1252 1.498 . S
C1251 O1266 1.258 . S
C1251 O1267 1.239 . S
C1252 C1251 1.498 . S
C1252 C1253 1.366 . S
C1252 C1257 1.407 . S
C1253 C1252 1.366 . S
C1253 C1254 1.392 . S
C1253 H1276 0.930 . S
C1254 C1253 1.392 . S
C1254 C1255 1.398 . S
C1254 H1277 0.929 . S
C1255 C1254 1.398 . S
C1255 C1256 1.352 . S
C1256 C1255 1.352 . S
C1256 C1257 1.384 . S
C1256 H1278 0.930 . S
C1257 C1252 1.407 . S
C1257 C1256 1.384 . S
C1257 H1279 0.929 . S
C1258 O1268 1.241 . S
C1258 O1269 1.273 . S
C1259 O1270 1.251 . S
C1259 O1271 1.268 . S
O1260 Nd1240 2.500 . S
O1260 C1242 1.258 . S
O1261 Nd1240 2.492 . S
O1261 C1242 1.239 . S
O1262 Nd1240 2.487 . S
O1262 C1249 1.241 . S
O1263 Nd1240 2.682 . S
O1263 Nd1241 2.414 . S
O1263 C1249 1.273 . S
O1264 Nd1240 2.410 . S
O1264 C1250 1.251 . S
O1265 Nd1241 2.424 . S
O1265 C1250 1.268 . S
O1266 Nd1241 2.500 . S
O1266 C1251 1.258 . S
O1267 Nd1241 2.492 . S
O1267 C1251 1.239 . S
O1268 Nd1241 2.487 . S
O1268 C1258 1.241 . S
O1269 Nd1240 2.414 . S
O1269 Nd1241 2.682 . S
O1269 C1258 1.273 . S
O1270 Nd1241 2.410 . S
O1270 C1259 1.251 . S
O1271 Nd1240 2.424 . S
O1271 C1259 1.268 . S
H1272 C1244 0.930 . S
H1273 C1245 0.929 . S
H1274 C1247 0.930 . S
H1275 C1248 0.929 . S
H1276 C1253 0.930 . S
H1277 C1254 0.929 . S
H1278 C1256 0.930 . S
H1279 C1257 0.929 . S
Nd1280 C1282 2.836 . S
Nd1280 O1300 2.500 . S
Nd1280 O1301 2.492 . S
Nd1280 O1302 2.487 . S
Nd1280 O1303 2.682 . S
Nd1280 O1304 2.410 . S
Nd1280 O1309 2.414 . S
Nd1280 O1311 2.424 . S
Nd1281 C1291 2.836 . S
Nd1281 O1303 2.414 . S
Nd1281 O1305 2.424 . S
Nd1281 O1306 2.500 . S
Nd1281 O1307 2.492 . S
Nd1281 O1308 2.487 . S
Nd1281 O1309 2.682 . S
Nd1281 O1310 2.410 . S
C1282 Nd1280 2.836 . S
C1282 C1283 1.498 . S
C1282 O1300 1.258 . S
C1282 O1301 1.239 . S
C1283 C1282 1.498 . S
C1283 C1284 1.366 . S
C1283 C1288 1.407 . S
C1284 C1283 1.366 . S
C1284 C1285 1.392 . S
C1284 H1312 0.930 . S
C1285 C1284 1.392 . S
C1285 C1286 1.398 . S
C1285 H1313 0.929 . S
C1286 C1285 1.398 . S
C1286 C1287 1.352 . S
C1287 C1286 1.352 . S
C1287 C1288 1.384 . S
C1287 H1314 0.930 1_545 S
C1288 C1283 1.407 . S
C1288 C1287 1.384 . S
C1288 H1315 0.929 . S
C1289 O1302 1.241 . S
C1289 O1303 1.273 . S
C1290 O1304 1.251 . S
C1290 O1305 1.268 . S
C1291 Nd1281 2.836 . S
C1291 C1292 1.498 . S
C1291 O1306 1.258 . S
C1291 O1307 1.239 . S
C1292 C1291 1.498 . S
C1292 C1293 1.366 . S
C1292 C1297 1.407 . S
C1293 C1292 1.366 . S
C1293 C1294 1.392 . S
C1293 H1316 0.930 . S
C1294 C1293 1.392 . S
C1294 C1295 1.398 . S
C1294 H1317 0.929 . S
C1295 C1294 1.398 . S
C1295 C1296 1.352 . S
C1296 C1295 1.352 . S
C1296 C1297 1.384 . S
C1296 H1318 0.930 . S
C1297 C1292 1.407 . S
C1297 C1296 1.384 . S
C1297 H1319 0.929 . S
C1298 O1308 1.241 . S
C1298 O1309 1.273 . S
C1299 O1310 1.251 . S
C1299 O1311 1.268 . S
O1300 Nd1280 2.500 . S
O1300 C1282 1.258 . S
O1301 Nd1280 2.492 . S
O1301 C1282 1.239 . S
O1302 Nd1280 2.487 . S
O1302 C1289 1.241 . S
O1303 Nd1280 2.682 . S
O1303 Nd1281 2.414 . S
O1303 C1289 1.273 . S
O1304 Nd1280 2.410 . S
O1304 C1290 1.251 . S
O1305 Nd1281 2.424 . S
O1305 C1290 1.268 . S
O1306 Nd1281 2.500 . S
O1306 C1291 1.258 . S
O1307 Nd1281 2.492 . S
O1307 C1291 1.239 . S
O1308 Nd1281 2.487 . S
O1308 C1298 1.241 . S
O1309 Nd1280 2.414 . S
O1309 Nd1281 2.682 . S
O1309 C1298 1.273 . S
O1310 Nd1281 2.410 . S
O1310 C1299 1.251 . S
O1311 Nd1280 2.424 . S
O1311 C1299 1.268 . S
H1312 C1284 0.930 . S
H1313 C1285 0.929 . S
H1314 C1287 0.930 1_565 S
H1315 C1288 0.929 . S
H1316 C1293 0.930 . S
H1317 C1294 0.929 . S
H1318 C1296 0.930 . S
H1319 C1297 0.929 . S
Nd1320 C1322 2.836 . S
Nd1320 O1340 2.500 . S
Nd1320 O1341 2.492 . S
Nd1320 O1342 2.487 . S
Nd1320 O1343 2.682 . S
Nd1320 O1344 2.410 . S
Nd1320 O1349 2.414 . S
Nd1320 O1351 2.424 . S
Nd1321 C1331 2.836 . S
Nd1321 O1343 2.414 . S
Nd1321 O1345 2.424 . S
Nd1321 O1346 2.500 . S
Nd1321 O1347 2.492 . S
Nd1321 O1348 2.487 . S
Nd1321 O1349 2.682 . S
Nd1321 O1350 2.410 . S
C1322 Nd1320 2.836 . S
C1322 C1323 1.498 . S
C1322 O1340 1.258 . S
C1322 O1341 1.239 . S
C1323 C1322 1.498 . S
C1323 C1324 1.366 . S
C1323 C1328 1.407 . S
C1324 C1323 1.366 . S
C1324 C1325 1.392 . S
C1324 H1352 0.930 . S
C1325 C1324 1.392 . S
C1325 C1326 1.398 . S
C1325 H1353 0.929 . S
C1326 C1325 1.398 . S
C1326 C1327 1.352 . S
C1327 C1326 1.352 . S
C1327 C1328 1.384 . S
C1327 H1354 0.930 . S
C1328 C1323 1.407 . S
C1328 C1327 1.384 . S
C1328 H1355 0.929 . S
C1329 O1342 1.241 . S
C1329 O1343 1.273 . S
C1330 O1344 1.251 . S
C1330 O1345 1.268 . S
C1331 Nd1321 2.836 . S
C1331 C1332 1.498 . S
C1331 O1346 1.258 . S
C1331 O1347 1.239 . S
C1332 C1331 1.498 . S
C1332 C1333 1.366 . S
C1332 C1337 1.407 . S
C1333 C1332 1.366 . S
C1333 C1334 1.392 . S
C1333 H1356 0.930 . S
C1334 C1333 1.392 . S
C1334 C1335 1.398 . S
C1334 H1357 0.929 . S
C1335 C1334 1.398 . S
C1335 C1336 1.352 . S
C1336 C1335 1.352 . S
C1336 C1337 1.384 . S
C1336 H1358 0.930 . S
C1337 C1332 1.407 . S
C1337 C1336 1.384 . S
C1337 H1359 0.929 . S
C1338 O1348 1.241 . S
C1338 O1349 1.273 . S
C1339 O1350 1.251 . S
C1339 O1351 1.268 . S
O1340 Nd1320 2.500 . S
O1340 C1322 1.258 . S
O1341 Nd1320 2.492 . S
O1341 C1322 1.239 . S
O1342 Nd1320 2.487 . S
O1342 C1329 1.241 . S
O1343 Nd1320 2.682 . S
O1343 Nd1321 2.414 . S
O1343 C1329 1.273 . S
O1344 Nd1320 2.410 . S
O1344 C1330 1.251 . S
O1345 Nd1321 2.424 . S
O1345 C1330 1.268 . S
O1346 Nd1321 2.500 . S
O1346 C1331 1.258 . S
O1347 Nd1321 2.492 . S
O1347 C1331 1.239 . S
O1348 Nd1321 2.487 . S
O1348 C1338 1.241 . S
O1349 Nd1320 2.414 . S
O1349 Nd1321 2.682 . S
O1349 C1338 1.273 . S
O1350 Nd1321 2.410 . S
O1350 C1339 1.251 . S
O1351 Nd1320 2.424 . S
O1351 C1339 1.268 . S
H1352 C1324 0.930 . S
H1353 C1325 0.929 . S
H1354 C1327 0.930 . S
H1355 C1328 0.929 . S
H1356 C1333 0.930 . S
H1357 C1334 0.929 . S
H1358 C1336 0.930 . S
H1359 C1337 0.929 . S
Nd1360 C1362 2.836 . S
Nd1360 O1380 2.500 . S
Nd1360 O1381 2.492 . S
Nd1360 O1382 2.487 . S
Nd1360 O1383 2.682 . S
Nd1360 O1384 2.410 . S
Nd1360 O1389 2.414 . S
Nd1360 O1391 2.424 . S
Nd1361 C1371 2.836 . S
Nd1361 O1383 2.414 . S
Nd1361 O1385 2.424 . S
Nd1361 O1386 2.500 . S
Nd1361 O1387 2.492 . S
Nd1361 O1388 2.487 . S
Nd1361 O1389 2.682 . S
Nd1361 O1390 2.410 . S
C1362 Nd1360 2.836 . S
C1362 C1363 1.498 . S
C1362 O1380 1.258 . S
C1362 O1381 1.239 . S
C1363 C1362 1.498 . S
C1363 C1364 1.366 . S
C1363 C1368 1.407 . S
C1364 C1363 1.366 . S
C1364 C1365 1.392 . S
C1364 H1392 0.930 . S
C1365 C1364 1.392 . S
C1365 C1366 1.398 . S
C1365 H1393 0.929 . S
C1366 C1365 1.398 . S
C1366 C1367 1.352 . S
C1367 C1366 1.352 . S
C1367 C1368 1.384 . S
C1367 H1394 0.930 . S
C1368 C1363 1.407 . S
C1368 C1367 1.384 . S
C1368 H1395 0.929 . S
C1369 O1382 1.241 . S
C1369 O1383 1.273 . S
C1370 O1384 1.251 . S
C1370 O1385 1.268 . S
C1371 Nd1361 2.836 . S
C1371 C1372 1.498 . S
C1371 O1386 1.258 . S
C1371 O1387 1.239 . S
C1372 C1371 1.498 . S
C1372 C1373 1.366 . S
C1372 C1377 1.407 . S
C1373 C1372 1.366 . S
C1373 C1374 1.392 . S
C1373 H1396 0.930 . S
C1374 C1373 1.392 . S
C1374 C1375 1.398 1_655 S
C1374 H1397 0.929 . S
C1375 C1374 1.398 1_455 S
C1375 C1376 1.352 . S
C1376 C1375 1.352 . S
C1376 C1377 1.384 1_455 S
C1376 H1398 0.930 . S
C1377 C1372 1.407 . S
C1377 C1376 1.384 1_655 S
C1377 H1399 0.929 . S
C1378 O1388 1.241 . S
C1378 O1389 1.273 . S
C1379 O1390 1.251 . S
C1379 O1391 1.268 . S
O1380 Nd1360 2.500 . S
O1380 C1362 1.258 . S
O1381 Nd1360 2.492 . S
O1381 C1362 1.239 . S
O1382 Nd1360 2.487 . S
O1382 C1369 1.241 . S
O1383 Nd1360 2.682 . S
O1383 Nd1361 2.414 . S
O1383 C1369 1.273 . S
O1384 Nd1360 2.410 . S
O1384 C1370 1.251 . S
O1385 Nd1361 2.424 . S
O1385 C1370 1.268 . S
O1386 Nd1361 2.500 . S
O1386 C1371 1.258 . S
O1387 Nd1361 2.492 . S
O1387 C1371 1.239 . S
O1388 Nd1361 2.487 . S
O1388 C1378 1.241 . S
O1389 Nd1360 2.414 . S
O1389 Nd1361 2.682 . S
O1389 C1378 1.273 . S
O1390 Nd1361 2.410 . S
O1390 C1379 1.251 . S
O1391 Nd1360 2.424 . S
O1391 C1379 1.268 . S
H1392 C1364 0.930 . S
H1393 C1365 0.929 . S
H1394 C1367 0.930 . S
H1395 C1368 0.929 . S
H1396 C1373 0.930 . S
H1397 C1374 0.929 . S
H1398 C1376 0.930 . S
H1399 C1377 0.929 . S
Nd1400 C1402 2.836 . S
Nd1400 O1420 2.500 . S
Nd1400 O1421 2.492 . S
Nd1400 O1422 2.487 . S
Nd1400 O1423 2.682 . S
Nd1400 O1424 2.410 . S
Nd1400 O1429 2.414 . S
Nd1400 O1431 2.424 . S
Nd1401 C1411 2.836 . S
Nd1401 O1423 2.414 . S
Nd1401 O1425 2.424 . S
Nd1401 O1426 2.500 . S
Nd1401 O1427 2.492 . S
Nd1401 O1428 2.487 . S
Nd1401 O1429 2.682 . S
Nd1401 O1430 2.410 . S
C1402 Nd1400 2.836 . S
C1402 C1403 1.498 . S
C1402 O1420 1.258 . S
C1402 O1421 1.239 . S
C1403 C1402 1.498 . S
C1403 C1404 1.366 . S
C1403 C1408 1.407 . S
C1404 C1403 1.366 . S
C1404 C1405 1.392 . S
C1404 H1432 0.930 . S
C1405 C1404 1.392 . S
C1405 C1406 1.398 . S
C1405 H1433 0.929 . S
C1406 C1405 1.398 . S
C1406 C1407 1.352 . S
C1407 C1406 1.352 . S
C1407 C1408 1.384 . S
C1407 H1434 0.930 . S
C1408 C1403 1.407 . S
C1408 C1407 1.384 . S
C1408 H1435 0.929 . S
C1409 O1422 1.241 . S
C1409 O1423 1.273 . S
C1410 O1424 1.251 . S
C1410 O1425 1.268 . S
C1411 Nd1401 2.836 . S
C1411 C1412 1.498 . S
C1411 O1426 1.258 . S
C1411 O1427 1.239 . S
C1412 C1411 1.498 . S
C1412 C1413 1.366 . S
C1412 C1417 1.407 . S
C1413 C1412 1.366 . S
C1413 C1414 1.392 . S
C1413 H1436 0.930 . S
C1414 C1413 1.392 . S
C1414 C1415 1.398 . S
C1414 H1437 0.929 . S
C1415 C1414 1.398 . S
C1415 C1416 1.352 . S
C1416 C1415 1.352 . S
C1416 C1417 1.384 . S
C1416 H1438 0.930 . S
C1417 C1412 1.407 . S
C1417 C1416 1.384 . S
C1417 H1439 0.929 . S
C1418 O1428 1.241 . S
C1418 O1429 1.273 . S
C1419 O1430 1.251 . S
C1419 O1431 1.268 . S
O1420 Nd1400 2.500 . S
O1420 C1402 1.258 . S
O1421 Nd1400 2.492 . S
O1421 C1402 1.239 . S
O1422 Nd1400 2.487 . S
O1422 C1409 1.241 . S
O1423 Nd1400 2.682 . S
O1423 Nd1401 2.414 . S
O1423 C1409 1.273 . S
O1424 Nd1400 2.410 . S
O1424 C1410 1.251 . S
O1425 Nd1401 2.424 . S
O1425 C1410 1.268 . S
O1426 Nd1401 2.500 . S
O1426 C1411 1.258 . S
O1427 Nd1401 2.492 . S
O1427 C1411 1.239 . S
O1428 Nd1401 2.487 . S
O1428 C1418 1.241 . S
O1429 Nd1400 2.414 . S
O1429 Nd1401 2.682 . S
O1429 C1418 1.273 . S
O1430 Nd1401 2.410 . S
O1430 C1419 1.251 . S
O1431 Nd1400 2.424 . S
O1431 C1419 1.268 . S
H1432 C1404 0.930 . S
H1433 C1405 0.929 . S
H1434 C1407 0.930 . S
H1435 C1408 0.929 . S
H1436 C1413 0.930 . S
H1437 C1414 0.929 . S
H1438 C1416 0.930 . S
H1439 C1417 0.929 . S
C1440 C1441 1.349 . S
C1440 C1442 1.327 . S
C1440 H1465 0.950 . S
C1441 C1440 1.349 . S
C1441 C1457 1.349 . S
C1442 C1440 1.327 . S
C1442 C1461 1.429 . S
C1442 H1466 0.950 . S
C1443 C1460 1.574 . S
C1443 C1462 1.368 . S
C1443 H1467 0.949 . S
H1444 C1448 0.949 . S
C1445 C1446 1.349 . S
C1445 C1447 1.327 . S
C1445 H1468 0.950 . S
C1446 C1445 1.349 . S
C1446 C1458 1.349 . S
C1447 C1445 1.327 . S
C1447 C1463 1.429 . S
C1447 H1469 0.950 . S
C1448 H1444 0.949 . S
C1448 C1456 1.574 . S
C1448 C1464 1.368 . S
H1449 C1457 0.950 . S
H1450 C1455 0.950 . S
H1451 C1456 0.949 . S
H1452 C1458 0.950 . S
H1453 C1459 0.950 . S
H1454 C1460 0.949 . S
C1455 H1450 0.950 . S
C1455 C1457 1.327 . S
C1455 C1461 1.429 . S
C1456 C1448 1.574 . S
C1456 H1451 0.949 . S
C1456 C1462 1.368 . S
C1457 C1441 1.349 . S
C1457 H1449 0.950 . S
C1457 C1455 1.327 . S
C1458 C1446 1.349 . S
C1458 H1452 0.950 . S
C1458 C1459 1.327 . S
C1459 H1453 0.950 . S
C1459 C1458 1.327 . S
C1459 C1463 1.429 . S
C1460 C1443 1.574 . S
C1460 H1454 0.949 . S
C1460 C1464 1.368 . S
C1461 C1442 1.429 . S
C1461 C1455 1.429 . S
C1461 C1462 1.523 . S
C1462 C1443 1.368 . S
C1462 C1456 1.368 . S
C1462 C1461 1.523 . S
C1463 C1447 1.429 . S
C1463 C1459 1.429 . S
C1463 C1464 1.523 . S
C1464 C1448 1.368 . S
C1464 C1460 1.368 . S
C1464 C1463 1.523 . S
H1465 C1440 0.950 . S
H1466 C1442 0.950 . S
H1467 C1443 0.949 . S
H1468 C1445 0.950 . S
H1469 C1447 0.950 . S
C1470 C1471 1.349 . S
C1470 C1472 1.327 . S
C1470 H1495 0.950 . S
C1471 C1470 1.349 . S
C1471 C1487 1.349 . S
C1472 C1470 1.327 . S
C1472 C1491 1.429 . S
C1472 H1496 0.950 . S
C1473 C1490 1.574 . S
C1473 C1492 1.368 . S
C1473 H1497 0.949 . S
H1474 C1478 0.949 . S
C1475 C1476 1.349 . S
C1475 C1477 1.327 . S
C1475 H1498 0.950 . S
C1476 C1475 1.349 . S
C1476 C1488 1.349 1_655 S
C1477 C1475 1.327 . S
C1477 C1493 1.429 . S
C1477 H1499 0.950 . S
C1478 H1474 0.949 . S
C1478 C1486 1.574 . S
C1478 C1494 1.368 . S
H1479 C1487 0.950 . S
H1480 C1485 0.950 . S
H1481 C1486 0.949 . S
H1482 C1488 0.950 . S
H1483 C1489 0.948 1_455 S
H1484 C1490 0.949 . S
C1485 H1480 0.950 . S
C1485 C1487 1.327 . S
C1485 C1491 1.429 . S
C1486 C1478 1.574 . S
C1486 H1481 0.949 . S
C1486 C1492 1.368 . S
C1487 C1471 1.349 . S
C1487 H1479 0.950 . S
C1487 C1485 1.327 . S
C1488 C1476 1.349 1_455 S
C1488 H1482 0.950 . S
C1488 C1489 1.327 1_455 S
C1489 H1483 0.948 1_655 S
C1489 C1488 1.327 1_655 S
C1489 C1493 1.429 . S
C1490 C1473 1.574 . S
C1490 H1484 0.949 . S
C1490 C1494 1.368 . S
C1491 C1472 1.429 . S
C1491 C1485 1.429 . S
C1491 C1492 1.523 . S
C1492 C1473 1.368 . S
C1492 C1486 1.368 . S
C1492 C1491 1.523 . S
C1493 C1477 1.429 . S
C1493 C1489 1.429 . S
C1493 C1494 1.523 . S
C1494 C1478 1.368 . S
C1494 C1490 1.368 . S
C1494 C1493 1.523 . S
H1495 C1470 0.950 . S
H1496 C1472 0.950 . S
H1497 C1473 0.949 . S
H1498 C1475 0.950 . S
H1499 C1477 0.950 . S
C1500 C1501 1.349 . S
C1500 C1502 1.327 . S
C1500 H1525 0.950 . S
C1501 C1500 1.349 . S
C1501 C1517 1.349 . S
C1502 C1500 1.327 . S
C1502 C1521 1.429 . S
C1502 H1526 0.950 . S
C1503 C1520 1.574 . S
C1503 C1522 1.368 . S
C1503 H1527 0.949 . S
H1504 C1508 0.949 . S
C1505 C1506 1.349 . S
C1505 C1507 1.327 . S
C1505 H1528 0.950 . S
C1506 C1505 1.349 . S
C1506 C1518 1.349 . S
C1507 C1505 1.327 . S
C1507 C1523 1.429 . S
C1507 H1529 0.950 . S
C1508 H1504 0.949 . S
C1508 C1516 1.574 . S
C1508 C1524 1.368 . S
H1509 C1517 0.950 . S
H1510 C1515 0.950 . S
H1511 C1516 0.949 . S
H1512 C1518 0.950 . S
H1513 C1519 0.950 . S
H1514 C1520 0.949 . S
C1515 H1510 0.950 . S
C1515 C1517 1.327 . S
C1515 C1521 1.429 . S
C1516 C1508 1.574 . S
C1516 H1511 0.949 . S
C1516 C1522 1.368 . S
C1517 C1501 1.349 . S
C1517 H1509 0.950 . S
C1517 C1515 1.327 . S
C1518 C1506 1.349 . S
C1518 H1512 0.950 . S
C1518 C1519 1.327 . S
C1519 H1513 0.950 . S
C1519 C1518 1.327 . S
C1519 C1523 1.429 . S
C1520 C1503 1.574 . S
C1520 H1514 0.949 . S
C1520 C1524 1.368 . S
C1521 C1502 1.429 . S
C1521 C1515 1.429 . S
C1521 C1522 1.523 . S
C1522 C1503 1.368 . S
C1522 C1516 1.368 . S
C1522 C1521 1.523 . S
C1523 C1507 1.429 . S
C1523 C1519 1.429 . S
C1523 C1524 1.523 . S
C1524 C1508 1.368 . S
C1524 C1520 1.368 . S
C1524 C1523 1.523 . S
H1525 C1500 0.950 . S
H1526 C1502 0.950 . S
H1527 C1503 0.949 . S
H1528 C1505 0.950 . S
H1529 C1507 0.950 . S
C1530 C1531 1.349 . S
C1530 C1532 1.327 . S
C1530 H1555 0.950 . S
C1531 C1530 1.349 . S
C1531 C1547 1.349 . S
C1532 C1530 1.327 . S
C1532 C1551 1.429 . S
C1532 H1556 0.950 . S
C1533 C1550 1.574 . S
C1533 C1552 1.368 . S
C1533 H1557 0.949 . S
H1534 C1538 0.949 . S
C1535 C1536 1.349 . S
C1535 C1537 1.327 . S
C1535 H1558 0.950 . S
C1536 C1535 1.349 . S
C1536 C1548 1.349 . S
C1537 C1535 1.327 . S
C1537 C1553 1.429 . S
C1537 H1559 0.950 . S
C1538 H1534 0.949 . S
C1538 C1546 1.574 . S
C1538 C1554 1.368 . S
H1539 C1547 0.950 . S
H1540 C1545 0.950 . S
H1541 C1546 0.949 . S
H1542 C1548 0.950 . S
H1543 C1549 0.950 . S
H1544 C1550 0.949 . S
C1545 H1540 0.950 . S
C1545 C1547 1.327 . S
C1545 C1551 1.429 . S
C1546 C1538 1.574 . S
C1546 H1541 0.949 . S
C1546 C1552 1.368 . S
C1547 C1531 1.349 . S
C1547 H1539 0.950 . S
C1547 C1545 1.327 . S
C1548 C1536 1.349 . S
C1548 H1542 0.950 . S
C1548 C1549 1.327 . S
C1549 H1543 0.950 . S
C1549 C1548 1.327 . S
C1549 C1553 1.429 . S
C1550 C1533 1.574 . S
C1550 H1544 0.949 . S
C1550 C1554 1.368 . S
C1551 C1532 1.429 . S
C1551 C1545 1.429 . S
C1551 C1552 1.523 . S
C1552 C1533 1.368 . S
C1552 C1546 1.368 . S
C1552 C1551 1.523 . S
C1553 C1537 1.429 . S
C1553 C1549 1.429 . S
C1553 C1554 1.523 . S
C1554 C1538 1.368 . S
C1554 C1550 1.368 . S
C1554 C1553 1.523 . S
H1555 C1530 0.950 . S
H1556 C1532 0.950 . S
H1557 C1533 0.949 . S
H1558 C1535 0.950 . S
H1559 C1537 0.950 . S
C1560 C1561 1.349 . S
C1560 C1562 1.327 . S
C1560 H1585 0.950 . S
C1561 C1560 1.349 . S
C1561 C1577 1.349 . S
C1562 C1560 1.327 . S
C1562 C1581 1.429 . S
C1562 H1586 0.950 . S
C1563 C1580 1.574 . S
C1563 C1582 1.368 . S
C1563 H1587 0.949 . S
H1564 C1568 0.949 . S
C1565 C1566 1.349 . S
C1565 C1567 1.327 . S
C1565 H1588 0.950 . S
C1566 C1565 1.349 . S
C1566 C1578 1.349 . S
C1567 C1565 1.327 . S
C1567 C1583 1.429 . S
C1567 H1589 0.950 . S
C1568 H1564 0.949 . S
C1568 C1576 1.574 . S
C1568 C1584 1.368 . S
H1569 C1577 0.950 . S
H1570 C1575 0.950 . S
H1571 C1576 0.949 . S
H1572 C1578 0.950 . S
H1573 C1579 0.950 . S
H1574 C1580 0.949 . S
C1575 H1570 0.950 . S
C1575 C1577 1.327 . S
C1575 C1581 1.429 . S
C1576 C1568 1.574 . S
C1576 H1571 0.949 . S
C1576 C1582 1.368 . S
C1577 C1561 1.349 . S
C1577 H1569 0.950 . S
C1577 C1575 1.327 . S
C1578 C1566 1.349 . S
C1578 H1572 0.950 . S
C1578 C1579 1.327 . S
C1579 H1573 0.950 . S
C1579 C1578 1.327 . S
C1579 C1583 1.429 . S
C1580 C1563 1.574 . S
C1580 H1574 0.949 . S
C1580 C1584 1.368 . S
C1581 C1562 1.429 . S
C1581 C1575 1.429 . S
C1581 C1582 1.523 . S
C1582 C1563 1.368 . S
C1582 C1576 1.368 . S
C1582 C1581 1.523 . S
C1583 C1567 1.429 . S
C1583 C1579 1.429 . S
C1583 C1584 1.523 . S
C1584 C1568 1.368 . S
C1584 C1580 1.368 . S
C1584 C1583 1.523 . S
H1585 C1560 0.950 . S
H1586 C1562 0.950 . S
H1587 C1563 0.949 . S
H1588 C1565 0.950 . S
H1589 C1567 0.950 . S
C1590 C1591 1.349 . S
C1590 C1592 1.327 . S
C1590 H1615 0.950 . S
C1591 C1590 1.349 . S
C1591 C1607 1.349 . S
C1592 C1590 1.327 . S
C1592 C1611 1.429 . S
C1592 H1616 0.950 . S
C1593 C1610 1.574 . S
C1593 C1612 1.368 . S
C1593 H1617 0.949 . S
H1594 C1598 0.949 1_545 S
C1595 C1596 1.349 . S
C1595 C1597 1.327 . S
C1595 H1618 0.950 . S
C1596 C1595 1.349 . S
C1596 C1608 1.349 1_565 S
C1597 C1595 1.327 . S
C1597 C1613 1.429 . S
C1597 H1619 0.950 . S
C1598 H1594 0.949 1_565 S
C1598 C1606 1.574 . S
C1598 C1614 1.368 . S
H1599 C1607 0.950 . S
H1600 C1605 0.950 . S
H1601 C1606 0.949 . S
H1602 C1608 0.950 . S
H1603 C1609 0.950 . S
H1604 C1610 0.949 . S
C1605 H1600 0.950 . S
C1605 C1607 1.327 . S
C1605 C1611 1.429 . S
C1606 C1598 1.574 . S
C1606 H1601 0.949 . S
C1606 C1612 1.368 . S
C1607 C1591 1.349 . S
C1607 H1599 0.950 . S
C1607 C1605 1.327 . S
C1608 C1596 1.349 1_545 S
C1608 H1602 0.950 . S
C1608 C1609 1.327 . S
C1609 H1603 0.950 . S
C1609 C1608 1.327 . S
C1609 C1613 1.429 1_545 S
C1610 C1593 1.574 . S
C1610 H1604 0.949 . S
C1610 C1614 1.368 . S
C1611 C1592 1.429 . S
C1611 C1605 1.429 . S
C1611 C1612 1.523 . S
C1612 C1593 1.368 . S
C1612 C1606 1.368 . S
C1612 C1611 1.523 . S
C1613 C1597 1.429 . S
C1613 C1609 1.429 1_565 S
C1613 C1614 1.523 . S
C1614 C1598 1.368 . S
C1614 C1610 1.368 . S
C1614 C1613 1.523 . S
H1615 C1590 0.950 . S
H1616 C1592 0.950 . S
H1617 C1593 0.949 . S
H1618 C1595 0.950 . S
H1619 C1597 0.950 . S
C1620 C1621 1.349 . S
C1620 C1622 1.327 . S
C1620 H1645 0.950 . S
C1621 C1620 1.349 . S
C1621 C1637 1.349 1_565 S
C1622 C1620 1.327 . S
C1622 C1641 1.429 . S
C1622 H1646 0.950 . S
C1623 C1640 1.574 . S
C1623 C1642 1.368 . S
C1623 H1647 0.949 1_565 S
H1624 C1628 0.949 . S
C1625 C1626 1.349 . S
C1625 C1627 1.327 . S
C1625 H1648 0.950 . S
C1626 C1625 1.349 . S
C1626 C1638 1.349 . S
C1627 C1625 1.327 . S
C1627 C1643 1.429 . S
C1627 H1649 0.950 . S
C1628 H1624 0.949 . S
C1628 C1636 1.574 . S
C1628 C1644 1.368 . S
H1629 C1637 0.950 . S
H1630 C1635 0.950 . S
H1631 C1636 0.949 . S
H1632 C1638 0.950 . S
H1633 C1639 0.950 . S
H1634 C1640 0.949 . S
C1635 H1630 0.950 . S
C1635 C1637 1.327 . S
C1635 C1641 1.429 1_545 S
C1636 C1628 1.574 . S
C1636 H1631 0.949 . S
C1636 C1642 1.368 . S
C1637 C1621 1.349 1_545 S
C1637 H1629 0.950 . S
C1637 C1635 1.327 . S
C1638 C1626 1.349 . S
C1638 H1632 0.950 . S
C1638 C1639 1.327 . S
C1639 H1633 0.950 . S
C1639 C1638 1.327 . S
C1639 C1643 1.429 . S
C1640 C1623 1.574 . S
C1640 H1634 0.949 . S
C1640 C1644 1.368 . S
C1641 C1622 1.429 . S
C1641 C1635 1.429 1_565 S
C1641 C1642 1.523 . S
C1642 C1623 1.368 . S
C1642 C1636 1.368 . S
C1642 C1641 1.523 . S
C1643 C1627 1.429 . S
C1643 C1639 1.429 . S
C1643 C1644 1.523 . S
C1644 C1628 1.368 . S
C1644 C1640 1.368 . S
C1644 C1643 1.523 . S
H1645 C1620 0.950 . S
H1646 C1622 0.950 . S
H1647 C1623 0.949 1_545 S
H1648 C1625 0.950 . S
H1649 C1627 0.950 . S
C1650 C1651 1.349 . S
C1650 C1652 1.327 . S
C1650 H1675 0.950 . S
C1651 C1650 1.349 . S
C1651 C1667 1.349 . S
C1652 C1650 1.327 . S
C1652 C1671 1.429 . S
C1652 H1676 0.950 . S
C1653 C1670 1.574 . S
C1653 C1672 1.368 . S
C1653 H1677 0.949 . S
H1654 C1658 0.949 . S
C1655 C1656 1.349 . S
C1655 C1657 1.327 . S
C1655 H1678 0.950 . S
C1656 C1655 1.349 . S
C1656 C1668 1.349 . S
C1657 C1655 1.327 . S
C1657 C1673 1.429 . S
C1657 H1679 0.950 . S
C1658 H1654 0.949 . S
C1658 C1666 1.574 . S
C1658 C1674 1.368 . S
H1659 C1667 0.950 . S
H1660 C1665 0.950 . S
H1661 C1666 0.949 . S
H1662 C1668 0.950 . S
H1663 C1669 0.950 . S
H1664 C1670 0.949 . S
C1665 H1660 0.950 . S
C1665 C1667 1.327 . S
C1665 C1671 1.429 . S
C1666 C1658 1.574 . S
C1666 H1661 0.949 . S
C1666 C1672 1.368 . S
C1667 C1651 1.349 . S
C1667 H1659 0.950 . S
C1667 C1665 1.327 . S
C1668 C1656 1.349 . S
C1668 H1662 0.950 . S
C1668 C1669 1.327 . S
C1669 H1663 0.950 . S
C1669 C1668 1.327 . S
C1669 C1673 1.429 . S
C1670 C1653 1.574 . S
C1670 H1664 0.949 . S
C1670 C1674 1.368 . S
C1671 C1652 1.429 . S
C1671 C1665 1.429 . S
C1671 C1672 1.523 . S
C1672 C1653 1.368 . S
C1672 C1666 1.368 . S
C1672 C1671 1.523 . S
C1673 C1657 1.429 . S
C1673 C1669 1.429 . S
C1673 C1674 1.523 . S
C1674 C1658 1.368 . S
C1674 C1670 1.368 . S
C1674 C1673 1.523 . S
H1675 C1650 0.950 . S
H1676 C1652 0.950 . S
H1677 C1653 0.949 . S
H1678 C1655 0.950 . S
H1679 C1657 0.950 . S
C1680 C1681 1.349 . S
C1680 C1682 1.327 . S
C1680 H1705 0.950 . S
C1681 C1680 1.349 . S
C1681 C1697 1.349 . S
C1682 C1680 1.327 . S
C1682 C1701 1.429 . S
C1682 H1706 0.950 . S
C1683 C1700 1.574 . S
C1683 C1702 1.368 . S
C1683 H1707 0.949 . S
H1684 C1688 0.949 . S
C1685 C1686 1.349 . S
C1685 C1687 1.327 . S
C1685 H1708 0.950 . S
C1686 C1685 1.349 . S
C1686 C1698 1.349 . S
C1687 C1685 1.327 . S
C1687 C1703 1.429 . S
C1687 H1709 0.950 . S
C1688 H1684 0.949 . S
C1688 C1696 1.574 . S
C1688 C1704 1.368 . S
H1689 C1697 0.950 . S
H1690 C1695 0.950 . S
H1691 C1696 0.949 . S
H1692 C1698 0.950 . S
H1693 C1699 0.950 . S
H1694 C1700 0.949 . S
C1695 H1690 0.950 . S
C1695 C1697 1.327 . S
C1695 C1701 1.429 . S
C1696 C1688 1.574 . S
C1696 H1691 0.949 . S
C1696 C1702 1.368 . S
C1697 C1681 1.349 . S
C1697 H1689 0.950 . S
C1697 C1695 1.327 . S
C1698 C1686 1.349 . S
C1698 H1692 0.950 . S
C1698 C1699 1.327 . S
C1699 H1693 0.950 . S
C1699 C1698 1.327 . S
C1699 C1703 1.429 . S
C1700 C1683 1.574 . S
C1700 H1694 0.949 . S
C1700 C1704 1.368 . S
C1701 C1682 1.429 . S
C1701 C1695 1.429 . S
C1701 C1702 1.523 . S
C1702 C1683 1.368 . S
C1702 C1696 1.368 . S
C1702 C1701 1.523 . S
C1703 C1687 1.429 . S
C1703 C1699 1.429 . S
C1703 C1704 1.523 . S
C1704 C1688 1.368 . S
C1704 C1700 1.368 . S
C1704 C1703 1.523 . S
H1705 C1680 0.950 . S
H1706 C1682 0.950 . S
H1707 C1683 0.949 . S
H1708 C1685 0.950 . S
H1709 C1687 0.950 . S
C1710 C1711 1.349 . S
C1710 C1712 1.327 . S
C1710 H1735 0.950 . S
C1711 C1710 1.349 . S
C1711 C1727 1.349 . S
C1712 C1710 1.327 . S
C1712 C1731 1.429 . S
C1712 H1736 0.950 . S
C1713 C1730 1.574 . S
C1713 C1732 1.368 . S
C1713 H1737 0.949 . S
H1714 C1718 0.949 . S
C1715 C1716 1.349 1_455 S
C1715 C1717 1.327 . S
C1715 H1738 0.950 . S
C1716 C1715 1.349 1_655 S
C1716 C1728 1.349 . S
C1717 C1715 1.327 . S
C1717 C1733 1.429 1_455 S
C1717 H1739 0.950 . S
C1718 H1714 0.949 . S
C1718 C1726 1.574 . S
C1718 C1734 1.368 . S
H1719 C1727 0.950 . S
H1720 C1725 0.950 . S
H1721 C1726 0.949 . S
H1722 C1728 0.950 . S
H1723 C1729 0.950 . S
H1724 C1730 0.968 . S
C1725 H1720 0.950 . S
C1725 C1727 1.327 . S
C1725 C1731 1.429 . S
C1726 C1718 1.574 . S
C1726 H1721 0.949 . S
C1726 C1732 1.368 . S
C1727 C1711 1.349 . S
C1727 H1719 0.950 . S
C1727 C1725 1.327 . S
C1728 C1716 1.349 . S
C1728 H1722 0.950 . S
C1728 C1729 1.327 . S
C1729 H1723 0.950 . S
C1729 C1728 1.327 . S
C1729 C1733 1.429 . S
C1730 C1713 1.574 . S
C1730 H1724 0.968 . S
C1730 C1734 1.368 . S
C1731 C1712 1.429 . S
C1731 C1725 1.429 . S
C1731 C1732 1.523 . S
C1732 C1713 1.368 . S
C1732 C1726 1.368 . S
C1732 C1731 1.523 . S
C1733 C1717 1.429 1_655 S
C1733 C1729 1.429 . S
C1733 C1734 1.523 . S
C1734 C1718 1.368 . S
C1734 C1730 1.368 . S
C1734 C1733 1.523 . S
H1735 C1710 0.950 . S
H1736 C1712 0.950 . S
H1737 C1713 0.949 . S
H1738 C1715 0.950 . S
H1739 C1717 0.950 . S
C1740 C1741 1.349 . S
C1740 C1742 1.327 . S
C1740 H1765 0.950 . S
C1741 C1740 1.349 . S
C1741 C1757 1.349 . S
C1742 C1740 1.327 . S
C1742 C1761 1.429 . S
C1742 H1766 0.950 . S
C1743 C1760 1.574 . S
C1743 C1762 1.368 . S
C1743 H1767 0.949 . S
H1744 C1748 0.949 . S
C1745 C1746 1.349 . S
C1745 C1747 1.327 . S
C1745 H1768 0.950 . S
C1746 C1745 1.349 . S
C1746 C1758 1.349 . S
C1747 C1745 1.327 . S
C1747 C1763 1.429 . S
C1747 H1769 0.950 . S
C1748 H1744 0.949 . S
C1748 C1756 1.574 . S
C1748 C1764 1.368 . S
H1749 C1757 0.950 . S
H1750 C1755 0.950 . S
H1751 C1756 0.949 . S
H1752 C1758 0.950 . S
H1753 C1759 0.950 . S
H1754 C1760 0.949 . S
C1755 H1750 0.950 . S
C1755 C1757 1.327 . S
C1755 C1761 1.429 . S
C1756 C1748 1.574 . S
C1756 H1751 0.949 . S
C1756 C1762 1.368 . S
C1757 C1741 1.349 . S
C1757 H1749 0.950 . S
C1757 C1755 1.327 . S
C1758 C1746 1.349 . S
C1758 H1752 0.950 . S
C1758 C1759 1.327 . S
C1759 H1753 0.950 . S
C1759 C1758 1.327 . S
C1759 C1763 1.429 . S
C1760 C1743 1.574 . S
C1760 H1754 0.949 . S
C1760 C1764 1.368 . S
C1761 C1742 1.429 . S
C1761 C1755 1.429 . S
C1761 C1762 1.523 . S
C1762 C1743 1.368 . S
C1762 C1756 1.368 . S
C1762 C1761 1.523 . S
C1763 C1747 1.429 . S
C1763 C1759 1.429 . S
C1763 C1764 1.523 . S
C1764 C1748 1.368 . S
C1764 C1760 1.368 . S
C1764 C1763 1.523 . S
H1765 C1740 0.950 . S
H1766 C1742 0.950 . S
H1767 C1743 0.949 . S
H1768 C1745 0.950 . S
H1769 C1747 0.950 . S
C1770 C1771 1.349 . S
C1770 C1772 1.327 . S
C1770 H1795 0.950 . S
C1771 C1770 1.349 . S
C1771 C1787 1.349 . S
C1772 C1770 1.327 . S
C1772 C1791 1.429 . S
C1772 H1796 0.950 . S
C1773 C1790 1.574 . S
C1773 C1792 1.368 . S
C1773 H1797 0.949 . S
H1774 C1778 0.949 . S
C1775 C1776 1.349 . S
C1775 C1777 1.327 . S
C1775 H1798 0.950 . S
C1776 C1775 1.349 . S
C1776 C1788 1.349 . S
C1777 C1775 1.327 . S
C1777 C1793 1.429 . S
C1777 H1799 0.950 . S
C1778 H1774 0.949 . S
C1778 C1786 1.574 . S
C1778 C1794 1.368 . S
H1779 C1787 0.950 . S
H1780 C1785 0.950 . S
H1781 C1786 0.949 . S
H1782 C1788 0.950 . S
H1783 C1789 0.950 . S
H1784 C1790 0.949 . S
C1785 H1780 0.950 . S
C1785 C1787 1.327 . S
C1785 C1791 1.429 . S
C1786 C1778 1.574 . S
C1786 H1781 0.949 . S
C1786 C1792 1.368 . S
C1787 C1771 1.349 . S
C1787 H1779 0.950 . S
C1787 C1785 1.327 . S
C1788 C1776 1.349 . S
C1788 H1782 0.950 . S
C1788 C1789 1.327 . S
C1789 H1783 0.950 . S
C1789 C1788 1.327 . S
C1789 C1793 1.429 . S
C1790 C1773 1.574 . S
C1790 H1784 0.949 . S
C1790 C1794 1.368 . S
C1791 C1772 1.429 . S
C1791 C1785 1.429 . S
C1791 C1792 1.523 . S
C1792 C1773 1.368 . S
C1792 C1786 1.368 . S
C1792 C1791 1.523 . S
C1793 C1777 1.429 . S
C1793 C1789 1.429 . S
C1793 C1794 1.523 . S
C1794 C1778 1.368 . S
C1794 C1790 1.368 . S
C1794 C1793 1.523 . S
H1795 C1770 0.950 . S
H1796 C1772 0.950 . S
H1797 C1773 0.949 . S
H1798 C1775 0.950 . S
H1799 C1777 0.950 . S
C1800 C1801 1.349 . S
C1800 C1802 1.327 . S
C1800 H1825 0.950 . S
C1801 C1800 1.349 . S
C1801 C1817 1.349 . S
C1802 C1800 1.327 . S
C1802 C1821 1.429 . S
C1802 H1826 0.950 . S
C1803 C1820 1.574 . S
C1803 C1822 1.368 . S
C1803 H1827 0.949 . S
H1804 C1808 0.949 . S
C1805 C1806 1.349 . S
C1805 C1807 1.327 . S
C1805 H1828 0.950 . S
C1806 C1805 1.349 . S
C1806 C1818 1.349 . S
C1807 C1805 1.327 . S
C1807 C1823 1.429 . S
C1807 H1829 0.950 . S
C1808 H1804 0.949 . S
C1808 C1816 1.574 . S
C1808 C1824 1.368 . S
H1809 C1817 0.950 . S
H1810 C1815 0.950 . S
H1811 C1816 0.949 . S
H1812 C1818 0.950 . S
H1813 C1819 0.950 . S
H1814 C1820 0.949 . S
C1815 H1810 0.950 . S
C1815 C1817 1.327 . S
C1815 C1821 1.429 . S
C1816 C1808 1.574 . S
C1816 H1811 0.949 . S
C1816 C1822 1.368 . S
C1817 C1801 1.349 . S
C1817 H1809 0.950 . S
C1817 C1815 1.327 . S
C1818 C1806 1.349 . S
C1818 H1812 0.950 . S
C1818 C1819 1.327 . S
C1819 H1813 0.950 . S
C1819 C1818 1.327 . S
C1819 C1823 1.429 . S
C1820 C1803 1.574 . S
C1820 H1814 0.949 . S
C1820 C1824 1.368 . S
C1821 C1802 1.429 . S
C1821 C1815 1.429 . S
C1821 C1822 1.523 . S
C1822 C1803 1.368 . S
C1822 C1816 1.368 . S
C1822 C1821 1.523 . S
C1823 C1807 1.429 . S
C1823 C1819 1.429 . S
C1823 C1824 1.523 . S
C1824 C1808 1.368 . S
C1824 C1820 1.368 . S
C1824 C1823 1.523 . S
H1825 C1800 0.950 . S
H1826 C1802 0.950 . S
H1827 C1803 0.949 . S
H1828 C1805 0.950 . S
H1829 C1807 0.950 . S
C1830 C1831 1.349 . S
C1830 C1832 1.327 . S
C1830 H1855 0.950 . S
C1831 C1830 1.349 . S
C1831 C1847 1.349 . S
C1832 C1830 1.327 . S
C1832 C1851 1.429 . S
C1832 H1856 0.950 . S
C1833 C1850 1.574 . S
C1833 C1852 1.368 . S
C1833 H1857 0.949 . S
H1834 C1838 0.949 . S
C1835 C1836 1.349 . S
C1835 C1837 1.327 . S
C1835 H1858 0.950 . S
C1836 C1835 1.349 . S
C1836 C1848 1.349 . S
C1837 C1835 1.327 . S
C1837 C1853 1.429 . S
C1837 H1859 0.950 . S
C1838 H1834 0.949 . S
C1838 C1846 1.574 . S
C1838 C1854 1.368 . S
H1839 C1847 0.950 . S
H1840 C1845 0.950 1_545 S
H1841 C1846 0.949 1_565 S
H1842 C1848 0.950 . S
H1843 C1849 0.950 . S
H1844 C1850 0.949 . S
C1845 H1840 0.950 1_565 S
C1845 C1847 1.327 . S
C1845 C1851 1.429 . S
C1846 C1838 1.574 . S
C1846 H1841 0.949 1_545 S
C1846 C1852 1.368 . S
C1847 C1831 1.349 . S
C1847 H1839 0.950 . S
C1847 C1845 1.327 . S
C1848 C1836 1.349 . S
C1848 H1842 0.950 . S
C1848 C1849 1.327 . S
C1849 H1843 0.950 . S
C1849 C1848 1.327 . S
C1849 C1853 1.429 . S
C1850 C1833 1.574 . S
C1850 H1844 0.949 . S
C1850 C1854 1.368 . S
C1851 C1832 1.429 . S
C1851 C1845 1.429 . S
C1851 C1852 1.523 1_565 S
C1852 C1833 1.368 . S
C1852 C1846 1.368 . S
C1852 C1851 1.523 1_545 S
C1853 C1837 1.429 . S
C1853 C1849 1.429 . S
C1853 C1854 1.523 . S
C1854 C1838 1.368 . S
C1854 C1850 1.368 . S
C1854 C1853 1.523 . S
H1855 C1830 0.950 . S
H1856 C1832 0.950 . S
H1857 C1833 0.949 . S
H1858 C1835 0.950 . S
H1859 C1837 0.950 . S
C1860 C1861 1.349 . S
C1860 C1862 1.327 . S
C1860 H1885 0.950 . S
C1861 C1860 1.349 . S
C1861 C1877 1.349 . S
C1862 C1860 1.327 . S
C1862 C1881 1.429 . S
C1862 H1886 0.950 . S
C1863 C1880 1.574 . S
C1863 C1882 1.368 . S
C1863 H1887 0.949 . S
H1864 C1868 0.949 . S
C1865 C1866 1.349 . S
C1865 C1867 1.327 . S
C1865 H1888 0.950 . S
C1866 C1865 1.349 . S
C1866 C1878 1.349 . S
C1867 C1865 1.327 . S
C1867 C1883 1.429 . S
C1867 H1889 0.950 . S
C1868 H1864 0.949 . S
C1868 C1876 1.574 . S
C1868 C1884 1.368 . S
H1869 C1877 0.950 . S
H1870 C1875 0.950 . S
H1871 C1876 0.949 . S
H1872 C1878 0.950 . S
H1873 C1879 0.950 . S
H1874 C1880 0.949 . S
C1875 H1870 0.950 . S
C1875 C1877 1.327 . S
C1875 C1881 1.429 . S
C1876 C1868 1.574 . S
C1876 H1871 0.949 . S
C1876 C1882 1.368 . S
C1877 C1861 1.349 . S
C1877 H1869 0.950 . S
C1877 C1875 1.327 . S
C1878 C1866 1.349 . S
C1878 H1872 0.950 . S
C1878 C1879 1.327 . S
C1879 H1873 0.950 . S
C1879 C1878 1.327 . S
C1879 C1883 1.429 . S
C1880 C1863 1.574 . S
C1880 H1874 0.949 . S
C1880 C1884 1.368 . S
C1881 C1862 1.429 . S
C1881 C1875 1.429 . S
C1881 C1882 1.523 1_655 S
C1882 C1863 1.368 . S
C1882 C1876 1.368 . S
C1882 C1881 1.523 1_455 S
C1883 C1867 1.429 . S
C1883 C1879 1.429 . S
C1883 C1884 1.523 . S
C1884 C1868 1.368 . S
C1884 C1880 1.368 . S
C1884 C1883 1.523 . S
H1885 C1860 0.950 . S
H1886 C1862 0.950 . S
H1887 C1863 0.949 . S
H1888 C1865 0.950 . S
H1889 C1867 0.950 . S
C1890 C1891 1.349 . S
C1890 C1892 1.327 . S
C1890 H1915 0.950 . S
C1891 C1890 1.349 . S
C1891 C1907 1.349 . S
C1892 C1890 1.327 . S
C1892 C1911 1.429 . S
C1892 H1916 0.950 . S
C1893 C1910 1.574 . S
C1893 C1912 1.368 . S
C1893 H1917 0.949 . S
H1894 C1898 0.949 . S
C1895 C1896 1.349 . S
C1895 C1897 1.327 . S
C1895 H1918 0.950 . S
C1896 C1895 1.349 . S
C1896 C1908 1.349 . S
C1897 C1895 1.327 . S
C1897 C1913 1.429 . S
C1897 H1919 0.950 . S
C1898 H1894 0.949 . S
C1898 C1906 1.574 . S
C1898 C1914 1.368 . S
H1899 C1907 0.950 . S
H1900 C1905 0.950 . S
H1901 C1906 0.949 . S
H1902 C1908 0.950 . S
H1903 C1909 0.950 . S
H1904 C1910 0.949 . S
C1905 H1900 0.950 . S
C1905 C1907 1.327 . S
C1905 C1911 1.429 . S
C1906 C1898 1.574 . S
C1906 H1901 0.949 . S
C1906 C1912 1.368 . S
C1907 C1891 1.349 . S
C1907 H1899 0.950 . S
C1907 C1905 1.327 . S
C1908 C1896 1.349 . S
C1908 H1902 0.950 . S
C1908 C1909 1.327 . S
C1909 H1903 0.950 . S
C1909 C1908 1.327 . S
C1909 C1913 1.429 . S
C1910 C1893 1.574 . S
C1910 H1904 0.949 . S
C1910 C1914 1.368 . S
C1911 C1892 1.429 . S
C1911 C1905 1.429 . S
C1911 C1912 1.523 . S
C1912 C1893 1.368 . S
C1912 C1906 1.368 . S
C1912 C1911 1.523 . S
C1913 C1897 1.429 . S
C1913 C1909 1.429 . S
C1913 C1914 1.523 . S
C1914 C1898 1.368 . S
C1914 C1910 1.368 . S
C1914 C1913 1.523 . S
H1915 C1890 0.950 . S
H1916 C1892 0.950 . S
H1917 C1893 0.949 . S
H1918 C1895 0.950 . S
H1919 C1897 0.950 . S
C1920 C1921 1.349 . S
C1920 C1922 1.327 . S
C1920 H1945 0.950 . S
C1921 C1920 1.349 . S
C1921 C1937 1.349 . S
C1922 C1920 1.327 . S
C1922 C1941 1.429 . S
C1922 H1946 0.950 . S
C1923 C1940 1.574 . S
C1923 C1942 1.368 . S
C1923 H1947 0.949 1_545 S
H1924 C1928 0.949 . S
C1925 C1926 1.349 . S
C1925 C1927 1.327 . S
C1925 H1948 0.950 . S
C1926 C1925 1.349 . S
C1926 C1938 1.349 . S
C1927 C1925 1.327 . S
C1927 C1943 1.429 . S
C1927 H1949 0.950 . S
C1928 H1924 0.949 . S
C1928 C1936 1.574 . S
C1928 C1944 1.368 . S
H1929 C1937 0.950 . S
H1930 C1935 0.950 . S
H1931 C1936 0.949 . S
H1932 C1938 0.950 . S
H1933 C1939 0.950 . S
H1934 C1940 0.949 . S
C1935 H1930 0.950 . S
C1935 C1937 1.327 . S
C1935 C1941 1.429 . S
C1936 C1928 1.574 . S
C1936 H1931 0.949 . S
C1936 C1942 1.368 . S
C1937 C1921 1.349 . S
C1937 H1929 0.950 . S
C1937 C1935 1.327 . S
C1938 C1926 1.349 . S
C1938 H1932 0.950 . S
C1938 C1939 1.327 . S
C1939 H1933 0.950 . S
C1939 C1938 1.327 . S
C1939 C1943 1.429 . S
C1940 C1923 1.574 . S
C1940 H1934 0.949 . S
C1940 C1944 1.368 . S
C1941 C1922 1.429 . S
C1941 C1935 1.429 . S
C1941 C1942 1.523 1_565 S
C1942 C1923 1.368 . S
C1942 C1936 1.368 . S
C1942 C1941 1.523 1_545 S
C1943 C1927 1.429 . S
C1943 C1939 1.429 . S
C1943 C1944 1.523 . S
C1944 C1928 1.368 . S
C1944 C1940 1.368 . S
C1944 C1943 1.523 . S
H1945 C1920 0.950 . S
H1946 C1922 0.950 . S
H1947 C1923 0.949 1_565 S
H1948 C1925 0.950 . S
H1949 C1927 0.950 . S
C1950 C1951 1.349 . S
C1950 C1952 1.327 . S
C1950 H1975 0.950 . S
C1951 C1950 1.349 . S
C1951 C1967 1.349 . S
C1952 C1950 1.327 . S
C1952 C1971 1.429 . S
C1952 H1976 0.950 . S
C1953 C1970 1.574 . S
C1953 C1972 1.368 . S
C1953 H1977 0.949 . S
H1954 C1958 0.949 . S
C1955 C1956 1.349 . S
C1955 C1957 1.327 . S
C1955 H1978 0.950 . S
C1956 C1955 1.349 . S
C1956 C1968 1.349 . S
C1957 C1955 1.327 . S
C1957 C1973 1.429 . S
C1957 H1979 0.950 . S
C1958 H1954 0.949 . S
C1958 C1966 1.574 . S
C1958 C1974 1.368 . S
H1959 C1967 0.950 . S
H1960 C1965 0.950 . S
H1961 C1966 0.949 1_655 S
H1962 C1968 0.950 . S
H1963 C1969 0.950 . S
H1964 C1970 0.949 . S
C1965 H1960 0.950 . S
C1965 C1967 1.327 . S
C1965 C1971 1.429 . S
C1966 C1958 1.574 . S
C1966 H1961 0.949 1_455 S
C1966 C1972 1.368 . S
C1967 C1951 1.349 . S
C1967 H1959 0.950 . S
C1967 C1965 1.327 . S
C1968 C1956 1.349 . S
C1968 H1962 0.950 . S
C1968 C1969 1.327 . S
C1969 H1963 0.950 . S
C1969 C1968 1.327 . S
C1969 C1973 1.429 . S
C1970 C1953 1.574 . S
C1970 H1964 0.949 . S
C1970 C1974 1.368 . S
C1971 C1952 1.429 . S
C1971 C1965 1.429 . S
C1971 C1972 1.523 1_655 S
C1972 C1953 1.368 . S
C1972 C1966 1.368 . S
C1972 C1971 1.523 1_455 S
C1973 C1957 1.429 . S
C1973 C1969 1.429 . S
C1973 C1974 1.523 . S
C1974 C1958 1.368 . S
C1974 C1970 1.368 . S
C1974 C1973 1.523 . S
H1975 C1950 0.950 . S
H1976 C1952 0.950 . S
H1977 C1953 0.949 . S
H1978 C1955 0.950 . S
H1979 C1957 0.950 . S
C1980 C1981 1.349 . S
C1980 C1982 1.327 . S
C1980 H2005 0.950 . S
C1981 C1980 1.349 . S
C1981 C1997 1.349 . S
C1982 C1980 1.327 . S
C1982 C2001 1.429 . S
C1982 H2006 0.950 . S
C1983 C2000 1.574 1_554 S
C1983 C2002 1.368 . S
C1983 H2007 0.949 1_545 S
H1984 C1988 0.949 . S
C1985 C1986 1.349 . S
C1985 C1987 1.327 . S
C1985 H2008 0.950 1_545 S
C1986 C1985 1.349 . S
C1986 C1998 1.349 . S
C1987 C1985 1.327 . S
C1987 C2003 1.429 . S
C1987 H2009 0.950 1_545 S
C1988 H1984 0.949 . S
C1988 C1996 1.574 1_556 S
C1988 C2004 1.368 . S
H1989 C1997 0.950 1_565 S
H1990 C1995 0.950 1_565 S
H1991 C1996 0.949 . S
H1992 C1998 0.950 . S
H1993 C1999 0.950 . S
H1994 C2000 0.949 1_565 S
C1995 H1990 0.950 1_545 S
C1995 C1997 1.327 . S
C1995 C2001 1.429 . S
C1996 C1988 1.574 1_554 S
C1996 H1991 0.949 . S
C1996 C2002 1.368 . S
C1997 C1981 1.349 . S
C1997 H1989 0.950 1_545 S
C1997 C1995 1.327 . S
C1998 C1986 1.349 . S
C1998 H1992 0.950 . S
C1998 C1999 1.327 . S
C1999 H1993 0.950 . S
C1999 C1998 1.327 . S
C1999 C2003 1.429 . S
C2000 C1983 1.574 1_556 S
C2000 H1994 0.949 1_545 S
C2000 C2004 1.368 . S
C2001 C1982 1.429 . S
C2001 C1995 1.429 . S
C2001 C2002 1.523 . S
C2002 C1983 1.368 . S
C2002 C1996 1.368 . S
C2002 C2001 1.523 . S
C2003 C1987 1.429 . S
C2003 C1999 1.429 . S
C2003 C2004 1.523 . S
C2004 C1988 1.368 . S
C2004 C2000 1.368 . S
C2004 C2003 1.523 . S
H2005 C1980 0.950 . S
H2006 C1982 0.950 . S
H2007 C1983 0.949 1_565 S
H2008 C1985 0.950 1_565 S
H2009 C1987 0.950 1_565 S
C2010 C2011 1.349 . S
C2010 C2012 1.327 . S
C2010 H2035 0.950 . S
C2011 C2010 1.349 . S
C2011 C2027 1.349 . S
C2012 C2010 1.327 . S
C2012 C2031 1.429 . S
C2012 H2036 0.950 . S
C2013 C2030 1.574 1_556 S
C2013 C2032 1.368 . S
C2013 H2037 0.949 . S
H2014 C2018 0.949 . S
C2015 C2016 1.349 . S
C2015 C2017 1.327 . S
C2015 H2038 0.950 . S
C2016 C2015 1.349 . S
C2016 C2028 1.349 . S
C2017 C2015 1.327 . S
C2017 C2033 1.429 . S
C2017 H2039 0.950 . S
C2018 H2014 0.949 . S
C2018 C2026 1.574 1_554 S
C2018 C2034 1.368 . S
H2019 C2027 0.950 . S
H2020 C2025 0.950 . S
H2021 C2026 0.949 . S
H2022 C2028 0.950 . S
H2023 C2029 0.950 . S
H2024 C2030 0.949 . S
C2025 H2020 0.950 . S
C2025 C2027 1.327 . S
C2025 C2031 1.429 . S
C2026 C2018 1.574 1_556 S
C2026 H2021 0.949 . S
C2026 C2032 1.368 . S
C2027 C2011 1.349 . S
C2027 H2019 0.950 . S
C2027 C2025 1.327 . S
C2028 C2016 1.349 . S
C2028 H2022 0.950 . S
C2028 C2029 1.327 . S
C2029 H2023 0.950 . S
C2029 C2028 1.327 . S
C2029 C2033 1.429 . S
C2030 C2013 1.574 1_554 S
C2030 H2024 0.949 . S
C2030 C2034 1.368 . S
C2031 C2012 1.429 . S
C2031 C2025 1.429 . S
C2031 C2032 1.523 . S
C2032 C2013 1.368 . S
C2032 C2026 1.368 . S
C2032 C2031 1.523 . S
C2033 C2017 1.429 . S
C2033 C2029 1.429 . S
C2033 C2034 1.523 . S
C2034 C2018 1.368 . S
C2034 C2030 1.368 . S
C2034 C2033 1.523 . S
H2035 C2010 0.950 . S
H2036 C2012 0.950 . S
H2037 C2013 0.949 . S
H2038 C2015 0.950 . S
H2039 C2017 0.950 . S
C2040 C2041 1.349 . S
C2040 C2042 1.327 . S
C2040 H2065 0.950 . S
C2041 C2040 1.349 . S
C2041 C2057 1.349 . S
C2042 C2040 1.327 . S
C2042 C2061 1.429 . S
C2042 H2066 0.950 . S
C2043 C2060 1.574 1_554 S
C2043 C2062 1.368 . S
C2043 H2067 0.949 . S
H2044 C2048 0.949 . S
C2045 C2046 1.349 . S
C2045 C2047 1.327 . S
C2045 H2068 0.950 . S
C2046 C2045 1.349 . S
C2046 C2058 1.349 . S
C2047 C2045 1.327 . S
C2047 C2063 1.429 . S
C2047 H2069 0.950 . S
C2048 H2044 0.949 . S
C2048 C2056 1.574 1_556 S
C2048 C2064 1.368 . S
H2049 C2057 0.950 . S
H2050 C2055 0.950 . S
H2051 C2056 0.949 . S
H2052 C2058 0.950 . S
H2053 C2059 0.950 . S
H2054 C2060 0.949 . S
C2055 H2050 0.950 . S
C2055 C2057 1.327 . S
C2055 C2061 1.429 . S
C2056 C2048 1.574 1_554 S
C2056 H2051 0.949 . S
C2056 C2062 1.368 . S
C2057 C2041 1.349 . S
C2057 H2049 0.950 . S
C2057 C2055 1.327 . S
C2058 C2046 1.349 . S
C2058 H2052 0.950 . S
C2058 C2059 1.327 . S
C2059 H2053 0.950 . S
C2059 C2058 1.327 . S
C2059 C2063 1.429 . S
C2060 C2043 1.574 1_556 S
C2060 H2054 0.949 . S
C2060 C2064 1.368 . S
C2061 C2042 1.429 . S
C2061 C2055 1.429 . S
C2061 C2062 1.523 . S
C2062 C2043 1.368 . S
C2062 C2056 1.368 . S
C2062 C2061 1.523 . S
C2063 C2047 1.429 . S
C2063 C2059 1.429 . S
C2063 C2064 1.523 . S
C2064 C2048 1.368 . S
C2064 C2060 1.368 . S
C2064 C2063 1.523 . S
H2065 C2040 0.950 . S
H2066 C2042 0.950 . S
H2067 C2043 0.949 . S
H2068 C2045 0.950 . S
H2069 C2047 0.950 . S
C2070 C2071 1.349 . S
C2070 C2072 1.327 . S
C2070 H2095 0.950 . S
C2071 C2070 1.349 . S
C2071 C2087 1.349 . S
C2072 C2070 1.327 . S
C2072 C2091 1.429 . S
C2072 H2096 0.950 . S
C2073 C2090 1.574 . S
C2073 C2092 1.368 . S
C2073 H2097 0.949 1_455 S
H2074 C2078 0.949 . S
C2075 C2076 1.349 . S
C2075 C2077 1.327 . S
C2075 H2098 0.950 1_455 S
C2076 C2075 1.349 . S
C2076 C2088 1.349 . S
C2077 C2075 1.327 . S
C2077 C2093 1.429 . S
C2077 H2099 0.950 1_455 S
C2078 H2074 0.949 . S
C2078 C2086 1.574 . S
C2078 C2094 1.368 . S
H2079 C2087 0.950 1_655 S
H2080 C2085 0.950 1_655 S
H2081 C2086 0.949 . S
H2082 C2088 0.950 . S
H2083 C2089 0.950 . S
H2084 C2090 0.949 1_655 S
C2085 H2080 0.950 1_455 S
C2085 C2087 1.327 . S
C2085 C2091 1.429 . S
C2086 C2078 1.574 . S
C2086 H2081 0.949 . S
C2086 C2092 1.368 . S
C2087 C2071 1.349 . S
C2087 H2079 0.950 1_455 S
C2087 C2085 1.327 . S
C2088 C2076 1.349 . S
C2088 H2082 0.950 . S
C2088 C2089 1.327 . S
C2089 H2083 0.950 . S
C2089 C2088 1.327 . S
C2089 C2093 1.429 . S
C2090 C2073 1.574 . S
C2090 H2084 0.949 1_455 S
C2090 C2094 1.368 . S
C2091 C2072 1.429 . S
C2091 C2085 1.429 . S
C2091 C2092 1.523 . S
C2092 C2073 1.368 . S
C2092 C2086 1.368 . S
C2092 C2091 1.523 . S
C2093 C2077 1.429 . S
C2093 C2089 1.429 . S
C2093 C2094 1.523 . S
C2094 C2078 1.368 . S
C2094 C2090 1.368 . S
C2094 C2093 1.523 . S
H2095 C2070 0.950 . S
H2096 C2072 0.950 . S
H2097 C2073 0.949 1_655 S
H2098 C2075 0.950 1_655 S
H2099 C2077 0.950 1_655 S
C2100 C2101 1.349 . S
C2100 C2102 1.327 . S
C2100 H2125 0.950 . S
C2101 C2100 1.349 . S
C2101 C2117 1.349 . S
C2102 C2100 1.327 . S
C2102 C2121 1.429 . S
C2102 H2126 0.950 . S
C2103 C2120 1.574 . S
C2103 C2122 1.368 . S
C2103 H2127 0.949 . S
H2104 C2108 0.949 . S
C2105 C2106 1.349 . S
C2105 C2107 1.327 . S
C2105 H2128 0.950 . S
C2106 C2105 1.349 . S
C2106 C2118 1.349 . S
C2107 C2105 1.327 . S
C2107 C2123 1.429 . S
C2107 H2129 0.950 . S
C2108 H2104 0.949 . S
C2108 C2116 1.574 . S
C2108 C2124 1.368 . S
H2109 C2117 0.950 . S
H2110 C2115 0.950 . S
H2111 C2116 0.949 . S
H2112 C2118 0.950 . S
H2113 C2119 0.950 . S
H2114 C2120 0.949 . S
C2115 H2110 0.950 . S
C2115 C2117 1.327 . S
C2115 C2121 1.429 . S
C2116 C2108 1.574 . S
C2116 H2111 0.949 . S
C2116 C2122 1.368 . S
C2117 C2101 1.349 . S
C2117 H2109 0.950 . S
C2117 C2115 1.327 . S
C2118 C2106 1.349 . S
C2118 H2112 0.950 . S
C2118 C2119 1.327 . S
C2119 H2113 0.950 . S
C2119 C2118 1.327 . S
C2119 C2123 1.429 . S
C2120 C2103 1.574 . S
C2120 H2114 0.949 . S
C2120 C2124 1.368 . S
C2121 C2102 1.429 . S
C2121 C2115 1.429 . S
C2121 C2122 1.523 . S
C2122 C2103 1.368 . S
C2122 C2116 1.368 . S
C2122 C2121 1.523 . S
C2123 C2107 1.429 . S
C2123 C2119 1.429 . S
C2123 C2124 1.523 . S
C2124 C2108 1.368 . S
C2124 C2120 1.368 . S
C2124 C2123 1.523 . S
H2125 C2100 0.950 . S
H2126 C2102 0.950 . S
H2127 C2103 0.949 . S
H2128 C2105 0.950 . S
H2129 C2107 0.950 . S
C2130 C2131 1.349 . S
C2130 C2132 1.327 . S
C2130 H2155 0.950 . S
C2131 C2130 1.349 . S
C2131 C2147 1.349 . S
C2132 C2130 1.327 . S
C2132 C2151 1.429 . S
C2132 H2156 0.950 . S
C2133 C2150 1.574 . S
C2133 C2152 1.368 . S
C2133 H2157 0.949 1_545 S
H2134 C2138 0.949 . S
C2135 C2136 1.349 . S
C2135 C2137 1.327 . S
C2135 H2158 0.950 1_545 S
C2136 C2135 1.349 . S
C2136 C2148 1.349 . S
C2137 C2135 1.327 . S
C2137 C2153 1.429 . S
C2137 H2159 0.950 1_545 S
C2138 H2134 0.949 . S
C2138 C2146 1.574 . S
C2138 C2154 1.368 . S
H2139 C2147 0.950 1_565 S
H2140 C2145 0.950 1_565 S
H2141 C2146 0.949 . S
H2142 C2148 0.950 . S
H2143 C2149 0.950 . S
H2144 C2150 0.949 1_565 S
C2145 H2140 0.950 1_545 S
C2145 C2147 1.327 . S
C2145 C2151 1.429 . S
C2146 C2138 1.574 . S
C2146 H2141 0.949 . S
C2146 C2152 1.368 . S
C2147 C2131 1.349 . S
C2147 H2139 0.950 1_545 S
C2147 C2145 1.327 . S
C2148 C2136 1.349 . S
C2148 H2142 0.950 . S
C2148 C2149 1.327 . S
C2149 H2143 0.950 . S
C2149 C2148 1.327 . S
C2149 C2153 1.429 . S
C2150 C2133 1.574 . S
C2150 H2144 0.949 1_545 S
C2150 C2154 1.368 . S
C2151 C2132 1.429 . S
C2151 C2145 1.429 . S
C2151 C2152 1.523 . S
C2152 C2133 1.368 . S
C2152 C2146 1.368 . S
C2152 C2151 1.523 . S
C2153 C2137 1.429 . S
C2153 C2149 1.429 . S
C2153 C2154 1.523 . S
C2154 C2138 1.368 . S
C2154 C2150 1.368 . S
C2154 C2153 1.523 . S
H2155 C2130 0.950 . S
H2156 C2132 0.950 . S
H2157 C2133 0.949 1_565 S
H2158 C2135 0.950 1_565 S
H2159 C2137 0.950 1_565 S
C2160 C2161 1.349 . S
C2160 C2162 1.327 . S
C2160 H2185 0.950 . S
C2161 C2160 1.349 . S
C2161 C2177 1.349 . S
C2162 C2160 1.327 . S
C2162 C2181 1.429 . S
C2162 H2186 0.950 . S
C2163 C2180 1.574 . S
C2163 C2182 1.368 . S
C2163 H2187 0.949 . S
H2164 C2168 0.949 . S
C2165 C2166 1.349 . S
C2165 C2167 1.327 . S
C2165 H2188 0.950 . S
C2166 C2165 1.349 . S
C2166 C2178 1.349 . S
C2167 C2165 1.327 . S
C2167 C2183 1.429 . S
C2167 H2189 0.950 . S
C2168 H2164 0.949 . S
C2168 C2176 1.574 . S
C2168 C2184 1.368 . S
H2169 C2177 0.950 . S
H2170 C2175 0.950 . S
H2171 C2176 0.949 . S
H2172 C2178 0.950 . S
H2173 C2179 0.950 . S
H2174 C2180 0.949 . S
C2175 H2170 0.950 . S
C2175 C2177 1.327 . S
C2175 C2181 1.429 . S
C2176 C2168 1.574 . S
C2176 H2171 0.949 . S
C2176 C2182 1.368 . S
C2177 C2161 1.349 . S
C2177 H2169 0.950 . S
C2177 C2175 1.327 . S
C2178 C2166 1.349 . S
C2178 H2172 0.950 . S
C2178 C2179 1.327 . S
C2179 H2173 0.950 . S
C2179 C2178 1.327 . S
C2179 C2183 1.429 . S
C2180 C2163 1.574 . S
C2180 H2174 0.949 . S
C2180 C2184 1.368 . S
C2181 C2162 1.429 . S
C2181 C2175 1.429 . S
C2181 C2182 1.523 . S
C2182 C2163 1.368 . S
C2182 C2176 1.368 . S
C2182 C2181 1.523 . S
C2183 C2167 1.429 . S
C2183 C2179 1.429 . S
C2183 C2184 1.523 . S
C2184 C2168 1.368 . S
C2184 C2180 1.368 . S
C2184 C2183 1.523 . S
H2185 C2160 0.950 . S
H2186 C2162 0.950 . S
H2187 C2163 0.949 . S
H2188 C2165 0.950 . S
H2189 C2167 0.950 . S
C2190 C2191 1.349 . S
C2190 C2192 1.327 . S
C2190 H2215 0.950 . S
C2191 C2190 1.349 . S
C2191 C2207 1.349 . S
C2192 C2190 1.327 . S
C2192 C2211 1.429 . S
C2192 H2216 0.950 . S
C2193 C2210 1.574 . S
C2193 C2212 1.368 . S
C2193 H2217 0.949 . S
H2194 C2198 0.949 . S
C2195 C2196 1.349 . S
C2195 C2197 1.327 . S
C2195 H2218 0.950 . S
C2196 C2195 1.349 . S
C2196 C2208 1.349 . S
C2197 C2195 1.327 . S
C2197 C2213 1.429 . S
C2197 H2219 0.950 . S
C2198 H2194 0.949 . S
C2198 C2206 1.574 . S
C2198 C2214 1.368 . S
H2199 C2207 0.950 . S
H2200 C2205 0.950 . S
H2201 C2206 0.949 . S
H2202 C2208 0.950 . S
H2203 C2209 0.950 . S
H2204 C2210 0.949 . S
C2205 H2200 0.950 . S
C2205 C2207 1.327 . S
C2205 C2211 1.429 . S
C2206 C2198 1.574 . S
C2206 H2201 0.949 . S
C2206 C2212 1.368 . S
C2207 C2191 1.349 . S
C2207 H2199 0.950 . S
C2207 C2205 1.327 . S
C2208 C2196 1.349 . S
C2208 H2202 0.950 . S
C2208 C2209 1.327 . S
C2209 H2203 0.950 . S
C2209 C2208 1.327 . S
C2209 C2213 1.429 . S
C2210 C2193 1.574 . S
C2210 H2204 0.949 . S
C2210 C2214 1.368 . S
C2211 C2192 1.429 . S
C2211 C2205 1.429 . S
C2211 C2212 1.523 . S
C2212 C2193 1.368 . S
C2212 C2206 1.368 . S
C2212 C2211 1.523 . S
C2213 C2197 1.429 . S
C2213 C2209 1.429 . S
C2213 C2214 1.523 . S
C2214 C2198 1.368 . S
C2214 C2210 1.368 . S
C2214 C2213 1.523 . S
H2215 C2190 0.950 . S
H2216 C2192 0.950 . S
H2217 C2193 0.949 . S
H2218 C2195 0.950 . S
H2219 C2197 0.950 . S
C2220 C2221 1.349 . S
C2220 C2222 1.327 . S
C2220 H2245 0.950 . S
C2221 C2220 1.349 . S
C2221 C2237 1.349 . S
C2222 C2220 1.327 . S
C2222 C2241 1.429 . S
C2222 H2246 0.950 . S
C2223 C2240 1.574 . S
C2223 C2242 1.368 . S
C2223 H2247 0.949 . S
H2224 C2228 0.949 . S
C2225 C2226 1.349 . S
C2225 C2227 1.327 . S
C2225 H2248 0.950 . S
C2226 C2225 1.349 . S
C2226 C2238 1.349 . S
C2227 C2225 1.327 . S
C2227 C2243 1.429 . S
C2227 H2249 0.950 . S
C2228 H2224 0.949 . S
C2228 C2236 1.574 . S
C2228 C2244 1.368 . S
H2229 C2237 0.950 . S
H2230 C2235 0.950 . S
H2231 C2236 0.949 . S
H2232 C2238 0.950 . S
H2233 C2239 0.950 . S
H2234 C2240 0.949 . S
C2235 H2230 0.950 . S
C2235 C2237 1.327 . S
C2235 C2241 1.429 . S
C2236 C2228 1.574 . S
C2236 H2231 0.949 . S
C2236 C2242 1.368 . S
C2237 C2221 1.349 . S
C2237 H2229 0.950 . S
C2237 C2235 1.327 . S
C2238 C2226 1.349 . S
C2238 H2232 0.950 . S
C2238 C2239 1.327 . S
C2239 H2233 0.950 . S
C2239 C2238 1.327 . S
C2239 C2243 1.429 . S
C2240 C2223 1.574 . S
C2240 H2234 0.949 . S
C2240 C2244 1.368 . S
C2241 C2222 1.429 . S
C2241 C2235 1.429 . S
C2241 C2242 1.523 . S
C2242 C2223 1.368 . S
C2242 C2236 1.368 . S
C2242 C2241 1.523 . S
C2243 C2227 1.429 . S
C2243 C2239 1.429 . S
C2243 C2244 1.523 . S
C2244 C2228 1.368 . S
C2244 C2240 1.368 . S
C2244 C2243 1.523 . S
H2245 C2220 0.950 . S
H2246 C2222 0.950 . S
H2247 C2223 0.949 . S
H2248 C2225 0.950 . S
H2249 C2227 0.950 . S
C2250 C2251 1.349 . S
C2250 C2252 1.327 . S
C2250 H2275 0.950 . S
C2251 C2250 1.349 . S
C2251 C2267 1.349 . S
C2252 C2250 1.327 . S
C2252 C2271 1.429 . S
C2252 H2276 0.950 . S
C2253 C2270 1.574 . S
C2253 C2272 1.368 . S
C2253 H2277 0.949 . S
H2254 C2258 0.949 . S
C2255 C2256 1.349 . S
C2255 C2257 1.327 . S
C2255 H2278 0.950 . S
C2256 C2255 1.349 . S
C2256 C2268 1.349 . S
C2257 C2255 1.327 . S
C2257 C2273 1.429 . S
C2257 H2279 0.950 . S
C2258 H2254 0.949 . S
C2258 C2266 1.574 . S
C2258 C2274 1.368 . S
H2259 C2267 0.950 . S
H2260 C2265 0.950 . S
H2261 C2266 0.949 . S
H2262 C2268 0.950 . S
H2263 C2269 0.950 . S
H2264 C2270 0.949 . S
C2265 H2260 0.950 . S
C2265 C2267 1.327 . S
C2265 C2271 1.429 . S
C2266 C2258 1.574 . S
C2266 H2261 0.949 . S
C2266 C2272 1.368 . S
C2267 C2251 1.349 . S
C2267 H2259 0.950 . S
C2267 C2265 1.327 . S
C2268 C2256 1.349 . S
C2268 H2262 0.950 . S
C2268 C2269 1.327 . S
C2269 H2263 0.950 . S
C2269 C2268 1.327 . S
C2269 C2273 1.429 . S
C2270 C2253 1.574 . S
C2270 H2264 0.949 . S
C2270 C2274 1.368 . S
C2271 C2252 1.429 . S
C2271 C2265 1.429 . S
C2271 C2272 1.523 . S
C2272 C2253 1.368 . S
C2272 C2266 1.368 . S
C2272 C2271 1.523 . S
C2273 C2257 1.429 . S
C2273 C2269 1.429 . S
C2273 C2274 1.523 . S
C2274 C2258 1.368 . S
C2274 C2270 1.368 . S
C2274 C2273 1.523 . S
H2275 C2250 0.950 . S
H2276 C2252 0.950 . S
H2277 C2253 0.949 . S
H2278 C2255 0.950 . S
H2279 C2257 0.950 . S
C2280 C2281 1.349 . S
C2280 C2282 1.327 . S
C2280 H2305 0.950 . S
C2281 C2280 1.349 . S
C2281 C2297 1.349 . S
C2282 C2280 1.327 . S
C2282 C2301 1.429 . S
C2282 H2306 0.950 . S
C2283 C2300 1.574 . S
C2283 C2302 1.368 . S
C2283 H2307 0.949 . S
H2284 C2288 0.949 . S
C2285 C2286 1.349 . S
C2285 C2287 1.327 . S
C2285 H2308 0.950 . S
C2286 C2285 1.349 . S
C2286 C2298 1.349 . S
C2287 C2285 1.327 . S
C2287 C2303 1.429 . S
C2287 H2309 0.950 . S
C2288 H2284 0.949 . S
C2288 C2296 1.574 . S
C2288 C2304 1.368 . S
H2289 C2297 0.950 . S
H2290 C2295 0.950 . S
H2291 C2296 0.949 . S
H2292 C2298 0.950 . S
H2293 C2299 0.950 . S
H2294 C2300 0.949 . S
C2295 H2290 0.950 . S
C2295 C2297 1.327 . S
C2295 C2301 1.429 . S
C2296 C2288 1.574 . S
C2296 H2291 0.949 . S
C2296 C2302 1.368 . S
C2297 C2281 1.349 . S
C2297 H2289 0.950 . S
C2297 C2295 1.327 . S
C2298 C2286 1.349 . S
C2298 H2292 0.950 . S
C2298 C2299 1.327 . S
C2299 H2293 0.950 . S
C2299 C2298 1.327 . S
C2299 C2303 1.429 . S
C2300 C2283 1.574 . S
C2300 H2294 0.949 . S
C2300 C2304 1.368 . S
C2301 C2282 1.429 . S
C2301 C2295 1.429 . S
C2301 C2302 1.523 . S
C2302 C2283 1.368 . S
C2302 C2296 1.368 . S
C2302 C2301 1.523 . S
C2303 C2287 1.429 . S
C2303 C2299 1.429 . S
C2303 C2304 1.523 . S
C2304 C2288 1.368 . S
C2304 C2300 1.368 . S
C2304 C2303 1.523 . S
H2305 C2280 0.950 . S
H2306 C2282 0.950 . S
H2307 C2283 0.949 . S
H2308 C2285 0.950 . S
H2309 C2287 0.950 . S
C2310 C2311 1.349 . S
C2310 C2312 1.327 . S
C2310 H2335 0.950 . S
C2311 C2310 1.349 . S
C2311 C2327 1.349 . S
C2312 C2310 1.327 . S
C2312 C2331 1.429 . S
C2312 H2336 0.950 . S
C2313 C2330 1.574 . S
C2313 C2332 1.368 . S
C2313 H2337 0.949 . S
H2314 C2318 0.949 . S
C2315 C2316 1.349 . S
C2315 C2317 1.327 . S
C2315 H2338 0.950 . S
C2316 C2315 1.349 . S
C2316 C2328 1.349 . S
C2317 C2315 1.327 . S
C2317 C2333 1.429 . S
C2317 H2339 0.950 . S
C2318 H2314 0.949 . S
C2318 C2326 1.574 . S
C2318 C2334 1.368 . S
H2319 C2327 0.950 . S
H2320 C2325 0.950 . S
H2321 C2326 0.949 . S
H2322 C2328 0.950 . S
H2323 C2329 0.950 . S
H2324 C2330 0.949 . S
C2325 H2320 0.950 . S
C2325 C2327 1.327 . S
C2325 C2331 1.429 . S
C2326 C2318 1.574 . S
C2326 H2321 0.949 . S
C2326 C2332 1.368 . S
C2327 C2311 1.349 . S
C2327 H2319 0.950 . S
C2327 C2325 1.327 . S
C2328 C2316 1.349 . S
C2328 H2322 0.950 . S
C2328 C2329 1.327 . S
C2329 H2323 0.950 . S
C2329 C2328 1.327 . S
C2329 C2333 1.429 . S
C2330 C2313 1.574 . S
C2330 H2324 0.949 . S
C2330 C2334 1.368 . S
C2331 C2312 1.429 . S
C2331 C2325 1.429 . S
C2331 C2332 1.523 . S
C2332 C2313 1.368 . S
C2332 C2326 1.368 . S
C2332 C2331 1.523 . S
C2333 C2317 1.429 . S
C2333 C2329 1.429 . S
C2333 C2334 1.523 . S
C2334 C2318 1.368 . S
C2334 C2330 1.368 . S
C2334 C2333 1.523 . S
H2335 C2310 0.950 . S
H2336 C2312 0.950 . S
H2337 C2313 0.949 . S
H2338 C2315 0.950 . S
H2339 C2317 0.950 . S
C2340 C2341 1.349 . S
C2340 C2342 1.327 . S
C2340 H2365 0.950 . S
C2341 C2340 1.349 . S
C2341 C2357 1.349 . S
C2342 C2340 1.327 . S
C2342 C2361 1.429 . S
C2342 H2366 0.950 . S
C2343 C2360 1.574 . S
C2343 C2362 1.368 . S
C2343 H2367 0.949 . S
H2344 C2348 0.949 . S
C2345 C2346 1.349 . S
C2345 C2347 1.327 . S
C2345 H2368 0.950 . S
C2346 C2345 1.349 . S
C2346 C2358 1.349 . S
C2347 C2345 1.327 . S
C2347 C2363 1.429 . S
C2347 H2369 0.950 . S
C2348 H2344 0.949 . S
C2348 C2356 1.574 . S
C2348 C2364 1.368 . S
H2349 C2357 0.950 . S
H2350 C2355 0.950 . S
H2351 C2356 0.949 . S
H2352 C2358 0.950 . S
H2353 C2359 0.950 . S
H2354 C2360 0.949 . S
C2355 H2350 0.950 . S
C2355 C2357 1.327 . S
C2355 C2361 1.429 . S
C2356 C2348 1.574 . S
C2356 H2351 0.949 . S
C2356 C2362 1.368 . S
C2357 C2341 1.349 . S
C2357 H2349 0.950 . S
C2357 C2355 1.327 . S
C2358 C2346 1.349 . S
C2358 H2352 0.950 . S
C2358 C2359 1.327 . S
C2359 H2353 0.950 . S
C2359 C2358 1.327 . S
C2359 C2363 1.429 . S
C2360 C2343 1.574 . S
C2360 H2354 0.949 . S
C2360 C2364 1.368 . S
C2361 C2342 1.429 . S
C2361 C2355 1.429 . S
C2361 C2362 1.523 . S
C2362 C2343 1.368 . S
C2362 C2356 1.368 . S
C2362 C2361 1.523 . S
C2363 C2347 1.429 . S
C2363 C2359 1.429 . S
C2363 C2364 1.523 . S
C2364 C2348 1.368 . S
C2364 C2360 1.368 . S
C2364 C2363 1.523 . S
H2365 C2340 0.950 . S
H2366 C2342 0.950 . S
H2367 C2343 0.949 . S
H2368 C2345 0.950 . S
H2369 C2347 0.950 . S
C2370 C2371 1.349 . S
C2370 C2372 1.327 . S
C2370 H2395 0.950 . S
C2371 C2370 1.349 . S
C2371 C2387 1.349 . S
C2372 C2370 1.327 . S
C2372 C2391 1.429 . S
C2372 H2396 0.950 . S
C2373 C2390 1.574 . S
C2373 C2392 1.368 . S
C2373 H2397 0.949 . S
H2374 C2378 0.949 . S
C2375 C2376 1.349 . S
C2375 C2377 1.327 . S
C2375 H2398 0.950 . S
C2376 C2375 1.349 . S
C2376 C2388 1.349 . S
C2377 C2375 1.327 . S
C2377 C2393 1.429 . S
C2377 H2399 0.950 . S
C2378 H2374 0.949 . S
C2378 C2386 1.574 . S
C2378 C2394 1.368 . S
H2379 C2387 0.950 . S
H2380 C2385 0.950 . S
H2381 C2386 0.949 . S
H2382 C2388 0.950 . S
H2383 C2389 0.950 . S
H2384 C2390 0.949 . S
C2385 H2380 0.950 . S
C2385 C2387 1.327 . S
C2385 C2391 1.429 . S
C2386 C2378 1.574 . S
C2386 H2381 0.949 . S
C2386 C2392 1.368 . S
C2387 C2371 1.349 . S
C2387 H2379 0.950 . S
C2387 C2385 1.327 . S
C2388 C2376 1.349 . S
C2388 H2382 0.950 . S
C2388 C2389 1.327 . S
C2389 H2383 0.950 . S
C2389 C2388 1.327 . S
C2389 C2393 1.429 . S
C2390 C2373 1.574 . S
C2390 H2384 0.949 . S
C2390 C2394 1.368 . S
C2391 C2372 1.429 . S
C2391 C2385 1.429 . S
C2391 C2392 1.523 . S
C2392 C2373 1.368 . S
C2392 C2386 1.368 . S
C2392 C2391 1.523 . S
C2393 C2377 1.429 . S
C2393 C2389 1.429 . S
C2393 C2394 1.523 . S
C2394 C2378 1.368 . S
C2394 C2390 1.368 . S
C2394 C2393 1.523 . S
H2395 C2370 0.950 . S
H2396 C2372 0.950 . S
H2397 C2373 0.949 . S
H2398 C2375 0.950 . S
H2399 C2377 0.950 . S
C2400 C2401 1.349 . S
C2400 C2402 1.327 . S
C2400 H2425 0.950 . S
C2401 C2400 1.349 . S
C2401 C2417 1.349 . S
C2402 C2400 1.327 . S
C2402 C2421 1.429 . S
C2402 H2426 0.950 . S
C2403 C2420 1.574 . S
C2403 C2422 1.368 . S
C2403 H2427 0.949 . S
H2404 C2408 0.949 . S
C2405 C2406 1.349 . S
C2405 C2407 1.327 . S
C2405 H2428 0.950 . S
C2406 C2405 1.349 . S
C2406 C2418 1.349 . S
C2407 C2405 1.327 . S
C2407 C2423 1.429 . S
C2407 H2429 0.950 . S
C2408 H2404 0.949 . S
C2408 C2416 1.574 . S
C2408 C2424 1.368 . S
H2409 C2417 0.950 . S
H2410 C2415 0.950 . S
H2411 C2416 0.949 . S
H2412 C2418 0.950 . S
H2413 C2419 0.950 . S
H2414 C2420 0.949 . S
C2415 H2410 0.950 . S
C2415 C2417 1.327 . S
C2415 C2421 1.429 . S
C2416 C2408 1.574 . S
C2416 H2411 0.949 . S
C2416 C2422 1.368 . S
C2417 C2401 1.349 . S
C2417 H2409 0.950 . S
C2417 C2415 1.327 . S
C2418 C2406 1.349 . S
C2418 H2412 0.950 . S
C2418 C2419 1.327 . S
C2419 H2413 0.950 . S
C2419 C2418 1.327 . S
C2419 C2423 1.429 . S
C2420 C2403 1.574 . S
C2420 H2414 0.949 . S
C2420 C2424 1.368 . S
C2421 C2402 1.429 . S
C2421 C2415 1.429 . S
C2421 C2422 1.523 . S
C2422 C2403 1.368 . S
C2422 C2416 1.368 . S
C2422 C2421 1.523 . S
C2423 C2407 1.429 . S
C2423 C2419 1.429 . S
C2423 C2424 1.523 . S
C2424 C2408 1.368 . S
C2424 C2420 1.368 . S
C2424 C2423 1.523 . S
H2425 C2400 0.950 . S
H2426 C2402 0.950 . S
H2427 C2403 0.949 . S
H2428 C2405 0.950 . S
H2429 C2407 0.950 . S
C2430 C2431 1.349 . S
C2430 C2432 1.327 . S
C2430 H2455 0.950 . S
C2431 C2430 1.349 . S
C2431 C2447 1.349 . S
C2432 C2430 1.327 . S
C2432 C2451 1.429 . S
C2432 H2456 0.950 . S
C2433 C2450 1.574 . S
C2433 C2452 1.368 . S
C2433 H2457 0.949 . S
H2434 C2438 0.949 . S
C2435 C2436 1.349 . S
C2435 C2437 1.327 . S
C2435 H2458 0.950 . S
C2436 C2435 1.349 . S
C2436 C2448 1.349 . S
C2437 C2435 1.327 . S
C2437 C2453 1.429 . S
C2437 H2459 0.950 . S
C2438 H2434 0.949 . S
C2438 C2446 1.574 . S
C2438 C2454 1.368 . S
H2439 C2447 0.950 . S
H2440 C2445 0.950 . S
H2441 C2446 0.949 . S
H2442 C2448 0.950 . S
H2443 C2449 0.950 . S
H2444 C2450 0.949 . S
C2445 H2440 0.950 . S
C2445 C2447 1.327 . S
C2445 C2451 1.429 . S
C2446 C2438 1.574 . S
C2446 H2441 0.949 . S
C2446 C2452 1.368 . S
C2447 C2431 1.349 . S
C2447 H2439 0.950 . S
C2447 C2445 1.327 . S
C2448 C2436 1.349 . S
C2448 H2442 0.950 . S
C2448 C2449 1.327 . S
C2449 H2443 0.950 . S
C2449 C2448 1.327 . S
C2449 C2453 1.429 . S
C2450 C2433 1.574 . S
C2450 H2444 0.949 . S
C2450 C2454 1.368 . S
C2451 C2432 1.429 . S
C2451 C2445 1.429 . S
C2451 C2452 1.523 . S
C2452 C2433 1.368 . S
C2452 C2446 1.368 . S
C2452 C2451 1.523 . S
C2453 C2437 1.429 . S
C2453 C2449 1.429 . S
C2453 C2454 1.523 . S
C2454 C2438 1.368 . S
C2454 C2450 1.368 . S
C2454 C2453 1.523 . S
H2455 C2430 0.950 . S
H2456 C2432 0.950 . S
H2457 C2433 0.949 . S
H2458 C2435 0.950 . S
H2459 C2437 0.950 . S
C2460 C2461 1.349 . S
C2460 C2462 1.327 . S
C2460 H2485 0.950 . S
C2461 C2460 1.349 . S
C2461 C2477 1.349 . S
C2462 C2460 1.327 . S
C2462 C2481 1.429 . S
C2462 H2486 0.950 . S
C2463 C2480 1.574 . S
C2463 C2482 1.368 . S
C2463 H2487 0.949 . S
H2464 C2468 0.949 . S
C2465 C2466 1.349 . S
C2465 C2467 1.327 . S
C2465 H2488 0.950 . S
C2466 C2465 1.349 . S
C2466 C2478 1.349 . S
C2467 C2465 1.327 . S
C2467 C2483 1.429 . S
C2467 H2489 0.950 . S
C2468 H2464 0.949 . S
C2468 C2476 1.574 . S
C2468 C2484 1.368 . S
H2469 C2477 0.950 . S
H2470 C2475 0.950 . S
H2471 C2476 0.949 . S
H2472 C2478 0.950 . S
H2473 C2479 0.950 . S
H2474 C2480 0.949 . S
C2475 H2470 0.950 . S
C2475 C2477 1.327 . S
C2475 C2481 1.429 . S
C2476 C2468 1.574 . S
C2476 H2471 0.949 . S
C2476 C2482 1.368 . S
C2477 C2461 1.349 . S
C2477 H2469 0.950 . S
C2477 C2475 1.327 . S
C2478 C2466 1.349 . S
C2478 H2472 0.950 . S
C2478 C2479 1.327 . S
C2479 H2473 0.950 . S
C2479 C2478 1.327 . S
C2479 C2483 1.429 . S
C2480 C2463 1.574 . S
C2480 H2474 0.949 . S
C2480 C2484 1.368 . S
C2481 C2462 1.429 . S
C2481 C2475 1.429 . S
C2481 C2482 1.523 . S
C2482 C2463 1.368 . S
C2482 C2476 1.368 . S
C2482 C2481 1.523 . S
C2483 C2467 1.429 . S
C2483 C2479 1.429 . S
C2483 C2484 1.523 . S
C2484 C2468 1.368 . S
C2484 C2480 1.368 . S
C2484 C2483 1.523 . S
H2485 C2460 0.950 . S
H2486 C2462 0.950 . S
H2487 C2463 0.949 . S
H2488 C2465 0.950 . S
H2489 C2467 0.950 . S
C2490 C2491 1.349 . S
C2490 C2492 1.327 . S
C2490 H2515 0.950 . S
C2491 C2490 1.349 . S
C2491 C2507 1.349 . S
C2492 C2490 1.327 . S
C2492 C2511 1.429 . S
C2492 H2516 0.950 . S
C2493 C2510 1.574 . S
C2493 C2512 1.368 . S
C2493 H2517 0.949 . S
H2494 C2498 0.949 . S
C2495 C2496 1.349 . S
C2495 C2497 1.327 . S
C2495 H2518 0.950 . S
C2496 C2495 1.349 . S
C2496 C2508 1.349 . S
C2497 C2495 1.327 . S
C2497 C2513 1.429 . S
C2497 H2519 0.950 . S
C2498 H2494 0.949 . S
C2498 C2506 1.574 . S
C2498 C2514 1.368 . S
H2499 C2507 0.950 . S
H2500 C2505 0.950 . S
H2501 C2506 0.949 . S
H2502 C2508 0.950 . S
H2503 C2509 0.950 . S
H2504 C2510 0.949 . S
C2505 H2500 0.950 . S
C2505 C2507 1.327 . S
C2505 C2511 1.429 . S
C2506 C2498 1.574 . S
C2506 H2501 0.949 . S
C2506 C2512 1.368 . S
C2507 C2491 1.349 . S
C2507 H2499 0.950 . S
C2507 C2505 1.327 . S
C2508 C2496 1.349 . S
C2508 H2502 0.950 . S
C2508 C2509 1.327 . S
C2509 H2503 0.950 . S
C2509 C2508 1.327 . S
C2509 C2513 1.429 . S
C2510 C2493 1.574 . S
C2510 H2504 0.949 . S
C2510 C2514 1.368 . S
C2511 C2492 1.429 . S
C2511 C2505 1.429 . S
C2511 C2512 1.523 . S
C2512 C2493 1.368 . S
C2512 C2506 1.368 . S
C2512 C2511 1.523 . S
C2513 C2497 1.429 . S
C2513 C2509 1.429 . S
C2513 C2514 1.523 . S
C2514 C2498 1.368 . S
C2514 C2510 1.368 . S
C2514 C2513 1.523 . S
H2515 C2490 0.950 . S
H2516 C2492 0.950 . S
H2517 C2493 0.949 . S
H2518 C2495 0.950 . S
H2519 C2497 0.950 . S
C2520 C2521 1.349 . S
C2520 C2522 1.327 . S
C2520 H2545 0.950 . S
C2521 C2520 1.349 . S
C2521 C2537 1.349 . S
C2522 C2520 1.327 . S
C2522 C2541 1.429 . S
C2522 H2546 0.950 . S
C2523 C2540 1.574 . S
C2523 C2542 1.368 . S
C2523 H2547 0.949 . S
H2524 C2528 0.949 . S
C2525 C2526 1.349 . S
C2525 C2527 1.327 . S
C2525 H2548 0.950 . S
C2526 C2525 1.349 . S
C2526 C2538 1.349 . S
C2527 C2525 1.327 . S
C2527 C2543 1.429 . S
C2527 H2549 0.950 . S
C2528 H2524 0.949 . S
C2528 C2536 1.574 . S
C2528 C2544 1.368 . S
H2529 C2537 0.950 . S
H2530 C2535 0.950 . S
H2531 C2536 0.949 . S
H2532 C2538 0.950 . S
H2533 C2539 0.950 . S
H2534 C2540 0.949 . S
C2535 H2530 0.950 . S
C2535 C2537 1.327 . S
C2535 C2541 1.429 . S
C2536 C2528 1.574 . S
C2536 H2531 0.949 . S
C2536 C2542 1.368 . S
C2537 C2521 1.349 . S
C2537 H2529 0.950 . S
C2537 C2535 1.327 . S
C2538 C2526 1.349 . S
C2538 H2532 0.950 . S
C2538 C2539 1.327 . S
C2539 H2533 0.950 . S
C2539 C2538 1.327 . S
C2539 C2543 1.429 . S
C2540 C2523 1.574 . S
C2540 H2534 0.949 . S
C2540 C2544 1.368 . S
C2541 C2522 1.429 . S
C2541 C2535 1.429 . S
C2541 C2542 1.523 . S
C2542 C2523 1.368 . S
C2542 C2536 1.368 . S
C2542 C2541 1.523 . S
C2543 C2527 1.429 . S
C2543 C2539 1.429 . S
C2543 C2544 1.523 . S
C2544 C2528 1.368 . S
C2544 C2540 1.368 . S
C2544 C2543 1.523 . S
H2545 C2520 0.950 . S
H2546 C2522 0.950 . S
H2547 C2523 0.949 . S
H2548 C2525 0.950 . S
H2549 C2527 0.950 . S
C2550 C2551 1.349 . S
C2550 C2552 1.327 . S
C2550 H2575 0.950 . S
C2551 C2550 1.349 . S
C2551 C2567 1.349 . S
C2552 C2550 1.327 . S
C2552 C2571 1.429 . S
C2552 H2576 0.950 . S
C2553 C2570 1.574 . S
C2553 C2572 1.368 . S
C2553 H2577 0.949 . S
H2554 C2558 0.949 . S
C2555 C2556 1.349 . S
C2555 C2557 1.327 . S
C2555 H2578 0.950 . S
C2556 C2555 1.349 . S
C2556 C2568 1.349 . S
C2557 C2555 1.327 . S
C2557 C2573 1.429 . S
C2557 H2579 0.950 . S
C2558 H2554 0.949 . S
C2558 C2566 1.574 . S
C2558 C2574 1.368 . S
H2559 C2567 0.950 . S
H2560 C2565 0.950 . S
H2561 C2566 0.949 . S
H2562 C2568 0.950 . S
H2563 C2569 0.950 . S
H2564 C2570 0.949 . S
C2565 H2560 0.950 . S
C2565 C2567 1.327 . S
C2565 C2571 1.429 . S
C2566 C2558 1.574 . S
C2566 H2561 0.949 . S
C2566 C2572 1.368 . S
C2567 C2551 1.349 . S
C2567 H2559 0.950 . S
C2567 C2565 1.327 . S
C2568 C2556 1.349 . S
C2568 H2562 0.950 . S
C2568 C2569 1.327 . S
C2569 H2563 0.950 . S
C2569 C2568 1.327 . S
C2569 C2573 1.429 . S
C2570 C2553 1.574 . S
C2570 H2564 0.949 . S
C2570 C2574 1.368 . S
C2571 C2552 1.429 . S
C2571 C2565 1.429 . S
C2571 C2572 1.523 . S
C2572 C2553 1.368 . S
C2572 C2566 1.368 . S
C2572 C2571 1.523 . S
C2573 C2557 1.429 . S
C2573 C2569 1.429 . S
C2573 C2574 1.523 . S
C2574 C2558 1.368 . S
C2574 C2570 1.368 . S
C2574 C2573 1.523 . S
H2575 C2550 0.950 . S
H2576 C2552 0.950 . S
H2577 C2553 0.949 . S
H2578 C2555 0.950 . S
H2579 C2557 0.950 . S
C2580 C2581 1.349 . S
C2580 C2582 1.327 . S
C2580 H2605 0.950 . S
C2581 C2580 1.349 . S
C2581 C2597 1.349 . S
C2582 C2580 1.327 . S
C2582 C2601 1.429 . S
C2582 H2606 0.950 . S
C2583 C2600 1.574 . S
C2583 C2602 1.368 . S
C2583 H2607 0.949 . S
H2584 C2588 0.949 . S
C2585 C2586 1.349 . S
C2585 C2587 1.327 . S
C2585 H2608 0.950 . S
C2586 C2585 1.349 . S
C2586 C2598 1.349 . S
C2587 C2585 1.327 . S
C2587 C2603 1.429 . S
C2587 H2609 0.950 . S
C2588 H2584 0.949 . S
C2588 C2596 1.574 . S
C2588 C2604 1.368 . S
H2589 C2597 0.950 . S
H2590 C2595 0.950 . S
H2591 C2596 0.949 . S
H2592 C2598 0.950 . S
H2593 C2599 0.950 . S
H2594 C2600 0.949 . S
C2595 H2590 0.950 . S
C2595 C2597 1.327 . S
C2595 C2601 1.429 . S
C2596 C2588 1.574 . S
C2596 H2591 0.949 . S
C2596 C2602 1.368 . S
C2597 C2581 1.349 . S
C2597 H2589 0.950 . S
C2597 C2595 1.327 . S
C2598 C2586 1.349 . S
C2598 H2592 0.950 . S
C2598 C2599 1.327 . S
C2599 H2593 0.950 . S
C2599 C2598 1.327 . S
C2599 C2603 1.429 . S
C2600 C2583 1.574 . S
C2600 H2594 0.949 . S
C2600 C2604 1.368 . S
C2601 C2582 1.429 . S
C2601 C2595 1.429 . S
C2601 C2602 1.523 . S
C2602 C2583 1.368 . S
C2602 C2596 1.368 . S
C2602 C2601 1.523 . S
C2603 C2587 1.429 . S
C2603 C2599 1.429 . S
C2603 C2604 1.523 . S
C2604 C2588 1.368 . S
C2604 C2600 1.368 . S
C2604 C2603 1.523 . S
H2605 C2580 0.950 . S
H2606 C2582 0.950 . S
H2607 C2583 0.949 . S
H2608 C2585 0.950 . S
H2609 C2587 0.950 . S
C2610 C2611 1.349 . S
C2610 C2612 1.327 . S
C2610 H2635 0.950 . S
C2611 C2610 1.349 . S
C2611 C2627 1.349 . S
C2612 C2610 1.327 . S
C2612 C2631 1.429 . S
C2612 H2636 0.950 . S
C2613 C2630 1.574 . S
C2613 C2632 1.368 . S
C2613 H2637 0.949 . S
H2614 C2618 0.949 . S
C2615 C2616 1.349 . S
C2615 C2617 1.327 . S
C2615 H2638 0.950 . S
C2616 C2615 1.349 . S
C2616 C2628 1.349 . S
C2617 C2615 1.327 . S
C2617 C2633 1.429 . S
C2617 H2639 0.950 . S
C2618 H2614 0.949 . S
C2618 C2626 1.574 . S
C2618 C2634 1.368 . S
H2619 C2627 0.950 . S
H2620 C2625 0.950 . S
H2621 C2626 0.949 . S
H2622 C2628 0.950 . S
H2623 C2629 0.950 . S
H2624 C2630 0.949 . S
C2625 H2620 0.950 . S
C2625 C2627 1.327 . S
C2625 C2631 1.429 . S
C2626 C2618 1.574 . S
C2626 H2621 0.949 . S
C2626 C2632 1.368 . S
C2627 C2611 1.349 . S
C2627 H2619 0.950 . S
C2627 C2625 1.327 . S
C2628 C2616 1.349 . S
C2628 H2622 0.950 . S
C2628 C2629 1.327 . S
C2629 H2623 0.950 . S
C2629 C2628 1.327 . S
C2629 C2633 1.429 . S
C2630 C2613 1.574 . S
C2630 H2624 0.949 . S
C2630 C2634 1.368 . S
C2631 C2612 1.429 . S
C2631 C2625 1.429 . S
C2631 C2632 1.523 . S
C2632 C2613 1.368 . S
C2632 C2626 1.368 . S
C2632 C2631 1.523 . S
C2633 C2617 1.429 . S
C2633 C2629 1.429 . S
C2633 C2634 1.523 . S
C2634 C2618 1.368 . S
C2634 C2630 1.368 . S
C2634 C2633 1.523 . S
H2635 C2610 0.950 . S
H2636 C2612 0.950 . S
H2637 C2613 0.949 . S
H2638 C2615 0.950 . S
H2639 C2617 0.950 . S
C2640 C2641 1.349 . S
C2640 C2642 1.327 . S
C2640 H2665 0.950 . S
C2641 C2640 1.349 . S
C2641 C2657 1.349 . S
C2642 C2640 1.327 . S
C2642 C2661 1.429 . S
C2642 H2666 0.950 . S
C2643 C2660 1.574 . S
C2643 C2662 1.368 . S
C2643 H2667 0.949 . S
H2644 C2648 0.949 . S
C2645 C2646 1.349 . S
C2645 C2647 1.327 . S
C2645 H2668 0.950 . S
C2646 C2645 1.349 . S
C2646 C2658 1.349 . S
C2647 C2645 1.327 . S
C2647 C2663 1.429 . S
C2647 H2669 0.950 . S
C2648 H2644 0.949 . S
C2648 C2656 1.574 . S
C2648 C2664 1.368 . S
H2649 C2657 0.950 . S
H2650 C2655 0.950 . S
H2651 C2656 0.949 . S
H2652 C2658 0.950 . S
H2653 C2659 0.950 . S
H2654 C2660 0.949 . S
C2655 H2650 0.950 . S
C2655 C2657 1.327 . S
C2655 C2661 1.429 . S
C2656 C2648 1.574 . S
C2656 H2651 0.949 . S
C2656 C2662 1.368 . S
C2657 C2641 1.349 . S
C2657 H2649 0.950 . S
C2657 C2655 1.327 . S
C2658 C2646 1.349 . S
C2658 H2652 0.950 . S
C2658 C2659 1.327 . S
C2659 H2653 0.950 . S
C2659 C2658 1.327 . S
C2659 C2663 1.429 . S
C2660 C2643 1.574 . S
C2660 H2654 0.949 . S
C2660 C2664 1.368 . S
C2661 C2642 1.429 . S
C2661 C2655 1.429 . S
C2661 C2662 1.523 . S
C2662 C2643 1.368 . S
C2662 C2656 1.368 . S
C2662 C2661 1.523 . S
C2663 C2647 1.429 . S
C2663 C2659 1.429 . S
C2663 C2664 1.523 . S
C2664 C2648 1.368 . S
C2664 C2660 1.368 . S
C2664 C2663 1.523 . S
H2665 C2640 0.950 . S
H2666 C2642 0.950 . S
H2667 C2643 0.949 . S
H2668 C2645 0.950 . S
H2669 C2647 0.950 . S
C2670 C2671 1.349 . S
C2670 C2672 1.327 . S
C2670 H2695 0.950 . S
C2671 C2670 1.349 . S
C2671 C2687 1.349 . S
C2672 C2670 1.327 . S
C2672 C2691 1.429 . S
C2672 H2696 0.950 . S
C2673 C2690 1.574 . S
C2673 C2692 1.368 . S
C2673 H2697 0.949 . S
H2674 C2678 0.949 . S
C2675 C2676 1.349 . S
C2675 C2677 1.327 . S
C2675 H2698 0.950 . S
C2676 C2675 1.349 . S
C2676 C2688 1.349 . S
C2677 C2675 1.327 . S
C2677 C2693 1.429 . S
C2677 H2699 0.950 . S
C2678 H2674 0.949 . S
C2678 C2686 1.574 . S
C2678 C2694 1.368 . S
H2679 C2687 0.950 . S
H2680 C2685 0.950 . S
H2681 C2686 0.949 . S
H2682 C2688 0.950 . S
H2683 C2689 0.950 . S
H2684 C2690 0.949 . S
C2685 H2680 0.950 . S
C2685 C2687 1.327 . S
C2685 C2691 1.429 . S
C2686 C2678 1.574 . S
C2686 H2681 0.949 . S
C2686 C2692 1.368 . S
C2687 C2671 1.349 . S
C2687 H2679 0.950 . S
C2687 C2685 1.327 . S
C2688 C2676 1.349 . S
C2688 H2682 0.950 . S
C2688 C2689 1.327 . S
C2689 H2683 0.950 . S
C2689 C2688 1.327 . S
C2689 C2693 1.429 . S
C2690 C2673 1.574 . S
C2690 H2684 0.949 . S
C2690 C2694 1.368 . S
C2691 C2672 1.429 . S
C2691 C2685 1.429 . S
C2691 C2692 1.523 . S
C2692 C2673 1.368 . S
C2692 C2686 1.368 . S
C2692 C2691 1.523 . S
C2693 C2677 1.429 . S
C2693 C2689 1.429 . S
C2693 C2694 1.523 . S
C2694 C2678 1.368 . S
C2694 C2690 1.368 . S
C2694 C2693 1.523 . S
H2695 C2670 0.950 . S
H2696 C2672 0.950 . S
H2697 C2673 0.949 . S
H2698 C2675 0.950 . S
H2699 C2677 0.950 . S
C2700 C2701 1.349 . S
C2700 C2702 1.327 . S
C2700 H2725 0.950 . S
C2701 C2700 1.349 . S
C2701 C2717 1.349 . S
C2702 C2700 1.327 . S
C2702 C2721 1.429 . S
C2702 H2726 0.950 . S
C2703 C2720 1.574 . S
C2703 C2722 1.368 . S
C2703 H2727 0.949 . S
H2704 C2708 0.949 . S
C2705 C2706 1.349 . S
C2705 C2707 1.327 . S
C2705 H2728 0.950 . S
C2706 C2705 1.349 . S
C2706 C2718 1.349 . S
C2707 C2705 1.327 . S
C2707 C2723 1.429 . S
C2707 H2729 0.950 . S
C2708 H2704 0.949 . S
C2708 C2716 1.574 . S
C2708 C2724 1.368 . S
H2709 C2717 0.950 . S
H2710 C2715 0.950 . S
H2711 C2716 0.949 . S
H2712 C2718 0.950 . S
H2713 C2719 0.950 . S
H2714 C2720 0.949 . S
C2715 H2710 0.950 . S
C2715 C2717 1.327 . S
C2715 C2721 1.429 . S
C2716 C2708 1.574 . S
C2716 H2711 0.949 . S
C2716 C2722 1.368 . S
C2717 C2701 1.349 . S
C2717 H2709 0.950 . S
C2717 C2715 1.327 . S
C2718 C2706 1.349 . S
C2718 H2712 0.950 . S
C2718 C2719 1.327 . S
C2719 H2713 0.950 . S
C2719 C2718 1.327 . S
C2719 C2723 1.429 . S
C2720 C2703 1.574 . S
C2720 H2714 0.949 . S
C2720 C2724 1.368 . S
C2721 C2702 1.429 . S
C2721 C2715 1.429 . S
C2721 C2722 1.523 . S
C2722 C2703 1.368 . S
C2722 C2716 1.368 . S
C2722 C2721 1.523 . S
C2723 C2707 1.429 . S
C2723 C2719 1.429 . S
C2723 C2724 1.523 . S
C2724 C2708 1.368 . S
C2724 C2720 1.368 . S
C2724 C2723 1.523 . S
H2725 C2700 0.950 . S
H2726 C2702 0.950 . S
H2727 C2703 0.949 . S
H2728 C2705 0.950 . S
H2729 C2707 0.950 . S
C2730 C2731 1.349 . S
C2730 C2732 1.327 . S
C2730 H2755 0.950 . S
C2731 C2730 1.349 . S
C2731 C2747 1.349 . S
C2732 C2730 1.327 . S
C2732 C2751 1.429 . S
C2732 H2756 0.950 . S
C2733 C2750 1.574 . S
C2733 C2752 1.368 . S
C2733 H2757 0.949 . S
H2734 C2738 0.949 . S
C2735 C2736 1.349 . S
C2735 C2737 1.327 . S
C2735 H2758 0.950 . S
C2736 C2735 1.349 . S
C2736 C2748 1.349 . S
C2737 C2735 1.327 . S
C2737 C2753 1.429 . S
C2737 H2759 0.950 . S
C2738 H2734 0.949 . S
C2738 C2746 1.574 . S
C2738 C2754 1.368 . S
H2739 C2747 0.950 . S
H2740 C2745 0.950 . S
H2741 C2746 0.949 . S
H2742 C2748 0.950 . S
H2743 C2749 0.950 . S
H2744 C2750 0.949 . S
C2745 H2740 0.950 . S
C2745 C2747 1.327 . S
C2745 C2751 1.429 . S
C2746 C2738 1.574 . S
C2746 H2741 0.949 . S
C2746 C2752 1.368 . S
C2747 C2731 1.349 . S
C2747 H2739 0.950 . S
C2747 C2745 1.327 . S
C2748 C2736 1.349 . S
C2748 H2742 0.950 . S
C2748 C2749 1.327 . S
C2749 H2743 0.950 . S
C2749 C2748 1.327 . S
C2749 C2753 1.429 . S
C2750 C2733 1.574 . S
C2750 H2744 0.949 . S
C2750 C2754 1.368 . S
C2751 C2732 1.429 . S
C2751 C2745 1.429 . S
C2751 C2752 1.523 . S
C2752 C2733 1.368 . S
C2752 C2746 1.368 . S
C2752 C2751 1.523 . S
C2753 C2737 1.429 . S
C2753 C2749 1.429 . S
C2753 C2754 1.523 . S
C2754 C2738 1.368 . S
C2754 C2750 1.368 . S
C2754 C2753 1.523 . S
H2755 C2730 0.950 . S
H2756 C2732 0.950 . S
H2757 C2733 0.949 . S
H2758 C2735 0.950 . S
H2759 C2737 0.950 . S
C2760 C2761 1.349 . S
C2760 C2762 1.327 . S
C2760 H2785 0.950 . S
C2761 C2760 1.349 . S
C2761 C2777 1.349 . S
C2762 C2760 1.327 . S
C2762 C2781 1.429 . S
C2762 H2786 0.950 . S
C2763 C2780 1.574 . S
C2763 C2782 1.368 . S
C2763 H2787 0.949 . S
H2764 C2768 0.949 . S
C2765 C2766 1.349 . S
C2765 C2767 1.327 . S
C2765 H2788 0.950 . S
C2766 C2765 1.349 . S
C2766 C2778 1.349 . S
C2767 C2765 1.327 . S
C2767 C2783 1.429 . S
C2767 H2789 0.950 . S
C2768 H2764 0.949 . S
C2768 C2776 1.574 . S
C2768 C2784 1.368 . S
H2769 C2777 0.950 . S
H2770 C2775 0.950 . S
H2771 C2776 0.949 . S
H2772 C2778 0.950 . S
H2773 C2779 0.950 . S
H2774 C2780 0.949 . S
C2775 H2770 0.950 . S
C2775 C2777 1.327 . S
C2775 C2781 1.429 . S
C2776 C2768 1.574 . S
C2776 H2771 0.949 . S
C2776 C2782 1.368 . S
C2777 C2761 1.349 . S
C2777 H2769 0.950 . S
C2777 C2775 1.327 . S
C2778 C2766 1.349 . S
C2778 H2772 0.950 . S
C2778 C2779 1.327 . S
C2779 H2773 0.950 . S
C2779 C2778 1.327 . S
C2779 C2783 1.429 . S
C2780 C2763 1.574 . S
C2780 H2774 0.949 . S
C2780 C2784 1.368 . S
C2781 C2762 1.429 . S
C2781 C2775 1.429 . S
C2781 C2782 1.523 . S
C2782 C2763 1.368 . S
C2782 C2776 1.368 . S
C2782 C2781 1.523 . S
C2783 C2767 1.429 . S
C2783 C2779 1.429 . S
C2783 C2784 1.523 . S
C2784 C2768 1.368 . S
C2784 C2780 1.368 . S
C2784 C2783 1.523 . S
H2785 C2760 0.950 . S
H2786 C2762 0.950 . S
H2787 C2763 0.949 . S
H2788 C2765 0.950 . S
H2789 C2767 0.950 . S
C2790 C2791 1.349 . S
C2790 C2792 1.327 . S
C2790 H2815 0.950 . S
C2791 C2790 1.349 . S
C2791 C2807 1.349 . S
C2792 C2790 1.327 . S
C2792 C2811 1.429 . S
C2792 H2816 0.950 . S
C2793 C2810 1.574 . S
C2793 C2812 1.368 . S
C2793 H2817 0.949 . S
H2794 C2798 0.949 . S
C2795 C2796 1.349 . S
C2795 C2797 1.327 . S
C2795 H2818 0.950 . S
C2796 C2795 1.349 . S
C2796 C2808 1.349 . S
C2797 C2795 1.327 . S
C2797 C2813 1.429 . S
C2797 H2819 0.950 . S
C2798 H2794 0.949 . S
C2798 C2806 1.574 . S
C2798 C2814 1.368 . S
H2799 C2807 0.950 . S
H2800 C2805 0.950 . S
H2801 C2806 0.949 . S
H2802 C2808 0.950 . S
H2803 C2809 0.950 . S
H2804 C2810 0.949 . S
C2805 H2800 0.950 . S
C2805 C2807 1.327 . S
C2805 C2811 1.429 . S
C2806 C2798 1.574 . S
C2806 H2801 0.949 . S
C2806 C2812 1.368 . S
C2807 C2791 1.349 . S
C2807 H2799 0.950 . S
C2807 C2805 1.327 . S
C2808 C2796 1.349 . S
C2808 H2802 0.950 . S
C2808 C2809 1.327 . S
C2809 H2803 0.950 . S
C2809 C2808 1.327 . S
C2809 C2813 1.429 . S
C2810 C2793 1.574 . S
C2810 H2804 0.949 . S
C2810 C2814 1.368 . S
C2811 C2792 1.429 . S
C2811 C2805 1.429 . S
C2811 C2812 1.523 . S
C2812 C2793 1.368 . S
C2812 C2806 1.368 . S
C2812 C2811 1.523 . S
C2813 C2797 1.429 . S
C2813 C2809 1.429 . S
C2813 C2814 1.523 . S
C2814 C2798 1.368 . S
C2814 C2810 1.368 . S
C2814 C2813 1.523 . S
H2815 C2790 0.950 . S
H2816 C2792 0.950 . S
H2817 C2793 0.949 . S
H2818 C2795 0.950 . S
H2819 C2797 0.950 . S
C2820 C2821 1.349 . S
C2820 C2822 1.327 . S
C2820 H2845 0.950 . S
C2821 C2820 1.349 . S
C2821 C2837 1.349 . S
C2822 C2820 1.327 . S
C2822 C2841 1.429 . S
C2822 H2846 0.950 . S
C2823 C2840 1.574 . S
C2823 C2842 1.368 . S
C2823 H2847 0.949 . S
H2824 C2828 0.949 . S
C2825 C2826 1.349 . S
C2825 C2827 1.327 . S
C2825 H2848 0.950 . S
C2826 C2825 1.349 . S
C2826 C2838 1.349 . S
C2827 C2825 1.327 . S
C2827 C2843 1.429 . S
C2827 H2849 0.950 . S
C2828 H2824 0.949 . S
C2828 C2836 1.574 . S
C2828 C2844 1.368 . S
H2829 C2837 0.950 . S
H2830 C2835 0.950 . S
H2831 C2836 0.949 . S
H2832 C2838 0.950 . S
H2833 C2839 0.950 . S
H2834 C2840 0.949 . S
C2835 H2830 0.950 . S
C2835 C2837 1.327 . S
C2835 C2841 1.429 . S
C2836 C2828 1.574 . S
C2836 H2831 0.949 . S
C2836 C2842 1.368 . S
C2837 C2821 1.349 . S
C2837 H2829 0.950 . S
C2837 C2835 1.327 . S
C2838 C2826 1.349 . S
C2838 H2832 0.950 . S
C2838 C2839 1.327 . S
C2839 H2833 0.950 . S
C2839 C2838 1.327 . S
C2839 C2843 1.429 . S
C2840 C2823 1.574 . S
C2840 H2834 0.949 . S
C2840 C2844 1.368 . S
C2841 C2822 1.429 . S
C2841 C2835 1.429 . S
C2841 C2842 1.523 . S
C2842 C2823 1.368 . S
C2842 C2836 1.368 . S
C2842 C2841 1.523 . S
C2843 C2827 1.429 . S
C2843 C2839 1.429 . S
C2843 C2844 1.523 . S
C2844 C2828 1.368 . S
C2844 C2840 1.368 . S
C2844 C2843 1.523 . S
H2845 C2820 0.950 . S
H2846 C2822 0.950 . S
H2847 C2823 0.949 . S
H2848 C2825 0.950 . S
H2849 C2827 0.950 . S
C2850 C2851 1.349 . S
C2850 C2852 1.327 . S
C2850 H2875 0.950 . S
C2851 C2850 1.349 . S
C2851 C2867 1.349 . S
C2852 C2850 1.327 . S
C2852 C2871 1.429 . S
C2852 H2876 0.950 . S
C2853 C2870 1.574 . S
C2853 C2872 1.368 . S
C2853 H2877 0.949 . S
H2854 C2858 0.949 . S
C2855 C2856 1.349 . S
C2855 C2857 1.327 . S
C2855 H2878 0.950 . S
C2856 C2855 1.349 . S
C2856 C2868 1.349 . S
C2857 C2855 1.327 . S
C2857 C2873 1.429 . S
C2857 H2879 0.950 . S
C2858 H2854 0.949 . S
C2858 C2866 1.574 . S
C2858 C2874 1.368 . S
H2859 C2867 0.950 . S
H2860 C2865 0.950 . S
H2861 C2866 0.949 . S
H2862 C2868 0.950 . S
H2863 C2869 0.950 . S
H2864 C2870 0.949 . S
C2865 H2860 0.950 . S
C2865 C2867 1.327 . S
C2865 C2871 1.429 . S
C2866 C2858 1.574 . S
C2866 H2861 0.949 . S
C2866 C2872 1.368 . S
C2867 C2851 1.349 . S
C2867 H2859 0.950 . S
C2867 C2865 1.327 . S
C2868 C2856 1.349 . S
C2868 H2862 0.950 . S
C2868 C2869 1.327 . S
C2869 H2863 0.950 . S
C2869 C2868 1.327 . S
C2869 C2873 1.429 . S
C2870 C2853 1.574 . S
C2870 H2864 0.949 . S
C2870 C2874 1.368 . S
C2871 C2852 1.429 . S
C2871 C2865 1.429 . S
C2871 C2872 1.523 . S
C2872 C2853 1.368 . S
C2872 C2866 1.368 . S
C2872 C2871 1.523 . S
C2873 C2857 1.429 . S
C2873 C2869 1.429 . S
C2873 C2874 1.523 . S
C2874 C2858 1.368 . S
C2874 C2870 1.368 . S
C2874 C2873 1.523 . S
H2875 C2850 0.950 . S
H2876 C2852 0.950 . S
H2877 C2853 0.949 . S
H2878 C2855 0.950 . S
H2879 C2857 0.950 . S
C2880 C2881 1.349 . S
C2880 C2882 1.327 . S
C2880 H2905 0.950 . S
C2881 C2880 1.349 . S
C2881 C2897 1.349 . S
C2882 C2880 1.327 . S
C2882 C2901 1.429 . S
C2882 H2906 0.950 . S
C2883 C2900 1.574 . S
C2883 C2902 1.368 . S
C2883 H2907 0.949 . S
H2884 C2888 0.949 . S
C2885 C2886 1.349 . S
C2885 C2887 1.327 . S
C2885 H2908 0.950 . S
C2886 C2885 1.349 . S
C2886 C2898 1.349 . S
C2887 C2885 1.327 . S
C2887 C2903 1.429 . S
C2887 H2909 0.950 . S
C2888 H2884 0.949 . S
C2888 C2896 1.574 . S
C2888 C2904 1.368 . S
H2889 C2897 0.950 . S
H2890 C2895 0.950 . S
H2891 C2896 0.949 . S
H2892 C2898 0.950 . S
H2893 C2899 0.950 . S
H2894 C2900 0.949 . S
C2895 H2890 0.950 . S
C2895 C2897 1.327 . S
C2895 C2901 1.429 . S
C2896 C2888 1.574 . S
C2896 H2891 0.949 . S
C2896 C2902 1.368 . S
C2897 C2881 1.349 . S
C2897 H2889 0.950 . S
C2897 C2895 1.327 . S
C2898 C2886 1.349 . S
C2898 H2892 0.950 . S
C2898 C2899 1.327 . S
C2899 H2893 0.950 . S
C2899 C2898 1.327 . S
C2899 C2903 1.429 . S
C2900 C2883 1.574 . S
C2900 H2894 0.949 . S
C2900 C2904 1.368 . S
C2901 C2882 1.429 . S
C2901 C2895 1.429 . S
C2901 C2902 1.523 . S
C2902 C2883 1.368 . S
C2902 C2896 1.368 . S
C2902 C2901 1.523 . S
C2903 C2887 1.429 . S
C2903 C2899 1.429 . S
C2903 C2904 1.523 . S
C2904 C2888 1.368 . S
C2904 C2900 1.368 . S
C2904 C2903 1.523 . S
H2905 C2880 0.950 . S
H2906 C2882 0.950 . S
H2907 C2883 0.949 . S
H2908 C2885 0.950 . S
H2909 C2887 0.950 . S
C2910 C2911 1.349 . S
C2910 C2912 1.327 . S
C2910 H2935 0.950 . S
C2911 C2910 1.349 . S
C2911 C2927 1.349 . S
C2912 C2910 1.327 . S
C2912 C2931 1.429 . S
C2912 H2936 0.950 . S
C2913 C2930 1.574 . S
C2913 C2932 1.368 . S
C2913 H2937 0.949 . S
H2914 C2918 0.965 . S
C2915 C2916 1.349 . S
C2915 C2917 1.327 . S
C2915 H2938 0.950 . S
C2916 C2915 1.349 . S
C2916 C2928 1.349 . S
C2917 C2915 1.327 . S
C2917 C2933 1.429 . S
C2917 H2939 0.950 . S
C2918 H2914 0.965 . S
C2918 C2926 1.574 . S
C2918 C2934 1.368 . S
H2919 C2927 0.950 . S
H2920 C2925 0.950 . S
H2921 C2926 0.949 . S
H2922 C2928 0.950 . S
H2923 C2929 0.950 . S
H2924 C2930 0.949 . S
C2925 H2920 0.950 . S
C2925 C2927 1.327 . S
C2925 C2931 1.429 . S
C2926 C2918 1.574 . S
C2926 H2921 0.949 . S
C2926 C2932 1.368 . S
C2927 C2911 1.349 . S
C2927 H2919 0.950 . S
C2927 C2925 1.327 . S
C2928 C2916 1.349 . S
C2928 H2922 0.950 . S
C2928 C2929 1.327 . S
C2929 H2923 0.950 . S
C2929 C2928 1.327 . S
C2929 C2933 1.429 . S
C2930 C2913 1.574 . S
C2930 H2924 0.949 . S
C2930 C2934 1.368 . S
C2931 C2912 1.429 . S
C2931 C2925 1.429 . S
C2931 C2932 1.523 . S
C2932 C2913 1.368 . S
C2932 C2926 1.368 . S
C2932 C2931 1.523 . S
C2933 C2917 1.429 . S
C2933 C2929 1.429 . S
C2933 C2934 1.523 1_565 S
C2934 C2918 1.368 . S
C2934 C2930 1.368 . S
C2934 C2933 1.523 1_545 S
H2935 C2910 0.950 . S
H2936 C2912 0.950 . S
H2937 C2913 0.949 . S
H2938 C2915 0.950 . S
H2939 C2917 0.950 . S
C2940 C2941 1.349 . S
C2940 C2942 1.327 . S
C2940 H2965 0.950 . S
C2941 C2940 1.349 . S
C2941 C2957 1.349 . S
C2942 C2940 1.327 . S
C2942 C2961 1.429 . S
C2942 H2966 0.950 . S
C2943 C2960 1.574 . S
C2943 C2962 1.368 1_455 S
C2943 H2967 0.949 . S
H2944 C2948 0.949 . S
C2945 C2946 1.349 . S
C2945 C2947 1.327 . S
C2945 H2968 0.950 . S
C2946 C2945 1.349 . S
C2946 C2958 1.349 . S
C2947 C2945 1.327 . S
C2947 C2963 1.429 . S
C2947 H2969 0.950 . S
C2948 H2944 0.949 . S
C2948 C2956 1.574 1_455 S
C2948 C2964 1.368 . S
H2949 C2957 0.950 . S
H2950 C2955 0.950 . S
H2951 C2956 0.949 . S
H2952 C2958 0.950 . S
H2953 C2959 0.950 . S
H2954 C2960 0.949 . S
C2955 H2950 0.950 . S
C2955 C2957 1.327 . S
C2955 C2961 1.429 . S
C2956 C2948 1.574 1_655 S
C2956 H2951 0.949 . S
C2956 C2962 1.368 . S
C2957 C2941 1.349 . S
C2957 H2949 0.950 . S
C2957 C2955 1.327 . S
C2958 C2946 1.349 . S
C2958 H2952 0.950 . S
C2958 C2959 1.327 . S
C2959 H2953 0.950 . S
C2959 C2958 1.327 . S
C2959 C2963 1.429 . S
C2960 C2943 1.574 . S
C2960 H2954 0.949 . S
C2960 C2964 1.368 . S
C2961 C2942 1.429 . S
C2961 C2955 1.429 . S
C2961 C2962 1.523 . S
C2962 C2943 1.368 1_655 S
C2962 C2956 1.368 . S
C2962 C2961 1.523 . S
C2963 C2947 1.429 . S
C2963 C2959 1.429 . S
C2963 C2964 1.523 . S
C2964 C2948 1.368 . S
C2964 C2960 1.368 . S
C2964 C2963 1.523 . S
H2965 C2940 0.950 . S
H2966 C2942 0.950 . S
H2967 C2943 0.949 . S
H2968 C2945 0.950 . S
H2969 C2947 0.950 . S
C2970 C2971 1.349 . S
C2970 C2972 1.327 . S
C2970 H2995 0.950 . S
C2971 C2970 1.349 . S
C2971 C2987 1.349 . S
C2972 C2970 1.327 . S
C2972 C2991 1.429 . S
C2972 H2996 0.950 . S
C2973 C2990 1.574 . S
C2973 C2992 1.368 . S
C2973 H2997 0.949 . S
H2974 C2978 0.949 . S
C2975 C2976 1.349 . S
C2975 C2977 1.327 . S
C2975 H2998 0.950 . S
C2976 C2975 1.349 . S
C2976 C2988 1.349 . S
C2977 C2975 1.327 . S
C2977 C2993 1.429 . S
C2977 H2999 0.950 . S
C2978 H2974 0.949 . S
C2978 C2986 1.574 . S
C2978 C2994 1.368 . S
H2979 C2987 0.950 . S
H2980 C2985 0.950 . S
H2981 C2986 0.949 . S
H2982 C2988 0.950 . S
H2983 C2989 0.950 . S
H2984 C2990 0.949 . S
C2985 H2980 0.950 . S
C2985 C2987 1.327 . S
C2985 C2991 1.429 . S
C2986 C2978 1.574 . S
C2986 H2981 0.949 . S
C2986 C2992 1.368 . S
C2987 C2971 1.349 . S
C2987 H2979 0.950 . S
C2987 C2985 1.327 . S
C2988 C2976 1.349 . S
C2988 H2982 0.950 . S
C2988 C2989 1.327 . S
C2989 H2983 0.950 . S
C2989 C2988 1.327 . S
C2989 C2993 1.429 . S
C2990 C2973 1.574 . S
C2990 H2984 0.949 . S
C2990 C2994 1.368 . S
C2991 C2972 1.429 . S
C2991 C2985 1.429 . S
C2991 C2992 1.523 . S
C2992 C2973 1.368 . S
C2992 C2986 1.368 . S
C2992 C2991 1.523 . S
C2993 C2977 1.429 . S
C2993 C2989 1.429 . S
C2993 C2994 1.523 . S
C2994 C2978 1.368 . S
C2994 C2990 1.368 . S
C2994 C2993 1.523 . S
H2995 C2970 0.950 . S
H2996 C2972 0.950 . S
H2997 C2973 0.949 . S
H2998 C2975 0.950 . S
H2999 C2977 0.950 . S
C3000 C3001 1.349 . S
C3000 C3002 1.327 . S
C3000 H3025 0.950 . S
C3001 C3000 1.349 . S
C3001 C3017 1.349 . S
C3002 C3000 1.327 . S
C3002 C3021 1.429 . S
C3002 H3026 0.950 . S
C3003 C3020 1.574 . S
C3003 C3022 1.368 . S
C3003 H3027 0.949 . S
H3004 C3008 0.949 . S
C3005 C3006 1.349 . S
C3005 C3007 1.327 . S
C3005 H3028 0.950 . S
C3006 C3005 1.349 . S
C3006 C3018 1.349 . S
C3007 C3005 1.327 . S
C3007 C3023 1.429 . S
C3007 H3029 0.950 . S
C3008 H3004 0.949 . S
C3008 C3016 1.574 . S
C3008 C3024 1.368 . S
H3009 C3017 0.950 . S
H3010 C3015 0.950 . S
H3011 C3016 0.949 . S
H3012 C3018 0.950 . S
H3013 C3019 0.950 . S
H3014 C3020 0.949 . S
C3015 H3010 0.950 . S
C3015 C3017 1.327 . S
C3015 C3021 1.429 . S
C3016 C3008 1.574 . S
C3016 H3011 0.949 . S
C3016 C3022 1.368 . S
C3017 C3001 1.349 . S
C3017 H3009 0.950 . S
C3017 C3015 1.327 . S
C3018 C3006 1.349 . S
C3018 H3012 0.950 . S
C3018 C3019 1.327 . S
C3019 H3013 0.950 . S
C3019 C3018 1.327 . S
C3019 C3023 1.429 . S
C3020 C3003 1.574 . S
C3020 H3014 0.949 . S
C3020 C3024 1.368 . S
C3021 C3002 1.429 . S
C3021 C3015 1.429 . S
C3021 C3022 1.523 . S
C3022 C3003 1.368 . S
C3022 C3016 1.368 . S
C3022 C3021 1.523 . S
C3023 C3007 1.429 . S
C3023 C3019 1.429 . S
C3023 C3024 1.523 . S
C3024 C3008 1.368 . S
C3024 C3020 1.368 . S
C3024 C3023 1.523 . S
H3025 C3000 0.950 . S
H3026 C3002 0.950 . S
H3027 C3003 0.949 . S
H3028 C3005 0.950 . S
H3029 C3007 0.950 . S
C3030 C3031 1.349 . S
C3030 C3032 1.327 . S
C3030 H3055 0.950 . S
C3031 C3030 1.349 . S
C3031 C3047 1.349 . S
C3032 C3030 1.327 . S
C3032 C3051 1.429 . S
C3032 H3056 0.950 . S
C3033 C3050 1.574 . S
C3033 C3052 1.368 . S
C3033 H3057 0.949 . S
H3034 C3038 0.949 . S
C3035 C3036 1.349 . S
C3035 C3037 1.327 . S
C3035 H3058 0.950 . S
C3036 C3035 1.349 . S
C3036 C3048 1.349 . S
C3037 C3035 1.327 . S
C3037 C3053 1.429 . S
C3037 H3059 0.950 . S
C3038 H3034 0.949 . S
C3038 C3046 1.574 . S
C3038 C3054 1.368 . S
H3039 C3047 0.950 . S
H3040 C3045 0.950 . S
H3041 C3046 0.949 . S
H3042 C3048 0.950 . S
H3043 C3049 0.950 . S
H3044 C3050 0.949 . S
C3045 H3040 0.950 . S
C3045 C3047 1.327 . S
C3045 C3051 1.429 . S
C3046 C3038 1.574 . S
C3046 H3041 0.949 . S
C3046 C3052 1.368 . S
C3047 C3031 1.349 . S
C3047 H3039 0.950 . S
C3047 C3045 1.327 . S
C3048 C3036 1.349 . S
C3048 H3042 0.950 . S
C3048 C3049 1.327 . S
C3049 H3043 0.950 . S
C3049 C3048 1.327 . S
C3049 C3053 1.429 . S
C3050 C3033 1.574 . S
C3050 H3044 0.949 . S
C3050 C3054 1.368 . S
C3051 C3032 1.429 . S
C3051 C3045 1.429 . S
C3051 C3052 1.523 . S
C3052 C3033 1.368 . S
C3052 C3046 1.368 . S
C3052 C3051 1.523 . S
C3053 C3037 1.429 . S
C3053 C3049 1.429 . S
C3053 C3054 1.523 . S
C3054 C3038 1.368 . S
C3054 C3050 1.368 . S
C3054 C3053 1.523 . S
H3055 C3030 0.950 . S
H3056 C3032 0.950 . S
H3057 C3033 0.949 . S
H3058 C3035 0.950 . S
H3059 C3037 0.950 . S
C3060 C3061 1.349 . S
C3060 C3062 1.327 . S
C3060 H3085 0.950 . S
C3061 C3060 1.349 . S
C3061 C3077 1.349 . S
C3062 C3060 1.327 . S
C3062 C3081 1.429 . S
C3062 H3086 0.950 . S
C3063 C3080 1.574 . S
C3063 C3082 1.368 . S
C3063 H3087 0.949 . S
H3064 C3068 0.949 . S
C3065 C3066 1.349 . S
C3065 C3067 1.327 . S
C3065 H3088 0.950 . S
C3066 C3065 1.349 . S
C3066 C3078 1.349 . S
C3067 C3065 1.327 . S
C3067 C3083 1.429 . S
C3067 H3089 0.950 . S
C3068 H3064 0.949 . S
C3068 C3076 1.574 . S
C3068 C3084 1.368 . S
H3069 C3077 0.950 . S
H3070 C3075 0.950 . S
H3071 C3076 0.949 . S
H3072 C3078 0.950 . S
H3073 C3079 0.950 . S
H3074 C3080 0.949 . S
C3075 H3070 0.950 . S
C3075 C3077 1.327 . S
C3075 C3081 1.429 . S
C3076 C3068 1.574 . S
C3076 H3071 0.949 . S
C3076 C3082 1.368 . S
C3077 C3061 1.349 . S
C3077 H3069 0.950 . S
C3077 C3075 1.327 . S
C3078 C3066 1.349 . S
C3078 H3072 0.950 . S
C3078 C3079 1.327 . S
C3079 H3073 0.950 . S
C3079 C3078 1.327 . S
C3079 C3083 1.429 . S
C3080 C3063 1.574 . S
C3080 H3074 0.949 . S
C3080 C3084 1.368 . S
C3081 C3062 1.429 . S
C3081 C3075 1.429 . S
C3081 C3082 1.523 . S
C3082 C3063 1.368 . S
C3082 C3076 1.368 . S
C3082 C3081 1.523 . S
C3083 C3067 1.429 . S
C3083 C3079 1.429 . S
C3083 C3084 1.523 . S
C3084 C3068 1.368 . S
C3084 C3080 1.368 . S
C3084 C3083 1.523 . S
H3085 C3060 0.950 . S
H3086 C3062 0.950 . S
H3087 C3063 0.949 . S
H3088 C3065 0.950 . S
H3089 C3067 0.950 . S
C3090 C3091 1.349 . S
C3090 C3092 1.327 . S
C3090 H3115 0.950 . S
C3091 C3090 1.349 . S
C3091 C3107 1.349 . S
C3092 C3090 1.327 . S
C3092 C3111 1.429 . S
C3092 H3116 0.950 . S
C3093 C3110 1.574 . S
C3093 C3112 1.368 . S
C3093 H3117 0.949 . S
H3094 C3098 0.949 . S
C3095 C3096 1.349 . S
C3095 C3097 1.327 . S
C3095 H3118 0.950 . S
C3096 C3095 1.349 . S
C3096 C3108 1.349 . S
C3097 C3095 1.327 . S
C3097 C3113 1.429 . S
C3097 H3119 0.950 . S
C3098 H3094 0.949 . S
C3098 C3106 1.574 . S
C3098 C3114 1.368 . S
H3099 C3107 0.950 . S
H3100 C3105 0.950 . S
H3101 C3106 0.949 . S
H3102 C3108 0.950 . S
H3103 C3109 0.950 . S
H3104 C3110 0.949 . S
C3105 H3100 0.950 . S
C3105 C3107 1.327 . S
C3105 C3111 1.429 . S
C3106 C3098 1.574 . S
C3106 H3101 0.949 . S
C3106 C3112 1.368 . S
C3107 C3091 1.349 . S
C3107 H3099 0.950 . S
C3107 C3105 1.327 . S
C3108 C3096 1.349 . S
C3108 H3102 0.950 . S
C3108 C3109 1.327 . S
C3109 H3103 0.950 . S
C3109 C3108 1.327 . S
C3109 C3113 1.429 . S
C3110 C3093 1.574 . S
C3110 H3104 0.949 . S
C3110 C3114 1.368 . S
C3111 C3092 1.429 . S
C3111 C3105 1.429 . S
C3111 C3112 1.523 . S
C3112 C3093 1.368 . S
C3112 C3106 1.368 . S
C3112 C3111 1.523 . S
C3113 C3097 1.429 . S
C3113 C3109 1.429 . S
C3113 C3114 1.523 . S
C3114 C3098 1.368 . S
C3114 C3110 1.368 . S
C3114 C3113 1.523 . S
H3115 C3090 0.950 . S
H3116 C3092 0.950 . S
H3117 C3093 0.949 . S
H3118 C3095 0.950 . S
H3119 C3097 0.950 . S
C3120 C3121 1.349 . S
C3120 C3122 1.327 . S
C3120 H3145 0.950 . S
C3121 C3120 1.349 . S
C3121 C3137 1.349 . S
C3122 C3120 1.327 . S
C3122 C3141 1.429 . S
C3122 H3146 0.950 . S
C3123 C3140 1.574 . S
C3123 C3142 1.368 . S
C3123 H3147 0.949 . S
H3124 C3128 0.949 . S
C3125 C3126 1.349 . S
C3125 C3127 1.327 . S
C3125 H3148 0.950 . S
C3126 C3125 1.349 . S
C3126 C3138 1.349 . S
C3127 C3125 1.327 . S
C3127 C3143 1.429 . S
C3127 H3149 0.950 . S
C3128 H3124 0.949 . S
C3128 C3136 1.574 . S
C3128 C3144 1.368 . S
H3129 C3137 0.950 . S
H3130 C3135 0.950 . S
H3131 C3136 0.949 . S
H3132 C3138 0.950 . S
H3133 C3139 0.950 . S
H3134 C3140 0.949 . S
C3135 H3130 0.950 . S
C3135 C3137 1.327 . S
C3135 C3141 1.429 . S
C3136 C3128 1.574 . S
C3136 H3131 0.949 . S
C3136 C3142 1.368 . S
C3137 C3121 1.349 . S
C3137 H3129 0.950 . S
C3137 C3135 1.327 . S
C3138 C3126 1.349 . S
C3138 H3132 0.950 . S
C3138 C3139 1.327 . S
C3139 H3133 0.950 . S
C3139 C3138 1.327 . S
C3139 C3143 1.429 . S
C3140 C3123 1.574 . S
C3140 H3134 0.949 . S
C3140 C3144 1.368 . S
C3141 C3122 1.429 . S
C3141 C3135 1.429 . S
C3141 C3142 1.523 . S
C3142 C3123 1.368 . S
C3142 C3136 1.368 . S
C3142 C3141 1.523 . S
C3143 C3127 1.429 . S
C3143 C3139 1.429 . S
C3143 C3144 1.523 . S
C3144 C3128 1.368 . S
C3144 C3140 1.368 . S
C3144 C3143 1.523 . S
H3145 C3120 0.950 . S
H3146 C3122 0.950 . S
H3147 C3123 0.949 . S
H3148 C3125 0.950 . S
H3149 C3127 0.950 . S
C3150 C3151 1.349 . S
C3150 C3152 1.327 . S
C3150 H3175 0.950 . S
C3151 C3150 1.349 . S
C3151 C3167 1.349 . S
C3152 C3150 1.327 . S
C3152 C3171 1.429 . S
C3152 H3176 0.950 . S
C3153 C3170 1.574 . S
C3153 C3172 1.368 . S
C3153 H3177 0.949 . S
H3154 C3158 0.949 . S
C3155 C3156 1.349 . S
C3155 C3157 1.327 . S
C3155 H3178 0.950 . S
C3156 C3155 1.349 . S
C3156 C3168 1.349 . S
C3157 C3155 1.327 . S
C3157 C3173 1.429 . S
C3157 H3179 0.950 . S
C3158 H3154 0.949 . S
C3158 C3166 1.574 . S
C3158 C3174 1.368 . S
H3159 C3167 0.950 . S
H3160 C3165 0.950 . S
H3161 C3166 0.949 . S
H3162 C3168 0.950 . S
H3163 C3169 0.950 . S
H3164 C3170 0.949 . S
C3165 H3160 0.950 . S
C3165 C3167 1.327 . S
C3165 C3171 1.429 . S
C3166 C3158 1.574 . S
C3166 H3161 0.949 . S
C3166 C3172 1.368 . S
C3167 C3151 1.349 . S
C3167 H3159 0.950 . S
C3167 C3165 1.327 . S
C3168 C3156 1.349 . S
C3168 H3162 0.950 . S
C3168 C3169 1.327 . S
C3169 H3163 0.950 . S
C3169 C3168 1.327 . S
C3169 C3173 1.429 . S
C3170 C3153 1.574 . S
C3170 H3164 0.949 . S
C3170 C3174 1.368 . S
C3171 C3152 1.429 . S
C3171 C3165 1.429 . S
C3171 C3172 1.523 . S
C3172 C3153 1.368 . S
C3172 C3166 1.368 . S
C3172 C3171 1.523 . S
C3173 C3157 1.429 . S
C3173 C3169 1.429 . S
C3173 C3174 1.523 . S
C3174 C3158 1.368 . S
C3174 C3170 1.368 . S
C3174 C3173 1.523 . S
H3175 C3150 0.950 . S
H3176 C3152 0.950 . S
H3177 C3153 0.949 . S
H3178 C3155 0.950 . S
H3179 C3157 0.950 . S
C3180 C3181 1.349 . S
C3180 C3182 1.327 . S
C3180 H3205 0.950 . S
C3181 C3180 1.349 . S
C3181 C3197 1.349 . S
C3182 C3180 1.327 . S
C3182 C3201 1.429 . S
C3182 H3206 0.950 . S
C3183 C3200 1.574 . S
C3183 C3202 1.368 . S
C3183 H3207 0.949 . S
H3184 C3188 0.949 . S
C3185 C3186 1.349 . S
C3185 C3187 1.327 . S
C3185 H3208 0.950 . S
C3186 C3185 1.349 . S
C3186 C3198 1.349 . S
C3187 C3185 1.327 . S
C3187 C3203 1.429 . S
C3187 H3209 0.950 . S
C3188 H3184 0.949 . S
C3188 C3196 1.574 . S
C3188 C3204 1.368 . S
H3189 C3197 0.950 . S
H3190 C3195 0.950 . S
H3191 C3196 0.949 . S
H3192 C3198 0.950 . S
H3193 C3199 0.950 . S
H3194 C3200 0.949 . S
C3195 H3190 0.950 . S
C3195 C3197 1.327 . S
C3195 C3201 1.429 . S
C3196 C3188 1.574 . S
C3196 H3191 0.949 . S
C3196 C3202 1.368 . S
C3197 C3181 1.349 . S
C3197 H3189 0.950 . S
C3197 C3195 1.327 . S
C3198 C3186 1.349 . S
C3198 H3192 0.950 . S
C3198 C3199 1.327 . S
C3199 H3193 0.950 . S
C3199 C3198 1.327 . S
C3199 C3203 1.429 . S
C3200 C3183 1.574 . S
C3200 H3194 0.949 . S
C3200 C3204 1.368 . S
C3201 C3182 1.429 . S
C3201 C3195 1.429 . S
C3201 C3202 1.523 . S
C3202 C3183 1.368 . S
C3202 C3196 1.368 . S
C3202 C3201 1.523 . S
C3203 C3187 1.429 . S
C3203 C3199 1.429 . S
C3203 C3204 1.523 1_565 S
C3204 C3188 1.368 . S
C3204 C3200 1.368 . S
C3204 C3203 1.523 1_545 S
H3205 C3180 0.950 . S
H3206 C3182 0.950 . S
H3207 C3183 0.949 . S
H3208 C3185 0.950 . S
H3209 C3187 0.950 . S
C3210 C3211 1.349 . S
C3210 C3212 1.327 . S
C3210 H3235 0.950 . S
C3211 C3210 1.349 . S
C3211 C3227 1.349 . S
C3212 C3210 1.327 . S
C3212 C3231 1.429 . S
C3212 H3236 0.950 . S
C3213 C3230 1.574 . S
C3213 C3232 1.368 1_455 S
C3213 H3237 0.949 1_455 S
H3214 C3218 0.949 . S
C3215 C3216 1.349 . S
C3215 C3217 1.327 . S
C3215 H3238 0.950 . S
C3216 C3215 1.349 . S
C3216 C3228 1.349 . S
C3217 C3215 1.327 . S
C3217 C3233 1.429 . S
C3217 H3239 0.950 . S
C3218 H3214 0.949 . S
C3218 C3226 1.601 . S
C3218 C3234 1.368 . S
H3219 C3227 0.950 . S
H3220 C3225 0.950 . S
H3221 C3226 0.935 1_655 S
H3222 C3228 0.950 . S
H3223 C3229 0.950 . S
H3224 C3230 0.949 . S
C3225 H3220 0.950 . S
C3225 C3227 1.327 . S
C3225 C3231 1.429 . S
C3226 C3218 1.601 . S
C3226 H3221 0.935 1_455 S
C3226 C3232 1.359 1_455 S
C3227 C3211 1.349 . S
C3227 H3219 0.950 . S
C3227 C3225 1.327 . S
C3228 C3216 1.349 . S
C3228 H3222 0.950 . S
C3228 C3229 1.327 . S
C3229 H3223 0.950 . S
C3229 C3228 1.327 . S
C3229 C3233 1.429 . S
C3230 C3213 1.574 . S
C3230 H3224 0.949 . S
C3230 C3234 1.368 . S
C3231 C3212 1.429 . S
C3231 C3225 1.429 . S
C3231 C3232 1.523 . S
C3232 C3213 1.368 1_655 S
C3232 C3226 1.359 1_655 S
C3232 C3231 1.523 . S
C3233 C3217 1.429 . S
C3233 C3229 1.429 . S
C3233 C3234 1.523 . S
C3234 C3218 1.368 . S
C3234 C3230 1.368 . S
C3234 C3233 1.523 . S
H3235 C3210 0.950 . S
H3236 C3212 0.950 . S
H3237 C3213 0.949 1_655 S
H3238 C3215 0.950 . S
H3239 C3217 0.950 . S
C3240 C3241 1.349 . S
C3240 C3242 1.327 . S
C3240 H3265 0.950 . S
C3241 C3240 1.349 . S
C3241 C3257 1.349 . S
C3242 C3240 1.327 . S
C3242 C3261 1.429 . S
C3242 H3266 0.950 . S
C3243 C3260 1.574 . S
C3243 C3262 1.368 . S
C3243 H3267 0.949 . S
H3244 C3248 0.949 . S
C3245 C3246 1.349 . S
C3245 C3247 1.327 . S
C3245 H3268 0.950 . S
C3246 C3245 1.349 . S
C3246 C3258 1.349 . S
C3247 C3245 1.327 . S
C3247 C3263 1.429 . S
C3247 H3269 0.950 . S
C3248 H3244 0.949 . S
C3248 C3256 1.574 . S
C3248 C3264 1.368 . S
H3249 C3257 0.950 . S
H3250 C3255 0.950 . S
H3251 C3256 0.949 . S
H3252 C3258 0.950 . S
H3253 C3259 0.950 . S
H3254 C3260 0.949 . S
C3255 H3250 0.950 . S
C3255 C3257 1.327 . S
C3255 C3261 1.429 . S
C3256 C3248 1.574 . S
C3256 H3251 0.949 . S
C3256 C3262 1.368 . S
C3257 C3241 1.349 . S
C3257 H3249 0.950 . S
C3257 C3255 1.327 . S
C3258 C3246 1.349 . S
C3258 H3252 0.950 . S
C3258 C3259 1.327 . S
C3259 H3253 0.950 . S
C3259 C3258 1.327 . S
C3259 C3263 1.429 . S
C3260 C3243 1.574 . S
C3260 H3254 0.949 . S
C3260 C3264 1.368 . S
C3261 C3242 1.429 . S
C3261 C3255 1.429 . S
C3261 C3262 1.523 . S
C3262 C3243 1.368 . S
C3262 C3256 1.368 . S
C3262 C3261 1.523 . S
C3263 C3247 1.429 . S
C3263 C3259 1.429 . S
C3263 C3264 1.523 . S
C3264 C3248 1.368 . S
C3264 C3260 1.368 . S
C3264 C3263 1.523 . S
H3265 C3240 0.950 . S
H3266 C3242 0.950 . S
H3267 C3243 0.949 . S
H3268 C3245 0.950 . S
H3269 C3247 0.950 . S
C3270 C3271 1.349 . S
C3270 C3272 1.327 . S
C3270 H3295 0.950 . S
C3271 C3270 1.349 . S
C3271 C3287 1.349 . S
C3272 C3270 1.327 . S
C3272 C3291 1.429 . S
C3272 H3296 0.950 . S
C3273 C3290 1.574 . S
C3273 C3292 1.368 . S
C3273 H3297 0.949 . S
H3274 C3278 0.949 . S
C3275 C3276 1.349 . S
C3275 C3277 1.327 . S
C3275 H3298 0.950 . S
C3276 C3275 1.349 . S
C3276 C3288 1.349 . S
C3277 C3275 1.327 . S
C3277 C3293 1.429 . S
C3277 H3299 0.950 . S
C3278 H3274 0.949 . S
C3278 C3286 1.574 . S
C3278 C3294 1.368 . S
H3279 C3287 0.950 . S
H3280 C3285 0.950 . S
H3281 C3286 0.949 . S
H3282 C3288 0.950 . S
H3283 C3289 0.950 . S
H3284 C3290 0.949 . S
C3285 H3280 0.950 . S
C3285 C3287 1.327 . S
C3285 C3291 1.429 . S
C3286 C3278 1.574 . S
C3286 H3281 0.949 . S
C3286 C3292 1.368 . S
C3287 C3271 1.349 . S
C3287 H3279 0.950 . S
C3287 C3285 1.327 . S
C3288 C3276 1.349 . S
C3288 H3282 0.950 . S
C3288 C3289 1.327 . S
C3289 H3283 0.950 . S
C3289 C3288 1.327 . S
C3289 C3293 1.429 . S
C3290 C3273 1.574 . S
C3290 H3284 0.949 . S
C3290 C3294 1.368 . S
C3291 C3272 1.429 . S
C3291 C3285 1.429 . S
C3291 C3292 1.523 . S
C3292 C3273 1.368 . S
C3292 C3286 1.368 . S
C3292 C3291 1.523 . S
C3293 C3277 1.429 . S
C3293 C3289 1.429 . S
C3293 C3294 1.523 . S
C3294 C3278 1.368 . S
C3294 C3290 1.368 . S
C3294 C3293 1.523 . S
H3295 C3270 0.950 . S
H3296 C3272 0.950 . S
H3297 C3273 0.949 . S
H3298 C3275 0.950 . S
H3299 C3277 0.950 . S
C3300 C3301 1.349 . S
C3300 C3302 1.327 . S
C3300 H3325 0.950 . S
C3301 C3300 1.349 . S
C3301 C3317 1.349 . S
C3302 C3300 1.327 . S
C3302 C3321 1.429 . S
C3302 H3326 0.950 . S
C3303 C3320 1.574 . S
C3303 C3322 1.368 . S
C3303 H3327 0.949 . S
H3304 C3308 0.949 . S
C3305 C3306 1.349 . S
C3305 C3307 1.327 . S
C3305 H3328 0.950 . S
C3306 C3305 1.349 . S
C3306 C3318 1.349 . S
C3307 C3305 1.327 . S
C3307 C3323 1.429 . S
C3307 H3329 0.950 . S
C3308 H3304 0.949 . S
C3308 C3316 1.574 . S
C3308 C3324 1.368 . S
H3309 C3317 0.950 . S
H3310 C3315 0.950 . S
H3311 C3316 0.949 . S
H3312 C3318 0.950 . S
H3313 C3319 0.950 . S
H3314 C3320 0.949 . S
C3315 H3310 0.950 . S
C3315 C3317 1.327 . S
C3315 C3321 1.429 . S
C3316 C3308 1.574 . S
C3316 H3311 0.949 . S
C3316 C3322 1.368 . S
C3317 C3301 1.349 . S
C3317 H3309 0.950 . S
C3317 C3315 1.327 . S
C3318 C3306 1.349 . S
C3318 H3312 0.950 . S
C3318 C3319 1.327 . S
C3319 H3313 0.950 . S
C3319 C3318 1.327 . S
C3319 C3323 1.429 . S
C3320 C3303 1.574 . S
C3320 H3314 0.949 . S
C3320 C3324 1.368 . S
C3321 C3302 1.429 . S
C3321 C3315 1.429 . S
C3321 C3322 1.523 . S
C3322 C3303 1.368 . S
C3322 C3316 1.368 . S
C3322 C3321 1.523 . S
C3323 C3307 1.429 . S
C3323 C3319 1.429 . S
C3323 C3324 1.523 . S
C3324 C3308 1.368 . S
C3324 C3320 1.368 . S
C3324 C3323 1.523 . S
H3325 C3300 0.950 . S
H3326 C3302 0.950 . S
H3327 C3303 0.949 . S
H3328 C3305 0.950 . S
H3329 C3307 0.950 . S
C3330 C3331 1.349 . S
C3330 C3332 1.327 . S
C3330 H3355 0.950 . S
C3331 C3330 1.349 . S
C3331 C3347 1.349 . S
C3332 C3330 1.327 . S
C3332 C3351 1.429 . S
C3332 H3356 0.950 . S
C3333 C3350 1.574 . S
C3333 C3352 1.368 . S
C3333 H3357 0.949 . S
H3334 C3338 0.949 . S
C3335 C3336 1.349 . S
C3335 C3337 1.327 . S
C3335 H3358 0.950 . S
C3336 C3335 1.349 . S
C3336 C3348 1.349 . S
C3337 C3335 1.327 . S
C3337 C3353 1.429 . S
C3337 H3359 0.950 . S
C3338 H3334 0.949 . S
C3338 C3346 1.574 . S
C3338 C3354 1.368 . S
H3339 C3347 0.950 . S
H3340 C3345 0.950 . S
H3341 C3346 0.949 . S
H3342 C3348 0.950 . S
H3343 C3349 0.950 . S
H3344 C3350 0.949 . S
C3345 H3340 0.950 . S
C3345 C3347 1.327 . S
C3345 C3351 1.429 . S
C3346 C3338 1.574 . S
C3346 H3341 0.949 . S
C3346 C3352 1.368 . S
C3347 C3331 1.349 . S
C3347 H3339 0.950 . S
C3347 C3345 1.327 . S
C3348 C3336 1.349 . S
C3348 H3342 0.950 . S
C3348 C3349 1.327 . S
C3349 H3343 0.950 . S
C3349 C3348 1.327 . S
C3349 C3353 1.429 . S
C3350 C3333 1.574 . S
C3350 H3344 0.949 . S
C3350 C3354 1.368 . S
C3351 C3332 1.429 . S
C3351 C3345 1.429 . S
C3351 C3352 1.523 . S
C3352 C3333 1.368 . S
C3352 C3346 1.368 . S
C3352 C3351 1.523 . S
C3353 C3337 1.429 . S
C3353 C3349 1.429 . S
C3353 C3354 1.523 . S
C3354 C3338 1.368 . S
C3354 C3350 1.368 . S
C3354 C3353 1.523 . S
H3355 C3330 0.950 . S
H3356 C3332 0.950 . S
H3357 C3333 0.949 . S
H3358 C3335 0.950 . S
H3359 C3337 0.950 . S
C3360 C3361 1.349 . S
C3360 C3362 1.327 . S
C3360 H3385 0.950 . S
C3361 C3360 1.349 . S
C3361 C3377 1.349 . S
C3362 C3360 1.327 . S
C3362 C3381 1.429 . S
C3362 H3386 0.950 . S
C3363 C3380 1.574 1_545 S
C3363 C3382 1.368 . S
C3363 H3387 0.949 . S
H3364 C3368 0.925 1_565 S
C3365 C3366 1.349 . S
C3365 C3367 1.327 . S
C3365 H3388 0.950 . S
C3366 C3365 1.349 . S
C3366 C3378 1.349 . S
C3367 C3365 1.327 . S
C3367 C3383 1.429 . S
C3367 H3389 0.950 . S
C3368 H3364 0.925 1_545 S
C3368 C3376 1.574 . S
C3368 C3384 1.368 1_545 S
H3369 C3377 0.950 . S
H3370 C3375 0.950 . S
H3371 C3376 0.949 . S
H3372 C3378 0.950 . S
H3373 C3379 0.950 . S
H3374 C3380 0.949 . S
C3375 H3370 0.950 . S
C3375 C3377 1.327 . S
C3375 C3381 1.429 . S
C3376 C3368 1.574 . S
C3376 H3371 0.949 . S
C3376 C3382 1.368 . S
C3377 C3361 1.349 . S
C3377 H3369 0.950 . S
C3377 C3375 1.327 . S
C3378 C3366 1.349 . S
C3378 H3372 0.950 . S
C3378 C3379 1.327 . S
C3379 H3373 0.950 . S
C3379 C3378 1.327 . S
C3379 C3383 1.429 . S
C3380 C3363 1.574 1_565 S
C3380 H3374 0.949 . S
C3380 C3384 1.368 . S
C3381 C3362 1.429 . S
C3381 C3375 1.429 . S
C3381 C3382 1.523 . S
C3382 C3363 1.368 . S
C3382 C3376 1.368 . S
C3382 C3381 1.523 . S
C3383 C3367 1.429 . S
C3383 C3379 1.429 . S
C3383 C3384 1.523 . S
C3384 C3368 1.368 1_565 S
C3384 C3380 1.368 . S
C3384 C3383 1.523 . S
H3385 C3360 0.950 . S
H3386 C3362 0.950 . S
H3387 C3363 0.949 . S
H3388 C3365 0.950 . S
H3389 C3367 0.950 . S
C3390 C3391 1.349 . S
C3390 C3392 1.327 . S
C3390 H3415 0.950 . S
C3391 C3390 1.349 . S
C3391 C3407 1.349 . S
C3392 C3390 1.327 . S
C3392 C3411 1.429 . S
C3392 H3416 0.950 . S
C3393 C3410 1.574 . S
C3393 C3412 1.368 . S
C3393 H3417 0.949 . S
H3394 C3398 0.949 . S
C3395 C3396 1.349 . S
C3395 C3397 1.327 . S
C3395 H3418 0.950 . S
C3396 C3395 1.349 . S
C3396 C3408 1.349 . S
C3397 C3395 1.327 . S
C3397 C3413 1.429 . S
C3397 H3419 0.950 . S
C3398 H3394 0.949 . S
C3398 C3406 1.574 . S
C3398 C3414 1.368 . S
H3399 C3407 0.950 . S
H3400 C3405 0.950 . S
H3401 C3406 0.949 . S
H3402 C3408 0.950 . S
H3403 C3409 0.950 . S
H3404 C3410 0.949 . S
C3405 H3400 0.950 . S
C3405 C3407 1.327 . S
C3405 C3411 1.429 . S
C3406 C3398 1.574 . S
C3406 H3401 0.949 . S
C3406 C3412 1.368 . S
C3407 C3391 1.349 . S
C3407 H3399 0.950 . S
C3407 C3405 1.327 . S
C3408 C3396 1.349 . S
C3408 H3402 0.950 . S
C3408 C3409 1.327 . S
C3409 H3403 0.950 . S
C3409 C3408 1.327 . S
C3409 C3413 1.429 . S
C3410 C3393 1.574 . S
C3410 H3404 0.949 . S
C3410 C3414 1.368 . S
C3411 C3392 1.429 . S
C3411 C3405 1.429 . S
C3411 C3412 1.523 . S
C3412 C3393 1.368 . S
C3412 C3406 1.368 . S
C3412 C3411 1.523 . S
C3413 C3397 1.429 . S
C3413 C3409 1.429 . S
C3413 C3414 1.523 1_655 S
C3414 C3398 1.368 . S
C3414 C3410 1.368 . S
C3414 C3413 1.523 1_455 S
H3415 C3390 0.950 . S
H3416 C3392 0.950 . S
H3417 C3393 0.949 . S
H3418 C3395 0.950 . S
H3419 C3397 0.950 . S
C3420 C3421 1.349 . S
C3420 C3422 1.327 . S
C3420 H3445 0.950 . S
C3421 C3420 1.349 . S
C3421 C3437 1.349 . S
C3422 C3420 1.327 . S
C3422 C3441 1.429 . S
C3422 H3446 0.950 . S
C3423 C3440 1.574 . S
C3423 C3442 1.368 . S
C3423 H3447 0.949 . S
H3424 C3428 0.949 . S
C3425 C3426 1.349 . S
C3425 C3427 1.327 . S
C3425 H3448 0.950 . S
C3426 C3425 1.349 . S
C3426 C3438 1.349 . S
C3427 C3425 1.327 . S
C3427 C3443 1.429 . S
C3427 H3449 0.950 . S
C3428 H3424 0.949 . S
C3428 C3436 1.574 . S
C3428 C3444 1.368 . S
H3429 C3437 0.950 . S
H3430 C3435 0.950 . S
H3431 C3436 0.949 . S
H3432 C3438 0.950 . S
H3433 C3439 0.950 . S
H3434 C3440 0.949 . S
C3435 H3430 0.950 . S
C3435 C3437 1.327 . S
C3435 C3441 1.429 . S
C3436 C3428 1.574 . S
C3436 H3431 0.949 . S
C3436 C3442 1.368 . S
C3437 C3421 1.349 . S
C3437 H3429 0.950 . S
C3437 C3435 1.327 . S
C3438 C3426 1.349 . S
C3438 H3432 0.950 . S
C3438 C3439 1.327 . S
C3439 H3433 0.950 . S
C3439 C3438 1.327 . S
C3439 C3443 1.429 . S
C3440 C3423 1.574 . S
C3440 H3434 0.949 . S
C3440 C3444 1.368 . S
C3441 C3422 1.429 . S
C3441 C3435 1.429 . S
C3441 C3442 1.523 . S
C3442 C3423 1.368 . S
C3442 C3436 1.368 . S
C3442 C3441 1.523 . S
C3443 C3427 1.429 . S
C3443 C3439 1.429 . S
C3443 C3444 1.523 . S
C3444 C3428 1.368 . S
C3444 C3440 1.368 . S
C3444 C3443 1.523 . S
H3445 C3420 0.950 . S
H3446 C3422 0.950 . S
H3447 C3423 0.949 . S
H3448 C3425 0.950 . S
H3449 C3427 0.950 . S
C3450 C3451 1.349 . S
C3450 C3452 1.327 . S
C3450 H3475 0.950 . S
C3451 C3450 1.349 . S
C3451 C3467 1.349 . S
C3452 C3450 1.327 . S
C3452 C3471 1.429 . S
C3452 H3476 0.950 . S
C3453 C3470 1.574 . S
C3453 C3472 1.368 . S
C3453 H3477 0.949 . S
H3454 C3458 0.949 . S
C3455 C3456 1.349 . S
C3455 C3457 1.327 . S
C3455 H3478 0.950 . S
C3456 C3455 1.349 . S
C3456 C3468 1.349 . S
C3457 C3455 1.327 . S
C3457 C3473 1.429 . S
C3457 H3479 0.950 . S
C3458 H3454 0.949 . S
C3458 C3466 1.574 1_565 S
C3458 C3474 1.368 . S
H3459 C3467 0.950 . S
H3460 C3465 0.950 . S
H3461 C3466 0.949 . S
H3462 C3468 0.950 . S
H3463 C3469 0.950 . S
H3464 C3470 0.949 . S
C3465 H3460 0.950 . S
C3465 C3467 1.327 . S
C3465 C3471 1.429 . S
C3466 C3458 1.574 1_545 S
C3466 H3461 0.949 . S
C3466 C3472 1.368 . S
C3467 C3451 1.349 . S
C3467 H3459 0.950 . S
C3467 C3465 1.327 . S
C3468 C3456 1.349 . S
C3468 H3462 0.950 . S
C3468 C3469 1.327 . S
C3469 H3463 0.950 . S
C3469 C3468 1.327 . S
C3469 C3473 1.429 . S
C3470 C3453 1.574 . S
C3470 H3464 0.949 . S
C3470 C3474 1.368 1_545 S
C3471 C3452 1.429 . S
C3471 C3465 1.429 . S
C3471 C3472 1.523 . S
C3472 C3453 1.368 . S
C3472 C3466 1.368 . S
C3472 C3471 1.523 . S
C3473 C3457 1.429 . S
C3473 C3469 1.429 . S
C3473 C3474 1.523 . S
C3474 C3458 1.368 . S
C3474 C3470 1.368 1_565 S
C3474 C3473 1.523 . S
H3475 C3450 0.950 . S
H3476 C3452 0.950 . S
H3477 C3453 0.949 . S
H3478 C3455 0.950 . S
H3479 C3457 0.950 . S
C3480 C3481 1.349 . S
C3480 C3482 1.327 . S
C3480 H3505 0.950 . S
C3481 C3480 1.349 . S
C3481 C3497 1.349 . S
C3482 C3480 1.327 . S
C3482 C3501 1.429 . S
C3482 H3506 0.950 . S
C3483 C3500 1.574 . S
C3483 C3502 1.368 . S
C3483 H3507 0.949 . S
H3484 C3488 0.949 . S
C3485 C3486 1.349 . S
C3485 C3487 1.327 . S
C3485 H3508 0.950 . S
C3486 C3485 1.349 . S
C3486 C3498 1.349 . S
C3487 C3485 1.327 . S
C3487 C3503 1.429 . S
C3487 H3509 0.950 . S
C3488 H3484 0.949 . S
C3488 C3496 1.574 . S
C3488 C3504 1.368 . S
H3489 C3497 0.950 . S
H3490 C3495 0.950 . S
H3491 C3496 0.949 . S
H3492 C3498 0.950 . S
H3493 C3499 0.950 . S
H3494 C3500 0.949 . S
C3495 H3490 0.950 . S
C3495 C3497 1.327 . S
C3495 C3501 1.429 . S
C3496 C3488 1.574 . S
C3496 H3491 0.949 . S
C3496 C3502 1.368 . S
C3497 C3481 1.349 . S
C3497 H3489 0.950 . S
C3497 C3495 1.327 . S
C3498 C3486 1.349 . S
C3498 H3492 0.950 . S
C3498 C3499 1.327 . S
C3499 H3493 0.950 . S
C3499 C3498 1.327 . S
C3499 C3503 1.429 . S
C3500 C3483 1.574 . S
C3500 H3494 0.949 . S
C3500 C3504 1.368 . S
C3501 C3482 1.429 . S
C3501 C3495 1.429 . S
C3501 C3502 1.523 . S
C3502 C3483 1.368 . S
C3502 C3496 1.368 . S
C3502 C3501 1.523 . S
C3503 C3487 1.429 . S
C3503 C3499 1.429 . S
C3503 C3504 1.523 1_655 S
C3504 C3488 1.368 . S
C3504 C3500 1.368 . S
C3504 C3503 1.523 1_455 S
H3505 C3480 0.950 . S
H3506 C3482 0.950 . S
H3507 C3483 0.949 . S
H3508 C3485 0.950 . S
H3509 C3487 0.950 . S
C3510 C3511 1.349 . S
C3510 C3512 1.327 . S
C3510 H3535 0.950 . S
C3511 C3510 1.349 . S
C3511 C3527 1.349 . S
C3512 C3510 1.327 . S
C3512 C3531 1.429 . S
C3512 H3536 0.950 . S
C3513 C3530 1.574 . S
C3513 C3532 1.368 . S
C3513 H3537 0.949 . S
H3514 C3518 0.949 . S
C3515 C3516 1.349 . S
C3515 C3517 1.327 . S
C3515 H3538 0.950 . S
C3516 C3515 1.349 . S
C3516 C3528 1.349 . S
C3517 C3515 1.327 . S
C3517 C3533 1.429 . S
C3517 H3539 0.950 . S
C3518 H3514 0.949 . S
C3518 C3526 1.574 . S
C3518 C3534 1.368 . S
H3519 C3527 0.950 . S
H3520 C3525 0.950 . S
H3521 C3526 0.949 . S
H3522 C3528 0.950 . S
H3523 C3529 0.950 . S
H3524 C3530 0.949 . S
C3525 H3520 0.950 . S
C3525 C3527 1.327 . S
C3525 C3531 1.429 . S
C3526 C3518 1.574 . S
C3526 H3521 0.949 . S
C3526 C3532 1.368 . S
C3527 C3511 1.349 . S
C3527 H3519 0.950 . S
C3527 C3525 1.327 . S
C3528 C3516 1.349 . S
C3528 H3522 0.950 . S
C3528 C3529 1.327 . S
C3529 H3523 0.950 . S
C3529 C3528 1.327 . S
C3529 C3533 1.429 . S
C3530 C3513 1.574 . S
C3530 H3524 0.949 . S
C3530 C3534 1.368 . S
C3531 C3512 1.429 . S
C3531 C3525 1.429 . S
C3531 C3532 1.523 . S
C3532 C3513 1.368 . S
C3532 C3526 1.368 . S
C3532 C3531 1.523 . S
C3533 C3517 1.429 . S
C3533 C3529 1.429 . S
C3533 C3534 1.523 . S
C3534 C3518 1.368 . S
C3534 C3530 1.368 . S
C3534 C3533 1.523 . S
H3535 C3510 0.950 . S
H3536 C3512 0.950 . S
H3537 C3513 0.949 . S
H3538 C3515 0.950 . S
H3539 C3517 0.950 . S
C3540 C3541 1.349 . S
C3540 C3542 1.327 . S
C3540 H3565 0.950 . S
C3541 C3540 1.349 . S
C3541 C3557 1.349 . S
C3542 C3540 1.327 . S
C3542 C3561 1.429 . S
C3542 H3566 0.950 . S
C3543 C3560 1.574 . S
C3543 C3562 1.368 . S
C3543 H3567 0.949 . S
H3544 C3548 0.949 . S
C3545 C3546 1.349 . S
C3545 C3547 1.327 . S
C3545 H3568 0.950 . S
C3546 C3545 1.349 . S
C3546 C3558 1.349 . S
C3547 C3545 1.327 . S
C3547 C3563 1.429 . S
C3547 H3569 0.950 . S
C3548 H3544 0.949 . S
C3548 C3556 1.574 . S
C3548 C3564 1.368 . S
H3549 C3557 0.950 . S
H3550 C3555 0.950 . S
H3551 C3556 0.949 . S
H3552 C3558 0.950 . S
H3553 C3559 0.950 . S
H3554 C3560 0.949 . S
C3555 H3550 0.950 . S
C3555 C3557 1.327 . S
C3555 C3561 1.429 . S
C3556 C3548 1.574 . S
C3556 H3551 0.949 . S
C3556 C3562 1.368 . S
C3557 C3541 1.349 . S
C3557 H3549 0.950 . S
C3557 C3555 1.327 . S
C3558 C3546 1.349 . S
C3558 H3552 0.950 . S
C3558 C3559 1.327 . S
C3559 H3553 0.950 . S
C3559 C3558 1.327 . S
C3559 C3563 1.429 . S
C3560 C3543 1.574 . S
C3560 H3554 0.949 . S
C3560 C3564 1.368 . S
C3561 C3542 1.429 . S
C3561 C3555 1.429 . S
C3561 C3562 1.523 . S
C3562 C3543 1.368 . S
C3562 C3556 1.368 . S
C3562 C3561 1.523 . S
C3563 C3547 1.429 . S
C3563 C3559 1.429 . S
C3563 C3564 1.523 . S
C3564 C3548 1.368 . S
C3564 C3560 1.368 . S
C3564 C3563 1.523 . S
H3565 C3540 0.950 . S
H3566 C3542 0.950 . S
H3567 C3543 0.949 . S
H3568 C3545 0.950 . S
H3569 C3547 0.950 . S
C3570 C3571 1.349 . S
C3570 C3572 1.327 . S
C3570 H3595 0.950 . S
C3571 C3570 1.349 . S
C3571 C3587 1.349 . S
C3572 C3570 1.327 . S
C3572 C3591 1.429 . S
C3572 H3596 0.950 . S
C3573 C3590 1.574 . S
C3573 C3592 1.368 . S
C3573 H3597 0.949 . S
H3574 C3578 0.949 . S
C3575 C3576 1.349 . S
C3575 C3577 1.327 . S
C3575 H3598 0.950 . S
C3576 C3575 1.349 . S
C3576 C3588 1.349 . S
C3577 C3575 1.327 . S
C3577 C3593 1.429 . S
C3577 H3599 0.950 . S
C3578 H3574 0.949 . S
C3578 C3586 1.574 . S
C3578 C3594 1.368 . S
H3579 C3587 0.950 . S
H3580 C3585 0.950 . S
H3581 C3586 0.949 . S
H3582 C3588 0.950 . S
H3583 C3589 0.950 . S
H3584 C3590 0.949 . S
C3585 H3580 0.950 . S
C3585 C3587 1.327 . S
C3585 C3591 1.429 . S
C3586 C3578 1.574 . S
C3586 H3581 0.949 . S
C3586 C3592 1.368 . S
C3587 C3571 1.349 . S
C3587 H3579 0.950 . S
C3587 C3585 1.327 . S
C3588 C3576 1.349 . S
C3588 H3582 0.950 . S
C3588 C3589 1.327 . S
C3589 H3583 0.950 . S
C3589 C3588 1.327 . S
C3589 C3593 1.429 . S
C3590 C3573 1.574 . S
C3590 H3584 0.949 . S
C3590 C3594 1.368 . S
C3591 C3572 1.429 . S
C3591 C3585 1.429 . S
C3591 C3592 1.523 . S
C3592 C3573 1.368 . S
C3592 C3586 1.368 . S
C3592 C3591 1.523 . S
C3593 C3577 1.429 . S
C3593 C3589 1.429 . S
C3593 C3594 1.523 . S
C3594 C3578 1.368 . S
C3594 C3590 1.368 . S
C3594 C3593 1.523 . S
H3595 C3570 0.950 . S
H3596 C3572 0.950 . S
H3597 C3573 0.949 . S
H3598 C3575 0.950 . S
H3599 C3577 0.950 . S
C3600 C3601 1.349 . S
C3600 C3602 1.327 . S
C3600 H3625 0.950 . S
C3601 C3600 1.349 . S
C3601 C3617 1.349 . S
C3602 C3600 1.327 . S
C3602 C3621 1.429 . S
C3602 H3626 0.950 . S
C3603 C3620 1.574 . S
C3603 C3622 1.368 . S
C3603 H3627 0.949 . S
H3604 C3608 0.949 . S
C3605 C3606 1.349 . S
C3605 C3607 1.327 . S
C3605 H3628 0.950 . S
C3606 C3605 1.349 . S
C3606 C3618 1.349 . S
C3607 C3605 1.327 . S
C3607 C3623 1.429 . S
C3607 H3629 0.950 . S
C3608 H3604 0.949 . S
C3608 C3616 1.574 . S
C3608 C3624 1.368 . S
H3609 C3617 0.950 . S
H3610 C3615 0.950 . S
H3611 C3616 0.949 . S
H3612 C3618 0.950 . S
H3613 C3619 0.950 . S
H3614 C3620 0.949 . S
C3615 H3610 0.950 . S
C3615 C3617 1.327 . S
C3615 C3621 1.429 . S
C3616 C3608 1.574 . S
C3616 H3611 0.949 . S
C3616 C3622 1.368 . S
C3617 C3601 1.349 . S
C3617 H3609 0.950 . S
C3617 C3615 1.327 . S
C3618 C3606 1.349 . S
C3618 H3612 0.950 . S
C3618 C3619 1.327 . S
C3619 H3613 0.950 . S
C3619 C3618 1.327 . S
C3619 C3623 1.429 . S
C3620 C3603 1.574 . S
C3620 H3614 0.949 . S
C3620 C3624 1.368 . S
C3621 C3602 1.429 . S
C3621 C3615 1.429 . S
C3621 C3622 1.523 . S
C3622 C3603 1.368 . S
C3622 C3616 1.368 . S
C3622 C3621 1.523 . S
C3623 C3607 1.429 . S
C3623 C3619 1.429 . S
C3623 C3624 1.523 . S
C3624 C3608 1.368 . S
C3624 C3620 1.368 . S
C3624 C3623 1.523 . S
H3625 C3600 0.950 . S
H3626 C3602 0.950 . S
H3627 C3603 0.949 . S
H3628 C3605 0.950 . S
H3629 C3607 0.950 . S
C3630 C3631 1.349 . S
C3630 C3632 1.327 . S
C3630 H3655 0.950 . S
C3631 C3630 1.349 . S
C3631 C3647 1.349 . S
C3632 C3630 1.327 . S
C3632 C3651 1.429 . S
C3632 H3656 0.950 . S
C3633 C3650 1.574 . S
C3633 C3652 1.368 . S
C3633 H3657 0.949 . S
H3634 C3638 0.949 . S
C3635 C3636 1.349 . S
C3635 C3637 1.327 . S
C3635 H3658 0.950 . S
C3636 C3635 1.349 . S
C3636 C3648 1.349 . S
C3637 C3635 1.327 . S
C3637 C3653 1.429 . S
C3637 H3659 0.950 . S
C3638 H3634 0.949 . S
C3638 C3646 1.574 . S
C3638 C3654 1.368 . S
H3639 C3647 0.950 . S
H3640 C3645 0.950 . S
H3641 C3646 0.949 . S
H3642 C3648 0.950 . S
H3643 C3649 0.950 . S
H3644 C3650 0.949 . S
C3645 H3640 0.950 . S
C3645 C3647 1.327 . S
C3645 C3651 1.429 . S
C3646 C3638 1.574 . S
C3646 H3641 0.949 . S
C3646 C3652 1.368 . S
C3647 C3631 1.349 . S
C3647 H3639 0.950 . S
C3647 C3645 1.327 . S
C3648 C3636 1.349 . S
C3648 H3642 0.950 . S
C3648 C3649 1.327 . S
C3649 H3643 0.950 . S
C3649 C3648 1.327 . S
C3649 C3653 1.429 . S
C3650 C3633 1.574 . S
C3650 H3644 0.949 . S
C3650 C3654 1.368 . S
C3651 C3632 1.429 . S
C3651 C3645 1.429 . S
C3651 C3652 1.523 . S
C3652 C3633 1.368 . S
C3652 C3646 1.368 . S
C3652 C3651 1.523 . S
C3653 C3637 1.429 . S
C3653 C3649 1.429 . S
C3653 C3654 1.523 . S
C3654 C3638 1.368 . S
C3654 C3650 1.368 . S
C3654 C3653 1.523 . S
H3655 C3630 0.950 . S
H3656 C3632 0.950 . S
H3657 C3633 0.949 . S
H3658 C3635 0.950 . S
H3659 C3637 0.950 . S
C3660 C3661 1.349 . S
C3660 C3662 1.327 . S
C3660 H3685 0.950 . S
C3661 C3660 1.349 . S
C3661 C3677 1.349 . S
C3662 C3660 1.327 . S
C3662 C3681 1.429 . S
C3662 H3686 0.950 . S
C3663 C3680 1.574 . S
C3663 C3682 1.368 . S
C3663 H3687 0.949 . S
H3664 C3668 0.949 . S
C3665 C3666 1.349 . S
C3665 C3667 1.327 . S
C3665 H3688 0.950 . S
C3666 C3665 1.349 . S
C3666 C3678 1.349 . S
C3667 C3665 1.327 . S
C3667 C3683 1.429 . S
C3667 H3689 0.950 . S
C3668 H3664 0.949 . S
C3668 C3676 1.574 . S
C3668 C3684 1.368 . S
H3669 C3677 0.950 . S
H3670 C3675 0.950 . S
H3671 C3676 0.949 . S
H3672 C3678 0.950 . S
H3673 C3679 0.950 . S
H3674 C3680 0.949 . S
C3675 H3670 0.950 . S
C3675 C3677 1.327 . S
C3675 C3681 1.429 . S
C3676 C3668 1.574 . S
C3676 H3671 0.949 . S
C3676 C3682 1.368 . S
C3677 C3661 1.349 . S
C3677 H3669 0.950 . S
C3677 C3675 1.327 . S
C3678 C3666 1.349 . S
C3678 H3672 0.950 . S
C3678 C3679 1.327 . S
C3679 H3673 0.950 . S
C3679 C3678 1.327 . S
C3679 C3683 1.429 . S
C3680 C3663 1.574 . S
C3680 H3674 0.949 . S
C3680 C3684 1.368 . S
C3681 C3662 1.429 . S
C3681 C3675 1.429 . S
C3681 C3682 1.523 . S
C3682 C3663 1.368 . S
C3682 C3676 1.368 . S
C3682 C3681 1.523 . S
C3683 C3667 1.429 . S
C3683 C3679 1.429 . S
C3683 C3684 1.523 . S
C3684 C3668 1.368 . S
C3684 C3680 1.368 . S
C3684 C3683 1.523 . S
H3685 C3660 0.950 . S
H3686 C3662 0.950 . S
H3687 C3663 0.949 . S
H3688 C3665 0.950 . S
H3689 C3667 0.950 . S
C3690 C3691 1.349 . S
C3690 C3692 1.327 . S
C3690 H3715 0.950 . S
C3691 C3690 1.349 . S
C3691 C3707 1.349 . S
C3692 C3690 1.327 . S
C3692 C3711 1.429 . S
C3692 H3716 0.950 . S
C3693 C3710 1.574 . S
C3693 C3712 1.368 . S
C3693 H3717 0.949 . S
H3694 C3698 0.949 . S
C3695 C3696 1.349 . S
C3695 C3697 1.327 . S
C3695 H3718 0.950 . S
C3696 C3695 1.349 . S
C3696 C3708 1.349 . S
C3697 C3695 1.327 . S
C3697 C3713 1.429 . S
C3697 H3719 0.950 . S
C3698 H3694 0.949 . S
C3698 C3706 1.574 . S
C3698 C3714 1.368 . S
H3699 C3707 0.950 . S
H3700 C3705 0.950 . S
H3701 C3706 0.949 . S
H3702 C3708 0.950 . S
H3703 C3709 0.950 . S
H3704 C3710 0.949 . S
C3705 H3700 0.950 . S
C3705 C3707 1.327 . S
C3705 C3711 1.429 . S
C3706 C3698 1.574 . S
C3706 H3701 0.949 . S
C3706 C3712 1.368 . S
C3707 C3691 1.349 . S
C3707 H3699 0.950 . S
C3707 C3705 1.327 . S
C3708 C3696 1.349 . S
C3708 H3702 0.950 . S
C3708 C3709 1.327 . S
C3709 H3703 0.950 . S
C3709 C3708 1.327 . S
C3709 C3713 1.429 . S
C3710 C3693 1.574 . S
C3710 H3704 0.949 . S
C3710 C3714 1.368 . S
C3711 C3692 1.429 . S
C3711 C3705 1.429 . S
C3711 C3712 1.523 . S
C3712 C3693 1.368 . S
C3712 C3706 1.368 . S
C3712 C3711 1.523 . S
C3713 C3697 1.429 . S
C3713 C3709 1.429 . S
C3713 C3714 1.523 . S
C3714 C3698 1.368 . S
C3714 C3710 1.368 . S
C3714 C3713 1.523 . S
H3715 C3690 0.950 . S
H3716 C3692 0.950 . S
H3717 C3693 0.949 . S
H3718 C3695 0.950 . S
H3719 C3697 0.950 . S
C3720 C3721 1.349 . S
C3720 C3722 1.327 . S
C3720 H3745 0.950 . S
C3721 C3720 1.349 . S
C3721 C3737 1.349 . S
C3722 C3720 1.327 . S
C3722 C3741 1.429 . S
C3722 H3746 0.950 . S
C3723 C3740 1.574 . S
C3723 C3742 1.368 . S
C3723 H3747 0.949 . S
H3724 C3728 0.949 . S
C3725 C3726 1.349 . S
C3725 C3727 1.327 . S
C3725 H3748 0.950 . S
C3726 C3725 1.349 . S
C3726 C3738 1.349 . S
C3727 C3725 1.327 . S
C3727 C3743 1.429 . S
C3727 H3749 0.950 . S
C3728 H3724 0.949 . S
C3728 C3736 1.574 . S
C3728 C3744 1.368 . S
H3729 C3737 0.950 . S
H3730 C3735 0.950 . S
H3731 C3736 0.949 . S
H3732 C3738 0.950 . S
H3733 C3739 0.950 . S
H3734 C3740 0.949 . S
C3735 H3730 0.950 . S
C3735 C3737 1.327 . S
C3735 C3741 1.429 . S
C3736 C3728 1.574 . S
C3736 H3731 0.949 . S
C3736 C3742 1.368 . S
C3737 C3721 1.349 . S
C3737 H3729 0.950 . S
C3737 C3735 1.327 . S
C3738 C3726 1.349 . S
C3738 H3732 0.950 . S
C3738 C3739 1.327 . S
C3739 H3733 0.950 . S
C3739 C3738 1.327 . S
C3739 C3743 1.429 . S
C3740 C3723 1.574 . S
C3740 H3734 0.949 . S
C3740 C3744 1.368 . S
C3741 C3722 1.429 . S
C3741 C3735 1.429 . S
C3741 C3742 1.523 . S
C3742 C3723 1.368 . S
C3742 C3736 1.368 . S
C3742 C3741 1.523 . S
C3743 C3727 1.429 . S
C3743 C3739 1.429 . S
C3743 C3744 1.523 . S
C3744 C3728 1.368 . S
C3744 C3740 1.368 . S
C3744 C3743 1.523 . S
H3745 C3720 0.950 . S
H3746 C3722 0.950 . S
H3747 C3723 0.949 . S
H3748 C3725 0.950 . S
H3749 C3727 0.950 . S
C3750 C3751 1.349 . S
C3750 C3752 1.327 . S
C3750 H3775 0.950 . S
C3751 C3750 1.349 . S
C3751 C3767 1.349 . S
C3752 C3750 1.327 . S
C3752 C3771 1.429 . S
C3752 H3776 0.950 . S
C3753 C3770 1.574 . S
C3753 C3772 1.368 . S
C3753 H3777 0.949 . S
H3754 C3758 0.949 . S
C3755 C3756 1.349 . S
C3755 C3757 1.327 . S
C3755 H3778 0.950 . S
C3756 C3755 1.349 . S
C3756 C3768 1.349 . S
C3757 C3755 1.327 . S
C3757 C3773 1.429 . S
C3757 H3779 0.950 . S
C3758 H3754 0.949 . S
C3758 C3766 1.574 . S
C3758 C3774 1.368 . S
H3759 C3767 0.950 . S
H3760 C3765 0.950 . S
H3761 C3766 0.949 . S
H3762 C3768 0.950 . S
H3763 C3769 0.950 . S
H3764 C3770 0.949 . S
C3765 H3760 0.950 . S
C3765 C3767 1.327 . S
C3765 C3771 1.429 . S
C3766 C3758 1.574 . S
C3766 H3761 0.949 . S
C3766 C3772 1.368 . S
C3767 C3751 1.349 . S
C3767 H3759 0.950 . S
C3767 C3765 1.327 . S
C3768 C3756 1.349 . S
C3768 H3762 0.950 . S
C3768 C3769 1.327 . S
C3769 H3763 0.950 . S
C3769 C3768 1.327 . S
C3769 C3773 1.429 . S
C3770 C3753 1.574 . S
C3770 H3764 0.949 . S
C3770 C3774 1.368 . S
C3771 C3752 1.429 . S
C3771 C3765 1.429 . S
C3771 C3772 1.523 . S
C3772 C3753 1.368 . S
C3772 C3766 1.368 . S
C3772 C3771 1.523 . S
C3773 C3757 1.429 . S
C3773 C3769 1.429 . S
C3773 C3774 1.523 . S
C3774 C3758 1.368 . S
C3774 C3770 1.368 . S
C3774 C3773 1.523 . S
H3775 C3750 0.950 . S
H3776 C3752 0.950 . S
H3777 C3753 0.949 . S
H3778 C3755 0.950 . S
H3779 C3757 0.950 . S
C3780 C3781 1.349 . S
C3780 C3782 1.327 . S
C3780 H3805 0.950 . S
C3781 C3780 1.349 . S
C3781 C3797 1.349 . S
C3782 C3780 1.327 . S
C3782 C3801 1.429 . S
C3782 H3806 0.950 . S
C3783 C3800 1.574 . S
C3783 C3802 1.368 . S
C3783 H3807 0.949 . S
H3784 C3788 0.949 . S
C3785 C3786 1.349 . S
C3785 C3787 1.327 . S
C3785 H3808 0.950 . S
C3786 C3785 1.349 . S
C3786 C3798 1.349 . S
C3787 C3785 1.327 . S
C3787 C3803 1.429 . S
C3787 H3809 0.950 . S
C3788 H3784 0.949 . S
C3788 C3796 1.574 . S
C3788 C3804 1.368 . S
H3789 C3797 0.950 . S
H3790 C3795 0.950 . S
H3791 C3796 0.949 . S
H3792 C3798 0.950 . S
H3793 C3799 0.950 . S
H3794 C3800 0.949 . S
C3795 H3790 0.950 . S
C3795 C3797 1.327 . S
C3795 C3801 1.429 . S
C3796 C3788 1.574 . S
C3796 H3791 0.949 . S
C3796 C3802 1.368 . S
C3797 C3781 1.349 . S
C3797 H3789 0.950 . S
C3797 C3795 1.327 . S
C3798 C3786 1.349 . S
C3798 H3792 0.950 . S
C3798 C3799 1.327 . S
C3799 H3793 0.950 . S
C3799 C3798 1.327 . S
C3799 C3803 1.429 . S
C3800 C3783 1.574 . S
C3800 H3794 0.949 . S
C3800 C3804 1.368 . S
C3801 C3782 1.429 . S
C3801 C3795 1.429 . S
C3801 C3802 1.523 . S
C3802 C3783 1.368 . S
C3802 C3796 1.368 . S
C3802 C3801 1.523 . S
C3803 C3787 1.429 . S
C3803 C3799 1.429 . S
C3803 C3804 1.523 . S
C3804 C3788 1.368 . S
C3804 C3800 1.368 . S
C3804 C3803 1.523 . S
H3805 C3780 0.950 . S
H3806 C3782 0.950 . S
H3807 C3783 0.949 . S
H3808 C3785 0.950 . S
H3809 C3787 0.950 . S
C3810 C3811 1.349 . S
C3810 C3812 1.327 . S
C3810 H3835 0.950 . S
C3811 C3810 1.349 . S
C3811 C3827 1.349 . S
C3812 C3810 1.327 . S
C3812 C3831 1.429 . S
C3812 H3836 0.950 . S
C3813 C3830 1.574 . S
C3813 C3832 1.368 . S
C3813 H3837 0.949 . S
H3814 C3818 0.949 . S
C3815 C3816 1.349 . S
C3815 C3817 1.327 . S
C3815 H3838 0.950 . S
C3816 C3815 1.349 . S
C3816 C3828 1.349 . S
C3817 C3815 1.327 . S
C3817 C3833 1.429 . S
C3817 H3839 0.950 . S
C3818 H3814 0.949 . S
C3818 C3826 1.574 . S
C3818 C3834 1.368 . S
H3819 C3827 0.950 . S
H3820 C3825 0.950 . S
H3821 C3826 0.949 . S
H3822 C3828 0.950 . S
H3823 C3829 0.950 . S
H3824 C3830 0.949 . S
C3825 H3820 0.950 . S
C3825 C3827 1.327 . S
C3825 C3831 1.429 . S
C3826 C3818 1.574 . S
C3826 H3821 0.949 . S
C3826 C3832 1.368 . S
C3827 C3811 1.349 . S
C3827 H3819 0.950 . S
C3827 C3825 1.327 . S
C3828 C3816 1.349 . S
C3828 H3822 0.950 . S
C3828 C3829 1.327 . S
C3829 H3823 0.950 . S
C3829 C3828 1.327 . S
C3829 C3833 1.429 . S
C3830 C3813 1.574 . S
C3830 H3824 0.949 . S
C3830 C3834 1.368 . S
C3831 C3812 1.429 . S
C3831 C3825 1.429 . S
C3831 C3832 1.523 . S
C3832 C3813 1.368 . S
C3832 C3826 1.368 . S
C3832 C3831 1.523 . S
C3833 C3817 1.429 . S
C3833 C3829 1.429 . S
C3833 C3834 1.523 . S
C3834 C3818 1.368 . S
C3834 C3830 1.368 . S
C3834 C3833 1.523 . S
H3835 C3810 0.950 . S
H3836 C3812 0.950 . S
H3837 C3813 0.949 . S
H3838 C3815 0.950 . S
H3839 C3817 0.950 . S
C3840 C3841 1.349 . S
C3840 C3842 1.327 . S
C3840 H3865 0.950 . S
C3841 C3840 1.349 . S
C3841 C3857 1.349 . S
C3842 C3840 1.327 . S
C3842 C3861 1.429 . S
C3842 H3866 0.950 . S
C3843 C3860 1.574 . S
C3843 C3862 1.368 . S
C3843 H3867 0.949 . S
H3844 C3848 0.949 . S
C3845 C3846 1.349 . S
C3845 C3847 1.327 . S
C3845 H3868 0.950 . S
C3846 C3845 1.349 . S
C3846 C3858 1.349 . S
C3847 C3845 1.327 . S
C3847 C3863 1.429 . S
C3847 H3869 0.950 . S
C3848 H3844 0.949 . S
C3848 C3856 1.574 . S
C3848 C3864 1.368 . S
H3849 C3857 0.950 . S
H3850 C3855 0.950 . S
H3851 C3856 0.949 . S
H3852 C3858 0.950 . S
H3853 C3859 0.950 . S
H3854 C3860 0.949 . S
C3855 H3850 0.950 . S
C3855 C3857 1.327 . S
C3855 C3861 1.429 . S
C3856 C3848 1.574 . S
C3856 H3851 0.949 . S
C3856 C3862 1.368 . S
C3857 C3841 1.349 . S
C3857 H3849 0.950 . S
C3857 C3855 1.327 . S
C3858 C3846 1.349 . S
C3858 H3852 0.950 . S
C3858 C3859 1.327 . S
C3859 H3853 0.950 . S
C3859 C3858 1.327 . S
C3859 C3863 1.429 . S
C3860 C3843 1.574 . S
C3860 H3854 0.949 . S
C3860 C3864 1.368 . S
C3861 C3842 1.429 . S
C3861 C3855 1.429 . S
C3861 C3862 1.523 . S
C3862 C3843 1.368 . S
C3862 C3856 1.368 . S
C3862 C3861 1.523 . S
C3863 C3847 1.429 . S
C3863 C3859 1.429 . S
C3863 C3864 1.523 . S
C3864 C3848 1.368 . S
C3864 C3860 1.368 . S
C3864 C3863 1.523 . S
H3865 C3840 0.950 . S
H3866 C3842 0.950 . S
H3867 C3843 0.949 . S
H3868 C3845 0.950 . S
H3869 C3847 0.950 . S
C3870 C3871 1.349 . S
C3870 C3872 1.327 . S
C3870 H3895 0.950 . S
C3871 C3870 1.349 . S
C3871 C3887 1.349 . S
C3872 C3870 1.327 . S
C3872 C3891 1.429 . S
C3872 H3896 0.950 . S
C3873 C3890 1.574 . S
C3873 C3892 1.368 . S
C3873 H3897 0.949 . S
H3874 C3878 0.949 . S
C3875 C3876 1.349 . S
C3875 C3877 1.327 . S
C3875 H3898 0.950 . S
C3876 C3875 1.349 . S
C3876 C3888 1.349 . S
C3877 C3875 1.327 . S
C3877 C3893 1.429 . S
C3877 H3899 0.950 . S
C3878 H3874 0.949 . S
C3878 C3886 1.574 . S
C3878 C3894 1.368 . S
H3879 C3887 0.950 . S
H3880 C3885 0.950 . S
H3881 C3886 0.949 . S
H3882 C3888 0.950 . S
H3883 C3889 0.950 . S
H3884 C3890 0.949 . S
C3885 H3880 0.950 . S
C3885 C3887 1.327 . S
C3885 C3891 1.429 . S
C3886 C3878 1.574 . S
C3886 H3881 0.949 . S
C3886 C3892 1.368 . S
C3887 C3871 1.349 . S
C3887 H3879 0.950 . S
C3887 C3885 1.327 . S
C3888 C3876 1.349 . S
C3888 H3882 0.950 . S
C3888 C3889 1.327 . S
C3889 H3883 0.950 . S
C3889 C3888 1.327 . S
C3889 C3893 1.429 . S
C3890 C3873 1.574 . S
C3890 H3884 0.949 . S
C3890 C3894 1.368 . S
C3891 C3872 1.429 . S
C3891 C3885 1.429 . S
C3891 C3892 1.523 . S
C3892 C3873 1.368 . S
C3892 C3886 1.368 . S
C3892 C3891 1.523 . S
C3893 C3877 1.429 . S
C3893 C3889 1.429 . S
C3893 C3894 1.523 . S
C3894 C3878 1.368 . S
C3894 C3890 1.368 . S
C3894 C3893 1.523 . S
H3895 C3870 0.950 . S
H3896 C3872 0.950 . S
H3897 C3873 0.949 . S
H3898 C3875 0.950 . S
H3899 C3877 0.950 . S
C3900 C3901 1.349 . S
C3900 C3902 1.327 . S
C3900 H3925 0.950 . S
C3901 C3900 1.349 . S
C3901 C3917 1.349 . S
C3902 C3900 1.327 . S
C3902 C3921 1.429 . S
C3902 H3926 0.950 . S
C3903 C3920 1.574 . S
C3903 C3922 1.368 . S
C3903 H3927 0.949 . S
H3904 C3908 0.949 . S
C3905 C3906 1.349 . S
C3905 C3907 1.327 . S
C3905 H3928 0.950 . S
C3906 C3905 1.349 . S
C3906 C3918 1.349 . S
C3907 C3905 1.327 . S
C3907 C3923 1.429 . S
C3907 H3929 0.950 . S
C3908 H3904 0.949 . S
C3908 C3916 1.574 . S
C3908 C3924 1.368 . S
H3909 C3917 0.950 . S
H3910 C3915 0.950 . S
H3911 C3916 0.949 . S
H3912 C3918 0.950 . S
H3913 C3919 0.950 . S
H3914 C3920 0.949 . S
C3915 H3910 0.950 . S
C3915 C3917 1.327 . S
C3915 C3921 1.429 . S
C3916 C3908 1.574 . S
C3916 H3911 0.949 . S
C3916 C3922 1.368 . S
C3917 C3901 1.349 . S
C3917 H3909 0.950 . S
C3917 C3915 1.327 . S
C3918 C3906 1.349 . S
C3918 H3912 0.950 . S
C3918 C3919 1.327 . S
C3919 H3913 0.950 . S
C3919 C3918 1.327 . S
C3919 C3923 1.429 . S
C3920 C3903 1.574 . S
C3920 H3914 0.949 . S
C3920 C3924 1.368 . S
C3921 C3902 1.429 . S
C3921 C3915 1.429 . S
C3921 C3922 1.523 . S
C3922 C3903 1.368 . S
C3922 C3916 1.368 . S
C3922 C3921 1.523 . S
C3923 C3907 1.429 . S
C3923 C3919 1.429 . S
C3923 C3924 1.523 . S
C3924 C3908 1.368 . S
C3924 C3920 1.368 . S
C3924 C3923 1.523 . S
H3925 C3900 0.950 . S
H3926 C3902 0.950 . S
H3927 C3903 0.949 . S
H3928 C3905 0.950 . S
H3929 C3907 0.950 . S
C3930 C3931 1.349 . S
C3930 C3932 1.327 . S
C3930 H3955 0.950 . S
C3931 C3930 1.349 . S
C3931 C3947 1.349 . S
C3932 C3930 1.327 . S
C3932 C3951 1.429 . S
C3932 H3956 0.950 . S
C3933 C3950 1.574 . S
C3933 C3952 1.368 . S
C3933 H3957 0.949 . S
H3934 C3938 0.949 . S
C3935 C3936 1.349 . S
C3935 C3937 1.327 . S
C3935 H3958 0.950 . S
C3936 C3935 1.349 . S
C3936 C3948 1.349 . S
C3937 C3935 1.327 . S
C3937 C3953 1.429 . S
C3937 H3959 0.950 . S
C3938 H3934 0.949 . S
C3938 C3946 1.574 . S
C3938 C3954 1.368 . S
H3939 C3947 0.950 . S
H3940 C3945 0.950 . S
H3941 C3946 0.949 . S
H3942 C3948 0.950 . S
H3943 C3949 0.950 . S
H3944 C3950 0.949 . S
C3945 H3940 0.950 . S
C3945 C3947 1.327 . S
C3945 C3951 1.429 . S
C3946 C3938 1.574 . S
C3946 H3941 0.949 . S
C3946 C3952 1.368 . S
C3947 C3931 1.349 . S
C3947 H3939 0.950 . S
C3947 C3945 1.327 . S
C3948 C3936 1.349 . S
C3948 H3942 0.950 . S
C3948 C3949 1.327 . S
C3949 H3943 0.950 . S
C3949 C3948 1.327 . S
C3949 C3953 1.429 . S
C3950 C3933 1.574 . S
C3950 H3944 0.949 . S
C3950 C3954 1.368 . S
C3951 C3932 1.429 . S
C3951 C3945 1.429 . S
C3951 C3952 1.523 . S
C3952 C3933 1.368 . S
C3952 C3946 1.368 . S
C3952 C3951 1.523 . S
C3953 C3937 1.429 . S
C3953 C3949 1.429 . S
C3953 C3954 1.523 . S
C3954 C3938 1.368 . S
C3954 C3950 1.368 . S
C3954 C3953 1.523 . S
H3955 C3930 0.950 . S
H3956 C3932 0.950 . S
H3957 C3933 0.949 . S
H3958 C3935 0.950 . S
H3959 C3937 0.950 . S
C3960 C3961 1.349 . S
C3960 C3962 1.327 . S
C3960 H3985 0.950 . S
C3961 C3960 1.349 . S
C3961 C3977 1.349 . S
C3962 C3960 1.327 . S
C3962 C3981 1.429 . S
C3962 H3986 0.950 . S
C3963 C3980 1.574 . S
C3963 C3982 1.368 . S
C3963 H3987 0.949 . S
H3964 C3968 0.949 . S
C3965 C3966 1.349 . S
C3965 C3967 1.327 . S
C3965 H3988 0.950 . S
C3966 C3965 1.349 . S
C3966 C3978 1.349 . S
C3967 C3965 1.327 . S
C3967 C3983 1.429 . S
C3967 H3989 0.950 . S
C3968 H3964 0.949 . S
C3968 C3976 1.574 . S
C3968 C3984 1.368 . S
H3969 C3977 0.950 . S
H3970 C3975 0.950 . S
H3971 C3976 0.949 . S
H3972 C3978 0.950 . S
H3973 C3979 0.950 . S
H3974 C3980 0.949 . S
C3975 H3970 0.950 . S
C3975 C3977 1.327 . S
C3975 C3981 1.429 . S
C3976 C3968 1.574 . S
C3976 H3971 0.949 . S
C3976 C3982 1.368 . S
C3977 C3961 1.349 . S
C3977 H3969 0.950 . S
C3977 C3975 1.327 . S
C3978 C3966 1.349 . S
C3978 H3972 0.950 . S
C3978 C3979 1.327 . S
C3979 H3973 0.950 . S
C3979 C3978 1.327 . S
C3979 C3983 1.429 . S
C3980 C3963 1.574 . S
C3980 H3974 0.949 . S
C3980 C3984 1.368 . S
C3981 C3962 1.429 . S
C3981 C3975 1.429 . S
C3981 C3982 1.523 . S
C3982 C3963 1.368 . S
C3982 C3976 1.368 . S
C3982 C3981 1.523 . S
C3983 C3967 1.429 . S
C3983 C3979 1.429 . S
C3983 C3984 1.523 . S
C3984 C3968 1.368 . S
C3984 C3980 1.368 . S
C3984 C3983 1.523 . S
H3985 C3960 0.950 . S
H3986 C3962 0.950 . S
H3987 C3963 0.949 . S
H3988 C3965 0.950 . S
H3989 C3967 0.950 . S
C3990 C3991 1.349 . S
C3990 C3992 1.327 . S
C3990 H4015 0.950 . S
C3991 C3990 1.349 . S
C3991 C4007 1.349 . S
C3992 C3990 1.327 . S
C3992 C4011 1.429 . S
C3992 H4016 0.950 . S
C3993 C4010 1.574 . S
C3993 C4012 1.368 . S
C3993 H4017 0.949 . S
H3994 C3998 0.949 . S
C3995 C3996 1.349 . S
C3995 C3997 1.327 . S
C3995 H4018 0.950 . S
C3996 C3995 1.349 . S
C3996 C4008 1.349 . S
C3997 C3995 1.327 . S
C3997 C4013 1.429 . S
C3997 H4019 0.950 . S
C3998 H3994 0.949 . S
C3998 C4006 1.574 . S
C3998 C4014 1.368 . S
H3999 C4007 0.950 . S
H4000 C4005 0.950 . S
H4001 C4006 0.949 . S
H4002 C4008 0.950 . S
H4003 C4009 0.950 . S
H4004 C4010 0.949 . S
C4005 H4000 0.950 . S
C4005 C4007 1.327 . S
C4005 C4011 1.429 . S
C4006 C3998 1.574 . S
C4006 H4001 0.949 . S
C4006 C4012 1.368 . S
C4007 C3991 1.349 . S
C4007 H3999 0.950 . S
C4007 C4005 1.327 . S
C4008 C3996 1.349 . S
C4008 H4002 0.950 . S
C4008 C4009 1.327 . S
C4009 H4003 0.950 . S
C4009 C4008 1.327 . S
C4009 C4013 1.429 . S
C4010 C3993 1.574 . S
C4010 H4004 0.949 . S
C4010 C4014 1.368 . S
C4011 C3992 1.429 . S
C4011 C4005 1.429 . S
C4011 C4012 1.523 . S
C4012 C3993 1.368 . S
C4012 C4006 1.368 . S
C4012 C4011 1.523 . S
C4013 C3997 1.429 . S
C4013 C4009 1.429 . S
C4013 C4014 1.523 . S
C4014 C3998 1.368 . S
C4014 C4010 1.368 . S
C4014 C4013 1.523 . S
H4015 C3990 0.950 . S
H4016 C3992 0.950 . S
H4017 C3993 0.949 . S
H4018 C3995 0.950 . S
H4019 C3997 0.950 . S
C4020 C4021 1.349 . S
C4020 C4022 1.327 . S
C4020 H4045 0.950 . S
C4021 C4020 1.349 . S
C4021 C4037 1.349 . S
C4022 C4020 1.327 . S
C4022 C4041 1.429 . S
C4022 H4046 0.950 . S
C4023 C4040 1.574 . S
C4023 C4042 1.368 . S
C4023 H4047 0.949 . S
H4024 C4028 0.949 . S
C4025 C4026 1.349 . S
C4025 C4027 1.327 . S
C4025 H4048 0.950 . S
C4026 C4025 1.349 . S
C4026 C4038 1.349 . S
C4027 C4025 1.327 . S
C4027 C4043 1.429 . S
C4027 H4049 0.950 . S
C4028 H4024 0.949 . S
C4028 C4036 1.574 . S
C4028 C4044 1.368 . S
H4029 C4037 0.950 . S
H4030 C4035 0.950 . S
H4031 C4036 0.949 . S
H4032 C4038 0.950 . S
H4033 C4039 0.950 . S
H4034 C4040 0.949 . S
C4035 H4030 0.950 . S
C4035 C4037 1.327 . S
C4035 C4041 1.429 . S
C4036 C4028 1.574 . S
C4036 H4031 0.949 . S
C4036 C4042 1.368 . S
C4037 C4021 1.349 . S
C4037 H4029 0.950 . S
C4037 C4035 1.327 . S
C4038 C4026 1.349 . S
C4038 H4032 0.950 . S
C4038 C4039 1.327 . S
C4039 H4033 0.950 . S
C4039 C4038 1.327 . S
C4039 C4043 1.429 . S
C4040 C4023 1.574 . S
C4040 H4034 0.949 . S
C4040 C4044 1.368 . S
C4041 C4022 1.429 . S
C4041 C4035 1.429 . S
C4041 C4042 1.523 . S
C4042 C4023 1.368 . S
C4042 C4036 1.368 . S
C4042 C4041 1.523 . S
C4043 C4027 1.429 . S
C4043 C4039 1.429 . S
C4043 C4044 1.523 . S
C4044 C4028 1.368 . S
C4044 C4040 1.368 . S
C4044 C4043 1.523 . S
H4045 C4020 0.950 . S
H4046 C4022 0.950 . S
H4047 C4023 0.949 . S
H4048 C4025 0.950 . S
H4049 C4027 0.950 . S
C4050 C4051 1.349 . S
C4050 C4052 1.327 1_455 S
C4050 H4075 0.950 . S
C4051 C4050 1.349 . S
C4051 C4067 1.349 . S
C4052 C4050 1.327 1_655 S
C4052 C4071 1.429 . S
C4052 H4076 0.950 . S
C4053 C4070 1.574 . S
C4053 C4072 1.368 . S
C4053 H4077 0.949 . S
H4054 C4058 0.949 . S
C4055 C4056 1.349 . S
C4055 C4057 1.327 . S
C4055 H4078 0.950 . S
C4056 C4055 1.349 . S
C4056 C4068 1.349 . S
C4057 C4055 1.327 . S
C4057 C4073 1.429 . S
C4057 H4079 0.950 . S
C4058 H4054 0.949 . S
C4058 C4066 1.574 . S
C4058 C4074 1.368 . S
H4059 C4067 0.950 . S
H4060 C4065 0.950 . S
H4061 C4066 0.949 . S
H4062 C4068 0.950 . S
H4063 C4069 0.950 . S
H4064 C4070 0.949 . S
C4065 H4060 0.950 . S
C4065 C4067 1.327 1_655 S
C4065 C4071 1.429 . S
C4066 C4058 1.574 . S
C4066 H4061 0.949 . S
C4066 C4072 1.368 . S
C4067 C4051 1.349 . S
C4067 H4059 0.950 . S
C4067 C4065 1.327 1_455 S
C4068 C4056 1.349 . S
C4068 H4062 0.950 . S
C4068 C4069 1.327 . S
C4069 H4063 0.950 . S
C4069 C4068 1.327 . S
C4069 C4073 1.429 . S
C4070 C4053 1.574 . S
C4070 H4064 0.949 . S
C4070 C4074 1.368 . S
C4071 C4052 1.429 . S
C4071 C4065 1.429 . S
C4071 C4072 1.523 . S
C4072 C4053 1.368 . S
C4072 C4066 1.368 . S
C4072 C4071 1.523 . S
C4073 C4057 1.429 . S
C4073 C4069 1.429 . S
C4073 C4074 1.523 . S
C4074 C4058 1.368 . S
C4074 C4070 1.368 . S
C4074 C4073 1.523 . S
H4075 C4050 0.950 . S
H4076 C4052 0.950 . S
H4077 C4053 0.949 . S
H4078 C4055 0.950 . S
H4079 C4057 0.950 . S
C4080 C4081 1.349 . S
C4080 C4082 1.327 1_565 S
C4080 H4105 0.950 . S
C4081 C4080 1.349 . S
C4081 C4097 1.349 . S
C4082 C4080 1.327 1_545 S
C4082 C4101 1.429 . S
C4082 H4106 0.950 . S
C4083 C4100 1.574 . S
C4083 C4102 1.368 . S
C4083 H4107 0.949 . S
H4084 C4088 0.949 . S
C4085 C4086 1.349 . S
C4085 C4087 1.327 . S
C4085 H4108 0.950 . S
C4086 C4085 1.349 . S
C4086 C4098 1.349 . S
C4087 C4085 1.327 . S
C4087 C4103 1.429 . S
C4087 H4109 0.950 . S
C4088 H4084 0.949 . S
C4088 C4096 1.574 . S
C4088 C4104 1.368 . S
H4089 C4097 0.950 . S
H4090 C4095 0.950 . S
H4091 C4096 0.949 . S
H4092 C4098 0.950 . S
H4093 C4099 0.950 . S
H4094 C4100 0.949 . S
C4095 H4090 0.950 . S
C4095 C4097 1.327 . S
C4095 C4101 1.429 1_565 S
C4096 C4088 1.574 . S
C4096 H4091 0.949 . S
C4096 C4102 1.368 . S
C4097 C4081 1.349 . S
C4097 H4089 0.950 . S
C4097 C4095 1.327 . S
C4098 C4086 1.349 . S
C4098 H4092 0.950 . S
C4098 C4099 1.327 . S
C4099 H4093 0.950 . S
C4099 C4098 1.327 . S
C4099 C4103 1.429 . S
C4100 C4083 1.574 . S
C4100 H4094 0.949 . S
C4100 C4104 1.368 . S
C4101 C4082 1.429 . S
C4101 C4095 1.429 1_545 S
C4101 C4102 1.523 . S
C4102 C4083 1.368 . S
C4102 C4096 1.368 . S
C4102 C4101 1.523 . S
C4103 C4087 1.429 . S
C4103 C4099 1.429 . S
C4103 C4104 1.523 . S
C4104 C4088 1.368 . S
C4104 C4100 1.368 . S
C4104 C4103 1.523 . S
H4105 C4080 0.950 . S
H4106 C4082 0.950 . S
H4107 C4083 0.949 . S
H4108 C4085 0.950 . S
H4109 C4087 0.950 . S
C4110 C4111 1.349 . S
C4110 C4112 1.327 . S
C4110 H4135 0.950 . S
C4111 C4110 1.349 . S
C4111 C4127 1.349 . S
C4112 C4110 1.327 . S
C4112 C4131 1.429 . S
C4112 H4136 0.950 . S
C4113 C4130 1.565 1_455 S
C4113 C4132 1.368 . S
C4113 H4137 0.949 . S
H4114 C4118 0.949 . S
C4115 C4116 1.349 . S
C4115 C4117 1.327 . S
C4115 H4138 0.950 . S
C4116 C4115 1.349 . S
C4116 C4128 1.349 . S
C4117 C4115 1.327 . S
C4117 C4133 1.429 . S
C4117 H4139 0.950 . S
C4118 H4114 0.949 . S
C4118 C4126 1.574 1_655 S
C4118 C4134 1.368 . S
H4119 C4127 0.950 . S
H4120 C4125 0.950 . S
H4121 C4126 0.949 . S
H4122 C4128 0.950 . S
H4123 C4129 0.950 . S
H4124 C4130 0.942 . S
C4125 H4120 0.950 . S
C4125 C4127 1.327 . S
C4125 C4131 1.429 . S
C4126 C4118 1.574 1_455 S
C4126 H4121 0.949 . S
C4126 C4132 1.368 . S
C4127 C4111 1.349 . S
C4127 H4119 0.950 . S
C4127 C4125 1.327 . S
C4128 C4116 1.349 . S
C4128 H4122 0.950 . S
C4128 C4129 1.327 . S
C4129 H4123 0.950 . S
C4129 C4128 1.327 . S
C4129 C4133 1.429 . S
C4130 C4113 1.565 1_655 S
C4130 H4124 0.942 . S
C4130 C4134 1.385 . S
C4131 C4112 1.429 . S
C4131 C4125 1.429 . S
C4131 C4132 1.523 . S
C4132 C4113 1.368 . S
C4132 C4126 1.368 . S
C4132 C4131 1.523 . S
C4133 C4117 1.429 . S
C4133 C4129 1.429 . S
C4133 C4134 1.523 . S
C4134 C4118 1.368 . S
C4134 C4130 1.385 . S
C4134 C4133 1.523 . S
H4135 C4110 0.950 . S
H4136 C4112 0.950 . S
H4137 C4113 0.949 . S
H4138 C4115 0.950 . S
H4139 C4117 0.950 . S
C4140 C4141 1.349 . S
C4140 C4142 1.327 . S
C4140 H4165 0.950 . S
C4141 C4140 1.349 . S
C4141 C4157 1.349 . S
C4142 C4140 1.327 . S
C4142 C4161 1.429 . S
C4142 H4166 0.950 . S
C4143 C4160 1.574 . S
C4143 C4162 1.368 . S
C4143 H4167 0.949 . S
H4144 C4148 0.949 . S
C4145 C4146 1.349 . S
C4145 C4147 1.327 . S
C4145 H4168 0.950 . S
C4146 C4145 1.349 . S
C4146 C4158 1.349 . S
C4147 C4145 1.327 . S
C4147 C4163 1.429 . S
C4147 H4169 0.950 . S
C4148 H4144 0.949 . S
C4148 C4156 1.574 . S
C4148 C4164 1.368 . S
H4149 C4157 0.950 . S
H4150 C4155 0.950 . S
H4151 C4156 0.949 . S
H4152 C4158 0.950 . S
H4153 C4159 0.950 . S
H4154 C4160 0.949 . S
C4155 H4150 0.950 . S
C4155 C4157 1.327 . S
C4155 C4161 1.429 . S
C4156 C4148 1.574 . S
C4156 H4151 0.949 . S
C4156 C4162 1.368 . S
C4157 C4141 1.349 . S
C4157 H4149 0.950 . S
C4157 C4155 1.327 . S
C4158 C4146 1.349 . S
C4158 H4152 0.950 . S
C4158 C4159 1.327 . S
C4159 H4153 0.950 . S
C4159 C4158 1.327 . S
C4159 C4163 1.429 . S
C4160 C4143 1.574 . S
C4160 H4154 0.949 . S
C4160 C4164 1.368 . S
C4161 C4142 1.429 . S
C4161 C4155 1.429 . S
C4161 C4162 1.523 . S
C4162 C4143 1.368 . S
C4162 C4156 1.368 . S
C4162 C4161 1.523 . S
C4163 C4147 1.429 . S
C4163 C4159 1.429 . S
C4163 C4164 1.523 . S
C4164 C4148 1.368 . S
C4164 C4160 1.368 . S
C4164 C4163 1.523 . S
H4165 C4140 0.950 . S
H4166 C4142 0.950 . S
H4167 C4143 0.949 . S
H4168 C4145 0.950 . S
H4169 C4147 0.950 . S
C4170 C4171 1.349 . S
C4170 C4172 1.327 1_455 S
C4170 H4195 0.950 . S
C4171 C4170 1.349 . S
C4171 C4187 1.349 . S
C4172 C4170 1.327 1_655 S
C4172 C4191 1.429 . S
C4172 H4196 0.950 . S
C4173 C4190 1.574 . S
C4173 C4192 1.368 . S
C4173 H4197 0.949 . S
H4174 C4178 0.949 . S
C4175 C4176 1.349 . S
C4175 C4177 1.327 . S
C4175 H4198 0.950 . S
C4176 C4175 1.349 . S
C4176 C4188 1.349 . S
C4177 C4175 1.327 . S
C4177 C4193 1.429 1_565 S
C4177 H4199 0.950 . S
C4178 H4174 0.949 . S
C4178 C4186 1.574 . S
C4178 C4194 1.368 . S
H4179 C4187 0.950 . S
H4180 C4185 0.950 . S
H4181 C4186 0.949 . S
H4182 C4188 0.950 . S
H4183 C4189 0.950 . S
H4184 C4190 0.949 . S
C4185 H4180 0.950 . S
C4185 C4187 1.327 1_655 S
C4185 C4191 1.429 . S
C4186 C4178 1.574 . S
C4186 H4181 0.949 . S
C4186 C4192 1.368 . S
C4187 C4171 1.349 . S
C4187 H4179 0.950 . S
C4187 C4185 1.327 1_455 S
C4188 C4176 1.349 . S
C4188 H4182 0.950 . S
C4188 C4189 1.327 1_565 S
C4189 H4183 0.950 . S
C4189 C4188 1.327 1_545 S
C4189 C4193 1.429 . S
C4190 C4173 1.574 . S
C4190 H4184 0.949 . S
C4190 C4194 1.368 . S
C4191 C4172 1.429 . S
C4191 C4185 1.429 . S
C4191 C4192 1.523 . S
C4192 C4173 1.368 . S
C4192 C4186 1.368 . S
C4192 C4191 1.523 . S
C4193 C4177 1.429 1_545 S
C4193 C4189 1.429 . S
C4193 C4194 1.523 . S
C4194 C4178 1.368 . S
C4194 C4190 1.368 . S
C4194 C4193 1.523 . S
H4195 C4170 0.950 . S
H4196 C4172 0.950 . S
H4197 C4173 0.949 . S
H4198 C4175 0.950 . S
H4199 C4177 0.950 . S
C4200 C4201 1.349 . S
C4200 C4202 1.327 . S
C4200 H4225 0.950 . S
C4201 C4200 1.349 . S
C4201 C4217 1.349 . S
C4202 C4200 1.327 . S
C4202 C4221 1.429 . S
C4202 H4226 0.950 . S
C4203 C4220 1.574 1_455 S
C4203 C4222 1.368 . S
C4203 H4227 0.949 . S
H4204 C4208 0.949 . S
C4205 C4206 1.349 . S
C4205 C4207 1.327 . S
C4205 H4228 0.950 . S
C4206 C4205 1.349 . S
C4206 C4218 1.349 . S
C4207 C4205 1.327 . S
C4207 C4223 1.429 . S
C4207 H4229 0.950 . S
C4208 H4204 0.949 . S
C4208 C4216 1.574 1_655 S
C4208 C4224 1.368 . S
H4209 C4217 0.950 . S
H4210 C4215 0.950 . S
H4211 C4216 0.949 . S
H4212 C4218 0.950 . S
H4213 C4219 0.950 . S
H4214 C4220 0.949 . S
C4215 H4210 0.950 . S
C4215 C4217 1.327 . S
C4215 C4221 1.429 . S
C4216 C4208 1.574 1_455 S
C4216 H4211 0.949 . S
C4216 C4222 1.368 . S
C4217 C4201 1.349 . S
C4217 H4209 0.950 . S
C4217 C4215 1.327 . S
C4218 C4206 1.349 . S
C4218 H4212 0.950 . S
C4218 C4219 1.327 . S
C4219 H4213 0.950 . S
C4219 C4218 1.327 . S
C4219 C4223 1.429 . S
C4220 C4203 1.574 1_655 S
C4220 H4214 0.949 . S
C4220 C4224 1.368 . S
C4221 C4202 1.429 . S
C4221 C4215 1.429 . S
C4221 C4222 1.523 . S
C4222 C4203 1.368 . S
C4222 C4216 1.368 . S
C4222 C4221 1.523 . S
C4223 C4207 1.429 . S
C4223 C4219 1.429 . S
C4223 C4224 1.523 . S
C4224 C4208 1.368 . S
C4224 C4220 1.368 . S
C4224 C4223 1.523 . S
H4225 C4200 0.950 . S
H4226 C4202 0.950 . S
H4227 C4203 0.949 . S
H4228 C4205 0.950 . S
H4229 C4207 0.950 . S
C4230 C4231 1.349 . S
C4230 C4232 1.327 . S
C4230 H4255 0.950 . S
C4231 C4230 1.349 . S
C4231 C4247 1.349 . S
C4232 C4230 1.327 . S
C4232 C4251 1.429 . S
C4232 H4256 0.950 . S
C4233 C4250 1.574 . S
C4233 C4252 1.368 . S
C4233 H4257 0.949 . S
H4234 C4238 0.949 . S
C4235 C4236 1.349 . S
C4235 C4237 1.327 . S
C4235 H4258 0.950 . S
C4236 C4235 1.349 . S
C4236 C4248 1.349 . S
C4237 C4235 1.327 . S
C4237 C4253 1.429 . S
C4237 H4259 0.950 . S
C4238 H4234 0.949 . S
C4238 C4246 1.574 . S
C4238 C4254 1.368 . S
H4239 C4247 0.950 . S
H4240 C4245 0.950 . S
H4241 C4246 0.949 . S
H4242 C4248 0.950 . S
H4243 C4249 0.950 . S
H4244 C4250 0.949 . S
C4245 H4240 0.950 . S
C4245 C4247 1.327 . S
C4245 C4251 1.429 . S
C4246 C4238 1.574 . S
C4246 H4241 0.949 . S
C4246 C4252 1.368 . S
C4247 C4231 1.349 . S
C4247 H4239 0.950 . S
C4247 C4245 1.327 . S
C4248 C4236 1.349 . S
C4248 H4242 0.950 . S
C4248 C4249 1.327 . S
C4249 H4243 0.950 . S
C4249 C4248 1.327 . S
C4249 C4253 1.429 . S
C4250 C4233 1.574 . S
C4250 H4244 0.949 . S
C4250 C4254 1.368 . S
C4251 C4232 1.429 . S
C4251 C4245 1.429 . S
C4251 C4252 1.523 . S
C4252 C4233 1.368 . S
C4252 C4246 1.368 . S
C4252 C4251 1.523 . S
C4253 C4237 1.429 . S
C4253 C4249 1.429 . S
C4253 C4254 1.523 . S
C4254 C4238 1.368 . S
C4254 C4250 1.368 . S
C4254 C4253 1.523 . S
H4255 C4230 0.950 . S
H4256 C4232 0.950 . S
H4257 C4233 0.949 . S
H4258 C4235 0.950 . S
H4259 C4237 0.950 . S
C4260 C4261 1.349 . S
C4260 C4262 1.327 . S
C4260 H4285 0.950 . S
C4261 C4260 1.349 . S
C4261 C4277 1.349 . S
C4262 C4260 1.327 . S
C4262 C4281 1.429 . S
C4262 H4286 0.950 . S
C4263 C4280 1.574 . S
C4263 C4282 1.368 . S
C4263 H4287 0.949 . S
H4264 C4268 0.949 . S
C4265 C4266 1.349 . S
C4265 C4267 1.327 . S
C4265 H4288 0.950 . S
C4266 C4265 1.349 . S
C4266 C4278 1.349 . S
C4267 C4265 1.327 . S
C4267 C4283 1.429 . S
C4267 H4289 0.950 . S
C4268 H4264 0.949 . S
C4268 C4276 1.574 . S
C4268 C4284 1.368 . S
H4269 C4277 0.950 . S
H4270 C4275 0.950 . S
H4271 C4276 0.949 . S
H4272 C4278 0.950 . S
H4273 C4279 0.950 . S
H4274 C4280 0.949 . S
C4275 H4270 0.950 . S
C4275 C4277 1.327 . S
C4275 C4281 1.429 . S
C4276 C4268 1.574 . S
C4276 H4271 0.949 . S
C4276 C4282 1.368 . S
C4277 C4261 1.349 . S
C4277 H4269 0.950 . S
C4277 C4275 1.327 . S
C4278 C4266 1.349 . S
C4278 H4272 0.950 . S
C4278 C4279 1.327 . S
C4279 H4273 0.950 . S
C4279 C4278 1.327 . S
C4279 C4283 1.429 . S
C4280 C4263 1.574 . S
C4280 H4274 0.949 . S
C4280 C4284 1.368 . S
C4281 C4262 1.429 . S
C4281 C4275 1.429 . S
C4281 C4282 1.523 . S
C4282 C4263 1.368 . S
C4282 C4276 1.368 . S
C4282 C4281 1.523 . S
C4283 C4267 1.429 . S
C4283 C4279 1.429 . S
C4283 C4284 1.523 . S
C4284 C4268 1.368 . S
C4284 C4280 1.368 . S
C4284 C4283 1.523 . S
H4285 C4260 0.950 . S
H4286 C4262 0.950 . S
H4287 C4263 0.949 . S
H4288 C4265 0.950 . S
H4289 C4267 0.950 . S
C4290 C4291 1.349 . S
C4290 C4292 1.327 . S
C4290 H4315 0.950 . S
C4291 C4290 1.349 . S
C4291 C4307 1.349 . S
C4292 C4290 1.327 . S
C4292 C4311 1.429 . S
C4292 H4316 0.950 . S
C4293 C4310 1.574 . S
C4293 C4312 1.368 . S
C4293 H4317 0.949 . S
H4294 C4298 0.949 . S
C4295 C4296 1.349 . S
C4295 C4297 1.327 . S
C4295 H4318 0.950 . S
C4296 C4295 1.349 . S
C4296 C4308 1.349 . S
C4297 C4295 1.327 . S
C4297 C4313 1.429 . S
C4297 H4319 0.950 . S
C4298 H4294 0.949 . S
C4298 C4306 1.574 . S
C4298 C4314 1.368 . S
H4299 C4307 0.950 . S
H4300 C4305 0.950 . S
H4301 C4306 0.949 . S
H4302 C4308 0.950 . S
H4303 C4309 0.950 . S
H4304 C4310 0.949 . S
C4305 H4300 0.950 . S
C4305 C4307 1.327 . S
C4305 C4311 1.429 . S
C4306 C4298 1.574 . S
C4306 H4301 0.949 . S
C4306 C4312 1.368 . S
C4307 C4291 1.349 . S
C4307 H4299 0.950 . S
C4307 C4305 1.327 . S
C4308 C4296 1.349 . S
C4308 H4302 0.950 . S
C4308 C4309 1.327 . S
C4309 H4303 0.950 . S
C4309 C4308 1.327 . S
C4309 C4313 1.429 . S
C4310 C4293 1.574 . S
C4310 H4304 0.949 . S
C4310 C4314 1.368 . S
C4311 C4292 1.429 . S
C4311 C4305 1.429 . S
C4311 C4312 1.523 . S
C4312 C4293 1.368 . S
C4312 C4306 1.368 . S
C4312 C4311 1.523 . S
C4313 C4297 1.429 . S
C4313 C4309 1.429 . S
C4313 C4314 1.523 . S
C4314 C4298 1.368 . S
C4314 C4310 1.368 . S
C4314 C4313 1.523 . S
H4315 C4290 0.950 . S
H4316 C4292 0.950 . S
H4317 C4293 0.949 . S
H4318 C4295 0.950 . S
H4319 C4297 0.950 . S
C4320 C4321 1.349 . S
C4320 C4322 1.327 . S
C4320 H4345 0.950 . S
C4321 C4320 1.349 . S
C4321 C4337 1.349 . S
C4322 C4320 1.327 . S
C4322 C4341 1.429 . S
C4322 H4346 0.950 . S
C4323 C4340 1.574 . S
C4323 C4342 1.368 . S
C4323 H4347 0.949 . S
H4324 C4328 0.949 . S
C4325 C4326 1.349 . S
C4325 C4327 1.327 1_545 S
C4325 H4348 0.950 . S
C4326 C4325 1.349 . S
C4326 C4338 1.349 . S
C4327 C4325 1.327 1_565 S
C4327 C4343 1.429 . S
C4327 H4349 0.950 . S
C4328 H4324 0.949 . S
C4328 C4336 1.574 . S
C4328 C4344 1.368 . S
H4329 C4337 0.950 . S
H4330 C4335 0.950 . S
H4331 C4336 0.949 . S
H4332 C4338 0.950 . S
H4333 C4339 0.950 . S
H4334 C4340 0.949 . S
C4335 H4330 0.950 . S
C4335 C4337 1.327 . S
C4335 C4341 1.429 . S
C4336 C4328 1.574 . S
C4336 H4331 0.949 . S
C4336 C4342 1.368 . S
C4337 C4321 1.349 . S
C4337 H4329 0.950 . S
C4337 C4335 1.327 . S
C4338 C4326 1.349 . S
C4338 H4332 0.950 . S
C4338 C4339 1.327 1_545 S
C4339 H4333 0.950 . S
C4339 C4338 1.327 1_565 S
C4339 C4343 1.429 . S
C4340 C4323 1.574 . S
C4340 H4334 0.949 . S
C4340 C4344 1.368 . S
C4341 C4322 1.429 . S
C4341 C4335 1.429 . S
C4341 C4342 1.523 . S
C4342 C4323 1.368 . S
C4342 C4336 1.368 . S
C4342 C4341 1.523 . S
C4343 C4327 1.429 . S
C4343 C4339 1.429 . S
C4343 C4344 1.523 . S
C4344 C4328 1.368 . S
C4344 C4340 1.368 . S
C4344 C4343 1.523 . S
H4345 C4320 0.950 . S
H4346 C4322 0.950 . S
H4347 C4323 0.949 . S
H4348 C4325 0.950 . S
H4349 C4327 0.950 . S
C4350 C4351 1.349 . S
C4350 C4352 1.327 . S
C4350 H4375 0.950 . S
C4351 C4350 1.349 . S
C4351 C4367 1.349 . S
C4352 C4350 1.327 . S
C4352 C4371 1.429 . S
C4352 H4376 0.950 . S
C4353 C4370 1.574 1_565 S
C4353 C4372 1.368 . S
C4353 H4377 0.949 . S
H4354 C4358 0.949 . S
C4355 C4356 1.349 . S
C4355 C4357 1.327 . S
C4355 H4378 0.950 . S
C4356 C4355 1.349 . S
C4356 C4368 1.349 . S
C4357 C4355 1.327 . S
C4357 C4373 1.429 . S
C4357 H4379 0.950 . S
C4358 H4354 0.949 . S
C4358 C4366 1.574 1_545 S
C4358 C4374 1.368 . S
H4359 C4367 0.950 . S
H4360 C4365 0.950 . S
H4361 C4366 0.949 . S
H4362 C4368 0.950 . S
H4363 C4369 0.950 . S
H4364 C4370 0.949 . S
C4365 H4360 0.950 . S
C4365 C4367 1.327 . S
C4365 C4371 1.429 . S
C4366 C4358 1.574 1_565 S
C4366 H4361 0.949 . S
C4366 C4372 1.368 . S
C4367 C4351 1.349 . S
C4367 H4359 0.950 . S
C4367 C4365 1.327 . S
C4368 C4356 1.349 . S
C4368 H4362 0.950 . S
C4368 C4369 1.327 . S
C4369 H4363 0.950 . S
C4369 C4368 1.327 . S
C4369 C4373 1.429 . S
C4370 C4353 1.574 1_545 S
C4370 H4364 0.949 . S
C4370 C4374 1.368 . S
C4371 C4352 1.429 . S
C4371 C4365 1.429 . S
C4371 C4372 1.523 . S
C4372 C4353 1.368 . S
C4372 C4366 1.368 . S
C4372 C4371 1.523 . S
C4373 C4357 1.429 . S
C4373 C4369 1.429 . S
C4373 C4374 1.523 . S
C4374 C4358 1.368 . S
C4374 C4370 1.368 . S
C4374 C4373 1.523 . S
H4375 C4350 0.950 . S
H4376 C4352 0.950 . S
H4377 C4353 0.949 . S
H4378 C4355 0.950 . S
H4379 C4357 0.950 . S
C4380 C4381 1.349 . S
C4380 C4382 1.327 . S
C4380 H4405 0.950 . S
C4381 C4380 1.349 . S
C4381 C4397 1.349 . S
C4382 C4380 1.327 . S
C4382 C4401 1.429 . S
C4382 H4406 0.950 . S
C4383 C4400 1.574 . S
C4383 C4402 1.368 . S
C4383 H4407 0.949 . S
H4384 C4388 0.949 . S
C4385 C4386 1.349 . S
C4385 C4387 1.327 . S
C4385 H4408 0.950 . S
C4386 C4385 1.349 . S
C4386 C4398 1.349 . S
C4387 C4385 1.327 . S
C4387 C4403 1.429 1_655 S
C4387 H4409 0.950 . S
C4388 H4384 0.949 . S
C4388 C4396 1.574 . S
C4388 C4404 1.368 . S
H4389 C4397 0.950 . S
H4390 C4395 0.950 . S
H4391 C4396 0.949 . S
H4392 C4398 0.950 . S
H4393 C4399 0.950 . S
H4394 C4400 0.949 . S
C4395 H4390 0.950 . S
C4395 C4397 1.327 . S
C4395 C4401 1.429 . S
C4396 C4388 1.574 . S
C4396 H4391 0.949 . S
C4396 C4402 1.368 . S
C4397 C4381 1.349 . S
C4397 H4389 0.950 . S
C4397 C4395 1.327 . S
C4398 C4386 1.349 . S
C4398 H4392 0.950 . S
C4398 C4399 1.327 1_655 S
C4399 H4393 0.950 . S
C4399 C4398 1.327 1_455 S
C4399 C4403 1.429 . S
C4400 C4383 1.574 . S
C4400 H4394 0.949 . S
C4400 C4404 1.368 . S
C4401 C4382 1.429 . S
C4401 C4395 1.429 . S
C4401 C4402 1.523 . S
C4402 C4383 1.368 . S
C4402 C4396 1.368 . S
C4402 C4401 1.523 . S
C4403 C4387 1.429 1_455 S
C4403 C4399 1.429 . S
C4403 C4404 1.523 . S
C4404 C4388 1.368 . S
C4404 C4400 1.368 . S
C4404 C4403 1.523 . S
H4405 C4380 0.950 . S
H4406 C4382 0.950 . S
H4407 C4383 0.949 . S
H4408 C4385 0.950 . S
H4409 C4387 0.950 . S
C4410 C4411 1.349 . S
C4410 C4412 1.327 . S
C4410 H4435 0.950 . S
C4411 C4410 1.349 . S
C4411 C4427 1.349 . S
C4412 C4410 1.327 . S
C4412 C4431 1.429 . S
C4412 H4436 0.950 . S
C4413 C4430 1.574 . S
C4413 C4432 1.368 . S
C4413 H4437 0.949 . S
H4414 C4418 0.949 . S
C4415 C4416 1.349 . S
C4415 C4417 1.327 . S
C4415 H4438 0.950 . S
C4416 C4415 1.349 . S
C4416 C4428 1.349 . S
C4417 C4415 1.327 . S
C4417 C4433 1.429 . S
C4417 H4439 0.950 . S
C4418 H4414 0.949 . S
C4418 C4426 1.574 . S
C4418 C4434 1.368 . S
H4419 C4427 0.950 . S
H4420 C4425 0.950 . S
H4421 C4426 0.949 . S
H4422 C4428 0.950 . S
H4423 C4429 0.950 . S
H4424 C4430 0.949 . S
C4425 H4420 0.950 . S
C4425 C4427 1.327 . S
C4425 C4431 1.429 . S
C4426 C4418 1.574 . S
C4426 H4421 0.949 . S
C4426 C4432 1.368 . S
C4427 C4411 1.349 . S
C4427 H4419 0.950 . S
C4427 C4425 1.327 . S
C4428 C4416 1.349 . S
C4428 H4422 0.950 . S
C4428 C4429 1.327 . S
C4429 H4423 0.950 . S
C4429 C4428 1.327 . S
C4429 C4433 1.429 . S
C4430 C4413 1.574 . S
C4430 H4424 0.949 . S
C4430 C4434 1.368 . S
C4431 C4412 1.429 . S
C4431 C4425 1.429 . S
C4431 C4432 1.523 . S
C4432 C4413 1.368 . S
C4432 C4426 1.368 . S
C4432 C4431 1.523 . S
C4433 C4417 1.429 . S
C4433 C4429 1.429 . S
C4433 C4434 1.523 . S
C4434 C4418 1.368 . S
C4434 C4430 1.368 . S
C4434 C4433 1.523 . S
H4435 C4410 0.950 . S
H4436 C4412 0.950 . S
H4437 C4413 0.949 . S
H4438 C4415 0.950 . S
H4439 C4417 0.950 . S
C4440 C4441 1.349 . S
C4440 C4442 1.327 . S
C4440 H4465 0.950 . S
C4441 C4440 1.349 . S
C4441 C4457 1.349 . S
C4442 C4440 1.327 . S
C4442 C4461 1.429 . S
C4442 H4466 0.950 . S
C4443 C4460 1.574 . S
C4443 C4462 1.368 . S
C4443 H4467 0.949 . S
H4444 C4448 0.949 . S
C4445 C4446 1.349 . S
C4445 C4447 1.327 . S
C4445 H4468 0.950 . S
C4446 C4445 1.349 . S
C4446 C4458 1.349 . S
C4447 C4445 1.327 . S
C4447 C4463 1.429 . S
C4447 H4469 0.950 . S
C4448 H4444 0.949 . S
C4448 C4456 1.574 . S
C4448 C4464 1.368 . S
H4449 C4457 0.950 . S
H4450 C4455 0.950 . S
H4451 C4456 0.949 . S
H4452 C4458 0.950 . S
H4453 C4459 0.950 . S
H4454 C4460 0.949 . S
C4455 H4450 0.950 . S
C4455 C4457 1.327 . S
C4455 C4461 1.429 . S
C4456 C4448 1.574 . S
C4456 H4451 0.949 . S
C4456 C4462 1.368 . S
C4457 C4441 1.349 . S
C4457 H4449 0.950 . S
C4457 C4455 1.327 . S
C4458 C4446 1.349 . S
C4458 H4452 0.950 . S
C4458 C4459 1.327 . S
C4459 H4453 0.950 . S
C4459 C4458 1.327 . S
C4459 C4463 1.429 . S
C4460 C4443 1.574 . S
C4460 H4454 0.949 . S
C4460 C4464 1.368 . S
C4461 C4442 1.429 . S
C4461 C4455 1.429 . S
C4461 C4462 1.523 . S
C4462 C4443 1.368 . S
C4462 C4456 1.368 . S
C4462 C4461 1.523 . S
C4463 C4447 1.429 . S
C4463 C4459 1.429 . S
C4463 C4464 1.523 . S
C4464 C4448 1.368 . S
C4464 C4460 1.368 . S
C4464 C4463 1.523 . S
H4465 C4440 0.950 . S
H4466 C4442 0.950 . S
H4467 C4443 0.949 . S
H4468 C4445 0.950 . S
H4469 C4447 0.950 . S
C4470 C4471 1.349 . S
C4470 C4472 1.327 . S
C4470 H4495 0.950 . S
C4471 C4470 1.349 . S
C4471 C4487 1.349 . S
C4472 C4470 1.327 . S
C4472 C4491 1.429 . S
C4472 H4496 0.950 . S
C4473 C4490 1.574 . S
C4473 C4492 1.368 . S
C4473 H4497 0.949 . S
H4474 C4478 0.949 . S
C4475 C4476 1.349 . S
C4475 C4477 1.327 . S
C4475 H4498 0.950 . S
C4476 C4475 1.349 . S
C4476 C4488 1.349 . S
C4477 C4475 1.327 . S
C4477 C4493 1.429 . S
C4477 H4499 0.950 . S
C4478 H4474 0.949 . S
C4478 C4486 1.574 . S
C4478 C4494 1.368 . S
H4479 C4487 0.950 . S
H4480 C4485 0.950 . S
H4481 C4486 0.949 . S
H4482 C4488 0.950 . S
H4483 C4489 0.950 . S
H4484 C4490 0.949 . S
C4485 H4480 0.950 . S
C4485 C4487 1.327 . S
C4485 C4491 1.429 . S
C4486 C4478 1.574 . S
C4486 H4481 0.949 . S
C4486 C4492 1.368 . S
C4487 C4471 1.349 . S
C4487 H4479 0.950 . S
C4487 C4485 1.327 . S
C4488 C4476 1.349 . S
C4488 H4482 0.950 . S
C4488 C4489 1.327 . S
C4489 H4483 0.950 . S
C4489 C4488 1.327 . S
C4489 C4493 1.429 . S
C4490 C4473 1.574 . S
C4490 H4484 0.949 . S
C4490 C4494 1.368 . S
C4491 C4472 1.429 . S
C4491 C4485 1.429 . S
C4491 C4492 1.523 . S
C4492 C4473 1.368 . S
C4492 C4486 1.368 . S
C4492 C4491 1.523 . S
C4493 C4477 1.429 . S
C4493 C4489 1.429 . S
C4493 C4494 1.523 . S
C4494 C4478 1.368 . S
C4494 C4490 1.368 . S
C4494 C4493 1.523 . S
H4495 C4470 0.950 . S
H4496 C4472 0.950 . S
H4497 C4473 0.949 . S
H4498 C4475 0.950 . S
H4499 C4477 0.950 . S
C4500 C4501 1.349 . S
C4500 C4502 1.327 . S
C4500 H4525 0.950 . S
C4501 C4500 1.349 . S
C4501 C4517 1.349 . S
C4502 C4500 1.327 . S
C4502 C4521 1.429 . S
C4502 H4526 0.950 . S
C4503 C4520 1.574 . S
C4503 C4522 1.368 . S
C4503 H4527 0.949 . S
H4504 C4508 0.949 . S
C4505 C4506 1.349 . S
C4505 C4507 1.327 . S
C4505 H4528 0.950 . S
C4506 C4505 1.349 . S
C4506 C4518 1.349 . S
C4507 C4505 1.327 . S
C4507 C4523 1.429 . S
C4507 H4529 0.950 . S
C4508 H4504 0.949 . S
C4508 C4516 1.574 . S
C4508 C4524 1.368 . S
H4509 C4517 0.950 . S
H4510 C4515 0.950 . S
H4511 C4516 0.949 . S
H4512 C4518 0.950 . S
H4513 C4519 0.950 . S
H4514 C4520 0.949 . S
C4515 H4510 0.950 . S
C4515 C4517 1.327 . S
C4515 C4521 1.429 . S
C4516 C4508 1.574 . S
C4516 H4511 0.949 . S
C4516 C4522 1.368 . S
C4517 C4501 1.349 . S
C4517 H4509 0.950 . S
C4517 C4515 1.327 . S
C4518 C4506 1.349 . S
C4518 H4512 0.950 . S
C4518 C4519 1.327 . S
C4519 H4513 0.950 . S
C4519 C4518 1.327 . S
C4519 C4523 1.429 . S
C4520 C4503 1.574 . S
C4520 H4514 0.949 . S
C4520 C4524 1.368 . S
C4521 C4502 1.429 . S
C4521 C4515 1.429 . S
C4521 C4522 1.523 . S
C4522 C4503 1.368 . S
C4522 C4516 1.368 . S
C4522 C4521 1.523 . S
C4523 C4507 1.429 . S
C4523 C4519 1.429 . S
C4523 C4524 1.523 . S
C4524 C4508 1.368 . S
C4524 C4520 1.368 . S
C4524 C4523 1.523 . S
H4525 C4500 0.950 . S
H4526 C4502 0.950 . S
H4527 C4503 0.949 . S
H4528 C4505 0.950 . S
H4529 C4507 0.950 . S
C4530 C4531 1.349 . S
C4530 C4532 1.327 . S
C4530 H4555 0.950 . S
C4531 C4530 1.349 . S
C4531 C4547 1.349 . S
C4532 C4530 1.327 . S
C4532 C4551 1.429 . S
C4532 H4556 0.950 . S
C4533 C4550 1.574 . S
C4533 C4552 1.368 . S
C4533 H4557 0.949 . S
H4534 C4538 0.949 . S
C4535 C4536 1.349 . S
C4535 C4537 1.327 . S
C4535 H4558 0.950 . S
C4536 C4535 1.349 . S
C4536 C4548 1.349 . S
C4537 C4535 1.327 . S
C4537 C4553 1.429 . S
C4537 H4559 0.950 . S
C4538 H4534 0.949 . S
C4538 C4546 1.574 . S
C4538 C4554 1.368 . S
H4539 C4547 0.950 . S
H4540 C4545 0.950 . S
H4541 C4546 0.949 . S
H4542 C4548 0.950 . S
H4543 C4549 0.950 . S
H4544 C4550 0.949 . S
C4545 H4540 0.950 . S
C4545 C4547 1.327 . S
C4545 C4551 1.429 . S
C4546 C4538 1.574 . S
C4546 H4541 0.949 . S
C4546 C4552 1.368 . S
C4547 C4531 1.349 . S
C4547 H4539 0.950 . S
C4547 C4545 1.327 . S
C4548 C4536 1.349 . S
C4548 H4542 0.950 . S
C4548 C4549 1.327 . S
C4549 H4543 0.950 . S
C4549 C4548 1.327 . S
C4549 C4553 1.429 . S
C4550 C4533 1.574 . S
C4550 H4544 0.949 . S
C4550 C4554 1.368 . S
C4551 C4532 1.429 . S
C4551 C4545 1.429 . S
C4551 C4552 1.523 . S
C4552 C4533 1.368 . S
C4552 C4546 1.368 . S
C4552 C4551 1.523 . S
C4553 C4537 1.429 . S
C4553 C4549 1.429 . S
C4553 C4554 1.523 . S
C4554 C4538 1.368 . S
C4554 C4550 1.368 . S
C4554 C4553 1.523 . S
H4555 C4530 0.950 . S
H4556 C4532 0.950 . S
H4557 C4533 0.949 . S
H4558 C4535 0.950 . S
H4559 C4537 0.950 . S
C4560 C4561 1.349 . S
C4560 C4562 1.327 . S
C4560 H4585 0.950 . S
C4561 C4560 1.349 . S
C4561 C4577 1.349 . S
C4562 C4560 1.327 . S
C4562 C4581 1.429 . S
C4562 H4586 0.950 . S
C4563 C4580 1.574 . S
C4563 C4582 1.368 . S
C4563 H4587 0.949 . S
H4564 C4568 0.949 . S
C4565 C4566 1.349 . S
C4565 C4567 1.327 . S
C4565 H4588 0.950 . S
C4566 C4565 1.349 . S
C4566 C4578 1.349 . S
C4567 C4565 1.327 . S
C4567 C4583 1.429 . S
C4567 H4589 0.950 . S
C4568 H4564 0.949 . S
C4568 C4576 1.574 . S
C4568 C4584 1.368 . S
H4569 C4577 0.950 . S
H4570 C4575 0.950 . S
H4571 C4576 0.949 . S
H4572 C4578 0.950 . S
H4573 C4579 0.950 . S
H4574 C4580 0.949 . S
C4575 H4570 0.950 . S
C4575 C4577 1.327 . S
C4575 C4581 1.429 . S
C4576 C4568 1.574 . S
C4576 H4571 0.949 . S
C4576 C4582 1.368 . S
C4577 C4561 1.349 . S
C4577 H4569 0.950 . S
C4577 C4575 1.327 . S
C4578 C4566 1.349 . S
C4578 H4572 0.950 . S
C4578 C4579 1.327 . S
C4579 H4573 0.950 . S
C4579 C4578 1.327 . S
C4579 C4583 1.429 . S
C4580 C4563 1.574 . S
C4580 H4574 0.949 . S
C4580 C4584 1.368 . S
C4581 C4562 1.429 . S
C4581 C4575 1.429 . S
C4581 C4582 1.523 . S
C4582 C4563 1.368 . S
C4582 C4576 1.368 . S
C4582 C4581 1.523 . S
C4583 C4567 1.429 . S
C4583 C4579 1.429 . S
C4583 C4584 1.523 . S
C4584 C4568 1.368 . S
C4584 C4580 1.368 . S
C4584 C4583 1.523 . S
H4585 C4560 0.950 . S
H4586 C4562 0.950 . S
H4587 C4563 0.949 . S
H4588 C4565 0.950 . S
H4589 C4567 0.950 . S
C4590 C4591 1.349 . S
C4590 C4592 1.327 . S
C4590 H4615 0.950 . S
C4591 C4590 1.349 . S
C4591 C4607 1.349 . S
C4592 C4590 1.327 . S
C4592 C4611 1.429 . S
C4592 H4616 0.950 . S
C4593 C4610 1.574 . S
C4593 C4612 1.368 . S
C4593 H4617 0.949 . S
H4594 C4598 0.949 . S
C4595 C4596 1.349 . S
C4595 C4597 1.327 . S
C4595 H4618 0.950 . S
C4596 C4595 1.349 . S
C4596 C4608 1.349 . S
C4597 C4595 1.327 . S
C4597 C4613 1.429 . S
C4597 H4619 0.950 . S
C4598 H4594 0.949 . S
C4598 C4606 1.574 . S
C4598 C4614 1.368 . S
H4599 C4607 0.950 . S
H4600 C4605 0.950 . S
H4601 C4606 0.949 . S
H4602 C4608 0.950 . S
H4603 C4609 0.950 . S
H4604 C4610 0.949 . S
C4605 H4600 0.950 . S
C4605 C4607 1.327 . S
C4605 C4611 1.429 . S
C4606 C4598 1.574 . S
C4606 H4601 0.949 . S
C4606 C4612 1.368 . S
C4607 C4591 1.349 . S
C4607 H4599 0.950 . S
C4607 C4605 1.327 . S
C4608 C4596 1.349 . S
C4608 H4602 0.950 . S
C4608 C4609 1.327 . S
C4609 H4603 0.950 . S
C4609 C4608 1.327 . S
C4609 C4613 1.429 . S
C4610 C4593 1.574 . S
C4610 H4604 0.949 . S
C4610 C4614 1.368 . S
C4611 C4592 1.429 . S
C4611 C4605 1.429 . S
C4611 C4612 1.523 . S
C4612 C4593 1.368 . S
C4612 C4606 1.368 . S
C4612 C4611 1.523 . S
C4613 C4597 1.429 . S
C4613 C4609 1.429 . S
C4613 C4614 1.523 . S
C4614 C4598 1.368 . S
C4614 C4610 1.368 . S
C4614 C4613 1.523 . S
H4615 C4590 0.950 . S
H4616 C4592 0.950 . S
H4617 C4593 0.949 . S
H4618 C4595 0.950 . S
H4619 C4597 0.950 . S
C4620 C4621 1.349 . S
C4620 C4622 1.327 . S
C4620 H4645 0.950 . S
C4621 C4620 1.349 . S
C4621 C4637 1.349 . S
C4622 C4620 1.327 . S
C4622 C4641 1.429 . S
C4622 H4646 0.950 . S
C4623 C4640 1.574 1_545 S
C4623 C4642 1.368 . S
C4623 H4647 0.949 . S
H4624 C4628 0.949 . S
C4625 C4626 1.349 . S
C4625 C4627 1.327 . S
C4625 H4648 0.950 . S
C4626 C4625 1.349 . S
C4626 C4638 1.349 . S
C4627 C4625 1.327 . S
C4627 C4643 1.429 . S
C4627 H4649 0.950 . S
C4628 H4624 0.949 . S
C4628 C4636 1.574 1_565 S
C4628 C4644 1.368 . S
H4629 C4637 0.950 . S
H4630 C4635 0.950 . S
H4631 C4636 0.949 . S
H4632 C4638 0.950 . S
H4633 C4639 0.950 . S
H4634 C4640 0.949 . S
C4635 H4630 0.950 . S
C4635 C4637 1.327 . S
C4635 C4641 1.429 . S
C4636 C4628 1.574 1_545 S
C4636 H4631 0.949 . S
C4636 C4642 1.368 . S
C4637 C4621 1.349 . S
C4637 H4629 0.950 . S
C4637 C4635 1.327 . S
C4638 C4626 1.349 . S
C4638 H4632 0.950 . S
C4638 C4639 1.327 . S
C4639 H4633 0.950 . S
C4639 C4638 1.327 . S
C4639 C4643 1.429 . S
C4640 C4623 1.574 1_565 S
C4640 H4634 0.949 . S
C4640 C4644 1.368 . S
C4641 C4622 1.429 . S
C4641 C4635 1.429 . S
C4641 C4642 1.523 . S
C4642 C4623 1.368 . S
C4642 C4636 1.368 . S
C4642 C4641 1.523 . S
C4643 C4627 1.429 . S
C4643 C4639 1.429 . S
C4643 C4644 1.523 . S
C4644 C4628 1.368 . S
C4644 C4640 1.368 . S
C4644 C4643 1.523 . S
H4645 C4620 0.950 . S
H4646 C4622 0.950 . S
H4647 C4623 0.949 . S
H4648 C4625 0.950 . S
H4649 C4627 0.950 . S
C4650 C4651 1.349 . S
C4650 C4652 1.327 . S
C4650 H4675 0.950 . S
C4651 C4650 1.349 . S
C4651 C4667 1.349 . S
C4652 C4650 1.327 . S
C4652 C4671 1.429 1_655 S
C4652 H4676 0.950 . S
C4653 C4670 1.574 . S
C4653 C4672 1.368 . S
C4653 H4677 0.949 . S
H4654 C4658 0.949 . S
C4655 C4656 1.349 . S
C4655 C4657 1.327 1_545 S
C4655 H4678 0.950 . S
C4656 C4655 1.349 . S
C4656 C4668 1.349 . S
C4657 C4655 1.327 1_565 S
C4657 C4673 1.429 . S
C4657 H4679 0.950 . S
C4658 H4654 0.949 . S
C4658 C4666 1.574 . S
C4658 C4674 1.368 . S
H4659 C4667 0.950 . S
H4660 C4665 0.950 . S
H4661 C4666 0.949 . S
H4662 C4668 0.950 . S
H4663 C4669 0.950 . S
H4664 C4670 0.949 . S
C4665 H4660 0.950 . S
C4665 C4667 1.327 1_455 S
C4665 C4671 1.429 . S
C4666 C4658 1.574 . S
C4666 H4661 0.949 . S
C4666 C4672 1.368 . S
C4667 C4651 1.349 . S
C4667 H4659 0.950 . S
C4667 C4665 1.327 1_655 S
C4668 C4656 1.349 . S
C4668 H4662 0.950 . S
C4668 C4669 1.327 1_545 S
C4669 H4663 0.950 . S
C4669 C4668 1.327 1_565 S
C4669 C4673 1.429 . S
C4670 C4653 1.574 . S
C4670 H4664 0.949 . S
C4670 C4674 1.368 . S
C4671 C4652 1.429 1_455 S
C4671 C4665 1.429 . S
C4671 C4672 1.523 . S
C4672 C4653 1.368 . S
C4672 C4666 1.368 . S
C4672 C4671 1.523 . S
C4673 C4657 1.429 . S
C4673 C4669 1.429 . S
C4673 C4674 1.523 . S
C4674 C4658 1.368 . S
C4674 C4670 1.368 . S
C4674 C4673 1.523 . S
H4675 C4650 0.950 . S
H4676 C4652 0.950 . S
H4677 C4653 0.949 . S
H4678 C4655 0.950 . S
H4679 C4657 0.950 . S
C1441 C1098 1.934 . S
C1446 C18 1.934 . S
C1471 C1138 1.934 . S
C1476 C58 1.934 1_655 S
C1501 C98 1.933 . S
C1506 C1178 1.933 . S
C1531 C138 1.934 . S
C1536 C498 1.934 . S
C1561 C178 1.933 . S
C1566 C538 1.933 . S
C1591 C578 1.934 . S
C1596 C218 1.934 1_565 S
C1621 C249 1.934 1_565 S
C1626 C849 1.934 . S
C1651 C889 1.934 . S
C1656 C289 1.934 . S
C1681 C329 1.933 . S
C1686 C929 1.933 . S
C1711 C1209 1.934 . S
C1716 C369 1.934 1_655 S
C1741 C409 1.933 . S
C1746 C1249 1.933 . S
C1771 C1289 1.934 . S
C1776 C449 1.934 . S
C1801 C978 1.934 . S
C1806 C618 1.934 . S
C1831 C658 1.933 . S
C1836 C1018 1.933 . S
C1861 C1058 1.933 . S
C1866 C698 1.933 . S
C1891 C729 1.933 . S
C1896 C1329 1.933 . S
C1921 C769 1.934 . S
C1926 C1369 1.934 . S
C1951 C1409 1.934 . S
C1956 C809 1.934 . S
C1981 C9 1.698 . S
C1986 C258 1.698 . S
C2011 C298 1.698 . S
C2016 C49 1.698 . S
C2041 C89 1.698 . S
C2046 C338 1.698 . S
C2071 C378 1.698 . S
C2076 C129 1.698 . S
C2101 C169 1.698 . S
C2106 C418 1.698 . S
C2131 C458 1.698 . S
C2136 C209 1.698 . S
C2161 C738 1.698 . S
C2166 C489 1.698 . S
C2191 C529 1.698 . S
C2196 C778 1.698 . S
C2221 C818 1.698 . S
C2226 C569 1.698 . S
C2251 C609 1.698 . S
C2256 C858 1.698 . S
C2281 C898 1.698 . S
C2286 C649 1.698 . S
C2311 C689 1.698 . S
C2316 C938 1.698 . S
C2341 C969 1.698 . S
C2346 C1218 1.698 . S
C2371 C1258 1.698 . S
C2376 C1009 1.698 . S
C2401 C1298 1.698 . S
C2406 C1049 1.698 . S
C2431 C1338 1.698 . S
C2436 C1089 1.698 . S
C2461 C1129 1.698 . S
C2466 C1378 1.698 . S
C2491 C1169 1.698 . S
C2496 C1418 1.698 . S
C2521 C19 1.849 . S
C2526 C95 1.857 . S
C2551 C59 1.848 . S
C2556 C15 1.857 . S
C2581 C55 1.856 . S
C2586 C99 1.848 . S
C2611 C139 1.849 . S
C2616 C175 1.857 . S
C2641 C215 1.856 . S
C2646 C179 1.848 . S
C2671 C135 1.857 . S
C2676 C219 1.848 . S
C2701 C326 1.857 . S
C2706 C250 1.848 . S
C2731 C290 1.848 . S
C2736 C246 1.857 . S
C2761 C330 1.848 . S
C2766 C286 1.857 . S
C2791 C406 1.857 . S
C2796 C370 1.848 . S
C2821 C410 1.848 . S
C2826 C446 1.857 . S
C2851 C450 1.848 . S
C2856 C366 1.857 . S
C2881 C575 1.856 . S
C2886 C499 1.848 . S
C2911 C495 1.857 1_655 S
C2916 C539 1.848 . S
C2941 C535 1.857 . S
C2946 C579 1.848 . S
C2971 C655 1.857 . S
C2976 C619 1.848 . S
C3001 C659 1.848 . S
C3006 C695 1.857 . S
C3031 C615 1.857 . S
C3036 C699 1.848 . S
C3061 C730 1.848 . S
C3066 C806 1.857 . S
C3091 C726 1.857 . S
C3096 C770 1.848 . S
C3121 C810 1.848 . S
C3126 C766 1.856 . S
C3151 C886 1.857 1_655 S
C3156 C850 1.848 . S
C3181 C926 1.857 . S
C3186 C890 1.848 . S
C3211 C846 1.857 . S
C3216 C930 1.848 . S
C3241 C1055 1.857 . S
C3246 C979 1.848 . S
C3271 C1019 1.848 . S
C3276 C975 1.857 . S
C3301 C1015 1.857 . S
C3306 C1059 1.848 . S
C3331 C1099 1.848 . S
C3336 C1135 1.856 . S
C3361 C1139 1.848 . S
C3366 C1175 1.857 . S
C3391 C1095 1.857 1_565 S
C3396 C1179 1.848 . S
C3421 C1210 1.848 . S
C3426 C1286 1.857 1_565 S
C3451 C1250 1.848 . S
C3456 C1206 1.857 . S
C3481 C1246 1.857 . S
C3486 C1290 1.848 . S
C3511 C1330 1.848 . S
C3516 C1366 1.857 . S
C3541 C1406 1.856 . S
C3546 C1370 1.848 . S
C3571 C1326 1.857 . S
C3576 C1410 1.848 . S
C3601 C86 1.144 . S
C3606 C10 1.165 . S
C3631 C50 1.166 . S
C3636 C6 1.144 . S
C3661 C46 1.144 . S
C3666 C90 1.166 . S
C3691 C166 1.144 . S
C3696 C130 1.165 . S
C3721 C170 1.166 . S
C3726 C206 1.144 . S
C3751 C210 1.166 . S
C3756 C126 1.144 . S
C3781 C335 1.144 . S
C3786 C259 1.166 . S
C3811 C299 1.166 . S
C3816 C255 1.144 . S
C3841 C295 1.144 . S
C3846 C339 1.166 . S
C3871 C415 1.144 . S
C3876 C379 1.166 . S
C3901 C455 1.144 . S
C3906 C419 1.166 . S
C3931 C375 1.144 . S
C3936 C459 1.166 . S
C3961 C490 1.166 . S
C3966 C566 1.144 . S
C3991 C530 1.165 . S
C3996 C486 1.144 . S
C4021 C570 1.166 . S
C4026 C526 1.144 . S
C4051 C646 1.144 . S
C4056 C610 1.166 . S
C4081 C650 1.166 . S
C4086 C686 1.144 . S
C4111 C690 1.166 . S
C4116 C606 1.144 . S
C4141 C815 1.144 . S
C4146 C739 1.166 . S
C4171 C735 1.144 . S
C4176 C779 1.166 . S
C4201 C819 1.166 . S
C4206 C775 1.144 . S
C4231 C895 1.144 . S
C4236 C859 1.166 . S
C4261 C899 1.166 . S
C4266 C935 1.144 . S
C4291 C939 1.166 . S
C4296 C855 1.144 . S
C4321 C970 1.166 . S
C4326 C1046 1.144 . S
C4351 C966 1.144 . S
C4356 C1010 1.166 . S
C4381 C1006 1.144 . S
C4386 C1050 1.166 . S
C4411 C1126 1.144 . S
C4416 C1090 1.166 . S
C4441 C1130 1.166 . S
C4446 C1166 1.144 . S
C4471 C1170 1.166 . S
C4476 C1086 1.144 . S
C4501 C1295 1.144 . S
C4506 C1219 1.166 . S
C4531 C1215 1.144 . S
C4536 C1259 1.166 . S
C4561 C1299 1.166 . S
C4566 C1255 1.144 . S
C4591 C1375 1.144 . S
C4596 C1339 1.166 . S
C4621 C1379 1.166 . S
C4626 C1415 1.144 . S
C4651 C1419 1.166 . S
C4656 C1335 1.144 . S
