# Generated by pormake.
# Topology zfr, (5)-cn, num edge types: 1
# Building blocks:
#     Node 0, Type 0, BuildingBlock: XOMCOT_clean_sbu_1, # of connection points: 5
#     Node 1, Type 0, BuildingBlock: XOMCOT_clean_sbu_1, # of connection points: 5
#     Node 2, Type 0, BuildingBlock: XOMCOT_clean_sbu_1, # of connection points: 5
#     Node 3, Type 0, BuildingBlock: XOMCOT_clean_sbu_1, # of connection points: 5
#     Node 4, Type 0, BuildingBlock: XOMCOT_clean_sbu_1, # of connection points: 5
#     Node 5, Type 0, BuildingBlock: XOMCOT_clean_sbu_1, # of connection points: 5
#     Node 6, Type 0, BuildingBlock: XOMCOT_clean_sbu_1, # of connection points: 5
#     Node 7, Type 0, BuildingBlock: XOMCOT_clean_sbu_1, # of connection points: 5
#     Edge 8, Type (0, 0), BuildingBlock: UVAHIK_clean_linker_0, # of connection points: 2
#     Edge 9, Type (0, 0), BuildingBlock: UVAHIK_clean_linker_0, # of connection points: 2
#     Edge 10, Type (0, 0), BuildingBlock: UVAHIK_clean_linker_0, # of connection points: 2
#     Edge 11, Type (0, 0), BuildingBlock: UVAHIK_clean_linker_0, # of connection points: 2
#     Edge 12, Type (0, 0), BuildingBlock: UVAHIK_clean_linker_0, # of connection points: 2
#     Edge 13, Type (0, 0), BuildingBlock: UVAHIK_clean_linker_0, # of connection points: 2
#     Edge 14, Type (0, 0), BuildingBlock: UVAHIK_clean_linker_0, # of connection points: 2
#     Edge 15, Type (0, 0), BuildingBlock: UVAHIK_clean_linker_0, # of connection points: 2
#     Edge 16, Type (0, 0), BuildingBlock: UVAHIK_clean_linker_0, # of connection points: 2
#     Edge 17, Type (0, 0), BuildingBlock: UVAHIK_clean_linker_0, # of connection points: 2
#     Edge 18, Type (0, 0), BuildingBlock: UVAHIK_clean_linker_0, # of connection points: 2
#     Edge 19, Type (0, 0), BuildingBlock: UVAHIK_clean_linker_0, # of connection points: 2
#     Edge 20, Type (0, 0), BuildingBlock: UVAHIK_clean_linker_0, # of connection points: 2
#     Edge 21, Type (0, 0), BuildingBlock: UVAHIK_clean_linker_0, # of connection points: 2
#     Edge 22, Type (0, 0), BuildingBlock: UVAHIK_clean_linker_0, # of connection points: 2
#     Edge 23, Type (0, 0), BuildingBlock: UVAHIK_clean_linker_0, # of connection points: 2
#     Edge 24, Type (0, 0), BuildingBlock: UVAHIK_clean_linker_0, # of connection points: 2
#     Edge 25, Type (0, 0), BuildingBlock: UVAHIK_clean_linker_0, # of connection points: 2
#     Edge 26, Type (0, 0), BuildingBlock: UVAHIK_clean_linker_0, # of connection points: 2
#     Edge 27, Type (0, 0), BuildingBlock: UVAHIK_clean_linker_0, # of connection points: 2
# Relax obj value: 0.183
# Max RMSD: 0.172
# Mean RMSD: 0.172
data_MOF--net-zfr--node1-XOMCOT_clean_sbu_1--edge1-UVAHIK_clean_linker_0
_symmetry_space_group_name_H-M    P1
_symmetry_Int_Tables_number       1
_symmetry_cell_setting            triclinic
loop_
_symmetry_equiv_pos_as_xyz
'x, y, z'
_cell_length_a     65.201428
_cell_length_b     65.230312
_cell_length_c     21.537127
_cell_angle_alpha  89.967603
_cell_angle_beta   90.017301
_cell_angle_gamma 90.00391
loop_
_atom_site_label
_atom_site_type_symbol
_atom_site_fract_x
_atom_site_fract_y
_atom_site_fract_z
_atom_type_partial_charge
C0 C 0.14478 0.34326 0.21538 0.0
C1 C 0.15096 0.34368 0.15429 0.0
N2 N 0.14055 0.32907 0.12322 0.0
N3 N 0.13034 0.32867 0.22244 0.0
C4 C 0.12845 0.31997 0.16593 0.0
H5 H 0.14976 0.35353 0.25179 0.0
Co6 Co 0.11534 0.32412 0.29445 0.0
C7 C 0.07336 0.31715 0.24553 0.0
O8 O 0.06614 0.33009 0.28691 0.0
N9 N 0.10145 0.31898 0.36938 0.0
C10 C 0.08414 0.30398 0.44632 0.0
C11 C 0.08583 0.30606 0.38297 0.0
C12 C 0.10968 0.32346 0.42536 0.0
N13 N 0.0993 0.31486 0.4728 0.0
O14 O 0.12738 0.29757 0.30194 0.0
H15 H 0.07729 0.29711 0.34972 0.0
H16 H 0.12385 0.33187 0.43104 0.0
O17 O 0.09253 0.31289 0.24485 0.0
C18 C 0.14454 0.29834 0.33002 0.0
O19 O 0.15177 0.31641 0.34578 0.0
N20 N 0.10448 0.3512 0.28779 0.0
C21 C 0.09516 0.39275 0.27191 0.0
C22 C 0.09214 0.3788 0.22348 0.0
C23 C 0.09694 0.35816 0.23223 0.0
C24 C 0.10758 0.36473 0.33523 0.0
C25 C 0.10264 0.38547 0.32871 0.0
H26 H 0.09545 0.34794 0.19305 0.0
H27 H 0.11495 0.35993 0.37739 0.0
H28 H 0.11766 0.30791 0.15552 0.0
H29 H 0.1618 0.35431 0.134 0.0
H30 H 0.07365 0.29394 0.47072 0.0
H31 H 0.08661 0.38389 0.17861 0.0
H32 H 0.10575 0.39592 0.36664 0.0
C33 C 0.65768 0.14557 0.45141 0.0
C34 C 0.65813 0.15129 0.38984 0.0
N35 N 0.67333 0.14082 0.36169 0.0
N36 N 0.67243 0.13148 0.46154 0.0
C37 C 0.68193 0.12923 0.40652 0.0
H38 H 0.64689 0.15077 0.4861 0.0
Co39 Co 0.67742 0.11762 0.53478 0.0
C40 C 0.68527 0.07492 0.4926 0.0
O41 O 0.67333 0.06799 0.5371 0.0
N42 N 0.68309 0.10466 0.61051 0.0
C43 C 0.70077 0.08978 0.68677 0.0
C44 C 0.69809 0.09099 0.62366 0.0
C45 C 0.67776 0.11227 0.66652 0.0
N46 N 0.68805 0.10334 0.71366 0.0
O47 O 0.70398 0.12977 0.53926 0.0
H48 H 0.70803 0.08384 0.58995 0.0
H49 H 0.66795 0.12543 0.67233 0.0
O50 O 0.6885 0.09422 0.48766 0.0
C51 C 0.70334 0.14706 0.56648 0.0
O52 O 0.68537 0.15418 0.58378 0.0
N53 N 0.65036 0.10682 0.53103 0.0
C54 C 0.60848 0.09778 0.51911 0.0
C55 C 0.62258 0.09148 0.4738 0.0
C56 C 0.64328 0.09657 0.47986 0.0
C57 C 0.63677 0.11335 0.57489 0.0
C58 C 0.6159 0.10877 0.57038 0.0
H59 H 0.65337 0.09312 0.44153 0.0
H60 H 0.64169 0.1234 0.61146 0.0
H61 H 0.69483 0.11913 0.39933 0.0
H62 H 0.64751 0.16159 0.3671 0.0
H63 H 0.71249 0.081 0.71048 0.0
H64 H 0.61762 0.08323 0.43287 0.0
H65 H 0.60555 0.11482 0.60512 0.0
C66 C 0.8519 0.66244 0.68325 0.0
C67 C 0.84631 0.66364 0.62168 0.0
N68 N 0.85864 0.6774 0.59359 0.0
N69 N 0.86771 0.67531 0.69353 0.0
C70 C 0.87126 0.6844 0.63842 0.0
H71 H 0.84521 0.65253 0.71807 0.0
Co72 Co 0.88152 0.67931 0.76776 0.0
C73 C 0.92473 0.68015 0.72526 0.0
O74 O 0.9295 0.66667 0.76834 0.0
N75 N 0.89441 0.68428 0.84381 0.0
C76 C 0.91188 0.6993 0.92006 0.0
C77 C 0.91113 0.69572 0.85731 0.0
C78 C 0.88473 0.68219 0.89884 0.0
N79 N 0.89518 0.69081 0.9462 0.0
O80 O 0.87281 0.70725 0.76886 0.0
H81 H 0.9212 0.7028 0.82387 0.0
H82 H 0.86965 0.67544 0.90327 0.0
O83 O 0.90636 0.68694 0.72158 0.0
C84 C 0.85389 0.71043 0.77954 0.0
O85 O 0.84149 0.69469 0.78564 0.0
N86 N 0.88928 0.65104 0.76744 0.0
C87 C 0.89704 0.6087 0.76329 0.0
C88 C 0.90061 0.62117 0.71131 0.0
C89 C 0.89661 0.64216 0.71427 0.0
C90 C 0.88515 0.63902 0.81778 0.0
C91 C 0.88932 0.61801 0.81721 0.0
H92 H 0.89904 0.65124 0.67294 0.0
H93 H 0.87804 0.64536 0.85842 0.0
H94 H 0.88296 0.69591 0.63127 0.0
H95 H 0.83461 0.65457 0.59898 0.0
H96 H 0.92306 0.70875 0.94373 0.0
H97 H 0.90589 0.61477 0.66781 0.0
H98 H 0.88628 0.60919 0.85875 0.0
C99 C 0.33501 0.84479 0.92355 0.0
C100 C 0.33322 0.83932 0.86206 0.0
N101 N 0.32277 0.8542 0.83206 0.0
N102 N 0.32573 0.86299 0.93237 0.0
C103 C 0.31826 0.8682 0.87615 0.0
H104 H 0.3431 0.83637 0.95921 0.0
Co105 Co 0.32569 0.87778 0.00588 0.0
C106 C 0.30101 0.91387 0.96795 0.0
O107 O 0.28801 0.91125 0.01385 0.0
N108 N 0.32592 0.89219 0.08017 0.0
C109 C 0.32844 0.9155 0.15502 0.0
C110 C 0.3291 0.91228 0.09179 0.0
C111 C 0.32392 0.88348 0.13653 0.0
N112 N 0.32528 0.89728 0.18279 0.0
O113 O 0.29804 0.86928 0.02138 0.0
H114 H 0.33207 0.9238 0.05679 0.0
H115 H 0.32161 0.86725 0.14369 0.0
O116 O 0.3163 0.90187 0.96196 0.0
C117 C 0.29711 0.85152 0.04569 0.0
O118 O 0.31431 0.84141 0.0545 0.0
N119 N 0.35305 0.88477 0.99258 0.0
C120 C 0.3952 0.88996 0.97785 0.0
C121 C 0.38134 0.89977 0.93772 0.0
C122 C 0.36024 0.89685 0.94557 0.0
C123 C 0.36624 0.87519 0.032 0.0
C124 C 0.38737 0.87765 0.02574 0.0
H125 H 0.34982 0.90386 0.91288 0.0
H126 H 0.36028 0.86532 0.06812 0.0
H127 H 0.31039 0.88242 0.86717 0.0
H128 H 0.33958 0.82566 0.84118 0.0
H129 H 0.33066 0.92995 0.17877 0.0
H130 H 0.38675 0.90912 0.89953 0.0
H131 H 0.39746 0.86995 0.05815 0.0
C132 C 0.14383 0.6623 0.2858 0.0
C133 C 0.14927 0.66276 0.3476 0.0
N134 N 0.13765 0.67701 0.37616 0.0
N135 N 0.12881 0.67611 0.27591 0.0
C136 C 0.12559 0.68501 0.33144 0.0
H137 H 0.15013 0.65234 0.25049 0.0
Co138 Co 0.11567 0.68178 0.20162 0.0
C139 C 0.07231 0.68451 0.24131 0.0
O140 O 0.0672 0.67213 0.1957 0.0
N141 N 0.10351 0.68841 0.12559 0.0
C142 C 0.08731 0.70526 0.0502 0.0
C143 C 0.08778 0.70125 0.11277 0.0
C144 C 0.11302 0.68593 0.07045 0.0
N145 N 0.10328 0.69562 0.02359 0.0
O146 O 0.12607 0.70912 0.20446 0.0
H147 H 0.07825 0.70882 0.14668 0.0
H148 H 0.12755 0.67811 0.06557 0.0
O149 O 0.09099 0.69017 0.24746 0.0
C150 C 0.14497 0.71042 0.19036 0.0
O151 O 0.15505 0.69357 0.17675 0.0
N152 N 0.1064 0.65398 0.19847 0.0
C153 C 0.09783 0.61176 0.20002 0.0
C154 C 0.09376 0.62407 0.25196 0.0
C155 C 0.09819 0.64499 0.25033 0.0
C156 C 0.11076 0.64214 0.14794 0.0
C157 C 0.1062 0.62121 0.14721 0.0
H158 H 0.09566 0.65385 0.29201 0.0
H159 H 0.11855 0.64849 0.10848 0.0
H160 H 0.11464 0.6972 0.33888 0.0
H161 H 0.16044 0.65296 0.37001 0.0
H162 H 0.07687 0.71563 0.02697 0.0
H163 H 0.08796 0.61755 0.29471 0.0
H164 H 0.10966 0.61248 0.10578 0.0
C165 C 0.34079 0.14452 0.5663 0.0
C166 C 0.34207 0.14942 0.62831 0.0
N167 N 0.32799 0.13822 0.65905 0.0
N168 N 0.32618 0.13011 0.55851 0.0
C169 C 0.31852 0.12676 0.61563 0.0
H170 H 0.35003 0.15087 0.52932 0.0
Co171 Co 0.31868 0.11776 0.4849 0.0
C172 C 0.31218 0.07407 0.51767 0.0
O173 O 0.32182 0.06866 0.46662 0.0
N174 N 0.31049 0.10592 0.40975 0.0
C175 C 0.29012 0.09181 0.33856 0.0
C176 C 0.2931 0.09499 0.4009 0.0
C177 C 0.31734 0.10978 0.3518 0.0
N178 N 0.3054 0.1012 0.30774 0.0
O179 O 0.29178 0.12905 0.49238 0.0
H180 H 0.28262 0.09047 0.43734 0.0
H181 H 0.32975 0.12009 0.34131 0.0
O182 O 0.30994 0.0931 0.53037 0.0
C183 C 0.29102 0.14793 0.4777 0.0
O184 O 0.30808 0.15729 0.46182 0.0
N185 N 0.34596 0.10816 0.47679 0.0
C186 C 0.38837 0.10181 0.47072 0.0
C187 C 0.37634 0.09115 0.51391 0.0
C188 C 0.35528 0.09496 0.51739 0.0
C189 C 0.35762 0.11919 0.43625 0.0
C190 C 0.37872 0.11598 0.43148 0.0
H191 H 0.34692 0.08824 0.55544 0.0
H192 H 0.35083 0.13165 0.41049 0.0
H193 H 0.30655 0.11576 0.62549 0.0
H194 H 0.35253 0.16031 0.64913 0.0
H195 H 0.27729 0.08387 0.31764 0.0
H196 H 0.38332 0.08085 0.54726 0.0
H197 H 0.38749 0.12504 0.39873 0.0
C198 C 0.86129 0.34149 0.79424 0.0
C199 C 0.85565 0.34127 0.85586 0.0
N200 N 0.86578 0.32588 0.88422 0.0
N201 N 0.87502 0.3264 0.78423 0.0
C202 C 0.87718 0.31698 0.83948 0.0
H203 H 0.8561 0.35218 0.7592 0.0
Co204 Co 0.88793 0.32005 0.71012 0.0
C205 C 0.93106 0.31352 0.74948 0.0
O206 O 0.9374 0.32487 0.70281 0.0
N207 N 0.89977 0.31287 0.63406 0.0
C208 C 0.9143 0.29463 0.55857 0.0
C209 C 0.91402 0.29841 0.62127 0.0
C210 C 0.89081 0.3166 0.57868 0.0
N211 N 0.89959 0.30607 0.5318 0.0
O212 O 0.87572 0.29348 0.71201 0.0
H213 H 0.92242 0.28962 0.65529 0.0
H214 H 0.87709 0.32573 0.57363 0.0
O215 O 0.91189 0.30994 0.75644 0.0
C216 C 0.85694 0.29354 0.696 0.0
O217 O 0.84825 0.31109 0.68164 0.0
N218 N 0.899 0.34713 0.70797 0.0
C219 C 0.9078 0.38907 0.71454 0.0
C220 C 0.9128 0.37601 0.76378 0.0
C221 C 0.90822 0.35516 0.75972 0.0
C222 C 0.89412 0.35977 0.65959 0.0
C223 C 0.89877 0.38068 0.66137 0.0
H224 H 0.91099 0.34573 0.8001 0.0
H225 H 0.88539 0.35419 0.62089 0.0
H226 H 0.88689 0.30376 0.84665 0.0
H227 H 0.84542 0.35203 0.87834 0.0
H228 H 0.92354 0.28318 0.53535 0.0
H229 H 0.91952 0.38199 0.80607 0.0
H230 H 0.8941 0.39042 0.62313 0.0
C231 C 0.66259 0.85995 0.05567 0.0
C232 C 0.6624 0.85493 0.11773 0.0
N233 N 0.67768 0.86528 0.1459 0.0
N234 N 0.67782 0.8735 0.04521 0.0
C235 C 0.68687 0.87623 0.10072 0.0
H236 H 0.65227 0.85417 0.02051 0.0
Co237 Co 0.68531 0.8853 0.97073 0.0
C238 C 0.69228 0.92939 0.00276 0.0
O239 O 0.68394 0.9355 0.95035 0.0
N240 N 0.69351 0.89645 0.89495 0.0
C241 C 0.71441 0.90886 0.82224 0.0
C242 C 0.71053 0.90784 0.88482 0.0
C243 C 0.68787 0.89009 0.83789 0.0
N244 N 0.70021 0.89749 0.79296 0.0
O245 O 0.71247 0.87467 0.97941 0.0
H246 H 0.72052 0.91368 0.92078 0.0
H247 H 0.67594 0.87905 0.82933 0.0
O248 O 0.69355 0.91024 0.01502 0.0
C249 C 0.71494 0.8554 0.97458 0.0
O250 O 0.69875 0.84355 0.96895 0.0
N251 N 0.65797 0.89461 0.96111 0.0
C252 C 0.61557 0.90107 0.95362 0.0
C253 C 0.62762 0.9122 0.99568 0.0
C254 C 0.64866 0.90841 -0.00026 0.0
C255 C 0.64634 0.88326 0.92129 0.0
C256 C 0.62525 0.88649 0.91587 0.0
H257 H 0.65699 0.9157 0.03686 0.0
H258 H 0.65309 0.87048 0.89705 0.0
H259 H 0.70019 0.88583 0.10756 0.0
H260 H 0.6516 0.8448 0.14044 0.0
H261 H 0.72758 0.91598 0.80051 0.0
H262 H 0.62077 0.92326 0.02689 0.0
H263 H 0.61645 0.87675 0.88508 0.0
C264 C 0.25297 0.14978 0.46008 0.0
C265 C 0.27153 0.15937 0.47623 0.0
C266 C 0.23514 0.1615 0.45152 0.0
C267 C 0.21184 0.21136 0.48913 0.0
H268 H 0.18703 0.20957 0.32549 0.0
C269 C 0.17386 0.28151 0.38371 0.0
C270 C 0.15575 0.2796 0.34886 0.0
C271 C 0.1844 0.26421 0.40413 0.0
C272 C 0.19345 0.20998 0.37186 0.0
H273 H 0.28588 0.18838 0.49886 0.0
H274 H 0.25484 0.20863 0.48573 0.0
H275 H 0.21178 0.18315 0.35598 0.0
H276 H 0.13456 0.25789 0.30761 0.0
H277 H 0.15326 0.22737 0.34326 0.0
H278 H 0.19416 0.23846 0.50463 0.0
C279 C 0.25399 0.19218 0.47913 0.0
C280 C 0.20759 0.19486 0.3893 0.0
C281 C 0.27179 0.18061 0.48632 0.0
C282 C 0.1485 0.25986 0.33433 0.0
C283 C 0.15919 0.24241 0.35467 0.0
C284 C 0.19768 0.22635 0.47195 0.0
C285 C 0.23557 0.18285 0.4606 0.0
C286 C 0.2175 0.19591 0.44719 0.0
C287 C 0.17716 0.24445 0.39035 0.0
C288 C 0.18898 0.22634 0.41219 0.0
H289 H 0.25245 0.13342 0.45157 0.0
H290 H 0.22112 0.15397 0.43717 0.0
H291 H 0.21905 0.21235 0.53437 0.0
H292 H 0.17996 0.29644 0.39565 0.0
H293 H 0.19844 0.26637 0.4302 0.0
C294 C 0.8234 0.27562 0.70094 0.0
C295 C 0.84473 0.27452 0.69327 0.0
C296 C 0.81129 0.25815 0.6946 0.0
C297 C 0.80755 0.21042 0.61228 0.0
H298 H 0.7638 0.19969 0.72983 0.0
C299 C 0.74184 0.1511 0.56817 0.0
C300 C 0.72217 0.15862 0.58237 0.0
C301 C 0.75939 0.16209 0.58601 0.0
C302 C 0.77593 0.20246 0.69651 0.0
H303 H 0.87025 0.25429 0.67329 0.0
H304 H 0.84877 0.22352 0.66033 0.0
H305 H 0.79032 0.22464 0.75536 0.0
H306 H 0.70554 0.18367 0.6256 0.0
H307 H 0.7358 0.20269 0.65572 0.0
H308 H 0.79247 0.18902 0.55195 0.0
C309 C 0.84158 0.23797 0.67212 0.0
C310 C 0.79115 0.21666 0.71132 0.0
C311 C 0.85383 0.25549 0.67982 0.0
C312 C 0.72042 0.17734 0.61412 0.0
C313 C 0.73783 0.1882 0.63197 0.0
C314 C 0.79217 0.19625 0.59719 0.0
C315 C 0.82019 0.23921 0.67939 0.0
C316 C 0.80669 0.2213 0.66853 0.0
C317 C 0.75753 0.18067 0.61873 0.0
C318 C 0.77578 0.19272 0.63827 0.0
H319 H 0.81599 0.29007 0.71146 0.0
H320 H 0.79482 0.25959 0.69977 0.0
H321 H 0.81935 0.21381 0.57839 0.0
H322 H 0.74368 0.1367 0.54381 0.0
H323 H 0.77438 0.15592 0.57509 0.0
C324 C 0.82584 0.73606 0.77275 0.0
C325 C 0.84595 0.73122 0.79064 0.0
C326 C 0.81697 0.7546 0.79066 0.0
C327 C 0.81546 0.7882 0.91984 0.0
H328 H 0.78305 0.82322 0.81216 0.0
C329 C 0.75088 0.85714 0.9344 0.0
C330 C 0.73553 0.84646 0.96684 0.0
C331 C 0.76902 0.84716 0.91711 0.0
C332 C 0.79234 0.81386 0.84277 0.0
H333 H 0.87283 0.74199 0.83996 0.0
H334 H 0.85691 0.77433 0.87361 0.0
H335 H 0.80672 0.79824 0.76671 0.0
H336 H 0.72754 0.8176 0.01032 0.0
H337 H 0.75948 0.80041 0.98205 0.0
H338 H 0.79985 0.80267 0.99578 0.0
C339 C 0.84826 0.76391 0.8445 0.0
C340 C 0.80578 0.79954 0.81678 0.0
C341 C 0.85735 0.74553 0.82508 0.0
C342 C 0.73916 0.82615 0.98532 0.0
C343 C 0.75745 0.81636 0.96941 0.0
C344 C 0.80171 0.80224 0.94581 0.0
C345 C 0.82789 0.76842 0.82813 0.0
C346 C 0.81703 0.78622 0.85507 0.0
C347 C 0.77226 0.82656 0.93351 0.0
C348 C 0.78963 0.81478 0.90741 0.0
H349 H 0.81675 0.72523 0.74629 0.0
H350 H 0.80117 0.75763 0.77804 0.0
H351 H 0.82383 0.77795 0.95028 0.0
H352 H 0.74834 0.87277 0.91913 0.0
H353 H 0.78021 0.8553 0.88928 0.0
C354 C 0.14592 0.7484 0.17081 0.0
C355 C 0.15583 0.73024 0.18912 0.0
C356 C 0.15719 0.76658 0.16342 0.0
C357 C 0.20554 0.79165 0.20799 0.0
H358 H 0.20708 0.81425 0.04143 0.0
C359 C 0.27815 0.82516 0.10611 0.0
C360 C 0.27758 0.84256 0.06774 0.0
C361 C 0.26011 0.81619 0.12737 0.0
C362 C 0.2065 0.80851 0.0886 0.0
H363 H 0.18487 0.71694 0.21684 0.0
H364 H 0.2043 0.74858 0.20578 0.0
H365 H 0.18016 0.78975 0.06973 0.0
H366 H 0.25753 0.86434 0.02186 0.0
H367 H 0.22562 0.84824 0.05862 0.0
H368 H 0.23231 0.80957 0.22632 0.0
C369 C 0.18796 0.74886 0.19654 0.0
C370 C 0.1911 0.7945 0.10477 0.0
C371 C 0.17687 0.73072 0.2025 0.0
C372 C 0.25843 0.85092 0.05137 0.0
C373 C 0.24021 0.84172 0.07228 0.0
C374 C 0.2208 0.80568 0.19203 0.0
C375 C 0.17835 0.76688 0.17596 0.0
C376 C 0.19108 0.78526 0.16375 0.0
C377 C 0.24093 0.82427 0.11071 0.0
C378 C 0.22204 0.81349 0.13129 0.0
H379 H 0.1297 0.74835 0.15985 0.0
H380 H 0.14947 0.78029 0.14733 0.0
H381 H 0.20569 0.78494 0.25403 0.0
H382 H 0.2926 0.81834 0.11985 0.0
H383 H 0.26123 0.80253 0.15581 0.0
C384 C 0.08939 0.31457 0.58327 0.0
C385 C 0.10471 0.31516 0.53756 0.0
C386 C 0.09459 0.31493 0.6462 0.0
C387 C 0.13726 0.32836 0.7528 0.0
H388 H 0.10457 0.29794 0.87162 0.0
C389 C 0.13478 0.30671 0.03231 0.0
C390 C 0.13982 0.32599 0.05705 0.0
C391 C 0.13226 0.30416 0.96831 0.0
C392 C 0.11407 0.30631 0.83908 0.0
H393 H 0.13752 0.3159 0.52176 0.0
H394 H 0.14668 0.31611 0.63144 0.0
H395 H 0.09683 0.2953 0.76151 0.0
H396 H 0.14628 0.35768 0.03394 0.0
H397 H 0.1416 0.35339 0.92278 0.0
H398 H 0.15485 0.33892 0.83024 0.0
C399 C 0.13059 0.31598 0.61891 0.0
C400 C 0.10941 0.30505 0.77587 0.0
C401 C 0.12537 0.31585 0.55599 0.0
C402 C 0.14275 0.34255 0.0163 0.0
C403 C 0.14006 0.34007 0.95243 0.0
C404 C 0.14203 0.32947 0.81596 0.0
C405 C 0.11527 0.31562 0.66488 0.0
C406 C 0.12079 0.31625 0.73195 0.0
C407 C 0.13454 0.3209 0.92763 0.0
C408 C 0.13035 0.31866 0.86001 0.0
H409 H 0.07336 0.31421 0.57022 0.0
H410 H 0.08235 0.31501 0.68017 0.0
H411 H 0.14625 0.33736 0.7205 0.0
H412 H 0.13267 0.29362 0.06254 0.0
H413 H 0.12841 0.28909 0.9508 0.0
C414 C 0.68581 0.12202 0.26994 0.0
C415 C 0.67774 0.14 0.29627 0.0
C416 C 0.689 0.12062 0.20617 0.0
C417 C 0.67066 0.14178 0.05906 0.0
H418 H 0.71715 0.11201 0.99204 0.0
C419 C 0.68255 0.12925 0.7959 0.0
C420 C 0.68786 0.10919 0.7781 0.0
C421 C 0.68269 0.13492 0.85837 0.0
C422 C 0.70405 0.12028 0.01016 0.0
H423 H 0.6672 0.17081 0.27641 0.0
H424 H 0.67278 0.16837 0.16433 0.0
H425 H 0.71562 0.11927 0.10302 0.0
H426 H 0.69731 0.07937 0.812 0.0
H427 H 0.69761 0.08927 0.92114 0.0
H428 H 0.65896 0.14251 0.96623 0.0
C429 C 0.67643 0.1553 0.19331 0.0
C430 C 0.70318 0.12446 0.0736 0.0
C431 C 0.67324 0.1567 0.25737 0.0
C432 C 0.69338 0.09498 0.82417 0.0
C433 C 0.69359 0.10066 0.8866 0.0
C434 C 0.67157 0.13766 0.99552 0.0
C435 C 0.68419 0.13716 0.16706 0.0
C436 C 0.68627 0.13488 0.09892 0.0
C437 C 0.68824 0.12069 0.9043 0.0
C438 C 0.68808 0.12651 0.97069 0.0
H439 H 0.689 0.10869 0.29819 0.0
H440 H 0.69457 0.10627 0.18731 0.0
H441 H 0.65732 0.14962 0.07728 0.0
H442 H 0.67866 0.14074 0.76165 0.0
H443 H 0.67873 0.15052 0.87067 0.0
C444 C 0.90388 0.69527 0.0569 0.0
C445 C 0.88909 0.69212 0.01039 0.0
C446 C 0.89814 0.69637 0.11916 0.0
C447 C 0.85849 0.67947 0.22698 0.0
H448 H 0.88357 0.7193 0.33701 0.0
C449 C 0.84213 0.68025 0.49055 0.0
C450 C 0.85957 0.68222 0.52844 0.0
C451 C 0.8434 0.68401 0.42675 0.0
C452 C 0.87649 0.70803 0.30691 0.0
H453 H 0.85648 0.68817 0.99323 0.0
H454 H 0.84657 0.68972 0.10219 0.0
H455 H 0.89025 0.72102 0.2257 0.0
H456 H 0.89203 0.6896 0.52891 0.0
H457 H 0.89425 0.69603 0.41826 0.0
H458 H 0.84529 0.66604 0.3083 0.0
C459 C 0.86263 0.69121 0.09014 0.0
C460 C 0.8803 0.70904 0.24325 0.0
C461 C 0.86836 0.69022 0.02772 0.0
C462 C 0.8782 0.68832 0.50138 0.0
C463 C 0.87948 0.69204 0.4378 0.0
C464 C 0.85475 0.67839 0.29074 0.0
C465 C 0.87748 0.69426 0.13643 0.0
C466 C 0.87169 0.69451 0.20286 0.0
C467 C 0.86214 0.68978 0.39966 0.0
C468 C 0.86408 0.6924 0.33152 0.0
H469 H 0.91998 0.69647 0.0454 0.0
H470 H 0.90996 0.69838 0.15398 0.0
H471 H 0.85178 0.66797 0.19693 0.0
H472 H 0.82751 0.67582 0.51021 0.0
H473 H 0.82972 0.68236 0.39863 0.0
C474 C 0.33194 0.87468 0.27205 0.0
C475 C 0.32402 0.89306 0.24814 0.0
C476 C 0.33023 0.87016 0.33512 0.0
C477 C 0.32005 0.89421 0.48811 0.0
H478 H 0.312 0.83771 0.53899 0.0
C479 C 0.3058 0.87119 0.74273 0.0
C480 C 0.31949 0.85633 0.76598 0.0
C481 C 0.30442 0.87499 0.6791 0.0
C482 C 0.31427 0.85353 0.52531 0.0
H483 H 0.30801 0.9211 0.27094 0.0
H484 H 0.30443 0.91305 0.38123 0.0
H485 H 0.31323 0.84619 0.42872 0.0
H486 H 0.34166 0.83309 0.73889 0.0
H487 H 0.33873 0.83939 0.62803 0.0
H488 H 0.32073 0.90148 0.58504 0.0
C489 C 0.31243 0.9023 0.35161 0.0
C490 C 0.31511 0.85841 0.46223 0.0
C491 C 0.31442 0.90693 0.28852 0.0
C492 C 0.33088 0.84458 0.72333 0.0
C493 C 0.32926 0.8482 0.65959 0.0
C494 C 0.31891 0.88935 0.55115 0.0
C495 C 0.32027 0.88381 0.37569 0.0
C496 C 0.3183 0.87878 0.4428 0.0
C497 C 0.31638 0.86375 0.63709 0.0
C498 C 0.31625 0.86895 0.57028 0.0
H499 H 0.33971 0.86389 0.24199 0.0
H500 H 0.33693 0.85605 0.3521 0.0
H501 H 0.32284 0.91 0.47505 0.0
H502 H 0.2963 0.8802 0.77347 0.0
H503 H 0.29413 0.88685 0.66271 0.0
C504 C 0.09472 0.70073 0.91305 0.0
C505 C 0.10933 0.69656 0.95932 0.0
C506 C 0.10036 0.70115 0.85062 0.0
C507 C 0.13833 0.68055 0.74313 0.0
H508 H 0.11586 0.72123 0.63073 0.0
C509 C 0.15431 0.67877 0.47921 0.0
C510 C 0.137 0.68174 0.44138 0.0
C511 C 0.15335 0.6828 0.54289 0.0
C512 C 0.1222 0.70972 0.66152 0.0
H513 H 0.14158 0.6902 0.97596 0.0
H514 H 0.1513 0.69061 0.86677 0.0
H515 H 0.10965 0.72428 0.74202 0.0
H516 H 0.10504 0.69106 0.44093 0.0
H517 H 0.10335 0.69799 0.5514 0.0
H518 H 0.15034 0.66562 0.66254 0.0
C519 C 0.13544 0.69338 0.87909 0.0
C520 C 0.11865 0.71148 0.72515 0.0
C521 C 0.12981 0.69306 0.94164 0.0
C522 C 0.11879 0.689 0.46842 0.0
C523 C 0.11782 0.693 0.53186 0.0
C524 C 0.14182 0.67874 0.6794 0.0
C525 C 0.12074 0.69734 0.83298 0.0
C526 C 0.12632 0.69668 0.76643 0.0
C527 C 0.13504 0.68987 0.56989 0.0
C528 C 0.13341 0.69307 0.63783 0.0
H529 H 0.07878 0.70319 0.92488 0.0
H530 H 0.08862 0.70391 0.81599 0.0
H531 H 0.14428 0.66881 0.77385 0.0
H532 H 0.16862 0.67341 0.45957 0.0
H533 H 0.16693 0.68042 0.57096 0.0
C534 C 0.32653 0.10834 0.21527 0.0
C535 C 0.3073 0.10403 0.24174 0.0
C536 C 0.32826 0.11254 0.15203 0.0
C537 C 0.30263 0.10551 0.0024 0.0
H538 H 0.33515 0.15247 0.95204 0.0
C539 C 0.3053 0.13219 0.74858 0.0
C540 C 0.32473 0.13721 0.7249 0.0
C541 C 0.30247 0.12943 0.81218 0.0
C542 C 0.32617 0.13921 0.96534 0.0
H543 H 0.27484 0.10044 0.22209 0.0
H544 H 0.27794 0.10748 0.1114 0.0
H545 H 0.33187 0.14414 0.06204 0.0
H546 H 0.35632 0.14371 0.74911 0.0
H547 H 0.35148 0.13871 0.86028 0.0
H548 H 0.29718 0.10032 0.90586 0.0
C549 C 0.29166 0.10754 0.1398 0.0
C550 C 0.3243 0.13445 0.02823 0.0
C551 C 0.28991 0.10344 0.20317 0.0
C552 C 0.34114 0.14007 0.76619 0.0
C553 C 0.33835 0.1372 0.82983 0.0
C554 C 0.30458 0.11019 0.9395 0.0
C555 C 0.31081 0.11238 0.11386 0.0
C556 C 0.31258 0.11751 0.04727 0.0
C557 C 0.31905 0.13154 0.85337 0.0
C558 C 0.31642 0.12706 0.9203 0.0
H559 H 0.34027 0.10851 0.24347 0.0
H560 H 0.34326 0.11586 0.13292 0.0
H561 H 0.29368 0.09224 0.01587 0.0
H562 H 0.29231 0.13025 0.71782 0.0
H563 H 0.28733 0.1255 0.82906 0.0
C564 C 0.9075 0.30003 0.42125 0.0
C565 C 0.89343 0.30571 0.46755 0.0
C566 C 0.90174 0.29998 0.35888 0.0
C567 C 0.86562 0.32365 0.25099 0.0
H568 H 0.88355 0.28033 0.14033 0.0
C569 C 0.84908 0.32581 0.9874 0.0
C570 C 0.86594 0.32102 0.94943 0.0
C571 C 0.84975 0.32188 0.05121 0.0
C572 C 0.87849 0.29258 0.17063 0.0
H573 H 0.86197 0.31523 0.48427 0.0
H574 H 0.85208 0.31546 0.37526 0.0
H575 H 0.88993 0.27734 0.25157 0.0
H576 H 0.89674 0.30845 0.94902 0.0
H577 H 0.89796 0.30171 0.05949 0.0
H578 H 0.85478 0.33921 0.16992 0.0
C579 C 0.86763 0.31122 0.38748 0.0
C580 C 0.88214 0.29085 0.23423 0.0
C581 C 0.87336 0.31117 0.44995 0.0
C582 C 0.88334 0.31197 0.97649 0.0
C583 C 0.88403 0.30807 0.04002 0.0
C584 C 0.86205 0.32542 0.18728 0.0
C585 C 0.88179 0.30569 0.34135 0.0
C586 C 0.87611 0.30656 0.27486 0.0
C587 C 0.86732 0.3131 0.07821 0.0
C588 C 0.86884 0.3101 0.14629 0.0
H589 H 0.92313 0.29603 0.43303 0.0
H590 H 0.91308 0.29597 0.3242 0.0
H591 H 0.86095 0.33607 0.28121 0.0
H592 H 0.83537 0.33258 0.96781 0.0
H593 H 0.83656 0.32574 0.0794 0.0
C594 C 0.69208 0.88288 0.23722 0.0
C595 C 0.68257 0.8656 0.21099 0.0
C596 C 0.69619 0.88365 0.30058 0.0
C597 C 0.67822 0.86306 0.44799 0.0
H598 H 0.72798 0.88799 0.51173 0.0
C599 C 0.69278 0.87262 0.70968 0.0
C600 C 0.70002 0.89195 0.72843 0.0
C601 C 0.69243 0.86731 0.64705 0.0
C602 C 0.71398 0.88108 0.49452 0.0
H603 H 0.67044 0.83533 0.23051 0.0
H604 H 0.67752 0.83674 0.34184 0.0
H605 H 0.72448 0.88182 0.40045 0.0
H606 H 0.71275 0.92075 0.69658 0.0
H607 H 0.71199 0.91156 0.58672 0.0
H608 H 0.66751 0.86275 0.54175 0.0
C609 C 0.68161 0.84974 0.31309 0.0
C610 C 0.712 0.87752 0.43098 0.0
C611 C 0.67752 0.84896 0.24949 0.0
C612 C 0.70722 0.90573 0.68337 0.0
C613 C 0.70685 0.90042 0.62064 0.0
C614 C 0.6802 0.86662 0.51152 0.0
C615 C 0.69086 0.86717 0.33923 0.0
C616 C 0.69394 0.86882 0.40701 0.0
C617 C 0.69932 0.88121 0.60188 0.0
C618 C 0.69796 0.87599 0.53524 0.0
H619 H 0.69584 0.89612 0.20925 0.0
H620 H 0.70296 0.89746 0.31959 0.0
H621 H 0.66402 0.85658 0.43072 0.0
H622 H 0.68763 0.86146 0.7434 0.0
H623 H 0.68686 0.85227 0.63398 0.0
C624 C 0.06743 0.30266 0.13903 0.0
C625 C 0.05955 0.30954 0.19607 0.0
C626 C 0.05426 0.29832 0.08947 0.0
C627 C 1.00071 0.28718 0.04647 0.0
H628 H 0.01305 0.31801 0.89721 0.0
C629 C 0.93968 0.30382 0.85884 0.0
C630 C 0.94596 0.30698 0.79726 0.0
C631 C 0.95416 0.30033 0.9056 0.0
C632 C 0.0095 0.30885 0.93773 0.0
H633 H 0.03161 0.316 0.24704 0.0
H634 H 0.00863 0.30805 0.16089 0.0
H635 H 0.03738 0.31786 0.98258 0.0
H636 H 0.97215 0.30765 0.73545 0.0
H637 H 0.99734 0.3006 0.81618 0.0
H638 H 0.97285 0.27808 0.00179 0.0
C639 C 0.025 0.30618 0.15438 0.0
C640 C 0.02349 0.30886 0.98685 0.0
C641 C 0.03817 0.31083 0.20358 0.0
C642 C 0.96689 0.30549 0.78272 0.0
C643 C 0.98134 0.30162 0.8292 0.0
C644 C 0.98683 0.2869 -0.0031 0.0
C645 C 0.03293 0.30041 0.09636 0.0
C646 C 0.01907 0.29834 0.04212 0.0
C647 C 0.97525 0.29957 0.89163 0.0
C648 C 0.99084 0.29807 0.94224 0.0
H649 H 0.08378 0.30146 0.13163 0.0
H650 H 0.06076 0.29377 0.04529 0.0
H651 H 0.99702 0.27881 0.08846 0.0
H652 H 0.92369 0.30506 0.87146 0.0
H653 H 0.94879 0.29914 0.95303 0.0
C654 C 0.70003 0.96541 0.03537 0.0
C655 C 0.69744 0.94467 0.05102 0.0
C656 C 0.70316 0.98012 0.08163 0.0
C657 C 0.7149 0.98624 0.25085 0.0
H658 H 0.68597 0.03771 0.22954 0.0
C659 C 0.69061 0.03935 0.45237 0.0
C660 C 0.69257 0.06063 0.44398 0.0
C661 C 0.69518 0.02583 0.40401 0.0
C662 C 0.6944 0.02355 0.2358 0.0
H663 H 0.69641 0.92305 0.12735 0.0
H664 H 0.7012 0.94861 0.20801 0.0
H665 H 0.68635 0.0129 0.14533 0.0
H666 H 0.70186 0.08429 0.37909 0.0
H667 H 0.70938 0.06069 0.29415 0.0
H668 H 0.722 0.99668 0.3428 0.0
C669 C 0.70141 0.95358 0.16005 0.0
C670 C 0.69469 0.0093 0.18741 0.0
C671 C 0.69857 0.93887 0.11373 0.0
C672 C 0.70001 0.06803 0.38696 0.0
C673 C 0.70428 0.05452 0.33825 0.0
C674 C 0.71437 1.00041 0.29956 0.0
C675 C 0.70347 0.97447 0.14474 0.0
C676 C 0.70471 0.99032 0.19451 0.0
C677 C 0.70157 0.03331 0.346 0.0
C678 C 0.7039 0.01909 0.29274 0.0
H679 H 0.69941 0.97032 0.98736 0.0
H680 H 0.70511 0.99596 0.06785 0.0
H681 H 0.72312 0.972 0.25769 0.0
H682 H 0.68502 0.03312 0.49581 0.0
H683 H 0.69282 0.00956 0.4112 0.0
C684 C 0.03684 0.68209 0.28448 0.0
C685 C 0.05674 0.69026 0.28822 0.0
C686 C 0.02254 0.68582 0.33126 0.0
C687 C 0.01975 0.69947 0.49711 0.0
H688 H 0.96143 0.70071 0.4621 0.0
C689 C 0.93583 0.70069 0.63234 0.0
C690 C 0.94036 0.68632 0.67904 0.0
C691 C 0.95032 0.70531 0.58642 0.0
C692 C 0.97764 0.70076 0.47293 0.0
H693 H 0.07696 0.7095 0.34301 0.0
H694 H 0.0518 0.71636 0.42434 0.0
H695 H 0.98583 0.70243 0.37693 0.0
H696 H 0.9638 0.66583 0.71472 0.0
H697 H 0.98868 0.67346 0.63443 0.0
H698 H 0.01158 0.69806 0.59314 0.0
C699 C 0.04739 0.70672 0.38567 0.0
C700 C 0.99167 0.70145 0.42391 0.0
C701 C 0.06178 0.70288 0.33886 0.0
C702 C 0.9598 0.67704 0.67962 0.0
C703 C 0.97419 0.68156 0.63369 0.0
C704 C 0.00573 0.69898 0.54616 0.0
C705 C 0.02767 0.69796 0.38293 0.0
C706 C 0.01289 0.7002 0.43524 0.0
C707 C 0.9696 0.6956 0.58609 0.0
C708 C 0.98449 0.699 0.53463 0.0
H709 H 0.03243 0.67225 0.24625 0.0
H710 H 0.00768 0.67849 0.32792 0.0
H711 H 0.03594 0.69837 0.50776 0.0
H712 H 0.92102 0.70818 0.63071 0.0
H713 H 0.94634 0.71639 0.55095 0.0
C714 C 0.28525 0.94748 0.936 0.0
C715 C 0.29828 0.93084 0.923 0.0
C716 C 0.2832 0.96361 0.89341 0.0
C717 C 0.2885 0.9758 0.72827 0.0
H718 H 0.30035 0.03148 0.78005 0.0
C719 C 0.31172 0.03761 0.55314 0.0
C720 C 0.30625 0.05816 0.56336 0.0
C721 C 0.30743 0.02263 0.59749 0.0
C722 C 0.29656 0.01611 0.76488 0.0
H723 H 0.31919 0.91806 0.85474 0.0
H724 H 0.31517 0.94579 0.78039 0.0
H725 H 0.29849 0.00417 0.85761 0.0
H726 H 0.29141 0.07898 0.6277 0.0
H727 H 0.2835 0.05266 0.70487 0.0
H728 H 0.28655 0.98749 0.6358 0.0
C729 C 0.30663 0.94641 0.82349 0.0
C730 C 0.29555 1.00048 0.80937 0.0
C731 C 0.30898 0.93056 0.86633 0.0
C732 C 0.29592 0.0633 0.61851 0.0
C733 C 0.29149 0.04822 0.6629 0.0
C734 C 0.28924 0.99141 0.68397 0.0
C735 C 0.2938 0.96313 0.83662 0.0
C736 C 0.29208 0.98011 0.79119 0.0
C737 C 0.29735 0.0277 0.65315 0.0
C738 C 0.29389 0.01168 0.70139 0.0
H739 H 0.27688 0.94818 0.97937 0.0
H740 H 0.27321 0.97636 0.90454 0.0
H741 H 0.2855 0.96024 0.71318 0.0
H742 H 0.31979 0.03309 0.51139 0.0
H743 H 0.31259 0.00712 0.58873 0.0
C744 C 0.10143 0.42456 0.21016 0.0
C745 C 0.09227 0.41502 0.26155 0.0
C746 C 0.09982 0.44573 0.20178 0.0
C747 C 0.08767 0.4937 0.288 0.0
H748 H 0.08805 0.51704 0.12232 0.0
C749 C 0.07852 0.58064 0.23809 0.0
C750 C 0.09455 0.58912 0.20248 0.0
C751 C 0.07634 0.55939 0.24372 0.0
C752 C 0.08792 0.51069 0.16881 0.0
H753 H 0.07382 0.41993 0.34369 0.0
H754 H 0.07019 0.45684 0.32793 0.0
H755 H 0.08695 0.47991 0.13517 0.0
H756 H 0.12076 0.58148 0.14454 0.0
H757 H 0.1163 0.54454 0.15232 0.0
H758 H 0.08819 0.52469 0.32119 0.0
C759 C 0.07919 0.44814 0.29493 0.0
C760 C 0.08744 0.48941 0.17634 0.0
C761 C 0.08112 0.42698 0.30386 0.0
C762 C 0.10796 0.57569 0.17126 0.0
C763 C 0.10552 0.55447 0.17598 0.0
C764 C 0.08776 0.51498 0.28039 0.0
C765 C 0.08871 0.45787 0.24409 0.0
C766 C 0.08767 0.48058 0.23606 0.0
C767 C 0.08987 0.54613 0.21287 0.0
C768 C 0.08821 0.52365 0.22075 0.0
H769 H 0.1104 0.41572 0.17737 0.0
H770 H 0.10779 0.45259 0.16289 0.0
H771 H 0.08822 0.48759 0.33471 0.0
H772 H 0.06762 0.5904 0.26183 0.0
H773 H 0.06404 0.5533 0.27203 0.0
C774 C 0.5732 0.0907 0.56166 0.0
C775 C 0.58604 0.09457 0.51049 0.0
C776 C 0.55193 0.08938 0.55411 0.0
C777 C 0.51086 0.10585 0.44662 0.0
H778 H 0.47719 0.06964 0.5466 0.0
C779 C 0.42366 0.11698 0.46731 0.0
C780 C 0.41104 0.09955 0.47055 0.0
C781 C 0.44497 0.11507 0.46931 0.0
C782 C 0.48636 0.07968 0.51773 0.0
H783 H 0.5864 0.09971 0.41085 0.0
H784 H 0.54955 0.0966 0.39745 0.0
H785 H 0.51444 0.06766 0.55426 0.0
H786 H 0.41089 0.06642 0.47775 0.0
H787 H 0.44822 0.06301 0.48028 0.0
H788 H 0.48287 0.1176 0.40917 0.0
C789 C 0.55586 0.09499 0.4437 0.0
C790 C 0.50773 0.07873 0.52273 0.0
C791 C 0.57709 0.09645 0.4513 0.0
C792 C 0.42023 0.08013 0.47557 0.0
C793 C 0.4416 0.0782 0.47722 0.0
C794 C 0.48953 0.10672 0.44138 0.0
C795 C 0.54297 0.0918 0.49513 0.0
C796 C 0.52025 0.09194 0.48767 0.0
C797 C 0.45424 0.09567 0.47429 0.0
C798 C 0.47698 0.09384 0.47741 0.0
H799 H 0.57956 0.08892 0.6078 0.0
H800 H 0.5425 0.08709 0.59489 0.0
H801 H 0.51995 0.11645 0.41942 0.0
H802 H 0.41705 0.13219 0.46478 0.0
H803 H 0.45416 0.12889 0.46832 0.0
C804 C 0.88787 0.57248 0.79366 0.0
C805 C 0.90055 0.58609 0.76036 0.0
C806 C 0.89087 0.55132 0.78997 0.0
C807 C 0.90846 0.51126 0.6881 0.0
H808 H 0.91461 0.47849 0.83715 0.0
C809 C 0.91924 0.42339 0.67474 0.0
C810 C 0.9099 0.41156 0.72124 0.0
C811 C 0.92023 0.44475 0.6803 0.0
C812 C 0.91261 0.48731 0.795 0.0
H813 H 0.92666 0.58772 0.69776 0.0
H814 H 0.93115 0.55068 0.68928 0.0
H815 H 0.9117 0.51565 0.84541 0.0
H816 H 0.89395 0.41266 0.80933 0.0
H817 H 0.89486 0.44978 0.81808 0.0
H818 H 0.90826 0.48309 0.63758 0.0
C819 C 0.91901 0.55662 0.71852 0.0
C820 C 0.9111 0.50862 0.79987 0.0
C821 C 0.9163 0.57784 0.72316 0.0
C822 C 0.90157 0.42142 0.77333 0.0
C823 C 0.90221 0.44274 0.77838 0.0
C824 C 0.90955 0.48991 0.68322 0.0
C825 C 0.90634 0.54321 0.75198 0.0
C826 C 0.9089 0.52075 0.74652 0.0
C827 C 0.91151 0.45476 0.73192 0.0
C828 C 0.91148 0.4776 0.73668 0.0
H829 H 0.87527 0.57808 0.82164 0.0
H830 H 0.88076 0.54123 0.81565 0.0
H831 H 0.9066 0.52033 0.64631 0.0
H832 H 0.92584 0.41609 0.63421 0.0
H833 H 0.92785 0.45336 0.64407 0.0
C834 C 0.58168 0.90204 0.89762 0.0
C835 C 0.59284 0.90305 0.95345 0.0
C836 C 0.56022 0.90223 0.8982 0.0
C837 C 0.51694 0.88983 0.00122 0.0
H838 H 0.48425 0.91858 0.87848 0.0
C839 C 0.43058 0.87496 0.97655 0.0
C840 C 0.41772 0.8921 0.96947 0.0
C841 C 0.45183 0.87697 0.97177 0.0
C842 C 0.49318 0.91058 0.9133 0.0
H843 H 0.59009 0.90533 0.05365 0.0
H844 H 0.5528 0.90614 0.05448 0.0
H845 H 0.52163 0.92186 0.87686 0.0
H846 H 0.41711 0.92473 0.95046 0.0
H847 H 0.45435 0.92827 0.9422 0.0
H848 H 0.48863 0.87874 0.03823 0.0
C849 C 0.56062 0.90497 0.01027 0.0
C850 C 0.51458 0.9123 0.91202 0.0
C851 C 0.58203 0.90479 0.00969 0.0
C852 C 0.4266 0.91122 0.95576 0.0
C853 C 0.44792 0.91324 0.951 0.0
C854 C 0.49562 0.88807 0.0024 0.0
C855 C 0.54945 0.90337 0.95465 0.0
C856 C 0.5267 0.90194 0.95603 0.0
C857 C 0.46078 0.89617 0.9598 0.0
C858 C 0.48347 0.89835 0.95837 0.0
H859 H 0.58954 0.90086 0.85347 0.0
H860 H 0.55207 0.90085 0.85457 0.0
H861 H 0.52581 0.88142 0.0353 0.0
H862 H 0.42422 0.85992 0.98573 0.0
H863 H 0.46127 0.86343 0.97742 0.0
loop_
_geom_bond_atom_site_label_1
_geom_bond_atom_site_label_2
_geom_bond_distance
_geom_bond_site_symmetry_2
_ccdc_geom_bond_type
C0 C1 1.351 . S
C0 N3 1.368 . S
C0 H5 0.931 . S
C1 C0 1.351 . S
C1 N2 1.367 1_554 S
C1 H29 0.934 . S
N2 C1 1.367 1_556 S
N2 C4 1.327 1_556 S
N3 C0 1.368 . S
N3 C4 1.321 . S
N3 Co6 2.135 . S
C4 N2 1.327 1_554 S
C4 N3 1.321 . S
C4 H28 0.930 . S
H5 C0 0.931 . S
Co6 N3 2.135 . S
Co6 N9 2.121 . S
Co6 O14 2.055 . S
Co6 O17 2.039 . S
Co6 N20 2.140 . S
C7 O8 1.227 . S
C7 O17 1.265 . S
O8 C7 1.227 . S
N9 Co6 2.121 . S
N9 C11 1.375 . S
N9 C12 1.313 . S
C10 C11 1.338 . S
C10 N13 1.377 . S
C10 H30 0.930 . S
C11 N9 1.375 . S
C11 C10 1.338 . S
C11 H15 0.931 . S
C12 N9 1.313 . S
C12 N13 1.344 . S
C12 H16 0.930 . S
N13 C10 1.377 . S
N13 C12 1.344 . S
O14 Co6 2.055 . S
O14 C18 1.253 . S
H15 C11 0.931 . S
H16 C12 0.930 . S
O17 Co6 2.039 . S
O17 C7 1.265 . S
C18 O14 1.253 . S
C18 O19 1.227 . S
O19 C18 1.227 . S
N20 Co6 2.140 . S
N20 C23 1.346 . S
N20 C24 1.345 . S
C21 C22 1.387 . S
C21 C25 1.391 . S
C22 C21 1.387 . S
C22 C23 1.369 . S
C22 H31 0.929 . S
C23 N20 1.346 . S
C23 C22 1.369 . S
C23 H26 0.928 . S
C24 N20 1.345 . S
C24 C25 1.371 . S
C24 H27 0.931 . S
C25 C21 1.391 . S
C25 C24 1.371 . S
C25 H32 0.930 . S
H26 C23 0.928 . S
H27 C24 0.931 . S
H28 C4 0.930 . S
H29 C1 0.934 . S
H30 C10 0.930 . S
H31 C22 0.929 . S
H32 C25 0.930 . S
C33 C34 1.351 . S
C33 N36 1.368 . S
C33 H38 0.931 . S
C34 C33 1.351 . S
C34 N35 1.373 . S
C34 H62 0.930 . S
N35 C34 1.373 . S
N35 C37 1.340 . S
N36 C33 1.368 . S
N36 C37 1.321 . S
N36 Co39 2.135 . S
C37 N35 1.340 . S
C37 N36 1.321 . S
C37 H61 0.930 . S
H38 C33 0.931 . S
Co39 N36 2.135 . S
Co39 N42 2.121 . S
Co39 O47 2.055 . S
Co39 O50 2.039 . S
Co39 N53 2.140 . S
C40 O41 1.227 . S
C40 O50 1.265 . S
O41 C40 1.227 . S
N42 Co39 2.121 . S
N42 C44 1.375 . S
N42 C45 1.313 . S
C43 C44 1.338 . S
C43 N46 1.377 . S
C43 H63 0.930 . S
C44 N42 1.375 . S
C44 C43 1.338 . S
C44 H48 0.931 . S
C45 N42 1.313 . S
C45 N46 1.344 . S
C45 H49 0.930 . S
N46 C43 1.377 . S
N46 C45 1.344 . S
O47 Co39 2.055 . S
O47 C51 1.253 . S
H48 C44 0.931 . S
H49 C45 0.930 . S
O50 Co39 2.039 . S
O50 C40 1.265 . S
C51 O47 1.253 . S
C51 O52 1.227 . S
O52 C51 1.227 . S
N53 Co39 2.140 . S
N53 C56 1.346 . S
N53 C57 1.345 . S
C54 C55 1.387 . S
C54 C58 1.391 . S
C55 C54 1.387 . S
C55 C56 1.369 . S
C55 H64 0.929 . S
C56 N53 1.346 . S
C56 C55 1.369 . S
C56 H59 0.928 . S
C57 N53 1.345 . S
C57 C58 1.371 . S
C57 H60 0.931 . S
C58 C54 1.391 . S
C58 C57 1.371 . S
C58 H65 0.930 . S
H59 C56 0.928 . S
H60 C57 0.931 . S
H61 C37 0.930 . S
H62 C34 0.930 . S
H63 C43 0.930 . S
H64 C55 0.929 . S
H65 C58 0.930 . S
C66 C67 1.351 . S
C66 N69 1.368 . S
C66 H71 0.931 . S
C67 C66 1.351 . S
C67 N68 1.373 . S
C67 H95 0.930 . S
N68 C67 1.373 . S
N68 C70 1.340 . S
N69 C66 1.368 . S
N69 C70 1.321 . S
N69 Co72 2.135 . S
C70 N68 1.340 . S
C70 N69 1.321 . S
C70 H94 0.930 . S
H71 C66 0.931 . S
Co72 N69 2.135 . S
Co72 N75 2.121 . S
Co72 O80 2.055 . S
Co72 O83 2.039 . S
Co72 N86 2.140 . S
C73 O74 1.227 . S
C73 O83 1.265 . S
O74 C73 1.227 . S
N75 Co72 2.121 . S
N75 C77 1.375 . S
N75 C78 1.313 . S
C76 C77 1.338 . S
C76 N79 1.377 . S
C76 H96 0.930 . S
C77 N75 1.375 . S
C77 C76 1.338 . S
C77 H81 0.931 . S
C78 N75 1.313 . S
C78 N79 1.344 . S
C78 H82 0.930 . S
N79 C76 1.377 . S
N79 C78 1.344 . S
O80 Co72 2.055 . S
O80 C84 1.253 . S
H81 C77 0.931 . S
H82 C78 0.930 . S
O83 Co72 2.039 . S
O83 C73 1.265 . S
C84 O80 1.253 . S
C84 O85 1.227 . S
O85 C84 1.227 . S
N86 Co72 2.140 . S
N86 C89 1.346 . S
N86 C90 1.345 . S
C87 C88 1.387 . S
C87 C91 1.391 . S
C88 C87 1.387 . S
C88 C89 1.369 . S
C88 H97 0.929 . S
C89 N86 1.346 . S
C89 C88 1.369 . S
C89 H92 0.928 . S
C90 N86 1.345 . S
C90 C91 1.371 . S
C90 H93 0.931 . S
C91 C87 1.391 . S
C91 C90 1.371 . S
C91 H98 0.930 . S
H92 C89 0.928 . S
H93 C90 0.931 . S
H94 C70 0.930 . S
H95 C67 0.930 . S
H96 C76 0.930 . S
H97 C88 0.929 . S
H98 C91 0.930 . S
C99 C100 1.351 . S
C99 N102 1.368 . S
C99 H104 0.931 . S
C100 C99 1.351 . S
C100 N101 1.373 . S
C100 H128 0.930 . S
N101 C100 1.373 . S
N101 C103 1.340 . S
N102 C99 1.368 . S
N102 C103 1.321 . S
N102 Co105 2.135 . S
C103 N101 1.340 . S
C103 N102 1.321 . S
C103 H127 0.930 . S
H104 C99 0.931 . S
Co105 N102 2.135 . S
Co105 N108 2.121 1_556 S
Co105 O113 2.055 . S
Co105 O116 2.039 . S
Co105 N119 2.140 . S
C106 O107 1.227 . S
C106 O116 1.265 . S
O107 C106 1.227 . S
N108 Co105 2.121 1_554 S
N108 C110 1.375 . S
N108 C111 1.313 . S
C109 C110 1.338 . S
C109 N112 1.377 . S
C109 H129 0.930 . S
C110 N108 1.375 . S
C110 C109 1.338 . S
C110 H114 0.931 . S
C111 N108 1.313 . S
C111 N112 1.344 . S
C111 H115 0.930 . S
N112 C109 1.377 . S
N112 C111 1.344 . S
O113 Co105 2.055 . S
O113 C117 1.253 . S
H114 C110 0.931 . S
H115 C111 0.930 . S
O116 Co105 2.039 . S
O116 C106 1.265 . S
C117 O113 1.253 . S
C117 O118 1.227 . S
O118 C117 1.227 . S
N119 Co105 2.140 . S
N119 C122 1.346 . S
N119 C123 1.345 . S
C120 C121 1.387 . S
C120 C124 1.391 1_556 S
C121 C120 1.387 . S
C121 C122 1.369 . S
C121 H130 0.929 . S
C122 N119 1.346 . S
C122 C121 1.369 . S
C122 H125 0.928 . S
C123 N119 1.345 . S
C123 C124 1.371 1_556 S
C123 H126 0.931 1_556 S
C124 C120 1.391 1_554 S
C124 C123 1.371 1_554 S
C124 H131 0.930 . S
H125 C122 0.928 . S
H126 C123 0.931 1_554 S
H127 C103 0.930 . S
H128 C100 0.930 . S
H129 C109 0.930 . S
H130 C121 0.929 . S
H131 C124 0.930 . S
C132 C133 1.351 . S
C132 N135 1.368 . S
C132 H137 0.931 . S
C133 C132 1.351 . S
C133 N134 1.373 . S
C133 H161 0.930 . S
N134 C133 1.373 . S
N134 C136 1.340 . S
N135 C132 1.368 . S
N135 C136 1.321 . S
N135 Co138 2.135 . S
C136 N134 1.340 . S
C136 N135 1.321 . S
C136 H160 0.930 . S
H137 C132 0.931 . S
Co138 N135 2.135 . S
Co138 N141 2.121 . S
Co138 O146 2.055 . S
Co138 O149 2.039 . S
Co138 N152 2.140 . S
C139 O140 1.227 . S
C139 O149 1.265 . S
O140 C139 1.227 . S
N141 Co138 2.121 . S
N141 C143 1.375 . S
N141 C144 1.313 . S
C142 C143 1.338 . S
C142 N145 1.377 . S
C142 H162 0.930 . S
C143 N141 1.375 . S
C143 C142 1.338 . S
C143 H147 0.931 . S
C144 N141 1.313 . S
C144 N145 1.344 . S
C144 H148 0.930 . S
N145 C142 1.377 . S
N145 C144 1.344 . S
O146 Co138 2.055 . S
O146 C150 1.253 . S
H147 C143 0.931 . S
H148 C144 0.930 . S
O149 Co138 2.039 . S
O149 C139 1.265 . S
C150 O146 1.253 . S
C150 O151 1.227 . S
O151 C150 1.227 . S
N152 Co138 2.140 . S
N152 C155 1.346 . S
N152 C156 1.345 . S
C153 C154 1.387 . S
C153 C157 1.391 . S
C154 C153 1.387 . S
C154 C155 1.369 . S
C154 H163 0.929 . S
C155 N152 1.346 . S
C155 C154 1.369 . S
C155 H158 0.928 . S
C156 N152 1.345 . S
C156 C157 1.371 . S
C156 H159 0.931 . S
C157 C153 1.391 . S
C157 C156 1.371 . S
C157 H164 0.930 . S
H158 C155 0.928 . S
H159 C156 0.931 . S
H160 C136 0.930 . S
H161 C133 0.930 . S
H162 C142 0.930 . S
H163 C154 0.929 . S
H164 C157 0.930 . S
C165 C166 1.351 . S
C165 N168 1.368 . S
C165 H170 0.931 . S
C166 C165 1.351 . S
C166 N167 1.373 . S
C166 H194 0.930 . S
N167 C166 1.373 . S
N167 C169 1.340 . S
N168 C165 1.368 . S
N168 C169 1.321 . S
N168 Co171 2.135 . S
C169 N167 1.340 . S
C169 N168 1.321 . S
C169 H193 0.930 . S
H170 C165 0.931 . S
Co171 N168 2.135 . S
Co171 N174 2.121 . S
Co171 O179 2.055 . S
Co171 O182 2.039 . S
Co171 N185 2.140 . S
C172 O173 1.227 . S
C172 O182 1.265 . S
O173 C172 1.227 . S
N174 Co171 2.121 . S
N174 C176 1.375 . S
N174 C177 1.313 . S
C175 C176 1.338 . S
C175 N178 1.377 . S
C175 H195 0.930 . S
C176 N174 1.375 . S
C176 C175 1.338 . S
C176 H180 0.931 . S
C177 N174 1.313 . S
C177 N178 1.344 . S
C177 H181 0.930 . S
N178 C175 1.377 . S
N178 C177 1.344 . S
O179 Co171 2.055 . S
O179 C183 1.253 . S
H180 C176 0.931 . S
H181 C177 0.930 . S
O182 Co171 2.039 . S
O182 C172 1.265 . S
C183 O179 1.253 . S
C183 O184 1.227 . S
O184 C183 1.227 . S
N185 Co171 2.140 . S
N185 C188 1.346 . S
N185 C189 1.345 . S
C186 C187 1.387 . S
C186 C190 1.391 . S
C187 C186 1.387 . S
C187 C188 1.369 . S
C187 H196 0.929 . S
C188 N185 1.346 . S
C188 C187 1.369 . S
C188 H191 0.928 . S
C189 N185 1.345 . S
C189 C190 1.371 . S
C189 H192 0.931 . S
C190 C186 1.391 . S
C190 C189 1.371 . S
C190 H197 0.930 . S
H191 C188 0.928 . S
H192 C189 0.931 . S
H193 C169 0.930 . S
H194 C166 0.930 . S
H195 C175 0.930 . S
H196 C187 0.929 . S
H197 C190 0.930 . S
C198 C199 1.351 . S
C198 N201 1.368 . S
C198 H203 0.931 . S
C199 C198 1.351 . S
C199 N200 1.367 1_556 S
C199 H227 0.934 . S
N200 C199 1.367 1_554 S
N200 C202 1.327 1_554 S
N201 C198 1.368 . S
N201 C202 1.321 . S
N201 Co204 2.135 . S
C202 N200 1.327 1_556 S
C202 N201 1.321 . S
C202 H226 0.930 . S
H203 C198 0.931 . S
Co204 N201 2.135 . S
Co204 N207 2.121 . S
Co204 O212 2.055 . S
Co204 O215 2.039 . S
Co204 N218 2.140 . S
C205 O206 1.227 . S
C205 O215 1.265 . S
O206 C205 1.227 . S
N207 Co204 2.121 . S
N207 C209 1.375 . S
N207 C210 1.313 . S
C208 C209 1.338 . S
C208 N211 1.377 . S
C208 H228 0.930 . S
C209 N207 1.375 . S
C209 C208 1.338 . S
C209 H213 0.931 . S
C210 N207 1.313 . S
C210 N211 1.344 . S
C210 H214 0.930 . S
N211 C208 1.377 . S
N211 C210 1.344 . S
O212 Co204 2.055 . S
O212 C216 1.253 . S
H213 C209 0.931 . S
H214 C210 0.930 . S
O215 Co204 2.039 . S
O215 C205 1.265 . S
C216 O212 1.253 . S
C216 O217 1.227 . S
O217 C216 1.227 . S
N218 Co204 2.140 . S
N218 C221 1.346 . S
N218 C222 1.345 . S
C219 C220 1.387 . S
C219 C223 1.391 . S
C220 C219 1.387 . S
C220 C221 1.369 . S
C220 H229 0.929 . S
C221 N218 1.346 . S
C221 C220 1.369 . S
C221 H224 0.928 . S
C222 N218 1.345 . S
C222 C223 1.371 . S
C222 H225 0.931 . S
C223 C219 1.391 . S
C223 C222 1.371 . S
C223 H230 0.930 . S
H224 C221 0.928 . S
H225 C222 0.931 . S
H226 C202 0.930 . S
H227 C199 0.934 . S
H228 C208 0.930 . S
H229 C220 0.929 . S
H230 C223 0.930 . S
C231 C232 1.351 . S
C231 N234 1.368 . S
C231 H236 0.931 . S
C232 C231 1.351 . S
C232 N233 1.373 . S
C232 H260 0.930 . S
N233 C232 1.373 . S
N233 C235 1.340 . S
N234 C231 1.368 . S
N234 C235 1.321 . S
N234 Co237 2.135 . S
C235 N233 1.340 . S
C235 N234 1.321 . S
C235 H259 0.930 . S
H236 C231 0.931 . S
Co237 N234 2.135 . S
Co237 N240 2.121 1_554 S
Co237 O245 2.055 . S
Co237 O248 2.039 . S
Co237 N251 2.140 . S
C238 O239 1.227 . S
C238 O248 1.265 . S
O239 C238 1.227 . S
N240 Co237 2.121 1_556 S
N240 C242 1.375 . S
N240 C243 1.313 . S
C241 C242 1.338 . S
C241 N244 1.377 . S
C241 H261 0.930 . S
C242 N240 1.375 . S
C242 C241 1.338 . S
C242 H246 0.931 . S
C243 N240 1.313 . S
C243 N244 1.344 . S
C243 H247 0.930 . S
N244 C241 1.377 . S
N244 C243 1.344 . S
O245 Co237 2.055 . S
O245 C249 1.253 . S
H246 C242 0.931 . S
H247 C243 0.930 . S
O248 Co237 2.039 . S
O248 C238 1.265 . S
C249 O245 1.253 . S
C249 O250 1.227 . S
O250 C249 1.227 . S
N251 Co237 2.140 . S
N251 C254 1.346 . S
N251 C255 1.345 . S
C252 C253 1.387 . S
C252 C256 1.391 1_554 S
C253 C252 1.387 . S
C253 C254 1.369 . S
C253 H262 0.929 . S
C254 N251 1.346 . S
C254 C253 1.369 . S
C254 H257 0.928 . S
C255 N251 1.345 . S
C255 C256 1.371 1_554 S
C255 H258 0.931 1_554 S
C256 C252 1.391 1_556 S
C256 C255 1.371 1_556 S
C256 H263 0.930 . S
H257 C254 0.928 . S
H258 C255 0.931 1_556 S
H259 C235 0.930 . S
H260 C232 0.930 . S
H261 C241 0.930 . S
H262 C253 0.929 . S
H263 C256 0.930 . S
C264 C265 1.349 . S
C264 C266 1.327 . S
C264 H289 0.950 . S
C265 C264 1.349 . S
C265 C281 1.349 . S
C266 C264 1.327 . S
C266 C285 1.429 . S
C266 H290 0.950 . S
C267 C284 1.574 . S
C267 C286 1.368 . S
C267 H291 0.949 . S
H268 C272 0.949 . S
C269 C270 1.349 . S
C269 C271 1.327 . S
C269 H292 0.950 . S
C270 C269 1.349 . S
C270 C282 1.349 . S
C271 C269 1.327 . S
C271 C287 1.429 . S
C271 H293 0.950 . S
C272 H268 0.949 . S
C272 C280 1.574 . S
C272 C288 1.368 . S
H273 C281 0.950 . S
H274 C279 0.950 . S
H275 C280 0.949 . S
H276 C282 0.950 . S
H277 C283 0.950 . S
H278 C284 0.949 . S
C279 H274 0.950 . S
C279 C281 1.327 . S
C279 C285 1.429 . S
C280 C272 1.574 . S
C280 H275 0.949 . S
C280 C286 1.368 . S
C281 C265 1.349 . S
C281 H273 0.950 . S
C281 C279 1.327 . S
C282 C270 1.349 . S
C282 H276 0.950 . S
C282 C283 1.327 . S
C283 H277 0.950 . S
C283 C282 1.327 . S
C283 C287 1.429 . S
C284 C267 1.574 . S
C284 H278 0.949 . S
C284 C288 1.368 . S
C285 C266 1.429 . S
C285 C279 1.429 . S
C285 C286 1.523 . S
C286 C267 1.368 . S
C286 C280 1.368 . S
C286 C285 1.523 . S
C287 C271 1.429 . S
C287 C283 1.429 . S
C287 C288 1.523 . S
C288 C272 1.368 . S
C288 C284 1.368 . S
C288 C287 1.523 . S
H289 C264 0.950 . S
H290 C266 0.950 . S
H291 C267 0.949 . S
H292 C269 0.950 . S
H293 C271 0.950 . S
C294 C295 1.349 . S
C294 C296 1.327 . S
C294 H319 0.950 . S
C295 C294 1.349 . S
C295 C311 1.349 . S
C296 C294 1.327 . S
C296 C315 1.429 . S
C296 H320 0.950 . S
C297 C314 1.574 . S
C297 C316 1.368 . S
C297 H321 0.949 . S
H298 C302 0.949 . S
C299 C300 1.349 . S
C299 C301 1.327 . S
C299 H322 0.950 . S
C300 C299 1.349 . S
C300 C312 1.349 . S
C301 C299 1.327 . S
C301 C317 1.429 . S
C301 H323 0.950 . S
C302 H298 0.949 . S
C302 C310 1.574 . S
C302 C318 1.368 . S
H303 C311 0.950 . S
H304 C309 0.950 . S
H305 C310 0.949 . S
H306 C312 0.950 . S
H307 C313 0.950 . S
H308 C314 0.949 . S
C309 H304 0.950 . S
C309 C311 1.327 . S
C309 C315 1.429 . S
C310 C302 1.574 . S
C310 H305 0.949 . S
C310 C316 1.368 . S
C311 C295 1.349 . S
C311 H303 0.950 . S
C311 C309 1.327 . S
C312 C300 1.349 . S
C312 H306 0.950 . S
C312 C313 1.327 . S
C313 H307 0.950 . S
C313 C312 1.327 . S
C313 C317 1.429 . S
C314 C297 1.574 . S
C314 H308 0.949 . S
C314 C318 1.368 . S
C315 C296 1.429 . S
C315 C309 1.429 . S
C315 C316 1.523 . S
C316 C297 1.368 . S
C316 C310 1.368 . S
C316 C315 1.523 . S
C317 C301 1.429 . S
C317 C313 1.429 . S
C317 C318 1.523 . S
C318 C302 1.368 . S
C318 C314 1.368 . S
C318 C317 1.523 . S
H319 C294 0.950 . S
H320 C296 0.950 . S
H321 C297 0.949 . S
H322 C299 0.950 . S
H323 C301 0.950 . S
C324 C325 1.349 . S
C324 C326 1.327 . S
C324 H349 0.950 . S
C325 C324 1.349 . S
C325 C341 1.349 . S
C326 C324 1.327 . S
C326 C345 1.429 . S
C326 H350 0.950 . S
C327 C344 1.574 . S
C327 C346 1.368 . S
C327 H351 0.949 . S
H328 C332 0.949 . S
C329 C330 1.349 . S
C329 C331 1.327 1_554 S
C329 H352 0.950 . S
C330 C329 1.349 . S
C330 C342 1.349 1_554 S
C331 C329 1.327 1_556 S
C331 C347 1.429 . S
C331 H353 0.954 . S
C332 H328 0.949 . S
C332 C340 1.574 . S
C332 C348 1.368 . S
H333 C341 0.950 . S
H334 C339 0.950 . S
H335 C340 0.949 . S
H336 C342 0.950 . S
H337 C343 0.950 . S
H338 C344 0.949 . S
C339 H334 0.950 . S
C339 C341 1.327 . S
C339 C345 1.429 . S
C340 C332 1.574 . S
C340 H335 0.949 . S
C340 C346 1.368 . S
C341 C325 1.349 . S
C341 H333 0.950 . S
C341 C339 1.327 . S
C342 C330 1.349 1_556 S
C342 H336 0.950 . S
C342 C343 1.327 . S
C343 H337 0.950 . S
C343 C342 1.327 . S
C343 C347 1.429 . S
C344 C327 1.574 . S
C344 H338 0.949 . S
C344 C348 1.368 . S
C345 C326 1.429 . S
C345 C339 1.429 . S
C345 C346 1.523 . S
C346 C327 1.368 . S
C346 C340 1.368 . S
C346 C345 1.523 . S
C347 C331 1.429 . S
C347 C343 1.429 . S
C347 C348 1.523 . S
C348 C332 1.368 . S
C348 C344 1.368 . S
C348 C347 1.523 . S
H349 C324 0.950 . S
H350 C326 0.950 . S
H351 C327 0.949 . S
H352 C329 0.950 . S
H353 C331 0.954 . S
C354 C355 1.349 . S
C354 C356 1.327 . S
C354 H379 0.950 . S
C355 C354 1.349 . S
C355 C371 1.349 . S
C356 C354 1.327 . S
C356 C375 1.429 . S
C356 H380 0.950 . S
C357 C374 1.574 . S
C357 C376 1.368 . S
C357 H381 0.949 . S
H358 C362 0.949 . S
C359 C360 1.349 1_554 S
C359 C361 1.327 . S
C359 H382 0.950 . S
C360 C359 1.349 1_556 S
C360 C372 1.349 . S
C361 C359 1.327 . S
C361 C377 1.429 . S
C361 H383 0.950 . S
C362 H358 0.949 . S
C362 C370 1.574 . S
C362 C378 1.368 . S
H363 C371 0.950 . S
H364 C369 0.950 . S
H365 C370 0.949 . S
H366 C372 0.950 . S
H367 C373 0.950 . S
H368 C374 0.949 . S
C369 H364 0.950 . S
C369 C371 1.327 . S
C369 C375 1.429 . S
C370 C362 1.574 . S
C370 H365 0.949 . S
C370 C376 1.368 . S
C371 C355 1.349 . S
C371 H363 0.950 . S
C371 C369 1.327 . S
C372 C360 1.349 . S
C372 H366 0.950 . S
C372 C373 1.327 . S
C373 H367 0.950 . S
C373 C372 1.327 . S
C373 C377 1.429 1_556 S
C374 C357 1.574 . S
C374 H368 0.949 . S
C374 C378 1.368 . S
C375 C356 1.429 . S
C375 C369 1.429 . S
C375 C376 1.523 . S
C376 C357 1.368 . S
C376 C370 1.368 . S
C376 C375 1.523 . S
C377 C361 1.429 . S
C377 C373 1.429 1_554 S
C377 C378 1.523 . S
C378 C362 1.368 . S
C378 C374 1.368 . S
C378 C377 1.523 . S
H379 C354 0.950 . S
H380 C356 0.950 . S
H381 C357 0.949 . S
H382 C359 0.950 . S
H383 C361 0.950 . S
C384 C385 1.349 . S
C384 C386 1.327 . S
C384 H409 0.950 . S
C385 C384 1.349 . S
C385 C401 1.349 . S
C386 C384 1.327 . S
C386 C405 1.429 . S
C386 H410 0.950 . S
C387 C404 1.574 . S
C387 C406 1.368 . S
C387 H411 0.949 . S
H388 C392 0.949 . S
C389 C390 1.349 . S
C389 C391 1.327 . S
C389 H412 0.950 . S
C390 C389 1.349 . S
C390 C402 1.349 . S
C391 C389 1.327 . S
C391 C407 1.429 . S
C391 H413 0.950 . S
C392 H388 0.949 . S
C392 C400 1.574 . S
C392 C408 1.368 . S
H393 C401 0.950 . S
H394 C399 0.950 . S
H395 C400 0.949 . S
H396 C402 0.950 . S
H397 C403 0.950 . S
H398 C404 0.949 . S
C399 H394 0.950 . S
C399 C401 1.327 . S
C399 C405 1.429 . S
C400 C392 1.574 . S
C400 H395 0.949 . S
C400 C406 1.368 . S
C401 C385 1.349 . S
C401 H393 0.950 . S
C401 C399 1.327 . S
C402 C390 1.349 . S
C402 H396 0.950 . S
C402 C403 1.327 . S
C403 H397 0.950 . S
C403 C402 1.327 . S
C403 C407 1.429 . S
C404 C387 1.574 . S
C404 H398 0.949 . S
C404 C408 1.368 . S
C405 C386 1.429 . S
C405 C399 1.429 . S
C405 C406 1.523 . S
C406 C387 1.368 . S
C406 C400 1.368 . S
C406 C405 1.523 . S
C407 C391 1.429 . S
C407 C403 1.429 . S
C407 C408 1.523 . S
C408 C392 1.368 . S
C408 C404 1.368 . S
C408 C407 1.523 . S
H409 C384 0.950 . S
H410 C386 0.950 . S
H411 C387 0.949 . S
H412 C389 0.950 . S
H413 C391 0.950 . S
C414 C415 1.349 . S
C414 C416 1.327 . S
C414 H439 0.950 . S
C415 C414 1.349 . S
C415 C431 1.349 . S
C416 C414 1.327 . S
C416 C435 1.429 . S
C416 H440 0.950 . S
C417 C434 1.574 . S
C417 C436 1.368 1_556 S
C417 H441 0.957 . S
H418 C422 0.949 . S
C419 C420 1.349 . S
C419 C421 1.327 . S
C419 H442 0.950 . S
C420 C419 1.349 . S
C420 C432 1.349 . S
C421 C419 1.327 . S
C421 C437 1.429 . S
C421 H443 0.950 . S
C422 H418 0.949 . S
C422 C430 1.574 . S
C422 C438 1.368 . S
H423 C431 0.950 . S
H424 C429 0.950 . S
H425 C430 0.949 1_554 S
H426 C432 0.950 . S
H427 C433 0.950 . S
H428 C434 0.949 . S
C429 H424 0.950 . S
C429 C431 1.327 . S
C429 C435 1.429 . S
C430 C422 1.574 . S
C430 H425 0.949 1_556 S
C430 C436 1.368 1_556 S
C431 C415 1.349 . S
C431 H423 0.950 . S
C431 C429 1.327 . S
C432 C420 1.349 . S
C432 H426 0.950 . S
C432 C433 1.327 . S
C433 H427 0.950 . S
C433 C432 1.327 . S
C433 C437 1.429 . S
C434 C417 1.574 . S
C434 H428 0.949 . S
C434 C438 1.368 . S
C435 C416 1.429 . S
C435 C429 1.429 . S
C435 C436 1.523 . S
C436 C417 1.368 1_554 S
C436 C430 1.368 1_554 S
C436 C435 1.523 . S
C437 C421 1.429 . S
C437 C433 1.429 . S
C437 C438 1.523 . S
C438 C422 1.368 . S
C438 C434 1.368 . S
C438 C437 1.523 . S
H439 C414 0.950 . S
H440 C416 0.950 . S
H441 C417 0.957 . S
H442 C419 0.950 . S
H443 C421 0.950 . S
C444 C445 1.349 . S
C444 C446 1.327 1_556 S
C444 H469 0.950 . S
C445 C444 1.349 . S
C445 C461 1.349 . S
C446 C444 1.327 1_554 S
C446 C465 1.429 . S
C446 H470 0.950 . S
C447 C464 1.574 . S
C447 C466 1.368 . S
C447 H471 0.949 . S
H448 C452 0.949 . S
C449 C450 1.349 . S
C449 C451 1.327 . S
C449 H472 0.950 . S
C450 C449 1.349 . S
C450 C462 1.349 . S
C451 C449 1.327 . S
C451 C467 1.429 . S
C451 H473 0.950 . S
C452 H448 0.949 . S
C452 C460 1.574 . S
C452 C468 1.368 . S
H453 C461 0.950 . S
H454 C459 0.950 . S
H455 C460 0.949 . S
H456 C462 0.950 . S
H457 C463 0.950 . S
H458 C464 0.949 . S
C459 H454 0.950 . S
C459 C461 1.327 1_554 S
C459 C465 1.429 . S
C460 C452 1.574 . S
C460 H455 0.949 . S
C460 C466 1.368 . S
C461 C445 1.349 . S
C461 H453 0.950 . S
C461 C459 1.327 1_556 S
C462 C450 1.349 . S
C462 H456 0.950 . S
C462 C463 1.327 . S
C463 H457 0.950 . S
C463 C462 1.327 . S
C463 C467 1.429 . S
C464 C447 1.574 . S
C464 H458 0.949 . S
C464 C468 1.368 . S
C465 C446 1.429 . S
C465 C459 1.429 . S
C465 C466 1.523 . S
C466 C447 1.368 . S
C466 C460 1.368 . S
C466 C465 1.523 . S
C467 C451 1.429 . S
C467 C463 1.429 . S
C467 C468 1.523 . S
C468 C452 1.368 . S
C468 C464 1.368 . S
C468 C467 1.523 . S
H469 C444 0.950 . S
H470 C446 0.950 . S
H471 C447 0.949 . S
H472 C449 0.950 . S
H473 C451 0.950 . S
C474 C475 1.349 . S
C474 C476 1.327 . S
C474 H499 0.950 . S
C475 C474 1.349 . S
C475 C491 1.349 . S
C476 C474 1.327 . S
C476 C495 1.429 . S
C476 H500 0.950 . S
C477 C494 1.574 . S
C477 C496 1.368 . S
C477 H501 0.949 . S
H478 C482 0.949 . S
C479 C480 1.349 . S
C479 C481 1.327 . S
C479 H502 0.950 . S
C480 C479 1.349 . S
C480 C492 1.349 . S
C481 C479 1.327 . S
C481 C497 1.429 . S
C481 H503 0.950 . S
C482 H478 0.949 . S
C482 C490 1.574 . S
C482 C498 1.368 . S
H483 C491 0.950 . S
H484 C489 0.950 . S
H485 C490 0.949 . S
H486 C492 0.950 . S
H487 C493 0.950 . S
H488 C494 0.949 . S
C489 H484 0.950 . S
C489 C491 1.327 . S
C489 C495 1.429 . S
C490 C482 1.574 . S
C490 H485 0.949 . S
C490 C496 1.368 . S
C491 C475 1.349 . S
C491 H483 0.950 . S
C491 C489 1.327 . S
C492 C480 1.349 . S
C492 H486 0.950 . S
C492 C493 1.327 . S
C493 H487 0.950 . S
C493 C492 1.327 . S
C493 C497 1.429 . S
C494 C477 1.574 . S
C494 H488 0.949 . S
C494 C498 1.368 . S
C495 C476 1.429 . S
C495 C489 1.429 . S
C495 C496 1.523 . S
C496 C477 1.368 . S
C496 C490 1.368 . S
C496 C495 1.523 . S
C497 C481 1.429 . S
C497 C493 1.429 . S
C497 C498 1.523 . S
C498 C482 1.368 . S
C498 C494 1.368 . S
C498 C497 1.523 . S
H499 C474 0.950 . S
H500 C476 0.950 . S
H501 C477 0.949 . S
H502 C479 0.950 . S
H503 C481 0.950 . S
C504 C505 1.349 . S
C504 C506 1.327 1_554 S
C504 H529 0.950 . S
C505 C504 1.349 . S
C505 C521 1.349 . S
C506 C504 1.327 1_556 S
C506 C525 1.429 . S
C506 H530 0.950 . S
C507 C524 1.574 . S
C507 C526 1.368 . S
C507 H531 0.949 . S
H508 C512 0.949 . S
C509 C510 1.349 . S
C509 C511 1.327 . S
C509 H532 0.950 . S
C510 C509 1.349 . S
C510 C522 1.349 . S
C511 C509 1.327 . S
C511 C527 1.429 . S
C511 H533 0.950 . S
C512 H508 0.949 . S
C512 C520 1.574 . S
C512 C528 1.368 . S
H513 C521 0.950 . S
H514 C519 0.950 . S
H515 C520 0.949 . S
H516 C522 0.950 . S
H517 C523 0.950 . S
H518 C524 0.949 . S
C519 H514 0.950 . S
C519 C521 1.327 1_556 S
C519 C525 1.429 . S
C520 C512 1.574 . S
C520 H515 0.949 . S
C520 C526 1.368 . S
C521 C505 1.349 . S
C521 H513 0.950 . S
C521 C519 1.327 1_554 S
C522 C510 1.349 . S
C522 H516 0.950 . S
C522 C523 1.327 . S
C523 H517 0.950 . S
C523 C522 1.327 . S
C523 C527 1.429 . S
C524 C507 1.574 . S
C524 H518 0.949 . S
C524 C528 1.368 . S
C525 C506 1.429 . S
C525 C519 1.429 . S
C525 C526 1.523 . S
C526 C507 1.368 . S
C526 C520 1.368 . S
C526 C525 1.523 . S
C527 C511 1.429 . S
C527 C523 1.429 . S
C527 C528 1.523 . S
C528 C512 1.368 . S
C528 C524 1.368 . S
C528 C527 1.523 . S
H529 C504 0.950 . S
H530 C506 0.950 . S
H531 C507 0.949 . S
H532 C509 0.950 . S
H533 C511 0.950 . S
C534 C535 1.349 . S
C534 C536 1.327 . S
C534 H559 0.950 . S
C535 C534 1.349 . S
C535 C551 1.349 . S
C536 C534 1.327 . S
C536 C555 1.429 . S
C536 H560 0.950 . S
C537 C554 1.574 . S
C537 C556 1.368 . S
C537 H561 0.949 . S
H538 C542 0.949 . S
C539 C540 1.349 . S
C539 C541 1.327 . S
C539 H562 0.950 . S
C540 C539 1.349 . S
C540 C552 1.349 . S
C541 C539 1.327 . S
C541 C557 1.429 . S
C541 H563 0.950 . S
C542 H538 0.949 . S
C542 C550 1.574 . S
C542 C558 1.368 1_554 S
H543 C551 0.950 . S
H544 C549 0.950 . S
H545 C550 0.949 . S
H546 C552 0.950 . S
H547 C553 0.950 . S
H548 C554 0.949 1_556 S
C549 H544 0.950 . S
C549 C551 1.327 . S
C549 C555 1.429 . S
C550 C542 1.574 . S
C550 H545 0.949 . S
C550 C556 1.368 . S
C551 C535 1.349 . S
C551 H543 0.950 . S
C551 C549 1.327 . S
C552 C540 1.349 . S
C552 H546 0.950 . S
C552 C553 1.327 . S
C553 H547 0.950 . S
C553 C552 1.327 . S
C553 C557 1.429 . S
C554 C537 1.574 . S
C554 H548 0.949 1_554 S
C554 C558 1.368 1_554 S
C555 C536 1.429 . S
C555 C549 1.429 . S
C555 C556 1.523 . S
C556 C537 1.368 . S
C556 C550 1.368 . S
C556 C555 1.523 . S
C557 C541 1.429 . S
C557 C553 1.429 . S
C557 C558 1.523 . S
C558 C542 1.368 1_556 S
C558 C554 1.368 1_556 S
C558 C557 1.523 . S
H559 C534 0.950 . S
H560 C536 0.950 . S
H561 C537 0.949 . S
H562 C539 0.950 . S
H563 C541 0.950 . S
C564 C565 1.349 . S
C564 C566 1.327 . S
C564 H589 0.950 . S
C565 C564 1.349 . S
C565 C581 1.349 . S
C566 C564 1.327 . S
C566 C585 1.429 . S
C566 H590 0.950 . S
C567 C584 1.574 . S
C567 C586 1.368 . S
C567 H591 0.949 . S
H568 C572 0.949 . S
C569 C570 1.349 . S
C569 C571 1.327 . S
C569 H592 0.950 . S
C570 C569 1.349 . S
C570 C582 1.349 . S
C571 C569 1.327 . S
C571 C587 1.429 . S
C571 H593 0.950 . S
C572 H568 0.949 . S
C572 C580 1.574 . S
C572 C588 1.368 . S
H573 C581 0.950 . S
H574 C579 0.950 . S
H575 C580 0.949 . S
H576 C582 0.950 . S
H577 C583 0.950 . S
H578 C584 0.949 . S
C579 H574 0.950 . S
C579 C581 1.327 . S
C579 C585 1.429 . S
C580 C572 1.574 . S
C580 H575 0.949 . S
C580 C586 1.368 . S
C581 C565 1.349 . S
C581 H573 0.950 . S
C581 C579 1.327 . S
C582 C570 1.349 . S
C582 H576 0.950 . S
C582 C583 1.327 . S
C583 H577 0.950 . S
C583 C582 1.327 . S
C583 C587 1.429 . S
C584 C567 1.574 . S
C584 H578 0.949 . S
C584 C588 1.368 . S
C585 C566 1.429 . S
C585 C579 1.429 . S
C585 C586 1.523 . S
C586 C567 1.368 . S
C586 C580 1.368 . S
C586 C585 1.523 . S
C587 C571 1.429 . S
C587 C583 1.429 . S
C587 C588 1.523 . S
C588 C572 1.368 . S
C588 C584 1.368 . S
C588 C587 1.523 . S
H589 C564 0.950 . S
H590 C566 0.950 . S
H591 C567 0.949 . S
H592 C569 0.950 . S
H593 C571 0.950 . S
C594 C595 1.349 . S
C594 C596 1.327 . S
C594 H619 0.950 . S
C595 C594 1.349 . S
C595 C611 1.349 . S
C596 C594 1.327 . S
C596 C615 1.429 . S
C596 H620 0.950 . S
C597 C614 1.574 . S
C597 C616 1.368 . S
C597 H621 0.949 . S
H598 C602 0.949 . S
C599 C600 1.349 . S
C599 C601 1.327 . S
C599 H622 0.950 . S
C600 C599 1.349 . S
C600 C612 1.349 . S
C601 C599 1.327 . S
C601 C617 1.429 . S
C601 H623 0.950 . S
C602 H598 0.949 . S
C602 C610 1.574 . S
C602 C618 1.368 . S
H603 C611 0.950 . S
H604 C609 0.950 . S
H605 C610 0.949 . S
H606 C612 0.950 . S
H607 C613 0.950 . S
H608 C614 0.949 . S
C609 H604 0.950 . S
C609 C611 1.327 . S
C609 C615 1.429 . S
C610 C602 1.574 . S
C610 H605 0.949 . S
C610 C616 1.368 . S
C611 C595 1.349 . S
C611 H603 0.950 . S
C611 C609 1.327 . S
C612 C600 1.349 . S
C612 H606 0.950 . S
C612 C613 1.327 . S
C613 H607 0.950 . S
C613 C612 1.327 . S
C613 C617 1.429 . S
C614 C597 1.574 . S
C614 H608 0.949 . S
C614 C618 1.368 . S
C615 C596 1.429 . S
C615 C609 1.429 . S
C615 C616 1.523 . S
C616 C597 1.368 . S
C616 C610 1.368 . S
C616 C615 1.523 . S
C617 C601 1.429 . S
C617 C613 1.429 . S
C617 C618 1.523 . S
C618 C602 1.368 . S
C618 C614 1.368 . S
C618 C617 1.523 . S
H619 C594 0.950 . S
H620 C596 0.950 . S
H621 C597 0.949 . S
H622 C599 0.950 . S
H623 C601 0.950 . S
C624 C625 1.349 . S
C624 C626 1.327 . S
C624 H649 0.950 . S
C625 C624 1.349 . S
C625 C641 1.349 . S
C626 C624 1.327 . S
C626 C645 1.429 . S
C626 H650 0.950 . S
C627 C644 1.574 1_455 S
C627 C646 1.368 . S
C627 H651 0.949 . S
H628 C632 0.949 . S
C629 C630 1.349 . S
C629 C631 1.327 . S
C629 H652 0.950 . S
C630 C629 1.349 . S
C630 C642 1.349 . S
C631 C629 1.327 . S
C631 C647 1.429 . S
C631 H653 0.950 . S
C632 H628 0.949 . S
C632 C640 1.574 1_655 S
C632 C648 1.368 . S
H633 C641 0.950 . S
H634 C639 0.950 . S
H635 C640 0.949 . S
H636 C642 0.950 . S
H637 C643 0.950 . S
H638 C644 0.949 . S
C639 H634 0.950 . S
C639 C641 1.327 . S
C639 C645 1.429 . S
C640 C632 1.574 1_455 S
C640 H635 0.949 . S
C640 C646 1.368 1_556 S
C641 C625 1.349 . S
C641 H633 0.950 . S
C641 C639 1.327 . S
C642 C630 1.349 . S
C642 H636 0.950 . S
C642 C643 1.327 . S
C643 H637 0.950 . S
C643 C642 1.327 . S
C643 C647 1.429 . S
C644 C627 1.574 1_655 S
C644 H638 0.949 . S
C644 C648 1.368 1_554 S
C645 C626 1.429 . S
C645 C639 1.429 . S
C645 C646 1.523 . S
C646 C627 1.368 . S
C646 C640 1.368 1_554 S
C646 C645 1.523 . S
C647 C631 1.429 . S
C647 C643 1.429 . S
C647 C648 1.523 . S
C648 C632 1.368 . S
C648 C644 1.368 1_556 S
C648 C647 1.523 . S
H649 C624 0.950 . S
H650 C626 0.950 . S
H651 C627 0.949 . S
H652 C629 0.950 . S
H653 C631 0.950 . S
C654 C655 1.349 . S
C654 C656 1.327 . S
C654 H679 0.950 . S
C655 C654 1.349 . S
C655 C671 1.349 . S
C656 C654 1.327 . S
C656 C675 1.429 . S
C656 H680 0.950 . S
C657 C674 1.574 1_565 S
C657 C676 1.368 . S
C657 H681 0.949 . S
H658 C662 0.949 . S
C659 C660 1.349 . S
C659 C661 1.327 . S
C659 H682 0.950 . S
C660 C659 1.349 . S
C660 C672 1.349 . S
C661 C659 1.327 . S
C661 C677 1.429 . S
C661 H683 0.950 . S
C662 H658 0.949 . S
C662 C670 1.574 1_545 S
C662 C678 1.368 . S
H663 C671 0.950 . S
H664 C669 0.950 . S
H665 C670 0.949 . S
H666 C672 0.950 . S
H667 C673 0.950 . S
H668 C674 0.949 . S
C669 H664 0.950 . S
C669 C671 1.327 . S
C669 C675 1.429 . S
C670 C662 1.574 1_565 S
C670 H665 0.949 . S
C670 C676 1.368 . S
C671 C655 1.349 . S
C671 H663 0.950 . S
C671 C669 1.327 . S
C672 C660 1.349 . S
C672 H666 0.950 . S
C672 C673 1.327 . S
C673 H667 0.950 . S
C673 C672 1.327 . S
C673 C677 1.429 . S
C674 C657 1.574 1_545 S
C674 H668 0.949 . S
C674 C678 1.368 . S
C675 C656 1.429 . S
C675 C669 1.429 . S
C675 C676 1.523 . S
C676 C657 1.368 . S
C676 C670 1.368 . S
C676 C675 1.523 . S
C677 C661 1.429 . S
C677 C673 1.429 . S
C677 C678 1.523 . S
C678 C662 1.368 . S
C678 C674 1.368 . S
C678 C677 1.523 . S
H679 C654 0.950 . S
H680 C656 0.950 . S
H681 C657 0.949 . S
H682 C659 0.950 . S
H683 C661 0.950 . S
C684 C685 1.349 . S
C684 C686 1.327 . S
C684 H709 0.950 . S
C685 C684 1.349 . S
C685 C701 1.349 . S
C686 C684 1.327 . S
C686 C705 1.429 . S
C686 H710 0.950 . S
C687 C704 1.574 1_455 S
C687 C706 1.368 . S
C687 H711 0.949 . S
H688 C692 0.949 . S
C689 C690 1.349 . S
C689 C691 1.327 . S
C689 H712 0.950 . S
C690 C689 1.349 . S
C690 C702 1.349 . S
C691 C689 1.327 . S
C691 C707 1.429 . S
C691 H713 0.950 . S
C692 H688 0.949 . S
C692 C700 1.574 1_655 S
C692 C708 1.368 . S
H693 C701 0.950 . S
H694 C699 0.950 . S
H695 C700 0.949 . S
H696 C702 0.950 . S
H697 C703 0.950 . S
H698 C704 0.949 . S
C699 H694 0.950 . S
C699 C701 1.327 . S
C699 C705 1.429 . S
C700 C692 1.574 1_455 S
C700 H695 0.949 . S
C700 C706 1.368 . S
C701 C685 1.349 . S
C701 H693 0.950 . S
C701 C699 1.327 . S
C702 C690 1.349 . S
C702 H696 0.950 . S
C702 C703 1.327 . S
C703 H697 0.950 . S
C703 C702 1.327 . S
C703 C707 1.429 . S
C704 C687 1.574 1_655 S
C704 H698 0.949 . S
C704 C708 1.368 . S
C705 C686 1.429 . S
C705 C699 1.429 . S
C705 C706 1.523 . S
C706 C687 1.368 . S
C706 C700 1.368 . S
C706 C705 1.523 . S
C707 C691 1.429 . S
C707 C703 1.429 . S
C707 C708 1.523 . S
C708 C692 1.368 . S
C708 C704 1.368 . S
C708 C707 1.523 . S
H709 C684 0.950 . S
H710 C686 0.950 . S
H711 C687 0.949 . S
H712 C689 0.950 . S
H713 C691 0.950 . S
C714 C715 1.349 . S
C714 C716 1.327 . S
C714 H739 0.950 . S
C715 C714 1.349 . S
C715 C731 1.349 . S
C716 C714 1.327 . S
C716 C735 1.429 . S
C716 H740 0.950 . S
C717 C734 1.574 1_565 S
C717 C736 1.368 . S
C717 H741 0.949 . S
H718 C722 0.949 . S
C719 C720 1.349 . S
C719 C721 1.327 . S
C719 H742 0.950 . S
C720 C719 1.349 . S
C720 C732 1.349 . S
C721 C719 1.327 . S
C721 C737 1.429 . S
C721 H743 0.950 . S
C722 H718 0.949 . S
C722 C730 1.574 1_545 S
C722 C738 1.368 . S
H723 C731 0.950 . S
H724 C729 0.950 . S
H725 C730 0.949 . S
H726 C732 0.950 . S
H727 C733 0.950 . S
H728 C734 0.949 . S
C729 H724 0.950 . S
C729 C731 1.327 . S
C729 C735 1.429 . S
C730 C722 1.574 1_565 S
C730 H725 0.949 . S
C730 C736 1.368 . S
C731 C715 1.349 . S
C731 H723 0.950 . S
C731 C729 1.327 . S
C732 C720 1.349 . S
C732 H726 0.950 . S
C732 C733 1.327 . S
C733 H727 0.950 . S
C733 C732 1.327 . S
C733 C737 1.429 . S
C734 C717 1.574 1_545 S
C734 H728 0.949 . S
C734 C738 1.368 . S
C735 C716 1.429 . S
C735 C729 1.429 . S
C735 C736 1.523 . S
C736 C717 1.368 . S
C736 C730 1.368 . S
C736 C735 1.523 . S
C737 C721 1.429 . S
C737 C733 1.429 . S
C737 C738 1.523 . S
C738 C722 1.368 . S
C738 C734 1.368 . S
C738 C737 1.523 . S
H739 C714 0.950 . S
H740 C716 0.950 . S
H741 C717 0.949 . S
H742 C719 0.950 . S
H743 C721 0.950 . S
C744 C745 1.349 . S
C744 C746 1.327 . S
C744 H769 0.950 . S
C745 C744 1.349 . S
C745 C761 1.349 . S
C746 C744 1.327 . S
C746 C765 1.429 . S
C746 H770 0.950 . S
C747 C764 1.574 . S
C747 C766 1.368 . S
C747 H771 0.949 . S
H748 C752 0.949 . S
C749 C750 1.349 . S
C749 C751 1.327 . S
C749 H772 0.950 . S
C750 C749 1.349 . S
C750 C762 1.349 . S
C751 C749 1.327 . S
C751 C767 1.429 . S
C751 H773 0.950 . S
C752 H748 0.949 . S
C752 C760 1.574 . S
C752 C768 1.368 . S
H753 C761 0.950 . S
H754 C759 0.950 . S
H755 C760 0.949 . S
H756 C762 0.950 . S
H757 C763 0.950 . S
H758 C764 0.949 . S
C759 H754 0.950 . S
C759 C761 1.327 . S
C759 C765 1.429 . S
C760 C752 1.574 . S
C760 H755 0.949 . S
C760 C766 1.368 . S
C761 C745 1.349 . S
C761 H753 0.950 . S
C761 C759 1.327 . S
C762 C750 1.349 . S
C762 H756 0.950 . S
C762 C763 1.327 . S
C763 H757 0.950 . S
C763 C762 1.327 . S
C763 C767 1.429 . S
C764 C747 1.574 . S
C764 H758 0.949 . S
C764 C768 1.368 . S
C765 C746 1.429 . S
C765 C759 1.429 . S
C765 C766 1.523 . S
C766 C747 1.368 . S
C766 C760 1.368 . S
C766 C765 1.523 . S
C767 C751 1.429 . S
C767 C763 1.429 . S
C767 C768 1.523 . S
C768 C752 1.368 . S
C768 C764 1.368 . S
C768 C767 1.523 . S
H769 C744 0.950 . S
H770 C746 0.950 . S
H771 C747 0.949 . S
H772 C749 0.950 . S
H773 C751 0.950 . S
C774 C775 1.349 . S
C774 C776 1.327 . S
C774 H799 0.950 . S
C775 C774 1.349 . S
C775 C791 1.349 . S
C776 C774 1.327 . S
C776 C795 1.429 . S
C776 H800 0.950 . S
C777 C794 1.574 . S
C777 C796 1.368 . S
C777 H801 0.949 . S
H778 C782 0.949 . S
C779 C780 1.349 . S
C779 C781 1.327 . S
C779 H802 0.950 . S
C780 C779 1.349 . S
C780 C792 1.349 . S
C781 C779 1.327 . S
C781 C797 1.429 . S
C781 H803 0.950 . S
C782 H778 0.949 . S
C782 C790 1.574 . S
C782 C798 1.368 . S
H783 C791 0.950 . S
H784 C789 0.950 . S
H785 C790 0.949 . S
H786 C792 0.950 . S
H787 C793 0.950 . S
H788 C794 0.949 . S
C789 H784 0.950 . S
C789 C791 1.327 . S
C789 C795 1.429 . S
C790 C782 1.574 . S
C790 H785 0.949 . S
C790 C796 1.368 . S
C791 C775 1.349 . S
C791 H783 0.950 . S
C791 C789 1.327 . S
C792 C780 1.349 . S
C792 H786 0.950 . S
C792 C793 1.327 . S
C793 H787 0.950 . S
C793 C792 1.327 . S
C793 C797 1.429 . S
C794 C777 1.574 . S
C794 H788 0.949 . S
C794 C798 1.368 . S
C795 C776 1.429 . S
C795 C789 1.429 . S
C795 C796 1.523 . S
C796 C777 1.368 . S
C796 C790 1.368 . S
C796 C795 1.523 . S
C797 C781 1.429 . S
C797 C793 1.429 . S
C797 C798 1.523 . S
C798 C782 1.368 . S
C798 C794 1.368 . S
C798 C797 1.523 . S
H799 C774 0.950 . S
H800 C776 0.950 . S
H801 C777 0.949 . S
H802 C779 0.950 . S
H803 C781 0.950 . S
C804 C805 1.349 . S
C804 C806 1.327 . S
C804 H829 0.950 . S
C805 C804 1.349 . S
C805 C821 1.349 . S
C806 C804 1.327 . S
C806 C825 1.429 . S
C806 H830 0.950 . S
C807 C824 1.574 . S
C807 C826 1.368 . S
C807 H831 0.949 . S
H808 C812 0.949 . S
C809 C810 1.349 . S
C809 C811 1.327 . S
C809 H832 0.950 . S
C810 C809 1.349 . S
C810 C822 1.349 . S
C811 C809 1.327 . S
C811 C827 1.429 . S
C811 H833 0.950 . S
C812 H808 0.949 . S
C812 C820 1.574 . S
C812 C828 1.368 . S
H813 C821 0.950 . S
H814 C819 0.950 . S
H815 C820 0.949 . S
H816 C822 0.950 . S
H817 C823 0.950 . S
H818 C824 0.949 . S
C819 H814 0.950 . S
C819 C821 1.327 . S
C819 C825 1.429 . S
C820 C812 1.574 . S
C820 H815 0.949 . S
C820 C826 1.368 . S
C821 C805 1.349 . S
C821 H813 0.950 . S
C821 C819 1.327 . S
C822 C810 1.349 . S
C822 H816 0.950 . S
C822 C823 1.327 . S
C823 H817 0.950 . S
C823 C822 1.327 . S
C823 C827 1.429 . S
C824 C807 1.574 . S
C824 H818 0.949 . S
C824 C828 1.368 . S
C825 C806 1.429 . S
C825 C819 1.429 . S
C825 C826 1.523 . S
C826 C807 1.368 . S
C826 C820 1.368 . S
C826 C825 1.523 . S
C827 C811 1.429 . S
C827 C823 1.429 . S
C827 C828 1.523 . S
C828 C812 1.368 . S
C828 C824 1.368 . S
C828 C827 1.523 . S
H829 C804 0.950 . S
H830 C806 0.950 . S
H831 C807 0.949 . S
H832 C809 0.950 . S
H833 C811 0.950 . S
C834 C835 1.349 . S
C834 C836 1.327 1_554 S
C834 H859 0.950 1_554 S
C835 C834 1.349 . S
C835 C851 1.349 . S
C836 C834 1.327 1_556 S
C836 C855 1.429 1_556 S
C836 H860 0.950 . S
C837 C854 1.574 . S
C837 C856 1.368 . S
C837 H861 0.949 . S
H838 C842 0.949 . S
C839 C840 1.349 . S
C839 C841 1.327 1_556 S
C839 H862 0.950 1_556 S
C840 C839 1.349 . S
C840 C852 1.349 . S
C841 C839 1.327 1_554 S
C841 C857 1.429 1_554 S
C841 H863 0.950 . S
C842 H838 0.949 . S
C842 C850 1.574 . S
C842 C858 1.368 . S
H843 C851 0.950 . S
H844 C849 0.950 . S
H845 C850 0.949 . S
H846 C852 0.950 . S
H847 C853 0.950 . S
H848 C854 0.949 . S
C849 H844 0.950 . S
C849 C851 1.327 . S
C849 C855 1.429 . S
C850 C842 1.574 . S
C850 H845 0.949 . S
C850 C856 1.368 1_556 S
C851 C835 1.349 . S
C851 H843 0.950 . S
C851 C849 1.327 . S
C852 C840 1.349 . S
C852 H846 0.950 . S
C852 C853 1.327 . S
C853 H847 0.950 . S
C853 C852 1.327 . S
C853 C857 1.429 . S
C854 C837 1.574 . S
C854 H848 0.949 . S
C854 C858 1.368 1_554 S
C855 C836 1.429 1_554 S
C855 C849 1.429 . S
C855 C856 1.523 . S
C856 C837 1.368 . S
C856 C850 1.368 1_554 S
C856 C855 1.523 . S
C857 C841 1.429 1_556 S
C857 C853 1.429 . S
C857 C858 1.523 . S
C858 C842 1.368 . S
C858 C854 1.368 1_556 S
C858 C857 1.523 . S
H859 C834 0.950 1_556 S
H860 C836 0.950 . S
H861 C837 0.949 . S
H862 C839 0.950 1_554 S
H863 C841 0.950 . S
C265 C183 1.140 . S
C270 C18 1.140 . S
C295 C216 1.140 . S
C300 C51 1.140 . S
C325 C84 1.140 . S
C330 C249 1.140 . S
C355 C150 1.140 . S
C360 C117 1.140 . S
C385 N13 0.963 . S
C390 N2 0.979 . S
C415 N35 0.962 . S
C420 N46 0.963 . S
C445 N79 0.963 . S
C450 N68 0.962 . S
C475 N112 0.963 . S
C480 N101 0.962 . S
C505 N145 0.963 . S
C510 N134 0.962 . S
C535 N178 0.963 . S
C540 N167 0.962 . S
C565 N211 0.963 . S
C570 N200 0.979 . S
C595 N233 0.962 . S
C600 N244 0.963 . S
C625 C7 1.331 . S
C630 C205 1.331 . S
C655 C238 1.331 . S
C660 C40 1.331 . S
C685 C139 1.331 . S
C690 C73 1.331 . S
C715 C106 1.331 . S
C720 C172 1.331 . S
C745 C21 1.529 . S
C750 C153 1.529 . S
C775 C54 1.529 . S
C780 C186 1.529 . S
C805 C87 1.529 . S
C810 C219 1.529 . S
C835 C252 1.529 . S
C840 C120 1.529 . S
