# Generated by pormake.
# Topology uoa, (4)-cn, num edge types: 1
# Building blocks:
#     Node 0, Type 0, BuildingBlock: CEKHIL_clean_sbu_0, # of connection points: 4
#     Node 1, Type 0, BuildingBlock: CEKHIL_clean_sbu_0, # of connection points: 4
#     Node 2, Type 0, BuildingBlock: CEKHIL_clean_sbu_0, # of connection points: 4
#     Node 3, Type 0, BuildingBlock: CEKHIL_clean_sbu_0, # of connection points: 4
#     Node 4, Type 0, BuildingBlock: CEKHIL_clean_sbu_0, # of connection points: 4
#     Node 5, Type 0, BuildingBlock: CEKHIL_clean_sbu_0, # of connection points: 4
#     Node 6, Type 0, BuildingBlock: CEKHIL_clean_sbu_0, # of connection points: 4
#     Node 7, Type 0, BuildingBlock: CEKHIL_clean_sbu_0, # of connection points: 4
#     Node 8, Type 0, BuildingBlock: CEKHIL_clean_sbu_0, # of connection points: 4
#     Node 9, Type 0, BuildingBlock: CEKHIL_clean_sbu_0, # of connection points: 4
#     Node 10, Type 0, BuildingBlock: CEKHIL_clean_sbu_0, # of connection points: 4
#     Node 11, Type 0, BuildingBlock: CEKHIL_clean_sbu_0, # of connection points: 4
#     Node 12, Type 0, BuildingBlock: CEKHIL_clean_sbu_0, # of connection points: 4
#     Node 13, Type 0, BuildingBlock: CEKHIL_clean_sbu_0, # of connection points: 4
#     Node 14, Type 0, BuildingBlock: CEKHIL_clean_sbu_0, # of connection points: 4
#     Node 15, Type 0, BuildingBlock: CEKHIL_clean_sbu_0, # of connection points: 4
#     Node 16, Type 0, BuildingBlock: CEKHIL_clean_sbu_0, # of connection points: 4
#     Node 17, Type 0, BuildingBlock: CEKHIL_clean_sbu_0, # of connection points: 4
#     Node 18, Type 0, BuildingBlock: CEKHIL_clean_sbu_0, # of connection points: 4
#     Node 19, Type 0, BuildingBlock: CEKHIL_clean_sbu_0, # of connection points: 4
#     Node 20, Type 0, BuildingBlock: CEKHIL_clean_sbu_0, # of connection points: 4
#     Node 21, Type 0, BuildingBlock: CEKHIL_clean_sbu_0, # of connection points: 4
#     Node 22, Type 0, BuildingBlock: CEKHIL_clean_sbu_0, # of connection points: 4
#     Node 23, Type 0, BuildingBlock: CEKHIL_clean_sbu_0, # of connection points: 4
#     Node 24, Type 0, BuildingBlock: CEKHIL_clean_sbu_0, # of connection points: 4
#     Node 25, Type 0, BuildingBlock: CEKHIL_clean_sbu_0, # of connection points: 4
#     Node 26, Type 0, BuildingBlock: CEKHIL_clean_sbu_0, # of connection points: 4
#     Node 27, Type 0, BuildingBlock: CEKHIL_clean_sbu_0, # of connection points: 4
#     Node 28, Type 0, BuildingBlock: CEKHIL_clean_sbu_0, # of connection points: 4
#     Node 29, Type 0, BuildingBlock: CEKHIL_clean_sbu_0, # of connection points: 4
#     Node 30, Type 0, BuildingBlock: CEKHIL_clean_sbu_0, # of connection points: 4
#     Node 31, Type 0, BuildingBlock: CEKHIL_clean_sbu_0, # of connection points: 4
#     Edge 32, Type (0, 0), BuildingBlock: CIFDUS_clean_linker_0, # of connection points: 2
#     Edge 33, Type (0, 0), BuildingBlock: CIFDUS_clean_linker_0, # of connection points: 2
#     Edge 34, Type (0, 0), BuildingBlock: CIFDUS_clean_linker_0, # of connection points: 2
#     Edge 35, Type (0, 0), BuildingBlock: CIFDUS_clean_linker_0, # of connection points: 2
#     Edge 36, Type (0, 0), BuildingBlock: CIFDUS_clean_linker_0, # of connection points: 2
#     Edge 37, Type (0, 0), BuildingBlock: CIFDUS_clean_linker_0, # of connection points: 2
#     Edge 38, Type (0, 0), BuildingBlock: CIFDUS_clean_linker_0, # of connection points: 2
#     Edge 39, Type (0, 0), BuildingBlock: CIFDUS_clean_linker_0, # of connection points: 2
#     Edge 40, Type (0, 0), BuildingBlock: CIFDUS_clean_linker_0, # of connection points: 2
#     Edge 41, Type (0, 0), BuildingBlock: CIFDUS_clean_linker_0, # of connection points: 2
#     Edge 42, Type (0, 0), BuildingBlock: CIFDUS_clean_linker_0, # of connection points: 2
#     Edge 43, Type (0, 0), BuildingBlock: CIFDUS_clean_linker_0, # of connection points: 2
#     Edge 44, Type (0, 0), BuildingBlock: CIFDUS_clean_linker_0, # of connection points: 2
#     Edge 45, Type (0, 0), BuildingBlock: CIFDUS_clean_linker_0, # of connection points: 2
#     Edge 46, Type (0, 0), BuildingBlock: CIFDUS_clean_linker_0, # of connection points: 2
#     Edge 47, Type (0, 0), BuildingBlock: CIFDUS_clean_linker_0, # of connection points: 2
#     Edge 48, Type (0, 0), BuildingBlock: CIFDUS_clean_linker_0, # of connection points: 2
#     Edge 49, Type (0, 0), BuildingBlock: CIFDUS_clean_linker_0, # of connection points: 2
#     Edge 50, Type (0, 0), BuildingBlock: CIFDUS_clean_linker_0, # of connection points: 2
#     Edge 51, Type (0, 0), BuildingBlock: CIFDUS_clean_linker_0, # of connection points: 2
#     Edge 52, Type (0, 0), BuildingBlock: CIFDUS_clean_linker_0, # of connection points: 2
#     Edge 53, Type (0, 0), BuildingBlock: CIFDUS_clean_linker_0, # of connection points: 2
#     Edge 54, Type (0, 0), BuildingBlock: CIFDUS_clean_linker_0, # of connection points: 2
#     Edge 55, Type (0, 0), BuildingBlock: CIFDUS_clean_linker_0, # of connection points: 2
#     Edge 56, Type (0, 0), BuildingBlock: CIFDUS_clean_linker_0, # of connection points: 2
#     Edge 57, Type (0, 0), BuildingBlock: CIFDUS_clean_linker_0, # of connection points: 2
#     Edge 58, Type (0, 0), BuildingBlock: CIFDUS_clean_linker_0, # of connection points: 2
#     Edge 59, Type (0, 0), BuildingBlock: CIFDUS_clean_linker_0, # of connection points: 2
#     Edge 60, Type (0, 0), BuildingBlock: CIFDUS_clean_linker_0, # of connection points: 2
#     Edge 61, Type (0, 0), BuildingBlock: CIFDUS_clean_linker_0, # of connection points: 2
#     Edge 62, Type (0, 0), BuildingBlock: CIFDUS_clean_linker_0, # of connection points: 2
#     Edge 63, Type (0, 0), BuildingBlock: CIFDUS_clean_linker_0, # of connection points: 2
#     Edge 64, Type (0, 0), BuildingBlock: CIFDUS_clean_linker_0, # of connection points: 2
#     Edge 65, Type (0, 0), BuildingBlock: CIFDUS_clean_linker_0, # of connection points: 2
#     Edge 66, Type (0, 0), BuildingBlock: CIFDUS_clean_linker_0, # of connection points: 2
#     Edge 67, Type (0, 0), BuildingBlock: CIFDUS_clean_linker_0, # of connection points: 2
#     Edge 68, Type (0, 0), BuildingBlock: CIFDUS_clean_linker_0, # of connection points: 2
#     Edge 69, Type (0, 0), BuildingBlock: CIFDUS_clean_linker_0, # of connection points: 2
#     Edge 70, Type (0, 0), BuildingBlock: CIFDUS_clean_linker_0, # of connection points: 2
#     Edge 71, Type (0, 0), BuildingBlock: CIFDUS_clean_linker_0, # of connection points: 2
#     Edge 72, Type (0, 0), BuildingBlock: CIFDUS_clean_linker_0, # of connection points: 2
#     Edge 73, Type (0, 0), BuildingBlock: CIFDUS_clean_linker_0, # of connection points: 2
#     Edge 74, Type (0, 0), BuildingBlock: CIFDUS_clean_linker_0, # of connection points: 2
#     Edge 75, Type (0, 0), BuildingBlock: CIFDUS_clean_linker_0, # of connection points: 2
#     Edge 76, Type (0, 0), BuildingBlock: CIFDUS_clean_linker_0, # of connection points: 2
#     Edge 77, Type (0, 0), BuildingBlock: CIFDUS_clean_linker_0, # of connection points: 2
#     Edge 78, Type (0, 0), BuildingBlock: CIFDUS_clean_linker_0, # of connection points: 2
#     Edge 79, Type (0, 0), BuildingBlock: CIFDUS_clean_linker_0, # of connection points: 2
#     Edge 80, Type (0, 0), BuildingBlock: CIFDUS_clean_linker_0, # of connection points: 2
#     Edge 81, Type (0, 0), BuildingBlock: CIFDUS_clean_linker_0, # of connection points: 2
#     Edge 82, Type (0, 0), BuildingBlock: CIFDUS_clean_linker_0, # of connection points: 2
#     Edge 83, Type (0, 0), BuildingBlock: CIFDUS_clean_linker_0, # of connection points: 2
#     Edge 84, Type (0, 0), BuildingBlock: CIFDUS_clean_linker_0, # of connection points: 2
#     Edge 85, Type (0, 0), BuildingBlock: CIFDUS_clean_linker_0, # of connection points: 2
#     Edge 86, Type (0, 0), BuildingBlock: CIFDUS_clean_linker_0, # of connection points: 2
#     Edge 87, Type (0, 0), BuildingBlock: CIFDUS_clean_linker_0, # of connection points: 2
#     Edge 88, Type (0, 0), BuildingBlock: CIFDUS_clean_linker_0, # of connection points: 2
#     Edge 89, Type (0, 0), BuildingBlock: CIFDUS_clean_linker_0, # of connection points: 2
#     Edge 90, Type (0, 0), BuildingBlock: CIFDUS_clean_linker_0, # of connection points: 2
#     Edge 91, Type (0, 0), BuildingBlock: CIFDUS_clean_linker_0, # of connection points: 2
#     Edge 92, Type (0, 0), BuildingBlock: CIFDUS_clean_linker_0, # of connection points: 2
#     Edge 93, Type (0, 0), BuildingBlock: CIFDUS_clean_linker_0, # of connection points: 2
#     Edge 94, Type (0, 0), BuildingBlock: CIFDUS_clean_linker_0, # of connection points: 2
#     Edge 95, Type (0, 0), BuildingBlock: CIFDUS_clean_linker_0, # of connection points: 2
# Relax obj value: 0.138
# Max RMSD: 0.208
# Mean RMSD: 0.208
data_MOF--net-uoa--node1-CEKHIL_clean_sbu_0--edge1-CIFDUS_clean_linker_0
_symmetry_space_group_name_H-M    P1
_symmetry_Int_Tables_number       1
_symmetry_cell_setting            triclinic
loop_
_symmetry_equiv_pos_as_xyz
'x, y, z'
_cell_length_a     66.412854
_cell_length_b     66.432429
_cell_length_c     23.733233
_cell_angle_alpha  89.873741
_cell_angle_beta   90.190627
_cell_angle_gamma 89.94265
loop_
_atom_site_label
_atom_site_type_symbol
_atom_site_fract_x
_atom_site_fract_y
_atom_site_fract_z
_atom_type_partial_charge
Co0 Co 0.04049 0.10834 0.01186 0.0
O1 O 0.05327 0.13405 0.01997 0.0
O2 O 0.06649 0.10536 0.04953 0.0
C3 C 0.03132 0.11268 0.92122 0.0
O4 O 0.03137 0.07881 0.00841 0.0
Co5 Co 0.99445 0.10688 0.98752 0.0
O6 O 0.99957 0.07789 0.97511 0.0
C7 C 0.0087 0.11399 0.10344 0.0
C8 C 0.06814 0.12482 0.04427 0.0
C9 C 0.01564 0.06906 -0.00875 0.0
O10 O 0.02696 0.11169 0.08695 0.0
O11 O 0.99356 0.11377 0.06986 0.0
O12 O 0.04944 0.10679 0.93388 0.0
O13 O 0.02011 0.11756 0.96343 0.0
Co14 Co 0.16724 0.79203 0.25108 0.0
O15 O 0.14339 0.80689 0.26878 0.0
O16 O 0.17396 0.81447 0.30016 0.0
C17 C 0.16118 0.78983 0.15804 0.0
O18 O 0.1953 0.77994 0.23986 0.0
Co19 Co 0.16302 0.7487 0.20389 0.0
O20 O 0.1922 0.75157 0.18882 0.0
C21 C 0.15769 0.75564 0.3255 0.0
C22 C 0.15481 0.81861 0.29841 0.0
C23 C 0.20296 0.765 0.21257 0.0
O24 O 0.16268 0.77416 0.31839 0.0
O25 O 0.1557 0.74321 0.28467 0.0
O26 O 0.16943 0.80587 0.17911 0.0
O27 O 0.15517 0.77657 0.19425 0.0
Co28 Co 0.47033 0.90805 0.50801 0.0
O29 O 0.45787 0.88213 0.5154 0.0
O30 O 0.44527 0.91022 0.55031 0.0
C31 C 0.47702 0.90551 0.41469 0.0
O32 O 0.47911 0.9377 0.50628 0.0
Co33 Co 0.51535 0.91001 0.47854 0.0
O34 O 0.51021 0.93915 0.46919 0.0
C35 C 0.50393 0.90179 0.59587 0.0
C36 C 0.44361 0.89083 0.54341 0.0
C37 C 0.49444 0.94773 0.48789 0.0
O38 O 0.4854 0.90364 0.58101 0.0
O39 O 0.51847 0.90284 0.56069 0.0
O40 O 0.45941 0.91103 0.4325 0.0
O41 O 0.48946 0.89963 0.45367 0.0
Co42 Co 0.35389 0.23111 0.75621 0.0
O43 O 0.378 0.21555 0.76949 0.0
O44 O 0.3473 0.2058 0.79326 0.0
C45 C 0.36138 0.23998 0.66706 0.0
O46 O 0.32544 0.24304 0.74681 0.0
Co47 Co 0.35662 0.27705 0.73223 0.0
O48 O 0.32831 0.27375 0.70727 0.0
C49 C 0.36024 0.26227 0.84909 0.0
C50 C 0.36654 0.20204 0.79226 0.0
C51 C 0.31769 0.25888 0.72347 0.0
O52 O 0.35677 0.24426 0.83203 0.0
O53 O 0.36182 0.27737 0.81572 0.0
O54 O 0.35352 0.22246 0.67765 0.0
O55 O 0.3661 0.25061 0.71062 0.0
Co56 Co 0.04746 0.90407 0.48419 0.0
O57 O 0.05885 0.87773 0.48134 0.0
O58 O 0.07287 0.90452 0.44266 0.0
C59 C 0.04072 0.9032 0.5776 0.0
O60 O 0.03939 0.9339 0.48186 0.0
Co61 Co 1.00237 0.90693 0.51315 0.0
O62 O 0.00875 0.93579 0.52177 0.0
C63 C 0.01384 0.89814 0.3962 0.0
C64 C 0.07375 0.88528 0.45351 0.0
C65 C 0.02433 0.94413 0.50101 0.0
O66 O 0.03241 0.89912 0.41141 0.0
O67 O 0.99927 0.89996 0.43103 0.0
O68 O 0.05844 0.90799 0.55918 0.0
O69 O 0.02819 0.89697 0.53941 0.0
Co70 Co 0.35554 0.78165 0.71879 0.0
O71 O 0.38165 0.79232 0.70153 0.0
O72 O 0.3529 0.8058 0.67247 0.0
C73 C 0.36165 0.7763 0.81032 0.0
O74 O 0.32575 0.77437 0.72905 0.0
Co75 Co 0.35202 0.7372 0.76145 0.0
O76 O 0.32309 0.74375 0.76946 0.0
C77 C 0.36002 0.7455 0.642 0.0
C78 C 0.37251 0.80627 0.67304 0.0
C79 C 0.31518 0.75974 0.74943 0.0
O80 O 0.35694 0.76436 0.65021 0.0
O81 O 0.36025 0.73233 0.68144 0.0
O82 O 0.35623 0.79411 0.79313 0.0
O83 O 0.36471 0.76312 0.77158 0.0
Co84 Co 0.46812 0.10429 0.95215 0.0
O85 O 0.45378 0.12914 0.94002 0.0
O86 O 0.44553 0.10008 0.90088 0.0
C87 C 0.47092 0.10748 0.04629 0.0
O88 O 0.47926 0.07544 0.9577 0.0
Co89 Co 0.5118 0.10569 -0.00044 0.0
O90 O 0.50843 0.07616 0.00634 0.0
C91 C 0.50484 0.11392 0.87916 0.0
C92 C 0.4418 0.11919 0.90721 0.0
C93 C 0.49435 0.06652 0.98174 0.0
O94 O 0.48605 0.10994 0.8858 0.0
O95 O 0.51746 0.11435 0.92005 0.0
O96 O 0.45442 0.10057 0.02398 0.0
O97 O 0.48418 0.11402 0.01106 0.0
Co98 Co 0.15757 0.23337 0.21262 0.0
O99 O 0.13181 0.22247 0.19247 0.0
O100 O 0.16103 0.20926 0.16692 0.0
C101 C 0.15041 0.23863 0.30337 0.0
O102 O 0.18712 0.24094 0.2266 0.0
Co103 Co 0.15986 0.27787 0.25532 0.0
O104 O 0.18847 0.27112 0.26965 0.0
C105 C 0.15402 0.26958 0.13483 0.0
C106 C 0.14143 0.20859 0.16537 0.0
C107 C 0.19703 0.25546 0.25001 0.0
O108 O 0.15694 0.25071 0.14373 0.0
O109 O 0.15311 0.28273 0.17407 0.0
O110 O 0.15612 0.22085 0.28691 0.0
O111 O 0.14754 0.25174 0.26416 0.0
Co112 Co 0.96885 0.91107 0.98347 0.0
O113 O 0.95609 0.88535 0.97651 0.0
O114 O 0.9439 0.91348 0.94012 0.0
C115 C 0.97553 0.90853 0.07689 0.0
O116 O 0.97819 0.94054 0.98416 0.0
Co117 Co 0.01392 0.91221 0.01344 0.0
O118 O 0.00954 0.94155 0.02033 0.0
C119 C 1.00217 0.90327 0.89681 0.0
C120 C 0.94218 0.89408 0.9469 0.0
C121 C 0.99385 0.95034 0.00144 0.0
O122 O 0.98378 0.9061 0.91116 0.0
O123 O 0.01677 0.90397 0.93214 0.0
O124 O 0.95802 0.91443 0.05877 0.0
O125 O 0.98782 0.9024 0.03819 0.0
Co126 Co 0.85201 0.2138 0.73015 0.0
O127 O 0.87618 0.19802 0.72387 0.0
O128 O 0.84678 0.18989 0.68578 0.0
C129 C 0.8548 0.21984 0.82357 0.0
O130 O 0.82367 0.22594 0.72982 0.0
Co131 Co 0.85439 0.25855 0.76066 0.0
O132 O 0.8247 0.25709 0.76635 0.0
C133 C 0.86245 0.24664 0.64383 0.0
C134 C 0.86573 0.18562 0.6935 0.0
C135 C 0.81491 0.24218 0.74676 0.0
O136 O 0.85874 0.22841 0.65827 0.0
O137 O 0.86239 0.26121 0.67907 0.0
O138 O 0.84722 0.2031 0.80497 0.0
O139 O 0.86227 0.23167 0.78541 0.0
Co140 Co 0.53804 0.10624 0.46079 0.0
O141 O 0.55099 0.13185 0.4507 0.0
O142 O 0.56424 0.10274 0.4253 0.0
C143 C 0.52834 0.11176 0.55031 0.0
O144 O 0.52905 0.07674 0.4669 0.0
Co145 Co 0.49195 0.10453 0.48303 0.0
O146 O 0.49719 0.07575 0.49899 0.0
C147 C 0.50664 0.11111 0.36733 0.0
C148 C 0.566 0.12223 0.42867 0.0
C149 C 0.51344 0.06697 0.48453 0.0
O150 O 0.52487 0.10875 0.38454 0.0
O151 O 0.49146 0.1112 0.40046 0.0
O152 O 0.54653 0.10571 0.53952 0.0
O153 O 0.51735 0.11599 0.50687 0.0
Co154 Co 0.65978 0.78266 0.20423 0.0
O155 O 0.63666 0.79859 0.18389 0.0
O156 O 0.66795 0.80553 0.15827 0.0
C157 C 0.6515 0.77889 0.29483 0.0
O158 O 0.68739 0.76972 0.21973 0.0
Co159 Co 0.65397 0.73859 0.24725 0.0
O160 O 0.68268 0.74109 0.26901 0.0
C161 C 0.65075 0.74745 0.12613 0.0
C162 C 0.64895 0.81035 0.15734 0.0
C163 C 0.69419 0.7545 0.24812 0.0
O164 O 0.6562 0.76573 0.13522 0.0
O165 O 0.64777 0.73454 0.16534 0.0
O166 O 0.66048 0.79525 0.27826 0.0
O167 O 0.64631 0.7665 0.25571 0.0
Co168 Co 0.97307 0.09933 0.51802 0.0
O169 O 0.95769 0.12331 0.53266 0.0
O170 O 0.95118 0.09319 0.56888 0.0
C171 C 0.97541 0.10377 0.42435 0.0
O172 O 0.98497 0.07112 0.5109 0.0
Co173 Co 0.0164 0.10155 0.47079 0.0
O174 O 0.01443 0.07184 0.46464 0.0
C175 C 0.00958 0.10952 0.59119 0.0
C176 C 0.94654 0.11215 0.56481 0.0
C177 C 1.00021 0.06221 0.4884 0.0
O178 O 0.99093 0.10503 0.5845 0.0
O179 O 0.02213 0.11026 0.55037 0.0
O180 O 0.9593 0.09591 0.44623 0.0
O181 O 0.98871 0.11027 0.45982 0.0
Co182 Co 0.66034 0.22732 0.26457 0.0
O183 O 0.63433 0.21597 0.2794 0.0
O184 O 0.66288 0.20436 0.3155 0.0
C185 C 0.65639 0.23012 0.1707 0.0
O186 O 0.68999 0.23563 0.25711 0.0
Co187 Co 0.66241 0.27085 0.2166 0.0
O188 O 0.69163 0.26525 0.21086 0.0
C189 C 0.65419 0.2648 0.33713 0.0
C190 C 0.64335 0.20304 0.31164 0.0
C191 C 0.70009 0.25018 0.23439 0.0
O192 O 0.65708 0.24582 0.33075 0.0
O193 O 0.65426 0.27733 0.29605 0.0
O194 O 0.6619 0.2131 0.19304 0.0
O195 O 0.65153 0.2441 0.20593 0.0
Co196 Co 0.5493 0.91104 0.00863 0.0
O197 O 0.56396 0.88616 0.01526 0.0
O198 O 0.57389 0.91504 0.05227 0.0
C199 C 0.5429 0.90831 0.91521 0.0
O200 O 0.53814 0.93996 0.00735 0.0
Co201 Co 0.50432 0.9098 0.97829 0.0
O202 O 0.50746 0.93914 0.96709 0.0
C203 C 0.51624 0.90211 0.09573 0.0
C204 C 0.57724 0.89593 0.04436 0.0
C205 C 0.52236 0.94887 0.98704 0.0
O206 O 0.53459 0.90517 0.08113 0.0
O207 O 0.50164 0.90236 0.06034 0.0
O208 O 0.56 0.91517 0.93352 0.0
O209 O 0.53094 0.90136 0.95373 0.0
Co210 Co 0.85798 0.78368 0.7596 0.0
O211 O 0.88437 0.79419 0.77366 0.0
O212 O 0.8561 0.80957 0.79779 0.0
C213 C 0.86327 0.7743 0.66961 0.0
O214 O 0.82801 0.77686 0.7511 0.0
Co215 Co 0.85373 0.73783 0.73498 0.0
O216 O 0.82521 0.74489 0.72047 0.0
C217 C 0.86066 0.75138 0.85126 0.0
C218 C 0.87571 0.80927 0.79827 0.0
C219 C 0.81739 0.7617 0.73428 0.0
O220 O 0.85885 0.76971 0.83474 0.0
O221 O 0.86042 0.73636 0.81754 0.0
O222 O 0.85877 0.79287 0.68137 0.0
O223 O 0.86648 0.76277 0.71259 0.0
Co224 Co 0.53566 0.60627 0.50299 0.0
O225 O 0.54969 0.63131 0.51103 0.0
O226 O 0.56142 0.60207 0.54119 0.0
C227 C 0.52688 0.61099 0.41217 0.0
O228 O 0.52496 0.57726 0.49961 0.0
Co229 Co 0.48965 0.60722 0.47791 0.0
O230 O 0.49409 0.57847 0.45992 0.0
C231 C 0.50404 0.61363 0.59408 0.0
C232 C 0.56402 0.62142 0.53577 0.0
C233 C 0.50926 0.56863 0.4782 0.0
O234 O 0.5222 0.61042 0.57779 0.0
O235 O 0.48895 0.61409 0.56034 0.0
O236 O 0.54466 0.60417 0.42508 0.0
O237 O 0.5159 0.61649 0.45425 0.0
Co238 Co 0.65946 0.29607 0.75664 0.0
O239 O 0.63432 0.30959 0.76814 0.0
O240 O 0.66404 0.3217 0.79399 0.0
C241 C 0.65367 0.28721 0.66663 0.0
O242 O 0.68852 0.28594 0.75035 0.0
Co243 Co 0.65885 0.25005 0.73302 0.0
O244 O 0.68796 0.25395 0.71914 0.0
C245 C 0.653 0.26452 0.84885 0.0
C246 C 0.64456 0.32381 0.79197 0.0
C247 C 0.69751 0.26976 0.73362 0.0
O248 O 0.65659 0.28255 0.83202 0.0
O249 O 0.65192 0.24946 0.8154 0.0
O250 O 0.66025 0.30512 0.67856 0.0
O251 O 0.64891 0.27614 0.70939 0.0
Co252 Co 0.97834 0.40902 -0.00147 0.0
O253 O 0.96415 0.38467 0.01595 0.0
O254 O 0.95457 0.41501 0.04368 0.0
C255 C 0.98292 0.40219 0.90713 0.0
O256 O 0.98967 0.43749 0.98725 0.0
Co257 Co 0.02286 0.40622 0.95624 0.0
O258 O 0.01893 0.43519 0.93965 0.0
C259 C 0.01373 0.40043 0.07651 0.0
C260 C 0.95136 0.39566 0.04315 0.0
C261 C 1.00481 0.44555 0.96152 0.0
O262 O 0.99526 0.40544 0.06785 0.0
O263 O 0.02675 0.39851 0.03722 0.0
O264 O 0.96599 0.40997 0.92382 0.0
O265 O 0.99545 0.39728 0.94632 0.0
Co266 Co 0.8493 0.71498 0.26626 0.0
O267 O 0.87292 0.699 0.28011 0.0
O268 O 0.84299 0.69277 0.3171 0.0
C269 C 0.85361 0.71712 0.17248 0.0
O270 O 0.82142 0.72823 0.2577 0.0
Co271 Co 0.85489 0.75821 0.21872 0.0
O272 O 0.82561 0.75592 0.20405 0.0
C273 C 0.8611 0.75104 0.33989 0.0
C274 C 0.86184 0.68766 0.31166 0.0
C275 C 0.81431 0.7432 0.22884 0.0
O276 O 0.8557 0.73261 0.333 0.0
O277 O 0.86293 0.7635 0.299 0.0
O278 O 0.84523 0.70132 0.19458 0.0
O279 O 0.86086 0.72998 0.20793 0.0
Co280 Co 0.53439 0.40396 0.98542 0.0
O281 O 0.54698 0.37809 0.98208 0.0
O282 O 0.55898 0.40544 0.9409 0.0
C283 C 0.52823 0.40301 0.07775 0.0
O284 O 0.52525 0.43338 0.98223 0.0
Co285 Co 0.4892 0.40646 0.02227 0.0
O286 O 0.49464 0.43579 0.02243 0.0
C287 C 0.49948 0.3933 0.90792 0.0
C288 C 0.56101 0.38633 0.95209 0.0
C289 C 0.51009 0.4438 -0.00015 0.0
O290 O 0.51808 0.3977 0.91674 0.0
O291 O 0.48592 0.39406 0.94604 0.0
O292 O 0.54593 0.40842 0.05997 0.0
O293 O 0.51584 0.39672 0.03994 0.0
Co294 Co 0.8603 0.2911 0.22973 0.0
O295 O 0.88718 0.30113 0.22636 0.0
O296 O 0.86126 0.31647 0.18695 0.0
C297 C 0.861 0.28451 0.32342 0.0
O298 O 0.83006 0.28421 0.22775 0.0
Co299 Co 0.85576 0.24619 0.25996 0.0
O300 O 0.82708 0.25353 0.26753 0.0
C301 C 0.86525 0.25709 0.14301 0.0
C302 C 0.88058 0.31621 0.19721 0.0
C303 C 0.81928 0.26943 0.24669 0.0
O304 O 0.86462 0.27568 0.1576 0.0
O305 O 0.863 0.24263 0.17821 0.0
O306 O 0.85694 0.30239 0.3045 0.0
O307 O 0.86663 0.27168 0.28551 0.0
Co308 Co 0.96943 0.59698 0.46645 0.0
O309 O 0.95291 0.62044 0.45526 0.0
O310 O 0.94726 0.59089 0.41528 0.0
C311 C 0.97171 0.60019 0.56061 0.0
O312 O 0.98321 0.56928 0.47135 0.0
Co313 Co 0.01267 0.60215 0.51454 0.0
O314 O 0.01069 0.57269 0.52647 0.0
C315 C 1.00531 0.60967 0.39377 0.0
C316 C 0.94174 0.60953 0.42267 0.0
C317 C 0.99818 0.5618 0.49947 0.0
O318 O 0.98681 0.60449 0.4003 0.0
O319 O 0.01787 0.61082 0.4347 0.0
O320 O 0.95602 0.59177 0.53789 0.0
O321 O 0.98443 0.60801 0.52578 0.0
Co322 Co 0.65708 0.72706 0.70338 0.0
O323 O 0.63094 0.71665 0.68479 0.0
O324 O 0.65972 0.70287 0.65773 0.0
C325 C 0.65072 0.7326 0.79465 0.0
O326 O 0.68689 0.73389 0.71541 0.0
Co327 Co 0.66093 0.77149 0.74572 0.0
O328 O 0.68961 0.76432 0.7566 0.0
C329 C 0.65392 0.76334 0.62559 0.0
C330 C 0.64012 0.70255 0.65731 0.0
C331 C 0.69747 0.74829 0.737 0.0
O332 O 0.65631 0.74437 0.63424 0.0
O333 O 0.65374 0.77649 0.66489 0.0
O334 O 0.65588 0.71468 0.778 0.0
O335 O 0.64791 0.74574 0.75546 0.0
Co336 Co 0.47896 0.41183 0.49072 0.0
O337 O 0.46563 0.38685 0.47474 0.0
O338 O 0.45395 0.41675 0.4494 0.0
C339 C 0.48537 0.40369 0.58034 0.0
O340 O 0.48875 0.44089 0.50263 0.0
Co341 Co 0.52406 0.41186 0.52927 0.0
O342 O 0.51818 0.44006 0.55011 0.0
C343 C 0.51358 0.40748 0.40879 0.0
C344 C 0.45141 0.39732 0.45157 0.0
C345 C 0.50336 0.4497 0.52898 0.0
O346 O 0.49477 0.41011 0.41936 0.0
O347 O 0.52726 0.40642 0.44683 0.0
O348 O 0.46792 0.41112 0.56655 0.0
O349 O 0.49769 0.40042 0.53963 0.0
Co350 Co 0.35758 0.728 0.22 0.0
O351 O 0.38113 0.71227 0.2044 0.0
O352 O 0.35042 0.70498 0.17378 0.0
C353 C 0.36425 0.73204 0.31146 0.0
O354 O 0.32967 0.74055 0.23022 0.0
Co355 Co 0.36191 0.77223 0.26223 0.0
O356 O 0.33288 0.76931 0.27948 0.0
C357 C 0.36674 0.76319 0.14177 0.0
C358 C 0.36943 0.70024 0.1766 0.0
C359 C 0.32207 0.75567 0.25684 0.0
O360 O 0.36208 0.74471 0.15112 0.0
O361 O 0.36863 0.77638 0.18067 0.0
O362 O 0.35568 0.71558 0.29404 0.0
O363 O 0.36994 0.74448 0.27293 0.0
Co364 Co 0.03745 0.60249 0.97511 0.0
O365 O 0.0499 0.62793 0.96041 0.0
O366 O 0.06339 0.59859 0.93793 0.0
C367 C 0.02838 0.60926 0.06453 0.0
O368 O 0.02827 0.57317 0.98514 0.0
Co369 Co 0.99137 0.60189 -0.00066 0.0
O370 O 0.99721 0.57391 0.02327 0.0
C371 C 1.00555 0.60644 0.88258 0.0
C372 C 0.06455 0.61817 0.9371 0.0
C373 C 0.01288 0.56437 0.00764 0.0
O374 O 0.02375 0.60387 0.89961 0.0
O375 O 0.99045 0.60728 0.91595 0.0
O376 O 0.04654 0.60318 0.05343 0.0
O377 O 0.01716 0.61293 0.02114 0.0
Co378 Co 0.15955 0.28976 0.71221 0.0
O379 O 0.13404 0.30217 0.69703 0.0
O380 O 0.16301 0.31419 0.66677 0.0
C381 C 0.15348 0.28458 0.80373 0.0
O382 O 0.18898 0.28043 0.72294 0.0
Co383 Co 0.15972 0.245 0.75423 0.0
O384 O 0.18798 0.25159 0.7733 0.0
C385 C 0.15318 0.25403 0.63416 0.0
C386 C 0.1435 0.31615 0.66997 0.0
C387 C 0.19769 0.26612 0.75113 0.0
O388 O 0.15682 0.27279 0.64294 0.0
O389 O 0.15228 0.24079 0.67334 0.0
O390 O 0.16002 0.30201 0.78687 0.0
O391 O 0.14933 0.27182 0.76468 0.0
Co392 Co 0.46722 0.60192 0.00856 0.0
O393 O 0.45443 0.62733 0.02306 0.0
O394 O 0.44471 0.59808 0.05923 0.0
C395 C 0.46996 0.60616 0.91489 0.0
O396 O 0.47633 0.57265 0.00133 0.0
Co397 Co 0.51063 0.60039 0.96141 0.0
O398 O 0.50567 0.57109 0.95452 0.0
C399 C 0.50455 0.60851 0.08203 0.0
C400 C 0.4421 0.61744 0.05497 0.0
C401 C 0.49074 0.5626 0.9783 0.0
O402 O 0.48555 0.60579 0.0752 0.0
O403 O 0.51712 0.60824 0.04124 0.0
O404 O 0.45317 0.59989 0.93673 0.0
O405 O 0.4838 0.61135 0.95043 0.0
Co406 Co 0.154 0.72404 0.74696 0.0
O407 O 0.12692 0.71468 0.75304 0.0
O408 O 0.15322 0.698 0.78597 0.0
C409 C 0.15184 0.73336 0.65567 0.0
O410 O 0.18437 0.73004 0.74631 0.0
Co411 Co 0.15969 0.76987 0.72261 0.0
O412 O 0.18818 0.76175 0.71388 0.0
C413 C 0.15001 0.75653 0.83757 0.0
C414 C 0.13372 0.69913 0.77997 0.0
C415 C 0.19551 0.74501 0.73058 0.0
O416 O 0.15133 0.73813 0.82143 0.0
O417 O 0.15155 0.77153 0.80389 0.0
O418 O 0.15543 0.7147 0.66897 0.0
O419 O 0.14765 0.74502 0.69742 0.0
Co420 Co 0.03471 0.40541 0.49779 0.0
O421 O 0.04605 0.37993 0.51937 0.0
O422 O 0.05898 0.40941 0.54321 0.0
C423 C 0.02944 0.39734 0.4074 0.0
O424 O 0.02652 0.43478 0.48168 0.0
Co425 Co 0.99015 0.40672 0.45439 0.0
O426 O 0.99779 0.43425 0.43068 0.0
C427 C 0.99852 0.40301 0.57589 0.0
C428 C 0.05997 0.38983 0.54557 0.0
C429 C 0.01263 0.44365 0.45234 0.0
O430 O 0.01749 0.4052 0.56688 0.0
O431 O 0.98529 0.402 0.53667 0.0
O432 O 0.04713 0.40345 0.42361 0.0
O433 O 0.01642 0.39464 0.44678 0.0
Co434 Co 0.35511 0.30097 0.26426 0.0
O435 O 0.38058 0.31449 0.27104 0.0
O436 O 0.35255 0.32438 0.3131 0.0
C437 C 0.35659 0.29741 0.16996 0.0
O438 O 0.32589 0.29097 0.26409 0.0
Co439 Co 0.35385 0.25705 0.21937 0.0
O440 O 0.32436 0.26144 0.21784 0.0
C441 C 0.36442 0.26436 0.33845 0.0
C442 C 0.37155 0.32747 0.30274 0.0
C443 C 0.31587 0.27609 0.24301 0.0
O444 O 0.36137 0.28335 0.33142 0.0
O445 O 0.36353 0.25161 0.29813 0.0
O446 O 0.35049 0.31421 0.192 0.0
O447 O 0.36324 0.28411 0.20522 0.0
H448 H 0.98729 0.11474 0.68593 0.0
H449 H 0.04871 0.11057 0.62773 0.0
H450 H 0.0608 0.11143 0.7249 0.0
H451 H 0.05385 0.1115 0.82646 0.0
H452 H 0.99254 0.11623 0.88452 0.0
H453 H 0.98047 0.11687 0.78711 0.0
C454 C 1.00334 0.11415 0.69436 0.0
C455 C 0.01705 0.11243 0.64948 0.0
C456 C 0.01019 0.11454 0.7503 0.0
C457 C 0.0378 0.11191 0.66133 0.0
C458 C 0.04474 0.11228 0.71694 0.0
C459 C 0.03785 0.11268 0.81774 0.0
C460 C 0.02408 0.11361 0.86249 0.0
C461 C 0.03106 0.11325 0.76173 0.0
C462 C 1.00342 0.11542 0.85072 0.0
C463 C 0.99652 0.11579 0.79507 0.0
H464 H 0.15923 0.79103 0.89291 0.0
H465 H 0.13765 0.73048 0.91975 0.0
H466 H 0.1386 0.73564 0.02156 0.0
H467 H 0.14728 0.75677 0.10304 0.0
H468 H 0.17004 0.81682 0.07556 0.0
H469 H 0.16694 0.81239 0.97392 0.0
C470 C 0.15445 0.77905 0.92094 0.0
C471 C 0.14838 0.76041 0.89871 0.0
C472 C 0.15545 0.78194 0.97938 0.0
C473 C 0.14245 0.74497 0.93575 0.0
C474 C 0.14303 0.74788 -0.00601 0.0
C475 C 0.15149 0.76889 0.07477 0.0
C476 C 0.15895 0.78705 0.09672 0.0
C477 C 0.14983 0.76619 0.01629 0.0
C478 C 0.16435 0.80264 0.05966 0.0
C479 C 0.16254 0.80015 0.00153 0.0
H480 H 0.4803 0.90733 0.14874 0.0
H481 H 0.54251 0.89226 0.18077 0.0
H482 H 0.53604 0.89158 0.2821 0.0
H483 H 0.51284 0.89655 0.36254 0.0
H484 H 0.45104 0.9129 0.3288 0.0
H485 H 0.45728 0.91186 0.22796 0.0
C486 C 0.49241 0.90363 0.17774 0.0
C487 C 0.51183 0.89978 0.15687 0.0
C488 C 0.48871 0.9037 0.23609 0.0
C489 C 0.52738 0.89529 0.19546 0.0
C490 C 0.52372 0.89495 0.25355 0.0
C491 C 0.50077 0.89984 0.33305 0.0
C492 C 0.48151 0.90482 0.35345 0.0
C493 C 0.50448 0.89937 0.27451 0.0
C494 C 0.46604 0.90909 0.31454 0.0
C495 C 0.46956 0.90845 0.25665 0.0
H496 H 0.36906 0.28594 0.43549 0.0
H497 H 0.36495 0.22505 0.37282 0.0
H498 H 0.36395 0.2122 0.46886 0.0
H499 H 0.3619 0.21827 0.57066 0.0
H500 H 0.36691 0.27889 0.6338 0.0
H501 H 0.36977 0.29178 0.53766 0.0
C502 C 0.36818 0.26984 0.44273 0.0
C503 C 0.3669 0.25655 0.39671 0.0
C504 C 0.3675 0.26248 0.49824 0.0
C505 C 0.36593 0.2357 0.40718 0.0
C506 C 0.36523 0.2283 0.46221 0.0
C507 C 0.36366 0.23429 0.5633 0.0
C508 C 0.36393 0.24763 0.6091 0.0
C509 C 0.36557 0.24156 0.508 0.0
C510 C 0.36654 0.26832 0.59915 0.0
C511 C 0.36819 0.2757 0.54419 0.0
H512 H 0.03781 0.90896 0.84281 0.0
H513 H 0.97602 0.89178 0.81355 0.0
H514 H 0.98227 0.89003 0.7123 0.0
H515 H 1.00518 0.89443 0.63109 0.0
H516 H 0.06659 0.91272 0.66184 0.0
H517 H 0.06054 0.91304 0.76277 0.0
C518 C 0.02576 0.90459 0.81442 0.0
C519 C 1.00651 0.90046 0.83596 0.0
C520 C 0.02933 0.90399 0.7561 0.0
C521 C 0.99101 0.89507 0.79825 0.0
C522 C 0.99455 0.8941 0.74021 0.0
C523 C 0.01719 0.89847 0.65995 0.0
C524 C 0.03628 0.90355 0.63876 0.0
C525 C 0.01361 0.89875 0.7185 0.0
C526 C 0.05171 0.90878 0.67679 0.0
C527 C 0.04831 0.90893 0.73472 0.0
H528 H 0.36142 0.8017 0.89984 0.0
H529 H 0.36771 0.73912 0.85415 0.0
H530 H 0.37152 0.72987 0.95277 0.0
H531 H 0.37168 0.7392 0.05148 0.0
H532 H 0.36528 0.80157 0.09924 0.0
H533 H 0.36341 0.81132 -3e-05 0.0
C534 C 0.36361 0.78607 0.91164 0.0
C535 C 0.36406 0.7711 0.87004 0.0
C536 C 0.36595 0.78083 0.96852 0.0
C537 C 0.36717 0.75091 0.88554 0.0
C538 C 0.36941 0.74559 0.94187 0.0
C539 C 0.37 0.75497 0.04031 0.0
C540 C 0.36842 0.7696 0.08257 0.0
C541 C 0.36865 0.7604 0.98362 0.0
C542 C 0.36656 0.78999 0.06738 0.0
C543 C 0.36534 0.79557 0.0107 0.0
H544 H 0.50549 0.11679 0.10176 0.0
H545 H 0.44388 0.09865 0.12867 0.0
H546 H 0.44926 0.09919 0.23049 0.0
H547 H 0.47156 0.10419 0.31162 0.0
H548 H 0.53357 0.12109 0.28495 0.0
H549 H 0.52788 0.12176 0.18321 0.0
C550 C 0.49324 0.11298 0.12993 0.0
C551 C 0.47432 0.1077 0.10776 0.0
C552 C 0.49649 0.11315 0.18841 0.0
C553 C 0.45861 0.10272 0.14472 0.0
C554 C 0.46165 0.10307 0.20294 0.0
C555 C 0.4838 0.10822 0.28364 0.0
C556 C 0.50293 0.11267 0.30594 0.0
C557 C 0.48054 0.10822 0.22522 0.0
C558 C 0.51869 0.11758 0.26894 0.0
C559 C 0.51546 0.11795 0.21074 0.0
H560 H 0.14519 0.27726 0.54338 0.0
H561 H 0.15625 0.21567 0.59339 0.0
H562 H 0.1557 0.20523 0.49482 0.0
H563 H 0.15403 0.21404 0.39424 0.0
H564 H 0.14275 0.27572 0.34563 0.0
H565 H 0.14153 0.28567 0.44411 0.0
C566 C 0.14741 0.26153 0.5328 0.0
C567 C 0.15095 0.24731 0.57546 0.0
C568 C 0.14719 0.25566 0.47636 0.0
C569 C 0.15349 0.22693 0.56119 0.0
C570 C 0.15328 0.22095 0.50489 0.0
C571 C 0.15124 0.22962 0.40534 0.0
C572 C 0.14874 0.24415 0.36295 0.0
C573 C 0.15047 0.23526 0.46211 0.0
C574 C 0.14491 0.26427 0.37763 0.0
C575 C 0.14418 0.26999 0.43389 0.0
H576 H 0.97883 0.90793 0.34285 0.0
H577 H 0.03889 0.88594 0.31115 0.0
H578 H 0.03253 0.8871 0.20965 0.0
H579 H 0.01015 0.89552 0.12919 0.0
H580 H 0.9506 0.91859 0.16265 0.0
H581 H 0.95661 0.91597 0.26357 0.0
C582 C 0.99047 0.90311 0.31388 0.0
C583 C 0.00927 0.89675 0.33488 0.0
C584 C 0.98689 0.90424 0.25552 0.0
C585 C 0.02424 0.89087 0.29635 0.0
C586 C 0.02065 0.8916 0.23818 0.0
C587 C 0.99853 0.89998 0.15863 0.0
C588 C 0.97996 0.90726 0.13817 0.0
C589 C 1.0021 0.89851 0.21716 0.0
C590 C 0.96506 0.91297 0.17699 0.0
C591 C 0.96844 0.91143 0.2349 0.0
H592 H 0.85432 0.22254 0.08957 0.0
H593 H 0.87911 0.28154 0.05858 0.0
H594 H 0.87835 0.27533 0.95712 0.0
H595 H 0.86935 0.25353 0.87646 0.0
H596 H 0.8434 0.19511 0.90883 0.0
H597 H 0.84581 0.20078 0.0099 0.0
C598 C 0.85984 0.23395 0.06075 0.0
C599 C 0.86685 0.25244 0.08191 0.0
C600 C 0.85893 0.23048 0.00235 0.0
C601 C 0.87364 0.26714 0.04362 0.0
C602 C 0.87315 0.26364 0.98548 0.0
C603 C 0.86424 0.24206 0.90569 0.0
C604 C 0.85617 0.22394 0.88491 0.0
C605 C 0.86557 0.24545 0.96424 0.0
C606 C 0.84961 0.20924 0.92345 0.0
C607 C 0.85104 0.21243 0.98143 0.0
H608 H 0.48289 0.11722 0.78235 0.0
H609 H 0.54409 0.11546 0.8446 0.0
H610 H 0.55667 0.11484 0.74828 0.0
H611 H 0.55033 0.1128 0.64649 0.0
H612 H 0.48929 0.11516 0.58408 0.0
H613 H 0.47664 0.11738 0.68047 0.0
C614 C 0.499 0.11688 0.77498 0.0
C615 C 0.51248 0.11622 0.82088 0.0
C616 C 0.50617 0.11639 0.71945 0.0
C617 C 0.53332 0.11597 0.81027 0.0
C618 C 0.54056 0.11549 0.75513 0.0
C619 C 0.53426 0.11381 0.65405 0.0
C620 C 0.52074 0.11359 0.6084 0.0
C621 C 0.52712 0.11532 0.70946 0.0
C622 C 0.49998 0.11521 0.61862 0.0
C623 C 0.49274 0.11649 0.67369 0.0
H624 H 0.64231 0.7414 0.53581 0.0
H625 H 0.66187 0.80088 0.58414 0.0
H626 H 0.66216 0.81129 0.48534 0.0
H627 H 0.65879 0.80275 0.38505 0.0
H628 H 0.63867 0.7433 0.33803 0.0
H629 H 0.6367 0.73361 0.43679 0.0
C630 C 0.64655 0.75667 0.52476 0.0
C631 C 0.65226 0.77028 0.56694 0.0
C632 C 0.64671 0.76251 0.46822 0.0
C633 C 0.65741 0.79012 0.55223 0.0
C634 C 0.65768 0.79606 0.49582 0.0
C635 C 0.6539 0.78772 0.39655 0.0
C636 C 0.64915 0.77369 0.35452 0.0
C637 C 0.65267 0.78226 0.45345 0.0
C638 C 0.64259 0.75433 0.36973 0.0
C639 C 0.64144 0.74876 0.42615 0.0
H640 H 0.00874 0.11652 0.36893 0.0
H641 H 0.94827 0.09476 0.34193 0.0
H642 H 0.95274 0.09751 0.24012 0.0
H643 H 0.97417 0.105 0.15889 0.0
H644 H 0.03513 0.12544 0.18568 0.0
H645 H 0.03003 0.12451 0.28753 0.0
C646 C 0.99653 0.11242 0.34075 0.0
C647 C 0.97822 0.10541 0.36288 0.0
C648 C 0.99926 0.11388 0.28228 0.0
C649 C 0.96255 0.10012 0.3259 0.0
C650 C 0.96507 0.10174 0.26769 0.0
C651 C 0.98626 0.10952 0.18696 0.0
C652 C 1.00497 0.11534 0.1647 0.0
C653 C 0.98339 0.1085 0.24543 0.0
C654 C 0.02058 0.12087 0.20173 0.0
C655 C 0.0177 0.1203 0.25997 0.0
H656 H 0.64873 0.26489 0.1143 0.0
H657 H 0.66238 0.20203 0.08909 0.0
H658 H 0.66127 0.20686 0.98712 0.0
H659 H 0.65739 0.2291 0.90522 0.0
H660 H 0.64497 0.29225 0.9305 0.0
H661 H 0.64445 0.28708 0.03228 0.0
C662 C 0.65142 0.25225 0.08646 0.0
C663 C 0.65567 0.23316 0.10914 0.0
C664 C 0.65092 0.25516 0.02789 0.0
C665 C 0.65915 0.21692 0.07262 0.0
C666 C 0.65848 0.21964 0.01431 0.0
C667 C 0.65435 0.2417 0.93293 0.0
C668 C 0.65119 0.26101 0.9102 0.0
C669 C 0.65447 0.23872 -0.00851 0.0
C670 C 0.6475 0.27722 0.94683 0.0
C671 C 0.64723 0.2743 0.00508 0.0
H672 H 0.53935 0.9099 0.64926 0.0
H673 H 0.47857 0.89001 0.68057 0.0
H674 H 0.48514 0.88989 0.78198 0.0
H675 H 0.50792 0.89665 0.8626 0.0
H676 H 0.56819 0.9178 0.82975 0.0
H677 H 0.56199 0.91628 0.72877 0.0
C678 C 0.52759 0.90529 0.67814 0.0
C679 C 0.50852 0.8999 0.65707 0.0
C680 C 0.53131 0.90567 0.73651 0.0
C681 C 0.49341 0.89424 0.69545 0.0
C682 C 0.49713 0.89421 0.75357 0.0
C683 C 0.51967 0.90089 0.83328 0.0
C684 C 0.53848 0.90735 0.85392 0.0
C685 C 0.51597 0.90014 0.77473 0.0
C686 C 0.55354 0.91283 0.81526 0.0
C687 C 0.55004 0.91192 0.75731 0.0
H688 H 0.86442 0.79635 0.57333 0.0
H689 H 0.86406 0.73522 0.635 0.0
H690 H 0.86434 0.72258 0.53842 0.0
H691 H 0.86348 0.72891 0.43657 0.0
H692 H 0.86458 0.79012 0.37484 0.0
H693 H 0.86553 0.80265 0.47129 0.0
C694 C 0.86443 0.78027 0.56557 0.0
C695 C 0.86404 0.76674 0.61118 0.0
C696 C 0.86481 0.77311 0.50994 0.0
C697 C 0.86429 0.74594 0.60059 0.0
C698 C 0.86446 0.7387 0.54537 0.0
C699 C 0.86406 0.745 0.44409 0.0
C700 C 0.86383 0.75852 0.3983 0.0
C701 C 0.86456 0.75215 0.49972 0.0
C702 C 0.86477 0.77932 0.40908 0.0
C703 C 0.86521 0.78654 0.46432 0.0
H704 H 0.48284 0.61545 0.17701 0.0
H705 H 0.54364 0.60603 0.1185 0.0
H706 H 0.55586 0.60609 0.21557 0.0
H707 H 0.54911 0.60732 0.31722 0.0
H708 H 0.48845 0.61732 0.37549 0.0
H709 H 0.47634 0.61841 0.27819 0.0
C710 C 0.49879 0.61353 0.18535 0.0
C711 C 0.51226 0.61063 0.14039 0.0
C712 C 0.50573 0.61351 0.24124 0.0
C713 C 0.53291 0.60835 0.15215 0.0
C714 C 0.53992 0.60827 0.20771 0.0
C715 C 0.53324 0.60974 0.30858 0.0
C716 C 0.51966 0.61206 0.35339 0.0
C717 C 0.52643 0.61056 0.25258 0.0
C718 C 0.49919 0.61543 0.34166 0.0
C719 C 0.49226 0.61606 0.28607 0.0
H720 H 0.64785 0.24308 0.43267 0.0
H721 H 0.65611 0.30394 0.37262 0.0
H722 H 0.65636 0.31621 0.46944 0.0
H723 H 0.65602 0.30947 0.57119 0.0
H724 H 0.64738 0.24872 0.6311 0.0
H725 H 0.64562 0.23659 0.53407 0.0
C726 C 0.64959 0.25906 0.44062 0.0
C727 C 0.65213 0.27253 0.39532 0.0
C728 C 0.64984 0.26601 0.49636 0.0
C729 C 0.65413 0.29321 0.40656 0.0
C730 C 0.65438 0.30025 0.46197 0.0
C731 C 0.65373 0.29357 0.56296 0.0
C732 C 0.65202 0.27997 0.60812 0.0
C733 C 0.65257 0.28674 0.50716 0.0
C734 C 0.64882 0.25947 0.59698 0.0
C735 C 0.6478 0.25253 0.54155 0.0
H736 H 0.02089 0.39336 0.66699 0.0
H737 H 0.96091 0.41111 0.61665 0.0
H738 H 0.95056 0.41216 0.71535 0.0
H739 H 0.95906 0.40927 0.81609 0.0
H740 H 0.01905 0.39088 0.86474 0.0
H741 H 0.02889 0.38893 0.7663 0.0
C742 C 1.00554 0.39743 0.67755 0.0
C743 C 0.99174 0.40229 0.63478 0.0
C744 C 0.99972 0.39799 0.734 0.0
C745 C 0.97181 0.40725 0.64898 0.0
C746 C 0.9659 0.40795 0.70534 0.0
C747 C 0.97426 0.40481 0.805 0.0
C748 C 0.98836 0.40043 0.84745 0.0
C749 C 0.97981 0.40355 0.74821 0.0
C750 C 0.00795 0.39447 0.83275 0.0
C751 C 0.01361 0.39333 0.7765 0.0
H752 H 0.86599 0.75056 0.11657 0.0
H753 H 0.84326 0.69044 0.0906 0.0
H754 H 0.84458 0.69532 0.9887 0.0
H755 H 0.85132 0.71693 0.9071 0.0
H756 H 0.87281 0.77753 0.93301 0.0
H757 H 0.87297 0.77213 0.0348 0.0
C758 C 0.86138 0.73852 0.08858 0.0
C759 C 0.85453 0.72019 0.111 0.0
C760 C 0.86199 0.74149 0.03005 0.0
C761 C 0.84854 0.70473 0.0743 0.0
C762 C 0.84932 0.70748 0.01604 0.0
C763 C 0.85625 0.72888 0.93497 0.0
C764 C 0.86207 0.74757 0.91251 0.0
C765 C 0.85594 0.72582 -0.00654 0.0
C766 C 0.86818 0.76301 0.94925 0.0
C767 C 0.86827 0.75995 0.00746 0.0
H768 H 0.5527 0.40848 0.16768 0.0
H769 H 0.49055 0.39951 0.12018 0.0
H770 H 0.4806 0.39993 0.21875 0.0
H771 H 0.48951 0.40243 0.31791 0.0
H772 H 0.55172 0.41057 0.36663 0.0
H773 H 0.56171 0.41063 0.26784 0.0
C774 C 0.53699 0.40673 0.17905 0.0
C775 C 0.52238 0.40405 0.13704 0.0
C776 C 0.5314 0.40665 0.23582 0.0
C777 C 0.50207 0.40162 0.15197 0.0
C778 C 0.49636 0.40182 0.20826 0.0
C779 C 0.50527 0.4042 0.30704 0.0
C780 C 0.51982 0.40649 0.34948 0.0
C781 C 0.51091 0.40422 0.25045 0.0
C782 C 0.5402 0.40865 0.33468 0.0
C783 C 0.54594 0.40879 0.27825 0.0
H784 H 0.86971 0.24901 0.37777 0.0
H785 H 0.85214 0.31067 0.40725 0.0
H786 H 0.85255 0.30488 0.50845 0.0
H787 H 0.85706 0.2823 0.58913 0.0
H788 H 0.87341 0.22026 0.56103 0.0
H789 H 0.87454 0.22628 0.45949 0.0
C790 C 0.86597 0.26114 0.40641 0.0
C791 C 0.86089 0.28022 0.38477 0.0
C792 C 0.86614 0.25771 0.46509 0.0
C793 C 0.85607 0.29579 0.42254 0.0
C794 C 0.85635 0.29254 0.48061 0.0
C795 C 0.86116 0.27015 0.56092 0.0
C796 C 0.86524 0.25091 0.58287 0.0
C797 C 0.86133 0.27358 0.50243 0.0
C798 C 0.87021 0.23527 0.5454 0.0
C799 C 0.8708 0.23866 0.48721 0.0
H800 H 0.97104 0.59765 0.82609 0.0
H801 H 0.03224 0.61753 0.80124 0.0
H802 H 0.02706 0.61771 0.69934 0.0
H803 H 1.0054 0.61145 0.61722 0.0
H804 H 0.9447 0.59017 0.64194 0.0
H805 H 0.94944 0.59128 0.74397 0.0
C806 C 0.98317 0.60222 0.79839 0.0
C807 C 1.00195 0.60763 0.82119 0.0
C808 C 0.98023 0.60191 0.73983 0.0
C809 C 0.01764 0.61324 0.78472 0.0
C810 C 0.0147 0.61335 0.72646 0.0
C811 C 0.99321 0.60709 0.64496 0.0
C812 C 0.97474 0.60075 0.62216 0.0
C813 C 0.99611 0.60755 0.70354 0.0
C814 C 0.9591 0.59505 0.65854 0.0
C815 C 0.96177 0.59572 0.71687 0.0
H816 H 0.64602 0.77124 0.03488 0.0
H817 H 0.65124 0.70895 0.08517 0.0
H818 H 0.65135 0.69866 0.98633 0.0
H819 H 0.65174 0.70768 0.88556 0.0
H820 H 0.64602 0.77014 0.8371 0.0
H821 H 0.64449 0.78003 0.93555 0.0
C822 C 0.64712 0.75539 0.02431 0.0
C823 C 0.64883 0.74091 0.06714 0.0
C824 C 0.64726 0.74963 0.96779 0.0
C825 C 0.64991 0.72041 0.05283 0.0
C826 C 0.65008 0.71452 -0.00361 0.0
C827 C 0.65014 0.72343 0.8967 0.0
C828 C 0.64924 0.73816 0.85431 0.0
C829 C 0.64908 0.72904 0.95352 0.0
C830 C 0.64691 0.75851 0.86904 0.0
C831 C 0.646 0.7642 0.92531 0.0
H832 H 0.52351 0.38798 0.81746 0.0
H833 H 0.46099 0.39154 0.86646 0.0
H834 H 0.45096 0.39416 0.76783 0.0
H835 H 0.46033 0.39966 0.66902 0.0
H836 H 0.52291 0.39666 0.62113 0.0
H837 H 0.53255 0.38995 0.71847 0.0
C838 C 0.50765 0.38905 0.80666 0.0
C839 C 0.49308 0.39004 0.84925 0.0
C840 C 0.50203 0.39112 0.75027 0.0
C841 C 0.47256 0.39095 0.83447 0.0
C842 C 0.4668 0.39263 0.77813 0.0
C843 C 0.47605 0.39752 0.68007 0.0
C844 C 0.49093 0.39906 0.63859 0.0
C845 C 0.48148 0.39353 0.73596 0.0
C846 C 0.51122 0.3958 0.65274 0.0
C847 C 0.51675 0.39188 0.70825 0.0
H848 H 0.35749 0.70736 0.40029 0.0
H849 H 0.37564 0.76779 0.35637 0.0
H850 H 0.37724 0.7768 0.45563 0.0
H851 H 0.37173 0.76814 0.55392 0.0
H852 H 0.35378 0.70781 0.59931 0.0
H853 H 0.35424 0.69799 0.50009 0.0
C854 C 0.36184 0.72246 0.41258 0.0
C855 C 0.36617 0.73697 0.37134 0.0
C856 C 0.36284 0.72753 0.46971 0.0
C857 C 0.37208 0.75641 0.38751 0.0
C858 C 0.37302 0.76159 0.44418 0.0
C859 C 0.36799 0.75281 0.54216 0.0
C860 C 0.36246 0.73878 0.58354 0.0
C861 C 0.36815 0.74735 0.48547 0.0
C862 C 0.35805 0.71887 0.56799 0.0
C863 C 0.3582 0.71329 0.51135 0.0
H864 H 0.05051 0.61078 0.16055 0.0
H865 H 0.98934 0.61208 0.09887 0.0
H866 H 0.97679 0.61367 0.19542 0.0
H867 H 0.98316 0.61304 0.29729 0.0
H868 H 0.04445 0.61248 0.3589 0.0
H869 H 0.05693 0.61265 0.26243 0.0
C870 C 0.03443 0.61146 0.1683 0.0
C871 C 0.02086 0.61108 0.12276 0.0
C872 C 0.02733 0.61261 0.22386 0.0
C873 C 1.00009 0.61226 0.13327 0.0
C874 C 0.9929 0.61317 0.18846 0.0
C875 C 0.99926 0.61314 0.28974 0.0
C876 C 0.01281 0.61257 0.3355 0.0
C877 C 1.00638 0.61314 0.23409 0.0
C878 C 0.03363 0.61292 0.32468 0.0
C879 C 0.04081 0.6129 0.26943 0.0
H880 H 0.15808 0.30908 0.89406 0.0
H881 H 0.14472 0.24779 0.84661 0.0
H882 H 0.14267 0.23809 0.94528 0.0
H883 H 0.14582 0.24661 0.0443 0.0
H884 H 0.15897 0.30776 0.0935 0.0
H885 H 0.15957 0.31802 -0.00545 0.0
C886 C 0.15471 0.29363 0.90547 0.0
C887 C 0.15178 0.27913 0.86337 0.0
C888 C 0.15341 0.28815 0.96234 0.0
C889 C 0.14719 0.2592 0.87839 0.0
C890 C 0.14597 0.25362 0.93475 0.0
C891 C 0.14878 0.26221 0.03348 0.0
C892 C 0.15256 0.27635 0.07597 0.0
C893 C 0.14924 0.26793 0.97693 0.0
C894 C 0.15602 0.29657 0.06139 0.0
C895 C 0.15648 0.30243 0.0049 0.0
H896 H 0.46885 0.60742 0.64944 0.0
H897 H 0.53121 0.62315 0.67642 0.0
H898 H 0.52602 0.62266 0.7782 0.0
H899 H 0.50418 0.6163 0.85954 0.0
H900 H 0.44218 0.59936 0.83245 0.0
H901 H 0.44687 0.60173 0.73065 0.0
C902 C 0.48125 0.61101 0.67752 0.0
C903 C 0.50037 0.61534 0.65531 0.0
C904 C 0.47829 0.61027 0.736 0.0
C905 C 0.51633 0.61972 0.6924 0.0
C906 C 0.51341 0.6194 0.75062 0.0
C907 C 0.49169 0.61316 0.83134 0.0
C908 C 0.47289 0.60759 0.85343 0.0
C909 C 0.49453 0.61441 0.77288 0.0
C910 C 0.45684 0.60358 0.81644 0.0
C911 C 0.45949 0.60498 0.75824 0.0
H912 H 0.15473 0.77794 0.42118 0.0
H913 H 0.15511 0.71654 0.36157 0.0
H914 H 0.15347 0.70428 0.45845 0.0
H915 H 0.15293 0.71095 0.5603 0.0
H916 H 0.15182 0.7723 0.61951 0.0
H917 H 0.15289 0.78459 0.5225 0.0
C918 C 0.1544 0.76186 0.42924 0.0
C919 C 0.15516 0.7482 0.384 0.0
C920 C 0.15347 0.75489 0.48503 0.0
C921 C 0.15451 0.72743 0.39543 0.0
C922 C 0.15366 0.72038 0.45089 0.0
C923 C 0.15296 0.727 0.55192 0.0
C924 C 0.15244 0.7407 0.59695 0.0
C925 C 0.15334 0.73397 0.49601 0.0
C926 C 0.15226 0.76145 0.58554 0.0
C927 C 0.15286 0.7685 0.53009 0.0
H928 H 0.99034 0.39305 0.16703 0.0
H929 H 0.05221 0.40191 0.11748 0.0
H930 H 0.06276 0.40095 0.21612 0.0
H931 H 0.05401 0.39979 0.31664 0.0
H932 H 0.99208 0.39048 0.36495 0.0
H933 H 0.98196 0.38951 0.26638 0.0
C934 C 1.00615 0.3947 0.17776 0.0
C935 C 0.02043 0.39779 0.13521 0.0
C936 C 0.01208 0.39421 0.23426 0.0
C937 C 0.04091 0.39953 0.1496 0.0
C938 C 0.04695 0.39909 0.20595 0.0
C939 C 0.03833 0.39747 0.30546 0.0
C940 C 0.02379 0.3955 0.34781 0.0
C941 C 0.0326 0.3968 0.24865 0.0
C942 C 1.00355 0.39223 0.33301 0.0
C943 C 0.99773 0.39165 0.27668 0.0
H944 H 0.36468 0.26258 0.11476 0.0
H945 H 0.34832 0.32474 0.0875 0.0
H946 H 0.34896 0.31958 0.98571 0.0
H947 H 0.35386 0.29738 0.90456 0.0
H948 H 0.36893 0.23486 0.93161 0.0
H949 H 0.36923 0.24024 0.0334 0.0
C950 C 0.36125 0.27498 0.08651 0.0
C951 C 0.35648 0.29401 0.10856 0.0
C952 C 0.3615 0.27188 0.02804 0.0
C953 C 0.35198 0.30993 0.07153 0.0
C954 C 0.35241 0.30701 0.01332 0.0
C955 C 0.3574 0.28497 0.93268 0.0
C956 C 0.36148 0.26579 0.9105 0.0
C957 C 0.35716 0.28806 -0.00887 0.0
C958 C 0.36573 0.24979 0.94759 0.0
C959 C 0.36589 0.25284 0.0058 0.0
H960 H 0.98435 0.04422 0.96484 0.0
H961 H 0.04599 0.04328 0.02364 0.0
H962 H 0.04441 0.00664 0.03256 0.0
H963 H 0.02547 0.97511 0.02517 0.0
H964 H 0.96379 0.97607 0.96668 0.0
H965 H 0.9655 0.01267 0.95665 0.0
C966 C 0.99754 0.03609 0.97938 0.0
C967 C 0.01531 0.04665 -0.00648 0.0
C968 C 0.99647 0.01505 0.9849 0.0
C969 C 0.03214 0.03566 0.01235 0.0
C970 C 0.03122 0.01469 0.01763 0.0
C971 C 0.0123 0.98324 0.01038 0.0
C972 C 0.99445 0.97271 -0.00309 0.0
C973 C 0.01343 1.00426 0.0044 0.0
C974 C 0.97769 0.98367 0.97754 0.0
C975 C 0.97868 1.00462 0.97166 0.0
H976 H 0.23099 0.78158 0.28284 0.0
H977 H 0.22471 0.74142 0.14112 0.0
H978 H 0.26068 0.73415 0.14406 0.0
H979 H 0.29402 0.73898 0.187 0.0
H980 H 0.30035 0.7792 0.32854 0.0
H981 H 0.26435 0.78639 0.32586 0.0
C982 C 0.23752 0.77141 0.25221 0.0
C983 C 0.22512 0.76213 0.21177 0.0
C984 C 0.25824 0.76707 0.25448 0.0
C985 C 0.23385 0.74879 0.17283 0.0
C986 C 0.25444 0.74455 0.17453 0.0
C987 C 0.2875 0.74915 0.21764 0.0
C988 C 0.29991 0.75849 0.25793 0.0
C989 C 0.26677 0.75347 0.21543 0.0
C990 C 0.29119 0.77182 0.29692 0.0
C991 C 0.27058 0.77601 0.29536 0.0
H992 H 0.48273 0.0418 0.51391 0.0
H993 H 0.54428 0.04147 0.45545 0.0
H994 H 0.54358 1.00474 0.45105 0.0
H995 H 0.52543 0.97292 0.46203 0.0
H996 H 0.46386 0.97313 0.52028 0.0
H997 H 0.46469 0.00988 0.5261 0.0
C998 C 0.49609 0.03377 0.50041 0.0
C999 C 0.51357 0.04455 0.48498 0.0
C1000 C 0.49553 0.01265 0.49755 0.0
C1001 C 0.53064 0.0337 0.46763 0.0
C1002 C 0.53022 0.01267 0.46494 0.0
C1003 C 0.5121 0.98091 0.4759 0.0
C1004 C 0.49453 0.97013 0.49047 0.0
C1005 C 0.51271 1.00201 0.47941 0.0
C1006 C 0.47755 0.98092 0.50863 0.0
C1007 C 0.47803 1.00196 0.51206 0.0
H1008 H 0.28907 0.24418 0.79442 0.0
H1009 H 0.29659 0.27946 0.6433 0.0
H1010 H 0.26038 0.28609 0.63979 0.0
H1011 H 0.22627 0.28182 0.67983 0.0
H1012 H 0.21935 0.24726 0.83274 0.0
H1013 H 0.2554 0.24081 0.83582 0.0
C1014 C 0.28273 0.25309 0.76034 0.0
C1015 C 0.29549 0.2611 0.71888 0.0
C1016 C 0.26194 0.2573 0.75934 0.0
C1017 C 0.28708 0.27301 0.67565 0.0
C1018 C 0.26637 0.27691 0.67374 0.0
C1019 C 0.23271 0.27316 0.71424 0.0
C1020 C 0.22002 0.26503 0.75584 0.0
C1021 C 0.25362 0.26927 0.71561 0.0
C1022 C 0.22867 0.25364 0.79987 0.0
C1023 C 0.24933 0.24984 0.80165 0.0
H1024 H 0.99415 0.96901 0.53295 0.0
H1025 H 0.05323 0.96967 0.45738 0.0
H1026 H 0.05083 1.0063 0.44578 0.0
H1027 H 0.03163 0.03799 0.45647 0.0
H1028 H 0.97238 0.03622 0.53128 0.0
H1029 H 0.97522 0.99996 0.54313 0.0
C1030 C 0.00664 0.97703 0.51404 0.0
C1031 C 0.0239 0.96646 0.49615 0.0
C1032 C 1.00506 0.99789 0.50696 0.0
C1033 C 0.0398 0.97734 0.47172 0.0
C1034 C 0.03839 0.99828 0.4649 0.0
C1035 C 0.01928 0.02969 0.47513 0.0
C1036 C 1.00178 0.03995 0.49289 0.0
C1037 C 0.02102 0.0087 0.48212 0.0
C1038 C 0.98601 0.02885 0.51717 0.0
C1039 C 0.98763 0.00807 0.52412 0.0
H1040 H 0.22251 0.77454 0.7067 0.0
H1041 H 0.21903 0.71315 0.76635 0.0
H1042 H 0.25563 0.71267 0.77931 0.0
H1043 H 0.28843 0.72978 0.77421 0.0
H1044 H 0.29144 0.79123 0.71463 0.0
H1045 H 0.25495 0.79157 0.70197 0.0
C1046 C 0.22963 0.76093 0.72235 0.0
C1047 C 0.21786 0.74385 0.73538 0.0
C1048 C 0.25058 0.76085 0.73027 0.0
C1049 C 0.22759 0.72648 0.75573 0.0
C1050 C 0.24854 0.72624 0.76338 0.0
C1051 C 0.28116 0.74335 0.75883 0.0
C1052 C 0.29281 0.76052 0.74559 0.0
C1053 C 0.26015 0.74339 0.75107 0.0
C1054 C 0.28298 0.77784 0.72535 0.0
C1055 C 0.26209 0.77801 0.71788 0.0
H1056 H 0.4912 0.97203 0.94895 0.0
H1057 H 0.54942 0.97627 0.02977 0.0
H1058 H 0.54561 0.01282 0.03581 0.0
H1059 H 0.52572 0.04341 0.01897 0.0
H1060 H 0.46754 0.03914 0.93791 0.0
H1061 H 0.47141 1.00261 0.9316 0.0
C1062 C 0.50315 0.98087 0.96784 0.0
C1063 C 0.52063 0.97125 0.98891 0.0
C1064 C 0.50082 1.00187 0.97141 0.0
C1065 C 0.53585 0.98314 0.01311 0.0
C1066 C 0.53365 1.00407 0.01671 0.0
C1067 C 0.51379 0.03456 3e-05 0.0
C1068 C 0.49628 0.04417 0.97908 0.0
C1069 C 0.51617 0.01357 -0.00379 0.0
C1070 C 0.48113 0.03228 0.95449 0.0
C1071 C 0.48336 0.01136 0.95078 0.0
H1072 H 0.22245 0.28477 0.28744 0.0
H1073 H 0.22227 0.22577 0.21117 0.0
H1074 H 0.25891 0.22707 0.20268 0.0
H1075 H 0.29071 0.24541 0.21352 0.0
H1076 H 0.29079 0.30459 0.28865 0.0
H1077 H 0.2543 0.30273 0.30048 0.0
C1078 C 0.23035 0.27205 0.26933 0.0
C1079 C 0.21945 0.25517 0.24988 0.0
C1080 C 0.25138 0.27302 0.2638 0.0
C1081 C 0.23014 0.23894 0.22655 0.0
C1082 C 0.25112 0.23971 0.22145 0.0
C1083 C 0.28282 0.25798 0.23242 0.0
C1084 C 0.29361 0.27521 0.24982 0.0
C1085 C 0.26184 0.25679 0.23925 0.0
C1086 C 0.28298 0.29119 0.27462 0.0
C1087 C 0.26209 0.29012 0.28151 0.0
H1088 H 0.79184 0.27537 0.76758 0.0
H1089 H 0.78786 0.21355 0.71242 0.0
H1090 H 0.7515 0.2171 0.70107 0.0
H1091 H 0.72093 0.23743 0.70785 0.0
H1092 H 0.72459 0.29917 0.7638 0.0
H1093 H 0.76114 0.29594 0.77306 0.0
C1094 C 0.78307 0.26261 0.75321 0.0
C1095 C 0.79269 0.24416 0.74112 0.0
C1096 C 0.76213 0.26476 0.74653 0.0
C1097 C 0.78096 0.2279 0.7222 0.0
C1098 C 0.76014 0.22993 0.71558 0.0
C1099 C 0.72964 0.2503 0.72176 0.0
C1100 C 0.71988 0.26856 0.73511 0.0
C1101 C 0.75058 0.24828 0.72764 0.0
C1102 C 0.7316 0.28496 0.75311 0.0
C1103 C 0.75252 0.2831 0.75864 0.0
H1104 H 0.72448 0.77163 0.18682 0.0
H1105 H 0.71362 0.72961 0.32227 0.0
H1106 H 0.74946 0.72184 0.32751 0.0
H1107 H 0.78413 0.72654 0.29282 0.0
H1108 H 0.79463 0.76841 0.15659 0.0
H1109 H 0.75896 0.77641 0.15253 0.0
C1110 C 0.72996 0.76094 0.21789 0.0
C1111 C 0.71628 0.75129 0.25404 0.0
C1112 C 0.75064 0.75628 0.22032 0.0
C1113 C 0.72373 0.73729 0.29368 0.0
C1114 C 0.74427 0.73276 0.29671 0.0
C1115 C 0.7786 0.7373 0.26202 0.0
C1116 C 0.7922 0.7468 0.22521 0.0
C1117 C 0.75789 0.74202 0.2599 0.0
C1118 C 0.78465 0.76084 0.18577 0.0
C1119 C 0.76418 0.76551 0.18334 0.0
H1120 H 0.72578 0.28008 0.20134 0.0
H1121 H 0.72495 0.22099 0.27788 0.0
H1122 H 0.76146 0.22228 0.28951 0.0
H1123 H 0.79329 0.24004 0.27895 0.0
H1124 H 0.79467 0.29907 0.20226 0.0
H1125 H 0.75801 0.29795 0.19037 0.0
C1126 C 0.73353 0.26738 0.22032 0.0
C1127 C 0.72247 0.25039 0.2386 0.0
C1128 C 0.75455 0.26828 0.22732 0.0
C1129 C 0.73293 0.23421 0.2633 0.0
C1130 C 0.75383 0.23497 0.27013 0.0
C1131 C 0.7857 0.2528 0.25972 0.0
C1132 C 0.7969 0.2697 0.24162 0.0
C1133 C 0.76475 0.25195 0.25257 0.0
C1134 C 0.78656 0.28593 0.21679 0.0
C1135 C 0.76559 0.28524 0.2098 0.0
H1136 H 0.72417 0.77815 0.76165 0.0
H1137 H 0.72126 0.71615 0.70758 0.0
H1138 H 0.75795 0.71525 0.70007 0.0
H1139 H 0.79064 0.73199 0.70849 0.0
H1140 H 0.79358 0.79402 0.76231 0.0
H1141 H 0.75688 0.79497 0.76948 0.0
C1142 C 0.73149 0.76434 0.74856 0.0
C1143 C 0.71984 0.74718 0.73547 0.0
C1144 C 0.75256 0.76399 0.74371 0.0
C1145 C 0.72974 0.72955 0.7181 0.0
C1146 C 0.75074 0.72905 0.71361 0.0
C1147 C 0.78335 0.74582 0.72151 0.0
C1148 C 0.79501 0.76295 0.73477 0.0
C1149 C 0.76227 0.7462 0.72607 0.0
C1150 C 0.7851 0.78063 0.75167 0.0
C1151 C 0.76409 0.78116 0.75602 0.0
H1152 H 0.52562 0.54182 0.55284 0.0
H1153 H 0.48808 0.54558 0.40453 0.0
H1154 H 0.48161 0.50947 0.40924 0.0
H1155 H 0.4865 0.47663 0.45554 0.0
H1156 H 0.52386 0.47288 0.60427 0.0
H1157 H 0.53013 0.50901 0.59994 0.0
C1158 C 0.51627 0.53466 0.52113 0.0
C1159 C 0.5075 0.54637 0.47817 0.0
C1160 C 0.51225 0.51388 0.5247 0.0
C1161 C 0.49508 0.53691 0.438 0.0
C1162 C 0.49127 0.51625 0.44079 0.0
C1163 C 0.49574 0.48377 0.4875 0.0
C1164 C 0.50462 0.47201 0.53022 0.0
C1165 C 0.49962 0.50459 0.48424 0.0
C1166 C 0.51682 0.48153 0.57084 0.0
C1167 C 0.52053 0.50221 0.56826 0.0
H1168 H 0.98978 0.47284 0.03618 0.0
H1169 H 0.02625 0.46802 0.88669 0.0
H1170 H 0.03361 0.50397 0.89051 0.0
H1171 H 0.02952 0.53706 0.93585 0.0
H1172 H 0.99289 0.54185 0.08494 0.0
H1173 H 0.98618 0.50575 0.08241 0.0
C1174 C 0.99912 0.47971 0.00404 0.0
C1175 C 0.00729 0.46775 0.96101 0.0
C1176 C 1.00361 0.5004 0.00698 0.0
C1177 C 0.01968 0.47687 0.92025 0.0
C1178 C 0.02401 0.49743 0.92253 0.0
C1179 C 0.02041 0.53011 0.96836 0.0
C1180 C 0.01183 0.54212 0.01067 0.0
C1181 C 0.01619 0.50935 0.96592 0.0
C1182 C 0.99972 0.53294 0.05194 0.0
C1183 C 0.99575 0.5123 0.05034 0.0
H1184 H 0.47983 0.46978 0.02573 0.0
H1185 H 0.53964 0.46791 0.95486 0.0
H1186 H 0.53851 0.50433 0.93985 0.0
H1187 H 0.52072 0.53665 0.94798 0.0
H1188 H 0.46098 0.5382 0.01946 0.0
H1189 H 0.46193 0.50179 0.03251 0.0
C1190 C 0.49271 0.47725 0.00711 0.0
C1191 C 0.50986 0.466 -0.00825 0.0
C1192 C 0.49193 0.49813 -0.00159 0.0
C1193 C 0.52628 0.4761 0.96737 0.0
C1194 C 0.52562 0.49694 0.95864 0.0
C1195 C 0.50781 0.52906 0.96609 0.0
C1196 C 0.49078 0.54028 0.98274 0.0
C1197 C 0.50853 0.5081 0.97405 0.0
C1198 C 0.47429 0.53007 0.00629 0.0
C1199 C 0.47484 0.50921 0.01391 0.0
H1200 H 0.02501 0.47099 0.5307 0.0
H1201 H 0.99737 0.46621 0.36662 0.0
H1202 H 0.98974 0.50217 0.36708 0.0
H1203 H 0.98922 0.53481 0.41633 0.0
H1204 H 0.01681 0.53954 0.58054 0.0
H1205 H 0.02579 0.50394 0.57818 0.0
C1206 C 0.01774 0.47793 0.49454 0.0
C1207 C 0.01185 0.46593 0.44864 0.0
C1208 C 0.01292 0.49859 0.49565 0.0
C1209 C 1.00209 0.47511 0.4025 0.0
C1210 C 0.99757 0.49566 0.40288 0.0
C1211 C 0.99702 0.52798 0.45176 0.0
C1212 C 1.00213 0.5398 0.49873 0.0
C1213 C 1.00249 0.50749 0.44978 0.0
C1214 C 0.01262 0.53079 0.54388 0.0
C1215 C 0.01786 0.51042 0.54251 0.0
H1216 H 0.07666 0.16361 0.02182 0.0
H1217 H 0.09873 0.11238 0.11532 0.0
H1218 H 0.12534 0.13336 0.15697 0.0
H1219 H 0.14035 0.16739 0.1729 0.0
H1220 H 0.11632 0.21816 0.08139 0.0
H1221 H 0.09265 0.19625 0.03221 0.0
C1222 C 0.08735 0.15692 0.05102 0.0
C1223 C 0.08557 0.1365 0.06589 0.0
C1224 C 0.10231 0.16907 0.07506 0.0
C1225 C 0.09973 0.12808 0.10329 0.0
C1226 C 0.11491 0.1401 0.12719 0.0
C1227 C 0.13021 0.17344 0.14122 0.0
C1228 C 0.13007 0.19428 0.13027 0.0
C1229 C 0.11612 0.16075 0.11421 0.0
C1230 C 0.11666 0.20214 0.0901 0.0
C1231 C 0.10308 0.18965 0.06223 0.0
H1232 H 0.13057 0.81379 0.386 0.0
H1233 H 0.15743 0.85925 0.28121 0.0
H1234 H 0.13535 0.885 0.32278 0.0
H1235 H 0.10559 0.8935 0.38227 0.0
H1236 H 0.07942 0.84673 0.48549 0.0
H1237 H 0.10402 0.82275 0.45177 0.0
C1238 C 0.13191 0.82947 0.37351 0.0
C1239 C 0.14557 0.83481 0.33137 0.0
C1240 C 0.11904 0.84391 0.39676 0.0
C1241 C 0.14715 0.855 0.31452 0.0
C1242 C 0.13438 0.86962 0.33781 0.0
C1243 C 0.10548 0.87813 0.39774 0.0
C1244 C 0.09041 0.87191 0.43561 0.0
C1245 C 0.11982 0.86413 0.37791 0.0
C1246 C 0.09058 0.85195 0.45564 0.0
C1247 C 0.1047 0.83813 0.43654 0.0
H1248 H 0.37229 0.84762 0.67436 0.0
H1249 H 0.39992 0.79608 0.59607 0.0
H1250 H 0.42335 0.81792 0.54599 0.0
H1251 H 0.43764 0.85102 0.52991 0.0
H1252 H 0.41216 0.90315 0.61099 0.0
H1253 H 0.38625 0.88186 0.65451 0.0
C1254 C 0.38324 0.84134 0.64551 0.0
C1255 C 0.38439 0.82033 0.63846 0.0
C1256 C 0.39718 0.85405 0.61804 0.0
C1257 C 0.39881 0.81222 0.60189 0.0
C1258 C 0.41223 0.82468 0.57344 0.0
C1259 C 0.42637 0.85785 0.55682 0.0
C1260 C 0.42693 0.87866 0.56739 0.0
C1261 C 0.41184 0.84553 0.58212 0.0
C1262 C 0.41211 0.88716 0.60222 0.0
C1263 C 0.39731 0.87497 0.62715 0.0
H1264 H 0.4125 0.14219 0.95243 0.0
H1265 H 0.43539 0.12065 0.79408 0.0
H1266 H 0.41289 0.14375 0.7431 0.0
H1267 H 0.38937 0.17281 0.74467 0.0
H1268 H 0.36463 0.1924 0.90287 0.0
H1269 H 0.38494 0.16725 0.95315 0.0
C1270 C 0.41215 0.14226 0.90673 0.0
C1271 C 0.42551 0.12983 0.87684 0.0
C1272 C 0.39896 0.15533 0.87791 0.0
C1273 C 0.42505 0.12998 0.81775 0.0
C1274 C 0.41232 0.14329 0.78871 0.0
C1275 C 0.38811 0.17116 0.79001 0.0
C1276 C 0.37557 0.18433 0.82025 0.0
C1277 C 0.39958 0.15641 0.81841 0.0
C1278 C 0.37404 0.18222 0.87889 0.0
C1279 C 0.38576 0.16796 0.90759 0.0
H1280 H 0.87299 0.85069 0.80625 0.0
H1281 H 0.90599 0.79893 0.86655 0.0
H1282 H 0.92829 0.82057 0.92073 0.0
H1283 H 0.93963 0.85375 0.94729 0.0
H1284 H 0.90927 0.90659 0.8839 0.0
H1285 H 0.88474 0.8851 0.83472 0.0
C1286 C 0.885 0.84428 0.83166 0.0
C1287 C 0.88795 0.82327 0.83232 0.0
C1288 C 0.89828 0.85698 0.86182 0.0
C1289 C 0.9036 0.81507 0.86498 0.0
C1290 C 0.91633 0.82741 0.89607 0.0
C1291 C 0.92759 0.8607 0.92311 0.0
C1292 C 0.92629 0.88177 0.91941 0.0
C1293 C 0.914 0.84834 0.89418 0.0
C1294 C 0.9106 0.89039 0.88753 0.0
C1295 C 0.89661 0.87809 0.85934 0.0
H1296 H 0.91213 0.1292 0.52665 0.0
H1297 H 0.94568 0.11604 0.67791 0.0
H1298 H 0.92237 0.13665 0.73318 0.0
H1299 H 0.89465 0.16134 0.73597 0.0
H1300 H 0.85966 0.17284 0.5861 0.0
H1301 H 0.88102 0.14967 0.53259 0.0
C1302 C 0.91396 0.13054 0.57192 0.0
C1303 C 0.93046 0.12127 0.59853 0.0
C1304 C 0.90033 0.14214 0.60337 0.0
C1305 C 0.93291 0.12299 0.657 0.0
C1306 C 0.91969 0.13485 0.68841 0.0
C1307 C 0.89149 0.15839 0.69188 0.0
C1308 C 0.87577 0.16878 0.66472 0.0
C1309 C 0.90366 0.14491 0.66176 0.0
C1310 C 0.87164 0.16485 0.60778 0.0
C1311 C 0.88394 0.15175 0.57715 0.0
H1312 H 0.6409 0.16193 0.30582 0.0
H1313 H 0.61779 0.21388 0.39277 0.0
H1314 H 0.59264 0.19306 0.43984 0.0
H1315 H 0.57528 0.161 0.44958 0.0
H1316 H 0.59687 0.10864 0.36128 0.0
H1317 H 0.62457 0.12854 0.32157 0.0
C1318 C 0.63064 0.16847 0.33617 0.0
C1319 C 0.63122 0.18931 0.34649 0.0
C1320 C 0.61578 0.15641 0.36203 0.0
C1321 C 0.61764 0.19782 0.38477 0.0
C1322 C 0.6032 0.18596 0.41136 0.0
C1323 C 0.5861 0.15385 0.42192 0.0
C1324 C 0.58387 0.13341 0.40792 0.0
C1325 C 0.60179 0.16537 0.39917 0.0
C1326 C 0.59819 0.12437 0.37257 0.0
C1327 C 0.61401 0.13577 0.34979 0.0
H1328 H 0.59862 0.86585 -0.00275 0.0
H1329 H 0.59395 0.90122 0.1486 0.0
H1330 H 0.61785 0.87868 0.19643 0.0
H1331 H 0.63668 0.84636 0.19803 0.0
H1332 H 0.64213 0.81193 0.04532 0.0
H1333 H 0.62155 0.83672 -0.00536 0.0
C1334 C 0.60319 0.86884 0.04037 0.0
C1335 C 0.59448 0.88503 0.06963 0.0
C1336 C 0.617 0.85592 0.06723 0.0
C1337 C 0.60057 0.88889 0.12525 0.0
C1338 C 0.6141 0.87592 0.15265 0.0
C1339 C 0.63383 0.84471 0.15325 0.0
C1340 C 0.64097 0.82755 0.12504 0.0
C1341 C 0.62197 0.85906 0.12453 0.0
C1342 C 0.63699 0.82523 0.06739 0.0
C1343 C 0.62509 0.8393 0.03865 0.0
H1344 H 0.57481 0.65943 0.51108 0.0
H1345 H 0.59323 0.60809 0.61012 0.0
H1346 H 0.62034 0.62815 0.65282 0.0
H1347 H 0.6368 0.66158 0.66787 0.0
H1348 H 0.61633 0.71258 0.57075 0.0
H1349 H 0.59222 0.69136 0.52082 0.0
C1350 C 0.58483 0.65251 0.54172 0.0
C1351 C 0.58187 0.63235 0.55782 0.0
C1352 C 0.60006 0.66415 0.56637 0.0
C1353 C 0.59516 0.6236 0.59707 0.0
C1354 C 0.61062 0.6351 0.6216 0.0
C1355 C 0.62732 0.66781 0.63488 0.0
C1356 C 0.62833 0.68852 0.62245 0.0
C1357 C 0.61297 0.65555 0.60738 0.0
C1358 C 0.61579 0.69664 0.58057 0.0
C1359 C 0.60196 0.68455 0.55226 0.0
H1360 H 0.58985 0.39562 0.87264 0.0
H1361 H 0.57078 0.34904 0.98803 0.0
H1362 H 0.59653 0.32658 0.95245 0.0
H1363 H 0.62222 0.31872 0.88306 0.0
H1364 H 0.64206 0.36404 0.76613 0.0
H1365 H 0.6185 0.38848 0.80773 0.0
C1366 C 0.59152 0.38064 0.89027 0.0
C1367 C 0.57815 0.37396 0.93235 0.0
C1368 C 0.60647 0.36754 0.86924 0.0
C1369 C 0.58059 0.35452 0.95502 0.0
C1370 C 0.59537 0.34161 0.93483 0.0
C1371 C 0.62167 0.33412 0.86768 0.0
C1372 C 0.63381 0.33976 0.82227 0.0
C1373 C 0.60805 0.34778 0.89122 0.0
C1374 C 0.63296 0.35957 0.80181 0.0
C1375 C 0.61938 0.37343 0.82526 0.0
H1376 H 0.8738 0.35103 0.13433 0.0
H1377 H 0.92069 0.31569 0.21391 0.0
H1378 H 0.9461 0.33804 0.17714 0.0
H1379 H 0.9558 0.36597 0.11717 0.0
H1380 H 0.91053 0.40294 0.03832 0.0
H1381 H 0.88385 0.38193 0.08014 0.0
C1382 C 0.88956 0.34836 0.14381 0.0
C1383 C 0.8952 0.33143 0.1763 0.0
C1384 C 0.90448 0.36157 0.12261 0.0
C1385 C 0.91574 0.32837 0.18863 0.0
C1386 C 0.93043 0.34119 0.16765 0.0
C1387 C 0.94006 0.3696 0.10991 0.0
C1388 C 0.93504 0.38583 0.07491 0.0
C1389 C 0.92504 0.35757 0.13391 0.0
C1390 C 0.91467 0.39054 0.06574 0.0
C1391 C 0.89946 0.37843 0.08925 0.0
H1392 H 0.91253 0.63184 0.47071 0.0
H1393 H 0.93219 0.60824 0.31116 0.0
H1394 H 0.90731 0.62929 0.26198 0.0
H1395 H 0.88311 0.65759 0.26447 0.0
H1396 H 0.86203 0.67978 0.42416 0.0
H1397 H 0.88407 0.65587 0.47373 0.0
C1398 C 0.91097 0.63099 0.42526 0.0
C1399 C 0.92414 0.61865 0.39434 0.0
C1400 C 0.8965 0.64294 0.39757 0.0
C1401 C 0.92207 0.61753 0.33563 0.0
C1402 C 0.90797 0.62968 0.3076 0.0
C1403 C 0.88298 0.65674 0.31013 0.0
C1404 C 0.87105 0.67033 0.34087 0.0
C1405 C 0.89554 0.64287 0.33807 0.0
C1406 C 0.87094 0.66926 0.39986 0.0
C1407 C 0.88368 0.65574 0.42808 0.0
H1408 H 0.38016 0.3369 0.41123 0.0
H1409 H 0.38891 0.35653 0.24015 0.0
H1410 H 0.41255 0.38247 0.27179 0.0
H1411 H 0.43394 0.39678 0.34732 0.0
H1412 H 0.42783 0.37425 0.51665 0.0
H1413 H 0.40002 0.35253 0.48733 0.0
C1414 C 0.38688 0.34725 0.38132 0.0
C1415 C 0.38269 0.34511 0.3237 0.0
C1416 C 0.40115 0.3615 0.39964 0.0
C1417 C 0.39185 0.35814 0.28485 0.0
C1418 C 0.40544 0.37288 0.30289 0.0
C1419 C 0.42612 0.38747 0.37778 0.0
C1420 C 0.43268 0.38719 0.43405 0.0
C1421 C 0.41067 0.37434 0.36004 0.0
C1422 C 0.42285 0.37473 0.47312 0.0
C1423 C 0.40702 0.36226 0.45636 0.0
H1424 H 0.39798 0.67588 0.21906 0.0
H1425 H 0.35993 0.68449 0.07362 0.0
H1426 H 0.37815 0.6578 0.02356 0.0
H1427 H 0.40757 0.63478 0.01831 0.0
H1428 H 0.44428 0.6253 0.16595 0.0
H1429 H 0.42387 0.64947 0.21866 0.0
C1430 C 0.39351 0.67166 0.17669 0.0
C1431 C 0.37788 0.68219 0.14957 0.0
C1432 C 0.40386 0.65624 0.14878 0.0
C1433 C 0.37195 0.67651 0.09511 0.0
C1434 C 0.38243 0.66137 0.06649 0.0
C1435 C 0.41065 0.63768 0.06246 0.0
C1436 C 0.42721 0.62835 0.08868 0.0
C1437 C 0.39876 0.6515 0.09244 0.0
C1438 C 0.43139 0.63221 0.14553 0.0
C1439 C 0.41984 0.64611 0.1754 0.0
H1440 H 0.06019 0.65384 0.8872 0.0
H1441 H 0.10447 0.60776 0.91895 0.0
H1442 H 0.13041 0.62864 0.87311 0.0
H1443 H 0.14039 0.66108 0.82589 0.0
H1444 H 0.09401 0.70529 0.79253 0.0
H1445 H 0.06917 0.6841 0.83699 0.0
C1446 C 0.07553 0.64831 0.88426 0.0
C1447 C 0.08049 0.62946 0.90708 0.0
C1448 C 0.09005 0.66015 0.85745 0.0
C1449 C 0.10032 0.62231 0.90177 0.0
C1450 C 0.11513 0.63428 0.87573 0.0
C1451 C 0.12484 0.66596 0.82831 0.0
C1452 C 0.11921 0.68487 0.80592 0.0
C1453 C 0.1102 0.65339 0.85372 0.0
C1454 C 0.09892 0.69089 0.80909 0.0
C1455 C 0.08458 0.67878 0.83472 0.0
H1456 H 0.1011 0.38728 0.53417 0.0
H1457 H 0.05102 0.36654 0.63363 0.0
H1458 H 0.07288 0.34281 0.68311 0.0
H1459 H 0.10512 0.32599 0.69259 0.0
H1460 H 0.15582 0.34489 0.59265 0.0
H1461 H 0.13497 0.37135 0.54896 0.0
C1462 C 0.09522 0.37788 0.56768 0.0
C1463 C 0.07456 0.37875 0.58092 0.0
C1464 C 0.10789 0.36376 0.5951 0.0
C1465 C 0.06691 0.36621 0.62333 0.0
C1466 C 0.07937 0.35257 0.65132 0.0
C1467 C 0.11174 0.33591 0.6614 0.0
C1468 C 0.13196 0.33328 0.64543 0.0
C1469 C 0.09971 0.35086 0.63658 0.0
C1470 C 0.14027 0.34652 0.60552 0.0
C1471 C 0.12833 0.36163 0.58052 0.0
loop_
_geom_bond_atom_site_label_1
_geom_bond_atom_site_label_2
_geom_bond_distance
_geom_bond_site_symmetry_2
_ccdc_geom_bond_type
Co0 O1 2.216 . S
Co0 O2 2.091 . S
Co0 O4 2.004 . S
Co0 O10 2.021 . S
Co0 O12 2.137 1_554 S
Co0 O13 2.244 1_455 S
O1 Co0 2.216 . S
O1 C8 1.247 . S
O2 Co0 2.091 . S
O2 C8 1.261 . S
C3 O12 1.247 . S
C3 O13 1.272 1_456 S
O4 Co0 2.004 . S
O4 C9 1.259 . S
Co5 O6 2.061 . S
Co5 O11 2.052 . S
Co5 O13 2.135 . S
O6 Co5 2.061 . S
O6 C9 1.235 1_655 S
C7 O10 1.276 . S
C7 O11 1.206 1_455 S
C8 O1 1.247 . S
C8 O2 1.261 . S
C9 O4 1.259 . S
C9 O6 1.235 1_455 S
O10 Co0 2.021 . S
O10 C7 1.276 . S
O11 Co5 2.052 . S
O11 C7 1.206 1_655 S
O12 Co0 2.137 1_556 S
O12 C3 1.247 . S
O13 Co0 2.244 1_655 S
O13 C3 1.272 1_654 S
O13 Co5 2.135 . S
Co14 O15 2.216 . S
Co14 O16 2.091 . S
Co14 O18 2.004 . S
Co14 O24 2.021 . S
Co14 O26 2.137 . S
Co14 O27 2.244 . S
O15 Co14 2.216 . S
O15 C22 1.247 . S
O16 Co14 2.091 . S
O16 C22 1.261 . S
C17 O26 1.247 . S
C17 O27 1.272 . S
O18 Co14 2.004 . S
O18 C23 1.259 . S
Co19 O20 2.061 . S
Co19 O25 2.052 . S
Co19 O27 2.135 . S
O20 Co19 2.061 . S
O20 C23 1.235 . S
C21 O24 1.238 . S
C21 O25 1.241 . S
C22 O15 1.247 . S
C22 O16 1.261 . S
C23 O18 1.259 . S
C23 O20 1.235 . S
O24 Co14 2.021 . S
O24 C21 1.238 . S
O25 Co19 2.052 . S
O25 C21 1.241 . S
O26 Co14 2.137 . S
O26 C17 1.247 . S
O27 Co14 2.244 . S
O27 C17 1.272 . S
O27 Co19 2.135 . S
Co28 O29 2.216 . S
Co28 O30 2.091 . S
Co28 O32 2.004 . S
Co28 O38 2.021 . S
Co28 O40 2.137 . S
Co28 O41 2.244 . S
O29 Co28 2.216 . S
O29 C36 1.247 . S
O30 Co28 2.091 . S
O30 C36 1.261 . S
C31 O40 1.247 . S
C31 O41 1.272 . S
O32 Co28 2.004 . S
O32 C37 1.259 . S
Co33 O34 2.061 . S
Co33 O39 2.052 . S
Co33 O41 2.135 . S
O34 Co33 2.061 . S
O34 C37 1.235 . S
C35 O38 1.238 . S
C35 O39 1.241 . S
C36 O29 1.247 . S
C36 O30 1.261 . S
C37 O32 1.259 . S
C37 O34 1.235 . S
O38 Co28 2.021 . S
O38 C35 1.238 . S
O39 Co33 2.052 . S
O39 C35 1.241 . S
O40 Co28 2.137 . S
O40 C31 1.247 . S
O41 Co28 2.244 . S
O41 C31 1.272 . S
O41 Co33 2.135 . S
Co42 O43 2.216 . S
Co42 O44 2.091 . S
Co42 O46 2.004 . S
Co42 O52 2.021 . S
Co42 O54 2.137 . S
Co42 O55 2.244 . S
O43 Co42 2.216 . S
O43 C50 1.247 . S
O44 Co42 2.091 . S
O44 C50 1.261 . S
C45 O54 1.247 . S
C45 O55 1.272 . S
O46 Co42 2.004 . S
O46 C51 1.259 . S
Co47 O48 2.061 . S
Co47 O53 2.052 . S
Co47 O55 2.135 . S
O48 Co47 2.061 . S
O48 C51 1.235 . S
C49 O52 1.238 . S
C49 O53 1.241 . S
C50 O43 1.247 . S
C50 O44 1.261 . S
C51 O46 1.259 . S
C51 O48 1.235 . S
O52 Co42 2.021 . S
O52 C49 1.238 . S
O53 Co47 2.052 . S
O53 C49 1.241 . S
O54 Co42 2.137 . S
O54 C45 1.247 . S
O55 Co42 2.244 . S
O55 C45 1.272 . S
O55 Co47 2.135 . S
Co56 O57 2.216 . S
Co56 O58 2.091 . S
Co56 O60 2.004 . S
Co56 O66 2.021 . S
Co56 O68 2.137 . S
Co56 O69 2.244 1_455 S
O57 Co56 2.216 . S
O57 C64 1.247 . S
O58 Co56 2.091 . S
O58 C64 1.261 . S
C59 O68 1.247 . S
C59 O69 1.272 1_455 S
O60 Co56 2.004 . S
O60 C65 1.259 . S
Co61 O62 2.061 . S
Co61 O67 2.052 . S
Co61 O69 2.135 . S
O62 Co61 2.061 . S
O62 C65 1.235 1_655 S
C63 O66 1.277 . S
C63 O67 1.206 1_455 S
C64 O57 1.247 . S
C64 O58 1.261 . S
C65 O60 1.259 . S
C65 O62 1.235 1_455 S
O66 Co56 2.021 . S
O66 C63 1.277 . S
O67 Co61 2.052 . S
O67 C63 1.206 1_655 S
O68 Co56 2.137 . S
O68 C59 1.247 . S
O69 Co56 2.244 1_655 S
O69 C59 1.272 1_655 S
O69 Co61 2.135 . S
Co70 O71 2.216 . S
Co70 O72 2.091 . S
Co70 O74 2.004 . S
Co70 O80 2.021 . S
Co70 O82 2.137 . S
Co70 O83 2.244 . S
O71 Co70 2.216 . S
O71 C78 1.247 . S
O72 Co70 2.091 . S
O72 C78 1.261 . S
C73 O82 1.247 . S
C73 O83 1.272 . S
O74 Co70 2.004 . S
O74 C79 1.259 . S
Co75 O76 2.061 . S
Co75 O81 2.052 . S
Co75 O83 2.135 . S
O76 Co75 2.061 . S
O76 C79 1.235 . S
C77 O80 1.238 . S
C77 O81 1.241 . S
C78 O71 1.247 . S
C78 O72 1.261 . S
C79 O74 1.259 . S
C79 O76 1.235 . S
O80 Co70 2.021 . S
O80 C77 1.238 . S
O81 Co75 2.052 . S
O81 C77 1.241 . S
O82 Co70 2.137 . S
O82 C73 1.247 . S
O83 Co70 2.244 . S
O83 C73 1.272 . S
O83 Co75 2.135 . S
Co84 O85 2.216 . S
Co84 O86 2.091 . S
Co84 O88 2.004 . S
Co84 O94 2.021 . S
Co84 O96 2.137 1_556 S
Co84 O97 2.244 . S
O85 Co84 2.216 . S
O85 C92 1.247 . S
O86 Co84 2.091 . S
O86 C92 1.261 . S
C87 O96 1.247 . S
C87 O97 1.272 1_554 S
O88 Co84 2.004 . S
O88 C93 1.259 . S
Co89 O90 2.061 . S
Co89 O95 2.052 . S
Co89 O97 2.135 . S
O90 Co89 2.061 . S
O90 C93 1.235 . S
C91 O94 1.238 . S
C91 O95 1.241 . S
C92 O85 1.247 . S
C92 O86 1.261 . S
C93 O88 1.259 . S
C93 O90 1.235 . S
O94 Co84 2.021 . S
O94 C91 1.238 . S
O95 Co89 2.052 . S
O95 C91 1.241 . S
O96 Co84 2.137 1_554 S
O96 C87 1.247 . S
O97 Co84 2.244 . S
O97 C87 1.272 1_556 S
O97 Co89 2.135 . S
Co98 O99 2.216 . S
Co98 O100 2.091 . S
Co98 O102 2.004 . S
Co98 O108 2.021 . S
Co98 O110 2.137 . S
Co98 O111 2.244 . S
O99 Co98 2.216 . S
O99 C106 1.247 . S
O100 Co98 2.091 . S
O100 C106 1.261 . S
C101 O110 1.247 . S
C101 O111 1.272 . S
O102 Co98 2.004 . S
O102 C107 1.259 . S
Co103 O104 2.061 . S
Co103 O109 2.052 . S
Co103 O111 2.135 . S
O104 Co103 2.061 . S
O104 C107 1.235 . S
C105 O108 1.238 . S
C105 O109 1.241 . S
C106 O99 1.247 . S
C106 O100 1.261 . S
C107 O102 1.259 . S
C107 O104 1.235 . S
O108 Co98 2.021 . S
O108 C105 1.238 . S
O109 Co103 2.052 . S
O109 C105 1.241 . S
O110 Co98 2.137 . S
O110 C101 1.247 . S
O111 Co98 2.244 . S
O111 C101 1.272 . S
O111 Co103 2.135 . S
Co112 O113 2.216 . S
Co112 O114 2.091 . S
Co112 O116 2.004 . S
Co112 O122 2.021 . S
Co112 O124 2.137 1_556 S
Co112 O125 2.244 1_655 S
O113 Co112 2.216 . S
O113 C120 1.247 . S
O114 Co112 2.091 . S
O114 C120 1.261 . S
C115 O124 1.247 . S
C115 O125 1.272 1_654 S
O116 Co112 2.004 . S
O116 C121 1.259 . S
Co117 O118 2.061 . S
Co117 O123 2.052 . S
Co117 O125 2.135 . S
O118 Co117 2.061 . S
O118 C121 1.235 1_455 S
C119 O122 1.276 . S
C119 O123 1.206 1_655 S
C120 O113 1.247 . S
C120 O114 1.261 . S
C121 O116 1.259 . S
C121 O118 1.235 1_655 S
O122 Co112 2.021 . S
O122 C119 1.276 . S
O123 Co117 2.052 . S
O123 C119 1.206 1_455 S
O124 Co112 2.137 1_554 S
O124 C115 1.247 . S
O125 Co112 2.244 1_455 S
O125 C115 1.272 1_456 S
O125 Co117 2.135 . S
Co126 O127 2.216 . S
Co126 O128 2.091 . S
Co126 O130 2.004 . S
Co126 O136 2.021 . S
Co126 O138 2.137 . S
Co126 O139 2.244 . S
O127 Co126 2.216 . S
O127 C134 1.247 . S
O128 Co126 2.091 . S
O128 C134 1.261 . S
C129 O138 1.247 . S
C129 O139 1.272 . S
O130 Co126 2.004 . S
O130 C135 1.259 . S
Co131 O132 2.061 . S
Co131 O137 2.052 . S
Co131 O139 2.135 . S
O132 Co131 2.061 . S
O132 C135 1.235 . S
C133 O136 1.238 . S
C133 O137 1.241 . S
C134 O127 1.247 . S
C134 O128 1.261 . S
C135 O130 1.259 . S
C135 O132 1.235 . S
O136 Co126 2.021 . S
O136 C133 1.238 . S
O137 Co131 2.052 . S
O137 C133 1.241 . S
O138 Co126 2.137 . S
O138 C129 1.247 . S
O139 Co126 2.244 . S
O139 C129 1.272 . S
O139 Co131 2.135 . S
Co140 O141 2.216 . S
Co140 O142 2.091 . S
Co140 O144 2.004 . S
Co140 O150 2.021 . S
Co140 O152 2.137 . S
Co140 O153 2.244 . S
O141 Co140 2.216 . S
O141 C148 1.247 . S
O142 Co140 2.091 . S
O142 C148 1.261 . S
C143 O152 1.247 . S
C143 O153 1.272 . S
O144 Co140 2.004 . S
O144 C149 1.259 . S
Co145 O146 2.061 . S
Co145 O151 2.052 . S
Co145 O153 2.135 . S
O146 Co145 2.061 . S
O146 C149 1.235 . S
C147 O150 1.238 . S
C147 O151 1.241 . S
C148 O141 1.247 . S
C148 O142 1.261 . S
C149 O144 1.259 . S
C149 O146 1.235 . S
O150 Co140 2.021 . S
O150 C147 1.238 . S
O151 Co145 2.052 . S
O151 C147 1.241 . S
O152 Co140 2.137 . S
O152 C143 1.247 . S
O153 Co140 2.244 . S
O153 C143 1.272 . S
O153 Co145 2.135 . S
Co154 O155 2.216 . S
Co154 O156 2.091 . S
Co154 O158 2.004 . S
Co154 O164 2.021 . S
Co154 O166 2.137 . S
Co154 O167 2.244 . S
O155 Co154 2.216 . S
O155 C162 1.247 . S
O156 Co154 2.091 . S
O156 C162 1.261 . S
C157 O166 1.247 . S
C157 O167 1.272 . S
O158 Co154 2.004 . S
O158 C163 1.259 . S
Co159 O160 2.061 . S
Co159 O165 2.052 . S
Co159 O167 2.135 . S
O160 Co159 2.061 . S
O160 C163 1.235 . S
C161 O164 1.238 . S
C161 O165 1.241 . S
C162 O155 1.247 . S
C162 O156 1.261 . S
C163 O158 1.259 . S
C163 O160 1.235 . S
O164 Co154 2.021 . S
O164 C161 1.238 . S
O165 Co159 2.052 . S
O165 C161 1.241 . S
O166 Co154 2.137 . S
O166 C157 1.247 . S
O167 Co154 2.244 . S
O167 C157 1.272 . S
O167 Co159 2.135 . S
Co168 O169 2.216 . S
Co168 O170 2.091 . S
Co168 O172 2.004 . S
Co168 O178 2.021 . S
Co168 O180 2.137 . S
Co168 O181 2.244 1_655 S
O169 Co168 2.216 . S
O169 C176 1.247 . S
O170 Co168 2.091 . S
O170 C176 1.261 . S
C171 O180 1.247 . S
C171 O181 1.272 1_655 S
O172 Co168 2.004 . S
O172 C177 1.259 . S
Co173 O174 2.061 . S
Co173 O179 2.052 . S
Co173 O181 2.135 . S
O174 Co173 2.061 . S
O174 C177 1.235 1_455 S
C175 O178 1.277 . S
C175 O179 1.206 1_655 S
C176 O169 1.247 . S
C176 O170 1.261 . S
C177 O172 1.259 . S
C177 O174 1.235 1_655 S
O178 Co168 2.021 . S
O178 C175 1.277 . S
O179 Co173 2.052 . S
O179 C175 1.206 1_455 S
O180 Co168 2.137 . S
O180 C171 1.247 . S
O181 Co168 2.244 1_455 S
O181 C171 1.272 1_455 S
O181 Co173 2.135 . S
Co182 O183 2.216 . S
Co182 O184 2.091 . S
Co182 O186 2.004 . S
Co182 O192 2.021 . S
Co182 O194 2.137 . S
Co182 O195 2.244 . S
O183 Co182 2.216 . S
O183 C190 1.247 . S
O184 Co182 2.091 . S
O184 C190 1.261 . S
C185 O194 1.247 . S
C185 O195 1.272 . S
O186 Co182 2.004 . S
O186 C191 1.259 . S
Co187 O188 2.061 . S
Co187 O193 2.052 . S
Co187 O195 2.135 . S
O188 Co187 2.061 . S
O188 C191 1.235 . S
C189 O192 1.238 . S
C189 O193 1.241 . S
C190 O183 1.247 . S
C190 O184 1.261 . S
C191 O186 1.259 . S
C191 O188 1.235 . S
O192 Co182 2.021 . S
O192 C189 1.238 . S
O193 Co187 2.052 . S
O193 C189 1.241 . S
O194 Co182 2.137 . S
O194 C185 1.247 . S
O195 Co182 2.244 . S
O195 C185 1.272 . S
O195 Co187 2.135 . S
Co196 O197 2.216 . S
Co196 O198 2.091 . S
Co196 O200 2.004 . S
Co196 O206 2.021 . S
Co196 O208 2.137 1_554 S
Co196 O209 2.244 . S
O197 Co196 2.216 . S
O197 C204 1.247 . S
O198 Co196 2.091 . S
O198 C204 1.261 . S
C199 O208 1.247 . S
C199 O209 1.272 1_556 S
O200 Co196 2.004 . S
O200 C205 1.259 . S
Co201 O202 2.061 . S
Co201 O207 2.052 . S
Co201 O209 2.135 . S
O202 Co201 2.061 . S
O202 C205 1.235 . S
C203 O206 1.238 . S
C203 O207 1.241 . S
C204 O197 1.247 . S
C204 O198 1.261 . S
C205 O200 1.259 . S
C205 O202 1.235 . S
O206 Co196 2.021 . S
O206 C203 1.238 . S
O207 Co201 2.052 . S
O207 C203 1.241 . S
O208 Co196 2.137 1_556 S
O208 C199 1.247 . S
O209 Co196 2.244 . S
O209 C199 1.272 1_554 S
O209 Co201 2.135 . S
Co210 O211 2.216 . S
Co210 O212 2.091 . S
Co210 O214 2.004 . S
Co210 O220 2.021 . S
Co210 O222 2.137 . S
Co210 O223 2.244 . S
O211 Co210 2.216 . S
O211 C218 1.247 . S
O212 Co210 2.091 . S
O212 C218 1.261 . S
C213 O222 1.247 . S
C213 O223 1.272 . S
O214 Co210 2.004 . S
O214 C219 1.259 . S
Co215 O216 2.061 . S
Co215 O221 2.052 . S
Co215 O223 2.135 . S
O216 Co215 2.061 . S
O216 C219 1.235 . S
C217 O220 1.238 . S
C217 O221 1.241 . S
C218 O211 1.247 . S
C218 O212 1.261 . S
C219 O214 1.259 . S
C219 O216 1.235 . S
O220 Co210 2.021 . S
O220 C217 1.238 . S
O221 Co215 2.052 . S
O221 C217 1.241 . S
O222 Co210 2.137 . S
O222 C213 1.247 . S
O223 Co210 2.244 . S
O223 C213 1.272 . S
O223 Co215 2.135 . S
Co224 O225 2.216 . S
Co224 O226 2.091 . S
Co224 O228 2.004 . S
Co224 O234 2.021 . S
Co224 O236 2.137 . S
Co224 O237 2.244 . S
O225 Co224 2.216 . S
O225 C232 1.247 . S
O226 Co224 2.091 . S
O226 C232 1.261 . S
C227 O236 1.247 . S
C227 O237 1.272 . S
O228 Co224 2.004 . S
O228 C233 1.259 . S
Co229 O230 2.061 . S
Co229 O235 2.052 . S
Co229 O237 2.135 . S
O230 Co229 2.061 . S
O230 C233 1.235 . S
C231 O234 1.238 . S
C231 O235 1.241 . S
C232 O225 1.247 . S
C232 O226 1.261 . S
C233 O228 1.259 . S
C233 O230 1.235 . S
O234 Co224 2.021 . S
O234 C231 1.238 . S
O235 Co229 2.052 . S
O235 C231 1.241 . S
O236 Co224 2.137 . S
O236 C227 1.247 . S
O237 Co224 2.244 . S
O237 C227 1.272 . S
O237 Co229 2.135 . S
Co238 O239 2.216 . S
Co238 O240 2.091 . S
Co238 O242 2.004 . S
Co238 O248 2.021 . S
Co238 O250 2.137 . S
Co238 O251 2.244 . S
O239 Co238 2.216 . S
O239 C246 1.247 . S
O240 Co238 2.091 . S
O240 C246 1.261 . S
C241 O250 1.247 . S
C241 O251 1.272 . S
O242 Co238 2.004 . S
O242 C247 1.259 . S
Co243 O244 2.061 . S
Co243 O249 2.052 . S
Co243 O251 2.135 . S
O244 Co243 2.061 . S
O244 C247 1.235 . S
C245 O248 1.238 . S
C245 O249 1.241 . S
C246 O239 1.247 . S
C246 O240 1.261 . S
C247 O242 1.259 . S
C247 O244 1.235 . S
O248 Co238 2.021 . S
O248 C245 1.238 . S
O249 Co243 2.052 . S
O249 C245 1.241 . S
O250 Co238 2.137 . S
O250 C241 1.247 . S
O251 Co238 2.244 . S
O251 C241 1.272 . S
O251 Co243 2.135 . S
Co252 O253 2.216 . S
Co252 O254 2.091 . S
Co252 O256 2.004 . S
Co252 O262 2.021 . S
Co252 O264 2.137 1_554 S
Co252 O265 2.244 1_655 S
O253 Co252 2.216 . S
O253 C260 1.247 . S
O254 Co252 2.091 . S
O254 C260 1.261 . S
C255 O264 1.247 . S
C255 O265 1.272 1_656 S
O256 Co252 2.004 . S
O256 C261 1.259 . S
Co257 O258 2.061 . S
Co257 O263 2.052 . S
Co257 O265 2.135 . S
O258 Co257 2.061 . S
O258 C261 1.235 1_455 S
C259 O262 1.276 . S
C259 O263 1.206 1_655 S
C260 O253 1.247 . S
C260 O254 1.261 . S
C261 O256 1.259 . S
C261 O258 1.235 1_655 S
O262 Co252 2.021 . S
O262 C259 1.276 . S
O263 Co257 2.052 . S
O263 C259 1.206 1_455 S
O264 Co252 2.137 1_556 S
O264 C255 1.247 . S
O265 Co252 2.244 1_455 S
O265 C255 1.272 1_454 S
O265 Co257 2.135 . S
Co266 O267 2.216 . S
Co266 O268 2.091 . S
Co266 O270 2.004 . S
Co266 O276 2.021 . S
Co266 O278 2.137 . S
Co266 O279 2.244 . S
O267 Co266 2.216 . S
O267 C274 1.247 . S
O268 Co266 2.091 . S
O268 C274 1.261 . S
C269 O278 1.247 . S
C269 O279 1.272 . S
O270 Co266 2.004 . S
O270 C275 1.259 . S
Co271 O272 2.061 . S
Co271 O277 2.052 . S
Co271 O279 2.135 . S
O272 Co271 2.061 . S
O272 C275 1.235 . S
C273 O276 1.238 . S
C273 O277 1.241 . S
C274 O267 1.247 . S
C274 O268 1.261 . S
C275 O270 1.259 . S
C275 O272 1.235 . S
O276 Co266 2.021 . S
O276 C273 1.238 . S
O277 Co271 2.052 . S
O277 C273 1.241 . S
O278 Co266 2.137 . S
O278 C269 1.247 . S
O279 Co266 2.244 . S
O279 C269 1.272 . S
O279 Co271 2.135 . S
Co280 O281 2.216 . S
Co280 O282 2.091 . S
Co280 O284 2.004 . S
Co280 O290 2.021 . S
Co280 O292 2.137 1_556 S
Co280 O293 2.244 . S
O281 Co280 2.216 . S
O281 C288 1.247 . S
O282 Co280 2.091 . S
O282 C288 1.261 . S
C283 O292 1.247 . S
C283 O293 1.272 1_554 S
O284 Co280 2.004 . S
O284 C289 1.259 . S
Co285 O286 2.061 . S
Co285 O291 2.052 . S
Co285 O293 2.135 . S
O286 Co285 2.061 . S
O286 C289 1.235 . S
C287 O290 1.238 . S
C287 O291 1.241 . S
C288 O281 1.247 . S
C288 O282 1.261 . S
C289 O284 1.259 . S
C289 O286 1.235 . S
O290 Co280 2.021 . S
O290 C287 1.238 . S
O291 Co285 2.052 . S
O291 C287 1.241 . S
O292 Co280 2.137 1_554 S
O292 C283 1.247 . S
O293 Co280 2.244 . S
O293 C283 1.272 1_556 S
O293 Co285 2.135 . S
Co294 O295 2.216 . S
Co294 O296 2.091 . S
Co294 O298 2.004 . S
Co294 O304 2.021 . S
Co294 O306 2.137 . S
Co294 O307 2.244 . S
O295 Co294 2.216 . S
O295 C302 1.247 . S
O296 Co294 2.091 . S
O296 C302 1.261 . S
C297 O306 1.247 . S
C297 O307 1.272 . S
O298 Co294 2.004 . S
O298 C303 1.259 . S
Co299 O300 2.061 . S
Co299 O305 2.052 . S
Co299 O307 2.135 . S
O300 Co299 2.061 . S
O300 C303 1.235 . S
C301 O304 1.238 . S
C301 O305 1.241 . S
C302 O295 1.247 . S
C302 O296 1.261 . S
C303 O298 1.259 . S
C303 O300 1.235 . S
O304 Co294 2.021 . S
O304 C301 1.238 . S
O305 Co299 2.052 . S
O305 C301 1.241 . S
O306 Co294 2.137 . S
O306 C297 1.247 . S
O307 Co294 2.244 . S
O307 C297 1.272 . S
O307 Co299 2.135 . S
Co308 O309 2.216 . S
Co308 O310 2.091 . S
Co308 O312 2.004 . S
Co308 O318 2.021 . S
Co308 O320 2.137 . S
Co308 O321 2.244 1_655 S
O309 Co308 2.216 . S
O309 C316 1.247 . S
O310 Co308 2.091 . S
O310 C316 1.261 . S
C311 O320 1.247 . S
C311 O321 1.272 1_655 S
O312 Co308 2.004 . S
O312 C317 1.259 . S
Co313 O314 2.061 . S
Co313 O319 2.052 . S
Co313 O321 2.135 . S
O314 Co313 2.061 . S
O314 C317 1.235 1_455 S
C315 O318 1.276 . S
C315 O319 1.206 1_655 S
C316 O309 1.247 . S
C316 O310 1.261 . S
C317 O312 1.259 . S
C317 O314 1.235 1_655 S
O318 Co308 2.021 . S
O318 C315 1.276 . S
O319 Co313 2.052 . S
O319 C315 1.206 1_455 S
O320 Co308 2.137 . S
O320 C311 1.247 . S
O321 Co308 2.244 1_455 S
O321 C311 1.272 1_455 S
O321 Co313 2.135 . S
Co322 O323 2.216 . S
Co322 O324 2.091 . S
Co322 O326 2.004 . S
Co322 O332 2.021 . S
Co322 O334 2.137 . S
Co322 O335 2.244 . S
O323 Co322 2.216 . S
O323 C330 1.247 . S
O324 Co322 2.091 . S
O324 C330 1.261 . S
C325 O334 1.247 . S
C325 O335 1.272 . S
O326 Co322 2.004 . S
O326 C331 1.259 . S
Co327 O328 2.061 . S
Co327 O333 2.052 . S
Co327 O335 2.135 . S
O328 Co327 2.061 . S
O328 C331 1.235 . S
C329 O332 1.238 . S
C329 O333 1.241 . S
C330 O323 1.247 . S
C330 O324 1.261 . S
C331 O326 1.259 . S
C331 O328 1.235 . S
O332 Co322 2.021 . S
O332 C329 1.238 . S
O333 Co327 2.052 . S
O333 C329 1.241 . S
O334 Co322 2.137 . S
O334 C325 1.247 . S
O335 Co322 2.244 . S
O335 C325 1.272 . S
O335 Co327 2.135 . S
Co336 O337 2.216 . S
Co336 O338 2.091 . S
Co336 O340 2.004 . S
Co336 O346 2.021 . S
Co336 O348 2.137 . S
Co336 O349 2.244 . S
O337 Co336 2.216 . S
O337 C344 1.247 . S
O338 Co336 2.091 . S
O338 C344 1.261 . S
C339 O348 1.247 . S
C339 O349 1.272 . S
O340 Co336 2.004 . S
O340 C345 1.259 . S
Co341 O342 2.061 . S
Co341 O347 2.052 . S
Co341 O349 2.135 . S
O342 Co341 2.061 . S
O342 C345 1.235 . S
C343 O346 1.238 . S
C343 O347 1.241 . S
C344 O337 1.247 . S
C344 O338 1.261 . S
C345 O340 1.259 . S
C345 O342 1.235 . S
O346 Co336 2.021 . S
O346 C343 1.238 . S
O347 Co341 2.052 . S
O347 C343 1.241 . S
O348 Co336 2.137 . S
O348 C339 1.247 . S
O349 Co336 2.244 . S
O349 C339 1.272 . S
O349 Co341 2.135 . S
Co350 O351 2.216 . S
Co350 O352 2.091 . S
Co350 O354 2.004 . S
Co350 O360 2.021 . S
Co350 O362 2.137 . S
Co350 O363 2.244 . S
O351 Co350 2.216 . S
O351 C358 1.247 . S
O352 Co350 2.091 . S
O352 C358 1.261 . S
C353 O362 1.247 . S
C353 O363 1.272 . S
O354 Co350 2.004 . S
O354 C359 1.259 . S
Co355 O356 2.061 . S
Co355 O361 2.052 . S
Co355 O363 2.135 . S
O356 Co355 2.061 . S
O356 C359 1.235 . S
C357 O360 1.238 . S
C357 O361 1.241 . S
C358 O351 1.247 . S
C358 O352 1.261 . S
C359 O354 1.259 . S
C359 O356 1.235 . S
O360 Co350 2.021 . S
O360 C357 1.238 . S
O361 Co355 2.052 . S
O361 C357 1.241 . S
O362 Co350 2.137 . S
O362 C353 1.247 . S
O363 Co350 2.244 . S
O363 C353 1.272 . S
O363 Co355 2.135 . S
Co364 O365 2.216 . S
Co364 O366 2.091 . S
Co364 O368 2.004 . S
Co364 O374 2.021 . S
Co364 O376 2.137 1_556 S
Co364 O377 2.244 1_455 S
O365 Co364 2.216 . S
O365 C372 1.247 . S
O366 Co364 2.091 . S
O366 C372 1.261 . S
C367 O376 1.247 . S
C367 O377 1.272 1_454 S
O368 Co364 2.004 . S
O368 C373 1.259 . S
Co369 O370 2.061 . S
Co369 O375 2.052 . S
Co369 O377 2.135 . S
O370 Co369 2.061 . S
O370 C373 1.235 1_655 S
C371 O374 1.276 . S
C371 O375 1.206 1_455 S
C372 O365 1.247 . S
C372 O366 1.261 . S
C373 O368 1.259 . S
C373 O370 1.235 1_455 S
O374 Co364 2.021 . S
O374 C371 1.276 . S
O375 Co369 2.052 . S
O375 C371 1.206 1_655 S
O376 Co364 2.137 1_554 S
O376 C367 1.247 . S
O377 Co364 2.244 1_655 S
O377 C367 1.272 1_656 S
O377 Co369 2.135 . S
Co378 O379 2.216 . S
Co378 O380 2.091 . S
Co378 O382 2.004 . S
Co378 O388 2.021 . S
Co378 O390 2.137 . S
Co378 O391 2.244 . S
O379 Co378 2.216 . S
O379 C386 1.247 . S
O380 Co378 2.091 . S
O380 C386 1.261 . S
C381 O390 1.247 . S
C381 O391 1.272 . S
O382 Co378 2.004 . S
O382 C387 1.259 . S
Co383 O384 2.061 . S
Co383 O389 2.052 . S
Co383 O391 2.135 . S
O384 Co383 2.061 . S
O384 C387 1.235 . S
C385 O388 1.238 . S
C385 O389 1.241 . S
C386 O379 1.247 . S
C386 O380 1.261 . S
C387 O382 1.259 . S
C387 O384 1.235 . S
O388 Co378 2.021 . S
O388 C385 1.238 . S
O389 Co383 2.052 . S
O389 C385 1.241 . S
O390 Co378 2.137 . S
O390 C381 1.247 . S
O391 Co378 2.244 . S
O391 C381 1.272 . S
O391 Co383 2.135 . S
Co392 O393 2.216 . S
Co392 O394 2.091 . S
Co392 O396 2.004 . S
Co392 O402 2.021 . S
Co392 O404 2.137 1_554 S
Co392 O405 2.244 . S
O393 Co392 2.216 . S
O393 C400 1.247 . S
O394 Co392 2.091 . S
O394 C400 1.261 . S
C395 O404 1.247 . S
C395 O405 1.272 1_556 S
O396 Co392 2.004 . S
O396 C401 1.259 . S
Co397 O398 2.061 . S
Co397 O403 2.052 . S
Co397 O405 2.135 . S
O398 Co397 2.061 . S
O398 C401 1.235 . S
C399 O402 1.238 . S
C399 O403 1.241 . S
C400 O393 1.247 . S
C400 O394 1.261 . S
C401 O396 1.259 . S
C401 O398 1.235 . S
O402 Co392 2.021 . S
O402 C399 1.238 . S
O403 Co397 2.052 . S
O403 C399 1.241 . S
O404 Co392 2.137 1_556 S
O404 C395 1.247 . S
O405 Co392 2.244 . S
O405 C395 1.272 1_554 S
O405 Co397 2.135 . S
Co406 O407 2.216 . S
Co406 O408 2.091 . S
Co406 O410 2.004 . S
Co406 O416 2.021 . S
Co406 O418 2.137 . S
Co406 O419 2.244 . S
O407 Co406 2.216 . S
O407 C414 1.247 . S
O408 Co406 2.091 . S
O408 C414 1.261 . S
C409 O418 1.247 . S
C409 O419 1.272 . S
O410 Co406 2.004 . S
O410 C415 1.259 . S
Co411 O412 2.061 . S
Co411 O417 2.052 . S
Co411 O419 2.135 . S
O412 Co411 2.061 . S
O412 C415 1.235 . S
C413 O416 1.238 . S
C413 O417 1.241 . S
C414 O407 1.247 . S
C414 O408 1.261 . S
C415 O410 1.259 . S
C415 O412 1.235 . S
O416 Co406 2.021 . S
O416 C413 1.238 . S
O417 Co411 2.052 . S
O417 C413 1.241 . S
O418 Co406 2.137 . S
O418 C409 1.247 . S
O419 Co406 2.244 . S
O419 C409 1.272 . S
O419 Co411 2.135 . S
Co420 O421 2.216 . S
Co420 O422 2.091 . S
Co420 O424 2.004 . S
Co420 O430 2.021 . S
Co420 O432 2.137 . S
Co420 O433 2.244 1_455 S
O421 Co420 2.216 . S
O421 C428 1.247 . S
O422 Co420 2.091 . S
O422 C428 1.261 . S
C423 O432 1.247 . S
C423 O433 1.272 1_455 S
O424 Co420 2.004 . S
O424 C429 1.259 . S
Co425 O426 2.061 . S
Co425 O431 2.052 . S
Co425 O433 2.135 . S
O426 Co425 2.061 . S
O426 C429 1.235 1_655 S
C427 O430 1.276 . S
C427 O431 1.206 1_455 S
C428 O421 1.247 . S
C428 O422 1.261 . S
C429 O424 1.259 . S
C429 O426 1.235 1_455 S
O430 Co420 2.021 . S
O430 C427 1.276 . S
O431 Co425 2.052 . S
O431 C427 1.206 1_655 S
O432 Co420 2.137 . S
O432 C423 1.247 . S
O433 Co420 2.244 1_655 S
O433 C423 1.272 1_655 S
O433 Co425 2.135 . S
Co434 O435 2.216 . S
Co434 O436 2.091 . S
Co434 O438 2.004 . S
Co434 O444 2.021 . S
Co434 O446 2.137 . S
Co434 O447 2.244 . S
O435 Co434 2.216 . S
O435 C442 1.247 . S
O436 Co434 2.091 . S
O436 C442 1.261 . S
C437 O446 1.247 . S
C437 O447 1.272 . S
O438 Co434 2.004 . S
O438 C443 1.259 . S
Co439 O440 2.061 . S
Co439 O445 2.052 . S
Co439 O447 2.135 . S
O440 Co439 2.061 . S
O440 C443 1.235 . S
C441 O444 1.238 . S
C441 O445 1.241 . S
C442 O435 1.247 . S
C442 O436 1.261 . S
C443 O438 1.259 . S
C443 O440 1.235 . S
O444 Co434 2.021 . S
O444 C441 1.238 . S
O445 Co439 2.052 . S
O445 C441 1.241 . S
O446 Co434 2.137 . S
O446 C437 1.247 . S
O447 Co434 2.244 . S
O447 C437 1.272 . S
O447 Co439 2.135 . S
H448 C454 0.930 . S
H449 C457 0.930 . S
H450 C458 0.930 . S
H451 C459 0.930 . S
H452 C462 0.930 . S
H453 C463 0.930 . S
C454 H448 0.930 . S
C454 C455 1.355 1_655 S
C454 C456 1.415 . S
C455 C454 1.355 1_455 S
C455 C457 1.419 . S
C456 C454 1.415 . S
C456 C461 1.425 1_655 S
C456 C463 1.409 . S
C457 H449 0.930 . S
C457 C455 1.419 . S
C457 C458 1.362 . S
C458 H450 0.930 . S
C458 C457 1.362 . S
C458 C461 1.409 . S
C459 H451 0.930 . S
C459 C460 1.355 . S
C459 C461 1.415 . S
C460 C459 1.355 . S
C460 C462 1.419 1_455 S
C461 C456 1.425 1_455 S
C461 C458 1.409 . S
C461 C459 1.415 . S
C462 H452 0.930 . S
C462 C460 1.419 1_655 S
C462 C463 1.362 . S
C463 H453 0.930 . S
C463 C456 1.409 . S
C463 C462 1.362 . S
H464 C470 0.930 . S
H465 C473 0.930 . S
H466 C474 0.930 . S
H467 C475 0.930 . S
H468 C478 0.930 . S
H469 C479 0.930 . S
C470 H464 0.930 . S
C470 C471 1.355 . S
C470 C472 1.415 1_556 S
C471 C470 1.355 . S
C471 C473 1.419 . S
C472 C470 1.415 1_554 S
C472 C477 1.425 . S
C472 C479 1.409 . S
C473 H465 0.930 . S
C473 C471 1.419 . S
C473 C474 1.362 1_556 S
C474 H466 0.930 . S
C474 C473 1.362 1_554 S
C474 C477 1.409 . S
C475 H467 0.930 . S
C475 C476 1.355 . S
C475 C477 1.415 . S
C476 C475 1.355 . S
C476 C478 1.419 . S
C477 C472 1.425 . S
C477 C474 1.409 . S
C477 C475 1.415 . S
C478 H468 0.930 . S
C478 C476 1.419 . S
C478 C479 1.362 . S
C479 H469 0.930 . S
C479 C472 1.409 . S
C479 C478 1.362 . S
H480 C486 0.930 . S
H481 C489 0.930 . S
H482 C490 0.930 . S
H483 C491 0.930 . S
H484 C494 0.930 . S
H485 C495 0.930 . S
C486 H480 0.930 . S
C486 C487 1.355 . S
C486 C488 1.415 . S
C487 C486 1.355 . S
C487 C489 1.419 . S
C488 C486 1.415 . S
C488 C493 1.425 . S
C488 C495 1.409 . S
C489 H481 0.930 . S
C489 C487 1.419 . S
C489 C490 1.362 . S
C490 H482 0.930 . S
C490 C489 1.362 . S
C490 C493 1.409 . S
C491 H483 0.930 . S
C491 C492 1.355 . S
C491 C493 1.415 . S
C492 C491 1.355 . S
C492 C494 1.419 . S
C493 C488 1.425 . S
C493 C490 1.409 . S
C493 C491 1.415 . S
C494 H484 0.930 . S
C494 C492 1.419 . S
C494 C495 1.362 . S
C495 H485 0.930 . S
C495 C488 1.409 . S
C495 C494 1.362 . S
H496 C502 0.930 . S
H497 C505 0.930 . S
H498 C506 0.930 . S
H499 C507 0.930 . S
H500 C510 0.930 . S
H501 C511 0.930 . S
C502 H496 0.930 . S
C502 C503 1.355 . S
C502 C504 1.415 . S
C503 C502 1.355 . S
C503 C505 1.419 . S
C504 C502 1.415 . S
C504 C509 1.425 . S
C504 C511 1.409 . S
C505 H497 0.930 . S
C505 C503 1.419 . S
C505 C506 1.362 . S
C506 H498 0.930 . S
C506 C505 1.362 . S
C506 C509 1.409 . S
C507 H499 0.930 . S
C507 C508 1.355 . S
C507 C509 1.415 . S
C508 C507 1.355 . S
C508 C510 1.419 . S
C509 C504 1.425 . S
C509 C506 1.409 . S
C509 C507 1.415 . S
C510 H500 0.930 . S
C510 C508 1.419 . S
C510 C511 1.362 . S
C511 H501 0.930 . S
C511 C504 1.409 . S
C511 C510 1.362 . S
H512 C518 0.930 . S
H513 C521 0.930 . S
H514 C522 0.930 . S
H515 C523 0.930 . S
H516 C526 0.930 . S
H517 C527 0.930 . S
C518 H512 0.930 . S
C518 C519 1.355 1_455 S
C518 C520 1.415 . S
C519 C518 1.355 1_655 S
C519 C521 1.419 . S
C520 C518 1.415 . S
C520 C525 1.425 1_455 S
C520 C527 1.409 . S
C521 H513 0.930 . S
C521 C519 1.419 . S
C521 C522 1.362 . S
C522 H514 0.930 . S
C522 C521 1.362 . S
C522 C525 1.409 . S
C523 H515 0.930 . S
C523 C524 1.355 1_655 S
C523 C525 1.415 . S
C524 C523 1.355 1_455 S
C524 C526 1.419 . S
C525 C520 1.425 1_655 S
C525 C522 1.409 . S
C525 C523 1.415 . S
C526 H516 0.930 . S
C526 C524 1.419 . S
C526 C527 1.362 . S
C527 H517 0.930 . S
C527 C520 1.409 . S
C527 C526 1.362 . S
H528 C534 0.930 . S
H529 C537 0.930 . S
H530 C538 0.930 . S
H531 C539 0.930 . S
H532 C542 0.930 . S
H533 C543 0.930 . S
C534 H528 0.930 . S
C534 C535 1.355 . S
C534 C536 1.415 . S
C535 C534 1.355 . S
C535 C537 1.419 . S
C536 C534 1.415 . S
C536 C541 1.425 . S
C536 C543 1.409 . S
C537 H529 0.930 . S
C537 C535 1.419 . S
C537 C538 1.362 . S
C538 H530 0.930 . S
C538 C537 1.362 . S
C538 C541 1.409 . S
C539 H531 0.930 . S
C539 C540 1.355 . S
C539 C541 1.415 1_554 S
C540 C539 1.355 . S
C540 C542 1.419 . S
C541 C536 1.425 . S
C541 C538 1.409 . S
C541 C539 1.415 1_556 S
C542 H532 0.930 . S
C542 C540 1.419 . S
C542 C543 1.362 1_554 S
C543 H533 0.930 . S
C543 C536 1.409 . S
C543 C542 1.362 1_556 S
H544 C550 0.930 . S
H545 C553 0.930 . S
H546 C554 0.930 . S
H547 C555 0.930 . S
H548 C558 0.930 . S
H549 C559 0.930 . S
C550 H544 0.930 . S
C550 C551 1.355 . S
C550 C552 1.415 . S
C551 C550 1.355 . S
C551 C553 1.419 . S
C552 C550 1.415 . S
C552 C557 1.425 . S
C552 C559 1.409 . S
C553 H545 0.930 . S
C553 C551 1.419 . S
C553 C554 1.362 . S
C554 H546 0.930 . S
C554 C553 1.362 . S
C554 C557 1.409 . S
C555 H547 0.930 . S
C555 C556 1.355 . S
C555 C557 1.415 . S
C556 C555 1.355 . S
C556 C558 1.419 . S
C557 C552 1.425 . S
C557 C554 1.409 . S
C557 C555 1.415 . S
C558 H548 0.930 . S
C558 C556 1.419 . S
C558 C559 1.362 . S
C559 H549 0.930 . S
C559 C552 1.409 . S
C559 C558 1.362 . S
H560 C566 0.930 . S
H561 C569 0.930 . S
H562 C570 0.930 . S
H563 C571 0.930 . S
H564 C574 0.930 . S
H565 C575 0.930 . S
C566 H560 0.930 . S
C566 C567 1.355 . S
C566 C568 1.415 . S
C567 C566 1.355 . S
C567 C569 1.419 . S
C568 C566 1.415 . S
C568 C573 1.425 . S
C568 C575 1.409 . S
C569 H561 0.930 . S
C569 C567 1.419 . S
C569 C570 1.362 . S
C570 H562 0.930 . S
C570 C569 1.362 . S
C570 C573 1.409 . S
C571 H563 0.930 . S
C571 C572 1.355 . S
C571 C573 1.415 . S
C572 C571 1.355 . S
C572 C574 1.419 . S
C573 C568 1.425 . S
C573 C570 1.409 . S
C573 C571 1.415 . S
C574 H564 0.930 . S
C574 C572 1.419 . S
C574 C575 1.362 . S
C575 H565 0.930 . S
C575 C568 1.409 . S
C575 C574 1.362 . S
H576 C582 0.930 . S
H577 C585 0.930 . S
H578 C586 0.930 . S
H579 C587 0.930 . S
H580 C590 0.930 . S
H581 C591 0.930 . S
C582 H576 0.930 . S
C582 C583 1.355 1_655 S
C582 C584 1.415 . S
C583 C582 1.355 1_455 S
C583 C585 1.419 . S
C584 C582 1.415 . S
C584 C589 1.425 1_655 S
C584 C591 1.409 . S
C585 H577 0.930 . S
C585 C583 1.419 . S
C585 C586 1.362 . S
C586 H578 0.930 . S
C586 C585 1.362 . S
C586 C589 1.409 . S
C587 H579 0.930 . S
C587 C588 1.355 1_455 S
C587 C589 1.415 . S
C588 C587 1.355 1_655 S
C588 C590 1.419 . S
C589 C584 1.425 1_455 S
C589 C586 1.409 . S
C589 C587 1.415 . S
C590 H580 0.930 . S
C590 C588 1.419 . S
C590 C591 1.362 . S
C591 H581 0.930 . S
C591 C584 1.409 . S
C591 C590 1.362 . S
H592 C598 0.930 . S
H593 C601 0.930 . S
H594 C602 0.930 . S
H595 C603 0.930 . S
H596 C606 0.930 . S
H597 C607 0.930 . S
C598 H592 0.930 . S
C598 C599 1.355 . S
C598 C600 1.415 1_554 S
C599 C598 1.355 . S
C599 C601 1.419 . S
C600 C598 1.415 1_556 S
C600 C605 1.425 . S
C600 C607 1.409 . S
C601 H593 0.930 . S
C601 C599 1.419 . S
C601 C602 1.362 1_554 S
C602 H594 0.930 . S
C602 C601 1.362 1_556 S
C602 C605 1.409 . S
C603 H595 0.930 . S
C603 C604 1.355 . S
C603 C605 1.415 . S
C604 C603 1.355 . S
C604 C606 1.419 . S
C605 C600 1.425 . S
C605 C602 1.409 . S
C605 C603 1.415 . S
C606 H596 0.930 . S
C606 C604 1.419 . S
C606 C607 1.362 . S
C607 H597 0.930 . S
C607 C600 1.409 . S
C607 C606 1.362 . S
H608 C614 0.930 . S
H609 C617 0.930 . S
H610 C618 0.930 . S
H611 C619 0.930 . S
H612 C622 0.930 . S
H613 C623 0.930 . S
C614 H608 0.930 . S
C614 C615 1.355 . S
C614 C616 1.415 . S
C615 C614 1.355 . S
C615 C617 1.419 . S
C616 C614 1.415 . S
C616 C621 1.425 . S
C616 C623 1.409 . S
C617 H609 0.930 . S
C617 C615 1.419 . S
C617 C618 1.362 . S
C618 H610 0.930 . S
C618 C617 1.362 . S
C618 C621 1.409 . S
C619 H611 0.930 . S
C619 C620 1.355 . S
C619 C621 1.415 . S
C620 C619 1.355 . S
C620 C622 1.419 . S
C621 C616 1.425 . S
C621 C618 1.409 . S
C621 C619 1.415 . S
C622 H612 0.930 . S
C622 C620 1.419 . S
C622 C623 1.362 . S
C623 H613 0.930 . S
C623 C616 1.409 . S
C623 C622 1.362 . S
H624 C630 0.930 . S
H625 C633 0.930 . S
H626 C634 0.930 . S
H627 C635 0.930 . S
H628 C638 0.930 . S
H629 C639 0.930 . S
C630 H624 0.930 . S
C630 C631 1.355 . S
C630 C632 1.415 . S
C631 C630 1.355 . S
C631 C633 1.419 . S
C632 C630 1.415 . S
C632 C637 1.425 . S
C632 C639 1.409 . S
C633 H625 0.930 . S
C633 C631 1.419 . S
C633 C634 1.362 . S
C634 H626 0.930 . S
C634 C633 1.362 . S
C634 C637 1.409 . S
C635 H627 0.930 . S
C635 C636 1.355 . S
C635 C637 1.415 . S
C636 C635 1.355 . S
C636 C638 1.419 . S
C637 C632 1.425 . S
C637 C634 1.409 . S
C637 C635 1.415 . S
C638 H628 0.930 . S
C638 C636 1.419 . S
C638 C639 1.362 . S
C639 H629 0.930 . S
C639 C632 1.409 . S
C639 C638 1.362 . S
H640 C646 0.930 . S
H641 C649 0.930 . S
H642 C650 0.930 . S
H643 C651 0.930 . S
H644 C654 0.930 . S
H645 C655 0.930 . S
C646 H640 0.930 . S
C646 C647 1.355 1_455 S
C646 C648 1.415 . S
C647 C646 1.355 1_655 S
C647 C649 1.419 . S
C648 C646 1.415 . S
C648 C653 1.425 1_455 S
C648 C655 1.409 . S
C649 H641 0.930 . S
C649 C647 1.419 . S
C649 C650 1.362 . S
C650 H642 0.930 . S
C650 C649 1.362 . S
C650 C653 1.409 . S
C651 H643 0.930 . S
C651 C652 1.355 1_655 S
C651 C653 1.415 . S
C652 C651 1.355 1_455 S
C652 C654 1.419 . S
C653 C648 1.425 1_655 S
C653 C650 1.409 . S
C653 C651 1.415 . S
C654 H644 0.930 . S
C654 C652 1.419 . S
C654 C655 1.362 . S
C655 H645 0.930 . S
C655 C648 1.409 . S
C655 C654 1.362 . S
H656 C662 0.930 . S
H657 C665 0.930 . S
H658 C666 0.930 . S
H659 C667 0.930 . S
H660 C670 0.930 . S
H661 C671 0.930 . S
C662 H656 0.930 . S
C662 C663 1.355 . S
C662 C664 1.415 . S
C663 C662 1.355 . S
C663 C665 1.419 . S
C664 C662 1.415 . S
C664 C669 1.425 . S
C664 C671 1.409 . S
C665 H657 0.930 . S
C665 C663 1.419 . S
C665 C666 1.362 . S
C666 H658 0.930 . S
C666 C665 1.362 . S
C666 C669 1.409 . S
C667 H659 0.930 . S
C667 C668 1.355 . S
C667 C669 1.415 1_556 S
C668 C667 1.355 . S
C668 C670 1.419 . S
C669 C664 1.425 . S
C669 C666 1.409 . S
C669 C667 1.415 1_554 S
C670 H660 0.930 . S
C670 C668 1.419 . S
C670 C671 1.362 1_556 S
C671 H661 0.930 . S
C671 C664 1.409 . S
C671 C670 1.362 1_554 S
H672 C678 0.930 . S
H673 C681 0.930 . S
H674 C682 0.930 . S
H675 C683 0.930 . S
H676 C686 0.930 . S
H677 C687 0.930 . S
C678 H672 0.930 . S
C678 C679 1.355 . S
C678 C680 1.415 . S
C679 C678 1.355 . S
C679 C681 1.419 . S
C680 C678 1.415 . S
C680 C685 1.425 . S
C680 C687 1.409 . S
C681 H673 0.930 . S
C681 C679 1.419 . S
C681 C682 1.362 . S
C682 H674 0.930 . S
C682 C681 1.362 . S
C682 C685 1.409 . S
C683 H675 0.930 . S
C683 C684 1.355 . S
C683 C685 1.415 . S
C684 C683 1.355 . S
C684 C686 1.419 . S
C685 C680 1.425 . S
C685 C682 1.409 . S
C685 C683 1.415 . S
C686 H676 0.930 . S
C686 C684 1.419 . S
C686 C687 1.362 . S
C687 H677 0.930 . S
C687 C680 1.409 . S
C687 C686 1.362 . S
H688 C694 0.930 . S
H689 C697 0.930 . S
H690 C698 0.930 . S
H691 C699 0.930 . S
H692 C702 0.930 . S
H693 C703 0.930 . S
C694 H688 0.930 . S
C694 C695 1.355 . S
C694 C696 1.415 . S
C695 C694 1.355 . S
C695 C697 1.419 . S
C696 C694 1.415 . S
C696 C701 1.425 . S
C696 C703 1.409 . S
C697 H689 0.930 . S
C697 C695 1.419 . S
C697 C698 1.362 . S
C698 H690 0.930 . S
C698 C697 1.362 . S
C698 C701 1.409 . S
C699 H691 0.930 . S
C699 C700 1.355 . S
C699 C701 1.415 . S
C700 C699 1.355 . S
C700 C702 1.419 . S
C701 C696 1.425 . S
C701 C698 1.409 . S
C701 C699 1.415 . S
C702 H692 0.930 . S
C702 C700 1.419 . S
C702 C703 1.362 . S
C703 H693 0.930 . S
C703 C696 1.409 . S
C703 C702 1.362 . S
H704 C710 0.930 . S
H705 C713 0.930 . S
H706 C714 0.930 . S
H707 C715 0.930 . S
H708 C718 0.930 . S
H709 C719 0.930 . S
C710 H704 0.930 . S
C710 C711 1.355 . S
C710 C712 1.415 . S
C711 C710 1.355 . S
C711 C713 1.419 . S
C712 C710 1.415 . S
C712 C717 1.425 . S
C712 C719 1.409 . S
C713 H705 0.930 . S
C713 C711 1.419 . S
C713 C714 1.362 . S
C714 H706 0.930 . S
C714 C713 1.362 . S
C714 C717 1.409 . S
C715 H707 0.930 . S
C715 C716 1.355 . S
C715 C717 1.415 . S
C716 C715 1.355 . S
C716 C718 1.419 . S
C717 C712 1.425 . S
C717 C714 1.409 . S
C717 C715 1.415 . S
C718 H708 0.930 . S
C718 C716 1.419 . S
C718 C719 1.362 . S
C719 H709 0.930 . S
C719 C712 1.409 . S
C719 C718 1.362 . S
H720 C726 0.930 . S
H721 C729 0.930 . S
H722 C730 0.930 . S
H723 C731 0.930 . S
H724 C734 0.930 . S
H725 C735 0.930 . S
C726 H720 0.930 . S
C726 C727 1.355 . S
C726 C728 1.415 . S
C727 C726 1.355 . S
C727 C729 1.419 . S
C728 C726 1.415 . S
C728 C733 1.425 . S
C728 C735 1.409 . S
C729 H721 0.930 . S
C729 C727 1.419 . S
C729 C730 1.362 . S
C730 H722 0.930 . S
C730 C729 1.362 . S
C730 C733 1.409 . S
C731 H723 0.930 . S
C731 C732 1.355 . S
C731 C733 1.415 . S
C732 C731 1.355 . S
C732 C734 1.419 . S
C733 C728 1.425 . S
C733 C730 1.409 . S
C733 C731 1.415 . S
C734 H724 0.930 . S
C734 C732 1.419 . S
C734 C735 1.362 . S
C735 H725 0.930 . S
C735 C728 1.409 . S
C735 C734 1.362 . S
H736 C742 0.930 . S
H737 C745 0.929 1_455 S
H738 C746 0.930 . S
H739 C747 0.932 . S
H740 C750 0.930 . S
H741 C751 0.930 . S
C742 H736 0.930 . S
C742 C743 1.355 . S
C742 C744 1.415 . S
C743 C742 1.355 . S
C743 C745 1.420 . S
C744 C742 1.415 . S
C744 C749 1.425 . S
C744 C751 1.409 . S
C745 H737 0.929 1_655 S
C745 C743 1.420 . S
C745 C746 1.363 . S
C746 H738 0.930 . S
C746 C745 1.363 . S
C746 C749 1.409 . S
C747 H739 0.932 . S
C747 C748 1.355 . S
C747 C749 1.415 . S
C748 C747 1.355 . S
C748 C750 1.419 . S
C749 C744 1.425 . S
C749 C746 1.409 . S
C749 C747 1.415 . S
C750 H740 0.930 . S
C750 C748 1.419 . S
C750 C751 1.362 . S
C751 H741 0.930 . S
C751 C744 1.409 . S
C751 C750 1.362 . S
H752 C758 0.930 . S
H753 C761 0.930 . S
H754 C762 0.930 . S
H755 C763 0.930 . S
H756 C766 0.930 . S
H757 C767 0.930 . S
C758 H752 0.930 . S
C758 C759 1.355 . S
C758 C760 1.415 . S
C759 C758 1.355 . S
C759 C761 1.419 . S
C760 C758 1.415 . S
C760 C765 1.425 . S
C760 C767 1.409 . S
C761 H753 0.930 . S
C761 C759 1.419 . S
C761 C762 1.362 . S
C762 H754 0.930 . S
C762 C761 1.362 . S
C762 C765 1.409 . S
C763 H755 0.930 . S
C763 C764 1.355 . S
C763 C765 1.415 1_556 S
C764 C763 1.355 . S
C764 C766 1.419 . S
C765 C760 1.425 . S
C765 C762 1.409 . S
C765 C763 1.415 1_554 S
C766 H756 0.930 . S
C766 C764 1.419 . S
C766 C767 1.362 1_556 S
C767 H757 0.930 . S
C767 C760 1.409 . S
C767 C766 1.362 1_554 S
H768 C774 0.930 . S
H769 C777 0.930 . S
H770 C778 0.930 . S
H771 C779 0.930 . S
H772 C782 0.930 . S
H773 C783 0.930 . S
C774 H768 0.930 . S
C774 C775 1.355 . S
C774 C776 1.415 . S
C775 C774 1.355 . S
C775 C777 1.419 . S
C776 C774 1.415 . S
C776 C781 1.425 . S
C776 C783 1.409 . S
C777 H769 0.930 . S
C777 C775 1.419 . S
C777 C778 1.362 . S
C778 H770 0.930 . S
C778 C777 1.362 . S
C778 C781 1.409 . S
C779 H771 0.930 . S
C779 C780 1.355 . S
C779 C781 1.415 . S
C780 C779 1.355 . S
C780 C782 1.419 . S
C781 C776 1.425 . S
C781 C778 1.409 . S
C781 C779 1.415 . S
C782 H772 0.930 . S
C782 C780 1.419 . S
C782 C783 1.362 . S
C783 H773 0.930 . S
C783 C776 1.409 . S
C783 C782 1.362 . S
H784 C790 0.930 . S
H785 C793 0.930 . S
H786 C794 0.930 . S
H787 C795 0.930 . S
H788 C798 0.930 . S
H789 C799 0.930 . S
C790 H784 0.930 . S
C790 C791 1.355 . S
C790 C792 1.415 . S
C791 C790 1.355 . S
C791 C793 1.419 . S
C792 C790 1.415 . S
C792 C797 1.425 . S
C792 C799 1.409 . S
C793 H785 0.930 . S
C793 C791 1.419 . S
C793 C794 1.362 . S
C794 H786 0.930 . S
C794 C793 1.362 . S
C794 C797 1.409 . S
C795 H787 0.930 . S
C795 C796 1.355 . S
C795 C797 1.415 . S
C796 C795 1.355 . S
C796 C798 1.419 . S
C797 C792 1.425 . S
C797 C794 1.409 . S
C797 C795 1.415 . S
C798 H788 0.930 . S
C798 C796 1.419 . S
C798 C799 1.362 . S
C799 H789 0.930 . S
C799 C792 1.409 . S
C799 C798 1.362 . S
H800 C806 0.930 . S
H801 C809 0.930 . S
H802 C810 0.930 . S
H803 C811 0.930 . S
H804 C814 0.930 . S
H805 C815 0.930 . S
C806 H800 0.930 . S
C806 C807 1.352 . S
C806 C808 1.415 . S
C807 C806 1.352 . S
C807 C809 1.422 1_655 S
C808 C806 1.415 . S
C808 C813 1.425 1_655 S
C808 C815 1.409 . S
C809 H801 0.930 . S
C809 C807 1.422 1_455 S
C809 C810 1.362 . S
C810 H802 0.930 . S
C810 C809 1.362 . S
C810 C813 1.409 . S
C811 H803 0.930 . S
C811 C812 1.355 1_455 S
C811 C813 1.415 . S
C812 C811 1.355 1_655 S
C812 C814 1.419 . S
C813 C808 1.425 1_455 S
C813 C810 1.409 . S
C813 C811 1.415 . S
C814 H804 0.930 . S
C814 C812 1.419 . S
C814 C815 1.362 . S
C815 H805 0.930 . S
C815 C808 1.409 . S
C815 C814 1.362 . S
H816 C822 0.930 . S
H817 C825 0.930 . S
H818 C826 0.930 . S
H819 C827 0.930 . S
H820 C830 0.930 . S
H821 C831 0.930 . S
C822 H816 0.930 . S
C822 C823 1.355 . S
C822 C824 1.415 1_554 S
C823 C822 1.355 . S
C823 C825 1.419 . S
C824 C822 1.415 1_556 S
C824 C829 1.425 . S
C824 C831 1.409 . S
C825 H817 0.930 . S
C825 C823 1.419 . S
C825 C826 1.362 1_554 S
C826 H818 0.930 . S
C826 C825 1.362 1_556 S
C826 C829 1.409 . S
C827 H819 0.930 . S
C827 C828 1.355 . S
C827 C829 1.415 . S
C828 C827 1.355 . S
C828 C830 1.419 . S
C829 C824 1.425 . S
C829 C826 1.409 . S
C829 C827 1.415 . S
C830 H820 0.930 . S
C830 C828 1.419 . S
C830 C831 1.362 . S
C831 H821 0.930 . S
C831 C824 1.409 . S
C831 C830 1.362 . S
H832 C838 0.930 . S
H833 C841 0.930 . S
H834 C842 0.930 . S
H835 C843 0.930 . S
H836 C846 0.930 . S
H837 C847 0.930 . S
C838 H832 0.930 . S
C838 C839 1.355 . S
C838 C840 1.415 . S
C839 C838 1.355 . S
C839 C841 1.419 . S
C840 C838 1.415 . S
C840 C845 1.425 . S
C840 C847 1.409 . S
C841 H833 0.930 . S
C841 C839 1.419 . S
C841 C842 1.362 . S
C842 H834 0.930 . S
C842 C841 1.362 . S
C842 C845 1.409 . S
C843 H835 0.930 . S
C843 C844 1.355 . S
C843 C845 1.415 . S
C844 C843 1.355 . S
C844 C846 1.419 . S
C845 C840 1.425 . S
C845 C842 1.409 . S
C845 C843 1.415 . S
C846 H836 0.930 . S
C846 C844 1.419 . S
C846 C847 1.362 . S
C847 H837 0.930 . S
C847 C840 1.409 . S
C847 C846 1.362 . S
H848 C854 0.930 . S
H849 C857 0.930 . S
H850 C858 0.930 . S
H851 C859 0.930 . S
H852 C862 0.930 . S
H853 C863 0.930 . S
C854 H848 0.930 . S
C854 C855 1.355 . S
C854 C856 1.415 . S
C855 C854 1.355 . S
C855 C857 1.419 . S
C856 C854 1.415 . S
C856 C861 1.425 . S
C856 C863 1.409 . S
C857 H849 0.930 . S
C857 C855 1.419 . S
C857 C858 1.362 . S
C858 H850 0.930 . S
C858 C857 1.362 . S
C858 C861 1.409 . S
C859 H851 0.930 . S
C859 C860 1.355 . S
C859 C861 1.415 . S
C860 C859 1.355 . S
C860 C862 1.419 . S
C861 C856 1.425 . S
C861 C858 1.409 . S
C861 C859 1.415 . S
C862 H852 0.930 . S
C862 C860 1.419 . S
C862 C863 1.362 . S
C863 H853 0.930 . S
C863 C856 1.409 . S
C863 C862 1.362 . S
H864 C870 0.930 . S
H865 C873 0.930 . S
H866 C874 0.930 . S
H867 C875 0.930 . S
H868 C878 0.930 . S
H869 C879 0.930 . S
C870 H864 0.930 . S
C870 C871 1.355 . S
C870 C872 1.415 . S
C871 C870 1.355 . S
C871 C873 1.419 1_455 S
C872 C870 1.415 . S
C872 C877 1.425 1_455 S
C872 C879 1.409 . S
C873 H865 0.930 . S
C873 C871 1.419 1_655 S
C873 C874 1.362 . S
C874 H866 0.930 . S
C874 C873 1.362 . S
C874 C877 1.409 . S
C875 H867 0.930 . S
C875 C876 1.355 1_655 S
C875 C877 1.415 . S
C876 C875 1.355 1_455 S
C876 C878 1.419 . S
C877 C872 1.425 1_655 S
C877 C874 1.409 . S
C877 C875 1.415 . S
C878 H868 0.930 . S
C878 C876 1.419 . S
C878 C879 1.362 . S
C879 H869 0.930 . S
C879 C872 1.409 . S
C879 C878 1.362 . S
H880 C886 0.930 . S
H881 C889 0.930 . S
H882 C890 0.930 . S
H883 C891 0.930 . S
H884 C894 0.930 . S
H885 C895 0.930 . S
C886 H880 0.930 . S
C886 C887 1.355 . S
C886 C888 1.415 . S
C887 C886 1.355 . S
C887 C889 1.419 . S
C888 C886 1.415 . S
C888 C893 1.425 . S
C888 C895 1.409 . S
C889 H881 0.930 . S
C889 C887 1.419 . S
C889 C890 1.362 . S
C890 H882 0.930 . S
C890 C889 1.362 . S
C890 C893 1.409 . S
C891 H883 0.930 . S
C891 C892 1.355 . S
C891 C893 1.415 1_554 S
C892 C891 1.355 . S
C892 C894 1.419 . S
C893 C888 1.425 . S
C893 C890 1.409 . S
C893 C891 1.415 1_556 S
C894 H884 0.930 . S
C894 C892 1.419 . S
C894 C895 1.362 1_554 S
C895 H885 0.930 . S
C895 C888 1.409 . S
C895 C894 1.362 1_556 S
H896 C902 0.930 . S
H897 C905 0.930 . S
H898 C906 0.930 . S
H899 C907 0.930 . S
H900 C910 0.930 . S
H901 C911 0.930 . S
C902 H896 0.930 . S
C902 C903 1.355 . S
C902 C904 1.415 . S
C903 C902 1.355 . S
C903 C905 1.419 . S
C904 C902 1.415 . S
C904 C909 1.425 . S
C904 C911 1.409 . S
C905 H897 0.930 . S
C905 C903 1.419 . S
C905 C906 1.362 . S
C906 H898 0.930 . S
C906 C905 1.362 . S
C906 C909 1.409 . S
C907 H899 0.930 . S
C907 C908 1.355 . S
C907 C909 1.415 . S
C908 C907 1.355 . S
C908 C910 1.419 . S
C909 C904 1.425 . S
C909 C906 1.409 . S
C909 C907 1.415 . S
C910 H900 0.930 . S
C910 C908 1.419 . S
C910 C911 1.362 . S
C911 H901 0.930 . S
C911 C904 1.409 . S
C911 C910 1.362 . S
H912 C918 0.930 . S
H913 C921 0.930 . S
H914 C922 0.930 . S
H915 C923 0.930 . S
H916 C926 0.930 . S
H917 C927 0.930 . S
C918 H912 0.930 . S
C918 C919 1.355 . S
C918 C920 1.415 . S
C919 C918 1.355 . S
C919 C921 1.419 . S
C920 C918 1.415 . S
C920 C925 1.425 . S
C920 C927 1.409 . S
C921 H913 0.930 . S
C921 C919 1.419 . S
C921 C922 1.362 . S
C922 H914 0.930 . S
C922 C921 1.362 . S
C922 C925 1.409 . S
C923 H915 0.930 . S
C923 C924 1.355 . S
C923 C925 1.415 . S
C924 C923 1.355 . S
C924 C926 1.419 . S
C925 C920 1.425 . S
C925 C922 1.409 . S
C925 C923 1.415 . S
C926 H916 0.930 . S
C926 C924 1.419 . S
C926 C927 1.362 . S
C927 H917 0.930 . S
C927 C920 1.409 . S
C927 C926 1.362 . S
H928 C934 0.930 . S
H929 C937 0.930 . S
H930 C938 0.930 . S
H931 C939 0.930 . S
H932 C942 0.930 . S
H933 C943 0.930 . S
C934 H928 0.930 . S
C934 C935 1.355 1_655 S
C934 C936 1.415 . S
C935 C934 1.355 1_455 S
C935 C937 1.419 . S
C936 C934 1.415 . S
C936 C941 1.425 1_655 S
C936 C943 1.409 . S
C937 H929 0.930 . S
C937 C935 1.419 . S
C937 C938 1.362 . S
C938 H930 0.930 . S
C938 C937 1.362 . S
C938 C941 1.409 . S
C939 H931 0.930 . S
C939 C940 1.394 . S
C939 C941 1.415 . S
C940 C939 1.394 . S
C940 C942 1.369 1_455 S
C941 C936 1.425 1_455 S
C941 C938 1.409 . S
C941 C939 1.415 . S
C942 H932 0.930 . S
C942 C940 1.369 1_655 S
C942 C943 1.362 . S
C943 H933 0.930 . S
C943 C936 1.409 . S
C943 C942 1.362 . S
H944 C950 0.930 . S
H945 C953 0.930 . S
H946 C954 0.930 . S
H947 C955 0.930 . S
H948 C958 0.930 . S
H949 C959 0.930 . S
C950 H944 0.930 . S
C950 C951 1.355 . S
C950 C952 1.415 . S
C951 C950 1.355 . S
C951 C953 1.419 . S
C952 C950 1.415 . S
C952 C957 1.425 . S
C952 C959 1.409 . S
C953 H945 0.930 . S
C953 C951 1.419 . S
C953 C954 1.362 . S
C954 H946 0.930 . S
C954 C953 1.362 . S
C954 C957 1.409 . S
C955 H947 0.930 . S
C955 C956 1.355 . S
C955 C957 1.415 1_556 S
C956 C955 1.355 . S
C956 C958 1.419 . S
C957 C952 1.425 . S
C957 C954 1.409 . S
C957 C955 1.415 1_554 S
C958 H948 0.930 . S
C958 C956 1.419 . S
C958 C959 1.362 1_556 S
C959 H949 0.930 . S
C959 C952 1.409 . S
C959 C958 1.362 1_554 S
H960 C966 0.930 . S
H961 C969 0.930 . S
H962 C970 0.930 . S
H963 C971 0.930 . S
H964 C974 0.930 . S
H965 C975 0.930 . S
C966 H960 0.930 . S
C966 C967 1.355 . S
C966 C968 1.422 1_455 S
C967 C966 1.355 . S
C967 C969 1.419 1_554 S
C968 C966 1.422 1_655 S
C968 C973 1.425 1_644 S
C968 C975 1.402 1_545 S
C969 H961 0.930 . S
C969 C967 1.419 1_556 S
C969 C970 1.362 . S
C970 H962 0.930 . S
C970 C969 1.362 . S
C970 C973 1.402 1_545 S
C971 H963 0.930 . S
C971 C972 1.355 . S
C971 C973 1.422 1_655 S
C972 C971 1.355 . S
C972 C974 1.419 1_556 S
C973 C968 1.425 1_466 S
C973 C970 1.402 1_565 S
C973 C971 1.422 1_455 S
C974 H964 0.930 . S
C974 C972 1.419 1_554 S
C974 C975 1.362 . S
C975 H965 0.930 . S
C975 C968 1.402 1_565 S
C975 C974 1.362 . S
H976 C982 0.930 . S
H977 C985 0.930 . S
H978 C986 0.930 . S
H979 C987 0.930 . S
H980 C990 0.930 . S
H981 C991 0.930 . S
C982 H976 0.930 . S
C982 C983 1.355 . S
C982 C984 1.415 . S
C983 C982 1.355 . S
C983 C985 1.419 . S
C984 C982 1.415 . S
C984 C989 1.425 . S
C984 C991 1.409 . S
C985 H977 0.930 . S
C985 C983 1.419 . S
C985 C986 1.362 . S
C986 H978 0.930 . S
C986 C985 1.362 . S
C986 C989 1.409 . S
C987 H979 0.930 . S
C987 C988 1.355 . S
C987 C989 1.415 . S
C988 C987 1.355 . S
C988 C990 1.419 . S
C989 C984 1.425 . S
C989 C986 1.409 . S
C989 C987 1.415 . S
C990 H980 0.930 . S
C990 C988 1.419 . S
C990 C991 1.362 . S
C991 H981 0.930 . S
C991 C984 1.409 . S
C991 C990 1.362 . S
H992 C998 0.930 . S
H993 C1001 0.930 . S
H994 C1002 0.962 . S
H995 C1003 0.930 . S
H996 C1006 0.930 . S
H997 C1007 0.962 . S
C998 H992 0.930 . S
C998 C999 1.355 . S
C998 C1000 1.415 . S
C999 C998 1.355 . S
C999 C1001 1.419 . S
C1000 C998 1.415 . S
C1000 C1005 1.425 1_545 S
C1000 C1007 1.424 . S
C1001 H993 0.930 . S
C1001 C999 1.419 . S
C1001 C1002 1.318 1_545 S
C1002 H994 0.962 . S
C1002 C1001 1.318 1_565 S
C1002 C1005 1.424 . S
C1003 H995 0.930 . S
C1003 C1004 1.355 . S
C1003 C1005 1.415 . S
C1004 C1003 1.355 . S
C1004 C1006 1.419 . S
C1005 C1000 1.425 1_565 S
C1005 C1002 1.424 . S
C1005 C1003 1.415 . S
C1006 H996 0.930 . S
C1006 C1004 1.419 . S
C1006 C1007 1.318 1_565 S
C1007 H997 0.962 . S
C1007 C1000 1.424 . S
C1007 C1006 1.318 1_545 S
H1008 C1014 0.930 . S
H1009 C1017 0.930 . S
H1010 C1018 0.930 . S
H1011 C1019 0.930 . S
H1012 C1022 0.930 . S
H1013 C1023 0.930 . S
C1014 H1008 0.930 . S
C1014 C1015 1.355 . S
C1014 C1016 1.415 . S
C1015 C1014 1.355 . S
C1015 C1017 1.419 . S
C1016 C1014 1.415 . S
C1016 C1021 1.425 . S
C1016 C1023 1.409 . S
C1017 H1009 0.930 . S
C1017 C1015 1.419 . S
C1017 C1018 1.362 . S
C1018 H1010 0.930 . S
C1018 C1017 1.362 . S
C1018 C1021 1.409 . S
C1019 H1011 0.930 . S
C1019 C1020 1.355 . S
C1019 C1021 1.415 . S
C1020 C1019 1.355 . S
C1020 C1022 1.419 . S
C1021 C1016 1.425 . S
C1021 C1018 1.409 . S
C1021 C1019 1.415 . S
C1022 H1012 0.930 . S
C1022 C1020 1.419 . S
C1022 C1023 1.362 . S
C1023 H1013 0.930 . S
C1023 C1016 1.409 . S
C1023 C1022 1.362 . S
H1024 C1030 0.930 . S
H1025 C1033 0.930 . S
H1026 C1034 0.930 . S
H1027 C1035 0.930 . S
H1028 C1038 0.930 . S
H1029 C1039 0.930 . S
C1030 H1024 0.930 . S
C1030 C1031 1.355 1_655 S
C1030 C1032 1.415 . S
C1031 C1030 1.355 1_455 S
C1031 C1033 1.419 . S
C1032 C1030 1.415 . S
C1032 C1037 1.425 1_665 S
C1032 C1039 1.409 . S
C1033 H1025 0.930 . S
C1033 C1031 1.419 . S
C1033 C1034 1.362 1_565 S
C1034 H1026 0.930 . S
C1034 C1033 1.362 1_545 S
C1034 C1037 1.409 . S
C1035 H1027 0.930 . S
C1035 C1036 1.355 1_455 S
C1035 C1037 1.415 . S
C1036 C1035 1.355 1_655 S
C1036 C1038 1.419 . S
C1037 C1032 1.425 1_445 S
C1037 C1034 1.409 . S
C1037 C1035 1.415 . S
C1038 H1028 0.930 . S
C1038 C1036 1.419 . S
C1038 C1039 1.362 1_545 S
C1039 H1029 0.930 . S
C1039 C1032 1.409 . S
C1039 C1038 1.362 1_565 S
H1040 C1046 0.930 . S
H1041 C1049 0.930 . S
H1042 C1050 0.930 . S
H1043 C1051 0.930 . S
H1044 C1054 0.930 . S
H1045 C1055 0.930 . S
C1046 H1040 0.930 . S
C1046 C1047 1.355 . S
C1046 C1048 1.415 . S
C1047 C1046 1.355 . S
C1047 C1049 1.419 . S
C1048 C1046 1.415 . S
C1048 C1053 1.425 . S
C1048 C1055 1.409 . S
C1049 H1041 0.930 . S
C1049 C1047 1.419 . S
C1049 C1050 1.362 . S
C1050 H1042 0.930 . S
C1050 C1049 1.362 . S
C1050 C1053 1.409 . S
C1051 H1043 0.930 . S
C1051 C1052 1.355 . S
C1051 C1053 1.415 . S
C1052 C1051 1.355 . S
C1052 C1054 1.419 . S
C1053 C1048 1.425 . S
C1053 C1050 1.409 . S
C1053 C1051 1.415 . S
C1054 H1044 0.930 . S
C1054 C1052 1.419 . S
C1054 C1055 1.362 . S
C1055 H1045 0.930 . S
C1055 C1048 1.409 . S
C1055 C1054 1.362 . S
H1056 C1062 0.930 . S
H1057 C1065 0.930 . S
H1058 C1066 0.928 1_556 S
H1059 C1067 0.930 . S
H1060 C1070 0.930 . S
H1061 C1071 0.928 1_554 S
C1062 H1056 0.930 . S
C1062 C1063 1.355 . S
C1062 C1064 1.415 . S
C1063 C1062 1.355 . S
C1063 C1065 1.419 . S
C1064 C1062 1.415 . S
C1064 C1069 1.425 1_564 S
C1064 C1071 1.408 1_554 S
C1065 H1057 0.930 . S
C1065 C1063 1.419 . S
C1065 C1066 1.366 1_565 S
C1066 H1058 0.928 1_554 S
C1066 C1065 1.366 1_545 S
C1066 C1069 1.408 1_554 S
C1067 H1059 0.930 . S
C1067 C1068 1.355 . S
C1067 C1069 1.415 . S
C1068 C1067 1.355 . S
C1068 C1070 1.419 . S
C1069 C1064 1.425 1_546 S
C1069 C1066 1.408 1_556 S
C1069 C1067 1.415 . S
C1070 H1060 0.930 . S
C1070 C1068 1.419 . S
C1070 C1071 1.366 1_545 S
C1071 H1061 0.928 1_556 S
C1071 C1064 1.408 1_556 S
C1071 C1070 1.366 1_565 S
H1072 C1078 0.930 . S
H1073 C1081 0.930 . S
H1074 C1082 0.930 . S
H1075 C1083 0.930 . S
H1076 C1086 0.930 . S
H1077 C1087 0.930 . S
C1078 H1072 0.930 . S
C1078 C1079 1.355 . S
C1078 C1080 1.415 . S
C1079 C1078 1.355 . S
C1079 C1081 1.419 . S
C1080 C1078 1.415 . S
C1080 C1085 1.425 . S
C1080 C1087 1.409 . S
C1081 H1073 0.930 . S
C1081 C1079 1.419 . S
C1081 C1082 1.362 . S
C1082 H1074 0.930 . S
C1082 C1081 1.362 . S
C1082 C1085 1.409 . S
C1083 H1075 0.930 . S
C1083 C1084 1.355 . S
C1083 C1085 1.415 . S
C1084 C1083 1.355 . S
C1084 C1086 1.419 . S
C1085 C1080 1.425 . S
C1085 C1082 1.409 . S
C1085 C1083 1.415 . S
C1086 H1076 0.930 . S
C1086 C1084 1.419 . S
C1086 C1087 1.362 . S
C1087 H1077 0.930 . S
C1087 C1080 1.409 . S
C1087 C1086 1.362 . S
H1088 C1094 0.930 . S
H1089 C1097 0.930 . S
H1090 C1098 0.930 . S
H1091 C1099 0.930 . S
H1092 C1102 0.930 . S
H1093 C1103 0.930 . S
C1094 H1088 0.930 . S
C1094 C1095 1.355 . S
C1094 C1096 1.415 . S
C1095 C1094 1.355 . S
C1095 C1097 1.419 . S
C1096 C1094 1.415 . S
C1096 C1101 1.425 . S
C1096 C1103 1.409 . S
C1097 H1089 0.930 . S
C1097 C1095 1.419 . S
C1097 C1098 1.362 . S
C1098 H1090 0.930 . S
C1098 C1097 1.362 . S
C1098 C1101 1.409 . S
C1099 H1091 0.930 . S
C1099 C1100 1.355 . S
C1099 C1101 1.415 . S
C1100 C1099 1.355 . S
C1100 C1102 1.419 . S
C1101 C1096 1.425 . S
C1101 C1098 1.409 . S
C1101 C1099 1.415 . S
C1102 H1092 0.930 . S
C1102 C1100 1.419 . S
C1102 C1103 1.362 . S
C1103 H1093 0.930 . S
C1103 C1096 1.409 . S
C1103 C1102 1.362 . S
H1104 C1110 0.930 . S
H1105 C1113 0.930 . S
H1106 C1114 0.930 . S
H1107 C1115 0.930 . S
H1108 C1118 0.930 . S
H1109 C1119 0.930 . S
C1110 H1104 0.930 . S
C1110 C1111 1.355 . S
C1110 C1112 1.415 . S
C1111 C1110 1.355 . S
C1111 C1113 1.419 . S
C1112 C1110 1.415 . S
C1112 C1117 1.425 . S
C1112 C1119 1.409 . S
C1113 H1105 0.930 . S
C1113 C1111 1.419 . S
C1113 C1114 1.362 . S
C1114 H1106 0.930 . S
C1114 C1113 1.362 . S
C1114 C1117 1.409 . S
C1115 H1107 0.930 . S
C1115 C1116 1.355 . S
C1115 C1117 1.415 . S
C1116 C1115 1.355 . S
C1116 C1118 1.419 . S
C1117 C1112 1.425 . S
C1117 C1114 1.409 . S
C1117 C1115 1.415 . S
C1118 H1108 0.930 . S
C1118 C1116 1.419 . S
C1118 C1119 1.362 . S
C1119 H1109 0.930 . S
C1119 C1112 1.409 . S
C1119 C1118 1.362 . S
H1120 C1126 0.930 . S
H1121 C1129 0.930 . S
H1122 C1130 0.930 . S
H1123 C1131 0.930 . S
H1124 C1134 0.930 . S
H1125 C1135 0.930 . S
C1126 H1120 0.930 . S
C1126 C1127 1.355 . S
C1126 C1128 1.415 . S
C1127 C1126 1.355 . S
C1127 C1129 1.419 . S
C1128 C1126 1.415 . S
C1128 C1133 1.425 . S
C1128 C1135 1.409 . S
C1129 H1121 0.930 . S
C1129 C1127 1.419 . S
C1129 C1130 1.362 . S
C1130 H1122 0.930 . S
C1130 C1129 1.362 . S
C1130 C1133 1.409 . S
C1131 H1123 0.930 . S
C1131 C1132 1.355 . S
C1131 C1133 1.415 . S
C1132 C1131 1.355 . S
C1132 C1134 1.419 . S
C1133 C1128 1.425 . S
C1133 C1130 1.409 . S
C1133 C1131 1.415 . S
C1134 H1124 0.930 . S
C1134 C1132 1.419 . S
C1134 C1135 1.362 . S
C1135 H1125 0.930 . S
C1135 C1128 1.409 . S
C1135 C1134 1.362 . S
H1136 C1142 0.930 . S
H1137 C1145 0.930 . S
H1138 C1146 0.930 . S
H1139 C1147 0.930 . S
H1140 C1150 0.930 . S
H1141 C1151 0.930 . S
C1142 H1136 0.930 . S
C1142 C1143 1.355 . S
C1142 C1144 1.415 . S
C1143 C1142 1.355 . S
C1143 C1145 1.419 . S
C1144 C1142 1.415 . S
C1144 C1149 1.425 . S
C1144 C1151 1.409 . S
C1145 H1137 0.930 . S
C1145 C1143 1.419 . S
C1145 C1146 1.362 . S
C1146 H1138 0.930 . S
C1146 C1145 1.362 . S
C1146 C1149 1.409 . S
C1147 H1139 0.930 . S
C1147 C1148 1.355 . S
C1147 C1149 1.415 . S
C1148 C1147 1.355 . S
C1148 C1150 1.419 . S
C1149 C1144 1.425 . S
C1149 C1146 1.409 . S
C1149 C1147 1.415 . S
C1150 H1140 0.930 . S
C1150 C1148 1.419 . S
C1150 C1151 1.362 . S
C1151 H1141 0.930 . S
C1151 C1144 1.409 . S
C1151 C1150 1.362 . S
H1152 C1158 0.930 . S
H1153 C1161 0.930 . S
H1154 C1162 0.930 . S
H1155 C1163 0.930 . S
H1156 C1166 0.930 . S
H1157 C1167 0.930 . S
C1158 H1152 0.930 . S
C1158 C1159 1.355 . S
C1158 C1160 1.415 . S
C1159 C1158 1.355 . S
C1159 C1161 1.419 . S
C1160 C1158 1.415 . S
C1160 C1165 1.425 . S
C1160 C1167 1.409 . S
C1161 H1153 0.930 . S
C1161 C1159 1.419 . S
C1161 C1162 1.362 . S
C1162 H1154 0.930 . S
C1162 C1161 1.362 . S
C1162 C1165 1.409 . S
C1163 H1155 0.930 . S
C1163 C1164 1.355 . S
C1163 C1165 1.415 . S
C1164 C1163 1.355 . S
C1164 C1166 1.419 . S
C1165 C1160 1.425 . S
C1165 C1162 1.409 . S
C1165 C1163 1.415 . S
C1166 H1156 0.930 . S
C1166 C1164 1.419 . S
C1166 C1167 1.362 . S
C1167 H1157 0.930 . S
C1167 C1160 1.409 . S
C1167 C1166 1.362 . S
H1168 C1174 0.930 . S
H1169 C1177 0.930 . S
H1170 C1178 0.930 . S
H1171 C1179 0.930 . S
H1172 C1182 0.930 . S
H1173 C1183 0.930 . S
C1174 H1168 0.930 . S
C1174 C1175 1.355 . S
C1174 C1176 1.415 . S
C1175 C1174 1.355 . S
C1175 C1177 1.419 1_554 S
C1176 C1174 1.415 . S
C1176 C1181 1.425 1_654 S
C1176 C1183 1.409 . S
C1177 H1169 0.930 . S
C1177 C1175 1.419 1_556 S
C1177 C1178 1.362 1_655 S
C1178 H1170 0.930 . S
C1178 C1177 1.362 1_455 S
C1178 C1181 1.409 . S
C1179 H1171 0.930 . S
C1179 C1180 1.355 . S
C1179 C1181 1.415 . S
C1180 C1179 1.355 . S
C1180 C1182 1.419 1_556 S
C1181 C1176 1.425 1_456 S
C1181 C1178 1.409 . S
C1181 C1179 1.415 . S
C1182 H1172 0.930 . S
C1182 C1180 1.419 1_554 S
C1182 C1183 1.362 1_455 S
C1183 H1173 0.930 . S
C1183 C1176 1.409 . S
C1183 C1182 1.362 1_655 S
H1184 C1190 0.937 . S
H1185 C1193 0.930 . S
H1186 C1194 0.930 . S
H1187 C1195 0.937 . S
H1188 C1198 0.930 . S
H1189 C1199 0.930 . S
C1190 H1184 0.937 . S
C1190 C1191 1.344 1_554 S
C1190 C1192 1.418 . S
C1191 C1190 1.344 1_556 S
C1191 C1193 1.419 . S
C1192 C1190 1.418 . S
C1192 C1197 1.425 1_554 S
C1192 C1199 1.409 . S
C1193 H1185 0.930 . S
C1193 C1191 1.419 . S
C1193 C1194 1.362 . S
C1194 H1186 0.930 . S
C1194 C1193 1.362 . S
C1194 C1197 1.409 . S
C1195 H1187 0.937 . S
C1195 C1196 1.344 1_556 S
C1195 C1197 1.418 . S
C1196 C1195 1.344 1_554 S
C1196 C1198 1.419 . S
C1197 C1192 1.425 1_556 S
C1197 C1194 1.409 . S
C1197 C1195 1.418 . S
C1198 H1188 0.930 . S
C1198 C1196 1.419 . S
C1198 C1199 1.362 . S
C1199 H1189 0.930 . S
C1199 C1192 1.409 . S
C1199 C1198 1.362 . S
H1200 C1206 0.930 . S
H1201 C1209 0.930 . S
H1202 C1210 0.930 . S
H1203 C1211 0.930 . S
H1204 C1214 0.930 . S
H1205 C1215 0.930 . S
C1206 H1200 0.930 . S
C1206 C1207 1.355 . S
C1206 C1208 1.415 . S
C1207 C1206 1.355 . S
C1207 C1209 1.419 . S
C1208 C1206 1.415 . S
C1208 C1213 1.425 1_455 S
C1208 C1215 1.409 . S
C1209 H1201 0.930 . S
C1209 C1207 1.419 . S
C1209 C1210 1.362 1_455 S
C1210 H1202 0.930 . S
C1210 C1209 1.362 1_655 S
C1210 C1213 1.409 . S
C1211 H1203 0.930 . S
C1211 C1212 1.355 . S
C1211 C1213 1.415 . S
C1212 C1211 1.355 . S
C1212 C1214 1.419 . S
C1213 C1208 1.425 1_655 S
C1213 C1210 1.409 . S
C1213 C1211 1.415 . S
C1214 H1204 0.930 . S
C1214 C1212 1.419 . S
C1214 C1215 1.362 1_655 S
C1215 H1205 0.930 . S
C1215 C1208 1.409 . S
C1215 C1214 1.362 1_455 S
H1216 C1222 0.930 . S
H1217 C1225 0.930 . S
H1218 C1226 0.930 . S
H1219 C1227 0.930 . S
H1220 C1230 0.930 . S
H1221 C1231 0.930 . S
C1222 H1216 0.930 . S
C1222 C1223 1.355 . S
C1222 C1224 1.415 . S
C1223 C1222 1.355 . S
C1223 C1225 1.419 . S
C1224 C1222 1.415 . S
C1224 C1229 1.425 . S
C1224 C1231 1.409 . S
C1225 H1217 0.930 . S
C1225 C1223 1.419 . S
C1225 C1226 1.362 . S
C1226 H1218 0.930 . S
C1226 C1225 1.362 . S
C1226 C1229 1.409 . S
C1227 H1219 0.930 . S
C1227 C1228 1.355 . S
C1227 C1229 1.415 . S
C1228 C1227 1.355 . S
C1228 C1230 1.419 . S
C1229 C1224 1.425 . S
C1229 C1226 1.409 . S
C1229 C1227 1.415 . S
C1230 H1220 0.930 . S
C1230 C1228 1.419 . S
C1230 C1231 1.362 . S
C1231 H1221 0.930 . S
C1231 C1224 1.409 . S
C1231 C1230 1.362 . S
H1232 C1238 0.930 . S
H1233 C1241 0.930 . S
H1234 C1242 0.930 . S
H1235 C1243 0.930 . S
H1236 C1246 0.930 . S
H1237 C1247 0.930 . S
C1238 H1232 0.930 . S
C1238 C1239 1.355 . S
C1238 C1240 1.415 . S
C1239 C1238 1.355 . S
C1239 C1241 1.419 . S
C1240 C1238 1.415 . S
C1240 C1245 1.425 . S
C1240 C1247 1.409 . S
C1241 H1233 0.930 . S
C1241 C1239 1.419 . S
C1241 C1242 1.362 . S
C1242 H1234 0.930 . S
C1242 C1241 1.362 . S
C1242 C1245 1.409 . S
C1243 H1235 0.930 . S
C1243 C1244 1.355 . S
C1243 C1245 1.415 . S
C1244 C1243 1.355 . S
C1244 C1246 1.419 . S
C1245 C1240 1.425 . S
C1245 C1242 1.409 . S
C1245 C1243 1.415 . S
C1246 H1236 0.930 . S
C1246 C1244 1.419 . S
C1246 C1247 1.362 . S
C1247 H1237 0.930 . S
C1247 C1240 1.409 . S
C1247 C1246 1.362 . S
H1248 C1254 0.930 . S
H1249 C1257 0.930 . S
H1250 C1258 0.930 . S
H1251 C1259 0.930 . S
H1252 C1262 0.930 . S
H1253 C1263 0.930 . S
C1254 H1248 0.930 . S
C1254 C1255 1.355 . S
C1254 C1256 1.415 . S
C1255 C1254 1.355 . S
C1255 C1257 1.419 . S
C1256 C1254 1.415 . S
C1256 C1261 1.425 . S
C1256 C1263 1.409 . S
C1257 H1249 0.930 . S
C1257 C1255 1.419 . S
C1257 C1258 1.362 . S
C1258 H1250 0.930 . S
C1258 C1257 1.362 . S
C1258 C1261 1.409 . S
C1259 H1251 0.930 . S
C1259 C1260 1.355 . S
C1259 C1261 1.415 . S
C1260 C1259 1.355 . S
C1260 C1262 1.419 . S
C1261 C1256 1.425 . S
C1261 C1258 1.409 . S
C1261 C1259 1.415 . S
C1262 H1252 0.930 . S
C1262 C1260 1.419 . S
C1262 C1263 1.362 . S
C1263 H1253 0.930 . S
C1263 C1256 1.409 . S
C1263 C1262 1.362 . S
H1264 C1270 0.930 . S
H1265 C1273 0.930 . S
H1266 C1274 0.930 . S
H1267 C1275 0.930 . S
H1268 C1278 0.930 . S
H1269 C1279 0.930 . S
C1270 H1264 0.930 . S
C1270 C1271 1.355 . S
C1270 C1272 1.415 . S
C1271 C1270 1.355 . S
C1271 C1273 1.419 . S
C1272 C1270 1.415 . S
C1272 C1277 1.425 . S
C1272 C1279 1.409 . S
C1273 H1265 0.930 . S
C1273 C1271 1.419 . S
C1273 C1274 1.362 . S
C1274 H1266 0.930 . S
C1274 C1273 1.362 . S
C1274 C1277 1.409 . S
C1275 H1267 0.930 . S
C1275 C1276 1.355 . S
C1275 C1277 1.415 . S
C1276 C1275 1.355 . S
C1276 C1278 1.419 . S
C1277 C1272 1.425 . S
C1277 C1274 1.409 . S
C1277 C1275 1.415 . S
C1278 H1268 0.930 . S
C1278 C1276 1.419 . S
C1278 C1279 1.362 . S
C1279 H1269 0.930 . S
C1279 C1272 1.409 . S
C1279 C1278 1.362 . S
H1280 C1286 0.930 . S
H1281 C1289 0.930 . S
H1282 C1290 0.930 . S
H1283 C1291 0.930 . S
H1284 C1294 0.930 . S
H1285 C1295 0.930 . S
C1286 H1280 0.930 . S
C1286 C1287 1.355 . S
C1286 C1288 1.415 . S
C1287 C1286 1.355 . S
C1287 C1289 1.419 . S
C1288 C1286 1.415 . S
C1288 C1293 1.425 . S
C1288 C1295 1.409 . S
C1289 H1281 0.930 . S
C1289 C1287 1.419 . S
C1289 C1290 1.362 . S
C1290 H1282 0.930 . S
C1290 C1289 1.362 . S
C1290 C1293 1.409 . S
C1291 H1283 0.930 . S
C1291 C1292 1.355 . S
C1291 C1293 1.415 . S
C1292 C1291 1.355 . S
C1292 C1294 1.419 . S
C1293 C1288 1.425 . S
C1293 C1290 1.409 . S
C1293 C1291 1.415 . S
C1294 H1284 0.930 . S
C1294 C1292 1.419 . S
C1294 C1295 1.362 . S
C1295 H1285 0.930 . S
C1295 C1288 1.409 . S
C1295 C1294 1.362 . S
H1296 C1302 0.930 . S
H1297 C1305 0.930 . S
H1298 C1306 0.930 . S
H1299 C1307 0.930 . S
H1300 C1310 0.930 . S
H1301 C1311 0.930 . S
C1302 H1296 0.930 . S
C1302 C1303 1.355 . S
C1302 C1304 1.415 . S
C1303 C1302 1.355 . S
C1303 C1305 1.419 . S
C1304 C1302 1.415 . S
C1304 C1309 1.425 . S
C1304 C1311 1.409 . S
C1305 H1297 0.930 . S
C1305 C1303 1.419 . S
C1305 C1306 1.362 . S
C1306 H1298 0.930 . S
C1306 C1305 1.362 . S
C1306 C1309 1.409 . S
C1307 H1299 0.930 . S
C1307 C1308 1.355 . S
C1307 C1309 1.415 . S
C1308 C1307 1.355 . S
C1308 C1310 1.419 . S
C1309 C1304 1.425 . S
C1309 C1306 1.409 . S
C1309 C1307 1.415 . S
C1310 H1300 0.930 . S
C1310 C1308 1.419 . S
C1310 C1311 1.362 . S
C1311 H1301 0.930 . S
C1311 C1304 1.409 . S
C1311 C1310 1.362 . S
H1312 C1318 0.930 . S
H1313 C1321 0.930 . S
H1314 C1322 0.930 . S
H1315 C1323 0.930 . S
H1316 C1326 0.930 . S
H1317 C1327 0.930 . S
C1318 H1312 0.930 . S
C1318 C1319 1.355 . S
C1318 C1320 1.415 . S
C1319 C1318 1.355 . S
C1319 C1321 1.419 . S
C1320 C1318 1.415 . S
C1320 C1325 1.425 . S
C1320 C1327 1.409 . S
C1321 H1313 0.930 . S
C1321 C1319 1.419 . S
C1321 C1322 1.362 . S
C1322 H1314 0.930 . S
C1322 C1321 1.362 . S
C1322 C1325 1.409 . S
C1323 H1315 0.930 . S
C1323 C1324 1.355 . S
C1323 C1325 1.415 . S
C1324 C1323 1.355 . S
C1324 C1326 1.419 . S
C1325 C1320 1.425 . S
C1325 C1322 1.409 . S
C1325 C1323 1.415 . S
C1326 H1316 0.930 . S
C1326 C1324 1.419 . S
C1326 C1327 1.362 . S
C1327 H1317 0.930 . S
C1327 C1320 1.409 . S
C1327 C1326 1.362 . S
H1328 C1334 0.930 . S
H1329 C1337 0.930 . S
H1330 C1338 0.930 . S
H1331 C1339 0.930 . S
H1332 C1342 0.930 . S
H1333 C1343 0.930 . S
C1334 H1328 0.930 . S
C1334 C1335 1.355 . S
C1334 C1336 1.415 . S
C1335 C1334 1.355 . S
C1335 C1337 1.419 . S
C1336 C1334 1.415 . S
C1336 C1341 1.425 . S
C1336 C1343 1.409 . S
C1337 H1329 0.930 . S
C1337 C1335 1.419 . S
C1337 C1338 1.362 . S
C1338 H1330 0.930 . S
C1338 C1337 1.362 . S
C1338 C1341 1.409 . S
C1339 H1331 0.930 . S
C1339 C1340 1.355 . S
C1339 C1341 1.415 . S
C1340 C1339 1.355 . S
C1340 C1342 1.419 . S
C1341 C1336 1.425 . S
C1341 C1338 1.409 . S
C1341 C1339 1.415 . S
C1342 H1332 0.930 . S
C1342 C1340 1.419 . S
C1342 C1343 1.362 . S
C1343 H1333 0.930 . S
C1343 C1336 1.409 . S
C1343 C1342 1.362 . S
H1344 C1350 0.930 . S
H1345 C1353 0.930 . S
H1346 C1354 0.930 . S
H1347 C1355 0.930 . S
H1348 C1358 0.930 . S
H1349 C1359 0.930 . S
C1350 H1344 0.930 . S
C1350 C1351 1.355 . S
C1350 C1352 1.415 . S
C1351 C1350 1.355 . S
C1351 C1353 1.419 . S
C1352 C1350 1.415 . S
C1352 C1357 1.425 . S
C1352 C1359 1.409 . S
C1353 H1345 0.930 . S
C1353 C1351 1.419 . S
C1353 C1354 1.362 . S
C1354 H1346 0.930 . S
C1354 C1353 1.362 . S
C1354 C1357 1.409 . S
C1355 H1347 0.930 . S
C1355 C1356 1.355 . S
C1355 C1357 1.415 . S
C1356 C1355 1.355 . S
C1356 C1358 1.419 . S
C1357 C1352 1.425 . S
C1357 C1354 1.409 . S
C1357 C1355 1.415 . S
C1358 H1348 0.930 . S
C1358 C1356 1.419 . S
C1358 C1359 1.362 . S
C1359 H1349 0.930 . S
C1359 C1352 1.409 . S
C1359 C1358 1.362 . S
H1360 C1366 0.930 . S
H1361 C1369 0.930 . S
H1362 C1370 0.930 . S
H1363 C1371 0.930 . S
H1364 C1374 0.930 . S
H1365 C1375 0.930 . S
C1366 H1360 0.930 . S
C1366 C1367 1.355 . S
C1366 C1368 1.415 . S
C1367 C1366 1.355 . S
C1367 C1369 1.419 . S
C1368 C1366 1.415 . S
C1368 C1373 1.425 . S
C1368 C1375 1.409 . S
C1369 H1361 0.930 . S
C1369 C1367 1.419 . S
C1369 C1370 1.362 . S
C1370 H1362 0.930 . S
C1370 C1369 1.362 . S
C1370 C1373 1.409 . S
C1371 H1363 0.930 . S
C1371 C1372 1.355 . S
C1371 C1373 1.415 . S
C1372 C1371 1.355 . S
C1372 C1374 1.419 . S
C1373 C1368 1.425 . S
C1373 C1370 1.409 . S
C1373 C1371 1.415 . S
C1374 H1364 0.930 . S
C1374 C1372 1.419 . S
C1374 C1375 1.362 . S
C1375 H1365 0.930 . S
C1375 C1368 1.409 . S
C1375 C1374 1.362 . S
H1376 C1382 0.930 . S
H1377 C1385 0.930 . S
H1378 C1386 0.930 . S
H1379 C1387 0.930 . S
H1380 C1390 0.930 . S
H1381 C1391 0.930 . S
C1382 H1376 0.930 . S
C1382 C1383 1.355 . S
C1382 C1384 1.415 . S
C1383 C1382 1.355 . S
C1383 C1385 1.419 . S
C1384 C1382 1.415 . S
C1384 C1389 1.425 . S
C1384 C1391 1.409 . S
C1385 H1377 0.930 . S
C1385 C1383 1.419 . S
C1385 C1386 1.362 . S
C1386 H1378 0.930 . S
C1386 C1385 1.362 . S
C1386 C1389 1.409 . S
C1387 H1379 0.930 . S
C1387 C1388 1.355 . S
C1387 C1389 1.415 . S
C1388 C1387 1.355 . S
C1388 C1390 1.419 . S
C1389 C1384 1.425 . S
C1389 C1386 1.409 . S
C1389 C1387 1.415 . S
C1390 H1380 0.930 . S
C1390 C1388 1.419 . S
C1390 C1391 1.362 . S
C1391 H1381 0.930 . S
C1391 C1384 1.409 . S
C1391 C1390 1.362 . S
H1392 C1398 0.930 . S
H1393 C1401 0.930 . S
H1394 C1402 0.930 . S
H1395 C1403 0.930 . S
H1396 C1406 0.930 . S
H1397 C1407 0.930 . S
C1398 H1392 0.930 . S
C1398 C1399 1.355 . S
C1398 C1400 1.415 . S
C1399 C1398 1.355 . S
C1399 C1401 1.419 . S
C1400 C1398 1.415 . S
C1400 C1405 1.425 . S
C1400 C1407 1.409 . S
C1401 H1393 0.930 . S
C1401 C1399 1.419 . S
C1401 C1402 1.362 . S
C1402 H1394 0.930 . S
C1402 C1401 1.362 . S
C1402 C1405 1.409 . S
C1403 H1395 0.930 . S
C1403 C1404 1.355 . S
C1403 C1405 1.415 . S
C1404 C1403 1.355 . S
C1404 C1406 1.419 . S
C1405 C1400 1.425 . S
C1405 C1402 1.409 . S
C1405 C1403 1.415 . S
C1406 H1396 0.930 . S
C1406 C1404 1.419 . S
C1406 C1407 1.362 . S
C1407 H1397 0.930 . S
C1407 C1400 1.409 . S
C1407 C1406 1.362 . S
H1408 C1414 0.930 . S
H1409 C1417 0.930 . S
H1410 C1418 0.930 . S
H1411 C1419 0.930 . S
H1412 C1422 0.930 . S
H1413 C1423 0.930 . S
C1414 H1408 0.930 . S
C1414 C1415 1.355 . S
C1414 C1416 1.415 . S
C1415 C1414 1.355 . S
C1415 C1417 1.419 . S
C1416 C1414 1.415 . S
C1416 C1421 1.425 . S
C1416 C1423 1.409 . S
C1417 H1409 0.930 . S
C1417 C1415 1.419 . S
C1417 C1418 1.362 . S
C1418 H1410 0.930 . S
C1418 C1417 1.362 . S
C1418 C1421 1.409 . S
C1419 H1411 0.930 . S
C1419 C1420 1.355 . S
C1419 C1421 1.415 . S
C1420 C1419 1.355 . S
C1420 C1422 1.419 . S
C1421 C1416 1.425 . S
C1421 C1418 1.409 . S
C1421 C1419 1.415 . S
C1422 H1412 0.930 . S
C1422 C1420 1.419 . S
C1422 C1423 1.362 . S
C1423 H1413 0.930 . S
C1423 C1416 1.409 . S
C1423 C1422 1.362 . S
H1424 C1430 0.930 . S
H1425 C1433 0.930 . S
H1426 C1434 0.930 . S
H1427 C1435 0.930 . S
H1428 C1438 0.930 . S
H1429 C1439 0.930 . S
C1430 H1424 0.930 . S
C1430 C1431 1.355 . S
C1430 C1432 1.415 . S
C1431 C1430 1.355 . S
C1431 C1433 1.419 . S
C1432 C1430 1.415 . S
C1432 C1437 1.425 . S
C1432 C1439 1.409 . S
C1433 H1425 0.930 . S
C1433 C1431 1.419 . S
C1433 C1434 1.362 . S
C1434 H1426 0.930 . S
C1434 C1433 1.362 . S
C1434 C1437 1.409 . S
C1435 H1427 0.930 . S
C1435 C1436 1.355 . S
C1435 C1437 1.415 . S
C1436 C1435 1.355 . S
C1436 C1438 1.419 . S
C1437 C1432 1.425 . S
C1437 C1434 1.409 . S
C1437 C1435 1.415 . S
C1438 H1428 0.930 . S
C1438 C1436 1.419 . S
C1438 C1439 1.362 . S
C1439 H1429 0.930 . S
C1439 C1432 1.409 . S
C1439 C1438 1.362 . S
H1440 C1446 0.930 . S
H1441 C1449 0.930 . S
H1442 C1450 0.930 . S
H1443 C1451 0.930 . S
H1444 C1454 0.930 . S
H1445 C1455 0.930 . S
C1446 H1440 0.930 . S
C1446 C1447 1.355 . S
C1446 C1448 1.415 . S
C1447 C1446 1.355 . S
C1447 C1449 1.419 . S
C1448 C1446 1.415 . S
C1448 C1453 1.425 . S
C1448 C1455 1.409 . S
C1449 H1441 0.930 . S
C1449 C1447 1.419 . S
C1449 C1450 1.362 . S
C1450 H1442 0.930 . S
C1450 C1449 1.362 . S
C1450 C1453 1.409 . S
C1451 H1443 0.930 . S
C1451 C1452 1.355 . S
C1451 C1453 1.415 . S
C1452 C1451 1.355 . S
C1452 C1454 1.419 . S
C1453 C1448 1.425 . S
C1453 C1450 1.409 . S
C1453 C1451 1.415 . S
C1454 H1444 0.930 . S
C1454 C1452 1.419 . S
C1454 C1455 1.362 . S
C1455 H1445 0.930 . S
C1455 C1448 1.409 . S
C1455 C1454 1.362 . S
H1456 C1462 0.930 . S
H1457 C1465 0.930 . S
H1458 C1466 0.930 . S
H1459 C1467 0.930 . S
H1460 C1470 0.930 . S
H1461 C1471 0.930 . S
C1462 H1456 0.930 . S
C1462 C1463 1.355 . S
C1462 C1464 1.415 . S
C1463 C1462 1.355 . S
C1463 C1465 1.419 . S
C1464 C1462 1.415 . S
C1464 C1469 1.425 . S
C1464 C1471 1.409 . S
C1465 H1457 0.930 . S
C1465 C1463 1.419 . S
C1465 C1466 1.362 . S
C1466 H1458 0.930 . S
C1466 C1465 1.362 . S
C1466 C1469 1.409 . S
C1467 H1459 0.930 . S
C1467 C1468 1.355 . S
C1467 C1469 1.415 . S
C1468 C1467 1.355 . S
C1468 C1470 1.419 . S
C1469 C1464 1.425 . S
C1469 C1466 1.409 . S
C1469 C1467 1.415 . S
C1470 H1460 0.930 . S
C1470 C1468 1.419 . S
C1470 C1471 1.362 . S
C1471 H1461 0.930 . S
C1471 C1464 1.409 . S
C1471 C1470 1.362 . S
C455 C175 1.170 1_455 S
C460 C3 1.107 . S
C471 C413 1.145 . S
C476 C17 1.127 . S
C487 C203 1.151 . S
C492 C31 1.090 . S
C503 C441 1.174 . S
C508 C45 1.109 . S
C519 C119 1.163 . S
C524 C59 1.069 . S
C535 C73 1.167 . S
C540 C357 1.157 . S
C551 C87 1.129 . S
C556 C147 1.145 . S
C567 C385 1.150 . S
C572 C101 1.165 . S
C583 C63 1.164 . S
C588 C115 1.067 . S
C599 C301 1.154 . S
C604 C129 1.081 . S
C615 C91 1.174 . S
C620 C143 1.096 . S
C631 C329 1.147 . S
C636 C157 1.156 . S
C647 C171 1.067 . S
C652 C7 1.164 . S
C663 C185 1.106 . S
C668 C245 1.148 . S
C679 C35 1.152 . S
C684 C199 1.085 . S
C695 C213 1.161 . S
C700 C273 1.148 . S
C711 C399 1.149 . S
C716 C227 1.162 . S
C727 C189 1.153 . S
C732 C241 1.167 . S
C743 C427 1.144 1_655 S
C748 C255 1.160 . S
C759 C269 1.071 . S
C764 C217 1.170 . S
C775 C283 1.137 . S
C780 C343 1.145 . S
C791 C297 1.082 . S
C796 C133 1.153 . S
C807 C371 1.144 1_655 S
C812 C311 1.140 . S
C823 C161 1.171 . S
C828 C325 1.075 . S
C839 C287 1.173 . S
C844 C339 1.122 . S
C855 C353 1.092 . S
C860 C77 1.174 . S
C871 C367 1.168 . S
C876 C315 1.149 1_455 S
C887 C381 1.166 . S
C892 C105 1.159 . S
C903 C231 1.146 . S
C908 C395 1.118 . S
C919 C21 1.174 . S
C924 C409 1.100 . S
C935 C259 1.158 1_455 S
C940 C423 1.181 . S
C951 C437 1.073 . S
C956 C49 1.157 . S
C967 C9 1.380 . S
C972 C121 1.380 . S
C983 C23 1.339 . S
C988 C359 1.339 . S
C999 C149 1.416 . S
C1004 C37 1.416 . S
C1015 C51 1.334 . S
C1020 C387 1.334 . S
C1031 C65 1.423 . S
C1036 C177 1.423 . S
C1047 C415 1.419 . S
C1052 C79 1.419 . S
C1063 C205 1.413 . S
C1068 C93 1.413 . S
C1079 C107 1.381 . S
C1084 C443 1.381 . S
C1095 C135 1.352 . S
C1100 C247 1.352 . S
C1111 C163 1.348 . S
C1116 C275 1.348 . S
C1127 C191 1.423 . S
C1132 C303 1.423 . S
C1143 C331 1.359 . S
C1148 C219 1.359 . S
C1159 C233 1.334 . S
C1164 C345 1.334 . S
C1175 C261 1.355 . S
C1180 C373 1.355 . S
C1191 C289 1.343 . S
C1196 C401 1.343 . S
C1207 C429 1.335 . S
C1212 C317 1.335 . S
C1223 C8 1.385 . S
C1228 C106 1.381 . S
C1239 C22 1.402 . S
C1244 C64 1.399 . S
C1255 C78 1.381 . S
C1260 C36 1.385 . S
C1271 C92 1.388 . S
C1276 C50 1.383 . S
C1287 C218 1.385 . S
C1292 C120 1.391 . S
C1303 C176 1.381 . S
C1308 C134 1.386 . S
C1319 C190 1.392 . S
C1324 C148 1.398 . S
C1335 C204 1.387 . S
C1340 C162 1.382 . S
C1351 C232 1.385 . S
C1356 C330 1.380 . S
C1367 C288 1.393 . S
C1372 C246 1.399 . S
C1383 C302 1.388 . S
C1388 C260 1.394 . S
C1399 C316 1.384 . S
C1404 C274 1.390 . S
C1415 C442 1.400 . S
C1420 C344 1.395 . S
C1431 C358 1.389 . S
C1436 C400 1.384 . S
C1447 C372 1.392 . S
C1452 C414 1.386 . S
C1463 C428 1.401 . S
C1468 C386 1.403 . S
