# Generated by pormake.
# Topology umz, (4)-cn, num edge types: 1
# Building blocks:
#     Node 0, Type 0, BuildingBlock: KUFVIS_clean_sbu_0, # of connection points: 4
#     Node 1, Type 0, BuildingBlock: KUFVIS_clean_sbu_0, # of connection points: 4
#     Node 2, Type 0, BuildingBlock: KUFVIS_clean_sbu_0, # of connection points: 4
#     Node 3, Type 0, BuildingBlock: KUFVIS_clean_sbu_0, # of connection points: 4
#     Node 4, Type 0, BuildingBlock: KUFVIS_clean_sbu_0, # of connection points: 4
#     Node 5, Type 0, BuildingBlock: KUFVIS_clean_sbu_0, # of connection points: 4
#     Node 6, Type 0, BuildingBlock: KUFVIS_clean_sbu_0, # of connection points: 4
#     Node 7, Type 0, BuildingBlock: KUFVIS_clean_sbu_0, # of connection points: 4
#     Node 8, Type 0, BuildingBlock: KUFVIS_clean_sbu_0, # of connection points: 4
#     Node 9, Type 0, BuildingBlock: KUFVIS_clean_sbu_0, # of connection points: 4
#     Node 10, Type 0, BuildingBlock: KUFVIS_clean_sbu_0, # of connection points: 4
#     Node 11, Type 0, BuildingBlock: KUFVIS_clean_sbu_0, # of connection points: 4
#     Node 12, Type 0, BuildingBlock: KUFVIS_clean_sbu_0, # of connection points: 4
#     Node 13, Type 0, BuildingBlock: KUFVIS_clean_sbu_0, # of connection points: 4
#     Node 14, Type 0, BuildingBlock: KUFVIS_clean_sbu_0, # of connection points: 4
#     Node 15, Type 0, BuildingBlock: KUFVIS_clean_sbu_0, # of connection points: 4
#     Edge 16, Type (0, 0), None
#     Edge 17, Type (0, 0), None
#     Edge 18, Type (0, 0), None
#     Edge 19, Type (0, 0), None
#     Edge 20, Type (0, 0), None
#     Edge 21, Type (0, 0), None
#     Edge 22, Type (0, 0), None
#     Edge 23, Type (0, 0), None
#     Edge 24, Type (0, 0), None
#     Edge 25, Type (0, 0), None
#     Edge 26, Type (0, 0), None
#     Edge 27, Type (0, 0), None
#     Edge 28, Type (0, 0), None
#     Edge 29, Type (0, 0), None
#     Edge 30, Type (0, 0), None
#     Edge 31, Type (0, 0), None
#     Edge 32, Type (0, 0), None
#     Edge 33, Type (0, 0), None
#     Edge 34, Type (0, 0), None
#     Edge 35, Type (0, 0), None
#     Edge 36, Type (0, 0), None
#     Edge 37, Type (0, 0), None
#     Edge 38, Type (0, 0), None
#     Edge 39, Type (0, 0), None
#     Edge 40, Type (0, 0), None
#     Edge 41, Type (0, 0), None
#     Edge 42, Type (0, 0), None
#     Edge 43, Type (0, 0), None
#     Edge 44, Type (0, 0), None
#     Edge 45, Type (0, 0), None
#     Edge 46, Type (0, 0), None
#     Edge 47, Type (0, 0), None
# Relax obj value: 0.236
# Max RMSD: 0.169
# Mean RMSD: 0.169
data_MOF--net-umz--node1-KUFVIS_clean_sbu_0--edge1-none
_symmetry_space_group_name_H-M    P1
_symmetry_Int_Tables_number       1
_symmetry_cell_setting            triclinic
loop_
_symmetry_equiv_pos_as_xyz
'x, y, z'
_cell_length_a     28.031117
_cell_length_b     28.031116
_cell_length_c     9.8402809
_cell_angle_alpha  89.998143
_cell_angle_beta   89.99788
_cell_angle_gamma 89.993285
loop_
_atom_site_label
_atom_site_type_symbol
_atom_site_fract_x
_atom_site_fract_y
_atom_site_fract_z
_atom_type_partial_charge
Mn0 Mn -0.01486 0.60118 0.23409 0.0
Mn1 Mn 0.92251 0.59628 0.9598 0.0
C2 C 0.90081 0.57385 0.26063 0.0
C3 C 0.03562 0.55708 0.38405 0.0
C4 C -0.02937 0.69023 0.04594 0.0
O5 O 0.03416 0.58889 0.07323 0.0
O6 O -0.01928 0.56169 0.92276 0.0
C7 C 0.89754 0.49412 0.92813 0.0
N8 N 0.88509 0.54092 0.93337 0.0
C9 C 0.80336 0.52272 0.88693 0.0
C10 C 0.81463 0.47438 0.8813 0.0
C11 C 0.86166 0.46013 0.90497 0.0
C12 C 0.83966 0.55501 0.91683 0.0
H13 H 0.93412 0.48309 0.94291 0.0
C14 C 0.02343 0.56583 0.96379 0.0
O15 O 0.03948 0.60318 0.37691 0.0
O16 O 0.00299 0.53856 0.30891 0.0
N17 N 0.86608 0.62767 0.99785 0.0
C18 C 0.8596 0.6637 0.08773 0.0
C19 C 0.81389 0.67786 0.11806 0.0
C20 C 0.77615 0.65689 0.05046 0.0
C21 C 0.78324 0.61714 0.96292 0.0
C22 C 0.82966 0.60159 0.9506 0.0
H23 H 0.88849 0.67956 0.14228 0.0
O24 O 0.92396 0.59483 0.35778 0.0
O25 O 0.92691 0.57643 0.15015 0.0
O26 O -0.02451 0.67512 0.17024 0.0
O27 O 0.95813 0.65982 0.95633 0.0
C28 C 0.74757 0.58777 0.9042 0.0
C29 C 0.75717 0.54013 0.87093 0.0
H30 H 0.78742 0.44782 0.86164 0.0
H31 H 0.86979 0.423 0.90003 0.0
H32 H 0.8071 0.7063 0.18877 0.0
H33 H 0.74329 0.66903 0.09097 0.0
H34 H 0.71158 0.59832 0.89211 0.0
H35 H 0.7283 0.51677 0.84076 0.0
Mn36 Mn 0.83386 -0.01485 0.73406 0.0
Mn37 Mn 0.83878 0.9225 0.45978 0.0
C38 C 0.86119 0.90081 0.76063 0.0
C39 C 0.87796 0.03563 0.884 0.0
C40 C 0.74481 -0.02937 0.5459 0.0
O41 O 0.84614 0.03416 0.57319 0.0
O42 O 0.87336 -0.01929 0.42274 0.0
C43 C 0.94094 0.89752 0.42815 0.0
N44 N 0.89414 0.88508 0.43337 0.0
C45 C 0.91235 0.80334 0.38696 0.0
C46 C 0.96069 0.81461 0.38134 0.0
C47 C -0.02507 0.86164 0.405 0.0
C48 C 0.88006 0.83965 0.41684 0.0
H49 H 0.95196 0.9341 0.44292 0.0
C50 C 0.8692 0.02343 0.46376 0.0
O51 O 0.83185 0.03949 0.87687 0.0
O52 O 0.89648 0.00299 0.80886 0.0
N53 N 0.80738 0.86608 0.49783 0.0
C54 C 0.77135 0.85961 0.58769 0.0
C55 C 0.75718 0.8139 0.61797 0.0
C56 C 0.77816 0.77617 0.55038 0.0
C57 C 0.81792 0.78324 0.4629 0.0
C58 C 0.83347 0.82966 0.45059 0.0
H59 H 0.75549 0.88851 0.64224 0.0
O60 O 0.84021 0.92397 0.85777 0.0
O61 O 0.85861 0.92691 0.65014 0.0
O62 O 0.75991 -0.0245 0.6702 0.0
O63 O 0.77523 0.95813 0.45629 0.0
C64 C 0.8473 0.74757 0.40421 0.0
C65 C 0.89494 0.75715 0.37097 0.0
H66 H -0.01275 0.78739 0.36169 0.0
H67 H 0.01207 0.86976 0.40007 0.0
H68 H 0.72873 0.80712 0.68866 0.0
H69 H 0.766 0.74331 0.59084 0.0
H70 H 0.83676 0.71158 0.39213 0.0
H71 H 0.91831 0.72828 0.34083 0.0
Mn72 Mn 0.4499 0.83385 0.2341 0.0
Mn73 Mn 0.51254 0.83876 0.9598 0.0
C74 C 0.53423 0.86118 0.26063 0.0
C75 C 0.39942 0.87796 0.38406 0.0
C76 C 0.46441 0.74481 0.04594 0.0
O77 O 0.40088 0.84614 0.07324 0.0
O78 O 0.45432 0.87335 0.92276 0.0
C79 C 0.5375 0.94091 0.92813 0.0
N80 N 0.54995 0.89412 0.93336 0.0
C81 C 0.63168 0.91232 0.88692 0.0
C82 C 0.62041 0.96066 0.88129 0.0
C83 C 0.57338 -0.0251 0.90497 0.0
C84 C 0.59538 0.88003 0.91682 0.0
H85 H 0.50092 0.95194 0.94291 0.0
C86 C 0.41161 0.8692 0.9638 0.0
O87 O 0.39556 0.83185 0.37693 0.0
O88 O 0.43205 0.89647 0.30891 0.0
N89 N 0.56896 0.80736 0.99784 0.0
C90 C 0.57544 0.77133 0.08772 0.0
C91 C 0.62115 0.75718 0.11805 0.0
C92 C 0.65889 0.77815 0.05046 0.0
C93 C 0.65181 0.8179 0.96292 0.0
C94 C 0.60539 0.83345 0.95059 0.0
H95 H 0.54654 0.75547 0.14227 0.0
O96 O 0.51108 0.8402 0.35778 0.0
O97 O 0.50813 0.8586 0.15016 0.0
O98 O 0.45954 0.75991 0.17025 0.0
O99 O 0.47691 0.77522 0.95633 0.0
C100 C 0.68747 0.84727 0.90419 0.0
C101 C 0.67787 0.89491 0.87093 0.0
H102 H 0.64762 -0.01278 0.86163 0.0
H103 H 0.56525 0.01204 0.90002 0.0
H104 H 0.62794 0.72873 0.18877 0.0
H105 H 0.69175 0.76601 0.09097 0.0
H106 H 0.72346 0.83673 0.89211 0.0
H107 H 0.70675 0.91827 0.84076 0.0
Mn108 Mn 0.60118 0.44988 0.73405 0.0
Mn109 Mn 0.59626 0.51253 0.45976 0.0
C110 C 0.57384 0.53422 0.76061 0.0
C111 C 0.55708 0.39941 0.884 0.0
C112 C 0.69022 0.4644 0.54589 0.0
O113 O 0.5889 0.40087 0.57318 0.0
O114 O 0.56168 0.45432 0.42273 0.0
C115 C 0.4941 0.53751 0.42813 0.0
N116 N 0.5409 0.54995 0.43335 0.0
C117 C 0.52269 0.63169 0.38695 0.0
C118 C 0.47435 0.62042 0.38133 0.0
C119 C 0.46011 0.5734 0.40499 0.0
C120 C 0.55498 0.59538 0.41682 0.0
H121 H 0.48308 0.50093 0.4429 0.0
C122 C 0.56584 0.4116 0.46375 0.0
O123 O 0.60318 0.39554 0.87686 0.0
O124 O 0.53856 0.43204 0.80885 0.0
N125 N 0.62766 0.56895 0.49781 0.0
C126 C 0.66369 0.57542 0.58767 0.0
C127 C 0.67785 0.62113 0.61796 0.0
C128 C 0.65688 0.65887 0.55037 0.0
C129 C 0.61712 0.65179 0.46289 0.0
C130 C 0.60157 0.60538 0.45057 0.0
H131 H 0.67955 0.54652 0.64222 0.0
O132 O 0.59483 0.51106 0.85775 0.0
O133 O 0.57643 0.50812 0.65013 0.0
O134 O 0.67512 0.45953 0.6702 0.0
O135 O 0.65981 0.4769 0.45628 0.0
C136 C 0.58774 0.68747 0.40421 0.0
C137 C 0.5401 0.67788 0.37098 0.0
H138 H 0.44779 0.64764 0.36169 0.0
H139 H 0.42298 0.56527 0.40006 0.0
H140 H 0.70631 0.6279 0.68865 0.0
H141 H 0.66903 0.69172 0.59085 0.0
H142 H 0.59828 0.72346 0.39214 0.0
H143 H 0.51673 0.70676 0.34084 0.0
Mn144 Mn -0.01483 0.83387 0.81662 0.0
Mn145 Mn 0.9225 0.8388 0.09088 0.0
C146 C 0.90089 0.86124 0.78996 0.0
C147 C 0.03565 0.87795 0.66667 0.0
C148 C -0.02937 0.74483 1.00479 0.0
O149 O 0.03417 0.84616 0.97752 0.0
O150 O -0.01929 0.87338 0.12797 0.0
C151 C 0.8975 0.94095 0.12256 0.0
N152 N 0.88507 0.89415 0.11728 0.0
C153 C 0.80332 0.91235 0.16362 0.0
C154 C 0.81458 0.96069 0.16931 0.0
C155 C 0.86161 -0.02506 0.1457 0.0
C156 C 0.83964 0.88006 0.13376 0.0
H157 H 0.93408 0.95198 0.10783 0.0
C158 C 0.02343 0.86923 0.08694 0.0
O159 O 0.03952 0.83185 0.67383 0.0
O160 O 0.00301 0.89648 0.7418 0.0
N161 N 0.86609 0.8074 0.05275 0.0
C162 C 0.85964 0.77138 0.96283 0.0
C163 C 0.81394 0.75722 0.93243 0.0
C164 C 0.77618 0.77819 0.99997 0.0
C165 C 0.78324 0.81794 0.08751 0.0
C166 C 0.82965 0.83348 0.09995 0.0
H167 H 0.88854 0.75553 0.9083 0.0
O168 O 0.92401 0.84021 0.69284 0.0
O169 O 0.92694 0.85864 0.90053 0.0
O170 O -0.02448 0.75993 0.88049 0.0
O171 O 0.95814 0.77525 0.09439 0.0
C172 C 0.74755 0.8473 0.14618 0.0
C173 C 0.75713 0.89494 0.17951 0.0
H174 H 0.78736 -0.01275 0.18895 0.0
H175 H 0.86973 0.01207 0.15067 0.0
H176 H 0.80718 0.72878 0.86171 0.0
H177 H 0.74334 0.76604 0.95941 0.0
H178 H 0.71156 0.83676 0.15819 0.0
H179 H 0.72825 0.9183 0.20965 0.0
Mn180 Mn 0.60117 -0.01485 0.31657 0.0
Mn181 Mn 0.59625 0.92249 0.59084 0.0
C182 C 0.5738 0.90087 0.28994 0.0
C183 C 0.55708 0.03564 0.16661 0.0
C184 C 0.69021 -0.02938 0.50474 0.0
O185 O 0.58887 0.03416 0.47746 0.0
O186 O 0.56166 -0.0193 0.62793 0.0
C187 C 0.4941 0.89751 0.62256 0.0
N188 N 0.5409 0.88507 0.61727 0.0
C189 C 0.52271 0.80333 0.66365 0.0
C190 C 0.47437 0.8146 0.66935 0.0
C191 C 0.46012 0.86163 0.64573 0.0
C192 C 0.55499 0.83964 0.63375 0.0
H193 H 0.48307 0.93409 0.60783 0.0
C194 C 0.56581 0.02342 0.58689 0.0
O195 O 0.60319 0.0395 0.17377 0.0
O196 O 0.53856 0.00301 0.24174 0.0
N197 N 0.62765 0.86608 0.55271 0.0
C198 C 0.66367 0.85962 0.46277 0.0
C199 C 0.67782 0.81391 0.43235 0.0
C200 C 0.65685 0.77616 0.49989 0.0
C201 C 0.61712 0.78323 0.58749 0.0
C202 C 0.60157 0.82964 0.59993 0.0
H203 H 0.67952 0.88852 0.40825 0.0
O204 O 0.59484 0.92399 0.19281 0.0
O205 O 0.57641 0.92693 0.4005 0.0
O206 O 0.67511 -0.0245 0.38044 0.0
O207 O 0.65979 0.95812 0.59435 0.0
C208 C 0.58776 0.74755 0.6462 0.0
C209 C 0.54013 0.75713 0.67956 0.0
H210 H 0.44781 0.78738 0.68901 0.0
H211 H 0.42298 0.86975 0.65071 0.0
H212 H 0.70626 0.80714 0.3616 0.0
H213 H 0.66899 0.74331 0.4593 0.0
H214 H 0.59832 0.71156 0.65823 0.0
H215 H 0.51677 0.72826 0.70973 0.0
Mn216 Mn 0.44987 0.60117 0.81662 0.0
Mn217 Mn 0.51254 0.59623 0.09086 0.0
C218 C 0.53415 0.57379 0.78994 0.0
C219 C 0.39939 0.55708 0.66667 0.0
C220 C 0.46441 0.6902 1.00479 0.0
O221 O 0.40087 0.58887 0.97752 0.0
O222 O 0.45433 0.56164 0.12796 0.0
C223 C 0.53754 0.49408 0.12254 0.0
N224 N 0.54997 0.54088 0.11726 0.0
C225 C 0.63172 0.52268 0.16361 0.0
C226 C 0.62046 0.47434 0.1693 0.0
C227 C 0.57343 0.46009 0.14569 0.0
C228 C 0.5954 0.55497 0.13374 0.0
H229 H 0.50096 0.48304 0.10782 0.0
C230 C 0.41161 0.5658 0.08694 0.0
O231 O 0.39552 0.60318 0.67383 0.0
O232 O 0.43203 0.53855 0.7418 0.0
N233 N 0.56895 0.62763 0.05273 0.0
C234 C 0.5754 0.66365 0.96282 0.0
C235 C 0.62111 0.67781 0.93243 0.0
C236 C 0.65886 0.65685 0.99997 0.0
C237 C 0.6518 0.6171 0.08751 0.0
C238 C 0.60539 0.60155 0.09993 0.0
H239 H 0.5465 0.6795 0.90828 0.0
O240 O 0.51103 0.59483 0.69282 0.0
O241 O 0.5081 0.5764 0.90052 0.0
O242 O 0.45952 0.6751 0.88048 0.0
O243 O 0.4769 0.65978 0.09439 0.0
C244 C 0.68749 0.58773 0.14618 0.0
C245 C 0.67791 0.54009 0.17951 0.0
H246 H 0.64768 0.44778 0.18894 0.0
H247 H 0.56531 0.42295 0.15066 0.0
H248 H 0.62787 0.70626 0.86171 0.0
H249 H 0.6917 0.669 0.95943 0.0
H250 H 0.72348 0.59828 0.1582 0.0
H251 H 0.70679 0.51673 0.20966 0.0
Mn252 Mn 0.83387 0.44988 0.31658 0.0
Mn253 Mn 0.83878 0.51254 0.59085 0.0
C254 C 0.86124 0.53416 0.28994 0.0
C255 C 0.87796 0.39939 0.16662 0.0
C256 C 0.74483 0.46441 0.50474 0.0
O257 O 0.84617 0.40087 0.47747 0.0
O258 O 0.87337 0.45433 0.62794 0.0
C259 C 0.94093 0.53752 0.62256 0.0
N260 N 0.89414 0.54996 0.61727 0.0
C261 C 0.91232 0.6317 0.66364 0.0
C262 C 0.96066 0.62043 0.66934 0.0
C263 C -0.02508 0.5734 0.64572 0.0
C264 C 0.88004 0.59539 0.63375 0.0
H265 H 0.95197 0.50094 0.60782 0.0
C266 C 0.86923 0.41161 0.5869 0.0
O267 O 0.83185 0.39554 0.17379 0.0
O268 O 0.89648 0.43203 0.24174 0.0
N269 N 0.80738 0.56895 0.55271 0.0
C270 C 0.77137 0.57542 0.46277 0.0
C271 C 0.75722 0.62112 0.43234 0.0
C272 C 0.77819 0.65887 0.49988 0.0
C273 C 0.81792 0.65181 0.58748 0.0
C274 C 0.83346 0.60539 0.59992 0.0
H275 H 0.75552 0.54651 0.40824 0.0
O276 O 0.84021 0.51104 0.19281 0.0
O277 O 0.85863 0.5081 0.40051 0.0
O278 O 0.75993 0.45953 0.38044 0.0
O279 O 0.77524 0.47691 0.59435 0.0
C280 C 0.84727 0.68748 0.64619 0.0
C281 C 0.89491 0.67789 0.67955 0.0
H282 H -0.01278 0.64765 0.689 0.0
H283 H 0.01205 0.56528 0.6507 0.0
H284 H 0.72878 0.62789 0.36159 0.0
H285 H 0.76605 0.69172 0.45929 0.0
H286 H 0.83672 0.72347 0.65822 0.0
H287 H 0.91826 0.70677 0.70972 0.0
Mn288 Mn 0.9499 0.33385 0.81659 0.0
Mn289 Mn 0.01253 0.33875 0.09088 0.0
C290 C 0.03423 0.36119 0.79005 0.0
C291 C 0.89941 0.37796 0.66665 0.0
C292 C 0.96441 0.24481 1.00474 0.0
O293 O 0.90087 0.34615 0.97745 0.0
O294 O 0.95432 0.37334 0.12793 0.0
C295 C 0.0375 0.44091 0.12255 0.0
N296 N 0.04995 0.39411 0.11732 0.0
C297 C 0.13168 0.41231 0.16375 0.0
C298 C 0.12041 0.46065 0.16938 0.0
C299 C 0.07338 0.4749 0.14571 0.0
C300 C 0.09538 0.38002 0.13385 0.0
H301 H 0.00092 0.45194 0.10777 0.0
C302 C 0.9116 0.36919 0.0869 0.0
O303 O 0.89556 0.33185 0.67377 0.0
O304 O 0.93205 0.39648 0.74178 0.0
N305 N 0.06896 0.30736 0.05283 0.0
C306 C 0.07544 0.27133 0.96295 0.0
C307 C 0.12115 0.25717 0.93262 0.0
C308 C 0.15889 0.27815 1.00022 0.0
C309 C 0.1518 0.31789 0.08776 0.0
C310 C 0.10538 0.33344 0.10008 0.0
H311 H 0.04654 0.25547 0.9084 0.0
O312 O 0.01108 0.34021 0.6929 0.0
O313 O 0.00813 0.3586 0.90053 0.0
O314 O 0.95954 0.25991 0.88044 0.0
O315 O -0.02309 0.27521 0.09435 0.0
C316 C 0.18747 0.34726 0.14648 0.0
C317 C 0.17787 0.3949 0.17974 0.0
H318 H 0.14762 0.48721 0.18904 0.0
H319 H 0.06525 0.51203 0.15065 0.0
H320 H 0.12794 0.22873 0.86191 0.0
H321 H 0.19175 0.26601 0.95971 0.0
H322 H 0.22346 0.33671 0.15857 0.0
H323 H 0.20674 0.41826 0.20992 0.0
Mn324 Mn 0.10118 0.94988 0.31662 0.0
Mn325 Mn 0.09626 0.01253 0.5909 0.0
C326 C 0.07384 0.03422 0.29005 0.0
C327 C 0.05708 0.8994 0.16669 0.0
C328 C 0.19022 0.9644 0.50478 0.0
O329 O 0.0889 0.90087 0.47749 0.0
O330 O 0.06168 0.95432 0.62795 0.0
C331 C -0.0059 0.03751 0.62254 0.0
N332 N 0.0409 0.04995 0.61731 0.0
C333 C 0.02269 0.13169 0.66372 0.0
C334 C -0.02565 0.12042 0.66934 0.0
C335 C 0.96011 0.07339 0.64568 0.0
C336 C 0.05498 0.09538 0.63384 0.0
H337 H -0.01692 0.00093 0.60777 0.0
C338 C 0.06584 0.9116 0.58694 0.0
O339 O 0.10319 0.89554 0.17381 0.0
O340 O 0.03856 0.93204 0.24183 0.0
N341 N 0.12766 0.06895 0.55285 0.0
C342 C 0.16369 0.07542 0.463 0.0
C343 C 0.17786 0.12113 0.4327 0.0
C344 C 0.15688 0.15887 0.5003 0.0
C345 C 0.11712 0.15179 0.58778 0.0
C346 C 0.10157 0.10538 0.60009 0.0
H347 H 0.17955 0.04653 0.40844 0.0
O348 O 0.09483 0.01106 0.19291 0.0
O349 O 0.07643 0.00812 0.40054 0.0
O350 O 0.17513 0.95953 0.38048 0.0
O351 O 0.15981 -0.0231 0.59439 0.0
C352 C 0.08774 0.18746 0.64647 0.0
C353 C 0.0401 0.17788 0.67971 0.0
H354 H 0.94778 0.14764 0.68899 0.0
H355 H 0.92297 0.06527 0.65061 0.0
H356 H 0.20631 0.12791 0.36202 0.0
H357 H 0.16904 0.19172 0.45983 0.0
H358 H 0.09828 0.22345 0.65855 0.0
H359 H 0.01673 0.20675 0.70985 0.0
Mn360 Mn 0.48514 0.10118 0.81658 0.0
Mn361 Mn 0.4225 0.09628 0.09089 0.0
C362 C 0.40081 0.07385 0.79005 0.0
C363 C 0.53562 0.05708 0.66664 0.0
C364 C 0.47063 0.19023 1.00474 0.0
O365 O 0.53416 0.08889 0.97744 0.0
O366 O 0.48072 0.06168 0.12792 0.0
C367 C 0.39754 -0.00588 0.12255 0.0
N368 N 0.38509 0.04092 0.11732 0.0
C369 C 0.30336 0.02271 0.16375 0.0
C370 C 0.31463 -0.02563 0.16939 0.0
C371 C 0.36166 0.96013 0.14572 0.0
C372 C 0.33966 0.055 0.13386 0.0
H373 H 0.43412 -0.01691 0.10778 0.0
C374 C 0.52343 0.06584 0.08689 0.0
O375 O 0.53948 0.10318 0.67375 0.0
O376 O 0.50299 0.03856 0.74178 0.0
N377 N 0.36608 0.12767 0.05284 0.0
C378 C 0.3596 0.1637 0.96296 0.0
C379 C 0.31389 0.17786 0.93263 0.0
C380 C 0.27615 0.15688 1.00022 0.0
C381 C 0.28323 0.11713 0.08776 0.0
C382 C 0.32965 0.10159 0.10009 0.0
H383 H 0.3885 0.17956 0.90841 0.0
O384 O 0.42396 0.09483 0.6929 0.0
O385 O 0.42691 0.07643 0.90053 0.0
O386 O 0.47549 0.17512 0.88044 0.0
O387 O 0.45813 0.15981 0.09435 0.0
C388 C 0.24757 0.08776 0.14648 0.0
C389 C 0.25716 0.04012 0.17975 0.0
H390 H 0.28742 0.94781 0.18905 0.0
H391 H 0.36979 0.92299 0.15066 0.0
H392 H 0.3071 0.2063 0.86191 0.0
H393 H 0.24329 0.16902 0.95971 0.0
H394 H 0.21158 0.09831 0.15857 0.0
H395 H 0.22829 0.01676 0.20992 0.0
Mn396 Mn 0.33386 0.48515 0.31664 0.0
Mn397 Mn 0.33877 0.4225 0.59092 0.0
C398 C 0.3612 0.40081 0.29007 0.0
C399 C 0.37796 0.53563 0.1667 0.0
C400 C 0.24482 0.47063 0.50479 0.0
O401 O 0.34614 0.53416 0.4775 0.0
O402 O 0.37336 0.48071 0.62796 0.0
C403 C 0.44094 0.39752 0.62255 0.0
N404 N 0.39414 0.38508 0.61734 0.0
C405 C 0.41235 0.30334 0.66373 0.0
C406 C 0.46069 0.31461 0.66935 0.0
C407 C 0.47493 0.36164 0.64569 0.0
C408 C 0.38006 0.33965 0.63386 0.0
H409 H 0.45196 0.4341 0.60778 0.0
C410 C 0.3692 0.52343 0.58694 0.0
O411 O 0.33186 0.53949 0.17382 0.0
O412 O 0.39648 0.50299 0.24184 0.0
N413 N 0.30738 0.36608 0.55287 0.0
C414 C 0.27135 0.35961 0.46302 0.0
C415 C 0.25719 0.3139 0.43272 0.0
C416 C 0.27816 0.27617 0.5003 0.0
C417 C 0.31792 0.28324 0.58779 0.0
C418 C 0.33347 0.32965 0.60011 0.0
H419 H 0.25549 0.38851 0.40846 0.0
O420 O 0.34021 0.42398 0.19293 0.0
O421 O 0.35861 0.42691 0.40056 0.0
O422 O 0.25992 0.4755 0.38049 0.0
O423 O 0.27523 0.45813 0.5944 0.0
C424 C 0.3473 0.24756 0.64647 0.0
C425 C 0.39494 0.25715 0.6797 0.0
H426 H 0.48725 0.28739 0.68899 0.0
H427 H 0.51206 0.36976 0.65062 0.0
H428 H 0.22873 0.30713 0.36203 0.0
H429 H 0.26601 0.24331 0.45983 0.0
H430 H 0.33676 0.21157 0.65853 0.0
H431 H 0.41831 0.22827 0.70984 0.0
Mn432 Mn 0.94987 0.10116 0.23406 0.0
Mn433 Mn 0.01254 0.09624 0.9598 0.0
C434 C 0.03415 0.07379 0.26072 0.0
C435 C 0.89938 0.05708 0.384 0.0
C436 C 0.96441 0.1902 0.04589 0.0
O437 O 0.90087 0.08887 0.07316 0.0
O438 O 0.95433 0.06165 0.92271 0.0
C439 C 0.03754 -0.00592 0.92812 0.0
N440 N 0.04997 0.04088 0.9334 0.0
C441 C 0.13172 0.02268 0.88706 0.0
C442 C 0.12046 -0.02566 0.88138 0.0
C443 C 0.07343 0.96009 0.90498 0.0
C444 C 0.0954 0.05497 0.91693 0.0
H445 H 0.00096 -0.01695 0.94285 0.0
C446 C 0.91161 0.06581 0.96373 0.0
O447 O 0.89553 0.10318 0.37686 0.0
O448 O 0.93203 0.03855 0.30888 0.0
N449 N 0.06895 0.12763 0.99793 0.0
C450 C 0.0754 0.16365 0.08785 0.0
C451 C 0.1211 0.17781 0.11825 0.0
C452 C 0.15886 0.15684 0.05071 0.0
C453 C 0.1518 0.11709 0.96317 0.0
C454 C 0.10539 0.10155 0.95073 0.0
H455 H 0.0465 0.1795 0.14238 0.0
O456 O 0.01103 0.09483 0.35784 0.0
O457 O 0.0081 0.07639 0.15015 0.0
O458 O 0.95952 0.1751 0.17019 0.0
O459 O -0.0231 0.15978 0.95629 0.0
C460 C 0.18749 0.08773 0.9045 0.0
C461 C 0.17791 0.04009 0.87117 0.0
H462 H 0.14768 0.94778 0.86173 0.0
H463 H 0.06531 0.92296 0.90001 0.0
H464 H 0.12786 0.20625 0.18897 0.0
H465 H 0.1917 0.16899 0.09126 0.0
H466 H 0.22348 0.09828 0.89249 0.0
H467 H 0.20679 0.01673 0.84103 0.0
Mn468 Mn 0.33387 0.94988 0.73411 0.0
Mn469 Mn 0.33879 0.01254 0.45984 0.0
C470 C 0.36124 0.03416 0.76074 0.0
C471 C 0.37796 0.89939 0.88406 0.0
C472 C 0.24483 0.96441 0.54594 0.0
O473 O 0.34617 0.90087 0.57322 0.0
O474 O 0.37338 0.95433 0.42275 0.0
C475 C 0.44094 0.03752 0.42812 0.0
N476 N 0.39414 0.04996 0.43341 0.0
C477 C 0.41233 0.1317 0.38704 0.0
C478 C 0.46067 0.12043 0.38134 0.0
C479 C 0.47492 0.07341 0.40496 0.0
C480 C 0.38005 0.09539 0.41693 0.0
H481 H 0.45197 0.00094 0.44286 0.0
C482 C 0.36922 0.91161 0.46378 0.0
O483 O 0.33185 0.89554 0.87691 0.0
O484 O 0.39648 0.93203 0.80894 0.0
N485 N 0.30739 0.06895 0.49797 0.0
C486 C 0.27137 0.07541 0.58791 0.0
C487 C 0.25722 0.12112 0.61833 0.0
C488 C 0.27819 0.15887 0.55079 0.0
C489 C 0.31792 0.15181 0.46319 0.0
C490 C 0.33347 0.10539 0.45075 0.0
H491 H 0.25552 0.04651 0.64243 0.0
O492 O 0.3402 0.01104 0.85787 0.0
O493 O 0.35863 0.0081 0.65018 0.0
O494 O 0.25993 0.95953 0.67024 0.0
O495 O 0.27525 -0.02309 0.45633 0.0
C496 C 0.34728 0.18748 0.40448 0.0
C497 C 0.39491 0.1779 0.37112 0.0
H498 H 0.48723 0.14765 0.36167 0.0
H499 H 0.51206 0.06528 0.39997 0.0
H500 H 0.22878 0.12789 0.68908 0.0
H501 H 0.26605 0.19172 0.59138 0.0
H502 H 0.33672 0.22347 0.39245 0.0
H503 H 0.41827 0.20677 0.34095 0.0
Mn504 Mn 0.48516 0.33387 0.23407 0.0
Mn505 Mn 0.4225 0.3388 0.95982 0.0
C506 C 0.40089 0.36124 0.26074 0.0
C507 C 0.53565 0.37795 0.384 0.0
C508 C 0.47063 0.24483 0.04589 0.0
O509 O 0.53417 0.34616 0.07316 0.0
O510 O 0.48071 0.37339 0.92272 0.0
C511 C 0.3975 0.44096 0.92814 0.0
N512 N 0.38507 0.39416 0.93342 0.0
C513 C 0.30332 0.41235 0.88708 0.0
C514 C 0.31458 0.46069 0.88139 0.0
C515 C 0.36161 0.47494 0.905 0.0
C516 C 0.33964 0.38007 0.91694 0.0
H517 H 0.43408 0.45199 0.94287 0.0
C518 C 0.52343 0.36922 0.96373 0.0
O519 O 0.53951 0.33185 0.37686 0.0
O520 O 0.50301 0.39648 0.30888 0.0
N521 N 0.36609 0.3074 0.99795 0.0
C522 C 0.35963 0.27138 0.08787 0.0
C523 C 0.31393 0.25722 0.11825 0.0
C524 C 0.27618 0.27819 0.05071 0.0
C525 C 0.28324 0.31794 0.96317 0.0
C526 C 0.32965 0.33349 0.95075 0.0
H527 H 0.38854 0.25553 0.1424 0.0
O528 O 0.42401 0.3402 0.35786 0.0
O529 O 0.42694 0.35864 0.15016 0.0
O530 O 0.47552 0.25993 0.1702 0.0
O531 O 0.45814 0.27525 0.95629 0.0
C532 C 0.24755 0.3473 0.9045 0.0
C533 C 0.25713 0.39494 0.87117 0.0
H534 H 0.28736 0.48725 0.86174 0.0
H535 H 0.36973 0.51208 0.90003 0.0
H536 H 0.30717 0.22877 0.18897 0.0
H537 H 0.24333 0.26603 0.09125 0.0
H538 H 0.21156 0.33675 0.89248 0.0
H539 H 0.22825 0.4183 0.84103 0.0
Mn540 Mn 0.10117 0.48515 0.7341 0.0
Mn541 Mn 0.09626 0.4225 0.45983 0.0
C542 C 0.0738 0.40087 0.76074 0.0
C543 C 0.05708 0.53564 0.88405 0.0
C544 C 0.19021 0.47062 0.54594 0.0
O545 O 0.08887 0.53416 0.57321 0.0
O546 O 0.06167 0.48071 0.42274 0.0
C547 C -0.0059 0.39751 0.42813 0.0
N548 N 0.0409 0.38507 0.43342 0.0
C549 C 0.02271 0.30333 0.38704 0.0
C550 C -0.02562 0.3146 0.38135 0.0
C551 C 0.96012 0.36163 0.40497 0.0
C552 C 0.055 0.33964 0.41694 0.0
H553 H -0.01693 0.43409 0.44286 0.0
C554 C 0.06582 0.52343 0.46377 0.0
O555 O 0.10319 0.53949 0.8769 0.0
O556 O 0.03855 0.50301 0.80893 0.0
N557 N 0.12765 0.36608 0.49797 0.0
C558 C 0.16367 0.35962 0.58791 0.0
C559 C 0.17782 0.31391 0.61834 0.0
C560 C 0.15685 0.27616 0.5508 0.0
C561 C 0.11712 0.28323 0.4632 0.0
C562 C 0.10158 0.32964 0.45076 0.0
H563 H 0.17952 0.38852 0.64244 0.0
O564 O 0.09483 0.42399 0.85787 0.0
O565 O 0.07641 0.42693 0.65017 0.0
O566 O 0.17511 0.4755 0.67024 0.0
O567 O 0.1598 0.45812 0.45633 0.0
C568 C 0.08777 0.24755 0.40449 0.0
C569 C 0.04013 0.25714 0.37113 0.0
H570 H 0.94782 0.28738 0.36168 0.0
H571 H 0.92299 0.36975 0.39998 0.0
H572 H 0.20626 0.30714 0.68909 0.0
H573 H 0.16899 0.24331 0.59139 0.0
H574 H 0.09832 0.21156 0.39246 0.0
H575 H 0.01678 0.22826 0.34096 0.0
loop_
_geom_bond_atom_site_label_1
_geom_bond_atom_site_label_2
_geom_bond_distance
_geom_bond_site_symmetry_2
_ccdc_geom_bond_type
Mn0 O5 2.103 . S
Mn0 O15 2.162 . S
Mn0 O16 2.297 . S
Mn0 O24 2.385 1_455 S
Mn0 O25 2.209 1_455 S
Mn0 O26 2.094 . S
Mn1 O6 2.121 1_655 S
Mn1 N8 2.257 . S
Mn1 N17 2.282 . S
Mn1 O25 2.215 1_556 S
Mn1 O27 2.117 . S
C2 O24 1.234 . S
C2 O25 1.283 . S
C3 O15 1.281 . S
C3 O16 1.236 . S
C4 O26 1.240 1_655 S
C4 O27 1.264 1_554 S
O5 Mn0 2.103 . S
O5 C14 1.243 1_554 S
O6 Mn1 2.121 1_455 S
O6 C14 1.258 . S
C7 N8 1.326 . S
C7 C11 1.460 . S
C7 H13 0.929 . S
N8 Mn1 2.257 . S
N8 C7 1.326 . S
N8 C12 1.362 . S
C9 C10 1.258 . S
C9 C12 1.431 . S
C9 C29 1.449 . S
C10 C9 1.258 . S
C10 C11 1.477 . S
C10 H30 0.931 . S
C11 C7 1.460 . S
C11 C10 1.477 . S
C11 H31 0.930 . S
C12 N8 1.362 . S
C12 C9 1.431 . S
C12 C22 1.476 . S
H13 C7 0.929 . S
C14 O5 1.243 1_556 S
C14 O6 1.258 . S
O15 Mn0 2.162 . S
O15 C3 1.281 . S
O16 Mn0 2.297 . S
O16 C3 1.236 . S
N17 Mn1 2.282 . S
N17 C18 1.328 1_556 S
N17 C22 1.318 . S
C18 N17 1.328 1_554 S
C18 C19 1.457 . S
C18 H23 0.929 . S
C19 C18 1.457 . S
C19 C20 1.291 . S
C19 H32 0.931 . S
C20 C19 1.291 . S
C20 C21 1.373 1_554 S
C20 H33 0.929 . S
C21 C20 1.373 1_556 S
C21 C22 1.396 . S
C21 C28 1.403 . S
C22 C12 1.476 . S
C22 N17 1.318 . S
C22 C21 1.396 . S
H23 C18 0.929 . S
O24 Mn0 2.385 1_655 S
O24 C2 1.234 . S
O25 Mn0 2.209 1_655 S
O25 Mn1 2.215 1_554 S
O25 C2 1.283 . S
O26 Mn0 2.094 . S
O26 C4 1.240 1_455 S
O27 Mn1 2.117 . S
O27 C4 1.264 1_556 S
C28 C21 1.403 . S
C28 C29 1.399 . S
C28 H34 0.929 . S
C29 C9 1.449 . S
C29 C28 1.399 . S
C29 H35 0.930 . S
H30 C10 0.931 . S
H31 C11 0.930 . S
H32 C19 0.931 . S
H33 C20 0.929 . S
H34 C28 0.929 . S
H35 C29 0.930 . S
Mn36 O41 2.095 . S
Mn36 O51 2.162 . S
Mn36 O52 2.297 . S
Mn36 O60 2.385 1_545 S
Mn36 O61 2.209 1_545 S
Mn36 O62 2.094 . S
Mn37 O42 2.121 1_565 S
Mn37 N44 2.257 . S
Mn37 N53 2.282 . S
Mn37 O61 2.215 . S
Mn37 O63 2.117 . S
C38 O60 1.234 . S
C38 O61 1.283 . S
C39 O51 1.281 . S
C39 O52 1.236 . S
C40 O62 1.240 1_565 S
C40 O63 1.264 . S
O41 Mn36 2.095 . S
O41 C50 1.250 . S
O42 Mn37 2.121 1_545 S
O42 C50 1.258 . S
C43 N44 1.326 . S
C43 C47 1.460 1_655 S
C43 H49 0.929 . S
N44 Mn37 2.257 . S
N44 C43 1.326 . S
N44 C48 1.362 . S
C45 C46 1.258 1_655 S
C45 C48 1.431 . S
C45 C65 1.449 . S
C46 C45 1.258 1_455 S
C46 C47 1.477 . S
C46 H66 0.931 . S
C47 C43 1.460 1_455 S
C47 C46 1.477 . S
C47 H67 0.930 . S
C48 N44 1.362 . S
C48 C45 1.431 . S
C48 C58 1.476 . S
H49 C43 0.929 . S
C50 O41 1.250 . S
C50 O42 1.258 . S
O51 Mn36 2.162 . S
O51 C39 1.281 . S
O52 Mn36 2.297 . S
O52 C39 1.236 . S
N53 Mn37 2.282 . S
N53 C54 1.328 . S
N53 C58 1.318 . S
C54 N53 1.328 . S
C54 C55 1.457 . S
C54 H59 0.929 . S
C55 C54 1.457 . S
C55 C56 1.291 . S
C55 H68 0.931 . S
C56 C55 1.291 . S
C56 C57 1.373 . S
C56 H69 0.929 . S
C57 C56 1.373 . S
C57 C58 1.396 . S
C57 C64 1.403 . S
C58 C48 1.476 . S
C58 N53 1.318 . S
C58 C57 1.396 . S
H59 C54 0.929 . S
O60 Mn36 2.385 1_565 S
O60 C38 1.234 . S
O61 Mn36 2.209 1_565 S
O61 Mn37 2.215 . S
O61 C38 1.283 . S
O62 Mn36 2.094 . S
O62 C40 1.240 1_545 S
O63 Mn37 2.117 . S
O63 C40 1.264 . S
C64 C57 1.403 . S
C64 C65 1.399 . S
C64 H70 0.929 . S
C65 C45 1.449 . S
C65 C64 1.399 . S
C65 H71 0.930 . S
H66 C46 0.931 . S
H67 C47 0.930 . S
H68 C55 0.931 . S
H69 C56 0.929 . S
H70 C64 0.929 . S
H71 C65 0.930 . S
Mn72 O77 2.103 . S
Mn72 O87 2.162 . S
Mn72 O88 2.297 . S
Mn72 O96 2.385 . S
Mn72 O97 2.209 . S
Mn72 O98 2.094 . S
Mn73 O78 2.121 . S
Mn73 N80 2.257 . S
Mn73 N89 2.282 . S
Mn73 O97 2.215 1_556 S
Mn73 O99 2.117 . S
C74 O96 1.234 . S
C74 O97 1.283 . S
C75 O87 1.281 . S
C75 O88 1.236 . S
C76 O98 1.240 . S
C76 O99 1.264 1_554 S
O77 Mn72 2.103 . S
O77 C86 1.243 1_554 S
O78 Mn73 2.121 . S
O78 C86 1.258 . S
C79 N80 1.326 . S
C79 C83 1.460 1_565 S
C79 H85 0.929 . S
N80 Mn73 2.257 . S
N80 C79 1.326 . S
N80 C84 1.362 . S
C81 C82 1.258 1_565 S
C81 C84 1.431 . S
C81 C101 1.449 . S
C82 C81 1.258 1_545 S
C82 C83 1.477 . S
C82 H102 0.931 . S
C83 C79 1.460 1_545 S
C83 C82 1.477 . S
C83 H103 0.930 . S
C84 N80 1.362 . S
C84 C81 1.431 . S
C84 C94 1.476 . S
H85 C79 0.929 . S
C86 O77 1.243 1_556 S
C86 O78 1.258 . S
O87 Mn72 2.162 . S
O87 C75 1.281 . S
O88 Mn72 2.297 . S
O88 C75 1.236 . S
N89 Mn73 2.282 . S
N89 C90 1.328 1_556 S
N89 C94 1.318 . S
C90 N89 1.328 1_554 S
C90 C91 1.457 . S
C90 H95 0.929 . S
C91 C90 1.457 . S
C91 C92 1.291 . S
C91 H104 0.931 . S
C92 C91 1.291 . S
C92 C93 1.373 1_554 S
C92 H105 0.929 . S
C93 C92 1.373 1_556 S
C93 C94 1.396 . S
C93 C100 1.403 . S
C94 C84 1.476 . S
C94 N89 1.318 . S
C94 C93 1.396 . S
H95 C90 0.929 . S
O96 Mn72 2.385 . S
O96 C74 1.234 . S
O97 Mn72 2.209 . S
O97 Mn73 2.215 1_554 S
O97 C74 1.283 . S
O98 Mn72 2.094 . S
O98 C76 1.240 . S
O99 Mn73 2.117 . S
O99 C76 1.264 1_556 S
C100 C93 1.403 . S
C100 C101 1.399 . S
C100 H106 0.929 . S
C101 C81 1.449 . S
C101 C100 1.399 . S
C101 H107 0.930 . S
H102 C82 0.931 . S
H103 C83 0.930 . S
H104 C91 0.931 . S
H105 C92 0.929 . S
H106 C100 0.929 . S
H107 C101 0.930 . S
Mn108 O113 2.095 . S
Mn108 O123 2.162 . S
Mn108 O124 2.297 . S
Mn108 O132 2.385 . S
Mn108 O133 2.209 . S
Mn108 O134 2.094 . S
Mn109 O114 2.121 . S
Mn109 N116 2.257 . S
Mn109 N125 2.282 . S
Mn109 O133 2.215 . S
Mn109 O135 2.117 . S
C110 O132 1.234 . S
C110 O133 1.283 . S
C111 O123 1.281 . S
C111 O124 1.236 . S
C112 O134 1.240 . S
C112 O135 1.264 . S
O113 Mn108 2.095 . S
O113 C122 1.250 . S
O114 Mn109 2.121 . S
O114 C122 1.258 . S
C115 N116 1.326 . S
C115 C119 1.460 . S
C115 H121 0.929 . S
N116 Mn109 2.257 . S
N116 C115 1.326 . S
N116 C120 1.362 . S
C117 C118 1.258 . S
C117 C120 1.431 . S
C117 C137 1.449 . S
C118 C117 1.258 . S
C118 C119 1.477 . S
C118 H138 0.931 . S
C119 C115 1.460 . S
C119 C118 1.477 . S
C119 H139 0.930 . S
C120 N116 1.362 . S
C120 C117 1.431 . S
C120 C130 1.476 . S
H121 C115 0.929 . S
C122 O113 1.250 . S
C122 O114 1.258 . S
O123 Mn108 2.162 . S
O123 C111 1.281 . S
O124 Mn108 2.297 . S
O124 C111 1.236 . S
N125 Mn109 2.282 . S
N125 C126 1.328 . S
N125 C130 1.318 . S
C126 N125 1.328 . S
C126 C127 1.457 . S
C126 H131 0.929 . S
C127 C126 1.457 . S
C127 C128 1.291 . S
C127 H140 0.931 . S
C128 C127 1.291 . S
C128 C129 1.373 . S
C128 H141 0.929 . S
C129 C128 1.373 . S
C129 C130 1.396 . S
C129 C136 1.403 . S
C130 C120 1.476 . S
C130 N125 1.318 . S
C130 C129 1.396 . S
H131 C126 0.929 . S
O132 Mn108 2.385 . S
O132 C110 1.234 . S
O133 Mn108 2.209 . S
O133 Mn109 2.215 . S
O133 C110 1.283 . S
O134 Mn108 2.094 . S
O134 C112 1.240 . S
O135 Mn109 2.117 . S
O135 C112 1.264 . S
C136 C129 1.403 . S
C136 C137 1.399 . S
C136 H142 0.929 . S
C137 C117 1.449 . S
C137 C136 1.399 . S
C137 H143 0.930 . S
H138 C118 0.931 . S
H139 C119 0.930 . S
H140 C127 0.931 . S
H141 C128 0.929 . S
H142 C136 0.929 . S
H143 C137 0.930 . S
Mn144 O149 2.102 . S
Mn144 O159 2.162 . S
Mn144 O160 2.297 . S
Mn144 O168 2.385 1_455 S
Mn144 O169 2.209 1_455 S
Mn144 O170 2.094 . S
Mn145 O150 2.121 1_655 S
Mn145 N152 2.257 . S
Mn145 N161 2.282 . S
Mn145 O169 2.215 1_554 S
Mn145 O171 2.117 . S
C146 O168 1.234 . S
C146 O169 1.283 . S
C147 O159 1.281 . S
C147 O160 1.236 . S
C148 O170 1.240 1_655 S
C148 O171 1.264 1_556 S
O149 Mn144 2.102 . S
O149 C158 1.244 1_556 S
O150 Mn145 2.121 1_455 S
O150 C158 1.258 . S
C151 N152 1.326 . S
C151 C155 1.460 1_565 S
C151 H157 0.929 . S
N152 Mn145 2.257 . S
N152 C151 1.326 . S
N152 C156 1.362 . S
C153 C154 1.258 1_565 S
C153 C156 1.431 . S
C153 C173 1.449 . S
C154 C153 1.258 1_545 S
C154 C155 1.477 . S
C154 H174 0.931 . S
C155 C151 1.460 1_545 S
C155 C154 1.477 . S
C155 H175 0.930 . S
C156 N152 1.362 . S
C156 C153 1.431 . S
C156 C166 1.476 . S
H157 C151 0.929 . S
C158 O149 1.244 1_554 S
C158 O150 1.258 . S
O159 Mn144 2.162 . S
O159 C147 1.281 . S
O160 Mn144 2.297 . S
O160 C147 1.236 . S
N161 Mn145 2.282 . S
N161 C162 1.328 1_554 S
N161 C166 1.318 . S
C162 N161 1.328 1_556 S
C162 C163 1.457 . S
C162 H167 0.929 . S
C163 C162 1.457 . S
C163 C164 1.291 . S
C163 H176 0.931 . S
C164 C163 1.291 . S
C164 C165 1.373 1_556 S
C164 H177 0.929 . S
C165 C164 1.373 1_554 S
C165 C166 1.396 . S
C165 C172 1.403 . S
C166 C156 1.476 . S
C166 N161 1.318 . S
C166 C165 1.396 . S
H167 C162 0.929 . S
O168 Mn144 2.385 1_655 S
O168 C146 1.234 . S
O169 Mn144 2.209 1_655 S
O169 Mn145 2.215 1_556 S
O169 C146 1.283 . S
O170 Mn144 2.094 . S
O170 C148 1.240 1_455 S
O171 Mn145 2.117 . S
O171 C148 1.264 1_554 S
C172 C165 1.403 . S
C172 C173 1.399 . S
C172 H178 0.929 . S
C173 C153 1.449 . S
C173 C172 1.399 . S
C173 H179 0.930 . S
H174 C154 0.931 . S
H175 C155 0.930 . S
H176 C163 0.931 . S
H177 C164 0.929 . S
H178 C172 0.929 . S
H179 C173 0.930 . S
Mn180 O185 2.095 . S
Mn180 O195 2.162 . S
Mn180 O196 2.297 . S
Mn180 O204 2.385 1_545 S
Mn180 O205 2.209 1_545 S
Mn180 O206 2.094 . S
Mn181 O186 2.121 1_565 S
Mn181 N188 2.257 . S
Mn181 N197 2.282 . S
Mn181 O205 2.215 . S
Mn181 O207 2.117 . S
C182 O204 1.234 . S
C182 O205 1.283 . S
C183 O195 1.281 . S
C183 O196 1.236 . S
C184 O206 1.240 1_565 S
C184 O207 1.264 . S
O185 Mn180 2.095 . S
O185 C194 1.250 . S
O186 Mn181 2.121 1_545 S
O186 C194 1.258 . S
C187 N188 1.326 . S
C187 C191 1.460 . S
C187 H193 0.929 . S
N188 Mn181 2.257 . S
N188 C187 1.326 . S
N188 C192 1.362 . S
C189 C190 1.258 . S
C189 C192 1.431 . S
C189 C209 1.449 . S
C190 C189 1.258 . S
C190 C191 1.477 . S
C190 H210 0.931 . S
C191 C187 1.460 . S
C191 C190 1.477 . S
C191 H211 0.930 . S
C192 N188 1.362 . S
C192 C189 1.431 . S
C192 C202 1.476 . S
H193 C187 0.929 . S
C194 O185 1.250 . S
C194 O186 1.258 . S
O195 Mn180 2.162 . S
O195 C183 1.281 . S
O196 Mn180 2.297 . S
O196 C183 1.236 . S
N197 Mn181 2.282 . S
N197 C198 1.328 . S
N197 C202 1.318 . S
C198 N197 1.328 . S
C198 C199 1.457 . S
C198 H203 0.929 . S
C199 C198 1.457 . S
C199 C200 1.291 . S
C199 H212 0.931 . S
C200 C199 1.291 . S
C200 C201 1.373 . S
C200 H213 0.929 . S
C201 C200 1.373 . S
C201 C202 1.396 . S
C201 C208 1.403 . S
C202 C192 1.476 . S
C202 N197 1.318 . S
C202 C201 1.396 . S
H203 C198 0.929 . S
O204 Mn180 2.385 1_565 S
O204 C182 1.234 . S
O205 Mn180 2.209 1_565 S
O205 Mn181 2.215 . S
O205 C182 1.283 . S
O206 Mn180 2.094 . S
O206 C184 1.240 1_545 S
O207 Mn181 2.117 . S
O207 C184 1.264 . S
C208 C201 1.403 . S
C208 C209 1.399 . S
C208 H214 0.929 . S
C209 C189 1.449 . S
C209 C208 1.399 . S
C209 H215 0.930 . S
H210 C190 0.931 . S
H211 C191 0.930 . S
H212 C199 0.931 . S
H213 C200 0.929 . S
H214 C208 0.929 . S
H215 C209 0.930 . S
Mn216 O221 2.102 . S
Mn216 O231 2.162 . S
Mn216 O232 2.297 . S
Mn216 O240 2.385 . S
Mn216 O241 2.209 . S
Mn216 O242 2.094 . S
Mn217 O222 2.121 . S
Mn217 N224 2.257 . S
Mn217 N233 2.282 . S
Mn217 O241 2.215 1_554 S
Mn217 O243 2.117 . S
C218 O240 1.234 . S
C218 O241 1.283 . S
C219 O231 1.281 . S
C219 O232 1.236 . S
C220 O242 1.240 . S
C220 O243 1.264 1_556 S
O221 Mn216 2.102 . S
O221 C230 1.244 1_556 S
O222 Mn217 2.121 . S
O222 C230 1.258 . S
C223 N224 1.326 . S
C223 C227 1.460 . S
C223 H229 0.929 . S
N224 Mn217 2.257 . S
N224 C223 1.326 . S
N224 C228 1.362 . S
C225 C226 1.258 . S
C225 C228 1.431 . S
C225 C245 1.449 . S
C226 C225 1.258 . S
C226 C227 1.477 . S
C226 H246 0.931 . S
C227 C223 1.460 . S
C227 C226 1.477 . S
C227 H247 0.930 . S
C228 N224 1.362 . S
C228 C225 1.431 . S
C228 C238 1.476 . S
H229 C223 0.929 . S
C230 O221 1.244 1_554 S
C230 O222 1.258 . S
O231 Mn216 2.162 . S
O231 C219 1.281 . S
O232 Mn216 2.297 . S
O232 C219 1.236 . S
N233 Mn217 2.282 . S
N233 C234 1.328 1_554 S
N233 C238 1.318 . S
C234 N233 1.328 1_556 S
C234 C235 1.457 . S
C234 H239 0.929 . S
C235 C234 1.457 . S
C235 C236 1.291 . S
C235 H248 0.931 . S
C236 C235 1.291 . S
C236 C237 1.373 1_556 S
C236 H249 0.929 . S
C237 C236 1.373 1_554 S
C237 C238 1.396 . S
C237 C244 1.403 . S
C238 C228 1.476 . S
C238 N233 1.318 . S
C238 C237 1.396 . S
H239 C234 0.929 . S
O240 Mn216 2.385 . S
O240 C218 1.234 . S
O241 Mn216 2.209 . S
O241 Mn217 2.215 1_556 S
O241 C218 1.283 . S
O242 Mn216 2.094 . S
O242 C220 1.240 . S
O243 Mn217 2.117 . S
O243 C220 1.264 1_554 S
C244 C237 1.403 . S
C244 C245 1.399 . S
C244 H250 0.929 . S
C245 C225 1.449 . S
C245 C244 1.399 . S
C245 H251 0.930 . S
H246 C226 0.931 . S
H247 C227 0.930 . S
H248 C235 0.931 . S
H249 C236 0.929 . S
H250 C244 0.929 . S
H251 C245 0.930 . S
Mn252 O257 2.095 . S
Mn252 O267 2.162 . S
Mn252 O268 2.297 . S
Mn252 O276 2.385 . S
Mn252 O277 2.209 . S
Mn252 O278 2.094 . S
Mn253 O258 2.121 . S
Mn253 N260 2.257 . S
Mn253 N269 2.282 . S
Mn253 O277 2.215 . S
Mn253 O279 2.117 . S
C254 O276 1.234 . S
C254 O277 1.283 . S
C255 O267 1.281 . S
C255 O268 1.236 . S
C256 O278 1.240 . S
C256 O279 1.264 . S
O257 Mn252 2.095 . S
O257 C266 1.250 . S
O258 Mn253 2.121 . S
O258 C266 1.258 . S
C259 N260 1.326 . S
C259 C263 1.460 1_655 S
C259 H265 0.929 . S
N260 Mn253 2.257 . S
N260 C259 1.326 . S
N260 C264 1.362 . S
C261 C262 1.258 1_655 S
C261 C264 1.431 . S
C261 C281 1.449 . S
C262 C261 1.258 1_455 S
C262 C263 1.477 . S
C262 H282 0.931 . S
C263 C259 1.460 1_455 S
C263 C262 1.477 . S
C263 H283 0.930 . S
C264 N260 1.362 . S
C264 C261 1.431 . S
C264 C274 1.476 . S
H265 C259 0.929 . S
C266 O257 1.250 . S
C266 O258 1.258 . S
O267 Mn252 2.162 . S
O267 C255 1.281 . S
O268 Mn252 2.297 . S
O268 C255 1.236 . S
N269 Mn253 2.282 . S
N269 C270 1.328 . S
N269 C274 1.318 . S
C270 N269 1.328 . S
C270 C271 1.457 . S
C270 H275 0.929 . S
C271 C270 1.457 . S
C271 C272 1.291 . S
C271 H284 0.931 . S
C272 C271 1.291 . S
C272 C273 1.373 . S
C272 H285 0.929 . S
C273 C272 1.373 . S
C273 C274 1.396 . S
C273 C280 1.403 . S
C274 C264 1.476 . S
C274 N269 1.318 . S
C274 C273 1.396 . S
H275 C270 0.929 . S
O276 Mn252 2.385 . S
O276 C254 1.234 . S
O277 Mn252 2.209 . S
O277 Mn253 2.215 . S
O277 C254 1.283 . S
O278 Mn252 2.094 . S
O278 C256 1.240 . S
O279 Mn253 2.117 . S
O279 C256 1.264 . S
C280 C273 1.403 . S
C280 C281 1.399 . S
C280 H286 0.929 . S
C281 C261 1.449 . S
C281 C280 1.399 . S
C281 H287 0.930 . S
H282 C262 0.931 . S
H283 C263 0.930 . S
H284 C271 0.931 . S
H285 C272 0.929 . S
H286 C280 0.929 . S
H287 C281 0.930 . S
Mn288 O293 2.103 . S
Mn288 O303 2.162 . S
Mn288 O304 2.297 . S
Mn288 O312 2.385 1_655 S
Mn288 O313 2.209 1_655 S
Mn288 O314 2.094 . S
Mn289 O294 2.121 1_455 S
Mn289 N296 2.257 . S
Mn289 N305 2.282 . S
Mn289 O313 2.215 1_554 S
Mn289 O315 2.117 . S
C290 O312 1.234 . S
C290 O313 1.283 . S
C291 O303 1.281 . S
C291 O304 1.236 . S
C292 O314 1.240 1_455 S
C292 O315 1.264 1_556 S
O293 Mn288 2.103 . S
O293 C302 1.243 1_556 S
O294 Mn289 2.121 1_655 S
O294 C302 1.258 . S
C295 N296 1.326 . S
C295 C299 1.460 . S
C295 H301 0.929 . S
N296 Mn289 2.257 . S
N296 C295 1.326 . S
N296 C300 1.362 . S
C297 C298 1.258 . S
C297 C300 1.431 . S
C297 C317 1.449 . S
C298 C297 1.258 . S
C298 C299 1.477 . S
C298 H318 0.931 . S
C299 C295 1.460 . S
C299 C298 1.477 . S
C299 H319 0.930 . S
C300 N296 1.362 . S
C300 C297 1.431 . S
C300 C310 1.476 . S
H301 C295 0.929 . S
C302 O293 1.243 1_554 S
C302 O294 1.258 . S
O303 Mn288 2.162 . S
O303 C291 1.281 . S
O304 Mn288 2.297 . S
O304 C291 1.236 . S
N305 Mn289 2.282 . S
N305 C306 1.328 1_554 S
N305 C310 1.318 . S
C306 N305 1.328 1_556 S
C306 C307 1.457 . S
C306 H311 0.929 . S
C307 C306 1.457 . S
C307 C308 1.291 . S
C307 H320 0.931 . S
C308 C307 1.291 . S
C308 C309 1.373 1_556 S
C308 H321 0.929 . S
C309 C308 1.373 1_554 S
C309 C310 1.396 . S
C309 C316 1.403 . S
C310 C300 1.476 . S
C310 N305 1.318 . S
C310 C309 1.396 . S
H311 C306 0.929 . S
O312 Mn288 2.385 1_455 S
O312 C290 1.234 . S
O313 Mn288 2.209 1_455 S
O313 Mn289 2.215 1_556 S
O313 C290 1.283 . S
O314 Mn288 2.094 . S
O314 C292 1.240 1_655 S
O315 Mn289 2.117 . S
O315 C292 1.264 1_554 S
C316 C309 1.403 . S
C316 C317 1.399 . S
C316 H322 0.929 . S
C317 C297 1.449 . S
C317 C316 1.399 . S
C317 H323 0.930 . S
H318 C298 0.931 . S
H319 C299 0.930 . S
H320 C307 0.931 . S
H321 C308 0.929 . S
H322 C316 0.929 . S
H323 C317 0.930 . S
Mn324 O329 2.095 . S
Mn324 O339 2.162 . S
Mn324 O340 2.297 . S
Mn324 O348 2.385 1_565 S
Mn324 O349 2.209 1_565 S
Mn324 O350 2.094 . S
Mn325 O330 2.121 1_545 S
Mn325 N332 2.257 . S
Mn325 N341 2.282 . S
Mn325 O349 2.215 . S
Mn325 O351 2.117 . S
C326 O348 1.234 . S
C326 O349 1.283 . S
C327 O339 1.281 . S
C327 O340 1.236 . S
C328 O350 1.240 1_545 S
C328 O351 1.264 . S
O329 Mn324 2.095 . S
O329 C338 1.250 . S
O330 Mn325 2.121 1_565 S
O330 C338 1.258 . S
C331 N332 1.326 . S
C331 C335 1.460 1_455 S
C331 H337 0.929 . S
N332 Mn325 2.257 . S
N332 C331 1.326 . S
N332 C336 1.362 . S
C333 C334 1.258 1_455 S
C333 C336 1.431 . S
C333 C353 1.449 . S
C334 C333 1.258 1_655 S
C334 C335 1.477 . S
C334 H354 0.931 . S
C335 C331 1.460 1_655 S
C335 C334 1.477 . S
C335 H355 0.930 . S
C336 N332 1.362 . S
C336 C333 1.431 . S
C336 C346 1.476 . S
H337 C331 0.929 . S
C338 O329 1.250 . S
C338 O330 1.258 . S
O339 Mn324 2.162 . S
O339 C327 1.281 . S
O340 Mn324 2.297 . S
O340 C327 1.236 . S
N341 Mn325 2.282 . S
N341 C342 1.328 . S
N341 C346 1.318 . S
C342 N341 1.328 . S
C342 C343 1.457 . S
C342 H347 0.929 . S
C343 C342 1.457 . S
C343 C344 1.291 . S
C343 H356 0.931 . S
C344 C343 1.291 . S
C344 C345 1.373 . S
C344 H357 0.929 . S
C345 C344 1.373 . S
C345 C346 1.396 . S
C345 C352 1.403 . S
C346 C336 1.476 . S
C346 N341 1.318 . S
C346 C345 1.396 . S
H347 C342 0.929 . S
O348 Mn324 2.385 1_545 S
O348 C326 1.234 . S
O349 Mn324 2.209 1_545 S
O349 Mn325 2.215 . S
O349 C326 1.283 . S
O350 Mn324 2.094 . S
O350 C328 1.240 1_565 S
O351 Mn325 2.117 . S
O351 C328 1.264 . S
C352 C345 1.403 . S
C352 C353 1.399 . S
C352 H358 0.929 . S
C353 C333 1.449 . S
C353 C352 1.399 . S
C353 H359 0.930 . S
H354 C334 0.931 . S
H355 C335 0.930 . S
H356 C343 0.931 . S
H357 C344 0.929 . S
H358 C352 0.929 . S
H359 C353 0.930 . S
Mn360 O365 2.103 . S
Mn360 O375 2.162 . S
Mn360 O376 2.297 . S
Mn360 O384 2.385 . S
Mn360 O385 2.209 . S
Mn360 O386 2.094 . S
Mn361 O366 2.121 . S
Mn361 N368 2.257 . S
Mn361 N377 2.282 . S
Mn361 O385 2.215 1_554 S
Mn361 O387 2.117 . S
C362 O384 1.234 . S
C362 O385 1.283 . S
C363 O375 1.281 . S
C363 O376 1.236 . S
C364 O386 1.240 . S
C364 O387 1.264 1_556 S
O365 Mn360 2.103 . S
O365 C374 1.243 1_556 S
O366 Mn361 2.121 . S
O366 C374 1.258 . S
C367 N368 1.326 . S
C367 C371 1.460 1_545 S
C367 H373 0.929 . S
N368 Mn361 2.257 . S
N368 C367 1.326 . S
N368 C372 1.362 . S
C369 C370 1.258 1_545 S
C369 C372 1.431 . S
C369 C389 1.449 . S
C370 C369 1.258 1_565 S
C370 C371 1.477 . S
C370 H390 0.931 . S
C371 C367 1.460 1_565 S
C371 C370 1.477 . S
C371 H391 0.930 . S
C372 N368 1.362 . S
C372 C369 1.431 . S
C372 C382 1.476 . S
H373 C367 0.929 . S
C374 O365 1.243 1_554 S
C374 O366 1.258 . S
O375 Mn360 2.162 . S
O375 C363 1.281 . S
O376 Mn360 2.297 . S
O376 C363 1.236 . S
N377 Mn361 2.282 . S
N377 C378 1.328 1_554 S
N377 C382 1.318 . S
C378 N377 1.328 1_556 S
C378 C379 1.457 . S
C378 H383 0.929 . S
C379 C378 1.457 . S
C379 C380 1.291 . S
C379 H392 0.931 . S
C380 C379 1.291 . S
C380 C381 1.373 1_556 S
C380 H393 0.929 . S
C381 C380 1.373 1_554 S
C381 C382 1.396 . S
C381 C388 1.403 . S
C382 C372 1.476 . S
C382 N377 1.318 . S
C382 C381 1.396 . S
H383 C378 0.929 . S
O384 Mn360 2.385 . S
O384 C362 1.234 . S
O385 Mn360 2.209 . S
O385 Mn361 2.215 1_556 S
O385 C362 1.283 . S
O386 Mn360 2.094 . S
O386 C364 1.240 . S
O387 Mn361 2.117 . S
O387 C364 1.264 1_554 S
C388 C381 1.403 . S
C388 C389 1.399 . S
C388 H394 0.929 . S
C389 C369 1.449 . S
C389 C388 1.399 . S
C389 H395 0.930 . S
H390 C370 0.931 . S
H391 C371 0.930 . S
H392 C379 0.931 . S
H393 C380 0.929 . S
H394 C388 0.929 . S
H395 C389 0.930 . S
Mn396 O401 2.095 . S
Mn396 O411 2.162 . S
Mn396 O412 2.297 . S
Mn396 O420 2.385 . S
Mn396 O421 2.209 . S
Mn396 O422 2.094 . S
Mn397 O402 2.121 . S
Mn397 N404 2.257 . S
Mn397 N413 2.282 . S
Mn397 O421 2.215 . S
Mn397 O423 2.117 . S
C398 O420 1.234 . S
C398 O421 1.283 . S
C399 O411 1.281 . S
C399 O412 1.236 . S
C400 O422 1.240 . S
C400 O423 1.264 . S
O401 Mn396 2.095 . S
O401 C410 1.250 . S
O402 Mn397 2.121 . S
O402 C410 1.258 . S
C403 N404 1.326 . S
C403 C407 1.460 . S
C403 H409 0.929 . S
N404 Mn397 2.257 . S
N404 C403 1.326 . S
N404 C408 1.362 . S
C405 C406 1.258 . S
C405 C408 1.431 . S
C405 C425 1.449 . S
C406 C405 1.258 . S
C406 C407 1.477 . S
C406 H426 0.931 . S
C407 C403 1.460 . S
C407 C406 1.477 . S
C407 H427 0.930 . S
C408 N404 1.362 . S
C408 C405 1.431 . S
C408 C418 1.476 . S
H409 C403 0.929 . S
C410 O401 1.250 . S
C410 O402 1.258 . S
O411 Mn396 2.162 . S
O411 C399 1.281 . S
O412 Mn396 2.297 . S
O412 C399 1.236 . S
N413 Mn397 2.282 . S
N413 C414 1.328 . S
N413 C418 1.318 . S
C414 N413 1.328 . S
C414 C415 1.457 . S
C414 H419 0.929 . S
C415 C414 1.457 . S
C415 C416 1.291 . S
C415 H428 0.931 . S
C416 C415 1.291 . S
C416 C417 1.373 . S
C416 H429 0.929 . S
C417 C416 1.373 . S
C417 C418 1.396 . S
C417 C424 1.403 . S
C418 C408 1.476 . S
C418 N413 1.318 . S
C418 C417 1.396 . S
H419 C414 0.929 . S
O420 Mn396 2.385 . S
O420 C398 1.234 . S
O421 Mn396 2.209 . S
O421 Mn397 2.215 . S
O421 C398 1.283 . S
O422 Mn396 2.094 . S
O422 C400 1.240 . S
O423 Mn397 2.117 . S
O423 C400 1.264 . S
C424 C417 1.403 . S
C424 C425 1.399 . S
C424 H430 0.929 . S
C425 C405 1.449 . S
C425 C424 1.399 . S
C425 H431 0.930 . S
H426 C406 0.931 . S
H427 C407 0.930 . S
H428 C415 0.931 . S
H429 C416 0.929 . S
H430 C424 0.929 . S
H431 C425 0.930 . S
Mn432 O437 2.102 . S
Mn432 O447 2.162 . S
Mn432 O448 2.297 . S
Mn432 O456 2.385 1_655 S
Mn432 O457 2.209 1_655 S
Mn432 O458 2.094 . S
Mn433 O438 2.121 1_455 S
Mn433 N440 2.257 . S
Mn433 N449 2.282 . S
Mn433 O457 2.215 1_556 S
Mn433 O459 2.117 . S
C434 O456 1.234 . S
C434 O457 1.283 . S
C435 O447 1.281 . S
C435 O448 1.236 . S
C436 O458 1.240 1_455 S
C436 O459 1.264 1_554 S
O437 Mn432 2.102 . S
O437 C446 1.244 1_554 S
O438 Mn433 2.121 1_655 S
O438 C446 1.258 . S
C439 N440 1.326 . S
C439 C443 1.460 1_545 S
C439 H445 0.929 . S
N440 Mn433 2.257 . S
N440 C439 1.326 . S
N440 C444 1.362 . S
C441 C442 1.258 1_545 S
C441 C444 1.431 . S
C441 C461 1.449 . S
C442 C441 1.258 1_565 S
C442 C443 1.477 . S
C442 H462 0.931 . S
C443 C439 1.460 1_565 S
C443 C442 1.477 . S
C443 H463 0.930 . S
C444 N440 1.362 . S
C444 C441 1.431 . S
C444 C454 1.476 . S
H445 C439 0.929 . S
C446 O437 1.244 1_556 S
C446 O438 1.258 . S
O447 Mn432 2.162 . S
O447 C435 1.281 . S
O448 Mn432 2.297 . S
O448 C435 1.236 . S
N449 Mn433 2.282 . S
N449 C450 1.328 1_556 S
N449 C454 1.318 . S
C450 N449 1.328 1_554 S
C450 C451 1.457 . S
C450 H455 0.929 . S
C451 C450 1.457 . S
C451 C452 1.291 . S
C451 H464 0.931 . S
C452 C451 1.291 . S
C452 C453 1.373 1_554 S
C452 H465 0.929 . S
C453 C452 1.373 1_556 S
C453 C454 1.396 . S
C453 C460 1.403 . S
C454 C444 1.476 . S
C454 N449 1.318 . S
C454 C453 1.396 . S
H455 C450 0.929 . S
O456 Mn432 2.385 1_455 S
O456 C434 1.234 . S
O457 Mn432 2.209 1_455 S
O457 Mn433 2.215 1_554 S
O457 C434 1.283 . S
O458 Mn432 2.094 . S
O458 C436 1.240 1_655 S
O459 Mn433 2.117 . S
O459 C436 1.264 1_556 S
C460 C453 1.403 . S
C460 C461 1.399 . S
C460 H466 0.929 . S
C461 C441 1.449 . S
C461 C460 1.399 . S
C461 H467 0.930 . S
H462 C442 0.931 . S
H463 C443 0.930 . S
H464 C451 0.931 . S
H465 C452 0.929 . S
H466 C460 0.929 . S
H467 C461 0.930 . S
Mn468 O473 2.095 . S
Mn468 O483 2.162 . S
Mn468 O484 2.297 . S
Mn468 O492 2.385 1_565 S
Mn468 O493 2.209 1_565 S
Mn468 O494 2.094 . S
Mn469 O474 2.121 1_545 S
Mn469 N476 2.257 . S
Mn469 N485 2.282 . S
Mn469 O493 2.215 . S
Mn469 O495 2.117 . S
C470 O492 1.234 . S
C470 O493 1.283 . S
C471 O483 1.281 . S
C471 O484 1.236 . S
C472 O494 1.240 1_545 S
C472 O495 1.264 . S
O473 Mn468 2.095 . S
O473 C482 1.250 . S
O474 Mn469 2.121 1_565 S
O474 C482 1.258 . S
C475 N476 1.326 . S
C475 C479 1.460 . S
C475 H481 0.929 . S
N476 Mn469 2.257 . S
N476 C475 1.326 . S
N476 C480 1.362 . S
C477 C478 1.258 . S
C477 C480 1.431 . S
C477 C497 1.449 . S
C478 C477 1.258 . S
C478 C479 1.477 . S
C478 H498 0.931 . S
C479 C475 1.460 . S
C479 C478 1.477 . S
C479 H499 0.930 . S
C480 N476 1.362 . S
C480 C477 1.431 . S
C480 C490 1.476 . S
H481 C475 0.929 . S
C482 O473 1.250 . S
C482 O474 1.258 . S
O483 Mn468 2.162 . S
O483 C471 1.281 . S
O484 Mn468 2.297 . S
O484 C471 1.236 . S
N485 Mn469 2.282 . S
N485 C486 1.328 . S
N485 C490 1.318 . S
C486 N485 1.328 . S
C486 C487 1.457 . S
C486 H491 0.929 . S
C487 C486 1.457 . S
C487 C488 1.291 . S
C487 H500 0.931 . S
C488 C487 1.291 . S
C488 C489 1.373 . S
C488 H501 0.929 . S
C489 C488 1.373 . S
C489 C490 1.396 . S
C489 C496 1.403 . S
C490 C480 1.476 . S
C490 N485 1.318 . S
C490 C489 1.396 . S
H491 C486 0.929 . S
O492 Mn468 2.385 1_545 S
O492 C470 1.234 . S
O493 Mn468 2.209 1_545 S
O493 Mn469 2.215 . S
O493 C470 1.283 . S
O494 Mn468 2.094 . S
O494 C472 1.240 1_565 S
O495 Mn469 2.117 . S
O495 C472 1.264 . S
C496 C489 1.403 . S
C496 C497 1.399 . S
C496 H502 0.929 . S
C497 C477 1.449 . S
C497 C496 1.399 . S
C497 H503 0.930 . S
H498 C478 0.931 . S
H499 C479 0.930 . S
H500 C487 0.931 . S
H501 C488 0.929 . S
H502 C496 0.929 . S
H503 C497 0.930 . S
Mn504 O509 2.102 . S
Mn504 O519 2.162 . S
Mn504 O520 2.297 . S
Mn504 O528 2.385 . S
Mn504 O529 2.209 . S
Mn504 O530 2.094 . S
Mn505 O510 2.121 . S
Mn505 N512 2.257 . S
Mn505 N521 2.282 . S
Mn505 O529 2.215 1_556 S
Mn505 O531 2.117 . S
C506 O528 1.234 . S
C506 O529 1.283 . S
C507 O519 1.281 . S
C507 O520 1.236 . S
C508 O530 1.240 . S
C508 O531 1.264 1_554 S
O509 Mn504 2.102 . S
O509 C518 1.244 1_554 S
O510 Mn505 2.121 . S
O510 C518 1.258 . S
C511 N512 1.326 . S
C511 C515 1.460 . S
C511 H517 0.929 . S
N512 Mn505 2.257 . S
N512 C511 1.326 . S
N512 C516 1.362 . S
C513 C514 1.258 . S
C513 C516 1.431 . S
C513 C533 1.449 . S
C514 C513 1.258 . S
C514 C515 1.477 . S
C514 H534 0.931 . S
C515 C511 1.460 . S
C515 C514 1.477 . S
C515 H535 0.930 . S
C516 N512 1.362 . S
C516 C513 1.431 . S
C516 C526 1.476 . S
H517 C511 0.929 . S
C518 O509 1.244 1_556 S
C518 O510 1.258 . S
O519 Mn504 2.162 . S
O519 C507 1.281 . S
O520 Mn504 2.297 . S
O520 C507 1.236 . S
N521 Mn505 2.282 . S
N521 C522 1.328 1_556 S
N521 C526 1.318 . S
C522 N521 1.328 1_554 S
C522 C523 1.457 . S
C522 H527 0.929 . S
C523 C522 1.457 . S
C523 C524 1.291 . S
C523 H536 0.931 . S
C524 C523 1.291 . S
C524 C525 1.373 1_554 S
C524 H537 0.929 . S
C525 C524 1.373 1_556 S
C525 C526 1.396 . S
C525 C532 1.403 . S
C526 C516 1.476 . S
C526 N521 1.318 . S
C526 C525 1.396 . S
H527 C522 0.929 . S
O528 Mn504 2.385 . S
O528 C506 1.234 . S
O529 Mn504 2.209 . S
O529 Mn505 2.215 1_554 S
O529 C506 1.283 . S
O530 Mn504 2.094 . S
O530 C508 1.240 . S
O531 Mn505 2.117 . S
O531 C508 1.264 1_556 S
C532 C525 1.403 . S
C532 C533 1.399 . S
C532 H538 0.929 . S
C533 C513 1.449 . S
C533 C532 1.399 . S
C533 H539 0.930 . S
H534 C514 0.931 . S
H535 C515 0.930 . S
H536 C523 0.931 . S
H537 C524 0.929 . S
H538 C532 0.929 . S
H539 C533 0.930 . S
Mn540 O545 2.095 . S
Mn540 O555 2.162 . S
Mn540 O556 2.297 . S
Mn540 O564 2.385 . S
Mn540 O565 2.209 . S
Mn540 O566 2.094 . S
Mn541 O546 2.121 . S
Mn541 N548 2.257 . S
Mn541 N557 2.282 . S
Mn541 O565 2.215 . S
Mn541 O567 2.117 . S
C542 O564 1.234 . S
C542 O565 1.283 . S
C543 O555 1.281 . S
C543 O556 1.236 . S
C544 O566 1.240 . S
C544 O567 1.264 . S
O545 Mn540 2.095 . S
O545 C554 1.250 . S
O546 Mn541 2.121 . S
O546 C554 1.258 . S
C547 N548 1.326 . S
C547 C551 1.460 1_455 S
C547 H553 0.929 . S
N548 Mn541 2.257 . S
N548 C547 1.326 . S
N548 C552 1.362 . S
C549 C550 1.258 1_455 S
C549 C552 1.431 . S
C549 C569 1.449 . S
C550 C549 1.258 1_655 S
C550 C551 1.477 . S
C550 H570 0.931 . S
C551 C547 1.460 1_655 S
C551 C550 1.477 . S
C551 H571 0.930 . S
C552 N548 1.362 . S
C552 C549 1.431 . S
C552 C562 1.476 . S
H553 C547 0.929 . S
C554 O545 1.250 . S
C554 O546 1.258 . S
O555 Mn540 2.162 . S
O555 C543 1.281 . S
O556 Mn540 2.297 . S
O556 C543 1.236 . S
N557 Mn541 2.282 . S
N557 C558 1.328 . S
N557 C562 1.318 . S
C558 N557 1.328 . S
C558 C559 1.457 . S
C558 H563 0.929 . S
C559 C558 1.457 . S
C559 C560 1.291 . S
C559 H572 0.931 . S
C560 C559 1.291 . S
C560 C561 1.373 . S
C560 H573 0.929 . S
C561 C560 1.373 . S
C561 C562 1.396 . S
C561 C568 1.403 . S
C562 C552 1.476 . S
C562 N557 1.318 . S
C562 C561 1.396 . S
H563 C558 0.929 . S
O564 Mn540 2.385 . S
O564 C542 1.234 . S
O565 Mn540 2.209 . S
O565 Mn541 2.215 . S
O565 C542 1.283 . S
O566 Mn540 2.094 . S
O566 C544 1.240 . S
O567 Mn541 2.117 . S
O567 C544 1.264 . S
C568 C561 1.403 . S
C568 C569 1.399 . S
C568 H574 0.929 . S
C569 C549 1.449 . S
C569 C568 1.399 . S
C569 H575 0.930 . S
H570 C550 0.931 . S
H571 C551 0.930 . S
H572 C559 0.931 . S
H573 C560 0.929 . S
H574 C568 0.929 . S
H575 C569 0.930 . S
C4 C148 1.353 1_554 S
C184 C40 1.353 . S
C76 C220 1.353 1_554 S
C112 C256 1.353 . S
C292 C436 1.353 1_556 S
C472 C328 1.353 . S
C364 C508 1.353 1_556 S
C400 C544 1.353 . S
C14 C543 1.574 . S
C435 C50 1.575 . S
C86 C471 1.574 . S
C507 C122 1.575 . S
C327 C158 1.575 . S
C363 C194 1.574 . S
C399 C230 1.575 . S
C291 C266 1.574 . S
C302 C255 1.574 . S
C147 C338 1.575 . S
C183 C374 1.574 . S
C410 C219 1.575 . S
C39 C446 1.575 . S
C482 C75 1.574 . S
C518 C111 1.575 . S
C554 C3 1.574 . S
C254 C2 1.244 . S
C38 C146 1.244 . S
C74 C182 1.244 . S
C110 C218 1.244 . S
C542 C290 1.244 . S
C434 C326 1.244 . S
C470 C362 1.244 . S
C506 C398 1.244 . S
