# Generated by pormake.
# Topology zfr, (5)-cn, num edge types: 1
# Building blocks:
#     Node 0, Type 0, BuildingBlock: XOMCOT_clean_sbu_0, # of connection points: 5
#     Node 1, Type 0, BuildingBlock: XOMCOT_clean_sbu_0, # of connection points: 5
#     Node 2, Type 0, BuildingBlock: XOMCOT_clean_sbu_0, # of connection points: 5
#     Node 3, Type 0, BuildingBlock: XOMCOT_clean_sbu_0, # of connection points: 5
#     Node 4, Type 0, BuildingBlock: XOMCOT_clean_sbu_0, # of connection points: 5
#     Node 5, Type 0, BuildingBlock: XOMCOT_clean_sbu_0, # of connection points: 5
#     Node 6, Type 0, BuildingBlock: XOMCOT_clean_sbu_0, # of connection points: 5
#     Node 7, Type 0, BuildingBlock: XOMCOT_clean_sbu_0, # of connection points: 5
#     Edge 8, Type (0, 0), BuildingBlock: ZUJKAS_clean_linker_0, # of connection points: 2
#     Edge 9, Type (0, 0), BuildingBlock: ZUJKAS_clean_linker_0, # of connection points: 2
#     Edge 10, Type (0, 0), BuildingBlock: ZUJKAS_clean_linker_0, # of connection points: 2
#     Edge 11, Type (0, 0), BuildingBlock: ZUJKAS_clean_linker_0, # of connection points: 2
#     Edge 12, Type (0, 0), BuildingBlock: ZUJKAS_clean_linker_0, # of connection points: 2
#     Edge 13, Type (0, 0), BuildingBlock: ZUJKAS_clean_linker_0, # of connection points: 2
#     Edge 14, Type (0, 0), BuildingBlock: ZUJKAS_clean_linker_0, # of connection points: 2
#     Edge 15, Type (0, 0), BuildingBlock: ZUJKAS_clean_linker_0, # of connection points: 2
#     Edge 16, Type (0, 0), BuildingBlock: ZUJKAS_clean_linker_0, # of connection points: 2
#     Edge 17, Type (0, 0), BuildingBlock: ZUJKAS_clean_linker_0, # of connection points: 2
#     Edge 18, Type (0, 0), BuildingBlock: ZUJKAS_clean_linker_0, # of connection points: 2
#     Edge 19, Type (0, 0), BuildingBlock: ZUJKAS_clean_linker_0, # of connection points: 2
#     Edge 20, Type (0, 0), BuildingBlock: ZUJKAS_clean_linker_0, # of connection points: 2
#     Edge 21, Type (0, 0), BuildingBlock: ZUJKAS_clean_linker_0, # of connection points: 2
#     Edge 22, Type (0, 0), BuildingBlock: ZUJKAS_clean_linker_0, # of connection points: 2
#     Edge 23, Type (0, 0), BuildingBlock: ZUJKAS_clean_linker_0, # of connection points: 2
#     Edge 24, Type (0, 0), BuildingBlock: ZUJKAS_clean_linker_0, # of connection points: 2
#     Edge 25, Type (0, 0), BuildingBlock: ZUJKAS_clean_linker_0, # of connection points: 2
#     Edge 26, Type (0, 0), BuildingBlock: ZUJKAS_clean_linker_0, # of connection points: 2
#     Edge 27, Type (0, 0), BuildingBlock: ZUJKAS_clean_linker_0, # of connection points: 2
# Relax obj value: 0.171
# Max RMSD: 0.170
# Mean RMSD: 0.170
data_MOF--net-zfr--node1-XOMCOT_clean_sbu_0--edge1-ZUJKAS_clean_linker_0
_symmetry_space_group_name_H-M    P1
_symmetry_Int_Tables_number       1
_symmetry_cell_setting            triclinic
loop_
_symmetry_equiv_pos_as_xyz
'x, y, z'
_cell_length_a     65.433859
_cell_length_b     65.413711
_cell_length_c     21.819322
_cell_angle_alpha  90.013311
_cell_angle_beta   89.990065
_cell_angle_gamma 90.019302
loop_
_atom_site_label
_atom_site_type_symbol
_atom_site_fract_x
_atom_site_fract_y
_atom_site_fract_z
_atom_type_partial_charge
Co0 Co 0.1334 0.31646 0.20911 0.0
C1 C 0.12635 0.31763 0.34194 0.0
C2 C 0.10105 0.3039 0.29466 0.0
C3 C 0.09759 0.30256 0.35684 0.0
N4 N 0.11908 0.31334 0.28566 0.0
N5 N 0.11356 0.31113 0.38643 0.0
H6 H 0.14121 0.32439 0.35003 0.0
H7 H 0.09148 0.29773 0.25874 0.0
C8 C 0.10171 0.33225 0.12338 0.0
O9 O 0.11502 0.34609 0.10552 0.0
N10 N 0.1478 0.31878 0.13129 0.0
C11 C 0.16647 0.32651 0.11875 0.0
C12 C 0.17006 0.32491 0.05672 0.0
C13 C 0.14094 0.31153 0.07712 0.0
N14 N 0.15383 0.31571 0.03052 0.0
C15 C 0.15363 0.35452 0.23555 0.0
C16 C 0.11864 0.37792 0.24467 0.0
C17 C 0.13771 0.38758 0.24928 0.0
C18 C 0.15535 0.37547 0.2464 0.0
C19 C 0.11767 0.3569 0.23431 0.0
N20 N 0.13505 0.34572 0.22512 0.0
H21 H 0.16726 0.34534 0.23735 0.0
H22 H 0.10285 0.34966 0.23358 0.0
H23 H 0.1771 0.33265 0.15155 0.0
H24 H 0.12661 0.30348 0.07182 0.0
O25 O 0.15824 0.30808 0.24855 0.0
O26 O 0.13606 0.28712 0.20393 0.0
O27 O 0.10644 0.31941 0.16519 0.0
C28 C 0.1529 0.28947 0.235 0.0
H29 H 0.08452 0.29544 0.37849 0.0
H30 H 0.18337 0.3306 0.03271 0.0
H31 H 0.10454 0.38649 0.24817 0.0
H32 H 0.17036 0.38204 0.25341 0.0
Co33 Co 0.67673 0.13164 0.46763 0.0
C34 C 0.676 0.12446 0.6005 0.0
C35 C 0.68988 0.0993 0.55299 0.0
C36 C 0.69118 0.09577 0.61518 0.0
N37 N 0.68036 0.11728 0.54411 0.0
N38 N 0.68252 0.11167 0.64501 0.0
H39 H 0.66907 0.13923 0.60861 0.0
H40 H 0.69603 0.08975 0.51699 0.0
C41 C 0.66108 0.09912 0.38455 0.0
O42 O 0.64617 0.11155 0.36915 0.0
N43 N 0.67388 0.14619 0.38999 0.0
C44 C 0.66788 0.16565 0.37973 0.0
C45 C 0.66897 0.16966 0.31784 0.0
C46 C 0.6798 0.13923 0.33439 0.0
N47 N 0.67636 0.15295 0.28936 0.0
C48 C 0.63764 0.15045 0.48942 0.0
C49 C 0.61594 0.11455 0.50362 0.0
C50 C 0.60526 0.13315 0.50302 0.0
C51 C 0.61656 0.1513 0.49823 0.0
C52 C 0.63709 0.11447 0.49577 0.0
N53 N 0.64744 0.13217 0.48356 0.0
H54 H 0.64607 0.16454 0.48872 0.0
H55 H 0.64509 0.10004 0.49781 0.0
H56 H 0.6638 0.17667 0.41434 0.0
H57 H 0.68645 0.12433 0.3268 0.0
O58 O 0.68397 0.15659 0.50823 0.0
O59 O 0.70596 0.13561 0.46249 0.0
O60 O 0.67473 0.10468 0.42302 0.0
C61 C 0.70277 0.15211 0.49455 0.0
H62 H 0.69827 0.08265 0.63659 0.0
H63 H 0.66506 0.18395 0.29577 0.0
H64 H 0.60807 0.10008 0.50856 0.0
H65 H 0.60923 0.1661 0.50157 0.0
Co66 Co 0.86022 0.6809 0.69732 0.0
C67 C 0.86717 0.68004 0.8304 0.0
C68 C 0.89232 0.69405 0.78315 0.0
C69 C 0.89584 0.69527 0.84531 0.0
N70 N 0.87436 0.68448 0.7741 0.0
N71 N 0.87995 0.68652 0.87496 0.0
H72 H 0.85242 0.67303 0.8384 0.0
H73 H 0.90187 0.70028 0.74728 0.0
C74 C 0.89286 0.66548 0.61396 0.0
O75 O 0.88003 0.65123 0.59586 0.0
N76 N 0.84584 0.67809 0.61943 0.0
C77 C 0.82651 0.67169 0.60914 0.0
C78 C 0.82244 0.67281 0.54737 0.0
C79 C 0.85265 0.68426 0.56392 0.0
N80 N 0.83898 0.68056 0.5189 0.0
C81 C 0.84104 0.64213 0.72131 0.0
C82 C 0.87672 0.62012 0.73591 0.0
C83 C 0.85797 0.60977 0.73847 0.0
C84 C 0.83995 0.62119 0.73274 0.0
C85 C 0.87705 0.64112 0.72496 0.0
N86 N 0.85941 0.65162 0.71336 0.0
H87 H 0.82706 0.65073 0.72094 0.0
H88 H 0.8916 0.64891 0.72566 0.0
H89 H 0.8156 0.66728 0.64364 0.0
H90 H 0.86747 0.69111 0.55638 0.0
O91 O 0.83512 0.68843 0.73659 0.0
O92 O 0.85662 0.71016 0.69227 0.0
O93 O 0.88737 0.67864 0.65403 0.0
C94 C 0.83983 0.70721 0.72318 0.0
H95 H 0.90895 0.70233 0.86687 0.0
H96 H 0.80824 0.66859 0.52532 0.0
H97 H 0.89106 0.61209 0.74146 0.0
H98 H 0.8251 0.61409 0.73801 0.0
Co99 Co 0.31716 0.85986 0.95094 0.0
C100 C 0.31807 0.86557 0.08591 0.0
C101 C 0.30673 0.89206 0.03977 0.0
C102 C 0.30455 0.895 0.10181 0.0
N103 N 0.31585 0.87384 0.02958 0.0
N104 N 0.31156 0.87823 0.13062 0.0
H105 H 0.32282 0.85006 0.09426 0.0
H106 H 0.30065 0.90197 0.00459 0.0
C107 C 0.33174 0.90171 0.92189 0.0
O108 O 0.34413 0.89997 0.96902 0.0
N109 N 0.31753 0.846 0.87327 0.0
C110 C 0.32508 0.82726 0.86155 0.0
C111 C 0.32335 0.82355 0.79964 0.0
C112 C 0.31119 0.8534 0.81903 0.0
N113 N 0.3147 0.84005 0.77304 0.0
C114 C 0.35544 0.84585 0.00131 0.0
C115 C 0.37982 0.86136 0.9089 0.0
C116 C 0.38912 0.85165 0.95886 0.0
C117 C 0.3766 0.84343 0.0048 0.0
C118 C 0.35862 0.86334 0.90717 0.0
N119 N 0.34675 0.85673 0.95481 0.0
H120 H 0.34613 0.83841 0.03511 0.0
H121 H 0.35175 0.87034 0.86737 0.0
H122 H 0.33186 0.81727 0.89539 0.0
H123 H 0.30433 0.86832 0.81335 0.0
O124 O 0.30929 0.83479 0.99022 0.0
O125 O 0.28775 0.85789 0.9529 0.0
O126 O 0.31977 0.887 0.90775 0.0
C127 C 0.29051 0.84065 0.98161 0.0
H128 H 0.29702 0.9078 0.12372 0.0
H129 H 0.32875 0.81008 0.77585 0.0
H130 H 0.3888 0.86768 0.87177 0.0
H131 H 0.38305 0.83491 0.04271 0.0
Co132 Co 0.13128 0.67889 0.29651 0.0
C133 C 0.12562 0.6788 0.16144 0.0
C134 C 0.09904 0.6897 0.20803 0.0
C135 C 0.09618 0.69232 0.14612 0.0
N136 N 0.11726 0.68054 0.21787 0.0
N137 N 0.11299 0.68556 0.11697 0.0
H138 H 0.14118 0.67421 0.15301 0.0
H139 H 0.08909 0.69558 0.24341 0.0
C140 C 0.08936 0.66496 0.32643 0.0
O141 O 0.09097 0.65242 0.27955 0.0
N142 N 0.14523 0.67828 0.37411 0.0
C143 C 0.16392 0.67055 0.38539 0.0
C144 C 0.16776 0.67212 0.44726 0.0
C145 C 0.13798 0.68456 0.42865 0.0
N146 N 0.15138 0.68085 0.47434 0.0
C147 C 0.14318 0.63994 0.24487 0.0
C148 C 0.1291 0.61652 0.34145 0.0
C149 C 0.1376 0.60666 0.29048 0.0
C150 C 0.14499 0.61869 0.24213 0.0
C151 C 0.12748 0.63776 0.34209 0.0
N152 N 0.13359 0.6492 0.29293 0.0
H153 H 0.14996 0.64883 0.20895 0.0
H154 H 0.12128 0.64503 0.38247 0.0
H155 H 0.17379 0.66374 0.35128 0.0
H156 H 0.12312 0.69152 0.43477 0.0
O157 O 0.15651 0.68605 0.25698 0.0
O158 O 0.13401 0.70824 0.29435 0.0
O159 O 0.10414 0.67691 0.34001 0.0
C160 C 0.15116 0.70499 0.26558 0.0
H161 H 0.08338 0.69998 0.12464 0.0
H162 H 0.18121 0.66654 0.47073 0.0
H163 H 0.12395 0.60795 0.38101 0.0
H164 H 0.15205 0.61181 0.20225 0.0
Co165 Co 0.31375 0.12991 0.54543 0.0
C166 C 0.31511 0.12284 0.41248 0.0
C167 C 0.30111 0.09766 0.45962 0.0
C168 C 0.29983 0.09419 0.39745 0.0
N169 N 0.31067 0.11561 0.46875 0.0
N170 N 0.30856 0.1101 0.36791 0.0
H171 H 0.322 0.13764 0.40444 0.0
H172 H 0.29479 0.08814 0.49545 0.0
C173 C 0.32851 0.09791 0.63186 0.0
O174 O 0.34233 0.11107 0.65079 0.0
N175 N 0.31603 0.14433 0.62326 0.0
C176 C 0.32408 0.16287 0.63585 0.0
C177 C 0.32235 0.16657 0.6978 0.0
C178 C 0.30846 0.13768 0.67728 0.0
N179 N 0.31275 0.15055 0.72389 0.0
C180 C 0.35247 0.14917 0.52076 0.0
C181 C 0.37503 0.11356 0.51465 0.0
C182 C 0.38526 0.13237 0.51091 0.0
C183 C 0.37356 0.15032 0.51187 0.0
C184 C 0.35389 0.11317 0.52254 0.0
N185 N 0.3431 0.13084 0.53074 0.0
H186 H 0.34366 0.16303 0.51809 0.0
H187 H 0.34627 0.09853 0.5226 0.0
H188 H 0.33055 0.17333 0.6031 0.0
H189 H 0.30014 0.1235 0.68251 0.0
O190 O 0.30618 0.15493 0.50554 0.0
O191 O 0.28446 0.13328 0.54924 0.0
O192 O 0.31593 0.10287 0.58957 0.0
C193 C 0.28739 0.15005 0.51824 0.0
H194 H 0.29265 0.08116 0.37576 0.0
H195 H 0.32822 0.17979 0.72188 0.0
H196 H 0.38321 0.0992 0.51264 0.0
H197 H 0.38055 0.16516 0.5052 0.0
Co198 Co 0.86782 0.31856 0.77595 0.0
C199 C 0.8745 0.32039 0.64117 0.0
C200 C 0.90013 0.30759 0.68819 0.0
C201 C 0.90351 0.3059 0.62624 0.0
N202 N 0.8822 0.3173 0.69789 0.0
N203 N 0.88732 0.31394 0.59678 0.0
H204 H 0.85905 0.32522 0.63208 0.0
H205 H 0.90959 0.30092 0.72352 0.0
C206 C 0.90986 0.33139 0.80807 0.0
O207 O 0.90862 0.34426 0.76193 0.0
N208 N 0.85357 0.31882 0.85313 0.0
C209 C 0.83507 0.32695 0.86481 0.0
C210 C 0.83143 0.32563 0.92688 0.0
C211 C 0.86084 0.31249 0.90755 0.0
N212 N 0.84773 0.31666 0.95364 0.0
C213 C 0.85652 0.35809 0.72761 0.0
C214 C 0.87061 0.38045 0.82644 0.0
C215 C 0.862 0.39084 0.77663 0.0
C216 C 0.85467 0.37934 0.72703 0.0
C217 C 0.87228 0.35922 0.8249 0.0
N218 N 0.86611 0.34831 0.7747 0.0
H219 H 0.84964 0.3496 0.69097 0.0
H220 H 0.87842 0.35153 0.86462 0.0
H221 H 0.82532 0.33407 0.83096 0.0
H222 H 0.87563 0.30538 0.91339 0.0
O223 O 0.84268 0.31241 0.73468 0.0
O224 O 0.86436 0.28929 0.77155 0.0
O225 O 0.89482 0.31962 0.82053 0.0
C226 C 0.84746 0.29329 0.7423 0.0
H227 H 0.91648 0.29856 0.60474 0.0
H228 H 0.81826 0.33172 0.9507 0.0
H229 H 0.87572 0.38859 0.86687 0.0
H230 H 0.84757 0.38664 0.68793 0.0
Co231 Co 0.67919 0.86458 0.0435 0.0
C232 C 0.68003 0.87111 0.9085 0.0
C233 C 0.69903 0.89231 0.95688 0.0
C234 C 0.70179 0.89534 0.89508 0.0
N235 N 0.68501 0.87743 0.96537 0.0
N236 N 0.68991 0.88188 0.86491 0.0
H237 H 0.67018 0.85838 0.89858 0.0
H238 H 0.70733 0.89987 0.99328 0.0
C239 C 0.67001 0.90863 0.06125 0.0
O240 O 0.6612 0.90847 0.00714 0.0
N241 N 0.67429 0.85181 0.1212 0.0
C242 C 0.66372 0.83454 0.13221 0.0
C243 C 0.66326 0.83134 0.1946 0.0
C244 C 0.68022 0.85883 0.17622 0.0
N245 N 0.67359 0.8467 0.22207 0.0
C246 C 0.64197 0.85081 0.98676 0.0
C247 C 0.6157 0.87303 0.06006 0.0
C248 C 0.60748 0.86034 0.01459 0.0
C249 C 0.62092 0.84899 0.978 0.0
C250 C 0.63682 0.87431 0.06738 0.0
N251 N 0.64979 0.86412 0.02889 0.0
H252 H 0.65187 0.84074 0.96142 0.0
H253 H 0.64257 0.88298 0.1057 0.0
H254 H 0.65657 0.82517 0.09744 0.0
H255 H 0.68925 0.87254 0.18238 0.0
O256 O 0.6862 0.8385 0.00893 0.0
O257 O 0.70816 0.85989 0.05256 0.0
O258 O 0.67768 0.8923 0.08362 0.0
C259 C 0.70497 0.84274 0.02374 0.0
H260 H 0.71251 0.90582 0.87407 0.0
H261 H 0.65544 0.81901 0.2179 0.0
H262 H 0.60592 0.88177 0.09036 0.0
H263 H 0.61524 0.83821 0.94438 0.0
H264 H 0.2463 0.14326 0.53238 0.0
H265 H 0.2183 0.16193 0.48238 0.0
H266 H 0.26207 0.20221 0.3972 0.0
H267 H 0.28995 0.18385 0.44658 0.0
H268 H 0.20938 0.20563 0.48881 0.0
H269 H 0.22685 0.17932 0.25312 0.0
H270 H 0.23592 0.16616 0.32069 0.0
H271 H 0.24886 0.18867 0.29357 0.0
C272 C 0.2499 0.15618 0.5033 0.0
C273 C 0.27029 0.16207 0.4932 0.0
C274 C 0.23393 0.16673 0.47468 0.0
C275 C 0.23824 0.1831 0.43522 0.0
C276 C 0.25852 0.18932 0.42652 0.0
H277 H 0.18636 0.29076 0.30833 0.0
H278 H 0.20384 0.26209 0.35661 0.0
C279 C 0.27441 0.1789 0.45518 0.0
C280 C 0.22173 0.19429 0.40388 0.0
H281 H 0.20695 0.21019 0.26177 0.0
C282 C 0.20849 0.20632 0.4392 0.0
C283 C 0.22047 0.19488 0.33921 0.0
C284 C 0.23365 0.18141 0.29936 0.0
C285 C 0.19504 0.22014 0.4113 0.0
C286 C 0.19508 0.22199 0.34674 0.0
C287 C 0.20717 0.20884 0.31132 0.0
C288 C 0.18446 0.23899 0.3159 0.0
C289 C 0.18147 0.23324 0.45109 0.0
C290 C 0.16825 0.23534 0.27535 0.0
C291 C 0.15819 0.25175 0.2474 0.0
C292 C 0.16445 0.27193 0.25927 0.0
C293 C 0.18115 0.27539 0.29834 0.0
C294 C 0.19106 0.25906 0.32636 0.0
H295 H 0.17893 0.22614 0.49672 0.0
H296 H 0.1889 0.2483 0.45835 0.0
H297 H 0.16643 0.23589 0.42886 0.0
H298 H 0.16315 0.21987 0.2663 0.0
H299 H 0.14536 0.24866 0.21746 0.0
H300 H 0.82238 0.29655 0.64447 0.0
H301 H 0.8002 0.27028 0.60122 0.0
H302 H 0.82102 0.2274 0.73791 0.0
H303 H 0.84413 0.25353 0.77973 0.0
H304 H 0.81678 0.20916 0.62839 0.0
H305 H 0.74727 0.25421 0.67893 0.0
H306 H 0.76455 0.26813 0.63081 0.0
H307 H 0.77209 0.26136 0.70762 0.0
C308 C 0.82222 0.28151 0.66532 0.0
C309 C 0.83464 0.27709 0.71602 0.0
C310 C 0.80951 0.26655 0.6407 0.0
C311 C 0.80852 0.24709 0.66747 0.0
C312 C 0.82144 0.2424 0.71694 0.0
H313 H 0.70345 0.17054 0.60464 0.0
H314 H 0.73064 0.19135 0.64856 0.0
C315 C 0.83454 0.2573 0.74086 0.0
C316 C 0.7936 0.23191 0.64452 0.0
H317 H 0.7431 0.22593 0.61136 0.0
C318 C 0.80062 0.21269 0.62513 0.0
C319 C 0.7725 0.23644 0.64141 0.0
C320 C 0.76363 0.25607 0.66645 0.0
C321 C 0.78709 0.19798 0.60155 0.0
C322 C 0.76614 0.20297 0.59537 0.0
C323 C 0.75918 0.22213 0.61549 0.0
C324 C 0.75082 0.18854 0.57022 0.0
C325 C 0.79535 0.17717 0.58493 0.0
C326 C 0.75319 0.17972 0.51184 0.0
C327 C 0.73778 0.16733 0.48727 0.0
C328 C 0.71959 0.16426 0.51996 0.0
C329 C 0.71727 0.17298 0.57824 0.0
C330 C 0.73282 0.18481 0.60339 0.0
H331 H 0.80973 0.17377 0.61002 0.0
H332 H 0.78408 0.16494 0.59515 0.0
H333 H 0.79884 0.1768 0.53518 0.0
H334 H 0.76667 0.18282 0.48462 0.0
H335 H 0.73978 0.16076 0.4421 0.0
H336 H 0.80412 0.70446 0.78556 0.0
H337 H 0.78569 0.7319 0.83704 0.0
H338 H 0.82946 0.77581 0.76991 0.0
H339 H 0.84821 0.74826 0.71781 0.0
H340 H 0.80593 0.75998 0.92843 0.0
H341 H 0.76957 0.79799 0.72715 0.0
H342 H 0.77766 0.77161 0.7241 0.0
H343 H 0.79637 0.79162 0.72436 0.0
C344 C 0.80975 0.71997 0.78104 0.0
C345 C 0.82762 0.72424 0.74771 0.0
C346 C 0.79924 0.73558 0.81069 0.0
C347 C 0.80632 0.75574 0.80733 0.0
C348 C 0.8238 0.76027 0.77271 0.0
H349 H 0.74606 0.84988 0.03438 0.0
H350 H 0.77372 0.83053 0.98514 0.0
C351 C 0.83441 0.74457 0.74293 0.0
C352 C 0.7954 0.77171 0.84181 0.0
H353 H 0.75921 0.80872 0.82514 0.0
C354 C 0.79601 0.77097 0.90607 0.0
C355 C 0.78251 0.78585 0.81206 0.0
C356 C 0.78131 0.78693 0.7431 0.0
C357 C 0.78325 0.78347 0.94155 0.0
C358 C 0.76967 0.79692 0.91171 0.0
C359 C 0.76976 0.79835 0.84755 0.0
C360 C 0.75359 0.80785 0.94562 0.0
C361 C 0.78345 0.78144 0.0104 0.0
C362 C 0.73334 0.80118 0.94031 0.0
C363 C 0.71762 0.81204 0.96838 0.0
C364 C 0.72192 0.82985 0.00196 0.0
C365 C 0.74234 0.83615 0.00899 0.0
C366 C 0.75811 0.82519 0.98086 0.0
H367 H 0.79429 0.7695 0.02633 0.0
H368 H 0.78787 0.79626 0.03131 0.0
H369 H 0.76789 0.77758 0.02716 0.0
H370 H 0.72966 0.78775 0.91337 0.0
H371 H 0.70205 0.80682 0.96211 0.0
H372 H 0.14508 0.74617 0.27927 0.0
H373 H 0.16432 0.77385 0.22964 0.0
H374 H 0.20334 0.72937 0.14255 0.0
H375 H 0.18436 0.70177 0.1916 0.0
H376 H 0.20814 0.78148 0.23712 0.0
H377 H 0.18172 0.76602 0.00015 0.0
H378 H 0.16828 0.75683 0.06708 0.0
H379 H 0.19059 0.74364 0.03978 0.0
C380 C 0.15781 0.74233 0.24969 0.0
C381 C 0.16324 0.72183 0.23924 0.0
C382 C 0.1687 0.75812 0.22135 0.0
C383 C 0.18494 0.75354 0.18172 0.0
C384 C 0.19058 0.73313 0.17214 0.0
H385 H 0.29284 0.8073 0.0553 0.0
H386 H 0.26475 0.7891 0.10448 0.0
C387 C 0.17983 0.7174 0.20061 0.0
C388 C 0.19662 0.76994 0.15137 0.0
H389 H 0.21245 0.78589 0.01033 0.0
C390 C 0.20882 0.78276 0.18759 0.0
C391 C 0.1972 0.7717 0.08683 0.0
C392 C 0.1836 0.75895 0.04611 0.0
C393 C 0.22268 0.7964 0.16062 0.0
C394 C 0.22439 0.797 0.09606 0.0
C395 C 0.2112 0.7852 0.05986 0.0
C396 C 0.24109 0.80822 0.06567 0.0
C397 C 0.23585 0.80959 0.20135 0.0
C398 C 0.23696 0.82462 0.02617 0.0
C399 C 0.25302 0.83507 0.99775 0.0
C400 C 0.27336 0.82904 0.00796 0.0
C401 C 0.27733 0.8123 0.04645 0.0
C402 C 0.26134 0.80199 0.07501 0.0
H403 H 0.22888 0.81163 0.24739 0.0
H404 H 0.25095 0.80215 0.20749 0.0
H405 H 0.2384 0.82487 0.18049 0.0
H406 H 0.22136 0.82946 0.01806 0.0
H407 H 0.24953 0.84793 0.9683 0.0
H408 H 0.13642 0.33856 0.44936 0.0
H409 H 0.14395 0.33827 0.55922 0.0
H410 H 0.10638 0.28462 0.5814 0.0
H411 H 0.0992 0.28448 0.47149 0.0
H412 H 0.11638 0.34047 0.65821 0.0
H413 H 0.16112 0.26835 0.66149 0.0
H414 H 0.15554 0.28205 0.59163 0.0
H415 H 0.13633 0.26626 0.62662 0.0
C416 C 0.1299 0.32661 0.47751 0.0
C417 C 0.11728 0.3115 0.45155 0.0
C418 C 0.13413 0.32652 0.54028 0.0
C419 C 0.12597 0.31125 0.57818 0.0
C420 C 0.11311 0.29634 0.55271 0.0
H421 H 0.11686 0.314 0.97435 0.0
H422 H 0.11028 0.31211 0.86449 0.0
C423 C 0.10882 0.29644 0.48998 0.0
C424 C 0.1306 0.31116 0.6446 0.0
H425 H 0.15268 0.28282 0.75813 0.0
C426 C 0.12435 0.3279 0.6801 0.0
C427 C 0.14123 0.29484 0.67274 0.0
C428 C 0.14913 0.27692 0.63619 0.0
C429 C 0.12814 0.32863 0.74335 0.0
C430 C 0.1382 0.31201 0.77189 0.0
C431 C 0.14479 0.29543 0.73619 0.0
C432 C 0.14221 0.31174 0.83869 0.0
C433 C 0.12163 0.34732 0.77891 0.0
C434 C 0.16234 0.31134 0.86075 0.0
C435 C 0.16618 0.31214 0.92375 0.0
C436 C 0.14994 0.31321 0.96586 0.0
C437 C 0.12976 0.31295 0.94347 0.0
C438 C 0.12595 0.31214 0.88055 0.0
H439 H 0.11898 0.36064 0.74834 0.0
H440 H 0.10712 0.34399 0.80327 0.0
H441 H 0.1333 0.35157 0.81359 0.0
H442 H 0.1751 0.31086 0.82912 0.0
H443 H 0.18187 0.31205 0.93944 0.0
H444 H 0.6549 0.17114 0.19821 0.0
H445 H 0.65709 0.16392 0.08851 0.0
H446 H 0.70513 0.12028 0.12255 0.0
H447 H 0.70302 0.1274 0.23238 0.0
H448 H 0.68904 0.16733 0.00647 0.0
H449 H 0.66389 0.08652 0.02624 0.0
H450 H 0.66153 0.10451 0.08855 0.0
H451 H 0.68577 0.09278 0.07218 0.0
C452 C 0.6661 0.16019 0.18239 0.0
C453 C 0.67868 0.14975 0.22427 0.0
C454 C 0.66726 0.15599 0.11965 0.0
C455 C 0.68098 0.14126 0.09747 0.0
C456 C 0.69404 0.13131 0.13882 0.0
H457 H 0.70765 0.09551 0.73172 0.0
H458 H 0.70741 0.10273 0.84158 0.0
C459 C 0.69284 0.13543 0.20162 0.0
C460 C 0.68153 0.13635 0.03107 0.0
H461 H 0.67484 0.09754 0.92812 0.0
C462 C 0.68589 0.15209 0.98931 0.0
C463 C 0.6774 0.11644 0.00879 0.0
C464 C 0.6717 0.09911 0.05114 0.0
C465 C 0.68645 0.14841 0.92592 0.0
C466 C 0.68227 0.12853 0.90371 0.0
C467 C 0.67806 0.11276 0.94539 0.0
C468 C 0.68203 0.12385 0.83725 0.0
C469 C 0.69181 0.16575 0.88323 0.0
C470 C 0.66755 0.133 0.79861 0.0
C471 C 0.66752 0.12877 0.73581 0.0
C472 C 0.68196 0.11527 0.71032 0.0
C473 C 0.69618 0.10581 0.74958 0.0
C474 C 0.69616 0.11002 0.81243 0.0
H475 H 0.69931 0.17859 0.90786 0.0
H476 H 0.70213 0.16043 0.84608 0.0
H477 H 0.67763 0.17167 0.86174 0.0
H478 H 0.65623 0.14338 0.81711 0.0
H479 H 0.6561 0.13602 0.70734 0.0
H480 H 0.89561 0.71193 0.96162 0.0
H481 H 0.88907 0.71102 0.07178 0.0
H482 H 0.8491 0.65926 0.04694 0.0
H483 H 0.85613 0.65957 0.93701 0.0
H484 H 0.85206 0.7153 0.13206 0.0
H485 H 0.88688 0.63991 0.18348 0.0
H486 H 0.89133 0.65324 0.1123 0.0
H487 H 0.86806 0.63909 0.12367 0.0
C488 C 0.88572 0.70011 0.97955 0.0
C489 C 0.87649 0.68574 0.94027 0.0
C490 C 0.88186 0.69973 0.04256 0.0
C491 C 0.86881 0.68492 0.06766 0.0
C492 C 0.85952 0.6706 0.0287 0.0
H493 H 0.82119 0.65844 0.42854 0.0
H494 H 0.82796 0.6607 0.31865 0.0
C495 C 0.86339 0.67094 0.9657 0.0
C496 C 0.86447 0.68482 0.13437 0.0
H497 H 0.86722 0.65518 0.2629 0.0
C498 C 0.85549 0.70222 0.16079 0.0
C499 C 0.86897 0.66773 0.17171 0.0
C500 C 0.87952 0.649 0.14657 0.0
C501 C 0.85048 0.7028 0.22337 0.0
C502 C 0.85479 0.68563 0.26047 0.0
C503 C 0.86387 0.66829 0.23417 0.0
C504 C 0.84994 0.68524 0.32676 0.0
C505 C 0.8402 0.72158 0.24907 0.0
C506 C 0.86002 0.69836 0.36771 0.0
C507 C 0.85613 0.69715 0.43065 0.0
C508 C 0.84208 0.6828 0.45377 0.0
C509 C 0.83183 0.66988 0.41233 0.0
C510 C 0.8358 0.67104 0.34952 0.0
H511 H 0.83394 0.73153 0.21232 0.0
H512 H 0.8276 0.71727 0.28061 0.0
H513 H 0.85153 0.73061 0.27557 0.0
H514 H 0.87119 0.70925 0.3511 0.0
H515 H 0.86418 0.70741 0.46117 0.0
H516 H 0.31376 0.90535 0.22377 0.0
H517 H 0.31204 0.89779 0.33365 0.0
H518 H 0.30432 0.83372 0.29315 0.0
H519 H 0.30588 0.84114 0.18356 0.0
H520 H 0.28043 0.87794 0.4015 0.0
H521 H 0.3539 0.83533 0.40987 0.0
H522 H 0.34696 0.85156 0.34628 0.0
H523 H 0.33598 0.8265 0.35338 0.0
C524 C 0.3116 0.88968 0.23836 0.0
C525 C 0.31024 0.87383 0.19509 0.0
C526 C 0.31066 0.88539 0.30099 0.0
C527 C 0.30839 0.86518 0.32129 0.0
C528 C 0.30655 0.84936 0.27828 0.0
H529 H 0.30848 0.81128 0.68563 0.0
H530 H 0.30512 0.81697 0.57524 0.0
C531 C 0.30752 0.85363 0.2157 0.0
C532 C 0.30803 0.86064 0.38757 0.0
H533 H 0.3342 0.83592 0.50058 0.0
C534 C 0.29216 0.86876 0.4233 0.0
C535 C 0.32335 0.84861 0.41554 0.0
C536 C 0.34113 0.84011 0.37953 0.0
C537 C 0.29116 0.86507 0.48655 0.0
C538 C 0.30662 0.85323 0.51462 0.0
C539 C 0.32235 0.84492 0.47873 0.0
C540 C 0.30728 0.84991 0.58156 0.0
C541 C 0.27346 0.87366 0.52264 0.0
C542 C 0.30968 0.86654 0.62143 0.0
C543 C 0.3117 0.86334 0.68435 0.0
C544 C 0.3115 0.8434 0.70853 0.0
C545 C 0.3089 0.82678 0.6684 0.0
C546 C 0.30687 0.83001 0.60543 0.0
H547 H 0.26026 0.87733 0.49257 0.0
H548 H 0.26836 0.86276 0.55853 0.0
H549 H 0.27836 0.88799 0.54556 0.0
H550 H 0.31054 0.88199 0.6037 0.0
H551 H 0.31408 0.87646 0.7137 0.0
H552 H 0.15023 0.69045 0.06378 0.0
H553 H 0.15759 0.69228 0.95419 0.0
H554 H 0.0933 0.6867 0.91412 0.0
H555 H 0.0858 0.6846 0.02382 0.0
H556 H 0.14784 0.66216 0.866 0.0
H557 H 0.11138 0.73666 0.81226 0.0
H558 H 0.11768 0.72898 0.88949 0.0
H559 H 0.09523 0.719 0.85266 0.0
C560 C 0.13764 0.68947 0.03177 0.0
C561 C 0.1174 0.68724 0.05251 0.0
C562 C 0.14188 0.69069 0.96918 0.0
C563 C 0.12597 0.68987 0.92625 0.0
C564 C 0.10575 0.68778 0.94667 0.0
H565 H 0.11513 0.68147 0.53457 0.0
H566 H 0.1099 0.68477 0.64492 0.0
C567 C 0.10149 0.68655 0.00928 0.0
C568 C 0.13061 0.69011 0.85998 0.0
H569 H 0.12155 0.71621 0.72733 0.0
C570 C 0.14227 0.67405 0.83566 0.0
C571 C 0.12325 0.70565 0.82079 0.0
C572 C 0.11134 0.72367 0.84505 0.0
C573 C 0.1463 0.67279 0.77267 0.0
C574 C 0.13876 0.68822 0.73333 0.0
C575 C 0.1273 0.70442 0.75775 0.0
C576 C 0.14207 0.68742 0.66636 0.0
C577 C 0.15802 0.65462 0.74852 0.0
C578 C 0.16187 0.68827 0.64189 0.0
C579 C 0.16492 0.68643 0.57877 0.0
C580 C 0.14819 0.68388 0.53902 0.0
C581 C 0.12833 0.68364 0.5637 0.0
C582 C 0.12531 0.68543 0.6268 0.0
H583 H 0.15861 0.64195 0.78237 0.0
H584 H 0.15105 0.6488 0.70552 0.0
H585 H 0.17394 0.65933 0.73822 0.0
H586 H 0.17497 0.69021 0.67167 0.0
H587 H 0.18036 0.68703 0.56109 0.0
H588 H 0.28191 0.09583 0.28279 0.0
H589 H 0.28227 0.1027 0.17272 0.0
H590 H 0.33594 0.14023 0.19494 0.0
H591 H 0.33601 0.133 0.30498 0.0
H592 H 0.27993 0.1412 0.11359 0.0
H593 H 0.35176 0.09998 0.05723 0.0
H594 H 0.33821 0.09616 0.12841 0.0
H595 H 0.35393 0.11841 0.11797 0.0
C596 C 0.29398 0.10528 0.26425 0.0
C597 C 0.30902 0.11375 0.30274 0.0
C598 C 0.29406 0.10933 0.20138 0.0
C599 C 0.30923 0.1218 0.17566 0.0
C600 C 0.32424 0.13034 0.2138 0.0
H601 H 0.30919 0.17869 0.81477 0.0
H602 H 0.30754 0.172 0.92505 0.0
C603 C 0.32416 0.12633 0.27674 0.0
C604 C 0.30913 0.12611 0.10901 0.0
H605 H 0.33682 0.11964 0.97785 0.0
C606 C 0.29234 0.13648 0.0838 0.0
C607 C 0.32526 0.11973 0.07033 0.0
C608 C 0.34325 0.1078 0.09456 0.0
C609 C 0.29134 0.14085 0.02085 0.0
C610 C 0.30768 0.13487 0.98239 0.0
C611 C 0.32437 0.12432 0.00756 0.0
C612 C 0.30768 0.13906 0.91565 0.0
C613 C 0.27267 0.15148 0.99585 0.0
C614 C 0.30852 0.12279 0.87388 0.0
C615 C 0.30963 0.12656 0.81098 0.0
C616 C 0.31004 0.14673 0.7885 0.0
C617 C 0.30898 0.16301 0.83052 0.0
C618 C 0.30785 0.15921 0.89353 0.0
H619 H 0.25955 0.15054 0.02808 0.0
H620 H 0.27624 0.16788 0.98836 0.0
H621 H 0.26802 0.14478 0.95122 0.0
H622 H 0.30856 0.10713 0.89004 0.0
H623 H 0.31084 0.11365 0.78019 0.0
H624 H 0.90202 0.28708 0.51273 0.0
H625 H 0.89511 0.28693 0.40264 0.0
H626 H 0.85612 0.3396 0.42365 0.0
H627 H 0.86342 0.34024 0.53354 0.0
H628 H 0.85677 0.28366 0.34254 0.0
H629 H 0.89665 0.35643 0.28795 0.0
H630 H 0.90047 0.34293 0.3592 0.0
H631 H 0.87797 0.35823 0.34808 0.0
C632 C 0.89221 0.29881 0.49389 0.0
C633 C 0.88337 0.31377 0.53187 0.0
C634 C 0.88814 0.29858 0.43108 0.0
C635 C 0.8753 0.31338 0.40511 0.0
C636 C 0.8663 0.32822 0.44281 0.0
H637 H 0.81941 0.31271 0.04367 0.0
H638 H 0.82582 0.31102 0.15407 0.0
C639 C 0.87034 0.32845 0.50562 0.0
C640 C 0.87123 0.31321 0.33853 0.0
H641 H 0.87735 0.34126 0.2081 0.0
C642 C 0.86128 0.29621 0.313 0.0
C643 C 0.87735 0.32954 0.3003 0.0
C644 C 0.88887 0.34776 0.325 0.0
C645 C 0.85707 0.29522 0.25001 0.0
C646 C 0.86277 0.31177 0.21203 0.0
C647 C 0.87289 0.32866 0.23754 0.0
C648 C 0.85875 0.31181 0.14537 0.0
C649 C 0.8469 0.27635 0.22447 0.0
C650 C 0.87513 0.31306 0.10415 0.0
C651 C 0.87152 0.31424 0.04126 0.0
C652 C 0.85142 0.31429 0.01834 0.0
C653 C 0.83504 0.31283 0.05985 0.0
C654 C 0.83868 0.31165 0.12286 0.0
H655 H 0.84803 0.2632 0.25653 0.0
H656 H 0.83047 0.27957 0.21662 0.0
H657 H 0.85383 0.27192 0.17994 0.0
H658 H 0.89074 0.31335 0.12075 0.0
H659 H 0.88451 0.31572 0.01089 0.0
H660 H 0.6795 0.88301 0.27922 0.0
H661 H 0.684 0.88872 0.3888 0.0
H662 H 0.67704 0.82411 0.42211 0.0
H663 H 0.67331 0.81811 0.31205 0.0
H664 H 0.65644 0.87982 0.48099 0.0
H665 H 0.72939 0.838 0.51546 0.0
H666 H 0.72011 0.84506 0.44047 0.0
H667 H 0.70967 0.82318 0.47933 0.0
C668 C 0.67931 0.86994 0.30958 0.0
C669 C 0.67623 0.85006 0.28676 0.0
C670 C 0.68173 0.87327 0.37225 0.0
C671 C 0.68116 0.85681 0.41328 0.0
C672 C 0.67792 0.83696 0.39094 0.0
H673 H 0.68335 0.8459 0.80678 0.0
H674 H 0.68127 0.84034 0.69624 0.0
C675 C 0.67555 0.8336 0.32815 0.0
C676 C 0.68315 0.86058 0.4797 0.0
H677 H 0.71207 0.84918 0.60518 0.0
C678 C 0.66866 0.87323 0.50815 0.0
C679 C 0.69912 0.85193 0.51474 0.0
C680 C 0.71558 0.83893 0.48596 0.0
C681 C 0.66951 0.87719 0.57119 0.0
C682 C 0.68541 0.86845 0.60623 0.0
C683 C 0.69993 0.85583 0.57787 0.0
C684 C 0.687 0.87194 0.67277 0.0
C685 C 0.65317 0.8903 0.6001 0.0
C686 C 0.69117 0.89152 0.69579 0.0
C687 C 0.69226 0.89477 0.75893 0.0
C688 C 0.68917 0.87849 0.79988 0.0
C689 C 0.68535 0.85883 0.77645 0.0
C690 C 0.68433 0.85558 0.71338 0.0
H691 H 0.63975 0.89226 0.56945 0.0
H692 H 0.64791 0.88355 0.64406 0.0
H693 H 0.65956 0.90566 0.61006 0.0
H694 H 0.69354 0.90426 0.66489 0.0
H695 H 0.69518 0.91006 0.77577 0.0
H696 H 0.06972 0.30723 0.15324 0.0
H697 H 0.03645 0.30503 0.10237 0.0
H698 H 0.05452 0.35268 0.977 0.0
H699 H 0.08784 0.35489 0.02694 0.0
H700 H 0.00688 0.33641 0.08544 0.0
H701 H 0.03557 0.3058 0.86435 0.0
H702 H 0.05067 0.30554 0.93362 0.0
H703 H 0.04836 0.32861 0.8894 0.0
C704 C 0.06663 0.31723 0.11476 0.0
C705 C 0.08143 0.33119 0.09393 0.0
C706 C 0.04763 0.31595 0.08588 0.0
C707 C 0.04321 0.32848 0.03551 0.0
C708 C 0.05782 0.34263 0.01517 0.0
H709 H 0.94441 0.35402 0.79247 0.0
H710 H 0.97601 0.35224 0.85141 0.0
C711 C 0.0768 0.34395 0.04402 0.0
C712 C 0.02321 0.32704 0.00451 0.0
H713 H 0.00117 0.31769 0.86572 0.0
C714 C 0.00554 0.33212 0.03758 0.0
C715 C 0.02163 0.32135 0.94221 0.0
C716 C 0.04003 0.31482 0.90537 0.0
C717 C 0.98631 0.33249 0.00913 0.0
C718 C 0.98482 0.32732 0.94638 0.0
C719 C 0.00244 0.32172 0.91381 0.0
C720 C 0.9653 0.32853 0.91262 0.0
C721 C 0.96789 0.33912 0.04572 0.0
C722 C 0.94883 0.31573 0.9276 0.0
C723 C 0.93067 0.31673 0.89401 0.0
C724 C 0.9288 0.33046 0.84472 0.0
C725 C 0.94534 0.34327 0.8301 0.0
C726 C 0.96343 0.34227 0.86366 0.0
H727 H 0.97229 0.34661 0.08947 0.0
H728 H 0.9583 0.34986 0.01883 0.0
H729 H 0.95845 0.32552 0.0568 0.0
H730 H 0.95013 0.30481 0.96468 0.0
H731 H 0.91819 0.30665 0.90634 0.0
H732 H 0.66653 0.91212 0.18514 0.0
H733 H 0.66403 0.94376 0.24477 0.0
H734 H 0.67228 0.979 0.07922 0.0
H735 H 0.67334 0.94745 0.01928 0.0
H736 H 0.68816 0.9734 0.26789 0.0
H737 H 0.6227 0.00594 0.1417 0.0
H738 H 0.6313 0.98011 0.12937 0.0
H739 H 0.64352 0.00116 0.09044 0.0
C740 C 0.66771 0.92668 0.16168 0.0
C741 C 0.66984 0.92749 0.09772 0.0
C742 C 0.6663 0.94472 0.19567 0.0
C743 C 0.66738 0.96381 0.16631 0.0
C744 C 0.67053 0.96452 0.10265 0.0
H745 H 0.69506 0.07806 0.35076 0.0
H746 H 0.69645 0.04472 0.30005 0.0
C747 C 0.67134 0.94651 0.06849 0.0
C748 C 0.6655 0.98298 0.20222 0.0
H749 H 0.64168 0.02932 0.2041 0.0
C750 C 0.67782 0.98554 0.25436 0.0
C751 C 0.65166 -0.00134 0.18556 0.0
C752 C 0.6364 0.99622 0.13415 0.0
C753 C 0.67703 0.00351 0.28941 0.0
C754 C 0.6643 0.01978 0.27002 0.0
C755 C 0.65168 0.01702 0.21863 0.0
C756 C 0.66368 0.03979 0.30204 0.0
C757 C 0.68952 0.00456 0.34749 0.0
C758 C 0.64479 0.04857 0.31779 0.0
C759 C 0.64397 0.06795 0.34443 0.0
C760 C 0.66204 0.07867 0.35705 0.0
C761 C 0.68095 0.06987 0.34217 0.0
C762 C 0.68174 0.05075 0.31378 0.0
H763 H 0.69221 0.98907 0.36676 0.0
H764 H 0.70468 0.01133 0.33705 0.0
H765 H 0.68191 0.01404 0.383 0.0
H766 H 0.63063 0.04049 0.30911 0.0
H767 H 0.62922 0.07445 0.35578 0.0
H768 H 0.05519 0.64188 0.30868 0.0
H769 H 0.02319 0.64322 0.36595 0.0
H770 H 0.04812 0.69015 0.48291 0.0
H771 H 0.08029 0.68906 0.42552 0.0
H772 H 0.01707 0.63704 0.4949 0.0
H773 H 0.99383 0.71467 0.41672 0.0
H774 H 0.01336 0.69999 0.37819 0.0
H775 H 0.01893 0.7124 0.44964 0.0
C776 C 0.05392 0.65251 0.34655 0.0
C777 C 0.07023 0.66548 0.36228 0.0
C778 C 0.03563 0.65322 0.37924 0.0
C779 C 0.03327 0.66694 0.42804 0.0
C780 C 0.04959 0.67969 0.44469 0.0
H781 H 0.92401 0.69127 0.64595 0.0
H782 H 0.95886 0.69166 0.60537 0.0
C783 C 0.06796 0.67898 0.412 0.0
C784 C 0.01362 0.66777 0.46116 0.0
H785 H 0.97161 0.69764 0.48459 0.0
C786 C 0.00714 0.65031 0.49299 0.0
C787 C 0.00083 0.68516 0.45861 0.0
C788 C 0.00693 0.70411 0.42366 0.0
C789 C 0.98804 0.64969 0.52199 0.0
C790 C 0.97498 0.66684 0.51786 0.0
C791 C 0.98168 0.68451 0.48742 0.0
C792 C 0.95398 0.66648 0.54277 0.0
C793 C 0.98204 0.63069 0.55689 0.0
C794 C 0.93967 0.65239 0.52021 0.0
C795 C 0.91979 0.6521 0.54327 0.0
C796 C 0.91382 0.66601 0.58898 0.0
C797 C 0.92813 0.68032 0.61085 0.0
C798 C 0.94804 0.68057 0.58778 0.0
H799 H 0.99564 0.62161 0.57055 0.0
H800 H 0.97317 0.6346 0.59868 0.0
H801 H 0.97234 0.62092 0.5272 0.0
H802 H 0.94386 0.64171 0.48442 0.0
H803 H 0.9091 0.64099 0.52512 0.0
H804 H 0.30766 0.91105 0.82311 0.0
H805 H 0.30676 0.94327 0.76601 0.0
H806 H 0.35389 0.9678 0.88298 0.0
H807 H 0.35504 0.93574 0.93997 0.0
H808 H 0.29832 0.98267 0.81521 0.0
H809 H 0.37522 0.97908 0.70862 0.0
H810 H 0.3627 0.95691 0.74066 0.0
H811 H 0.37529 0.97497 0.78999 0.0
C812 C 0.31792 0.92326 0.83644 0.0
C813 C 0.33144 0.92085 0.88605 0.0
C814 C 0.31738 0.94163 0.80378 0.0
C815 C 0.33045 0.95775 0.81987 0.0
C816 C 0.34396 0.95537 0.86919 0.0
H817 H 0.35162 0.08301 0.72585 0.0
H818 H 0.35098 0.04855 0.76893 0.0
C819 C 0.3445 0.93707 0.9019 0.0
C820 C 0.32942 0.97746 0.78705 0.0
H821 H 0.35831 0.01137 0.70581 0.0
C822 C 0.31132 0.98889 0.79062 0.0
C823 C 0.34645 0.98544 0.75519 0.0
C824 C 0.36597 0.9734 0.74778 0.0
C825 C 0.31006 0.00852 0.76504 0.0
C826 C 0.32726 0.01668 0.73438 0.0
C827 C 0.34519 0.00505 0.72963 0.0
C828 C 0.32721 0.03753 0.70848 0.0
C829 C 0.29063 0.02066 0.77294 0.0
C830 C 0.31409 0.04265 0.66004 0.0
C831 C 0.31438 0.06234 0.63533 0.0
C832 C 0.3279 0.07717 0.65847 0.0
C833 C 0.34104 0.07194 0.70693 0.0
C834 C 0.34072 0.05227 0.7316 0.0
H835 H 0.28056 0.01402 0.80881 0.0
H836 H 0.2941 0.03676 0.78529 0.0
H837 H 0.28206 0.02072 0.72905 0.0
H838 H 0.30379 0.03135 0.64095 0.0
H839 H 0.30413 0.06587 0.59781 0.0
H840 H 0.1132 0.41271 0.31823 0.0
H841 H 0.11453 0.44997 0.32502 0.0
H842 H 0.16751 0.45061 0.20739 0.0
H843 H 0.16568 0.41347 0.19771 0.0
H844 H 0.14454 0.47544 0.36734 0.0
H845 H 0.12963 0.49015 0.12077 0.0
H846 H 0.12609 0.46532 0.15519 0.0
H847 H 0.15127 0.47393 0.13444 0.0
C848 C 0.12498 0.42077 0.29313 0.0
C849 C 0.1392 0.41009 0.25686 0.0
C850 C 0.12582 0.44205 0.29751 0.0
C851 C 0.14088 0.45305 0.26577 0.0
C852 C 0.15548 0.44243 0.23113 0.0
H853 H 0.16878 0.58292 0.24534 0.0
H854 H 0.17023 0.54556 0.24029 0.0
C855 C 0.15458 0.42117 0.22637 0.0
C856 C 0.14128 0.47564 0.2691 0.0
H857 H 0.13845 0.51886 0.18175 0.0
C858 C 0.14317 0.48494 0.32681 0.0
C859 C 0.13944 0.48797 0.21606 0.0
C860 C 0.1363 0.47887 0.15317 0.0
C861 C 0.14342 0.50628 0.33285 0.0
C862 C 0.14164 0.51854 0.27986 0.0
C863 C 0.13992 0.5093 0.22214 0.0
C864 C 0.14086 0.54103 0.2836 0.0
C865 C 0.14571 0.51562 0.39569 0.0
C866 C 0.12374 0.55071 0.30894 0.0
C867 C 0.12271 0.572 0.31116 0.0
C868 C 0.13883 0.584 0.28817 0.0
C869 C 0.15598 0.57417 0.26272 0.0
C870 C 0.15692 0.55285 0.26017 0.0
H871 H 0.15087 0.50425 0.43017 0.0
H872 H 0.1568 0.52848 0.39456 0.0
H873 H 0.13075 0.52183 0.41072 0.0
H874 H 0.11105 0.54177 0.32632 0.0
H875 H 0.10911 0.57905 0.32998 0.0
H876 H 0.57959 0.10777 0.5679 0.0
H877 H 0.54231 0.10736 0.56642 0.0
H878 H 0.54214 0.1601 0.44778 0.0
H879 H 0.57931 0.15972 0.44514 0.0
H880 H 0.51488 0.13416 0.6034 0.0
H881 H 0.5056 0.12254 0.35364 0.0
H882 H 0.53 0.1202 0.39136 0.0
H883 H 0.52024 0.145 0.37066 0.0
C884 C 0.57167 0.11908 0.54058 0.0
C885 C 0.58256 0.13364 0.50609 0.0
C886 C 0.55033 0.11894 0.54028 0.0
C887 C 0.53944 0.13342 0.50588 0.0
C888 C 0.55021 0.14842 0.47326 0.0
H889 H 0.41096 0.16074 0.56198 0.0
H890 H 0.44817 0.16142 0.55881 0.0
C891 C 0.57153 0.14839 0.47274 0.0
C892 C 0.51681 0.13301 0.50491 0.0
H893 H 0.47562 0.13193 0.40906 0.0
C894 C 0.50629 0.13355 0.56093 0.0
C895 C 0.50562 0.13185 0.44948 0.0
C896 C 0.51595 0.12964 0.38796 0.0
C897 C 0.48487 0.13325 0.56308 0.0
C898 C 0.47369 0.13315 0.50755 0.0
C899 C 0.48421 0.13231 0.45156 0.0
C900 C 0.45105 0.13345 0.50646 0.0
C901 C 0.47453 0.13257 0.62491 0.0
C902 C 0.44026 0.11812 0.47523 0.0
C903 C 0.41893 0.11804 0.47519 0.0
C904 C 0.40794 0.13322 0.50687 0.0
C905 C 0.41885 0.14887 0.53673 0.0
C906 C 0.44017 0.1491 0.53592 0.0
H907 H 0.48488 0.12637 0.66076 0.0
H908 H 0.4702 0.1483 0.63872 0.0
H909 H 0.46049 0.12303 0.62357 0.0
H910 H 0.44835 0.10603 0.4515 0.0
H911 H 0.4111 0.10603 0.4504 0.0
H912 H 0.88241 0.58577 0.8112 0.0
H913 H 0.88222 0.5485 0.8192 0.0
H914 H 0.83089 0.54565 0.69552 0.0
H915 H 0.83163 0.58275 0.68459 0.0
H916 H 0.85263 0.52197 0.85856 0.0
H917 H 0.87132 0.50745 0.61431 0.0
H918 H 0.8735 0.53244 0.64869 0.0
H919 H 0.84897 0.52295 0.62462 0.0
C920 C 0.87124 0.57722 0.78506 0.0
C921 C 0.85718 0.58726 0.7467 0.0
C922 C 0.87105 0.55594 0.79013 0.0
C923 C 0.8568 0.54433 0.75704 0.0
C924 C 0.84231 0.55431 0.72037 0.0
H925 H 0.83052 0.41467 0.73419 0.0
H926 H 0.82882 0.45202 0.73161 0.0
C927 C 0.84259 0.57555 0.71486 0.0
C928 C 0.85713 0.52176 0.76074 0.0
H929 H 0.86188 0.47858 0.67401 0.0
C930 C 0.85473 0.51247 0.81829 0.0
C931 C 0.85996 0.50945 0.70805 0.0
C932 C 0.86378 0.51856 0.64552 0.0
C933 C 0.8548 0.49113 0.8244 0.0
C934 C 0.85738 0.4789 0.77166 0.0
C935 C 0.85975 0.48813 0.71418 0.0
C936 C 0.85815 0.45643 0.77526 0.0
C937 C 0.85193 0.48172 0.88691 0.0
C938 C 0.87529 0.44671 0.80026 0.0
C939 C 0.87649 0.42541 0.80097 0.0
C940 C 0.8605 0.41348 0.77682 0.0
C941 C 0.84324 0.42337 0.75227 0.0
C942 C 0.84215 0.44468 0.75118 0.0
H943 H 0.84683 0.49313 0.92141 0.0
H944 H 0.84054 0.46914 0.8848 0.0
H945 H 0.86663 0.47507 0.90254 0.0
H946 H 0.8879 0.45562 0.81822 0.0
H947 H 0.89013 0.41832 0.81929 0.0
H948 H 0.58572 0.85739 0.9077 0.0
H949 H 0.54859 0.85449 0.89593 0.0
H950 H 0.54141 0.85598 0.09227 0.0
H951 H 0.57843 0.85839 0.1047 0.0
H952 H 0.52099 0.82346 0.95162 0.0
H953 H 0.50481 0.90348 0.02278 0.0
H954 H 0.52972 0.89527 0.99693 0.0
H955 H 0.52121 0.88912 0.07296 0.0
C956 C 0.57626 0.8569 0.94839 0.0
C957 C 0.58503 0.85831 0.00713 0.0
C958 C 0.55508 0.85533 0.94154 0.0
C959 C 0.54237 0.85529 0.99322 0.0
C960 C 0.55103 0.85633 0.05186 0.0
H961 H 0.41272 0.85627 0.06116 0.0
H962 H 0.44996 0.85552 0.06813 0.0
C963 C 0.57217 0.85781 0.0588 0.0
C964 C 0.51997 0.85426 0.98611 0.0
H965 H 0.47635 0.88163 0.00971 0.0
C966 C 0.51117 0.83617 0.96395 0.0
C967 C 0.50735 0.87091 0.00241 0.0
C968 C 0.51618 0.89089 0.02468 0.0
C969 C 0.48988 0.83408 0.9591 0.0
C970 C 0.47722 0.85072 0.97571 0.0
C971 C 0.48611 0.86888 0.99726 0.0
C972 C 0.45469 0.84969 0.97154 0.0
C973 C 0.48113 0.81394 0.93793 0.0
C974 C 0.44503 0.8466 0.91492 0.0
C975 C 0.42373 0.84678 0.91087 0.0
C976 C 0.41171 0.85028 0.96334 0.0
C977 C 0.42149 0.85322 0.02005 0.0
C978 C 0.44277 0.85295 0.02406 0.0
H979 H 0.49234 0.80129 0.94282 0.0
H980 H 0.46714 0.80997 0.96416 0.0
H981 H 0.47696 0.81512 0.88877 0.0
H982 H 0.45396 0.84443 0.87363 0.0
H983 H 0.41668 0.84426 0.8666 0.0
loop_
_geom_bond_atom_site_label_1
_geom_bond_atom_site_label_2
_geom_bond_distance
_geom_bond_site_symmetry_2
_ccdc_geom_bond_type
Co0 N4 2.148 . S
Co0 N10 2.128 . S
Co0 N20 2.194 . S
Co0 O25 2.351 . S
Co0 O26 2.155 . S
Co0 O27 2.096 . S
C1 N4 1.301 . S
C1 N5 1.328 . S
C1 H6 0.930 . S
C2 C3 1.333 . S
C2 N4 1.317 . S
C2 H7 0.930 . S
C3 C2 1.333 . S
C3 N5 1.350 . S
C3 H29 0.931 . S
N4 Co0 2.148 . S
N4 C1 1.301 . S
N4 C2 1.317 . S
N5 C1 1.328 . S
N5 C3 1.350 . S
H6 C1 0.930 . S
H7 C2 0.930 . S
C8 O9 1.224 . S
C8 O27 1.247 . S
O9 C8 1.224 . S
N10 Co0 2.128 . S
N10 C11 1.355 . S
N10 C13 1.311 . S
C11 N10 1.355 . S
C11 C12 1.363 . S
C11 H23 0.929 . S
C12 C11 1.363 . S
C12 N14 1.375 . S
C12 H30 0.931 . S
C13 N10 1.311 . S
C13 N14 1.347 . S
C13 H24 0.929 . S
N14 C12 1.375 . S
N14 C13 1.347 . S
C15 C18 1.365 . S
C15 N20 1.328 . S
C15 H21 0.929 . S
C16 C17 1.362 . S
C16 C19 1.378 . S
C16 H31 0.929 . S
C17 C16 1.362 . S
C17 C18 1.366 . S
C18 C15 1.365 . S
C18 C17 1.366 . S
C18 H32 0.930 . S
C19 C16 1.378 . S
C19 N20 1.315 . S
C19 H22 0.930 . S
N20 Co0 2.194 . S
N20 C15 1.328 . S
N20 C19 1.315 . S
H21 C15 0.929 . S
H22 C19 0.930 . S
H23 C11 0.929 . S
H24 C13 0.929 . S
O25 Co0 2.351 . S
O25 C28 1.244 . S
O26 Co0 2.155 . S
O26 C28 1.240 . S
O27 Co0 2.096 . S
O27 C8 1.247 . S
C28 O25 1.244 . S
C28 O26 1.240 . S
H29 C3 0.931 . S
H30 C12 0.931 . S
H31 C16 0.929 . S
H32 C18 0.930 . S
Co33 N37 2.148 . S
Co33 N43 2.128 . S
Co33 N53 2.194 . S
Co33 O58 2.351 . S
Co33 O59 2.155 . S
Co33 O60 2.096 . S
C34 N37 1.301 . S
C34 N38 1.328 . S
C34 H39 0.930 . S
C35 C36 1.333 . S
C35 N37 1.317 . S
C35 H40 0.930 . S
C36 C35 1.333 . S
C36 N38 1.350 . S
C36 H62 0.931 . S
N37 Co33 2.148 . S
N37 C34 1.301 . S
N37 C35 1.317 . S
N38 C34 1.328 . S
N38 C36 1.350 . S
H39 C34 0.930 . S
H40 C35 0.930 . S
C41 O42 1.224 . S
C41 O60 1.247 . S
O42 C41 1.224 . S
N43 Co33 2.128 . S
N43 C44 1.355 . S
N43 C46 1.311 . S
C44 N43 1.355 . S
C44 C45 1.363 . S
C44 H56 0.929 . S
C45 C44 1.363 . S
C45 N47 1.375 . S
C45 H63 0.931 . S
C46 N43 1.311 . S
C46 N47 1.347 . S
C46 H57 0.929 . S
N47 C45 1.375 . S
N47 C46 1.347 . S
C48 C51 1.365 . S
C48 N53 1.328 . S
C48 H54 0.929 . S
C49 C50 1.362 . S
C49 C52 1.378 . S
C49 H64 0.929 . S
C50 C49 1.362 . S
C50 C51 1.366 . S
C51 C48 1.365 . S
C51 C50 1.366 . S
C51 H65 0.930 . S
C52 C49 1.378 . S
C52 N53 1.315 . S
C52 H55 0.930 . S
N53 Co33 2.194 . S
N53 C48 1.328 . S
N53 C52 1.315 . S
H54 C48 0.929 . S
H55 C52 0.930 . S
H56 C44 0.929 . S
H57 C46 0.929 . S
O58 Co33 2.351 . S
O58 C61 1.244 . S
O59 Co33 2.155 . S
O59 C61 1.240 . S
O60 Co33 2.096 . S
O60 C41 1.247 . S
C61 O58 1.244 . S
C61 O59 1.240 . S
H62 C36 0.931 . S
H63 C45 0.931 . S
H64 C49 0.929 . S
H65 C51 0.930 . S
Co66 N70 2.148 . S
Co66 N76 2.128 . S
Co66 N86 2.194 . S
Co66 O91 2.351 . S
Co66 O92 2.155 . S
Co66 O93 2.096 . S
C67 N70 1.301 . S
C67 N71 1.328 . S
C67 H72 0.930 . S
C68 C69 1.333 . S
C68 N70 1.317 . S
C68 H73 0.930 . S
C69 C68 1.333 . S
C69 N71 1.350 . S
C69 H95 0.931 . S
N70 Co66 2.148 . S
N70 C67 1.301 . S
N70 C68 1.317 . S
N71 C67 1.328 . S
N71 C69 1.350 . S
H72 C67 0.930 . S
H73 C68 0.930 . S
C74 O75 1.224 . S
C74 O93 1.247 . S
O75 C74 1.224 . S
N76 Co66 2.128 . S
N76 C77 1.355 . S
N76 C79 1.311 . S
C77 N76 1.355 . S
C77 C78 1.363 . S
C77 H89 0.929 . S
C78 C77 1.363 . S
C78 N80 1.375 . S
C78 H96 0.931 . S
C79 N76 1.311 . S
C79 N80 1.347 . S
C79 H90 0.929 . S
N80 C78 1.375 . S
N80 C79 1.347 . S
C81 C84 1.365 . S
C81 N86 1.328 . S
C81 H87 0.929 . S
C82 C83 1.362 . S
C82 C85 1.378 . S
C82 H97 0.929 . S
C83 C82 1.362 . S
C83 C84 1.366 . S
C84 C81 1.365 . S
C84 C83 1.366 . S
C84 H98 0.930 . S
C85 C82 1.378 . S
C85 N86 1.315 . S
C85 H88 0.930 . S
N86 Co66 2.194 . S
N86 C81 1.328 . S
N86 C85 1.315 . S
H87 C81 0.929 . S
H88 C85 0.930 . S
H89 C77 0.929 . S
H90 C79 0.929 . S
O91 Co66 2.351 . S
O91 C94 1.244 . S
O92 Co66 2.155 . S
O92 C94 1.240 . S
O93 Co66 2.096 . S
O93 C74 1.247 . S
C94 O91 1.244 . S
C94 O92 1.240 . S
H95 C69 0.931 . S
H96 C78 0.931 . S
H97 C82 0.929 . S
H98 C84 0.930 . S
Co99 N103 2.148 1_556 S
Co99 N109 2.128 . S
Co99 N119 2.194 . S
Co99 O124 2.351 . S
Co99 O125 2.155 . S
Co99 O126 2.096 . S
C100 N103 1.301 . S
C100 N104 1.328 . S
C100 H105 0.930 . S
C101 C102 1.333 . S
C101 N103 1.317 . S
C101 H106 0.930 . S
C102 C101 1.333 . S
C102 N104 1.350 . S
C102 H128 0.931 . S
N103 Co99 2.148 1_554 S
N103 C100 1.301 . S
N103 C101 1.317 . S
N104 C100 1.328 . S
N104 C102 1.350 . S
H105 C100 0.930 . S
H106 C101 0.930 . S
C107 O108 1.224 . S
C107 O126 1.247 . S
O108 C107 1.224 . S
N109 Co99 2.128 . S
N109 C110 1.355 . S
N109 C112 1.311 . S
C110 N109 1.355 . S
C110 C111 1.363 . S
C110 H122 0.929 . S
C111 C110 1.363 . S
C111 N113 1.375 . S
C111 H129 0.931 . S
C112 N109 1.311 . S
C112 N113 1.347 . S
C112 H123 0.929 . S
N113 C111 1.375 . S
N113 C112 1.347 . S
C114 C117 1.365 . S
C114 N119 1.328 . S
C114 H120 0.929 1_556 S
C115 C116 1.362 . S
C115 C118 1.378 . S
C115 H130 0.929 . S
C116 C115 1.362 . S
C116 C117 1.366 . S
C117 C114 1.365 . S
C117 C116 1.366 . S
C117 H131 0.930 1_556 S
C118 C115 1.378 . S
C118 N119 1.315 . S
C118 H121 0.930 . S
N119 Co99 2.194 . S
N119 C114 1.328 . S
N119 C118 1.315 . S
H120 C114 0.929 1_554 S
H121 C118 0.930 . S
H122 C110 0.929 . S
H123 C112 0.929 . S
O124 Co99 2.351 . S
O124 C127 1.244 . S
O125 Co99 2.155 . S
O125 C127 1.240 . S
O126 Co99 2.096 . S
O126 C107 1.247 . S
C127 O124 1.244 . S
C127 O125 1.240 . S
H128 C102 0.931 . S
H129 C111 0.931 . S
H130 C115 0.929 . S
H131 C117 0.930 1_554 S
Co132 N136 2.148 . S
Co132 N142 2.128 . S
Co132 N152 2.194 . S
Co132 O157 2.351 . S
Co132 O158 2.155 . S
Co132 O159 2.096 . S
C133 N136 1.301 . S
C133 N137 1.328 . S
C133 H138 0.930 . S
C134 C135 1.333 . S
C134 N136 1.317 . S
C134 H139 0.930 . S
C135 C134 1.333 . S
C135 N137 1.350 . S
C135 H161 0.931 . S
N136 Co132 2.148 . S
N136 C133 1.301 . S
N136 C134 1.317 . S
N137 C133 1.328 . S
N137 C135 1.350 . S
H138 C133 0.930 . S
H139 C134 0.930 . S
C140 O141 1.224 . S
C140 O159 1.247 . S
O141 C140 1.224 . S
N142 Co132 2.128 . S
N142 C143 1.355 . S
N142 C145 1.311 . S
C143 N142 1.355 . S
C143 C144 1.363 . S
C143 H155 0.929 . S
C144 C143 1.363 . S
C144 N146 1.375 . S
C144 H162 0.931 . S
C145 N142 1.311 . S
C145 N146 1.347 . S
C145 H156 0.929 . S
N146 C144 1.375 . S
N146 C145 1.347 . S
C147 C150 1.365 . S
C147 N152 1.328 . S
C147 H153 0.929 . S
C148 C149 1.362 . S
C148 C151 1.378 . S
C148 H163 0.929 . S
C149 C148 1.362 . S
C149 C150 1.366 . S
C150 C147 1.365 . S
C150 C149 1.366 . S
C150 H164 0.930 . S
C151 C148 1.378 . S
C151 N152 1.315 . S
C151 H154 0.930 . S
N152 Co132 2.194 . S
N152 C147 1.328 . S
N152 C151 1.315 . S
H153 C147 0.929 . S
H154 C151 0.930 . S
H155 C143 0.929 . S
H156 C145 0.929 . S
O157 Co132 2.351 . S
O157 C160 1.244 . S
O158 Co132 2.155 . S
O158 C160 1.240 . S
O159 Co132 2.096 . S
O159 C140 1.247 . S
C160 O157 1.244 . S
C160 O158 1.240 . S
H161 C135 0.931 . S
H162 C144 0.931 . S
H163 C148 0.929 . S
H164 C150 0.930 . S
Co165 N169 2.148 . S
Co165 N175 2.128 . S
Co165 N185 2.194 . S
Co165 O190 2.351 . S
Co165 O191 2.155 . S
Co165 O192 2.096 . S
C166 N169 1.301 . S
C166 N170 1.328 . S
C166 H171 0.930 . S
C167 C168 1.333 . S
C167 N169 1.317 . S
C167 H172 0.930 . S
C168 C167 1.333 . S
C168 N170 1.350 . S
C168 H194 0.931 . S
N169 Co165 2.148 . S
N169 C166 1.301 . S
N169 C167 1.317 . S
N170 C166 1.328 . S
N170 C168 1.350 . S
H171 C166 0.930 . S
H172 C167 0.930 . S
C173 O174 1.224 . S
C173 O192 1.247 . S
O174 C173 1.224 . S
N175 Co165 2.128 . S
N175 C176 1.355 . S
N175 C178 1.311 . S
C176 N175 1.355 . S
C176 C177 1.363 . S
C176 H188 0.929 . S
C177 C176 1.363 . S
C177 N179 1.375 . S
C177 H195 0.931 . S
C178 N175 1.311 . S
C178 N179 1.347 . S
C178 H189 0.929 . S
N179 C177 1.375 . S
N179 C178 1.347 . S
C180 C183 1.365 . S
C180 N185 1.328 . S
C180 H186 0.929 . S
C181 C182 1.362 . S
C181 C184 1.378 . S
C181 H196 0.929 . S
C182 C181 1.362 . S
C182 C183 1.366 . S
C183 C180 1.365 . S
C183 C182 1.366 . S
C183 H197 0.930 . S
C184 C181 1.378 . S
C184 N185 1.315 . S
C184 H187 0.930 . S
N185 Co165 2.194 . S
N185 C180 1.328 . S
N185 C184 1.315 . S
H186 C180 0.929 . S
H187 C184 0.930 . S
H188 C176 0.929 . S
H189 C178 0.929 . S
O190 Co165 2.351 . S
O190 C193 1.244 . S
O191 Co165 2.155 . S
O191 C193 1.240 . S
O192 Co165 2.096 . S
O192 C173 1.247 . S
C193 O190 1.244 . S
C193 O191 1.240 . S
H194 C168 0.931 . S
H195 C177 0.931 . S
H196 C181 0.929 . S
H197 C183 0.930 . S
Co198 N202 2.148 . S
Co198 N208 2.128 . S
Co198 N218 2.194 . S
Co198 O223 2.351 . S
Co198 O224 2.155 . S
Co198 O225 2.096 . S
C199 N202 1.301 . S
C199 N203 1.328 . S
C199 H204 0.930 . S
C200 C201 1.333 . S
C200 N202 1.317 . S
C200 H205 0.930 . S
C201 C200 1.333 . S
C201 N203 1.350 . S
C201 H227 0.931 . S
N202 Co198 2.148 . S
N202 C199 1.301 . S
N202 C200 1.317 . S
N203 C199 1.328 . S
N203 C201 1.350 . S
H204 C199 0.930 . S
H205 C200 0.930 . S
C206 O207 1.224 . S
C206 O225 1.247 . S
O207 C206 1.224 . S
N208 Co198 2.128 . S
N208 C209 1.355 . S
N208 C211 1.311 . S
C209 N208 1.355 . S
C209 C210 1.363 . S
C209 H221 0.929 . S
C210 C209 1.363 . S
C210 N212 1.375 . S
C210 H228 0.931 . S
C211 N208 1.311 . S
C211 N212 1.347 . S
C211 H222 0.929 . S
N212 C210 1.375 . S
N212 C211 1.347 . S
C213 C216 1.365 . S
C213 N218 1.328 . S
C213 H219 0.929 . S
C214 C215 1.362 . S
C214 C217 1.378 . S
C214 H229 0.929 . S
C215 C214 1.362 . S
C215 C216 1.366 . S
C216 C213 1.365 . S
C216 C215 1.366 . S
C216 H230 0.930 . S
C217 C214 1.378 . S
C217 N218 1.315 . S
C217 H220 0.930 . S
N218 Co198 2.194 . S
N218 C213 1.328 . S
N218 C217 1.315 . S
H219 C213 0.929 . S
H220 C217 0.930 . S
H221 C209 0.929 . S
H222 C211 0.929 . S
O223 Co198 2.351 . S
O223 C226 1.244 . S
O224 Co198 2.155 . S
O224 C226 1.240 . S
O225 Co198 2.096 . S
O225 C206 1.247 . S
C226 O223 1.244 . S
C226 O224 1.240 . S
H227 C201 0.931 . S
H228 C210 0.931 . S
H229 C214 0.929 . S
H230 C216 0.930 . S
Co231 N235 2.148 1_554 S
Co231 N241 2.128 . S
Co231 N251 2.194 . S
Co231 O256 2.351 . S
Co231 O257 2.155 . S
Co231 O258 2.096 . S
C232 N235 1.301 . S
C232 N236 1.328 . S
C232 H237 0.930 . S
C233 C234 1.333 . S
C233 N235 1.317 . S
C233 H238 0.930 . S
C234 C233 1.333 . S
C234 N236 1.350 . S
C234 H260 0.931 . S
N235 Co231 2.148 1_556 S
N235 C232 1.301 . S
N235 C233 1.317 . S
N236 C232 1.328 . S
N236 C234 1.350 . S
H237 C232 0.930 . S
H238 C233 0.930 . S
C239 O240 1.224 . S
C239 O258 1.247 . S
O240 C239 1.224 . S
N241 Co231 2.128 . S
N241 C242 1.355 . S
N241 C244 1.311 . S
C242 N241 1.355 . S
C242 C243 1.363 . S
C242 H254 0.929 . S
C243 C242 1.363 . S
C243 N245 1.375 . S
C243 H261 0.931 . S
C244 N241 1.311 . S
C244 N245 1.347 . S
C244 H255 0.929 . S
N245 C243 1.375 . S
N245 C244 1.347 . S
C246 C249 1.365 . S
C246 N251 1.328 . S
C246 H252 0.929 1_554 S
C247 C248 1.362 . S
C247 C250 1.378 . S
C247 H262 0.929 . S
C248 C247 1.362 . S
C248 C249 1.366 . S
C249 C246 1.365 . S
C249 C248 1.366 . S
C249 H263 0.930 1_554 S
C250 C247 1.378 . S
C250 N251 1.315 . S
C250 H253 0.930 . S
N251 Co231 2.194 . S
N251 C246 1.328 . S
N251 C250 1.315 . S
H252 C246 0.929 1_556 S
H253 C250 0.930 . S
H254 C242 0.929 . S
H255 C244 0.929 . S
O256 Co231 2.351 . S
O256 C259 1.244 . S
O257 Co231 2.155 . S
O257 C259 1.240 . S
O258 Co231 2.096 . S
O258 C239 1.247 . S
C259 O256 1.244 . S
C259 O257 1.240 . S
H260 C234 0.931 . S
H261 C243 0.931 . S
H262 C247 0.929 . S
H263 C249 0.930 1_556 S
H264 C272 0.929 . S
H265 C274 0.930 . S
H266 C276 0.930 . S
H267 C279 0.929 . S
H268 C282 0.930 . S
H269 C284 0.960 . S
H270 C284 0.960 . S
H271 C284 0.960 . S
C272 H264 0.929 . S
C272 C273 1.377 . S
C272 C274 1.384 . S
C273 C272 1.377 . S
C273 C279 1.390 . S
C274 H265 0.930 . S
C274 C272 1.384 . S
C274 C275 1.372 . S
C275 C274 1.372 . S
C275 C276 1.400 . S
C275 C280 1.490 . S
C276 H266 0.930 . S
C276 C275 1.400 . S
C276 C279 1.386 . S
H277 C293 0.930 . S
H278 C294 0.931 . S
C279 H267 0.929 . S
C279 C273 1.390 . S
C279 C276 1.386 . S
C280 C275 1.490 . S
C280 C282 1.395 . S
C280 C283 1.403 . S
H281 C287 0.930 . S
C282 H268 0.930 . S
C282 C280 1.395 . S
C282 C285 1.403 . S
C283 C280 1.403 . S
C283 C284 1.524 . S
C283 C287 1.400 . S
C284 H269 0.960 . S
C284 H270 0.960 . S
C284 H271 0.960 . S
C284 C283 1.524 . S
C285 C282 1.403 . S
C285 C286 1.392 . S
C285 C289 1.495 . S
C286 C285 1.392 . S
C286 C287 1.385 . S
C286 C288 1.478 . S
C287 H281 0.930 . S
C287 C283 1.400 . S
C287 C286 1.385 . S
C288 C286 1.478 . S
C288 C290 1.381 . S
C288 C294 1.383 . S
C289 C285 1.495 . S
C289 H295 0.959 . S
C289 H296 0.961 . S
C289 H297 0.960 . S
C290 C288 1.381 . S
C290 C291 1.394 . S
C290 H298 0.930 . S
C291 C290 1.394 . S
C291 C292 1.383 . S
C291 H299 0.929 . S
C292 C291 1.383 . S
C292 C293 1.377 . S
C293 H277 0.930 . S
C293 C292 1.377 . S
C293 C294 1.379 . S
C294 H278 0.931 . S
C294 C288 1.383 . S
C294 C293 1.379 . S
H295 C289 0.959 . S
H296 C289 0.961 . S
H297 C289 0.960 . S
H298 C290 0.930 . S
H299 C291 0.929 . S
H300 C308 0.929 . S
H301 C310 0.930 . S
H302 C312 0.930 . S
H303 C315 0.929 . S
H304 C318 0.930 . S
H305 C320 0.960 . S
H306 C320 0.960 . S
H307 C320 0.960 . S
C308 H300 0.929 . S
C308 C309 1.377 . S
C308 C310 1.384 . S
C309 C308 1.377 . S
C309 C315 1.390 . S
C310 H301 0.930 . S
C310 C308 1.384 . S
C310 C311 1.372 . S
C311 C310 1.372 . S
C311 C312 1.400 . S
C311 C316 1.490 . S
C312 H302 0.930 . S
C312 C311 1.400 . S
C312 C315 1.386 . S
H313 C329 0.930 . S
H314 C330 0.931 . S
C315 H303 0.929 . S
C315 C309 1.390 . S
C315 C312 1.386 . S
C316 C311 1.490 . S
C316 C318 1.395 . S
C316 C319 1.403 . S
H317 C323 0.930 . S
C318 H304 0.930 . S
C318 C316 1.395 . S
C318 C321 1.403 . S
C319 C316 1.403 . S
C319 C320 1.524 . S
C319 C323 1.400 . S
C320 H305 0.960 . S
C320 H306 0.960 . S
C320 H307 0.960 . S
C320 C319 1.524 . S
C321 C318 1.403 . S
C321 C322 1.392 . S
C321 C325 1.495 . S
C322 C321 1.392 . S
C322 C323 1.385 . S
C322 C324 1.478 . S
C323 H317 0.930 . S
C323 C319 1.400 . S
C323 C322 1.385 . S
C324 C322 1.478 . S
C324 C326 1.381 . S
C324 C330 1.383 . S
C325 C321 1.495 . S
C325 H331 0.959 . S
C325 H332 0.961 . S
C325 H333 0.960 . S
C326 C324 1.381 . S
C326 C327 1.394 . S
C326 H334 0.930 . S
C327 C326 1.394 . S
C327 C328 1.383 . S
C327 H335 0.929 . S
C328 C327 1.383 . S
C328 C329 1.377 . S
C329 H313 0.930 . S
C329 C328 1.377 . S
C329 C330 1.379 . S
C330 H314 0.931 . S
C330 C324 1.383 . S
C330 C329 1.379 . S
H331 C325 0.959 . S
H332 C325 0.961 . S
H333 C325 0.960 . S
H334 C326 0.930 . S
H335 C327 0.929 . S
H336 C344 0.929 . S
H337 C346 0.930 . S
H338 C348 0.930 . S
H339 C351 0.929 . S
H340 C354 0.930 . S
H341 C356 0.960 . S
H342 C356 0.960 . S
H343 C356 0.960 . S
C344 H336 0.929 . S
C344 C345 1.377 . S
C344 C346 1.384 . S
C345 C344 1.377 . S
C345 C351 1.390 . S
C346 H337 0.930 . S
C346 C344 1.384 . S
C346 C347 1.372 . S
C347 C346 1.372 . S
C347 C348 1.400 . S
C347 C352 1.490 . S
C348 H338 0.930 . S
C348 C347 1.400 . S
C348 C351 1.386 . S
H349 C365 0.930 . S
H350 C366 0.931 . S
C351 H339 0.929 . S
C351 C345 1.390 . S
C351 C348 1.386 . S
C352 C347 1.490 . S
C352 C354 1.395 . S
C352 C355 1.403 . S
H353 C359 0.930 . S
C354 H340 0.930 . S
C354 C352 1.395 . S
C354 C357 1.403 . S
C355 C352 1.403 . S
C355 C356 1.524 . S
C355 C359 1.400 . S
C356 H341 0.960 . S
C356 H342 0.960 . S
C356 H343 0.960 . S
C356 C355 1.524 . S
C357 C354 1.403 . S
C357 C358 1.392 . S
C357 C361 1.495 1_556 S
C358 C357 1.392 . S
C358 C359 1.385 . S
C358 C360 1.478 . S
C359 H353 0.930 . S
C359 C355 1.400 . S
C359 C358 1.385 . S
C360 C358 1.478 . S
C360 C362 1.381 . S
C360 C366 1.383 . S
C361 C357 1.495 1_554 S
C361 H367 0.959 . S
C361 H368 0.961 . S
C361 H369 0.960 . S
C362 C360 1.381 . S
C362 C363 1.394 1_556 S
C362 H370 0.930 . S
C363 C362 1.394 1_554 S
C363 C364 1.383 . S
C363 H371 0.929 . S
C364 C363 1.383 . S
C364 C365 1.377 1_554 S
C365 H349 0.930 . S
C365 C364 1.377 1_556 S
C365 C366 1.379 . S
C366 H350 0.931 . S
C366 C360 1.383 . S
C366 C365 1.379 . S
H367 C361 0.959 . S
H368 C361 0.961 . S
H369 C361 0.960 . S
H370 C362 0.930 . S
H371 C363 0.929 . S
H372 C380 0.929 . S
H373 C382 0.930 . S
H374 C384 0.930 . S
H375 C387 0.929 . S
H376 C390 0.930 . S
H377 C392 0.960 . S
H378 C392 0.960 . S
H379 C392 0.960 . S
C380 H372 0.929 . S
C380 C381 1.377 . S
C380 C382 1.384 . S
C381 C380 1.377 . S
C381 C387 1.390 . S
C382 H373 0.930 . S
C382 C380 1.384 . S
C382 C383 1.372 . S
C383 C382 1.372 . S
C383 C384 1.400 . S
C383 C388 1.490 . S
C384 H374 0.930 . S
C384 C383 1.400 . S
C384 C387 1.386 . S
H385 C401 0.930 1_556 S
H386 C402 0.931 . S
C387 H375 0.929 . S
C387 C381 1.390 . S
C387 C384 1.386 . S
C388 C383 1.490 . S
C388 C390 1.395 . S
C388 C391 1.403 . S
H389 C395 0.930 . S
C390 H376 0.930 . S
C390 C388 1.395 . S
C390 C393 1.403 . S
C391 C388 1.403 . S
C391 C392 1.524 . S
C391 C395 1.400 . S
C392 H377 0.960 . S
C392 H378 0.960 . S
C392 H379 0.960 . S
C392 C391 1.524 . S
C393 C390 1.403 . S
C393 C394 1.392 . S
C393 C397 1.495 . S
C394 C393 1.392 . S
C394 C395 1.385 . S
C394 C396 1.478 . S
C395 H389 0.930 . S
C395 C391 1.400 . S
C395 C394 1.385 . S
C396 C394 1.478 . S
C396 C398 1.381 . S
C396 C402 1.383 . S
C397 C393 1.495 . S
C397 H403 0.959 . S
C397 H404 0.961 . S
C397 H405 0.960 . S
C398 C396 1.381 . S
C398 C399 1.394 . S
C398 H406 0.930 . S
C399 C398 1.394 . S
C399 C400 1.385 . S
C399 H407 0.929 . S
C400 C399 1.385 . S
C400 C401 1.378 . S
C401 H385 0.930 1_554 S
C401 C400 1.378 . S
C401 C402 1.379 . S
C402 H386 0.931 . S
C402 C396 1.383 . S
C402 C401 1.379 . S
H403 C397 0.959 . S
H404 C397 0.961 . S
H405 C397 0.960 . S
H406 C398 0.930 . S
H407 C399 0.929 . S
H408 C416 0.929 . S
H409 C418 0.930 . S
H410 C420 0.930 . S
H411 C423 0.929 . S
H412 C426 0.930 . S
H413 C428 0.960 . S
H414 C428 0.960 . S
H415 C428 0.960 . S
C416 H408 0.929 . S
C416 C417 1.377 . S
C416 C418 1.384 . S
C417 C416 1.377 . S
C417 C423 1.390 . S
C418 H409 0.930 . S
C418 C416 1.384 . S
C418 C419 1.372 . S
C419 C418 1.372 . S
C419 C420 1.400 . S
C419 C424 1.490 . S
C420 H410 0.930 . S
C420 C419 1.400 . S
C420 C423 1.386 . S
H421 C437 0.930 . S
H422 C438 0.931 . S
C423 H411 0.929 . S
C423 C417 1.390 . S
C423 C420 1.386 . S
C424 C419 1.490 . S
C424 C426 1.395 . S
C424 C427 1.403 . S
H425 C431 0.930 . S
C426 H412 0.930 . S
C426 C424 1.395 . S
C426 C429 1.403 . S
C427 C424 1.403 . S
C427 C428 1.524 . S
C427 C431 1.400 . S
C428 H413 0.960 . S
C428 H414 0.960 . S
C428 H415 0.960 . S
C428 C427 1.524 . S
C429 C426 1.403 . S
C429 C430 1.392 . S
C429 C433 1.495 . S
C430 C429 1.392 . S
C430 C431 1.385 . S
C430 C432 1.478 . S
C431 H425 0.930 . S
C431 C427 1.400 . S
C431 C430 1.385 . S
C432 C430 1.478 . S
C432 C434 1.381 . S
C432 C438 1.383 . S
C433 C429 1.495 . S
C433 H439 0.959 . S
C433 H440 0.961 . S
C433 H441 0.960 . S
C434 C432 1.381 . S
C434 C435 1.394 . S
C434 H442 0.930 . S
C435 C434 1.394 . S
C435 C436 1.383 . S
C435 H443 0.929 . S
C436 C435 1.383 . S
C436 C437 1.377 . S
C437 H421 0.930 . S
C437 C436 1.377 . S
C437 C438 1.379 . S
C438 H422 0.931 . S
C438 C432 1.383 . S
C438 C437 1.379 . S
H439 C433 0.959 . S
H440 C433 0.961 . S
H441 C433 0.960 . S
H442 C434 0.930 . S
H443 C435 0.929 . S
H444 C452 0.929 . S
H445 C454 0.930 . S
H446 C456 0.930 . S
H447 C459 0.929 . S
H448 C462 0.930 . S
H449 C464 0.960 1_556 S
H450 C464 0.960 . S
H451 C464 0.960 . S
C452 H444 0.929 . S
C452 C453 1.377 . S
C452 C454 1.384 . S
C453 C452 1.377 . S
C453 C459 1.390 . S
C454 H445 0.930 . S
C454 C452 1.384 . S
C454 C455 1.372 . S
C455 C454 1.372 . S
C455 C456 1.400 . S
C455 C460 1.490 . S
C456 H446 0.930 . S
C456 C455 1.400 . S
C456 C459 1.386 . S
H457 C473 0.930 . S
H458 C474 0.931 . S
C459 H447 0.929 . S
C459 C453 1.390 . S
C459 C456 1.386 . S
C460 C455 1.490 . S
C460 C462 1.395 1_554 S
C460 C463 1.403 1_554 S
H461 C467 0.930 . S
C462 H448 0.930 . S
C462 C460 1.395 1_556 S
C462 C465 1.403 . S
C463 C460 1.403 1_556 S
C463 C464 1.524 1_556 S
C463 C467 1.400 . S
C464 H449 0.960 1_554 S
C464 H450 0.960 . S
C464 H451 0.960 . S
C464 C463 1.524 1_554 S
C465 C462 1.403 . S
C465 C466 1.392 . S
C465 C469 1.495 . S
C466 C465 1.392 . S
C466 C467 1.385 . S
C466 C468 1.478 . S
C467 H461 0.930 . S
C467 C463 1.400 . S
C467 C466 1.385 . S
C468 C466 1.478 . S
C468 C470 1.381 . S
C468 C474 1.383 . S
C469 C465 1.495 . S
C469 H475 0.959 . S
C469 H476 0.961 . S
C469 H477 0.960 . S
C470 C468 1.381 . S
C470 C471 1.394 . S
C470 H478 0.930 . S
C471 C470 1.394 . S
C471 C472 1.383 . S
C471 H479 0.929 . S
C472 C471 1.383 . S
C472 C473 1.377 . S
C473 H457 0.930 . S
C473 C472 1.377 . S
C473 C474 1.379 . S
C474 H458 0.931 . S
C474 C468 1.383 . S
C474 C473 1.379 . S
H475 C469 0.959 . S
H476 C469 0.961 . S
H477 C469 0.960 . S
H478 C470 0.930 . S
H479 C471 0.929 . S
H480 C488 0.929 . S
H481 C490 0.930 . S
H482 C492 0.930 . S
H483 C495 0.929 . S
H484 C498 0.930 . S
H485 C500 0.960 . S
H486 C500 0.960 . S
H487 C500 0.960 . S
C488 H480 0.929 . S
C488 C489 1.377 . S
C488 C490 1.384 1_556 S
C489 C488 1.377 . S
C489 C495 1.390 . S
C490 H481 0.930 . S
C490 C488 1.384 1_554 S
C490 C491 1.372 . S
C491 C490 1.372 . S
C491 C492 1.400 . S
C491 C496 1.490 . S
C492 H482 0.930 . S
C492 C491 1.400 . S
C492 C495 1.386 1_554 S
H493 C509 0.930 . S
H494 C510 0.931 . S
C495 H483 0.929 . S
C495 C489 1.390 . S
C495 C492 1.386 1_556 S
C496 C491 1.490 . S
C496 C498 1.395 . S
C496 C499 1.403 . S
H497 C503 0.930 . S
C498 H484 0.930 . S
C498 C496 1.395 . S
C498 C501 1.403 . S
C499 C496 1.403 . S
C499 C500 1.524 . S
C499 C503 1.400 . S
C500 H485 0.960 . S
C500 H486 0.960 . S
C500 H487 0.960 . S
C500 C499 1.524 . S
C501 C498 1.403 . S
C501 C502 1.392 . S
C501 C505 1.495 . S
C502 C501 1.392 . S
C502 C503 1.385 . S
C502 C504 1.478 . S
C503 H497 0.930 . S
C503 C499 1.400 . S
C503 C502 1.385 . S
C504 C502 1.478 . S
C504 C506 1.381 . S
C504 C510 1.383 . S
C505 C501 1.495 . S
C505 H511 0.959 . S
C505 H512 0.961 . S
C505 H513 0.960 . S
C506 C504 1.381 . S
C506 C507 1.394 . S
C506 H514 0.930 . S
C507 C506 1.394 . S
C507 C508 1.383 . S
C507 H515 0.929 . S
C508 C507 1.383 . S
C508 C509 1.377 . S
C509 H493 0.930 . S
C509 C508 1.377 . S
C509 C510 1.379 . S
C510 H494 0.931 . S
C510 C504 1.383 . S
C510 C509 1.379 . S
H511 C505 0.959 . S
H512 C505 0.961 . S
H513 C505 0.960 . S
H514 C506 0.930 . S
H515 C507 0.929 . S
H516 C524 0.929 . S
H517 C526 0.930 . S
H518 C528 0.930 . S
H519 C531 0.929 . S
H520 C534 0.930 . S
H521 C536 0.960 . S
H522 C536 0.960 . S
H523 C536 0.960 . S
C524 H516 0.929 . S
C524 C525 1.377 . S
C524 C526 1.384 . S
C525 C524 1.377 . S
C525 C531 1.390 . S
C526 H517 0.930 . S
C526 C524 1.384 . S
C526 C527 1.372 . S
C527 C526 1.372 . S
C527 C528 1.400 . S
C527 C532 1.490 . S
C528 H518 0.930 . S
C528 C527 1.400 . S
C528 C531 1.386 . S
H529 C545 0.930 . S
H530 C546 0.931 . S
C531 H519 0.929 . S
C531 C525 1.390 . S
C531 C528 1.386 . S
C532 C527 1.490 . S
C532 C534 1.395 . S
C532 C535 1.403 . S
H533 C539 0.930 . S
C534 H520 0.930 . S
C534 C532 1.395 . S
C534 C537 1.403 . S
C535 C532 1.403 . S
C535 C536 1.524 . S
C535 C539 1.400 . S
C536 H521 0.960 . S
C536 H522 0.960 . S
C536 H523 0.960 . S
C536 C535 1.524 . S
C537 C534 1.403 . S
C537 C538 1.392 . S
C537 C541 1.495 . S
C538 C537 1.392 . S
C538 C539 1.385 . S
C538 C540 1.478 . S
C539 H533 0.930 . S
C539 C535 1.400 . S
C539 C538 1.385 . S
C540 C538 1.478 . S
C540 C542 1.381 . S
C540 C546 1.383 . S
C541 C537 1.495 . S
C541 H547 0.959 . S
C541 H548 0.961 . S
C541 H549 0.960 . S
C542 C540 1.381 . S
C542 C543 1.394 . S
C542 H550 0.930 . S
C543 C542 1.394 . S
C543 C544 1.383 . S
C543 H551 0.929 . S
C544 C543 1.383 . S
C544 C545 1.377 . S
C545 H529 0.930 . S
C545 C544 1.377 . S
C545 C546 1.379 . S
C546 H530 0.931 . S
C546 C540 1.383 . S
C546 C545 1.379 . S
H547 C541 0.959 . S
H548 C541 0.961 . S
H549 C541 0.960 . S
H550 C542 0.930 . S
H551 C543 0.929 . S
H552 C560 0.929 . S
H553 C562 0.930 . S
H554 C564 0.930 . S
H555 C567 0.929 . S
H556 C570 0.930 . S
H557 C572 0.960 . S
H558 C572 0.960 . S
H559 C572 0.960 . S
C560 H552 0.929 . S
C560 C561 1.377 . S
C560 C562 1.384 1_554 S
C561 C560 1.377 . S
C561 C567 1.390 . S
C562 H553 0.930 . S
C562 C560 1.384 1_556 S
C562 C563 1.372 . S
C563 C562 1.372 . S
C563 C564 1.400 . S
C563 C568 1.490 . S
C564 H554 0.930 . S
C564 C563 1.400 . S
C564 C567 1.386 1_556 S
H565 C581 0.930 . S
H566 C582 0.931 . S
C567 H555 0.929 . S
C567 C561 1.390 . S
C567 C564 1.386 1_554 S
C568 C563 1.490 . S
C568 C570 1.395 . S
C568 C571 1.403 . S
H569 C575 0.930 . S
C570 H556 0.930 . S
C570 C568 1.395 . S
C570 C573 1.403 . S
C571 C568 1.403 . S
C571 C572 1.524 . S
C571 C575 1.400 . S
C572 H557 0.960 . S
C572 H558 0.960 . S
C572 H559 0.960 . S
C572 C571 1.524 . S
C573 C570 1.403 . S
C573 C574 1.392 . S
C573 C577 1.495 . S
C574 C573 1.392 . S
C574 C575 1.385 . S
C574 C576 1.478 . S
C575 H569 0.930 . S
C575 C571 1.400 . S
C575 C574 1.385 . S
C576 C574 1.478 . S
C576 C578 1.381 . S
C576 C582 1.383 . S
C577 C573 1.495 . S
C577 H583 0.959 . S
C577 H584 0.961 . S
C577 H585 0.960 . S
C578 C576 1.381 . S
C578 C579 1.394 . S
C578 H586 0.930 . S
C579 C578 1.394 . S
C579 C580 1.383 . S
C579 H587 0.929 . S
C580 C579 1.383 . S
C580 C581 1.377 . S
C581 H565 0.930 . S
C581 C580 1.377 . S
C581 C582 1.379 . S
C582 H566 0.931 . S
C582 C576 1.383 . S
C582 C581 1.379 . S
H583 C577 0.959 . S
H584 C577 0.961 . S
H585 C577 0.960 . S
H586 C578 0.930 . S
H587 C579 0.929 . S
H588 C596 0.929 . S
H589 C598 0.930 . S
H590 C600 0.930 . S
H591 C603 0.929 . S
H592 C606 0.930 . S
H593 C608 0.960 . S
H594 C608 0.960 . S
H595 C608 0.960 . S
C596 H588 0.929 . S
C596 C597 1.377 . S
C596 C598 1.384 . S
C597 C596 1.377 . S
C597 C603 1.390 . S
C598 H589 0.930 . S
C598 C596 1.384 . S
C598 C599 1.372 . S
C599 C598 1.372 . S
C599 C600 1.400 . S
C599 C604 1.490 . S
C600 H590 0.930 . S
C600 C599 1.400 . S
C600 C603 1.386 . S
H601 C617 0.930 . S
H602 C618 0.931 . S
C603 H591 0.929 . S
C603 C597 1.390 . S
C603 C600 1.386 . S
C604 C599 1.490 . S
C604 C606 1.395 . S
C604 C607 1.403 . S
H605 C611 0.930 1_556 S
C606 H592 0.930 . S
C606 C604 1.395 . S
C606 C609 1.403 . S
C607 C604 1.403 . S
C607 C608 1.524 . S
C607 C611 1.400 . S
C608 H593 0.960 . S
C608 H594 0.960 . S
C608 H595 0.960 . S
C608 C607 1.524 . S
C609 C606 1.403 . S
C609 C610 1.392 1_554 S
C609 C613 1.495 1_554 S
C610 C609 1.392 1_556 S
C610 C611 1.385 1_556 S
C610 C612 1.478 . S
C611 H605 0.930 1_554 S
C611 C607 1.400 . S
C611 C610 1.385 1_554 S
C612 C610 1.478 . S
C612 C614 1.381 . S
C612 C618 1.383 . S
C613 C609 1.495 1_556 S
C613 H619 0.959 1_556 S
C613 H620 0.961 . S
C613 H621 0.960 . S
C614 C612 1.381 . S
C614 C615 1.394 . S
C614 H622 0.930 . S
C615 C614 1.394 . S
C615 C616 1.383 . S
C615 H623 0.929 . S
C616 C615 1.383 . S
C616 C617 1.377 . S
C617 H601 0.930 . S
C617 C616 1.377 . S
C617 C618 1.379 . S
C618 H602 0.931 . S
C618 C612 1.383 . S
C618 C617 1.379 . S
H619 C613 0.959 1_554 S
H620 C613 0.961 . S
H621 C613 0.960 . S
H622 C614 0.930 . S
H623 C615 0.929 . S
H624 C632 0.929 . S
H625 C634 0.930 . S
H626 C636 0.930 . S
H627 C639 0.929 . S
H628 C642 0.930 . S
H629 C644 0.960 . S
H630 C644 0.960 . S
H631 C644 0.960 . S
C632 H624 0.929 . S
C632 C633 1.377 . S
C632 C634 1.384 . S
C633 C632 1.377 . S
C633 C639 1.390 . S
C634 H625 0.930 . S
C634 C632 1.384 . S
C634 C635 1.372 . S
C635 C634 1.372 . S
C635 C636 1.400 . S
C635 C640 1.490 . S
C636 H626 0.930 . S
C636 C635 1.400 . S
C636 C639 1.386 . S
H637 C653 0.930 . S
H638 C654 0.931 . S
C639 H627 0.929 . S
C639 C633 1.390 . S
C639 C636 1.386 . S
C640 C635 1.490 . S
C640 C642 1.395 . S
C640 C643 1.403 . S
H641 C647 0.930 . S
C642 H628 0.930 . S
C642 C640 1.395 . S
C642 C645 1.403 . S
C643 C640 1.403 . S
C643 C644 1.524 . S
C643 C647 1.400 . S
C644 H629 0.960 . S
C644 H630 0.960 . S
C644 H631 0.960 . S
C644 C643 1.524 . S
C645 C642 1.403 . S
C645 C646 1.392 . S
C645 C649 1.495 . S
C646 C645 1.392 . S
C646 C647 1.385 . S
C646 C648 1.478 . S
C647 H641 0.930 . S
C647 C643 1.400 . S
C647 C646 1.385 . S
C648 C646 1.478 . S
C648 C650 1.381 . S
C648 C654 1.383 . S
C649 C645 1.495 . S
C649 H655 0.959 . S
C649 H656 0.961 . S
C649 H657 0.960 . S
C650 C648 1.381 . S
C650 C651 1.394 . S
C650 H658 0.930 . S
C651 C650 1.394 . S
C651 C652 1.383 . S
C651 H659 0.929 . S
C652 C651 1.383 . S
C652 C653 1.377 . S
C653 H637 0.930 . S
C653 C652 1.377 . S
C653 C654 1.379 . S
C654 H638 0.931 . S
C654 C648 1.383 . S
C654 C653 1.379 . S
H655 C649 0.959 . S
H656 C649 0.961 . S
H657 C649 0.960 . S
H658 C650 0.930 . S
H659 C651 0.929 . S
H660 C668 0.929 . S
H661 C670 0.930 . S
H662 C672 0.930 . S
H663 C675 0.929 . S
H664 C678 0.930 . S
H665 C680 0.960 . S
H666 C680 0.960 . S
H667 C680 0.960 . S
C668 H660 0.929 . S
C668 C669 1.377 . S
C668 C670 1.384 . S
C669 C668 1.377 . S
C669 C675 1.390 . S
C670 H661 0.930 . S
C670 C668 1.384 . S
C670 C671 1.372 . S
C671 C670 1.372 . S
C671 C672 1.400 . S
C671 C676 1.490 . S
C672 H662 0.930 . S
C672 C671 1.400 . S
C672 C675 1.386 . S
H673 C689 0.930 . S
H674 C690 0.931 . S
C675 H663 0.929 . S
C675 C669 1.390 . S
C675 C672 1.386 . S
C676 C671 1.490 . S
C676 C678 1.395 . S
C676 C679 1.403 . S
H677 C683 0.930 . S
C678 H664 0.930 . S
C678 C676 1.395 . S
C678 C681 1.403 . S
C679 C676 1.403 . S
C679 C680 1.524 . S
C679 C683 1.400 . S
C680 H665 0.960 . S
C680 H666 0.960 . S
C680 H667 0.960 . S
C680 C679 1.524 . S
C681 C678 1.403 . S
C681 C682 1.392 . S
C681 C685 1.495 . S
C682 C681 1.392 . S
C682 C683 1.385 . S
C682 C684 1.478 . S
C683 H677 0.930 . S
C683 C679 1.400 . S
C683 C682 1.385 . S
C684 C682 1.478 . S
C684 C686 1.381 . S
C684 C690 1.383 . S
C685 C681 1.495 . S
C685 H691 0.959 . S
C685 H692 0.961 . S
C685 H693 0.960 . S
C686 C684 1.381 . S
C686 C687 1.394 . S
C686 H694 0.930 . S
C687 C686 1.394 . S
C687 C688 1.383 . S
C687 H695 0.929 . S
C688 C687 1.383 . S
C688 C689 1.377 . S
C689 H673 0.930 . S
C689 C688 1.377 . S
C689 C690 1.379 . S
C690 H674 0.931 . S
C690 C684 1.383 . S
C690 C689 1.379 . S
H691 C685 0.959 . S
H692 C685 0.961 . S
H693 C685 0.960 . S
H694 C686 0.930 . S
H695 C687 0.929 . S
H696 C704 0.929 . S
H697 C706 0.930 . S
H698 C708 0.930 . S
H699 C711 0.929 . S
H700 C714 0.930 . S
H701 C716 0.960 . S
H702 C716 0.960 . S
H703 C716 0.960 . S
C704 H696 0.929 . S
C704 C705 1.377 . S
C704 C706 1.384 . S
C705 C704 1.377 . S
C705 C711 1.390 . S
C706 H697 0.930 . S
C706 C704 1.384 . S
C706 C707 1.372 . S
C707 C706 1.372 . S
C707 C708 1.400 . S
C707 C712 1.490 . S
C708 H698 0.930 . S
C708 C707 1.400 . S
C708 C711 1.386 . S
H709 C725 0.930 . S
H710 C726 0.931 . S
C711 H699 0.929 . S
C711 C705 1.390 . S
C711 C708 1.386 . S
C712 C707 1.490 . S
C712 C714 1.395 . S
C712 C715 1.403 1_554 S
H713 C719 0.930 . S
C714 H700 0.930 . S
C714 C712 1.395 . S
C714 C717 1.403 1_455 S
C715 C712 1.403 1_556 S
C715 C716 1.524 . S
C715 C719 1.400 1_455 S
C716 H701 0.960 . S
C716 H702 0.960 . S
C716 H703 0.960 . S
C716 C715 1.524 . S
C717 C714 1.403 1_655 S
C717 C718 1.392 1_554 S
C717 C721 1.495 . S
C718 C717 1.392 1_556 S
C718 C719 1.385 . S
C718 C720 1.478 . S
C719 H713 0.930 . S
C719 C715 1.400 1_655 S
C719 C718 1.385 . S
C720 C718 1.478 . S
C720 C722 1.381 . S
C720 C726 1.383 . S
C721 C717 1.495 . S
C721 H727 0.959 . S
C721 H728 0.961 . S
C721 H729 0.960 . S
C722 C720 1.381 . S
C722 C723 1.394 . S
C722 H730 0.930 . S
C723 C722 1.394 . S
C723 C724 1.383 . S
C723 H731 0.929 . S
C724 C723 1.383 . S
C724 C725 1.377 . S
C725 H709 0.930 . S
C725 C724 1.377 . S
C725 C726 1.379 . S
C726 H710 0.931 . S
C726 C720 1.383 . S
C726 C725 1.379 . S
H727 C721 0.959 . S
H728 C721 0.961 . S
H729 C721 0.960 . S
H730 C722 0.930 . S
H731 C723 0.929 . S
H732 C740 0.929 . S
H733 C742 0.930 . S
H734 C744 0.930 . S
H735 C747 0.929 . S
H736 C750 0.930 . S
H737 C752 0.960 . S
H738 C752 0.960 1_565 S
H739 C752 0.960 1_565 S
C740 H732 0.929 . S
C740 C741 1.377 . S
C740 C742 1.384 . S
C741 C740 1.377 . S
C741 C747 1.390 . S
C742 H733 0.930 . S
C742 C740 1.384 . S
C742 C743 1.372 . S
C743 C742 1.372 . S
C743 C744 1.400 . S
C743 C748 1.490 . S
C744 H734 0.930 . S
C744 C743 1.400 . S
C744 C747 1.386 . S
H745 C761 0.930 . S
H746 C762 0.931 . S
C747 H735 0.929 . S
C747 C741 1.390 . S
C747 C744 1.386 . S
C748 C743 1.490 . S
C748 C750 1.395 . S
C748 C751 1.406 . S
H749 C755 0.930 . S
C750 H736 0.930 . S
C750 C748 1.395 . S
C750 C753 1.403 . S
C751 C748 1.406 . S
C751 C752 1.523 1_565 S
C751 C755 1.397 1_565 S
C752 H737 0.960 . S
C752 H738 0.960 1_545 S
C752 H739 0.960 1_545 S
C752 C751 1.523 1_545 S
C753 C750 1.403 . S
C753 C754 1.392 1_565 S
C753 C757 1.495 . S
C754 C753 1.392 1_545 S
C754 C755 1.385 . S
C754 C756 1.478 . S
C755 H749 0.930 . S
C755 C751 1.397 1_545 S
C755 C754 1.385 . S
C756 C754 1.478 . S
C756 C758 1.381 . S
C756 C762 1.383 . S
C757 C753 1.495 . S
C757 H763 0.959 . S
C757 H764 0.961 1_565 S
C757 H765 0.960 1_565 S
C758 C756 1.381 . S
C758 C759 1.394 . S
C758 H766 0.930 . S
C759 C758 1.394 . S
C759 C760 1.383 . S
C759 H767 0.929 . S
C760 C759 1.383 . S
C760 C761 1.377 . S
C761 H745 0.930 . S
C761 C760 1.377 . S
C761 C762 1.379 . S
C762 H746 0.931 . S
C762 C756 1.383 . S
C762 C761 1.379 . S
H763 C757 0.959 . S
H764 C757 0.961 1_545 S
H765 C757 0.960 1_545 S
H766 C758 0.930 . S
H767 C759 0.929 . S
H768 C776 0.929 . S
H769 C778 0.930 . S
H770 C780 0.930 . S
H771 C783 0.929 . S
H772 C786 0.930 . S
H773 C788 0.960 . S
H774 C788 0.960 . S
H775 C788 0.960 . S
C776 H768 0.929 . S
C776 C777 1.377 . S
C776 C778 1.384 . S
C777 C776 1.377 . S
C777 C783 1.390 . S
C778 H769 0.930 . S
C778 C776 1.384 . S
C778 C779 1.372 . S
C779 C778 1.372 . S
C779 C780 1.400 . S
C779 C784 1.490 . S
C780 H770 0.930 . S
C780 C779 1.400 . S
C780 C783 1.386 . S
H781 C797 0.930 . S
H782 C798 0.931 . S
C783 H771 0.929 . S
C783 C777 1.390 . S
C783 C780 1.386 . S
C784 C779 1.490 . S
C784 C786 1.395 . S
C784 C787 1.403 . S
H785 C791 0.930 . S
C786 H772 0.930 . S
C786 C784 1.395 . S
C786 C789 1.403 1_455 S
C787 C784 1.403 . S
C787 C788 1.524 . S
C787 C791 1.400 1_455 S
C788 H773 0.960 . S
C788 H774 0.960 . S
C788 H775 0.960 . S
C788 C787 1.524 . S
C789 C786 1.403 1_655 S
C789 C790 1.392 . S
C789 C793 1.495 . S
C790 C789 1.392 . S
C790 C791 1.385 . S
C790 C792 1.478 . S
C791 H785 0.930 . S
C791 C787 1.400 1_655 S
C791 C790 1.385 . S
C792 C790 1.478 . S
C792 C794 1.381 . S
C792 C798 1.383 . S
C793 C789 1.495 . S
C793 H799 0.959 . S
C793 H800 0.961 . S
C793 H801 0.960 . S
C794 C792 1.381 . S
C794 C795 1.394 . S
C794 H802 0.930 . S
C795 C794 1.394 . S
C795 C796 1.383 . S
C795 H803 0.929 . S
C796 C795 1.383 . S
C796 C797 1.377 . S
C797 H781 0.930 . S
C797 C796 1.377 . S
C797 C798 1.379 . S
C798 H782 0.931 . S
C798 C792 1.383 . S
C798 C797 1.379 . S
H799 C793 0.959 . S
H800 C793 0.961 . S
H801 C793 0.960 . S
H802 C794 0.930 . S
H803 C795 0.929 . S
H804 C812 0.929 . S
H805 C814 0.930 . S
H806 C816 0.930 . S
H807 C819 0.929 . S
H808 C822 0.930 . S
H809 C824 0.960 1_545 S
H810 C824 0.960 . S
H811 C824 0.960 . S
C812 H804 0.929 . S
C812 C813 1.377 . S
C812 C814 1.384 . S
C813 C812 1.377 . S
C813 C819 1.390 . S
C814 H805 0.930 . S
C814 C812 1.384 . S
C814 C815 1.372 . S
C815 C814 1.372 . S
C815 C816 1.400 . S
C815 C820 1.490 . S
C816 H806 0.930 . S
C816 C815 1.400 . S
C816 C819 1.386 . S
H817 C833 0.930 . S
H818 C834 0.931 . S
C819 H807 0.929 . S
C819 C813 1.390 . S
C819 C816 1.386 . S
C820 C815 1.490 . S
C820 C822 1.395 . S
C820 C823 1.403 . S
H821 C827 0.930 . S
C822 H808 0.930 . S
C822 C820 1.395 . S
C822 C825 1.359 1_565 S
C823 C820 1.403 . S
C823 C824 1.524 . S
C823 C827 1.400 1_565 S
C824 H809 0.960 1_565 S
C824 H810 0.960 . S
C824 H811 0.960 . S
C824 C823 1.524 . S
C825 C822 1.359 1_545 S
C825 C826 1.434 . S
C825 C829 1.499 . S
C826 C825 1.434 . S
C826 C827 1.385 . S
C826 C828 1.478 . S
C827 H821 0.930 . S
C827 C823 1.400 1_545 S
C827 C826 1.385 . S
C828 C826 1.478 . S
C828 C830 1.381 . S
C828 C834 1.383 . S
C829 C825 1.499 . S
C829 H835 0.959 1_545 S
C829 H836 0.961 . S
C829 H837 0.960 . S
C830 C828 1.381 . S
C830 C831 1.394 . S
C830 H838 0.930 . S
C831 C830 1.394 . S
C831 C832 1.383 . S
C831 H839 0.929 . S
C832 C831 1.383 . S
C832 C833 1.377 . S
C833 H817 0.930 . S
C833 C832 1.377 . S
C833 C834 1.379 . S
C834 H818 0.931 . S
C834 C828 1.383 . S
C834 C833 1.379 . S
H835 C829 0.959 1_565 S
H836 C829 0.961 . S
H837 C829 0.960 . S
H838 C830 0.930 . S
H839 C831 0.929 . S
H840 C848 0.929 . S
H841 C850 0.930 . S
H842 C852 0.930 . S
H843 C855 0.929 . S
H844 C858 0.930 . S
H845 C860 0.960 . S
H846 C860 0.960 . S
H847 C860 0.960 . S
C848 H840 0.929 . S
C848 C849 1.377 . S
C848 C850 1.384 . S
C849 C848 1.377 . S
C849 C855 1.390 . S
C850 H841 0.930 . S
C850 C848 1.384 . S
C850 C851 1.372 . S
C851 C850 1.372 . S
C851 C852 1.400 . S
C851 C856 1.490 . S
C852 H842 0.930 . S
C852 C851 1.400 . S
C852 C855 1.386 . S
H853 C869 0.930 . S
H854 C870 0.931 . S
C855 H843 0.929 . S
C855 C849 1.390 . S
C855 C852 1.386 . S
C856 C851 1.490 . S
C856 C858 1.395 . S
C856 C859 1.403 . S
H857 C863 0.930 . S
C858 H844 0.930 . S
C858 C856 1.395 . S
C858 C861 1.403 . S
C859 C856 1.403 . S
C859 C860 1.524 . S
C859 C863 1.400 . S
C860 H845 0.960 . S
C860 H846 0.960 . S
C860 H847 0.960 . S
C860 C859 1.524 . S
C861 C858 1.403 . S
C861 C862 1.392 . S
C861 C865 1.495 . S
C862 C861 1.392 . S
C862 C863 1.385 . S
C862 C864 1.478 . S
C863 H857 0.930 . S
C863 C859 1.400 . S
C863 C862 1.385 . S
C864 C862 1.478 . S
C864 C866 1.381 . S
C864 C870 1.383 . S
C865 C861 1.495 . S
C865 H871 0.959 . S
C865 H872 0.961 . S
C865 H873 0.960 . S
C866 C864 1.381 . S
C866 C867 1.394 . S
C866 H874 0.930 . S
C867 C866 1.394 . S
C867 C868 1.383 . S
C867 H875 0.929 . S
C868 C867 1.383 . S
C868 C869 1.377 . S
C869 H853 0.930 . S
C869 C868 1.377 . S
C869 C870 1.379 . S
C870 H854 0.931 . S
C870 C864 1.383 . S
C870 C869 1.379 . S
H871 C865 0.959 . S
H872 C865 0.961 . S
H873 C865 0.960 . S
H874 C866 0.930 . S
H875 C867 0.929 . S
H876 C884 0.929 . S
H877 C886 0.930 . S
H878 C888 0.930 . S
H879 C891 0.929 . S
H880 C894 0.930 . S
H881 C896 0.960 . S
H882 C896 0.960 . S
H883 C896 0.960 . S
C884 H876 0.929 . S
C884 C885 1.377 . S
C884 C886 1.384 . S
C885 C884 1.377 . S
C885 C891 1.390 . S
C886 H877 0.930 . S
C886 C884 1.384 . S
C886 C887 1.372 . S
C887 C886 1.372 . S
C887 C888 1.400 . S
C887 C892 1.490 . S
C888 H878 0.930 . S
C888 C887 1.400 . S
C888 C891 1.386 . S
H889 C905 0.930 . S
H890 C906 0.931 . S
C891 H879 0.929 . S
C891 C885 1.390 . S
C891 C888 1.386 . S
C892 C887 1.490 . S
C892 C894 1.395 . S
C892 C895 1.403 . S
H893 C899 0.930 . S
C894 H880 0.930 . S
C894 C892 1.395 . S
C894 C897 1.403 . S
C895 C892 1.403 . S
C895 C896 1.524 . S
C895 C899 1.400 . S
C896 H881 0.960 . S
C896 H882 0.960 . S
C896 H883 0.960 . S
C896 C895 1.524 . S
C897 C894 1.403 . S
C897 C898 1.392 . S
C897 C901 1.495 . S
C898 C897 1.392 . S
C898 C899 1.385 . S
C898 C900 1.478 . S
C899 H893 0.930 . S
C899 C895 1.400 . S
C899 C898 1.385 . S
C900 C898 1.478 . S
C900 C902 1.381 . S
C900 C906 1.383 . S
C901 C897 1.495 . S
C901 H907 0.959 . S
C901 H908 0.961 . S
C901 H909 0.960 . S
C902 C900 1.381 . S
C902 C903 1.394 . S
C902 H910 0.930 . S
C903 C902 1.394 . S
C903 C904 1.383 . S
C903 H911 0.929 . S
C904 C903 1.383 . S
C904 C905 1.377 . S
C905 H889 0.930 . S
C905 C904 1.377 . S
C905 C906 1.379 . S
C906 H890 0.931 . S
C906 C900 1.383 . S
C906 C905 1.379 . S
H907 C901 0.959 . S
H908 C901 0.961 . S
H909 C901 0.960 . S
H910 C902 0.930 . S
H911 C903 0.929 . S
H912 C920 0.929 . S
H913 C922 0.930 . S
H914 C924 0.930 . S
H915 C927 0.929 . S
H916 C930 0.930 . S
H917 C932 0.960 . S
H918 C932 0.960 . S
H919 C932 0.960 . S
C920 H912 0.929 . S
C920 C921 1.377 . S
C920 C922 1.384 . S
C921 C920 1.377 . S
C921 C927 1.390 . S
C922 H913 0.930 . S
C922 C920 1.384 . S
C922 C923 1.372 . S
C923 C922 1.372 . S
C923 C924 1.400 . S
C923 C928 1.490 . S
C924 H914 0.930 . S
C924 C923 1.400 . S
C924 C927 1.386 . S
H925 C941 0.930 . S
H926 C942 0.931 . S
C927 H915 0.929 . S
C927 C921 1.390 . S
C927 C924 1.386 . S
C928 C923 1.490 . S
C928 C930 1.395 . S
C928 C931 1.403 . S
H929 C935 0.930 . S
C930 H916 0.930 . S
C930 C928 1.395 . S
C930 C933 1.403 . S
C931 C928 1.403 . S
C931 C932 1.524 . S
C931 C935 1.400 . S
C932 H917 0.960 . S
C932 H918 0.960 . S
C932 H919 0.960 . S
C932 C931 1.524 . S
C933 C930 1.403 . S
C933 C934 1.392 . S
C933 C937 1.495 . S
C934 C933 1.392 . S
C934 C935 1.385 . S
C934 C936 1.478 . S
C935 H929 0.930 . S
C935 C931 1.400 . S
C935 C934 1.385 . S
C936 C934 1.478 . S
C936 C938 1.381 . S
C936 C942 1.383 . S
C937 C933 1.495 . S
C937 H943 0.959 . S
C937 H944 0.961 . S
C937 H945 0.960 . S
C938 C936 1.381 . S
C938 C939 1.394 . S
C938 H946 0.930 . S
C939 C938 1.394 . S
C939 C940 1.383 . S
C939 H947 0.929 . S
C940 C939 1.383 . S
C940 C941 1.377 . S
C941 H925 0.930 . S
C941 C940 1.377 . S
C941 C942 1.379 . S
C942 H926 0.931 . S
C942 C936 1.383 . S
C942 C941 1.379 . S
H943 C937 0.959 . S
H944 C937 0.961 . S
H945 C937 0.960 . S
H946 C938 0.930 . S
H947 C939 0.929 . S
H948 C956 0.929 . S
H949 C958 0.930 . S
H950 C960 0.930 . S
H951 C963 0.929 . S
H952 C966 0.930 . S
H953 C968 0.960 . S
H954 C968 0.960 . S
H955 C968 0.960 . S
C956 H948 0.929 . S
C956 C957 1.377 1_556 S
C956 C958 1.384 . S
C957 C956 1.377 1_554 S
C957 C963 1.390 . S
C958 H949 0.930 . S
C958 C956 1.384 . S
C958 C959 1.372 1_556 S
C959 C958 1.372 1_554 S
C959 C960 1.400 . S
C959 C964 1.490 . S
C960 H950 0.930 . S
C960 C959 1.400 . S
C960 C963 1.386 . S
H961 C977 0.930 . S
H962 C978 0.931 . S
C963 H951 0.929 . S
C963 C957 1.390 . S
C963 C960 1.386 . S
C964 C959 1.490 . S
C964 C966 1.395 1_554 S
C964 C967 1.403 . S
H965 C971 0.930 . S
C966 H952 0.930 . S
C966 C964 1.395 1_556 S
C966 C969 1.403 . S
C967 C964 1.403 . S
C967 C968 1.524 . S
C967 C971 1.400 . S
C968 H953 0.960 . S
C968 H954 0.960 . S
C968 H955 0.960 . S
C968 C967 1.524 . S
C969 C966 1.403 . S
C969 C970 1.392 . S
C969 C973 1.495 . S
C970 C969 1.392 . S
C970 C971 1.385 1_556 S
C970 C972 1.478 . S
C971 H965 0.930 . S
C971 C967 1.400 . S
C971 C970 1.385 1_554 S
C972 C970 1.478 . S
C972 C974 1.381 . S
C972 C978 1.383 1_556 S
C973 C969 1.495 . S
C973 H979 0.959 . S
C973 H980 0.961 . S
C973 H981 0.960 . S
C974 C972 1.381 . S
C974 C975 1.394 . S
C974 H982 0.930 . S
C975 C974 1.394 . S
C975 C976 1.383 . S
C975 H983 0.929 . S
C976 C975 1.383 . S
C976 C977 1.377 1_556 S
C977 H961 0.930 . S
C977 C976 1.377 1_554 S
C977 C978 1.379 . S
C978 H962 0.931 . S
C978 C972 1.383 1_554 S
C978 C977 1.379 . S
H979 C973 0.959 . S
H980 C973 0.961 . S
H981 C973 0.960 . S
H982 C974 0.930 . S
H983 C975 0.929 . S
C273 C193 1.059 . S
C292 C28 1.053 . S
C309 C226 1.061 . S
C328 C61 1.065 . S
C345 C94 1.064 . S
C364 C259 1.075 . S
C381 C160 1.060 . S
C400 C127 1.043 1_554 S
C417 N5 1.049 . S
C436 N14 1.038 1_556 S
C453 N47 1.045 . S
C472 N38 1.057 . S
C489 N71 1.045 . S
C508 N80 1.033 . S
C525 N104 1.048 . S
C544 N113 1.058 . S
C561 N137 1.049 . S
C580 N146 1.039 . S
C597 N170 1.045 . S
C616 N179 1.045 . S
C633 N203 1.045 . S
C652 N212 1.047 1_554 S
C669 N245 1.048 . S
C688 N236 1.040 . S
C705 C8 1.236 . S
C724 C206 1.239 . S
C741 C239 1.233 . S
C760 C41 1.253 . S
C777 C140 1.242 . S
C796 C74 1.212 . S
C813 C107 1.232 . S
C832 C173 1.257 . S
C849 C17 1.549 . S
C868 C149 1.549 . S
C885 C50 1.549 . S
C904 C182 1.550 . S
C921 C83 1.549 . S
C940 C215 1.548 . S
C957 C248 1.547 . S
C976 C116 1.559 . S
