# Generated by pormake.
# Topology mmt, (4)-cn, num edge types: 1
# Building blocks:
#     Node 0, Type 0, BuildingBlock: AZAVOO_clean_sbu_0, # of connection points: 4
#     Node 1, Type 0, BuildingBlock: AZAVOO_clean_sbu_0, # of connection points: 4
#     Node 2, Type 0, BuildingBlock: AZAVOO_clean_sbu_0, # of connection points: 4
#     Node 3, Type 0, BuildingBlock: AZAVOO_clean_sbu_0, # of connection points: 4
#     Node 4, Type 0, BuildingBlock: AZAVOO_clean_sbu_0, # of connection points: 4
#     Node 5, Type 0, BuildingBlock: AZAVOO_clean_sbu_0, # of connection points: 4
#     Node 6, Type 0, BuildingBlock: AZAVOO_clean_sbu_0, # of connection points: 4
#     Node 7, Type 0, BuildingBlock: AZAVOO_clean_sbu_0, # of connection points: 4
#     Edge 8, Type (0, 0), BuildingBlock: OJICUG_clean_linker_0, # of connection points: 2
#     Edge 9, Type (0, 0), BuildingBlock: OJICUG_clean_linker_0, # of connection points: 2
#     Edge 10, Type (0, 0), BuildingBlock: OJICUG_clean_linker_0, # of connection points: 2
#     Edge 11, Type (0, 0), BuildingBlock: OJICUG_clean_linker_0, # of connection points: 2
#     Edge 12, Type (0, 0), BuildingBlock: OJICUG_clean_linker_0, # of connection points: 2
#     Edge 13, Type (0, 0), BuildingBlock: OJICUG_clean_linker_0, # of connection points: 2
#     Edge 14, Type (0, 0), BuildingBlock: OJICUG_clean_linker_0, # of connection points: 2
#     Edge 15, Type (0, 0), BuildingBlock: OJICUG_clean_linker_0, # of connection points: 2
#     Edge 16, Type (0, 0), BuildingBlock: OJICUG_clean_linker_0, # of connection points: 2
#     Edge 17, Type (0, 0), BuildingBlock: OJICUG_clean_linker_0, # of connection points: 2
#     Edge 18, Type (0, 0), BuildingBlock: OJICUG_clean_linker_0, # of connection points: 2
#     Edge 19, Type (0, 0), BuildingBlock: OJICUG_clean_linker_0, # of connection points: 2
#     Edge 20, Type (0, 0), BuildingBlock: OJICUG_clean_linker_0, # of connection points: 2
#     Edge 21, Type (0, 0), BuildingBlock: OJICUG_clean_linker_0, # of connection points: 2
#     Edge 22, Type (0, 0), BuildingBlock: OJICUG_clean_linker_0, # of connection points: 2
#     Edge 23, Type (0, 0), BuildingBlock: OJICUG_clean_linker_0, # of connection points: 2
# Relax obj value: 0.092
# Max RMSD: 0.147
# Mean RMSD: 0.147
data_MOF--net-mmt--node1-AZAVOO_clean_sbu_0--edge1-OJICUG_clean_linker_0
_symmetry_space_group_name_H-M    P1
_symmetry_Int_Tables_number       1
_symmetry_cell_setting            triclinic
loop_
_symmetry_equiv_pos_as_xyz
'x, y, z'
_cell_length_a     14.975384
_cell_length_b     32.103455
_cell_length_c     30.068633
_cell_angle_alpha  89.790564
_cell_angle_beta   90.049222
_cell_angle_gamma 89.671157
loop_
_atom_site_label
_atom_site_type_symbol
_atom_site_fract_x
_atom_site_fract_y
_atom_site_fract_z
_atom_type_partial_charge
Mg0 Mg 0.26397 0.52535 0.40151 0.0
O1 O 0.16228 0.51414 0.34505 0.0
O2 O 0.22498 0.53238 0.28038 0.0
Mg3 Mg 0.36792 0.55387 0.29409 0.0
C4 C 0.15887 0.51863 0.30277 0.0
C5 C 0.12275 0.4792 0.46123 0.0
O6 O 0.15275 0.44846 0.43658 0.0
O7 O 0.24204 0.5972 0.39709 0.0
O8 O 0.31349 0.60877 0.33302 0.0
O9 O 0.32508 0.46113 0.39143 0.0
O10 O 0.36767 0.51741 0.35546 0.0
C11 C 0.27149 0.62205 0.36708 0.0
C12 C 0.37457 0.47793 0.36115 0.0
O13 O 0.15365 0.51568 0.45468 0.0
Mg14 Mg 0.22455 0.89755 0.4033 0.0
O15 O 0.32522 0.90991 0.34656 0.0
O16 O 0.26263 0.89111 0.28211 0.0
Mg17 Mg 0.12145 0.86764 0.29629 0.0
C18 C 0.32828 0.90554 0.30428 0.0
C19 C 0.36424 0.94493 0.46294 0.0
O20 O 0.33325 -0.02437 0.43827 0.0
O21 O 0.25067 0.82612 0.39935 0.0
O22 O 0.1813 0.8134 0.33489 0.0
O23 O 0.16055 0.96104 0.39283 0.0
O24 O 0.12023 0.90435 0.35728 0.0
C25 C 0.22414 0.80094 0.36918 0.0
C26 C 0.11175 0.94379 0.36264 0.0
O27 O 0.33459 0.90827 0.45637 0.0
Mg28 Mg 0.76498 0.39757 0.16123 0.0
O29 O 0.66341 0.40902 0.21772 0.0
O30 O 0.72673 0.39063 0.28237 0.0
Mg31 Mg 0.86975 0.36867 0.26855 0.0
C32 C 0.66029 0.4045 0.26001 0.0
C33 C 0.62339 0.44401 0.1011 0.0
O34 O 0.65343 0.47485 0.12538 0.0
O35 O 0.74325 0.32591 0.16578 0.0
O36 O 0.8146 0.31394 0.22996 0.0
O37 O 0.8253 0.46162 0.17122 0.0
O38 O 0.86877 0.40527 0.20726 0.0
C39 C 0.77235 0.30093 0.19591 0.0
C40 C 0.8751 0.44474 0.20153 0.0
O41 O 0.6544 0.40744 0.10805 0.0
Mg42 Mg 0.72291 0.02582 0.16122 0.0
O43 O 0.82384 0.01348 0.21802 0.0
O44 O 0.76099 0.0325 0.2824 0.0
Mg45 Mg 0.6194 0.05615 0.26806 0.0
C46 C 0.82689 0.01795 0.26029 0.0
C47 C 0.86456 -0.02166 0.10218 0.0
O48 O 0.8355 0.9478 0.1274 0.0
O49 O 0.74814 0.09715 0.16506 0.0
O50 O 0.6786 0.11019 0.2294 0.0
O51 O 0.66012 -0.03757 0.17179 0.0
O52 O 0.61877 0.01922 0.20722 0.0
C53 C 0.72137 0.12247 0.19515 0.0
C54 C 0.61104 -0.02023 0.20193 0.0
O55 O 0.83302 0.0149 0.10821 0.0
Mg56 Mg 0.72227 0.39807 0.66021 0.0
O57 O 0.82316 0.40997 0.71692 0.0
O58 O 0.76045 0.39129 0.78147 0.0
Mg59 Mg 0.61875 0.36844 0.76737 0.0
C60 C 0.82629 0.40551 0.75922 0.0
C61 C 0.86282 0.4451 0.60053 0.0
O62 O 0.83217 0.47584 0.62499 0.0
O63 O 0.74724 0.32652 0.66464 0.0
O64 O 0.67734 0.31406 0.72903 0.0
O65 O 0.6591 0.46177 0.67028 0.0
O66 O 0.61808 0.40514 0.70611 0.0
C67 C 0.72002 0.30141 0.69491 0.0
C68 C 0.61007 0.4446 0.70051 0.0
O69 O 0.83258 0.40852 0.60722 0.0
Mg70 Mg 0.76331 0.02599 0.66229 0.0
O71 O 0.66218 0.01408 0.71887 0.0
O72 O 0.72509 0.03223 0.78345 0.0
Mg73 Mg 0.86735 0.05451 0.76954 0.0
C74 C 0.65906 0.01833 0.76116 0.0
C75 C 0.62265 -0.02047 0.60274 0.0
O76 O 0.65304 0.94882 0.62758 0.0
O77 O 0.73982 0.09767 0.66654 0.0
O78 O 0.81091 0.10932 0.73069 0.0
O79 O 0.82557 -0.038 0.67247 0.0
O80 O 0.86739 0.01827 0.70829 0.0
C81 C 0.76844 0.1225 0.69659 0.0
C82 C 0.8749 -0.02116 0.70271 0.0
O83 O 0.65301 0.01609 0.60915 0.0
Mg84 Mg 0.22155 0.5252 0.90154 0.0
O85 O 0.32241 0.51346 0.84476 0.0
O86 O 0.25905 0.53255 0.78034 0.0
Mg87 Mg 0.11699 0.55551 0.79462 0.0
C88 C 0.32527 0.51814 0.80249 0.0
C89 C 0.36263 0.47787 0.96154 0.0
O90 O 0.332 0.44705 0.93741 0.0
O91 O 0.24538 0.59667 0.89747 0.0
O92 O 0.17474 0.60964 0.83328 0.0
O93 O 0.15959 0.46161 0.8912 0.0
O94 O 0.11729 0.51843 0.85562 0.0
C95 C 0.21751 0.62203 0.86743 0.0
C96 C 0.11007 0.47895 0.86105 0.0
O97 O 0.33217 0.51452 0.95451 0.0
Mg98 Mg 0.26514 0.89683 0.90314 0.0
O99 O 0.16386 0.90904 0.8465 0.0
O100 O 0.22698 0.89083 0.78193 0.0
Mg101 Mg 0.36935 0.86801 0.79596 0.0
C102 C 0.16076 0.90482 0.8042 0.0
C103 C 0.12274 0.94344 0.96218 0.0
O104 O 0.15134 -0.026 0.93685 0.0
O105 O 0.24162 0.82535 0.89861 0.0
O106 O 0.31207 0.81338 0.83431 0.0
O107 O 0.32663 0.96064 0.89312 0.0
O108 O 0.36907 0.90432 0.85718 0.0
C109 C 0.26951 0.80045 0.86836 0.0
C110 C 0.37606 0.94374 0.86284 0.0
O111 O 0.15483 0.90696 0.95623 0.0
C112 C 0.44662 0.46227 0.28831 0.0
C113 C 0.4375 0.45348 0.33385 0.0
H114 H 0.52314 0.45325 0.22903 0.0
C115 C 0.49631 0.42493 0.35392 0.0
H116 H 0.40083 0.4834 0.27178 0.0
C117 C 0.56711 0.40777 0.32952 0.0
C118 C 0.57934 0.41837 0.28442 0.0
H119 H 0.49066 0.41773 0.38903 0.0
H120 H 0.61379 0.38721 0.34638 0.0
C121 C 0.51641 0.44471 0.26374 0.0
C122 C 0.91992 0.01433 0.32991 0.0
C123 C 0.90715 0.00343 0.28501 0.0
H124 H -0.00343 0.00454 0.38951 0.0
C125 C 0.96897 -0.02361 0.26482 0.0
H126 H 0.8741 0.03544 0.34639 0.0
C127 C 0.03837 0.9586 0.28966 0.0
C128 C 0.04819 -0.03217 0.33501 0.0
H129 H 0.96178 -0.0324 0.23025 0.0
H130 H 0.08352 0.93711 0.27345 0.0
C131 C 0.99033 -0.00306 0.35458 0.0
C132 C 0.94732 0.46027 0.27438 0.0
C133 C 0.93761 0.46915 0.22887 0.0
H134 H 0.02374 0.46942 0.33367 0.0
C135 C -0.00483 0.49796 0.20887 0.0
H136 H 0.90245 0.43896 0.29087 0.0
C137 C 0.06539 0.5153 0.23329 0.0
C138 C 0.07824 0.50465 0.27837 0.0
H139 H 0.98903 0.50525 0.17379 0.0
H140 H 0.11118 0.53606 0.21648 0.0
C141 C 0.01649 0.47803 0.29898 0.0
C142 C 0.49116 0.92651 0.2101 0.0
C143 C 0.54803 0.95581 0.2296 0.0
H144 H 0.37622 0.88782 0.21833 0.0
C145 C 0.53781 -0.03479 0.27489 0.0
H146 H 0.49773 0.91877 0.17521 0.0
C147 C 0.46899 0.94736 0.29974 0.0
C148 C 0.40813 0.9201 0.27961 0.0
H149 H 0.5822 -0.01315 0.29106 0.0
H150 H 0.46144 0.95627 0.33426 0.0
C151 C 0.42131 0.90908 0.23476 0.0
C152 C 0.4178 0.51476 0.73277 0.0
C153 C 0.40565 0.50395 0.77782 0.0
H154 H 0.49396 0.505 0.67313 0.0
C155 C 0.46819 0.47723 0.79822 0.0
H156 H 0.37142 0.53561 0.71612 0.0
C157 C 0.53764 0.45961 0.77347 0.0
C158 C 0.54679 0.4687 0.72799 0.0
H159 H 0.46151 0.46852 0.8329 0.0
H160 H 0.58328 0.43831 0.78983 0.0
C161 C 0.48825 0.49754 0.70818 0.0
C162 C 0.94761 -0.03685 0.77559 0.0
C163 C 0.93819 0.95444 0.73011 0.0
H164 H 0.02432 0.95388 0.83491 0.0
C165 C -0.00325 0.92586 0.71017 0.0
H166 H 0.90197 -0.01573 0.79203 0.0
C167 C 0.06754 0.90856 0.73464 0.0
C168 C 0.08 0.91903 0.77969 0.0
H169 H 0.99084 0.91871 0.67511 0.0
H170 H 0.11396 0.88794 0.71789 0.0
C171 C 0.01739 0.94544 0.80023 0.0
C172 C 0.03695 0.46436 0.78816 0.0
C173 C 0.04704 0.45499 0.83355 0.0
H174 H 0.96035 0.45564 0.72885 0.0
C175 C 0.98975 0.42591 0.85329 0.0
H176 H 0.08163 0.48587 0.77184 0.0
C177 C 0.91957 0.4087 0.82875 0.0
C178 C 0.90648 0.41974 0.7838 0.0
H179 H -0.00381 0.41822 0.88826 0.0
H180 H 0.87412 0.38764 0.84535 0.0
C181 C 0.96781 0.44673 0.76344 0.0
C182 C 0.49617 -0.00305 0.85525 0.0
C183 C 0.43869 -0.03187 0.8354 0.0
H184 H 0.61181 0.03528 0.84743 0.0
C185 C 0.44831 0.95937 0.78993 0.0
H186 H 0.49009 0.00417 0.89029 0.0
C187 C 0.51723 -0.02269 0.76523 0.0
C188 C 0.57883 0.00399 0.78569 0.0
H189 H 0.40346 0.93808 0.77353 0.0
H190 H 0.52437 -0.03118 0.73057 0.0
C191 C 0.56614 0.01447 0.83073 0.0
C192 C 0.02302 0.50287 0.52395 0.0
C193 C 0.05578 0.47073 0.49675 0.0
H194 H 0.93709 0.52004 0.57784 0.0
C195 C 0.0247 0.42994 0.50416 0.0
H196 H 0.04539 0.53461 0.51929 0.0
C197 C 0.9626 0.4215 0.53784 0.0
C198 C 0.92981 0.45363 0.56504 0.0
H199 H 0.04847 0.40432 0.48395 0.0
H200 H 0.94023 0.38976 0.54248 0.0
C201 C 0.96087 0.49443 0.55763 0.0
C202 C 0.46141 -0.00555 0.50578 0.0
C203 C 0.43085 0.95359 0.49856 0.0
H204 H 0.54517 0.0348 0.54408 0.0
C205 C 0.46371 0.92151 0.5261 0.0
H206 H 0.43755 0.02002 0.48531 0.0
C207 C 0.52541 0.93008 0.55991 0.0
C208 C 0.556 -0.02906 0.56712 0.0
H209 H 0.44171 0.88972 0.52162 0.0
H210 H 0.54926 0.9045 0.58037 0.0
C211 C 0.52315 0.00302 0.53959 0.0
C212 C 0.52353 0.42016 0.03866 0.0
C213 C 0.55622 0.45242 0.06551 0.0
H214 H 0.43747 0.40284 0.98497 0.0
C215 C 0.52486 0.49327 0.05769 0.0
H216 H 0.54613 0.38838 0.04364 0.0
C217 C 0.46255 0.50165 1.02394 0.0
C218 C 0.42984 0.4694 0.99709 0.0
H219 H 0.54856 0.51898 0.07762 0.0
H220 H 0.43997 0.53344 1.01897 0.0
C221 C 0.46119 0.42854 1.00491 0.0
C222 C 0.0257 0.92023 1.0261 0.0
C223 C 0.05614 0.9521 0.99785 0.0
H224 H 0.94209 0.90347 0.081 0.0
C225 C 0.02321 -0.00717 1.0044 0.0
H226 H 0.04958 0.88856 1.02213 0.0
C227 C 0.96158 0.00147 0.03826 0.0
C228 C 0.93113 -0.03039 0.06651 0.0
H229 H 0.04515 0.01824 0.98337 0.0
H230 H 0.93772 0.03315 0.04222 0.0
C231 C 0.96404 0.92887 0.05996 0.0
C232 C 0.2661 0.69152 0.3308 0.0
C233 C 0.25841 0.66785 0.37002 0.0
H234 H 0.26364 0.75148 0.30042 0.0
C235 C 0.24398 0.68878 0.41051 0.0
H236 H 0.27725 0.67672 0.29894 0.0
C237 C 0.23716 0.73262 0.41135 0.0
C238 C 0.24345 0.75575 0.37162 0.0
H239 H 0.23873 0.67142 0.44134 0.0
H240 H 0.22425 0.7482 0.44259 0.0
C241 C 0.2586 0.7346 0.3316 0.0
C242 C 0.75251 0.18912 0.23266 0.0
C243 C 0.74043 0.1676 0.19262 0.0
H244 H 0.77005 0.24724 0.26488 0.0
C245 C 0.73807 0.19031 0.15248 0.0
H246 H 0.75462 0.17261 0.26416 0.0
C247 C 0.74596 0.23407 0.15288 0.0
C248 C 0.75768 0.25533 0.19336 0.0
H249 H 0.7277 0.17447 0.12118 0.0
H250 H 0.74394 0.2511 0.12174 0.0
C251 C 0.76117 0.23212 0.23303 0.0
C252 C 0.75534 0.19113 0.73344 0.0
C253 C 0.75345 0.16816 0.69379 0.0
H254 H 0.74864 0.25051 0.76439 0.0
C255 C 0.74398 0.18972 0.65314 0.0
H256 H 0.76252 0.17575 0.7654 0.0
C257 C 0.73693 0.23356 0.65257 0.0
C258 C 0.73796 0.25606 0.69267 0.0
H259 H 0.74333 0.17286 0.62202 0.0
H260 H 0.72842 0.24964 0.62112 0.0
C261 C 0.74761 0.23421 0.73289 0.0
C262 C 0.23912 0.69003 0.83017 0.0
C263 C 0.23467 0.66736 0.87011 0.0
H264 H 0.25145 0.74908 0.79869 0.0
C265 C 0.23949 0.68902 0.91068 0.0
H266 H 0.23568 0.67447 0.7983 0.0
C267 C 0.24761 0.73277 0.91091 0.0
C268 C 0.25245 0.75507 0.87057 0.0
H269 H 0.23519 0.67234 0.94197 0.0
H270 H 0.25186 0.74896 0.94237 0.0
C271 C 0.24802 0.73302 0.8304 0.0
loop_
_geom_bond_atom_site_label_1
_geom_bond_atom_site_label_2
_geom_bond_distance
_geom_bond_site_symmetry_2
_ccdc_geom_bond_type
Mg0 O1 2.028 . S
Mg0 O7 1.986 . S
Mg0 O9 2.114 . S
Mg0 O10 2.251 . S
Mg0 O13 2.010 . S
O1 Mg0 2.028 . S
O1 C4 1.250 . S
O2 Mg3 2.028 . S
O2 C4 1.248 . S
Mg3 O2 2.028 . S
Mg3 O8 2.032 . S
Mg3 O10 2.079 . S
C4 O1 1.250 . S
C4 O2 1.248 . S
C5 O6 1.264 . S
C5 O13 1.249 . S
O6 C5 1.264 . S
O7 Mg0 1.986 . S
O7 C11 1.246 . S
O8 Mg3 2.032 . S
O8 C11 1.259 . S
O9 Mg0 2.114 . S
O9 C12 1.252 . S
O10 Mg0 2.251 . S
O10 Mg3 2.079 . S
O10 C12 1.273 . S
C11 O7 1.246 . S
C11 O8 1.259 . S
C12 O9 1.252 . S
C12 O10 1.273 . S
O13 Mg0 2.010 . S
O13 C5 1.249 . S
Mg14 O15 2.028 . S
Mg14 O21 1.986 . S
Mg14 O23 2.114 . S
Mg14 O24 2.251 . S
Mg14 O27 2.010 . S
O15 Mg14 2.028 . S
O15 C18 1.250 . S
O16 Mg17 2.028 . S
O16 C18 1.248 . S
Mg17 O16 2.028 . S
Mg17 O22 2.032 . S
Mg17 O24 2.079 . S
C18 O15 1.250 . S
C18 O16 1.248 . S
C19 O20 1.264 . S
C19 O27 1.249 . S
O20 C19 1.264 . S
O21 Mg14 1.986 . S
O21 C25 1.246 . S
O22 Mg17 2.032 . S
O22 C25 1.259 . S
O23 Mg14 2.114 . S
O23 C26 1.252 . S
O24 Mg14 2.251 . S
O24 Mg17 2.079 . S
O24 C26 1.273 . S
C25 O21 1.246 . S
C25 O22 1.259 . S
C26 O23 1.252 . S
C26 O24 1.273 . S
O27 Mg14 2.010 . S
O27 C19 1.249 . S
Mg28 O29 2.028 . S
Mg28 O35 1.986 . S
Mg28 O37 2.114 . S
Mg28 O38 2.251 . S
Mg28 O41 2.010 . S
O29 Mg28 2.028 . S
O29 C32 1.250 . S
O30 Mg31 2.028 . S
O30 C32 1.248 . S
Mg31 O30 2.028 . S
Mg31 O36 2.032 . S
Mg31 O38 2.079 . S
C32 O29 1.250 . S
C32 O30 1.248 . S
C33 O34 1.264 . S
C33 O41 1.249 . S
O34 C33 1.264 . S
O35 Mg28 1.986 . S
O35 C39 1.246 . S
O36 Mg31 2.032 . S
O36 C39 1.259 . S
O37 Mg28 2.114 . S
O37 C40 1.252 . S
O38 Mg28 2.251 . S
O38 Mg31 2.079 . S
O38 C40 1.273 . S
C39 O35 1.246 . S
C39 O36 1.259 . S
C40 O37 1.252 . S
C40 O38 1.273 . S
O41 Mg28 2.010 . S
O41 C33 1.249 . S
Mg42 O43 2.028 . S
Mg42 O49 1.986 . S
Mg42 O51 2.114 . S
Mg42 O52 2.251 . S
Mg42 O55 2.010 . S
O43 Mg42 2.028 . S
O43 C46 1.250 . S
O44 Mg45 2.028 . S
O44 C46 1.248 . S
Mg45 O44 2.028 . S
Mg45 O50 2.032 . S
Mg45 O52 2.079 . S
C46 O43 1.250 . S
C46 O44 1.248 . S
C47 O48 1.264 . S
C47 O55 1.249 . S
O48 C47 1.264 . S
O49 Mg42 1.986 . S
O49 C53 1.246 . S
O50 Mg45 2.032 . S
O50 C53 1.259 . S
O51 Mg42 2.114 . S
O51 C54 1.252 . S
O52 Mg42 2.251 . S
O52 Mg45 2.079 . S
O52 C54 1.273 . S
C53 O49 1.246 . S
C53 O50 1.259 . S
C54 O51 1.252 . S
C54 O52 1.273 . S
O55 Mg42 2.010 . S
O55 C47 1.249 . S
Mg56 O57 2.028 . S
Mg56 O63 1.986 . S
Mg56 O65 2.114 . S
Mg56 O66 2.251 . S
Mg56 O69 2.010 . S
O57 Mg56 2.028 . S
O57 C60 1.250 . S
O58 Mg59 2.028 . S
O58 C60 1.248 . S
Mg59 O58 2.028 . S
Mg59 O64 2.032 . S
Mg59 O66 2.079 . S
C60 O57 1.250 . S
C60 O58 1.248 . S
C61 O62 1.264 . S
C61 O69 1.249 . S
O62 C61 1.264 . S
O63 Mg56 1.986 . S
O63 C67 1.246 . S
O64 Mg59 2.032 . S
O64 C67 1.259 . S
O65 Mg56 2.114 . S
O65 C68 1.252 . S
O66 Mg56 2.251 . S
O66 Mg59 2.079 . S
O66 C68 1.273 . S
C67 O63 1.246 . S
C67 O64 1.259 . S
C68 O65 1.252 . S
C68 O66 1.273 . S
O69 Mg56 2.010 . S
O69 C61 1.249 . S
Mg70 O71 2.028 . S
Mg70 O77 1.986 . S
Mg70 O79 2.114 . S
Mg70 O80 2.251 . S
Mg70 O83 2.010 . S
O71 Mg70 2.028 . S
O71 C74 1.250 . S
O72 Mg73 2.028 . S
O72 C74 1.248 . S
Mg73 O72 2.028 . S
Mg73 O78 2.032 . S
Mg73 O80 2.079 . S
C74 O71 1.250 . S
C74 O72 1.248 . S
C75 O76 1.264 . S
C75 O83 1.249 . S
O76 C75 1.264 . S
O77 Mg70 1.986 . S
O77 C81 1.246 . S
O78 Mg73 2.032 . S
O78 C81 1.259 . S
O79 Mg70 2.114 . S
O79 C82 1.252 . S
O80 Mg70 2.251 . S
O80 Mg73 2.079 . S
O80 C82 1.273 . S
C81 O77 1.246 . S
C81 O78 1.259 . S
C82 O79 1.252 . S
C82 O80 1.273 . S
O83 Mg70 2.010 . S
O83 C75 1.249 . S
Mg84 O85 2.028 . S
Mg84 O91 1.986 . S
Mg84 O93 2.114 . S
Mg84 O94 2.251 . S
Mg84 O97 2.010 . S
O85 Mg84 2.028 . S
O85 C88 1.250 . S
O86 Mg87 2.028 . S
O86 C88 1.248 . S
Mg87 O86 2.028 . S
Mg87 O92 2.032 . S
Mg87 O94 2.079 . S
C88 O85 1.250 . S
C88 O86 1.248 . S
C89 O90 1.264 . S
C89 O97 1.249 . S
O90 C89 1.264 . S
O91 Mg84 1.986 . S
O91 C95 1.246 . S
O92 Mg87 2.032 . S
O92 C95 1.259 . S
O93 Mg84 2.114 . S
O93 C96 1.252 . S
O94 Mg84 2.251 . S
O94 Mg87 2.079 . S
O94 C96 1.273 . S
C95 O91 1.246 . S
C95 O92 1.259 . S
C96 O93 1.252 . S
C96 O94 1.273 . S
O97 Mg84 2.010 . S
O97 C89 1.249 . S
Mg98 O99 2.028 . S
Mg98 O105 1.986 . S
Mg98 O107 2.114 . S
Mg98 O108 2.251 . S
Mg98 O111 2.010 . S
O99 Mg98 2.028 . S
O99 C102 1.250 . S
O100 Mg101 2.028 . S
O100 C102 1.248 . S
Mg101 O100 2.028 . S
Mg101 O106 2.032 . S
Mg101 O108 2.079 . S
C102 O99 1.250 . S
C102 O100 1.248 . S
C103 O104 1.264 . S
C103 O111 1.249 . S
O104 C103 1.264 . S
O105 Mg98 1.986 . S
O105 C109 1.246 . S
O106 Mg101 2.032 . S
O106 C109 1.259 . S
O107 Mg98 2.114 . S
O107 C110 1.252 . S
O108 Mg98 2.251 . S
O108 Mg101 2.079 . S
O108 C110 1.273 . S
C109 O105 1.246 . S
C109 O106 1.259 . S
C110 O107 1.252 . S
C110 O108 1.273 . S
O111 Mg98 2.010 . S
O111 C103 1.249 . S
C112 C113 1.387 . S
C112 H116 0.950 . S
C112 C121 1.390 . S
C113 C112 1.387 . S
C113 C115 1.387 . S
H114 C121 0.950 . S
C115 C113 1.387 . S
C115 C117 1.390 . S
C115 H119 0.950 . S
H116 C112 0.950 . S
C117 C115 1.390 . S
C117 C118 1.387 . S
C117 H120 0.950 . S
C118 C117 1.387 . S
C118 C121 1.387 . S
H119 C115 0.950 . S
H120 C117 0.950 . S
C121 C112 1.390 . S
C121 H114 0.950 . S
C121 C118 1.387 . S
C122 C123 1.387 . S
C122 H126 0.950 . S
C122 C131 1.390 . S
C123 C122 1.387 . S
C123 C125 1.387 1_545 S
H124 C131 0.950 . S
C125 C123 1.387 1_565 S
C125 C127 1.390 . S
C125 H129 0.950 . S
H126 C122 0.950 . S
C127 C125 1.390 . S
C127 C128 1.387 . S
C127 H130 0.950 . S
C128 C127 1.387 . S
C128 C131 1.387 1_565 S
H129 C125 0.950 . S
H130 C127 0.950 . S
C131 C122 1.390 . S
C131 H124 0.950 . S
C131 C128 1.387 1_545 S
C132 C133 1.387 . S
C132 H136 0.950 . S
C132 C141 1.390 . S
C133 C132 1.387 . S
C133 C135 1.387 . S
H134 C141 0.950 1_455 S
C135 C133 1.387 . S
C135 C137 1.390 . S
C135 H139 0.950 . S
H136 C132 0.950 . S
C137 C135 1.390 . S
C137 C138 1.387 . S
C137 H140 0.950 . S
C138 C137 1.387 . S
C138 C141 1.387 . S
H139 C135 0.950 . S
H140 C137 0.950 . S
C141 C132 1.390 . S
C141 H134 0.950 1_655 S
C141 C138 1.387 . S
C142 C143 1.387 1_565 S
C142 H146 0.950 . S
C142 C151 1.390 . S
C143 C142 1.387 1_545 S
C143 C145 1.387 . S
H144 C151 0.950 . S
C145 C143 1.387 . S
C145 C147 1.390 1_545 S
C145 H149 0.950 . S
H146 C142 0.950 . S
C147 C145 1.390 1_565 S
C147 C148 1.387 . S
C147 H150 0.950 1_565 S
C148 C147 1.387 . S
C148 C151 1.387 . S
H149 C145 0.950 . S
H150 C147 0.950 1_545 S
C151 C142 1.390 . S
C151 H144 0.950 . S
C151 C148 1.387 . S
C152 C153 1.387 . S
C152 H156 0.950 . S
C152 C161 1.390 . S
C153 C152 1.387 . S
C153 C155 1.387 . S
H154 C161 0.950 . S
C155 C153 1.387 . S
C155 C157 1.390 . S
C155 H159 0.950 . S
H156 C152 0.950 . S
C157 C155 1.390 . S
C157 C158 1.387 . S
C157 H160 0.950 . S
C158 C157 1.387 . S
C158 C161 1.387 . S
H159 C155 0.950 . S
H160 C157 0.950 . S
C161 C152 1.390 . S
C161 H154 0.950 . S
C161 C158 1.387 . S
C162 C163 1.387 . S
C162 H166 0.950 . S
C162 C171 1.390 1_545 S
C163 C162 1.387 . S
C163 C165 1.387 1_545 S
H164 C171 0.950 1_545 S
C165 C163 1.387 1_565 S
C165 C167 1.390 . S
C165 H169 0.950 . S
H166 C162 0.950 . S
C167 C165 1.390 . S
C167 C168 1.387 . S
C167 H170 0.950 1_655 S
C168 C167 1.387 . S
C168 C171 1.387 . S
H169 C165 0.950 . S
H170 C167 0.950 1_455 S
C171 C162 1.390 1_565 S
C171 H164 0.950 1_565 S
C171 C168 1.387 . S
C172 C173 1.387 . S
C172 H176 0.950 . S
C172 C181 1.390 . S
C173 C172 1.387 . S
C173 C175 1.387 . S
H174 C181 0.950 . S
C175 C173 1.387 . S
C175 C177 1.390 . S
C175 H179 0.950 . S
H176 C172 0.950 . S
C177 C175 1.390 . S
C177 C178 1.387 . S
C177 H180 0.950 . S
C178 C177 1.387 . S
C178 C181 1.387 . S
H179 C175 0.950 . S
H180 C177 0.950 . S
C181 C172 1.390 . S
C181 H174 0.950 . S
C181 C178 1.387 . S
C182 C183 1.387 1_545 S
C182 H186 0.950 . S
C182 C191 1.390 . S
C183 C182 1.387 1_565 S
C183 C185 1.387 . S
H184 C191 0.950 . S
C185 C183 1.387 . S
C185 C187 1.390 . S
C185 H189 0.950 . S
H186 C182 0.950 . S
C187 C185 1.390 . S
C187 C188 1.387 1_565 S
C187 H190 0.950 . S
C188 C187 1.387 1_545 S
C188 C191 1.387 . S
H189 C185 0.950 . S
H190 C187 0.950 . S
C191 C182 1.390 . S
C191 H184 0.950 . S
C191 C188 1.387 . S
C192 C193 1.387 . S
C192 H196 0.950 . S
C192 C201 1.390 1_455 S
C193 C192 1.387 . S
C193 C195 1.387 . S
H194 C201 0.950 . S
C195 C193 1.387 . S
C195 C197 1.390 1_455 S
C195 H199 0.950 . S
H196 C192 0.950 . S
C197 C195 1.390 1_655 S
C197 C198 1.387 . S
C197 H200 0.950 . S
C198 C197 1.387 . S
C198 C201 1.387 . S
H199 C195 0.950 . S
H200 C197 0.950 . S
C201 C192 1.390 1_655 S
C201 H194 0.950 . S
C201 C198 1.387 . S
C202 C203 1.387 1_545 S
C202 H206 0.950 . S
C202 C211 1.390 . S
C203 C202 1.387 1_565 S
C203 C205 1.387 . S
H204 C211 0.950 . S
C205 C203 1.387 . S
C205 C207 1.390 . S
C205 H209 0.950 . S
H206 C202 0.950 . S
C207 C205 1.390 . S
C207 C208 1.387 1_565 S
C207 H210 0.950 . S
C208 C207 1.387 1_545 S
C208 C211 1.387 . S
H209 C205 0.950 . S
H210 C207 0.950 . S
C211 C202 1.390 . S
C211 H204 0.950 . S
C211 C208 1.387 . S
C212 C213 1.387 . S
C212 H216 0.950 . S
C212 C221 1.390 1_554 S
C213 C212 1.387 . S
C213 C215 1.387 . S
H214 C221 0.950 . S
C215 C213 1.387 . S
C215 C217 1.390 1_554 S
C215 H219 0.950 . S
H216 C212 0.950 . S
C217 C215 1.390 1_556 S
C217 C218 1.387 . S
C217 H220 0.950 . S
C218 C217 1.387 . S
C218 C221 1.387 . S
H219 C215 0.950 . S
H220 C217 0.950 . S
C221 C212 1.390 1_556 S
C221 H214 0.950 . S
C221 C218 1.387 . S
C222 C223 1.387 . S
C222 H226 0.950 . S
C222 C231 1.390 1_456 S
C223 C222 1.387 . S
C223 C225 1.387 1_565 S
H224 C231 0.950 . S
C225 C223 1.387 1_545 S
C225 C227 1.390 1_456 S
C225 H229 0.950 . S
H226 C222 0.950 . S
C227 C225 1.390 1_654 S
C227 C228 1.387 . S
C227 H230 0.950 . S
C228 C227 1.387 . S
C228 C231 1.387 1_545 S
H229 C225 0.950 . S
H230 C227 0.950 . S
C231 C222 1.390 1_654 S
C231 H224 0.950 . S
C231 C228 1.387 1_565 S
C232 C233 1.387 . S
C232 H236 0.950 . S
C232 C241 1.390 . S
C233 C232 1.387 . S
C233 C235 1.387 . S
H234 C241 0.950 . S
C235 C233 1.387 . S
C235 C237 1.390 . S
C235 H239 0.950 . S
H236 C232 0.950 . S
C237 C235 1.390 . S
C237 C238 1.387 . S
C237 H240 0.950 . S
C238 C237 1.387 . S
C238 C241 1.387 . S
H239 C235 0.950 . S
H240 C237 0.950 . S
C241 C232 1.390 . S
C241 H234 0.950 . S
C241 C238 1.387 . S
C242 C243 1.387 . S
C242 H246 0.950 . S
C242 C251 1.390 . S
C243 C242 1.387 . S
C243 C245 1.387 . S
H244 C251 0.950 . S
C245 C243 1.387 . S
C245 C247 1.390 . S
C245 H249 0.950 . S
H246 C242 0.950 . S
C247 C245 1.390 . S
C247 C248 1.387 . S
C247 H250 0.950 . S
C248 C247 1.387 . S
C248 C251 1.387 . S
H249 C245 0.950 . S
H250 C247 0.950 . S
C251 C242 1.390 . S
C251 H244 0.950 . S
C251 C248 1.387 . S
C252 C253 1.387 . S
C252 H256 0.950 . S
C252 C261 1.390 . S
C253 C252 1.387 . S
C253 C255 1.387 . S
H254 C261 0.950 . S
C255 C253 1.387 . S
C255 C257 1.390 . S
C255 H259 0.950 . S
H256 C252 0.950 . S
C257 C255 1.390 . S
C257 C258 1.387 . S
C257 H260 0.950 . S
C258 C257 1.387 . S
C258 C261 1.387 . S
H259 C255 0.950 . S
H260 C257 0.950 . S
C261 C252 1.390 . S
C261 H254 0.950 . S
C261 C258 1.387 . S
C262 C263 1.387 . S
C262 H266 0.950 . S
C262 C271 1.390 . S
C263 C262 1.387 . S
C263 C265 1.387 . S
H264 C271 0.950 . S
C265 C263 1.387 . S
C265 C267 1.390 . S
C265 H269 0.950 . S
H266 C262 0.950 . S
C267 C265 1.390 . S
C267 C268 1.387 . S
C267 H270 0.950 . S
C268 C267 1.387 . S
C268 C271 1.387 . S
H269 C265 0.950 . S
H270 C267 0.950 . S
C271 C262 1.390 . S
C271 H264 0.950 . S
C271 C268 1.387 . S
C113 C12 1.266 . S
C118 C32 1.229 . S
C123 C46 1.232 1_455 S
C128 C26 1.267 . S
C133 C40 1.266 . S
C138 C4 1.229 1_655 S
C143 C54 1.267 . S
C148 C18 1.232 . S
C153 C88 1.229 . S
C158 C68 1.266 . S
C163 C82 1.267 . S
C168 C102 1.232 1_655 S
C173 C96 1.267 . S
C178 C60 1.232 1_455 S
C183 C110 1.266 . S
C188 C74 1.229 . S
C193 C5 1.428 . S
C198 C61 1.428 . S
C203 C19 1.432 . S
C208 C75 1.432 . S
C213 C33 1.428 . S
C218 C89 1.428 . S
C223 C103 1.432 . S
C228 C47 1.432 . S
C233 C11 1.508 . S
C238 C25 1.508 . S
C243 C53 1.508 . S
C248 C39 1.508 . S
C253 C81 1.510 . S
C258 C67 1.510 . S
C263 C95 1.510 . S
C268 C109 1.510 . S
