# Generated by pormake.
# Topology uoz, (4)-cn, num edge types: 1
# Building blocks:
#     Node 0, Type 0, BuildingBlock: ICAMEG_clean_sbu_1, # of connection points: 4
#     Node 1, Type 0, BuildingBlock: ICAMEG_clean_sbu_1, # of connection points: 4
#     Node 2, Type 0, BuildingBlock: ICAMEG_clean_sbu_1, # of connection points: 4
#     Node 3, Type 0, BuildingBlock: ICAMEG_clean_sbu_1, # of connection points: 4
#     Node 4, Type 0, BuildingBlock: ICAMEG_clean_sbu_1, # of connection points: 4
#     Node 5, Type 0, BuildingBlock: ICAMEG_clean_sbu_1, # of connection points: 4
#     Node 6, Type 0, BuildingBlock: ICAMEG_clean_sbu_1, # of connection points: 4
#     Node 7, Type 0, BuildingBlock: ICAMEG_clean_sbu_1, # of connection points: 4
#     Node 8, Type 0, BuildingBlock: ICAMEG_clean_sbu_1, # of connection points: 4
#     Node 9, Type 0, BuildingBlock: ICAMEG_clean_sbu_1, # of connection points: 4
#     Node 10, Type 0, BuildingBlock: ICAMEG_clean_sbu_1, # of connection points: 4
#     Node 11, Type 0, BuildingBlock: ICAMEG_clean_sbu_1, # of connection points: 4
#     Node 12, Type 0, BuildingBlock: ICAMEG_clean_sbu_1, # of connection points: 4
#     Node 13, Type 0, BuildingBlock: ICAMEG_clean_sbu_1, # of connection points: 4
#     Node 14, Type 0, BuildingBlock: ICAMEG_clean_sbu_1, # of connection points: 4
#     Node 15, Type 0, BuildingBlock: ICAMEG_clean_sbu_1, # of connection points: 4
#     Edge 16, Type (0, 0), None
#     Edge 17, Type (0, 0), None
#     Edge 18, Type (0, 0), None
#     Edge 19, Type (0, 0), None
#     Edge 20, Type (0, 0), None
#     Edge 21, Type (0, 0), None
#     Edge 22, Type (0, 0), None
#     Edge 23, Type (0, 0), None
#     Edge 24, Type (0, 0), None
#     Edge 25, Type (0, 0), None
#     Edge 26, Type (0, 0), None
#     Edge 27, Type (0, 0), None
#     Edge 28, Type (0, 0), None
#     Edge 29, Type (0, 0), None
#     Edge 30, Type (0, 0), None
#     Edge 31, Type (0, 0), None
#     Edge 32, Type (0, 0), None
#     Edge 33, Type (0, 0), None
#     Edge 34, Type (0, 0), None
#     Edge 35, Type (0, 0), None
#     Edge 36, Type (0, 0), None
#     Edge 37, Type (0, 0), None
#     Edge 38, Type (0, 0), None
#     Edge 39, Type (0, 0), None
#     Edge 40, Type (0, 0), None
#     Edge 41, Type (0, 0), None
#     Edge 42, Type (0, 0), None
#     Edge 43, Type (0, 0), None
#     Edge 44, Type (0, 0), None
#     Edge 45, Type (0, 0), None
#     Edge 46, Type (0, 0), None
#     Edge 47, Type (0, 0), None
# Relax obj value: 0.304
# Max RMSD: 0.238
# Mean RMSD: 0.238
data_MOF--net-uoz--node1-ICAMEG_clean_sbu_1--edge1-none
_symmetry_space_group_name_H-M    P1
_symmetry_Int_Tables_number       1
_symmetry_cell_setting            triclinic
loop_
_symmetry_equiv_pos_as_xyz
'x, y, z'
_cell_length_a     29.882157
_cell_length_b     29.894025
_cell_length_c     11.902163
_cell_angle_alpha  90.017895
_cell_angle_beta   90.031914
_cell_angle_gamma 89.999508
loop_
_atom_site_label
_atom_site_type_symbol
_atom_site_fract_x
_atom_site_fract_y
_atom_site_fract_z
_atom_type_partial_charge
Co0 Co 0.00699 0.59231 0.09985 0.0
Co1 Co 0.98435 0.60965 0.37998 0.0
O2 O 0.00154 0.57676 0.25488 0.0
C3 C 0.93014 0.53008 0.05927 0.0
O4 O 0.89784 0.55885 0.04062 0.0
C5 C 0.00215 0.52079 0.53283 0.0
O6 O 0.95918 0.51763 0.54766 0.0
O7 O 0.03961 0.65588 0.31236 0.0
O8 O 0.04156 0.6437 0.12438 0.0
H9 H 0.95453 0.77494 0.51211 0.0
H10 H 0.02906 0.50506 0.20229 0.0
O11 O 0.9702 0.54149 0.07806 0.0
H12 H 0.17098 0.55613 0.04219 0.0
H13 H 0.0196 0.53085 0.73058 0.0
H14 H 0.05787 0.66015 0.949 0.0
H15 H 0.1045 0.60111 0.02007 0.0
H16 H 0.97542 0.54763 0.88661 0.0
O17 O 0.01858 0.55726 0.48019 0.0
H18 H 0.97544 0.70597 0.39642 0.0
H19 H 0.95363 0.58819 0.64201 0.0
H20 H 0.09464 0.65019 0.77323 0.0
H21 H 0.09862 0.46726 0.25715 0.0
H22 H 0.07748 0.58315 0.65709 0.0
H23 H 0.17081 0.49311 0.17853 0.0
O24 O 0.95275 0.63095 0.10599 0.0
H25 H 0.89141 0.46975 0.31241 0.0
H26 H 0.88735 0.62542 0.43316 0.0
H27 H 0.81904 0.58076 0.44594 0.0
H28 H 0.82082 0.50144 0.38604 0.0
H29 H 0.95944 0.5158 0.31048 0.0
H30 H 0.93374 0.63853 0.83386 0.0
H31 H 0.93023 0.77144 0.73725 0.0
O32 O 0.94791 0.64857 0.28986 0.0
C33 C 0.05321 0.66681 0.20463 0.0
C34 C 0.95211 0.74359 0.55469 0.0
C35 C 0.93762 0.65505 0.75364 0.0
N36 N 0.96418 0.64693 0.51644 0.0
C37 C 0.96372 0.69764 0.47934 0.0
C38 C 0.95212 0.6238 0.634 0.0
C39 C 0.93838 0.74064 0.69246 0.0
C40 C 0.0602 0.51756 0.17009 0.0
N41 N 0.06103 0.5553 0.10475 0.0
C42 C 0.09959 0.4959 0.20189 0.0
C43 C 0.14008 0.51052 0.15835 0.0
C44 C 0.14041 0.54627 0.08356 0.0
C45 C 0.10121 0.57016 0.06421 0.0
C46 C 0.02518 0.56187 0.76901 0.0
C47 C 0.04657 0.63276 0.89981 0.0
C48 C 0.00136 0.57059 0.86582 0.0
N49 N 0.01534 0.60271 0.93806 0.0
C50 C 0.06857 0.6272 0.79763 0.0
C51 C 0.05873 0.59027 0.73275 0.0
C52 C 0.93545 0.65199 0.1897 0.0
C53 C 0.89075 0.50362 0.34434 0.0
C54 C 0.88982 0.59054 0.42011 0.0
C55 C 0.85033 0.56549 0.42157 0.0
C56 C 0.85112 0.5213 0.38578 0.0
N57 N 0.92991 0.57209 0.39044 0.0
C58 C 0.92938 0.53011 0.34357 0.0
Co59 Co 0.65954 0.73896 0.34799 0.0
Co60 Co 0.64652 0.71875 0.62513 0.0
O61 O 0.67913 0.73212 0.49968 0.0
C62 C 0.73469 0.67481 0.31159 0.0
O63 O 0.71356 0.63685 0.32737 0.0
C64 C 0.73453 0.74565 0.77965 0.0
O65 O 0.74351 0.70348 0.79583 0.0
O66 O 0.60297 0.77581 0.55895 0.0
O67 O 0.60029 0.76088 0.37472 0.0
H68 H 0.48075 0.69884 0.75971 0.0
H69 H 0.74384 0.77116 0.44558 0.0
O70 O 0.71605 0.7129 0.31613 0.0
H71 H 0.66736 0.90893 0.33646 0.0
H72 H 0.70827 0.73874 0.96306 0.0
H73 H 0.59174 0.79332 0.2033 0.0
H74 H 0.63366 0.83879 0.2959 0.0
H75 H 0.69385 0.70121 0.13287 0.0
O76 O 0.69657 0.75694 0.72504 0.0
H77 H 0.55072 0.71438 0.63948 0.0
H78 H 0.66728 0.68243 0.88002 0.0
H79 H 0.60444 0.83217 0.02954 0.0
H80 H 0.77095 0.8423 0.51954 0.0
H81 H 0.66531 0.8057 0.90216 0.0
H82 H 0.73405 0.91233 0.46348 0.0
O83 O 0.63147 0.67929 0.35155 0.0
H84 H 0.78969 0.62993 0.58293 0.0
H85 H 0.63172 0.62217 0.68751 0.0
H86 H 0.67762 0.55501 0.70563 0.0
H87 H 0.75776 0.5583 0.6524 0.0
H88 H 0.74251 0.69628 0.57209 0.0
H89 H 0.61611 0.66447 0.07302 0.0
H90 H 0.48415 0.66871 0.97919 0.0
O91 O 0.6082 0.68039 0.53298 0.0
C92 C 0.58744 0.78468 0.45251 0.0
C93 C 0.5121 0.69375 0.80015 0.0
C94 C 0.5996 0.67191 0.995 0.0
N95 N 0.60876 0.69975 0.75945 0.0
C96 C 0.55813 0.70269 0.72311 0.0
C97 C 0.63147 0.68524 0.8755 0.0
C98 C 0.51498 0.67835 0.93707 0.0
C99 C 0.72557 0.80096 0.42458 0.0
N100 N 0.68685 0.79863 0.36259 0.0
C101 C 0.74121 0.84129 0.46799 0.0
C102 C 0.71986 0.88059 0.43834 0.0
C103 C 0.68264 0.87881 0.36835 0.0
C104 C 0.66515 0.83767 0.33716 0.0
C105 C 0.68322 0.7521 0.01345 0.0
C106 C 0.61914 0.7825 0.15423 0.0
C107 C 0.67539 0.73088 0.11412 0.0
N108 N 0.64679 0.74875 0.18932 0.0
C109 C 0.62541 0.80423 0.05213 0.0
C110 C 0.65879 0.78928 0.98131 0.0
C111 C 0.60954 0.66328 0.43551 0.0
C112 C 0.75509 0.62802 0.60911 0.0
C113 C 0.6667 0.62522 0.67437 0.0
C114 C 0.69258 0.58638 0.68003 0.0
C115 C 0.73734 0.58807 0.6488 0.0
N116 N 0.68481 0.66544 0.6443 0.0
C117 C 0.72779 0.66584 0.60331 0.0
Co118 Co 0.48435 0.3979 0.60219 0.0
Co119 Co 0.50627 0.38139 0.88392 0.0
O120 O 0.48913 0.41381 0.75742 0.0
C121 C 0.56189 0.45985 0.56553 0.0
O122 O 0.59487 0.43111 0.55682 0.0
C123 C 0.4588 0.47023 0.0291 0.0
O124 O 0.41685 0.47903 0.05331 0.0
O125 O 0.45326 0.3332 0.81151 0.0
O126 O 0.4492 0.34709 0.62519 0.0
H127 H 0.53878 0.21565 0.01373 0.0
H128 H 0.46134 0.48515 0.70085 0.0
O129 O 0.5215 0.44855 0.58028 0.0
H130 H 0.32048 0.43311 0.53691 0.0
H131 H 0.47999 0.45492 0.22382 0.0
H132 H 0.4343 0.32958 0.45038 0.0
H133 H 0.38728 0.38867 0.51749 0.0
H134 H 0.51919 0.44036 0.38898 0.0
O135 O 0.46621 0.43071 0.97668 0.0
H136 H 0.51623 0.28521 0.89824 0.0
H137 H 0.53711 0.40261 0.1442 0.0
H138 H 0.39909 0.33914 0.27314 0.0
H139 H 0.39113 0.52277 0.75352 0.0
H140 H 0.41863 0.40379 0.15474 0.0
H141 H 0.31954 0.49632 0.67287 0.0
O142 O 0.5383 0.35892 0.61145 0.0
H143 H 0.59727 0.52254 0.81169 0.0
H144 H 0.60025 0.37601 0.98726 0.0
H145 H 0.66384 0.42485 0.01121 0.0
H146 H 0.66307 0.49968 0.92236 0.0
H147 H 0.53237 0.47295 0.79895 0.0
H148 H 0.55823 0.35179 0.33709 0.0
H149 H 0.56294 0.21909 0.23914 0.0
O150 O 0.54702 0.34516 0.79715 0.0
C151 C 0.4389 0.3229 0.70407 0.0
C152 C 0.54015 0.24699 0.0568 0.0
C153 C 0.55345 0.33537 0.25703 0.0
N154 N 0.52563 0.34364 0.02071 0.0
C155 C 0.52702 0.29304 0.98238 0.0
C156 C 0.53772 0.36663 0.13831 0.0
C157 C 0.55429 0.24987 0.19473 0.0
C158 C 0.4304 0.47263 0.66811 0.0
N159 N 0.43017 0.43483 0.60332 0.0
C160 C 0.39069 0.49407 0.69846 0.0
C161 C 0.35049 0.47912 0.65376 0.0
C162 C 0.35078 0.44331 0.57916 0.0
C163 C 0.39027 0.41972 0.5613 0.0
C164 C 0.47029 0.42625 0.26863 0.0
C165 C 0.44613 0.35683 0.40162 0.0
C166 C 0.4924 0.41833 0.36831 0.0
N167 N 0.47715 0.38693 0.44075 0.0
C168 C 0.42498 0.36214 0.29863 0.0
C169 C 0.43619 0.39819 0.23261 0.0
C170 C 0.55756 0.33993 0.69566 0.0
C171 C 0.59691 0.49086 0.85536 0.0
C172 C 0.59669 0.40886 0.9582 0.0
C173 C 0.63426 0.43641 0.96768 0.0
C174 C 0.63407 0.47808 0.91701 0.0
N175 N 0.55804 0.42261 0.90703 0.0
C176 C 0.55961 0.46244 0.84999 0.0
Co177 Co 0.83294 0.25003 0.85121 0.0
Co178 Co 0.84766 0.27089 0.12791 0.0
O179 O 0.81475 0.25705 0.00337 0.0
C180 C 0.75901 0.31562 0.81465 0.0
O181 O 0.7815 0.35322 0.82196 0.0
C182 C 0.75896 0.2448 0.28146 0.0
O183 O 0.74989 0.2871 0.29537 0.0
O184 O 0.89172 0.21429 0.05992 0.0
O185 O 0.89189 0.2273 0.87425 0.0
H186 H 0.98833 0.30564 0.37414 0.0
H187 H 0.74836 0.21959 0.95038 0.0
O188 O 0.77673 0.27712 0.82175 0.0
H189 H 0.82178 0.0801 0.84306 0.0
H190 H 0.78731 0.25745 0.46177 0.0
H191 H 0.89591 0.19102 0.70646 0.0
H192 H 0.85787 0.14922 0.80622 0.0
H193 H 0.80062 0.29075 0.63763 0.0
O194 O 0.7972 0.23312 0.22822 0.0
H195 H 0.94316 0.27525 0.14183 0.0
H196 H 0.82754 0.30936 0.38011 0.0
H197 H 0.88431 0.15674 0.52728 0.0
H198 H 0.71998 0.14913 0.02586 0.0
H199 H 0.8276 0.18882 0.39743 0.0
H200 H 0.75581 0.07813 0.97187 0.0
O201 O 0.86186 0.30939 0.85335 0.0
H202 H 0.7054 0.36057 0.07602 0.0
H203 H 0.862 0.36734 0.19338 0.0
H204 H 0.81632 0.43475 0.20801 0.0
H205 H 0.73682 0.43199 0.14835 0.0
H206 H 0.75181 0.29373 0.07142 0.0
H207 H 0.87755 0.32771 0.57431 0.0
H208 H 0.01166 0.32603 0.50078 0.0
O209 O 0.88549 0.30923 0.03483 0.0
C210 C 0.90674 0.20526 0.95288 0.0
C211 C 0.98323 0.29649 0.29869 0.0
C212 C 0.89448 0.31925 0.49734 0.0
N213 N 0.8859 0.28987 0.26268 0.0
C214 C 0.93628 0.28706 0.22558 0.0
C215 C 0.86322 0.30518 0.37763 0.0
C216 C 0.98073 0.31353 0.44201 0.0
C217 C 0.76597 0.18936 0.92974 0.0
N218 N 0.80478 0.19078 0.86794 0.0
C219 C 0.74961 0.14944 0.97409 0.0
C220 C 0.77019 0.10962 0.94533 0.0
C221 C 0.80731 0.11055 0.87521 0.0
C222 C 0.82595 0.15123 0.84473 0.0
C223 C 0.81023 0.2413 0.51357 0.0
C224 C 0.87007 0.20465 0.65641 0.0
C225 C 0.81768 0.26038 0.61718 0.0
N226 N 0.8444 0.23981 0.69235 0.0
C227 C 0.86455 0.18542 0.55111 0.0
C228 C 0.83329 0.20349 0.47909 0.0
C229 C 0.88365 0.326 0.93695 0.0
C230 C 0.73959 0.3622 0.10574 0.0
C231 C 0.82719 0.36445 0.17772 0.0
C232 C 0.80147 0.40345 0.18145 0.0
C233 C 0.75709 0.40206 0.14666 0.0
N234 N 0.80923 0.32428 0.14648 0.0
C235 C 0.7666 0.32411 0.10288 0.0
Co236 Co 0.99257 0.40851 0.00796 0.0
Co237 Co 0.97424 0.39506 0.7284 0.0
O238 O 0.98759 0.42787 0.85494 0.0
C239 C 0.92836 0.48354 0.03113 0.0
O240 O 0.89291 0.46314 0.99095 0.0
C241 C 0.03019 0.47941 0.57662 0.0
O242 O 0.07325 0.48211 0.55589 0.0
O243 O 0.02868 0.34956 0.79842 0.0
O244 O 0.01381 0.34911 0.98273 0.0
H245 H 0.94564 0.22957 0.59635 0.0
H246 H 0.02889 0.49056 0.91262 0.0
O247 O 0.96676 0.46541 0.03812 0.0
H248 H 0.16256 0.41075 0.03845 0.0
H249 H -0.00406 0.45953 0.39487 0.0
H250 H 0.04045 0.33737 0.1557 0.0
H251 H 0.09044 0.37906 0.06882 0.0
H252 H 0.95727 0.44764 0.22339 0.0
O253 O 0.01646 0.4428 0.63389 0.0
H254 H 0.9647 0.29937 0.71553 0.0
H255 H 0.94092 0.41657 0.47155 0.0
H256 H 0.08151 0.3487 0.32595 0.0
H257 H 0.10242 0.51607 0.84731 0.0
H258 H 0.06086 0.4108 0.45135 0.0
H259 H 0.17033 0.47767 0.91468 0.0
O260 O 0.93256 0.38136 0.00087 0.0
H261 H 0.8946 0.54322 0.75025 0.0
H262 H 0.87654 0.38386 0.67164 0.0
H263 H 0.81219 0.43338 0.64697 0.0
H264 H 0.82089 0.51439 0.68761 0.0
H265 H 0.95861 0.49191 0.76101 0.0
H266 H 0.92169 0.36519 0.27688 0.0
H267 H 0.9181 0.23363 0.3754 0.0
O268 O 0.93316 0.35887 0.81863 0.0
C269 C 0.03686 0.33463 0.90547 0.0
C270 C 0.94241 0.26117 0.55539 0.0
C271 C 0.92787 0.34891 0.35618 0.0
N272 N 0.95463 0.35763 0.59336 0.0
C273 C 0.95391 0.30707 0.63129 0.0
C274 C 0.94234 0.3806 0.4759 0.0
C275 C 0.92833 0.26424 0.41782 0.0
C276 C 0.05787 0.47212 0.93737 0.0
N277 N 0.05323 0.43388 -0.00063 0.0
C278 C 0.0995 0.48666 0.89956 0.0
C279 C 0.13761 0.46469 0.93601 0.0
C280 C 0.13339 0.42753 0.00536 0.0
C281 C 0.09111 0.41106 0.02994 0.0
C282 C 0.00803 0.43396 0.34198 0.0
C283 C 0.03189 0.36606 0.2034 0.0
C284 C 0.98566 0.42712 0.24182 0.0
N285 N 0.00043 0.39613 0.16769 0.0
C286 C 0.05519 0.37172 0.30321 0.0
C287 C 0.04352 0.40658 0.37283 0.0
C288 C 0.91641 0.35978 0.91648 0.0
C289 C 0.89072 0.50842 0.72701 0.0
C290 C 0.88193 0.41895 0.67666 0.0
C291 C 0.8447 0.44701 0.66803 0.0
C292 C 0.8494 0.49227 0.69214 0.0
N293 N 0.9235 0.4354 0.70105 0.0
C294 C 0.92717 0.47917 0.73242 0.0
Co295 Co 0.84208 0.75795 0.26073 0.0
Co296 Co 0.85905 0.73394 0.98164 0.0
O297 O 0.82572 0.74966 0.10705 0.0
C298 C 0.78141 0.67924 0.28828 0.0
O299 O 0.8081 0.64658 0.25778 0.0
C300 C 0.76978 0.77963 0.83027 0.0
O301 O 0.76039 0.82169 0.80912 0.0
O302 O 0.90626 0.788 0.05034 0.0
O303 O 0.89227 0.7937 0.23557 0.0
H304 H 0.02498 0.70993 0.8458 0.0
H305 H 0.75351 0.77545 0.15949 0.0
O306 O 0.79277 0.72004 0.29015 0.0
H307 H 0.79894 0.92174 0.304 0.0
H308 H 0.79769 0.74648 0.65288 0.0
H309 H 0.90222 0.82064 0.40696 0.0
H310 H 0.84758 0.85828 0.32833 0.0
H311 H 0.81065 0.71543 0.4759 0.0
O312 O 0.80844 0.77221 0.88691 0.0
H313 H 0.95569 0.72821 0.96638 0.0
H314 H 0.83775 0.69576 0.73185 0.0
H315 H 0.89212 0.85042 0.58942 0.0
H316 H 0.71318 0.84273 0.098 0.0
H317 H 0.83876 0.81558 0.71934 0.0
H318 H 0.73569 0.91678 0.16966 0.0
O319 O 0.88274 0.70481 0.25553 0.0
H320 H 0.71637 0.64334 0.02517 0.0
H321 H 0.87261 0.63795 0.91044 0.0
H322 H 0.82594 0.57211 0.88115 0.0
H323 H 0.74625 0.57452 0.93907 0.0
H324 H 0.76485 0.70989 0.04263 0.0
H325 H 0.88701 0.67828 0.53667 0.0
H326 H 0.02039 0.68102 0.62512 0.0
O327 O 0.89633 0.69527 0.06976 0.0
C328 C 0.91674 0.803 0.15665 0.0
C329 C 0.99346 0.70635 0.80546 0.0
C330 C 0.90426 0.68559 0.61357 0.0
N331 N 0.89692 0.71466 0.84767 0.0
C332 C 0.94774 0.71678 0.88285 0.0
C333 C 0.87351 0.69966 0.73346 0.0
C334 C 0.98993 0.69097 0.66863 0.0
C335 C 0.76513 0.80756 0.18778 0.0
N336 N 0.80309 0.81087 0.25214 0.0
C337 C 0.74183 0.84554 0.15244 0.0
C338 C 0.75461 0.88721 0.192 0.0
C339 C 0.79049 0.89018 0.26566 0.0
C340 C 0.81643 0.85245 0.28722 0.0
C341 C 0.82007 0.76398 0.60089 0.0
C342 C 0.87853 0.80356 0.45801 0.0
C343 C 0.82733 0.74618 0.49587 0.0
N344 N 0.85322 0.76813 0.42057 0.0
C345 C 0.87325 0.82134 0.56458 0.0
C346 C 0.84305 0.8018 0.63651 0.0
C347 C 0.90188 0.68541 0.17134 0.0
C348 C 0.75029 0.6429 0.99395 0.0
C349 C 0.83775 0.64124 0.92395 0.0
C350 C 0.81145 0.60289 0.91231 0.0
C351 C 0.76705 0.60405 0.94601 0.0
N352 N 0.82017 0.68114 0.95894 0.0
C353 C 0.77771 0.68088 0.00154 0.0
Co354 Co 0.49969 0.58105 0.50495 0.0
Co355 Co 0.51923 0.59537 0.22587 0.0
O356 O 0.50463 0.56268 0.35148 0.0
C357 C 0.56429 0.50599 0.53357 0.0
O358 O 0.60147 0.52768 0.51187 0.0
C359 C 0.49252 0.50746 0.07175 0.0
O360 O 0.53465 0.49992 0.05096 0.0
O361 O 0.46358 0.64026 0.29584 0.0
O362 O 0.47804 0.64038 0.48127 0.0
H363 H 0.56043 0.73537 0.98172 0.0
H364 H 0.46428 0.49891 0.40707 0.0
O365 O 0.52569 0.52389 0.53199 0.0
H366 H 0.32966 0.57687 0.53299 0.0
H367 H 0.49076 0.52231 0.87676 0.0
H368 H 0.44887 0.64922 0.65348 0.0
H369 H 0.40124 0.60948 0.56416 0.0
H370 H 0.53459 0.54085 0.71774 0.0
O371 O 0.48083 0.54525 0.1268 0.0
H372 H 0.52813 0.69074 0.2126 0.0
H373 H 0.55127 0.57449 0.96596 0.0
H374 H 0.41011 0.63778 0.82736 0.0
H375 H 0.39123 0.47291 0.34018 0.0
H376 H 0.4295 0.57185 0.94541 0.0
H377 H 0.32272 0.51091 0.40566 0.0
O378 O 0.55976 0.60842 0.49894 0.0
H379 H 0.60571 0.45108 0.27269 0.0
H380 H 0.61632 0.60862 0.16816 0.0
H381 H 0.6831 0.56192 0.15295 0.0
H382 H 0.67835 0.48188 0.20719 0.0
H383 H 0.53978 0.49917 0.2774 0.0
H384 H 0.57284 0.62472 0.77461 0.0
H385 H 0.58033 0.75836 0.85427 0.0
O386 O 0.5583 0.6327 0.31839 0.0
C387 C 0.4553 0.65518 0.40354 0.0
C388 C 0.55156 0.73028 0.05735 0.0
C389 C 0.56702 0.64152 0.85352 0.0
N390 N 0.53877 0.63314 0.08962 0.0
C391 C 0.53949 0.68343 0.12871 0.0
C392 C 0.55149 0.61032 0.97242 0.0
C393 C 0.56731 0.72772 0.91329 0.0
C394 C 0.43509 0.51696 0.43224 0.0
N395 N 0.43923 0.55518 0.49486 0.0
C396 C 0.3937 0.50217 0.3932 0.0
C397 C 0.35529 0.52386 0.42864 0.0
C398 C 0.35902 0.56071 0.49925 0.0
C399 C 0.40105 0.57756 0.5249 0.0
C400 C 0.48308 0.55219 0.83514 0.0
C401 C 0.45947 0.62169 0.70259 0.0
C402 C 0.50676 0.56151 0.73829 0.0
N403 N 0.49167 0.5927 0.66555 0.0
C404 C 0.43699 0.61552 0.80382 0.0
C405 C 0.4481 0.57926 0.86974 0.0
C406 C 0.57583 0.63043 0.41523 0.0
C407 C 0.6082 0.48549 0.24519 0.0
C408 C 0.61265 0.57368 0.17918 0.0
C409 C 0.65126 0.54733 0.17622 0.0
C410 C 0.64877 0.50268 0.20812 0.0
N411 N 0.57192 0.55617 0.20687 0.0
C412 C 0.57061 0.51322 0.24762 0.0
Co413 Co 0.65087 0.23392 0.76396 0.0
Co414 Co 0.63375 0.25762 0.48444 0.0
O415 O 0.66719 0.24263 0.61034 0.0
C416 C 0.71224 0.31208 0.79099 0.0
O417 O 0.68654 0.34485 0.75606 0.0
C418 C 0.72341 0.21138 0.33326 0.0
O419 O 0.73234 0.16912 0.31328 0.0
O420 O 0.58716 0.20307 0.55259 0.0
O421 O 0.60043 0.19846 0.73833 0.0
H422 H 0.46815 0.27858 0.35241 0.0
H423 H 0.73941 0.21692 0.66279 0.0
O424 O 0.70014 0.27155 0.79451 0.0
H425 H 0.6942 0.06995 0.80275 0.0
H426 H 0.69421 0.24576 0.15789 0.0
H427 H 0.59166 0.17008 0.90881 0.0
H428 H 0.64524 0.13312 0.8279 0.0
H429 H 0.68156 0.27658 0.97989 0.0
O430 O 0.68489 0.21948 0.3901 0.0
H431 H 0.53774 0.26174 0.46948 0.0
H432 H 0.65404 0.29689 0.23283 0.0
H433 H 0.60175 0.14027 0.0911 0.0
H434 H 0.77981 0.15001 0.59957 0.0
H435 H 0.65372 0.17627 0.22309 0.0
H436 H 0.75757 0.07565 0.66923 0.0
O437 O 0.61056 0.28718 0.75982 0.0
H438 H 0.77672 0.34735 0.52286 0.0
H439 H 0.61934 0.35383 0.41578 0.0
H440 H 0.66601 0.42001 0.38892 0.0
H441 H 0.74614 0.417 0.44213 0.0
H442 H 0.72814 0.28088 0.54001 0.0
H443 H 0.6035 0.31175 0.03649 0.0
H444 H 0.47081 0.30654 0.12803 0.0
O445 O 0.5961 0.29623 0.57394 0.0
C446 C 0.57654 0.18831 0.65887 0.0
C447 C 0.49903 0.28272 0.30966 0.0
C448 C 0.58683 0.30581 0.11568 0.0
N449 N 0.59571 0.27648 0.34977 0.0
C450 C 0.54516 0.27322 0.38578 0.0
C451 C 0.61838 0.29222 0.23515 0.0
C452 C 0.50163 0.29846 0.17254 0.0
C453 C 0.72784 0.18468 0.69023 0.0
N454 N 0.68979 0.181 0.75406 0.0
C455 C 0.75124 0.14692 0.65396 0.0
C456 C 0.73857 0.10508 0.6923 0.0
C457 C 0.70262 0.10171 0.76548 0.0
C458 C 0.67647 0.13923 0.78758 0.0
C459 C 0.67227 0.22799 0.105 0.0
C460 C 0.615 0.18744 0.9604 0.0
C461 C 0.6652 0.24562 -0.00038 0.0
N462 N 0.63983 0.2233 0.92368 0.0
C463 C 0.62016 0.16975 0.06705 0.0
C464 C 0.64963 0.18988 0.14003 0.0
C465 C 0.59111 0.30646 0.67596 0.0
C466 C 0.7425 0.34819 0.49363 0.0
C467 C 0.65434 0.35053 0.42828 0.0
C468 C 0.68064 0.38895 0.41749 0.0
C469 C 0.72535 0.38745 0.44871 0.0
N470 N 0.67221 0.31047 0.4611 0.0
C471 C 0.71505 0.31028 0.50105 0.0
Co472 Co 0.33361 0.23869 0.75949 0.0
Co473 Co 0.34652 0.21962 0.47908 0.0
O474 O 0.31406 0.23337 0.60624 0.0
C475 C 0.25874 0.1746 0.79583 0.0
O476 O 0.28008 0.13672 0.78051 0.0
C477 C 0.25958 0.2463 0.323 0.0
O478 O 0.25248 0.20407 0.30396 0.0
O479 O 0.39086 0.27591 0.54769 0.0
O480 O 0.39277 0.26023 0.73167 0.0
H481 H 0.48691 0.18074 0.23579 0.0
H482 H 0.24994 0.27334 0.6636 0.0
O483 O 0.27707 0.21278 0.78993 0.0
H484 H 0.33011 0.40815 0.78223 0.0
H485 H 0.27606 0.26263 0.12904 0.0
H486 H 0.40829 0.28283 0.90526 0.0
H487 H 0.36118 0.33614 0.82099 0.0
H488 H 0.2898 0.21242 0.97786 0.0
O489 O 0.29676 0.25829 0.37984 0.0
H490 H 0.44164 0.2109 0.46724 0.0
H491 H 0.32635 0.18982 0.21468 0.0
H492 H 0.39871 0.32928 0.06843 0.0
H493 H 0.2244 0.34601 0.59533 0.0
H494 H 0.33066 0.31987 0.18686 0.0
H495 H 0.26327 0.41462 0.65714 0.0
O496 O 0.36115 0.17892 0.75296 0.0
H497 H 0.20242 0.1328 0.52497 0.0
H498 H 0.3597 0.1229 0.41674 0.0
H499 H 0.31275 0.05645 0.39796 0.0
H500 H 0.2329 0.06089 0.45388 0.0
H501 H 0.25064 0.19856 0.53322 0.0
H502 H 0.37794 0.16892 0.02481 0.0
H503 H 0.51082 0.16223 0.10818 0.0
O504 O 0.38395 0.18046 0.57113 0.0
C505 C 0.40615 0.28418 0.6549 0.0
C506 C 0.48171 0.18898 0.31174 0.0
C507 C 0.39428 0.17413 0.10483 0.0
N508 N 0.38427 0.20025 0.34271 0.0
C509 C 0.43456 0.19979 0.38302 0.0
C510 C 0.36211 0.18857 0.22356 0.0
C511 C 0.47966 0.17426 0.167 0.0
C512 C 0.26867 0.30253 0.68734 0.0
N513 N 0.30717 0.29864 0.74942 0.0
C514 C 0.254 0.34375 0.6474 0.0
C515 C 0.27629 0.38217 0.68059 0.0
C516 C 0.31347 0.37868 0.7505 0.0
C517 C 0.32968 0.33671 0.77917 0.0
C518 C 0.3068 0.26507 0.08722 0.0
C519 C 0.37878 0.2776 0.95291 0.0
C520 C 0.31372 0.23802 0.99437 0.0
N521 N 0.34657 0.24774 0.91987 0.0
C522 C 0.37415 0.30395 0.0489 0.0
C523 C 0.33686 0.29831 0.11555 0.0
C524 C 0.3829 0.16322 0.66836 0.0
C525 C 0.23676 0.13054 0.49669 0.0
C526 C 0.3248 0.12651 0.42887 0.0
C527 C 0.29831 0.08806 0.42361 0.0
C528 C 0.25373 0.09038 0.45627 0.0
N529 N 0.30742 0.16696 0.45947 0.0
C530 C 0.26459 0.168 0.50123 0.0
Co531 Co 0.16085 0.75012 0.25604 0.0
Co532 Co 0.14552 0.76863 0.97722 0.0
O533 O 0.17913 0.75581 0.10265 0.0
C534 C 0.23522 0.81537 0.27915 0.0
O535 O 0.21418 0.85084 0.24141 0.0
C536 C 0.23104 0.7137 0.82477 0.0
O537 O 0.23371 0.67061 0.80449 0.0
O538 O 0.10105 0.7133 0.04855 0.0
O539 O 0.10144 0.72802 0.23301 0.0
H540 H 0.00487 0.80802 0.73261 0.0
H541 H 0.24327 0.71594 0.15824 0.0
O542 O 0.21756 0.77672 0.2851 0.0
H543 H 0.16687 0.57998 0.27995 0.0
H544 H 0.20877 0.75439 0.64956 0.0
H545 H 0.09466 0.69697 0.40243 0.0
H546 H 0.13341 0.65077 0.31237 0.0
H547 H 0.19824 0.78862 0.47064 0.0
O548 O 0.19447 0.72757 0.88237 0.0
H549 H 0.04975 0.77622 0.96458 0.0
H550 H 0.16589 0.80576 0.72454 0.0
H551 H 0.10418 0.66128 0.57952 0.0
H552 H 0.27005 0.64332 0.089 0.0
H553 H 0.16137 0.68863 0.70918 0.0
H554 H 0.23293 0.57427 0.15254 0.0
O555 O 0.13262 0.80978 0.25052 0.0
H556 H 0.29227 0.85142 0.99441 0.0
H557 H 0.13193 0.86604 0.92202 0.0
H558 H 0.17988 0.93153 0.89704 0.0
H559 H 0.26132 0.9246 0.93407 0.0
H560 H 0.24236 0.78644 0.00795 0.0
H561 H 0.11606 0.8248 0.52999 0.0
H562 H 0.98198 0.82827 0.60528 0.0
O563 O 0.10894 0.80874 0.06894 0.0
C564 C 0.0866 0.70493 0.1561 0.0
C565 C 0.00995 0.7989 0.80815 0.0
C566 C 0.099 0.81777 0.60767 0.0
N567 N 0.10715 0.78801 0.84241 0.0
C568 C 0.05682 0.7876 0.88051 0.0
C569 C 0.13004 0.80258 0.72709 0.0
C570 C 0.01264 0.81548 0.66458 0.0
C571 C 0.2255 0.68642 0.18196 0.0
N572 N 0.18728 0.68989 0.24465 0.0
C573 C 0.24074 0.64535 0.14173 0.0
C574 C 0.21951 0.60656 0.17606 0.0
C575 C 0.18261 0.6096 0.24653 0.0
C576 C 0.16528 0.6513 0.27321 0.0
C577 C 0.18508 0.7397 0.59467 0.0
C578 C 0.12146 0.70879 0.45215 0.0
C579 C 0.17881 0.75962 0.4909 0.0
N580 N 0.14966 0.7418 0.41607 0.0
C581 C 0.1262 0.68833 0.55567 0.0
C582 C 0.15868 0.70368 0.62756 0.0
C583 C 0.11045 0.82569 0.16668 0.0
C584 C 0.25722 0.85456 0.97271 0.0
C585 C 0.16719 0.86149 0.92646 0.0
C586 C 0.19437 0.89932 0.9172 0.0
C587 C 0.2399 0.89558 0.93918 0.0
N588 N 0.18472 0.82025 0.94967 0.0
C589 C 0.2288 0.8175 0.97913 0.0
Co590 Co 0.14952 0.25563 0.84906 0.0
Co591 Co 0.13246 0.23334 0.1289 0.0
O592 O 0.16576 0.24936 0.00344 0.0
C593 C 0.21223 0.17874 0.82182 0.0
O594 O 0.18459 0.14523 0.83777 0.0
C595 C 0.22191 0.27953 0.27977 0.0
O596 O 0.23006 0.32162 0.30386 0.0
O597 O 0.0858 0.28763 0.06033 0.0
O598 O 0.09771 0.28932 0.87309 0.0
H599 H 0.96639 0.20477 0.263 0.0
H600 H 0.23629 0.27864 0.95009 0.0
O601 O 0.20064 0.21953 0.82381 0.0
H602 H 0.18526 0.42021 0.78887 0.0
H603 H 0.19905 0.24804 0.4607 0.0
H604 H 0.08567 0.31221 0.69938 0.0
H605 H 0.13901 0.35473 0.77482 0.0
H606 H 0.18592 0.21513 0.63558 0.0
O607 O 0.18309 0.27151 0.22424 0.0
H608 H 0.0357 0.22533 0.14424 0.0
H609 H 0.15422 0.19753 0.38127 0.0
H610 H 0.09628 0.34441 0.51947 0.0
H611 H 0.27464 0.34848 0.00325 0.0
H612 H 0.15405 0.31498 0.39394 0.0
H613 H 0.24927 0.42021 0.92249 0.0
O614 O 0.11125 0.20108 0.85545 0.0
H615 H 0.27591 0.146 0.0816 0.0
H616 H 0.1185 0.13617 0.18593 0.0
H617 H 0.16511 0.06935 0.20117 0.0
H618 H 0.24521 0.07387 0.14832 0.0
H619 H 0.22757 0.21283 0.08025 0.0
H620 H 0.10447 0.17925 0.5777 0.0
H621 H 0.97113 0.17817 0.48525 0.0
O622 O 0.09477 0.19487 0.04013 0.0
C623 C 0.07477 0.30112 0.95308 0.0
C624 C -0.00189 0.20224 0.30408 0.0
C625 C 0.08751 0.18532 0.49918 0.0
N626 N 0.09473 0.21348 0.26358 0.0
C627 C 0.04387 0.21385 0.22759 0.0
C628 C 0.11829 0.19983 0.37892 0.0
C629 C 0.00167 0.18768 0.4413 0.0
C630 C 0.22378 0.30977 0.91851 0.0
N631 N 0.1858 0.31043 0.85416 0.0
C632 C 0.24577 0.34921 0.94885 0.0
C633 C 0.23144 0.38956 0.90407 0.0
C634 C 0.19526 0.38977 0.83072 0.0
C635 C 0.17071 0.35077 0.81469 0.0
C636 C 0.17482 0.26366 0.51145 0.0
C637 C 0.11126 0.29746 0.64984 0.0
C638 C 0.16729 0.24459 0.61502 0.0
N639 N 0.13866 0.26397 0.68853 0.0
C640 C 0.11695 0.31663 0.54498 0.0
C641 C 0.14971 0.30011 0.47549 0.0
C642 C 0.09087 0.18306 0.93935 0.0
C643 C 0.24163 0.14406 0.11035 0.0
C644 C 0.15354 0.13988 0.1759 0.0
C645 C 0.1798 0.10121 0.17909 0.0
C646 C 0.22447 0.10356 0.14764 0.0
N647 N 0.17131 0.18071 0.14965 0.0
C648 C 0.21417 0.18205 0.11031 0.0
Co649 Co 0.34416 0.737 0.34819 0.0
Co650 Co 0.36178 0.75891 0.62843 0.0
O651 O 0.32866 0.74241 0.50318 0.0
C652 C 0.28175 0.81416 0.30834 0.0
O653 O 0.31021 0.84679 0.29043 0.0
C654 C 0.27236 0.74165 0.78006 0.0
O655 O 0.26974 0.78457 0.7968 0.0
O656 O 0.40707 0.7029 0.5602 0.0
O657 O 0.39527 0.70197 0.37207 0.0
H658 H 0.52763 0.78755 0.76151 0.0
H659 H 0.2564 0.71607 0.44965 0.0
O660 O 0.29357 0.7742 0.3265 0.0
H661 H 0.30687 0.57321 0.29362 0.0
H662 H 0.28358 0.7279 0.977 0.0
H663 H 0.41082 0.68438 0.19696 0.0
H664 H 0.3523 0.63923 0.27016 0.0
H665 H 0.30099 0.77061 0.13456 0.0
O666 O 0.30887 0.72509 0.7278 0.0
H667 H 0.45843 0.767 0.64555 0.0
H668 H 0.34066 0.79056 0.89017 0.0
H669 H 0.40019 0.64852 0.02032 0.0
H670 H 0.218 0.6471 0.50551 0.0
H671 H 0.33415 0.66842 0.90313 0.0
H672 H 0.2435 0.5744 0.42895 0.0
O673 O 0.38327 0.79084 0.35489 0.0
H674 H 0.22277 0.85333 0.56251 0.0
H675 H 0.37905 0.85574 0.67952 0.0
H676 H 0.33535 0.92472 0.69134 0.0
H677 H 0.25574 0.92377 0.63361 0.0
H678 H 0.2679 0.78474 0.56066 0.0
H679 H 0.39122 0.80948 0.08287 0.0
H680 H 0.52429 0.81131 0.98681 0.0
O681 O 0.40133 0.79475 0.53867 0.0
C682 C 0.41782 0.68932 0.45226 0.0
C683 C 0.49623 0.79003 0.80398 0.0
C684 C 0.40772 0.80535 0.00272 0.0
N685 N 0.39938 0.77877 0.7653 0.0
C686 C 0.45015 0.77882 0.72844 0.0
C687 C 0.37634 0.7912 0.88277 0.0
C688 C 0.49336 0.80372 0.94178 0.0
C689 C 0.26873 0.68474 0.41803 0.0
N690 N 0.30661 0.68336 0.35313 0.0
C691 C 0.24673 0.64567 0.45056 0.0
C692 C 0.26116 0.60491 0.40822 0.0
C693 C 0.29714 0.60399 0.33414 0.0
C694 C 0.3213 0.64292 0.31394 0.0
C695 C 0.31414 0.72089 0.01613 0.0
C696 C 0.38381 0.69665 0.14784 0.0
C697 C 0.32317 0.74395 0.11387 0.0
N698 N 0.35456 0.72864 0.18639 0.0
C699 C 0.37792 0.67522 0.04498 0.0
C700 C 0.34159 0.68658 0.97951 0.0
C701 C 0.40481 0.80744 0.43876 0.0
C702 C 0.25677 0.85366 0.59371 0.0
C703 C 0.34403 0.8537 0.66748 0.0
C704 C 0.31953 0.89353 0.6684 0.0
C705 C 0.27517 0.8932 0.63373 0.0
N706 N 0.32489 0.81377 0.6392 0.0
C707 C 0.28274 0.8147 0.59316 0.0
Co708 Co 0.49351 0.0819 0.59997 0.0
Co709 Co 0.47272 0.09492 0.87725 0.0
O710 O 0.487 0.06252 0.75183 0.0
C711 C 0.42924 0.00701 0.56169 0.0
O712 O 0.39131 0.0288 0.57132 0.0
C713 C 0.4999 0.00696 0.03061 0.0
O714 O 0.45772 -0.0023 0.04555 0.0
O715 O 0.5291 0.13954 0.81153 0.0
O716 O 0.5153 0.14106 0.62637 0.0
H717 H 0.43769 0.23412 0.12518 0.0
H718 H 0.5262 -0.00223 0.69723 0.0
O719 O 0.4675 0.02529 0.56854 0.0
H720 H 0.66349 0.07448 0.58536 0.0
H721 H 0.49202 0.03488 0.21234 0.0
H722 H 0.54787 0.14987 0.45567 0.0
H723 H 0.59304 0.10869 0.54921 0.0
H724 H 0.45569 0.04777 0.38475 0.0
O725 O 0.51118 0.04515 0.97713 0.0
H726 H 0.46786 0.19012 0.89165 0.0
H727 H 0.43534 0.07381 0.13061 0.0
H728 H 0.58581 0.13821 0.28083 0.0
H729 H 0.5977 0.97083 0.76983 0.0
H730 H 0.55874 0.07828 0.15141 0.0
H731 H 0.66759 0.00808 0.71255 0.0
O732 O 0.43362 0.10953 0.60356 0.0
H733 H 0.38538 0.95111 0.8299 0.0
H734 H 0.37601 0.10812 0.94326 0.0
H735 H 0.30943 0.06129 0.95929 0.0
H736 H 0.31356 0.98162 0.90186 0.0
H737 H 0.45115 -0.00099 0.82069 0.0
H738 H 0.41613 0.12374 0.32332 0.0
H739 H 0.41644 0.25714 0.25108 0.0
O740 O 0.43402 0.13258 0.78516 0.0
C741 C 0.53799 0.15504 0.70504 0.0
C742 C 0.44692 0.22947 0.04972 0.0
C743 C 0.42391 0.14091 0.24638 0.0
N744 N 0.45304 0.13245 0.01165 0.0
C745 C 0.45596 0.18293 0.97513 0.0
C746 C 0.43807 0.10961 0.12683 0.0
C747 C 0.42972 0.2264 0.19278 0.0
C748 C 0.55592 0.01612 0.6758 0.0
N749 N 0.5533 0.05491 0.61426 0.0
C750 C 0.59646 0.00055 0.71831 0.0
C751 C 0.63564 0.02196 0.68772 0.0
C752 C 0.63349 0.05917 0.6179 0.0
C753 C 0.59219 0.07684 0.58872 0.0
C754 C 0.50577 0.05944 0.26376 0.0
C755 C 0.53677 0.12269 0.40615 0.0
C756 C 0.48512 0.0665 0.36562 0.0
N757 N 0.50322 0.09477 0.44126 0.0
C758 C 0.55801 0.11707 0.30323 0.0
C759 C 0.54274 0.08415 0.23145 0.0
C760 C 0.4169 0.1307 0.68784 0.0
C761 C 0.38309 0.98551 0.8575 0.0
C762 C 0.37942 0.07335 0.92719 0.0
C763 C 0.34089 0.04696 0.93211 0.0
C764 C 0.34303 0.00248 0.89859 0.0
N765 N 0.41979 0.05596 0.89537 0.0
C766 C 0.42059 0.01327 0.85246 0.0
Co767 Co 0.00099 0.90808 0.09814 0.0
Co768 Co 0.02116 0.89553 0.37649 0.0
O769 O 0.00738 0.92771 0.25011 0.0
C770 C 0.06538 0.9828 0.06219 0.0
O771 O 0.10316 0.96135 0.0783 0.0
C772 C 0.99454 0.98313 0.53069 0.0
O773 O 0.03679 0.99113 0.54866 0.0
O774 O 0.9646 0.85118 0.31013 0.0
O775 O 0.9792 0.84895 0.12554 0.0
H776 H 0.04412 0.73026 0.50967 0.0
H777 H 0.96804 0.99228 0.19448 0.0
O778 O 0.02709 0.96454 0.06664 0.0
H779 H 0.83113 0.91439 0.08347 0.0
H780 H 0.99226 0.9611 0.71907 0.0
H781 H 0.94948 0.83793 0.95362 0.0
H782 H 0.90194 0.88133 0.04423 0.0
H783 H 0.03496 0.94565 0.8814 0.0
O784 O 0.98278 0.94549 0.47552 0.0
H785 H 0.02732 0.80026 0.39108 0.0
H786 H 0.05462 0.91675 0.63614 0.0
H787 H 0.9081 0.84971 0.78326 0.0
H788 H 0.89645 0.01877 0.26726 0.0
H789 H 0.92884 0.91364 0.65853 0.0
H790 H 0.82678 0.98105 0.21006 0.0
O791 O 0.06073 0.88032 0.10261 0.0
H792 H 0.10849 0.03914 0.32733 0.0
H793 H 0.11796 0.88215 0.43895 0.0
H794 H 0.1848 0.92873 0.45394 0.0
H795 H 0.18061 0.00834 0.39631 0.0
H796 H 0.04233 0.99144 0.32181 0.0
H797 H 0.07435 0.865 0.82817 0.0
H798 H 0.0732 0.73345 0.72962 0.0
O799 O 0.06011 0.85756 0.28458 0.0
C800 C 0.95581 0.83563 0.20355 0.0
C801 C 0.04851 0.76164 0.55086 0.0
C802 C 0.06717 0.84882 0.74922 0.0
N803 N 0.04027 0.85829 0.51237 0.0
C804 C 0.03873 0.80773 0.47491 0.0
C805 C 0.05345 0.88092 0.62987 0.0
C806 C 0.0632 0.76428 0.68814 0.0
C807 C 0.93841 0.97378 0.17301 0.0
N808 N 0.94122 0.93506 0.11132 0.0
C809 C 0.89782 0.98904 0.21568 0.0
C810 C 0.85876 0.96729 0.18528 0.0
C811 C 0.86107 0.93009 0.11533 0.0
C812 C 0.90248 0.91297 0.08505 0.0
C813 C 0.98303 0.93324 0.76595 0.0
C814 C 0.9586 0.86604 0.90482 0.0
C815 C 0.0065 0.9253 0.86371 0.0
N816 N 0.99132 0.89513 0.93894 0.0
C817 C 0.93528 0.87187 0.80462 0.0
C818 C 0.94713 0.90681 0.73498 0.0
C819 C 0.07713 0.85892 0.18694 0.0
C820 C 0.11069 0.00485 0.35589 0.0
C821 C 0.1145 0.91699 0.42523 0.0
C822 C 0.15315 0.94324 0.42875 0.0
C823 C 0.15097 0.98771 0.3952 0.0
N824 N 0.07402 0.93449 0.39506 0.0
C825 C 0.07303 0.97726 0.35285 0.0
Co826 Co 0.51206 0.89969 0.51035 0.0
Co827 Co 0.4873 0.88302 0.23118 0.0
O828 O 0.50342 0.91618 0.35681 0.0
C829 C 0.43333 0.96033 0.53764 0.0
O830 O 0.40092 0.93447 0.50138 0.0
C831 C 0.53385 0.97173 0.08103 0.0
O832 O 0.57593 0.98107 0.05983 0.0
O833 O 0.54041 0.83485 0.29982 0.0
O834 O 0.54808 0.84981 0.48414 0.0
H835 H 0.46169 0.71749 0.09527 0.0
H836 H 0.52875 0.98842 0.41009 0.0
O837 O 0.474 0.94865 0.54127 0.0
H838 H 0.67581 0.94385 0.55131 0.0
H839 H 0.50143 0.94365 0.90317 0.0
H840 H 0.57536 0.83958 0.65525 0.0
H841 H 0.61256 0.89495 0.57777 0.0
H842 H 0.46992 0.9307 0.72648 0.0
O843 O 0.5264 0.93295 0.13692 0.0
H844 H 0.48049 0.78657 0.21577 0.0
H845 H 0.4495 0.90477 0.98108 0.0
H846 H 0.60536 0.8494 0.83773 0.0
H847 H 0.59561 0.029 0.34705 0.0
H848 H 0.57053 0.90255 0.9687 0.0
H849 H 0.67007 0.00679 0.41666 0.0
O850 O 0.45895 0.85884 0.50501 0.0
H851 H 0.39792 0.02641 0.27653 0.0
H852 H 0.39128 0.87061 0.15922 0.0
H853 H 0.32582 0.91782 0.13067 0.0
H854 H 0.32884 -0.00272 0.19022 0.0
H855 H 0.46433 0.97751 0.29227 0.0
H856 H 0.4311 0.85567 0.78615 0.0
H857 H 0.43231 0.72243 0.8748 0.0
O858 O 0.44807 0.84645 0.31903 0.0
C859 C 0.55579 0.8245 0.40578 0.0
C860 C 0.45853 0.74902 0.05463 0.0
C861 C 0.43864 0.83837 0.86279 0.0
N862 N 0.46771 0.84543 0.09697 0.0
C863 C 0.46934 0.79462 0.13209 0.0
C864 C 0.45301 0.86897 0.98272 0.0
C865 C 0.44314 0.75271 0.91772 0.0
C866 C 0.56101 0.97697 0.43769 0.0
N867 N 0.56474 0.939 0.50174 0.0
C868 C 0.59876 0.00041 0.40144 0.0
C869 C 0.64066 0.98779 0.43981 0.0
C870 C 0.64404 0.95205 0.51365 0.0
C871 C 0.60649 0.92596 0.53627 0.0
C872 C 0.51871 0.92118 0.85091 0.0
C873 C 0.55815 0.86296 0.70694 0.0
C874 C 0.50072 0.91401 0.74596 0.0
N875 N 0.5226 0.88827 0.67009 0.0
C876 C 0.57607 0.8681 0.8135 0.0
C877 C 0.55661 0.8982 0.88597 0.0
C878 C 0.43877 0.84046 0.42074 0.0
C879 C 0.39727 0.99259 0.24468 0.0
C880 C 0.3949 0.90538 0.17316 0.0
C881 C 0.35673 0.93199 0.16204 0.0
C882 C 0.35823 0.97626 0.19663 0.0
N883 N 0.43498 0.92255 0.20834 0.0
C884 C 0.4351 0.96491 0.25154 0.0
Co885 Co 0.98369 0.0912 0.00948 0.0
Co886 Co 0.00783 0.10786 0.72981 0.0
O887 O 0.99135 0.07486 0.85545 0.0
C888 C 0.06147 0.02947 0.03809 0.0
O889 O 0.0948 0.05631 0.01357 0.0
C890 C 0.96094 0.01929 0.57888 0.0
O891 O 0.91881 0.01057 0.55657 0.0
O892 O 0.95431 0.15594 0.7987 0.0
O893 O 0.94888 0.14198 0.98429 0.0
H894 H 0.03435 0.27282 0.59795 0.0
H895 H 0.96418 0.00334 0.90831 0.0
O896 O 0.02075 0.04119 0.03795 0.0
H897 H 0.81943 0.05051 0.05904 0.0
H898 H 0.99315 0.04544 0.40074 0.0
H899 H 0.92312 0.15307 0.15603 0.0
H900 H 0.88366 0.09851 0.07934 0.0
H901 H 0.025 0.05798 0.22464 0.0
O902 O 0.96878 0.05797 0.63497 0.0
H903 H 0.01581 0.20367 0.71512 0.0
H904 H 0.04506 0.0862 0.47668 0.0
H905 H 0.89227 0.14333 0.33741 0.0
H906 H 0.89596 0.96341 0.85078 0.0
H907 H 0.92498 0.08832 0.46681 0.0
H908 H 0.82275 0.98683 0.92584 0.0
O909 O 0.03756 0.13079 0.00424 0.0
H910 H 0.09629 0.96428 0.77839 0.0
H911 H 0.10415 0.12006 0.66123 0.0
H912 H 0.16992 0.07277 0.63742 0.0
H913 H 0.16622 0.99331 0.69588 0.0
H914 H 0.03019 0.01347 0.79106 0.0
H915 H 0.06214 0.13646 0.28069 0.0
H916 H 0.06059 0.2694 0.37312 0.0
O917 O 0.04718 0.14448 0.81861 0.0
C918 C 0.93959 0.16648 0.90538 0.0
C919 C 0.03735 0.2417 0.55516 0.0
C920 C 0.05566 0.15319 0.35912 0.0
N921 N 0.02786 0.14521 0.59483 0.0
C922 C 0.02684 0.19582 0.63125 0.0
C923 C 0.04184 0.12202 0.47926 0.0
C924 C 0.05187 0.2387 0.41759 0.0
C925 C 0.93241 0.01523 0.93792 0.0
N926 N 0.93001 0.05326 0.00201 0.0
C927 C 0.89391 0.99221 0.90494 0.0
C928 C 0.85271 0.00544 0.94658 0.0
C929 C 0.85072 0.04145 0.02002 0.0
C930 C 0.88886 0.06711 0.03899 0.0
C931 C 0.97638 0.06842 0.34893 0.0
C932 C 0.93927 0.12875 0.20688 0.0
C933 C 0.99475 0.07552 0.24446 0.0
N934 N 0.97394 0.10244 0.16944 0.0
C935 C 0.92085 0.12357 0.31279 0.0
C936 C 0.93913 0.09243 0.38432 0.0
C937 C 0.05727 0.14967 0.92029 0.0
C938 C 0.09735 -0.00193 0.74633 0.0
C939 C 0.10037 0.08526 0.67445 0.0
C940 C 0.13864 0.05863 0.66609 0.0
C941 C 0.13679 0.01434 0.70045 0.0
N942 N 0.06005 0.06818 0.70791 0.0
C943 C 0.0596 0.02588 0.75134 0.0
loop_
_geom_bond_atom_site_label_1
_geom_bond_atom_site_label_2
_geom_bond_distance
_geom_bond_site_symmetry_2
_ccdc_geom_bond_type
Co0 O2 2.143 . S
Co0 O8 2.074 . S
Co0 O11 2.093 1_455 S
Co0 O24 2.097 1_455 S
Co0 N41 2.151 . S
Co0 N49 2.214 1_554 S
Co1 O2 2.160 1_655 S
Co1 O7 2.058 1_655 S
Co1 O17 2.057 1_655 S
Co1 O32 2.037 . S
Co1 N36 2.145 . S
Co1 N57 2.257 . S
O2 Co0 2.143 . S
O2 Co1 2.160 1_455 S
C3 O4 1.278 . S
C3 O11 1.224 . S
O4 C3 1.278 . S
C5 O6 1.245 . S
C5 O17 1.232 . S
O6 C5 1.245 . S
O7 Co1 2.058 1_455 S
O7 C33 1.269 . S
O8 Co0 2.074 . S
O8 C33 1.257 . S
H9 C34 0.930 . S
H10 C40 0.930 . S
O11 Co0 2.093 1_655 S
O11 C3 1.224 . S
H12 C44 0.929 . S
H13 C46 0.930 . S
H14 C47 0.930 . S
H15 C45 0.929 . S
H16 C48 0.928 . S
O17 Co1 2.057 1_455 S
O17 C5 1.232 . S
H18 C37 0.929 . S
H19 C38 0.929 . S
H20 C50 0.931 . S
H21 C42 0.929 . S
H22 C51 0.930 . S
H23 C43 0.931 . S
O24 Co0 2.097 1_655 S
O24 C52 1.214 . S
H25 C53 0.929 . S
H26 C54 0.929 . S
H27 C55 0.930 . S
H28 C56 0.929 . S
H29 C58 0.930 . S
H30 C35 0.930 . S
H31 C39 0.930 . S
O32 Co1 2.037 . S
O32 C52 1.234 . S
C33 O7 1.269 . S
C33 O8 1.257 . S
C34 H9 0.930 . S
C34 C37 1.388 . S
C34 C39 1.418 . S
C35 H30 0.930 . S
C35 C38 1.404 . S
C35 C39 1.353 . S
N36 Co1 2.145 . S
N36 C37 1.397 . S
N36 C38 1.334 . S
C37 H18 0.929 . S
C37 C34 1.388 . S
C37 N36 1.397 . S
C38 H19 0.929 . S
C38 C35 1.404 . S
C38 N36 1.334 . S
C39 H31 0.930 . S
C39 C34 1.418 . S
C39 C35 1.353 . S
C40 H10 0.930 . S
C40 N41 1.330 . S
C40 C42 1.446 . S
N41 Co0 2.151 . S
N41 C40 1.330 . S
N41 C45 1.418 . S
C42 H21 0.929 . S
C42 C40 1.446 . S
C42 C43 1.332 . S
C43 H23 0.931 . S
C43 C42 1.332 . S
C43 C44 1.267 . S
C44 H12 0.929 . S
C44 C43 1.267 . S
C44 C45 1.251 . S
C45 H15 0.929 . S
C45 N41 1.418 . S
C45 C44 1.251 . S
C46 H13 0.930 . S
C46 C48 1.406 . S
C46 C51 1.261 . S
C47 H14 0.930 . S
C47 N49 1.325 . S
C47 C50 1.357 . S
C48 H16 0.928 . S
C48 C46 1.406 . S
C48 N49 1.261 . S
N49 Co0 2.214 1_556 S
N49 C47 1.325 . S
N49 C48 1.261 . S
C50 H20 0.931 . S
C50 C47 1.357 . S
C50 C51 1.312 . S
C51 H22 0.930 . S
C51 C46 1.261 . S
C51 C50 1.312 . S
C52 O24 1.214 . S
C52 O32 1.234 . S
C53 H25 0.929 . S
C53 C56 1.391 . S
C53 C58 1.391 . S
C54 H26 0.929 . S
C54 C55 1.390 . S
C54 N57 1.391 . S
C55 H27 0.930 . S
C55 C54 1.390 . S
C55 C56 1.392 . S
C56 H28 0.929 . S
C56 C53 1.391 . S
C56 C55 1.392 . S
N57 Co1 2.257 . S
N57 C54 1.391 . S
N57 C58 1.388 . S
C58 H29 0.930 . S
C58 C53 1.391 . S
C58 N57 1.388 . S
Co59 O61 2.143 . S
Co59 O67 2.074 . S
Co59 O70 2.093 . S
Co59 O83 2.097 . S
Co59 N100 2.151 . S
Co59 N108 2.214 . S
Co60 O61 2.160 . S
Co60 O66 2.058 . S
Co60 O76 2.057 . S
Co60 O91 2.037 . S
Co60 N95 2.145 . S
Co60 N116 2.257 . S
O61 Co59 2.143 . S
O61 Co60 2.160 . S
C62 O63 1.278 . S
C62 O70 1.224 . S
O63 C62 1.278 . S
C64 O65 1.245 . S
C64 O76 1.232 . S
O65 C64 1.245 . S
O66 Co60 2.058 . S
O66 C92 1.269 . S
O67 Co59 2.074 . S
O67 C92 1.257 . S
H68 C93 0.930 . S
H69 C99 0.930 . S
O70 Co59 2.093 . S
O70 C62 1.224 . S
H71 C103 0.929 . S
H72 C105 0.930 1_556 S
H73 C106 0.930 . S
H74 C104 0.929 . S
H75 C107 0.928 . S
O76 Co60 2.057 . S
O76 C64 1.232 . S
H77 C96 0.929 . S
H78 C97 0.929 . S
H79 C109 0.931 . S
H80 C101 0.929 . S
H81 C110 0.930 1_556 S
H82 C102 0.931 . S
O83 Co59 2.097 . S
O83 C111 1.214 . S
H84 C112 0.929 . S
H85 C113 0.929 . S
H86 C114 0.930 . S
H87 C115 0.929 . S
H88 C117 0.930 . S
H89 C94 0.930 1_554 S
H90 C98 0.930 1_554 S
O91 Co60 2.037 . S
O91 C111 1.234 . S
C92 O66 1.269 . S
C92 O67 1.257 . S
C93 H68 0.930 . S
C93 C96 1.388 . S
C93 C98 1.418 . S
C94 H89 0.930 1_556 S
C94 C97 1.404 . S
C94 C98 1.353 . S
N95 Co60 2.145 . S
N95 C96 1.397 . S
N95 C97 1.334 . S
C96 H77 0.929 . S
C96 C93 1.388 . S
C96 N95 1.397 . S
C97 H78 0.929 . S
C97 C94 1.404 . S
C97 N95 1.334 . S
C98 H90 0.930 1_556 S
C98 C93 1.418 . S
C98 C94 1.353 . S
C99 H69 0.930 . S
C99 N100 1.330 . S
C99 C101 1.446 . S
N100 Co59 2.151 . S
N100 C99 1.330 . S
N100 C104 1.418 . S
C101 H80 0.929 . S
C101 C99 1.446 . S
C101 C102 1.332 . S
C102 H82 0.931 . S
C102 C101 1.332 . S
C102 C103 1.267 . S
C103 H71 0.929 . S
C103 C102 1.267 . S
C103 C104 1.251 . S
C104 H74 0.929 . S
C104 N100 1.418 . S
C104 C103 1.251 . S
C105 H72 0.930 1_554 S
C105 C107 1.406 . S
C105 C110 1.261 . S
C106 H73 0.930 . S
C106 N108 1.325 . S
C106 C109 1.357 . S
C107 H75 0.928 . S
C107 C105 1.406 . S
C107 N108 1.261 . S
N108 Co59 2.214 . S
N108 C106 1.325 . S
N108 C107 1.261 . S
C109 H79 0.931 . S
C109 C106 1.357 . S
C109 C110 1.312 . S
C110 H81 0.930 1_554 S
C110 C105 1.261 . S
C110 C109 1.312 . S
C111 O83 1.214 . S
C111 O91 1.234 . S
C112 H84 0.929 . S
C112 C115 1.391 . S
C112 C117 1.391 . S
C113 H85 0.929 . S
C113 C114 1.390 . S
C113 N116 1.391 . S
C114 H86 0.930 . S
C114 C113 1.390 . S
C114 C115 1.392 . S
C115 H87 0.929 . S
C115 C112 1.391 . S
C115 C114 1.392 . S
N116 Co60 2.257 . S
N116 C113 1.391 . S
N116 C117 1.388 . S
C117 H88 0.930 . S
C117 C112 1.391 . S
C117 N116 1.388 . S
Co118 O120 2.143 . S
Co118 O126 2.074 . S
Co118 O129 2.093 . S
Co118 O142 2.097 . S
Co118 N159 2.151 . S
Co118 N167 2.214 . S
Co119 O120 2.160 . S
Co119 O125 2.058 . S
Co119 O135 2.057 1_556 S
Co119 O150 2.037 . S
Co119 N154 2.145 1_556 S
Co119 N175 2.257 . S
O120 Co118 2.143 . S
O120 Co119 2.160 . S
C121 O122 1.278 . S
C121 O129 1.224 . S
O122 C121 1.278 . S
C123 O124 1.245 1_554 S
C123 O135 1.232 . S
O124 C123 1.245 1_556 S
O125 Co119 2.058 . S
O125 C151 1.269 . S
O126 Co118 2.074 . S
O126 C151 1.257 . S
H127 C152 0.930 . S
H128 C158 0.930 . S
O129 Co118 2.093 . S
O129 C121 1.224 . S
H130 C162 0.929 . S
H131 C164 0.930 . S
H132 C165 0.930 . S
H133 C163 0.929 . S
H134 C166 0.928 . S
O135 Co119 2.057 1_554 S
O135 C123 1.232 . S
H136 C155 0.929 1_556 S
H137 C156 0.929 . S
H138 C168 0.931 . S
H139 C160 0.929 . S
H140 C169 0.930 . S
H141 C161 0.931 . S
O142 Co118 2.097 . S
O142 C170 1.214 . S
H143 C171 0.929 . S
H144 C172 0.929 . S
H145 C173 0.930 . S
H146 C174 0.929 . S
H147 C176 0.930 . S
H148 C153 0.930 . S
H149 C157 0.930 . S
O150 Co119 2.037 . S
O150 C170 1.234 . S
C151 O125 1.269 . S
C151 O126 1.257 . S
C152 H127 0.930 . S
C152 C155 1.388 . S
C152 C157 1.418 . S
C153 H148 0.930 . S
C153 C156 1.404 . S
C153 C157 1.353 . S
N154 Co119 2.145 1_554 S
N154 C155 1.397 . S
N154 C156 1.334 . S
C155 H136 0.929 1_554 S
C155 C152 1.388 . S
C155 N154 1.397 . S
C156 H137 0.929 . S
C156 C153 1.404 . S
C156 N154 1.334 . S
C157 H149 0.930 . S
C157 C152 1.418 . S
C157 C153 1.353 . S
C158 H128 0.930 . S
C158 N159 1.330 . S
C158 C160 1.446 . S
N159 Co118 2.151 . S
N159 C158 1.330 . S
N159 C163 1.418 . S
C160 H139 0.929 . S
C160 C158 1.446 . S
C160 C161 1.332 . S
C161 H141 0.931 . S
C161 C160 1.332 . S
C161 C162 1.267 . S
C162 H130 0.929 . S
C162 C161 1.267 . S
C162 C163 1.251 . S
C163 H133 0.929 . S
C163 N159 1.418 . S
C163 C162 1.251 . S
C164 H131 0.930 . S
C164 C166 1.406 . S
C164 C169 1.261 . S
C165 H132 0.930 . S
C165 N167 1.325 . S
C165 C168 1.357 . S
C166 H134 0.928 . S
C166 C164 1.406 . S
C166 N167 1.261 . S
N167 Co118 2.214 . S
N167 C165 1.325 . S
N167 C166 1.261 . S
C168 H138 0.931 . S
C168 C165 1.357 . S
C168 C169 1.312 . S
C169 H140 0.930 . S
C169 C164 1.261 . S
C169 C168 1.312 . S
C170 O142 1.214 . S
C170 O150 1.234 . S
C171 H143 0.929 . S
C171 C174 1.391 . S
C171 C176 1.391 . S
C172 H144 0.929 . S
C172 C173 1.390 . S
C172 N175 1.391 . S
C173 H145 0.930 . S
C173 C172 1.390 . S
C173 C174 1.392 . S
C174 H146 0.929 . S
C174 C171 1.391 . S
C174 C173 1.392 . S
N175 Co119 2.257 . S
N175 C172 1.391 . S
N175 C176 1.388 . S
C176 H147 0.930 . S
C176 C171 1.391 . S
C176 N175 1.388 . S
Co177 O179 2.143 1_556 S
Co177 O185 2.074 . S
Co177 O188 2.093 . S
Co177 O201 2.097 . S
Co177 N218 2.151 . S
Co177 N226 2.214 . S
Co178 O179 2.160 . S
Co178 O184 2.058 . S
Co178 O194 2.057 . S
Co178 O209 2.037 . S
Co178 N213 2.145 . S
Co178 N234 2.257 . S
O179 Co177 2.143 1_554 S
O179 Co178 2.160 . S
C180 O181 1.278 . S
C180 O188 1.224 . S
O181 C180 1.278 . S
C182 O183 1.245 . S
C182 O194 1.232 . S
O183 C182 1.245 . S
O184 Co178 2.058 . S
O184 C210 1.269 . S
O185 Co177 2.074 . S
O185 C210 1.257 1_556 S
H186 C211 0.930 1_455 S
H187 C217 0.930 . S
O188 Co177 2.093 . S
O188 C180 1.224 . S
H189 C221 0.929 . S
H190 C223 0.930 . S
H191 C224 0.930 . S
H192 C222 0.929 . S
H193 C225 0.928 . S
O194 Co178 2.057 . S
O194 C182 1.232 . S
H195 C214 0.929 . S
H196 C215 0.929 . S
H197 C227 0.931 . S
H198 C219 0.929 . S
H199 C228 0.930 . S
H200 C220 0.931 . S
O201 Co177 2.097 . S
O201 C229 1.214 . S
H202 C230 0.929 . S
H203 C231 0.929 . S
H204 C232 0.930 . S
H205 C233 0.929 . S
H206 C235 0.930 . S
H207 C212 0.930 . S
H208 C216 0.930 . S
O209 Co178 2.037 . S
O209 C229 1.234 1_554 S
C210 O184 1.269 . S
C210 O185 1.257 1_554 S
C211 H186 0.930 1_655 S
C211 C214 1.388 . S
C211 C216 1.418 . S
C212 H207 0.930 . S
C212 C215 1.404 . S
C212 C216 1.353 . S
N213 Co178 2.145 . S
N213 C214 1.397 . S
N213 C215 1.334 . S
C214 H195 0.929 . S
C214 C211 1.388 . S
C214 N213 1.397 . S
C215 H196 0.929 . S
C215 C212 1.404 . S
C215 N213 1.334 . S
C216 H208 0.930 . S
C216 C211 1.418 . S
C216 C212 1.353 . S
C217 H187 0.930 . S
C217 N218 1.330 . S
C217 C219 1.446 . S
N218 Co177 2.151 . S
N218 C217 1.330 . S
N218 C222 1.418 . S
C219 H198 0.929 . S
C219 C217 1.446 . S
C219 C220 1.332 . S
C220 H200 0.931 . S
C220 C219 1.332 . S
C220 C221 1.267 . S
C221 H189 0.929 . S
C221 C220 1.267 . S
C221 C222 1.251 . S
C222 H192 0.929 . S
C222 N218 1.418 . S
C222 C221 1.251 . S
C223 H190 0.930 . S
C223 C225 1.406 . S
C223 C228 1.261 . S
C224 H191 0.930 . S
C224 N226 1.325 . S
C224 C227 1.357 . S
C225 H193 0.928 . S
C225 C223 1.406 . S
C225 N226 1.261 . S
N226 Co177 2.214 . S
N226 C224 1.325 . S
N226 C225 1.261 . S
C227 H197 0.931 . S
C227 C224 1.357 . S
C227 C228 1.312 . S
C228 H199 0.930 . S
C228 C223 1.261 . S
C228 C227 1.312 . S
C229 O201 1.214 . S
C229 O209 1.234 1_556 S
C230 H202 0.929 . S
C230 C233 1.391 . S
C230 C235 1.391 . S
C231 H203 0.929 . S
C231 C232 1.390 . S
C231 N234 1.391 . S
C232 H204 0.930 . S
C232 C231 1.390 . S
C232 C233 1.392 . S
C233 H205 0.929 . S
C233 C230 1.391 . S
C233 C232 1.392 . S
N234 Co178 2.257 . S
N234 C231 1.391 . S
N234 C235 1.388 . S
C235 H206 0.930 . S
C235 C230 1.391 . S
C235 N234 1.388 . S
Co236 O238 2.143 1_554 S
Co236 O244 2.074 1_554 S
Co236 O247 2.093 1_455 S
Co236 O260 2.097 1_455 S
Co236 N277 2.151 . S
Co236 N285 2.214 . S
Co237 O238 2.160 1_655 S
Co237 O243 2.058 1_655 S
Co237 O253 2.057 1_655 S
Co237 O268 2.037 . S
Co237 N272 2.145 . S
Co237 N293 2.257 . S
O238 Co236 2.143 1_556 S
O238 Co237 2.160 1_455 S
C239 O240 1.278 1_554 S
C239 O247 1.224 . S
O240 C239 1.278 1_556 S
C241 O242 1.245 . S
C241 O253 1.232 . S
O242 C241 1.245 . S
O243 Co237 2.058 1_455 S
O243 C269 1.269 . S
O244 Co236 2.074 1_556 S
O244 C269 1.257 . S
H245 C270 0.930 . S
H246 C276 0.930 1_556 S
O247 Co236 2.093 1_655 S
O247 C239 1.224 . S
H248 C280 0.929 . S
H249 C282 0.930 . S
H250 C283 0.930 . S
H251 C281 0.929 . S
H252 C284 0.928 . S
O253 Co237 2.057 1_455 S
O253 C241 1.232 . S
H254 C273 0.929 . S
H255 C274 0.929 . S
H256 C286 0.931 . S
H257 C278 0.929 . S
H258 C287 0.930 . S
H259 C279 0.931 . S
O260 Co236 2.097 1_655 S
O260 C288 1.214 1_554 S
H261 C289 0.929 . S
H262 C290 0.929 . S
H263 C291 0.930 . S
H264 C292 0.929 . S
H265 C294 0.930 . S
H266 C271 0.930 . S
H267 C275 0.930 . S
O268 Co237 2.037 . S
O268 C288 1.234 . S
C269 O243 1.269 . S
C269 O244 1.257 . S
C270 H245 0.930 . S
C270 C273 1.388 . S
C270 C275 1.418 . S
C271 H266 0.930 . S
C271 C274 1.404 . S
C271 C275 1.353 . S
N272 Co237 2.145 . S
N272 C273 1.397 . S
N272 C274 1.334 . S
C273 H254 0.929 . S
C273 C270 1.388 . S
C273 N272 1.397 . S
C274 H255 0.929 . S
C274 C271 1.404 . S
C274 N272 1.334 . S
C275 H267 0.930 . S
C275 C270 1.418 . S
C275 C271 1.353 . S
C276 H246 0.930 1_554 S
C276 N277 1.330 . S
C276 C278 1.446 . S
N277 Co236 2.151 . S
N277 C276 1.330 . S
N277 C281 1.418 . S
C278 H257 0.929 . S
C278 C276 1.446 . S
C278 C279 1.332 . S
C279 H259 0.931 . S
C279 C278 1.332 . S
C279 C280 1.267 . S
C280 H248 0.929 . S
C280 C279 1.267 . S
C280 C281 1.251 . S
C281 H251 0.929 . S
C281 N277 1.418 . S
C281 C280 1.251 . S
C282 H249 0.930 . S
C282 C284 1.406 . S
C282 C287 1.261 . S
C283 H250 0.930 . S
C283 N285 1.325 . S
C283 C286 1.357 . S
C284 H252 0.928 . S
C284 C282 1.406 . S
C284 N285 1.261 . S
N285 Co236 2.214 . S
N285 C283 1.325 . S
N285 C284 1.261 . S
C286 H256 0.931 . S
C286 C283 1.357 . S
C286 C287 1.312 . S
C287 H258 0.930 . S
C287 C282 1.261 . S
C287 C286 1.312 . S
C288 O260 1.214 1_556 S
C288 O268 1.234 . S
C289 H261 0.929 . S
C289 C292 1.391 . S
C289 C294 1.391 . S
C290 H262 0.929 . S
C290 C291 1.390 . S
C290 N293 1.391 . S
C291 H263 0.930 . S
C291 C290 1.390 . S
C291 C292 1.392 . S
C292 H264 0.929 . S
C292 C289 1.391 . S
C292 C291 1.392 . S
N293 Co237 2.257 . S
N293 C290 1.391 . S
N293 C294 1.388 . S
C294 H265 0.930 . S
C294 C289 1.391 . S
C294 N293 1.388 . S
Co295 O297 2.143 . S
Co295 O303 2.074 . S
Co295 O306 2.093 . S
Co295 O319 2.097 . S
Co295 N336 2.151 . S
Co295 N344 2.214 . S
Co296 O297 2.160 1_556 S
Co296 O302 2.058 . S
Co296 O312 2.057 . S
Co296 O327 2.037 1_556 S
Co296 N331 2.145 . S
Co296 N352 2.257 . S
O297 Co295 2.143 . S
O297 Co296 2.160 1_554 S
C298 O299 1.278 . S
C298 O306 1.224 . S
O299 C298 1.278 . S
C300 O301 1.245 . S
C300 O312 1.232 . S
O301 C300 1.245 . S
O302 Co296 2.058 . S
O302 C328 1.269 1_556 S
O303 Co295 2.074 . S
O303 C328 1.257 . S
H304 C329 0.930 1_455 S
H305 C335 0.930 . S
O306 Co295 2.093 . S
O306 C298 1.224 . S
H307 C339 0.929 . S
H308 C341 0.930 . S
H309 C342 0.930 . S
H310 C340 0.929 . S
H311 C343 0.928 . S
O312 Co296 2.057 . S
O312 C300 1.232 . S
H313 C332 0.929 . S
H314 C333 0.929 . S
H315 C345 0.931 . S
H316 C337 0.929 . S
H317 C346 0.930 . S
H318 C338 0.931 . S
O319 Co295 2.097 . S
O319 C347 1.214 . S
H320 C348 0.929 . S
H321 C349 0.929 . S
H322 C350 0.930 . S
H323 C351 0.929 . S
H324 C353 0.930 . S
H325 C330 0.930 . S
H326 C334 0.930 . S
O327 Co296 2.037 1_554 S
O327 C347 1.234 . S
C328 O302 1.269 1_554 S
C328 O303 1.257 . S
C329 H304 0.930 1_655 S
C329 C332 1.388 . S
C329 C334 1.418 . S
C330 H325 0.930 . S
C330 C333 1.404 . S
C330 C334 1.353 . S
N331 Co296 2.145 . S
N331 C332 1.397 . S
N331 C333 1.334 . S
C332 H313 0.929 . S
C332 C329 1.388 . S
C332 N331 1.397 . S
C333 H314 0.929 . S
C333 C330 1.404 . S
C333 N331 1.334 . S
C334 H326 0.930 . S
C334 C329 1.418 . S
C334 C330 1.353 . S
C335 H305 0.930 . S
C335 N336 1.330 . S
C335 C337 1.446 . S
N336 Co295 2.151 . S
N336 C335 1.330 . S
N336 C340 1.418 . S
C337 H316 0.929 . S
C337 C335 1.446 . S
C337 C338 1.332 . S
C338 H318 0.931 . S
C338 C337 1.332 . S
C338 C339 1.267 . S
C339 H307 0.929 . S
C339 C338 1.267 . S
C339 C340 1.251 . S
C340 H310 0.929 . S
C340 N336 1.418 . S
C340 C339 1.251 . S
C341 H308 0.930 . S
C341 C343 1.406 . S
C341 C346 1.261 . S
C342 H309 0.930 . S
C342 N344 1.325 . S
C342 C345 1.357 . S
C343 H311 0.928 . S
C343 C341 1.406 . S
C343 N344 1.261 . S
N344 Co295 2.214 . S
N344 C342 1.325 . S
N344 C343 1.261 . S
C345 H315 0.931 . S
C345 C342 1.357 . S
C345 C346 1.312 . S
C346 H317 0.930 . S
C346 C341 1.261 . S
C346 C345 1.312 . S
C347 O319 1.214 . S
C347 O327 1.234 . S
C348 H320 0.929 . S
C348 C351 1.391 . S
C348 C353 1.391 . S
C349 H321 0.929 . S
C349 C350 1.390 . S
C349 N352 1.391 . S
C350 H322 0.930 . S
C350 C349 1.390 . S
C350 C351 1.392 . S
C351 H323 0.929 . S
C351 C348 1.391 . S
C351 C350 1.392 . S
N352 Co296 2.257 . S
N352 C349 1.391 . S
N352 C353 1.388 . S
C353 H324 0.930 . S
C353 C348 1.391 . S
C353 N352 1.388 . S
Co354 O356 2.143 . S
Co354 O362 2.074 . S
Co354 O365 2.093 . S
Co354 O378 2.097 . S
Co354 N395 2.151 . S
Co354 N403 2.214 . S
Co355 O356 2.160 . S
Co355 O361 2.058 . S
Co355 O371 2.057 . S
Co355 O386 2.037 . S
Co355 N390 2.145 . S
Co355 N411 2.257 . S
O356 Co354 2.143 . S
O356 Co355 2.160 . S
C357 O358 1.278 . S
C357 O365 1.224 . S
O358 C357 1.278 . S
C359 O360 1.245 . S
C359 O371 1.232 . S
O360 C359 1.245 . S
O361 Co355 2.058 . S
O361 C387 1.269 . S
O362 Co354 2.074 . S
O362 C387 1.257 . S
H363 C388 0.930 . S
H364 C394 0.930 . S
O365 Co354 2.093 . S
O365 C357 1.224 . S
H366 C398 0.929 . S
H367 C400 0.930 . S
H368 C401 0.930 . S
H369 C399 0.929 . S
H370 C402 0.928 . S
O371 Co355 2.057 . S
O371 C359 1.232 . S
H372 C391 0.929 . S
H373 C392 0.929 . S
H374 C404 0.931 . S
H375 C396 0.929 . S
H376 C405 0.930 . S
H377 C397 0.931 . S
O378 Co354 2.097 . S
O378 C406 1.214 . S
H379 C407 0.929 . S
H380 C408 0.929 . S
H381 C409 0.930 . S
H382 C410 0.929 . S
H383 C412 0.930 . S
H384 C389 0.930 . S
H385 C393 0.930 . S
O386 Co355 2.037 . S
O386 C406 1.234 . S
C387 O361 1.269 . S
C387 O362 1.257 . S
C388 H363 0.930 . S
C388 C391 1.388 . S
C388 C393 1.418 1_554 S
C389 H384 0.930 . S
C389 C392 1.404 . S
C389 C393 1.353 . S
N390 Co355 2.145 . S
N390 C391 1.397 . S
N390 C392 1.334 1_554 S
C391 H372 0.929 . S
C391 C388 1.388 . S
C391 N390 1.397 . S
C392 H373 0.929 . S
C392 C389 1.404 . S
C392 N390 1.334 1_556 S
C393 H385 0.930 . S
C393 C388 1.418 1_556 S
C393 C389 1.353 . S
C394 H364 0.930 . S
C394 N395 1.330 . S
C394 C396 1.446 . S
N395 Co354 2.151 . S
N395 C394 1.330 . S
N395 C399 1.418 . S
C396 H375 0.929 . S
C396 C394 1.446 . S
C396 C397 1.332 . S
C397 H377 0.931 . S
C397 C396 1.332 . S
C397 C398 1.267 . S
C398 H366 0.929 . S
C398 C397 1.267 . S
C398 C399 1.251 . S
C399 H369 0.929 . S
C399 N395 1.418 . S
C399 C398 1.251 . S
C400 H367 0.930 . S
C400 C402 1.406 . S
C400 C405 1.261 . S
C401 H368 0.930 . S
C401 N403 1.325 . S
C401 C404 1.357 . S
C402 H370 0.928 . S
C402 C400 1.406 . S
C402 N403 1.261 . S
N403 Co354 2.214 . S
N403 C401 1.325 . S
N403 C402 1.261 . S
C404 H374 0.931 . S
C404 C401 1.357 . S
C404 C405 1.312 . S
C405 H376 0.930 . S
C405 C400 1.261 . S
C405 C404 1.312 . S
C406 O378 1.214 . S
C406 O386 1.234 . S
C407 H379 0.929 . S
C407 C410 1.391 . S
C407 C412 1.391 . S
C408 H380 0.929 . S
C408 C409 1.390 . S
C408 N411 1.391 . S
C409 H381 0.930 . S
C409 C408 1.390 . S
C409 C410 1.392 . S
C410 H382 0.929 . S
C410 C407 1.391 . S
C410 C409 1.392 . S
N411 Co355 2.257 . S
N411 C408 1.391 . S
N411 C412 1.388 . S
C412 H383 0.930 . S
C412 C407 1.391 . S
C412 N411 1.388 . S
Co413 O415 2.143 . S
Co413 O421 2.074 . S
Co413 O424 2.093 . S
Co413 O437 2.097 . S
Co413 N454 2.151 . S
Co413 N462 2.214 . S
Co414 O415 2.160 . S
Co414 O420 2.058 . S
Co414 O430 2.057 . S
Co414 O445 2.037 . S
Co414 N449 2.145 . S
Co414 N470 2.257 . S
O415 Co413 2.143 . S
O415 Co414 2.160 . S
C416 O417 1.278 . S
C416 O424 1.224 . S
O417 C416 1.278 . S
C418 O419 1.245 . S
C418 O430 1.232 . S
O419 C418 1.245 . S
O420 Co414 2.058 . S
O420 C446 1.269 . S
O421 Co413 2.074 . S
O421 C446 1.257 . S
H422 C447 0.930 . S
H423 C453 0.930 . S
O424 Co413 2.093 . S
O424 C416 1.224 . S
H425 C457 0.929 . S
H426 C459 0.930 . S
H427 C460 0.930 . S
H428 C458 0.929 . S
H429 C461 0.928 . S
O430 Co414 2.057 . S
O430 C418 1.232 . S
H431 C450 0.929 . S
H432 C451 0.929 . S
H433 C463 0.931 . S
H434 C455 0.929 . S
H435 C464 0.930 . S
H436 C456 0.931 . S
O437 Co413 2.097 . S
O437 C465 1.214 . S
H438 C466 0.929 . S
H439 C467 0.929 . S
H440 C468 0.930 . S
H441 C469 0.929 . S
H442 C471 0.930 . S
H443 C448 0.930 . S
H444 C452 0.930 . S
O445 Co414 2.037 . S
O445 C465 1.234 . S
C446 O420 1.269 . S
C446 O421 1.257 . S
C447 H422 0.930 . S
C447 C450 1.388 . S
C447 C452 1.418 . S
C448 H443 0.930 . S
C448 C451 1.404 . S
C448 C452 1.353 . S
N449 Co414 2.145 . S
N449 C450 1.397 . S
N449 C451 1.334 . S
C450 H431 0.929 . S
C450 C447 1.388 . S
C450 N449 1.397 . S
C451 H432 0.929 . S
C451 C448 1.404 . S
C451 N449 1.334 . S
C452 H444 0.930 . S
C452 C447 1.418 . S
C452 C448 1.353 . S
C453 H423 0.930 . S
C453 N454 1.330 . S
C453 C455 1.446 . S
N454 Co413 2.151 . S
N454 C453 1.330 . S
N454 C458 1.418 . S
C455 H434 0.929 . S
C455 C453 1.446 . S
C455 C456 1.332 . S
C456 H436 0.931 . S
C456 C455 1.332 . S
C456 C457 1.267 . S
C457 H425 0.929 . S
C457 C456 1.267 . S
C457 C458 1.251 . S
C458 H428 0.929 . S
C458 N454 1.418 . S
C458 C457 1.251 . S
C459 H426 0.930 . S
C459 C461 1.406 . S
C459 C464 1.261 . S
C460 H427 0.930 . S
C460 N462 1.325 . S
C460 C463 1.357 1_556 S
C461 H429 0.928 . S
C461 C459 1.406 . S
C461 N462 1.261 1_554 S
N462 Co413 2.214 . S
N462 C460 1.325 . S
N462 C461 1.261 1_556 S
C463 H433 0.931 . S
C463 C460 1.357 1_554 S
C463 C464 1.312 . S
C464 H435 0.930 . S
C464 C459 1.261 . S
C464 C463 1.312 . S
C465 O437 1.214 . S
C465 O445 1.234 . S
C466 H438 0.929 . S
C466 C469 1.391 . S
C466 C471 1.391 . S
C467 H439 0.929 . S
C467 C468 1.390 . S
C467 N470 1.391 . S
C468 H440 0.930 . S
C468 C467 1.390 . S
C468 C469 1.392 . S
C469 H441 0.929 . S
C469 C466 1.391 . S
C469 C468 1.392 . S
N470 Co414 2.257 . S
N470 C467 1.391 . S
N470 C471 1.388 . S
C471 H442 0.930 . S
C471 C466 1.391 . S
C471 N470 1.388 . S
Co472 O474 2.143 . S
Co472 O480 2.074 . S
Co472 O483 2.093 . S
Co472 O496 2.097 . S
Co472 N513 2.151 . S
Co472 N521 2.214 . S
Co473 O474 2.160 . S
Co473 O479 2.058 . S
Co473 O489 2.057 . S
Co473 O504 2.037 . S
Co473 N508 2.145 . S
Co473 N529 2.257 . S
O474 Co472 2.143 . S
O474 Co473 2.160 . S
C475 O476 1.278 . S
C475 O483 1.224 . S
O476 C475 1.278 . S
C477 O478 1.245 . S
C477 O489 1.232 . S
O478 C477 1.245 . S
O479 Co473 2.058 . S
O479 C505 1.269 . S
O480 Co472 2.074 . S
O480 C505 1.257 . S
H481 C506 0.930 . S
H482 C512 0.930 . S
O483 Co472 2.093 . S
O483 C475 1.224 . S
H484 C516 0.929 . S
H485 C518 0.930 . S
H486 C519 0.930 . S
H487 C517 0.929 . S
H488 C520 0.928 . S
O489 Co473 2.057 . S
O489 C477 1.232 . S
H490 C509 0.929 . S
H491 C510 0.929 . S
H492 C522 0.931 . S
H493 C514 0.929 . S
H494 C523 0.930 . S
H495 C515 0.931 . S
O496 Co472 2.097 . S
O496 C524 1.214 . S
H497 C525 0.929 . S
H498 C526 0.929 . S
H499 C527 0.930 . S
H500 C528 0.929 . S
H501 C530 0.930 . S
H502 C507 0.930 . S
H503 C511 0.930 . S
O504 Co473 2.037 . S
O504 C524 1.234 . S
C505 O479 1.269 . S
C505 O480 1.257 . S
C506 H481 0.930 . S
C506 C509 1.388 . S
C506 C511 1.418 . S
C507 H502 0.930 . S
C507 C510 1.404 . S
C507 C511 1.353 . S
N508 Co473 2.145 . S
N508 C509 1.397 . S
N508 C510 1.334 . S
C509 H490 0.929 . S
C509 C506 1.388 . S
C509 N508 1.397 . S
C510 H491 0.929 . S
C510 C507 1.404 . S
C510 N508 1.334 . S
C511 H503 0.930 . S
C511 C506 1.418 . S
C511 C507 1.353 . S
C512 H482 0.930 . S
C512 N513 1.330 . S
C512 C514 1.446 . S
N513 Co472 2.151 . S
N513 C512 1.330 . S
N513 C517 1.418 . S
C514 H493 0.929 . S
C514 C512 1.446 . S
C514 C515 1.332 . S
C515 H495 0.931 . S
C515 C514 1.332 . S
C515 C516 1.267 . S
C516 H484 0.929 . S
C516 C515 1.267 . S
C516 C517 1.251 . S
C517 H487 0.929 . S
C517 N513 1.418 . S
C517 C516 1.251 . S
C518 H485 0.930 . S
C518 C520 1.406 . S
C518 C523 1.261 . S
C519 H486 0.930 . S
C519 N521 1.325 . S
C519 C522 1.357 1_556 S
C520 H488 0.928 . S
C520 C518 1.406 . S
C520 N521 1.261 1_554 S
N521 Co472 2.214 . S
N521 C519 1.325 . S
N521 C520 1.261 1_556 S
C522 H492 0.931 . S
C522 C519 1.357 1_554 S
C522 C523 1.312 . S
C523 H494 0.930 . S
C523 C518 1.261 . S
C523 C522 1.312 . S
C524 O496 1.214 . S
C524 O504 1.234 . S
C525 H497 0.929 . S
C525 C528 1.391 . S
C525 C530 1.391 . S
C526 H498 0.929 . S
C526 C527 1.390 . S
C526 N529 1.391 . S
C527 H499 0.930 . S
C527 C526 1.390 . S
C527 C528 1.392 . S
C528 H500 0.929 . S
C528 C525 1.391 . S
C528 C527 1.392 . S
N529 Co473 2.257 . S
N529 C526 1.391 . S
N529 C530 1.388 . S
C530 H501 0.930 . S
C530 C525 1.391 . S
C530 N529 1.388 . S
Co531 O533 2.143 . S
Co531 O539 2.074 . S
Co531 O542 2.093 . S
Co531 O555 2.097 . S
Co531 N572 2.151 . S
Co531 N580 2.214 . S
Co532 O533 2.160 1_556 S
Co532 O538 2.058 . S
Co532 O548 2.057 . S
Co532 O563 2.037 1_556 S
Co532 N567 2.145 . S
Co532 N588 2.257 . S
O533 Co531 2.143 . S
O533 Co532 2.160 1_554 S
C534 O535 1.278 . S
C534 O542 1.224 . S
O535 C534 1.278 . S
C536 O537 1.245 . S
C536 O548 1.232 . S
O537 C536 1.245 . S
O538 Co532 2.058 . S
O538 C564 1.269 1_556 S
O539 Co531 2.074 . S
O539 C564 1.257 . S
H540 C565 0.930 1_655 S
H541 C571 0.930 . S
O542 Co531 2.093 . S
O542 C534 1.224 . S
H543 C575 0.929 . S
H544 C577 0.930 . S
H545 C578 0.930 . S
H546 C576 0.929 . S
H547 C579 0.928 . S
O548 Co532 2.057 . S
O548 C536 1.232 . S
H549 C568 0.929 . S
H550 C569 0.929 . S
H551 C581 0.931 . S
H552 C573 0.929 . S
H553 C582 0.930 . S
H554 C574 0.931 . S
O555 Co531 2.097 . S
O555 C583 1.214 . S
H556 C584 0.929 . S
H557 C585 0.929 . S
H558 C586 0.930 . S
H559 C587 0.929 . S
H560 C589 0.930 . S
H561 C566 0.930 . S
H562 C570 0.930 . S
O563 Co532 2.037 1_554 S
O563 C583 1.234 . S
C564 O538 1.269 1_554 S
C564 O539 1.257 . S
C565 H540 0.930 1_455 S
C565 C568 1.388 . S
C565 C570 1.418 . S
C566 H561 0.930 . S
C566 C569 1.404 . S
C566 C570 1.353 . S
N567 Co532 2.145 . S
N567 C568 1.397 . S
N567 C569 1.334 . S
C568 H549 0.929 . S
C568 C565 1.388 . S
C568 N567 1.397 . S
C569 H550 0.929 . S
C569 C566 1.404 . S
C569 N567 1.334 . S
C570 H562 0.930 . S
C570 C565 1.418 . S
C570 C566 1.353 . S
C571 H541 0.930 . S
C571 N572 1.330 . S
C571 C573 1.446 . S
N572 Co531 2.151 . S
N572 C571 1.330 . S
N572 C576 1.418 . S
C573 H552 0.929 . S
C573 C571 1.446 . S
C573 C574 1.332 . S
C574 H554 0.931 . S
C574 C573 1.332 . S
C574 C575 1.267 . S
C575 H543 0.929 . S
C575 C574 1.267 . S
C575 C576 1.251 . S
C576 H546 0.929 . S
C576 N572 1.418 . S
C576 C575 1.251 . S
C577 H544 0.930 . S
C577 C579 1.406 . S
C577 C582 1.261 . S
C578 H545 0.930 . S
C578 N580 1.325 . S
C578 C581 1.357 . S
C579 H547 0.928 . S
C579 C577 1.406 . S
C579 N580 1.261 . S
N580 Co531 2.214 . S
N580 C578 1.325 . S
N580 C579 1.261 . S
C581 H551 0.931 . S
C581 C578 1.357 . S
C581 C582 1.312 . S
C582 H553 0.930 . S
C582 C577 1.261 . S
C582 C581 1.312 . S
C583 O555 1.214 . S
C583 O563 1.234 . S
C584 H556 0.929 . S
C584 C587 1.391 . S
C584 C589 1.391 . S
C585 H557 0.929 . S
C585 C586 1.390 . S
C585 N588 1.391 . S
C586 H558 0.930 . S
C586 C585 1.390 . S
C586 C587 1.392 . S
C587 H559 0.929 . S
C587 C584 1.391 . S
C587 C586 1.392 . S
N588 Co532 2.257 . S
N588 C585 1.391 . S
N588 C589 1.388 . S
C589 H560 0.930 . S
C589 C584 1.391 . S
C589 N588 1.388 . S
Co590 O592 2.143 1_556 S
Co590 O598 2.074 . S
Co590 O601 2.093 . S
Co590 O614 2.097 . S
Co590 N631 2.151 . S
Co590 N639 2.214 . S
Co591 O592 2.160 . S
Co591 O597 2.058 . S
Co591 O607 2.057 . S
Co591 O622 2.037 . S
Co591 N626 2.145 . S
Co591 N647 2.257 . S
O592 Co590 2.143 1_554 S
O592 Co591 2.160 . S
C593 O594 1.278 . S
C593 O601 1.224 . S
O594 C593 1.278 . S
C595 O596 1.245 . S
C595 O607 1.232 . S
O596 C595 1.245 . S
O597 Co591 2.058 . S
O597 C623 1.269 . S
O598 Co590 2.074 . S
O598 C623 1.257 1_556 S
H599 C624 0.930 1_655 S
H600 C630 0.930 . S
O601 Co590 2.093 . S
O601 C593 1.224 . S
H602 C634 0.929 . S
H603 C636 0.930 . S
H604 C637 0.930 . S
H605 C635 0.929 . S
H606 C638 0.928 . S
O607 Co591 2.057 . S
O607 C595 1.232 . S
H608 C627 0.929 . S
H609 C628 0.929 . S
H610 C640 0.931 . S
H611 C632 0.929 . S
H612 C641 0.930 . S
H613 C633 0.931 . S
O614 Co590 2.097 . S
O614 C642 1.214 . S
H615 C643 0.929 . S
H616 C644 0.929 . S
H617 C645 0.930 . S
H618 C646 0.929 . S
H619 C648 0.930 . S
H620 C625 0.930 . S
H621 C629 0.930 . S
O622 Co591 2.037 . S
O622 C642 1.234 1_554 S
C623 O597 1.269 . S
C623 O598 1.257 1_554 S
C624 H599 0.930 1_455 S
C624 C627 1.388 . S
C624 C629 1.418 . S
C625 H620 0.930 . S
C625 C628 1.404 . S
C625 C629 1.353 . S
N626 Co591 2.145 . S
N626 C627 1.397 . S
N626 C628 1.334 . S
C627 H608 0.929 . S
C627 C624 1.388 . S
C627 N626 1.397 . S
C628 H609 0.929 . S
C628 C625 1.404 . S
C628 N626 1.334 . S
C629 H621 0.930 . S
C629 C624 1.418 . S
C629 C625 1.353 . S
C630 H600 0.930 . S
C630 N631 1.330 . S
C630 C632 1.446 . S
N631 Co590 2.151 . S
N631 C630 1.330 . S
N631 C635 1.418 . S
C632 H611 0.929 . S
C632 C630 1.446 . S
C632 C633 1.332 . S
C633 H613 0.931 . S
C633 C632 1.332 . S
C633 C634 1.267 . S
C634 H602 0.929 . S
C634 C633 1.267 . S
C634 C635 1.251 . S
C635 H605 0.929 . S
C635 N631 1.418 . S
C635 C634 1.251 . S
C636 H603 0.930 . S
C636 C638 1.406 . S
C636 C641 1.261 . S
C637 H604 0.930 . S
C637 N639 1.325 . S
C637 C640 1.357 . S
C638 H606 0.928 . S
C638 C636 1.406 . S
C638 N639 1.261 . S
N639 Co590 2.214 . S
N639 C637 1.325 . S
N639 C638 1.261 . S
C640 H610 0.931 . S
C640 C637 1.357 . S
C640 C641 1.312 . S
C641 H612 0.930 . S
C641 C636 1.261 . S
C641 C640 1.312 . S
C642 O614 1.214 . S
C642 O622 1.234 1_556 S
C643 H615 0.929 . S
C643 C646 1.391 . S
C643 C648 1.391 . S
C644 H616 0.929 . S
C644 C645 1.390 . S
C644 N647 1.391 . S
C645 H617 0.930 . S
C645 C644 1.390 . S
C645 C646 1.392 . S
C646 H618 0.929 . S
C646 C643 1.391 . S
C646 C645 1.392 . S
N647 Co591 2.257 . S
N647 C644 1.391 . S
N647 C648 1.388 . S
C648 H619 0.930 . S
C648 C643 1.391 . S
C648 N647 1.388 . S
Co649 O651 2.143 . S
Co649 O657 2.074 . S
Co649 O660 2.093 . S
Co649 O673 2.097 . S
Co649 N690 2.151 . S
Co649 N698 2.214 . S
Co650 O651 2.160 . S
Co650 O656 2.058 . S
Co650 O666 2.057 . S
Co650 O681 2.037 . S
Co650 N685 2.145 . S
Co650 N706 2.257 . S
O651 Co649 2.143 . S
O651 Co650 2.160 . S
C652 O653 1.278 . S
C652 O660 1.224 . S
O653 C652 1.278 . S
C654 O655 1.245 . S
C654 O666 1.232 . S
O655 C654 1.245 . S
O656 Co650 2.058 . S
O656 C682 1.269 . S
O657 Co649 2.074 . S
O657 C682 1.257 . S
H658 C683 0.930 . S
H659 C689 0.930 . S
O660 Co649 2.093 . S
O660 C652 1.224 . S
H661 C693 0.929 . S
H662 C695 0.930 1_556 S
H663 C696 0.930 . S
H664 C694 0.929 . S
H665 C697 0.928 . S
O666 Co650 2.057 . S
O666 C654 1.232 . S
H667 C686 0.929 . S
H668 C687 0.929 . S
H669 C699 0.931 . S
H670 C691 0.929 . S
H671 C700 0.930 1_556 S
H672 C692 0.931 . S
O673 Co649 2.097 . S
O673 C701 1.214 . S
H674 C702 0.929 . S
H675 C703 0.929 . S
H676 C704 0.930 . S
H677 C705 0.929 . S
H678 C707 0.930 . S
H679 C684 0.930 1_554 S
H680 C688 0.930 1_554 S
O681 Co650 2.037 . S
O681 C701 1.234 . S
C682 O656 1.269 . S
C682 O657 1.257 . S
C683 H658 0.930 . S
C683 C686 1.388 . S
C683 C688 1.418 . S
C684 H679 0.930 1_556 S
C684 C687 1.404 . S
C684 C688 1.353 . S
N685 Co650 2.145 . S
N685 C686 1.397 . S
N685 C687 1.334 . S
C686 H667 0.929 . S
C686 C683 1.388 . S
C686 N685 1.397 . S
C687 H668 0.929 . S
C687 C684 1.404 . S
C687 N685 1.334 . S
C688 H680 0.930 1_556 S
C688 C683 1.418 . S
C688 C684 1.353 . S
C689 H659 0.930 . S
C689 N690 1.330 . S
C689 C691 1.446 . S
N690 Co649 2.151 . S
N690 C689 1.330 . S
N690 C694 1.418 . S
C691 H670 0.929 . S
C691 C689 1.446 . S
C691 C692 1.332 . S
C692 H672 0.931 . S
C692 C691 1.332 . S
C692 C693 1.267 . S
C693 H661 0.929 . S
C693 C692 1.267 . S
C693 C694 1.251 . S
C694 H664 0.929 . S
C694 N690 1.418 . S
C694 C693 1.251 . S
C695 H662 0.930 1_554 S
C695 C697 1.406 . S
C695 C700 1.261 . S
C696 H663 0.930 . S
C696 N698 1.325 . S
C696 C699 1.357 . S
C697 H665 0.928 . S
C697 C695 1.406 . S
C697 N698 1.261 . S
N698 Co649 2.214 . S
N698 C696 1.325 . S
N698 C697 1.261 . S
C699 H669 0.931 . S
C699 C696 1.357 . S
C699 C700 1.312 . S
C700 H671 0.930 1_554 S
C700 C695 1.261 . S
C700 C699 1.312 . S
C701 O673 1.214 . S
C701 O681 1.234 . S
C702 H674 0.929 . S
C702 C705 1.391 . S
C702 C707 1.391 . S
C703 H675 0.929 . S
C703 C704 1.390 . S
C703 N706 1.391 . S
C704 H676 0.930 . S
C704 C703 1.390 . S
C704 C705 1.392 . S
C705 H677 0.929 . S
C705 C702 1.391 . S
C705 C704 1.392 . S
N706 Co650 2.257 . S
N706 C703 1.391 . S
N706 C707 1.388 . S
C707 H678 0.930 . S
C707 C702 1.391 . S
C707 N706 1.388 . S
Co708 O710 2.143 . S
Co708 O716 2.074 . S
Co708 O719 2.093 . S
Co708 O732 2.097 . S
Co708 N749 2.151 . S
Co708 N757 2.214 . S
Co709 O710 2.160 . S
Co709 O715 2.058 . S
Co709 O725 2.057 1_556 S
Co709 O740 2.037 . S
Co709 N744 2.145 1_556 S
Co709 N765 2.257 . S
O710 Co708 2.143 . S
O710 Co709 2.160 . S
C711 O712 1.278 . S
C711 O719 1.224 . S
O712 C711 1.278 . S
C713 O714 1.245 1_554 S
C713 O725 1.232 . S
O714 C713 1.245 1_556 S
O715 Co709 2.058 . S
O715 C741 1.269 . S
O716 Co708 2.074 . S
O716 C741 1.257 . S
H717 C742 0.930 . S
H718 C748 0.923 1_565 S
O719 Co708 2.093 . S
O719 C711 1.224 . S
H720 C752 0.929 . S
H721 C754 0.930 . S
H722 C755 0.930 . S
H723 C753 0.929 . S
H724 C756 0.928 . S
O725 Co709 2.057 1_554 S
O725 C713 1.232 . S
H726 C745 0.929 1_556 S
H727 C746 0.929 . S
H728 C758 0.931 . S
H729 C750 0.929 . S
H730 C759 0.930 . S
H731 C751 0.931 . S
O732 Co708 2.097 . S
O732 C760 1.214 . S
H733 C761 0.929 1_565 S
H734 C762 0.929 . S
H735 C763 0.930 . S
H736 C764 0.929 . S
H737 C766 0.930 . S
H738 C743 0.930 . S
H739 C747 0.930 . S
O740 Co709 2.037 . S
O740 C760 1.234 . S
C741 O715 1.269 . S
C741 O716 1.257 . S
C742 H717 0.930 . S
C742 C745 1.388 . S
C742 C747 1.418 . S
C743 H738 0.930 . S
C743 C746 1.404 . S
C743 C747 1.353 . S
N744 Co709 2.145 1_554 S
N744 C745 1.397 . S
N744 C746 1.334 . S
C745 H726 0.929 1_554 S
C745 C742 1.388 . S
C745 N744 1.397 . S
C746 H727 0.929 . S
C746 C743 1.404 . S
C746 N744 1.334 . S
C747 H739 0.930 . S
C747 C742 1.418 . S
C747 C743 1.353 . S
C748 H718 0.923 1_545 S
C748 N749 1.330 . S
C748 C750 1.446 1_545 S
N749 Co708 2.151 . S
N749 C748 1.330 . S
N749 C753 1.418 . S
C750 H729 0.929 . S
C750 C748 1.446 1_565 S
C750 C751 1.332 1_565 S
C751 H731 0.931 . S
C751 C750 1.332 1_545 S
C751 C752 1.267 . S
C752 H720 0.929 . S
C752 C751 1.267 . S
C752 C753 1.251 . S
C753 H723 0.929 . S
C753 N749 1.418 . S
C753 C752 1.251 . S
C754 H721 0.930 . S
C754 C756 1.406 . S
C754 C759 1.261 . S
C755 H722 0.930 . S
C755 N757 1.325 . S
C755 C758 1.357 . S
C756 H724 0.928 . S
C756 C754 1.406 . S
C756 N757 1.261 . S
N757 Co708 2.214 . S
N757 C755 1.325 . S
N757 C756 1.261 . S
C758 H728 0.931 . S
C758 C755 1.357 . S
C758 C759 1.312 . S
C759 H730 0.930 . S
C759 C754 1.261 . S
C759 C758 1.312 . S
C760 O732 1.214 . S
C760 O740 1.234 . S
C761 H733 0.929 1_545 S
C761 C764 1.391 . S
C761 C766 1.391 . S
C762 H734 0.929 . S
C762 C763 1.390 . S
C762 N765 1.391 . S
C763 H735 0.930 . S
C763 C762 1.390 . S
C763 C764 1.392 . S
C764 H736 0.929 . S
C764 C761 1.391 . S
C764 C763 1.392 . S
N765 Co709 2.257 . S
N765 C762 1.391 . S
N765 C766 1.388 . S
C766 H737 0.930 . S
C766 C761 1.391 . S
C766 N765 1.388 . S
Co767 O769 2.143 . S
Co767 O775 2.074 . S
Co767 O778 2.093 1_655 S
Co767 O791 2.097 1_655 S
Co767 N808 2.151 . S
Co767 N816 2.214 1_554 S
Co768 O769 2.160 1_455 S
Co768 O774 2.058 1_455 S
Co768 O784 2.058 . S
Co768 O799 2.037 . S
Co768 N803 2.145 . S
Co768 N824 2.257 . S
O769 Co767 2.143 . S
O769 Co768 2.160 1_655 S
C770 O771 1.278 . S
C770 O778 1.224 . S
O771 C770 1.278 . S
C772 O773 1.245 . S
C772 O784 1.231 1_655 S
O773 C772 1.245 . S
O774 Co768 2.058 1_655 S
O774 C800 1.269 . S
O775 Co767 2.074 . S
O775 C800 1.257 . S
H776 C801 0.930 . S
H777 C807 0.923 1_545 S
O778 Co767 2.093 1_455 S
O778 C770 1.224 . S
H779 C811 0.929 . S
H780 C813 0.930 . S
H781 C814 0.930 . S
H782 C812 0.929 . S
H783 C815 0.928 . S
O784 Co768 2.058 . S
O784 C772 1.231 1_455 S
H785 C804 0.929 . S
H786 C805 0.929 . S
H787 C817 0.931 . S
H788 C809 0.929 . S
H789 C818 0.930 . S
H790 C810 0.931 . S
O791 Co767 2.097 1_455 S
O791 C819 1.214 . S
H792 C820 0.929 1_545 S
H793 C821 0.929 . S
H794 C822 0.930 . S
H795 C823 0.929 . S
H796 C825 0.930 . S
H797 C802 0.930 . S
H798 C806 0.930 . S
O799 Co768 2.037 . S
O799 C819 1.234 . S
C800 O774 1.269 . S
C800 O775 1.257 . S
C801 H776 0.930 . S
C801 C804 1.388 . S
C801 C806 1.418 . S
C802 H797 0.930 . S
C802 C805 1.404 . S
C802 C806 1.353 . S
N803 Co768 2.145 . S
N803 C804 1.397 . S
N803 C805 1.334 . S
C804 H785 0.929 . S
C804 C801 1.388 . S
C804 N803 1.397 . S
C805 H786 0.929 . S
C805 C802 1.404 . S
C805 N803 1.334 . S
C806 H798 0.930 . S
C806 C801 1.418 . S
C806 C802 1.353 . S
C807 H777 0.923 1_565 S
C807 N808 1.330 . S
C807 C809 1.446 1_565 S
N808 Co767 2.151 . S
N808 C807 1.330 . S
N808 C812 1.418 . S
C809 H788 0.929 . S
C809 C807 1.446 1_545 S
C809 C810 1.332 1_545 S
C810 H790 0.931 . S
C810 C809 1.332 1_565 S
C810 C811 1.267 . S
C811 H779 0.929 . S
C811 C810 1.267 . S
C811 C812 1.251 . S
C812 H782 0.929 . S
C812 N808 1.418 . S
C812 C811 1.251 . S
C813 H780 0.930 . S
C813 C815 1.406 . S
C813 C818 1.261 . S
C814 H781 0.930 . S
C814 N816 1.325 . S
C814 C817 1.357 . S
C815 H783 0.928 . S
C815 C813 1.406 . S
C815 N816 1.261 . S
N816 Co767 2.214 1_556 S
N816 C814 1.325 . S
N816 C815 1.261 . S
C817 H787 0.931 . S
C817 C814 1.357 . S
C817 C818 1.312 . S
C818 H789 0.930 . S
C818 C813 1.261 . S
C818 C817 1.312 . S
C819 O791 1.214 . S
C819 O799 1.234 . S
C820 H792 0.929 1_565 S
C820 C823 1.391 . S
C820 C825 1.391 . S
C821 H793 0.929 . S
C821 C822 1.390 . S
C821 N824 1.391 . S
C822 H794 0.930 . S
C822 C821 1.390 . S
C822 C823 1.392 . S
C823 H795 0.929 . S
C823 C820 1.391 . S
C823 C822 1.392 . S
N824 Co768 2.257 . S
N824 C821 1.391 . S
N824 C825 1.388 . S
C825 H796 0.930 . S
C825 C820 1.391 . S
C825 N824 1.388 . S
Co826 O828 2.143 . S
Co826 O834 2.074 . S
Co826 O837 2.093 . S
Co826 O850 2.097 . S
Co826 N867 2.151 . S
Co826 N875 2.214 . S
Co827 O828 2.160 . S
Co827 O833 2.058 . S
Co827 O843 2.057 . S
Co827 O858 2.037 . S
Co827 N862 2.145 . S
Co827 N883 2.257 . S
O828 Co826 2.143 . S
O828 Co827 2.160 . S
C829 O830 1.278 . S
C829 O837 1.224 . S
O830 C829 1.278 . S
C831 O832 1.245 . S
C831 O843 1.232 . S
O832 C831 1.245 . S
O833 Co827 2.058 . S
O833 C859 1.269 . S
O834 Co826 2.074 . S
O834 C859 1.257 . S
H835 C860 0.930 . S
H836 C866 0.923 1_545 S
O837 Co826 2.093 . S
O837 C829 1.224 . S
H838 C870 0.929 . S
H839 C872 0.930 . S
H840 C873 0.930 . S
H841 C871 0.929 . S
H842 C874 0.928 . S
O843 Co827 2.057 . S
O843 C831 1.232 . S
H844 C863 0.929 . S
H845 C864 0.929 . S
H846 C876 0.931 . S
H847 C868 0.929 . S
H848 C877 0.930 . S
H849 C869 0.931 . S
O850 Co826 2.097 . S
O850 C878 1.214 . S
H851 C879 0.929 1_545 S
H852 C880 0.929 . S
H853 C881 0.930 . S
H854 C882 0.929 . S
H855 C884 0.930 . S
H856 C861 0.930 . S
H857 C865 0.930 . S
O858 Co827 2.037 . S
O858 C878 1.234 . S
C859 O833 1.269 . S
C859 O834 1.257 . S
C860 H835 0.930 . S
C860 C863 1.388 . S
C860 C865 1.418 1_554 S
C861 H856 0.930 . S
C861 C864 1.404 . S
C861 C865 1.353 . S
N862 Co827 2.145 . S
N862 C863 1.397 . S
N862 C864 1.334 1_554 S
C863 H844 0.929 . S
C863 C860 1.388 . S
C863 N862 1.397 . S
C864 H845 0.929 . S
C864 C861 1.404 . S
C864 N862 1.334 1_556 S
C865 H857 0.930 . S
C865 C860 1.418 1_556 S
C865 C861 1.353 . S
C866 H836 0.923 1_565 S
C866 N867 1.330 . S
C866 C868 1.446 1_565 S
N867 Co826 2.151 . S
N867 C866 1.330 . S
N867 C871 1.418 . S
C868 H847 0.929 . S
C868 C866 1.446 1_545 S
C868 C869 1.332 1_545 S
C869 H849 0.931 . S
C869 C868 1.332 1_565 S
C869 C870 1.267 . S
C870 H838 0.929 . S
C870 C869 1.267 . S
C870 C871 1.251 . S
C871 H841 0.929 . S
C871 N867 1.418 . S
C871 C870 1.251 . S
C872 H839 0.930 . S
C872 C874 1.406 . S
C872 C877 1.261 . S
C873 H840 0.930 . S
C873 N875 1.325 . S
C873 C876 1.357 . S
C874 H842 0.928 . S
C874 C872 1.406 . S
C874 N875 1.261 . S
N875 Co826 2.214 . S
N875 C873 1.325 . S
N875 C874 1.261 . S
C876 H846 0.931 . S
C876 C873 1.357 . S
C876 C877 1.312 . S
C877 H848 0.930 . S
C877 C872 1.261 . S
C877 C876 1.312 . S
C878 O850 1.214 . S
C878 O858 1.234 . S
C879 H851 0.929 1_565 S
C879 C882 1.391 . S
C879 C884 1.391 . S
C880 H852 0.929 . S
C880 C881 1.390 . S
C880 N883 1.391 . S
C881 H853 0.930 . S
C881 C880 1.390 . S
C881 C882 1.392 . S
C882 H854 0.929 . S
C882 C879 1.391 . S
C882 C881 1.392 . S
N883 Co827 2.257 . S
N883 C880 1.391 . S
N883 C884 1.388 . S
C884 H855 0.930 . S
C884 C879 1.391 . S
C884 N883 1.388 . S
Co885 O887 2.143 1_554 S
Co885 O893 2.074 1_554 S
Co885 O896 2.093 1_655 S
Co885 O909 2.097 1_655 S
Co885 N926 2.151 . S
Co885 N934 2.214 . S
Co886 O887 2.160 1_455 S
Co886 O892 2.058 1_455 S
Co886 O902 2.058 . S
Co886 O917 2.037 . S
Co886 N921 2.145 . S
Co886 N942 2.257 . S
O887 Co885 2.143 1_556 S
O887 Co886 2.160 1_655 S
C888 O889 1.278 1_554 S
C888 O896 1.224 . S
O889 C888 1.278 1_556 S
C890 O891 1.245 . S
C890 O902 1.231 1_655 S
O891 C890 1.245 . S
O892 Co886 2.058 1_655 S
O892 C918 1.269 . S
O893 Co885 2.074 1_556 S
O893 C918 1.257 . S
H894 C919 0.930 . S
H895 C925 0.923 1_566 S
O896 Co885 2.093 1_455 S
O896 C888 1.224 . S
H897 C929 0.929 . S
H898 C931 0.930 . S
H899 C932 0.930 . S
H900 C930 0.929 . S
H901 C933 0.928 . S
O902 Co886 2.058 . S
O902 C890 1.231 1_455 S
H903 C922 0.929 . S
H904 C923 0.929 . S
H905 C935 0.931 . S
H906 C927 0.929 . S
H907 C936 0.930 . S
H908 C928 0.931 . S
O909 Co885 2.097 1_455 S
O909 C937 1.214 1_554 S
H910 C938 0.929 1_565 S
H911 C939 0.929 . S
H912 C940 0.930 . S
H913 C941 0.929 . S
H914 C943 0.930 . S
H915 C920 0.930 . S
H916 C924 0.930 . S
O917 Co886 2.037 . S
O917 C937 1.234 . S
C918 O892 1.269 . S
C918 O893 1.257 . S
C919 H894 0.930 . S
C919 C922 1.388 . S
C919 C924 1.418 . S
C920 H915 0.930 . S
C920 C923 1.404 . S
C920 C924 1.353 . S
N921 Co886 2.145 . S
N921 C922 1.397 . S
N921 C923 1.334 . S
C922 H903 0.929 . S
C922 C919 1.388 . S
C922 N921 1.397 . S
C923 H904 0.929 . S
C923 C920 1.404 . S
C923 N921 1.334 . S
C924 H916 0.930 . S
C924 C919 1.418 . S
C924 C920 1.353 . S
C925 H895 0.923 1_544 S
C925 N926 1.330 . S
C925 C927 1.446 1_545 S
N926 Co885 2.151 . S
N926 C925 1.330 . S
N926 C930 1.418 . S
C927 H906 0.929 . S
C927 C925 1.446 1_565 S
C927 C928 1.332 1_565 S
C928 H908 0.931 . S
C928 C927 1.332 1_545 S
C928 C929 1.267 . S
C929 H897 0.929 . S
C929 C928 1.267 . S
C929 C930 1.251 . S
C930 H900 0.929 . S
C930 N926 1.418 . S
C930 C929 1.251 . S
C931 H898 0.930 . S
C931 C933 1.406 . S
C931 C936 1.261 . S
C932 H899 0.930 . S
C932 N934 1.325 . S
C932 C935 1.357 . S
C933 H901 0.928 . S
C933 C931 1.406 . S
C933 N934 1.261 . S
N934 Co885 2.214 . S
N934 C932 1.325 . S
N934 C933 1.261 . S
C935 H905 0.931 . S
C935 C932 1.357 . S
C935 C936 1.312 . S
C936 H907 0.930 . S
C936 C931 1.261 . S
C936 C935 1.312 . S
C937 O909 1.214 1_556 S
C937 O917 1.234 . S
C938 H910 0.929 1_545 S
C938 C941 1.391 . S
C938 C943 1.391 . S
C939 H911 0.929 . S
C939 C940 1.390 . S
C939 N942 1.391 . S
C940 H912 0.930 . S
C940 C939 1.390 . S
C940 C941 1.392 . S
C941 H913 0.929 . S
C941 C938 1.391 . S
C941 C940 1.392 . S
N942 Co886 2.257 . S
N942 C939 1.391 . S
N942 C943 1.388 . S
C943 H914 0.930 . S
C943 C938 1.391 . S
C943 N942 1.388 . S
C564 C33 2.823 . S
C859 C92 2.823 . S
C151 C505 2.823 . S
C210 C918 2.823 1_554 S
C269 C623 2.823 1_556 S
C800 C328 2.823 . S
C682 C387 2.823 . S
C446 C741 2.824 . S
C288 C229 1.609 . S
C760 C524 1.609 . S
C406 C111 1.609 . S
C583 C819 1.609 . S
C52 C347 1.609 . S
C937 C642 1.609 . S
C465 C170 1.609 . S
C701 C878 1.609 . S
C3 C239 0.556 . S
C298 C62 0.556 . S
C357 C121 0.556 . S
C180 C416 0.556 . S
C593 C475 0.556 . S
C652 C534 0.556 . S
C829 C711 0.556 1_565 S
C888 C770 0.556 1_545 S
C241 C5 2.356 . S
C300 C64 2.356 . S
C359 C123 2.356 . S
C182 C418 2.356 . S
C477 C595 2.356 . S
C654 C536 2.356 . S
C831 C713 2.356 1_565 S
C890 C772 2.356 1_545 S
