# Generated by pormake.
# Topology pem, (4)-cn, num edge types: 1
# Building blocks:
#     Node 0, Type 0, BuildingBlock: TATPOV_clean_sbu_0, # of connection points: 4
#     Node 1, Type 0, BuildingBlock: TATPOV_clean_sbu_0, # of connection points: 4
#     Node 2, Type 0, BuildingBlock: TATPOV_clean_sbu_0, # of connection points: 4
#     Node 3, Type 0, BuildingBlock: TATPOV_clean_sbu_0, # of connection points: 4
#     Node 4, Type 0, BuildingBlock: TATPOV_clean_sbu_0, # of connection points: 4
#     Node 5, Type 0, BuildingBlock: TATPOV_clean_sbu_0, # of connection points: 4
#     Node 6, Type 0, BuildingBlock: TATPOV_clean_sbu_0, # of connection points: 4
#     Node 7, Type 0, BuildingBlock: TATPOV_clean_sbu_0, # of connection points: 4
#     Node 8, Type 0, BuildingBlock: TATPOV_clean_sbu_0, # of connection points: 4
#     Node 9, Type 0, BuildingBlock: TATPOV_clean_sbu_0, # of connection points: 4
#     Node 10, Type 0, BuildingBlock: TATPOV_clean_sbu_0, # of connection points: 4
#     Node 11, Type 0, BuildingBlock: TATPOV_clean_sbu_0, # of connection points: 4
#     Node 12, Type 0, BuildingBlock: TATPOV_clean_sbu_0, # of connection points: 4
#     Node 13, Type 0, BuildingBlock: TATPOV_clean_sbu_0, # of connection points: 4
#     Node 14, Type 0, BuildingBlock: TATPOV_clean_sbu_0, # of connection points: 4
#     Node 15, Type 0, BuildingBlock: TATPOV_clean_sbu_0, # of connection points: 4
#     Node 16, Type 0, BuildingBlock: TATPOV_clean_sbu_0, # of connection points: 4
#     Node 17, Type 0, BuildingBlock: TATPOV_clean_sbu_0, # of connection points: 4
#     Node 18, Type 0, BuildingBlock: TATPOV_clean_sbu_0, # of connection points: 4
#     Node 19, Type 0, BuildingBlock: TATPOV_clean_sbu_0, # of connection points: 4
#     Node 20, Type 0, BuildingBlock: TATPOV_clean_sbu_0, # of connection points: 4
#     Node 21, Type 0, BuildingBlock: TATPOV_clean_sbu_0, # of connection points: 4
#     Node 22, Type 0, BuildingBlock: TATPOV_clean_sbu_0, # of connection points: 4
#     Node 23, Type 0, BuildingBlock: TATPOV_clean_sbu_0, # of connection points: 4
#     Node 24, Type 0, BuildingBlock: TATPOV_clean_sbu_0, # of connection points: 4
#     Node 25, Type 0, BuildingBlock: TATPOV_clean_sbu_0, # of connection points: 4
#     Node 26, Type 0, BuildingBlock: TATPOV_clean_sbu_0, # of connection points: 4
#     Node 27, Type 0, BuildingBlock: TATPOV_clean_sbu_0, # of connection points: 4
#     Node 28, Type 0, BuildingBlock: TATPOV_clean_sbu_0, # of connection points: 4
#     Node 29, Type 0, BuildingBlock: TATPOV_clean_sbu_0, # of connection points: 4
#     Node 30, Type 0, BuildingBlock: TATPOV_clean_sbu_0, # of connection points: 4
#     Node 31, Type 0, BuildingBlock: TATPOV_clean_sbu_0, # of connection points: 4
#     Edge 32, Type (0, 0), BuildingBlock: XUDNAN_clean_linker_2, # of connection points: 2
#     Edge 33, Type (0, 0), BuildingBlock: XUDNAN_clean_linker_2, # of connection points: 2
#     Edge 34, Type (0, 0), BuildingBlock: XUDNAN_clean_linker_2, # of connection points: 2
#     Edge 35, Type (0, 0), BuildingBlock: XUDNAN_clean_linker_2, # of connection points: 2
#     Edge 36, Type (0, 0), BuildingBlock: XUDNAN_clean_linker_2, # of connection points: 2
#     Edge 37, Type (0, 0), BuildingBlock: XUDNAN_clean_linker_2, # of connection points: 2
#     Edge 38, Type (0, 0), BuildingBlock: XUDNAN_clean_linker_2, # of connection points: 2
#     Edge 39, Type (0, 0), BuildingBlock: XUDNAN_clean_linker_2, # of connection points: 2
#     Edge 40, Type (0, 0), BuildingBlock: XUDNAN_clean_linker_2, # of connection points: 2
#     Edge 41, Type (0, 0), BuildingBlock: XUDNAN_clean_linker_2, # of connection points: 2
#     Edge 42, Type (0, 0), BuildingBlock: XUDNAN_clean_linker_2, # of connection points: 2
#     Edge 43, Type (0, 0), BuildingBlock: XUDNAN_clean_linker_2, # of connection points: 2
#     Edge 44, Type (0, 0), BuildingBlock: XUDNAN_clean_linker_2, # of connection points: 2
#     Edge 45, Type (0, 0), BuildingBlock: XUDNAN_clean_linker_2, # of connection points: 2
#     Edge 46, Type (0, 0), BuildingBlock: XUDNAN_clean_linker_2, # of connection points: 2
#     Edge 47, Type (0, 0), BuildingBlock: XUDNAN_clean_linker_2, # of connection points: 2
#     Edge 48, Type (0, 0), BuildingBlock: XUDNAN_clean_linker_2, # of connection points: 2
#     Edge 49, Type (0, 0), BuildingBlock: XUDNAN_clean_linker_2, # of connection points: 2
#     Edge 50, Type (0, 0), BuildingBlock: XUDNAN_clean_linker_2, # of connection points: 2
#     Edge 51, Type (0, 0), BuildingBlock: XUDNAN_clean_linker_2, # of connection points: 2
#     Edge 52, Type (0, 0), BuildingBlock: XUDNAN_clean_linker_2, # of connection points: 2
#     Edge 53, Type (0, 0), BuildingBlock: XUDNAN_clean_linker_2, # of connection points: 2
#     Edge 54, Type (0, 0), BuildingBlock: XUDNAN_clean_linker_2, # of connection points: 2
#     Edge 55, Type (0, 0), BuildingBlock: XUDNAN_clean_linker_2, # of connection points: 2
#     Edge 56, Type (0, 0), BuildingBlock: XUDNAN_clean_linker_2, # of connection points: 2
#     Edge 57, Type (0, 0), BuildingBlock: XUDNAN_clean_linker_2, # of connection points: 2
#     Edge 58, Type (0, 0), BuildingBlock: XUDNAN_clean_linker_2, # of connection points: 2
#     Edge 59, Type (0, 0), BuildingBlock: XUDNAN_clean_linker_2, # of connection points: 2
#     Edge 60, Type (0, 0), BuildingBlock: XUDNAN_clean_linker_2, # of connection points: 2
#     Edge 61, Type (0, 0), BuildingBlock: XUDNAN_clean_linker_2, # of connection points: 2
#     Edge 62, Type (0, 0), BuildingBlock: XUDNAN_clean_linker_2, # of connection points: 2
#     Edge 63, Type (0, 0), BuildingBlock: XUDNAN_clean_linker_2, # of connection points: 2
#     Edge 64, Type (0, 0), BuildingBlock: XUDNAN_clean_linker_2, # of connection points: 2
#     Edge 65, Type (0, 0), BuildingBlock: XUDNAN_clean_linker_2, # of connection points: 2
#     Edge 66, Type (0, 0), BuildingBlock: XUDNAN_clean_linker_2, # of connection points: 2
#     Edge 67, Type (0, 0), BuildingBlock: XUDNAN_clean_linker_2, # of connection points: 2
#     Edge 68, Type (0, 0), BuildingBlock: XUDNAN_clean_linker_2, # of connection points: 2
#     Edge 69, Type (0, 0), BuildingBlock: XUDNAN_clean_linker_2, # of connection points: 2
#     Edge 70, Type (0, 0), BuildingBlock: XUDNAN_clean_linker_2, # of connection points: 2
#     Edge 71, Type (0, 0), BuildingBlock: XUDNAN_clean_linker_2, # of connection points: 2
#     Edge 72, Type (0, 0), BuildingBlock: XUDNAN_clean_linker_2, # of connection points: 2
#     Edge 73, Type (0, 0), BuildingBlock: XUDNAN_clean_linker_2, # of connection points: 2
#     Edge 74, Type (0, 0), BuildingBlock: XUDNAN_clean_linker_2, # of connection points: 2
#     Edge 75, Type (0, 0), BuildingBlock: XUDNAN_clean_linker_2, # of connection points: 2
#     Edge 76, Type (0, 0), BuildingBlock: XUDNAN_clean_linker_2, # of connection points: 2
#     Edge 77, Type (0, 0), BuildingBlock: XUDNAN_clean_linker_2, # of connection points: 2
#     Edge 78, Type (0, 0), BuildingBlock: XUDNAN_clean_linker_2, # of connection points: 2
#     Edge 79, Type (0, 0), BuildingBlock: XUDNAN_clean_linker_2, # of connection points: 2
#     Edge 80, Type (0, 0), BuildingBlock: XUDNAN_clean_linker_2, # of connection points: 2
#     Edge 81, Type (0, 0), BuildingBlock: XUDNAN_clean_linker_2, # of connection points: 2
#     Edge 82, Type (0, 0), BuildingBlock: XUDNAN_clean_linker_2, # of connection points: 2
#     Edge 83, Type (0, 0), BuildingBlock: XUDNAN_clean_linker_2, # of connection points: 2
#     Edge 84, Type (0, 0), BuildingBlock: XUDNAN_clean_linker_2, # of connection points: 2
#     Edge 85, Type (0, 0), BuildingBlock: XUDNAN_clean_linker_2, # of connection points: 2
#     Edge 86, Type (0, 0), BuildingBlock: XUDNAN_clean_linker_2, # of connection points: 2
#     Edge 87, Type (0, 0), BuildingBlock: XUDNAN_clean_linker_2, # of connection points: 2
#     Edge 88, Type (0, 0), BuildingBlock: XUDNAN_clean_linker_2, # of connection points: 2
#     Edge 89, Type (0, 0), BuildingBlock: XUDNAN_clean_linker_2, # of connection points: 2
#     Edge 90, Type (0, 0), BuildingBlock: XUDNAN_clean_linker_2, # of connection points: 2
#     Edge 91, Type (0, 0), BuildingBlock: XUDNAN_clean_linker_2, # of connection points: 2
#     Edge 92, Type (0, 0), BuildingBlock: XUDNAN_clean_linker_2, # of connection points: 2
#     Edge 93, Type (0, 0), BuildingBlock: XUDNAN_clean_linker_2, # of connection points: 2
#     Edge 94, Type (0, 0), BuildingBlock: XUDNAN_clean_linker_2, # of connection points: 2
#     Edge 95, Type (0, 0), BuildingBlock: XUDNAN_clean_linker_2, # of connection points: 2
# Relax obj value: 0.093
# Max RMSD: 0.079
# Mean RMSD: 0.070
data_MOF--net-pem--node1-TATPOV_clean_sbu_0--edge1-XUDNAN_clean_linker_2
_symmetry_space_group_name_H-M    P1
_symmetry_Int_Tables_number       1
_symmetry_cell_setting            triclinic
loop_
_symmetry_equiv_pos_as_xyz
'x, y, z'
_cell_length_a     42.037434
_cell_length_b     42.835141
_cell_length_c     42.990539
_cell_angle_alpha  90.870106
_cell_angle_beta   90.488521
_cell_angle_gamma 90.814514
loop_
_atom_site_label
_atom_site_type_symbol
_atom_site_fract_x
_atom_site_fract_y
_atom_site_fract_z
_atom_type_partial_charge
Zn0 Zn 0.07591 0.04441 0.08964 0.0
Zn1 Zn 0.13019 0.06629 0.08336 0.0
O2 O 0.09593 0.1027 0.09066 0.0
O3 O 0.05311 0.07965 0.10917 0.0
O4 O 0.17073 0.08904 0.0689 0.0
O5 O 0.09281 0.00997 0.11483 0.0
O6 O 0.13995 0.03242 0.11873 0.0
C7 C 0.06761 0.10434 0.10159 0.0
C8 C 0.09711 0.0377 0.02855 0.0
O9 O 0.12344 0.04337 0.04199 0.0
O10 O 0.07145 0.03938 0.04351 0.0
C11 C 0.16662 0.10392 0.04361 0.0
O12 O 0.13771 0.10626 0.03217 0.0
C13 C 0.12078 0.01008 0.12592 0.0
Zn14 Zn 0.21405 0.87521 0.35671 0.0
Zn15 Zn 0.16568 0.84089 0.36581 0.0
O16 O 0.18768 0.8588 0.40765 0.0
O17 O 0.21682 0.89996 0.39606 0.0
O18 O 0.12321 0.81554 0.37465 0.0
O19 O 0.20339 0.89369 0.3163 0.0
O20 O 0.15915 0.86677 0.32371 0.0
C21 C 0.2069 0.88104 0.41618 0.0
C22 C 0.2256 0.80873 0.35607 0.0
O23 O 0.19546 0.80609 0.35644 0.0
O24 O 0.23895 0.83541 0.35669 0.0
C25 C 0.12315 0.79233 0.39312 0.0
O26 O 0.14952 0.78631 0.40838 0.0
C27 C 0.17615 0.88502 0.3068 0.0
Zn28 Zn 0.50829 0.91519 0.59684 0.0
Zn29 Zn 0.44318 0.90305 0.59311 0.0
O30 O 0.46405 0.8633 0.61274 0.0
O31 O 0.51584 0.87187 0.6135 0.0
O32 O 0.39623 0.894 0.58075 0.0
O33 O 0.49626 0.95068 0.62632 0.0
O34 O 0.44436 0.94251 0.62194 0.0
C35 C 0.49224 0.85413 0.61892 0.0
C36 C 0.48324 0.91985 0.53579 0.0
O37 O 0.45787 0.91297 0.54987 0.0
O38 O 0.50941 0.92268 0.55036 0.0
C39 C 0.39059 0.87585 0.5574 0.0
O40 O 0.41416 0.8605 0.5448 0.0
C41 C 0.46802 0.95832 0.63293 0.0
Zn42 Zn 0.32926 0.12676 0.81342 0.0
Zn43 Zn 0.37925 0.15672 0.83744 0.0
O44 O 0.35035 0.14453 0.87527 0.0
O45 O 0.3149 0.11133 0.85528 0.0
O46 O 0.41873 0.18042 0.85264 0.0
O47 O 0.35573 0.10353 0.78197 0.0
O48 O 0.39762 0.12431 0.80582 0.0
C49 C 0.32614 0.12638 0.87858 0.0
C50 C 0.33051 0.1926 0.8029 0.0
O51 O 0.35822 0.19155 0.81458 0.0
O52 O 0.31273 0.16854 0.80141 0.0
C53 C 0.42059 0.20351 0.87165 0.0
O54 O 0.39557 0.21122 0.888 0.0
C55 C 0.38561 0.10694 0.78419 0.0
Zn56 Zn 0.01658 0.90694 0.34889 0.0
Zn57 Zn 0.0722 0.90928 0.38292 0.0
O58 O 0.04786 0.86852 0.3917 0.0
O59 O 0.00653 0.86242 0.36033 0.0
O60 O 0.10945 0.90449 0.41358 0.0
O61 O 0.04285 0.92018 0.31251 0.0
O62 O 0.08806 0.92134 0.33916 0.0
C63 C 0.02405 0.85246 0.38193 0.0
C64 C 0.02119 0.95785 0.39221 0.0
O65 O 0.04874 0.94702 0.39709 0.0
O66 O 1.00113 0.94342 0.37493 0.0
C67 C 0.11557 0.92246 0.43689 0.0
O68 O 0.10007 0.94871 0.44004 0.0
C69 C 0.07227 0.92687 0.3143 0.0
Zn70 Zn 0.38842 0.85435 0.6519 0.0
Zn71 Zn 0.3354 0.86359 0.63153 0.0
O72 O 0.35008 0.90469 0.6571 0.0
O73 O 0.39981 0.89552 0.66945 0.0
O74 O 0.29705 0.87146 0.60272 0.0
O75 O 0.41017 0.83585 0.61472 0.0
O76 O 0.35972 0.8252 0.61109 0.0
C77 C 0.37597 0.91305 0.67104 0.0
C78 C 0.33462 0.82244 0.68217 0.0
O79 O 0.31734 0.83941 0.66515 0.0
O80 O 0.36475 0.82379 0.68056 0.0
C81 C 0.28104 0.89584 0.59704 0.0
O82 O 0.28956 0.9226 0.61013 0.0
C83 C 0.38836 0.81794 0.60488 0.0
Zn84 Zn 0.35585 0.04314 0.91496 0.0
Zn85 Zn 0.40527 0.08452 0.90741 0.0
O86 O 0.38616 0.07172 0.86447 0.0
O87 O 0.34172 0.04452 0.86971 0.0
O88 O 0.44186 0.11681 0.89993 0.0
O89 O 0.33968 0.06784 0.95183 0.0
O90 O 0.37839 0.10222 0.94479 0.0
C91 C 0.36328 0.0555 0.85241 0.0
C92 C 0.41839 0.01723 0.92178 0.0
O93 O 0.42842 0.04515 0.91828 0.0
O94 O 0.38895 0.01071 0.92234 0.0
C95 C 0.45791 0.11659 0.87485 0.0
O96 O 0.45035 0.096 0.85301 0.0
C97 C 0.35442 0.09256 0.96033 0.0
Zn98 Zn 0.09771 0.15558 0.17122 0.0
Zn99 Zn 0.15267 0.15585 0.15207 0.0
O100 O 0.13538 0.11033 0.16074 0.0
O101 O 0.08477 0.11121 0.17273 0.0
O102 O 0.19377 0.14904 0.12703 0.0
O103 O 0.07971 0.18442 0.14097 0.0
O104 O 0.1297 0.19627 0.1345 0.0
C105 C 0.10999 0.09602 0.16917 0.0
C106 C 0.14523 0.17662 0.21657 0.0
O107 O 0.16501 0.16967 0.19532 0.0
O108 O 0.11553 0.17435 0.21155 0.0
C109 C 0.21332 0.17093 0.12048 0.0
O110 O 0.20711 0.1995 0.12993 0.0
C111 C 0.10041 0.20321 0.13119 0.0
Zn112 Zn 0.60239 0.42867 0.88894 0.0
Zn113 Zn 0.62857 0.40399 0.93576 0.0
O114 O 0.60382 0.3682 0.9108 0.0
O115 O 0.58365 0.39084 0.8695 0.0
O116 O 0.65202 0.38408 0.97229 0.0
O117 O 0.64105 0.44828 0.87217 0.0
O118 O 0.6621 0.43607 0.91715 0.0
C119 C 0.58675 0.36697 0.88596 0.0
C120 C 0.57339 0.44563 0.94616 0.0
O121 O 0.59383 0.42713 0.95713 0.0
O122 O 0.57339 0.45232 0.91759 0.0
C123 C 0.64975 0.35561 0.98022 0.0
O124 O 0.63189 0.33623 0.9635 0.0
C125 C 0.66389 0.45028 0.89127 0.0
Zn126 Zn 0.92304 0.32425 0.20912 0.0
Zn127 Zn 0.876 0.31602 0.16846 0.0
O128 O 0.87433 0.36201 0.1863 0.0
O129 O 0.91909 0.37131 0.21159 0.0
O130 O 0.83774 0.31208 0.1386 0.0
O131 O 0.95051 0.29795 0.18097 0.0
O132 O 0.91403 0.29719 0.14387 0.0
C133 C 0.89226 0.38069 0.20225 0.0
C134 C 0.87666 0.28166 0.22971 0.0
O135 O 0.86593 0.28484 0.20217 0.0
O136 O 0.89913 0.29881 0.24021 0.0
C137 C 0.81377 0.32997 0.13978 0.0
O138 O 0.81333 0.35255 0.16075 0.0
C139 C 0.94119 0.28898 0.15417 0.0
Zn140 Zn 0.82554 0.53901 0.42614 0.0
Zn141 Zn 0.87184 0.57692 0.42404 0.0
O142 O 0.85603 0.56067 0.37928 0.0
O143 O 0.80798 0.54002 0.38341 0.0
O144 O 0.90772 0.61204 0.42112 0.0
O145 O 0.80294 0.55473 0.46261 0.0
O146 O 0.842 0.58946 0.46288 0.0
C147 C 0.83187 0.54633 0.36689 0.0
C148 C 0.88647 0.51093 0.43521 0.0
O149 O 0.89682 0.53903 0.43551 0.0
O150 O 0.85708 0.50491 0.43198 0.0
C151 C 0.92558 0.61981 0.39836 0.0
O152 O 0.921 0.60591 0.3712 0.0
C153 C 0.81684 0.57792 0.4754 0.0
Zn154 Zn 0.79415 0.62871 0.34078 0.0
Zn155 Zn 0.84314 0.6595 0.36265 0.0
O156 O 0.81488 0.6474 0.40073 0.0
O157 O 0.77803 0.61509 0.38231 0.0
O158 O 0.88108 0.68153 0.38113 0.0
O159 O 0.82113 0.60295 0.31168 0.0
O160 O 0.86281 0.62874 0.33033 0.0
C161 C 0.79019 0.63027 0.40504 0.0
C162 C 0.79519 0.69473 0.32776 0.0
O163 O 0.82269 0.69441 0.34 0.0
O164 O 0.77809 0.67018 0.32617 0.0
C165 C 0.87847 0.70372 0.40086 0.0
O166 O 0.85024 0.71112 0.4113 0.0
C167 C 0.85074 0.60877 0.31116 0.0
Zn168 Zn 0.70199 0.38865 0.83965 0.0
Zn169 Zn 0.65954 0.34306 0.85156 0.0
O170 O 0.67994 0.35363 0.89536 0.0
O171 O 0.7113 0.39398 0.88531 0.0
O172 O 0.6288 0.3042 0.85492 0.0
O173 O 0.67149 0.41295 0.81519 0.0
O174 O 0.63423 0.37814 0.82601 0.0
C175 C 0.70068 0.37419 0.90434 0.0
C176 C 0.72172 0.33253 0.81507 0.0
O177 O 0.6957 0.32346 0.82716 0.0
O178 O 0.73036 0.36084 0.81607 0.0
C179 C 0.62225 0.28489 0.87655 0.0
O180 O 0.63545 0.28897 0.90414 0.0
C181 C 0.64311 0.4034 0.81262 0.0
Zn182 Zn 0.87941 0.96482 0.93074 0.0
Zn183 Zn 0.89642 0.91618 0.89203 0.0
O184 O 0.87223 0.89654 0.92814 0.0
O185 O 0.86099 0.93382 0.96176 0.0
O186 O 0.91752 0.87785 0.87269 0.0
O187 O 0.85652 0.98203 0.89287 0.0
O188 O 0.87127 0.94389 0.86137 0.0
C189 C 0.86074 0.90513 0.95412 0.0
C190 C 0.94538 0.96381 0.91767 0.0
O191 O 0.9369 0.93972 0.90219 0.0
O192 O 0.92536 0.97899 0.93344 0.0
C193 C 0.93649 0.86654 0.89283 0.0
O194 O 0.93702 0.879 0.92096 0.0
C195 C 0.85842 0.97043 0.8656 0.0
Zn196 Zn 0.78835 0.12013 0.65877 0.0
Zn197 Zn 0.83093 0.14615 0.632 0.0
O198 O 0.84954 0.113 0.66249 0.0
O199 O 0.81011 0.079 0.66293 0.0
O200 O 0.86739 0.16633 0.60715 0.0
O201 O 0.75358 0.12663 0.62803 0.0
O202 O 0.79679 0.12926 0.59975 0.0
C203 C 0.83799 0.08684 0.67146 0.0
C204 C 0.80725 0.17637 0.68767 0.0
O205 O 0.81731 0.18185 0.66046 0.0
O206 O 0.79567 0.14988 0.69392 0.0
C207 C 0.86768 0.19459 0.59799 0.0
O208 O 0.84335 0.21241 0.60437 0.0
C209 C 0.76659 0.12574 0.60174 0.0
Zn210 Zn 0.61824 0.02028 0.37501 0.0
Zn211 Zn 0.59854 0.07154 0.36806 0.0
O212 O 0.62368 0.07689 0.41016 0.0
O213 O 0.62494 0.02686 0.42024 0.0
O214 O 0.57675 0.11376 0.35913 0.0
O215 O 0.65656 0.02056 0.34861 0.0
O216 O 0.62729 0.05757 0.32918 0.0
C217 C 0.63017 0.05483 0.42876 0.0
C218 C 0.55504 0.01413 0.36613 0.0
O219 O 0.55929 0.04287 0.37321 0.0
O220 O 0.5789 0.9978 0.35953 0.0
C221 C 0.55039 0.12231 0.37092 0.0
O222 O 0.53723 0.10508 0.39246 0.0
C223 C 0.65031 0.03835 0.32638 0.0
Zn224 Zn 0.61341 0.84234 0.16903 0.0
Zn225 Zn 0.65602 0.83649 0.12478 0.0
O226 O 0.61591 0.81302 0.10532 0.0
O227 O 0.58253 0.81554 0.14444 0.0
O228 O 0.69104 0.83542 0.09346 0.0
O229 O 0.61656 0.88942 0.16921 0.0
O230 O 0.65846 0.88241 0.13995 0.0
C231 C 0.58911 0.80591 0.11737 0.0
C232 C 0.66978 0.81095 0.18773 0.0
O233 O 0.67654 0.81301 0.15913 0.0
O234 O 0.64396 0.82153 0.19816 0.0
C235 C 0.70584 0.8108 0.08589 0.0
O236 O 0.69564 0.78348 0.09539 0.0
C237 C 0.6418 0.90004 0.15723 0.0
Zn238 Zn 0.98014 0.08809 0.62181 0.0
Zn239 Zn 0.91995 0.10471 0.60377 0.0
O240 O 0.91237 0.07068 0.63705 0.0
O241 O 0.96115 0.05668 0.64993 0.0
O242 O 0.87736 0.11079 0.58021 0.0
O243 O 0.98697 0.13172 0.63587 0.0
O244 O 0.93901 0.14693 0.62177 0.0
C245 C 0.93135 0.05388 0.65276 0.0
C246 C 0.97247 0.08292 0.55832 0.0
O247 O 0.9449 0.09166 0.56593 0.0
O248 O 0.99366 0.07841 0.57868 0.0
C249 C 0.86724 0.0871 0.56445 0.0
O250 O 0.88224 0.06059 0.56748 0.0
C251 C 0.96688 0.15316 0.63272 0.0
Zn252 Zn 0.64723 0.19663 0.32542 0.0
Zn253 Zn 0.65664 0.1489 0.36274 0.0
O254 O 0.62673 0.17797 0.38893 0.0
O255 O 0.6236 0.21883 0.35878 0.0
O256 O 0.67886 0.12096 0.39486 0.0
O257 O 0.62469 0.16563 0.29586 0.0
O258 O 0.63078 0.1254 0.32685 0.0
C259 C 0.61672 0.20548 0.38393 0.0
C260 C 0.71017 0.18831 0.33062 0.0
O261 O 0.6986 0.1657 0.34567 0.0
O262 O 0.69232 0.20853 0.319 0.0
C263 C 0.69804 0.13716 0.41217 0.0
O264 O 0.69724 0.16773 0.4103 0.0
C265 C 0.62014 0.1369 0.30142 0.0
Zn266 Zn 0.60105 0.98965 0.0772 0.0
Zn267 Zn 0.58103 0.94152 0.10348 0.0
O268 O 0.62839 0.93432 0.08801 0.0
O269 O 0.6472 0.98214 0.08423 0.0
O270 O 0.56444 0.90424 0.12907 0.0
O271 O 0.57802 0.02229 0.10168 0.0
O272 O 0.56808 0.98126 0.1302 0.0
C273 C 0.65147 0.95306 0.08178 0.0
C274 C 0.56383 0.948 0.03789 0.0
O275 O 0.55589 0.93619 0.06363 0.0
O276 O 0.58355 0.97057 0.0373 0.0
C277 C 0.53511 0.89607 0.12669 0.0
O278 O 0.51647 0.91155 0.10793 0.0
C279 C 0.56658 0.0108 0.12612 0.0
Zn280 Zn 0.84734 0.8232 0.81903 0.0
Zn281 Zn 0.83071 0.86041 0.8629 0.0
O282 O 0.85674 0.82529 0.88446 0.0
O283 O 0.85822 0.78903 0.84791 0.0
O284 O 0.81141 0.88726 0.89822 0.0
O285 O 0.88093 0.8517 0.8032 0.0
O286 O 0.86002 0.88717 0.83441 0.0
C287 C 0.86479 0.79802 0.87541 0.0
C288 C 0.78439 0.83902 0.81149 0.0
O289 O 0.78956 0.85018 0.83862 0.0
O290 O 0.80629 0.82582 0.79662 0.0
C291 C 0.78581 0.87699 0.91061 0.0
O292 O 0.77435 0.84972 0.90122 0.0
C293 C 0.87904 0.87975 0.81242 0.0
Zn294 Zn 0.40543 0.58527 0.11592 0.0
Zn295 Zn 0.36825 0.59947 0.07527 0.0
O296 O 0.34101 0.57409 0.10842 0.0
O297 O 0.37543 0.57006 0.14656 0.0
O298 O 0.33601 0.61677 0.04509 0.0
O299 O 0.4315 0.62378 0.12159 0.0
O300 O 0.40005 0.63825 0.08366 0.0
C301 C 0.34794 0.5648 0.13575 0.0
C302 C 0.41147 0.54798 0.06096 0.0
O303 O 0.39131 0.56669 0.04981 0.0
O304 O 0.42122 0.55111 0.08872 0.0
C305 C 0.32137 0.59966 0.025 0.0
O306 O 0.32616 0.56942 0.02458 0.0
C307 C 0.4239 0.64389 0.10179 0.0
Zn308 Zn 0.10831 0.66924 0.75231 0.0
Zn309 Zn 0.13689 0.64493 0.80375 0.0
O310 O 0.10099 0.67284 0.82039 0.0
O311 O 0.07837 0.69307 0.77899 0.0
O312 O 0.16112 0.63227 0.84262 0.0
O313 O 0.09752 0.6264 0.7367 0.0
O314 O 0.12629 0.60666 0.77479 0.0
C315 C 0.08051 0.69072 0.80821 0.0
C316 C 0.17462 0.68465 0.75997 0.0
O317 O 0.17171 0.66955 0.78482 0.0
O318 O 0.15118 0.68771 0.74162 0.0
C319 C 0.16989 0.65561 0.8595 0.0
O320 O 0.16134 0.68363 0.85099 0.0
C321 C 0.11021 0.60324 0.74949 0.0
Zn322 Zn 0.10264 0.42922 0.53402 0.0
Zn323 Zn 0.08931 0.37758 0.55217 0.0
O324 O 0.13492 0.36806 0.53596 0.0
O325 O 0.14824 0.41786 0.53563 0.0
O326 O 0.06482 0.33876 0.56605 0.0
O327 O 0.08358 0.45364 0.56891 0.0
O328 O 0.09088 0.4083 0.59079 0.0
C329 C 0.15597 0.38956 0.53243 0.0
C330 C 0.06135 0.40566 0.4925 0.0
O331 O 0.0599 0.38734 0.51544 0.0
O332 O 0.08191 0.42738 0.49262 0.0
C333 C 0.05799 0.31783 0.54559 0.0
O334 O 0.0715 0.31912 0.5182 0.0
C335 C 0.08566 0.43758 0.59317 0.0
Zn336 Zn 0.11834 0.36186 0.73099 0.0
Zn337 Zn 0.15138 0.38295 0.68072 0.0
O338 O 0.11434 0.3555 0.66081 0.0
O339 O 0.08779 0.34052 0.70237 0.0
O340 O 0.18065 0.39807 0.64546 0.0
O341 O 0.10973 0.40466 0.74573 0.0
O342 O 0.13835 0.42244 0.70666 0.0
C343 C 0.09102 0.34086 0.6732 0.0
C344 C 0.18281 0.34334 0.73055 0.0
O345 O 0.18305 0.35827 0.70531 0.0
O346 O 0.15754 0.34079 0.74612 0.0
C347 C 0.20266 0.38115 0.63408 0.0
O348 O 0.2053 0.35225 0.64343 0.0
C349 C 0.12198 0.42712 0.73121 0.0
Zn350 Zn 0.33691 0.61828 0.19751 0.0
Zn351 Zn 0.37633 0.65837 0.18801 0.0
O352 O 0.40383 0.61899 0.20192 0.0
O353 O 0.36553 0.58382 0.20496 0.0
O354 O 0.4069 0.6953 0.17993 0.0
O355 O 0.31079 0.62184 0.15991 0.0
O356 O 0.34573 0.65771 0.14728 0.0
C357 C 0.39453 0.59098 0.20756 0.0
C358 C 0.33335 0.6602 0.24509 0.0
O359 O 0.35415 0.67329 0.22802 0.0
O360 O 0.32035 0.63482 0.23646 0.0
C361 C 0.42352 0.70789 0.2018 0.0
O362 O 0.42296 0.69529 0.22946 0.0
C363 C 0.32038 0.64178 0.14084 0.0
Zn364 Zn 0.53857 0.56969 0.62018 0.0
Zn365 Zn 0.58748 0.60573 0.61106 0.0
O366 O 0.54876 0.63751 0.60836 0.0
O367 O 0.50846 0.60438 0.6118 0.0
O368 O 0.62775 0.6289 0.5964 0.0
O369 O 0.55115 0.5598 0.66341 0.0
O370 O 0.59727 0.58287 0.6539 0.0
C371 C 0.51868 0.63201 0.60819 0.0
C372 C 0.5738 0.54756 0.57017 0.0
O373 O 0.5879 0.57338 0.57583 0.0
O374 O 0.55092 0.53883 0.58697 0.0
C375 C 0.62639 0.6347 0.56736 0.0
O376 O 0.59888 0.63131 0.55288 0.0
C377 C 0.5795 0.56616 0.67143 0.0
Zn378 Zn 0.96716 0.45381 0.09 0.0
Zn379 Zn 0.91088 0.42598 0.0961 0.0
O380 O 0.94487 0.39073 0.10096 0.0
O381 O 0.99066 0.41341 0.08943 0.0
O382 O 0.86718 0.40506 0.08954 0.0
O383 O 0.95853 0.4774 0.12986 0.0
O384 O 0.91053 0.45651 0.13467 0.0
C385 C 0.97492 0.38923 0.09648 0.0
C386 C 0.92714 0.46767 0.04043 0.0
O387 O 0.90868 0.44954 0.055 0.0
O388 O 0.95482 0.47378 0.0506 0.0
C389 C 0.86554 0.38693 0.06573 0.0
O390 O 0.89192 0.37958 0.05142 0.0
C391 C 0.93245 0.47549 0.14432 0.0
Zn392 Zn 0.60168 0.65807 0.74853 0.0
Zn393 Zn 0.64793 0.65214 0.70833 0.0
O394 O 0.65854 0.6206 0.74385 0.0
O395 O 0.62129 0.62895 0.77863 0.0
O396 O 0.68195 0.64625 0.67505 0.0
O397 O 0.56655 0.64762 0.71806 0.0
O398 O 0.60507 0.65632 0.6851 0.0
C399 C 0.64672 0.61573 0.77068 0.0
C400 C 0.63773 0.71441 0.73903 0.0
O401 O 0.6554 0.69671 0.72279 0.0
O402 O 0.61335 0.70371 0.75249 0.0
C403 C 0.68658 0.62109 0.65972 0.0
O404 O 0.66848 0.59655 0.66516 0.0
C405 C 0.5754 0.65564 0.69123 0.0
Zn406 Zn 0.40017 0.4575 0.43112 0.0
Zn407 Zn 0.41181 0.40347 0.42607 0.0
O408 O 0.37602 0.40574 0.46147 0.0
O409 O 0.3785 0.45598 0.47196 0.0
O410 O 0.42694 0.35841 0.42431 0.0
O411 O 0.3736 0.46009 0.39309 0.0
O412 O 0.40367 0.42085 0.38024 0.0
C413 C 0.36764 0.42918 0.47829 0.0
C414 C 0.46521 0.44914 0.43472 0.0
O415 O 0.45433 0.42202 0.44028 0.0
O416 O 0.44632 0.47042 0.42704 0.0
C417 C 0.44822 0.34996 0.40511 0.0
O418 O 0.45639 0.36878 0.38263 0.0
C419 C 0.38691 0.44417 0.3721 0.0
Zn420 Zn 0.11804 0.58333 0.94726 0.0
Zn421 Zn 0.09369 0.63458 0.93697 0.0
O422 O 0.1323 0.64533 0.96797 0.0
O423 O 0.14146 0.59821 0.98503 0.0
O424 O 0.06915 0.67447 0.92834 0.0
O425 O 0.13981 0.57926 0.90687 0.0
O426 O 0.10417 0.61392 0.89399 0.0
C427 C 0.14711 0.62727 0.98648 0.0
C428 C 0.0517 0.58006 0.95074 0.0
O429 O 0.0559 0.60939 0.95328 0.0
O430 O 0.07524 0.56247 0.94708 0.0
C431 C 0.05119 0.68452 0.95 0.0
O432 O 0.0535 0.67205 0.97765 0.0
C433 C 0.1236 0.59253 0.88617 0.0
Zn434 Zn 0.34914 0.31984 0.26942 0.0
Zn435 Zn 0.34462 0.34496 0.32574 0.0
O436 O 0.38439 0.31639 0.32867 0.0
O437 O 0.39052 0.30089 0.27999 0.0
O438 O 0.33701 0.36111 0.36919 0.0
O439 O 0.34658 0.36228 0.25062 0.0
O440 O 0.34529 0.3841 0.29731 0.0
C441 C 0.39956 0.30087 0.30811 0.0
C442 C 0.29433 0.29926 0.30169 0.0
O443 O 0.30363 0.31986 0.32121 0.0
O444 O 0.31016 0.29372 0.27739 0.0
C445 C 0.32617 0.34107 0.38813 0.0
O446 O 0.32628 0.31134 0.38016 0.0
C447 C 0.3453 0.38654 0.26771 0.0
H448 H 0.06729 0.07134 0.98671 0.0
H449 H 0.12113 0.98738 0.99794 0.0
H450 H 0.09738 0.96536 0.94977 0.0
H451 H 0.0036 0.04381 0.98093 0.0
H452 H 0.98373 0.06559 0.95107 0.0
H453 H 0.01696 0.08269 0.97113 0.0
H454 H 0.04622 0.09134 0.91939 0.0
H455 H 0.01232 0.07476 0.89871 0.0
H456 H 0.0514 0.05922 0.89244 0.0
H457 H 0.0533 0.94403 0.9203 0.0
H458 H 0.99757 0.92732 0.91196 0.0
H459 H 0.9675 0.02307 0.92152 0.0
C460 C 0.07543 0.04926 0.97737 0.0
C461 C 0.09553 0.03079 0.99535 0.0
C462 C 0.10588 0.0018 0.98389 0.0
C463 C 0.09245 0.98925 0.95647 0.0
C464 C 0.06891 0.00616 0.94119 0.0
C465 C 0.06129 0.03633 0.95063 0.0
C466 C 0.02981 0.04626 0.93686 0.0
C467 C 0.00725 0.06029 0.9615 0.0
C468 C 0.03528 0.06923 0.91026 0.0
C469 C 0.01794 0.01515 0.92424 0.0
C470 C 0.04169 0.99299 0.9245 0.0
C471 C 0.0349 0.96138 0.91896 0.0
C472 C 0.00315 0.952 0.91466 0.0
C473 C 0.97866 0.9741 0.91685 0.0
C474 C 0.9862 0.00601 0.92008 0.0
H475 H 0.35166 0.71692 0.26907 0.0
H476 H 0.29293 0.63532 0.2875 0.0
H477 H 0.26886 0.66261 0.33163 0.0
H478 H 0.35443 0.74752 0.35661 0.0
H479 H 0.35282 0.78703 0.34289 0.0
H480 H 0.37431 0.7579 0.32117 0.0
H481 H 0.3412 0.77056 0.27201 0.0
H482 H 0.31956 0.79923 0.29339 0.0
H483 H 0.29836 0.76783 0.27351 0.0
H484 H 0.23895 0.70158 0.35886 0.0
H485 H 0.20825 0.74892 0.36987 0.0
H486 H 0.2866 0.80609 0.33703 0.0
C487 C 0.33469 0.7045 0.28329 0.0
C488 C 0.3237 0.67442 0.27467 0.0
C489 C 0.30138 0.65866 0.2935 0.0
C490 C 0.28787 0.67381 0.31894 0.0
C491 C 0.2974 0.70443 0.32558 0.0
C492 C 0.32097 0.71943 0.30881 0.0
C493 C 0.32254 0.75393 0.31659 0.0
C494 C 0.35282 0.76206 0.33545 0.0
C495 C 0.32022 0.77401 0.28713 0.0
C496 C 0.29333 0.75656 0.33663 0.0
C497 C 0.27999 0.72759 0.34272 0.0
C498 C 0.24974 0.72435 0.35547 0.0
C499 C 0.23228 0.75128 0.3612 0.0
C500 C 0.24522 0.7809 0.35412 0.0
C501 C 0.27654 0.7836 0.3431 0.0
H502 H 0.47359 0.97678 0.5129 0.0
H503 H 0.48873 0.88057 0.48596 0.0
H504 H 0.48966 0.89549 0.43053 0.0
H505 H 0.42822 1.00018 0.4371 0.0
H506 H 0.44761 0.03799 0.43853 0.0
H507 H 0.43726 0.01868 0.47413 0.0
H508 H 0.49586 0.02333 0.49329 0.0
H509 H 0.50587 0.04315 0.45838 0.0
H510 H 0.52702 0.00844 0.46883 0.0
H511 H 0.50322 0.92142 0.38233 0.0
H512 H 0.53542 0.9552 0.34895 0.0
H513 H 0.50965 0.03573 0.4048 0.0
C514 C 0.47604 0.95893 0.495 0.0
C515 C 0.48119 0.92776 0.50303 0.0
C516 C 0.4848 0.90463 0.47974 0.0
C517 C 0.48485 0.91288 0.44833 0.0
C518 C 0.48072 0.94422 0.44086 0.0
C519 C 0.47616 0.96691 0.46364 0.0
C520 C 0.47868 0.99939 0.45055 0.0
C521 C 0.44599 0.01497 0.45004 0.0
C522 C 0.50334 0.0197 0.4688 0.0
C523 C 0.48946 0.9916 0.41786 0.0
C524 C 0.4887 0.95963 0.41217 0.0
C525 C 0.50312 0.94646 0.3861 0.0
C526 C 0.52139 0.96586 0.36716 0.0
C527 C 0.52534 0.99792 0.37477 0.0
C528 C 0.50667 0.01132 0.3984 0.0
H529 H 0.27521 0.21599 0.82143 0.0
H530 H 0.35682 0.23509 0.76361 0.0
H531 H 0.33019 0.28206 0.74318 0.0
H532 H 0.21804 0.23201 0.76987 0.0
H533 H 0.19101 0.25045 0.79654 0.0
H534 H 0.21878 0.22241 0.81057 0.0
H535 H 0.24136 0.26296 0.8507 0.0
H536 H 0.21329 0.29119 0.83702 0.0
H537 H 0.25524 0.30052 0.83763 0.0
H538 H 0.29043 0.31983 0.72245 0.0
H539 H 0.24257 0.34807 0.70571 0.0
H540 H 0.1887 0.30495 0.77977 0.0
C541 C 0.28768 0.23062 0.80504 0.0
C542 C 0.31761 0.22234 0.79369 0.0
C543 C 0.33371 0.24157 0.7724 0.0
C544 C 0.31887 0.26816 0.76086 0.0
C545 C 0.28862 0.27526 0.7718 0.0
C546 C 0.27356 0.25737 0.79397 0.0
C547 C 0.24021 0.26811 0.80011 0.0
C548 C 0.21559 0.24168 0.79387 0.0
C549 C 0.23738 0.2815 0.83334 0.0
C550 C 0.23792 0.29342 0.77634 0.0
C551 C 0.26615 0.29764 0.76054 0.0
C552 C 0.26848 0.3174 0.73521 0.0
C553 C 0.24114 0.3331 0.72575 0.0
C554 C 0.21203 0.32866 0.74157 0.0
C555 C 0.21072 0.30909 0.76749 0.0
H556 H 0.96414 0.97769 0.41377 0.0
H557 H 0.06236 0.00601 0.40077 0.0
H558 H 0.05366 0.05377 0.43145 0.0
H559 H 0.93078 0.06377 0.42411 0.0
H560 H 0.90401 0.04975 0.45347 0.0
H561 H 0.91327 0.02522 0.42037 0.0
H562 H 0.93089 0.98169 0.45763 0.0
H563 H 0.92205 0.00597 0.49055 0.0
H564 H 0.96138 0.99021 0.48644 0.0
H565 H 0.04206 0.08497 0.47591 0.0
H566 H 0.02675 0.09964 0.52923 0.0
H567 H 0.93477 0.05475 0.51494 0.0
C568 C 0.98316 0.99488 0.4163 0.0
C569 C 0.01383 0.98844 0.40539 0.0
C570 C 0.03872 0.01064 0.40942 0.0
C571 C 0.03386 0.03804 0.42639 0.0
C572 C 0.00395 0.04287 0.43906 0.0
C573 C 0.97867 0.02223 0.43376 0.0
C574 C 0.9513 0.02918 0.45532 0.0
C575 C 0.92318 0.0428 0.43723 0.0
C576 C 0.94088 1.00005 0.47356 0.0
C577 C 0.9669 0.05378 0.4762 0.0
C578 C 0.99673 0.06232 0.46554 0.0
C579 C 0.0183 0.07963 0.4839 0.0
C580 C 0.00967 0.08745 0.51424 0.0
C581 C 0.97969 0.07822 0.52559 0.0
C582 C 0.95753 0.06254 0.50607 0.0
H583 H 0.28688 0.78751 0.6597 0.0
H584 H 0.3485 0.80012 0.74036 0.0
H585 H 0.318 0.75865 0.76761 0.0
H586 H 0.21759 0.78148 0.69707 0.0
H587 H 0.19969 0.7523 0.67155 0.0
H588 H 0.22987 0.77814 0.65708 0.0
H589 H 0.26355 0.73074 0.63976 0.0
H590 H 0.23324 0.70456 0.65403 0.0
H591 H 0.27373 0.70141 0.66763 0.0
H592 H 0.27537 0.72255 0.78786 0.0
H593 H 0.22519 0.69458 0.79957 0.0
H594 H 0.1933 0.70644 0.70424 0.0
C595 C 0.29418 0.78124 0.683 0.0
C596 C 0.31929 0.79701 0.69847 0.0
C597 C 0.32892 0.78812 0.72854 0.0
C598 C 0.31196 0.76458 0.74393 0.0
C599 C 0.28643 0.75004 0.72824 0.0
C600 C 0.278 0.75781 0.69822 0.0
C601 C 0.24806 0.74131 0.68721 0.0
C602 C 0.22231 0.76471 0.67771 0.0
C603 C 0.25508 0.71812 0.66059 0.0
C604 C 0.23952 0.72461 0.7165 0.0
C605 C 0.26221 0.72918 0.73972 0.0
C606 C 0.2578 0.71822 0.76969 0.0
C607 C 0.22922 0.70257 0.77613 0.0
C608 C 0.20549 0.69866 0.75272 0.0
C609 C 0.21108 0.70918 0.7225 0.0
H610 H 0.41365 0.96624 0.95749 0.0
H611 H 0.47419 0.01239 0.89119 0.0
H612 H 0.51651 0.97501 0.9015 0.0
H613 H 0.45814 0.96625 0.01236 0.0
H614 H 0.45206 0.92831 0.02927 0.0
H615 H 0.42189 0.94408 0.00511 0.0
H616 H 0.42335 0.89496 0.96961 0.0
H617 H 0.45406 0.87898 0.99398 0.0
H618 H 0.46033 0.8827 0.95279 0.0
H619 H 0.55626 0.95177 0.9316 0.0
H620 H 0.58775 0.95252 0.9797 0.0
H621 H 0.50584 0.92057 0.031 0.0
C622 C 0.43545 0.96719 0.94431 0.0
C623 C 0.44121 0.99199 0.92403 0.0
C624 C 0.46978 0.99357 0.90723 0.0
C625 C 0.49366 0.97198 0.91253 0.0
C626 C 0.48876 0.94928 0.93505 0.0
C627 C 0.45995 0.94637 0.95043 0.0
C628 C 0.4634 0.9269 0.97933 0.0
C629 C 0.44806 0.9424 0.00816 0.0
C630 C 0.44947 0.89393 0.97356 0.0
C631 C 0.49932 0.92587 0.98158 0.0
C632 C 0.51329 0.9359 0.95423 0.0
C633 C 0.54567 0.94324 0.95275 0.0
C634 C 0.56337 0.94402 0.98029 0.0
C635 C 0.54859 0.93739 0.0088 0.0
C636 C 0.51725 0.92555 0.00912 0.0
H637 H 0.29084 0.2372 0.29803 0.0
H638 H 0.23547 0.31891 0.31896 0.0
H639 H 0.18616 0.28676 0.3168 0.0
H640 H 0.25305 0.21039 0.24253 0.0
H641 H 0.25343 0.16896 0.24951 0.0
H642 H 0.28343 0.19356 0.26674 0.0
H643 H 0.26858 0.17396 0.32145 0.0
H644 H 0.23831 0.14879 0.30414 0.0
H645 H 0.22806 0.17617 0.33455 0.0
H646 H 0.14522 0.25274 0.29369 0.0
H647 H 0.11801 0.22169 0.25245 0.0
H648 H 0.19907 0.16099 0.24621 0.0
C649 C 0.26827 0.24773 0.30355 0.0
C650 C 0.26632 0.28011 0.30816 0.0
C651 C 0.237 0.29389 0.31537 0.0
C652 C 0.20903 0.27571 0.3145 0.0
C653 C 0.21125 0.24387 0.30731 0.0
C654 C 0.24042 0.22976 0.30295 0.0
C655 C 0.23663 0.1973 0.2891 0.0
C656 C 0.25782 0.19237 0.26026 0.0
C657 C 0.24328 0.1726 0.31379 0.0
C658 C 0.20169 0.1977 0.2809 0.0
C659 C 0.18692 0.22367 0.29354 0.0
C660 C 0.15614 0.23179 0.28465 0.0
C661 C 0.14091 0.21418 0.26107 0.0
C662 C 0.15694 0.18937 0.24631 0.0
C663 C 0.18667 0.17995 0.25752 0.0
H664 H 0.43175 0.55165 0.00129 0.0
H665 H 0.42327 0.48961 0.07957 0.0
H666 H 0.45931 0.45254 0.05422 0.0
H667 H 0.44488 0.48702 0.93871 0.0
H668 H 0.47322 0.51174 0.91924 0.0
H669 H 0.43971 0.52873 0.93881 0.0
H670 H 0.47857 0.56438 0.97066 0.0
H671 H 0.51221 0.54688 0.95217 0.0
H672 H 0.50924 0.54692 0.99398 0.0
H673 H 0.50511 0.43017 0.02877 0.0
H674 H 0.55323 0.41806 0.99908 0.0
H675 H 0.53293 0.49396 0.93636 0.0
C676 C 0.43622 0.52943 0.01208 0.0
C677 C 0.42492 0.52309 0.04205 0.0
C678 C 0.43187 0.49453 0.05643 0.0
C679 C 0.45218 0.47336 0.04221 0.0
C680 C 0.46501 0.48122 0.01364 0.0
C681 C 0.45679 0.50814 0.99823 0.0
C682 C 0.47746 0.51309 0.97002 0.0
C683 C 0.45763 0.50994 0.93991 0.0
C684 C 0.49542 0.54468 0.97186 0.0
C685 C 0.49988 0.48608 0.97343 0.0
C686 C 0.49196 0.46781 0.99849 0.0
C687 C 0.51106 0.44362 0.00847 0.0
C688 C 0.53861 0.4373 0.99181 0.0
C689 C 0.54663 0.45512 0.96548 0.0
C690 C 0.52707 0.47982 0.95625 0.0
H691 H 0.85348 0.29015 0.28729 0.0
H692 H 0.8675 0.22054 0.21499 0.0
H693 H 0.83742 0.1818 0.24538 0.0
H694 H 0.84464 0.23321 0.35699 0.0
H695 H 0.81327 0.2569 0.37255 0.0
H696 H 0.84606 0.27497 0.35246 0.0
H697 H 0.80631 0.30134 0.31501 0.0
H698 H 0.77373 0.28353 0.33489 0.0
H699 H 0.77785 0.27737 0.29354 0.0
H700 H 0.79714 0.15522 0.27584 0.0
H701 H 0.74406 0.14599 0.29839 0.0
H702 H 0.75085 0.23459 0.34771 0.0
C703 C 0.8513 0.26627 0.2788 0.0
C704 C 0.86286 0.2578 0.2494 0.0
C705 C 0.85879 0.22702 0.23781 0.0
C706 C 0.84218 0.20486 0.2551 0.0
C707 C 0.82957 0.21415 0.28363 0.0
C708 C 0.83376 0.24429 0.29534 0.0
C709 C 0.81145 0.25087 0.32195 0.0
C710 C 0.82996 0.25417 0.35282 0.0
C711 C 0.79113 0.27994 0.31593 0.0
C712 C 0.79175 0.2211 0.32103 0.0
C713 C 0.80395 0.1994 0.30028 0.0
C714 C 0.78781 0.17159 0.29274 0.0
C715 C 0.75773 0.16656 0.3055 0.0
C716 C 0.74407 0.18971 0.32458 0.0
C717 C 0.76155 0.21659 0.33344 0.0
H718 H 0.05476 0.44541 0.44475 0.0
H719 H 0.01028 0.36545 0.48805 0.0
H720 H 0.95983 0.37724 0.46199 0.0
H721 H 0.00569 0.49341 0.46407 0.0
H722 H 0.00267 0.51782 0.43041 0.0
H723 H 0.03785 0.49583 0.43661 0.0
H724 H 0.03155 0.46865 0.38274 0.0
H725 H 0.99663 0.49157 0.37563 0.0
H726 H 0.99443 0.44962 0.37208 0.0
H727 H 0.91296 0.40731 0.4508 0.0
H728 H 0.87459 0.4503 0.45059 0.0
H729 H 0.94809 0.51335 0.41779 0.0
C730 C 0.03479 0.42944 0.44726 0.0
C731 C 0.036 0.40508 0.46881 0.0
C732 C 0.00967 0.38452 0.4718 0.0
C733 C 0.98091 0.39095 0.45687 0.0
C734 C 0.97918 0.41776 0.43896 0.0
C735 C 0.00579 0.43627 0.43322 0.0
C736 C 0.99667 0.46756 0.42019 0.0
C737 C 0.01157 0.49521 0.43899 0.0
C738 C 0.00532 0.46944 0.3856 0.0
C739 C 0.96113 0.46555 0.42415 0.0
C740 C 0.95129 0.43613 0.43325 0.0
C741 C 0.92017 0.43008 0.44263 0.0
C742 C 0.89871 0.45471 0.44296 0.0
C743 C 0.9088 0.48507 0.43476 0.0
C744 C 0.94006 0.49031 0.42451 0.0
H745 H 0.73506 0.71563 0.32783 0.0
H746 H 0.82977 0.73574 0.29386 0.0
H747 H 0.80781 0.77515 0.25858 0.0
H748 H 0.69704 0.71432 0.26171 0.0
H749 H 0.66103 0.73365 0.27304 0.0
H750 H 0.6842 0.71381 0.30163 0.0
H751 H 0.6893 0.76429 0.33533 0.0
H752 H 0.66517 0.78429 0.30728 0.0
H753 H 0.70383 0.79981 0.31815 0.0
H754 H 0.775 0.7994 0.21824 0.0
H755 H 0.73377 0.81548 0.18089 0.0
H756 H 0.66022 0.7826 0.24309 0.0
C757 C 0.75117 0.72939 0.31386 0.0
C758 C 0.78383 0.72292 0.31313 0.0
C759 C 0.80461 0.74082 0.29466 0.0
C760 C 0.79236 0.76317 0.27465 0.0
C761 C 0.7596 0.76773 0.27442 0.0
C762 C 0.73938 0.75216 0.29434 0.0
C763 C 0.70488 0.75865 0.28716 0.0
C764 C 0.68571 0.7283 0.28047 0.0
C765 C 0.68992 0.77792 0.31355 0.0
C766 C 0.70878 0.77778 0.25827 0.0
C767 C 0.74052 0.78314 0.25156 0.0
C768 C 0.75009 0.79643 0.22378 0.0
C769 C 0.72657 0.80494 0.20253 0.0
C770 C 0.69401 0.80018 0.20939 0.0
C771 C 0.68503 0.78681 0.23769 0.0
H772 H 0.8036 0.23961 0.68197 0.0
H773 H 0.81337 0.16564 0.74897 0.0
H774 H 0.80387 0.20286 0.79162 0.0
H775 H 0.83473 0.30691 0.73814 0.0
H776 H 0.8061 0.33303 0.72169 0.0
H777 H 0.82429 0.30366 0.69746 0.0
H778 H 0.76829 0.28314 0.6811 0.0
H779 H 0.74992 0.31172 0.70568 0.0
H780 H 0.74081 0.27086 0.71066 0.0
H781 H 0.77686 0.24056 0.82315 0.0
H782 H 0.74093 0.28068 0.84388 0.0
H783 H 0.75053 0.33296 0.75892 0.0
C784 C 0.80524 0.23183 0.70577 0.0
C785 C 0.80881 0.20002 0.71242 0.0
C786 C 0.81024 0.19005 0.74359 0.0
C787 C 0.80523 0.21105 0.76798 0.0
C788 C 0.79931 0.24194 0.76073 0.0
C789 C 0.80012 0.25266 0.73049 0.0
C790 C 0.7878 0.28562 0.72869 0.0
C791 C 0.81485 0.30867 0.72105 0.0
C792 C 0.76006 0.28792 0.70517 0.0
C793 C 0.77674 0.29018 0.7618 0.0
C794 C 0.78435 0.26497 0.78003 0.0
C795 C 0.77193 0.2611 0.80969 0.0
C796 C 0.7512 0.28359 0.82105 0.0
C797 C 0.74353 0.30956 0.80283 0.0
C798 C 0.75691 0.3134 0.77327 0.0
H799 H 0.7275 0.82799 0.83824 0.0
H800 H 0.77201 0.85316 0.75181 0.0
H801 H 0.72259 0.84087 0.72333 0.0
H802 H 0.70142 0.7649 0.81967 0.0
H803 H 0.66249 0.76312 0.83697 0.0
H804 H 0.69172 0.78968 0.85251 0.0
H805 H 0.65386 0.8359 0.84457 0.0
H806 H 0.62394 0.80913 0.82917 0.0
H807 H 0.63632 0.84238 0.80687 0.0
H808 H 0.68479 0.8047 0.70332 0.0
H809 H 0.66043 0.75283 0.69472 0.0
H810 H 0.63514 0.74892 0.79181 0.0
C811 C 0.72574 0.8326 0.8136 0.0
C812 C 0.75302 0.84108 0.79694 0.0
C813 C 0.75105 0.84637 0.76472 0.0
C814 C 0.72291 0.83979 0.74846 0.0
C815 C 0.69712 0.82769 0.76478 0.0
C816 C 0.69779 0.8251 0.79698 0.0
C817 C 0.67079 0.80436 0.80801 0.0
C818 C 0.68236 0.77902 0.83052 0.0
C819 C 0.64468 0.82413 0.82303 0.0
C820 C 0.65942 0.79077 0.7771 0.0
C821 C 0.6734 0.80607 0.75238 0.0
C822 C 0.67259 0.79341 0.72224 0.0
C823 C 0.65912 0.76375 0.71756 0.0
C824 C 0.64612 0.74743 0.74275 0.0
C825 C 0.64446 0.76174 0.7723 0.0
H826 H 0.50441 0.42168 0.47548 0.0
H827 H 0.50071 0.49463 0.40735 0.0
H828 H 0.55135 0.51643 0.42721 0.0
H829 H 0.51298 0.46149 0.53235 0.0
H830 H 0.54131 0.44074 0.55579 0.0
H831 H 0.51875 0.42008 0.52676 0.0
H832 H 0.57043 0.40083 0.50129 0.0
H833 H 0.59343 0.42164 0.53078 0.0
H834 H 0.60083 0.42846 0.4902 0.0
H835 H 0.58565 0.54195 0.46431 0.0
H836 H 0.59195 0.57003 0.5142 0.0
H837 H 0.57172 0.48498 0.56339 0.0
C838 C 0.51548 0.44119 0.46385 0.0
C839 C 0.49893 0.45673 0.44031 0.0
C840 C 0.51316 0.48258 0.42566 0.0
C841 C 0.54222 0.49482 0.43659 0.0
C842 C 0.55649 0.48122 0.46244 0.0
C843 C 0.54378 0.4544 0.47564 0.0
C844 C 0.55718 0.44967 0.50799 0.0
C845 C 0.53096 0.44271 0.53207 0.0
C846 C 0.58195 0.42362 0.50752 0.0
C847 C 0.57326 0.48113 0.51335 0.0
C848 C 0.57567 0.49753 0.48585 0.0
C849 C 0.58463 0.52908 0.48575 0.0
C850 C 0.58803 0.54499 0.51423 0.0
C851 C 0.58161 0.52941 0.54219 0.0
C852 C 0.57659 0.49691 0.5419 0.0
H853 H 0.99867 0.59947 0.9807 0.0
H854 H 0.03289 0.53055 0.91511 0.0
H855 H 0.98131 0.50329 0.91575 0.0
H856 H 0.97224 0.55659 0.02999 0.0
H857 H 0.93556 0.57504 0.04109 0.0
H858 H 0.96601 0.59756 0.02321 0.0
H859 H 0.92604 0.6138 0.98068 0.0
H860 H 0.89533 0.59046 0.99851 0.0
H861 H 0.9047 0.58446 0.95806 0.0
H862 H 0.93973 0.47341 0.93732 0.0
H863 H 0.9237 0.44275 0.98233 0.0
H864 H 0.91152 0.52718 0.03623 0.0
C865 C 0.99442 0.57933 0.96565 0.0
C866 C 0.01947 0.56668 0.94835 0.0
C867 C 0.01393 0.5402 0.92903 0.0
C868 C 0.98439 0.52497 0.92874 0.0
C869 C 0.96055 0.53629 0.94808 0.0
C870 C 0.96512 0.5633 0.96599 0.0
C871 C 0.93992 0.56593 0.99075 0.0
C872 C 0.95436 0.57414 0.02312 0.0
C873 C 0.91502 0.59008 0.98142 0.0
C874 C 0.9257 0.53319 0.98865 0.0
C875 C 0.93531 0.51774 0.96173 0.0
C876 C 0.93135 0.4854 0.95795 0.0
C877 C 0.92202 0.46796 0.98359 0.0
C878 C 0.91673 0.48312 0.01226 0.0
C879 C 0.91501 0.51582 0.01388 0.0
H880 H 0.17822 0.99621 0.15843 0.0
H881 H 0.081 0.96334 0.14231 0.0
H882 H 0.08731 0.9241 0.18194 0.0
H883 H 0.20093 0.9084 0.17277 0.0
H884 H 0.233 0.91908 0.19901 0.0
H885 H 0.22374 0.94366 0.16653 0.0
H886 H 0.21446 0.99266 0.20372 0.0
H887 H 0.2298 0.96678 0.23262 0.0
H888 H 0.19295 0.98552 0.23903 0.0
H889 H 0.09847 0.89547 0.2293 0.0
H890 H 0.11811 0.87408 0.2787 0.0
H891 H 0.20948 0.92003 0.26412 0.0
C892 C 0.15844 0.98061 0.16318 0.0
C893 C 0.12859 0.98423 0.14786 0.0
C894 C 0.10382 0.96231 0.15409 0.0
C895 C 0.10709 0.9395 0.1766 0.0
C896 C 0.13572 0.93764 0.19243 0.0
C897 C 0.16155 0.95661 0.18543 0.0
C898 C 0.19015 0.94702 0.20508 0.0
C899 C 0.21331 0.92844 0.18464 0.0
C900 C 0.20772 0.97472 0.22094 0.0
C901 C 0.17397 0.92534 0.22826 0.0
C902 C 0.14313 0.91867 0.21904 0.0
C903 C 0.12284 0.8999 0.23657 0.0
C904 C 0.13409 0.88805 0.26479 0.0
C905 C 0.16509 0.89563 0.2757 0.0
C906 C 0.18548 0.91398 0.25667 0.0
H907 H 0.35852 0.92013 0.52496 0.0
H908 H 0.3531 0.82345 0.55229 0.0
H909 H 0.30131 0.81729 0.52567 0.0
H910 H 0.27758 0.94222 0.52205 0.0
H911 H 0.28068 0.96128 0.48493 0.0
H912 H 0.31488 0.95867 0.51001 0.0
H913 H 0.3457 0.9325 0.46554 0.0
H914 H 0.3113 0.93462 0.44043 0.0
H915 H 0.3298 0.89757 0.44699 0.0
H916 H 0.25229 0.82017 0.493 0.0
H917 H 0.21121 0.83023 0.4535 0.0
H918 H 0.24965 0.92395 0.44224 0.0
C919 C 0.34574 0.89806 0.52618 0.0
C920 C 0.35854 0.87296 0.54297 0.0
C921 C 0.34262 0.84364 0.54184 0.0
C922 C 0.31336 0.83979 0.52621 0.0
C923 C 0.30111 0.86504 0.51022 0.0
C924 C 0.31725 0.89332 0.50922 0.0
C925 C 0.30152 0.91489 0.48618 0.0
C926 C 0.29304 0.9461 0.50173 0.0
C927 C 0.32338 0.9202 0.45814 0.0
C928 C 0.27231 0.89539 0.47662 0.0
C929 C 0.27318 0.86638 0.49019 0.0
C930 C 0.25102 0.84294 0.48255 0.0
C931 C 0.22745 0.84903 0.46025 0.0
C932 C 0.22623 0.87825 0.4453 0.0
C933 C 0.24891 0.90181 0.45405 0.0
H934 H 0.36981 0.0867 0.72499 0.0
H935 H 0.44834 0.09194 0.79105 0.0
H936 H 0.48046 0.05932 0.75587 0.0
H937 H 0.37097 0.01609 0.69496 0.0
H938 H 0.36836 0.02376 0.65424 0.0
H939 H 0.35337 0.05157 0.68202 0.0
H940 H 0.38899 0.09442 0.65912 0.0
H941 H 0.40396 0.06663 0.63109 0.0
H942 H 0.43119 0.08855 0.65587 0.0
H943 H 0.49977 0.01874 0.71889 0.0
H944 H 0.5076 0.9769 0.67993 0.0
H945 H 0.41806 0.99978 0.63545 0.0
C946 C 0.39396 0.08134 0.73178 0.0
C947 C 0.40628 0.09099 0.76126 0.0
C948 C 0.43828 0.08446 0.76888 0.0
C949 C 0.45677 0.06608 0.74893 0.0
C950 C 0.44344 0.05576 0.72072 0.0
C951 C 0.41327 0.06423 0.71144 0.0
C952 C 0.40537 0.05075 0.67927 0.0
C953 C 0.37258 0.03457 0.67759 0.0
C954 C 0.40752 0.07662 0.65491 0.0
C955 C 0.43266 0.02821 0.67528 0.0
C956 C 0.45536 0.03316 0.69842 0.0
C957 C 0.48255 0.01511 0.70029 0.0
C958 C 0.48667 0.99125 0.67813 0.0
C959 C 0.46336 0.98497 0.65479 0.0
C960 C 0.43614 0.00397 0.65317 0.0
H961 H 0.28412 0.08184 0.89989 0.0
H962 H 0.32317 0.17393 0.92161 0.0
H963 H 0.28609 0.17877 0.96573 0.0
H964 H 0.20344 0.09963 0.91759 0.0
H965 H 0.19447 0.0621 0.93406 0.0
H966 H 0.2245 0.06551 0.90463 0.0
H967 H 0.26567 0.04042 0.94135 0.0
H968 H 0.23578 0.03677 0.97093 0.0
H969 H 0.27264 0.05718 0.97951 0.0
H970 H 0.2452 0.17301 0.00866 0.0
H971 H 0.20247 0.15765 0.04526 0.0
H972 H 0.18929 0.07016 0.99482 0.0
C973 C 0.28536 0.10276 0.91434 0.0
C974 C 0.30719 0.12721 0.90768 0.0
C975 C 0.30734 0.15453 0.92668 0.0
C976 C 0.28615 0.1576 0.95167 0.0
C977 C 0.26533 0.13288 0.95791 0.0
C978 C 0.26475 0.10599 0.93972 0.0
C979 C 0.23932 0.08328 0.95066 0.0
C980 C 0.21393 0.07729 0.92521 0.0
C981 C 0.25424 0.0526 0.96124 0.0
C982 C 0.22582 0.10147 0.97795 0.0
C983 C 0.24127 0.12997 0.98191 0.0
C984 C 0.23325 0.15059 0.006 0.0
C985 C 0.20922 0.14164 0.02683 0.0
C986 C 0.19356 0.11238 0.02343 0.0
C987 C 0.20148 0.09241 0.99826 0.0
H988 H 0.06101 0.05525 0.18252 0.0
H989 H 0.16303 0.06912 0.19252 0.0
H990 H 0.16464 0.0274 0.23065 0.0
H991 H 0.05259 0.04133 0.2638 0.0
H992 H 0.01942 0.01452 0.25931 0.0
H993 H 0.02571 0.04467 0.23117 0.0
H994 H 0.02831 0.00343 0.18552 0.0
H995 H 0.01798 0.97534 0.21466 0.0
H996 H 0.05213 0.96937 0.19104 0.0
H997 H 0.15416 0.98774 0.27301 0.0
H998 H 0.13398 0.94822 0.30908 0.0
H999 H 0.03997 0.95604 0.26772 0.0
C1000 C 0.08397 0.04818 0.19134 0.0
C1001 C 0.11203 0.06504 0.18381 0.0
C1002 C 0.14136 0.05605 0.19707 0.0
C1003 C 0.14256 0.03217 0.2189 0.0
C1004 C 0.11455 0.01629 0.22622 0.0
C1005 C 0.08578 0.02362 0.21249 0.0
C1006 C 0.05865 0.00555 0.22721 0.0
C1007 C 0.03789 0.02784 0.24651 0.0
C1008 C 0.03817 0.98739 0.20312 0.0
C1009 C 0.07717 0.98422 0.24839 0.0
C1010 C 0.10908 0.99218 0.24903 0.0
C1011 C 0.12983 0.97965 0.27091 0.0
C1012 C 0.11808 0.95728 0.29156 0.0
C1013 C 0.08587 0.94736 0.29007 0.0
C1014 C 0.06522 0.9614 0.26824 0.0
H1015 H 0.24459 0.94375 0.57382 0.0
H1016 H 0.25252 0.84281 0.573 0.0
H1017 H 0.20717 0.83857 0.53644 0.0
H1018 H 0.15575 0.9426 0.56598 0.0
H1019 H 0.15534 0.97681 0.54212 0.0
H1020 H 0.18612 0.97242 0.57114 0.0
H1021 H 0.23057 0.97798 0.52859 0.0
H1022 H 0.1985 0.98517 0.50182 0.0
H1023 H 0.22603 0.9547 0.49329 0.0
H1024 H 0.16616 0.84526 0.49417 0.0
H1025 H 0.1311 0.86262 0.45159 0.0
H1026 H 0.14813 0.95905 0.47999 0.0
C1027 C 0.23671 0.92074 0.56604 0.0
C1028 C 0.2526 0.89363 0.57605 0.0
C1029 C 0.24115 0.86398 0.56554 0.0
C1030 C 0.21526 0.86131 0.54478 0.0
C1031 C 0.20113 0.88846 0.53426 0.0
C1032 C 0.21117 0.91765 0.54477 0.0
C1033 C 0.19189 0.9431 0.52947 0.0
C1034 C 0.17104 0.95971 0.55361 0.0
C1035 C 0.21312 0.96661 0.51235 0.0
C1036 C 0.1717 0.92379 0.50672 0.0
C1037 C 0.17676 0.89227 0.51046 0.0
C1038 C 0.16195 0.8699 0.49115 0.0
C1039 C 0.14231 0.87999 0.4668 0.0
C1040 C 0.13715 0.91221 0.4622 0.0
C1041 C 0.15167 0.93427 0.48286 0.0
H1042 H 0.31939 0.02752 0.81074 0.0
H1043 H 0.42036 0.04489 0.82657 0.0
H1044 H 0.43281 0.01195 0.78165 0.0
H1045 H 0.3283 0.94713 0.78716 0.0
H1046 H 0.29759 0.94722 0.75764 0.0
H1047 H 0.29537 0.97341 0.79073 0.0
H1048 H 0.29098 0.01973 0.75388 0.0
H1049 H 0.29438 0.99457 0.7201 0.0
H1050 H 0.32169 0.02702 0.72593 0.0
H1051 H 0.43596 0.97802 0.73642 0.0
H1052 H 0.42965 0.9413 0.69259 0.0
H1053 H 0.32698 0.94328 0.70274 0.0
C1054 C 0.34402 0.02523 0.80401 0.0
C1055 C 0.36879 0.04007 0.82171 0.0
C1056 C 0.40078 0.03511 0.81294 0.0
C1057 C 0.40823 0.01612 0.78746 0.0
C1058 C 0.38355 0.00235 0.77035 0.0
C1059 C 0.35205 0.00646 0.77801 0.0
C1060 C 0.33058 0.98716 0.75604 0.0
C1061 C 0.31185 0.96226 0.77397 0.0
C1062 C 0.30809 0.00837 0.73788 0.0
C1063 C 0.35512 0.97216 0.73478 0.0
C1064 C 0.38545 0.98131 0.74394 0.0
C1065 C 0.41237 0.97086 0.72872 0.0
C1066 C 0.40847 0.9502 0.70354 0.0
C1067 C 0.37785 0.93987 0.69348 0.0
C1068 C 0.35068 0.95135 0.70922 0.0
H1069 H 0.32346 0.06873 0.0108 0.0
H1070 H 0.36079 0.15527 0.97385 0.0
H1071 H 0.33384 0.18474 0.01575 0.0
H1072 H 0.25375 0.0845 0.03181 0.0
H1073 H 0.25016 0.06944 0.07042 0.0
H1074 H 0.27843 0.05314 0.04375 0.0
H1075 H 0.32568 0.06419 0.07952 0.0
H1076 H 0.2985 0.07821 0.10865 0.0
H1077 H 0.33154 0.10241 0.09687 0.0
H1078 H 0.29445 0.20479 0.0548 0.0
H1079 H 0.25034 0.21402 0.09102 0.0
H1080 H 0.24061 0.11426 0.10505 0.0
C1081 C 0.32647 0.09386 0.01193 0.0
C1082 C 0.34328 0.10987 0.98841 0.0
C1083 C 0.34766 0.14258 0.99129 0.0
C1084 C 0.33254 0.15949 0.01513 0.0
C1085 C 0.31465 0.14315 0.03695 0.0
C1086 C 0.31286 0.11092 0.03648 0.0
C1087 C 0.29226 0.09912 0.06289 0.0
C1088 C 0.2671 0.07514 0.05158 0.0
C1089 C 0.31324 0.08517 0.0885 0.0
C1090 C 0.27796 0.12958 0.07427 0.0
C1091 C 0.29273 0.15477 0.06032 0.0
C1092 C 0.28327 0.1853 0.06638 0.0
C1093 C 0.25798 0.19029 0.08692 0.0
C1094 C 0.2418 0.1649 0.10088 0.0
C1095 C 0.2524 0.13415 0.09474 0.0
H1096 H 0.95864 0.2345 0.17958 0.0
H1097 H 0.96181 0.28518 0.09323 0.0
H1098 H 0.99238 0.24157 0.06924 0.0
H1099 H 0.03317 0.20079 0.18128 0.0
H1100 H 0.0205 0.1626 0.19343 0.0
H1101 H 0.99762 0.19636 0.2038 0.0
H1102 H 0.94721 0.17219 0.17844 0.0
H1103 H 0.96918 0.13764 0.1686 0.0
H1104 H 0.94827 0.15831 0.13867 0.0
H1105 H 0.03541 0.19957 0.06019 0.0
H1106 H 0.06776 0.15149 0.05915 0.0
H1107 H 0.02712 0.12409 0.14714 0.0
C1108 C 0.96646 0.23681 0.15576 0.0
C1109 C 0.95902 0.26369 0.13854 0.0
C1110 C 0.9681 0.26521 0.10702 0.0
C1111 C 0.98601 0.24102 0.09347 0.0
C1112 C 0.99445 0.21564 0.11164 0.0
C1113 C 0.98356 0.2127 0.14165 0.0
C1114 C 0.99239 0.18138 0.15501 0.0
C1115 C 0.0121 0.18554 0.18514 0.0
C1116 C 0.96248 0.16119 0.16049 0.0
C1117 C 0.01202 0.16806 0.12866 0.0
C1118 C 0.01344 0.1884 0.10401 0.0
C1119 C 0.03353 0.18295 0.07882 0.0
C1120 C 0.05213 0.15583 0.0786 0.0
C1121 C 0.05002 0.13413 0.10306 0.0
C1122 C 0.02909 0.14014 0.12801 0.0
H1123 H 0.54359 0.34017 0.92448 0.0
H1124 H 0.57875 0.33733 0.8301 0.0
H1125 H 0.54003 0.29506 0.81678 0.0
H1126 H 0.52829 0.27066 0.94054 0.0
H1127 H 0.48764 0.26701 0.95404 0.0
H1128 H 0.50998 0.30285 0.95954 0.0
H1129 H 0.47703 0.33956 0.92963 0.0
H1130 H 0.44698 0.30909 0.92904 0.0
H1131 H 0.45863 0.32745 0.89336 0.0
H1132 H 0.50165 0.25041 0.81527 0.0
H1133 H 0.4587 0.21169 0.82188 0.0
H1134 H 0.44335 0.24644 0.91588 0.0
C1135 C 0.5436 0.32994 0.90128 0.0
C1136 C 0.56563 0.34013 0.87884 0.0
C1137 C 0.5632 0.32843 0.84797 0.0
C1138 C 0.54107 0.30478 0.84015 0.0
C1139 C 0.52062 0.29419 0.86316 0.0
C1140 C 0.52047 0.30751 0.89258 0.0
C1141 C 0.49332 0.29437 0.91167 0.0
C1142 C 0.50541 0.28285 0.94326 0.0
C1143 C 0.46747 0.31908 0.91618 0.0
C1144 C 0.48126 0.26833 0.8899 0.0
C1145 C 0.49678 0.26956 0.86169 0.0
C1146 C 0.48921 0.24921 0.83716 0.0
C1147 C 0.46492 0.22707 0.84128 0.0
C1148 C 0.44812 0.22545 0.86963 0.0
C1149 C 0.45626 0.24663 0.8942 0.0
H1150 H 0.95177 0.65511 0.3526 0.0
H1151 H 0.95524 0.6358 0.4519 0.0
H1152 H 0.99757 0.67268 0.46645 0.0
H1153 H 0.02504 0.69203 0.30179 0.0
H1154 H 0.02246 0.73216 0.29394 0.0
H1155 H 0.9879 0.70677 0.29386 0.0
H1156 H 0.95665 0.73837 0.32233 0.0
H1157 H 0.98762 0.76765 0.31899 0.0
H1158 H 0.96724 0.76218 0.35397 0.0
H1159 H 0.06563 0.73214 0.46394 0.0
H1160 H 0.10663 0.76824 0.44689 0.0
H1161 H 0.07891 0.77261 0.34905 0.0
C1162 C 0.96261 0.65988 0.37514 0.0
C1163 C 0.95191 0.64397 0.40234 0.0
C1164 C 0.9648 0.64973 0.43327 0.0
C1165 C 0.98937 0.67126 0.44255 0.0
C1166 C 0.00224 0.69066 0.42066 0.0
C1167 C 0.98495 0.68407 0.37788 0.0
C1168 C 0.00358 0.72384 0.34135 0.0
C1169 C 0.01045 0.71281 0.30641 0.0
C1170 C 0.97762 0.74935 0.33431 0.0
C1171 C 0.04869 0.74273 0.37586 0.0
C1172 C 0.04351 0.72817 0.41925 0.0
C1173 C 0.06595 0.73941 0.43996 0.0
C1174 C 0.08981 0.76026 0.42915 0.0
C1175 C 0.09433 0.77173 0.39796 0.0
C1176 C 0.07444 0.76319 0.37184 0.0
H1177 H 0.01885 0.35622 0.06208 0.0
H1178 H 0.97299 0.36145 0.15198 0.0
H1179 H 0.00851 0.32063 0.17152 0.0
H1180 H 0.02513 0.27802 0.05418 0.0
H1181 H 0.06515 0.27353 0.04045 0.0
H1182 H 0.04348 0.30855 0.03261 0.0
H1183 H 0.08435 0.3446 0.05778 0.0
H1184 H 0.10941 0.31134 0.06373 0.0
H1185 H 0.09972 0.33666 0.09604 0.0
H1186 H 0.04717 0.28057 0.18186 0.0
H1187 H 0.08047 0.23411 0.18058 0.0
H1188 H 0.09594 0.24577 0.08173 0.0
C1189 C 0.01604 0.34821 0.08568 0.0
C1190 C 0.99283 0.36143 0.1055 0.0
C1191 C 0.9901 0.35105 0.13636 0.0
C1192 C 0.01041 0.32824 0.14773 0.0
C1193 C 0.03272 0.31538 0.12771 0.0
C1194 C 0.03553 0.32448 0.0972 0.0
C1195 C 0.06076 0.30527 0.0806 0.0
C1196 C 0.04789 0.29036 0.05023 0.0
C1197 C 0.0903 0.32568 0.07416 0.0
C1198 C 0.06837 0.2814 0.10551 0.0
C1199 C 0.05369 0.28966 0.13307 0.0
C1200 C 0.05847 0.27353 0.16039 0.0
C1201 C 0.07749 0.24722 0.1594 0.0
C1202 C 0.09019 0.23605 0.13102 0.0
C1203 C 0.08645 0.25383 0.10371 0.0
H1204 H 0.59421 0.70251 0.65291 0.0
H1205 H 0.51026 0.66066 0.69414 0.0
H1206 H 0.47937 0.70725 0.68014 0.0
H1207 H 0.5804 0.77665 0.6844 0.0
H1208 H 0.59638 0.79773 0.65194 0.0
H1209 H 0.61071 0.7594 0.66057 0.0
H1210 H 0.5977 0.74112 0.60532 0.0
H1211 H 0.58159 0.77833 0.59498 0.0
H1212 H 0.55781 0.74316 0.5904 0.0
H1213 H 0.45883 0.76061 0.66511 0.0
H1214 H 0.45006 0.81469 0.64872 0.0
H1215 H 0.54822 0.82183 0.6192 0.0
C1216 C 0.56898 0.70231 0.65782 0.0
C1217 C 0.55457 0.67742 0.67415 0.0
C1218 C 0.52174 0.67908 0.68117 0.0
C1219 C 0.5041 0.70564 0.67363 0.0
C1220 C 0.51963 0.73043 0.65919 0.0
C1221 C 0.55133 0.72887 0.65125 0.0
C1222 C 0.56342 0.75965 0.63867 0.0
C1223 C 0.58924 0.77421 0.66019 0.0
C1224 C 0.57581 0.75537 0.60535 0.0
C1225 C 0.53326 0.77857 0.63973 0.0
C1226 C 0.50833 0.76143 0.65195 0.0
C1227 C 0.47814 0.77406 0.65522 0.0
C1228 C 0.47316 0.80473 0.64523 0.0
C1229 C 0.49796 0.82234 0.63143 0.0
C1230 C 0.52857 0.80907 0.62935 0.0
H1231 H 0.93279 0.71181 0.36946 0.0
H1232 H 0.88662 0.73866 0.45436 0.0
H1233 H 0.93436 0.76945 0.46964 0.0
H1234 H 0.05329 0.67621 0.41279 0.0
H1235 H 0.07266 0.689 0.39669 0.0
H1236 H 0.03701 0.65731 0.3965 0.0
H1237 H 0.02499 0.67135 0.34478 0.0
H1238 H 0.05558 0.70014 0.34228 0.0
H1239 H 0.05558 0.70014 0.34228 0.0
H1240 H 0.9761 0.80741 0.4663 0.0
H1241 H 0.0034 0.85134 0.44102 0.0
H1242 H 0.01943 0.79323 0.3605 0.0
C1243 C 0.93457 0.72093 0.393 0.0
C1244 C 0.90717 0.72102 0.41155 0.0
C1245 C 0.90769 0.73748 0.4401 0.0
C1246 C 0.93507 0.75408 0.44946 0.0
C1247 C 0.96266 0.75139 0.43165 0.0
C1248 C 0.96391 0.73234 0.40519 0.0
C1249 C 1.00051 0.73144 0.39078 0.0
C1250 C 0.04353 0.68527 0.38901 0.0
C1251 C 0.03733 0.69162 0.36237 0.0
C1252 C 0.00346 0.76873 0.40195 0.0
C1253 C 0.98804 0.77415 0.42992 0.0
C1254 C 0.98858 0.80344 0.44472 0.0
C1255 C 0.00324 0.8285 0.42984 0.0
C1256 C 0.01398 0.82484 0.39915 0.0
C1257 C 0.01268 0.7953 0.38465 0.0
H1258 H 0.49873 0.1456 0.91779 0.0
H1259 H 0.47708 0.13917 0.81912 0.0
H1260 H 0.51923 0.17821 0.80873 0.0
H1261 H 0.51226 0.22032 0.92672 0.0
H1262 H 0.54816 0.2216 0.95063 0.0
H1263 H 0.52149 0.18852 0.95163 0.0
H1264 H 0.56375 0.14995 0.93631 0.0
H1265 H 0.59277 0.18137 0.93759 0.0
H1266 H 0.58853 0.15714 0.90312 0.0
H1267 H 0.56092 0.22088 0.80923 0.0
H1268 H 0.59938 0.26366 0.8202 0.0
H1269 H 0.59472 0.24387 0.91882 0.0
C1270 C 0.50305 0.15234 0.89401 0.0
C1271 C 0.48422 0.13958 0.86931 0.0
C1272 C 0.49107 0.14855 0.83845 0.0
C1273 C 0.51516 0.17063 0.83228 0.0
C1274 C 0.53286 0.18323 0.85713 0.0
C1275 C 0.52776 0.17379 0.88728 0.0
C1276 C 0.55038 0.19102 0.90962 0.0
C1277 C 0.53203 0.20645 0.93623 0.0
C1278 C 0.57533 0.16853 0.92241 0.0
C1279 C 0.56595 0.21452 0.88791 0.0
C1280 C 0.55659 0.20841 0.8575 0.0
C1281 C 0.56851 0.2258 0.83293 0.0
C1282 C 0.59035 0.25023 0.83944 0.0
C1283 C 0.59986 0.25778 0.8704 0.0
C1284 C 0.5877 0.23918 0.8949 0.0
H1285 H 0.8318 0.0257 0.68911 0.0
H1286 H 0.86984 0.11587 0.71935 0.0
H1287 H 0.87768 0.09571 0.77226 0.0
H1288 H 0.79232 0.01141 0.76064 0.0
H1289 H 0.79795 0.96994 0.75993 0.0
H1290 H 0.79573 0.99093 0.72408 0.0
H1291 H 0.84521 0.97413 0.70881 0.0
H1292 H 0.84382 0.95043 0.73875 0.0
H1293 H 0.91596 0.95647 0.72017 0.0
H1294 H 0.8732 0.06844 0.82297 0.0
H1295 H 0.86972 0.03265 0.86686 0.0
H1296 H 0.84037 0.95718 0.80393 0.0
C1297 C 0.84272 0.04084 0.70668 0.0
C1298 C 0.85058 0.07223 0.69995 0.0
C1299 C 0.86425 0.09156 0.72368 0.0
C1300 C 0.86828 0.08047 0.75399 0.0
C1301 C 0.85936 0.0497 0.76005 0.0
C1302 C 0.8481 0.02977 0.73683 0.0
C1303 C 0.84156 0.99726 0.74945 0.0
C1304 C 0.80478 0.99208 0.74844 0.0
C1305 C 0.85958 0.97 0.73048 0.0
C1306 C 0.8511 0.00204 0.78344 0.0
C1307 C 0.8604 0.03278 0.78899 0.0
C1308 C 0.86651 0.04423 0.81888 0.0
C1309 C 0.86375 0.02375 0.84379 0.0
C1310 C 0.85494 0.99193 0.83896 0.0
C1311 C 0.84766 0.9812 0.80836 0.0
H1312 H 0.63298 0.10729 0.46825 0.0
H1313 H 0.67032 0.01403 0.45422 0.0
H1314 H 0.70658 0.02199 0.49833 0.0
H1315 H 0.70156 0.1485 0.49225 0.0
H1316 H 0.68341 0.16979 0.52338 0.0
H1317 H 0.65956 0.15597 0.49084 0.0
H1318 H 0.6228 0.12803 0.53068 0.0
H1319 H 0.64832 0.14108 0.56236 0.0
H1320 H 0.63966 0.10005 0.55678 0.0
H1321 H 0.74422 0.04151 0.53693 0.0
H1322 H 0.77732 0.06998 0.57588 0.0
H1323 H 0.71336 0.14835 0.57221 0.0
C1324 C 0.64855 0.08855 0.47486 0.0
C1325 C 0.64894 0.06014 0.4576 0.0
C1326 C 0.66935 0.03592 0.46709 0.0
C1327 C 0.69015 0.04016 0.49217 0.0
C1328 C 0.68988 0.06848 0.50816 0.0
C1329 C 0.66905 0.092 0.50079 0.0
C1330 C 0.67343 0.11951 0.52333 0.0
C1331 C 0.67984 0.15024 0.50638 0.0
C1332 C 0.64433 0.12232 0.54455 0.0
C1333 C 0.70241 0.10901 0.54161 0.0
C1334 C 0.71096 0.07924 0.53261 0.0
C1335 C 0.73772 0.06474 0.54452 0.0
C1336 C 0.75661 0.08118 0.56617 0.0
C1337 C 0.74828 0.11148 0.57606 0.0
C1338 C 0.72038 0.12534 0.56436 0.0
H1339 H 0.6127 0.95467 0.17095 0.0
H1340 H 0.7026 0.90752 0.1787 0.0
H1341 H 0.72093 0.94642 0.21833 0.0
H1342 H 0.61379 0.04747 0.20654 0.0
H1343 H 0.6135 0.02051 0.17347 0.0
H1344 H 0.65015 0.03701 0.18785 0.0
H1345 H 0.58162 0.98059 0.20889 0.0
H1346 H 0.58402 0.00734 0.24152 0.0
H1347 H 0.60009 0.96889 0.24463 0.0
H1348 H 0.72261 0.98287 0.26681 0.0
H1349 H 0.70886 0.01376 0.31385 0.0
H1350 H 0.62002 0.03962 0.27069 0.0
C1351 C 0.63683 0.95355 0.17983 0.0
C1352 C 0.65632 0.92848 0.17148 0.0
C1353 C 0.68753 0.92712 0.18419 0.0
C1354 C 0.69806 0.94899 0.20698 0.0
C1355 C 0.67744 0.97262 0.21605 0.0
C1356 C 0.64791 0.97541 0.20206 0.0
C1357 C 0.62921 0.00103 0.2172 0.0
C1358 C 0.62629 0.02816 0.19486 0.0
C1359 C 0.5968 0.9888 0.22866 0.0
C1360 C 0.65087 0.01034 0.24385 0.0
C1361 C 0.67914 0.99432 0.24263 0.0
C1362 C 0.70102 0.99632 0.26721 0.0
C1363 C 0.69308 0.0141 0.29381 0.0
C1364 C 0.66359 0.02978 0.29563 0.0
C1365 C 0.64316 0.02904 0.26958 0.0
H1366 H 0.84235 0.91221 0.01507 0.0
H1367 H 0.84395 0.84511 0.93871 0.0
H1368 H 0.81137 0.80851 0.96885 0.0
H1369 H 0.84323 0.84778 0.07755 0.0
H1370 H 0.81903 0.87106 0.10306 0.0
H1371 H 0.84743 0.88972 0.0779 0.0
H1372 H 0.80235 0.92333 0.05322 0.0
H1373 H 0.77548 0.90551 0.08023 0.0
H1374 H 0.76711 0.90297 0.03931 0.0
H1375 H 0.77057 0.78384 0.00274 0.0
H1376 H 0.72558 0.77328 0.0381 0.0
H1377 H 0.75202 0.85511 0.09335 0.0
C1378 C 0.83652 0.88949 0.00507 0.0
C1379 C 0.84531 0.8817 0.9743 0.0
C1380 C 0.83739 0.85167 0.9621 0.0
C1381 C 0.81901 0.8306 0.97917 0.0
C1382 C 0.80981 0.83934 0.00903 0.0
C1383 C 0.81898 0.86776 0.02225 0.0
C1384 C 0.80442 0.87211 0.05411 0.0
C1385 C 0.83006 0.87003 0.07967 0.0
C1386 C 0.78634 0.9029 0.05689 0.0
C1387 C 0.7822 0.84397 0.05461 0.0
C1388 C 0.78681 0.82451 0.02914 0.0
C1389 C 0.76721 0.79846 0.02317 0.0
C1390 C 0.74167 0.79269 0.04322 0.0
C1391 C 0.73546 0.81354 0.06812 0.0
C1392 C 0.7565 0.83885 0.07441 0.0
H1393 H 0.90018 0.9981 0.64606 0.0
H1394 H 0.94206 0.06526 0.7119 0.0
H1395 H 0.9336 0.03362 0.75792 0.0
H1396 H 0.83216 0.92461 0.69623 0.0
H1397 H 0.85333 0.90171 0.66966 0.0
H1398 H 0.84569 0.94174 0.66043 0.0
H1399 H 0.90818 0.92492 0.65091 0.0
H1400 H 0.90842 0.8942 0.67952 0.0
H1401 H 0.93467 0.92729 0.68366 0.0
H1402 H 0.92585 0.97848 0.80502 0.0
H1403 H 0.91675 0.9284 0.83089 0.0
H1404 H 0.87544 0.88077 0.74987 0.0
C1405 C 0.90419 0.00536 0.67002 0.0
C1406 C 0.9197 0.03406 0.67777 0.0
C1407 C 0.9291 0.04336 0.70868 0.0
C1408 C 0.92414 0.02586 0.73559 0.0
C1409 C 0.90738 0.99834 0.73279 0.0
C1410 C 0.89608 0.98572 0.69382 0.0
C1411 C 0.8843 0.93691 0.69472 0.0
C1412 C 0.85205 0.9258 0.67956 0.0
C1413 C 0.91041 0.91981 0.6761 0.0
C1414 C 0.89082 0.92745 0.74257 0.0
C1415 C 0.90382 0.96254 0.76253 0.0
C1416 C 0.91454 0.95915 0.79253 0.0
C1417 C 0.90897 0.93028 0.80697 0.0
C1418 C 0.89275 0.90415 0.79272 0.0
C1419 C 0.88621 0.90156 0.76033 0.0
H1420 H 0.84029 0.1398 0.53835 0.0
H1421 H 0.83533 0.03851 0.53628 0.0
H1422 H 0.79376 0.03995 0.49566 0.0
H1423 H 0.7579 0.15678 0.5256 0.0
H1424 H 0.76612 0.18834 0.49982 0.0
H1425 H 0.79487 0.17828 0.52919 0.0
H1426 H 0.83664 0.17275 0.48512 0.0
H1427 H 0.80685 0.18131 0.4562 0.0
H1428 H 0.82895 0.14566 0.45335 0.0
H1429 H 0.75012 0.05212 0.45696 0.0
H1430 H 0.70923 0.07465 0.42233 0.0
H1431 H 0.74419 0.16761 0.4471 0.0
C1432 C 0.83016 0.11796 0.52962 0.0
C1433 C 0.84087 0.08903 0.54104 0.0
C1434 C 0.82754 0.061 0.52822 0.0
C1435 C 0.80392 0.06153 0.50495 0.0
C1436 C 0.79369 0.09029 0.49439 0.0
C1437 C 0.80661 0.11803 0.50602 0.0
C1438 C 0.79233 0.14567 0.48942 0.0
C1439 C 0.77692 0.1686 0.51241 0.0
C1440 C 0.8177 0.16233 0.46986 0.0
C1441 C 0.76766 0.12919 0.46864 0.0
C1442 C 0.7692 0.09722 0.47143 0.0
C1443 C 0.74863 0.07718 0.45466 0.0
C1444 C 0.72536 0.09014 0.43511 0.0
C1445 C 0.72284 0.12289 0.43238 0.0
C1446 C 0.745 0.14245 0.44887 0.0
H1447 H 0.57923 0.07347 0.13318 0.0
H1448 H 0.53142 0.99581 0.17728 0.0
H1449 H 0.52914 0.02627 0.22623 0.0
H1450 H 0.63118 0.09352 0.18404 0.0
H1451 H 0.62837 0.13523 0.18378 0.0
H1452 H 0.61564 0.11279 0.15033 0.0
H1453 H 0.56072 0.13941 0.15347 0.0
H1454 H 0.57409 0.16129 0.18744 0.0
H1455 H 0.5383 0.13775 0.18897 0.0
H1456 H 0.54963 0.05513 0.27262 0.0
H1457 H 0.58062 0.08549 0.31111 0.0
H1458 H 0.61577 0.14563 0.23855 0.0
C1459 C 0.56676 0.06357 0.1527 0.0
C1460 C 0.55595 0.03204 0.1516 0.0
C1461 C 0.54011 0.01974 0.17765 0.0
C1462 C 0.53855 0.03702 0.20557 0.0
C1463 C 0.55262 0.06673 0.20699 0.0
C1464 C 0.5652 0.08062 0.18083 0.0
C1465 C 0.58251 0.11103 0.18957 0.0
C1466 C 0.61637 0.11311 0.17615 0.0
C1467 C 0.56272 0.13902 0.17926 0.0
C1468 C 0.5828 0.10883 0.22478 0.0
C1469 C 0.56413 0.084 0.23434 0.0
C1470 C 0.56337 0.07528 0.26542 0.0
C1471 C 0.58183 0.09238 0.28725 0.0
C1472 C 0.60127 0.11785 0.27817 0.0
C1473 C 0.60114 0.12635 0.24643 0.0
H1474 H 0.65505 0.90086 0.04349 0.0
H1475 H 0.7082 0.98358 0.0737 0.0
H1476 H 0.74632 0.97533 0.03108 0.0
H1477 H 0.72322 0.855 0.02031 0.0
H1478 H 0.7025 0.83708 0.98778 0.0
H1479 H 0.68065 0.84968 0.02152 0.0
H1480 H 0.64571 0.88361 0.98517 0.0
H1481 H 0.66871 0.87183 0.95192 0.0
H1482 H 0.66464 0.91269 0.96145 0.0
H1483 H 0.77722 0.9598 0.98284 0.0
H1484 H 0.8023 0.93389 0.9376 0.0
H1485 H 0.73106 0.8598 0.94078 0.0
C1486 C 0.67521 0.91674 0.04174 0.0
C1487 C 0.67866 0.9428 0.06225 0.0
C1488 C 0.70508 0.96335 0.05851 0.0
C1489 C 0.72658 0.95918 0.03399 0.0
C1490 C 0.72145 0.93434 0.01315 0.0
C1491 C 0.69689 0.913 0.01723 0.0
C1492 C 0.69732 0.88777 0.99205 0.0
C1493 C 0.70106 0.8554 0.00626 0.0
C1494 C 0.66731 0.88906 0.97143 0.0
C1495 C 0.72679 0.8974 0.97417 0.0
C1496 C 0.73993 0.92476 0.98619 0.0
C1497 C 0.76718 0.93824 0.97337 0.0
C1498 C 0.78153 0.92318 0.94787 0.0
C1499 C 0.76939 0.89432 0.93609 0.0
C1500 C 0.74132 0.88165 0.94933 0.0
H1501 H 0.93431 0.82605 0.84239 0.0
H1502 H 0.98767 0.85161 0.92663 0.0
H1503 H 0.02591 0.80974 0.92128 0.0
H1504 H 0.92795 0.73043 0.82876 0.0
H1505 H 0.94764 0.72524 0.7938 0.0
H1506 H 0.92366 0.75882 0.80148 0.0
H1507 H 0.97026 0.80291 0.78801 0.0
H1508 H 0.96317 0.76786 0.76727 0.0
H1509 H 0.00147 0.77559 0.77733 0.0
H1510 H 0.07226 0.759 0.89326 0.0
H1511 H 0.09891 0.71915 0.86158 0.0
H1512 H 0.02113 0.70949 0.79455 0.0
C1513 C 0.95307 0.82126 0.85898 0.0
C1514 C 0.95837 0.84048 0.88573 0.0
C1515 C 0.98415 0.83553 0.90719 0.0
C1516 C 0.00634 0.81138 0.90492 0.0
C1517 C 0.00226 0.78958 0.88152 0.0
C1518 C 0.97107 0.79447 0.85541 0.0
C1519 C 0.97343 0.76255 0.82101 0.0
C1520 C 0.94195 0.74331 0.81174 0.0
C1521 C 0.97736 0.77804 0.78711 0.0
C1522 C 0.0122 0.73927 0.83336 0.0
C1523 C 0.02872 0.75519 0.86699 0.0
C1524 C 0.05986 0.7478 0.87386 0.0
C1525 C 0.07476 0.72506 0.85523 0.0
C1526 C 0.06081 0.711 0.82786 0.0
C1527 C 0.03024 0.71864 0.81654 0.0
H1528 H 0.4774 0.65895 0.13557 0.0
H1529 H 0.42053 0.69064 0.05784 0.0
H1530 H 0.46076 0.73238 0.04827 0.0
H1531 H 0.50283 0.73288 0.16359 0.0
H1532 H 0.54135 0.71928 0.17522 0.0
H1533 H 0.50787 0.69262 0.1739 0.0
H1534 H 0.54034 0.65697 0.13633 0.0
H1535 H 0.57288 0.68483 0.13667 0.0
H1536 H 0.55465 0.67266 0.10029 0.0
H1537 H 0.50788 0.77243 0.04892 0.0
H1538 H 0.55169 0.8094 0.06434 0.0
H1539 H 0.57648 0.74949 0.14064 0.0
C1540 C 0.47318 0.67459 0.11646 0.0
C1541 C 0.44564 0.67135 0.09745 0.0
C1542 C 0.44132 0.69259 0.07283 0.0
C1543 C 0.46429 0.71614 0.06698 0.0
C1544 C 0.49168 0.71793 0.08567 0.0
C1545 C 0.49587 0.69778 0.11012 0.0
C1546 C 0.52623 0.70519 0.12803 0.0
C1547 C 0.51917 0.71289 0.16227 0.0
C1548 C 0.54992 0.67831 0.12514 0.0
C1549 C 0.53786 0.7337 0.11094 0.0
C1550 C 0.51835 0.7403 0.0859 0.0
C1551 C 0.52362 0.76699 0.06807 0.0
C1552 C 0.54854 0.78787 0.07689 0.0
C1553 C 0.56767 0.78187 0.10327 0.0
C1554 C 0.56255 0.75418 0.11995 0.0
H1555 H 0.99642 0.32882 0.56304 0.0
H1556 H 0.06073 0.25523 0.53634 0.0
H1557 H 0.01754 0.21598 0.54282 0.0
H1558 H 0.94964 0.2974 0.61655 0.0
H1559 H 0.91072 0.30729 0.60264 0.0
H1560 H 0.94481 0.33102 0.593 0.0
H1561 H 0.9347 0.3249 0.535 0.0
H1562 H 0.89903 0.30269 0.54311 0.0
H1563 H 0.92874 0.28667 0.51773 0.0
H1564 H 0.968 0.1847 0.5534 0.0
H1565 H 0.9162 0.16316 0.56995 0.0
H1566 H 0.88338 0.25686 0.58969 0.0
C1567 C 0.00133 0.30435 0.55898 0.0
C1568 C 0.0322 0.29466 0.55056 0.0
C1569 C 0.03745 0.26283 0.54366 0.0
C1570 C 0.01301 0.24048 0.54698 0.0
C1571 C 0.98294 0.25061 0.55561 0.0
C1572 C 0.97671 0.28188 0.56068 0.0
C1573 C 0.94159 0.28648 0.56739 0.0
C1574 C 0.93636 0.30667 0.59666 0.0
C1575 C 0.92505 0.30104 0.53913 0.0
C1576 C 0.93062 0.2527 0.57086 0.0
C1577 C 0.9543 0.23251 0.56182 0.0
C1578 C 0.94944 0.20026 0.56097 0.0
C1579 C 0.92007 0.18818 0.57084 0.0
C1580 C 0.89638 0.2081 0.58278 0.0
C1581 C 0.90135 0.24091 0.58157 0.0
H1582 H 0.02686 0.70029 0.89424 0.0
H1583 H 0.01491 0.71603 0.99225 0.0
H1584 H 0.96755 0.74697 0.98176 0.0
H1585 H 0.03844 0.80518 0.84422 0.0
H1586 H 0.00857 0.81369 0.82127 0.0
H1587 H 0.03509 0.78341 0.81291 0.0
H1588 H 0.96868 0.70079 0.83626 0.0
H1589 H 0.943 0.69995 0.86887 0.0
H1590 H 0.98265 0.68916 0.87 0.0
H1591 H 0.92158 0.77111 0.96447 0.0
H1592 H 0.8746 0.79352 0.93901 0.0
H1593 H 0.91148 0.76985 0.85078 0.0
C1594 C 0.01497 0.71246 0.91291 0.0
C1595 C 0.02508 0.70675 0.9436 0.0
C1596 C 0.0082 0.72034 0.96833 0.0
C1597 C 0.9814 0.73831 0.96246 0.0
C1598 C 0.97242 0.74389 0.93165 0.0
C1599 C 0.9895 0.73335 0.90636 0.0
C1600 C 0.97536 0.74378 0.87209 0.0
C1601 C 0.01859 0.79191 0.83162 0.0
C1602 C 0.96702 0.70754 0.86104 0.0
C1603 C 0.94202 0.75514 0.88866 0.0
C1604 C 0.94354 0.75708 0.92098 0.0
C1605 C 0.91938 0.76987 0.9394 0.0
C1606 C 0.89252 0.78227 0.92501 0.0
C1607 C 0.88945 0.78064 0.8926 0.0
C1608 C 0.91355 0.76637 0.87503 0.0
H1609 H 0.40847 0.2684 0.362 0.0
H1610 H 0.44799 0.28838 0.27087 0.0
H1611 H 0.49191 0.25222 0.276 0.0
H1612 H 0.4905 0.21995 0.42987 0.0
H1613 H 0.45524 0.207 0.43864 0.0
H1614 H 0.45572 0.24674 0.42953 0.0
H1615 H 0.41172 0.20938 0.40908 0.0
H1616 H 0.43152 0.17374 0.39816 0.0
H1617 H 0.41012 0.19807 0.37157 0.0
H1618 H 0.53376 0.19579 0.29262 0.0
H1619 H 0.55689 0.14894 0.31484 0.0
H1620 H 0.50412 0.1553 0.40118 0.0
C1621 C 0.42763 0.26604 0.3455 0.0
C1622 C 0.42699 0.28138 0.31638 0.0
C1623 C 0.45038 0.27651 0.29283 0.0
C1624 C 0.47611 0.25628 0.29532 0.0
C1625 C 0.4807 0.24158 0.32307 0.0
C1626 C 0.45364 0.24771 0.35272 0.0
C1627 C 0.46056 0.21651 0.38653 0.0
C1628 C 0.46608 0.22409 0.42233 0.0
C1629 C 0.4272 0.19823 0.39123 0.0
C1630 C 0.49749 0.19304 0.36996 0.0
C1631 C 0.50873 0.20769 0.33429 0.0
C1632 C 0.52829 0.18932 0.31622 0.0
C1633 C 0.54101 0.16211 0.32935 0.0
C1634 C 0.53399 0.15082 0.35979 0.0
C1635 C 0.511 0.16524 0.3792 0.0
H1636 H 0.0285 0.17272 0.6336 0.0
H1637 H 0.93242 0.20677 0.64412 0.0
H1638 H 0.95417 0.26044 0.65067 0.0
H1639 H 0.06119 0.22782 0.69111 0.0
H1640 H 0.09904 0.22957 0.67181 0.0
H1641 H 0.07498 0.19454 0.6692 0.0
H1642 H 0.07798 0.19705 0.60963 0.0
H1643 H 0.10048 0.23316 0.61153 0.0
H1644 H 0.06373 0.23079 0.58994 0.0
H1645 H 0.98756 0.31157 0.65291 0.0
H1646 H 0.02881 0.35212 0.66274 0.0
H1647 H 0.10215 0.28373 0.64884 0.0
C1648 C 0.01177 0.19149 0.63665 0.0
C1649 C 0.97858 0.18562 0.6377 0.0
C1650 C 0.95782 0.21084 0.64246 0.0
C1651 C 0.97002 0.24151 0.64551 0.0
C1652 C 0.00282 0.24662 0.6425 0.0
C1653 C 0.0234 0.22204 0.63905 0.0
C1654 C 0.05784 0.23277 0.64039 0.0
C1655 C 0.07421 0.22046 0.66987 0.0
C1656 C 0.07606 0.22288 0.61112 0.0
C1657 C 0.05366 0.26772 0.64251 0.0
C1658 C 0.02177 0.27531 0.64437 0.0
C1659 C 0.01235 0.30589 0.65027 0.0
C1660 C 0.03596 0.32891 0.65558 0.0
C1661 C 0.06856 0.32125 0.65504 0.0
C1662 C 0.07745 0.29051 0.64748 0.0
H1663 H 0.41678 0.75128 0.15531 0.0
H1664 H 0.47287 0.73081 0.2375 0.0
H1665 H 0.50575 0.77812 0.22908 0.0
H1666 H 0.47556 0.77977 0.10847 0.0
H1667 H 0.4542 0.81173 0.09201 0.0
H1668 H 0.43292 0.77781 0.1056 0.0
H1669 H 0.39993 0.81193 0.14288 0.0
H1670 H 0.42032 0.84628 0.1291 0.0
H1671 H 0.41994 0.8381 0.17009 0.0
H1672 H 0.53553 0.82551 0.20913 0.0
H1673 H 0.55758 0.87076 0.18092 0.0
H1674 H 0.4813 0.86146 0.11274 0.0
C1675 C 0.43591 0.75683 0.17159 0.0
C1676 C 0.44254 0.73697 0.1968 0.0
C1677 C 0.46739 0.74548 0.21793 0.0
C1678 C 0.48617 0.77242 0.21341 0.0
C1679 C 0.47938 0.79119 0.18805 0.0
C1680 C 0.45436 0.78417 0.16792 0.0
C1681 C 0.45187 0.80856 0.14277 0.0
C1682 C 0.45369 0.79359 0.11021 0.0
C1683 C 0.4212 0.82733 0.14644 0.0
C1684 C 0.48103 0.82873 0.15031 0.0
C1685 C 0.49616 0.81875 0.17693 0.0
C1686 C 0.52376 0.83358 0.18833 0.0
C1687 C 0.53632 0.85913 0.17201 0.0
C1688 C 0.5216 0.86939 0.14434 0.0
C1689 C 0.4933 0.85412 0.13373 0.0
H1690 H 0.64564 0.41296 0.75031 0.0
H1691 H 0.59476 0.44048 0.83319 0.0
H1692 H 0.57591 0.48758 0.80666 0.0
H1693 H 0.6736 0.4812 0.72322 0.0
H1694 H 0.66338 0.47577 0.68293 0.0
H1695 H 0.66947 0.4424 0.70706 0.0
H1696 H 0.61379 0.4209 0.6914 0.0
H1697 H 0.60826 0.45426 0.66699 0.0
H1698 H 0.57945 0.44513 0.6964 0.0
H1699 H 0.57004 0.53591 0.77382 0.0
H1700 H 0.56499 0.57511 0.73233 0.0
H1701 H 0.61765 0.51541 0.66974 0.0
C1702 C 0.62927 0.42816 0.76231 0.0
C1703 C 0.62162 0.42299 0.7939 0.0
C1704 C 0.60074 0.44372 0.80907 0.0
C1705 C 0.59011 0.47074 0.79417 0.0
C1706 C 0.59994 0.47627 0.76376 0.0
C1707 C 0.61775 0.45478 0.74742 0.0
C1708 C 0.62408 0.46588 0.71455 0.0
C1709 C 0.65972 0.46636 0.7066 0.0
C1710 C 0.60527 0.44534 0.69095 0.0
C1711 C 0.61044 0.49853 0.71629 0.0
C1712 C 0.59609 0.50382 0.74469 0.0
C1713 C 0.58099 0.5319 0.75145 0.0
C1714 C 0.57873 0.55431 0.72798 0.0
C1715 C 0.59198 0.54885 0.69829 0.0
C1716 C 0.60863 0.52085 0.69269 0.0
H1717 H 0.83098 0.4275 0.0315 0.0
H1718 H 0.83425 0.33107 0.05981 0.0
H1719 H 0.78919 0.31807 0.02405 0.0
H1720 H 0.74375 0.43572 0.0172 0.0
H1721 H 0.75167 0.45852 0.98348 0.0
H1722 H 0.77985 0.45883 0.01531 0.0
H1723 H 0.8225 0.44335 0.97373 0.0
H1724 H 0.79241 0.44074 0.9437 0.0
H1725 H 0.81691 0.40757 0.95161 0.0
H1726 H 0.74689 0.31481 0.98222 0.0
H1727 H 0.70925 0.32156 0.93842 0.0
H1728 H 0.73399 0.42012 0.93643 0.0
C1729 C 0.82123 0.40395 0.03105 0.0
C1730 C 0.83503 0.38046 0.04937 0.0
C1731 C 0.82315 0.3495 0.0468 0.0
C1732 C 0.79772 0.34193 0.02645 0.0
C1733 C 0.7847 0.36553 0.00852 0.0
C1734 C 0.79612 0.39595 0.0105 0.0
C1735 C 0.78005 0.41623 0.98645 0.0
C1736 C 0.76285 0.44392 0.00159 0.0
C1737 C 0.80442 0.42763 0.96246 0.0
C1738 C 0.75666 0.39287 0.97182 0.0
C1739 C 0.76011 0.36367 0.98451 0.0
C1740 C 0.74312 0.33779 0.97289 0.0
C1741 C 0.72165 0.34187 0.94806 0.0
C1742 C 0.71774 0.37154 0.9346 0.0
C1743 C 0.73551 0.39734 0.9469 0.0
H1744 H 0.83654 0.55525 0.28056 0.0
H1745 H 0.90832 0.62738 0.28571 0.0
H1746 H 0.93809 0.59927 0.24445 0.0
H1747 H 0.86793 0.45296 0.32018 0.0
H1748 H 0.87237 0.42632 0.28886 0.0
H1749 H 0.83823 0.44156 0.297 0.0
H1750 H 0.82323 0.5239 0.23436 0.0
H1751 H 0.84077 0.50018 0.20473 0.0
H1752 H 0.85153 0.53903 0.20921 0.0
H1753 H 0.95564 0.56665 0.20073 0.0
H1754 H 0.96554 0.52903 0.15846 0.0
H1755 H 0.88748 0.47175 0.18947 0.0
C1756 C 0.86034 0.56313 0.27597 0.0
C1757 C 0.87087 0.59207 0.28822 0.0
C1758 C 0.8999 0.60468 0.2775 0.0
C1759 C 0.91707 0.58867 0.25439 0.0
C1760 C 0.90675 0.55862 0.24516 0.0
C1761 C 0.8812 0.54389 0.25907 0.0
C1762 C 0.87527 0.50847 0.24742 0.0
C1763 C 0.86352 0.45049 0.29432 0.0
C1764 C 0.84612 0.51788 0.22327 0.0
C1765 C 0.90208 0.50966 0.22118 0.0
C1766 C 0.91916 0.53795 0.22156 0.0
C1767 C 0.94231 0.54485 0.19963 0.0
C1768 C 0.94745 0.5235 0.17538 0.0
C1769 C 0.92799 0.4965 0.17174 0.0
C1770 C 0.90435 0.49054 0.19396 0.0
H1771 H 0.73242 0.60336 0.41802 0.0
H1772 H 0.80541 0.66471 0.45803 0.0
H1773 H 0.77164 0.67331 0.50423 0.0
H1774 H 0.66768 0.65156 0.44408 0.0
H1775 H 0.64134 0.61853 0.44942 0.0
H1776 H 0.67202 0.61677 0.42049 0.0
H1777 H 0.69126 0.56677 0.44495 0.0
H1778 H 0.66382 0.56834 0.47687 0.0
H1779 H 0.70614 0.56705 0.48415 0.0
H1780 H 0.73042 0.67147 0.54862 0.0
H1781 H 0.68282 0.66583 0.58229 0.0
H1782 H 0.63592 0.6107 0.50957 0.0
C1783 C 0.74183 0.618 0.43678 0.0
C1784 C 0.77215 0.63255 0.43467 0.0
C1785 C 0.78267 0.65261 0.45932 0.0
C1786 C 0.76357 0.65774 0.48565 0.0
C1787 C 0.73402 0.6426 0.48712 0.0
C1788 C 0.72298 0.62374 0.46288 0.0
C1789 C 0.68929 0.61242 0.46849 0.0
C1790 C 0.66623 0.62562 0.44418 0.0
C1791 C 0.68748 0.57653 0.46871 0.0
C1792 C 0.68351 0.62668 0.50037 0.0
C1793 C 0.70955 0.6439 0.51095 0.0
C1794 C 0.7098 0.65829 0.54039 0.0
C1795 C 0.68276 0.65497 0.55938 0.0
C1796 C 0.65556 0.63823 0.5484 0.0
C1797 C 0.65614 0.62409 0.51846 0.0
H1798 H 0.69846 0.45851 0.83938 0.0
H1799 H 0.67794 0.50009 0.92883 0.0
H1800 H 0.68648 0.55234 0.9072 0.0
H1801 H 0.7507 0.52701 0.80428 0.0
H1802 H 0.73049 0.51993 0.76762 0.0
H1803 H 0.73931 0.48776 0.79272 0.0
H1804 H 0.6807 0.4724 0.7884 0.0
H1805 H 0.66818 0.50666 0.76841 0.0
H1806 H 0.6512 0.49761 0.80532 0.0
H1807 H 0.6744 0.59635 0.87339 0.0
H1808 H 0.65205 0.62908 0.83225 0.0
H1809 H 0.67833 0.56049 0.76249 0.0
C1810 C 0.69825 0.47856 0.85485 0.0
C1811 C 0.68744 0.47533 0.88561 0.0
C1812 C 0.68672 0.50198 0.9053 0.0
C1813 C 0.69116 0.53189 0.89295 0.0
C1814 C 0.69701 0.53453 0.86111 0.0
C1815 C 0.70182 0.50844 0.84245 0.0
C1816 C 0.69972 0.51651 0.80821 0.0
C1817 C 0.732 0.51258 0.79227 0.0
C1818 C 0.67346 0.49705 0.7916 0.0
C1819 C 0.69068 0.5505 0.81033 0.0
C1820 C 0.68977 0.56061 0.84107 0.0
C1821 C 0.67634 0.5891 0.84927 0.0
C1822 C 0.66331 0.60737 0.82574 0.0
C1823 C 0.66376 0.5973 0.79421 0.0
C1824 C 0.67853 0.569 0.78634 0.0
H1825 H 0.76713 0.37189 0.12628 0.0
H1826 H 0.79928 0.27872 0.10293 0.0
H1827 H 0.75528 0.27273 0.06467 0.0
H1828 H 0.6789 0.35279 0.11283 0.0
H1829 H 0.67203 0.39124 0.09795 0.0
H1830 H 0.70181 0.38569 0.12772 0.0
H1831 H 0.74308 0.41232 0.0933 0.0
H1832 H 0.7145 0.41701 0.06244 0.0
H1833 H 0.75096 0.39649 0.05534 0.0
H1834 H 0.70893 0.27775 0.02739 0.0
H1835 H 0.67056 0.29617 0.98814 0.0
H1836 H 0.67292 0.38826 0.03152 0.0
C1837 C 0.76454 0.34997 0.11357 0.0
C1838 C 0.78659 0.32569 0.11773 0.0
C1839 C 0.78266 0.2976 0.10023 0.0
C1840 C 0.75752 0.29386 0.07868 0.0
C1841 C 0.73649 0.31844 0.0748 0.0
C1842 C 0.73975 0.34598 0.09177 0.0
C1843 C 0.71577 0.36983 0.08119 0.0
C1844 C 0.69064 0.3752 0.10642 0.0
C1845 C 0.73204 0.40076 0.07249 0.0
C1846 C 0.70115 0.35275 0.05323 0.0
C1847 C 0.71184 0.32241 0.05135 0.0
C1848 C 0.70052 0.3015 0.02856 0.0
C1849 C 0.67868 0.31217 0.00637 0.0
C1850 C 0.66931 0.34381 0.00635 0.0
C1851 C 0.68023 0.36413 0.03056 0.0
H1852 H 0.88683 0.52503 0.34201 0.0
H1853 H 0.784 0.52548 0.32893 0.0
H1854 H 0.78466 0.49293 0.28134 0.0
H1855 H 0.93155 0.52801 0.28533 0.0
H1856 H 0.94857 0.49969 0.25584 0.0
H1857 H 0.95745 0.50171 0.29458 0.0
H1858 H 0.92857 0.47055 0.32994 0.0
H1859 H 0.94886 0.45146 0.29795 0.0
H1860 H 0.91555 0.43504 0.31197 0.0
H1861 H 0.80456 0.44284 0.2264 0.0
H1862 H 0.83153 0.40108 0.1982 0.0
H1863 H 0.92517 0.42484 0.23656 0.0
C1864 C 0.86601 0.51952 0.32788 0.0
C1865 C 0.83511 0.52904 0.33677 0.0
C1866 C 0.80699 0.51889 0.31996 0.0
C1867 C 0.8068 0.50053 0.29221 0.0
C1868 C 0.83558 0.49225 0.27936 0.0
C1869 C 0.86962 0.50275 0.30038 0.0
C1870 C 0.90721 0.48125 0.28326 0.0
C1871 C 0.93676 0.50393 0.27836 0.0
C1872 C 0.92519 0.4585 0.30701 0.0
C1873 C 0.88841 0.4566 0.24809 0.0
C1874 C 0.84766 0.46219 0.2459 0.0
C1875 C 0.8302 0.44132 0.22762 0.0
C1876 C 0.84632 0.4171 0.21182 0.0
C1877 C 0.87972 0.41094 0.2147 0.0
C1878 C 0.90044 0.43053 0.23291 0.0
H1879 H 0.77215 0.54945 0.51135 0.0
H1880 H 0.83341 0.63175 0.509 0.0
H1881 H 0.8087 0.65116 0.55778 0.0
H1882 H 0.70249 0.57966 0.53995 0.0
H1883 H 0.69403 0.5484 0.56609 0.0
H1884 H 0.71724 0.541 0.53196 0.0
H1885 H 0.76256 0.51963 0.56618 0.0
H1886 H 0.73927 0.52707 0.60045 0.0
H1887 H 0.77883 0.54346 0.59753 0.0
H1888 H 0.77178 0.66391 0.6038 0.0
H1889 H 0.7314 0.66606 0.64532 0.0
H1890 H 0.69852 0.57284 0.61902 0.0
C1891 C 0.78051 0.57163 0.52093 0.0
C1892 C 0.80413 0.58958 0.50567 0.0
C1893 C 0.81506 0.61781 0.5199 0.0
C1894 C 0.80116 0.62896 0.54764 0.0
C1895 C 0.77723 0.61101 0.56145 0.0
C1896 C 0.76772 0.58249 0.54893 0.0
C1897 C 0.74293 0.56668 0.56899 0.0
C1898 C 0.71238 0.55848 0.55059 0.0
C1899 C 0.75673 0.53749 0.58419 0.0
C1900 C 0.73747 0.59212 0.59302 0.0
C1901 C 0.7579 0.61727 0.58882 0.0
C1902 C 0.75616 0.64406 0.60758 0.0
C1903 C 0.73297 0.64513 0.63102 0.0
C1904 C 0.71175 0.61958 0.63558 0.0
C1905 C 0.71443 0.5927 0.61637 0.0
H1906 H 0.51597 0.68596 0.57145 0.0
H1907 H 0.4659 0.63419 0.64248 0.0
H1908 H 0.42299 0.67231 0.64188 0.0
H1909 H 0.49999 0.76237 0.58968 0.0
H1910 H 0.48848 0.77592 0.55214 0.0
H1911 H 0.51447 0.74312 0.55523 0.0
H1912 H 0.47613 0.70999 0.52166 0.0
H1913 H 0.44984 0.74275 0.51856 0.0
H1914 H 0.43505 0.70598 0.53269 0.0
H1915 H 0.3867 0.716 0.63658 0.0
H1916 H 0.36259 0.76765 0.63199 0.0
H1917 H 0.43497 0.79439 0.5658 0.0
C1918 C 0.496 0.68291 0.58689 0.0
C1919 C 0.49454 0.65716 0.60734 0.0
C1920 C 0.4676 0.65355 0.62662 0.0
C1921 C 0.44291 0.67501 0.62633 0.0
C1922 C 0.44471 0.6998 0.60594 0.0
C1923 C 0.47028 0.70394 0.58628 0.0
C1924 C 0.46488 0.73259 0.56621 0.0
C1925 C 0.49373 0.75481 0.56586 0.0
C1926 C 0.45594 0.72221 0.53281 0.0
C1927 C 0.43607 0.74677 0.58224 0.0
C1928 C 0.42341 0.72592 0.60312 0.0
C1929 C 0.39627 0.73255 0.62022 0.0
C1930 C 0.38254 0.76195 0.61725 0.0
C1931 C 0.39671 0.78498 0.59839 0.0
C1932 C 0.42342 0.77703 0.58003 0.0
H1933 H 0.40093 0.59439 0.26856 0.0
H1934 H 0.42194 0.536 0.18883 0.0
H1935 H 0.42596 0.49003 0.22315 0.0
H1936 H 0.44218 0.55167 0.3318 0.0
H1937 H 0.40889 0.55774 0.35725 0.0
H1938 H 0.41839 0.58615 0.32818 0.0
H1939 H 0.36052 0.58098 0.3071 0.0
H1940 H 0.35119 0.55149 0.33501 0.0
H1941 H 0.34561 0.54329 0.29407 0.0
H1942 H 0.41997 0.44855 0.26736 0.0
H1943 H 0.40681 0.41881 0.31514 0.0
H1944 H 0.37887 0.50536 0.36023 0.0
C1945 C 0.40871 0.57238 0.25868 0.0
C1946 C 0.413 0.56914 0.22635 0.0
C1947 C 0.42034 0.53934 0.21379 0.0
C1948 C 0.42185 0.51296 0.23305 0.0
C1949 C 0.41468 0.51659 0.26456 0.0
C1950 C 0.40827 0.54577 0.27712 0.0
C1951 C 0.3955 0.54343 0.30972 0.0
C1952 C 0.41757 0.56076 0.33312 0.0
C1953 C 0.36119 0.55551 0.31155 0.0
C1954 C 0.39627 0.50853 0.31398 0.0
C1955 C 0.40775 0.49313 0.28809 0.0
C1956 C 0.41097 0.46058 0.28771 0.0
C1957 C 0.40316 0.44377 0.3148 0.0
C1958 C 0.39123 0.45947 0.34143 0.0
C1959 C 0.3873 0.4922 0.34032 0.0
H1960 H 0.27717 0.60069 0.11684 0.0
H1961 H 0.3164 0.69336 0.10195 0.0
H1962 H 0.2751 0.70169 0.06101 0.0
H1963 H 0.2545 0.5799 0.03859 0.0
H1964 H 0.21889 0.56039 0.05119 0.0
H1965 H 0.25322 0.56268 0.07648 0.0
H1966 H 0.2177 0.5876 0.11908 0.0
H1967 H 0.1839 0.58641 0.09308 0.0
H1968 H 0.19666 0.62293 0.11078 0.0
H1969 H 0.22563 0.69929 0.02238 0.0
H1970 H 0.17897 0.68481 0.98885 0.0
H1971 H 0.17392 0.59468 0.03324 0.0
C1972 C 0.27761 0.62271 0.10476 0.0
C1973 C 0.30017 0.64638 0.11266 0.0
C1974 C 0.29958 0.67476 0.09616 0.0
C1975 C 0.27596 0.67976 0.07313 0.0
C1976 C 0.25329 0.65612 0.06688 0.0
C1977 C 0.2544 0.62804 0.08222 0.0
C1978 C 0.22714 0.60648 0.07286 0.0
C1979 C 0.23918 0.57557 0.05895 0.0
C1980 C 0.20505 0.60052 0.1006 0.0
C1981 C 0.21098 0.62607 0.04871 0.0
C1982 C 0.22576 0.65488 0.04569 0.0
C1983 C 0.21407 0.67673 0.02471 0.0
C1984 C 0.18742 0.66842 0.00586 0.0
C1985 C 0.17268 0.63858 0.00828 0.0
C1986 C 0.18456 0.61763 0.03049 0.0
H1987 H 0.16713 0.55398 0.85953 0.0
H1988 H 0.07453 0.59476 0.84402 0.0
H1989 H 0.06529 0.5585 0.79949 0.0
H1990 H 0.18901 0.53847 0.77914 0.0
H1991 H 0.20583 0.5011 0.78736 0.0
H1992 H 0.20658 0.53169 0.8166 0.0
H1993 H 0.17848 0.4958 0.85532 0.0
H1994 H 0.17775 0.46465 0.82674 0.0
H1995 H 0.14128 0.47699 0.84457 0.0
H1996 H 0.06256 0.51202 0.76292 0.0
H1997 H 0.07038 0.46396 0.73103 0.0
H1998 H 0.16617 0.45672 0.76727 0.0
C1999 C 0.1454 0.55612 0.84606 0.0
C2000 C 0.12164 0.57736 0.85509 0.0
C2001 C 0.09322 0.57896 0.83729 0.0
C2002 C 0.08761 0.5582 0.81221 0.0
C2003 C 0.11097 0.53659 0.80483 0.0
C2004 C 0.13964 0.53592 0.82077 0.0
C2005 C 0.15995 0.50913 0.80959 0.0
C2006 C 0.1922 0.52081 0.79741 0.0
C2007 C 0.16462 0.48525 0.8356 0.0
C2008 C 0.13885 0.49571 0.78386 0.0
C2009 C 0.11017 0.5111 0.78233 0.0
C2010 C 0.08524 0.50038 0.76321 0.0
C2011 C 0.0899 0.47342 0.74497 0.0
C2012 C 0.11945 0.4582 0.74539 0.0
C2013 C 0.14413 0.46935 0.76514 0.0
H2014 H 0.25359 0.35139 0.60686 0.0
H2015 H 0.20586 0.44059 0.61132 0.0
H2016 H 0.24555 0.4626 0.57549 0.0
H2017 H 0.33594 0.3868 0.60102 0.0
H2018 H 0.34917 0.35581 0.57564 0.0
H2019 H 0.31932 0.34802 0.60451 0.0
H2020 H 0.2834 0.32534 0.56164 0.0
H2021 H 0.31079 0.33498 0.5311 0.0
H2022 H 0.27081 0.34951 0.53033 0.0
H2023 H 0.28854 0.47467 0.53821 0.0
H2024 H 0.33 0.47575 0.49852 0.0
H2025 H 0.3497 0.37805 0.51475 0.0
C2026 C 0.25155 0.37562 0.60045 0.0
C2027 C 0.22642 0.39425 0.61202 0.0
C2028 C 0.22475 0.42582 0.60293 0.0
C2029 C 0.24739 0.43862 0.58276 0.0
C2030 C 0.27168 0.41963 0.57176 0.0
C2031 C 0.27404 0.38883 0.58027 0.0
C2032 C 0.30195 0.37336 0.56402 0.0
C2033 C 0.32814 0.36554 0.58771 0.0
C2034 C 0.29115 0.34405 0.54565 0.0
C2035 C 0.31297 0.39946 0.54283 0.0
C2036 C 0.29605 0.42629 0.54897 0.0
C2037 C 0.30209 0.45389 0.53337 0.0
C2038 C 0.32579 0.45418 0.51074 0.0
C2039 C 0.34323 0.42696 0.50326 0.0
C2040 C 0.33667 0.39915 0.51967 0.0
H2041 H 0.35903 0.40059 0.20767 0.0
H2042 H 0.32279 0.44153 0.29298 0.0
H2043 H 0.31035 0.48996 0.26465 0.0
H2044 H 0.39652 0.47051 0.17928 0.0
H2045 H 0.38737 0.46016 0.13947 0.0
H2046 H 0.39237 0.43003 0.16771 0.0
H2047 H 0.33625 0.40846 0.15149 0.0
H2048 H 0.3309 0.44006 0.12483 0.0
H2049 H 0.30225 0.4334 0.15505 0.0
H2050 H 0.29992 0.53311 0.22568 0.0
H2051 H 0.30566 0.57177 0.18446 0.0
H2052 H 0.35141 0.5031 0.12584 0.0
C2053 C 0.34846 0.41971 0.2205 0.0
C2054 C 0.34143 0.4171 0.25246 0.0
C2055 C 0.3282 0.44292 0.26846 0.0
C2056 C 0.32074 0.47036 0.25246 0.0
C2057 C 0.32676 0.47154 0.22057 0.0
C2058 C 0.34114 0.44716 0.20503 0.0
C2059 C 0.34721 0.45483 0.17131 0.0
C2060 C 0.38298 0.45383 0.16404 0.0
C2061 C 0.328 0.43288 0.14938 0.0
C2062 C 0.33466 0.48773 0.17032 0.0
C2063 C 0.32207 0.49662 0.19866 0.0
C2064 C 0.30988 0.52636 0.20348 0.0
C2065 C 0.31299 0.54824 0.17963 0.0
C2066 C 0.32914 0.54063 0.15182 0.0
C2067 C 0.33828 0.50944 0.14653 0.0
H2068 H 0.28427 0.56954 0.98042 0.0
H2069 H 0.30966 0.66168 0.01697 0.0
H2070 H 0.27204 0.68522 0.98015 0.0
H2071 H 0.27795 0.5928 0.90028 0.0
H2072 H 0.24508 0.56655 0.89145 0.0
H2073 H 0.27348 0.5569 0.92127 0.0
H2074 H 0.22769 0.55098 0.96055 0.0
H2075 H 0.199 0.56123 0.9312 0.0
H2076 H 0.20138 0.58309 0.96734 0.0
H2077 H 0.23025 0.69866 0.94134 0.0
H2078 H 0.19224 0.70228 0.89783 0.0
H2079 H 0.19604 0.60182 0.88344 0.0
C2080 C 0.28185 0.59468 0.98077 0.0
C2081 C 0.29945 0.61373 0.00212 0.0
C2082 C 0.29598 0.64654 0.00135 0.0
C2083 C 0.27468 0.66014 0.98048 0.0
C2084 C 0.25703 0.64065 0.96044 0.0
C2085 C 0.26074 0.60868 0.95998 0.0
C2086 C 0.23997 0.59324 0.93494 0.0
C2087 C 0.26034 0.57639 0.91054 0.0
C2088 C 0.21554 0.57082 0.94936 0.0
C2089 C 0.224 0.62159 0.92139 0.0
C2090 C 0.23392 0.64859 0.93683 0.0
C2091 C 0.2225 0.67773 0.92888 0.0
C2092 C 0.20084 0.67948 0.90407 0.0
C2093 C 0.19103 0.65232 0.88709 0.0
C2094 C 0.20274 0.62296 0.89609 0.0
H2095 H 0.04712 0.48092 0.62071 0.0
H2096 H 0.13769 0.4351 0.62929 0.0
H2097 H 0.15378 0.47216 0.67137 0.0
H2098 H 0.07691 0.55731 0.63292 0.0
H2099 H 0.04345 0.57119 0.65482 0.0
H2100 H 0.03801 0.53996 0.62669 0.0
H2101 H 0.01373 0.50478 0.66893 0.0
H2102 H 0.01878 0.536 0.69718 0.0
H2103 H 0.03556 0.49837 0.70439 0.0
H2104 H 0.16154 0.51622 0.70942 0.0
H2105 H 0.1591 0.56329 0.74342 0.0
H2106 H 0.06228 0.57866 0.71296 0.0
C2107 C 0.0697 0.47792 0.63252 0.0
C2108 C 0.09087 0.45449 0.62278 0.0
C2109 C 0.1208 0.45201 0.63759 0.0
C2110 C 0.13022 0.47322 0.66113 0.0
C2111 C 0.10895 0.49613 0.67024 0.0
C2112 C 0.07906 0.49833 0.65682 0.0
C2113 C 0.06139 0.52609 0.67002 0.0
C2114 C 0.05455 0.55004 0.6446 0.0
C2115 C 0.03057 0.51567 0.6861 0.0
C2116 C 0.08583 0.53871 0.69327 0.0
C2117 C 0.11333 0.52145 0.69254 0.0
C2118 C 0.13994 0.5296 0.71063 0.0
C2119 C 0.13822 0.55592 0.73028 0.0
C2120 C 0.1101 0.57349 0.73191 0.0
C2121 C 0.08371 0.56491 0.71292 0.0
H2122 H 0.17831 0.33571 0.50347 0.0
H2123 H 0.20478 0.43107 0.52944 0.0
H2124 H 0.25196 0.42776 0.49694 0.0
H2125 H 0.26068 0.3034 0.49973 0.0
H2126 H 0.25055 0.27998 0.466 0.0
H2127 H 0.22043 0.28933 0.4941 0.0
H2128 H 0.18646 0.31135 0.44873 0.0
H2129 H 0.2177 0.3032 0.42152 0.0
H2130 H 0.20275 0.34227 0.42546 0.0
H2131 H 0.29293 0.41737 0.45838 0.0
H2132 H 0.32864 0.39804 0.41735 0.0
H2133 H 0.2795 0.30822 0.41809 0.0
C2134 C 0.19483 0.35533 0.50345 0.0
C2135 C 0.18785 0.38352 0.5194 0.0
C2136 C 0.2096 0.40906 0.51782 0.0
C2137 C 0.23663 0.40751 0.49938 0.0
C2138 C 0.24244 0.37993 0.48333 0.0
C2139 C 0.22258 0.35403 0.48542 0.0
C2140 C 0.23374 0.32802 0.46391 0.0
C2141 C 0.24183 0.29849 0.48206 0.0
C2142 C 0.20868 0.3208 0.4384 0.0
C2143 C 0.26332 0.34327 0.45037 0.0
C2144 C 0.26746 0.37339 0.46158 0.0
C2145 C 0.29089 0.39342 0.45023 0.0
C2146 C 0.31098 0.38229 0.4269 0.0
C2147 C 0.30754 0.35139 0.41526 0.0
C2148 C 0.28352 0.33159 0.42739 0.0
H2149 H 0.46765 0.306 0.36453 0.0
H2150 H 0.47866 0.33687 0.45923 0.0
H2151 H 0.51989 0.2972 0.46708 0.0
H2152 H 0.45144 0.17301 0.3462 0.0
H2153 H 0.46217 0.18812 0.31263 0.0
H2154 H 0.43161 0.20421 0.32853 0.0
H2155 H 0.51337 0.2882 0.33754 0.0
H2156 H 0.54121 0.25743 0.33167 0.0
H2157 H 0.54512 0.28404 0.36304 0.0
H2158 H 0.56594 0.26339 0.46147 0.0
H2159 H 0.61115 0.23084 0.44409 0.0
H2160 H 0.56313 0.21353 0.35807 0.0
C2161 C 0.47541 0.30095 0.38782 0.0
C2162 C 0.46814 0.32254 0.41164 0.0
C2163 C 0.48314 0.31993 0.44087 0.0
C2164 C 0.50646 0.29739 0.4455 0.0
C2165 C 0.51223 0.27563 0.42173 0.0
C2166 C 0.49416 0.27437 0.39418 0.0
C2167 C 0.50476 0.24659 0.37105 0.0
C2168 C 0.45595 0.19705 0.33669 0.0
C2169 C 0.52705 0.26983 0.34959 0.0
C2170 C 0.53417 0.23616 0.39248 0.0
C2171 C 0.5372 0.25273 0.42038 0.0
C2172 C 0.56403 0.25008 0.43993 0.0
C2173 C 0.58973 0.23175 0.42999 0.0
C2174 C 0.58867 0.21765 0.40027 0.0
C2175 C 0.56132 0.22055 0.38191 0.0
loop_
_geom_bond_atom_site_label_1
_geom_bond_atom_site_label_2
_geom_bond_distance
_geom_bond_site_symmetry_2
_ccdc_geom_bond_type
Zn0 O3 2.031 . S
Zn0 O5 2.049 . S
Zn0 O10 2.067 . S
Zn1 O2 1.962 . S
Zn1 O4 1.986 . S
Zn1 O6 1.996 . S
Zn1 O9 1.943 . S
O2 Zn1 1.962 . S
O2 C7 1.254 . S
O3 Zn0 2.031 . S
O3 C7 1.269 . S
O4 Zn1 1.986 . S
O4 C11 1.262 . S
O5 Zn0 2.049 . S
O5 C13 1.260 . S
O6 Zn1 1.996 . S
O6 C13 1.257 . S
C7 O2 1.254 . S
C7 O3 1.269 . S
C8 O9 1.249 . S
C8 O10 1.270 . S
O9 Zn1 1.943 . S
O9 C8 1.249 . S
O10 Zn0 2.067 . S
O10 C8 1.270 . S
C11 O4 1.262 . S
C11 O12 1.232 . S
O12 C11 1.232 . S
C13 O5 1.260 . S
C13 O6 1.257 . S
Zn14 O17 2.031 . S
Zn14 O19 2.049 . S
Zn14 O24 2.067 . S
Zn15 O16 1.962 . S
Zn15 O18 1.986 . S
Zn15 O20 1.996 . S
Zn15 O23 1.943 . S
O16 Zn15 1.962 . S
O16 C21 1.254 . S
O17 Zn14 2.031 . S
O17 C21 1.269 . S
O18 Zn15 1.986 . S
O18 C25 1.262 . S
O19 Zn14 2.049 . S
O19 C27 1.260 . S
O20 Zn15 1.996 . S
O20 C27 1.257 . S
C21 O16 1.254 . S
C21 O17 1.269 . S
C22 O23 1.249 . S
C22 O24 1.270 . S
O23 Zn15 1.943 . S
O23 C22 1.249 . S
O24 Zn14 2.067 . S
O24 C22 1.270 . S
C25 O18 1.262 . S
C25 O26 1.232 . S
O26 C25 1.232 . S
C27 O19 1.260 . S
C27 O20 1.257 . S
Zn28 O31 2.031 . S
Zn28 O33 2.049 . S
Zn28 O38 2.067 . S
Zn29 O30 1.962 . S
Zn29 O32 1.986 . S
Zn29 O34 1.996 . S
Zn29 O37 1.943 . S
O30 Zn29 1.962 . S
O30 C35 1.254 . S
O31 Zn28 2.031 . S
O31 C35 1.269 . S
O32 Zn29 1.986 . S
O32 C39 1.262 . S
O33 Zn28 2.049 . S
O33 C41 1.260 . S
O34 Zn29 1.996 . S
O34 C41 1.257 . S
C35 O30 1.254 . S
C35 O31 1.269 . S
C36 O37 1.249 . S
C36 O38 1.270 . S
O37 Zn29 1.943 . S
O37 C36 1.249 . S
O38 Zn28 2.067 . S
O38 C36 1.270 . S
C39 O32 1.262 . S
C39 O40 1.232 . S
O40 C39 1.232 . S
C41 O33 1.260 . S
C41 O34 1.257 . S
Zn42 O45 2.031 . S
Zn42 O47 2.049 . S
Zn42 O52 2.067 . S
Zn43 O44 1.962 . S
Zn43 O46 1.986 . S
Zn43 O48 1.996 . S
Zn43 O51 1.943 . S
O44 Zn43 1.962 . S
O44 C49 1.254 . S
O45 Zn42 2.031 . S
O45 C49 1.269 . S
O46 Zn43 1.986 . S
O46 C53 1.262 . S
O47 Zn42 2.049 . S
O47 C55 1.260 . S
O48 Zn43 1.996 . S
O48 C55 1.257 . S
C49 O44 1.254 . S
C49 O45 1.269 . S
C50 O51 1.249 . S
C50 O52 1.270 . S
O51 Zn43 1.943 . S
O51 C50 1.249 . S
O52 Zn42 2.067 . S
O52 C50 1.270 . S
C53 O46 1.262 . S
C53 O54 1.232 . S
O54 C53 1.232 . S
C55 O47 1.260 . S
C55 O48 1.257 . S
Zn56 O59 2.031 . S
Zn56 O61 2.049 . S
Zn56 O66 2.067 . S
Zn57 O58 1.962 . S
Zn57 O60 1.986 . S
Zn57 O62 1.996 . S
Zn57 O65 1.943 . S
O58 Zn57 1.962 . S
O58 C63 1.254 . S
O59 Zn56 2.031 . S
O59 C63 1.269 . S
O60 Zn57 1.986 . S
O60 C67 1.262 . S
O61 Zn56 2.049 . S
O61 C69 1.260 . S
O62 Zn57 1.996 . S
O62 C69 1.257 . S
C63 O58 1.254 . S
C63 O59 1.269 . S
C64 O65 1.249 . S
C64 O66 1.270 . S
O65 Zn57 1.943 . S
O65 C64 1.249 . S
O66 Zn56 2.067 . S
O66 C64 1.270 . S
C67 O60 1.262 . S
C67 O68 1.232 . S
O68 C67 1.232 . S
C69 O61 1.260 . S
C69 O62 1.257 . S
Zn70 O73 2.031 . S
Zn70 O75 2.049 . S
Zn70 O80 2.067 . S
Zn71 O72 1.962 . S
Zn71 O74 1.986 . S
Zn71 O76 1.996 . S
Zn71 O79 1.943 . S
O72 Zn71 1.962 . S
O72 C77 1.254 . S
O73 Zn70 2.031 . S
O73 C77 1.269 . S
O74 Zn71 1.986 . S
O74 C81 1.262 . S
O75 Zn70 2.049 . S
O75 C83 1.260 . S
O76 Zn71 1.996 . S
O76 C83 1.257 . S
C77 O72 1.254 . S
C77 O73 1.269 . S
C78 O79 1.249 . S
C78 O80 1.270 . S
O79 Zn71 1.943 . S
O79 C78 1.249 . S
O80 Zn70 2.067 . S
O80 C78 1.270 . S
C81 O74 1.262 . S
C81 O82 1.232 . S
O82 C81 1.232 . S
C83 O75 1.260 . S
C83 O76 1.257 . S
Zn84 O87 2.031 . S
Zn84 O89 2.049 . S
Zn84 O94 2.067 . S
Zn85 O86 1.962 . S
Zn85 O88 1.986 . S
Zn85 O90 1.996 . S
Zn85 O93 1.943 . S
O86 Zn85 1.962 . S
O86 C91 1.254 . S
O87 Zn84 2.031 . S
O87 C91 1.269 . S
O88 Zn85 1.986 . S
O88 C95 1.262 . S
O89 Zn84 2.049 . S
O89 C97 1.260 . S
O90 Zn85 1.996 . S
O90 C97 1.257 . S
C91 O86 1.254 . S
C91 O87 1.269 . S
C92 O93 1.249 . S
C92 O94 1.270 . S
O93 Zn85 1.943 . S
O93 C92 1.249 . S
O94 Zn84 2.067 . S
O94 C92 1.270 . S
C95 O88 1.262 . S
C95 O96 1.232 . S
O96 C95 1.232 . S
C97 O89 1.260 . S
C97 O90 1.257 . S
Zn98 O101 2.031 . S
Zn98 O103 2.049 . S
Zn98 O108 2.067 . S
Zn99 O100 1.962 . S
Zn99 O102 1.986 . S
Zn99 O104 1.996 . S
Zn99 O107 1.943 . S
O100 Zn99 1.962 . S
O100 C105 1.254 . S
O101 Zn98 2.031 . S
O101 C105 1.269 . S
O102 Zn99 1.986 . S
O102 C109 1.262 . S
O103 Zn98 2.049 . S
O103 C111 1.260 . S
O104 Zn99 1.996 . S
O104 C111 1.257 . S
C105 O100 1.254 . S
C105 O101 1.269 . S
C106 O107 1.249 . S
C106 O108 1.270 . S
O107 Zn99 1.943 . S
O107 C106 1.249 . S
O108 Zn98 2.067 . S
O108 C106 1.270 . S
C109 O102 1.262 . S
C109 O110 1.232 . S
O110 C109 1.232 . S
C111 O103 1.260 . S
C111 O104 1.257 . S
Zn112 O115 2.031 . S
Zn112 O117 2.049 . S
Zn112 O122 2.067 . S
Zn113 O114 1.962 . S
Zn113 O116 1.986 . S
Zn113 O118 1.996 . S
Zn113 O121 1.943 . S
O114 Zn113 1.962 . S
O114 C119 1.254 . S
O115 Zn112 2.031 . S
O115 C119 1.269 . S
O116 Zn113 1.986 . S
O116 C123 1.262 . S
O117 Zn112 2.049 . S
O117 C125 1.260 . S
O118 Zn113 1.996 . S
O118 C125 1.257 . S
C119 O114 1.254 . S
C119 O115 1.269 . S
C120 O121 1.249 . S
C120 O122 1.270 . S
O121 Zn113 1.943 . S
O121 C120 1.249 . S
O122 Zn112 2.067 . S
O122 C120 1.270 . S
C123 O116 1.262 . S
C123 O124 1.232 . S
O124 C123 1.232 . S
C125 O117 1.260 . S
C125 O118 1.257 . S
Zn126 O129 2.031 . S
Zn126 O131 2.049 . S
Zn126 O136 2.067 . S
Zn127 O128 1.962 . S
Zn127 O130 1.986 . S
Zn127 O132 1.996 . S
Zn127 O135 1.943 . S
O128 Zn127 1.962 . S
O128 C133 1.254 . S
O129 Zn126 2.031 . S
O129 C133 1.269 . S
O130 Zn127 1.986 . S
O130 C137 1.262 . S
O131 Zn126 2.049 . S
O131 C139 1.260 . S
O132 Zn127 1.996 . S
O132 C139 1.257 . S
C133 O128 1.254 . S
C133 O129 1.269 . S
C134 O135 1.249 . S
C134 O136 1.270 . S
O135 Zn127 1.943 . S
O135 C134 1.249 . S
O136 Zn126 2.067 . S
O136 C134 1.270 . S
C137 O130 1.262 . S
C137 O138 1.232 . S
O138 C137 1.232 . S
C139 O131 1.260 . S
C139 O132 1.257 . S
Zn140 O143 2.031 . S
Zn140 O145 2.049 . S
Zn140 O150 2.067 . S
Zn141 O142 1.962 . S
Zn141 O144 1.986 . S
Zn141 O146 1.996 . S
Zn141 O149 1.943 . S
O142 Zn141 1.962 . S
O142 C147 1.254 . S
O143 Zn140 2.031 . S
O143 C147 1.269 . S
O144 Zn141 1.986 . S
O144 C151 1.262 . S
O145 Zn140 2.049 . S
O145 C153 1.260 . S
O146 Zn141 1.996 . S
O146 C153 1.257 . S
C147 O142 1.254 . S
C147 O143 1.269 . S
C148 O149 1.249 . S
C148 O150 1.270 . S
O149 Zn141 1.943 . S
O149 C148 1.249 . S
O150 Zn140 2.067 . S
O150 C148 1.270 . S
C151 O144 1.262 . S
C151 O152 1.232 . S
O152 C151 1.232 . S
C153 O145 1.260 . S
C153 O146 1.257 . S
Zn154 O157 2.031 . S
Zn154 O159 2.049 . S
Zn154 O164 2.067 . S
Zn155 O156 1.962 . S
Zn155 O158 1.986 . S
Zn155 O160 1.996 . S
Zn155 O163 1.943 . S
O156 Zn155 1.962 . S
O156 C161 1.254 . S
O157 Zn154 2.031 . S
O157 C161 1.269 . S
O158 Zn155 1.986 . S
O158 C165 1.262 . S
O159 Zn154 2.049 . S
O159 C167 1.260 . S
O160 Zn155 1.996 . S
O160 C167 1.257 . S
C161 O156 1.254 . S
C161 O157 1.269 . S
C162 O163 1.249 . S
C162 O164 1.270 . S
O163 Zn155 1.943 . S
O163 C162 1.249 . S
O164 Zn154 2.067 . S
O164 C162 1.270 . S
C165 O158 1.262 . S
C165 O166 1.232 . S
O166 C165 1.232 . S
C167 O159 1.260 . S
C167 O160 1.257 . S
Zn168 O171 2.031 . S
Zn168 O173 2.049 . S
Zn168 O178 2.067 . S
Zn169 O170 1.962 . S
Zn169 O172 1.986 . S
Zn169 O174 1.996 . S
Zn169 O177 1.943 . S
O170 Zn169 1.962 . S
O170 C175 1.254 . S
O171 Zn168 2.031 . S
O171 C175 1.269 . S
O172 Zn169 1.986 . S
O172 C179 1.262 . S
O173 Zn168 2.049 . S
O173 C181 1.260 . S
O174 Zn169 1.996 . S
O174 C181 1.257 . S
C175 O170 1.254 . S
C175 O171 1.269 . S
C176 O177 1.249 . S
C176 O178 1.270 . S
O177 Zn169 1.943 . S
O177 C176 1.249 . S
O178 Zn168 2.067 . S
O178 C176 1.270 . S
C179 O172 1.262 . S
C179 O180 1.232 . S
O180 C179 1.232 . S
C181 O173 1.260 . S
C181 O174 1.257 . S
Zn182 O185 2.031 . S
Zn182 O187 2.049 . S
Zn182 O192 2.067 . S
Zn183 O184 1.962 . S
Zn183 O186 1.986 . S
Zn183 O188 1.996 . S
Zn183 O191 1.943 . S
O184 Zn183 1.962 . S
O184 C189 1.254 . S
O185 Zn182 2.031 . S
O185 C189 1.269 . S
O186 Zn183 1.986 . S
O186 C193 1.262 . S
O187 Zn182 2.049 . S
O187 C195 1.260 . S
O188 Zn183 1.996 . S
O188 C195 1.257 . S
C189 O184 1.254 . S
C189 O185 1.269 . S
C190 O191 1.249 . S
C190 O192 1.270 . S
O191 Zn183 1.943 . S
O191 C190 1.249 . S
O192 Zn182 2.067 . S
O192 C190 1.270 . S
C193 O186 1.262 . S
C193 O194 1.232 . S
O194 C193 1.232 . S
C195 O187 1.260 . S
C195 O188 1.257 . S
Zn196 O199 2.031 . S
Zn196 O201 2.049 . S
Zn196 O206 2.067 . S
Zn197 O198 1.962 . S
Zn197 O200 1.986 . S
Zn197 O202 1.996 . S
Zn197 O205 1.943 . S
O198 Zn197 1.962 . S
O198 C203 1.254 . S
O199 Zn196 2.031 . S
O199 C203 1.269 . S
O200 Zn197 1.986 . S
O200 C207 1.262 . S
O201 Zn196 2.049 . S
O201 C209 1.260 . S
O202 Zn197 1.996 . S
O202 C209 1.257 . S
C203 O198 1.254 . S
C203 O199 1.269 . S
C204 O205 1.249 . S
C204 O206 1.270 . S
O205 Zn197 1.943 . S
O205 C204 1.249 . S
O206 Zn196 2.067 . S
O206 C204 1.270 . S
C207 O200 1.262 . S
C207 O208 1.232 . S
O208 C207 1.232 . S
C209 O201 1.260 . S
C209 O202 1.257 . S
Zn210 O213 2.031 . S
Zn210 O215 2.049 . S
Zn210 O220 2.067 . S
Zn211 O212 1.962 . S
Zn211 O214 1.986 . S
Zn211 O216 1.996 . S
Zn211 O219 1.943 . S
O212 Zn211 1.962 . S
O212 C217 1.254 . S
O213 Zn210 2.031 . S
O213 C217 1.269 . S
O214 Zn211 1.986 . S
O214 C221 1.262 . S
O215 Zn210 2.049 . S
O215 C223 1.260 . S
O216 Zn211 1.996 . S
O216 C223 1.257 . S
C217 O212 1.254 . S
C217 O213 1.269 . S
C218 O219 1.249 . S
C218 O220 1.270 . S
O219 Zn211 1.943 . S
O219 C218 1.249 . S
O220 Zn210 2.067 . S
O220 C218 1.270 . S
C221 O214 1.262 . S
C221 O222 1.232 . S
O222 C221 1.232 . S
C223 O215 1.260 . S
C223 O216 1.257 . S
Zn224 O227 2.031 . S
Zn224 O229 2.049 . S
Zn224 O234 2.067 . S
Zn225 O226 1.962 . S
Zn225 O228 1.986 . S
Zn225 O230 1.996 . S
Zn225 O233 1.943 . S
O226 Zn225 1.962 . S
O226 C231 1.254 . S
O227 Zn224 2.031 . S
O227 C231 1.269 . S
O228 Zn225 1.986 . S
O228 C235 1.262 . S
O229 Zn224 2.049 . S
O229 C237 1.260 . S
O230 Zn225 1.996 . S
O230 C237 1.257 . S
C231 O226 1.254 . S
C231 O227 1.269 . S
C232 O233 1.249 . S
C232 O234 1.270 . S
O233 Zn225 1.943 . S
O233 C232 1.249 . S
O234 Zn224 2.067 . S
O234 C232 1.270 . S
C235 O228 1.262 . S
C235 O236 1.232 . S
O236 C235 1.232 . S
C237 O229 1.260 . S
C237 O230 1.257 . S
Zn238 O241 2.031 . S
Zn238 O243 2.049 . S
Zn238 O248 2.067 . S
Zn239 O240 1.962 . S
Zn239 O242 1.986 . S
Zn239 O244 1.996 . S
Zn239 O247 1.943 . S
O240 Zn239 1.962 . S
O240 C245 1.254 . S
O241 Zn238 2.031 . S
O241 C245 1.269 . S
O242 Zn239 1.986 . S
O242 C249 1.262 . S
O243 Zn238 2.049 . S
O243 C251 1.260 . S
O244 Zn239 1.996 . S
O244 C251 1.257 . S
C245 O240 1.254 . S
C245 O241 1.269 . S
C246 O247 1.249 . S
C246 O248 1.270 . S
O247 Zn239 1.943 . S
O247 C246 1.249 . S
O248 Zn238 2.067 . S
O248 C246 1.270 . S
C249 O242 1.262 . S
C249 O250 1.232 . S
O250 C249 1.232 . S
C251 O243 1.260 . S
C251 O244 1.257 . S
Zn252 O255 2.031 . S
Zn252 O257 2.049 . S
Zn252 O262 2.067 . S
Zn253 O254 1.962 . S
Zn253 O256 1.986 . S
Zn253 O258 1.996 . S
Zn253 O261 1.943 . S
O254 Zn253 1.962 . S
O254 C259 1.254 . S
O255 Zn252 2.031 . S
O255 C259 1.269 . S
O256 Zn253 1.986 . S
O256 C263 1.262 . S
O257 Zn252 2.049 . S
O257 C265 1.260 . S
O258 Zn253 1.996 . S
O258 C265 1.257 . S
C259 O254 1.254 . S
C259 O255 1.269 . S
C260 O261 1.249 . S
C260 O262 1.270 . S
O261 Zn253 1.943 . S
O261 C260 1.249 . S
O262 Zn252 2.067 . S
O262 C260 1.270 . S
C263 O256 1.262 . S
C263 O264 1.232 . S
O264 C263 1.232 . S
C265 O257 1.260 . S
C265 O258 1.257 . S
Zn266 O269 2.031 . S
Zn266 O271 2.049 . S
Zn266 O276 2.067 . S
Zn267 O268 1.962 . S
Zn267 O270 1.986 . S
Zn267 O272 1.996 . S
Zn267 O275 1.943 . S
O268 Zn267 1.962 . S
O268 C273 1.254 . S
O269 Zn266 2.031 . S
O269 C273 1.269 . S
O270 Zn267 1.986 . S
O270 C277 1.262 . S
O271 Zn266 2.049 . S
O271 C279 1.260 . S
O272 Zn267 1.996 . S
O272 C279 1.257 . S
C273 O268 1.254 . S
C273 O269 1.269 . S
C274 O275 1.249 . S
C274 O276 1.270 . S
O275 Zn267 1.943 . S
O275 C274 1.249 . S
O276 Zn266 2.067 . S
O276 C274 1.270 . S
C277 O270 1.262 . S
C277 O278 1.232 . S
O278 C277 1.232 . S
C279 O271 1.260 . S
C279 O272 1.257 . S
Zn280 O283 2.031 . S
Zn280 O285 2.049 . S
Zn280 O290 2.067 . S
Zn281 O282 1.962 . S
Zn281 O284 1.986 . S
Zn281 O286 1.996 . S
Zn281 O289 1.943 . S
O282 Zn281 1.962 . S
O282 C287 1.254 . S
O283 Zn280 2.031 . S
O283 C287 1.269 . S
O284 Zn281 1.986 . S
O284 C291 1.262 . S
O285 Zn280 2.049 . S
O285 C293 1.260 . S
O286 Zn281 1.996 . S
O286 C293 1.257 . S
C287 O282 1.254 . S
C287 O283 1.269 . S
C288 O289 1.249 . S
C288 O290 1.270 . S
O289 Zn281 1.943 . S
O289 C288 1.249 . S
O290 Zn280 2.067 . S
O290 C288 1.270 . S
C291 O284 1.262 . S
C291 O292 1.232 . S
O292 C291 1.232 . S
C293 O285 1.260 . S
C293 O286 1.257 . S
Zn294 O297 2.031 . S
Zn294 O299 2.049 . S
Zn294 O304 2.067 . S
Zn295 O296 1.962 . S
Zn295 O298 1.986 . S
Zn295 O300 1.996 . S
Zn295 O303 1.943 . S
O296 Zn295 1.962 . S
O296 C301 1.254 . S
O297 Zn294 2.031 . S
O297 C301 1.269 . S
O298 Zn295 1.986 . S
O298 C305 1.262 . S
O299 Zn294 2.049 . S
O299 C307 1.260 . S
O300 Zn295 1.996 . S
O300 C307 1.257 . S
C301 O296 1.254 . S
C301 O297 1.269 . S
C302 O303 1.249 . S
C302 O304 1.270 . S
O303 Zn295 1.943 . S
O303 C302 1.249 . S
O304 Zn294 2.067 . S
O304 C302 1.270 . S
C305 O298 1.262 . S
C305 O306 1.232 . S
O306 C305 1.232 . S
C307 O299 1.260 . S
C307 O300 1.257 . S
Zn308 O311 2.031 . S
Zn308 O313 2.049 . S
Zn308 O318 2.067 . S
Zn309 O310 1.962 . S
Zn309 O312 1.986 . S
Zn309 O314 1.996 . S
Zn309 O317 1.943 . S
O310 Zn309 1.962 . S
O310 C315 1.254 . S
O311 Zn308 2.031 . S
O311 C315 1.269 . S
O312 Zn309 1.986 . S
O312 C319 1.262 . S
O313 Zn308 2.049 . S
O313 C321 1.260 . S
O314 Zn309 1.996 . S
O314 C321 1.257 . S
C315 O310 1.254 . S
C315 O311 1.269 . S
C316 O317 1.249 . S
C316 O318 1.270 . S
O317 Zn309 1.943 . S
O317 C316 1.249 . S
O318 Zn308 2.067 . S
O318 C316 1.270 . S
C319 O312 1.262 . S
C319 O320 1.232 . S
O320 C319 1.232 . S
C321 O313 1.260 . S
C321 O314 1.257 . S
Zn322 O325 2.031 . S
Zn322 O327 2.049 . S
Zn322 O332 2.067 . S
Zn323 O324 1.962 . S
Zn323 O326 1.986 . S
Zn323 O328 1.996 . S
Zn323 O331 1.943 . S
O324 Zn323 1.962 . S
O324 C329 1.254 . S
O325 Zn322 2.031 . S
O325 C329 1.269 . S
O326 Zn323 1.986 . S
O326 C333 1.262 . S
O327 Zn322 2.049 . S
O327 C335 1.260 . S
O328 Zn323 1.996 . S
O328 C335 1.257 . S
C329 O324 1.254 . S
C329 O325 1.269 . S
C330 O331 1.249 . S
C330 O332 1.270 . S
O331 Zn323 1.943 . S
O331 C330 1.249 . S
O332 Zn322 2.067 . S
O332 C330 1.270 . S
C333 O326 1.262 . S
C333 O334 1.232 . S
O334 C333 1.232 . S
C335 O327 1.260 . S
C335 O328 1.257 . S
Zn336 O339 2.031 . S
Zn336 O341 2.049 . S
Zn336 O346 2.067 . S
Zn337 O338 1.962 . S
Zn337 O340 1.986 . S
Zn337 O342 1.996 . S
Zn337 O345 1.943 . S
O338 Zn337 1.962 . S
O338 C343 1.254 . S
O339 Zn336 2.031 . S
O339 C343 1.269 . S
O340 Zn337 1.986 . S
O340 C347 1.262 . S
O341 Zn336 2.049 . S
O341 C349 1.260 . S
O342 Zn337 1.996 . S
O342 C349 1.257 . S
C343 O338 1.254 . S
C343 O339 1.269 . S
C344 O345 1.249 . S
C344 O346 1.270 . S
O345 Zn337 1.943 . S
O345 C344 1.249 . S
O346 Zn336 2.067 . S
O346 C344 1.270 . S
C347 O340 1.262 . S
C347 O348 1.232 . S
O348 C347 1.232 . S
C349 O341 1.260 . S
C349 O342 1.257 . S
Zn350 O353 2.031 . S
Zn350 O355 2.049 . S
Zn350 O360 2.067 . S
Zn351 O352 1.962 . S
Zn351 O354 1.986 . S
Zn351 O356 1.996 . S
Zn351 O359 1.943 . S
O352 Zn351 1.962 . S
O352 C357 1.254 . S
O353 Zn350 2.031 . S
O353 C357 1.269 . S
O354 Zn351 1.986 . S
O354 C361 1.262 . S
O355 Zn350 2.049 . S
O355 C363 1.260 . S
O356 Zn351 1.996 . S
O356 C363 1.257 . S
C357 O352 1.254 . S
C357 O353 1.269 . S
C358 O359 1.249 . S
C358 O360 1.270 . S
O359 Zn351 1.943 . S
O359 C358 1.249 . S
O360 Zn350 2.067 . S
O360 C358 1.270 . S
C361 O354 1.262 . S
C361 O362 1.232 . S
O362 C361 1.232 . S
C363 O355 1.260 . S
C363 O356 1.257 . S
Zn364 O367 2.031 . S
Zn364 O369 2.049 . S
Zn364 O374 2.067 . S
Zn365 O366 1.962 . S
Zn365 O368 1.986 . S
Zn365 O370 1.996 . S
Zn365 O373 1.943 . S
O366 Zn365 1.962 . S
O366 C371 1.254 . S
O367 Zn364 2.031 . S
O367 C371 1.269 . S
O368 Zn365 1.986 . S
O368 C375 1.262 . S
O369 Zn364 2.049 . S
O369 C377 1.260 . S
O370 Zn365 1.996 . S
O370 C377 1.257 . S
C371 O366 1.254 . S
C371 O367 1.269 . S
C372 O373 1.249 . S
C372 O374 1.270 . S
O373 Zn365 1.943 . S
O373 C372 1.249 . S
O374 Zn364 2.067 . S
O374 C372 1.270 . S
C375 O368 1.262 . S
C375 O376 1.232 . S
O376 C375 1.232 . S
C377 O369 1.260 . S
C377 O370 1.257 . S
Zn378 O381 2.031 . S
Zn378 O383 2.049 . S
Zn378 O388 2.067 . S
Zn379 O380 1.962 . S
Zn379 O382 1.986 . S
Zn379 O384 1.996 . S
Zn379 O387 1.943 . S
O380 Zn379 1.962 . S
O380 C385 1.254 . S
O381 Zn378 2.031 . S
O381 C385 1.269 . S
O382 Zn379 1.986 . S
O382 C389 1.262 . S
O383 Zn378 2.049 . S
O383 C391 1.260 . S
O384 Zn379 1.996 . S
O384 C391 1.257 . S
C385 O380 1.254 . S
C385 O381 1.269 . S
C386 O387 1.249 . S
C386 O388 1.270 . S
O387 Zn379 1.943 . S
O387 C386 1.249 . S
O388 Zn378 2.067 . S
O388 C386 1.270 . S
C389 O382 1.262 . S
C389 O390 1.232 . S
O390 C389 1.232 . S
C391 O383 1.260 . S
C391 O384 1.257 . S
Zn392 O395 2.031 . S
Zn392 O397 2.049 . S
Zn392 O402 2.067 . S
Zn393 O394 1.962 . S
Zn393 O396 1.986 . S
Zn393 O398 1.996 . S
Zn393 O401 1.943 . S
O394 Zn393 1.962 . S
O394 C399 1.254 . S
O395 Zn392 2.031 . S
O395 C399 1.269 . S
O396 Zn393 1.986 . S
O396 C403 1.262 . S
O397 Zn392 2.049 . S
O397 C405 1.260 . S
O398 Zn393 1.996 . S
O398 C405 1.257 . S
C399 O394 1.254 . S
C399 O395 1.269 . S
C400 O401 1.249 . S
C400 O402 1.270 . S
O401 Zn393 1.943 . S
O401 C400 1.249 . S
O402 Zn392 2.067 . S
O402 C400 1.270 . S
C403 O396 1.262 . S
C403 O404 1.232 . S
O404 C403 1.232 . S
C405 O397 1.260 . S
C405 O398 1.257 . S
Zn406 O409 2.031 . S
Zn406 O411 2.049 . S
Zn406 O416 2.067 . S
Zn407 O408 1.962 . S
Zn407 O410 1.986 . S
Zn407 O412 1.996 . S
Zn407 O415 1.943 . S
O408 Zn407 1.962 . S
O408 C413 1.254 . S
O409 Zn406 2.031 . S
O409 C413 1.269 . S
O410 Zn407 1.986 . S
O410 C417 1.262 . S
O411 Zn406 2.049 . S
O411 C419 1.260 . S
O412 Zn407 1.996 . S
O412 C419 1.257 . S
C413 O408 1.254 . S
C413 O409 1.269 . S
C414 O415 1.249 . S
C414 O416 1.270 . S
O415 Zn407 1.943 . S
O415 C414 1.249 . S
O416 Zn406 2.067 . S
O416 C414 1.270 . S
C417 O410 1.262 . S
C417 O418 1.232 . S
O418 C417 1.232 . S
C419 O411 1.260 . S
C419 O412 1.257 . S
Zn420 O423 2.031 . S
Zn420 O425 2.049 . S
Zn420 O430 2.067 . S
Zn421 O422 1.962 . S
Zn421 O424 1.986 . S
Zn421 O426 1.996 . S
Zn421 O429 1.943 . S
O422 Zn421 1.962 . S
O422 C427 1.254 . S
O423 Zn420 2.031 . S
O423 C427 1.269 . S
O424 Zn421 1.986 . S
O424 C431 1.262 . S
O425 Zn420 2.049 . S
O425 C433 1.260 . S
O426 Zn421 1.996 . S
O426 C433 1.257 . S
C427 O422 1.254 . S
C427 O423 1.269 . S
C428 O429 1.249 . S
C428 O430 1.270 . S
O429 Zn421 1.943 . S
O429 C428 1.249 . S
O430 Zn420 2.067 . S
O430 C428 1.270 . S
C431 O424 1.262 . S
C431 O432 1.232 . S
O432 C431 1.232 . S
C433 O425 1.260 . S
C433 O426 1.257 . S
Zn434 O437 2.031 . S
Zn434 O439 2.049 . S
Zn434 O444 2.067 . S
Zn435 O436 1.962 . S
Zn435 O438 1.986 . S
Zn435 O440 1.996 . S
Zn435 O443 1.943 . S
O436 Zn435 1.962 . S
O436 C441 1.254 . S
O437 Zn434 2.031 . S
O437 C441 1.269 . S
O438 Zn435 1.986 . S
O438 C445 1.262 . S
O439 Zn434 2.049 . S
O439 C447 1.260 . S
O440 Zn435 1.996 . S
O440 C447 1.257 . S
C441 O436 1.254 . S
C441 O437 1.269 . S
C442 O443 1.249 . S
C442 O444 1.270 . S
O443 Zn435 1.943 . S
O443 C442 1.249 . S
O444 Zn434 2.067 . S
O444 C442 1.270 . S
C445 O438 1.262 . S
C445 O446 1.232 . S
O446 C445 1.232 . S
C447 O439 1.260 . S
C447 O440 1.257 . S
H448 C460 0.930 . S
H449 C462 0.930 . S
H450 C463 0.930 . S
H451 C467 0.959 . S
H452 C467 0.959 . S
H453 C467 0.961 . S
H454 C468 0.960 . S
H455 C468 0.961 . S
H456 C468 0.959 . S
H457 C471 0.929 . S
H458 C472 0.931 . S
H459 C474 0.933 . S
C460 H448 0.930 . S
C460 C461 1.399 . S
C460 C465 1.399 1_455 S
C461 C460 1.399 . S
C461 C462 1.376 . S
C462 H449 0.930 . S
C462 C461 1.376 . S
C462 C463 1.388 1_554 S
C463 H450 0.930 . S
C463 C462 1.388 1_556 S
C463 C464 1.392 1_556 S
C464 C463 1.392 1_554 S
C464 C465 1.393 1_455 S
C464 C470 1.464 1_454 S
C465 C460 1.399 1_655 S
C465 C464 1.393 1_655 S
C465 C466 1.510 1_545 S
C466 C465 1.510 1_565 S
C466 C467 1.510 . S
C466 C468 1.556 1_565 S
C466 C469 1.528 . S
C467 H451 0.959 . S
C467 H452 0.959 . S
C467 H453 0.961 . S
C467 C466 1.510 . S
C468 H454 0.960 . S
C468 H455 0.961 . S
C468 H456 0.959 . S
C468 C466 1.556 1_545 S
C469 C466 1.528 . S
C469 C470 1.396 1_564 S
C469 C474 1.390 1_554 S
C470 C464 1.464 1_656 S
C470 C469 1.396 1_546 S
C470 C471 1.399 . S
C471 H457 0.929 . S
C471 C470 1.399 . S
C471 C472 1.385 1_545 S
C472 H458 0.931 . S
C472 C471 1.385 1_565 S
C472 C473 1.389 . S
C473 C472 1.389 . S
C473 C474 1.387 . S
C474 H459 0.933 . S
C474 C469 1.390 1_556 S
C474 C473 1.387 . S
H475 C487 0.930 . S
H476 C489 0.930 . S
H477 C490 0.930 . S
H478 C494 0.959 . S
H479 C494 0.959 . S
H480 C494 0.961 . S
H481 C495 0.960 . S
H482 C495 0.961 . S
H483 C495 0.959 . S
H484 C498 0.929 . S
H485 C499 0.931 . S
H486 C501 0.930 . S
C487 H475 0.930 . S
C487 C488 1.399 . S
C487 C492 1.399 . S
C488 C487 1.399 . S
C488 C489 1.376 . S
C489 H476 0.930 . S
C489 C488 1.376 . S
C489 C490 1.388 . S
C490 H477 0.930 . S
C490 C489 1.388 . S
C490 C491 1.390 . S
C491 C490 1.390 . S
C491 C492 1.394 . S
C491 C497 1.465 . S
C492 C487 1.399 . S
C492 C491 1.394 . S
C492 C493 1.516 . S
C493 C492 1.516 . S
C493 C494 1.502 . S
C493 C495 1.561 . S
C493 C496 1.526 . S
C494 H478 0.959 . S
C494 H479 0.959 . S
C494 H480 0.961 . S
C494 C493 1.502 . S
C495 H481 0.960 . S
C495 H482 0.961 . S
C495 H483 0.959 . S
C495 C493 1.561 . S
C496 C493 1.526 . S
C496 C497 1.396 . S
C496 C501 1.390 . S
C497 C491 1.465 . S
C497 C496 1.396 . S
C497 C498 1.399 . S
C498 H484 0.929 . S
C498 C497 1.399 . S
C498 C499 1.385 . S
C499 H485 0.931 . S
C499 C498 1.385 . S
C499 C500 1.389 . S
C500 C499 1.389 . S
C500 C501 1.387 . S
C501 H486 0.930 . S
C501 C496 1.390 . S
C501 C500 1.387 . S
H502 C514 0.930 . S
H503 C516 0.930 . S
H504 C517 0.930 . S
H505 C521 0.959 . S
H506 C521 0.959 . S
H507 C521 0.961 . S
H508 C522 0.960 . S
H509 C522 0.961 . S
H510 C522 0.959 . S
H511 C525 0.929 . S
H512 C526 0.931 . S
H513 C528 0.930 . S
C514 H502 0.930 . S
C514 C515 1.399 . S
C514 C519 1.399 . S
C515 C514 1.399 . S
C515 C516 1.376 . S
C516 H503 0.930 . S
C516 C515 1.376 . S
C516 C517 1.388 . S
C517 H504 0.930 . S
C517 C516 1.388 . S
C517 C518 1.390 . S
C518 C517 1.390 . S
C518 C519 1.394 . S
C518 C524 1.465 1_565 S
C519 C514 1.399 . S
C519 C518 1.394 . S
C519 C520 1.516 . S
C520 C519 1.516 . S
C520 C521 1.502 . S
C520 C522 1.561 1_565 S
C520 C523 1.526 1_565 S
C521 H505 0.959 . S
C521 H506 0.959 . S
C521 H507 0.961 . S
C521 C520 1.502 . S
C522 H508 0.960 . S
C522 H509 0.961 . S
C522 H510 0.959 . S
C522 C520 1.561 1_545 S
C523 C520 1.526 1_545 S
C523 C524 1.396 . S
C523 C528 1.390 . S
C524 C518 1.465 1_545 S
C524 C523 1.396 . S
C524 C525 1.399 . S
C525 H511 0.929 . S
C525 C524 1.399 . S
C525 C526 1.385 . S
C526 H512 0.931 . S
C526 C525 1.385 . S
C526 C527 1.389 . S
C527 C526 1.389 . S
C527 C528 1.387 . S
C528 H513 0.930 . S
C528 C523 1.390 . S
C528 C527 1.387 . S
H529 C541 0.930 . S
H530 C543 0.930 . S
H531 C544 0.930 . S
H532 C548 0.959 . S
H533 C548 0.959 . S
H534 C548 0.961 . S
H535 C549 0.960 . S
H536 C549 0.961 . S
H537 C549 0.959 . S
H538 C552 0.929 . S
H539 C553 0.931 . S
H540 C555 0.930 . S
C541 H529 0.930 . S
C541 C542 1.399 . S
C541 C546 1.399 . S
C542 C541 1.399 . S
C542 C543 1.376 . S
C543 H530 0.930 . S
C543 C542 1.376 . S
C543 C544 1.388 . S
C544 H531 0.930 . S
C544 C543 1.388 . S
C544 C545 1.390 . S
C545 C544 1.390 . S
C545 C546 1.394 . S
C545 C551 1.465 . S
C546 C541 1.399 . S
C546 C545 1.394 . S
C546 C547 1.516 . S
C547 C546 1.516 . S
C547 C548 1.502 . S
C547 C549 1.561 . S
C547 C550 1.526 . S
C548 H532 0.959 . S
C548 H533 0.959 . S
C548 H534 0.961 . S
C548 C547 1.502 . S
C549 H535 0.960 . S
C549 H536 0.961 . S
C549 H537 0.959 . S
C549 C547 1.561 . S
C550 C547 1.526 . S
C550 C551 1.396 . S
C550 C555 1.390 . S
C551 C545 1.465 . S
C551 C550 1.396 . S
C551 C552 1.399 . S
C552 H538 0.929 . S
C552 C551 1.399 . S
C552 C553 1.385 . S
C553 H539 0.931 . S
C553 C552 1.385 . S
C553 C554 1.389 . S
C554 C553 1.389 . S
C554 C555 1.387 . S
C555 H540 0.930 . S
C555 C550 1.390 . S
C555 C554 1.387 . S
H556 C568 0.930 . S
H557 C570 0.930 . S
H558 C571 0.930 . S
H559 C575 0.959 . S
H560 C575 0.959 . S
H561 C575 0.961 . S
H562 C576 0.960 . S
H563 C576 0.961 . S
H564 C576 0.969 . S
H565 C579 0.929 . S
H566 C580 0.931 . S
H567 C582 0.930 1_565 S
C568 H556 0.930 . S
C568 C569 1.399 . S
C568 C573 1.399 . S
C569 C568 1.399 . S
C569 C570 1.376 . S
C570 H557 0.930 . S
C570 C569 1.376 . S
C570 C571 1.388 1_565 S
C571 H558 0.930 . S
C571 C570 1.388 1_545 S
C571 C572 1.390 1_545 S
C572 C571 1.390 1_565 S
C572 C573 1.394 . S
C572 C578 1.465 1_565 S
C573 C568 1.399 . S
C573 C572 1.394 . S
C573 C574 1.516 1_455 S
C574 C573 1.516 1_655 S
C574 C575 1.502 . S
C574 C576 1.561 . S
C574 C577 1.526 . S
C575 H559 0.959 . S
C575 H560 0.959 . S
C575 H561 0.961 . S
C575 C574 1.502 . S
C576 H562 0.960 . S
C576 H563 0.961 . S
C576 H564 0.969 . S
C576 C574 1.561 . S
C577 C574 1.526 . S
C577 C578 1.396 1_665 S
C577 C582 1.390 1_565 S
C578 C572 1.465 1_545 S
C578 C577 1.396 1_445 S
C578 C579 1.399 . S
C579 H565 0.929 . S
C579 C578 1.399 . S
C579 C580 1.385 1_455 S
C580 H566 0.931 . S
C580 C579 1.385 1_655 S
C580 C581 1.389 . S
C581 C580 1.389 . S
C581 C582 1.387 . S
C582 H567 0.930 1_545 S
C582 C577 1.390 1_545 S
C582 C581 1.387 . S
H583 C595 0.930 . S
H584 C597 0.930 . S
H585 C598 0.930 . S
H586 C602 0.959 . S
H587 C602 0.959 . S
H588 C602 0.961 . S
H589 C603 0.960 . S
H590 C603 0.961 . S
H591 C603 0.959 . S
H592 C606 0.929 . S
H593 C607 0.931 . S
H594 C609 0.930 . S
C595 H583 0.930 . S
C595 C596 1.399 . S
C595 C600 1.399 . S
C596 C595 1.399 . S
C596 C597 1.376 . S
C597 H584 0.930 . S
C597 C596 1.376 . S
C597 C598 1.388 . S
C598 H585 0.930 . S
C598 C597 1.388 . S
C598 C599 1.390 . S
C599 C598 1.390 . S
C599 C600 1.394 . S
C599 C605 1.465 . S
C600 C595 1.399 . S
C600 C599 1.394 . S
C600 C601 1.516 . S
C601 C600 1.516 . S
C601 C602 1.502 . S
C601 C603 1.561 . S
C601 C604 1.526 . S
C602 H586 0.959 . S
C602 H587 0.959 . S
C602 H588 0.961 . S
C602 C601 1.502 . S
C603 H589 0.960 . S
C603 H590 0.961 . S
C603 H591 0.959 . S
C603 C601 1.561 . S
C604 C601 1.526 . S
C604 C605 1.396 . S
C604 C609 1.390 . S
C605 C599 1.465 . S
C605 C604 1.396 . S
C605 C606 1.399 . S
C606 H592 0.929 . S
C606 C605 1.399 . S
C606 C607 1.385 . S
C607 H593 0.931 . S
C607 C606 1.385 . S
C607 C608 1.389 . S
C608 C607 1.389 . S
C608 C609 1.387 . S
C609 H594 0.930 . S
C609 C604 1.390 . S
C609 C608 1.387 . S
H610 C622 0.930 1_565 S
H611 C624 0.930 . S
H612 C625 0.930 . S
H613 C629 0.959 1_554 S
H614 C629 0.959 . S
H615 C629 0.961 . S
H616 C630 0.960 . S
H617 C630 0.961 . S
H618 C630 0.959 . S
H619 C633 0.929 . S
H620 C634 0.931 . S
H621 C636 0.930 . S
C622 H610 0.930 1_545 S
C622 C623 1.399 . S
C622 C627 1.399 1_545 S
C623 C622 1.399 . S
C623 C624 1.376 . S
C624 H611 0.930 . S
C624 C623 1.376 . S
C624 C625 1.388 . S
C625 H612 0.930 . S
C625 C624 1.388 . S
C625 C626 1.390 . S
C626 C625 1.390 . S
C626 C627 1.394 1_545 S
C626 C632 1.465 1_556 S
C627 C622 1.399 1_565 S
C627 C626 1.394 1_565 S
C627 C628 1.516 . S
C628 C627 1.516 . S
C628 C629 1.502 . S
C628 C630 1.561 . S
C628 C631 1.526 1_556 S
C629 H613 0.959 1_556 S
C629 H614 0.959 . S
C629 H615 0.961 . S
C629 C628 1.502 . S
C630 H616 0.960 . S
C630 H617 0.961 . S
C630 H618 0.959 . S
C630 C628 1.561 . S
C631 C628 1.526 1_554 S
C631 C632 1.396 1_565 S
C631 C636 1.390 . S
C632 C626 1.465 1_554 S
C632 C631 1.396 1_545 S
C632 C633 1.399 . S
C633 H619 0.929 . S
C633 C632 1.399 . S
C633 C634 1.385 1_545 S
C634 H620 0.931 . S
C634 C633 1.385 1_565 S
C634 C635 1.389 . S
C635 C634 1.389 . S
C635 C636 1.387 . S
C636 H621 0.930 . S
C636 C631 1.390 . S
C636 C635 1.387 . S
H637 C649 0.930 . S
H638 C651 0.930 . S
H639 C652 0.930 . S
H640 C656 0.959 . S
H641 C656 0.959 . S
H642 C656 0.961 . S
H643 C657 0.960 . S
H644 C657 0.961 . S
H645 C657 0.959 . S
H646 C660 0.929 . S
H647 C661 0.931 . S
H648 C663 0.930 . S
C649 H637 0.930 . S
C649 C650 1.399 . S
C649 C654 1.399 . S
C650 C649 1.399 . S
C650 C651 1.376 . S
C651 H638 0.930 . S
C651 C650 1.376 . S
C651 C652 1.388 . S
C652 H639 0.930 . S
C652 C651 1.388 . S
C652 C653 1.390 . S
C653 C652 1.390 . S
C653 C654 1.394 . S
C653 C659 1.465 . S
C654 C649 1.399 . S
C654 C653 1.394 . S
C654 C655 1.516 . S
C655 C654 1.516 . S
C655 C656 1.502 . S
C655 C657 1.561 . S
C655 C658 1.526 . S
C656 H640 0.959 . S
C656 H641 0.959 . S
C656 H642 0.961 . S
C656 C655 1.502 . S
C657 H643 0.960 . S
C657 H644 0.961 . S
C657 H645 0.959 . S
C657 C655 1.561 . S
C658 C655 1.526 . S
C658 C659 1.396 . S
C658 C663 1.390 . S
C659 C653 1.465 . S
C659 C658 1.396 . S
C659 C660 1.399 . S
C660 H646 0.929 . S
C660 C659 1.399 . S
C660 C661 1.385 . S
C661 H647 0.931 . S
C661 C660 1.385 . S
C661 C662 1.389 . S
C662 C661 1.389 . S
C662 C663 1.387 . S
C663 H648 0.930 . S
C663 C658 1.390 . S
C663 C662 1.387 . S
H664 C676 0.930 . S
H665 C678 0.930 . S
H666 C679 0.930 . S
H667 C683 0.959 . S
H668 C683 0.959 . S
H669 C683 0.961 . S
H670 C684 0.960 . S
H671 C684 0.961 . S
H672 C684 0.959 . S
H673 C687 0.929 . S
H674 C688 0.931 . S
H675 C690 0.930 . S
C676 H664 0.930 . S
C676 C677 1.399 . S
C676 C681 1.399 . S
C677 C676 1.399 . S
C677 C678 1.376 . S
C678 H665 0.930 . S
C678 C677 1.376 . S
C678 C679 1.388 . S
C679 H666 0.930 . S
C679 C678 1.388 . S
C679 C680 1.390 . S
C680 C679 1.390 . S
C680 C681 1.394 . S
C680 C686 1.465 . S
C681 C676 1.399 . S
C681 C680 1.394 . S
C681 C682 1.516 1_554 S
C682 C681 1.516 1_556 S
C682 C683 1.502 . S
C682 C684 1.561 . S
C682 C685 1.526 . S
C683 H667 0.959 . S
C683 H668 0.959 . S
C683 H669 0.961 . S
C683 C682 1.502 . S
C684 H670 0.960 . S
C684 H671 0.961 . S
C684 H672 0.959 . S
C684 C682 1.561 . S
C685 C682 1.526 . S
C685 C686 1.396 1_556 S
C685 C690 1.390 . S
C686 C680 1.465 . S
C686 C685 1.396 1_554 S
C686 C687 1.399 . S
C687 H673 0.929 . S
C687 C686 1.399 . S
C687 C688 1.385 1_554 S
C688 H674 0.931 . S
C688 C687 1.385 1_556 S
C688 C689 1.389 . S
C689 C688 1.389 . S
C689 C690 1.387 . S
C690 H675 0.930 . S
C690 C685 1.390 . S
C690 C689 1.387 . S
H691 C703 0.930 . S
H692 C705 0.930 . S
H693 C706 0.930 . S
H694 C710 0.959 . S
H695 C710 0.959 . S
H696 C710 0.961 . S
H697 C711 0.960 . S
H698 C711 0.961 . S
H699 C711 0.959 . S
H700 C714 0.929 . S
H701 C715 0.931 . S
H702 C717 0.930 . S
C703 H691 0.930 . S
C703 C704 1.399 . S
C703 C708 1.399 . S
C704 C703 1.399 . S
C704 C705 1.376 . S
C705 H692 0.930 . S
C705 C704 1.376 . S
C705 C706 1.388 . S
C706 H693 0.930 . S
C706 C705 1.388 . S
C706 C707 1.390 . S
C707 C706 1.390 . S
C707 C708 1.394 . S
C707 C713 1.465 . S
C708 C703 1.399 . S
C708 C707 1.394 . S
C708 C709 1.516 . S
C709 C708 1.516 . S
C709 C710 1.502 . S
C709 C711 1.561 . S
C709 C712 1.526 . S
C710 H694 0.959 . S
C710 H695 0.959 . S
C710 H696 0.961 . S
C710 C709 1.502 . S
C711 H697 0.960 . S
C711 H698 0.961 . S
C711 H699 0.959 . S
C711 C709 1.561 . S
C712 C709 1.526 . S
C712 C713 1.396 . S
C712 C717 1.390 . S
C713 C707 1.465 . S
C713 C712 1.396 . S
C713 C714 1.399 . S
C714 H700 0.929 . S
C714 C713 1.399 . S
C714 C715 1.385 . S
C715 H701 0.931 . S
C715 C714 1.385 . S
C715 C716 1.389 . S
C716 C715 1.389 . S
C716 C717 1.387 . S
C717 H702 0.930 . S
C717 C712 1.390 . S
C717 C716 1.387 . S
H718 C730 0.930 . S
H719 C732 0.930 . S
H720 C733 0.930 . S
H721 C737 0.959 . S
H722 C737 0.959 . S
H723 C737 0.961 . S
H724 C738 0.960 . S
H725 C738 0.961 1_655 S
H726 C738 0.959 . S
H727 C741 0.929 1_455 S
H728 C742 0.931 . S
H729 C744 0.930 . S
C730 H718 0.930 . S
C730 C731 1.399 . S
C730 C735 1.399 . S
C731 C730 1.399 . S
C731 C732 1.376 . S
C732 H719 0.930 . S
C732 C731 1.376 . S
C732 C733 1.388 . S
C733 H720 0.930 . S
C733 C732 1.388 . S
C733 C734 1.390 . S
C734 C733 1.390 . S
C734 C735 1.394 . S
C734 C740 1.465 1_455 S
C735 C730 1.399 . S
C735 C734 1.394 . S
C735 C736 1.516 1_455 S
C736 C735 1.516 1_655 S
C736 C737 1.502 . S
C736 C738 1.561 1_655 S
C736 C739 1.526 . S
C737 H721 0.959 . S
C737 H722 0.959 . S
C737 H723 0.961 . S
C737 C736 1.502 . S
C738 H724 0.960 . S
C738 H725 0.961 1_455 S
C738 H726 0.959 . S
C738 C736 1.561 1_455 S
C739 C736 1.526 . S
C739 C740 1.396 . S
C739 C744 1.390 . S
C740 C734 1.465 1_655 S
C740 C739 1.396 . S
C740 C741 1.399 . S
C741 H727 0.929 1_655 S
C741 C740 1.399 . S
C741 C742 1.385 . S
C742 H728 0.931 . S
C742 C741 1.385 . S
C742 C743 1.389 . S
C743 C742 1.389 . S
C743 C744 1.387 . S
C744 H729 0.930 . S
C744 C739 1.390 . S
C744 C743 1.387 . S
H745 C757 0.930 . S
H746 C759 0.930 . S
H747 C760 0.930 . S
H748 C764 0.959 . S
H749 C764 0.959 . S
H750 C764 0.961 . S
H751 C765 0.960 . S
H752 C765 0.961 . S
H753 C765 0.959 . S
H754 C768 0.929 . S
H755 C769 0.931 . S
H756 C771 0.930 . S
C757 H745 0.930 . S
C757 C758 1.399 . S
C757 C762 1.399 . S
C758 C757 1.399 . S
C758 C759 1.376 . S
C759 H746 0.930 . S
C759 C758 1.376 . S
C759 C760 1.388 . S
C760 H747 0.930 . S
C760 C759 1.388 . S
C760 C761 1.390 . S
C761 C760 1.390 . S
C761 C762 1.394 . S
C761 C767 1.465 . S
C762 C757 1.399 . S
C762 C761 1.394 . S
C762 C763 1.516 . S
C763 C762 1.516 . S
C763 C764 1.502 . S
C763 C765 1.561 . S
C763 C766 1.526 . S
C764 H748 0.959 . S
C764 H749 0.959 . S
C764 H750 0.961 . S
C764 C763 1.502 . S
C765 H751 0.960 . S
C765 H752 0.961 . S
C765 H753 0.959 . S
C765 C763 1.561 . S
C766 C763 1.526 . S
C766 C767 1.396 . S
C766 C771 1.390 . S
C767 C761 1.465 . S
C767 C766 1.396 . S
C767 C768 1.399 . S
C768 H754 0.929 . S
C768 C767 1.399 . S
C768 C769 1.385 . S
C769 H755 0.931 . S
C769 C768 1.385 . S
C769 C770 1.389 . S
C770 C769 1.389 . S
C770 C771 1.387 . S
C771 H756 0.930 . S
C771 C766 1.390 . S
C771 C770 1.387 . S
H772 C784 0.930 . S
H773 C786 0.930 . S
H774 C787 0.930 . S
H775 C791 0.959 . S
H776 C791 0.959 . S
H777 C791 0.961 . S
H778 C792 0.960 . S
H779 C792 0.961 . S
H780 C792 0.959 . S
H781 C795 0.929 . S
H782 C796 0.931 . S
H783 C798 0.930 . S
C784 H772 0.930 . S
C784 C785 1.399 . S
C784 C789 1.399 . S
C785 C784 1.399 . S
C785 C786 1.376 . S
C786 H773 0.930 . S
C786 C785 1.376 . S
C786 C787 1.388 . S
C787 H774 0.930 . S
C787 C786 1.388 . S
C787 C788 1.390 . S
C788 C787 1.390 . S
C788 C789 1.394 . S
C788 C794 1.465 . S
C789 C784 1.399 . S
C789 C788 1.394 . S
C789 C790 1.516 . S
C790 C789 1.516 . S
C790 C791 1.502 . S
C790 C792 1.561 . S
C790 C793 1.526 . S
C791 H775 0.959 . S
C791 H776 0.959 . S
C791 H777 0.961 . S
C791 C790 1.502 . S
C792 H778 0.960 . S
C792 H779 0.961 . S
C792 H780 0.959 . S
C792 C790 1.561 . S
C793 C790 1.526 . S
C793 C794 1.396 . S
C793 C798 1.390 . S
C794 C788 1.465 . S
C794 C793 1.396 . S
C794 C795 1.399 . S
C795 H781 0.929 . S
C795 C794 1.399 . S
C795 C796 1.385 . S
C796 H782 0.931 . S
C796 C795 1.385 . S
C796 C797 1.389 . S
C797 C796 1.389 . S
C797 C798 1.387 . S
C798 H783 0.930 . S
C798 C793 1.390 . S
C798 C797 1.387 . S
H799 C811 0.930 . S
H800 C813 0.930 . S
H801 C814 0.930 . S
H802 C818 0.959 . S
H803 C818 0.959 . S
H804 C818 0.961 . S
H805 C819 0.960 . S
H806 C819 0.961 . S
H807 C819 0.959 . S
H808 C822 0.929 . S
H809 C823 0.931 . S
H810 C825 0.930 . S
C811 H799 0.930 . S
C811 C812 1.399 . S
C811 C816 1.399 . S
C812 C811 1.399 . S
C812 C813 1.376 . S
C813 H800 0.930 . S
C813 C812 1.376 . S
C813 C814 1.388 . S
C814 H801 0.930 . S
C814 C813 1.388 . S
C814 C815 1.390 . S
C815 C814 1.390 . S
C815 C816 1.394 . S
C815 C821 1.465 . S
C816 C811 1.399 . S
C816 C815 1.394 . S
C816 C817 1.516 . S
C817 C816 1.516 . S
C817 C818 1.502 . S
C817 C819 1.561 . S
C817 C820 1.526 . S
C818 H802 0.959 . S
C818 H803 0.959 . S
C818 H804 0.961 . S
C818 C817 1.502 . S
C819 H805 0.960 . S
C819 H806 0.961 . S
C819 H807 0.959 . S
C819 C817 1.561 . S
C820 C817 1.526 . S
C820 C821 1.396 . S
C820 C825 1.390 . S
C821 C815 1.465 . S
C821 C820 1.396 . S
C821 C822 1.399 . S
C822 H808 0.929 . S
C822 C821 1.399 . S
C822 C823 1.385 . S
C823 H809 0.931 . S
C823 C822 1.385 . S
C823 C824 1.389 . S
C824 C823 1.389 . S
C824 C825 1.387 . S
C825 H810 0.930 . S
C825 C820 1.390 . S
C825 C824 1.387 . S
H826 C838 0.930 . S
H827 C840 0.930 . S
H828 C841 0.930 . S
H829 C845 0.959 . S
H830 C845 0.959 . S
H831 C845 0.961 . S
H832 C846 0.960 . S
H833 C846 0.961 . S
H834 C846 0.959 . S
H835 C849 0.929 . S
H836 C850 0.931 . S
H837 C852 0.930 . S
C838 H826 0.930 . S
C838 C839 1.399 . S
C838 C843 1.399 . S
C839 C838 1.399 . S
C839 C840 1.376 . S
C840 H827 0.930 . S
C840 C839 1.376 . S
C840 C841 1.388 . S
C841 H828 0.930 . S
C841 C840 1.388 . S
C841 C842 1.390 . S
C842 C841 1.390 . S
C842 C843 1.394 . S
C842 C848 1.465 . S
C843 C838 1.399 . S
C843 C842 1.394 . S
C843 C844 1.516 . S
C844 C843 1.516 . S
C844 C845 1.502 . S
C844 C846 1.561 . S
C844 C847 1.526 . S
C845 H829 0.959 . S
C845 H830 0.959 . S
C845 H831 0.961 . S
C845 C844 1.502 . S
C846 H832 0.960 . S
C846 H833 0.961 . S
C846 H834 0.959 . S
C846 C844 1.561 . S
C847 C844 1.526 . S
C847 C848 1.396 . S
C847 C852 1.390 . S
C848 C842 1.465 . S
C848 C847 1.396 . S
C848 C849 1.399 . S
C849 H835 0.929 . S
C849 C848 1.399 . S
C849 C850 1.385 . S
C850 H836 0.931 . S
C850 C849 1.385 . S
C850 C851 1.389 . S
C851 C850 1.389 . S
C851 C852 1.387 . S
C852 H837 0.930 . S
C852 C847 1.390 . S
C852 C851 1.387 . S
H853 C865 0.930 . S
H854 C867 0.930 . S
H855 C868 0.930 . S
H856 C872 0.959 . S
H857 C872 0.959 . S
H858 C872 0.961 . S
H859 C873 0.960 1_455 S
H860 C873 0.961 . S
H861 C873 0.959 . S
H862 C876 0.929 . S
H863 C877 0.931 . S
H864 C879 0.930 . S
C865 H853 0.930 . S
C865 C866 1.399 . S
C865 C870 1.399 . S
C866 C865 1.399 . S
C866 C867 1.376 . S
C867 H854 0.930 . S
C867 C866 1.376 . S
C867 C868 1.388 . S
C868 H855 0.930 . S
C868 C867 1.388 . S
C868 C869 1.390 . S
C869 C868 1.390 . S
C869 C870 1.394 . S
C869 C875 1.465 1_556 S
C870 C865 1.399 . S
C870 C869 1.394 . S
C870 C871 1.516 1_556 S
C871 C870 1.516 1_554 S
C871 C872 1.502 . S
C871 C873 1.561 1_455 S
C871 C874 1.534 . S
C872 H856 0.959 . S
C872 H857 0.959 . S
C872 H858 0.961 . S
C872 C871 1.502 . S
C873 H859 0.960 1_655 S
C873 H860 0.961 . S
C873 H861 0.959 . S
C873 C871 1.561 1_655 S
C874 C871 1.534 . S
C874 C875 1.398 . S
C874 C879 1.381 1_455 S
C875 C869 1.465 1_554 S
C875 C874 1.398 . S
C875 C876 1.399 1_454 S
C876 H862 0.929 . S
C876 C875 1.399 1_656 S
C876 C877 1.385 1_556 S
C877 H863 0.931 . S
C877 C876 1.385 1_554 S
C877 C878 1.389 . S
C878 C877 1.389 . S
C878 C879 1.387 . S
C879 H864 0.930 . S
C879 C874 1.381 1_655 S
C879 C878 1.387 . S
H880 C892 0.930 . S
H881 C894 0.930 . S
H882 C895 0.930 . S
H883 C899 0.959 . S
H884 C899 0.959 . S
H885 C899 0.961 . S
H886 C900 0.960 . S
H887 C900 0.961 . S
H888 C900 0.959 . S
H889 C903 0.929 . S
H890 C904 0.931 . S
H891 C906 0.930 . S
C892 H880 0.930 . S
C892 C893 1.399 . S
C892 C897 1.399 1_545 S
C893 C892 1.399 . S
C893 C894 1.376 . S
C894 H881 0.930 . S
C894 C893 1.376 . S
C894 C895 1.388 . S
C895 H882 0.930 . S
C895 C894 1.388 . S
C895 C896 1.359 1_545 S
C896 C895 1.359 1_565 S
C896 C897 1.403 . S
C896 C902 1.493 . S
C897 C892 1.399 1_565 S
C897 C896 1.403 . S
C897 C898 1.516 . S
C898 C897 1.516 . S
C898 C899 1.502 . S
C898 C900 1.561 . S
C898 C901 1.526 . S
C899 H883 0.959 . S
C899 H884 0.959 . S
C899 H885 0.961 . S
C899 C898 1.502 . S
C900 H886 0.960 . S
C900 H887 0.961 . S
C900 H888 0.959 . S
C900 C898 1.561 . S
C901 C898 1.526 . S
C901 C902 1.396 . S
C901 C906 1.390 . S
C902 C896 1.493 . S
C902 C901 1.396 . S
C902 C903 1.399 . S
C903 H889 0.929 . S
C903 C902 1.399 . S
C903 C904 1.385 . S
C904 H890 0.931 . S
C904 C903 1.385 . S
C904 C905 1.389 . S
C905 C904 1.389 . S
C905 C906 1.387 . S
C906 H891 0.930 . S
C906 C901 1.390 . S
C906 C905 1.387 . S
H907 C919 0.930 . S
H908 C921 0.930 . S
H909 C922 0.930 . S
H910 C926 0.959 . S
H911 C926 0.959 . S
H912 C926 0.961 . S
H913 C927 0.960 . S
H914 C927 0.961 . S
H915 C927 0.959 . S
H916 C930 0.929 . S
H917 C931 0.931 . S
H918 C933 0.930 . S
C919 H907 0.930 . S
C919 C920 1.399 . S
C919 C924 1.399 . S
C920 C919 1.399 . S
C920 C921 1.376 . S
C921 H908 0.930 . S
C921 C920 1.376 . S
C921 C922 1.388 . S
C922 H909 0.930 . S
C922 C921 1.388 . S
C922 C923 1.390 . S
C923 C922 1.390 . S
C923 C924 1.394 . S
C923 C929 1.465 . S
C924 C919 1.399 . S
C924 C923 1.394 . S
C924 C925 1.516 . S
C925 C924 1.516 . S
C925 C926 1.502 . S
C925 C927 1.561 . S
C925 C928 1.526 . S
C926 H910 0.959 . S
C926 H911 0.959 . S
C926 H912 0.961 . S
C926 C925 1.502 . S
C927 H913 0.960 . S
C927 H914 0.961 . S
C927 H915 0.959 . S
C927 C925 1.561 . S
C928 C925 1.526 . S
C928 C929 1.396 . S
C928 C933 1.390 . S
C929 C923 1.465 . S
C929 C928 1.396 . S
C929 C930 1.399 . S
C930 H916 0.929 . S
C930 C929 1.399 . S
C930 C931 1.385 . S
C931 H917 0.931 . S
C931 C930 1.385 . S
C931 C932 1.389 . S
C932 C931 1.389 . S
C932 C933 1.387 . S
C933 H918 0.930 . S
C933 C928 1.390 . S
C933 C932 1.387 . S
H934 C946 0.930 . S
H935 C948 0.930 . S
H936 C949 0.930 . S
H937 C953 0.959 . S
H938 C953 0.959 . S
H939 C953 0.961 . S
H940 C954 0.960 . S
H941 C954 0.961 . S
H942 C954 0.959 . S
H943 C957 0.929 . S
H944 C958 0.931 . S
H945 C960 0.930 1_545 S
C946 H934 0.930 . S
C946 C947 1.399 . S
C946 C951 1.399 . S
C947 C946 1.399 . S
C947 C948 1.376 . S
C948 H935 0.930 . S
C948 C947 1.376 . S
C948 C949 1.388 . S
C949 H936 0.930 . S
C949 C948 1.388 . S
C949 C950 1.390 . S
C950 C949 1.390 . S
C950 C951 1.394 . S
C950 C956 1.478 . S
C951 C946 1.399 . S
C951 C950 1.394 . S
C951 C952 1.516 . S
C952 C951 1.516 . S
C952 C953 1.502 . S
C952 C954 1.561 . S
C952 C955 1.526 . S
C953 H937 0.959 . S
C953 H938 0.959 . S
C953 H939 0.961 . S
C953 C952 1.502 . S
C954 H940 0.960 . S
C954 H941 0.961 . S
C954 H942 0.959 . S
C954 C952 1.561 . S
C955 C952 1.526 . S
C955 C956 1.403 . S
C955 C960 1.390 1_545 S
C956 C950 1.478 . S
C956 C955 1.403 . S
C956 C957 1.382 1_545 S
C957 H943 0.929 . S
C957 C956 1.382 1_565 S
C957 C958 1.385 . S
C958 H944 0.931 . S
C958 C957 1.385 . S
C958 C959 1.389 . S
C959 C958 1.389 . S
C959 C960 1.387 . S
C960 H945 0.930 1_565 S
C960 C955 1.390 1_565 S
C960 C959 1.387 . S
H961 C973 0.930 . S
H962 C975 0.930 . S
H963 C976 0.930 . S
H964 C980 0.959 . S
H965 C980 0.959 . S
H966 C980 0.961 . S
H967 C981 0.960 . S
H968 C981 0.961 . S
H969 C981 0.939 1_554 S
H970 C984 0.929 . S
H971 C985 0.931 . S
H972 C987 0.930 . S
C973 H961 0.930 . S
C973 C974 1.399 . S
C973 C978 1.399 . S
C974 C973 1.399 . S
C974 C975 1.376 . S
C975 H962 0.930 . S
C975 C974 1.376 . S
C975 C976 1.388 . S
C976 H963 0.930 . S
C976 C975 1.388 . S
C976 C977 1.390 . S
C977 C976 1.390 . S
C977 C978 1.394 . S
C977 C983 1.477 . S
C978 C973 1.399 . S
C978 C977 1.394 . S
C978 C979 1.516 . S
C979 C978 1.516 . S
C979 C980 1.502 . S
C979 C981 1.561 . S
C979 C982 1.526 . S
C980 H964 0.959 . S
C980 H965 0.959 . S
C980 H966 0.961 . S
C980 C979 1.502 . S
C981 H967 0.960 . S
C981 H968 0.961 . S
C981 H969 0.939 1_556 S
C981 C979 1.561 . S
C982 C979 1.526 . S
C982 C983 1.397 . S
C982 C987 1.390 1_556 S
C983 C977 1.477 . S
C983 C982 1.397 . S
C983 C984 1.388 1_556 S
C984 H970 0.929 . S
C984 C983 1.388 1_554 S
C984 C985 1.385 . S
C985 H971 0.931 . S
C985 C984 1.385 . S
C985 C986 1.389 . S
C986 C985 1.389 . S
C986 C987 1.387 . S
C987 H972 0.930 . S
C987 C982 1.390 1_554 S
C987 C986 1.387 . S
H988 C1000 0.930 . S
H989 C1002 0.930 . S
H990 C1003 0.930 . S
H991 C1007 0.959 . S
H992 C1007 0.959 . S
H993 C1007 0.961 . S
H994 C1008 0.973 . S
H995 C1008 0.961 . S
H996 C1008 0.959 . S
H997 C1011 0.929 1_545 S
H998 C1012 0.931 . S
H999 C1014 0.930 . S
C1000 H988 0.930 . S
C1000 C1001 1.399 . S
C1000 C1005 1.399 . S
C1001 C1000 1.399 . S
C1001 C1002 1.376 . S
C1002 H989 0.930 . S
C1002 C1001 1.376 . S
C1002 C1003 1.388 . S
C1003 H990 0.930 . S
C1003 C1002 1.388 . S
C1003 C1004 1.390 . S
C1004 C1003 1.390 . S
C1004 C1005 1.394 . S
C1004 C1010 1.465 . S
C1005 C1000 1.399 . S
C1005 C1004 1.394 . S
C1005 C1006 1.516 . S
C1006 C1005 1.516 . S
C1006 C1007 1.502 . S
C1006 C1008 1.561 1_545 S
C1006 C1009 1.526 1_545 S
C1007 H991 0.959 . S
C1007 H992 0.959 . S
C1007 H993 0.961 . S
C1007 C1006 1.502 . S
C1008 H994 0.973 . S
C1008 H995 0.961 . S
C1008 H996 0.959 . S
C1008 C1006 1.561 1_565 S
C1009 C1006 1.526 1_565 S
C1009 C1010 1.396 1_565 S
C1009 C1014 1.390 . S
C1010 C1004 1.465 . S
C1010 C1009 1.396 1_545 S
C1010 C1011 1.399 1_545 S
C1011 H997 0.929 1_565 S
C1011 C1010 1.399 1_565 S
C1011 C1012 1.385 . S
C1012 H998 0.931 . S
C1012 C1011 1.385 . S
C1012 C1013 1.389 . S
C1013 C1012 1.389 . S
C1013 C1014 1.387 . S
C1014 H999 0.930 . S
C1014 C1009 1.390 . S
C1014 C1013 1.387 . S
H1015 C1027 0.930 . S
H1016 C1029 0.930 . S
H1017 C1030 0.930 . S
H1018 C1034 0.959 . S
H1019 C1034 0.959 . S
H1020 C1034 0.961 . S
H1021 C1035 0.960 . S
H1022 C1035 0.961 . S
H1023 C1035 0.959 . S
H1024 C1038 0.929 . S
H1025 C1039 0.931 . S
H1026 C1041 0.930 . S
C1027 H1015 0.930 . S
C1027 C1028 1.399 . S
C1027 C1032 1.399 . S
C1028 C1027 1.399 . S
C1028 C1029 1.376 . S
C1029 H1016 0.930 . S
C1029 C1028 1.376 . S
C1029 C1030 1.388 . S
C1030 H1017 0.930 . S
C1030 C1029 1.388 . S
C1030 C1031 1.390 . S
C1031 C1030 1.390 . S
C1031 C1032 1.394 . S
C1031 C1037 1.465 . S
C1032 C1027 1.399 . S
C1032 C1031 1.394 . S
C1032 C1033 1.516 . S
C1033 C1032 1.516 . S
C1033 C1034 1.502 . S
C1033 C1035 1.561 . S
C1033 C1036 1.526 . S
C1034 H1018 0.959 . S
C1034 H1019 0.959 . S
C1034 H1020 0.961 . S
C1034 C1033 1.502 . S
C1035 H1021 0.960 . S
C1035 H1022 0.961 . S
C1035 H1023 0.959 . S
C1035 C1033 1.561 . S
C1036 C1033 1.526 . S
C1036 C1037 1.396 . S
C1036 C1041 1.390 . S
C1037 C1031 1.465 . S
C1037 C1036 1.396 . S
C1037 C1038 1.399 . S
C1038 H1024 0.929 . S
C1038 C1037 1.399 . S
C1038 C1039 1.385 . S
C1039 H1025 0.931 . S
C1039 C1038 1.385 . S
C1039 C1040 1.389 . S
C1040 C1039 1.389 . S
C1040 C1041 1.387 . S
C1041 H1026 0.930 . S
C1041 C1036 1.390 . S
C1041 C1040 1.387 . S
H1042 C1054 0.930 . S
H1043 C1056 0.930 . S
H1044 C1057 0.930 . S
H1045 C1061 0.959 . S
H1046 C1061 0.959 . S
H1047 C1061 0.961 . S
H1048 C1062 0.960 1_545 S
H1049 C1062 0.961 . S
H1050 C1062 0.947 1_545 S
H1051 C1065 0.929 . S
H1052 C1066 0.931 . S
H1053 C1068 0.930 . S
C1054 H1042 0.930 . S
C1054 C1055 1.399 . S
C1054 C1059 1.399 1_545 S
C1055 C1054 1.399 . S
C1055 C1056 1.376 . S
C1056 H1043 0.930 . S
C1056 C1055 1.376 . S
C1056 C1057 1.388 . S
C1057 H1044 0.930 . S
C1057 C1056 1.388 . S
C1057 C1058 1.390 1_545 S
C1058 C1057 1.390 1_565 S
C1058 C1059 1.394 . S
C1058 C1064 1.465 . S
C1059 C1054 1.399 1_565 S
C1059 C1058 1.394 . S
C1059 C1060 1.516 . S
C1060 C1059 1.516 . S
C1060 C1061 1.502 . S
C1060 C1062 1.561 . S
C1060 C1063 1.526 . S
C1061 H1045 0.959 . S
C1061 H1046 0.959 . S
C1061 H1047 0.961 . S
C1061 C1060 1.502 . S
C1062 H1048 0.960 1_565 S
C1062 H1049 0.961 . S
C1062 H1050 0.947 1_565 S
C1062 C1060 1.561 . S
C1063 C1060 1.526 . S
C1063 C1064 1.396 . S
C1063 C1068 1.390 . S
C1064 C1058 1.465 . S
C1064 C1063 1.396 . S
C1064 C1065 1.399 . S
C1065 H1051 0.929 . S
C1065 C1064 1.399 . S
C1065 C1066 1.385 . S
C1066 H1052 0.931 . S
C1066 C1065 1.385 . S
C1066 C1067 1.389 . S
C1067 C1066 1.389 . S
C1067 C1068 1.387 . S
C1068 H1053 0.930 . S
C1068 C1063 1.390 . S
C1068 C1067 1.387 . S
H1069 C1081 0.930 . S
H1070 C1083 0.930 . S
H1071 C1084 0.927 1_554 S
H1072 C1088 0.959 . S
H1073 C1088 0.959 . S
H1074 C1088 0.961 . S
H1075 C1089 0.960 . S
H1076 C1089 0.961 . S
H1077 C1089 0.959 . S
H1078 C1092 0.929 . S
H1079 C1093 0.931 . S
H1080 C1095 0.930 . S
C1081 H1069 0.930 . S
C1081 C1082 1.399 . S
C1081 C1086 1.399 . S
C1082 C1081 1.399 . S
C1082 C1083 1.376 . S
C1083 H1070 0.930 . S
C1083 C1082 1.376 . S
C1083 C1084 1.393 . S
C1084 H1071 0.927 1_556 S
C1084 C1083 1.393 . S
C1084 C1085 1.388 1_556 S
C1085 C1084 1.388 1_554 S
C1085 C1086 1.394 1_554 S
C1085 C1091 1.465 . S
C1086 C1081 1.399 . S
C1086 C1085 1.394 1_556 S
C1086 C1087 1.516 1_556 S
C1087 C1086 1.516 1_554 S
C1087 C1088 1.502 1_554 S
C1087 C1089 1.561 . S
C1087 C1090 1.526 . S
C1088 H1072 0.959 . S
C1088 H1073 0.959 . S
C1088 H1074 0.961 . S
C1088 C1087 1.502 1_556 S
C1089 H1075 0.960 . S
C1089 H1076 0.961 . S
C1089 H1077 0.959 . S
C1089 C1087 1.561 . S
C1090 C1087 1.526 . S
C1090 C1091 1.396 . S
C1090 C1095 1.390 . S
C1091 C1085 1.465 . S
C1091 C1090 1.396 . S
C1091 C1092 1.399 . S
C1092 H1078 0.929 . S
C1092 C1091 1.399 . S
C1092 C1093 1.385 . S
C1093 H1079 0.931 . S
C1093 C1092 1.385 . S
C1093 C1094 1.389 . S
C1094 C1093 1.389 . S
C1094 C1095 1.387 . S
C1095 H1080 0.930 . S
C1095 C1090 1.390 . S
C1095 C1094 1.387 . S
H1096 C1108 0.930 . S
H1097 C1110 0.930 . S
H1098 C1111 0.930 . S
H1099 C1115 0.959 . S
H1100 C1115 0.959 . S
H1101 C1115 0.961 1_655 S
H1102 C1116 0.960 . S
H1103 C1116 0.961 . S
H1104 C1116 0.959 . S
H1105 C1119 0.929 . S
H1106 C1120 0.931 . S
H1107 C1122 0.930 . S
C1108 H1096 0.930 . S
C1108 C1109 1.399 . S
C1108 C1113 1.399 . S
C1109 C1108 1.399 . S
C1109 C1110 1.376 . S
C1110 H1097 0.930 . S
C1110 C1109 1.376 . S
C1110 C1111 1.388 . S
C1111 H1098 0.930 . S
C1111 C1110 1.388 . S
C1111 C1112 1.390 . S
C1112 C1111 1.390 . S
C1112 C1113 1.394 . S
C1112 C1118 1.465 . S
C1113 C1108 1.399 . S
C1113 C1112 1.394 . S
C1113 C1114 1.516 . S
C1114 C1113 1.516 . S
C1114 C1115 1.502 1_655 S
C1114 C1116 1.561 . S
C1114 C1117 1.526 . S
C1115 H1099 0.959 . S
C1115 H1100 0.959 . S
C1115 H1101 0.961 1_455 S
C1115 C1114 1.502 1_455 S
C1116 H1102 0.960 . S
C1116 H1103 0.961 . S
C1116 H1104 0.959 . S
C1116 C1114 1.561 . S
C1117 C1114 1.526 . S
C1117 C1118 1.396 . S
C1117 C1122 1.390 1_655 S
C1118 C1112 1.465 . S
C1118 C1117 1.396 . S
C1118 C1119 1.399 . S
C1119 H1105 0.929 . S
C1119 C1118 1.399 . S
C1119 C1120 1.385 1_655 S
C1120 H1106 0.931 . S
C1120 C1119 1.385 1_455 S
C1120 C1121 1.389 . S
C1121 C1120 1.389 . S
C1121 C1122 1.387 . S
C1122 H1107 0.930 . S
C1122 C1117 1.390 1_455 S
C1122 C1121 1.387 . S
H1123 C1135 0.930 . S
H1124 C1137 0.930 . S
H1125 C1138 0.930 . S
H1126 C1142 0.959 . S
H1127 C1142 0.959 . S
H1128 C1142 0.961 . S
H1129 C1143 0.960 . S
H1130 C1143 0.961 . S
H1131 C1143 0.959 . S
H1132 C1146 0.929 . S
H1133 C1147 0.931 . S
H1134 C1149 0.930 . S
C1135 H1123 0.930 . S
C1135 C1136 1.399 . S
C1135 C1140 1.399 . S
C1136 C1135 1.399 . S
C1136 C1137 1.376 . S
C1137 H1124 0.930 . S
C1137 C1136 1.376 . S
C1137 C1138 1.388 . S
C1138 H1125 0.930 . S
C1138 C1137 1.388 . S
C1138 C1139 1.390 . S
C1139 C1138 1.390 . S
C1139 C1140 1.394 . S
C1139 C1145 1.465 . S
C1140 C1135 1.399 . S
C1140 C1139 1.394 . S
C1140 C1141 1.516 . S
C1141 C1140 1.516 . S
C1141 C1142 1.502 . S
C1141 C1143 1.561 . S
C1141 C1144 1.526 . S
C1142 H1126 0.959 . S
C1142 H1127 0.959 . S
C1142 H1128 0.961 . S
C1142 C1141 1.502 . S
C1143 H1129 0.960 . S
C1143 H1130 0.961 . S
C1143 H1131 0.959 . S
C1143 C1141 1.561 . S
C1144 C1141 1.526 . S
C1144 C1145 1.396 . S
C1144 C1149 1.390 . S
C1145 C1139 1.465 . S
C1145 C1144 1.396 . S
C1145 C1146 1.399 . S
C1146 H1132 0.929 . S
C1146 C1145 1.399 . S
C1146 C1147 1.385 . S
C1147 H1133 0.931 . S
C1147 C1146 1.385 . S
C1147 C1148 1.389 . S
C1148 C1147 1.389 . S
C1148 C1149 1.387 . S
C1149 H1134 0.930 . S
C1149 C1144 1.390 . S
C1149 C1148 1.387 . S
H1150 C1162 0.930 . S
H1151 C1164 0.930 . S
H1152 C1165 0.930 . S
H1153 C1169 0.959 . S
H1154 C1169 0.959 . S
H1155 C1169 0.961 . S
H1156 C1170 0.960 . S
H1157 C1170 0.961 1_455 S
H1158 C1170 0.959 . S
H1159 C1173 0.929 . S
H1160 C1174 0.931 . S
H1161 C1176 0.930 . S
C1162 H1150 0.930 . S
C1162 C1163 1.399 . S
C1162 C1167 1.399 . S
C1163 C1162 1.399 . S
C1163 C1164 1.376 . S
C1164 H1151 0.930 . S
C1164 C1163 1.376 . S
C1164 C1165 1.388 . S
C1165 H1152 0.930 . S
C1165 C1164 1.388 . S
C1165 C1166 1.390 . S
C1166 C1165 1.390 . S
C1166 C1167 1.394 . S
C1166 C1172 1.465 1_655 S
C1167 C1162 1.399 . S
C1167 C1166 1.394 . S
C1167 C1168 1.516 1_655 S
C1168 C1167 1.516 1_455 S
C1168 C1169 1.502 . S
C1168 C1170 1.561 1_455 S
C1168 C1171 1.526 . S
C1169 H1153 0.959 . S
C1169 H1154 0.959 . S
C1169 H1155 0.961 . S
C1169 C1168 1.502 . S
C1170 H1156 0.960 . S
C1170 H1157 0.961 1_655 S
C1170 H1158 0.959 . S
C1170 C1168 1.561 1_655 S
C1171 C1168 1.526 . S
C1171 C1172 1.396 . S
C1171 C1176 1.390 . S
C1172 C1166 1.465 1_455 S
C1172 C1171 1.396 . S
C1172 C1173 1.399 . S
C1173 H1159 0.929 . S
C1173 C1172 1.399 . S
C1173 C1174 1.385 . S
C1174 H1160 0.931 . S
C1174 C1173 1.385 . S
C1174 C1175 1.389 . S
C1175 C1174 1.389 . S
C1175 C1176 1.387 . S
C1176 H1161 0.930 . S
C1176 C1171 1.390 . S
C1176 C1175 1.387 . S
H1177 C1189 0.930 . S
H1178 C1191 0.930 . S
H1179 C1192 0.930 . S
H1180 C1196 0.959 . S
H1181 C1196 0.959 . S
H1182 C1196 0.961 . S
H1183 C1197 0.960 . S
H1184 C1197 0.961 . S
H1185 C1197 0.959 . S
H1186 C1200 0.929 . S
H1187 C1201 0.931 . S
H1188 C1203 0.930 . S
C1189 H1177 0.930 . S
C1189 C1190 1.399 . S
C1189 C1194 1.399 1_655 S
C1190 C1189 1.399 . S
C1190 C1191 1.376 1_655 S
C1191 H1178 0.930 . S
C1191 C1190 1.376 1_455 S
C1191 C1192 1.388 . S
C1192 H1179 0.930 . S
C1192 C1191 1.388 . S
C1192 C1193 1.390 . S
C1193 C1192 1.390 . S
C1193 C1194 1.394 . S
C1193 C1199 1.465 . S
C1194 C1189 1.399 1_455 S
C1194 C1193 1.394 . S
C1194 C1195 1.516 . S
C1195 C1194 1.516 . S
C1195 C1196 1.502 1_455 S
C1195 C1197 1.561 . S
C1195 C1198 1.526 . S
C1196 H1180 0.959 . S
C1196 H1181 0.959 . S
C1196 H1182 0.961 . S
C1196 C1195 1.502 1_655 S
C1197 H1183 0.960 . S
C1197 H1184 0.961 . S
C1197 H1185 0.959 . S
C1197 C1195 1.561 . S
C1198 C1195 1.526 . S
C1198 C1199 1.396 . S
C1198 C1203 1.390 . S
C1199 C1193 1.465 . S
C1199 C1198 1.396 . S
C1199 C1200 1.399 . S
C1200 H1186 0.929 . S
C1200 C1199 1.399 . S
C1200 C1201 1.385 . S
C1201 H1187 0.931 . S
C1201 C1200 1.385 . S
C1201 C1202 1.389 . S
C1202 C1201 1.389 . S
C1202 C1203 1.387 . S
C1203 H1188 0.930 . S
C1203 C1198 1.390 . S
C1203 C1202 1.387 . S
H1204 C1216 0.930 . S
H1205 C1218 0.930 . S
H1206 C1219 0.930 . S
H1207 C1223 0.959 . S
H1208 C1223 0.959 . S
H1209 C1223 0.961 . S
H1210 C1224 0.960 . S
H1211 C1224 0.961 . S
H1212 C1224 0.959 . S
H1213 C1227 0.929 . S
H1214 C1228 0.931 . S
H1215 C1230 0.930 . S
C1216 H1204 0.930 . S
C1216 C1217 1.399 . S
C1216 C1221 1.399 . S
C1217 C1216 1.399 . S
C1217 C1218 1.376 . S
C1218 H1205 0.930 . S
C1218 C1217 1.376 . S
C1218 C1219 1.388 . S
C1219 H1206 0.930 . S
C1219 C1218 1.388 . S
C1219 C1220 1.390 . S
C1220 C1219 1.390 . S
C1220 C1221 1.394 . S
C1220 C1226 1.465 . S
C1221 C1216 1.399 . S
C1221 C1220 1.394 . S
C1221 C1222 1.516 . S
C1222 C1221 1.516 . S
C1222 C1223 1.502 . S
C1222 C1224 1.561 . S
C1222 C1225 1.526 . S
C1223 H1207 0.959 . S
C1223 H1208 0.959 . S
C1223 H1209 0.961 . S
C1223 C1222 1.502 . S
C1224 H1210 0.960 . S
C1224 H1211 0.961 . S
C1224 H1212 0.959 . S
C1224 C1222 1.561 . S
C1225 C1222 1.526 . S
C1225 C1226 1.396 . S
C1225 C1230 1.390 . S
C1226 C1220 1.465 . S
C1226 C1225 1.396 . S
C1226 C1227 1.399 . S
C1227 H1213 0.929 . S
C1227 C1226 1.399 . S
C1227 C1228 1.385 . S
C1228 H1214 0.931 . S
C1228 C1227 1.385 . S
C1228 C1229 1.389 . S
C1229 C1228 1.389 . S
C1229 C1230 1.387 . S
C1230 H1215 0.930 . S
C1230 C1225 1.390 . S
C1230 C1229 1.387 . S
H1231 C1243 0.930 . S
H1232 C1245 0.930 . S
H1233 C1246 0.930 . S
H1234 C1250 0.959 . S
H1235 C1250 0.959 . S
H1236 C1250 0.961 . S
H1237 C1251 0.960 . S
H1238 C1251 0.961 . S
H1239 C1251 0.959 . S
H1240 C1254 0.929 . S
H1241 C1255 0.931 . S
H1242 C1257 0.930 . S
C1243 H1231 0.930 . S
C1243 C1244 1.399 . S
C1243 C1248 1.399 . S
C1244 C1243 1.399 . S
C1244 C1245 1.376 . S
C1245 H1232 0.930 . S
C1245 C1244 1.376 . S
C1245 C1246 1.388 . S
C1246 H1233 0.930 . S
C1246 C1245 1.388 . S
C1246 C1247 1.390 . S
C1247 C1246 1.390 . S
C1247 C1248 1.394 . S
C1247 C1253 1.465 . S
C1248 C1243 1.399 . S
C1248 C1247 1.394 . S
C1248 C1249 1.516 1_655 S
C1249 C1248 1.516 1_455 S
C1249 C1250 1.502 . S
C1249 C1251 1.561 . S
C1249 C1252 1.526 . S
C1250 H1234 0.959 . S
C1250 H1235 0.959 . S
C1250 H1236 0.961 . S
C1250 C1249 1.502 . S
C1251 H1237 0.960 . S
C1251 H1238 0.961 . S
C1251 H1239 0.959 . S
C1251 C1249 1.561 . S
C1252 C1249 1.526 . S
C1252 C1253 1.396 1_455 S
C1252 C1257 1.390 . S
C1253 C1247 1.465 . S
C1253 C1252 1.396 1_655 S
C1253 C1254 1.399 . S
C1254 H1240 0.929 . S
C1254 C1253 1.399 . S
C1254 C1255 1.385 1_655 S
C1255 H1241 0.931 . S
C1255 C1254 1.385 1_455 S
C1255 C1256 1.389 . S
C1256 C1255 1.389 . S
C1256 C1257 1.387 . S
C1257 H1242 0.930 . S
C1257 C1252 1.390 . S
C1257 C1256 1.387 . S
H1258 C1270 0.930 . S
H1259 C1272 0.930 . S
H1260 C1273 0.930 . S
H1261 C1277 0.959 . S
H1262 C1277 0.959 . S
H1263 C1277 0.961 . S
H1264 C1278 0.960 . S
H1265 C1278 0.961 . S
H1266 C1278 0.959 . S
H1267 C1281 0.929 . S
H1268 C1282 0.931 . S
H1269 C1284 0.930 . S
C1270 H1258 0.930 . S
C1270 C1271 1.399 . S
C1270 C1275 1.399 . S
C1271 C1270 1.399 . S
C1271 C1272 1.376 . S
C1272 H1259 0.930 . S
C1272 C1271 1.376 . S
C1272 C1273 1.388 . S
C1273 H1260 0.930 . S
C1273 C1272 1.388 . S
C1273 C1274 1.390 . S
C1274 C1273 1.390 . S
C1274 C1275 1.394 . S
C1274 C1280 1.465 . S
C1275 C1270 1.399 . S
C1275 C1274 1.394 . S
C1275 C1276 1.516 . S
C1276 C1275 1.516 . S
C1276 C1277 1.502 . S
C1276 C1278 1.561 . S
C1276 C1279 1.526 . S
C1277 H1261 0.959 . S
C1277 H1262 0.959 . S
C1277 H1263 0.961 . S
C1277 C1276 1.502 . S
C1278 H1264 0.960 . S
C1278 H1265 0.961 . S
C1278 H1266 0.959 . S
C1278 C1276 1.561 . S
C1279 C1276 1.526 . S
C1279 C1280 1.396 . S
C1279 C1284 1.390 . S
C1280 C1274 1.465 . S
C1280 C1279 1.396 . S
C1280 C1281 1.399 . S
C1281 H1267 0.929 . S
C1281 C1280 1.399 . S
C1281 C1282 1.385 . S
C1282 H1268 0.931 . S
C1282 C1281 1.385 . S
C1282 C1283 1.389 . S
C1283 C1282 1.389 . S
C1283 C1284 1.387 . S
C1284 H1269 0.930 . S
C1284 C1279 1.390 . S
C1284 C1283 1.387 . S
H1285 C1297 0.930 . S
H1286 C1299 0.930 . S
H1287 C1300 0.930 . S
H1288 C1304 0.959 1_545 S
H1289 C1304 0.959 . S
H1290 C1304 0.961 1_545 S
H1291 C1305 0.960 . S
H1292 C1305 0.961 . S
H1293 C1305 0.959 . S
H1294 C1308 0.929 . S
H1295 C1309 0.931 1_565 S
H1296 C1311 0.930 . S
C1297 H1285 0.930 . S
C1297 C1298 1.399 . S
C1297 C1302 1.399 . S
C1298 C1297 1.399 . S
C1298 C1299 1.376 . S
C1299 H1286 0.930 . S
C1299 C1298 1.376 . S
C1299 C1300 1.388 . S
C1300 H1287 0.930 . S
C1300 C1299 1.388 . S
C1300 C1301 1.390 . S
C1301 C1300 1.390 . S
C1301 C1302 1.394 . S
C1301 C1307 1.465 . S
C1302 C1297 1.399 . S
C1302 C1301 1.394 . S
C1302 C1303 1.516 . S
C1303 C1302 1.516 . S
C1303 C1304 1.502 1_545 S
C1303 C1305 1.561 1_545 S
C1303 C1306 1.527 . S
C1304 H1288 0.959 1_565 S
C1304 H1289 0.959 . S
C1304 H1290 0.961 1_565 S
C1304 C1303 1.502 1_565 S
C1305 H1291 0.960 . S
C1305 H1292 0.961 . S
C1305 H1293 0.959 . S
C1305 C1303 1.561 1_565 S
C1306 C1303 1.527 . S
C1306 C1307 1.400 . S
C1306 C1311 1.386 1_545 S
C1307 C1301 1.465 . S
C1307 C1306 1.400 . S
C1307 C1308 1.399 . S
C1308 H1294 0.929 . S
C1308 C1307 1.399 . S
C1308 C1309 1.387 . S
C1309 H1295 0.931 1_545 S
C1309 C1308 1.387 . S
C1309 C1310 1.388 1_545 S
C1310 C1309 1.388 1_565 S
C1310 C1311 1.387 . S
C1311 H1296 0.930 . S
C1311 C1306 1.386 1_565 S
C1311 C1310 1.387 . S
H1312 C1324 0.930 . S
H1313 C1326 0.930 . S
H1314 C1327 0.930 . S
H1315 C1331 0.959 . S
H1316 C1331 0.959 . S
H1317 C1331 0.961 . S
H1318 C1332 0.960 . S
H1319 C1332 0.961 . S
H1320 C1332 0.959 . S
H1321 C1335 0.929 . S
H1322 C1336 0.931 . S
H1323 C1338 0.930 . S
C1324 H1312 0.930 . S
C1324 C1325 1.399 . S
C1324 C1329 1.399 . S
C1325 C1324 1.399 . S
C1325 C1326 1.376 . S
C1326 H1313 0.930 . S
C1326 C1325 1.376 . S
C1326 C1327 1.388 . S
C1327 H1314 0.930 . S
C1327 C1326 1.388 . S
C1327 C1328 1.390 . S
C1328 C1327 1.390 . S
C1328 C1329 1.394 . S
C1328 C1334 1.465 . S
C1329 C1324 1.399 . S
C1329 C1328 1.394 . S
C1329 C1330 1.516 . S
C1330 C1329 1.516 . S
C1330 C1331 1.502 . S
C1330 C1332 1.561 . S
C1330 C1333 1.526 . S
C1331 H1315 0.959 . S
C1331 H1316 0.959 . S
C1331 H1317 0.961 . S
C1331 C1330 1.502 . S
C1332 H1318 0.960 . S
C1332 H1319 0.961 . S
C1332 H1320 0.959 . S
C1332 C1330 1.561 . S
C1333 C1330 1.526 . S
C1333 C1334 1.396 . S
C1333 C1338 1.390 . S
C1334 C1328 1.465 . S
C1334 C1333 1.396 . S
C1334 C1335 1.399 . S
C1335 H1321 0.929 . S
C1335 C1334 1.399 . S
C1335 C1336 1.385 . S
C1336 H1322 0.931 . S
C1336 C1335 1.385 . S
C1336 C1337 1.389 . S
C1337 C1336 1.389 . S
C1337 C1338 1.387 . S
C1338 H1323 0.930 . S
C1338 C1333 1.390 . S
C1338 C1337 1.387 . S
H1339 C1351 0.930 . S
H1340 C1353 0.930 . S
H1341 C1354 0.930 . S
H1342 C1358 0.959 . S
H1343 C1358 0.959 . S
H1344 C1358 0.961 . S
H1345 C1359 0.960 . S
H1346 C1359 0.961 . S
H1347 C1359 0.959 1_565 S
H1348 C1362 0.929 . S
H1349 C1363 0.931 . S
H1350 C1365 0.930 . S
C1351 H1339 0.930 . S
C1351 C1352 1.399 . S
C1351 C1356 1.399 . S
C1352 C1351 1.399 . S
C1352 C1353 1.376 . S
C1353 H1340 0.930 . S
C1353 C1352 1.376 . S
C1353 C1354 1.388 . S
C1354 H1341 0.930 . S
C1354 C1353 1.388 . S
C1354 C1355 1.390 . S
C1355 C1354 1.390 . S
C1355 C1356 1.394 . S
C1355 C1361 1.465 . S
C1356 C1351 1.399 . S
C1356 C1355 1.394 . S
C1356 C1357 1.516 1_565 S
C1357 C1356 1.516 1_545 S
C1357 C1358 1.502 . S
C1357 C1359 1.561 . S
C1357 C1360 1.526 . S
C1358 H1342 0.959 . S
C1358 H1343 0.959 . S
C1358 H1344 0.961 . S
C1358 C1357 1.502 . S
C1359 H1345 0.960 . S
C1359 H1346 0.961 . S
C1359 H1347 0.959 1_545 S
C1359 C1357 1.561 . S
C1360 C1357 1.526 . S
C1360 C1361 1.396 1_545 S
C1360 C1365 1.390 . S
C1361 C1355 1.465 . S
C1361 C1360 1.396 1_565 S
C1361 C1362 1.399 . S
C1362 H1348 0.929 . S
C1362 C1361 1.399 . S
C1362 C1363 1.385 1_565 S
C1363 H1349 0.931 . S
C1363 C1362 1.385 1_545 S
C1363 C1364 1.389 . S
C1364 C1363 1.389 . S
C1364 C1365 1.387 . S
C1365 H1350 0.930 . S
C1365 C1360 1.390 . S
C1365 C1364 1.387 . S
H1366 C1378 0.930 . S
H1367 C1380 0.930 . S
H1368 C1381 0.930 . S
H1369 C1385 0.959 . S
H1370 C1385 0.959 . S
H1371 C1385 0.961 . S
H1372 C1386 0.960 . S
H1373 C1386 0.961 . S
H1374 C1386 0.959 . S
H1375 C1389 0.929 . S
H1376 C1390 0.931 . S
H1377 C1392 0.930 . S
C1378 H1366 0.930 . S
C1378 C1379 1.399 . S
C1378 C1383 1.399 1_556 S
C1379 C1378 1.399 . S
C1379 C1380 1.376 . S
C1380 H1367 0.930 . S
C1380 C1379 1.376 . S
C1380 C1381 1.388 . S
C1381 H1368 0.930 . S
C1381 C1380 1.388 . S
C1381 C1382 1.390 1_556 S
C1382 C1381 1.390 1_554 S
C1382 C1383 1.394 . S
C1382 C1388 1.465 . S
C1383 C1378 1.399 1_554 S
C1383 C1382 1.394 . S
C1383 C1384 1.516 . S
C1384 C1383 1.516 . S
C1384 C1385 1.502 . S
C1384 C1386 1.561 . S
C1384 C1387 1.526 . S
C1385 H1369 0.959 . S
C1385 H1370 0.959 . S
C1385 H1371 0.961 . S
C1385 C1384 1.502 . S
C1386 H1372 0.960 . S
C1386 H1373 0.961 . S
C1386 H1374 0.959 . S
C1386 C1384 1.561 . S
C1387 C1384 1.526 . S
C1387 C1388 1.396 . S
C1387 C1392 1.390 . S
C1388 C1382 1.465 . S
C1388 C1387 1.396 . S
C1388 C1389 1.399 . S
C1389 H1375 0.929 . S
C1389 C1388 1.399 . S
C1389 C1390 1.385 . S
C1390 H1376 0.931 . S
C1390 C1389 1.385 . S
C1390 C1391 1.389 . S
C1391 C1390 1.389 . S
C1391 C1392 1.387 . S
C1392 H1377 0.930 . S
C1392 C1387 1.390 . S
C1392 C1391 1.387 . S
H1393 C1405 0.930 . S
H1394 C1407 0.930 . S
H1395 C1408 0.930 . S
H1396 C1412 0.959 . S
H1397 C1412 0.959 . S
H1398 C1412 0.961 . S
H1399 C1413 0.960 . S
H1400 C1413 0.961 . S
H1401 C1413 0.959 . S
H1402 C1416 0.929 . S
H1403 C1417 0.931 . S
H1404 C1419 0.930 . S
C1405 H1393 0.930 . S
C1405 C1406 1.399 1_565 S
C1405 C1410 1.399 . S
C1406 C1405 1.399 1_545 S
C1406 C1407 1.376 . S
C1407 H1394 0.930 . S
C1407 C1406 1.376 . S
C1407 C1408 1.388 . S
C1408 H1395 0.930 . S
C1408 C1407 1.388 . S
C1408 C1409 1.390 1_545 S
C1409 C1408 1.390 1_565 S
C1409 C1410 1.394 . S
C1409 C1415 1.465 . S
C1410 C1405 1.399 . S
C1410 C1409 1.394 . S
C1410 C1411 1.516 . S
C1411 C1410 1.516 . S
C1411 C1412 1.502 . S
C1411 C1413 1.561 . S
C1411 C1414 1.526 . S
C1412 H1396 0.959 . S
C1412 H1397 0.959 . S
C1412 H1398 0.961 . S
C1412 C1411 1.502 . S
C1413 H1399 0.960 . S
C1413 H1400 0.961 . S
C1413 H1401 0.959 . S
C1413 C1411 1.561 . S
C1414 C1411 1.526 . S
C1414 C1415 1.396 . S
C1414 C1419 1.390 . S
C1415 C1409 1.465 . S
C1415 C1414 1.396 . S
C1415 C1416 1.399 . S
C1416 H1402 0.929 . S
C1416 C1415 1.399 . S
C1416 C1417 1.385 . S
C1417 H1403 0.931 . S
C1417 C1416 1.385 . S
C1417 C1418 1.389 . S
C1418 C1417 1.389 . S
C1418 C1419 1.387 . S
C1419 H1404 0.930 . S
C1419 C1414 1.390 . S
C1419 C1418 1.387 . S
H1420 C1432 0.930 . S
H1421 C1434 0.930 . S
H1422 C1435 0.930 . S
H1423 C1439 0.959 . S
H1424 C1439 0.959 . S
H1425 C1439 0.961 . S
H1426 C1440 0.960 . S
H1427 C1440 0.961 . S
H1428 C1440 0.959 . S
H1429 C1443 0.929 . S
H1430 C1444 0.931 . S
H1431 C1446 0.930 . S
C1432 H1420 0.930 . S
C1432 C1433 1.399 . S
C1432 C1437 1.399 . S
C1433 C1432 1.399 . S
C1433 C1434 1.376 . S
C1434 H1421 0.930 . S
C1434 C1433 1.376 . S
C1434 C1435 1.388 . S
C1435 H1422 0.930 . S
C1435 C1434 1.388 . S
C1435 C1436 1.390 . S
C1436 C1435 1.390 . S
C1436 C1437 1.394 . S
C1436 C1442 1.465 . S
C1437 C1432 1.399 . S
C1437 C1436 1.394 . S
C1437 C1438 1.516 . S
C1438 C1437 1.516 . S
C1438 C1439 1.502 . S
C1438 C1440 1.561 . S
C1438 C1441 1.526 . S
C1439 H1423 0.959 . S
C1439 H1424 0.959 . S
C1439 H1425 0.961 . S
C1439 C1438 1.502 . S
C1440 H1426 0.960 . S
C1440 H1427 0.961 . S
C1440 H1428 0.959 . S
C1440 C1438 1.561 . S
C1441 C1438 1.526 . S
C1441 C1442 1.396 . S
C1441 C1446 1.390 . S
C1442 C1436 1.465 . S
C1442 C1441 1.396 . S
C1442 C1443 1.399 . S
C1443 H1429 0.929 . S
C1443 C1442 1.399 . S
C1443 C1444 1.385 . S
C1444 H1430 0.931 . S
C1444 C1443 1.385 . S
C1444 C1445 1.389 . S
C1445 C1444 1.389 . S
C1445 C1446 1.387 . S
C1446 H1431 0.930 . S
C1446 C1441 1.390 . S
C1446 C1445 1.387 . S
H1447 C1459 0.930 1_545 S
H1448 C1461 0.930 . S
H1449 C1462 0.930 . S
H1450 C1466 0.959 . S
H1451 C1466 0.959 . S
H1452 C1466 0.961 . S
H1453 C1467 0.960 . S
H1454 C1467 0.961 . S
H1455 C1467 0.959 . S
H1456 C1470 0.929 . S
H1457 C1471 0.931 . S
H1458 C1473 0.930 . S
C1459 H1447 0.930 1_565 S
C1459 C1460 1.399 . S
C1459 C1464 1.399 1_565 S
C1460 C1459 1.399 . S
C1460 C1461 1.376 . S
C1461 H1448 0.930 . S
C1461 C1460 1.376 . S
C1461 C1462 1.388 . S
C1462 H1449 0.930 . S
C1462 C1461 1.388 . S
C1462 C1463 1.390 1_565 S
C1463 C1462 1.390 1_545 S
C1463 C1464 1.394 . S
C1463 C1469 1.465 . S
C1464 C1459 1.399 1_545 S
C1464 C1463 1.394 . S
C1464 C1465 1.516 . S
C1465 C1464 1.516 . S
C1465 C1466 1.502 . S
C1465 C1467 1.561 . S
C1465 C1468 1.526 . S
C1466 H1450 0.959 . S
C1466 H1451 0.959 . S
C1466 H1452 0.961 . S
C1466 C1465 1.502 . S
C1467 H1453 0.960 . S
C1467 H1454 0.961 . S
C1467 H1455 0.959 . S
C1467 C1465 1.561 . S
C1468 C1465 1.526 . S
C1468 C1469 1.396 . S
C1468 C1473 1.390 . S
C1469 C1463 1.465 . S
C1469 C1468 1.396 . S
C1469 C1470 1.399 . S
C1470 H1456 0.929 . S
C1470 C1469 1.399 . S
C1470 C1471 1.385 . S
C1471 H1457 0.931 . S
C1471 C1470 1.385 . S
C1471 C1472 1.389 . S
C1472 C1471 1.389 . S
C1472 C1473 1.387 . S
C1473 H1458 0.930 . S
C1473 C1468 1.390 . S
C1473 C1472 1.387 . S
H1474 C1486 0.930 . S
H1475 C1488 0.930 . S
H1476 C1489 0.927 1_556 S
H1477 C1493 0.959 1_554 S
H1478 C1493 0.959 . S
H1479 C1493 0.961 1_554 S
H1480 C1494 0.960 . S
H1481 C1494 0.961 . S
H1482 C1494 0.959 . S
H1483 C1497 0.929 . S
H1484 C1498 0.931 . S
H1485 C1500 0.930 . S
C1486 H1474 0.930 . S
C1486 C1487 1.399 . S
C1486 C1491 1.399 1_554 S
C1487 C1486 1.399 . S
C1487 C1488 1.376 . S
C1488 H1475 0.930 . S
C1488 C1487 1.376 . S
C1488 C1489 1.398 . S
C1489 H1476 0.927 1_554 S
C1489 C1488 1.398 . S
C1489 C1490 1.384 1_554 S
C1490 C1489 1.384 1_556 S
C1490 C1491 1.394 . S
C1490 C1496 1.465 . S
C1491 C1486 1.399 1_556 S
C1491 C1490 1.394 . S
C1491 C1492 1.516 . S
C1492 C1491 1.516 . S
C1492 C1493 1.502 . S
C1492 C1494 1.561 . S
C1492 C1495 1.526 . S
C1493 H1477 0.959 1_556 S
C1493 H1478 0.959 . S
C1493 H1479 0.961 1_556 S
C1493 C1492 1.502 . S
C1494 H1480 0.960 . S
C1494 H1481 0.961 . S
C1494 H1482 0.959 . S
C1494 C1492 1.561 . S
C1495 C1492 1.526 . S
C1495 C1496 1.396 . S
C1495 C1500 1.390 . S
C1496 C1490 1.465 . S
C1496 C1495 1.396 . S
C1496 C1497 1.399 . S
C1497 H1483 0.929 . S
C1497 C1496 1.399 . S
C1497 C1498 1.385 . S
C1498 H1484 0.931 . S
C1498 C1497 1.385 . S
C1498 C1499 1.389 . S
C1499 C1498 1.389 . S
C1499 C1500 1.387 . S
C1500 H1485 0.930 . S
C1500 C1495 1.390 . S
C1500 C1499 1.387 . S
H1501 C1513 0.930 . S
H1502 C1515 0.930 . S
H1503 C1516 0.930 . S
H1504 C1520 0.959 1_655 S
H1505 C1520 0.959 . S
H1506 C1520 0.961 1_655 S
H1507 C1521 0.960 . S
H1508 C1521 0.961 . S
H1509 C1521 0.959 . S
H1510 C1524 0.929 . S
H1511 C1525 0.931 . S
H1512 C1527 0.930 . S
C1513 H1501 0.930 . S
C1513 C1514 1.399 . S
C1513 C1518 1.399 . S
C1514 C1513 1.399 . S
C1514 C1515 1.376 . S
C1515 H1502 0.930 . S
C1515 C1514 1.376 . S
C1515 C1516 1.388 . S
C1516 H1503 0.930 . S
C1516 C1515 1.388 . S
C1516 C1517 1.390 1_655 S
C1517 C1516 1.390 1_455 S
C1517 C1518 1.394 1_455 S
C1517 C1523 1.465 . S
C1518 C1513 1.399 . S
C1518 C1517 1.394 1_655 S
C1518 C1519 1.516 1_655 S
C1519 C1518 1.516 1_455 S
C1519 C1520 1.502 . S
C1519 C1521 1.561 . S
C1519 C1522 1.526 . S
C1520 H1504 0.959 1_455 S
C1520 H1505 0.959 . S
C1520 H1506 0.961 1_455 S
C1520 C1519 1.502 . S
C1521 H1507 0.960 . S
C1521 H1508 0.961 . S
C1521 H1509 0.959 . S
C1521 C1519 1.561 . S
C1522 C1519 1.526 . S
C1522 C1523 1.396 . S
C1522 C1527 1.390 . S
C1523 C1517 1.465 . S
C1523 C1522 1.396 . S
C1523 C1524 1.399 . S
C1524 H1510 0.929 . S
C1524 C1523 1.399 . S
C1524 C1525 1.385 . S
C1525 H1511 0.931 . S
C1525 C1524 1.385 . S
C1525 C1526 1.389 . S
C1526 C1525 1.389 . S
C1526 C1527 1.387 . S
C1527 H1512 0.930 . S
C1527 C1522 1.390 . S
C1527 C1526 1.387 . S
H1528 C1540 0.930 . S
H1529 C1542 0.930 . S
H1530 C1543 0.930 . S
H1531 C1547 0.959 . S
H1532 C1547 0.959 . S
H1533 C1547 0.961 . S
H1534 C1548 0.960 . S
H1535 C1548 0.961 . S
H1536 C1548 0.959 . S
H1537 C1551 0.929 . S
H1538 C1552 0.931 . S
H1539 C1554 0.930 . S
C1540 H1528 0.930 . S
C1540 C1541 1.399 . S
C1540 C1545 1.399 . S
C1541 C1540 1.399 . S
C1541 C1542 1.376 . S
C1542 H1529 0.930 . S
C1542 C1541 1.376 . S
C1542 C1543 1.388 . S
C1543 H1530 0.930 . S
C1543 C1542 1.388 . S
C1543 C1544 1.390 . S
C1544 C1543 1.390 . S
C1544 C1545 1.394 . S
C1544 C1550 1.465 . S
C1545 C1540 1.399 . S
C1545 C1544 1.394 . S
C1545 C1546 1.516 . S
C1546 C1545 1.516 . S
C1546 C1547 1.502 . S
C1546 C1548 1.561 . S
C1546 C1549 1.526 . S
C1547 H1531 0.959 . S
C1547 H1532 0.959 . S
C1547 H1533 0.961 . S
C1547 C1546 1.502 . S
C1548 H1534 0.960 . S
C1548 H1535 0.961 . S
C1548 H1536 0.959 . S
C1548 C1546 1.561 . S
C1549 C1546 1.526 . S
C1549 C1550 1.396 . S
C1549 C1554 1.390 . S
C1550 C1544 1.465 . S
C1550 C1549 1.396 . S
C1550 C1551 1.399 . S
C1551 H1537 0.929 . S
C1551 C1550 1.399 . S
C1551 C1552 1.385 . S
C1552 H1538 0.931 . S
C1552 C1551 1.385 . S
C1552 C1553 1.389 . S
C1553 C1552 1.389 . S
C1553 C1554 1.387 . S
C1554 H1539 0.930 . S
C1554 C1549 1.390 . S
C1554 C1553 1.387 . S
H1555 C1567 0.930 . S
H1556 C1569 0.930 . S
H1557 C1570 0.930 . S
H1558 C1574 0.959 . S
H1559 C1574 0.959 . S
H1560 C1574 0.961 . S
H1561 C1575 0.960 . S
H1562 C1575 0.961 . S
H1563 C1575 0.959 . S
H1564 C1578 0.929 . S
H1565 C1579 0.931 . S
H1566 C1581 0.930 . S
C1567 H1555 0.930 . S
C1567 C1568 1.399 . S
C1567 C1572 1.399 1_455 S
C1568 C1567 1.399 . S
C1568 C1569 1.376 . S
C1569 H1556 0.930 . S
C1569 C1568 1.376 . S
C1569 C1570 1.388 . S
C1570 H1557 0.930 . S
C1570 C1569 1.388 . S
C1570 C1571 1.390 . S
C1571 C1570 1.390 . S
C1571 C1572 1.394 1_455 S
C1571 C1577 1.465 1_455 S
C1572 C1567 1.399 1_655 S
C1572 C1571 1.394 1_655 S
C1572 C1573 1.516 . S
C1573 C1572 1.516 . S
C1573 C1574 1.502 . S
C1573 C1575 1.561 . S
C1573 C1576 1.526 . S
C1574 H1558 0.959 . S
C1574 H1559 0.959 . S
C1574 H1560 0.961 . S
C1574 C1573 1.502 . S
C1575 H1561 0.960 . S
C1575 H1562 0.961 . S
C1575 H1563 0.959 . S
C1575 C1573 1.561 . S
C1576 C1573 1.526 . S
C1576 C1577 1.396 . S
C1576 C1581 1.390 . S
C1577 C1571 1.465 1_655 S
C1577 C1576 1.396 . S
C1577 C1578 1.399 . S
C1578 H1564 0.929 . S
C1578 C1577 1.399 . S
C1578 C1579 1.385 . S
C1579 H1565 0.931 . S
C1579 C1578 1.385 . S
C1579 C1580 1.389 . S
C1580 C1579 1.389 . S
C1580 C1581 1.387 . S
C1581 H1566 0.930 . S
C1581 C1576 1.390 . S
C1581 C1580 1.387 . S
H1582 C1594 0.930 . S
H1583 C1596 0.930 . S
H1584 C1597 0.930 . S
H1585 C1601 0.959 . S
H1586 C1601 0.959 . S
H1587 C1601 0.961 . S
H1588 C1602 0.960 1_455 S
H1589 C1602 0.961 . S
H1590 C1602 0.959 . S
H1591 C1605 0.929 . S
H1592 C1606 0.931 . S
H1593 C1608 0.930 . S
C1594 H1582 0.930 . S
C1594 C1595 1.399 . S
C1594 C1599 1.399 . S
C1595 C1594 1.399 . S
C1595 C1596 1.376 . S
C1596 H1583 0.930 . S
C1596 C1595 1.376 . S
C1596 C1597 1.388 1_455 S
C1597 H1584 0.930 . S
C1597 C1596 1.388 1_655 S
C1597 C1598 1.390 . S
C1598 C1597 1.390 . S
C1598 C1599 1.394 1_655 S
C1598 C1604 1.465 . S
C1599 C1594 1.399 . S
C1599 C1598 1.394 1_455 S
C1599 C1600 1.516 . S
C1600 C1599 1.516 . S
C1600 C1601 1.502 . S
C1600 C1602 1.561 1_455 S
C1600 C1603 1.526 1_455 S
C1601 H1585 0.959 . S
C1601 H1586 0.959 . S
C1601 H1587 0.961 . S
C1601 C1600 1.502 . S
C1602 H1588 0.960 1_655 S
C1602 H1589 0.961 . S
C1602 H1590 0.959 . S
C1602 C1600 1.561 1_655 S
C1603 C1600 1.526 1_655 S
C1603 C1604 1.396 . S
C1603 C1608 1.390 . S
C1604 C1598 1.465 . S
C1604 C1603 1.396 . S
C1604 C1605 1.399 . S
C1605 H1591 0.929 . S
C1605 C1604 1.399 . S
C1605 C1606 1.385 . S
C1606 H1592 0.931 . S
C1606 C1605 1.385 . S
C1606 C1607 1.389 . S
C1607 C1606 1.389 . S
C1607 C1608 1.387 . S
C1608 H1593 0.930 . S
C1608 C1603 1.390 . S
C1608 C1607 1.387 . S
H1609 C1621 0.930 . S
H1610 C1623 0.930 . S
H1611 C1624 0.930 . S
H1612 C1628 0.959 . S
H1613 C1628 0.959 . S
H1614 C1628 0.961 . S
H1615 C1629 0.960 . S
H1616 C1629 0.961 . S
H1617 C1629 0.959 . S
H1618 C1632 0.929 . S
H1619 C1633 0.931 . S
H1620 C1635 0.930 . S
C1621 H1609 0.930 . S
C1621 C1622 1.399 . S
C1621 C1626 1.399 . S
C1622 C1621 1.399 . S
C1622 C1623 1.376 . S
C1623 H1610 0.930 . S
C1623 C1622 1.376 . S
C1623 C1624 1.388 . S
C1624 H1611 0.930 . S
C1624 C1623 1.388 . S
C1624 C1625 1.390 . S
C1625 C1624 1.390 . S
C1625 C1626 1.394 . S
C1625 C1631 1.465 . S
C1626 C1621 1.399 . S
C1626 C1625 1.394 . S
C1626 C1627 1.516 . S
C1627 C1626 1.516 . S
C1627 C1628 1.502 . S
C1627 C1629 1.561 . S
C1627 C1630 1.526 . S
C1628 H1612 0.959 . S
C1628 H1613 0.959 . S
C1628 H1614 0.961 . S
C1628 C1627 1.502 . S
C1629 H1615 0.960 . S
C1629 H1616 0.961 . S
C1629 H1617 0.959 . S
C1629 C1627 1.561 . S
C1630 C1627 1.526 . S
C1630 C1631 1.396 . S
C1630 C1635 1.390 . S
C1631 C1625 1.465 . S
C1631 C1630 1.396 . S
C1631 C1632 1.399 . S
C1632 H1618 0.929 . S
C1632 C1631 1.399 . S
C1632 C1633 1.385 . S
C1633 H1619 0.931 . S
C1633 C1632 1.385 . S
C1633 C1634 1.389 . S
C1634 C1633 1.389 . S
C1634 C1635 1.387 . S
C1635 H1620 0.930 . S
C1635 C1630 1.390 . S
C1635 C1634 1.387 . S
H1636 C1648 0.930 . S
H1637 C1650 0.930 . S
H1638 C1651 0.930 . S
H1639 C1655 0.959 . S
H1640 C1655 0.959 . S
H1641 C1655 0.961 . S
H1642 C1656 0.960 . S
H1643 C1656 0.961 . S
H1644 C1656 0.981 . S
H1645 C1659 0.929 . S
H1646 C1660 0.931 . S
H1647 C1662 0.930 . S
C1648 H1636 0.930 . S
C1648 C1649 1.399 . S
C1648 C1653 1.378 1_655 S
C1649 C1648 1.399 . S
C1649 C1650 1.376 . S
C1650 H1637 0.930 . S
C1650 C1649 1.376 . S
C1650 C1651 1.388 . S
C1651 H1638 0.930 . S
C1651 C1650 1.388 . S
C1651 C1652 1.390 . S
C1652 C1651 1.390 . S
C1652 C1653 1.387 1_655 S
C1652 C1658 1.465 1_655 S
C1653 C1648 1.378 1_455 S
C1653 C1652 1.387 1_455 S
C1653 C1654 1.545 . S
C1654 C1653 1.545 . S
C1654 C1655 1.502 . S
C1654 C1656 1.561 . S
C1654 C1657 1.526 . S
C1655 H1639 0.959 . S
C1655 H1640 0.959 . S
C1655 H1641 0.961 . S
C1655 C1654 1.502 . S
C1656 H1642 0.960 . S
C1656 H1643 0.961 . S
C1656 H1644 0.981 . S
C1656 C1654 1.561 . S
C1657 C1654 1.526 . S
C1657 C1658 1.396 . S
C1657 C1662 1.390 . S
C1658 C1652 1.465 1_455 S
C1658 C1657 1.396 . S
C1658 C1659 1.399 . S
C1659 H1645 0.929 . S
C1659 C1658 1.399 . S
C1659 C1660 1.385 . S
C1660 H1646 0.931 . S
C1660 C1659 1.385 . S
C1660 C1661 1.389 . S
C1661 C1660 1.389 . S
C1661 C1662 1.387 . S
C1662 H1647 0.930 . S
C1662 C1657 1.390 . S
C1662 C1661 1.387 . S
H1663 C1675 0.930 . S
H1664 C1677 0.930 . S
H1665 C1678 0.930 . S
H1666 C1682 0.959 . S
H1667 C1682 0.959 . S
H1668 C1682 0.961 . S
H1669 C1683 0.960 . S
H1670 C1683 0.961 . S
H1671 C1683 0.959 . S
H1672 C1686 0.929 . S
H1673 C1687 0.931 . S
H1674 C1689 0.930 . S
C1675 H1663 0.930 . S
C1675 C1676 1.399 . S
C1675 C1680 1.399 . S
C1676 C1675 1.399 . S
C1676 C1677 1.376 . S
C1677 H1664 0.930 . S
C1677 C1676 1.376 . S
C1677 C1678 1.388 . S
C1678 H1665 0.930 . S
C1678 C1677 1.388 . S
C1678 C1679 1.390 . S
C1679 C1678 1.390 . S
C1679 C1680 1.394 . S
C1679 C1685 1.465 . S
C1680 C1675 1.399 . S
C1680 C1679 1.394 . S
C1680 C1681 1.516 . S
C1681 C1680 1.516 . S
C1681 C1682 1.502 . S
C1681 C1683 1.561 . S
C1681 C1684 1.526 . S
C1682 H1666 0.959 . S
C1682 H1667 0.959 . S
C1682 H1668 0.961 . S
C1682 C1681 1.502 . S
C1683 H1669 0.960 . S
C1683 H1670 0.961 . S
C1683 H1671 0.959 . S
C1683 C1681 1.561 . S
C1684 C1681 1.526 . S
C1684 C1685 1.396 . S
C1684 C1689 1.390 . S
C1685 C1679 1.465 . S
C1685 C1684 1.396 . S
C1685 C1686 1.399 . S
C1686 H1672 0.929 . S
C1686 C1685 1.399 . S
C1686 C1687 1.385 . S
C1687 H1673 0.931 . S
C1687 C1686 1.385 . S
C1687 C1688 1.389 . S
C1688 C1687 1.389 . S
C1688 C1689 1.387 . S
C1689 H1674 0.930 . S
C1689 C1684 1.390 . S
C1689 C1688 1.387 . S
H1690 C1702 0.930 . S
H1691 C1704 0.930 . S
H1692 C1705 0.930 . S
H1693 C1709 0.959 . S
H1694 C1709 0.959 . S
H1695 C1709 0.961 . S
H1696 C1710 0.960 . S
H1697 C1710 0.961 . S
H1698 C1710 0.959 . S
H1699 C1713 0.929 . S
H1700 C1714 0.931 . S
H1701 C1716 0.930 . S
C1702 H1690 0.930 . S
C1702 C1703 1.399 . S
C1702 C1707 1.399 . S
C1703 C1702 1.399 . S
C1703 C1704 1.376 . S
C1704 H1691 0.930 . S
C1704 C1703 1.376 . S
C1704 C1705 1.388 . S
C1705 H1692 0.930 . S
C1705 C1704 1.388 . S
C1705 C1706 1.390 . S
C1706 C1705 1.390 . S
C1706 C1707 1.394 . S
C1706 C1712 1.465 . S
C1707 C1702 1.399 . S
C1707 C1706 1.394 . S
C1707 C1708 1.516 . S
C1708 C1707 1.516 . S
C1708 C1709 1.502 . S
C1708 C1710 1.561 . S
C1708 C1711 1.526 . S
C1709 H1693 0.959 . S
C1709 H1694 0.959 . S
C1709 H1695 0.961 . S
C1709 C1708 1.502 . S
C1710 H1696 0.960 . S
C1710 H1697 0.961 . S
C1710 H1698 0.959 . S
C1710 C1708 1.561 . S
C1711 C1708 1.526 . S
C1711 C1712 1.396 . S
C1711 C1716 1.390 . S
C1712 C1706 1.465 . S
C1712 C1711 1.396 . S
C1712 C1713 1.399 . S
C1713 H1699 0.929 . S
C1713 C1712 1.399 . S
C1713 C1714 1.385 . S
C1714 H1700 0.931 . S
C1714 C1713 1.385 . S
C1714 C1715 1.389 . S
C1715 C1714 1.389 . S
C1715 C1716 1.387 . S
C1716 H1701 0.930 . S
C1716 C1711 1.390 . S
C1716 C1715 1.387 . S
H1717 C1729 0.930 . S
H1718 C1731 0.930 . S
H1719 C1732 0.934 . S
H1720 C1736 0.959 1_554 S
H1721 C1736 0.959 . S
H1722 C1736 0.961 1_554 S
H1723 C1737 0.960 . S
H1724 C1737 0.961 . S
H1725 C1737 0.959 . S
H1726 C1740 0.929 . S
H1727 C1741 0.931 . S
H1728 C1743 0.930 . S
C1729 H1717 0.930 . S
C1729 C1730 1.399 . S
C1729 C1734 1.399 1_554 S
C1730 C1729 1.399 . S
C1730 C1731 1.376 . S
C1731 H1718 0.930 . S
C1731 C1730 1.376 . S
C1731 C1732 1.379 1_554 S
C1732 H1719 0.934 . S
C1732 C1731 1.379 1_556 S
C1732 C1733 1.395 . S
C1733 C1732 1.395 . S
C1733 C1734 1.394 . S
C1733 C1739 1.465 . S
C1734 C1729 1.399 1_556 S
C1734 C1733 1.394 . S
C1734 C1735 1.516 . S
C1735 C1734 1.516 . S
C1735 C1736 1.502 . S
C1735 C1737 1.561 . S
C1735 C1738 1.526 . S
C1736 H1720 0.959 1_556 S
C1736 H1721 0.959 . S
C1736 H1722 0.961 1_556 S
C1736 C1735 1.502 . S
C1737 H1723 0.960 . S
C1737 H1724 0.961 . S
C1737 H1725 0.959 . S
C1737 C1735 1.561 . S
C1738 C1735 1.526 . S
C1738 C1739 1.396 . S
C1738 C1743 1.390 . S
C1739 C1733 1.465 . S
C1739 C1738 1.396 . S
C1739 C1740 1.399 . S
C1740 H1726 0.929 . S
C1740 C1739 1.399 . S
C1740 C1741 1.385 . S
C1741 H1727 0.931 . S
C1741 C1740 1.385 . S
C1741 C1742 1.389 . S
C1742 C1741 1.389 . S
C1742 C1743 1.387 . S
C1743 H1728 0.930 . S
C1743 C1738 1.390 . S
C1743 C1742 1.387 . S
H1744 C1756 0.930 . S
H1745 C1758 0.930 . S
H1746 C1759 0.930 . S
H1747 C1763 0.959 . S
H1748 C1763 0.959 . S
H1749 C1763 0.961 . S
H1750 C1764 0.960 . S
H1751 C1764 0.961 . S
H1752 C1764 0.959 . S
H1753 C1767 0.929 . S
H1754 C1768 0.931 . S
H1755 C1770 0.930 . S
C1756 H1744 0.930 . S
C1756 C1757 1.399 . S
C1756 C1761 1.399 . S
C1757 C1756 1.399 . S
C1757 C1758 1.376 . S
C1758 H1745 0.930 . S
C1758 C1757 1.376 . S
C1758 C1759 1.388 . S
C1759 H1746 0.930 . S
C1759 C1758 1.388 . S
C1759 C1760 1.390 . S
C1760 C1759 1.390 . S
C1760 C1761 1.394 . S
C1760 C1766 1.465 . S
C1761 C1756 1.399 . S
C1761 C1760 1.394 . S
C1761 C1762 1.516 . S
C1762 C1761 1.516 . S
C1762 C1763 1.502 . S
C1762 C1764 1.561 . S
C1762 C1765 1.526 . S
C1763 H1747 0.959 . S
C1763 H1748 0.959 . S
C1763 H1749 0.961 . S
C1763 C1762 1.502 . S
C1764 H1750 0.960 . S
C1764 H1751 0.961 . S
C1764 H1752 0.959 . S
C1764 C1762 1.561 . S
C1765 C1762 1.526 . S
C1765 C1766 1.396 . S
C1765 C1770 1.390 . S
C1766 C1760 1.465 . S
C1766 C1765 1.396 . S
C1766 C1767 1.399 . S
C1767 H1753 0.929 . S
C1767 C1766 1.399 . S
C1767 C1768 1.385 . S
C1768 H1754 0.931 . S
C1768 C1767 1.385 . S
C1768 C1769 1.389 . S
C1769 C1768 1.389 . S
C1769 C1770 1.387 . S
C1770 H1755 0.930 . S
C1770 C1765 1.390 . S
C1770 C1769 1.387 . S
H1771 C1783 0.930 . S
H1772 C1785 0.930 . S
H1773 C1786 0.930 . S
H1774 C1790 0.959 . S
H1775 C1790 0.959 . S
H1776 C1790 0.961 . S
H1777 C1791 0.960 . S
H1778 C1791 0.961 . S
H1779 C1791 0.959 . S
H1780 C1794 0.929 . S
H1781 C1795 0.931 . S
H1782 C1797 0.930 . S
C1783 H1771 0.930 . S
C1783 C1784 1.399 . S
C1783 C1788 1.399 . S
C1784 C1783 1.399 . S
C1784 C1785 1.376 . S
C1785 H1772 0.930 . S
C1785 C1784 1.376 . S
C1785 C1786 1.388 . S
C1786 H1773 0.930 . S
C1786 C1785 1.388 . S
C1786 C1787 1.390 . S
C1787 C1786 1.390 . S
C1787 C1788 1.394 . S
C1787 C1793 1.465 . S
C1788 C1783 1.399 . S
C1788 C1787 1.394 . S
C1788 C1789 1.516 . S
C1789 C1788 1.516 . S
C1789 C1790 1.502 . S
C1789 C1791 1.561 . S
C1789 C1792 1.526 . S
C1790 H1774 0.959 . S
C1790 H1775 0.959 . S
C1790 H1776 0.961 . S
C1790 C1789 1.502 . S
C1791 H1777 0.960 . S
C1791 H1778 0.961 . S
C1791 H1779 0.959 . S
C1791 C1789 1.561 . S
C1792 C1789 1.526 . S
C1792 C1793 1.396 . S
C1792 C1797 1.390 . S
C1793 C1787 1.465 . S
C1793 C1792 1.396 . S
C1793 C1794 1.399 . S
C1794 H1780 0.929 . S
C1794 C1793 1.399 . S
C1794 C1795 1.385 . S
C1795 H1781 0.931 . S
C1795 C1794 1.385 . S
C1795 C1796 1.389 . S
C1796 C1795 1.389 . S
C1796 C1797 1.387 . S
C1797 H1782 0.930 . S
C1797 C1792 1.390 . S
C1797 C1796 1.387 . S
H1798 C1810 0.930 . S
H1799 C1812 0.930 . S
H1800 C1813 0.930 . S
H1801 C1817 0.959 . S
H1802 C1817 0.959 . S
H1803 C1817 0.961 . S
H1804 C1818 0.960 . S
H1805 C1818 0.961 . S
H1806 C1818 0.959 . S
H1807 C1821 0.929 . S
H1808 C1822 0.931 . S
H1809 C1824 0.930 . S
C1810 H1798 0.930 . S
C1810 C1811 1.399 . S
C1810 C1815 1.399 . S
C1811 C1810 1.399 . S
C1811 C1812 1.376 . S
C1812 H1799 0.930 . S
C1812 C1811 1.376 . S
C1812 C1813 1.388 . S
C1813 H1800 0.930 . S
C1813 C1812 1.388 . S
C1813 C1814 1.390 . S
C1814 C1813 1.390 . S
C1814 C1815 1.394 . S
C1814 C1820 1.465 . S
C1815 C1810 1.399 . S
C1815 C1814 1.394 . S
C1815 C1816 1.516 . S
C1816 C1815 1.516 . S
C1816 C1817 1.502 . S
C1816 C1818 1.561 . S
C1816 C1819 1.526 . S
C1817 H1801 0.959 . S
C1817 H1802 0.959 . S
C1817 H1803 0.961 . S
C1817 C1816 1.502 . S
C1818 H1804 0.960 . S
C1818 H1805 0.961 . S
C1818 H1806 0.959 . S
C1818 C1816 1.561 . S
C1819 C1816 1.526 . S
C1819 C1820 1.396 . S
C1819 C1824 1.390 . S
C1820 C1814 1.465 . S
C1820 C1819 1.396 . S
C1820 C1821 1.399 . S
C1821 H1807 0.929 . S
C1821 C1820 1.399 . S
C1821 C1822 1.385 . S
C1822 H1808 0.931 . S
C1822 C1821 1.385 . S
C1822 C1823 1.389 . S
C1823 C1822 1.389 . S
C1823 C1824 1.387 . S
C1824 H1809 0.930 . S
C1824 C1819 1.390 . S
C1824 C1823 1.387 . S
H1825 C1837 0.930 . S
H1826 C1839 0.930 . S
H1827 C1840 0.930 . S
H1828 C1844 0.959 . S
H1829 C1844 0.959 . S
H1830 C1844 0.961 . S
H1831 C1845 0.960 . S
H1832 C1845 0.961 1_556 S
H1833 C1845 0.959 1_556 S
H1834 C1848 0.929 . S
H1835 C1849 0.931 . S
H1836 C1851 0.930 . S
C1837 H1825 0.930 . S
C1837 C1838 1.399 . S
C1837 C1842 1.399 . S
C1838 C1837 1.399 . S
C1838 C1839 1.376 . S
C1839 H1826 0.930 . S
C1839 C1838 1.376 . S
C1839 C1840 1.388 . S
C1840 H1827 0.930 . S
C1840 C1839 1.388 . S
C1840 C1841 1.390 . S
C1841 C1840 1.390 . S
C1841 C1842 1.394 . S
C1841 C1847 1.465 1_554 S
C1842 C1837 1.399 . S
C1842 C1841 1.394 . S
C1842 C1843 1.516 . S
C1843 C1842 1.516 . S
C1843 C1844 1.502 . S
C1843 C1845 1.561 . S
C1843 C1846 1.526 1_554 S
C1844 H1828 0.959 . S
C1844 H1829 0.959 . S
C1844 H1830 0.961 . S
C1844 C1843 1.502 . S
C1845 H1831 0.960 . S
C1845 H1832 0.961 1_554 S
C1845 H1833 0.959 1_554 S
C1845 C1843 1.561 . S
C1846 C1843 1.526 1_556 S
C1846 C1847 1.396 . S
C1846 C1851 1.390 . S
C1847 C1841 1.465 1_556 S
C1847 C1846 1.396 . S
C1847 C1848 1.399 . S
C1848 H1834 0.929 . S
C1848 C1847 1.399 . S
C1848 C1849 1.385 . S
C1849 H1835 0.931 . S
C1849 C1848 1.385 . S
C1849 C1850 1.389 . S
C1850 C1849 1.389 . S
C1850 C1851 1.387 . S
C1851 H1836 0.930 . S
C1851 C1846 1.390 . S
C1851 C1850 1.387 . S
H1852 C1864 0.930 . S
H1853 C1866 0.930 . S
H1854 C1867 0.930 . S
H1855 C1871 0.959 . S
H1856 C1871 0.959 . S
H1857 C1871 0.961 . S
H1858 C1872 0.960 . S
H1859 C1872 0.961 . S
H1860 C1872 0.959 . S
H1861 C1875 0.929 . S
H1862 C1876 0.931 . S
H1863 C1878 0.930 . S
C1864 H1852 0.930 . S
C1864 C1865 1.399 . S
C1864 C1869 1.399 . S
C1865 C1864 1.399 . S
C1865 C1866 1.376 . S
C1866 H1853 0.930 . S
C1866 C1865 1.376 . S
C1866 C1867 1.388 . S
C1867 H1854 0.930 . S
C1867 C1866 1.388 . S
C1867 C1868 1.390 . S
C1868 C1867 1.390 . S
C1868 C1869 1.394 . S
C1868 C1874 1.465 . S
C1869 C1864 1.399 . S
C1869 C1868 1.394 . S
C1869 C1870 1.516 . S
C1870 C1869 1.516 . S
C1870 C1871 1.502 . S
C1870 C1872 1.561 . S
C1870 C1873 1.526 . S
C1871 H1855 0.959 . S
C1871 H1856 0.959 . S
C1871 H1857 0.961 . S
C1871 C1870 1.502 . S
C1872 H1858 0.960 . S
C1872 H1859 0.961 . S
C1872 H1860 0.959 . S
C1872 C1870 1.561 . S
C1873 C1870 1.526 . S
C1873 C1874 1.396 . S
C1873 C1878 1.390 . S
C1874 C1868 1.465 . S
C1874 C1873 1.396 . S
C1874 C1875 1.399 . S
C1875 H1861 0.929 . S
C1875 C1874 1.399 . S
C1875 C1876 1.385 . S
C1876 H1862 0.931 . S
C1876 C1875 1.385 . S
C1876 C1877 1.389 . S
C1877 C1876 1.389 . S
C1877 C1878 1.387 . S
C1878 H1863 0.930 . S
C1878 C1873 1.390 . S
C1878 C1877 1.387 . S
H1879 C1891 0.930 . S
H1880 C1893 0.930 . S
H1881 C1894 0.930 . S
H1882 C1898 0.959 . S
H1883 C1898 0.959 . S
H1884 C1898 0.961 . S
H1885 C1899 0.960 . S
H1886 C1899 0.961 . S
H1887 C1899 0.959 . S
H1888 C1902 0.929 . S
H1889 C1903 0.931 . S
H1890 C1905 0.930 . S
C1891 H1879 0.930 . S
C1891 C1892 1.399 . S
C1891 C1896 1.399 . S
C1892 C1891 1.399 . S
C1892 C1893 1.376 . S
C1893 H1880 0.930 . S
C1893 C1892 1.376 . S
C1893 C1894 1.388 . S
C1894 H1881 0.930 . S
C1894 C1893 1.388 . S
C1894 C1895 1.390 . S
C1895 C1894 1.390 . S
C1895 C1896 1.394 . S
C1895 C1901 1.465 . S
C1896 C1891 1.399 . S
C1896 C1895 1.394 . S
C1896 C1897 1.516 . S
C1897 C1896 1.516 . S
C1897 C1898 1.502 . S
C1897 C1899 1.561 . S
C1897 C1900 1.526 . S
C1898 H1882 0.959 . S
C1898 H1883 0.959 . S
C1898 H1884 0.961 . S
C1898 C1897 1.502 . S
C1899 H1885 0.960 . S
C1899 H1886 0.961 . S
C1899 H1887 0.959 . S
C1899 C1897 1.561 . S
C1900 C1897 1.526 . S
C1900 C1901 1.396 . S
C1900 C1905 1.390 . S
C1901 C1895 1.465 . S
C1901 C1900 1.396 . S
C1901 C1902 1.399 . S
C1902 H1888 0.929 . S
C1902 C1901 1.399 . S
C1902 C1903 1.385 . S
C1903 H1889 0.931 . S
C1903 C1902 1.385 . S
C1903 C1904 1.389 . S
C1904 C1903 1.389 . S
C1904 C1905 1.387 . S
C1905 H1890 0.930 . S
C1905 C1900 1.390 . S
C1905 C1904 1.387 . S
H1906 C1918 0.930 . S
H1907 C1920 0.930 . S
H1908 C1921 0.930 . S
H1909 C1925 0.959 . S
H1910 C1925 0.959 . S
H1911 C1925 0.961 . S
H1912 C1926 0.960 . S
H1913 C1926 0.961 . S
H1914 C1926 0.959 . S
H1915 C1929 0.929 . S
H1916 C1930 0.931 . S
H1917 C1932 0.930 . S
C1918 H1906 0.930 . S
C1918 C1919 1.399 . S
C1918 C1923 1.399 . S
C1919 C1918 1.399 . S
C1919 C1920 1.376 . S
C1920 H1907 0.930 . S
C1920 C1919 1.376 . S
C1920 C1921 1.388 . S
C1921 H1908 0.930 . S
C1921 C1920 1.388 . S
C1921 C1922 1.390 . S
C1922 C1921 1.390 . S
C1922 C1923 1.394 . S
C1922 C1928 1.465 . S
C1923 C1918 1.399 . S
C1923 C1922 1.394 . S
C1923 C1924 1.516 . S
C1924 C1923 1.516 . S
C1924 C1925 1.502 . S
C1924 C1926 1.561 . S
C1924 C1927 1.526 . S
C1925 H1909 0.959 . S
C1925 H1910 0.959 . S
C1925 H1911 0.961 . S
C1925 C1924 1.502 . S
C1926 H1912 0.960 . S
C1926 H1913 0.961 . S
C1926 H1914 0.959 . S
C1926 C1924 1.561 . S
C1927 C1924 1.526 . S
C1927 C1928 1.396 . S
C1927 C1932 1.390 . S
C1928 C1922 1.465 . S
C1928 C1927 1.396 . S
C1928 C1929 1.399 . S
C1929 H1915 0.929 . S
C1929 C1928 1.399 . S
C1929 C1930 1.385 . S
C1930 H1916 0.931 . S
C1930 C1929 1.385 . S
C1930 C1931 1.389 . S
C1931 C1930 1.389 . S
C1931 C1932 1.387 . S
C1932 H1917 0.930 . S
C1932 C1927 1.390 . S
C1932 C1931 1.387 . S
H1933 C1945 0.930 . S
H1934 C1947 0.930 . S
H1935 C1948 0.930 . S
H1936 C1952 0.959 . S
H1937 C1952 0.959 . S
H1938 C1952 0.961 . S
H1939 C1953 0.960 . S
H1940 C1953 0.961 . S
H1941 C1953 0.959 . S
H1942 C1956 0.929 . S
H1943 C1957 0.931 . S
H1944 C1959 0.930 . S
C1945 H1933 0.930 . S
C1945 C1946 1.399 . S
C1945 C1950 1.399 . S
C1946 C1945 1.399 . S
C1946 C1947 1.376 . S
C1947 H1934 0.930 . S
C1947 C1946 1.376 . S
C1947 C1948 1.388 . S
C1948 H1935 0.930 . S
C1948 C1947 1.388 . S
C1948 C1949 1.390 . S
C1949 C1948 1.390 . S
C1949 C1950 1.394 . S
C1949 C1955 1.465 . S
C1950 C1945 1.399 . S
C1950 C1949 1.394 . S
C1950 C1951 1.516 . S
C1951 C1950 1.516 . S
C1951 C1952 1.502 . S
C1951 C1953 1.561 . S
C1951 C1954 1.526 . S
C1952 H1936 0.959 . S
C1952 H1937 0.959 . S
C1952 H1938 0.961 . S
C1952 C1951 1.502 . S
C1953 H1939 0.960 . S
C1953 H1940 0.961 . S
C1953 H1941 0.959 . S
C1953 C1951 1.561 . S
C1954 C1951 1.526 . S
C1954 C1955 1.396 . S
C1954 C1959 1.390 . S
C1955 C1949 1.465 . S
C1955 C1954 1.396 . S
C1955 C1956 1.399 . S
C1956 H1942 0.929 . S
C1956 C1955 1.399 . S
C1956 C1957 1.385 . S
C1957 H1943 0.931 . S
C1957 C1956 1.385 . S
C1957 C1958 1.389 . S
C1958 C1957 1.389 . S
C1958 C1959 1.387 . S
C1959 H1944 0.930 . S
C1959 C1954 1.390 . S
C1959 C1958 1.387 . S
H1960 C1972 0.930 . S
H1961 C1974 0.930 . S
H1962 C1975 0.930 . S
H1963 C1979 0.959 . S
H1964 C1979 0.959 . S
H1965 C1979 0.961 1_554 S
H1966 C1980 0.960 . S
H1967 C1980 0.961 . S
H1968 C1980 0.959 . S
H1969 C1983 0.929 . S
H1970 C1984 0.931 . S
H1971 C1986 0.930 . S
C1972 H1960 0.930 . S
C1972 C1973 1.399 . S
C1972 C1977 1.399 . S
C1973 C1972 1.399 . S
C1973 C1974 1.376 . S
C1974 H1961 0.930 . S
C1974 C1973 1.376 . S
C1974 C1975 1.388 . S
C1975 H1962 0.930 . S
C1975 C1974 1.388 . S
C1975 C1976 1.390 . S
C1976 C1975 1.390 . S
C1976 C1977 1.394 . S
C1976 C1982 1.465 . S
C1977 C1972 1.399 . S
C1977 C1976 1.394 . S
C1977 C1978 1.516 . S
C1978 C1977 1.516 . S
C1978 C1979 1.502 1_554 S
C1978 C1980 1.561 . S
C1978 C1981 1.526 . S
C1979 H1963 0.959 . S
C1979 H1964 0.959 . S
C1979 H1965 0.961 1_556 S
C1979 C1978 1.502 1_556 S
C1980 H1966 0.960 . S
C1980 H1967 0.961 . S
C1980 H1968 0.959 . S
C1980 C1978 1.561 . S
C1981 C1978 1.526 . S
C1981 C1982 1.396 . S
C1981 C1986 1.390 1_554 S
C1982 C1976 1.465 . S
C1982 C1981 1.396 . S
C1982 C1983 1.399 . S
C1983 H1969 0.929 . S
C1983 C1982 1.399 . S
C1983 C1984 1.385 1_554 S
C1984 H1970 0.931 . S
C1984 C1983 1.385 1_556 S
C1984 C1985 1.389 . S
C1985 C1984 1.389 . S
C1985 C1986 1.387 . S
C1986 H1971 0.930 . S
C1986 C1981 1.390 1_556 S
C1986 C1985 1.387 . S
H1987 C1999 0.930 . S
H1988 C2001 0.930 . S
H1989 C2002 0.930 . S
H1990 C2006 0.959 . S
H1991 C2006 0.959 . S
H1992 C2006 0.961 . S
H1993 C2007 0.960 . S
H1994 C2007 0.961 . S
H1995 C2007 0.959 . S
H1996 C2010 0.929 . S
H1997 C2011 0.931 . S
H1998 C2013 0.930 . S
C1999 H1987 0.930 . S
C1999 C2000 1.399 . S
C1999 C2004 1.399 . S
C2000 C1999 1.399 . S
C2000 C2001 1.376 . S
C2001 H1988 0.930 . S
C2001 C2000 1.376 . S
C2001 C2002 1.388 . S
C2002 H1989 0.930 . S
C2002 C2001 1.388 . S
C2002 C2003 1.390 . S
C2003 C2002 1.390 . S
C2003 C2004 1.394 . S
C2003 C2009 1.465 . S
C2004 C1999 1.399 . S
C2004 C2003 1.394 . S
C2004 C2005 1.516 . S
C2005 C2004 1.516 . S
C2005 C2006 1.502 . S
C2005 C2007 1.561 . S
C2005 C2008 1.526 . S
C2006 H1990 0.959 . S
C2006 H1991 0.959 . S
C2006 H1992 0.961 . S
C2006 C2005 1.502 . S
C2007 H1993 0.960 . S
C2007 H1994 0.961 . S
C2007 H1995 0.959 . S
C2007 C2005 1.561 . S
C2008 C2005 1.526 . S
C2008 C2009 1.396 . S
C2008 C2013 1.390 . S
C2009 C2003 1.465 . S
C2009 C2008 1.396 . S
C2009 C2010 1.399 . S
C2010 H1996 0.929 . S
C2010 C2009 1.399 . S
C2010 C2011 1.385 . S
C2011 H1997 0.931 . S
C2011 C2010 1.385 . S
C2011 C2012 1.389 . S
C2012 C2011 1.389 . S
C2012 C2013 1.387 . S
C2013 H1998 0.930 . S
C2013 C2008 1.390 . S
C2013 C2012 1.387 . S
H2014 C2026 0.930 . S
H2015 C2028 0.930 . S
H2016 C2029 0.930 . S
H2017 C2033 0.959 . S
H2018 C2033 0.959 . S
H2019 C2033 0.961 . S
H2020 C2034 0.960 . S
H2021 C2034 0.961 . S
H2022 C2034 0.959 . S
H2023 C2037 0.929 . S
H2024 C2038 0.931 . S
H2025 C2040 0.930 . S
C2026 H2014 0.930 . S
C2026 C2027 1.399 . S
C2026 C2031 1.399 . S
C2027 C2026 1.399 . S
C2027 C2028 1.376 . S
C2028 H2015 0.930 . S
C2028 C2027 1.376 . S
C2028 C2029 1.388 . S
C2029 H2016 0.930 . S
C2029 C2028 1.388 . S
C2029 C2030 1.390 . S
C2030 C2029 1.390 . S
C2030 C2031 1.394 . S
C2030 C2036 1.465 . S
C2031 C2026 1.399 . S
C2031 C2030 1.394 . S
C2031 C2032 1.516 . S
C2032 C2031 1.516 . S
C2032 C2033 1.502 . S
C2032 C2034 1.561 . S
C2032 C2035 1.526 . S
C2033 H2017 0.959 . S
C2033 H2018 0.959 . S
C2033 H2019 0.961 . S
C2033 C2032 1.502 . S
C2034 H2020 0.960 . S
C2034 H2021 0.961 . S
C2034 H2022 0.959 . S
C2034 C2032 1.561 . S
C2035 C2032 1.526 . S
C2035 C2036 1.396 . S
C2035 C2040 1.390 . S
C2036 C2030 1.465 . S
C2036 C2035 1.396 . S
C2036 C2037 1.399 . S
C2037 H2023 0.929 . S
C2037 C2036 1.399 . S
C2037 C2038 1.385 . S
C2038 H2024 0.931 . S
C2038 C2037 1.385 . S
C2038 C2039 1.389 . S
C2039 C2038 1.389 . S
C2039 C2040 1.387 . S
C2040 H2025 0.930 . S
C2040 C2035 1.390 . S
C2040 C2039 1.387 . S
H2041 C2053 0.930 . S
H2042 C2055 0.930 . S
H2043 C2056 0.930 . S
H2044 C2060 0.959 . S
H2045 C2060 0.959 . S
H2046 C2060 0.961 . S
H2047 C2061 0.960 . S
H2048 C2061 0.961 . S
H2049 C2061 0.959 . S
H2050 C2064 0.929 . S
H2051 C2065 0.931 . S
H2052 C2067 0.930 . S
C2053 H2041 0.930 . S
C2053 C2054 1.399 . S
C2053 C2058 1.399 . S
C2054 C2053 1.399 . S
C2054 C2055 1.376 . S
C2055 H2042 0.930 . S
C2055 C2054 1.376 . S
C2055 C2056 1.388 . S
C2056 H2043 0.930 . S
C2056 C2055 1.388 . S
C2056 C2057 1.390 . S
C2057 C2056 1.390 . S
C2057 C2058 1.394 . S
C2057 C2063 1.465 . S
C2058 C2053 1.399 . S
C2058 C2057 1.394 . S
C2058 C2059 1.516 . S
C2059 C2058 1.516 . S
C2059 C2060 1.502 . S
C2059 C2061 1.561 . S
C2059 C2062 1.526 . S
C2060 H2044 0.959 . S
C2060 H2045 0.959 . S
C2060 H2046 0.961 . S
C2060 C2059 1.502 . S
C2061 H2047 0.960 . S
C2061 H2048 0.961 . S
C2061 H2049 0.959 . S
C2061 C2059 1.561 . S
C2062 C2059 1.526 . S
C2062 C2063 1.396 . S
C2062 C2067 1.390 . S
C2063 C2057 1.465 . S
C2063 C2062 1.396 . S
C2063 C2064 1.399 . S
C2064 H2050 0.929 . S
C2064 C2063 1.399 . S
C2064 C2065 1.385 . S
C2065 H2051 0.931 . S
C2065 C2064 1.385 . S
C2065 C2066 1.389 . S
C2066 C2065 1.389 . S
C2066 C2067 1.387 . S
C2067 H2052 0.930 . S
C2067 C2062 1.390 . S
C2067 C2066 1.387 . S
H2068 C2080 0.930 . S
H2069 C2082 0.930 . S
H2070 C2083 0.930 . S
H2071 C2087 0.959 . S
H2072 C2087 0.959 . S
H2073 C2087 0.961 . S
H2074 C2088 0.960 . S
H2075 C2088 0.961 . S
H2076 C2088 0.959 . S
H2077 C2091 0.929 . S
H2078 C2092 0.931 . S
H2079 C2094 0.930 . S
C2080 H2068 0.930 . S
C2080 C2081 1.399 . S
C2080 C2085 1.399 1_554 S
C2081 C2080 1.399 . S
C2081 C2082 1.376 . S
C2082 H2069 0.930 . S
C2082 C2081 1.376 . S
C2082 C2083 1.388 . S
C2083 H2070 0.930 . S
C2083 C2082 1.388 . S
C2083 C2084 1.390 . S
C2084 C2083 1.390 . S
C2084 C2085 1.394 1_554 S
C2084 C2090 1.465 1_554 S
C2085 C2080 1.399 1_556 S
C2085 C2084 1.394 1_556 S
C2085 C2086 1.516 . S
C2086 C2085 1.516 . S
C2086 C2087 1.502 . S
C2086 C2088 1.561 . S
C2086 C2089 1.526 . S
C2087 H2071 0.959 . S
C2087 H2072 0.959 . S
C2087 H2073 0.961 . S
C2087 C2086 1.502 . S
C2088 H2074 0.960 . S
C2088 H2075 0.961 . S
C2088 H2076 0.959 . S
C2088 C2086 1.561 . S
C2089 C2086 1.526 . S
C2089 C2090 1.396 . S
C2089 C2094 1.390 . S
C2090 C2084 1.465 1_556 S
C2090 C2089 1.396 . S
C2090 C2091 1.399 . S
C2091 H2077 0.929 . S
C2091 C2090 1.399 . S
C2091 C2092 1.385 . S
C2092 H2078 0.931 . S
C2092 C2091 1.385 . S
C2092 C2093 1.389 . S
C2093 C2092 1.389 . S
C2093 C2094 1.387 . S
C2094 H2079 0.930 . S
C2094 C2089 1.390 . S
C2094 C2093 1.387 . S
H2095 C2107 0.930 . S
H2096 C2109 0.930 . S
H2097 C2110 0.930 . S
H2098 C2114 0.959 . S
H2099 C2114 0.959 . S
H2100 C2114 0.961 . S
H2101 C2115 0.960 . S
H2102 C2115 0.961 . S
H2103 C2115 0.959 . S
H2104 C2118 0.929 . S
H2105 C2119 0.931 . S
H2106 C2121 0.930 . S
C2107 H2095 0.930 . S
C2107 C2108 1.399 . S
C2107 C2112 1.399 . S
C2108 C2107 1.399 . S
C2108 C2109 1.376 . S
C2109 H2096 0.930 . S
C2109 C2108 1.376 . S
C2109 C2110 1.388 . S
C2110 H2097 0.930 . S
C2110 C2109 1.388 . S
C2110 C2111 1.390 . S
C2111 C2110 1.390 . S
C2111 C2112 1.394 . S
C2111 C2117 1.465 . S
C2112 C2107 1.399 . S
C2112 C2111 1.394 . S
C2112 C2113 1.516 . S
C2113 C2112 1.516 . S
C2113 C2114 1.502 . S
C2113 C2115 1.561 . S
C2113 C2116 1.526 . S
C2114 H2098 0.959 . S
C2114 H2099 0.959 . S
C2114 H2100 0.961 . S
C2114 C2113 1.502 . S
C2115 H2101 0.960 . S
C2115 H2102 0.961 . S
C2115 H2103 0.959 . S
C2115 C2113 1.561 . S
C2116 C2113 1.526 . S
C2116 C2117 1.396 . S
C2116 C2121 1.390 . S
C2117 C2111 1.465 . S
C2117 C2116 1.396 . S
C2117 C2118 1.399 . S
C2118 H2104 0.929 . S
C2118 C2117 1.399 . S
C2118 C2119 1.385 . S
C2119 H2105 0.931 . S
C2119 C2118 1.385 . S
C2119 C2120 1.389 . S
C2120 C2119 1.389 . S
C2120 C2121 1.387 . S
C2121 H2106 0.930 . S
C2121 C2116 1.390 . S
C2121 C2120 1.387 . S
H2122 C2134 0.930 . S
H2123 C2136 0.930 . S
H2124 C2137 0.930 . S
H2125 C2141 0.959 . S
H2126 C2141 0.959 . S
H2127 C2141 0.961 . S
H2128 C2142 0.960 . S
H2129 C2142 0.961 . S
H2130 C2142 0.959 . S
H2131 C2145 0.929 . S
H2132 C2146 0.931 . S
H2133 C2148 0.930 . S
C2134 H2122 0.930 . S
C2134 C2135 1.399 . S
C2134 C2139 1.399 . S
C2135 C2134 1.399 . S
C2135 C2136 1.376 . S
C2136 H2123 0.930 . S
C2136 C2135 1.376 . S
C2136 C2137 1.388 . S
C2137 H2124 0.930 . S
C2137 C2136 1.388 . S
C2137 C2138 1.390 . S
C2138 C2137 1.390 . S
C2138 C2139 1.394 . S
C2138 C2144 1.465 . S
C2139 C2134 1.399 . S
C2139 C2138 1.394 . S
C2139 C2140 1.516 . S
C2140 C2139 1.516 . S
C2140 C2141 1.502 . S
C2140 C2142 1.561 . S
C2140 C2143 1.526 . S
C2141 H2125 0.959 . S
C2141 H2126 0.959 . S
C2141 H2127 0.961 . S
C2141 C2140 1.502 . S
C2142 H2128 0.960 . S
C2142 H2129 0.961 . S
C2142 H2130 0.959 . S
C2142 C2140 1.561 . S
C2143 C2140 1.526 . S
C2143 C2144 1.396 . S
C2143 C2148 1.390 . S
C2144 C2138 1.465 . S
C2144 C2143 1.396 . S
C2144 C2145 1.399 . S
C2145 H2131 0.929 . S
C2145 C2144 1.399 . S
C2145 C2146 1.385 . S
C2146 H2132 0.931 . S
C2146 C2145 1.385 . S
C2146 C2147 1.389 . S
C2147 C2146 1.389 . S
C2147 C2148 1.387 . S
C2148 H2133 0.930 . S
C2148 C2143 1.390 . S
C2148 C2147 1.387 . S
H2149 C2161 0.930 . S
H2150 C2163 0.930 . S
H2151 C2164 0.930 . S
H2152 C2168 0.959 . S
H2153 C2168 0.959 . S
H2154 C2168 0.961 . S
H2155 C2169 0.960 . S
H2156 C2169 0.961 . S
H2157 C2169 0.959 . S
H2158 C2172 0.929 . S
H2159 C2173 0.931 . S
H2160 C2175 0.930 . S
C2161 H2149 0.930 . S
C2161 C2162 1.399 . S
C2161 C2166 1.399 . S
C2162 C2161 1.399 . S
C2162 C2163 1.376 . S
C2163 H2150 0.930 . S
C2163 C2162 1.376 . S
C2163 C2164 1.388 . S
C2164 H2151 0.930 . S
C2164 C2163 1.388 . S
C2164 C2165 1.390 . S
C2165 C2164 1.390 . S
C2165 C2166 1.394 . S
C2165 C2171 1.465 . S
C2166 C2161 1.399 . S
C2166 C2165 1.394 . S
C2166 C2167 1.516 . S
C2167 C2166 1.516 . S
C2167 C2168 1.502 . S
C2167 C2169 1.561 . S
C2167 C2170 1.526 . S
C2168 H2152 0.959 . S
C2168 H2153 0.959 . S
C2168 H2154 0.961 . S
C2168 C2167 1.502 . S
C2169 H2155 0.960 . S
C2169 H2156 0.961 . S
C2169 H2157 0.959 . S
C2169 C2167 1.561 . S
C2170 C2167 1.526 . S
C2170 C2171 1.396 . S
C2170 C2175 1.390 . S
C2171 C2165 1.465 . S
C2171 C2170 1.396 . S
C2171 C2172 1.399 . S
C2172 H2158 0.929 . S
C2172 C2171 1.399 . S
C2172 C2173 1.385 . S
C2173 H2159 0.931 . S
C2173 C2172 1.385 . S
C2173 C2174 1.389 . S
C2174 C2173 1.389 . S
C2174 C2175 1.387 . S
C2175 H2160 0.930 . S
C2175 C2170 1.390 . S
C2175 C2174 1.387 . S
C461 C8 1.082 . S
C473 C190 1.017 . S
C488 C358 1.193 . S
C500 C22 1.196 . S
C515 C36 1.173 . S
C527 C218 1.216 . S
C542 C50 1.338 . S
C554 C344 1.329 . S
C569 C64 1.347 . S
C581 C246 1.307 . S
C596 C78 1.284 . S
C608 C316 1.280 . S
C623 C92 1.310 . S
C635 C274 1.272 . S
C650 C442 1.020 . S
C662 C106 0.998 . S
C677 C302 1.323 . S
C689 C120 1.372 . S
C704 C134 1.307 . S
C716 C260 1.269 . S
C731 C330 1.314 . S
C743 C148 1.324 . S
C758 C162 1.326 . S
C770 C232 1.340 . S
C785 C204 1.198 . S
C797 C176 1.245 . S
C812 C288 0.999 . S
C824 C400 1.045 . S
C839 C414 1.011 . S
C851 C372 1.082 . S
C866 C428 1.178 . S
C878 C386 1.237 . S
C893 C13 1.495 . S
C905 C27 1.545 . S
C920 C39 1.605 . S
C932 C21 1.608 . S
C947 C55 1.556 . S
C959 C41 1.491 . S
C974 C49 1.592 . S
C986 C11 1.583 . S
C1001 C105 1.700 . S
C1013 C69 1.594 . S
C1028 C81 1.222 . S
C1040 C67 1.223 . S
C1055 C91 1.479 . S
C1067 C77 1.472 . S
C1082 C97 1.276 . S
C1094 C109 1.341 . S
C1109 C139 1.327 . S
C1121 C7 1.393 . S
C1136 C119 1.563 . S
C1148 C53 1.556 . S
C1163 C151 1.339 . S
C1175 C25 1.345 . S
C1190 C385 1.575 . S
C1202 C111 1.423 . S
C1217 C405 1.397 . S
C1229 C35 1.594 . S
C1244 C165 1.553 . S
C1256 C63 1.561 . S
C1271 C95 1.323 . S
C1283 C179 1.311 . S
C1298 C203 1.465 . S
C1310 C195 1.331 . S
C1325 C217 1.492 . S
C1337 C209 1.388 . S
C1352 C237 1.341 . S
C1364 C223 1.334 . S
C1379 C189 1.539 . S
C1391 C235 1.509 . S
C1406 C245 1.492 . S
C1418 C293 1.453 . S
C1433 C249 1.390 . S
C1445 C263 1.438 . S
C1460 C279 1.534 . S
C1472 C265 1.513 . S
C1487 C273 1.464 . S
C1499 C291 1.517 . S
C1514 C193 1.598 . S
C1526 C315 1.645 . S
C1541 C307 1.444 . S
C1553 C231 1.556 . S
C1568 C333 1.302 . S
C1580 C207 1.353 . S
C1595 C431 1.578 . S
C1607 C287 1.604 . S
C1622 C441 1.576 . S
C1634 C221 1.605 . S
C1649 C251 1.461 . S
C1661 C343 1.514 . S
C1676 C361 1.310 . S
C1688 C277 1.345 . S
C1703 C181 1.568 . S
C1715 C377 1.472 . S
C1730 C389 1.600 . S
C1742 C175 1.604 . S
C1757 C167 1.511 . S
C1769 C391 1.532 . S
C1784 C161 1.585 . S
C1796 C375 1.572 . S
C1811 C125 1.499 . S
C1823 C399 1.681 . S
C1838 C137 1.224 . S
C1850 C123 1.225 . S
C1865 C147 1.449 . S
C1877 C133 1.459 . S
C1892 C153 1.275 . S
C1904 C403 1.341 . S
C1919 C371 1.386 . S
C1931 C83 1.209 . S
C1946 C357 1.416 . S
C1958 C419 1.397 . S
C1973 C363 1.400 . S
C1985 C427 1.534 . S
C2000 C433 1.413 . S
C2012 C349 1.398 . S
C2027 C347 1.542 . S
C2039 C413 1.506 . S
C2054 C447 1.464 . S
C2066 C301 1.518 . S
C2081 C305 1.433 . S
C2093 C319 1.396 . S
C2108 C335 1.478 . S
C2120 C321 1.495 . S
C2135 C329 1.471 . S
C2147 C445 1.512 . S
C2162 C417 1.617 . S
C2174 C259 1.631 . S
