# Generated by pormake.
# Topology unu, (4)-cn, num edge types: 1
# Building blocks:
#     Node 0, Type 0, BuildingBlock: QUQFOY_clean_sbu_1, # of connection points: 4
#     Node 1, Type 0, BuildingBlock: QUQFOY_clean_sbu_1, # of connection points: 4
#     Node 2, Type 0, BuildingBlock: QUQFOY_clean_sbu_1, # of connection points: 4
#     Node 3, Type 0, BuildingBlock: QUQFOY_clean_sbu_1, # of connection points: 4
#     Node 4, Type 0, BuildingBlock: QUQFOY_clean_sbu_1, # of connection points: 4
#     Node 5, Type 0, BuildingBlock: QUQFOY_clean_sbu_1, # of connection points: 4
#     Node 6, Type 0, BuildingBlock: QUQFOY_clean_sbu_1, # of connection points: 4
#     Node 7, Type 0, BuildingBlock: QUQFOY_clean_sbu_1, # of connection points: 4
#     Node 8, Type 0, BuildingBlock: QUQFOY_clean_sbu_1, # of connection points: 4
#     Node 9, Type 0, BuildingBlock: QUQFOY_clean_sbu_1, # of connection points: 4
#     Node 10, Type 0, BuildingBlock: QUQFOY_clean_sbu_1, # of connection points: 4
#     Node 11, Type 0, BuildingBlock: QUQFOY_clean_sbu_1, # of connection points: 4
#     Node 12, Type 0, BuildingBlock: QUQFOY_clean_sbu_1, # of connection points: 4
#     Node 13, Type 0, BuildingBlock: QUQFOY_clean_sbu_1, # of connection points: 4
#     Node 14, Type 0, BuildingBlock: QUQFOY_clean_sbu_1, # of connection points: 4
#     Node 15, Type 0, BuildingBlock: QUQFOY_clean_sbu_1, # of connection points: 4
#     Node 16, Type 0, BuildingBlock: QUQFOY_clean_sbu_1, # of connection points: 4
#     Node 17, Type 0, BuildingBlock: QUQFOY_clean_sbu_1, # of connection points: 4
#     Node 18, Type 0, BuildingBlock: QUQFOY_clean_sbu_1, # of connection points: 4
#     Node 19, Type 0, BuildingBlock: QUQFOY_clean_sbu_1, # of connection points: 4
#     Node 20, Type 0, BuildingBlock: QUQFOY_clean_sbu_1, # of connection points: 4
#     Node 21, Type 0, BuildingBlock: QUQFOY_clean_sbu_1, # of connection points: 4
#     Node 22, Type 0, BuildingBlock: QUQFOY_clean_sbu_1, # of connection points: 4
#     Node 23, Type 0, BuildingBlock: QUQFOY_clean_sbu_1, # of connection points: 4
#     Node 24, Type 0, BuildingBlock: QUQFOY_clean_sbu_1, # of connection points: 4
#     Node 25, Type 0, BuildingBlock: QUQFOY_clean_sbu_1, # of connection points: 4
#     Node 26, Type 0, BuildingBlock: QUQFOY_clean_sbu_1, # of connection points: 4
#     Node 27, Type 0, BuildingBlock: QUQFOY_clean_sbu_1, # of connection points: 4
#     Node 28, Type 0, BuildingBlock: QUQFOY_clean_sbu_1, # of connection points: 4
#     Node 29, Type 0, BuildingBlock: QUQFOY_clean_sbu_1, # of connection points: 4
#     Node 30, Type 0, BuildingBlock: QUQFOY_clean_sbu_1, # of connection points: 4
#     Node 31, Type 0, BuildingBlock: QUQFOY_clean_sbu_1, # of connection points: 4
#     Node 32, Type 0, BuildingBlock: QUQFOY_clean_sbu_1, # of connection points: 4
#     Node 33, Type 0, BuildingBlock: QUQFOY_clean_sbu_1, # of connection points: 4
#     Node 34, Type 0, BuildingBlock: QUQFOY_clean_sbu_1, # of connection points: 4
#     Node 35, Type 0, BuildingBlock: QUQFOY_clean_sbu_1, # of connection points: 4
#     Edge 36, Type (0, 0), BuildingBlock: TEMPAE_clean_linker_10, # of connection points: 2
#     Edge 37, Type (0, 0), BuildingBlock: TEMPAE_clean_linker_10, # of connection points: 2
#     Edge 38, Type (0, 0), BuildingBlock: TEMPAE_clean_linker_10, # of connection points: 2
#     Edge 39, Type (0, 0), BuildingBlock: TEMPAE_clean_linker_10, # of connection points: 2
#     Edge 40, Type (0, 0), BuildingBlock: TEMPAE_clean_linker_10, # of connection points: 2
#     Edge 41, Type (0, 0), BuildingBlock: TEMPAE_clean_linker_10, # of connection points: 2
#     Edge 42, Type (0, 0), BuildingBlock: TEMPAE_clean_linker_10, # of connection points: 2
#     Edge 43, Type (0, 0), BuildingBlock: TEMPAE_clean_linker_10, # of connection points: 2
#     Edge 44, Type (0, 0), BuildingBlock: TEMPAE_clean_linker_10, # of connection points: 2
#     Edge 45, Type (0, 0), BuildingBlock: TEMPAE_clean_linker_10, # of connection points: 2
#     Edge 46, Type (0, 0), BuildingBlock: TEMPAE_clean_linker_10, # of connection points: 2
#     Edge 47, Type (0, 0), BuildingBlock: TEMPAE_clean_linker_10, # of connection points: 2
#     Edge 48, Type (0, 0), BuildingBlock: TEMPAE_clean_linker_10, # of connection points: 2
#     Edge 49, Type (0, 0), BuildingBlock: TEMPAE_clean_linker_10, # of connection points: 2
#     Edge 50, Type (0, 0), BuildingBlock: TEMPAE_clean_linker_10, # of connection points: 2
#     Edge 51, Type (0, 0), BuildingBlock: TEMPAE_clean_linker_10, # of connection points: 2
#     Edge 52, Type (0, 0), BuildingBlock: TEMPAE_clean_linker_10, # of connection points: 2
#     Edge 53, Type (0, 0), BuildingBlock: TEMPAE_clean_linker_10, # of connection points: 2
#     Edge 54, Type (0, 0), BuildingBlock: TEMPAE_clean_linker_10, # of connection points: 2
#     Edge 55, Type (0, 0), BuildingBlock: TEMPAE_clean_linker_10, # of connection points: 2
#     Edge 56, Type (0, 0), BuildingBlock: TEMPAE_clean_linker_10, # of connection points: 2
#     Edge 57, Type (0, 0), BuildingBlock: TEMPAE_clean_linker_10, # of connection points: 2
#     Edge 58, Type (0, 0), BuildingBlock: TEMPAE_clean_linker_10, # of connection points: 2
#     Edge 59, Type (0, 0), BuildingBlock: TEMPAE_clean_linker_10, # of connection points: 2
#     Edge 60, Type (0, 0), BuildingBlock: TEMPAE_clean_linker_10, # of connection points: 2
#     Edge 61, Type (0, 0), BuildingBlock: TEMPAE_clean_linker_10, # of connection points: 2
#     Edge 62, Type (0, 0), BuildingBlock: TEMPAE_clean_linker_10, # of connection points: 2
#     Edge 63, Type (0, 0), BuildingBlock: TEMPAE_clean_linker_10, # of connection points: 2
#     Edge 64, Type (0, 0), BuildingBlock: TEMPAE_clean_linker_10, # of connection points: 2
#     Edge 65, Type (0, 0), BuildingBlock: TEMPAE_clean_linker_10, # of connection points: 2
#     Edge 66, Type (0, 0), BuildingBlock: TEMPAE_clean_linker_10, # of connection points: 2
#     Edge 67, Type (0, 0), BuildingBlock: TEMPAE_clean_linker_10, # of connection points: 2
#     Edge 68, Type (0, 0), BuildingBlock: TEMPAE_clean_linker_10, # of connection points: 2
#     Edge 69, Type (0, 0), BuildingBlock: TEMPAE_clean_linker_10, # of connection points: 2
#     Edge 70, Type (0, 0), BuildingBlock: TEMPAE_clean_linker_10, # of connection points: 2
#     Edge 71, Type (0, 0), BuildingBlock: TEMPAE_clean_linker_10, # of connection points: 2
#     Edge 72, Type (0, 0), BuildingBlock: TEMPAE_clean_linker_10, # of connection points: 2
#     Edge 73, Type (0, 0), BuildingBlock: TEMPAE_clean_linker_10, # of connection points: 2
#     Edge 74, Type (0, 0), BuildingBlock: TEMPAE_clean_linker_10, # of connection points: 2
#     Edge 75, Type (0, 0), BuildingBlock: TEMPAE_clean_linker_10, # of connection points: 2
#     Edge 76, Type (0, 0), BuildingBlock: TEMPAE_clean_linker_10, # of connection points: 2
#     Edge 77, Type (0, 0), BuildingBlock: TEMPAE_clean_linker_10, # of connection points: 2
#     Edge 78, Type (0, 0), BuildingBlock: TEMPAE_clean_linker_10, # of connection points: 2
#     Edge 79, Type (0, 0), BuildingBlock: TEMPAE_clean_linker_10, # of connection points: 2
#     Edge 80, Type (0, 0), BuildingBlock: TEMPAE_clean_linker_10, # of connection points: 2
#     Edge 81, Type (0, 0), BuildingBlock: TEMPAE_clean_linker_10, # of connection points: 2
#     Edge 82, Type (0, 0), BuildingBlock: TEMPAE_clean_linker_10, # of connection points: 2
#     Edge 83, Type (0, 0), BuildingBlock: TEMPAE_clean_linker_10, # of connection points: 2
#     Edge 84, Type (0, 0), BuildingBlock: TEMPAE_clean_linker_10, # of connection points: 2
#     Edge 85, Type (0, 0), BuildingBlock: TEMPAE_clean_linker_10, # of connection points: 2
#     Edge 86, Type (0, 0), BuildingBlock: TEMPAE_clean_linker_10, # of connection points: 2
#     Edge 87, Type (0, 0), BuildingBlock: TEMPAE_clean_linker_10, # of connection points: 2
#     Edge 88, Type (0, 0), BuildingBlock: TEMPAE_clean_linker_10, # of connection points: 2
#     Edge 89, Type (0, 0), BuildingBlock: TEMPAE_clean_linker_10, # of connection points: 2
#     Edge 90, Type (0, 0), BuildingBlock: TEMPAE_clean_linker_10, # of connection points: 2
#     Edge 91, Type (0, 0), BuildingBlock: TEMPAE_clean_linker_10, # of connection points: 2
#     Edge 92, Type (0, 0), BuildingBlock: TEMPAE_clean_linker_10, # of connection points: 2
#     Edge 93, Type (0, 0), BuildingBlock: TEMPAE_clean_linker_10, # of connection points: 2
#     Edge 94, Type (0, 0), BuildingBlock: TEMPAE_clean_linker_10, # of connection points: 2
#     Edge 95, Type (0, 0), BuildingBlock: TEMPAE_clean_linker_10, # of connection points: 2
#     Edge 96, Type (0, 0), BuildingBlock: TEMPAE_clean_linker_10, # of connection points: 2
#     Edge 97, Type (0, 0), BuildingBlock: TEMPAE_clean_linker_10, # of connection points: 2
#     Edge 98, Type (0, 0), BuildingBlock: TEMPAE_clean_linker_10, # of connection points: 2
#     Edge 99, Type (0, 0), BuildingBlock: TEMPAE_clean_linker_10, # of connection points: 2
#     Edge 100, Type (0, 0), BuildingBlock: TEMPAE_clean_linker_10, # of connection points: 2
#     Edge 101, Type (0, 0), BuildingBlock: TEMPAE_clean_linker_10, # of connection points: 2
#     Edge 102, Type (0, 0), BuildingBlock: TEMPAE_clean_linker_10, # of connection points: 2
#     Edge 103, Type (0, 0), BuildingBlock: TEMPAE_clean_linker_10, # of connection points: 2
#     Edge 104, Type (0, 0), BuildingBlock: TEMPAE_clean_linker_10, # of connection points: 2
#     Edge 105, Type (0, 0), BuildingBlock: TEMPAE_clean_linker_10, # of connection points: 2
#     Edge 106, Type (0, 0), BuildingBlock: TEMPAE_clean_linker_10, # of connection points: 2
#     Edge 107, Type (0, 0), BuildingBlock: TEMPAE_clean_linker_10, # of connection points: 2
# Relax obj value: 0.084
# Max RMSD: 0.132
# Mean RMSD: 0.132
data_MOF--net-unu--node1-QUQFOY_clean_sbu_1--edge1-TEMPAE_clean_linker_10
_symmetry_space_group_name_H-M    P1
_symmetry_Int_Tables_number       1
_symmetry_cell_setting            triclinic
loop_
_symmetry_equiv_pos_as_xyz
'x, y, z'
_cell_length_a     44.44419
_cell_length_b     44.448383
_cell_length_c     130.31897
_cell_angle_alpha  89.979919
_cell_angle_beta   89.988074
_cell_angle_gamma 120.00347
loop_
_atom_site_label
_atom_site_type_symbol
_atom_site_fract_x
_atom_site_fract_y
_atom_site_fract_z
_atom_type_partial_charge
O0 O 0.17623 1.00165 0.11607 0.0
Cd1 Cd 0.21866 0.04886 0.11245 0.0
Cd2 Cd 0.2124 0.05842 0.13365 0.0
O3 O 0.1723 0.00693 0.13283 0.0
O4 O 0.23397 0.03929 0.099 0.0
O5 O 0.26627 0.05329 0.11298 0.0
C6 C 0.26164 0.04344 0.1035 0.0
C7 C 0.24865 0.08351 0.14792 0.0
C8 C 0.16126 0.98922 0.1246 0.0
C9 C 0.20041 0.10281 0.11807 0.0
O10 O 0.20116 0.09364 0.12723 0.0
O11 O 0.20763 0.08902 0.11059 0.0
O12 O 0.21601 0.07344 0.14827 0.0
O13 O 0.26038 0.07645 0.13975 0.0
O14 O 0.01325 0.17878 0.11591 0.0
Cd15 Cd 0.96597 0.1738 0.11225 0.0
Cd16 Cd 0.95627 0.1583 0.1334 0.0
O17 O 1.00781 0.16977 0.13268 0.0
O18 O 0.97569 0.19883 0.09881 0.0
O19 O 0.96107 0.21674 0.11276 0.0
C20 C 0.97116 0.22213 0.10329 0.0
C21 C 0.93072 0.16977 0.14749 0.0
C22 C 0.0256 0.17632 0.12445 0.0
C23 C 0.91231 0.10151 0.1179 0.0
O24 O 0.92135 0.1116 0.12706 0.0
O25 O 0.92604 0.12245 0.11041 0.0
O26 O 0.94109 0.14747 0.14802 0.0
O27 O 0.93778 0.18818 0.13923 0.0
O28 O 0.83678 0.83788 0.11678 0.0
Cd29 Cd 0.84108 0.79499 0.11341 0.0
Cd30 Cd 0.85836 0.80287 0.13443 0.0
O31 O 0.8471 0.84304 0.13348 0.0
O32 O 0.81477 0.77832 0.10022 0.0
O33 O 0.79815 0.74731 0.11449 0.0
C34 C 0.7919 0.751 0.10502 0.0
C35 C 0.84822 0.76738 0.14884 0.0
C36 C 0.84002 0.85357 0.12521 0.0
C37 C 0.91358 0.81352 0.11859 0.0
O38 O 0.90434 0.8136 0.12779 0.0
O39 O 0.89205 0.80573 0.11124 0.0
O40 O 0.8706 0.80009 0.14902 0.0
O41 O 0.82894 0.75519 0.14077 0.0
O42 O 0.01227 0.17664 0.39363 0.0
Cd43 Cd 0.05893 0.21942 0.39749 0.0
Cd44 Cd 0.07053 0.21311 0.37636 0.0
O45 O 0.01916 0.17259 0.37697 0.0
O46 O 0.04788 0.23417 0.41081 0.0
O47 O 0.06299 0.26688 0.39689 0.0
C48 C 0.05229 0.26191 0.4063 0.0
C49 C 0.09612 0.24876 0.36198 0.0
C50 C 1.00073 0.16148 0.38508 0.0
C51 C 0.11421 0.20238 0.39253 0.0
O52 O 0.10583 0.2029 0.38326 0.0
O53 O 0.09935 0.2091 0.3998 0.0
O54 O 0.08651 0.21622 0.36185 0.0
O55 O 0.08838 0.26069 0.36998 0.0
O56 O 0.843 0.83558 0.38833 0.0
Cd57 Cd 0.80152 0.84047 0.39306 0.0
Cd58 Cd 0.80575 0.86004 0.37201 0.0
O59 O 0.84638 0.84937 0.37188 0.0
O60 O 0.78881 0.81492 0.40646 0.0
O61 O 0.75338 0.79777 0.39316 0.0
C62 C 0.75987 0.79203 0.40239 0.0
C63 C 0.76938 0.85125 0.35788 0.0
C64 C 0.85771 0.84056 0.37964 0.0
C65 C 0.8199 0.91382 0.38871 0.0
O66 O 0.81723 0.9052 0.37934 0.0
O67 O 0.81398 0.89173 0.39579 0.0
O68 O 0.80189 0.87425 0.35772 0.0
O69 O 0.7578 0.83095 0.36576 0.0
O70 O 0.18442 0.01323 0.39362 0.0
Cd71 Cd 0.17752 0.96442 0.39576 0.0
Cd72 Cd 0.1716 0.96297 0.37513 0.0
O73 O 0.18722 0.01545 0.3767 0.0
O74 O 0.1992 0.96796 0.40949 0.0
O75 O 0.22047 0.95982 0.39509 0.0
C76 C 0.2238 0.96596 0.40485 0.0
C77 C 0.19229 0.93737 0.36362 0.0
C78 C 0.18865 0.02974 0.3853 0.0
C79 C 0.10714 0.91617 0.38721 0.0
O80 O 0.12061 0.92977 0.37864 0.0
O81 O 0.1256 0.92448 0.39534 0.0
O82 O 0.17581 0.95263 0.36044 0.0
O83 O 0.1999 0.93951 0.37327 0.0
O84 O 0.84021 0.01132 0.89501 0.0
Cd85 Cd 0.79801 0.96249 0.8969 0.0
Cd86 Cd 0.80334 0.96187 0.87635 0.0
O87 O 0.84029 0.01423 0.87809 0.0
O88 O 0.77867 0.96559 0.91047 0.0
O89 O 0.75055 0.95787 0.89583 0.0
C90 C 0.75247 0.96368 0.9056 0.0
C91 C 0.75718 0.9367 0.8648 0.0
C92 C 0.85288 0.02815 0.88676 0.0
C93 C 0.82016 0.91433 0.88834 0.0
O94 O 0.82076 0.92835 0.8798 0.0
O95 O 0.80974 0.92239 0.89646 0.0
O96 O 0.78894 0.95193 0.86163 0.0
O97 O 0.75165 0.93869 0.87445 0.0
O98 O 1.00355 0.83377 0.88875 0.0
Cd99 Cd 0.0502 0.8387 0.89319 0.0
Cd100 Cd 0.0645 0.85798 0.87224 0.0
O101 O 0.01317 0.84716 0.87226 0.0
O102 O 0.03813 0.81276 0.90651 0.0
O103 O 0.05576 0.79612 0.89294 0.0
C104 C 0.044 0.79005 0.90223 0.0
C105 C 0.09169 0.84857 0.85815 0.0
C106 C 0.9934 0.83852 0.8801 0.0
C107 C 0.10485 0.91201 0.88879 0.0
O108 O 0.09841 0.90339 0.87943 0.0
O109 O 0.08912 0.8899 0.89589 0.0
O110 O 0.08212 0.87151 0.8579 0.0
O111 O 0.08321 0.82864 0.86611 0.0
O112 O 0.17628 0.17487 0.8946 0.0
Cd113 Cd 0.17246 0.21744 0.89877 0.0
Cd114 Cd 0.15383 0.21186 0.8776 0.0
O115 O 0.16451 0.17123 0.878 0.0
O116 O 0.19817 0.23131 0.91212 0.0
O117 O 0.21595 0.2649 0.89839 0.0
C118 C 0.22157 0.25933 0.90774 0.0
C119 C 0.16322 0.24724 0.86319 0.0
C120 C 0.17222 0.15993 0.88599 0.0
C121 C 0.10001 0.20075 0.89405 0.0
O122 O 0.10868 0.20177 0.88473 0.0
O123 O 0.12174 0.20698 0.90125 0.0
O124 O 0.14016 0.21474 0.86318 0.0
O125 O 0.18331 0.25929 0.8711 0.0
O126 O 0.01296 0.83811 0.61499 0.0
Cd127 Cd 0.96509 0.79602 0.61179 0.0
Cd128 Cd 0.95709 0.79963 0.63235 0.0
O129 O 1.00945 0.83772 0.6319 0.0
O130 O 0.97279 0.77921 0.59832 0.0
O131 O 0.96024 0.74831 0.61258 0.0
C132 C 0.96915 0.75201 0.60302 0.0
C133 C 0.92994 0.75401 0.64407 0.0
C134 C 0.02645 0.85075 0.62365 0.0
C135 C 0.91365 0.81689 0.61847 0.0
O136 O 0.92407 0.8162 0.62749 0.0
O137 O 0.92516 0.80793 0.61078 0.0
O138 O 0.94357 0.78591 0.64699 0.0
O139 O 0.93433 0.74803 0.63464 0.0
O140 O 0.17991 0.17808 0.61454 0.0
Cd141 Cd 0.22199 0.17234 0.61126 0.0
Cd142 Cd 0.21873 0.16089 0.63182 0.0
O143 O 0.18068 0.17521 0.63145 0.0
O144 O 0.23875 0.19694 0.5978 0.0
O145 O 0.2697 0.21522 0.61204 0.0
C146 C 0.26596 0.22049 0.60249 0.0
C147 C 0.26455 0.17931 0.64345 0.0
C148 C 0.16746 0.17905 0.62322 0.0
C149 C 0.20122 0.10009 0.61797 0.0
O150 O 0.20201 0.11126 0.62698 0.0
O151 O 0.21011 0.12051 0.61026 0.0
O152 O 0.23269 0.16114 0.64643 0.0
O153 O 0.27038 0.18964 0.63401 0.0
O154 O 0.83973 1.00497 0.61492 0.0
Cd155 Cd 0.84551 0.05275 0.61156 0.0
Cd156 Cd 0.85743 0.06138 0.63213 0.0
O157 O 0.84318 0.00902 0.63181 0.0
O158 O 0.82089 0.04469 0.5981 0.0
O159 O 0.80267 0.05768 0.6123 0.0
C160 C 0.79739 0.0485 0.60276 0.0
C161 C 0.83932 0.08872 0.6439 0.0
C162 C 0.83905 0.99176 0.62361 0.0
C163 C 0.91792 0.10438 0.61812 0.0
O164 O 0.90693 0.09428 0.62716 0.0
O165 O 0.89736 0.09261 0.61045 0.0
O166 O 0.85767 0.07513 0.64677 0.0
O167 O 0.82869 0.08421 0.63449 0.0
O168 O 0.84496 0.33763 0.44958 0.0
Cd169 Cd 0.88764 0.38486 0.44611 0.0
Cd170 Cd 0.88049 0.39414 0.46723 0.0
O171 O 0.84031 0.34268 0.46632 0.0
O172 O 0.90355 0.37538 0.43276 0.0
O173 O 0.93527 0.3894 0.44686 0.0
C174 C 0.93106 0.37961 0.43737 0.0
C175 C 0.91653 0.41928 0.48154 0.0
C176 C 0.82958 0.3251 0.45805 0.0
C177 C 0.86926 0.43877 0.45156 0.0
O178 O 0.86955 0.42945 0.46073 0.0
O179 O 0.8768 0.42507 0.44413 0.0
O180 O 0.88388 0.40915 0.48185 0.0
O181 O 0.92838 0.41218 0.4734 0.0
O182 O 0.68127 0.51321 0.44892 0.0
Cd183 Cd 0.63415 0.5082 0.44505 0.0
Cd184 Cd 0.62392 0.49243 0.4664 0.0
O185 O 0.67551 0.50406 0.46569 0.0
O186 O 0.64429 0.53244 0.43147 0.0
O187 O 0.62974 0.55144 0.44518 0.0
C188 C 0.63999 0.5562 0.43573 0.0
C189 C 0.5983 0.50281 0.48071 0.0
C190 C 0.69347 0.51077 0.4575 0.0
C191 C 0.5802 0.43595 0.45073 0.0
O192 O 0.58906 0.44601 0.4599 0.0
O193 O 0.59416 0.45686 0.44324 0.0
O194 O 0.60864 0.48045 0.48099 0.0
O195 O 0.60538 0.52185 0.47259 0.0
O196 O 0.50468 0.17264 0.44932 0.0
Cd197 Cd 0.50947 0.13019 0.44572 0.0
Cd198 Cd 0.52584 0.13696 0.46689 0.0
O199 O 0.51448 0.1771 0.46605 0.0
O200 O 0.48416 0.11475 0.43234 0.0
O201 O 0.46653 0.08234 0.44631 0.0
C202 C 0.46096 0.08695 0.43686 0.0
C203 C 0.51523 0.10087 0.48118 0.0
C204 C 0.50757 0.18791 0.4578 0.0
C205 C 0.58189 0.14889 0.45118 0.0
O206 O 0.57214 0.14821 0.46035 0.0
O207 O 0.56073 0.14149 0.44374 0.0
O208 O 0.53767 0.13355 0.48148 0.0
O209 O 0.4962 0.08901 0.47306 0.0
O210 O 0.67366 0.50764 0.72581 0.0
Cd211 Cd 0.7207 0.55006 0.72957 0.0
Cd212 Cd 0.73095 0.54408 0.70834 0.0
O213 O 0.67942 0.50396 0.70906 0.0
O214 O 0.7106 0.56491 0.74302 0.0
O215 O 0.72494 0.5976 0.72912 0.0
C216 C 0.71478 0.59266 0.73858 0.0
C217 C 0.75658 0.5803 0.69407 0.0
C218 C 0.66149 0.49278 0.71727 0.0
C219 C 0.77483 0.5319 0.72408 0.0
O220 O 0.76592 0.53276 0.71489 0.0
O221 O 0.76084 0.53903 0.73152 0.0
O222 O 0.74641 0.54765 0.69376 0.0
O223 O 0.74931 0.59208 0.7022 0.0
O224 O 0.50925 0.16776 0.72513 0.0
Cd225 Cd 0.46656 0.1724 0.72852 0.0
Cd226 Cd 0.47418 0.18923 0.70748 0.0
O227 O 0.51429 0.17785 0.70841 0.0
O228 O 0.44991 0.14629 0.74174 0.0
O229 O 0.41876 0.12963 0.72752 0.0
C230 C 0.42249 0.12345 0.73699 0.0
C231 C 0.43823 0.17859 0.69317 0.0
C232 C 0.52483 0.17081 0.71669 0.0
C233 C 0.48539 0.24491 0.7232 0.0
O234 O 0.48522 0.23544 0.71402 0.0
O235 O 0.47763 0.22351 0.7306 0.0
O236 O 0.47091 0.20104 0.69288 0.0
O237 O 0.42631 0.15957 0.7013 0.0
O238 O 0.84979 0.34384 0.72599 0.0
Cd239 Cd 0.84486 0.29656 0.72963 0.0
Cd240 Cd 0.82897 0.28711 0.70838 0.0
O241 O 0.84041 0.33862 0.70924 0.0
O242 O 0.8697 0.3063 0.7431 0.0
O243 O 0.88787 0.29175 0.72919 0.0
C244 C 0.8931 0.30181 0.73866 0.0
C245 C 0.83967 0.26186 0.69406 0.0
C246 C 0.84716 0.3563 0.71749 0.0
C247 C 0.77257 0.24285 0.72401 0.0
O248 O 0.78255 0.252 0.71485 0.0
O249 O 0.79354 0.25657 0.73149 0.0
O250 O 0.81726 0.27213 0.69377 0.0
O251 O 0.85861 0.26884 0.70219 0.0
O252 O 0.50774 0.34171 0.22652 0.0
Cd253 Cd 0.46585 0.29447 0.23045 0.0
Cd254 Cd 0.46787 0.28286 0.20989 0.0
O255 O 0.50678 0.3349 0.20971 0.0
O256 O 0.4508 0.30436 0.24391 0.0
O257 O 0.41804 0.28957 0.23 0.0
C258 C 0.42294 0.2999 0.23944 0.0
C259 C 0.42263 0.25541 0.19806 0.0
C260 C 0.52016 0.35342 0.21769 0.0
C261 C 0.48506 0.24106 0.22452 0.0
O262 O 0.48347 0.24969 0.21534 0.0
O263 O 0.47753 0.25454 0.23202 0.0
O264 O 0.45457 0.26797 0.19532 0.0
O265 O 0.41642 0.26086 0.20736 0.0
O266 O 0.67378 0.16848 0.22587 0.0
Cd267 Cd 0.72231 0.17395 0.22797 0.0
Cd268 Cd 0.72453 0.18535 0.20788 0.0
O269 O 0.67146 0.16606 0.20896 0.0
O270 O 0.71714 0.15004 0.24142 0.0
O271 O 0.72637 0.13072 0.22681 0.0
C272 C 0.71943 0.12605 0.23651 0.0
C273 C 0.75463 0.16917 0.1966 0.0
C274 C 0.65714 0.16437 0.21757 0.0
C275 C 0.76838 0.24666 0.22115 0.0
O276 O 0.75314 0.23579 0.21259 0.0
O277 O 0.76304 0.22556 0.22849 0.0
O278 O 0.73832 0.1845 0.19331 0.0
O279 O 0.75148 0.16049 0.20618 0.0
O280 O 0.84656 0.50994 0.22757 0.0
Cd281 Cd 0.8412 0.55254 0.23011 0.0
Cd282 Cd 0.83353 0.54816 0.20967 0.0
O283 O 0.8512 0.51269 0.21072 0.0
O284 O 0.86446 0.57027 0.24369 0.0
O285 O 0.88466 0.59968 0.22924 0.0
C286 C 0.88887 0.59671 0.23894 0.0
C287 C 0.85204 0.59477 0.19835 0.0
C288 C 0.85161 0.49855 0.2192 0.0
C289 C 0.77004 0.5297 0.2224 0.0
O290 O 0.78254 0.52883 0.21372 0.0
O291 O 0.78954 0.54109 0.23029 0.0
O292 O 0.83609 0.56315 0.19507 0.0
O293 O 0.86031 0.60005 0.20796 0.0
O294 O 0.68071 0.17077 0.94709 0.0
Cd295 Cd 0.63198 0.12859 0.94504 0.0
Cd296 Cd 0.63039 0.13362 0.9656 0.0
O297 O 0.68277 0.17082 0.96402 0.0
O298 O 0.63572 0.10965 0.93147 0.0
O299 O 0.6272 0.08104 0.94606 0.0
C300 C 0.63347 0.08325 0.93632 0.0
C301 C 0.60501 0.08746 0.97716 0.0
C302 C 0.6971 0.18347 0.9554 0.0
C303 C 0.58334 0.15051 0.95337 0.0
O304 O 0.59686 0.15088 0.96197 0.0
O305 O 0.5919 0.14035 0.94529 0.0
O306 O 0.61997 0.11922 0.98031 0.0
O307 O 0.60735 0.08194 0.96753 0.0
O308 O 0.84416 0.50752 0.9475 0.0
Cd309 Cd 0.88664 0.50346 0.94337 0.0
Cd310 Cd 0.88098 0.48526 0.96459 0.0
O311 O 0.84051 0.49617 0.96413 0.0
O312 O 0.9005 0.52888 0.92997 0.0
O313 O 0.93411 0.54693 0.94368 0.0
C314 C 0.92853 0.55238 0.93431 0.0
C315 C 0.9164 0.49481 0.97899 0.0
C316 C 0.82926 0.50376 0.9561 0.0
C317 C 0.86965 0.43102 0.94828 0.0
O318 O 0.87066 0.4399 0.95757 0.0
O319 O 0.87602 0.45263 0.94102 0.0
O320 O 0.88387 0.47185 0.97905 0.0
O321 O 0.92848 0.51473 0.97105 0.0
O322 O 0.50357 0.33471 0.95276 0.0
Cd323 Cd 0.50836 0.38142 0.94844 0.0
Cd324 Cd 0.52745 0.39513 0.96942 0.0
O325 O 0.51666 0.34381 0.96927 0.0
O326 O 0.48242 0.36967 0.93513 0.0
O327 O 0.46569 0.38679 0.9488 0.0
C328 C 0.45964 0.37531 0.93948 0.0
C329 C 0.51808 0.42189 0.98362 0.0
C330 C 0.50818 0.3243 0.96138 0.0
C331 C 0.58153 0.43613 0.95292 0.0
O332 O 0.57285 0.42932 0.96227 0.0
O333 O 0.5595 0.42057 0.94579 0.0
O334 O 0.54102 0.4123 0.98379 0.0
O335 O 0.49812 0.41363 0.97568 0.0
O336 O 0.51108 0.67221 0.7846 0.0
Cd337 Cd 0.55275 0.71797 0.77955 0.0
Cd338 Cd 0.54875 0.73582 0.8004 0.0
O339 O 0.50769 0.68478 0.80084 0.0
O340 O 0.56532 0.70371 0.76638 0.0
O341 O 0.60079 0.72318 0.77966 0.0
C342 C 0.59425 0.71009 0.77053 0.0
C343 C 0.58454 0.76393 0.81459 0.0
C344 C 0.4963 0.66368 0.79331 0.0
C345 C 0.53563 0.77429 0.7831 0.0
O346 O 0.53836 0.76948 0.79256 0.0
O347 O 0.5408 0.75681 0.77629 0.0
O348 O 0.55218 0.75498 0.81451 0.0
O349 O 0.59627 0.75444 0.80692 0.0
O350 O 0.34266 0.84142 0.77846 0.0
Cd351 Cd 0.29452 0.83591 0.77597 0.0
Cd352 Cd 0.29027 0.8269 0.79654 0.0
O353 O 0.34268 0.84174 0.7954 0.0
O354 O 0.3001 0.85941 0.76244 0.0
O355 O 0.29069 0.87925 0.77693 0.0
C356 C 0.29791 0.88365 0.76724 0.0
C357 C 0.26436 0.84689 0.80817 0.0
C358 C 0.35798 0.84409 0.78691 0.0
C359 C 0.24396 0.76478 0.78356 0.0
O360 O 0.2566 0.77669 0.79234 0.0
O361 O 0.2538 0.78442 0.77567 0.0
O362 O 0.27861 0.82932 0.81123 0.0
O363 O 0.26761 0.85585 0.79862 0.0
O364 O 0.16819 0.50412 0.78342 0.0
Cd365 Cd 0.17544 0.46271 0.78068 0.0
Cd366 Cd 0.18326 0.46613 0.8013 0.0
O367 O 0.16753 0.50302 0.80036 0.0
O368 O 0.15349 0.44598 0.7669 0.0
O369 O 0.1329 0.41475 0.78103 0.0
C370 C 0.12928 0.4186 0.77136 0.0
C371 C 0.16371 0.41984 0.8128 0.0
C372 C 0.16501 0.51613 0.79193 0.0
C373 C 0.2468 0.48528 0.78854 0.0
O374 O 0.23397 0.48441 0.79731 0.0
O375 O 0.22761 0.47555 0.78055 0.0
O376 O 0.1806 0.45158 0.81595 0.0
O377 O 0.15522 0.41433 0.80321 0.0
O378 O 0.34206 0.84103 0.05767 0.0
Cd379 Cd 0.38804 0.88279 0.06251 0.0
Cd380 Cd 0.40483 0.8783 0.0416 0.0
O381 O 0.35366 0.83741 0.04134 0.0
O382 O 0.37431 0.89555 0.07574 0.0
O383 O 0.39313 0.93077 0.06238 0.0
C384 C 0.38041 0.92436 0.07156 0.0
C385 C 0.43256 0.91422 0.0274 0.0
C386 C 0.33299 0.82616 0.04898 0.0
C387 C 0.44404 0.86541 0.05873 0.0
O388 O 0.43868 0.86779 0.04929 0.0
O389 O 0.42703 0.87095 0.06562 0.0
O390 O 0.42351 0.88182 0.02742 0.0
O391 O 0.42336 0.9259 0.03515 0.0
O392 O 0.17314 0.49826 0.05862 0.0
Cd393 Cd 0.13177 0.50539 0.06159 0.0
Cd394 Cd 0.13485 0.51412 0.04095 0.0
O395 O 0.17203 0.49873 0.04168 0.0
O396 O 0.11537 0.48299 0.07534 0.0
O397 O 0.08379 0.46287 0.06126 0.0
C398 C 0.08787 0.45894 0.0709 0.0
C399 C 0.08879 0.49502 0.02939 0.0
C400 C 0.18517 0.49569 0.05004 0.0
C401 C 0.15402 0.57704 0.05401 0.0
O402 O 0.15286 0.56456 0.04517 0.0
O403 O 0.14466 0.55756 0.06194 0.0
O404 O 0.1206 0.51227 0.02631 0.0
O405 O 0.08308 0.48596 0.03894 0.0
O406 O 0.51057 0.67224 0.06344 0.0
Cd407 Cd 0.50472 0.62399 0.06598 0.0
Cd408 Cd 0.49644 0.61982 0.04538 0.0
O409 O 0.51128 0.67222 0.0465 0.0
O410 O 0.52793 0.62937 0.07954 0.0
O411 O 0.5479 0.61987 0.06509 0.0
C412 C 0.55216 0.62705 0.07478 0.0
C413 C 0.51666 0.59405 0.03378 0.0
C414 C 0.5135 0.68756 0.05496 0.0
C415 C 0.4338 0.57356 0.05823 0.0
O416 O 0.44609 0.58612 0.04947 0.0
O417 O 0.45314 0.58342 0.06618 0.0
O418 O 0.49916 0.60836 0.0307 0.0
O419 O 0.52542 0.59716 0.04334 0.0
O420 O 0.17507 0.67585 0.56036 0.0
Cd421 Cd 0.13299 0.62804 0.56364 0.0
Cd422 Cd 0.13625 0.6198 0.54308 0.0
O423 O 0.17439 0.67216 0.54345 0.0
O424 O 0.11629 0.63586 0.57711 0.0
O425 O 0.08527 0.62317 0.56288 0.0
C426 C 0.08904 0.63216 0.57244 0.0
C427 C 0.0905 0.59258 0.53142 0.0
C428 C 0.18757 0.68924 0.55168 0.0
C429 C 0.15368 0.57648 0.55696 0.0
O430 O 0.15285 0.5868 0.54794 0.0
O431 O 0.14486 0.58809 0.56466 0.0
O432 O 0.12237 0.60617 0.52846 0.0
O433 O 0.08462 0.59704 0.54085 0.0
O434 O 0.34196 0.50283 0.56006 0.0
Cd435 Cd 0.38983 0.50862 0.56327 0.0
Cd436 Cd 0.39783 0.52026 0.5427 0.0
O437 O 0.34546 0.5059 0.54315 0.0
O438 O 0.38213 0.48402 0.57673 0.0
O439 O 0.39471 0.46578 0.56246 0.0
C440 C 0.38578 0.46049 0.57202 0.0
C441 C 0.425 0.50199 0.53093 0.0
C442 C 0.32846 0.50193 0.5514 0.0
C443 C 0.44123 0.58095 0.55659 0.0
O444 O 0.4308 0.56984 0.54757 0.0
O445 O 0.42975 0.56048 0.56428 0.0
O446 O 0.41129 0.52022 0.52805 0.0
O447 O 0.42069 0.49153 0.54036 0.0
O448 O 0.51524 0.84298 0.55999 0.0
Cd449 Cd 0.5095 0.88501 0.56333 0.0
Cd450 Cd 0.49761 0.88171 0.54276 0.0
O451 O 0.51187 0.8436 0.54309 0.0
O452 O 0.53411 0.90155 0.57679 0.0
O453 O 0.55238 0.93275 0.56258 0.0
C454 C 0.55765 0.92885 0.57213 0.0
C455 C 0.51579 0.92734 0.53105 0.0
C456 C 0.51595 0.83046 0.5513 0.0
C457 C 0.43709 0.86421 0.55676 0.0
O458 O 0.44809 0.86507 0.54772 0.0
O459 O 0.45766 0.87305 0.56443 0.0
O460 O 0.49749 0.89545 0.52814 0.0
O461 O 0.52636 0.93332 0.54047 0.0
O462 O 0.35075 0.50646 0.28274 0.0
Cd463 Cd 0.30234 0.46488 0.27979 0.0
Cd464 Cd 0.29634 0.46835 0.30037 0.0
O465 O 0.34888 0.50566 0.29967 0.0
O466 O 0.30852 0.44768 0.2662 0.0
O467 O 0.2969 0.41694 0.28046 0.0
C468 C 0.30501 0.42044 0.27083 0.0
C469 C 0.26917 0.42223 0.31191 0.0
C470 C 0.36517 0.5187 0.29132 0.0
C471 C 0.25269 0.48716 0.28714 0.0
O472 O 0.26389 0.4862 0.29601 0.0
O473 O 0.26294 0.47766 0.27927 0.0
O474 O 0.2836 0.45401 0.315 0.0
O475 O 0.27279 0.4166 0.30238 0.0
O476 O 0.51254 0.84401 0.27773 0.0
Cd477 Cd 0.55531 0.83859 0.27539 0.0
Cd478 Cd 0.55025 0.82993 0.29597 0.0
O479 O 0.51236 0.84433 0.29467 0.0
O480 O 0.57378 0.86226 0.2619 0.0
O481 O 0.60255 0.88181 0.27647 0.0
C482 C 0.60011 0.88634 0.26677 0.0
C483 C 0.59596 0.85026 0.30768 0.0
C484 C 0.49958 0.84657 0.28614 0.0
C485 C 0.53489 0.76763 0.28311 0.0
O486 O 0.53412 0.77973 0.29186 0.0
O487 O 0.54461 0.78709 0.27518 0.0
O488 O 0.56408 0.83259 0.31069 0.0
O489 O 0.60181 0.85917 0.29813 0.0
O490 O 0.17454 0.67394 0.28313 0.0
Cd491 Cd 0.17835 0.71984 0.27833 0.0
Cd492 Cd 0.20018 0.73683 0.29914 0.0
O493 O 0.19024 0.68577 0.29941 0.0
O494 O 0.15069 0.70596 0.2653 0.0
O495 O 0.13561 0.72517 0.27885 0.0
C496 C 0.12844 0.71228 0.2697 0.0
C497 C 0.19225 0.76462 0.31337 0.0
C498 C 0.18075 0.66504 0.29178 0.0
C499 C 0.25184 0.77595 0.2819 0.0
O500 O 0.24431 0.7707 0.29136 0.0
O501 O 0.22912 0.75885 0.27506 0.0
O502 O 0.21566 0.75565 0.3133 0.0
O503 O 0.17117 0.75529 0.30568 0.0
C504 C 0.26459 0.12974 0.16103 0.0
C505 C 0.27226 0.10637 0.15606 0.0
C506 C 0.28803 0.15449 0.16799 0.0
C507 C 0.31942 0.15509 0.17035 0.0
C508 C 0.32672 0.13066 0.16563 0.0
C509 C 0.30338 0.10706 0.15837 0.0
C510 C 0.27976 0.18081 0.17251 0.0
C511 C 0.3593 0.12963 0.1682 0.0
C512 C 0.39743 0.23773 0.18047 0.0
C513 C 0.3943 0.23194 0.19108 0.0
C514 C 0.37265 0.21343 0.17366 0.0
C515 C 0.34493 0.18188 0.17754 0.0
C516 C 0.34167 0.17601 0.18827 0.0
C517 C 0.36603 0.20142 0.19493 0.0
C518 C 0.37636 0.22139 0.16232 0.0
C519 C 0.31323 0.14231 0.1927 0.0
H520 H 0.24082 0.1297 0.15914 0.0
H521 H 0.30937 0.08905 0.15453 0.0
H522 H 0.27932 0.17927 0.18101 0.0
H523 H 0.30036 0.20742 0.17037 0.0
H524 H 0.25433 0.17694 0.16984 0.0
H525 H 0.35972 0.10726 0.16456 0.0
H526 H 0.38245 0.15393 0.16559 0.0
H527 H 0.36158 0.12796 0.17664 0.0
H528 H 0.41938 0.26127 0.17749 0.0
H529 H 0.36398 0.19659 0.20312 0.0
H530 H 0.35175 0.2184 0.15922 0.0
H531 H 0.38163 0.20271 0.15818 0.0
H532 H 0.39774 0.24814 0.16063 0.0
H533 H 0.28739 0.13823 0.19046 0.0
H534 H 0.31444 0.14166 0.20121 0.0
H535 H 0.31535 0.12025 0.18955 0.0
C536 C 0.8109 0.17069 0.19378 0.0
C537 C 0.77933 0.16549 0.18982 0.0
C538 C 0.83689 0.17226 0.18727 0.0
C539 C 0.83065 0.16725 0.17657 0.0
C540 C 0.7982 0.1606 0.1726 0.0
C541 C 0.77321 0.16052 0.17924 0.0
C542 C 0.87145 0.18048 0.19179 0.0
C543 C 0.78994 0.15381 0.16131 0.0
C544 C 0.90511 0.20045 0.15725 0.0
C545 C 0.90758 0.17065 0.15554 0.0
C546 C 0.88102 0.20009 0.16436 0.0
C547 C 0.85797 0.16881 0.16954 0.0
C548 C 0.86046 0.13869 0.16782 0.0
C549 C 0.8856 0.14016 0.16099 0.0
C550 C 0.88 0.23307 0.16623 0.0
C551 C 0.83571 0.10452 0.17289 0.0
H552 H 0.81596 0.17519 0.20194 0.0
H553 H 0.74885 0.1566 0.17616 0.0
H554 H 0.87697 0.15928 0.19007 0.0
H555 H 0.89253 0.20454 0.18825 0.0
H556 H 0.87234 0.18413 0.20024 0.0
H557 H 0.76273 0.14676 0.15955 0.0
H558 H 0.80768 0.17725 0.1568 0.0
H559 H 0.79413 0.13242 0.15869 0.0
H560 H 0.92202 0.22404 0.15305 0.0
H561 H 0.887 0.11686 0.15957 0.0
H562 H 0.88175 0.23864 0.17458 0.0
H563 H 0.85494 0.22987 0.1635 0.0
H564 H 0.90147 0.25579 0.16226 0.0
H565 H 0.83744 0.10738 0.18136 0.0
H566 H 0.84104 0.08347 0.17072 0.0
H567 H 0.8086 0.09653 0.17069 0.0
C568 C 0.85165 0.65008 0.19552 0.0
C569 C 0.85632 0.62336 0.19156 0.0
C570 C 0.84985 0.67431 0.18898 0.0
C571 C 0.85405 0.67252 0.17826 0.0
C572 C 0.86038 0.6465 0.17429 0.0
C573 C 0.86073 0.62181 0.18097 0.0
C574 C 0.84204 0.70093 0.19351 0.0
C575 C 0.8663 0.64442 0.16297 0.0
C576 C 0.81867 0.71199 0.15906 0.0
C577 C 0.8482 0.74418 0.15702 0.0
C578 C 0.81985 0.68892 0.16625 0.0
C579 C 0.85166 0.6977 0.17118 0.0
C580 C 0.8815 0.73025 0.16914 0.0
C581 C 0.87923 0.75328 0.16223 0.0
C582 C 0.78717 0.65497 0.16846 0.0
C583 C 0.91618 0.74023 0.17395 0.0
H584 H 0.84756 0.65094 0.20369 0.0
H585 H 0.86421 0.60109 0.17789 0.0
H586 H 0.86284 0.72753 0.19148 0.0
H587 H 0.81744 0.69743 0.19023 0.0
H588 H 0.83953 0.69894 0.202 0.0
H589 H 0.87351 0.62438 0.16122 0.0
H590 H 0.84238 0.63812 0.15863 0.0
H591 H 0.88725 0.66994 0.16015 0.0
H592 H 0.79466 0.70485 0.15504 0.0
H593 H 0.90233 0.77792 0.16056 0.0
H594 H 0.78243 0.65171 0.17686 0.0
H595 H 0.79024 0.633 0.16576 0.0
H596 H 0.764 0.6533 0.16467 0.0
H597 H 0.91409 0.73952 0.18243 0.0
H598 H 0.93688 0.76657 0.17159 0.0
H599 H 0.9242 0.72117 0.1717 0.0
C600 C 0.14185 0.26384 0.34872 0.0
C601 C 0.11906 0.27211 0.35379 0.0
C602 C 0.16672 0.28704 0.34174 0.0
C603 C 0.16812 0.31886 0.33948 0.0
C604 C 0.14426 0.32678 0.34428 0.0
C605 C 0.12046 0.30361 0.35155 0.0
C606 C 0.19236 0.27805 0.33708 0.0
C607 C 0.14411 0.3599 0.34184 0.0
C608 C 0.25157 0.3961 0.32942 0.0
C609 C 0.24555 0.39366 0.31882 0.0
C610 C 0.22708 0.3713 0.33619 0.0
C611 C 0.19517 0.34422 0.33231 0.0
C612 C 0.18911 0.34154 0.32158 0.0
C613 C 0.21465 0.36594 0.31495 0.0
C614 C 0.23517 0.37438 0.34752 0.0
C615 C 0.15509 0.31375 0.31714 0.0
H616 H 0.14127 0.23976 0.35054 0.0
H617 H 0.1029 0.31008 0.35545 0.0
H618 H 0.19085 0.27808 0.32859 0.0
H619 H 0.21919 0.29801 0.33926 0.0
H620 H 0.18776 0.25222 0.33962 0.0
H621 H 0.12213 0.36086 0.34556 0.0
H622 H 0.16876 0.38262 0.34445 0.0
H623 H 0.1424 0.36247 0.33341 0.0
H624 H 0.2754 0.41758 0.33242 0.0
H625 H 0.20963 0.36438 0.30677 0.0
H626 H 0.2316 0.34941 0.35051 0.0
H627 H 0.21694 0.38006 0.35176 0.0
H628 H 0.26215 0.39525 0.34921 0.0
H629 H 0.15032 0.28762 0.31934 0.0
H630 H 0.15446 0.31516 0.30864 0.0
H631 H 0.13342 0.31647 0.32033 0.0
C632 C 0.75368 0.88246 0.34498 0.0
C633 C 0.74576 0.85116 0.34984 0.0
C634 C 0.73043 0.88421 0.33804 0.0
C635 C 0.69894 0.85366 0.33561 0.0
C636 C 0.69131 0.82171 0.34024 0.0
C637 C 0.71451 0.82097 0.34746 0.0
C638 C 0.73909 0.91899 0.33357 0.0
C639 C 0.65855 0.78834 0.33761 0.0
C640 C 0.62137 0.85878 0.3253 0.0
C641 C 0.62445 0.85573 0.3147 0.0
C642 C 0.64607 0.85933 0.33216 0.0
C643 C 0.67375 0.8553 0.32836 0.0
C644 C 0.67712 0.85255 0.31764 0.0
C645 C 0.65278 0.85341 0.31093 0.0
C646 C 0.64223 0.86366 0.34349 0.0
C647 C 0.70559 0.84722 0.31327 0.0
H648 H 0.77757 0.90602 0.34691 0.0
H649 H 0.70832 0.79676 0.35121 0.0
H650 H 0.73975 0.91809 0.32508 0.0
H651 H 0.71858 0.92517 0.33568 0.0
H652 H 0.76453 0.94036 0.33631 0.0
H653 H 0.65764 0.76536 0.3413 0.0
H654 H 0.6355 0.78985 0.34012 0.0
H655 H 0.65654 0.78442 0.32917 0.0
H656 H 0.59942 0.86045 0.32824 0.0
H657 H 0.65487 0.85037 0.30275 0.0
H658 H 0.66687 0.88511 0.34662 0.0
H659 H 0.63662 0.83962 0.34764 0.0
H660 H 0.62099 0.86929 0.34512 0.0
H661 H 0.73141 0.86875 0.31563 0.0
H662 H 0.70473 0.84567 0.30476 0.0
H663 H 0.70314 0.82283 0.31638 0.0
C664 C 0.20123 0.92048 0.34605 0.0
C665 C 0.19779 0.91425 0.35665 0.0
C666 C 0.20166 0.89623 0.33921 0.0
C667 C 0.19721 0.86438 0.34302 0.0
C668 C 0.19418 0.85819 0.35374 0.0
C669 C 0.19508 0.88345 0.36043 0.0
C670 C 0.20623 0.90444 0.32788 0.0
C671 C 0.18847 0.82426 0.35811 0.0
C672 C 0.16234 0.78939 0.32389 0.0
C673 C 0.19239 0.7881 0.32148 0.0
C674 C 0.1633 0.81336 0.33114 0.0
C675 C 0.19532 0.83743 0.33578 0.0
C676 C 0.22571 0.83619 0.33334 0.0
C677 C 0.22375 0.81121 0.32635 0.0
C678 C 0.1301 0.8131 0.33377 0.0
C679 C 0.26055 0.862 0.33783 0.0
H680 H 0.20323 0.94422 0.3431 0.0
H681 H 0.19177 0.87824 0.36861 0.0
H682 H 0.22758 0.901 0.32478 0.0
H683 H 0.18218 0.88617 0.32371 0.0
H684 H 0.21215 0.93139 0.32624 0.0
H685 H 0.18697 0.82362 0.36663 0.0
H686 H 0.16394 0.80249 0.35503 0.0
H687 H 0.2098 0.81967 0.35574 0.0
H688 H 0.13808 0.77158 0.32014 0.0
H689 H 0.24721 0.8107 0.3244 0.0
H690 H 0.1319 0.8378 0.33126 0.0
H691 H 0.12613 0.81118 0.34221 0.0
H692 H 0.10702 0.7912 0.33007 0.0
H693 H 0.26711 0.88878 0.3357 0.0
H694 H 0.28174 0.85757 0.33514 0.0
H695 H 0.2595 0.86048 0.34633 0.0
C696 C 0.59972 0.81077 0.82748 0.0
C697 C 0.60789 0.78752 0.82266 0.0
C698 C 0.62274 0.83581 0.83445 0.0
C699 C 0.65428 0.83694 0.83694 0.0
C700 C 0.66217 0.81275 0.83236 0.0
C701 C 0.63916 0.78872 0.82512 0.0
C702 C 0.61379 0.86175 0.83888 0.0
C703 C 0.69503 0.8124 0.83504 0.0
C704 C 0.73151 0.91989 0.84722 0.0
C705 C 0.72858 0.91369 0.85781 0.0
C706 C 0.70685 0.89567 0.84037 0.0
C707 C 0.67931 0.8639 0.84418 0.0
C708 C 0.67599 0.85776 0.8549 0.0
C709 C 0.70034 0.88299 0.8616 0.0
C710 C 0.71064 0.90381 0.82903 0.0
C711 C 0.64761 0.82392 0.85927 0.0
H712 H 0.5758 0.81031 0.82549 0.0
H713 H 0.64556 0.77079 0.82142 0.0
H714 H 0.61318 0.86029 0.84738 0.0
H715 H 0.63412 0.88848 0.83674 0.0
H716 H 0.58825 0.85741 0.83614 0.0
H717 H 0.69617 0.79044 0.83137 0.0
H718 H 0.718 0.83705 0.83255 0.0
H719 H 0.69695 0.8105 0.84349 0.0
H720 H 0.75337 0.94356 0.84427 0.0
H721 H 0.69832 0.8778 0.86977 0.0
H722 H 0.68593 0.90043 0.82589 0.0
H723 H 0.7164 0.88546 0.8249 0.0
H724 H 0.73176 0.93072 0.8274 0.0
H725 H 0.62175 0.8194 0.85686 0.0
H726 H 0.64834 0.82334 0.86779 0.0
H727 H 0.6503 0.80206 0.85623 0.0
C728 C 0.13827 0.8793 0.84512 0.0
C729 C 0.11511 0.84821 0.85011 0.0
C730 C 0.16325 0.88087 0.8382 0.0
C731 C 0.16437 0.85032 0.83592 0.0
C732 C 0.14024 0.81854 0.84069 0.0
C733 C 0.11632 0.81801 0.84788 0.0
C734 C 0.18917 0.91549 0.83359 0.0
C735 C 0.13982 0.78516 0.83822 0.0
C736 C 0.21034 0.84944 0.81133 0.0
C737 C 0.24114 0.85224 0.81514 0.0
C738 C 0.18503 0.84856 0.818 0.0
C739 C 0.19123 0.8518 0.82872 0.0
C740 C 0.22306 0.85627 0.83255 0.0
C741 C 0.24731 0.85571 0.82573 0.0
C742 C 0.15108 0.84271 0.81361 0.0
C743 C 0.2313 0.86114 0.84387 0.0
H744 H 0.13782 0.90288 0.84693 0.0
H745 H 0.09847 0.79395 0.85173 0.0
H746 H 0.21593 0.92195 0.83571 0.0
H747 H 0.18753 0.91415 0.8251 0.0
H748 H 0.18495 0.93688 0.83621 0.0
H749 H 0.11784 0.76229 0.84198 0.0
H750 H 0.13791 0.78085 0.8298 0.0
H751 H 0.16446 0.78694 0.84078 0.0
H752 H 0.20518 0.84606 0.80315 0.0
H753 H 0.27106 0.85774 0.82869 0.0
H754 H 0.14664 0.86426 0.81583 0.0
H755 H 0.12928 0.81843 0.81681 0.0
H756 H 0.15031 0.8407 0.8051 0.0
H757 H 0.22798 0.88264 0.8469 0.0
H758 H 0.25823 0.86699 0.84552 0.0
H759 H 0.21298 0.83725 0.84811 0.0
C760 C 0.13239 0.26189 0.84987 0.0
C761 C 0.16348 0.2704 0.85496 0.0
C762 C 0.13062 0.28488 0.84283 0.0
C763 C 0.16097 0.31675 0.84054 0.0
C764 C 0.19277 0.32493 0.84538 0.0
C765 C 0.1935 0.30194 0.85269 0.0
C766 C 0.09598 0.2756 0.83813 0.0
C767 C 0.22594 0.35813 0.84292 0.0
C768 C 0.1618 0.36353 0.81593 0.0
C769 C 0.15848 0.39123 0.81973 0.0
C770 C 0.1628 0.33917 0.8226 0.0
C771 C 0.15918 0.3419 0.83331 0.0
C772 C 0.15415 0.36893 0.83713 0.0
C773 C 0.15456 0.39366 0.83032 0.0
C774 C 0.1692 0.31141 0.81823 0.0
C775 C 0.14889 0.37207 0.84844 0.0
H776 H 0.10895 0.23776 0.85171 0.0
H777 H 0.21755 0.30861 0.85661 0.0
H778 H 0.08891 0.29546 0.84026 0.0
H779 H 0.09762 0.27557 0.82964 0.0
H780 H 0.07484 0.24974 0.84068 0.0
H781 H 0.24893 0.35934 0.8467 0.0
H782 H 0.23032 0.36056 0.8345 0.0
H783 H 0.2238 0.38079 0.84546 0.0
H784 H 0.1655 0.36195 0.80776 0.0
H785 H 0.1521 0.41513 0.83327 0.0
H786 H 0.14794 0.28528 0.82048 0.0
H787 H 0.19366 0.31435 0.82144 0.0
H788 H 0.17122 0.31264 0.80973 0.0
H789 H 0.12754 0.34707 0.85143 0.0
H790 H 0.14259 0.39284 0.85007 0.0
H791 H 0.17278 0.37795 0.85273 0.0
C792 C 0.78099 0.63531 0.68371 0.0
C793 C 0.77972 0.60388 0.68596 0.0
C794 C 0.80486 0.6586 0.67648 0.0
C795 C 0.82896 0.65089 0.67173 0.0
C796 C 0.82777 0.61918 0.67402 0.0
C797 C 0.80278 0.59583 0.68095 0.0
C798 C 0.80448 0.69156 0.67398 0.0
C799 C 0.85369 0.61044 0.66945 0.0
C800 C 0.87557 0.69767 0.64718 0.0
C801 C 0.90634 0.72559 0.65103 0.0
C802 C 0.85003 0.67334 0.65382 0.0
C803 C 0.85597 0.67628 0.66455 0.0
C804 C 0.88776 0.7036 0.66843 0.0
C805 C 0.91222 0.72835 0.66163 0.0
C806 C 0.81613 0.64533 0.64938 0.0
C807 C 0.89576 0.70695 0.67976 0.0
H808 H 0.76323 0.64161 0.68757 0.0
H809 H 0.8023 0.57181 0.6828 0.0
H810 H 0.82901 0.71441 0.6766 0.0
H811 H 0.80283 0.69404 0.66555 0.0
H812 H 0.78236 0.69238 0.67767 0.0
H813 H 0.84938 0.58479 0.67207 0.0
H814 H 0.85219 0.61021 0.66095 0.0
H815 H 0.88044 0.63067 0.6716 0.0
H816 H 0.87066 0.69588 0.63899 0.0
H817 H 0.93594 0.75001 0.66462 0.0
H818 H 0.7943 0.64782 0.65256 0.0
H819 H 0.8116 0.6193 0.65159 0.0
H820 H 0.8155 0.64667 0.64088 0.0
H821 H 0.87738 0.71254 0.68395 0.0
H822 H 0.92267 0.72798 0.68145 0.0
H823 H 0.89235 0.68211 0.68281 0.0
C824 C 0.42299 0.20939 0.68002 0.0
C825 C 0.41476 0.17826 0.68504 0.0
C826 C 0.39969 0.21119 0.67311 0.0
C827 C 0.36782 0.1808 0.67087 0.0
C828 C 0.35993 0.14895 0.67562 0.0
C829 C 0.38319 0.14821 0.68283 0.0
C830 C 0.40863 0.2459 0.66853 0.0
C831 C 0.32679 0.11572 0.67317 0.0
C832 C 0.29054 0.18722 0.66095 0.0
C833 C 0.29305 0.184 0.65034 0.0
C834 C 0.31533 0.18734 0.66769 0.0
C835 C 0.34242 0.18262 0.66374 0.0
C836 C 0.34511 0.17953 0.653 0.0
C837 C 0.32076 0.18091 0.64642 0.0
C838 C 0.31226 0.1921 0.67904 0.0
C839 C 0.37286 0.17335 0.6485 0.0
H840 H 0.44712 0.23285 0.68184 0.0
H841 H 0.37675 0.12414 0.6867 0.0
H842 H 0.40862 0.24455 0.66004 0.0
H843 H 0.38862 0.25267 0.67075 0.0
H844 H 0.43444 0.26711 0.67109 0.0
H845 H 0.32588 0.09272 0.67684 0.0
H846 H 0.3041 0.11759 0.67585 0.0
H847 H 0.32411 0.11159 0.66475 0.0
H848 H 0.26904 0.18947 0.66399 0.0
H849 H 0.32235 0.17771 0.63823 0.0
H850 H 0.33724 0.21341 0.68204 0.0
H851 H 0.30655 0.16809 0.68322 0.0
H852 H 0.29141 0.19819 0.68077 0.0
H853 H 0.39901 0.19471 0.65068 0.0
H854 H 0.37137 0.17138 0.64 0.0
H855 H 0.3702 0.14895 0.65166 0.0
C856 C 0.80897 0.21597 0.68087 0.0
C857 C 0.84007 0.23885 0.6859 0.0
C858 C 0.80726 0.19105 0.67391 0.0
C859 C 0.83772 0.18975 0.67161 0.0
C860 C 0.86954 0.21369 0.67638 0.0
C861 C 0.87019 0.23749 0.68364 0.0
C862 C 0.77258 0.16529 0.66931 0.0
C863 C 0.90283 0.21397 0.67388 0.0
C864 C 0.83154 0.10641 0.66147 0.0
C865 C 0.83468 0.11237 0.65086 0.0
C866 C 0.83139 0.13089 0.66827 0.0
C867 C 0.83601 0.16276 0.66441 0.0
C868 C 0.83905 0.16879 0.65368 0.0
C869 C 0.83769 0.14323 0.64703 0.0
C870 C 0.82667 0.12279 0.67961 0.0
C871 C 0.84512 0.20279 0.64926 0.0
H872 H 0.78546 0.21652 0.68272 0.0
H873 H 0.89424 0.25511 0.68752 0.0
H874 H 0.77391 0.16688 0.66082 0.0
H875 H 0.76593 0.13849 0.67145 0.0
H876 H 0.7513 0.1697 0.67193 0.0
H877 H 0.9258 0.23601 0.67757 0.0
H878 H 0.90105 0.18938 0.67649 0.0
H879 H 0.90698 0.21566 0.66545 0.0
H880 H 0.82935 0.08261 0.66444 0.0
H881 H 0.84083 0.1482 0.63884 0.0
H882 H 0.8053 0.12628 0.68266 0.0
H883 H 0.85067 0.14106 0.6838 0.0
H884 H 0.8207 0.09584 0.68128 0.0
H885 H 0.82368 0.20741 0.65148 0.0
H886 H 0.84713 0.20349 0.64076 0.0
H887 H 0.86948 0.22451 0.65246 0.0
C888 C 0.06461 0.57478 0.5139 0.0
C889 C 0.06201 0.56892 0.52451 0.0
C890 C 0.0398 0.55028 0.50714 0.0
C891 C 0.01257 0.51848 0.51105 0.0
C892 C 1.00979 0.51256 0.52178 0.0
C893 C 0.03417 0.53814 0.52839 0.0
C894 C 0.04298 0.55826 0.49579 0.0
C895 C 0.98188 0.47864 0.52625 0.0
C896 C 0.93199 0.46524 0.49473 0.0
C897 C 0.94006 0.44227 0.48968 0.0
C898 C 0.95535 0.49019 0.50165 0.0
C899 C 0.98711 0.49144 0.5039 0.0
C900 C 0.99484 0.4674 0.49912 0.0
C901 C 0.97153 0.44356 0.49189 0.0
C902 C 0.94659 0.51604 0.50626 0.0
C903 C 0.02786 0.46707 0.50157 0.0
H904 H 0.08621 0.59851 0.51088 0.0
H905 H 0.0325 0.53325 0.53658 0.0
H906 H 0.04857 0.5399 0.49159 0.0
H907 H 0.01808 0.55478 0.49279 0.0
H908 H 0.06396 0.58517 0.49408 0.0
H909 H 0.98333 0.47804 0.53475 0.0
H910 H 0.9558 0.47405 0.52408 0.0
H911 H 0.9844 0.45685 0.52307 0.0
H912 H 0.90794 0.46474 0.49291 0.0
H913 H 0.97785 0.42588 0.488 0.0
H914 H 0.96672 0.5428 0.50407 0.0
H915 H 0.94652 0.51457 0.51475 0.0
H916 H 0.92086 0.51164 0.50369 0.0
H917 H 0.05065 0.4916 0.49891 0.0
H918 H 0.02865 0.44495 0.49787 0.0
H919 H 0.03047 0.46547 0.50999 0.0
C920 C 0.44262 0.49419 0.51335 0.0
C921 C 0.44862 0.49732 0.52395 0.0
C922 C 0.46709 0.49407 0.50653 0.0
C923 C 0.49898 0.49872 0.51037 0.0
C924 C 0.50504 0.50173 0.52109 0.0
C925 C 0.4795 0.50034 0.52777 0.0
C926 C 0.45896 0.4894 0.4952 0.0
C927 C 0.53907 0.50781 0.52549 0.0
C928 C 0.55232 0.47192 0.49387 0.0
C929 C 0.57518 0.50308 0.48886 0.0
C930 C 0.52735 0.47012 0.50084 0.0
C931 C 0.52599 0.50052 0.50316 0.0
C932 C 0.5499 0.53239 0.49839 0.0
C933 C 0.57375 0.53314 0.49113 0.0
C934 C 0.50163 0.43539 0.50543 0.0
C935 C 0.55011 0.56563 0.50091 0.0
H936 H 0.41881 0.492 0.51039 0.0
H937 H 0.4845 0.50347 0.53595 0.0
H938 H 0.4772 0.51342 0.49101 0.0
H939 H 0.4625 0.46807 0.49213 0.0
H940 H 0.43199 0.48338 0.49354 0.0
H941 H 0.53978 0.50975 0.534 0.0
H942 H 0.54373 0.48642 0.52326 0.0
H943 H 0.56077 0.5322 0.52231 0.0
H944 H 0.55292 0.44846 0.49201 0.0
H945 H 0.59136 0.55723 0.48726 0.0
H946 H 0.47481 0.42872 0.5033 0.0
H947 H 0.50322 0.43666 0.51392 0.0
H948 H 0.50607 0.41415 0.50279 0.0
H949 H 0.52547 0.5638 0.49833 0.0
H950 H 0.5721 0.58863 0.49721 0.0
H951 H 0.55183 0.56974 0.50934 0.0
C952 C 0.54603 0.08549 0.4943 0.0
C953 C 0.51488 0.07736 0.48931 0.0
C954 C 0.54778 0.06217 0.50121 0.0
C955 C 0.51733 0.03041 0.50351 0.0
C956 C 0.48547 0.02262 0.49878 0.0
C957 C 0.48477 0.04588 0.49157 0.0
C958 C 0.5825 0.071 0.50576 0.0
C959 C 0.45218 0.98959 0.50129 0.0
C960 C 0.52348 0.95305 0.51351 0.0
C961 C 0.52043 0.95575 0.52413 0.0
C962 C 0.52361 0.97779 0.50674 0.0
C963 C 0.51907 1.00502 0.51066 0.0
C964 C 0.51614 0.00789 0.5214 0.0
C965 C 0.51751 0.98359 0.52801 0.0
C966 C 0.52821 0.97452 0.4954 0.0
C967 C 0.51017 0.0358 0.52587 0.0
H968 H 0.56953 0.10955 0.49244 0.0
H969 H 0.46069 0.03951 0.48772 0.0
H970 H 0.58126 0.07116 0.51425 0.0
H971 H 0.58909 0.05085 0.50357 0.0
H972 H 0.60377 0.09671 0.50315 0.0
H973 H 0.42919 0.98874 0.49763 0.0
H974 H 0.4539 0.9668 0.49863 0.0
H975 H 0.44811 0.98704 0.50972 0.0
H976 H 0.52559 0.93146 0.51049 0.0
H977 H 0.51444 0.98532 0.53621 0.0
H978 H 0.54957 0.99941 0.49235 0.0
H979 H 0.50418 0.96888 0.49124 0.0
H980 H 0.53414 0.95355 0.49368 0.0
H981 H 0.53161 0.06187 0.52366 0.0
H982 H 0.50825 0.0344 0.53438 0.0
H983 H 0.48579 0.03324 0.52272 0.0
C984 C 0.47927 0.92958 0.01443 0.0
C985 C 0.45601 0.93765 0.0193 0.0
C986 C 0.50422 0.95271 0.00746 0.0
C987 C 0.50527 0.98424 0.00501 0.0
C988 C 0.48104 0.992 0.00964 0.0
C989 C 0.45712 0.9689 0.01689 0.0
C990 C 0.5302 0.94389 1.00297 0.0
C991 C 0.48057 0.02483 0.007 0.0
C992 C 0.58813 0.06168 0.99474 0.0
C993 C 0.58196 0.05883 0.98415 0.0
C994 C 0.56393 0.03693 1.00159 0.0
C995 C 0.53218 0.0094 0.99777 0.0
C996 C 0.52605 1.00619 0.98705 0.0
C997 C 0.55127 0.03061 0.98036 0.0
C998 C 0.57207 0.04062 0.01292 0.0
C999 C 0.49221 0.97783 0.98268 0.0
H1000 H 0.47888 0.90568 0.01639 0.0
H1001 H 0.43919 0.97521 0.02063 0.0
H1002 H 0.52871 0.94339 0.99448 0.0
H1003 H 0.55693 0.96423 0.00511 0.0
H1004 H 0.52593 0.91834 0.00568 0.0
H1005 H 0.45856 0.02584 0.01069 0.0
H1006 H 0.50518 0.04782 0.00951 0.0
H1007 H 0.47868 0.02686 0.99856 0.0
H1008 H 0.61179 0.08353 0.9977 0.0
H1009 H 0.54611 0.02866 0.97218 0.0
H1010 H 0.56877 0.0159 0.01603 0.0
H1011 H 0.55369 0.04626 0.01708 0.0
H1012 H 0.59897 0.06176 0.01455 0.0
H1013 H 0.48776 0.95196 0.98505 0.0
H1014 H 0.49161 0.97868 0.97416 0.0
H1015 H 0.47033 0.98043 0.98575 0.0
C1016 C 0.971 0.52516 0.98953 0.0
C1017 C 0.93956 0.49508 0.98722 0.0
C1018 C 0.99397 0.52444 0.99684 0.0
C1019 C 0.98591 0.4926 1.00163 0.0
C1020 C 0.95416 0.4622 0.99931 0.0
C1021 C 0.93115 0.46395 0.99227 0.0
C1022 C 0.02703 0.55768 0.99935 0.0
C1023 C 0.94503 0.42752 1.00395 0.0
C1024 C 0.06294 0.48639 0.01185 0.0
C1025 C 0.06029 0.48995 0.02245 0.0
C1026 C 0.03826 0.48606 0.00503 0.0
C1027 C 0.01108 0.49083 0.00886 0.0
C1028 C 1.00816 0.49414 0.01958 0.0
C1029 C 0.03245 0.49305 0.02625 0.0
C1030 C 0.04161 0.48113 0.99371 0.0
C1031 C 0.98023 0.50029 0.02396 0.0
H1032 H 0.97757 0.54924 0.98563 0.0
H1033 H 0.90712 0.44047 0.9904 0.0
H1034 H 0.02935 0.56188 0.00778 0.0
H1035 H 0.04982 0.55577 0.9968 0.0
H1036 H 0.02812 0.58067 0.99561 0.0
H1037 H 0.91926 0.40632 1.00136 0.0
H1038 H 0.96504 0.42067 1.00182 0.0
H1039 H 0.94484 0.42897 0.01244 0.0
H1040 H 0.08451 0.48411 0.00889 0.0
H1041 H 0.03072 0.49648 0.03443 0.0
H1042 H 0.0474 0.50508 0.98947 0.0
H1043 H 0.01671 0.45976 0.99068 0.0
H1044 H 0.06252 0.47504 0.99207 0.0
H1045 H 0.98305 0.52474 0.02078 0.0
H1046 H 0.98138 0.50218 0.03246 0.0
H1047 H 0.95417 0.47897 0.0217 0.0
C1048 C 0.54894 0.46816 0.99672 0.0
C1049 C 0.5178 0.44513 0.99173 0.0
C1050 C 0.55061 0.49305 1.00368 0.0
C1051 C 0.52011 0.49423 0.006 0.0
C1052 C 0.48828 0.47021 1.00125 0.0
C1053 C 0.48764 0.44638 0.99401 0.0
C1054 C 0.58527 0.51886 0.00827 0.0
C1055 C 0.45495 0.46986 1.00377 0.0
C1056 C 0.51933 0.5401 0.03062 0.0
C1057 C 0.52212 0.57091 0.02682 0.0
C1058 C 0.51847 0.51484 0.02394 0.0
C1059 C 0.52171 0.52109 0.01322 0.0
C1060 C 0.52621 0.55295 0.0094 0.0
C1061 C 0.52565 0.57716 0.01622 0.0
C1062 C 0.5126 0.48086 0.02832 0.0
C1063 C 0.53108 0.56124 0.99808 0.0
H1064 H 0.57248 0.46768 0.99486 0.0
H1065 H 0.46355 0.42864 0.99017 0.0
H1066 H 0.59185 0.54565 0.00615 0.0
H1067 H 0.58395 0.51722 0.01677 0.0
H1068 H 0.60659 0.51453 0.00564 0.0
H1069 H 0.43202 0.44792 1.00002 0.0
H1070 H 0.45072 0.46794 0.01219 0.0
H1071 H 0.45676 0.49452 1.00122 0.0
H1072 H 0.51591 0.53489 0.03879 0.0
H1073 H 0.52769 0.60092 0.01327 0.0
H1074 H 0.53405 0.47633 0.02605 0.0
H1075 H 0.48822 0.45911 0.02515 0.0
H1076 H 0.51073 0.4801 0.03683 0.0
H1077 H 0.55252 0.55785 0.99503 0.0
H1078 H 0.53702 0.5882 0.99644 0.0
H1079 H 0.50715 0.543 0.99385 0.0
C1080 C 0.27398 0.01365 0.08919 0.0
C1081 C 0.28508 0.03346 0.09822 0.0
C1082 C 0.29307 0.9995 0.08481 0.0
C1083 C 0.32456 1.00583 0.08943 0.0
C1084 C 0.33696 0.02747 0.09822 0.0
C1085 C 0.31689 0.04069 0.10258 0.0
C1086 C 0.27848 0.97616 0.07555 0.0
C1087 C 0.37079 0.03559 0.10324 0.0
C1088 C 0.34749 0.93491 0.08531 0.0
C1089 C 0.36987 0.9474 0.07681 0.0
C1090 C 0.33347 0.95415 0.08966 0.0
C1091 C 0.34252 0.98716 0.08558 0.0
C1092 C 0.36652 1.00075 0.07733 0.0
C1093 C 0.37959 0.98055 0.07297 0.0
C1094 C 0.30757 0.9383 0.09832 0.0
C1095 C 0.37752 0.03615 0.07291 0.0
H1096 H 0.2494 0.00775 0.08577 0.0
H1097 H 0.32577 0.05607 0.10954 0.0
H1098 H 0.29808 0.98514 0.06932 0.0
H1099 H 0.27206 0.94937 0.07762 0.0
H1100 H 0.25464 0.97525 0.07255 0.0
H1101 H 0.37904 0.05627 0.10914 0.0
H1102 H 0.36792 0.01186 0.10697 0.0
H1103 H 0.39164 0.04395 0.0974 0.0
H1104 H 0.33965 0.9093 0.08833 0.0
H1105 H 0.39697 0.99049 0.06644 0.0
H1106 H 0.28191 0.93411 0.09579 0.0
H1107 H 0.31587 0.95622 0.10498 0.0
H1108 H 0.30432 0.91302 0.1009 0.0
H1109 H 0.35528 0.03554 0.06887 0.0
H1110 H 0.39938 0.04472 0.0674 0.0
H1111 H 0.38547 0.05568 0.07914 0.0
C1112 C 0.03226 0.40138 0.07217 0.0
C1113 C 0.06431 0.42601 0.07639 0.0
C1114 C 0.0123 0.36825 0.07665 0.0
C1115 C 0.02512 0.35917 0.08538 0.0
C1116 C 0.05682 0.38443 0.08987 0.0
C1117 C 0.07574 0.41756 0.08541 0.0
C1118 C 0.97816 0.34251 0.07179 0.0
C1119 C 0.07192 0.37583 0.09904 0.0
C1120 C 0.97147 0.27892 0.10203 0.0
C1121 C 0.98095 0.25553 0.09803 0.0
C1122 C 0.98406 0.31212 0.09765 0.0
C1123 C 1.00746 0.32254 0.08925 0.0
C1124 C 0.01629 0.29861 0.08502 0.0
C1125 C 1.00262 0.26537 0.08937 0.0
C1126 C 0.97317 0.33642 0.10221 0.0
C1127 C 0.04165 0.30868 0.07622 0.0
H1128 H 0.02314 0.40769 0.06523 0.0
H1129 H 0.10054 0.43627 0.08871 0.0
H1130 H 0.98089 0.32178 0.06791 0.0
H1131 H 0.95772 0.32985 0.07774 0.0
H1132 H 0.96944 0.35495 0.06603 0.0
H1133 H 0.09588 0.39883 0.10195 0.0
H1134 H 0.05265 0.36523 0.10536 0.0
H1135 H 0.07831 0.35549 0.09691 0.0
H1136 H 0.95464 0.27151 0.1087 0.0
H1137 H 0.01031 0.24762 0.08624 0.0
H1138 H 0.96496 0.34806 0.09606 0.0
H1139 H 0.99554 0.35803 0.10622 0.0
H1140 H 0.95153 0.32303 0.10779 0.0
H1141 H 0.03281 0.31809 0.06963 0.0
H1142 H 0.04492 0.28672 0.07358 0.0
H1143 H 0.0674 0.33032 0.07862 0.0
C1144 C 0.5946 0.65686 0.08899 0.0
C1145 C 0.58562 0.63688 0.07999 0.0
C1146 C 0.62817 0.67163 0.09316 0.0
C1147 C 0.65332 0.66559 0.0884 0.0
C1148 C 0.64374 0.64354 0.0797 0.0
C1149 C 0.61018 0.62987 0.0755 0.0
C1150 C 0.6373 0.69551 0.10231 0.0
C1151 C 0.66937 0.63553 0.07457 0.0
C1152 C 0.74702 0.73806 0.09155 0.0
C1153 C 0.75805 0.72685 0.10009 0.0
C1154 C 0.7134 0.71793 0.08752 0.0
C1155 C 0.6903 0.6852 0.09194 0.0
C1156 C 0.7019 0.67284 0.10021 0.0
C1157 C 0.73545 0.69404 0.10429 0.0
C1158 C 0.70204 0.73258 0.07886 0.0
C1159 C 0.67852 0.63769 0.10494 0.0
H1160 H 0.57594 0.66265 0.09248 0.0
H1161 H 0.60344 0.61436 0.06857 0.0
H1162 H 0.64879 0.68731 0.10849 0.0
H1163 H 0.6571 0.72231 0.10004 0.0
H1164 H 0.61436 0.6961 0.10545 0.0
H1165 H 0.65661 0.6141 0.0689 0.0
H1166 H 0.68942 0.65899 0.07051 0.0
H1167 H 0.68292 0.62831 0.08037 0.0
H1168 H 0.76416 0.76346 0.08829 0.0
H1169 H 0.7438 0.68511 0.11086 0.0
H1170 H 0.68031 0.73622 0.08148 0.0
H1171 H 0.69232 0.71416 0.07232 0.0
H1172 H 0.72342 0.75794 0.07607 0.0
H1173 H 0.6571 0.63816 0.10917 0.0
H1174 H 0.69276 0.62997 0.11036 0.0
H1175 H 0.66654 0.6176 0.09887 0.0
C1176 C 0.98706 0.37826 0.43652 0.0
C1177 C 0.95482 0.3698 0.43222 0.0
C1178 C 1.0076 0.36541 0.43227 0.0
C1179 C 0.9952 0.34282 0.42369 0.0
C1180 C 0.9632 0.33516 0.41913 0.0
C1181 C 0.94368 0.34904 0.42337 0.0
C1182 C 0.04198 0.37501 0.43719 0.0
C1183 C 0.94856 0.31072 0.41011 0.0
C1184 C 0.05042 0.31761 0.40731 0.0
C1185 C 0.04178 0.28512 0.41145 0.0
C1186 C 0.03706 0.33771 0.41156 0.0
C1187 C 0.01379 0.3246 0.41998 0.0
C1188 C 1.00588 0.2923 0.42438 0.0
C1189 C 0.02025 0.27323 0.42014 0.0
C1190 C 0.04692 0.37242 0.40682 0.0
C1191 C 0.98072 0.27692 0.43323 0.0
H1192 H 0.99596 0.3944 0.44333 0.0
H1193 H 0.91875 0.34217 0.42001 0.0
H1194 H 0.04004 0.35201 0.44115 0.0
H1195 H 0.06254 0.38321 0.43126 0.0
H1196 H 0.05007 0.39627 0.44289 0.0
H1197 H 0.92413 0.30863 0.40716 0.0
H1198 H 0.96775 0.31957 0.40376 0.0
H1199 H 0.94316 0.28444 0.41241 0.0
H1200 H 0.06714 0.32709 0.40062 0.0
H1201 H 0.01324 0.24809 0.42338 0.0
H1202 H 0.05464 0.39253 0.41287 0.0
H1203 H 0.02419 0.3707 0.40276 0.0
H1204 H 0.06861 0.38097 0.40125 0.0
H1205 H 0.98904 0.29557 0.4397 0.0
H1206 H 0.97841 0.25226 0.43604 0.0
H1207 H 0.95461 0.27169 0.43078 0.0
C1208 C 0.64306 0.61429 0.43439 0.0
C1209 C 0.6502 0.58936 0.43025 0.0
C1210 C 0.65646 0.64733 0.42984 0.0
C1211 C 0.67816 0.65596 0.42107 0.0
C1212 C 0.68441 0.63045 0.41667 0.0
C1213 C 0.67011 0.59747 0.42124 0.0
C1214 C 0.64843 0.67343 0.43463 0.0
C1215 C 0.70779 0.63854 0.40744 0.0
C1216 C 0.7036 0.73519 0.40407 0.0
C1217 C 0.73677 0.75883 0.40784 0.0
C1218 C 0.68335 0.70223 0.40862 0.0
C1219 C 0.6969 0.69234 0.41699 0.0
C1220 C 0.72994 0.71654 0.42101 0.0
C1221 C 0.74923 0.74948 0.41646 0.0
C1222 C 0.64793 0.67758 0.40426 0.0
C1223 C 0.74575 0.70705 0.4298 0.0
H1224 H 0.62762 0.60826 0.44133 0.0
H1225 H 0.67594 0.57852 0.41799 0.0
H1226 H 0.6722 0.69451 0.43828 0.0
H1227 H 0.64011 0.68556 0.42866 0.0
H1228 H 0.62776 0.66146 0.44055 0.0
H1229 H 0.70866 0.6154 0.40464 0.0
H1230 H 0.69886 0.64877 0.40109 0.0
H1231 H 0.73459 0.65902 0.40946 0.0
H1232 H 0.69367 0.7422 0.39744 0.0
H1233 H 0.77486 0.76743 0.41942 0.0
H1234 H 0.62839 0.66645 0.41051 0.0
H1235 H 0.64849 0.65563 0.4004 0.0
H1236 H 0.6394 0.6905 0.39861 0.0
H1237 H 0.7278 0.69786 0.43646 0.0
H1238 H 0.77103 0.72924 0.43231 0.0
H1239 H 0.74992 0.6854 0.42746 0.0
C1240 C 0.41708 0.07531 0.42318 0.0
C1241 C 0.42749 0.06328 0.43166 0.0
C1242 C 0.38377 0.05556 0.4189 0.0
C1243 C 0.36038 0.02238 0.423 0.0
C1244 C 0.37138 0.00924 0.43122 0.0
C1245 C 0.4046 0.03005 0.43555 0.0
C1246 C 0.37305 0.07104 0.4103 0.0
C1247 C 0.34769 0.97361 0.43562 0.0
C1248 C 0.26488 0.99415 0.41947 0.0
C1249 C 0.25673 0.97514 0.41029 0.0
C1250 C 0.29808 0.00851 0.42389 0.0
C1251 C 0.3237 1.00305 0.41918 0.0
C1252 C 0.31492 0.98192 0.41029 0.0
C1253 C 0.28172 0.96865 0.40586 0.0
C1254 C 0.30636 0.03142 0.43323 0.0
C1255 C 0.34105 0.97453 0.40521 0.0
H1256 H 0.43443 0.10103 0.42015 0.0
H1257 H 0.41247 0.02048 0.44208 0.0
H1258 H 0.36395 0.05332 0.4036 0.0
H1259 H 0.35104 0.07431 0.41287 0.0
H1260 H 0.39459 0.09672 0.40778 0.0
H1261 H 0.36152 0.96541 0.44104 0.0
H1262 H 0.32589 0.97359 0.43976 0.0
H1263 H 0.33627 0.95413 0.42937 0.0
H1264 H 0.24589 0.99954 0.42292 0.0
H1265 H 0.27564 0.95389 0.39879 0.0
H1266 H 0.32624 0.05847 0.43122 0.0
H1267 H 0.31742 0.02267 0.43939 0.0
H1268 H 0.28311 0.03156 0.4363 0.0
H1269 H 0.36136 0.9984 0.40139 0.0
H1270 H 0.32881 0.95366 0.39935 0.0
H1271 H 0.35417 0.96679 0.41101 0.0
C1272 C 0.69621 0.96443 0.90638 0.0
C1273 C 0.72821 0.97265 0.91081 0.0
C1274 C 0.67554 0.97722 0.91059 0.0
C1275 C 0.68774 0.99974 0.91919 0.0
C1276 C 0.71948 0.0071 0.92387 0.0
C1277 C 0.73899 0.99306 0.91972 0.0
C1278 C 0.64131 0.96769 0.90558 0.0
C1279 C 0.73401 0.0316 0.93289 0.0
C1280 C 0.66365 0.07019 0.92234 0.0
C1281 C 0.64251 0.05905 0.93111 0.0
C1282 C 0.67759 0.05058 0.9182 0.0
C1283 C 0.66938 0.01838 0.92274 0.0
C1284 C 0.6462 1.00589 0.9312 0.0
C1285 C 0.63353 0.02666 0.9354 0.0
C1286 C 0.70283 0.06542 0.90935 0.0
C1287 C 0.63577 0.97119 0.93604 0.0
H1288 H 0.68762 0.94857 0.89952 0.0
H1289 H 0.7638 0.99981 0.92315 0.0
H1290 H 0.62073 0.96021 0.91147 0.0
H1291 H 0.64363 0.9905 0.9014 0.0
H1292 H 0.63302 0.94595 0.90004 0.0
H1293 H 0.75832 0.03357 0.9359 0.0
H1294 H 0.73961 0.05791 0.93054 0.0
H1295 H 0.7147 0.02291 0.93919 0.0
H1296 H 0.671 0.09531 0.91902 0.0
H1297 H 0.61712 0.01781 0.94216 0.0
H1298 H 0.69429 0.04659 0.90293 0.0
H1299 H 0.72879 0.07032 0.91183 0.0
H1300 H 0.70554 0.09018 0.90646 0.0
H1301 H 0.62835 0.95096 0.93004 0.0
H1302 H 0.61371 0.96288 0.94146 0.0
H1303 H 0.65812 0.9728 0.9403 0.0
C1304 C 0.93941 0.59474 0.92018 0.0
C1305 C 0.95139 0.58594 0.92902 0.0
C1306 C 0.95809 0.628 0.91579 0.0
C1307 C 0.99003 0.65311 0.92019 0.0
C1308 C 1.00326 0.64381 0.92878 0.0
C1309 C 0.9836 0.61049 0.93317 0.0
C1310 C 0.94264 0.63682 0.90675 0.0
C1311 C 0.03758 0.66947 0.93356 0.0
C1312 C 0.04348 0.73316 0.90347 0.0
C1313 C 0.03417 0.75666 0.90751 0.0
C1314 C 0.03086 0.69997 0.90786 0.0
C1315 C 1.00774 0.68972 0.91632 0.0
C1316 C 0.99918 0.71378 0.9206 0.0
C1317 C 0.01274 0.74695 0.91622 0.0
C1318 C 0.04133 0.67547 0.90321 0.0
C1319 C 0.97421 0.70391 0.92951 0.0
H1320 H 0.91452 0.57608 0.91692 0.0
H1321 H 0.99315 0.60392 0.93997 0.0
H1322 H 0.93661 0.65732 0.90899 0.0
H1323 H 0.96158 0.64729 0.90034 0.0
H1324 H 0.91841 0.61395 0.90392 0.0
H1325 H 0.04632 0.65704 0.93932 0.0
H1326 H 0.05788 0.68187 0.92756 0.0
H1327 H 0.03515 0.69041 0.93742 0.0
H1328 H 0.06013 0.74045 0.89677 0.0
H1329 H 1.00524 0.7648 0.91939 0.0
H1330 H 0.01867 0.65385 0.8993 0.0
H1331 H 0.04978 0.66385 0.9093 0.0
H1332 H 0.06267 0.68866 0.89753 0.0
H1333 H 0.94824 0.68253 0.92716 0.0
H1334 H 0.97141 0.72605 0.93224 0.0
H1335 H 0.98309 0.69421 0.93601 0.0
C1336 C 0.41654 0.34427 0.92549 0.0
C1337 C 0.4262 0.36548 0.93425 0.0
C1338 C 0.38331 0.33064 0.92115 0.0
C1339 C 0.35915 0.33892 0.92552 0.0
C1340 C 0.36937 0.36185 0.93402 0.0
C1341 C 0.40261 0.37454 0.93836 0.0
C1342 C 0.37348 0.30588 0.91221 0.0
C1343 C 0.34475 0.37203 0.93876 0.0
C1344 C 0.27955 0.31456 0.90884 0.0
C1345 C 0.25521 0.28224 0.91298 0.0
C1346 C 0.31293 0.33431 0.91317 0.0
C1347 C 0.32248 0.32107 0.9217 0.0
C1348 C 0.29759 0.28899 0.9261 0.0
C1349 C 0.26427 0.27023 0.92176 0.0
C1350 C 0.33835 0.36877 0.90841 0.0
C1351 C 0.30669 0.27352 0.93507 0.0
H1352 H 0.43445 0.33697 0.92227 0.0
H1353 H 0.40987 0.39102 0.9451 0.0
H1354 H 0.35227 0.27979 0.91454 0.0
H1355 H 0.36358 0.31477 0.90576 0.0
H1356 H 0.39571 0.30333 0.9094 0.0
H1357 H 0.35792 0.39332 0.94445 0.0
H1358 H 0.33293 0.38044 0.93272 0.0
H1359 H 0.32329 0.34924 0.94268 0.0
H1360 H 0.27278 0.32413 0.90208 0.0
H1361 H 0.24577 0.24524 0.92501 0.0
H1362 H 0.35934 0.36658 0.90449 0.0
H1363 H 0.35073 0.38899 0.91443 0.0
H1364 H 0.32572 0.37747 0.90271 0.0
H1365 H 0.32731 0.26775 0.93276 0.0
H1366 H 0.28397 0.24915 0.9379 0.0
H1367 H 0.31711 0.29234 0.9415 0.0
C1368 C 1.0002 0.73955 0.58911 0.0
C1369 C 0.97906 0.72827 0.59789 0.0
C1370 C 0.01445 0.72021 0.58498 0.0
C1371 C 1.00674 0.6882 0.58955 0.0
C1372 C 0.98376 0.67564 0.59805 0.0
C1373 C 0.9706 0.69604 0.60222 0.0
C1374 C 0.03934 0.73506 0.57605 0.0
C1375 C 0.97402 0.64121 0.60297 0.0
C1376 C 0.03303 0.63351 0.57329 0.0
C1377 C 0.06532 0.64208 0.57757 0.0
C1378 C 0.01262 0.64666 0.57746 0.0
C1379 C 0.02524 0.66973 0.58594 0.0
C1380 C 0.05731 0.67753 0.59047 0.0
C1381 C 0.07666 0.66329 0.58633 0.0
C1382 C 0.97813 0.63681 0.57258 0.0
C1383 C 0.07222 0.70251 0.59937 0.0
H1384 H 1.00712 0.7645 0.58575 0.0
H1385 H 0.95421 0.68704 0.60898 0.0
H1386 H 0.06552 0.74044 0.57847 0.0
H1387 H 0.03083 0.71603 0.56968 0.0
H1388 H 0.04155 0.75955 0.5731 0.0
H1389 H 0.95241 0.63295 0.60856 0.0
H1390 H 0.96623 0.62077 0.59702 0.0
H1391 H 0.99683 0.64319 0.60705 0.0
H1392 H 0.02398 0.61705 0.56655 0.0
H1393 H 0.10166 0.67029 0.58967 0.0
H1394 H 0.98002 0.65956 0.56847 0.0
H1395 H 0.95773 0.62905 0.57854 0.0
H1396 H 0.96985 0.61516 0.56701 0.0
H1397 H 0.07753 0.72865 0.59693 0.0
H1398 H 0.09676 0.7048 0.60229 0.0
H1399 H 0.05325 0.69404 0.60576 0.0
C1400 C 0.32194 0.27791 0.60167 0.0
C1401 C 0.28968 0.25418 0.59737 0.0
C1402 C 0.34233 0.3115 0.59751 0.0
C1403 C 0.32973 0.32199 0.58904 0.0
C1404 C 0.29769 0.29772 0.58449 0.0
C1405 C 0.27836 0.2641 0.58861 0.0
C1406 C 0.37679 0.33614 0.60241 0.0
C1407 C 0.28279 0.30783 0.57559 0.0
C1408 C 0.35469 0.41686 0.5859 0.0
C1409 C 0.37587 0.42681 0.57713 0.0
C1410 C 0.34045 0.38324 0.59002 0.0
C1411 C 0.3482 0.35899 0.58545 0.0
C1412 C 0.37123 0.3695 0.57695 0.0
C1413 C 0.38438 0.40309 0.5728 0.0
C1414 C 0.31551 0.37311 0.59894 0.0
C1415 C 0.38103 0.34488 0.57203 0.0
H1416 H 0.33097 0.27046 0.60841 0.0
H1417 H 0.25339 0.24611 0.58526 0.0
H1418 H 0.39721 0.34884 0.59646 0.0
H1419 H 0.37485 0.35695 0.60652 0.0
H1420 H 0.38507 0.32276 0.60798 0.0
H1421 H 0.25828 0.28558 0.57266 0.0
H1422 H 0.27745 0.32863 0.57804 0.0
H1423 H 0.30179 0.3184 0.56921 0.0
H1424 H 0.34773 0.43484 0.58927 0.0
H1425 H 0.40081 0.41055 0.56605 0.0
H1426 H 0.32401 0.36256 0.60531 0.0
H1427 H 0.28936 0.3523 0.59651 0.0
H1428 H 0.31325 0.39535 0.60189 0.0
H1429 H 0.38882 0.3322 0.57797 0.0
H1430 H 0.40265 0.35828 0.56645 0.0
H1431 H 0.35825 0.32406 0.56793 0.0
C1432 C 0.73999 0.0471 0.60191 0.0
C1433 C 0.76374 0.03856 0.59762 0.0
C1434 C 0.70644 0.03395 0.59774 0.0
C1435 C 0.69601 0.01091 0.58925 0.0
C1436 C 0.7203 1.00313 0.58472 0.0
C1437 C 0.75388 0.01736 0.58887 0.0
C1438 C 0.68177 0.04376 0.60262 0.0
C1439 C 0.71027 0.97819 0.57581 0.0
C1440 C 0.60113 0.94114 0.58603 0.0
C1441 C 0.59131 0.95251 0.57726 0.0
C1442 C 0.63471 0.96043 0.59018 0.0
C1443 C 0.65906 0.99247 0.58563 0.0
C1444 C 0.64868 1.00511 0.57714 0.0
C1445 C 0.61512 0.98476 0.57296 0.0
C1446 C 0.64469 0.9455 0.59909 0.0
C1447 C 0.67342 0.03956 0.57224 0.0
H1448 H 0.74738 0.06354 0.60866 0.0
H1449 H 0.77189 0.01038 0.58552 0.0
H1450 H 0.66919 0.05159 0.59666 0.0
H1451 H 0.66087 0.02097 0.6067 0.0
H1452 H 0.6951 0.06536 0.60821 0.0
H1453 H 0.73254 0.97592 0.57289 0.0
H1454 H 0.68942 0.95205 0.57824 0.0
H1455 H 0.6998 0.9867 0.56942 0.0
H1456 H 0.58307 0.91618 0.58938 0.0
H1457 H 0.60777 0.99384 0.56621 0.0
H1458 H 0.65521 0.9645 0.60548 0.0
H1459 H 0.66549 0.94013 0.59667 0.0
H1460 H 0.62239 0.921 0.60202 0.0
H1461 H 0.68604 0.05997 0.57819 0.0
H1462 H 0.66013 0.04786 0.56664 0.0
H1463 H 0.69428 0.0376 0.56816 0.0
C1464 C 0.7114 0.64757 0.7395 0.0
C1465 C 0.70451 0.61587 0.74386 0.0
C1466 C 0.69789 0.66738 0.74387 0.0
C1467 C 0.67633 0.65483 0.75267 0.0
C1468 C 0.67036 0.62347 0.75731 0.0
C1469 C 0.68477 0.60463 0.75291 0.0
C1470 C 0.70561 0.70107 0.73883 0.0
C1471 C 0.64715 0.60874 0.7666 0.0
C1472 C 0.6506 0.70957 0.76911 0.0
C1473 C 0.61736 0.69957 0.7653 0.0
C1474 C 0.67093 0.69664 0.76476 0.0
C1475 C 0.6574 0.67252 0.75655 0.0
C1476 C 0.62427 0.66315 0.7525 0.0
C1477 C 0.60489 0.67702 0.75685 0.0
C1478 C 0.70644 0.70795 0.76914 0.0
C1479 C 0.60849 0.63712 0.74388 0.0
H1480 H 0.72672 0.65656 0.73253 0.0
H1481 H 0.67914 0.58014 0.75634 0.0
H1482 H 0.68172 0.69793 0.73514 0.0
H1483 H 0.71387 0.72194 0.74466 0.0
H1484 H 0.72622 0.70947 0.73289 0.0
H1485 H 0.64657 0.58506 0.7696 0.0
H1486 H 0.656 0.62837 0.77281 0.0
H1487 H 0.62025 0.60201 0.76456 0.0
H1488 H 0.66053 0.72708 0.77561 0.0
H1489 H 0.5792 0.66897 0.75386 0.0
H1490 H 0.72595 0.71608 0.76289 0.0
H1491 H 0.70611 0.68581 0.77317 0.0
H1492 H 0.71487 0.72976 0.77466 0.0
H1493 H 0.62633 0.6455 0.7372 0.0
H1494 H 0.58307 0.63359 0.74134 0.0
H1495 H 0.60459 0.61159 0.74643 0.0
C1496 C 0.40956 0.07858 0.75046 0.0
C1497 C 0.3983 0.08968 0.74196 0.0
C1498 C 0.38937 0.04499 0.75452 0.0
C1499 C 0.35653 0.022 0.75015 0.0
C1500 C 0.34412 0.03369 0.74192 0.0
C1501 C 0.36537 0.0672 0.73781 0.0
C1502 C 0.40408 0.03353 0.76314 0.0
C1503 C 0.30884 0.01043 0.73725 0.0
C1504 C 0.32778 0.92618 0.75305 0.0
C1505 C 0.30791 0.91721 0.76207 0.0
C1506 C 0.34266 0.95979 0.74889 0.0
C1507 C 0.33685 0.98502 0.7537 0.0
C1508 C 0.31493 0.97548 0.76244 0.0
C1509 C 0.30114 0.94186 0.76661 0.0
C1510 C 0.3664 0.96887 0.7397 0.0
C1511 C 0.30717 1.0012 0.76762 0.0
H1512 H 0.43505 0.09563 0.75368 0.0
H1513 H 0.35639 0.0756 0.73127 0.0
H1514 H 0.38576 0.02384 0.7697 0.0
H1515 H 0.4076 0.01175 0.76049 0.0
H1516 H 0.42952 0.05484 0.7659 0.0
H1517 H 0.30112 0.02475 0.73186 0.0
H1518 H 0.30912 0.98896 0.733 0.0
H1519 H 0.28885 0.99852 0.74336 0.0
H1520 H 0.33339 0.90745 0.74951 0.0
H1521 H 0.28571 0.93514 0.77356 0.0
H1522 H 0.39326 0.98861 0.74194 0.0
H1523 H 0.35817 0.98042 0.73355 0.0
H1524 H 0.36686 0.9459 0.73654 0.0
H1525 H 0.33074 0.02115 0.77164 0.0
H1526 H 0.28582 0.98849 0.77332 0.0
H1527 H 0.29994 0.01485 0.76185 0.0
C1528 C 0.9362 0.33346 0.75258 0.0
C1529 C 0.92641 0.31162 0.74397 0.0
C1530 C 0.96936 0.34712 0.75697 0.0
C1531 C 0.99327 0.33809 0.75283 0.0
C1532 C 0.98291 0.31452 0.74448 0.0
C1533 C 0.94979 0.30196 0.74005 0.0
C1534 C 0.97939 0.37267 0.76571 0.0
C1535 C 1.00718 0.30341 0.74003 0.0
C1536 C 0.0883 0.40623 0.75673 0.0
C1537 C 0.0965 0.39496 0.76583 0.0
C1538 C 0.05525 0.38728 0.75222 0.0
C1539 C 0.02984 0.3557 0.75675 0.0
C1540 C 0.03868 0.34301 0.76556 0.0
C1541 C 0.07172 0.36301 0.77008 0.0
C1542 C 0.04691 0.40225 0.74297 0.0
C1543 C 0.01278 0.30901 0.77046 0.0
H1544 H 0.91846 0.34129 0.75563 0.0
H1545 H 0.94242 0.285 0.73343 0.0
H1546 H 0.98859 0.36388 0.77236 0.0
H1547 H 1.00116 0.39832 0.76329 0.0
H1548 H 0.95746 0.37613 0.76827 0.0
H1549 H 0.99381 0.28168 0.73449 0.0
H1550 H 0.02891 0.32565 0.736 0.0
H1551 H 0.01866 0.29525 0.74624 0.0
H1552 H 0.10712 0.43094 0.75341 0.0
H1553 H 0.07784 0.35401 0.77708 0.0
H1554 H 0.02661 0.4088 0.74501 0.0
H1555 H 0.03634 0.38284 0.73669 0.0
H1556 H 0.07002 0.42609 0.74004 0.0
H1557 H 0.99206 0.3119 0.77427 0.0
H1558 H 0.02508 0.30032 0.77627 0.0
H1559 H 1.00013 0.28847 0.76454 0.0
C1560 C 0.36687 0.30105 0.24063 0.0
C1561 C 0.39964 0.31018 0.24466 0.0
C1562 C 0.34667 0.31427 0.2449 0.0
C1563 C 0.35995 0.33797 0.25322 0.0
C1564 C 0.39256 0.34642 0.25749 0.0
C1565 C 0.41172 0.33213 0.25325 0.0
C1566 C 0.31162 0.30378 0.2403 0.0
C1567 C 0.40815 0.37206 0.26621 0.0
C1568 C 0.33442 0.40736 0.25658 0.0
C1569 C 0.31431 0.39648 0.26556 0.0
C1570 C 0.34839 0.38796 0.2523 0.0
C1571 C 0.34146 0.35631 0.25695 0.0
C1572 C 0.31941 0.34408 0.26566 0.0
C1573 C 0.3065 0.36453 0.26995 0.0
C1574 C 0.37227 0.40245 0.24314 0.0
C1575 C 0.31051 0.31003 0.27069 0.0
H1576 H 0.35725 0.28402 0.23402 0.0
H1577 H 0.43708 0.33956 0.2564 0.0
H1578 H 0.29178 0.29612 0.24644 0.0
H1579 H 0.31283 0.32618 0.23618 0.0
H1580 H 0.30304 0.28186 0.23482 0.0
H1581 H 0.43315 0.37491 0.26892 0.0
H1582 H 0.41281 0.3979 0.26369 0.0
H1583 H 0.38986 0.36379 0.27278 0.0
H1584 H 0.34083 0.43209 0.25315 0.0
H1585 H 0.2909 0.35582 0.27687 0.0
H1586 H 0.36336 0.38296 0.23688 0.0
H1587 H 0.39882 0.40841 0.24533 0.0
H1588 H 0.37375 0.42653 0.24012 0.0
H1589 H 0.30239 0.28928 0.26483 0.0
H1590 H 0.28941 0.30187 0.27645 0.0
H1591 H 0.33382 0.31253 0.2746 0.0
C1592 C 0.6562 0.94357 0.26602 0.0
C1593 C 0.62407 0.91988 0.26165 0.0
C1594 C 0.67674 0.97713 0.26187 0.0
C1595 C 0.66432 0.98766 0.25337 0.0
C1596 C 0.63239 0.96342 0.24875 0.0
C1597 C 0.61299 0.92978 0.25285 0.0
C1598 C 0.71114 1.00171 0.26681 0.0
C1599 C 0.61762 0.97361 0.23983 0.0
C1600 C 0.68891 0.08241 0.25039 0.0
C1601 C 0.70993 0.09248 0.24159 0.0
C1602 C 0.67482 0.04877 0.25447 0.0
C1603 C 0.68272 0.02469 0.24984 0.0
C1604 C 0.70571 0.03539 0.24133 0.0
C1605 C 0.71857 0.06895 0.2372 0.0
C1606 C 0.64982 0.0384 0.26338 0.0
C1607 C 0.71576 0.011 0.23638 0.0
H1608 H 0.66503 0.9361 0.27281 0.0
H1609 H 0.58808 0.9118 0.24946 0.0
H1610 H 0.7316 0.01467 0.26088 0.0
H1611 H 0.70908 0.02231 0.27101 0.0
H1612 H 0.71945 0.98818 0.27232 0.0
H1613 H 0.59315 0.95138 0.23687 0.0
H1614 H 0.61224 0.99438 0.24228 0.0
H1615 H 0.63671 0.98423 0.23347 0.0
H1616 H 0.68183 0.10027 0.25379 0.0
H1617 H 0.7349 0.07656 0.23042 0.0
H1618 H 0.65841 0.0279 0.26974 0.0
H1619 H 0.62374 0.01748 0.26093 0.0
H1620 H 0.64735 0.06049 0.26634 0.0
H1621 H 0.72339 0.99815 0.24231 0.0
H1622 H 0.73755 0.02465 0.23087 0.0
H1623 H 0.69315 0.99029 0.23219 0.0
C1624 C 0.93058 0.6098 0.25343 0.0
C1625 C 0.92239 0.6202 0.24416 0.0
C1626 C 0.96407 0.62834 0.25769 0.0
C1627 C 0.99001 0.65861 0.25271 0.0
C1628 C 0.98129 0.67052 0.24371 0.0
C1629 C 0.94775 0.65095 0.23947 0.0
C1630 C 0.97221 0.61424 0.26718 0.0
C1631 C 1.00782 0.70314 0.23831 0.0
C1632 C 0.07231 0.71335 0.26848 0.0
C1633 C 0.09447 0.70188 0.26472 0.0
C1634 C 0.03883 0.70084 0.26432 0.0
C1635 C 0.02684 0.67556 0.2564 0.0
C1636 C 0.04945 0.66455 0.25244 0.0
C1637 C 0.08299 0.67811 0.25655 0.0
C1638 C 0.01596 0.714 0.26857 0.0
C1639 C 0.03768 0.6372 0.24416 0.0
H1640 H 0.9113 0.58601 0.2571 0.0
H1641 H 0.94167 0.65929 0.23234 0.0
H1642 H 0.99139 0.60605 0.26526 0.0
H1643 H 0.9841 0.6347 0.27314 0.0
H1644 H 0.94873 0.59161 0.27047 0.0
H1645 H 0.99583 0.71155 0.23231 0.0
H1646 H 0.02153 0.72459 0.24391 0.0
H1647 H 0.02763 0.69851 0.23462 0.0
H1648 H 0.08098 0.73181 0.27475 0.0
H1649 H 0.09977 0.66889 0.25362 0.0
H1650 H 0.99391 0.69287 0.27284 0.0
H1651 H 1.00482 0.72202 0.26223 0.0
H1652 H 0.03034 0.73636 0.27384 0.0
H1653 H 0.01542 0.61253 0.24699 0.0
H1654 H 0.05867 0.63209 0.24172 0.0
H1655 H 0.02858 0.64534 0.23734 0.0
C1656 C 0.08381 0.19467 0.11678 0.0
C1657 C 0.05874 0.17598 0.12433 0.0
C1658 C 0.11206 0.18931 0.11516 0.0
C1659 C 0.11464 0.16382 0.12098 0.0
C1660 C 0.09023 0.14601 0.12892 0.0
C1661 C 0.06286 0.15268 0.13059 0.0
C1662 C 0.13821 0.20981 0.1069 0.0
C1663 C 0.09173 0.11829 0.13524 0.0
C1664 C 0.15577 0.11344 0.11015 0.0
C1665 C 0.18506 0.12517 0.11643 0.0
C1666 C 0.13346 0.12718 0.11115 0.0
C1667 C 0.14125 0.15388 0.11841 0.0
C1668 C 0.17273 0.16815 0.124 0.0
C1669 C 0.19394 0.15319 0.12308 0.0
C1670 C 0.09996 0.11086 0.10513 0.0
C1671 C 0.18275 0.19746 0.13153 0.0
H1672 H 0.08074 0.21277 0.11193 0.0
H1673 H 0.04332 0.13786 0.13633 0.0
H1674 H 0.16506 0.21987 0.10979 0.0
H1675 H 0.13454 0.19265 0.10028 0.0
H1676 H 0.13554 0.23202 0.10415 0.0
H1677 H 0.0714 0.10751 0.14129 0.0
H1678 H 0.08824 0.09672 0.13016 0.0
H1679 H 0.11751 0.12897 0.13895 0.0
H1680 H 0.14852 0.09133 0.10516 0.0
H1681 H 0.2165 0.1621 0.128 0.0
H1682 H 0.09634 0.13113 0.10132 0.0
H1683 H 0.07774 0.09646 0.11044 0.0
H1684 H 0.09913 0.09251 0.0992 0.0
H1685 H 0.17791 0.21767 0.12823 0.0
H1686 H 0.21053 0.20972 0.13378 0.0
H1687 H 0.16665 0.18731 0.13855 0.0
C1688 C 0.9022 0.04623 0.11013 0.0
C1689 C 0.89019 0.06374 0.11632 0.0
C1690 C 0.88875 0.01025 0.11123 0.0
C1691 C 0.86206 0.99135 0.11851 0.0
C1692 C 0.84751 0.00847 0.124 0.0
C1693 C 0.86217 0.04458 0.12298 0.0
C1694 C 0.90535 0.99316 0.1053 0.0
C1695 C 0.81823 0.98919 0.13155 0.0
C1696 C 0.82173 0.8931 0.11724 0.0
C1697 C 0.84048 0.88712 0.12486 0.0
C1698 C 0.827 0.92659 0.11545 0.0
C1699 C 0.85242 0.95495 0.12119 0.0
C1700 C 0.87034 0.94879 0.12919 0.0
C1701 C 0.86379 0.91486 0.13102 0.0
C1702 C 0.80642 0.93178 0.10713 0.0
C1703 C 0.89796 0.97833 0.13543 0.0
H1704 H 0.92432 0.0611 0.10514 0.0
H1705 H 0.85304 0.05819 0.12783 0.0
H1706 H 0.91997 0.98578 0.11066 0.0
H1707 H 0.88523 0.96902 0.10156 0.0
H1708 H 0.92357 0.01058 0.09932 0.0
H1709 H 0.80576 1.00457 0.13374 0.0
H1710 H 0.79815 0.96399 0.1283 0.0
H1711 H 0.82846 0.98353 0.1386 0.0
H1712 H 0.80361 0.87167 0.11247 0.0
H1713 H 0.87865 0.91047 0.13682 0.0
H1714 H 0.82363 0.94529 0.10051 0.0
H1715 H 0.79607 0.94841 0.10993 0.0
H1716 H 0.78441 0.90674 0.10439 0.0
H1717 H 0.91945 0.99635 0.13031 0.0
H1718 H 0.90889 0.96912 0.14153 0.0
H1719 H 0.88713 0.99341 0.13908 0.0
C1720 C 0.97057 0.81992 0.12332 0.0
C1721 C 0.95114 0.82868 0.11675 0.0
C1722 C 1.00676 0.84128 0.12414 0.0
C1723 C 0.02365 0.87276 0.11854 0.0
C1724 C 1.00445 0.88037 0.11133 0.0
C1725 C 0.9684 0.85792 0.11043 0.0
C1726 C 0.02635 0.83145 0.13161 0.0
C1727 C 0.02131 0.91385 0.10529 0.0
C1728 C 0.1004 0.9515 0.13071 0.0
C1729 C 0.1279 0.95596 0.12443 0.0
C1730 C 0.06647 0.9239 0.12905 0.0
C1731 C 0.06011 0.89963 0.1211 0.0
C1732 C 0.08829 0.90258 0.11525 0.0
C1733 C 0.12176 0.93103 0.11687 0.0
C1734 C 0.03713 0.92199 0.1354 0.0
C1735 C 0.08289 0.87659 0.10698 0.0
H1736 H 0.95715 0.79741 0.12827 0.0
H1737 H 0.95331 0.86508 0.1055 0.0
H1738 H 0.05149 0.83664 0.12828 0.0
H1739 H 0.03218 0.8474 0.13866 0.0
H1740 H 0.01111 0.80362 0.13384 0.0
H1741 H 1.00364 0.91445 0.09937 0.0
H1742 H 0.02892 0.93603 0.1106 0.0
H1743 H 0.04529 0.91774 0.10148 0.0
H1744 H 0.10493 0.97091 0.13648 0.0
H1745 H 0.14301 0.93436 0.11201 0.0
H1746 H 0.02232 0.89617 0.13912 0.0
H1747 H 0.01882 0.9252 0.13034 0.0
H1748 H 0.04651 0.9423 0.14145 0.0
H1749 H 0.06631 0.84968 0.10985 0.0
H1750 H 0.10787 0.87955 0.1042 0.0
H1751 H 0.06925 0.88013 0.10037 0.0
C1752 C 0.16686 0.19851 0.38862 0.0
C1753 C 0.1367 0.18743 0.3945 0.0
C1754 C 0.18258 0.17796 0.38774 0.0
C1755 C 0.16682 0.1449 0.3925 0.0
C1756 C 0.13774 0.13474 0.39903 0.0
C1757 C 0.12335 0.15646 0.40008 0.0
C1758 C 0.21444 0.19051 0.38109 0.0
C1759 C 0.1197 0.09948 0.40411 0.0
C1760 C 0.16927 0.07026 0.37906 0.0
C1761 C 0.18962 0.06345 0.38582 0.0
C1762 C 0.16262 0.09751 0.38097 0.0
C1763 C 0.17767 0.11917 0.38966 0.0
C1764 C 0.20063 0.11415 0.39601 0.0
C1765 C 0.20576 0.08588 0.39414 0.0
C1766 C 0.1375 0.10151 0.37409 0.0
C1767 C 0.21842 0.13752 0.40507 0.0
H1768 H 0.17698 0.22235 0.38422 0.0
H1769 H 0.0996 0.14755 0.40444 0.0
H1770 H 0.23334 0.18426 0.38466 0.0
H1771 H 0.20688 0.17721 0.37355 0.0
H1772 H 0.22744 0.21897 0.37973 0.0
H1773 H 0.09919 0.09663 0.40956 0.0
H1774 H 0.10751 0.07902 0.39815 0.0
H1775 H 0.13867 0.09483 0.40832 0.0
H1776 H 0.15637 0.05266 0.37272 0.0
H1777 H 0.22153 0.08064 0.39938 0.0
H1778 H 0.14965 0.12839 0.37107 0.0
H1779 H 0.11429 0.09675 0.37858 0.0
H1780 H 0.12879 0.08322 0.3675 0.0
H1781 H 0.22904 0.16518 0.40292 0.0
H1782 H 0.23988 0.13407 0.40809 0.0
H1783 H 0.19931 0.13155 0.41132 0.0
C1784 C 0.96285 0.10113 0.37852 0.0
C1785 C 0.96745 0.12807 0.38507 0.0
C1786 C 0.93482 0.06722 0.37986 0.0
C1787 C 0.9103 0.06028 0.38779 0.0
C1788 C 0.91355 0.0879 0.39397 0.0
C1789 C 0.94234 0.12136 0.39264 0.0
C1790 C 0.93255 0.03846 0.37315 0.0
C1791 C 0.8874 0.08189 0.40227 0.0
C1792 C 0.8289 0.9724 0.38466 0.0
C1793 C 0.8365 0.95136 0.39091 0.0
C1794 C 0.8513 0.0085 0.38421 0.0
C1795 C 0.8826 0.02374 0.38991 0.0
C1796 C 0.88906 1.00294 0.39681 0.0
C1797 C 0.86565 0.96698 0.39733 0.0
C1798 C 0.84274 0.02982 0.37703 0.0
C1799 C 0.92226 0.01803 0.40296 0.0
H1800 H 0.98235 0.10607 0.37274 0.0
H1801 H 0.94571 0.14215 0.39771 0.0
H1802 H 0.935 0.01917 0.37796 0.0
H1803 H 0.90688 0.02463 0.36931 0.0
H1804 H 0.95315 0.04827 0.36718 0.0
H1805 H 0.89105 0.10666 0.40547 0.0
H1806 H 0.86056 0.06656 0.39923 0.0
H1807 H 0.88998 0.06668 0.40861 0.0
H1808 H 0.80642 0.9603 0.37965 0.0
H1809 H 0.87191 0.95072 0.40203 0.0
H1810 H 0.85917 0.0364 0.37006 0.0
H1811 H 0.84831 0.05459 0.38071 0.0
H1812 H 0.81506 0.01555 0.37462 0.0
H1813 H 0.94454 0.02565 0.39768 0.0
H1814 H 0.92193 0.99925 0.40865 0.0
H1815 H 0.9268 0.04179 0.40706 0.0
C1816 C 0.04977 0.9023 0.3944 0.0
C1817 C 0.06898 0.89413 0.3876 0.0
C1818 C 0.01387 0.88852 0.39299 0.0
C1819 C 0.99674 0.86524 0.38476 0.0
C1820 C 0.01563 0.85461 0.37844 0.0
C1821 C 0.05168 0.86974 0.3798 0.0
C1822 C 0.99488 0.90105 0.3998 0.0
C1823 C 0.99823 0.82888 0.36984 0.0
C1824 C 0.89813 0.82065 0.38579 0.0
C1825 C 0.89155 0.84173 0.37922 0.0
C1826 C 0.93202 0.82654 0.38718 0.0
C1827 C 0.96012 0.85498 0.38217 0.0
C1828 C 0.95338 0.87533 0.37516 0.0
C1829 C 0.91908 0.86809 0.37365 0.0
C1830 C 0.93789 0.80336 0.39438 0.0
C1831 C 0.98259 0.90625 0.36978 0.0
H1832 H 0.06327 0.92165 0.40031 0.0
H1833 H 0.06662 0.86355 0.37451 0.0
H1834 H 0.98648 0.91653 0.39518 0.0
H1835 H 0.97117 0.8787 0.40304 0.0
H1836 H 0.01135 0.91744 0.40622 0.0
H1837 H 0.01499 0.81893 0.36683 0.0
H1838 H 0.97328 0.80656 0.37248 0.0
H1839 H 0.99229 0.84156 0.36345 0.0
H1840 H 0.87686 0.80022 0.39011 0.0
H1841 H 0.91418 0.88476 0.36869 0.0
H1842 H 0.95012 0.81767 0.40155 0.0
H1843 H 0.95588 0.79574 0.39088 0.0
H1844 H 0.91321 0.77948 0.39639 0.0
H1845 H 0.9994 0.92585 0.37555 0.0
H1846 H 0.97293 0.91871 0.36432 0.0
H1847 H 0.99906 0.89831 0.3655 0.0
C1848 C 0.8636 0.90027 0.89542 0.0
C1849 C 0.83601 0.89207 0.8887 0.0
C1850 C 0.88559 0.88638 0.89393 0.0
C1851 C 0.87909 0.86297 0.88571 0.0
C1852 C 0.84934 0.8523 0.87949 0.0
C1853 C 0.82856 0.86754 0.88093 0.0
C1854 C 0.91736 0.89897 0.90063 0.0
C1855 C 0.84063 0.82642 0.87091 0.0
C1856 C 0.95921 0.86583 0.87428 0.0
C1857 C 0.96067 0.83959 0.87982 0.0
C1858 C 0.93216 0.87301 0.8759 0.0
C1859 C 0.90536 0.85271 0.883 0.0
C1860 C 0.90528 0.82438 0.88798 0.0
C1861 C 0.93328 0.81855 0.88648 0.0
C1862 C 0.93359 0.90383 0.87053 0.0
C1863 C 0.87654 0.80125 0.89527 0.0
H1864 H 0.86973 0.91974 0.90131 0.0
H1865 H 0.80728 0.86136 0.87569 0.0
H1866 H 0.91884 0.87665 0.90384 0.0
H1867 H 0.94107 0.9144 0.89593 0.0
H1868 H 0.91753 0.91542 0.90707 0.0
H1869 H 0.81377 0.81638 0.86802 0.0
H1870 H 0.85893 0.83902 0.86444 0.0
H1871 H 0.84345 0.80418 0.87351 0.0
H1872 H 0.98056 0.88246 0.86924 0.0
H1873 H 0.93435 0.79822 0.89078 0.0
H1874 H 0.93656 0.92349 0.87631 0.0
H1875 H 0.90901 0.89578 0.86634 0.0
H1876 H 0.95551 0.91627 0.86501 0.0
H1877 H 0.87891 0.8156 0.90247 0.0
H1878 H 0.87742 0.77738 0.89725 0.0
H1879 H 0.85078 0.79359 0.89189 0.0
C1880 C 0.11292 0.96512 0.8976 0.0
C1881 C 0.12595 0.94954 0.89099 0.0
C1882 C 0.12556 1.00111 0.89719 0.0
C1883 C 0.15243 0.02197 0.89017 0.0
C1884 C 0.16801 0.00673 0.88425 0.0
C1885 C 0.15421 0.97061 0.88461 0.0
C1886 C 0.10795 0.0162 0.90357 0.0
C1887 C 0.19747 0.02811 0.87694 0.0
C1888 C 0.1492 0.09971 0.87926 0.0
C1889 C 0.172 0.12648 0.88579 0.0
C1890 C 0.14327 0.06574 0.88046 0.0
C1891 C 0.16127 0.05857 0.8882 0.0
C1892 C 0.18609 0.08604 0.89434 0.0
C1893 C 0.19079 0.11956 0.89316 0.0
C1894 C 0.11629 0.03715 0.87381 0.0
C1895 C 0.20668 0.07978 0.90242 0.0
H1896 H 0.09069 0.94883 0.9024 0.0
H1897 H 0.16422 0.95854 0.87945 0.0
H1898 H 0.12748 0.03983 0.90766 0.0
H1899 H 0.09305 0.02401 0.89846 0.0
H1900 H 0.0898 0.99734 0.9093 0.0
H1901 H 0.21062 0.01379 0.87433 0.0
H1902 H 0.18723 0.03489 0.8701 0.0
H1903 H 0.21697 0.05277 0.88061 0.0
H1904 H 0.13433 0.10482 0.87364 0.0
H1905 H 0.20856 0.14023 0.89821 0.0
H1906 H 0.09482 0.01782 0.87868 0.0
H1907 H 0.12781 0.02332 0.86978 0.0
H1908 H 0.10519 0.04713 0.86799 0.0
H1909 H 0.18926 0.06449 0.90882 0.0
H1910 H 0.22806 0.10446 0.90558 0.0
H1911 H 0.2179 0.06442 0.89919 0.0
C1912 C 0.04335 0.19695 0.89043 0.0
C1913 C 0.06261 0.18568 0.89614 0.0
C1914 C 1.00706 0.17635 0.88961 0.0
C1915 C 0.98993 0.14306 0.89423 0.0
C1916 C 1.00904 0.13269 0.90059 0.0
C1917 C 0.04516 0.15444 0.9016 0.0
C1918 C 0.98755 0.18912 0.88314 0.0
C1919 C 0.99202 0.09719 0.90552 0.0
C1920 C 0.89199 0.08371 0.89587 0.0
C1921 C 0.88568 0.06177 0.88742 0.0
C1922 C 0.92539 0.1119 0.89781 0.0
C1923 C 0.95335 0.11736 0.89138 0.0
C1924 C 0.94674 0.09619 0.88257 0.0
C1925 C 0.91284 0.06901 0.88061 0.0
C1926 C 0.93098 0.13474 0.907 0.0
C1927 C 0.97585 0.10067 0.87559 0.0
H1928 H 0.05693 0.221 0.88612 0.0
H1929 H 0.06014 0.14539 0.90582 0.0
H1930 H 0.98172 0.17619 0.87554 0.0
H1931 H 0.96244 0.1826 0.88678 0.0
H1932 H 1.00291 0.21765 0.8819 0.0
H1933 H 1.00978 0.09419 0.91088 0.0
H1934 H 0.96839 0.09221 0.90979 0.0
H1935 H 0.9838 0.07704 0.89947 0.0
H1936 H 0.87098 0.07815 0.90115 0.0
H1937 H 0.90814 0.0518 0.87416 0.0
H1938 H 0.94791 0.16253 0.90497 0.0
H1939 H 0.94423 0.1285 0.91315 0.0
H1940 H 0.90606 0.13102 0.91011 0.0
H1941 H 0.99043 0.1277 0.87267 0.0
H1942 H 0.96626 0.08268 0.86893 0.0
H1943 H 0.99442 0.09582 0.87998 0.0
C1944 C 0.82135 0.93324 0.61632 0.0
C1945 C 0.83924 0.95858 0.62385 0.0
C1946 C 0.82701 0.90504 0.61505 0.0
C1947 C 0.85219 0.90294 0.62119 0.0
C1948 C 0.8692 0.92768 0.62909 0.0
C1949 C 0.86207 0.95487 0.63044 0.0
C1950 C 0.80723 0.87844 0.60684 0.0
C1951 C 0.89672 0.92687 0.63569 0.0
C1952 C 0.86411 0.82445 0.62381 0.0
C1953 C 0.89203 0.83319 0.61713 0.0
C1954 C 0.84885 0.84545 0.6246 0.0
C1955 C 0.86291 0.87672 0.6189 0.0
C1956 C 0.88992 0.88463 0.61173 0.0
C1957 C 0.90379 0.86242 0.61082 0.0
C1958 C 0.81917 0.83524 0.632 0.0
C1959 C 0.9062 0.91803 0.60565 0.0
H1960 H 0.80368 0.93607 0.6112 0.0
H1961 H 0.87633 0.9747 0.63616 0.0
H1962 H 0.82478 0.8822 0.60031 0.0
H1963 H 0.79749 0.85177 0.60984 0.0
H1964 H 0.78487 0.88052 0.60391 0.0
H1965 H 0.90681 0.94738 0.64169 0.0
H1966 H 0.88616 0.90124 0.6395 0.0
H1967 H 0.91877 0.93057 0.6308 0.0
H1968 H 0.85518 0.80192 0.62875 0.0
H1969 H 0.92584 0.86954 0.60581 0.0
H1970 H 0.79879 0.83947 0.62852 0.0
H1971 H 0.82877 0.85167 0.63897 0.0
H1972 H 0.80725 0.8076 0.63438 0.0
H1973 H 0.88596 0.92093 0.60154 0.0
H1974 H 0.92543 0.91932 0.59996 0.0
H1975 H 0.91955 0.94042 0.61096 0.0
C1976 C 0.15547 0.0446 0.61044 0.0
C1977 C 0.18491 0.06216 0.61666 0.0
C1978 C 0.13327 0.00853 0.61142 0.0
C1979 C 0.14141 0.98955 0.61857 0.0
C1980 C 0.17288 0.00684 0.62416 0.0
C1981 C 0.19387 0.04308 0.62331 0.0
C1982 C 0.09967 0.99133 0.60545 0.0
C1983 C 0.18332 0.98747 0.63153 0.0
C1984 C 0.0636 0.91076 0.63036 0.0
C1985 C 0.05966 0.88411 0.62378 0.0
C1986 C 0.09077 0.94506 0.62893 0.0
C1987 C 0.11525 0.95265 0.62094 0.0
C1988 C 0.11293 0.92526 0.61482 0.0
C1989 C 0.08475 0.89143 0.61618 0.0
C1990 C 0.09183 0.97351 0.63552 0.0
C1991 C 0.13925 0.93192 0.60652 0.0
H1992 H 0.14818 0.05946 0.60546 0.0
H1993 H 0.21656 0.05675 0.62818 0.0
H1994 H 0.0966 0.9681 0.60136 0.0
H1995 H 0.07746 0.9824 0.61084 0.0
H1996 H 0.09821 0.00917 0.59976 0.0
H1997 H 0.21104 1.00322 0.63382 0.0
H1998 H 0.16713 0.98078 0.63856 0.0
H1999 H 0.17894 0.9628 0.62807 0.0
H2000 H 0.04397 0.9053 0.63614 0.0
H2001 H 0.08174 0.87084 0.61107 0.0
H2002 H 0.08797 0.99178 0.63064 0.0
H2003 H 0.11759 0.98863 0.63925 0.0
H2004 H 0.07152 0.9632 0.64158 0.0
H2005 H 0.13529 0.94562 0.60001 0.0
H2006 H 0.13704 0.90742 0.6036 0.0
H2007 H 0.16602 0.94889 0.60944 0.0
C2008 C 0.12656 0.19649 0.61582 0.0
C2009 C 0.13408 0.17886 0.62342 0.0
C2010 C 0.09269 0.1908 0.61454 0.0
C2011 C 0.06546 0.16584 0.62074 0.0
C2012 C 0.07326 0.14909 0.62872 0.0
C2013 C 0.1076 0.15626 0.63007 0.0
C2014 C 0.08581 0.2103 0.60625 0.0
C2015 C 0.04497 0.12181 0.63539 0.0
C2016 C 0.9751 0.15409 0.62332 0.0
C2017 C 0.95584 0.12595 0.61673 0.0
C2018 C 0.01136 0.16934 0.62408 0.0
C2019 C 0.0285 0.15507 0.61846 0.0
C2020 C 1.00932 0.12782 0.61137 0.0
C2021 C 0.97323 0.11394 0.61048 0.0
C2022 C 0.03093 0.19928 0.63139 0.0
C2023 C 0.02636 0.11131 0.60537 0.0
H2024 H 0.14702 0.21398 0.61066 0.0
H2025 H 0.11321 0.1422 0.63585 0.0
H2026 H 0.07194 0.19252 0.59977 0.0
H2027 H 0.06892 0.22016 0.60919 0.0
H2028 H 0.11024 0.23254 0.60325 0.0
H2029 H 0.05545 0.11193 0.64144 0.0
H2030 H 0.02995 0.13252 0.63915 0.0
H2031 H 0.02657 0.0996 0.63057 0.0
H2032 H 0.96156 0.16321 0.62821 0.0
H2033 H 0.95824 0.09172 0.60554 0.0
H2034 H 0.05551 0.21952 0.62786 0.0
H2035 H 0.03782 0.1899 0.6384 0.0
H2036 H 0.01524 0.21129 0.63371 0.0
H2037 H 0.04948 0.13139 0.60121 0.0
H2038 H 1.00836 0.0919 0.59973 0.0
H2039 H 0.03543 0.09812 0.61074 0.0
C2040 C 0.75198 0.52974 0.44996 0.0
C2041 C 0.72677 0.51075 0.45744 0.0
C2042 C 0.78046 0.52472 0.44839 0.0
C2043 C 0.78313 0.49927 0.45421 0.0
C2044 C 0.75858 0.48118 0.46209 0.0
C2045 C 0.73097 0.48751 0.4637 0.0
C2046 C 0.80674 0.54551 0.4402 0.0
C2047 C 0.76019 0.4535 0.4684 0.0
C2048 C 0.82491 0.44943 0.44346 0.0
C2049 C 0.85401 0.46116 0.44983 0.0
C2050 C 0.80249 0.46305 0.4444 0.0
C2051 C 0.80998 0.48963 0.45167 0.0
C2052 C 0.84131 0.50395 0.45734 0.0
C2053 C 0.86264 0.48911 0.45648 0.0
C2054 C 0.76916 0.44669 0.43829 0.0
C2055 C 0.85101 0.53315 0.46488 0.0
H2056 H 0.74884 0.54781 0.44511 0.0
H2057 H 0.71133 0.47248 0.4694 0.0
H2058 H 0.83355 0.55563 0.44312 0.0
H2059 H 0.80331 0.52853 0.43355 0.0
H2060 H 0.80399 0.56769 0.43747 0.0
H2061 H 0.73972 0.44249 0.47441 0.0
H2062 H 0.75701 0.43208 0.46331 0.0
H2063 H 0.78591 0.46432 0.47217 0.0
H2064 H 0.81786 0.42738 0.43847 0.0
H2065 H 0.88504 0.49801 0.46146 0.0
H2066 H 0.76549 0.46694 0.43449 0.0
H2067 H 0.74681 0.43207 0.44355 0.0
H2068 H 0.76861 0.42852 0.43234 0.0
H2069 H 0.84604 0.55327 0.46158 0.0
H2070 H 0.87876 0.54555 0.46717 0.0
H2071 H 0.83482 0.52284 0.47188 0.0
C2072 C 0.53122 0.24905 0.46374 0.0
C2073 C 0.50791 0.2214 0.45755 0.0
C2074 C 0.53781 0.28302 0.46196 0.0
C2075 C 0.51993 0.28931 0.45398 0.0
C2076 C 0.49447 0.26103 0.44822 0.0
C2077 C 0.48916 0.22751 0.44996 0.0
C2078 C 0.56548 0.31246 0.46822 0.0
C2079 C 0.47392 0.26637 0.43992 0.0
C2080 C 0.52998 0.37906 0.4558 0.0
C2081 C 0.55802 0.39819 0.44915 0.0
C2082 C 0.51523 0.34294 0.45682 0.0
C2083 C 0.5297 0.32576 0.45131 0.0
C2084 C 0.5564 0.34462 0.44403 0.0
C2085 C 0.56995 0.38062 0.44294 0.0
C2086 C 0.48595 0.32371 0.46437 0.0
C2087 C 0.57289 0.32746 0.43809 0.0
H2088 H 0.54609 0.24456 0.46952 0.0
H2089 H 0.47105 0.20616 0.44517 0.0
H2090 H 0.58702 0.33044 0.46311 0.0
H2091 H 0.55472 0.3276 0.47186 0.0
H2092 H 0.57631 0.30314 0.47431 0.0
H2093 H 0.45182 0.24138 0.43718 0.0
H2094 H 0.4637 0.28309 0.44274 0.0
H2095 H 0.49111 0.27983 0.43329 0.0
H2096 H 0.52091 0.39271 0.46067 0.0
H2097 H 0.59207 0.39546 0.43795 0.0
H2098 H 0.49616 0.31798 0.47142 0.0
H2099 H 0.46582 0.29854 0.46111 0.0
H2100 H 0.47356 0.33915 0.46657 0.0
H2101 H 0.58742 0.31994 0.44345 0.0
H2102 H 0.59117 0.34489 0.43212 0.0
H2103 H 0.55271 0.30339 0.43434 0.0
C2104 C 0.76843 0.28735 0.46396 0.0
C2105 C 0.79614 0.2919 0.45776 0.0
C2106 C 0.73453 0.25983 0.46218 0.0
C2107 C 0.72839 0.23573 0.45419 0.0
C2108 C 0.75675 0.2388 0.44841 0.0
C2109 C 0.79019 0.26716 0.45016 0.0
C2110 C 0.705 0.25779 0.46846 0.0
C2111 C 0.75158 0.21301 0.4401 0.0
C2112 C 0.63892 0.15569 0.45611 0.0
C2113 C 0.6196 0.16445 0.44949 0.0
C2114 C 0.67504 0.17722 0.45707 0.0
C2115 C 0.69201 0.20886 0.45155 0.0
C2116 C 0.67296 0.21653 0.4443 0.0
C2117 C 0.63697 0.19393 0.44326 0.0
C2118 C 0.69448 0.16734 0.46459 0.0
C2119 C 0.68988 0.25017 0.43834 0.0
H2120 H 0.7728 0.30662 0.46975 0.0
H2121 H 0.8116 0.27055 0.44535 0.0
H2122 H 0.68686 0.26114 0.46337 0.0
H2123 H 0.69006 0.23189 0.47212 0.0
H2124 H 0.7142 0.27796 0.47455 0.0
H2125 H 0.77664 0.21613 0.43735 0.0
H2126 H 0.73504 0.18604 0.44292 0.0
H2127 H 0.73799 0.21662 0.43349 0.0
H2128 H 0.62542 0.133 0.46099 0.0
H2129 H 0.62198 0.20109 0.4383 0.0
H2130 H 0.70013 0.18322 0.47164 0.0
H2131 H 0.7197 0.1726 0.46131 0.0
H2132 H 0.67922 0.13949 0.46678 0.0
H2133 H 0.69725 0.2722 0.44369 0.0
H2134 H 0.67236 0.25085 0.43238 0.0
H2135 H 0.71402 0.25426 0.43458 0.0
C2136 C 0.78505 0.487 0.73201 0.0
C2137 C 0.79706 0.51643 0.72577 0.0
C2138 C 0.79861 0.46454 0.731 0.0
C2139 C 0.82542 0.47232 0.72377 0.0
C2140 C 0.83999 0.50393 0.71824 0.0
C2141 C 0.82521 0.52531 0.71917 0.0
C2142 C 0.78199 0.43092 0.73697 0.0
C2143 C 0.86941 0.51393 0.71075 0.0
C2144 C 0.86563 0.41434 0.72529 0.0
C2145 C 0.84694 0.3895 0.7177 0.0
C2146 C 0.86044 0.44266 0.72698 0.0
C2147 C 0.83514 0.44557 0.72116 0.0
C2148 C 0.81732 0.4214 0.71318 0.0
C2149 C 0.82381 0.39394 0.71145 0.0
C2150 C 0.88092 0.46853 0.73529 0.0
C2151 C 0.78982 0.42328 0.70686 0.0
H2152 H 0.76284 0.47975 0.73696 0.0
H2153 H 0.83435 0.54797 0.71428 0.0
H2154 H 0.7675 0.40885 0.73162 0.0
H2155 H 0.80209 0.42701 0.74077 0.0
H2156 H 0.76366 0.43014 0.74291 0.0
H2157 H 0.88189 0.54177 0.70854 0.0
H2158 H 0.88943 0.50882 0.71405 0.0
H2159 H 0.8593 0.49802 0.70369 0.0
H2160 H 0.88361 0.41104 0.73013 0.0
H2161 H 0.80899 0.37459 0.70567 0.0
H2162 H 0.86367 0.46483 0.7419 0.0
H2163 H 0.89121 0.49548 0.73246 0.0
H2164 H 0.90296 0.4656 0.73805 0.0
H2165 H 0.76824 0.41984 0.71192 0.0
H2166 H 0.779 0.40309 0.70077 0.0
H2167 H 0.80072 0.44916 0.70319 0.0
C2168 C 0.52989 0.29976 0.73133 0.0
C2169 C 0.50076 0.28254 0.72498 0.0
C2170 C 0.55243 0.3358 0.73041 0.0
C2171 C 0.54502 0.35502 0.72315 0.0
C2172 C 0.51366 0.33816 0.7175 0.0
C2173 C 0.49221 0.302 0.71835 0.0
C2174 C 0.58578 0.35261 0.73651 0.0
C2175 C 0.50405 0.35779 0.70998 0.0
C2176 C 0.60311 0.45314 0.72487 0.0
C2177 C 0.62826 0.45938 0.71737 0.0
C2178 C 0.57467 0.41963 0.72646 0.0
C2179 C 0.57194 0.39151 0.72064 0.0
C2180 C 0.59645 0.39798 0.71274 0.0
C2181 C 0.62404 0.43194 0.71111 0.0
C2182 C 0.54844 0.41412 0.73467 0.0
C2183 C 0.59478 0.3687 0.70642 0.0
H2184 H 0.53689 0.28465 0.7363 0.0
H2185 H 0.46978 0.2886 0.71337 0.0
H2186 H 0.60809 0.36025 0.73124 0.0
H2187 H 0.58958 0.37657 0.74031 0.0
H2188 H 0.58624 0.33491 0.74245 0.0
H2189 H 0.47631 0.34253 0.70767 0.0
H2190 H 0.50908 0.38287 0.7133 0.0
H2191 H 0.52027 0.36371 0.70297 0.0
H2192 H 0.60625 0.47434 0.72972 0.0
H2193 H 0.64363 0.43655 0.70539 0.0
H2194 H 0.55181 0.4004 0.7413 0.0
H2195 H 0.52161 0.39757 0.73175 0.0
H2196 H 0.55131 0.43906 0.73745 0.0
H2197 H 0.59792 0.35041 0.7115 0.0
H2198 H 0.61524 0.37816 0.70041 0.0
H2199 H 0.56906 0.35385 0.70265 0.0
C2200 C 0.7157 0.19262 0.71896 0.0
C2201 C 0.73482 0.22062 0.72561 0.0
C2202 C 0.67959 0.17794 0.71793 0.0
C2203 C 0.66242 0.19246 0.72342 0.0
C2204 C 0.68127 0.2191 0.7307 0.0
C2205 C 0.71725 0.23257 0.73181 0.0
C2206 C 0.66037 0.14871 0.71037 0.0
C2207 C 0.66413 0.23565 0.73664 0.0
C2208 C 0.58611 0.19441 0.71087 0.0
C2209 C 0.5583 0.17112 0.71703 0.0
C2210 C 0.62001 0.20087 0.71271 0.0
C2211 C 0.62606 0.18287 0.72071 0.0
C2212 C 0.59762 0.15744 0.72644 0.0
C2213 C 0.56417 0.15227 0.72464 0.0
C2214 C 0.64962 0.22851 0.70649 0.0
C2215 C 0.6027 0.13677 0.73476 0.0
H2216 H 0.72935 0.18355 0.7141 0.0
H2217 H 0.73209 0.25468 0.7368 0.0
H2218 H 0.63511 0.12865 0.71361 0.0
H2219 H 0.65482 0.159 0.70331 0.0
H2220 H 0.67575 0.13623 0.7082 0.0
H2221 H 0.6815 0.25381 0.74263 0.0
H2222 H 0.6568 0.25032 0.73127 0.0
H2223 H 0.63995 0.21551 0.74035 0.0
H2224 H 0.5818 0.20935 0.70508 0.0
H2225 H 0.5427 0.13416 0.7294 0.0
H2226 H 0.66471 0.21766 0.70285 0.0
H2227 H 0.66761 0.24995 0.71161 0.0
H2228 H 0.64049 0.2395 0.70038 0.0
H2229 H 0.61937 0.12645 0.73196 0.0
H2230 H 0.57762 0.11473 0.73746 0.0
H2231 H 0.61611 0.15389 0.7414 0.0
C2232 C 0.60158 0.14912 0.22655 0.0
C2233 C 0.6237 0.164 0.21809 0.0
C2234 C 0.57366 0.15493 0.2283 0.0
C2235 C 0.56869 0.17731 0.22167 0.0
C2236 C 0.59004 0.19108 0.21285 0.0
C2237 C 0.6169 0.18375 0.21108 0.0
C2238 C 0.55058 0.13847 0.23751 0.0
C2239 C 0.58616 0.21562 0.20567 0.0
C2240 C 0.48973 0.18887 0.22048 0.0
C2241 C 0.50112 0.21939 0.22619 0.0
C2242 C 0.51014 0.17296 0.21969 0.0
C2243 C 0.54341 0.18894 0.22432 0.0
C2244 C 0.55411 0.21872 0.23057 0.0
C2245 C 0.53251 0.23326 0.23156 0.0
C2246 C 0.49703 0.14038 0.21334 0.0
C2247 C 0.58966 0.2371 0.23546 0.0
H2248 H 0.60678 0.13381 0.23199 0.0
H2249 H 0.63424 0.19569 0.20462 0.0
H2250 H 0.55698 0.15838 0.24354 0.0
H2251 H 0.52287 0.12784 0.23543 0.0
H2252 H 0.55388 0.11724 0.24081 0.0
H2253 H 0.60415 0.22329 0.19902 0.0
H2254 H 0.55917 0.20345 0.20274 0.0
H2255 H 0.59147 0.23946 0.2099 0.0
H2256 H 0.46554 0.17834 0.21625 0.0
H2257 H 0.54161 0.25728 0.23579 0.0
H2258 H 0.50296 0.1216 0.21715 0.0
H2259 H 0.51025 0.14697 0.20578 0.0
H2260 H 0.46857 0.12761 0.21201 0.0
H2261 H 0.59418 0.21855 0.23995 0.0
H2262 H 0.59315 0.25854 0.24061 0.0
H2263 H 0.60983 0.24811 0.22937 0.0
C2264 C 0.82359 0.3039 0.22199 0.0
C2265 C 0.78736 0.28442 0.2228 0.0
C2266 C 0.84077 0.34048 0.22158 0.0
C2267 C 0.82105 0.35757 0.2219 0.0
C2268 C 0.78448 0.33772 0.22305 0.0
C2269 C 0.76814 0.30143 0.22343 0.0
C2270 C 0.87974 0.36069 0.22036 0.0
C2271 C 0.76236 0.35473 0.2235 0.0
C2272 C 0.85434 0.45153 0.22893 0.0
C2273 C 0.85266 0.46565 0.21944 0.0
C2274 C 0.84698 0.41702 0.22975 0.0
C2275 C 0.83787 0.39607 0.22085 0.0
C2276 C 0.83946 0.41113 0.21113 0.0
C2277 C 0.84681 0.44578 0.21053 0.0
C2278 C 0.84586 0.40219 0.24026 0.0
C2279 C 0.8305 0.38984 0.20143 0.0
H2280 H 0.83826 0.29052 0.22127 0.0
H2281 H 0.74002 0.28612 0.22387 0.0
H2282 H 0.88641 0.3725 0.2126 0.0
H2283 H 0.89152 0.38223 0.226 0.0
H2284 H 0.89156 0.34399 0.22135 0.0
H2285 H 0.73443 0.33562 0.22476 0.0
H2286 H 0.77142 0.37414 0.22979 0.0
H2287 H 0.7649 0.36875 0.21621 0.0
H2288 H 0.85936 0.46678 0.23587 0.0
H2289 H 0.84568 0.45645 0.20316 0.0
H2290 H 0.85831 0.38591 0.24016 0.0
H2291 H 0.81838 0.38528 0.24261 0.0
H2292 H 0.85896 0.42286 0.24613 0.0
H2293 H 0.84326 0.37384 0.20132 0.0
H2294 H 0.83835 0.4064 0.19444 0.0
H2295 H 0.80202 0.37182 0.20112 0.0
C2296 C 0.71413 0.48514 0.23008 0.0
C2297 C 0.73192 0.51289 0.22326 0.0
C2298 C 0.67811 0.46263 0.22912 0.0
C2299 C 0.65938 0.4688 0.22138 0.0
C2300 C 0.67691 0.4986 0.21507 0.0
C2301 C 0.71313 0.51984 0.21593 0.0
C2302 C 0.66068 0.43075 0.23586 0.0
C2303 C 0.6578 0.507 0.20703 0.0
C2304 C 0.5803 0.38829 0.21086 0.0
C2305 C 0.5537 0.38633 0.21709 0.0
C2306 C 0.61469 0.41558 0.21198 0.0
C2307 C 0.62242 0.44221 0.21926 0.0
C2308 C 0.5951 0.44173 0.22498 0.0
C2309 C 0.56118 0.41339 0.22399 0.0
C2310 C 0.64307 0.41459 0.20587 0.0
C2311 C 0.60192 0.47031 0.23248 0.0
H2312 H 0.7288 0.4794 0.23561 0.0
H2313 H 0.72699 0.54122 0.21061 0.0
H2314 H 0.63758 0.42901 0.23968 0.0
H2315 H 0.65151 0.40713 0.23106 0.0
H2316 H 0.67844 0.43066 0.24184 0.0
H2317 H 0.67375 0.53392 0.20406 0.0
H2318 H 0.65097 0.48877 0.20048 0.0
H2319 H 0.6332 0.50385 0.21019 0.0
H2320 H 0.5747 0.36713 0.20564 0.0
H2321 H 0.54061 0.41188 0.22883 0.0
H2322 H 0.66119 0.41199 0.21117 0.0
H2323 H 0.65839 0.43919 0.20156 0.0
H2324 H 0.63265 0.39265 0.20034 0.0
H2325 H 0.61556 0.46814 0.23932 0.0
H2326 H 0.57749 0.46904 0.23507 0.0
H2327 H 0.61901 0.49615 0.22898 0.0
C2328 C 0.56986 0.19425 0.94619 0.0
C2329 C 0.56118 0.16645 0.95288 0.0
C2330 C 0.55606 0.21634 0.94762 0.0
C2331 C 0.53225 0.20973 0.95574 0.0
C2332 C 0.52108 0.17978 0.96191 0.0
C2333 C 0.53624 0.1589 0.96054 0.0
C2334 C 0.56917 0.24831 0.94097 0.0
C2335 C 0.49478 0.17098 0.97037 0.0
C2336 C 0.53507 0.28973 0.96723 0.0
C2337 C 0.50918 0.29153 0.9616 0.0
C2338 C 0.54215 0.26261 0.96561 0.0
C2339 C 0.5221 0.23609 0.95842 0.0
C2340 C 0.49411 0.23637 0.95332 0.0
C2341 C 0.48838 0.26443 0.95484 0.0
C2342 C 0.5726 0.26367 0.97109 0.0
C2343 C 0.47124 0.20793 0.94592 0.0
H2344 H 0.58964 0.20044 0.9404 0.0
H2345 H 0.52968 0.13746 0.96575 0.0
H2346 H 0.54711 0.25008 0.93768 0.0
H2347 H 0.58453 0.27185 0.94574 0.0
H2348 H 0.58585 0.24851 0.93459 0.0
H2349 H 0.48442 0.144 0.97322 0.0
H2350 H 0.50711 0.18905 0.9769 0.0
H2351 H 0.47278 0.17404 0.96768 0.0
H2352 H 0.55152 0.31086 0.97235 0.0
H2353 H 0.46831 0.26575 0.95047 0.0
H2354 H 0.59248 0.26663 0.96539 0.0
H2355 H 0.56419 0.23895 0.97524 0.0
H2356 H 0.58491 0.28543 0.97666 0.0
H2357 H 0.48595 0.21042 0.93879 0.0
H2358 H 0.44758 0.20907 0.94385 0.0
H2359 H 0.46322 0.18203 0.94927 0.0
C2360 C 0.82351 0.37607 0.94072 0.0
C2361 C 0.85454 0.39356 0.94627 0.0
C2362 C 0.80174 0.33995 0.94173 0.0
C2363 C 0.81189 0.32088 0.94819 0.0
C2364 C 0.84497 0.33806 0.95293 0.0
C2365 C 0.86559 0.37435 0.95209 0.0
C2366 C 0.76646 0.32287 0.93667 0.0
C2367 C 0.8575 0.3186 0.95952 0.0
C2368 C 0.7374 0.24348 0.96161 0.0
C2369 C 0.73065 0.21639 0.95483 0.0
C2370 C 0.76453 0.27745 0.95971 0.0
C2371 C 0.78615 0.28425 0.95099 0.0
C2372 C 0.78116 0.25637 0.9446 0.0
C2373 C 0.75302 0.22289 0.94648 0.0
C2374 C 0.7685 0.30646 0.96664 0.0
C2375 C 0.80447 0.26216 0.9355 0.0
H2376 H 0.81462 0.39101 0.9364 0.0
H2377 H 0.88947 0.38795 0.95647 0.0
H2378 H 0.76172 0.29928 0.93243 0.0
H2379 H 0.74603 0.31457 0.94266 0.0
H2380 H 0.76362 0.34062 0.93126 0.0
H2381 H 0.88595 0.33404 0.96089 0.0
H2382 H 0.84413 0.31264 0.96706 0.0
H2383 H 0.85129 0.29356 0.95589 0.0
H2384 H 0.71986 0.23864 0.96799 0.0
H2385 H 0.74784 0.20194 0.94122 0.0
H2386 H 0.7637 0.32494 0.96218 0.0
H2387 H 0.79539 0.32116 0.96965 0.0
H2388 H 0.75022 0.29674 0.97323 0.0
H2389 H 0.79852 0.2755 0.92931 0.0
H2390 H 0.80095 0.23732 0.93241 0.0
H2391 H 0.83214 0.27909 0.93765 0.0
C2392 C 0.76899 0.4809 0.96277 0.0
C2393 C 0.7959 0.50369 0.95627 0.0
C2394 C 0.73505 0.47503 0.96151 0.0
C2395 C 0.72807 0.49308 0.95374 0.0
C2396 C 0.75569 0.51793 0.94764 0.0
C2397 C 0.78916 0.52256 0.94887 0.0
C2398 C 0.7063 0.44802 0.96813 0.0
C2399 C 0.74964 0.53858 0.93953 0.0
C2400 C 0.63488 0.44459 0.94417 0.0
C2401 C 0.61906 0.45745 0.95075 0.0
C2402 C 0.67088 0.45736 0.94464 0.0
C2403 C 0.69151 0.4842 0.95168 0.0
C2404 C 0.67605 0.49964 0.95756 0.0
C2405 C 0.6399 0.48571 0.95714 0.0
C2406 C 0.68621 0.43988 0.9383 0.0
C2407 C 0.69718 0.52909 0.96488 0.0
H2408 H 0.77395 0.46598 0.96841 0.0
H2409 H 0.80995 0.54031 0.94384 0.0
H2410 H 0.69238 0.45952 0.97211 0.0
H2411 H 0.68709 0.42657 0.96323 0.0
H2412 H 0.71615 0.4369 0.97398 0.0
H2413 H 0.7744 0.56007 0.93644 0.0
H2414 H 0.73463 0.52125 0.93309 0.0
H2415 H 0.73409 0.54967 0.9427 0.0
H2416 H 0.61875 0.42235 0.93935 0.0
H2417 H 0.62765 0.49557 0.96228 0.0
H2418 H 0.69396 0.425 0.94344 0.0
H2419 H 0.70992 0.45949 0.93425 0.0
H2420 H 0.66753 0.42175 0.93254 0.0
H2421 H 0.70377 0.51885 0.97177 0.0
H2422 H 0.68276 0.54221 0.96743 0.0
H2423 H 0.72195 0.54862 0.96127 0.0
C2424 C 0.41439 0.86027 0.77833 0.0
C2425 C 0.39163 0.84481 0.78664 0.0
C2426 C 0.44302 0.85543 0.77686 0.0
C2427 C 0.44826 0.83358 0.78363 0.0
C2428 C 0.42619 0.81915 0.79228 0.0
C2429 C 0.39847 0.8254 0.79377 0.0
C2430 C 0.46671 0.87245 0.76779 0.0
C2431 C 0.43049 0.79527 0.79963 0.0
C2432 C 0.4888 0.78041 0.77478 0.0
C2433 C 0.51953 0.7954 0.78052 0.0
C2434 C 0.46611 0.79381 0.77525 0.0
C2435 C 0.47497 0.82351 0.78136 0.0
C2436 C 0.50777 0.84084 0.78627 0.0
C2437 C 0.52937 0.82618 0.78595 0.0
C2438 C 0.43121 0.77417 0.77002 0.0
C2439 C 0.51892 0.87333 0.79251 0.0
H2440 H 0.4092 0.87538 0.77282 0.0
H2441 H 0.3807 0.81306 0.80012 0.0
H2442 H 0.49433 0.8843 0.77014 0.0
H2443 H 0.46182 0.85259 0.76187 0.0
H2444 H 0.46255 0.89283 0.76426 0.0
H2445 H 0.41173 0.78686 0.8061 0.0
H2446 H 0.42665 0.77183 0.79547 0.0
H2447 H 0.45719 0.80839 0.80282 0.0
H2448 H 0.48085 0.75624 0.77074 0.0
H2449 H 0.55306 0.83767 0.79045 0.0
H2450 H 0.42593 0.7921 0.76546 0.0
H2451 H 0.41048 0.76198 0.77591 0.0
H2452 H 0.42949 0.75346 0.76486 0.0
H2453 H 0.51228 0.89126 0.78848 0.0
H2454 H 0.54729 0.88723 0.79408 0.0
H2455 H 0.50498 0.86634 0.79996 0.0
C2456 C 0.23369 0.708 0.77714 0.0
C2457 C 0.22159 0.72688 0.78262 0.0
C2458 C 0.21876 0.67199 0.77859 0.0
C2459 C 0.19034 0.65442 0.78544 0.0
C2460 C 0.17615 0.67306 0.79028 0.0
C2461 C 0.19251 0.70926 0.78901 0.0
C2462 C 0.23527 0.65337 0.77345 0.0
C2463 C 0.14501 0.65518 0.79728 0.0
C2464 C 0.14805 0.55622 0.78372 0.0
C2465 C 0.1645 0.54913 0.79178 0.0
C2466 C 0.15405 0.59002 0.78203 0.0
C2467 C 0.17816 0.61757 0.7883 0.0
C2468 C 0.19337 0.61015 0.79679 0.0
C2469 C 0.18587 0.57588 0.79853 0.0
C2470 C 0.1361 0.59651 0.77319 0.0
C2471 C 0.2197 0.63878 0.80357 0.0
H2472 H 0.25669 0.72182 0.7724 0.0
H2473 H 0.18345 0.72404 0.79334 0.0
H2474 H 0.24669 0.64407 0.77937 0.0
H2475 H 0.21544 0.63024 0.76924 0.0
H2476 H 0.2561 0.67036 0.76799 0.0
H2477 H 0.13325 0.67168 0.79881 0.0
H2478 H 0.12494 0.63022 0.79389 0.0
H2479 H 0.153 0.64921 0.80471 0.0
H2480 H 0.13147 0.53552 0.77849 0.0
H2481 H 0.19901 0.57058 0.80467 0.0
H2482 H 0.1548 0.60914 0.76681 0.0
H2483 H 0.12661 0.61431 0.77553 0.0
H2484 H 0.11381 0.572 0.77026 0.0
H2485 H 0.24305 0.65627 0.79898 0.0
H2486 H 0.22788 0.62854 0.81012 0.0
H2487 H 0.20893 0.6547 0.80664 0.0
C2488 C 0.45569 0.60267 0.78772 0.0
C2489 C 0.4625 0.63101 0.79401 0.0
C2490 C 0.42185 0.57421 0.78671 0.0
C2491 C 0.39402 0.57469 0.79184 0.0
C2492 C 0.40103 0.60259 0.79854 0.0
C2493 C 0.43528 0.63016 0.79966 0.0
C2494 C 0.41573 0.54439 0.77982 0.0
C2495 C 0.37208 0.60444 0.80404 0.0
C2496 C 0.30285 0.52885 0.7806 0.0
C2497 C 0.285 0.50231 0.78778 0.0
C2498 C 0.33878 0.55181 0.78157 0.0
C2499 C 0.35733 0.5474 0.78975 0.0
C2500 C 0.33981 0.51873 0.79646 0.0
C2501 C 0.30373 0.49691 0.79551 0.0
C2502 C 0.35629 0.58237 0.77434 0.0
C2503 C 0.35874 0.51227 0.80503 0.0
H2504 H 0.47671 0.60324 0.78333 0.0
H2505 H 0.44035 0.65222 0.80442 0.0
H2506 H 0.39876 0.51919 0.78369 0.0
H2507 H 0.4022 0.545 0.77274 0.0
H2508 H 0.44041 0.54555 0.77759 0.0
H2509 H 0.38195 0.62735 0.8092 0.0
H2510 H 0.35432 0.6059 0.79834 0.0
H2511 H 0.35654 0.58063 0.80867 0.0
H2512 H 0.28829 0.5334 0.77473 0.0
H2513 H 0.28987 0.4764 0.80109 0.0
H2514 H 0.37994 0.58394 0.77097 0.0
H2515 H 0.36462 0.6068 0.77867 0.0
H2516 H 0.33885 0.58086 0.76801 0.0
H2517 H 0.38356 0.51501 0.80221 0.0
H2518 H 0.34285 0.486 0.80844 0.0
H2519 H 0.36517 0.53183 0.81117 0.0
C2520 C 0.49575 0.859 0.05568 0.0
C2521 C 0.46524 0.84936 0.06124 0.0
C2522 C 0.51041 0.8374 0.05535 0.0
C2523 C 0.49333 0.8048 0.06037 0.0
C2524 C 0.46392 0.79615 0.06661 0.0
C2525 C 0.45053 0.81886 0.06709 0.0
C2526 C 0.54261 0.84834 0.04898 0.0
C2527 C 0.44454 0.76145 0.07197 0.0
C2528 C 0.49466 0.72787 0.04809 0.0
C2529 C 0.51434 0.72125 0.05517 0.0
C2530 C 0.48849 0.75566 0.04955 0.0
C2531 C 0.5033 0.77801 0.05812 0.0
C2532 C 0.52543 0.77299 0.06483 0.0
C2533 C 0.53014 0.74426 0.0634 0.0
C2534 C 0.46429 0.7597 0.04227 0.0
C2535 C 0.54287 0.79699 0.0738 0.0
H2536 H 0.507 0.88251 0.05109 0.0
H2537 H 0.42656 0.81106 0.07123 0.0
H2538 H 0.56073 0.84185 0.05295 0.0
H2539 H 0.53528 0.83413 0.04157 0.0
H2540 H 0.55643 0.87664 0.0473 0.0
H2541 H 0.42403 0.7599 0.07719 0.0
H2542 H 0.43211 0.7405 0.06615 0.0
H2543 H 0.46267 0.75637 0.07648 0.0
H2544 H 0.48204 0.70989 0.04181 0.0
H2545 H 0.54544 0.73922 0.06888 0.0
H2546 H 0.47727 0.78628 0.03899 0.0
H2547 H 0.44104 0.75604 0.04652 0.0
H2548 H 0.45557 0.7407 0.03586 0.0
H2549 H 0.55461 0.82452 0.07136 0.0
H2550 H 0.56343 0.79296 0.07726 0.0
H2551 H 0.52329 0.79231 0.07979 0.0
C2552 C 0.1652 0.63417 0.04735 0.0
C2553 C 0.1711 0.6152 0.05489 0.0
C2554 C 0.1871 0.67025 0.04641 0.0
C2555 C 0.21636 0.6875 0.05293 0.0
C2556 C 0.22127 0.66872 0.06093 0.0
C2557 C 0.19823 0.63281 0.06191 0.0
C2558 C 0.18011 0.68943 0.03804 0.0
C2559 C 0.25243 0.68595 0.06794 0.0
C2560 C 0.29862 0.76522 0.04262 0.0
C2561 C 0.30015 0.79247 0.04842 0.0
C2562 C 0.27096 0.73104 0.04382 0.0
C2563 C 0.24367 0.72414 0.05076 0.0
C2564 C 0.24384 0.75202 0.05606 0.0
C2565 C 0.27236 0.78577 0.05496 0.0
C2566 C 0.27209 0.70203 0.03812 0.0
C2567 C 0.21467 0.74602 0.06323 0.0
H2568 H 0.14424 0.6205 0.0419 0.0
H2569 H 0.20316 0.61806 0.06762 0.0
H2570 H 0.18333 0.71429 0.04098 0.0
H2571 H 0.1991 0.69578 0.03172 0.0
H2572 H 0.15353 0.67374 0.03482 0.0
H2573 H 0.25127 0.66838 0.07419 0.0
H2574 H 0.27646 0.69413 0.06342 0.0
H2575 H 0.25448 0.70965 0.07143 0.0
H2576 H 0.32024 0.77018 0.03767 0.0
H2577 H 0.27344 0.80681 0.05945 0.0
H2578 H 0.24786 0.68668 0.03366 0.0
H2579 H 0.27386 0.68411 0.0437 0.0
H2580 H 0.29455 0.71182 0.03279 0.0
H2581 H 0.18912 0.72924 0.05953 0.0
H2582 H 0.21621 0.77077 0.0656 0.0
H2583 H 0.21576 0.73235 0.07022 0.0
C2584 C 0.37832 0.52331 0.05221 0.0
C2585 C 0.39584 0.55111 0.05905 0.0
C2586 C 0.34214 0.50719 0.05094 0.0
C2587 C 0.3234 0.52034 0.05627 0.0
C2588 C 0.34083 0.54729 0.06358 0.0
C2589 C 0.37683 0.56198 0.06499 0.0
C2590 C 0.3244 0.47756 0.04343 0.0
C2591 C 0.32208 0.56266 0.06927 0.0
C2592 C 0.24539 0.51834 0.04363 0.0
C2593 C 0.21828 0.49544 0.05005 0.0
C2594 C 0.27962 0.52572 0.04534 0.0
C2595 C 0.28666 0.50884 0.05345 0.0
C2596 C 0.25882 0.48338 0.05937 0.0
C2597 C 0.22504 0.47753 0.05774 0.0
C2598 C 0.30856 0.55357 0.03898 0.0
C2599 C 0.26492 0.46365 0.06776 0.0
H2600 H 0.39316 0.51514 0.04755 0.0
H2601 H 0.39055 0.58396 0.07011 0.0
H2602 H 0.29942 0.45678 0.04661 0.0
H2603 H 0.3185 0.48703 0.03626 0.0
H2604 H 0.34098 0.46622 0.04145 0.0
H2605 H 0.33889 0.58216 0.07507 0.0
H2606 H 0.31309 0.57545 0.06372 0.0
H2607 H 0.29874 0.54195 0.07319 0.0
H2608 H 0.24031 0.53262 0.03779 0.0
H2609 H 0.20407 0.45983 0.06273 0.0
H2610 H 0.32457 0.5435 0.03551 0.0
H2611 H 0.3259 0.57578 0.04397 0.0
H2612 H 0.29864 0.5633 0.03273 0.0
H2613 H 0.2829 0.45474 0.06511 0.0
H2614 H 0.24029 0.44074 0.07036 0.0
H2615 H 0.27719 0.48097 0.07445 0.0
C2616 C 0.1994 0.56673 0.56451 0.0
C2617 C 0.16997 0.55484 0.55828 0.0
C2618 C 0.22158 0.55285 0.56355 0.0
C2619 C 0.21345 0.5257 0.55642 0.0
C2620 C 0.182 0.51152 0.55082 0.0
C2621 C 0.16102 0.52679 0.55165 0.0
C2622 C 0.25517 0.56926 0.56953 0.0
C2623 C 0.17156 0.48169 0.54347 0.0
C2624 C 0.29129 0.52473 0.54467 0.0
C2625 C 0.29524 0.50207 0.55126 0.0
C2626 C 0.2641 0.53185 0.54608 0.0
C2627 C 0.23962 0.51497 0.55407 0.0
C2628 C 0.24195 0.48993 0.56021 0.0
C2629 C 0.27014 0.4843 0.55887 0.0
C2630 C 0.26304 0.55921 0.53947 0.0
C2631 C 0.21562 0.47029 0.5685 0.0
H2632 H 0.20668 0.58889 0.56948 0.0
H2633 H 0.13834 0.51777 0.54677 0.0
H2634 H 0.25823 0.5491 0.57364 0.0
H2635 H 0.2774 0.58252 0.56415 0.0
H2636 H 0.25663 0.58858 0.57521 0.0
H2637 H 0.14384 0.46971 0.54118 0.0
H2638 H 0.18775 0.49116 0.53644 0.0
H2639 H 0.17593 0.4614 0.54695 0.0
H2640 H 0.31092 0.5389 0.53888 0.0
H2641 H 0.27317 0.46675 0.56398 0.0
H2642 H 0.26687 0.58135 0.54433 0.0
H2643 H 0.23728 0.54855 0.53574 0.0
H2644 H 0.28335 0.5692 0.53341 0.0
H2645 H 0.21958 0.48795 0.57501 0.0
H2646 H 0.21782 0.44799 0.57144 0.0
H2647 H 0.18885 0.46048 0.56559 0.0
C2648 C 0.4908 0.63803 0.55124 0.0
C2649 C 0.46286 0.61888 0.55791 0.0
C2650 C 0.50605 0.67428 0.55043 0.0
C2651 C 0.49198 0.69152 0.5561 0.0
C2652 C 0.46494 0.67245 0.56327 0.0
C2653 C 0.45107 0.63637 0.5642 0.0
C2654 C 0.53576 0.69373 0.54303 0.0
C2655 C 0.44865 0.6896 0.56932 0.0
C2656 C 0.5336 0.78962 0.55863 0.0
C2657 C 0.51574 0.79707 0.55108 0.0
C2658 C 0.5279 0.75575 0.55992 0.0
C2659 C 0.50272 0.72846 0.55379 0.0
C2660 C 0.48575 0.73619 0.54586 0.0
C2661 C 0.49292 0.77053 0.5445 0.0
C2662 C 0.54764 0.74894 0.56815 0.0
C2663 C 0.45824 0.70785 0.53927 0.0
H2664 H 0.49974 0.62441 0.54631 0.0
H2665 H 0.429 0.62146 0.5692 0.0
H2666 H 0.52618 0.70055 0.53605 0.0
H2667 H 0.55613 0.71835 0.5465 0.0
H2668 H 0.54767 0.678 0.54067 0.0
H2669 H 0.4294 0.67168 0.57501 0.0
H2670 H 0.46888 0.71276 0.57342 0.0
H2671 H 0.43532 0.69862 0.56399 0.0
H2672 H 0.55126 0.81013 0.56374 0.0
H2673 H 0.47868 0.77609 0.53877 0.0
H2674 H 0.55739 0.732 0.56517 0.0
H2675 H 0.53006 0.73516 0.57467 0.0
H2676 H 0.57 0.77339 0.57108 0.0
H2677 H 0.4688 0.69275 0.53548 0.0
H2678 H 0.44819 0.71827 0.53326 0.0
H2679 H 0.43616 0.68953 0.54416 0.0
C2680 C 0.3818 0.81848 0.56442 0.0
C2681 C 0.39918 0.84785 0.55815 0.0
C2682 C 0.34571 0.79624 0.56353 0.0
C2683 C 0.32652 0.80426 0.55643 0.0
C2684 C 0.34365 0.83565 0.55078 0.0
C2685 C 0.37991 0.85669 0.55155 0.0
C2686 C 0.32869 0.76272 0.56955 0.0
C2687 C 0.32406 0.84596 0.54346 0.0
C2688 C 0.24745 0.72629 0.54484 0.0
C2689 C 0.22096 0.72242 0.55147 0.0
C2690 C 0.28179 0.75347 0.54618 0.0
C2691 C 0.28956 0.77804 0.55415 0.0
C2692 C 0.26232 0.77579 0.56034 0.0
C2693 C 0.22846 0.7476 0.55906 0.0
C2694 C 0.31009 0.75446 0.53952 0.0
C2695 C 0.26918 0.8022 0.56861 0.0
H2696 H 0.3968 0.81129 0.56937 0.0
H2697 H 0.39343 0.87932 0.54664 0.0
H2698 H 0.30555 0.75968 0.5737 0.0
H2699 H 0.31965 0.74044 0.56419 0.0
H2700 H 0.34669 0.76136 0.57519 0.0
H2701 H 0.33973 0.87365 0.54112 0.0
H2702 H 0.31718 0.82967 0.53646 0.0
H2703 H 0.29948 0.84163 0.54699 0.0
H2704 H 0.24185 0.7066 0.53907 0.0
H2705 H 0.20798 0.74465 0.56421 0.0
H2706 H 0.32849 0.75069 0.54436 0.0
H2707 H 0.32509 0.78017 0.53576 0.0
H2708 H 0.29963 0.73407 0.5335 0.0
H2709 H 0.28308 0.79834 0.57509 0.0
H2710 H 0.24475 0.8 0.5716 0.0
H2711 H 0.28605 0.82894 0.56565 0.0
C2712 C 0.20641 0.49814 0.29362 0.0
C2713 C 0.2315 0.50411 0.28615 0.0
C2714 C 0.1921 0.51994 0.29448 0.0
C2715 C 0.20415 0.54917 0.28794 0.0
C2716 C 0.22808 0.55416 0.28 0.0
C2717 C 0.24112 0.53122 0.27911 0.0
C2718 C 0.1657 0.51288 0.30279 0.0
C2719 C 0.24206 0.58528 0.27297 0.0
C2720 C 0.16129 0.60463 0.28575 0.0
C2721 C 0.18204 0.63242 0.29232 0.0
C2722 C 0.16686 0.57632 0.28467 0.0
C2723 C 0.19459 0.57636 0.29002 0.0
C2724 C 0.21469 0.60368 0.29699 0.0
C2725 C 0.20783 0.63112 0.29816 0.0
C2726 C 0.14401 0.54713 0.27747 0.0
C2727 C 0.24483 0.60504 0.30275 0.0
H2728 H 0.19906 0.47721 0.2991 0.0
H2729 H 0.26097 0.53622 0.27345 0.0
H2730 H 0.17812 0.53195 0.30909 0.0
H2731 H 0.14402 0.5159 0.29977 0.0
H2732 H 0.15488 0.48635 0.30604 0.0
H2733 H 0.25862 0.58415 0.26677 0.0
H2734 H 0.22045 0.58727 0.26942 0.0
H2735 H 0.25779 0.60933 0.27749 0.0
H2736 H 0.14127 0.60552 0.28123 0.0
H2737 H 0.22424 0.65273 0.30314 0.0
H2738 H 0.13521 0.5216 0.28119 0.0
H2739 H 0.15904 0.54828 0.27054 0.0
H2740 H 0.12084 0.54857 0.275 0.0
H2741 H 0.236 0.58086 0.30724 0.0
H2742 H 0.25732 0.62754 0.30806 0.0
H2743 H 0.26467 0.60689 0.29721 0.0
C2744 C 0.48989 0.71058 0.27631 0.0
C2745 C 0.51967 0.72972 0.28228 0.0
C2746 C 0.46873 0.67456 0.27772 0.0
C2747 C 0.4783 0.65723 0.28505 0.0
C2748 C 0.51011 0.67611 0.29041 0.0
C2749 C 0.53001 0.71231 0.28914 0.0
C2750 C 0.43469 0.65565 0.272 0.0
C2751 C 0.52207 0.65851 0.29795 0.0
C2752 C 0.40241 0.57902 0.29769 0.0
C2753 C 0.39843 0.55195 0.2913 0.0
C2754 C 0.42913 0.61331 0.29596 0.0
C2755 C 0.45317 0.62046 0.28788 0.0
C2756 C 0.45102 0.59267 0.282 0.0
C2757 C 0.42321 0.55882 0.28363 0.0
C2758 C 0.42998 0.64218 0.3023 0.0
C2759 C 0.47697 0.59889 0.27363 0.0
H2760 H 0.48156 0.72421 0.27117 0.0
H2761 H 0.55294 0.72724 0.29382 0.0
H2762 H 0.43222 0.63235 0.26811 0.0
H2763 H 0.41283 0.6466 0.27752 0.0
H2764 H 0.43198 0.67239 0.26617 0.0
H2765 H 0.54996 0.6752 0.29995 0.0
H2766 H 0.50662 0.65255 0.30511 0.0
H2767 H 0.51803 0.63357 0.2948 0.0
H2768 H 0.38297 0.57386 0.30351 0.0
H2769 H 0.42012 0.53788 0.27867 0.0
H2770 H 0.42507 0.65944 0.29727 0.0
H2771 H 0.45599 0.65829 0.30579 0.0
H2772 H 0.41025 0.63219 0.30852 0.0
H2773 H 0.47191 0.61109 0.26692 0.0
H2774 H 0.47542 0.57433 0.27105 0.0
H2775 H 0.50381 0.61698 0.2763 0.0
C2776 C 0.44011 0.82747 0.29284 0.0
C2777 C 0.4665 0.84701 0.28576 0.0
C2778 C 0.40609 0.82103 0.29128 0.0
C2779 C 0.39854 0.83538 0.2826 0.0
C2780 C 0.42573 0.85731 0.27585 0.0
C2781 C 0.45925 0.86234 0.27741 0.0
C2782 C 0.37781 0.79706 0.29859 0.0
C2783 C 0.41916 0.87425 0.26676 0.0
C2784 C 0.3049 0.78215 0.27363 0.0
C2785 C 0.28906 0.79713 0.27933 0.0
C2786 C 0.34101 0.79557 0.27415 0.0
C2787 C 0.36175 0.82527 0.28028 0.0
C2788 C 0.3462 0.84257 0.28515 0.0
C2789 C 0.30993 0.8279 0.28478 0.0
C2790 C 0.35635 0.77595 0.26896 0.0
C2791 C 0.36743 0.87505 0.2914 0.0
H2792 H 0.44548 0.81521 0.29922 0.0
H2793 H 0.47964 0.87753 0.27192 0.0
H2794 H 0.36412 0.8101 0.30175 0.0
H2795 H 0.35829 0.77362 0.2944 0.0
H2796 H 0.38807 0.78864 0.30508 0.0
H2797 H 0.44374 0.89462 0.26323 0.0
H2798 H 0.40423 0.85435 0.26085 0.0
H2799 H 0.40337 0.88612 0.26907 0.0
H2800 H 0.28875 0.75797 0.2696 0.0
H2801 H 0.29765 0.83935 0.28927 0.0
H2802 H 0.36476 0.76372 0.27487 0.0
H2803 H 0.37965 0.79388 0.26444 0.0
H2804 H 0.33745 0.75526 0.26378 0.0
H2805 H 0.37433 0.86806 0.29886 0.0
H2806 H 0.35291 0.88891 0.29296 0.0
H2807 H 0.39202 0.89302 0.28739 0.0
loop_
_geom_bond_atom_site_label_1
_geom_bond_atom_site_label_2
_geom_bond_distance
_geom_bond_site_symmetry_2
_ccdc_geom_bond_type
O0 Cd1 2.223 1_565 S
O0 C8 1.315 . S
Cd1 O0 2.223 1_545 S
Cd1 O4 2.297 1_545 S
Cd1 O5 2.439 . S
Cd1 O11 2.240 . S
Cd2 O3 2.240 1_545 S
Cd2 O10 2.223 . S
Cd2 O12 2.297 . S
Cd2 O13 2.439 . S
O3 Cd2 2.240 1_565 S
O3 C8 1.279 . S
O4 Cd1 2.297 1_565 S
O4 C6 1.247 1_565 S
O5 Cd1 2.439 . S
O5 C6 1.208 . S
C6 O4 1.247 1_545 S
C6 O5 1.208 . S
C7 O12 1.247 . S
C7 O13 1.208 . S
C8 O0 1.315 . S
C8 O3 1.279 . S
C9 O10 1.315 . S
C9 O11 1.279 . S
O10 Cd2 2.223 . S
O10 C9 1.315 . S
O11 Cd1 2.240 . S
O11 C9 1.279 . S
O12 Cd2 2.297 . S
O12 C7 1.247 . S
O13 Cd2 2.439 . S
O13 C7 1.208 . S
O14 Cd15 2.223 1_455 S
O14 C22 1.315 . S
Cd15 O14 2.223 1_655 S
Cd15 O18 2.297 1_655 S
Cd15 O19 2.439 . S
Cd15 O25 2.240 . S
Cd16 O17 2.240 1_655 S
Cd16 O24 2.223 . S
Cd16 O26 2.297 . S
Cd16 O27 2.439 . S
O17 Cd16 2.240 1_455 S
O17 C22 1.279 . S
O18 Cd15 2.297 1_455 S
O18 C20 1.247 1_455 S
O19 Cd15 2.439 . S
O19 C20 1.208 . S
C20 O18 1.247 1_655 S
C20 O19 1.208 . S
C21 O26 1.247 . S
C21 O27 1.208 . S
C22 O14 1.315 . S
C22 O17 1.279 . S
C23 O24 1.315 . S
C23 O25 1.279 . S
O24 Cd16 2.223 . S
O24 C23 1.315 . S
O25 Cd15 2.240 . S
O25 C23 1.279 . S
O26 Cd16 2.297 . S
O26 C21 1.247 . S
O27 Cd16 2.439 . S
O27 C21 1.208 . S
O28 Cd29 2.223 . S
O28 C36 1.315 . S
Cd29 O28 2.223 . S
Cd29 O32 2.297 . S
Cd29 O33 2.439 . S
Cd29 O39 2.240 . S
Cd30 O31 2.240 . S
Cd30 O38 2.223 . S
Cd30 O40 2.297 . S
Cd30 O41 2.439 . S
O31 Cd30 2.240 . S
O31 C36 1.279 . S
O32 Cd29 2.297 . S
O32 C34 1.247 . S
O33 Cd29 2.439 . S
O33 C34 1.208 . S
C34 O32 1.247 . S
C34 O33 1.208 . S
C35 O40 1.247 . S
C35 O41 1.208 . S
C36 O28 1.315 . S
C36 O31 1.279 . S
C37 O38 1.315 . S
C37 O39 1.279 . S
O38 Cd30 2.223 . S
O38 C37 1.315 . S
O39 Cd29 2.240 . S
O39 C37 1.279 . S
O40 Cd30 2.297 . S
O40 C35 1.247 . S
O41 Cd30 2.439 . S
O41 C35 1.208 . S
O42 Cd43 2.223 1_655 S
O42 C50 1.315 . S
Cd43 O42 2.223 1_455 S
Cd43 O46 2.297 1_455 S
Cd43 O47 2.439 . S
Cd43 O53 2.240 . S
Cd44 O45 2.240 1_455 S
Cd44 O52 2.223 . S
Cd44 O54 2.297 . S
Cd44 O55 2.439 . S
O45 Cd44 2.240 1_655 S
O45 C50 1.279 . S
O46 Cd43 2.297 1_655 S
O46 C48 1.247 1_655 S
O47 Cd43 2.439 . S
O47 C48 1.208 . S
C48 O46 1.247 1_455 S
C48 O47 1.208 . S
C49 O54 1.247 . S
C49 O55 1.208 . S
C50 O42 1.315 . S
C50 O45 1.279 . S
C51 O52 1.315 . S
C51 O53 1.279 . S
O52 Cd44 2.223 . S
O52 C51 1.315 . S
O53 Cd43 2.240 . S
O53 C51 1.279 . S
O54 Cd44 2.297 . S
O54 C49 1.247 . S
O55 Cd44 2.439 . S
O55 C49 1.208 . S
O56 Cd57 2.223 . S
O56 C64 1.315 . S
Cd57 O56 2.223 . S
Cd57 O60 2.297 . S
Cd57 O61 2.439 . S
Cd57 O67 2.240 . S
Cd58 O59 2.240 . S
Cd58 O66 2.223 . S
Cd58 O68 2.297 . S
Cd58 O69 2.439 . S
O59 Cd58 2.240 . S
O59 C64 1.279 . S
O60 Cd57 2.297 . S
O60 C62 1.247 . S
O61 Cd57 2.439 . S
O61 C62 1.208 . S
C62 O60 1.247 . S
C62 O61 1.208 . S
C63 O68 1.247 . S
C63 O69 1.208 . S
C64 O56 1.315 . S
C64 O59 1.279 . S
C65 O66 1.315 . S
C65 O67 1.279 . S
O66 Cd58 2.223 . S
O66 C65 1.315 . S
O67 Cd57 2.240 . S
O67 C65 1.279 . S
O68 Cd58 2.297 . S
O68 C63 1.247 . S
O69 Cd58 2.439 . S
O69 C63 1.208 . S
O70 Cd71 2.223 1_545 S
O70 C78 1.315 . S
Cd71 O70 2.223 1_565 S
Cd71 O74 2.297 1_565 S
Cd71 O75 2.439 . S
Cd71 O81 2.240 . S
Cd72 O73 2.240 1_565 S
Cd72 O80 2.223 . S
Cd72 O82 2.297 . S
Cd72 O83 2.439 . S
O73 Cd72 2.240 1_545 S
O73 C78 1.279 . S
O74 Cd71 2.297 1_545 S
O74 C76 1.247 1_545 S
O75 Cd71 2.439 . S
O75 C76 1.208 . S
C76 O74 1.247 1_565 S
C76 O75 1.208 . S
C77 O82 1.247 . S
C77 O83 1.208 . S
C78 O70 1.315 . S
C78 O73 1.279 . S
C79 O80 1.315 . S
C79 O81 1.279 . S
O80 Cd72 2.223 . S
O80 C79 1.315 . S
O81 Cd71 2.240 . S
O81 C79 1.279 . S
O82 Cd72 2.297 . S
O82 C77 1.247 . S
O83 Cd72 2.439 . S
O83 C77 1.208 . S
O84 Cd85 2.223 1_545 S
O84 C92 1.315 . S
Cd85 O84 2.223 1_565 S
Cd85 O88 2.297 1_565 S
Cd85 O89 2.439 . S
Cd85 O95 2.240 . S
Cd86 O87 2.240 1_565 S
Cd86 O94 2.223 . S
Cd86 O96 2.297 . S
Cd86 O97 2.439 . S
O87 Cd86 2.240 1_545 S
O87 C92 1.279 . S
O88 Cd85 2.297 1_545 S
O88 C90 1.247 1_545 S
O89 Cd85 2.439 . S
O89 C90 1.208 . S
C90 O88 1.247 1_565 S
C90 O89 1.208 . S
C91 O96 1.247 . S
C91 O97 1.208 . S
C92 O84 1.315 . S
C92 O87 1.279 . S
C93 O94 1.315 . S
C93 O95 1.279 . S
O94 Cd86 2.223 . S
O94 C93 1.315 . S
O95 Cd85 2.240 . S
O95 C93 1.279 . S
O96 Cd86 2.297 . S
O96 C91 1.247 . S
O97 Cd86 2.439 . S
O97 C91 1.208 . S
O98 Cd99 2.223 1_655 S
O98 C106 1.315 . S
Cd99 O98 2.223 1_455 S
Cd99 O102 2.297 1_455 S
Cd99 O103 2.439 . S
Cd99 O109 2.240 . S
Cd100 O101 2.240 1_455 S
Cd100 O108 2.223 . S
Cd100 O110 2.297 . S
Cd100 O111 2.439 . S
O101 Cd100 2.240 1_655 S
O101 C106 1.279 . S
O102 Cd99 2.297 1_655 S
O102 C104 1.247 1_655 S
O103 Cd99 2.439 . S
O103 C104 1.208 . S
C104 O102 1.247 1_455 S
C104 O103 1.208 . S
C105 O110 1.247 . S
C105 O111 1.208 . S
C106 O98 1.315 . S
C106 O101 1.279 . S
C107 O108 1.315 . S
C107 O109 1.279 . S
O108 Cd100 2.223 . S
O108 C107 1.315 . S
O109 Cd99 2.240 . S
O109 C107 1.279 . S
O110 Cd100 2.297 . S
O110 C105 1.247 . S
O111 Cd100 2.439 . S
O111 C105 1.208 . S
O112 Cd113 2.223 . S
O112 C120 1.315 . S
Cd113 O112 2.223 . S
Cd113 O116 2.297 . S
Cd113 O117 2.439 . S
Cd113 O123 2.240 . S
Cd114 O115 2.240 . S
Cd114 O122 2.223 . S
Cd114 O124 2.297 . S
Cd114 O125 2.439 . S
O115 Cd114 2.240 . S
O115 C120 1.279 . S
O116 Cd113 2.297 . S
O116 C118 1.247 . S
O117 Cd113 2.439 . S
O117 C118 1.208 . S
C118 O116 1.247 . S
C118 O117 1.208 . S
C119 O124 1.247 . S
C119 O125 1.208 . S
C120 O112 1.315 . S
C120 O115 1.279 . S
C121 O122 1.315 . S
C121 O123 1.279 . S
O122 Cd114 2.223 . S
O122 C121 1.315 . S
O123 Cd113 2.240 . S
O123 C121 1.279 . S
O124 Cd114 2.297 . S
O124 C119 1.247 . S
O125 Cd114 2.439 . S
O125 C119 1.208 . S
O126 Cd127 2.223 1_455 S
O126 C134 1.315 . S
Cd127 O126 2.223 1_655 S
Cd127 O130 2.297 1_655 S
Cd127 O131 2.439 . S
Cd127 O137 2.240 . S
Cd128 O129 2.240 1_655 S
Cd128 O136 2.223 . S
Cd128 O138 2.297 . S
Cd128 O139 2.439 . S
O129 Cd128 2.240 1_455 S
O129 C134 1.279 . S
O130 Cd127 2.297 1_455 S
O130 C132 1.247 1_455 S
O131 Cd127 2.439 . S
O131 C132 1.208 . S
C132 O130 1.247 1_655 S
C132 O131 1.208 . S
C133 O138 1.247 . S
C133 O139 1.208 . S
C134 O126 1.315 . S
C134 O129 1.279 . S
C135 O136 1.315 . S
C135 O137 1.279 . S
O136 Cd128 2.223 . S
O136 C135 1.315 . S
O137 Cd127 2.240 . S
O137 C135 1.279 . S
O138 Cd128 2.297 . S
O138 C133 1.247 . S
O139 Cd128 2.439 . S
O139 C133 1.208 . S
O140 Cd141 2.223 . S
O140 C148 1.315 . S
Cd141 O140 2.223 . S
Cd141 O144 2.297 . S
Cd141 O145 2.439 . S
Cd141 O151 2.240 . S
Cd142 O143 2.240 . S
Cd142 O150 2.223 . S
Cd142 O152 2.297 . S
Cd142 O153 2.439 . S
O143 Cd142 2.240 . S
O143 C148 1.279 . S
O144 Cd141 2.297 . S
O144 C146 1.247 . S
O145 Cd141 2.439 . S
O145 C146 1.208 . S
C146 O144 1.247 . S
C146 O145 1.208 . S
C147 O152 1.247 . S
C147 O153 1.208 . S
C148 O140 1.315 . S
C148 O143 1.279 . S
C149 O150 1.315 . S
C149 O151 1.279 . S
O150 Cd142 2.223 . S
O150 C149 1.315 . S
O151 Cd141 2.240 . S
O151 C149 1.279 . S
O152 Cd142 2.297 . S
O152 C147 1.247 . S
O153 Cd142 2.439 . S
O153 C147 1.208 . S
O154 Cd155 2.223 1_565 S
O154 C162 1.315 . S
Cd155 O154 2.223 1_545 S
Cd155 O158 2.297 1_545 S
Cd155 O159 2.439 . S
Cd155 O165 2.240 . S
Cd156 O157 2.240 1_545 S
Cd156 O164 2.223 . S
Cd156 O166 2.297 . S
Cd156 O167 2.439 . S
O157 Cd156 2.240 1_565 S
O157 C162 1.279 . S
O158 Cd155 2.297 1_565 S
O158 C160 1.247 1_565 S
O159 Cd155 2.439 . S
O159 C160 1.208 . S
C160 O158 1.247 1_545 S
C160 O159 1.208 . S
C161 O166 1.247 . S
C161 O167 1.208 . S
C162 O154 1.315 . S
C162 O157 1.279 . S
C163 O164 1.315 . S
C163 O165 1.279 . S
O164 Cd156 2.223 . S
O164 C163 1.315 . S
O165 Cd155 2.240 . S
O165 C163 1.279 . S
O166 Cd156 2.297 . S
O166 C161 1.247 . S
O167 Cd156 2.439 . S
O167 C161 1.208 . S
O168 Cd169 2.223 . S
O168 C176 1.315 . S
Cd169 O168 2.223 . S
Cd169 O172 2.297 . S
Cd169 O173 2.439 . S
Cd169 O179 2.240 . S
Cd170 O171 2.240 . S
Cd170 O178 2.223 . S
Cd170 O180 2.297 . S
Cd170 O181 2.439 . S
O171 Cd170 2.240 . S
O171 C176 1.279 . S
O172 Cd169 2.297 . S
O172 C174 1.247 . S
O173 Cd169 2.439 . S
O173 C174 1.208 . S
C174 O172 1.247 . S
C174 O173 1.208 . S
C175 O180 1.247 . S
C175 O181 1.208 . S
C176 O168 1.315 . S
C176 O171 1.279 . S
C177 O178 1.315 . S
C177 O179 1.279 . S
O178 Cd170 2.223 . S
O178 C177 1.315 . S
O179 Cd169 2.240 . S
O179 C177 1.279 . S
O180 Cd170 2.297 . S
O180 C175 1.247 . S
O181 Cd170 2.439 . S
O181 C175 1.208 . S
O182 Cd183 2.223 . S
O182 C190 1.315 . S
Cd183 O182 2.223 . S
Cd183 O186 2.297 . S
Cd183 O187 2.439 . S
Cd183 O193 2.240 . S
Cd184 O185 2.240 . S
Cd184 O192 2.223 . S
Cd184 O194 2.297 . S
Cd184 O195 2.439 . S
O185 Cd184 2.240 . S
O185 C190 1.279 . S
O186 Cd183 2.297 . S
O186 C188 1.247 . S
O187 Cd183 2.439 . S
O187 C188 1.208 . S
C188 O186 1.247 . S
C188 O187 1.208 . S
C189 O194 1.247 . S
C189 O195 1.208 . S
C190 O182 1.315 . S
C190 O185 1.279 . S
C191 O192 1.315 . S
C191 O193 1.279 . S
O192 Cd184 2.223 . S
O192 C191 1.315 . S
O193 Cd183 2.240 . S
O193 C191 1.279 . S
O194 Cd184 2.297 . S
O194 C189 1.247 . S
O195 Cd184 2.439 . S
O195 C189 1.208 . S
O196 Cd197 2.223 . S
O196 C204 1.315 . S
Cd197 O196 2.223 . S
Cd197 O200 2.297 . S
Cd197 O201 2.439 . S
Cd197 O207 2.240 . S
Cd198 O199 2.240 . S
Cd198 O206 2.223 . S
Cd198 O208 2.297 . S
Cd198 O209 2.439 . S
O199 Cd198 2.240 . S
O199 C204 1.279 . S
O200 Cd197 2.297 . S
O200 C202 1.247 . S
O201 Cd197 2.439 . S
O201 C202 1.208 . S
C202 O200 1.247 . S
C202 O201 1.208 . S
C203 O208 1.247 . S
C203 O209 1.208 . S
C204 O196 1.315 . S
C204 O199 1.279 . S
C205 O206 1.315 . S
C205 O207 1.279 . S
O206 Cd198 2.223 . S
O206 C205 1.315 . S
O207 Cd197 2.240 . S
O207 C205 1.279 . S
O208 Cd198 2.297 . S
O208 C203 1.247 . S
O209 Cd198 2.439 . S
O209 C203 1.208 . S
O210 Cd211 2.223 . S
O210 C218 1.315 . S
Cd211 O210 2.223 . S
Cd211 O214 2.297 . S
Cd211 O215 2.439 . S
Cd211 O221 2.240 . S
Cd212 O213 2.240 . S
Cd212 O220 2.223 . S
Cd212 O222 2.297 . S
Cd212 O223 2.439 . S
O213 Cd212 2.240 . S
O213 C218 1.279 . S
O214 Cd211 2.297 . S
O214 C216 1.247 . S
O215 Cd211 2.439 . S
O215 C216 1.208 . S
C216 O214 1.247 . S
C216 O215 1.208 . S
C217 O222 1.247 . S
C217 O223 1.208 . S
C218 O210 1.315 . S
C218 O213 1.279 . S
C219 O220 1.315 . S
C219 O221 1.279 . S
O220 Cd212 2.223 . S
O220 C219 1.315 . S
O221 Cd211 2.240 . S
O221 C219 1.279 . S
O222 Cd212 2.297 . S
O222 C217 1.247 . S
O223 Cd212 2.439 . S
O223 C217 1.208 . S
O224 Cd225 2.223 . S
O224 C232 1.315 . S
Cd225 O224 2.223 . S
Cd225 O228 2.297 . S
Cd225 O229 2.439 . S
Cd225 O235 2.240 . S
Cd226 O227 2.240 . S
Cd226 O234 2.223 . S
Cd226 O236 2.297 . S
Cd226 O237 2.439 . S
O227 Cd226 2.240 . S
O227 C232 1.279 . S
O228 Cd225 2.297 . S
O228 C230 1.247 . S
O229 Cd225 2.439 . S
O229 C230 1.208 . S
C230 O228 1.247 . S
C230 O229 1.208 . S
C231 O236 1.247 . S
C231 O237 1.208 . S
C232 O224 1.315 . S
C232 O227 1.279 . S
C233 O234 1.315 . S
C233 O235 1.279 . S
O234 Cd226 2.223 . S
O234 C233 1.315 . S
O235 Cd225 2.240 . S
O235 C233 1.279 . S
O236 Cd226 2.297 . S
O236 C231 1.247 . S
O237 Cd226 2.439 . S
O237 C231 1.208 . S
O238 Cd239 2.223 . S
O238 C246 1.315 . S
Cd239 O238 2.223 . S
Cd239 O242 2.297 . S
Cd239 O243 2.439 . S
Cd239 O249 2.240 . S
Cd240 O241 2.240 . S
Cd240 O248 2.223 . S
Cd240 O250 2.297 . S
Cd240 O251 2.439 . S
O241 Cd240 2.240 . S
O241 C246 1.279 . S
O242 Cd239 2.297 . S
O242 C244 1.247 . S
O243 Cd239 2.439 . S
O243 C244 1.208 . S
C244 O242 1.247 . S
C244 O243 1.208 . S
C245 O250 1.247 . S
C245 O251 1.208 . S
C246 O238 1.315 . S
C246 O241 1.279 . S
C247 O248 1.315 . S
C247 O249 1.279 . S
O248 Cd240 2.223 . S
O248 C247 1.315 . S
O249 Cd239 2.240 . S
O249 C247 1.279 . S
O250 Cd240 2.297 . S
O250 C245 1.247 . S
O251 Cd240 2.439 . S
O251 C245 1.208 . S
O252 Cd253 2.223 . S
O252 C260 1.315 . S
Cd253 O252 2.223 . S
Cd253 O256 2.297 . S
Cd253 O257 2.439 . S
Cd253 O263 2.240 . S
Cd254 O255 2.240 . S
Cd254 O262 2.223 . S
Cd254 O264 2.297 . S
Cd254 O265 2.439 . S
O255 Cd254 2.240 . S
O255 C260 1.279 . S
O256 Cd253 2.297 . S
O256 C258 1.247 . S
O257 Cd253 2.439 . S
O257 C258 1.208 . S
C258 O256 1.247 . S
C258 O257 1.208 . S
C259 O264 1.247 . S
C259 O265 1.208 . S
C260 O252 1.315 . S
C260 O255 1.279 . S
C261 O262 1.315 . S
C261 O263 1.279 . S
O262 Cd254 2.223 . S
O262 C261 1.315 . S
O263 Cd253 2.240 . S
O263 C261 1.279 . S
O264 Cd254 2.297 . S
O264 C259 1.247 . S
O265 Cd254 2.439 . S
O265 C259 1.208 . S
O266 Cd267 2.223 . S
O266 C274 1.315 . S
Cd267 O266 2.223 . S
Cd267 O270 2.297 . S
Cd267 O271 2.439 . S
Cd267 O277 2.240 . S
Cd268 O269 2.240 . S
Cd268 O276 2.223 . S
Cd268 O278 2.297 . S
Cd268 O279 2.439 . S
O269 Cd268 2.240 . S
O269 C274 1.279 . S
O270 Cd267 2.297 . S
O270 C272 1.247 . S
O271 Cd267 2.439 . S
O271 C272 1.208 . S
C272 O270 1.247 . S
C272 O271 1.208 . S
C273 O278 1.247 . S
C273 O279 1.208 . S
C274 O266 1.315 . S
C274 O269 1.279 . S
C275 O276 1.315 . S
C275 O277 1.279 . S
O276 Cd268 2.223 . S
O276 C275 1.315 . S
O277 Cd267 2.240 . S
O277 C275 1.279 . S
O278 Cd268 2.297 . S
O278 C273 1.247 . S
O279 Cd268 2.439 . S
O279 C273 1.208 . S
O280 Cd281 2.223 . S
O280 C288 1.315 . S
Cd281 O280 2.223 . S
Cd281 O284 2.297 . S
Cd281 O285 2.439 . S
Cd281 O291 2.240 . S
Cd282 O283 2.240 . S
Cd282 O290 2.223 . S
Cd282 O292 2.297 . S
Cd282 O293 2.439 . S
O283 Cd282 2.240 . S
O283 C288 1.279 . S
O284 Cd281 2.297 . S
O284 C286 1.247 . S
O285 Cd281 2.439 . S
O285 C286 1.208 . S
C286 O284 1.247 . S
C286 O285 1.208 . S
C287 O292 1.247 . S
C287 O293 1.208 . S
C288 O280 1.315 . S
C288 O283 1.279 . S
C289 O290 1.315 . S
C289 O291 1.279 . S
O290 Cd282 2.223 . S
O290 C289 1.315 . S
O291 Cd281 2.240 . S
O291 C289 1.279 . S
O292 Cd282 2.297 . S
O292 C287 1.247 . S
O293 Cd282 2.439 . S
O293 C287 1.208 . S
O294 Cd295 2.223 . S
O294 C302 1.315 . S
Cd295 O294 2.223 . S
Cd295 O298 2.297 . S
Cd295 O299 2.439 . S
Cd295 O305 2.240 . S
Cd296 O297 2.240 . S
Cd296 O304 2.223 . S
Cd296 O306 2.297 . S
Cd296 O307 2.439 . S
O297 Cd296 2.240 . S
O297 C302 1.279 . S
O298 Cd295 2.297 . S
O298 C300 1.247 . S
O299 Cd295 2.439 . S
O299 C300 1.208 . S
C300 O298 1.247 . S
C300 O299 1.208 . S
C301 O306 1.247 . S
C301 O307 1.208 . S
C302 O294 1.315 . S
C302 O297 1.279 . S
C303 O304 1.315 . S
C303 O305 1.279 . S
O304 Cd296 2.223 . S
O304 C303 1.315 . S
O305 Cd295 2.240 . S
O305 C303 1.279 . S
O306 Cd296 2.297 . S
O306 C301 1.247 . S
O307 Cd296 2.439 . S
O307 C301 1.208 . S
O308 Cd309 2.223 . S
O308 C316 1.315 . S
Cd309 O308 2.223 . S
Cd309 O312 2.297 . S
Cd309 O313 2.439 . S
Cd309 O319 2.240 . S
Cd310 O311 2.240 . S
Cd310 O318 2.223 . S
Cd310 O320 2.297 . S
Cd310 O321 2.439 . S
O311 Cd310 2.240 . S
O311 C316 1.279 . S
O312 Cd309 2.297 . S
O312 C314 1.247 . S
O313 Cd309 2.439 . S
O313 C314 1.208 . S
C314 O312 1.247 . S
C314 O313 1.208 . S
C315 O320 1.247 . S
C315 O321 1.208 . S
C316 O308 1.315 . S
C316 O311 1.279 . S
C317 O318 1.315 . S
C317 O319 1.279 . S
O318 Cd310 2.223 . S
O318 C317 1.315 . S
O319 Cd309 2.240 . S
O319 C317 1.279 . S
O320 Cd310 2.297 . S
O320 C315 1.247 . S
O321 Cd310 2.439 . S
O321 C315 1.208 . S
O322 Cd323 2.223 . S
O322 C330 1.315 . S
Cd323 O322 2.223 . S
Cd323 O326 2.297 . S
Cd323 O327 2.439 . S
Cd323 O333 2.240 . S
Cd324 O325 2.240 . S
Cd324 O332 2.223 . S
Cd324 O334 2.297 . S
Cd324 O335 2.439 . S
O325 Cd324 2.240 . S
O325 C330 1.279 . S
O326 Cd323 2.297 . S
O326 C328 1.247 . S
O327 Cd323 2.439 . S
O327 C328 1.208 . S
C328 O326 1.247 . S
C328 O327 1.208 . S
C329 O334 1.247 . S
C329 O335 1.208 . S
C330 O322 1.315 . S
C330 O325 1.279 . S
C331 O332 1.315 . S
C331 O333 1.279 . S
O332 Cd324 2.223 . S
O332 C331 1.315 . S
O333 Cd323 2.240 . S
O333 C331 1.279 . S
O334 Cd324 2.297 . S
O334 C329 1.247 . S
O335 Cd324 2.439 . S
O335 C329 1.208 . S
O336 Cd337 2.223 . S
O336 C344 1.315 . S
Cd337 O336 2.223 . S
Cd337 O340 2.297 . S
Cd337 O341 2.439 . S
Cd337 O347 2.240 . S
Cd338 O339 2.240 . S
Cd338 O346 2.223 . S
Cd338 O348 2.297 . S
Cd338 O349 2.439 . S
O339 Cd338 2.240 . S
O339 C344 1.279 . S
O340 Cd337 2.297 . S
O340 C342 1.247 . S
O341 Cd337 2.439 . S
O341 C342 1.208 . S
C342 O340 1.247 . S
C342 O341 1.208 . S
C343 O348 1.247 . S
C343 O349 1.208 . S
C344 O336 1.315 . S
C344 O339 1.279 . S
C345 O346 1.315 . S
C345 O347 1.279 . S
O346 Cd338 2.223 . S
O346 C345 1.315 . S
O347 Cd337 2.240 . S
O347 C345 1.279 . S
O348 Cd338 2.297 . S
O348 C343 1.247 . S
O349 Cd338 2.439 . S
O349 C343 1.208 . S
O350 Cd351 2.223 . S
O350 C358 1.315 . S
Cd351 O350 2.223 . S
Cd351 O354 2.297 . S
Cd351 O355 2.439 . S
Cd351 O361 2.240 . S
Cd352 O353 2.240 . S
Cd352 O360 2.223 . S
Cd352 O362 2.297 . S
Cd352 O363 2.439 . S
O353 Cd352 2.240 . S
O353 C358 1.279 . S
O354 Cd351 2.297 . S
O354 C356 1.247 . S
O355 Cd351 2.439 . S
O355 C356 1.208 . S
C356 O354 1.247 . S
C356 O355 1.208 . S
C357 O362 1.247 . S
C357 O363 1.208 . S
C358 O350 1.315 . S
C358 O353 1.279 . S
C359 O360 1.315 . S
C359 O361 1.279 . S
O360 Cd352 2.223 . S
O360 C359 1.315 . S
O361 Cd351 2.240 . S
O361 C359 1.279 . S
O362 Cd352 2.297 . S
O362 C357 1.247 . S
O363 Cd352 2.439 . S
O363 C357 1.208 . S
O364 Cd365 2.223 . S
O364 C372 1.315 . S
Cd365 O364 2.223 . S
Cd365 O368 2.297 . S
Cd365 O369 2.439 . S
Cd365 O375 2.240 . S
Cd366 O367 2.240 . S
Cd366 O374 2.223 . S
Cd366 O376 2.297 . S
Cd366 O377 2.439 . S
O367 Cd366 2.240 . S
O367 C372 1.279 . S
O368 Cd365 2.297 . S
O368 C370 1.247 . S
O369 Cd365 2.439 . S
O369 C370 1.208 . S
C370 O368 1.247 . S
C370 O369 1.208 . S
C371 O376 1.247 . S
C371 O377 1.208 . S
C372 O364 1.315 . S
C372 O367 1.279 . S
C373 O374 1.315 . S
C373 O375 1.279 . S
O374 Cd366 2.223 . S
O374 C373 1.315 . S
O375 Cd365 2.240 . S
O375 C373 1.279 . S
O376 Cd366 2.297 . S
O376 C371 1.247 . S
O377 Cd366 2.439 . S
O377 C371 1.208 . S
O378 Cd379 2.223 . S
O378 C386 1.315 . S
Cd379 O378 2.223 . S
Cd379 O382 2.297 . S
Cd379 O383 2.439 . S
Cd379 O389 2.240 . S
Cd380 O381 2.240 . S
Cd380 O388 2.223 . S
Cd380 O390 2.297 . S
Cd380 O391 2.439 . S
O381 Cd380 2.240 . S
O381 C386 1.279 . S
O382 Cd379 2.297 . S
O382 C384 1.247 . S
O383 Cd379 2.439 . S
O383 C384 1.208 . S
C384 O382 1.247 . S
C384 O383 1.208 . S
C385 O390 1.247 . S
C385 O391 1.208 . S
C386 O378 1.315 . S
C386 O381 1.279 . S
C387 O388 1.315 . S
C387 O389 1.279 . S
O388 Cd380 2.223 . S
O388 C387 1.315 . S
O389 Cd379 2.240 . S
O389 C387 1.279 . S
O390 Cd380 2.297 . S
O390 C385 1.247 . S
O391 Cd380 2.439 . S
O391 C385 1.208 . S
O392 Cd393 2.223 . S
O392 C400 1.315 . S
Cd393 O392 2.223 . S
Cd393 O396 2.297 . S
Cd393 O397 2.439 . S
Cd393 O403 2.240 . S
Cd394 O395 2.240 . S
Cd394 O402 2.223 . S
Cd394 O404 2.297 . S
Cd394 O405 2.439 . S
O395 Cd394 2.240 . S
O395 C400 1.279 . S
O396 Cd393 2.297 . S
O396 C398 1.247 . S
O397 Cd393 2.439 . S
O397 C398 1.208 . S
C398 O396 1.247 . S
C398 O397 1.208 . S
C399 O404 1.247 . S
C399 O405 1.208 . S
C400 O392 1.315 . S
C400 O395 1.279 . S
C401 O402 1.315 . S
C401 O403 1.279 . S
O402 Cd394 2.223 . S
O402 C401 1.315 . S
O403 Cd393 2.240 . S
O403 C401 1.279 . S
O404 Cd394 2.297 . S
O404 C399 1.247 . S
O405 Cd394 2.439 . S
O405 C399 1.208 . S
O406 Cd407 2.223 . S
O406 C414 1.315 . S
Cd407 O406 2.223 . S
Cd407 O410 2.297 . S
Cd407 O411 2.439 . S
Cd407 O417 2.240 . S
Cd408 O409 2.240 . S
Cd408 O416 2.223 . S
Cd408 O418 2.297 . S
Cd408 O419 2.439 . S
O409 Cd408 2.240 . S
O409 C414 1.279 . S
O410 Cd407 2.297 . S
O410 C412 1.247 . S
O411 Cd407 2.439 . S
O411 C412 1.208 . S
C412 O410 1.247 . S
C412 O411 1.208 . S
C413 O418 1.247 . S
C413 O419 1.208 . S
C414 O406 1.315 . S
C414 O409 1.279 . S
C415 O416 1.315 . S
C415 O417 1.279 . S
O416 Cd408 2.223 . S
O416 C415 1.315 . S
O417 Cd407 2.240 . S
O417 C415 1.279 . S
O418 Cd408 2.297 . S
O418 C413 1.247 . S
O419 Cd408 2.439 . S
O419 C413 1.208 . S
O420 Cd421 2.223 . S
O420 C428 1.315 . S
Cd421 O420 2.223 . S
Cd421 O424 2.297 . S
Cd421 O425 2.439 . S
Cd421 O431 2.240 . S
Cd422 O423 2.240 . S
Cd422 O430 2.223 . S
Cd422 O432 2.297 . S
Cd422 O433 2.439 . S
O423 Cd422 2.240 . S
O423 C428 1.279 . S
O424 Cd421 2.297 . S
O424 C426 1.247 . S
O425 Cd421 2.439 . S
O425 C426 1.208 . S
C426 O424 1.247 . S
C426 O425 1.208 . S
C427 O432 1.247 . S
C427 O433 1.208 . S
C428 O420 1.315 . S
C428 O423 1.279 . S
C429 O430 1.315 . S
C429 O431 1.279 . S
O430 Cd422 2.223 . S
O430 C429 1.315 . S
O431 Cd421 2.240 . S
O431 C429 1.279 . S
O432 Cd422 2.297 . S
O432 C427 1.247 . S
O433 Cd422 2.439 . S
O433 C427 1.208 . S
O434 Cd435 2.223 . S
O434 C442 1.315 . S
Cd435 O434 2.223 . S
Cd435 O438 2.297 . S
Cd435 O439 2.439 . S
Cd435 O445 2.240 . S
Cd436 O437 2.240 . S
Cd436 O444 2.223 . S
Cd436 O446 2.297 . S
Cd436 O447 2.439 . S
O437 Cd436 2.240 . S
O437 C442 1.279 . S
O438 Cd435 2.297 . S
O438 C440 1.247 . S
O439 Cd435 2.439 . S
O439 C440 1.208 . S
C440 O438 1.247 . S
C440 O439 1.208 . S
C441 O446 1.247 . S
C441 O447 1.208 . S
C442 O434 1.315 . S
C442 O437 1.279 . S
C443 O444 1.315 . S
C443 O445 1.279 . S
O444 Cd436 2.223 . S
O444 C443 1.315 . S
O445 Cd435 2.240 . S
O445 C443 1.279 . S
O446 Cd436 2.297 . S
O446 C441 1.247 . S
O447 Cd436 2.439 . S
O447 C441 1.208 . S
O448 Cd449 2.223 . S
O448 C456 1.315 . S
Cd449 O448 2.223 . S
Cd449 O452 2.297 . S
Cd449 O453 2.439 . S
Cd449 O459 2.240 . S
Cd450 O451 2.240 . S
Cd450 O458 2.223 . S
Cd450 O460 2.297 . S
Cd450 O461 2.439 . S
O451 Cd450 2.240 . S
O451 C456 1.279 . S
O452 Cd449 2.297 . S
O452 C454 1.247 . S
O453 Cd449 2.439 . S
O453 C454 1.208 . S
C454 O452 1.247 . S
C454 O453 1.208 . S
C455 O460 1.247 . S
C455 O461 1.208 . S
C456 O448 1.315 . S
C456 O451 1.279 . S
C457 O458 1.315 . S
C457 O459 1.279 . S
O458 Cd450 2.223 . S
O458 C457 1.315 . S
O459 Cd449 2.240 . S
O459 C457 1.279 . S
O460 Cd450 2.297 . S
O460 C455 1.247 . S
O461 Cd450 2.439 . S
O461 C455 1.208 . S
O462 Cd463 2.223 . S
O462 C470 1.315 . S
Cd463 O462 2.223 . S
Cd463 O466 2.297 . S
Cd463 O467 2.439 . S
Cd463 O473 2.240 . S
Cd464 O465 2.240 . S
Cd464 O472 2.223 . S
Cd464 O474 2.297 . S
Cd464 O475 2.439 . S
O465 Cd464 2.240 . S
O465 C470 1.279 . S
O466 Cd463 2.297 . S
O466 C468 1.247 . S
O467 Cd463 2.439 . S
O467 C468 1.208 . S
C468 O466 1.247 . S
C468 O467 1.208 . S
C469 O474 1.247 . S
C469 O475 1.208 . S
C470 O462 1.315 . S
C470 O465 1.279 . S
C471 O472 1.315 . S
C471 O473 1.279 . S
O472 Cd464 2.223 . S
O472 C471 1.315 . S
O473 Cd463 2.240 . S
O473 C471 1.279 . S
O474 Cd464 2.297 . S
O474 C469 1.247 . S
O475 Cd464 2.439 . S
O475 C469 1.208 . S
O476 Cd477 2.223 . S
O476 C484 1.315 . S
Cd477 O476 2.223 . S
Cd477 O480 2.297 . S
Cd477 O481 2.439 . S
Cd477 O487 2.240 . S
Cd478 O479 2.240 . S
Cd478 O486 2.223 . S
Cd478 O488 2.297 . S
Cd478 O489 2.439 . S
O479 Cd478 2.240 . S
O479 C484 1.279 . S
O480 Cd477 2.297 . S
O480 C482 1.247 . S
O481 Cd477 2.439 . S
O481 C482 1.208 . S
C482 O480 1.247 . S
C482 O481 1.208 . S
C483 O488 1.247 . S
C483 O489 1.208 . S
C484 O476 1.315 . S
C484 O479 1.279 . S
C485 O486 1.315 . S
C485 O487 1.279 . S
O486 Cd478 2.223 . S
O486 C485 1.315 . S
O487 Cd477 2.240 . S
O487 C485 1.279 . S
O488 Cd478 2.297 . S
O488 C483 1.247 . S
O489 Cd478 2.439 . S
O489 C483 1.208 . S
O490 Cd491 2.223 . S
O490 C498 1.315 . S
Cd491 O490 2.223 . S
Cd491 O494 2.297 . S
Cd491 O495 2.439 . S
Cd491 O501 2.240 . S
Cd492 O493 2.240 . S
Cd492 O500 2.223 . S
Cd492 O502 2.297 . S
Cd492 O503 2.439 . S
O493 Cd492 2.240 . S
O493 C498 1.279 . S
O494 Cd491 2.297 . S
O494 C496 1.247 . S
O495 Cd491 2.439 . S
O495 C496 1.208 . S
C496 O494 1.247 . S
C496 O495 1.208 . S
C497 O502 1.247 . S
C497 O503 1.208 . S
C498 O490 1.315 . S
C498 O493 1.279 . S
C499 O500 1.315 . S
C499 O501 1.279 . S
O500 Cd492 2.223 . S
O500 C499 1.315 . S
O501 Cd491 2.240 . S
O501 C499 1.279 . S
O502 Cd492 2.297 . S
O502 C497 1.247 . S
O503 Cd492 2.439 . S
O503 C497 1.208 . S
C504 C505 1.391 . S
C504 C506 1.394 . S
C504 H520 0.931 . S
C505 C504 1.391 . S
C505 C509 1.376 . S
C506 C504 1.394 . S
C506 C507 1.369 . S
C506 C510 1.531 . S
C507 C506 1.369 . S
C507 C508 1.410 . S
C507 C515 1.503 . S
C508 C507 1.410 . S
C508 C509 1.392 . S
C508 C511 1.511 . S
C509 C505 1.376 . S
C509 C508 1.392 . S
C509 H521 0.929 . S
C510 C506 1.531 . S
C510 H522 0.960 . S
C510 H523 0.962 . S
C510 H524 0.960 . S
C511 C508 1.511 . S
C511 H525 0.961 . S
C511 H526 0.961 . S
C511 H527 0.961 . S
C512 C513 1.370 . S
C512 C514 1.363 . S
C512 H528 0.931 . S
C513 C512 1.370 . S
C513 C517 1.408 . S
C514 C512 1.363 . S
C514 C515 1.370 . S
C514 C518 1.524 . S
C515 C507 1.503 . S
C515 C514 1.370 . S
C515 C516 1.403 . S
C516 C515 1.403 . S
C516 C517 1.404 . S
C516 C519 1.539 . S
C517 C513 1.408 . S
C517 C516 1.404 . S
C517 H529 0.930 . S
C518 C514 1.524 . S
C518 H530 0.956 . S
C518 H531 0.961 . S
C518 H532 0.961 . S
C519 C516 1.539 . S
C519 H533 0.958 . S
C519 H534 0.961 . S
C519 H535 0.960 . S
H520 C504 0.931 . S
H521 C509 0.929 . S
H522 C510 0.960 . S
H523 C510 0.962 . S
H524 C510 0.960 . S
H525 C511 0.961 . S
H526 C511 0.961 . S
H527 C511 0.961 . S
H528 C512 0.931 . S
H529 C517 0.930 . S
H530 C518 0.956 . S
H531 C518 0.961 . S
H532 C518 0.961 . S
H533 C519 0.958 . S
H534 C519 0.961 . S
H535 C519 0.960 . S
C536 C537 1.391 . S
C536 C538 1.394 . S
C536 H552 0.931 . S
C537 C536 1.391 . S
C537 C541 1.376 . S
C538 C536 1.394 . S
C538 C539 1.369 . S
C538 C542 1.531 . S
C539 C538 1.369 . S
C539 C540 1.410 . S
C539 C547 1.503 . S
C540 C539 1.410 . S
C540 C541 1.392 . S
C540 C543 1.511 . S
C541 C537 1.376 . S
C541 C540 1.392 . S
C541 H553 0.929 . S
C542 C538 1.531 . S
C542 H554 0.960 . S
C542 H555 0.962 . S
C542 H556 0.960 . S
C543 C540 1.511 . S
C543 H557 0.961 . S
C543 H558 0.961 . S
C543 H559 0.961 . S
C544 C545 1.370 . S
C544 C546 1.363 . S
C544 H560 0.931 . S
C545 C544 1.370 . S
C545 C549 1.408 . S
C546 C544 1.363 . S
C546 C547 1.370 . S
C546 C550 1.524 . S
C547 C539 1.503 . S
C547 C546 1.370 . S
C547 C548 1.403 . S
C548 C547 1.403 . S
C548 C549 1.404 . S
C548 C551 1.539 . S
C549 C545 1.408 . S
C549 C548 1.404 . S
C549 H561 0.930 . S
C550 C546 1.524 . S
C550 H562 0.956 . S
C550 H563 0.961 . S
C550 H564 0.961 . S
C551 C548 1.539 . S
C551 H565 0.958 . S
C551 H566 0.961 . S
C551 H567 0.960 . S
H552 C536 0.931 . S
H553 C541 0.929 . S
H554 C542 0.960 . S
H555 C542 0.962 . S
H556 C542 0.960 . S
H557 C543 0.961 . S
H558 C543 0.961 . S
H559 C543 0.961 . S
H560 C544 0.931 . S
H561 C549 0.930 . S
H562 C550 0.956 . S
H563 C550 0.961 . S
H564 C550 0.961 . S
H565 C551 0.958 . S
H566 C551 0.961 . S
H567 C551 0.960 . S
C568 C569 1.391 . S
C568 C570 1.394 . S
C568 H584 0.931 . S
C569 C568 1.391 . S
C569 C573 1.376 . S
C570 C568 1.394 . S
C570 C571 1.369 . S
C570 C574 1.531 . S
C571 C570 1.369 . S
C571 C572 1.410 . S
C571 C579 1.503 . S
C572 C571 1.410 . S
C572 C573 1.392 . S
C572 C575 1.511 . S
C573 C569 1.376 . S
C573 C572 1.392 . S
C573 H585 0.929 . S
C574 C570 1.531 . S
C574 H586 0.960 . S
C574 H587 0.962 . S
C574 H588 0.960 . S
C575 C572 1.511 . S
C575 H589 0.961 . S
C575 H590 0.961 . S
C575 H591 0.961 . S
C576 C577 1.370 . S
C576 C578 1.363 . S
C576 H592 0.931 . S
C577 C576 1.370 . S
C577 C581 1.408 . S
C578 C576 1.363 . S
C578 C579 1.370 . S
C578 C582 1.524 . S
C579 C571 1.503 . S
C579 C578 1.370 . S
C579 C580 1.403 . S
C580 C579 1.403 . S
C580 C581 1.404 . S
C580 C583 1.539 . S
C581 C577 1.408 . S
C581 C580 1.404 . S
C581 H593 0.930 . S
C582 C578 1.524 . S
C582 H594 0.956 . S
C582 H595 0.961 . S
C582 H596 0.961 . S
C583 C580 1.539 . S
C583 H597 0.958 . S
C583 H598 0.961 . S
C583 H599 0.960 . S
H584 C568 0.931 . S
H585 C573 0.929 . S
H586 C574 0.960 . S
H587 C574 0.962 . S
H588 C574 0.960 . S
H589 C575 0.961 . S
H590 C575 0.961 . S
H591 C575 0.961 . S
H592 C576 0.931 . S
H593 C581 0.930 . S
H594 C582 0.956 . S
H595 C582 0.961 . S
H596 C582 0.961 . S
H597 C583 0.958 . S
H598 C583 0.961 . S
H599 C583 0.960 . S
C600 C601 1.391 . S
C600 C602 1.394 . S
C600 H616 0.931 . S
C601 C600 1.391 . S
C601 C605 1.376 . S
C602 C600 1.394 . S
C602 C603 1.369 . S
C602 C606 1.531 . S
C603 C602 1.369 . S
C603 C604 1.410 . S
C603 C611 1.503 . S
C604 C603 1.410 . S
C604 C605 1.392 . S
C604 C607 1.511 . S
C605 C601 1.376 . S
C605 C604 1.392 . S
C605 H617 0.929 . S
C606 C602 1.531 . S
C606 H618 0.960 . S
C606 H619 0.962 . S
C606 H620 0.960 . S
C607 C604 1.511 . S
C607 H621 0.961 . S
C607 H622 0.961 . S
C607 H623 0.961 . S
C608 C609 1.370 . S
C608 C610 1.363 . S
C608 H624 0.931 . S
C609 C608 1.370 . S
C609 C613 1.408 . S
C610 C608 1.363 . S
C610 C611 1.370 . S
C610 C614 1.524 . S
C611 C603 1.503 . S
C611 C610 1.370 . S
C611 C612 1.403 . S
C612 C611 1.403 . S
C612 C613 1.404 . S
C612 C615 1.539 . S
C613 C609 1.408 . S
C613 C612 1.404 . S
C613 H625 0.930 . S
C614 C610 1.524 . S
C614 H626 0.956 . S
C614 H627 0.961 . S
C614 H628 0.961 . S
C615 C612 1.539 . S
C615 H629 0.958 . S
C615 H630 0.961 . S
C615 H631 0.960 . S
H616 C600 0.931 . S
H617 C605 0.929 . S
H618 C606 0.960 . S
H619 C606 0.962 . S
H620 C606 0.960 . S
H621 C607 0.961 . S
H622 C607 0.961 . S
H623 C607 0.961 . S
H624 C608 0.931 . S
H625 C613 0.930 . S
H626 C614 0.956 . S
H627 C614 0.961 . S
H628 C614 0.961 . S
H629 C615 0.958 . S
H630 C615 0.961 . S
H631 C615 0.960 . S
C632 C633 1.391 . S
C632 C634 1.394 . S
C632 H648 0.931 . S
C633 C632 1.391 . S
C633 C637 1.376 . S
C634 C632 1.394 . S
C634 C635 1.369 . S
C634 C638 1.531 . S
C635 C634 1.369 . S
C635 C636 1.410 . S
C635 C643 1.503 . S
C636 C635 1.410 . S
C636 C637 1.392 . S
C636 C639 1.511 . S
C637 C633 1.376 . S
C637 C636 1.392 . S
C637 H649 0.929 . S
C638 C634 1.531 . S
C638 H650 0.960 . S
C638 H651 0.962 . S
C638 H652 0.960 . S
C639 C636 1.511 . S
C639 H653 0.961 . S
C639 H654 0.961 . S
C639 H655 0.961 . S
C640 C641 1.370 . S
C640 C642 1.363 . S
C640 H656 0.931 . S
C641 C640 1.370 . S
C641 C645 1.408 . S
C642 C640 1.363 . S
C642 C643 1.370 . S
C642 C646 1.524 . S
C643 C635 1.503 . S
C643 C642 1.370 . S
C643 C644 1.403 . S
C644 C643 1.403 . S
C644 C645 1.404 . S
C644 C647 1.539 . S
C645 C641 1.408 . S
C645 C644 1.404 . S
C645 H657 0.930 . S
C646 C642 1.524 . S
C646 H658 0.956 . S
C646 H659 0.961 . S
C646 H660 0.961 . S
C647 C644 1.539 . S
C647 H661 0.958 . S
C647 H662 0.961 . S
C647 H663 0.960 . S
H648 C632 0.931 . S
H649 C637 0.929 . S
H650 C638 0.960 . S
H651 C638 0.962 . S
H652 C638 0.960 . S
H653 C639 0.961 . S
H654 C639 0.961 . S
H655 C639 0.961 . S
H656 C640 0.931 . S
H657 C645 0.930 . S
H658 C646 0.956 . S
H659 C646 0.961 . S
H660 C646 0.961 . S
H661 C647 0.958 . S
H662 C647 0.961 . S
H663 C647 0.960 . S
C664 C665 1.391 . S
C664 C666 1.394 . S
C664 H680 0.931 . S
C665 C664 1.391 . S
C665 C669 1.376 . S
C666 C664 1.394 . S
C666 C667 1.369 . S
C666 C670 1.531 . S
C667 C666 1.369 . S
C667 C668 1.410 . S
C667 C675 1.503 . S
C668 C667 1.410 . S
C668 C669 1.392 . S
C668 C671 1.511 . S
C669 C665 1.376 . S
C669 C668 1.392 . S
C669 H681 0.929 . S
C670 C666 1.531 . S
C670 H682 0.960 . S
C670 H683 0.962 . S
C670 H684 0.960 . S
C671 C668 1.511 . S
C671 H685 0.961 . S
C671 H686 0.961 . S
C671 H687 0.961 . S
C672 C673 1.370 . S
C672 C674 1.363 . S
C672 H688 0.931 . S
C673 C672 1.370 . S
C673 C677 1.408 . S
C674 C672 1.363 . S
C674 C675 1.370 . S
C674 C678 1.524 . S
C675 C667 1.503 . S
C675 C674 1.370 . S
C675 C676 1.403 . S
C676 C675 1.403 . S
C676 C677 1.404 . S
C676 C679 1.539 . S
C677 C673 1.408 . S
C677 C676 1.404 . S
C677 H689 0.930 . S
C678 C674 1.524 . S
C678 H690 0.956 . S
C678 H691 0.961 . S
C678 H692 0.961 . S
C679 C676 1.539 . S
C679 H693 0.958 . S
C679 H694 0.961 . S
C679 H695 0.960 . S
H680 C664 0.931 . S
H681 C669 0.929 . S
H682 C670 0.960 . S
H683 C670 0.962 . S
H684 C670 0.960 . S
H685 C671 0.961 . S
H686 C671 0.961 . S
H687 C671 0.961 . S
H688 C672 0.931 . S
H689 C677 0.930 . S
H690 C678 0.956 . S
H691 C678 0.961 . S
H692 C678 0.961 . S
H693 C679 0.958 . S
H694 C679 0.961 . S
H695 C679 0.960 . S
C696 C697 1.391 . S
C696 C698 1.394 . S
C696 H712 0.931 . S
C697 C696 1.391 . S
C697 C701 1.376 . S
C698 C696 1.394 . S
C698 C699 1.369 . S
C698 C702 1.531 . S
C699 C698 1.369 . S
C699 C700 1.410 . S
C699 C707 1.503 . S
C700 C699 1.410 . S
C700 C701 1.392 . S
C700 C703 1.511 . S
C701 C697 1.376 . S
C701 C700 1.392 . S
C701 H713 0.929 . S
C702 C698 1.531 . S
C702 H714 0.960 . S
C702 H715 0.962 . S
C702 H716 0.960 . S
C703 C700 1.511 . S
C703 H717 0.961 . S
C703 H718 0.961 . S
C703 H719 0.961 . S
C704 C705 1.370 . S
C704 C706 1.363 . S
C704 H720 0.931 . S
C705 C704 1.370 . S
C705 C709 1.408 . S
C706 C704 1.363 . S
C706 C707 1.370 . S
C706 C710 1.524 . S
C707 C699 1.503 . S
C707 C706 1.370 . S
C707 C708 1.403 . S
C708 C707 1.403 . S
C708 C709 1.404 . S
C708 C711 1.539 . S
C709 C705 1.408 . S
C709 C708 1.404 . S
C709 H721 0.930 . S
C710 C706 1.524 . S
C710 H722 0.956 . S
C710 H723 0.961 . S
C710 H724 0.961 . S
C711 C708 1.539 . S
C711 H725 0.958 . S
C711 H726 0.961 . S
C711 H727 0.960 . S
H712 C696 0.931 . S
H713 C701 0.929 . S
H714 C702 0.960 . S
H715 C702 0.962 . S
H716 C702 0.960 . S
H717 C703 0.961 . S
H718 C703 0.961 . S
H719 C703 0.961 . S
H720 C704 0.931 . S
H721 C709 0.930 . S
H722 C710 0.956 . S
H723 C710 0.961 . S
H724 C710 0.961 . S
H725 C711 0.958 . S
H726 C711 0.961 . S
H727 C711 0.960 . S
C728 C729 1.391 . S
C728 C730 1.394 . S
C728 H744 0.931 . S
C729 C728 1.391 . S
C729 C733 1.376 . S
C730 C728 1.394 . S
C730 C731 1.369 . S
C730 C734 1.531 . S
C731 C730 1.369 . S
C731 C732 1.410 . S
C731 C739 1.503 . S
C732 C731 1.410 . S
C732 C733 1.392 . S
C732 C735 1.511 . S
C733 C729 1.376 . S
C733 C732 1.392 . S
C733 H745 0.929 . S
C734 C730 1.531 . S
C734 H746 0.960 . S
C734 H747 0.962 . S
C734 H748 0.960 . S
C735 C732 1.511 . S
C735 H749 0.961 . S
C735 H750 0.961 . S
C735 H751 0.961 . S
C736 C737 1.370 . S
C736 C738 1.363 . S
C736 H752 0.931 . S
C737 C736 1.370 . S
C737 C741 1.408 . S
C738 C736 1.363 . S
C738 C739 1.370 . S
C738 C742 1.524 . S
C739 C731 1.503 . S
C739 C738 1.370 . S
C739 C740 1.403 . S
C740 C739 1.403 . S
C740 C741 1.404 . S
C740 C743 1.539 . S
C741 C737 1.408 . S
C741 C740 1.404 . S
C741 H753 0.930 . S
C742 C738 1.524 . S
C742 H754 0.956 . S
C742 H755 0.961 . S
C742 H756 0.961 . S
C743 C740 1.539 . S
C743 H757 0.958 . S
C743 H758 0.961 . S
C743 H759 0.960 . S
H744 C728 0.931 . S
H745 C733 0.929 . S
H746 C734 0.960 . S
H747 C734 0.962 . S
H748 C734 0.960 . S
H749 C735 0.961 . S
H750 C735 0.961 . S
H751 C735 0.961 . S
H752 C736 0.931 . S
H753 C741 0.930 . S
H754 C742 0.956 . S
H755 C742 0.961 . S
H756 C742 0.961 . S
H757 C743 0.958 . S
H758 C743 0.961 . S
H759 C743 0.960 . S
C760 C761 1.391 . S
C760 C762 1.394 . S
C760 H776 0.931 . S
C761 C760 1.391 . S
C761 C765 1.376 . S
C762 C760 1.394 . S
C762 C763 1.369 . S
C762 C766 1.531 . S
C763 C762 1.369 . S
C763 C764 1.410 . S
C763 C771 1.503 . S
C764 C763 1.410 . S
C764 C765 1.392 . S
C764 C767 1.511 . S
C765 C761 1.376 . S
C765 C764 1.392 . S
C765 H777 0.929 . S
C766 C762 1.531 . S
C766 H778 0.960 . S
C766 H779 0.962 . S
C766 H780 0.960 . S
C767 C764 1.511 . S
C767 H781 0.961 . S
C767 H782 0.961 . S
C767 H783 0.961 . S
C768 C769 1.370 . S
C768 C770 1.363 . S
C768 H784 0.931 . S
C769 C768 1.370 . S
C769 C773 1.408 . S
C770 C768 1.363 . S
C770 C771 1.370 . S
C770 C774 1.524 . S
C771 C763 1.503 . S
C771 C770 1.370 . S
C771 C772 1.403 . S
C772 C771 1.403 . S
C772 C773 1.404 . S
C772 C775 1.539 . S
C773 C769 1.408 . S
C773 C772 1.404 . S
C773 H785 0.930 . S
C774 C770 1.524 . S
C774 H786 0.956 . S
C774 H787 0.961 . S
C774 H788 0.961 . S
C775 C772 1.539 . S
C775 H789 0.958 . S
C775 H790 0.961 . S
C775 H791 0.960 . S
H776 C760 0.931 . S
H777 C765 0.929 . S
H778 C766 0.960 . S
H779 C766 0.962 . S
H780 C766 0.960 . S
H781 C767 0.961 . S
H782 C767 0.961 . S
H783 C767 0.961 . S
H784 C768 0.931 . S
H785 C773 0.930 . S
H786 C774 0.956 . S
H787 C774 0.961 . S
H788 C774 0.961 . S
H789 C775 0.958 . S
H790 C775 0.961 . S
H791 C775 0.960 . S
C792 C793 1.391 . S
C792 C794 1.394 . S
C792 H808 0.931 . S
C793 C792 1.391 . S
C793 C797 1.376 . S
C794 C792 1.394 . S
C794 C795 1.369 . S
C794 C798 1.531 . S
C795 C794 1.369 . S
C795 C796 1.410 . S
C795 C803 1.503 . S
C796 C795 1.410 . S
C796 C797 1.392 . S
C796 C799 1.511 . S
C797 C793 1.376 . S
C797 C796 1.392 . S
C797 H809 0.929 . S
C798 C794 1.531 . S
C798 H810 0.960 . S
C798 H811 0.962 . S
C798 H812 0.960 . S
C799 C796 1.511 . S
C799 H813 0.961 . S
C799 H814 0.961 . S
C799 H815 0.961 . S
C800 C801 1.370 . S
C800 C802 1.363 . S
C800 H816 0.931 . S
C801 C800 1.370 . S
C801 C805 1.408 . S
C802 C800 1.363 . S
C802 C803 1.370 . S
C802 C806 1.524 . S
C803 C795 1.503 . S
C803 C802 1.370 . S
C803 C804 1.403 . S
C804 C803 1.403 . S
C804 C805 1.404 . S
C804 C807 1.539 . S
C805 C801 1.408 . S
C805 C804 1.404 . S
C805 H817 0.930 . S
C806 C802 1.524 . S
C806 H818 0.956 . S
C806 H819 0.961 . S
C806 H820 0.961 . S
C807 C804 1.539 . S
C807 H821 0.958 . S
C807 H822 0.961 . S
C807 H823 0.960 . S
H808 C792 0.931 . S
H809 C797 0.929 . S
H810 C798 0.960 . S
H811 C798 0.962 . S
H812 C798 0.960 . S
H813 C799 0.961 . S
H814 C799 0.961 . S
H815 C799 0.961 . S
H816 C800 0.931 . S
H817 C805 0.930 . S
H818 C806 0.956 . S
H819 C806 0.961 . S
H820 C806 0.961 . S
H821 C807 0.958 . S
H822 C807 0.961 . S
H823 C807 0.960 . S
C824 C825 1.391 . S
C824 C826 1.394 . S
C824 H840 0.931 . S
C825 C824 1.391 . S
C825 C829 1.376 . S
C826 C824 1.394 . S
C826 C827 1.369 . S
C826 C830 1.531 . S
C827 C826 1.369 . S
C827 C828 1.410 . S
C827 C835 1.503 . S
C828 C827 1.410 . S
C828 C829 1.392 . S
C828 C831 1.511 . S
C829 C825 1.376 . S
C829 C828 1.392 . S
C829 H841 0.929 . S
C830 C826 1.531 . S
C830 H842 0.960 . S
C830 H843 0.962 . S
C830 H844 0.960 . S
C831 C828 1.511 . S
C831 H845 0.961 . S
C831 H846 0.961 . S
C831 H847 0.961 . S
C832 C833 1.370 . S
C832 C834 1.363 . S
C832 H848 0.931 . S
C833 C832 1.370 . S
C833 C837 1.408 . S
C834 C832 1.363 . S
C834 C835 1.370 . S
C834 C838 1.524 . S
C835 C827 1.503 . S
C835 C834 1.370 . S
C835 C836 1.403 . S
C836 C835 1.403 . S
C836 C837 1.404 . S
C836 C839 1.539 . S
C837 C833 1.408 . S
C837 C836 1.404 . S
C837 H849 0.930 . S
C838 C834 1.524 . S
C838 H850 0.956 . S
C838 H851 0.961 . S
C838 H852 0.961 . S
C839 C836 1.539 . S
C839 H853 0.958 . S
C839 H854 0.961 . S
C839 H855 0.960 . S
H840 C824 0.931 . S
H841 C829 0.929 . S
H842 C830 0.960 . S
H843 C830 0.962 . S
H844 C830 0.960 . S
H845 C831 0.961 . S
H846 C831 0.961 . S
H847 C831 0.961 . S
H848 C832 0.931 . S
H849 C837 0.930 . S
H850 C838 0.956 . S
H851 C838 0.961 . S
H852 C838 0.961 . S
H853 C839 0.958 . S
H854 C839 0.961 . S
H855 C839 0.960 . S
C856 C857 1.391 . S
C856 C858 1.394 . S
C856 H872 0.931 . S
C857 C856 1.391 . S
C857 C861 1.376 . S
C858 C856 1.394 . S
C858 C859 1.369 . S
C858 C862 1.531 . S
C859 C858 1.369 . S
C859 C860 1.410 . S
C859 C867 1.503 . S
C860 C859 1.410 . S
C860 C861 1.392 . S
C860 C863 1.511 . S
C861 C857 1.376 . S
C861 C860 1.392 . S
C861 H873 0.929 . S
C862 C858 1.531 . S
C862 H874 0.960 . S
C862 H875 0.962 . S
C862 H876 0.960 . S
C863 C860 1.511 . S
C863 H877 0.961 . S
C863 H878 0.961 . S
C863 H879 0.961 . S
C864 C865 1.370 . S
C864 C866 1.363 . S
C864 H880 0.931 . S
C865 C864 1.370 . S
C865 C869 1.408 . S
C866 C864 1.363 . S
C866 C867 1.370 . S
C866 C870 1.524 . S
C867 C859 1.503 . S
C867 C866 1.370 . S
C867 C868 1.403 . S
C868 C867 1.403 . S
C868 C869 1.404 . S
C868 C871 1.539 . S
C869 C865 1.408 . S
C869 C868 1.404 . S
C869 H881 0.930 . S
C870 C866 1.524 . S
C870 H882 0.956 . S
C870 H883 0.961 . S
C870 H884 0.961 . S
C871 C868 1.539 . S
C871 H885 0.958 . S
C871 H886 0.961 . S
C871 H887 0.960 . S
H872 C856 0.931 . S
H873 C861 0.929 . S
H874 C862 0.960 . S
H875 C862 0.962 . S
H876 C862 0.960 . S
H877 C863 0.961 . S
H878 C863 0.961 . S
H879 C863 0.961 . S
H880 C864 0.931 . S
H881 C869 0.930 . S
H882 C870 0.956 . S
H883 C870 0.961 . S
H884 C870 0.961 . S
H885 C871 0.958 . S
H886 C871 0.961 . S
H887 C871 0.960 . S
C888 C889 1.391 . S
C888 C890 1.394 . S
C888 H904 0.931 . S
C889 C888 1.391 . S
C889 C893 1.376 . S
C890 C888 1.394 . S
C890 C891 1.369 . S
C890 C894 1.531 . S
C891 C890 1.369 . S
C891 C892 1.410 . S
C891 C899 1.503 1_455 S
C892 C891 1.410 . S
C892 C893 1.392 . S
C892 C895 1.511 1_455 S
C893 C889 1.376 . S
C893 C892 1.392 . S
C893 H905 0.929 . S
C894 C890 1.531 . S
C894 H906 0.960 . S
C894 H907 0.962 . S
C894 H908 0.960 . S
C895 C892 1.511 1_655 S
C895 H909 0.961 . S
C895 H910 0.961 . S
C895 H911 0.961 . S
C896 C897 1.370 . S
C896 C898 1.363 . S
C896 H912 0.931 . S
C897 C896 1.370 . S
C897 C901 1.408 . S
C898 C896 1.363 . S
C898 C899 1.370 . S
C898 C902 1.524 . S
C899 C891 1.503 1_655 S
C899 C898 1.370 . S
C899 C900 1.404 . S
C900 C899 1.404 . S
C900 C901 1.405 . S
C900 C903 1.536 1_655 S
C901 C897 1.408 . S
C901 C900 1.405 . S
C901 H913 0.930 . S
C902 C898 1.524 . S
C902 H914 0.956 . S
C902 H915 0.961 . S
C902 H916 0.961 . S
C903 C900 1.536 1_455 S
C903 H917 0.958 . S
C903 H918 0.961 . S
C903 H919 0.960 . S
H904 C888 0.931 . S
H905 C893 0.929 . S
H906 C894 0.960 . S
H907 C894 0.962 . S
H908 C894 0.960 . S
H909 C895 0.961 . S
H910 C895 0.961 . S
H911 C895 0.961 . S
H912 C896 0.931 . S
H913 C901 0.930 . S
H914 C902 0.956 . S
H915 C902 0.961 . S
H916 C902 0.961 . S
H917 C903 0.958 . S
H918 C903 0.961 . S
H919 C903 0.960 . S
C920 C921 1.391 . S
C920 C922 1.394 . S
C920 H936 0.931 . S
C921 C920 1.391 . S
C921 C925 1.376 . S
C922 C920 1.394 . S
C922 C923 1.369 . S
C922 C926 1.531 . S
C923 C922 1.369 . S
C923 C924 1.410 . S
C923 C931 1.503 . S
C924 C923 1.410 . S
C924 C925 1.392 . S
C924 C927 1.511 . S
C925 C921 1.376 . S
C925 C924 1.392 . S
C925 H937 0.929 . S
C926 C922 1.531 . S
C926 H938 0.960 . S
C926 H939 0.962 . S
C926 H940 0.960 . S
C927 C924 1.511 . S
C927 H941 0.961 . S
C927 H942 0.961 . S
C927 H943 0.961 . S
C928 C929 1.370 . S
C928 C930 1.363 . S
C928 H944 0.931 . S
C929 C928 1.370 . S
C929 C933 1.408 . S
C930 C928 1.363 . S
C930 C931 1.370 . S
C930 C934 1.524 . S
C931 C923 1.503 . S
C931 C930 1.370 . S
C931 C932 1.403 . S
C932 C931 1.403 . S
C932 C933 1.404 . S
C932 C935 1.539 . S
C933 C929 1.408 . S
C933 C932 1.404 . S
C933 H945 0.930 . S
C934 C930 1.524 . S
C934 H946 0.956 . S
C934 H947 0.961 . S
C934 H948 0.961 . S
C935 C932 1.539 . S
C935 H949 0.958 . S
C935 H950 0.961 . S
C935 H951 0.960 . S
H936 C920 0.931 . S
H937 C925 0.929 . S
H938 C926 0.960 . S
H939 C926 0.962 . S
H940 C926 0.960 . S
H941 C927 0.961 . S
H942 C927 0.961 . S
H943 C927 0.961 . S
H944 C928 0.931 . S
H945 C933 0.930 . S
H946 C934 0.956 . S
H947 C934 0.961 . S
H948 C934 0.961 . S
H949 C935 0.958 . S
H950 C935 0.961 . S
H951 C935 0.960 . S
C952 C953 1.391 . S
C952 C954 1.394 . S
C952 H968 0.931 . S
C953 C952 1.391 . S
C953 C957 1.376 . S
C954 C952 1.394 . S
C954 C955 1.369 . S
C954 C958 1.531 . S
C955 C954 1.369 . S
C955 C956 1.410 . S
C955 C963 1.503 1_545 S
C956 C955 1.410 . S
C956 C957 1.392 . S
C956 C959 1.511 . S
C957 C953 1.376 . S
C957 C956 1.392 . S
C957 H969 0.929 . S
C958 C954 1.531 . S
C958 H970 0.960 . S
C958 H971 0.962 . S
C958 H972 0.960 . S
C959 C956 1.511 . S
C959 H973 0.961 1_545 S
C959 H974 0.961 1_545 S
C959 H975 0.961 . S
C960 C961 1.370 . S
C960 C962 1.363 . S
C960 H976 0.931 . S
C961 C960 1.370 . S
C961 C965 1.408 . S
C962 C960 1.363 . S
C962 C963 1.370 . S
C962 C966 1.524 . S
C963 C955 1.503 1_565 S
C963 C962 1.370 . S
C963 C964 1.403 1_565 S
C964 C963 1.403 1_545 S
C964 C965 1.404 1_545 S
C964 C967 1.539 . S
C965 C961 1.408 . S
C965 C964 1.404 1_565 S
C965 H977 0.930 . S
C966 C962 1.524 . S
C966 H978 0.956 . S
C966 H979 0.961 . S
C966 H980 0.961 . S
C967 C964 1.539 . S
C967 H981 0.958 . S
C967 H982 0.961 . S
C967 H983 0.960 . S
H968 C952 0.931 . S
H969 C957 0.929 . S
H970 C958 0.960 . S
H971 C958 0.962 . S
H972 C958 0.960 . S
H973 C959 0.961 1_565 S
H974 C959 0.961 1_565 S
H975 C959 0.961 . S
H976 C960 0.931 . S
H977 C965 0.930 . S
H978 C966 0.956 . S
H979 C966 0.961 . S
H980 C966 0.961 . S
H981 C967 0.958 . S
H982 C967 0.961 . S
H983 C967 0.960 . S
C984 C985 1.391 . S
C984 C986 1.394 . S
C984 H1000 0.931 . S
C985 C984 1.391 . S
C985 C989 1.376 . S
C986 C984 1.394 . S
C986 C987 1.369 . S
C986 C990 1.481 1_554 S
C987 C986 1.369 . S
C987 C988 1.410 . S
C987 C995 1.503 1_564 S
C988 C987 1.410 . S
C988 C989 1.392 . S
C988 C991 1.511 1_565 S
C989 C985 1.376 . S
C989 C988 1.392 . S
C989 H1001 0.929 . S
C990 C986 1.481 1_556 S
C990 H1002 1.058 . S
C990 H1003 0.921 1_556 S
C990 H1004 0.960 . S
C991 C988 1.511 1_545 S
C991 H1005 0.961 . S
C991 H1006 0.961 . S
C991 H1007 0.928 1_554 S
C992 C993 1.370 . S
C992 C994 1.363 . S
C992 H1008 0.931 . S
C993 C992 1.370 . S
C993 C997 1.408 . S
C994 C992 1.363 . S
C994 C995 1.370 . S
C994 C998 1.524 1_556 S
C995 C987 1.503 1_546 S
C995 C994 1.370 . S
C995 C996 1.403 . S
C996 C995 1.403 . S
C996 C997 1.404 . S
C996 C999 1.539 1_545 S
C997 C993 1.408 . S
C997 C996 1.404 . S
C997 H1009 0.930 . S
C998 C994 1.524 1_554 S
C998 H1010 0.956 . S
C998 H1011 0.961 . S
C998 H1012 0.961 . S
C999 C996 1.539 1_565 S
C999 H1013 0.958 . S
C999 H1014 0.961 . S
C999 H1015 0.960 . S
H1000 C984 0.931 . S
H1001 C989 0.929 . S
H1002 C990 1.058 . S
H1003 C990 0.921 1_554 S
H1004 C990 0.960 . S
H1005 C991 0.961 . S
H1006 C991 0.961 . S
H1007 C991 0.928 1_556 S
H1008 C992 0.931 . S
H1009 C997 0.930 . S
H1010 C998 0.956 . S
H1011 C998 0.961 . S
H1012 C998 0.961 . S
H1013 C999 0.958 . S
H1014 C999 0.961 . S
H1015 C999 0.960 . S
C1016 C1017 1.391 . S
C1016 C1018 1.394 . S
C1016 H1032 0.931 . S
C1017 C1016 1.391 . S
C1017 C1021 1.376 . S
C1018 C1016 1.394 . S
C1018 C1019 1.369 . S
C1018 C1022 1.531 1_655 S
C1019 C1018 1.369 . S
C1019 C1020 1.410 . S
C1019 C1027 1.503 1_656 S
C1020 C1019 1.410 . S
C1020 C1021 1.392 . S
C1020 C1023 1.513 1_556 S
C1021 C1017 1.376 . S
C1021 C1020 1.392 . S
C1021 H1033 0.929 . S
C1022 C1018 1.531 1_455 S
C1022 H1034 0.960 1_556 S
C1022 H1035 0.962 . S
C1022 H1036 0.960 . S
C1023 C1020 1.513 1_554 S
C1023 H1037 0.964 1_554 S
C1023 H1038 0.960 . S
C1023 H1039 0.957 . S
C1024 C1025 1.370 . S
C1024 C1026 1.363 . S
C1024 H1040 0.931 . S
C1025 C1024 1.370 . S
C1025 C1029 1.408 . S
C1026 C1024 1.363 . S
C1026 C1027 1.370 . S
C1026 C1030 1.524 1_554 S
C1027 C1019 1.503 1_454 S
C1027 C1026 1.370 . S
C1027 C1028 1.403 . S
C1028 C1027 1.403 . S
C1028 C1029 1.404 . S
C1028 C1031 1.539 1_455 S
C1029 C1025 1.408 . S
C1029 C1028 1.404 . S
C1029 H1041 0.930 . S
C1030 C1026 1.524 1_556 S
C1030 H1042 0.956 . S
C1030 H1043 0.961 . S
C1030 H1044 0.961 . S
C1031 C1028 1.539 1_655 S
C1031 H1045 0.958 . S
C1031 H1046 0.961 . S
C1031 H1047 0.960 . S
H1032 C1016 0.931 . S
H1033 C1021 0.929 . S
H1034 C1022 0.960 1_554 S
H1035 C1022 0.962 . S
H1036 C1022 0.960 . S
H1037 C1023 0.964 1_556 S
H1038 C1023 0.960 . S
H1039 C1023 0.957 . S
H1040 C1024 0.931 . S
H1041 C1029 0.930 . S
H1042 C1030 0.956 . S
H1043 C1030 0.961 . S
H1044 C1030 0.961 . S
H1045 C1031 0.958 . S
H1046 C1031 0.961 . S
H1047 C1031 0.960 . S
C1048 C1049 1.391 . S
C1048 C1050 1.394 . S
C1048 H1064 0.931 . S
C1049 C1048 1.391 . S
C1049 C1053 1.376 . S
C1050 C1048 1.394 . S
C1050 C1051 1.369 . S
C1050 C1054 1.531 . S
C1051 C1050 1.369 . S
C1051 C1052 1.410 . S
C1051 C1059 1.503 1_556 S
C1052 C1051 1.410 . S
C1052 C1053 1.392 . S
C1052 C1055 1.511 . S
C1053 C1049 1.376 . S
C1053 C1052 1.392 . S
C1053 H1065 0.929 . S
C1054 C1050 1.531 . S
C1054 H1066 0.960 . S
C1054 H1067 0.962 . S
C1054 H1068 0.960 . S
C1055 C1052 1.511 . S
C1055 H1069 0.961 . S
C1055 H1070 0.961 1_556 S
C1055 H1071 0.961 . S
C1056 C1057 1.370 . S
C1056 C1058 1.363 . S
C1056 H1072 0.931 . S
C1057 C1056 1.370 . S
C1057 C1061 1.408 . S
C1058 C1056 1.363 . S
C1058 C1059 1.370 . S
C1058 C1062 1.524 . S
C1059 C1051 1.503 1_554 S
C1059 C1058 1.370 . S
C1059 C1060 1.423 . S
C1060 C1059 1.423 . S
C1060 C1061 1.473 . S
C1060 C1063 1.456 1_554 S
C1061 C1057 1.408 . S
C1061 C1060 1.473 . S
C1061 H1073 0.930 . S
C1062 C1058 1.524 . S
C1062 H1074 0.956 . S
C1062 H1075 0.961 . S
C1062 H1076 0.961 . S
C1063 C1060 1.456 1_556 S
C1063 H1077 0.958 . S
C1063 H1078 0.961 . S
C1063 H1079 0.960 . S
H1064 C1048 0.931 . S
H1065 C1053 0.929 . S
H1066 C1054 0.960 . S
H1067 C1054 0.962 . S
H1068 C1054 0.960 . S
H1069 C1055 0.961 . S
H1070 C1055 0.961 1_554 S
H1071 C1055 0.961 . S
H1072 C1056 0.931 . S
H1073 C1061 0.930 . S
H1074 C1062 0.956 . S
H1075 C1062 0.961 . S
H1076 C1062 0.961 . S
H1077 C1063 0.958 . S
H1078 C1063 0.961 . S
H1079 C1063 0.960 . S
C1080 C1081 1.391 . S
C1080 C1082 1.394 . S
C1080 H1096 0.931 . S
C1081 C1080 1.391 . S
C1081 C1085 1.376 . S
C1082 C1080 1.394 . S
C1082 C1083 1.369 . S
C1082 C1086 1.531 . S
C1083 C1082 1.369 . S
C1083 C1084 1.410 . S
C1083 C1091 1.503 . S
C1084 C1083 1.410 . S
C1084 C1085 1.392 . S
C1084 C1087 1.511 . S
C1085 C1081 1.376 . S
C1085 C1084 1.392 . S
C1085 H1097 0.929 1_565 S
C1086 C1082 1.531 . S
C1086 H1098 0.960 . S
C1086 H1099 0.962 . S
C1086 H1100 0.960 . S
C1087 C1084 1.511 . S
C1087 H1101 0.961 . S
C1087 H1102 0.961 . S
C1087 H1103 0.961 1_565 S
C1088 C1089 1.370 . S
C1088 C1090 1.363 . S
C1088 H1104 0.931 . S
C1089 C1088 1.370 . S
C1089 C1093 1.408 . S
C1090 C1088 1.363 . S
C1090 C1091 1.370 . S
C1090 C1094 1.524 . S
C1091 C1083 1.503 . S
C1091 C1090 1.370 . S
C1091 C1092 1.403 . S
C1092 C1091 1.403 . S
C1092 C1093 1.404 . S
C1092 C1095 1.539 1_565 S
C1093 C1089 1.408 . S
C1093 C1092 1.404 . S
C1093 H1105 0.930 . S
C1094 C1090 1.524 . S
C1094 H1106 0.956 . S
C1094 H1107 0.961 . S
C1094 H1108 0.961 . S
C1095 C1092 1.539 1_545 S
C1095 H1109 0.958 . S
C1095 H1110 0.961 . S
C1095 H1111 0.960 . S
H1096 C1080 0.931 . S
H1097 C1085 0.929 1_545 S
H1098 C1086 0.960 . S
H1099 C1086 0.962 . S
H1100 C1086 0.960 . S
H1101 C1087 0.961 . S
H1102 C1087 0.961 . S
H1103 C1087 0.961 1_545 S
H1104 C1088 0.931 . S
H1105 C1093 0.930 . S
H1106 C1094 0.956 . S
H1107 C1094 0.961 . S
H1108 C1094 0.961 . S
H1109 C1095 0.958 . S
H1110 C1095 0.961 . S
H1111 C1095 0.960 . S
C1112 C1113 1.391 . S
C1112 C1114 1.394 . S
C1112 H1128 0.931 . S
C1113 C1112 1.391 . S
C1113 C1117 1.376 . S
C1114 C1112 1.394 . S
C1114 C1115 1.369 . S
C1114 C1118 1.531 1_455 S
C1115 C1114 1.369 . S
C1115 C1116 1.410 . S
C1115 C1123 1.503 . S
C1116 C1115 1.410 . S
C1116 C1117 1.392 . S
C1116 C1119 1.511 . S
C1117 C1113 1.376 . S
C1117 C1116 1.392 . S
C1117 H1129 0.929 . S
C1118 C1114 1.531 1_655 S
C1118 H1130 0.960 . S
C1118 H1131 0.962 . S
C1118 H1132 0.960 . S
C1119 C1116 1.511 . S
C1119 H1133 0.961 . S
C1119 H1134 0.961 . S
C1119 H1135 0.961 . S
C1120 C1121 1.370 . S
C1120 C1122 1.363 . S
C1120 H1136 0.931 . S
C1121 C1120 1.370 . S
C1121 C1125 1.408 . S
C1122 C1120 1.363 . S
C1122 C1123 1.370 . S
C1122 C1126 1.524 . S
C1123 C1115 1.503 . S
C1123 C1122 1.370 . S
C1123 C1124 1.403 . S
C1124 C1123 1.403 . S
C1124 C1125 1.404 . S
C1124 C1127 1.539 . S
C1125 C1121 1.408 . S
C1125 C1124 1.404 . S
C1125 H1137 0.930 . S
C1126 C1122 1.524 . S
C1126 H1138 0.956 . S
C1126 H1139 0.961 . S
C1126 H1140 0.961 . S
C1127 C1124 1.539 . S
C1127 H1141 0.958 . S
C1127 H1142 0.961 . S
C1127 H1143 0.960 . S
H1128 C1112 0.931 . S
H1129 C1117 0.929 . S
H1130 C1118 0.960 . S
H1131 C1118 0.962 . S
H1132 C1118 0.960 . S
H1133 C1119 0.961 . S
H1134 C1119 0.961 . S
H1135 C1119 0.961 . S
H1136 C1120 0.931 . S
H1137 C1125 0.930 . S
H1138 C1126 0.956 . S
H1139 C1126 0.961 . S
H1140 C1126 0.961 . S
H1141 C1127 0.958 . S
H1142 C1127 0.961 . S
H1143 C1127 0.960 . S
C1144 C1145 1.391 . S
C1144 C1146 1.394 . S
C1144 H1160 0.931 . S
C1145 C1144 1.391 . S
C1145 C1149 1.376 . S
C1146 C1144 1.394 . S
C1146 C1147 1.369 . S
C1146 C1150 1.531 . S
C1147 C1146 1.369 . S
C1147 C1148 1.410 . S
C1147 C1155 1.503 . S
C1148 C1147 1.410 . S
C1148 C1149 1.392 . S
C1148 C1151 1.511 . S
C1149 C1145 1.376 . S
C1149 C1148 1.392 . S
C1149 H1161 0.929 . S
C1150 C1146 1.531 . S
C1150 H1162 0.960 . S
C1150 H1163 0.962 . S
C1150 H1164 0.960 . S
C1151 C1148 1.511 . S
C1151 H1165 0.961 . S
C1151 H1166 0.961 . S
C1151 H1167 0.961 . S
C1152 C1153 1.370 . S
C1152 C1154 1.363 . S
C1152 H1168 0.931 . S
C1153 C1152 1.370 . S
C1153 C1157 1.408 . S
C1154 C1152 1.363 . S
C1154 C1155 1.370 . S
C1154 C1158 1.524 . S
C1155 C1147 1.503 . S
C1155 C1154 1.370 . S
C1155 C1156 1.403 . S
C1156 C1155 1.403 . S
C1156 C1157 1.404 . S
C1156 C1159 1.539 . S
C1157 C1153 1.408 . S
C1157 C1156 1.404 . S
C1157 H1169 0.930 . S
C1158 C1154 1.524 . S
C1158 H1170 0.956 . S
C1158 H1171 0.961 . S
C1158 H1172 0.961 . S
C1159 C1156 1.539 . S
C1159 H1173 0.958 . S
C1159 H1174 0.961 . S
C1159 H1175 0.960 . S
H1160 C1144 0.931 . S
H1161 C1149 0.929 . S
H1162 C1150 0.960 . S
H1163 C1150 0.962 . S
H1164 C1150 0.960 . S
H1165 C1151 0.961 . S
H1166 C1151 0.961 . S
H1167 C1151 0.961 . S
H1168 C1152 0.931 . S
H1169 C1157 0.930 . S
H1170 C1158 0.956 . S
H1171 C1158 0.961 . S
H1172 C1158 0.961 . S
H1173 C1159 0.958 . S
H1174 C1159 0.961 . S
H1175 C1159 0.960 . S
C1176 C1177 1.391 . S
C1176 C1178 1.394 . S
C1176 H1192 0.931 . S
C1177 C1176 1.391 . S
C1177 C1181 1.376 . S
C1178 C1176 1.394 . S
C1178 C1179 1.369 . S
C1178 C1182 1.531 . S
C1179 C1178 1.369 . S
C1179 C1180 1.410 . S
C1179 C1187 1.503 . S
C1180 C1179 1.410 . S
C1180 C1181 1.392 . S
C1180 C1183 1.511 . S
C1181 C1177 1.376 . S
C1181 C1180 1.392 . S
C1181 H1193 0.929 . S
C1182 C1178 1.531 . S
C1182 H1194 0.960 . S
C1182 H1195 0.962 1_655 S
C1182 H1196 0.960 . S
C1183 C1180 1.511 . S
C1183 H1197 0.961 . S
C1183 H1198 0.961 . S
C1183 H1199 0.961 . S
C1184 C1185 1.370 . S
C1184 C1186 1.363 . S
C1184 H1200 0.931 1_655 S
C1185 C1184 1.370 . S
C1185 C1189 1.408 . S
C1186 C1184 1.363 . S
C1186 C1187 1.370 . S
C1186 C1190 1.524 . S
C1187 C1179 1.503 . S
C1187 C1186 1.370 . S
C1187 C1188 1.403 . S
C1188 C1187 1.403 . S
C1188 C1189 1.404 . S
C1188 C1191 1.539 . S
C1189 C1185 1.408 . S
C1189 C1188 1.404 . S
C1189 H1201 0.930 . S
C1190 C1186 1.524 . S
C1190 H1202 0.956 . S
C1190 H1203 0.961 . S
C1190 H1204 0.961 1_655 S
C1191 C1188 1.539 . S
C1191 H1205 0.958 . S
C1191 H1206 0.961 . S
C1191 H1207 0.960 . S
H1192 C1176 0.931 . S
H1193 C1181 0.929 . S
H1194 C1182 0.960 . S
H1195 C1182 0.962 1_455 S
H1196 C1182 0.960 . S
H1197 C1183 0.961 . S
H1198 C1183 0.961 . S
H1199 C1183 0.961 . S
H1200 C1184 0.931 1_455 S
H1201 C1189 0.930 . S
H1202 C1190 0.956 . S
H1203 C1190 0.961 . S
H1204 C1190 0.961 1_455 S
H1205 C1191 0.958 . S
H1206 C1191 0.961 . S
H1207 C1191 0.960 . S
C1208 C1209 1.391 . S
C1208 C1210 1.394 . S
C1208 H1224 0.931 . S
C1209 C1208 1.391 . S
C1209 C1213 1.376 . S
C1210 C1208 1.394 . S
C1210 C1211 1.369 . S
C1210 C1214 1.531 . S
C1211 C1210 1.369 . S
C1211 C1212 1.410 . S
C1211 C1219 1.503 . S
C1212 C1211 1.410 . S
C1212 C1213 1.392 . S
C1212 C1215 1.511 . S
C1213 C1209 1.376 . S
C1213 C1212 1.392 . S
C1213 H1225 0.929 . S
C1214 C1210 1.531 . S
C1214 H1226 0.960 . S
C1214 H1227 0.962 . S
C1214 H1228 0.960 . S
C1215 C1212 1.511 . S
C1215 H1229 0.961 . S
C1215 H1230 0.961 . S
C1215 H1231 0.961 . S
C1216 C1217 1.370 . S
C1216 C1218 1.363 . S
C1216 H1232 0.931 . S
C1217 C1216 1.370 . S
C1217 C1221 1.408 . S
C1218 C1216 1.363 . S
C1218 C1219 1.370 . S
C1218 C1222 1.524 . S
C1219 C1211 1.503 . S
C1219 C1218 1.370 . S
C1219 C1220 1.403 . S
C1220 C1219 1.403 . S
C1220 C1221 1.404 . S
C1220 C1223 1.539 . S
C1221 C1217 1.408 . S
C1221 C1220 1.404 . S
C1221 H1233 0.930 . S
C1222 C1218 1.524 . S
C1222 H1234 0.956 . S
C1222 H1235 0.961 . S
C1222 H1236 0.961 . S
C1223 C1220 1.539 . S
C1223 H1237 0.958 . S
C1223 H1238 0.961 . S
C1223 H1239 0.960 . S
H1224 C1208 0.931 . S
H1225 C1213 0.929 . S
H1226 C1214 0.960 . S
H1227 C1214 0.962 . S
H1228 C1214 0.960 . S
H1229 C1215 0.961 . S
H1230 C1215 0.961 . S
H1231 C1215 0.961 . S
H1232 C1216 0.931 . S
H1233 C1221 0.930 . S
H1234 C1222 0.956 . S
H1235 C1222 0.961 . S
H1236 C1222 0.961 . S
H1237 C1223 0.958 . S
H1238 C1223 0.961 . S
H1239 C1223 0.960 . S
C1240 C1241 1.391 . S
C1240 C1242 1.394 . S
C1240 H1256 0.931 . S
C1241 C1240 1.391 . S
C1241 C1245 1.376 . S
C1242 C1240 1.394 . S
C1242 C1243 1.369 . S
C1242 C1246 1.531 . S
C1243 C1242 1.369 . S
C1243 C1244 1.410 . S
C1243 C1251 1.503 . S
C1244 C1243 1.410 . S
C1244 C1245 1.392 . S
C1244 C1247 1.511 . S
C1245 C1241 1.376 . S
C1245 C1244 1.392 . S
C1245 H1257 0.929 . S
C1246 C1242 1.531 . S
C1246 H1258 0.960 . S
C1246 H1259 0.962 . S
C1246 H1260 0.960 . S
C1247 C1244 1.511 . S
C1247 H1261 0.961 . S
C1247 H1262 0.961 . S
C1247 H1263 0.961 . S
C1248 C1249 1.370 . S
C1248 C1250 1.363 . S
C1248 H1264 0.931 1_545 S
C1249 C1248 1.370 . S
C1249 C1253 1.408 . S
C1250 C1248 1.363 . S
C1250 C1251 1.370 . S
C1250 C1254 1.524 . S
C1251 C1243 1.503 . S
C1251 C1250 1.370 . S
C1251 C1252 1.403 . S
C1252 C1251 1.403 . S
C1252 C1253 1.404 . S
C1252 C1255 1.539 . S
C1253 C1249 1.408 . S
C1253 C1252 1.404 . S
C1253 H1265 0.930 . S
C1254 C1250 1.524 . S
C1254 H1266 0.956 . S
C1254 H1267 0.961 1_545 S
C1254 H1268 0.961 1_545 S
C1255 C1252 1.539 . S
C1255 H1269 0.958 . S
C1255 H1270 0.961 . S
C1255 H1271 0.960 . S
H1256 C1240 0.931 . S
H1257 C1245 0.929 . S
H1258 C1246 0.960 . S
H1259 C1246 0.962 . S
H1260 C1246 0.960 . S
H1261 C1247 0.961 . S
H1262 C1247 0.961 . S
H1263 C1247 0.961 . S
H1264 C1248 0.931 1_565 S
H1265 C1253 0.930 . S
H1266 C1254 0.956 . S
H1267 C1254 0.961 1_565 S
H1268 C1254 0.961 1_565 S
H1269 C1255 0.958 . S
H1270 C1255 0.961 . S
H1271 C1255 0.960 . S
C1272 C1273 1.391 . S
C1272 C1274 1.394 . S
C1272 H1288 0.931 . S
C1273 C1272 1.391 . S
C1273 C1277 1.376 1_545 S
C1274 C1272 1.394 . S
C1274 C1275 1.369 . S
C1274 C1278 1.531 . S
C1275 C1274 1.369 . S
C1275 C1276 1.410 . S
C1275 C1283 1.503 . S
C1276 C1275 1.410 . S
C1276 C1277 1.392 1_545 S
C1276 C1279 1.511 1_545 S
C1277 C1273 1.376 1_565 S
C1277 C1276 1.392 1_565 S
C1277 H1289 0.929 . S
C1278 C1274 1.531 . S
C1278 H1290 0.960 . S
C1278 H1291 0.962 . S
C1278 H1292 0.960 . S
C1279 C1276 1.511 1_565 S
C1279 H1293 0.961 . S
C1279 H1294 0.961 1_565 S
C1279 H1295 0.961 . S
C1280 C1281 1.370 . S
C1280 C1282 1.363 . S
C1280 H1296 0.931 . S
C1281 C1280 1.370 . S
C1281 C1285 1.408 . S
C1282 C1280 1.363 . S
C1282 C1283 1.370 . S
C1282 C1286 1.524 . S
C1283 C1275 1.503 . S
C1283 C1282 1.370 . S
C1283 C1284 1.403 . S
C1284 C1283 1.403 . S
C1284 C1285 1.404 . S
C1284 C1287 1.539 . S
C1285 C1281 1.408 . S
C1285 C1284 1.404 . S
C1285 H1297 0.930 . S
C1286 C1282 1.524 . S
C1286 H1298 0.956 . S
C1286 H1299 0.961 . S
C1286 H1300 0.961 . S
C1287 C1284 1.539 . S
C1287 H1301 0.958 . S
C1287 H1302 0.961 . S
C1287 H1303 0.997 . S
H1288 C1272 0.931 . S
H1289 C1277 0.929 . S
H1290 C1278 0.960 . S
H1291 C1278 0.962 . S
H1292 C1278 0.960 . S
H1293 C1279 0.961 . S
H1294 C1279 0.961 1_545 S
H1295 C1279 0.961 . S
H1296 C1280 0.931 . S
H1297 C1285 0.930 . S
H1298 C1286 0.956 . S
H1299 C1286 0.961 . S
H1300 C1286 0.961 . S
H1301 C1287 0.958 . S
H1302 C1287 0.961 . S
H1303 C1287 0.997 . S
C1304 C1305 1.391 . S
C1304 C1306 1.394 . S
C1304 H1320 0.931 . S
C1305 C1304 1.391 . S
C1305 C1309 1.376 . S
C1306 C1304 1.394 . S
C1306 C1307 1.369 . S
C1306 C1310 1.531 . S
C1307 C1306 1.369 . S
C1307 C1308 1.410 . S
C1307 C1315 1.503 . S
C1308 C1307 1.410 . S
C1308 C1309 1.392 . S
C1308 C1311 1.511 . S
C1309 C1305 1.376 . S
C1309 C1308 1.392 . S
C1309 H1321 0.929 . S
C1310 C1306 1.531 . S
C1310 H1322 0.960 . S
C1310 H1323 0.962 . S
C1310 H1324 0.960 . S
C1311 C1308 1.511 . S
C1311 H1325 0.961 . S
C1311 H1326 0.961 . S
C1311 H1327 0.961 1_655 S
C1312 C1313 1.370 . S
C1312 C1314 1.363 . S
C1312 H1328 0.931 . S
C1313 C1312 1.370 . S
C1313 C1317 1.408 1_655 S
C1314 C1312 1.363 . S
C1314 C1315 1.370 . S
C1314 C1318 1.524 . S
C1315 C1307 1.503 . S
C1315 C1314 1.370 . S
C1315 C1316 1.403 . S
C1316 C1315 1.403 . S
C1316 C1317 1.404 1_655 S
C1316 C1319 1.539 1_655 S
C1317 C1313 1.408 1_455 S
C1317 C1316 1.404 1_455 S
C1317 H1329 0.930 . S
C1318 C1314 1.524 . S
C1318 H1330 0.956 . S
C1318 H1331 0.961 . S
C1318 H1332 0.961 . S
C1319 C1316 1.539 1_455 S
C1319 H1333 0.958 . S
C1319 H1334 0.961 . S
C1319 H1335 0.960 . S
H1320 C1304 0.931 . S
H1321 C1309 0.929 . S
H1322 C1310 0.960 . S
H1323 C1310 0.962 . S
H1324 C1310 0.960 . S
H1325 C1311 0.961 . S
H1326 C1311 0.961 . S
H1327 C1311 0.961 1_455 S
H1328 C1312 0.931 . S
H1329 C1317 0.930 . S
H1330 C1318 0.956 . S
H1331 C1318 0.961 . S
H1332 C1318 0.961 . S
H1333 C1319 0.958 . S
H1334 C1319 0.961 . S
H1335 C1319 0.960 . S
C1336 C1337 1.391 . S
C1336 C1338 1.394 . S
C1336 H1352 0.931 . S
C1337 C1336 1.391 . S
C1337 C1341 1.376 . S
C1338 C1336 1.394 . S
C1338 C1339 1.369 . S
C1338 C1342 1.531 . S
C1339 C1338 1.369 . S
C1339 C1340 1.410 . S
C1339 C1347 1.503 . S
C1340 C1339 1.410 . S
C1340 C1341 1.392 . S
C1340 C1343 1.511 . S
C1341 C1337 1.376 . S
C1341 C1340 1.392 . S
C1341 H1353 0.929 . S
C1342 C1338 1.531 . S
C1342 H1354 0.960 . S
C1342 H1355 0.962 . S
C1342 H1356 0.960 . S
C1343 C1340 1.511 . S
C1343 H1357 0.961 . S
C1343 H1358 0.961 . S
C1343 H1359 0.961 . S
C1344 C1345 1.370 . S
C1344 C1346 1.363 . S
C1344 H1360 0.931 . S
C1345 C1344 1.370 . S
C1345 C1349 1.408 . S
C1346 C1344 1.363 . S
C1346 C1347 1.370 . S
C1346 C1350 1.524 . S
C1347 C1339 1.503 . S
C1347 C1346 1.370 . S
C1347 C1348 1.403 . S
C1348 C1347 1.403 . S
C1348 C1349 1.404 . S
C1348 C1351 1.539 . S
C1349 C1345 1.408 . S
C1349 C1348 1.404 . S
C1349 H1361 0.930 . S
C1350 C1346 1.524 . S
C1350 H1362 0.956 . S
C1350 H1363 0.961 . S
C1350 H1364 0.961 . S
C1351 C1348 1.539 . S
C1351 H1365 0.958 . S
C1351 H1366 0.961 . S
C1351 H1367 0.960 . S
H1352 C1336 0.931 . S
H1353 C1341 0.929 . S
H1354 C1342 0.960 . S
H1355 C1342 0.962 . S
H1356 C1342 0.960 . S
H1357 C1343 0.961 . S
H1358 C1343 0.961 . S
H1359 C1343 0.961 . S
H1360 C1344 0.931 . S
H1361 C1349 0.930 . S
H1362 C1350 0.956 . S
H1363 C1350 0.961 . S
H1364 C1350 0.961 . S
H1365 C1351 0.958 . S
H1366 C1351 0.961 . S
H1367 C1351 0.960 . S
C1368 C1369 1.391 . S
C1368 C1370 1.394 . S
C1368 H1384 0.931 . S
C1369 C1368 1.391 . S
C1369 C1373 1.376 . S
C1370 C1368 1.394 . S
C1370 C1371 1.369 . S
C1370 C1374 1.531 . S
C1371 C1370 1.369 . S
C1371 C1372 1.410 . S
C1371 C1379 1.503 . S
C1372 C1371 1.410 . S
C1372 C1373 1.392 . S
C1372 C1375 1.511 . S
C1373 C1369 1.376 . S
C1373 C1372 1.392 . S
C1373 H1385 0.929 . S
C1374 C1370 1.531 . S
C1374 H1386 0.960 . S
C1374 H1387 0.962 . S
C1374 H1388 0.960 . S
C1375 C1372 1.511 . S
C1375 H1389 0.961 . S
C1375 H1390 0.961 . S
C1375 H1391 0.961 . S
C1376 C1377 1.370 . S
C1376 C1378 1.363 . S
C1376 H1392 0.931 . S
C1377 C1376 1.370 . S
C1377 C1381 1.408 . S
C1378 C1376 1.363 . S
C1378 C1379 1.370 . S
C1378 C1382 1.524 . S
C1379 C1371 1.503 . S
C1379 C1378 1.370 . S
C1379 C1380 1.403 . S
C1380 C1379 1.403 . S
C1380 C1381 1.404 . S
C1380 C1383 1.539 . S
C1381 C1377 1.408 . S
C1381 C1380 1.404 . S
C1381 H1393 0.930 . S
C1382 C1378 1.524 . S
C1382 H1394 0.956 . S
C1382 H1395 0.961 1_455 S
C1382 H1396 0.961 1_455 S
C1383 C1380 1.539 . S
C1383 H1397 0.958 . S
C1383 H1398 0.961 . S
C1383 H1399 0.960 . S
H1384 C1368 0.931 . S
H1385 C1373 0.929 . S
H1386 C1374 0.960 . S
H1387 C1374 0.962 . S
H1388 C1374 0.960 . S
H1389 C1375 0.961 . S
H1390 C1375 0.961 . S
H1391 C1375 0.961 . S
H1392 C1376 0.931 . S
H1393 C1381 0.930 . S
H1394 C1382 0.956 . S
H1395 C1382 0.961 1_655 S
H1396 C1382 0.961 1_655 S
H1397 C1383 0.958 . S
H1398 C1383 0.961 . S
H1399 C1383 0.960 . S
C1400 C1401 1.391 . S
C1400 C1402 1.394 . S
C1400 H1416 0.931 . S
C1401 C1400 1.391 . S
C1401 C1405 1.376 . S
C1402 C1400 1.394 . S
C1402 C1403 1.369 . S
C1402 C1406 1.531 . S
C1403 C1402 1.369 . S
C1403 C1404 1.410 . S
C1403 C1411 1.503 . S
C1404 C1403 1.410 . S
C1404 C1405 1.392 . S
C1404 C1407 1.511 . S
C1405 C1401 1.376 . S
C1405 C1404 1.392 . S
C1405 H1417 0.929 . S
C1406 C1402 1.531 . S
C1406 H1418 0.960 . S
C1406 H1419 0.962 . S
C1406 H1420 0.960 . S
C1407 C1404 1.511 . S
C1407 H1421 0.961 . S
C1407 H1422 0.961 . S
C1407 H1423 0.961 . S
C1408 C1409 1.370 . S
C1408 C1410 1.363 . S
C1408 H1424 0.931 . S
C1409 C1408 1.370 . S
C1409 C1413 1.408 . S
C1410 C1408 1.363 . S
C1410 C1411 1.370 . S
C1410 C1414 1.524 . S
C1411 C1403 1.503 . S
C1411 C1410 1.370 . S
C1411 C1412 1.403 . S
C1412 C1411 1.403 . S
C1412 C1413 1.404 . S
C1412 C1415 1.539 . S
C1413 C1409 1.408 . S
C1413 C1412 1.404 . S
C1413 H1425 0.930 . S
C1414 C1410 1.524 . S
C1414 H1426 0.956 . S
C1414 H1427 0.961 . S
C1414 H1428 0.961 . S
C1415 C1412 1.539 . S
C1415 H1429 0.958 . S
C1415 H1430 0.961 . S
C1415 H1431 0.960 . S
H1416 C1400 0.931 . S
H1417 C1405 0.929 . S
H1418 C1406 0.960 . S
H1419 C1406 0.962 . S
H1420 C1406 0.960 . S
H1421 C1407 0.961 . S
H1422 C1407 0.961 . S
H1423 C1407 0.961 . S
H1424 C1408 0.931 . S
H1425 C1413 0.930 . S
H1426 C1414 0.956 . S
H1427 C1414 0.961 . S
H1428 C1414 0.961 . S
H1429 C1415 0.958 . S
H1430 C1415 0.961 . S
H1431 C1415 0.960 . S
C1432 C1433 1.391 1_545 S
C1432 C1434 1.394 1_545 S
C1432 H1448 0.931 . S
C1433 C1432 1.391 1_565 S
C1433 C1437 1.376 . S
C1434 C1432 1.394 1_565 S
C1434 C1435 1.369 . S
C1434 C1438 1.531 1_565 S
C1435 C1434 1.369 . S
C1435 C1436 1.410 . S
C1435 C1443 1.503 . S
C1436 C1435 1.410 . S
C1436 C1437 1.392 . S
C1436 C1439 1.511 . S
C1437 C1433 1.376 . S
C1437 C1436 1.392 . S
C1437 H1449 0.929 . S
C1438 C1434 1.531 1_545 S
C1438 H1450 0.960 . S
C1438 H1451 0.962 . S
C1438 H1452 0.960 . S
C1439 C1436 1.511 . S
C1439 H1453 0.961 . S
C1439 H1454 0.961 . S
C1439 H1455 0.961 . S
C1440 C1441 1.370 . S
C1440 C1442 1.363 . S
C1440 H1456 0.931 . S
C1441 C1440 1.370 . S
C1441 C1445 1.408 . S
C1442 C1440 1.363 . S
C1442 C1443 1.370 . S
C1442 C1446 1.524 . S
C1443 C1435 1.503 . S
C1443 C1442 1.370 . S
C1443 C1444 1.403 . S
C1444 C1443 1.403 . S
C1444 C1445 1.404 . S
C1444 C1447 1.539 . S
C1445 C1441 1.408 . S
C1445 C1444 1.404 . S
C1445 H1457 0.930 . S
C1446 C1442 1.524 . S
C1446 H1458 0.956 . S
C1446 H1459 0.961 . S
C1446 H1460 0.961 . S
C1447 C1444 1.539 . S
C1447 H1461 0.958 1_565 S
C1447 H1462 0.961 . S
C1447 H1463 0.960 . S
H1448 C1432 0.931 . S
H1449 C1437 0.929 . S
H1450 C1438 0.960 . S
H1451 C1438 0.962 . S
H1452 C1438 0.960 . S
H1453 C1439 0.961 . S
H1454 C1439 0.961 . S
H1455 C1439 0.961 . S
H1456 C1440 0.931 . S
H1457 C1445 0.930 . S
H1458 C1446 0.956 . S
H1459 C1446 0.961 . S
H1460 C1446 0.961 . S
H1461 C1447 0.958 1_545 S
H1462 C1447 0.961 . S
H1463 C1447 0.960 . S
C1464 C1465 1.391 . S
C1464 C1466 1.394 . S
C1464 H1480 0.931 . S
C1465 C1464 1.391 . S
C1465 C1469 1.376 . S
C1466 C1464 1.394 . S
C1466 C1467 1.369 . S
C1466 C1470 1.531 . S
C1467 C1466 1.369 . S
C1467 C1468 1.410 . S
C1467 C1475 1.503 . S
C1468 C1467 1.410 . S
C1468 C1469 1.392 . S
C1468 C1471 1.511 . S
C1469 C1465 1.376 . S
C1469 C1468 1.392 . S
C1469 H1481 0.929 . S
C1470 C1466 1.531 . S
C1470 H1482 0.960 . S
C1470 H1483 0.962 . S
C1470 H1484 0.960 . S
C1471 C1468 1.511 . S
C1471 H1485 0.961 . S
C1471 H1486 0.961 . S
C1471 H1487 0.961 . S
C1472 C1473 1.370 . S
C1472 C1474 1.363 . S
C1472 H1488 0.931 . S
C1473 C1472 1.370 . S
C1473 C1477 1.408 . S
C1474 C1472 1.363 . S
C1474 C1475 1.370 . S
C1474 C1478 1.524 . S
C1475 C1467 1.503 . S
C1475 C1474 1.370 . S
C1475 C1476 1.403 . S
C1476 C1475 1.403 . S
C1476 C1477 1.404 . S
C1476 C1479 1.539 . S
C1477 C1473 1.408 . S
C1477 C1476 1.404 . S
C1477 H1489 0.930 . S
C1478 C1474 1.524 . S
C1478 H1490 0.956 . S
C1478 H1491 0.961 . S
C1478 H1492 0.961 . S
C1479 C1476 1.539 . S
C1479 H1493 0.958 . S
C1479 H1494 0.961 . S
C1479 H1495 0.960 . S
H1480 C1464 0.931 . S
H1481 C1469 0.929 . S
H1482 C1470 0.960 . S
H1483 C1470 0.962 . S
H1484 C1470 0.960 . S
H1485 C1471 0.961 . S
H1486 C1471 0.961 . S
H1487 C1471 0.961 . S
H1488 C1472 0.931 . S
H1489 C1477 0.930 . S
H1490 C1478 0.956 . S
H1491 C1478 0.961 . S
H1492 C1478 0.961 . S
H1493 C1479 0.958 . S
H1494 C1479 0.961 . S
H1495 C1479 0.960 . S
C1496 C1497 1.391 . S
C1496 C1498 1.394 . S
C1496 H1512 0.931 . S
C1497 C1496 1.391 . S
C1497 C1501 1.376 . S
C1498 C1496 1.394 . S
C1498 C1499 1.369 . S
C1498 C1502 1.531 . S
C1499 C1498 1.369 . S
C1499 C1500 1.410 . S
C1499 C1507 1.503 1_545 S
C1500 C1499 1.410 . S
C1500 C1501 1.392 . S
C1500 C1503 1.511 . S
C1501 C1497 1.376 . S
C1501 C1500 1.392 . S
C1501 H1513 0.929 . S
C1502 C1498 1.531 . S
C1502 H1514 0.960 . S
C1502 H1515 0.962 . S
C1502 H1516 0.960 . S
C1503 C1500 1.511 . S
C1503 H1517 0.961 . S
C1503 H1518 0.961 1_545 S
C1503 H1519 0.961 . S
C1504 C1505 1.370 . S
C1504 C1506 1.363 . S
C1504 H1520 0.931 . S
C1505 C1504 1.370 . S
C1505 C1509 1.408 . S
C1506 C1504 1.363 . S
C1506 C1507 1.370 . S
C1506 C1510 1.524 . S
C1507 C1499 1.503 1_565 S
C1507 C1506 1.370 . S
C1507 C1508 1.403 . S
C1508 C1507 1.403 . S
C1508 C1509 1.404 . S
C1508 C1511 1.539 1_565 S
C1509 C1505 1.408 . S
C1509 C1508 1.404 . S
C1509 H1521 0.930 . S
C1510 C1506 1.524 . S
C1510 H1522 0.956 . S
C1510 H1523 0.961 . S
C1510 H1524 0.961 . S
C1511 C1508 1.539 1_545 S
C1511 H1525 0.958 . S
C1511 H1526 0.961 . S
C1511 H1527 0.960 . S
H1512 C1496 0.931 . S
H1513 C1501 0.929 . S
H1514 C1502 0.960 . S
H1515 C1502 0.962 . S
H1516 C1502 0.960 . S
H1517 C1503 0.961 . S
H1518 C1503 0.961 1_565 S
H1519 C1503 0.961 . S
H1520 C1504 0.931 . S
H1521 C1509 0.930 . S
H1522 C1510 0.956 . S
H1523 C1510 0.961 . S
H1524 C1510 0.961 . S
H1525 C1511 0.958 . S
H1526 C1511 0.961 . S
H1527 C1511 0.960 . S
C1528 C1529 1.391 . S
C1528 C1530 1.394 . S
C1528 H1544 0.931 . S
C1529 C1528 1.391 . S
C1529 C1533 1.376 . S
C1530 C1528 1.394 . S
C1530 C1531 1.369 . S
C1530 C1534 1.531 . S
C1531 C1530 1.369 . S
C1531 C1532 1.410 . S
C1531 C1539 1.503 1_655 S
C1532 C1531 1.410 . S
C1532 C1533 1.392 . S
C1532 C1535 1.511 1_655 S
C1533 C1529 1.376 . S
C1533 C1532 1.392 . S
C1533 H1545 0.929 . S
C1534 C1530 1.531 . S
C1534 H1546 0.960 . S
C1534 H1547 0.962 . S
C1534 H1548 0.960 . S
C1535 C1532 1.511 1_455 S
C1535 H1549 0.961 . S
C1535 H1550 0.961 . S
C1535 H1551 0.961 . S
C1536 C1537 1.370 . S
C1536 C1538 1.363 . S
C1536 H1552 0.931 . S
C1537 C1536 1.370 . S
C1537 C1541 1.408 . S
C1538 C1536 1.363 . S
C1538 C1539 1.370 . S
C1538 C1542 1.524 1_455 S
C1539 C1531 1.503 1_455 S
C1539 C1538 1.370 . S
C1539 C1540 1.403 . S
C1540 C1539 1.403 . S
C1540 C1541 1.404 . S
C1540 C1543 1.539 . S
C1541 C1537 1.408 . S
C1541 C1540 1.404 . S
C1541 H1553 0.930 . S
C1542 C1538 1.524 1_655 S
C1542 H1554 0.956 . S
C1542 H1555 0.961 . S
C1542 H1556 0.961 1_655 S
C1543 C1540 1.539 . S
C1543 H1557 0.958 . S
C1543 H1558 0.961 . S
C1543 H1559 0.960 . S
H1544 C1528 0.931 . S
H1545 C1533 0.929 . S
H1546 C1534 0.960 . S
H1547 C1534 0.962 . S
H1548 C1534 0.960 . S
H1549 C1535 0.961 . S
H1550 C1535 0.961 . S
H1551 C1535 0.961 . S
H1552 C1536 0.931 . S
H1553 C1541 0.930 . S
H1554 C1542 0.956 . S
H1555 C1542 0.961 . S
H1556 C1542 0.961 1_455 S
H1557 C1543 0.958 . S
H1558 C1543 0.961 . S
H1559 C1543 0.960 . S
C1560 C1561 1.391 . S
C1560 C1562 1.394 . S
C1560 H1576 0.931 . S
C1561 C1560 1.391 . S
C1561 C1565 1.376 . S
C1562 C1560 1.394 . S
C1562 C1563 1.369 . S
C1562 C1566 1.531 . S
C1563 C1562 1.369 . S
C1563 C1564 1.410 . S
C1563 C1571 1.503 . S
C1564 C1563 1.410 . S
C1564 C1565 1.392 . S
C1564 C1567 1.511 . S
C1565 C1561 1.376 . S
C1565 C1564 1.392 . S
C1565 H1577 0.929 . S
C1566 C1562 1.531 . S
C1566 H1578 0.960 . S
C1566 H1579 0.962 . S
C1566 H1580 0.960 . S
C1567 C1564 1.511 . S
C1567 H1581 0.961 . S
C1567 H1582 0.961 . S
C1567 H1583 0.961 . S
C1568 C1569 1.370 . S
C1568 C1570 1.363 . S
C1568 H1584 0.931 . S
C1569 C1568 1.370 . S
C1569 C1573 1.408 . S
C1570 C1568 1.363 . S
C1570 C1571 1.370 . S
C1570 C1574 1.524 . S
C1571 C1563 1.503 . S
C1571 C1570 1.370 . S
C1571 C1572 1.403 . S
C1572 C1571 1.403 . S
C1572 C1573 1.404 . S
C1572 C1575 1.539 . S
C1573 C1569 1.408 . S
C1573 C1572 1.404 . S
C1573 H1585 0.930 . S
C1574 C1570 1.524 . S
C1574 H1586 0.956 . S
C1574 H1587 0.961 . S
C1574 H1588 0.961 . S
C1575 C1572 1.539 . S
C1575 H1589 0.958 . S
C1575 H1590 0.961 . S
C1575 H1591 0.960 . S
H1576 C1560 0.931 . S
H1577 C1565 0.929 . S
H1578 C1566 0.960 . S
H1579 C1566 0.962 . S
H1580 C1566 0.960 . S
H1581 C1567 0.961 . S
H1582 C1567 0.961 . S
H1583 C1567 0.961 . S
H1584 C1568 0.931 . S
H1585 C1573 0.930 . S
H1586 C1574 0.956 . S
H1587 C1574 0.961 . S
H1588 C1574 0.961 . S
H1589 C1575 0.958 . S
H1590 C1575 0.961 . S
H1591 C1575 0.960 . S
C1592 C1593 1.391 . S
C1592 C1594 1.394 . S
C1592 H1608 0.931 . S
C1593 C1592 1.391 . S
C1593 C1597 1.376 . S
C1594 C1592 1.394 . S
C1594 C1595 1.369 . S
C1594 C1598 1.531 1_565 S
C1595 C1594 1.369 . S
C1595 C1596 1.410 . S
C1595 C1603 1.503 1_565 S
C1596 C1595 1.410 . S
C1596 C1597 1.392 . S
C1596 C1599 1.511 . S
C1597 C1593 1.376 . S
C1597 C1596 1.392 . S
C1597 H1609 0.929 . S
C1598 C1594 1.531 1_545 S
C1598 H1610 0.960 . S
C1598 H1611 0.962 . S
C1598 H1612 0.960 . S
C1599 C1596 1.511 . S
C1599 H1613 0.961 . S
C1599 H1614 0.961 . S
C1599 H1615 0.961 . S
C1600 C1601 1.370 . S
C1600 C1602 1.363 . S
C1600 H1616 0.931 . S
C1601 C1600 1.370 . S
C1601 C1605 1.408 . S
C1602 C1600 1.363 . S
C1602 C1603 1.370 . S
C1602 C1606 1.524 1_545 S
C1603 C1595 1.503 1_545 S
C1603 C1602 1.370 . S
C1603 C1604 1.403 . S
C1604 C1603 1.403 . S
C1604 C1605 1.404 . S
C1604 C1607 1.539 . S
C1605 C1601 1.408 . S
C1605 C1604 1.404 . S
C1605 H1617 0.930 . S
C1606 C1602 1.524 1_565 S
C1606 H1618 0.956 . S
C1606 H1619 0.961 . S
C1606 H1620 0.961 . S
C1607 C1604 1.539 . S
C1607 H1621 0.958 . S
C1607 H1622 0.961 . S
C1607 H1623 0.960 . S
H1608 C1592 0.931 . S
H1609 C1597 0.929 . S
H1610 C1598 0.960 . S
H1611 C1598 0.962 . S
H1612 C1598 0.960 . S
H1613 C1599 0.961 . S
H1614 C1599 0.961 . S
H1615 C1599 0.961 . S
H1616 C1600 0.931 . S
H1617 C1605 0.930 . S
H1618 C1606 0.956 . S
H1619 C1606 0.961 . S
H1620 C1606 0.961 . S
H1621 C1607 0.958 . S
H1622 C1607 0.961 . S
H1623 C1607 0.960 . S
C1624 C1625 1.391 . S
C1624 C1626 1.394 . S
C1624 H1640 0.931 . S
C1625 C1624 1.391 . S
C1625 C1629 1.376 . S
C1626 C1624 1.394 . S
C1626 C1627 1.369 . S
C1626 C1630 1.531 . S
C1627 C1626 1.369 . S
C1627 C1628 1.410 . S
C1627 C1635 1.503 1_655 S
C1628 C1627 1.410 . S
C1628 C1629 1.392 . S
C1628 C1631 1.511 1_655 S
C1629 C1625 1.376 . S
C1629 C1628 1.392 . S
C1629 H1641 0.929 . S
C1630 C1626 1.531 . S
C1630 H1642 0.960 . S
C1630 H1643 0.962 . S
C1630 H1644 0.960 . S
C1631 C1628 1.511 1_455 S
C1631 H1645 0.961 . S
C1631 H1646 0.961 . S
C1631 H1647 0.961 . S
C1632 C1633 1.370 . S
C1632 C1634 1.363 . S
C1632 H1648 0.931 . S
C1633 C1632 1.370 . S
C1633 C1637 1.408 . S
C1634 C1632 1.363 . S
C1634 C1635 1.370 . S
C1634 C1638 1.524 1_455 S
C1635 C1627 1.503 1_455 S
C1635 C1634 1.370 . S
C1635 C1636 1.403 . S
C1636 C1635 1.403 . S
C1636 C1637 1.404 . S
C1636 C1639 1.539 . S
C1637 C1633 1.408 . S
C1637 C1636 1.404 . S
C1637 H1649 0.930 . S
C1638 C1634 1.524 1_655 S
C1638 H1650 0.956 . S
C1638 H1651 0.961 . S
C1638 H1652 0.961 . S
C1639 C1636 1.539 . S
C1639 H1653 0.958 . S
C1639 H1654 0.961 . S
C1639 H1655 0.960 . S
H1640 C1624 0.931 . S
H1641 C1629 0.929 . S
H1642 C1630 0.960 . S
H1643 C1630 0.962 . S
H1644 C1630 0.960 . S
H1645 C1631 0.961 . S
H1646 C1631 0.961 . S
H1647 C1631 0.961 . S
H1648 C1632 0.931 . S
H1649 C1637 0.930 . S
H1650 C1638 0.956 . S
H1651 C1638 0.961 . S
H1652 C1638 0.961 . S
H1653 C1639 0.958 . S
H1654 C1639 0.961 . S
H1655 C1639 0.960 . S
C1656 C1657 1.391 . S
C1656 C1658 1.394 . S
C1656 H1672 0.931 . S
C1657 C1656 1.391 . S
C1657 C1661 1.376 . S
C1658 C1656 1.394 . S
C1658 C1659 1.369 . S
C1658 C1662 1.531 . S
C1659 C1658 1.369 . S
C1659 C1660 1.410 . S
C1659 C1667 1.503 . S
C1660 C1659 1.410 . S
C1660 C1661 1.392 . S
C1660 C1663 1.511 . S
C1661 C1657 1.376 . S
C1661 C1660 1.392 . S
C1661 H1673 0.929 . S
C1662 C1658 1.531 . S
C1662 H1674 0.960 . S
C1662 H1675 0.962 . S
C1662 H1676 0.960 . S
C1663 C1660 1.511 . S
C1663 H1677 0.961 . S
C1663 H1678 0.961 . S
C1663 H1679 0.961 . S
C1664 C1665 1.370 . S
C1664 C1666 1.363 . S
C1664 H1680 0.931 . S
C1665 C1664 1.370 . S
C1665 C1669 1.408 . S
C1666 C1664 1.363 . S
C1666 C1667 1.370 . S
C1666 C1670 1.524 . S
C1667 C1659 1.503 . S
C1667 C1666 1.370 . S
C1667 C1668 1.403 . S
C1668 C1667 1.403 . S
C1668 C1669 1.404 . S
C1668 C1671 1.539 . S
C1669 C1665 1.408 . S
C1669 C1668 1.404 . S
C1669 H1681 0.930 . S
C1670 C1666 1.524 . S
C1670 H1682 0.956 . S
C1670 H1683 0.961 . S
C1670 H1684 0.961 . S
C1671 C1668 1.539 . S
C1671 H1685 0.958 . S
C1671 H1686 0.961 . S
C1671 H1687 0.960 . S
H1672 C1656 0.931 . S
H1673 C1661 0.929 . S
H1674 C1662 0.960 . S
H1675 C1662 0.962 . S
H1676 C1662 0.960 . S
H1677 C1663 0.961 . S
H1678 C1663 0.961 . S
H1679 C1663 0.961 . S
H1680 C1664 0.931 . S
H1681 C1669 0.930 . S
H1682 C1670 0.956 . S
H1683 C1670 0.961 . S
H1684 C1670 0.961 . S
H1685 C1671 0.958 . S
H1686 C1671 0.961 . S
H1687 C1671 0.960 . S
C1688 C1689 1.391 . S
C1688 C1690 1.394 . S
C1688 H1704 0.931 . S
C1689 C1688 1.391 . S
C1689 C1693 1.376 . S
C1690 C1688 1.394 . S
C1690 C1691 1.369 1_545 S
C1690 C1694 1.531 . S
C1691 C1690 1.369 1_565 S
C1691 C1692 1.410 1_565 S
C1691 C1699 1.503 . S
C1692 C1691 1.410 1_545 S
C1692 C1693 1.392 . S
C1692 C1695 1.511 1_545 S
C1693 C1689 1.376 . S
C1693 C1692 1.392 . S
C1693 H1705 0.929 . S
C1694 C1690 1.531 . S
C1694 H1706 0.960 1_545 S
C1694 H1707 0.962 . S
C1694 H1708 0.960 . S
C1695 C1692 1.511 1_565 S
C1695 H1709 0.961 . S
C1695 H1710 0.961 . S
C1695 H1711 0.961 . S
C1696 C1697 1.370 . S
C1696 C1698 1.363 . S
C1696 H1712 0.931 . S
C1697 C1696 1.370 . S
C1697 C1701 1.408 . S
C1698 C1696 1.363 . S
C1698 C1699 1.370 . S
C1698 C1702 1.524 . S
C1699 C1691 1.503 . S
C1699 C1698 1.370 . S
C1699 C1700 1.403 . S
C1700 C1699 1.403 . S
C1700 C1701 1.404 . S
C1700 C1703 1.539 . S
C1701 C1697 1.408 . S
C1701 C1700 1.404 . S
C1701 H1713 0.930 . S
C1702 C1698 1.524 . S
C1702 H1714 0.956 . S
C1702 H1715 0.961 . S
C1702 H1716 0.961 . S
C1703 C1700 1.539 . S
C1703 H1717 0.958 . S
C1703 H1718 0.961 . S
C1703 H1719 0.960 . S
H1704 C1688 0.931 . S
H1705 C1693 0.929 . S
H1706 C1694 0.960 1_565 S
H1707 C1694 0.962 . S
H1708 C1694 0.960 . S
H1709 C1695 0.961 . S
H1710 C1695 0.961 . S
H1711 C1695 0.961 . S
H1712 C1696 0.931 . S
H1713 C1701 0.930 . S
H1714 C1702 0.956 . S
H1715 C1702 0.961 . S
H1716 C1702 0.961 . S
H1717 C1703 0.958 . S
H1718 C1703 0.961 . S
H1719 C1703 0.960 . S
C1720 C1721 1.391 . S
C1720 C1722 1.394 . S
C1720 H1736 0.931 . S
C1721 C1720 1.391 . S
C1721 C1725 1.376 . S
C1722 C1720 1.394 . S
C1722 C1723 1.369 1_655 S
C1722 C1726 1.531 1_655 S
C1723 C1722 1.369 1_455 S
C1723 C1724 1.410 1_455 S
C1723 C1731 1.503 . S
C1724 C1723 1.410 1_655 S
C1724 C1725 1.392 . S
C1724 C1727 1.513 . S
C1725 C1721 1.376 . S
C1725 C1724 1.392 . S
C1725 H1737 0.929 . S
C1726 C1722 1.531 1_455 S
C1726 H1738 0.960 . S
C1726 H1739 0.962 . S
C1726 H1740 0.961 . S
C1727 C1724 1.513 . S
C1727 H1741 0.981 . S
C1727 H1742 0.950 1_655 S
C1727 H1743 0.950 1_655 S
C1728 C1729 1.370 . S
C1728 C1730 1.363 . S
C1728 H1744 0.931 . S
C1729 C1728 1.370 . S
C1729 C1733 1.408 . S
C1730 C1728 1.363 . S
C1730 C1731 1.370 . S
C1730 C1734 1.524 . S
C1731 C1723 1.503 . S
C1731 C1730 1.370 . S
C1731 C1732 1.403 . S
C1732 C1731 1.403 . S
C1732 C1733 1.404 . S
C1732 C1735 1.539 . S
C1733 C1729 1.408 . S
C1733 C1732 1.404 . S
C1733 H1745 0.930 . S
C1734 C1730 1.524 . S
C1734 H1746 0.956 . S
C1734 H1747 0.961 . S
C1734 H1748 0.961 . S
C1735 C1732 1.539 . S
C1735 H1749 0.958 . S
C1735 H1750 0.961 . S
C1735 H1751 0.960 . S
H1736 C1720 0.931 . S
H1737 C1725 0.929 . S
H1738 C1726 0.960 . S
H1739 C1726 0.962 . S
H1740 C1726 0.961 . S
H1741 C1727 0.981 . S
H1742 C1727 0.950 1_455 S
H1743 C1727 0.950 1_455 S
H1744 C1728 0.931 . S
H1745 C1733 0.930 . S
H1746 C1734 0.956 . S
H1747 C1734 0.961 . S
H1748 C1734 0.961 . S
H1749 C1735 0.958 . S
H1750 C1735 0.961 . S
H1751 C1735 0.960 . S
C1752 C1753 1.391 . S
C1752 C1754 1.394 . S
C1752 H1768 0.931 . S
C1753 C1752 1.391 . S
C1753 C1757 1.376 . S
C1754 C1752 1.394 . S
C1754 C1755 1.369 . S
C1754 C1758 1.531 . S
C1755 C1754 1.369 . S
C1755 C1756 1.410 . S
C1755 C1763 1.503 . S
C1756 C1755 1.410 . S
C1756 C1757 1.392 . S
C1756 C1759 1.511 . S
C1757 C1753 1.376 . S
C1757 C1756 1.392 . S
C1757 H1769 0.929 . S
C1758 C1754 1.531 . S
C1758 H1770 0.960 . S
C1758 H1771 0.962 . S
C1758 H1772 0.960 . S
C1759 C1756 1.511 . S
C1759 H1773 0.961 . S
C1759 H1774 0.961 . S
C1759 H1775 0.961 . S
C1760 C1761 1.370 . S
C1760 C1762 1.363 . S
C1760 H1776 0.931 . S
C1761 C1760 1.370 . S
C1761 C1765 1.408 . S
C1762 C1760 1.363 . S
C1762 C1763 1.370 . S
C1762 C1766 1.524 . S
C1763 C1755 1.503 . S
C1763 C1762 1.370 . S
C1763 C1764 1.403 . S
C1764 C1763 1.403 . S
C1764 C1765 1.404 . S
C1764 C1767 1.539 . S
C1765 C1761 1.408 . S
C1765 C1764 1.404 . S
C1765 H1777 0.930 . S
C1766 C1762 1.524 . S
C1766 H1778 0.956 . S
C1766 H1779 0.961 . S
C1766 H1780 0.961 . S
C1767 C1764 1.539 . S
C1767 H1781 0.958 . S
C1767 H1782 0.961 . S
C1767 H1783 0.960 . S
H1768 C1752 0.931 . S
H1769 C1757 0.929 . S
H1770 C1758 0.960 . S
H1771 C1758 0.962 . S
H1772 C1758 0.960 . S
H1773 C1759 0.961 . S
H1774 C1759 0.961 . S
H1775 C1759 0.961 . S
H1776 C1760 0.931 . S
H1777 C1765 0.930 . S
H1778 C1766 0.956 . S
H1779 C1766 0.961 . S
H1780 C1766 0.961 . S
H1781 C1767 0.958 . S
H1782 C1767 0.961 . S
H1783 C1767 0.960 . S
C1784 C1785 1.391 . S
C1784 C1786 1.394 . S
C1784 H1800 0.931 . S
C1785 C1784 1.391 . S
C1785 C1789 1.376 . S
C1786 C1784 1.394 . S
C1786 C1787 1.369 . S
C1786 C1790 1.531 . S
C1787 C1786 1.369 . S
C1787 C1788 1.410 . S
C1787 C1795 1.503 . S
C1788 C1787 1.410 . S
C1788 C1789 1.392 . S
C1788 C1791 1.511 . S
C1789 C1785 1.376 . S
C1789 C1788 1.392 . S
C1789 H1801 0.929 . S
C1790 C1786 1.531 . S
C1790 H1802 0.960 . S
C1790 H1803 0.962 . S
C1790 H1804 0.960 . S
C1791 C1788 1.511 . S
C1791 H1805 0.961 . S
C1791 H1806 0.961 . S
C1791 H1807 0.961 . S
C1792 C1793 1.370 . S
C1792 C1794 1.363 . S
C1792 H1808 0.931 . S
C1793 C1792 1.370 . S
C1793 C1797 1.408 . S
C1794 C1792 1.363 . S
C1794 C1795 1.370 1_565 S
C1794 C1798 1.524 1_565 S
C1795 C1787 1.503 . S
C1795 C1794 1.370 1_545 S
C1795 C1796 1.403 1_545 S
C1796 C1795 1.403 1_565 S
C1796 C1797 1.404 . S
C1796 C1799 1.539 . S
C1797 C1793 1.408 . S
C1797 C1796 1.404 . S
C1797 H1809 0.930 . S
C1798 C1794 1.524 1_545 S
C1798 H1810 0.956 . S
C1798 H1811 0.961 . S
C1798 H1812 0.961 . S
C1799 C1796 1.539 . S
C1799 H1813 0.958 . S
C1799 H1814 0.961 . S
C1799 H1815 0.960 1_565 S
H1800 C1784 0.931 . S
H1801 C1789 0.929 . S
H1802 C1790 0.960 . S
H1803 C1790 0.962 . S
H1804 C1790 0.960 . S
H1805 C1791 0.961 . S
H1806 C1791 0.961 . S
H1807 C1791 0.961 . S
H1808 C1792 0.931 . S
H1809 C1797 0.930 . S
H1810 C1798 0.956 . S
H1811 C1798 0.961 . S
H1812 C1798 0.961 . S
H1813 C1799 0.958 . S
H1814 C1799 0.961 . S
H1815 C1799 0.960 1_545 S
C1816 C1817 1.391 . S
C1816 C1818 1.394 . S
C1816 H1832 0.931 . S
C1817 C1816 1.391 . S
C1817 C1821 1.376 . S
C1818 C1816 1.394 . S
C1818 C1819 1.369 1_455 S
C1818 C1822 1.531 1_455 S
C1819 C1818 1.369 1_655 S
C1819 C1820 1.410 1_655 S
C1819 C1827 1.503 . S
C1820 C1819 1.410 1_455 S
C1820 C1821 1.392 . S
C1820 C1823 1.500 1_455 S
C1821 C1817 1.376 . S
C1821 C1820 1.392 . S
C1821 H1833 0.929 . S
C1822 C1818 1.531 1_655 S
C1822 H1834 0.960 . S
C1822 H1835 0.962 . S
C1822 H1836 0.960 1_655 S
C1823 C1820 1.500 1_655 S
C1823 H1837 0.943 1_655 S
C1823 H1838 0.979 . S
C1823 H1839 0.974 1_655 S
C1824 C1825 1.370 . S
C1824 C1826 1.363 . S
C1824 H1840 0.931 . S
C1825 C1824 1.370 . S
C1825 C1829 1.408 . S
C1826 C1824 1.363 . S
C1826 C1827 1.370 . S
C1826 C1830 1.524 . S
C1827 C1819 1.503 . S
C1827 C1826 1.370 . S
C1827 C1828 1.403 . S
C1828 C1827 1.403 . S
C1828 C1829 1.404 . S
C1828 C1831 1.539 . S
C1829 C1825 1.408 . S
C1829 C1828 1.404 . S
C1829 H1841 0.930 . S
C1830 C1826 1.524 . S
C1830 H1842 0.956 . S
C1830 H1843 0.961 . S
C1830 H1844 0.961 . S
C1831 C1828 1.539 . S
C1831 H1845 0.958 . S
C1831 H1846 0.961 . S
C1831 H1847 0.960 . S
H1832 C1816 0.931 . S
H1833 C1821 0.929 . S
H1834 C1822 0.960 . S
H1835 C1822 0.962 . S
H1836 C1822 0.960 1_455 S
H1837 C1823 0.943 1_455 S
H1838 C1823 0.979 . S
H1839 C1823 0.974 1_455 S
H1840 C1824 0.931 . S
H1841 C1829 0.930 . S
H1842 C1830 0.956 . S
H1843 C1830 0.961 . S
H1844 C1830 0.961 . S
H1845 C1831 0.958 . S
H1846 C1831 0.961 . S
H1847 C1831 0.960 . S
C1848 C1849 1.391 . S
C1848 C1850 1.394 . S
C1848 H1864 0.931 . S
C1849 C1848 1.391 . S
C1849 C1853 1.376 . S
C1850 C1848 1.394 . S
C1850 C1851 1.369 . S
C1850 C1854 1.531 . S
C1851 C1850 1.369 . S
C1851 C1852 1.410 . S
C1851 C1859 1.503 . S
C1852 C1851 1.410 . S
C1852 C1853 1.392 . S
C1852 C1855 1.511 . S
C1853 C1849 1.376 . S
C1853 C1852 1.392 . S
C1853 H1865 0.929 . S
C1854 C1850 1.531 . S
C1854 H1866 0.960 . S
C1854 H1867 0.962 . S
C1854 H1868 0.960 . S
C1855 C1852 1.511 . S
C1855 H1869 0.961 . S
C1855 H1870 0.961 . S
C1855 H1871 0.961 . S
C1856 C1857 1.370 . S
C1856 C1858 1.363 . S
C1856 H1872 0.931 . S
C1857 C1856 1.370 . S
C1857 C1861 1.408 . S
C1858 C1856 1.363 . S
C1858 C1859 1.370 . S
C1858 C1862 1.524 . S
C1859 C1851 1.503 . S
C1859 C1858 1.370 . S
C1859 C1860 1.403 . S
C1860 C1859 1.403 . S
C1860 C1861 1.404 . S
C1860 C1863 1.539 . S
C1861 C1857 1.408 . S
C1861 C1860 1.404 . S
C1861 H1873 0.930 . S
C1862 C1858 1.524 . S
C1862 H1874 0.956 . S
C1862 H1875 0.961 . S
C1862 H1876 0.961 . S
C1863 C1860 1.539 . S
C1863 H1877 0.958 . S
C1863 H1878 0.961 . S
C1863 H1879 0.960 . S
H1864 C1848 0.931 . S
H1865 C1853 0.929 . S
H1866 C1854 0.960 . S
H1867 C1854 0.962 . S
H1868 C1854 0.960 . S
H1869 C1855 0.961 . S
H1870 C1855 0.961 . S
H1871 C1855 0.961 . S
H1872 C1856 0.931 . S
H1873 C1861 0.930 . S
H1874 C1862 0.956 . S
H1875 C1862 0.961 . S
H1876 C1862 0.961 . S
H1877 C1863 0.958 . S
H1878 C1863 0.961 . S
H1879 C1863 0.960 . S
C1880 C1881 1.391 . S
C1880 C1882 1.394 . S
C1880 H1896 0.931 . S
C1881 C1880 1.391 . S
C1881 C1885 1.376 . S
C1882 C1880 1.394 . S
C1882 C1883 1.369 1_565 S
C1882 C1886 1.531 . S
C1883 C1882 1.369 1_545 S
C1883 C1884 1.410 1_545 S
C1883 C1891 1.503 . S
C1884 C1883 1.410 1_565 S
C1884 C1885 1.392 . S
C1884 C1887 1.511 1_565 S
C1885 C1881 1.376 . S
C1885 C1884 1.392 . S
C1885 H1897 0.929 . S
C1886 C1882 1.531 . S
C1886 H1898 0.960 1_565 S
C1886 H1899 0.962 . S
C1886 H1900 0.960 . S
C1887 C1884 1.511 1_545 S
C1887 H1901 0.961 . S
C1887 H1902 0.961 . S
C1887 H1903 0.961 . S
C1888 C1889 1.370 . S
C1888 C1890 1.363 . S
C1888 H1904 0.931 . S
C1889 C1888 1.370 . S
C1889 C1893 1.408 . S
C1890 C1888 1.363 . S
C1890 C1891 1.370 . S
C1890 C1894 1.524 . S
C1891 C1883 1.503 . S
C1891 C1890 1.370 . S
C1891 C1892 1.403 . S
C1892 C1891 1.403 . S
C1892 C1893 1.404 . S
C1892 C1895 1.539 . S
C1893 C1889 1.408 . S
C1893 C1892 1.404 . S
C1893 H1905 0.930 . S
C1894 C1890 1.524 . S
C1894 H1906 0.956 . S
C1894 H1907 0.961 . S
C1894 H1908 0.961 . S
C1895 C1892 1.539 . S
C1895 H1909 0.958 . S
C1895 H1910 0.961 . S
C1895 H1911 0.960 . S
H1896 C1880 0.931 . S
H1897 C1885 0.929 . S
H1898 C1886 0.960 1_545 S
H1899 C1886 0.962 . S
H1900 C1886 0.960 . S
H1901 C1887 0.961 . S
H1902 C1887 0.961 . S
H1903 C1887 0.961 . S
H1904 C1888 0.931 . S
H1905 C1893 0.930 . S
H1906 C1894 0.956 . S
H1907 C1894 0.961 . S
H1908 C1894 0.961 . S
H1909 C1895 0.958 . S
H1910 C1895 0.961 . S
H1911 C1895 0.960 . S
C1912 C1913 1.391 . S
C1912 C1914 1.394 . S
C1912 H1928 0.931 . S
C1913 C1912 1.391 . S
C1913 C1917 1.376 . S
C1914 C1912 1.394 . S
C1914 C1915 1.369 1_455 S
C1914 C1918 1.531 1_455 S
C1915 C1914 1.369 1_655 S
C1915 C1916 1.410 1_655 S
C1915 C1923 1.503 . S
C1916 C1915 1.410 1_455 S
C1916 C1917 1.392 . S
C1916 C1919 1.511 . S
C1917 C1913 1.376 . S
C1917 C1916 1.392 . S
C1917 H1929 0.929 . S
C1918 C1914 1.531 1_655 S
C1918 H1930 0.960 . S
C1918 H1931 0.962 . S
C1918 H1932 0.960 . S
C1919 C1916 1.511 . S
C1919 H1933 0.961 . S
C1919 H1934 0.961 1_455 S
C1919 H1935 0.961 . S
C1920 C1921 1.370 . S
C1920 C1922 1.363 . S
C1920 H1936 0.931 . S
C1921 C1920 1.370 . S
C1921 C1925 1.408 . S
C1922 C1920 1.363 . S
C1922 C1923 1.370 . S
C1922 C1926 1.524 . S
C1923 C1915 1.503 . S
C1923 C1922 1.370 . S
C1923 C1924 1.403 . S
C1924 C1923 1.403 . S
C1924 C1925 1.404 . S
C1924 C1927 1.539 . S
C1925 C1921 1.408 . S
C1925 C1924 1.404 . S
C1925 H1937 0.930 . S
C1926 C1922 1.524 . S
C1926 H1938 0.956 . S
C1926 H1939 0.961 . S
C1926 H1940 0.961 . S
C1927 C1924 1.539 . S
C1927 H1941 0.958 . S
C1927 H1942 0.961 . S
C1927 H1943 0.960 . S
H1928 C1912 0.931 . S
H1929 C1917 0.929 . S
H1930 C1918 0.960 . S
H1931 C1918 0.962 . S
H1932 C1918 0.960 . S
H1933 C1919 0.961 . S
H1934 C1919 0.961 1_655 S
H1935 C1919 0.961 . S
H1936 C1920 0.931 . S
H1937 C1925 0.930 . S
H1938 C1926 0.956 . S
H1939 C1926 0.961 . S
H1940 C1926 0.961 . S
H1941 C1927 0.958 . S
H1942 C1927 0.961 . S
H1943 C1927 0.960 . S
C1944 C1945 1.391 . S
C1944 C1946 1.394 . S
C1944 H1960 0.931 . S
C1945 C1944 1.391 . S
C1945 C1949 1.376 . S
C1946 C1944 1.394 . S
C1946 C1947 1.369 . S
C1946 C1950 1.531 . S
C1947 C1946 1.369 . S
C1947 C1948 1.410 . S
C1947 C1955 1.503 . S
C1948 C1947 1.410 . S
C1948 C1949 1.392 . S
C1948 C1951 1.511 . S
C1949 C1945 1.376 . S
C1949 C1948 1.392 . S
C1949 H1961 0.929 . S
C1950 C1946 1.531 . S
C1950 H1962 0.960 . S
C1950 H1963 0.962 . S
C1950 H1964 0.960 . S
C1951 C1948 1.511 . S
C1951 H1965 0.961 . S
C1951 H1966 0.961 . S
C1951 H1967 0.961 . S
C1952 C1953 1.370 . S
C1952 C1954 1.363 . S
C1952 H1968 0.931 . S
C1953 C1952 1.370 . S
C1953 C1957 1.408 . S
C1954 C1952 1.363 . S
C1954 C1955 1.370 . S
C1954 C1958 1.524 . S
C1955 C1947 1.503 . S
C1955 C1954 1.370 . S
C1955 C1956 1.403 . S
C1956 C1955 1.403 . S
C1956 C1957 1.404 . S
C1956 C1959 1.539 . S
C1957 C1953 1.408 . S
C1957 C1956 1.404 . S
C1957 H1969 0.930 . S
C1958 C1954 1.524 . S
C1958 H1970 0.956 . S
C1958 H1971 0.961 . S
C1958 H1972 0.961 . S
C1959 C1956 1.539 . S
C1959 H1973 0.958 . S
C1959 H1974 0.961 . S
C1959 H1975 0.960 . S
H1960 C1944 0.931 . S
H1961 C1949 0.929 . S
H1962 C1950 0.960 . S
H1963 C1950 0.962 . S
H1964 C1950 0.960 . S
H1965 C1951 0.961 . S
H1966 C1951 0.961 . S
H1967 C1951 0.961 . S
H1968 C1952 0.931 . S
H1969 C1957 0.930 . S
H1970 C1958 0.956 . S
H1971 C1958 0.961 . S
H1972 C1958 0.961 . S
H1973 C1959 0.958 . S
H1974 C1959 0.961 . S
H1975 C1959 0.960 . S
C1976 C1977 1.391 . S
C1976 C1978 1.394 . S
C1976 H1992 0.931 . S
C1977 C1976 1.391 . S
C1977 C1981 1.376 . S
C1978 C1976 1.394 . S
C1978 C1979 1.369 1_545 S
C1978 C1982 1.531 1_545 S
C1979 C1978 1.369 1_565 S
C1979 C1980 1.410 1_565 S
C1979 C1987 1.503 . S
C1980 C1979 1.410 1_545 S
C1980 C1981 1.392 . S
C1980 C1983 1.511 1_545 S
C1981 C1977 1.376 . S
C1981 C1980 1.392 . S
C1981 H1993 0.929 . S
C1982 C1978 1.531 1_565 S
C1982 H1994 0.960 . S
C1982 H1995 0.962 . S
C1982 H1996 0.960 1_565 S
C1983 C1980 1.511 1_565 S
C1983 H1997 0.961 1_565 S
C1983 H1998 0.961 . S
C1983 H1999 0.961 . S
C1984 C1985 1.370 . S
C1984 C1986 1.363 . S
C1984 H2000 0.931 . S
C1985 C1984 1.370 . S
C1985 C1989 1.408 . S
C1986 C1984 1.363 . S
C1986 C1987 1.370 . S
C1986 C1990 1.524 . S
C1987 C1979 1.503 . S
C1987 C1986 1.370 . S
C1987 C1988 1.403 . S
C1988 C1987 1.403 . S
C1988 C1989 1.404 . S
C1988 C1991 1.539 . S
C1989 C1985 1.408 . S
C1989 C1988 1.404 . S
C1989 H2001 0.930 . S
C1990 C1986 1.524 . S
C1990 H2002 0.956 . S
C1990 H2003 0.961 . S
C1990 H2004 0.961 . S
C1991 C1988 1.539 . S
C1991 H2005 0.958 . S
C1991 H2006 0.961 . S
C1991 H2007 0.960 . S
H1992 C1976 0.931 . S
H1993 C1981 0.929 . S
H1994 C1982 0.960 . S
H1995 C1982 0.962 . S
H1996 C1982 0.960 1_545 S
H1997 C1983 0.961 1_545 S
H1998 C1983 0.961 . S
H1999 C1983 0.961 . S
H2000 C1984 0.931 . S
H2001 C1989 0.930 . S
H2002 C1990 0.956 . S
H2003 C1990 0.961 . S
H2004 C1990 0.961 . S
H2005 C1991 0.958 . S
H2006 C1991 0.961 . S
H2007 C1991 0.960 . S
C2008 C2009 1.391 . S
C2008 C2010 1.394 . S
C2008 H2024 0.931 . S
C2009 C2008 1.391 . S
C2009 C2013 1.376 . S
C2010 C2008 1.394 . S
C2010 C2011 1.369 . S
C2010 C2014 1.531 . S
C2011 C2010 1.369 . S
C2011 C2012 1.410 . S
C2011 C2019 1.503 . S
C2012 C2011 1.410 . S
C2012 C2013 1.392 . S
C2012 C2015 1.511 . S
C2013 C2009 1.376 . S
C2013 C2012 1.392 . S
C2013 H2025 0.929 . S
C2014 C2010 1.531 . S
C2014 H2026 0.960 . S
C2014 H2027 0.962 . S
C2014 H2028 0.960 . S
C2015 C2012 1.511 . S
C2015 H2029 0.961 . S
C2015 H2030 0.961 . S
C2015 H2031 0.961 . S
C2016 C2017 1.370 . S
C2016 C2018 1.363 . S
C2016 H2032 0.931 . S
C2017 C2016 1.370 . S
C2017 C2021 1.408 . S
C2018 C2016 1.363 . S
C2018 C2019 1.370 1_655 S
C2018 C2022 1.524 1_655 S
C2019 C2011 1.503 . S
C2019 C2018 1.370 1_455 S
C2019 C2020 1.403 1_455 S
C2020 C2019 1.403 1_655 S
C2020 C2021 1.404 . S
C2020 C2023 1.539 . S
C2021 C2017 1.408 . S
C2021 C2020 1.404 . S
C2021 H2033 0.930 . S
C2022 C2018 1.524 1_455 S
C2022 H2034 0.956 . S
C2022 H2035 0.961 . S
C2022 H2036 0.961 . S
C2023 C2020 1.539 . S
C2023 H2037 0.958 . S
C2023 H2038 0.961 . S
C2023 H2039 0.960 1_655 S
H2024 C2008 0.931 . S
H2025 C2013 0.929 . S
H2026 C2014 0.960 . S
H2027 C2014 0.962 . S
H2028 C2014 0.960 . S
H2029 C2015 0.961 . S
H2030 C2015 0.961 . S
H2031 C2015 0.961 . S
H2032 C2016 0.931 . S
H2033 C2021 0.930 . S
H2034 C2022 0.956 . S
H2035 C2022 0.961 . S
H2036 C2022 0.961 . S
H2037 C2023 0.958 . S
H2038 C2023 0.961 . S
H2039 C2023 0.960 1_455 S
C2040 C2041 1.391 . S
C2040 C2042 1.394 . S
C2040 H2056 0.931 . S
C2041 C2040 1.391 . S
C2041 C2045 1.376 . S
C2042 C2040 1.394 . S
C2042 C2043 1.369 . S
C2042 C2046 1.531 . S
C2043 C2042 1.369 . S
C2043 C2044 1.410 . S
C2043 C2051 1.503 . S
C2044 C2043 1.410 . S
C2044 C2045 1.392 . S
C2044 C2047 1.511 . S
C2045 C2041 1.376 . S
C2045 C2044 1.392 . S
C2045 H2057 0.929 . S
C2046 C2042 1.531 . S
C2046 H2058 0.960 . S
C2046 H2059 0.962 . S
C2046 H2060 0.960 . S
C2047 C2044 1.511 . S
C2047 H2061 0.961 . S
C2047 H2062 0.961 . S
C2047 H2063 0.961 . S
C2048 C2049 1.370 . S
C2048 C2050 1.363 . S
C2048 H2064 0.931 . S
C2049 C2048 1.370 . S
C2049 C2053 1.408 . S
C2050 C2048 1.363 . S
C2050 C2051 1.370 . S
C2050 C2054 1.524 . S
C2051 C2043 1.503 . S
C2051 C2050 1.370 . S
C2051 C2052 1.403 . S
C2052 C2051 1.403 . S
C2052 C2053 1.404 . S
C2052 C2055 1.539 . S
C2053 C2049 1.408 . S
C2053 C2052 1.404 . S
C2053 H2065 0.930 . S
C2054 C2050 1.524 . S
C2054 H2066 0.956 . S
C2054 H2067 0.961 . S
C2054 H2068 0.961 . S
C2055 C2052 1.539 . S
C2055 H2069 0.958 . S
C2055 H2070 0.961 . S
C2055 H2071 0.960 . S
H2056 C2040 0.931 . S
H2057 C2045 0.929 . S
H2058 C2046 0.960 . S
H2059 C2046 0.962 . S
H2060 C2046 0.960 . S
H2061 C2047 0.961 . S
H2062 C2047 0.961 . S
H2063 C2047 0.961 . S
H2064 C2048 0.931 . S
H2065 C2053 0.930 . S
H2066 C2054 0.956 . S
H2067 C2054 0.961 . S
H2068 C2054 0.961 . S
H2069 C2055 0.958 . S
H2070 C2055 0.961 . S
H2071 C2055 0.960 . S
C2072 C2073 1.391 . S
C2072 C2074 1.394 . S
C2072 H2088 0.931 . S
C2073 C2072 1.391 . S
C2073 C2077 1.376 . S
C2074 C2072 1.394 . S
C2074 C2075 1.369 . S
C2074 C2078 1.531 . S
C2075 C2074 1.369 . S
C2075 C2076 1.410 . S
C2075 C2083 1.503 . S
C2076 C2075 1.410 . S
C2076 C2077 1.392 . S
C2076 C2079 1.511 . S
C2077 C2073 1.376 . S
C2077 C2076 1.392 . S
C2077 H2089 0.929 . S
C2078 C2074 1.531 . S
C2078 H2090 0.960 . S
C2078 H2091 0.962 . S
C2078 H2092 0.960 . S
C2079 C2076 1.511 . S
C2079 H2093 0.961 . S
C2079 H2094 0.961 . S
C2079 H2095 0.961 . S
C2080 C2081 1.370 . S
C2080 C2082 1.363 . S
C2080 H2096 0.931 . S
C2081 C2080 1.370 . S
C2081 C2085 1.408 . S
C2082 C2080 1.363 . S
C2082 C2083 1.370 . S
C2082 C2086 1.524 . S
C2083 C2075 1.503 . S
C2083 C2082 1.370 . S
C2083 C2084 1.403 . S
C2084 C2083 1.403 . S
C2084 C2085 1.404 . S
C2084 C2087 1.539 . S
C2085 C2081 1.408 . S
C2085 C2084 1.404 . S
C2085 H2097 0.930 . S
C2086 C2082 1.524 . S
C2086 H2098 0.956 . S
C2086 H2099 0.961 . S
C2086 H2100 0.961 . S
C2087 C2084 1.539 . S
C2087 H2101 0.958 . S
C2087 H2102 0.961 . S
C2087 H2103 0.960 . S
H2088 C2072 0.931 . S
H2089 C2077 0.929 . S
H2090 C2078 0.960 . S
H2091 C2078 0.962 . S
H2092 C2078 0.960 . S
H2093 C2079 0.961 . S
H2094 C2079 0.961 . S
H2095 C2079 0.961 . S
H2096 C2080 0.931 . S
H2097 C2085 0.930 . S
H2098 C2086 0.956 . S
H2099 C2086 0.961 . S
H2100 C2086 0.961 . S
H2101 C2087 0.958 . S
H2102 C2087 0.961 . S
H2103 C2087 0.960 . S
C2104 C2105 1.391 . S
C2104 C2106 1.394 . S
C2104 H2120 0.931 . S
C2105 C2104 1.391 . S
C2105 C2109 1.376 . S
C2106 C2104 1.394 . S
C2106 C2107 1.369 . S
C2106 C2110 1.531 . S
C2107 C2106 1.369 . S
C2107 C2108 1.410 . S
C2107 C2115 1.503 . S
C2108 C2107 1.410 . S
C2108 C2109 1.392 . S
C2108 C2111 1.511 . S
C2109 C2105 1.376 . S
C2109 C2108 1.392 . S
C2109 H2121 0.929 . S
C2110 C2106 1.531 . S
C2110 H2122 0.960 . S
C2110 H2123 0.962 . S
C2110 H2124 0.960 . S
C2111 C2108 1.511 . S
C2111 H2125 0.961 . S
C2111 H2126 0.961 . S
C2111 H2127 0.961 . S
C2112 C2113 1.370 . S
C2112 C2114 1.363 . S
C2112 H2128 0.931 . S
C2113 C2112 1.370 . S
C2113 C2117 1.408 . S
C2114 C2112 1.363 . S
C2114 C2115 1.370 . S
C2114 C2118 1.524 . S
C2115 C2107 1.503 . S
C2115 C2114 1.370 . S
C2115 C2116 1.403 . S
C2116 C2115 1.403 . S
C2116 C2117 1.404 . S
C2116 C2119 1.539 . S
C2117 C2113 1.408 . S
C2117 C2116 1.404 . S
C2117 H2129 0.930 . S
C2118 C2114 1.524 . S
C2118 H2130 0.956 . S
C2118 H2131 0.961 . S
C2118 H2132 0.961 . S
C2119 C2116 1.539 . S
C2119 H2133 0.958 . S
C2119 H2134 0.961 . S
C2119 H2135 0.960 . S
H2120 C2104 0.931 . S
H2121 C2109 0.929 . S
H2122 C2110 0.960 . S
H2123 C2110 0.962 . S
H2124 C2110 0.960 . S
H2125 C2111 0.961 . S
H2126 C2111 0.961 . S
H2127 C2111 0.961 . S
H2128 C2112 0.931 . S
H2129 C2117 0.930 . S
H2130 C2118 0.956 . S
H2131 C2118 0.961 . S
H2132 C2118 0.961 . S
H2133 C2119 0.958 . S
H2134 C2119 0.961 . S
H2135 C2119 0.960 . S
C2136 C2137 1.391 . S
C2136 C2138 1.394 . S
C2136 H2152 0.931 . S
C2137 C2136 1.391 . S
C2137 C2141 1.376 . S
C2138 C2136 1.394 . S
C2138 C2139 1.369 . S
C2138 C2142 1.531 . S
C2139 C2138 1.369 . S
C2139 C2140 1.410 . S
C2139 C2147 1.503 . S
C2140 C2139 1.410 . S
C2140 C2141 1.392 . S
C2140 C2143 1.511 . S
C2141 C2137 1.376 . S
C2141 C2140 1.392 . S
C2141 H2153 0.929 . S
C2142 C2138 1.531 . S
C2142 H2154 0.960 . S
C2142 H2155 0.962 . S
C2142 H2156 0.960 . S
C2143 C2140 1.511 . S
C2143 H2157 0.961 . S
C2143 H2158 0.961 . S
C2143 H2159 0.961 . S
C2144 C2145 1.370 . S
C2144 C2146 1.363 . S
C2144 H2160 0.931 . S
C2145 C2144 1.370 . S
C2145 C2149 1.408 . S
C2146 C2144 1.363 . S
C2146 C2147 1.370 . S
C2146 C2150 1.524 . S
C2147 C2139 1.503 . S
C2147 C2146 1.370 . S
C2147 C2148 1.403 . S
C2148 C2147 1.403 . S
C2148 C2149 1.404 . S
C2148 C2151 1.539 . S
C2149 C2145 1.408 . S
C2149 C2148 1.404 . S
C2149 H2161 0.930 . S
C2150 C2146 1.524 . S
C2150 H2162 0.956 . S
C2150 H2163 0.961 . S
C2150 H2164 0.961 . S
C2151 C2148 1.539 . S
C2151 H2165 0.958 . S
C2151 H2166 0.961 . S
C2151 H2167 0.960 . S
H2152 C2136 0.931 . S
H2153 C2141 0.929 . S
H2154 C2142 0.960 . S
H2155 C2142 0.962 . S
H2156 C2142 0.960 . S
H2157 C2143 0.961 . S
H2158 C2143 0.961 . S
H2159 C2143 0.961 . S
H2160 C2144 0.931 . S
H2161 C2149 0.930 . S
H2162 C2150 0.956 . S
H2163 C2150 0.961 . S
H2164 C2150 0.961 . S
H2165 C2151 0.958 . S
H2166 C2151 0.961 . S
H2167 C2151 0.960 . S
C2168 C2169 1.391 . S
C2168 C2170 1.394 . S
C2168 H2184 0.931 . S
C2169 C2168 1.391 . S
C2169 C2173 1.376 . S
C2170 C2168 1.394 . S
C2170 C2171 1.369 . S
C2170 C2174 1.531 . S
C2171 C2170 1.369 . S
C2171 C2172 1.410 . S
C2171 C2179 1.503 . S
C2172 C2171 1.410 . S
C2172 C2173 1.392 . S
C2172 C2175 1.511 . S
C2173 C2169 1.376 . S
C2173 C2172 1.392 . S
C2173 H2185 0.929 . S
C2174 C2170 1.531 . S
C2174 H2186 0.960 . S
C2174 H2187 0.962 . S
C2174 H2188 0.960 . S
C2175 C2172 1.511 . S
C2175 H2189 0.961 . S
C2175 H2190 0.961 . S
C2175 H2191 0.961 . S
C2176 C2177 1.370 . S
C2176 C2178 1.363 . S
C2176 H2192 0.931 . S
C2177 C2176 1.370 . S
C2177 C2181 1.408 . S
C2178 C2176 1.363 . S
C2178 C2179 1.370 . S
C2178 C2182 1.524 . S
C2179 C2171 1.503 . S
C2179 C2178 1.370 . S
C2179 C2180 1.403 . S
C2180 C2179 1.403 . S
C2180 C2181 1.404 . S
C2180 C2183 1.539 . S
C2181 C2177 1.408 . S
C2181 C2180 1.404 . S
C2181 H2193 0.930 . S
C2182 C2178 1.524 . S
C2182 H2194 0.956 . S
C2182 H2195 0.961 . S
C2182 H2196 0.961 . S
C2183 C2180 1.539 . S
C2183 H2197 0.958 . S
C2183 H2198 0.961 . S
C2183 H2199 0.960 . S
H2184 C2168 0.931 . S
H2185 C2173 0.929 . S
H2186 C2174 0.960 . S
H2187 C2174 0.962 . S
H2188 C2174 0.960 . S
H2189 C2175 0.961 . S
H2190 C2175 0.961 . S
H2191 C2175 0.961 . S
H2192 C2176 0.931 . S
H2193 C2181 0.930 . S
H2194 C2182 0.956 . S
H2195 C2182 0.961 . S
H2196 C2182 0.961 . S
H2197 C2183 0.958 . S
H2198 C2183 0.961 . S
H2199 C2183 0.960 . S
C2200 C2201 1.391 . S
C2200 C2202 1.394 . S
C2200 H2216 0.931 . S
C2201 C2200 1.391 . S
C2201 C2205 1.376 . S
C2202 C2200 1.394 . S
C2202 C2203 1.369 . S
C2202 C2206 1.531 . S
C2203 C2202 1.369 . S
C2203 C2204 1.410 . S
C2203 C2211 1.503 . S
C2204 C2203 1.410 . S
C2204 C2205 1.392 . S
C2204 C2207 1.511 . S
C2205 C2201 1.376 . S
C2205 C2204 1.392 . S
C2205 H2217 0.929 . S
C2206 C2202 1.531 . S
C2206 H2218 0.960 . S
C2206 H2219 0.962 . S
C2206 H2220 0.960 . S
C2207 C2204 1.511 . S
C2207 H2221 0.961 . S
C2207 H2222 0.961 . S
C2207 H2223 0.961 . S
C2208 C2209 1.370 . S
C2208 C2210 1.363 . S
C2208 H2224 0.931 . S
C2209 C2208 1.370 . S
C2209 C2213 1.408 . S
C2210 C2208 1.363 . S
C2210 C2211 1.370 . S
C2210 C2214 1.524 . S
C2211 C2203 1.503 . S
C2211 C2210 1.370 . S
C2211 C2212 1.403 . S
C2212 C2211 1.403 . S
C2212 C2213 1.404 . S
C2212 C2215 1.539 . S
C2213 C2209 1.408 . S
C2213 C2212 1.404 . S
C2213 H2225 0.930 . S
C2214 C2210 1.524 . S
C2214 H2226 0.956 . S
C2214 H2227 0.961 . S
C2214 H2228 0.961 . S
C2215 C2212 1.539 . S
C2215 H2229 0.958 . S
C2215 H2230 0.961 . S
C2215 H2231 0.960 . S
H2216 C2200 0.931 . S
H2217 C2205 0.929 . S
H2218 C2206 0.960 . S
H2219 C2206 0.962 . S
H2220 C2206 0.960 . S
H2221 C2207 0.961 . S
H2222 C2207 0.961 . S
H2223 C2207 0.961 . S
H2224 C2208 0.931 . S
H2225 C2213 0.930 . S
H2226 C2214 0.956 . S
H2227 C2214 0.961 . S
H2228 C2214 0.961 . S
H2229 C2215 0.958 . S
H2230 C2215 0.961 . S
H2231 C2215 0.960 . S
C2232 C2233 1.391 . S
C2232 C2234 1.394 . S
C2232 H2248 0.931 . S
C2233 C2232 1.391 . S
C2233 C2237 1.376 . S
C2234 C2232 1.394 . S
C2234 C2235 1.369 . S
C2234 C2238 1.531 . S
C2235 C2234 1.369 . S
C2235 C2236 1.410 . S
C2235 C2243 1.503 . S
C2236 C2235 1.410 . S
C2236 C2237 1.392 . S
C2236 C2239 1.511 . S
C2237 C2233 1.376 . S
C2237 C2236 1.392 . S
C2237 H2249 0.929 . S
C2238 C2234 1.531 . S
C2238 H2250 0.960 . S
C2238 H2251 0.962 . S
C2238 H2252 0.960 . S
C2239 C2236 1.511 . S
C2239 H2253 0.961 . S
C2239 H2254 0.961 . S
C2239 H2255 0.961 . S
C2240 C2241 1.370 . S
C2240 C2242 1.363 . S
C2240 H2256 0.931 . S
C2241 C2240 1.370 . S
C2241 C2245 1.408 . S
C2242 C2240 1.363 . S
C2242 C2243 1.370 . S
C2242 C2246 1.524 . S
C2243 C2235 1.503 . S
C2243 C2242 1.370 . S
C2243 C2244 1.403 . S
C2244 C2243 1.403 . S
C2244 C2245 1.404 . S
C2244 C2247 1.539 . S
C2245 C2241 1.408 . S
C2245 C2244 1.404 . S
C2245 H2257 0.930 . S
C2246 C2242 1.524 . S
C2246 H2258 0.956 . S
C2246 H2259 0.961 . S
C2246 H2260 0.961 . S
C2247 C2244 1.539 . S
C2247 H2261 0.958 . S
C2247 H2262 0.961 . S
C2247 H2263 0.960 . S
H2248 C2232 0.931 . S
H2249 C2237 0.929 . S
H2250 C2238 0.960 . S
H2251 C2238 0.962 . S
H2252 C2238 0.960 . S
H2253 C2239 0.961 . S
H2254 C2239 0.961 . S
H2255 C2239 0.961 . S
H2256 C2240 0.931 . S
H2257 C2245 0.930 . S
H2258 C2246 0.956 . S
H2259 C2246 0.961 . S
H2260 C2246 0.961 . S
H2261 C2247 0.958 . S
H2262 C2247 0.961 . S
H2263 C2247 0.960 . S
C2264 C2265 1.391 . S
C2264 C2266 1.394 . S
C2264 H2280 0.931 . S
C2265 C2264 1.391 . S
C2265 C2269 1.376 . S
C2266 C2264 1.394 . S
C2266 C2267 1.369 . S
C2266 C2270 1.531 . S
C2267 C2266 1.369 . S
C2267 C2268 1.410 . S
C2267 C2275 1.503 . S
C2268 C2267 1.410 . S
C2268 C2269 1.392 . S
C2268 C2271 1.511 . S
C2269 C2265 1.376 . S
C2269 C2268 1.392 . S
C2269 H2281 0.929 . S
C2270 C2266 1.531 . S
C2270 H2282 0.960 . S
C2270 H2283 0.962 . S
C2270 H2284 0.960 . S
C2271 C2268 1.511 . S
C2271 H2285 0.961 . S
C2271 H2286 0.961 . S
C2271 H2287 0.961 . S
C2272 C2273 1.370 . S
C2272 C2274 1.363 . S
C2272 H2288 0.931 . S
C2273 C2272 1.370 . S
C2273 C2277 1.408 . S
C2274 C2272 1.363 . S
C2274 C2275 1.370 . S
C2274 C2278 1.524 . S
C2275 C2267 1.503 . S
C2275 C2274 1.370 . S
C2275 C2276 1.403 . S
C2276 C2275 1.403 . S
C2276 C2277 1.404 . S
C2276 C2279 1.539 . S
C2277 C2273 1.408 . S
C2277 C2276 1.404 . S
C2277 H2289 0.930 . S
C2278 C2274 1.524 . S
C2278 H2290 0.956 . S
C2278 H2291 0.961 . S
C2278 H2292 0.961 . S
C2279 C2276 1.539 . S
C2279 H2293 0.958 . S
C2279 H2294 0.961 . S
C2279 H2295 0.960 . S
H2280 C2264 0.931 . S
H2281 C2269 0.929 . S
H2282 C2270 0.960 . S
H2283 C2270 0.962 . S
H2284 C2270 0.960 . S
H2285 C2271 0.961 . S
H2286 C2271 0.961 . S
H2287 C2271 0.961 . S
H2288 C2272 0.931 . S
H2289 C2277 0.930 . S
H2290 C2278 0.956 . S
H2291 C2278 0.961 . S
H2292 C2278 0.961 . S
H2293 C2279 0.958 . S
H2294 C2279 0.961 . S
H2295 C2279 0.960 . S
C2296 C2297 1.391 . S
C2296 C2298 1.394 . S
C2296 H2312 0.931 . S
C2297 C2296 1.391 . S
C2297 C2301 1.376 . S
C2298 C2296 1.394 . S
C2298 C2299 1.369 . S
C2298 C2302 1.531 . S
C2299 C2298 1.369 . S
C2299 C2300 1.410 . S
C2299 C2307 1.503 . S
C2300 C2299 1.410 . S
C2300 C2301 1.392 . S
C2300 C2303 1.511 . S
C2301 C2297 1.376 . S
C2301 C2300 1.392 . S
C2301 H2313 0.929 . S
C2302 C2298 1.531 . S
C2302 H2314 0.960 . S
C2302 H2315 0.962 . S
C2302 H2316 0.960 . S
C2303 C2300 1.511 . S
C2303 H2317 0.961 . S
C2303 H2318 0.961 . S
C2303 H2319 0.961 . S
C2304 C2305 1.370 . S
C2304 C2306 1.363 . S
C2304 H2320 0.931 . S
C2305 C2304 1.370 . S
C2305 C2309 1.408 . S
C2306 C2304 1.363 . S
C2306 C2307 1.370 . S
C2306 C2310 1.524 . S
C2307 C2299 1.503 . S
C2307 C2306 1.370 . S
C2307 C2308 1.403 . S
C2308 C2307 1.403 . S
C2308 C2309 1.404 . S
C2308 C2311 1.539 . S
C2309 C2305 1.408 . S
C2309 C2308 1.404 . S
C2309 H2321 0.930 . S
C2310 C2306 1.524 . S
C2310 H2322 0.956 . S
C2310 H2323 0.961 . S
C2310 H2324 0.961 . S
C2311 C2308 1.539 . S
C2311 H2325 0.958 . S
C2311 H2326 0.961 . S
C2311 H2327 0.960 . S
H2312 C2296 0.931 . S
H2313 C2301 0.929 . S
H2314 C2302 0.960 . S
H2315 C2302 0.962 . S
H2316 C2302 0.960 . S
H2317 C2303 0.961 . S
H2318 C2303 0.961 . S
H2319 C2303 0.961 . S
H2320 C2304 0.931 . S
H2321 C2309 0.930 . S
H2322 C2310 0.956 . S
H2323 C2310 0.961 . S
H2324 C2310 0.961 . S
H2325 C2311 0.958 . S
H2326 C2311 0.961 . S
H2327 C2311 0.960 . S
C2328 C2329 1.391 . S
C2328 C2330 1.394 . S
C2328 H2344 0.931 . S
C2329 C2328 1.391 . S
C2329 C2333 1.376 . S
C2330 C2328 1.394 . S
C2330 C2331 1.369 . S
C2330 C2334 1.531 . S
C2331 C2330 1.369 . S
C2331 C2332 1.410 . S
C2331 C2339 1.503 . S
C2332 C2331 1.410 . S
C2332 C2333 1.392 . S
C2332 C2335 1.511 . S
C2333 C2329 1.376 . S
C2333 C2332 1.392 . S
C2333 H2345 0.929 . S
C2334 C2330 1.531 . S
C2334 H2346 0.960 . S
C2334 H2347 0.962 . S
C2334 H2348 0.960 . S
C2335 C2332 1.511 . S
C2335 H2349 0.961 . S
C2335 H2350 0.961 . S
C2335 H2351 0.961 . S
C2336 C2337 1.370 . S
C2336 C2338 1.363 . S
C2336 H2352 0.931 . S
C2337 C2336 1.370 . S
C2337 C2341 1.408 . S
C2338 C2336 1.363 . S
C2338 C2339 1.370 . S
C2338 C2342 1.524 . S
C2339 C2331 1.503 . S
C2339 C2338 1.370 . S
C2339 C2340 1.403 . S
C2340 C2339 1.403 . S
C2340 C2341 1.404 . S
C2340 C2343 1.539 . S
C2341 C2337 1.408 . S
C2341 C2340 1.404 . S
C2341 H2353 0.930 . S
C2342 C2338 1.524 . S
C2342 H2354 0.956 . S
C2342 H2355 0.961 . S
C2342 H2356 0.961 . S
C2343 C2340 1.539 . S
C2343 H2357 0.958 . S
C2343 H2358 0.961 . S
C2343 H2359 0.960 . S
H2344 C2328 0.931 . S
H2345 C2333 0.929 . S
H2346 C2334 0.960 . S
H2347 C2334 0.962 . S
H2348 C2334 0.960 . S
H2349 C2335 0.961 . S
H2350 C2335 0.961 . S
H2351 C2335 0.961 . S
H2352 C2336 0.931 . S
H2353 C2341 0.930 . S
H2354 C2342 0.956 . S
H2355 C2342 0.961 . S
H2356 C2342 0.961 . S
H2357 C2343 0.958 . S
H2358 C2343 0.961 . S
H2359 C2343 0.960 . S
C2360 C2361 1.391 . S
C2360 C2362 1.394 . S
C2360 H2376 0.931 . S
C2361 C2360 1.391 . S
C2361 C2365 1.376 . S
C2362 C2360 1.394 . S
C2362 C2363 1.369 . S
C2362 C2366 1.531 . S
C2363 C2362 1.369 . S
C2363 C2364 1.410 . S
C2363 C2371 1.503 . S
C2364 C2363 1.410 . S
C2364 C2365 1.392 . S
C2364 C2367 1.511 . S
C2365 C2361 1.376 . S
C2365 C2364 1.392 . S
C2365 H2377 0.929 . S
C2366 C2362 1.531 . S
C2366 H2378 0.960 . S
C2366 H2379 0.962 . S
C2366 H2380 0.960 . S
C2367 C2364 1.511 . S
C2367 H2381 0.961 . S
C2367 H2382 0.961 . S
C2367 H2383 0.961 . S
C2368 C2369 1.370 . S
C2368 C2370 1.363 . S
C2368 H2384 0.931 . S
C2369 C2368 1.370 . S
C2369 C2373 1.408 . S
C2370 C2368 1.363 . S
C2370 C2371 1.370 . S
C2370 C2374 1.524 . S
C2371 C2363 1.503 . S
C2371 C2370 1.370 . S
C2371 C2372 1.403 . S
C2372 C2371 1.403 . S
C2372 C2373 1.404 . S
C2372 C2375 1.539 . S
C2373 C2369 1.408 . S
C2373 C2372 1.404 . S
C2373 H2385 0.930 . S
C2374 C2370 1.524 . S
C2374 H2386 0.956 . S
C2374 H2387 0.961 . S
C2374 H2388 0.961 . S
C2375 C2372 1.539 . S
C2375 H2389 0.958 . S
C2375 H2390 0.961 . S
C2375 H2391 0.960 . S
H2376 C2360 0.931 . S
H2377 C2365 0.929 . S
H2378 C2366 0.960 . S
H2379 C2366 0.962 . S
H2380 C2366 0.960 . S
H2381 C2367 0.961 . S
H2382 C2367 0.961 . S
H2383 C2367 0.961 . S
H2384 C2368 0.931 . S
H2385 C2373 0.930 . S
H2386 C2374 0.956 . S
H2387 C2374 0.961 . S
H2388 C2374 0.961 . S
H2389 C2375 0.958 . S
H2390 C2375 0.961 . S
H2391 C2375 0.960 . S
C2392 C2393 1.391 . S
C2392 C2394 1.394 . S
C2392 H2408 0.931 . S
C2393 C2392 1.391 . S
C2393 C2397 1.376 . S
C2394 C2392 1.394 . S
C2394 C2395 1.369 . S
C2394 C2398 1.531 . S
C2395 C2394 1.369 . S
C2395 C2396 1.410 . S
C2395 C2403 1.503 . S
C2396 C2395 1.410 . S
C2396 C2397 1.392 . S
C2396 C2399 1.511 . S
C2397 C2393 1.376 . S
C2397 C2396 1.392 . S
C2397 H2409 0.929 . S
C2398 C2394 1.531 . S
C2398 H2410 0.960 . S
C2398 H2411 0.962 . S
C2398 H2412 0.960 . S
C2399 C2396 1.511 . S
C2399 H2413 0.961 . S
C2399 H2414 0.961 . S
C2399 H2415 0.961 . S
C2400 C2401 1.370 . S
C2400 C2402 1.363 . S
C2400 H2416 0.931 . S
C2401 C2400 1.370 . S
C2401 C2405 1.408 . S
C2402 C2400 1.363 . S
C2402 C2403 1.370 . S
C2402 C2406 1.524 . S
C2403 C2395 1.503 . S
C2403 C2402 1.370 . S
C2403 C2404 1.403 . S
C2404 C2403 1.403 . S
C2404 C2405 1.404 . S
C2404 C2407 1.539 . S
C2405 C2401 1.408 . S
C2405 C2404 1.404 . S
C2405 H2417 0.930 . S
C2406 C2402 1.524 . S
C2406 H2418 0.956 . S
C2406 H2419 0.961 . S
C2406 H2420 0.961 . S
C2407 C2404 1.539 . S
C2407 H2421 0.958 . S
C2407 H2422 0.961 . S
C2407 H2423 0.960 . S
H2408 C2392 0.931 . S
H2409 C2397 0.929 . S
H2410 C2398 0.960 . S
H2411 C2398 0.962 . S
H2412 C2398 0.960 . S
H2413 C2399 0.961 . S
H2414 C2399 0.961 . S
H2415 C2399 0.961 . S
H2416 C2400 0.931 . S
H2417 C2405 0.930 . S
H2418 C2406 0.956 . S
H2419 C2406 0.961 . S
H2420 C2406 0.961 . S
H2421 C2407 0.958 . S
H2422 C2407 0.961 . S
H2423 C2407 0.960 . S
C2424 C2425 1.391 . S
C2424 C2426 1.394 . S
C2424 H2440 0.931 . S
C2425 C2424 1.391 . S
C2425 C2429 1.376 . S
C2426 C2424 1.394 . S
C2426 C2427 1.369 . S
C2426 C2430 1.531 . S
C2427 C2426 1.369 . S
C2427 C2428 1.410 . S
C2427 C2435 1.503 . S
C2428 C2427 1.410 . S
C2428 C2429 1.392 . S
C2428 C2431 1.511 . S
C2429 C2425 1.376 . S
C2429 C2428 1.392 . S
C2429 H2441 0.929 . S
C2430 C2426 1.531 . S
C2430 H2442 0.960 . S
C2430 H2443 0.962 . S
C2430 H2444 0.960 . S
C2431 C2428 1.511 . S
C2431 H2445 0.961 . S
C2431 H2446 0.961 . S
C2431 H2447 0.961 . S
C2432 C2433 1.370 . S
C2432 C2434 1.363 . S
C2432 H2448 0.931 . S
C2433 C2432 1.370 . S
C2433 C2437 1.408 . S
C2434 C2432 1.363 . S
C2434 C2435 1.370 . S
C2434 C2438 1.524 . S
C2435 C2427 1.503 . S
C2435 C2434 1.370 . S
C2435 C2436 1.403 . S
C2436 C2435 1.403 . S
C2436 C2437 1.404 . S
C2436 C2439 1.539 . S
C2437 C2433 1.408 . S
C2437 C2436 1.404 . S
C2437 H2449 0.930 . S
C2438 C2434 1.524 . S
C2438 H2450 0.956 . S
C2438 H2451 0.961 . S
C2438 H2452 0.961 . S
C2439 C2436 1.539 . S
C2439 H2453 0.958 . S
C2439 H2454 0.961 . S
C2439 H2455 0.960 . S
H2440 C2424 0.931 . S
H2441 C2429 0.929 . S
H2442 C2430 0.960 . S
H2443 C2430 0.962 . S
H2444 C2430 0.960 . S
H2445 C2431 0.961 . S
H2446 C2431 0.961 . S
H2447 C2431 0.961 . S
H2448 C2432 0.931 . S
H2449 C2437 0.930 . S
H2450 C2438 0.956 . S
H2451 C2438 0.961 . S
H2452 C2438 0.961 . S
H2453 C2439 0.958 . S
H2454 C2439 0.961 . S
H2455 C2439 0.960 . S
C2456 C2457 1.391 . S
C2456 C2458 1.394 . S
C2456 H2472 0.931 . S
C2457 C2456 1.391 . S
C2457 C2461 1.376 . S
C2458 C2456 1.394 . S
C2458 C2459 1.369 . S
C2458 C2462 1.531 . S
C2459 C2458 1.369 . S
C2459 C2460 1.410 . S
C2459 C2467 1.503 . S
C2460 C2459 1.410 . S
C2460 C2461 1.392 . S
C2460 C2463 1.511 . S
C2461 C2457 1.376 . S
C2461 C2460 1.392 . S
C2461 H2473 0.929 . S
C2462 C2458 1.531 . S
C2462 H2474 0.960 . S
C2462 H2475 0.962 . S
C2462 H2476 0.960 . S
C2463 C2460 1.511 . S
C2463 H2477 0.961 . S
C2463 H2478 0.961 . S
C2463 H2479 0.961 . S
C2464 C2465 1.370 . S
C2464 C2466 1.363 . S
C2464 H2480 0.931 . S
C2465 C2464 1.370 . S
C2465 C2469 1.408 . S
C2466 C2464 1.363 . S
C2466 C2467 1.370 . S
C2466 C2470 1.524 . S
C2467 C2459 1.503 . S
C2467 C2466 1.370 . S
C2467 C2468 1.403 . S
C2468 C2467 1.403 . S
C2468 C2469 1.404 . S
C2468 C2471 1.539 . S
C2469 C2465 1.408 . S
C2469 C2468 1.404 . S
C2469 H2481 0.930 . S
C2470 C2466 1.524 . S
C2470 H2482 0.956 . S
C2470 H2483 0.961 . S
C2470 H2484 0.961 . S
C2471 C2468 1.539 . S
C2471 H2485 0.958 . S
C2471 H2486 0.961 . S
C2471 H2487 0.960 . S
H2472 C2456 0.931 . S
H2473 C2461 0.929 . S
H2474 C2462 0.960 . S
H2475 C2462 0.962 . S
H2476 C2462 0.960 . S
H2477 C2463 0.961 . S
H2478 C2463 0.961 . S
H2479 C2463 0.961 . S
H2480 C2464 0.931 . S
H2481 C2469 0.930 . S
H2482 C2470 0.956 . S
H2483 C2470 0.961 . S
H2484 C2470 0.961 . S
H2485 C2471 0.958 . S
H2486 C2471 0.961 . S
H2487 C2471 0.960 . S
C2488 C2489 1.391 . S
C2488 C2490 1.394 . S
C2488 H2504 0.931 . S
C2489 C2488 1.391 . S
C2489 C2493 1.376 . S
C2490 C2488 1.394 . S
C2490 C2491 1.369 . S
C2490 C2494 1.531 . S
C2491 C2490 1.369 . S
C2491 C2492 1.410 . S
C2491 C2499 1.503 . S
C2492 C2491 1.410 . S
C2492 C2493 1.392 . S
C2492 C2495 1.511 . S
C2493 C2489 1.376 . S
C2493 C2492 1.392 . S
C2493 H2505 0.929 . S
C2494 C2490 1.531 . S
C2494 H2506 0.960 . S
C2494 H2507 0.962 . S
C2494 H2508 0.960 . S
C2495 C2492 1.511 . S
C2495 H2509 0.961 . S
C2495 H2510 0.961 . S
C2495 H2511 0.961 . S
C2496 C2497 1.370 . S
C2496 C2498 1.363 . S
C2496 H2512 0.931 . S
C2497 C2496 1.370 . S
C2497 C2501 1.408 . S
C2498 C2496 1.363 . S
C2498 C2499 1.370 . S
C2498 C2502 1.524 . S
C2499 C2491 1.503 . S
C2499 C2498 1.370 . S
C2499 C2500 1.403 . S
C2500 C2499 1.403 . S
C2500 C2501 1.404 . S
C2500 C2503 1.539 . S
C2501 C2497 1.408 . S
C2501 C2500 1.404 . S
C2501 H2513 0.930 . S
C2502 C2498 1.524 . S
C2502 H2514 0.956 . S
C2502 H2515 0.961 . S
C2502 H2516 0.961 . S
C2503 C2500 1.539 . S
C2503 H2517 0.958 . S
C2503 H2518 0.961 . S
C2503 H2519 0.960 . S
H2504 C2488 0.931 . S
H2505 C2493 0.929 . S
H2506 C2494 0.960 . S
H2507 C2494 0.962 . S
H2508 C2494 0.960 . S
H2509 C2495 0.961 . S
H2510 C2495 0.961 . S
H2511 C2495 0.961 . S
H2512 C2496 0.931 . S
H2513 C2501 0.930 . S
H2514 C2502 0.956 . S
H2515 C2502 0.961 . S
H2516 C2502 0.961 . S
H2517 C2503 0.958 . S
H2518 C2503 0.961 . S
H2519 C2503 0.960 . S
C2520 C2521 1.391 . S
C2520 C2522 1.394 . S
C2520 H2536 0.931 . S
C2521 C2520 1.391 . S
C2521 C2525 1.376 . S
C2522 C2520 1.394 . S
C2522 C2523 1.369 . S
C2522 C2526 1.531 . S
C2523 C2522 1.369 . S
C2523 C2524 1.410 . S
C2523 C2531 1.503 . S
C2524 C2523 1.410 . S
C2524 C2525 1.392 . S
C2524 C2527 1.511 . S
C2525 C2521 1.376 . S
C2525 C2524 1.392 . S
C2525 H2537 0.929 . S
C2526 C2522 1.531 . S
C2526 H2538 0.960 . S
C2526 H2539 0.962 . S
C2526 H2540 0.960 . S
C2527 C2524 1.511 . S
C2527 H2541 0.961 . S
C2527 H2542 0.961 . S
C2527 H2543 0.961 . S
C2528 C2529 1.370 . S
C2528 C2530 1.363 . S
C2528 H2544 0.931 . S
C2529 C2528 1.370 . S
C2529 C2533 1.408 . S
C2530 C2528 1.363 . S
C2530 C2531 1.370 . S
C2530 C2534 1.524 . S
C2531 C2523 1.503 . S
C2531 C2530 1.370 . S
C2531 C2532 1.403 . S
C2532 C2531 1.403 . S
C2532 C2533 1.404 . S
C2532 C2535 1.539 . S
C2533 C2529 1.408 . S
C2533 C2532 1.404 . S
C2533 H2545 0.930 . S
C2534 C2530 1.524 . S
C2534 H2546 0.956 . S
C2534 H2547 0.961 . S
C2534 H2548 0.961 . S
C2535 C2532 1.539 . S
C2535 H2549 0.958 . S
C2535 H2550 0.961 . S
C2535 H2551 0.960 . S
H2536 C2520 0.931 . S
H2537 C2525 0.929 . S
H2538 C2526 0.960 . S
H2539 C2526 0.962 . S
H2540 C2526 0.960 . S
H2541 C2527 0.961 . S
H2542 C2527 0.961 . S
H2543 C2527 0.961 . S
H2544 C2528 0.931 . S
H2545 C2533 0.930 . S
H2546 C2534 0.956 . S
H2547 C2534 0.961 . S
H2548 C2534 0.961 . S
H2549 C2535 0.958 . S
H2550 C2535 0.961 . S
H2551 C2535 0.960 . S
C2552 C2553 1.391 . S
C2552 C2554 1.394 . S
C2552 H2568 0.931 . S
C2553 C2552 1.391 . S
C2553 C2557 1.376 . S
C2554 C2552 1.394 . S
C2554 C2555 1.369 . S
C2554 C2558 1.531 . S
C2555 C2554 1.369 . S
C2555 C2556 1.410 . S
C2555 C2563 1.503 . S
C2556 C2555 1.410 . S
C2556 C2557 1.392 . S
C2556 C2559 1.511 . S
C2557 C2553 1.376 . S
C2557 C2556 1.392 . S
C2557 H2569 0.929 . S
C2558 C2554 1.531 . S
C2558 H2570 0.960 . S
C2558 H2571 0.962 . S
C2558 H2572 0.960 . S
C2559 C2556 1.511 . S
C2559 H2573 0.961 . S
C2559 H2574 0.961 . S
C2559 H2575 0.961 . S
C2560 C2561 1.370 . S
C2560 C2562 1.363 . S
C2560 H2576 0.931 . S
C2561 C2560 1.370 . S
C2561 C2565 1.408 . S
C2562 C2560 1.363 . S
C2562 C2563 1.370 . S
C2562 C2566 1.524 . S
C2563 C2555 1.503 . S
C2563 C2562 1.370 . S
C2563 C2564 1.403 . S
C2564 C2563 1.403 . S
C2564 C2565 1.404 . S
C2564 C2567 1.539 . S
C2565 C2561 1.408 . S
C2565 C2564 1.404 . S
C2565 H2577 0.930 . S
C2566 C2562 1.524 . S
C2566 H2578 0.956 . S
C2566 H2579 0.961 . S
C2566 H2580 0.961 . S
C2567 C2564 1.539 . S
C2567 H2581 0.958 . S
C2567 H2582 0.961 . S
C2567 H2583 0.960 . S
H2568 C2552 0.931 . S
H2569 C2557 0.929 . S
H2570 C2558 0.960 . S
H2571 C2558 0.962 . S
H2572 C2558 0.960 . S
H2573 C2559 0.961 . S
H2574 C2559 0.961 . S
H2575 C2559 0.961 . S
H2576 C2560 0.931 . S
H2577 C2565 0.930 . S
H2578 C2566 0.956 . S
H2579 C2566 0.961 . S
H2580 C2566 0.961 . S
H2581 C2567 0.958 . S
H2582 C2567 0.961 . S
H2583 C2567 0.960 . S
C2584 C2585 1.391 . S
C2584 C2586 1.394 . S
C2584 H2600 0.931 . S
C2585 C2584 1.391 . S
C2585 C2589 1.376 . S
C2586 C2584 1.394 . S
C2586 C2587 1.369 . S
C2586 C2590 1.531 . S
C2587 C2586 1.369 . S
C2587 C2588 1.410 . S
C2587 C2595 1.503 . S
C2588 C2587 1.410 . S
C2588 C2589 1.392 . S
C2588 C2591 1.511 . S
C2589 C2585 1.376 . S
C2589 C2588 1.392 . S
C2589 H2601 0.929 . S
C2590 C2586 1.531 . S
C2590 H2602 0.960 . S
C2590 H2603 0.962 . S
C2590 H2604 0.960 . S
C2591 C2588 1.511 . S
C2591 H2605 0.961 . S
C2591 H2606 0.961 . S
C2591 H2607 0.961 . S
C2592 C2593 1.370 . S
C2592 C2594 1.363 . S
C2592 H2608 0.931 . S
C2593 C2592 1.370 . S
C2593 C2597 1.408 . S
C2594 C2592 1.363 . S
C2594 C2595 1.370 . S
C2594 C2598 1.524 . S
C2595 C2587 1.503 . S
C2595 C2594 1.370 . S
C2595 C2596 1.403 . S
C2596 C2595 1.403 . S
C2596 C2597 1.404 . S
C2596 C2599 1.539 . S
C2597 C2593 1.408 . S
C2597 C2596 1.404 . S
C2597 H2609 0.930 . S
C2598 C2594 1.524 . S
C2598 H2610 0.956 . S
C2598 H2611 0.961 . S
C2598 H2612 0.961 . S
C2599 C2596 1.539 . S
C2599 H2613 0.958 . S
C2599 H2614 0.961 . S
C2599 H2615 0.960 . S
H2600 C2584 0.931 . S
H2601 C2589 0.929 . S
H2602 C2590 0.960 . S
H2603 C2590 0.962 . S
H2604 C2590 0.960 . S
H2605 C2591 0.961 . S
H2606 C2591 0.961 . S
H2607 C2591 0.961 . S
H2608 C2592 0.931 . S
H2609 C2597 0.930 . S
H2610 C2598 0.956 . S
H2611 C2598 0.961 . S
H2612 C2598 0.961 . S
H2613 C2599 0.958 . S
H2614 C2599 0.961 . S
H2615 C2599 0.960 . S
C2616 C2617 1.391 . S
C2616 C2618 1.394 . S
C2616 H2632 0.931 . S
C2617 C2616 1.391 . S
C2617 C2621 1.376 . S
C2618 C2616 1.394 . S
C2618 C2619 1.369 . S
C2618 C2622 1.531 . S
C2619 C2618 1.369 . S
C2619 C2620 1.410 . S
C2619 C2627 1.503 . S
C2620 C2619 1.410 . S
C2620 C2621 1.392 . S
C2620 C2623 1.511 . S
C2621 C2617 1.376 . S
C2621 C2620 1.392 . S
C2621 H2633 0.929 . S
C2622 C2618 1.531 . S
C2622 H2634 0.960 . S
C2622 H2635 0.962 . S
C2622 H2636 0.960 . S
C2623 C2620 1.511 . S
C2623 H2637 0.961 . S
C2623 H2638 0.961 . S
C2623 H2639 0.961 . S
C2624 C2625 1.370 . S
C2624 C2626 1.363 . S
C2624 H2640 0.931 . S
C2625 C2624 1.370 . S
C2625 C2629 1.408 . S
C2626 C2624 1.363 . S
C2626 C2627 1.370 . S
C2626 C2630 1.524 . S
C2627 C2619 1.503 . S
C2627 C2626 1.370 . S
C2627 C2628 1.403 . S
C2628 C2627 1.403 . S
C2628 C2629 1.404 . S
C2628 C2631 1.539 . S
C2629 C2625 1.408 . S
C2629 C2628 1.404 . S
C2629 H2641 0.930 . S
C2630 C2626 1.524 . S
C2630 H2642 0.956 . S
C2630 H2643 0.961 . S
C2630 H2644 0.961 . S
C2631 C2628 1.539 . S
C2631 H2645 0.958 . S
C2631 H2646 0.961 . S
C2631 H2647 0.960 . S
H2632 C2616 0.931 . S
H2633 C2621 0.929 . S
H2634 C2622 0.960 . S
H2635 C2622 0.962 . S
H2636 C2622 0.960 . S
H2637 C2623 0.961 . S
H2638 C2623 0.961 . S
H2639 C2623 0.961 . S
H2640 C2624 0.931 . S
H2641 C2629 0.930 . S
H2642 C2630 0.956 . S
H2643 C2630 0.961 . S
H2644 C2630 0.961 . S
H2645 C2631 0.958 . S
H2646 C2631 0.961 . S
H2647 C2631 0.960 . S
C2648 C2649 1.391 . S
C2648 C2650 1.394 . S
C2648 H2664 0.931 . S
C2649 C2648 1.391 . S
C2649 C2653 1.376 . S
C2650 C2648 1.394 . S
C2650 C2651 1.369 . S
C2650 C2654 1.531 . S
C2651 C2650 1.369 . S
C2651 C2652 1.410 . S
C2651 C2659 1.503 . S
C2652 C2651 1.410 . S
C2652 C2653 1.392 . S
C2652 C2655 1.511 . S
C2653 C2649 1.376 . S
C2653 C2652 1.392 . S
C2653 H2665 0.929 . S
C2654 C2650 1.531 . S
C2654 H2666 0.960 . S
C2654 H2667 0.962 . S
C2654 H2668 0.960 . S
C2655 C2652 1.511 . S
C2655 H2669 0.961 . S
C2655 H2670 0.961 . S
C2655 H2671 0.961 . S
C2656 C2657 1.370 . S
C2656 C2658 1.363 . S
C2656 H2672 0.931 . S
C2657 C2656 1.370 . S
C2657 C2661 1.408 . S
C2658 C2656 1.363 . S
C2658 C2659 1.370 . S
C2658 C2662 1.524 . S
C2659 C2651 1.503 . S
C2659 C2658 1.370 . S
C2659 C2660 1.403 . S
C2660 C2659 1.403 . S
C2660 C2661 1.404 . S
C2660 C2663 1.539 . S
C2661 C2657 1.408 . S
C2661 C2660 1.404 . S
C2661 H2673 0.930 . S
C2662 C2658 1.524 . S
C2662 H2674 0.956 . S
C2662 H2675 0.961 . S
C2662 H2676 0.961 . S
C2663 C2660 1.539 . S
C2663 H2677 0.958 . S
C2663 H2678 0.961 . S
C2663 H2679 0.960 . S
H2664 C2648 0.931 . S
H2665 C2653 0.929 . S
H2666 C2654 0.960 . S
H2667 C2654 0.962 . S
H2668 C2654 0.960 . S
H2669 C2655 0.961 . S
H2670 C2655 0.961 . S
H2671 C2655 0.961 . S
H2672 C2656 0.931 . S
H2673 C2661 0.930 . S
H2674 C2662 0.956 . S
H2675 C2662 0.961 . S
H2676 C2662 0.961 . S
H2677 C2663 0.958 . S
H2678 C2663 0.961 . S
H2679 C2663 0.960 . S
C2680 C2681 1.391 . S
C2680 C2682 1.394 . S
C2680 H2696 0.931 . S
C2681 C2680 1.391 . S
C2681 C2685 1.376 . S
C2682 C2680 1.394 . S
C2682 C2683 1.369 . S
C2682 C2686 1.531 . S
C2683 C2682 1.369 . S
C2683 C2684 1.410 . S
C2683 C2691 1.503 . S
C2684 C2683 1.410 . S
C2684 C2685 1.392 . S
C2684 C2687 1.511 . S
C2685 C2681 1.376 . S
C2685 C2684 1.392 . S
C2685 H2697 0.929 . S
C2686 C2682 1.531 . S
C2686 H2698 0.960 . S
C2686 H2699 0.962 . S
C2686 H2700 0.960 . S
C2687 C2684 1.511 . S
C2687 H2701 0.961 . S
C2687 H2702 0.961 . S
C2687 H2703 0.961 . S
C2688 C2689 1.370 . S
C2688 C2690 1.363 . S
C2688 H2704 0.931 . S
C2689 C2688 1.370 . S
C2689 C2693 1.408 . S
C2690 C2688 1.363 . S
C2690 C2691 1.370 . S
C2690 C2694 1.524 . S
C2691 C2683 1.503 . S
C2691 C2690 1.370 . S
C2691 C2692 1.403 . S
C2692 C2691 1.403 . S
C2692 C2693 1.404 . S
C2692 C2695 1.539 . S
C2693 C2689 1.408 . S
C2693 C2692 1.404 . S
C2693 H2705 0.930 . S
C2694 C2690 1.524 . S
C2694 H2706 0.956 . S
C2694 H2707 0.961 . S
C2694 H2708 0.961 . S
C2695 C2692 1.539 . S
C2695 H2709 0.958 . S
C2695 H2710 0.961 . S
C2695 H2711 0.960 . S
H2696 C2680 0.931 . S
H2697 C2685 0.929 . S
H2698 C2686 0.960 . S
H2699 C2686 0.962 . S
H2700 C2686 0.960 . S
H2701 C2687 0.961 . S
H2702 C2687 0.961 . S
H2703 C2687 0.961 . S
H2704 C2688 0.931 . S
H2705 C2693 0.930 . S
H2706 C2694 0.956 . S
H2707 C2694 0.961 . S
H2708 C2694 0.961 . S
H2709 C2695 0.958 . S
H2710 C2695 0.961 . S
H2711 C2695 0.960 . S
C2712 C2713 1.391 . S
C2712 C2714 1.394 . S
C2712 H2728 0.931 . S
C2713 C2712 1.391 . S
C2713 C2717 1.376 . S
C2714 C2712 1.394 . S
C2714 C2715 1.369 . S
C2714 C2718 1.531 . S
C2715 C2714 1.369 . S
C2715 C2716 1.410 . S
C2715 C2723 1.503 . S
C2716 C2715 1.410 . S
C2716 C2717 1.392 . S
C2716 C2719 1.511 . S
C2717 C2713 1.376 . S
C2717 C2716 1.392 . S
C2717 H2729 0.929 . S
C2718 C2714 1.531 . S
C2718 H2730 0.960 . S
C2718 H2731 0.962 . S
C2718 H2732 0.960 . S
C2719 C2716 1.511 . S
C2719 H2733 0.961 . S
C2719 H2734 0.961 . S
C2719 H2735 0.961 . S
C2720 C2721 1.370 . S
C2720 C2722 1.363 . S
C2720 H2736 0.931 . S
C2721 C2720 1.370 . S
C2721 C2725 1.408 . S
C2722 C2720 1.363 . S
C2722 C2723 1.370 . S
C2722 C2726 1.524 . S
C2723 C2715 1.503 . S
C2723 C2722 1.370 . S
C2723 C2724 1.403 . S
C2724 C2723 1.403 . S
C2724 C2725 1.404 . S
C2724 C2727 1.539 . S
C2725 C2721 1.408 . S
C2725 C2724 1.404 . S
C2725 H2737 0.930 . S
C2726 C2722 1.524 . S
C2726 H2738 0.956 . S
C2726 H2739 0.961 . S
C2726 H2740 0.961 . S
C2727 C2724 1.539 . S
C2727 H2741 0.958 . S
C2727 H2742 0.961 . S
C2727 H2743 0.960 . S
H2728 C2712 0.931 . S
H2729 C2717 0.929 . S
H2730 C2718 0.960 . S
H2731 C2718 0.962 . S
H2732 C2718 0.960 . S
H2733 C2719 0.961 . S
H2734 C2719 0.961 . S
H2735 C2719 0.961 . S
H2736 C2720 0.931 . S
H2737 C2725 0.930 . S
H2738 C2726 0.956 . S
H2739 C2726 0.961 . S
H2740 C2726 0.961 . S
H2741 C2727 0.958 . S
H2742 C2727 0.961 . S
H2743 C2727 0.960 . S
C2744 C2745 1.391 . S
C2744 C2746 1.394 . S
C2744 H2760 0.931 . S
C2745 C2744 1.391 . S
C2745 C2749 1.376 . S
C2746 C2744 1.394 . S
C2746 C2747 1.369 . S
C2746 C2750 1.531 . S
C2747 C2746 1.369 . S
C2747 C2748 1.410 . S
C2747 C2755 1.503 . S
C2748 C2747 1.410 . S
C2748 C2749 1.392 . S
C2748 C2751 1.511 . S
C2749 C2745 1.376 . S
C2749 C2748 1.392 . S
C2749 H2761 0.929 . S
C2750 C2746 1.531 . S
C2750 H2762 0.960 . S
C2750 H2763 0.962 . S
C2750 H2764 0.960 . S
C2751 C2748 1.511 . S
C2751 H2765 0.961 . S
C2751 H2766 0.961 . S
C2751 H2767 0.961 . S
C2752 C2753 1.370 . S
C2752 C2754 1.363 . S
C2752 H2768 0.931 . S
C2753 C2752 1.370 . S
C2753 C2757 1.408 . S
C2754 C2752 1.363 . S
C2754 C2755 1.370 . S
C2754 C2758 1.524 . S
C2755 C2747 1.503 . S
C2755 C2754 1.370 . S
C2755 C2756 1.403 . S
C2756 C2755 1.403 . S
C2756 C2757 1.404 . S
C2756 C2759 1.539 . S
C2757 C2753 1.408 . S
C2757 C2756 1.404 . S
C2757 H2769 0.930 . S
C2758 C2754 1.524 . S
C2758 H2770 0.956 . S
C2758 H2771 0.961 . S
C2758 H2772 0.961 . S
C2759 C2756 1.539 . S
C2759 H2773 0.958 . S
C2759 H2774 0.961 . S
C2759 H2775 0.960 . S
H2760 C2744 0.931 . S
H2761 C2749 0.929 . S
H2762 C2750 0.960 . S
H2763 C2750 0.962 . S
H2764 C2750 0.960 . S
H2765 C2751 0.961 . S
H2766 C2751 0.961 . S
H2767 C2751 0.961 . S
H2768 C2752 0.931 . S
H2769 C2757 0.930 . S
H2770 C2758 0.956 . S
H2771 C2758 0.961 . S
H2772 C2758 0.961 . S
H2773 C2759 0.958 . S
H2774 C2759 0.961 . S
H2775 C2759 0.960 . S
C2776 C2777 1.391 . S
C2776 C2778 1.394 . S
C2776 H2792 0.931 . S
C2777 C2776 1.391 . S
C2777 C2781 1.376 . S
C2778 C2776 1.394 . S
C2778 C2779 1.369 . S
C2778 C2782 1.531 . S
C2779 C2778 1.369 . S
C2779 C2780 1.410 . S
C2779 C2787 1.503 . S
C2780 C2779 1.410 . S
C2780 C2781 1.392 . S
C2780 C2783 1.511 . S
C2781 C2777 1.376 . S
C2781 C2780 1.392 . S
C2781 H2793 0.929 . S
C2782 C2778 1.531 . S
C2782 H2794 0.960 . S
C2782 H2795 0.962 . S
C2782 H2796 0.960 . S
C2783 C2780 1.511 . S
C2783 H2797 0.961 . S
C2783 H2798 0.961 . S
C2783 H2799 0.961 . S
C2784 C2785 1.370 . S
C2784 C2786 1.363 . S
C2784 H2800 0.931 . S
C2785 C2784 1.370 . S
C2785 C2789 1.408 . S
C2786 C2784 1.363 . S
C2786 C2787 1.370 . S
C2786 C2790 1.524 . S
C2787 C2779 1.503 . S
C2787 C2786 1.370 . S
C2787 C2788 1.403 . S
C2788 C2787 1.403 . S
C2788 C2789 1.404 . S
C2788 C2791 1.539 . S
C2789 C2785 1.408 . S
C2789 C2788 1.404 . S
C2789 H2801 0.930 . S
C2790 C2786 1.524 . S
C2790 H2802 0.956 . S
C2790 H2803 0.961 . S
C2790 H2804 0.961 . S
C2791 C2788 1.539 . S
C2791 H2805 0.958 . S
C2791 H2806 0.961 . S
C2791 H2807 0.960 . S
H2792 C2776 0.931 . S
H2793 C2781 0.929 . S
H2794 C2782 0.960 . S
H2795 C2782 0.962 . S
H2796 C2782 0.960 . S
H2797 C2783 0.961 . S
H2798 C2783 0.961 . S
H2799 C2783 0.961 . S
H2800 C2784 0.931 . S
H2801 C2789 0.930 . S
H2802 C2790 0.956 . S
H2803 C2790 0.961 . S
H2804 C2790 0.961 . S
H2805 C2791 0.958 . S
H2806 C2791 0.961 . S
H2807 C2791 0.960 . S
C505 C7 1.433 . S
C513 C259 1.451 . S
C537 C273 1.450 . S
C545 C21 1.446 . S
C569 C287 1.470 . S
C577 C35 1.437 . S
C601 C49 1.418 . S
C609 C469 1.458 . S
C633 C63 1.422 . S
C641 C483 1.457 . S
C665 C77 1.447 . S
C673 C497 1.444 . S
C697 C343 1.439 . S
C705 C91 1.448 . S
C729 C105 1.454 . S
C737 C357 1.441 . S
C761 C119 1.452 . S
C769 C371 1.443 . S
C793 C217 1.467 . S
C801 C133 1.439 . S
C825 C231 1.428 . S
C833 C147 1.454 . S
C857 C245 1.434 . S
C865 C161 1.449 . S
C889 C427 1.426 . S
C897 C175 1.453 . S
C921 C441 1.420 . S
C929 C189 1.457 . S
C953 C203 1.419 . S
C961 C455 1.459 . S
C985 C385 1.425 . S
C993 C301 1.454 . S
C1017 C315 1.423 . S
C1025 C399 1.457 . S
C1049 C329 1.469 . S
C1057 C413 1.437 . S
C1081 C6 1.447 1_565 S
C1089 C384 1.463 . S
C1113 C398 1.471 . S
C1121 C20 1.450 1_455 S
C1145 C412 1.443 . S
C1153 C34 1.463 . S
C1177 C174 1.459 . S
C1185 C48 1.452 1_655 S
C1209 C188 1.466 . S
C1217 C62 1.449 . S
C1241 C202 1.436 . S
C1249 C76 1.463 1_545 S
C1273 C90 1.468 1_545 S
C1281 C300 1.456 . S
C1305 C314 1.472 . S
C1313 C104 1.454 1_655 S
C1337 C328 1.468 . S
C1345 C118 1.449 . S
C1369 C132 1.459 1_455 S
C1377 C426 1.450 . S
C1401 C146 1.459 . S
C1409 C440 1.460 . S
C1433 C160 1.439 1_565 S
C1441 C454 1.465 . S
C1465 C216 1.459 . S
C1473 C342 1.451 . S
C1497 C230 1.439 . S
C1505 C356 1.465 . S
C1529 C244 1.468 . S
C1537 C370 1.455 . S
C1561 C258 1.456 . S
C1569 C468 1.462 . S
C1593 C482 1.469 . S
C1601 C272 1.456 . S
C1625 C286 1.464 . S
C1633 C496 1.450 . S
C1657 C22 1.201 . S
C1665 C9 1.182 . S
C1689 C23 1.155 . S
C1697 C36 1.201 . S
C1721 C37 1.208 . S
C1729 C8 1.184 . S
C1753 C51 1.208 . S
C1761 C78 1.175 . S
C1785 C50 1.201 . S
C1793 C65 1.165 . S
C1817 C79 1.162 . S
C1825 C64 1.184 . S
C1849 C93 1.212 . S
C1857 C106 1.181 . S
C1881 C107 1.207 . S
C1889 C120 1.177 . S
C1913 C121 1.147 . S
C1921 C92 1.200 . S
C1945 C162 1.154 . S
C1953 C135 1.184 . S
C1977 C149 1.203 . S
C1985 C134 1.191 . S
C2009 C148 1.158 . S
C2017 C163 1.179 . S
C2041 C190 1.210 . S
C2049 C177 1.176 . S
C2073 C204 1.164 . S
C2081 C191 1.193 . S
C2105 C176 1.154 . S
C2113 C205 1.190 . S
C2137 C219 1.142 . S
C2145 C246 1.200 . S
C2169 C233 1.149 . S
C2177 C218 1.201 . S
C2201 C247 1.208 . S
C2209 C232 1.176 . S
C2233 C274 1.157 . S
C2241 C261 1.191 . S
C2265 C275 1.167 . S
C2273 C288 1.201 . S
C2297 C289 1.211 . S
C2305 C260 1.183 . S
C2329 C303 1.208 . S
C2337 C330 1.177 . S
C2361 C317 1.193 . S
C2369 C302 1.175 . S
C2393 C316 1.216 . S
C2401 C331 1.170 . S
C2425 C358 1.188 . S
C2433 C345 1.188 . S
C2457 C359 1.148 . S
C2465 C372 1.201 . S
C2489 C344 1.210 . S
C2497 C373 1.163 . S
C2521 C387 1.189 . S
C2529 C414 1.177 . S
C2553 C401 1.205 . S
C2561 C386 1.175 . S
C2585 C415 1.211 . S
C2593 C400 1.177 . S
C2617 C429 1.200 . S
C2625 C442 1.175 . S
C2649 C443 1.139 . S
C2657 C456 1.195 . S
C2681 C457 1.211 . S
C2689 C428 1.180 . S
C2713 C471 1.140 . S
C2721 C498 1.193 . S
C2745 C485 1.211 . S
C2753 C470 1.179 . S
C2777 C484 1.216 . S
C2785 C499 1.175 . S
