# Generated by pormake.
# Topology rhr, (4)-cn, num edge types: 1
# Building blocks:
#     Node 0, Type 0, BuildingBlock: MUDLON_clean_sbu_0, # of connection points: 4
#     Node 1, Type 0, BuildingBlock: MUDLON_clean_sbu_0, # of connection points: 4
#     Node 2, Type 0, BuildingBlock: MUDLON_clean_sbu_0, # of connection points: 4
#     Node 3, Type 0, BuildingBlock: MUDLON_clean_sbu_0, # of connection points: 4
#     Node 4, Type 0, BuildingBlock: MUDLON_clean_sbu_0, # of connection points: 4
#     Node 5, Type 0, BuildingBlock: MUDLON_clean_sbu_0, # of connection points: 4
#     Node 6, Type 0, BuildingBlock: MUDLON_clean_sbu_0, # of connection points: 4
#     Node 7, Type 0, BuildingBlock: MUDLON_clean_sbu_0, # of connection points: 4
#     Node 8, Type 0, BuildingBlock: MUDLON_clean_sbu_0, # of connection points: 4
#     Node 9, Type 0, BuildingBlock: MUDLON_clean_sbu_0, # of connection points: 4
#     Node 10, Type 0, BuildingBlock: MUDLON_clean_sbu_0, # of connection points: 4
#     Node 11, Type 0, BuildingBlock: MUDLON_clean_sbu_0, # of connection points: 4
#     Node 12, Type 0, BuildingBlock: MUDLON_clean_sbu_0, # of connection points: 4
#     Node 13, Type 0, BuildingBlock: MUDLON_clean_sbu_0, # of connection points: 4
#     Node 14, Type 0, BuildingBlock: MUDLON_clean_sbu_0, # of connection points: 4
#     Node 15, Type 0, BuildingBlock: MUDLON_clean_sbu_0, # of connection points: 4
#     Node 16, Type 0, BuildingBlock: MUDLON_clean_sbu_0, # of connection points: 4
#     Node 17, Type 0, BuildingBlock: MUDLON_clean_sbu_0, # of connection points: 4
#     Node 18, Type 0, BuildingBlock: MUDLON_clean_sbu_0, # of connection points: 4
#     Node 19, Type 0, BuildingBlock: MUDLON_clean_sbu_0, # of connection points: 4
#     Node 20, Type 0, BuildingBlock: MUDLON_clean_sbu_0, # of connection points: 4
#     Node 21, Type 0, BuildingBlock: MUDLON_clean_sbu_0, # of connection points: 4
#     Node 22, Type 0, BuildingBlock: MUDLON_clean_sbu_0, # of connection points: 4
#     Node 23, Type 0, BuildingBlock: MUDLON_clean_sbu_0, # of connection points: 4
#     Edge 24, Type (0, 0), BuildingBlock: OJICUG_clean_linker_0, # of connection points: 2
#     Edge 25, Type (0, 0), BuildingBlock: OJICUG_clean_linker_0, # of connection points: 2
#     Edge 26, Type (0, 0), BuildingBlock: OJICUG_clean_linker_0, # of connection points: 2
#     Edge 27, Type (0, 0), BuildingBlock: OJICUG_clean_linker_0, # of connection points: 2
#     Edge 28, Type (0, 0), BuildingBlock: OJICUG_clean_linker_0, # of connection points: 2
#     Edge 29, Type (0, 0), BuildingBlock: OJICUG_clean_linker_0, # of connection points: 2
#     Edge 30, Type (0, 0), BuildingBlock: OJICUG_clean_linker_0, # of connection points: 2
#     Edge 31, Type (0, 0), BuildingBlock: OJICUG_clean_linker_0, # of connection points: 2
#     Edge 32, Type (0, 0), BuildingBlock: OJICUG_clean_linker_0, # of connection points: 2
#     Edge 33, Type (0, 0), BuildingBlock: OJICUG_clean_linker_0, # of connection points: 2
#     Edge 34, Type (0, 0), BuildingBlock: OJICUG_clean_linker_0, # of connection points: 2
#     Edge 35, Type (0, 0), BuildingBlock: OJICUG_clean_linker_0, # of connection points: 2
#     Edge 36, Type (0, 0), BuildingBlock: OJICUG_clean_linker_0, # of connection points: 2
#     Edge 37, Type (0, 0), BuildingBlock: OJICUG_clean_linker_0, # of connection points: 2
#     Edge 38, Type (0, 0), BuildingBlock: OJICUG_clean_linker_0, # of connection points: 2
#     Edge 39, Type (0, 0), BuildingBlock: OJICUG_clean_linker_0, # of connection points: 2
#     Edge 40, Type (0, 0), BuildingBlock: OJICUG_clean_linker_0, # of connection points: 2
#     Edge 41, Type (0, 0), BuildingBlock: OJICUG_clean_linker_0, # of connection points: 2
#     Edge 42, Type (0, 0), BuildingBlock: OJICUG_clean_linker_0, # of connection points: 2
#     Edge 43, Type (0, 0), BuildingBlock: OJICUG_clean_linker_0, # of connection points: 2
#     Edge 44, Type (0, 0), BuildingBlock: OJICUG_clean_linker_0, # of connection points: 2
#     Edge 45, Type (0, 0), BuildingBlock: OJICUG_clean_linker_0, # of connection points: 2
#     Edge 46, Type (0, 0), BuildingBlock: OJICUG_clean_linker_0, # of connection points: 2
#     Edge 47, Type (0, 0), BuildingBlock: OJICUG_clean_linker_0, # of connection points: 2
#     Edge 48, Type (0, 0), BuildingBlock: OJICUG_clean_linker_0, # of connection points: 2
#     Edge 49, Type (0, 0), BuildingBlock: OJICUG_clean_linker_0, # of connection points: 2
#     Edge 50, Type (0, 0), BuildingBlock: OJICUG_clean_linker_0, # of connection points: 2
#     Edge 51, Type (0, 0), BuildingBlock: OJICUG_clean_linker_0, # of connection points: 2
#     Edge 52, Type (0, 0), BuildingBlock: OJICUG_clean_linker_0, # of connection points: 2
#     Edge 53, Type (0, 0), BuildingBlock: OJICUG_clean_linker_0, # of connection points: 2
#     Edge 54, Type (0, 0), BuildingBlock: OJICUG_clean_linker_0, # of connection points: 2
#     Edge 55, Type (0, 0), BuildingBlock: OJICUG_clean_linker_0, # of connection points: 2
#     Edge 56, Type (0, 0), BuildingBlock: OJICUG_clean_linker_0, # of connection points: 2
#     Edge 57, Type (0, 0), BuildingBlock: OJICUG_clean_linker_0, # of connection points: 2
#     Edge 58, Type (0, 0), BuildingBlock: OJICUG_clean_linker_0, # of connection points: 2
#     Edge 59, Type (0, 0), BuildingBlock: OJICUG_clean_linker_0, # of connection points: 2
#     Edge 60, Type (0, 0), BuildingBlock: OJICUG_clean_linker_0, # of connection points: 2
#     Edge 61, Type (0, 0), BuildingBlock: OJICUG_clean_linker_0, # of connection points: 2
#     Edge 62, Type (0, 0), BuildingBlock: OJICUG_clean_linker_0, # of connection points: 2
#     Edge 63, Type (0, 0), BuildingBlock: OJICUG_clean_linker_0, # of connection points: 2
#     Edge 64, Type (0, 0), BuildingBlock: OJICUG_clean_linker_0, # of connection points: 2
#     Edge 65, Type (0, 0), BuildingBlock: OJICUG_clean_linker_0, # of connection points: 2
#     Edge 66, Type (0, 0), BuildingBlock: OJICUG_clean_linker_0, # of connection points: 2
#     Edge 67, Type (0, 0), BuildingBlock: OJICUG_clean_linker_0, # of connection points: 2
#     Edge 68, Type (0, 0), BuildingBlock: OJICUG_clean_linker_0, # of connection points: 2
#     Edge 69, Type (0, 0), BuildingBlock: OJICUG_clean_linker_0, # of connection points: 2
#     Edge 70, Type (0, 0), BuildingBlock: OJICUG_clean_linker_0, # of connection points: 2
#     Edge 71, Type (0, 0), BuildingBlock: OJICUG_clean_linker_0, # of connection points: 2
# Relax obj value: 0.018
# Max RMSD: 0.032
# Mean RMSD: 0.029
data_MOF--net-rhr--node1-MUDLON_clean_sbu_0--edge1-OJICUG_clean_linker_0
_symmetry_space_group_name_H-M    P1
_symmetry_Int_Tables_number       1
_symmetry_cell_setting            triclinic
loop_
_symmetry_equiv_pos_as_xyz
'x, y, z'
_cell_length_a     38.345851
_cell_length_b     38.413992
_cell_length_c     38.290939
_cell_angle_alpha  89.480534
_cell_angle_beta   89.627124
_cell_angle_gamma 90.404944
loop_
_atom_site_label
_atom_site_type_symbol
_atom_site_fract_x
_atom_site_fract_y
_atom_site_fract_z
_atom_type_partial_charge
Mg0 Mg 0.37403 0.03531 0.35503 0.0
C1 C 0.41343 0.97405 0.3348 0.0
O2 O 0.38406 0.97189 0.31745 0.0
C3 C 0.35546 0.09718 0.40064 0.0
O4 O 0.35441 0.11312 0.3702 0.0
C5 C 0.36698 0.08869 0.29182 0.0
O6 O 0.33359 0.09098 0.29925 0.0
O7 O 0.38607 0.06841 0.3097 0.0
O8 O 0.41771 0.99941 0.35555 0.0
O9 O 0.3276 1.00197 0.35555 0.0
C10 C 0.32965 0.9777 0.3784 0.0
O11 O 0.35836 0.97519 0.39677 0.0
O12 O 0.3664 0.06597 0.40212 0.0
Mg13 Mg 0.035 0.36456 0.38507 0.0
C14 C 0.97959 0.39154 0.34223 0.0
O15 O 0.98269 0.41238 0.36907 0.0
C16 C 0.05922 0.29962 0.42465 0.0
O17 O 0.03454 0.31001 0.44598 0.0
C18 C 0.10385 0.39779 0.36249 0.0
O19 O 0.11278 0.36496 0.36546 0.0
O20 O 0.07313 0.40649 0.37199 0.0
O21 O 1.00084 0.36631 0.33936 0.0
O22 O 0.99546 0.36934 0.42735 0.0
C23 C 0.96936 0.34954 0.42106 0.0
O24 O 0.97084 0.32953 0.39346 0.0
O25 O 0.06411 0.31624 0.39598 0.0
Mg26 Mg 0.70172 0.08835 0.34909 0.0
C27 C 0.66313 0.15588 0.31492 0.0
O28 O 0.69438 0.16561 0.30429 0.0
C29 C 0.76475 0.03235 0.35382 0.0
O30 O 0.76941 0.03767 0.32017 0.0
C31 C 0.66092 0.05424 0.28393 0.0
O32 O 0.66049 0.08668 0.27285 0.0
O33 O 0.67616 0.047 0.31261 0.0
O34 O 0.65965 0.12793 0.33279 0.0
O35 O 0.72695 0.12774 0.3871 0.0
C36 C 0.75994 0.13034 0.39091 0.0
O37 O 0.78053 0.11238 0.37041 0.0
O38 O 0.74034 0.04801 0.36973 0.0
Mg39 Mg 0.98736 0.71436 0.31635 0.0
C40 C 0.01371 0.77419 0.36918 0.0
O41 O 0.98753 0.76351 0.3889 0.0
C42 C 0.94993 0.66495 0.26128 0.0
O43 O 0.95597 0.6912 0.23984 0.0
C44 C 0.91631 0.75615 0.33693 0.0
O45 O 0.9212 0.77427 0.30803 0.0
O46 O 0.93756 0.73206 0.34477 0.0
O47 O 0.01876 0.76002 0.33962 0.0
O48 O 0.03803 0.69241 0.29317 0.0
C49 C 0.04718 0.6896 0.26131 0.0
O50 O 0.02735 0.70263 0.2367 0.0
O51 O 0.95794 0.66774 0.29338 0.0
Mg52 Mg 0.32903 0.97111 0.72234 0.0
C53 C 0.33771 0.0322 0.77626 0.0
O54 O 0.30352 0.03273 0.77459 0.0
C55 C 0.27193 0.93223 0.67853 0.0
O56 O 0.25172 0.94672 0.70196 0.0
C57 C 0.36731 0.92943 0.78322 0.0
O58 O 0.35169 0.95305 0.80221 0.0
O59 O 0.3605 0.92782 0.75064 0.0
O60 O 0.35454 1.01028 0.7583 0.0
O61 O 0.30291 0.01589 0.69215 0.0
C62 C 0.27217 0.02807 0.6943 0.0
O63 O 0.25018 0.01545 0.71767 0.0
O64 O 0.30489 0.9337 0.68244 0.0
Mg65 Mg 0.07593 0.38381 0.70334 0.0
C66 C 0.02428 0.33974 0.67025 0.0
O67 O 0.03265 0.32472 0.69997 0.0
C68 C 0.13806 0.42698 0.71734 0.0
O69 O 0.14583 0.39557 0.72851 0.0
C70 C 0.12743 0.3516 0.66179 0.0
O71 O 0.11821 0.38124 0.64726 0.0
O72 O 0.1136 0.34319 0.69112 0.0
O73 O 0.03791 0.36945 0.66299 0.0
O74 O 0.04432 0.38626 0.7516 0.0
C75 C 0.04402 0.41467 0.76869 0.0
O76 O 0.06673 0.4391 0.76027 0.0
O77 O 0.10859 0.43148 0.70264 0.0
Mg78 Mg 0.67261 0.03687 0.68056 0.0
C79 C 0.64756 0.97559 0.72246 0.0
O80 O 0.63319 0.97122 0.69174 0.0
C81 C 0.71169 0.10162 0.657 0.0
O82 O 0.68161 0.10487 0.64109 0.0
C83 C 0.62582 0.09378 0.70338 0.0
O84 O 0.6558 0.10144 0.71797 0.0
O85 O 0.62427 0.06731 0.68351 0.0
O86 O 0.66743 1.00207 0.72677 0.0
O87 O 0.68086 1.00077 0.63677 0.0
C88 C 0.7018 0.97618 0.64435 0.0
O89 O 0.7154 0.97545 0.67575 0.0
O90 O 0.71619 0.07513 0.6769 0.0
Mg91 Mg 0.9919 0.70594 0.66683 0.0
C92 C 0.03058 0.67446 0.73367 0.0
O93 O 1.00094 0.68107 0.74957 0.0
C94 C 0.94752 0.76713 0.64046 0.0
O95 O 0.96504 0.78036 0.66663 0.0
C96 C 0.92843 0.67041 0.70992 0.0
O97 O 0.92378 0.70162 0.72283 0.0
O98 O 0.95199 0.66594 0.68694 0.0
O99 O 0.03361 0.68054 0.70101 0.0
O100 O 0.03359 0.74196 0.64394 0.0
C101 C 0.05586 0.72948 0.62274 0.0
O102 O 0.05457 0.69613 0.61553 0.0
O103 O 0.95117 0.73491 0.63375 0.0
Mg104 Mg 0.32331 0.37449 1.00732 0.0
C105 C 0.35336 0.33528 0.94828 0.0
O106 O 0.36203 0.36774 0.9412 0.0
C107 C 0.26639 0.40707 0.0464 0.0
O108 O 0.28234 0.43279 0.02997 0.0
C109 C 0.36379 0.36086 0.07181 0.0
O110 O 0.33247 0.34884 0.07938 0.0
O111 O 0.36846 0.37642 0.04252 0.0
O112 O 0.33426 0.32899 0.97507 0.0
O113 O 0.31143 0.41639 0.97017 0.0
C114 C 0.28416 0.40907 0.95271 0.0
O115 O 0.27062 0.37769 0.95608 0.0
O116 O 0.27736 0.37613 0.04194 0.0
Mg117 Mg 0.71481 0.30697 0.98646 0.0
C118 C 0.6635 0.29182 0.04565 0.0
O119 O 0.65534 0.32333 0.03503 0.0
C120 C 0.72081 0.36615 0.93278 0.0
O121 O 0.69157 0.37302 0.94936 0.0
C122 C 0.64892 0.27717 0.9508 0.0
O123 O 0.63582 0.30228 0.96971 0.0
O124 O 0.68181 0.27313 0.95008 0.0
O125 O 0.69021 0.27736 0.03259 0.0
O126 O 0.74762 0.34101 0.02282 0.0
C127 C 0.77823 0.33201 0.03157 0.0
O128 O 0.7903 0.30198 0.02088 0.0
O129 O 0.73697 0.3384 0.94064 0.0
Mg130 Mg 0.72274 0.68424 0.05911 0.0
C131 C 0.72207 0.61412 0.10039 0.0
O132 O 0.69543 0.60984 0.07941 0.0
C133 C 0.67315 0.73754 0.02218 0.0
O134 O 0.65264 0.72438 0.0466 0.0
C135 C 0.77719 0.6605 1.00353 0.0
O136 O 0.79087 0.68991 0.01436 0.0
O137 O 0.74765 0.65092 0.0158 0.0
O138 O 0.73902 0.64272 0.09903 0.0
O139 O 0.70177 0.71851 0.10286 0.0
C140 C 0.67633 0.7115 0.12327 0.0
O141 O 0.66023 0.68133 0.12076 0.0
O142 O 0.7041 0.72584 0.01924 0.0
Mg143 Mg 0.38681 0.70043 0.03837 0.0
C144 C 0.35397 0.67032 0.97773 0.0
O145 O 0.38024 0.65038 0.98652 0.0
C146 C 0.41982 0.77323 0.05482 0.0
O147 O 0.43386 0.77084 0.02356 0.0
C148 C 0.35644 0.63479 0.08154 0.0
O149 O 0.36007 0.61649 0.05296 0.0
O150 O 0.36729 0.66631 0.0818 0.0
O151 O 0.34741 0.69664 0.99678 0.0
O152 O 0.43336 0.69148 1.00568 0.0
C153 C 0.46514 0.69953 1.01082 0.0
O154 O 0.4751 0.70829 0.04232 0.0
O155 O 0.39744 0.75036 0.06472 0.0
Mg156 Mg 0.86505 0.51494 0.85594 0.0
C157 C 0.9195 0.46041 0.83999 0.0
O158 O 0.89069 0.44257 0.83476 0.0
C159 C 0.85367 0.57682 0.90376 0.0
O160 O 0.86885 0.59307 0.87737 0.0
C161 C 0.8791 0.54944 0.78571 0.0
O162 O 0.89575 0.52014 0.78054 0.0
O163 O 0.86157 0.55298 0.81371 0.0
O164 O 0.91713 0.49141 0.85148 0.0
O165 O 0.827 0.47296 0.85449 0.0
C166 C 0.79596 0.47791 0.86501 0.0
O167 O 0.78609 0.50976 0.87215 0.0
O168 O 0.85149 0.54372 0.90334 0.0
Mg169 Mg 0.55155 0.83586 0.87379 0.0
C170 C 0.59763 0.88547 0.83487 0.0
O171 O 0.59343 0.89996 0.86555 0.0
C172 C 0.54789 0.76044 0.89949 0.0
O173 O 0.58151 0.76499 0.90383 0.0
C174 C 0.48822 0.85698 0.83786 0.0
O175 O 0.5028 0.83296 0.8185 0.0
O176 O 0.50318 0.8653 0.86633 0.0
O177 O 0.58414 0.85538 0.82999 0.0
O178 O 0.58162 0.83937 0.92219 0.0
C179 C 0.61386 0.83154 0.92016 0.0
O180 O 0.6285 0.83052 0.88907 0.0
O181 O 0.53143 0.78224 0.88052 0.0
Mg182 Mg 0.2015 0.58589 0.84313 0.0
C183 C 0.15212 0.62917 0.81031 0.0
O184 O 0.18282 0.63447 0.79564 0.0
C185 C 0.20397 0.51302 0.87808 0.0
O186 O 0.18391 0.50335 0.85217 0.0
C187 C 0.21859 0.53311 0.78473 0.0
O188 O 0.24264 0.52156 0.80612 0.0
O189 O 0.20347 0.56155 0.7917 0.0
O190 O 0.15054 0.60977 0.83747 0.0
O191 O 0.23909 0.62556 0.85926 0.0
C192 C 0.26913 0.61437 0.86731 0.0
O193 O 0.27704 0.58219 0.85919 0.0
O194 O 0.2108 0.54516 0.88198 0.0
Mg195 Mg 0.48185 0.18799 0.83783 0.0
C196 C 0.41825 0.14473 0.83158 0.0
O197 O 0.40709 0.17577 0.82265 0.0
C198 C 0.55352 0.19345 0.87067 0.0
O199 O 0.56354 0.18346 0.83949 0.0
C200 C 0.50696 0.15745 0.76894 0.0
O201 O 0.48008 0.13682 0.77481 0.0
O202 O 0.51127 0.18386 0.7885 0.0
O203 O 0.44967 0.1414 0.84152 0.0
O204 O 0.44732 0.23182 0.84936 0.0
C205 C 0.43095 0.22735 0.87822 0.0
O206 O 0.43594 0.19826 0.89577 0.0
O207 O 0.52112 0.19383 0.87803 0.0
Mg208 Mg 0.86132 0.47742 0.17678 0.0
C209 C 0.89229 0.53479 0.21179 0.0
O210 O 0.87339 0.51679 0.23437 0.0
C211 C 0.85752 0.41849 0.12553 0.0
O212 O 0.87196 0.40234 0.15206 0.0
C213 C 0.87444 0.43533 0.24509 0.0
O214 O 0.84537 0.44953 0.25618 0.0
O215 O 0.88466 0.44122 0.21398 0.0
O216 O 0.89421 0.52389 0.18047 0.0
O217 O 0.81161 0.50185 0.18821 0.0
C218 C 0.78604 0.49689 0.16783 0.0
O219 O 0.78572 0.46879 0.14855 0.0
O220 O 0.85348 0.45132 0.12696 0.0
Mg221 Mg 0.552 0.87326 0.20496 0.0
C222 C 0.49114 0.84994 0.16296 0.0
O223 O 0.48272 0.84097 0.19513 0.0
C224 C 0.57823 0.94894 0.2138 0.0
O225 O 0.5453 0.9563 0.20829 0.0
C226 C 0.61279 0.82761 0.19234 0.0
O227 O 0.62557 0.85853 0.18446 0.0
O228 O 0.58207 0.82551 0.20492 0.0
O229 O 0.51939 0.86717 0.15797 0.0
O230 O 0.51644 0.8783 0.24884 0.0
C231 C 0.52472 0.89507 0.2761 0.0
O232 O 0.55726 0.90503 0.28022 0.0
O233 O 0.58825 0.91756 0.21081 0.0
Mg234 Mg 0.19579 0.5329 0.20352 0.0
C235 C 0.25491 0.58441 0.18355 0.0
O236 O 0.23014 0.60699 0.1898 0.0
C237 C 0.19276 0.48228 0.27132 0.0
O238 O 0.22511 0.47304 0.26507 0.0
C239 C 0.19686 0.46591 0.16277 0.0
O240 O 0.20538 0.45377 0.1937 0.0
O241 O 0.18803 0.49772 0.15988 0.0
O242 O 0.24927 0.55235 0.19101 0.0
O243 O 0.15998 0.57678 0.20273 0.0
C244 C 0.15852 0.59333 0.23135 0.0
O245 O 0.17939 0.58391 0.25678 0.0
O246 O 0.17857 0.50499 0.25168 0.0
Mg247 Mg 0.50293 0.23378 0.18626 0.0
C248 C 0.56782 0.22378 0.14138 0.0
O249 O 0.58054 0.21146 0.17072 0.0
C250 C 0.43832 0.1915 0.20579 0.0
O251 O 0.42441 0.22259 0.20369 0.0
C252 C 0.47606 0.2997 0.15065 0.0
O253 O 0.50717 0.2985 0.13621 0.0
O254 O 0.46853 0.2781 0.17513 0.0
O255 O 0.53546 0.23071 0.1397 0.0
O256 O 0.54115 0.23658 0.22859 0.0
C257 C 0.53909 0.21456 0.25363 0.0
O258 O 0.51048 0.19582 0.25708 0.0
O259 O 0.47029 0.18789 0.19738 0.0
Mg260 Mg 0.81628 0.87225 0.48817 0.0
C261 C 0.76454 0.87878 0.54901 0.0
O262 O 0.78474 0.85495 0.56285 0.0
C263 C 0.82728 0.80673 0.44692 0.0
O264 O 0.83435 0.79487 0.47835 0.0
C265 C 0.83466 0.92447 0.43107 0.0
O266 O 0.84188 0.89604 0.41375 0.0
O267 O 0.82918 0.92222 0.46386 0.0
O268 O 0.76911 0.88712 0.51707 0.0
O269 O 0.85452 0.8484 0.52318 0.0
C270 C 0.86554 0.85907 0.55247 0.0
O271 O 0.8556 0.88961 0.56388 0.0
O272 O 0.81349 0.83665 0.44397 0.0
Mg273 Mg 0.17234 0.86581 0.48945 0.0
C274 C 0.12557 0.8518 0.43155 0.0
O275 O 0.15622 0.84047 0.4214 0.0
C276 C 0.21539 0.88803 0.54592 0.0
O277 O 0.23207 0.86354 0.52901 0.0
C278 C 0.13893 0.82523 0.54035 0.0
O279 O 0.12766 0.85744 0.54109 0.0
O280 O 0.16229 0.81749 0.51789 0.0
O281 O 0.12362 0.86838 0.46019 0.0
O282 O 0.21581 0.87423 0.45327 0.0
C283 C 0.21211 0.90055 0.43314 0.0
O284 O 0.1822 0.91702 0.43356 0.0
O285 O 0.18627 0.89839 0.53384 0.0
Mg286 Mg 0.20483 0.18237 0.54486 0.0
C287 C 0.19901 0.25595 0.57198 0.0
O288 O 0.19695 0.26303 0.53843 0.0
C289 C 0.26048 0.14444 0.50656 0.0
O290 O 0.24264 0.1192 0.52179 0.0
C291 C 0.16362 0.20852 0.48317 0.0
O292 O 0.19566 0.21228 0.47131 0.0
O293 O 0.1589 0.19358 0.51275 0.0
O294 O 0.2058 0.22506 0.58161 0.0
O295 O 0.20454 0.13783 0.58074 0.0
C296 C 0.23292 0.13761 0.59789 0.0
O297 O 0.25572 0.16272 0.59196 0.0
O298 O 0.25085 0.17577 0.51116 0.0
Mg299 Mg 0.85867 0.24297 0.56052 0.0
C300 C 0.81693 0.20677 0.50829 0.0
O301 O 0.79497 0.22418 0.52787 0.0
C302 C 0.93266 0.26398 0.57653 0.0
O303 O 0.93118 0.27314 0.54348 0.0
C304 C 0.82293 0.19547 0.61196 0.0
O305 O 0.85396 0.18156 0.60855 0.0
O306 O 0.81729 0.22472 0.59691 0.0
O307 O 0.8494 0.2087 0.5155 0.0
O308 O 0.86173 0.2963 0.53899 0.0
C309 C 0.85633 0.30186 0.50666 0.0
O310 O 0.83659 0.27968 0.48981 0.0
O311 O 0.90818 0.24492 0.58922 0.0
C312 C 0.29947 0.15758 0.45491 0.0
C313 C 0.28947 0.13542 0.48263 0.0
H314 H 0.32853 0.1629 0.40709 0.0
C315 C 0.30519 0.10258 0.48558 0.0
H316 H 0.28784 0.18305 0.45201 0.0
C317 C 0.32871 0.09118 0.46022 0.0
C318 C 0.33674 0.11218 0.43099 0.0
H319 H 0.29834 0.08507 0.50692 0.0
H320 H 0.33903 0.0651 0.4626 0.0
C321 C 0.32276 0.14598 0.42919 0.0
C322 C 0.90634 0.33628 0.42874 0.0
C323 C 0.93796 0.3469 0.44382 0.0
H324 H 0.85536 0.31495 0.43675 0.0
C325 C 0.93964 0.34984 0.48032 0.0
H326 H 0.90393 0.33452 0.40062 0.0
C327 C 0.91133 0.33868 0.50133 0.0
C328 C 0.88119 0.32411 0.48607 0.0
H329 H 0.96357 0.35821 0.49267 0.0
H330 H 0.91417 0.33901 0.52943 0.0
C331 C 0.87832 0.32519 0.44953 0.0
C332 C 0.80449 0.98209 0.42905 0.0
C333 C 0.82286 0.95581 0.41163 0.0
H334 H 0.77163 0.02662 0.42446 0.0
C335 C 0.82504 0.9572 0.37492 0.0
H336 H 0.80228 0.98196 0.45727 0.0
C337 C 0.80739 0.98295 0.35602 0.0
C338 C 0.78697 1.00764 0.37345 0.0
H339 H 0.83905 0.93742 0.36065 0.0
H340 H 0.80847 0.98252 0.32776 0.0
C341 C 0.78662 1.00757 0.41019 0.0
C342 C 0.09736 0.82606 0.37921 0.0
C343 C 0.09412 0.83876 0.41339 0.0
H344 H 0.07455 0.79618 0.33833 0.0
C345 C 0.0624 0.8337 0.43136 0.0
H346 H 0.12143 0.82967 0.36461 0.0
C347 C 0.03547 0.81406 0.41636 0.0
C348 C 0.0397 0.79936 0.38303 0.0
H349 H 0.05917 0.84298 0.45781 0.0
H350 H 1.01197 0.80916 0.43152 0.0
C351 C 0.07046 0.80674 0.36416 0.0
C352 C 0.26414 0.89235 0.5887 0.0
C353 C 0.22959 0.9004 0.57958 0.0
H354 H 0.30447 0.89572 0.62695 0.0
C355 C 0.20874 0.91823 0.60371 0.0
H356 H 0.28094 0.87855 0.57076 0.0
C357 C 0.22218 0.92763 0.6363 0.0
C358 C 0.25685 0.9197 0.64528 0.0
H359 H 0.18196 0.92451 0.59762 0.0
H360 H 0.20553 0.9416 0.65423 0.0
C361 C 0.27765 0.90202 0.62103 0.0
C362 C 0.16429 0.33931 0.60954 0.0
C363 C 0.15055 0.32803 0.64194 0.0
H364 H 0.19059 0.32555 0.56229 0.0
C365 C 0.15693 0.29375 0.65309 0.0
H366 H 0.16031 0.36569 0.60022 0.0
C367 C 0.17483 0.2707 0.63125 0.0
C368 C 0.18637 0.28151 0.59781 0.0
H369 H 0.14685 0.28433 0.67795 0.0
H370 H 0.17793 0.24396 0.63982 0.0
C371 C 0.1818 0.31632 0.5877 0.0
C372 C 0.80164 0.14365 0.64704 0.0
C373 C 0.79412 0.17427 0.62799 0.0
H374 H 0.78178 0.09693 0.67152 0.0
C375 C 0.75904 0.18207 0.62136 0.0
H376 H 0.82837 0.1368 0.65271 0.0
C377 C 0.73237 0.15898 0.63188 0.0
C378 C 0.73999 0.12762 0.64961 0.0
H379 H 0.75222 0.20524 0.60668 0.0
H380 H 0.70574 0.16535 0.62525 0.0
C381 C 0.77491 0.12072 0.65789 0.0
C382 C 0.91995 0.82495 0.62787 0.0
C383 C 0.92587 0.79021 0.61815 0.0
H384 H 0.89649 0.87383 0.61495 0.0
C385 C 0.91203 0.77844 0.58644 0.0
H386 H 0.93026 0.83496 0.65209 0.0
C387 C 0.89293 0.80092 0.56493 0.0
C388 C 0.88696 0.83566 0.57472 0.0
H389 H 0.91623 0.75194 0.57804 0.0
H390 H 0.88264 0.79093 0.5407 0.0
C391 C 0.90065 0.84734 0.60651 0.0
C392 C 0.42818 0.35491 0.08364 0.0
C393 C 0.39338 0.35105 0.0948 0.0
H394 H 0.48167 0.34209 0.09274 0.0
C395 C 0.38668 0.33402 0.12693 0.0
H396 H 0.43432 0.36791 0.05912 0.0
C397 C 0.41375 0.31912 0.14619 0.0
C398 C 0.44831 0.32091 0.13389 0.0
H399 H 0.36023 0.3308 0.13657 0.0
H400 H 0.40733 0.30484 0.16992 0.0
C401 C 0.45534 0.34002 0.10298 0.0
C402 C 0.84866 0.36262 0.0935 0.0
C403 C 0.84004 0.39779 0.09812 0.0
H404 H 0.83612 0.3144 0.06872 0.0
C405 C 0.81196 0.41166 0.07921 0.0
H406 H 0.87011 0.35114 0.10771 0.0
C407 C 0.79197 0.39038 0.05743 0.0
C408 C 0.80005 0.35496 0.05359 0.0
H409 H 0.8045 0.4386 0.0823 0.0
H410 H 0.76999 0.40161 0.04386 0.0
C411 C 0.82909 0.34153 0.07125 0.0
C412 C 0.68006 0.7712 0.14853 0.0
C413 C 0.66227 0.73922 0.14595 0.0
H414 H 0.67866 0.82391 0.16575 0.0
C415 C 0.62976 0.73527 0.16279 0.0
H416 H 0.70533 0.77505 0.13623 0.0
C417 C 0.61438 0.76346 0.17985 0.0
C418 C 0.63127 0.79608 0.18038 0.0
H419 H 0.61544 0.71092 0.16146 0.0
H420 H 0.58857 0.76012 0.1911 0.0
C421 C 0.66476 0.79926 0.16555 0.0
C422 C 0.29573 0.63099 0.16075 0.0
C423 C 0.28563 0.59568 0.1619 0.0
H424 H 0.32634 0.67081 0.13534 0.0
C425 C 0.30195 0.57264 0.13866 0.0
H426 H 0.28371 0.64949 0.1782 0.0
C427 C 0.32603 0.58503 0.11349 0.0
C428 C 0.33493 0.62066 0.11132 0.0
H429 H 0.29461 0.54536 0.13854 0.0
H430 H 0.33682 0.56682 0.09496 0.0
C431 C 0.32026 0.64324 0.13609 0.0
C432 C 0.47272 0.71559 0.94734 0.0
C433 C 0.48775 0.70822 0.98009 0.0
H434 H 0.47979 0.73801 0.89618 0.0
C435 C 0.52374 0.71375 0.98408 0.0
H436 H 0.44503 0.71178 0.94328 0.0
C437 C 0.5438 0.72808 0.9567 0.0
C438 C 0.52822 0.73807 0.92493 0.0
H439 H 0.53617 0.70835 1.00885 0.0
H440 H 0.57115 0.73335 0.96136 0.0
C441 C 0.49262 0.73071 0.92025 0.0
C442 C 0.27197 0.4716 0.93694 0.0
C443 C 0.26478 0.43597 0.93283 0.0
H444 H 0.25797 0.52392 0.92354 0.0
C445 C 0.23684 0.42603 0.91136 0.0
H446 H 0.29303 0.48014 0.9536 0.0
C447 C 0.21664 0.45102 0.89428 0.0
C448 C 0.22365 0.48665 0.89843 0.0
H449 H 0.23046 0.39879 0.90771 0.0
H450 H 0.19561 0.44233 0.87766 0.0
C451 C 0.25155 0.49667 0.92003 0.0
C452 C 0.56663 0.23126 0.92183 0.0
C453 C 0.57871 0.21105 0.89391 0.0
H454 H 0.57926 0.26818 0.96128 0.0
C455 C 0.61464 0.21112 0.88613 0.0
H456 H 0.53915 0.23191 0.92853 0.0
C457 C 0.63776 0.23194 0.90509 0.0
C458 C 0.6253 0.25342 0.93185 0.0
H459 H 0.62479 0.19581 0.86478 0.0
H460 H 0.66518 0.23201 0.89809 0.0
C461 C 0.58961 0.25235 0.94042 0.0
C462 C 0.82481 0.65295 0.95912 0.0
C463 C 0.79681 0.63858 0.97843 0.0
H464 H 0.86461 0.64481 0.92061 0.0
C465 C 0.78862 0.60312 0.97412 0.0
H466 H 0.83192 0.68013 0.96184 0.0
C467 C 0.80792 0.58262 0.95089 0.0
C468 C 0.83545 0.59728 0.93105 0.0
H469 H 0.76741 0.59117 0.98882 0.0
H470 H 0.80068 0.55551 0.94781 0.0
C471 C 0.84366 0.63266 0.93553 0.0
C472 C 0.11529 0.45343 0.3282 0.0
C473 C 0.1277 0.42247 0.34343 0.0
H474 H 0.12591 0.49653 0.29355 0.0
C475 C 0.16265 0.41321 0.33711 0.0
H476 H 0.08853 0.46133 0.33233 0.0
C477 C 0.18414 0.43342 0.31501 0.0
C478 C 0.17126 0.46337 0.29828 0.0
H479 H 0.17322 0.38964 0.34845 0.0
H480 H 0.21051 0.42475 0.31006 0.0
C481 C 0.13674 0.47353 0.30579 0.0
C482 C 0.08704 0.63877 0.80705 0.0
C483 C 0.12051 0.64161 0.79206 0.0
H484 H 0.03212 0.64713 0.80036 0.0
C485 C 0.12387 0.65517 0.75793 0.0
H486 H 0.0836 0.62829 0.83321 0.0
C487 C 0.09464 0.66527 0.73905 0.0
C488 C 0.06117 0.66259 0.75388 0.0
H489 H 0.14917 0.65758 0.74537 0.0
H490 H 0.0984 0.67551 0.71283 0.0
C491 C 0.05762 0.64946 0.7882 0.0
C492 C 0.34091 0.09056 0.80433 0.0
C493 C 0.35694 0.05899 0.79583 0.0
H494 H 0.34796 0.14259 0.82258 0.0
C495 C 0.39241 0.05437 0.80361 0.0
H496 H 0.3136 0.09481 0.79875 0.0
C497 C 0.41198 0.08157 0.8177 0.0
C498 C 0.39652 0.11399 0.82375 0.0
H499 H 0.40533 0.03012 0.79769 0.0
H500 H 0.43962 0.0778 0.82191 0.0
C501 C 0.3606 0.11791 0.81793 0.0
C502 C 0.98356 0.46727 0.82636 0.0
C503 C 0.95335 0.44638 0.82723 0.0
H504 H 0.03601 0.47339 0.80776 0.0
C505 C 0.95487 0.4129 0.81254 0.0
H506 H 0.98344 0.49308 0.83751 0.0
C507 C 0.98508 0.40153 0.79539 0.0
C508 C 0.01452 0.42337 0.79249 0.0
H509 H 0.93219 0.39594 0.81292 0.0
H510 H 0.9847 0.37633 0.78292 0.0
C511 C 0.01375 0.4559 0.80923 0.0
C512 C 0.62165 0.91899 0.744 0.0
C513 C 0.63867 0.95074 0.75137 0.0
H514 H 0.59588 0.87324 0.7643 0.0
C515 C 0.64479 0.95911 0.78642 0.0
H516 H 0.6167 0.91153 0.71727 0.0
C517 C 0.63262 0.93714 0.81341 0.0
C518 C 0.61436 0.90607 0.80605 0.0
H519 H 0.65782 0.98324 0.79307 0.0
H520 H 0.63676 0.94502 0.84017 0.0
C521 C 0.60981 0.89686 0.77097 0.0
C522 C 0.93314 0.62536 0.21188 0.0
C523 C 0.93562 0.63166 0.24799 0.0
H524 H 0.91801 0.58946 0.17182 0.0
C525 C 0.92511 0.60538 0.27154 0.0
H526 H 0.94133 0.645 0.19302 0.0
C527 C 0.91185 0.57387 0.25944 0.0
C528 C 0.90898 0.56756 0.22343 0.0
H529 H 0.9268 0.60922 0.29948 0.0
H530 H 0.90364 0.55442 0.2785 0.0
C531 C 0.92009 0.59349 0.19969 0.0
C532 C 0.47676 0.95772 0.33461 0.0
C533 C 0.44198 0.9498 0.32637 0.0
H534 H 0.53059 0.94617 0.32536 0.0
C535 C 0.4348 0.92017 0.30632 0.0
H536 H 0.48308 0.98028 0.35017 0.0
C537 C 0.46187 0.90062 0.29223 0.0
C538 C 0.49675 0.91031 0.29781 0.0
H539 H 0.40821 0.91302 0.3 0.0
H540 H 0.45538 0.8791 0.27531 0.0
C541 C 0.50397 0.93812 0.32041 0.0
C542 C 0.59822 0.16382 0.31403 0.0
C543 C 0.63158 0.17474 0.30282 0.0
H544 H 0.54306 0.1683 0.30791 0.0
C545 C 0.63413 0.20211 0.27822 0.0
H546 H 0.59518 0.14305 0.33315 0.0
C547 C 0.60402 0.21675 0.26368 0.0
C548 C 0.57071 0.20433 0.27346 0.0
H549 H 0.65938 0.21131 0.2691 0.0
H550 H 0.60695 0.23662 0.24361 0.0
C551 C 0.56823 0.17843 0.29958 0.0
C552 C 0.71093 0.95493 0.58258 0.0
C553 C 0.7124 0.9492 0.61886 0.0
H554 H 0.72617 0.93704 0.53175 0.0
C555 C 0.7271 0.91805 0.63127 0.0
H556 H 0.69973 0.97864 0.57221 0.0
C557 C 0.74184 0.89417 0.60829 0.0
C558 C 0.74266 0.90085 0.57216 0.0
H559 H 0.72823 0.91253 0.65903 0.0
H560 H 0.75408 0.87119 0.61913 0.0
C561 C 0.72607 0.93104 0.55944 0.0
C562 C 0.10237 0.81124 0.59237 0.0
C563 C 0.12219 0.79932 0.5639 0.0
H564 H 0.06622 0.79868 0.63325 0.0
C565 C 0.12271 0.76354 0.55689 0.0
H566 H 0.10176 0.83864 0.59878 0.0
C567 C 0.1021 0.74042 0.57687 0.0
C568 C 0.08078 0.7528 0.60413 0.0
H569 H 0.13773 0.75366 0.53513 0.0
H570 H 0.10192 0.7131 0.57014 0.0
C571 C 0.08194 0.78831 0.61221 0.0
C572 C 0.21642 0.08788 0.63834 0.0
C573 C 0.24202 0.10906 0.62231 0.0
H574 H 0.20585 0.04587 0.67441 0.0
C575 C 0.27728 0.10334 0.63024 0.0
H576 H 0.18906 0.09177 0.63277 0.0
C577 C 0.28686 0.07703 0.6535 0.0
C578 C 0.2614 0.0561 0.66996 0.0
H579 H 0.29768 0.11907 0.61819 0.0
H580 H 0.3143 0.07332 0.65884 0.0
C581 C 0.22603 0.06182 0.66229 0.0
C582 C 0.97743 0.3109 0.58768 0.0
C583 C 0.95793 0.28189 0.59989 0.0
H584 H 0.01306 0.35239 0.6002 0.0
C585 C 0.96053 0.27241 0.63526 0.0
H586 H 0.97588 0.31923 0.56064 0.0
C587 C 0.98188 0.29144 0.65782 0.0
C588 C 1.00094 0.32077 0.64581 0.0
H589 H 0.94578 0.25047 0.64565 0.0
H590 H 0.98317 0.28325 0.68492 0.0
C591 C 0.99851 0.33023 0.61041 0.0
C592 C 0.75315 0.16894 0.44306 0.0
C593 C 0.77502 0.15093 0.42002 0.0
H594 H 0.74913 0.20021 0.48864 0.0
C595 C 0.81128 0.15156 0.42606 0.0
H596 H 0.72517 0.16901 0.43937 0.0
C597 C 0.82523 0.16954 0.45463 0.0
C598 C 0.8032 0.18728 0.4778 0.0
H599 H 0.82895 0.13787 0.4089 0.0
H600 H 0.85316 0.16946 0.45861 0.0
C601 C 0.76702 0.18681 0.47148 0.0
C602 C 0.88485 0.74724 0.39401 0.0
C603 C 0.88887 0.76608 0.36254 0.0
H604 H 0.8617 0.74483 0.44492 0.0
C605 C 0.86826 0.79579 0.3572 0.0
H606 H 0.89994 0.724 0.39892 0.0
C607 C 0.84602 0.80771 0.3837 0.0
C608 C 0.84402 0.79022 0.41614 0.0
H609 H 0.87042 0.81076 0.33317 0.0
H610 H 0.83187 0.83163 0.37937 0.0
C611 C 0.86273 0.75914 0.42043 0.0
C612 C 0.3048 0.92511 0.40863 0.0
C613 C 0.2997 0.95463 0.38724 0.0
H614 H 0.2812 0.88444 0.43945 0.0
C615 C 0.26563 0.96335 0.37748 0.0
H616 H 0.33079 0.91746 0.41633 0.0
C617 C 0.23714 0.94443 0.39091 0.0
C618 C 0.24219 0.91624 0.41409 0.0
H619 H 0.26086 0.98585 0.36098 0.0
H620 H 0.21109 0.95281 0.38423 0.0
C621 C 0.27637 0.90603 0.42179 0.0
C622 C 0.14056 0.24421 0.43311 0.0
C623 C 0.13469 0.22713 0.46536 0.0
H624 H 0.12136 0.28016 0.39469 0.0
C625 C 0.1022 0.23123 0.48196 0.0
H626 H 0.16522 0.24155 0.41947 0.0
C627 C 0.0771 0.2535 0.46776 0.0
C628 C 0.08373 0.2721 0.43651 0.0
H629 H 0.09671 0.21851 0.50677 0.0
H630 H 0.05292 0.25706 0.48202 0.0
C631 C 0.11536 0.26636 0.41881 0.0
C632 C 0.67976 0.77752 0.96994 0.0
C633 C 0.65966 0.76497 0.99822 0.0
H634 H 0.68135 0.80911 0.92358 0.0
C635 C 0.62581 0.77821 1.00297 0.0
H636 H 0.70602 0.76819 0.96566 0.0
C637 C 0.61173 0.80197 0.97903 0.0
C638 C 0.63109 0.81297 0.9496 0.0
H639 H 0.60964 0.76943 0.02465 0.0
H640 H 0.585 0.81021 0.98266 0.0
C641 C 0.66563 0.8012 0.94592 0.0
C642 C 0.34651 0.63554 0.9237 0.0
C643 C 0.33312 0.66067 0.94661 0.0
H644 H 0.33722 0.60199 0.88055 0.0
C645 C 0.29964 0.67396 0.94028 0.0
H646 H 0.37242 0.62508 0.92727 0.0
C647 C 0.27928 0.66063 0.91291 0.0
C648 C 0.29213 0.63384 0.89151 0.0
H649 H 0.28865 0.69343 0.95733 0.0
H650 H 0.25291 0.66999 0.90971 0.0
C651 C 0.32635 0.62233 0.89665 0.0
C652 C 0.38934 0.31466 0.89754 0.0
C653 C 0.36951 0.30685 0.92779 0.0
H654 H 0.42408 0.29577 0.8579 0.0
C655 C 0.36787 0.2722 0.93964 0.0
H656 H 0.39107 0.34109 0.88756 0.0
C657 C 0.38696 0.24633 0.92271 0.0
C658 C 0.40799 0.2544 0.89337 0.0
H659 H 0.35287 0.26524 0.96277 0.0
H660 H 0.38586 0.22007 0.93322 0.0
C661 C 0.40827 0.2887 0.88044 0.0
C662 C 0.76985 0.38692 0.89402 0.0
C663 C 0.73731 0.39291 0.90986 0.0
H664 H 0.81374 0.40897 0.86679 0.0
C665 C 0.72221 0.42602 0.90641 0.0
H666 H 0.78207 0.36164 0.89592 0.0
C667 C 0.74041 0.45321 0.88983 0.0
C668 C 0.77401 0.44785 0.87615 0.0
H669 H 0.69704 0.43148 0.91803 0.0
H670 H 0.72878 0.47882 0.88919 0.0
C671 C 0.78798 0.41408 0.87723 0.0
C672 C 0.60344 0.27968 0.06761 0.0
C673 C 0.6392 0.27221 0.06866 0.0
H674 H 0.55272 0.2692 0.08856 0.0
C675 C 0.65099 0.24603 0.09143 0.0
H676 H 0.59352 0.29924 0.04977 0.0
C677 C 0.62755 0.22904 0.11422 0.0
C678 C 0.59185 0.23736 0.11393 0.0
H679 H 0.67841 0.23957 0.09246 0.0
H680 H 0.63749 0.21003 0.13262 0.0
C681 C 0.57998 0.26217 0.08965 0.0
C682 C 0.73662 0.52228 0.13387 0.0
C683 C 0.76457 0.52704 0.15694 0.0
H684 H 0.70106 0.54605 0.09819 0.0
C685 C 0.77547 0.56122 0.16452 0.0
H686 H 0.72754 0.49635 0.12752 0.0
C687 C 0.76069 0.58972 0.14722 0.0
C688 C 0.73436 0.58473 0.12237 0.0
H689 H 0.79698 0.56591 0.1821 0.0
H690 H 0.77084 0.61555 0.15234 0.0
C691 C 0.72154 0.55082 0.11693 0.0
C692 C 0.46539 0.81729 0.07288 0.0
C693 C 0.4349 0.7979 0.0807 0.0
H694 H 0.50711 0.84916 0.09249 0.0
C695 C 0.42125 0.79937 0.11479 0.0
H696 H 0.47672 0.81681 0.04691 0.0
C697 C 0.43864 0.81793 0.14081 0.0
C698 C 0.47026 0.83556 0.13359 0.0
H699 H 0.39779 0.78501 0.12183 0.0
H700 H 0.42788 0.81729 0.16703 0.0
C701 C 0.48288 0.8359 0.09902 0.0
C702 C 0.22148 0.44705 0.0695 0.0
C703 C 0.24031 0.416 0.07334 0.0
H704 H 0.19213 0.48684 0.09459 0.0
C705 C 0.23883 0.39804 0.10538 0.0
H706 H 0.22192 0.46126 0.04491 0.0
C707 C 0.2219 0.41292 0.13413 0.0
C708 C 0.20611 0.44585 0.13113 0.0
H709 H 0.2532 0.37412 0.10905 0.0
H710 H 0.2234 0.39979 0.15921 0.0
C711 C 0.20439 0.46174 0.09802 0.0
C712 C 0.87609 0.61363 0.77296 0.0
C713 C 0.88631 0.58006 0.76283 0.0
H714 H 0.88124 0.66861 0.76412 0.0
C715 C 0.90696 0.57651 0.73265 0.0
H716 H 0.86011 0.61732 0.79603 0.0
C717 C 0.91899 0.60589 0.71434 0.0
C718 C 0.91079 0.63957 0.72584 0.0
H719 H 0.91511 0.55106 0.72396 0.0
H720 H 0.93603 0.60215 0.69203 0.0
C721 C 0.88826 0.64309 0.75468 0.0
C722 C 0.92856 0.40096 0.25821 0.0
C723 C 0.89869 0.41864 0.27009 0.0
H724 H 0.97761 0.37781 0.27189 0.0
C725 C 0.89427 0.42365 0.30609 0.0
H726 H 0.93264 0.39657 0.23059 0.0
C727 C 0.92016 0.41346 0.32943 0.0
C728 C 0.9508 0.39747 0.31744 0.0
H729 H 0.87166 0.43708 0.31618 0.0
H730 H 0.91658 0.41899 0.35692 0.0
C731 C 0.95428 0.39015 0.28177 0.0
C732 C 0.64881 0.99146 0.2688 0.0
C733 C 0.64157 0.02705 0.26426 0.0
H734 H 0.63516 0.93889 0.25565 0.0
C735 C 0.61475 0.03664 0.24124 0.0
H736 H 0.66936 0.98319 0.28622 0.0
C737 C 0.59483 1.01132 0.22419 0.0
C738 C 0.60174 0.97574 0.22901 0.0
H739 H 0.60837 0.0638 0.23718 0.0
H740 H 0.57368 0.01962 0.20751 0.0
C741 C 0.62938 0.9661 0.25106 0.0
C742 C 0.10922 0.63145 0.21104 0.0
C743 C 0.13204 0.62062 0.23754 0.0
H744 H 0.06468 0.66217 0.19761 0.0
C745 C 0.12828 0.63487 0.27105 0.0
H746 H 0.11151 0.62108 0.18493 0.0
C747 C 0.10146 0.65815 0.27835 0.0
C748 C 0.07786 0.66808 0.25226 0.0
H749 H 0.14545 0.62728 0.2921 0.0
H750 H 0.0988 0.6678 0.30472 0.0
C751 C 0.08247 0.65509 0.2183 0.0
C752 C 0.43598 0.13254 0.2347 0.0
C753 C 0.41869 0.16266 0.22327 0.0
H754 H 0.43324 0.08561 0.26518 0.0
C755 C 0.38316 0.16648 0.23178 0.0
H756 H 0.46332 0.12872 0.22867 0.0
C757 C 0.3658 0.14162 0.25265 0.0
C758 C 0.38366 0.11253 0.26575 0.0
H759 H 0.36898 0.18929 0.22328 0.0
H760 H 0.33879 0.14601 0.2597 0.0
C761 C 0.41872 0.10786 0.2558 0.0
C762 C 0.19509 0.44925 0.73942 0.0
C763 C 0.16137 0.45638 0.72702 0.0
H764 H 0.23992 0.46796 0.76664 0.0
C765 C 0.14924 0.49076 0.72845 0.0
H766 H 0.2055 0.42314 0.7383 0.0
C767 C 0.16922 0.51669 0.74471 0.0
C768 C 0.2017 0.50871 0.75987 0.0
H769 H 0.12345 0.49715 0.71909 0.0
H770 H 0.15815 0.5424 0.74736 0.0
C771 C 0.21499 0.47504 0.75561 0.0
C772 C 0.56894 0.16096 0.74735 0.0
C773 C 0.53578 0.14527 0.74592 0.0
H774 H 0.62323 0.15706 0.73486 0.0
C775 C 0.53176 0.11479 0.72606 0.0
H776 H 0.57308 0.18446 0.76223 0.0
C777 C 0.56064 0.09906 0.71014 0.0
C778 C 0.5942 0.11334 0.71399 0.0
H779 H 0.50656 0.10205 0.72422 0.0
H780 H 0.55693 0.0747 0.69659 0.0
C781 C 0.59779 0.14511 0.73172 0.0
C782 C 0.43854 0.89931 0.84533 0.0
C783 C 0.45591 0.87428 0.82528 0.0
H784 H 0.39671 0.93593 0.84806 0.0
C785 C 0.4425 0.86609 0.79214 0.0
H786 H 0.44803 0.90617 0.87097 0.0
C787 C 0.41319 0.88314 0.77893 0.0
C788 C 0.39624 0.90873 0.79857 0.0
H789 H 0.45505 0.84686 0.77591 0.0
H790 H 0.4042 0.87667 0.75301 0.0
C791 C 0.40899 0.91624 0.83218 0.0
loop_
_geom_bond_atom_site_label_1
_geom_bond_atom_site_label_2
_geom_bond_distance
_geom_bond_site_symmetry_2
_ccdc_geom_bond_type
Mg0 O7 2.141 . S
Mg0 O8 2.048 1_545 S
Mg0 O9 2.048 1_545 S
Mg0 O12 2.141 . S
C1 O2 1.313 . S
C1 O8 1.195 . S
O2 C1 1.313 . S
C3 O4 1.245 . S
C3 O12 1.289 . S
O4 C3 1.245 . S
C5 O6 1.245 . S
C5 O7 1.289 . S
O6 C5 1.245 . S
O7 Mg0 2.141 . S
O7 C5 1.289 . S
O8 Mg0 2.048 1_565 S
O8 C1 1.195 . S
O9 Mg0 2.048 1_565 S
O9 C10 1.195 . S
C10 O9 1.195 . S
C10 O11 1.313 . S
O11 C10 1.313 . S
O12 Mg0 2.141 . S
O12 C3 1.289 . S
Mg13 O20 2.141 . S
Mg13 O21 2.048 1_455 S
Mg13 O22 2.048 1_455 S
Mg13 O25 2.141 . S
C14 O15 1.313 . S
C14 O21 1.195 . S
O15 C14 1.313 . S
C16 O17 1.245 . S
C16 O25 1.289 . S
O17 C16 1.245 . S
C18 O19 1.245 . S
C18 O20 1.289 . S
O19 C18 1.245 . S
O20 Mg13 2.141 . S
O20 C18 1.289 . S
O21 Mg13 2.048 1_655 S
O21 C14 1.195 . S
O22 Mg13 2.048 1_655 S
O22 C23 1.195 . S
C23 O22 1.195 . S
C23 O24 1.313 . S
O24 C23 1.313 . S
O25 Mg13 2.141 . S
O25 C16 1.289 . S
Mg26 O33 2.141 1_545 S
Mg26 O34 2.048 . S
Mg26 O35 2.048 . S
Mg26 O38 2.141 1_545 S
C27 O28 1.313 . S
C27 O34 1.195 . S
O28 C27 1.313 . S
C29 O30 1.245 . S
C29 O38 1.289 . S
O30 C29 1.245 . S
C31 O32 1.245 . S
C31 O33 1.289 . S
O32 C31 1.245 . S
O33 Mg26 2.141 1_565 S
O33 C31 1.289 . S
O34 Mg26 2.048 . S
O34 C27 1.195 . S
O35 Mg26 2.048 . S
O35 C36 1.195 . S
C36 O35 1.195 . S
C36 O37 1.313 . S
O37 C36 1.313 . S
O38 Mg26 2.141 1_565 S
O38 C29 1.289 . S
Mg39 O46 2.141 1_455 S
Mg39 O47 2.048 . S
Mg39 O48 2.048 . S
Mg39 O51 2.141 1_455 S
C40 O41 1.313 . S
C40 O47 1.195 . S
O41 C40 1.313 . S
C42 O43 1.245 . S
C42 O51 1.289 . S
O43 C42 1.245 . S
C44 O45 1.245 . S
C44 O46 1.289 . S
O45 C44 1.245 . S
O46 Mg39 2.141 1_655 S
O46 C44 1.289 . S
O47 Mg39 2.048 . S
O47 C40 1.195 . S
O48 Mg39 2.048 . S
O48 C49 1.195 . S
C49 O48 1.195 . S
C49 O50 1.313 . S
O50 C49 1.313 . S
O51 Mg39 2.141 1_655 S
O51 C42 1.289 . S
Mg52 O59 2.141 1_545 S
Mg52 O60 2.048 . S
Mg52 O61 2.048 . S
Mg52 O64 2.141 1_545 S
C53 O54 1.313 . S
C53 O60 1.195 . S
O54 C53 1.313 . S
C55 O56 1.245 . S
C55 O64 1.289 . S
O56 C55 1.245 . S
C57 O58 1.245 . S
C57 O59 1.289 . S
O58 C57 1.245 . S
O59 Mg52 2.141 1_565 S
O59 C57 1.289 . S
O60 Mg52 2.048 . S
O60 C53 1.195 . S
O61 Mg52 2.048 . S
O61 C62 1.195 . S
C62 O61 1.195 . S
C62 O63 1.313 . S
O63 C62 1.313 . S
O64 Mg52 2.141 1_565 S
O64 C55 1.289 . S
Mg65 O72 2.141 . S
Mg65 O73 2.048 1_455 S
Mg65 O74 2.048 1_455 S
Mg65 O77 2.141 . S
C66 O67 1.313 . S
C66 O73 1.195 . S
O67 C66 1.313 . S
C68 O69 1.245 . S
C68 O77 1.289 . S
O69 C68 1.245 . S
C70 O71 1.245 . S
C70 O72 1.289 . S
O71 C70 1.245 . S
O72 Mg65 2.141 . S
O72 C70 1.289 . S
O73 Mg65 2.048 1_655 S
O73 C66 1.195 . S
O74 Mg65 2.048 1_655 S
O74 C75 1.195 . S
C75 O74 1.195 . S
C75 O76 1.313 . S
O76 C75 1.313 . S
O77 Mg65 2.141 . S
O77 C68 1.289 . S
Mg78 O85 2.141 . S
Mg78 O86 2.048 1_545 S
Mg78 O87 2.048 1_545 S
Mg78 O90 2.141 . S
C79 O80 1.313 . S
C79 O86 1.195 . S
O80 C79 1.313 . S
C81 O82 1.245 . S
C81 O90 1.289 . S
O82 C81 1.245 . S
C83 O84 1.245 . S
C83 O85 1.289 . S
O84 C83 1.245 . S
O85 Mg78 2.141 . S
O85 C83 1.289 . S
O86 Mg78 2.048 1_565 S
O86 C79 1.195 . S
O87 Mg78 2.048 1_565 S
O87 C88 1.195 . S
C88 O87 1.195 . S
C88 O89 1.313 . S
O89 C88 1.313 . S
O90 Mg78 2.141 . S
O90 C81 1.289 . S
Mg91 O98 2.141 1_455 S
Mg91 O99 2.048 . S
Mg91 O100 2.048 . S
Mg91 O103 2.141 1_455 S
C92 O93 1.313 . S
C92 O99 1.195 . S
O93 C92 1.313 . S
C94 O95 1.245 . S
C94 O103 1.289 . S
O95 C94 1.245 . S
C96 O97 1.245 . S
C96 O98 1.289 . S
O97 C96 1.245 . S
O98 Mg91 2.141 1_655 S
O98 C96 1.289 . S
O99 Mg91 2.048 . S
O99 C92 1.195 . S
O100 Mg91 2.048 . S
O100 C101 1.195 . S
C101 O100 1.195 . S
C101 O102 1.313 . S
O102 C101 1.313 . S
O103 Mg91 2.141 1_655 S
O103 C94 1.289 . S
Mg104 O111 2.141 . S
Mg104 O112 2.048 1_554 S
Mg104 O113 2.048 1_554 S
Mg104 O116 2.141 . S
C105 O106 1.313 . S
C105 O112 1.195 . S
O106 C105 1.313 . S
C107 O108 1.245 . S
C107 O116 1.289 . S
O108 C107 1.245 . S
C109 O110 1.245 . S
C109 O111 1.289 . S
O110 C109 1.245 . S
O111 Mg104 2.141 . S
O111 C109 1.289 . S
O112 Mg104 2.048 1_556 S
O112 C105 1.195 . S
O113 Mg104 2.048 1_556 S
O113 C114 1.195 . S
C114 O113 1.195 . S
C114 O115 1.313 . S
O115 C114 1.313 . S
O116 Mg104 2.141 . S
O116 C107 1.289 . S
Mg117 O124 2.141 1_554 S
Mg117 O125 2.048 . S
Mg117 O126 2.048 . S
Mg117 O129 2.141 1_554 S
C118 O119 1.313 . S
C118 O125 1.195 . S
O119 C118 1.313 . S
C120 O121 1.245 . S
C120 O129 1.289 . S
O121 C120 1.245 . S
C122 O123 1.245 . S
C122 O124 1.289 . S
O123 C122 1.245 . S
O124 Mg117 2.141 1_556 S
O124 C122 1.289 . S
O125 Mg117 2.048 . S
O125 C118 1.195 . S
O126 Mg117 2.048 . S
O126 C127 1.195 . S
C127 O126 1.195 . S
C127 O128 1.313 . S
O128 C127 1.313 . S
O129 Mg117 2.141 1_556 S
O129 C120 1.289 . S
Mg130 O137 2.141 1_554 S
Mg130 O138 2.048 . S
Mg130 O139 2.048 . S
Mg130 O142 2.141 1_554 S
C131 O132 1.313 . S
C131 O138 1.195 . S
O132 C131 1.313 . S
C133 O134 1.245 . S
C133 O142 1.289 . S
O134 C133 1.245 . S
C135 O136 1.245 . S
C135 O137 1.289 . S
O136 C135 1.245 . S
O137 Mg130 2.141 1_556 S
O137 C135 1.289 . S
O138 Mg130 2.048 . S
O138 C131 1.195 . S
O139 Mg130 2.048 . S
O139 C140 1.195 . S
C140 O139 1.195 . S
C140 O141 1.313 . S
O141 C140 1.313 . S
O142 Mg130 2.141 1_556 S
O142 C133 1.289 . S
Mg143 O150 2.141 . S
Mg143 O151 2.048 1_554 S
Mg143 O152 2.048 1_554 S
Mg143 O155 2.141 . S
C144 O145 1.313 . S
C144 O151 1.195 . S
O145 C144 1.313 . S
C146 O147 1.245 . S
C146 O155 1.289 . S
O147 C146 1.245 . S
C148 O149 1.245 . S
C148 O150 1.289 . S
O149 C148 1.245 . S
O150 Mg143 2.141 . S
O150 C148 1.289 . S
O151 Mg143 2.048 1_556 S
O151 C144 1.195 . S
O152 Mg143 2.048 1_556 S
O152 C153 1.195 . S
C153 O152 1.195 . S
C153 O154 1.313 . S
O154 C153 1.313 . S
O155 Mg143 2.141 . S
O155 C146 1.289 . S
Mg156 O163 2.141 . S
Mg156 O164 2.048 . S
Mg156 O165 2.048 . S
Mg156 O168 2.141 . S
C157 O158 1.313 . S
C157 O164 1.195 . S
O158 C157 1.313 . S
C159 O160 1.245 . S
C159 O168 1.289 . S
O160 C159 1.245 . S
C161 O162 1.245 . S
C161 O163 1.289 . S
O162 C161 1.245 . S
O163 Mg156 2.141 . S
O163 C161 1.289 . S
O164 Mg156 2.048 . S
O164 C157 1.195 . S
O165 Mg156 2.048 . S
O165 C166 1.195 . S
C166 O165 1.195 . S
C166 O167 1.313 . S
O167 C166 1.313 . S
O168 Mg156 2.141 . S
O168 C159 1.289 . S
Mg169 O176 2.141 . S
Mg169 O177 2.048 . S
Mg169 O178 2.048 . S
Mg169 O181 2.141 . S
C170 O171 1.313 . S
C170 O177 1.195 . S
O171 C170 1.313 . S
C172 O173 1.245 . S
C172 O181 1.289 . S
O173 C172 1.245 . S
C174 O175 1.245 . S
C174 O176 1.289 . S
O175 C174 1.245 . S
O176 Mg169 2.141 . S
O176 C174 1.289 . S
O177 Mg169 2.048 . S
O177 C170 1.195 . S
O178 Mg169 2.048 . S
O178 C179 1.195 . S
C179 O178 1.195 . S
C179 O180 1.313 . S
O180 C179 1.313 . S
O181 Mg169 2.141 . S
O181 C172 1.289 . S
Mg182 O189 2.141 . S
Mg182 O190 2.048 . S
Mg182 O191 2.048 . S
Mg182 O194 2.141 . S
C183 O184 1.313 . S
C183 O190 1.195 . S
O184 C183 1.313 . S
C185 O186 1.245 . S
C185 O194 1.289 . S
O186 C185 1.245 . S
C187 O188 1.245 . S
C187 O189 1.289 . S
O188 C187 1.245 . S
O189 Mg182 2.141 . S
O189 C187 1.289 . S
O190 Mg182 2.048 . S
O190 C183 1.195 . S
O191 Mg182 2.048 . S
O191 C192 1.195 . S
C192 O191 1.195 . S
C192 O193 1.313 . S
O193 C192 1.313 . S
O194 Mg182 2.141 . S
O194 C185 1.289 . S
Mg195 O202 2.141 . S
Mg195 O203 2.048 . S
Mg195 O204 2.048 . S
Mg195 O207 2.141 . S
C196 O197 1.313 . S
C196 O203 1.195 . S
O197 C196 1.313 . S
C198 O199 1.245 . S
C198 O207 1.289 . S
O199 C198 1.245 . S
C200 O201 1.245 . S
C200 O202 1.289 . S
O201 C200 1.245 . S
O202 Mg195 2.141 . S
O202 C200 1.289 . S
O203 Mg195 2.048 . S
O203 C196 1.195 . S
O204 Mg195 2.048 . S
O204 C205 1.195 . S
C205 O204 1.195 . S
C205 O206 1.313 . S
O206 C205 1.313 . S
O207 Mg195 2.141 . S
O207 C198 1.289 . S
Mg208 O215 2.141 . S
Mg208 O216 2.048 . S
Mg208 O217 2.048 . S
Mg208 O220 2.141 . S
C209 O210 1.313 . S
C209 O216 1.195 . S
O210 C209 1.313 . S
C211 O212 1.245 . S
C211 O220 1.289 . S
O212 C211 1.245 . S
C213 O214 1.245 . S
C213 O215 1.289 . S
O214 C213 1.245 . S
O215 Mg208 2.141 . S
O215 C213 1.289 . S
O216 Mg208 2.048 . S
O216 C209 1.195 . S
O217 Mg208 2.048 . S
O217 C218 1.195 . S
C218 O217 1.195 . S
C218 O219 1.313 . S
O219 C218 1.313 . S
O220 Mg208 2.141 . S
O220 C211 1.289 . S
Mg221 O228 2.141 . S
Mg221 O229 2.048 . S
Mg221 O230 2.048 . S
Mg221 O233 2.141 . S
C222 O223 1.313 . S
C222 O229 1.195 . S
O223 C222 1.313 . S
C224 O225 1.245 . S
C224 O233 1.289 . S
O225 C224 1.245 . S
C226 O227 1.245 . S
C226 O228 1.289 . S
O227 C226 1.245 . S
O228 Mg221 2.141 . S
O228 C226 1.289 . S
O229 Mg221 2.048 . S
O229 C222 1.195 . S
O230 Mg221 2.048 . S
O230 C231 1.195 . S
C231 O230 1.195 . S
C231 O232 1.313 . S
O232 C231 1.313 . S
O233 Mg221 2.141 . S
O233 C224 1.289 . S
Mg234 O241 2.141 . S
Mg234 O242 2.048 . S
Mg234 O243 2.048 . S
Mg234 O246 2.141 . S
C235 O236 1.313 . S
C235 O242 1.195 . S
O236 C235 1.313 . S
C237 O238 1.245 . S
C237 O246 1.289 . S
O238 C237 1.245 . S
C239 O240 1.245 . S
C239 O241 1.289 . S
O240 C239 1.245 . S
O241 Mg234 2.141 . S
O241 C239 1.289 . S
O242 Mg234 2.048 . S
O242 C235 1.195 . S
O243 Mg234 2.048 . S
O243 C244 1.195 . S
C244 O243 1.195 . S
C244 O245 1.313 . S
O245 C244 1.313 . S
O246 Mg234 2.141 . S
O246 C237 1.289 . S
Mg247 O254 2.141 . S
Mg247 O255 2.048 . S
Mg247 O256 2.048 . S
Mg247 O259 2.141 . S
C248 O249 1.313 . S
C248 O255 1.195 . S
O249 C248 1.313 . S
C250 O251 1.245 . S
C250 O259 1.289 . S
O251 C250 1.245 . S
C252 O253 1.245 . S
C252 O254 1.289 . S
O253 C252 1.245 . S
O254 Mg247 2.141 . S
O254 C252 1.289 . S
O255 Mg247 2.048 . S
O255 C248 1.195 . S
O256 Mg247 2.048 . S
O256 C257 1.195 . S
C257 O256 1.195 . S
C257 O258 1.313 . S
O258 C257 1.313 . S
O259 Mg247 2.141 . S
O259 C250 1.289 . S
Mg260 O267 2.141 . S
Mg260 O268 2.048 . S
Mg260 O269 2.048 . S
Mg260 O272 2.141 . S
C261 O262 1.313 . S
C261 O268 1.195 . S
O262 C261 1.313 . S
C263 O264 1.245 . S
C263 O272 1.289 . S
O264 C263 1.245 . S
C265 O266 1.245 . S
C265 O267 1.289 . S
O266 C265 1.245 . S
O267 Mg260 2.141 . S
O267 C265 1.289 . S
O268 Mg260 2.048 . S
O268 C261 1.195 . S
O269 Mg260 2.048 . S
O269 C270 1.195 . S
C270 O269 1.195 . S
C270 O271 1.313 . S
O271 C270 1.313 . S
O272 Mg260 2.141 . S
O272 C263 1.289 . S
Mg273 O280 2.141 . S
Mg273 O281 2.048 . S
Mg273 O282 2.048 . S
Mg273 O285 2.141 . S
C274 O275 1.313 . S
C274 O281 1.195 . S
O275 C274 1.313 . S
C276 O277 1.245 . S
C276 O285 1.289 . S
O277 C276 1.245 . S
C278 O279 1.245 . S
C278 O280 1.289 . S
O279 C278 1.245 . S
O280 Mg273 2.141 . S
O280 C278 1.289 . S
O281 Mg273 2.048 . S
O281 C274 1.195 . S
O282 Mg273 2.048 . S
O282 C283 1.195 . S
C283 O282 1.195 . S
C283 O284 1.313 . S
O284 C283 1.313 . S
O285 Mg273 2.141 . S
O285 C276 1.289 . S
Mg286 O293 2.141 . S
Mg286 O294 2.048 . S
Mg286 O295 2.048 . S
Mg286 O298 2.141 . S
C287 O288 1.313 . S
C287 O294 1.195 . S
O288 C287 1.313 . S
C289 O290 1.245 . S
C289 O298 1.289 . S
O290 C289 1.245 . S
C291 O292 1.245 . S
C291 O293 1.289 . S
O292 C291 1.245 . S
O293 Mg286 2.141 . S
O293 C291 1.289 . S
O294 Mg286 2.048 . S
O294 C287 1.195 . S
O295 Mg286 2.048 . S
O295 C296 1.195 . S
C296 O295 1.195 . S
C296 O297 1.313 . S
O297 C296 1.313 . S
O298 Mg286 2.141 . S
O298 C289 1.289 . S
Mg299 O306 2.141 . S
Mg299 O307 2.048 . S
Mg299 O308 2.048 . S
Mg299 O311 2.141 . S
C300 O301 1.313 . S
C300 O307 1.195 . S
O301 C300 1.313 . S
C302 O303 1.245 . S
C302 O311 1.289 . S
O303 C302 1.245 . S
C304 O305 1.245 . S
C304 O306 1.289 . S
O305 C304 1.245 . S
O306 Mg299 2.141 . S
O306 C304 1.289 . S
O307 Mg299 2.048 . S
O307 C300 1.195 . S
O308 Mg299 2.048 . S
O308 C309 1.195 . S
C309 O308 1.195 . S
C309 O310 1.313 . S
O310 C309 1.313 . S
O311 Mg299 2.141 . S
O311 C302 1.289 . S
C312 C313 1.387 . S
C312 H316 0.950 . S
C312 C321 1.390 . S
C313 C312 1.387 . S
C313 C315 1.387 . S
H314 C321 0.950 . S
C315 C313 1.387 . S
C315 C317 1.390 . S
C315 H319 0.950 . S
H316 C312 0.950 . S
C317 C315 1.390 . S
C317 C318 1.387 . S
C317 H320 0.950 . S
C318 C317 1.387 . S
C318 C321 1.387 . S
H319 C315 0.950 . S
H320 C317 0.950 . S
C321 C312 1.390 . S
C321 H314 0.950 . S
C321 C318 1.387 . S
C322 C323 1.387 . S
C322 H326 0.950 . S
C322 C331 1.390 . S
C323 C322 1.387 . S
C323 C325 1.387 . S
H324 C331 0.950 . S
C325 C323 1.387 . S
C325 C327 1.390 . S
C325 H329 0.950 . S
H326 C322 0.950 . S
C327 C325 1.390 . S
C327 C328 1.387 . S
C327 H330 0.950 . S
C328 C327 1.387 . S
C328 C331 1.387 . S
H329 C325 0.950 . S
H330 C327 0.950 . S
C331 C322 1.390 . S
C331 H324 0.950 . S
C331 C328 1.387 . S
C332 C333 1.387 . S
C332 H336 0.950 . S
C332 C341 1.390 . S
C333 C332 1.387 . S
C333 C335 1.387 . S
H334 C341 0.950 . S
C335 C333 1.387 . S
C335 C337 1.390 . S
C335 H339 0.950 . S
H336 C332 0.950 . S
C337 C335 1.390 . S
C337 C338 1.387 . S
C337 H340 0.950 . S
C338 C337 1.387 . S
C338 C341 1.387 . S
H339 C335 0.950 . S
H340 C337 0.950 . S
C341 C332 1.390 . S
C341 H334 0.950 . S
C341 C338 1.387 . S
C342 C343 1.387 . S
C342 H346 0.950 . S
C342 C351 1.390 . S
C343 C342 1.387 . S
C343 C345 1.387 . S
H344 C351 0.950 . S
C345 C343 1.387 . S
C345 C347 1.390 . S
C345 H349 0.950 . S
H346 C342 0.950 . S
C347 C345 1.390 . S
C347 C348 1.387 . S
C347 H350 0.950 . S
C348 C347 1.387 . S
C348 C351 1.387 . S
H349 C345 0.950 . S
H350 C347 0.950 . S
C351 C342 1.390 . S
C351 H344 0.950 . S
C351 C348 1.387 . S
C352 C353 1.387 . S
C352 H356 0.950 . S
C352 C361 1.390 . S
C353 C352 1.387 . S
C353 C355 1.387 . S
H354 C361 0.950 . S
C355 C353 1.387 . S
C355 C357 1.390 . S
C355 H359 0.950 . S
H356 C352 0.950 . S
C357 C355 1.390 . S
C357 C358 1.387 . S
C357 H360 0.950 . S
C358 C357 1.387 . S
C358 C361 1.387 . S
H359 C355 0.950 . S
H360 C357 0.950 . S
C361 C352 1.390 . S
C361 H354 0.950 . S
C361 C358 1.387 . S
C362 C363 1.387 . S
C362 H366 0.950 . S
C362 C371 1.390 . S
C363 C362 1.387 . S
C363 C365 1.387 . S
H364 C371 0.950 . S
C365 C363 1.387 . S
C365 C367 1.390 . S
C365 H369 0.950 . S
H366 C362 0.950 . S
C367 C365 1.390 . S
C367 C368 1.387 . S
C367 H370 0.950 . S
C368 C367 1.387 . S
C368 C371 1.387 . S
H369 C365 0.950 . S
H370 C367 0.950 . S
C371 C362 1.390 . S
C371 H364 0.950 . S
C371 C368 1.387 . S
C372 C373 1.387 . S
C372 H376 0.950 . S
C372 C381 1.390 . S
C373 C372 1.387 . S
C373 C375 1.387 . S
H374 C381 0.950 . S
C375 C373 1.387 . S
C375 C377 1.390 . S
C375 H379 0.950 . S
H376 C372 0.950 . S
C377 C375 1.390 . S
C377 C378 1.387 . S
C377 H380 0.950 . S
C378 C377 1.387 . S
C378 C381 1.387 . S
H379 C375 0.950 . S
H380 C377 0.950 . S
C381 C372 1.390 . S
C381 H374 0.950 . S
C381 C378 1.387 . S
C382 C383 1.387 . S
C382 H386 0.950 . S
C382 C391 1.390 . S
C383 C382 1.387 . S
C383 C385 1.387 . S
H384 C391 0.950 . S
C385 C383 1.387 . S
C385 C387 1.390 . S
C385 H389 0.950 . S
H386 C382 0.950 . S
C387 C385 1.390 . S
C387 C388 1.387 . S
C387 H390 0.950 . S
C388 C387 1.387 . S
C388 C391 1.387 . S
H389 C385 0.950 . S
H390 C387 0.950 . S
C391 C382 1.390 . S
C391 H384 0.950 . S
C391 C388 1.387 . S
C392 C393 1.387 . S
C392 H396 0.950 . S
C392 C401 1.390 . S
C393 C392 1.387 . S
C393 C395 1.387 . S
H394 C401 0.950 . S
C395 C393 1.387 . S
C395 C397 1.390 . S
C395 H399 0.950 . S
H396 C392 0.950 . S
C397 C395 1.390 . S
C397 C398 1.387 . S
C397 H400 0.950 . S
C398 C397 1.387 . S
C398 C401 1.387 . S
H399 C395 0.950 . S
H400 C397 0.950 . S
C401 C392 1.390 . S
C401 H394 0.950 . S
C401 C398 1.387 . S
C402 C403 1.387 . S
C402 H406 0.950 . S
C402 C411 1.390 . S
C403 C402 1.387 . S
C403 C405 1.387 . S
H404 C411 0.950 . S
C405 C403 1.387 . S
C405 C407 1.390 . S
C405 H409 0.950 . S
H406 C402 0.950 . S
C407 C405 1.390 . S
C407 C408 1.387 . S
C407 H410 0.950 . S
C408 C407 1.387 . S
C408 C411 1.387 . S
H409 C405 0.950 . S
H410 C407 0.950 . S
C411 C402 1.390 . S
C411 H404 0.950 . S
C411 C408 1.387 . S
C412 C413 1.387 . S
C412 H416 0.950 . S
C412 C421 1.390 . S
C413 C412 1.387 . S
C413 C415 1.387 . S
H414 C421 0.950 . S
C415 C413 1.387 . S
C415 C417 1.390 . S
C415 H419 0.950 . S
H416 C412 0.950 . S
C417 C415 1.390 . S
C417 C418 1.387 . S
C417 H420 0.950 . S
C418 C417 1.387 . S
C418 C421 1.387 . S
H419 C415 0.950 . S
H420 C417 0.950 . S
C421 C412 1.390 . S
C421 H414 0.950 . S
C421 C418 1.387 . S
C422 C423 1.387 . S
C422 H426 0.950 . S
C422 C431 1.390 . S
C423 C422 1.387 . S
C423 C425 1.387 . S
H424 C431 0.950 . S
C425 C423 1.387 . S
C425 C427 1.390 . S
C425 H429 0.950 . S
H426 C422 0.950 . S
C427 C425 1.390 . S
C427 C428 1.387 . S
C427 H430 0.950 . S
C428 C427 1.387 . S
C428 C431 1.387 . S
H429 C425 0.950 . S
H430 C427 0.950 . S
C431 C422 1.390 . S
C431 H424 0.950 . S
C431 C428 1.387 . S
C432 C433 1.387 . S
C432 H436 0.950 . S
C432 C441 1.390 . S
C433 C432 1.387 . S
C433 C435 1.387 . S
H434 C441 0.950 . S
C435 C433 1.387 . S
C435 C437 1.390 . S
C435 H439 0.950 . S
H436 C432 0.950 . S
C437 C435 1.390 . S
C437 C438 1.387 . S
C437 H440 0.950 . S
C438 C437 1.387 . S
C438 C441 1.387 . S
H439 C435 0.950 . S
H440 C437 0.950 . S
C441 C432 1.390 . S
C441 H434 0.950 . S
C441 C438 1.387 . S
C442 C443 1.387 . S
C442 H446 0.950 . S
C442 C451 1.390 . S
C443 C442 1.387 . S
C443 C445 1.387 . S
H444 C451 0.950 . S
C445 C443 1.387 . S
C445 C447 1.390 . S
C445 H449 0.950 . S
H446 C442 0.950 . S
C447 C445 1.390 . S
C447 C448 1.387 . S
C447 H450 0.950 . S
C448 C447 1.387 . S
C448 C451 1.387 . S
H449 C445 0.950 . S
H450 C447 0.950 . S
C451 C442 1.390 . S
C451 H444 0.950 . S
C451 C448 1.387 . S
C452 C453 1.387 . S
C452 H456 0.950 . S
C452 C461 1.390 . S
C453 C452 1.387 . S
C453 C455 1.387 . S
H454 C461 0.950 . S
C455 C453 1.387 . S
C455 C457 1.390 . S
C455 H459 0.950 . S
H456 C452 0.950 . S
C457 C455 1.390 . S
C457 C458 1.387 . S
C457 H460 0.950 . S
C458 C457 1.387 . S
C458 C461 1.387 . S
H459 C455 0.950 . S
H460 C457 0.950 . S
C461 C452 1.390 . S
C461 H454 0.950 . S
C461 C458 1.387 . S
C462 C463 1.387 . S
C462 H466 0.950 . S
C462 C471 1.390 . S
C463 C462 1.387 . S
C463 C465 1.387 . S
H464 C471 0.950 . S
C465 C463 1.387 . S
C465 C467 1.390 . S
C465 H469 0.950 . S
H466 C462 0.950 . S
C467 C465 1.390 . S
C467 C468 1.387 . S
C467 H470 0.950 . S
C468 C467 1.387 . S
C468 C471 1.387 . S
H469 C465 0.950 . S
H470 C467 0.950 . S
C471 C462 1.390 . S
C471 H464 0.950 . S
C471 C468 1.387 . S
C472 C473 1.387 . S
C472 H476 0.950 . S
C472 C481 1.390 . S
C473 C472 1.387 . S
C473 C475 1.387 . S
H474 C481 0.950 . S
C475 C473 1.387 . S
C475 C477 1.390 . S
C475 H479 0.950 . S
H476 C472 0.950 . S
C477 C475 1.390 . S
C477 C478 1.387 . S
C477 H480 0.950 . S
C478 C477 1.387 . S
C478 C481 1.387 . S
H479 C475 0.950 . S
H480 C477 0.950 . S
C481 C472 1.390 . S
C481 H474 0.950 . S
C481 C478 1.387 . S
C482 C483 1.387 . S
C482 H486 0.950 . S
C482 C491 1.390 . S
C483 C482 1.387 . S
C483 C485 1.387 . S
H484 C491 0.950 . S
C485 C483 1.387 . S
C485 C487 1.390 . S
C485 H489 0.950 . S
H486 C482 0.950 . S
C487 C485 1.390 . S
C487 C488 1.387 . S
C487 H490 0.950 . S
C488 C487 1.387 . S
C488 C491 1.387 . S
H489 C485 0.950 . S
H490 C487 0.950 . S
C491 C482 1.390 . S
C491 H484 0.950 . S
C491 C488 1.387 . S
C492 C493 1.387 . S
C492 H496 0.950 . S
C492 C501 1.390 . S
C493 C492 1.387 . S
C493 C495 1.387 . S
H494 C501 0.950 . S
C495 C493 1.387 . S
C495 C497 1.390 . S
C495 H499 0.950 . S
H496 C492 0.950 . S
C497 C495 1.390 . S
C497 C498 1.387 . S
C497 H500 0.950 . S
C498 C497 1.387 . S
C498 C501 1.387 . S
H499 C495 0.950 . S
H500 C497 0.950 . S
C501 C492 1.390 . S
C501 H494 0.950 . S
C501 C498 1.387 . S
C502 C503 1.387 . S
C502 H506 0.950 . S
C502 C511 1.390 . S
C503 C502 1.387 . S
C503 C505 1.387 . S
H504 C511 0.950 . S
C505 C503 1.387 . S
C505 C507 1.390 . S
C505 H509 0.950 . S
H506 C502 0.950 . S
C507 C505 1.390 . S
C507 C508 1.387 . S
C507 H510 0.950 . S
C508 C507 1.387 . S
C508 C511 1.387 . S
H509 C505 0.950 . S
H510 C507 0.950 . S
C511 C502 1.390 . S
C511 H504 0.950 . S
C511 C508 1.387 . S
C512 C513 1.387 . S
C512 H516 0.950 . S
C512 C521 1.390 . S
C513 C512 1.387 . S
C513 C515 1.387 . S
H514 C521 0.950 . S
C515 C513 1.387 . S
C515 C517 1.390 . S
C515 H519 0.950 . S
H516 C512 0.950 . S
C517 C515 1.390 . S
C517 C518 1.387 . S
C517 H520 0.950 . S
C518 C517 1.387 . S
C518 C521 1.387 . S
H519 C515 0.950 . S
H520 C517 0.950 . S
C521 C512 1.390 . S
C521 H514 0.950 . S
C521 C518 1.387 . S
C522 C523 1.387 . S
C522 H526 0.950 . S
C522 C531 1.390 . S
C523 C522 1.387 . S
C523 C525 1.387 . S
H524 C531 0.950 . S
C525 C523 1.387 . S
C525 C527 1.390 . S
C525 H529 0.950 . S
H526 C522 0.950 . S
C527 C525 1.390 . S
C527 C528 1.387 . S
C527 H530 0.950 . S
C528 C527 1.387 . S
C528 C531 1.387 . S
H529 C525 0.950 . S
H530 C527 0.950 . S
C531 C522 1.390 . S
C531 H524 0.950 . S
C531 C528 1.387 . S
C532 C533 1.387 . S
C532 H536 0.950 . S
C532 C541 1.390 . S
C533 C532 1.387 . S
C533 C535 1.387 . S
H534 C541 0.950 . S
C535 C533 1.387 . S
C535 C537 1.390 . S
C535 H539 0.950 . S
H536 C532 0.950 . S
C537 C535 1.390 . S
C537 C538 1.387 . S
C537 H540 0.950 . S
C538 C537 1.387 . S
C538 C541 1.387 . S
H539 C535 0.950 . S
H540 C537 0.950 . S
C541 C532 1.390 . S
C541 H534 0.950 . S
C541 C538 1.387 . S
C542 C543 1.387 . S
C542 H546 0.950 . S
C542 C551 1.390 . S
C543 C542 1.387 . S
C543 C545 1.387 . S
H544 C551 0.950 . S
C545 C543 1.387 . S
C545 C547 1.390 . S
C545 H549 0.950 . S
H546 C542 0.950 . S
C547 C545 1.390 . S
C547 C548 1.387 . S
C547 H550 0.950 . S
C548 C547 1.387 . S
C548 C551 1.387 . S
H549 C545 0.950 . S
H550 C547 0.950 . S
C551 C542 1.390 . S
C551 H544 0.950 . S
C551 C548 1.387 . S
C552 C553 1.387 . S
C552 H556 0.950 . S
C552 C561 1.390 . S
C553 C552 1.387 . S
C553 C555 1.387 . S
H554 C561 0.950 . S
C555 C553 1.387 . S
C555 C557 1.390 . S
C555 H559 0.950 . S
H556 C552 0.950 . S
C557 C555 1.390 . S
C557 C558 1.387 . S
C557 H560 0.950 . S
C558 C557 1.387 . S
C558 C561 1.387 . S
H559 C555 0.950 . S
H560 C557 0.950 . S
C561 C552 1.390 . S
C561 H554 0.950 . S
C561 C558 1.387 . S
C562 C563 1.387 . S
C562 H566 0.950 . S
C562 C571 1.390 . S
C563 C562 1.387 . S
C563 C565 1.387 . S
H564 C571 0.950 . S
C565 C563 1.387 . S
C565 C567 1.390 . S
C565 H569 0.950 . S
H566 C562 0.950 . S
C567 C565 1.390 . S
C567 C568 1.387 . S
C567 H570 0.950 . S
C568 C567 1.387 . S
C568 C571 1.387 . S
H569 C565 0.950 . S
H570 C567 0.950 . S
C571 C562 1.390 . S
C571 H564 0.950 . S
C571 C568 1.387 . S
C572 C573 1.387 . S
C572 H576 0.950 . S
C572 C581 1.390 . S
C573 C572 1.387 . S
C573 C575 1.387 . S
H574 C581 0.950 . S
C575 C573 1.387 . S
C575 C577 1.390 . S
C575 H579 0.950 . S
H576 C572 0.950 . S
C577 C575 1.390 . S
C577 C578 1.387 . S
C577 H580 0.950 . S
C578 C577 1.387 . S
C578 C581 1.387 . S
H579 C575 0.950 . S
H580 C577 0.950 . S
C581 C572 1.390 . S
C581 H574 0.950 . S
C581 C578 1.387 . S
C582 C583 1.387 . S
C582 H586 0.950 . S
C582 C591 1.390 . S
C583 C582 1.387 . S
C583 C585 1.387 . S
H584 C591 0.950 . S
C585 C583 1.387 . S
C585 C587 1.390 . S
C585 H589 0.950 . S
H586 C582 0.950 . S
C587 C585 1.390 . S
C587 C588 1.387 . S
C587 H590 0.950 . S
C588 C587 1.387 . S
C588 C591 1.387 . S
H589 C585 0.950 . S
H590 C587 0.950 . S
C591 C582 1.390 . S
C591 H584 0.950 . S
C591 C588 1.387 . S
C592 C593 1.387 . S
C592 H596 0.950 . S
C592 C601 1.390 . S
C593 C592 1.387 . S
C593 C595 1.387 . S
H594 C601 0.950 . S
C595 C593 1.387 . S
C595 C597 1.390 . S
C595 H599 0.950 . S
H596 C592 0.950 . S
C597 C595 1.390 . S
C597 C598 1.387 . S
C597 H600 0.950 . S
C598 C597 1.387 . S
C598 C601 1.387 . S
H599 C595 0.950 . S
H600 C597 0.950 . S
C601 C592 1.390 . S
C601 H594 0.950 . S
C601 C598 1.387 . S
C602 C603 1.387 . S
C602 H606 0.950 . S
C602 C611 1.390 . S
C603 C602 1.387 . S
C603 C605 1.387 . S
H604 C611 0.950 . S
C605 C603 1.387 . S
C605 C607 1.390 . S
C605 H609 0.950 . S
H606 C602 0.950 . S
C607 C605 1.390 . S
C607 C608 1.387 . S
C607 H610 0.950 . S
C608 C607 1.387 . S
C608 C611 1.387 . S
H609 C605 0.950 . S
H610 C607 0.950 . S
C611 C602 1.390 . S
C611 H604 0.950 . S
C611 C608 1.387 . S
C612 C613 1.387 . S
C612 H616 0.950 . S
C612 C621 1.390 . S
C613 C612 1.387 . S
C613 C615 1.387 . S
H614 C621 0.950 . S
C615 C613 1.387 . S
C615 C617 1.390 . S
C615 H619 0.950 . S
H616 C612 0.950 . S
C617 C615 1.390 . S
C617 C618 1.387 . S
C617 H620 0.950 . S
C618 C617 1.387 . S
C618 C621 1.387 . S
H619 C615 0.950 . S
H620 C617 0.950 . S
C621 C612 1.390 . S
C621 H614 0.950 . S
C621 C618 1.387 . S
C622 C623 1.387 . S
C622 H626 0.950 . S
C622 C631 1.390 . S
C623 C622 1.387 . S
C623 C625 1.387 . S
H624 C631 0.950 . S
C625 C623 1.387 . S
C625 C627 1.390 . S
C625 H629 0.950 . S
H626 C622 0.950 . S
C627 C625 1.390 . S
C627 C628 1.387 . S
C627 H630 0.950 . S
C628 C627 1.387 . S
C628 C631 1.387 . S
H629 C625 0.950 . S
H630 C627 0.950 . S
C631 C622 1.390 . S
C631 H624 0.950 . S
C631 C628 1.387 . S
C632 C633 1.387 . S
C632 H636 0.950 . S
C632 C641 1.390 . S
C633 C632 1.387 . S
C633 C635 1.387 . S
H634 C641 0.950 . S
C635 C633 1.387 . S
C635 C637 1.390 . S
C635 H639 0.950 . S
H636 C632 0.950 . S
C637 C635 1.390 . S
C637 C638 1.387 . S
C637 H640 0.950 . S
C638 C637 1.387 . S
C638 C641 1.387 . S
H639 C635 0.950 . S
H640 C637 0.950 . S
C641 C632 1.390 . S
C641 H634 0.950 . S
C641 C638 1.387 . S
C642 C643 1.387 . S
C642 H646 0.950 . S
C642 C651 1.390 . S
C643 C642 1.387 . S
C643 C645 1.387 . S
H644 C651 0.950 . S
C645 C643 1.387 . S
C645 C647 1.390 . S
C645 H649 0.950 . S
H646 C642 0.950 . S
C647 C645 1.390 . S
C647 C648 1.387 . S
C647 H650 0.950 . S
C648 C647 1.387 . S
C648 C651 1.387 . S
H649 C645 0.950 . S
H650 C647 0.950 . S
C651 C642 1.390 . S
C651 H644 0.950 . S
C651 C648 1.387 . S
C652 C653 1.387 . S
C652 H656 0.950 . S
C652 C661 1.390 . S
C653 C652 1.387 . S
C653 C655 1.387 . S
H654 C661 0.950 . S
C655 C653 1.387 . S
C655 C657 1.390 . S
C655 H659 0.950 . S
H656 C652 0.950 . S
C657 C655 1.390 . S
C657 C658 1.387 . S
C657 H660 0.950 . S
C658 C657 1.387 . S
C658 C661 1.387 . S
H659 C655 0.950 . S
H660 C657 0.950 . S
C661 C652 1.390 . S
C661 H654 0.950 . S
C661 C658 1.387 . S
C662 C663 1.387 . S
C662 H666 0.950 . S
C662 C671 1.390 . S
C663 C662 1.387 . S
C663 C665 1.387 . S
H664 C671 0.950 . S
C665 C663 1.387 . S
C665 C667 1.390 . S
C665 H669 0.950 . S
H666 C662 0.950 . S
C667 C665 1.390 . S
C667 C668 1.387 . S
C667 H670 0.950 . S
C668 C667 1.387 . S
C668 C671 1.387 . S
H669 C665 0.950 . S
H670 C667 0.950 . S
C671 C662 1.390 . S
C671 H664 0.950 . S
C671 C668 1.387 . S
C672 C673 1.387 . S
C672 H676 0.950 . S
C672 C681 1.390 . S
C673 C672 1.387 . S
C673 C675 1.387 . S
H674 C681 0.950 . S
C675 C673 1.387 . S
C675 C677 1.390 . S
C675 H679 0.950 . S
H676 C672 0.950 . S
C677 C675 1.390 . S
C677 C678 1.387 . S
C677 H680 0.950 . S
C678 C677 1.387 . S
C678 C681 1.387 . S
H679 C675 0.950 . S
H680 C677 0.950 . S
C681 C672 1.390 . S
C681 H674 0.950 . S
C681 C678 1.387 . S
C682 C683 1.387 . S
C682 H686 0.950 . S
C682 C691 1.390 . S
C683 C682 1.387 . S
C683 C685 1.387 . S
H684 C691 0.950 . S
C685 C683 1.387 . S
C685 C687 1.390 . S
C685 H689 0.950 . S
H686 C682 0.950 . S
C687 C685 1.390 . S
C687 C688 1.387 . S
C687 H690 0.950 . S
C688 C687 1.387 . S
C688 C691 1.387 . S
H689 C685 0.950 . S
H690 C687 0.950 . S
C691 C682 1.390 . S
C691 H684 0.950 . S
C691 C688 1.387 . S
C692 C693 1.387 . S
C692 H696 0.950 . S
C692 C701 1.390 . S
C693 C692 1.387 . S
C693 C695 1.387 . S
H694 C701 0.950 . S
C695 C693 1.387 . S
C695 C697 1.390 . S
C695 H699 0.950 . S
H696 C692 0.950 . S
C697 C695 1.390 . S
C697 C698 1.387 . S
C697 H700 0.950 . S
C698 C697 1.387 . S
C698 C701 1.387 . S
H699 C695 0.950 . S
H700 C697 0.950 . S
C701 C692 1.390 . S
C701 H694 0.950 . S
C701 C698 1.387 . S
C702 C703 1.387 . S
C702 H706 0.950 . S
C702 C711 1.390 . S
C703 C702 1.387 . S
C703 C705 1.387 . S
H704 C711 0.950 . S
C705 C703 1.387 . S
C705 C707 1.390 . S
C705 H709 0.950 . S
H706 C702 0.950 . S
C707 C705 1.390 . S
C707 C708 1.387 . S
C707 H710 0.950 . S
C708 C707 1.387 . S
C708 C711 1.387 . S
H709 C705 0.950 . S
H710 C707 0.950 . S
C711 C702 1.390 . S
C711 H704 0.950 . S
C711 C708 1.387 . S
C712 C713 1.387 . S
C712 H716 0.950 . S
C712 C721 1.390 . S
C713 C712 1.387 . S
C713 C715 1.387 . S
H714 C721 0.950 . S
C715 C713 1.387 . S
C715 C717 1.390 . S
C715 H719 0.950 . S
H716 C712 0.950 . S
C717 C715 1.390 . S
C717 C718 1.387 . S
C717 H720 0.950 . S
C718 C717 1.387 . S
C718 C721 1.387 . S
H719 C715 0.950 . S
H720 C717 0.950 . S
C721 C712 1.390 . S
C721 H714 0.950 . S
C721 C718 1.387 . S
C722 C723 1.387 . S
C722 H726 0.950 . S
C722 C731 1.390 . S
C723 C722 1.387 . S
C723 C725 1.387 . S
H724 C731 0.950 . S
C725 C723 1.387 . S
C725 C727 1.390 . S
C725 H729 0.950 . S
H726 C722 0.950 . S
C727 C725 1.390 . S
C727 C728 1.387 . S
C727 H730 0.950 . S
C728 C727 1.387 . S
C728 C731 1.387 . S
H729 C725 0.950 . S
H730 C727 0.950 . S
C731 C722 1.390 . S
C731 H724 0.950 . S
C731 C728 1.387 . S
C732 C733 1.387 . S
C732 H736 0.950 . S
C732 C741 1.390 . S
C733 C732 1.387 . S
C733 C735 1.387 . S
H734 C741 0.950 . S
C735 C733 1.387 . S
C735 C737 1.390 . S
C735 H739 0.950 . S
H736 C732 0.950 . S
C737 C735 1.390 . S
C737 C738 1.387 . S
C737 H740 0.950 . S
C738 C737 1.387 . S
C738 C741 1.387 . S
H739 C735 0.950 . S
H740 C737 0.950 . S
C741 C732 1.390 . S
C741 H734 0.950 . S
C741 C738 1.387 . S
C742 C743 1.387 . S
C742 H746 0.950 . S
C742 C751 1.390 . S
C743 C742 1.387 . S
C743 C745 1.387 . S
H744 C751 0.950 . S
C745 C743 1.387 . S
C745 C747 1.390 . S
C745 H749 0.950 . S
H746 C742 0.950 . S
C747 C745 1.390 . S
C747 C748 1.387 . S
C747 H750 0.950 . S
C748 C747 1.387 . S
C748 C751 1.387 . S
H749 C745 0.950 . S
H750 C747 0.950 . S
C751 C742 1.390 . S
C751 H744 0.950 . S
C751 C748 1.387 . S
C752 C753 1.387 . S
C752 H756 0.950 . S
C752 C761 1.390 . S
C753 C752 1.387 . S
C753 C755 1.387 . S
H754 C761 0.950 . S
C755 C753 1.387 . S
C755 C757 1.390 . S
C755 H759 0.950 . S
H756 C752 0.950 . S
C757 C755 1.390 . S
C757 C758 1.387 . S
C757 H760 0.950 . S
C758 C757 1.387 . S
C758 C761 1.387 . S
H759 C755 0.950 . S
H760 C757 0.950 . S
C761 C752 1.390 . S
C761 H754 0.950 . S
C761 C758 1.387 . S
C762 C763 1.387 . S
C762 H766 0.950 . S
C762 C771 1.390 . S
C763 C762 1.387 . S
C763 C765 1.387 . S
H764 C771 0.950 . S
C765 C763 1.387 . S
C765 C767 1.390 . S
C765 H769 0.950 . S
H766 C762 0.950 . S
C767 C765 1.390 . S
C767 C768 1.387 . S
C767 H770 0.950 . S
C768 C767 1.387 . S
C768 C771 1.387 . S
H769 C765 0.950 . S
H770 C767 0.950 . S
C771 C762 1.390 . S
C771 H764 0.950 . S
C771 C768 1.387 . S
C772 C773 1.387 . S
C772 H776 0.950 . S
C772 C781 1.390 . S
C773 C772 1.387 . S
C773 C775 1.387 . S
H774 C781 0.950 . S
C775 C773 1.387 . S
C775 C777 1.390 . S
C775 H779 0.950 . S
H776 C772 0.950 . S
C777 C775 1.390 . S
C777 C778 1.387 . S
C777 H780 0.950 . S
C778 C777 1.387 . S
C778 C781 1.387 . S
H779 C775 0.950 . S
H780 C777 0.950 . S
C781 C772 1.390 . S
C781 H774 0.950 . S
C781 C778 1.387 . S
C782 C783 1.387 . S
C782 H786 0.950 . S
C782 C791 1.390 . S
C783 C782 1.387 . S
C783 C785 1.387 . S
H784 C791 0.950 . S
C785 C783 1.387 . S
C785 C787 1.390 . S
C785 H789 0.950 . S
H786 C782 0.950 . S
C787 C785 1.390 . S
C787 C788 1.387 . S
C787 H790 0.950 . S
C788 C787 1.387 . S
C788 C791 1.387 . S
H789 C785 0.950 . S
H790 C787 0.950 . S
C791 C782 1.390 . S
C791 H784 0.950 . S
C791 C788 1.387 . S
C313 C289 1.733 . S
C318 C3 1.732 . S
C323 C23 1.691 . S
C328 C309 1.688 . S
C333 C265 1.630 . S
C338 C29 1.726 . S
C343 C274 1.808 . S
C348 C40 1.808 . S
C353 C276 1.767 . S
C358 C55 1.768 . S
C363 C70 1.639 . S
C368 C287 1.722 . S
C373 C304 1.654 . S
C378 C81 1.755 . S
C383 C94 1.746 . S
C388 C270 1.667 . S
C393 C109 1.633 . S
C398 C252 1.635 . S
C403 C211 1.774 . S
C408 C127 1.689 . S
C413 C140 1.667 . S
C418 C226 1.652 . S
C423 C235 1.730 . S
C428 C148 1.642 . S
C433 C153 1.683 . S
C438 C172 1.764 . S
C443 C114 1.675 . S
C448 C185 1.755 . S
C453 C198 1.744 . S
C458 C122 1.643 . S
C463 C135 1.620 . S
C468 C159 1.714 . S
C473 C18 1.626 . S
C478 C237 1.721 . S
C483 C183 1.773 . S
C488 C92 1.774 . S
C493 C53 1.767 . S
C498 C196 1.767 . S
C503 C157 1.751 . S
C508 C75 1.683 . S
C513 C79 1.777 . S
C518 C170 1.776 . S
C523 C42 1.802 . S
C528 C209 1.794 . S
C533 C1 1.749 . S
C538 C231 1.682 . S
C543 C27 1.738 . S
C548 C257 1.672 . S
C553 C88 1.747 . S
C558 C261 1.684 . S
C563 C278 1.763 . S
C568 C101 1.755 . S
C573 C296 1.737 . S
C578 C62 1.737 . S
C583 C302 1.685 . S
C588 C66 1.698 . S
C593 C36 1.778 . S
C598 C300 1.704 . S
C603 C44 1.722 . S
C608 C263 1.632 . S
C613 C10 1.769 . S
C618 C283 1.769 . S
C623 C291 1.712 . S
C628 C16 1.621 . S
C633 C133 1.669 . S
C638 C179 1.756 . S
C643 C144 1.734 . S
C648 C192 1.807 . S
C653 C105 1.679 . S
C658 C205 1.743 . S
C663 C120 1.646 . S
C668 C166 1.730 . S
C673 C118 1.697 . S
C678 C248 1.691 . S
C683 C218 1.788 . S
C688 C131 1.718 . S
C693 C146 1.677 . S
C698 C222 1.692 . S
C703 C107 1.622 . S
C708 C239 1.712 . S
C713 C161 1.723 . S
C718 C96 1.722 . S
C723 C213 1.738 . S
C728 C14 1.663 . S
C733 C31 1.756 . S
C738 C224 1.657 . S
C743 C244 1.751 . S
C748 C49 1.750 . S
C753 C250 1.663 . S
C758 C5 1.764 . S
C763 C68 1.661 . S
C768 C187 1.762 . S
C773 C200 1.736 . S
C778 C83 1.736 . S
C783 C174 1.727 . S
C788 C57 1.727 . S
