# Generated by pormake.
# Topology sod, (4)-cn, num edge types: 1
# Building blocks:
#     Node 0, Type 0, BuildingBlock: KUFVIS_clean_sbu_0, # of connection points: 4
#     Node 1, Type 0, BuildingBlock: KUFVIS_clean_sbu_0, # of connection points: 4
#     Node 2, Type 0, BuildingBlock: KUFVIS_clean_sbu_0, # of connection points: 4
#     Node 3, Type 0, BuildingBlock: KUFVIS_clean_sbu_0, # of connection points: 4
#     Node 4, Type 0, BuildingBlock: KUFVIS_clean_sbu_0, # of connection points: 4
#     Node 5, Type 0, BuildingBlock: KUFVIS_clean_sbu_0, # of connection points: 4
#     Node 6, Type 0, BuildingBlock: KUFVIS_clean_sbu_0, # of connection points: 4
#     Node 7, Type 0, BuildingBlock: KUFVIS_clean_sbu_0, # of connection points: 4
#     Node 8, Type 0, BuildingBlock: KUFVIS_clean_sbu_0, # of connection points: 4
#     Node 9, Type 0, BuildingBlock: KUFVIS_clean_sbu_0, # of connection points: 4
#     Node 10, Type 0, BuildingBlock: KUFVIS_clean_sbu_0, # of connection points: 4
#     Node 11, Type 0, BuildingBlock: KUFVIS_clean_sbu_0, # of connection points: 4
#     Edge 12, Type (0, 0), None
#     Edge 13, Type (0, 0), None
#     Edge 14, Type (0, 0), None
#     Edge 15, Type (0, 0), None
#     Edge 16, Type (0, 0), None
#     Edge 17, Type (0, 0), None
#     Edge 18, Type (0, 0), None
#     Edge 19, Type (0, 0), None
#     Edge 20, Type (0, 0), None
#     Edge 21, Type (0, 0), None
#     Edge 22, Type (0, 0), None
#     Edge 23, Type (0, 0), None
#     Edge 24, Type (0, 0), None
#     Edge 25, Type (0, 0), None
#     Edge 26, Type (0, 0), None
#     Edge 27, Type (0, 0), None
#     Edge 28, Type (0, 0), None
#     Edge 29, Type (0, 0), None
#     Edge 30, Type (0, 0), None
#     Edge 31, Type (0, 0), None
#     Edge 32, Type (0, 0), None
#     Edge 33, Type (0, 0), None
#     Edge 34, Type (0, 0), None
#     Edge 35, Type (0, 0), None
# Relax obj value: 0.123
# Max RMSD: 0.162
# Mean RMSD: 0.149
data_MOF--net-sod--node1-KUFVIS_clean_sbu_0--edge1-none
_symmetry_space_group_name_H-M    P1
_symmetry_Int_Tables_number       1
_symmetry_cell_setting            triclinic
loop_
_symmetry_equiv_pos_as_xyz
'x, y, z'
_cell_length_a     17.857332
_cell_length_b     18.286862
_cell_length_c     19.529166
_cell_angle_alpha  95.972814
_cell_angle_beta   91.789624
_cell_angle_gamma 88.744017
loop_
_atom_site_label
_atom_site_type_symbol
_atom_site_fract_x
_atom_site_fract_y
_atom_site_fract_z
_atom_type_partial_charge
Mn0 Mn 0.05367 0.29048 0.52753 0.0
Mn1 Mn 0.87848 0.37641 0.53491 0.0
C2 C 0.94301 0.22976 0.54923 0.0
C3 C 0.15671 0.20275 0.50992 0.0
C4 C 1.00311 0.41195 0.64166 0.0
O5 O 0.06269 0.35852 0.44972 0.0
O6 O 0.95723 0.42446 0.48166 0.0
C7 C 0.84648 0.33469 0.35696 0.0
N8 N 0.81148 0.37375 0.42848 0.0
C9 C 0.65792 0.27619 0.40378 0.0
C10 C 0.70483 0.2406 0.33224 0.0
C11 C 0.79231 0.26723 0.30972 0.0
C12 C 0.69933 0.33775 0.45884 0.0
H13 H 0.90553 0.33475 0.34841 0.0
C14 C 1.00982 0.4057 0.43811 0.0
O15 O 0.16377 0.26589 0.54468 0.0
O16 O 0.09383 0.19493 0.47454 0.0
N17 N 0.77911 0.32899 0.60426 0.0
C18 C 0.76802 0.38503 0.67226 0.0
C19 C 0.62377 0.43452 0.66538 0.0
C20 C 0.57319 0.39844 0.59865 0.0
C21 C 0.60467 0.33807 0.53818 0.0
C22 C 0.69218 0.30926 0.53259 0.0
H23 H 0.81582 0.40152 0.70628 0.0
O24 O 1.00572 0.2181 0.58078 0.0
O25 O 0.94168 0.28425 0.51313 0.0
O26 O 0.05376 0.38059 0.60399 0.0
O27 O 0.93383 0.40106 0.62571 0.0
C28 C 0.55533 0.30771 0.48356 0.0
C29 C 0.58254 0.26894 0.42106 0.0
H30 H 0.68058 0.19795 0.29877 0.0
H31 H 0.8161 0.22882 0.27381 0.0
H32 H 0.59299 0.47506 0.69974 0.0
H33 H 0.51492 0.41557 0.59526 0.0
H34 H 0.49542 0.31501 0.48898 0.0
H35 H 0.54332 0.24191 0.38397 0.0
Mn36 Mn 0.82951 0.06039 0.53967 0.0
Mn37 Mn 0.75043 0.23226 0.58182 0.0
C38 C 0.89199 0.16868 0.53204 0.0
C39 C 0.90568 0.95443 0.54546 0.0
C40 C 0.6942 0.11524 0.46161 0.0
O41 O 0.74951 0.04506 0.61216 0.0
O42 O 0.71089 0.16474 0.64348 0.0
C43 C 0.66696 0.33958 0.72436 0.0
N44 N 0.67116 0.32878 0.64006 0.0
C45 C 0.72711 0.4999 0.6354 0.0
C46 C 0.72276 0.50034 0.72462 0.0
C47 C 0.69456 0.42496 0.76735 0.0
C48 C 0.70711 0.42358 0.58537 0.0
H49 H 0.64977 0.29526 0.75252 0.0
C50 C 0.71349 0.0955 0.65089 0.0
O51 O 0.84888 0.9555 0.50373 0.0
O52 O 0.91359 1.01166 0.59088 0.0
N53 N 0.80769 0.30375 0.50366 0.0
C54 C 0.7897 0.26276 0.42871 0.0
C55 C 0.72149 0.36873 0.35677 0.0
C56 C 0.71244 0.45068 0.40198 0.0
C57 C 0.74032 0.46984 0.48249 0.0
C58 C 0.77334 0.41018 0.53118 0.0
H59 H 0.79897 0.20366 0.41712 0.0
O60 O 0.91109 0.11 0.49252 0.0
O61 O 0.83411 0.16293 0.56745 0.0
O62 O 0.75241 0.07631 0.46721 0.0
O63 O 0.68106 0.17373 0.50416 0.0
C64 C 0.73306 0.54272 0.5186 0.0
C65 C 0.73836 0.55727 0.59347 0.0
H66 H 0.73586 0.55094 0.756 0.0
H67 H 0.69302 0.43196 0.82289 0.0
H68 H 0.69412 0.36396 0.30597 0.0
H69 H 0.68363 0.49396 0.37806 0.0
H70 H 0.72319 0.58878 0.48866 0.0
H71 H 0.74161 0.61329 0.61719 0.0
Mn72 Mn 0.06967 0.81724 0.54475 0.0
Mn73 Mn 0.23227 0.71297 0.51451 0.0
C74 C 0.17845 0.87461 0.52285 0.0
C75 C 0.96137 0.89332 0.53797 0.0
C76 C 0.13279 0.71388 0.64248 0.0
O77 O 1.03057 0.71973 0.49621 0.0
O78 O 0.14393 0.66464 0.46817 0.0
C79 C 0.24328 0.69953 0.33304 0.0
N80 N 0.28631 0.68245 0.40471 0.0
C81 C 0.43925 0.76927 0.3673 0.0
C82 C 0.38126 0.78412 0.29194 0.0
C83 C 0.29123 0.75002 0.27748 0.0
C84 C 0.40248 0.7237 0.42799 0.0
H85 H 0.18534 0.6867 0.32284 0.0
C86 C 0.072 0.67034 0.46246 0.0
O87 O 0.97427 0.85439 0.58784 0.0
O88 O 1.00595 0.88172 0.48611 0.0
N89 N 0.33909 0.77313 0.57502 0.0
C90 C 0.35587 0.73485 0.64427 0.0
C91 C 0.49904 0.68121 0.63492 0.0
C92 C 0.54297 0.69797 0.56624 0.0
C93 C 0.50591 0.74202 0.50512 0.0
C94 C 0.41863 0.7715 0.50024 0.0
H95 H 0.30822 0.71909 0.67143 0.0
O96 O 0.13133 0.90502 0.56712 0.0
O97 O 0.16869 0.80598 0.5002 0.0
O98 O 0.09713 0.77177 0.63245 0.0
O99 O 0.18768 0.69148 0.60471 0.0
C100 C 0.55058 0.7573 0.45111 0.0
C101 C 0.51948 0.78087 0.38948 0.0
H102 H 0.41767 0.78037 0.32857 0.0
H103 H 0.26934 0.75268 0.22655 0.0
H104 H 0.53201 0.64695 0.66816 0.0
H105 H 0.60048 0.6786 0.56162 0.0
H106 H 0.61064 0.75136 0.45739 0.0
H107 H 0.55928 0.79869 0.35649 0.0
Mn108 Mn 0.29711 0.03449 0.51624 0.0
Mn109 Mn 0.3686 0.8627 0.54939 0.0
C110 C 0.23423 0.92037 0.49544 0.0
C111 C 0.21337 0.14107 0.51829 0.0
C112 C 0.42814 0.95817 0.43527 0.0
O113 O 0.37281 0.05694 0.60398 0.0
O114 O 0.41295 0.93866 0.61344 0.0
C115 C 0.46278 0.7937 0.69092 0.0
N116 N 0.45045 0.78077 0.60731 0.0
C117 C 0.39187 0.61023 0.61165 0.0
C118 C 0.40595 0.6339 0.69989 0.0
C119 C 0.44027 0.71976 0.73739 0.0
C120 C 0.40746 0.67235 0.558 0.0
H121 H 0.45839 0.80244 0.63664 0.0
C122 C 0.41004 1.00678 0.63562 0.0
O123 O 0.27606 0.1375 0.48758 0.0
O124 O 0.20435 0.08846 0.55736 0.0
N125 N 0.30062 0.77311 0.47442 0.0
C126 C 0.31043 0.7913 0.39541 0.0
C127 C 0.36816 0.66508 0.32932 0.0
C128 C 0.3803 0.59592 0.3774 0.0
C129 C 0.36192 0.59971 0.45937 0.0
C130 C 0.33556 0.67312 0.50602 0.0
H131 H 0.30196 0.84684 0.38042 0.0
O132 O 0.21646 0.97387 0.459 0.0
O133 O 0.2911 0.93297 0.5333 0.0
O134 O 0.38056 1.00948 0.44908 0.0
O135 O 0.43334 0.901 0.47064 0.0
C136 C 0.37135 0.53676 0.49824 0.0
C137 C 0.37439 0.54245 0.5733 0.0
H138 H 0.39611 0.59281 0.73384 0.0
H139 H 0.45149 0.72563 0.79235 0.0
H140 H 0.3858 0.65224 0.27605 0.0
H141 H 0.40146 0.54432 0.35249 0.0
H142 H 0.37655 0.48269 0.47031 0.0
H143 H 0.37237 0.49332 0.59958 0.0
Mn144 Mn 0.54491 0.08175 0.27841 0.0
Mn145 Mn 0.6272 0.92885 0.31359 0.0
C146 C 0.52183 0.97405 0.1979 0.0
C147 C 0.6019 0.16736 0.19464 0.0
C148 C 0.64411 0.08316 0.40222 0.0
O149 O 0.4784 0.0355 0.35239 0.0
O150 O 0.52807 0.92175 0.35656 0.0
C151 C 0.55628 0.80147 0.23484 0.0
N152 N 0.61718 0.84331 0.24954 0.0
C153 C 0.69669 0.75252 0.18904 0.0
C154 C 0.63545 0.70561 0.17952 0.0
C155 C 0.56542 0.72961 0.20468 0.0
C156 C 0.68451 0.82217 0.22392 0.0
H157 H 0.50271 0.82254 0.25084 0.0
C158 C 0.48088 0.97206 0.37763 0.0
O159 O 0.543 0.18084 0.22806 0.0
O160 O 0.62821 0.10674 0.2083 0.0
N161 N 0.72586 0.93326 0.27769 0.0
C162 C 0.781 0.9814 0.29953 0.0
C163 C 0.8555 0.96465 0.28188 0.0
C164 C 0.87282 0.89939 0.24082 0.0
C165 C 0.81556 0.85047 0.21925 0.0
C166 C 0.74225 0.86999 0.23864 0.0
H167 H 0.769 0.03106 0.3323 0.0
O168 O 0.48021 0.03183 0.20038 0.0
O169 O 0.58056 0.98298 0.24003 0.0
O170 O 0.61209 0.12262 0.36017 0.0
O171 O 0.64916 1.01316 0.38694 0.0
C172 C 0.82925 0.78069 0.18379 0.0
C173 C 0.76999 0.73137 0.16957 0.0
H174 H 0.64175 0.64993 0.15611 0.0
H175 H 0.51854 0.69268 0.20083 0.0
H176 H 0.89999 1.00067 0.30201 0.0
H177 H 0.93058 0.88617 0.22831 0.0
H178 H 0.88556 0.76335 0.16958 0.0
H179 H 0.78206 0.67661 0.14574 0.0
Mn180 Mn 0.06696 0.5401 0.26942 0.0
Mn181 Mn 0.8977 0.55522 0.33367 0.0
C182 C 0.96555 0.51983 0.19453 0.0
C183 C 0.16139 0.57537 0.2015 0.0
C184 C 1.00549 0.44459 0.37352 0.0
O185 O 0.08516 0.61091 0.35257 0.0
O186 O 0.97197 0.60656 0.40077 0.0
C187 C 0.8607 0.71248 0.35659 0.0
N188 N 0.84433 0.64458 0.32498 0.0
C189 C 0.71233 0.6715 0.32635 0.0
C190 C 0.72777 0.7421 0.35858 0.0
C191 C 0.80229 0.76332 0.37211 0.0
C192 C 0.77308 0.62573 0.30732 0.0
H193 H 0.91755 0.72663 0.37219 0.0
C194 C 0.0406 0.62614 0.40223 0.0
O195 O 0.17502 0.52548 0.24316 0.0
O196 O 0.09747 0.6095 0.20556 0.0
N197 N 0.8216 0.50972 0.27454 0.0
C198 C 0.8185 0.44124 0.24005 0.0
C199 C 0.75156 0.41851 0.2053 0.0
C200 C 0.68652 0.46287 0.21445 0.0
C201 C 0.69138 0.53194 0.25244 0.0
C202 C 0.76209 0.55573 0.27609 0.0
H203 H 0.86703 0.4051 0.2388 0.0
O204 O 1.02658 0.47998 0.18915 0.0
O205 O 0.95911 0.56338 0.25228 0.0
O206 O 0.06208 0.46125 0.34073 0.0
O207 O 0.94046 0.46048 0.35169 0.0
C208 C 0.6289 0.57547 0.27332 0.0
C209 C 0.63963 0.64337 0.31337 0.0
H210 H 0.68359 0.7815 0.37186 0.0
H211 H 0.81441 0.81771 0.39682 0.0
H212 H 0.74837 0.36452 0.17701 0.0
H213 H 0.63279 0.4421 0.19521 0.0
H214 H 0.57259 0.55691 0.26008 0.0
H215 H 0.59097 0.67435 0.32994 0.0
Mn216 Mn 0.56696 0.04011 0.76944 0.0
Mn217 Mn 0.39771 0.0552 0.83368 0.0
C218 C 0.46555 0.01981 0.69456 0.0
C219 C 0.66137 0.07538 0.70149 0.0
C220 C 0.5055 0.94459 0.87353 0.0
O221 O 0.58515 0.11095 0.85257 0.0
O222 O 0.47198 0.10652 0.90079 0.0
C223 C 0.36071 0.21246 0.85663 0.0
N224 N 0.34433 0.14457 0.82502 0.0
C225 C 0.21234 0.1715 0.82637 0.0
C226 C 0.22778 0.2421 0.85859 0.0
C227 C 0.3023 0.26331 0.87214 0.0
C228 C 0.27308 0.12572 0.80735 0.0
H229 H 0.41756 0.22661 0.87223 0.0
C230 C 0.5406 0.12614 0.90224 0.0
O231 O 0.67502 0.0255 0.74316 0.0
O232 O 0.59744 0.10949 0.70556 0.0
N233 N 0.3216 1.00972 0.77455 0.0
C234 C 0.3185 0.94124 0.74005 0.0
C235 C 0.25156 0.91851 0.70529 0.0
C236 C 0.18652 0.96287 0.71445 0.0
C237 C 0.19138 0.03195 0.75244 0.0
C238 C 0.26209 0.05573 0.77611 0.0
H239 H 0.36703 0.90509 0.73879 0.0
O240 O 0.52658 0.97996 0.68919 0.0
O241 O 0.4591 0.06338 0.75229 0.0
O242 O 0.5621 0.96127 0.84076 0.0
O243 O 0.44048 0.96045 0.85165 0.0
C244 C 0.1289 0.07548 0.77332 0.0
C245 C 0.13963 0.14337 0.81337 0.0
H246 H 0.1836 0.28151 0.87186 0.0
H247 H 0.31443 0.3177 0.89684 0.0
H248 H 0.24836 0.86453 0.677 0.0
H249 H 0.13278 0.94212 0.6952 0.0
H250 H 0.07259 0.05693 0.76008 0.0
H251 H 0.09097 0.17436 0.82994 0.0
Mn252 Mn 0.0449 0.58175 0.7784 0.0
Mn253 Mn 0.12719 0.42886 0.81358 0.0
C254 C 1.02186 0.47408 0.69786 0.0
C255 C 0.10187 0.66735 0.69461 0.0
C256 C 0.1441 0.58316 0.90222 0.0
O257 O 0.97839 0.5355 0.85238 0.0
O258 O 1.02806 0.42175 0.85655 0.0
C259 C 0.05628 0.30147 0.73483 0.0
N260 N 0.11717 0.34331 0.74953 0.0
C261 C 0.19669 0.25252 0.68904 0.0
C262 C 0.13545 0.20561 0.67952 0.0
C263 C 0.06542 0.22961 0.70468 0.0
C264 C 0.18451 0.32217 0.72392 0.0
H265 H 1.0027 0.32254 0.75083 0.0
C266 C 0.98087 0.47207 0.87762 0.0
O267 O 0.04299 0.68085 0.72805 0.0
O268 O 0.1282 0.60675 0.7083 0.0
N269 N 0.22586 0.43327 0.7777 0.0
C270 C 0.281 0.4814 0.79954 0.0
C271 C 0.3555 0.46465 0.78189 0.0
C272 C 0.37282 0.39938 0.74084 0.0
C273 C 0.31556 0.35047 0.71927 0.0
C274 C 0.24225 0.36999 0.73864 0.0
H275 H 0.26899 0.53106 0.83231 0.0
O276 O 0.98021 0.53183 0.70036 0.0
O277 O 0.08056 0.48299 0.74003 0.0
O278 O 0.11208 0.62262 0.86017 0.0
O279 O 0.14915 0.51316 0.88693 0.0
C280 C 0.32925 0.28069 0.68381 0.0
C281 C 0.27 0.23137 0.66958 0.0
H282 H 0.14175 0.14993 0.65611 0.0
H283 H 1.01854 0.19268 0.70083 0.0
H284 H 0.39998 0.50067 0.80203 0.0
H285 H 0.43058 0.38617 0.72833 0.0
H286 H 0.38556 0.26335 0.66961 0.0
H287 H 0.28206 0.17661 0.64576 0.0
Mn288 Mn 0.32951 0.56039 0.03967 0.0
Mn289 Mn 0.25042 0.73226 0.08182 0.0
C290 C 0.39196 0.6687 0.03198 0.0
C291 C 0.40569 0.45444 0.04546 0.0
C292 C 0.19419 0.61523 0.96162 0.0
O293 O 0.24953 0.54506 0.11218 0.0
O294 O 0.2109 0.66474 0.14349 0.0
C295 C 0.16695 0.83957 0.22436 0.0
N296 N 0.17115 0.82877 0.14006 0.0
C297 C 0.22708 0.9999 0.13541 0.0
C298 C 0.22273 1.00034 0.22462 0.0
C299 C 0.19454 0.92495 0.26735 0.0
C300 C 0.20708 0.92358 0.08537 0.0
H301 H 0.14976 0.79525 0.25252 0.0
C302 C 0.21354 0.59551 0.15093 0.0
O303 O 0.34887 0.4555 0.00374 0.0
O304 O 0.41361 0.51168 0.09087 0.0
N305 N 0.30767 0.80376 0.00366 0.0
C306 C 0.28967 0.76277 0.9287 0.0
C307 C 0.22146 0.86874 0.85678 0.0
C308 C 0.2124 0.95069 0.90199 0.0
C309 C 0.24029 0.96984 0.98249 0.0
C310 C 0.27331 0.91019 0.03118 0.0
H311 H 0.29894 0.70367 0.91711 0.0
O312 O 0.41106 0.61 0.9925 0.0
O313 O 0.33411 0.66294 0.06743 0.0
O314 O 0.25239 0.57629 0.96723 0.0
O315 O 0.18105 0.67374 0.00416 0.0
C316 C 0.23301 0.04273 0.0186 0.0
C317 C 0.23832 0.05727 0.09348 0.0
H318 H 0.23583 0.05094 0.25601 0.0
H319 H 0.19301 0.93195 0.3229 0.0
H320 H 0.19408 0.86397 0.80597 0.0
H321 H 0.18359 0.99396 0.87807 0.0
H322 H 0.22314 0.08879 0.98866 0.0
H323 H 0.24157 0.11329 0.1172 0.0
Mn324 Mn 0.56967 0.31724 0.04473 0.0
Mn325 Mn 0.73228 0.21296 0.01451 0.0
C326 C 0.67845 0.3746 0.02286 0.0
C327 C 0.46138 0.39333 0.03796 0.0
C328 C 0.63279 0.21388 0.14248 0.0
O329 O 0.53057 0.21974 0.99619 0.0
O330 O 0.64393 0.16462 0.96818 0.0
C331 C 0.74328 0.19952 0.83304 0.0
N332 N 0.78631 0.18244 0.90471 0.0
C333 C 0.93925 0.26927 0.86729 0.0
C334 C 0.88125 0.28412 0.79194 0.0
C335 C 0.79122 0.25001 0.77748 0.0
C336 C 0.90248 0.2237 0.92799 0.0
H337 H 0.68534 0.1867 0.82284 0.0
C338 C 0.57199 0.1703 0.9625 0.0
O339 O 0.47426 0.35439 0.08782 0.0
O340 O 0.50597 0.38174 0.9861 0.0
N341 N 0.8391 0.27313 0.07502 0.0
C342 C 0.85589 0.23485 0.14427 0.0
C343 C 0.99906 0.18122 0.13491 0.0
C344 C 0.04298 0.19799 0.06623 0.0
C345 C 1.00591 0.24203 0.00511 0.0
C346 C 0.91863 0.27151 0.00023 0.0
H347 H 0.80824 0.2191 0.17144 0.0
O348 O 0.63133 0.40501 0.06713 0.0
O349 O 0.66869 0.30597 0.0002 0.0
O350 O 0.59709 0.27174 0.13242 0.0
O351 O 0.68769 0.19149 0.10472 0.0
C352 C 0.05058 0.25731 0.9511 0.0
C353 C 1.01948 0.28088 0.88947 0.0
H354 H 0.91767 0.28037 0.82856 0.0
H355 H 0.76933 0.25268 0.72655 0.0
H356 H 1.03203 0.14697 0.16815 0.0
H357 H 0.10049 0.17862 0.06161 0.0
H358 H 0.11064 0.25137 0.95739 0.0
H359 H 0.05927 0.2987 0.85648 0.0
Mn360 Mn 0.79709 0.53449 0.01623 0.0
Mn361 Mn 0.8686 0.3627 0.04939 0.0
C362 C 0.73423 0.42037 0.99544 0.0
C363 C 0.71334 0.64106 0.01829 0.0
C364 C 0.92813 0.45817 0.93525 0.0
O365 O 0.8728 0.55695 0.10396 0.0
O366 O 0.91294 0.43866 0.11344 0.0
C367 C 0.96279 0.29371 0.19091 0.0
N368 N 0.95045 0.28077 0.1073 0.0
C369 C 0.89189 0.11023 0.11165 0.0
C370 C 0.90597 0.1339 0.19989 0.0
C371 C 0.94029 0.21977 0.23738 0.0
C372 C 0.90747 0.17235 0.058 0.0
H373 H 0.9584 0.30245 0.13663 0.0
C374 C 0.91002 0.50679 0.13562 0.0
O375 O 0.77603 0.6375 0.98757 0.0
O376 O 0.70434 0.58845 0.05737 0.0
N377 N 0.80062 0.27311 0.97442 0.0
C378 C 0.81042 0.2913 0.89541 0.0
C379 C 0.86816 0.16508 0.82932 0.0
C380 C 0.88031 0.09592 0.8774 0.0
C381 C 0.86193 0.09971 0.95937 0.0
C382 C 0.83557 0.17312 0.00602 0.0
H383 H 0.80196 0.34684 0.88042 0.0
O384 O 0.71645 0.47386 0.95901 0.0
O385 O 0.7911 0.43297 0.0333 0.0
O386 O 0.88054 0.50948 0.94906 0.0
O387 O 0.93333 0.401 0.97064 0.0
C388 C 0.87137 0.03676 -0.00176 0.0
C389 C 0.87441 0.04245 0.0733 0.0
H390 H 0.89614 0.09282 0.23384 0.0
H391 H 0.95152 0.22564 0.29234 0.0
H392 H 0.88579 0.15224 0.77604 0.0
H393 H 0.90147 0.04433 0.85249 0.0
H394 H 0.87657 0.98269 0.97031 0.0
H395 H 0.8724 0.99332 0.09958 0.0
Mn396 Mn 0.55364 0.79047 0.02754 0.0
Mn397 Mn 0.37845 0.87643 0.03491 0.0
C398 C 0.44302 0.72976 0.04919 0.0
C399 C 0.65667 0.70274 0.00994 0.0
C400 C 0.50308 0.91195 0.14167 0.0
O401 O 0.56268 0.85854 0.94974 0.0
O402 O 0.45719 0.92447 0.98164 0.0
C403 C 0.34645 0.83471 0.85695 0.0
N404 N 0.31145 0.87377 0.92848 0.0
C405 C 0.15789 0.77619 0.90378 0.0
C406 C 0.2048 0.74062 0.83224 0.0
C407 C 0.29228 0.76725 0.80971 0.0
C408 C 0.1993 0.83775 0.95884 0.0
H409 H 0.4055 0.83476 0.84841 0.0
C410 C 0.50981 0.90571 0.93812 0.0
O411 O 0.66374 0.76588 0.0447 0.0
O412 O 0.59381 0.69494 0.97453 0.0
N413 N 0.27909 0.82899 0.10425 0.0
C414 C 0.268 0.88503 0.17226 0.0
C415 C 0.12375 0.93451 0.16539 0.0
C416 C 0.07317 0.89843 0.09866 0.0
C417 C 0.10465 0.83806 0.03818 0.0
C418 C 0.19216 0.80926 0.03259 0.0
H419 H 0.31581 0.90152 0.20628 0.0
O420 O 0.50569 0.71808 0.08078 0.0
O421 O 0.44166 0.78427 0.01311 0.0
O422 O 0.55374 0.88058 0.10402 0.0
O423 O 0.4338 0.90108 0.1257 0.0
C424 C 0.05531 0.8077 0.98357 0.0
C425 C 0.08252 0.76893 0.92106 0.0
H426 H 0.18055 0.69797 0.79876 0.0
H427 H 0.31607 0.72885 0.7738 0.0
H428 H 0.09297 0.97505 0.19975 0.0
H429 H 1.01489 0.91555 0.09528 0.0
H430 H 0.9954 0.815 0.989 0.0
H431 H 0.04329 0.7419 0.88398 0.0
loop_
_geom_bond_atom_site_label_1
_geom_bond_atom_site_label_2
_geom_bond_distance
_geom_bond_site_symmetry_2
_ccdc_geom_bond_type
Mn0 O5 2.095 . S
Mn0 O15 2.162 . S
Mn0 O16 2.297 . S
Mn0 O24 2.385 1_455 S
Mn0 O25 2.209 1_455 S
Mn0 O26 2.094 . S
Mn1 O6 2.121 . S
Mn1 N8 2.257 . S
Mn1 N17 2.282 . S
Mn1 O25 2.215 . S
Mn1 O27 2.117 . S
C2 O24 1.234 . S
C2 O25 1.283 . S
C3 O15 1.281 . S
C3 O16 1.236 . S
C4 O26 1.240 . S
C4 O27 1.264 1_455 S
O5 Mn0 2.095 . S
O5 C14 1.250 . S
O6 Mn1 2.121 . S
O6 C14 1.258 1_655 S
C7 N8 1.326 . S
C7 C11 1.460 . S
C7 H13 0.929 . S
N8 Mn1 2.257 . S
N8 C7 1.326 . S
N8 C12 1.362 . S
C9 C10 1.258 . S
C9 C12 1.431 . S
C9 C29 1.449 . S
C10 C9 1.258 . S
C10 C11 1.477 . S
C10 H30 0.931 . S
C11 C7 1.460 . S
C11 C10 1.477 . S
C11 H31 0.930 . S
C12 N8 1.362 . S
C12 C9 1.431 . S
C12 C22 1.476 . S
H13 C7 0.929 . S
C14 O5 1.250 . S
C14 O6 1.258 1_455 S
O15 Mn0 2.162 . S
O15 C3 1.281 . S
O16 Mn0 2.297 . S
O16 C3 1.236 . S
N17 Mn1 2.282 . S
N17 C18 1.328 . S
N17 C22 1.318 . S
C18 N17 1.328 . S
C18 C19 1.457 . S
C18 H23 0.929 . S
C19 C18 1.457 . S
C19 C20 1.291 . S
C19 H32 0.931 . S
C20 C19 1.291 . S
C20 C21 1.373 . S
C20 H33 0.929 . S
C21 C20 1.373 . S
C21 C22 1.396 . S
C21 C28 1.403 . S
C22 C12 1.476 . S
C22 N17 1.318 . S
C22 C21 1.396 . S
H23 C18 0.929 . S
O24 Mn0 2.385 1_655 S
O24 C2 1.234 . S
O25 Mn0 2.209 1_655 S
O25 Mn1 2.215 . S
O25 C2 1.283 . S
O26 Mn0 2.094 . S
O26 C4 1.240 . S
O27 Mn1 2.117 . S
O27 C4 1.264 1_655 S
C28 C21 1.403 . S
C28 C29 1.399 . S
C28 H34 0.929 . S
C29 C9 1.449 . S
C29 C28 1.399 . S
C29 H35 0.930 . S
H30 C10 0.931 . S
H31 C11 0.930 . S
H32 C19 0.931 . S
H33 C20 0.929 . S
H34 C28 0.929 . S
H35 C29 0.930 . S
Mn36 O41 2.095 . S
Mn36 O51 2.162 1_545 S
Mn36 O52 2.297 1_545 S
Mn36 O60 2.385 . S
Mn36 O61 2.209 . S
Mn36 O62 2.094 . S
Mn37 O42 2.121 . S
Mn37 N44 2.257 . S
Mn37 N53 2.282 . S
Mn37 O61 2.215 . S
Mn37 O63 2.117 . S
C38 O60 1.234 . S
C38 O61 1.283 . S
C39 O51 1.281 . S
C39 O52 1.236 . S
C40 O62 1.240 . S
C40 O63 1.264 . S
O41 Mn36 2.095 . S
O41 C50 1.250 . S
O42 Mn37 2.121 . S
O42 C50 1.258 . S
C43 N44 1.326 . S
C43 C47 1.460 . S
C43 H49 0.929 . S
N44 Mn37 2.257 . S
N44 C43 1.326 . S
N44 C48 1.362 . S
C45 C46 1.258 . S
C45 C48 1.431 . S
C45 C65 1.449 . S
C46 C45 1.258 . S
C46 C47 1.477 . S
C46 H66 0.931 . S
C47 C43 1.460 . S
C47 C46 1.477 . S
C47 H67 0.930 . S
C48 N44 1.362 . S
C48 C45 1.431 . S
C48 C58 1.476 . S
H49 C43 0.929 . S
C50 O41 1.250 . S
C50 O42 1.258 . S
O51 Mn36 2.162 1_565 S
O51 C39 1.281 . S
O52 Mn36 2.297 1_565 S
O52 C39 1.236 . S
N53 Mn37 2.282 . S
N53 C54 1.328 . S
N53 C58 1.318 . S
C54 N53 1.328 . S
C54 C55 1.457 . S
C54 H59 0.929 . S
C55 C54 1.457 . S
C55 C56 1.291 . S
C55 H68 0.931 . S
C56 C55 1.291 . S
C56 C57 1.373 . S
C56 H69 0.929 . S
C57 C56 1.373 . S
C57 C58 1.396 . S
C57 C64 1.403 . S
C58 C48 1.476 . S
C58 N53 1.318 . S
C58 C57 1.396 . S
H59 C54 0.929 . S
O60 Mn36 2.385 . S
O60 C38 1.234 . S
O61 Mn36 2.209 . S
O61 Mn37 2.215 . S
O61 C38 1.283 . S
O62 Mn36 2.094 . S
O62 C40 1.240 . S
O63 Mn37 2.117 . S
O63 C40 1.264 . S
C64 C57 1.403 . S
C64 C65 1.399 . S
C64 H70 0.929 . S
C65 C45 1.449 . S
C65 C64 1.399 . S
C65 H71 0.930 . S
H66 C46 0.931 . S
H67 C47 0.930 . S
H68 C55 0.931 . S
H69 C56 0.929 . S
H70 C64 0.929 . S
H71 C65 0.930 . S
Mn72 O77 2.095 . S
Mn72 O87 2.162 1_455 S
Mn72 O88 2.297 1_455 S
Mn72 O96 2.385 . S
Mn72 O97 2.209 . S
Mn72 O98 2.094 . S
Mn73 O78 2.121 . S
Mn73 N80 2.257 . S
Mn73 N89 2.282 . S
Mn73 O97 2.215 . S
Mn73 O99 2.117 . S
C74 O96 1.234 . S
C74 O97 1.283 . S
C75 O87 1.281 . S
C75 O88 1.236 . S
C76 O98 1.240 . S
C76 O99 1.264 . S
O77 Mn72 2.095 . S
O77 C86 1.250 . S
O78 Mn73 2.121 . S
O78 C86 1.258 . S
C79 N80 1.326 . S
C79 C83 1.460 . S
C79 H85 0.929 . S
N80 Mn73 2.257 . S
N80 C79 1.326 . S
N80 C84 1.362 . S
C81 C82 1.258 . S
C81 C84 1.431 . S
C81 C101 1.449 . S
C82 C81 1.258 . S
C82 C83 1.477 . S
C82 H102 0.931 . S
C83 C79 1.460 . S
C83 C82 1.477 . S
C83 H103 0.930 . S
C84 N80 1.362 . S
C84 C81 1.431 . S
C84 C94 1.476 . S
H85 C79 0.929 . S
C86 O77 1.250 . S
C86 O78 1.258 . S
O87 Mn72 2.162 1_655 S
O87 C75 1.281 . S
O88 Mn72 2.297 1_655 S
O88 C75 1.236 . S
N89 Mn73 2.282 . S
N89 C90 1.328 . S
N89 C94 1.318 . S
C90 N89 1.328 . S
C90 C91 1.457 . S
C90 H95 0.929 . S
C91 C90 1.457 . S
C91 C92 1.291 . S
C91 H104 0.931 . S
C92 C91 1.291 . S
C92 C93 1.373 . S
C92 H105 0.929 . S
C93 C92 1.373 . S
C93 C94 1.396 . S
C93 C100 1.403 . S
C94 C84 1.476 . S
C94 N89 1.318 . S
C94 C93 1.396 . S
H95 C90 0.929 . S
O96 Mn72 2.385 . S
O96 C74 1.234 . S
O97 Mn72 2.209 . S
O97 Mn73 2.215 . S
O97 C74 1.283 . S
O98 Mn72 2.094 . S
O98 C76 1.240 . S
O99 Mn73 2.117 . S
O99 C76 1.264 . S
C100 C93 1.403 . S
C100 C101 1.399 . S
C100 H106 0.929 . S
C101 C81 1.449 . S
C101 C100 1.399 . S
C101 H107 0.930 . S
H102 C82 0.931 . S
H103 C83 0.930 . S
H104 C91 0.931 . S
H105 C92 0.929 . S
H106 C100 0.929 . S
H107 C101 0.930 . S
Mn108 O113 2.095 . S
Mn108 O123 2.162 . S
Mn108 O124 2.297 . S
Mn108 O132 2.385 1_545 S
Mn108 O133 2.209 1_545 S
Mn108 O134 2.094 . S
Mn109 O114 2.121 . S
Mn109 N116 2.257 . S
Mn109 N125 2.282 . S
Mn109 O133 2.215 . S
Mn109 O135 2.117 . S
C110 O132 1.234 . S
C110 O133 1.283 . S
C111 O123 1.281 . S
C111 O124 1.236 . S
C112 O134 1.240 . S
C112 O135 1.264 1_545 S
O113 Mn108 2.095 . S
O113 C122 1.250 . S
O114 Mn109 2.121 . S
O114 C122 1.258 1_565 S
C115 N116 1.326 . S
C115 C119 1.460 . S
C115 H121 0.929 . S
N116 Mn109 2.257 . S
N116 C115 1.326 . S
N116 C120 1.362 . S
C117 C118 1.258 . S
C117 C120 1.431 . S
C117 C137 1.449 . S
C118 C117 1.258 . S
C118 C119 1.477 . S
C118 H138 0.931 . S
C119 C115 1.460 . S
C119 C118 1.477 . S
C119 H139 0.930 . S
C120 N116 1.362 . S
C120 C117 1.431 . S
C120 C130 1.476 . S
H121 C115 0.929 . S
C122 O113 1.250 . S
C122 O114 1.258 1_545 S
O123 Mn108 2.162 . S
O123 C111 1.281 . S
O124 Mn108 2.297 . S
O124 C111 1.236 . S
N125 Mn109 2.282 . S
N125 C126 1.328 . S
N125 C130 1.318 . S
C126 N125 1.328 . S
C126 C127 1.457 . S
C126 H131 0.929 . S
C127 C126 1.457 . S
C127 C128 1.291 . S
C127 H140 0.931 . S
C128 C127 1.291 . S
C128 C129 1.373 . S
C128 H141 0.929 . S
C129 C128 1.373 . S
C129 C130 1.396 . S
C129 C136 1.403 . S
C130 C120 1.476 . S
C130 N125 1.318 . S
C130 C129 1.396 . S
H131 C126 0.929 . S
O132 Mn108 2.385 1_565 S
O132 C110 1.234 . S
O133 Mn108 2.209 1_565 S
O133 Mn109 2.215 . S
O133 C110 1.283 . S
O134 Mn108 2.094 . S
O134 C112 1.240 . S
O135 Mn109 2.117 . S
O135 C112 1.264 1_565 S
C136 C129 1.403 . S
C136 C137 1.399 . S
C136 H142 0.929 . S
C137 C117 1.449 . S
C137 C136 1.399 . S
C137 H143 0.930 . S
H138 C118 0.931 . S
H139 C119 0.930 . S
H140 C127 0.931 . S
H141 C128 0.929 . S
H142 C136 0.929 . S
H143 C137 0.930 . S
Mn144 O149 2.095 . S
Mn144 O159 2.162 . S
Mn144 O160 2.297 . S
Mn144 O168 2.385 1_545 S
Mn144 O169 2.209 1_545 S
Mn144 O170 2.094 . S
Mn145 O150 2.121 . S
Mn145 N152 2.257 . S
Mn145 N161 2.282 . S
Mn145 O169 2.215 . S
Mn145 O171 2.117 . S
C146 O168 1.234 . S
C146 O169 1.283 . S
C147 O159 1.281 . S
C147 O160 1.236 . S
C148 O170 1.240 . S
C148 O171 1.264 1_545 S
O149 Mn144 2.095 . S
O149 C158 1.250 . S
O150 Mn145 2.121 . S
O150 C158 1.258 1_565 S
C151 N152 1.326 . S
C151 C155 1.460 . S
C151 H157 0.929 . S
N152 Mn145 2.257 . S
N152 C151 1.326 . S
N152 C156 1.362 . S
C153 C154 1.258 . S
C153 C156 1.431 . S
C153 C173 1.449 . S
C154 C153 1.258 . S
C154 C155 1.477 . S
C154 H174 0.931 . S
C155 C151 1.460 . S
C155 C154 1.477 . S
C155 H175 0.930 . S
C156 N152 1.362 . S
C156 C153 1.431 . S
C156 C166 1.476 . S
H157 C151 0.929 . S
C158 O149 1.250 . S
C158 O150 1.258 1_545 S
O159 Mn144 2.162 . S
O159 C147 1.281 . S
O160 Mn144 2.297 . S
O160 C147 1.236 . S
N161 Mn145 2.282 . S
N161 C162 1.328 . S
N161 C166 1.318 . S
C162 N161 1.328 . S
C162 C163 1.457 . S
C162 H167 0.929 . S
C163 C162 1.457 . S
C163 C164 1.291 . S
C163 H176 0.931 . S
C164 C163 1.291 . S
C164 C165 1.373 . S
C164 H177 0.929 . S
C165 C164 1.373 . S
C165 C166 1.396 . S
C165 C172 1.403 . S
C166 C156 1.476 . S
C166 N161 1.318 . S
C166 C165 1.396 . S
H167 C162 0.929 . S
O168 Mn144 2.385 1_565 S
O168 C146 1.234 . S
O169 Mn144 2.209 1_565 S
O169 Mn145 2.215 . S
O169 C146 1.283 . S
O170 Mn144 2.094 . S
O170 C148 1.240 . S
O171 Mn145 2.117 . S
O171 C148 1.264 1_565 S
C172 C165 1.403 . S
C172 C173 1.399 . S
C172 H178 0.929 . S
C173 C153 1.449 . S
C173 C172 1.399 . S
C173 H179 0.930 . S
H174 C154 0.931 . S
H175 C155 0.930 . S
H176 C163 0.931 . S
H177 C164 0.929 . S
H178 C172 0.929 . S
H179 C173 0.930 . S
Mn180 O185 2.095 . S
Mn180 O195 2.162 . S
Mn180 O196 2.297 . S
Mn180 O204 2.385 1_455 S
Mn180 O205 2.209 1_455 S
Mn180 O206 2.094 . S
Mn181 O186 2.121 . S
Mn181 N188 2.257 . S
Mn181 N197 2.282 . S
Mn181 O205 2.215 . S
Mn181 O207 2.117 . S
C182 O204 1.234 . S
C182 O205 1.283 . S
C183 O195 1.281 . S
C183 O196 1.236 . S
C184 O206 1.240 . S
C184 O207 1.264 1_455 S
O185 Mn180 2.095 . S
O185 C194 1.250 . S
O186 Mn181 2.121 . S
O186 C194 1.258 1_655 S
C187 N188 1.326 . S
C187 C191 1.460 . S
C187 H193 0.929 . S
N188 Mn181 2.257 . S
N188 C187 1.326 . S
N188 C192 1.362 . S
C189 C190 1.258 . S
C189 C192 1.431 . S
C189 C209 1.449 . S
C190 C189 1.258 . S
C190 C191 1.477 . S
C190 H210 0.931 . S
C191 C187 1.460 . S
C191 C190 1.477 . S
C191 H211 0.930 . S
C192 N188 1.362 . S
C192 C189 1.431 . S
C192 C202 1.476 . S
H193 C187 0.929 . S
C194 O185 1.250 . S
C194 O186 1.258 1_455 S
O195 Mn180 2.162 . S
O195 C183 1.281 . S
O196 Mn180 2.297 . S
O196 C183 1.236 . S
N197 Mn181 2.282 . S
N197 C198 1.328 . S
N197 C202 1.318 . S
C198 N197 1.328 . S
C198 C199 1.457 . S
C198 H203 0.929 . S
C199 C198 1.457 . S
C199 C200 1.291 . S
C199 H212 0.931 . S
C200 C199 1.291 . S
C200 C201 1.373 . S
C200 H213 0.929 . S
C201 C200 1.373 . S
C201 C202 1.396 . S
C201 C208 1.403 . S
C202 C192 1.476 . S
C202 N197 1.318 . S
C202 C201 1.396 . S
H203 C198 0.929 . S
O204 Mn180 2.385 1_655 S
O204 C182 1.234 . S
O205 Mn180 2.209 1_655 S
O205 Mn181 2.215 . S
O205 C182 1.283 . S
O206 Mn180 2.094 . S
O206 C184 1.240 . S
O207 Mn181 2.117 . S
O207 C184 1.264 1_655 S
C208 C201 1.403 . S
C208 C209 1.399 . S
C208 H214 0.929 . S
C209 C189 1.449 . S
C209 C208 1.399 . S
C209 H215 0.930 . S
H210 C190 0.931 . S
H211 C191 0.930 . S
H212 C199 0.931 . S
H213 C200 0.929 . S
H214 C208 0.929 . S
H215 C209 0.930 . S
Mn216 O221 2.095 . S
Mn216 O231 2.162 . S
Mn216 O232 2.297 . S
Mn216 O240 2.385 1_545 S
Mn216 O241 2.209 . S
Mn216 O242 2.094 1_545 S
Mn217 O222 2.121 . S
Mn217 N224 2.257 . S
Mn217 N233 2.282 1_545 S
Mn217 O241 2.215 . S
Mn217 O243 2.117 1_545 S
C218 O240 1.234 1_545 S
C218 O241 1.283 . S
C219 O231 1.281 . S
C219 O232 1.236 . S
C220 O242 1.240 . S
C220 O243 1.264 . S
O221 Mn216 2.095 . S
O221 C230 1.250 . S
O222 Mn217 2.121 . S
O222 C230 1.258 . S
C223 N224 1.326 . S
C223 C227 1.460 . S
C223 H229 0.929 . S
N224 Mn217 2.257 . S
N224 C223 1.326 . S
N224 C228 1.362 . S
C225 C226 1.258 . S
C225 C228 1.431 . S
C225 C245 1.449 . S
C226 C225 1.258 . S
C226 C227 1.477 . S
C226 H246 0.931 . S
C227 C223 1.460 . S
C227 C226 1.477 . S
C227 H247 0.930 . S
C228 N224 1.362 . S
C228 C225 1.431 . S
C228 C238 1.476 . S
H229 C223 0.929 . S
C230 O221 1.250 . S
C230 O222 1.258 . S
O231 Mn216 2.162 . S
O231 C219 1.281 . S
O232 Mn216 2.297 . S
O232 C219 1.236 . S
N233 Mn217 2.282 1_565 S
N233 C234 1.328 . S
N233 C238 1.318 1_565 S
C234 N233 1.328 . S
C234 C235 1.457 . S
C234 H239 0.929 . S
C235 C234 1.457 . S
C235 C236 1.291 . S
C235 H248 0.931 . S
C236 C235 1.291 . S
C236 C237 1.373 . S
C236 H249 0.929 . S
C237 C236 1.373 . S
C237 C238 1.396 1_565 S
C237 C244 1.403 1_565 S
C238 C228 1.476 . S
C238 N233 1.318 1_545 S
C238 C237 1.396 1_545 S
H239 C234 0.929 . S
O240 Mn216 2.385 1_565 S
O240 C218 1.234 1_565 S
O241 Mn216 2.209 . S
O241 Mn217 2.215 . S
O241 C218 1.283 . S
O242 Mn216 2.094 1_565 S
O242 C220 1.240 . S
O243 Mn217 2.117 1_565 S
O243 C220 1.264 . S
C244 C237 1.403 1_545 S
C244 C245 1.399 . S
C244 H250 0.929 1_545 S
C245 C225 1.449 . S
C245 C244 1.399 . S
C245 H251 0.930 . S
H246 C226 0.931 . S
H247 C227 0.930 . S
H248 C235 0.931 . S
H249 C236 0.929 . S
H250 C244 0.929 1_565 S
H251 C245 0.930 . S
Mn252 O257 2.095 1_455 S
Mn252 O267 2.162 . S
Mn252 O268 2.297 1_455 S
Mn252 O276 2.385 . S
Mn252 O277 2.209 . S
Mn252 O278 2.094 . S
Mn253 O258 2.121 1_455 S
Mn253 N260 2.257 1_455 S
Mn253 N269 2.282 . S
Mn253 O277 2.215 . S
Mn253 O279 2.117 . S
C254 O276 1.234 . S
C254 O277 1.283 . S
C255 O267 1.281 . S
C255 O268 1.236 1_455 S
C256 O278 1.240 . S
C256 O279 1.264 . S
O257 Mn252 2.095 1_655 S
O257 C266 1.250 . S
O258 Mn253 2.121 1_655 S
O258 C266 1.258 . S
C259 N260 1.326 . S
C259 C263 1.460 . S
C259 H265 0.929 . S
N260 Mn253 2.257 1_655 S
N260 C259 1.326 . S
N260 C264 1.362 . S
C261 C262 1.258 . S
C261 C264 1.431 . S
C261 C281 1.449 . S
C262 C261 1.258 . S
C262 C263 1.477 . S
C262 H282 0.931 . S
C263 C259 1.460 . S
C263 C262 1.477 . S
C263 H283 0.930 . S
C264 N260 1.362 . S
C264 C261 1.431 . S
C264 C274 1.476 1_655 S
H265 C259 0.929 . S
C266 O257 1.250 . S
C266 O258 1.258 . S
O267 Mn252 2.162 . S
O267 C255 1.281 . S
O268 Mn252 2.297 1_655 S
O268 C255 1.236 1_655 S
N269 Mn253 2.282 . S
N269 C270 1.328 . S
N269 C274 1.318 . S
C270 N269 1.328 . S
C270 C271 1.457 . S
C270 H275 0.929 . S
C271 C270 1.457 . S
C271 C272 1.291 . S
C271 H284 0.931 . S
C272 C271 1.291 . S
C272 C273 1.373 . S
C272 H285 0.929 . S
C273 C272 1.373 . S
C273 C274 1.396 . S
C273 C280 1.403 . S
C274 C264 1.476 1_455 S
C274 N269 1.318 . S
C274 C273 1.396 . S
H275 C270 0.929 . S
O276 Mn252 2.385 . S
O276 C254 1.234 . S
O277 Mn252 2.209 . S
O277 Mn253 2.215 . S
O277 C254 1.283 . S
O278 Mn252 2.094 . S
O278 C256 1.240 . S
O279 Mn253 2.117 . S
O279 C256 1.264 . S
C280 C273 1.403 . S
C280 C281 1.399 1_455 S
C280 H286 0.929 . S
C281 C261 1.449 . S
C281 C280 1.399 1_655 S
C281 H287 0.930 . S
H282 C262 0.931 . S
H283 C263 0.930 . S
H284 C271 0.931 . S
H285 C272 0.929 . S
H286 C280 0.929 . S
H287 C281 0.930 . S
Mn288 O293 2.095 . S
Mn288 O303 2.162 1_554 S
Mn288 O304 2.297 . S
Mn288 O312 2.385 1_554 S
Mn288 O313 2.209 . S
Mn288 O314 2.094 1_554 S
Mn289 O294 2.121 . S
Mn289 N296 2.257 . S
Mn289 N305 2.282 1_554 S
Mn289 O313 2.215 . S
Mn289 O315 2.117 1_554 S
C290 O312 1.234 1_554 S
C290 O313 1.283 . S
C291 O303 1.281 1_554 S
C291 O304 1.236 . S
C292 O314 1.240 . S
C292 O315 1.264 . S
O293 Mn288 2.095 . S
O293 C302 1.250 . S
O294 Mn289 2.121 . S
O294 C302 1.258 . S
C295 N296 1.326 . S
C295 C299 1.460 . S
C295 H301 0.929 . S
N296 Mn289 2.257 . S
N296 C295 1.326 . S
N296 C300 1.362 . S
C297 C298 1.258 . S
C297 C300 1.431 . S
C297 C317 1.449 . S
C298 C297 1.258 . S
C298 C299 1.477 . S
C298 H318 0.931 . S
C299 C295 1.460 . S
C299 C298 1.477 . S
C299 H319 0.930 . S
C300 N296 1.362 . S
C300 C297 1.431 . S
C300 C310 1.476 . S
H301 C295 0.929 . S
C302 O293 1.250 . S
C302 O294 1.258 . S
O303 Mn288 2.162 1_556 S
O303 C291 1.281 1_556 S
O304 Mn288 2.297 . S
O304 C291 1.236 . S
N305 Mn289 2.282 1_556 S
N305 C306 1.328 . S
N305 C310 1.318 1_556 S
C306 N305 1.328 . S
C306 C307 1.457 . S
C306 H311 0.929 . S
C307 C306 1.457 . S
C307 C308 1.291 . S
C307 H320 0.931 . S
C308 C307 1.291 . S
C308 C309 1.373 . S
C308 H321 0.929 . S
C309 C308 1.373 . S
C309 C310 1.396 1_556 S
C309 C316 1.403 1_556 S
C310 C300 1.476 . S
C310 N305 1.318 1_554 S
C310 C309 1.396 1_554 S
H311 C306 0.929 . S
O312 Mn288 2.385 1_556 S
O312 C290 1.234 1_556 S
O313 Mn288 2.209 . S
O313 Mn289 2.215 . S
O313 C290 1.283 . S
O314 Mn288 2.094 1_556 S
O314 C292 1.240 . S
O315 Mn289 2.117 1_556 S
O315 C292 1.264 . S
C316 C309 1.403 1_554 S
C316 C317 1.399 . S
C316 H322 0.929 . S
C317 C297 1.449 . S
C317 C316 1.399 . S
C317 H323 0.930 . S
H318 C298 0.931 . S
H319 C299 0.930 . S
H320 C307 0.931 . S
H321 C308 0.929 . S
H322 C316 0.929 . S
H323 C317 0.930 . S
Mn324 O329 2.095 1_554 S
Mn324 O339 2.162 . S
Mn324 O340 2.297 1_554 S
Mn324 O348 2.385 . S
Mn324 O349 2.209 1_554 S
Mn324 O350 2.094 . S
Mn325 O330 2.121 . S
Mn325 N332 2.257 . S
Mn325 N341 2.282 1_556 S
Mn325 O349 2.215 . S
Mn325 O351 2.117 1_556 S
C326 O348 1.234 . S
C326 O349 1.283 1_554 S
C327 O339 1.281 1_556 S
C327 O340 1.236 . S
C328 O350 1.240 . S
C328 O351 1.264 . S
O329 Mn324 2.095 1_556 S
O329 C338 1.250 . S
O330 Mn325 2.121 . S
O330 C338 1.258 . S
C331 N332 1.326 . S
C331 C335 1.460 . S
C331 H337 0.929 . S
N332 Mn325 2.257 . S
N332 C331 1.326 . S
N332 C336 1.362 . S
C333 C334 1.258 . S
C333 C336 1.431 . S
C333 C353 1.449 . S
C334 C333 1.258 . S
C334 C335 1.477 . S
C334 H354 0.931 . S
C335 C331 1.460 . S
C335 C334 1.477 . S
C335 H355 0.930 . S
C336 N332 1.362 . S
C336 C333 1.431 . S
C336 C346 1.476 1_556 S
H337 C331 0.929 . S
C338 O329 1.250 . S
C338 O330 1.258 . S
O339 Mn324 2.162 . S
O339 C327 1.281 1_554 S
O340 Mn324 2.297 1_556 S
O340 C327 1.236 . S
N341 Mn325 2.282 1_554 S
N341 C342 1.328 . S
N341 C346 1.318 . S
C342 N341 1.328 . S
C342 C343 1.457 . S
C342 H347 0.929 . S
C343 C342 1.457 . S
C343 C344 1.291 . S
C343 H356 0.931 . S
C344 C343 1.291 . S
C344 C345 1.373 . S
C344 H357 0.929 . S
C345 C344 1.373 . S
C345 C346 1.396 . S
C345 C352 1.403 . S
C346 C336 1.476 1_554 S
C346 N341 1.318 . S
C346 C345 1.396 . S
H347 C342 0.929 . S
O348 Mn324 2.385 . S
O348 C326 1.234 . S
O349 Mn324 2.209 1_556 S
O349 Mn325 2.215 . S
O349 C326 1.283 1_556 S
O350 Mn324 2.094 . S
O350 C328 1.240 . S
O351 Mn325 2.117 1_554 S
O351 C328 1.264 . S
C352 C345 1.403 . S
C352 C353 1.399 1_554 S
C352 H358 0.929 . S
C353 C333 1.449 . S
C353 C352 1.399 1_556 S
C353 H359 0.930 . S
H354 C334 0.931 . S
H355 C335 0.930 . S
H356 C343 0.931 . S
H357 C344 0.929 . S
H358 C352 0.929 . S
H359 C353 0.930 . S
Mn360 O365 2.095 . S
Mn360 O375 2.162 1_554 S
Mn360 O376 2.297 . S
Mn360 O384 2.385 1_554 S
Mn360 O385 2.209 . S
Mn360 O386 2.094 1_554 S
Mn361 O366 2.121 . S
Mn361 N368 2.257 . S
Mn361 N377 2.282 1_554 S
Mn361 O385 2.215 . S
Mn361 O387 2.117 1_554 S
C362 O384 1.234 1_554 S
C362 O385 1.283 . S
C363 O375 1.281 1_554 S
C363 O376 1.236 . S
C364 O386 1.240 . S
C364 O387 1.264 . S
O365 Mn360 2.095 . S
O365 C374 1.250 . S
O366 Mn361 2.121 . S
O366 C374 1.258 . S
C367 N368 1.326 . S
C367 C371 1.460 . S
C367 H373 0.929 . S
N368 Mn361 2.257 . S
N368 C367 1.326 . S
N368 C372 1.362 . S
C369 C370 1.258 . S
C369 C372 1.431 . S
C369 C389 1.449 . S
C370 C369 1.258 . S
C370 C371 1.477 . S
C370 H390 0.931 . S
C371 C367 1.460 . S
C371 C370 1.477 . S
C371 H391 0.930 . S
C372 N368 1.362 . S
C372 C369 1.431 . S
C372 C382 1.460 1_554 S
H373 C367 0.929 . S
C374 O365 1.250 . S
C374 O366 1.258 . S
O375 Mn360 2.162 1_556 S
O375 C363 1.281 1_556 S
O376 Mn360 2.297 . S
O376 C363 1.236 . S
N377 Mn361 2.282 1_556 S
N377 C378 1.328 . S
N377 C382 1.325 . S
C378 N377 1.328 . S
C378 C379 1.457 . S
C378 H383 0.929 . S
C379 C378 1.457 . S
C379 C380 1.291 . S
C379 H392 0.931 . S
C380 C379 1.291 . S
C380 C381 1.373 . S
C380 H393 0.929 . S
C381 C380 1.373 . S
C381 C382 1.403 . S
C381 C388 1.398 1_556 S
C382 C372 1.460 1_556 S
C382 N377 1.325 . S
C382 C381 1.403 . S
H383 C378 0.929 . S
O384 Mn360 2.385 1_556 S
O384 C362 1.234 1_556 S
O385 Mn360 2.209 . S
O385 Mn361 2.215 . S
O385 C362 1.283 . S
O386 Mn360 2.094 1_556 S
O386 C364 1.240 . S
O387 Mn361 2.117 1_556 S
O387 C364 1.264 . S
C388 C381 1.398 1_554 S
C388 C389 1.407 . S
C388 H394 0.926 1_554 S
C389 C369 1.449 . S
C389 C388 1.407 . S
C389 H395 0.930 . S
H390 C370 0.931 . S
H391 C371 0.930 . S
H392 C379 0.931 . S
H393 C380 0.929 . S
H394 C388 0.926 1_556 S
H395 C389 0.930 . S
Mn396 O401 2.095 1_554 S
Mn396 O411 2.162 . S
Mn396 O412 2.297 1_554 S
Mn396 O420 2.385 . S
Mn396 O421 2.209 . S
Mn396 O422 2.094 . S
Mn397 O402 2.121 1_554 S
Mn397 N404 2.257 1_554 S
Mn397 N413 2.282 . S
Mn397 O421 2.215 . S
Mn397 O423 2.117 . S
C398 O420 1.234 . S
C398 O421 1.283 . S
C399 O411 1.281 . S
C399 O412 1.236 1_554 S
C400 O422 1.240 . S
C400 O423 1.264 . S
O401 Mn396 2.095 1_556 S
O401 C410 1.250 . S
O402 Mn397 2.121 1_556 S
O402 C410 1.258 . S
C403 N404 1.326 . S
C403 C407 1.460 . S
C403 H409 0.929 . S
N404 Mn397 2.257 1_556 S
N404 C403 1.326 . S
N404 C408 1.362 . S
C405 C406 1.258 . S
C405 C408 1.431 . S
C405 C425 1.449 . S
C406 C405 1.258 . S
C406 C407 1.477 . S
C406 H426 0.931 . S
C407 C403 1.460 . S
C407 C406 1.477 . S
C407 H427 0.930 . S
C408 N404 1.362 . S
C408 C405 1.431 . S
C408 C418 1.476 1_556 S
H409 C403 0.929 . S
C410 O401 1.250 . S
C410 O402 1.258 . S
O411 Mn396 2.162 . S
O411 C399 1.281 . S
O412 Mn396 2.297 1_556 S
O412 C399 1.236 1_556 S
N413 Mn397 2.282 . S
N413 C414 1.328 . S
N413 C418 1.318 . S
C414 N413 1.328 . S
C414 C415 1.457 . S
C414 H419 0.929 . S
C415 C414 1.457 . S
C415 C416 1.291 . S
C415 H428 0.931 . S
C416 C415 1.291 . S
C416 C417 1.373 . S
C416 H429 0.929 . S
C417 C416 1.373 . S
C417 C418 1.396 . S
C417 C424 1.403 . S
C418 C408 1.476 1_554 S
C418 N413 1.318 . S
C418 C417 1.396 . S
H419 C414 0.929 . S
O420 Mn396 2.385 . S
O420 C398 1.234 . S
O421 Mn396 2.209 . S
O421 Mn397 2.215 . S
O421 C398 1.283 . S
O422 Mn396 2.094 . S
O422 C400 1.240 . S
O423 Mn397 2.117 . S
O423 C400 1.264 . S
C424 C417 1.403 . S
C424 C425 1.399 1_554 S
C424 H430 0.929 . S
C425 C405 1.449 . S
C425 C424 1.399 1_556 S
C425 H431 0.930 . S
H426 C406 0.931 . S
H427 C407 0.930 . S
H428 C415 0.931 . S
H429 C416 0.929 . S
H430 C424 0.929 . S
H431 C425 0.930 . S
C14 C184 1.610 . S
C40 C148 1.564 . S
C194 C86 1.223 . S
C112 C158 1.356 . S
C255 C76 1.631 . S
C218 C122 1.646 . S
C4 C254 1.581 . S
C219 C50 1.382 . S
C327 C291 1.641 1_556 S
C290 C398 1.523 . S
C326 C362 1.594 . S
C363 C399 1.770 . S
C410 C220 1.610 . S
C292 C256 1.564 . S
C230 C338 1.223 . S
C266 C364 1.356 . S
C147 C328 1.631 . S
C182 C374 1.646 . S
C400 C146 1.581 . S
C302 C183 1.382 . S
C39 C75 1.641 . S
C2 C38 1.522 . S
C74 C110 1.594 . S
C3 C111 1.770 . S
