# Generated by pormake.
# Topology etf, (3)-cn, num edge types: 1
# Building blocks:
#     Node 0, Type 0, BuildingBlock: WUSLED_clean_sbu_0, # of connection points: 3
#     Node 1, Type 0, BuildingBlock: WUSLED_clean_sbu_0, # of connection points: 3
#     Node 2, Type 0, BuildingBlock: WUSLED_clean_sbu_0, # of connection points: 3
#     Node 3, Type 0, BuildingBlock: WUSLED_clean_sbu_0, # of connection points: 3
#     Node 4, Type 0, BuildingBlock: WUSLED_clean_sbu_0, # of connection points: 3
#     Node 5, Type 0, BuildingBlock: WUSLED_clean_sbu_0, # of connection points: 3
#     Node 6, Type 0, BuildingBlock: WUSLED_clean_sbu_0, # of connection points: 3
#     Node 7, Type 0, BuildingBlock: WUSLED_clean_sbu_0, # of connection points: 3
#     Node 8, Type 0, BuildingBlock: WUSLED_clean_sbu_0, # of connection points: 3
#     Node 9, Type 0, BuildingBlock: WUSLED_clean_sbu_0, # of connection points: 3
#     Node 10, Type 0, BuildingBlock: WUSLED_clean_sbu_0, # of connection points: 3
#     Node 11, Type 0, BuildingBlock: WUSLED_clean_sbu_0, # of connection points: 3
#     Node 12, Type 0, BuildingBlock: WUSLED_clean_sbu_0, # of connection points: 3
#     Node 13, Type 0, BuildingBlock: WUSLED_clean_sbu_0, # of connection points: 3
#     Node 14, Type 0, BuildingBlock: WUSLED_clean_sbu_0, # of connection points: 3
#     Node 15, Type 0, BuildingBlock: WUSLED_clean_sbu_0, # of connection points: 3
#     Node 16, Type 0, BuildingBlock: WUSLED_clean_sbu_0, # of connection points: 3
#     Node 17, Type 0, BuildingBlock: WUSLED_clean_sbu_0, # of connection points: 3
#     Node 18, Type 0, BuildingBlock: WUSLED_clean_sbu_0, # of connection points: 3
#     Node 19, Type 0, BuildingBlock: WUSLED_clean_sbu_0, # of connection points: 3
#     Node 20, Type 0, BuildingBlock: WUSLED_clean_sbu_0, # of connection points: 3
#     Node 21, Type 0, BuildingBlock: WUSLED_clean_sbu_0, # of connection points: 3
#     Node 22, Type 0, BuildingBlock: WUSLED_clean_sbu_0, # of connection points: 3
#     Node 23, Type 0, BuildingBlock: WUSLED_clean_sbu_0, # of connection points: 3
#     Node 24, Type 0, BuildingBlock: WUSLED_clean_sbu_0, # of connection points: 3
#     Node 25, Type 0, BuildingBlock: WUSLED_clean_sbu_0, # of connection points: 3
#     Node 26, Type 0, BuildingBlock: WUSLED_clean_sbu_0, # of connection points: 3
#     Node 27, Type 0, BuildingBlock: WUSLED_clean_sbu_0, # of connection points: 3
#     Node 28, Type 0, BuildingBlock: WUSLED_clean_sbu_0, # of connection points: 3
#     Node 29, Type 0, BuildingBlock: WUSLED_clean_sbu_0, # of connection points: 3
#     Node 30, Type 0, BuildingBlock: WUSLED_clean_sbu_0, # of connection points: 3
#     Node 31, Type 0, BuildingBlock: WUSLED_clean_sbu_0, # of connection points: 3
#     Node 32, Type 0, BuildingBlock: WUSLED_clean_sbu_0, # of connection points: 3
#     Node 33, Type 0, BuildingBlock: WUSLED_clean_sbu_0, # of connection points: 3
#     Node 34, Type 0, BuildingBlock: WUSLED_clean_sbu_0, # of connection points: 3
#     Node 35, Type 0, BuildingBlock: WUSLED_clean_sbu_0, # of connection points: 3
#     Edge 36, Type (0, 0), BuildingBlock: OJICUG_clean_linker_0, # of connection points: 2
#     Edge 37, Type (0, 0), BuildingBlock: OJICUG_clean_linker_0, # of connection points: 2
#     Edge 38, Type (0, 0), BuildingBlock: OJICUG_clean_linker_0, # of connection points: 2
#     Edge 39, Type (0, 0), BuildingBlock: OJICUG_clean_linker_0, # of connection points: 2
#     Edge 40, Type (0, 0), BuildingBlock: OJICUG_clean_linker_0, # of connection points: 2
#     Edge 41, Type (0, 0), BuildingBlock: OJICUG_clean_linker_0, # of connection points: 2
#     Edge 42, Type (0, 0), BuildingBlock: OJICUG_clean_linker_0, # of connection points: 2
#     Edge 43, Type (0, 0), BuildingBlock: OJICUG_clean_linker_0, # of connection points: 2
#     Edge 44, Type (0, 0), BuildingBlock: OJICUG_clean_linker_0, # of connection points: 2
#     Edge 45, Type (0, 0), BuildingBlock: OJICUG_clean_linker_0, # of connection points: 2
#     Edge 46, Type (0, 0), BuildingBlock: OJICUG_clean_linker_0, # of connection points: 2
#     Edge 47, Type (0, 0), BuildingBlock: OJICUG_clean_linker_0, # of connection points: 2
#     Edge 48, Type (0, 0), BuildingBlock: OJICUG_clean_linker_0, # of connection points: 2
#     Edge 49, Type (0, 0), BuildingBlock: OJICUG_clean_linker_0, # of connection points: 2
#     Edge 50, Type (0, 0), BuildingBlock: OJICUG_clean_linker_0, # of connection points: 2
#     Edge 51, Type (0, 0), BuildingBlock: OJICUG_clean_linker_0, # of connection points: 2
#     Edge 52, Type (0, 0), BuildingBlock: OJICUG_clean_linker_0, # of connection points: 2
#     Edge 53, Type (0, 0), BuildingBlock: OJICUG_clean_linker_0, # of connection points: 2
#     Edge 54, Type (0, 0), BuildingBlock: OJICUG_clean_linker_0, # of connection points: 2
#     Edge 55, Type (0, 0), BuildingBlock: OJICUG_clean_linker_0, # of connection points: 2
#     Edge 56, Type (0, 0), BuildingBlock: OJICUG_clean_linker_0, # of connection points: 2
#     Edge 57, Type (0, 0), BuildingBlock: OJICUG_clean_linker_0, # of connection points: 2
#     Edge 58, Type (0, 0), BuildingBlock: OJICUG_clean_linker_0, # of connection points: 2
#     Edge 59, Type (0, 0), BuildingBlock: OJICUG_clean_linker_0, # of connection points: 2
#     Edge 60, Type (0, 0), BuildingBlock: OJICUG_clean_linker_0, # of connection points: 2
#     Edge 61, Type (0, 0), BuildingBlock: OJICUG_clean_linker_0, # of connection points: 2
#     Edge 62, Type (0, 0), BuildingBlock: OJICUG_clean_linker_0, # of connection points: 2
#     Edge 63, Type (0, 0), BuildingBlock: OJICUG_clean_linker_0, # of connection points: 2
#     Edge 64, Type (0, 0), BuildingBlock: OJICUG_clean_linker_0, # of connection points: 2
#     Edge 65, Type (0, 0), BuildingBlock: OJICUG_clean_linker_0, # of connection points: 2
#     Edge 66, Type (0, 0), BuildingBlock: OJICUG_clean_linker_0, # of connection points: 2
#     Edge 67, Type (0, 0), BuildingBlock: OJICUG_clean_linker_0, # of connection points: 2
#     Edge 68, Type (0, 0), BuildingBlock: OJICUG_clean_linker_0, # of connection points: 2
#     Edge 69, Type (0, 0), BuildingBlock: OJICUG_clean_linker_0, # of connection points: 2
#     Edge 70, Type (0, 0), BuildingBlock: OJICUG_clean_linker_0, # of connection points: 2
#     Edge 71, Type (0, 0), BuildingBlock: OJICUG_clean_linker_0, # of connection points: 2
#     Edge 72, Type (0, 0), BuildingBlock: OJICUG_clean_linker_0, # of connection points: 2
#     Edge 73, Type (0, 0), BuildingBlock: OJICUG_clean_linker_0, # of connection points: 2
#     Edge 74, Type (0, 0), BuildingBlock: OJICUG_clean_linker_0, # of connection points: 2
#     Edge 75, Type (0, 0), BuildingBlock: OJICUG_clean_linker_0, # of connection points: 2
#     Edge 76, Type (0, 0), BuildingBlock: OJICUG_clean_linker_0, # of connection points: 2
#     Edge 77, Type (0, 0), BuildingBlock: OJICUG_clean_linker_0, # of connection points: 2
#     Edge 78, Type (0, 0), BuildingBlock: OJICUG_clean_linker_0, # of connection points: 2
#     Edge 79, Type (0, 0), BuildingBlock: OJICUG_clean_linker_0, # of connection points: 2
#     Edge 80, Type (0, 0), BuildingBlock: OJICUG_clean_linker_0, # of connection points: 2
#     Edge 81, Type (0, 0), BuildingBlock: OJICUG_clean_linker_0, # of connection points: 2
#     Edge 82, Type (0, 0), BuildingBlock: OJICUG_clean_linker_0, # of connection points: 2
#     Edge 83, Type (0, 0), BuildingBlock: OJICUG_clean_linker_0, # of connection points: 2
#     Edge 84, Type (0, 0), BuildingBlock: OJICUG_clean_linker_0, # of connection points: 2
#     Edge 85, Type (0, 0), BuildingBlock: OJICUG_clean_linker_0, # of connection points: 2
#     Edge 86, Type (0, 0), BuildingBlock: OJICUG_clean_linker_0, # of connection points: 2
#     Edge 87, Type (0, 0), BuildingBlock: OJICUG_clean_linker_0, # of connection points: 2
#     Edge 88, Type (0, 0), BuildingBlock: OJICUG_clean_linker_0, # of connection points: 2
#     Edge 89, Type (0, 0), BuildingBlock: OJICUG_clean_linker_0, # of connection points: 2
# Relax obj value: 0.003
# Max RMSD: 0.006
# Mean RMSD: 0.006
data_MOF--net-etf--node1-WUSLED_clean_sbu_0--edge1-OJICUG_clean_linker_0
_symmetry_space_group_name_H-M    P1
_symmetry_Int_Tables_number       1
_symmetry_cell_setting            triclinic
loop_
_symmetry_equiv_pos_as_xyz
'x, y, z'
_cell_length_a     110.24928
_cell_length_b     110.2385
_cell_length_c     62.95481
_cell_angle_alpha  90.073489
_cell_angle_beta   89.939607
_cell_angle_gamma 119.99174
loop_
_atom_site_label
_atom_site_type_symbol
_atom_site_fract_x
_atom_site_fract_y
_atom_site_fract_z
_atom_type_partial_charge
C0 C 0.08776 0.30598 0.2739 0.0
C1 C 0.08117 0.30341 0.25402 0.0
C2 C 0.05817 0.29125 0.27099 0.0
C3 C 0.06653 0.2961 0.25257 0.0
C4 C 0.06489 0.29396 0.29088 0.0
C5 C 0.07953 0.30124 0.2923 0.0
U6 U 0.12361 0.3278 0.2485 0.0
O7 O 0.14274 0.34626 0.26016 0.0
O8 O 0.14315 0.32709 0.25212 0.0
C9 C 0.15006 0.3398 0.26008 0.0
C10 C 0.10317 0.31364 0.27559 0.0
C11 C 0.15865 0.34165 0.27912 0.0
C12 C 0.1626 0.34432 0.31733 0.0
C13 C 0.15383 0.34179 0.29973 0.0
C14 C 0.18097 0.34636 0.29396 0.0
C15 C 0.17635 0.34677 0.31466 0.0
C16 C 0.17223 0.34385 0.27644 0.0
C17 C 0.12347 0.33623 0.18835 0.0
C18 C 0.13644 0.33718 0.1564 0.0
C19 C 0.12461 0.35065 0.1583 0.0
C20 C 0.12002 0.34562 0.17883 0.0
C21 C 0.13272 0.34636 0.14669 0.0
C22 C 0.13187 0.33217 0.17702 0.0
C23 C 0.11702 0.3299 0.20906 0.0
O24 O 0.10957 0.30813 0.26514 0.0
O25 O 0.10923 0.32729 0.27326 0.0
O26 O 0.11808 0.33859 0.22422 0.0
O27 O 0.11849 0.31945 0.21595 0.0
H28 H 0.08735 0.307 0.23961 0.0
H29 H 0.06177 0.29408 0.23698 0.0
H30 H 0.05884 0.2906 0.30542 0.0
H31 H 0.08443 0.3032 0.30779 0.0
H32 H 0.1587 0.34467 0.33298 0.0
H33 H 0.14338 0.34012 0.3022 0.0
H34 H 0.19137 0.34794 0.29127 0.0
H35 H 0.17614 0.34374 0.26068 0.0
H36 H 0.14279 0.33377 0.14799 0.0
H37 H 0.12135 0.35752 0.15125 0.0
H38 H 0.1134 0.34877 0.18706 0.0
H39 H 0.13468 0.3249 0.18387 0.0
C40 C 0.74228 0.79345 0.2719 0.0
C41 C 0.74568 0.79013 0.25206 0.0
C42 C 0.75663 0.77821 0.26935 0.0
C43 C 0.7528 0.78261 0.25079 0.0
C44 C 0.75311 0.78154 0.28919 0.0
C45 C 0.74601 0.78909 0.29043 0.0
U46 U 0.72233 0.80914 0.24537 0.0
O47 O 0.7036 0.8099 0.2554 0.0
O48 O 0.72335 0.82946 0.24998 0.0
C49 C 0.71033 0.82365 0.25663 0.0
C50 C 0.7348 0.80139 0.27336 0.0
C51 C 0.70793 0.82977 0.27598 0.0
C52 C 0.70468 0.83006 0.31422 0.0
C53 C 0.70746 0.82428 0.29628 0.0
C54 C 0.70301 0.84701 0.29184 0.0
C55 C 0.70238 0.8415 0.31223 0.0
C56 C 0.70575 0.8412 0.27396 0.0
C57 C 0.71734 0.80297 0.18423 0.0
C58 C 0.69999 0.80323 0.16065 0.0
C59 C 0.71952 0.80175 0.14597 0.0
C60 C 0.7246 0.80222 0.16646 0.0
C61 C 0.70703 0.80202 0.14275 0.0
C62 C 0.7051 0.8037 0.18122 0.0
C63 C 0.72231 0.80193 0.20552 0.0
O64 O 0.741 0.81371 0.26407 0.0
O65 O 0.72129 0.79415 0.26944 0.0
O66 O 0.71268 0.79395 0.21938 0.0
O67 O 0.73238 0.81357 0.21382 0.0
H68 H 0.74287 0.79341 0.23755 0.0
H69 H 0.75548 0.78042 0.23525 0.0
H70 H 0.75568 0.77816 0.3038 0.0
H71 H 0.74341 0.79149 0.30588 0.0
H72 H 0.70445 0.82566 0.32968 0.0
H73 H 0.70918 0.81549 0.29823 0.0
H74 H 0.70112 0.85566 0.28961 0.0
H75 H 0.70602 0.84557 0.25844 0.0
H76 H 0.69044 0.80363 0.15878 0.0
H77 H 0.72512 0.8006 0.1327 0.0
H78 H 0.73402 0.80157 0.16845 0.0
H79 H 0.69935 0.80432 0.19474 0.0
C80 C 0.2549 0.95883 0.27281 0.0
C81 C 0.26621 0.96589 0.25871 0.0
C82 C 0.26958 0.98845 0.27058 0.0
C83 C 0.27352 0.98054 0.25771 0.0
C84 C 0.25817 0.98133 0.28453 0.0
C85 C 0.25094 0.96667 0.28566 0.0
U86 U 0.23996 0.92339 0.2457 0.0
O87 O 0.23935 0.90392 0.25544 0.0
O88 O 0.21973 0.9039 0.24952 0.0
C89 C 0.22559 0.89673 0.25616 0.0
C90 C 0.24701 0.94336 0.27393 0.0
C91 C 0.21939 0.88807 0.2753 0.0
C92 C 0.21634 0.88537 0.31364 0.0
C93 C 0.22221 0.89394 0.29574 0.0
C94 C 0.20471 0.86502 0.29081 0.0
C95 C 0.20751 0.87077 0.31141 0.0
C96 C 0.21059 0.87358 0.27299 0.0
C97 C 0.24719 0.92553 0.18477 0.0
C98 C 0.24266 0.90657 0.16041 0.0
C99 C 0.25183 0.93016 0.14707 0.0
C100 C 0.25172 0.93486 0.16763 0.0
C101 C 0.24735 0.91597 0.14313 0.0
C102 C 0.24256 0.91131 0.18109 0.0
C103 C 0.24781 0.93115 0.20621 0.0
O104 O 0.23484 0.93725 0.2642 0.0
O105 O 0.2543 0.93707 0.27055 0.0
O106 O 0.2556 0.92933 0.22021 0.0
O107 O 0.23596 0.92926 0.21413 0.0
H108 H 0.26937 0.96009 0.2484 0.0
H109 H 0.28213 0.98568 0.2466 0.0
H110 H 0.25494 0.98711 0.29477 0.0
H111 H 0.24223 0.96145 0.29659 0.0
H112 H 0.2186 0.8902 0.3292 0.0
H113 H 0.22895 0.90512 0.29785 0.0
H114 H 0.19815 0.85384 0.28844 0.0
H115 H 0.20833 0.86884 0.25734 0.0
H116 H 0.23904 0.89556 0.15794 0.0
H117 H 0.25578 0.93777 0.13432 0.0
H118 H 0.2554 0.94588 0.1702 0.0
H119 H 0.23899 0.90395 0.19417 0.0
C120 C 0.31475 0.0789 0.26308 0.0
C121 C 0.31908 0.07192 0.27717 0.0
C122 C 0.29986 0.0493 0.26568 0.0
C123 C 0.31176 0.05728 0.27835 0.0
C124 C 0.29546 0.05633 0.25177 0.0
C125 C 0.30286 0.07098 0.25044 0.0
U126 U 0.33529 0.11465 0.28937 0.0
O127 O 0.35433 0.13392 0.27927 0.0
O128 O 0.3348 0.13419 0.28477 0.0
C129 C 0.34784 0.14118 0.27808 0.0
C130 C 0.32238 0.09436 0.26161 0.0
C131 C 0.3505 0.14974 0.25873 0.0
C132 C 0.34395 0.15356 0.22348 0.0
C133 C 0.34139 0.14491 0.24123 0.0
C134 C 0.36485 0.17184 0.24036 0.0
C135 C 0.35568 0.16719 0.22286 0.0
C136 C 0.36227 0.16321 0.25807 0.0
C137 C 0.34025 0.11328 0.35048 0.0
C138 C 0.35619 0.13191 0.37417 0.0
C139 C 0.33917 0.10934 0.38856 0.0
C140 C 0.33421 0.10454 0.36809 0.0
C141 C 0.35031 0.12305 0.39191 0.0
C142 C 0.35119 0.12706 0.3536 0.0
C143 C 0.33523 0.10738 0.32916 0.0
O144 O 0.31633 0.10063 0.27098 0.0
O145 O 0.33595 0.10065 0.26507 0.0
O146 O 0.34481 0.1089 0.31528 0.0
O147 O 0.32534 0.10925 0.32096 0.0
H148 H 0.32812 0.07779 0.2873 0.0
H149 H 0.31532 0.0522 0.28943 0.0
H150 H 0.2864 0.05049 0.24167 0.0
H151 H 0.29931 0.07614 0.23952 0.0
H152 H 0.33658 0.14965 0.21042 0.0
H153 H 0.33223 0.13453 0.24138 0.0
H154 H 0.37411 0.18214 0.24036 0.0
H155 H 0.36947 0.16713 0.27137 0.0
H156 H 0.36469 0.14256 0.37616 0.0
H157 H 0.33455 0.10212 0.40169 0.0
H158 H 0.32581 0.09384 0.36598 0.0
H159 H 0.35597 0.13398 0.34016 0.0
C160 C 0.96768 0.24537 0.26216 0.0
C161 C 0.97428 0.24861 0.28208 0.0
C162 C 0.99725 0.26052 0.26506 0.0
C163 C 0.98891 0.25608 0.28352 0.0
C164 C 0.99054 0.25731 0.24514 0.0
C165 C 0.9759 0.24979 0.24372 0.0
U166 U 0.93194 0.22945 0.28842 0.0
O167 O 0.91245 0.2287 0.27842 0.0
O168 O 0.91269 0.20914 0.28351 0.0
C169 C 0.90546 0.21496 0.27699 0.0
C170 C 0.95227 0.23744 0.26053 0.0
C171 C 0.89705 0.20898 0.25754 0.0
C172 C 0.89404 0.20843 0.21915 0.0
C173 C 0.90247 0.2141 0.23724 0.0
C174 C 0.87475 0.19236 0.24142 0.0
C175 C 0.88004 0.19749 0.221 0.0
C176 C 0.88316 0.19805 0.25944 0.0
C177 C 0.93315 0.23527 0.34975 0.0
C178 C 0.91476 0.23298 0.37366 0.0
C179 C 0.9371 0.23768 0.38787 0.0
C180 C 0.9418 0.23751 0.36733 0.0
C181 C 0.92357 0.23558 0.39136 0.0
C182 C 0.91951 0.23283 0.35302 0.0
C183 C 0.93906 0.23641 0.32835 0.0
O184 O 0.94612 0.22504 0.26957 0.0
O185 O 0.94597 0.24463 0.26461 0.0
O186 O 0.93732 0.24443 0.31471 0.0
O187 O 0.93749 0.22482 0.31985 0.0
H188 H 0.9681 0.24536 0.29652 0.0
H189 H 0.9937 0.25853 0.29911 0.0
H190 H 0.99661 0.26041 0.2306 0.0
H191 H 0.97099 0.24738 0.22821 0.0
H192 H 0.89854 0.21253 0.2037 0.0
H193 H 0.91319 0.2225 0.23539 0.0
H194 H 0.864 0.1841 0.24355 0.0
H195 H 0.87876 0.19398 0.27496 0.0
H196 H 0.90423 0.23117 0.37575 0.0
H197 H 0.9443 0.23996 0.40096 0.0
H198 H 0.95239 0.2395 0.36511 0.0
H199 H 0.91266 0.23106 0.33963 0.0
C200 C 0.8014 0.73244 0.26117 0.0
C201 C 0.79737 0.73507 0.28102 0.0
C202 C 0.78663 0.74726 0.26393 0.0
C203 C 0.79009 0.74243 0.2824 0.0
C204 C 0.79066 0.74451 0.24407 0.0
C205 C 0.79798 0.73718 0.24272 0.0
U206 U 0.81514 0.71047 0.2868 0.0
O207 O 0.81569 0.69191 0.27526 0.0
O208 O 0.83531 0.71101 0.2833 0.0
C209 C 0.82945 0.69828 0.27538 0.0
C210 C 0.80907 0.7247 0.25957 0.0
C211 C 0.83616 0.6964 0.2563 0.0
C212 C 0.83806 0.69487 0.21796 0.0
C213 C 0.83185 0.69734 0.23569 0.0
C214 C 0.85306 0.69072 0.24126 0.0
C215 C 0.84871 0.69146 0.22052 0.0
C216 C 0.84685 0.69316 0.25891 0.0
C217 C 0.80633 0.70213 0.34693 0.0
C218 C 0.81813 0.70127 0.37917 0.0
C219 C 0.79286 0.68757 0.37677 0.0
C220 C 0.79345 0.69263 0.35622 0.0
C221 C 0.80517 0.69197 0.38864 0.0
C222 C 0.81871 0.7063 0.35853 0.0
C223 C 0.80635 0.70848 0.32618 0.0
O224 O 0.82095 0.73016 0.27007 0.0
O225 O 0.80141 0.71106 0.26192 0.0
O226 O 0.79872 0.69981 0.31101 0.0
O227 O 0.81833 0.71886 0.31932 0.0
H228 H 0.79984 0.7314 0.29545 0.0
H229 H 0.787 0.74419 0.29792 0.0
H230 H 0.78832 0.74819 0.22955 0.0
H231 H 0.801 0.73525 0.22726 0.0
H232 H 0.83456 0.69572 0.20225 0.0
H233 H 0.82365 0.69989 0.2333 0.0
H234 H 0.86108 0.68795 0.2439 0.0
H235 H 0.85028 0.69232 0.27469 0.0
H236 H 0.82781 0.70476 0.38778 0.0
H237 H 0.78269 0.68061 0.38363 0.0
H238 H 0.78373 0.68939 0.34779 0.0
H239 H 0.82882 0.71367 0.35187 0.0
C240 C 0.96803 0.73115 0.76102 0.0
C241 C 0.97458 0.7341 0.78097 0.0
C242 C 0.9976 0.74591 0.76409 0.0
C243 C 0.98922 0.74143 0.7825 0.0
C244 C 0.99095 0.74287 0.74413 0.0
C245 C 0.97631 0.73557 0.74264 0.0
U246 U 0.93214 0.71004 0.78659 0.0
O247 O 0.91254 0.71034 0.78168 0.0
O248 O 0.91311 0.69101 0.77572 0.0
C249 C 0.90572 0.69736 0.77468 0.0
C250 C 0.95264 0.72335 0.75925 0.0
C251 C 0.8972 0.69479 0.75533 0.0
C252 C 0.89334 0.70153 0.72025 0.0
C253 C 0.90202 0.70398 0.73793 0.0
C254 C 0.87505 0.68057 0.737 0.0
C255 C 0.8797 0.68982 0.7196 0.0
C256 C 0.8837 0.68305 0.75463 0.0
C257 C 0.93208 0.70388 0.84773 0.0
C258 C 0.92531 0.68628 0.87556 0.0
C259 C 0.92601 0.70813 0.88316 0.0
C260 C 0.93014 0.7125 0.86221 0.0
C261 C 0.92382 0.69509 0.89024 0.0
C262 C 0.92944 0.69064 0.85461 0.0
C263 C 0.93859 0.70943 0.82666 0.0
O264 O 0.94665 0.70981 0.76274 0.0
O265 O 0.94613 0.72915 0.76866 0.0
O266 O 0.93705 0.71955 0.81848 0.0
O267 O 0.93774 0.70031 0.8124 0.0
H268 H 0.96836 0.73069 0.79536 0.0
H269 H 0.99396 0.74341 0.7981 0.0
H270 H 0.99705 0.74629 0.72965 0.0
H271 H 0.97144 0.73339 0.7271 0.0
H272 H 0.89735 0.70877 0.70704 0.0
H273 H 0.91243 0.71309 0.73809 0.0
H274 H 0.86458 0.67156 0.73724 0.0
H275 H 0.87976 0.67585 0.76793 0.0
H276 H 0.92392 0.67626 0.88048 0.0
H277 H 0.9248 0.71512 0.89395 0.0
H278 H 0.93225 0.72283 0.85756 0.0
H279 H 0.93106 0.68382 0.84404 0.0
C280 C 0.31536 0.24647 0.76155 0.0
C281 C 0.31222 0.24999 0.78144 0.0
C282 C 0.30074 0.26145 0.76431 0.0
C283 C 0.30497 0.25738 0.78281 0.0
C284 C 0.30403 0.25795 0.74442 0.0
C285 C 0.31126 0.25053 0.74308 0.0
U286 U 0.33616 0.2313 0.78714 0.0
O287 O 0.33515 0.21098 0.78246 0.0
O288 O 0.35469 0.23055 0.77597 0.0
C289 C 0.34802 0.21679 0.7751 0.0
C290 C 0.32292 0.23861 0.7599 0.0
C291 C 0.35008 0.21047 0.75568 0.0
C292 C 0.35355 0.21028 0.71749 0.0
C293 C 0.35089 0.21616 0.73543 0.0
C294 C 0.35436 0.19282 0.73977 0.0
C295 C 0.3554 0.19856 0.71943 0.0
C296 C 0.35174 0.19872 0.75764 0.0
C297 C 0.34308 0.23801 0.84809 0.0
C298 C 0.35996 0.24965 0.87661 0.0
C299 C 0.33973 0.2268 0.88269 0.0
C300 C 0.33531 0.2266 0.86177 0.0
C301 C 0.35199 0.23844 0.8905 0.0
C302 C 0.35553 0.24946 0.85573 0.0
C303 C 0.3374 0.23888 0.8271 0.0
O304 O 0.3365 0.24598 0.76311 0.0
O305 O 0.31699 0.22643 0.7696 0.0
O306 O 0.327 0.22727 0.81923 0.0
O307 O 0.3465 0.24684 0.81259 0.0
H308 H 0.31533 0.24695 0.7959 0.0
H309 H 0.30249 0.25972 0.79839 0.0
H310 H 0.30116 0.26107 0.72984 0.0
H311 H 0.31366 0.24798 0.72758 0.0
H312 H 0.3541 0.21487 0.70207 0.0
H313 H 0.34958 0.22521 0.7335 0.0
H314 H 0.3559 0.18394 0.74197 0.0
H315 H 0.35121 0.19419 0.77313 0.0
H316 H 0.36933 0.25889 0.88213 0.0
H317 H 0.33341 0.21792 0.89286 0.0
H318 H 0.32557 0.21767 0.85656 0.0
H319 H 0.36163 0.25855 0.8458 0.0
C320 C 0.80268 0.07944 0.76225 0.0
C321 C 0.79172 0.07255 0.77694 0.0
C322 C 0.78784 0.04984 0.76488 0.0
C323 C 0.78432 0.0579 0.77815 0.0
C324 C 0.79891 0.0568 0.75032 0.0
C325 C 0.80622 0.07145 0.74899 0.0
U326 U 0.81828 0.11537 0.78835 0.0
O327 O 0.83863 0.13463 0.78357 0.0
O328 O 0.81907 0.1348 0.77794 0.0
C329 C 0.83282 0.1418 0.77671 0.0
C330 C 0.81065 0.0949 0.7608 0.0
C331 C 0.83894 0.15022 0.75728 0.0
C332 C 0.83887 0.15382 0.71911 0.0
C333 C 0.83317 0.14528 0.73708 0.0
C334 C 0.85631 0.17223 0.74127 0.0
C335 C 0.85047 0.16747 0.72098 0.0
C336 C 0.8506 0.16371 0.75917 0.0
C337 C 0.81199 0.11447 0.84951 0.0
C338 C 0.81397 0.13291 0.87305 0.0
C339 C 0.8098 0.11085 0.88771 0.0
C340 C 0.80999 0.10602 0.86726 0.0
C341 C 0.81165 0.12431 0.89093 0.0
C342 C 0.81415 0.12803 0.8525 0.0
C343 C 0.81099 0.10844 0.82823 0.0
O344 O 0.80348 0.10133 0.76423 0.0
O345 O 0.82293 0.10104 0.77021 0.0
O346 O 0.82265 0.10997 0.82006 0.0
O347 O 0.80307 0.11009 0.81428 0.0
H348 H 0.78888 0.07849 0.78754 0.0
H349 H 0.77598 0.05289 0.78972 0.0
H350 H 0.80182 0.05091 0.73974 0.0
H351 H 0.81466 0.07654 0.73759 0.0
H352 H 0.834 0.14982 0.70382 0.0
H353 H 0.82416 0.13489 0.73523 0.0
H354 H 0.86537 0.18255 0.74333 0.0
H355 H 0.85525 0.16772 0.77459 0.0
H356 H 0.81558 0.14338 0.87493 0.0
H357 H 0.80772 0.10381 0.90094 0.0
H358 H 0.80823 0.09549 0.86526 0.0
H359 H 0.81574 0.13474 0.83898 0.0
C360 C 0.74259 0.9594 0.77365 0.0
C361 C 0.73776 0.96628 0.76027 0.0
C362 C 0.75741 0.98899 0.77056 0.0
C363 C 0.74505 0.98093 0.75884 0.0
C364 C 0.76228 0.98203 0.78377 0.0
C365 C 0.75491 0.96739 0.78534 0.0
U366 U 0.72096 0.92308 0.74898 0.0
O367 O 0.72199 0.90376 0.7534 0.0
O368 O 0.70266 0.90395 0.761 0.0
C369 C 0.70928 0.89681 0.76137 0.0
C370 C 0.73503 0.94395 0.77545 0.0
C371 C 0.70749 0.88841 0.78066 0.0
C372 C 0.70347 0.88419 0.81869 0.0
C373 C 0.70612 0.89289 0.80097 0.0
C374 C 0.70382 0.86659 0.7961 0.0
C375 C 0.70213 0.87084 0.81645 0.0
C376 C 0.70645 0.87527 0.77845 0.0
C377 C 0.71263 0.92242 0.68847 0.0
C378 C 0.69637 0.91875 0.65968 0.0
C379 C 0.71434 0.91254 0.65464 0.0
C380 C 0.71908 0.9169 0.67542 0.0
C381 C 0.70307 0.91364 0.64638 0.0
C382 C 0.70112 0.92313 0.68041 0.0
C383 C 0.71878 0.92908 0.70922 0.0
O384 O 0.72133 0.93759 0.77334 0.0
O385 O 0.74069 0.93758 0.76529 0.0
O386 O 0.72933 0.9279 0.71644 0.0
O387 O 0.71002 0.92808 0.72423 0.0
H388 H 0.72835 0.96035 0.75089 0.0
H389 H 0.74112 0.98594 0.74832 0.0
H390 H 0.77169 0.98792 0.79315 0.0
H391 H 0.75884 0.96231 0.79572 0.0
H392 H 0.70213 0.88779 0.83405 0.0
H393 H 0.70687 0.903 0.8031 0.0
H394 H 0.70313 0.85653 0.79377 0.0
H395 H 0.7075 0.87161 0.76294 0.0
H396 H 0.6878 0.91996 0.6538 0.0
H397 H 0.71965 0.90852 0.64492 0.0
H398 H 0.72806 0.91631 0.681 0.0
H399 H 0.69608 0.92757 0.68988 0.0
C400 C 0.08808 0.7909 0.77357 0.0
C401 C 0.08157 0.78754 0.75358 0.0
C402 C 0.05851 0.77623 0.77039 0.0
C403 C 0.06694 0.7803 0.752 0.0
C404 C 0.06515 0.77962 0.79037 0.0
C405 C 0.07978 0.78688 0.79192 0.0
U406 U 0.12408 0.80555 0.74827 0.0
O407 O 0.14372 0.82538 0.75347 0.0
O408 O 0.14298 0.8054 0.75933 0.0
C409 C 0.15043 0.81913 0.76052 0.0
C410 C 0.10348 0.79842 0.77541 0.0
C411 C 0.15886 0.82498 0.78 0.0
C412 C 0.16263 0.83553 0.81514 0.0
C413 C 0.15404 0.82943 0.79732 0.0
C414 C 0.18083 0.83258 0.79866 0.0
C415 C 0.17618 0.83725 0.81601 0.0
C416 C 0.17227 0.82653 0.7809 0.0
C417 C 0.1244 0.79947 0.68713 0.0
C418 C 0.13233 0.81078 0.65261 0.0
C419 C 0.12978 0.78795 0.65854 0.0
C420 C 0.12548 0.78806 0.67943 0.0
C421 C 0.13301 0.79919 0.64473 0.0
C422 C 0.12804 0.81091 0.67353 0.0
C423 C 0.11781 0.79856 0.70812 0.0
O424 O 0.10941 0.79081 0.77195 0.0
O425 O 0.11006 0.81073 0.76607 0.0
O426 O 0.11937 0.81023 0.71634 0.0
O427 O 0.11854 0.79024 0.72238 0.0
H428 H 0.08782 0.79055 0.73921 0.0
H429 H 0.06224 0.77805 0.73636 0.0
H430 H 0.05904 0.77648 0.80487 0.0
H431 H 0.08462 0.7893 0.80749 0.0
H432 H 0.15861 0.83883 0.82829 0.0
H433 H 0.14369 0.82829 0.79701 0.0
H434 H 0.19124 0.83388 0.79858 0.0
H435 H 0.17622 0.82322 0.76766 0.0
H436 H 0.13489 0.81969 0.6425 0.0
H437 H 0.12997 0.77874 0.65296 0.0
H438 H 0.1225 0.77895 0.68929 0.0
H439 H 0.12717 0.8198 0.6788 0.0
C440 C 0.25496 0.3062 0.77255 0.0
C441 C 0.25874 0.30331 0.75268 0.0
C442 C 0.27009 0.29175 0.76983 0.0
C443 C 0.26621 0.29613 0.75133 0.0
C444 C 0.26633 0.29476 0.78971 0.0
C445 C 0.25882 0.3019 0.79103 0.0
U446 U 0.23938 0.32636 0.74635 0.0
O447 O 0.21904 0.32529 0.75096 0.0
O448 O 0.23857 0.34501 0.75677 0.0
C449 C 0.22481 0.33828 0.75776 0.0
C450 C 0.24703 0.31368 0.7741 0.0
C451 C 0.2186 0.34059 0.77704 0.0
C452 C 0.21724 0.3423 0.81545 0.0
C453 C 0.22312 0.33965 0.7975 0.0
C454 C 0.20216 0.34669 0.79268 0.0
C455 C 0.20669 0.3459 0.81327 0.0
C456 C 0.20805 0.34407 0.77481 0.0
C457 C 0.24545 0.33197 0.6851 0.0
C458 C 0.2545 0.35024 0.65805 0.0
C459 C 0.23717 0.32652 0.64854 0.0
C460 C 0.23682 0.32232 0.6696 0.0
C461 C 0.24627 0.34047 0.64236 0.0
C462 C 0.25413 0.34604 0.67914 0.0
C463 C 0.2466 0.32684 0.70639 0.0
O464 O 0.25429 0.32721 0.7704 0.0
O465 O 0.23475 0.30754 0.76468 0.0
O466 O 0.23507 0.31657 0.71466 0.0
O467 O 0.25465 0.33624 0.72049 0.0
H468 H 0.25592 0.30662 0.73821 0.0
H469 H 0.26909 0.29417 0.73578 0.0
H470 H 0.26899 0.2914 0.80427 0.0
H471 H 0.25598 0.30402 0.80651 0.0
H472 H 0.22087 0.34142 0.83103 0.0
H473 H 0.23122 0.33692 0.79958 0.0
H474 H 0.19422 0.34961 0.79032 0.0
H475 H 0.20445 0.34489 0.75916 0.0
H476 H 0.26175 0.36103 0.65387 0.0
H477 H 0.23054 0.31874 0.63697 0.0
H478 H 0.23013 0.31137 0.6736 0.0
H479 H 0.26105 0.35374 0.69057 0.0
C480 C 0.75403 0.63877 0.6064 0.0
C481 C 0.74717 0.64183 0.59027 0.0
C482 C 0.72441 0.62373 0.60352 0.0
C483 C 0.73253 0.63444 0.5889 0.0
C484 C 0.73139 0.62065 0.61953 0.0
C485 C 0.74603 0.62811 0.62095 0.0
U486 U 0.79 0.65995 0.58088 0.0
O487 O 0.80906 0.67891 0.5918 0.0
O488 O 0.80955 0.65955 0.58574 0.0
C489 C 0.81641 0.67252 0.59278 0.0
C490 C 0.76946 0.64652 0.60809 0.0
C491 C 0.82494 0.67505 0.61212 0.0
C492 C 0.82878 0.66827 0.64718 0.0
C493 C 0.82011 0.66584 0.6295 0.0
C494 C 0.84709 0.68924 0.63046 0.0
C495 C 0.84243 0.67998 0.64785 0.0
C496 C 0.83844 0.68678 0.61282 0.0
C497 C 0.79003 0.66614 0.51974 0.0
C498 C 0.79771 0.68413 0.49236 0.0
C499 C 0.79503 0.66152 0.48384 0.0
C500 C 0.79096 0.65715 0.5048 0.0
C501 C 0.79816 0.67496 0.47721 0.0
C502 C 0.79365 0.67976 0.51333 0.0
C503 C 0.78355 0.66064 0.54084 0.0
O504 O 0.77589 0.6407 0.59857 0.0
O505 O 0.77559 0.66011 0.60491 0.0
O506 O 0.78445 0.66977 0.55513 0.0
O507 O 0.78506 0.65049 0.54897 0.0
H508 H 0.75314 0.64998 0.57878 0.0
H509 H 0.72759 0.63726 0.57653 0.0
H510 H 0.72556 0.61233 0.63084 0.0
H511 H 0.75112 0.62551 0.63341 0.0
H512 H 0.82477 0.66103 0.66038 0.0
H513 H 0.8097 0.65674 0.62933 0.0
H514 H 0.85756 0.69824 0.63023 0.0
H515 H 0.84239 0.69398 0.59954 0.0
H516 H 0.79986 0.69449 0.48779 0.0
H517 H 0.79544 0.65424 0.47269 0.0
H518 H 0.78809 0.64653 0.5091 0.0
H519 H 0.79284 0.68691 0.52429 0.0
C520 C 0.40842 0.12641 0.60649 0.0
C521 C 0.40538 0.11655 0.59024 0.0
C522 C 0.42303 0.11138 0.6039 0.0
C523 C 0.41255 0.10908 0.58901 0.0
C524 C 0.42607 0.12134 0.62008 0.0
C525 C 0.41883 0.12875 0.62136 0.0
U526 U 0.38844 0.14204 0.57982 0.0
O527 O 0.36979 0.14296 0.58976 0.0
O528 O 0.38959 0.16245 0.58413 0.0
C529 C 0.37658 0.15672 0.59083 0.0
C530 C 0.40103 0.13446 0.60782 0.0
C531 C 0.37422 0.16295 0.6101 0.0
C532 C 0.3705 0.16312 0.64822 0.0
C533 C 0.37334 0.15729 0.63039 0.0
C534 C 0.36964 0.18048 0.62574 0.0
C535 C 0.36856 0.17477 0.64612 0.0
C536 C 0.37243 0.17462 0.60797 0.0
C537 C 0.38333 0.13547 0.51878 0.0
C538 C 0.36692 0.13736 0.4951 0.0
C539 C 0.38485 0.13316 0.48062 0.0
C540 C 0.38983 0.13343 0.5011 0.0
C541 C 0.37322 0.13497 0.47731 0.0
C542 C 0.37193 0.13762 0.51568 0.0
C543 C 0.38828 0.13452 0.5401 0.0
O544 O 0.40727 0.1467 0.59829 0.0
O545 O 0.38747 0.12732 0.60425 0.0
O546 O 0.37864 0.12668 0.55404 0.0
O547 O 0.39839 0.1462 0.54823 0.0
H548 H 0.39743 0.11462 0.57849 0.0
H549 H 0.40975 0.10138 0.57651 0.0
H550 H 0.43421 0.1236 0.63162 0.0
H551 H 0.42142 0.13639 0.63391 0.0
H552 H 0.36993 0.15857 0.66368 0.0
H553 H 0.37475 0.14832 0.63244 0.0
H554 H 0.36804 0.18931 0.62342 0.0
H555 H 0.37302 0.17912 0.59245 0.0
H556 H 0.35804 0.13894 0.49315 0.0
H557 H 0.38984 0.13104 0.46744 0.0
H558 H 0.39859 0.13168 0.50318 0.0
H559 H 0.36679 0.13925 0.52915 0.0
C560 C 0.92161 0.29185 0.60581 0.0
C561 C 0.93258 0.29871 0.59111 0.0
C562 C 0.93647 0.32145 0.60309 0.0
C563 C 0.93998 0.31336 0.58985 0.0
C564 C 0.9254 0.31451 0.61766 0.0
C565 C 0.91809 0.29987 0.61904 0.0
U566 U 0.90594 0.25595 0.57967 0.0
O567 O 0.90513 0.23649 0.58998 0.0
O568 O 0.88558 0.2367 0.58445 0.0
C569 C 0.89138 0.2295 0.59124 0.0
C570 C 0.91362 0.27639 0.60728 0.0
C571 C 0.88528 0.22108 0.61067 0.0
C572 C 0.88536 0.21748 0.64884 0.0
C573 C 0.89106 0.22603 0.63087 0.0
C574 C 0.86793 0.19906 0.62669 0.0
C575 C 0.87377 0.20383 0.64697 0.0
C576 C 0.87363 0.20759 0.60879 0.0
C577 C 0.9122 0.25698 0.51848 0.0
C578 C 0.90992 0.23848 0.49479 0.0
C579 C 0.91458 0.26075 0.48033 0.0
C580 C 0.91443 0.26555 0.50081 0.0
C581 C 0.91246 0.2472 0.47699 0.0
C582 C 0.90978 0.24333 0.51538 0.0
C583 C 0.91321 0.26295 0.5398 0.0
O584 O 0.90133 0.27027 0.59791 0.0
O585 O 0.92076 0.26995 0.60381 0.0
O586 O 0.92113 0.26125 0.5537 0.0
O587 O 0.90156 0.26141 0.54802 0.0
H588 H 0.93539 0.29275 0.58053 0.0
H589 H 0.94831 0.31835 0.57827 0.0
H590 H 0.92251 0.32043 0.62821 0.0
H591 H 0.90964 0.29479 0.63044 0.0
H592 H 0.89023 0.22148 0.66412 0.0
H593 H 0.90006 0.23642 0.63271 0.0
H594 H 0.85887 0.18874 0.62463 0.0
H595 H 0.86897 0.20358 0.59337 0.0
H596 H 0.90811 0.22794 0.49283 0.0
H597 H 0.91683 0.26788 0.46716 0.0
H598 H 0.9164 0.27614 0.50289 0.0
H599 H 0.90801 0.23653 0.52885 0.0
C600 C 0.98177 0.41187 0.59413 0.0
C601 C 0.98656 0.40498 0.60757 0.0
C602 C 0.96693 0.38228 0.5972 0.0
C603 C 0.97927 0.39033 0.60899 0.0
C604 C 0.96211 0.38924 0.58392 0.0
C605 C 0.96948 0.40387 0.58236 0.0
U606 U 1.00331 0.44805 0.6191 0.0
O607 O 1.02166 0.46724 0.60736 0.0
O608 O 1.0023 0.46741 0.6149 0.0
C609 C 1.01504 0.47439 0.60705 0.0
C610 C 0.98932 0.42732 0.5924 0.0
C611 C 1.0169 0.48286 0.58784 0.0
C612 C 1.02108 0.48725 0.54987 0.0
C613 C 1.01838 0.47849 0.56751 0.0
C614 C 1.02056 0.50473 0.57256 0.0
C615 C 1.02235 0.50057 0.5522 0.0
C616 C 1.01788 0.49598 0.59014 0.0
C617 C 1.01148 0.44843 0.67958 0.0
C618 C 1.02765 0.45195 0.70843 0.0
C619 C 1.00978 0.45832 0.7134 0.0
C620 C 1.00506 0.45401 0.6926 0.0
C621 C 1.02099 0.45713 0.7217 0.0
C622 C 1.02292 0.44761 0.68769 0.0
C623 C 1.00536 0.44184 0.65879 0.0
O624 O 0.98363 0.43364 0.60261 0.0
O625 O 1.003 0.43367 0.59457 0.0
O626 O 1.01416 0.4429 0.6438 0.0
O627 O 0.99484 0.44307 0.65158 0.0
H628 H 0.99593 0.41091 0.61701 0.0
H629 H 0.98317 0.38532 0.61957 0.0
H630 H 0.95272 0.38335 0.57449 0.0
H631 H 0.96557 0.40896 0.57194 0.0
H632 H 1.02251 0.48373 0.53449 0.0
H633 H 1.01767 0.46841 0.56531 0.0
H634 H 1.0212 0.51476 0.57496 0.0
H635 H 1.01675 0.49956 0.60567 0.0
H636 H 0.03616 0.45067 0.71435 0.0
H637 H 1.00451 0.4624 0.7231 0.0
H638 H 0.99614 0.45468 0.68699 0.0
H639 H 1.02792 0.44313 0.67823 0.0
C640 C 0.63377 0.57791 0.59525 0.0
C641 C 0.64054 0.58785 0.6114 0.0
C642 C 0.66339 0.59291 0.59796 0.0
C643 C 0.65518 0.59531 0.61268 0.0
C644 C 0.65651 0.58284 0.5819 0.0
C645 C 0.64186 0.57545 0.58056 0.0
U646 U 0.59794 0.56209 0.62149 0.0
O647 O 0.57845 0.56126 0.6113 0.0
O648 O 0.57871 0.54173 0.61664 0.0
C649 C 0.57149 0.54751 0.60993 0.0
C650 C 0.61833 0.56989 0.59378 0.0
C651 C 0.56314 0.54148 0.59042 0.0
C652 C 0.55991 0.54144 0.55214 0.0
C653 C 0.56834 0.54709 0.57023 0.0
C654 C 0.54109 0.52439 0.57416 0.0
C655 C 0.54614 0.53004 0.55387 0.0
C656 C 0.5495 0.53006 0.59219 0.0
C657 C 0.59901 0.5682 0.68274 0.0
C658 C 0.58079 0.56645 0.70654 0.0
C659 C 0.60276 0.57019 0.72092 0.0
C660 C 0.60747 0.56998 0.70039 0.0
C661 C 0.58942 0.56859 0.72432 0.0
C662 C 0.58555 0.56626 0.68591 0.0
C663 C 0.60496 0.56927 0.66139 0.0
O664 O 0.61226 0.55758 0.60309 0.0
O665 O 0.61189 0.57701 0.59743 0.0
O666 O 0.60324 0.57721 0.64757 0.0
O667 O 0.60344 0.55765 0.65308 0.0
H668 H 0.6345 0.58987 0.623 0.0
H669 H 0.66005 0.60309 0.62508 0.0
H670 H 0.66242 0.5805 0.5705 0.0
H671 H 0.63685 0.56774 0.56809 0.0
H672 H 0.56422 0.54595 0.53677 0.0
H673 H 0.57887 0.55587 0.56847 0.0
H674 H 0.53052 0.51576 0.5762 0.0
H675 H 0.54527 0.52561 0.60762 0.0
H676 H 0.5704 0.56504 0.70854 0.0
H677 H 0.60982 0.57212 0.73408 0.0
H678 H 0.61793 0.57158 0.69827 0.0
H679 H 0.57884 0.56484 0.67247 0.0
C680 C 0.46777 0.06547 0.59544 0.0
C681 C 0.45773 0.06231 0.61142 0.0
C682 C 0.45324 0.08056 0.59838 0.0
C683 C 0.4505 0.06973 0.61282 0.0
C684 C 0.46344 0.08376 0.58253 0.0
C685 C 0.47059 0.07627 0.58107 0.0
U686 U 0.48234 0.04404 0.62073 0.0
O687 O 0.4824 0.0251 0.60955 0.0
O688 O 0.50227 0.04437 0.61588 0.0
C689 C 0.49614 0.03145 0.60863 0.0
C690 C 0.47542 0.05769 0.59369 0.0
C691 C 0.50219 0.02899 0.58925 0.0
C692 C 0.5135 0.0362 0.55467 0.0
C693 C 0.50721 0.03859 0.57236 0.0
C694 C 0.50959 1.0145 0.57038 0.0
C695 C 0.51484 0.02414 0.5535 0.0
C696 C 0.50335 1.01692 0.58803 0.0
C697 C 0.47585 0.0374 0.68174 0.0
C698 C 0.46459 0.01997 0.70969 0.0
C699 C 0.48647 0.04118 0.71688 0.0
C700 C 0.48674 0.04564 0.69598 0.0
C701 C 0.47525 0.02841 0.72413 0.0
C702 C 0.46486 0.02443 0.6888 0.0
C703 C 0.47501 0.0431 0.66075 0.0
O704 O 0.48762 0.06341 0.60331 0.0
O705 O 0.46791 0.04408 0.59668 0.0
O706 O 0.46683 0.03408 0.64632 0.0
O707 O 0.48671 0.05328 0.65277 0.0
H708 H 0.45542 0.05405 0.62277 0.0
H709 H 0.44262 0.06681 0.62506 0.0
H710 H 0.46604 0.09217 0.57135 0.0
H711 H 0.47838 0.07895 0.56873 0.0
H712 H 0.51725 0.04376 0.54186 0.0
H713 H 0.50638 0.04797 0.57291 0.0
H714 H 0.51058 1.00521 0.57022 0.0
H715 H 0.49959 1.0094 0.60092 0.0
H716 H 0.45568 1.01017 0.71477 0.0
H717 H 0.49493 0.04787 0.72749 0.0
H718 H 0.49528 0.05577 0.69121 0.0
H719 H 0.45616 1.01792 0.67842 0.0
C720 C 0.63633 0.06562 0.09492 0.0
C721 C 0.64291 0.06807 0.1148 0.0
C722 C 0.66591 0.08024 0.09785 0.0
C723 C 0.65755 0.07534 0.11626 0.0
C724 C 0.65921 0.07766 0.07797 0.0
C725 C 0.64457 0.07044 0.07654 0.0
U726 U 0.60042 0.04407 0.1203 0.0
O727 O 0.58096 0.04493 0.11643 0.0
O728 O 0.58124 0.02564 0.10869 0.0
C729 C 0.57401 0.03218 0.10857 0.0
C730 C 0.62093 0.05802 0.09322 0.0
C731 C 0.56547 0.03033 0.08944 0.0
C732 C 0.56145 0.02716 0.05128 0.0
C733 C 0.57018 0.02973 0.06893 0.0
C734 C 0.54334 0.02603 0.07436 0.0
C735 C 0.54787 0.02519 0.05378 0.0
C736 C 0.55204 0.02855 0.09195 0.0
C737 C 0.60035 0.03587 0.18062 0.0
C738 C 0.58879 0.03624 0.21348 0.0
C739 C 0.59804 0.02052 0.21005 0.0
C740 C 0.60254 0.02542 0.18944 0.0
C741 C 0.59129 0.02601 0.22248 0.0
C742 C 0.59327 0.04112 0.19279 0.0
C743 C 0.60687 0.04208 0.15987 0.0
O744 O 0.61479 0.04438 0.0957 0.0
O745 O 0.61457 0.06365 0.10353 0.0
O746 O 0.60552 0.05256 0.15278 0.0
O747 O 0.6058 0.03331 0.14483 0.0
H748 H 0.63672 0.06436 0.12919 0.0
H749 H 0.66233 0.07696 0.1318 0.0
H750 H 0.66529 0.08142 0.06349 0.0
H751 H 0.63968 0.06865 0.06106 0.0
H752 H 0.56537 0.02678 0.03566 0.0
H753 H 0.58054 0.03112 0.06658 0.0
H754 H 0.53292 0.02439 0.07699 0.0
H755 H 0.54818 0.02891 0.10764 0.0
H756 H 0.5835 0.0406 0.22253 0.0
H757 H 0.60036 1.01281 0.21654 0.0
H758 H 0.60817 0.02134 0.18061 0.0
H759 H 0.59148 0.04925 0.18656 0.0
C760 C 0.98189 0.57922 0.09503 0.0
C761 C 0.97829 0.5822 0.11496 0.0
C762 C 0.96707 0.59399 0.09802 0.0
C763 C 0.97093 0.58949 0.11645 0.0
C764 C 0.97078 0.59097 0.07808 0.0
C765 C 0.97811 0.58366 0.07663 0.0
U766 U 1.003 0.56442 0.12059 0.0
O767 O 1.00276 0.54456 0.11548 0.0
O768 O 1.02207 0.56449 0.10969 0.0
C769 C 1.01573 0.55076 0.10846 0.0
C770 C 0.98973 0.57165 0.09328 0.0
C771 C 1.0183 0.54489 0.08896 0.0
C772 C 1.01109 0.53358 0.05436 0.0
C773 C 1.00867 0.53982 0.0721 0.0
C774 C 0.03289 0.53767 0.06994 0.0
C775 C 1.0232 0.53235 0.05311 0.0
C776 C 0.03044 0.54385 0.08764 0.0
C777 C 1.00889 0.57021 0.18176 0.0
C778 C 1.00407 0.56275 0.21873 0.0
C779 C 1.02791 0.57845 0.2075 0.0
C780 C 1.02324 0.57807 0.18669 0.0
C781 C 1.01835 0.57102 0.22389 0.0
C782 C 0.99941 0.56241 0.19795 0.0
C783 C 1.00343 0.57128 0.16073 0.0
O784 O 1.00325 0.57922 0.0969 0.0
O785 O 0.98394 0.55933 0.10256 0.0
O786 O 0.99338 0.55961 0.15244 0.0
O787 O 1.01257 0.57964 0.14658 0.0
H788 H 0.98115 0.57888 0.12937 0.0
H789 H 0.96812 0.59144 0.13205 0.0
H790 H 0.9682 0.59444 0.06357 0.0
H791 H 0.98088 0.58153 0.06111 0.0
H792 H 1.0035 0.52978 0.0416 0.0
H793 H 0.99924 0.54055 0.07272 0.0
H794 H 0.04222 0.53677 0.0697 0.0
H795 H 0.03797 0.54764 0.10051 0.0
H796 H 0.99643 0.55672 0.23083 0.0
H797 H 0.03895 0.58506 0.21089 0.0
H798 H 0.03085 0.58432 0.17467 0.0
H799 H 0.98828 0.55635 0.19468 0.0
C800 C 0.46864 0.41209 0.09525 0.0
C801 C 0.45748 0.40527 0.10966 0.0
C802 C 0.45363 0.38249 0.09799 0.0
C803 C 0.45001 0.39062 0.11092 0.0
C804 C 0.4649 0.38938 0.08374 0.0
C805 C 0.47229 0.40403 0.08235 0.0
U806 U 0.48435 0.44805 0.12124 0.0
O807 O 0.50473 0.46727 0.11648 0.0
O808 O 0.48521 0.4675 0.11081 0.0
C809 C 0.49896 0.47447 0.10961 0.0
C810 C 0.47667 0.42755 0.09374 0.0
C811 C 0.50511 0.48289 0.09019 0.0
C812 C 0.50505 0.48653 0.05202 0.0
C813 C 0.49933 0.47797 0.06997 0.0
C814 C 0.5225 0.50491 0.07421 0.0
C815 C 0.51666 0.50017 0.05392 0.0
C816 C 0.51678 0.49637 0.0921 0.0
C817 C 0.47794 0.44712 0.18238 0.0
C818 C 0.48042 0.46575 0.20594 0.0
C819 C 0.47533 0.44338 0.22053 0.0
C820 C 0.47549 0.43852 0.20009 0.0
C821 C 0.47766 0.45702 0.22378 0.0
C822 C 0.48056 0.46085 0.18539 0.0
C823 C 0.47697 0.44111 0.1611 0.0
O824 O 0.46956 0.43404 0.09707 0.0
O825 O 0.48895 0.43366 0.10317 0.0
O826 O 0.48863 0.44263 0.15299 0.0
O827 O 0.4691 0.44281 0.14712 0.0
H828 H 0.45455 0.41125 0.11999 0.0
H829 H 0.44151 0.38566 0.12226 0.0
H830 H 0.46789 0.38344 0.07343 0.0
H831 H 0.48088 0.40907 0.07118 0.0
H832 H 0.50019 0.48256 0.03673 0.0
H833 H 0.49031 0.4676 0.0681 0.0
H834 H 0.53158 0.51522 0.0763 0.0
H835 H 0.52143 0.50036 0.10753 0.0
H836 H 0.48239 0.47635 0.20784 0.0
H837 H 0.47291 0.43624 0.23373 0.0
H838 H 0.47337 0.42787 0.19808 0.0
H839 H 0.48251 0.46766 0.17189 0.0
C840 C 0.40747 0.29207 0.1069 0.0
C841 C 0.40301 0.29906 0.09304 0.0
C842 C 0.42269 0.32165 0.1037 0.0
C843 C 0.4105 0.3137 0.09156 0.0
C844 C 0.4272 0.31459 0.11735 0.0
C845 C 0.41964 0.29996 0.11897 0.0
U846 U 0.38535 0.25585 0.08234 0.0
O847 O 0.38555 0.23617 0.08716 0.0
O848 O 0.3665 0.23705 0.09418 0.0
C849 C 0.37272 0.22954 0.09479 0.0
C850 C 0.39962 0.27663 0.10884 0.0
C851 C 0.37042 0.22109 0.11416 0.0
C852 C 0.37746 0.21744 0.14915 0.0
C853 C 0.37977 0.22602 0.13137 0.0
C854 C 0.35637 0.19905 0.13283 0.0
C855 C 0.36577 0.20379 0.15005 0.0
C856 C 0.35869 0.2076 0.11512 0.0
C857 C 0.37755 0.25535 0.02167 0.0
C858 C 0.37914 0.24532 0.98792 0.0
C859 C 0.36143 0.25191 0.99277 0.0
C860 C 0.36617 0.25626 1.01351 0.0
C861 C 0.36801 0.24662 0.97956 0.0
C862 C 0.38387 0.24965 1.00871 0.0
C863 C 0.38371 0.26197 0.04244 0.0
O864 O 0.38596 0.27056 0.10651 0.0
O865 O 0.40509 0.27 0.09894 0.0
O866 O 0.39396 0.26037 0.04992 0.0
O867 O 0.375 0.26132 0.05726 0.0
H868 H 0.39374 0.29321 0.08336 0.0
H869 H 0.40684 0.31879 0.08069 0.0
H870 H 0.43647 0.3204 0.12704 0.0
H871 H 0.42328 0.29479 0.12971 0.0
H872 H 0.38499 0.22142 0.16201 0.0
H873 H 0.3889 0.23641 0.13097 0.0
H874 H 0.34713 0.18874 0.13306 0.0
H875 H 0.35131 0.20362 0.10205 0.0
H876 H 0.38436 0.24115 0.97827 0.0
H877 H 0.35297 0.25327 0.98681 0.0
H878 H 0.36123 0.26084 0.02291 0.0
H879 H 0.39275 0.24891 1.01436 0.0
C880 C 0.75644 0.12623 0.10595 0.0
C881 C 0.74974 0.12303 0.08612 0.0
C882 C 0.72684 0.11099 0.10341 0.0
C883 C 0.73509 0.11551 0.08485 0.0
C884 C 0.73367 0.11419 0.12324 0.0
C885 C 0.74832 0.12174 0.12448 0.0
U886 U 0.79211 0.14216 0.07938 0.0
O887 O 0.81135 0.1625 0.08418 0.0
O888 O 0.81164 0.14296 0.08928 0.0
C889 C 0.81861 0.15671 0.09068 0.0
C890 C 0.77186 0.13419 0.10741 0.0
C891 C 0.82704 0.16271 0.11012 0.0
C892 C 0.83006 0.16329 0.1485 0.0
C893 C 0.82162 0.15761 0.13043 0.0
C894 C 0.84934 0.17934 0.1262 0.0
C895 C 0.84406 0.17423 0.14663 0.0
C896 C 0.84092 0.17364 0.10819 0.0
C897 C 0.79078 0.13622 0.01808 0.0
C898 C 0.80925 0.13875 0.99414 0.0
C899 C 0.78673 0.13354 0.97999 0.0
C900 C 0.78203 0.13372 1.00054 0.0
C901 C 0.80035 0.1359 0.97647 0.0
C902 C 0.8045 0.13891 1.01479 0.0
C903 C 0.7849 0.13511 0.0395 0.0
O904 O 0.77816 0.12701 0.1033 0.0
O905 O 0.77795 0.14657 0.09829 0.0
O906 O 0.78647 0.14671 0.04797 0.0
O907 O 0.78669 0.12713 0.05316 0.0
H908 H 0.75584 0.12641 0.07161 0.0
H909 H 0.73024 0.11342 0.06932 0.0
H910 H 0.72771 0.11072 0.13785 0.0
H911 H 0.75331 0.12404 0.13992 0.0
H912 H 0.82558 0.1592 0.16396 0.0
H913 H 0.8109 0.14921 0.13229 0.0
H914 H 0.86009 0.1876 0.12405 0.0
H915 H 0.84532 0.1777 0.09266 0.0
H916 H 0.81985 0.14076 0.99203 0.0
H917 H 0.77948 0.13106 0.96694 0.0
H918 H 0.77138 0.13154 1.00278 0.0
H919 H 0.81143 0.14088 0.02815 0.0
C920 C 0.92161 0.63904 0.1068 0.0
C921 C 0.9258 0.6366 0.08694 0.0
C922 C 0.93655 0.6244 0.10393 0.0
C923 C 0.93316 0.62932 0.08551 0.0
C924 C 0.93238 0.62696 0.1238 0.0
C925 C 0.92497 0.6342 0.1252 0.0
U926 U 0.90742 0.66063 0.08122 0.0
O927 O 0.88715 0.65988 0.08493 0.0
O928 O 0.90671 0.67912 0.0927 0.0
C929 C 0.89294 0.67264 0.09272 0.0
C930 C 0.91383 0.64667 0.10845 0.0
C931 C 0.88626 0.67451 0.11183 0.0
C932 C 0.88441 0.67604 0.15018 0.0
C933 C 0.8906 0.67358 0.13243 0.0
C934 C 0.86936 0.68016 0.12694 0.0
C935 C 0.87373 0.67943 0.14766 0.0
C936 C 0.87556 0.67774 0.10926 0.0
C937 C 0.91577 0.66875 0.02092 0.0
C938 C 0.90388 0.66856 0.98815 0.0
C939 C 0.92892 0.6839 0.99138 0.0
C940 C 0.92847 0.679 1.012 0.0
C941 C 0.91668 0.6786 0.97905 0.0
C942 C 0.90343 0.66367 1.00886 0.0
C943 C 0.91599 0.66254 0.04171 0.0
O944 O 0.92138 0.66031 0.10594 0.0
O945 O 0.90189 0.64107 0.0981 0.0
O946 O 0.90411 0.65209 0.04878 0.0
O947 O 0.92365 0.67131 0.05675 0.0
H948 H 0.92337 0.64034 0.07255 0.0
H949 H 0.93637 0.62772 0.06999 0.0
H950 H 0.93466 0.62319 0.13828 0.0
H951 H 0.92183 0.63598 0.14067 0.0
H952 H 0.88793 0.6752 0.16587 0.0
H953 H 0.89882 0.67106 0.13477 0.0
H954 H 0.86133 0.68292 0.12432 0.0
H955 H 0.8721 0.67857 0.0935 0.0
H956 H 0.89424 0.66435 0.97918 0.0
H957 H 0.93899 0.69147 0.98482 0.0
H958 H 0.93818 0.68294 0.02076 0.0
H959 H 0.89346 0.6557 1.01518 0.0
C960 C 0.42172 0.97172 0.9404 0.0
C961 C 0.41488 0.97527 0.92488 0.0
C962 C 0.39211 0.95679 0.93746 0.0
C963 C 0.40024 0.96793 0.92349 0.0
C964 C 0.39907 0.95323 0.95286 0.0
C965 C 0.41371 0.96064 0.95431 0.0
U966 U 0.45767 0.9936 0.91513 0.0
O967 O 0.47682 1.01201 0.92686 0.0
O968 O 0.47716 0.9928 0.91883 0.0
C969 C 0.48408 1.0055 0.92684 0.0
C970 C 0.43715 0.97935 0.94203 0.0
C971 C 0.49261 1.0073 0.94594 0.0
C972 C 0.49666 1.01044 0.9841 0.0
C973 C 0.48792 1.00788 0.96647 0.0
C974 C 0.51476 1.01159 0.96097 0.0
C975 C 0.51025 1.01242 0.98156 0.0
C976 C 0.50604 1.00907 0.94339 0.0
C977 C 0.45764 1.00205 0.8549 0.0
C978 C 0.4687 1.00146 0.82163 0.0
C979 C 0.46004 1.01762 0.82575 0.0
C980 C 0.45568 1.01272 0.84641 0.0
C981 C 0.4664 1.0119 0.81295 0.0
C982 C 0.46436 0.99658 0.84236 0.0
C983 C 0.45117 0.99577 0.87566 0.0
O984 O 0.4435 0.97381 0.93152 0.0
O985 O 0.44335 0.99303 0.93997 0.0
O986 O 0.45224 1.00447 0.89083 0.0
O987 O 0.45256 0.98528 0.88258 0.0
H988 H 0.42087 0.98376 0.91388 0.0
H989 H 0.39531 0.97112 0.91161 0.0
H990 H 0.39323 0.94458 0.96365 0.0
H991 H 0.41878 0.95766 0.96628 0.0
H992 H 0.49276 1.01081 0.99973 0.0
H993 H 0.47757 1.00649 0.96885 0.0
H994 H 0.52518 1.01323 0.95831 0.0
H995 H 0.5099 1.00873 0.92769 0.0
H996 H 0.4737 0.99692 0.81229 0.0
H997 H 0.4579 0.02551 0.81952 0.0
H998 H 0.45032 1.01698 0.85553 0.0
H999 H 0.46597 0.98827 0.84831 0.0
C1000 C 0.0739 0.45756 0.93966 0.0
C1001 C 0.07694 0.45398 0.91975 0.0
C1002 C 0.08874 0.4428 0.93677 0.0
C1003 C 0.08429 0.44669 0.91831 0.0
C1004 C 0.0856 0.44641 0.95669 0.0
C1005 C 0.07826 0.45372 0.95809 0.0
U1006 U 0.05264 0.47219 0.91407 0.0
O1007 O 0.03368 0.47225 0.92515 0.0
O1008 O 0.05296 0.49211 0.91889 0.0
C1009 C 0.04004 0.48599 0.92611 0.0
C1010 C 0.0661 0.46517 0.94136 0.0
C1011 C 0.0376 0.49202 0.94553 0.0
C1012 C 0.04491 0.50342 0.98005 0.0
C1013 C 0.04727 0.49713 0.96234 0.0
C1014 C 1.0231 0.49934 0.96454 0.0
C1015 C 0.03281 0.50468 0.98133 0.0
C1016 C 1.02548 0.49311 0.94687 0.0
C1017 C 0.04604 0.46567 0.85308 0.0
C1018 C 0.04923 0.47694 0.81856 0.0
C1019 C 0.02919 0.45394 0.82455 0.0
C1020 C 0.03366 0.45414 0.84541 0.0
C1021 C 0.03705 0.46522 0.81072 0.0
C1022 C 0.05369 0.47714 0.83946 0.0
C1023 C 0.05177 0.46486 0.87405 0.0
O1024 O 0.07185 0.4774 0.93179 0.0
O1025 O 0.05255 0.45759 0.93801 0.0
O1026 O 0.04273 0.45669 0.88846 0.0
O1027 O 0.06195 0.47657 0.88207 0.0
H1028 H 0.07364 0.45684 0.90531 0.0
H1029 H 0.08666 0.44426 0.90271 0.0
H1030 H 0.08864 0.44343 0.97125 0.0
H1031 H 0.07594 0.45633 0.9736 0.0
H1032 H 0.05252 0.50724 0.99278 0.0
H1033 H 0.05668 0.49635 0.9617 0.0
H1034 H 1.01377 0.50027 0.9648 0.0
H1035 H 1.01792 0.48929 0.93405 0.0
H1036 H 0.05546 0.48587 0.80843 0.0
H1037 H 1.01988 0.44465 0.819 0.0
H1038 H 1.02765 0.44501 0.85529 0.0
H1039 H 0.06337 0.48614 0.8447 0.0
C1040 C 0.58802 0.62473 0.93907 0.0
C1041 C 0.5994 0.63161 0.92504 0.0
C1042 C 0.60295 0.65434 0.93636 0.0
C1043 C 0.60683 0.64625 0.92379 0.0
C1044 C 0.59148 0.6474 0.95025 0.0
C1045 C 0.58413 0.63275 0.95162 0.0
U1046 U 0.5722 0.58884 0.91286 0.0
O1047 O 0.57133 0.56933 0.92305 0.0
O1048 O 0.55182 0.56962 0.91763 0.0
C1049 C 0.55758 0.56238 0.92434 0.0
C1050 C 0.57999 0.60926 0.94051 0.0
C1051 C 0.55148 0.55393 0.94375 0.0
C1052 C 0.55157 0.55028 0.9819 0.0
C1053 C 0.55726 0.55884 0.96395 0.0
C1054 C 0.53413 0.53189 0.95971 0.0
C1055 C 0.53998 0.53662 0.98 0.0
C1056 C 0.53983 0.54044 0.94183 0.0
C1057 C 0.57846 0.59003 0.85163 0.0
C1058 C 0.57561 0.57142 0.82772 0.0
C1059 C 0.58124 0.59405 0.81355 0.0
C1060 C 0.58115 0.59881 0.83408 0.0
C1061 C 0.5786 0.58033 0.81004 0.0
C1062 C 0.57554 0.57623 0.84836 0.0
C1063 C 0.57947 0.59592 0.87301 0.0
O1064 O 0.56767 0.60318 0.9312 0.0
O1065 O 0.58707 0.60276 0.93702 0.0
O1066 O 0.58736 0.59413 0.88685 0.0
O1067 O 0.56784 0.59438 0.88126 0.0
H1068 H 0.60252 0.62566 0.91497 0.0
H1069 H 0.61549 0.65125 0.91274 0.0
H1070 H 0.58829 0.65331 0.96027 0.0
H1071 H 0.57537 0.62768 0.96251 0.0
H1072 H 0.55644 0.55425 0.99719 0.0
H1073 H 0.56627 0.56923 0.96582 0.0
H1074 H 0.52507 0.52157 0.95763 0.0
H1075 H 0.53517 0.53645 0.92641 0.0
H1076 H 0.5734 0.56075 0.82561 0.0
H1077 H 0.58384 0.60133 0.80048 0.0
H1078 H 0.5835 0.60953 0.8363 0.0
H1079 H 0.57341 0.56927 0.86173 0.0
C1080 C 0.64848 0.74479 0.92832 0.0
C1081 C 0.65282 0.73781 0.94239 0.0
C1082 C 0.63361 0.71518 0.93083 0.0
C1083 C 0.64551 0.72316 0.94354 0.0
C1084 C 0.62925 0.72223 0.91688 0.0
C1085 C 0.63664 0.73688 0.91561 0.0
U1086 U 0.66891 0.78048 0.95493 0.0
O1087 O 0.68757 0.79998 0.9448 0.0
O1088 O 0.66788 0.79982 0.95086 0.0
C1089 C 0.68085 0.80703 0.94397 0.0
C1090 C 0.65599 0.76026 0.92704 0.0
C1091 C 0.68317 0.81569 0.92482 0.0
C1092 C 0.68748 0.82003 0.88686 0.0
C1093 C 0.68458 0.81123 0.90452 0.0
C1094 C 0.68734 0.83772 0.90951 0.0
C1095 C 0.689 0.83346 0.88915 0.0
C1096 C 0.68448 0.82895 0.9271 0.0
C1097 C 0.67432 0.7789 1.01587 0.0
C1098 C 0.68914 0.79797 0.0398 0.0
C1099 C 0.67418 0.77464 0.05373 0.0
C1100 C 0.6693 0.76979 0.03326 0.0
C1101 C 0.68422 0.78878 0.05733 0.0
C1102 C 0.68422 0.79307 0.01921 0.0
C1103 C 0.66928 0.77308 0.99453 0.0
O1104 O 0.6499 0.76637 0.93674 0.0
O1105 O 0.66959 0.76665 0.9303 0.0
O1106 O 0.67885 0.7749 0.98045 0.0
O1107 O 0.65919 0.77476 0.98663 0.0
H1108 H 0.66182 0.74368 0.95258 0.0
H1109 H 0.64903 0.71808 0.95464 0.0
H1110 H 0.62021 0.7164 0.90675 0.0
H1111 H 0.63309 0.74204 0.90469 0.0
H1112 H 0.68881 0.81642 0.8715 0.0
H1113 H 0.68362 0.80104 0.90234 0.0
H1114 H 0.68818 0.84785 0.91188 0.0
H1115 H 0.68339 0.83258 0.94261 0.0
H1116 H 0.69679 0.80894 0.04199 0.0
H1117 H 0.67034 0.76719 0.06668 0.0
H1118 H 0.66171 0.7588 0.03096 0.0
H1119 H 0.6882 0.80027 1.00594 0.0
C1120 C 0.30149 0.91138 0.92888 0.0
C1121 C 0.30827 0.92083 0.94559 0.0
C1122 C 0.3311 0.92614 0.93172 0.0
C1123 C 0.32291 0.92817 0.94695 0.0
C1124 C 0.3242 0.91655 0.91509 0.0
C1125 C 0.30956 0.90927 0.91369 0.0
U1126 U 0.26572 0.89621 0.95497 0.0
O1127 O 0.24651 0.89606 0.94476 0.0
O1128 O 0.24618 0.87623 0.95016 0.0
C1129 C 0.23923 0.88233 0.94348 0.0
C1130 C 0.28606 0.9036 0.92727 0.0
C1131 C 0.23069 0.87645 0.92409 0.0
C1132 C 0.2268 0.8659 0.88893 0.0
C1133 C 0.23546 0.87202 0.90667 0.0
C1134 C 0.20863 0.8688 0.90566 0.0
C1135 C 0.21323 0.86414 0.88824 0.0
C1136 C 0.21726 0.87487 0.92336 0.0
C1137 C 0.26669 0.90228 1.01611 0.0
C1138 C 0.24916 0.90237 0.03954 0.0
C1139 C 0.26975 0.90308 0.05441 0.0
C1140 C 0.27444 0.90264 0.03396 0.0
C1141 C 0.25715 0.90316 0.05752 0.0
C1142 C 0.25388 0.90193 0.019 0.0
C1143 C 0.27277 0.90325 0.99488 0.0
O1144 O 0.27975 0.89128 0.93656 0.0
O1145 O 0.27986 0.91095 0.9309 0.0
O1146 O 0.27145 0.91141 0.98101 0.0
O1147 O 0.27096 0.89151 0.98658 0.0
H1148 H 0.30224 0.92258 0.95756 0.0
H1149 H 0.32779 0.93559 0.9598 0.0
H1150 H 0.3301 0.9145 0.90328 0.0
H1151 H 0.30453 0.90194 0.90077 0.0
H1152 H 0.23077 0.86262 0.87571 0.0
H1153 H 0.24582 0.8732 0.90684 0.0
H1154 H 0.19822 0.86748 0.90586 0.0
H1155 H 0.21336 0.87817 0.93667 0.0
H1156 H 0.23933 0.90224 0.04133 0.0
H1157 H 0.27631 0.90391 0.06776 0.0
H1158 H 0.28438 0.90299 0.03205 0.0
H1159 H 0.2477 0.90161 1.00542 0.0
C1160 C 0.13451 0.39806 0.92821 0.0
C1161 C 0.13091 0.4011 0.94811 0.0
C1162 C 0.11942 0.41255 0.93103 0.0
C1163 C 0.12346 0.4083 0.94952 0.0
C1164 C 0.123 0.40938 0.91112 0.0
C1165 C 0.13049 0.40222 0.90975 0.0
U1166 U 0.14992 0.37766 0.95417 0.0
O1167 O 0.15069 0.35904 0.94351 0.0
O1168 O 0.17024 0.37869 0.94958 0.0
C1169 C 0.16445 0.36573 0.94262 0.0
C1170 C 0.1424 0.39055 0.92659 0.0
C1171 C 0.1707 0.36349 0.92331 0.0
C1172 C 0.17208 0.36183 0.8849 0.0
C1173 C 0.16618 0.36445 0.90286 0.0
C1174 C 0.18718 0.35745 0.90764 0.0
C1175 C 0.18264 0.35825 0.88706 0.0
C1176 C 0.18126 0.36003 0.92552 0.0
C1177 C 0.14365 0.37162 1.01533 0.0
C1178 C 0.13351 0.35373 0.0429 0.0
C1179 C 0.15317 0.37654 0.05128 0.0
C1180 C 0.15345 0.38078 0.03025 0.0
C1181 C 0.143 0.36306 0.058 0.0
C1182 C 0.1338 0.35797 0.02186 0.0
C1183 C 0.14258 0.37693 0.99414 0.0
O1184 O 0.15466 0.3966 0.9361 0.0
O1185 O 0.1351 0.377 0.93012 0.0
O1186 O 0.13455 0.36764 0.97989 0.0
O1187 O 0.15413 0.38725 0.986 0.0
H1188 H 0.13385 0.39789 0.96256 0.0
H1189 H 0.12072 0.41038 0.96509 0.0
H1190 H 0.12021 0.41263 0.89658 0.0
H1191 H 0.13318 0.39998 0.89425 0.0
H1192 H 0.16845 0.36271 0.86932 0.0
H1193 H 0.15807 0.36716 0.9008 0.0
H1194 H 0.19512 0.35454 0.90998 0.0
H1195 H 0.18487 0.3592 0.94117 0.0
H1196 H 0.12541 0.34334 0.04753 0.0
H1197 H 0.16075 0.38395 0.06239 0.0
H1198 H 0.16107 0.39143 0.02586 0.0
H1199 H 0.12594 0.35068 1.01093 0.0
C1200 C 0.3023 0.39966 0.42739 0.0
C1201 C 0.30893 0.40201 0.44722 0.0
C1202 C 0.33188 0.41431 0.43018 0.0
C1203 C 0.32357 0.40929 0.44861 0.0
C1204 C 0.32515 0.41185 0.41035 0.0
C1205 C 0.3105 0.4046 0.40899 0.0
U1206 U 0.26655 0.37754 0.45288 0.0
O1207 O 0.24692 0.37814 0.44961 0.0
O1208 O 0.24745 0.35909 0.44112 0.0
C1209 C 0.24007 0.36548 0.44145 0.0
C1210 C 0.2869 0.39198 0.42577 0.0
C1211 C 0.23145 0.36372 0.42246 0.0
C1212 C 0.22746 0.36116 0.38426 0.0
C1213 C 0.23624 0.36364 0.40181 0.0
C1214 C 0.20912 0.35908 0.40775 0.0
C1215 C 0.21372 0.35872 0.38701 0.0
C1216 C 0.21789 0.36154 0.42524 0.0
C1217 C 0.267 0.36868 0.51273 0.0
C1218 C 0.25258 0.366 0.54372 0.0
C1219 C 0.26712 0.35528 0.54333 0.0
C1220 C 0.27177 0.36056 0.52294 0.0
C1221 C 0.25758 0.35806 0.55411 0.0
C1222 C 0.25723 0.37125 0.52321 0.0
C1223 C 0.27332 0.37521 0.49208 0.0
O1224 O 0.28088 0.37831 0.42782 0.0
O1225 O 0.28048 0.39737 0.43651 0.0
O1226 O 0.27168 0.38563 0.48556 0.0
O1227 O 0.27227 0.36665 0.47672 0.0
H1228 H 0.30277 0.39818 0.46162 0.0
H1229 H 0.32838 0.41082 0.46411 0.0
H1230 H 0.3312 0.41569 0.39586 0.0
H1231 H 0.30558 0.40289 0.39354 0.0
H1232 H 0.23134 0.36085 0.36858 0.0
H1233 H 0.24669 0.36529 0.39928 0.0
H1234 H 0.19874 0.35751 0.41051 0.0
H1235 H 0.21399 0.36159 0.44103 0.0
H1236 H 0.24513 0.36822 0.55148 0.0
H1237 H 0.27137 0.34941 0.55093 0.0
H1238 H 0.27943 0.35857 0.51531 0.0
H1239 H 0.25336 0.37751 0.51576 0.0
C1240 C 0.64963 0.913 0.42879 0.0
C1241 C 0.64656 0.91654 0.44871 0.0
C1242 C 0.63501 0.92798 0.43171 0.0
C1243 C 0.63931 0.92393 0.45016 0.0
C1244 C 0.63822 0.92444 0.41178 0.0
C1245 C 0.64545 0.91703 0.41037 0.0
U1246 U 0.67062 0.89795 0.45413 0.0
O1247 O 0.66965 0.87765 0.4494 0.0
O1248 O 0.68912 0.89723 0.44273 0.0
C1249 C 0.68248 0.88347 0.44191 0.0
C1250 C 0.65721 0.90517 0.42706 0.0
C1251 C 0.68447 0.87715 0.42244 0.0
C1252 C 0.68743 0.87674 0.38414 0.0
C1253 C 0.68485 0.88262 0.40217 0.0
C1254 C 0.68903 0.85971 0.40641 0.0
C1255 C 0.68963 0.86524 0.38604 0.0
C1256 C 0.68649 0.86561 0.42437 0.0
C1257 C 0.67782 0.9048 0.51503 0.0
C1258 C 0.67472 0.8936 0.54958 0.0
C1259 C 0.6947 0.91661 0.54349 0.0
C1260 C 0.69019 0.91636 0.52264 0.0
C1261 C 0.68688 0.90535 0.55737 0.0
C1262 C 0.67021 0.89334 0.52869 0.0
C1263 C 0.67204 0.9056 0.49409 0.0
O1264 O 0.6708 0.91256 0.43012 0.0
O1265 O 0.65135 0.893 0.43682 0.0
O1266 O 0.66162 0.89396 0.48632 0.0
O1267 O 0.68106 0.91354 0.47949 0.0
H1268 H 0.64972 0.91353 0.46314 0.0
H1269 H 0.63689 0.9263 0.46577 0.0
H1270 H 0.6353 0.92755 0.39723 0.0
H1271 H 0.64779 0.91446 0.39484 0.0
H1272 H 0.68763 0.88116 0.36871 0.0
H1273 H 0.68326 0.8915 0.40028 0.0
H1274 H 0.69085 0.851 0.40857 0.0
H1275 H 0.68629 0.86126 0.43987 0.0
H1276 H 0.66852 0.88468 0.55975 0.0
H1277 H 0.70399 0.92593 0.549 0.0
H1278 H 0.69616 0.92549 0.51272 0.0
H1279 H 0.66054 0.88432 0.5235 0.0
C1280 C 0.13598 0.74687 0.42765 0.0
C1281 C 0.12452 0.73992 0.4415 0.0
C1282 C 0.12136 0.71728 0.43054 0.0
C1283 C 0.11724 0.72528 0.44283 0.0
C1284 C 0.13294 0.7243 0.41685 0.0
C1285 C 0.14014 0.73894 0.41539 0.0
U1286 U 0.15026 0.78292 0.45286 0.0
O1287 O 0.17047 0.80241 0.44873 0.0
O1288 O 0.15085 0.80202 0.44121 0.0
C1289 C 0.16461 0.80933 0.441 0.0
C1290 C 0.14378 0.76232 0.426 0.0
C1291 C 0.17111 0.81774 0.42175 0.0
C1292 C 0.17431 0.82013 0.3834 0.0
C1293 C 0.16828 0.81171 0.40141 0.0
C1294 C 0.18613 0.84061 0.40593 0.0
C1295 C 0.1833 0.83471 0.38542 0.0
C1296 C 0.1801 0.83221 0.42385 0.0
C1297 C 0.14229 0.783 0.51338 0.0
C1298 C 0.12942 0.78618 0.54231 0.0
C1299 C 0.15373 0.79286 0.54726 0.0
C1300 C 0.15425 0.78866 0.52642 0.0
C1301 C 0.14124 0.79145 0.5556 0.0
C1302 C 0.12993 0.78196 0.52152 0.0
C1303 C 0.14194 0.77652 0.49251 0.0
O1304 O 0.13633 0.76855 0.42824 0.0
O1305 O 0.15576 0.7687 0.43623 0.0
O1306 O 0.15377 0.77792 0.48529 0.0
O1307 O 0.13418 0.77754 0.47755 0.0
H1308 H 0.1212 0.74581 0.45132 0.0
H1309 H 0.10849 0.72021 0.45373 0.0
H1310 H 0.13631 0.71846 0.40704 0.0
H1311 H 0.14896 0.74408 0.40465 0.0
H1312 H 0.17201 0.81519 0.36792 0.0
H1313 H 0.16138 0.80054 0.39946 0.0
H1314 H 0.1928 0.85179 0.40814 0.0
H1315 H 0.18236 0.83707 0.43941 0.0
H1316 H 0.11956 0.78474 0.54825 0.0
H1317 H 0.16307 0.79701 0.55697 0.0
H1318 H 0.16392 0.7895 0.52078 0.0
H1319 H 0.12046 0.77741 0.51204 0.0
C1320 C 0.0764 0.62685 0.4389 0.0
C1321 C 0.07209 0.63372 0.42457 0.0
C1322 C 0.09115 0.65644 0.43611 0.0
C1323 C 0.07934 0.64837 0.42328 0.0
C1324 C 0.0955 0.6495 0.45029 0.0
C1325 C 0.08817 0.63486 0.4517 0.0
U1326 U 0.0556 0.59087 0.41318 0.0
O1327 O 0.0566 0.57153 0.41766 0.0
O1328 O 0.03702 0.57154 0.42401 0.0
C1329 C 0.04369 0.56444 0.42482 0.0
C1330 C 0.06888 0.6114 0.44046 0.0
C1331 C 0.04146 0.55586 0.44403 0.0
C1332 C 0.03702 0.55147 0.48195 0.0
C1333 C 0.0399 0.56026 0.46429 0.0
C1334 C 0.03749 0.53391 0.4594 0.0
C1335 C 0.03564 0.53811 0.47971 0.0
C1336 C 0.04034 0.54268 0.44181 0.0
C1337 C 0.04921 0.59102 0.35231 0.0
C1338 C 0.03003 0.57583 0.32879 0.0
C1339 C 0.05288 0.59173 0.3141 0.0
C1340 C 0.05802 0.59642 0.33457 0.0
C1341 C 0.03875 0.58156 0.31089 0.0
C1342 C 0.0352 0.5805 0.34931 0.0
C1343 C 0.05468 0.59746 0.37332 0.0
O1344 O 0.05525 0.60502 0.43752 0.0
O1345 O 0.07484 0.60518 0.43074 0.0
O1346 O 0.06496 0.59607 0.38115 0.0
O1347 O 0.04547 0.59622 0.38771 0.0
H1348 H 0.06314 0.62778 0.41432 0.0
H1349 H 0.07583 0.65337 0.412 0.0
H1350 H 0.10447 0.65541 0.46052 0.0
H1351 H 0.09169 0.62978 0.46282 0.0
H1352 H 0.03555 0.55503 0.49728 0.0
H1353 H 0.04071 0.5704 0.46641 0.0
H1354 H 0.03678 0.52384 0.45707 0.0
H1355 H 0.04155 0.53909 0.42634 0.0
H1356 H 1.01914 0.56786 0.32691 0.0
H1357 H 0.05986 0.59651 0.30073 0.0
H1358 H 0.06884 0.60461 0.33648 0.0
H1359 H 1.02817 0.57612 0.36272 0.0
C1360 C 0.42242 0.45982 0.43835 0.0
C1361 C 0.41575 0.45679 0.4185 0.0
C1362 C 0.39282 0.4448 0.43571 0.0
C1363 C 0.4011 0.44938 0.41719 0.0
C1364 C 0.39962 0.44782 0.45556 0.0
C1365 C 0.41427 0.45526 0.45684 0.0
U1366 U 0.45815 0.47545 0.412 0.0
O1367 O 0.4775 0.49569 0.41691 0.0
O1368 O 0.47754 0.47603 0.42206 0.0
C1369 C 0.48462 0.48977 0.42352 0.0
C1370 C 0.43784 0.46765 0.43988 0.0
C1371 C 0.49301 0.49571 0.44301 0.0
C1372 C 0.49626 0.4957 0.48128 0.0
C1373 C 0.48782 0.49009 0.4632 0.0
C1374 C 0.51509 0.51273 0.45927 0.0
C1375 C 0.51005 0.50708 0.47955 0.0
C1376 C 0.50667 0.5071 0.44124 0.0
C1377 C 0.45699 0.46954 0.35071 0.0
C1378 C 0.47533 0.47151 0.32696 0.0
C1379 C 0.45315 0.46718 0.31256 0.0
C1380 C 0.44843 0.46744 0.33307 0.0
C1381 C 0.4666 0.46904 0.30919 0.0
C1382 C 0.47056 0.47176 0.34756 0.0
C1383 C 0.45104 0.46847 0.37207 0.0
O1384 O 0.44404 0.46035 0.43584 0.0
O1385 O 0.44406 0.48003 0.43076 0.0
O1386 O 0.4527 0.48011 0.38052 0.0
O1387 O 0.45267 0.46041 0.38578 0.0
H1388 H 0.42187 0.46021 0.40402 0.0
H1389 H 0.39628 0.44742 0.40165 0.0
H1390 H 0.39364 0.44429 0.47014 0.0
H1391 H 0.41924 0.45743 0.47231 0.0
H1392 H 0.49195 0.49119 0.49665 0.0
H1393 H 0.47727 0.48133 0.46496 0.0
H1394 H 0.52567 0.52135 0.45723 0.0
H1395 H 0.5109 0.51157 0.42581 0.0
H1396 H 0.4858 0.47315 0.32497 0.0
H1397 H 0.44602 0.46499 0.29942 0.0
H1398 H 0.43789 0.46562 0.33519 0.0
H1399 H 0.47735 0.47342 0.36101 0.0
C1400 C 0.58974 0.97322 0.4405 0.0
C1401 C 0.59335 0.97023 0.42058 0.0
C1402 C 0.60457 0.95847 0.43758 0.0
C1403 C 0.60067 0.9629 0.41912 0.0
C1404 C 0.60092 0.96155 0.4575 0.0
C1405 C 0.59357 0.96884 0.45893 0.0
U1406 U 0.57499 0.99435 0.41487 0.0
O1407 O 0.55507 0.99402 0.41973 0.0
O1408 O 0.57494 1.01335 0.4258 0.0
C1409 C 0.5612 1.00698 0.42683 0.0
C1410 C 0.58211 0.981 0.44221 0.0
C1411 C 0.5552 1.0095 0.44621 0.0
C1412 C 0.54388 1.00235 0.48079 0.0
C1413 C 0.55017 0.99994 0.46314 0.0
C1414 C 0.5478 0.02403 0.46499 0.0
C1415 C 0.54254 1.01441 0.4819 0.0
C1416 C 0.55404 0.02158 0.44737 0.0
C1417 C 0.58126 1.00063 0.35376 0.0
C1418 C 0.59227 1.01818 0.3259 0.0
C1419 C 0.57088 0.99654 0.31841 0.0
C1420 C 0.57061 0.99214 0.33935 0.0
C1421 C 0.58187 1.0095 0.31129 0.0
C1422 C 0.592 1.01379 0.34683 0.0
C1423 C 0.58217 0.99504 0.37481 0.0
O1424 O 0.58966 0.99455 0.43876 0.0
O1425 O 0.56985 0.97521 0.43273 0.0
O1426 O 0.57049 0.9849 0.38294 0.0
O1427 O 0.59039 1.00414 0.38912 0.0
H1428 H 0.59056 0.97361 0.40616 0.0
H1429 H 0.60345 0.96088 0.40354 0.0
H1430 H 0.6036 0.95817 0.47202 0.0
H1431 H 0.59087 0.97106 0.47444 0.0
H1432 H 0.54013 0.99481 0.49363 0.0
H1433 H 0.55101 0.99055 0.46264 0.0
H1434 H 0.54681 0.03332 0.4651 0.0
H1435 H 0.55779 0.02907 0.43444 0.0
H1436 H 0.601 0.02813 0.32093 0.0
H1437 H 0.56261 0.98965 0.30768 0.0
H1438 H 0.56228 0.98187 0.34404 0.0
H1439 H 0.60052 0.02051 0.35734 0.0
C1440 C 0.13563 0.34143 0.10848 0.0
C1441 C 0.13664 0.35096 0.12422 0.0
H1442 H 0.137 0.33777 0.07534 0.0
C1443 C 0.14063 0.36473 0.11811 0.0
H1444 H 0.13248 0.33071 0.11257 0.0
C1445 C 0.14308 0.36873 0.09676 0.0
C1446 C 0.14162 0.35908 0.0809 0.0
H1447 H 0.14168 0.37239 0.12983 0.0
H1448 H 0.14565 0.37928 0.09262 0.0
C1449 C 0.13807 0.34543 0.08708 0.0
C1450 C 0.70973 0.80598 0.10312 0.0
C1451 C 0.70099 0.80008 0.12095 0.0
H1452 H 0.71137 0.80704 0.06919 0.0
C1453 C 0.68652 0.79144 0.11762 0.0
H1454 H 0.72089 0.81287 0.10506 0.0
C1455 C 0.68103 0.78826 0.09703 0.0
C1456 C 0.68985 0.79359 0.07918 0.0
H1457 H 0.67946 0.78662 0.13089 0.0
H1458 H 0.66986 0.78135 0.0951 0.0
C1459 C 0.70423 0.80277 0.08251 0.0
C1460 C 0.24513 0.91703 0.10343 0.0
C1461 C 0.24822 0.9113 0.12119 0.0
H1462 H 0.24558 0.91907 0.06962 0.0
C1463 C 0.25306 0.90184 0.1177 0.0
H1464 H 0.24115 0.92417 0.10548 0.0
C1465 C 0.2554 0.89873 0.09704 0.0
C1466 C 0.25297 0.90502 0.07932 0.0
H1467 H 0.25561 0.89726 0.13095 0.0
H1468 H 0.2594 0.89161 0.09497 0.0
C1469 C 0.2475 0.91396 0.0828 0.0
C1470 C 0.37068 0.13557 0.41704 0.0
C1471 C 0.35613 0.12766 0.41373 0.0
H1472 H 0.38746 0.14436 0.43956 0.0
C1473 C 0.34724 0.12331 0.43159 0.0
H1474 H 0.37786 0.13905 0.40373 0.0
C1475 C 0.35276 0.12616 0.45218 0.0
C1476 C 0.36733 0.13349 0.45549 0.0
H1477 H 0.33598 0.1174 0.42967 0.0
H1478 H 0.34559 0.12209 0.46548 0.0
C1479 C 0.3762 0.13847 0.43764 0.0
C1480 C 0.90888 0.24672 0.43735 0.0
C1481 C 0.91372 0.24264 0.45513 0.0
H1482 H 0.90823 0.24782 0.40347 0.0
C1483 C 0.92069 0.23506 0.4517 0.0
H1484 H 0.90325 0.25236 0.43935 0.0
C1485 C 0.92334 0.23223 0.43105 0.0
C1486 C 0.91915 0.23696 0.41326 0.0
H1487 H 0.92465 0.23179 0.46494 0.0
H1488 H 0.92897 0.22659 0.42905 0.0
C1489 C 0.91158 0.24395 0.41671 0.0
C1490 C 0.81261 0.69685 0.427 0.0
C1491 C 0.80432 0.68732 0.41111 0.0
H1492 H 0.81732 0.70044 0.46022 0.0
C1493 C 0.79463 0.67349 0.41705 0.0
H1494 H 0.82011 0.70762 0.42303 0.0
C1495 C 0.79294 0.66942 0.43838 0.0
C1496 C 0.8009 0.67906 0.45437 0.0
H1497 H 0.78819 0.66583 0.40522 0.0
H1498 H 0.78502 0.65881 0.44237 0.0
C1499 C 0.8109 0.69278 0.44837 0.0
C1500 C 0.91165 0.67713 0.91911 0.0
C1501 C 0.92096 0.69106 0.9131 0.0
H1502 H 0.90301 0.66227 0.9445 0.0
C1503 C 0.92815 0.70102 0.92913 0.0
H1504 H 0.90582 0.66922 0.90722 0.0
C1505 C 0.92643 0.69706 0.95052 0.0
C1506 C 0.91747 0.68305 0.95648 0.0
H1507 H 0.93551 0.71181 0.92513 0.0
H1508 H 0.93229 0.70498 0.96239 0.0
C1509 C 0.90991 0.67318 0.94052 0.0
C1510 C 0.34578 0.23492 0.92938 0.0
C1511 C 0.35601 0.23935 0.91332 0.0
H1512 H 0.34148 0.23353 0.96275 0.0
C1513 C 0.37015 0.24537 0.91933 0.0
H1514 H 0.33481 0.23036 0.92539 0.0
C1515 C 0.37399 0.24732 0.94079 0.0
C1516 C 0.3638 0.24331 0.95682 0.0
H1517 H 0.3783 0.24876 0.90741 0.0
H1518 H 0.38501 0.25241 0.94477 0.0
C1519 C 0.34962 0.23689 0.95084 0.0
C1520 C 0.80311 0.13623 0.91613 0.0
C1521 C 0.81032 0.12887 0.91275 0.0
H1522 H 0.7946 0.1445 0.93871 0.0
C1523 C 0.81535 0.12502 0.93057 0.0
H1524 H 0.79901 0.13931 0.90287 0.0
C1525 C 0.81261 0.12779 0.95119 0.0
C1526 C 0.80481 0.13454 0.95458 0.0
H1527 H 0.82116 0.11956 0.92861 0.0
H1528 H 0.81611 0.12409 0.96446 0.0
C1529 C 0.80042 0.13904 0.93675 0.0
C1530 C 0.70514 0.91252 0.58611 0.0
C1531 C 0.69097 0.9063 0.58018 0.0
H1532 H 0.72005 0.91974 0.61149 0.0
C1533 C 0.68076 0.90171 0.59629 0.0
H1534 H 0.71327 0.91604 0.57416 0.0
C1535 C 0.68464 0.90371 0.61773 0.0
C1536 C 0.69884 0.91033 0.62365 0.0
H1537 H 0.66976 0.897 0.59235 0.0
H1538 H 0.67651 0.90023 0.62968 0.0
C1539 C 0.70902 0.91449 0.60756 0.0
C1540 C 0.13043 0.80283 0.60587 0.0
C1541 C 0.13621 0.79837 0.6219 0.0
H1542 H 0.12764 0.80436 0.57251 0.0
C1543 C 0.14438 0.79241 0.61585 0.0
H1544 H 0.12397 0.80734 0.6099 0.0
C1545 C 0.14637 0.79057 0.59437 0.0
C1546 C 0.14021 0.79462 0.57837 0.0
H1547 H 0.14911 0.78899 0.62774 0.0
H1548 H 0.15234 0.78553 0.59035 0.0
C1549 C 0.1324 0.80097 0.5844 0.0
C1550 C 0.24823 0.3356 0.60384 0.0
C1551 C 0.24793 0.34457 0.6195 0.0
H1552 H 0.25124 0.33268 0.57105 0.0
C1553 C 0.24998 0.35771 0.61319 0.0
H1554 H 0.24686 0.32548 0.60807 0.0
C1555 C 0.25265 0.36192 0.59189 0.0
C1556 C 0.2534 0.35311 0.57638 0.0
H1557 H 0.24967 0.36483 0.62477 0.0
H1558 H 0.25461 0.37227 0.58772 0.0
C1559 C 0.25092 0.33981 0.58259 0.0
C1560 C 1.01499 0.45626 0.76049 0.0
C1561 C 1.02519 0.46041 0.74444 0.0
H1562 H 1.0107 0.45468 0.79388 0.0
C1563 C 0.03938 0.46695 0.7504 0.0
H1564 H 1.00397 0.45107 0.75653 0.0
C1565 C 0.04323 0.4689 0.77185 0.0
C1566 C 0.033 0.46433 0.78792 0.0
H1567 H 0.04752 0.47042 0.73846 0.0
H1568 H 0.05422 0.47356 0.77581 0.0
C1569 C 1.01885 0.45818 0.78195 0.0
C1570 C 0.57791 0.57747 0.74971 0.0
C1571 C 0.58503 0.57003 0.74621 0.0
H1572 H 0.57001 0.58626 0.77243 0.0
C1573 C 0.58883 0.56489 0.76395 0.0
H1574 H 0.57488 0.58166 0.73651 0.0
C1575 C 0.58625 0.56774 0.78463 0.0
C1576 C 0.57975 0.57577 0.78813 0.0
H1577 H 0.5941 0.55891 0.7619 0.0
H1578 H 0.5899 0.56415 0.79784 0.0
C1579 C 0.57528 0.58027 0.77038 0.0
C1580 C 0.47753 0.03436 0.76307 0.0
C1581 C 0.47415 0.02432 0.74695 0.0
H1582 H 0.47796 0.0384 0.79643 0.0
C1583 C 0.46899 1.01028 0.75284 0.0
H1584 H 0.48139 0.04525 0.75916 0.0
C1585 C 0.4669 1.00632 0.77425 0.0
C1586 C 0.46986 1.0163 0.79033 0.0
H1587 H 0.46641 1.00229 0.74087 0.0
H1588 H 0.4625 0.99535 0.77815 0.0
C1589 C 0.47541 0.03041 0.78446 0.0
C1590 C 0.58789 0.02753 0.28247 0.0
C1591 C 0.58305 1.01355 0.28844 0.0
H1592 H 0.5943 0.04242 0.25711 0.0
C1593 C 0.58009 1.00356 0.27237 0.0
H1594 H 0.59013 0.03547 0.29438 0.0
C1595 C 0.58235 1.00752 0.25099 0.0
C1596 C 0.58762 0.02157 0.24506 0.0
H1597 H 0.57649 0.99272 0.27634 0.0
H1598 H 0.58014 0.99957 0.23909 0.0
C1599 C 0.59013 0.03148 0.26105 0.0
C1600 C 0.03602 0.57361 0.25164 0.0
C1601 C 1.02313 0.57259 0.24642 0.0
H1602 H 0.05092 0.57693 0.27603 0.0
C1603 C 1.01511 0.57376 0.26286 0.0
H1604 H 0.04238 0.57254 0.23948 0.0
C1605 C 1.01998 0.57623 0.28381 0.0
C1606 C 0.03304 0.57764 0.28892 0.0
H1607 H 1.00525 0.57328 0.25945 0.0
H1608 H 1.01374 0.57758 0.29587 0.0
C1609 C 0.04091 0.57611 0.27261 0.0
C1610 C 0.4784 0.46035 0.28405 0.0
C1611 C 0.47102 0.46754 0.28735 0.0
H1612 H 0.48657 0.45168 0.26157 0.0
C1613 C 0.467 0.47236 0.26947 0.0
H1614 H 0.48161 0.45639 0.29736 0.0
C1615 C 0.46964 0.46944 0.24888 0.0
C1616 C 0.47642 0.46166 0.24559 0.0
H1617 H 0.46152 0.47816 0.27137 0.0
H1618 H 0.46582 0.47279 0.23557 0.0
C1619 C 0.48109 0.45747 0.26346 0.0
C1620 C 0.03445 0.27199 0.28299 0.0
C1621 C 0.04255 0.2834 0.26947 0.0
H1622 H 1.01395 0.25578 0.29205 0.0
C1623 C 0.03558 0.2872 0.25448 0.0
H1624 H 0.03942 0.26858 0.29448 0.0
C1625 C 1.02094 0.27981 0.25304 0.0
C1626 C 1.01285 0.26842 0.26659 0.0
H1627 H 0.04142 0.29606 0.24404 0.0
H1628 H 1.01594 0.28316 0.24151 0.0
C1629 C 1.01981 0.26462 0.28159 0.0
C1630 C 0.76821 0.75261 0.25082 0.0
C1631 C 0.7789 0.75513 0.26537 0.0
H1632 H 0.75267 0.75762 0.24087 0.0
C1633 C 0.78217 0.76528 0.28128 0.0
H1634 H 0.76526 0.74472 0.23857 0.0
C1635 C 0.77497 0.77273 0.28257 0.0
C1636 C 0.76428 0.77022 0.26801 0.0
H1637 H 0.79048 0.76766 0.29256 0.0
H1638 H 0.77798 0.78065 0.29478 0.0
C1639 C 0.76099 0.76003 0.25214 0.0
C1640 C 0.29933 0.02623 0.26755 0.0
C1641 C 0.29208 0.0337 0.26696 0.0
H1642 H 0.29795 1.00615 0.26915 0.0
C1643 C 0.27736 0.02617 0.2676 0.0
H1644 H 0.31066 0.0317 0.26691 0.0
C1645 C 0.27007 1.01152 0.26893 0.0
C1646 C 0.27732 1.00404 0.2694 0.0
H1647 H 0.27146 0.03161 0.26734 0.0
H1648 H 0.25873 1.00603 0.26931 0.0
C1649 C 0.29204 1.01158 0.26865 0.0
C1650 C 0.03471 0.77132 0.78284 0.0
C1651 C 0.04289 0.76847 0.76874 0.0
H1652 H 1.01414 0.76663 0.79229 0.0
C1653 C 0.03601 0.75813 0.75308 0.0
H1654 H 0.03961 0.77936 0.79488 0.0
C1655 C 1.02138 0.75085 0.75156 0.0
C1656 C 1.01321 0.75369 0.76569 0.0
H1657 H 0.04192 0.75547 0.74217 0.0
H1658 H 1.01646 0.74282 0.73951 0.0
C1659 C 1.02007 0.76401 0.78135 0.0
C1660 C 0.28194 0.26636 0.75152 0.0
C1661 C 0.29291 0.26925 0.76573 0.0
H1662 H 0.26608 0.27099 0.74181 0.0
C1663 C 0.29631 0.27963 0.7813 0.0
H1664 H 0.27885 0.25828 0.73955 0.0
C1665 C 0.28894 0.2869 0.78264 0.0
C1666 C 0.27798 0.28402 0.76841 0.0
H1667 H 0.30483 0.28232 0.7923 0.0
H1668 H 0.29198 0.29496 0.79464 0.0
C1669 C 0.27459 0.27365 0.75282 0.0
C1670 C 0.7799 1.01205 0.76737 0.0
C1671 C 0.76521 1.00458 0.76902 0.0
H1672 H 0.79853 0.03211 0.76476 0.0
C1673 C 0.75802 1.01213 0.76925 0.0
H1674 H 0.78575 1.00656 0.76696 0.0
C1675 C 0.76535 0.02678 0.768 0.0
C1676 C 0.78004 0.03424 0.76627 0.0
H1677 H 0.74672 1.00671 0.77069 0.0
H1678 H 0.75949 0.03226 0.76815 0.0
C1679 C 0.78721 0.02668 0.7659 0.0
C1680 C 0.70046 0.61163 0.62056 0.0
C1681 C 0.70877 0.61583 0.60208 0.0
H1682 H 0.67983 0.601 0.63383 0.0
C1683 C 0.70199 0.61241 0.58223 0.0
H1684 H 0.70525 0.6142 0.63614 0.0
C1685 C 0.68735 0.60506 0.5809 0.0
C1686 C 0.67904 0.60082 0.59938 0.0
H1687 H 0.70798 0.61529 0.56763 0.0
H1688 H 0.68256 0.60282 0.56532 0.0
C1689 C 0.68582 0.60421 0.61923 0.0
C1690 C 0.43468 0.0991 0.62098 0.0
C1691 C 0.43077 0.10348 0.6025 0.0
H1692 H 0.44494 0.08875 0.63426 0.0
C1693 C 0.43434 0.10023 0.58266 0.0
H1694 H 0.43198 0.10123 0.63655 0.0
C1695 C 0.44156 0.09281 0.58133 0.0
C1696 C 0.4455 0.08847 0.59981 0.0
H1697 H 0.4317 0.10356 0.56806 0.0
H1698 H 0.44392 0.09035 0.56575 0.0
C1699 C 0.44196 0.09174 0.61966 0.0
C1700 C 0.94444 0.35924 0.6004 0.0
C1701 C 0.95913 0.36669 0.59877 0.0
H1702 H 0.9258 0.33919 0.60304 0.0
C1703 C 0.96631 0.35914 0.59861 0.0
H1704 H 0.93859 0.36474 0.60074 0.0
C1705 C 0.95897 0.34449 0.59992 0.0
C1706 C 0.94428 0.33704 0.60164 0.0
H1707 H 0.97761 0.36454 0.5972 0.0
H1708 H 0.96482 0.339 0.59983 0.0
C1709 C 0.93711 0.3446 0.60192 0.0
C1710 C 0.68969 0.08558 0.08471 0.0
C1711 C 0.68151 0.08803 0.09938 0.0
H1712 H 0.71025 0.09061 0.07468 0.0
C1713 C 0.68838 0.09805 0.11545 0.0
H1714 H 0.68476 0.07779 0.07233 0.0
C1715 C 0.70302 0.10546 0.11676 0.0
C1716 C 0.71121 0.10302 0.10208 0.0
H1717 H 0.68244 0.10037 0.12682 0.0
H1718 H 0.70792 0.11328 0.1291 0.0
C1719 C 0.70433 0.09295 0.08606 0.0
C1720 C 0.94859 0.5993 0.08493 0.0
C1721 C 0.95924 0.60178 0.09956 0.0
H1722 H 0.93303 0.60429 0.07496 0.0
C1723 C 0.96234 0.61179 0.11566 0.0
H1724 H 0.94573 0.59151 0.07254 0.0
C1725 C 0.955 0.61909 0.11708 0.0
C1726 C 0.94438 0.61662 0.10242 0.0
H1727 H 0.97061 0.61417 0.127 0.0
H1728 H 0.95781 0.62685 0.1295 0.0
C1729 C 0.94128 0.60663 0.08632 0.0
C1730 C 0.42355 0.34489 0.10189 0.0
C1731 C 0.43063 0.33724 0.10217 0.0
H1732 H 0.42522 0.3651 0.10036 0.0
C1733 C 0.44534 0.3446 0.10104 0.0
H1734 H 0.41223 0.33956 0.10292 0.0
C1735 C 0.45278 0.35924 0.09956 0.0
C1736 C 0.44571 0.3669 0.0994 0.0
H1737 H 0.45111 0.33902 0.10105 0.0
H1738 H 0.46411 0.36458 0.09881 0.0
C1739 C 0.431 0.35954 0.10062 0.0
C1740 C 0.36971 0.94608 0.91613 0.0
C1741 C 0.37647 0.94892 0.93597 0.0
H1742 H 0.3503 0.93696 0.8992 0.0
C1743 C 0.36814 0.94417 0.9544 0.0
H1744 H 0.37573 0.94939 0.90155 0.0
C1745 C 0.3535 0.93678 0.95302 0.0
C1746 C 0.34674 0.93397 0.93318 0.0
H1747 H 0.37291 0.94629 0.96999 0.0
H1748 H 0.34749 0.93315 0.96756 0.0
C1749 C 0.35507 0.93874 0.91475 0.0
C1750 C 0.09306 0.42453 0.91988 0.0
C1751 C 0.0966 0.43504 0.93528 0.0
H1752 H 0.0973 0.40911 0.90663 0.0
C1753 C 0.10771 0.43806 0.94928 0.0
H1754 H 0.08443 0.42174 0.90906 0.0
C1755 C 0.11506 0.43077 0.94793 0.0
C1756 C 0.11153 0.42028 0.93251 0.0
H1757 H 0.1109 0.44623 0.96111 0.0
H1758 H 0.12368 0.43353 0.95876 0.0
C1759 C 0.10044 0.41726 0.91849 0.0
C1760 C 0.60365 0.67749 0.93421 0.0
C1761 C 0.61081 0.66993 0.93493 0.0
H1762 H 0.60519 0.69763 0.93234 0.0
C1763 C 0.62553 0.67738 0.93425 0.0
H1764 H 0.59231 0.67208 0.93453 0.0
C1765 C 0.63291 0.69202 0.93301 0.0
C1766 C 0.62575 0.69959 0.9322 0.0
H1767 H 0.63138 0.67188 0.93493 0.0
H1768 H 0.64425 0.69743 0.93244 0.0
C1769 C 0.61102 0.69213 0.93276 0.0
C1770 C 0.36904 0.43934 0.44913 0.0
C1771 C 0.37719 0.43694 0.43433 0.0
H1772 H 0.34848 0.43428 0.45931 0.0
C1773 C 0.37027 0.42698 0.41818 0.0
H1774 H 0.37397 0.44708 0.46158 0.0
C1775 C 0.35563 0.41967 0.41684 0.0
C1776 C 0.34749 0.42208 0.43164 0.0
H1777 H 0.37616 0.42466 0.40671 0.0
H1778 H 0.35068 0.41196 0.40436 0.0
C1779 C 0.35439 0.432 0.44782 0.0
C1780 C 0.61621 0.93295 0.41909 0.0
C1781 C 0.62722 0.93581 0.43321 0.0
H1782 H 0.60037 0.93765 0.40954 0.0
C1783 C 0.6307 0.94622 0.44877 0.0
H1784 H 0.61305 0.92485 0.40713 0.0
C1785 C 0.62338 0.95354 0.45019 0.0
C1786 C 0.61238 0.95068 0.43606 0.0
H1787 H 0.63926 0.94889 0.4597 0.0
H1788 H 0.62649 0.96161 0.46218 0.0
C1789 C 0.60891 0.94029 0.42048 0.0
C1790 C 0.09162 0.67948 0.4336 0.0
C1791 C 0.0989 0.67204 0.4347 0.0
H1792 H 0.09297 0.69952 0.43145 0.0
C1793 C 0.11363 0.67961 0.43442 0.0
H1794 H 0.08029 0.67398 0.43396 0.0
C1795 C 0.1209 0.69424 0.43297 0.0
C1796 C 0.11362 0.70169 0.43198 0.0
H1797 H 0.11955 0.6742 0.43506 0.0
H1798 H 0.13224 0.69975 0.43288 0.0
C1799 C 0.0989 0.69412 0.43237 0.0
C1800 C 0.20923 0.36277 0.34906 0.0
C1801 C 0.20415 0.35567 0.36845 0.0
H1802 H 0.2045 0.36578 0.31719 0.0
C1803 C 0.18981 0.34563 0.36998 0.0
H1804 H 0.22014 0.37073 0.34735 0.0
C1805 C 0.18082 0.34278 0.35265 0.0
C1806 C 0.1859 0.34987 0.33326 0.0
H1807 H 0.18555 0.33977 0.38452 0.0
H1808 H 0.16991 0.33482 0.35436 0.0
C1809 C 0.20023 0.35992 0.33173 0.0
C1810 C 0.68711 0.84457 0.36502 0.0
C1811 C 0.69276 0.85914 0.367 0.0
H1812 H 0.68554 0.8276 0.34628 0.0
C1813 C 0.70165 0.86785 0.35081 0.0
H1814 H 0.68006 0.83751 0.37699 0.0
C1815 C 0.70481 0.86215 0.33318 0.0
C1816 C 0.69917 0.84758 0.33122 0.0
H1817 H 0.7064 0.87912 0.35193 0.0
H1818 H 0.71187 0.86921 0.32122 0.0
C1819 C 0.69028 0.83887 0.3474 0.0
C1820 C 0.20342 0.85512 0.36673 0.0
C1821 C 0.18957 0.84382 0.36633 0.0
H1822 H 0.21996 0.87231 0.34985 0.0
C1823 C 0.18168 0.84148 0.34767 0.0
H1824 H 0.2099 0.85713 0.38067 0.0
C1825 C 0.18746 0.85022 0.32996 0.0
C1826 C 0.2013 0.86154 0.33039 0.0
H1827 H 0.17091 0.83305 0.34686 0.0
H1828 H 0.18098 0.84822 0.31603 0.0
C1829 C 0.2092 0.86386 0.34903 0.0
C1830 C 0.35576 0.17122 0.18336 0.0
C1831 C 0.35833 0.17658 0.20418 0.0
H1832 H 0.35633 0.17553 0.15011 0.0
C1833 C 0.36348 0.19103 0.20701 0.0
H1834 H 0.35203 0.16023 0.18049 0.0
C1835 C 0.36597 0.19984 0.18954 0.0
C1836 C 0.36335 0.19446 0.16872 0.0
H1837 H 0.36537 0.19552 0.22279 0.0
H1838 H 0.3697 0.21084 0.19239 0.0
C1839 C 0.35825 0.18003 0.16589 0.0
C1840 C 0.85268 0.17147 0.18246 0.0
C1841 C 0.85321 0.1802 0.16577 0.0
H1842 H 0.86083 0.16995 0.21258 0.0
C1843 C 0.86271 0.19468 0.16739 0.0
H1844 H 0.84568 0.16025 0.18163 0.0
C1845 C 0.87144 0.20025 0.18516 0.0
C1846 C 0.87091 0.19152 0.20185 0.0
H1847 H 0.86329 0.20177 0.15503 0.0
H1848 H 0.87844 0.21147 0.18598 0.0
C1849 C 0.8614 0.17704 0.20022 0.0
C1850 C 0.84686 0.6807 0.18441 0.0
C1851 C 0.85514 0.68848 0.20176 0.0
H1852 H 0.84609 0.6715 0.1541 0.0
C1853 C 0.86959 0.69317 0.2012 0.0
H1854 H 0.83567 0.6767 0.18442 0.0
C1855 C 0.87558 0.69016 0.1838 0.0
C1856 C 0.8673 0.68239 0.16644 0.0
H1857 H 0.87635 0.69937 0.21411 0.0
H1858 H 0.88677 0.69417 0.18379 0.0
C1859 C 0.85285 0.67769 0.16701 0.0
C1860 C 0.86072 0.69613 0.6741 0.0
C1861 C 0.85187 0.68248 0.66638 0.0
H1862 H 0.87624 0.70913 0.6969 0.0
C1863 C 0.85234 0.67128 0.67627 0.0
H1864 H 0.86051 0.705 0.66712 0.0
C1865 C 0.8614 0.67367 0.69336 0.0
C1866 C 0.87025 0.68731 0.70107 0.0
H1867 H 0.84588 0.66067 0.67055 0.0
H1868 H 0.86161 0.6648 0.70034 0.0
C1869 C 0.86978 0.69851 0.69119 0.0
C1870 C 0.35597 0.17216 0.6808 0.0
C1871 C 0.36524 0.18087 0.66496 0.0
H1872 H 0.34538 0.17081 0.71 0.0
C1873 C 0.37114 0.19546 0.66713 0.0
H1874 H 0.35102 0.16087 0.67951 0.0
C1875 C 0.36788 0.20117 0.68464 0.0
C1876 C 0.35863 0.19246 0.70049 0.0
H1877 H 0.37848 0.20252 0.65544 0.0
H1878 H 0.37283 0.21246 0.68594 0.0
C1879 C 0.3527 0.17787 0.6983 0.0
C1880 C 0.86678 0.19996 0.68568 0.0
C1881 C 0.86784 0.19453 0.66597 0.0
H1882 H 0.86029 0.19577 0.7182 0.0
C1883 C 0.86311 0.18009 0.66454 0.0
H1884 H 0.87009 0.21096 0.68736 0.0
C1885 C 0.85747 0.17134 0.68228 0.0
C1886 C 0.85641 0.17677 0.70198 0.0
H1887 H 0.86396 0.17554 0.64976 0.0
H1888 H 0.85416 0.16034 0.6806 0.0
C1889 C 0.86114 0.19121 0.70341 0.0
C1890 C 0.68639 0.83779 0.85046 0.0
C1891 C 0.69241 0.84303 0.87048 0.0
H1892 H 0.68449 0.84236 0.818 0.0
C1893 C 0.70167 0.85754 0.87255 0.0
H1894 H 0.67904 0.82674 0.84829 0.0
C1895 C 0.70481 0.86653 0.85513 0.0
C1896 C 0.69879 0.86128 0.83511 0.0
H1897 H 0.70671 0.86196 0.8876 0.0
H1898 H 0.71214 0.87759 0.85729 0.0
C1899 C 0.68953 0.84678 0.83305 0.0
C1900 C 0.18612 0.85575 0.84466 0.0
C1901 C 0.18554 0.84404 0.8347 0.0
H1902 H 0.19543 0.87141 0.86891 0.0
C1903 C 0.1942 0.83904 0.84248 0.0
H1904 H 0.17981 0.86006 0.8389 0.0
C1905 C 0.2032 0.84559 0.85969 0.0
C1906 C 0.2038 0.85731 0.86963 0.0
H1907 H 0.1939 0.82992 0.83546 0.0
H1908 H 0.20953 0.84129 0.86544 0.0
C1909 C 0.19512 0.8623 0.86187 0.0
C1910 C 0.20899 0.35667 0.8495 0.0
C1911 C 0.20051 0.34897 0.83226 0.0
H1912 H 0.21014 0.36588 0.87995 0.0
C1913 C 0.1861 0.34442 0.83318 0.0
H1914 H 0.22016 0.36055 0.84923 0.0
C1915 C 0.18034 0.3475 0.85081 0.0
C1916 C 0.18882 0.3552 0.86805 0.0
H1917 H 0.17919 0.33829 0.82037 0.0
H1918 H 0.16917 0.34361 0.85108 0.0
C1919 C 0.20324 0.35975 0.86713 0.0
C1920 C 1.02298 0.514 0.49616 0.0
C1921 C 0.03219 0.52851 0.49834 0.0
H1922 H 1.01252 0.49391 0.51127 0.0
C1923 C 0.03809 0.53372 0.51842 0.0
H1924 H 1.01803 0.50961 0.48105 0.0
C1925 C 0.03491 0.52469 0.5358 0.0
C1926 C 1.02572 0.51018 0.53361 0.0
H1927 H 0.04538 0.54478 0.52068 0.0
H1928 H 0.03987 0.52908 0.5509 0.0
C1929 C 1.0198 0.50497 0.51353 0.0
C1930 C 0.52823 0.5275 0.50091 0.0
C1931 C 0.51921 0.51297 0.49869 0.0
H1932 H 0.54359 0.54426 0.51996 0.0
C1933 C 0.5192 0.5041 0.51476 0.0
H1934 H 0.52839 0.53469 0.48904 0.0
C1935 C 0.52796 0.50961 0.53251 0.0
C1936 C 0.53697 0.52415 0.53473 0.0
H1937 H 0.51259 0.49285 0.51346 0.0
H1938 H 0.5278 0.50243 0.54438 0.0
C1939 C 0.53699 0.53301 0.51866 0.0
C1940 C 0.51667 1.00813 0.52657 0.0
C1941 C 0.52185 0.02168 0.53499 0.0
H1942 H 0.51896 0.99524 0.50325 0.0
C1943 C 0.53395 0.0328 0.52583 0.0
H1944 H 0.50726 0.99934 0.53298 0.0
C1945 C 0.54069 0.03043 0.50878 0.0
C1946 C 0.53551 1.01688 0.50037 0.0
H1947 H 0.5384 0.04332 0.5321 0.0
H1948 H 0.5501 0.03922 0.50237 0.0
C1949 C 0.52341 1.00577 0.50952 0.0
C1950 C 0.53772 1.01294 0.01895 0.0
C1951 C 0.53834 0.02204 0.03515 0.0
H1952 H 0.52825 1.00254 0.98973 0.0
C1953 C 0.52956 0.02787 0.0336 0.0
H1954 H 0.54412 1.00805 0.01976 0.0
C1955 C 0.52042 0.02469 1.01637 0.0
C1956 C 0.51979 1.01559 1.00018 0.0
H1957 H 0.52989 0.03509 0.04559 0.0
H1958 H 0.51401 0.02958 1.01557 0.0
C1959 C 0.52857 1.00975 1.00172 0.0
C1960 C 0.0415 0.52385 1.00893 0.0
C1961 C 0.03038 0.51169 0.99988 0.0
H1962 H 0.04794 0.54002 0.03236 0.0
C1963 C 1.01687 0.50645 1.00844 0.0
H1964 H 0.05199 0.52834 1.00254 0.0
C1965 C 1.01453 0.51317 0.02554 0.0
C1966 C 1.02564 0.52533 0.03458 0.0
H1967 H 1.00808 0.497 1.00212 0.0
H1968 H 1.00404 0.50868 0.03192 0.0
C1969 C 0.03916 0.53058 0.02603 0.0
C1970 C 0.52366 0.50409 1.01521 0.0
C1971 C 0.52261 0.5095 0.03494 0.0
H1972 H 0.53015 0.50832 0.98269 0.0
C1973 C 0.52735 0.52394 0.03642 0.0
H1974 H 0.52034 0.49308 1.0135 0.0
C1975 C 0.53299 0.53271 0.01871 0.0
C1976 C 0.53404 0.5273 0.99898 0.0
H1977 H 0.52651 0.52847 0.05123 0.0
H1978 H 0.53631 0.54371 0.02043 0.0
C1979 C 0.5293 0.51286 0.9975 0.0
loop_
_geom_bond_atom_site_label_1
_geom_bond_atom_site_label_2
_geom_bond_distance
_geom_bond_site_symmetry_2
_ccdc_geom_bond_type
C0 C1 1.264 . S
C0 C5 1.479 . S
C0 C10 1.465 . S
C1 C0 1.264 . S
C1 C3 1.339 . S
C1 H28 0.931 . S
C2 C3 1.395 . S
C2 C4 1.320 . S
C3 C1 1.339 . S
C3 C2 1.395 . S
C3 H29 0.929 . S
C4 C2 1.320 . S
C4 C5 1.405 . S
C4 H30 0.930 . S
C5 C0 1.479 . S
C5 C4 1.405 . S
C5 H31 0.931 . S
U6 O7 2.454 . S
U6 O8 2.458 . S
U6 C9 2.984 . S
U6 C10 2.847 . S
U6 C23 2.882 . S
U6 O24 2.441 . S
U6 O25 2.420 . S
U6 O26 2.455 . S
U6 O27 2.449 . S
O7 U6 2.454 . S
O7 C9 1.353 . S
O8 U6 2.458 . S
O8 C9 1.286 . S
C9 U6 2.984 . S
C9 O7 1.353 . S
C9 O8 1.286 . S
C9 C11 1.363 . S
C10 C0 1.465 . S
C10 U6 2.847 . S
C10 O24 1.249 . S
C10 O25 1.202 . S
C11 C9 1.363 . S
C11 C13 1.408 . S
C11 C16 1.342 . S
C12 C13 1.310 . S
C12 C15 1.461 . S
C12 H32 0.932 . S
C13 C11 1.408 . S
C13 C12 1.310 . S
C13 H33 0.930 . S
C14 C15 1.474 . S
C14 C16 1.285 . S
C14 H34 0.929 . S
C15 C12 1.461 . S
C15 C14 1.474 . S
C16 C11 1.342 . S
C16 C14 1.285 . S
C16 H35 0.930 . S
C17 C20 1.424 . S
C17 C22 1.245 . S
C17 C23 1.428 . S
C18 C21 1.260 . S
C18 C22 1.477 . S
C18 H36 0.932 . S
C19 C20 1.384 . S
C19 C21 1.479 . S
C19 H37 0.929 . S
C20 C17 1.424 . S
C20 C19 1.384 . S
C20 H38 0.928 . S
C21 C18 1.260 . S
C21 C19 1.479 . S
C22 C17 1.245 . S
C22 C18 1.477 . S
C22 H39 0.932 . S
C23 U6 2.882 . S
C23 C17 1.428 . S
C23 O26 1.301 . S
C23 O27 1.282 . S
O24 U6 2.441 . S
O24 C10 1.249 . S
O25 U6 2.420 . S
O25 C10 1.202 . S
O26 U6 2.455 . S
O26 C23 1.301 . S
O27 U6 2.449 . S
O27 C23 1.282 . S
H28 C1 0.931 . S
H29 C3 0.929 . S
H30 C4 0.930 . S
H31 C5 0.931 . S
H32 C12 0.932 . S
H33 C13 0.930 . S
H34 C14 0.929 . S
H35 C16 0.930 . S
H36 C18 0.932 . S
H37 C19 0.929 . S
H38 C20 0.928 . S
H39 C22 0.932 . S
C40 C41 1.264 . S
C40 C45 1.479 . S
C40 C50 1.465 . S
C41 C40 1.264 . S
C41 C43 1.339 . S
C41 H68 0.931 . S
C42 C43 1.395 . S
C42 C44 1.320 . S
C43 C41 1.339 . S
C43 C42 1.395 . S
C43 H69 0.929 . S
C44 C42 1.320 . S
C44 C45 1.405 . S
C44 H70 0.930 . S
C45 C40 1.479 . S
C45 C44 1.405 . S
C45 H71 0.931 . S
U46 O47 2.454 . S
U46 O48 2.458 . S
U46 C49 2.984 . S
U46 C50 2.847 . S
U46 C63 2.882 . S
U46 O64 2.441 . S
U46 O65 2.420 . S
U46 O66 2.455 . S
U46 O67 2.449 . S
O47 U46 2.454 . S
O47 C49 1.353 . S
O48 U46 2.458 . S
O48 C49 1.286 . S
C49 U46 2.984 . S
C49 O47 1.353 . S
C49 O48 1.286 . S
C49 C51 1.363 . S
C50 C40 1.465 . S
C50 U46 2.847 . S
C50 O64 1.249 . S
C50 O65 1.202 . S
C51 C49 1.363 . S
C51 C53 1.408 . S
C51 C56 1.342 . S
C52 C53 1.310 . S
C52 C55 1.461 . S
C52 H72 0.932 . S
C53 C51 1.408 . S
C53 C52 1.310 . S
C53 H73 0.930 . S
C54 C55 1.474 . S
C54 C56 1.285 . S
C54 H74 0.929 . S
C55 C52 1.461 . S
C55 C54 1.474 . S
C56 C51 1.342 . S
C56 C54 1.285 . S
C56 H75 0.930 . S
C57 C60 1.424 . S
C57 C62 1.245 . S
C57 C63 1.428 . S
C58 C61 1.260 . S
C58 C62 1.477 . S
C58 H76 0.932 . S
C59 C60 1.384 . S
C59 C61 1.479 . S
C59 H77 0.929 . S
C60 C57 1.424 . S
C60 C59 1.384 . S
C60 H78 0.928 . S
C61 C58 1.260 . S
C61 C59 1.479 . S
C62 C57 1.245 . S
C62 C58 1.477 . S
C62 H79 0.932 . S
C63 U46 2.882 . S
C63 C57 1.428 . S
C63 O66 1.301 . S
C63 O67 1.282 . S
O64 U46 2.441 . S
O64 C50 1.249 . S
O65 U46 2.420 . S
O65 C50 1.202 . S
O66 U46 2.455 . S
O66 C63 1.301 . S
O67 U46 2.449 . S
O67 C63 1.282 . S
H68 C41 0.931 . S
H69 C43 0.929 . S
H70 C44 0.930 . S
H71 C45 0.931 . S
H72 C52 0.932 . S
H73 C53 0.930 . S
H74 C54 0.929 . S
H75 C56 0.930 . S
H76 C58 0.932 . S
H77 C59 0.929 . S
H78 C60 0.928 . S
H79 C62 0.932 . S
C80 C81 1.264 . S
C80 C85 1.479 . S
C80 C90 1.465 . S
C81 C80 1.264 . S
C81 C83 1.339 . S
C81 H108 0.931 . S
C82 C83 1.395 . S
C82 C84 1.320 . S
C83 C81 1.339 . S
C83 C82 1.395 . S
C83 H109 0.929 . S
C84 C82 1.320 . S
C84 C85 1.405 . S
C84 H110 0.930 . S
C85 C80 1.479 . S
C85 C84 1.405 . S
C85 H111 0.931 . S
U86 O87 2.454 . S
U86 O88 2.458 . S
U86 C89 2.984 . S
U86 C90 2.847 . S
U86 C103 2.882 . S
U86 O104 2.441 . S
U86 O105 2.420 . S
U86 O106 2.455 . S
U86 O107 2.449 . S
O87 U86 2.454 . S
O87 C89 1.353 . S
O88 U86 2.458 . S
O88 C89 1.286 . S
C89 U86 2.984 . S
C89 O87 1.353 . S
C89 O88 1.286 . S
C89 C91 1.363 . S
C90 C80 1.465 . S
C90 U86 2.847 . S
C90 O104 1.249 . S
C90 O105 1.202 . S
C91 C89 1.363 . S
C91 C93 1.408 . S
C91 C96 1.342 . S
C92 C93 1.310 . S
C92 C95 1.461 . S
C92 H112 0.932 . S
C93 C91 1.408 . S
C93 C92 1.310 . S
C93 H113 0.930 . S
C94 C95 1.474 . S
C94 C96 1.285 . S
C94 H114 0.929 . S
C95 C92 1.461 . S
C95 C94 1.474 . S
C96 C91 1.342 . S
C96 C94 1.285 . S
C96 H115 0.930 . S
C97 C100 1.424 . S
C97 C102 1.245 . S
C97 C103 1.428 . S
C98 C101 1.260 . S
C98 C102 1.477 . S
C98 H116 0.932 . S
C99 C100 1.384 . S
C99 C101 1.479 . S
C99 H117 0.929 . S
C100 C97 1.424 . S
C100 C99 1.384 . S
C100 H118 0.928 . S
C101 C98 1.260 . S
C101 C99 1.479 . S
C102 C97 1.245 . S
C102 C98 1.477 . S
C102 H119 0.932 . S
C103 U86 2.882 . S
C103 C97 1.428 . S
C103 O106 1.301 . S
C103 O107 1.282 . S
O104 U86 2.441 . S
O104 C90 1.249 . S
O105 U86 2.420 . S
O105 C90 1.202 . S
O106 U86 2.455 . S
O106 C103 1.301 . S
O107 U86 2.449 . S
O107 C103 1.282 . S
H108 C81 0.931 . S
H109 C83 0.929 . S
H110 C84 0.930 . S
H111 C85 0.931 . S
H112 C92 0.932 . S
H113 C93 0.930 . S
H114 C94 0.929 . S
H115 C96 0.930 . S
H116 C98 0.932 . S
H117 C99 0.929 . S
H118 C100 0.928 . S
H119 C102 0.932 . S
C120 C121 1.264 . S
C120 C125 1.479 . S
C120 C130 1.465 . S
C121 C120 1.264 . S
C121 C123 1.339 . S
C121 H148 0.931 . S
C122 C123 1.395 . S
C122 C124 1.320 . S
C123 C121 1.339 . S
C123 C122 1.395 . S
C123 H149 0.929 . S
C124 C122 1.320 . S
C124 C125 1.405 . S
C124 H150 0.930 . S
C125 C120 1.479 . S
C125 C124 1.405 . S
C125 H151 0.931 . S
U126 O127 2.454 . S
U126 O128 2.458 . S
U126 C129 2.984 . S
U126 C130 2.847 . S
U126 C143 2.882 . S
U126 O144 2.441 . S
U126 O145 2.420 . S
U126 O146 2.455 . S
U126 O147 2.449 . S
O127 U126 2.454 . S
O127 C129 1.353 . S
O128 U126 2.458 . S
O128 C129 1.286 . S
C129 U126 2.984 . S
C129 O127 1.353 . S
C129 O128 1.286 . S
C129 C131 1.363 . S
C130 C120 1.465 . S
C130 U126 2.847 . S
C130 O144 1.249 . S
C130 O145 1.202 . S
C131 C129 1.363 . S
C131 C133 1.408 . S
C131 C136 1.342 . S
C132 C133 1.310 . S
C132 C135 1.461 . S
C132 H152 0.932 . S
C133 C131 1.408 . S
C133 C132 1.310 . S
C133 H153 0.930 . S
C134 C135 1.474 . S
C134 C136 1.285 . S
C134 H154 0.929 . S
C135 C132 1.461 . S
C135 C134 1.474 . S
C136 C131 1.342 . S
C136 C134 1.285 . S
C136 H155 0.930 . S
C137 C140 1.424 . S
C137 C142 1.245 . S
C137 C143 1.428 . S
C138 C141 1.260 . S
C138 C142 1.477 . S
C138 H156 0.932 . S
C139 C140 1.384 . S
C139 C141 1.479 . S
C139 H157 0.929 . S
C140 C137 1.424 . S
C140 C139 1.384 . S
C140 H158 0.928 . S
C141 C138 1.260 . S
C141 C139 1.479 . S
C142 C137 1.245 . S
C142 C138 1.477 . S
C142 H159 0.932 . S
C143 U126 2.882 . S
C143 C137 1.428 . S
C143 O146 1.301 . S
C143 O147 1.282 . S
O144 U126 2.441 . S
O144 C130 1.249 . S
O145 U126 2.420 . S
O145 C130 1.202 . S
O146 U126 2.455 . S
O146 C143 1.301 . S
O147 U126 2.449 . S
O147 C143 1.282 . S
H148 C121 0.931 . S
H149 C123 0.929 . S
H150 C124 0.930 . S
H151 C125 0.931 . S
H152 C132 0.932 . S
H153 C133 0.930 . S
H154 C134 0.929 . S
H155 C136 0.930 . S
H156 C138 0.932 . S
H157 C139 0.929 . S
H158 C140 0.928 . S
H159 C142 0.932 . S
C160 C161 1.264 . S
C160 C165 1.479 . S
C160 C170 1.465 . S
C161 C160 1.264 . S
C161 C163 1.339 . S
C161 H188 0.931 . S
C162 C163 1.395 . S
C162 C164 1.320 . S
C163 C161 1.339 . S
C163 C162 1.395 . S
C163 H189 0.929 . S
C164 C162 1.320 . S
C164 C165 1.405 . S
C164 H190 0.930 . S
C165 C160 1.479 . S
C165 C164 1.405 . S
C165 H191 0.931 . S
U166 O167 2.454 . S
U166 O168 2.458 . S
U166 C169 2.984 . S
U166 C170 2.847 . S
U166 C183 2.882 . S
U166 O184 2.441 . S
U166 O185 2.420 . S
U166 O186 2.455 . S
U166 O187 2.449 . S
O167 U166 2.454 . S
O167 C169 1.353 . S
O168 U166 2.458 . S
O168 C169 1.286 . S
C169 U166 2.984 . S
C169 O167 1.353 . S
C169 O168 1.286 . S
C169 C171 1.363 . S
C170 C160 1.465 . S
C170 U166 2.847 . S
C170 O184 1.249 . S
C170 O185 1.202 . S
C171 C169 1.363 . S
C171 C173 1.408 . S
C171 C176 1.342 . S
C172 C173 1.310 . S
C172 C175 1.461 . S
C172 H192 0.932 . S
C173 C171 1.408 . S
C173 C172 1.310 . S
C173 H193 0.930 . S
C174 C175 1.474 . S
C174 C176 1.285 . S
C174 H194 0.929 . S
C175 C172 1.461 . S
C175 C174 1.474 . S
C176 C171 1.342 . S
C176 C174 1.285 . S
C176 H195 0.930 . S
C177 C180 1.424 . S
C177 C182 1.245 . S
C177 C183 1.428 . S
C178 C181 1.260 . S
C178 C182 1.477 . S
C178 H196 0.932 . S
C179 C180 1.384 . S
C179 C181 1.479 . S
C179 H197 0.929 . S
C180 C177 1.424 . S
C180 C179 1.384 . S
C180 H198 0.928 . S
C181 C178 1.260 . S
C181 C179 1.479 . S
C182 C177 1.245 . S
C182 C178 1.477 . S
C182 H199 0.932 . S
C183 U166 2.882 . S
C183 C177 1.428 . S
C183 O186 1.301 . S
C183 O187 1.282 . S
O184 U166 2.441 . S
O184 C170 1.249 . S
O185 U166 2.420 . S
O185 C170 1.202 . S
O186 U166 2.455 . S
O186 C183 1.301 . S
O187 U166 2.449 . S
O187 C183 1.282 . S
H188 C161 0.931 . S
H189 C163 0.929 . S
H190 C164 0.930 . S
H191 C165 0.931 . S
H192 C172 0.932 . S
H193 C173 0.930 . S
H194 C174 0.929 . S
H195 C176 0.930 . S
H196 C178 0.932 . S
H197 C179 0.929 . S
H198 C180 0.928 . S
H199 C182 0.932 . S
C200 C201 1.264 . S
C200 C205 1.479 . S
C200 C210 1.465 . S
C201 C200 1.264 . S
C201 C203 1.339 . S
C201 H228 0.931 . S
C202 C203 1.395 . S
C202 C204 1.320 . S
C203 C201 1.339 . S
C203 C202 1.395 . S
C203 H229 0.929 . S
C204 C202 1.320 . S
C204 C205 1.405 . S
C204 H230 0.930 . S
C205 C200 1.479 . S
C205 C204 1.405 . S
C205 H231 0.931 . S
U206 O207 2.454 . S
U206 O208 2.458 . S
U206 C209 2.984 . S
U206 C210 2.847 . S
U206 C223 2.882 . S
U206 O224 2.441 . S
U206 O225 2.420 . S
U206 O226 2.455 . S
U206 O227 2.449 . S
O207 U206 2.454 . S
O207 C209 1.353 . S
O208 U206 2.458 . S
O208 C209 1.286 . S
C209 U206 2.984 . S
C209 O207 1.353 . S
C209 O208 1.286 . S
C209 C211 1.363 . S
C210 C200 1.465 . S
C210 U206 2.847 . S
C210 O224 1.249 . S
C210 O225 1.202 . S
C211 C209 1.363 . S
C211 C213 1.408 . S
C211 C216 1.342 . S
C212 C213 1.310 . S
C212 C215 1.461 . S
C212 H232 0.932 . S
C213 C211 1.408 . S
C213 C212 1.310 . S
C213 H233 0.930 . S
C214 C215 1.474 . S
C214 C216 1.285 . S
C214 H234 0.929 . S
C215 C212 1.461 . S
C215 C214 1.474 . S
C216 C211 1.342 . S
C216 C214 1.285 . S
C216 H235 0.930 . S
C217 C220 1.424 . S
C217 C222 1.245 . S
C217 C223 1.428 . S
C218 C221 1.260 . S
C218 C222 1.477 . S
C218 H236 0.932 . S
C219 C220 1.384 . S
C219 C221 1.479 . S
C219 H237 0.929 . S
C220 C217 1.424 . S
C220 C219 1.384 . S
C220 H238 0.928 . S
C221 C218 1.260 . S
C221 C219 1.479 . S
C222 C217 1.245 . S
C222 C218 1.477 . S
C222 H239 0.932 . S
C223 U206 2.882 . S
C223 C217 1.428 . S
C223 O226 1.301 . S
C223 O227 1.282 . S
O224 U206 2.441 . S
O224 C210 1.249 . S
O225 U206 2.420 . S
O225 C210 1.202 . S
O226 U206 2.455 . S
O226 C223 1.301 . S
O227 U206 2.449 . S
O227 C223 1.282 . S
H228 C201 0.931 . S
H229 C203 0.929 . S
H230 C204 0.930 . S
H231 C205 0.931 . S
H232 C212 0.932 . S
H233 C213 0.930 . S
H234 C214 0.929 . S
H235 C216 0.930 . S
H236 C218 0.932 . S
H237 C219 0.929 . S
H238 C220 0.928 . S
H239 C222 0.932 . S
C240 C241 1.264 . S
C240 C245 1.479 . S
C240 C250 1.465 . S
C241 C240 1.264 . S
C241 C243 1.339 . S
C241 H268 0.931 . S
C242 C243 1.395 . S
C242 C244 1.320 . S
C243 C241 1.339 . S
C243 C242 1.395 . S
C243 H269 0.929 . S
C244 C242 1.320 . S
C244 C245 1.405 . S
C244 H270 0.930 . S
C245 C240 1.479 . S
C245 C244 1.405 . S
C245 H271 0.931 . S
U246 O247 2.454 . S
U246 O248 2.458 . S
U246 C249 2.984 . S
U246 C250 2.847 . S
U246 C263 2.882 . S
U246 O264 2.441 . S
U246 O265 2.420 . S
U246 O266 2.455 . S
U246 O267 2.449 . S
O247 U246 2.454 . S
O247 C249 1.353 . S
O248 U246 2.458 . S
O248 C249 1.286 . S
C249 U246 2.984 . S
C249 O247 1.353 . S
C249 O248 1.286 . S
C249 C251 1.363 . S
C250 C240 1.465 . S
C250 U246 2.847 . S
C250 O264 1.249 . S
C250 O265 1.202 . S
C251 C249 1.363 . S
C251 C253 1.408 . S
C251 C256 1.342 . S
C252 C253 1.310 . S
C252 C255 1.461 . S
C252 H272 0.932 . S
C253 C251 1.408 . S
C253 C252 1.310 . S
C253 H273 0.930 . S
C254 C255 1.474 . S
C254 C256 1.285 . S
C254 H274 0.929 . S
C255 C252 1.461 . S
C255 C254 1.474 . S
C256 C251 1.342 . S
C256 C254 1.285 . S
C256 H275 0.930 . S
C257 C260 1.424 . S
C257 C262 1.245 . S
C257 C263 1.428 . S
C258 C261 1.260 . S
C258 C262 1.477 . S
C258 H276 0.932 . S
C259 C260 1.384 . S
C259 C261 1.479 . S
C259 H277 0.929 . S
C260 C257 1.424 . S
C260 C259 1.384 . S
C260 H278 0.928 . S
C261 C258 1.260 . S
C261 C259 1.479 . S
C262 C257 1.245 . S
C262 C258 1.477 . S
C262 H279 0.932 . S
C263 U246 2.882 . S
C263 C257 1.428 . S
C263 O266 1.301 . S
C263 O267 1.282 . S
O264 U246 2.441 . S
O264 C250 1.249 . S
O265 U246 2.420 . S
O265 C250 1.202 . S
O266 U246 2.455 . S
O266 C263 1.301 . S
O267 U246 2.449 . S
O267 C263 1.282 . S
H268 C241 0.931 . S
H269 C243 0.929 . S
H270 C244 0.930 . S
H271 C245 0.931 . S
H272 C252 0.932 . S
H273 C253 0.930 . S
H274 C254 0.929 . S
H275 C256 0.930 . S
H276 C258 0.932 . S
H277 C259 0.929 . S
H278 C260 0.928 . S
H279 C262 0.932 . S
C280 C281 1.264 . S
C280 C285 1.479 . S
C280 C290 1.465 . S
C281 C280 1.264 . S
C281 C283 1.339 . S
C281 H308 0.931 . S
C282 C283 1.395 . S
C282 C284 1.320 . S
C283 C281 1.339 . S
C283 C282 1.395 . S
C283 H309 0.929 . S
C284 C282 1.320 . S
C284 C285 1.405 . S
C284 H310 0.930 . S
C285 C280 1.479 . S
C285 C284 1.405 . S
C285 H311 0.931 . S
U286 O287 2.454 . S
U286 O288 2.458 . S
U286 C289 2.984 . S
U286 C290 2.847 . S
U286 C303 2.882 . S
U286 O304 2.441 . S
U286 O305 2.420 . S
U286 O306 2.455 . S
U286 O307 2.449 . S
O287 U286 2.454 . S
O287 C289 1.353 . S
O288 U286 2.458 . S
O288 C289 1.286 . S
C289 U286 2.984 . S
C289 O287 1.353 . S
C289 O288 1.286 . S
C289 C291 1.363 . S
C290 C280 1.465 . S
C290 U286 2.847 . S
C290 O304 1.249 . S
C290 O305 1.202 . S
C291 C289 1.363 . S
C291 C293 1.408 . S
C291 C296 1.342 . S
C292 C293 1.310 . S
C292 C295 1.461 . S
C292 H312 0.932 . S
C293 C291 1.408 . S
C293 C292 1.310 . S
C293 H313 0.930 . S
C294 C295 1.474 . S
C294 C296 1.285 . S
C294 H314 0.929 . S
C295 C292 1.461 . S
C295 C294 1.474 . S
C296 C291 1.342 . S
C296 C294 1.285 . S
C296 H315 0.930 . S
C297 C300 1.424 . S
C297 C302 1.245 . S
C297 C303 1.428 . S
C298 C301 1.260 . S
C298 C302 1.477 . S
C298 H316 0.932 . S
C299 C300 1.384 . S
C299 C301 1.479 . S
C299 H317 0.929 . S
C300 C297 1.424 . S
C300 C299 1.384 . S
C300 H318 0.928 . S
C301 C298 1.260 . S
C301 C299 1.479 . S
C302 C297 1.245 . S
C302 C298 1.477 . S
C302 H319 0.932 . S
C303 U286 2.882 . S
C303 C297 1.428 . S
C303 O306 1.301 . S
C303 O307 1.282 . S
O304 U286 2.441 . S
O304 C290 1.249 . S
O305 U286 2.420 . S
O305 C290 1.202 . S
O306 U286 2.455 . S
O306 C303 1.301 . S
O307 U286 2.449 . S
O307 C303 1.282 . S
H308 C281 0.931 . S
H309 C283 0.929 . S
H310 C284 0.930 . S
H311 C285 0.931 . S
H312 C292 0.932 . S
H313 C293 0.930 . S
H314 C294 0.929 . S
H315 C296 0.930 . S
H316 C298 0.932 . S
H317 C299 0.929 . S
H318 C300 0.928 . S
H319 C302 0.932 . S
C320 C321 1.264 . S
C320 C325 1.479 . S
C320 C330 1.465 . S
C321 C320 1.264 . S
C321 C323 1.339 . S
C321 H348 0.931 . S
C322 C323 1.395 . S
C322 C324 1.320 . S
C323 C321 1.339 . S
C323 C322 1.395 . S
C323 H349 0.929 . S
C324 C322 1.320 . S
C324 C325 1.405 . S
C324 H350 0.930 . S
C325 C320 1.479 . S
C325 C324 1.405 . S
C325 H351 0.931 . S
U326 O327 2.454 . S
U326 O328 2.458 . S
U326 C329 2.984 . S
U326 C330 2.847 . S
U326 C343 2.882 . S
U326 O344 2.441 . S
U326 O345 2.420 . S
U326 O346 2.455 . S
U326 O347 2.449 . S
O327 U326 2.454 . S
O327 C329 1.353 . S
O328 U326 2.458 . S
O328 C329 1.286 . S
C329 U326 2.984 . S
C329 O327 1.353 . S
C329 O328 1.286 . S
C329 C331 1.363 . S
C330 C320 1.465 . S
C330 U326 2.847 . S
C330 O344 1.249 . S
C330 O345 1.202 . S
C331 C329 1.363 . S
C331 C333 1.408 . S
C331 C336 1.342 . S
C332 C333 1.310 . S
C332 C335 1.461 . S
C332 H352 0.932 . S
C333 C331 1.408 . S
C333 C332 1.310 . S
C333 H353 0.930 . S
C334 C335 1.474 . S
C334 C336 1.285 . S
C334 H354 0.929 . S
C335 C332 1.461 . S
C335 C334 1.474 . S
C336 C331 1.342 . S
C336 C334 1.285 . S
C336 H355 0.930 . S
C337 C340 1.424 . S
C337 C342 1.245 . S
C337 C343 1.428 . S
C338 C341 1.260 . S
C338 C342 1.477 . S
C338 H356 0.932 . S
C339 C340 1.384 . S
C339 C341 1.479 . S
C339 H357 0.929 . S
C340 C337 1.424 . S
C340 C339 1.384 . S
C340 H358 0.928 . S
C341 C338 1.260 . S
C341 C339 1.479 . S
C342 C337 1.245 . S
C342 C338 1.477 . S
C342 H359 0.932 . S
C343 U326 2.882 . S
C343 C337 1.428 . S
C343 O346 1.301 . S
C343 O347 1.282 . S
O344 U326 2.441 . S
O344 C330 1.249 . S
O345 U326 2.420 . S
O345 C330 1.202 . S
O346 U326 2.455 . S
O346 C343 1.301 . S
O347 U326 2.449 . S
O347 C343 1.282 . S
H348 C321 0.931 . S
H349 C323 0.929 . S
H350 C324 0.930 . S
H351 C325 0.931 . S
H352 C332 0.932 . S
H353 C333 0.930 . S
H354 C334 0.929 . S
H355 C336 0.930 . S
H356 C338 0.932 . S
H357 C339 0.929 . S
H358 C340 0.928 . S
H359 C342 0.932 . S
C360 C361 1.264 . S
C360 C365 1.479 . S
C360 C370 1.465 . S
C361 C360 1.264 . S
C361 C363 1.339 . S
C361 H388 0.931 . S
C362 C363 1.395 . S
C362 C364 1.320 . S
C363 C361 1.339 . S
C363 C362 1.395 . S
C363 H389 0.929 . S
C364 C362 1.320 . S
C364 C365 1.405 . S
C364 H390 0.930 . S
C365 C360 1.479 . S
C365 C364 1.405 . S
C365 H391 0.931 . S
U366 O367 2.454 . S
U366 O368 2.458 . S
U366 C369 2.984 . S
U366 C370 2.847 . S
U366 C383 2.882 . S
U366 O384 2.441 . S
U366 O385 2.420 . S
U366 O386 2.455 . S
U366 O387 2.449 . S
O367 U366 2.454 . S
O367 C369 1.353 . S
O368 U366 2.458 . S
O368 C369 1.286 . S
C369 U366 2.984 . S
C369 O367 1.353 . S
C369 O368 1.286 . S
C369 C371 1.363 . S
C370 C360 1.465 . S
C370 U366 2.847 . S
C370 O384 1.249 . S
C370 O385 1.202 . S
C371 C369 1.363 . S
C371 C373 1.408 . S
C371 C376 1.342 . S
C372 C373 1.310 . S
C372 C375 1.461 . S
C372 H392 0.932 . S
C373 C371 1.408 . S
C373 C372 1.310 . S
C373 H393 0.930 . S
C374 C375 1.474 . S
C374 C376 1.285 . S
C374 H394 0.929 . S
C375 C372 1.461 . S
C375 C374 1.474 . S
C376 C371 1.342 . S
C376 C374 1.285 . S
C376 H395 0.930 . S
C377 C380 1.424 . S
C377 C382 1.245 . S
C377 C383 1.428 . S
C378 C381 1.260 . S
C378 C382 1.477 . S
C378 H396 0.932 . S
C379 C380 1.384 . S
C379 C381 1.479 . S
C379 H397 0.929 . S
C380 C377 1.424 . S
C380 C379 1.384 . S
C380 H398 0.928 . S
C381 C378 1.260 . S
C381 C379 1.479 . S
C382 C377 1.245 . S
C382 C378 1.477 . S
C382 H399 0.932 . S
C383 U366 2.882 . S
C383 C377 1.428 . S
C383 O386 1.301 . S
C383 O387 1.282 . S
O384 U366 2.441 . S
O384 C370 1.249 . S
O385 U366 2.420 . S
O385 C370 1.202 . S
O386 U366 2.455 . S
O386 C383 1.301 . S
O387 U366 2.449 . S
O387 C383 1.282 . S
H388 C361 0.931 . S
H389 C363 0.929 . S
H390 C364 0.930 . S
H391 C365 0.931 . S
H392 C372 0.932 . S
H393 C373 0.930 . S
H394 C374 0.929 . S
H395 C376 0.930 . S
H396 C378 0.932 . S
H397 C379 0.929 . S
H398 C380 0.928 . S
H399 C382 0.932 . S
C400 C401 1.264 . S
C400 C405 1.479 . S
C400 C410 1.465 . S
C401 C400 1.264 . S
C401 C403 1.339 . S
C401 H428 0.931 . S
C402 C403 1.395 . S
C402 C404 1.320 . S
C403 C401 1.339 . S
C403 C402 1.395 . S
C403 H429 0.929 . S
C404 C402 1.320 . S
C404 C405 1.405 . S
C404 H430 0.930 . S
C405 C400 1.479 . S
C405 C404 1.405 . S
C405 H431 0.931 . S
U406 O407 2.454 . S
U406 O408 2.458 . S
U406 C409 2.984 . S
U406 C410 2.847 . S
U406 C423 2.882 . S
U406 O424 2.441 . S
U406 O425 2.420 . S
U406 O426 2.455 . S
U406 O427 2.449 . S
O407 U406 2.454 . S
O407 C409 1.353 . S
O408 U406 2.458 . S
O408 C409 1.286 . S
C409 U406 2.984 . S
C409 O407 1.353 . S
C409 O408 1.286 . S
C409 C411 1.363 . S
C410 C400 1.465 . S
C410 U406 2.847 . S
C410 O424 1.249 . S
C410 O425 1.202 . S
C411 C409 1.363 . S
C411 C413 1.408 . S
C411 C416 1.342 . S
C412 C413 1.310 . S
C412 C415 1.461 . S
C412 H432 0.932 . S
C413 C411 1.408 . S
C413 C412 1.310 . S
C413 H433 0.930 . S
C414 C415 1.474 . S
C414 C416 1.285 . S
C414 H434 0.929 . S
C415 C412 1.461 . S
C415 C414 1.474 . S
C416 C411 1.342 . S
C416 C414 1.285 . S
C416 H435 0.930 . S
C417 C420 1.424 . S
C417 C422 1.245 . S
C417 C423 1.428 . S
C418 C421 1.260 . S
C418 C422 1.477 . S
C418 H436 0.932 . S
C419 C420 1.384 . S
C419 C421 1.479 . S
C419 H437 0.929 . S
C420 C417 1.424 . S
C420 C419 1.384 . S
C420 H438 0.928 . S
C421 C418 1.260 . S
C421 C419 1.479 . S
C422 C417 1.245 . S
C422 C418 1.477 . S
C422 H439 0.932 . S
C423 U406 2.882 . S
C423 C417 1.428 . S
C423 O426 1.301 . S
C423 O427 1.282 . S
O424 U406 2.441 . S
O424 C410 1.249 . S
O425 U406 2.420 . S
O425 C410 1.202 . S
O426 U406 2.455 . S
O426 C423 1.301 . S
O427 U406 2.449 . S
O427 C423 1.282 . S
H428 C401 0.931 . S
H429 C403 0.929 . S
H430 C404 0.930 . S
H431 C405 0.931 . S
H432 C412 0.932 . S
H433 C413 0.930 . S
H434 C414 0.929 . S
H435 C416 0.930 . S
H436 C418 0.932 . S
H437 C419 0.929 . S
H438 C420 0.928 . S
H439 C422 0.932 . S
C440 C441 1.264 . S
C440 C445 1.479 . S
C440 C450 1.465 . S
C441 C440 1.264 . S
C441 C443 1.339 . S
C441 H468 0.931 . S
C442 C443 1.395 . S
C442 C444 1.320 . S
C443 C441 1.339 . S
C443 C442 1.395 . S
C443 H469 0.929 . S
C444 C442 1.320 . S
C444 C445 1.405 . S
C444 H470 0.930 . S
C445 C440 1.479 . S
C445 C444 1.405 . S
C445 H471 0.931 . S
U446 O447 2.454 . S
U446 O448 2.458 . S
U446 C449 2.984 . S
U446 C450 2.847 . S
U446 C463 2.882 . S
U446 O464 2.441 . S
U446 O465 2.420 . S
U446 O466 2.455 . S
U446 O467 2.449 . S
O447 U446 2.454 . S
O447 C449 1.353 . S
O448 U446 2.458 . S
O448 C449 1.286 . S
C449 U446 2.984 . S
C449 O447 1.353 . S
C449 O448 1.286 . S
C449 C451 1.363 . S
C450 C440 1.465 . S
C450 U446 2.847 . S
C450 O464 1.249 . S
C450 O465 1.202 . S
C451 C449 1.363 . S
C451 C453 1.408 . S
C451 C456 1.342 . S
C452 C453 1.310 . S
C452 C455 1.461 . S
C452 H472 0.932 . S
C453 C451 1.408 . S
C453 C452 1.310 . S
C453 H473 0.930 . S
C454 C455 1.474 . S
C454 C456 1.285 . S
C454 H474 0.929 . S
C455 C452 1.461 . S
C455 C454 1.474 . S
C456 C451 1.342 . S
C456 C454 1.285 . S
C456 H475 0.930 . S
C457 C460 1.424 . S
C457 C462 1.245 . S
C457 C463 1.428 . S
C458 C461 1.260 . S
C458 C462 1.477 . S
C458 H476 0.932 . S
C459 C460 1.384 . S
C459 C461 1.479 . S
C459 H477 0.929 . S
C460 C457 1.424 . S
C460 C459 1.384 . S
C460 H478 0.928 . S
C461 C458 1.260 . S
C461 C459 1.479 . S
C462 C457 1.245 . S
C462 C458 1.477 . S
C462 H479 0.932 . S
C463 U446 2.882 . S
C463 C457 1.428 . S
C463 O466 1.301 . S
C463 O467 1.282 . S
O464 U446 2.441 . S
O464 C450 1.249 . S
O465 U446 2.420 . S
O465 C450 1.202 . S
O466 U446 2.455 . S
O466 C463 1.301 . S
O467 U446 2.449 . S
O467 C463 1.282 . S
H468 C441 0.931 . S
H469 C443 0.929 . S
H470 C444 0.930 . S
H471 C445 0.931 . S
H472 C452 0.932 . S
H473 C453 0.930 . S
H474 C454 0.929 . S
H475 C456 0.930 . S
H476 C458 0.932 . S
H477 C459 0.929 . S
H478 C460 0.928 . S
H479 C462 0.932 . S
C480 C481 1.264 . S
C480 C485 1.479 . S
C480 C490 1.465 . S
C481 C480 1.264 . S
C481 C483 1.339 . S
C481 H508 0.931 . S
C482 C483 1.395 . S
C482 C484 1.320 . S
C483 C481 1.339 . S
C483 C482 1.395 . S
C483 H509 0.929 . S
C484 C482 1.320 . S
C484 C485 1.405 . S
C484 H510 0.930 . S
C485 C480 1.479 . S
C485 C484 1.405 . S
C485 H511 0.931 . S
U486 O487 2.454 . S
U486 O488 2.458 . S
U486 C489 2.984 . S
U486 C490 2.847 . S
U486 C503 2.882 . S
U486 O504 2.441 . S
U486 O505 2.420 . S
U486 O506 2.455 . S
U486 O507 2.449 . S
O487 U486 2.454 . S
O487 C489 1.353 . S
O488 U486 2.458 . S
O488 C489 1.286 . S
C489 U486 2.984 . S
C489 O487 1.353 . S
C489 O488 1.286 . S
C489 C491 1.363 . S
C490 C480 1.465 . S
C490 U486 2.847 . S
C490 O504 1.249 . S
C490 O505 1.202 . S
C491 C489 1.363 . S
C491 C493 1.408 . S
C491 C496 1.342 . S
C492 C493 1.310 . S
C492 C495 1.461 . S
C492 H512 0.932 . S
C493 C491 1.408 . S
C493 C492 1.310 . S
C493 H513 0.930 . S
C494 C495 1.474 . S
C494 C496 1.285 . S
C494 H514 0.929 . S
C495 C492 1.461 . S
C495 C494 1.474 . S
C496 C491 1.342 . S
C496 C494 1.285 . S
C496 H515 0.930 . S
C497 C500 1.424 . S
C497 C502 1.245 . S
C497 C503 1.428 . S
C498 C501 1.260 . S
C498 C502 1.477 . S
C498 H516 0.932 . S
C499 C500 1.384 . S
C499 C501 1.479 . S
C499 H517 0.929 . S
C500 C497 1.424 . S
C500 C499 1.384 . S
C500 H518 0.928 . S
C501 C498 1.260 . S
C501 C499 1.479 . S
C502 C497 1.245 . S
C502 C498 1.477 . S
C502 H519 0.932 . S
C503 U486 2.882 . S
C503 C497 1.428 . S
C503 O506 1.301 . S
C503 O507 1.282 . S
O504 U486 2.441 . S
O504 C490 1.249 . S
O505 U486 2.420 . S
O505 C490 1.202 . S
O506 U486 2.455 . S
O506 C503 1.301 . S
O507 U486 2.449 . S
O507 C503 1.282 . S
H508 C481 0.931 . S
H509 C483 0.929 . S
H510 C484 0.930 . S
H511 C485 0.931 . S
H512 C492 0.932 . S
H513 C493 0.930 . S
H514 C494 0.929 . S
H515 C496 0.930 . S
H516 C498 0.932 . S
H517 C499 0.929 . S
H518 C500 0.928 . S
H519 C502 0.932 . S
C520 C521 1.264 . S
C520 C525 1.479 . S
C520 C530 1.465 . S
C521 C520 1.264 . S
C521 C523 1.339 . S
C521 H548 0.931 . S
C522 C523 1.395 . S
C522 C524 1.320 . S
C523 C521 1.339 . S
C523 C522 1.395 . S
C523 H549 0.929 . S
C524 C522 1.320 . S
C524 C525 1.405 . S
C524 H550 0.930 . S
C525 C520 1.479 . S
C525 C524 1.405 . S
C525 H551 0.931 . S
U526 O527 2.454 . S
U526 O528 2.458 . S
U526 C529 2.984 . S
U526 C530 2.847 . S
U526 C543 2.882 . S
U526 O544 2.441 . S
U526 O545 2.420 . S
U526 O546 2.455 . S
U526 O547 2.449 . S
O527 U526 2.454 . S
O527 C529 1.353 . S
O528 U526 2.458 . S
O528 C529 1.286 . S
C529 U526 2.984 . S
C529 O527 1.353 . S
C529 O528 1.286 . S
C529 C531 1.363 . S
C530 C520 1.465 . S
C530 U526 2.847 . S
C530 O544 1.249 . S
C530 O545 1.202 . S
C531 C529 1.363 . S
C531 C533 1.408 . S
C531 C536 1.342 . S
C532 C533 1.310 . S
C532 C535 1.461 . S
C532 H552 0.932 . S
C533 C531 1.408 . S
C533 C532 1.310 . S
C533 H553 0.930 . S
C534 C535 1.474 . S
C534 C536 1.285 . S
C534 H554 0.929 . S
C535 C532 1.461 . S
C535 C534 1.474 . S
C536 C531 1.342 . S
C536 C534 1.285 . S
C536 H555 0.930 . S
C537 C540 1.424 . S
C537 C542 1.245 . S
C537 C543 1.428 . S
C538 C541 1.260 . S
C538 C542 1.477 . S
C538 H556 0.932 . S
C539 C540 1.384 . S
C539 C541 1.479 . S
C539 H557 0.929 . S
C540 C537 1.424 . S
C540 C539 1.384 . S
C540 H558 0.928 . S
C541 C538 1.260 . S
C541 C539 1.479 . S
C542 C537 1.245 . S
C542 C538 1.477 . S
C542 H559 0.932 . S
C543 U526 2.882 . S
C543 C537 1.428 . S
C543 O546 1.301 . S
C543 O547 1.282 . S
O544 U526 2.441 . S
O544 C530 1.249 . S
O545 U526 2.420 . S
O545 C530 1.202 . S
O546 U526 2.455 . S
O546 C543 1.301 . S
O547 U526 2.449 . S
O547 C543 1.282 . S
H548 C521 0.931 . S
H549 C523 0.929 . S
H550 C524 0.930 . S
H551 C525 0.931 . S
H552 C532 0.932 . S
H553 C533 0.930 . S
H554 C534 0.929 . S
H555 C536 0.930 . S
H556 C538 0.932 . S
H557 C539 0.929 . S
H558 C540 0.928 . S
H559 C542 0.932 . S
C560 C561 1.264 . S
C560 C565 1.479 . S
C560 C570 1.465 . S
C561 C560 1.264 . S
C561 C563 1.339 . S
C561 H588 0.931 . S
C562 C563 1.395 . S
C562 C564 1.320 . S
C563 C561 1.339 . S
C563 C562 1.395 . S
C563 H589 0.929 . S
C564 C562 1.320 . S
C564 C565 1.405 . S
C564 H590 0.930 . S
C565 C560 1.479 . S
C565 C564 1.405 . S
C565 H591 0.931 . S
U566 O567 2.454 . S
U566 O568 2.458 . S
U566 C569 2.984 . S
U566 C570 2.847 . S
U566 C583 2.882 . S
U566 O584 2.441 . S
U566 O585 2.420 . S
U566 O586 2.455 . S
U566 O587 2.449 . S
O567 U566 2.454 . S
O567 C569 1.353 . S
O568 U566 2.458 . S
O568 C569 1.286 . S
C569 U566 2.984 . S
C569 O567 1.353 . S
C569 O568 1.286 . S
C569 C571 1.363 . S
C570 C560 1.465 . S
C570 U566 2.847 . S
C570 O584 1.249 . S
C570 O585 1.202 . S
C571 C569 1.363 . S
C571 C573 1.408 . S
C571 C576 1.342 . S
C572 C573 1.310 . S
C572 C575 1.461 . S
C572 H592 0.932 . S
C573 C571 1.408 . S
C573 C572 1.310 . S
C573 H593 0.930 . S
C574 C575 1.474 . S
C574 C576 1.285 . S
C574 H594 0.929 . S
C575 C572 1.461 . S
C575 C574 1.474 . S
C576 C571 1.342 . S
C576 C574 1.285 . S
C576 H595 0.930 . S
C577 C580 1.424 . S
C577 C582 1.245 . S
C577 C583 1.428 . S
C578 C581 1.260 . S
C578 C582 1.477 . S
C578 H596 0.932 . S
C579 C580 1.384 . S
C579 C581 1.479 . S
C579 H597 0.929 . S
C580 C577 1.424 . S
C580 C579 1.384 . S
C580 H598 0.928 . S
C581 C578 1.260 . S
C581 C579 1.479 . S
C582 C577 1.245 . S
C582 C578 1.477 . S
C582 H599 0.932 . S
C583 U566 2.882 . S
C583 C577 1.428 . S
C583 O586 1.301 . S
C583 O587 1.282 . S
O584 U566 2.441 . S
O584 C570 1.249 . S
O585 U566 2.420 . S
O585 C570 1.202 . S
O586 U566 2.455 . S
O586 C583 1.301 . S
O587 U566 2.449 . S
O587 C583 1.282 . S
H588 C561 0.931 . S
H589 C563 0.929 . S
H590 C564 0.930 . S
H591 C565 0.931 . S
H592 C572 0.932 . S
H593 C573 0.930 . S
H594 C574 0.929 . S
H595 C576 0.930 . S
H596 C578 0.932 . S
H597 C579 0.929 . S
H598 C580 0.928 . S
H599 C582 0.932 . S
C600 C601 1.264 . S
C600 C605 1.479 . S
C600 C610 1.465 . S
C601 C600 1.264 . S
C601 C603 1.339 . S
C601 H628 0.931 . S
C602 C603 1.395 . S
C602 C604 1.320 . S
C603 C601 1.339 . S
C603 C602 1.395 . S
C603 H629 0.929 . S
C604 C602 1.320 . S
C604 C605 1.405 . S
C604 H630 0.930 . S
C605 C600 1.479 . S
C605 C604 1.405 . S
C605 H631 0.931 . S
U606 O607 2.454 . S
U606 O608 2.458 . S
U606 C609 2.984 . S
U606 C610 2.847 . S
U606 C623 2.882 . S
U606 O624 2.441 . S
U606 O625 2.420 . S
U606 O626 2.455 . S
U606 O627 2.449 . S
O607 U606 2.454 . S
O607 C609 1.353 . S
O608 U606 2.458 . S
O608 C609 1.286 . S
C609 U606 2.984 . S
C609 O607 1.353 . S
C609 O608 1.286 . S
C609 C611 1.363 . S
C610 C600 1.465 . S
C610 U606 2.847 . S
C610 O624 1.249 . S
C610 O625 1.202 . S
C611 C609 1.363 . S
C611 C613 1.408 . S
C611 C616 1.342 . S
C612 C613 1.310 . S
C612 C615 1.461 . S
C612 H632 0.932 . S
C613 C611 1.408 . S
C613 C612 1.310 . S
C613 H633 0.930 . S
C614 C615 1.474 . S
C614 C616 1.285 . S
C614 H634 0.929 . S
C615 C612 1.461 . S
C615 C614 1.474 . S
C616 C611 1.342 . S
C616 C614 1.285 . S
C616 H635 0.930 . S
C617 C620 1.424 . S
C617 C622 1.245 . S
C617 C623 1.428 . S
C618 C621 1.260 . S
C618 C622 1.477 . S
C618 H636 0.932 . S
C619 C620 1.384 . S
C619 C621 1.479 . S
C619 H637 0.929 . S
C620 C617 1.424 . S
C620 C619 1.384 . S
C620 H638 0.928 . S
C621 C618 1.260 . S
C621 C619 1.479 . S
C622 C617 1.245 . S
C622 C618 1.477 . S
C622 H639 0.932 . S
C623 U606 2.882 . S
C623 C617 1.428 . S
C623 O626 1.301 . S
C623 O627 1.282 . S
O624 U606 2.441 . S
O624 C610 1.249 . S
O625 U606 2.420 . S
O625 C610 1.202 . S
O626 U606 2.455 . S
O626 C623 1.301 . S
O627 U606 2.449 . S
O627 C623 1.282 . S
H628 C601 0.931 . S
H629 C603 0.929 . S
H630 C604 0.930 . S
H631 C605 0.931 . S
H632 C612 0.932 . S
H633 C613 0.930 . S
H634 C614 0.929 . S
H635 C616 0.930 . S
H636 C618 0.932 . S
H637 C619 0.929 . S
H638 C620 0.928 . S
H639 C622 0.932 . S
C640 C641 1.264 . S
C640 C645 1.479 . S
C640 C650 1.465 . S
C641 C640 1.264 . S
C641 C643 1.339 . S
C641 H668 0.931 . S
C642 C643 1.395 . S
C642 C644 1.320 . S
C643 C641 1.339 . S
C643 C642 1.395 . S
C643 H669 0.929 . S
C644 C642 1.320 . S
C644 C645 1.405 . S
C644 H670 0.930 . S
C645 C640 1.479 . S
C645 C644 1.405 . S
C645 H671 0.931 . S
U646 O647 2.454 . S
U646 O648 2.458 . S
U646 C649 2.984 . S
U646 C650 2.847 . S
U646 C663 2.882 . S
U646 O664 2.441 . S
U646 O665 2.420 . S
U646 O666 2.455 . S
U646 O667 2.449 . S
O647 U646 2.454 . S
O647 C649 1.353 . S
O648 U646 2.458 . S
O648 C649 1.286 . S
C649 U646 2.984 . S
C649 O647 1.353 . S
C649 O648 1.286 . S
C649 C651 1.363 . S
C650 C640 1.465 . S
C650 U646 2.847 . S
C650 O664 1.249 . S
C650 O665 1.202 . S
C651 C649 1.363 . S
C651 C653 1.408 . S
C651 C656 1.342 . S
C652 C653 1.310 . S
C652 C655 1.461 . S
C652 H672 0.932 . S
C653 C651 1.408 . S
C653 C652 1.310 . S
C653 H673 0.930 . S
C654 C655 1.474 . S
C654 C656 1.285 . S
C654 H674 0.929 . S
C655 C652 1.461 . S
C655 C654 1.474 . S
C656 C651 1.342 . S
C656 C654 1.285 . S
C656 H675 0.930 . S
C657 C660 1.424 . S
C657 C662 1.245 . S
C657 C663 1.428 . S
C658 C661 1.260 . S
C658 C662 1.477 . S
C658 H676 0.932 . S
C659 C660 1.384 . S
C659 C661 1.479 . S
C659 H677 0.929 . S
C660 C657 1.424 . S
C660 C659 1.384 . S
C660 H678 0.928 . S
C661 C658 1.260 . S
C661 C659 1.479 . S
C662 C657 1.245 . S
C662 C658 1.477 . S
C662 H679 0.932 . S
C663 U646 2.882 . S
C663 C657 1.428 . S
C663 O666 1.301 . S
C663 O667 1.282 . S
O664 U646 2.441 . S
O664 C650 1.249 . S
O665 U646 2.420 . S
O665 C650 1.202 . S
O666 U646 2.455 . S
O666 C663 1.301 . S
O667 U646 2.449 . S
O667 C663 1.282 . S
H668 C641 0.931 . S
H669 C643 0.929 . S
H670 C644 0.930 . S
H671 C645 0.931 . S
H672 C652 0.932 . S
H673 C653 0.930 . S
H674 C654 0.929 . S
H675 C656 0.930 . S
H676 C658 0.932 . S
H677 C659 0.929 . S
H678 C660 0.928 . S
H679 C662 0.932 . S
C680 C681 1.264 . S
C680 C685 1.479 . S
C680 C690 1.465 . S
C681 C680 1.264 . S
C681 C683 1.339 . S
C681 H708 0.931 . S
C682 C683 1.395 . S
C682 C684 1.320 . S
C683 C681 1.339 . S
C683 C682 1.395 . S
C683 H709 0.929 . S
C684 C682 1.320 . S
C684 C685 1.405 . S
C684 H710 0.930 . S
C685 C680 1.479 . S
C685 C684 1.405 . S
C685 H711 0.931 . S
U686 O687 2.454 . S
U686 O688 2.458 . S
U686 C689 2.984 . S
U686 C690 2.847 . S
U686 C703 2.882 . S
U686 O704 2.441 . S
U686 O705 2.420 . S
U686 O706 2.455 . S
U686 O707 2.449 . S
O687 U686 2.454 . S
O687 C689 1.353 . S
O688 U686 2.458 . S
O688 C689 1.286 . S
C689 U686 2.984 . S
C689 O687 1.353 . S
C689 O688 1.286 . S
C689 C691 1.363 . S
C690 C680 1.465 . S
C690 U686 2.847 . S
C690 O704 1.249 . S
C690 O705 1.202 . S
C691 C689 1.363 . S
C691 C693 1.408 . S
C691 C696 1.342 . S
C692 C693 1.310 . S
C692 C695 1.461 . S
C692 H712 0.932 . S
C693 C691 1.408 . S
C693 C692 1.310 . S
C693 H713 0.930 . S
C694 C695 1.474 . S
C694 C696 1.285 . S
C694 H714 0.929 . S
C695 C692 1.461 . S
C695 C694 1.474 . S
C696 C691 1.342 . S
C696 C694 1.285 . S
C696 H715 0.930 . S
C697 C700 1.424 . S
C697 C702 1.245 . S
C697 C703 1.428 . S
C698 C701 1.260 . S
C698 C702 1.477 . S
C698 H716 0.932 . S
C699 C700 1.384 . S
C699 C701 1.479 . S
C699 H717 0.929 . S
C700 C697 1.424 . S
C700 C699 1.384 . S
C700 H718 0.928 . S
C701 C698 1.260 . S
C701 C699 1.479 . S
C702 C697 1.245 . S
C702 C698 1.477 . S
C702 H719 0.932 . S
C703 U686 2.882 . S
C703 C697 1.428 . S
C703 O706 1.301 . S
C703 O707 1.282 . S
O704 U686 2.441 . S
O704 C690 1.249 . S
O705 U686 2.420 . S
O705 C690 1.202 . S
O706 U686 2.455 . S
O706 C703 1.301 . S
O707 U686 2.449 . S
O707 C703 1.282 . S
H708 C681 0.931 . S
H709 C683 0.929 . S
H710 C684 0.930 . S
H711 C685 0.931 . S
H712 C692 0.932 . S
H713 C693 0.930 . S
H714 C694 0.929 . S
H715 C696 0.930 . S
H716 C698 0.932 . S
H717 C699 0.929 . S
H718 C700 0.928 . S
H719 C702 0.932 . S
C720 C721 1.264 . S
C720 C725 1.479 . S
C720 C730 1.465 . S
C721 C720 1.264 . S
C721 C723 1.339 . S
C721 H748 0.931 . S
C722 C723 1.395 . S
C722 C724 1.320 . S
C723 C721 1.339 . S
C723 C722 1.395 . S
C723 H749 0.929 . S
C724 C722 1.320 . S
C724 C725 1.405 . S
C724 H750 0.930 . S
C725 C720 1.479 . S
C725 C724 1.405 . S
C725 H751 0.931 . S
U726 O727 2.454 . S
U726 O728 2.458 . S
U726 C729 2.984 . S
U726 C730 2.847 . S
U726 C743 2.882 . S
U726 O744 2.441 . S
U726 O745 2.420 . S
U726 O746 2.455 . S
U726 O747 2.449 . S
O727 U726 2.454 . S
O727 C729 1.353 . S
O728 U726 2.458 . S
O728 C729 1.286 . S
C729 U726 2.984 . S
C729 O727 1.353 . S
C729 O728 1.286 . S
C729 C731 1.363 . S
C730 C720 1.465 . S
C730 U726 2.847 . S
C730 O744 1.249 . S
C730 O745 1.202 . S
C731 C729 1.363 . S
C731 C733 1.408 . S
C731 C736 1.342 . S
C732 C733 1.310 . S
C732 C735 1.461 . S
C732 H752 0.932 . S
C733 C731 1.408 . S
C733 C732 1.310 . S
C733 H753 0.930 . S
C734 C735 1.474 . S
C734 C736 1.285 . S
C734 H754 0.929 . S
C735 C732 1.461 . S
C735 C734 1.474 . S
C736 C731 1.342 . S
C736 C734 1.285 . S
C736 H755 0.930 . S
C737 C740 1.424 . S
C737 C742 1.245 . S
C737 C743 1.428 . S
C738 C741 1.260 . S
C738 C742 1.477 . S
C738 H756 0.932 . S
C739 C740 1.384 . S
C739 C741 1.479 . S
C739 H757 0.929 . S
C740 C737 1.424 . S
C740 C739 1.384 . S
C740 H758 0.928 . S
C741 C738 1.260 . S
C741 C739 1.479 . S
C742 C737 1.245 . S
C742 C738 1.477 . S
C742 H759 0.932 . S
C743 U726 2.882 . S
C743 C737 1.428 . S
C743 O746 1.301 . S
C743 O747 1.282 . S
O744 U726 2.441 . S
O744 C730 1.249 . S
O745 U726 2.420 . S
O745 C730 1.202 . S
O746 U726 2.455 . S
O746 C743 1.301 . S
O747 U726 2.449 . S
O747 C743 1.282 . S
H748 C721 0.931 . S
H749 C723 0.929 . S
H750 C724 0.930 . S
H751 C725 0.931 . S
H752 C732 0.932 . S
H753 C733 0.930 . S
H754 C734 0.929 . S
H755 C736 0.930 . S
H756 C738 0.932 . S
H757 C739 0.929 . S
H758 C740 0.928 . S
H759 C742 0.932 . S
C760 C761 1.264 . S
C760 C765 1.479 . S
C760 C770 1.465 . S
C761 C760 1.264 . S
C761 C763 1.339 . S
C761 H788 0.931 . S
C762 C763 1.395 . S
C762 C764 1.320 . S
C763 C761 1.339 . S
C763 C762 1.395 . S
C763 H789 0.929 . S
C764 C762 1.320 . S
C764 C765 1.405 . S
C764 H790 0.930 . S
C765 C760 1.479 . S
C765 C764 1.405 . S
C765 H791 0.931 . S
U766 O767 2.454 . S
U766 O768 2.458 . S
U766 C769 2.984 . S
U766 C770 2.847 . S
U766 C783 2.882 . S
U766 O784 2.441 . S
U766 O785 2.420 . S
U766 O786 2.455 . S
U766 O787 2.449 . S
O767 U766 2.454 . S
O767 C769 1.353 . S
O768 U766 2.458 . S
O768 C769 1.286 . S
C769 U766 2.984 . S
C769 O767 1.353 . S
C769 O768 1.286 . S
C769 C771 1.363 . S
C770 C760 1.465 . S
C770 U766 2.847 . S
C770 O784 1.249 . S
C770 O785 1.202 . S
C771 C769 1.363 . S
C771 C773 1.408 . S
C771 C776 1.342 . S
C772 C773 1.310 . S
C772 C775 1.461 . S
C772 H792 0.932 . S
C773 C771 1.408 . S
C773 C772 1.310 . S
C773 H793 0.930 . S
C774 C775 1.474 . S
C774 C776 1.285 . S
C774 H794 0.929 . S
C775 C772 1.461 . S
C775 C774 1.474 . S
C776 C771 1.342 . S
C776 C774 1.285 . S
C776 H795 0.930 . S
C777 C780 1.424 . S
C777 C782 1.245 . S
C777 C783 1.428 . S
C778 C781 1.260 . S
C778 C782 1.477 . S
C778 H796 0.932 . S
C779 C780 1.384 . S
C779 C781 1.479 . S
C779 H797 0.929 . S
C780 C777 1.424 . S
C780 C779 1.384 . S
C780 H798 0.928 . S
C781 C778 1.260 . S
C781 C779 1.479 . S
C782 C777 1.245 . S
C782 C778 1.477 . S
C782 H799 0.932 . S
C783 U766 2.882 . S
C783 C777 1.428 . S
C783 O786 1.301 . S
C783 O787 1.282 . S
O784 U766 2.441 . S
O784 C770 1.249 . S
O785 U766 2.420 . S
O785 C770 1.202 . S
O786 U766 2.455 . S
O786 C783 1.301 . S
O787 U766 2.449 . S
O787 C783 1.282 . S
H788 C761 0.931 . S
H789 C763 0.929 . S
H790 C764 0.930 . S
H791 C765 0.931 . S
H792 C772 0.932 . S
H793 C773 0.930 . S
H794 C774 0.929 . S
H795 C776 0.930 . S
H796 C778 0.932 . S
H797 C779 0.929 . S
H798 C780 0.928 . S
H799 C782 0.932 . S
C800 C801 1.264 . S
C800 C805 1.479 . S
C800 C810 1.465 . S
C801 C800 1.264 . S
C801 C803 1.339 . S
C801 H828 0.931 . S
C802 C803 1.395 . S
C802 C804 1.320 . S
C803 C801 1.339 . S
C803 C802 1.395 . S
C803 H829 0.929 . S
C804 C802 1.320 . S
C804 C805 1.405 . S
C804 H830 0.930 . S
C805 C800 1.479 . S
C805 C804 1.405 . S
C805 H831 0.931 . S
U806 O807 2.454 . S
U806 O808 2.458 . S
U806 C809 2.984 . S
U806 C810 2.847 . S
U806 C823 2.882 . S
U806 O824 2.441 . S
U806 O825 2.420 . S
U806 O826 2.455 . S
U806 O827 2.449 . S
O807 U806 2.454 . S
O807 C809 1.353 . S
O808 U806 2.458 . S
O808 C809 1.286 . S
C809 U806 2.984 . S
C809 O807 1.353 . S
C809 O808 1.286 . S
C809 C811 1.363 . S
C810 C800 1.465 . S
C810 U806 2.847 . S
C810 O824 1.249 . S
C810 O825 1.202 . S
C811 C809 1.363 . S
C811 C813 1.408 . S
C811 C816 1.342 . S
C812 C813 1.310 . S
C812 C815 1.461 . S
C812 H832 0.932 . S
C813 C811 1.408 . S
C813 C812 1.310 . S
C813 H833 0.930 . S
C814 C815 1.474 . S
C814 C816 1.285 . S
C814 H834 0.929 . S
C815 C812 1.461 . S
C815 C814 1.474 . S
C816 C811 1.342 . S
C816 C814 1.285 . S
C816 H835 0.930 . S
C817 C820 1.424 . S
C817 C822 1.245 . S
C817 C823 1.428 . S
C818 C821 1.260 . S
C818 C822 1.477 . S
C818 H836 0.932 . S
C819 C820 1.384 . S
C819 C821 1.479 . S
C819 H837 0.929 . S
C820 C817 1.424 . S
C820 C819 1.384 . S
C820 H838 0.928 . S
C821 C818 1.260 . S
C821 C819 1.479 . S
C822 C817 1.245 . S
C822 C818 1.477 . S
C822 H839 0.932 . S
C823 U806 2.882 . S
C823 C817 1.428 . S
C823 O826 1.301 . S
C823 O827 1.282 . S
O824 U806 2.441 . S
O824 C810 1.249 . S
O825 U806 2.420 . S
O825 C810 1.202 . S
O826 U806 2.455 . S
O826 C823 1.301 . S
O827 U806 2.449 . S
O827 C823 1.282 . S
H828 C801 0.931 . S
H829 C803 0.929 . S
H830 C804 0.930 . S
H831 C805 0.931 . S
H832 C812 0.932 . S
H833 C813 0.930 . S
H834 C814 0.929 . S
H835 C816 0.930 . S
H836 C818 0.932 . S
H837 C819 0.929 . S
H838 C820 0.928 . S
H839 C822 0.932 . S
C840 C841 1.264 . S
C840 C845 1.479 . S
C840 C850 1.465 . S
C841 C840 1.264 . S
C841 C843 1.339 . S
C841 H868 0.931 . S
C842 C843 1.395 . S
C842 C844 1.320 . S
C843 C841 1.339 . S
C843 C842 1.395 . S
C843 H869 0.929 . S
C844 C842 1.320 . S
C844 C845 1.405 . S
C844 H870 0.930 . S
C845 C840 1.479 . S
C845 C844 1.405 . S
C845 H871 0.931 . S
U846 O847 2.454 . S
U846 O848 2.458 . S
U846 C849 2.984 . S
U846 C850 2.847 . S
U846 C863 2.882 . S
U846 O864 2.441 . S
U846 O865 2.420 . S
U846 O866 2.455 . S
U846 O867 2.449 . S
O847 U846 2.454 . S
O847 C849 1.353 . S
O848 U846 2.458 . S
O848 C849 1.286 . S
C849 U846 2.984 . S
C849 O847 1.353 . S
C849 O848 1.286 . S
C849 C851 1.363 . S
C850 C840 1.465 . S
C850 U846 2.847 . S
C850 O864 1.249 . S
C850 O865 1.202 . S
C851 C849 1.363 . S
C851 C853 1.408 . S
C851 C856 1.342 . S
C852 C853 1.310 . S
C852 C855 1.461 . S
C852 H872 0.932 . S
C853 C851 1.408 . S
C853 C852 1.310 . S
C853 H873 0.930 . S
C854 C855 1.474 . S
C854 C856 1.285 . S
C854 H874 0.929 . S
C855 C852 1.461 . S
C855 C854 1.474 . S
C856 C851 1.342 . S
C856 C854 1.285 . S
C856 H875 0.930 . S
C857 C860 1.424 . S
C857 C862 1.245 . S
C857 C863 1.428 1_556 S
C858 C861 1.260 . S
C858 C862 1.477 . S
C858 H876 0.932 . S
C859 C860 1.384 . S
C859 C861 1.479 . S
C859 H877 0.929 . S
C860 C857 1.424 . S
C860 C859 1.384 . S
C860 H878 0.928 . S
C861 C858 1.260 . S
C861 C859 1.479 . S
C862 C857 1.245 . S
C862 C858 1.477 . S
C862 H879 0.932 . S
C863 U846 2.882 . S
C863 C857 1.428 1_554 S
C863 O866 1.301 . S
C863 O867 1.282 . S
O864 U846 2.441 . S
O864 C850 1.249 . S
O865 U846 2.420 . S
O865 C850 1.202 . S
O866 U846 2.455 . S
O866 C863 1.301 . S
O867 U846 2.449 . S
O867 C863 1.282 . S
H868 C841 0.931 . S
H869 C843 0.929 . S
H870 C844 0.930 . S
H871 C845 0.931 . S
H872 C852 0.932 . S
H873 C853 0.930 . S
H874 C854 0.929 . S
H875 C856 0.930 . S
H876 C858 0.932 . S
H877 C859 0.929 . S
H878 C860 0.928 . S
H879 C862 0.932 . S
C880 C881 1.264 . S
C880 C885 1.479 . S
C880 C890 1.465 . S
C881 C880 1.264 . S
C881 C883 1.339 . S
C881 H908 0.931 . S
C882 C883 1.395 . S
C882 C884 1.320 . S
C883 C881 1.339 . S
C883 C882 1.395 . S
C883 H909 0.929 . S
C884 C882 1.320 . S
C884 C885 1.405 . S
C884 H910 0.930 . S
C885 C880 1.479 . S
C885 C884 1.405 . S
C885 H911 0.931 . S
U886 O887 2.454 . S
U886 O888 2.458 . S
U886 C889 2.984 . S
U886 C890 2.847 . S
U886 C903 2.882 . S
U886 O904 2.441 . S
U886 O905 2.420 . S
U886 O906 2.455 . S
U886 O907 2.449 . S
O887 U886 2.454 . S
O887 C889 1.353 . S
O888 U886 2.458 . S
O888 C889 1.286 . S
C889 U886 2.984 . S
C889 O887 1.353 . S
C889 O888 1.286 . S
C889 C891 1.363 . S
C890 C880 1.465 . S
C890 U886 2.847 . S
C890 O904 1.249 . S
C890 O905 1.202 . S
C891 C889 1.363 . S
C891 C893 1.408 . S
C891 C896 1.342 . S
C892 C893 1.310 . S
C892 C895 1.461 . S
C892 H912 0.932 . S
C893 C891 1.408 . S
C893 C892 1.310 . S
C893 H913 0.930 . S
C894 C895 1.474 . S
C894 C896 1.285 . S
C894 H914 0.929 . S
C895 C892 1.461 . S
C895 C894 1.474 . S
C896 C891 1.342 . S
C896 C894 1.285 . S
C896 H915 0.930 . S
C897 C900 1.424 . S
C897 C902 1.245 . S
C897 C903 1.428 1_556 S
C898 C901 1.260 . S
C898 C902 1.477 . S
C898 H916 0.932 . S
C899 C900 1.384 . S
C899 C901 1.479 . S
C899 H917 0.929 . S
C900 C897 1.424 . S
C900 C899 1.384 . S
C900 H918 0.928 . S
C901 C898 1.260 . S
C901 C899 1.479 . S
C902 C897 1.245 . S
C902 C898 1.477 . S
C902 H919 0.932 . S
C903 U886 2.882 . S
C903 C897 1.428 1_554 S
C903 O906 1.301 . S
C903 O907 1.282 . S
O904 U886 2.441 . S
O904 C890 1.249 . S
O905 U886 2.420 . S
O905 C890 1.202 . S
O906 U886 2.455 . S
O906 C903 1.301 . S
O907 U886 2.449 . S
O907 C903 1.282 . S
H908 C881 0.931 . S
H909 C883 0.929 . S
H910 C884 0.930 . S
H911 C885 0.931 . S
H912 C892 0.932 . S
H913 C893 0.930 . S
H914 C894 0.929 . S
H915 C896 0.930 . S
H916 C898 0.932 . S
H917 C899 0.929 . S
H918 C900 0.928 . S
H919 C902 0.932 . S
C920 C921 1.264 . S
C920 C925 1.479 . S
C920 C930 1.465 . S
C921 C920 1.264 . S
C921 C923 1.339 . S
C921 H948 0.931 . S
C922 C923 1.395 . S
C922 C924 1.320 . S
C923 C921 1.339 . S
C923 C922 1.395 . S
C923 H949 0.929 . S
C924 C922 1.320 . S
C924 C925 1.405 . S
C924 H950 0.930 . S
C925 C920 1.479 . S
C925 C924 1.405 . S
C925 H951 0.931 . S
U926 O927 2.454 . S
U926 O928 2.458 . S
U926 C929 2.984 . S
U926 C930 2.847 . S
U926 C943 2.882 . S
U926 O944 2.441 . S
U926 O945 2.420 . S
U926 O946 2.455 . S
U926 O947 2.449 . S
O927 U926 2.454 . S
O927 C929 1.353 . S
O928 U926 2.458 . S
O928 C929 1.286 . S
C929 U926 2.984 . S
C929 O927 1.353 . S
C929 O928 1.286 . S
C929 C931 1.363 . S
C930 C920 1.465 . S
C930 U926 2.847 . S
C930 O944 1.249 . S
C930 O945 1.202 . S
C931 C929 1.363 . S
C931 C933 1.408 . S
C931 C936 1.342 . S
C932 C933 1.310 . S
C932 C935 1.461 . S
C932 H952 0.932 . S
C933 C931 1.408 . S
C933 C932 1.310 . S
C933 H953 0.930 . S
C934 C935 1.474 . S
C934 C936 1.285 . S
C934 H954 0.929 . S
C935 C932 1.461 . S
C935 C934 1.474 . S
C936 C931 1.342 . S
C936 C934 1.285 . S
C936 H955 0.930 . S
C937 C940 1.424 . S
C937 C942 1.245 . S
C937 C943 1.428 1_556 S
C938 C941 1.260 . S
C938 C942 1.477 . S
C938 H956 0.932 . S
C939 C940 1.384 . S
C939 C941 1.479 . S
C939 H957 0.929 . S
C940 C937 1.424 . S
C940 C939 1.384 . S
C940 H958 0.928 . S
C941 C938 1.260 . S
C941 C939 1.479 . S
C942 C937 1.245 . S
C942 C938 1.477 . S
C942 H959 0.932 . S
C943 U926 2.882 . S
C943 C937 1.428 1_554 S
C943 O946 1.301 . S
C943 O947 1.282 . S
O944 U926 2.441 . S
O944 C930 1.249 . S
O945 U926 2.420 . S
O945 C930 1.202 . S
O946 U926 2.455 . S
O946 C943 1.301 . S
O947 U926 2.449 . S
O947 C943 1.282 . S
H948 C921 0.931 . S
H949 C923 0.929 . S
H950 C924 0.930 . S
H951 C925 0.931 . S
H952 C932 0.932 . S
H953 C933 0.930 . S
H954 C934 0.929 . S
H955 C936 0.930 . S
H956 C938 0.932 . S
H957 C939 0.929 . S
H958 C940 0.928 . S
H959 C942 0.932 . S
C960 C961 1.264 . S
C960 C965 1.479 . S
C960 C970 1.465 . S
C961 C960 1.264 . S
C961 C963 1.339 . S
C961 H988 0.931 . S
C962 C963 1.395 . S
C962 C964 1.320 . S
C963 C961 1.339 . S
C963 C962 1.395 . S
C963 H989 0.929 . S
C964 C962 1.320 . S
C964 C965 1.405 . S
C964 H990 0.930 . S
C965 C960 1.479 . S
C965 C964 1.405 . S
C965 H991 0.931 . S
U966 O967 2.454 . S
U966 O968 2.458 . S
U966 C969 2.984 . S
U966 C970 2.847 . S
U966 C983 2.882 . S
U966 O984 2.441 . S
U966 O985 2.420 . S
U966 O986 2.455 . S
U966 O987 2.449 . S
O967 U966 2.454 . S
O967 C969 1.353 . S
O968 U966 2.458 . S
O968 C969 1.286 . S
C969 U966 2.984 . S
C969 O967 1.353 . S
C969 O968 1.286 . S
C969 C971 1.363 . S
C970 C960 1.465 . S
C970 U966 2.847 . S
C970 O984 1.249 . S
C970 O985 1.202 . S
C971 C969 1.363 . S
C971 C973 1.408 . S
C971 C976 1.342 . S
C972 C973 1.310 . S
C972 C975 1.461 . S
C972 H992 0.932 . S
C973 C971 1.408 . S
C973 C972 1.310 . S
C973 H993 0.930 . S
C974 C975 1.474 . S
C974 C976 1.285 . S
C974 H994 0.929 . S
C975 C972 1.461 . S
C975 C974 1.474 . S
C976 C971 1.342 . S
C976 C974 1.285 . S
C976 H995 0.930 . S
C977 C980 1.424 . S
C977 C982 1.245 . S
C977 C983 1.428 . S
C978 C981 1.260 . S
C978 C982 1.477 . S
C978 H996 0.932 . S
C979 C980 1.384 . S
C979 C981 1.479 . S
C979 H997 0.929 . S
C980 C977 1.424 . S
C980 C979 1.384 . S
C980 H998 0.928 . S
C981 C978 1.260 . S
C981 C979 1.479 . S
C982 C977 1.245 . S
C982 C978 1.477 . S
C982 H999 0.932 . S
C983 U966 2.882 . S
C983 C977 1.428 . S
C983 O986 1.301 . S
C983 O987 1.282 . S
O984 U966 2.441 . S
O984 C970 1.249 . S
O985 U966 2.420 . S
O985 C970 1.202 . S
O986 U966 2.455 . S
O986 C983 1.301 . S
O987 U966 2.449 . S
O987 C983 1.282 . S
H988 C961 0.931 . S
H989 C963 0.929 . S
H990 C964 0.930 . S
H991 C965 0.931 . S
H992 C972 0.932 . S
H993 C973 0.930 . S
H994 C974 0.929 . S
H995 C976 0.930 . S
H996 C978 0.932 . S
H997 C979 0.929 . S
H998 C980 0.928 . S
H999 C982 0.932 . S
C1000 C1001 1.264 . S
C1000 C1005 1.479 . S
C1000 C1010 1.465 . S
C1001 C1000 1.264 . S
C1001 C1003 1.339 . S
C1001 H1028 0.931 . S
C1002 C1003 1.395 . S
C1002 C1004 1.320 . S
C1003 C1001 1.339 . S
C1003 C1002 1.395 . S
C1003 H1029 0.929 . S
C1004 C1002 1.320 . S
C1004 C1005 1.405 . S
C1004 H1030 0.930 . S
C1005 C1000 1.479 . S
C1005 C1004 1.405 . S
C1005 H1031 0.931 . S
U1006 O1007 2.454 . S
U1006 O1008 2.458 . S
U1006 C1009 2.984 . S
U1006 C1010 2.847 . S
U1006 C1023 2.882 . S
U1006 O1024 2.441 . S
U1006 O1025 2.420 . S
U1006 O1026 2.455 . S
U1006 O1027 2.449 . S
O1007 U1006 2.454 . S
O1007 C1009 1.353 . S
O1008 U1006 2.458 . S
O1008 C1009 1.286 . S
C1009 U1006 2.984 . S
C1009 O1007 1.353 . S
C1009 O1008 1.286 . S
C1009 C1011 1.363 . S
C1010 C1000 1.465 . S
C1010 U1006 2.847 . S
C1010 O1024 1.249 . S
C1010 O1025 1.202 . S
C1011 C1009 1.363 . S
C1011 C1013 1.408 . S
C1011 C1016 1.342 . S
C1012 C1013 1.310 . S
C1012 C1015 1.461 . S
C1012 H1032 0.932 . S
C1013 C1011 1.408 . S
C1013 C1012 1.310 . S
C1013 H1033 0.930 . S
C1014 C1015 1.474 . S
C1014 C1016 1.285 . S
C1014 H1034 0.929 . S
C1015 C1012 1.461 . S
C1015 C1014 1.474 . S
C1016 C1011 1.342 . S
C1016 C1014 1.285 . S
C1016 H1035 0.930 . S
C1017 C1020 1.424 . S
C1017 C1022 1.245 . S
C1017 C1023 1.428 . S
C1018 C1021 1.260 . S
C1018 C1022 1.477 . S
C1018 H1036 0.932 . S
C1019 C1020 1.384 . S
C1019 C1021 1.479 . S
C1019 H1037 0.929 . S
C1020 C1017 1.424 . S
C1020 C1019 1.384 . S
C1020 H1038 0.928 . S
C1021 C1018 1.260 . S
C1021 C1019 1.479 . S
C1022 C1017 1.245 . S
C1022 C1018 1.477 . S
C1022 H1039 0.932 . S
C1023 U1006 2.882 . S
C1023 C1017 1.428 . S
C1023 O1026 1.301 . S
C1023 O1027 1.282 . S
O1024 U1006 2.441 . S
O1024 C1010 1.249 . S
O1025 U1006 2.420 . S
O1025 C1010 1.202 . S
O1026 U1006 2.455 . S
O1026 C1023 1.301 . S
O1027 U1006 2.449 . S
O1027 C1023 1.282 . S
H1028 C1001 0.931 . S
H1029 C1003 0.929 . S
H1030 C1004 0.930 . S
H1031 C1005 0.931 . S
H1032 C1012 0.932 . S
H1033 C1013 0.930 . S
H1034 C1014 0.929 . S
H1035 C1016 0.930 . S
H1036 C1018 0.932 . S
H1037 C1019 0.929 . S
H1038 C1020 0.928 . S
H1039 C1022 0.932 . S
C1040 C1041 1.264 . S
C1040 C1045 1.479 . S
C1040 C1050 1.465 . S
C1041 C1040 1.264 . S
C1041 C1043 1.339 . S
C1041 H1068 0.931 . S
C1042 C1043 1.395 . S
C1042 C1044 1.320 . S
C1043 C1041 1.339 . S
C1043 C1042 1.395 . S
C1043 H1069 0.929 . S
C1044 C1042 1.320 . S
C1044 C1045 1.405 . S
C1044 H1070 0.930 . S
C1045 C1040 1.479 . S
C1045 C1044 1.405 . S
C1045 H1071 0.931 . S
U1046 O1047 2.454 . S
U1046 O1048 2.458 . S
U1046 C1049 2.984 . S
U1046 C1050 2.847 . S
U1046 C1063 2.882 . S
U1046 O1064 2.441 . S
U1046 O1065 2.420 . S
U1046 O1066 2.455 . S
U1046 O1067 2.449 . S
O1047 U1046 2.454 . S
O1047 C1049 1.353 . S
O1048 U1046 2.458 . S
O1048 C1049 1.286 . S
C1049 U1046 2.984 . S
C1049 O1047 1.353 . S
C1049 O1048 1.286 . S
C1049 C1051 1.363 . S
C1050 C1040 1.465 . S
C1050 U1046 2.847 . S
C1050 O1064 1.249 . S
C1050 O1065 1.202 . S
C1051 C1049 1.363 . S
C1051 C1053 1.408 . S
C1051 C1056 1.342 . S
C1052 C1053 1.310 . S
C1052 C1055 1.461 . S
C1052 H1072 0.932 . S
C1053 C1051 1.408 . S
C1053 C1052 1.310 . S
C1053 H1073 0.930 . S
C1054 C1055 1.474 . S
C1054 C1056 1.285 . S
C1054 H1074 0.929 . S
C1055 C1052 1.461 . S
C1055 C1054 1.474 . S
C1056 C1051 1.342 . S
C1056 C1054 1.285 . S
C1056 H1075 0.930 . S
C1057 C1060 1.424 . S
C1057 C1062 1.245 . S
C1057 C1063 1.428 . S
C1058 C1061 1.260 . S
C1058 C1062 1.477 . S
C1058 H1076 0.932 . S
C1059 C1060 1.384 . S
C1059 C1061 1.479 . S
C1059 H1077 0.929 . S
C1060 C1057 1.424 . S
C1060 C1059 1.384 . S
C1060 H1078 0.928 . S
C1061 C1058 1.260 . S
C1061 C1059 1.479 . S
C1062 C1057 1.245 . S
C1062 C1058 1.477 . S
C1062 H1079 0.932 . S
C1063 U1046 2.882 . S
C1063 C1057 1.428 . S
C1063 O1066 1.301 . S
C1063 O1067 1.282 . S
O1064 U1046 2.441 . S
O1064 C1050 1.249 . S
O1065 U1046 2.420 . S
O1065 C1050 1.202 . S
O1066 U1046 2.455 . S
O1066 C1063 1.301 . S
O1067 U1046 2.449 . S
O1067 C1063 1.282 . S
H1068 C1041 0.931 . S
H1069 C1043 0.929 . S
H1070 C1044 0.930 . S
H1071 C1045 0.931 . S
H1072 C1052 0.932 . S
H1073 C1053 0.930 . S
H1074 C1054 0.929 . S
H1075 C1056 0.930 . S
H1076 C1058 0.932 . S
H1077 C1059 0.929 . S
H1078 C1060 0.928 . S
H1079 C1062 0.932 . S
C1080 C1081 1.264 . S
C1080 C1085 1.479 . S
C1080 C1090 1.465 . S
C1081 C1080 1.264 . S
C1081 C1083 1.339 . S
C1081 H1108 0.931 . S
C1082 C1083 1.395 . S
C1082 C1084 1.320 . S
C1083 C1081 1.339 . S
C1083 C1082 1.395 . S
C1083 H1109 0.929 . S
C1084 C1082 1.320 . S
C1084 C1085 1.405 . S
C1084 H1110 0.930 . S
C1085 C1080 1.479 . S
C1085 C1084 1.405 . S
C1085 H1111 0.931 . S
U1086 O1087 2.454 . S
U1086 O1088 2.458 . S
U1086 C1089 2.984 . S
U1086 C1090 2.847 . S
U1086 C1103 2.882 . S
U1086 O1104 2.441 . S
U1086 O1105 2.420 . S
U1086 O1106 2.455 . S
U1086 O1107 2.449 . S
O1087 U1086 2.454 . S
O1087 C1089 1.353 . S
O1088 U1086 2.458 . S
O1088 C1089 1.286 . S
C1089 U1086 2.984 . S
C1089 O1087 1.353 . S
C1089 O1088 1.286 . S
C1089 C1091 1.363 . S
C1090 C1080 1.465 . S
C1090 U1086 2.847 . S
C1090 O1104 1.249 . S
C1090 O1105 1.202 . S
C1091 C1089 1.363 . S
C1091 C1093 1.408 . S
C1091 C1096 1.342 . S
C1092 C1093 1.310 . S
C1092 C1095 1.461 . S
C1092 H1112 0.932 . S
C1093 C1091 1.408 . S
C1093 C1092 1.310 . S
C1093 H1113 0.930 . S
C1094 C1095 1.474 . S
C1094 C1096 1.285 . S
C1094 H1114 0.929 . S
C1095 C1092 1.461 . S
C1095 C1094 1.474 . S
C1096 C1091 1.342 . S
C1096 C1094 1.285 . S
C1096 H1115 0.930 . S
C1097 C1100 1.424 . S
C1097 C1102 1.245 . S
C1097 C1103 1.428 1_554 S
C1098 C1101 1.260 . S
C1098 C1102 1.477 . S
C1098 H1116 0.932 . S
C1099 C1100 1.384 . S
C1099 C1101 1.479 . S
C1099 H1117 0.929 . S
C1100 C1097 1.424 . S
C1100 C1099 1.384 . S
C1100 H1118 0.928 . S
C1101 C1098 1.260 . S
C1101 C1099 1.479 . S
C1102 C1097 1.245 . S
C1102 C1098 1.477 . S
C1102 H1119 0.948 . S
C1103 U1086 2.882 . S
C1103 C1097 1.428 1_556 S
C1103 O1106 1.301 . S
C1103 O1107 1.282 . S
O1104 U1086 2.441 . S
O1104 C1090 1.249 . S
O1105 U1086 2.420 . S
O1105 C1090 1.202 . S
O1106 U1086 2.455 . S
O1106 C1103 1.301 . S
O1107 U1086 2.449 . S
O1107 C1103 1.282 . S
H1108 C1081 0.931 . S
H1109 C1083 0.929 . S
H1110 C1084 0.930 . S
H1111 C1085 0.931 . S
H1112 C1092 0.932 . S
H1113 C1093 0.930 . S
H1114 C1094 0.929 . S
H1115 C1096 0.930 . S
H1116 C1098 0.932 . S
H1117 C1099 0.929 . S
H1118 C1100 0.928 . S
H1119 C1102 0.948 . S
C1120 C1121 1.264 . S
C1120 C1125 1.479 . S
C1120 C1130 1.465 . S
C1121 C1120 1.264 . S
C1121 C1123 1.339 . S
C1121 H1148 0.931 . S
C1122 C1123 1.395 . S
C1122 C1124 1.320 . S
C1123 C1121 1.339 . S
C1123 C1122 1.395 . S
C1123 H1149 0.929 . S
C1124 C1122 1.320 . S
C1124 C1125 1.405 . S
C1124 H1150 0.930 . S
C1125 C1120 1.479 . S
C1125 C1124 1.405 . S
C1125 H1151 0.931 . S
U1126 O1127 2.454 . S
U1126 O1128 2.458 . S
U1126 C1129 2.984 . S
U1126 C1130 2.847 . S
U1126 C1143 2.882 . S
U1126 O1144 2.441 . S
U1126 O1145 2.420 . S
U1126 O1146 2.455 . S
U1126 O1147 2.449 . S
O1127 U1126 2.454 . S
O1127 C1129 1.353 . S
O1128 U1126 2.458 . S
O1128 C1129 1.286 . S
C1129 U1126 2.984 . S
C1129 O1127 1.353 . S
C1129 O1128 1.286 . S
C1129 C1131 1.363 . S
C1130 C1120 1.465 . S
C1130 U1126 2.847 . S
C1130 O1144 1.249 . S
C1130 O1145 1.202 . S
C1131 C1129 1.363 . S
C1131 C1133 1.408 . S
C1131 C1136 1.342 . S
C1132 C1133 1.310 . S
C1132 C1135 1.461 . S
C1132 H1152 0.932 . S
C1133 C1131 1.408 . S
C1133 C1132 1.310 . S
C1133 H1153 0.930 . S
C1134 C1135 1.474 . S
C1134 C1136 1.285 . S
C1134 H1154 0.929 . S
C1135 C1132 1.461 . S
C1135 C1134 1.474 . S
C1136 C1131 1.342 . S
C1136 C1134 1.285 . S
C1136 H1155 0.930 . S
C1137 C1140 1.424 . S
C1137 C1142 1.245 . S
C1137 C1143 1.428 1_554 S
C1138 C1141 1.260 . S
C1138 C1142 1.477 . S
C1138 H1156 0.932 . S
C1139 C1140 1.384 . S
C1139 C1141 1.479 . S
C1139 H1157 0.929 . S
C1140 C1137 1.424 . S
C1140 C1139 1.384 . S
C1140 H1158 0.928 . S
C1141 C1138 1.260 . S
C1141 C1139 1.479 . S
C1142 C1137 1.245 . S
C1142 C1138 1.477 . S
C1142 H1159 0.948 . S
C1143 U1126 2.882 . S
C1143 C1137 1.428 1_556 S
C1143 O1146 1.301 . S
C1143 O1147 1.282 . S
O1144 U1126 2.441 . S
O1144 C1130 1.249 . S
O1145 U1126 2.420 . S
O1145 C1130 1.202 . S
O1146 U1126 2.455 . S
O1146 C1143 1.301 . S
O1147 U1126 2.449 . S
O1147 C1143 1.282 . S
H1148 C1121 0.931 . S
H1149 C1123 0.929 . S
H1150 C1124 0.930 . S
H1151 C1125 0.931 . S
H1152 C1132 0.932 . S
H1153 C1133 0.930 . S
H1154 C1134 0.929 . S
H1155 C1136 0.930 . S
H1156 C1138 0.932 . S
H1157 C1139 0.929 . S
H1158 C1140 0.928 . S
H1159 C1142 0.948 . S
C1160 C1161 1.264 . S
C1160 C1165 1.479 . S
C1160 C1170 1.465 . S
C1161 C1160 1.264 . S
C1161 C1163 1.339 . S
C1161 H1188 0.931 . S
C1162 C1163 1.395 . S
C1162 C1164 1.320 . S
C1163 C1161 1.339 . S
C1163 C1162 1.395 . S
C1163 H1189 0.929 . S
C1164 C1162 1.320 . S
C1164 C1165 1.405 . S
C1164 H1190 0.930 . S
C1165 C1160 1.479 . S
C1165 C1164 1.405 . S
C1165 H1191 0.931 . S
U1166 O1167 2.454 . S
U1166 O1168 2.458 . S
U1166 C1169 2.984 . S
U1166 C1170 2.847 . S
U1166 C1183 2.882 . S
U1166 O1184 2.441 . S
U1166 O1185 2.420 . S
U1166 O1186 2.455 . S
U1166 O1187 2.449 . S
O1167 U1166 2.454 . S
O1167 C1169 1.353 . S
O1168 U1166 2.458 . S
O1168 C1169 1.286 . S
C1169 U1166 2.984 . S
C1169 O1167 1.353 . S
C1169 O1168 1.286 . S
C1169 C1171 1.363 . S
C1170 C1160 1.465 . S
C1170 U1166 2.847 . S
C1170 O1184 1.249 . S
C1170 O1185 1.202 . S
C1171 C1169 1.363 . S
C1171 C1173 1.408 . S
C1171 C1176 1.342 . S
C1172 C1173 1.310 . S
C1172 C1175 1.461 . S
C1172 H1192 0.932 . S
C1173 C1171 1.408 . S
C1173 C1172 1.310 . S
C1173 H1193 0.930 . S
C1174 C1175 1.474 . S
C1174 C1176 1.285 . S
C1174 H1194 0.929 . S
C1175 C1172 1.461 . S
C1175 C1174 1.474 . S
C1176 C1171 1.342 . S
C1176 C1174 1.285 . S
C1176 H1195 0.930 . S
C1177 C1180 1.424 . S
C1177 C1182 1.245 . S
C1177 C1183 1.428 1_554 S
C1178 C1181 1.260 . S
C1178 C1182 1.477 . S
C1178 H1196 0.932 . S
C1179 C1180 1.384 . S
C1179 C1181 1.479 . S
C1179 H1197 0.929 . S
C1180 C1177 1.424 . S
C1180 C1179 1.384 . S
C1180 H1198 0.928 . S
C1181 C1178 1.260 . S
C1181 C1179 1.479 . S
C1182 C1177 1.245 . S
C1182 C1178 1.477 . S
C1182 H1199 0.948 . S
C1183 U1166 2.882 . S
C1183 C1177 1.428 1_556 S
C1183 O1186 1.301 . S
C1183 O1187 1.282 . S
O1184 U1166 2.441 . S
O1184 C1170 1.249 . S
O1185 U1166 2.420 . S
O1185 C1170 1.202 . S
O1186 U1166 2.455 . S
O1186 C1183 1.301 . S
O1187 U1166 2.449 . S
O1187 C1183 1.282 . S
H1188 C1161 0.931 . S
H1189 C1163 0.929 . S
H1190 C1164 0.930 . S
H1191 C1165 0.931 . S
H1192 C1172 0.932 . S
H1193 C1173 0.930 . S
H1194 C1174 0.929 . S
H1195 C1176 0.930 . S
H1196 C1178 0.932 . S
H1197 C1179 0.929 . S
H1198 C1180 0.928 . S
H1199 C1182 0.948 . S
C1200 C1201 1.264 . S
C1200 C1205 1.479 . S
C1200 C1210 1.465 . S
C1201 C1200 1.264 . S
C1201 C1203 1.339 . S
C1201 H1228 0.931 . S
C1202 C1203 1.395 . S
C1202 C1204 1.320 . S
C1203 C1201 1.339 . S
C1203 C1202 1.395 . S
C1203 H1229 0.929 . S
C1204 C1202 1.320 . S
C1204 C1205 1.405 . S
C1204 H1230 0.930 . S
C1205 C1200 1.479 . S
C1205 C1204 1.405 . S
C1205 H1231 0.931 . S
U1206 O1207 2.454 . S
U1206 O1208 2.458 . S
U1206 C1209 2.984 . S
U1206 C1210 2.847 . S
U1206 C1223 2.882 . S
U1206 O1224 2.441 . S
U1206 O1225 2.420 . S
U1206 O1226 2.455 . S
U1206 O1227 2.449 . S
O1207 U1206 2.454 . S
O1207 C1209 1.353 . S
O1208 U1206 2.458 . S
O1208 C1209 1.286 . S
C1209 U1206 2.984 . S
C1209 O1207 1.353 . S
C1209 O1208 1.286 . S
C1209 C1211 1.363 . S
C1210 C1200 1.465 . S
C1210 U1206 2.847 . S
C1210 O1224 1.249 . S
C1210 O1225 1.202 . S
C1211 C1209 1.363 . S
C1211 C1213 1.408 . S
C1211 C1216 1.342 . S
C1212 C1213 1.310 . S
C1212 C1215 1.461 . S
C1212 H1232 0.932 . S
C1213 C1211 1.408 . S
C1213 C1212 1.310 . S
C1213 H1233 0.930 . S
C1214 C1215 1.474 . S
C1214 C1216 1.285 . S
C1214 H1234 0.929 . S
C1215 C1212 1.461 . S
C1215 C1214 1.474 . S
C1216 C1211 1.342 . S
C1216 C1214 1.285 . S
C1216 H1235 0.930 . S
C1217 C1220 1.424 . S
C1217 C1222 1.245 . S
C1217 C1223 1.428 . S
C1218 C1221 1.260 . S
C1218 C1222 1.477 . S
C1218 H1236 0.932 . S
C1219 C1220 1.384 . S
C1219 C1221 1.479 . S
C1219 H1237 0.929 . S
C1220 C1217 1.424 . S
C1220 C1219 1.384 . S
C1220 H1238 0.928 . S
C1221 C1218 1.260 . S
C1221 C1219 1.479 . S
C1222 C1217 1.245 . S
C1222 C1218 1.477 . S
C1222 H1239 0.932 . S
C1223 U1206 2.882 . S
C1223 C1217 1.428 . S
C1223 O1226 1.301 . S
C1223 O1227 1.282 . S
O1224 U1206 2.441 . S
O1224 C1210 1.249 . S
O1225 U1206 2.420 . S
O1225 C1210 1.202 . S
O1226 U1206 2.455 . S
O1226 C1223 1.301 . S
O1227 U1206 2.449 . S
O1227 C1223 1.282 . S
H1228 C1201 0.931 . S
H1229 C1203 0.929 . S
H1230 C1204 0.930 . S
H1231 C1205 0.931 . S
H1232 C1212 0.932 . S
H1233 C1213 0.930 . S
H1234 C1214 0.929 . S
H1235 C1216 0.930 . S
H1236 C1218 0.932 . S
H1237 C1219 0.929 . S
H1238 C1220 0.928 . S
H1239 C1222 0.932 . S
C1240 C1241 1.264 . S
C1240 C1245 1.479 . S
C1240 C1250 1.465 . S
C1241 C1240 1.264 . S
C1241 C1243 1.339 . S
C1241 H1268 0.931 . S
C1242 C1243 1.395 . S
C1242 C1244 1.320 . S
C1243 C1241 1.339 . S
C1243 C1242 1.395 . S
C1243 H1269 0.929 . S
C1244 C1242 1.320 . S
C1244 C1245 1.405 . S
C1244 H1270 0.930 . S
C1245 C1240 1.479 . S
C1245 C1244 1.405 . S
C1245 H1271 0.931 . S
U1246 O1247 2.454 . S
U1246 O1248 2.458 . S
U1246 C1249 2.984 . S
U1246 C1250 2.847 . S
U1246 C1263 2.882 . S
U1246 O1264 2.441 . S
U1246 O1265 2.420 . S
U1246 O1266 2.455 . S
U1246 O1267 2.449 . S
O1247 U1246 2.454 . S
O1247 C1249 1.353 . S
O1248 U1246 2.458 . S
O1248 C1249 1.286 . S
C1249 U1246 2.984 . S
C1249 O1247 1.353 . S
C1249 O1248 1.286 . S
C1249 C1251 1.363 . S
C1250 C1240 1.465 . S
C1250 U1246 2.847 . S
C1250 O1264 1.249 . S
C1250 O1265 1.202 . S
C1251 C1249 1.363 . S
C1251 C1253 1.408 . S
C1251 C1256 1.342 . S
C1252 C1253 1.310 . S
C1252 C1255 1.461 . S
C1252 H1272 0.932 . S
C1253 C1251 1.408 . S
C1253 C1252 1.310 . S
C1253 H1273 0.930 . S
C1254 C1255 1.474 . S
C1254 C1256 1.285 . S
C1254 H1274 0.929 . S
C1255 C1252 1.461 . S
C1255 C1254 1.474 . S
C1256 C1251 1.342 . S
C1256 C1254 1.285 . S
C1256 H1275 0.930 . S
C1257 C1260 1.424 . S
C1257 C1262 1.245 . S
C1257 C1263 1.428 . S
C1258 C1261 1.260 . S
C1258 C1262 1.477 . S
C1258 H1276 0.932 . S
C1259 C1260 1.384 . S
C1259 C1261 1.479 . S
C1259 H1277 0.929 . S
C1260 C1257 1.424 . S
C1260 C1259 1.384 . S
C1260 H1278 0.928 . S
C1261 C1258 1.260 . S
C1261 C1259 1.479 . S
C1262 C1257 1.245 . S
C1262 C1258 1.477 . S
C1262 H1279 0.932 . S
C1263 U1246 2.882 . S
C1263 C1257 1.428 . S
C1263 O1266 1.301 . S
C1263 O1267 1.282 . S
O1264 U1246 2.441 . S
O1264 C1250 1.249 . S
O1265 U1246 2.420 . S
O1265 C1250 1.202 . S
O1266 U1246 2.455 . S
O1266 C1263 1.301 . S
O1267 U1246 2.449 . S
O1267 C1263 1.282 . S
H1268 C1241 0.931 . S
H1269 C1243 0.929 . S
H1270 C1244 0.930 . S
H1271 C1245 0.931 . S
H1272 C1252 0.932 . S
H1273 C1253 0.930 . S
H1274 C1254 0.929 . S
H1275 C1256 0.930 . S
H1276 C1258 0.932 . S
H1277 C1259 0.929 . S
H1278 C1260 0.928 . S
H1279 C1262 0.932 . S
C1280 C1281 1.264 . S
C1280 C1285 1.479 . S
C1280 C1290 1.465 . S
C1281 C1280 1.264 . S
C1281 C1283 1.339 . S
C1281 H1308 0.931 . S
C1282 C1283 1.395 . S
C1282 C1284 1.320 . S
C1283 C1281 1.339 . S
C1283 C1282 1.395 . S
C1283 H1309 0.929 . S
C1284 C1282 1.320 . S
C1284 C1285 1.405 . S
C1284 H1310 0.930 . S
C1285 C1280 1.479 . S
C1285 C1284 1.405 . S
C1285 H1311 0.931 . S
U1286 O1287 2.454 . S
U1286 O1288 2.458 . S
U1286 C1289 2.984 . S
U1286 C1290 2.847 . S
U1286 C1303 2.882 . S
U1286 O1304 2.441 . S
U1286 O1305 2.420 . S
U1286 O1306 2.455 . S
U1286 O1307 2.449 . S
O1287 U1286 2.454 . S
O1287 C1289 1.353 . S
O1288 U1286 2.458 . S
O1288 C1289 1.286 . S
C1289 U1286 2.984 . S
C1289 O1287 1.353 . S
C1289 O1288 1.286 . S
C1289 C1291 1.363 . S
C1290 C1280 1.465 . S
C1290 U1286 2.847 . S
C1290 O1304 1.249 . S
C1290 O1305 1.202 . S
C1291 C1289 1.363 . S
C1291 C1293 1.408 . S
C1291 C1296 1.342 . S
C1292 C1293 1.310 . S
C1292 C1295 1.461 . S
C1292 H1312 0.932 . S
C1293 C1291 1.408 . S
C1293 C1292 1.310 . S
C1293 H1313 0.930 . S
C1294 C1295 1.474 . S
C1294 C1296 1.285 . S
C1294 H1314 0.929 . S
C1295 C1292 1.461 . S
C1295 C1294 1.474 . S
C1296 C1291 1.342 . S
C1296 C1294 1.285 . S
C1296 H1315 0.930 . S
C1297 C1300 1.424 . S
C1297 C1302 1.245 . S
C1297 C1303 1.428 . S
C1298 C1301 1.260 . S
C1298 C1302 1.477 . S
C1298 H1316 0.932 . S
C1299 C1300 1.384 . S
C1299 C1301 1.479 . S
C1299 H1317 0.929 . S
C1300 C1297 1.424 . S
C1300 C1299 1.384 . S
C1300 H1318 0.928 . S
C1301 C1298 1.260 . S
C1301 C1299 1.479 . S
C1302 C1297 1.245 . S
C1302 C1298 1.477 . S
C1302 H1319 0.932 . S
C1303 U1286 2.882 . S
C1303 C1297 1.428 . S
C1303 O1306 1.301 . S
C1303 O1307 1.282 . S
O1304 U1286 2.441 . S
O1304 C1290 1.249 . S
O1305 U1286 2.420 . S
O1305 C1290 1.202 . S
O1306 U1286 2.455 . S
O1306 C1303 1.301 . S
O1307 U1286 2.449 . S
O1307 C1303 1.282 . S
H1308 C1281 0.931 . S
H1309 C1283 0.929 . S
H1310 C1284 0.930 . S
H1311 C1285 0.931 . S
H1312 C1292 0.932 . S
H1313 C1293 0.930 . S
H1314 C1294 0.929 . S
H1315 C1296 0.930 . S
H1316 C1298 0.932 . S
H1317 C1299 0.929 . S
H1318 C1300 0.928 . S
H1319 C1302 0.932 . S
C1320 C1321 1.264 . S
C1320 C1325 1.479 . S
C1320 C1330 1.465 . S
C1321 C1320 1.264 . S
C1321 C1323 1.339 . S
C1321 H1348 0.931 . S
C1322 C1323 1.395 . S
C1322 C1324 1.320 . S
C1323 C1321 1.339 . S
C1323 C1322 1.395 . S
C1323 H1349 0.929 . S
C1324 C1322 1.320 . S
C1324 C1325 1.405 . S
C1324 H1350 0.930 . S
C1325 C1320 1.479 . S
C1325 C1324 1.405 . S
C1325 H1351 0.931 . S
U1326 O1327 2.454 . S
U1326 O1328 2.458 . S
U1326 C1329 2.984 . S
U1326 C1330 2.847 . S
U1326 C1343 2.882 . S
U1326 O1344 2.441 . S
U1326 O1345 2.420 . S
U1326 O1346 2.455 . S
U1326 O1347 2.449 . S
O1327 U1326 2.454 . S
O1327 C1329 1.353 . S
O1328 U1326 2.458 . S
O1328 C1329 1.286 . S
C1329 U1326 2.984 . S
C1329 O1327 1.353 . S
C1329 O1328 1.286 . S
C1329 C1331 1.363 . S
C1330 C1320 1.465 . S
C1330 U1326 2.847 . S
C1330 O1344 1.249 . S
C1330 O1345 1.202 . S
C1331 C1329 1.363 . S
C1331 C1333 1.408 . S
C1331 C1336 1.342 . S
C1332 C1333 1.310 . S
C1332 C1335 1.461 . S
C1332 H1352 0.932 . S
C1333 C1331 1.408 . S
C1333 C1332 1.310 . S
C1333 H1353 0.930 . S
C1334 C1335 1.474 . S
C1334 C1336 1.285 . S
C1334 H1354 0.929 . S
C1335 C1332 1.461 . S
C1335 C1334 1.474 . S
C1336 C1331 1.342 . S
C1336 C1334 1.285 . S
C1336 H1355 0.930 . S
C1337 C1340 1.424 . S
C1337 C1342 1.245 . S
C1337 C1343 1.428 . S
C1338 C1341 1.260 . S
C1338 C1342 1.477 . S
C1338 H1356 0.932 . S
C1339 C1340 1.384 . S
C1339 C1341 1.479 . S
C1339 H1357 0.929 . S
C1340 C1337 1.424 . S
C1340 C1339 1.384 . S
C1340 H1358 0.928 . S
C1341 C1338 1.260 . S
C1341 C1339 1.479 . S
C1342 C1337 1.245 . S
C1342 C1338 1.477 . S
C1342 H1359 0.932 . S
C1343 U1326 2.882 . S
C1343 C1337 1.428 . S
C1343 O1346 1.301 . S
C1343 O1347 1.282 . S
O1344 U1326 2.441 . S
O1344 C1330 1.249 . S
O1345 U1326 2.420 . S
O1345 C1330 1.202 . S
O1346 U1326 2.455 . S
O1346 C1343 1.301 . S
O1347 U1326 2.449 . S
O1347 C1343 1.282 . S
H1348 C1321 0.931 . S
H1349 C1323 0.929 . S
H1350 C1324 0.930 . S
H1351 C1325 0.931 . S
H1352 C1332 0.932 . S
H1353 C1333 0.930 . S
H1354 C1334 0.929 . S
H1355 C1336 0.930 . S
H1356 C1338 0.932 . S
H1357 C1339 0.929 . S
H1358 C1340 0.928 . S
H1359 C1342 0.932 . S
C1360 C1361 1.264 . S
C1360 C1365 1.479 . S
C1360 C1370 1.465 . S
C1361 C1360 1.264 . S
C1361 C1363 1.339 . S
C1361 H1388 0.931 . S
C1362 C1363 1.395 . S
C1362 C1364 1.320 . S
C1363 C1361 1.339 . S
C1363 C1362 1.395 . S
C1363 H1389 0.929 . S
C1364 C1362 1.320 . S
C1364 C1365 1.405 . S
C1364 H1390 0.930 . S
C1365 C1360 1.479 . S
C1365 C1364 1.405 . S
C1365 H1391 0.931 . S
U1366 O1367 2.454 . S
U1366 O1368 2.458 . S
U1366 C1369 2.984 . S
U1366 C1370 2.847 . S
U1366 C1383 2.882 . S
U1366 O1384 2.441 . S
U1366 O1385 2.420 . S
U1366 O1386 2.455 . S
U1366 O1387 2.449 . S
O1367 U1366 2.454 . S
O1367 C1369 1.353 . S
O1368 U1366 2.458 . S
O1368 C1369 1.286 . S
C1369 U1366 2.984 . S
C1369 O1367 1.353 . S
C1369 O1368 1.286 . S
C1369 C1371 1.363 . S
C1370 C1360 1.465 . S
C1370 U1366 2.847 . S
C1370 O1384 1.249 . S
C1370 O1385 1.202 . S
C1371 C1369 1.363 . S
C1371 C1373 1.408 . S
C1371 C1376 1.342 . S
C1372 C1373 1.310 . S
C1372 C1375 1.461 . S
C1372 H1392 0.932 . S
C1373 C1371 1.408 . S
C1373 C1372 1.310 . S
C1373 H1393 0.930 . S
C1374 C1375 1.474 . S
C1374 C1376 1.285 . S
C1374 H1394 0.929 . S
C1375 C1372 1.461 . S
C1375 C1374 1.474 . S
C1376 C1371 1.342 . S
C1376 C1374 1.285 . S
C1376 H1395 0.930 . S
C1377 C1380 1.424 . S
C1377 C1382 1.245 . S
C1377 C1383 1.428 . S
C1378 C1381 1.260 . S
C1378 C1382 1.477 . S
C1378 H1396 0.932 . S
C1379 C1380 1.384 . S
C1379 C1381 1.479 . S
C1379 H1397 0.929 . S
C1380 C1377 1.424 . S
C1380 C1379 1.384 . S
C1380 H1398 0.928 . S
C1381 C1378 1.260 . S
C1381 C1379 1.479 . S
C1382 C1377 1.245 . S
C1382 C1378 1.477 . S
C1382 H1399 0.932 . S
C1383 U1366 2.882 . S
C1383 C1377 1.428 . S
C1383 O1386 1.301 . S
C1383 O1387 1.282 . S
O1384 U1366 2.441 . S
O1384 C1370 1.249 . S
O1385 U1366 2.420 . S
O1385 C1370 1.202 . S
O1386 U1366 2.455 . S
O1386 C1383 1.301 . S
O1387 U1366 2.449 . S
O1387 C1383 1.282 . S
H1388 C1361 0.931 . S
H1389 C1363 0.929 . S
H1390 C1364 0.930 . S
H1391 C1365 0.931 . S
H1392 C1372 0.932 . S
H1393 C1373 0.930 . S
H1394 C1374 0.929 . S
H1395 C1376 0.930 . S
H1396 C1378 0.932 . S
H1397 C1379 0.929 . S
H1398 C1380 0.928 . S
H1399 C1382 0.932 . S
C1400 C1401 1.264 . S
C1400 C1405 1.479 . S
C1400 C1410 1.465 . S
C1401 C1400 1.264 . S
C1401 C1403 1.339 . S
C1401 H1428 0.931 . S
C1402 C1403 1.395 . S
C1402 C1404 1.320 . S
C1403 C1401 1.339 . S
C1403 C1402 1.395 . S
C1403 H1429 0.929 . S
C1404 C1402 1.320 . S
C1404 C1405 1.405 . S
C1404 H1430 0.930 . S
C1405 C1400 1.479 . S
C1405 C1404 1.405 . S
C1405 H1431 0.931 . S
U1406 O1407 2.454 . S
U1406 O1408 2.458 . S
U1406 C1409 2.984 . S
U1406 C1410 2.847 . S
U1406 C1423 2.882 . S
U1406 O1424 2.441 . S
U1406 O1425 2.420 . S
U1406 O1426 2.455 . S
U1406 O1427 2.449 . S
O1407 U1406 2.454 . S
O1407 C1409 1.353 . S
O1408 U1406 2.458 . S
O1408 C1409 1.286 . S
C1409 U1406 2.984 . S
C1409 O1407 1.353 . S
C1409 O1408 1.286 . S
C1409 C1411 1.363 . S
C1410 C1400 1.465 . S
C1410 U1406 2.847 . S
C1410 O1424 1.249 . S
C1410 O1425 1.202 . S
C1411 C1409 1.363 . S
C1411 C1413 1.408 . S
C1411 C1416 1.342 . S
C1412 C1413 1.310 . S
C1412 C1415 1.461 . S
C1412 H1432 0.932 . S
C1413 C1411 1.408 . S
C1413 C1412 1.310 . S
C1413 H1433 0.930 . S
C1414 C1415 1.474 . S
C1414 C1416 1.285 . S
C1414 H1434 0.929 . S
C1415 C1412 1.461 . S
C1415 C1414 1.474 . S
C1416 C1411 1.342 . S
C1416 C1414 1.285 . S
C1416 H1435 0.930 . S
C1417 C1420 1.424 . S
C1417 C1422 1.245 . S
C1417 C1423 1.428 . S
C1418 C1421 1.260 . S
C1418 C1422 1.477 . S
C1418 H1436 0.932 . S
C1419 C1420 1.384 . S
C1419 C1421 1.479 . S
C1419 H1437 0.929 . S
C1420 C1417 1.424 . S
C1420 C1419 1.384 . S
C1420 H1438 0.928 . S
C1421 C1418 1.260 . S
C1421 C1419 1.479 . S
C1422 C1417 1.245 . S
C1422 C1418 1.477 . S
C1422 H1439 0.932 . S
C1423 U1406 2.882 . S
C1423 C1417 1.428 . S
C1423 O1426 1.301 . S
C1423 O1427 1.282 . S
O1424 U1406 2.441 . S
O1424 C1410 1.249 . S
O1425 U1406 2.420 . S
O1425 C1410 1.202 . S
O1426 U1406 2.455 . S
O1426 C1423 1.301 . S
O1427 U1406 2.449 . S
O1427 C1423 1.282 . S
H1428 C1401 0.931 . S
H1429 C1403 0.929 . S
H1430 C1404 0.930 . S
H1431 C1405 0.931 . S
H1432 C1412 0.932 . S
H1433 C1413 0.930 . S
H1434 C1414 0.929 . S
H1435 C1416 0.930 . S
H1436 C1418 0.932 . S
H1437 C1419 0.929 . S
H1438 C1420 0.928 . S
H1439 C1422 0.932 . S
C1440 C1441 1.387 . S
C1440 H1444 0.950 . S
C1440 C1449 1.390 . S
C1441 C1440 1.387 . S
C1441 C1443 1.387 . S
H1442 C1449 0.950 . S
C1443 C1441 1.387 . S
C1443 C1445 1.390 . S
C1443 H1447 0.950 . S
H1444 C1440 0.950 . S
C1445 C1443 1.390 . S
C1445 C1446 1.387 . S
C1445 H1448 0.950 . S
C1446 C1445 1.387 . S
C1446 C1449 1.387 . S
H1447 C1443 0.950 . S
H1448 C1445 0.950 . S
C1449 C1440 1.390 . S
C1449 H1442 0.950 . S
C1449 C1446 1.387 . S
C1450 C1451 1.387 . S
C1450 H1454 0.950 . S
C1450 C1459 1.390 . S
C1451 C1450 1.387 . S
C1451 C1453 1.387 . S
H1452 C1459 0.950 . S
C1453 C1451 1.387 . S
C1453 C1455 1.390 . S
C1453 H1457 0.950 . S
H1454 C1450 0.950 . S
C1455 C1453 1.390 . S
C1455 C1456 1.387 . S
C1455 H1458 0.950 . S
C1456 C1455 1.387 . S
C1456 C1459 1.387 . S
H1457 C1453 0.950 . S
H1458 C1455 0.950 . S
C1459 C1450 1.390 . S
C1459 H1452 0.950 . S
C1459 C1456 1.387 . S
C1460 C1461 1.387 . S
C1460 H1464 0.950 . S
C1460 C1469 1.390 . S
C1461 C1460 1.387 . S
C1461 C1463 1.387 . S
H1462 C1469 0.950 . S
C1463 C1461 1.387 . S
C1463 C1465 1.390 . S
C1463 H1467 0.950 . S
H1464 C1460 0.950 . S
C1465 C1463 1.390 . S
C1465 C1466 1.387 . S
C1465 H1468 0.950 . S
C1466 C1465 1.387 . S
C1466 C1469 1.387 . S
H1467 C1463 0.950 . S
H1468 C1465 0.950 . S
C1469 C1460 1.390 . S
C1469 H1462 0.950 . S
C1469 C1466 1.387 . S
C1470 C1471 1.387 . S
C1470 H1474 0.950 . S
C1470 C1479 1.390 . S
C1471 C1470 1.387 . S
C1471 C1473 1.387 . S
H1472 C1479 0.950 . S
C1473 C1471 1.387 . S
C1473 C1475 1.390 . S
C1473 H1477 0.950 . S
H1474 C1470 0.950 . S
C1475 C1473 1.390 . S
C1475 C1476 1.387 . S
C1475 H1478 0.950 . S
C1476 C1475 1.387 . S
C1476 C1479 1.387 . S
H1477 C1473 0.950 . S
H1478 C1475 0.950 . S
C1479 C1470 1.390 . S
C1479 H1472 0.950 . S
C1479 C1476 1.387 . S
C1480 C1481 1.387 . S
C1480 H1484 0.950 . S
C1480 C1489 1.390 . S
C1481 C1480 1.387 . S
C1481 C1483 1.387 . S
H1482 C1489 0.950 . S
C1483 C1481 1.387 . S
C1483 C1485 1.390 . S
C1483 H1487 0.950 . S
H1484 C1480 0.950 . S
C1485 C1483 1.390 . S
C1485 C1486 1.387 . S
C1485 H1488 0.950 . S
C1486 C1485 1.387 . S
C1486 C1489 1.387 . S
H1487 C1483 0.950 . S
H1488 C1485 0.950 . S
C1489 C1480 1.390 . S
C1489 H1482 0.950 . S
C1489 C1486 1.387 . S
C1490 C1491 1.387 . S
C1490 H1494 0.950 . S
C1490 C1499 1.390 . S
C1491 C1490 1.387 . S
C1491 C1493 1.387 . S
H1492 C1499 0.950 . S
C1493 C1491 1.387 . S
C1493 C1495 1.390 . S
C1493 H1497 0.950 . S
H1494 C1490 0.950 . S
C1495 C1493 1.390 . S
C1495 C1496 1.387 . S
C1495 H1498 0.950 . S
C1496 C1495 1.387 . S
C1496 C1499 1.387 . S
H1497 C1493 0.950 . S
H1498 C1495 0.950 . S
C1499 C1490 1.390 . S
C1499 H1492 0.950 . S
C1499 C1496 1.387 . S
C1500 C1501 1.387 . S
C1500 H1504 0.950 . S
C1500 C1509 1.390 . S
C1501 C1500 1.387 . S
C1501 C1503 1.387 . S
H1502 C1509 0.950 . S
C1503 C1501 1.387 . S
C1503 C1505 1.390 . S
C1503 H1507 0.950 . S
H1504 C1500 0.950 . S
C1505 C1503 1.390 . S
C1505 C1506 1.387 . S
C1505 H1508 0.950 . S
C1506 C1505 1.387 . S
C1506 C1509 1.387 . S
H1507 C1503 0.950 . S
H1508 C1505 0.950 . S
C1509 C1500 1.390 . S
C1509 H1502 0.950 . S
C1509 C1506 1.387 . S
C1510 C1511 1.387 . S
C1510 H1514 0.950 . S
C1510 C1519 1.390 . S
C1511 C1510 1.387 . S
C1511 C1513 1.387 . S
H1512 C1519 0.950 . S
C1513 C1511 1.387 . S
C1513 C1515 1.390 . S
C1513 H1517 0.950 . S
H1514 C1510 0.950 . S
C1515 C1513 1.390 . S
C1515 C1516 1.387 . S
C1515 H1518 0.950 . S
C1516 C1515 1.387 . S
C1516 C1519 1.387 . S
H1517 C1513 0.950 . S
H1518 C1515 0.950 . S
C1519 C1510 1.390 . S
C1519 H1512 0.950 . S
C1519 C1516 1.387 . S
C1520 C1521 1.387 . S
C1520 H1524 0.950 . S
C1520 C1529 1.390 . S
C1521 C1520 1.387 . S
C1521 C1523 1.387 . S
H1522 C1529 0.950 . S
C1523 C1521 1.387 . S
C1523 C1525 1.390 . S
C1523 H1527 0.950 . S
H1524 C1520 0.950 . S
C1525 C1523 1.390 . S
C1525 C1526 1.387 . S
C1525 H1528 0.950 . S
C1526 C1525 1.387 . S
C1526 C1529 1.387 . S
H1527 C1523 0.950 . S
H1528 C1525 0.950 . S
C1529 C1520 1.390 . S
C1529 H1522 0.950 . S
C1529 C1526 1.387 . S
C1530 C1531 1.387 . S
C1530 H1534 0.950 . S
C1530 C1539 1.390 . S
C1531 C1530 1.387 . S
C1531 C1533 1.387 . S
H1532 C1539 0.950 . S
C1533 C1531 1.387 . S
C1533 C1535 1.390 . S
C1533 H1537 0.950 . S
H1534 C1530 0.950 . S
C1535 C1533 1.390 . S
C1535 C1536 1.387 . S
C1535 H1538 0.950 . S
C1536 C1535 1.387 . S
C1536 C1539 1.387 . S
H1537 C1533 0.950 . S
H1538 C1535 0.950 . S
C1539 C1530 1.390 . S
C1539 H1532 0.950 . S
C1539 C1536 1.387 . S
C1540 C1541 1.387 . S
C1540 H1544 0.950 . S
C1540 C1549 1.390 . S
C1541 C1540 1.387 . S
C1541 C1543 1.387 . S
H1542 C1549 0.950 . S
C1543 C1541 1.387 . S
C1543 C1545 1.390 . S
C1543 H1547 0.950 . S
H1544 C1540 0.950 . S
C1545 C1543 1.390 . S
C1545 C1546 1.387 . S
C1545 H1548 0.950 . S
C1546 C1545 1.387 . S
C1546 C1549 1.387 . S
H1547 C1543 0.950 . S
H1548 C1545 0.950 . S
C1549 C1540 1.390 . S
C1549 H1542 0.950 . S
C1549 C1546 1.387 . S
C1550 C1551 1.387 . S
C1550 H1554 0.950 . S
C1550 C1559 1.390 . S
C1551 C1550 1.387 . S
C1551 C1553 1.387 . S
H1552 C1559 0.950 . S
C1553 C1551 1.387 . S
C1553 C1555 1.390 . S
C1553 H1557 0.950 . S
H1554 C1550 0.950 . S
C1555 C1553 1.390 . S
C1555 C1556 1.387 . S
C1555 H1558 0.950 . S
C1556 C1555 1.387 . S
C1556 C1559 1.387 . S
H1557 C1553 0.950 . S
H1558 C1555 0.950 . S
C1559 C1550 1.390 . S
C1559 H1552 0.950 . S
C1559 C1556 1.387 . S
C1560 C1561 1.387 . S
C1560 H1564 0.950 . S
C1560 C1569 1.394 1_655 S
C1561 C1560 1.387 . S
C1561 C1563 1.391 1_655 S
H1562 C1569 0.949 . S
C1563 C1561 1.391 1_455 S
C1563 C1565 1.383 . S
C1563 H1567 0.956 1_455 S
H1564 C1560 0.950 . S
C1565 C1563 1.383 . S
C1565 C1566 1.387 . S
C1565 H1568 0.950 . S
C1566 C1565 1.387 . S
C1566 C1569 1.386 . S
H1567 C1563 0.956 1_655 S
H1568 C1565 0.950 . S
C1569 C1560 1.394 1_455 S
C1569 H1562 0.949 . S
C1569 C1566 1.386 . S
C1570 C1571 1.387 . S
C1570 H1574 0.950 . S
C1570 C1579 1.390 . S
C1571 C1570 1.387 . S
C1571 C1573 1.387 . S
H1572 C1579 0.950 . S
C1573 C1571 1.387 . S
C1573 C1575 1.390 . S
C1573 H1577 0.950 . S
H1574 C1570 0.950 . S
C1575 C1573 1.390 . S
C1575 C1576 1.387 . S
C1575 H1578 0.950 . S
C1576 C1575 1.387 . S
C1576 C1579 1.387 . S
H1577 C1573 0.950 . S
H1578 C1575 0.950 . S
C1579 C1570 1.390 . S
C1579 H1572 0.950 . S
C1579 C1576 1.387 . S
C1580 C1581 1.387 . S
C1580 H1584 0.950 . S
C1580 C1589 1.390 1_545 S
C1581 C1580 1.387 . S
C1581 C1583 1.387 . S
H1582 C1589 0.950 . S
C1583 C1581 1.387 . S
C1583 C1585 1.390 1_545 S
C1583 H1587 0.950 . S
H1584 C1580 0.950 . S
C1585 C1583 1.390 1_565 S
C1585 C1586 1.387 . S
C1585 H1588 0.950 . S
C1586 C1585 1.387 . S
C1586 C1589 1.387 . S
H1587 C1583 0.950 . S
H1588 C1585 0.950 . S
C1589 C1580 1.390 1_565 S
C1589 H1582 0.950 . S
C1589 C1586 1.387 . S
C1590 C1591 1.387 . S
C1590 H1594 0.950 . S
C1590 C1599 1.390 1_565 S
C1591 C1590 1.387 . S
C1591 C1593 1.387 . S
H1592 C1599 0.950 . S
C1593 C1591 1.387 . S
C1593 C1595 1.390 1_565 S
C1593 H1597 0.950 . S
H1594 C1590 0.950 . S
C1595 C1593 1.390 1_545 S
C1595 C1596 1.387 . S
C1595 H1598 0.950 . S
C1596 C1595 1.387 . S
C1596 C1599 1.387 . S
H1597 C1593 0.950 . S
H1598 C1595 0.950 . S
C1599 C1590 1.390 1_545 S
C1599 H1592 0.950 . S
C1599 C1596 1.387 . S
C1600 C1601 1.391 1_455 S
C1600 H1604 0.951 . S
C1600 C1609 1.383 . S
C1601 C1600 1.391 1_655 S
C1601 C1603 1.387 . S
H1602 C1609 0.950 . S
C1603 C1601 1.387 . S
C1603 C1605 1.387 . S
C1603 H1607 0.950 . S
H1604 C1600 0.951 . S
C1605 C1603 1.387 . S
C1605 C1606 1.389 1_655 S
C1605 H1608 0.951 . S
C1606 C1605 1.389 1_455 S
C1606 C1609 1.387 . S
H1607 C1603 0.950 . S
H1608 C1605 0.951 . S
C1609 C1600 1.383 . S
C1609 H1602 0.950 . S
C1609 C1606 1.387 . S
C1610 C1611 1.387 . S
C1610 H1614 0.950 . S
C1610 C1619 1.390 . S
C1611 C1610 1.387 . S
C1611 C1613 1.387 . S
H1612 C1619 0.950 . S
C1613 C1611 1.387 . S
C1613 C1615 1.390 . S
C1613 H1617 0.950 . S
H1614 C1610 0.950 . S
C1615 C1613 1.390 . S
C1615 C1616 1.387 . S
C1615 H1618 0.950 . S
C1616 C1615 1.387 . S
C1616 C1619 1.387 . S
H1617 C1613 0.950 . S
H1618 C1615 0.950 . S
C1619 C1610 1.390 . S
C1619 H1612 0.950 . S
C1619 C1616 1.387 . S
C1620 C1621 1.387 . S
C1620 H1624 0.950 . S
C1620 C1629 1.390 1_455 S
C1621 C1620 1.387 . S
C1621 C1623 1.387 . S
H1622 C1629 0.950 . S
C1623 C1621 1.387 . S
C1623 C1625 1.390 1_455 S
C1623 H1627 0.950 . S
H1624 C1620 0.950 . S
C1625 C1623 1.390 1_655 S
C1625 C1626 1.387 . S
C1625 H1628 0.950 . S
C1626 C1625 1.387 . S
C1626 C1629 1.387 . S
H1627 C1623 0.950 . S
H1628 C1625 0.950 . S
C1629 C1620 1.390 1_655 S
C1629 H1622 0.950 . S
C1629 C1626 1.387 . S
C1630 C1631 1.387 . S
C1630 H1634 0.950 . S
C1630 C1639 1.390 . S
C1631 C1630 1.387 . S
C1631 C1633 1.387 . S
H1632 C1639 0.950 . S
C1633 C1631 1.387 . S
C1633 C1635 1.390 . S
C1633 H1637 0.950 . S
H1634 C1630 0.950 . S
C1635 C1633 1.390 . S
C1635 C1636 1.387 . S
C1635 H1638 0.950 . S
C1636 C1635 1.387 . S
C1636 C1639 1.387 . S
H1637 C1633 0.950 . S
H1638 C1635 0.950 . S
C1639 C1630 1.390 . S
C1639 H1632 0.950 . S
C1639 C1636 1.387 . S
C1640 C1641 1.387 . S
C1640 H1644 0.950 . S
C1640 C1649 1.390 1_545 S
C1641 C1640 1.387 . S
C1641 C1643 1.387 . S
H1642 C1649 0.950 . S
C1643 C1641 1.387 . S
C1643 C1645 1.390 1_545 S
C1643 H1647 0.950 . S
H1644 C1640 0.950 . S
C1645 C1643 1.390 1_565 S
C1645 C1646 1.387 . S
C1645 H1648 0.950 . S
C1646 C1645 1.387 . S
C1646 C1649 1.387 . S
H1647 C1643 0.950 . S
H1648 C1645 0.950 . S
C1649 C1640 1.390 1_565 S
C1649 H1642 0.950 . S
C1649 C1646 1.387 . S
C1650 C1651 1.387 . S
C1650 H1654 0.950 . S
C1650 C1659 1.390 1_455 S
C1651 C1650 1.387 . S
C1651 C1653 1.387 . S
H1652 C1659 0.950 . S
C1653 C1651 1.387 . S
C1653 C1655 1.390 1_455 S
C1653 H1657 0.950 . S
H1654 C1650 0.950 . S
C1655 C1653 1.390 1_655 S
C1655 C1656 1.387 . S
C1655 H1658 0.950 . S
C1656 C1655 1.387 . S
C1656 C1659 1.387 . S
H1657 C1653 0.950 . S
H1658 C1655 0.950 . S
C1659 C1650 1.390 1_655 S
C1659 H1652 0.950 . S
C1659 C1656 1.387 . S
C1660 C1661 1.387 . S
C1660 H1664 0.950 . S
C1660 C1669 1.390 . S
C1661 C1660 1.387 . S
C1661 C1663 1.387 . S
H1662 C1669 0.950 . S
C1663 C1661 1.387 . S
C1663 C1665 1.390 . S
C1663 H1667 0.950 . S
H1664 C1660 0.950 . S
C1665 C1663 1.390 . S
C1665 C1666 1.387 . S
C1665 H1668 0.950 . S
C1666 C1665 1.387 . S
C1666 C1669 1.387 . S
H1667 C1663 0.950 . S
H1668 C1665 0.950 . S
C1669 C1660 1.390 . S
C1669 H1662 0.950 . S
C1669 C1666 1.387 . S
C1670 C1671 1.387 . S
C1670 H1674 0.950 . S
C1670 C1679 1.390 1_565 S
C1671 C1670 1.387 . S
C1671 C1673 1.387 . S
H1672 C1679 0.950 . S
C1673 C1671 1.387 . S
C1673 C1675 1.390 1_565 S
C1673 H1677 0.950 . S
H1674 C1670 0.950 . S
C1675 C1673 1.390 1_545 S
C1675 C1676 1.387 . S
C1675 H1678 0.950 . S
C1676 C1675 1.387 . S
C1676 C1679 1.387 . S
H1677 C1673 0.950 . S
H1678 C1675 0.950 . S
C1679 C1670 1.390 1_545 S
C1679 H1672 0.950 . S
C1679 C1676 1.387 . S
C1680 C1681 1.387 . S
C1680 H1684 0.950 . S
C1680 C1689 1.390 . S
C1681 C1680 1.387 . S
C1681 C1683 1.387 . S
H1682 C1689 0.950 . S
C1683 C1681 1.387 . S
C1683 C1685 1.390 . S
C1683 H1687 0.950 . S
H1684 C1680 0.950 . S
C1685 C1683 1.390 . S
C1685 C1686 1.387 . S
C1685 H1688 0.950 . S
C1686 C1685 1.387 . S
C1686 C1689 1.387 . S
H1687 C1683 0.950 . S
H1688 C1685 0.950 . S
C1689 C1680 1.390 . S
C1689 H1682 0.950 . S
C1689 C1686 1.387 . S
C1690 C1691 1.387 . S
C1690 H1694 0.950 . S
C1690 C1699 1.390 . S
C1691 C1690 1.387 . S
C1691 C1693 1.387 . S
H1692 C1699 0.950 . S
C1693 C1691 1.387 . S
C1693 C1695 1.390 . S
C1693 H1697 0.950 . S
H1694 C1690 0.950 . S
C1695 C1693 1.390 . S
C1695 C1696 1.387 . S
C1695 H1698 0.950 . S
C1696 C1695 1.387 . S
C1696 C1699 1.387 . S
H1697 C1693 0.950 . S
H1698 C1695 0.950 . S
C1699 C1690 1.390 . S
C1699 H1692 0.950 . S
C1699 C1696 1.387 . S
C1700 C1701 1.387 . S
C1700 H1704 0.950 . S
C1700 C1709 1.390 . S
C1701 C1700 1.387 . S
C1701 C1703 1.387 . S
H1702 C1709 0.950 . S
C1703 C1701 1.387 . S
C1703 C1705 1.390 . S
C1703 H1707 0.950 . S
H1704 C1700 0.950 . S
C1705 C1703 1.390 . S
C1705 C1706 1.387 . S
C1705 H1708 0.950 . S
C1706 C1705 1.387 . S
C1706 C1709 1.387 . S
H1707 C1703 0.950 . S
H1708 C1705 0.950 . S
C1709 C1700 1.390 . S
C1709 H1702 0.950 . S
C1709 C1706 1.387 . S
C1710 C1711 1.387 . S
C1710 H1714 0.950 . S
C1710 C1719 1.390 . S
C1711 C1710 1.387 . S
C1711 C1713 1.387 . S
H1712 C1719 0.950 . S
C1713 C1711 1.387 . S
C1713 C1715 1.390 . S
C1713 H1717 0.950 . S
H1714 C1710 0.950 . S
C1715 C1713 1.390 . S
C1715 C1716 1.387 . S
C1715 H1718 0.950 . S
C1716 C1715 1.387 . S
C1716 C1719 1.387 . S
H1717 C1713 0.950 . S
H1718 C1715 0.950 . S
C1719 C1710 1.390 . S
C1719 H1712 0.950 . S
C1719 C1716 1.387 . S
C1720 C1721 1.387 . S
C1720 H1724 0.950 . S
C1720 C1729 1.390 . S
C1721 C1720 1.387 . S
C1721 C1723 1.387 . S
H1722 C1729 0.950 . S
C1723 C1721 1.387 . S
C1723 C1725 1.390 . S
C1723 H1727 0.950 . S
H1724 C1720 0.950 . S
C1725 C1723 1.390 . S
C1725 C1726 1.387 . S
C1725 H1728 0.950 . S
C1726 C1725 1.387 . S
C1726 C1729 1.387 . S
H1727 C1723 0.950 . S
H1728 C1725 0.950 . S
C1729 C1720 1.390 . S
C1729 H1722 0.950 . S
C1729 C1726 1.387 . S
C1730 C1731 1.387 . S
C1730 H1734 0.950 . S
C1730 C1739 1.390 . S
C1731 C1730 1.387 . S
C1731 C1733 1.387 . S
H1732 C1739 0.950 . S
C1733 C1731 1.387 . S
C1733 C1735 1.390 . S
C1733 H1737 0.950 . S
H1734 C1730 0.950 . S
C1735 C1733 1.390 . S
C1735 C1736 1.387 . S
C1735 H1738 0.950 . S
C1736 C1735 1.387 . S
C1736 C1739 1.387 . S
H1737 C1733 0.950 . S
H1738 C1735 0.950 . S
C1739 C1730 1.390 . S
C1739 H1732 0.950 . S
C1739 C1736 1.387 . S
C1740 C1741 1.387 . S
C1740 H1744 0.950 . S
C1740 C1749 1.390 . S
C1741 C1740 1.387 . S
C1741 C1743 1.387 . S
H1742 C1749 0.950 . S
C1743 C1741 1.387 . S
C1743 C1745 1.390 . S
C1743 H1747 0.950 . S
H1744 C1740 0.950 . S
C1745 C1743 1.390 . S
C1745 C1746 1.387 . S
C1745 H1748 0.950 . S
C1746 C1745 1.387 . S
C1746 C1749 1.387 . S
H1747 C1743 0.950 . S
H1748 C1745 0.950 . S
C1749 C1740 1.390 . S
C1749 H1742 0.950 . S
C1749 C1746 1.387 . S
C1750 C1751 1.387 . S
C1750 H1754 0.950 . S
C1750 C1759 1.390 . S
C1751 C1750 1.387 . S
C1751 C1753 1.387 . S
H1752 C1759 0.950 . S
C1753 C1751 1.387 . S
C1753 C1755 1.390 . S
C1753 H1757 0.950 . S
H1754 C1750 0.950 . S
C1755 C1753 1.390 . S
C1755 C1756 1.387 . S
C1755 H1758 0.950 . S
C1756 C1755 1.387 . S
C1756 C1759 1.387 . S
H1757 C1753 0.950 . S
H1758 C1755 0.950 . S
C1759 C1750 1.390 . S
C1759 H1752 0.950 . S
C1759 C1756 1.387 . S
C1760 C1761 1.387 . S
C1760 H1764 0.950 . S
C1760 C1769 1.390 . S
C1761 C1760 1.387 . S
C1761 C1763 1.387 . S
H1762 C1769 0.950 . S
C1763 C1761 1.387 . S
C1763 C1765 1.390 . S
C1763 H1767 0.950 . S
H1764 C1760 0.950 . S
C1765 C1763 1.390 . S
C1765 C1766 1.387 . S
C1765 H1768 0.950 . S
C1766 C1765 1.387 . S
C1766 C1769 1.387 . S
H1767 C1763 0.950 . S
H1768 C1765 0.950 . S
C1769 C1760 1.390 . S
C1769 H1762 0.950 . S
C1769 C1766 1.387 . S
C1770 C1771 1.387 . S
C1770 H1774 0.950 . S
C1770 C1779 1.390 . S
C1771 C1770 1.387 . S
C1771 C1773 1.387 . S
H1772 C1779 0.950 . S
C1773 C1771 1.387 . S
C1773 C1775 1.390 . S
C1773 H1777 0.950 . S
H1774 C1770 0.950 . S
C1775 C1773 1.390 . S
C1775 C1776 1.387 . S
C1775 H1778 0.950 . S
C1776 C1775 1.387 . S
C1776 C1779 1.387 . S
H1777 C1773 0.950 . S
H1778 C1775 0.950 . S
C1779 C1770 1.390 . S
C1779 H1772 0.950 . S
C1779 C1776 1.387 . S
C1780 C1781 1.387 . S
C1780 H1784 0.950 . S
C1780 C1789 1.390 . S
C1781 C1780 1.387 . S
C1781 C1783 1.387 . S
H1782 C1789 0.950 . S
C1783 C1781 1.387 . S
C1783 C1785 1.390 . S
C1783 H1787 0.950 . S
H1784 C1780 0.950 . S
C1785 C1783 1.390 . S
C1785 C1786 1.387 . S
C1785 H1788 0.950 . S
C1786 C1785 1.387 . S
C1786 C1789 1.387 . S
H1787 C1783 0.950 . S
H1788 C1785 0.950 . S
C1789 C1780 1.390 . S
C1789 H1782 0.950 . S
C1789 C1786 1.387 . S
C1790 C1791 1.387 . S
C1790 H1794 0.950 . S
C1790 C1799 1.390 . S
C1791 C1790 1.387 . S
C1791 C1793 1.387 . S
H1792 C1799 0.950 . S
C1793 C1791 1.387 . S
C1793 C1795 1.390 . S
C1793 H1797 0.950 . S
H1794 C1790 0.950 . S
C1795 C1793 1.390 . S
C1795 C1796 1.387 . S
C1795 H1798 0.950 . S
C1796 C1795 1.387 . S
C1796 C1799 1.387 . S
H1797 C1793 0.950 . S
H1798 C1795 0.950 . S
C1799 C1790 1.390 . S
C1799 H1792 0.950 . S
C1799 C1796 1.387 . S
C1800 C1801 1.387 . S
C1800 H1804 0.950 . S
C1800 C1809 1.390 . S
C1801 C1800 1.387 . S
C1801 C1803 1.387 . S
H1802 C1809 0.950 . S
C1803 C1801 1.387 . S
C1803 C1805 1.390 . S
C1803 H1807 0.950 . S
H1804 C1800 0.950 . S
C1805 C1803 1.390 . S
C1805 C1806 1.387 . S
C1805 H1808 0.950 . S
C1806 C1805 1.387 . S
C1806 C1809 1.387 . S
H1807 C1803 0.950 . S
H1808 C1805 0.950 . S
C1809 C1800 1.390 . S
C1809 H1802 0.950 . S
C1809 C1806 1.387 . S
C1810 C1811 1.387 . S
C1810 H1814 0.950 . S
C1810 C1819 1.390 . S
C1811 C1810 1.387 . S
C1811 C1813 1.387 . S
H1812 C1819 0.950 . S
C1813 C1811 1.387 . S
C1813 C1815 1.390 . S
C1813 H1817 0.950 . S
H1814 C1810 0.950 . S
C1815 C1813 1.390 . S
C1815 C1816 1.387 . S
C1815 H1818 0.950 . S
C1816 C1815 1.387 . S
C1816 C1819 1.387 . S
H1817 C1813 0.950 . S
H1818 C1815 0.950 . S
C1819 C1810 1.390 . S
C1819 H1812 0.950 . S
C1819 C1816 1.387 . S
C1820 C1821 1.387 . S
C1820 H1824 0.950 . S
C1820 C1829 1.390 . S
C1821 C1820 1.387 . S
C1821 C1823 1.387 . S
H1822 C1829 0.950 . S
C1823 C1821 1.387 . S
C1823 C1825 1.390 . S
C1823 H1827 0.950 . S
H1824 C1820 0.950 . S
C1825 C1823 1.390 . S
C1825 C1826 1.387 . S
C1825 H1828 0.950 . S
C1826 C1825 1.387 . S
C1826 C1829 1.387 . S
H1827 C1823 0.950 . S
H1828 C1825 0.950 . S
C1829 C1820 1.390 . S
C1829 H1822 0.950 . S
C1829 C1826 1.387 . S
C1830 C1831 1.387 . S
C1830 H1834 0.950 . S
C1830 C1839 1.390 . S
C1831 C1830 1.387 . S
C1831 C1833 1.387 . S
H1832 C1839 0.950 . S
C1833 C1831 1.387 . S
C1833 C1835 1.390 . S
C1833 H1837 0.950 . S
H1834 C1830 0.950 . S
C1835 C1833 1.390 . S
C1835 C1836 1.387 . S
C1835 H1838 0.950 . S
C1836 C1835 1.387 . S
C1836 C1839 1.387 . S
H1837 C1833 0.950 . S
H1838 C1835 0.950 . S
C1839 C1830 1.390 . S
C1839 H1832 0.950 . S
C1839 C1836 1.387 . S
C1840 C1841 1.387 . S
C1840 H1844 0.950 . S
C1840 C1849 1.390 . S
C1841 C1840 1.387 . S
C1841 C1843 1.387 . S
H1842 C1849 0.950 . S
C1843 C1841 1.387 . S
C1843 C1845 1.390 . S
C1843 H1847 0.950 . S
H1844 C1840 0.950 . S
C1845 C1843 1.390 . S
C1845 C1846 1.387 . S
C1845 H1848 0.950 . S
C1846 C1845 1.387 . S
C1846 C1849 1.387 . S
H1847 C1843 0.950 . S
H1848 C1845 0.950 . S
C1849 C1840 1.390 . S
C1849 H1842 0.950 . S
C1849 C1846 1.387 . S
C1850 C1851 1.387 . S
C1850 H1854 0.950 . S
C1850 C1859 1.390 . S
C1851 C1850 1.387 . S
C1851 C1853 1.387 . S
H1852 C1859 0.950 . S
C1853 C1851 1.387 . S
C1853 C1855 1.390 . S
C1853 H1857 0.950 . S
H1854 C1850 0.950 . S
C1855 C1853 1.390 . S
C1855 C1856 1.387 . S
C1855 H1858 0.950 . S
C1856 C1855 1.387 . S
C1856 C1859 1.387 . S
H1857 C1853 0.950 . S
H1858 C1855 0.950 . S
C1859 C1850 1.390 . S
C1859 H1852 0.950 . S
C1859 C1856 1.387 . S
C1860 C1861 1.387 . S
C1860 H1864 0.950 . S
C1860 C1869 1.390 . S
C1861 C1860 1.387 . S
C1861 C1863 1.387 . S
H1862 C1869 0.950 . S
C1863 C1861 1.387 . S
C1863 C1865 1.390 . S
C1863 H1867 0.950 . S
H1864 C1860 0.950 . S
C1865 C1863 1.390 . S
C1865 C1866 1.387 . S
C1865 H1868 0.950 . S
C1866 C1865 1.387 . S
C1866 C1869 1.387 . S
H1867 C1863 0.950 . S
H1868 C1865 0.950 . S
C1869 C1860 1.390 . S
C1869 H1862 0.950 . S
C1869 C1866 1.387 . S
C1870 C1871 1.387 . S
C1870 H1874 0.950 . S
C1870 C1879 1.390 . S
C1871 C1870 1.387 . S
C1871 C1873 1.387 . S
H1872 C1879 0.950 . S
C1873 C1871 1.387 . S
C1873 C1875 1.390 . S
C1873 H1877 0.950 . S
H1874 C1870 0.950 . S
C1875 C1873 1.390 . S
C1875 C1876 1.387 . S
C1875 H1878 0.950 . S
C1876 C1875 1.387 . S
C1876 C1879 1.387 . S
H1877 C1873 0.950 . S
H1878 C1875 0.950 . S
C1879 C1870 1.390 . S
C1879 H1872 0.950 . S
C1879 C1876 1.387 . S
C1880 C1881 1.387 . S
C1880 H1884 0.950 . S
C1880 C1889 1.390 . S
C1881 C1880 1.387 . S
C1881 C1883 1.387 . S
H1882 C1889 0.950 . S
C1883 C1881 1.387 . S
C1883 C1885 1.390 . S
C1883 H1887 0.950 . S
H1884 C1880 0.950 . S
C1885 C1883 1.390 . S
C1885 C1886 1.387 . S
C1885 H1888 0.950 . S
C1886 C1885 1.387 . S
C1886 C1889 1.387 . S
H1887 C1883 0.950 . S
H1888 C1885 0.950 . S
C1889 C1880 1.390 . S
C1889 H1882 0.950 . S
C1889 C1886 1.387 . S
C1890 C1891 1.387 . S
C1890 H1894 0.950 . S
C1890 C1899 1.390 . S
C1891 C1890 1.387 . S
C1891 C1893 1.387 . S
H1892 C1899 0.950 . S
C1893 C1891 1.387 . S
C1893 C1895 1.390 . S
C1893 H1897 0.950 . S
H1894 C1890 0.950 . S
C1895 C1893 1.390 . S
C1895 C1896 1.387 . S
C1895 H1898 0.950 . S
C1896 C1895 1.387 . S
C1896 C1899 1.387 . S
H1897 C1893 0.950 . S
H1898 C1895 0.950 . S
C1899 C1890 1.390 . S
C1899 H1892 0.950 . S
C1899 C1896 1.387 . S
C1900 C1901 1.387 . S
C1900 H1904 0.950 . S
C1900 C1909 1.390 . S
C1901 C1900 1.387 . S
C1901 C1903 1.387 . S
H1902 C1909 0.950 . S
C1903 C1901 1.387 . S
C1903 C1905 1.390 . S
C1903 H1907 0.950 . S
H1904 C1900 0.950 . S
C1905 C1903 1.390 . S
C1905 C1906 1.387 . S
C1905 H1908 0.950 . S
C1906 C1905 1.387 . S
C1906 C1909 1.387 . S
H1907 C1903 0.950 . S
H1908 C1905 0.950 . S
C1909 C1900 1.390 . S
C1909 H1902 0.950 . S
C1909 C1906 1.387 . S
C1910 C1911 1.387 . S
C1910 H1914 0.950 . S
C1910 C1919 1.390 . S
C1911 C1910 1.387 . S
C1911 C1913 1.387 . S
H1912 C1919 0.950 . S
C1913 C1911 1.387 . S
C1913 C1915 1.390 . S
C1913 H1917 0.950 . S
H1914 C1910 0.950 . S
C1915 C1913 1.390 . S
C1915 C1916 1.387 . S
C1915 H1918 0.950 . S
C1916 C1915 1.387 . S
C1916 C1919 1.387 . S
H1917 C1913 0.950 . S
H1918 C1915 0.950 . S
C1919 C1910 1.390 . S
C1919 H1912 0.950 . S
C1919 C1916 1.387 . S
C1920 C1921 1.387 1_655 S
C1920 H1924 0.950 . S
C1920 C1929 1.390 . S
C1921 C1920 1.387 1_455 S
C1921 C1923 1.387 . S
H1922 C1929 0.950 . S
C1923 C1921 1.387 . S
C1923 C1925 1.390 . S
C1923 H1927 0.950 . S
H1924 C1920 0.950 . S
C1925 C1923 1.390 . S
C1925 C1926 1.387 1_455 S
C1925 H1928 0.950 . S
C1926 C1925 1.387 1_655 S
C1926 C1929 1.387 . S
H1927 C1923 0.950 . S
H1928 C1925 0.950 . S
C1929 C1920 1.390 . S
C1929 H1922 0.950 . S
C1929 C1926 1.387 . S
C1930 C1931 1.387 . S
C1930 H1934 0.950 . S
C1930 C1939 1.390 . S
C1931 C1930 1.387 . S
C1931 C1933 1.387 . S
H1932 C1939 0.950 . S
C1933 C1931 1.387 . S
C1933 C1935 1.390 . S
C1933 H1937 0.950 . S
H1934 C1930 0.950 . S
C1935 C1933 1.390 . S
C1935 C1936 1.387 . S
C1935 H1938 0.950 . S
C1936 C1935 1.387 . S
C1936 C1939 1.387 . S
H1937 C1933 0.950 . S
H1938 C1935 0.950 . S
C1939 C1930 1.390 . S
C1939 H1932 0.950 . S
C1939 C1936 1.387 . S
C1940 C1941 1.369 1_565 S
C1940 H1944 0.932 . S
C1940 C1949 1.430 . S
C1941 C1940 1.369 1_545 S
C1941 C1943 1.387 . S
H1942 C1949 0.950 . S
C1943 C1941 1.387 . S
C1943 C1945 1.430 . S
C1943 H1947 0.950 . S
H1944 C1940 0.932 . S
C1945 C1943 1.430 . S
C1945 C1946 1.369 1_545 S
C1945 H1948 0.932 . S
C1946 C1945 1.369 1_565 S
C1946 C1949 1.387 . S
H1947 C1943 0.950 . S
H1948 C1945 0.932 . S
C1949 C1940 1.430 . S
C1949 H1942 0.950 . S
C1949 C1946 1.387 . S
C1950 C1951 1.387 . S
C1950 H1954 0.950 . S
C1950 C1959 1.390 1_544 S
C1951 C1950 1.387 . S
C1951 C1953 1.387 . S
H1952 C1959 0.950 . S
C1953 C1951 1.387 . S
C1953 C1955 1.390 1_544 S
C1953 H1957 0.950 . S
H1954 C1950 0.950 . S
C1955 C1953 1.390 1_566 S
C1955 C1956 1.387 . S
C1955 H1958 0.950 . S
C1956 C1955 1.387 . S
C1956 C1959 1.387 . S
H1957 C1953 0.950 . S
H1958 C1955 0.950 . S
C1959 C1950 1.390 1_566 S
C1959 H1952 0.950 . S
C1959 C1956 1.387 . S
C1960 C1961 1.357 1_554 S
C1960 H1964 0.952 . S
C1960 C1969 1.420 . S
C1961 C1960 1.357 1_556 S
C1961 C1963 1.387 1_455 S
H1962 C1969 0.950 . S
C1963 C1961 1.387 1_655 S
C1963 C1965 1.420 . S
C1963 H1967 0.950 . S
H1964 C1960 0.952 . S
C1965 C1963 1.420 . S
C1965 C1966 1.357 1_556 S
C1965 H1968 0.952 . S
C1966 C1965 1.357 1_554 S
C1966 C1969 1.387 1_655 S
H1967 C1963 0.950 . S
H1968 C1965 0.952 . S
C1969 C1960 1.420 . S
C1969 H1962 0.950 . S
C1969 C1966 1.387 1_455 S
C1970 C1971 1.387 1_556 S
C1970 H1974 0.950 . S
C1970 C1979 1.390 . S
C1971 C1970 1.387 1_554 S
C1971 C1973 1.387 . S
H1972 C1979 0.950 . S
C1973 C1971 1.387 . S
C1973 C1975 1.390 . S
C1973 H1977 0.950 . S
H1974 C1970 0.950 . S
C1975 C1973 1.390 . S
C1975 C1976 1.387 1_554 S
C1975 H1978 0.950 . S
C1976 C1975 1.387 1_556 S
C1976 C1979 1.387 . S
H1977 C1973 0.950 . S
H1978 C1975 0.950 . S
C1979 C1970 1.390 . S
C1979 H1972 0.950 . S
C1979 C1976 1.387 . S
C1441 C21 1.729 . S
C1446 C1181 1.729 . S
C1451 C61 1.730 . S
C1456 C1101 1.729 . S
C1461 C101 1.732 . S
C1466 C1141 1.731 . S
C1471 C141 1.729 . S
C1476 C541 1.731 . S
C1481 C581 1.732 . S
C1486 C181 1.730 . S
C1491 C221 1.729 . S
C1496 C501 1.729 . S
C1501 C261 1.835 . S
C1506 C941 1.835 . S
C1511 C301 1.834 . S
C1516 C861 1.834 . S
C1521 C341 1.834 . S
C1526 C901 1.834 . S
C1531 C1261 1.834 . S
C1536 C381 1.834 . S
C1541 C421 1.835 . S
C1546 C1301 1.835 . S
C1551 C461 1.834 . S
C1556 C1221 1.834 . S
C1561 C621 1.733 . S
C1566 C1021 1.731 . S
C1571 C661 1.730 . S
C1576 C1061 1.732 . S
C1581 C701 1.732 . S
C1586 C981 1.732 . S
C1591 C1421 1.835 . S
C1596 C741 1.835 . S
C1601 C781 1.834 . S
C1606 C1341 1.834 . S
C1611 C1381 1.834 . S
C1616 C821 1.834 . S
C1621 C2 1.653 . S
C1626 C162 1.651 . S
C1631 C202 1.652 . S
C1636 C42 1.651 . S
C1641 C122 1.651 . S
C1646 C82 1.651 . S
C1651 C402 1.685 . S
C1656 C242 1.685 . S
C1661 C282 1.686 . S
C1666 C442 1.686 . S
C1671 C362 1.685 . S
C1676 C322 1.685 . S
C1681 C482 1.653 . S
C1686 C642 1.650 . S
C1691 C522 1.653 . S
C1696 C682 1.652 . S
C1701 C602 1.652 . S
C1706 C562 1.652 . S
C1711 C722 1.685 . S
C1716 C882 1.685 . S
C1721 C762 1.686 . S
C1726 C922 1.686 . S
C1731 C842 1.685 . S
C1736 C802 1.685 . S
C1741 C962 1.651 . S
C1746 C1122 1.652 . S
C1751 C1002 1.651 . S
C1756 C1162 1.653 . S
C1761 C1042 1.652 . S
C1766 C1082 1.652 . S
C1771 C1362 1.685 . S
C1776 C1202 1.685 . S
C1781 C1242 1.686 . S
C1786 C1402 1.685 . S
C1791 C1322 1.685 . S
C1796 C1282 1.685 . S
C1801 C1215 1.950 . S
C1806 C15 1.937 . S
C1811 C1255 1.949 . S
C1816 C55 1.935 . S
C1821 C1295 1.948 . S
C1826 C95 1.934 . S
C1831 C135 1.934 . S
C1836 C855 1.947 . S
C1841 C895 1.950 . S
C1846 C175 1.937 . S
C1851 C215 1.935 . S
C1856 C935 1.948 . S
C1861 C495 1.936 . S
C1866 C255 1.949 . S
C1871 C535 1.936 . S
C1876 C295 1.949 . S
C1881 C575 1.934 . S
C1886 C335 1.948 . S
C1891 C1095 1.934 . S
C1896 C375 1.947 . S
C1901 C415 1.950 . S
C1906 C1135 1.936 . S
C1911 C455 1.950 . S
C1916 C1175 1.937 . S
C1921 C1335 1.947 . S
C1926 C615 1.934 . S
C1931 C1375 1.949 . S
C1936 C655 1.936 . S
C1941 C695 1.936 . S
C1946 C1415 1.950 . S
C1951 C735 1.949 . S
C1956 C975 1.935 . S
C1961 C1015 1.936 . S
C1966 C775 1.950 . S
C1971 C815 1.951 . S
C1976 C1055 1.937 . S
