# Generated by pormake.
# Topology ukk, (4)-cn, num edge types: 1
# Building blocks:
#     Node 0, Type 0, BuildingBlock: ICAMEG_clean_sbu_1, # of connection points: 4
#     Node 1, Type 0, BuildingBlock: ICAMEG_clean_sbu_1, # of connection points: 4
#     Node 2, Type 0, BuildingBlock: ICAMEG_clean_sbu_1, # of connection points: 4
#     Node 3, Type 0, BuildingBlock: ICAMEG_clean_sbu_1, # of connection points: 4
#     Node 4, Type 0, BuildingBlock: ICAMEG_clean_sbu_1, # of connection points: 4
#     Node 5, Type 0, BuildingBlock: ICAMEG_clean_sbu_1, # of connection points: 4
#     Node 6, Type 0, BuildingBlock: ICAMEG_clean_sbu_1, # of connection points: 4
#     Node 7, Type 0, BuildingBlock: ICAMEG_clean_sbu_1, # of connection points: 4
#     Node 8, Type 0, BuildingBlock: ICAMEG_clean_sbu_1, # of connection points: 4
#     Node 9, Type 0, BuildingBlock: ICAMEG_clean_sbu_1, # of connection points: 4
#     Node 10, Type 0, BuildingBlock: ICAMEG_clean_sbu_1, # of connection points: 4
#     Node 11, Type 0, BuildingBlock: ICAMEG_clean_sbu_1, # of connection points: 4
#     Node 12, Type 0, BuildingBlock: ICAMEG_clean_sbu_1, # of connection points: 4
#     Node 13, Type 0, BuildingBlock: ICAMEG_clean_sbu_1, # of connection points: 4
#     Node 14, Type 0, BuildingBlock: ICAMEG_clean_sbu_1, # of connection points: 4
#     Node 15, Type 0, BuildingBlock: ICAMEG_clean_sbu_1, # of connection points: 4
#     Edge 16, Type (0, 0), BuildingBlock: OJICUG_clean_linker_0, # of connection points: 2
#     Edge 17, Type (0, 0), BuildingBlock: OJICUG_clean_linker_0, # of connection points: 2
#     Edge 18, Type (0, 0), BuildingBlock: OJICUG_clean_linker_0, # of connection points: 2
#     Edge 19, Type (0, 0), BuildingBlock: OJICUG_clean_linker_0, # of connection points: 2
#     Edge 20, Type (0, 0), BuildingBlock: OJICUG_clean_linker_0, # of connection points: 2
#     Edge 21, Type (0, 0), BuildingBlock: OJICUG_clean_linker_0, # of connection points: 2
#     Edge 22, Type (0, 0), BuildingBlock: OJICUG_clean_linker_0, # of connection points: 2
#     Edge 23, Type (0, 0), BuildingBlock: OJICUG_clean_linker_0, # of connection points: 2
#     Edge 24, Type (0, 0), BuildingBlock: OJICUG_clean_linker_0, # of connection points: 2
#     Edge 25, Type (0, 0), BuildingBlock: OJICUG_clean_linker_0, # of connection points: 2
#     Edge 26, Type (0, 0), BuildingBlock: OJICUG_clean_linker_0, # of connection points: 2
#     Edge 27, Type (0, 0), BuildingBlock: OJICUG_clean_linker_0, # of connection points: 2
#     Edge 28, Type (0, 0), BuildingBlock: OJICUG_clean_linker_0, # of connection points: 2
#     Edge 29, Type (0, 0), BuildingBlock: OJICUG_clean_linker_0, # of connection points: 2
#     Edge 30, Type (0, 0), BuildingBlock: OJICUG_clean_linker_0, # of connection points: 2
#     Edge 31, Type (0, 0), BuildingBlock: OJICUG_clean_linker_0, # of connection points: 2
#     Edge 32, Type (0, 0), BuildingBlock: OJICUG_clean_linker_0, # of connection points: 2
#     Edge 33, Type (0, 0), BuildingBlock: OJICUG_clean_linker_0, # of connection points: 2
#     Edge 34, Type (0, 0), BuildingBlock: OJICUG_clean_linker_0, # of connection points: 2
#     Edge 35, Type (0, 0), BuildingBlock: OJICUG_clean_linker_0, # of connection points: 2
#     Edge 36, Type (0, 0), BuildingBlock: OJICUG_clean_linker_0, # of connection points: 2
#     Edge 37, Type (0, 0), BuildingBlock: OJICUG_clean_linker_0, # of connection points: 2
#     Edge 38, Type (0, 0), BuildingBlock: OJICUG_clean_linker_0, # of connection points: 2
#     Edge 39, Type (0, 0), BuildingBlock: OJICUG_clean_linker_0, # of connection points: 2
#     Edge 40, Type (0, 0), BuildingBlock: OJICUG_clean_linker_0, # of connection points: 2
#     Edge 41, Type (0, 0), BuildingBlock: OJICUG_clean_linker_0, # of connection points: 2
#     Edge 42, Type (0, 0), BuildingBlock: OJICUG_clean_linker_0, # of connection points: 2
#     Edge 43, Type (0, 0), BuildingBlock: OJICUG_clean_linker_0, # of connection points: 2
#     Edge 44, Type (0, 0), BuildingBlock: OJICUG_clean_linker_0, # of connection points: 2
#     Edge 45, Type (0, 0), BuildingBlock: OJICUG_clean_linker_0, # of connection points: 2
#     Edge 46, Type (0, 0), BuildingBlock: OJICUG_clean_linker_0, # of connection points: 2
#     Edge 47, Type (0, 0), BuildingBlock: OJICUG_clean_linker_0, # of connection points: 2
# Relax obj value: 0.064
# Max RMSD: 0.230
# Mean RMSD: 0.222
data_MOF--net-ukk--node1-ICAMEG_clean_sbu_1--edge1-OJICUG_clean_linker_0
_symmetry_space_group_name_H-M    P1
_symmetry_Int_Tables_number       1
_symmetry_cell_setting            triclinic
loop_
_symmetry_equiv_pos_as_xyz
'x, y, z'
_cell_length_a     43.784945
_cell_length_b     43.342293
_cell_length_c     12.433202
_cell_angle_alpha  90.043921
_cell_angle_beta   90.0005
_cell_angle_gamma 89.999546
loop_
_atom_site_label
_atom_site_type_symbol
_atom_site_fract_x
_atom_site_fract_y
_atom_site_fract_z
_atom_type_partial_charge
Co0 Co 0.38915 0.12375 0.22662 0.0
Co1 Co 0.38166 0.13234 0.95118 0.0
O2 O 0.37173 0.11206 0.0877 0.0
C3 C 0.41719 0.06343 0.2852 0.0
O4 O 0.44363 0.07723 0.29893 0.0
C5 C 0.31413 0.13708 0.96961 0.0
O6 O 0.31784 0.1447 0.071 0.0
O7 O 0.37542 0.1733 0.01642 0.0
O8 O 0.38435 0.16881 0.19387 0.0
H9 H 0.42619 0.21743 0.72857 0.0
H10 H 0.33679 0.07996 0.22256 0.0
O11 O 0.39366 0.07878 0.25724 0.0
H12 H 0.3058 0.16448 0.46493 0.0
H13 H 0.4163 0.10457 0.61279 0.0
H14 H 0.43289 0.17159 0.29892 0.0
H15 H 0.3548 0.16679 0.36754 0.0
H16 H 0.38559 0.0977 0.44897 0.0
O17 O 0.33723 0.131 0.91108 0.0
H18 H 0.4229 0.18337 0.88656 0.0
H19 H 0.35717 0.12753 0.72737 0.0
H20 H 0.46253 0.1807 0.46437 0.0
H21 H 0.28777 0.07642 0.32009 0.0
H22 H 0.45465 0.14673 0.62252 0.0
H23 H 0.27277 0.1184 0.44596 0.0
O24 O 0.43023 0.12432 0.16456 0.0
H25 H 0.35396 0.02209 0.87387 0.0
H26 H 0.42992 0.1043 0.81326 0.0
H27 H 0.43826 0.05257 0.73397 0.0
H28 H 0.40011 0.01118 0.76421 0.0
H29 H 0.34658 0.07395 0.95162 0.0
H30 H 0.35799 0.1625 0.5716 0.0
H31 H 0.39261 0.20782 0.57101 0.0
O32 O 0.42667 0.13431 0.98783 0.0
C33 C 0.37842 0.18476 0.10996 0.0
C34 C 0.41099 0.19773 0.72763 0.0
C35 C 0.3726 0.16701 0.6397 0.0
N36 N 0.38992 0.15334 0.81645 0.0
C37 C 0.40947 0.17795 0.81612 0.0
C38 C 0.3723 0.14722 0.7283 0.0
C39 C 0.39203 0.19245 0.63957 0.0
C40 C 0.33007 0.09851 0.27566 0.0
N41 N 0.34882 0.12333 0.29071 0.0
C42 C 0.3023 0.0964 0.33056 0.0
C43 C 0.29374 0.12005 0.40038 0.0
C44 C 0.31237 0.14587 0.41163 0.0
C45 C 0.33998 0.14715 0.35569 0.0
C46 C 0.41986 0.11963 0.54494 0.0
C47 C 0.42861 0.15735 0.36853 0.0
C48 C 0.40245 0.1159 0.45188 0.0
N49 N 0.40758 0.13407 0.36402 0.0
C50 C 0.44577 0.16236 0.46152 0.0
C51 C 0.44151 0.14314 0.54991 0.0
C52 C 0.44205 0.12984 0.07371 0.0
C53 C 0.37071 0.04001 0.8598 0.0
C54 C 0.41327 0.08631 0.82667 0.0
C55 C 0.4181 0.05713 0.78165 0.0
C56 C 0.39664 0.03388 0.79845 0.0
N57 N 0.3877 0.09215 0.88614 0.0
C58 C 0.36662 0.06944 0.90332 0.0
Co59 Co 0.12189 0.62109 0.72157 0.0
Co60 Co 0.07667 0.6288 0.9429 0.0
O61 O 0.11228 0.64144 0.85748 0.0
C62 C 0.17955 0.61378 0.84404 0.0
O63 O 0.16362 0.60046 0.92033 0.0
C64 C 0.08015 0.69783 0.96704 0.0
O65 O 0.09162 0.70017 0.86982 0.0
O66 O 0.05023 0.64052 0.82008 0.0
O67 O 0.07703 0.61929 0.68316 0.0
H68 H 0.97625 0.57558 0.00679 0.0
H69 H 0.15488 0.67908 0.76832 0.0
O70 O 0.16641 0.62317 0.75866 0.0
H71 H 0.10167 0.6971 0.42442 0.0
H72 H 0.19158 0.59151 0.41925 0.0
H73 H 0.09393 0.56951 0.60047 0.0
H74 H 0.09559 0.64776 0.52092 0.0
H75 H 0.17232 0.62612 0.56098 0.0
O76 O 0.07313 0.67152 0.00527 0.0
H77 H 0.02008 0.59316 0.89815 0.0
H78 H 0.05698 0.63987 0.16912 0.0
H79 H 0.11153 0.53522 0.45505 0.0
H80 H 0.16378 0.72724 0.67026 0.0
H81 H 0.16143 0.5452 0.36728 0.0
H82 H 0.13627 0.73729 0.4984 0.0
O83 O 0.1199 0.58053 0.7908 0.0
H84 H 0.16979 0.64272 0.16958 0.0
H85 H 0.08451 0.57274 0.08162 0.0
H86 H 0.12627 0.55432 0.19795 0.0
H87 H 0.1704 0.58894 0.23544 0.0
H88 H 0.12823 0.6598 0.05072 0.0
H89 H 0.01339 0.62308 0.28029 0.0
H90 H 0.97301 0.59028 0.19966 0.0
O91 O 0.07753 0.58504 0.88719 0.0
C92 C 0.0528 0.63162 0.72219 0.0
C93 C 0.99392 0.58963 0.04307 0.0
C94 C 0.01473 0.61635 0.19655 0.0
N95 N 0.04128 0.61716 0.02759 0.0
C96 C 0.01875 0.5997 0.98193 0.0
C97 C 0.03928 0.62589 0.13306 0.0
C98 C 0.99209 0.59788 0.15127 0.0
C99 C 0.14323 0.68288 0.69285 0.0
N100 N 0.12472 0.66067 0.65056 0.0
C101 C 0.14802 0.7105 0.63816 0.0
C102 C 0.13282 0.71587 0.54145 0.0
C103 C 0.11341 0.69334 0.4999 0.0
C104 C 0.10981 0.66558 0.55547 0.0
C105 C 0.16987 0.58678 0.45743 0.0
C106 C 0.11487 0.57498 0.5587 0.0
C107 C 0.15882 0.60635 0.53761 0.0
N108 N 0.13211 0.59977 0.58944 0.0
C109 C 0.12493 0.5552 0.47748 0.0
C110 C 0.15294 0.56082 0.4283 0.0
C111 C 0.09777 0.56868 0.84105 0.0
C112 C 0.15095 0.62736 0.15186 0.0
C113 C 0.10299 0.58825 0.10153 0.0
C114 C 0.12658 0.5777 0.16746 0.0
C115 C 0.15107 0.59722 0.1901 0.0
N116 N 0.10409 0.61722 0.05837 0.0
C117 C 0.12713 0.63702 0.08556 0.0
Co118 Co 0.61651 0.87731 0.21921 0.0
Co119 Co 0.6253 0.8687 0.94431 0.0
O120 O 0.63444 0.88922 0.08127 0.0
C121 C 0.58862 0.93749 0.28194 0.0
O122 O 0.56216 0.92353 0.2926 0.0
C123 C 0.69273 0.86457 0.96524 0.0
O124 O 0.68854 0.85668 0.0661 0.0
O125 O 0.63215 0.82785 0.00919 0.0
O126 O 0.62083 0.83213 0.18482 0.0
H127 H 0.5821 0.78342 0.71844 0.0
H128 H 0.66897 0.92092 0.22021 0.0
O129 O 0.61223 0.92239 0.25256 0.0
H130 H 0.69979 0.83429 0.45308 0.0
H131 H 0.58955 0.8947 0.6069 0.0
H132 H 0.57213 0.82966 0.28825 0.0
H133 H 0.65055 0.83313 0.35697 0.0
H134 H 0.62007 0.90236 0.44311 0.0
O135 O 0.66986 0.87083 0.9057 0.0
H136 H 0.58512 0.81692 0.87813 0.0
H137 H 0.65012 0.8741 0.72132 0.0
H138 H 0.54272 0.81971 0.45353 0.0
H139 H 0.7181 0.92341 0.31738 0.0
H140 H 0.55106 0.85265 0.61424 0.0
H141 H 0.73303 0.88033 0.43846 0.0
O142 O 0.57561 0.87734 0.15531 0.0
H143 H 0.65086 0.97938 0.86548 0.0
H144 H 0.57647 0.89562 0.80645 0.0
H145 H 0.56704 0.94694 0.7267 0.0
H146 H 0.60444 0.98919 0.75595 0.0
H147 H 0.65927 0.92782 0.94419 0.0
H148 H 0.64947 0.83979 0.56371 0.0
H149 H 0.61534 0.79411 0.56087 0.0
O150 O 0.5803 0.86581 0.97985 0.0
C151 C 0.6278 0.81621 0.10168 0.0
C152 C 0.59708 0.80328 0.7184 0.0
C153 C 0.63502 0.83481 0.63171 0.0
N154 N 0.6177 0.84759 0.80926 0.0
C155 C 0.59846 0.82273 0.80792 0.0
C156 C 0.63522 0.85422 0.72137 0.0
C157 C 0.61585 0.80917 0.63034 0.0
C158 C 0.6756 0.90194 0.27147 0.0
N159 N 0.65672 0.87713 0.28428 0.0
C160 C 0.70346 0.90344 0.32604 0.0
C161 C 0.712 0.87916 0.39308 0.0
C162 C 0.69323 0.85338 0.40197 0.0
C163 C 0.66548 0.85276 0.34671 0.0
C164 C 0.5858 0.88008 0.53795 0.0
C165 C 0.57656 0.8435 0.35878 0.0
C166 C 0.60307 0.88428 0.44484 0.0
N167 N 0.59773 0.86665 0.3557 0.0
C168 C 0.55955 0.83799 0.45176 0.0
C169 C 0.56408 0.85662 0.54161 0.0
C170 C 0.56439 0.87094 0.06408 0.0
C171 C 0.63445 0.96112 0.85187 0.0
C172 C 0.5928 0.91395 0.81966 0.0
C173 C 0.58735 0.94292 0.77426 0.0
C174 C 0.60837 0.96663 0.79056 0.0
N175 N 0.6185 0.90871 0.87912 0.0
C176 C 0.63914 0.93186 0.89589 0.0
Co177 Co 0.87377 0.37775 0.7477 0.0
Co178 Co 0.92057 0.37015 0.96368 0.0
O179 O 0.8847 0.35629 0.88045 0.0
C180 C 0.815 0.3662 0.86789 0.0
O181 O 0.83018 0.35217 0.94411 0.0
C182 C 0.92042 0.30145 0.98999 0.0
O183 O 0.91613 0.29849 0.88591 0.0
O184 O 0.94608 0.35707 0.84045 0.0
O185 O 0.91886 0.38016 0.70847 0.0
H186 H 0.02155 0.42333 0.01625 0.0
H187 H 0.84358 0.31681 0.78374 0.0
O188 O 0.82874 0.37604 0.78408 0.0
H189 H 0.89337 0.30936 0.42917 0.0
H190 H 0.80458 0.41052 0.44664 0.0
H191 H 0.90173 0.43067 0.63383 0.0
H192 H 0.89918 0.35609 0.53988 0.0
H193 H 0.82305 0.37491 0.58662 0.0
O194 O 0.92329 0.32815 0.03141 0.0
H195 H 0.97723 0.40492 0.91182 0.0
H196 H 0.94123 0.36102 0.18973 0.0
H197 H 0.88478 0.46608 0.49107 0.0
H198 H 0.83484 0.27111 0.67219 0.0
H199 H 0.83527 0.45687 0.39959 0.0
H200 H 0.86053 0.26667 0.49342 0.0
O201 O 0.87466 0.41699 0.8258 0.0
H202 H 0.83111 0.35879 0.21126 0.0
H203 H 0.91344 0.42845 0.09225 0.0
H204 H 0.87323 0.44819 0.21285 0.0
H205 H 0.83038 0.41369 0.26531 0.0
H206 H 0.87123 0.34019 0.08912 0.0
H207 H 0.98537 0.3786 0.29667 0.0
H208 H 0.02551 0.41041 0.2104 0.0
O209 O 0.92002 0.41332 0.90177 0.0
C210 C 0.94303 0.36663 0.74352 0.0
C211 C 0.00397 0.40972 0.05494 0.0
C212 C 0.98369 0.38455 0.21232 0.0
N213 N 0.95643 0.3823 0.04496 0.0
C214 C 0.97885 0.39919 0.99622 0.0
C215 C 0.95884 0.37455 0.1512 0.0
C216 C 0.00621 0.40248 0.16388 0.0
C217 C 0.85432 0.31548 0.70601 0.0
N218 N 0.87154 0.33933 0.66833 0.0
C219 C 0.84967 0.28921 0.64332 0.0
C220 C 0.86388 0.28685 0.54322 0.0
C221 C 0.88231 0.31083 0.50689 0.0
C222 C 0.88574 0.33713 0.57057 0.0
C223 C 0.82609 0.41494 0.48665 0.0
C224 C 0.88076 0.42574 0.59145 0.0
C225 C 0.83668 0.39483 0.56593 0.0
N226 N 0.86329 0.40086 0.61934 0.0
C227 C 0.87112 0.4461 0.51144 0.0
C228 C 0.84332 0.44093 0.46025 0.0
C229 C 0.89825 0.42944 0.86431 0.0
C230 C 0.84918 0.37419 0.1859 0.0
C231 C 0.89539 0.4131 0.11772 0.0
C232 C 0.87277 0.42439 0.1864 0.0
C233 C 0.84905 0.40495 0.21769 0.0
N234 N 0.89402 0.38349 0.07996 0.0
C235 C 0.87213 0.36375 0.11714 0.0
Co236 Co 0.38561 0.37891 0.03125 0.0
Co237 Co 0.37765 0.36932 0.30583 0.0
O238 O 0.36791 0.39012 0.17015 0.0
C239 C 0.41239 0.43952 0.97067 0.0
O240 O 0.43898 0.42594 0.95791 0.0
C241 C 0.31034 0.36504 0.28766 0.0
O242 O 0.31428 0.35719 0.18659 0.0
O243 O 0.37063 0.32868 0.23946 0.0
O244 O 0.38204 0.33368 0.06394 0.0
H245 H 0.42239 0.28408 0.52819 0.0
H246 H 0.33235 0.42161 0.0339 0.0
O247 O 0.38909 0.42404 0.00019 0.0
H248 H 0.30313 0.33583 0.79422 0.0
H249 H 0.41144 0.39884 0.64456 0.0
H250 H 0.43052 0.3322 0.95758 0.0
H251 H 0.35213 0.33478 0.89178 0.0
H252 H 0.38089 0.40471 0.80898 0.0
O253 O 0.33331 0.37134 0.34655 0.0
H254 H 0.41818 0.31745 0.36871 0.0
H255 H 0.35366 0.3742 0.53013 0.0
H256 H 0.46024 0.32413 0.79156 0.0
H257 H 0.28332 0.4239 0.93598 0.0
H258 H 0.45117 0.35804 0.63383 0.0
H259 H 0.26922 0.3813 0.81139 0.0
O260 O 0.42668 0.37932 0.09383 0.0
H261 H 0.35251 0.47994 0.3878 0.0
H262 H 0.42717 0.39613 0.44143 0.0
H263 H 0.43717 0.44752 0.51994 0.0
H264 H 0.39963 0.48977 0.49357 0.0
H265 H 0.34358 0.42835 0.30979 0.0
H266 H 0.35541 0.33993 0.68764 0.0
H267 H 0.39001 0.29459 0.68813 0.0
O268 O 0.42241 0.3664 0.26811 0.0
C269 C 0.37517 0.31744 0.14634 0.0
C270 C 0.40726 0.30382 0.52929 0.0
C271 C 0.36954 0.33506 0.61861 0.0
N272 N 0.3858 0.34794 0.43992 0.0
C273 C 0.40519 0.3232 0.43983 0.0
C274 C 0.36869 0.35443 0.52897 0.0
C275 C 0.38897 0.30961 0.6187 0.0
C276 C 0.32602 0.40279 0.98139 0.0
N277 N 0.34526 0.37831 0.96723 0.0
C278 C 0.29824 0.40419 0.92629 0.0
C279 C 0.29017 0.38018 0.85722 0.0
C280 C 0.30931 0.3547 0.84696 0.0
C281 C 0.33692 0.35414 0.90304 0.0
C282 C 0.41563 0.3839 0.71225 0.0
C283 C 0.42581 0.34641 0.88832 0.0
C284 C 0.3983 0.38706 0.80571 0.0
N285 N 0.40417 0.36909 0.89351 0.0
C286 C 0.44297 0.34197 0.79489 0.0
C287 C 0.43801 0.36111 0.7067 0.0
C288 C 0.4381 0.37215 0.184 0.0
C289 C 0.36898 0.46167 0.40024 0.0
C290 C 0.41078 0.41446 0.4293 0.0
C291 C 0.41655 0.44348 0.47404 0.0
C292 C 0.39546 0.46719 0.45939 0.0
N293 N 0.38471 0.40921 0.37183 0.0
C294 C 0.36398 0.43237 0.35667 0.0
Co295 Co 0.36985 0.62051 0.00107 0.0
Co296 Co 0.41529 0.6286 0.78154 0.0
O297 O 0.37946 0.64176 0.86646 0.0
C298 C 0.31012 0.63013 0.88489 0.0
O299 O 0.32473 0.6437 0.80635 0.0
C300 C 0.41458 0.69708 0.75202 0.0
O301 O 0.41188 0.70049 0.8566 0.0
O302 O 0.44094 0.64303 0.90234 0.0
O303 O 0.41519 0.61966 0.0373 0.0
H304 H 0.51809 0.57931 0.72652 0.0
H305 H 0.33817 0.68068 0.96352 0.0
O306 O 0.3245 0.62089 0.96818 0.0
H307 H 0.389 0.6905 0.31558 0.0
H308 H 0.30327 0.58655 0.30762 0.0
H309 H 0.40001 0.56889 0.11491 0.0
H310 H 0.39544 0.64352 0.20668 0.0
H311 H 0.32004 0.62244 0.16593 0.0
O312 O 0.41642 0.67022 0.71131 0.0
H313 H 0.4733 0.596 0.83186 0.0
H314 H 0.43456 0.63727 0.55363 0.0
H315 H 0.38477 0.53322 0.25918 0.0
H316 H 0.32907 0.72678 0.07323 0.0
H317 H 0.33543 0.54104 0.35309 0.0
H318 H 0.35516 0.7323 0.25076 0.0
O319 O 0.37156 0.58095 0.92471 0.0
H320 H 0.32393 0.63557 0.54087 0.0
H321 H 0.40944 0.5695 0.65684 0.0
H322 H 0.36894 0.54761 0.54221 0.0
H323 H 0.32449 0.58025 0.49165 0.0
H324 H 0.36442 0.65632 0.65735 0.0
H325 H 0.47916 0.62144 0.44578 0.0
H326 H 0.52105 0.59192 0.53189 0.0
O327 O 0.41643 0.58585 0.84583 0.0
C328 C 0.43869 0.63389 4e-05 0.0
C329 C 0.49982 0.59199 0.68794 0.0
C330 C 0.478 0.61568 0.53039 0.0
N331 N 0.45113 0.61723 0.6987 0.0
C332 C 0.47441 0.60151 0.74717 0.0
C333 C 0.45286 0.62467 0.59201 0.0
C334 C 0.50149 0.59904 0.57874 0.0
C335 C 0.34914 0.68254 0.04073 0.0
N336 N 0.36696 0.65918 0.07881 0.0
C337 C 0.34425 0.709 0.10232 0.0
C338 C 0.35872 0.712 0.20175 0.0
C339 C 0.37772 0.68852 0.23841 0.0
C340 C 0.38147 0.66207 0.17579 0.0
C341 C 0.32473 0.5827 0.26654 0.0
C342 C 0.37914 0.5733 0.15851 0.0
C343 C 0.33433 0.60297 0.18621 0.0
N344 N 0.3608 0.59759 0.13112 0.0
C345 C 0.37048 0.55279 0.23942 0.0
C346 C 0.34278 0.55723 0.29213 0.0
C347 C 0.39538 0.56917 0.88522 0.0
C348 C 0.34269 0.62095 0.56562 0.0
C349 C 0.39069 0.58407 0.63202 0.0
C350 C 0.36789 0.57155 0.56675 0.0
C351 C 0.34326 0.58996 0.53657 0.0
N352 N 0.38861 0.61384 0.66778 0.0
C353 C 0.36584 0.63261 0.63109 0.0
Co354 Co 0.60975 0.62332 0.0083 0.0
Co355 Co 0.61785 0.63004 0.28462 0.0
O356 O 0.62669 0.61 0.14638 0.0
C357 C 0.58727 0.55925 0.0292 0.0
O358 O 0.57675 0.56657 0.12462 0.0
C359 C 0.68544 0.63291 0.26456 0.0
O360 O 0.68179 0.64063 0.16326 0.0
O361 O 0.62513 0.6712 0.22189 0.0
O362 O 0.61811 0.66778 0.0432 0.0
H363 H 0.57791 0.71618 0.51307 0.0
H364 H 0.65821 0.57534 0.00919 0.0
O365 O 0.60141 0.57905 0.97253 0.0
H366 H 0.69609 0.65793 0.77143 0.0
H367 H 0.57718 0.60563 0.6265 0.0
H368 H 0.57074 0.6755 0.93806 0.0
H369 H 0.64726 0.66385 0.86838 0.0
H370 H 0.60882 0.59643 0.78678 0.0
O371 O 0.66229 0.62721 0.32324 0.0
H372 H 0.57895 0.68249 0.35347 0.0
H373 H 0.64221 0.62278 0.50754 0.0
H374 H 0.54018 0.68659 0.77644 0.0
H375 H 0.70692 0.5682 0.91219 0.0
H376 H 0.5427 0.6511 0.61997 0.0
H377 H 0.7254 0.60925 0.78884 0.0
O378 O 0.56888 0.62728 0.07093 0.0
H379 H 0.64185 0.51844 0.35249 0.0
H380 H 0.56948 0.6032 0.42463 0.0
H381 H 0.55977 0.55153 0.50182 0.0
H382 H 0.5961 0.50881 0.46564 0.0
H383 H 0.65072 0.57038 0.27757 0.0
H384 H 0.64343 0.65705 0.66522 0.0
H385 H 0.6114 0.70427 0.66891 0.0
O386 O 0.57289 0.63356 0.24988 0.0
C387 C 0.62371 0.68318 0.12874 0.0
C388 C 0.59206 0.6957 0.51256 0.0
C389 C 0.62893 0.66259 0.59788 0.0
N390 N 0.61064 0.65064 0.42087 0.0
C391 C 0.59229 0.67616 0.42316 0.0
C392 C 0.62803 0.64319 0.50828 0.0
C393 C 0.61097 0.68911 0.59967 0.0
C394 C 0.66644 0.59347 0.95709 0.0
N395 N 0.64975 0.61979 0.9431 0.0
C396 C 0.69403 0.58932 0.90249 0.0
C397 C 0.70454 0.61245 0.83403 0.0
C398 C 0.68799 0.63972 0.8237 0.0
C399 C 0.66047 0.64302 0.87927 0.0
C400 C 0.5759 0.62128 0.69396 0.0
C401 C 0.57297 0.66062 0.8688 0.0
C402 C 0.59382 0.61622 0.78511 0.0
N403 N 0.59168 0.63538 0.87211 0.0
C404 C 0.55519 0.66675 0.77808 0.0
C405 C 0.55646 0.64671 0.69062 0.0
C406 C 0.55741 0.63204 0.16301 0.0
C407 C 0.6259 0.53692 0.36918 0.0
C408 C 0.5854 0.58467 0.409 0.0
C409 C 0.57978 0.55551 0.45274 0.0
C410 C 0.6002 0.53152 0.4325 0.0
N411 N 0.61074 0.5898 0.34756 0.0
C412 C 0.63084 0.56639 0.32722 0.0
Co413 Co 0.62696 0.37715 0.03718 0.0
Co414 Co 0.58398 0.37226 0.81059 0.0
O415 O 0.61868 0.35822 0.89799 0.0
C416 C 0.68526 0.38527 0.92122 0.0
O417 O 0.66963 0.39986 0.84709 0.0
C418 C 0.58426 0.30358 0.77888 0.0
O419 O 0.58697 0.30013 0.88342 0.0
O420 O 0.55645 0.35831 0.92768 0.0
O421 O 0.58168 0.37874 0.06972 0.0
H422 H 0.48213 0.42263 0.74616 0.0
H423 H 0.65925 0.31892 0.98755 0.0
O424 O 0.67185 0.37501 0.00488 0.0
H425 H 0.60452 0.30031 0.32812 0.0
H426 H 0.69405 0.40564 0.34806 0.0
H427 H 0.59716 0.42702 0.16119 0.0
H428 H 0.59913 0.34982 0.23304 0.0
H429 H 0.67613 0.37134 0.20299 0.0
O430 O 0.58247 0.33056 0.73876 0.0
H431 H 0.52619 0.40587 0.85514 0.0
H432 H 0.56698 0.36493 0.57982 0.0
H433 H 0.61367 0.46121 0.30794 0.0
H434 H 0.66713 0.2702 0.08338 0.0
H435 H 0.66344 0.45199 0.39695 0.0
H436 H 0.63896 0.26009 0.25481 0.0
O437 O 0.62588 0.41821 0.97218 0.0
H438 H 0.67931 0.36331 0.59195 0.0
H439 H 0.59273 0.43092 0.68654 0.0
H440 H 0.63557 0.45191 0.58081 0.0
H441 H 0.68023 0.41837 0.53963 0.0
H442 H 0.63678 0.34367 0.7015 0.0
H443 H 0.52328 0.38113 0.46798 0.0
H444 H 0.48061 0.41037 0.55099 0.0
O445 O 0.58345 0.41516 0.87615 0.0
C446 C 0.55792 0.36655 0.02664 0.0
C447 C 0.50071 0.41007 0.70894 0.0
C448 C 0.52379 0.38673 0.55284 0.0
N449 N 0.5493 0.38473 0.7237 0.0
C450 C 0.52572 0.40051 0.77024 0.0
C451 C 0.54843 0.37757 0.61663 0.0
C452 C 0.49986 0.40319 0.59944 0.0
C453 C 0.64719 0.31488 0.06206 0.0
N454 N 0.62879 0.33711 0.10464 0.0
C455 C 0.65145 0.28701 0.11576 0.0
C456 C 0.63588 0.28154 0.21183 0.0
C457 C 0.61651 0.3041 0.25324 0.0
C458 C 0.61335 0.332 0.19851 0.0
C459 C 0.67252 0.41023 0.30843 0.0
C460 C 0.61797 0.42166 0.20389 0.0
C461 C 0.66223 0.39083 0.22643 0.0
N462 N 0.63582 0.39737 0.17265 0.0
C463 C 0.62739 0.44139 0.28607 0.0
C464 C 0.65527 0.43607 0.33641 0.0
C465 C 0.60341 0.43086 0.92671 0.0
C466 C 0.66024 0.3782 0.61138 0.0
C467 C 0.61156 0.41597 0.66546 0.0
C468 C 0.63575 0.42798 0.60557 0.0
C469 C 0.66059 0.40909 0.58111 0.0
N470 N 0.61245 0.38622 0.70159 0.0
C471 C 0.63585 0.36711 0.67223 0.0
Co472 Co 0.88222 0.61909 0.71066 0.0
Co473 Co 0.87375 0.62892 0.4361 0.0
O474 O 0.86437 0.60782 0.57189 0.0
C475 C 0.91029 0.55935 0.77296 0.0
O476 O 0.93643 0.57384 0.78481 0.0
C477 C 0.80625 0.63273 0.45441 0.0
O478 O 0.80992 0.6404 0.55579 0.0
O479 O 0.86679 0.66962 0.50301 0.0
O480 O 0.87816 0.6642 0.67826 0.0
H481 H 0.91762 0.71473 0.21437 0.0
H482 H 0.82958 0.57573 0.70893 0.0
O483 O 0.8865 0.57398 0.74251 0.0
H484 H 0.79877 0.66188 0.94457 0.0
H485 H 0.90767 0.60132 0.09924 0.0
H486 H 0.92702 0.66613 0.78184 0.0
H487 H 0.84829 0.6629 0.85032 0.0
H488 H 0.87786 0.59384 0.93389 0.0
O489 O 0.82939 0.6268 0.39593 0.0
H490 H 0.91404 0.68095 0.373 0.0
H491 H 0.84943 0.62419 0.21205 0.0
H492 H 0.95584 0.67585 0.94868 0.0
H493 H 0.78001 0.57347 0.80349 0.0
H494 H 0.94644 0.64309 0.10893 0.0
H495 H 0.76494 0.61641 0.9253 0.0
O496 O 0.92315 0.61912 0.6471 0.0
H497 H 0.84845 0.51839 0.35323 0.0
H498 H 0.92304 0.60224 0.29927 0.0
H499 H 0.93282 0.55092 0.21941 0.0
H500 H 0.89534 0.50868 0.24605 0.0
H501 H 0.8397 0.56987 0.43225 0.0
H502 H 0.85056 0.65884 0.05544 0.0
H503 H 0.88487 0.70442 0.05523 0.0
O504 O 0.91858 0.63184 0.47274 0.0
C505 C 0.87135 0.68064 0.59645 0.0
C506 C 0.9026 0.6949 0.21321 0.0
C507 C 0.86483 0.66365 0.12419 0.0
N508 N 0.88161 0.65047 0.30207 0.0
C509 C 0.90088 0.6753 0.30216 0.0
C510 C 0.86433 0.64406 0.21333 0.0
C511 C 0.88409 0.68923 0.12425 0.0
C512 C 0.82291 0.59462 0.76066 0.0
N513 N 0.84194 0.61924 0.7752 0.0
C514 C 0.79482 0.59324 0.81382 0.0
C515 C 0.78624 0.61741 0.88143 0.0
C516 C 0.80531 0.64291 0.89278 0.0
C517 C 0.83323 0.64344 0.83863 0.0
C518 C 0.91188 0.61587 0.03058 0.0
C519 C 0.92222 0.65231 0.85204 0.0
C520 C 0.89499 0.61178 0.9366 0.0
N521 N 0.90085 0.62935 0.84782 0.0
C522 C 0.93887 0.6577 0.94593 0.0
C523 C 0.93377 0.63915 0.0355 0.0
C524 C 0.93441 0.62611 0.55653 0.0
C525 C 0.8649 0.53667 0.34066 0.0
C526 C 0.90668 0.58389 0.3114 0.0
C527 C 0.91233 0.55493 0.26595 0.0
C528 C 0.89125 0.53122 0.28074 0.0
N529 N 0.88072 0.58909 0.36951 0.0
C530 C 0.86001 0.56591 0.38481 0.0
Co531 Co 0.62911 0.11839 0.24772 0.0
Co532 Co 0.58317 0.12795 0.46536 0.0
O533 O 0.6193 0.14055 0.38065 0.0
C534 C 0.68873 0.12748 0.36544 0.0
O535 O 0.67411 0.14073 0.44469 0.0
C536 C 0.58403 0.19697 0.49274 0.0
O537 O 0.58686 0.20025 0.38817 0.0
O538 O 0.55773 0.14171 0.34279 0.0
O539 O 0.5838 0.11744 0.21042 0.0
H540 H 0.48082 0.07793 0.52196 0.0
H541 H 0.66199 0.17791 0.28062 0.0
O542 O 0.67437 0.11871 0.28148 0.0
H543 H 0.61166 0.18639 0.9272 0.0
H544 H 0.69611 0.08294 0.94429 0.0
H545 H 0.59902 0.06622 0.13581 0.0
H546 H 0.60346 0.14071 0.04106 0.0
H547 H 0.6793 0.11927 0.08453 0.0
O548 O 0.58195 0.17011 0.53351 0.0
H549 H 0.52533 0.09492 0.41575 0.0
H550 H 0.56342 0.13798 0.69203 0.0
H551 H 0.61415 0.03029 0.99182 0.0
H552 H 0.67312 0.22238 0.16567 0.0
H553 H 0.66357 0.03783 0.89782 0.0
H554 H 0.64735 0.22723 0.98712 0.0
O555 O 0.6272 0.07936 0.32665 0.0
H556 H 0.6734 0.13657 0.71107 0.0
H557 H 0.58874 0.06953 0.59379 0.0
H558 H 0.62857 0.04852 0.71307 0.0
H559 H 0.67257 0.08163 0.76463 0.0
H560 H 0.63369 0.1564 0.58968 0.0
H561 H 0.5191 0.12188 0.80066 0.0
H562 H 0.47781 0.09118 0.71613 0.0
O563 O 0.58215 0.08464 0.40376 0.0
C564 C 0.56016 0.13183 0.24594 0.0
C565 C 0.49889 0.09107 0.55988 0.0
C566 C 0.52034 0.1158 0.71629 0.0
N567 N 0.54717 0.11704 0.54793 0.0
C568 C 0.52412 0.10079 0.50015 0.0
C569 C 0.5453 0.12497 0.6542 0.0
C570 C 0.49717 0.0985 0.66882 0.0
C571 C 0.65106 0.17952 0.20319 0.0
N572 N 0.6324 0.15652 0.1675 0.0
C573 C 0.65713 0.20505 0.13851 0.0
C574 C 0.64284 0.20766 0.03863 0.0
C575 C 0.62281 0.1847 0.00469 0.0
C576 C 0.61799 0.15905 0.07023 0.0
C577 C 0.67456 0.0793 0.98502 0.0
C578 C 0.61996 0.07043 0.09237 0.0
C579 C 0.66495 0.0998 0.06467 0.0
N580 N 0.63835 0.09472 0.11934 0.0
C581 C 0.62856 0.04977 0.01167 0.0
C582 C 0.65631 0.054 0.95908 0.0
C583 C 0.60335 0.06773 0.36619 0.0
C584 C 0.65482 0.12175 0.68605 0.0
C585 C 0.60733 0.0843 0.61873 0.0
C586 C 0.62972 0.07229 0.68676 0.0
C587 C 0.65409 0.09098 0.71757 0.0
N588 N 0.60955 0.11384 0.58093 0.0
C589 C 0.63208 0.13289 0.61781 0.0
Co590 Co 0.11344 0.37681 0.72727 0.0
Co591 Co 0.12157 0.3684 0.45201 0.0
O592 O 0.13116 0.38861 0.58907 0.0
C593 C 0.08528 0.43701 0.78727 0.0
O594 O 0.059 0.42293 0.8011 0.0
C595 C 0.18898 0.36374 0.47249 0.0
O596 O 0.18499 0.356 0.5736 0.0
O597 O 0.12774 0.32737 0.51664 0.0
O598 O 0.11816 0.33167 0.6937 0.0
H599 H 0.07749 0.28357 0.22654 0.0
H600 H 0.16572 0.4207 0.72663 0.0
O601 O 0.10892 0.42187 0.75879 0.0
H602 H 0.19672 0.33506 0.96368 0.0
H603 H 0.08607 0.39505 0.11408 0.0
H604 H 0.06931 0.3291 0.79719 0.0
H605 H 0.14765 0.33326 0.86663 0.0
H606 H 0.1168 0.40238 0.9505 0.0
O607 O 0.16605 0.36986 0.41322 0.0
H608 H 0.08059 0.31732 0.38558 0.0
H609 H 0.14641 0.37355 0.22889 0.0
H610 H 0.03967 0.31952 0.96225 0.0
H611 H 0.21473 0.42379 0.82444 0.0
H612 H 0.04766 0.35292 0.12196 0.0
H613 H 0.22972 0.38123 0.94766 0.0
O614 O 0.07248 0.37645 0.664 0.0
H615 H 0.14925 0.47875 0.37688 0.0
H616 H 0.07351 0.39648 0.31331 0.0
H617 H 0.06532 0.44822 0.2342 0.0
H618 H 0.10335 0.48964 0.26596 0.0
H619 H 0.15653 0.42687 0.45425 0.0
H620 H 0.14571 0.33895 0.07201 0.0
H621 H 0.11115 0.29359 0.06956 0.0
O622 O 0.07655 0.36629 0.48744 0.0
C623 C 0.12436 0.31577 0.60975 0.0
C624 C 0.09267 0.30329 0.22637 0.0
C625 C 0.13107 0.33426 0.1398 0.0
N626 N 0.1136 0.34752 0.31676 0.0
C627 C 0.09408 0.32289 0.31549 0.0
C628 C 0.1313 0.35384 0.22903 0.0
C629 C 0.11167 0.30879 0.13865 0.0
C630 C 0.17241 0.40192 0.77868 0.0
N631 N 0.15366 0.37704 0.79222 0.0
C632 C 0.20018 0.40377 0.83368 0.0
C633 C 0.20876 0.37979 0.90196 0.0
C634 C 0.19013 0.35392 0.9116 0.0
C635 C 0.16248 0.35294 0.8558 0.0
C636 C 0.08249 0.38022 0.04555 0.0
C637 C 0.07364 0.3431 0.86744 0.0
C638 C 0.0999 0.38421 0.95263 0.0
N639 N 0.09475 0.36631 0.86401 0.0
C640 C 0.05648 0.33782 0.96023 0.0
C641 C 0.0608 0.35672 0.0495 0.0
C642 C 0.06094 0.37088 0.57269 0.0
C643 C 0.13256 0.46082 0.36214 0.0
C644 C 0.09013 0.41448 0.32731 0.0
C645 C 0.08538 0.44366 0.2824 0.0
C646 C 0.10677 0.46693 0.30007 0.0
N647 N 0.11557 0.40863 0.38743 0.0
C648 C 0.13659 0.43137 0.40545 0.0
Co649 Co 0.37607 0.88091 0.22052 0.0
Co650 Co 0.42061 0.87193 0.44242 0.0
O651 O 0.38471 0.86007 0.35647 0.0
C652 C 0.31916 0.88932 0.34413 0.0
O653 O 0.33641 0.90024 0.42138 0.0
C654 C 0.41768 0.80317 0.46675 0.0
O655 O 0.41362 0.80029 0.36253 0.0
O656 O 0.4467 0.85839 0.32087 0.0
O657 O 0.42125 0.88116 0.18389 0.0
H658 H 0.52337 0.92056 0.50479 0.0
H659 H 0.34185 0.82329 0.26412 0.0
O660 O 0.3312 0.88041 0.25608 0.0
H661 H 0.39435 0.80646 0.91784 0.0
H662 H 0.3082 0.91414 0.91784 0.0
H663 H 0.40639 0.93152 0.10164 0.0
H664 H 0.40164 0.85483 0.01879 0.0
H665 H 0.32578 0.87837 0.05856 0.0
O666 O 0.42139 0.82974 0.50822 0.0
H667 H 0.47888 0.90454 0.39665 0.0
H668 H 0.43939 0.86144 0.67013 0.0
H669 H 0.39051 0.96684 0.95701 0.0
H670 H 0.33218 0.77561 0.16251 0.0
H671 H 0.34038 0.95923 0.86797 0.0
H672 H 0.35912 0.7666 0.9882 0.0
O673 O 0.37912 0.92115 0.29137 0.0
H674 H 0.32795 0.86268 0.67508 0.0
H675 H 0.41466 0.92946 0.57551 0.0
H676 H 0.37387 0.95007 0.69174 0.0
H677 H 0.32897 0.91709 0.73467 0.0
H678 H 0.36825 0.84352 0.55481 0.0
H679 H 0.48363 0.87671 0.78087 0.0
H680 H 0.52573 0.90689 0.69862 0.0
O681 O 0.42199 0.9153 0.38362 0.0
C682 C 0.44486 0.86762 0.22316 0.0
C683 C 0.505 0.90764 0.54174 0.0
C684 C 0.48273 0.88297 0.69666 0.0
N685 N 0.45635 0.88241 0.52729 0.0
C686 C 0.47977 0.89846 0.48089 0.0
C687 C 0.45779 0.87428 0.63341 0.0
C688 C 0.50633 0.89997 0.6505 0.0
C689 C 0.3534 0.81963 0.18833 0.0
N690 N 0.37228 0.84173 0.14752 0.0
C691 C 0.34808 0.79242 0.13139 0.0
C692 C 0.36301 0.78751 0.03368 0.0
C693 C 0.38281 0.80989 0.9939 0.0
C694 C 0.38705 0.83712 0.05195 0.0
C695 C 0.33004 0.91785 0.95655 0.0
C696 C 0.38531 0.92703 0.05929 0.0
C697 C 0.34012 0.89762 0.03623 0.0
N698 N 0.36699 0.90294 0.08885 0.0
C699 C 0.37623 0.94741 0.97851 0.0
C700 C 0.34809 0.94311 0.92861 0.0
C701 C 0.40195 0.93231 0.33952 0.0
C702 C 0.34707 0.87737 0.65452 0.0
C703 C 0.39576 0.9147 0.59733 0.0
C704 C 0.37277 0.92648 0.66343 0.0
C705 C 0.34789 0.90786 0.68936 0.0
N706 N 0.39361 0.88548 0.5567 0.0
C707 C 0.37023 0.86653 0.58748 0.0
Co708 Co 0.89018 0.87434 0.52726 0.0
Co709 Co 0.88207 0.8647 0.80178 0.0
O710 O 0.87276 0.88585 0.66638 0.0
C711 C 0.91811 0.93466 0.46756 0.0
O712 O 0.94448 0.9208 0.4532 0.0
C713 C 0.81452 0.86199 0.78271 0.0
O714 O 0.81832 0.85435 0.68139 0.0
O715 O 0.87443 0.82422 0.73462 0.0
O716 O 0.88529 0.82919 0.55877 0.0
H717 H 0.92509 0.77816 0.02192 0.0
H718 H 0.83784 0.91816 0.53219 0.0
O719 O 0.89468 0.91939 0.49704 0.0
H720 H 0.80664 0.83396 0.2888 0.0
H721 H 0.91563 0.89271 0.13918 0.0
H722 H 0.93414 0.82678 0.4544 0.0
H723 H 0.85573 0.83154 0.3855 0.0
H724 H 0.88611 0.90029 0.30505 0.0
O725 O 0.83764 0.86735 0.84208 0.0
H726 H 0.92182 0.81221 0.86384 0.0
H727 H 0.85783 0.86941 0.02591 0.0
H728 H 0.96276 0.81706 0.28703 0.0
H729 H 0.78872 0.92181 0.43533 0.0
H730 H 0.95376 0.85037 0.12787 0.0
H731 H 0.77363 0.88 0.30893 0.0
O732 O 0.9313 0.87375 0.58978 0.0
H733 H 0.85849 0.97557 0.88589 0.0
H734 H 0.93181 0.89051 0.93833 0.0
H735 H 0.94258 0.94158 0.01791 0.0
H736 H 0.90569 0.98449 0.99219 0.0
H737 H 0.84882 0.92425 0.8067 0.0
H738 H 0.85866 0.83455 0.18201 0.0
H739 H 0.89248 0.78861 0.18133 0.0
O740 O 0.92696 0.86146 0.76459 0.0
C741 C 0.8781 0.81304 0.64095 0.0
C742 C 0.91028 0.79816 0.02348 0.0
C743 C 0.87288 0.8297 0.11315 0.0
N744 N 0.88976 0.84295 0.93548 0.0
C745 C 0.90876 0.8179 0.93487 0.0
C746 C 0.87255 0.84941 0.02433 0.0
C747 C 0.89186 0.80391 0.11259 0.0
C748 C 0.83108 0.89968 0.47885 0.0
N749 N 0.84982 0.87488 0.46323 0.0
C750 C 0.80325 0.90185 0.42437 0.0
C751 C 0.79462 0.87829 0.3543 0.0
C752 C 0.81326 0.8525 0.34235 0.0
C753 C 0.84092 0.85116 0.39793 0.0
C754 C 0.91968 0.87793 0.20734 0.0
C755 C 0.92953 0.84084 0.38462 0.0
C756 C 0.90294 0.88207 0.30163 0.0
N757 N 0.90853 0.86413 0.38969 0.0
C758 C 0.94607 0.83546 0.29048 0.0
C759 C 0.9412 0.85431 0.20152 0.0
C760 C 0.94272 0.86696 0.68032 0.0
C761 C 0.87467 0.95702 0.89807 0.0
C762 C 0.91573 0.90912 0.92642 0.0
C763 C 0.92193 0.93797 0.97179 0.0
C764 C 0.90119 0.96203 0.95751 0.0
N765 N 0.88961 0.90437 0.86869 0.0
C766 C 0.86925 0.92788 0.85384 0.0
Co767 Co 0.87782 0.11711 0.51969 0.0
Co768 Co 0.92145 0.12543 0.29642 0.0
O769 O 0.88611 0.13787 0.38371 0.0
C770 C 0.81923 0.10972 0.40316 0.0
O771 O 0.83462 0.09611 0.3261 0.0
C772 C 0.92057 0.19426 0.27143 0.0
O773 O 0.91841 0.19721 0.37633 0.0
O774 O 0.94809 0.139 0.4166 0.0
O775 O 0.92305 0.11567 0.55329 0.0
H776 H 0.02395 0.07656 0.23063 0.0
H777 H 0.84513 0.17579 0.47897 0.0
O778 O 0.83294 0.11922 0.48733 0.0
H779 H 0.8996 0.19053 0.82263 0.0
H780 H 0.81108 0.08568 0.82794 0.0
H781 H 0.90747 0.06557 0.63593 0.0
H782 H 0.90504 0.14211 0.72052 0.0
H783 H 0.82855 0.12083 0.68525 0.0
O784 O 0.9222 0.16756 0.22923 0.0
H785 H 0.97967 0.09248 0.34007 0.0
H786 H 0.93939 0.1354 0.0677 0.0
H787 H 0.89164 0.03072 0.78198 0.0
H788 H 0.83725 0.2235 0.58177 0.0
H789 H 0.84238 0.03971 0.87519 0.0
H790 H 0.86523 0.2315 0.75489 0.0
O791 O 0.87956 0.07691 0.44766 0.0
H792 H 0.82674 0.13354 0.07395 0.0
H793 H 0.91521 0.06797 0.1637 0.0
H794 H 0.87376 0.04683 0.05166 0.0
H795 H 0.82811 0.07919 0.01307 0.0
H796 H 0.86803 0.15335 0.18915 0.0
H797 H 0.9834 0.12024 0.95564 0.0
H798 H 0.02583 0.09028 0.03675 0.0
O799 O 0.92268 0.08215 0.35661 0.0
C800 C 0.94645 0.12953 0.51414 0.0
C801 C 0.00544 0.08941 0.1942 0.0
C802 C 0.98271 0.11398 0.03989 0.0
N803 N 0.95677 0.11452 0.21007 0.0
C804 C 0.98032 0.09852 0.25577 0.0
C805 C 0.95791 0.1226 0.10386 0.0
C806 C 0.0065 0.09711 0.08542 0.0
C807 C 0.8571 0.17897 0.55419 0.0
N808 N 0.8755 0.15627 0.59363 0.0
C809 C 0.85282 0.20622 0.61187 0.0
C810 C 0.8683 0.21056 0.70884 0.0
C811 C 0.88762 0.18754 0.74717 0.0
C812 C 0.89081 0.1603 0.68846 0.0
C813 C 0.83254 0.08136 0.78745 0.0
C814 C 0.88678 0.0706 0.67986 0.0
C815 C 0.84254 0.10122 0.70652 0.0
N816 N 0.86889 0.09515 0.65165 0.0
C817 C 0.87774 0.05053 0.76159 0.0
C818 C 0.85011 0.05563 0.81399 0.0
C819 C 0.90241 0.06538 0.40062 0.0
C820 C 0.84624 0.11913 0.09225 0.0
C821 C 0.89597 0.0825 0.14363 0.0
C822 C 0.87257 0.07041 0.08009 0.0
C823 C 0.84721 0.08867 0.05692 0.0
N824 N 0.89383 0.11172 0.18431 0.0
C825 C 0.8699 0.13032 0.15647 0.0
Co826 Co 0.1174 0.12144 0.52501 0.0
Co827 Co 0.12568 0.13047 0.80014 0.0
O828 O 0.13535 0.10996 0.66344 0.0
C829 C 0.08999 0.06098 0.46332 0.0
O830 O 0.06343 0.07473 0.45246 0.0
C831 C 0.1931 0.13543 0.78138 0.0
O832 O 0.1892 0.14319 0.68024 0.0
O833 O 0.13204 0.17137 0.73485 0.0
O834 O 0.12123 0.16666 0.55883 0.0
H835 H 0.08088 0.21523 0.0247 0.0
H836 H 0.17034 0.07842 0.52514 0.0
O837 O 0.11352 0.07629 0.49239 0.0
H838 H 0.2001 0.16488 0.28976 0.0
H839 H 0.09057 0.10283 0.13802 0.0
H840 H 0.07256 0.1685 0.45466 0.0
H841 H 0.15096 0.16574 0.38649 0.0
H842 H 0.12137 0.09608 0.30164 0.0
O843 O 0.17012 0.12896 0.83995 0.0
H844 H 0.0847 0.18176 0.86515 0.0
H845 H 0.15013 0.1255 0.02384 0.0
H846 H 0.04277 0.17751 0.28952 0.0
H847 H 0.21946 0.07627 0.42769 0.0
H848 H 0.05137 0.14418 0.12991 0.0
H849 H 0.23388 0.11927 0.30547 0.0
O850 O 0.07651 0.12108 0.58843 0.0
H851 H 0.15272 0.02025 0.88002 0.0
H852 H 0.07698 0.10288 0.93716 0.0
H853 H 0.06814 0.0514 0.01664 0.0
H854 H 0.10622 0.00972 0.98834 0.0
H855 H 0.1605 0.07189 0.80141 0.0
H856 H 0.14873 0.15987 0.18128 0.0
H857 H 0.11395 0.20505 0.18312 0.0
O858 O 0.08077 0.13276 0.76383 0.0
C859 C 0.12773 0.18279 0.64196 0.0
C860 C 0.09614 0.19558 0.02517 0.0
C861 C 0.13434 0.16461 0.11289 0.0
N862 N 0.11756 0.15156 0.93492 0.0
C863 C 0.09798 0.17614 0.93571 0.0
C864 C 0.13498 0.14518 0.0233 0.0
C865 C 0.11481 0.18998 0.11372 0.0
C866 C 0.17677 0.09737 0.47344 0.0
N867 N 0.15763 0.12195 0.46017 0.0
C868 C 0.2046 0.09605 0.41865 0.0
C869 C 0.21284 0.12028 0.35089 0.0
C870 C 0.19379 0.14584 0.34146 0.0
C871 C 0.1661 0.14629 0.39707 0.0
C872 C 0.08667 0.11758 0.20652 0.0
C873 C 0.0771 0.15454 0.38455 0.0
C874 C 0.10412 0.11391 0.2995 0.0
N875 N 0.09859 0.13168 0.38817 0.0
C876 C 0.05988 0.1595 0.29166 0.0
C877 C 0.06456 0.14066 0.20243 0.0
C878 C 0.0651 0.12743 0.67932 0.0
C879 C 0.136 0.03824 0.8932 0.0
C880 C 0.09359 0.08479 0.92431 0.0
C881 C 0.08848 0.05573 0.96956 0.0
C882 C 0.10988 0.03235 0.95383 0.0
N883 N 0.11933 0.09041 0.86547 0.0
C884 C 0.14034 0.06757 0.84924 0.0
Co885 Co 0.13157 0.88037 0.52764 0.0
Co886 Co 0.08787 0.86819 0.30505 0.0
O887 O 0.12349 0.85802 0.39437 0.0
C888 C 0.18829 0.88855 0.4026 0.0
O889 O 0.17085 0.89834 0.32408 0.0
C890 C 0.06747 0.80501 0.24336 0.0
O891 O 0.04107 0.81091 0.28918 0.0
O892 O 0.06168 0.8559 0.42779 0.0
O893 O 0.0863 0.87998 0.56409 0.0
H894 H 0.98455 0.91395 0.23016 0.0
H895 H 0.16633 0.82256 0.49017 0.0
O896 O 0.17642 0.88036 0.49176 0.0
H897 H 0.11615 0.80993 0.84285 0.0
H898 H 0.19913 0.91819 0.8246 0.0
H899 H 0.09997 0.93111 0.64286 0.0
H900 H 0.10705 0.85639 0.7335 0.0
H901 H 0.18241 0.881 0.68727 0.0
O902 O 0.08907 0.82469 0.24829 0.0
H903 H 0.02869 0.89976 0.34304 0.0
H904 H 0.07053 0.85498 0.07709 0.0
H905 H 0.11468 0.96734 0.78674 0.0
H906 H 0.17716 0.7763 0.59873 0.0
H907 H 0.16513 0.96169 0.87582 0.0
H908 H 0.15201 0.76995 0.77767 0.0
O909 O 0.12774 0.91977 0.45212 0.0
H910 H 0.18051 0.85686 0.07229 0.0
H911 H 0.09326 0.92393 0.16351 0.0
H912 H 0.13305 0.94306 0.04056 0.0
H913 H 0.17802 0.90989 6e-05 0.0
H914 H 0.14118 0.83925 0.19918 0.0
H915 H 0.02669 0.86842 0.96164 0.0
H916 H 0.98358 0.89855 0.03767 0.0
O917 O 0.08551 0.91248 0.35686 0.0
C918 C 0.06303 0.86579 0.52482 0.0
C919 C 0.00334 0.90101 0.19592 0.0
C920 C 0.02697 0.87543 0.04523 0.0
N921 N 0.05232 0.87685 0.21649 0.0
C922 C 0.02836 0.89285 0.2595 0.0
C923 C 0.05168 0.86781 0.1111 0.0
C924 C 0.0028 0.89237 0.08792 0.0
C925 C 0.15522 0.81975 0.56719 0.0
N926 N 0.13615 0.84208 0.60555 0.0
C927 C 0.16134 0.79348 0.62837 0.0
C928 C 0.14727 0.78992 0.72835 0.0
C929 C 0.12716 0.81242 0.76537 0.0
C930 C 0.1219 0.83854 0.70262 0.0
C931 C 0.17703 0.92084 0.78677 0.0
C932 C 0.12123 0.92753 0.68516 0.0
C933 C 0.16747 0.89988 0.70861 0.0
N934 N 0.14028 0.90391 0.65663 0.0
C935 C 0.12965 0.94843 0.76541 0.0
C936 C 0.15798 0.9453 0.81515 0.0
C937 C 0.10512 0.93015 0.40077 0.0
C938 C 0.16128 0.8716 0.09113 0.0
C939 C 0.11232 0.90913 0.14378 0.0
C940 C 0.13472 0.92004 0.07362 0.0
C941 C 0.15966 0.90131 0.04936 0.0
N942 N 0.11504 0.88064 0.18979 0.0
C943 C 0.13868 0.86162 0.162 0.0
C944 C 0.38153 0.98454 0.30124 0.0
C945 C 0.40601 0.96608 0.33543 0.0
H946 H 0.36592 0.02928 0.25846 0.0
C947 C 0.43431 0.98006 0.35772 0.0
H948 H 0.35935 0.97461 0.28397 0.0
C949 C 0.43817 0.01187 0.34248 0.0
C950 C 0.41374 0.03005 0.30532 0.0
H951 H 0.45361 0.96636 0.38399 0.0
H952 H 0.46028 0.02209 0.35847 0.0
C953 C 0.38533 0.01604 0.28643 0.0
C954 C 0.00595 0.65893 0.66169 0.0
C955 C 0.02544 0.63338 0.6536 0.0
H956 H 0.96167 0.6773 0.62766 0.0
C957 C 0.01689 0.6083 0.58836 0.0
H958 H 0.01221 0.67865 0.7106 0.0
C959 C 0.9877 0.60734 0.5422 0.0
C960 C 0.96732 0.63188 0.55818 0.0
H961 H 0.03164 0.58834 0.58105 0.0
H962 H 0.98015 0.58641 0.50264 0.0
C963 C 0.97727 0.65834 0.613 0.0
C964 C 0.56695 0.98835 0.34469 0.0
C965 C 0.59195 0.97054 0.30968 0.0
H966 H 0.55088 0.03325 0.39154 0.0
C967 C 0.62074 0.98459 0.30129 0.0
H968 H 0.5445 0.97811 0.35282 0.0
C969 C 0.62438 0.01579 0.32405 0.0
C970 C 0.59934 0.03395 0.35569 0.0
H971 H 0.64059 0.97162 0.27566 0.0
H972 H 0.64689 0.0258 0.31448 0.0
C973 C 0.57062 0.01984 0.36763 0.0
C974 C 0.01758 0.33913 0.62787 0.0
C975 C 0.02787 0.3657 0.57452 0.0
H976 H 0.98261 0.31892 0.72548 0.0
C977 C 0.00786 0.3907 0.56144 0.0
H978 H 0.03289 0.31983 0.6407 0.0
C979 C 0.97881 0.39005 0.60899 0.0
C980 C 0.96999 0.36475 0.67268 0.0
H981 H 0.01569 0.41174 0.52329 0.0
H982 H 0.96445 0.41036 0.60408 0.0
C983 C 0.98904 0.3388 0.67772 0.0
C984 C 0.37974 0.48635 0.95849 0.0
C985 C 0.40843 0.47248 0.94412 0.0
H986 H 0.35309 0.52732 0.94951 0.0
C987 C 0.43268 0.49031 0.90363 0.0
H988 H 0.36047 0.47332 0.98879 0.0
C989 C 0.42837 0.52165 0.88043 0.0
C990 C 0.39977 0.53557 0.8977 0.0
H991 H 0.45501 0.48019 0.89086 0.0
H992 H 0.44756 0.53507 0.85162 0.0
C993 C 0.37546 0.51742 0.93551 0.0
C994 C 0.47479 0.61338 0.13961 0.0
C995 C 0.46594 0.63711 0.06893 0.0
H996 H 0.51189 0.59337 0.2291 0.0
C997 C 0.48525 0.6626 0.055 0.0
H998 H 0.46021 0.5935 0.15179 0.0
C999 C 0.51411 0.66298 0.10212 0.0
C1000 C 0.52442 0.63764 0.16221 0.0
H1001 H 0.47879 0.68138 0.00218 0.0
H1002 H 0.52958 0.68165 0.08226 0.0
C1003 C 0.50412 0.61347 0.18514 0.0
C1004 C 0.573 0.48018 0.91059 0.0
C1005 C 0.59933 0.46439 0.94505 0.0
H1006 H 0.54838 0.52324 0.91107 0.0
C1007 C 0.6214 0.48052 0.00558 0.0
H1008 H 0.55559 0.46844 0.86413 0.0
C1009 C 0.61698 0.51126 0.0334 0.0
C1010 C 0.59062 0.52673 0.00054 0.0
H1011 H 0.64201 0.46928 0.03364 0.0
H1012 H 0.63417 0.52298 0.08107 0.0
C1013 C 0.56873 0.51131 0.93799 0.0
C1014 C 0.48087 0.34024 0.1237 0.0
C1015 C 0.47099 0.3662 0.1816 0.0
H1016 H 0.51618 0.32036 0.02667 0.0
C1017 C 0.49165 0.39016 0.20273 0.0
H1018 H 0.46511 0.32167 0.10565 0.0
C1019 C 0.52115 0.38916 0.15911 0.0
C1020 C 0.52979 0.36466 0.09128 0.0
H1021 H 0.48419 0.41071 0.2449 0.0
H1022 H 0.5362 0.40872 0.17085 0.0
C1023 C 0.50988 0.33965 0.07754 0.0
C1024 C 0.87608 0.48054 0.81741 0.0
C1025 C 0.90139 0.46321 0.85184 0.0
H1026 H 0.85911 0.52403 0.76491 0.0
C1027 C 0.92971 0.47806 0.86452 0.0
H1028 H 0.85387 0.46992 0.80711 0.0
C1029 C 0.93275 0.50945 0.83968 0.0
C1030 C 0.90753 0.52641 0.80194 0.0
H1031 H 0.94965 0.4653 0.8906 0.0
H1032 H 0.95491 0.52027 0.84862 0.0
C1033 C 0.87911 0.51166 0.79266 0.0
C1034 C 0.52409 0.10977 0.109 0.0
C1035 C 0.53304 0.1344 0.17579 0.0
H1036 H 0.48717 0.08915 0.0202 0.0
C1037 C 0.51412 0.1604 0.18371 0.0
H1038 H 0.53834 0.08944 0.10162 0.0
C1039 C 0.48562 0.16071 0.13353 0.0
C1040 C 0.47519 0.13475 0.07681 0.0
H1041 H 0.52063 0.17982 0.23366 0.0
H1042 H 0.47044 0.18 0.14836 0.0
C1043 C 0.49507 0.10975 0.06101 0.0
C1044 C 0.06701 0.51998 0.86293 0.0
C1045 C 0.09466 0.53474 0.83708 0.0
H1046 H 0.04213 0.4773 0.86665 0.0
C1047 C 0.11922 0.51689 0.79937 0.0
H1048 H 0.04765 0.53313 0.89193 0.0
C1049 C 0.11607 0.48526 0.78479 0.0
C1050 C 0.08825 0.4705 0.80727 0.0
H1051 H 0.14091 0.52743 0.77915 0.0
H1052 H 0.13546 0.47248 0.75403 0.0
C1053 C 0.0638 0.48808 0.8478 0.0
C1054 C 0.49181 0.83953 0.16728 0.0
C1055 C 0.47255 0.86516 0.15606 0.0
H1056 H 0.53613 0.82059 0.13788 0.0
C1057 C 0.48175 0.88977 0.08973 0.0
H1058 H 0.48511 0.82015 0.21703 0.0
C1059 C 0.51123 0.89019 0.04558 0.0
C1060 C 0.53134 0.8656 0.06477 0.0
H1061 H 0.46725 0.90983 0.07995 0.0
H1062 H 0.51919 0.91079 0.00499 0.0
C1063 C 0.52081 0.8396 0.12084 0.0
C1064 C 0.88609 0.98201 0.46266 0.0
C1065 C 0.91453 0.96793 0.44482 0.0
H1066 H 0.85996 0.02338 0.46101 0.0
C1067 C 0.93883 0.98588 0.40537 0.0
H1068 H 0.86677 0.96894 0.49227 0.0
C1069 C 0.93483 0.01754 0.38677 0.0
C1070 C 0.90651 0.03162 0.40784 0.0
H1071 H 0.96096 0.97561 0.39007 0.0
H1072 H 0.95406 0.03106 0.35882 0.0
C1073 C 0.88214 0.01336 0.44443 0.0
C1074 C 0.98305 0.10768 0.64873 0.0
C1075 C 0.974 0.13214 0.58156 0.0
H1076 H 0.02018 0.08715 0.7364 0.0
C1077 C 0.99294 0.15805 0.57183 0.0
H1078 H 0.96872 0.08746 0.65762 0.0
C1079 C 0.02158 0.1584 0.62082 0.0
C1080 C 0.03207 0.13251 0.67764 0.0
H1081 H 0.98627 0.17736 0.52172 0.0
H1082 H 0.03677 0.17762 0.60506 0.0
C1083 C 0.01221 0.10766 0.69527 0.0
C1084 C 0.07198 0.9776 0.39091 0.0
C1085 C 0.10094 0.96396 0.40183 0.0
H1086 H 0.04559 0.01925 0.40292 0.0
C1087 C 0.12617 0.9828 0.42565 0.0
H1088 H 0.05212 0.96361 0.37296 0.0
C1089 C 0.12248 0.01423 0.44335 0.0
C1090 C 0.09343 0.02782 0.43772 0.0
H1091 H 0.14887 0.97308 0.43353 0.0
H1092 H 0.14249 0.02773 0.46363 0.0
C1093 C 0.06824 0.00936 0.40894 0.0
C1094 C 0.98687 0.83662 0.62141 0.0
C1095 C 0.97589 0.86213 0.67915 0.0
H1096 H 0.02316 0.81798 0.5262 0.0
C1097 C 0.99571 0.88679 0.70119 0.0
H1098 H 0.97179 0.81758 0.60207 0.0
C1099 C 0.0254 0.88693 0.65848 0.0
C1100 C 0.03513 0.86278 0.59095 0.0
H1101 H 0.98742 0.90705 0.74315 0.0
H1102 H 0.03966 0.90707 0.67046 0.0
C1103 C 0.0161 0.83704 0.57688 0.0
C1104 C 0.37521 0.26931 0.0348 0.0
C1105 C 0.37395 0.28351 0.13609 0.0
H1106 H 0.37723 0.22708 0.94711 0.0
C1107 C 0.37298 0.26488 0.22891 0.0
H1108 H 0.37597 0.28293 0.96182 0.0
C1109 C 0.37413 0.23282 0.22075 0.0
C1110 C 0.37583 0.21863 0.11955 0.0
H1111 H 0.37202 0.27502 0.30847 0.0
H1112 H 0.37392 0.21922 0.2938 0.0
C1113 C 0.37593 0.23722 0.02659 0.0
C1114 C 0.22811 0.6086 0.95023 0.0
C1115 C 0.21289 0.61801 0.85619 0.0
H1116 H 0.27086 0.60503 0.03348 0.0
C1117 C 0.22986 0.63163 0.77291 0.0
H1118 H 0.21566 0.59811 0.01601 0.0
C1119 C 0.26132 0.63561 0.78294 0.0
C1120 C 0.27665 0.62613 0.87657 0.0
H1121 H 0.21889 0.63919 0.6994 0.0
H1122 H 0.27361 0.64605 0.71668 0.0
C1123 C 0.25972 0.6126 0.96031 0.0
C1124 C 0.62766 0.7674 0.21007 0.0
C1125 C 0.62927 0.78216 0.10989 0.0
H1126 H 0.62515 0.72469 0.29467 0.0
C1127 C 0.63075 0.76397 0.01593 0.0
H1128 H 0.62656 0.78064 0.28391 0.0
C1129 C 0.62954 0.73184 0.02178 0.0
C1130 C 0.62723 0.71709 0.12179 0.0
H1131 H 0.63207 0.77451 0.93713 0.0
H1132 H 0.62998 0.71863 0.94779 0.0
C1133 C 0.62686 0.73524 0.21599 0.0
C1134 C 0.73325 0.39024 0.81282 0.0
C1135 C 0.7184 0.38029 0.9069 0.0
H1136 H 0.7754 0.39351 0.72628 0.0
C1137 C 0.73548 0.36529 0.98694 0.0
H1138 H 0.72071 0.40177 0.74942 0.0
C1139 C 0.76677 0.36052 0.97358 0.0
C1140 C 0.78169 0.37058 0.8798 0.0
H1141 H 0.72473 0.35729 0.06028 0.0
H1142 H 0.77926 0.34908 0.03731 0.0
C1143 C 0.76459 0.38544 0.7994 0.0
C1144 C 0.87081 0.73365 0.51653 0.0
C1145 C 0.87068 0.71457 0.60824 0.0
H1146 H 0.87365 0.77958 0.45456 0.0
C1147 C 0.87182 0.72827 0.71044 0.0
H1148 H 0.87001 0.72389 0.43639 0.0
C1149 C 0.87354 0.76027 0.72069 0.0
C1150 C 0.87459 0.77929 0.62895 0.0
H1151 H 0.87179 0.71431 0.78267 0.0
H1152 H 0.87472 0.76999 0.80085 0.0
C1153 C 0.87298 0.76564 0.52676 0.0
C1154 C 0.77038 0.10513 0.29869 0.0
C1155 C 0.78588 0.11429 0.3925 0.0
H1156 H 0.72752 0.10213 0.21619 0.0
C1157 C 0.76922 0.12805 0.47636 0.0
H1158 H 0.78258 0.09455 0.23244 0.0
C1159 C 0.73776 0.13242 0.46699 0.0
C1160 C 0.72218 0.12319 0.37347 0.0
H1161 H 0.78043 0.13541 0.54969 0.0
H1162 H 0.72566 0.14295 0.53357 0.0
C1163 C 0.73883 0.10952 0.28928 0.0
C1164 C 0.12706 0.2634 0.52497 0.0
C1165 C 0.12682 0.28182 0.61851 0.0
H1166 H 0.12735 0.21783 0.45865 0.0
C1167 C 0.12814 0.26737 0.71927 0.0
H1168 H 0.12605 0.27372 0.44577 0.0
C1169 C 0.12932 0.23526 0.72637 0.0
C1170 C 0.12876 0.21681 0.63291 0.0
H1171 H 0.12806 0.28081 0.79277 0.0
H1172 H 0.13002 0.22494 0.80562 0.0
C1173 C 0.12781 0.23127 0.53211 0.0
C1174 C 0.24139 0.88804 0.4772 0.0
C1175 C 0.22176 0.8877 0.38787 0.0
H1176 H 0.28761 0.88929 0.53319 0.0
C1177 C 0.23442 0.88715 0.28395 0.0
H1178 H 0.2323 0.88857 0.55822 0.0
C1179 C 0.26608 0.887 0.26962 0.0
C1180 C 0.2857 0.88806 0.35892 0.0
H1181 H 0.21985 0.88678 0.21357 0.0
H1182 H 0.27518 0.88669 0.18859 0.0
C1183 C 0.27305 0.88856 0.46282 0.0
C1184 C 0.25018 0.13557 0.76356 0.0
C1185 C 0.22409 0.13515 0.8293 0.0
H1186 H 0.299 0.13621 0.7562 0.0
C1187 C 0.22787 0.13497 0.94175 0.0
H1188 H 0.24807 0.13562 0.67673 0.0
C1189 C 0.25707 0.13564 0.98743 0.0
C1190 C 0.28315 0.13607 0.92169 0.0
H1191 H 0.20825 0.13475 0.99479 0.0
H1192 H 0.25918 0.1357 0.07426 0.0
C1193 C 0.27938 0.1358 0.80923 0.0
C1194 C 0.05325 0.75088 0.1914 0.0
C1195 C 0.07107 0.77734 0.17413 0.0
H1196 H 0.04242 0.70492 0.14032 0.0
C1197 C 0.09159 0.77768 0.0869 0.0
H1198 H 0.03718 0.74997 0.25757 0.0
C1199 C 0.09408 0.75219 0.01806 0.0
C1200 C 0.07659 0.72552 0.03632 0.0
H1201 H 0.10539 0.79789 0.0706 0.0
H1202 H 0.11005 0.75319 0.95159 0.0
C1203 C 0.05626 0.72511 0.1241 0.0
C1204 C 0.72816 0.86529 0.80657 0.0
C1205 C 0.72393 0.86499 0.91879 0.0
H1206 H 0.75998 0.86434 0.67564 0.0
C1207 C 0.74977 0.86438 0.98578 0.0
H1208 H 0.70875 0.86568 0.75257 0.0
C1209 C 0.77917 0.86392 0.94157 0.0
C1210 C 0.78338 0.86363 0.82934 0.0
H1211 H 0.74732 0.86425 0.0725 0.0
H1212 H 0.79858 0.86328 0.99553 0.0
C1213 C 0.75754 0.8644 0.76236 0.0
C1214 C 0.9201 0.21822 0.08717 0.0
C1215 C 0.92067 0.2218 0.19991 0.0
H1216 H 0.91949 0.24029 0.93285 0.0
C1217 C 0.92124 0.25182 0.24263 0.0
H1218 H 0.91952 0.19546 0.05115 0.0
C1219 C 0.92139 0.27755 0.17442 0.0
C1220 C 0.92078 0.27395 0.06169 0.0
H1221 H 0.92162 0.25548 0.32881 0.0
H1222 H 0.92178 0.30032 0.21039 0.0
C1223 C 0.92005 0.24395 0.01902 0.0
C1224 C 0.24599 0.36507 0.49211 0.0
C1225 C 0.22006 0.36475 0.4256 0.0
H1226 H 0.29481 0.36577 0.50077 0.0
C1227 C 0.22407 0.36511 0.31328 0.0
H1228 H 0.24368 0.36494 0.57888 0.0
C1229 C 0.25335 0.36528 0.26845 0.0
C1230 C 0.27929 0.36554 0.33491 0.0
H1231 H 0.20457 0.3648 0.25969 0.0
H1232 H 0.25565 0.36527 0.18167 0.0
C1233 C 0.27529 0.36568 0.44725 0.0
C1234 C 0.41749 0.77982 0.65163 0.0
C1235 C 0.41694 0.77586 0.53904 0.0
H1236 H 0.41703 0.75831 0.80682 0.0
C1237 C 0.41538 0.74578 0.49743 0.0
H1238 H 0.41849 0.80267 0.68681 0.0
C1239 C 0.41466 0.7203 0.56666 0.0
C1240 C 0.41526 0.72428 0.67925 0.0
H1241 H 0.41482 0.74187 0.41139 0.0
H1242 H 0.4135 0.69743 0.53165 0.0
C1243 C 0.41657 0.75437 0.7208 0.0
C1244 C 0.72002 0.63171 0.42535 0.0
C1245 C 0.71637 0.63195 0.31283 0.0
H1246 H 0.75118 0.63199 0.55831 0.0
C1247 C 0.74253 0.63187 0.24746 0.0
H1248 H 0.70035 0.63187 0.47814 0.0
C1249 C 0.77168 0.63163 0.29357 0.0
C1250 C 0.77532 0.63191 0.40609 0.0
H1251 H 0.74052 0.63196 0.16061 0.0
H1252 H 0.79136 0.63173 0.2408 0.0
C1253 C 0.74917 0.6319 0.47145 0.0
C1254 C 0.58497 0.22051 0.67812 0.0
C1255 C 0.58388 0.22434 0.56556 0.0
H1256 H 0.58609 0.24218 0.83322 0.0
C1257 C 0.58281 0.25448 0.52415 0.0
H1258 H 0.58595 0.19766 0.71321 0.0
C1259 C 0.5828 0.28008 0.59329 0.0
C1260 C 0.58396 0.27625 0.70585 0.0
H1261 H 0.58184 0.25831 0.43819 0.0
H1262 H 0.58197 0.30294 0.55819 0.0
C1263 C 0.58509 0.24609 0.74725 0.0
loop_
_geom_bond_atom_site_label_1
_geom_bond_atom_site_label_2
_geom_bond_distance
_geom_bond_site_symmetry_2
_ccdc_geom_bond_type
Co0 O2 2.143 . S
Co0 O8 2.074 . S
Co0 O11 2.093 . S
Co0 O24 2.097 . S
Co0 N41 2.151 . S
Co0 N49 2.214 . S
Co1 O2 2.160 1_556 S
Co1 O7 2.058 1_556 S
Co1 O17 2.057 . S
Co1 O32 2.037 . S
Co1 N36 2.145 . S
Co1 N57 2.257 . S
O2 Co0 2.143 . S
O2 Co1 2.160 1_554 S
C3 O4 1.278 . S
C3 O11 1.224 . S
O4 C3 1.278 . S
C5 O6 1.245 . S
C5 O17 1.232 . S
O6 C5 1.245 . S
O7 Co1 2.058 1_554 S
O7 C33 1.269 . S
O8 Co0 2.074 . S
O8 C33 1.257 . S
H9 C34 0.930 . S
H10 C40 0.930 . S
O11 Co0 2.093 . S
O11 C3 1.224 . S
H12 C44 0.929 . S
H13 C46 0.930 . S
H14 C47 0.930 . S
H15 C45 0.929 . S
H16 C48 0.928 . S
O17 Co1 2.057 . S
O17 C5 1.232 . S
H18 C37 0.929 . S
H19 C38 0.929 . S
H20 C50 0.931 . S
H21 C42 0.929 . S
H22 C51 0.930 . S
H23 C43 0.931 . S
O24 Co0 2.097 . S
O24 C52 1.214 . S
H25 C53 0.929 . S
H26 C54 0.929 . S
H27 C55 0.930 . S
H28 C56 0.929 . S
H29 C58 0.930 . S
H30 C35 0.930 . S
H31 C39 0.930 . S
O32 Co1 2.037 . S
O32 C52 1.234 1_556 S
C33 O7 1.269 . S
C33 O8 1.257 . S
C34 H9 0.930 . S
C34 C37 1.388 . S
C34 C39 1.418 . S
C35 H30 0.930 . S
C35 C38 1.404 . S
C35 C39 1.353 . S
N36 Co1 2.145 . S
N36 C37 1.397 . S
N36 C38 1.334 . S
C37 H18 0.929 . S
C37 C34 1.388 . S
C37 N36 1.397 . S
C38 H19 0.929 . S
C38 C35 1.404 . S
C38 N36 1.334 . S
C39 H31 0.930 . S
C39 C34 1.418 . S
C39 C35 1.353 . S
C40 H10 0.930 . S
C40 N41 1.330 . S
C40 C42 1.446 . S
N41 Co0 2.151 . S
N41 C40 1.330 . S
N41 C45 1.418 . S
C42 H21 0.929 . S
C42 C40 1.446 . S
C42 C43 1.332 . S
C43 H23 0.931 . S
C43 C42 1.332 . S
C43 C44 1.267 . S
C44 H12 0.929 . S
C44 C43 1.267 . S
C44 C45 1.251 . S
C45 H15 0.929 . S
C45 N41 1.418 . S
C45 C44 1.251 . S
C46 H13 0.930 . S
C46 C48 1.406 . S
C46 C51 1.261 . S
C47 H14 0.930 . S
C47 N49 1.325 . S
C47 C50 1.357 . S
C48 H16 0.928 . S
C48 C46 1.406 . S
C48 N49 1.261 . S
N49 Co0 2.214 . S
N49 C47 1.325 . S
N49 C48 1.261 . S
C50 H20 0.931 . S
C50 C47 1.357 . S
C50 C51 1.312 . S
C51 H22 0.930 . S
C51 C46 1.261 . S
C51 C50 1.312 . S
C52 O24 1.214 . S
C52 O32 1.234 1_554 S
C53 H25 0.929 . S
C53 C56 1.391 . S
C53 C58 1.391 . S
C54 H26 0.929 . S
C54 C55 1.390 . S
C54 N57 1.391 . S
C55 H27 0.930 . S
C55 C54 1.390 . S
C55 C56 1.392 . S
C56 H28 0.929 . S
C56 C53 1.391 . S
C56 C55 1.392 . S
N57 Co1 2.257 . S
N57 C54 1.391 . S
N57 C58 1.388 . S
C58 H29 0.930 . S
C58 C53 1.391 . S
C58 N57 1.388 . S
Co59 O61 2.143 . S
Co59 O67 2.074 . S
Co59 O70 2.093 . S
Co59 O83 2.097 . S
Co59 N100 2.151 . S
Co59 N108 2.214 . S
Co60 O61 2.160 . S
Co60 O66 2.058 . S
Co60 O76 2.057 1_556 S
Co60 O91 2.037 . S
Co60 N95 2.145 1_556 S
Co60 N116 2.257 1_556 S
O61 Co59 2.143 . S
O61 Co60 2.160 . S
C62 O63 1.278 . S
C62 O70 1.224 . S
O63 C62 1.278 . S
C64 O65 1.245 1_554 S
C64 O76 1.232 . S
O65 C64 1.245 1_556 S
O66 Co60 2.058 . S
O66 C92 1.269 . S
O67 Co59 2.074 . S
O67 C92 1.257 . S
H68 C93 0.930 1_655 S
H69 C99 0.930 . S
O70 Co59 2.093 . S
O70 C62 1.224 . S
H71 C103 0.929 . S
H72 C105 0.930 . S
H73 C106 0.930 . S
H74 C104 0.929 . S
H75 C107 0.928 . S
O76 Co60 2.057 1_554 S
O76 C64 1.232 . S
H77 C96 0.929 1_556 S
H78 C97 0.929 . S
H79 C109 0.931 . S
H80 C101 0.929 . S
H81 C110 0.930 . S
H82 C102 0.931 . S
O83 Co59 2.097 . S
O83 C111 1.214 . S
H84 C112 0.929 . S
H85 C113 0.929 . S
H86 C114 0.930 . S
H87 C115 0.929 . S
H88 C117 0.930 . S
H89 C94 0.930 . S
H90 C98 0.930 1_655 S
O91 Co60 2.037 . S
O91 C111 1.234 . S
C92 O66 1.269 . S
C92 O67 1.257 . S
C93 H68 0.930 1_455 S
C93 C96 1.388 . S
C93 C98 1.418 . S
C94 H89 0.930 . S
C94 C97 1.404 . S
C94 C98 1.353 . S
N95 Co60 2.145 1_554 S
N95 C96 1.397 . S
N95 C97 1.334 . S
C96 H77 0.929 1_554 S
C96 C93 1.388 . S
C96 N95 1.397 . S
C97 H78 0.929 . S
C97 C94 1.404 . S
C97 N95 1.334 . S
C98 H90 0.930 1_455 S
C98 C93 1.418 . S
C98 C94 1.353 . S
C99 H69 0.930 . S
C99 N100 1.330 . S
C99 C101 1.446 . S
N100 Co59 2.151 . S
N100 C99 1.330 . S
N100 C104 1.418 . S
C101 H80 0.929 . S
C101 C99 1.446 . S
C101 C102 1.332 . S
C102 H82 0.931 . S
C102 C101 1.332 . S
C102 C103 1.267 . S
C103 H71 0.929 . S
C103 C102 1.267 . S
C103 C104 1.251 . S
C104 H74 0.929 . S
C104 N100 1.418 . S
C104 C103 1.251 . S
C105 H72 0.930 . S
C105 C107 1.406 . S
C105 C110 1.261 . S
C106 H73 0.930 . S
C106 N108 1.325 . S
C106 C109 1.357 . S
C107 H75 0.928 . S
C107 C105 1.406 . S
C107 N108 1.261 . S
N108 Co59 2.214 . S
N108 C106 1.325 . S
N108 C107 1.261 . S
C109 H79 0.931 . S
C109 C106 1.357 . S
C109 C110 1.312 . S
C110 H81 0.930 . S
C110 C105 1.261 . S
C110 C109 1.312 . S
C111 O83 1.214 . S
C111 O91 1.234 . S
C112 H84 0.929 . S
C112 C115 1.391 . S
C112 C117 1.391 . S
C113 H85 0.929 . S
C113 C114 1.390 . S
C113 N116 1.391 . S
C114 H86 0.930 . S
C114 C113 1.390 . S
C114 C115 1.392 . S
C115 H87 0.929 . S
C115 C112 1.391 . S
C115 C114 1.392 . S
N116 Co60 2.257 1_554 S
N116 C113 1.391 . S
N116 C117 1.388 . S
C117 H88 0.930 . S
C117 C112 1.391 . S
C117 N116 1.388 . S
Co118 O120 2.143 . S
Co118 O126 2.074 . S
Co118 O129 2.093 . S
Co118 O142 2.097 . S
Co118 N159 2.151 . S
Co118 N167 2.214 . S
Co119 O120 2.160 1_556 S
Co119 O125 2.058 1_556 S
Co119 O135 2.057 . S
Co119 O150 2.037 . S
Co119 N154 2.145 . S
Co119 N175 2.257 . S
O120 Co118 2.143 . S
O120 Co119 2.160 1_554 S
C121 O122 1.278 . S
C121 O129 1.224 . S
O122 C121 1.278 . S
C123 O124 1.245 . S
C123 O135 1.232 . S
O124 C123 1.245 . S
O125 Co119 2.058 1_554 S
O125 C151 1.269 . S
O126 Co118 2.074 . S
O126 C151 1.257 . S
H127 C152 0.930 . S
H128 C158 0.930 . S
O129 Co118 2.093 . S
O129 C121 1.224 . S
H130 C162 0.929 . S
H131 C164 0.930 . S
H132 C165 0.930 . S
H133 C163 0.929 . S
H134 C166 0.928 . S
O135 Co119 2.057 . S
O135 C123 1.232 . S
H136 C155 0.929 . S
H137 C156 0.929 . S
H138 C168 0.931 . S
H139 C160 0.929 . S
H140 C169 0.930 . S
H141 C161 0.931 . S
O142 Co118 2.097 . S
O142 C170 1.214 . S
H143 C171 0.929 . S
H144 C172 0.929 . S
H145 C173 0.930 . S
H146 C174 0.929 . S
H147 C176 0.930 . S
H148 C153 0.930 . S
H149 C157 0.930 . S
O150 Co119 2.037 . S
O150 C170 1.234 1_556 S
C151 O125 1.269 . S
C151 O126 1.257 . S
C152 H127 0.930 . S
C152 C155 1.388 . S
C152 C157 1.418 . S
C153 H148 0.930 . S
C153 C156 1.404 . S
C153 C157 1.353 . S
N154 Co119 2.145 . S
N154 C155 1.397 . S
N154 C156 1.334 . S
C155 H136 0.929 . S
C155 C152 1.388 . S
C155 N154 1.397 . S
C156 H137 0.929 . S
C156 C153 1.404 . S
C156 N154 1.334 . S
C157 H149 0.930 . S
C157 C152 1.418 . S
C157 C153 1.353 . S
C158 H128 0.930 . S
C158 N159 1.330 . S
C158 C160 1.446 . S
N159 Co118 2.151 . S
N159 C158 1.330 . S
N159 C163 1.418 . S
C160 H139 0.929 . S
C160 C158 1.446 . S
C160 C161 1.332 . S
C161 H141 0.931 . S
C161 C160 1.332 . S
C161 C162 1.267 . S
C162 H130 0.929 . S
C162 C161 1.267 . S
C162 C163 1.251 . S
C163 H133 0.929 . S
C163 N159 1.418 . S
C163 C162 1.251 . S
C164 H131 0.930 . S
C164 C166 1.406 . S
C164 C169 1.261 . S
C165 H132 0.930 . S
C165 N167 1.325 . S
C165 C168 1.357 . S
C166 H134 0.928 . S
C166 C164 1.406 . S
C166 N167 1.261 . S
N167 Co118 2.214 . S
N167 C165 1.325 . S
N167 C166 1.261 . S
C168 H138 0.931 . S
C168 C165 1.357 . S
C168 C169 1.312 . S
C169 H140 0.930 . S
C169 C164 1.261 . S
C169 C168 1.312 . S
C170 O142 1.214 . S
C170 O150 1.234 1_554 S
C171 H143 0.929 . S
C171 C174 1.391 . S
C171 C176 1.391 . S
C172 H144 0.929 . S
C172 C173 1.390 . S
C172 N175 1.391 . S
C173 H145 0.930 . S
C173 C172 1.390 . S
C173 C174 1.392 . S
C174 H146 0.929 . S
C174 C171 1.391 . S
C174 C173 1.392 . S
N175 Co119 2.257 . S
N175 C172 1.391 . S
N175 C176 1.388 . S
C176 H147 0.930 . S
C176 C171 1.391 . S
C176 N175 1.388 . S
Co177 O179 2.143 . S
Co177 O185 2.074 . S
Co177 O188 2.093 . S
Co177 O201 2.097 . S
Co177 N218 2.151 . S
Co177 N226 2.214 . S
Co178 O179 2.160 . S
Co178 O184 2.058 . S
Co178 O194 2.057 1_556 S
Co178 O209 2.037 . S
Co178 N213 2.145 1_556 S
Co178 N234 2.257 1_556 S
O179 Co177 2.143 . S
O179 Co178 2.160 . S
C180 O181 1.278 . S
C180 O188 1.224 . S
O181 C180 1.278 . S
C182 O183 1.245 1_554 S
C182 O194 1.232 . S
O183 C182 1.245 1_556 S
O184 Co178 2.058 . S
O184 C210 1.269 . S
O185 Co177 2.074 . S
O185 C210 1.257 . S
H186 C211 0.930 1_455 S
H187 C217 0.930 . S
O188 Co177 2.093 . S
O188 C180 1.224 . S
H189 C221 0.929 . S
H190 C223 0.930 . S
H191 C224 0.930 . S
H192 C222 0.929 . S
H193 C225 0.928 . S
O194 Co178 2.057 1_554 S
O194 C182 1.232 . S
H195 C214 0.929 1_556 S
H196 C215 0.929 . S
H197 C227 0.931 . S
H198 C219 0.929 . S
H199 C228 0.930 . S
H200 C220 0.931 . S
O201 Co177 2.097 . S
O201 C229 1.214 . S
H202 C230 0.929 . S
H203 C231 0.929 . S
H204 C232 0.930 . S
H205 C233 0.929 . S
H206 C235 0.930 . S
H207 C212 0.930 . S
H208 C216 0.930 1_455 S
O209 Co178 2.037 . S
O209 C229 1.234 . S
C210 O184 1.269 . S
C210 O185 1.257 . S
C211 H186 0.930 1_655 S
C211 C214 1.388 . S
C211 C216 1.418 . S
C212 H207 0.930 . S
C212 C215 1.404 . S
C212 C216 1.353 . S
N213 Co178 2.145 1_554 S
N213 C214 1.397 . S
N213 C215 1.334 . S
C214 H195 0.929 1_554 S
C214 C211 1.388 . S
C214 N213 1.397 . S
C215 H196 0.929 . S
C215 C212 1.404 . S
C215 N213 1.334 . S
C216 H208 0.930 1_655 S
C216 C211 1.418 . S
C216 C212 1.353 . S
C217 H187 0.930 . S
C217 N218 1.330 . S
C217 C219 1.446 . S
N218 Co177 2.151 . S
N218 C217 1.330 . S
N218 C222 1.418 . S
C219 H198 0.929 . S
C219 C217 1.446 . S
C219 C220 1.332 . S
C220 H200 0.931 . S
C220 C219 1.332 . S
C220 C221 1.267 . S
C221 H189 0.929 . S
C221 C220 1.267 . S
C221 C222 1.251 . S
C222 H192 0.929 . S
C222 N218 1.418 . S
C222 C221 1.251 . S
C223 H190 0.930 . S
C223 C225 1.406 . S
C223 C228 1.261 . S
C224 H191 0.930 . S
C224 N226 1.325 . S
C224 C227 1.357 . S
C225 H193 0.928 . S
C225 C223 1.406 . S
C225 N226 1.261 . S
N226 Co177 2.214 . S
N226 C224 1.325 . S
N226 C225 1.261 . S
C227 H197 0.931 . S
C227 C224 1.357 . S
C227 C228 1.312 . S
C228 H199 0.930 . S
C228 C223 1.261 . S
C228 C227 1.312 . S
C229 O201 1.214 . S
C229 O209 1.234 . S
C230 H202 0.929 . S
C230 C233 1.391 . S
C230 C235 1.391 . S
C231 H203 0.929 . S
C231 C232 1.390 . S
C231 N234 1.391 . S
C232 H204 0.930 . S
C232 C231 1.390 . S
C232 C233 1.392 . S
C233 H205 0.929 . S
C233 C230 1.391 . S
C233 C232 1.392 . S
N234 Co178 2.257 1_554 S
N234 C231 1.391 . S
N234 C235 1.388 . S
C235 H206 0.930 . S
C235 C230 1.391 . S
C235 N234 1.388 . S
Co236 O238 2.143 . S
Co236 O244 2.074 . S
Co236 O247 2.093 . S
Co236 O260 2.097 . S
Co236 N277 2.151 1_554 S
Co236 N285 2.214 1_554 S
Co237 O238 2.160 . S
Co237 O243 2.058 . S
Co237 O253 2.057 . S
Co237 O268 2.037 . S
Co237 N272 2.145 . S
Co237 N293 2.257 . S
O238 Co236 2.143 . S
O238 Co237 2.160 . S
C239 O240 1.278 . S
C239 O247 1.224 . S
O240 C239 1.278 . S
C241 O242 1.245 . S
C241 O253 1.232 . S
O242 C241 1.245 . S
O243 Co237 2.058 . S
O243 C269 1.269 . S
O244 Co236 2.074 . S
O244 C269 1.257 . S
H245 C270 0.930 . S
H246 C276 0.930 . S
O247 Co236 2.093 . S
O247 C239 1.224 . S
H248 C280 0.929 . S
H249 C282 0.930 . S
H250 C283 0.930 . S
H251 C281 0.929 . S
H252 C284 0.928 . S
O253 Co237 2.057 . S
O253 C241 1.232 . S
H254 C273 0.929 . S
H255 C274 0.929 . S
H256 C286 0.931 . S
H257 C278 0.929 . S
H258 C287 0.930 . S
H259 C279 0.931 . S
O260 Co236 2.097 . S
O260 C288 1.214 . S
H261 C289 0.929 . S
H262 C290 0.929 . S
H263 C291 0.930 . S
H264 C292 0.929 . S
H265 C294 0.930 . S
H266 C271 0.930 . S
H267 C275 0.930 . S
O268 Co237 2.037 . S
O268 C288 1.234 . S
C269 O243 1.269 . S
C269 O244 1.257 . S
C270 H245 0.930 . S
C270 C273 1.388 . S
C270 C275 1.418 . S
C271 H266 0.930 . S
C271 C274 1.404 . S
C271 C275 1.353 . S
N272 Co237 2.145 . S
N272 C273 1.397 . S
N272 C274 1.334 . S
C273 H254 0.929 . S
C273 C270 1.388 . S
C273 N272 1.397 . S
C274 H255 0.929 . S
C274 C271 1.404 . S
C274 N272 1.334 . S
C275 H267 0.930 . S
C275 C270 1.418 . S
C275 C271 1.353 . S
C276 H246 0.930 . S
C276 N277 1.330 . S
C276 C278 1.446 . S
N277 Co236 2.151 1_556 S
N277 C276 1.330 . S
N277 C281 1.418 . S
C278 H257 0.929 . S
C278 C276 1.446 . S
C278 C279 1.332 . S
C279 H259 0.931 . S
C279 C278 1.332 . S
C279 C280 1.267 . S
C280 H248 0.929 . S
C280 C279 1.267 . S
C280 C281 1.251 . S
C281 H251 0.929 . S
C281 N277 1.418 . S
C281 C280 1.251 . S
C282 H249 0.930 . S
C282 C284 1.406 . S
C282 C287 1.261 . S
C283 H250 0.930 . S
C283 N285 1.325 . S
C283 C286 1.357 . S
C284 H252 0.928 . S
C284 C282 1.406 . S
C284 N285 1.261 . S
N285 Co236 2.214 1_556 S
N285 C283 1.325 . S
N285 C284 1.261 . S
C286 H256 0.931 . S
C286 C283 1.357 . S
C286 C287 1.312 . S
C287 H258 0.930 . S
C287 C282 1.261 . S
C287 C286 1.312 . S
C288 O260 1.214 . S
C288 O268 1.234 . S
C289 H261 0.929 . S
C289 C292 1.391 . S
C289 C294 1.391 . S
C290 H262 0.929 . S
C290 C291 1.390 . S
C290 N293 1.391 . S
C291 H263 0.930 . S
C291 C290 1.390 . S
C291 C292 1.392 . S
C292 H264 0.929 . S
C292 C289 1.391 . S
C292 C291 1.392 . S
N293 Co237 2.257 . S
N293 C290 1.391 . S
N293 C294 1.388 . S
C294 H265 0.930 . S
C294 C289 1.391 . S
C294 N293 1.388 . S
Co295 O297 2.143 1_554 S
Co295 O303 2.074 . S
Co295 O306 2.093 . S
Co295 O319 2.097 1_554 S
Co295 N336 2.151 . S
Co295 N344 2.214 . S
Co296 O297 2.160 . S
Co296 O302 2.058 . S
Co296 O312 2.057 . S
Co296 O327 2.037 . S
Co296 N331 2.145 . S
Co296 N352 2.257 . S
O297 Co295 2.143 1_556 S
O297 Co296 2.160 . S
C298 O299 1.278 . S
C298 O306 1.224 1_556 S
O299 C298 1.278 . S
C300 O301 1.245 . S
C300 O312 1.232 . S
O301 C300 1.245 . S
O302 Co296 2.058 . S
O302 C328 1.269 . S
O303 Co295 2.074 . S
O303 C328 1.257 1_554 S
H304 C329 0.930 . S
H305 C335 0.930 . S
O306 Co295 2.093 . S
O306 C298 1.224 1_554 S
H307 C339 0.929 . S
H308 C341 0.930 . S
H309 C342 0.930 . S
H310 C340 0.929 . S
H311 C343 0.928 . S
O312 Co296 2.057 . S
O312 C300 1.232 . S
H313 C332 0.929 . S
H314 C333 0.929 . S
H315 C345 0.931 . S
H316 C337 0.929 . S
H317 C346 0.930 . S
H318 C338 0.931 . S
O319 Co295 2.097 1_556 S
O319 C347 1.214 . S
H320 C348 0.929 . S
H321 C349 0.929 . S
H322 C350 0.930 . S
H323 C351 0.929 . S
H324 C353 0.930 . S
H325 C330 0.930 . S
H326 C334 0.930 . S
O327 Co296 2.037 . S
O327 C347 1.234 . S
C328 O302 1.269 . S
C328 O303 1.257 1_556 S
C329 H304 0.930 . S
C329 C332 1.388 . S
C329 C334 1.418 . S
C330 H325 0.930 . S
C330 C333 1.404 . S
C330 C334 1.353 . S
N331 Co296 2.145 . S
N331 C332 1.397 . S
N331 C333 1.334 . S
C332 H313 0.929 . S
C332 C329 1.388 . S
C332 N331 1.397 . S
C333 H314 0.929 . S
C333 C330 1.404 . S
C333 N331 1.334 . S
C334 H326 0.930 . S
C334 C329 1.418 . S
C334 C330 1.353 . S
C335 H305 0.930 . S
C335 N336 1.330 . S
C335 C337 1.446 . S
N336 Co295 2.151 . S
N336 C335 1.330 . S
N336 C340 1.418 . S
C337 H316 0.929 . S
C337 C335 1.446 . S
C337 C338 1.332 . S
C338 H318 0.931 . S
C338 C337 1.332 . S
C338 C339 1.267 . S
C339 H307 0.929 . S
C339 C338 1.267 . S
C339 C340 1.251 . S
C340 H310 0.929 . S
C340 N336 1.418 . S
C340 C339 1.251 . S
C341 H308 0.930 . S
C341 C343 1.406 . S
C341 C346 1.261 . S
C342 H309 0.930 . S
C342 N344 1.325 . S
C342 C345 1.357 . S
C343 H311 0.928 . S
C343 C341 1.406 . S
C343 N344 1.261 . S
N344 Co295 2.214 . S
N344 C342 1.325 . S
N344 C343 1.261 . S
C345 H315 0.931 . S
C345 C342 1.357 . S
C345 C346 1.312 . S
C346 H317 0.930 . S
C346 C341 1.261 . S
C346 C345 1.312 . S
C347 O319 1.214 . S
C347 O327 1.234 . S
C348 H320 0.929 . S
C348 C351 1.391 . S
C348 C353 1.391 . S
C349 H321 0.929 . S
C349 C350 1.390 . S
C349 N352 1.391 . S
C350 H322 0.930 . S
C350 C349 1.390 . S
C350 C351 1.392 . S
C351 H323 0.929 . S
C351 C348 1.391 . S
C351 C350 1.392 . S
N352 Co296 2.257 . S
N352 C349 1.391 . S
N352 C353 1.388 . S
C353 H324 0.930 . S
C353 C348 1.391 . S
C353 N352 1.388 . S
Co354 O356 2.143 . S
Co354 O362 2.074 . S
Co354 O365 2.093 . S
Co354 O378 2.097 . S
Co354 N395 2.151 1_554 S
Co354 N403 2.214 1_554 S
Co355 O356 2.160 . S
Co355 O361 2.058 . S
Co355 O371 2.057 . S
Co355 O386 2.037 . S
Co355 N390 2.145 . S
Co355 N411 2.257 . S
O356 Co354 2.143 . S
O356 Co355 2.160 . S
C357 O358 1.278 . S
C357 O365 1.224 . S
O358 C357 1.278 . S
C359 O360 1.245 . S
C359 O371 1.232 . S
O360 C359 1.245 . S
O361 Co355 2.058 . S
O361 C387 1.269 . S
O362 Co354 2.074 . S
O362 C387 1.257 . S
H363 C388 0.930 . S
H364 C394 0.930 . S
O365 Co354 2.093 . S
O365 C357 1.224 . S
H366 C398 0.929 . S
H367 C400 0.930 . S
H368 C401 0.930 . S
H369 C399 0.929 . S
H370 C402 0.928 . S
O371 Co355 2.057 . S
O371 C359 1.232 . S
H372 C391 0.929 . S
H373 C392 0.929 . S
H374 C404 0.931 . S
H375 C396 0.929 . S
H376 C405 0.930 . S
H377 C397 0.931 . S
O378 Co354 2.097 . S
O378 C406 1.214 . S
H379 C407 0.929 . S
H380 C408 0.929 . S
H381 C409 0.930 . S
H382 C410 0.929 . S
H383 C412 0.930 . S
H384 C389 0.930 . S
H385 C393 0.930 . S
O386 Co355 2.037 . S
O386 C406 1.234 . S
C387 O361 1.269 . S
C387 O362 1.257 . S
C388 H363 0.930 . S
C388 C391 1.388 . S
C388 C393 1.418 . S
C389 H384 0.930 . S
C389 C392 1.404 . S
C389 C393 1.353 . S
N390 Co355 2.145 . S
N390 C391 1.397 . S
N390 C392 1.334 . S
C391 H372 0.929 . S
C391 C388 1.388 . S
C391 N390 1.397 . S
C392 H373 0.929 . S
C392 C389 1.404 . S
C392 N390 1.334 . S
C393 H385 0.930 . S
C393 C388 1.418 . S
C393 C389 1.353 . S
C394 H364 0.930 . S
C394 N395 1.330 . S
C394 C396 1.446 . S
N395 Co354 2.151 1_556 S
N395 C394 1.330 . S
N395 C399 1.418 . S
C396 H375 0.929 . S
C396 C394 1.446 . S
C396 C397 1.332 . S
C397 H377 0.931 . S
C397 C396 1.332 . S
C397 C398 1.267 . S
C398 H366 0.929 . S
C398 C397 1.267 . S
C398 C399 1.251 . S
C399 H369 0.929 . S
C399 N395 1.418 . S
C399 C398 1.251 . S
C400 H367 0.930 . S
C400 C402 1.406 . S
C400 C405 1.261 . S
C401 H368 0.930 . S
C401 N403 1.325 . S
C401 C404 1.357 . S
C402 H370 0.928 . S
C402 C400 1.406 . S
C402 N403 1.261 . S
N403 Co354 2.214 1_556 S
N403 C401 1.325 . S
N403 C402 1.261 . S
C404 H374 0.931 . S
C404 C401 1.357 . S
C404 C405 1.312 . S
C405 H376 0.930 . S
C405 C400 1.261 . S
C405 C404 1.312 . S
C406 O378 1.214 . S
C406 O386 1.234 . S
C407 H379 0.929 . S
C407 C410 1.391 . S
C407 C412 1.391 . S
C408 H380 0.929 . S
C408 C409 1.390 . S
C408 N411 1.391 . S
C409 H381 0.930 . S
C409 C408 1.390 . S
C409 C410 1.392 . S
C410 H382 0.929 . S
C410 C407 1.391 . S
C410 C409 1.392 . S
N411 Co355 2.257 . S
N411 C408 1.391 . S
N411 C412 1.388 . S
C412 H383 0.930 . S
C412 C407 1.391 . S
C412 N411 1.388 . S
Co413 O415 2.143 1_554 S
Co413 O421 2.074 . S
Co413 O424 2.093 . S
Co413 O437 2.097 1_554 S
Co413 N454 2.151 . S
Co413 N462 2.214 . S
Co414 O415 2.160 . S
Co414 O420 2.058 . S
Co414 O430 2.057 . S
Co414 O445 2.037 . S
Co414 N449 2.145 . S
Co414 N470 2.257 . S
O415 Co413 2.143 1_556 S
O415 Co414 2.160 . S
C416 O417 1.278 . S
C416 O424 1.224 1_556 S
O417 C416 1.278 . S
C418 O419 1.245 . S
C418 O430 1.232 . S
O419 C418 1.245 . S
O420 Co414 2.058 . S
O420 C446 1.269 . S
O421 Co413 2.074 . S
O421 C446 1.257 1_554 S
H422 C447 0.930 . S
H423 C453 0.930 . S
O424 Co413 2.093 . S
O424 C416 1.224 1_554 S
H425 C457 0.929 . S
H426 C459 0.930 . S
H427 C460 0.930 . S
H428 C458 0.929 . S
H429 C461 0.928 . S
O430 Co414 2.057 . S
O430 C418 1.232 . S
H431 C450 0.929 . S
H432 C451 0.929 . S
H433 C463 0.931 . S
H434 C455 0.929 . S
H435 C464 0.930 . S
H436 C456 0.931 . S
O437 Co413 2.097 1_556 S
O437 C465 1.214 . S
H438 C466 0.929 . S
H439 C467 0.929 . S
H440 C468 0.930 . S
H441 C469 0.929 . S
H442 C471 0.930 . S
H443 C448 0.930 . S
H444 C452 0.930 . S
O445 Co414 2.037 . S
O445 C465 1.234 . S
C446 O420 1.269 . S
C446 O421 1.257 1_556 S
C447 H422 0.930 . S
C447 C450 1.388 . S
C447 C452 1.418 . S
C448 H443 0.930 . S
C448 C451 1.404 . S
C448 C452 1.353 . S
N449 Co414 2.145 . S
N449 C450 1.397 . S
N449 C451 1.334 . S
C450 H431 0.929 . S
C450 C447 1.388 . S
C450 N449 1.397 . S
C451 H432 0.929 . S
C451 C448 1.404 . S
C451 N449 1.334 . S
C452 H444 0.930 . S
C452 C447 1.418 . S
C452 C448 1.353 . S
C453 H423 0.930 . S
C453 N454 1.330 . S
C453 C455 1.446 . S
N454 Co413 2.151 . S
N454 C453 1.330 . S
N454 C458 1.418 . S
C455 H434 0.929 . S
C455 C453 1.446 . S
C455 C456 1.332 . S
C456 H436 0.931 . S
C456 C455 1.332 . S
C456 C457 1.267 . S
C457 H425 0.929 . S
C457 C456 1.267 . S
C457 C458 1.251 . S
C458 H428 0.929 . S
C458 N454 1.418 . S
C458 C457 1.251 . S
C459 H426 0.930 . S
C459 C461 1.406 . S
C459 C464 1.261 . S
C460 H427 0.930 . S
C460 N462 1.325 . S
C460 C463 1.357 . S
C461 H429 0.928 . S
C461 C459 1.406 . S
C461 N462 1.261 . S
N462 Co413 2.214 . S
N462 C460 1.325 . S
N462 C461 1.261 . S
C463 H433 0.931 . S
C463 C460 1.357 . S
C463 C464 1.312 . S
C464 H435 0.930 . S
C464 C459 1.261 . S
C464 C463 1.312 . S
C465 O437 1.214 . S
C465 O445 1.234 . S
C466 H438 0.929 . S
C466 C469 1.391 . S
C466 C471 1.391 . S
C467 H439 0.929 . S
C467 C468 1.390 . S
C467 N470 1.391 . S
C468 H440 0.930 . S
C468 C467 1.390 . S
C468 C469 1.392 . S
C469 H441 0.929 . S
C469 C466 1.391 . S
C469 C468 1.392 . S
N470 Co414 2.257 . S
N470 C467 1.391 . S
N470 C471 1.388 . S
C471 H442 0.930 . S
C471 C466 1.391 . S
C471 N470 1.388 . S
Co472 O474 2.143 . S
Co472 O480 2.074 . S
Co472 O483 2.093 . S
Co472 O496 2.097 . S
Co472 N513 2.151 . S
Co472 N521 2.214 . S
Co473 O474 2.160 . S
Co473 O479 2.058 . S
Co473 O489 2.057 . S
Co473 O504 2.037 . S
Co473 N508 2.145 . S
Co473 N529 2.257 . S
O474 Co472 2.143 . S
O474 Co473 2.160 . S
C475 O476 1.278 . S
C475 O483 1.224 . S
O476 C475 1.278 . S
C477 O478 1.245 . S
C477 O489 1.232 . S
O478 C477 1.245 . S
O479 Co473 2.058 . S
O479 C505 1.269 . S
O480 Co472 2.074 . S
O480 C505 1.257 . S
H481 C506 0.930 . S
H482 C512 0.930 . S
O483 Co472 2.093 . S
O483 C475 1.224 . S
H484 C516 0.929 . S
H485 C518 0.930 . S
H486 C519 0.930 . S
H487 C517 0.929 . S
H488 C520 0.928 . S
O489 Co473 2.057 . S
O489 C477 1.232 . S
H490 C509 0.929 . S
H491 C510 0.929 . S
H492 C522 0.931 . S
H493 C514 0.929 . S
H494 C523 0.930 . S
H495 C515 0.931 . S
O496 Co472 2.097 . S
O496 C524 1.214 . S
H497 C525 0.929 . S
H498 C526 0.929 . S
H499 C527 0.930 . S
H500 C528 0.929 . S
H501 C530 0.930 . S
H502 C507 0.930 . S
H503 C511 0.930 . S
O504 Co473 2.037 . S
O504 C524 1.234 . S
C505 O479 1.269 . S
C505 O480 1.257 . S
C506 H481 0.930 . S
C506 C509 1.388 . S
C506 C511 1.418 . S
C507 H502 0.930 . S
C507 C510 1.404 . S
C507 C511 1.353 . S
N508 Co473 2.145 . S
N508 C509 1.397 . S
N508 C510 1.334 . S
C509 H490 0.929 . S
C509 C506 1.388 . S
C509 N508 1.397 . S
C510 H491 0.929 . S
C510 C507 1.404 . S
C510 N508 1.334 . S
C511 H503 0.930 . S
C511 C506 1.418 . S
C511 C507 1.353 . S
C512 H482 0.930 . S
C512 N513 1.330 . S
C512 C514 1.446 . S
N513 Co472 2.151 . S
N513 C512 1.330 . S
N513 C517 1.418 . S
C514 H493 0.929 . S
C514 C512 1.446 . S
C514 C515 1.332 . S
C515 H495 0.931 . S
C515 C514 1.332 . S
C515 C516 1.267 . S
C516 H484 0.929 . S
C516 C515 1.267 . S
C516 C517 1.251 . S
C517 H487 0.929 . S
C517 N513 1.418 . S
C517 C516 1.251 . S
C518 H485 0.930 . S
C518 C520 1.406 1_554 S
C518 C523 1.261 . S
C519 H486 0.930 . S
C519 N521 1.325 . S
C519 C522 1.357 . S
C520 H488 0.928 . S
C520 C518 1.406 1_556 S
C520 N521 1.261 . S
N521 Co472 2.214 . S
N521 C519 1.325 . S
N521 C520 1.261 . S
C522 H492 0.931 . S
C522 C519 1.357 . S
C522 C523 1.312 1_556 S
C523 H494 0.930 . S
C523 C518 1.261 . S
C523 C522 1.312 1_554 S
C524 O496 1.214 . S
C524 O504 1.234 . S
C525 H497 0.929 . S
C525 C528 1.391 . S
C525 C530 1.391 . S
C526 H498 0.929 . S
C526 C527 1.390 . S
C526 N529 1.391 . S
C527 H499 0.930 . S
C527 C526 1.390 . S
C527 C528 1.392 . S
C528 H500 0.929 . S
C528 C525 1.391 . S
C528 C527 1.392 . S
N529 Co473 2.257 . S
N529 C526 1.391 . S
N529 C530 1.388 . S
C530 H501 0.930 . S
C530 C525 1.391 . S
C530 N529 1.388 . S
Co531 O533 2.143 . S
Co531 O539 2.074 . S
Co531 O542 2.093 . S
Co531 O555 2.097 . S
Co531 N572 2.151 . S
Co531 N580 2.214 . S
Co532 O533 2.160 . S
Co532 O538 2.058 . S
Co532 O548 2.057 . S
Co532 O563 2.037 . S
Co532 N567 2.145 . S
Co532 N588 2.257 . S
O533 Co531 2.143 . S
O533 Co532 2.160 . S
C534 O535 1.278 . S
C534 O542 1.224 . S
O535 C534 1.278 . S
C536 O537 1.245 . S
C536 O548 1.232 . S
O537 C536 1.245 . S
O538 Co532 2.058 . S
O538 C564 1.269 . S
O539 Co531 2.074 . S
O539 C564 1.257 . S
H540 C565 0.930 . S
H541 C571 0.930 . S
O542 Co531 2.093 . S
O542 C534 1.224 . S
H543 C575 0.929 1_556 S
H544 C577 0.930 . S
H545 C578 0.930 . S
H546 C576 0.929 . S
H547 C579 0.928 1_554 S
O548 Co532 2.057 . S
O548 C536 1.232 . S
H549 C568 0.929 . S
H550 C569 0.929 . S
H551 C581 0.931 . S
H552 C573 0.929 . S
H553 C582 0.930 . S
H554 C574 0.931 1_556 S
O555 Co531 2.097 . S
O555 C583 1.214 . S
H556 C584 0.929 . S
H557 C585 0.929 . S
H558 C586 0.930 . S
H559 C587 0.929 . S
H560 C589 0.930 . S
H561 C566 0.930 . S
H562 C570 0.930 . S
O563 Co532 2.037 . S
O563 C583 1.234 . S
C564 O538 1.269 . S
C564 O539 1.257 . S
C565 H540 0.930 . S
C565 C568 1.388 . S
C565 C570 1.418 . S
C566 H561 0.930 . S
C566 C569 1.404 . S
C566 C570 1.353 . S
N567 Co532 2.145 . S
N567 C568 1.397 . S
N567 C569 1.334 . S
C568 H549 0.929 . S
C568 C565 1.388 . S
C568 N567 1.397 . S
C569 H550 0.929 . S
C569 C566 1.404 . S
C569 N567 1.334 . S
C570 H562 0.930 . S
C570 C565 1.418 . S
C570 C566 1.353 . S
C571 H541 0.930 . S
C571 N572 1.330 . S
C571 C573 1.446 . S
N572 Co531 2.151 . S
N572 C571 1.330 . S
N572 C576 1.418 . S
C573 H552 0.929 . S
C573 C571 1.446 . S
C573 C574 1.332 . S
C574 H554 0.931 1_554 S
C574 C573 1.332 . S
C574 C575 1.267 . S
C575 H543 0.929 1_554 S
C575 C574 1.267 . S
C575 C576 1.251 . S
C576 H546 0.929 . S
C576 N572 1.418 . S
C576 C575 1.251 . S
C577 H544 0.930 . S
C577 C579 1.406 . S
C577 C582 1.261 . S
C578 H545 0.930 . S
C578 N580 1.325 . S
C578 C581 1.357 1_554 S
C579 H547 0.928 1_556 S
C579 C577 1.406 . S
C579 N580 1.261 1_556 S
N580 Co531 2.214 . S
N580 C578 1.325 . S
N580 C579 1.261 1_554 S
C581 H551 0.931 . S
C581 C578 1.357 1_556 S
C581 C582 1.312 . S
C582 H553 0.930 . S
C582 C577 1.261 . S
C582 C581 1.312 . S
C583 O555 1.214 . S
C583 O563 1.234 . S
C584 H556 0.929 . S
C584 C587 1.391 . S
C584 C589 1.391 . S
C585 H557 0.929 . S
C585 C586 1.390 . S
C585 N588 1.391 . S
C586 H558 0.930 . S
C586 C585 1.390 . S
C586 C587 1.392 . S
C587 H559 0.929 . S
C587 C584 1.391 . S
C587 C586 1.392 . S
N588 Co532 2.257 . S
N588 C585 1.391 . S
N588 C589 1.388 . S
C589 H560 0.930 . S
C589 C584 1.391 . S
C589 N588 1.388 . S
Co590 O592 2.143 . S
Co590 O598 2.074 . S
Co590 O601 2.093 . S
Co590 O614 2.097 . S
Co590 N631 2.151 . S
Co590 N639 2.214 . S
Co591 O592 2.160 . S
Co591 O597 2.058 . S
Co591 O607 2.057 . S
Co591 O622 2.037 . S
Co591 N626 2.145 . S
Co591 N647 2.257 . S
O592 Co590 2.143 . S
O592 Co591 2.160 . S
C593 O594 1.278 . S
C593 O601 1.224 . S
O594 C593 1.278 . S
C595 O596 1.245 . S
C595 O607 1.232 . S
O596 C595 1.245 . S
O597 Co591 2.058 . S
O597 C623 1.269 . S
O598 Co590 2.074 . S
O598 C623 1.257 . S
H599 C624 0.930 . S
H600 C630 0.930 . S
O601 Co590 2.093 . S
O601 C593 1.224 . S
H602 C634 0.929 . S
H603 C636 0.930 . S
H604 C637 0.930 . S
H605 C635 0.929 . S
H606 C638 0.928 . S
O607 Co591 2.057 . S
O607 C595 1.232 . S
H608 C627 0.929 . S
H609 C628 0.929 . S
H610 C640 0.931 . S
H611 C632 0.929 . S
H612 C641 0.930 . S
H613 C633 0.931 . S
O614 Co590 2.097 . S
O614 C642 1.214 . S
H615 C643 0.929 . S
H616 C644 0.929 . S
H617 C645 0.930 . S
H618 C646 0.929 . S
H619 C648 0.930 . S
H620 C625 0.930 . S
H621 C629 0.930 . S
O622 Co591 2.037 . S
O622 C642 1.234 . S
C623 O597 1.269 . S
C623 O598 1.257 . S
C624 H599 0.930 . S
C624 C627 1.388 . S
C624 C629 1.418 . S
C625 H620 0.930 . S
C625 C628 1.404 . S
C625 C629 1.353 . S
N626 Co591 2.145 . S
N626 C627 1.397 . S
N626 C628 1.334 . S
C627 H608 0.929 . S
C627 C624 1.388 . S
C627 N626 1.397 . S
C628 H609 0.929 . S
C628 C625 1.404 . S
C628 N626 1.334 . S
C629 H621 0.930 . S
C629 C624 1.418 . S
C629 C625 1.353 . S
C630 H600 0.930 . S
C630 N631 1.330 . S
C630 C632 1.446 . S
N631 Co590 2.151 . S
N631 C630 1.330 . S
N631 C635 1.418 . S
C632 H611 0.929 . S
C632 C630 1.446 . S
C632 C633 1.332 . S
C633 H613 0.931 . S
C633 C632 1.332 . S
C633 C634 1.267 . S
C634 H602 0.929 . S
C634 C633 1.267 . S
C634 C635 1.251 . S
C635 H605 0.929 . S
C635 N631 1.418 . S
C635 C634 1.251 . S
C636 H603 0.930 . S
C636 C638 1.406 1_554 S
C636 C641 1.261 . S
C637 H604 0.930 . S
C637 N639 1.325 . S
C637 C640 1.357 . S
C638 H606 0.928 . S
C638 C636 1.406 1_556 S
C638 N639 1.261 . S
N639 Co590 2.214 . S
N639 C637 1.325 . S
N639 C638 1.261 . S
C640 H610 0.931 . S
C640 C637 1.357 . S
C640 C641 1.312 1_556 S
C641 H612 0.930 . S
C641 C636 1.261 . S
C641 C640 1.312 1_554 S
C642 O614 1.214 . S
C642 O622 1.234 . S
C643 H615 0.929 . S
C643 C646 1.391 . S
C643 C648 1.391 . S
C644 H616 0.929 . S
C644 C645 1.390 . S
C644 N647 1.391 . S
C645 H617 0.930 . S
C645 C644 1.390 . S
C645 C646 1.392 . S
C646 H618 0.929 . S
C646 C643 1.391 . S
C646 C645 1.392 . S
N647 Co591 2.257 . S
N647 C644 1.391 . S
N647 C648 1.388 . S
C648 H619 0.930 . S
C648 C643 1.391 . S
C648 N647 1.388 . S
Co649 O651 2.143 . S
Co649 O657 2.074 . S
Co649 O660 2.093 . S
Co649 O673 2.097 . S
Co649 N690 2.151 . S
Co649 N698 2.214 . S
Co650 O651 2.160 . S
Co650 O656 2.058 . S
Co650 O666 2.057 . S
Co650 O681 2.037 . S
Co650 N685 2.145 . S
Co650 N706 2.257 . S
O651 Co649 2.143 . S
O651 Co650 2.160 . S
C652 O653 1.278 . S
C652 O660 1.224 . S
O653 C652 1.278 . S
C654 O655 1.245 . S
C654 O666 1.232 . S
O655 C654 1.245 . S
O656 Co650 2.058 . S
O656 C682 1.269 . S
O657 Co649 2.074 . S
O657 C682 1.257 . S
H658 C683 0.930 . S
H659 C689 0.930 . S
O660 Co649 2.093 . S
O660 C652 1.224 . S
H661 C693 0.929 1_556 S
H662 C695 0.930 . S
H663 C696 0.930 . S
H664 C694 0.929 . S
H665 C697 0.928 1_554 S
O666 Co650 2.057 . S
O666 C654 1.232 . S
H667 C686 0.929 . S
H668 C687 0.929 . S
H669 C699 0.931 . S
H670 C691 0.929 . S
H671 C700 0.930 . S
H672 C692 0.931 1_556 S
O673 Co649 2.097 . S
O673 C701 1.214 . S
H674 C702 0.929 . S
H675 C703 0.929 . S
H676 C704 0.930 . S
H677 C705 0.929 . S
H678 C707 0.930 . S
H679 C684 0.930 . S
H680 C688 0.930 . S
O681 Co650 2.037 . S
O681 C701 1.234 . S
C682 O656 1.269 . S
C682 O657 1.257 . S
C683 H658 0.930 . S
C683 C686 1.388 . S
C683 C688 1.418 . S
C684 H679 0.930 . S
C684 C687 1.404 . S
C684 C688 1.353 . S
N685 Co650 2.145 . S
N685 C686 1.397 . S
N685 C687 1.334 . S
C686 H667 0.929 . S
C686 C683 1.388 . S
C686 N685 1.397 . S
C687 H668 0.929 . S
C687 C684 1.404 . S
C687 N685 1.334 . S
C688 H680 0.930 . S
C688 C683 1.418 . S
C688 C684 1.353 . S
C689 H659 0.930 . S
C689 N690 1.330 . S
C689 C691 1.446 . S
N690 Co649 2.151 . S
N690 C689 1.330 . S
N690 C694 1.418 . S
C691 H670 0.929 . S
C691 C689 1.446 . S
C691 C692 1.332 . S
C692 H672 0.931 1_554 S
C692 C691 1.332 . S
C692 C693 1.267 . S
C693 H661 0.929 1_554 S
C693 C692 1.267 . S
C693 C694 1.251 . S
C694 H664 0.929 . S
C694 N690 1.418 . S
C694 C693 1.251 . S
C695 H662 0.930 . S
C695 C697 1.406 . S
C695 C700 1.261 . S
C696 H663 0.930 . S
C696 N698 1.325 . S
C696 C699 1.357 1_554 S
C697 H665 0.928 1_556 S
C697 C695 1.406 . S
C697 N698 1.261 1_556 S
N698 Co649 2.214 . S
N698 C696 1.325 . S
N698 C697 1.261 1_554 S
C699 H669 0.931 . S
C699 C696 1.357 1_556 S
C699 C700 1.312 . S
C700 H671 0.930 . S
C700 C695 1.261 . S
C700 C699 1.312 . S
C701 O673 1.214 . S
C701 O681 1.234 . S
C702 H674 0.929 . S
C702 C705 1.391 . S
C702 C707 1.391 . S
C703 H675 0.929 . S
C703 C704 1.390 . S
C703 N706 1.391 . S
C704 H676 0.930 . S
C704 C703 1.390 . S
C704 C705 1.392 . S
C705 H677 0.929 . S
C705 C702 1.391 . S
C705 C704 1.392 . S
N706 Co650 2.257 . S
N706 C703 1.391 . S
N706 C707 1.388 . S
C707 H678 0.930 . S
C707 C702 1.391 . S
C707 N706 1.388 . S
Co708 O710 2.143 . S
Co708 O716 2.074 . S
Co708 O719 2.093 . S
Co708 O732 2.097 . S
Co708 N749 2.151 . S
Co708 N757 2.214 . S
Co709 O710 2.160 . S
Co709 O715 2.058 . S
Co709 O725 2.057 . S
Co709 O740 2.037 . S
Co709 N744 2.145 . S
Co709 N765 2.257 . S
O710 Co708 2.143 . S
O710 Co709 2.160 . S
C711 O712 1.278 . S
C711 O719 1.224 . S
O712 C711 1.278 . S
C713 O714 1.245 . S
C713 O725 1.232 . S
O714 C713 1.245 . S
O715 Co709 2.058 . S
O715 C741 1.269 . S
O716 Co708 2.074 . S
O716 C741 1.257 . S
H717 C742 0.930 . S
H718 C748 0.930 . S
O719 Co708 2.093 . S
O719 C711 1.224 . S
H720 C752 0.929 . S
H721 C754 0.930 . S
H722 C755 0.930 . S
H723 C753 0.929 . S
H724 C756 0.928 . S
O725 Co709 2.057 . S
O725 C713 1.232 . S
H726 C745 0.929 . S
H727 C746 0.929 . S
H728 C758 0.931 . S
H729 C750 0.929 . S
H730 C759 0.930 . S
H731 C751 0.931 . S
O732 Co708 2.097 . S
O732 C760 1.214 . S
H733 C761 0.929 . S
H734 C762 0.929 . S
H735 C763 0.930 . S
H736 C764 0.929 . S
H737 C766 0.930 . S
H738 C743 0.930 . S
H739 C747 0.930 . S
O740 Co709 2.037 . S
O740 C760 1.234 . S
C741 O715 1.269 . S
C741 O716 1.257 . S
C742 H717 0.930 . S
C742 C745 1.388 1_554 S
C742 C747 1.418 . S
C743 H738 0.930 . S
C743 C746 1.404 . S
C743 C747 1.353 . S
N744 Co709 2.145 . S
N744 C745 1.397 . S
N744 C746 1.334 1_556 S
C745 H726 0.929 . S
C745 C742 1.388 1_556 S
C745 N744 1.397 . S
C746 H727 0.929 . S
C746 C743 1.404 . S
C746 N744 1.334 1_554 S
C747 H739 0.930 . S
C747 C742 1.418 . S
C747 C743 1.353 . S
C748 H718 0.930 . S
C748 N749 1.330 . S
C748 C750 1.446 . S
N749 Co708 2.151 . S
N749 C748 1.330 . S
N749 C753 1.418 . S
C750 H729 0.929 . S
C750 C748 1.446 . S
C750 C751 1.332 . S
C751 H731 0.931 . S
C751 C750 1.332 . S
C751 C752 1.267 . S
C752 H720 0.929 . S
C752 C751 1.267 . S
C752 C753 1.251 . S
C753 H723 0.929 . S
C753 N749 1.418 . S
C753 C752 1.251 . S
C754 H721 0.930 . S
C754 C756 1.406 . S
C754 C759 1.261 . S
C755 H722 0.930 . S
C755 N757 1.325 . S
C755 C758 1.357 . S
C756 H724 0.928 . S
C756 C754 1.406 . S
C756 N757 1.261 . S
N757 Co708 2.214 . S
N757 C755 1.325 . S
N757 C756 1.261 . S
C758 H728 0.931 . S
C758 C755 1.357 . S
C758 C759 1.312 . S
C759 H730 0.930 . S
C759 C754 1.261 . S
C759 C758 1.312 . S
C760 O732 1.214 . S
C760 O740 1.234 . S
C761 H733 0.929 . S
C761 C764 1.391 1_556 S
C761 C766 1.391 . S
C762 H734 0.929 . S
C762 C763 1.390 1_556 S
C762 N765 1.391 . S
C763 H735 0.930 . S
C763 C762 1.390 1_554 S
C763 C764 1.392 . S
C764 H736 0.929 . S
C764 C761 1.391 1_554 S
C764 C763 1.392 . S
N765 Co709 2.257 . S
N765 C762 1.391 . S
N765 C766 1.388 . S
C766 H737 0.930 . S
C766 C761 1.391 . S
C766 N765 1.388 . S
Co767 O769 2.143 . S
Co767 O775 2.074 . S
Co767 O778 2.093 . S
Co767 O791 2.097 . S
Co767 N808 2.151 . S
Co767 N816 2.214 . S
Co768 O769 2.160 . S
Co768 O774 2.058 . S
Co768 O784 2.057 . S
Co768 O799 2.037 . S
Co768 N803 2.145 . S
Co768 N824 2.257 . S
O769 Co767 2.143 . S
O769 Co768 2.160 . S
C770 O771 1.278 . S
C770 O778 1.224 . S
O771 C770 1.278 . S
C772 O773 1.245 . S
C772 O784 1.232 . S
O773 C772 1.245 . S
O774 Co768 2.058 . S
O774 C800 1.269 . S
O775 Co767 2.074 . S
O775 C800 1.257 . S
H776 C801 0.930 1_455 S
H777 C807 0.930 . S
O778 Co767 2.093 . S
O778 C770 1.224 . S
H779 C811 0.929 . S
H780 C813 0.930 . S
H781 C814 0.930 . S
H782 C812 0.929 . S
H783 C815 0.928 . S
O784 Co768 2.057 . S
O784 C772 1.232 . S
H785 C804 0.929 . S
H786 C805 0.929 . S
H787 C817 0.931 . S
H788 C809 0.929 . S
H789 C818 0.930 . S
H790 C810 0.931 . S
O791 Co767 2.097 . S
O791 C819 1.214 . S
H792 C820 0.929 . S
H793 C821 0.929 . S
H794 C822 0.930 . S
H795 C823 0.929 1_556 S
H796 C825 0.930 . S
H797 C802 0.930 1_556 S
H798 C806 0.930 1_456 S
O799 Co768 2.037 . S
O799 C819 1.234 . S
C800 O774 1.269 . S
C800 O775 1.257 . S
C801 H776 0.930 1_655 S
C801 C804 1.388 . S
C801 C806 1.418 . S
C802 H797 0.930 1_554 S
C802 C805 1.404 . S
C802 C806 1.353 . S
N803 Co768 2.145 . S
N803 C804 1.397 . S
N803 C805 1.334 . S
C804 H785 0.929 . S
C804 C801 1.388 . S
C804 N803 1.397 . S
C805 H786 0.929 . S
C805 C802 1.404 . S
C805 N803 1.334 . S
C806 H798 0.930 1_654 S
C806 C801 1.418 . S
C806 C802 1.353 . S
C807 H777 0.930 . S
C807 N808 1.330 . S
C807 C809 1.446 . S
N808 Co767 2.151 . S
N808 C807 1.330 . S
N808 C812 1.418 . S
C809 H788 0.929 . S
C809 C807 1.446 . S
C809 C810 1.332 . S
C810 H790 0.931 . S
C810 C809 1.332 . S
C810 C811 1.267 . S
C811 H779 0.929 . S
C811 C810 1.267 . S
C811 C812 1.251 . S
C812 H782 0.929 . S
C812 N808 1.418 . S
C812 C811 1.251 . S
C813 H780 0.930 . S
C813 C815 1.406 . S
C813 C818 1.261 . S
C814 H781 0.930 . S
C814 N816 1.325 . S
C814 C817 1.357 . S
C815 H783 0.928 . S
C815 C813 1.406 . S
C815 N816 1.261 . S
N816 Co767 2.214 . S
N816 C814 1.325 . S
N816 C815 1.261 . S
C817 H787 0.931 . S
C817 C814 1.357 . S
C817 C818 1.312 . S
C818 H789 0.930 . S
C818 C813 1.261 . S
C818 C817 1.312 . S
C819 O791 1.214 . S
C819 O799 1.234 . S
C820 H792 0.929 . S
C820 C823 1.391 . S
C820 C825 1.391 . S
C821 H793 0.929 . S
C821 C822 1.390 . S
C821 N824 1.391 . S
C822 H794 0.930 . S
C822 C821 1.390 . S
C822 C823 1.392 . S
C823 H795 0.929 1_554 S
C823 C820 1.391 . S
C823 C822 1.392 . S
N824 Co768 2.257 . S
N824 C821 1.391 . S
N824 C825 1.388 . S
C825 H796 0.930 . S
C825 C820 1.391 . S
C825 N824 1.388 . S
Co826 O828 2.143 . S
Co826 O834 2.074 . S
Co826 O837 2.093 . S
Co826 O850 2.097 . S
Co826 N867 2.151 . S
Co826 N875 2.214 . S
Co827 O828 2.160 . S
Co827 O833 2.058 . S
Co827 O843 2.057 . S
Co827 O858 2.037 . S
Co827 N862 2.145 . S
Co827 N883 2.257 . S
O828 Co826 2.143 . S
O828 Co827 2.160 . S
C829 O830 1.278 . S
C829 O837 1.224 . S
O830 C829 1.278 . S
C831 O832 1.245 . S
C831 O843 1.232 . S
O832 C831 1.245 . S
O833 Co827 2.058 . S
O833 C859 1.269 . S
O834 Co826 2.074 . S
O834 C859 1.257 . S
H835 C860 0.930 . S
H836 C866 0.930 . S
O837 Co826 2.093 . S
O837 C829 1.224 . S
H838 C870 0.929 . S
H839 C872 0.930 . S
H840 C873 0.930 . S
H841 C871 0.929 . S
H842 C874 0.928 . S
O843 Co827 2.057 . S
O843 C831 1.232 . S
H844 C863 0.929 . S
H845 C864 0.929 . S
H846 C876 0.931 . S
H847 C868 0.929 . S
H848 C877 0.930 . S
H849 C869 0.931 . S
O850 Co826 2.097 . S
O850 C878 1.214 . S
H851 C879 0.929 . S
H852 C880 0.929 . S
H853 C881 0.930 . S
H854 C882 0.929 . S
H855 C884 0.930 . S
H856 C861 0.930 . S
H857 C865 0.930 . S
O858 Co827 2.037 . S
O858 C878 1.234 . S
C859 O833 1.269 . S
C859 O834 1.257 . S
C860 H835 0.930 . S
C860 C863 1.388 1_554 S
C860 C865 1.418 . S
C861 H856 0.930 . S
C861 C864 1.404 . S
C861 C865 1.353 . S
N862 Co827 2.145 . S
N862 C863 1.397 . S
N862 C864 1.334 1_556 S
C863 H844 0.929 . S
C863 C860 1.388 1_556 S
C863 N862 1.397 . S
C864 H845 0.929 . S
C864 C861 1.404 . S
C864 N862 1.334 1_554 S
C865 H857 0.930 . S
C865 C860 1.418 . S
C865 C861 1.353 . S
C866 H836 0.930 . S
C866 N867 1.330 . S
C866 C868 1.446 . S
N867 Co826 2.151 . S
N867 C866 1.330 . S
N867 C871 1.418 . S
C868 H847 0.929 . S
C868 C866 1.446 . S
C868 C869 1.332 . S
C869 H849 0.931 . S
C869 C868 1.332 . S
C869 C870 1.267 . S
C870 H838 0.929 . S
C870 C869 1.267 . S
C870 C871 1.251 . S
C871 H841 0.929 . S
C871 N867 1.418 . S
C871 C870 1.251 . S
C872 H839 0.930 . S
C872 C874 1.406 . S
C872 C877 1.261 . S
C873 H840 0.930 . S
C873 N875 1.325 . S
C873 C876 1.357 . S
C874 H842 0.928 . S
C874 C872 1.406 . S
C874 N875 1.261 . S
N875 Co826 2.214 . S
N875 C873 1.325 . S
N875 C874 1.261 . S
C876 H846 0.931 . S
C876 C873 1.357 . S
C876 C877 1.312 . S
C877 H848 0.930 . S
C877 C872 1.261 . S
C877 C876 1.312 . S
C878 O850 1.214 . S
C878 O858 1.234 . S
C879 H851 0.929 . S
C879 C882 1.391 1_556 S
C879 C884 1.391 . S
C880 H852 0.929 . S
C880 C881 1.390 1_556 S
C880 N883 1.391 . S
C881 H853 0.930 . S
C881 C880 1.390 1_554 S
C881 C882 1.392 . S
C882 H854 0.929 . S
C882 C879 1.391 1_554 S
C882 C881 1.392 . S
N883 Co827 2.257 . S
N883 C880 1.391 . S
N883 C884 1.388 . S
C884 H855 0.930 . S
C884 C879 1.391 . S
C884 N883 1.388 . S
Co885 O887 2.143 . S
Co885 O893 2.074 . S
Co885 O896 2.093 . S
Co885 O909 2.097 . S
Co885 N926 2.151 . S
Co885 N934 2.214 . S
Co886 O887 2.160 . S
Co886 O892 2.058 . S
Co886 O902 2.057 . S
Co886 O917 2.037 . S
Co886 N921 2.145 . S
Co886 N942 2.257 . S
O887 Co885 2.143 . S
O887 Co886 2.160 . S
C888 O889 1.278 . S
C888 O896 1.224 . S
O889 C888 1.278 . S
C890 O891 1.245 . S
C890 O902 1.232 . S
O891 C890 1.245 . S
O892 Co886 2.058 . S
O892 C918 1.269 . S
O893 Co885 2.074 . S
O893 C918 1.257 . S
H894 C919 0.930 1_655 S
H895 C925 0.930 . S
O896 Co885 2.093 . S
O896 C888 1.224 . S
H897 C929 0.929 . S
H898 C931 0.930 . S
H899 C932 0.930 . S
H900 C930 0.929 . S
H901 C933 0.928 . S
O902 Co886 2.057 . S
O902 C890 1.232 . S
H903 C922 0.929 . S
H904 C923 0.929 . S
H905 C935 0.931 . S
H906 C927 0.929 . S
H907 C936 0.930 . S
H908 C928 0.931 . S
O909 Co885 2.097 . S
O909 C937 1.214 . S
H910 C938 0.929 . S
H911 C939 0.929 . S
H912 C940 0.930 . S
H913 C941 0.929 1_556 S
H914 C943 0.930 . S
H915 C920 0.930 1_556 S
H916 C924 0.930 1_656 S
O917 Co886 2.037 . S
O917 C937 1.234 . S
C918 O892 1.269 . S
C918 O893 1.257 . S
C919 H894 0.930 1_455 S
C919 C922 1.388 . S
C919 C924 1.418 . S
C920 H915 0.930 1_554 S
C920 C923 1.404 . S
C920 C924 1.353 . S
N921 Co886 2.145 . S
N921 C922 1.397 . S
N921 C923 1.334 . S
C922 H903 0.929 . S
C922 C919 1.388 . S
C922 N921 1.397 . S
C923 H904 0.929 . S
C923 C920 1.404 . S
C923 N921 1.334 . S
C924 H916 0.930 1_454 S
C924 C919 1.418 . S
C924 C920 1.353 . S
C925 H895 0.930 . S
C925 N926 1.330 . S
C925 C927 1.446 . S
N926 Co885 2.151 . S
N926 C925 1.330 . S
N926 C930 1.418 . S
C927 H906 0.929 . S
C927 C925 1.446 . S
C927 C928 1.332 . S
C928 H908 0.931 . S
C928 C927 1.332 . S
C928 C929 1.267 . S
C929 H897 0.929 . S
C929 C928 1.267 . S
C929 C930 1.251 . S
C930 H900 0.929 . S
C930 N926 1.418 . S
C930 C929 1.251 . S
C931 H898 0.930 . S
C931 C933 1.406 . S
C931 C936 1.261 . S
C932 H899 0.930 . S
C932 N934 1.325 . S
C932 C935 1.357 . S
C933 H901 0.928 . S
C933 C931 1.406 . S
C933 N934 1.261 . S
N934 Co885 2.214 . S
N934 C932 1.325 . S
N934 C933 1.261 . S
C935 H905 0.931 . S
C935 C932 1.357 . S
C935 C936 1.312 . S
C936 H907 0.930 . S
C936 C931 1.261 . S
C936 C935 1.312 . S
C937 O909 1.214 . S
C937 O917 1.234 . S
C938 H910 0.929 . S
C938 C941 1.391 . S
C938 C943 1.391 . S
C939 H911 0.929 . S
C939 C940 1.390 . S
C939 N942 1.391 . S
C940 H912 0.930 . S
C940 C939 1.390 . S
C940 C941 1.392 . S
C941 H913 0.929 1_554 S
C941 C938 1.391 . S
C941 C940 1.392 . S
N942 Co886 2.257 . S
N942 C939 1.391 . S
N942 C943 1.388 . S
C943 H914 0.930 . S
C943 C938 1.391 . S
C943 N942 1.388 . S
C944 C945 1.387 . S
C944 H948 0.950 . S
C944 C953 1.390 . S
C945 C944 1.387 . S
C945 C947 1.387 . S
H946 C953 0.950 . S
C947 C945 1.387 . S
C947 C949 1.390 1_565 S
C947 H951 0.950 . S
H948 C944 0.950 . S
C949 C947 1.390 1_545 S
C949 C950 1.387 . S
C949 H952 0.950 . S
C950 C949 1.387 . S
C950 C953 1.387 1_545 S
H951 C947 0.950 . S
H952 C949 0.950 . S
C953 C944 1.390 . S
C953 H946 0.950 . S
C953 C950 1.387 1_565 S
C954 C955 1.387 . S
C954 H958 0.950 . S
C954 C963 1.390 1_455 S
C955 C954 1.387 . S
C955 C957 1.387 . S
H956 C963 0.950 . S
C957 C955 1.387 . S
C957 C959 1.390 1_455 S
C957 H961 0.950 . S
H958 C954 0.950 . S
C959 C957 1.390 1_655 S
C959 C960 1.387 . S
C959 H962 0.950 . S
C960 C959 1.387 . S
C960 C963 1.387 . S
H961 C957 0.950 . S
H962 C959 0.950 . S
C963 C954 1.390 1_655 S
C963 H956 0.950 . S
C963 C960 1.387 . S
C964 C965 1.387 . S
C964 H968 0.950 . S
C964 C973 1.390 1_565 S
C965 C964 1.387 . S
C965 C967 1.387 . S
H966 C973 0.950 . S
C967 C965 1.387 . S
C967 C969 1.390 1_565 S
C967 H971 0.950 . S
H968 C964 0.950 . S
C969 C967 1.390 1_545 S
C969 C970 1.387 . S
C969 H972 0.950 . S
C970 C969 1.387 . S
C970 C973 1.387 . S
H971 C967 0.950 . S
H972 C969 0.950 . S
C973 C964 1.390 1_545 S
C973 H966 0.950 . S
C973 C970 1.387 . S
C974 C975 1.387 . S
C974 H978 0.950 . S
C974 C983 1.390 1_455 S
C975 C974 1.387 . S
C975 C977 1.387 . S
H976 C983 0.950 . S
C977 C975 1.387 . S
C977 C979 1.390 1_455 S
C977 H981 0.950 . S
H978 C974 0.950 . S
C979 C977 1.390 1_655 S
C979 C980 1.387 . S
C979 H982 0.950 . S
C980 C979 1.387 . S
C980 C983 1.387 . S
H981 C977 0.950 . S
H982 C979 0.950 . S
C983 C974 1.390 1_655 S
C983 H976 0.950 . S
C983 C980 1.387 . S
C984 C985 1.387 . S
C984 H988 0.950 . S
C984 C993 1.390 1_554 S
C985 C984 1.387 . S
C985 C987 1.387 1_554 S
H986 C993 0.950 . S
C987 C985 1.387 1_556 S
C987 C989 1.390 . S
C987 H991 0.950 . S
H988 C984 0.950 . S
C989 C987 1.390 . S
C989 C990 1.387 . S
C989 H992 0.950 . S
C990 C989 1.387 . S
C990 C993 1.387 . S
H991 C987 0.950 . S
H992 C989 0.950 . S
C993 C984 1.390 1_556 S
C993 H986 0.950 . S
C993 C990 1.387 . S
C994 C995 1.387 . S
C994 H998 0.950 . S
C994 C1003 1.390 . S
C995 C994 1.387 . S
C995 C997 1.387 . S
H996 C1003 0.950 . S
C997 C995 1.387 . S
C997 C999 1.390 . S
C997 H1001 0.950 . S
H998 C994 0.950 . S
C999 C997 1.390 . S
C999 C1000 1.387 . S
C999 H1002 0.950 . S
C1000 C999 1.387 . S
C1000 C1003 1.387 . S
H1001 C997 0.950 . S
H1002 C999 0.950 . S
C1003 C994 1.390 . S
C1003 H996 0.950 . S
C1003 C1000 1.387 . S
C1004 C1005 1.387 . S
C1004 H1008 0.950 . S
C1004 C1013 1.390 . S
C1005 C1004 1.387 . S
C1005 C1007 1.387 1_556 S
H1006 C1013 0.950 . S
C1007 C1005 1.387 1_554 S
C1007 C1009 1.390 . S
C1007 H1011 0.950 . S
H1008 C1004 0.950 . S
C1009 C1007 1.390 . S
C1009 C1010 1.387 . S
C1009 H1012 0.950 . S
C1010 C1009 1.387 . S
C1010 C1013 1.387 1_554 S
H1011 C1007 0.950 . S
H1012 C1009 0.950 . S
C1013 C1004 1.390 . S
C1013 H1006 0.950 . S
C1013 C1010 1.387 1_556 S
C1014 C1015 1.387 . S
C1014 H1018 0.950 . S
C1014 C1023 1.390 . S
C1015 C1014 1.387 . S
C1015 C1017 1.387 . S
H1016 C1023 0.950 . S
C1017 C1015 1.387 . S
C1017 C1019 1.390 . S
C1017 H1021 0.950 . S
H1018 C1014 0.950 . S
C1019 C1017 1.390 . S
C1019 C1020 1.387 . S
C1019 H1022 0.950 1_554 S
C1020 C1019 1.387 . S
C1020 C1023 1.387 . S
H1021 C1017 0.950 . S
H1022 C1019 0.950 1_556 S
C1023 C1014 1.390 . S
C1023 H1016 0.950 . S
C1023 C1020 1.387 . S
C1024 C1025 1.387 . S
C1024 H1028 0.950 . S
C1024 C1033 1.390 . S
C1025 C1024 1.387 . S
C1025 C1027 1.387 . S
H1026 C1033 0.950 . S
C1027 C1025 1.387 . S
C1027 C1029 1.390 . S
C1027 H1031 0.950 . S
H1028 C1024 0.950 . S
C1029 C1027 1.390 . S
C1029 C1030 1.387 . S
C1029 H1032 0.950 . S
C1030 C1029 1.387 . S
C1030 C1033 1.387 . S
H1031 C1027 0.950 . S
H1032 C1029 0.950 . S
C1033 C1024 1.390 . S
C1033 H1026 0.950 . S
C1033 C1030 1.387 . S
C1034 C1035 1.387 . S
C1034 H1038 0.950 . S
C1034 C1043 1.390 . S
C1035 C1034 1.387 . S
C1035 C1037 1.387 . S
H1036 C1043 0.950 1_556 S
C1037 C1035 1.387 . S
C1037 C1039 1.390 . S
C1037 H1041 0.950 . S
H1038 C1034 0.950 . S
C1039 C1037 1.390 . S
C1039 C1040 1.387 . S
C1039 H1042 0.950 . S
C1040 C1039 1.387 . S
C1040 C1043 1.387 . S
H1041 C1037 0.950 . S
H1042 C1039 0.950 . S
C1043 C1034 1.390 . S
C1043 H1036 0.950 1_554 S
C1043 C1040 1.387 . S
C1044 C1045 1.387 . S
C1044 H1048 0.950 . S
C1044 C1053 1.390 . S
C1045 C1044 1.387 . S
C1045 C1047 1.387 . S
H1046 C1053 0.950 . S
C1047 C1045 1.387 . S
C1047 C1049 1.390 . S
C1047 H1051 0.950 . S
H1048 C1044 0.950 . S
C1049 C1047 1.390 . S
C1049 C1050 1.387 . S
C1049 H1052 0.950 . S
C1050 C1049 1.387 . S
C1050 C1053 1.387 . S
H1051 C1047 0.950 . S
H1052 C1049 0.950 . S
C1053 C1044 1.390 . S
C1053 H1046 0.950 . S
C1053 C1050 1.387 . S
C1054 C1055 1.387 . S
C1054 H1058 0.950 . S
C1054 C1063 1.390 . S
C1055 C1054 1.387 . S
C1055 C1057 1.387 . S
H1056 C1063 0.950 . S
C1057 C1055 1.387 . S
C1057 C1059 1.390 . S
C1057 H1061 0.950 . S
H1058 C1054 0.950 . S
C1059 C1057 1.390 . S
C1059 C1060 1.387 . S
C1059 H1062 0.950 . S
C1060 C1059 1.387 . S
C1060 C1063 1.387 . S
H1061 C1057 0.950 . S
H1062 C1059 0.950 . S
C1063 C1054 1.390 . S
C1063 H1056 0.950 . S
C1063 C1060 1.387 . S
C1064 C1065 1.387 . S
C1064 H1068 0.950 . S
C1064 C1073 1.390 1_565 S
C1065 C1064 1.387 . S
C1065 C1067 1.387 . S
H1066 C1073 0.950 . S
C1067 C1065 1.387 . S
C1067 C1069 1.390 1_565 S
C1067 H1071 0.950 . S
H1068 C1064 0.950 . S
C1069 C1067 1.390 1_545 S
C1069 C1070 1.387 . S
C1069 H1072 0.950 . S
C1070 C1069 1.387 . S
C1070 C1073 1.387 . S
H1071 C1067 0.950 . S
H1072 C1069 0.950 . S
C1073 C1064 1.390 1_545 S
C1073 H1066 0.950 . S
C1073 C1070 1.387 . S
C1074 C1075 1.387 . S
C1074 H1078 0.950 . S
C1074 C1083 1.390 1_655 S
C1075 C1074 1.387 . S
C1075 C1077 1.387 . S
H1076 C1083 0.950 . S
C1077 C1075 1.387 . S
C1077 C1079 1.390 . S
C1077 H1081 0.950 . S
H1078 C1074 0.950 . S
C1079 C1077 1.390 . S
C1079 C1080 1.387 1_655 S
C1079 H1082 0.950 . S
C1080 C1079 1.387 1_455 S
C1080 C1083 1.387 . S
H1081 C1077 0.950 . S
H1082 C1079 0.950 . S
C1083 C1074 1.390 1_455 S
C1083 H1076 0.950 . S
C1083 C1080 1.387 . S
C1084 C1085 1.387 . S
C1084 H1088 0.950 . S
C1084 C1093 1.390 1_565 S
C1085 C1084 1.387 . S
C1085 C1087 1.387 . S
H1086 C1093 0.950 . S
C1087 C1085 1.387 . S
C1087 C1089 1.390 . S
C1087 H1091 0.950 . S
H1088 C1084 0.950 . S
C1089 C1087 1.390 . S
C1089 C1090 1.387 1_565 S
C1089 H1092 0.950 . S
C1090 C1089 1.387 1_545 S
C1090 C1093 1.387 . S
H1091 C1087 0.950 . S
H1092 C1089 0.950 . S
C1093 C1084 1.390 1_545 S
C1093 H1086 0.950 . S
C1093 C1090 1.387 . S
C1094 C1095 1.387 . S
C1094 H1098 0.950 . S
C1094 C1103 1.390 1_655 S
C1095 C1094 1.387 . S
C1095 C1097 1.387 . S
H1096 C1103 0.950 . S
C1097 C1095 1.387 . S
C1097 C1099 1.390 1_655 S
C1097 H1101 0.950 . S
H1098 C1094 0.950 . S
C1099 C1097 1.390 1_455 S
C1099 C1100 1.387 . S
C1099 H1102 0.950 . S
C1100 C1099 1.387 . S
C1100 C1103 1.387 . S
H1101 C1097 0.950 . S
H1102 C1099 0.950 . S
C1103 C1094 1.390 1_455 S
C1103 H1096 0.950 . S
C1103 C1100 1.387 . S
C1104 C1105 1.387 . S
C1104 H1108 0.950 . S
C1104 C1113 1.390 . S
C1105 C1104 1.387 . S
C1105 C1107 1.387 . S
H1106 C1113 0.950 . S
C1107 C1105 1.387 . S
C1107 C1109 1.390 . S
C1107 H1111 0.950 . S
H1108 C1104 0.950 . S
C1109 C1107 1.390 . S
C1109 C1110 1.387 . S
C1109 H1112 0.950 . S
C1110 C1109 1.387 . S
C1110 C1113 1.387 . S
H1111 C1107 0.950 . S
H1112 C1109 0.950 . S
C1113 C1104 1.390 . S
C1113 H1106 0.950 . S
C1113 C1110 1.387 . S
C1114 C1115 1.387 . S
C1114 H1118 0.950 . S
C1114 C1123 1.390 . S
C1115 C1114 1.387 . S
C1115 C1117 1.387 . S
H1116 C1123 0.950 . S
C1117 C1115 1.387 . S
C1117 C1119 1.390 . S
C1117 H1121 0.950 . S
H1118 C1114 0.950 . S
C1119 C1117 1.390 . S
C1119 C1120 1.387 . S
C1119 H1122 0.950 . S
C1120 C1119 1.387 . S
C1120 C1123 1.387 . S
H1121 C1117 0.950 . S
H1122 C1119 0.950 . S
C1123 C1114 1.390 . S
C1123 H1116 0.950 . S
C1123 C1120 1.387 . S
C1124 C1125 1.387 . S
C1124 H1128 0.950 . S
C1124 C1133 1.390 . S
C1125 C1124 1.387 . S
C1125 C1127 1.387 . S
H1126 C1133 0.950 . S
C1127 C1125 1.387 . S
C1127 C1129 1.390 . S
C1127 H1131 0.950 . S
H1128 C1124 0.950 . S
C1129 C1127 1.390 . S
C1129 C1130 1.387 . S
C1129 H1132 0.950 . S
C1130 C1129 1.387 . S
C1130 C1133 1.387 . S
H1131 C1127 0.950 . S
H1132 C1129 0.950 . S
C1133 C1124 1.390 . S
C1133 H1126 0.950 . S
C1133 C1130 1.387 . S
C1134 C1135 1.387 . S
C1134 H1138 0.950 . S
C1134 C1143 1.390 . S
C1135 C1134 1.387 . S
C1135 C1137 1.387 . S
H1136 C1143 0.950 . S
C1137 C1135 1.387 . S
C1137 C1139 1.390 . S
C1137 H1141 0.950 . S
H1138 C1134 0.950 . S
C1139 C1137 1.390 . S
C1139 C1140 1.387 . S
C1139 H1142 0.950 . S
C1140 C1139 1.387 . S
C1140 C1143 1.387 . S
H1141 C1137 0.950 . S
H1142 C1139 0.950 . S
C1143 C1134 1.390 . S
C1143 H1136 0.950 . S
C1143 C1140 1.387 . S
C1144 C1145 1.387 . S
C1144 H1148 0.950 . S
C1144 C1153 1.390 . S
C1145 C1144 1.387 . S
C1145 C1147 1.387 . S
H1146 C1153 0.950 . S
C1147 C1145 1.387 . S
C1147 C1149 1.390 . S
C1147 H1151 0.950 . S
H1148 C1144 0.950 . S
C1149 C1147 1.390 . S
C1149 C1150 1.387 . S
C1149 H1152 0.950 . S
C1150 C1149 1.387 . S
C1150 C1153 1.387 . S
H1151 C1147 0.950 . S
H1152 C1149 0.950 . S
C1153 C1144 1.390 . S
C1153 H1146 0.950 . S
C1153 C1150 1.387 . S
C1154 C1155 1.387 . S
C1154 H1158 0.950 . S
C1154 C1163 1.390 . S
C1155 C1154 1.387 . S
C1155 C1157 1.387 . S
H1156 C1163 0.950 . S
C1157 C1155 1.387 . S
C1157 C1159 1.390 . S
C1157 H1161 0.950 . S
H1158 C1154 0.950 . S
C1159 C1157 1.390 . S
C1159 C1160 1.387 . S
C1159 H1162 0.950 . S
C1160 C1159 1.387 . S
C1160 C1163 1.387 . S
H1161 C1157 0.950 . S
H1162 C1159 0.950 . S
C1163 C1154 1.390 . S
C1163 H1156 0.950 . S
C1163 C1160 1.387 . S
C1164 C1165 1.387 . S
C1164 H1168 0.950 . S
C1164 C1173 1.390 . S
C1165 C1164 1.387 . S
C1165 C1167 1.387 . S
H1166 C1173 0.950 . S
C1167 C1165 1.387 . S
C1167 C1169 1.390 . S
C1167 H1171 0.950 . S
H1168 C1164 0.950 . S
C1169 C1167 1.390 . S
C1169 C1170 1.387 . S
C1169 H1172 0.950 . S
C1170 C1169 1.387 . S
C1170 C1173 1.387 . S
H1171 C1167 0.950 . S
H1172 C1169 0.950 . S
C1173 C1164 1.390 . S
C1173 H1166 0.950 . S
C1173 C1170 1.387 . S
C1174 C1175 1.387 . S
C1174 H1178 0.950 . S
C1174 C1183 1.390 . S
C1175 C1174 1.387 . S
C1175 C1177 1.387 . S
H1176 C1183 0.950 . S
C1177 C1175 1.387 . S
C1177 C1179 1.390 . S
C1177 H1181 0.950 . S
H1178 C1174 0.950 . S
C1179 C1177 1.390 . S
C1179 C1180 1.387 . S
C1179 H1182 0.950 . S
C1180 C1179 1.387 . S
C1180 C1183 1.387 . S
H1181 C1177 0.950 . S
H1182 C1179 0.950 . S
C1183 C1174 1.390 . S
C1183 H1176 0.950 . S
C1183 C1180 1.387 . S
C1184 C1185 1.387 . S
C1184 H1188 0.950 . S
C1184 C1193 1.390 . S
C1185 C1184 1.387 . S
C1185 C1187 1.387 . S
H1186 C1193 0.950 . S
C1187 C1185 1.387 . S
C1187 C1189 1.390 . S
C1187 H1191 0.950 . S
H1188 C1184 0.950 . S
C1189 C1187 1.390 . S
C1189 C1190 1.387 . S
C1189 H1192 0.950 . S
C1190 C1189 1.387 . S
C1190 C1193 1.387 . S
H1191 C1187 0.950 . S
H1192 C1189 0.950 . S
C1193 C1184 1.390 . S
C1193 H1186 0.950 . S
C1193 C1190 1.387 . S
C1194 C1195 1.387 . S
C1194 H1198 0.950 . S
C1194 C1203 1.390 . S
C1195 C1194 1.387 . S
C1195 C1197 1.387 . S
H1196 C1203 0.950 . S
C1197 C1195 1.387 . S
C1197 C1199 1.390 . S
C1197 H1201 0.950 . S
H1198 C1194 0.950 . S
C1199 C1197 1.390 . S
C1199 C1200 1.387 . S
C1199 H1202 0.950 . S
C1200 C1199 1.387 . S
C1200 C1203 1.387 . S
H1201 C1197 0.950 . S
H1202 C1199 0.950 . S
C1203 C1194 1.390 . S
C1203 H1196 0.950 . S
C1203 C1200 1.387 . S
C1204 C1205 1.387 . S
C1204 H1208 0.950 . S
C1204 C1213 1.390 . S
C1205 C1204 1.387 . S
C1205 C1207 1.387 . S
H1206 C1213 0.950 . S
C1207 C1205 1.387 . S
C1207 C1209 1.390 . S
C1207 H1211 0.950 . S
H1208 C1204 0.950 . S
C1209 C1207 1.390 . S
C1209 C1210 1.387 . S
C1209 H1212 0.950 . S
C1210 C1209 1.387 . S
C1210 C1213 1.387 . S
H1211 C1207 0.950 . S
H1212 C1209 0.950 . S
C1213 C1204 1.390 . S
C1213 H1206 0.950 . S
C1213 C1210 1.387 . S
C1214 C1215 1.387 . S
C1214 H1218 0.950 . S
C1214 C1223 1.390 . S
C1215 C1214 1.387 . S
C1215 C1217 1.387 . S
H1216 C1223 0.950 . S
C1217 C1215 1.387 . S
C1217 C1219 1.390 . S
C1217 H1221 0.950 . S
H1218 C1214 0.950 . S
C1219 C1217 1.390 . S
C1219 C1220 1.387 . S
C1219 H1222 0.950 . S
C1220 C1219 1.387 . S
C1220 C1223 1.387 . S
H1221 C1217 0.950 . S
H1222 C1219 0.950 . S
C1223 C1214 1.390 . S
C1223 H1216 0.950 . S
C1223 C1220 1.387 . S
C1224 C1225 1.387 . S
C1224 H1228 0.950 . S
C1224 C1233 1.390 . S
C1225 C1224 1.387 . S
C1225 C1227 1.387 . S
H1226 C1233 0.950 . S
C1227 C1225 1.387 . S
C1227 C1229 1.390 . S
C1227 H1231 0.950 . S
H1228 C1224 0.950 . S
C1229 C1227 1.390 . S
C1229 C1230 1.387 . S
C1229 H1232 0.950 . S
C1230 C1229 1.387 . S
C1230 C1233 1.387 . S
H1231 C1227 0.950 . S
H1232 C1229 0.950 . S
C1233 C1224 1.390 . S
C1233 H1226 0.950 . S
C1233 C1230 1.387 . S
C1234 C1235 1.387 . S
C1234 H1238 0.950 . S
C1234 C1243 1.390 . S
C1235 C1234 1.387 . S
C1235 C1237 1.387 . S
H1236 C1243 0.950 . S
C1237 C1235 1.387 . S
C1237 C1239 1.390 . S
C1237 H1241 0.950 . S
H1238 C1234 0.950 . S
C1239 C1237 1.390 . S
C1239 C1240 1.387 . S
C1239 H1242 0.950 . S
C1240 C1239 1.387 . S
C1240 C1243 1.387 . S
H1241 C1237 0.950 . S
H1242 C1239 0.950 . S
C1243 C1234 1.390 . S
C1243 H1236 0.950 . S
C1243 C1240 1.387 . S
C1244 C1245 1.387 . S
C1244 H1248 0.950 . S
C1244 C1253 1.390 . S
C1245 C1244 1.387 . S
C1245 C1247 1.387 . S
H1246 C1253 0.950 . S
C1247 C1245 1.387 . S
C1247 C1249 1.390 . S
C1247 H1251 0.950 . S
H1248 C1244 0.950 . S
C1249 C1247 1.390 . S
C1249 C1250 1.387 . S
C1249 H1252 0.950 . S
C1250 C1249 1.387 . S
C1250 C1253 1.387 . S
H1251 C1247 0.950 . S
H1252 C1249 0.950 . S
C1253 C1244 1.390 . S
C1253 H1246 0.950 . S
C1253 C1250 1.387 . S
C1254 C1255 1.387 . S
C1254 H1258 0.950 . S
C1254 C1263 1.390 . S
C1255 C1254 1.387 . S
C1255 C1257 1.387 . S
H1256 C1263 0.950 . S
C1257 C1255 1.387 . S
C1257 C1259 1.390 . S
C1257 H1261 0.950 . S
H1258 C1254 0.950 . S
C1259 C1257 1.390 . S
C1259 C1260 1.387 . S
C1259 H1262 0.950 . S
C1260 C1259 1.387 . S
C1260 C1263 1.387 . S
H1261 C1257 0.950 . S
H1262 C1259 0.950 . S
C1263 C1254 1.390 . S
C1263 H1256 0.950 . S
C1263 C1260 1.387 . S
C945 C701 1.416 . S
C950 C3 1.415 . S
C955 C92 1.424 . S
C960 C524 1.375 . S
C965 C121 1.414 . S
C970 C583 1.416 . S
C975 C642 1.375 . S
C980 C210 1.424 . S
C985 C239 1.414 . S
C990 C347 1.415 . S
C995 C328 1.424 1_554 S
C1000 C406 1.371 . S
C1005 C465 1.414 . S
C1010 C357 1.412 . S
C1015 C288 1.374 . S
C1020 C446 1.424 1_554 S
C1025 C229 1.415 . S
C1030 C475 1.414 . S
C1035 C564 1.425 . S
C1040 C52 1.372 . S
C1045 C111 1.415 . S
C1050 C593 1.413 . S
C1055 C682 1.424 . S
C1060 C170 1.374 . S
C1065 C711 1.413 . S
C1070 C819 1.414 . S
C1075 C800 1.424 . S
C1080 C878 1.373 . S
C1085 C937 1.415 . S
C1090 C829 1.412 . S
C1095 C760 1.375 . S
C1100 C918 1.424 . S
C1105 C269 1.509 . S
C1110 C33 1.509 . S
C1115 C62 1.401 . S
C1120 C298 1.401 . S
C1125 C151 1.509 . S
C1130 C387 1.509 . S
C1135 C416 1.401 . S
C1140 C180 1.401 . S
C1145 C505 1.507 . S
C1150 C741 1.507 . S
C1155 C770 1.401 . S
C1160 C534 1.401 . S
C1165 C623 1.507 . S
C1170 C859 1.507 . S
C1175 C888 1.401 . S
C1180 C652 1.401 . S
C1185 C831 1.800 . S
C1190 C5 1.800 . S
C1195 C890 1.397 . S
C1200 C64 1.397 . S
C1205 C123 1.804 . S
C1210 C713 1.804 . S
C1215 C772 1.397 . S
C1220 C182 1.397 . S
C1225 C595 1.804 . S
C1230 C241 1.804 . S
C1235 C654 1.401 . S
C1240 C300 1.401 . S
C1245 C359 1.800 . S
C1250 C477 1.800 . S
C1255 C536 1.397 . S
C1260 C418 1.397 . S
