# Generated by pormake.
# Topology yft, (5)-cn, num edge types: 1
# Building blocks:
#     Node 0, Type 0, BuildingBlock: XOMCOT_clean_sbu_0, # of connection points: 5
#     Node 1, Type 0, BuildingBlock: XOMCOT_clean_sbu_0, # of connection points: 5
#     Node 2, Type 0, BuildingBlock: XOMCOT_clean_sbu_0, # of connection points: 5
#     Node 3, Type 0, BuildingBlock: XOMCOT_clean_sbu_0, # of connection points: 5
#     Node 4, Type 0, BuildingBlock: XOMCOT_clean_sbu_0, # of connection points: 5
#     Node 5, Type 0, BuildingBlock: XOMCOT_clean_sbu_0, # of connection points: 5
#     Node 6, Type 0, BuildingBlock: XOMCOT_clean_sbu_0, # of connection points: 5
#     Node 7, Type 0, BuildingBlock: XOMCOT_clean_sbu_0, # of connection points: 5
#     Node 8, Type 0, BuildingBlock: XOMCOT_clean_sbu_0, # of connection points: 5
#     Node 9, Type 0, BuildingBlock: XOMCOT_clean_sbu_0, # of connection points: 5
#     Node 10, Type 0, BuildingBlock: XOMCOT_clean_sbu_0, # of connection points: 5
#     Node 11, Type 0, BuildingBlock: XOMCOT_clean_sbu_0, # of connection points: 5
#     Node 12, Type 0, BuildingBlock: XOMCOT_clean_sbu_0, # of connection points: 5
#     Node 13, Type 0, BuildingBlock: XOMCOT_clean_sbu_0, # of connection points: 5
#     Node 14, Type 0, BuildingBlock: XOMCOT_clean_sbu_0, # of connection points: 5
#     Node 15, Type 0, BuildingBlock: XOMCOT_clean_sbu_0, # of connection points: 5
#     Node 16, Type 0, BuildingBlock: XOMCOT_clean_sbu_0, # of connection points: 5
#     Node 17, Type 0, BuildingBlock: XOMCOT_clean_sbu_0, # of connection points: 5
#     Node 18, Type 0, BuildingBlock: XOMCOT_clean_sbu_0, # of connection points: 5
#     Node 19, Type 0, BuildingBlock: XOMCOT_clean_sbu_0, # of connection points: 5
#     Node 20, Type 0, BuildingBlock: XOMCOT_clean_sbu_0, # of connection points: 5
#     Node 21, Type 0, BuildingBlock: XOMCOT_clean_sbu_0, # of connection points: 5
#     Node 22, Type 0, BuildingBlock: XOMCOT_clean_sbu_0, # of connection points: 5
#     Node 23, Type 0, BuildingBlock: XOMCOT_clean_sbu_0, # of connection points: 5
#     Node 24, Type 0, BuildingBlock: XOMCOT_clean_sbu_0, # of connection points: 5
#     Node 25, Type 0, BuildingBlock: XOMCOT_clean_sbu_0, # of connection points: 5
#     Node 26, Type 0, BuildingBlock: XOMCOT_clean_sbu_0, # of connection points: 5
#     Node 27, Type 0, BuildingBlock: XOMCOT_clean_sbu_0, # of connection points: 5
#     Node 28, Type 0, BuildingBlock: XOMCOT_clean_sbu_0, # of connection points: 5
#     Node 29, Type 0, BuildingBlock: XOMCOT_clean_sbu_0, # of connection points: 5
#     Node 30, Type 0, BuildingBlock: XOMCOT_clean_sbu_0, # of connection points: 5
#     Node 31, Type 0, BuildingBlock: XOMCOT_clean_sbu_0, # of connection points: 5
#     Edge 32, Type (0, 0), BuildingBlock: AJUNOK_clean_linker_0, # of connection points: 2
#     Edge 33, Type (0, 0), BuildingBlock: AJUNOK_clean_linker_0, # of connection points: 2
#     Edge 34, Type (0, 0), BuildingBlock: AJUNOK_clean_linker_0, # of connection points: 2
#     Edge 35, Type (0, 0), BuildingBlock: AJUNOK_clean_linker_0, # of connection points: 2
#     Edge 36, Type (0, 0), BuildingBlock: AJUNOK_clean_linker_0, # of connection points: 2
#     Edge 37, Type (0, 0), BuildingBlock: AJUNOK_clean_linker_0, # of connection points: 2
#     Edge 38, Type (0, 0), BuildingBlock: AJUNOK_clean_linker_0, # of connection points: 2
#     Edge 39, Type (0, 0), BuildingBlock: AJUNOK_clean_linker_0, # of connection points: 2
#     Edge 40, Type (0, 0), BuildingBlock: AJUNOK_clean_linker_0, # of connection points: 2
#     Edge 41, Type (0, 0), BuildingBlock: AJUNOK_clean_linker_0, # of connection points: 2
#     Edge 42, Type (0, 0), BuildingBlock: AJUNOK_clean_linker_0, # of connection points: 2
#     Edge 43, Type (0, 0), BuildingBlock: AJUNOK_clean_linker_0, # of connection points: 2
#     Edge 44, Type (0, 0), BuildingBlock: AJUNOK_clean_linker_0, # of connection points: 2
#     Edge 45, Type (0, 0), BuildingBlock: AJUNOK_clean_linker_0, # of connection points: 2
#     Edge 46, Type (0, 0), BuildingBlock: AJUNOK_clean_linker_0, # of connection points: 2
#     Edge 47, Type (0, 0), BuildingBlock: AJUNOK_clean_linker_0, # of connection points: 2
#     Edge 48, Type (0, 0), BuildingBlock: AJUNOK_clean_linker_0, # of connection points: 2
#     Edge 49, Type (0, 0), BuildingBlock: AJUNOK_clean_linker_0, # of connection points: 2
#     Edge 50, Type (0, 0), BuildingBlock: AJUNOK_clean_linker_0, # of connection points: 2
#     Edge 51, Type (0, 0), BuildingBlock: AJUNOK_clean_linker_0, # of connection points: 2
#     Edge 52, Type (0, 0), BuildingBlock: AJUNOK_clean_linker_0, # of connection points: 2
#     Edge 53, Type (0, 0), BuildingBlock: AJUNOK_clean_linker_0, # of connection points: 2
#     Edge 54, Type (0, 0), BuildingBlock: AJUNOK_clean_linker_0, # of connection points: 2
#     Edge 55, Type (0, 0), BuildingBlock: AJUNOK_clean_linker_0, # of connection points: 2
#     Edge 56, Type (0, 0), BuildingBlock: AJUNOK_clean_linker_0, # of connection points: 2
#     Edge 57, Type (0, 0), BuildingBlock: AJUNOK_clean_linker_0, # of connection points: 2
#     Edge 58, Type (0, 0), BuildingBlock: AJUNOK_clean_linker_0, # of connection points: 2
#     Edge 59, Type (0, 0), BuildingBlock: AJUNOK_clean_linker_0, # of connection points: 2
#     Edge 60, Type (0, 0), BuildingBlock: AJUNOK_clean_linker_0, # of connection points: 2
#     Edge 61, Type (0, 0), BuildingBlock: AJUNOK_clean_linker_0, # of connection points: 2
#     Edge 62, Type (0, 0), BuildingBlock: AJUNOK_clean_linker_0, # of connection points: 2
#     Edge 63, Type (0, 0), BuildingBlock: AJUNOK_clean_linker_0, # of connection points: 2
#     Edge 64, Type (0, 0), BuildingBlock: AJUNOK_clean_linker_0, # of connection points: 2
#     Edge 65, Type (0, 0), BuildingBlock: AJUNOK_clean_linker_0, # of connection points: 2
#     Edge 66, Type (0, 0), BuildingBlock: AJUNOK_clean_linker_0, # of connection points: 2
#     Edge 67, Type (0, 0), BuildingBlock: AJUNOK_clean_linker_0, # of connection points: 2
#     Edge 68, Type (0, 0), BuildingBlock: AJUNOK_clean_linker_0, # of connection points: 2
#     Edge 69, Type (0, 0), BuildingBlock: AJUNOK_clean_linker_0, # of connection points: 2
#     Edge 70, Type (0, 0), BuildingBlock: AJUNOK_clean_linker_0, # of connection points: 2
#     Edge 71, Type (0, 0), BuildingBlock: AJUNOK_clean_linker_0, # of connection points: 2
#     Edge 72, Type (0, 0), BuildingBlock: AJUNOK_clean_linker_0, # of connection points: 2
#     Edge 73, Type (0, 0), BuildingBlock: AJUNOK_clean_linker_0, # of connection points: 2
#     Edge 74, Type (0, 0), BuildingBlock: AJUNOK_clean_linker_0, # of connection points: 2
#     Edge 75, Type (0, 0), BuildingBlock: AJUNOK_clean_linker_0, # of connection points: 2
#     Edge 76, Type (0, 0), BuildingBlock: AJUNOK_clean_linker_0, # of connection points: 2
#     Edge 77, Type (0, 0), BuildingBlock: AJUNOK_clean_linker_0, # of connection points: 2
#     Edge 78, Type (0, 0), BuildingBlock: AJUNOK_clean_linker_0, # of connection points: 2
#     Edge 79, Type (0, 0), BuildingBlock: AJUNOK_clean_linker_0, # of connection points: 2
#     Edge 80, Type (0, 0), BuildingBlock: AJUNOK_clean_linker_0, # of connection points: 2
#     Edge 81, Type (0, 0), BuildingBlock: AJUNOK_clean_linker_0, # of connection points: 2
#     Edge 82, Type (0, 0), BuildingBlock: AJUNOK_clean_linker_0, # of connection points: 2
#     Edge 83, Type (0, 0), BuildingBlock: AJUNOK_clean_linker_0, # of connection points: 2
#     Edge 84, Type (0, 0), BuildingBlock: AJUNOK_clean_linker_0, # of connection points: 2
#     Edge 85, Type (0, 0), BuildingBlock: AJUNOK_clean_linker_0, # of connection points: 2
#     Edge 86, Type (0, 0), BuildingBlock: AJUNOK_clean_linker_0, # of connection points: 2
#     Edge 87, Type (0, 0), BuildingBlock: AJUNOK_clean_linker_0, # of connection points: 2
#     Edge 88, Type (0, 0), BuildingBlock: AJUNOK_clean_linker_0, # of connection points: 2
#     Edge 89, Type (0, 0), BuildingBlock: AJUNOK_clean_linker_0, # of connection points: 2
#     Edge 90, Type (0, 0), BuildingBlock: AJUNOK_clean_linker_0, # of connection points: 2
#     Edge 91, Type (0, 0), BuildingBlock: AJUNOK_clean_linker_0, # of connection points: 2
#     Edge 92, Type (0, 0), BuildingBlock: AJUNOK_clean_linker_0, # of connection points: 2
#     Edge 93, Type (0, 0), BuildingBlock: AJUNOK_clean_linker_0, # of connection points: 2
#     Edge 94, Type (0, 0), BuildingBlock: AJUNOK_clean_linker_0, # of connection points: 2
#     Edge 95, Type (0, 0), BuildingBlock: AJUNOK_clean_linker_0, # of connection points: 2
#     Edge 96, Type (0, 0), BuildingBlock: AJUNOK_clean_linker_0, # of connection points: 2
#     Edge 97, Type (0, 0), BuildingBlock: AJUNOK_clean_linker_0, # of connection points: 2
#     Edge 98, Type (0, 0), BuildingBlock: AJUNOK_clean_linker_0, # of connection points: 2
#     Edge 99, Type (0, 0), BuildingBlock: AJUNOK_clean_linker_0, # of connection points: 2
#     Edge 100, Type (0, 0), BuildingBlock: AJUNOK_clean_linker_0, # of connection points: 2
#     Edge 101, Type (0, 0), BuildingBlock: AJUNOK_clean_linker_0, # of connection points: 2
#     Edge 102, Type (0, 0), BuildingBlock: AJUNOK_clean_linker_0, # of connection points: 2
#     Edge 103, Type (0, 0), BuildingBlock: AJUNOK_clean_linker_0, # of connection points: 2
#     Edge 104, Type (0, 0), BuildingBlock: AJUNOK_clean_linker_0, # of connection points: 2
#     Edge 105, Type (0, 0), BuildingBlock: AJUNOK_clean_linker_0, # of connection points: 2
#     Edge 106, Type (0, 0), BuildingBlock: AJUNOK_clean_linker_0, # of connection points: 2
#     Edge 107, Type (0, 0), BuildingBlock: AJUNOK_clean_linker_0, # of connection points: 2
#     Edge 108, Type (0, 0), BuildingBlock: AJUNOK_clean_linker_0, # of connection points: 2
#     Edge 109, Type (0, 0), BuildingBlock: AJUNOK_clean_linker_0, # of connection points: 2
#     Edge 110, Type (0, 0), BuildingBlock: AJUNOK_clean_linker_0, # of connection points: 2
#     Edge 111, Type (0, 0), BuildingBlock: AJUNOK_clean_linker_0, # of connection points: 2
# Relax obj value: 0.369
# Max RMSD: 0.264
# Mean RMSD: 0.264
data_MOF--net-yft--node1-XOMCOT_clean_sbu_0--edge1-AJUNOK_clean_linker_0
_symmetry_space_group_name_H-M    P1
_symmetry_Int_Tables_number       1
_symmetry_cell_setting            triclinic
loop_
_symmetry_equiv_pos_as_xyz
'x, y, z'
_cell_length_a     33.414218
_cell_length_b     33.420742
_cell_length_c     72.522683
_cell_angle_alpha  89.861225
_cell_angle_beta   89.98538
_cell_angle_gamma 89.980955
loop_
_atom_site_label
_atom_site_type_symbol
_atom_site_fract_x
_atom_site_fract_y
_atom_site_fract_z
_atom_type_partial_charge
Co0 Co 0.3117 0.2001 0.1749 0.0
C1 C 0.23395 0.16418 0.16619 0.0
C2 C 0.24489 0.21537 0.149 0.0
C3 C 0.20913 0.19807 0.14377 0.0
N4 N 0.26028 0.19403 0.16308 0.0
N5 N 0.20226 0.16589 0.15462 0.0
H6 H 0.23908 0.14051 0.1761 0.0
H7 H 0.25911 0.24088 0.14259 0.0
C8 C 0.33074 0.2885 0.17507 0.0
O9 O 0.34261 0.28476 0.19227 0.0
N10 N 0.36348 0.20431 0.18684 0.0
C11 C 0.37555 0.18444 0.2021 0.0
C12 C 0.4152 0.19222 0.20516 0.0
C13 C 0.39677 0.22242 0.18036 0.0
N14 N 0.42847 0.21611 0.19154 0.0
C15 C 0.28281 0.18295 0.21163 0.0
C16 C 0.25723 0.25943 0.21978 0.0
C17 C 0.26197 0.23197 0.23427 0.0
C18 C 0.27258 0.19257 0.22982 0.0
C19 C 0.26731 0.24826 0.20174 0.0
N20 N 0.28423 0.21178 0.19826 0.0
H21 H 0.29184 0.15268 0.20856 0.0
H22 H 0.26276 0.26965 0.1908 0.0
H23 H 0.35784 0.16397 0.21013 0.0
H24 H 0.3976 0.24016 0.16786 0.0
O25 O 0.31746 0.14204 0.17659 0.0
O26 O 0.33788 0.1795 0.15324 0.0
O27 O 0.31433 0.25867 0.16696 0.0
C28 C 0.33577 0.14428 0.16073 0.0
H29 H 0.19005 0.20799 0.1326 0.0
H30 H 0.43323 0.18044 0.21633 0.0
H31 H 0.24659 0.2895 0.22242 0.0
H32 H 0.2749 0.16985 0.24044 0.0
Co33 Co 0.04814 0.05979 0.41951 0.0
C34 C 0.0745 0.97877 0.40987 0.0
C35 C 0.046 0.00803 0.38705 0.0
C36 C 0.06445 0.97393 0.3807 0.0
N37 N 0.05184 0.01089 0.4054 0.0
N38 N 0.0826 0.95577 0.39504 0.0
H39 H 0.08873 0.97485 0.42315 0.0
H40 H 0.03243 0.03103 0.37859 0.0
C41 C 0.96204 0.05046 0.40435 0.0
O42 O 0.96651 0.01287 0.39959 0.0
N43 N 0.04646 0.10839 0.43355 0.0
C44 C 0.07053 0.11792 0.4478 0.0
C45 C 0.06365 0.157 0.45258 0.0
C46 C 0.02568 0.1418 0.42966 0.0
N47 N 0.03533 0.17177 0.44123 0.0
C48 C 0.06479 0.02171 0.45434 0.0
C49 C 0.98629 0.01549 0.46592 0.0
C50 C 0.0167 0.011 0.47904 0.0
C51 C 0.05649 0.01234 0.47283 0.0
C52 C 0.99581 0.02533 0.44769 0.0
N53 N 0.03469 0.03035 0.44219 0.0
H54 H 0.09564 0.02497 0.45019 0.0
H55 H 0.97122 0.03066 0.43853 0.0
H56 H 0.09306 0.09861 0.45372 0.0
H57 H 0.0047 0.14449 0.41836 0.0
O58 O 0.1066 0.06191 0.42096 0.0
O59 O 0.06987 0.08936 0.399 0.0
O60 O 0.98993 0.06924 0.41277 0.0
C61 C 0.10503 0.08413 0.40615 0.0
H62 H 0.06721 0.96497 0.36642 0.0
H63 H 0.07957 0.17372 0.46302 0.0
H64 H 0.95511 0.01285 0.46982 0.0
H65 H 0.08111 0.00845 0.48238 0.0
Co66 Co 0.20026 0.79386 0.66908 0.0
C67 C 0.28082 0.82374 0.65911 0.0
C68 C 0.2538 0.79063 0.63715 0.0
C69 C 0.28741 0.8095 0.6304 0.0
N70 N 0.24977 0.79914 0.65524 0.0
N71 N 0.30416 0.83048 0.64422 0.0
H72 H 0.28409 0.83993 0.67186 0.0
H73 H 0.23198 0.77449 0.62904 0.0
C74 C 0.21702 0.70751 0.6564 0.0
O75 O 0.25531 0.7135 0.65355 0.0
N76 N 0.15108 0.79031 0.68266 0.0
C77 C 0.14141 0.81194 0.69767 0.0
C78 C 0.102 0.80484 0.70194 0.0
C79 C 0.11768 0.77039 0.67793 0.0
N80 N 0.08729 0.77873 0.68954 0.0
C81 C 0.24339 0.81357 0.70242 0.0
C82 C 0.23522 0.73903 0.71862 0.0
C83 C 0.24947 0.7706 0.72931 0.0
C84 C 0.25461 0.80808 0.72093 0.0
C85 C 0.22501 0.74554 0.7002 0.0
N86 N 0.22851 0.78255 0.69222 0.0
H87 H 0.24393 0.84347 0.69678 0.0
H88 H 0.21141 0.72105 0.69307 0.0
H89 H 0.16112 0.8327 0.70457 0.0
H90 H 0.11517 0.75191 0.66576 0.0
O91 O 0.19537 0.85223 0.6699 0.0
O92 O 0.1711 0.81324 0.64806 0.0
O93 O 0.19442 0.73517 0.66269 0.0
C94 C 0.17461 0.849 0.65472 0.0
H95 H 0.29717 0.81006 0.61617 0.0
H96 H 0.08514 0.81845 0.71302 0.0
H97 H 0.23051 0.70972 0.72467 0.0
H98 H 0.26494 0.83342 0.7289 0.0
Co99 Co 0.45054 0.94256 0.9207 0.0
C100 C 0.41346 0.01887 0.91006 0.0
C101 C 0.47469 0.01704 0.9012 0.0
C102 C 0.45855 0.05363 0.89627 0.0
N103 N 0.44625 0.99531 0.90983 0.0
N104 N 0.42008 0.05448 0.90186 0.0
H105 H 0.38526 0.0105 0.91629 0.0
H106 H 0.505 0.00722 0.89862 0.0
C107 C 0.53809 0.92306 0.924 0.0
O108 O 0.53008 0.91081 0.94083 0.0
N109 N 0.45324 0.88972 0.93151 0.0
C110 C 0.4317 0.87523 0.9458 0.0
C111 C 0.43831 0.8349 0.94728 0.0
C112 C 0.4714 0.85757 0.92406 0.0
N113 N 0.46339 0.82406 0.93369 0.0
C114 C 0.4311 0.96693 0.95781 0.0
C115 C 0.50591 0.99602 0.96678 0.0
C116 C 0.47826 0.98904 0.98095 0.0
C117 C 0.43963 0.97662 0.97615 0.0
C118 C 0.49575 0.98657 0.94857 0.0
N119 N 0.46038 0.96783 0.94467 0.0
H120 H 0.40131 0.95703 0.95437 0.0
H121 H 0.51719 0.99276 0.93782 0.0
H122 H 0.41085 0.89172 0.95413 0.0
H123 H 0.48918 0.85852 0.91159 0.0
O124 O 0.39246 0.93722 0.92144 0.0
O125 O 0.43093 0.91847 0.8982 0.0
O126 O 0.5102 0.93934 0.91435 0.0
C127 C 0.39537 0.91987 0.90542 0.0
H128 H 0.47363 0.07738 0.88885 0.0
H129 H 0.42552 0.81497 0.95749 0.0
H130 H 0.53534 0.00791 0.9698 0.0
H131 H 0.41675 0.9727 0.98658 0.0
Co132 Co 0.31066 0.79914 0.36912 0.0
C133 C 0.22866 0.82487 0.37742 0.0
C134 C 0.25661 0.79868 0.40106 0.0
C135 C 0.22236 0.81819 0.4067 0.0
N136 N 0.26057 0.8027 0.38262 0.0
N137 N 0.20526 0.83536 0.39183 0.0
H138 H 0.22421 0.83586 0.36362 0.0
H139 H 0.27904 0.7858 0.41005 0.0
C140 C 0.29983 0.71304 0.38395 0.0
O141 O 0.26227 0.71798 0.38871 0.0
N142 N 0.3601 0.79771 0.3557 0.0
C143 C 0.36953 0.82111 0.34119 0.0
C144 C 0.40839 0.8135 0.33621 0.0
C145 C 0.39324 0.77645 0.35952 0.0
N146 N 0.42306 0.78525 0.34766 0.0
C147 C 0.26953 0.81691 0.33504 0.0
C148 C 0.27533 0.74087 0.32035 0.0
C149 C 0.26185 0.77197 0.30906 0.0
C150 C 0.25804 0.81025 0.31668 0.0
C151 C 0.28576 0.74855 0.33866 0.0
N152 N 0.28335 0.78633 0.34589 0.0
H153 H 0.26939 0.84721 0.34018 0.0
H154 H 0.29809 0.72403 0.3464 0.0
H155 H 0.34994 0.84312 0.33502 0.0
H156 H 0.39569 0.75538 0.37082 0.0
O157 O 0.31313 0.85775 0.36812 0.0
O158 O 0.33863 0.81979 0.39012 0.0
O159 O 0.31922 0.74088 0.37578 0.0
C160 C 0.33407 0.85534 0.38328 0.0
H161 H 0.21297 0.82266 0.42083 0.0
H162 H 0.42497 0.82863 0.32543 0.0
H163 H 0.27889 0.71094 0.31488 0.0
H164 H 0.2482 0.8352 0.30826 0.0
Co165 Co 0.46136 0.06023 0.61738 0.0
C166 C 0.43362 0.97879 0.62601 0.0
C167 C 0.45719 0.00797 0.64987 0.0
C168 C 0.43735 0.97386 0.65545 0.0
N169 N 0.45507 0.01103 0.63135 0.0
N170 N 0.42188 0.95586 0.64043 0.0
H171 H 0.42456 0.97357 0.61197 0.0
H172 H 0.46925 0.03078 0.65886 0.0
C173 C 0.54603 0.04835 0.63394 0.0
O174 O 0.53982 0.01126 0.63917 0.0
N175 N 0.46563 0.10886 0.60347 0.0
C176 C 0.44425 0.11816 0.5883 0.0
C177 C 0.45251 0.15695 0.58345 0.0
C178 C 0.48636 0.14198 0.60777 0.0
N179 N 0.47918 0.17168 0.59561 0.0
C180 C 0.4468 0.01903 0.58326 0.0
C181 C 0.52453 0.02291 0.57037 0.0
C182 C 0.49405 0.01277 0.55803 0.0
C183 C 0.45495 0.0093 0.56485 0.0
C184 C 0.51523 0.03221 0.58865 0.0
N185 N 0.47652 0.03145 0.59489 0.0
H186 H 0.41599 0.01936 0.58775 0.0
H187 H 0.5394 0.04257 0.59713 0.0
H188 H 0.4228 0.09874 0.58169 0.0
H189 H 0.50563 0.14457 0.6197 0.0
O190 O 0.40325 0.06381 0.61446 0.0
O191 O 0.43796 0.08982 0.63741 0.0
O192 O 0.519 0.06803 0.62534 0.0
C193 C 0.40364 0.0857 0.62932 0.0
H194 H 0.43178 0.96497 0.66958 0.0
H195 H 0.43857 0.17352 0.57233 0.0
H196 H 0.55528 0.02522 0.56574 0.0
H197 H 0.43046 1.00153 0.55576 0.0
Co198 Co 0.19025 0.20429 0.8704 0.0
C199 C 0.27153 0.17579 0.87866 0.0
C200 C 0.25194 0.21819 0.89879 0.0
C201 C 0.28778 0.20193 0.90459 0.0
N202 N 0.24218 0.20243 0.88228 0.0
N203 N 0.29985 0.17514 0.89191 0.0
H204 H 0.2707 0.15471 0.86744 0.0
H205 H 0.23284 0.23769 0.90679 0.0
C206 C 0.20318 0.29341 0.87997 0.0
O207 O 0.24235 0.2925 0.87864 0.0
N208 N 0.13896 0.20449 0.85864 0.0
C209 C 0.12754 0.17993 0.84488 0.0
C210 C 0.08783 0.18679 0.84115 0.0
C211 C 0.10648 0.22609 0.86308 0.0
N212 N 0.07502 0.2157 0.8526 0.0
C213 C 0.23225 0.18876 0.83612 0.0
C214 C 0.21491 0.26202 0.82018 0.0
C215 C 0.23465 0.2333 0.80959 0.0
C216 C 0.2436 0.19625 0.81779 0.0
C217 C 0.20422 0.25342 0.83832 0.0
N218 N 0.21355 0.21749 0.84637 0.0
H219 H 0.23638 0.15907 0.84164 0.0
H220 H 0.18602 0.27518 0.84527 0.0
H221 H 0.14663 0.15813 0.83826 0.0
H222 H 0.10545 0.24809 0.874 0.0
O223 O 0.18839 0.1456 0.86982 0.0
O224 O 0.16619 0.18383 0.8924 0.0
O225 O 0.182 0.26234 0.87692 0.0
C226 C 0.16971 0.1482 0.88562 0.0
H227 H 0.30193 0.20676 0.91783 0.0
H228 H 0.06973 0.17192 0.83085 0.0
H229 H 0.20671 0.29072 0.81431 0.0
H230 H 0.25755 0.17264 0.80985 0.0
Co231 Co 0.04869 0.94003 0.11993 0.0
C232 C 0.0803 0.01876 0.1313 0.0
C233 C 0.03556 0.99772 0.15007 0.0
C234 C 0.05245 0.0319 0.15723 0.0
N235 N 0.05232 0.9899 0.13355 0.0
N236 N 0.0811 0.0448 0.14554 0.0
H237 H 0.10219 0.0188 0.12035 0.0
H238 H 0.01437 0.97858 0.15708 0.0
C239 C 0.96072 0.95158 0.13118 0.0
O240 O 0.96164 0.99052 0.12875 0.0
N241 N 0.04673 0.89078 0.10649 0.0
C242 C 0.06277 0.88438 0.08971 0.0
C243 C 0.05713 0.84501 0.08515 0.0
C244 C 0.03201 0.85538 0.11208 0.0
N245 N 0.03779 0.82693 0.09919 0.0
C246 C 0.05751 0.98913 0.0871 0.0
C247 C 0.98525 0.96696 0.07158 0.0
C248 C 0.01238 0.9884 0.06071 0.0
C249 C 0.04873 1.00019 0.06882 0.0
C250 C 0.99532 0.95611 0.08956 0.0
N251 N 0.03106 0.96709 0.0973 0.0
H252 H 0.08691 0.99551 0.09244 0.0
H253 H 0.97544 0.93571 0.09647 0.0
H254 H 0.07808 0.90665 0.0815 0.0
H255 H 0.01857 0.85043 0.12547 0.0
O256 O 0.10678 0.9391 0.11666 0.0
O257 O 0.07393 0.91285 0.14028 0.0
O258 O 0.99172 0.93008 0.12827 0.0
C259 C 0.10781 0.91851 0.13198 0.0
H260 H 0.04497 0.04527 0.17035 0.0
H261 H 0.0665 0.83075 0.07247 0.0
H262 H 0.957 0.95685 0.06594 0.0
H263 H 0.07128 0.01567 0.0608 0.0
Co264 Co 0.69545 0.79196 0.87354 0.0
C265 C 0.77719 0.82004 0.87973 0.0
C266 C 0.75629 0.78559 0.90268 0.0
C267 C 0.79225 0.80278 0.90735 0.0
N268 N 0.74743 0.79531 0.88513 0.0
N269 N 0.80537 0.82506 0.89299 0.0
H270 H 0.77554 0.83744 0.86719 0.0
H271 H 0.73644 0.76988 0.912 0.0
C272 C 0.7063 0.70289 0.88587 0.0
O273 O 0.74226 0.70686 0.89284 0.0
N274 N 0.6436 0.79054 0.86229 0.0
C275 C 0.62948 0.81362 0.84847 0.0
C276 C 0.58872 0.8092 0.84764 0.0
C277 C 0.61136 0.77315 0.86989 0.0
N278 N 0.57749 0.78393 0.86118 0.0
C279 C 0.72239 0.81474 0.83705 0.0
C280 C 0.74 0.73835 0.8251 0.0
C281 C 0.73712 0.76896 0.81192 0.0
C282 C 0.73012 0.80802 0.81827 0.0
C283 C 0.73166 0.74626 0.84363 0.0
N284 N 0.72029 0.7836 0.84927 0.0
H285 H 0.71556 0.84477 0.84154 0.0
H286 H 0.73352 0.72167 0.85313 0.0
H287 H 0.64668 0.8344 0.84031 0.0
H288 H 0.61258 0.75528 0.88233 0.0
O289 O 0.69056 0.85036 0.87439 0.0
O290 O 0.67057 0.80856 0.8962 0.0
O291 O 0.68865 0.73213 0.87786 0.0
C292 C 0.67214 0.84498 0.89008 0.0
H293 H 0.80615 0.80097 0.92079 0.0
H294 H 0.56877 0.82413 0.83808 0.0
H295 H 0.74778 0.70814 0.82108 0.0
H296 H 0.72872 0.83294 0.80872 0.0
Co297 Co 0.9635 0.94639 0.61887 0.0
C298 C 0.93802 0.02784 0.62717 0.0
C299 C 0.96857 1.00187 0.65023 0.0
C300 C 0.95145 0.03734 0.6558 0.0
N301 N 0.96096 0.99637 0.63213 0.0
N302 N 0.93205 0.05333 0.64129 0.0
H303 H 0.9226 0.03 0.61409 0.0
H304 H 0.98269 0.98002 0.65914 0.0
C305 C 0.05156 0.95853 0.63094 0.0
O306 O 0.04611 0.99461 0.63753 0.0
N307 N 0.96386 0.89679 0.60551 0.0
C308 C 0.93596 0.8839 0.59347 0.0
C309 C 0.94536 0.8456 0.58823 0.0
C310 C 0.98962 0.86627 0.60751 0.0
N311 N 0.97895 0.83458 0.59716 0.0
C312 C 0.93837 0.97805 0.58366 0.0
C313 C 0.01434 0.99372 0.57041 0.0
C314 C 0.98235 0.99394 0.55797 0.0
C315 C 0.94368 0.98751 0.56494 0.0
C316 C 0.00775 0.98444 0.58896 0.0
N317 N 0.97043 0.97447 0.59526 0.0
H318 H 0.90863 0.97127 0.58858 0.0
H319 H 0.03341 0.98393 0.59783 0.0
H320 H 0.90964 0.90037 0.58933 0.0
H321 H 0.01516 0.86707 0.6166 0.0
O322 O 0.90501 0.94177 0.62079 0.0
O323 O 0.94867 0.91797 0.64091 0.0
O324 O 0.02337 0.9399 0.62265 0.0
C325 C 0.91166 0.92152 0.63592 0.0
H326 H 0.9499 0.04844 0.66979 0.0
H327 H 0.92788 0.82668 0.5792 0.0
H328 H 0.04456 0.99966 0.56572 0.0
H329 H 0.91798 0.9877 0.55584 0.0
Co330 Co 0.80714 0.21239 0.3684 0.0
C331 C 0.72707 0.1802 0.37609 0.0
C332 C 0.7474 0.21752 0.39813 0.0
C333 C 0.71175 0.20011 0.40328 0.0
N334 N 0.75641 0.2059 0.38086 0.0
N335 N 0.69898 0.17632 0.38944 0.0
H336 H 0.72849 0.16188 0.36389 0.0
H337 H 0.76648 0.23565 0.40679 0.0
C338 C 0.78966 0.2991 0.38134 0.0
O339 O 0.7507 0.29503 0.38259 0.0
N340 N 0.8575 0.21734 0.35602 0.0
C341 C 0.86993 0.19531 0.34154 0.0
C342 C 0.90971 0.20322 0.33848 0.0
C343 C 0.88956 0.23828 0.36164 0.0
N344 N 0.92155 0.23011 0.35111 0.0
C345 C 0.77072 0.19396 0.33334 0.0
C346 C 0.77197 0.27109 0.31957 0.0
C347 C 0.76457 0.23967 0.30734 0.0
C348 C 0.76245 0.20073 0.31459 0.0
C349 C 0.78071 0.26307 0.33803 0.0
N350 N 0.78097 0.22478 0.34479 0.0
H351 H 0.77182 0.16348 0.33827 0.0
H352 H 0.78976 0.2881 0.34621 0.0
H353 H 0.85194 0.17358 0.3343 0.0
H354 H 0.89006 0.25748 0.37364 0.0
O355 O 0.81306 0.1542 0.36685 0.0
O356 O 0.83448 0.19182 0.38976 0.0
O357 O 0.81195 0.2706 0.37564 0.0
C358 C 0.83306 0.15666 0.38226 0.0
H359 H 0.69745 0.20335 0.41657 0.0
H360 H 0.9288 0.18961 0.32819 0.0
H361 H 0.7727 0.3018 0.31477 0.0
H362 H 0.75669 0.17544 0.30567 0.0
Co363 Co 0.54403 0.05728 0.11805 0.0
C364 C 0.57247 0.97671 0.12786 0.0
C365 C 0.54908 0.00746 0.15141 0.0
C366 C 0.56706 0.97267 0.15733 0.0
N367 N 0.55175 0.00964 0.13286 0.0
N368 N 0.5822 0.95367 0.14252 0.0
H369 H 0.58244 0.97093 0.11395 0.0
H370 H 0.53695 0.03071 0.16013 0.0
C371 C 0.46036 0.04124 0.13409 0.0
O372 O 0.46969 0.00554 0.14027 0.0
N373 N 0.53828 0.10475 0.10326 0.0
C374 C 0.5596 0.11406 0.08805 0.0
C375 C 0.55061 0.1525 0.08289 0.0
C376 C 0.51705 0.13778 0.10733 0.0
N377 N 0.52394 0.16729 0.09501 0.0
C378 C 0.56446 0.01832 0.08403 0.0
C379 C 0.48697 0.00623 0.07211 0.0
C380 C 0.51807 0.00327 0.05922 0.0
C381 C 0.55745 0.00796 0.06559 0.0
C382 C 0.49519 0.01741 0.09027 0.0
N383 N 0.53344 0.02546 0.09587 0.0
H384 H 0.59487 0.02403 0.08831 0.0
H385 H 0.47003 0.02148 0.09926 0.0
H386 H 0.58196 0.09533 0.08169 0.0
H387 H 0.49906 0.14095 0.11965 0.0
O388 O 0.60218 0.06393 0.11675 0.0
O389 O 0.56287 0.08967 0.13813 0.0
O390 O 0.48518 0.06196 0.12462 0.0
C391 C 0.59862 0.08629 0.13138 0.0
H392 H 0.57142 0.96359 0.17153 0.0
H393 H 0.56374 0.16886 0.0715 0.0
H394 H 0.45613 1.0017 0.06801 0.0
H395 H 0.58263 0.00635 0.05623 0.0
Co396 Co 0.70088 0.20858 0.66783 0.0
C397 C 0.77821 0.17035 0.65944 0.0
C398 C 0.77465 0.22789 0.64649 0.0
C399 C 0.81028 0.21015 0.64144 0.0
N400 N 0.7548 0.2032 0.6581 0.0
N401 N 0.81209 0.17391 0.64949 0.0
H402 H 0.77025 0.14368 0.66707 0.0
H403 H 0.76348 0.25584 0.6411 0.0
C404 C 0.71548 0.2988 0.66214 0.0
O405 O 0.7469 0.29973 0.673 0.0
N406 N 0.64774 0.21246 0.67733 0.0
C407 C 0.63295 0.19077 0.69147 0.0
C408 C 0.59249 0.19722 0.69243 0.0
C409 C 0.61656 0.23192 0.66986 0.0
N410 N 0.58266 0.22282 0.67882 0.0
C411 C 0.74469 0.19806 0.70205 0.0
C412 C 0.71319 0.26481 0.71933 0.0
C413 C 0.73804 0.23928 0.72947 0.0
C414 C 0.7538 0.20541 0.72066 0.0
C415 C 0.70419 0.25595 0.70099 0.0
N416 N 0.72055 0.22347 0.69232 0.0
H417 H 0.75559 0.17097 0.69578 0.0
H418 H 0.68253 0.27451 0.69398 0.0
H419 H 0.6503 0.17084 0.70011 0.0
H420 H 0.61832 0.25115 0.65785 0.0
O421 O 0.69574 0.15056 0.67056 0.0
O422 O 0.67951 0.18513 0.6457 0.0
O423 O 0.69671 0.26617 0.65913 0.0
C424 C 0.67902 0.15098 0.65428 0.0
H425 H 0.83211 0.22195 0.63183 0.0
H426 H 0.5718 0.18424 0.70225 0.0
H427 H 0.69937 0.29056 0.72578 0.0
H428 H 0.77252 0.18451 0.72815 0.0
Co429 Co 0.54598 0.94665 0.41837 0.0
C430 C 0.57774 0.02559 0.4078 0.0
C431 C 0.53411 0.00537 0.38838 0.0
C432 C 0.55041 0.04061 0.38197 0.0
N433 N 0.55044 0.99655 0.40488 0.0
N434 N 0.57847 0.05307 0.39407 0.0
H435 H 0.59888 0.02503 0.41903 0.0
H436 H 0.51307 0.98664 0.38107 0.0
C437 C 0.45757 0.96228 0.40788 0.0
O438 O 0.46008 1.00146 0.40825 0.0
N439 N 0.54306 0.89724 0.43173 0.0
C440 C 0.5638 0.88816 0.44714 0.0
C441 C 0.55619 0.84903 0.45176 0.0
C442 C 0.5234 0.86373 0.42701 0.0
N443 N 0.53092 0.83416 0.4391 0.0
C444 C 0.56489 0.99004 0.45169 0.0
C445 C 0.49101 0.97938 0.46812 0.0
C446 C 0.52241 0.99413 0.47888 0.0
C447 C 0.55962 1.00031 0.47032 0.0
C448 C 0.4976 0.96905 0.44976 0.0
N449 N 0.53422 0.97412 0.44161 0.0
H450 H 0.5946 0.99173 0.44592 0.0
H451 H 0.47362 0.95386 0.44288 0.0
H452 H 0.58396 0.9082 0.45422 0.0
H453 H 0.50499 0.86069 0.41481 0.0
O454 O 0.60442 0.94205 0.41932 0.0
O455 O 0.56561 0.91845 0.39724 0.0
O456 O 0.48755 0.94015 0.41187 0.0
C457 C 0.60125 0.92124 0.40416 0.0
H458 H 0.54234 0.05518 0.36919 0.0
H459 H 0.5688 0.83243 0.4632 0.0
H460 H 0.46179 0.97396 0.47411 0.0
H461 H 0.58514 0.01058 0.47818 0.0
Co462 Co 0.80733 0.79439 0.16959 0.0
C463 C 0.73433 0.83239 0.15457 0.0
C464 C 0.72471 0.77037 0.16075 0.0
C465 C 0.68879 0.7871 0.15536 0.0
N466 N 0.75325 0.79884 0.16022 0.0
N467 N 0.69506 0.82604 0.1514 0.0
H468 H 0.74821 0.86156 0.15394 0.0
H469 H 0.72921 0.74008 0.16561 0.0
C470 C 0.81126 0.72103 0.14714 0.0
O471 O 0.80357 0.74446 0.13301 0.0
N472 N 0.86046 0.79069 0.17915 0.0
C473 C 0.87489 0.81077 0.19378 0.0
C474 C 0.91565 0.80579 0.19425 0.0
C475 C 0.89214 0.77395 0.17086 0.0
N476 N 0.92627 0.78276 0.17981 0.0
C477 C 0.7645 0.81028 0.20333 0.0
C478 C 0.78893 0.74106 0.22118 0.0
C479 C 0.76685 0.76934 0.23106 0.0
C480 C 0.75416 0.80422 0.2219 0.0
C481 C 0.79899 0.74846 0.20284 0.0
N482 N 0.78694 0.78267 0.19412 0.0
H483 H 0.75556 0.8376 0.19646 0.0
H484 H 0.81836 0.72749 0.19601 0.0
H485 H 0.85715 0.82894 0.20302 0.0
H486 H 0.89031 0.75723 0.15816 0.0
O487 O 0.81334 0.85254 0.17075 0.0
O488 O 0.82902 0.81486 0.14686 0.0
O489 O 0.80951 0.73547 0.16341 0.0
C490 C 0.82998 0.84993 0.1545 0.0
H491 H 0.66005 0.77219 0.15499 0.0
H492 H 0.93598 0.81824 0.20434 0.0
H493 H 0.79989 0.71411 0.22781 0.0
H494 H 0.73685 0.82673 0.22907 0.0
Co495 Co 0.95615 0.05628 0.92142 0.0
C496 C 0.92563 0.97721 0.91059 0.0
C497 C 0.96681 0.99978 0.89054 0.0
C498 C 0.95063 0.96462 0.88402 0.0
N499 N 0.952 0.00706 0.90747 0.0
N500 N 0.92405 0.95064 0.89653 0.0
H501 H 0.90567 0.97663 0.92227 0.0
H502 H 0.98671 0.01949 0.88306 0.0
C503 C 0.04439 0.04256 0.90992 0.0
O504 O 0.0418 0.00342 0.9091 0.0
N505 N 0.95852 0.10505 0.93532 0.0
C506 C 0.93625 0.11331 0.95032 0.0
C507 C 0.94337 0.15209 0.95548 0.0
C508 C 0.97871 0.13885 0.93141 0.0
N509 N 0.97019 0.16795 0.94366 0.0
C510 C 0.93819 0.01218 0.95485 0.0
C511 C 0.01265 0.02289 0.9707 0.0
C512 C 0.98137 0.00929 0.9818 0.0
C513 C 0.94402 0.00243 0.97355 0.0
C514 C 0.00567 0.03214 0.95223 0.0
N515 N 0.96863 0.02771 0.94442 0.0
H516 H 0.9083 0.01042 0.94929 0.0
H517 H 0.02984 0.04605 0.94499 0.0
H518 H 0.91512 0.09303 0.95666 0.0
H519 H 0.99852 0.14233 0.9197 0.0
O520 O 0.89757 0.05989 0.92257 0.0
O521 O 0.93589 0.0856 0.9007 0.0
O522 O 0.01452 0.06404 0.91475 0.0
C523 C 0.90043 0.08191 0.90773 0.0
H524 H 0.95779 0.9512 0.8709 0.0
H525 H 0.92864 0.16787 0.96659 0.0
H526 H 0.04205 0.02827 0.97649 0.0
H527 H 0.91894 0.99209 0.98173 0.0
Co528 Co 0.80899 0.71174 0.67356 0.0
C529 C 0.73415 0.67175 0.66302 0.0
C530 C 0.74001 0.7279 0.64888 0.0
C531 C 0.70508 0.7096 0.64318 0.0
N532 N 0.75816 0.70404 0.6613 0.0
N533 N 0.70163 0.67406 0.65197 0.0
H534 H 0.74086 0.64656 0.67189 0.0
H535 H 0.75132 0.75641 0.64414 0.0
C536 C 0.82491 0.80034 0.67597 0.0
O537 O 0.8363 0.79506 0.69316 0.0
N538 N 0.86011 0.71741 0.6859 0.0
C539 C 0.87303 0.69595 0.70057 0.0
C540 C 0.91313 0.70249 0.70301 0.0
C541 C 0.89311 0.7359 0.67931 0.0
N542 N 0.92543 0.72753 0.68969 0.0
C543 C 0.77983 0.68803 0.70948 0.0
C544 C 0.75039 0.762 0.71962 0.0
C545 C 0.75518 0.73264 0.73328 0.0
C546 C 0.76825 0.69456 0.72781 0.0
C547 C 0.76196 0.75395 0.70143 0.0
N548 N 0.78038 0.71871 0.69701 0.0
H549 H 0.7906 0.65877 0.70561 0.0
H550 H 0.75721 0.77678 0.69115 0.0
H551 H 0.8558 0.67459 0.70832 0.0
H552 H 0.89388 0.75355 0.66678 0.0
O553 O 0.81875 0.65381 0.67334 0.0
O554 O 0.83689 0.69627 0.65159 0.0
O555 O 0.80866 0.77126 0.66724 0.0
C556 C 0.83766 0.65994 0.65782 0.0
H557 H 0.68376 0.7219 0.63348 0.0
H558 H 0.93218 0.68895 0.71337 0.0
H559 H 0.73846 0.7912 0.72305 0.0
H560 H 0.77138 0.67055 0.73776 0.0
Co561 Co 0.53865 0.55224 0.91747 0.0
C562 C 0.56341 0.46976 0.9096 0.0
C563 C 0.53807 0.49848 0.88587 0.0
C564 C 0.55632 0.46373 0.88029 0.0
N565 N 0.54196 0.50214 0.9043 0.0
N566 N 0.57236 0.44579 0.8952 0.0
H567 H 0.57648 0.46644 0.92317 0.0
H568 H 0.52628 0.52144 0.87684 0.0
C569 C 0.45211 0.54327 0.90222 0.0
O570 O 0.458 0.50808 0.89476 0.0
N571 N 0.53711 0.60232 0.93036 0.0
C572 C 0.56425 0.61607 0.94259 0.0
C573 C 0.55815 0.65639 0.94502 0.0
C574 C 0.51482 0.63418 0.9256 0.0
N575 N 0.5273 0.66738 0.93422 0.0
C576 C 0.55644 0.52063 0.95342 0.0
C577 C 0.4783 0.50739 0.96432 0.0
C578 C 0.50846 0.50626 0.97775 0.0
C579 C 0.54815 0.51172 0.97193 0.0
C580 C 0.48786 0.51636 0.94596 0.0
N581 N 0.52636 0.52487 0.9408 0.0
H582 H 0.58706 0.52639 0.94951 0.0
H583 H 0.46357 0.518 0.93631 0.0
H584 H 0.58845 0.59878 0.94844 0.0
H585 H 0.49166 0.63384 0.91519 0.0
O586 O 0.59712 0.55427 0.91844 0.0
O587 O 0.56017 0.58023 0.89626 0.0
O588 O 0.47969 0.56067 0.91147 0.0
C589 C 0.59551 0.57558 0.90338 0.0
H590 H 0.56078 0.45427 0.86617 0.0
H591 H 0.57551 0.67628 0.95364 0.0
H592 H 0.44719 0.50345 0.96809 0.0
H593 H 0.57258 0.51034 0.98172 0.0
Co594 Co 0.69896 0.29708 0.168 0.0
C595 C 0.78184 0.3209 0.16021 0.0
C596 C 0.75283 0.29861 0.13605 0.0
C597 C 0.78801 0.31679 0.13084 0.0
N598 N 0.74903 0.30071 0.15454 0.0
N599 N 0.80626 0.33108 0.14605 0.0
H600 H 0.78599 0.33115 0.17419 0.0
H601 H 0.72983 0.28798 0.12678 0.0
C602 C 0.70842 0.21108 0.15309 0.0
O603 O 0.74262 0.21789 0.1448 0.0
N604 N 0.64929 0.29559 0.18139 0.0
C605 C 0.6382 0.32036 0.19511 0.0
C606 C 0.59921 0.31225 0.19976 0.0
C607 C 0.61687 0.27318 0.17767 0.0
N608 N 0.58584 0.28276 0.18872 0.0
C609 C 0.73421 0.31787 0.20297 0.0
C610 C 0.74274 0.24044 0.21588 0.0
C611 C 0.74723 0.27202 0.22831 0.0
C612 C 0.74423 0.31126 0.22152 0.0
C613 C 0.73309 0.24828 0.19747 0.0
N614 N 0.72703 0.28659 0.19131 0.0
H615 H 0.7299 0.34824 0.19827 0.0
H616 H 0.72901 0.22287 0.18865 0.0
H617 H 0.65651 0.34379 0.2009 0.0
H618 H 0.61598 0.25065 0.16701 0.0
O619 O 0.69542 0.35559 0.16785 0.0
O620 O 0.67036 0.31542 0.14665 0.0
O621 O 0.69145 0.23812 0.16277 0.0
C622 C 0.67454 0.35157 0.15274 0.0
H623 H 0.79708 0.32264 0.11677 0.0
H624 H 0.58162 0.3277 0.21006 0.0
H625 H 0.74567 0.2097 0.22047 0.0
H626 H 0.74753 0.33663 0.23066 0.0
Co627 Co 0.9527 0.44306 0.42027 0.0
C628 C 0.91955 0.52224 0.41157 0.0
C629 C 0.97168 0.51136 0.39518 0.0
C630 C 0.95489 0.54732 0.38972 0.0
N631 N 0.94991 0.49604 0.40922 0.0
N632 N 0.92199 0.5537 0.4 0.0
H633 H 0.89448 0.51735 0.4207 0.0
H634 H 0.99634 0.49645 0.38845 0.0
C635 C 0.04231 0.45705 0.41337 0.0
O636 O 0.04187 0.4928 0.42082 0.0
N637 N 0.95341 0.39098 0.43147 0.0
C638 C 0.92976 0.38001 0.44565 0.0
C639 C 0.93883 0.34145 0.4505 0.0
C640 C 0.97657 0.35907 0.42776 0.0
N641 N 0.96848 0.3286 0.43939 0.0
C642 C 0.94111 0.48793 0.45419 0.0
C643 C 0.01061 0.46097 0.47085 0.0
C644 C 0.98473 0.48531 0.48096 0.0
C645 C 0.94938 0.49867 0.47251 0.0
C646 C 1.00089 0.45044 0.45282 0.0
N647 N 0.96721 0.4648 0.44438 0.0
H648 H 0.9128 0.49655 0.44833 0.0
H649 H 0.01944 0.42865 0.44607 0.0
H650 H 0.90758 0.39894 0.4521 0.0
H651 H 0.99924 0.35834 0.4171 0.0
O652 O 0.89426 0.44109 0.42195 0.0
O653 O 0.93041 0.42055 0.39828 0.0
O654 O 0.01064 0.43575 0.41262 0.0
C655 C 0.89542 0.42346 0.4059 0.0
H656 H 0.96442 0.56583 0.37826 0.0
H657 H 0.92449 0.32407 0.46124 0.0
H658 H 0.03731 0.44856 0.47712 0.0
H659 H 0.92804 0.51664 0.4801 0.0
Co660 Co 0.80435 0.29598 0.86952 0.0
C661 C 0.72203 0.32172 0.87763 0.0
C662 C 0.74671 0.28715 0.89972 0.0
C663 C 0.71166 0.3046 0.90574 0.0
N664 N 0.75318 0.29785 0.88204 0.0
N665 N 0.6962 0.32659 0.89182 0.0
H666 H 0.71984 0.33786 0.86482 0.0
H667 H 0.76792 0.27104 0.90821 0.0
C668 C 0.79374 0.20736 0.88161 0.0
O669 O 0.75451 0.20637 0.88066 0.0
N670 N 0.8551 0.29529 0.85725 0.0
C671 C 0.86579 0.31659 0.84222 0.0
C672 C 0.90533 0.30865 0.83838 0.0
C673 C 0.88793 0.27519 0.86248 0.0
N674 N 0.9188 0.28242 0.85108 0.0
C675 C 0.76365 0.31281 0.83524 0.0
C676 C 0.77699 0.23881 0.81947 0.0
C677 C 0.76126 0.26937 0.80836 0.0
C678 C 0.75351 0.3065 0.8167 0.0
C679 C 0.78615 0.24614 0.83797 0.0
N680 N 0.77966 0.28285 0.84576 0.0
H681 H 0.76087 0.34264 0.84076 0.0
H682 H 0.80124 0.22274 0.84542 0.0
H683 H 0.84636 0.33675 0.83473 0.0
H684 H 0.88959 0.25658 0.87464 0.0
O685 O 0.80651 0.3547 0.86866 0.0
O686 O 0.82966 0.3166 0.89114 0.0
O687 O 0.81324 0.23845 0.8767 0.0
C688 C 0.82588 0.35215 0.88429 0.0
H689 H 0.7008 0.30416 0.91979 0.0
H690 H 0.92276 0.32086 0.82711 0.0
H691 H 0.7843 0.20987 0.81367 0.0
H692 H 0.74081 0.331 0.80885 0.0
Co693 Co 0.96699 0.5551 0.11918 0.0
C694 C 0.93744 0.47485 0.1298 0.0
C695 C 0.96207 0.50661 0.15276 0.0
C696 C 0.94314 0.47286 0.15929 0.0
N697 N 0.95895 0.50773 0.13422 0.0
N698 N 0.92762 0.45296 0.14483 0.0
H699 H 0.92569 0.46903 0.11621 0.0
H700 H 0.97465 0.53027 0.1611 0.0
C701 C 0.05175 0.54325 0.13623 0.0
O702 O 0.0445 0.50838 0.14386 0.0
N703 N 0.97383 0.6022 0.10446 0.0
C704 C 0.95645 0.61075 0.08812 0.0
C705 C 0.96638 0.6493 0.08327 0.0
C706 C 0.99363 0.6354 0.10945 0.0
N707 N 0.98976 0.66421 0.09668 0.0
C708 C 0.94964 0.51121 0.08616 0.0
C709 C 0.027 0.5102 0.0727 0.0
C710 C 0.99562 0.50054 0.06072 0.0
C711 C 0.95661 0.4998 0.06786 0.0
C712 C 0.01879 0.52134 0.09089 0.0
N713 N 0.9803 0.52331 0.09732 0.0
H714 H 0.91905 0.51338 0.09083 0.0
H715 H 0.04369 0.53077 0.09915 0.0
H716 H 0.93651 0.59117 0.08067 0.0
H717 H 0.00911 0.63902 0.12245 0.0
O718 O 0.90914 0.56098 0.11621 0.0
O719 O 0.9449 0.58764 0.13863 0.0
O720 O 0.02509 0.56128 0.12669 0.0
C721 C 0.91038 0.58409 0.13064 0.0
H722 H 0.93891 0.46489 0.17363 0.0
H723 H 0.95596 0.66573 0.07132 0.0
H724 H 0.05764 0.51073 0.06782 0.0
H725 H 0.93131 0.49307 0.05907 0.0
Co726 Co 0.69386 0.70572 0.36958 0.0
C727 C 0.77503 0.6776 0.37797 0.0
C728 C 0.75368 0.71671 0.39912 0.0
C729 C 0.78925 0.69978 0.40493 0.0
N730 N 0.74518 0.70339 0.382 0.0
N731 N 0.80229 0.67505 0.3916 0.0
H732 H 0.77504 0.65797 0.36621 0.0
H733 H 0.73382 0.73478 0.40743 0.0
C734 C 0.70635 0.7938 0.3808 0.0
O735 O 0.74558 0.79213 0.38024 0.0
N736 N 0.64327 0.70616 0.3571 0.0
C737 C 0.63372 0.68273 0.34267 0.0
C738 C 0.59507 0.69083 0.33754 0.0
C739 C 0.61046 0.72812 0.36067 0.0
N740 N 0.58073 0.71958 0.34875 0.0
C741 C 0.73656 0.69169 0.33545 0.0
C742 C 0.72131 0.76612 0.32028 0.0
C743 C 0.74034 0.7374 0.30937 0.0
C744 C 0.7481 0.69973 0.3172 0.0
C745 C 0.71038 0.75696 0.33835 0.0
N746 N 0.71851 0.72034 0.346 0.0
H747 H 0.73989 0.66161 0.34062 0.0
H748 H 0.69261 0.77879 0.34547 0.0
H749 H 0.65342 0.66094 0.33643 0.0
H750 H 0.6084 0.74998 0.37162 0.0
O751 O 0.69278 0.64718 0.36814 0.0
O752 O 0.66876 0.6835 0.39104 0.0
O753 O 0.68491 0.76343 0.37674 0.0
C754 C 0.67348 0.64841 0.3838 0.0
H755 H 0.80244 0.70247 0.4185 0.0
H756 H 0.57855 0.67607 0.32667 0.0
H757 H 0.71273 0.79485 0.31458 0.0
H758 H 0.76187 0.67624 0.30913 0.0
Co759 Co 0.55321 0.44214 0.62112 0.0
C760 C 0.57981 0.5235 0.63053 0.0
C761 C 0.54411 0.49813 0.6521 0.0
C762 C 0.56072 0.53331 0.65839 0.0
N763 N 0.55546 0.49231 0.63448 0.0
N764 N 0.58339 0.54922 0.64482 0.0
H765 H 0.59794 0.52509 0.61825 0.0
H766 H 0.52738 0.47683 0.66029 0.0
C767 C 0.46538 0.45235 0.63383 0.0
O768 O 0.46731 0.49153 0.63465 0.0
N769 N 0.55312 0.39281 0.60769 0.0
C770 C 0.57708 0.38461 0.59324 0.0
C771 C 0.57004 0.34615 0.58766 0.0
C772 C 0.53186 0.35933 0.61081 0.0
N773 N 0.54134 0.33051 0.59857 0.0
C774 C 0.56735 0.48485 0.58699 0.0
C775 C 0.49151 0.47419 0.57258 0.0
C776 C 0.52137 0.48943 0.56104 0.0
C777 C 0.55968 0.49518 0.56851 0.0
C778 C 0.5005 0.46363 0.59076 0.0
N779 N 0.53807 0.46887 0.59795 0.0
H780 H 0.59764 0.48713 0.59202 0.0
H781 H 0.47742 0.44842 0.5983 0.0
H782 H 0.59886 0.40494 0.58741 0.0
H783 H 0.5101 0.35603 0.62176 0.0
O784 O 0.6117 0.44174 0.61934 0.0
O785 O 0.57641 0.41519 0.64207 0.0
O786 O 0.49546 0.43171 0.62846 0.0
C787 C 0.61118 0.42113 0.63465 0.0
H788 H 0.55813 0.54502 0.67224 0.0
H789 H 0.5857 0.33056 0.57676 0.0
H790 H 0.46185 0.46803 0.56725 0.0
H791 H 0.58383 0.50641 0.55999 0.0
Co792 Co 0.19518 0.30089 0.37194 0.0
C793 C 0.27728 0.32712 0.38063 0.0
C794 C 0.24634 0.30629 0.40464 0.0
C795 C 0.28119 0.3245 0.41015 0.0
N796 N 0.24401 0.30734 0.38608 0.0
N797 N 0.30073 0.33775 0.39505 0.0
H798 H 0.28268 0.33635 0.36656 0.0
H799 H 0.22279 0.29584 0.41368 0.0
C800 C 0.20806 0.21601 0.38784 0.0
O801 O 0.24091 0.22532 0.39671 0.0
N802 N 0.14643 0.29619 0.35807 0.0
C803 C 0.13611 0.3166 0.34274 0.0
C804 C 0.09672 0.30892 0.33887 0.0
C805 C 0.11304 0.27707 0.36354 0.0
N806 N 0.08225 0.28425 0.35199 0.0
C807 C 0.23116 0.3215 0.337 0.0
C808 C 0.24529 0.24406 0.32555 0.0
C809 C 0.24662 0.27475 0.31235 0.0
C810 C 0.24093 0.31418 0.31849 0.0
C811 C 0.23491 0.25258 0.3438 0.0
N812 N 0.2255 0.29069 0.34916 0.0
H813 H 0.22483 0.35186 0.34115 0.0
H814 H 0.23297 0.22775 0.35318 0.0
H815 H 0.1548 0.33755 0.3354 0.0
H816 H 0.11083 0.26048 0.37633 0.0
O817 O 0.18902 0.35913 0.37109 0.0
O818 O 0.16436 0.31944 0.3927 0.0
O819 O 0.19005 0.24165 0.37768 0.0
C820 C 0.16759 0.35532 0.38603 0.0
H821 H 0.28936 0.33083 0.42428 0.0
H822 H 0.0797 0.32149 0.32755 0.0
H823 H 0.25085 0.21328 0.32166 0.0
H824 H 0.24152 0.33907 0.30892 0.0
Co825 Co 0.46047 0.44087 0.11752 0.0
C826 C 0.43437 0.52172 0.12762 0.0
C827 C 0.46713 0.49407 0.14962 0.0
C828 C 0.45107 0.52938 0.156 0.0
N829 N 0.45753 0.48977 0.13166 0.0
N830 N 0.43035 0.54655 0.14216 0.0
H831 H 0.41828 0.52527 0.11478 0.0
H832 H 0.48256 0.47183 0.15783 0.0
C833 C 0.5484 0.45575 0.12838 0.0
O834 O 0.54241 0.4928 0.13362 0.0
N835 N 0.46115 0.39233 0.1034 0.0
C836 C 0.43387 0.38189 0.09055 0.0
C837 C 0.43991 0.34272 0.08578 0.0
C838 C 0.48343 0.3594 0.10634 0.0
N839 N 0.47092 0.32891 0.09572 0.0
C840 C 0.43305 0.47724 0.0836 0.0
C841 C 0.50801 0.48883 0.06841 0.0
C842 C 0.47463 0.49154 0.05684 0.0
C843 C 0.43657 0.48717 0.06482 0.0
C844 C 0.50324 0.47844 0.08695 0.0
N845 N 0.46621 0.47073 0.09424 0.0
H846 H 0.40358 0.47206 0.08925 0.0
H847 H 0.53006 0.47476 0.09485 0.0
H848 H 0.40944 0.4004 0.08584 0.0
H849 H 0.50641 0.35694 0.11681 0.0
O850 O 0.40213 0.43493 0.11971 0.0
O851 O 0.44688 0.41069 0.13921 0.0
O852 O 0.52038 0.43511 0.12104 0.0
C853 C 0.4097 0.41379 0.13448 0.0
H854 H 0.45172 0.53987 0.17011 0.0
H855 H 0.42194 0.32513 0.07639 0.0
H856 H 0.53798 0.49239 0.06295 0.0
H857 H 0.40981 0.49013 0.05651 0.0
Co858 Co 0.30108 0.70883 0.87058 0.0
C859 C 0.22505 0.66757 0.87891 0.0
C860 C 0.22136 0.72909 0.88688 0.0
C861 C 0.18587 0.71045 0.8915 0.0
N862 N 0.24592 0.70224 0.87878 0.0
N863 N 0.1886 0.67175 0.88662 0.0
H864 H 0.23613 0.63954 0.87353 0.0
H865 H 0.22863 0.75974 0.88996 0.0
C866 C 0.28928 0.79974 0.87602 0.0
O867 O 0.26154 0.80299 0.86328 0.0
N868 N 0.35533 0.7139 0.8626 0.0
C869 C 0.37212 0.69372 0.8485 0.0
C870 C 0.41221 0.70226 0.84818 0.0
C871 C 0.38498 0.73447 0.8707 0.0
N872 N 0.41982 0.72767 0.8621 0.0
C873 C 0.25879 0.70206 0.83588 0.0
C874 C 0.29663 0.76602 0.81895 0.0
C875 C 0.27158 0.74177 0.80827 0.0
C876 C 0.25195 0.70976 0.81709 0.0
C877 C 0.30331 0.75679 0.83746 0.0
N878 N 0.28418 0.7255 0.84589 0.0
H879 H 0.24514 0.67611 0.84215 0.0
H880 H 0.32507 0.77432 0.8449 0.0
H881 H 0.35631 0.67373 0.83933 0.0
H882 H 0.38149 0.75299 0.88282 0.0
O883 O 0.307 0.65129 0.86687 0.0
O884 O 0.32006 0.68327 0.89278 0.0
O885 O 0.30409 0.76571 0.88032 0.0
C886 C 0.32164 0.65003 0.88356 0.0
H887 H 0.16064 0.72387 0.89852 0.0
H888 H 0.4342 0.69075 0.83858 0.0
H889 H 0.31171 0.79168 0.81304 0.0
H890 H 0.23261 0.68989 0.80939 0.0
Co891 Co 0.05216 0.56493 0.61774 0.0
C892 C 0.07635 0.48356 0.62817 0.0
C893 C 0.04583 0.51288 0.65028 0.0
C894 C 0.06269 0.47809 0.65699 0.0
N895 N 0.05403 0.51609 0.63212 0.0
N896 N 0.08239 0.46013 0.64308 0.0
H897 H 0.09067 0.47852 0.61509 0.0
H898 H 0.03154 0.53589 0.65843 0.0
C899 C 0.9651 0.55657 0.63145 0.0
O900 O 0.96745 0.51783 0.63424 0.0
N901 N 0.05188 0.61324 0.60348 0.0
C902 C 0.07026 0.6196 0.58717 0.0
C903 C 0.06398 0.65869 0.58198 0.0
C904 C 0.0353 0.64829 0.60818 0.0
N905 N 0.04236 0.6765 0.5953 0.0
C906 C 0.06584 0.51856 0.58481 0.0
C907 C 0.99068 0.53025 0.56984 0.0
C908 C 0.02042 0.51326 0.55876 0.0
C909 C 0.05811 0.50622 0.56669 0.0
C910 C 0.99945 0.54174 0.58788 0.0
N911 N 0.03681 0.53636 0.59524 0.0
H912 H 0.09609 0.51636 0.58991 0.0
H913 H 0.97654 0.55781 0.59512 0.0
H914 H 0.08757 0.59765 0.57971 0.0
H915 H 0.01838 0.65298 0.62072 0.0
O916 O 0.11069 0.56492 0.61592 0.0
O917 O 0.07527 0.5933 0.63809 0.0
O918 O 0.99476 0.57619 0.62493 0.0
C919 C 0.11011 0.58637 0.63094 0.0
H920 H 0.06349 0.46865 0.67127 0.0
H921 H 0.07507 0.67319 0.56963 0.0
H922 H 0.96134 0.53695 0.56428 0.0
H923 H 0.08198 0.49266 0.55877 0.0
Co924 Co 0.20281 0.70803 0.16853 0.0
C925 C 0.27846 0.66681 0.15896 0.0
C926 C 0.28383 0.72981 0.15415 0.0
C927 C 0.31964 0.71181 0.14964 0.0
N928 N 0.25794 0.70163 0.16019 0.0
N929 N 0.31606 0.67226 0.15269 0.0
H930 H 0.26657 0.63787 0.16276 0.0
H931 H 0.27762 0.76122 0.1527 0.0
C932 C 0.21293 0.79958 0.16239 0.0
O933 O 0.23892 0.80478 0.17575 0.0
N934 N 0.14857 0.71293 0.17672 0.0
C935 C 0.13223 0.69233 0.19085 0.0
C936 C 0.09199 0.70011 0.19124 0.0
C937 C 0.11842 0.73305 0.16868 0.0
N938 N 0.08371 0.72546 0.17732 0.0
C939 C 0.2463 0.70127 0.20288 0.0
C940 C 0.20892 0.76491 0.22014 0.0
C941 C 0.23473 0.7408 0.2306 0.0
C942 C 0.25406 0.70892 0.22159 0.0
C943 C 0.20133 0.75572 0.2017 0.0
N944 N 0.22025 0.7246 0.19312 0.0
H945 H 0.2599 0.67551 0.19646 0.0
H946 H 0.17923 0.77329 0.19443 0.0
H947 H 0.14846 0.67251 0.19999 0.0
H948 H 0.1215 0.75186 0.15659 0.0
O949 O 0.19698 0.65033 0.17229 0.0
O950 O 0.18362 0.68272 0.14645 0.0
O951 O 0.19957 0.76475 0.15848 0.0
C952 C 0.18212 0.64935 0.15563 0.0
H953 H 0.34593 0.72652 0.14413 0.0
H954 H 0.07037 0.68825 0.20094 0.0
H955 H 0.19407 0.79052 0.22616 0.0
H956 H 0.27397 0.68915 0.22909 0.0
Co957 Co 0.04081 0.44099 0.9202 0.0
C958 C 0.06759 0.52205 0.91088 0.0
C959 C 0.03524 0.4957 0.88849 0.0
C960 C 0.05232 0.53085 0.88237 0.0
N961 N 0.04411 0.4906 0.9065 0.0
N962 N 0.073 0.547 0.89643 0.0
H963 H 0.08316 0.52499 0.92385 0.0
H964 H 0.01993 0.47391 0.88004 0.0
C965 C 0.95345 0.45523 0.90796 0.0
O966 O 0.9587 0.4932 0.90404 0.0
N967 N 0.03958 0.3917 0.93391 0.0
C968 C 0.06475 0.38197 0.94773 0.0
C969 C 0.05715 0.3434 0.95312 0.0
C970 C 0.01724 0.35884 0.9309 0.0
N971 N 0.02714 0.32905 0.94264 0.0
C972 C 0.06325 0.47918 0.95422 0.0
C973 C 0.98768 0.47899 0.96967 0.0
C974 C 0.02061 0.48555 0.98117 0.0
C975 C 0.05868 0.48744 0.97307 0.0
C976 C 0.99349 0.4707 0.951 0.0
N977 N 0.03108 0.46917 0.94351 0.0
H978 H 0.09315 0.47775 0.94862 0.0
H979 H 0.96737 0.46313 0.9432 0.0
H980 H 0.08823 0.40093 0.95303 0.0
H981 H 0.99482 0.35649 0.92019 0.0
O982 O 0.09931 0.43746 0.92002 0.0
O983 O 0.05907 0.41223 0.8989 0.0
O984 O 0.98169 0.43398 0.9148 0.0
C985 C 0.09529 0.4163 0.90504 0.0
H986 H 0.05255 0.5418 0.86831 0.0
H987 H 0.07371 0.32663 0.96338 0.0
H988 H 0.95758 0.47855 0.97522 0.0
H989 H 0.08499 0.49278 0.98143 0.0
Co990 Co 0.30683 0.29532 0.67062 0.0
C991 C 0.23512 0.33785 0.65704 0.0
C992 C 0.22408 0.27501 0.66009 0.0
C993 C 0.18879 0.29355 0.65511 0.0
N994 N 0.25317 0.30284 0.66118 0.0
N995 N 0.19593 0.33303 0.65312 0.0
H996 H 0.24963 0.36666 0.65793 0.0
H997 H 0.22774 0.24369 0.66347 0.0
C998 C 0.30787 0.22318 0.64715 0.0
O999 O 0.30157 0.24768 0.63326 0.0
N1000 N 0.35942 0.28861 0.6804 0.0
C1001 C 0.37348 0.30621 0.69578 0.0
C1002 C 0.41399 0.30005 0.69661 0.0
C1003 C 0.39115 0.2722 0.67198 0.0
N1004 N 0.42481 0.27882 0.68165 0.0
C1005 C 0.26459 0.31055 0.70473 0.0
C1006 C 0.286 0.23884 0.72123 0.0
C1007 C 0.2663 0.26759 0.73187 0.0
C1008 C 0.25457 0.30354 0.72329 0.0
C1009 C 0.2957 0.24714 0.70297 0.0
N1010 N 0.28543 0.28267 0.69492 0.0
H1011 H 0.25701 0.3389 0.69841 0.0
H1012 H 0.31358 0.22563 0.69569 0.0
H1013 H 0.35571 0.32361 0.70531 0.0
H1014 H 0.38992 0.25758 0.65869 0.0
O1015 O 0.31565 0.35312 0.67259 0.0
O1016 O 0.32995 0.31633 0.64825 0.0
O1017 O 0.30657 0.23684 0.66357 0.0
C1018 C 0.33248 0.35081 0.65636 0.0
H1019 H 0.15992 0.27928 0.65352 0.0
H1020 H 0.43408 0.31063 0.70725 0.0
H1021 H 0.29485 0.21035 0.72711 0.0
H1022 H 0.23915 0.32654 0.73103 0.0
Co1023 Co 0.46311 0.55958 0.42225 0.0
C1024 C 0.43293 0.47929 0.41221 0.0
C1025 C 0.46148 0.50878 0.38949 0.0
C1026 C 0.44261 0.47507 0.38298 0.0
N1027 N 0.45585 0.5113 0.40788 0.0
N1028 N 0.42466 0.45661 0.39729 0.0
H1029 H 0.41919 0.47471 0.42552 0.0
H1030 H 0.4759 0.53147 0.38116 0.0
C1031 C 0.54843 0.54309 0.40759 0.0
O1032 O 0.54112 0.50623 0.40242 0.0
N1033 N 0.46918 0.60786 0.4362 0.0
C1034 C 0.45388 0.6163 0.45293 0.0
C1035 C 0.46206 0.6556 0.45691 0.0
C1036 C 0.48587 0.64198 0.4301 0.0
N1037 N 0.48208 0.67164 0.44253 0.0
C1038 C 0.44331 0.51702 0.45578 0.0
C1039 C 0.51975 0.51761 0.47034 0.0
C1040 C 0.48785 0.50806 0.48205 0.0
C1041 C 0.44932 0.50621 0.47431 0.0
C1042 C 0.51255 0.52805 0.45197 0.0
N1043 N 0.47453 0.52919 0.44492 0.0
H1044 H 0.41304 0.51857 0.45061 0.0
H1045 H 0.53786 0.5379 0.44411 0.0
H1046 H 0.4367 0.59601 0.4614 0.0
H1047 H 0.49847 0.64538 0.41645 0.0
O1048 O 0.40489 0.5664 0.42377 0.0
O1049 O 0.44359 0.59072 0.40179 0.0
O1050 O 0.52166 0.56436 0.41547 0.0
C1051 C 0.40806 0.58819 0.40886 0.0
H1052 H 0.44015 0.46615 0.36869 0.0
H1053 H 0.45326 0.67138 0.46928 0.0
H1054 H 0.55003 0.51951 0.47559 0.0
H1055 H 0.42374 0.49801 0.48267 0.0
C1056 C 0.52607 0.2613 0.20576 0.0
C1057 C 0.54643 0.26564 0.18893 0.0
C1058 C 0.48757 0.24519 0.20642 0.0
C1059 C 0.46788 0.23294 0.19027 0.0
H1060 H 0.5402 0.2701 0.21855 0.0
H1061 H 0.47289 0.24263 0.21968 0.0
S1062 S 0.50817 0.23774 0.14278 0.0
N1063 N 0.54395 0.25692 0.15568 0.0
N1064 N 0.47165 0.2254 0.15703 0.0
C1065 C 0.48779 0.23701 0.17334 0.0
C1066 C 0.52712 0.25352 0.17265 0.0
C1067 C 0.01153 0.2308 0.42406 0.0
C1068 C 0.01983 0.21175 0.44096 0.0
C1069 C 0.99571 0.26956 0.42359 0.0
C1070 C 0.98736 0.29017 0.44 0.0
H1071 H 0.01741 0.21568 0.41116 0.0
H1072 H 0.98902 0.28312 0.41037 0.0
S1073 S 0.00498 0.25401 0.48768 0.0
N1074 N 0.019 0.2165 0.47439 0.0
N1075 N 0.99029 0.28979 0.47348 0.0
C1076 C 0.99628 0.27178 0.45693 0.0
C1077 C 0.01232 0.23243 0.45742 0.0
C1078 C 0.01522 0.79333 0.69099 0.0
C1079 C 0.0465 0.76581 0.68814 0.0
C1080 C 0.97519 0.78108 0.69037 0.0
C1081 C 0.96551 0.74097 0.6871 0.0
H1082 H 0.02182 0.82442 0.69383 0.0
H1083 H 0.95172 0.80259 0.69318 0.0
S1084 S 0.03549 0.65808 0.67725 0.0
N1085 N 0.06473 0.6972 0.68079 0.0
N1086 N 0.98915 0.67436 0.67981 0.0
C1087 C 0.99618 0.71349 0.68362 0.0
C1088 C 0.03686 0.72588 0.68411 0.0
C1089 C 0.4701 0.71281 0.93371 0.0
C1090 C 0.51135 0.70662 0.93183 0.0
C1091 C 0.45423 0.75142 0.93339 0.0
C1092 C 0.47917 0.7848 0.93087 0.0
H1093 H 0.4504 0.68776 0.93629 0.0
H1094 H 0.42245 0.75538 0.93568 0.0
S1095 S 0.58859 0.78335 0.92259 0.0
N1096 N 0.57635 0.73584 0.9254 0.0
N1097 N 0.54655 0.80895 0.92473 0.0
C1098 C 0.52016 0.7787 0.92768 0.0
C1099 C 0.53633 0.73937 0.92823 0.0
C1100 C 0.48227 0.76088 0.36448 0.0
C1101 C 0.46278 0.76899 0.34769 0.0
C1102 C 0.52113 0.74528 0.36475 0.0
C1103 C 0.54151 0.73694 0.34825 0.0
H1104 H 0.46753 0.76702 0.37746 0.0
H1105 H 0.53506 0.73904 0.37792 0.0
S1106 S 0.5037 0.75316 0.30075 0.0
N1107 N 0.4665 0.76724 0.31423 0.0
N1108 N 0.54 0.739 0.31475 0.0
C1109 C 0.52246 0.74519 0.3314 0.0
C1110 C 0.48296 0.761 0.33113 0.0
C1111 C 0.51578 0.26987 0.61386 0.0
C1112 C 0.52507 0.29089 0.59761 0.0
C1113 C 0.50103 0.23075 0.61314 0.0
C1114 C 0.49491 0.21155 0.59614 0.0
H1115 H 0.5205 0.28353 0.62721 0.0
H1116 H 0.49393 0.2156 0.62594 0.0
S1117 S 0.51414 0.25395 0.54968 0.0
N1118 N 0.526 0.29022 0.56408 0.0
N1119 N 0.49984 0.21609 0.56276 0.0
C1120 C 0.50405 0.23228 0.57982 0.0
C1121 C 0.51881 0.27211 0.58054 0.0
C1122 C 0.03032 0.27343 0.85018 0.0
C1123 C 0.03583 0.23237 0.85326 0.0
C1124 C 0.99181 0.28972 0.84946 0.0
C1125 C 0.958 0.26545 0.85221 0.0
H1126 H 0.05593 0.29267 0.84787 0.0
H1127 H 0.98833 0.32143 0.84681 0.0
S1128 S 0.9575 0.15646 0.86191 0.0
N1129 N 0.00534 0.16805 0.85975 0.0
N1130 N 0.93262 0.19863 0.85871 0.0
C1131 C 0.96339 0.22449 0.85585 0.0
C1132 C 0.00249 0.20791 0.85627 0.0
C1133 C 0.05098 0.75652 0.09164 0.0
C1134 C 0.02645 0.78559 0.09998 0.0
C1135 C 0.03908 0.7165 0.09084 0.0
C1136 C 0.00254 0.70454 0.09844 0.0
H1137 H 0.07937 0.76487 0.08556 0.0
H1138 H 0.05808 0.69485 0.08403 0.0
S1139 S 0.92769 0.7678 0.12185 0.0
N1140 N 0.96383 0.79908 0.11601 0.0
N1141 N 0.94225 0.72319 0.11477 0.0
C1142 C 0.97821 0.73266 0.1072 0.0
C1143 C 0.99005 0.77346 0.10796 0.0
C1144 C 0.5053 0.79782 0.86185 0.0
C1145 C 0.53745 0.77165 0.86539 0.0
C1146 C 0.46585 0.78409 0.86239 0.0
C1147 C 0.45781 0.74398 0.86646 0.0
H1148 H 0.51079 0.82853 0.85781 0.0
H1149 H 0.44178 0.804 0.85836 0.0
S1150 S 0.52964 0.66545 0.8798 0.0
N1151 N 0.55766 0.70501 0.87542 0.0
N1152 N 0.48297 0.67974 0.87643 0.0
C1153 C 0.48894 0.7186 0.87166 0.0
C1154 C 0.52906 0.73237 0.87118 0.0
C1155 C 0.01251 0.73459 0.5798 0.0
C1156 C 0.02908 0.71713 0.59566 0.0
C1157 C 0.99675 0.77332 0.58032 0.0
C1158 C 0.99734 0.7958 0.59669 0.0
H1159 H 0.01078 0.71776 0.56708 0.0
H1160 H 0.98381 0.78572 0.56787 0.0
S1161 S 0.04031 0.76398 0.64147 0.0
N1162 N 0.04787 0.72555 0.6277 0.0
N1163 N 0.0169 0.79791 0.62898 0.0
C1164 C 0.01484 0.77886 0.6125 0.0
C1165 C 0.03099 0.73955 0.61192 0.0
C1166 C 0.97063 0.28351 0.34766 0.0
C1167 C 0.9611 0.2448 0.35351 0.0
C1168 C 0.01029 0.29664 0.34778 0.0
C1169 C 0.04145 0.2714 0.35382 0.0
H1170 H 0.94741 0.30308 0.34241 0.0
H1171 H 0.01668 0.32655 0.34284 0.0
S1172 S 0.02979 0.16849 0.37244 0.0
N1173 N 0.98394 0.1824 0.36683 0.0
N1174 N 0.05903 0.20672 0.36717 0.0
C1175 C 0.03161 0.2332 0.36065 0.0
C1176 C 0.9912 0.21991 0.36041 0.0
C1177 C 0.53662 0.23933 0.09147 0.0
C1178 C 0.51019 0.20787 0.0958 0.0
C1179 C 0.52385 0.27914 0.0919 0.0
C1180 C 0.48428 0.28848 0.09646 0.0
H1181 H 0.56743 0.23312 0.08785 0.0
H1182 H 0.54461 0.30272 0.08827 0.0
S1183 S 0.40428 0.21821 0.11025 0.0
N1184 N 0.44311 0.18924 0.10565 0.0
N1185 N 0.41936 0.2645 0.10641 0.0
C1186 C 0.45775 0.2577 0.10113 0.0
C1187 C 0.47069 0.21719 0.10082 0.0
C1188 C 0.53606 0.27874 0.67933 0.0
C1189 C 0.54389 0.2385 0.67544 0.0
C1190 C 0.49669 0.29248 0.68031 0.0
C1191 C 0.46447 0.26634 0.67718 0.0
H1192 H 0.56035 0.29878 0.68284 0.0
H1193 H 0.49124 0.3232 0.68431 0.0
S1194 S 0.47087 0.15964 0.66391 0.0
N1195 N 0.51784 0.17378 0.6666 0.0
N1196 N 0.44326 0.19961 0.66813 0.0
C1197 C 0.47232 0.22686 0.67175 0.0
C1198 C 0.51236 0.21287 0.67101 0.0
C1199 C 0.47031 0.74313 0.44846 0.0
C1200 C 0.49368 0.71276 0.4404 0.0
C1201 C 0.48196 0.78321 0.44742 0.0
C1202 C 0.51713 0.79401 0.43824 0.0
H1203 H 0.44294 0.73586 0.45572 0.0
H1204 H 0.46398 0.80587 0.45414 0.0
S1205 S 0.58842 0.72727 0.41445 0.0
N1206 N 0.55357 0.69697 0.42262 0.0
N1207 N 0.57481 0.77285 0.4206 0.0
C1208 C 0.54026 0.76456 0.42971 0.0
C1209 C 0.52862 0.7237 0.43077 0.0
C1210 C 0.03778 0.78208 0.17736 0.0
C1211 C 0.04544 0.74185 0.17337 0.0
C1212 C 0.99843 0.79605 0.17837 0.0
C1213 C 0.96598 0.7701 0.17529 0.0
H1214 H 0.06216 0.8019 0.18099 0.0
H1215 H 0.99323 0.82678 0.18241 0.0
S1216 S 0.97207 0.6635 0.16173 0.0
N1217 N 0.01907 0.67748 0.16433 0.0
N1218 N 0.94462 0.70346 0.1661 0.0
C1219 C 0.97374 0.73065 0.16971 0.0
C1220 C 0.01374 0.71654 0.16883 0.0
C1221 C 0.00258 0.26894 0.92659 0.0
C1222 C 0.01145 0.28909 0.94309 0.0
C1223 C 0.98954 0.22911 0.92682 0.0
C1224 C 0.98463 0.20838 0.94357 0.0
H1225 H 0.00652 0.28381 0.91344 0.0
H1226 H 0.98281 0.21457 0.91386 0.0
S1227 S 0.00319 0.24808 0.99049 0.0
N1228 N 0.01331 0.28587 0.97656 0.0
N1229 N 0.99001 0.21068 0.97697 0.0
C1230 C 0.99321 0.2283 0.96013 0.0
C1231 C 0.00634 0.26875 0.95989 0.0
C1232 C 0.4106 0.05939 0.15848 0.0
C1233 C 0.42241 0.06036 0.13985 0.0
C1234 C 0.37977 0.08434 0.165 0.0
C1235 C 0.35968 0.11085 0.15306 0.0
H1236 H 0.42711 0.04138 0.16832 0.0
H1237 H 0.37372 0.08493 0.17967 0.0
S1238 S 0.37277 0.11703 0.10234 0.0
N1239 N 0.40735 0.0849 0.10912 0.0
N1240 N 0.34907 0.13119 0.12123 0.0
C1241 C 0.36875 0.10918 0.13414 0.0
C1242 C 0.40026 0.08411 0.12756 0.0
C1243 C 0.19057 0.15809 0.40848 0.0
C1244 C 0.18867 0.17656 0.39101 0.0
C1245 C 0.16594 0.12524 0.41289 0.0
C1246 C 0.13881 0.10962 0.39993 0.0
H1247 H 0.2091 0.17078 0.41924 0.0
H1248 H 0.16603 0.11408 0.42693 0.0
S1249 S 0.12926 0.14123 0.35104 0.0
N1250 N 0.16215 0.17267 0.35988 0.0
N1251 N 0.11649 0.11081 0.36804 0.0
C1252 C 0.13954 0.12539 0.38193 0.0
C1253 C 0.16427 0.15891 0.3775 0.0
C1254 C 0.13939 0.91523 0.65768 0.0
C1255 C 0.15057 0.88228 0.64676 0.0
C1256 C 0.10924 0.9419 0.65185 0.0
C1257 C 0.0892 0.93644 0.63494 0.0
H1258 H 0.15202 0.91896 0.67132 0.0
H1259 H 0.09975 0.96526 0.66121 0.0
S1260 S 0.11256 0.85944 0.5998 0.0
N1261 N 0.14298 0.84916 0.6171 0.0
N1262 N 0.08685 0.8992 0.60625 0.0
C1263 C 0.10256 0.90571 0.62327 0.0
C1264 C 0.13311 0.87868 0.62915 0.0
C1265 C 0.31368 0.84161 0.90228 0.0
C1266 C 0.30966 0.83585 0.88317 0.0
C1267 C 0.33901 0.87147 0.90937 0.0
C1268 C 0.36233 0.89562 0.8976 0.0
H1269 H 0.2982 0.82197 0.9118 0.0
H1270 H 0.34241 0.87376 0.92419 0.0
S1271 S 0.3622 0.8927 0.84651 0.0
N1272 N 0.32975 0.85781 0.85261 0.0
N1273 N 0.37883 0.91244 0.86591 0.0
C1274 C 0.35778 0.89078 0.87847 0.0
C1275 C 0.33107 0.86125 0.87126 0.0
C1276 C 0.40838 0.90827 0.41379 0.0
C1277 C 0.41954 0.94187 0.40334 0.0
C1278 C 0.37788 0.88267 0.40792 0.0
C1279 C 0.3577 0.889 0.3911 0.0
H1280 H 0.42468 0.90061 0.42623 0.0
H1281 H 0.37186 0.85625 0.41615 0.0
S1282 S 0.37317 0.97507 0.35948 0.0
N1283 N 0.40582 0.98245 0.37625 0.0
N1284 N 0.34883 0.9336 0.36485 0.0
C1285 C 0.36663 0.92408 0.38111 0.0
C1286 C 0.39754 0.95066 0.38731 0.0
C1287 C 0.34948 0.13381 0.62083 0.0
C1288 C 0.37015 0.11242 0.63456 0.0
C1289 C 0.32696 0.16809 0.62521 0.0
C1290 C 0.32399 0.18215 0.6435 0.0
H1291 H 0.35337 0.12604 0.60644 0.0
H1292 H 0.31373 0.18494 0.61398 0.0
S1293 S 0.36687 0.13179 0.68481 0.0
N1294 N 0.38215 0.10424 0.66731 0.0
N1295 N 0.33957 0.16792 0.67568 0.0
C1296 C 0.34158 0.15857 0.6575 0.0
C1297 C 0.36475 0.12396 0.65298 0.0
C1298 C 0.10302 0.05623 0.88904 0.0
C1299 C 0.08251 0.06331 0.90568 0.0
C1300 C 0.1341 0.08185 0.88314 0.0
C1301 C 0.14593 0.11497 0.89384 0.0
H1302 H 0.09313 0.03257 0.87993 0.0
H1303 H 0.14694 0.07727 0.86959 0.0
S1304 S 0.10603 0.14178 0.94006 0.0
N1305 N 0.07918 0.10282 0.93365 0.0
N1306 N 0.13815 0.14962 0.92314 0.0
C1307 C 0.12796 0.11983 0.91129 0.0
C1308 C 0.09603 0.09442 0.91704 0.0
C1309 C 0.18147 0.86759 0.16388 0.0
C1310 C 0.19395 0.83462 0.15328 0.0
C1311 C 0.15581 0.89691 0.15645 0.0
C1312 C 0.14309 0.89514 0.13798 0.0
H1313 H 0.18906 0.86916 0.17839 0.0
H1314 H 0.14424 0.92 0.16546 0.0
S1315 S 0.16977 0.81678 0.10407 0.0
N1316 N 0.19305 0.80302 0.12315 0.0
N1317 N 0.14663 0.85908 0.10903 0.0
C1318 C 0.15761 0.8639 0.12692 0.0
C1319 C 0.1826 0.83339 0.13461 0.0
C1320 C 0.58275 0.91271 0.89626 0.0
C1321 C 0.57752 0.91226 0.91557 0.0
C1322 C 0.61636 0.89465 0.88795 0.0
C1323 C 0.64585 0.87543 0.89864 0.0
H1324 H 0.55952 0.92467 0.88742 0.0
H1325 H 0.61746 0.89277 0.87305 0.0
S1326 S 0.65006 0.87131 0.94963 0.0
N1327 N 0.60809 0.8955 0.94511 0.0
N1328 N 0.6701 0.86089 0.9294 0.0
C1329 C 0.64264 0.87759 0.91789 0.0
C1330 C 0.60882 0.8962 0.92637 0.0
C1331 C 0.88449 0.8943 0.66526 0.0
C1332 C 0.88066 0.89853 0.64606 0.0
C1333 C 0.86364 0.86455 0.67498 0.0
C1334 C 0.83859 0.837 0.66586 0.0
H1335 H 0.90558 0.91279 0.67274 0.0
H1336 H 0.86938 0.86166 0.68962 0.0
S1337 S 0.8154 0.8379 0.61573 0.0
N1338 N 0.84729 0.87519 0.6184 0.0
N1339 N 0.80845 0.81866 0.63648 0.0
C1340 C 0.83236 0.84271 0.64677 0.0
C1341 C 0.8533 0.8736 0.63691 0.0
C1342 C 0.88211 0.13111 0.40544 0.0
C1343 C 0.85975 0.12424 0.38927 0.0
C1344 C 0.91381 0.106 0.41059 0.0
C1345 C 0.92445 0.0725 0.39995 0.0
H1346 H 0.87642 0.15729 0.41381 0.0
H1347 H 0.93092 0.11371 0.42276 0.0
S1348 S 0.87333 0.03875 0.35729 0.0
N1349 N 0.84888 0.07966 0.3633 0.0
N1350 N 0.90819 0.03205 0.37316 0.0
C1351 C 0.90082 0.06367 0.38439 0.0
C1352 C 0.86857 0.08959 0.37902 0.0
C1353 C 0.69088 0.15276 0.13272 0.0
C1354 C 0.68593 0.17347 0.14948 0.0
C1355 C 0.66419 0.12227 0.12742 0.0
C1356 C 0.63165 0.11142 0.13871 0.0
H1357 H 0.71397 0.16181 0.12309 0.0
H1358 H 0.66763 0.10895 0.11391 0.0
S1359 S 0.60986 0.15137 0.18541 0.0
N1360 N 0.64935 0.17689 0.17842 0.0
N1361 N 0.59924 0.12023 0.16848 0.0
C1362 C 0.6284 0.12968 0.15613 0.0
C1363 C 0.6555 0.16052 0.16151 0.0
C1364 C 0.63016 0.12458 0.63123 0.0
C1365 C 0.65173 0.11858 0.64772 0.0
C1366 C 0.59726 0.10059 0.62659 0.0
C1367 C 0.58462 0.06896 0.63803 0.0
H1368 H 0.63726 0.14949 0.62222 0.0
H1369 H 0.58078 0.10777 0.61414 0.0
S1370 S 0.63305 0.03761 0.68179 0.0
N1371 N 0.65968 0.07649 0.67487 0.0
N1372 N 0.59827 0.03086 0.66592 0.0
C1373 C 0.60749 0.06073 0.65391 0.0
C1374 C 0.6409 0.0856 0.65879 0.0
C1375 C 0.65073 0.84156 0.37519 0.0
C1376 C 0.68527 0.8316 0.38523 0.0
C1377 C 0.62582 0.873 0.38065 0.0
C1378 C 0.63375 0.89545 0.39667 0.0
H1379 H 0.64205 0.82396 0.36331 0.0
H1380 H 0.59884 0.8782 0.37271 0.0
S1381 S 0.7223 0.88321 0.42705 0.0
N1382 N 0.72809 0.84841 0.41112 0.0
N1383 N 0.68051 0.90713 0.4218 0.0
C1384 C 0.66948 0.88731 0.40629 0.0
C1385 C 0.69538 0.85544 0.40048 0.0
C1386 C 0.88038 0.87199 0.13128 0.0
C1387 C 0.8569 0.8814 0.14683 0.0
C1388 C 0.91292 0.89578 0.12601 0.0
C1389 C 0.92276 0.93079 0.13566 0.0
H1390 H 0.87512 0.84471 0.12363 0.0
H1391 H 0.93124 0.88601 0.11454 0.0
S1392 S 0.86854 0.97182 0.17598 0.0
N1393 N 0.84427 0.93012 0.17104 0.0
N1394 N 0.90472 0.97577 0.16054 0.0
C1395 C 0.89796 0.94239 0.15037 0.0
C1396 C 0.86517 0.91753 0.15607 0.0
C1397 C 0.88167 0.15192 0.9023 0.0
C1398 C 0.86977 0.1117 0.90249 0.0
C1399 C 0.85609 0.18206 0.89618 0.0
C1400 C 0.81748 0.17357 0.88947 0.0
H1401 H 0.91139 0.16035 0.90684 0.0
H1402 H 0.86708 0.21246 0.8967 0.0
S1403 S 0.77089 0.07277 0.88808 0.0
N1404 N 0.81611 0.06453 0.89655 0.0
N1405 N 0.76771 0.12153 0.88439 0.0
C1406 C 0.80443 0.13344 0.89019 0.0
C1407 C 0.83068 0.10242 0.8968 0.0
C1408 C 0.90515 0.56862 0.65187 0.0
C1409 C 0.92817 0.57909 0.6363 0.0
C1410 C 0.87409 0.59364 0.65824 0.0
C1411 C 0.86464 0.62976 0.64915 0.0
H1412 H 0.9126 0.5421 0.65976 0.0
H1413 H 0.85872 0.58555 0.67086 0.0
S1414 S 0.91243 0.66759 0.60614 0.0
N1415 N 0.93669 0.62585 0.61092 0.0
N1416 N 0.87847 0.67223 0.62252 0.0
C1417 C 0.88576 0.63895 0.63281 0.0
C1418 C 0.91747 0.61383 0.62651 0.0
C1419 C 0.6593 0.61285 0.90967 0.0
C1420 C 0.62963 0.6008 0.89703 0.0
C1421 C 0.68595 0.64424 0.90549 0.0
C1422 C 0.68365 0.66501 0.88861 0.0
H1423 H 0.66032 0.59977 0.92334 0.0
H1424 H 0.70672 0.65398 0.91603 0.0
S1425 S 0.61712 0.63976 0.8494 0.0
N1426 N 0.60416 0.60789 0.86579 0.0
N1427 N 0.65312 0.66759 0.85824 0.0
C1428 C 0.6562 0.65126 0.87537 0.0
C1429 C 0.62956 0.61895 0.87949 0.0
C1430 C 0.63789 0.41701 0.15527 0.0
C1431 C 0.65041 0.38435 0.14448 0.0
C1432 C 0.60671 0.44231 0.14931 0.0
C1433 C 0.58691 0.43553 0.13246 0.0
H1434 H 0.65017 0.42136 0.16894 0.0
H1435 H 0.59617 0.46543 0.15857 0.0
S1436 S 0.61378 0.35925 0.09757 0.0
N1437 N 0.64472 0.3507 0.11488 0.0
N1438 N 0.58594 0.3976 0.10396 0.0
C1439 C 0.60151 0.4052 0.12091 0.0
C1440 C 0.63336 0.37982 0.12685 0.0
C1441 C 0.84164 0.35044 0.3751 0.0
C1442 C 0.80947 0.3374 0.38603 0.0
C1443 C 0.86681 0.38137 0.38092 0.0
C1444 C 0.86149 0.40008 0.39815 0.0
H1445 H 0.84861 0.33531 0.36229 0.0
H1446 H 0.89229 0.38875 0.37232 0.0
S1447 S 0.77882 0.37978 0.43105 0.0
N1448 N 0.77096 0.34805 0.41399 0.0
N1449 N 0.819 0.40577 0.42527 0.0
C1450 C 0.82759 0.38939 0.40861 0.0
C1451 C 0.80145 0.35807 0.40249 0.0
C1452 C 0.86327 0.4173 0.8812 0.0
C1453 C 0.85003 0.38526 0.89228 0.0
C1454 C 0.89502 0.44214 0.88694 0.0
C1455 C 0.9148 0.43536 0.90383 0.0
H1456 H 0.8511 0.42145 0.86749 0.0
H1457 H 0.90599 0.46485 0.87754 0.0
S1458 S 0.8871 0.36022 0.93926 0.0
N1459 N 0.8555 0.35224 0.92216 0.0
N1460 N 0.91554 0.39785 0.9325 0.0
C1461 C 0.89972 0.4056 0.91559 0.0
C1462 C 0.86718 0.38089 0.90995 0.0
C1463 C 0.85661 0.63226 0.12163 0.0
C1464 C 0.87736 0.61171 0.13559 0.0
C1465 C 0.83316 0.66612 0.12566 0.0
C1466 C 0.82928 0.68062 0.14384 0.0
H1467 H 0.86082 0.62398 0.10732 0.0
H1468 H 0.8197 0.68219 0.11426 0.0
S1469 S 0.87269 0.63286 0.18567 0.0
N1470 N 0.88897 0.60505 0.16845 0.0
N1471 N 0.84474 0.66804 0.17617 0.0
C1472 C 0.84738 0.65812 0.15807 0.0
C1473 C 0.87149 0.62389 0.1539 0.0
C1474 C 0.60416 0.55875 0.38544 0.0
C1475 C 0.58716 0.5625 0.40313 0.0
C1476 C 0.63533 0.58428 0.37963 0.0
C1477 C 0.65064 0.61404 0.39141 0.0
H1478 H 0.5913 0.53816 0.37557 0.0
H1479 H 0.64521 0.58274 0.36542 0.0
S1480 S 0.62221 0.62982 0.44034 0.0
N1481 N 0.59189 0.59415 0.43315 0.0
N1482 N 0.6509 0.641 0.42252 0.0
C1483 C 0.63657 0.6151 0.40969 0.0
C1484 C 0.60465 0.58968 0.41547 0.0
C1485 C 0.69129 0.34166 0.63613 0.0
C1486 C 0.69732 0.33629 0.65518 0.0
C1487 C 0.6666 0.37252 0.62937 0.0
C1488 C 0.64606 0.39815 0.64149 0.0
H1489 H 0.70424 0.32069 0.62644 0.0
H1490 H 0.66094 0.37413 0.61467 0.0
S1491 S 0.65302 0.39743 0.6925 0.0
N1492 N 0.68278 0.36061 0.68595 0.0
N1493 N 0.63486 0.41723 0.67334 0.0
C1494 C 0.65319 0.39405 0.6605 0.0
C1495 C 0.6792 0.36343 0.66733 0.0
C1496 C 0.09167 0.43951 0.38871 0.0
C1497 C 0.08035 0.43853 0.40739 0.0
C1498 C 0.12278 0.41498 0.38204 0.0
C1499 C 0.14289 0.38809 0.39381 0.0
H1500 H 0.07502 0.4578 0.37903 0.0
H1501 H 0.12903 0.41495 0.36738 0.0
S1502 S 0.12659 0.37681 0.44415 0.0
N1503 N 0.09371 0.41102 0.43774 0.0
N1504 N 0.1512 0.36434 0.42527 0.0
C1505 C 0.1331 0.38848 0.41267 0.0
C1506 C 0.10199 0.41379 0.41945 0.0
C1507 C 0.38184 0.38709 0.16373 0.0
C1508 C 0.3797 0.38925 0.1444 0.0
C1509 C 0.36319 0.35608 0.17357 0.0
C1510 C 0.34229 0.32523 0.16448 0.0
H1511 H 0.40006 0.40833 0.17125 0.0
H1512 H 0.36736 0.35512 0.18837 0.0
S1513 S 0.32577 0.31881 0.11388 0.0
N1514 N 0.35283 0.35975 0.11652 0.0
N1515 N 0.31828 0.30086 0.13484 0.0
C1516 C 0.33788 0.32847 0.14516 0.0
C1517 C 0.35648 0.36059 0.13517 0.0
C1518 C 0.36223 0.58807 0.87731 0.0
C1519 C 0.34788 0.61662 0.88998 0.0
C1520 C 0.39444 0.56259 0.88176 0.0
C1521 C 0.41383 0.56499 0.89896 0.0
H1522 H 0.35017 0.58696 0.86346 0.0
H1523 H 0.40576 0.54262 0.87123 0.0
S1524 S 0.38325 0.62905 0.93819 0.0
N1525 N 0.35215 0.64144 0.92144 0.0
N1526 N 0.41291 0.59432 0.92954 0.0
C1527 C 0.39795 0.59127 0.91218 0.0
C1528 C 0.36491 0.61679 0.90777 0.0
C1529 C 0.19897 0.65643 0.63256 0.0
C1530 C 0.19795 0.66931 0.65103 0.0
C1531 C 0.17298 0.62615 0.62626 0.0
C1532 C 0.14542 0.60785 0.63831 0.0
H1533 H 0.21769 0.6719 0.62264 0.0
H1534 H 0.17222 0.61947 0.61166 0.0
S1535 S 0.13744 0.62496 0.68869 0.0
N1536 N 0.17143 0.65747 0.68169 0.0
N1537 N 0.12348 0.60027 0.67007 0.0
C1538 C 0.14706 0.61789 0.65711 0.0
C1539 C 0.17304 0.6488 0.66342 0.0
C1540 C 0.14214 0.58651 0.16142 0.0
C1541 C 0.15602 0.61603 0.14904 0.0
C1542 C 0.11003 0.56103 0.15678 0.0
C1543 C 0.0903 0.56443 0.13968 0.0
H1544 H 0.15447 0.58463 0.1752 0.0
H1545 H 0.099 0.54032 0.16711 0.0
S1546 S 0.11894 0.63229 0.10129 0.0
N1547 N 0.15055 0.64333 0.118 0.0
N1548 N 0.09014 0.5964 0.10956 0.0
C1549 C 0.10573 0.59184 0.12675 0.0
C1550 C 0.13861 0.6173 0.13134 0.0
C1551 C 0.11964 0.36913 0.88104 0.0
C1552 C 0.12812 0.39209 0.89683 0.0
C1553 C 0.14556 0.33898 0.87507 0.0
C1554 C 0.18152 0.33084 0.88439 0.0
H1555 H 0.09158 0.3728 0.87375 0.0
H1556 H 0.13648 0.32071 0.86348 0.0
S1557 S 0.22047 0.38513 0.92509 0.0
N1558 N 0.177 0.4068 0.92074 0.0
N1559 N 0.22624 0.35029 0.90918 0.0
C1560 C 0.1921 0.35546 0.89929 0.0
C1561 C 0.16529 0.38608 0.90559 0.0
C1562 C 0.41814 0.39547 0.62885 0.0
C1563 C 0.42756 0.43084 0.63836 0.0
C1564 C 0.38543 0.37166 0.63398 0.0
C1565 C 0.36092 0.38159 0.64913 0.0
H1566 H 0.43679 0.38553 0.61752 0.0
H1567 H 0.38068 0.34409 0.62647 0.0
S1568 S 0.37118 0.47264 0.67796 0.0
N1569 N 0.40818 0.4762 0.66292 0.0
N1570 N 0.34719 0.43083 0.67295 0.0
C1571 C 0.36891 0.41785 0.6583 0.0
C1572 C 0.40205 0.44258 0.65283 0.0
C1573 C 0.35614 0.66519 0.37881 0.0
C1574 C 0.32206 0.67594 0.38906 0.0
C1575 C 0.38199 0.6348 0.38477 0.0
C1576 C 0.37529 0.61383 0.40137 0.0
H1577 H 0.36378 0.68138 0.36633 0.0
H1578 H 0.40853 0.62901 0.37661 0.0
S1579 S 0.28848 0.6279 0.43261 0.0
N1580 N 0.28126 0.66105 0.41599 0.0
N1581 N 0.33025 0.60407 0.42732 0.0
C1582 C 0.34007 0.62254 0.41124 0.0
C1583 C 0.3134 0.65352 0.40506 0.0
C1584 C 0.12506 0.09807 0.13316 0.0
C1585 C 0.11001 0.07649 0.14835 0.0
C1586 C 0.15445 0.12772 0.13535 0.0
C1587 C 0.17027 0.13695 0.15283 0.0
H1588 H 0.11407 0.09186 0.11942 0.0
H1589 H 0.16558 0.14281 0.12317 0.0
S1590 S 0.14062 0.08999 0.19721 0.0
N1591 N 0.11345 0.06662 0.18158 0.0
N1592 N 0.16738 0.12324 0.18573 0.0
C1593 C 0.155 0.11615 0.16819 0.0
C1594 C 0.12518 0.08581 0.16596 0.0
C1595 C 0.14134 0.86163 0.40427 0.0
C1596 C 0.17401 0.86533 0.39208 0.0
C1597 C 0.11144 0.89124 0.40522 0.0
C1598 C 0.11302 0.92535 0.39388 0.0
H1599 H 0.13892 0.8356 0.41312 0.0
H1600 H 0.08678 0.88741 0.41474 0.0
S1601 S 0.19436 0.95227 0.36142 0.0
N1602 N 0.20772 0.90826 0.36977 0.0
N1603 N 0.15107 0.96288 0.37123 0.0
C1604 C 0.14573 0.92984 0.38191 0.0
C1605 C 0.17632 0.90008 0.38107 0.0
C1606 C 0.36665 0.86236 0.65497 0.0
C1607 C 0.33448 0.86095 0.64253 0.0
C1608 C 0.39559 0.89285 0.65389 0.0
C1609 C 0.39313 0.92339 0.64048 0.0
H1610 H 0.3694 0.83964 0.66557 0.0
H1611 H 0.42001 0.89265 0.6637 0.0
S1612 S 0.31149 0.9353 0.60607 0.0
N1613 N 0.30027 0.8936 0.61715 0.0
N1614 N 0.35349 0.95151 0.6154 0.0
C1615 C 0.36047 0.92253 0.62816 0.0
C1616 C 0.33142 0.8912 0.62914 0.0
C1617 C 0.32289 0.10509 0.89029 0.0
C1618 C 0.33095 0.14559 0.89402 0.0
C1619 C 0.35222 0.0756 0.89286 0.0
C1620 C 0.3909 0.08557 0.89892 0.0
H1621 H 0.2934 0.09602 0.88575 0.0
H1622 H 0.34469 0.04472 0.89 0.0
S1623 S 0.42731 0.18724 0.91039 0.0
N1624 N 0.38031 0.19417 0.90403 0.0
N1625 N 0.43576 0.13867 0.90859 0.0
C1626 C 0.39955 0.12596 0.90247 0.0
C1627 C 0.36944 0.15597 0.90014 0.0
C1628 C 0.88007 0.90005 0.91112 0.0
C1629 C 0.89664 0.91701 0.89505 0.0
C1630 C 0.8511 0.86983 0.91032 0.0
C1631 C 0.83757 0.85427 0.89338 0.0
H1632 H 0.88915 0.91047 0.92459 0.0
H1633 H 0.8386 0.85951 0.92322 0.0
S1634 S 0.87378 0.88513 0.84703 0.0
N1635 N 0.89791 0.91464 0.86144 0.0
N1636 N 0.84589 0.85578 0.86007 0.0
C1637 C 0.85521 0.86948 0.87715 0.0
C1638 C 0.88417 0.90113 0.87794 0.0
C1639 C 0.91235 0.12314 0.6473 0.0
C1640 C 0.90198 0.08389 0.64234 0.0
C1641 C 0.88285 0.15284 0.64919 0.0
C1642 C 0.84212 0.14374 0.64672 0.0
H1643 H 0.9434 0.13074 0.64971 0.0
H1644 H 0.89171 0.18282 0.65307 0.0
S1645 S 0.79982 0.04527 0.63374 0.0
N1646 N 0.84859 0.03748 0.63488 0.0
N1647 N 0.79309 0.09298 0.6388 0.0
C1648 C 0.83151 0.10457 0.64176 0.0
C1649 C 0.8615 0.07468 0.63948 0.0
C1650 C 0.62383 0.10264 0.40833 0.0
C1651 C 0.6064 0.08614 0.39239 0.0
C1652 C 0.65325 0.13242 0.40726 0.0
C1653 C 0.6664 0.14768 0.39018 0.0
H1654 H 0.61503 0.09218 0.42187 0.0
H1655 H 0.66647 0.14266 0.42001 0.0
S1656 S 0.62828 0.11747 0.34416 0.0
N1657 N 0.60405 0.08843 0.35881 0.0
N1658 N 0.65709 0.14633 0.35693 0.0
C1659 C 0.64802 0.13282 0.37411 0.0
C1660 C 0.61855 0.10176 0.37517 0.0
C1661 C 0.62854 0.85602 0.15698 0.0
C1662 C 0.66533 0.8562 0.14753 0.0
C1663 C 0.60108 0.8875 0.15489 0.0
C1664 C 0.60908 0.91994 0.14306 0.0
H1665 H 0.62166 0.83221 0.16661 0.0
H1666 H 0.57359 0.88686 0.1628 0.0
S1667 S 0.70029 0.93358 0.11453 0.0
N1668 N 0.70753 0.8906 0.12531 0.0
N1669 N 0.65617 0.94989 0.12151 0.0
C1670 C 0.64519 0.91983 0.13309 0.0
C1671 C 0.67326 0.88795 0.13532 0.0
C1672 C 0.63054 0.58985 0.66341 0.0
C1673 C 0.61144 0.5821 0.64647 0.0
C1674 C 0.65946 0.62011 0.6651 0.0
C1675 C 0.67055 0.64413 0.64996 0.0
H1676 H 0.62386 0.57177 0.67542 0.0
H1677 H 0.6733 0.6247 0.67842 0.0
S1678 S 0.62891 0.63674 0.60259 0.0
N1679 N 0.60478 0.60198 0.61437 0.0
N1680 N 0.65993 0.65788 0.61736 0.0
C1681 C 0.65134 0.63705 0.63297 0.0
C1682 C 0.62174 0.60627 0.63127 0.0
C1683 C 0.66574 0.39072 0.88193 0.0
C1684 C 0.66418 0.35577 0.89286 0.0
C1685 C 0.63559 0.41973 0.88276 0.0
C1686 C 0.60287 0.41546 0.89473 0.0
H1687 H 0.69079 0.39632 0.87285 0.0
H1688 H 0.63818 0.44615 0.87416 0.0
S1689 S 0.58311 0.32996 0.9259 0.0
N1690 N 0.62572 0.31834 0.91565 0.0
N1691 N 0.56992 0.37412 0.9176 0.0
C1692 C 0.60077 0.38119 0.90586 0.0
C1693 C 0.63119 0.35109 0.90483 0.0
C1694 C 0.86891 0.42045 0.15915 0.0
C1695 C 0.89914 0.42056 0.14565 0.0
C1696 C 0.83937 0.39064 0.1595 0.0
C1697 C 0.83903 0.35944 0.14645 0.0
H1698 H 0.86724 0.44441 0.16914 0.0
H1699 H 0.81587 0.39302 0.1697 0.0
S1700 S 0.91454 0.34386 0.10956 0.0
N1701 N 0.92869 0.38572 0.11972 0.0
N1702 N 0.87392 0.32893 0.12059 0.0
C1703 C 0.87009 0.35846 0.1333 0.0
C1704 C 0.89991 0.38917 0.13284 0.0
C1705 C 0.87268 0.6547 0.3963 0.0
C1706 C 0.83232 0.6445 0.39352 0.0
C1707 C 0.90222 0.62486 0.39796 0.0
C1708 C 0.892 0.58406 0.39734 0.0
H1709 H 0.88133 0.68588 0.39702 0.0
H1710 H 0.93307 0.63359 0.4001 0.0
S1711 S 0.79045 0.5421 0.39048 0.0
N1712 N 0.78371 0.59106 0.3902 0.0
N1713 N 0.83892 0.53514 0.3936 0.0
C1714 C 0.85172 0.57365 0.39463 0.0
C1715 C 0.82192 0.60386 0.39265 0.0
C1716 C 0.33649 0.39575 0.3815 0.0
C1717 C 0.33428 0.36513 0.39485 0.0
C1718 C 0.36667 0.42489 0.38211 0.0
C1719 C 0.39562 0.42483 0.39618 0.0
H1720 H 0.31395 0.39821 0.37085 0.0
H1721 H 0.3665 0.44851 0.37187 0.0
S1722 S 0.40626 0.3491 0.4332 0.0
N1723 N 0.3663 0.33467 0.42157 0.0
N1724 N 0.42217 0.39031 0.42294 0.0
C1725 C 0.39461 0.39391 0.40927 0.0
C1726 C 0.36421 0.36386 0.40855 0.0
C1727 C 0.36314 0.57558 0.13758 0.0
C1728 C 0.40274 0.5794 0.14391 0.0
C1729 C 0.33496 0.60607 0.14049 0.0
C1730 C 0.34564 0.64173 0.14949 0.0
H1731 H 0.35363 0.54834 0.13081 0.0
H1732 H 0.3046 0.60184 0.13565 0.0
S1733 S 0.44565 0.66668 0.1683 0.0
N1734 N 0.45129 0.62157 0.15938 0.0
N1735 N 0.3985 0.67924 0.16456 0.0
C1736 C 0.3853 0.64622 0.15555 0.0
C1737 C 0.41378 0.61491 0.15286 0.0
C1738 C 0.11923 0.64656 0.88496 0.0
C1739 C 0.15955 0.64072 0.88982 0.0
C1740 C 0.09093 0.61583 0.88724 0.0
C1741 C 0.10188 0.57876 0.89493 0.0
H1742 H 0.10983 0.67471 0.87893 0.0
H1743 H 0.06028 0.62097 0.883 0.0
S1744 S 0.20342 0.54898 0.91034 0.0
N1745 N 0.20884 0.59542 0.9029 0.0
N1746 N 0.15567 0.53795 0.9074 0.0
C1747 C 0.14195 0.57287 0.90015 0.0
C1748 C 0.1708 0.6038 0.89753 0.0
C1749 C 0.1284 0.36208 0.65735 0.0
C1750 C 0.16704 0.36425 0.64964 0.0
C1751 C 0.10079 0.39341 0.65507 0.0
C1752 C 0.11062 0.42772 0.64478 0.0
H1753 H 0.11982 0.33646 0.66561 0.0
H1754 H 0.07154 0.3909 0.66139 0.0
S1755 S 0.20768 0.44796 0.62166 0.0
N1756 N 0.21331 0.40323 0.63101 0.0
N1757 N 0.16191 0.46233 0.62708 0.0
C1758 C 0.14901 0.4301 0.63687 0.0
C1759 C 0.17709 0.39833 0.63923 0.0
C1760 C 0.23295 0.22222 0.266 0.0
C1761 C 0.25726 0.24442 0.25391 0.0
C1762 C 0.22969 0.2324 0.28473 0.0
C1763 C 0.251 0.26496 0.29228 0.0
H1764 H 0.2161 0.19686 0.26091 0.0
H1765 H 0.20997 0.21471 0.29335 0.0
S1766 S 0.32117 0.33084 0.26664 0.0
N1767 N 0.30421 0.29954 0.25089 0.0
N1768 N 0.29879 0.31819 0.2861 0.0
C1769 C 0.27571 0.2872 0.28032 0.0
C1770 C 0.2787 0.27703 0.26118 0.0
C1771 C 0.01908 0.9747 0.52907 0.0
C1772 C 0.99003 0.99867 0.5378 0.0
C1773 C 0.02734 0.9786 0.51014 0.0
C1774 C 0.00696 0.00673 0.49912 0.0
H1775 H 0.03538 0.95242 0.53693 0.0
H1776 H 0.04965 0.95916 0.50406 0.0
S1777 S 0.93053 0.07912 0.51568 0.0
N1778 N 0.94218 0.05272 0.53419 0.0
N1779 N 0.95803 0.06076 0.49877 0.0
C1780 C 0.97818 0.03129 0.50778 0.0
C1781 C 0.96962 0.02708 0.52704 0.0
C1782 C 0.22871 0.7467 0.77973 0.0
C1783 C 0.26674 0.74942 0.78802 0.0
C1784 C 0.22341 0.75396 0.76079 0.0
C1785 C 0.25582 0.76467 0.7494 0.0
H1786 H 0.20269 0.73925 0.78796 0.0
H1787 H 0.19365 0.75137 0.75499 0.0
S1788 S 0.36184 0.77302 0.76362 0.0
N1789 N 0.33789 0.76105 0.78277 0.0
N1790 N 0.32725 0.77615 0.74742 0.0
C1791 C 0.29391 0.7674 0.75737 0.0
C1792 C 0.29954 0.75942 0.77659 0.0
C1793 C 0.46749 0.01788 1.01248 0.0
C1794 C 0.48983 0.99329 1.00064 0.0
C1795 C 0.47699 0.02087 0.03128 0.0
C1796 C 0.50882 0.99886 0.03913 0.0
H1797 H 0.44263 0.03518 1.00712 0.0
H1798 H 0.45936 0.04098 0.0397 0.0
S1799 S 0.57458 0.92775 1.01407 0.0
N1800 N 0.54426 0.94549 0.99804 0.0
N1801 N 0.56144 0.95006 0.03345 0.0
C1802 C 0.53111 0.97376 0.02739 0.0
C1803 C 0.52173 0.97119 1.00818 0.0
C1804 C 0.28584 0.75338 0.27745 0.0
C1805 C 0.25422 0.76467 0.28915 0.0
C1806 C 0.27934 0.74572 0.25862 0.0
C1807 C 0.24083 0.74856 0.25077 0.0
H1808 H 0.31594 0.75084 0.28288 0.0
H1809 H 0.30482 0.73797 0.25012 0.0
S1810 S 0.1474 0.77329 0.27626 0.0
N1811 N 0.183 0.77663 0.29197 0.0
N1812 N 0.17009 0.76065 0.25689 0.0
C1813 C 0.2088 0.75893 0.26258 0.0
C1814 C 0.21566 0.76736 0.28166 0.0
C1815 C 0.48932 0.97421 0.52843 0.0
C1816 C 0.50262 0.00822 0.53798 0.0
C1817 C 0.49638 0.96982 0.50946 0.0
C1818 C 0.51665 0.99945 0.49917 0.0
H1819 H 0.47357 0.95066 0.53571 0.0
H1820 H 0.48597 0.94277 0.5028 0.0
S1821 S 0.55528 0.09548 0.51752 0.0
N1822 N 0.53583 0.07276 0.53567 0.0
N1823 N 0.54864 0.06471 0.5 0.0
C1824 C 0.52997 0.03371 0.50857 0.0
C1825 C 0.52299 0.03807 0.52794 0.0
C1826 C 0.22112 0.26638 0.75962 0.0
C1827 C 0.25915 0.25995 0.75187 0.0
C1828 C 0.21344 0.25741 0.77822 0.0
C1829 C 0.24349 0.24167 0.78982 0.0
H1830 H 0.1969 0.2777 0.75116 0.0
H1831 H 0.18355 0.26241 0.78353 0.0
S1832 S 0.34905 0.22285 0.77676 0.0
N1833 N 0.32794 0.23941 0.75763 0.0
N1834 N 0.31324 0.22222 0.79245 0.0
C1835 C 0.28176 0.23573 0.78233 0.0
C1836 C 0.28967 0.24502 0.76343 0.0
C1837 C 0.98793 0.96358 0.0299 0.0
C1838 C 0.00381 0.99499 0.04067 0.0
C1839 C 0.9798 0.96857 1.01101 0.0
C1840 C 0.98761 0.00504 1.00206 0.0
H1841 H 0.98236 0.93454 0.03604 0.0
H1842 H 0.96825 0.94342 1.00326 0.0
S1843 S 0.02574 0.09773 0.02401 0.0
N1844 N 0.02446 0.0647 0.04098 0.0
N1845 N 0.00984 0.07385 1.0055 0.0
C1846 C 0.00276 0.0369 1.01266 0.0
C1847 C 0.01079 0.03192 0.03191 0.0
C1848 C 0.76735 0.77577 0.7611 0.0
C1849 C 0.74852 0.74225 0.75315 0.0
C1850 C 0.76344 0.78437 0.78001 0.0
C1851 C 0.74044 0.75985 0.79175 0.0
H1852 H 0.78605 0.79504 0.75271 0.0
H1853 H 0.77922 0.80999 0.78552 0.0
S1854 S 0.6813 0.67112 0.7773 0.0
N1855 N 0.70382 0.68608 0.75822 0.0
N1856 N 0.69578 0.70243 0.79356 0.0
C1857 C 0.72047 0.72692 0.78381 0.0
C1858 C 0.72469 0.71807 0.7646 0.0
C1859 C 0.7265 0.23754 0.25765 0.0
C1860 C 0.75277 0.26374 0.24837 0.0
C1861 C 0.73057 0.22965 0.27662 0.0
C1862 C 0.76115 0.24759 0.28708 0.0
H1863 H 0.70214 0.22349 0.25024 0.0
H1864 H 0.70918 0.20989 0.2832 0.0
S1865 S 0.84038 0.31503 0.26885 0.0
N1866 N 0.81185 0.30555 0.25079 0.0
N1867 N 0.82018 0.29029 0.28625 0.0
C1868 C 0.78827 0.27302 0.2778 0.0
C1869 C 0.78389 0.28124 0.25854 0.0
C1870 C 0.73464 0.21842 0.76276 0.0
C1871 C 0.74534 0.24707 0.74941 0.0
C1872 C 0.73926 0.22612 0.7817 0.0
C1873 C 0.75515 0.26267 0.78811 0.0
H1874 H 0.72186 0.1901 0.75853 0.0
H1875 H 0.72995 0.2033 0.79142 0.0
S1876 S 0.79097 0.34617 0.75844 0.0
N1877 N 0.7739 0.31266 0.74372 0.0
N1878 N 0.78403 0.32674 0.77915 0.0
C1879 C 0.76668 0.29125 0.77477 0.0
C1880 C 0.76146 0.28354 0.75551 0.0
C1881 C 0.74269 0.72606 0.25709 0.0
C1882 C 0.75905 0.76261 0.25103 0.0
C1883 C 0.73737 0.7179 0.27593 0.0
C1884 C 0.74849 0.74585 0.2895 0.0
H1885 H 0.73374 0.70362 0.24715 0.0
H1886 H 0.72381 0.68972 0.27988 0.0
S1887 S 0.79591 0.84463 0.28086 0.0
N1888 N 0.78819 0.82614 0.26007 0.0
N1889 N 0.77877 0.81074 0.29547 0.0
C1890 C 0.76549 0.78229 0.2836 0.0
C1891 C 0.77061 0.79068 0.2644 0.0
C1892 C 0.50737 0.5253 0.02966 0.0
C1893 C 0.48038 0.4965 0.0365 0.0
C1894 C 0.51617 0.52811 1.01075 0.0
C1895 C 0.49852 0.50214 0.99781 0.0
H1896 H 0.52198 0.5458 0.03904 0.0
H1897 H 0.53687 0.55106 1.00622 0.0
S1898 S 0.42756 0.41992 1.00864 0.0
N1899 N 0.43704 0.44058 0.02883 0.0
N1900 N 0.45363 0.44577 0.99336 0.0
C1901 C 0.47141 0.47322 1.00445 0.0
C1902 C 0.46235 0.47044 0.02373 0.0
C1903 C 0.97566 0.48872 0.53322 0.0
C1904 C 0.01237 0.50565 0.5388 0.0
C1905 C 0.96647 0.48317 0.5145 0.0
C1906 C 0.99374 0.49406 0.50061 0.0
H1907 H 0.95389 0.47939 0.54343 0.0
H1908 H 0.93816 0.4695 0.51088 0.0
S1909 S 0.09251 0.5422 0.50749 0.0
N1910 N 0.07503 0.53555 0.52857 0.0
N1911 N 0.05813 0.5239 0.4935 0.0
C1912 C 0.03032 0.51126 0.50589 0.0
C1913 C 0.03956 0.51731 0.52493 0.0
C1914 C 0.03287 0.51926 1.01169 0.0
C1915 C 0.01518 0.48809 1.00156 0.0
C1916 C 0.02693 0.52261 0.03083 0.0
C1917 C 0.00322 0.49483 0.04061 0.0
H1918 H 0.0507 0.54173 1.00472 0.0
H1919 H 0.04028 0.54774 0.03794 0.0
S1920 S 0.95427 0.40503 0.02089 0.0
N1921 N 0.97569 0.42703 1.00303 0.0
N1922 N 0.96454 0.43345 0.03887 0.0
C1923 C 0.98637 0.46288 0.03072 0.0
C1924 C 0.99239 0.45947 1.01127 0.0
C1925 C 0.52837 0.48073 0.50866 0.0
C1926 C 0.49505 0.50277 0.50233 0.0
C1927 C 0.53721 0.47738 0.52758 0.0
C1928 C 0.51302 0.49577 0.541 0.0
H1929 H 0.54775 0.4657 0.49891 0.0
H1930 H 0.56276 0.45958 0.53174 0.0
S1931 S 0.42415 0.55936 0.5319 0.0
N1932 N 0.43918 0.54527 0.51122 0.0
N1933 N 0.45533 0.53819 0.54665 0.0
C1934 C 0.47985 0.51814 0.53491 0.0
C1935 C 0.47097 0.52179 0.51566 0.0
loop_
_geom_bond_atom_site_label_1
_geom_bond_atom_site_label_2
_geom_bond_distance
_geom_bond_site_symmetry_2
_ccdc_geom_bond_type
Co0 N4 2.148 . S
Co0 N10 2.128 . S
Co0 N20 2.194 . S
Co0 O25 2.351 . S
Co0 O26 2.155 . S
Co0 O27 2.096 . S
C1 N4 1.301 . S
C1 N5 1.328 . S
C1 H6 0.930 . S
C2 C3 1.333 . S
C2 N4 1.317 . S
C2 H7 0.930 . S
C3 C2 1.333 . S
C3 N5 1.350 . S
C3 H29 0.931 . S
N4 Co0 2.148 . S
N4 C1 1.301 . S
N4 C2 1.317 . S
N5 C1 1.328 . S
N5 C3 1.350 . S
H6 C1 0.930 . S
H7 C2 0.930 . S
C8 O9 1.224 . S
C8 O27 1.247 . S
O9 C8 1.224 . S
N10 Co0 2.128 . S
N10 C11 1.355 . S
N10 C13 1.311 . S
C11 N10 1.355 . S
C11 C12 1.363 . S
C11 H23 0.929 . S
C12 C11 1.363 . S
C12 N14 1.375 . S
C12 H30 0.931 . S
C13 N10 1.311 . S
C13 N14 1.347 . S
C13 H24 0.929 . S
N14 C12 1.375 . S
N14 C13 1.347 . S
C15 C18 1.365 . S
C15 N20 1.328 . S
C15 H21 0.929 . S
C16 C17 1.362 . S
C16 C19 1.378 . S
C16 H31 0.929 . S
C17 C16 1.362 . S
C17 C18 1.366 . S
C18 C15 1.365 . S
C18 C17 1.366 . S
C18 H32 0.930 . S
C19 C16 1.378 . S
C19 N20 1.315 . S
C19 H22 0.930 . S
N20 Co0 2.194 . S
N20 C15 1.328 . S
N20 C19 1.315 . S
H21 C15 0.929 . S
H22 C19 0.930 . S
H23 C11 0.929 . S
H24 C13 0.929 . S
O25 Co0 2.351 . S
O25 C28 1.244 . S
O26 Co0 2.155 . S
O26 C28 1.240 . S
O27 Co0 2.096 . S
O27 C8 1.247 . S
C28 O25 1.244 . S
C28 O26 1.240 . S
H29 C3 0.931 . S
H30 C12 0.931 . S
H31 C16 0.929 . S
H32 C18 0.930 . S
Co33 N37 2.148 . S
Co33 N43 2.128 . S
Co33 N53 2.194 . S
Co33 O58 2.351 . S
Co33 O59 2.155 . S
Co33 O60 2.096 1_455 S
C34 N37 1.301 1_565 S
C34 N38 1.328 . S
C34 H39 0.930 . S
C35 C36 1.333 . S
C35 N37 1.317 1_565 S
C35 H40 0.926 1_465 S
C36 C35 1.333 . S
C36 N38 1.350 . S
C36 H62 0.931 . S
N37 Co33 2.148 . S
N37 C34 1.301 1_545 S
N37 C35 1.317 1_545 S
N38 C34 1.328 . S
N38 C36 1.350 . S
H39 C34 0.930 . S
H40 C35 0.926 1_645 S
C41 O42 1.224 . S
C41 O60 1.247 . S
O42 C41 1.224 . S
N43 Co33 2.128 . S
N43 C44 1.355 . S
N43 C46 1.311 1_455 S
C44 N43 1.355 . S
C44 C45 1.363 . S
C44 H56 0.929 . S
C45 C44 1.363 . S
C45 N47 1.375 1_455 S
C45 H63 0.931 . S
C46 N43 1.311 1_655 S
C46 N47 1.347 . S
C46 H57 0.929 . S
N47 C45 1.375 1_655 S
N47 C46 1.347 . S
C48 C51 1.365 . S
C48 N53 1.328 . S
C48 H54 0.929 . S
C49 C50 1.362 1_655 S
C49 C52 1.378 . S
C49 H64 0.929 . S
C50 C49 1.362 1_455 S
C50 C51 1.366 . S
C51 C48 1.365 . S
C51 C50 1.366 . S
C51 H65 0.930 . S
C52 C49 1.378 . S
C52 N53 1.315 1_655 S
C52 H55 0.930 . S
N53 Co33 2.194 . S
N53 C48 1.328 . S
N53 C52 1.315 1_455 S
H54 C48 0.929 . S
H55 C52 0.930 . S
H56 C44 0.929 . S
H57 C46 0.929 . S
O58 Co33 2.351 . S
O58 C61 1.244 . S
O59 Co33 2.155 . S
O59 C61 1.240 . S
O60 Co33 2.096 1_655 S
O60 C41 1.247 . S
C61 O58 1.244 . S
C61 O59 1.240 . S
H62 C36 0.931 . S
H63 C45 0.931 . S
H64 C49 0.929 . S
H65 C51 0.930 . S
Co66 N70 2.148 . S
Co66 N76 2.128 . S
Co66 N86 2.194 . S
Co66 O91 2.351 . S
Co66 O92 2.155 . S
Co66 O93 2.096 . S
C67 N70 1.301 . S
C67 N71 1.328 . S
C67 H72 0.930 . S
C68 C69 1.333 . S
C68 N70 1.317 . S
C68 H73 0.930 . S
C69 C68 1.333 . S
C69 N71 1.350 . S
C69 H95 0.931 . S
N70 Co66 2.148 . S
N70 C67 1.301 . S
N70 C68 1.317 . S
N71 C67 1.328 . S
N71 C69 1.350 . S
H72 C67 0.930 . S
H73 C68 0.930 . S
C74 O75 1.224 . S
C74 O93 1.247 . S
O75 C74 1.224 . S
N76 Co66 2.128 . S
N76 C77 1.355 . S
N76 C79 1.311 . S
C77 N76 1.355 . S
C77 C78 1.363 . S
C77 H89 0.929 . S
C78 C77 1.363 . S
C78 N80 1.375 . S
C78 H96 0.931 . S
C79 N76 1.311 . S
C79 N80 1.347 . S
C79 H90 0.929 . S
N80 C78 1.375 . S
N80 C79 1.347 . S
C81 C84 1.365 . S
C81 N86 1.328 . S
C81 H87 0.929 . S
C82 C83 1.362 . S
C82 C85 1.378 . S
C82 H97 0.929 . S
C83 C82 1.362 . S
C83 C84 1.366 . S
C84 C81 1.365 . S
C84 C83 1.366 . S
C84 H98 0.930 . S
C85 C82 1.378 . S
C85 N86 1.315 . S
C85 H88 0.930 . S
N86 Co66 2.194 . S
N86 C81 1.328 . S
N86 C85 1.315 . S
H87 C81 0.929 . S
H88 C85 0.930 . S
H89 C77 0.929 . S
H90 C79 0.929 . S
O91 Co66 2.351 . S
O91 C94 1.244 . S
O92 Co66 2.155 . S
O92 C94 1.240 . S
O93 Co66 2.096 . S
O93 C74 1.247 . S
C94 O91 1.244 . S
C94 O92 1.240 . S
H95 C69 0.931 . S
H96 C78 0.931 . S
H97 C82 0.929 . S
H98 C84 0.930 . S
Co99 N103 2.148 . S
Co99 N109 2.128 . S
Co99 N119 2.194 . S
Co99 O124 2.351 . S
Co99 O125 2.155 . S
Co99 O126 2.096 . S
C100 N103 1.301 1_545 S
C100 N104 1.328 . S
C100 H105 0.930 . S
C101 C102 1.333 . S
C101 N103 1.317 1_545 S
C101 H106 0.926 1_545 S
C102 C101 1.333 . S
C102 N104 1.350 . S
C102 H128 0.931 . S
N103 Co99 2.148 . S
N103 C100 1.301 1_565 S
N103 C101 1.317 1_565 S
N104 C100 1.328 . S
N104 C102 1.350 . S
H105 C100 0.930 . S
H106 C101 0.926 1_565 S
C107 O108 1.224 . S
C107 O126 1.247 . S
O108 C107 1.224 . S
N109 Co99 2.128 . S
N109 C110 1.355 . S
N109 C112 1.311 . S
C110 N109 1.355 . S
C110 C111 1.363 . S
C110 H122 0.929 . S
C111 C110 1.363 . S
C111 N113 1.375 . S
C111 H129 0.931 . S
C112 N109 1.311 . S
C112 N113 1.347 . S
C112 H123 0.929 . S
N113 C111 1.375 . S
N113 C112 1.347 . S
C114 C117 1.365 . S
C114 N119 1.328 . S
C114 H120 0.929 . S
C115 C116 1.362 . S
C115 C118 1.378 . S
C115 H130 0.929 . S
C116 C115 1.362 . S
C116 C117 1.366 . S
C117 C114 1.365 . S
C117 C116 1.366 . S
C117 H131 0.930 . S
C118 C115 1.378 . S
C118 N119 1.315 . S
C118 H121 0.930 . S
N119 Co99 2.194 . S
N119 C114 1.328 . S
N119 C118 1.315 . S
H120 C114 0.929 . S
H121 C118 0.930 . S
H122 C110 0.929 . S
H123 C112 0.929 . S
O124 Co99 2.351 . S
O124 C127 1.244 . S
O125 Co99 2.155 . S
O125 C127 1.240 . S
O126 Co99 2.096 . S
O126 C107 1.247 . S
C127 O124 1.244 . S
C127 O125 1.240 . S
H128 C102 0.931 . S
H129 C111 0.931 . S
H130 C115 0.929 . S
H131 C117 0.930 . S
Co132 N136 2.148 . S
Co132 N142 2.128 . S
Co132 N152 2.194 . S
Co132 O157 2.351 . S
Co132 O158 2.155 . S
Co132 O159 2.096 . S
C133 N136 1.301 . S
C133 N137 1.328 . S
C133 H138 0.930 . S
C134 C135 1.333 . S
C134 N136 1.317 . S
C134 H139 0.930 . S
C135 C134 1.333 . S
C135 N137 1.350 . S
C135 H161 0.931 . S
N136 Co132 2.148 . S
N136 C133 1.301 . S
N136 C134 1.317 . S
N137 C133 1.328 . S
N137 C135 1.350 . S
H138 C133 0.930 . S
H139 C134 0.930 . S
C140 O141 1.224 . S
C140 O159 1.247 . S
O141 C140 1.224 . S
N142 Co132 2.128 . S
N142 C143 1.355 . S
N142 C145 1.311 . S
C143 N142 1.355 . S
C143 C144 1.363 . S
C143 H155 0.929 . S
C144 C143 1.363 . S
C144 N146 1.375 . S
C144 H162 0.931 . S
C145 N142 1.311 . S
C145 N146 1.347 . S
C145 H156 0.929 . S
N146 C144 1.375 . S
N146 C145 1.347 . S
C147 C150 1.365 . S
C147 N152 1.328 . S
C147 H153 0.929 . S
C148 C149 1.362 . S
C148 C151 1.378 . S
C148 H163 0.929 . S
C149 C148 1.362 . S
C149 C150 1.366 . S
C150 C147 1.365 . S
C150 C149 1.366 . S
C150 H164 0.930 . S
C151 C148 1.378 . S
C151 N152 1.315 . S
C151 H154 0.930 . S
N152 Co132 2.194 . S
N152 C147 1.328 . S
N152 C151 1.315 . S
H153 C147 0.929 . S
H154 C151 0.930 . S
H155 C143 0.929 . S
H156 C145 0.929 . S
O157 Co132 2.351 . S
O157 C160 1.244 . S
O158 Co132 2.155 . S
O158 C160 1.240 . S
O159 Co132 2.096 . S
O159 C140 1.247 . S
C160 O157 1.244 . S
C160 O158 1.240 . S
H161 C135 0.931 . S
H162 C144 0.931 . S
H163 C148 0.929 . S
H164 C150 0.930 . S
Co165 N169 2.148 . S
Co165 N175 2.128 . S
Co165 N185 2.194 . S
Co165 O190 2.351 . S
Co165 O191 2.155 . S
Co165 O192 2.096 . S
C166 N169 1.301 1_565 S
C166 N170 1.328 . S
C166 H171 0.930 . S
C167 C168 1.333 . S
C167 N169 1.317 1_565 S
C167 H172 0.926 1_565 S
C168 C167 1.333 . S
C168 N170 1.350 . S
C168 H194 0.931 . S
N169 Co165 2.148 . S
N169 C166 1.301 1_545 S
N169 C167 1.317 1_545 S
N170 C166 1.328 . S
N170 C168 1.350 . S
H171 C166 0.930 . S
H172 C167 0.926 1_545 S
C173 O174 1.224 . S
C173 O192 1.247 . S
O174 C173 1.224 . S
N175 Co165 2.128 . S
N175 C176 1.355 . S
N175 C178 1.311 . S
C176 N175 1.355 . S
C176 C177 1.363 . S
C176 H188 0.929 . S
C177 C176 1.363 . S
C177 N179 1.375 . S
C177 H195 0.931 . S
C178 N175 1.311 . S
C178 N179 1.347 . S
C178 H189 0.929 . S
N179 C177 1.375 . S
N179 C178 1.347 . S
C180 C183 1.365 . S
C180 N185 1.328 . S
C180 H186 0.929 . S
C181 C182 1.362 . S
C181 C184 1.378 . S
C181 H196 0.929 . S
C182 C181 1.362 . S
C182 C183 1.366 . S
C183 C180 1.365 . S
C183 C182 1.366 . S
C183 H197 0.930 . S
C184 C181 1.378 . S
C184 N185 1.315 . S
C184 H187 0.930 . S
N185 Co165 2.194 . S
N185 C180 1.328 . S
N185 C184 1.315 . S
H186 C180 0.929 . S
H187 C184 0.930 . S
H188 C176 0.929 . S
H189 C178 0.929 . S
O190 Co165 2.351 . S
O190 C193 1.244 . S
O191 Co165 2.155 . S
O191 C193 1.240 . S
O192 Co165 2.096 . S
O192 C173 1.247 . S
C193 O190 1.244 . S
C193 O191 1.240 . S
H194 C168 0.931 . S
H195 C177 0.931 . S
H196 C181 0.929 . S
H197 C183 0.930 . S
Co198 N202 2.148 . S
Co198 N208 2.128 . S
Co198 N218 2.194 . S
Co198 O223 2.351 . S
Co198 O224 2.155 . S
Co198 O225 2.096 . S
C199 N202 1.301 . S
C199 N203 1.328 . S
C199 H204 0.930 . S
C200 C201 1.333 . S
C200 N202 1.317 . S
C200 H205 0.930 . S
C201 C200 1.333 . S
C201 N203 1.350 . S
C201 H227 0.931 . S
N202 Co198 2.148 . S
N202 C199 1.301 . S
N202 C200 1.317 . S
N203 C199 1.328 . S
N203 C201 1.350 . S
H204 C199 0.930 . S
H205 C200 0.930 . S
C206 O207 1.224 . S
C206 O225 1.247 . S
O207 C206 1.224 . S
N208 Co198 2.128 . S
N208 C209 1.355 . S
N208 C211 1.311 . S
C209 N208 1.355 . S
C209 C210 1.363 . S
C209 H221 0.929 . S
C210 C209 1.363 . S
C210 N212 1.375 . S
C210 H228 0.931 . S
C211 N208 1.311 . S
C211 N212 1.347 . S
C211 H222 0.929 . S
N212 C210 1.375 . S
N212 C211 1.347 . S
C213 C216 1.365 . S
C213 N218 1.328 . S
C213 H219 0.929 . S
C214 C215 1.362 . S
C214 C217 1.378 . S
C214 H229 0.929 . S
C215 C214 1.362 . S
C215 C216 1.366 . S
C216 C213 1.365 . S
C216 C215 1.366 . S
C216 H230 0.930 . S
C217 C214 1.378 . S
C217 N218 1.315 . S
C217 H220 0.930 . S
N218 Co198 2.194 . S
N218 C213 1.328 . S
N218 C217 1.315 . S
H219 C213 0.929 . S
H220 C217 0.930 . S
H221 C209 0.929 . S
H222 C211 0.929 . S
O223 Co198 2.351 . S
O223 C226 1.244 . S
O224 Co198 2.155 . S
O224 C226 1.240 . S
O225 Co198 2.096 . S
O225 C206 1.247 . S
C226 O223 1.244 . S
C226 O224 1.240 . S
H227 C201 0.931 . S
H228 C210 0.931 . S
H229 C214 0.929 . S
H230 C216 0.930 . S
Co231 N235 2.148 . S
Co231 N241 2.128 . S
Co231 N251 2.194 . S
Co231 O256 2.351 . S
Co231 O257 2.155 . S
Co231 O258 2.096 1_455 S
C232 N235 1.301 1_545 S
C232 N236 1.328 . S
C232 H237 0.930 . S
C233 C234 1.333 . S
C233 N235 1.317 1_545 S
C233 H238 0.926 1_445 S
C234 C233 1.333 . S
C234 N236 1.350 . S
C234 H260 0.931 . S
N235 Co231 2.148 . S
N235 C232 1.301 1_565 S
N235 C233 1.317 1_565 S
N236 C232 1.328 . S
N236 C234 1.350 . S
H237 C232 0.930 . S
H238 C233 0.926 1_665 S
C239 O240 1.224 . S
C239 O258 1.247 . S
O240 C239 1.224 . S
N241 Co231 2.128 . S
N241 C242 1.355 . S
N241 C244 1.311 1_455 S
C242 N241 1.355 . S
C242 C243 1.363 . S
C242 H254 0.929 . S
C243 C242 1.363 . S
C243 N245 1.375 1_455 S
C243 H261 0.931 . S
C244 N241 1.311 1_655 S
C244 N245 1.347 . S
C244 H255 0.929 . S
N245 C243 1.375 1_655 S
N245 C244 1.347 . S
C246 C249 1.365 . S
C246 N251 1.328 . S
C246 H252 0.929 . S
C247 C248 1.362 1_655 S
C247 C250 1.378 . S
C247 H262 0.929 . S
C248 C247 1.362 1_455 S
C248 C249 1.366 . S
C249 C246 1.365 . S
C249 C248 1.366 . S
C249 H263 0.930 . S
C250 C247 1.378 . S
C250 N251 1.315 1_655 S
C250 H253 0.930 . S
N251 Co231 2.194 . S
N251 C246 1.328 . S
N251 C250 1.315 1_455 S
H252 C246 0.929 . S
H253 C250 0.930 . S
H254 C242 0.929 . S
H255 C244 0.929 . S
O256 Co231 2.351 . S
O256 C259 1.244 . S
O257 Co231 2.155 . S
O257 C259 1.240 . S
O258 Co231 2.096 1_655 S
O258 C239 1.247 . S
C259 O256 1.244 . S
C259 O257 1.240 . S
H260 C234 0.931 . S
H261 C243 0.931 . S
H262 C247 0.929 . S
H263 C249 0.930 . S
Co264 N268 2.148 . S
Co264 N274 2.128 . S
Co264 N284 2.194 . S
Co264 O289 2.351 . S
Co264 O290 2.155 . S
Co264 O291 2.096 . S
C265 N268 1.301 . S
C265 N269 1.328 . S
C265 H270 0.930 . S
C266 C267 1.333 . S
C266 N268 1.317 . S
C266 H271 0.930 . S
C267 C266 1.333 . S
C267 N269 1.350 . S
C267 H293 0.931 . S
N268 Co264 2.148 . S
N268 C265 1.301 . S
N268 C266 1.317 . S
N269 C265 1.328 . S
N269 C267 1.350 . S
H270 C265 0.930 . S
H271 C266 0.930 . S
C272 O273 1.224 . S
C272 O291 1.247 . S
O273 C272 1.224 . S
N274 Co264 2.128 . S
N274 C275 1.355 . S
N274 C277 1.311 . S
C275 N274 1.355 . S
C275 C276 1.363 . S
C275 H287 0.929 . S
C276 C275 1.363 . S
C276 N278 1.375 . S
C276 H294 0.931 . S
C277 N274 1.311 . S
C277 N278 1.347 . S
C277 H288 0.929 . S
N278 C276 1.375 . S
N278 C277 1.347 . S
C279 C282 1.365 . S
C279 N284 1.328 . S
C279 H285 0.929 . S
C280 C281 1.362 . S
C280 C283 1.378 . S
C280 H295 0.929 . S
C281 C280 1.362 . S
C281 C282 1.366 . S
C282 C279 1.365 . S
C282 C281 1.366 . S
C282 H296 0.930 . S
C283 C280 1.378 . S
C283 N284 1.315 . S
C283 H286 0.930 . S
N284 Co264 2.194 . S
N284 C279 1.328 . S
N284 C283 1.315 . S
H285 C279 0.929 . S
H286 C283 0.930 . S
H287 C275 0.929 . S
H288 C277 0.929 . S
O289 Co264 2.351 . S
O289 C292 1.244 . S
O290 Co264 2.155 . S
O290 C292 1.240 . S
O291 Co264 2.096 . S
O291 C272 1.247 . S
C292 O289 1.244 . S
C292 O290 1.240 . S
H293 C267 0.931 . S
H294 C276 0.931 . S
H295 C280 0.929 . S
H296 C282 0.930 . S
Co297 N301 2.148 . S
Co297 N307 2.128 . S
Co297 N317 2.194 . S
Co297 O322 2.351 . S
Co297 O323 2.155 . S
Co297 O324 2.096 1_655 S
C298 N301 1.301 1_545 S
C298 N302 1.328 . S
C298 H303 0.930 . S
C299 C300 1.333 . S
C299 N301 1.317 1_545 S
C299 H304 0.926 1_645 S
C300 C299 1.333 . S
C300 N302 1.350 . S
C300 H326 0.931 . S
N301 Co297 2.148 . S
N301 C298 1.301 1_565 S
N301 C299 1.317 1_565 S
N302 C298 1.328 . S
N302 C300 1.350 . S
H303 C298 0.930 . S
H304 C299 0.926 1_465 S
C305 O306 1.224 . S
C305 O324 1.247 . S
O306 C305 1.224 . S
N307 Co297 2.128 . S
N307 C308 1.355 . S
N307 C310 1.311 1_655 S
C308 N307 1.355 . S
C308 C309 1.363 . S
C308 H320 0.929 . S
C309 C308 1.363 . S
C309 N311 1.375 1_655 S
C309 H327 0.931 . S
C310 N307 1.311 1_455 S
C310 N311 1.347 . S
C310 H321 0.929 . S
N311 C309 1.375 1_455 S
N311 C310 1.347 . S
C312 C315 1.365 . S
C312 N317 1.328 . S
C312 H318 0.929 . S
C313 C314 1.362 1_455 S
C313 C316 1.378 . S
C313 H328 0.929 . S
C314 C313 1.362 1_655 S
C314 C315 1.366 . S
C315 C312 1.365 . S
C315 C314 1.366 . S
C315 H329 0.930 . S
C316 C313 1.378 . S
C316 N317 1.315 1_455 S
C316 H319 0.930 . S
N317 Co297 2.194 . S
N317 C312 1.328 . S
N317 C316 1.315 1_655 S
H318 C312 0.929 . S
H319 C316 0.930 . S
H320 C308 0.929 . S
H321 C310 0.929 . S
O322 Co297 2.351 . S
O322 C325 1.244 . S
O323 Co297 2.155 . S
O323 C325 1.240 . S
O324 Co297 2.096 1_455 S
O324 C305 1.247 . S
C325 O322 1.244 . S
C325 O323 1.240 . S
H326 C300 0.931 . S
H327 C309 0.931 . S
H328 C313 0.929 . S
H329 C315 0.930 . S
Co330 N334 2.148 . S
Co330 N340 2.128 . S
Co330 N350 2.194 . S
Co330 O355 2.351 . S
Co330 O356 2.155 . S
Co330 O357 2.096 . S
C331 N334 1.301 . S
C331 N335 1.328 . S
C331 H336 0.930 . S
C332 C333 1.333 . S
C332 N334 1.317 . S
C332 H337 0.930 . S
C333 C332 1.333 . S
C333 N335 1.350 . S
C333 H359 0.931 . S
N334 Co330 2.148 . S
N334 C331 1.301 . S
N334 C332 1.317 . S
N335 C331 1.328 . S
N335 C333 1.350 . S
H336 C331 0.930 . S
H337 C332 0.930 . S
C338 O339 1.224 . S
C338 O357 1.247 . S
O339 C338 1.224 . S
N340 Co330 2.128 . S
N340 C341 1.355 . S
N340 C343 1.311 . S
C341 N340 1.355 . S
C341 C342 1.363 . S
C341 H353 0.929 . S
C342 C341 1.363 . S
C342 N344 1.375 . S
C342 H360 0.931 . S
C343 N340 1.311 . S
C343 N344 1.347 . S
C343 H354 0.929 . S
N344 C342 1.375 . S
N344 C343 1.347 . S
C345 C348 1.365 . S
C345 N350 1.328 . S
C345 H351 0.929 . S
C346 C347 1.362 . S
C346 C349 1.378 . S
C346 H361 0.929 . S
C347 C346 1.362 . S
C347 C348 1.366 . S
C348 C345 1.365 . S
C348 C347 1.366 . S
C348 H362 0.930 . S
C349 C346 1.378 . S
C349 N350 1.315 . S
C349 H352 0.930 . S
N350 Co330 2.194 . S
N350 C345 1.328 . S
N350 C349 1.315 . S
H351 C345 0.929 . S
H352 C349 0.930 . S
H353 C341 0.929 . S
H354 C343 0.929 . S
O355 Co330 2.351 . S
O355 C358 1.244 . S
O356 Co330 2.155 . S
O356 C358 1.240 . S
O357 Co330 2.096 . S
O357 C338 1.247 . S
C358 O355 1.244 . S
C358 O356 1.240 . S
H359 C333 0.931 . S
H360 C342 0.931 . S
H361 C346 0.929 . S
H362 C348 0.930 . S
Co363 N367 2.148 . S
Co363 N373 2.128 . S
Co363 N383 2.194 . S
Co363 O388 2.351 . S
Co363 O389 2.155 . S
Co363 O390 2.096 . S
C364 N367 1.301 1_565 S
C364 N368 1.328 . S
C364 H369 0.930 . S
C365 C366 1.333 . S
C365 N367 1.317 1_565 S
C365 H370 0.926 1_565 S
C366 C365 1.333 . S
C366 N368 1.350 . S
C366 H392 0.931 . S
N367 Co363 2.148 . S
N367 C364 1.301 1_545 S
N367 C365 1.317 1_545 S
N368 C364 1.328 . S
N368 C366 1.350 . S
H369 C364 0.930 . S
H370 C365 0.926 1_545 S
C371 O372 1.224 . S
C371 O390 1.247 . S
O372 C371 1.224 . S
N373 Co363 2.128 . S
N373 C374 1.355 . S
N373 C376 1.311 . S
C374 N373 1.355 . S
C374 C375 1.363 . S
C374 H386 0.929 . S
C375 C374 1.363 . S
C375 N377 1.375 . S
C375 H393 0.931 . S
C376 N373 1.311 . S
C376 N377 1.347 . S
C376 H387 0.929 . S
N377 C375 1.375 . S
N377 C376 1.347 . S
C378 C381 1.365 . S
C378 N383 1.328 . S
C378 H384 0.929 . S
C379 C380 1.362 . S
C379 C382 1.378 . S
C379 H394 0.929 . S
C380 C379 1.362 . S
C380 C381 1.366 . S
C381 C378 1.365 . S
C381 C380 1.366 . S
C381 H395 0.930 . S
C382 C379 1.378 . S
C382 N383 1.315 . S
C382 H385 0.930 . S
N383 Co363 2.194 . S
N383 C378 1.328 . S
N383 C382 1.315 . S
H384 C378 0.929 . S
H385 C382 0.930 . S
H386 C374 0.929 . S
H387 C376 0.929 . S
O388 Co363 2.351 . S
O388 C391 1.244 . S
O389 Co363 2.155 . S
O389 C391 1.240 . S
O390 Co363 2.096 . S
O390 C371 1.247 . S
C391 O388 1.244 . S
C391 O389 1.240 . S
H392 C366 0.931 . S
H393 C375 0.931 . S
H394 C379 0.929 . S
H395 C381 0.930 . S
Co396 N400 2.148 . S
Co396 N406 2.128 . S
Co396 N416 2.194 . S
Co396 O421 2.351 . S
Co396 O422 2.155 . S
Co396 O423 2.096 . S
C397 N400 1.301 . S
C397 N401 1.328 . S
C397 H402 0.930 . S
C398 C399 1.333 . S
C398 N400 1.317 . S
C398 H403 0.930 . S
C399 C398 1.333 . S
C399 N401 1.350 . S
C399 H425 0.931 . S
N400 Co396 2.148 . S
N400 C397 1.301 . S
N400 C398 1.317 . S
N401 C397 1.328 . S
N401 C399 1.350 . S
H402 C397 0.930 . S
H403 C398 0.930 . S
C404 O405 1.224 . S
C404 O423 1.247 . S
O405 C404 1.224 . S
N406 Co396 2.128 . S
N406 C407 1.355 . S
N406 C409 1.311 . S
C407 N406 1.355 . S
C407 C408 1.363 . S
C407 H419 0.929 . S
C408 C407 1.363 . S
C408 N410 1.375 . S
C408 H426 0.931 . S
C409 N406 1.311 . S
C409 N410 1.347 . S
C409 H420 0.929 . S
N410 C408 1.375 . S
N410 C409 1.347 . S
C411 C414 1.365 . S
C411 N416 1.328 . S
C411 H417 0.929 . S
C412 C413 1.362 . S
C412 C415 1.378 . S
C412 H427 0.929 . S
C413 C412 1.362 . S
C413 C414 1.366 . S
C414 C411 1.365 . S
C414 C413 1.366 . S
C414 H428 0.930 . S
C415 C412 1.378 . S
C415 N416 1.315 . S
C415 H418 0.930 . S
N416 Co396 2.194 . S
N416 C411 1.328 . S
N416 C415 1.315 . S
H417 C411 0.929 . S
H418 C415 0.930 . S
H419 C407 0.929 . S
H420 C409 0.929 . S
O421 Co396 2.351 . S
O421 C424 1.244 . S
O422 Co396 2.155 . S
O422 C424 1.240 . S
O423 Co396 2.096 . S
O423 C404 1.247 . S
C424 O421 1.244 . S
C424 O422 1.240 . S
H425 C399 0.931 . S
H426 C408 0.931 . S
H427 C412 0.929 . S
H428 C414 0.930 . S
Co429 N433 2.148 . S
Co429 N439 2.128 . S
Co429 N449 2.194 . S
Co429 O454 2.351 . S
Co429 O455 2.155 . S
Co429 O456 2.096 . S
C430 N433 1.301 1_545 S
C430 N434 1.328 . S
C430 H435 0.930 . S
C431 C432 1.333 . S
C431 N433 1.317 1_545 S
C431 H436 0.926 1_545 S
C432 C431 1.333 . S
C432 N434 1.350 . S
C432 H458 0.931 . S
N433 Co429 2.148 . S
N433 C430 1.301 1_565 S
N433 C431 1.317 1_565 S
N434 C430 1.328 . S
N434 C432 1.350 . S
H435 C430 0.930 . S
H436 C431 0.926 1_565 S
C437 O438 1.224 . S
C437 O456 1.247 . S
O438 C437 1.224 . S
N439 Co429 2.128 . S
N439 C440 1.355 . S
N439 C442 1.311 . S
C440 N439 1.355 . S
C440 C441 1.363 . S
C440 H452 0.929 . S
C441 C440 1.363 . S
C441 N443 1.375 . S
C441 H459 0.931 . S
C442 N439 1.311 . S
C442 N443 1.347 . S
C442 H453 0.929 . S
N443 C441 1.375 . S
N443 C442 1.347 . S
C444 C447 1.365 . S
C444 N449 1.328 . S
C444 H450 0.929 . S
C445 C446 1.362 . S
C445 C448 1.378 . S
C445 H460 0.929 . S
C446 C445 1.362 . S
C446 C447 1.366 . S
C447 C444 1.365 . S
C447 C446 1.366 . S
C447 H461 0.930 . S
C448 C445 1.378 . S
C448 N449 1.315 . S
C448 H451 0.930 . S
N449 Co429 2.194 . S
N449 C444 1.328 . S
N449 C448 1.315 . S
H450 C444 0.929 . S
H451 C448 0.930 . S
H452 C440 0.929 . S
H453 C442 0.929 . S
O454 Co429 2.351 . S
O454 C457 1.244 . S
O455 Co429 2.155 . S
O455 C457 1.240 . S
O456 Co429 2.096 . S
O456 C437 1.247 . S
C457 O454 1.244 . S
C457 O455 1.240 . S
H458 C432 0.931 . S
H459 C441 0.931 . S
H460 C445 0.929 . S
H461 C447 0.930 . S
Co462 N466 2.148 . S
Co462 N472 2.128 . S
Co462 N482 2.194 . S
Co462 O487 2.351 . S
Co462 O488 2.155 . S
Co462 O489 2.096 . S
C463 N466 1.301 . S
C463 N467 1.328 . S
C463 H468 0.930 . S
C464 C465 1.333 . S
C464 N466 1.317 . S
C464 H469 0.930 . S
C465 C464 1.333 . S
C465 N467 1.350 . S
C465 H491 0.931 . S
N466 Co462 2.148 . S
N466 C463 1.301 . S
N466 C464 1.317 . S
N467 C463 1.328 . S
N467 C465 1.350 . S
H468 C463 0.930 . S
H469 C464 0.930 . S
C470 O471 1.224 . S
C470 O489 1.247 . S
O471 C470 1.224 . S
N472 Co462 2.128 . S
N472 C473 1.355 . S
N472 C475 1.311 . S
C473 N472 1.355 . S
C473 C474 1.363 . S
C473 H485 0.929 . S
C474 C473 1.363 . S
C474 N476 1.375 . S
C474 H492 0.931 . S
C475 N472 1.311 . S
C475 N476 1.347 . S
C475 H486 0.929 . S
N476 C474 1.375 . S
N476 C475 1.347 . S
C477 C480 1.365 . S
C477 N482 1.328 . S
C477 H483 0.929 . S
C478 C479 1.362 . S
C478 C481 1.378 . S
C478 H493 0.929 . S
C479 C478 1.362 . S
C479 C480 1.366 . S
C480 C477 1.365 . S
C480 C479 1.366 . S
C480 H494 0.930 . S
C481 C478 1.378 . S
C481 N482 1.315 . S
C481 H484 0.930 . S
N482 Co462 2.194 . S
N482 C477 1.328 . S
N482 C481 1.315 . S
H483 C477 0.929 . S
H484 C481 0.930 . S
H485 C473 0.929 . S
H486 C475 0.929 . S
O487 Co462 2.351 . S
O487 C490 1.244 . S
O488 Co462 2.155 . S
O488 C490 1.240 . S
O489 Co462 2.096 . S
O489 C470 1.247 . S
C490 O487 1.244 . S
C490 O488 1.240 . S
H491 C465 0.931 . S
H492 C474 0.931 . S
H493 C478 0.929 . S
H494 C480 0.930 . S
Co495 N499 2.148 . S
Co495 N505 2.128 . S
Co495 N515 2.194 . S
Co495 O520 2.351 . S
Co495 O521 2.155 . S
Co495 O522 2.096 1_655 S
C496 N499 1.301 1_565 S
C496 N500 1.328 . S
C496 H501 0.930 . S
C497 C498 1.333 . S
C497 N499 1.317 1_565 S
C497 H502 0.926 1_665 S
C498 C497 1.333 . S
C498 N500 1.350 . S
C498 H524 0.931 . S
N499 Co495 2.148 . S
N499 C496 1.301 1_545 S
N499 C497 1.317 1_545 S
N500 C496 1.328 . S
N500 C498 1.350 . S
H501 C496 0.930 . S
H502 C497 0.926 1_445 S
C503 O504 1.224 . S
C503 O522 1.247 . S
O504 C503 1.224 . S
N505 Co495 2.128 . S
N505 C506 1.355 . S
N505 C508 1.311 1_655 S
C506 N505 1.355 . S
C506 C507 1.363 . S
C506 H518 0.929 . S
C507 C506 1.363 . S
C507 N509 1.375 1_655 S
C507 H525 0.931 . S
C508 N505 1.311 1_455 S
C508 N509 1.347 . S
C508 H519 0.929 . S
N509 C507 1.375 1_455 S
N509 C508 1.347 . S
C510 C513 1.365 . S
C510 N515 1.328 . S
C510 H516 0.929 . S
C511 C512 1.362 1_455 S
C511 C514 1.378 . S
C511 H526 0.929 . S
C512 C511 1.362 1_655 S
C512 C513 1.366 . S
C513 C510 1.365 . S
C513 C512 1.366 . S
C513 H527 0.930 . S
C514 C511 1.378 . S
C514 N515 1.315 1_455 S
C514 H517 0.930 . S
N515 Co495 2.194 . S
N515 C510 1.328 . S
N515 C514 1.315 1_655 S
H516 C510 0.929 . S
H517 C514 0.930 . S
H518 C506 0.929 . S
H519 C508 0.929 . S
O520 Co495 2.351 . S
O520 C523 1.244 . S
O521 Co495 2.155 . S
O521 C523 1.240 . S
O522 Co495 2.096 1_455 S
O522 C503 1.247 . S
C523 O520 1.244 . S
C523 O521 1.240 . S
H524 C498 0.931 . S
H525 C507 0.931 . S
H526 C511 0.929 . S
H527 C513 0.930 . S
Co528 N532 2.148 . S
Co528 N538 2.128 . S
Co528 N548 2.194 . S
Co528 O553 2.351 . S
Co528 O554 2.155 . S
Co528 O555 2.096 . S
C529 N532 1.301 . S
C529 N533 1.328 . S
C529 H534 0.930 . S
C530 C531 1.333 . S
C530 N532 1.317 . S
C530 H535 0.930 . S
C531 C530 1.333 . S
C531 N533 1.350 . S
C531 H557 0.931 . S
N532 Co528 2.148 . S
N532 C529 1.301 . S
N532 C530 1.317 . S
N533 C529 1.328 . S
N533 C531 1.350 . S
H534 C529 0.930 . S
H535 C530 0.930 . S
C536 O537 1.224 . S
C536 O555 1.247 . S
O537 C536 1.224 . S
N538 Co528 2.128 . S
N538 C539 1.355 . S
N538 C541 1.311 . S
C539 N538 1.355 . S
C539 C540 1.363 . S
C539 H551 0.929 . S
C540 C539 1.363 . S
C540 N542 1.375 . S
C540 H558 0.931 . S
C541 N538 1.311 . S
C541 N542 1.347 . S
C541 H552 0.929 . S
N542 C540 1.375 . S
N542 C541 1.347 . S
C543 C546 1.365 . S
C543 N548 1.328 . S
C543 H549 0.929 . S
C544 C545 1.362 . S
C544 C547 1.378 . S
C544 H559 0.929 . S
C545 C544 1.362 . S
C545 C546 1.366 . S
C546 C543 1.365 . S
C546 C545 1.366 . S
C546 H560 0.930 . S
C547 C544 1.378 . S
C547 N548 1.315 . S
C547 H550 0.930 . S
N548 Co528 2.194 . S
N548 C543 1.328 . S
N548 C547 1.315 . S
H549 C543 0.929 . S
H550 C547 0.930 . S
H551 C539 0.929 . S
H552 C541 0.929 . S
O553 Co528 2.351 . S
O553 C556 1.244 . S
O554 Co528 2.155 . S
O554 C556 1.240 . S
O555 Co528 2.096 . S
O555 C536 1.247 . S
C556 O553 1.244 . S
C556 O554 1.240 . S
H557 C531 0.931 . S
H558 C540 0.931 . S
H559 C544 0.929 . S
H560 C546 0.930 . S
Co561 N565 2.148 . S
Co561 N571 2.128 . S
Co561 N581 2.194 . S
Co561 O586 2.351 . S
Co561 O587 2.155 . S
Co561 O588 2.096 . S
C562 N565 1.301 . S
C562 N566 1.328 . S
C562 H567 0.930 . S
C563 C564 1.333 . S
C563 N565 1.317 . S
C563 H568 0.930 . S
C564 C563 1.333 . S
C564 N566 1.350 . S
C564 H590 0.931 . S
N565 Co561 2.148 . S
N565 C562 1.301 . S
N565 C563 1.317 . S
N566 C562 1.328 . S
N566 C564 1.350 . S
H567 C562 0.930 . S
H568 C563 0.930 . S
C569 O570 1.224 . S
C569 O588 1.247 . S
O570 C569 1.224 . S
N571 Co561 2.128 . S
N571 C572 1.355 . S
N571 C574 1.311 . S
C572 N571 1.355 . S
C572 C573 1.363 . S
C572 H584 0.929 . S
C573 C572 1.363 . S
C573 N575 1.375 . S
C573 H591 0.931 . S
C574 N571 1.311 . S
C574 N575 1.347 . S
C574 H585 0.929 . S
N575 C573 1.375 . S
N575 C574 1.347 . S
C576 C579 1.365 . S
C576 N581 1.328 . S
C576 H582 0.929 . S
C577 C578 1.362 . S
C577 C580 1.378 . S
C577 H592 0.929 . S
C578 C577 1.362 . S
C578 C579 1.366 . S
C579 C576 1.365 . S
C579 C578 1.366 . S
C579 H593 0.930 . S
C580 C577 1.378 . S
C580 N581 1.315 . S
C580 H583 0.930 . S
N581 Co561 2.194 . S
N581 C576 1.328 . S
N581 C580 1.315 . S
H582 C576 0.929 . S
H583 C580 0.930 . S
H584 C572 0.929 . S
H585 C574 0.929 . S
O586 Co561 2.351 . S
O586 C589 1.244 . S
O587 Co561 2.155 . S
O587 C589 1.240 . S
O588 Co561 2.096 . S
O588 C569 1.247 . S
C589 O586 1.244 . S
C589 O587 1.240 . S
H590 C564 0.931 . S
H591 C573 0.931 . S
H592 C577 0.929 . S
H593 C579 0.930 . S
Co594 N598 2.148 . S
Co594 N604 2.128 . S
Co594 N614 2.194 . S
Co594 O619 2.351 . S
Co594 O620 2.155 . S
Co594 O621 2.096 . S
C595 N598 1.301 . S
C595 N599 1.328 . S
C595 H600 0.930 . S
C596 C597 1.333 . S
C596 N598 1.317 . S
C596 H601 0.930 . S
C597 C596 1.333 . S
C597 N599 1.350 . S
C597 H623 0.931 . S
N598 Co594 2.148 . S
N598 C595 1.301 . S
N598 C596 1.317 . S
N599 C595 1.328 . S
N599 C597 1.350 . S
H600 C595 0.930 . S
H601 C596 0.930 . S
C602 O603 1.224 . S
C602 O621 1.247 . S
O603 C602 1.224 . S
N604 Co594 2.128 . S
N604 C605 1.355 . S
N604 C607 1.311 . S
C605 N604 1.355 . S
C605 C606 1.363 . S
C605 H617 0.929 . S
C606 C605 1.363 . S
C606 N608 1.375 . S
C606 H624 0.931 . S
C607 N604 1.311 . S
C607 N608 1.347 . S
C607 H618 0.929 . S
N608 C606 1.375 . S
N608 C607 1.347 . S
C609 C612 1.365 . S
C609 N614 1.328 . S
C609 H615 0.929 . S
C610 C611 1.362 . S
C610 C613 1.378 . S
C610 H625 0.929 . S
C611 C610 1.362 . S
C611 C612 1.366 . S
C612 C609 1.365 . S
C612 C611 1.366 . S
C612 H626 0.930 . S
C613 C610 1.378 . S
C613 N614 1.315 . S
C613 H616 0.930 . S
N614 Co594 2.194 . S
N614 C609 1.328 . S
N614 C613 1.315 . S
H615 C609 0.929 . S
H616 C613 0.930 . S
H617 C605 0.929 . S
H618 C607 0.929 . S
O619 Co594 2.351 . S
O619 C622 1.244 . S
O620 Co594 2.155 . S
O620 C622 1.240 . S
O621 Co594 2.096 . S
O621 C602 1.247 . S
C622 O619 1.244 . S
C622 O620 1.240 . S
H623 C597 0.931 . S
H624 C606 0.931 . S
H625 C610 0.929 . S
H626 C612 0.930 . S
Co627 N631 2.148 . S
Co627 N637 2.128 . S
Co627 N647 2.194 . S
Co627 O652 2.351 . S
Co627 O653 2.155 . S
Co627 O654 2.096 1_655 S
C628 N631 1.301 . S
C628 N632 1.328 . S
C628 H633 0.930 . S
C629 C630 1.333 . S
C629 N631 1.317 . S
C629 H634 0.930 1_655 S
C630 C629 1.333 . S
C630 N632 1.350 . S
C630 H656 0.931 . S
N631 Co627 2.148 . S
N631 C628 1.301 . S
N631 C629 1.317 . S
N632 C628 1.328 . S
N632 C630 1.350 . S
H633 C628 0.930 . S
H634 C629 0.930 1_455 S
C635 O636 1.224 . S
C635 O654 1.247 . S
O636 C635 1.224 . S
N637 Co627 2.128 . S
N637 C638 1.355 . S
N637 C640 1.311 1_655 S
C638 N637 1.355 . S
C638 C639 1.363 . S
C638 H650 0.929 . S
C639 C638 1.363 . S
C639 N641 1.375 1_655 S
C639 H657 0.931 . S
C640 N637 1.311 1_455 S
C640 N641 1.347 . S
C640 H651 0.929 . S
N641 C639 1.375 1_455 S
N641 C640 1.347 . S
C642 C645 1.365 . S
C642 N647 1.328 . S
C642 H648 0.929 . S
C643 C644 1.362 1_455 S
C643 C646 1.378 . S
C643 H658 0.929 . S
C644 C643 1.362 1_655 S
C644 C645 1.366 . S
C645 C642 1.365 . S
C645 C644 1.366 . S
C645 H659 0.930 . S
C646 C643 1.378 . S
C646 N647 1.315 1_455 S
C646 H649 0.930 . S
N647 Co627 2.194 . S
N647 C642 1.328 . S
N647 C646 1.315 1_655 S
H648 C642 0.929 . S
H649 C646 0.930 . S
H650 C638 0.929 . S
H651 C640 0.929 . S
O652 Co627 2.351 . S
O652 C655 1.244 . S
O653 Co627 2.155 . S
O653 C655 1.240 . S
O654 Co627 2.096 1_455 S
O654 C635 1.247 . S
C655 O652 1.244 . S
C655 O653 1.240 . S
H656 C630 0.931 . S
H657 C639 0.931 . S
H658 C643 0.929 . S
H659 C645 0.930 . S
Co660 N664 2.148 . S
Co660 N670 2.128 . S
Co660 N680 2.194 . S
Co660 O685 2.351 . S
Co660 O686 2.155 . S
Co660 O687 2.096 . S
C661 N664 1.301 . S
C661 N665 1.328 . S
C661 H666 0.930 . S
C662 C663 1.333 . S
C662 N664 1.317 . S
C662 H667 0.930 . S
C663 C662 1.333 . S
C663 N665 1.350 . S
C663 H689 0.931 . S
N664 Co660 2.148 . S
N664 C661 1.301 . S
N664 C662 1.317 . S
N665 C661 1.328 . S
N665 C663 1.350 . S
H666 C661 0.930 . S
H667 C662 0.930 . S
C668 O669 1.224 . S
C668 O687 1.247 . S
O669 C668 1.224 . S
N670 Co660 2.128 . S
N670 C671 1.355 . S
N670 C673 1.311 . S
C671 N670 1.355 . S
C671 C672 1.363 . S
C671 H683 0.929 . S
C672 C671 1.363 . S
C672 N674 1.375 . S
C672 H690 0.931 . S
C673 N670 1.311 . S
C673 N674 1.347 . S
C673 H684 0.929 . S
N674 C672 1.375 . S
N674 C673 1.347 . S
C675 C678 1.365 . S
C675 N680 1.328 . S
C675 H681 0.929 . S
C676 C677 1.362 . S
C676 C679 1.378 . S
C676 H691 0.929 . S
C677 C676 1.362 . S
C677 C678 1.366 . S
C678 C675 1.365 . S
C678 C677 1.366 . S
C678 H692 0.930 . S
C679 C676 1.378 . S
C679 N680 1.315 . S
C679 H682 0.930 . S
N680 Co660 2.194 . S
N680 C675 1.328 . S
N680 C679 1.315 . S
H681 C675 0.929 . S
H682 C679 0.930 . S
H683 C671 0.929 . S
H684 C673 0.929 . S
O685 Co660 2.351 . S
O685 C688 1.244 . S
O686 Co660 2.155 . S
O686 C688 1.240 . S
O687 Co660 2.096 . S
O687 C668 1.247 . S
C688 O685 1.244 . S
C688 O686 1.240 . S
H689 C663 0.931 . S
H690 C672 0.931 . S
H691 C676 0.929 . S
H692 C678 0.930 . S
Co693 N697 2.148 . S
Co693 N703 2.128 . S
Co693 N713 2.194 . S
Co693 O718 2.351 . S
Co693 O719 2.155 . S
Co693 O720 2.096 1_655 S
C694 N697 1.301 . S
C694 N698 1.328 . S
C694 H699 0.930 . S
C695 C696 1.333 . S
C695 N697 1.317 . S
C695 H700 0.930 1_655 S
C696 C695 1.333 . S
C696 N698 1.350 . S
C696 H722 0.931 . S
N697 Co693 2.148 . S
N697 C694 1.301 . S
N697 C695 1.317 . S
N698 C694 1.328 . S
N698 C696 1.350 . S
H699 C694 0.930 . S
H700 C695 0.930 1_455 S
C701 O702 1.224 . S
C701 O720 1.247 . S
O702 C701 1.224 . S
N703 Co693 2.128 . S
N703 C704 1.355 . S
N703 C706 1.311 1_655 S
C704 N703 1.355 . S
C704 C705 1.363 . S
C704 H716 0.929 . S
C705 C704 1.363 . S
C705 N707 1.375 1_655 S
C705 H723 0.931 . S
C706 N703 1.311 1_455 S
C706 N707 1.347 . S
C706 H717 0.929 . S
N707 C705 1.375 1_455 S
N707 C706 1.347 . S
C708 C711 1.365 . S
C708 N713 1.328 . S
C708 H714 0.929 . S
C709 C710 1.362 1_455 S
C709 C712 1.378 . S
C709 H724 0.929 . S
C710 C709 1.362 1_655 S
C710 C711 1.366 . S
C711 C708 1.365 . S
C711 C710 1.366 . S
C711 H725 0.930 . S
C712 C709 1.378 . S
C712 N713 1.315 1_455 S
C712 H715 0.930 . S
N713 Co693 2.194 . S
N713 C708 1.328 . S
N713 C712 1.315 1_655 S
H714 C708 0.929 . S
H715 C712 0.930 . S
H716 C704 0.929 . S
H717 C706 0.929 . S
O718 Co693 2.351 . S
O718 C721 1.244 . S
O719 Co693 2.155 . S
O719 C721 1.240 . S
O720 Co693 2.096 1_455 S
O720 C701 1.247 . S
C721 O718 1.244 . S
C721 O719 1.240 . S
H722 C696 0.931 . S
H723 C705 0.931 . S
H724 C709 0.929 . S
H725 C711 0.930 . S
Co726 N730 2.148 . S
Co726 N736 2.128 . S
Co726 N746 2.194 . S
Co726 O751 2.351 . S
Co726 O752 2.155 . S
Co726 O753 2.096 . S
C727 N730 1.301 . S
C727 N731 1.328 . S
C727 H732 0.930 . S
C728 C729 1.333 . S
C728 N730 1.317 . S
C728 H733 0.930 . S
C729 C728 1.333 . S
C729 N731 1.350 . S
C729 H755 0.931 . S
N730 Co726 2.148 . S
N730 C727 1.301 . S
N730 C728 1.317 . S
N731 C727 1.328 . S
N731 C729 1.350 . S
H732 C727 0.930 . S
H733 C728 0.930 . S
C734 O735 1.224 . S
C734 O753 1.247 . S
O735 C734 1.224 . S
N736 Co726 2.128 . S
N736 C737 1.355 . S
N736 C739 1.311 . S
C737 N736 1.355 . S
C737 C738 1.363 . S
C737 H749 0.929 . S
C738 C737 1.363 . S
C738 N740 1.375 . S
C738 H756 0.931 . S
C739 N736 1.311 . S
C739 N740 1.347 . S
C739 H750 0.929 . S
N740 C738 1.375 . S
N740 C739 1.347 . S
C741 C744 1.365 . S
C741 N746 1.328 . S
C741 H747 0.929 . S
C742 C743 1.362 . S
C742 C745 1.378 . S
C742 H757 0.929 . S
C743 C742 1.362 . S
C743 C744 1.366 . S
C744 C741 1.365 . S
C744 C743 1.366 . S
C744 H758 0.930 . S
C745 C742 1.378 . S
C745 N746 1.315 . S
C745 H748 0.930 . S
N746 Co726 2.194 . S
N746 C741 1.328 . S
N746 C745 1.315 . S
H747 C741 0.929 . S
H748 C745 0.930 . S
H749 C737 0.929 . S
H750 C739 0.929 . S
O751 Co726 2.351 . S
O751 C754 1.244 . S
O752 Co726 2.155 . S
O752 C754 1.240 . S
O753 Co726 2.096 . S
O753 C734 1.247 . S
C754 O751 1.244 . S
C754 O752 1.240 . S
H755 C729 0.931 . S
H756 C738 0.931 . S
H757 C742 0.929 . S
H758 C744 0.930 . S
Co759 N763 2.148 . S
Co759 N769 2.128 . S
Co759 N779 2.194 . S
Co759 O784 2.351 . S
Co759 O785 2.155 . S
Co759 O786 2.096 . S
C760 N763 1.301 . S
C760 N764 1.328 . S
C760 H765 0.930 . S
C761 C762 1.333 . S
C761 N763 1.317 . S
C761 H766 0.930 . S
C762 C761 1.333 . S
C762 N764 1.350 . S
C762 H788 0.931 . S
N763 Co759 2.148 . S
N763 C760 1.301 . S
N763 C761 1.317 . S
N764 C760 1.328 . S
N764 C762 1.350 . S
H765 C760 0.930 . S
H766 C761 0.930 . S
C767 O768 1.224 . S
C767 O786 1.247 . S
O768 C767 1.224 . S
N769 Co759 2.128 . S
N769 C770 1.355 . S
N769 C772 1.311 . S
C770 N769 1.355 . S
C770 C771 1.363 . S
C770 H782 0.929 . S
C771 C770 1.363 . S
C771 N773 1.375 . S
C771 H789 0.931 . S
C772 N769 1.311 . S
C772 N773 1.347 . S
C772 H783 0.929 . S
N773 C771 1.375 . S
N773 C772 1.347 . S
C774 C777 1.365 . S
C774 N779 1.328 . S
C774 H780 0.929 . S
C775 C776 1.362 . S
C775 C778 1.378 . S
C775 H790 0.929 . S
C776 C775 1.362 . S
C776 C777 1.366 . S
C777 C774 1.365 . S
C777 C776 1.366 . S
C777 H791 0.930 . S
C778 C775 1.378 . S
C778 N779 1.315 . S
C778 H781 0.930 . S
N779 Co759 2.194 . S
N779 C774 1.328 . S
N779 C778 1.315 . S
H780 C774 0.929 . S
H781 C778 0.930 . S
H782 C770 0.929 . S
H783 C772 0.929 . S
O784 Co759 2.351 . S
O784 C787 1.244 . S
O785 Co759 2.155 . S
O785 C787 1.240 . S
O786 Co759 2.096 . S
O786 C767 1.247 . S
C787 O784 1.244 . S
C787 O785 1.240 . S
H788 C762 0.931 . S
H789 C771 0.931 . S
H790 C775 0.929 . S
H791 C777 0.930 . S
Co792 N796 2.148 . S
Co792 N802 2.128 . S
Co792 N812 2.194 . S
Co792 O817 2.351 . S
Co792 O818 2.155 . S
Co792 O819 2.096 . S
C793 N796 1.301 . S
C793 N797 1.328 . S
C793 H798 0.930 . S
C794 C795 1.333 . S
C794 N796 1.317 . S
C794 H799 0.930 . S
C795 C794 1.333 . S
C795 N797 1.350 . S
C795 H821 0.931 . S
N796 Co792 2.148 . S
N796 C793 1.301 . S
N796 C794 1.317 . S
N797 C793 1.328 . S
N797 C795 1.350 . S
H798 C793 0.930 . S
H799 C794 0.930 . S
C800 O801 1.224 . S
C800 O819 1.247 . S
O801 C800 1.224 . S
N802 Co792 2.128 . S
N802 C803 1.355 . S
N802 C805 1.311 . S
C803 N802 1.355 . S
C803 C804 1.363 . S
C803 H815 0.929 . S
C804 C803 1.363 . S
C804 N806 1.375 . S
C804 H822 0.931 . S
C805 N802 1.311 . S
C805 N806 1.347 . S
C805 H816 0.929 . S
N806 C804 1.375 . S
N806 C805 1.347 . S
C807 C810 1.365 . S
C807 N812 1.328 . S
C807 H813 0.929 . S
C808 C809 1.362 . S
C808 C811 1.378 . S
C808 H823 0.929 . S
C809 C808 1.362 . S
C809 C810 1.366 . S
C810 C807 1.365 . S
C810 C809 1.366 . S
C810 H824 0.930 . S
C811 C808 1.378 . S
C811 N812 1.315 . S
C811 H814 0.930 . S
N812 Co792 2.194 . S
N812 C807 1.328 . S
N812 C811 1.315 . S
H813 C807 0.929 . S
H814 C811 0.930 . S
H815 C803 0.929 . S
H816 C805 0.929 . S
O817 Co792 2.351 . S
O817 C820 1.244 . S
O818 Co792 2.155 . S
O818 C820 1.240 . S
O819 Co792 2.096 . S
O819 C800 1.247 . S
C820 O817 1.244 . S
C820 O818 1.240 . S
H821 C795 0.931 . S
H822 C804 0.931 . S
H823 C808 0.929 . S
H824 C810 0.930 . S
Co825 N829 2.148 . S
Co825 N835 2.128 . S
Co825 N845 2.194 . S
Co825 O850 2.351 . S
Co825 O851 2.155 . S
Co825 O852 2.096 . S
C826 N829 1.301 . S
C826 N830 1.328 . S
C826 H831 0.930 . S
C827 C828 1.333 . S
C827 N829 1.317 . S
C827 H832 0.930 . S
C828 C827 1.333 . S
C828 N830 1.350 . S
C828 H854 0.931 . S
N829 Co825 2.148 . S
N829 C826 1.301 . S
N829 C827 1.317 . S
N830 C826 1.328 . S
N830 C828 1.350 . S
H831 C826 0.930 . S
H832 C827 0.930 . S
C833 O834 1.224 . S
C833 O852 1.247 . S
O834 C833 1.224 . S
N835 Co825 2.128 . S
N835 C836 1.355 . S
N835 C838 1.311 . S
C836 N835 1.355 . S
C836 C837 1.363 . S
C836 H848 0.929 . S
C837 C836 1.363 . S
C837 N839 1.375 . S
C837 H855 0.931 . S
C838 N835 1.311 . S
C838 N839 1.347 . S
C838 H849 0.929 . S
N839 C837 1.375 . S
N839 C838 1.347 . S
C840 C843 1.365 . S
C840 N845 1.328 . S
C840 H846 0.929 . S
C841 C842 1.362 . S
C841 C844 1.378 . S
C841 H856 0.929 . S
C842 C841 1.362 . S
C842 C843 1.366 . S
C843 C840 1.365 . S
C843 C842 1.366 . S
C843 H857 0.930 . S
C844 C841 1.378 . S
C844 N845 1.315 . S
C844 H847 0.930 . S
N845 Co825 2.194 . S
N845 C840 1.328 . S
N845 C844 1.315 . S
H846 C840 0.929 . S
H847 C844 0.930 . S
H848 C836 0.929 . S
H849 C838 0.929 . S
O850 Co825 2.351 . S
O850 C853 1.244 . S
O851 Co825 2.155 . S
O851 C853 1.240 . S
O852 Co825 2.096 . S
O852 C833 1.247 . S
C853 O850 1.244 . S
C853 O851 1.240 . S
H854 C828 0.931 . S
H855 C837 0.931 . S
H856 C841 0.929 . S
H857 C843 0.930 . S
Co858 N862 2.148 . S
Co858 N868 2.128 . S
Co858 N878 2.194 . S
Co858 O883 2.351 . S
Co858 O884 2.155 . S
Co858 O885 2.096 . S
C859 N862 1.301 . S
C859 N863 1.328 . S
C859 H864 0.930 . S
C860 C861 1.333 . S
C860 N862 1.317 . S
C860 H865 0.930 . S
C861 C860 1.333 . S
C861 N863 1.350 . S
C861 H887 0.931 . S
N862 Co858 2.148 . S
N862 C859 1.301 . S
N862 C860 1.317 . S
N863 C859 1.328 . S
N863 C861 1.350 . S
H864 C859 0.930 . S
H865 C860 0.930 . S
C866 O867 1.224 . S
C866 O885 1.247 . S
O867 C866 1.224 . S
N868 Co858 2.128 . S
N868 C869 1.355 . S
N868 C871 1.311 . S
C869 N868 1.355 . S
C869 C870 1.363 . S
C869 H881 0.929 . S
C870 C869 1.363 . S
C870 N872 1.375 . S
C870 H888 0.931 . S
C871 N868 1.311 . S
C871 N872 1.347 . S
C871 H882 0.929 . S
N872 C870 1.375 . S
N872 C871 1.347 . S
C873 C876 1.365 . S
C873 N878 1.328 . S
C873 H879 0.929 . S
C874 C875 1.362 . S
C874 C877 1.378 . S
C874 H889 0.929 . S
C875 C874 1.362 . S
C875 C876 1.366 . S
C876 C873 1.365 . S
C876 C875 1.366 . S
C876 H890 0.930 . S
C877 C874 1.378 . S
C877 N878 1.315 . S
C877 H880 0.930 . S
N878 Co858 2.194 . S
N878 C873 1.328 . S
N878 C877 1.315 . S
H879 C873 0.929 . S
H880 C877 0.930 . S
H881 C869 0.929 . S
H882 C871 0.929 . S
O883 Co858 2.351 . S
O883 C886 1.244 . S
O884 Co858 2.155 . S
O884 C886 1.240 . S
O885 Co858 2.096 . S
O885 C866 1.247 . S
C886 O883 1.244 . S
C886 O884 1.240 . S
H887 C861 0.931 . S
H888 C870 0.931 . S
H889 C874 0.929 . S
H890 C876 0.930 . S
Co891 N895 2.148 . S
Co891 N901 2.128 . S
Co891 N911 2.194 . S
Co891 O916 2.351 . S
Co891 O917 2.155 . S
Co891 O918 2.096 1_455 S
C892 N895 1.301 . S
C892 N896 1.328 . S
C892 H897 0.930 . S
C893 C894 1.333 . S
C893 N895 1.317 . S
C893 H898 0.930 1_455 S
C894 C893 1.333 . S
C894 N896 1.350 . S
C894 H920 0.931 . S
N895 Co891 2.148 . S
N895 C892 1.301 . S
N895 C893 1.317 . S
N896 C892 1.328 . S
N896 C894 1.350 . S
H897 C892 0.930 . S
H898 C893 0.930 1_655 S
C899 O900 1.224 . S
C899 O918 1.247 . S
O900 C899 1.224 . S
N901 Co891 2.128 . S
N901 C902 1.355 . S
N901 C904 1.311 1_455 S
C902 N901 1.355 . S
C902 C903 1.363 . S
C902 H914 0.929 . S
C903 C902 1.363 . S
C903 N905 1.375 1_455 S
C903 H921 0.931 . S
C904 N901 1.311 1_655 S
C904 N905 1.347 . S
C904 H915 0.929 . S
N905 C903 1.375 1_655 S
N905 C904 1.347 . S
C906 C909 1.365 . S
C906 N911 1.328 . S
C906 H912 0.929 . S
C907 C908 1.362 1_655 S
C907 C910 1.378 . S
C907 H922 0.929 . S
C908 C907 1.362 1_455 S
C908 C909 1.366 . S
C909 C906 1.365 . S
C909 C908 1.366 . S
C909 H923 0.930 . S
C910 C907 1.378 . S
C910 N911 1.315 1_655 S
C910 H913 0.930 . S
N911 Co891 2.194 . S
N911 C906 1.328 . S
N911 C910 1.315 1_455 S
H912 C906 0.929 . S
H913 C910 0.930 . S
H914 C902 0.929 . S
H915 C904 0.929 . S
O916 Co891 2.351 . S
O916 C919 1.244 . S
O917 Co891 2.155 . S
O917 C919 1.240 . S
O918 Co891 2.096 1_655 S
O918 C899 1.247 . S
C919 O916 1.244 . S
C919 O917 1.240 . S
H920 C894 0.931 . S
H921 C903 0.931 . S
H922 C907 0.929 . S
H923 C909 0.930 . S
Co924 N928 2.148 . S
Co924 N934 2.128 . S
Co924 N944 2.194 . S
Co924 O949 2.351 . S
Co924 O950 2.155 . S
Co924 O951 2.096 . S
C925 N928 1.301 . S
C925 N929 1.328 . S
C925 H930 0.930 . S
C926 C927 1.333 . S
C926 N928 1.317 . S
C926 H931 0.930 . S
C927 C926 1.333 . S
C927 N929 1.350 . S
C927 H953 0.931 . S
N928 Co924 2.148 . S
N928 C925 1.301 . S
N928 C926 1.317 . S
N929 C925 1.328 . S
N929 C927 1.350 . S
H930 C925 0.930 . S
H931 C926 0.930 . S
C932 O933 1.224 . S
C932 O951 1.247 . S
O933 C932 1.224 . S
N934 Co924 2.128 . S
N934 C935 1.355 . S
N934 C937 1.311 . S
C935 N934 1.355 . S
C935 C936 1.363 . S
C935 H947 0.929 . S
C936 C935 1.363 . S
C936 N938 1.375 . S
C936 H954 0.931 . S
C937 N934 1.311 . S
C937 N938 1.347 . S
C937 H948 0.929 . S
N938 C936 1.375 . S
N938 C937 1.347 . S
C939 C942 1.365 . S
C939 N944 1.328 . S
C939 H945 0.929 . S
C940 C941 1.362 . S
C940 C943 1.378 . S
C940 H955 0.929 . S
C941 C940 1.362 . S
C941 C942 1.366 . S
C942 C939 1.365 . S
C942 C941 1.366 . S
C942 H956 0.930 . S
C943 C940 1.378 . S
C943 N944 1.315 . S
C943 H946 0.930 . S
N944 Co924 2.194 . S
N944 C939 1.328 . S
N944 C943 1.315 . S
H945 C939 0.929 . S
H946 C943 0.930 . S
H947 C935 0.929 . S
H948 C937 0.929 . S
O949 Co924 2.351 . S
O949 C952 1.244 . S
O950 Co924 2.155 . S
O950 C952 1.240 . S
O951 Co924 2.096 . S
O951 C932 1.247 . S
C952 O949 1.244 . S
C952 O950 1.240 . S
H953 C927 0.931 . S
H954 C936 0.931 . S
H955 C940 0.929 . S
H956 C942 0.930 . S
Co957 N961 2.148 . S
Co957 N967 2.128 . S
Co957 N977 2.194 . S
Co957 O982 2.351 . S
Co957 O983 2.155 . S
Co957 O984 2.096 1_455 S
C958 N961 1.301 . S
C958 N962 1.328 . S
C958 H963 0.930 . S
C959 C960 1.333 . S
C959 N961 1.317 . S
C959 H964 0.930 1_455 S
C960 C959 1.333 . S
C960 N962 1.350 . S
C960 H986 0.931 . S
N961 Co957 2.148 . S
N961 C958 1.301 . S
N961 C959 1.317 . S
N962 C958 1.328 . S
N962 C960 1.350 . S
H963 C958 0.930 . S
H964 C959 0.930 1_655 S
C965 O966 1.224 . S
C965 O984 1.247 . S
O966 C965 1.224 . S
N967 Co957 2.128 . S
N967 C968 1.355 . S
N967 C970 1.311 1_455 S
C968 N967 1.355 . S
C968 C969 1.363 . S
C968 H980 0.929 . S
C969 C968 1.363 . S
C969 N971 1.375 1_455 S
C969 H987 0.931 . S
C970 N967 1.311 1_655 S
C970 N971 1.347 . S
C970 H981 0.929 . S
N971 C969 1.375 1_655 S
N971 C970 1.347 . S
C972 C975 1.365 . S
C972 N977 1.328 . S
C972 H978 0.929 . S
C973 C974 1.362 1_655 S
C973 C976 1.378 . S
C973 H988 0.929 . S
C974 C973 1.362 1_455 S
C974 C975 1.366 . S
C975 C972 1.365 . S
C975 C974 1.366 . S
C975 H989 0.930 . S
C976 C973 1.378 . S
C976 N977 1.315 1_655 S
C976 H979 0.930 . S
N977 Co957 2.194 . S
N977 C972 1.328 . S
N977 C976 1.315 1_455 S
H978 C972 0.929 . S
H979 C976 0.930 . S
H980 C968 0.929 . S
H981 C970 0.929 . S
O982 Co957 2.351 . S
O982 C985 1.244 . S
O983 Co957 2.155 . S
O983 C985 1.240 . S
O984 Co957 2.096 1_655 S
O984 C965 1.247 . S
C985 O982 1.244 . S
C985 O983 1.240 . S
H986 C960 0.931 . S
H987 C969 0.931 . S
H988 C973 0.929 . S
H989 C975 0.930 . S
Co990 N994 2.148 . S
Co990 N1000 2.128 . S
Co990 N1010 2.194 . S
Co990 O1015 2.351 . S
Co990 O1016 2.155 . S
Co990 O1017 2.096 . S
C991 N994 1.301 . S
C991 N995 1.328 . S
C991 H996 0.930 . S
C992 C993 1.333 . S
C992 N994 1.317 . S
C992 H997 0.930 . S
C993 C992 1.333 . S
C993 N995 1.350 . S
C993 H1019 0.931 . S
N994 Co990 2.148 . S
N994 C991 1.301 . S
N994 C992 1.317 . S
N995 C991 1.328 . S
N995 C993 1.350 . S
H996 C991 0.930 . S
H997 C992 0.930 . S
C998 O999 1.224 . S
C998 O1017 1.247 . S
O999 C998 1.224 . S
N1000 Co990 2.128 . S
N1000 C1001 1.355 . S
N1000 C1003 1.311 . S
C1001 N1000 1.355 . S
C1001 C1002 1.363 . S
C1001 H1013 0.929 . S
C1002 C1001 1.363 . S
C1002 N1004 1.375 . S
C1002 H1020 0.931 . S
C1003 N1000 1.311 . S
C1003 N1004 1.347 . S
C1003 H1014 0.929 . S
N1004 C1002 1.375 . S
N1004 C1003 1.347 . S
C1005 C1008 1.365 . S
C1005 N1010 1.328 . S
C1005 H1011 0.929 . S
C1006 C1007 1.362 . S
C1006 C1009 1.378 . S
C1006 H1021 0.929 . S
C1007 C1006 1.362 . S
C1007 C1008 1.366 . S
C1008 C1005 1.365 . S
C1008 C1007 1.366 . S
C1008 H1022 0.930 . S
C1009 C1006 1.378 . S
C1009 N1010 1.315 . S
C1009 H1012 0.930 . S
N1010 Co990 2.194 . S
N1010 C1005 1.328 . S
N1010 C1009 1.315 . S
H1011 C1005 0.929 . S
H1012 C1009 0.930 . S
H1013 C1001 0.929 . S
H1014 C1003 0.929 . S
O1015 Co990 2.351 . S
O1015 C1018 1.244 . S
O1016 Co990 2.155 . S
O1016 C1018 1.240 . S
O1017 Co990 2.096 . S
O1017 C998 1.247 . S
C1018 O1015 1.244 . S
C1018 O1016 1.240 . S
H1019 C993 0.931 . S
H1020 C1002 0.931 . S
H1021 C1006 0.929 . S
H1022 C1008 0.930 . S
Co1023 N1027 2.148 . S
Co1023 N1033 2.128 . S
Co1023 N1043 2.194 . S
Co1023 O1048 2.351 . S
Co1023 O1049 2.155 . S
Co1023 O1050 2.096 . S
C1024 N1027 1.301 . S
C1024 N1028 1.328 . S
C1024 H1029 0.930 . S
C1025 C1026 1.333 . S
C1025 N1027 1.317 . S
C1025 H1030 0.930 . S
C1026 C1025 1.333 . S
C1026 N1028 1.350 . S
C1026 H1052 0.931 . S
N1027 Co1023 2.148 . S
N1027 C1024 1.301 . S
N1027 C1025 1.317 . S
N1028 C1024 1.328 . S
N1028 C1026 1.350 . S
H1029 C1024 0.930 . S
H1030 C1025 0.930 . S
C1031 O1032 1.224 . S
C1031 O1050 1.247 . S
O1032 C1031 1.224 . S
N1033 Co1023 2.128 . S
N1033 C1034 1.355 . S
N1033 C1036 1.311 . S
C1034 N1033 1.355 . S
C1034 C1035 1.363 . S
C1034 H1046 0.929 . S
C1035 C1034 1.363 . S
C1035 N1037 1.375 . S
C1035 H1053 0.931 . S
C1036 N1033 1.311 . S
C1036 N1037 1.347 . S
C1036 H1047 0.929 . S
N1037 C1035 1.375 . S
N1037 C1036 1.347 . S
C1038 C1041 1.365 . S
C1038 N1043 1.328 . S
C1038 H1044 0.929 . S
C1039 C1040 1.362 . S
C1039 C1042 1.378 . S
C1039 H1054 0.929 . S
C1040 C1039 1.362 . S
C1040 C1041 1.366 . S
C1041 C1038 1.365 . S
C1041 C1040 1.366 . S
C1041 H1055 0.930 . S
C1042 C1039 1.378 . S
C1042 N1043 1.315 . S
C1042 H1045 0.930 . S
N1043 Co1023 2.194 . S
N1043 C1038 1.328 . S
N1043 C1042 1.315 . S
H1044 C1038 0.929 . S
H1045 C1042 0.930 . S
H1046 C1034 0.929 . S
H1047 C1036 0.929 . S
O1048 Co1023 2.351 . S
O1048 C1051 1.244 . S
O1049 Co1023 2.155 . S
O1049 C1051 1.240 . S
O1050 Co1023 2.096 . S
O1050 C1031 1.247 . S
C1051 O1048 1.244 . S
C1051 O1049 1.240 . S
H1052 C1026 0.931 . S
H1053 C1035 0.931 . S
H1054 C1039 0.929 . S
H1055 C1041 0.930 . S
C1056 C1057 1.369 . S
C1056 C1058 1.419 . S
C1056 H1060 0.930 . S
C1057 C1056 1.369 . S
C1057 C1066 1.429 . S
C1058 C1056 1.419 . S
C1058 C1059 1.363 . S
C1058 H1061 0.929 . S
C1059 C1058 1.363 . S
C1059 C1065 1.428 . S
H1060 C1056 0.930 . S
H1061 C1058 0.929 . S
S1062 N1063 1.613 . S
S1062 N1064 1.610 . S
N1063 S1062 1.613 . S
N1063 C1066 1.350 . S
N1064 S1062 1.610 . S
N1064 C1065 1.351 . S
C1065 C1059 1.428 . S
C1065 N1064 1.351 . S
C1065 C1066 1.434 . S
C1066 C1057 1.429 . S
C1066 N1063 1.350 . S
C1066 C1065 1.434 . S
C1067 C1068 1.369 1_455 S
C1067 C1069 1.419 . S
C1067 H1071 0.930 . S
C1068 C1067 1.369 1_655 S
C1068 C1077 1.429 . S
C1069 C1067 1.419 . S
C1069 C1070 1.363 . S
C1069 H1072 0.929 . S
C1070 C1069 1.363 . S
C1070 C1076 1.428 1_455 S
H1071 C1067 0.930 . S
H1072 C1069 0.929 . S
S1073 N1074 1.613 . S
S1073 N1075 1.610 . S
N1074 S1073 1.613 . S
N1074 C1077 1.350 . S
N1075 S1073 1.610 . S
N1075 C1076 1.351 . S
C1076 C1070 1.428 1_655 S
C1076 N1075 1.351 . S
C1076 C1077 1.434 . S
C1077 C1068 1.429 . S
C1077 N1074 1.350 . S
C1077 C1076 1.434 . S
C1078 C1079 1.369 . S
C1078 C1080 1.419 1_455 S
C1078 H1082 0.930 . S
C1079 C1078 1.369 . S
C1079 C1088 1.429 . S
C1080 C1078 1.419 1_655 S
C1080 C1081 1.363 . S
C1080 H1083 0.929 . S
C1081 C1080 1.363 . S
C1081 C1087 1.428 . S
H1082 C1078 0.930 . S
H1083 C1080 0.929 . S
S1084 N1085 1.613 . S
S1084 N1086 1.610 . S
N1085 S1084 1.613 . S
N1085 C1088 1.350 1_655 S
N1086 S1084 1.610 . S
N1086 C1087 1.351 . S
C1087 C1081 1.428 . S
C1087 N1086 1.351 . S
C1087 C1088 1.434 1_655 S
C1088 C1079 1.429 . S
C1088 N1085 1.350 1_455 S
C1088 C1087 1.434 1_455 S
C1089 C1090 1.369 . S
C1089 C1091 1.419 . S
C1089 H1093 0.930 . S
C1090 C1089 1.369 . S
C1090 C1099 1.429 . S
C1091 C1089 1.419 . S
C1091 C1092 1.363 . S
C1091 H1094 0.929 . S
C1092 C1091 1.363 . S
C1092 C1098 1.428 . S
H1093 C1089 0.930 . S
H1094 C1091 0.929 . S
S1095 N1096 1.613 . S
S1095 N1097 1.610 . S
N1096 S1095 1.613 . S
N1096 C1099 1.350 . S
N1097 S1095 1.610 . S
N1097 C1098 1.351 . S
C1098 C1092 1.428 . S
C1098 N1097 1.351 . S
C1098 C1099 1.434 . S
C1099 C1090 1.429 . S
C1099 N1096 1.350 . S
C1099 C1098 1.434 . S
C1100 C1101 1.369 . S
C1100 C1102 1.419 . S
C1100 H1104 0.930 . S
C1101 C1100 1.369 . S
C1101 C1110 1.429 . S
C1102 C1100 1.419 . S
C1102 C1103 1.363 . S
C1102 H1105 0.929 . S
C1103 C1102 1.363 . S
C1103 C1109 1.428 . S
H1104 C1100 0.930 . S
H1105 C1102 0.929 . S
S1106 N1107 1.613 . S
S1106 N1108 1.610 . S
N1107 S1106 1.613 . S
N1107 C1110 1.350 . S
N1108 S1106 1.610 . S
N1108 C1109 1.351 . S
C1109 C1103 1.428 . S
C1109 N1108 1.351 . S
C1109 C1110 1.434 . S
C1110 C1101 1.429 . S
C1110 N1107 1.350 . S
C1110 C1109 1.434 . S
C1111 C1112 1.369 . S
C1111 C1113 1.419 . S
C1111 H1115 0.930 . S
C1112 C1111 1.369 . S
C1112 C1121 1.429 . S
C1113 C1111 1.419 . S
C1113 C1114 1.363 . S
C1113 H1116 0.929 . S
C1114 C1113 1.363 . S
C1114 C1120 1.428 . S
H1115 C1111 0.930 . S
H1116 C1113 0.929 . S
S1117 N1118 1.613 . S
S1117 N1119 1.610 . S
N1118 S1117 1.613 . S
N1118 C1121 1.350 . S
N1119 S1117 1.610 . S
N1119 C1120 1.351 . S
C1120 C1114 1.428 . S
C1120 N1119 1.351 . S
C1120 C1121 1.434 . S
C1121 C1112 1.429 . S
C1121 N1118 1.350 . S
C1121 C1120 1.434 . S
C1122 C1123 1.369 . S
C1122 C1124 1.419 1_455 S
C1122 H1126 0.930 . S
C1123 C1122 1.369 . S
C1123 C1132 1.429 . S
C1124 C1122 1.419 1_655 S
C1124 C1125 1.363 . S
C1124 H1127 0.929 . S
C1125 C1124 1.363 . S
C1125 C1131 1.447 . S
H1126 C1122 0.930 . S
H1127 C1124 0.929 . S
S1128 N1129 1.613 . S
S1128 N1130 1.610 . S
N1129 S1128 1.613 . S
N1129 C1132 1.350 . S
N1130 S1128 1.610 . S
N1130 C1131 1.349 1_455 S
C1131 C1125 1.447 . S
C1131 N1130 1.349 1_655 S
C1131 C1132 1.415 1_655 S
C1132 C1123 1.429 . S
C1132 N1129 1.350 . S
C1132 C1131 1.415 1_455 S
C1133 C1134 1.369 1_455 S
C1133 C1135 1.419 . S
C1133 H1137 0.930 . S
C1134 C1133 1.369 1_655 S
C1134 C1143 1.429 . S
C1135 C1133 1.419 . S
C1135 C1136 1.363 . S
C1135 H1138 0.929 . S
C1136 C1135 1.363 . S
C1136 C1142 1.428 1_455 S
H1137 C1133 0.930 . S
H1138 C1135 0.929 . S
S1139 N1140 1.613 . S
S1139 N1141 1.610 . S
N1140 S1139 1.613 . S
N1140 C1143 1.350 . S
N1141 S1139 1.610 . S
N1141 C1142 1.351 . S
C1142 C1136 1.428 1_655 S
C1142 N1141 1.351 . S
C1142 C1143 1.434 . S
C1143 C1134 1.429 . S
C1143 N1140 1.350 . S
C1143 C1142 1.434 . S
C1144 C1145 1.369 . S
C1144 C1146 1.419 . S
C1144 H1148 0.930 . S
C1145 C1144 1.369 . S
C1145 C1154 1.429 . S
C1146 C1144 1.419 . S
C1146 C1147 1.363 . S
C1146 H1149 0.929 . S
C1147 C1146 1.363 . S
C1147 C1153 1.428 . S
H1148 C1144 0.930 . S
H1149 C1146 0.929 . S
S1150 N1151 1.613 . S
S1150 N1152 1.610 . S
N1151 S1150 1.613 . S
N1151 C1154 1.350 . S
N1152 S1150 1.610 . S
N1152 C1153 1.351 . S
C1153 C1147 1.428 . S
C1153 N1152 1.351 . S
C1153 C1154 1.434 . S
C1154 C1145 1.429 . S
C1154 N1151 1.350 . S
C1154 C1153 1.434 . S
C1155 C1156 1.369 . S
C1155 C1157 1.416 1_655 S
C1155 H1159 0.930 . S
C1156 C1155 1.369 . S
C1156 C1165 1.432 . S
C1157 C1155 1.416 1_455 S
C1157 C1158 1.366 . S
C1157 H1160 0.929 1_455 S
C1158 C1157 1.366 . S
C1158 C1164 1.428 . S
H1159 C1155 0.930 . S
H1160 C1157 0.929 1_655 S
S1161 N1162 1.630 . S
S1161 N1163 1.610 . S
N1162 S1161 1.630 . S
N1162 C1165 1.349 1_455 S
N1163 S1161 1.610 . S
N1163 C1164 1.351 . S
C1164 C1158 1.428 . S
C1164 N1163 1.351 . S
C1164 C1165 1.430 1_455 S
C1165 C1156 1.432 . S
C1165 N1162 1.349 1_655 S
C1165 C1164 1.430 1_655 S
C1166 C1167 1.369 . S
C1166 C1168 1.419 1_655 S
C1166 H1170 0.930 . S
C1167 C1166 1.369 . S
C1167 C1176 1.429 . S
C1168 C1166 1.419 1_455 S
C1168 C1169 1.363 . S
C1168 H1171 0.929 . S
C1169 C1168 1.363 . S
C1169 C1175 1.428 . S
H1170 C1166 0.930 . S
H1171 C1168 0.929 . S
S1172 N1173 1.613 . S
S1172 N1174 1.610 1_655 S
N1173 S1172 1.613 . S
N1173 C1176 1.350 . S
N1174 S1172 1.610 1_455 S
N1174 C1175 1.351 . S
C1175 C1169 1.428 . S
C1175 N1174 1.351 . S
C1175 C1176 1.434 1_455 S
C1176 C1167 1.429 . S
C1176 N1173 1.350 . S
C1176 C1175 1.434 1_655 S
C1177 C1178 1.369 . S
C1177 C1179 1.419 . S
C1177 H1181 0.930 . S
C1178 C1177 1.369 . S
C1178 C1187 1.429 . S
C1179 C1177 1.419 . S
C1179 C1180 1.363 . S
C1179 H1182 0.929 . S
C1180 C1179 1.363 . S
C1180 C1186 1.428 . S
H1181 C1177 0.930 . S
H1182 C1179 0.929 . S
S1183 N1184 1.613 . S
S1183 N1185 1.610 . S
N1184 S1183 1.613 . S
N1184 C1187 1.350 . S
N1185 S1183 1.610 . S
N1185 C1186 1.351 . S
C1186 C1180 1.428 . S
C1186 N1185 1.351 . S
C1186 C1187 1.434 . S
C1187 C1178 1.429 . S
C1187 N1184 1.350 . S
C1187 C1186 1.434 . S
C1188 C1189 1.369 . S
C1188 C1190 1.419 . S
C1188 H1192 0.930 . S
C1189 C1188 1.369 . S
C1189 C1198 1.429 . S
C1190 C1188 1.419 . S
C1190 C1191 1.363 . S
C1190 H1193 0.929 . S
C1191 C1190 1.363 . S
C1191 C1197 1.428 . S
H1192 C1188 0.930 . S
H1193 C1190 0.929 . S
S1194 N1195 1.613 . S
S1194 N1196 1.610 . S
N1195 S1194 1.613 . S
N1195 C1198 1.350 . S
N1196 S1194 1.610 . S
N1196 C1197 1.351 . S
C1197 C1191 1.428 . S
C1197 N1196 1.351 . S
C1197 C1198 1.434 . S
C1198 C1189 1.429 . S
C1198 N1195 1.350 . S
C1198 C1197 1.434 . S
C1199 C1200 1.369 . S
C1199 C1201 1.419 . S
C1199 H1203 0.930 . S
C1200 C1199 1.369 . S
C1200 C1209 1.429 . S
C1201 C1199 1.419 . S
C1201 C1202 1.363 . S
C1201 H1204 0.929 . S
C1202 C1201 1.363 . S
C1202 C1208 1.428 . S
H1203 C1199 0.930 . S
H1204 C1201 0.929 . S
S1205 N1206 1.613 . S
S1205 N1207 1.610 . S
N1206 S1205 1.613 . S
N1206 C1209 1.350 . S
N1207 S1205 1.610 . S
N1207 C1208 1.351 . S
C1208 C1202 1.428 . S
C1208 N1207 1.351 . S
C1208 C1209 1.434 . S
C1209 C1200 1.429 . S
C1209 N1206 1.350 . S
C1209 C1208 1.434 . S
C1210 C1211 1.369 . S
C1210 C1212 1.419 1_455 S
C1210 H1214 0.930 . S
C1211 C1210 1.369 . S
C1211 C1220 1.429 . S
C1212 C1210 1.419 1_655 S
C1212 C1213 1.363 . S
C1212 H1215 0.929 . S
C1213 C1212 1.363 . S
C1213 C1219 1.426 1_655 S
H1214 C1210 0.930 . S
H1215 C1212 0.929 . S
S1216 N1217 1.613 . S
S1216 N1218 1.610 . S
N1217 S1216 1.613 . S
N1217 C1220 1.350 . S
N1218 S1216 1.610 . S
N1218 C1219 1.351 . S
C1219 C1213 1.426 1_455 S
C1219 N1218 1.351 . S
C1219 C1220 1.436 . S
C1220 C1211 1.429 . S
C1220 N1217 1.350 . S
C1220 C1219 1.436 . S
C1221 C1222 1.369 . S
C1221 C1223 1.419 1_655 S
C1221 H1225 0.930 . S
C1222 C1221 1.369 . S
C1222 C1231 1.429 . S
C1223 C1221 1.419 1_455 S
C1223 C1224 1.363 . S
C1223 H1226 0.929 . S
C1224 C1223 1.363 . S
C1224 C1230 1.428 . S
H1225 C1221 0.930 . S
H1226 C1223 0.929 . S
S1227 N1228 1.613 . S
S1227 N1229 1.610 1_655 S
N1228 S1227 1.613 . S
N1228 C1231 1.350 . S
N1229 S1227 1.610 1_455 S
N1229 C1230 1.351 . S
C1230 C1224 1.428 . S
C1230 N1229 1.351 . S
C1230 C1231 1.434 1_455 S
C1231 C1222 1.429 . S
C1231 N1228 1.350 . S
C1231 C1230 1.434 1_655 S
C1232 C1233 1.369 . S
C1232 C1234 1.419 . S
C1232 H1236 0.930 . S
C1233 C1232 1.369 . S
C1233 C1242 1.429 . S
C1234 C1232 1.419 . S
C1234 C1235 1.363 . S
C1234 H1237 0.929 . S
C1235 C1234 1.363 . S
C1235 C1241 1.428 . S
H1236 C1232 0.930 . S
H1237 C1234 0.929 . S
S1238 N1239 1.613 . S
S1238 N1240 1.610 . S
N1239 S1238 1.613 . S
N1239 C1242 1.350 . S
N1240 S1238 1.610 . S
N1240 C1241 1.351 . S
C1241 C1235 1.428 . S
C1241 N1240 1.351 . S
C1241 C1242 1.434 . S
C1242 C1233 1.429 . S
C1242 N1239 1.350 . S
C1242 C1241 1.434 . S
C1243 C1244 1.369 . S
C1243 C1245 1.419 . S
C1243 H1247 0.930 . S
C1244 C1243 1.369 . S
C1244 C1253 1.429 . S
C1245 C1243 1.419 . S
C1245 C1246 1.363 . S
C1245 H1248 0.929 . S
C1246 C1245 1.363 . S
C1246 C1252 1.428 . S
H1247 C1243 0.930 . S
H1248 C1245 0.929 . S
S1249 N1250 1.613 . S
S1249 N1251 1.610 . S
N1250 S1249 1.613 . S
N1250 C1253 1.350 . S
N1251 S1249 1.610 . S
N1251 C1252 1.351 . S
C1252 C1246 1.428 . S
C1252 N1251 1.351 . S
C1252 C1253 1.434 . S
C1253 C1244 1.429 . S
C1253 N1250 1.350 . S
C1253 C1252 1.434 . S
C1254 C1255 1.369 . S
C1254 C1256 1.419 . S
C1254 H1258 0.930 . S
C1255 C1254 1.369 . S
C1255 C1264 1.429 . S
C1256 C1254 1.419 . S
C1256 C1257 1.363 . S
C1256 H1259 0.929 . S
C1257 C1256 1.363 . S
C1257 C1263 1.428 . S
H1258 C1254 0.930 . S
H1259 C1256 0.929 . S
S1260 N1261 1.613 . S
S1260 N1262 1.610 . S
N1261 S1260 1.613 . S
N1261 C1264 1.350 . S
N1262 S1260 1.610 . S
N1262 C1263 1.351 . S
C1263 C1257 1.428 . S
C1263 N1262 1.351 . S
C1263 C1264 1.434 . S
C1264 C1255 1.429 . S
C1264 N1261 1.350 . S
C1264 C1263 1.434 . S
C1265 C1266 1.369 . S
C1265 C1267 1.419 . S
C1265 H1269 0.930 . S
C1266 C1265 1.369 . S
C1266 C1275 1.429 . S
C1267 C1265 1.419 . S
C1267 C1268 1.363 . S
C1267 H1270 0.929 . S
C1268 C1267 1.363 . S
C1268 C1274 1.428 . S
H1269 C1265 0.930 . S
H1270 C1267 0.929 . S
S1271 N1272 1.613 . S
S1271 N1273 1.610 . S
N1272 S1271 1.613 . S
N1272 C1275 1.350 . S
N1273 S1271 1.610 . S
N1273 C1274 1.351 . S
C1274 C1268 1.428 . S
C1274 N1273 1.351 . S
C1274 C1275 1.434 . S
C1275 C1266 1.429 . S
C1275 N1272 1.350 . S
C1275 C1274 1.434 . S
C1276 C1277 1.369 . S
C1276 C1278 1.419 . S
C1276 H1280 0.930 . S
C1277 C1276 1.369 . S
C1277 C1286 1.429 . S
C1278 C1276 1.419 . S
C1278 C1279 1.363 . S
C1278 H1281 0.929 . S
C1279 C1278 1.363 . S
C1279 C1285 1.428 . S
H1280 C1276 0.930 . S
H1281 C1278 0.929 . S
S1282 N1283 1.613 . S
S1282 N1284 1.610 . S
N1283 S1282 1.613 . S
N1283 C1286 1.350 . S
N1284 S1282 1.610 . S
N1284 C1285 1.351 . S
C1285 C1279 1.428 . S
C1285 N1284 1.351 . S
C1285 C1286 1.434 . S
C1286 C1277 1.429 . S
C1286 N1283 1.350 . S
C1286 C1285 1.434 . S
C1287 C1288 1.369 . S
C1287 C1289 1.419 . S
C1287 H1291 0.930 . S
C1288 C1287 1.369 . S
C1288 C1297 1.429 . S
C1289 C1287 1.419 . S
C1289 C1290 1.363 . S
C1289 H1292 0.929 . S
C1290 C1289 1.363 . S
C1290 C1296 1.428 . S
H1291 C1287 0.930 . S
H1292 C1289 0.929 . S
S1293 N1294 1.613 . S
S1293 N1295 1.610 . S
N1294 S1293 1.613 . S
N1294 C1297 1.350 . S
N1295 S1293 1.610 . S
N1295 C1296 1.351 . S
C1296 C1290 1.428 . S
C1296 N1295 1.351 . S
C1296 C1297 1.434 . S
C1297 C1288 1.429 . S
C1297 N1294 1.350 . S
C1297 C1296 1.434 . S
C1298 C1299 1.369 . S
C1298 C1300 1.419 . S
C1298 H1302 0.930 . S
C1299 C1298 1.369 . S
C1299 C1308 1.429 . S
C1300 C1298 1.419 . S
C1300 C1301 1.363 . S
C1300 H1303 0.929 . S
C1301 C1300 1.363 . S
C1301 C1307 1.428 . S
H1302 C1298 0.930 . S
H1303 C1300 0.929 . S
S1304 N1305 1.613 . S
S1304 N1306 1.610 . S
N1305 S1304 1.613 . S
N1305 C1308 1.350 . S
N1306 S1304 1.610 . S
N1306 C1307 1.351 . S
C1307 C1301 1.428 . S
C1307 N1306 1.351 . S
C1307 C1308 1.434 . S
C1308 C1299 1.429 . S
C1308 N1305 1.350 . S
C1308 C1307 1.434 . S
C1309 C1310 1.369 . S
C1309 C1311 1.419 . S
C1309 H1313 0.930 . S
C1310 C1309 1.369 . S
C1310 C1319 1.429 . S
C1311 C1309 1.419 . S
C1311 C1312 1.363 . S
C1311 H1314 0.929 . S
C1312 C1311 1.363 . S
C1312 C1318 1.428 . S
H1313 C1309 0.930 . S
H1314 C1311 0.929 . S
S1315 N1316 1.613 . S
S1315 N1317 1.610 . S
N1316 S1315 1.613 . S
N1316 C1319 1.350 . S
N1317 S1315 1.610 . S
N1317 C1318 1.351 . S
C1318 C1312 1.428 . S
C1318 N1317 1.351 . S
C1318 C1319 1.434 . S
C1319 C1310 1.429 . S
C1319 N1316 1.350 . S
C1319 C1318 1.434 . S
C1320 C1321 1.369 . S
C1320 C1322 1.419 . S
C1320 H1324 0.930 . S
C1321 C1320 1.369 . S
C1321 C1330 1.429 . S
C1322 C1320 1.419 . S
C1322 C1323 1.363 . S
C1322 H1325 0.929 . S
C1323 C1322 1.363 . S
C1323 C1329 1.428 . S
H1324 C1320 0.930 . S
H1325 C1322 0.929 . S
S1326 N1327 1.613 . S
S1326 N1328 1.610 . S
N1327 S1326 1.613 . S
N1327 C1330 1.350 . S
N1328 S1326 1.610 . S
N1328 C1329 1.351 . S
C1329 C1323 1.428 . S
C1329 N1328 1.351 . S
C1329 C1330 1.434 . S
C1330 C1321 1.429 . S
C1330 N1327 1.350 . S
C1330 C1329 1.434 . S
C1331 C1332 1.369 . S
C1331 C1333 1.419 . S
C1331 H1335 0.930 . S
C1332 C1331 1.369 . S
C1332 C1341 1.429 . S
C1333 C1331 1.419 . S
C1333 C1334 1.363 . S
C1333 H1336 0.929 . S
C1334 C1333 1.363 . S
C1334 C1340 1.428 . S
H1335 C1331 0.930 . S
H1336 C1333 0.929 . S
S1337 N1338 1.613 . S
S1337 N1339 1.610 . S
N1338 S1337 1.613 . S
N1338 C1341 1.350 . S
N1339 S1337 1.610 . S
N1339 C1340 1.351 . S
C1340 C1334 1.428 . S
C1340 N1339 1.351 . S
C1340 C1341 1.434 . S
C1341 C1332 1.429 . S
C1341 N1338 1.350 . S
C1341 C1340 1.434 . S
C1342 C1343 1.369 . S
C1342 C1344 1.419 . S
C1342 H1346 0.930 . S
C1343 C1342 1.369 . S
C1343 C1352 1.429 . S
C1344 C1342 1.419 . S
C1344 C1345 1.363 . S
C1344 H1347 0.929 . S
C1345 C1344 1.363 . S
C1345 C1351 1.428 . S
H1346 C1342 0.930 . S
H1347 C1344 0.929 . S
S1348 N1349 1.613 . S
S1348 N1350 1.610 . S
N1349 S1348 1.613 . S
N1349 C1352 1.350 . S
N1350 S1348 1.610 . S
N1350 C1351 1.351 . S
C1351 C1345 1.428 . S
C1351 N1350 1.351 . S
C1351 C1352 1.434 . S
C1352 C1343 1.429 . S
C1352 N1349 1.350 . S
C1352 C1351 1.434 . S
C1353 C1354 1.369 . S
C1353 C1355 1.419 . S
C1353 H1357 0.930 . S
C1354 C1353 1.369 . S
C1354 C1363 1.429 . S
C1355 C1353 1.419 . S
C1355 C1356 1.363 . S
C1355 H1358 0.929 . S
C1356 C1355 1.363 . S
C1356 C1362 1.428 . S
H1357 C1353 0.930 . S
H1358 C1355 0.929 . S
S1359 N1360 1.613 . S
S1359 N1361 1.610 . S
N1360 S1359 1.613 . S
N1360 C1363 1.350 . S
N1361 S1359 1.610 . S
N1361 C1362 1.351 . S
C1362 C1356 1.428 . S
C1362 N1361 1.351 . S
C1362 C1363 1.434 . S
C1363 C1354 1.429 . S
C1363 N1360 1.350 . S
C1363 C1362 1.434 . S
C1364 C1365 1.369 . S
C1364 C1366 1.419 . S
C1364 H1368 0.930 . S
C1365 C1364 1.369 . S
C1365 C1374 1.429 . S
C1366 C1364 1.419 . S
C1366 C1367 1.363 . S
C1366 H1369 0.929 . S
C1367 C1366 1.363 . S
C1367 C1373 1.428 . S
H1368 C1364 0.930 . S
H1369 C1366 0.929 . S
S1370 N1371 1.613 . S
S1370 N1372 1.610 . S
N1371 S1370 1.613 . S
N1371 C1374 1.350 . S
N1372 S1370 1.610 . S
N1372 C1373 1.351 . S
C1373 C1367 1.428 . S
C1373 N1372 1.351 . S
C1373 C1374 1.434 . S
C1374 C1365 1.429 . S
C1374 N1371 1.350 . S
C1374 C1373 1.434 . S
C1375 C1376 1.369 . S
C1375 C1377 1.419 . S
C1375 H1379 0.930 . S
C1376 C1375 1.369 . S
C1376 C1385 1.429 . S
C1377 C1375 1.419 . S
C1377 C1378 1.363 . S
C1377 H1380 0.929 . S
C1378 C1377 1.363 . S
C1378 C1384 1.428 . S
H1379 C1375 0.930 . S
H1380 C1377 0.929 . S
S1381 N1382 1.613 . S
S1381 N1383 1.610 . S
N1382 S1381 1.613 . S
N1382 C1385 1.350 . S
N1383 S1381 1.610 . S
N1383 C1384 1.351 . S
C1384 C1378 1.428 . S
C1384 N1383 1.351 . S
C1384 C1385 1.434 . S
C1385 C1376 1.429 . S
C1385 N1382 1.350 . S
C1385 C1384 1.434 . S
C1386 C1387 1.369 . S
C1386 C1388 1.419 . S
C1386 H1390 0.930 . S
C1387 C1386 1.369 . S
C1387 C1396 1.429 . S
C1388 C1386 1.419 . S
C1388 C1389 1.363 . S
C1388 H1391 0.929 . S
C1389 C1388 1.363 . S
C1389 C1395 1.428 . S
H1390 C1386 0.930 . S
H1391 C1388 0.929 . S
S1392 N1393 1.613 . S
S1392 N1394 1.610 . S
N1393 S1392 1.613 . S
N1393 C1396 1.350 . S
N1394 S1392 1.610 . S
N1394 C1395 1.351 . S
C1395 C1389 1.428 . S
C1395 N1394 1.351 . S
C1395 C1396 1.434 . S
C1396 C1387 1.429 . S
C1396 N1393 1.350 . S
C1396 C1395 1.434 . S
C1397 C1398 1.369 . S
C1397 C1399 1.419 . S
C1397 H1401 0.930 . S
C1398 C1397 1.369 . S
C1398 C1407 1.429 . S
C1399 C1397 1.419 . S
C1399 C1400 1.363 . S
C1399 H1402 0.929 . S
C1400 C1399 1.363 . S
C1400 C1406 1.428 . S
H1401 C1397 0.930 . S
H1402 C1399 0.929 . S
S1403 N1404 1.613 . S
S1403 N1405 1.610 . S
N1404 S1403 1.613 . S
N1404 C1407 1.350 . S
N1405 S1403 1.610 . S
N1405 C1406 1.351 . S
C1406 C1400 1.428 . S
C1406 N1405 1.351 . S
C1406 C1407 1.434 . S
C1407 C1398 1.429 . S
C1407 N1404 1.350 . S
C1407 C1406 1.434 . S
C1408 C1409 1.369 . S
C1408 C1410 1.419 . S
C1408 H1412 0.930 . S
C1409 C1408 1.369 . S
C1409 C1418 1.429 . S
C1410 C1408 1.419 . S
C1410 C1411 1.363 . S
C1410 H1413 0.929 . S
C1411 C1410 1.363 . S
C1411 C1417 1.428 . S
H1412 C1408 0.930 . S
H1413 C1410 0.929 . S
S1414 N1415 1.613 . S
S1414 N1416 1.610 . S
N1415 S1414 1.613 . S
N1415 C1418 1.350 . S
N1416 S1414 1.610 . S
N1416 C1417 1.351 . S
C1417 C1411 1.428 . S
C1417 N1416 1.351 . S
C1417 C1418 1.434 . S
C1418 C1409 1.429 . S
C1418 N1415 1.350 . S
C1418 C1417 1.434 . S
C1419 C1420 1.369 . S
C1419 C1421 1.419 . S
C1419 H1423 0.930 . S
C1420 C1419 1.369 . S
C1420 C1429 1.429 . S
C1421 C1419 1.419 . S
C1421 C1422 1.363 . S
C1421 H1424 0.929 . S
C1422 C1421 1.363 . S
C1422 C1428 1.428 . S
H1423 C1419 0.930 . S
H1424 C1421 0.929 . S
S1425 N1426 1.613 . S
S1425 N1427 1.610 . S
N1426 S1425 1.613 . S
N1426 C1429 1.350 . S
N1427 S1425 1.610 . S
N1427 C1428 1.351 . S
C1428 C1422 1.428 . S
C1428 N1427 1.351 . S
C1428 C1429 1.434 . S
C1429 C1420 1.429 . S
C1429 N1426 1.350 . S
C1429 C1428 1.434 . S
C1430 C1431 1.369 . S
C1430 C1432 1.419 . S
C1430 H1434 0.930 . S
C1431 C1430 1.369 . S
C1431 C1440 1.429 . S
C1432 C1430 1.419 . S
C1432 C1433 1.363 . S
C1432 H1435 0.929 . S
C1433 C1432 1.363 . S
C1433 C1439 1.428 . S
H1434 C1430 0.930 . S
H1435 C1432 0.929 . S
S1436 N1437 1.613 . S
S1436 N1438 1.610 . S
N1437 S1436 1.613 . S
N1437 C1440 1.350 . S
N1438 S1436 1.610 . S
N1438 C1439 1.351 . S
C1439 C1433 1.428 . S
C1439 N1438 1.351 . S
C1439 C1440 1.434 . S
C1440 C1431 1.429 . S
C1440 N1437 1.350 . S
C1440 C1439 1.434 . S
C1441 C1442 1.369 . S
C1441 C1443 1.419 . S
C1441 H1445 0.930 . S
C1442 C1441 1.369 . S
C1442 C1451 1.429 . S
C1443 C1441 1.419 . S
C1443 C1444 1.363 . S
C1443 H1446 0.929 . S
C1444 C1443 1.363 . S
C1444 C1450 1.428 . S
H1445 C1441 0.930 . S
H1446 C1443 0.929 . S
S1447 N1448 1.613 . S
S1447 N1449 1.610 . S
N1448 S1447 1.613 . S
N1448 C1451 1.350 . S
N1449 S1447 1.610 . S
N1449 C1450 1.351 . S
C1450 C1444 1.428 . S
C1450 N1449 1.351 . S
C1450 C1451 1.434 . S
C1451 C1442 1.429 . S
C1451 N1448 1.350 . S
C1451 C1450 1.434 . S
C1452 C1453 1.369 . S
C1452 C1454 1.419 . S
C1452 H1456 0.930 . S
C1453 C1452 1.369 . S
C1453 C1462 1.429 . S
C1454 C1452 1.419 . S
C1454 C1455 1.363 . S
C1454 H1457 0.929 . S
C1455 C1454 1.363 . S
C1455 C1461 1.428 . S
H1456 C1452 0.930 . S
H1457 C1454 0.929 . S
S1458 N1459 1.613 . S
S1458 N1460 1.610 . S
N1459 S1458 1.613 . S
N1459 C1462 1.350 . S
N1460 S1458 1.610 . S
N1460 C1461 1.351 . S
C1461 C1455 1.428 . S
C1461 N1460 1.351 . S
C1461 C1462 1.434 . S
C1462 C1453 1.429 . S
C1462 N1459 1.350 . S
C1462 C1461 1.434 . S
C1463 C1464 1.369 . S
C1463 C1465 1.419 . S
C1463 H1467 0.930 . S
C1464 C1463 1.369 . S
C1464 C1473 1.429 . S
C1465 C1463 1.419 . S
C1465 C1466 1.363 . S
C1465 H1468 0.929 . S
C1466 C1465 1.363 . S
C1466 C1472 1.428 . S
H1467 C1463 0.930 . S
H1468 C1465 0.929 . S
S1469 N1470 1.613 . S
S1469 N1471 1.610 . S
N1470 S1469 1.613 . S
N1470 C1473 1.350 . S
N1471 S1469 1.610 . S
N1471 C1472 1.351 . S
C1472 C1466 1.428 . S
C1472 N1471 1.351 . S
C1472 C1473 1.434 . S
C1473 C1464 1.429 . S
C1473 N1470 1.350 . S
C1473 C1472 1.434 . S
C1474 C1475 1.369 . S
C1474 C1476 1.419 . S
C1474 H1478 0.930 . S
C1475 C1474 1.369 . S
C1475 C1484 1.429 . S
C1476 C1474 1.419 . S
C1476 C1477 1.363 . S
C1476 H1479 0.929 . S
C1477 C1476 1.363 . S
C1477 C1483 1.428 . S
H1478 C1474 0.930 . S
H1479 C1476 0.929 . S
S1480 N1481 1.613 . S
S1480 N1482 1.610 . S
N1481 S1480 1.613 . S
N1481 C1484 1.350 . S
N1482 S1480 1.610 . S
N1482 C1483 1.351 . S
C1483 C1477 1.428 . S
C1483 N1482 1.351 . S
C1483 C1484 1.434 . S
C1484 C1475 1.429 . S
C1484 N1481 1.350 . S
C1484 C1483 1.434 . S
C1485 C1486 1.369 . S
C1485 C1487 1.419 . S
C1485 H1489 0.930 . S
C1486 C1485 1.369 . S
C1486 C1495 1.429 . S
C1487 C1485 1.419 . S
C1487 C1488 1.363 . S
C1487 H1490 0.929 . S
C1488 C1487 1.363 . S
C1488 C1494 1.428 . S
H1489 C1485 0.930 . S
H1490 C1487 0.929 . S
S1491 N1492 1.613 . S
S1491 N1493 1.610 . S
N1492 S1491 1.613 . S
N1492 C1495 1.350 . S
N1493 S1491 1.610 . S
N1493 C1494 1.351 . S
C1494 C1488 1.428 . S
C1494 N1493 1.351 . S
C1494 C1495 1.434 . S
C1495 C1486 1.429 . S
C1495 N1492 1.350 . S
C1495 C1494 1.434 . S
C1496 C1497 1.369 . S
C1496 C1498 1.419 . S
C1496 H1500 0.930 . S
C1497 C1496 1.369 . S
C1497 C1506 1.429 . S
C1498 C1496 1.419 . S
C1498 C1499 1.363 . S
C1498 H1501 0.929 . S
C1499 C1498 1.363 . S
C1499 C1505 1.428 . S
H1500 C1496 0.930 . S
H1501 C1498 0.929 . S
S1502 N1503 1.613 . S
S1502 N1504 1.610 . S
N1503 S1502 1.613 . S
N1503 C1506 1.350 . S
N1504 S1502 1.610 . S
N1504 C1505 1.351 . S
C1505 C1499 1.428 . S
C1505 N1504 1.351 . S
C1505 C1506 1.434 . S
C1506 C1497 1.429 . S
C1506 N1503 1.350 . S
C1506 C1505 1.434 . S
C1507 C1508 1.369 . S
C1507 C1509 1.419 . S
C1507 H1511 0.930 . S
C1508 C1507 1.369 . S
C1508 C1517 1.429 . S
C1509 C1507 1.419 . S
C1509 C1510 1.363 . S
C1509 H1512 0.929 . S
C1510 C1509 1.363 . S
C1510 C1516 1.428 . S
H1511 C1507 0.930 . S
H1512 C1509 0.929 . S
S1513 N1514 1.613 . S
S1513 N1515 1.610 . S
N1514 S1513 1.613 . S
N1514 C1517 1.350 . S
N1515 S1513 1.610 . S
N1515 C1516 1.351 . S
C1516 C1510 1.428 . S
C1516 N1515 1.351 . S
C1516 C1517 1.434 . S
C1517 C1508 1.429 . S
C1517 N1514 1.350 . S
C1517 C1516 1.434 . S
C1518 C1519 1.369 . S
C1518 C1520 1.419 . S
C1518 H1522 0.930 . S
C1519 C1518 1.369 . S
C1519 C1528 1.429 . S
C1520 C1518 1.419 . S
C1520 C1521 1.363 . S
C1520 H1523 0.929 . S
C1521 C1520 1.363 . S
C1521 C1527 1.428 . S
H1522 C1518 0.930 . S
H1523 C1520 0.929 . S
S1524 N1525 1.613 . S
S1524 N1526 1.610 . S
N1525 S1524 1.613 . S
N1525 C1528 1.350 . S
N1526 S1524 1.610 . S
N1526 C1527 1.351 . S
C1527 C1521 1.428 . S
C1527 N1526 1.351 . S
C1527 C1528 1.434 . S
C1528 C1519 1.429 . S
C1528 N1525 1.350 . S
C1528 C1527 1.434 . S
C1529 C1530 1.369 . S
C1529 C1531 1.419 . S
C1529 H1533 0.930 . S
C1530 C1529 1.369 . S
C1530 C1539 1.429 . S
C1531 C1529 1.419 . S
C1531 C1532 1.363 . S
C1531 H1534 0.929 . S
C1532 C1531 1.363 . S
C1532 C1538 1.428 . S
H1533 C1529 0.930 . S
H1534 C1531 0.929 . S
S1535 N1536 1.613 . S
S1535 N1537 1.610 . S
N1536 S1535 1.613 . S
N1536 C1539 1.350 . S
N1537 S1535 1.610 . S
N1537 C1538 1.351 . S
C1538 C1532 1.428 . S
C1538 N1537 1.351 . S
C1538 C1539 1.434 . S
C1539 C1530 1.429 . S
C1539 N1536 1.350 . S
C1539 C1538 1.434 . S
C1540 C1541 1.369 . S
C1540 C1542 1.419 . S
C1540 H1544 0.930 . S
C1541 C1540 1.369 . S
C1541 C1550 1.429 . S
C1542 C1540 1.419 . S
C1542 C1543 1.363 . S
C1542 H1545 0.929 . S
C1543 C1542 1.363 . S
C1543 C1549 1.428 . S
H1544 C1540 0.930 . S
H1545 C1542 0.929 . S
S1546 N1547 1.613 . S
S1546 N1548 1.610 . S
N1547 S1546 1.613 . S
N1547 C1550 1.350 . S
N1548 S1546 1.610 . S
N1548 C1549 1.351 . S
C1549 C1543 1.428 . S
C1549 N1548 1.351 . S
C1549 C1550 1.434 . S
C1550 C1541 1.429 . S
C1550 N1547 1.350 . S
C1550 C1549 1.434 . S
C1551 C1552 1.369 . S
C1551 C1553 1.419 . S
C1551 H1555 0.930 . S
C1552 C1551 1.369 . S
C1552 C1561 1.429 . S
C1553 C1551 1.419 . S
C1553 C1554 1.363 . S
C1553 H1556 0.929 . S
C1554 C1553 1.363 . S
C1554 C1560 1.428 . S
H1555 C1551 0.930 . S
H1556 C1553 0.929 . S
S1557 N1558 1.613 . S
S1557 N1559 1.610 . S
N1558 S1557 1.613 . S
N1558 C1561 1.350 . S
N1559 S1557 1.610 . S
N1559 C1560 1.351 . S
C1560 C1554 1.428 . S
C1560 N1559 1.351 . S
C1560 C1561 1.434 . S
C1561 C1552 1.429 . S
C1561 N1558 1.350 . S
C1561 C1560 1.434 . S
C1562 C1563 1.369 . S
C1562 C1564 1.419 . S
C1562 H1566 0.930 . S
C1563 C1562 1.369 . S
C1563 C1572 1.429 . S
C1564 C1562 1.419 . S
C1564 C1565 1.363 . S
C1564 H1567 0.929 . S
C1565 C1564 1.363 . S
C1565 C1571 1.428 . S
H1566 C1562 0.930 . S
H1567 C1564 0.929 . S
S1568 N1569 1.613 . S
S1568 N1570 1.610 . S
N1569 S1568 1.613 . S
N1569 C1572 1.350 . S
N1570 S1568 1.610 . S
N1570 C1571 1.351 . S
C1571 C1565 1.428 . S
C1571 N1570 1.351 . S
C1571 C1572 1.434 . S
C1572 C1563 1.429 . S
C1572 N1569 1.350 . S
C1572 C1571 1.434 . S
C1573 C1574 1.369 . S
C1573 C1575 1.419 . S
C1573 H1577 0.930 . S
C1574 C1573 1.369 . S
C1574 C1583 1.429 . S
C1575 C1573 1.419 . S
C1575 C1576 1.363 . S
C1575 H1578 0.929 . S
C1576 C1575 1.363 . S
C1576 C1582 1.428 . S
H1577 C1573 0.930 . S
H1578 C1575 0.929 . S
S1579 N1580 1.613 . S
S1579 N1581 1.610 . S
N1580 S1579 1.613 . S
N1580 C1583 1.350 . S
N1581 S1579 1.610 . S
N1581 C1582 1.351 . S
C1582 C1576 1.428 . S
C1582 N1581 1.351 . S
C1582 C1583 1.434 . S
C1583 C1574 1.429 . S
C1583 N1580 1.350 . S
C1583 C1582 1.434 . S
C1584 C1585 1.369 . S
C1584 C1586 1.419 . S
C1584 H1588 0.930 . S
C1585 C1584 1.369 . S
C1585 C1594 1.429 . S
C1586 C1584 1.419 . S
C1586 C1587 1.363 . S
C1586 H1589 0.929 . S
C1587 C1586 1.363 . S
C1587 C1593 1.428 . S
H1588 C1584 0.930 . S
H1589 C1586 0.929 . S
S1590 N1591 1.613 . S
S1590 N1592 1.610 . S
N1591 S1590 1.613 . S
N1591 C1594 1.350 . S
N1592 S1590 1.610 . S
N1592 C1593 1.351 . S
C1593 C1587 1.428 . S
C1593 N1592 1.351 . S
C1593 C1594 1.434 . S
C1594 C1585 1.429 . S
C1594 N1591 1.350 . S
C1594 C1593 1.434 . S
C1595 C1596 1.369 . S
C1595 C1597 1.419 . S
C1595 H1599 0.930 . S
C1596 C1595 1.369 . S
C1596 C1605 1.429 . S
C1597 C1595 1.419 . S
C1597 C1598 1.363 . S
C1597 H1600 0.929 . S
C1598 C1597 1.363 . S
C1598 C1604 1.428 . S
H1599 C1595 0.930 . S
H1600 C1597 0.929 . S
S1601 N1602 1.613 . S
S1601 N1603 1.610 . S
N1602 S1601 1.613 . S
N1602 C1605 1.350 . S
N1603 S1601 1.610 . S
N1603 C1604 1.351 . S
C1604 C1598 1.428 . S
C1604 N1603 1.351 . S
C1604 C1605 1.434 . S
C1605 C1596 1.429 . S
C1605 N1602 1.350 . S
C1605 C1604 1.434 . S
C1606 C1607 1.369 . S
C1606 C1608 1.419 . S
C1606 H1610 0.930 . S
C1607 C1606 1.369 . S
C1607 C1616 1.429 . S
C1608 C1606 1.419 . S
C1608 C1609 1.363 . S
C1608 H1611 0.929 . S
C1609 C1608 1.363 . S
C1609 C1615 1.428 . S
H1610 C1606 0.930 . S
H1611 C1608 0.929 . S
S1612 N1613 1.613 . S
S1612 N1614 1.610 . S
N1613 S1612 1.613 . S
N1613 C1616 1.350 . S
N1614 S1612 1.610 . S
N1614 C1615 1.351 . S
C1615 C1609 1.428 . S
C1615 N1614 1.351 . S
C1615 C1616 1.434 . S
C1616 C1607 1.429 . S
C1616 N1613 1.350 . S
C1616 C1615 1.434 . S
C1617 C1618 1.369 . S
C1617 C1619 1.419 . S
C1617 H1621 0.930 . S
C1618 C1617 1.369 . S
C1618 C1627 1.429 . S
C1619 C1617 1.419 . S
C1619 C1620 1.363 . S
C1619 H1622 0.929 . S
C1620 C1619 1.363 . S
C1620 C1626 1.428 . S
H1621 C1617 0.930 . S
H1622 C1619 0.929 . S
S1623 N1624 1.613 . S
S1623 N1625 1.610 . S
N1624 S1623 1.613 . S
N1624 C1627 1.350 . S
N1625 S1623 1.610 . S
N1625 C1626 1.351 . S
C1626 C1620 1.428 . S
C1626 N1625 1.351 . S
C1626 C1627 1.434 . S
C1627 C1618 1.429 . S
C1627 N1624 1.350 . S
C1627 C1626 1.434 . S
C1628 C1629 1.369 . S
C1628 C1630 1.419 . S
C1628 H1632 0.930 . S
C1629 C1628 1.369 . S
C1629 C1638 1.429 . S
C1630 C1628 1.419 . S
C1630 C1631 1.363 . S
C1630 H1633 0.929 . S
C1631 C1630 1.363 . S
C1631 C1637 1.428 . S
H1632 C1628 0.930 . S
H1633 C1630 0.929 . S
S1634 N1635 1.613 . S
S1634 N1636 1.610 . S
N1635 S1634 1.613 . S
N1635 C1638 1.350 . S
N1636 S1634 1.610 . S
N1636 C1637 1.351 . S
C1637 C1631 1.428 . S
C1637 N1636 1.351 . S
C1637 C1638 1.434 . S
C1638 C1629 1.429 . S
C1638 N1635 1.350 . S
C1638 C1637 1.434 . S
C1639 C1640 1.369 . S
C1639 C1641 1.419 . S
C1639 H1643 0.930 . S
C1640 C1639 1.369 . S
C1640 C1649 1.429 . S
C1641 C1639 1.419 . S
C1641 C1642 1.363 . S
C1641 H1644 0.929 . S
C1642 C1641 1.363 . S
C1642 C1648 1.428 . S
H1643 C1639 0.930 . S
H1644 C1641 0.929 . S
S1645 N1646 1.613 . S
S1645 N1647 1.610 . S
N1646 S1645 1.613 . S
N1646 C1649 1.350 . S
N1647 S1645 1.610 . S
N1647 C1648 1.351 . S
C1648 C1642 1.428 . S
C1648 N1647 1.351 . S
C1648 C1649 1.434 . S
C1649 C1640 1.429 . S
C1649 N1646 1.350 . S
C1649 C1648 1.434 . S
C1650 C1651 1.369 . S
C1650 C1652 1.419 . S
C1650 H1654 0.930 . S
C1651 C1650 1.369 . S
C1651 C1660 1.429 . S
C1652 C1650 1.419 . S
C1652 C1653 1.363 . S
C1652 H1655 0.929 . S
C1653 C1652 1.363 . S
C1653 C1659 1.428 . S
H1654 C1650 0.930 . S
H1655 C1652 0.929 . S
S1656 N1657 1.613 . S
S1656 N1658 1.610 . S
N1657 S1656 1.613 . S
N1657 C1660 1.350 . S
N1658 S1656 1.610 . S
N1658 C1659 1.351 . S
C1659 C1653 1.428 . S
C1659 N1658 1.351 . S
C1659 C1660 1.434 . S
C1660 C1651 1.429 . S
C1660 N1657 1.350 . S
C1660 C1659 1.434 . S
C1661 C1662 1.369 . S
C1661 C1663 1.419 . S
C1661 H1665 0.930 . S
C1662 C1661 1.369 . S
C1662 C1671 1.429 . S
C1663 C1661 1.419 . S
C1663 C1664 1.363 . S
C1663 H1666 0.929 . S
C1664 C1663 1.363 . S
C1664 C1670 1.428 . S
H1665 C1661 0.930 . S
H1666 C1663 0.929 . S
S1667 N1668 1.613 . S
S1667 N1669 1.610 . S
N1668 S1667 1.613 . S
N1668 C1671 1.350 . S
N1669 S1667 1.610 . S
N1669 C1670 1.351 . S
C1670 C1664 1.428 . S
C1670 N1669 1.351 . S
C1670 C1671 1.434 . S
C1671 C1662 1.429 . S
C1671 N1668 1.350 . S
C1671 C1670 1.434 . S
C1672 C1673 1.369 . S
C1672 C1674 1.419 . S
C1672 H1676 0.930 . S
C1673 C1672 1.369 . S
C1673 C1682 1.429 . S
C1674 C1672 1.419 . S
C1674 C1675 1.363 . S
C1674 H1677 0.929 . S
C1675 C1674 1.363 . S
C1675 C1681 1.428 . S
H1676 C1672 0.930 . S
H1677 C1674 0.929 . S
S1678 N1679 1.613 . S
S1678 N1680 1.610 . S
N1679 S1678 1.613 . S
N1679 C1682 1.350 . S
N1680 S1678 1.610 . S
N1680 C1681 1.351 . S
C1681 C1675 1.428 . S
C1681 N1680 1.351 . S
C1681 C1682 1.434 . S
C1682 C1673 1.429 . S
C1682 N1679 1.350 . S
C1682 C1681 1.434 . S
C1683 C1684 1.369 . S
C1683 C1685 1.419 . S
C1683 H1687 0.930 . S
C1684 C1683 1.369 . S
C1684 C1693 1.429 . S
C1685 C1683 1.419 . S
C1685 C1686 1.363 . S
C1685 H1688 0.929 . S
C1686 C1685 1.363 . S
C1686 C1692 1.428 . S
H1687 C1683 0.930 . S
H1688 C1685 0.929 . S
S1689 N1690 1.613 . S
S1689 N1691 1.610 . S
N1690 S1689 1.613 . S
N1690 C1693 1.350 . S
N1691 S1689 1.610 . S
N1691 C1692 1.351 . S
C1692 C1686 1.428 . S
C1692 N1691 1.351 . S
C1692 C1693 1.434 . S
C1693 C1684 1.429 . S
C1693 N1690 1.350 . S
C1693 C1692 1.434 . S
C1694 C1695 1.369 . S
C1694 C1696 1.419 . S
C1694 H1698 0.930 . S
C1695 C1694 1.369 . S
C1695 C1704 1.429 . S
C1696 C1694 1.419 . S
C1696 C1697 1.363 . S
C1696 H1699 0.929 . S
C1697 C1696 1.363 . S
C1697 C1703 1.428 . S
H1698 C1694 0.930 . S
H1699 C1696 0.929 . S
S1700 N1701 1.613 . S
S1700 N1702 1.610 . S
N1701 S1700 1.613 . S
N1701 C1704 1.350 . S
N1702 S1700 1.610 . S
N1702 C1703 1.351 . S
C1703 C1697 1.428 . S
C1703 N1702 1.351 . S
C1703 C1704 1.434 . S
C1704 C1695 1.429 . S
C1704 N1701 1.350 . S
C1704 C1703 1.434 . S
C1705 C1706 1.369 . S
C1705 C1707 1.419 . S
C1705 H1709 0.930 . S
C1706 C1705 1.369 . S
C1706 C1715 1.429 . S
C1707 C1705 1.419 . S
C1707 C1708 1.363 . S
C1707 H1710 0.929 . S
C1708 C1707 1.363 . S
C1708 C1714 1.428 . S
H1709 C1705 0.930 . S
H1710 C1707 0.929 . S
S1711 N1712 1.613 . S
S1711 N1713 1.610 . S
N1712 S1711 1.613 . S
N1712 C1715 1.350 . S
N1713 S1711 1.610 . S
N1713 C1714 1.351 . S
C1714 C1708 1.428 . S
C1714 N1713 1.351 . S
C1714 C1715 1.434 . S
C1715 C1706 1.429 . S
C1715 N1712 1.350 . S
C1715 C1714 1.434 . S
C1716 C1717 1.369 . S
C1716 C1718 1.419 . S
C1716 H1720 0.930 . S
C1717 C1716 1.369 . S
C1717 C1726 1.429 . S
C1718 C1716 1.419 . S
C1718 C1719 1.363 . S
C1718 H1721 0.929 . S
C1719 C1718 1.363 . S
C1719 C1725 1.428 . S
H1720 C1716 0.930 . S
H1721 C1718 0.929 . S
S1722 N1723 1.613 . S
S1722 N1724 1.610 . S
N1723 S1722 1.613 . S
N1723 C1726 1.350 . S
N1724 S1722 1.610 . S
N1724 C1725 1.351 . S
C1725 C1719 1.428 . S
C1725 N1724 1.351 . S
C1725 C1726 1.434 . S
C1726 C1717 1.429 . S
C1726 N1723 1.350 . S
C1726 C1725 1.434 . S
C1727 C1728 1.369 . S
C1727 C1729 1.419 . S
C1727 H1731 0.930 . S
C1728 C1727 1.369 . S
C1728 C1737 1.429 . S
C1729 C1727 1.419 . S
C1729 C1730 1.363 . S
C1729 H1732 0.929 . S
C1730 C1729 1.363 . S
C1730 C1736 1.428 . S
H1731 C1727 0.930 . S
H1732 C1729 0.929 . S
S1733 N1734 1.613 . S
S1733 N1735 1.610 . S
N1734 S1733 1.613 . S
N1734 C1737 1.350 . S
N1735 S1733 1.610 . S
N1735 C1736 1.351 . S
C1736 C1730 1.428 . S
C1736 N1735 1.351 . S
C1736 C1737 1.434 . S
C1737 C1728 1.429 . S
C1737 N1734 1.350 . S
C1737 C1736 1.434 . S
C1738 C1739 1.369 . S
C1738 C1740 1.419 . S
C1738 H1742 0.930 . S
C1739 C1738 1.369 . S
C1739 C1748 1.429 . S
C1740 C1738 1.419 . S
C1740 C1741 1.363 . S
C1740 H1743 0.929 . S
C1741 C1740 1.363 . S
C1741 C1747 1.428 . S
H1742 C1738 0.930 . S
H1743 C1740 0.929 . S
S1744 N1745 1.613 . S
S1744 N1746 1.610 . S
N1745 S1744 1.613 . S
N1745 C1748 1.350 . S
N1746 S1744 1.610 . S
N1746 C1747 1.351 . S
C1747 C1741 1.428 . S
C1747 N1746 1.351 . S
C1747 C1748 1.434 . S
C1748 C1739 1.429 . S
C1748 N1745 1.350 . S
C1748 C1747 1.434 . S
C1749 C1750 1.369 . S
C1749 C1751 1.419 . S
C1749 H1753 0.930 . S
C1750 C1749 1.369 . S
C1750 C1759 1.429 . S
C1751 C1749 1.419 . S
C1751 C1752 1.363 . S
C1751 H1754 0.929 . S
C1752 C1751 1.363 . S
C1752 C1758 1.428 . S
H1753 C1749 0.930 . S
H1754 C1751 0.929 . S
S1755 N1756 1.613 . S
S1755 N1757 1.610 . S
N1756 S1755 1.613 . S
N1756 C1759 1.350 . S
N1757 S1755 1.610 . S
N1757 C1758 1.351 . S
C1758 C1752 1.428 . S
C1758 N1757 1.351 . S
C1758 C1759 1.434 . S
C1759 C1750 1.429 . S
C1759 N1756 1.350 . S
C1759 C1758 1.434 . S
C1760 C1761 1.369 . S
C1760 C1762 1.419 . S
C1760 H1764 0.930 . S
C1761 C1760 1.369 . S
C1761 C1770 1.429 . S
C1762 C1760 1.419 . S
C1762 C1763 1.363 . S
C1762 H1765 0.929 . S
C1763 C1762 1.363 . S
C1763 C1769 1.428 . S
H1764 C1760 0.930 . S
H1765 C1762 0.929 . S
S1766 N1767 1.613 . S
S1766 N1768 1.610 . S
N1767 S1766 1.613 . S
N1767 C1770 1.350 . S
N1768 S1766 1.610 . S
N1768 C1769 1.351 . S
C1769 C1763 1.428 . S
C1769 N1768 1.351 . S
C1769 C1770 1.434 . S
C1770 C1761 1.429 . S
C1770 N1767 1.350 . S
C1770 C1769 1.434 . S
C1771 C1772 1.369 1_455 S
C1771 C1773 1.419 . S
C1771 H1775 0.930 . S
C1772 C1771 1.369 1_655 S
C1772 C1781 1.429 1_565 S
C1773 C1771 1.419 . S
C1773 C1774 1.363 1_565 S
C1773 H1776 0.929 . S
C1774 C1773 1.363 1_545 S
C1774 C1780 1.428 1_455 S
H1775 C1771 0.930 . S
H1776 C1773 0.929 . S
S1777 N1778 1.613 . S
S1777 N1779 1.610 . S
N1778 S1777 1.613 . S
N1778 C1781 1.350 . S
N1779 S1777 1.610 . S
N1779 C1780 1.351 . S
C1780 C1774 1.428 1_655 S
C1780 N1779 1.351 . S
C1780 C1781 1.434 . S
C1781 C1772 1.429 1_545 S
C1781 N1778 1.350 . S
C1781 C1780 1.434 . S
C1782 C1783 1.369 . S
C1782 C1784 1.419 . S
C1782 H1786 0.930 . S
C1783 C1782 1.369 . S
C1783 C1792 1.429 . S
C1784 C1782 1.419 . S
C1784 C1785 1.363 . S
C1784 H1787 0.929 . S
C1785 C1784 1.363 . S
C1785 C1791 1.428 . S
H1786 C1782 0.930 . S
H1787 C1784 0.929 . S
S1788 N1789 1.613 . S
S1788 N1790 1.610 . S
N1789 S1788 1.613 . S
N1789 C1792 1.350 . S
N1790 S1788 1.610 . S
N1790 C1791 1.351 . S
C1791 C1785 1.428 . S
C1791 N1790 1.351 . S
C1791 C1792 1.434 . S
C1792 C1783 1.429 . S
C1792 N1789 1.350 . S
C1792 C1791 1.434 . S
C1793 C1794 1.369 1_545 S
C1793 C1795 1.419 1_556 S
C1793 H1797 0.930 . S
C1794 C1793 1.369 1_565 S
C1794 C1803 1.429 . S
C1795 C1793 1.419 1_554 S
C1795 C1796 1.363 . S
C1795 H1798 0.929 . S
C1796 C1795 1.363 . S
C1796 C1802 1.428 1_545 S
H1797 C1793 0.930 . S
H1798 C1795 0.929 . S
S1799 N1800 1.613 . S
S1799 N1801 1.610 1_556 S
N1800 S1799 1.613 . S
N1800 C1803 1.350 . S
N1801 S1799 1.610 1_554 S
N1801 C1802 1.351 . S
C1802 C1796 1.428 1_565 S
C1802 N1801 1.351 . S
C1802 C1803 1.434 1_554 S
C1803 C1794 1.429 . S
C1803 N1800 1.350 . S
C1803 C1802 1.434 1_556 S
C1804 C1805 1.369 . S
C1804 C1806 1.419 . S
C1804 H1808 0.930 . S
C1805 C1804 1.369 . S
C1805 C1814 1.429 . S
C1806 C1804 1.419 . S
C1806 C1807 1.363 . S
C1806 H1809 0.929 . S
C1807 C1806 1.363 . S
C1807 C1813 1.428 . S
H1808 C1804 0.930 . S
H1809 C1806 0.929 . S
S1810 N1811 1.613 . S
S1810 N1812 1.610 . S
N1811 S1810 1.613 . S
N1811 C1814 1.350 . S
N1812 S1810 1.610 . S
N1812 C1813 1.351 . S
C1813 C1807 1.428 . S
C1813 N1812 1.351 . S
C1813 C1814 1.434 . S
C1814 C1805 1.429 . S
C1814 N1811 1.350 . S
C1814 C1813 1.434 . S
C1815 C1816 1.369 1_565 S
C1815 C1817 1.419 . S
C1815 H1819 0.930 . S
C1816 C1815 1.369 1_545 S
C1816 C1825 1.429 . S
C1817 C1815 1.419 . S
C1817 C1818 1.363 . S
C1817 H1820 0.929 . S
C1818 C1817 1.363 . S
C1818 C1824 1.428 1_565 S
H1819 C1815 0.930 . S
H1820 C1817 0.929 . S
S1821 N1822 1.613 . S
S1821 N1823 1.610 . S
N1822 S1821 1.613 . S
N1822 C1825 1.350 . S
N1823 S1821 1.610 . S
N1823 C1824 1.351 . S
C1824 C1818 1.428 1_545 S
C1824 N1823 1.351 . S
C1824 C1825 1.434 . S
C1825 C1816 1.429 . S
C1825 N1822 1.350 . S
C1825 C1824 1.434 . S
C1826 C1827 1.369 . S
C1826 C1828 1.419 . S
C1826 H1830 0.930 . S
C1827 C1826 1.369 . S
C1827 C1836 1.429 . S
C1828 C1826 1.419 . S
C1828 C1829 1.363 . S
C1828 H1831 0.929 . S
C1829 C1828 1.363 . S
C1829 C1835 1.428 . S
H1830 C1826 0.930 . S
H1831 C1828 0.929 . S
S1832 N1833 1.613 . S
S1832 N1834 1.610 . S
N1833 S1832 1.613 . S
N1833 C1836 1.350 . S
N1834 S1832 1.610 . S
N1834 C1835 1.351 . S
C1835 C1829 1.428 . S
C1835 N1834 1.351 . S
C1835 C1836 1.434 . S
C1836 C1827 1.429 . S
C1836 N1833 1.350 . S
C1836 C1835 1.434 . S
C1837 C1838 1.369 1_655 S
C1837 C1839 1.419 1_554 S
C1837 H1841 0.930 . S
C1838 C1837 1.369 1_455 S
C1838 C1847 1.429 1_565 S
C1839 C1837 1.419 1_556 S
C1839 C1840 1.363 1_565 S
C1839 H1842 0.929 . S
C1840 C1839 1.363 1_545 S
C1840 C1846 1.428 1_655 S
H1841 C1837 0.930 . S
H1842 C1839 0.929 . S
S1843 N1844 1.613 1_556 S
S1843 N1845 1.610 . S
N1844 S1843 1.613 1_554 S
N1844 C1847 1.350 . S
N1845 S1843 1.610 . S
N1845 C1846 1.351 . S
C1846 C1840 1.428 1_455 S
C1846 N1845 1.351 . S
C1846 C1847 1.434 1_556 S
C1847 C1838 1.429 1_545 S
C1847 N1844 1.350 . S
C1847 C1846 1.434 1_554 S
C1848 C1849 1.369 . S
C1848 C1850 1.419 . S
C1848 H1852 0.930 . S
C1849 C1848 1.369 . S
C1849 C1858 1.429 . S
C1850 C1848 1.419 . S
C1850 C1851 1.363 . S
C1850 H1853 0.929 . S
C1851 C1850 1.363 . S
C1851 C1857 1.428 . S
H1852 C1848 0.930 . S
H1853 C1850 0.929 . S
S1854 N1855 1.613 . S
S1854 N1856 1.610 . S
N1855 S1854 1.613 . S
N1855 C1858 1.350 . S
N1856 S1854 1.610 . S
N1856 C1857 1.351 . S
C1857 C1851 1.428 . S
C1857 N1856 1.351 . S
C1857 C1858 1.434 . S
C1858 C1849 1.429 . S
C1858 N1855 1.350 . S
C1858 C1857 1.434 . S
C1859 C1860 1.369 . S
C1859 C1861 1.419 . S
C1859 H1863 0.930 . S
C1860 C1859 1.369 . S
C1860 C1869 1.429 . S
C1861 C1859 1.419 . S
C1861 C1862 1.363 . S
C1861 H1864 0.929 . S
C1862 C1861 1.363 . S
C1862 C1868 1.428 . S
H1863 C1859 0.930 . S
H1864 C1861 0.929 . S
S1865 N1866 1.613 . S
S1865 N1867 1.610 . S
N1866 S1865 1.613 . S
N1866 C1869 1.350 . S
N1867 S1865 1.610 . S
N1867 C1868 1.351 . S
C1868 C1862 1.428 . S
C1868 N1867 1.351 . S
C1868 C1869 1.434 . S
C1869 C1860 1.429 . S
C1869 N1866 1.350 . S
C1869 C1868 1.434 . S
C1870 C1871 1.369 . S
C1870 C1872 1.419 . S
C1870 H1874 0.930 . S
C1871 C1870 1.369 . S
C1871 C1880 1.429 . S
C1872 C1870 1.419 . S
C1872 C1873 1.363 . S
C1872 H1875 0.929 . S
C1873 C1872 1.363 . S
C1873 C1879 1.428 . S
H1874 C1870 0.930 . S
H1875 C1872 0.929 . S
S1876 N1877 1.613 . S
S1876 N1878 1.610 . S
N1877 S1876 1.613 . S
N1877 C1880 1.350 . S
N1878 S1876 1.610 . S
N1878 C1879 1.351 . S
C1879 C1873 1.428 . S
C1879 N1878 1.351 . S
C1879 C1880 1.434 . S
C1880 C1871 1.429 . S
C1880 N1877 1.350 . S
C1880 C1879 1.434 . S
C1881 C1882 1.369 . S
C1881 C1883 1.419 . S
C1881 H1885 0.930 . S
C1882 C1881 1.369 . S
C1882 C1891 1.429 . S
C1883 C1881 1.419 . S
C1883 C1884 1.363 . S
C1883 H1886 0.929 . S
C1884 C1883 1.363 . S
C1884 C1890 1.428 . S
H1885 C1881 0.930 . S
H1886 C1883 0.929 . S
S1887 N1888 1.613 . S
S1887 N1889 1.610 . S
N1888 S1887 1.613 . S
N1888 C1891 1.350 . S
N1889 S1887 1.610 . S
N1889 C1890 1.351 . S
C1890 C1884 1.428 . S
C1890 N1889 1.351 . S
C1890 C1891 1.434 . S
C1891 C1882 1.429 . S
C1891 N1888 1.350 . S
C1891 C1890 1.434 . S
C1892 C1893 1.369 . S
C1892 C1894 1.419 1_554 S
C1892 H1896 0.930 . S
C1893 C1892 1.369 . S
C1893 C1902 1.429 . S
C1894 C1892 1.419 1_556 S
C1894 C1895 1.363 . S
C1894 H1897 0.929 . S
C1895 C1894 1.363 . S
C1895 C1901 1.428 . S
H1896 C1892 0.930 . S
H1897 C1894 0.929 . S
S1898 N1899 1.613 1_556 S
S1898 N1900 1.610 . S
N1899 S1898 1.613 1_554 S
N1899 C1902 1.350 . S
N1900 S1898 1.610 . S
N1900 C1901 1.351 . S
C1901 C1895 1.428 . S
C1901 N1900 1.351 . S
C1901 C1902 1.434 1_556 S
C1902 C1893 1.429 . S
C1902 N1899 1.350 . S
C1902 C1901 1.434 1_554 S
C1903 C1904 1.369 1_655 S
C1903 C1905 1.419 . S
C1903 H1907 0.930 . S
C1904 C1903 1.369 1_455 S
C1904 C1913 1.429 . S
C1905 C1903 1.419 . S
C1905 C1906 1.363 . S
C1905 H1908 0.929 . S
C1906 C1905 1.363 . S
C1906 C1912 1.428 1_655 S
H1907 C1903 0.930 . S
H1908 C1905 0.929 . S
S1909 N1910 1.613 . S
S1909 N1911 1.610 . S
N1910 S1909 1.613 . S
N1910 C1913 1.350 . S
N1911 S1909 1.610 . S
N1911 C1912 1.351 . S
C1912 C1906 1.428 1_455 S
C1912 N1911 1.351 . S
C1912 C1913 1.434 . S
C1913 C1904 1.429 . S
C1913 N1910 1.350 . S
C1913 C1912 1.434 . S
C1914 C1915 1.369 . S
C1914 C1916 1.419 1_556 S
C1914 H1918 0.930 . S
C1915 C1914 1.369 . S
C1915 C1924 1.429 1_455 S
C1916 C1914 1.419 1_554 S
C1916 C1917 1.363 1_455 S
C1916 H1919 0.929 . S
C1917 C1916 1.363 1_655 S
C1917 C1923 1.428 . S
H1918 C1914 0.930 . S
H1919 C1916 0.929 . S
S1920 N1921 1.613 . S
S1920 N1922 1.610 1_556 S
N1921 S1920 1.613 . S
N1921 C1924 1.350 . S
N1922 S1920 1.610 1_554 S
N1922 C1923 1.351 . S
C1923 C1917 1.428 . S
C1923 N1922 1.351 . S
C1923 C1924 1.434 1_554 S
C1924 C1915 1.429 1_655 S
C1924 N1921 1.350 . S
C1924 C1923 1.434 1_556 S
C1925 C1926 1.369 . S
C1925 C1927 1.419 . S
C1925 H1929 0.930 . S
C1926 C1925 1.369 . S
C1926 C1935 1.429 . S
C1927 C1925 1.419 . S
C1927 C1928 1.363 . S
C1927 H1930 0.929 . S
C1928 C1927 1.363 . S
C1928 C1934 1.428 . S
H1929 C1925 0.930 . S
H1930 C1927 0.929 . S
S1931 N1932 1.613 . S
S1931 N1933 1.610 . S
N1932 S1931 1.613 . S
N1932 C1935 1.350 . S
N1933 S1931 1.610 . S
N1933 C1934 1.351 . S
C1934 C1928 1.428 . S
C1934 N1933 1.351 . S
C1934 C1935 1.434 . S
C1935 C1926 1.429 . S
C1935 N1932 1.350 . S
C1935 C1934 1.434 . S
C1057 N608 1.193 . S
C1059 N14 1.196 . S
C1068 N47 1.204 . S
C1070 N641 1.189 . S
C1079 N80 1.206 . S
C1081 N542 1.187 . S
C1090 N575 1.190 . S
C1092 N113 1.200 . S
C1101 N146 1.194 . S
C1103 N740 1.198 . S
C1112 N773 1.195 . S
C1114 N179 1.197 . S
C1123 N212 1.185 . S
C1125 N674 1.203 . S
C1134 N245 1.199 . S
C1136 N707 1.191 . S
C1145 N278 1.206 . S
C1147 N872 1.187 . S
C1156 N905 1.195 . S
C1158 N311 1.195 . S
C1167 N344 1.186 . S
C1169 N806 1.203 . S
C1178 N377 1.203 . S
C1180 N839 1.189 . S
C1189 N410 1.195 . S
C1191 N1004 1.195 . S
C1200 N1037 1.200 . S
C1202 N443 1.191 . S
C1211 N938 1.185 . S
C1213 N476 1.203 . S
C1222 N971 1.192 . S
C1224 N509 1.197 . S
C1233 C371 1.197 . S
C1235 C28 1.193 . S
C1244 C800 1.202 . S
C1246 C61 1.198 . S
C1255 C94 1.193 . S
C1257 C305 1.199 . S
C1266 C866 1.202 . S
C1268 C127 1.198 . S
C1277 C437 1.204 . S
C1279 C160 1.196 . S
C1288 C193 1.193 . S
C1290 C998 1.199 . S
C1299 C503 1.203 . S
C1301 C226 1.198 . S
C1310 C932 1.202 . S
C1312 C259 1.194 . S
C1321 C107 1.208 . S
C1323 C292 1.201 . S
C1332 C325 1.192 . S
C1334 C536 1.200 . S
C1343 C358 1.196 . S
C1345 C41 1.203 . S
C1354 C602 1.198 . S
C1356 C391 1.194 . S
C1365 C424 1.202 . S
C1367 C173 1.207 . S
C1376 C734 1.204 . S
C1378 C457 1.197 . S
C1387 C490 1.202 . S
C1389 C239 1.207 . S
C1398 C523 1.201 . S
C1400 C668 1.205 . S
C1409 C899 1.199 . S
C1411 C556 1.192 . S
C1420 C589 1.200 . S
C1422 C272 1.203 . S
C1431 C622 1.197 . S
C1433 C833 1.201 . S
C1442 C338 1.206 . S
C1444 C655 1.198 . S
C1453 C688 1.192 . S
C1455 C965 1.199 . S
C1464 C721 1.193 . S
C1466 C470 1.199 . S
C1475 C1031 1.197 . S
C1477 C754 1.192 . S
C1486 C404 1.200 . S
C1488 C787 1.196 . S
C1497 C635 1.207 . S
C1499 C820 1.201 . S
C1508 C853 1.192 . S
C1510 C8 1.201 . S
C1519 C886 1.196 . S
C1521 C569 1.201 . S
C1530 C74 1.208 . S
C1532 C919 1.201 . S
C1541 C952 1.194 . S
C1543 C701 1.200 . S
C1552 C985 1.198 . S
C1554 C206 1.205 . S
C1563 C767 1.206 . S
C1565 C1018 1.200 . S
C1574 C140 1.206 . S
C1576 C1051 1.199 . S
C1585 N236 1.819 . S
C1587 N5 1.820 . S
C1596 N137 1.819 . S
C1598 N38 1.819 . S
C1607 N71 1.818 . S
C1609 N170 1.820 . S
C1618 N203 1.820 . S
C1620 N104 1.819 . S
C1629 N500 1.818 . S
C1631 N269 1.820 . S
C1640 N302 1.820 . S
C1642 N401 1.819 . S
C1651 N434 1.818 . S
C1653 N335 1.820 . S
C1662 N467 1.820 . S
C1664 N368 1.819 . S
C1673 N764 1.820 . S
C1675 N533 1.819 . S
C1684 N665 1.819 . S
C1686 N566 1.820 . S
C1695 N698 1.820 . S
C1697 N599 1.819 . S
C1706 N731 1.819 . S
C1708 N632 1.819 . S
C1717 N797 1.819 . S
C1719 N1028 1.820 . S
C1728 N830 1.819 . S
C1730 N929 1.820 . S
C1739 N863 1.819 . S
C1741 N962 1.819 . S
C1750 N995 1.820 . S
C1752 N896 1.819 . S
C1761 C17 1.486 . S
C1763 C809 1.491 . S
C1772 C314 1.491 . S
C1774 C50 1.487 . S
C1783 C875 1.486 . S
C1785 C83 1.492 . S
C1794 C116 1.486 . S
C1796 C380 1.492 . S
C1805 C149 1.492 . S
C1807 C941 1.487 . S
C1816 C182 1.486 . S
C1818 C446 1.492 . S
C1827 C1007 1.487 . S
C1829 C215 1.491 . S
C1838 C248 1.493 . S
C1840 C512 1.487 . S
C1849 C545 1.492 . S
C1851 C281 1.487 . S
C1860 C611 1.491 . S
C1862 C347 1.489 . S
C1871 C413 1.492 . S
C1873 C677 1.488 . S
C1882 C479 1.490 . S
C1884 C743 1.489 . S
C1893 C842 1.488 . S
C1895 C578 1.489 . S
C1904 C908 1.488 . S
C1906 C644 1.490 . S
C1915 C974 1.486 . S
C1917 C710 1.492 . S
C1926 C1040 1.487 . S
C1928 C776 1.490 . S
