# Generated by pormake.
# Topology vbf, (5)-cn, num edge types: 1
# Building blocks:
#     Node 0, Type 0, BuildingBlock: BEQFEK_clean_sbu_0, # of connection points: 5
#     Node 1, Type 0, BuildingBlock: BEQFEK_clean_sbu_0, # of connection points: 5
#     Node 2, Type 0, BuildingBlock: BEQFEK_clean_sbu_0, # of connection points: 5
#     Node 3, Type 0, BuildingBlock: BEQFEK_clean_sbu_0, # of connection points: 5
#     Node 4, Type 0, BuildingBlock: BEQFEK_clean_sbu_0, # of connection points: 5
#     Node 5, Type 0, BuildingBlock: BEQFEK_clean_sbu_0, # of connection points: 5
#     Node 6, Type 0, BuildingBlock: BEQFEK_clean_sbu_0, # of connection points: 5
#     Node 7, Type 0, BuildingBlock: BEQFEK_clean_sbu_0, # of connection points: 5
#     Node 8, Type 0, BuildingBlock: BEQFEK_clean_sbu_0, # of connection points: 5
#     Node 9, Type 0, BuildingBlock: BEQFEK_clean_sbu_0, # of connection points: 5
#     Node 10, Type 0, BuildingBlock: BEQFEK_clean_sbu_0, # of connection points: 5
#     Node 11, Type 0, BuildingBlock: BEQFEK_clean_sbu_0, # of connection points: 5
#     Node 12, Type 0, BuildingBlock: BEQFEK_clean_sbu_0, # of connection points: 5
#     Node 13, Type 0, BuildingBlock: BEQFEK_clean_sbu_0, # of connection points: 5
#     Node 14, Type 0, BuildingBlock: BEQFEK_clean_sbu_0, # of connection points: 5
#     Node 15, Type 0, BuildingBlock: BEQFEK_clean_sbu_0, # of connection points: 5
#     Edge 16, Type (0, 0), BuildingBlock: ZUJKAS_clean_linker_0, # of connection points: 2
#     Edge 17, Type (0, 0), BuildingBlock: ZUJKAS_clean_linker_0, # of connection points: 2
#     Edge 18, Type (0, 0), BuildingBlock: ZUJKAS_clean_linker_0, # of connection points: 2
#     Edge 19, Type (0, 0), BuildingBlock: ZUJKAS_clean_linker_0, # of connection points: 2
#     Edge 20, Type (0, 0), BuildingBlock: ZUJKAS_clean_linker_0, # of connection points: 2
#     Edge 21, Type (0, 0), BuildingBlock: ZUJKAS_clean_linker_0, # of connection points: 2
#     Edge 22, Type (0, 0), BuildingBlock: ZUJKAS_clean_linker_0, # of connection points: 2
#     Edge 23, Type (0, 0), BuildingBlock: ZUJKAS_clean_linker_0, # of connection points: 2
#     Edge 24, Type (0, 0), BuildingBlock: ZUJKAS_clean_linker_0, # of connection points: 2
#     Edge 25, Type (0, 0), BuildingBlock: ZUJKAS_clean_linker_0, # of connection points: 2
#     Edge 26, Type (0, 0), BuildingBlock: ZUJKAS_clean_linker_0, # of connection points: 2
#     Edge 27, Type (0, 0), BuildingBlock: ZUJKAS_clean_linker_0, # of connection points: 2
#     Edge 28, Type (0, 0), BuildingBlock: ZUJKAS_clean_linker_0, # of connection points: 2
#     Edge 29, Type (0, 0), BuildingBlock: ZUJKAS_clean_linker_0, # of connection points: 2
#     Edge 30, Type (0, 0), BuildingBlock: ZUJKAS_clean_linker_0, # of connection points: 2
#     Edge 31, Type (0, 0), BuildingBlock: ZUJKAS_clean_linker_0, # of connection points: 2
#     Edge 32, Type (0, 0), BuildingBlock: ZUJKAS_clean_linker_0, # of connection points: 2
#     Edge 33, Type (0, 0), BuildingBlock: ZUJKAS_clean_linker_0, # of connection points: 2
#     Edge 34, Type (0, 0), BuildingBlock: ZUJKAS_clean_linker_0, # of connection points: 2
#     Edge 35, Type (0, 0), BuildingBlock: ZUJKAS_clean_linker_0, # of connection points: 2
#     Edge 36, Type (0, 0), BuildingBlock: ZUJKAS_clean_linker_0, # of connection points: 2
#     Edge 37, Type (0, 0), BuildingBlock: ZUJKAS_clean_linker_0, # of connection points: 2
#     Edge 38, Type (0, 0), BuildingBlock: ZUJKAS_clean_linker_0, # of connection points: 2
#     Edge 39, Type (0, 0), BuildingBlock: ZUJKAS_clean_linker_0, # of connection points: 2
#     Edge 40, Type (0, 0), BuildingBlock: ZUJKAS_clean_linker_0, # of connection points: 2
#     Edge 41, Type (0, 0), BuildingBlock: ZUJKAS_clean_linker_0, # of connection points: 2
#     Edge 42, Type (0, 0), BuildingBlock: ZUJKAS_clean_linker_0, # of connection points: 2
#     Edge 43, Type (0, 0), BuildingBlock: ZUJKAS_clean_linker_0, # of connection points: 2
#     Edge 44, Type (0, 0), BuildingBlock: ZUJKAS_clean_linker_0, # of connection points: 2
#     Edge 45, Type (0, 0), BuildingBlock: ZUJKAS_clean_linker_0, # of connection points: 2
#     Edge 46, Type (0, 0), BuildingBlock: ZUJKAS_clean_linker_0, # of connection points: 2
#     Edge 47, Type (0, 0), BuildingBlock: ZUJKAS_clean_linker_0, # of connection points: 2
#     Edge 48, Type (0, 0), BuildingBlock: ZUJKAS_clean_linker_0, # of connection points: 2
#     Edge 49, Type (0, 0), BuildingBlock: ZUJKAS_clean_linker_0, # of connection points: 2
#     Edge 50, Type (0, 0), BuildingBlock: ZUJKAS_clean_linker_0, # of connection points: 2
#     Edge 51, Type (0, 0), BuildingBlock: ZUJKAS_clean_linker_0, # of connection points: 2
#     Edge 52, Type (0, 0), BuildingBlock: ZUJKAS_clean_linker_0, # of connection points: 2
#     Edge 53, Type (0, 0), BuildingBlock: ZUJKAS_clean_linker_0, # of connection points: 2
#     Edge 54, Type (0, 0), BuildingBlock: ZUJKAS_clean_linker_0, # of connection points: 2
#     Edge 55, Type (0, 0), BuildingBlock: ZUJKAS_clean_linker_0, # of connection points: 2
# Relax obj value: 0.040
# Max RMSD: 0.098
# Mean RMSD: 0.098
data_MOF--net-vbf--node1-BEQFEK_clean_sbu_0--edge1-ZUJKAS_clean_linker_0
_symmetry_space_group_name_H-M    P1
_symmetry_Int_Tables_number       1
_symmetry_cell_setting            triclinic
loop_
_symmetry_equiv_pos_as_xyz
'x, y, z'
_cell_length_a     47.4841
_cell_length_b     107.30874
_cell_length_c     36.818177
_cell_angle_alpha  90.000154
_cell_angle_beta   89.987492
_cell_angle_gamma 90.008715
loop_
_atom_site_label
_atom_site_type_symbol
_atom_site_fract_x
_atom_site_fract_y
_atom_site_fract_z
_atom_type_partial_charge
Co0 Co 0.09673 0.31 0.9662 0.0
Co1 Co 0.06133 0.29019 0.00982 0.0
C2 C 0.12457 0.28923 0.00714 0.0
O3 O 0.12583 0.299 0.98759 0.0
O4 O 0.10101 0.28485 0.01764 0.0
C5 C 0.14088 0.32342 0.93043 0.0
O6 O 0.15347 0.31253 0.93183 0.0
C7 C 0.04302 0.2774 0.07592 0.0
C8 C 0.00281 0.26882 0.05915 0.0
C9 C 0.0208 0.27015 0.0886 0.0
N10 N 0.03831 0.28016 0.04082 0.0
N11 N 0.01433 0.27494 0.03088 0.0
C12 C 0.06731 0.28252 0.09709 0.0
H13 H 0.07559 0.29106 0.08389 0.0
H14 H 0.06089 0.28466 0.1254 0.0
H15 H 0.08445 0.27549 0.09775 0.0
C16 C 0.06381 0.32721 0.01248 0.0
N17 N 0.07129 0.31562 1.00226 0.0
N18 N 0.05614 0.30744 0.02038 0.0
C19 C 0.03828 0.31362 0.04252 0.0
C20 C 0.04262 0.32635 0.03834 0.0
C21 C 0.07708 0.33883 0.99788 0.0
H22 H 0.07089 0.34002 0.96903 0.0
H23 H 0.10034 0.33792 0.9989 0.0
H24 H 0.07069 0.34719 0.01357 0.0
O25 O 0.07613 0.30069 0.92777 0.0
O26 O 0.05094 0.28673 0.95839 0.0
H27 H 0.00543 0.30007 0.04857 0.0
H28 H 0.99949 0.31429 0.07351 0.0
C29 C 0.01573 0.30751 0.06468 0.0
H30 H 0.02535 0.30322 0.0891 0.0
H31 H 0.00564 0.2757 0.00492 0.0
O32 O 0.1161 0.32448 0.94319 0.0
C33 C 0.05868 0.29165 0.92846 0.0
Co34 Co 0.90631 0.69534 0.96123 0.0
Co35 Co 0.94009 0.71448 0.00957 0.0
C36 C 0.87736 0.71575 0.00312 0.0
O37 O 0.87695 0.70637 0.98201 0.0
O38 O 0.90038 0.71985 0.01615 0.0
C39 C 0.8687 0.67483 0.95421 0.0
O40 O 0.86606 0.67657 0.98938 0.0
C41 C 0.95927 0.72766 0.07636 0.0
C42 C 1.0007 0.73474 0.05853 0.0
C43 C 0.98263 0.73439 0.08807 0.0
N44 N 0.96363 0.72406 0.0417 0.0
N45 N 0.98842 0.72838 0.03129 0.0
C46 C 0.9329 0.72506 0.09738 0.0
H47 H 0.91513 0.72293 0.07908 0.0
H48 H 0.93623 0.71686 0.11516 0.0
H49 H 0.92742 0.73315 0.1148 0.0
C50 C 0.94061 0.67744 0.00436 0.0
N51 N 0.93143 0.68907 0.99712 0.0
N52 N 0.94492 0.69702 0.01812 0.0
C53 C 0.96269 0.69064 0.03987 0.0
C54 C 0.96055 0.67801 0.03189 0.0
C55 C 0.93321 0.66619 0.98225 0.0
H56 H 0.92909 0.66889 0.95369 0.0
H57 H 0.914 0.66181 0.99366 0.0
H58 H 0.95045 0.65921 0.98281 0.0
O59 O 0.92778 0.7049 0.92476 0.0
O60 O 0.95151 0.71855 0.9584 0.0
H61 H 0.99732 0.70243 0.05401 0.0
H62 H 0.99198 0.68956 0.08509 0.0
C63 C 0.98131 0.69655 0.06776 0.0
H64 H 0.96847 0.7026 0.08552 0.0
H65 H 0.99699 0.72697 0.00551 0.0
O66 O 0.88551 0.68171 0.93631 0.0
C67 C 0.94494 0.71399 0.92749 0.0
Co68 Co 0.15601 0.55998 0.21573 0.0
Co69 Co 0.19008 0.53987 0.26032 0.0
C70 C 0.12684 0.53932 0.25575 0.0
O71 O 0.12619 0.5491 0.23624 0.0
O72 O 0.15009 0.53481 0.26684 0.0
C73 C 0.11282 0.5736 0.17885 0.0
O74 O 0.10025 0.5627 0.17911 0.0
C75 C 0.20899 0.5266 0.32655 0.0
C76 C 0.24829 0.51779 0.30731 0.0
C77 C 0.23125 0.51907 0.33765 0.0
N78 N 0.213 0.52972 0.29146 0.0
N79 N 0.23651 0.52439 0.28019 0.0
C80 C 0.18373 0.53033 0.34836 0.0
H81 H 0.16611 0.53312 0.33053 0.0
H82 H 0.18912 0.53843 0.36571 0.0
H83 H 0.17697 0.52255 0.36625 0.0
C84 C 0.18928 0.57695 0.26213 0.0
N85 N 0.18114 0.5654 0.25233 0.0
N86 N 0.19596 0.55713 0.27053 0.0
C87 C 0.21441 0.56319 0.29211 0.0
C88 C 0.21066 0.57595 0.28766 0.0
C89 C 0.17843 0.58861 0.24478 0.0
H90 H 0.1815 0.58803 0.21495 0.0
H91 H 0.15548 0.58941 0.24997 0.0
H92 H 0.18927 0.59705 0.25515 0.0
O93 O 0.17705 0.55067 0.17767 0.0
O94 O 0.20057 0.53629 0.20896 0.0
H95 H 0.24805 0.55018 0.29977 0.0
H96 H 0.24985 0.56362 0.32941 0.0
C97 C 0.23553 0.55688 0.31603 0.0
H98 H 0.22431 0.55162 0.33745 0.0
H99 H 0.24452 0.52525 0.25391 0.0
O100 O 0.13723 0.5746 0.19276 0.0
C101 C 0.1938 0.54138 0.17888 0.0
Co102 Co 0.84611 0.44532 0.21291 0.0
Co103 Co 0.8125 0.46452 0.26087 0.0
C104 C 0.87487 0.46601 0.25493 0.0
O105 O 0.87527 0.45659 0.23387 0.0
O106 O 0.85183 0.47013 0.26791 0.0
C107 C 0.88526 0.42539 0.20627 0.0
O108 O 0.89015 0.4283 0.24036 0.0
C109 C 0.79382 0.47879 0.3251 0.0
C110 C 0.74865 0.4815 0.31305 0.0
C111 C 0.76905 0.4837 0.33918 0.0
N112 N 0.78822 0.47387 0.29224 0.0
N113 N 0.76126 0.47567 0.28505 0.0
C114 C 0.82156 0.47752 0.34402 0.0
H115 H 0.8326 0.46899 0.33468 0.0
H116 H 0.81873 0.47713 0.37392 0.0
H117 H 0.83487 0.4857 0.33731 0.0
C118 C 0.81269 0.42748 0.25711 0.0
N119 N 0.82133 0.43912 0.24903 0.0
N120 N 0.80845 0.4471 0.27051 0.0
C121 C 0.79198 0.44071 0.29389 0.0
C122 C 0.79388 0.42805 0.286 0.0
C123 C 0.81988 0.41622 0.23491 0.0
H124 H 0.82296 0.41887 0.20609 0.0
H125 H 0.8397 0.41208 0.24531 0.0
H126 H 0.80299 0.4091 0.23652 0.0
O127 O 0.82428 0.45451 0.17599 0.0
O128 O 0.80123 0.46839 0.2096 0.0
H129 H 0.75663 0.4512 0.31283 0.0
H130 H 0.76908 0.43964 0.34474 0.0
C131 C 0.77561 0.44659 0.32411 0.0
H132 H 0.78875 0.45371 0.33773 0.0
H133 H 0.75128 0.47257 0.26147 0.0
O134 O 0.8667 0.43146 0.18877 0.0
C135 C 0.80733 0.46366 0.17876 0.0
Co136 Co 0.09844 0.80983 0.46231 0.0
Co137 Co 0.0653 0.79038 0.51003 0.0
C138 C 0.12797 0.78979 0.50558 0.0
O139 O 0.12814 0.79923 0.48462 0.0
O140 O 0.10497 0.78533 0.51768 0.0
C141 C 0.13464 0.83094 0.45534 0.0
O142 O 0.13669 0.82961 0.49071 0.0
C143 C 0.04719 0.77603 0.57455 0.0
C144 C 0.00303 0.77163 0.56064 0.0
C145 C 0.02303 0.77027 0.58775 0.0
N146 N 0.04148 0.78076 0.54148 0.0
N147 N 0.01511 0.77801 0.53327 0.0
C148 C 0.0757 0.77654 0.59184 0.0
H149 H 0.09115 0.77204 0.57352 0.0
H150 H 0.08221 0.7864 0.59528 0.0
H151 H 0.07635 0.77165 0.6183 0.0
C152 C 0.06278 0.8274 0.50501 0.0
N153 N 0.07248 0.81587 0.49745 0.0
N154 N 0.06006 0.80778 0.51904 0.0
C155 C 0.04296 0.81398 0.54207 0.0
C156 C 0.04387 0.82663 0.53379 0.0
C157 C 0.06892 0.83866 0.48237 0.0
H158 H 0.07357 0.83591 0.45399 0.0
H159 H 0.08749 0.84359 0.49371 0.0
H160 H 0.0508 0.84519 0.48248 0.0
O161 O 0.07814 0.79999 0.42537 0.0
O162 O 0.05453 0.78624 0.45872 0.0
H163 H 0.00852 0.80295 0.56125 0.0
H164 H 0.01996 0.81481 0.59292 0.0
C165 C 0.02708 0.80792 0.57244 0.0
H166 H 0.0408 0.80107 0.58624 0.0
H167 H 0.00525 0.78061 0.50911 0.0
O168 O 0.11876 0.82362 0.4375 0.0
C169 C 0.0613 0.79079 0.42787 0.0
Co170 Co 0.90574 0.19568 0.46346 0.0
Co171 Co 0.93861 0.21527 0.51142 0.0
C172 C 0.87608 0.21591 0.5064 0.0
O173 O 0.87618 0.20666 0.48472 0.0
O174 O 0.89886 0.2202 0.51968 0.0
C175 C 0.86135 0.18213 0.42804 0.0
O176 O 0.84829 0.1929 0.43009 0.0
C177 C 0.95739 0.23011 0.57467 0.0
C178 C 0.00183 0.23383 0.56056 0.0
C179 C 0.98185 0.23575 0.5874 0.0
N180 N 0.96289 0.22493 0.54213 0.0
N181 N 0.98945 0.22727 0.53379 0.0
C182 C 0.92875 0.23023 0.59165 0.0
H183 H 0.91389 0.23487 0.5728 0.0
H184 H 0.92135 0.22052 0.59564 0.0
H185 H 0.92835 0.23534 0.61778 0.0
C186 C 0.93992 0.17828 0.50784 0.0
N187 N 0.93108 0.18986 0.4995 0.0
N188 N 0.94382 0.19795 0.52074 0.0
C189 C 0.96055 0.19172 0.54411 0.0
C190 C 0.95891 0.17902 0.53655 0.0
C191 C 0.93223 0.16695 0.48628 0.0
H192 H 0.93145 0.1693 0.45697 0.0
H193 H 0.911 0.16372 0.49466 0.0
H194 H 0.94759 0.15929 0.49034 0.0
O195 O 0.92656 0.20519 0.4262 0.0
O196 O 0.94914 0.21919 0.45989 0.0
H197 H 0.99555 0.20252 0.56264 0.0
H198 H 0.98361 0.19095 0.59489 0.0
C199 C 0.97677 0.1978 0.57413 0.0
H200 H 0.96343 0.20488 0.58759 0.0
H201 H 0.9992 0.22427 0.50995 0.0
O202 O 0.88636 0.18124 0.44014 0.0
C203 C 0.94306 0.21452 0.42897 0.0
Co204 Co 0.15491 0.05933 0.71084 0.0
Co205 Co 0.1888 0.04011 0.75849 0.0
C206 C 0.12607 0.0392 0.75439 0.0
O207 O 0.12568 0.04843 0.73269 0.0
O208 O 0.14913 0.03502 0.76716 0.0
C209 C 0.1178 0.08007 0.70478 0.0
O210 O 0.11544 0.07827 0.73995 0.0
C211 C 0.20731 0.02624 0.82334 0.0
C212 C 0.25081 0.02096 0.8086 0.0
C213 C 0.23113 0.02017 0.8363 0.0
N214 N 0.21287 0.03058 0.78981 0.0
N215 N 0.23886 0.02734 0.78111 0.0
C216 C 0.17897 0.02719 0.84092 0.0
H217 H 0.16394 0.02142 0.82521 0.0
H218 H 0.17148 0.03698 0.83982 0.0
H219 H 0.17894 0.02379 0.8693 0.0
C220 C 0.18993 0.07713 0.75384 0.0
N221 N 0.18066 0.06553 0.74617 0.0
N222 N 0.19395 0.05749 0.76709 0.0
C223 C 0.21151 0.06377 0.78936 0.0
C224 C 0.20965 0.07641 0.7816 0.0
C225 C 0.18254 0.0885 0.7323 0.0
H226 H 0.17812 0.08596 0.70369 0.0
H227 H 0.16352 0.09289 0.74419 0.0
H228 H 0.19992 0.09541 0.73299 0.0
O229 O 0.17558 0.04968 0.67376 0.0
O230 O 0.19938 0.036 0.70716 0.0
H231 H 0.2464 0.05237 0.80494 0.0
H232 H 0.23858 0.06473 0.83676 0.0
C233 C 0.22927 0.05777 0.81803 0.0
H234 H 0.21616 0.05128 0.83418 0.0
H235 H 0.24851 0.02955 0.75647 0.0
O236 O 0.13416 0.0731 0.68647 0.0
C237 C 0.19259 0.04054 0.67631 0.0
Co238 Co 0.84743 0.94553 0.71238 0.0
Co239 Co 0.81325 0.96487 0.75935 0.0
C240 C 0.87624 0.96577 0.75476 0.0
O241 O 0.87694 0.95637 0.73371 0.0
O242 O 0.85301 0.96996 0.76692 0.0
C243 C 0.88611 0.92543 0.70458 0.0
O244 O 0.891 0.92794 0.73894 0.0
C245 C 0.79382 0.97733 0.82665 0.0
C246 C 0.75542 0.98686 0.80732 0.0
C247 C 0.77191 0.98504 0.83793 0.0
N248 N 0.79017 0.97468 0.79118 0.0
N249 N 0.76717 0.98041 0.77987 0.0
C250 C 0.81861 0.9731 0.84854 0.0
H251 H 0.8359 0.96986 0.83077 0.0
H252 H 0.81231 0.96518 0.86607 0.0
H253 H 0.8262 0.98076 0.86629 0.0
C254 C 0.81288 0.9278 0.75616 0.0
N255 N 0.82182 0.93941 0.74809 0.0
N256 N 0.80775 0.9475 0.76803 0.0
C257 C 0.78962 0.94124 0.7896 0.0
C258 C 0.7924 0.92858 0.78296 0.0
C259 C 0.82345 0.9162 0.73815 0.0
H260 H 0.82542 0.91774 0.70848 0.0
H261 H 0.84454 0.9139 0.74918 0.0
H262 H 0.80946 0.90812 0.74321 0.0
O263 O 0.82647 0.95517 0.67533 0.0
O264 O 0.8025 0.96894 0.70824 0.0
H265 H 0.75727 0.95484 0.79831 0.0
H266 H 0.75198 0.94047 0.82286 0.0
C267 C 0.76799 0.94727 0.8134 0.0
H268 H 0.77852 0.95136 0.83743 0.0
H269 H 0.75956 0.97999 0.75331 0.0
O270 O 0.86766 0.93172 0.68753 0.0
C271 C 0.8094 0.96431 0.67756 0.0
Co272 Co 0.59658 0.30934 0.46258 0.0
Co273 Co 0.5617 0.2906 0.5105 0.0
C274 C 0.62417 0.28883 0.50626 0.0
O275 O 0.62499 0.29807 0.48459 0.0
O276 O 0.60092 0.28492 0.51918 0.0
C277 C 0.6349 0.32966 0.45622 0.0
O278 O 0.63688 0.32805 0.49151 0.0
C279 C 0.54216 0.27669 0.57484 0.0
C280 C 0.49729 0.27362 0.56178 0.0
C281 C 0.5174 0.27161 0.58841 0.0
N282 N 0.53689 0.28147 0.54174 0.0
N283 N 0.51009 0.27949 0.53398 0.0
C284 C 0.56962 0.27813 0.59434 0.0
H285 H 0.5805 0.28673 0.58519 0.0
H286 H 0.56638 0.27852 0.62417 0.0
H287 H 0.58324 0.27002 0.58797 0.0
C288 C 0.56263 0.32763 0.50491 0.0
N289 N 0.57126 0.31591 0.49768 0.0
N290 N 0.55765 0.3081 0.51898 0.0
C291 C 0.54061 0.31467 0.54124 0.0
C292 C 0.54308 0.32726 0.53295 0.0
C293 C 0.57031 0.33877 0.48253 0.0
H294 H 0.57474 0.33597 0.45414 0.0
H295 H 0.58939 0.34321 0.49415 0.0
H296 H 0.55307 0.34575 0.4826 0.0
O297 O 0.57537 0.29995 0.42563 0.0
O298 O 0.5511 0.28646 0.45909 0.0
H299 H 0.50446 0.30427 0.55788 0.0
H300 H 0.51514 0.31612 0.58991 0.0
C301 C 0.5228 0.30901 0.57043 0.0
H302 H 0.53525 0.30201 0.5856 0.0
H303 H 0.50036 0.28242 0.51004 0.0
O304 O 0.6183 0.32276 0.43806 0.0
C305 C 0.55806 0.29092 0.42821 0.0
Co306 Co 0.4064 0.69518 0.46418 0.0
Co307 Co 0.44222 0.71469 0.50851 0.0
C308 C 0.37935 0.71643 0.50471 0.0
O309 O 0.37795 0.70677 0.48466 0.0
O310 O 0.40292 0.72049 0.51621 0.0
C311 C 0.36134 0.67793 0.45059 0.0
O312 O 0.3487 0.68442 0.47606 0.0
C313 C 0.46129 0.72828 0.5731 0.0
C314 C 0.50438 0.73394 0.5576 0.0
C315 C 0.48508 0.73441 0.58582 0.0
N316 N 0.46633 0.72438 0.539 0.0
N317 N 0.49203 0.72791 0.52977 0.0
C318 C 0.43511 0.7252 0.59384 0.0
H319 H 0.42548 0.71652 0.58312 0.0
H320 H 0.43976 0.72408 0.62321 0.0
H321 H 0.41974 0.7329 0.59052 0.0
C322 C 0.43825 0.67769 0.51092 0.0
N323 N 0.4312 0.68933 0.5007 0.0
N324 N 0.44624 0.6974 0.51937 0.0
C325 C 0.46339 0.6911 0.54214 0.0
C326 C 0.45887 0.67841 0.53755 0.0
C327 C 0.4252 0.66614 0.49551 0.0
H328 H 0.42968 0.66566 0.46596 0.0
H329 H 0.40203 0.66661 0.49901 0.0
H330 H 0.43311 0.65759 0.50899 0.0
O331 O 0.42791 0.70409 0.42587 0.0
O332 O 0.4528 0.718 0.45704 0.0
H333 H 0.49824 0.70353 0.54873 0.0
H334 H 0.49957 0.69012 0.57807 0.0
C335 C 0.4854 0.69709 0.56543 0.0
H336 H 0.475 0.70257 0.58715 0.0
H337 H 0.50135 0.72594 0.50474 0.0
O338 O 0.38626 0.68087 0.4412 0.0
C339 C 0.44546 0.71309 0.42696 0.0
Co340 Co 0.65508 0.55947 0.7126 0.0
Co341 Co 0.68819 0.54033 0.76126 0.0
C342 C 0.62585 0.53914 0.75575 0.0
O343 O 0.62575 0.54831 0.73374 0.0
O344 O 0.64871 0.53508 0.76939 0.0
C345 C 0.61615 0.57944 0.70582 0.0
O346 O 0.61131 0.57656 0.73995 0.0
C347 C 0.70703 0.52607 0.82547 0.0
C348 C 0.75209 0.52323 0.81299 0.0
C349 C 0.73179 0.52106 0.83928 0.0
N350 N 0.71252 0.53099 0.79258 0.0
N351 N 0.73942 0.52912 0.78515 0.0
C352 C 0.67941 0.52738 0.84466 0.0
H353 H 0.66847 0.53597 0.83562 0.0
H354 H 0.68239 0.52769 0.87454 0.0
H355 H 0.66594 0.51926 0.8379 0.0
C356 C 0.68901 0.57734 0.75614 0.0
N357 N 0.68006 0.56571 0.7485 0.0
N358 N 0.69282 0.55776 0.77018 0.0
C359 C 0.70949 0.56416 0.79327 0.0
C360 C 0.7079 0.57679 0.78495 0.0
C361 C 0.68201 0.58854 0.73361 0.0
H362 H 0.67878 0.58579 0.70489 0.0
H363 H 0.66229 0.5928 0.74396 0.0
H364 H 0.69905 0.5956 0.73491 0.0
O365 O 0.67671 0.55016 0.67588 0.0
O366 O 0.69904 0.53617 0.7099 0.0
H367 H 0.74469 0.55364 0.81254 0.0
H368 H 0.73228 0.56531 0.84416 0.0
C369 C 0.72573 0.55831 0.82367 0.0
H370 H 0.7125 0.55125 0.83738 0.0
H371 H 0.74932 0.5322 0.76148 0.0
O372 O 0.63464 0.57333 0.68831 0.0
C373 C 0.69325 0.54087 0.67892 0.0
Co374 Co 0.34713 0.4454 0.71521 0.0
Co375 Co 0.31219 0.46473 0.76136 0.0
C376 C 0.37494 0.46614 0.75762 0.0
O377 O 0.37585 0.4567 0.73666 0.0
O378 O 0.35163 0.47024 0.76988 0.0
C379 C 0.39203 0.43214 0.67968 0.0
O380 O 0.40474 0.443 0.68124 0.0
C381 C 0.29255 0.47911 0.82479 0.0
C382 C 0.24795 0.48245 0.81079 0.0
C383 C 0.26784 0.48443 0.83771 0.0
N384 N 0.28746 0.47422 0.79177 0.0
N385 N 0.26082 0.47637 0.78344 0.0
C386 C 0.31972 0.47754 0.84484 0.0
H387 H 0.3305 0.46889 0.83598 0.0
H388 H 0.3161 0.4772 0.87461 0.0
H389 H 0.33363 0.48558 0.83871 0.0
C390 C 0.31372 0.4277 0.75926 0.0
N391 N 0.32183 0.43939 0.75091 0.0
N392 N 0.30768 0.44736 0.77101 0.0
C393 C 0.29041 0.44095 0.79336 0.0
C394 C 0.29352 0.42827 0.78655 0.0
C395 C 0.32319 0.4164 0.73875 0.0
H396 H 0.32274 0.41837 0.70918 0.0
H397 H 0.34525 0.41421 0.74639 0.0
H398 H 0.30968 0.4082 0.74435 0.0
O399 O 0.32616 0.45458 0.67738 0.0
O400 O 0.30196 0.46843 0.70968 0.0
H401 H 0.25395 0.45159 0.80732 0.0
H402 H 0.26319 0.43988 0.84056 0.0
C403 C 0.27169 0.44684 0.82118 0.0
H404 H 0.28375 0.45389 0.83669 0.0
H405 H 0.25125 0.4734 0.75944 0.0
O406 O 0.36718 0.43111 0.69223 0.0
C407 C 0.30898 0.46368 0.6792 0.0
Co408 Co 0.59618 0.81003 0.9617 0.0
Co409 Co 0.56326 0.7902 0.00859 0.0
C410 C 0.62605 0.78947 1.00185 0.0
O411 O 0.62614 0.79888 0.98078 0.0
O412 O 0.60322 0.78527 0.01515 0.0
C413 C 0.63711 0.82915 0.9519 0.0
O414 O 0.64602 0.82485 0.98327 0.0
C415 C 0.54458 0.77722 0.0754 0.0
C416 C 0.50621 0.76768 0.05597 0.0
C417 C 0.5229 0.76934 0.08649 0.0
N418 N 0.54062 0.7801 0.04014 0.0
N419 N 0.51763 0.77436 0.02879 0.0
C420 C 0.56946 0.78141 0.0972 0.0
H421 H 0.58658 0.78478 0.07936 0.0
H422 H 0.56315 0.78923 0.1151 0.0
H423 H 0.57727 0.77369 0.11454 0.0
C424 C 0.56325 0.82728 0.00836 0.0
N425 N 0.57165 0.81572 0.99899 0.0
N426 N 0.55758 0.80749 0.01839 0.0
C427 C 0.53973 0.8136 0.04071 0.0
C428 C 0.54284 0.82632 0.03521 0.0
C429 C 0.57459 0.83897 0.9917 0.0
H430 H 0.57262 0.83845 0.96171 0.0
H431 H 0.59726 0.83981 0.99845 0.0
H432 H 0.56365 0.8474 1.00182 0.0
O433 O 0.57419 0.80081 0.92466 0.0
O434 O 0.55229 0.78633 0.95746 0.0
H435 H 0.50757 0.79985 0.04861 0.0
H436 H 0.50186 0.8141 0.07355 0.0
C437 C 0.51806 0.8074 0.06405 0.0
H438 H 0.52851 0.80325 0.08807 0.0
H439 H 0.50982 0.77495 1.00235 0.0
O440 O 0.61541 0.82427 0.93744 0.0
C441 C 0.55794 0.79139 0.92694 0.0
Co442 Co 0.40484 0.19497 0.96196 0.0
Co443 Co 0.43818 0.21446 0.00959 0.0
C444 C 0.37525 0.21534 0.00301 0.0
O445 O 0.37486 0.20583 0.98236 0.0
O446 O 0.39832 0.21961 0.01543 0.0
C447 C 0.36458 0.1756 0.95218 0.0
O448 O 0.35646 0.17939 0.98447 0.0
C449 C 0.45632 0.2278 0.07644 0.0
C450 C 0.49766 0.23516 0.05922 0.0
C451 C 0.47934 0.23467 0.0885 0.0
N452 N 0.4611 0.22425 0.04184 0.0
N453 N 0.48582 0.22873 0.03179 0.0
C454 C 0.42986 0.22502 0.09708 0.0
H455 H 0.41216 0.22306 0.07849 0.0
H456 H 0.43313 0.21665 0.11421 0.0
H457 H 0.42427 0.23294 0.11506 0.0
C458 C 0.43819 0.17738 0.00679 0.0
N459 N 0.42958 0.189 0.99848 0.0
N460 N 0.44337 0.19707 0.01872 0.0
C461 C 0.46107 0.19079 0.04081 0.0
C462 C 0.45837 0.17809 0.03401 0.0
C463 C 0.42946 0.16596 0.98629 0.0
H464 H 0.42819 0.16808 0.95686 0.0
H465 H 0.40831 0.163 0.99573 0.0
H466 H 0.44447 0.15817 0.9904 0.0
O467 O 0.42658 0.20448 0.92536 0.0
O468 O 0.44962 0.21848 0.95863 0.0
H469 H 0.49554 0.20286 0.05357 0.0
H470 H 0.49146 0.18996 0.08488 0.0
C471 C 0.48011 0.19686 0.06794 0.0
H472 H 0.46745 0.20283 0.08617 0.0
H473 H 0.49467 0.22738 0.00614 0.0
O474 O 0.38547 0.18092 0.93711 0.0
C475 C 0.44341 0.2137 0.92791 0.0
Co476 Co 0.65573 0.05993 0.21273 0.0
Co477 Co 0.68977 0.04065 0.26025 0.0
C478 C 0.62695 0.03961 0.25569 0.0
O479 O 0.6265 0.04889 0.23413 0.0
O480 O 0.65002 0.0355 0.26863 0.0
C481 C 0.61125 0.07324 0.17667 0.0
O482 O 0.5983 0.06244 0.17871 0.0
C483 C 0.7085 0.0268 0.32505 0.0
C484 C 0.75216 0.02178 0.31034 0.0
C485 C 0.7325 0.02087 0.33803 0.0
N486 N 0.71395 0.03118 0.29152 0.0
N487 N 0.74004 0.02808 0.28285 0.0
C488 C 0.68015 0.02762 0.34265 0.0
H489 H 0.6649 0.02234 0.3259 0.0
H490 H 0.67313 0.03749 0.34326 0.0
H491 H 0.67988 0.02364 0.37037 0.0
C492 C 0.6891 0.07766 0.25666 0.0
N493 N 0.68087 0.06598 0.24856 0.0
N494 N 0.69477 0.05803 0.26905 0.0
C495 C 0.71206 0.06447 0.29131 0.0
C496 C 0.70914 0.07714 0.28412 0.0
C497 C 0.67984 0.08893 0.23583 0.0
H498 H 0.68067 0.08692 0.2063 0.0
H499 H 0.65767 0.09111 0.24298 0.0
H500 H 0.69324 0.09715 0.24161 0.0
O501 O 0.67679 0.05044 0.17562 0.0
O502 O 0.70022 0.03659 0.20885 0.0
H503 H 0.74764 0.05333 0.30577 0.0
H504 H 0.73991 0.06562 0.33791 0.0
C505 C 0.73056 0.0586 0.31941 0.0
H506 H 0.71801 0.05198 0.33586 0.0
H507 H 0.74965 0.03037 0.25823 0.0
O508 O 0.63617 0.07421 0.18903 0.0
C509 C 0.69363 0.04123 0.17807 0.0
Co510 Co 0.34815 0.94569 0.21053 0.0
Co511 Co 0.31446 0.96492 0.25819 0.0
C512 C 0.37708 0.96595 0.25365 0.0
O513 O 0.37754 0.95668 0.23202 0.0
O514 O 0.354 0.97007 0.26646 0.0
C515 C 0.38735 0.92581 0.20366 0.0
O516 O 0.39278 0.92894 0.23745 0.0
C517 C 0.29613 0.9787 0.32323 0.0
C518 C 0.25291 0.98425 0.30811 0.0
C519 C 0.27241 0.98492 0.3361 0.0
N520 N 0.29074 0.97458 0.2894 0.0
N521 N 0.26496 0.97803 0.28044 0.0
C522 C 0.32248 0.9756 0.34363 0.0
H523 H 0.33263 0.96719 0.332 0.0
H524 H 0.31783 0.97398 0.37279 0.0
H525 H 0.33745 0.98351 0.34134 0.0
C526 C 0.31367 0.92792 0.25386 0.0
N527 N 0.32265 0.93954 0.24612 0.0
N528 N 0.30935 0.94754 0.26713 0.0
C529 C 0.29207 0.94121 0.28963 0.0
C530 C 0.29406 0.92855 0.28186 0.0
C531 C 0.32147 0.91663 0.2322 0.0
H532 H 0.32457 0.91918 0.2033 0.0
H533 H 0.34148 0.91274 0.24287 0.0
H534 H 0.30495 0.90935 0.23396 0.0
O535 O 0.32724 0.95521 0.17339 0.0
O536 O 0.30383 0.96899 0.20685 0.0
H537 H 0.25726 0.95254 0.30606 0.0
H538 H 0.26586 0.94025 0.33792 0.0
C539 C 0.27467 0.94719 0.31873 0.0
H540 H 0.28791 0.95373 0.33443 0.0
H541 H 0.25542 0.97594 0.25564 0.0
O542 O 0.36841 0.93174 0.1864 0.0
C543 C 0.31037 0.9644 0.17599 0.0
H544 H 0.11979 0.34682 0.91777 0.0
H545 H 0.14468 0.36477 0.89208 0.0
H546 H 0.22052 0.34284 0.88375 0.0
H547 H 0.1957 0.32481 0.90839 0.0
H548 H 0.19011 0.37735 0.91704 0.0
H549 H 0.21526 0.35696 0.78269 0.0
H550 H 0.19048 0.34985 0.81353 0.0
H551 H 0.22774 0.34755 0.81957 0.0
C552 C 0.14172 0.34579 0.9102 0.0
C553 C 0.15569 0.33434 0.91483 0.0
C554 C 0.15592 0.35607 0.89557 0.0
C555 C 0.18433 0.35509 0.88531 0.0
C556 C 0.19841 0.34373 0.89048 0.0
H557 H 0.3139 0.40648 0.81417 0.0
H558 H 0.28679 0.38886 0.83856 0.0
C559 C 0.1842 0.33344 0.90482 0.0
C560 C 0.19953 0.36604 0.87025 0.0
H561 H 0.23942 0.37574 0.7983 0.0
C562 C 0.20068 0.37703 0.89094 0.0
C563 C 0.21327 0.36563 0.83611 0.0
C564 C 0.21142 0.35441 0.81152 0.0
C565 C 0.21576 0.3875 0.87881 0.0
C566 C 0.22997 0.38696 0.84514 0.0
C567 C 0.22865 0.37605 0.82427 0.0
C568 C 0.24625 0.39768 0.83099 0.0
C569 C 0.21691 0.399 0.90231 0.0
C570 C 0.23235 0.40838 0.81846 0.0
C571 C 0.24774 0.41835 0.80418 0.0
C572 C 0.27728 0.4178 0.8024 0.0
C573 C 0.29114 0.40709 0.8151 0.0
C574 C 0.27573 0.39707 0.82909 0.0
H575 H 0.20854 0.39726 0.93003 0.0
H576 H 0.23891 0.40243 0.90455 0.0
H577 H 0.20418 0.40649 0.88957 0.0
H578 H 0.20958 0.40893 0.81928 0.0
H579 H 0.23653 0.42641 0.79401 0.0
H580 H 0.85415 0.67352 0.88257 0.0
H581 H 0.82547 0.65755 0.8528 0.0
H582 H 0.81933 0.63749 0.95408 0.0
H583 H 0.84668 0.65376 0.9843 0.0
H584 H 0.8327 0.63421 0.8403 0.0
H585 H 0.73859 0.6383 0.92773 0.0
H586 H 0.76726 0.64928 0.93001 0.0
H587 H 0.7692 0.63468 0.95412 0.0
C588 C 0.84654 0.66572 0.89848 0.0
C589 C 0.85237 0.66494 0.93583 0.0
C590 C 0.83015 0.6566 0.88146 0.0
C591 C 0.81958 0.64643 0.90133 0.0
C592 C 0.82628 0.64545 0.93839 0.0
H593 H 0.76386 0.57721 0.80232 0.0
H594 H 0.79039 0.59414 0.83043 0.0
C595 C 0.84214 0.6547 0.9556 0.0
C596 C 0.80223 0.63673 0.88305 0.0
H597 H 0.74118 0.62009 0.89041 0.0
C598 C 0.81256 0.63121 0.85111 0.0
C599 C 0.77562 0.63296 0.89658 0.0
C600 C 0.76189 0.63922 0.92875 0.0
C601 C 0.7974 0.62189 0.83283 0.0
C602 C 0.77169 0.61754 0.84772 0.0
C603 C 0.76106 0.62325 0.8792 0.0
C604 C 0.75544 0.60712 0.8312 0.0
C605 C 0.80891 0.61704 0.79731 0.0
C606 C 0.72657 0.6085 0.82375 0.0
C607 C 0.71109 0.59862 0.80905 0.0
C608 C 0.7242 0.58721 0.80117 0.0
C609 C 0.75306 0.58584 0.80858 0.0
C610 C 0.7684 0.59561 0.82399 0.0
H611 H 0.8225 0.62408 0.7838 0.0
H612 H 0.82208 0.60869 0.80262 0.0
H613 H 0.79175 0.61442 0.77832 0.0
H614 H 0.71598 0.61724 0.82929 0.0
H615 H 0.6888 0.5999 0.80405 0.0
H616 H 0.01766 0.67649 0.04037 0.0
H617 H 0.04481 0.659 0.06531 0.0
H618 H 0.96802 0.63824 0.08092 0.0
H619 H 0.94072 0.65583 0.05691 0.0
H620 H 0.03535 0.64659 0.13822 0.0
H621 H 0.02293 0.61548 0.01841 0.0
H622 H 0.01882 0.63219 0.01552 0.0
H623 H 0.99149 0.62284 0.03528 0.0
C624 C 0.00658 0.66826 0.04962 0.0
C625 C 0.9771 0.66753 0.04711 0.0
C626 C 0.02209 0.65827 0.0636 0.0
C627 C 0.00839 0.64733 0.07471 0.0
C628 C 0.97896 0.64657 0.07216 0.0
H629 H 0.05848 0.57514 0.15507 0.0
H630 H 0.03418 0.59334 0.13055 0.0
C631 C 0.96344 0.65659 0.05846 0.0
C632 C 0.02481 0.63672 0.08922 0.0
H633 H 0.04456 0.60684 0.07041 0.0
C634 C 0.03755 0.6379 0.12341 0.0
C635 C 0.02746 0.62544 0.06979 0.0
C636 C 0.01465 0.62385 0.03258 0.0
C637 C 0.05233 0.62793 0.13918 0.0
C638 C 0.05505 0.61661 0.11972 0.0
C639 C 0.0425 0.61551 0.08531 0.0
C640 C 0.07014 0.60565 0.13486 0.0
C641 C 0.06403 0.6295 0.17701 0.0
C642 C 0.09858 0.60645 0.1451 0.0
C643 C 0.11251 0.59606 0.15947 0.0
C644 C 0.09835 0.58462 0.16335 0.0
C645 C 0.07002 0.5838 0.15246 0.0
C646 C 0.05608 0.5942 0.13841 0.0
H647 H 0.05355 0.63725 0.19177 0.0
H648 H 0.06156 0.62082 0.19313 0.0
H649 H 0.08682 0.63171 0.17524 0.0
H650 H 0.11009 0.61508 0.14177 0.0
H651 H 0.13439 0.59698 0.16735 0.0
H652 H 0.01509 0.34541 0.00491 0.0
H653 H 0.98829 0.36233 0.03367 0.0
H654 H 0.0074 0.34715 0.13928 0.0
H655 H 0.03426 0.33023 0.11057 0.0
H656 H 0.94037 0.35887 0.08627 0.0
H657 H 0.03184 0.38521 0.14142 0.0
H658 H 0.0351 0.37444 0.10392 0.0
H659 H 0.03127 0.36866 0.14937 0.0
C660 C 0.01371 0.34578 0.03426 0.0
C661 C 0.02681 0.33662 0.05565 0.0
C662 C 0.99835 0.35538 0.0506 0.0
C663 C 0.99612 0.35602 0.08855 0.0
C664 C 0.00915 0.34687 0.10995 0.0
H665 H 0.92082 0.40869 0.23843 0.0
H666 H 0.94663 0.39164 0.20958 0.0
C667 C 0.02433 0.33721 0.0936 0.0
C668 C 0.97976 0.36617 0.10575 0.0
H669 H 0.98654 0.39238 0.15747 0.0
C670 C 0.95039 0.36623 0.10178 0.0
C671 C 0.99298 0.37568 0.12605 0.0
C672 C 0.02455 0.37613 0.1304 0.0
C673 C 0.93375 0.37548 0.11816 0.0
C674 C 0.94698 0.38511 0.13821 0.0
C675 C 0.97641 0.38502 0.1421 0.0
C676 C 0.93074 0.39534 0.15556 0.0
C677 C 0.90214 0.37465 0.11463 0.0
C678 C 0.91338 0.40317 0.13475 0.0
C679 C 0.8984 0.41287 0.15123 0.0
C680 C 0.90083 0.41504 0.18877 0.0
C681 C 0.91848 0.40728 0.20946 0.0
C682 C 0.93327 0.39753 0.19301 0.0
H683 H 0.89521 0.36503 0.10797 0.0
H684 H 0.89152 0.37763 0.14006 0.0
H685 H 0.89509 0.38086 0.09232 0.0
H686 H 0.91165 0.40188 0.10567 0.0
H687 H 0.88518 0.41874 0.13446 0.0
H688 H 0.15088 0.83151 0.38425 0.0
H689 H 0.17926 0.84742 0.35383 0.0
H690 H 0.18152 0.8689 0.45289 0.0
H691 H 0.15449 0.85268 0.48387 0.0
H692 H 0.1709 0.87043 0.33824 0.0
H693 H 0.26288 0.86881 0.42999 0.0
H694 H 0.23487 0.85751 0.43243 0.0
H695 H 0.23138 0.87242 0.45458 0.0
C696 C 0.15757 0.8396 0.39955 0.0
C697 C 0.15075 0.8408 0.43652 0.0
C698 C 0.17379 0.8487 0.38215 0.0
C699 C 0.18318 0.85926 0.40123 0.0
C700 C 0.17549 0.86065 0.43787 0.0
H701 H 0.23757 0.92765 0.29594 0.0
H702 H 0.21115 0.9108 0.3247 0.0
C703 C 0.15981 0.85143 0.4555 0.0
C704 C 0.20038 0.86892 0.38251 0.0
H705 H 0.2602 0.8864 0.39024 0.0
C706 C 0.19056 0.87383 0.34948 0.0
C707 C 0.22638 0.87322 0.39664 0.0
C708 C 0.23964 0.86761 0.43013 0.0
C709 C 0.20565 0.88305 0.33063 0.0
C710 C 0.2307 0.88792 0.34599 0.0
C711 C 0.24081 0.88283 0.37863 0.0
C712 C 0.24679 0.89827 0.32881 0.0
C713 C 0.1948 0.88722 0.29405 0.0
C714 C 0.27592 0.89713 0.32289 0.0
C715 C 0.29128 0.90698 0.30782 0.0
C716 C 0.27778 0.91813 0.29806 0.0
C717 C 0.24863 0.91924 0.30373 0.0
C718 C 0.23339 0.9095 0.31952 0.0
H719 H 0.18201 0.87981 0.28092 0.0
H720 H 0.181 0.89546 0.29771 0.0
H721 H 0.2123 0.88976 0.27547 0.0
H722 H 0.28684 0.8886 0.32999 0.0
H723 H 0.31377 0.90591 0.30407 0.0
H724 H 0.80612 0.18027 0.40814 0.0
H725 H 0.7815 0.16199 0.3846 0.0
H726 H 0.85869 0.14086 0.38896 0.0
H727 H 0.88335 0.15903 0.41355 0.0
H728 H 0.78963 0.14889 0.32317 0.0
H729 H 0.80552 0.11793 0.44211 0.0
H730 H 0.81288 0.13441 0.44366 0.0
H731 H 0.83774 0.12384 0.42337 0.0
C732 C 0.81789 0.17173 0.40422 0.0
C733 C 0.84669 0.17109 0.41291 0.0
C734 C 0.80376 0.16128 0.39073 0.0
C735 C 0.8181 0.14998 0.38559 0.0
C736 C 0.84699 0.14937 0.39358 0.0
H737 H 0.76613 0.0791 0.29164 0.0
H738 H 0.79287 0.09671 0.31658 0.0
C739 C 0.86112 0.1598 0.40738 0.0
C740 C 0.8028 0.13897 0.37111 0.0
H741 H 0.78552 0.10868 0.38946 0.0
C742 C 0.78866 0.14012 0.33776 0.0
C743 C 0.80151 0.12751 0.39016 0.0
C744 C 0.81498 0.12585 0.42696 0.0
C745 C 0.77349 0.13013 0.32283 0.0
C746 C 0.7723 0.1187 0.34184 0.0
C747 C 0.78657 0.11747 0.37499 0.0
C748 C 0.75607 0.10795 0.32778 0.0
C749 C 0.75907 0.13179 0.28664 0.0
C750 C 0.72655 0.10839 0.32639 0.0
C751 C 0.71127 0.09831 0.31261 0.0
C752 C 0.72528 0.08764 0.29993 0.0
C753 C 0.75482 0.08717 0.30166 0.0
C754 C 0.77009 0.09722 0.3157 0.0
H755 H 0.76645 0.14028 0.27226 0.0
H756 H 0.76279 0.12356 0.26896 0.0
H757 H 0.73602 0.13263 0.29101 0.0
H758 H 0.71535 0.11655 0.336 0.0
H759 H 0.6885 0.09884 0.31183 0.0
H760 H 0.93962 0.15614 0.55785 0.0
H761 H 0.96669 0.1391 0.58487 0.0
H762 H 0.04141 0.162 0.58291 0.0
H763 H 0.01493 0.1786 0.55303 0.0
H764 H 0.05472 0.13986 0.56331 0.0
H765 H 0.98987 0.13544 0.68746 0.0
H766 H 0.96938 0.13294 0.64727 0.0
H767 H 0.98504 0.14798 0.65552 0.0
C768 C 0.96188 0.15747 0.56288 0.0
C769 C 0.9751 0.16875 0.55366 0.0
C770 C 0.97726 0.1478 0.57888 0.0
C771 C 0.00599 0.14935 0.58694 0.0
C772 C 0.01924 0.16059 0.57735 0.0
H773 H 0.09786 0.10136 0.73585 0.0
H774 H 0.07204 0.11829 0.70647 0.0
C775 C 0.00401 0.17014 0.56063 0.0
C776 C 0.02251 0.13921 0.6045 0.0
H777 H 0.0232 0.11926 0.67676 0.0
C778 C 0.04789 0.13542 0.58827 0.0
C779 C 0.01395 0.13352 0.63743 0.0
C780 C 0.98824 0.13777 0.65812 0.0
C781 C 0.06481 0.12611 0.60382 0.0
C782 C 0.05553 0.11998 0.63573 0.0
C783 C 0.03023 0.12382 0.65209 0.0
C784 C 0.0719 0.10976 0.65314 0.0
C785 C 0.09285 0.12325 0.58635 0.0
C786 C 0.08036 0.09925 0.63313 0.0
C787 C 0.09572 0.08969 0.64974 0.0
C788 C 0.10213 0.09028 0.68695 0.0
C789 C 0.09315 0.10064 0.70714 0.0
C790 C 0.07837 0.11032 0.69035 0.0
H791 H 0.10075 0.13131 0.57035 0.0
H792 H 0.10898 0.12077 0.60695 0.0
H793 H 0.09034 0.11529 0.56739 0.0
H794 H 0.07486 0.09835 0.60472 0.0
H795 H 0.10205 0.08173 0.63362 0.0
H796 H 0.89806 0.92309 0.6324 0.0
H797 H 0.92469 0.90644 0.60276 0.0
H798 H 0.93387 0.88771 0.70585 0.0
H799 H 0.90874 0.90473 0.73582 0.0
H800 H 0.98087 0.88682 0.67272 0.0
H801 H 0.89972 0.87293 0.57302 0.0
H802 H 0.90907 0.889 0.56776 0.0
H803 H 0.89247 0.8838 0.60913 0.0
C804 C 0.90567 0.91538 0.64865 0.0
C805 C 0.9013 0.91517 0.68637 0.0
C806 C 0.92069 0.9058 0.63164 0.0
C807 C 0.93078 0.89562 0.65183 0.0
C808 C 0.92627 0.89542 0.68957 0.0
H809 H 0.98807 0.82663 0.55219 0.0
H810 H 0.96149 0.84316 0.58228 0.0
C811 C 0.91189 0.90515 0.7067 0.0
C812 C 0.94695 0.8854 0.63406 0.0
H813 H 0.946 0.86493 0.56304 0.0
C814 C 0.97309 0.88197 0.6489 0.0
C815 C 0.93673 0.87889 0.60328 0.0
C816 C 0.90783 0.88125 0.58765 0.0
C817 C 0.9893 0.87232 0.63385 0.0
C818 C 0.97979 0.86628 0.6019 0.0
C819 C 0.95356 0.86964 0.5872 0.0
C820 C 0.99626 0.85623 0.58384 0.0
C821 C 0.01597 0.86849 0.65317 0.0
C822 C 0.02461 0.85804 0.57418 0.0
C823 C 0.04011 0.84841 0.55818 0.0
C824 C 0.02736 0.83689 0.55051 0.0
C825 C 0.99871 0.83527 0.55876 0.0
C826 C 0.9834 0.84478 0.57555 0.0
H827 H 0.01522 0.87098 0.68246 0.0
H828 H 0.01972 0.85831 0.65087 0.0
H829 H 0.03412 0.87349 0.641 0.0
H830 H 0.03483 0.8669 0.57904 0.0
H831 H 0.06214 0.84996 0.55213 0.0
H832 H 0.81367 0.40515 0.30591 0.0
H833 H 0.78698 0.38774 0.33161 0.0
H834 H 0.71188 0.4104 0.33196 0.0
H835 H 0.73794 0.42739 0.30341 0.0
H836 H 0.76164 0.38493 0.39276 0.0
H837 H 0.68094 0.38014 0.28568 0.0
H838 H 0.71142 0.38996 0.28017 0.0
H839 H 0.68082 0.39557 0.30416 0.0
C840 C 0.79134 0.40631 0.31086 0.0
C841 C 0.77789 0.41762 0.30261 0.0
C842 C 0.77614 0.3964 0.32582 0.0
C843 C 0.74722 0.39763 0.33315 0.0
C844 C 0.73393 0.40904 0.32562 0.0
H845 H 0.65646 0.35082 0.48633 0.0
H846 H 0.68373 0.36713 0.45618 0.0
C847 C 0.74899 0.41885 0.30995 0.0
C848 C 0.73125 0.38716 0.34981 0.0
H849 H 0.67087 0.37006 0.34227 0.0
C850 C 0.74192 0.3816 0.38149 0.0
C851 C 0.70576 0.3826 0.33481 0.0
C852 C 0.69426 0.38729 0.29912 0.0
C853 C 0.72762 0.37184 0.39896 0.0
C854 C 0.70123 0.36785 0.38529 0.0
C855 C 0.69085 0.37322 0.35317 0.0
C856 C 0.68412 0.35807 0.4036 0.0
C857 C 0.74139 0.36575 0.43137 0.0
C858 C 0.67401 0.3478 0.3838 0.0
C859 C 0.65768 0.33865 0.40077 0.0
C860 C 0.65145 0.3395 0.43799 0.0
C861 C 0.66132 0.34982 0.45772 0.0
C862 C 0.67713 0.3591 0.44057 0.0
H863 H 0.76466 0.36683 0.43054 0.0
H864 H 0.73378 0.3703 0.45658 0.0
H865 H 0.73637 0.35566 0.4328 0.0
H866 H 0.67894 0.3468 0.35522 0.0
H867 H 0.65035 0.33079 0.38489 0.0
H868 H 0.19084 0.59494 0.32921 0.0
H869 H 0.21794 0.61209 0.35638 0.0
H870 H 0.29426 0.59708 0.3103 0.0
H871 H 0.26714 0.57998 0.28294 0.0
H872 H 0.26579 0.60975 0.40586 0.0
H873 H 0.29252 0.63432 0.27734 0.0
H874 H 0.2641 0.62317 0.28041 0.0
H875 H 0.29994 0.61789 0.2786 0.0
C876 C 0.2134 0.59536 0.32491 0.0
C877 C 0.22703 0.58619 0.30422 0.0
C878 C 0.22882 0.60511 0.34041 0.0
C879 C 0.25804 0.6059 0.33505 0.0
C880 C 0.27168 0.59671 0.31439 0.0
H881 H 0.38312 0.66071 0.40322 0.0
H882 H 0.35883 0.64286 0.37601 0.0
C883 C 0.25627 0.58693 0.29904 0.0
C884 C 0.27427 0.61622 0.35164 0.0
H885 H 0.31266 0.64221 0.33129 0.0
C886 C 0.27603 0.61687 0.38961 0.0
C887 C 0.28774 0.62541 0.3303 0.0
C888 C 0.28591 0.62529 0.28939 0.0
C889 C 0.2911 0.62644 0.4069 0.0
C890 C 0.30415 0.63579 0.3856 0.0
C891 C 0.30262 0.63505 0.34757 0.0
C892 C 0.31892 0.64656 0.40228 0.0
C893 C 0.29331 0.6263 0.44779 0.0
C894 C 0.30446 0.65467 0.42564 0.0
C895 C 0.31828 0.66482 0.44134 0.0
C896 C 0.3468 0.66718 0.43363 0.0
C897 C 0.36115 0.65916 0.40973 0.0
C898 C 0.34731 0.64895 0.39417 0.0
H899 H 0.28975 0.61681 0.45896 0.0
H900 H 0.31427 0.62964 0.45695 0.0
H901 H 0.27698 0.63254 0.45937 0.0
H902 H 0.28236 0.6532 0.43156 0.0
H903 H 0.30652 0.67087 0.45936 0.0
H904 H 0.48859 0.66004 0.50409 0.0
H905 H 0.51516 0.64304 0.53282 0.0
H906 H 0.49099 0.65668 0.63852 0.0
H907 H 0.46431 0.67366 0.60979 0.0
H908 H 0.56063 0.64606 0.5867 0.0
H909 H 0.46928 0.61872 0.6377 0.0
H910 H 0.46612 0.63002 0.60155 0.0
H911 H 0.46912 0.63512 0.64781 0.0
C912 C 0.4888 0.6593 0.53343 0.0
C913 C 0.47435 0.66804 0.55484 0.0
C914 C 0.50402 0.64966 0.54977 0.0
C915 C 0.50477 0.64856 0.58773 0.0
C916 C 0.49035 0.6573 0.60916 0.0
H917 H 0.57994 0.59593 0.73774 0.0
H918 H 0.55397 0.6129 0.70879 0.0
C919 C 0.47527 0.66698 0.59282 0.0
C920 C 0.52119 0.63842 0.60494 0.0
H921 H 0.51454 0.61195 0.65559 0.0
C922 C 0.55062 0.63856 0.60168 0.0
C923 C 0.50799 0.62873 0.62455 0.0
C924 C 0.47637 0.62801 0.62802 0.0
C925 C 0.56732 0.62935 0.61812 0.0
C926 C 0.55412 0.61957 0.63754 0.0
C927 C 0.52464 0.61944 0.64071 0.0
C928 C 0.57046 0.60939 0.65495 0.0
C929 C 0.59894 0.63038 0.61533 0.0
C930 C 0.58821 0.60169 0.63428 0.0
C931 C 0.60326 0.59203 0.65081 0.0
C932 C 0.60054 0.58977 0.68827 0.0
C933 C 0.58253 0.59741 0.70883 0.0
C934 C 0.56764 0.60712 0.69232 0.0
H935 H 0.60567 0.64006 0.60896 0.0
H936 H 0.60929 0.62742 0.64096 0.0
H937 H 0.60651 0.62425 0.5931 0.0
H938 H 0.59019 0.60306 0.60525 0.0
H939 H 0.61679 0.58625 0.63414 0.0
H940 H 0.48636 0.32884 0.54459 0.0
H941 H 0.45998 0.34653 0.56959 0.0
H942 H 0.53718 0.36739 0.57997 0.0
H943 H 0.56372 0.34962 0.55573 0.0
H944 H 0.46944 0.35915 0.63963 0.0
H945 H 0.48265 0.39018 0.51989 0.0
H946 H 0.48753 0.37351 0.51739 0.0
H947 H 0.51432 0.38316 0.53716 0.0
C948 C 0.49771 0.33715 0.55263 0.0
C949 C 0.52708 0.33786 0.54843 0.0
C950 C 0.48262 0.34725 0.56668 0.0
C951 C 0.49662 0.35828 0.57627 0.0
C952 C 0.52596 0.35901 0.57224 0.0
H953 H 0.44682 0.43062 0.65741 0.0
H954 H 0.47145 0.41246 0.63312 0.0
C955 C 0.54107 0.34888 0.55841 0.0
C956 C 0.48057 0.36901 0.59082 0.0
H957 H 0.46166 0.39902 0.57213 0.0
C958 C 0.46758 0.36787 0.62488 0.0
C959 C 0.47832 0.38034 0.57147 0.0
C960 C 0.49123 0.38192 0.53431 0.0
C961 C 0.45291 0.37788 0.64057 0.0
C962 C 0.45058 0.38924 0.62118 0.0
C963 C 0.46344 0.39032 0.58697 0.0
C964 C 0.43534 0.40019 0.63611 0.0
C965 C 0.4408 0.37631 0.6782 0.0
C966 C 0.40672 0.3994 0.64547 0.0
C967 C 0.39261 0.40976 0.65965 0.0
C968 C 0.40676 0.42117 0.66426 0.0
C969 C 0.43528 0.42199 0.65425 0.0
C970 C 0.44941 0.4116 0.64033 0.0
H971 H 0.45102 0.36852 0.69305 0.0
H972 H 0.44324 0.38497 0.69442 0.0
H973 H 0.418 0.37417 0.67604 0.0
H974 H 0.39523 0.39078 0.64161 0.0
H975 H 0.37058 0.40883 0.66685 0.0
H976 H 0.67917 0.84358 0.97996 0.0
H977 H 0.70405 0.86075 0.95047 0.0
H978 H 0.65437 0.85537 0.85366 0.0
H979 H 0.62881 0.83839 0.88335 0.0
H980 H 0.73646 0.86049 0.89052 0.0
H981 H 0.64613 0.8924 0.86873 0.0
H982 H 0.64388 0.87889 0.89777 0.0
H983 H 0.64098 0.87724 0.84928 0.0
C984 C 0.67338 0.84609 0.95247 0.0
C985 C 0.65192 0.83964 0.93405 0.0
C986 C 0.68765 0.85591 0.93564 0.0
C987 C 0.68081 0.85949 0.90004 0.0
C988 C 0.65954 0.853 0.88145 0.0
H989 H 0.75703 0.91225 0.74936 0.0
H990 H 0.72992 0.89528 0.77755 0.0
C991 C 0.64508 0.84323 0.89839 0.0
C992 C 0.69669 0.86971 0.8821 0.0
H993 H 0.68927 0.89793 0.84008 0.0
C994 C 0.72613 0.8687 0.87966 0.0
C995 C 0.6832 0.88043 0.86791 0.0
C996 C 0.65184 0.88239 0.87132 0.0
C997 C 0.74239 0.87804 0.86314 0.0
C998 C 0.72889 0.88869 0.84884 0.0
C999 C 0.69949 0.88971 0.85102 0.0
C1000 C 0.74506 0.89895 0.83192 0.0
C1001 C 0.7739 0.87643 0.86069 0.0
C1002 C 0.76221 0.90668 0.8533 0.0
C1003 C 0.77758 0.91634 0.83729 0.0
C1004 C 0.77615 0.91834 0.79968 0.0
C1005 C 0.75874 0.91071 0.77836 0.0
C1006 C 0.74321 0.9011 0.79441 0.0
H1007 H 0.78051 0.86673 0.867 0.0
H1008 H 0.78153 0.8789 0.83309 0.0
H1009 H 0.78425 0.88278 0.88036 0.0
H1010 H 0.76362 0.90525 0.88237 0.0
H1011 H 0.79072 0.92221 0.8542 0.0
H1012 H 0.3203 0.16194 0.97798 0.0
H1013 H 0.29537 0.14497 0.94752 0.0
H1014 H 0.34996 0.14875 0.85457 0.0
H1015 H 0.37498 0.16582 0.88474 0.0
H1016 H 0.29186 0.14722 0.83723 0.0
H1017 H 0.32499 0.10932 0.93056 0.0
H1018 H 0.30972 0.1226 0.95282 0.0
H1019 H 0.34253 0.12425 0.92895 0.0
C1020 C 0.32711 0.15915 0.95111 0.0
C1021 C 0.3497 0.16522 0.93384 0.0
C1022 C 0.31291 0.14941 0.93382 0.0
C1023 C 0.32106 0.14551 0.899 0.0
C1024 C 0.34344 0.15159 0.88153 0.0
H1025 H 0.26659 0.07756 0.79068 0.0
H1026 H 0.29404 0.09451 0.81788 0.0
C1027 C 0.35772 0.16133 0.89884 0.0
C1028 C 0.30582 0.13524 0.88056 0.0
H1029 H 0.28891 0.10443 0.88815 0.0
C1030 C 0.2913 0.13784 0.84824 0.0
C1031 C 0.3054 0.123 0.89479 0.0
C1032 C 0.32169 0.11955 0.92851 0.0
C1033 C 0.27582 0.12857 0.83016 0.0
C1034 C 0.27462 0.11643 0.84508 0.0
C1035 C 0.28966 0.11377 0.87697 0.0
C1036 C 0.25795 0.10633 0.828 0.0
C1037 C 0.26115 0.1318 0.79506 0.0
C1038 C 0.22856 0.10732 0.82491 0.0
C1039 C 0.21287 0.09761 0.80963 0.0
C1040 C 0.2263 0.08673 0.79746 0.0
C1041 C 0.25571 0.08578 0.8004 0.0
C1042 C 0.27139 0.09546 0.81573 0.0
H1043 H 0.26986 0.14042 0.78268 0.0
H1044 H 0.26301 0.12407 0.77514 0.0
H1045 H 0.23844 0.13337 0.80052 0.0
H1046 H 0.21772 0.11553 0.8348 0.0
H1047 H 0.19019 0.09852 0.80784 0.0
H1048 H 0.55619 0.07496 0.15577 0.0
H1049 H 0.53163 0.09323 0.1318 0.0
H1050 H 0.60821 0.11465 0.13886 0.0
H1051 H 0.63304 0.09644 0.16313 0.0
H1052 H 0.52941 0.11838 0.16894 0.0
H1053 H 0.57718 0.11856 0.03077 0.0
H1054 H 0.57587 0.10469 0.05856 0.0
H1055 H 0.6005 0.11684 0.06902 0.0
C1056 C 0.56789 0.08353 0.1521 0.0
C1057 C 0.59661 0.08423 0.16129 0.0
C1058 C 0.55379 0.09395 0.13847 0.0
C1059 C 0.56818 0.10522 0.13337 0.0
C1060 C 0.59684 0.10598 0.14232 0.0
H1061 H 0.51547 0.17607 0.04015 0.0
H1062 H 0.54235 0.15875 0.06632 0.0
C1063 C 0.61095 0.09557 0.15625 0.0
C1064 C 0.55295 0.11626 0.11941 0.0
H1065 H 0.54573 0.13484 0.04479 0.0
C1066 C 0.53293 0.12201 0.14182 0.0
C1067 C 0.55783 0.12097 0.08415 0.0
C1068 C 0.57888 0.11496 0.05897 0.0
C1069 C 0.51768 0.13246 0.12995 0.0
C1070 C 0.52205 0.13703 0.0943 0.0
C1071 C 0.54233 0.13132 0.07205 0.0
C1072 C 0.50565 0.14765 0.07942 0.0
C1073 C 0.4975 0.13863 0.15601 0.0
C1074 C 0.47611 0.14713 0.07774 0.0
C1075 C 0.46076 0.15709 0.06336 0.0
C1076 C 0.47468 0.16768 0.04999 0.0
C1077 C 0.50423 0.16811 0.05103 0.0
C1078 C 0.51958 0.1582 0.06569 0.0
H1079 H 0.50294 0.13651 0.18471 0.0
H1080 H 0.49736 0.1489 0.15238 0.0
H1081 H 0.47592 0.13508 0.15094 0.0
H1082 H 0.46492 0.13896 0.08723 0.0
H1083 H 0.43799 0.15652 0.06261 0.0
H1084 H 0.53863 0.83166 0.10714 0.0
H1085 H 0.51142 0.84854 0.13561 0.0
H1086 H 0.48293 0.86051 0.03 0.0
H1087 H 0.51008 0.84363 1.00155 0.0
H1088 H 0.51667 0.8756 0.11792 0.0
H1089 H 0.40984 0.85594 0.09394 0.0
H1090 H 0.44123 0.84643 0.09372 0.0
H1091 H 0.43338 0.85626 0.05564 0.0
C1092 C 0.52649 0.83791 0.09015 0.0
C1093 C 0.5265 0.83647 0.05226 0.0
C1094 C 0.51104 0.84752 0.10634 0.0
C1095 C 0.49506 0.85569 0.08488 0.0
C1096 C 0.49495 0.85422 0.04701 0.0
H1097 H 0.38413 0.91799 0.13294 0.0
H1098 H 0.41078 0.90117 0.10404 0.0
C1099 C 0.51056 0.84467 0.03081 0.0
C1100 C 0.47896 0.86593 0.10205 0.0
H1101 H 0.41218 0.87618 0.11898 0.0
C1102 C 0.49383 0.87574 0.1183 0.0
C1103 C 0.4492 0.86607 0.10218 0.0
C1104 C 0.43233 0.85559 0.08569 0.0
C1105 C 0.47969 0.88583 0.13435 0.0
C1106 C 0.44986 0.88592 0.13496 0.0
C1107 C 0.43502 0.8761 0.11855 0.0
C1108 C 0.43368 0.89608 0.15265 0.0
C1109 C 0.49684 0.89643 0.14969 0.0
C1110 C 0.43735 0.89868 0.18971 0.0
C1111 C 0.42229 0.90833 0.20624 0.0
C1112 C 0.40298 0.91548 0.18614 0.0
C1113 C 0.3989 0.91269 0.14918 0.0
C1114 C 0.4141 0.90307 0.13262 0.0
H1115 H 0.51836 0.8967 0.13785 0.0
H1116 H 0.48648 0.90554 0.14461 0.0
H1117 H 0.499 0.89519 0.17948 0.0
H1118 H 0.4518 0.89321 0.20593 0.0
H1119 H 0.42574 0.91015 0.23483 0.0
H1120 H 0.93379 0.20742 0.35856 0.0
H1121 H 0.95136 0.21726 0.30331 0.0
H1122 H 0.99639 0.24432 0.36752 0.0
H1123 H 0.97858 0.23463 0.42318 0.0
H1124 H 0.96586 0.25502 0.31206 0.0
H1125 H 0.02994 0.21591 0.25921 0.0
H1126 H 0.99438 0.21144 0.26936 0.0
H1127 H 0.0173 0.21644 0.30544 0.0
C1128 C 0.94761 0.2154 0.36108 0.0
C1129 C 0.95479 0.2202 0.39543 0.0
C1130 C 0.95779 0.22098 0.32938 0.0
C1131 C 0.97556 0.23141 0.33127 0.0
C1132 C 0.98284 0.23623 0.36545 0.0
H1133 H 0.0595 0.26124 0.13802 0.0
H1134 H 0.05015 0.25285 0.19859 0.0
C1135 C 0.97265 0.23066 0.39724 0.0
C1136 C 0.98534 0.2376 0.29748 0.0
H1137 H 0.01911 0.23221 0.21708 0.0
C1138 C 0.97775 0.25007 0.29144 0.0
C1139 C 1.00121 0.23121 0.27081 0.0
C1140 C 0.01145 0.21805 0.27662 0.0
C1141 C 0.98468 0.25617 0.25888 0.0
C1142 C 0.99916 0.24955 0.23138 0.0
C1143 C 0.00771 0.23723 0.23799 0.0
C1144 C 0.00495 0.25511 0.19521 0.0
C1145 C 0.97645 0.26966 0.25428 0.0
C1146 C 0.98265 0.25904 0.17298 0.0
C1147 C 0.98797 0.26398 0.13853 0.0
C1148 C 0.0157 0.26511 0.12557 0.0
C1149 C 0.03799 0.26097 0.14762 0.0
C1150 C 0.03265 0.25602 0.18213 0.0
H1151 H 0.97329 0.27432 0.28094 0.0
H1152 H 0.99268 0.27488 0.23878 0.0
H1153 H 0.9563 0.27019 0.23909 0.0
H1154 H 0.96106 0.25813 0.18208 0.0
H1155 H 0.97031 0.26696 0.12205 0.0
H1156 H 0.07033 0.79838 0.35794 0.0
H1157 H 0.05415 0.78849 0.30208 0.0
H1158 H 0.01161 0.7602 0.3646 0.0
H1159 H 0.02743 0.77013 0.42092 0.0
H1160 H 0.06636 0.76438 0.2795 0.0
H1161 H 0.95082 0.77135 0.29249 0.0
H1162 H 0.97597 0.77986 0.31965 0.0
H1163 H 0.96743 0.764 0.33075 0.0
C1164 C 0.05732 0.79012 0.35998 0.0
C1165 C 0.05019 0.78506 0.39405 0.0
C1166 C 0.04811 0.78447 0.32794 0.0
C1167 C 0.03145 0.77369 0.32915 0.0
C1168 C 0.02402 0.76865 0.36303 0.0
H1169 H 0.96902 0.72546 0.15608 0.0
H1170 H 0.98006 0.73489 0.21479 0.0
C1171 C 0.03322 0.77431 0.3952 0.0
C1172 C 0.02314 0.76745 0.2948 0.0
H1173 H 0.96651 0.75907 0.24299 0.0
C1174 C 0.04452 0.76323 0.27149 0.0
C1175 C 0.99464 0.7659 0.28452 0.0
C1176 C 0.97084 0.77059 0.30795 0.0
C1177 C 0.03821 0.75751 0.23821 0.0
C1178 C 0.00974 0.75615 0.22763 0.0
C1179 C 0.98831 0.76017 0.25115 0.0
C1180 C 0.00191 0.75074 0.19196 0.0
C1181 C 0.06208 0.75283 0.21482 0.0
C1182 C 0.01012 0.75663 0.15962 0.0
C1183 C 0.00353 0.75134 0.12599 0.0
C1184 C 0.98827 0.74014 0.124 0.0
C1185 C 0.97987 0.73431 0.15647 0.0
C1186 C 0.98645 0.73962 0.19013 0.0
H1187 H 0.08179 0.75164 0.2307 0.0
H1188 H 0.05661 0.74378 0.20198 0.0
H1189 H 0.06626 0.75968 0.1929 0.0
H1190 H 0.02173 0.76532 0.16041 0.0
H1191 H 0.01034 0.75605 0.10148 0.0
H1192 H 0.22079 0.52876 0.40573 0.0
H1193 H 0.2315 0.51927 0.46444 0.0
H1194 H 0.26661 0.48727 0.41002 0.0
H1195 H 0.25546 0.4966 0.3511 0.0
H1196 H 0.21453 0.4954 0.49389 0.0
H1197 H 0.33041 0.49965 0.47759 0.0
H1198 H 0.30579 0.50819 0.44972 0.0
H1199 H 0.31274 0.49203 0.44059 0.0
C1200 C 0.23008 0.51957 0.40613 0.0
C1201 C 0.23671 0.51332 0.37364 0.0
C1202 C 0.23649 0.51422 0.43978 0.0
C1203 C 0.25002 0.50262 0.44156 0.0
C1204 C 0.25648 0.49631 0.40924 0.0
H1205 H 0.31682 0.45516 0.6099 0.0
H1206 H 0.30065 0.46461 0.55335 0.0
C1207 C 0.25004 0.50164 0.37561 0.0
C1208 C 0.25778 0.49716 0.47717 0.0
H1209 H 0.31419 0.4879 0.52788 0.0
C1210 C 0.2363 0.49381 0.50148 0.0
C1211 C 0.2862 0.49513 0.48695 0.0
C1212 C 0.31018 0.49903 0.46254 0.0
C1213 C 0.24249 0.48813 0.53497 0.0
C1214 C 0.27094 0.48599 0.5446 0.0
C1215 C 0.29239 0.48949 0.5204 0.0
C1216 C 0.2791 0.47997 0.57935 0.0
C1217 C 0.21851 0.48416 0.55926 0.0
C1218 C 0.27231 0.48545 0.61286 0.0
C1219 C 0.28144 0.48003 0.64539 0.0
C1220 C 0.2978 0.46909 0.64499 0.0
C1221 C 0.30431 0.46359 0.61132 0.0
C1222 C 0.2951 0.46898 0.5789 0.0
H1223 H 0.19834 0.4835 0.5441 0.0
H1224 H 0.22295 0.47501 0.57208 0.0
H1225 H 0.21578 0.49115 0.58118 0.0
H1226 H 0.26049 0.49407 0.61385 0.0
H1227 H 0.27617 0.48457 0.67078 0.0
H1228 H 0.69796 0.5515 0.61186 0.0
H1229 H 0.71405 0.54175 0.55567 0.0
H1230 H 0.73026 0.50754 0.61349 0.0
H1231 H 0.71516 0.51741 0.67026 0.0
H1232 H 0.77081 0.51195 0.56453 0.0
H1233 H 0.66691 0.5178 0.49851 0.0
H1234 H 0.68163 0.53238 0.5128 0.0
H1235 H 0.67233 0.52081 0.54616 0.0
C1236 C 0.70507 0.54192 0.6127 0.0
C1237 C 0.70496 0.53519 0.64547 0.0
C1238 C 0.7141 0.53633 0.58047 0.0
C1239 C 0.7226 0.5238 0.58011 0.0
C1240 C 0.72356 0.51719 0.61303 0.0
H1241 H 0.72457 0.47928 0.3835 0.0
H1242 H 0.71494 0.48841 0.44305 0.0
C1243 C 0.71492 0.52284 0.64546 0.0
C1244 C 0.72989 0.51755 0.54531 0.0
H1245 H 0.70461 0.5114 0.46039 0.0
C1246 C 0.7563 0.51177 0.54179 0.0
C1247 C 0.71076 0.5171 0.51583 0.0
C1248 C 0.68123 0.52224 0.51858 0.0
C1249 C 0.76425 0.50573 0.50946 0.0
C1250 C 0.74558 0.50579 0.47944 0.0
C1251 C 0.71907 0.51145 0.48319 0.0
C1252 C 0.7526 0.4998 0.44411 0.0
C1253 C 0.79225 0.49911 0.5082 0.0
C1254 C 0.77694 0.50316 0.42468 0.0
C1255 C 0.78268 0.49778 0.39081 0.0
C1256 C 0.7639 0.48913 0.37552 0.0
C1257 C 0.73941 0.48592 0.39471 0.0
C1258 C 0.73392 0.49113 0.42874 0.0
H1259 H 0.79978 0.49666 0.53587 0.0
H1260 H 0.79098 0.49044 0.4918 0.0
H1261 H 0.80817 0.50534 0.49568 0.0
H1262 H 0.79122 0.51012 0.43531 0.0
H1263 H 0.80136 0.50065 0.37616 0.0
H1264 H 0.93619 0.7064 0.85752 0.0
H1265 H 0.95265 0.71627 0.80178 0.0
H1266 H 0.99564 0.74435 0.86457 0.0
H1267 H 0.97949 0.73444 0.92081 0.0
H1268 H 0.9406 0.74065 0.78009 0.0
H1269 H 0.05607 0.73303 0.79161 0.0
H1270 H 0.03085 0.72447 0.81855 0.0
H1271 H 0.03965 0.74025 0.83024 0.0
C1272 C 0.94937 0.71461 0.85965 0.0
C1273 C 0.95648 0.71962 0.89377 0.0
C1274 C 0.95875 0.72024 0.82768 0.0
C1275 C 0.97557 0.73097 0.829 0.0
C1276 C 0.98308 0.73594 0.86293 0.0
H1277 H 0.03845 0.77888 0.65495 0.0
H1278 H 0.02771 0.7695 0.7141 0.0
C1279 C 0.9737 0.7303 0.89505 0.0
C1280 C 0.98383 0.73726 0.79471 0.0
H1281 H 0.04032 0.74531 0.74219 0.0
C1282 C 0.96241 0.74165 0.77178 0.0
C1283 C 0.01229 0.73864 0.78408 0.0
C1284 C 0.0361 0.73377 0.80719 0.0
C1285 C 0.96864 0.74738 0.73848 0.0
C1286 C 0.99706 0.74854 0.72747 0.0
C1287 C 0.01855 0.74436 0.75066 0.0
C1288 C 0.00476 0.75388 0.69167 0.0
C1289 C 0.94473 0.75227 0.71555 0.0
C1290 C 0.99581 0.7481 0.65948 0.0
C1291 C 0.00216 0.75336 0.62573 0.0
C1292 C 0.01797 0.7644 0.62353 0.0
C1293 C 0.02711 0.77014 0.65577 0.0
C1294 C 0.02075 0.76486 0.68956 0.0
H1295 H 0.92529 0.75367 0.73183 0.0
H1296 H 0.95049 0.76125 0.7025 0.0
H1297 H 0.93992 0.74544 0.69379 0.0
H1298 H 0.98377 0.73953 0.66047 0.0
H1299 H 0.9947 0.74881 0.6013 0.0
H1300 H 0.07062 0.29962 0.85947 0.0
H1301 H 0.05489 0.2905 0.80216 0.0
H1302 H 0.00758 0.26274 0.86085 0.0
H1303 H 0.02287 0.27187 0.91841 0.0
H1304 H 0.06486 0.26633 0.77834 0.0
H1305 H 0.95002 0.27563 0.78721 0.0
H1306 H 0.97538 0.28337 0.81595 0.0
H1307 H 0.96454 0.26769 0.82585 0.0
C1308 C 0.05663 0.29165 0.8603 0.0
C1309 C 0.04799 0.2865 0.89365 0.0
C1310 C 0.04769 0.28644 0.82746 0.0
C1311 C 0.0298 0.27604 0.82721 0.0
C1312 C 0.02093 0.27092 0.86038 0.0
H1313 H 0.96573 0.22812 0.6553 0.0
H1314 H 0.97682 0.23807 0.71351 0.0
C1315 C 0.02984 0.27612 0.89329 0.0
C1316 C 0.02168 0.27018 0.79222 0.0
H1317 H 0.9653 0.26259 0.73896 0.0
C1318 C 0.0431 0.26557 0.76963 0.0
C1319 C 0.99327 0.26913 0.78103 0.0
C1320 C 0.96945 0.27431 0.80358 0.0
C1321 C 0.03689 0.25981 0.73636 0.0
C1322 C 0.0085 0.25884 0.72504 0.0
C1323 C 0.98704 0.26337 0.74769 0.0
C1324 C 1.00074 0.25316 0.68969 0.0
C1325 C 0.06074 0.25459 0.71394 0.0
C1326 C 0.01014 0.25846 0.657 0.0
C1327 C 0.00361 0.25286 0.62376 0.0
C1328 C 0.98716 0.24199 0.62258 0.0
C1329 C 0.97759 0.23675 0.65531 0.0
C1330 C 0.98414 0.24234 0.68858 0.0
H1331 H 0.08008 0.2532 0.73044 0.0
H1332 H 0.05476 0.24554 0.70149 0.0
H1333 H 0.06585 0.26121 0.69174 0.0
H1334 H 0.02265 0.2669 0.65721 0.0
H1335 H 0.0114 0.25704 0.59893 0.0
H1336 H 0.25635 0.99795 0.84996 0.0
H1337 H 0.26638 0.98854 0.90923 0.0
H1338 H 0.22792 0.02001 0.96263 0.0
H1339 H 0.21877 0.02964 0.90343 0.0
H1340 H 0.27905 0.01365 0.99208 0.0
H1341 H 0.21189 0.97164 0.97909 0.0
H1342 H 0.23608 0.97357 0.94204 0.0
H1343 H 0.20864 0.98487 0.9491 0.0
C1344 C 0.2498 0.00278 0.87438 0.0
C1345 C 0.23594 0.01431 0.87213 0.0
C1346 C 0.25535 0.99737 0.90818 0.0
C1347 C 0.24722 0.00342 0.94035 0.0
C1348 C 0.2339 0.01507 0.93815 0.0
H1349 H 0.27649 0.98503 0.16949 0.0
H1350 H 0.25947 0.99474 0.11344 0.0
C1351 C 0.22837 0.02049 0.90434 0.0
C1352 C 0.2539 0.99786 0.97626 0.0
H1353 H 0.24501 0.9717 0.02785 0.0
C1354 C 0.27138 0.00454 1.0001 0.0
C1355 C 0.24383 0.98597 0.98666 0.0
C1356 C 0.22385 0.97863 0.96305 0.0
C1357 C 0.27983 0.99946 0.03353 0.0
C1358 C 0.27023 0.98747 0.04357 0.0
C1359 C 0.25238 0.98088 0.02003 0.0
C1360 C 0.27944 0.98138 0.07773 0.0
C1361 C 0.29975 0.00679 0.05728 0.0
C1362 C 0.29564 0.97048 0.07625 0.0
C1363 C 0.30534 0.96489 0.10815 0.0
C1364 C 0.29888 0.97005 0.1423 0.0
C1365 C 0.28201 0.98083 0.14371 0.0
C1366 C 0.27236 0.98643 0.1117 0.0
H1367 H 0.30974 0.01462 0.04233 0.0
H1368 H 0.28791 0.01074 0.08057 0.0
H1369 H 0.31657 1.00067 0.06828 0.0
H1370 H 0.30123 0.9664 0.0503 0.0
H1371 H 0.31816 0.95657 0.10596 0.0
H1372 H 0.78151 0.97498 0.90589 0.0
H1373 H 0.77085 0.98437 0.96479 0.0
H1374 H 0.73752 0.01685 0.91098 0.0
H1375 H 0.74869 0.00766 0.85193 0.0
H1376 H 0.78857 0.00827 0.99493 0.0
H1377 H 0.67271 0.00446 0.97755 0.0
H1378 H 0.69734 0.99579 0.95002 0.0
H1379 H 0.69079 0.01196 0.94067 0.0
C1380 C 0.77265 0.98425 0.90646 0.0
C1381 C 0.7665 0.99067 0.8741 0.0
C1382 C 0.76626 0.98955 0.94022 0.0
C1383 C 0.75323 1.00126 0.94221 0.0
C1384 C 0.74728 0.00773 0.91002 0.0
H1385 H 0.68662 0.04944 0.10832 0.0
H1386 H 0.70294 0.03961 0.05241 0.0
C1387 C 0.75371 0.00247 0.87632 0.0
C1388 C 0.74539 0.00667 0.97784 0.0
H1389 H 0.68886 0.01624 0.02784 0.0
C1390 C 0.76679 0.00996 1.00232 0.0
C1391 C 0.71694 0.00881 0.98734 0.0
C1392 C 0.69306 0.00498 0.96271 0.0
C1393 C 0.76051 0.01572 0.03566 0.0
C1394 C 0.73205 0.01802 0.04494 0.0
C1395 C 0.71067 0.01453 0.02063 0.0
C1396 C 0.7238 0.02425 0.07934 0.0
C1397 C 0.78441 0.01965 0.06011 0.0
C1398 C 0.73016 0.0189 0.11316 0.0
C1399 C 0.72093 0.02454 0.14534 0.0
C1400 C 0.70492 0.03558 0.14425 0.0
C1401 C 0.69886 0.04095 0.11027 0.0
C1402 C 0.70816 0.03533 0.07821 0.0
H1403 H 0.80474 0.02011 0.04521 0.0
H1404 H 0.78016 0.0289 0.07249 0.0
H1405 H 0.78671 0.01275 0.08236 0.0
H1406 H 0.74171 0.01022 0.11467 0.0
H1407 H 0.72586 0.0201 0.17099 0.0
H1408 H 0.47241 0.27549 0.63236 0.0
H1409 H 0.46284 0.26607 0.69158 0.0
H1410 H 0.53992 0.24493 0.6837 0.0
H1411 H 0.54999 0.25471 0.62499 0.0
H1412 H 0.45328 0.24304 0.7088 0.0
H1413 H 0.54806 0.25824 0.78429 0.0
H1414 H 0.53907 0.26445 0.74029 0.0
H1415 H 0.55676 0.24966 0.74403 0.0
C1416 C 0.48743 0.26892 0.6435 0.0
C1417 C 0.51215 0.26598 0.62444 0.0
C1418 C 0.48197 0.26354 0.67732 0.0
C1419 C 0.50091 0.25496 0.69258 0.0
C1420 C 0.52544 0.25183 0.6732 0.0
H1421 H 0.44742 0.20296 0.86084 0.0
H1422 H 0.46304 0.21266 0.8043 0.0
C1423 C 0.53114 0.25739 0.63958 0.0
C1424 C 0.49412 0.24885 0.72781 0.0
H1425 H 0.51972 0.24268 0.81269 0.0
C1426 C 0.46779 0.24303 0.73155 0.0
C1427 C 0.51284 0.24896 0.75777 0.0
C1428 C 0.54063 0.25578 0.75659 0.0
C1429 C 0.4597 0.23727 0.76414 0.0
C1430 C 0.47891 0.23689 0.79355 0.0
C1431 C 0.50515 0.24281 0.79 0.0
C1432 C 0.47181 0.23064 0.82845 0.0
C1433 C 0.43029 0.23199 0.76693 0.0
C1434 C 0.47308 0.23728 0.86131 0.0
C1435 C 0.46477 0.23165 0.8939 0.0
C1436 C 0.45481 0.21931 0.89418 0.0
C1437 C 0.45456 0.21255 0.86146 0.0
C1438 C 0.4633 0.21811 0.82904 0.0
H1439 H 0.41583 0.23638 0.74695 0.0
H1440 H 0.43092 0.22186 0.76105 0.0
H1441 H 0.42141 0.23335 0.79455 0.0
H1442 H 0.47978 0.24693 0.86162 0.0
H1443 H 0.46526 0.23711 0.91864 0.0
H1444 H 0.54032 0.76742 0.91608 0.0
H1445 H 0.52604 0.75779 0.85874 0.0
H1446 H 0.5343 0.79326 0.80461 0.0
H1447 H 0.54995 0.80279 0.86143 0.0
H1448 H 0.4844 0.76071 0.81288 0.0
H1449 H 0.58348 0.77253 0.7415 0.0
H1450 H 0.5791 0.77485 0.78963 0.0
H1451 H 0.56567 0.78615 0.75782 0.0
C1452 C 0.53901 0.77317 0.89196 0.0
C1453 C 0.54663 0.78583 0.89315 0.0
C1454 C 0.53084 0.76766 0.85918 0.0
C1455 C 0.5298 0.77471 0.82706 0.0
C1456 C 0.53591 0.78751 0.82868 0.0
H1457 H 0.44975 0.74898 0.62642 0.0
H1458 H 0.45962 0.7586 0.68538 0.0
C1459 C 0.54464 0.79298 0.86125 0.0
C1460 C 0.52279 0.76863 0.79188 0.0
H1461 H 0.5463 0.76463 0.70501 0.0
C1462 C 0.498 0.76152 0.78933 0.0
C1463 C 0.54078 0.76947 0.76127 0.0
C1464 C 0.56887 0.77605 0.76274 0.0
C1465 C 0.4906 0.75535 0.75703 0.0
C1466 C 0.50796 0.75667 0.72597 0.0
C1467 C 0.53281 0.76371 0.72864 0.0
C1468 C 0.50133 0.7506 0.69062 0.0
C1469 C 0.46469 0.7472 0.75698 0.0
C1470 C 0.52174 0.74323 0.67323 0.0
C1471 C 0.51633 0.73797 0.63924 0.0
C1472 C 0.49024 0.73981 0.62216 0.0
C1473 C 0.46976 0.74715 0.63946 0.0
C1474 C 0.47536 0.75261 0.67323 0.0
H1475 H 0.45913 0.74408 0.78486 0.0
H1476 H 0.4466 0.75259 0.74621 0.0
H1477 H 0.46771 0.73883 0.73967 0.0
H1478 H 0.54197 0.74157 0.68594 0.0
H1479 H 0.5325 0.73237 0.6264 0.0
H1480 H 0.80302 0.4529 0.11179 0.0
H1481 H 0.78695 0.46253 0.05539 0.0
H1482 H 0.77002 0.49676 0.11278 0.0
H1483 H 0.78503 0.48701 0.1697 0.0
H1484 H 0.72984 0.49231 0.06394 0.0
H1485 H 0.83378 0.48644 0.99794 0.0
H1486 H 0.81902 0.47186 0.0122 0.0
H1487 H 0.82833 0.48342 0.04558 0.0
C1488 C 0.79574 0.46246 0.11247 0.0
C1489 C 0.7956 0.46923 0.14517 0.0
C1490 C 0.78673 0.46798 0.08013 0.0
C1491 C 0.77804 0.48049 0.0796 0.0
C1492 C 0.77686 0.48713 0.11244 0.0
H1493 H 0.77643 0.52525 0.88352 0.0
H1494 H 0.78605 0.51593 0.94283 0.0
C1495 C 0.78545 0.48155 0.14497 0.0
C1496 C 0.77076 0.4867 0.04472 0.0
H1497 H 0.79615 0.49291 0.95987 0.0
C1498 C 0.74438 0.4925 0.04121 0.0
C1499 C 0.78992 0.48715 0.01526 0.0
C1500 C 0.81944 0.482 0.018 0.0
C1501 C 0.7365 0.49858 0.00894 0.0
C1502 C 0.7552 0.49854 0.97895 0.0
C1503 C 0.78166 0.49285 0.98266 0.0
C1504 C 0.74827 0.50461 0.94372 0.0
C1505 C 0.70855 0.50526 0.00775 0.0
C1506 C 0.72387 0.50136 0.92426 0.0
C1507 C 0.71814 0.50685 0.89055 0.0
C1508 C 0.73697 0.51551 0.87544 0.0
C1509 C 0.76154 0.51861 0.89462 0.0
C1510 C 0.76703 0.51329 0.9285 0.0
H1511 H 0.70102 0.50767 0.03545 0.0
H1512 H 0.7099 0.51395 0.99147 0.0
H1513 H 0.69258 0.49907 0.99515 0.0
H1514 H 0.70953 0.49439 0.93476 0.0
H1515 H 0.6994 0.50406 0.8759 0.0
H1516 H 0.19657 0.55262 0.11228 0.0
H1517 H 0.21196 0.54342 0.05488 0.0
H1518 H 0.22968 0.50877 0.10975 0.0
H1519 H 0.2155 0.51809 0.16753 0.0
H1520 H 0.26929 0.51344 0.06168 0.0
H1521 H 0.16578 0.52012 0.99522 0.0
H1522 H 0.18084 0.53455 0.01018 0.0
H1523 H 0.17106 0.52288 0.04302 0.0
C1524 C 0.20385 0.54306 0.11215 0.0
C1525 C 0.20457 0.53606 0.14443 0.0
C1526 C 0.21245 0.53777 0.07924 0.0
C1527 C 0.22125 0.52528 0.07773 0.0
C1528 C 0.22279 0.5184 0.11013 0.0
H1529 H 0.22233 0.48091 0.88104 0.0
H1530 H 0.21252 0.49051 0.93994 0.0
C1531 C 0.21467 0.52374 0.14316 0.0
C1532 C 0.22857 0.51934 0.04246 0.0
H1533 H 0.20335 0.51353 0.95727 0.0
C1534 C 0.25483 0.51342 0.03887 0.0
C1535 C 0.20953 0.5191 0.01285 0.0
C1536 C 0.18013 0.52438 0.01557 0.0
C1537 C 0.26262 0.50736 0.00654 0.0
C1538 C 0.24403 0.50758 0.97646 0.0
C1539 C 0.21775 0.51345 0.98013 0.0
C1540 C 0.25085 0.50146 0.94124 0.0
C1541 C 0.29033 0.50048 0.00546 0.0
C1542 C 0.27559 0.50443 0.92211 0.0
C1543 C 0.28144 0.49876 0.8887 0.0
C1544 C 0.26238 0.49021 0.87349 0.0
C1545 C 0.23741 0.48744 0.89224 0.0
C1546 C 0.2318 0.49293 0.92588 0.0
H1547 H 0.29763 0.49796 0.03318 0.0
H1548 H 0.28872 0.49182 0.98907 0.0
H1549 H 0.30658 0.50657 0.99307 0.0
H1550 H 0.29017 0.51128 0.93269 0.0
H1551 H 0.3005 0.50129 0.87434 0.0
H1552 H 0.47833 0.73386 0.41752 0.0
H1553 H 0.49327 0.74329 0.36016 0.0
H1554 H 0.45298 0.71356 0.30094 0.0
H1555 H 0.43747 0.70419 0.35798 0.0
H1556 H 0.52595 0.73445 0.30342 0.0
H1557 H 0.41729 0.74446 0.2565 0.0
H1558 H 0.42513 0.73994 0.30261 0.0
H1559 H 0.42304 0.72836 0.2674 0.0
C1560 C 0.47271 0.72929 0.39232 0.0
C1561 C 0.45642 0.71832 0.39241 0.0
C1562 C 0.48129 0.7347 0.35955 0.0
C1563 C 0.47374 0.72927 0.32627 0.0
C1564 C 0.45843 0.71808 0.32629 0.0
H1565 H 0.49946 0.74668 0.09934 0.0
H1566 H 0.48896 0.737 0.15795 0.0
C1567 C 0.44972 0.7127 0.35898 0.0
C1568 C 0.4816 0.73537 0.29152 0.0
H1569 H 0.45393 0.74743 0.21343 0.0
C1570 C 0.51022 0.73735 0.28381 0.0
C1571 C 0.46102 0.73922 0.26606 0.0
C1572 C 0.42989 0.73801 0.27362 0.0
C1573 C 0.51883 0.74279 0.25089 0.0
C1574 C 0.49825 0.74643 0.22525 0.0
C1575 C 0.46966 0.74455 0.23308 0.0
C1576 C 0.50585 0.75216 0.18994 0.0
C1577 C 0.54987 0.74435 0.24339 0.0
C1578 C 0.51857 0.76395 0.18852 0.0
C1579 C 0.52446 0.76955 0.15503 0.0
C1580 C 0.51789 0.76341 0.12235 0.0
C1581 C 0.50498 0.75162 0.12399 0.0
C1582 C 0.49901 0.74606 0.15743 0.0
H1583 H 0.56299 0.73873 0.26226 0.0
H1584 H 0.55492 0.74161 0.21505 0.0
H1585 H 0.55568 0.7543 0.2468 0.0
H1586 H 0.5233 0.76896 0.21332 0.0
H1587 H 0.53323 0.77883 0.15496 0.0
H1588 H 0.52463 0.27013 0.42117 0.0
H1589 H 0.50918 0.26013 0.36469 0.0
H1590 H 0.55024 0.28892 0.30251 0.0
H1591 H 0.56604 0.29887 0.35843 0.0
H1592 H 0.47666 0.26925 0.30589 0.0
H1593 H 0.58483 0.25679 0.26218 0.0
H1594 H 0.57671 0.26165 0.30793 0.0
H1595 H 0.58055 0.27304 0.27241 0.0
C1596 C 0.53029 0.27436 0.39548 0.0
C1597 C 0.54685 0.28524 0.3944 0.0
C1598 C 0.52143 0.26863 0.36325 0.0
C1599 C 0.52905 0.27365 0.32944 0.0
C1600 C 0.54468 0.28473 0.3283 0.0
H1601 H 0.50654 0.25641 0.10256 0.0
H1602 H 0.51709 0.26568 0.16178 0.0
C1603 C 0.55358 0.29044 0.36039 0.0
C1604 C 0.52101 0.2673 0.29518 0.0
H1605 H 0.5486 0.25451 0.21807 0.0
C1606 C 0.49234 0.26592 0.28678 0.0
C1607 C 0.54154 0.26294 0.27039 0.0
C1608 C 0.57263 0.26355 0.27876 0.0
C1609 C 0.48367 0.26067 0.25362 0.0
C1610 C 0.50425 0.25656 0.22853 0.0
C1611 C 0.53288 0.25775 0.23725 0.0
C1612 C 0.49665 0.25114 0.19281 0.0
C1613 C 0.45263 0.25989 0.24521 0.0
C1614 C 0.48193 0.23982 0.19063 0.0
C1615 C 0.47594 0.23449 0.15681 0.0
C1616 C 0.48448 0.24042 0.12455 0.0
C1617 C 0.49946 0.25169 0.1269 0.0
C1618 C 0.50546 0.257 0.16069 0.0
H1619 H 0.43994 0.26591 0.26351 0.0
H1620 H 0.44844 0.26265 0.21665 0.0
H1621 H 0.44544 0.25013 0.24877 0.0
H1622 H 0.47566 0.23496 0.21511 0.0
H1623 H 0.46549 0.22555 0.15615 0.0
H1624 H 0.776 0.98505 0.67033 0.0
H1625 H 0.75923 0.99462 0.61393 0.0
H1626 H 0.80071 0.96594 0.5518 0.0
H1627 H 0.8174 0.95627 0.60778 0.0
H1628 H 0.7932 0.0036 0.5564 0.0
H1629 H 0.72067 0.96645 0.50922 0.0
H1630 H 0.73315 0.96738 0.55548 0.0
H1631 H 0.75533 0.96101 0.52054 0.0
C1632 C 0.78135 0.9807 0.6447 0.0
C1633 C 0.79804 0.96987 0.64366 0.0
C1634 C 0.77176 0.9862 0.61251 0.0
C1635 C 0.77842 0.9809 0.57873 0.0
C1636 C 0.79488 0.97005 0.5776 0.0
H1637 H 0.75901 0.99896 0.35182 0.0
H1638 H 0.76931 0.98963 0.41116 0.0
C1639 C 0.80454 0.96457 0.60969 0.0
C1640 C 0.76944 0.98701 0.54453 0.0
H1641 H 0.73251 0.98219 0.4662 0.0
C1642 C 0.77969 0.99899 0.5368 0.0
C1643 C 0.75191 0.98094 0.51902 0.0
C1644 C 0.73938 0.96828 0.52652 0.0
C1645 C 0.77363 0.00491 0.50368 0.0
C1646 C 0.75638 0.99877 0.47793 0.0
C1647 C 0.74578 0.98686 0.48593 0.0
C1648 C 0.74966 0.0044 0.44216 0.0
C1649 C 0.78657 0.01749 0.49605 0.0
C1650 C 0.73503 0.01574 0.4399 0.0
C1651 C 0.72926 0.02109 0.40607 0.0
C1652 C 0.73753 0.01507 0.3739 0.0
C1653 C 0.75215 0.00372 0.37621 0.0
C1654 C 0.75797 0.99838 0.41003 0.0
H1655 H 0.8047 0.01944 0.51425 0.0
H1656 H 0.79384 0.01813 0.46744 0.0
H1657 H 0.77052 0.02484 0.50056 0.0
H1658 H 0.72818 0.02049 0.46431 0.0
H1659 H 0.71885 0.03006 0.40514 0.0
H1660 H 0.17858 0.04617 0.60618 0.0
H1661 H 0.1958 0.03639 0.55067 0.0
H1662 H 0.25019 0.01261 0.61383 0.0
H1663 H 0.2326 0.02216 0.66981 0.0
H1664 H 0.24861 0.03491 0.52183 0.0
H1665 H 0.20737 0.98759 0.55211 0.0
H1666 H 0.19716 1.00114 0.57793 0.0
H1667 H 0.23059 0.9938 0.58608 0.0
C1668 C 0.19422 0.03886 0.60841 0.0
C1669 C 0.20403 0.03489 0.64257 0.0
C1670 C 0.20407 0.03329 0.57657 0.0
C1671 C 0.22396 0.02364 0.57809 0.0
C1672 C 0.23437 0.01985 0.61204 0.0
H1673 H 0.30984 0.99695 0.38156 0.0
H1674 H 0.30015 0.00586 0.44136 0.0
C1675 C 0.2244 0.02538 0.64401 0.0
C1676 C 0.23352 0.01758 0.54397 0.0
H1677 H 0.23422 0.98984 0.4985 0.0
C1678 C 0.24559 0.02504 0.51676 0.0
C1679 C 0.22925 0.00473 0.53726 0.0
C1680 C 0.21516 0.99634 0.5647 0.0
C1681 C 0.25325 0.02005 0.48291 0.0
C1682 C 0.24926 0.00717 0.47636 0.0
C1683 C 0.23746 0.99968 0.50369 0.0
C1684 C 0.2557 1.0014 0.44065 0.0
C1685 C 0.26458 0.02869 0.45405 0.0
C1686 C 0.23413 0.99563 0.42075 0.0
C1687 C 0.23974 0.99029 0.38693 0.0
C1688 C 0.26712 0.99048 0.37238 0.0
C1689 C 0.28872 0.99627 0.39235 0.0
C1690 C 0.2831 1.00158 0.42632 0.0
H1691 H 0.25983 0.0386 0.46022 0.0
H1692 H 0.2878 0.02766 0.45252 0.0
H1693 H 0.25566 0.02638 0.427 0.0
H1694 H 0.21282 0.99538 0.43126 0.0
H1695 H 0.22261 0.98593 0.37223 0.0
H1696 H 0.32195 0.20924 0.98072 0.0
H1697 H 0.279 0.22153 0.98802 0.0
H1698 H 0.32508 0.24905 0.04921 0.0
H1699 H 0.36815 0.23677 0.04252 0.0
H1700 H 0.2707 0.2436 0.07782 0.0
H1701 H 0.26804 0.25403 0.93007 0.0
H1702 H 0.26909 0.23772 0.94096 0.0
H1703 H 0.29859 0.2475 0.95214 0.0
C1704 C 0.32296 0.21784 0.99605 0.0
C1705 C 0.34863 0.22208 0.01064 0.0
C1706 C 0.29839 0.22487 1.00007 0.0
C1707 C 0.29901 0.2363 0.01857 0.0
C1708 C 0.32422 0.24028 0.03467 0.0
H1709 H 0.1786 0.29597 0.99038 0.0
H1710 H 0.22125 0.28351 0.99718 0.0
C1711 C 0.34882 0.23325 0.03072 0.0
C1712 C 0.27375 0.24441 0.01952 0.0
H1713 H 0.22907 0.26078 0.96484 0.0
C1714 C 0.26156 0.24738 0.05318 0.0
C1715 C 0.26219 0.24948 0.98735 0.0
C1716 C 0.27525 0.24714 0.95058 0.0
C1717 C 0.23776 0.25514 0.05542 0.0
C1718 C 0.22577 0.25992 0.02312 0.0
C1719 C 0.23822 0.25706 0.98957 0.0
C1720 C 0.20035 0.26796 0.02314 0.0
C1721 C 0.22598 0.25834 0.09231 0.0
C1722 C 0.17447 0.26344 0.036 0.0
C1723 C 0.14997 0.27057 0.03226 0.0
C1724 C 0.15088 0.28231 0.01524 0.0
C1725 C 0.17705 0.28697 0.0035 0.0
C1726 C 0.20149 0.27985 0.00734 0.0
H1727 H 0.24164 0.25671 0.11422 0.0
H1728 H 0.21908 0.26822 0.09338 0.0
H1729 H 0.2074 0.25236 0.09782 0.0
H1730 H 0.17299 0.2542 0.04768 0.0
H1731 H 0.13018 0.26668 0.04152 0.0
H1732 H 0.82828 0.71441 0.96488 0.0
H1733 H 0.78624 0.72718 0.97234 0.0
H1734 H 0.82363 0.74505 0.06559 0.0
H1735 H 0.86644 0.73267 0.05721 0.0
H1736 H 0.74847 0.72979 0.02323 0.0
H1737 H 0.80394 0.77493 0.00653 0.0
H1738 H 0.82103 0.7602 0.99855 0.0
H1739 H 0.81665 0.76594 0.04415 0.0
C1740 C 0.82757 0.72101 0.98711 0.0
C1741 C 0.85085 0.72261 0.01023 0.0
C1742 C 0.80347 0.72832 0.99134 0.0
C1743 C 0.80195 0.7373 0.01902 0.0
C1744 C 0.82461 0.73848 0.04331 0.0
H1745 H 0.63787 0.7733 0.05735 0.0
H1746 H 0.68094 0.76113 0.06613 0.0
C1747 C 0.84899 0.73132 0.03869 0.0
C1748 C 0.77673 0.74547 0.02171 0.0
H1749 H 0.75545 0.77588 0.02038 0.0
C1750 C 0.75 0.73987 0.0227 0.0
C1751 C 0.77869 0.75864 0.02055 0.0
C1752 C 0.80658 0.7653 0.01702 0.0
C1753 C 0.72523 0.74702 0.02174 0.0
C1754 C 0.7272 0.76019 0.02128 0.0
C1755 C 0.75393 0.7658 0.02108 0.0
C1756 C 0.70192 0.76831 0.01826 0.0
C1757 C 0.69733 0.74031 0.01949 0.0
C1758 C 0.69994 0.77693 0.98967 0.0
C1759 C 0.6757 0.78414 0.98518 0.0
C1760 C 0.65274 0.78277 0.00895 0.0
C1761 C 0.65507 0.77444 0.03829 0.0
C1762 C 0.67959 0.7674 0.04317 0.0
H1763 H 0.69988 0.73055 0.00995 0.0
H1764 H 0.6876 0.74 0.04688 0.0
H1765 H 0.68263 0.74517 1.0008 0.0
H1766 H 0.71691 0.77787 0.97018 0.0
H1767 H 0.67458 0.79046 0.96229 0.0
H1768 H 0.07321 0.54626 0.23742 0.0
H1769 H 0.03001 0.53415 0.24446 0.0
H1770 H 0.0768 0.50484 0.29714 0.0
H1771 H 0.1201 0.51697 0.29083 0.0
H1772 H 0.0208 0.5114 0.21381 0.0
H1773 H 0.00849 0.50831 0.36333 0.0
H1774 H 0.03173 0.51941 0.34185 0.0
H1775 H 0.04249 0.50345 0.34732 0.0
C1776 C 0.07431 0.53733 0.25104 0.0
C1777 C 0.1002 0.53258 0.26344 0.0
C1778 C 0.04956 0.53041 0.25502 0.0
C1779 C 0.05012 0.51864 0.2716 0.0
C1780 C 0.07576 0.51401 0.28491 0.0
H1781 H 0.92812 0.45999 0.23231 0.0
H1782 H 0.97091 0.47245 0.23871 0.0
C1783 C 0.10055 0.52093 0.28105 0.0
C1784 C 0.02435 0.51081 0.27209 0.0
H1785 H 0.97934 0.49491 0.32779 0.0
C1786 C 0.01168 0.50785 0.23876 0.0
C1787 C 0.01234 0.50626 0.30468 0.0
C1788 C 0.02428 0.5096 0.34137 0.0
C1789 C 0.98756 0.50033 0.23703 0.0
C1790 C 0.97608 0.49543 0.26949 0.0
C1791 C 0.98842 0.49855 0.30292 0.0
C1792 C 0.95089 0.48727 0.26903 0.0
C1793 C 0.97432 0.49786 0.20045 0.0
C1794 C 0.92573 0.49122 0.28536 0.0
C1795 C 0.90121 0.48408 0.28196 0.0
C1796 C 0.90145 0.47285 0.26219 0.0
C1797 C 0.92707 0.46865 0.2474 0.0
C1798 C 0.95156 0.47577 0.25089 0.0
H1799 H 0.98134 0.50471 0.17972 0.0
H1800 H 0.98053 0.48843 0.191 0.0
H1801 H 0.95098 0.49817 0.20222 0.0
H1802 H 0.92484 0.50003 0.29967 0.0
H1803 H 0.88191 0.48758 0.29387 0.0
H1804 H 0.37397 0.73841 0.54221 0.0
H1805 H 0.33147 0.75107 0.54924 0.0
H1806 H 0.28321 0.72323 0.49217 0.0
H1807 H 0.3255 0.71059 0.48457 0.0
H1808 H 0.27703 0.74698 0.46402 0.0
H1809 H 0.2613 0.74706 0.6135 0.0
H1810 H 0.29602 0.75145 0.59885 0.0
H1811 H 0.28361 0.73588 0.59076 0.0
C1812 C 0.35425 0.73488 0.5316 0.0
C1813 C 0.35322 0.7235 0.51265 0.0
C1814 C 0.32993 0.74211 0.53584 0.0
C1815 C 0.30415 0.73805 0.52147 0.0
C1816 C 0.3029 0.72653 0.50353 0.0
H1817 H 0.13547 0.76751 0.54073 0.0
H1818 H 0.17912 0.75565 0.54693 0.0
C1819 C 0.32713 0.71931 0.49924 0.0
C1820 C 0.27894 0.74619 0.52239 0.0
H1821 H 0.23251 0.76081 0.57908 0.0
C1822 C 0.26728 0.74999 0.48918 0.0
C1823 C 0.26619 0.75004 0.55525 0.0
C1824 C 0.27721 0.74583 0.59166 0.0
C1825 C 0.24326 0.75757 0.48786 0.0
C1826 C 0.23082 0.76165 0.5207 0.0
C1827 C 0.24232 0.75779 0.55398 0.0
C1828 C 0.20518 0.76952 0.52071 0.0
C1829 C 0.23101 0.76091 0.45129 0.0
C1830 C 0.20555 0.78143 0.50498 0.0
C1831 C 0.18062 0.78824 0.5013 0.0
C1832 C 0.15485 0.78329 0.51351 0.0
C1833 C 0.15487 0.77162 0.531 0.0
C1834 C 0.17982 0.76481 0.53459 0.0
H1835 H 0.23903 0.75473 0.4294 0.0
H1836 H 0.20767 0.76032 0.45177 0.0
H1837 H 0.23694 0.77063 0.44439 0.0
H1838 H 0.22503 0.78532 0.49468 0.0
H1839 H 0.18146 0.79723 0.488 0.0
H1840 H 0.82808 0.21541 0.46585 0.0
H1841 H 0.78542 0.2277 0.47458 0.0
H1842 H 0.81983 0.24301 0.57343 0.0
H1843 H 0.86315 0.23107 0.56403 0.0
H1844 H 0.74616 0.2288 0.52479 0.0
H1845 H 0.80142 0.27436 0.52007 0.0
H1846 H 0.81883 0.2599 0.50941 0.0
H1847 H 0.81331 0.26438 0.55599 0.0
C1848 C 0.82654 0.22133 0.48959 0.0
C1849 C 0.84918 0.22239 0.514 0.0
C1850 C 0.8021 0.22837 0.49455 0.0
C1851 C 0.79961 0.23652 0.52421 0.0
C1852 C 0.82159 0.2371 0.5497 0.0
H1853 H 0.63401 0.27179 0.56044 0.0
H1854 H 0.67668 0.2594 0.57003 0.0
C1855 C 0.84629 0.23022 0.54441 0.0
C1856 C 0.7742 0.24454 0.52763 0.0
H1857 H 0.75256 0.27487 0.53127 0.0
C1858 C 0.74754 0.23888 0.52635 0.0
C1859 C 0.77602 0.2577 0.52927 0.0
C1860 C 0.8039 0.26447 0.52841 0.0
C1861 C 0.72271 0.24599 0.52571 0.0
C1862 C 0.72452 0.25915 0.52777 0.0
C1863 C 0.75116 0.26479 0.53001 0.0
C1864 C 0.69932 0.2673 0.52442 0.0
C1865 C 0.69494 0.23933 0.52103 0.0
C1866 C 0.69833 0.27632 0.49686 0.0
C1867 C 0.67428 0.28361 0.49188 0.0
C1868 C 0.65052 0.28195 0.51417 0.0
C1869 C 0.65183 0.27319 0.54254 0.0
C1870 C 0.67614 0.26603 0.54787 0.0
H1871 H 0.69783 0.22972 0.51043 0.0
H1872 H 0.68427 0.23862 0.54775 0.0
H1873 H 0.68091 0.24447 0.50214 0.0
H1874 H 0.71595 0.27753 0.47848 0.0
H1875 H 0.67403 0.29026 0.46975 0.0
H1876 H 0.07697 0.04003 0.7161 0.0
H1877 H 0.03445 0.0278 0.72616 0.0
H1878 H 0.0717 0.01147 0.82187 0.0
H1879 H 0.11484 0.02338 0.81111 0.0
H1880 H 0.04915 0.99407 0.78243 0.0
H1881 H 0.97062 0.03167 0.79486 0.0
H1882 H 0.98959 0.03321 0.75306 0.0
H1883 H 0.00798 0.03472 0.7957 0.0
C1884 C 0.076 0.03398 0.73962 0.0
C1885 C 0.09935 0.03267 0.7628 0.0
C1886 C 0.05154 0.02704 0.7455 0.0
C1887 C 0.04956 0.01887 0.7752 0.0
C1888 C 0.07264 0.01774 0.79885 0.0
H1889 H 0.88561 0.98286 0.80873 0.0
H1890 H 0.92851 0.99495 0.81961 0.0
C1891 C 0.09732 0.02455 0.79266 0.0
C1892 C 0.02427 0.01085 0.77982 0.0
H1893 H 0.95242 0.0114 0.77825 0.0
C1894 C 0.028 0.99788 0.78211 0.0
C1895 C 0.99662 0.01578 0.78024 0.0
C1896 C 0.99099 0.02962 0.78126 0.0
C1897 C 0.00491 0.98972 0.78297 0.0
C1898 C 0.9773 0.99461 0.78016 0.0
C1899 C 0.97355 0.0076 0.77977 0.0
C1900 C 0.95215 0.98649 0.77577 0.0
C1901 C 0.01046 0.97594 0.78693 0.0
C1902 C 0.95111 0.97766 0.74763 0.0
C1903 C 0.92682 0.97061 0.74176 0.0
C1904 C 0.90274 0.97244 0.76332 0.0
C1905 C 0.9038 0.98123 0.79163 0.0
C1906 C 0.9283 0.98816 0.79785 0.0
H1907 H 0.03036 0.97421 0.80198 0.0
H1908 H 0.99301 0.97116 0.80138 0.0
H1909 H 0.01278 0.97172 0.75957 0.0
H1910 H 0.96882 0.97647 0.72944 0.0
H1911 H 0.92661 0.96403 0.71943 0.0
H1912 H 0.42515 0.46446 0.72194 0.0
H1913 H 0.46734 0.47691 0.73147 0.0
H1914 H 0.42729 0.49563 0.82143 0.0
H1915 H 0.38435 0.48349 0.81102 0.0
H1916 H 0.45164 0.51197 0.77995 0.0
H1917 H 0.52881 0.47451 0.80402 0.0
H1918 H 0.51116 0.472 0.76167 0.0
H1919 H 0.4914 0.4716 0.8035 0.0
C1920 C 0.42538 0.47109 0.74412 0.0
C1921 C 0.40137 0.47294 0.7658 0.0
C1922 C 0.44968 0.47816 0.74972 0.0
C1923 C 0.45083 0.48704 0.7777 0.0
C1924 C 0.42702 0.48878 0.7998 0.0
H1925 H 0.61462 0.52313 0.8119 0.0
H1926 H 0.5712 0.51142 0.82282 0.0
C1927 C 0.40249 0.48183 0.79386 0.0
C1928 C 0.47615 0.49508 0.78198 0.0
H1929 H 0.548 0.49422 0.78394 0.0
C1930 C 0.47269 0.50808 0.78142 0.0
C1931 C 0.50367 0.49007 0.78475 0.0
C1932 C 0.50894 0.47628 0.78895 0.0
C1933 C 0.49595 0.51616 0.78169 0.0
C1934 C 0.52351 0.51112 0.7812 0.0
C1935 C 0.52694 0.49814 0.78365 0.0
C1936 C 0.54901 0.51902 0.77645 0.0
C1937 C 0.49062 0.53002 0.78261 0.0
C1938 C 0.55107 0.52723 0.74685 0.0
C1939 C 0.57567 0.53408 0.74093 0.0
C1940 C 0.59906 0.53264 0.76395 0.0
C1941 C 0.597 0.52444 0.79364 0.0
C1942 C 0.57218 0.51774 0.79989 0.0
H1943 H 0.47036 0.53217 0.79634 0.0
H1944 H 0.50777 0.53507 0.79688 0.0
H1945 H 0.48916 0.53359 0.75438 0.0
H1946 H 0.53393 0.5281 0.72763 0.0
H1947 H 0.57666 0.54019 0.71754 0.0
H1948 H 0.42727 0.96431 0.21774 0.0
H1949 H 0.46959 0.97668 0.22775 0.0
H1950 H 0.42987 0.99483 0.31893 0.0
H1951 H 0.3869 0.9828 0.30811 0.0
H1952 H 0.45349 0.01143 0.2777 0.0
H1953 H 0.53157 0.97416 0.29976 0.0
H1954 H 0.51373 0.97185 0.25743 0.0
H1955 H 0.49421 0.97111 0.29941 0.0
C1956 C 0.42764 0.97079 0.24028 0.0
C1957 C 0.40369 0.97255 0.26215 0.0
C1958 C 0.45199 0.97781 0.24615 0.0
C1959 C 0.45322 0.98654 0.27456 0.0
C1960 C 0.42952 0.98812 0.29695 0.0
H1961 H 0.61568 0.02347 0.31168 0.0
H1962 H 0.57264 0.0114 0.32162 0.0
C1963 C 0.40497 0.98123 0.29075 0.0
C1964 C 0.4784 0.99464 0.279 0.0
H1965 H 0.55026 0.99412 0.28122 0.0
C1966 C 0.47462 0.00763 0.27905 0.0
C1967 C 0.50602 0.98975 0.28156 0.0
C1968 C 0.51158 0.97595 0.28496 0.0
C1969 C 0.49768 0.01582 0.27983 0.0
C1970 C 0.52535 0.0109 0.27926 0.0
C1971 C 0.5291 0.99793 0.28103 0.0
C1972 C 0.55062 0.01896 0.27508 0.0
C1973 C 0.49202 0.02965 0.28133 0.0
C1974 C 0.55264 0.02726 0.2457 0.0
C1975 C 0.57704 0.03429 0.24029 0.0
C1976 C 0.60029 0.03296 0.26363 0.0
C1977 C 0.59823 0.02469 0.29314 0.0
C1978 C 0.57361 0.01778 0.29885 0.0
H1979 H 0.4716 0.03164 0.29488 0.0
H1980 H 0.50895 0.03469 0.29606 0.0
H1981 H 0.49073 0.03336 0.25325 0.0
H1982 H 0.53564 0.02807 0.22627 0.0
H1983 H 0.57803 0.04044 0.217 0.0
loop_
_geom_bond_atom_site_label_1
_geom_bond_atom_site_label_2
_geom_bond_distance
_geom_bond_site_symmetry_2
_ccdc_geom_bond_type
Co0 O3 1.970 . S
Co0 N17 1.989 . S
Co0 O25 1.967 . S
Co0 O32 1.920 . S
Co1 O4 1.966 . S
Co1 N10 2.022 . S
Co1 N18 1.993 . S
Co1 O26 1.941 1_554 S
C2 O3 1.258 . S
C2 O4 1.263 1_556 S
O3 Co0 1.970 . S
O3 C2 1.258 . S
O4 Co1 1.966 . S
O4 C2 1.263 1_554 S
C5 O6 1.235 . S
C5 O32 1.289 . S
O6 C5 1.235 . S
C7 C9 1.400 . S
C7 N10 1.351 . S
C7 C12 1.501 . S
C8 C9 1.387 . S
C8 N11 1.341 . S
C9 C7 1.400 . S
C9 C8 1.387 . S
N10 Co1 2.022 . S
N10 C7 1.351 . S
N10 N11 1.365 . S
N11 C8 1.341 . S
N11 N10 1.365 . S
N11 H31 0.860 . S
C12 C7 1.501 . S
C12 H13 0.961 . S
C12 H14 0.961 . S
C12 H15 0.960 . S
H13 C12 0.961 . S
H14 C12 0.961 . S
H15 C12 0.960 . S
C16 N17 1.342 1_554 S
C16 C20 1.401 . S
C16 C21 1.499 1_554 S
N17 Co0 1.989 . S
N17 C16 1.342 1_556 S
N17 N18 1.388 1_556 S
N18 Co1 1.993 . S
N18 N17 1.388 1_554 S
N18 C19 1.346 . S
C19 N18 1.346 . S
C19 C20 1.396 . S
C19 C29 1.510 . S
C20 C16 1.401 . S
C20 C19 1.396 . S
C21 C16 1.499 1_556 S
C21 H22 0.959 . S
C21 H23 0.971 . S
C21 H24 0.961 . S
H22 C21 0.959 . S
H23 C21 0.971 . S
H24 C21 0.961 . S
O25 Co0 1.967 . S
O25 C33 1.258 . S
O26 Co1 1.941 1_556 S
O26 C33 1.266 . S
H27 C29 0.959 . S
H28 C29 0.961 . S
C29 C19 1.510 . S
C29 H27 0.959 . S
C29 H28 0.961 . S
C29 H30 0.960 . S
H30 C29 0.960 . S
H31 N11 0.860 . S
O32 Co0 1.920 . S
O32 C5 1.289 . S
C33 O25 1.258 . S
C33 O26 1.266 . S
Co34 O37 1.970 . S
Co34 N51 1.989 . S
Co34 O59 1.967 . S
Co34 O66 1.920 . S
Co35 O38 1.966 . S
Co35 N44 2.022 . S
Co35 N52 1.993 . S
Co35 O60 1.941 1_554 S
C36 O37 1.258 . S
C36 O38 1.263 1_556 S
O37 Co34 1.970 . S
O37 C36 1.258 . S
O38 Co35 1.966 . S
O38 C36 1.263 1_554 S
C39 O40 1.235 . S
C39 O66 1.289 . S
O40 C39 1.235 . S
C41 C43 1.400 . S
C41 N44 1.351 . S
C41 C46 1.501 . S
C42 C43 1.387 . S
C42 N45 1.341 . S
C43 C41 1.400 . S
C43 C42 1.387 . S
N44 Co35 2.022 . S
N44 C41 1.351 . S
N44 N45 1.365 . S
N45 C42 1.341 . S
N45 N44 1.365 . S
N45 H65 0.860 . S
C46 C41 1.501 . S
C46 H47 0.961 . S
C46 H48 0.961 . S
C46 H49 0.960 . S
H47 C46 0.961 . S
H48 C46 0.961 . S
H49 C46 0.960 . S
C50 N51 1.342 1_554 S
C50 C54 1.401 . S
C50 C55 1.499 1_554 S
N51 Co34 1.989 . S
N51 C50 1.342 1_556 S
N51 N52 1.388 1_556 S
N52 Co35 1.993 . S
N52 N51 1.388 1_554 S
N52 C53 1.346 . S
C53 N52 1.346 . S
C53 C54 1.396 . S
C53 C63 1.510 . S
C54 C50 1.401 . S
C54 C53 1.396 . S
C55 C50 1.499 1_556 S
C55 H56 0.959 . S
C55 H57 0.971 . S
C55 H58 0.961 . S
H56 C55 0.959 . S
H57 C55 0.971 . S
H58 C55 0.961 . S
O59 Co34 1.967 . S
O59 C67 1.258 . S
O60 Co35 1.941 1_556 S
O60 C67 1.266 . S
H61 C63 0.959 . S
H62 C63 0.961 . S
C63 C53 1.510 . S
C63 H61 0.959 . S
C63 H62 0.961 . S
C63 H64 0.960 . S
H64 C63 0.960 . S
H65 N45 0.860 . S
O66 Co34 1.920 . S
O66 C39 1.289 . S
C67 O59 1.258 . S
C67 O60 1.266 . S
Co68 O71 1.970 . S
Co68 N85 1.989 . S
Co68 O93 1.967 . S
Co68 O100 1.920 . S
Co69 O72 1.966 . S
Co69 N78 2.022 . S
Co69 N86 1.993 . S
Co69 O94 1.941 . S
C70 O71 1.258 . S
C70 O72 1.263 . S
O71 Co68 1.970 . S
O71 C70 1.258 . S
O72 Co69 1.966 . S
O72 C70 1.263 . S
C73 O74 1.235 . S
C73 O100 1.289 . S
O74 C73 1.235 . S
C75 C77 1.400 . S
C75 N78 1.351 . S
C75 C80 1.501 . S
C76 C77 1.387 . S
C76 N79 1.341 . S
C77 C75 1.400 . S
C77 C76 1.387 . S
N78 Co69 2.022 . S
N78 C75 1.351 . S
N78 N79 1.365 . S
N79 C76 1.341 . S
N79 N78 1.365 . S
N79 H99 0.862 . S
C80 C75 1.501 . S
C80 H81 0.961 . S
C80 H82 0.961 . S
C80 H83 0.960 . S
H81 C80 0.961 . S
H82 C80 0.961 . S
H83 C80 0.960 . S
C84 N85 1.342 . S
C84 C88 1.401 . S
C84 C89 1.499 . S
N85 Co68 1.989 . S
N85 C84 1.342 . S
N85 N86 1.388 . S
N86 Co69 1.993 . S
N86 N85 1.388 . S
N86 C87 1.346 . S
C87 N86 1.346 . S
C87 C88 1.396 . S
C87 C97 1.510 . S
C88 C84 1.401 . S
C88 C87 1.396 . S
C89 C84 1.499 . S
C89 H90 0.959 . S
C89 H91 0.960 . S
C89 H92 0.961 . S
H90 C89 0.959 . S
H91 C89 0.960 . S
H92 C89 0.961 . S
O93 Co68 1.967 . S
O93 C101 1.258 . S
O94 Co69 1.941 . S
O94 C101 1.266 . S
H95 C97 0.959 . S
H96 C97 0.961 . S
C97 C87 1.510 . S
C97 H95 0.959 . S
C97 H96 0.961 . S
C97 H98 0.960 . S
H98 C97 0.960 . S
H99 N79 0.862 . S
O100 Co68 1.920 . S
O100 C73 1.289 . S
C101 O93 1.258 . S
C101 O94 1.266 . S
Co102 O105 1.970 . S
Co102 N119 1.989 . S
Co102 O127 1.967 . S
Co102 O134 1.920 . S
Co103 O106 1.966 . S
Co103 N112 2.022 . S
Co103 N120 1.993 . S
Co103 O128 1.941 . S
C104 O105 1.258 . S
C104 O106 1.263 . S
O105 Co102 1.970 . S
O105 C104 1.258 . S
O106 Co103 1.966 . S
O106 C104 1.263 . S
C107 O108 1.235 . S
C107 O134 1.289 . S
O108 C107 1.235 . S
C109 C111 1.400 . S
C109 N112 1.351 . S
C109 C114 1.501 . S
C110 C111 1.387 . S
C110 N113 1.341 . S
C111 C109 1.400 . S
C111 C110 1.387 . S
N112 Co103 2.022 . S
N112 C109 1.351 . S
N112 N113 1.365 . S
N113 C110 1.341 . S
N113 N112 1.365 . S
N113 H133 0.862 . S
C114 C109 1.501 . S
C114 H115 0.961 . S
C114 H116 0.961 . S
C114 H117 0.960 . S
H115 C114 0.961 . S
H116 C114 0.961 . S
H117 C114 0.960 . S
C118 N119 1.342 . S
C118 C122 1.401 . S
C118 C123 1.499 . S
N119 Co102 1.989 . S
N119 C118 1.342 . S
N119 N120 1.388 . S
N120 Co103 1.993 . S
N120 N119 1.388 . S
N120 C121 1.346 . S
C121 N120 1.346 . S
C121 C122 1.396 . S
C121 C131 1.510 . S
C122 C118 1.401 . S
C122 C121 1.396 . S
C123 C118 1.499 . S
C123 H124 0.959 . S
C123 H125 0.960 . S
C123 H126 0.961 . S
H124 C123 0.959 . S
H125 C123 0.960 . S
H126 C123 0.961 . S
O127 Co102 1.967 . S
O127 C135 1.258 . S
O128 Co103 1.941 . S
O128 C135 1.266 . S
H129 C131 0.959 . S
H130 C131 0.961 . S
C131 C121 1.510 . S
C131 H129 0.959 . S
C131 H130 0.961 . S
C131 H132 0.960 . S
H132 C131 0.960 . S
H133 N113 0.862 . S
O134 Co102 1.920 . S
O134 C107 1.289 . S
C135 O127 1.258 . S
C135 O128 1.266 . S
Co136 O139 1.970 . S
Co136 N153 1.989 . S
Co136 O161 1.967 . S
Co136 O168 1.920 . S
Co137 O140 1.966 . S
Co137 N146 2.022 . S
Co137 N154 1.993 . S
Co137 O162 1.941 . S
C138 O139 1.258 . S
C138 O140 1.263 . S
O139 Co136 1.970 . S
O139 C138 1.258 . S
O140 Co137 1.966 . S
O140 C138 1.263 . S
C141 O142 1.235 . S
C141 O168 1.289 . S
O142 C141 1.235 . S
C143 C145 1.400 . S
C143 N146 1.351 . S
C143 C148 1.501 . S
C144 C145 1.387 . S
C144 N147 1.341 . S
C145 C143 1.400 . S
C145 C144 1.387 . S
N146 Co137 2.022 . S
N146 C143 1.351 . S
N146 N147 1.365 . S
N147 C144 1.341 . S
N147 N146 1.365 . S
N147 H167 0.860 . S
C148 C143 1.501 . S
C148 H149 0.961 . S
C148 H150 0.961 . S
C148 H151 0.960 . S
H149 C148 0.961 . S
H150 C148 0.961 . S
H151 C148 0.960 . S
C152 N153 1.342 . S
C152 C156 1.401 . S
C152 C157 1.499 . S
N153 Co136 1.989 . S
N153 C152 1.342 . S
N153 N154 1.388 . S
N154 Co137 1.993 . S
N154 N153 1.388 . S
N154 C155 1.346 . S
C155 N154 1.346 . S
C155 C156 1.396 . S
C155 C165 1.510 . S
C156 C152 1.401 . S
C156 C155 1.396 . S
C157 C152 1.499 . S
C157 H158 0.959 . S
C157 H159 0.960 . S
C157 H160 0.961 . S
H158 C157 0.959 . S
H159 C157 0.960 . S
H160 C157 0.961 . S
O161 Co136 1.967 . S
O161 C169 1.258 . S
O162 Co137 1.941 . S
O162 C169 1.266 . S
H163 C165 0.959 . S
H164 C165 0.961 . S
C165 C155 1.510 . S
C165 H163 0.959 . S
C165 H164 0.961 . S
C165 H166 0.960 . S
H166 C165 0.960 . S
H167 N147 0.860 . S
O168 Co136 1.920 . S
O168 C141 1.289 . S
C169 O161 1.258 . S
C169 O162 1.266 . S
Co170 O173 1.970 . S
Co170 N187 1.989 . S
Co170 O195 1.967 . S
Co170 O202 1.920 . S
Co171 O174 1.966 . S
Co171 N180 2.022 . S
Co171 N188 1.993 . S
Co171 O196 1.941 . S
C172 O173 1.258 . S
C172 O174 1.263 . S
O173 Co170 1.970 . S
O173 C172 1.258 . S
O174 Co171 1.966 . S
O174 C172 1.263 . S
C175 O176 1.235 . S
C175 O202 1.289 . S
O176 C175 1.235 . S
C177 C179 1.400 . S
C177 N180 1.351 . S
C177 C182 1.501 . S
C178 C179 1.387 . S
C178 N181 1.341 . S
C179 C177 1.400 . S
C179 C178 1.387 . S
N180 Co171 2.022 . S
N180 C177 1.351 . S
N180 N181 1.365 . S
N181 C178 1.341 . S
N181 N180 1.365 . S
N181 H201 0.860 . S
C182 C177 1.501 . S
C182 H183 0.961 . S
C182 H184 0.961 . S
C182 H185 0.960 . S
H183 C182 0.961 . S
H184 C182 0.961 . S
H185 C182 0.960 . S
C186 N187 1.342 . S
C186 C190 1.401 . S
C186 C191 1.499 . S
N187 Co170 1.989 . S
N187 C186 1.342 . S
N187 N188 1.388 . S
N188 Co171 1.993 . S
N188 N187 1.388 . S
N188 C189 1.346 . S
C189 N188 1.346 . S
C189 C190 1.396 . S
C189 C199 1.510 . S
C190 C186 1.401 . S
C190 C189 1.396 . S
C191 C186 1.499 . S
C191 H192 0.959 . S
C191 H193 0.960 . S
C191 H194 0.961 . S
H192 C191 0.959 . S
H193 C191 0.960 . S
H194 C191 0.961 . S
O195 Co170 1.967 . S
O195 C203 1.258 . S
O196 Co171 1.941 . S
O196 C203 1.266 . S
H197 C199 0.959 . S
H198 C199 0.961 . S
C199 C189 1.510 . S
C199 H197 0.959 . S
C199 H198 0.961 . S
C199 H200 0.960 . S
H200 C199 0.960 . S
H201 N181 0.860 . S
O202 Co170 1.920 . S
O202 C175 1.289 . S
C203 O195 1.258 . S
C203 O196 1.266 . S
Co204 O207 1.970 . S
Co204 N221 1.989 . S
Co204 O229 1.967 . S
Co204 O236 1.920 . S
Co205 O208 1.966 . S
Co205 N214 2.022 . S
Co205 N222 1.993 . S
Co205 O230 1.941 . S
C206 O207 1.258 . S
C206 O208 1.263 . S
O207 Co204 1.970 . S
O207 C206 1.258 . S
O208 Co205 1.966 . S
O208 C206 1.263 . S
C209 O210 1.235 . S
C209 O236 1.289 . S
O210 C209 1.235 . S
C211 C213 1.400 . S
C211 N214 1.351 . S
C211 C216 1.501 . S
C212 C213 1.387 . S
C212 N215 1.341 . S
C213 C211 1.400 . S
C213 C212 1.387 . S
N214 Co205 2.022 . S
N214 C211 1.351 . S
N214 N215 1.365 . S
N215 C212 1.341 . S
N215 N214 1.365 . S
N215 H235 0.862 . S
C216 C211 1.501 . S
C216 H217 0.961 . S
C216 H218 0.961 . S
C216 H219 0.960 . S
H217 C216 0.961 . S
H218 C216 0.961 . S
H219 C216 0.960 . S
C220 N221 1.342 . S
C220 C224 1.401 . S
C220 C225 1.499 . S
N221 Co204 1.989 . S
N221 C220 1.342 . S
N221 N222 1.388 . S
N222 Co205 1.993 . S
N222 N221 1.388 . S
N222 C223 1.346 . S
C223 N222 1.346 . S
C223 C224 1.396 . S
C223 C233 1.510 . S
C224 C220 1.401 . S
C224 C223 1.396 . S
C225 C220 1.499 . S
C225 H226 0.959 . S
C225 H227 0.960 . S
C225 H228 0.961 . S
H226 C225 0.959 . S
H227 C225 0.960 . S
H228 C225 0.961 . S
O229 Co204 1.967 . S
O229 C237 1.258 . S
O230 Co205 1.941 . S
O230 C237 1.266 . S
H231 C233 0.959 . S
H232 C233 0.961 . S
C233 C223 1.510 . S
C233 H231 0.959 . S
C233 H232 0.961 . S
C233 H234 0.960 . S
H234 C233 0.960 . S
H235 N215 0.862 . S
O236 Co204 1.920 . S
O236 C209 1.289 . S
C237 O229 1.258 . S
C237 O230 1.266 . S
Co238 O241 1.970 . S
Co238 N255 1.989 . S
Co238 O263 1.967 . S
Co238 O270 1.920 . S
Co239 O242 1.966 . S
Co239 N248 2.022 . S
Co239 N256 1.993 . S
Co239 O264 1.941 . S
C240 O241 1.258 . S
C240 O242 1.263 . S
O241 Co238 1.970 . S
O241 C240 1.258 . S
O242 Co239 1.966 . S
O242 C240 1.263 . S
C243 O244 1.235 . S
C243 O270 1.289 . S
O244 C243 1.235 . S
C245 C247 1.400 . S
C245 N248 1.351 . S
C245 C250 1.501 . S
C246 C247 1.387 . S
C246 N249 1.341 . S
C247 C245 1.400 . S
C247 C246 1.387 . S
N248 Co239 2.022 . S
N248 C245 1.351 . S
N248 N249 1.365 . S
N249 C246 1.341 . S
N249 N248 1.365 . S
N249 H269 0.862 . S
C250 C245 1.501 . S
C250 H251 0.961 . S
C250 H252 0.961 . S
C250 H253 0.960 . S
H251 C250 0.961 . S
H252 C250 0.961 . S
H253 C250 0.960 . S
C254 N255 1.342 . S
C254 C258 1.401 . S
C254 C259 1.499 . S
N255 Co238 1.989 . S
N255 C254 1.342 . S
N255 N256 1.388 . S
N256 Co239 1.993 . S
N256 N255 1.388 . S
N256 C257 1.346 . S
C257 N256 1.346 . S
C257 C258 1.396 . S
C257 C267 1.510 . S
C258 C254 1.401 . S
C258 C257 1.396 . S
C259 C254 1.499 . S
C259 H260 0.959 . S
C259 H261 0.960 . S
C259 H262 0.961 . S
H260 C259 0.959 . S
H261 C259 0.960 . S
H262 C259 0.961 . S
O263 Co238 1.967 . S
O263 C271 1.258 . S
O264 Co239 1.941 . S
O264 C271 1.266 . S
H265 C267 0.959 . S
H266 C267 0.961 . S
C267 C257 1.510 . S
C267 H265 0.959 . S
C267 H266 0.961 . S
C267 H268 0.960 . S
H268 C267 0.960 . S
H269 N249 0.862 . S
O270 Co238 1.920 . S
O270 C243 1.289 . S
C271 O263 1.258 . S
C271 O264 1.266 . S
Co272 O275 1.970 . S
Co272 N289 1.989 . S
Co272 O297 1.967 . S
Co272 O304 1.920 . S
Co273 O276 1.966 . S
Co273 N282 2.022 . S
Co273 N290 1.993 . S
Co273 O298 1.941 . S
C274 O275 1.258 . S
C274 O276 1.263 . S
O275 Co272 1.970 . S
O275 C274 1.258 . S
O276 Co273 1.966 . S
O276 C274 1.263 . S
C277 O278 1.235 . S
C277 O304 1.289 . S
O278 C277 1.235 . S
C279 C281 1.400 . S
C279 N282 1.351 . S
C279 C284 1.501 . S
C280 C281 1.387 . S
C280 N283 1.341 . S
C281 C279 1.400 . S
C281 C280 1.387 . S
N282 Co273 2.022 . S
N282 C279 1.351 . S
N282 N283 1.365 . S
N283 C280 1.341 . S
N283 N282 1.365 . S
N283 H303 0.862 . S
C284 C279 1.501 . S
C284 H285 0.961 . S
C284 H286 0.961 . S
C284 H287 0.960 . S
H285 C284 0.961 . S
H286 C284 0.961 . S
H287 C284 0.960 . S
C288 N289 1.342 . S
C288 C292 1.401 . S
C288 C293 1.499 . S
N289 Co272 1.989 . S
N289 C288 1.342 . S
N289 N290 1.388 . S
N290 Co273 1.993 . S
N290 N289 1.388 . S
N290 C291 1.346 . S
C291 N290 1.346 . S
C291 C292 1.396 . S
C291 C301 1.510 . S
C292 C288 1.401 . S
C292 C291 1.396 . S
C293 C288 1.499 . S
C293 H294 0.959 . S
C293 H295 0.960 . S
C293 H296 0.961 . S
H294 C293 0.959 . S
H295 C293 0.960 . S
H296 C293 0.961 . S
O297 Co272 1.967 . S
O297 C305 1.258 . S
O298 Co273 1.941 . S
O298 C305 1.266 . S
H299 C301 0.959 . S
H300 C301 0.961 . S
C301 C291 1.510 . S
C301 H299 0.959 . S
C301 H300 0.961 . S
C301 H302 0.960 . S
H302 C301 0.960 . S
H303 N283 0.862 . S
O304 Co272 1.920 . S
O304 C277 1.289 . S
C305 O297 1.258 . S
C305 O298 1.266 . S
Co306 O309 1.970 . S
Co306 N323 1.989 . S
Co306 O331 1.967 . S
Co306 O338 1.920 . S
Co307 O310 1.966 . S
Co307 N316 2.022 . S
Co307 N324 1.993 . S
Co307 O332 1.941 . S
C308 O309 1.258 . S
C308 O310 1.263 . S
O309 Co306 1.970 . S
O309 C308 1.258 . S
O310 Co307 1.966 . S
O310 C308 1.263 . S
C311 O312 1.235 . S
C311 O338 1.289 . S
O312 C311 1.235 . S
C313 C315 1.400 . S
C313 N316 1.351 . S
C313 C318 1.501 . S
C314 C315 1.387 . S
C314 N317 1.341 . S
C315 C313 1.400 . S
C315 C314 1.387 . S
N316 Co307 2.022 . S
N316 C313 1.351 . S
N316 N317 1.365 . S
N317 C314 1.341 . S
N317 N316 1.365 . S
N317 H337 0.862 . S
C318 C313 1.501 . S
C318 H319 0.961 . S
C318 H320 0.961 . S
C318 H321 0.960 . S
H319 C318 0.961 . S
H320 C318 0.961 . S
H321 C318 0.960 . S
C322 N323 1.342 . S
C322 C326 1.401 . S
C322 C327 1.499 . S
N323 Co306 1.989 . S
N323 C322 1.342 . S
N323 N324 1.388 . S
N324 Co307 1.993 . S
N324 N323 1.388 . S
N324 C325 1.346 . S
C325 N324 1.346 . S
C325 C326 1.396 . S
C325 C335 1.510 . S
C326 C322 1.401 . S
C326 C325 1.396 . S
C327 C322 1.499 . S
C327 H328 0.959 . S
C327 H329 0.960 . S
C327 H330 0.961 . S
H328 C327 0.959 . S
H329 C327 0.960 . S
H330 C327 0.961 . S
O331 Co306 1.967 . S
O331 C339 1.258 . S
O332 Co307 1.941 . S
O332 C339 1.266 . S
H333 C335 0.959 . S
H334 C335 0.961 . S
C335 C325 1.510 . S
C335 H333 0.959 . S
C335 H334 0.961 . S
C335 H336 0.960 . S
H336 C335 0.960 . S
H337 N317 0.862 . S
O338 Co306 1.920 . S
O338 C311 1.289 . S
C339 O331 1.258 . S
C339 O332 1.266 . S
Co340 O343 1.970 . S
Co340 N357 1.989 . S
Co340 O365 1.967 . S
Co340 O372 1.920 . S
Co341 O344 1.966 . S
Co341 N350 2.022 . S
Co341 N358 1.993 . S
Co341 O366 1.941 . S
C342 O343 1.258 . S
C342 O344 1.263 . S
O343 Co340 1.970 . S
O343 C342 1.258 . S
O344 Co341 1.966 . S
O344 C342 1.263 . S
C345 O346 1.235 . S
C345 O372 1.289 . S
O346 C345 1.235 . S
C347 C349 1.400 . S
C347 N350 1.351 . S
C347 C352 1.501 . S
C348 C349 1.387 . S
C348 N351 1.341 . S
C349 C347 1.400 . S
C349 C348 1.387 . S
N350 Co341 2.022 . S
N350 C347 1.351 . S
N350 N351 1.365 . S
N351 C348 1.341 . S
N351 N350 1.365 . S
N351 H371 0.862 . S
C352 C347 1.501 . S
C352 H353 0.961 . S
C352 H354 0.961 . S
C352 H355 0.960 . S
H353 C352 0.961 . S
H354 C352 0.961 . S
H355 C352 0.960 . S
C356 N357 1.342 . S
C356 C360 1.401 . S
C356 C361 1.499 . S
N357 Co340 1.989 . S
N357 C356 1.342 . S
N357 N358 1.388 . S
N358 Co341 1.993 . S
N358 N357 1.388 . S
N358 C359 1.346 . S
C359 N358 1.346 . S
C359 C360 1.396 . S
C359 C369 1.510 . S
C360 C356 1.401 . S
C360 C359 1.396 . S
C361 C356 1.499 . S
C361 H362 0.959 . S
C361 H363 0.960 . S
C361 H364 0.961 . S
H362 C361 0.959 . S
H363 C361 0.960 . S
H364 C361 0.961 . S
O365 Co340 1.967 . S
O365 C373 1.258 . S
O366 Co341 1.941 . S
O366 C373 1.266 . S
H367 C369 0.959 . S
H368 C369 0.961 . S
C369 C359 1.510 . S
C369 H367 0.959 . S
C369 H368 0.961 . S
C369 H370 0.960 . S
H370 C369 0.960 . S
H371 N351 0.862 . S
O372 Co340 1.920 . S
O372 C345 1.289 . S
C373 O365 1.258 . S
C373 O366 1.266 . S
Co374 O377 1.970 . S
Co374 N391 1.989 . S
Co374 O399 1.967 . S
Co374 O406 1.920 . S
Co375 O378 1.966 . S
Co375 N384 2.022 . S
Co375 N392 1.993 . S
Co375 O400 1.941 . S
C376 O377 1.258 . S
C376 O378 1.263 . S
O377 Co374 1.970 . S
O377 C376 1.258 . S
O378 Co375 1.966 . S
O378 C376 1.263 . S
C379 O380 1.235 . S
C379 O406 1.289 . S
O380 C379 1.235 . S
C381 C383 1.400 . S
C381 N384 1.351 . S
C381 C386 1.501 . S
C382 C383 1.387 . S
C382 N385 1.341 . S
C383 C381 1.400 . S
C383 C382 1.387 . S
N384 Co375 2.022 . S
N384 C381 1.351 . S
N384 N385 1.365 . S
N385 C382 1.341 . S
N385 N384 1.365 . S
N385 H405 0.862 . S
C386 C381 1.501 . S
C386 H387 0.961 . S
C386 H388 0.961 . S
C386 H389 0.960 . S
H387 C386 0.961 . S
H388 C386 0.961 . S
H389 C386 0.960 . S
C390 N391 1.342 . S
C390 C394 1.401 . S
C390 C395 1.499 . S
N391 Co374 1.989 . S
N391 C390 1.342 . S
N391 N392 1.388 . S
N392 Co375 1.993 . S
N392 N391 1.388 . S
N392 C393 1.346 . S
C393 N392 1.346 . S
C393 C394 1.396 . S
C393 C403 1.510 . S
C394 C390 1.401 . S
C394 C393 1.396 . S
C395 C390 1.499 . S
C395 H396 0.959 . S
C395 H397 0.960 . S
C395 H398 0.961 . S
H396 C395 0.959 . S
H397 C395 0.960 . S
H398 C395 0.961 . S
O399 Co374 1.967 . S
O399 C407 1.258 . S
O400 Co375 1.941 . S
O400 C407 1.266 . S
H401 C403 0.959 . S
H402 C403 0.961 . S
C403 C393 1.510 . S
C403 H401 0.959 . S
C403 H402 0.961 . S
C403 H404 0.960 . S
H404 C403 0.960 . S
H405 N385 0.862 . S
O406 Co374 1.920 . S
O406 C379 1.289 . S
C407 O399 1.258 . S
C407 O400 1.266 . S
Co408 O411 1.970 . S
Co408 N425 1.989 . S
Co408 O433 1.967 . S
Co408 O440 1.920 . S
Co409 O412 1.966 . S
Co409 N418 2.022 . S
Co409 N426 1.993 . S
Co409 O434 1.941 1_554 S
C410 O411 1.258 . S
C410 O412 1.263 1_556 S
O411 Co408 1.970 . S
O411 C410 1.258 . S
O412 Co409 1.966 . S
O412 C410 1.263 1_554 S
C413 O414 1.235 . S
C413 O440 1.289 . S
O414 C413 1.235 . S
C415 C417 1.400 . S
C415 N418 1.351 . S
C415 C420 1.501 . S
C416 C417 1.387 . S
C416 N419 1.341 . S
C417 C415 1.400 . S
C417 C416 1.387 . S
N418 Co409 2.022 . S
N418 C415 1.351 . S
N418 N419 1.365 . S
N419 C416 1.341 . S
N419 N418 1.365 . S
N419 H439 0.862 . S
C420 C415 1.501 . S
C420 H421 0.961 . S
C420 H422 0.961 . S
C420 H423 0.960 . S
H421 C420 0.961 . S
H422 C420 0.961 . S
H423 C420 0.960 . S
C424 N425 1.342 1_554 S
C424 C428 1.401 . S
C424 C429 1.499 1_554 S
N425 Co408 1.989 . S
N425 C424 1.342 1_556 S
N425 N426 1.388 1_556 S
N426 Co409 1.993 . S
N426 N425 1.388 1_554 S
N426 C427 1.346 . S
C427 N426 1.346 . S
C427 C428 1.396 . S
C427 C437 1.510 . S
C428 C424 1.401 . S
C428 C427 1.396 . S
C429 C424 1.499 1_556 S
C429 H430 0.959 . S
C429 H431 0.971 . S
C429 H432 0.961 . S
H430 C429 0.959 . S
H431 C429 0.971 . S
H432 C429 0.961 . S
O433 Co408 1.967 . S
O433 C441 1.258 . S
O434 Co409 1.941 1_556 S
O434 C441 1.266 . S
H435 C437 0.959 . S
H436 C437 0.961 . S
C437 C427 1.510 . S
C437 H435 0.959 . S
C437 H436 0.961 . S
C437 H438 0.960 . S
H438 C437 0.960 . S
H439 N419 0.862 . S
O440 Co408 1.920 . S
O440 C413 1.289 . S
C441 O433 1.258 . S
C441 O434 1.266 . S
Co442 O445 1.970 . S
Co442 N459 1.989 . S
Co442 O467 1.967 . S
Co442 O474 1.920 . S
Co443 O446 1.966 . S
Co443 N452 2.022 . S
Co443 N460 1.993 . S
Co443 O468 1.941 1_554 S
C444 O445 1.258 . S
C444 O446 1.263 1_556 S
O445 Co442 1.970 . S
O445 C444 1.258 . S
O446 Co443 1.966 . S
O446 C444 1.263 1_554 S
C447 O448 1.235 . S
C447 O474 1.289 . S
O448 C447 1.235 . S
C449 C451 1.400 . S
C449 N452 1.351 . S
C449 C454 1.501 . S
C450 C451 1.387 . S
C450 N453 1.341 . S
C451 C449 1.400 . S
C451 C450 1.387 . S
N452 Co443 2.022 . S
N452 C449 1.351 . S
N452 N453 1.365 . S
N453 C450 1.341 . S
N453 N452 1.365 . S
N453 H473 0.862 . S
C454 C449 1.501 . S
C454 H455 0.961 . S
C454 H456 0.961 . S
C454 H457 0.960 . S
H455 C454 0.961 . S
H456 C454 0.961 . S
H457 C454 0.960 . S
C458 N459 1.342 1_554 S
C458 C462 1.401 . S
C458 C463 1.499 1_554 S
N459 Co442 1.989 . S
N459 C458 1.342 1_556 S
N459 N460 1.388 1_556 S
N460 Co443 1.993 . S
N460 N459 1.388 1_554 S
N460 C461 1.346 . S
C461 N460 1.346 . S
C461 C462 1.396 . S
C461 C471 1.510 . S
C462 C458 1.401 . S
C462 C461 1.396 . S
C463 C458 1.499 1_556 S
C463 H464 0.959 . S
C463 H465 0.971 . S
C463 H466 0.961 . S
H464 C463 0.959 . S
H465 C463 0.971 . S
H466 C463 0.961 . S
O467 Co442 1.967 . S
O467 C475 1.258 . S
O468 Co443 1.941 1_556 S
O468 C475 1.266 . S
H469 C471 0.959 . S
H470 C471 0.961 . S
C471 C461 1.510 . S
C471 H469 0.959 . S
C471 H470 0.961 . S
C471 H472 0.960 . S
H472 C471 0.960 . S
H473 N453 0.862 . S
O474 Co442 1.920 . S
O474 C447 1.289 . S
C475 O467 1.258 . S
C475 O468 1.266 . S
Co476 O479 1.970 . S
Co476 N493 1.989 . S
Co476 O501 1.967 . S
Co476 O508 1.920 . S
Co477 O480 1.966 . S
Co477 N486 2.022 . S
Co477 N494 1.993 . S
Co477 O502 1.941 . S
C478 O479 1.258 . S
C478 O480 1.263 . S
O479 Co476 1.970 . S
O479 C478 1.258 . S
O480 Co477 1.966 . S
O480 C478 1.263 . S
C481 O482 1.235 . S
C481 O508 1.289 . S
O482 C481 1.235 . S
C483 C485 1.400 . S
C483 N486 1.351 . S
C483 C488 1.501 . S
C484 C485 1.387 . S
C484 N487 1.341 . S
C485 C483 1.400 . S
C485 C484 1.387 . S
N486 Co477 2.022 . S
N486 C483 1.351 . S
N486 N487 1.365 . S
N487 C484 1.341 . S
N487 N486 1.365 . S
N487 H507 0.862 . S
C488 C483 1.501 . S
C488 H489 0.961 . S
C488 H490 0.961 . S
C488 H491 0.960 . S
H489 C488 0.961 . S
H490 C488 0.961 . S
H491 C488 0.960 . S
C492 N493 1.342 . S
C492 C496 1.401 . S
C492 C497 1.499 . S
N493 Co476 1.989 . S
N493 C492 1.342 . S
N493 N494 1.388 . S
N494 Co477 1.993 . S
N494 N493 1.388 . S
N494 C495 1.346 . S
C495 N494 1.346 . S
C495 C496 1.396 . S
C495 C505 1.510 . S
C496 C492 1.401 . S
C496 C495 1.396 . S
C497 C492 1.499 . S
C497 H498 0.959 . S
C497 H499 0.960 . S
C497 H500 0.961 . S
H498 C497 0.959 . S
H499 C497 0.960 . S
H500 C497 0.961 . S
O501 Co476 1.967 . S
O501 C509 1.258 . S
O502 Co477 1.941 . S
O502 C509 1.266 . S
H503 C505 0.959 . S
H504 C505 0.961 . S
C505 C495 1.510 . S
C505 H503 0.959 . S
C505 H504 0.961 . S
C505 H506 0.960 . S
H506 C505 0.960 . S
H507 N487 0.862 . S
O508 Co476 1.920 . S
O508 C481 1.289 . S
C509 O501 1.258 . S
C509 O502 1.266 . S
Co510 O513 1.970 . S
Co510 N527 1.989 . S
Co510 O535 1.967 . S
Co510 O542 1.920 . S
Co511 O514 1.966 . S
Co511 N520 2.022 . S
Co511 N528 1.993 . S
Co511 O536 1.941 . S
C512 O513 1.258 . S
C512 O514 1.263 . S
O513 Co510 1.970 . S
O513 C512 1.258 . S
O514 Co511 1.966 . S
O514 C512 1.263 . S
C515 O516 1.235 . S
C515 O542 1.289 . S
O516 C515 1.235 . S
C517 C519 1.400 . S
C517 N520 1.351 . S
C517 C522 1.501 . S
C518 C519 1.387 . S
C518 N521 1.341 . S
C519 C517 1.400 . S
C519 C518 1.387 . S
N520 Co511 2.022 . S
N520 C517 1.351 . S
N520 N521 1.365 . S
N521 C518 1.341 . S
N521 N520 1.365 . S
N521 H541 0.862 . S
C522 C517 1.501 . S
C522 H523 0.961 . S
C522 H524 0.961 . S
C522 H525 0.960 . S
H523 C522 0.961 . S
H524 C522 0.961 . S
H525 C522 0.960 . S
C526 N527 1.342 . S
C526 C530 1.401 . S
C526 C531 1.499 . S
N527 Co510 1.989 . S
N527 C526 1.342 . S
N527 N528 1.388 . S
N528 Co511 1.993 . S
N528 N527 1.388 . S
N528 C529 1.346 . S
C529 N528 1.346 . S
C529 C530 1.396 . S
C529 C539 1.510 . S
C530 C526 1.401 . S
C530 C529 1.396 . S
C531 C526 1.499 . S
C531 H532 0.959 . S
C531 H533 0.960 . S
C531 H534 0.961 . S
H532 C531 0.959 . S
H533 C531 0.960 . S
H534 C531 0.961 . S
O535 Co510 1.967 . S
O535 C543 1.258 . S
O536 Co511 1.941 . S
O536 C543 1.266 . S
H537 C539 0.959 . S
H538 C539 0.961 . S
C539 C529 1.510 . S
C539 H537 0.959 . S
C539 H538 0.961 . S
C539 H540 0.960 . S
H540 C539 0.960 . S
H541 N521 0.862 . S
O542 Co510 1.920 . S
O542 C515 1.289 . S
C543 O535 1.258 . S
C543 O536 1.266 . S
H544 C552 0.929 . S
H545 C554 0.930 . S
H546 C556 0.930 . S
H547 C559 0.929 . S
H548 C562 0.930 . S
H549 C564 0.960 . S
H550 C564 0.960 . S
H551 C564 0.960 . S
C552 H544 0.929 . S
C552 C553 1.377 . S
C552 C554 1.384 . S
C553 C552 1.377 . S
C553 C559 1.390 . S
C554 H545 0.930 . S
C554 C552 1.384 . S
C554 C555 1.372 . S
C555 C554 1.372 . S
C555 C556 1.400 . S
C555 C560 1.490 . S
C556 H546 0.930 . S
C556 C555 1.400 . S
C556 C559 1.386 . S
H557 C573 0.930 . S
H558 C574 0.931 . S
C559 H547 0.929 . S
C559 C553 1.390 . S
C559 C556 1.386 . S
C560 C555 1.490 . S
C560 C562 1.395 . S
C560 C563 1.403 . S
H561 C567 0.930 . S
C562 H548 0.930 . S
C562 C560 1.395 . S
C562 C565 1.403 . S
C563 C560 1.403 . S
C563 C564 1.524 . S
C563 C567 1.400 . S
C564 H549 0.960 . S
C564 H550 0.960 . S
C564 H551 0.960 . S
C564 C563 1.524 . S
C565 C562 1.403 . S
C565 C566 1.392 . S
C565 C569 1.495 . S
C566 C565 1.392 . S
C566 C567 1.385 . S
C566 C568 1.478 . S
C567 H561 0.930 . S
C567 C563 1.400 . S
C567 C566 1.385 . S
C568 C566 1.478 . S
C568 C570 1.381 . S
C568 C574 1.383 . S
C569 C565 1.495 . S
C569 H575 0.959 . S
C569 H576 0.961 . S
C569 H577 0.960 . S
C570 C568 1.381 . S
C570 C571 1.394 . S
C570 H578 0.930 . S
C571 C570 1.394 . S
C571 C572 1.383 . S
C571 H579 0.929 . S
C572 C571 1.383 . S
C572 C573 1.377 . S
C573 H557 0.930 . S
C573 C572 1.377 . S
C573 C574 1.379 . S
C574 H558 0.931 . S
C574 C568 1.383 . S
C574 C573 1.379 . S
H575 C569 0.959 . S
H576 C569 0.961 . S
H577 C569 0.960 . S
H578 C570 0.930 . S
H579 C571 0.929 . S
H580 C588 0.929 . S
H581 C590 0.930 . S
H582 C592 0.930 . S
H583 C595 0.929 . S
H584 C598 0.930 . S
H585 C600 0.960 . S
H586 C600 0.960 . S
H587 C600 0.960 . S
C588 H580 0.929 . S
C588 C589 1.377 . S
C588 C590 1.384 . S
C589 C588 1.377 . S
C589 C595 1.390 . S
C590 H581 0.930 . S
C590 C588 1.384 . S
C590 C591 1.372 . S
C591 C590 1.372 . S
C591 C592 1.400 . S
C591 C596 1.490 . S
C592 H582 0.930 . S
C592 C591 1.400 . S
C592 C595 1.386 . S
H593 C609 0.930 . S
H594 C610 0.931 . S
C595 H583 0.929 . S
C595 C589 1.390 . S
C595 C592 1.386 . S
C596 C591 1.490 . S
C596 C598 1.395 . S
C596 C599 1.403 . S
H597 C603 0.930 . S
C598 H584 0.930 . S
C598 C596 1.395 . S
C598 C601 1.403 . S
C599 C596 1.403 . S
C599 C600 1.524 . S
C599 C603 1.400 . S
C600 H585 0.960 . S
C600 H586 0.960 . S
C600 H587 0.960 . S
C600 C599 1.524 . S
C601 C598 1.403 . S
C601 C602 1.392 . S
C601 C605 1.495 . S
C602 C601 1.392 . S
C602 C603 1.385 . S
C602 C604 1.478 . S
C603 H597 0.930 . S
C603 C599 1.400 . S
C603 C602 1.385 . S
C604 C602 1.478 . S
C604 C606 1.381 . S
C604 C610 1.383 . S
C605 C601 1.495 . S
C605 H611 0.959 . S
C605 H612 0.961 . S
C605 H613 0.960 . S
C606 C604 1.381 . S
C606 C607 1.394 . S
C606 H614 0.930 . S
C607 C606 1.394 . S
C607 C608 1.383 . S
C607 H615 0.929 . S
C608 C607 1.383 . S
C608 C609 1.377 . S
C609 H593 0.930 . S
C609 C608 1.377 . S
C609 C610 1.379 . S
C610 H594 0.931 . S
C610 C604 1.383 . S
C610 C609 1.379 . S
H611 C605 0.959 . S
H612 C605 0.961 . S
H613 C605 0.960 . S
H614 C606 0.930 . S
H615 C607 0.929 . S
H616 C624 0.929 . S
H617 C626 0.930 . S
H618 C628 0.930 . S
H619 C631 0.929 . S
H620 C634 0.930 . S
H621 C636 0.960 . S
H622 C636 0.960 . S
H623 C636 0.960 . S
C624 H616 0.929 . S
C624 C625 1.377 1_455 S
C624 C626 1.384 . S
C625 C624 1.377 1_655 S
C625 C631 1.390 . S
C626 H617 0.930 . S
C626 C624 1.384 . S
C626 C627 1.372 . S
C627 C626 1.372 . S
C627 C628 1.400 1_455 S
C627 C632 1.490 . S
C628 H618 0.930 . S
C628 C627 1.400 1_655 S
C628 C631 1.386 . S
H629 C645 0.930 . S
H630 C646 0.931 . S
C631 H619 0.929 . S
C631 C625 1.390 . S
C631 C628 1.386 . S
C632 C627 1.490 . S
C632 C634 1.395 . S
C632 C635 1.403 . S
H633 C639 0.930 . S
C634 H620 0.930 . S
C634 C632 1.395 . S
C634 C637 1.403 . S
C635 C632 1.403 . S
C635 C636 1.524 . S
C635 C639 1.400 . S
C636 H621 0.960 . S
C636 H622 0.960 . S
C636 H623 0.960 . S
C636 C635 1.524 . S
C637 C634 1.403 . S
C637 C638 1.392 . S
C637 C641 1.495 . S
C638 C637 1.392 . S
C638 C639 1.385 . S
C638 C640 1.478 . S
C639 H633 0.930 . S
C639 C635 1.400 . S
C639 C638 1.385 . S
C640 C638 1.478 . S
C640 C642 1.381 . S
C640 C646 1.383 . S
C641 C637 1.495 . S
C641 H647 0.959 . S
C641 H648 0.961 . S
C641 H649 0.960 . S
C642 C640 1.381 . S
C642 C643 1.394 . S
C642 H650 0.930 . S
C643 C642 1.394 . S
C643 C644 1.383 . S
C643 H651 0.929 . S
C644 C643 1.383 . S
C644 C645 1.377 . S
C645 H629 0.930 . S
C645 C644 1.377 . S
C645 C646 1.379 . S
C646 H630 0.931 . S
C646 C640 1.383 . S
C646 C645 1.379 . S
H647 C641 0.959 . S
H648 C641 0.961 . S
H649 C641 0.960 . S
H650 C642 0.930 . S
H651 C643 0.929 . S
H652 C660 0.927 1_655 S
H653 C662 0.930 . S
H654 C664 0.930 . S
H655 C667 0.929 . S
H656 C670 0.930 . S
H657 C672 0.960 . S
H658 C672 0.960 . S
H659 C672 0.960 . S
C660 H652 0.927 1_455 S
C660 C661 1.398 . S
C660 C662 1.366 1_455 S
C661 C660 1.398 . S
C661 C667 1.390 . S
C662 H653 0.930 . S
C662 C660 1.366 1_655 S
C662 C663 1.372 . S
C663 C662 1.372 . S
C663 C664 1.400 1_655 S
C663 C668 1.490 . S
C664 H654 0.930 . S
C664 C663 1.400 1_455 S
C664 C667 1.386 . S
H665 C681 0.930 . S
H666 C682 0.931 . S
C667 H655 0.929 . S
C667 C661 1.390 . S
C667 C664 1.386 . S
C668 C663 1.490 . S
C668 C670 1.395 . S
C668 C671 1.403 . S
H669 C675 0.930 . S
C670 H656 0.930 . S
C670 C668 1.395 . S
C670 C673 1.403 . S
C671 C668 1.403 . S
C671 C672 1.524 1_655 S
C671 C675 1.400 . S
C672 H657 0.960 . S
C672 H658 0.960 . S
C672 H659 0.960 . S
C672 C671 1.524 1_455 S
C673 C670 1.403 . S
C673 C674 1.392 . S
C673 C677 1.495 . S
C674 C673 1.392 . S
C674 C675 1.385 . S
C674 C676 1.478 . S
C675 H669 0.930 . S
C675 C671 1.400 . S
C675 C674 1.385 . S
C676 C674 1.478 . S
C676 C678 1.381 . S
C676 C682 1.383 . S
C677 C673 1.495 . S
C677 H683 0.959 . S
C677 H684 0.961 . S
C677 H685 0.960 . S
C678 C676 1.381 . S
C678 C679 1.394 . S
C678 H686 0.930 . S
C679 C678 1.394 . S
C679 C680 1.383 . S
C679 H687 0.929 . S
C680 C679 1.383 . S
C680 C681 1.377 . S
C681 H665 0.930 . S
C681 C680 1.377 . S
C681 C682 1.379 . S
C682 H666 0.931 . S
C682 C676 1.383 . S
C682 C681 1.379 . S
H683 C677 0.959 . S
H684 C677 0.961 . S
H685 C677 0.960 . S
H686 C678 0.930 . S
H687 C679 0.929 . S
H688 C696 0.929 . S
H689 C698 0.930 . S
H690 C700 0.930 . S
H691 C703 0.929 . S
H692 C706 0.930 . S
H693 C708 0.960 . S
H694 C708 0.960 . S
H695 C708 0.960 . S
C696 H688 0.929 . S
C696 C697 1.377 . S
C696 C698 1.384 . S
C697 C696 1.377 . S
C697 C703 1.390 . S
C698 H689 0.930 . S
C698 C696 1.384 . S
C698 C699 1.372 . S
C699 C698 1.372 . S
C699 C700 1.400 . S
C699 C704 1.490 . S
C700 H690 0.930 . S
C700 C699 1.400 . S
C700 C703 1.386 . S
H701 C717 0.930 . S
H702 C718 0.931 . S
C703 H691 0.929 . S
C703 C697 1.390 . S
C703 C700 1.386 . S
C704 C699 1.490 . S
C704 C706 1.395 . S
C704 C707 1.403 . S
H705 C711 0.930 . S
C706 H692 0.930 . S
C706 C704 1.395 . S
C706 C709 1.403 . S
C707 C704 1.403 . S
C707 C708 1.524 . S
C707 C711 1.400 . S
C708 H693 0.960 . S
C708 H694 0.960 . S
C708 H695 0.960 . S
C708 C707 1.524 . S
C709 C706 1.403 . S
C709 C710 1.392 . S
C709 C713 1.495 . S
C710 C709 1.392 . S
C710 C711 1.385 . S
C710 C712 1.478 . S
C711 H705 0.930 . S
C711 C707 1.400 . S
C711 C710 1.385 . S
C712 C710 1.478 . S
C712 C714 1.381 . S
C712 C718 1.383 . S
C713 C709 1.495 . S
C713 H719 0.959 . S
C713 H720 0.961 . S
C713 H721 0.960 . S
C714 C712 1.381 . S
C714 C715 1.394 . S
C714 H722 0.930 . S
C715 C714 1.394 . S
C715 C716 1.383 . S
C715 H723 0.929 . S
C716 C715 1.383 . S
C716 C717 1.377 . S
C717 H701 0.930 . S
C717 C716 1.377 . S
C717 C718 1.379 . S
C718 H702 0.931 . S
C718 C712 1.383 . S
C718 C717 1.379 . S
H719 C713 0.959 . S
H720 C713 0.961 . S
H721 C713 0.960 . S
H722 C714 0.930 . S
H723 C715 0.929 . S
H724 C732 0.929 . S
H725 C734 0.930 . S
H726 C736 0.930 . S
H727 C739 0.929 . S
H728 C742 0.930 . S
H729 C744 0.960 . S
H730 C744 0.960 . S
H731 C744 0.960 . S
C732 H724 0.929 . S
C732 C733 1.377 . S
C732 C734 1.384 . S
C733 C732 1.377 . S
C733 C739 1.390 . S
C734 H725 0.930 . S
C734 C732 1.384 . S
C734 C735 1.372 . S
C735 C734 1.372 . S
C735 C736 1.400 . S
C735 C740 1.490 . S
C736 H726 0.930 . S
C736 C735 1.400 . S
C736 C739 1.386 . S
H737 C753 0.930 . S
H738 C754 0.931 . S
C739 H727 0.929 . S
C739 C733 1.390 . S
C739 C736 1.386 . S
C740 C735 1.490 . S
C740 C742 1.395 . S
C740 C743 1.403 . S
H741 C747 0.930 . S
C742 H728 0.930 . S
C742 C740 1.395 . S
C742 C745 1.403 . S
C743 C740 1.403 . S
C743 C744 1.524 . S
C743 C747 1.400 . S
C744 H729 0.960 . S
C744 H730 0.960 . S
C744 H731 0.960 . S
C744 C743 1.524 . S
C745 C742 1.403 . S
C745 C746 1.392 . S
C745 C749 1.495 . S
C746 C745 1.392 . S
C746 C747 1.385 . S
C746 C748 1.478 . S
C747 H741 0.930 . S
C747 C743 1.400 . S
C747 C746 1.385 . S
C748 C746 1.478 . S
C748 C750 1.381 . S
C748 C754 1.383 . S
C749 C745 1.495 . S
C749 H755 0.959 . S
C749 H756 0.961 . S
C749 H757 0.960 . S
C750 C748 1.381 . S
C750 C751 1.394 . S
C750 H758 0.930 . S
C751 C750 1.394 . S
C751 C752 1.383 . S
C751 H759 0.929 . S
C752 C751 1.383 . S
C752 C753 1.377 . S
C753 H737 0.930 . S
C753 C752 1.377 . S
C753 C754 1.379 . S
C754 H738 0.931 . S
C754 C748 1.383 . S
C754 C753 1.379 . S
H755 C749 0.959 . S
H756 C749 0.961 . S
H757 C749 0.960 . S
H758 C750 0.930 . S
H759 C751 0.929 . S
H760 C768 0.929 . S
H761 C770 0.930 . S
H762 C772 0.930 . S
H763 C775 0.929 . S
H764 C778 0.930 . S
H765 C780 0.960 . S
H766 C780 0.960 1_655 S
H767 C780 0.960 . S
C768 H760 0.929 . S
C768 C769 1.377 . S
C768 C770 1.384 . S
C769 C768 1.377 . S
C769 C775 1.390 . S
C770 H761 0.930 . S
C770 C768 1.384 . S
C770 C771 1.372 1_655 S
C771 C770 1.372 1_455 S
C771 C772 1.400 . S
C771 C776 1.490 . S
C772 H762 0.930 . S
C772 C771 1.400 . S
C772 C775 1.386 1_455 S
H773 C789 0.930 . S
H774 C790 0.931 . S
C775 H763 0.929 . S
C775 C769 1.390 . S
C775 C772 1.386 1_655 S
C776 C771 1.490 . S
C776 C778 1.395 . S
C776 C779 1.403 . S
H777 C783 0.930 . S
C778 H764 0.930 . S
C778 C776 1.395 . S
C778 C781 1.403 . S
C779 C776 1.403 . S
C779 C780 1.524 . S
C779 C783 1.400 . S
C780 H765 0.960 . S
C780 H766 0.960 1_455 S
C780 H767 0.960 . S
C780 C779 1.524 . S
C781 C778 1.403 . S
C781 C782 1.392 . S
C781 C785 1.495 . S
C782 C781 1.392 . S
C782 C783 1.385 . S
C782 C784 1.478 . S
C783 H777 0.930 . S
C783 C779 1.400 . S
C783 C782 1.385 . S
C784 C782 1.478 . S
C784 C786 1.381 . S
C784 C790 1.383 . S
C785 C781 1.495 . S
C785 H791 0.959 . S
C785 H792 0.961 . S
C785 H793 0.960 . S
C786 C784 1.381 . S
C786 C787 1.394 . S
C786 H794 0.930 . S
C787 C786 1.394 . S
C787 C788 1.383 . S
C787 H795 0.929 . S
C788 C787 1.383 . S
C788 C789 1.377 . S
C789 H773 0.930 . S
C789 C788 1.377 . S
C789 C790 1.379 . S
C790 H774 0.931 . S
C790 C784 1.383 . S
C790 C789 1.379 . S
H791 C785 0.959 . S
H792 C785 0.961 . S
H793 C785 0.960 . S
H794 C786 0.930 . S
H795 C787 0.929 . S
H796 C804 0.929 . S
H797 C806 0.930 . S
H798 C808 0.930 . S
H799 C811 0.929 . S
H800 C814 0.930 . S
H801 C816 0.960 . S
H802 C816 0.960 . S
H803 C816 0.960 . S
C804 H796 0.929 . S
C804 C805 1.377 . S
C804 C806 1.384 . S
C805 C804 1.377 . S
C805 C811 1.390 . S
C806 H797 0.930 . S
C806 C804 1.384 . S
C806 C807 1.372 . S
C807 C806 1.372 . S
C807 C808 1.400 . S
C807 C812 1.490 . S
C808 H798 0.930 . S
C808 C807 1.400 . S
C808 C811 1.386 . S
H809 C825 0.930 . S
H810 C826 0.931 . S
C811 H799 0.929 . S
C811 C805 1.390 . S
C811 C808 1.386 . S
C812 C807 1.490 . S
C812 C814 1.395 . S
C812 C815 1.403 . S
H813 C819 0.930 . S
C814 H800 0.930 . S
C814 C812 1.395 . S
C814 C817 1.403 . S
C815 C812 1.403 . S
C815 C816 1.524 . S
C815 C819 1.400 . S
C816 H801 0.960 . S
C816 H802 0.960 . S
C816 H803 0.960 . S
C816 C815 1.524 . S
C817 C814 1.403 . S
C817 C818 1.392 . S
C817 C821 1.495 1_655 S
C818 C817 1.392 . S
C818 C819 1.385 . S
C818 C820 1.478 . S
C819 H813 0.930 . S
C819 C815 1.400 . S
C819 C818 1.385 . S
C820 C818 1.478 . S
C820 C822 1.381 1_655 S
C820 C826 1.383 . S
C821 C817 1.495 1_455 S
C821 H827 0.959 . S
C821 H828 0.961 . S
C821 H829 0.960 . S
C822 C820 1.381 1_455 S
C822 C823 1.394 . S
C822 H830 0.930 . S
C823 C822 1.394 . S
C823 C824 1.383 . S
C823 H831 0.929 . S
C824 C823 1.383 . S
C824 C825 1.377 . S
C825 H809 0.930 . S
C825 C824 1.377 . S
C825 C826 1.379 1_455 S
C826 H810 0.931 . S
C826 C820 1.383 . S
C826 C825 1.379 1_655 S
H827 C821 0.959 . S
H828 C821 0.961 . S
H829 C821 0.960 . S
H830 C822 0.930 . S
H831 C823 0.929 . S
H832 C840 0.929 . S
H833 C842 0.930 . S
H834 C844 0.930 . S
H835 C847 0.929 . S
H836 C850 0.930 . S
H837 C852 0.960 . S
H838 C852 0.960 . S
H839 C852 0.960 . S
C840 H832 0.929 . S
C840 C841 1.377 . S
C840 C842 1.384 . S
C841 C840 1.377 . S
C841 C847 1.390 . S
C842 H833 0.930 . S
C842 C840 1.384 . S
C842 C843 1.372 . S
C843 C842 1.372 . S
C843 C844 1.400 . S
C843 C848 1.490 . S
C844 H834 0.930 . S
C844 C843 1.400 . S
C844 C847 1.386 . S
H845 C861 0.930 . S
H846 C862 0.931 . S
C847 H835 0.929 . S
C847 C841 1.390 . S
C847 C844 1.386 . S
C848 C843 1.490 . S
C848 C850 1.395 . S
C848 C851 1.403 . S
H849 C855 0.930 . S
C850 H836 0.930 . S
C850 C848 1.395 . S
C850 C853 1.403 . S
C851 C848 1.403 . S
C851 C852 1.524 . S
C851 C855 1.400 . S
C852 H837 0.960 . S
C852 H838 0.960 . S
C852 H839 0.960 . S
C852 C851 1.524 . S
C853 C850 1.403 . S
C853 C854 1.392 . S
C853 C857 1.495 . S
C854 C853 1.392 . S
C854 C855 1.385 . S
C854 C856 1.478 . S
C855 H849 0.930 . S
C855 C851 1.400 . S
C855 C854 1.385 . S
C856 C854 1.478 . S
C856 C858 1.381 . S
C856 C862 1.383 . S
C857 C853 1.495 . S
C857 H863 0.959 . S
C857 H864 0.961 . S
C857 H865 0.960 . S
C858 C856 1.381 . S
C858 C859 1.394 . S
C858 H866 0.930 . S
C859 C858 1.394 . S
C859 C860 1.383 . S
C859 H867 0.929 . S
C860 C859 1.383 . S
C860 C861 1.377 . S
C861 H845 0.930 . S
C861 C860 1.377 . S
C861 C862 1.379 . S
C862 H846 0.931 . S
C862 C856 1.383 . S
C862 C861 1.379 . S
H863 C857 0.959 . S
H864 C857 0.961 . S
H865 C857 0.960 . S
H866 C858 0.930 . S
H867 C859 0.929 . S
H868 C876 0.929 . S
H869 C878 0.930 . S
H870 C880 0.930 . S
H871 C883 0.929 . S
H872 C886 0.930 . S
H873 C888 0.960 . S
H874 C888 0.960 . S
H875 C888 0.960 . S
C876 H868 0.929 . S
C876 C877 1.377 . S
C876 C878 1.384 . S
C877 C876 1.377 . S
C877 C883 1.390 . S
C878 H869 0.930 . S
C878 C876 1.384 . S
C878 C879 1.372 . S
C879 C878 1.372 . S
C879 C880 1.400 . S
C879 C884 1.490 . S
C880 H870 0.930 . S
C880 C879 1.400 . S
C880 C883 1.386 . S
H881 C897 0.930 . S
H882 C898 0.931 . S
C883 H871 0.929 . S
C883 C877 1.390 . S
C883 C880 1.386 . S
C884 C879 1.490 . S
C884 C886 1.395 . S
C884 C887 1.403 . S
H885 C891 0.930 . S
C886 H872 0.930 . S
C886 C884 1.395 . S
C886 C889 1.403 . S
C887 C884 1.403 . S
C887 C888 1.524 . S
C887 C891 1.400 . S
C888 H873 0.960 . S
C888 H874 0.960 . S
C888 H875 0.960 . S
C888 C887 1.524 . S
C889 C886 1.403 . S
C889 C890 1.392 . S
C889 C893 1.495 . S
C890 C889 1.392 . S
C890 C891 1.385 . S
C890 C892 1.478 . S
C891 H885 0.930 . S
C891 C887 1.400 . S
C891 C890 1.385 . S
C892 C890 1.478 . S
C892 C894 1.381 . S
C892 C898 1.383 . S
C893 C889 1.495 . S
C893 H899 0.959 . S
C893 H900 0.961 . S
C893 H901 0.960 . S
C894 C892 1.381 . S
C894 C895 1.394 . S
C894 H902 0.930 . S
C895 C894 1.394 . S
C895 C896 1.383 . S
C895 H903 0.929 . S
C896 C895 1.383 . S
C896 C897 1.377 . S
C897 H881 0.930 . S
C897 C896 1.377 . S
C897 C898 1.379 . S
C898 H882 0.931 . S
C898 C892 1.383 . S
C898 C897 1.379 . S
H899 C893 0.959 . S
H900 C893 0.961 . S
H901 C893 0.960 . S
H902 C894 0.930 . S
H903 C895 0.929 . S
H904 C912 0.929 . S
H905 C914 0.930 . S
H906 C916 0.930 . S
H907 C919 0.929 . S
H908 C922 0.930 . S
H909 C924 0.960 . S
H910 C924 0.960 . S
H911 C924 0.960 . S
C912 H904 0.929 . S
C912 C913 1.377 . S
C912 C914 1.384 . S
C913 C912 1.377 . S
C913 C919 1.390 . S
C914 H905 0.930 . S
C914 C912 1.384 . S
C914 C915 1.372 . S
C915 C914 1.372 . S
C915 C916 1.400 . S
C915 C920 1.490 . S
C916 H906 0.930 . S
C916 C915 1.400 . S
C916 C919 1.386 . S
H917 C933 0.930 . S
H918 C934 0.931 . S
C919 H907 0.929 . S
C919 C913 1.390 . S
C919 C916 1.386 . S
C920 C915 1.490 . S
C920 C922 1.395 . S
C920 C923 1.403 . S
H921 C927 0.930 . S
C922 H908 0.930 . S
C922 C920 1.395 . S
C922 C925 1.403 . S
C923 C920 1.403 . S
C923 C924 1.524 . S
C923 C927 1.400 . S
C924 H909 0.960 . S
C924 H910 0.960 . S
C924 H911 0.960 . S
C924 C923 1.524 . S
C925 C922 1.403 . S
C925 C926 1.392 . S
C925 C929 1.495 . S
C926 C925 1.392 . S
C926 C927 1.385 . S
C926 C928 1.478 . S
C927 H921 0.930 . S
C927 C923 1.400 . S
C927 C926 1.385 . S
C928 C926 1.478 . S
C928 C930 1.381 . S
C928 C934 1.383 . S
C929 C925 1.495 . S
C929 H935 0.959 . S
C929 H936 0.961 . S
C929 H937 0.960 . S
C930 C928 1.381 . S
C930 C931 1.394 . S
C930 H938 0.930 . S
C931 C930 1.394 . S
C931 C932 1.383 . S
C931 H939 0.929 . S
C932 C931 1.383 . S
C932 C933 1.377 . S
C933 H917 0.930 . S
C933 C932 1.377 . S
C933 C934 1.379 . S
C934 H918 0.931 . S
C934 C928 1.383 . S
C934 C933 1.379 . S
H935 C929 0.959 . S
H936 C929 0.961 . S
H937 C929 0.960 . S
H938 C930 0.930 . S
H939 C931 0.929 . S
H940 C948 0.929 . S
H941 C950 0.930 . S
H942 C952 0.930 . S
H943 C955 0.929 . S
H944 C958 0.930 . S
H945 C960 0.960 . S
H946 C960 0.960 . S
H947 C960 0.960 . S
C948 H940 0.929 . S
C948 C949 1.377 . S
C948 C950 1.384 . S
C949 C948 1.377 . S
C949 C955 1.390 . S
C950 H941 0.930 . S
C950 C948 1.384 . S
C950 C951 1.372 . S
C951 C950 1.372 . S
C951 C952 1.400 . S
C951 C956 1.490 . S
C952 H942 0.930 . S
C952 C951 1.400 . S
C952 C955 1.386 . S
H953 C969 0.930 . S
H954 C970 0.931 . S
C955 H943 0.929 . S
C955 C949 1.390 . S
C955 C952 1.386 . S
C956 C951 1.490 . S
C956 C958 1.395 . S
C956 C959 1.403 . S
H957 C963 0.930 . S
C958 H944 0.930 . S
C958 C956 1.395 . S
C958 C961 1.403 . S
C959 C956 1.403 . S
C959 C960 1.524 . S
C959 C963 1.400 . S
C960 H945 0.960 . S
C960 H946 0.960 . S
C960 H947 0.960 . S
C960 C959 1.524 . S
C961 C958 1.403 . S
C961 C962 1.392 . S
C961 C965 1.495 . S
C962 C961 1.392 . S
C962 C963 1.385 . S
C962 C964 1.478 . S
C963 H957 0.930 . S
C963 C959 1.400 . S
C963 C962 1.385 . S
C964 C962 1.478 . S
C964 C966 1.381 . S
C964 C970 1.383 . S
C965 C961 1.495 . S
C965 H971 0.959 . S
C965 H972 0.961 . S
C965 H973 0.960 . S
C966 C964 1.381 . S
C966 C967 1.394 . S
C966 H974 0.930 . S
C967 C966 1.394 . S
C967 C968 1.383 . S
C967 H975 0.929 . S
C968 C967 1.383 . S
C968 C969 1.377 . S
C969 H953 0.930 . S
C969 C968 1.377 . S
C969 C970 1.379 . S
C970 H954 0.931 . S
C970 C964 1.383 . S
C970 C969 1.379 . S
H971 C965 0.959 . S
H972 C965 0.961 . S
H973 C965 0.960 . S
H974 C966 0.930 . S
H975 C967 0.929 . S
H976 C984 0.929 . S
H977 C986 0.930 . S
H978 C988 0.930 . S
H979 C991 0.929 . S
H980 C994 0.930 . S
H981 C996 0.960 . S
H982 C996 0.960 . S
H983 C996 0.960 . S
C984 H976 0.929 . S
C984 C985 1.377 . S
C984 C986 1.384 . S
C985 C984 1.377 . S
C985 C991 1.390 . S
C986 H977 0.930 . S
C986 C984 1.384 . S
C986 C987 1.372 . S
C987 C986 1.372 . S
C987 C988 1.400 . S
C987 C992 1.490 . S
C988 H978 0.930 . S
C988 C987 1.400 . S
C988 C991 1.386 . S
H989 C1005 0.930 . S
H990 C1006 0.931 . S
C991 H979 0.929 . S
C991 C985 1.390 . S
C991 C988 1.386 . S
C992 C987 1.490 . S
C992 C994 1.395 . S
C992 C995 1.403 . S
H993 C999 0.930 . S
C994 H980 0.930 . S
C994 C992 1.395 . S
C994 C997 1.403 . S
C995 C992 1.403 . S
C995 C996 1.524 . S
C995 C999 1.400 . S
C996 H981 0.960 . S
C996 H982 0.960 . S
C996 H983 0.960 . S
C996 C995 1.524 . S
C997 C994 1.403 . S
C997 C998 1.392 . S
C997 C1001 1.495 . S
C998 C997 1.392 . S
C998 C999 1.385 . S
C998 C1000 1.478 . S
C999 H993 0.930 . S
C999 C995 1.400 . S
C999 C998 1.385 . S
C1000 C998 1.478 . S
C1000 C1002 1.381 . S
C1000 C1006 1.383 . S
C1001 C997 1.495 . S
C1001 H1007 0.959 . S
C1001 H1008 0.961 . S
C1001 H1009 0.960 . S
C1002 C1000 1.381 . S
C1002 C1003 1.394 . S
C1002 H1010 0.930 . S
C1003 C1002 1.394 . S
C1003 C1004 1.383 . S
C1003 H1011 0.929 . S
C1004 C1003 1.383 . S
C1004 C1005 1.377 . S
C1005 H989 0.930 . S
C1005 C1004 1.377 . S
C1005 C1006 1.379 . S
C1006 H990 0.931 . S
C1006 C1000 1.383 . S
C1006 C1005 1.379 . S
H1007 C1001 0.959 . S
H1008 C1001 0.961 . S
H1009 C1001 0.960 . S
H1010 C1002 0.930 . S
H1011 C1003 0.929 . S
H1012 C1020 0.929 . S
H1013 C1022 0.930 . S
H1014 C1024 0.930 . S
H1015 C1027 0.929 . S
H1016 C1030 0.930 . S
H1017 C1032 0.960 . S
H1018 C1032 0.960 . S
H1019 C1032 0.960 . S
C1020 H1012 0.929 . S
C1020 C1021 1.377 . S
C1020 C1022 1.384 . S
C1021 C1020 1.377 . S
C1021 C1027 1.390 . S
C1022 H1013 0.930 . S
C1022 C1020 1.384 . S
C1022 C1023 1.372 . S
C1023 C1022 1.372 . S
C1023 C1024 1.400 . S
C1023 C1028 1.490 . S
C1024 H1014 0.930 . S
C1024 C1023 1.400 . S
C1024 C1027 1.386 . S
H1025 C1041 0.930 . S
H1026 C1042 0.931 . S
C1027 H1015 0.929 . S
C1027 C1021 1.390 . S
C1027 C1024 1.386 . S
C1028 C1023 1.490 . S
C1028 C1030 1.395 . S
C1028 C1031 1.403 . S
H1029 C1035 0.930 . S
C1030 H1016 0.930 . S
C1030 C1028 1.395 . S
C1030 C1033 1.403 . S
C1031 C1028 1.403 . S
C1031 C1032 1.524 . S
C1031 C1035 1.400 . S
C1032 H1017 0.960 . S
C1032 H1018 0.960 . S
C1032 H1019 0.960 . S
C1032 C1031 1.524 . S
C1033 C1030 1.403 . S
C1033 C1034 1.392 . S
C1033 C1037 1.495 . S
C1034 C1033 1.392 . S
C1034 C1035 1.385 . S
C1034 C1036 1.478 . S
C1035 H1029 0.930 . S
C1035 C1031 1.400 . S
C1035 C1034 1.385 . S
C1036 C1034 1.478 . S
C1036 C1038 1.381 . S
C1036 C1042 1.383 . S
C1037 C1033 1.495 . S
C1037 H1043 0.959 . S
C1037 H1044 0.961 . S
C1037 H1045 0.960 . S
C1038 C1036 1.381 . S
C1038 C1039 1.394 . S
C1038 H1046 0.930 . S
C1039 C1038 1.394 . S
C1039 C1040 1.383 . S
C1039 H1047 0.929 . S
C1040 C1039 1.383 . S
C1040 C1041 1.377 . S
C1041 H1025 0.930 . S
C1041 C1040 1.377 . S
C1041 C1042 1.379 . S
C1042 H1026 0.931 . S
C1042 C1036 1.383 . S
C1042 C1041 1.379 . S
H1043 C1037 0.959 . S
H1044 C1037 0.961 . S
H1045 C1037 0.960 . S
H1046 C1038 0.930 . S
H1047 C1039 0.929 . S
H1048 C1056 0.929 . S
H1049 C1058 0.930 . S
H1050 C1060 0.930 . S
H1051 C1063 0.929 . S
H1052 C1066 0.930 . S
H1053 C1068 0.960 . S
H1054 C1068 0.960 . S
H1055 C1068 0.960 . S
C1056 H1048 0.929 . S
C1056 C1057 1.377 . S
C1056 C1058 1.384 . S
C1057 C1056 1.377 . S
C1057 C1063 1.390 . S
C1058 H1049 0.930 . S
C1058 C1056 1.384 . S
C1058 C1059 1.372 . S
C1059 C1058 1.372 . S
C1059 C1060 1.400 . S
C1059 C1064 1.490 . S
C1060 H1050 0.930 . S
C1060 C1059 1.400 . S
C1060 C1063 1.386 . S
H1061 C1077 0.930 . S
H1062 C1078 0.931 . S
C1063 H1051 0.929 . S
C1063 C1057 1.390 . S
C1063 C1060 1.386 . S
C1064 C1059 1.490 . S
C1064 C1066 1.395 . S
C1064 C1067 1.403 . S
H1065 C1071 0.930 . S
C1066 H1052 0.930 . S
C1066 C1064 1.395 . S
C1066 C1069 1.403 . S
C1067 C1064 1.403 . S
C1067 C1068 1.524 . S
C1067 C1071 1.400 . S
C1068 H1053 0.960 . S
C1068 H1054 0.960 . S
C1068 H1055 0.960 . S
C1068 C1067 1.524 . S
C1069 C1066 1.403 . S
C1069 C1070 1.392 . S
C1069 C1073 1.495 . S
C1070 C1069 1.392 . S
C1070 C1071 1.385 . S
C1070 C1072 1.478 . S
C1071 H1065 0.930 . S
C1071 C1067 1.400 . S
C1071 C1070 1.385 . S
C1072 C1070 1.478 . S
C1072 C1074 1.381 . S
C1072 C1078 1.383 . S
C1073 C1069 1.495 . S
C1073 H1079 0.959 . S
C1073 H1080 0.961 . S
C1073 H1081 0.960 . S
C1074 C1072 1.381 . S
C1074 C1075 1.394 . S
C1074 H1082 0.930 . S
C1075 C1074 1.394 . S
C1075 C1076 1.383 . S
C1075 H1083 0.929 . S
C1076 C1075 1.383 . S
C1076 C1077 1.377 . S
C1077 H1061 0.930 . S
C1077 C1076 1.377 . S
C1077 C1078 1.379 . S
C1078 H1062 0.931 . S
C1078 C1072 1.383 . S
C1078 C1077 1.379 . S
H1079 C1073 0.959 . S
H1080 C1073 0.961 . S
H1081 C1073 0.960 . S
H1082 C1074 0.930 . S
H1083 C1075 0.929 . S
H1084 C1092 0.929 . S
H1085 C1094 0.930 . S
H1086 C1096 0.930 . S
H1087 C1099 0.929 . S
H1088 C1102 0.930 . S
H1089 C1104 0.960 . S
H1090 C1104 0.960 . S
H1091 C1104 0.960 . S
C1092 H1084 0.929 . S
C1092 C1093 1.377 . S
C1092 C1094 1.384 . S
C1093 C1092 1.377 . S
C1093 C1099 1.390 . S
C1094 H1085 0.930 . S
C1094 C1092 1.384 . S
C1094 C1095 1.372 . S
C1095 C1094 1.372 . S
C1095 C1096 1.400 . S
C1095 C1100 1.490 . S
C1096 H1086 0.930 . S
C1096 C1095 1.400 . S
C1096 C1099 1.386 . S
H1097 C1113 0.930 . S
H1098 C1114 0.931 . S
C1099 H1087 0.929 . S
C1099 C1093 1.390 . S
C1099 C1096 1.386 . S
C1100 C1095 1.490 . S
C1100 C1102 1.395 . S
C1100 C1103 1.403 . S
H1101 C1107 0.930 . S
C1102 H1088 0.930 . S
C1102 C1100 1.395 . S
C1102 C1105 1.403 . S
C1103 C1100 1.403 . S
C1103 C1104 1.524 . S
C1103 C1107 1.400 . S
C1104 H1089 0.960 . S
C1104 H1090 0.960 . S
C1104 H1091 0.960 . S
C1104 C1103 1.524 . S
C1105 C1102 1.403 . S
C1105 C1106 1.392 . S
C1105 C1109 1.495 . S
C1106 C1105 1.392 . S
C1106 C1107 1.385 . S
C1106 C1108 1.478 . S
C1107 H1101 0.930 . S
C1107 C1103 1.400 . S
C1107 C1106 1.385 . S
C1108 C1106 1.478 . S
C1108 C1110 1.381 . S
C1108 C1114 1.383 . S
C1109 C1105 1.495 . S
C1109 H1115 0.959 . S
C1109 H1116 0.961 . S
C1109 H1117 0.960 . S
C1110 C1108 1.381 . S
C1110 C1111 1.394 . S
C1110 H1118 0.930 . S
C1111 C1110 1.394 . S
C1111 C1112 1.383 . S
C1111 H1119 0.929 . S
C1112 C1111 1.383 . S
C1112 C1113 1.377 . S
C1113 H1097 0.930 . S
C1113 C1112 1.377 . S
C1113 C1114 1.379 . S
C1114 H1098 0.931 . S
C1114 C1108 1.383 . S
C1114 C1113 1.379 . S
H1115 C1109 0.959 . S
H1116 C1109 0.961 . S
H1117 C1109 0.960 . S
H1118 C1110 0.930 . S
H1119 C1111 0.929 . S
H1120 C1128 0.929 . S
H1121 C1130 0.930 . S
H1122 C1132 0.930 1_455 S
H1123 C1135 0.929 . S
H1124 C1138 0.930 . S
H1125 C1140 0.960 . S
H1126 C1140 0.960 1_655 S
H1127 C1140 0.960 . S
C1128 H1120 0.929 . S
C1128 C1129 1.377 . S
C1128 C1130 1.384 . S
C1129 C1128 1.377 . S
C1129 C1135 1.390 . S
C1130 H1121 0.930 . S
C1130 C1128 1.384 . S
C1130 C1131 1.372 . S
C1131 C1130 1.372 . S
C1131 C1132 1.400 . S
C1131 C1136 1.490 . S
C1132 H1122 0.930 1_655 S
C1132 C1131 1.400 . S
C1132 C1135 1.386 . S
H1133 C1149 0.930 . S
H1134 C1150 0.931 . S
C1135 H1123 0.929 . S
C1135 C1129 1.390 . S
C1135 C1132 1.386 . S
C1136 C1131 1.490 . S
C1136 C1138 1.395 . S
C1136 C1139 1.403 . S
H1137 C1143 0.930 . S
C1138 H1124 0.930 . S
C1138 C1136 1.395 . S
C1138 C1141 1.403 . S
C1139 C1136 1.403 . S
C1139 C1140 1.524 1_655 S
C1139 C1143 1.400 1_655 S
C1140 H1125 0.960 . S
C1140 H1126 0.960 1_455 S
C1140 H1127 0.960 . S
C1140 C1139 1.524 1_455 S
C1141 C1138 1.403 . S
C1141 C1142 1.392 . S
C1141 C1145 1.495 . S
C1142 C1141 1.392 . S
C1142 C1143 1.385 1_655 S
C1142 C1144 1.478 1_655 S
C1143 H1137 0.930 . S
C1143 C1139 1.400 1_455 S
C1143 C1142 1.385 1_455 S
C1144 C1142 1.478 1_455 S
C1144 C1146 1.381 1_455 S
C1144 C1150 1.383 . S
C1145 C1141 1.495 . S
C1145 H1151 0.959 . S
C1145 H1152 0.961 . S
C1145 H1153 0.960 . S
C1146 C1144 1.381 1_655 S
C1146 C1147 1.394 . S
C1146 H1154 0.930 . S
C1147 C1146 1.394 . S
C1147 C1148 1.383 1_655 S
C1147 H1155 0.929 . S
C1148 C1147 1.383 1_455 S
C1148 C1149 1.377 . S
C1149 H1133 0.930 . S
C1149 C1148 1.377 . S
C1149 C1150 1.379 . S
C1150 H1134 0.931 . S
C1150 C1144 1.383 . S
C1150 C1149 1.379 . S
H1151 C1145 0.959 . S
H1152 C1145 0.961 . S
H1153 C1145 0.960 . S
H1154 C1146 0.930 . S
H1155 C1147 0.929 . S
H1156 C1164 0.929 . S
H1157 C1166 0.930 . S
H1158 C1168 0.930 1_655 S
H1159 C1171 0.929 . S
H1160 C1174 0.930 . S
H1161 C1176 0.960 . S
H1162 C1176 0.960 . S
H1163 C1176 0.960 . S
C1164 H1156 0.929 . S
C1164 C1165 1.377 . S
C1164 C1166 1.384 . S
C1165 C1164 1.377 . S
C1165 C1171 1.390 . S
C1166 H1157 0.930 . S
C1166 C1164 1.384 . S
C1166 C1167 1.372 . S
C1167 C1166 1.372 . S
C1167 C1168 1.400 . S
C1167 C1172 1.490 . S
C1168 H1158 0.930 1_455 S
C1168 C1167 1.400 . S
C1168 C1171 1.386 . S
H1169 C1185 0.930 . S
H1170 C1186 0.931 . S
C1171 H1159 0.929 . S
C1171 C1165 1.390 . S
C1171 C1168 1.386 . S
C1172 C1167 1.490 . S
C1172 C1174 1.395 . S
C1172 C1175 1.403 1_455 S
H1173 C1179 0.930 . S
C1174 H1160 0.930 . S
C1174 C1172 1.395 . S
C1174 C1177 1.403 . S
C1175 C1172 1.403 1_655 S
C1175 C1176 1.524 . S
C1175 C1179 1.400 . S
C1176 H1161 0.960 . S
C1176 H1162 0.960 . S
C1176 H1163 0.960 . S
C1176 C1175 1.524 . S
C1177 C1174 1.403 . S
C1177 C1178 1.392 . S
C1177 C1181 1.495 . S
C1178 C1177 1.392 . S
C1178 C1179 1.385 1_455 S
C1178 C1180 1.478 1_455 S
C1179 H1173 0.930 . S
C1179 C1175 1.400 . S
C1179 C1178 1.385 1_655 S
C1180 C1178 1.478 1_655 S
C1180 C1182 1.381 1_655 S
C1180 C1186 1.383 . S
C1181 C1177 1.495 . S
C1181 H1187 0.959 . S
C1181 H1188 0.961 . S
C1181 H1189 0.960 . S
C1182 C1180 1.381 1_455 S
C1182 C1183 1.394 . S
C1182 H1190 0.930 . S
C1183 C1182 1.394 . S
C1183 C1184 1.383 1_455 S
C1183 H1191 0.929 . S
C1184 C1183 1.383 1_655 S
C1184 C1185 1.377 . S
C1185 H1169 0.930 . S
C1185 C1184 1.377 . S
C1185 C1186 1.379 . S
C1186 H1170 0.931 . S
C1186 C1180 1.383 . S
C1186 C1185 1.379 . S
H1187 C1181 0.959 . S
H1188 C1181 0.961 . S
H1189 C1181 0.960 . S
H1190 C1182 0.930 . S
H1191 C1183 0.929 . S
H1192 C1200 0.929 . S
H1193 C1202 0.930 . S
H1194 C1204 0.930 . S
H1195 C1207 0.929 . S
H1196 C1210 0.930 . S
H1197 C1212 0.960 . S
H1198 C1212 0.960 . S
H1199 C1212 0.960 . S
C1200 H1192 0.929 . S
C1200 C1201 1.377 . S
C1200 C1202 1.384 . S
C1201 C1200 1.377 . S
C1201 C1207 1.390 . S
C1202 H1193 0.930 . S
C1202 C1200 1.384 . S
C1202 C1203 1.372 . S
C1203 C1202 1.372 . S
C1203 C1204 1.400 . S
C1203 C1208 1.490 . S
C1204 H1194 0.930 . S
C1204 C1203 1.400 . S
C1204 C1207 1.386 . S
H1205 C1221 0.930 . S
H1206 C1222 0.931 . S
C1207 H1195 0.929 . S
C1207 C1201 1.390 . S
C1207 C1204 1.386 . S
C1208 C1203 1.490 . S
C1208 C1210 1.395 . S
C1208 C1211 1.403 . S
H1209 C1215 0.930 . S
C1210 H1196 0.930 . S
C1210 C1208 1.395 . S
C1210 C1213 1.403 . S
C1211 C1208 1.403 . S
C1211 C1212 1.524 . S
C1211 C1215 1.400 . S
C1212 H1197 0.960 . S
C1212 H1198 0.960 . S
C1212 H1199 0.960 . S
C1212 C1211 1.524 . S
C1213 C1210 1.403 . S
C1213 C1214 1.392 . S
C1213 C1217 1.495 . S
C1214 C1213 1.392 . S
C1214 C1215 1.385 . S
C1214 C1216 1.478 . S
C1215 H1209 0.930 . S
C1215 C1211 1.400 . S
C1215 C1214 1.385 . S
C1216 C1214 1.478 . S
C1216 C1218 1.381 . S
C1216 C1222 1.383 . S
C1217 C1213 1.495 . S
C1217 H1223 0.959 . S
C1217 H1224 0.961 . S
C1217 H1225 0.960 . S
C1218 C1216 1.381 . S
C1218 C1219 1.394 . S
C1218 H1226 0.930 . S
C1219 C1218 1.394 . S
C1219 C1220 1.383 . S
C1219 H1227 0.929 . S
C1220 C1219 1.383 . S
C1220 C1221 1.377 . S
C1221 H1205 0.930 . S
C1221 C1220 1.377 . S
C1221 C1222 1.379 . S
C1222 H1206 0.931 . S
C1222 C1216 1.383 . S
C1222 C1221 1.379 . S
H1223 C1217 0.959 . S
H1224 C1217 0.961 . S
H1225 C1217 0.960 . S
H1226 C1218 0.930 . S
H1227 C1219 0.929 . S
H1228 C1236 0.929 . S
H1229 C1238 0.930 . S
H1230 C1240 0.930 . S
H1231 C1243 0.929 . S
H1232 C1246 0.930 . S
H1233 C1248 0.960 . S
H1234 C1248 0.960 . S
H1235 C1248 0.960 . S
C1236 H1228 0.929 . S
C1236 C1237 1.377 . S
C1236 C1238 1.384 . S
C1237 C1236 1.377 . S
C1237 C1243 1.390 . S
C1238 H1229 0.930 . S
C1238 C1236 1.384 . S
C1238 C1239 1.372 . S
C1239 C1238 1.372 . S
C1239 C1240 1.400 . S
C1239 C1244 1.490 . S
C1240 H1230 0.930 . S
C1240 C1239 1.400 . S
C1240 C1243 1.386 . S
H1241 C1257 0.930 . S
H1242 C1258 0.931 . S
C1243 H1231 0.929 . S
C1243 C1237 1.390 . S
C1243 C1240 1.386 . S
C1244 C1239 1.490 . S
C1244 C1246 1.395 . S
C1244 C1247 1.403 . S
H1245 C1251 0.930 . S
C1246 H1232 0.930 . S
C1246 C1244 1.395 . S
C1246 C1249 1.403 . S
C1247 C1244 1.403 . S
C1247 C1248 1.524 . S
C1247 C1251 1.400 . S
C1248 H1233 0.960 . S
C1248 H1234 0.960 . S
C1248 H1235 0.960 . S
C1248 C1247 1.524 . S
C1249 C1246 1.403 . S
C1249 C1250 1.392 . S
C1249 C1253 1.495 . S
C1250 C1249 1.392 . S
C1250 C1251 1.385 . S
C1250 C1252 1.478 . S
C1251 H1245 0.930 . S
C1251 C1247 1.400 . S
C1251 C1250 1.385 . S
C1252 C1250 1.478 . S
C1252 C1254 1.381 . S
C1252 C1258 1.383 . S
C1253 C1249 1.495 . S
C1253 H1259 0.959 . S
C1253 H1260 0.961 . S
C1253 H1261 0.960 . S
C1254 C1252 1.381 . S
C1254 C1255 1.394 . S
C1254 H1262 0.930 . S
C1255 C1254 1.394 . S
C1255 C1256 1.383 . S
C1255 H1263 0.929 . S
C1256 C1255 1.383 . S
C1256 C1257 1.377 . S
C1257 H1241 0.930 . S
C1257 C1256 1.377 . S
C1257 C1258 1.379 . S
C1258 H1242 0.931 . S
C1258 C1252 1.383 . S
C1258 C1257 1.379 . S
H1259 C1253 0.959 . S
H1260 C1253 0.961 . S
H1261 C1253 0.960 . S
H1262 C1254 0.930 . S
H1263 C1255 0.929 . S
H1264 C1272 0.929 . S
H1265 C1274 0.930 . S
H1266 C1276 0.930 1_455 S
H1267 C1279 0.929 . S
H1268 C1282 0.930 . S
H1269 C1284 0.960 . S
H1270 C1284 0.960 . S
H1271 C1284 0.960 . S
C1272 H1264 0.929 . S
C1272 C1273 1.377 . S
C1272 C1274 1.384 . S
C1273 C1272 1.377 . S
C1273 C1279 1.390 . S
C1274 H1265 0.930 . S
C1274 C1272 1.384 . S
C1274 C1275 1.372 . S
C1275 C1274 1.372 . S
C1275 C1276 1.400 . S
C1275 C1280 1.490 . S
C1276 H1266 0.930 1_655 S
C1276 C1275 1.400 . S
C1276 C1279 1.386 . S
H1277 C1293 0.930 . S
H1278 C1294 0.931 . S
C1279 H1267 0.929 . S
C1279 C1273 1.390 . S
C1279 C1276 1.386 . S
C1280 C1275 1.490 . S
C1280 C1282 1.395 . S
C1280 C1283 1.403 1_655 S
H1281 C1287 0.930 . S
C1282 H1268 0.930 . S
C1282 C1280 1.395 . S
C1282 C1285 1.403 . S
C1283 C1280 1.403 1_455 S
C1283 C1284 1.524 . S
C1283 C1287 1.400 . S
C1284 H1269 0.960 . S
C1284 H1270 0.960 . S
C1284 H1271 0.960 . S
C1284 C1283 1.524 . S
C1285 C1282 1.403 . S
C1285 C1286 1.392 . S
C1285 C1289 1.495 . S
C1286 C1285 1.392 . S
C1286 C1287 1.385 1_655 S
C1286 C1288 1.478 1_655 S
C1287 H1281 0.930 . S
C1287 C1283 1.400 . S
C1287 C1286 1.385 1_455 S
C1288 C1286 1.478 1_455 S
C1288 C1290 1.381 1_455 S
C1288 C1294 1.383 . S
C1289 C1285 1.495 . S
C1289 H1295 0.959 . S
C1289 H1296 0.961 . S
C1289 H1297 0.960 . S
C1290 C1288 1.381 1_655 S
C1290 C1291 1.407 . S
C1290 H1298 0.930 . S
C1291 C1290 1.407 . S
C1291 C1292 1.354 1_655 S
C1291 H1299 0.947 . S
C1292 C1291 1.354 1_455 S
C1292 C1293 1.377 . S
C1293 H1277 0.930 . S
C1293 C1292 1.377 . S
C1293 C1294 1.379 . S
C1294 H1278 0.931 . S
C1294 C1288 1.383 . S
C1294 C1293 1.379 . S
H1295 C1289 0.959 . S
H1296 C1289 0.961 . S
H1297 C1289 0.960 . S
H1298 C1290 0.930 . S
H1299 C1291 0.947 . S
H1300 C1308 0.929 . S
H1301 C1310 0.930 . S
H1302 C1312 0.930 1_655 S
H1303 C1315 0.929 . S
H1304 C1318 0.930 . S
H1305 C1320 0.960 . S
H1306 C1320 0.960 . S
H1307 C1320 0.960 . S
C1308 H1300 0.929 . S
C1308 C1309 1.377 . S
C1308 C1310 1.384 . S
C1309 C1308 1.377 . S
C1309 C1315 1.390 . S
C1310 H1301 0.930 . S
C1310 C1308 1.384 . S
C1310 C1311 1.372 . S
C1311 C1310 1.372 . S
C1311 C1312 1.400 . S
C1311 C1316 1.490 . S
C1312 H1302 0.930 1_455 S
C1312 C1311 1.400 . S
C1312 C1315 1.386 . S
H1313 C1329 0.930 . S
H1314 C1330 0.931 . S
C1315 H1303 0.929 . S
C1315 C1309 1.390 . S
C1315 C1312 1.386 . S
C1316 C1311 1.490 . S
C1316 C1318 1.395 . S
C1316 C1319 1.403 1_455 S
H1317 C1323 0.930 . S
C1318 H1304 0.930 . S
C1318 C1316 1.395 . S
C1318 C1321 1.403 . S
C1319 C1316 1.403 1_655 S
C1319 C1320 1.524 . S
C1319 C1323 1.400 . S
C1320 H1305 0.960 . S
C1320 H1306 0.960 . S
C1320 H1307 0.960 . S
C1320 C1319 1.524 . S
C1321 C1318 1.403 . S
C1321 C1322 1.392 . S
C1321 C1325 1.495 . S
C1322 C1321 1.392 . S
C1322 C1323 1.385 1_455 S
C1322 C1324 1.478 1_455 S
C1323 H1317 0.930 . S
C1323 C1319 1.400 . S
C1323 C1322 1.385 1_655 S
C1324 C1322 1.478 1_655 S
C1324 C1326 1.381 1_655 S
C1324 C1330 1.383 . S
C1325 C1321 1.495 . S
C1325 H1331 0.959 . S
C1325 H1332 0.961 . S
C1325 H1333 0.960 . S
C1326 C1324 1.381 1_455 S
C1326 C1327 1.391 1_455 S
C1326 H1334 0.930 . S
C1327 C1326 1.391 1_655 S
C1327 C1328 1.392 . S
C1327 H1335 0.925 1_655 S
C1328 C1327 1.392 . S
C1328 C1329 1.377 . S
C1329 H1313 0.930 . S
C1329 C1328 1.377 . S
C1329 C1330 1.379 . S
C1330 H1314 0.931 . S
C1330 C1324 1.383 . S
C1330 C1329 1.379 . S
H1331 C1325 0.959 . S
H1332 C1325 0.961 . S
H1333 C1325 0.960 . S
H1334 C1326 0.930 . S
H1335 C1327 0.925 1_455 S
H1336 C1344 0.929 . S
H1337 C1346 0.930 . S
H1338 C1348 0.930 . S
H1339 C1351 0.929 . S
H1340 C1354 0.930 1_556 S
H1341 C1356 0.960 . S
H1342 C1356 0.960 . S
H1343 C1356 0.960 . S
C1344 H1336 0.929 . S
C1344 C1345 1.377 . S
C1344 C1346 1.384 . S
C1345 C1344 1.377 . S
C1345 C1351 1.390 . S
C1346 H1337 0.930 . S
C1346 C1344 1.384 . S
C1346 C1347 1.372 . S
C1347 C1346 1.372 . S
C1347 C1348 1.400 . S
C1347 C1352 1.490 1_545 S
C1348 H1338 0.930 . S
C1348 C1347 1.400 . S
C1348 C1351 1.386 . S
H1349 C1365 0.930 . S
H1350 C1366 0.931 . S
C1351 H1339 0.929 . S
C1351 C1345 1.390 . S
C1351 C1348 1.386 . S
C1352 C1347 1.490 1_565 S
C1352 C1354 1.395 1_566 S
C1352 C1355 1.403 . S
H1353 C1359 0.930 . S
C1354 H1340 0.930 1_554 S
C1354 C1352 1.395 1_544 S
C1354 C1357 1.403 1_545 S
C1355 C1352 1.403 . S
C1355 C1356 1.524 . S
C1355 C1359 1.400 1_556 S
C1356 H1341 0.960 . S
C1356 H1342 0.960 . S
C1356 H1343 0.960 . S
C1356 C1355 1.524 . S
C1357 C1354 1.403 1_565 S
C1357 C1358 1.392 . S
C1357 C1361 1.495 1_565 S
C1358 C1357 1.392 . S
C1358 C1359 1.385 . S
C1358 C1360 1.478 . S
C1359 H1353 0.930 . S
C1359 C1355 1.400 1_554 S
C1359 C1358 1.385 . S
C1360 C1358 1.478 . S
C1360 C1362 1.381 . S
C1360 C1366 1.383 . S
C1361 C1357 1.495 1_545 S
C1361 H1367 0.959 . S
C1361 H1368 0.961 . S
C1361 H1369 0.982 . S
C1362 C1360 1.381 . S
C1362 C1363 1.394 . S
C1362 H1370 0.930 . S
C1363 C1362 1.394 . S
C1363 C1364 1.383 . S
C1363 H1371 0.929 . S
C1364 C1363 1.383 . S
C1364 C1365 1.377 . S
C1365 H1349 0.930 . S
C1365 C1364 1.377 . S
C1365 C1366 1.379 . S
C1366 H1350 0.931 . S
C1366 C1360 1.383 . S
C1366 C1365 1.379 . S
H1367 C1361 0.959 . S
H1368 C1361 0.961 . S
H1369 C1361 0.982 . S
H1370 C1362 0.930 . S
H1371 C1363 0.929 . S
H1372 C1380 0.929 . S
H1373 C1382 0.930 . S
H1374 C1384 0.926 . S
H1375 C1387 0.929 . S
H1376 C1390 0.927 1_556 S
H1377 C1392 0.960 . S
H1378 C1392 0.960 . S
H1379 C1392 0.960 . S
C1380 H1372 0.929 . S
C1380 C1381 1.377 . S
C1380 C1382 1.384 . S
C1381 C1380 1.377 . S
C1381 C1387 1.390 . S
C1382 H1373 0.930 . S
C1382 C1380 1.384 . S
C1382 C1383 1.372 . S
C1383 C1382 1.372 . S
C1383 C1384 1.401 1_565 S
C1383 C1388 1.490 1_565 S
C1384 H1374 0.926 . S
C1384 C1383 1.401 1_545 S
C1384 C1387 1.388 1_545 S
H1385 C1401 0.930 . S
H1386 C1402 0.931 . S
C1387 H1375 0.929 . S
C1387 C1381 1.390 . S
C1387 C1384 1.388 1_565 S
C1388 C1383 1.490 1_545 S
C1388 C1390 1.395 1_556 S
C1388 C1391 1.402 . S
H1389 C1395 0.930 . S
C1390 H1376 0.927 1_554 S
C1390 C1388 1.395 1_554 S
C1390 C1393 1.403 . S
C1391 C1388 1.402 . S
C1391 C1392 1.523 1_545 S
C1391 C1395 1.402 1_556 S
C1392 H1377 0.960 . S
C1392 H1378 0.960 . S
C1392 H1379 0.960 . S
C1392 C1391 1.523 1_565 S
C1393 C1390 1.403 . S
C1393 C1394 1.392 . S
C1393 C1397 1.495 . S
C1394 C1393 1.392 . S
C1394 C1395 1.385 . S
C1394 C1396 1.478 . S
C1395 H1389 0.930 . S
C1395 C1391 1.402 1_554 S
C1395 C1394 1.385 . S
C1396 C1394 1.478 . S
C1396 C1398 1.381 . S
C1396 C1402 1.383 . S
C1397 C1393 1.495 . S
C1397 H1403 0.959 . S
C1397 H1404 0.961 . S
C1397 H1405 0.960 . S
C1398 C1396 1.381 . S
C1398 C1399 1.394 . S
C1398 H1406 0.930 . S
C1399 C1398 1.394 . S
C1399 C1400 1.383 . S
C1399 H1407 0.929 . S
C1400 C1399 1.383 . S
C1400 C1401 1.377 . S
C1401 H1385 0.930 . S
C1401 C1400 1.377 . S
C1401 C1402 1.379 . S
C1402 H1386 0.931 . S
C1402 C1396 1.383 . S
C1402 C1401 1.379 . S
H1403 C1397 0.959 . S
H1404 C1397 0.961 . S
H1405 C1397 0.960 . S
H1406 C1398 0.930 . S
H1407 C1399 0.929 . S
H1408 C1416 0.929 . S
H1409 C1418 0.930 . S
H1410 C1420 0.930 . S
H1411 C1423 0.929 . S
H1412 C1426 0.930 . S
H1413 C1428 0.960 . S
H1414 C1428 0.960 . S
H1415 C1428 0.960 . S
C1416 H1408 0.929 . S
C1416 C1417 1.377 . S
C1416 C1418 1.384 . S
C1417 C1416 1.377 . S
C1417 C1423 1.390 . S
C1418 H1409 0.930 . S
C1418 C1416 1.384 . S
C1418 C1419 1.372 . S
C1419 C1418 1.372 . S
C1419 C1420 1.400 . S
C1419 C1424 1.490 . S
C1420 H1410 0.930 . S
C1420 C1419 1.400 . S
C1420 C1423 1.386 . S
H1421 C1437 0.930 . S
H1422 C1438 0.931 . S
C1423 H1411 0.929 . S
C1423 C1417 1.390 . S
C1423 C1420 1.386 . S
C1424 C1419 1.490 . S
C1424 C1426 1.395 . S
C1424 C1427 1.403 . S
H1425 C1431 0.930 . S
C1426 H1412 0.930 . S
C1426 C1424 1.395 . S
C1426 C1429 1.403 . S
C1427 C1424 1.403 . S
C1427 C1428 1.524 . S
C1427 C1431 1.400 . S
C1428 H1413 0.960 . S
C1428 H1414 0.960 . S
C1428 H1415 0.960 . S
C1428 C1427 1.524 . S
C1429 C1426 1.403 . S
C1429 C1430 1.392 . S
C1429 C1433 1.495 . S
C1430 C1429 1.392 . S
C1430 C1431 1.385 . S
C1430 C1432 1.478 . S
C1431 H1425 0.930 . S
C1431 C1427 1.400 . S
C1431 C1430 1.385 . S
C1432 C1430 1.478 . S
C1432 C1434 1.381 . S
C1432 C1438 1.383 . S
C1433 C1429 1.495 . S
C1433 H1439 0.959 . S
C1433 H1440 0.961 . S
C1433 H1441 0.960 . S
C1434 C1432 1.381 . S
C1434 C1435 1.394 . S
C1434 H1442 0.930 . S
C1435 C1434 1.394 . S
C1435 C1436 1.383 . S
C1435 H1443 0.929 . S
C1436 C1435 1.383 . S
C1436 C1437 1.377 . S
C1437 H1421 0.930 . S
C1437 C1436 1.377 . S
C1437 C1438 1.379 . S
C1438 H1422 0.931 . S
C1438 C1432 1.383 . S
C1438 C1437 1.379 . S
H1439 C1433 0.959 . S
H1440 C1433 0.961 . S
H1441 C1433 0.960 . S
H1442 C1434 0.930 . S
H1443 C1435 0.929 . S
H1444 C1452 0.929 . S
H1445 C1454 0.930 . S
H1446 C1456 0.930 . S
H1447 C1459 0.929 . S
H1448 C1462 0.930 . S
H1449 C1464 0.960 . S
H1450 C1464 0.960 . S
H1451 C1464 0.960 . S
C1452 H1444 0.929 . S
C1452 C1453 1.377 . S
C1452 C1454 1.384 . S
C1453 C1452 1.377 . S
C1453 C1459 1.390 . S
C1454 H1445 0.930 . S
C1454 C1452 1.384 . S
C1454 C1455 1.372 . S
C1455 C1454 1.372 . S
C1455 C1456 1.400 . S
C1455 C1460 1.490 . S
C1456 H1446 0.930 . S
C1456 C1455 1.400 . S
C1456 C1459 1.386 . S
H1457 C1473 0.930 . S
H1458 C1474 0.931 . S
C1459 H1447 0.929 . S
C1459 C1453 1.390 . S
C1459 C1456 1.386 . S
C1460 C1455 1.490 . S
C1460 C1462 1.395 . S
C1460 C1463 1.403 . S
H1461 C1467 0.930 . S
C1462 H1448 0.930 . S
C1462 C1460 1.395 . S
C1462 C1465 1.403 . S
C1463 C1460 1.403 . S
C1463 C1464 1.524 . S
C1463 C1467 1.400 . S
C1464 H1449 0.960 . S
C1464 H1450 0.960 . S
C1464 H1451 0.960 . S
C1464 C1463 1.524 . S
C1465 C1462 1.403 . S
C1465 C1466 1.392 . S
C1465 C1469 1.495 . S
C1466 C1465 1.392 . S
C1466 C1467 1.385 . S
C1466 C1468 1.478 . S
C1467 H1461 0.930 . S
C1467 C1463 1.400 . S
C1467 C1466 1.385 . S
C1468 C1466 1.478 . S
C1468 C1470 1.381 . S
C1468 C1474 1.383 . S
C1469 C1465 1.495 . S
C1469 H1475 0.959 . S
C1469 H1476 0.961 . S
C1469 H1477 0.960 . S
C1470 C1468 1.381 . S
C1470 C1471 1.394 . S
C1470 H1478 0.930 . S
C1471 C1470 1.394 . S
C1471 C1472 1.383 . S
C1471 H1479 0.929 . S
C1472 C1471 1.383 . S
C1472 C1473 1.377 . S
C1473 H1457 0.930 . S
C1473 C1472 1.377 . S
C1473 C1474 1.379 . S
C1474 H1458 0.931 . S
C1474 C1468 1.383 . S
C1474 C1473 1.379 . S
H1475 C1469 0.959 . S
H1476 C1469 0.961 . S
H1477 C1469 0.960 . S
H1478 C1470 0.930 . S
H1479 C1471 0.929 . S
H1480 C1488 0.929 . S
H1481 C1490 0.930 . S
H1482 C1492 0.930 . S
H1483 C1495 0.929 . S
H1484 C1498 0.930 . S
H1485 C1500 0.960 1_556 S
H1486 C1500 0.960 . S
H1487 C1500 0.960 . S
C1488 H1480 0.929 . S
C1488 C1489 1.377 . S
C1488 C1490 1.384 . S
C1489 C1488 1.377 . S
C1489 C1495 1.390 . S
C1490 H1481 0.930 . S
C1490 C1488 1.384 . S
C1490 C1491 1.372 . S
C1491 C1490 1.372 . S
C1491 C1492 1.400 . S
C1491 C1496 1.490 . S
C1492 H1482 0.930 . S
C1492 C1491 1.400 . S
C1492 C1495 1.386 . S
H1493 C1509 0.930 . S
H1494 C1510 0.931 . S
C1495 H1483 0.929 . S
C1495 C1489 1.390 . S
C1495 C1492 1.386 . S
C1496 C1491 1.490 . S
C1496 C1498 1.395 . S
C1496 C1499 1.403 . S
H1497 C1503 0.930 . S
C1498 H1484 0.930 . S
C1498 C1496 1.395 . S
C1498 C1501 1.403 . S
C1499 C1496 1.403 . S
C1499 C1500 1.524 . S
C1499 C1503 1.400 1_554 S
C1500 H1485 0.960 1_554 S
C1500 H1486 0.960 . S
C1500 H1487 0.960 . S
C1500 C1499 1.524 . S
C1501 C1498 1.403 . S
C1501 C1502 1.392 1_554 S
C1501 C1505 1.495 . S
C1502 C1501 1.392 1_556 S
C1502 C1503 1.385 . S
C1502 C1504 1.478 . S
C1503 H1497 0.930 . S
C1503 C1499 1.400 1_556 S
C1503 C1502 1.385 . S
C1504 C1502 1.478 . S
C1504 C1506 1.381 . S
C1504 C1510 1.383 . S
C1505 C1501 1.495 . S
C1505 H1511 0.959 . S
C1505 H1512 0.961 . S
C1505 H1513 0.960 . S
C1506 C1504 1.381 . S
C1506 C1507 1.394 . S
C1506 H1514 0.930 . S
C1507 C1506 1.394 . S
C1507 C1508 1.383 . S
C1507 H1515 0.929 . S
C1508 C1507 1.383 . S
C1508 C1509 1.377 . S
C1509 H1493 0.930 . S
C1509 C1508 1.377 . S
C1509 C1510 1.379 . S
C1510 H1494 0.931 . S
C1510 C1504 1.383 . S
C1510 C1509 1.379 . S
H1511 C1505 0.959 . S
H1512 C1505 0.961 . S
H1513 C1505 0.960 . S
H1514 C1506 0.930 . S
H1515 C1507 0.929 . S
H1516 C1524 0.929 . S
H1517 C1526 0.930 . S
H1518 C1528 0.930 . S
H1519 C1531 0.929 . S
H1520 C1534 0.930 . S
H1521 C1536 0.960 1_556 S
H1522 C1536 0.960 . S
H1523 C1536 0.960 . S
C1524 H1516 0.929 . S
C1524 C1525 1.377 . S
C1524 C1526 1.384 . S
C1525 C1524 1.377 . S
C1525 C1531 1.390 . S
C1526 H1517 0.930 . S
C1526 C1524 1.384 . S
C1526 C1527 1.372 . S
C1527 C1526 1.372 . S
C1527 C1528 1.400 . S
C1527 C1532 1.490 . S
C1528 H1518 0.930 . S
C1528 C1527 1.400 . S
C1528 C1531 1.386 . S
H1529 C1545 0.930 . S
H1530 C1546 0.931 . S
C1531 H1519 0.929 . S
C1531 C1525 1.390 . S
C1531 C1528 1.386 . S
C1532 C1527 1.490 . S
C1532 C1534 1.395 . S
C1532 C1535 1.403 . S
H1533 C1539 0.930 . S
C1534 H1520 0.930 . S
C1534 C1532 1.395 . S
C1534 C1537 1.403 . S
C1535 C1532 1.403 . S
C1535 C1536 1.524 . S
C1535 C1539 1.400 1_554 S
C1536 H1521 0.960 1_554 S
C1536 H1522 0.960 . S
C1536 H1523 0.960 . S
C1536 C1535 1.524 . S
C1537 C1534 1.403 . S
C1537 C1538 1.392 1_554 S
C1537 C1541 1.495 . S
C1538 C1537 1.392 1_556 S
C1538 C1539 1.385 . S
C1538 C1540 1.478 . S
C1539 H1533 0.930 . S
C1539 C1535 1.400 1_556 S
C1539 C1538 1.385 . S
C1540 C1538 1.478 . S
C1540 C1542 1.381 . S
C1540 C1546 1.383 . S
C1541 C1537 1.495 . S
C1541 H1547 0.959 . S
C1541 H1548 0.961 . S
C1541 H1549 0.960 . S
C1542 C1540 1.381 . S
C1542 C1543 1.394 . S
C1542 H1550 0.930 . S
C1543 C1542 1.394 . S
C1543 C1544 1.383 . S
C1543 H1551 0.929 . S
C1544 C1543 1.383 . S
C1544 C1545 1.377 . S
C1545 H1529 0.930 . S
C1545 C1544 1.377 . S
C1545 C1546 1.379 . S
C1546 H1530 0.931 . S
C1546 C1540 1.383 . S
C1546 C1545 1.379 . S
H1547 C1541 0.959 . S
H1548 C1541 0.961 . S
H1549 C1541 0.960 . S
H1550 C1542 0.930 . S
H1551 C1543 0.929 . S
H1552 C1560 0.929 . S
H1553 C1562 0.930 . S
H1554 C1564 0.930 . S
H1555 C1567 0.929 . S
H1556 C1570 0.930 . S
H1557 C1572 0.960 . S
H1558 C1572 0.960 . S
H1559 C1572 0.960 . S
C1560 H1552 0.929 . S
C1560 C1561 1.377 . S
C1560 C1562 1.384 . S
C1561 C1560 1.377 . S
C1561 C1567 1.390 . S
C1562 H1553 0.930 . S
C1562 C1560 1.384 . S
C1562 C1563 1.372 . S
C1563 C1562 1.372 . S
C1563 C1564 1.400 . S
C1563 C1568 1.490 . S
C1564 H1554 0.930 . S
C1564 C1563 1.400 . S
C1564 C1567 1.386 . S
H1565 C1581 0.930 . S
H1566 C1582 0.931 . S
C1567 H1555 0.929 . S
C1567 C1561 1.390 . S
C1567 C1564 1.386 . S
C1568 C1563 1.490 . S
C1568 C1570 1.395 . S
C1568 C1571 1.403 . S
H1569 C1575 0.930 . S
C1570 H1556 0.930 . S
C1570 C1568 1.395 . S
C1570 C1573 1.403 . S
C1571 C1568 1.403 . S
C1571 C1572 1.524 . S
C1571 C1575 1.400 . S
C1572 H1557 0.960 . S
C1572 H1558 0.960 . S
C1572 H1559 0.960 . S
C1572 C1571 1.524 . S
C1573 C1570 1.403 . S
C1573 C1574 1.392 . S
C1573 C1577 1.495 . S
C1574 C1573 1.392 . S
C1574 C1575 1.385 . S
C1574 C1576 1.478 . S
C1575 H1569 0.930 . S
C1575 C1571 1.400 . S
C1575 C1574 1.385 . S
C1576 C1574 1.478 . S
C1576 C1578 1.381 . S
C1576 C1582 1.383 . S
C1577 C1573 1.495 . S
C1577 H1583 0.959 . S
C1577 H1584 0.961 . S
C1577 H1585 0.960 . S
C1578 C1576 1.381 . S
C1578 C1579 1.394 . S
C1578 H1586 0.930 . S
C1579 C1578 1.394 . S
C1579 C1580 1.383 . S
C1579 H1587 0.929 . S
C1580 C1579 1.383 . S
C1580 C1581 1.377 . S
C1581 H1565 0.930 . S
C1581 C1580 1.377 . S
C1581 C1582 1.379 . S
C1582 H1566 0.931 . S
C1582 C1576 1.383 . S
C1582 C1581 1.379 . S
H1583 C1577 0.959 . S
H1584 C1577 0.961 . S
H1585 C1577 0.960 . S
H1586 C1578 0.930 . S
H1587 C1579 0.929 . S
H1588 C1596 0.929 . S
H1589 C1598 0.930 . S
H1590 C1600 0.930 . S
H1591 C1603 0.929 . S
H1592 C1606 0.930 . S
H1593 C1608 0.960 . S
H1594 C1608 0.960 . S
H1595 C1608 0.960 . S
C1596 H1588 0.929 . S
C1596 C1597 1.377 . S
C1596 C1598 1.384 . S
C1597 C1596 1.377 . S
C1597 C1603 1.390 . S
C1598 H1589 0.930 . S
C1598 C1596 1.384 . S
C1598 C1599 1.372 . S
C1599 C1598 1.372 . S
C1599 C1600 1.400 . S
C1599 C1604 1.490 . S
C1600 H1590 0.930 . S
C1600 C1599 1.400 . S
C1600 C1603 1.386 . S
H1601 C1617 0.930 . S
H1602 C1618 0.931 . S
C1603 H1591 0.929 . S
C1603 C1597 1.390 . S
C1603 C1600 1.386 . S
C1604 C1599 1.490 . S
C1604 C1606 1.395 . S
C1604 C1607 1.403 . S
H1605 C1611 0.930 . S
C1606 H1592 0.930 . S
C1606 C1604 1.395 . S
C1606 C1609 1.403 . S
C1607 C1604 1.403 . S
C1607 C1608 1.524 . S
C1607 C1611 1.400 . S
C1608 H1593 0.960 . S
C1608 H1594 0.960 . S
C1608 H1595 0.960 . S
C1608 C1607 1.524 . S
C1609 C1606 1.403 . S
C1609 C1610 1.392 . S
C1609 C1613 1.495 . S
C1610 C1609 1.392 . S
C1610 C1611 1.385 . S
C1610 C1612 1.478 . S
C1611 H1605 0.930 . S
C1611 C1607 1.400 . S
C1611 C1610 1.385 . S
C1612 C1610 1.478 . S
C1612 C1614 1.381 . S
C1612 C1618 1.383 . S
C1613 C1609 1.495 . S
C1613 H1619 0.959 . S
C1613 H1620 0.961 . S
C1613 H1621 0.960 . S
C1614 C1612 1.381 . S
C1614 C1615 1.394 . S
C1614 H1622 0.930 . S
C1615 C1614 1.394 . S
C1615 C1616 1.383 . S
C1615 H1623 0.929 . S
C1616 C1615 1.383 . S
C1616 C1617 1.377 . S
C1617 H1601 0.930 . S
C1617 C1616 1.377 . S
C1617 C1618 1.379 . S
C1618 H1602 0.931 . S
C1618 C1612 1.383 . S
C1618 C1617 1.379 . S
H1619 C1613 0.959 . S
H1620 C1613 0.961 . S
H1621 C1613 0.960 . S
H1622 C1614 0.930 . S
H1623 C1615 0.929 . S
H1624 C1632 0.929 . S
H1625 C1634 0.930 . S
H1626 C1636 0.930 . S
H1627 C1639 0.929 . S
H1628 C1642 0.899 1_545 S
H1629 C1644 0.960 . S
H1630 C1644 0.960 . S
H1631 C1644 0.960 . S
C1632 H1624 0.929 . S
C1632 C1633 1.377 . S
C1632 C1634 1.384 . S
C1633 C1632 1.377 . S
C1633 C1639 1.390 . S
C1634 H1625 0.930 . S
C1634 C1632 1.384 . S
C1634 C1635 1.372 . S
C1635 C1634 1.372 . S
C1635 C1636 1.400 . S
C1635 C1640 1.490 . S
C1636 H1626 0.930 . S
C1636 C1635 1.400 . S
C1636 C1639 1.386 . S
H1637 C1653 0.930 . S
H1638 C1654 0.931 1_565 S
C1639 H1627 0.929 . S
C1639 C1633 1.390 . S
C1639 C1636 1.386 . S
C1640 C1635 1.490 . S
C1640 C1642 1.461 . S
C1640 C1643 1.403 . S
H1641 C1647 0.930 . S
C1642 H1628 0.899 1_565 S
C1642 C1640 1.461 . S
C1642 C1645 1.370 1_565 S
C1643 C1640 1.403 . S
C1643 C1644 1.524 . S
C1643 C1647 1.400 . S
C1644 H1629 0.960 . S
C1644 H1630 0.960 . S
C1644 H1631 0.960 . S
C1644 C1643 1.524 . S
C1645 C1642 1.370 1_545 S
C1645 C1646 1.366 1_545 S
C1645 C1649 1.495 . S
C1646 C1645 1.366 1_565 S
C1646 C1647 1.438 . S
C1646 C1648 1.455 1_565 S
C1647 H1641 0.930 . S
C1647 C1643 1.400 . S
C1647 C1646 1.438 . S
C1648 C1646 1.455 1_545 S
C1648 C1650 1.381 . S
C1648 C1654 1.383 . S
C1649 C1645 1.495 . S
C1649 H1655 0.959 . S
C1649 H1656 0.961 . S
C1649 H1657 0.960 . S
C1650 C1648 1.381 . S
C1650 C1651 1.394 . S
C1650 H1658 0.930 . S
C1651 C1650 1.394 . S
C1651 C1652 1.383 . S
C1651 H1659 0.929 . S
C1652 C1651 1.383 . S
C1652 C1653 1.377 . S
C1653 H1637 0.930 . S
C1653 C1652 1.377 . S
C1653 C1654 1.379 . S
C1654 H1638 0.931 1_545 S
C1654 C1648 1.383 . S
C1654 C1653 1.379 . S
H1655 C1649 0.959 . S
H1656 C1649 0.961 . S
H1657 C1649 0.960 . S
H1658 C1650 0.930 . S
H1659 C1651 0.929 . S
H1660 C1668 0.929 . S
H1661 C1670 0.930 . S
H1662 C1672 0.930 . S
H1663 C1675 0.929 . S
H1664 C1678 0.930 . S
H1665 C1680 0.926 1_565 S
H1666 C1680 0.938 1_565 S
H1667 C1680 1.001 . S
C1668 H1660 0.929 . S
C1668 C1669 1.377 . S
C1668 C1670 1.384 . S
C1669 C1668 1.377 . S
C1669 C1675 1.390 . S
C1670 H1661 0.930 . S
C1670 C1668 1.384 . S
C1670 C1671 1.372 . S
C1671 C1670 1.372 . S
C1671 C1672 1.400 . S
C1671 C1676 1.490 . S
C1672 H1662 0.930 . S
C1672 C1671 1.400 . S
C1672 C1675 1.386 . S
H1673 C1689 0.930 . S
H1674 C1690 0.947 . S
C1675 H1663 0.929 . S
C1675 C1669 1.390 . S
C1675 C1672 1.386 . S
C1676 C1671 1.490 . S
C1676 C1678 1.395 . S
C1676 C1679 1.403 . S
H1677 C1683 0.902 1_565 S
C1678 H1664 0.930 . S
C1678 C1676 1.395 . S
C1678 C1681 1.403 . S
C1679 C1676 1.403 . S
C1679 C1680 1.542 . S
C1679 C1683 1.416 . S
C1680 H1665 0.926 1_545 S
C1680 H1666 0.938 1_545 S
C1680 H1667 1.001 . S
C1680 C1679 1.542 . S
C1681 C1678 1.403 . S
C1681 C1682 1.392 . S
C1681 C1685 1.495 . S
C1682 C1681 1.392 . S
C1682 C1683 1.397 . S
C1682 C1684 1.478 1_545 S
C1683 H1677 0.902 1_545 S
C1683 C1679 1.416 . S
C1683 C1682 1.397 . S
C1684 C1682 1.478 1_565 S
C1684 C1686 1.381 . S
C1684 C1690 1.379 1_565 S
C1685 C1681 1.495 . S
C1685 H1691 0.959 . S
C1685 H1692 0.961 . S
C1685 H1693 0.960 . S
C1686 C1684 1.381 . S
C1686 C1687 1.394 . S
C1686 H1694 0.930 . S
C1687 C1686 1.394 . S
C1687 C1688 1.383 . S
C1687 H1695 0.929 . S
C1688 C1687 1.383 . S
C1688 C1689 1.377 . S
C1689 H1673 0.930 . S
C1689 C1688 1.377 . S
C1689 C1690 1.368 1_565 S
C1690 H1674 0.947 . S
C1690 C1684 1.379 1_545 S
C1690 C1689 1.368 1_545 S
H1691 C1685 0.959 . S
H1692 C1685 0.961 . S
H1693 C1685 0.960 . S
H1694 C1686 0.930 . S
H1695 C1687 0.929 . S
H1696 C1704 0.929 . S
H1697 C1706 0.930 . S
H1698 C1708 0.930 . S
H1699 C1711 0.929 . S
H1700 C1714 0.930 . S
H1701 C1716 0.960 . S
H1702 C1716 0.960 . S
H1703 C1716 0.960 . S
C1704 H1696 0.929 . S
C1704 C1705 1.363 1_554 S
C1704 C1706 1.384 . S
C1705 C1704 1.363 1_556 S
C1705 C1711 1.404 . S
C1706 H1697 0.930 . S
C1706 C1704 1.384 . S
C1706 C1707 1.381 . S
C1707 C1706 1.381 . S
C1707 C1708 1.390 1_554 S
C1707 C1712 1.490 . S
C1708 H1698 0.930 . S
C1708 C1707 1.390 1_556 S
C1708 C1711 1.386 . S
H1709 C1725 0.930 . S
H1710 C1726 0.931 . S
C1711 H1699 0.929 . S
C1711 C1705 1.404 . S
C1711 C1708 1.386 . S
C1712 C1707 1.490 . S
C1712 C1714 1.395 . S
C1712 C1715 1.403 1_554 S
H1713 C1719 0.930 . S
C1714 H1700 0.930 . S
C1714 C1712 1.395 . S
C1714 C1717 1.403 . S
C1715 C1712 1.403 1_556 S
C1715 C1716 1.524 . S
C1715 C1719 1.400 . S
C1716 H1701 0.960 . S
C1716 H1702 0.960 . S
C1716 H1703 0.960 . S
C1716 C1715 1.524 . S
C1717 C1714 1.403 . S
C1717 C1718 1.392 . S
C1717 C1721 1.495 . S
C1718 C1717 1.392 . S
C1718 C1719 1.385 1_554 S
C1718 C1720 1.478 . S
C1719 H1713 0.930 . S
C1719 C1715 1.400 . S
C1719 C1718 1.385 1_556 S
C1720 C1718 1.478 . S
C1720 C1722 1.381 . S
C1720 C1726 1.383 1_554 S
C1721 C1717 1.495 . S
C1721 H1727 0.959 . S
C1721 H1728 0.961 . S
C1721 H1729 0.960 . S
C1722 C1720 1.381 . S
C1722 C1723 1.394 . S
C1722 H1730 0.930 . S
C1723 C1722 1.394 . S
C1723 C1724 1.383 . S
C1723 H1731 0.929 . S
C1724 C1723 1.383 . S
C1724 C1725 1.377 1_554 S
C1725 H1709 0.930 . S
C1725 C1724 1.377 1_556 S
C1725 C1726 1.379 . S
C1726 H1710 0.931 . S
C1726 C1720 1.383 1_556 S
C1726 C1725 1.379 . S
H1727 C1721 0.959 . S
H1728 C1721 0.961 . S
H1729 C1721 0.960 . S
H1730 C1722 0.930 . S
H1731 C1723 0.929 . S
H1732 C1740 0.929 . S
H1733 C1742 0.930 . S
H1734 C1744 0.930 . S
H1735 C1747 0.929 . S
H1736 C1750 0.930 . S
H1737 C1752 0.960 . S
H1738 C1752 0.960 . S
H1739 C1752 0.960 1_554 S
C1740 H1732 0.929 . S
C1740 C1741 1.377 . S
C1740 C1742 1.384 . S
C1741 C1740 1.377 . S
C1741 C1747 1.390 1_556 S
C1742 H1733 0.930 . S
C1742 C1740 1.384 . S
C1742 C1743 1.372 . S
C1743 C1742 1.372 . S
C1743 C1744 1.400 1_556 S
C1743 C1748 1.490 . S
C1744 H1734 0.930 . S
C1744 C1743 1.400 1_554 S
C1744 C1747 1.386 . S
H1745 C1761 0.930 . S
H1746 C1762 0.931 . S
C1747 H1735 0.929 . S
C1747 C1741 1.390 1_554 S
C1747 C1744 1.386 . S
C1748 C1743 1.490 . S
C1748 C1750 1.396 . S
C1748 C1751 1.403 . S
H1749 C1755 0.930 . S
C1750 H1736 0.930 . S
C1750 C1748 1.396 . S
C1750 C1753 1.403 . S
C1751 C1748 1.403 . S
C1751 C1752 1.524 . S
C1751 C1755 1.400 . S
C1752 H1737 0.960 . S
C1752 H1738 0.960 . S
C1752 H1739 0.960 1_556 S
C1752 C1751 1.524 . S
C1753 C1750 1.403 . S
C1753 C1754 1.392 . S
C1753 C1757 1.495 1_556 S
C1754 C1753 1.392 . S
C1754 C1755 1.385 . S
C1754 C1756 1.478 . S
C1755 H1749 0.930 . S
C1755 C1751 1.400 . S
C1755 C1754 1.385 . S
C1756 C1754 1.478 . S
C1756 C1758 1.389 . S
C1756 C1762 1.375 1_556 S
C1757 C1753 1.495 1_554 S
C1757 H1763 0.959 . S
C1757 H1764 0.961 . S
C1757 H1765 0.960 1_554 S
C1758 C1756 1.389 . S
C1758 C1759 1.394 . S
C1758 H1766 0.930 . S
C1759 C1758 1.394 . S
C1759 C1760 1.388 . S
C1759 H1767 0.929 . S
C1760 C1759 1.388 . S
C1760 C1761 1.372 1_556 S
C1761 H1745 0.930 . S
C1761 C1760 1.372 1_554 S
C1761 C1762 1.379 . S
C1762 H1746 0.931 . S
C1762 C1756 1.375 1_554 S
C1762 C1761 1.379 . S
H1763 C1757 0.959 . S
H1764 C1757 0.961 . S
H1765 C1757 0.960 1_556 S
H1766 C1758 0.930 . S
H1767 C1759 0.929 . S
H1768 C1776 0.929 . S
H1769 C1778 0.930 . S
H1770 C1780 0.930 . S
H1771 C1783 0.929 . S
H1772 C1786 0.930 . S
H1773 C1788 0.960 . S
H1774 C1788 0.960 . S
H1775 C1788 0.960 . S
C1776 H1768 0.929 . S
C1776 C1777 1.377 . S
C1776 C1778 1.384 . S
C1777 C1776 1.377 . S
C1777 C1783 1.390 . S
C1778 H1769 0.930 . S
C1778 C1776 1.384 . S
C1778 C1779 1.372 . S
C1779 C1778 1.372 . S
C1779 C1780 1.400 . S
C1779 C1784 1.490 . S
C1780 H1770 0.930 . S
C1780 C1779 1.400 . S
C1780 C1783 1.386 . S
H1781 C1797 0.930 . S
H1782 C1798 0.931 . S
C1783 H1771 0.929 . S
C1783 C1777 1.390 . S
C1783 C1780 1.386 . S
C1784 C1779 1.490 . S
C1784 C1786 1.395 . S
C1784 C1787 1.403 . S
H1785 C1791 0.930 . S
C1786 H1772 0.930 . S
C1786 C1784 1.395 . S
C1786 C1789 1.403 1_455 S
C1787 C1784 1.403 . S
C1787 C1788 1.524 . S
C1787 C1791 1.400 1_455 S
C1788 H1773 0.960 . S
C1788 H1774 0.960 . S
C1788 H1775 0.960 . S
C1788 C1787 1.524 . S
C1789 C1786 1.403 1_655 S
C1789 C1790 1.392 . S
C1789 C1793 1.495 . S
C1790 C1789 1.392 . S
C1790 C1791 1.385 . S
C1790 C1792 1.478 . S
C1791 H1785 0.930 . S
C1791 C1787 1.400 1_655 S
C1791 C1790 1.385 . S
C1792 C1790 1.478 . S
C1792 C1794 1.381 . S
C1792 C1798 1.383 . S
C1793 C1789 1.495 . S
C1793 H1799 0.959 . S
C1793 H1800 0.961 . S
C1793 H1801 0.960 . S
C1794 C1792 1.381 . S
C1794 C1795 1.394 . S
C1794 H1802 0.930 . S
C1795 C1794 1.394 . S
C1795 C1796 1.383 . S
C1795 H1803 0.929 . S
C1796 C1795 1.383 . S
C1796 C1797 1.377 . S
C1797 H1781 0.930 . S
C1797 C1796 1.377 . S
C1797 C1798 1.379 . S
C1798 H1782 0.931 . S
C1798 C1792 1.383 . S
C1798 C1797 1.379 . S
H1799 C1793 0.959 . S
H1800 C1793 0.961 . S
H1801 C1793 0.960 . S
H1802 C1794 0.930 . S
H1803 C1795 0.929 . S
H1804 C1812 0.929 . S
H1805 C1814 0.930 . S
H1806 C1816 0.930 . S
H1807 C1819 0.929 . S
H1808 C1822 0.930 . S
H1809 C1824 0.960 . S
H1810 C1824 0.960 . S
H1811 C1824 0.960 . S
C1812 H1804 0.929 . S
C1812 C1813 1.377 . S
C1812 C1814 1.384 . S
C1813 C1812 1.377 . S
C1813 C1819 1.390 . S
C1814 H1805 0.930 . S
C1814 C1812 1.384 . S
C1814 C1815 1.372 . S
C1815 C1814 1.372 . S
C1815 C1816 1.400 . S
C1815 C1820 1.490 . S
C1816 H1806 0.930 . S
C1816 C1815 1.400 . S
C1816 C1819 1.386 . S
H1817 C1833 0.930 . S
H1818 C1834 0.931 . S
C1819 H1807 0.929 . S
C1819 C1813 1.390 . S
C1819 C1816 1.386 . S
C1820 C1815 1.490 . S
C1820 C1822 1.395 . S
C1820 C1823 1.403 . S
H1821 C1827 0.930 . S
C1822 H1808 0.930 . S
C1822 C1820 1.395 . S
C1822 C1825 1.403 . S
C1823 C1820 1.403 . S
C1823 C1824 1.524 . S
C1823 C1827 1.400 . S
C1824 H1809 0.960 . S
C1824 H1810 0.960 . S
C1824 H1811 0.960 . S
C1824 C1823 1.524 . S
C1825 C1822 1.403 . S
C1825 C1826 1.392 . S
C1825 C1829 1.495 . S
C1826 C1825 1.392 . S
C1826 C1827 1.385 . S
C1826 C1828 1.478 . S
C1827 H1821 0.930 . S
C1827 C1823 1.400 . S
C1827 C1826 1.385 . S
C1828 C1826 1.478 . S
C1828 C1830 1.381 . S
C1828 C1834 1.383 . S
C1829 C1825 1.495 . S
C1829 H1835 0.959 . S
C1829 H1836 0.961 . S
C1829 H1837 0.960 . S
C1830 C1828 1.381 . S
C1830 C1831 1.394 . S
C1830 H1838 0.930 . S
C1831 C1830 1.394 . S
C1831 C1832 1.383 . S
C1831 H1839 0.929 . S
C1832 C1831 1.383 . S
C1832 C1833 1.377 . S
C1833 H1817 0.930 . S
C1833 C1832 1.377 . S
C1833 C1834 1.379 . S
C1834 H1818 0.931 . S
C1834 C1828 1.383 . S
C1834 C1833 1.379 . S
H1835 C1829 0.959 . S
H1836 C1829 0.961 . S
H1837 C1829 0.960 . S
H1838 C1830 0.930 . S
H1839 C1831 0.929 . S
H1840 C1848 0.929 . S
H1841 C1850 0.930 . S
H1842 C1852 0.930 . S
H1843 C1855 0.929 . S
H1844 C1858 0.930 . S
H1845 C1860 0.960 . S
H1846 C1860 0.960 . S
H1847 C1860 0.960 . S
C1848 H1840 0.929 . S
C1848 C1849 1.377 . S
C1848 C1850 1.384 . S
C1849 C1848 1.377 . S
C1849 C1855 1.390 . S
C1850 H1841 0.930 . S
C1850 C1848 1.384 . S
C1850 C1851 1.372 . S
C1851 C1850 1.372 . S
C1851 C1852 1.400 . S
C1851 C1856 1.490 . S
C1852 H1842 0.930 . S
C1852 C1851 1.400 . S
C1852 C1855 1.386 . S
H1853 C1869 0.930 . S
H1854 C1870 0.931 . S
C1855 H1843 0.929 . S
C1855 C1849 1.390 . S
C1855 C1852 1.386 . S
C1856 C1851 1.490 . S
C1856 C1858 1.395 . S
C1856 C1859 1.403 . S
H1857 C1863 0.930 . S
C1858 H1844 0.930 . S
C1858 C1856 1.395 . S
C1858 C1861 1.403 . S
C1859 C1856 1.403 . S
C1859 C1860 1.524 . S
C1859 C1863 1.400 . S
C1860 H1845 0.960 . S
C1860 H1846 0.960 . S
C1860 H1847 0.960 . S
C1860 C1859 1.524 . S
C1861 C1858 1.403 . S
C1861 C1862 1.392 . S
C1861 C1865 1.495 . S
C1862 C1861 1.392 . S
C1862 C1863 1.385 . S
C1862 C1864 1.478 . S
C1863 H1857 0.930 . S
C1863 C1859 1.400 . S
C1863 C1862 1.385 . S
C1864 C1862 1.478 . S
C1864 C1866 1.381 . S
C1864 C1870 1.383 . S
C1865 C1861 1.495 . S
C1865 H1871 0.959 . S
C1865 H1872 0.961 . S
C1865 H1873 0.960 . S
C1866 C1864 1.381 . S
C1866 C1867 1.394 . S
C1866 H1874 0.930 . S
C1867 C1866 1.394 . S
C1867 C1868 1.383 . S
C1867 H1875 0.929 . S
C1868 C1867 1.383 . S
C1868 C1869 1.377 . S
C1869 H1853 0.930 . S
C1869 C1868 1.377 . S
C1869 C1870 1.379 . S
C1870 H1854 0.931 . S
C1870 C1864 1.383 . S
C1870 C1869 1.379 . S
H1871 C1865 0.959 . S
H1872 C1865 0.961 . S
H1873 C1865 0.960 . S
H1874 C1866 0.930 . S
H1875 C1867 0.929 . S
H1876 C1884 0.929 . S
H1877 C1886 0.930 . S
H1878 C1888 0.930 . S
H1879 C1891 0.929 . S
H1880 C1894 0.930 . S
H1881 C1896 0.960 . S
H1882 C1896 0.960 . S
H1883 C1896 0.960 1_455 S
C1884 H1876 0.929 . S
C1884 C1885 1.377 . S
C1884 C1886 1.384 . S
C1885 C1884 1.377 . S
C1885 C1891 1.390 . S
C1886 H1877 0.930 . S
C1886 C1884 1.384 . S
C1886 C1887 1.372 . S
C1887 C1886 1.372 . S
C1887 C1888 1.400 . S
C1887 C1892 1.490 . S
C1888 H1878 0.930 . S
C1888 C1887 1.400 . S
C1888 C1891 1.386 . S
H1889 C1905 0.930 . S
H1890 C1906 0.931 . S
C1891 H1879 0.929 . S
C1891 C1885 1.390 . S
C1891 C1888 1.386 . S
C1892 C1887 1.490 . S
C1892 C1894 1.395 1_545 S
C1892 C1895 1.403 1_455 S
H1893 C1899 0.930 . S
C1894 H1880 0.930 . S
C1894 C1892 1.395 1_565 S
C1894 C1897 1.403 . S
C1895 C1892 1.403 1_655 S
C1895 C1896 1.524 . S
C1895 C1899 1.400 . S
C1896 H1881 0.960 . S
C1896 H1882 0.960 . S
C1896 H1883 0.960 1_655 S
C1896 C1895 1.524 . S
C1897 C1894 1.403 . S
C1897 C1898 1.392 1_455 S
C1897 C1901 1.495 . S
C1898 C1897 1.392 1_655 S
C1898 C1899 1.385 1_565 S
C1898 C1900 1.478 . S
C1899 H1893 0.930 . S
C1899 C1895 1.400 . S
C1899 C1898 1.385 1_545 S
C1900 C1898 1.478 . S
C1900 C1902 1.381 . S
C1900 C1906 1.383 . S
C1901 C1897 1.495 . S
C1901 H1907 0.959 . S
C1901 H1908 0.961 . S
C1901 H1909 0.943 1_455 S
C1902 C1900 1.381 . S
C1902 C1903 1.394 . S
C1902 H1910 0.930 . S
C1903 C1902 1.394 . S
C1903 C1904 1.383 . S
C1903 H1911 0.929 . S
C1904 C1903 1.383 . S
C1904 C1905 1.377 . S
C1905 H1889 0.930 . S
C1905 C1904 1.377 . S
C1905 C1906 1.379 . S
C1906 H1890 0.931 . S
C1906 C1900 1.383 . S
C1906 C1905 1.379 . S
H1907 C1901 0.959 . S
H1908 C1901 0.961 . S
H1909 C1901 0.943 1_655 S
H1910 C1902 0.930 . S
H1911 C1903 0.929 . S
H1912 C1920 0.929 . S
H1913 C1922 0.930 . S
H1914 C1924 0.930 . S
H1915 C1927 0.929 . S
H1916 C1930 0.930 . S
H1917 C1932 0.960 . S
H1918 C1932 0.960 . S
H1919 C1932 0.960 . S
C1920 H1912 0.929 . S
C1920 C1921 1.377 . S
C1920 C1922 1.384 . S
C1921 C1920 1.377 . S
C1921 C1927 1.390 . S
C1922 H1913 0.930 . S
C1922 C1920 1.384 . S
C1922 C1923 1.372 . S
C1923 C1922 1.372 . S
C1923 C1924 1.400 . S
C1923 C1928 1.490 . S
C1924 H1914 0.930 . S
C1924 C1923 1.400 . S
C1924 C1927 1.386 . S
H1925 C1941 0.930 . S
H1926 C1942 0.931 . S
C1927 H1915 0.929 . S
C1927 C1921 1.390 . S
C1927 C1924 1.386 . S
C1928 C1923 1.490 . S
C1928 C1930 1.395 . S
C1928 C1931 1.403 . S
H1929 C1935 0.930 . S
C1930 H1916 0.930 . S
C1930 C1928 1.395 . S
C1930 C1933 1.403 . S
C1931 C1928 1.403 . S
C1931 C1932 1.524 . S
C1931 C1935 1.400 . S
C1932 H1917 0.960 . S
C1932 H1918 0.960 . S
C1932 H1919 0.960 . S
C1932 C1931 1.524 . S
C1933 C1930 1.403 . S
C1933 C1934 1.392 . S
C1933 C1937 1.495 . S
C1934 C1933 1.392 . S
C1934 C1935 1.385 . S
C1934 C1936 1.478 . S
C1935 H1929 0.930 . S
C1935 C1931 1.400 . S
C1935 C1934 1.385 . S
C1936 C1934 1.478 . S
C1936 C1938 1.381 . S
C1936 C1942 1.383 . S
C1937 C1933 1.495 . S
C1937 H1943 0.959 . S
C1937 H1944 0.961 . S
C1937 H1945 0.960 . S
C1938 C1936 1.381 . S
C1938 C1939 1.394 . S
C1938 H1946 0.930 . S
C1939 C1938 1.394 . S
C1939 C1940 1.383 . S
C1939 H1947 0.929 . S
C1940 C1939 1.383 . S
C1940 C1941 1.377 . S
C1941 H1925 0.930 . S
C1941 C1940 1.377 . S
C1941 C1942 1.379 . S
C1942 H1926 0.931 . S
C1942 C1936 1.383 . S
C1942 C1941 1.379 . S
H1943 C1937 0.959 . S
H1944 C1937 0.961 . S
H1945 C1937 0.960 . S
H1946 C1938 0.930 . S
H1947 C1939 0.929 . S
H1948 C1956 0.929 . S
H1949 C1958 0.930 . S
H1950 C1960 0.930 . S
H1951 C1963 0.929 . S
H1952 C1966 0.930 . S
H1953 C1968 0.960 . S
H1954 C1968 0.960 . S
H1955 C1968 0.960 . S
C1956 H1948 0.929 . S
C1956 C1957 1.377 . S
C1956 C1958 1.384 . S
C1957 C1956 1.377 . S
C1957 C1963 1.390 . S
C1958 H1949 0.930 . S
C1958 C1956 1.384 . S
C1958 C1959 1.372 . S
C1959 C1958 1.372 . S
C1959 C1960 1.400 . S
C1959 C1964 1.490 . S
C1960 H1950 0.930 . S
C1960 C1959 1.400 . S
C1960 C1963 1.386 . S
H1961 C1977 0.930 . S
H1962 C1978 0.931 . S
C1963 H1951 0.929 . S
C1963 C1957 1.390 . S
C1963 C1960 1.386 . S
C1964 C1959 1.490 . S
C1964 C1966 1.395 1_565 S
C1964 C1967 1.403 . S
H1965 C1971 0.944 . S
C1966 H1952 0.930 . S
C1966 C1964 1.395 1_545 S
C1966 C1969 1.403 . S
C1967 C1964 1.403 . S
C1967 C1968 1.524 . S
C1967 C1971 1.458 . S
C1968 H1953 0.960 . S
C1968 H1954 0.960 . S
C1968 H1955 0.960 . S
C1968 C1967 1.524 . S
C1969 C1966 1.403 . S
C1969 C1970 1.392 . S
C1969 C1973 1.495 . S
C1970 C1969 1.392 . S
C1970 C1971 1.321 1_545 S
C1970 C1972 1.478 . S
C1971 H1965 0.944 . S
C1971 C1967 1.458 . S
C1971 C1970 1.321 1_565 S
C1972 C1970 1.478 . S
C1972 C1974 1.381 . S
C1972 C1978 1.383 . S
C1973 C1969 1.495 . S
C1973 H1979 0.959 . S
C1973 H1980 0.961 . S
C1973 H1981 0.960 . S
C1974 C1972 1.381 . S
C1974 C1975 1.394 . S
C1974 H1982 0.930 . S
C1975 C1974 1.394 . S
C1975 C1976 1.383 . S
C1975 H1983 0.929 . S
C1976 C1975 1.383 . S
C1976 C1977 1.377 . S
C1977 H1961 0.930 . S
C1977 C1976 1.377 . S
C1977 C1978 1.379 . S
C1978 H1962 0.931 . S
C1978 C1972 1.383 . S
C1978 C1977 1.379 . S
H1979 C1973 0.959 . S
H1980 C1973 0.961 . S
H1981 C1973 0.960 . S
H1982 C1974 0.930 . S
H1983 C1975 0.929 . S
C553 C5 1.408 . S
C572 C394 1.440 . S
C589 C39 1.402 . S
C608 C360 1.439 . S
C625 C54 1.441 . S
C644 C73 1.377 . S
C661 C20 1.440 . S
C680 C107 1.407 . S
C697 C141 1.400 . S
C716 C530 1.436 . S
C733 C175 1.399 . S
C752 C496 1.436 . S
C769 C190 1.440 . S
C788 C209 1.424 . S
C805 C243 1.409 . S
C824 C156 1.435 . S
C841 C122 1.440 . S
C860 C277 1.388 . S
C877 C88 1.440 . S
C896 C311 1.378 . S
C913 C326 1.440 . S
C932 C345 1.409 . S
C949 C292 1.441 . S
C968 C379 1.379 . S
C985 C413 1.401 . S
C1004 C258 1.436 . S
C1021 C447 1.399 . S
C1040 C224 1.436 . S
C1057 C481 1.407 . S
C1076 C462 1.434 . S
C1093 C428 1.440 . S
C1112 C515 1.400 . S
C1129 C203 1.533 . S
C1148 C9 1.490 . S
C1165 C169 1.534 . S
C1184 C43 1.483 . S
C1201 C77 1.498 . S
C1220 C407 1.531 . S
C1237 C373 1.534 . S
C1256 C111 1.518 . S
C1273 C67 1.534 . S
C1292 C145 1.488 . S
C1309 C33 1.534 . S
C1328 C179 1.487 . S
C1345 C213 1.498 . S
C1364 C543 1.525 . S
C1381 C247 1.501 . S
C1400 C509 1.534 . S
C1417 C281 1.502 . S
C1436 C475 1.532 . S
C1453 C441 1.533 . S
C1472 C315 1.509 . S
C1489 C135 1.534 . S
C1508 C349 1.518 . S
C1525 C101 1.534 . S
C1544 C383 1.518 . S
C1561 C339 1.532 . S
C1580 C417 1.514 . S
C1597 C305 1.532 . S
C1616 C451 1.510 . S
C1633 C271 1.534 . S
C1652 C485 1.497 . S
C1669 C237 1.532 . S
C1688 C519 1.481 . S
C1705 C444 1.674 . S
C1724 C2 1.674 1_554 S
C1741 C36 1.672 . S
C1760 C410 1.671 . S
C1777 C70 1.674 . S
C1796 C104 1.665 . S
C1813 C308 1.674 . S
C1832 C138 1.668 . S
C1849 C172 1.673 . S
C1868 C274 1.670 . S
C1885 C206 1.673 . S
C1904 C240 1.669 . S
C1921 C376 1.673 . S
C1940 C342 1.669 . S
C1957 C512 1.673 . S
C1976 C478 1.666 . S
