# Generated by pormake.
# Topology pyr-e, (6)-cn, num edge types: 1
# Building blocks:
#     Node 0, Type 0, BuildingBlock: OJICUG_clean_sbu_0, # of connection points: 6
#     Node 1, Type 0, BuildingBlock: OJICUG_clean_sbu_0, # of connection points: 6
#     Node 2, Type 0, BuildingBlock: OJICUG_clean_sbu_0, # of connection points: 6
#     Node 3, Type 0, BuildingBlock: OJICUG_clean_sbu_0, # of connection points: 6
#     Node 4, Type 0, BuildingBlock: OJICUG_clean_sbu_0, # of connection points: 6
#     Node 5, Type 0, BuildingBlock: OJICUG_clean_sbu_0, # of connection points: 6
#     Node 6, Type 0, BuildingBlock: OJICUG_clean_sbu_0, # of connection points: 6
#     Node 7, Type 0, BuildingBlock: OJICUG_clean_sbu_0, # of connection points: 6
#     Node 8, Type 0, BuildingBlock: OJICUG_clean_sbu_0, # of connection points: 6
#     Node 9, Type 0, BuildingBlock: OJICUG_clean_sbu_0, # of connection points: 6
#     Node 10, Type 0, BuildingBlock: OJICUG_clean_sbu_0, # of connection points: 6
#     Node 11, Type 0, BuildingBlock: OJICUG_clean_sbu_0, # of connection points: 6
#     Node 12, Type 0, BuildingBlock: OJICUG_clean_sbu_0, # of connection points: 6
#     Node 13, Type 0, BuildingBlock: OJICUG_clean_sbu_0, # of connection points: 6
#     Node 14, Type 0, BuildingBlock: OJICUG_clean_sbu_0, # of connection points: 6
#     Node 15, Type 0, BuildingBlock: OJICUG_clean_sbu_0, # of connection points: 6
#     Node 16, Type 0, BuildingBlock: OJICUG_clean_sbu_0, # of connection points: 6
#     Node 17, Type 0, BuildingBlock: OJICUG_clean_sbu_0, # of connection points: 6
#     Node 18, Type 0, BuildingBlock: OJICUG_clean_sbu_0, # of connection points: 6
#     Node 19, Type 0, BuildingBlock: OJICUG_clean_sbu_0, # of connection points: 6
#     Node 20, Type 0, BuildingBlock: OJICUG_clean_sbu_0, # of connection points: 6
#     Node 21, Type 0, BuildingBlock: OJICUG_clean_sbu_0, # of connection points: 6
#     Node 22, Type 0, BuildingBlock: OJICUG_clean_sbu_0, # of connection points: 6
#     Node 23, Type 0, BuildingBlock: OJICUG_clean_sbu_0, # of connection points: 6
#     Edge 24, Type (0, 0), BuildingBlock: CIFDUS_clean_linker_0, # of connection points: 2
#     Edge 25, Type (0, 0), BuildingBlock: CIFDUS_clean_linker_0, # of connection points: 2
#     Edge 26, Type (0, 0), BuildingBlock: CIFDUS_clean_linker_0, # of connection points: 2
#     Edge 27, Type (0, 0), BuildingBlock: CIFDUS_clean_linker_0, # of connection points: 2
#     Edge 28, Type (0, 0), BuildingBlock: CIFDUS_clean_linker_0, # of connection points: 2
#     Edge 29, Type (0, 0), BuildingBlock: CIFDUS_clean_linker_0, # of connection points: 2
#     Edge 30, Type (0, 0), BuildingBlock: CIFDUS_clean_linker_0, # of connection points: 2
#     Edge 31, Type (0, 0), BuildingBlock: CIFDUS_clean_linker_0, # of connection points: 2
#     Edge 32, Type (0, 0), BuildingBlock: CIFDUS_clean_linker_0, # of connection points: 2
#     Edge 33, Type (0, 0), BuildingBlock: CIFDUS_clean_linker_0, # of connection points: 2
#     Edge 34, Type (0, 0), BuildingBlock: CIFDUS_clean_linker_0, # of connection points: 2
#     Edge 35, Type (0, 0), BuildingBlock: CIFDUS_clean_linker_0, # of connection points: 2
#     Edge 36, Type (0, 0), BuildingBlock: CIFDUS_clean_linker_0, # of connection points: 2
#     Edge 37, Type (0, 0), BuildingBlock: CIFDUS_clean_linker_0, # of connection points: 2
#     Edge 38, Type (0, 0), BuildingBlock: CIFDUS_clean_linker_0, # of connection points: 2
#     Edge 39, Type (0, 0), BuildingBlock: CIFDUS_clean_linker_0, # of connection points: 2
#     Edge 40, Type (0, 0), BuildingBlock: CIFDUS_clean_linker_0, # of connection points: 2
#     Edge 41, Type (0, 0), BuildingBlock: CIFDUS_clean_linker_0, # of connection points: 2
#     Edge 42, Type (0, 0), BuildingBlock: CIFDUS_clean_linker_0, # of connection points: 2
#     Edge 43, Type (0, 0), BuildingBlock: CIFDUS_clean_linker_0, # of connection points: 2
#     Edge 44, Type (0, 0), BuildingBlock: CIFDUS_clean_linker_0, # of connection points: 2
#     Edge 45, Type (0, 0), BuildingBlock: CIFDUS_clean_linker_0, # of connection points: 2
#     Edge 46, Type (0, 0), BuildingBlock: CIFDUS_clean_linker_0, # of connection points: 2
#     Edge 47, Type (0, 0), BuildingBlock: CIFDUS_clean_linker_0, # of connection points: 2
#     Edge 48, Type (0, 0), BuildingBlock: CIFDUS_clean_linker_0, # of connection points: 2
#     Edge 49, Type (0, 0), BuildingBlock: CIFDUS_clean_linker_0, # of connection points: 2
#     Edge 50, Type (0, 0), BuildingBlock: CIFDUS_clean_linker_0, # of connection points: 2
#     Edge 51, Type (0, 0), BuildingBlock: CIFDUS_clean_linker_0, # of connection points: 2
#     Edge 52, Type (0, 0), BuildingBlock: CIFDUS_clean_linker_0, # of connection points: 2
#     Edge 53, Type (0, 0), BuildingBlock: CIFDUS_clean_linker_0, # of connection points: 2
#     Edge 54, Type (0, 0), BuildingBlock: CIFDUS_clean_linker_0, # of connection points: 2
#     Edge 55, Type (0, 0), BuildingBlock: CIFDUS_clean_linker_0, # of connection points: 2
#     Edge 56, Type (0, 0), BuildingBlock: CIFDUS_clean_linker_0, # of connection points: 2
#     Edge 57, Type (0, 0), BuildingBlock: CIFDUS_clean_linker_0, # of connection points: 2
#     Edge 58, Type (0, 0), BuildingBlock: CIFDUS_clean_linker_0, # of connection points: 2
#     Edge 59, Type (0, 0), BuildingBlock: CIFDUS_clean_linker_0, # of connection points: 2
#     Edge 60, Type (0, 0), BuildingBlock: CIFDUS_clean_linker_0, # of connection points: 2
#     Edge 61, Type (0, 0), BuildingBlock: CIFDUS_clean_linker_0, # of connection points: 2
#     Edge 62, Type (0, 0), BuildingBlock: CIFDUS_clean_linker_0, # of connection points: 2
#     Edge 63, Type (0, 0), BuildingBlock: CIFDUS_clean_linker_0, # of connection points: 2
#     Edge 64, Type (0, 0), BuildingBlock: CIFDUS_clean_linker_0, # of connection points: 2
#     Edge 65, Type (0, 0), BuildingBlock: CIFDUS_clean_linker_0, # of connection points: 2
#     Edge 66, Type (0, 0), BuildingBlock: CIFDUS_clean_linker_0, # of connection points: 2
#     Edge 67, Type (0, 0), BuildingBlock: CIFDUS_clean_linker_0, # of connection points: 2
#     Edge 68, Type (0, 0), BuildingBlock: CIFDUS_clean_linker_0, # of connection points: 2
#     Edge 69, Type (0, 0), BuildingBlock: CIFDUS_clean_linker_0, # of connection points: 2
#     Edge 70, Type (0, 0), BuildingBlock: CIFDUS_clean_linker_0, # of connection points: 2
#     Edge 71, Type (0, 0), BuildingBlock: CIFDUS_clean_linker_0, # of connection points: 2
#     Edge 72, Type (0, 0), BuildingBlock: CIFDUS_clean_linker_0, # of connection points: 2
#     Edge 73, Type (0, 0), BuildingBlock: CIFDUS_clean_linker_0, # of connection points: 2
#     Edge 74, Type (0, 0), BuildingBlock: CIFDUS_clean_linker_0, # of connection points: 2
#     Edge 75, Type (0, 0), BuildingBlock: CIFDUS_clean_linker_0, # of connection points: 2
#     Edge 76, Type (0, 0), BuildingBlock: CIFDUS_clean_linker_0, # of connection points: 2
#     Edge 77, Type (0, 0), BuildingBlock: CIFDUS_clean_linker_0, # of connection points: 2
#     Edge 78, Type (0, 0), BuildingBlock: CIFDUS_clean_linker_0, # of connection points: 2
#     Edge 79, Type (0, 0), BuildingBlock: CIFDUS_clean_linker_0, # of connection points: 2
#     Edge 80, Type (0, 0), BuildingBlock: CIFDUS_clean_linker_0, # of connection points: 2
#     Edge 81, Type (0, 0), BuildingBlock: CIFDUS_clean_linker_0, # of connection points: 2
#     Edge 82, Type (0, 0), BuildingBlock: CIFDUS_clean_linker_0, # of connection points: 2
#     Edge 83, Type (0, 0), BuildingBlock: CIFDUS_clean_linker_0, # of connection points: 2
#     Edge 84, Type (0, 0), BuildingBlock: CIFDUS_clean_linker_0, # of connection points: 2
#     Edge 85, Type (0, 0), BuildingBlock: CIFDUS_clean_linker_0, # of connection points: 2
#     Edge 86, Type (0, 0), BuildingBlock: CIFDUS_clean_linker_0, # of connection points: 2
#     Edge 87, Type (0, 0), BuildingBlock: CIFDUS_clean_linker_0, # of connection points: 2
#     Edge 88, Type (0, 0), BuildingBlock: CIFDUS_clean_linker_0, # of connection points: 2
#     Edge 89, Type (0, 0), BuildingBlock: CIFDUS_clean_linker_0, # of connection points: 2
#     Edge 90, Type (0, 0), BuildingBlock: CIFDUS_clean_linker_0, # of connection points: 2
#     Edge 91, Type (0, 0), BuildingBlock: CIFDUS_clean_linker_0, # of connection points: 2
#     Edge 92, Type (0, 0), BuildingBlock: CIFDUS_clean_linker_0, # of connection points: 2
#     Edge 93, Type (0, 0), BuildingBlock: CIFDUS_clean_linker_0, # of connection points: 2
#     Edge 94, Type (0, 0), BuildingBlock: CIFDUS_clean_linker_0, # of connection points: 2
#     Edge 95, Type (0, 0), BuildingBlock: CIFDUS_clean_linker_0, # of connection points: 2
# Relax obj value: 0.593
# Max RMSD: 0.261
# Mean RMSD: 0.261
data_MOF--net-pyr-e--node1-OJICUG_clean_sbu_0--edge1-CIFDUS_clean_linker_0
_symmetry_space_group_name_H-M    P1
_symmetry_Int_Tables_number       1
_symmetry_cell_setting            triclinic
loop_
_symmetry_equiv_pos_as_xyz
'x, y, z'
_cell_length_a     38.917325
_cell_length_b     38.915071
_cell_length_c     38.926802
_cell_angle_alpha  90.010386
_cell_angle_beta   90.02184
_cell_angle_gamma 90.072103
loop_
_atom_site_label
_atom_site_type_symbol
_atom_site_fract_x
_atom_site_fract_y
_atom_site_fract_z
_atom_type_partial_charge
Sc0 Sc 0.96855 0.21684 0.97072 0.0
Sc1 Sc 0.0266 0.22271 0.0413 0.0
Sc2 Sc 0.98155 0.29441 0.01608 0.0
O3 O 0.99216 0.24444 0.00904 0.0
C4 C 0.98768 0.28753 0.93448 0.0
C5 C 0.04169 0.18171 0.97176 0.0
C6 C 0.06371 0.29224 0.02502 0.0
C7 C 0.96451 0.16934 0.03776 0.0
C8 C 0.90767 0.26593 0.99501 0.0
C9 C 0.98932 0.27411 0.09323 0.0
O10 O 0.98031 0.25565 0.93212 0.0
O11 O 0.04778 0.19083 0.00232 0.0
O12 O 0.03508 0.30804 0.02353 0.0
O13 O 0.95554 0.17631 0.00696 0.0
O14 O 0.92761 0.28717 0.00957 0.0
O15 O 0.01211 0.25174 0.08669 0.0
O16 O 0.91832 0.23946 0.97916 0.0
O17 O 0.98862 0.18472 0.05389 0.0
O18 O 0.97267 0.2893 0.06983 0.0
O19 O 0.0146 0.18982 0.95562 0.0
O20 O 0.98859 0.30362 0.96285 0.0
O21 O 0.0659 0.25985 0.0287 0.0
Sc22 Sc 0.51879 0.78179 0.46486 0.0
Sc23 Sc 0.45335 0.7735 0.52705 0.0
Sc24 Sc 0.50489 0.70426 0.50578 0.0
O25 O 0.4921 0.75339 0.49945 0.0
C26 C 0.50983 0.71482 0.42409 0.0
C27 C 0.44412 0.81544 0.45939 0.0
C28 C 0.42358 0.70065 0.50348 0.0
C29 C 0.51459 0.83004 0.52859 0.0
C30 C 0.577 0.73076 0.4933 0.0
C31 C 0.48588 0.72477 0.58308 0.0
O32 O 0.50415 0.7471 0.42386 0.0
O33 O 0.43117 0.79608 0.48214 0.0
O34 O 0.45303 0.68855 0.49607 0.0
O35 O 0.53339 0.81687 0.50517 0.0
O36 O 0.55693 0.71824 0.51563 0.0
O37 O 0.47064 0.75265 0.57571 0.0
O38 O 0.56623 0.75184 0.47066 0.0
O39 O 0.48473 0.81886 0.5368 0.0
O40 O 0.49741 0.70439 0.56043 0.0
O41 O 0.47614 0.81602 0.45289 0.0
O42 O 0.51496 0.69791 0.45165 0.0
O43 O 0.41937 0.72972 0.51809 0.0
Sc44 Sc 0.48033 0.20228 0.99126 0.0
Sc45 Sc 0.53385 0.26972 0.96768 0.0
Sc46 Sc 0.46641 0.28278 0.02808 0.0
O47 O 0.49363 0.25193 0.99553 0.0
C48 C 0.40782 0.23498 0.99426 0.0
C49 C 0.50371 0.2167 0.91393 0.0
C50 C 0.47503 0.3277 0.9603 0.0
C51 C 0.56161 0.19881 0.99797 0.0
C52 C 0.47165 0.21535 0.07193 0.0
C53 C 0.54211 0.31348 0.03635 0.0
O54 O 0.429 0.21559 0.97903 0.0
O55 O 0.52056 0.24384 0.92033 0.0
O56 O 0.45779 0.31963 0.98707 0.0
O57 O 0.53164 0.18674 0.00307 0.0
O58 O 0.47516 0.24791 0.07101 0.0
O59 O 0.55379 0.29783 0.01034 0.0
O60 O 0.46864 0.19726 0.04493 0.0
O61 O 0.56714 0.22763 0.98333 0.0
O62 O 0.51066 0.31249 0.04509 0.0
O63 O 0.48916 0.19922 0.93716 0.0
O64 O 0.41708 0.25762 0.01617 0.0
O65 O 0.50273 0.31269 0.95109 0.0
Sc66 Sc 0.03421 0.80187 0.49898 0.0
Sc67 Sc 0.97513 0.74028 0.47373 0.0
Sc68 Sc 0.03966 0.72072 0.53425 0.0
O69 O 0.01581 0.75425 0.50232 0.0
C70 C 0.10304 0.76568 0.50884 0.0
C71 C 0.01298 0.78934 0.42089 0.0
C72 C 0.03262 0.68162 0.46396 0.0
C73 C 0.95332 0.81395 0.50189 0.0
C74 C 0.0344 0.78577 0.57978 0.0
C75 C 0.96276 0.69195 0.53668 0.0
O76 O 0.08447 0.78297 0.48861 0.0
O77 O 0.99272 0.76454 0.42698 0.0
O78 O 0.05148 0.68899 0.48991 0.0
O79 O 0.98416 0.82317 0.50801 0.0
O80 O 0.02706 0.75377 0.57766 0.0
O81 O 0.95142 0.71422 0.51587 0.0
O82 O 0.04299 0.80372 0.55373 0.0
O83 O 0.94565 0.78521 0.4881 0.0
O84 O 0.99455 0.68918 0.54348 0.0
O85 O 0.02845 0.80561 0.44448 0.0
O86 O 0.08998 0.74572 0.53117 0.0
O87 O 0.00337 0.6953 0.4579 0.0
Sc88 Sc 0.96578 0.96528 0.21517 0.0
Sc89 Sc 0.02851 0.03199 0.22444 0.0
Sc90 Sc 0.00012 0.98742 0.29613 0.0
O91 O 0.9979 0.99489 0.24505 0.0
C92 C 0.91996 0.9823 0.28127 0.0
C93 C 0.95943 0.03894 0.18042 0.0
C94 C 0.00572 0.06974 0.29241 0.0
C95 C 0.03504 0.96932 0.17137 0.0
C96 C 0.99137 0.91027 0.26971 0.0
C97 C 0.0789 0.99822 0.27924 0.0
O98 O 0.92271 0.97216 0.25023 0.0
O99 O 0.98774 0.04982 0.19239 0.0
O100 O 0.00148 0.04123 0.30771 0.0
O101 O 0.00605 0.95542 0.17774 0.0
O102 O 0.99931 0.93305 0.29152 0.0
O103 O 0.07354 0.01864 0.25435 0.0
O104 O 0.97894 0.9172 0.24033 0.0
O105 O 0.04601 0.99624 0.18636 0.0
O106 O 0.05489 0.98375 0.29586 0.0
O107 O 0.94773 0.00894 0.18585 0.0
O108 O 0.94542 0.98956 0.30037 0.0
O109 O 0.01388 0.07153 0.26087 0.0
Sc110 Sc 0.51528 0.02579 0.71946 0.0
Sc111 Sc 0.46077 0.95304 0.72676 0.0
Sc112 Sc 0.48548 0.99867 0.79919 0.0
O113 O 0.4871 0.99231 0.74823 0.0
C114 C 0.56426 0.01448 0.78115 0.0
C115 C 0.52543 0.95594 0.67779 0.0
C116 C 0.49706 0.91826 0.79115 0.0
C117 C 0.4443 0.01986 0.68077 0.0
C118 C 0.48345 0.07491 0.77751 0.0
C119 C 0.40892 0.97224 0.78576 0.0
O120 O 0.56129 0.01405 0.74857 0.0
O121 O 0.50287 0.9397 0.69459 0.0
O122 O 0.50179 0.94664 0.80674 0.0
O123 O 0.47001 0.0381 0.68984 0.0
O124 O 0.46916 0.05054 0.79369 0.0
O125 O 0.41461 0.96015 0.75616 0.0
O126 O 0.50467 0.06976 0.75309 0.0
O127 O 0.43955 0.9887 0.68999 0.0
O128 O 0.43215 0.98546 0.80435 0.0
O129 O 0.5307 0.98798 0.68126 0.0
O130 O 0.53861 0.01375 0.80138 0.0
O131 O 0.48042 0.91561 0.76306 0.0
Sc132 Sc 0.49726 0.53286 0.70033 0.0
Sc133 Sc 0.5304 0.47701 0.76051 0.0
Sc134 Sc 0.46892 0.53889 0.78448 0.0
O135 O 0.49869 0.51577 0.74845 0.0
C136 C 0.48829 0.60216 0.73546 0.0
C137 C 0.57719 0.51745 0.70857 0.0
C138 C 0.54101 0.53368 0.81955 0.0
C139 C 0.49919 0.45243 0.68856 0.0
C140 C 0.41817 0.53369 0.72409 0.0
C141 C 0.46986 0.4607 0.81032 0.0
O142 O 0.50795 0.58361 0.71752 0.0
O143 O 0.57447 0.49909 0.73533 0.0
O144 O 0.51478 0.55228 0.81305 0.0
O145 O 0.48798 0.48212 0.68053 0.0
O146 O 0.42305 0.52607 0.75561 0.0
O147 O 0.49004 0.45096 0.78674 0.0
O148 O 0.44249 0.5406 0.70328 0.0
O149 O 0.51701 0.44698 0.71549 0.0
O150 O 0.46311 0.4923 0.8157 0.0
O151 O 0.55139 0.52855 0.6921 0.0
O152 O 0.46885 0.58923 0.75845 0.0
O153 O 0.5465 0.50437 0.8059 0.0
Sc154 Sc 0.00441 0.48803 0.20435 0.0
Sc155 Sc 0.97072 0.53045 0.27455 0.0
Sc156 Sc 0.03513 0.46645 0.28696 0.0
O157 O 0.00376 0.49501 0.25554 0.0
C158 C 0.01746 0.41119 0.2296 0.0
C159 C 0.92507 0.49513 0.21596 0.0
C160 C 0.96168 0.46477 0.32313 0.0
C161 C 0.99511 0.56992 0.20918 0.0
C162 C 0.08366 0.49069 0.22515 0.0
C163 C 0.03385 0.5379 0.32678 0.0
O164 O 0.00867 0.43356 0.20777 0.0
O165 O 0.92866 0.51695 0.24007 0.0
O166 O 0.99164 0.45199 0.31913 0.0
O167 O 0.99902 0.54194 0.19282 0.0
O168 O 0.08024 0.47946 0.25587 0.0
O169 O 0.0071 0.54876 0.31167 0.0
O170 O 0.05871 0.4949 0.20445 0.0
O171 O 0.98793 0.57101 0.24094 0.0
O172 O 0.04711 0.50875 0.32082 0.0
O173 O 0.95029 0.48017 0.20187 0.0
O174 O 0.02812 0.41866 0.25943 0.0
O175 O 0.95151 0.49244 0.30904 0.0
Sc176 Sc 0.22182 0.97296 0.97723 0.0
Sc177 Sc 0.23106 0.03513 0.0427 0.0
Sc178 Sc 0.29641 0.02057 0.98424 0.0
O179 O 0.24972 0.00957 0.00198 0.0
C180 C 0.29235 0.93768 0.98283 0.0
C181 C 0.19228 0.96521 0.05317 0.0
C182 C 0.30795 0.01885 0.06536 0.0
C183 C 0.17233 0.03586 0.98352 0.0
C184 C 0.26412 0.00522 0.91498 0.0
C185 C 0.27374 0.09557 0.00823 0.0
O186 O 0.26037 0.93517 0.98976 0.0
O187 O 0.21041 0.98946 0.06503 0.0
O188 O 0.31802 0.01519 0.03444 0.0
O189 O 0.18384 0.01115 0.96526 0.0
O190 O 0.27668 0.02843 0.93385 0.0
O191 O 0.24996 0.08515 0.02791 0.0
O192 O 0.24736 0.98019 0.92768 0.0
O193 O 0.18498 0.04515 0.01253 0.0
O194 O 0.29234 0.07522 0.99091 0.0
O195 O 0.19097 0.95829 0.02135 0.0
O196 O 0.30675 0.9663 0.97546 0.0
O197 O 0.27703 0.02634 0.07338 0.0
Sc198 Sc 0.71919 0.52525 0.0324 0.0
Sc199 Sc 0.71999 0.45789 0.96999 0.0
Sc200 Sc 0.79562 0.48291 0.01028 0.0
O201 O 0.74468 0.48869 0.00423 0.0
C202 C 0.78625 0.56462 0.00873 0.0
C203 C 0.67769 0.52735 0.96174 0.0
C204 C 0.78774 0.47724 0.92863 0.0
C205 C 0.67108 0.4594 0.03692 0.0
C206 C 0.77524 0.49902 0.08672 0.0
C207 C 0.77311 0.4048 0.0019 0.0
O208 O 0.75406 0.5657 0.01497 0.0
O209 O 0.69082 0.5 0.94982 0.0
O210 O 0.80448 0.48386 0.95587 0.0
O211 O 0.6826 0.48701 0.05051 0.0
O212 O 0.79206 0.48183 0.06483 0.0
O213 O 0.74564 0.41089 0.98542 0.0
O214 O 0.75002 0.51812 0.07856 0.0
O215 O 0.6815 0.4473 0.0083 0.0
O216 O 0.79323 0.42823 0.01216 0.0
O217 O 0.68399 0.53866 0.99166 0.0
O218 O 0.80354 0.53699 0.00936 0.0
O219 O 0.75682 0.46652 0.92888 0.0
Sc220 Sc 0.70081 0.49613 0.50867 0.0
Sc221 Sc 0.7668 0.53181 0.46005 0.0
Sc222 Sc 0.78636 0.48054 0.53374 0.0
O223 O 0.75152 0.50265 0.50076 0.0
C224 C 0.72726 0.50278 0.58549 0.0
C225 C 0.70355 0.57536 0.48823 0.0
C226 C 0.81683 0.55537 0.52162 0.0
C227 C 0.70443 0.49046 0.42674 0.0
C228 C 0.731 0.4214 0.52391 0.0
C229 C 0.82362 0.47264 0.46122 0.0
O230 O 0.70505 0.50681 0.56206 0.0
O231 O 0.73105 0.57341 0.47071 0.0
O232 O 0.81345 0.5288 0.54045 0.0
O233 O 0.69083 0.48442 0.45577 0.0
O234 O 0.76197 0.43033 0.52977 0.0
O235 O 0.80483 0.49427 0.44547 0.0
O236 O 0.70706 0.44238 0.51697 0.0
O237 O 0.73185 0.508 0.42341 0.0
O238 O 0.82081 0.46624 0.49306 0.0
O239 O 0.6898 0.54952 0.50253 0.0
O240 O 0.75736 0.49162 0.57989 0.0
O241 O 0.80262 0.55875 0.49235 0.0
Sc242 Sc 0.20066 0.98516 0.47831 0.0
Sc243 Sc 0.27051 0.97006 0.53132 0.0
Sc244 Sc 0.27413 0.03449 0.46721 0.0
O245 O 0.2485 0.99658 0.49265 0.0
C246 C 0.22802 0.00425 0.40659 0.0
C247 C 0.22864 0.91021 0.49491 0.0
C248 C 0.32593 0.97255 0.46943 0.0
C249 C 0.1952 0.98211 0.56031 0.0
C250 C 0.20253 0.06812 0.47965 0.0
C251 C 0.30765 0.04073 0.54163 0.0
O252 O 0.21485 0.98148 0.42562 0.0
O253 O 0.25257 0.92005 0.51476 0.0
O254 O 0.31254 0.99708 0.45213 0.0
O255 O 0.18271 0.98638 0.53038 0.0
O256 O 0.23514 0.07165 0.48244 0.0
O257 O 0.29074 0.01577 0.55385 0.0
O258 O 0.18823 0.03905 0.47435 0.0
O259 O 0.22688 0.97584 0.56562 0.0
O260 O 0.30674 0.04864 0.51005 0.0
O261 O 0.20814 0.93085 0.48033 0.0
O262 O 0.24685 0.02799 0.41874 0.0
O263 O 0.31517 0.96266 0.49888 0.0
Sc264 Sc 0.02475 0.77591 0.02359 0.0
Sc265 Sc 0.96735 0.76599 0.95313 0.0
Sc266 Sc 0.01927 0.69843 0.97701 0.0
O267 O 0.00373 0.74692 0.98493 0.0
C268 C 0.08965 0.73082 0.00262 0.0
C269 C 0.02764 0.82212 0.95599 0.0
C270 C 0.01076 0.72065 0.90034 0.0
C271 C 0.94896 0.8061 0.02187 0.0
C272 C 0.00731 0.70415 0.05849 0.0
C273 C 0.93751 0.69278 0.96535 0.0
O274 O 0.07588 0.75487 0.01965 0.0
O275 O 0.00182 0.80745 0.94206 0.0
O276 O 0.02858 0.70599 0.92332 0.0
O277 O 0.97804 0.80307 0.03613 0.0
O278 O 0.01095 0.68786 0.03032 0.0
O279 O 0.9318 0.72482 0.96318 0.0
O280 O 0.01104 0.73672 0.06139 0.0
O281 O 0.94213 0.79374 0.99268 0.0
O282 O 0.96764 0.68024 0.9675 0.0
O283 O 0.03923 0.81481 0.98589 0.0
O284 O 0.07245 0.7097 0.98484 0.0
O285 O 0.98581 0.74036 0.90746 0.0
Sc286 Sc 0.48479 0.22554 0.52239 0.0
Sc287 Sc 0.55344 0.21807 0.46328 0.0
Sc288 Sc 0.51749 0.29771 0.48048 0.0
O289 O 0.5186 0.24696 0.48877 0.0
C290 C 0.439 0.2825 0.48464 0.0
C291 C 0.48432 0.17322 0.46066 0.0
C292 C 0.53354 0.26958 0.40491 0.0
C293 C 0.55344 0.18326 0.53634 0.0
C294 C 0.50198 0.2934 0.56136 0.0
C295 C 0.59719 0.28427 0.48376 0.0
O296 O 0.44317 0.25943 0.50746 0.0
O297 O 0.5158 0.17852 0.45356 0.0
O298 O 0.52742 0.29323 0.42648 0.0
O299 O 0.52173 0.18867 0.54198 0.0
O300 O 0.50606 0.30913 0.53306 0.0
O301 O 0.59476 0.25484 0.46975 0.0
O302 O 0.49891 0.26085 0.56336 0.0
O303 O 0.56933 0.19489 0.51037 0.0
O304 O 0.5713 0.30227 0.49228 0.0
O305 O 0.46777 0.18997 0.48331 0.0
O306 O 0.46391 0.29602 0.46845 0.0
O307 O 0.54099 0.23905 0.4135 0.0
Sc308 Sc 0.52756 0.79138 0.99363 0.0
Sc309 Sc 0.46972 0.73253 0.02602 0.0
Sc310 Sc 0.53317 0.70714 0.96636 0.0
O311 O 0.50955 0.74361 0.99527 0.0
C312 C 0.52859 0.76687 0.91505 0.0
C313 C 0.44728 0.80428 0.99215 0.0
C314 C 0.45536 0.68133 0.96528 0.0
C315 C 0.50894 0.78582 0.07306 0.0
C316 C 0.59625 0.75519 0.98745 0.0
C317 C 0.52621 0.67314 0.03885 0.0
O318 O 0.53693 0.78751 0.9391 0.0
O319 O 0.44042 0.7775 0.0099 0.0
O320 O 0.48708 0.67613 0.95944 0.0
O321 O 0.52176 0.80099 0.0473 0.0
O322 O 0.58369 0.73277 0.96713 0.0
O323 O 0.49727 0.68776 0.04427 0.0
O324 O 0.57721 0.77308 0.0066 0.0
O325 O 0.49 0.75938 0.07035 0.0
O326 O 0.54506 0.67881 0.01258 0.0
O327 O 0.47763 0.8118 0.98242 0.0
O328 O 0.52065 0.73555 0.92039 0.0
O329 O 0.44484 0.70454 0.9856 0.0
Sc330 Sc 0.96153 0.20506 0.51419 0.0
Sc331 Sc 0.02037 0.26922 0.53122 0.0
Sc332 Sc 0.95459 0.28051 0.46977 0.0
O333 O 0.97938 0.25205 0.50553 0.0
C334 C 0.96134 0.21035 0.43518 0.0
C335 C 0.04204 0.19336 0.50699 0.0
C336 C 0.03046 0.31078 0.46271 0.0
C337 C 0.98729 0.22324 0.58934 0.0
C338 C 0.89317 0.23994 0.50583 0.0
C339 C 0.96181 0.32836 0.53435 0.0
O340 O 0.94521 0.20038 0.46164 0.0
O341 O 0.04985 0.2227 0.5198 0.0
O342 O 0.99862 0.31162 0.45571 0.0
O343 O 0.97285 0.20391 0.56761 0.0
O344 O 0.90484 0.25499 0.47909 0.0
O345 O 0.99082 0.31519 0.54289 0.0
O346 O 0.9132 0.22662 0.52769 0.0
O347 O 0.00467 0.24946 0.58085 0.0
O348 O 0.94324 0.31791 0.50924 0.0
O349 O 0.01102 0.18379 0.50178 0.0
O350 O 0.96904 0.24199 0.43137 0.0
O351 O 0.04266 0.29171 0.48611 0.0
Sc352 Sc 0.99923 0.02377 0.70854 0.0
Sc353 Sc 0.97699 0.97107 0.77663 0.0
Sc354 Sc 0.03633 0.03906 0.7871 0.0
O355 O 0.00356 0.01103 0.75786 0.0
C356 C 0.07808 0.02674 0.72131 0.0
C357 C 0.00773 0.94226 0.706 0.0
C358 C 0.04183 0.96687 0.82472 0.0
C359 C 0.92273 0.99802 0.72239 0.0
C360 C 0.00538 0.09589 0.73671 0.0
C361 C 0.96837 0.03427 0.83042 0.0
O362 O 0.05214 0.03938 0.70619 0.0
O363 O 0.9925 0.93719 0.73469 0.0
O364 O 0.04817 0.99874 0.82312 0.0
O365 O 0.94581 0.01195 0.70421 0.0
O366 O 0.0294 0.0858 0.75656 0.0
O367 O 0.96113 0.00432 0.81864 0.0
O368 O 0.98485 0.07479 0.72269 0.0
O369 O 0.92919 0.98322 0.7507 0.0
O370 O 0.99376 0.05267 0.82028 0.0
O371 O 0.01345 0.9722 0.69374 0.0
O372 O 0.07844 0.02254 0.75382 0.0
O373 O 0.02032 0.95217 0.80514 0.0
Sc374 Sc 0.51651 0.98118 0.2048 0.0
Sc375 Sc 0.53348 0.03556 0.27306 0.0
Sc376 Sc 0.47978 0.96338 0.28273 0.0
O377 O 0.51036 0.99387 0.25375 0.0
C378 C 0.4369 0.97549 0.21802 0.0
C379 C 0.50321 0.06221 0.20146 0.0
C380 C 0.47027 0.03426 0.32203 0.0
C381 C 0.59102 0.01136 0.22066 0.0
C382 C 0.51089 0.90876 0.23042 0.0
C383 C 0.54783 0.9711 0.32431 0.0
O384 O 0.46345 0.96527 0.20182 0.0
O385 O 0.51589 0.06861 0.23113 0.0
O386 O 0.4676 0.00185 0.32086 0.0
O387 O 0.56993 0.99446 0.20246 0.0
O388 O 0.48671 0.9179 0.25042 0.0
O389 O 0.55175 0.00248 0.31467 0.0
O390 O 0.53218 0.9306 0.2191 0.0
O391 O 0.58222 0.02739 0.24762 0.0
O392 O 0.52425 0.95096 0.31323 0.0
O393 O 0.50123 0.03192 0.18901 0.0
O394 O 0.43672 0.97881 0.25068 0.0
O395 O 0.48828 0.05091 0.30067 0.0
Sc396 Sc 0.52475 0.45751 0.21413 0.0
Sc397 Sc 0.46939 0.52796 0.22886 0.0
Sc398 Sc 0.49599 0.47638 0.29643 0.0
O399 O 0.49671 0.48762 0.24636 0.0
C400 C 0.49742 0.40234 0.2683 0.0
C401 C 0.45289 0.46499 0.1776 0.0
C402 C 0.41839 0.50074 0.28586 0.0
C403 C 0.53144 0.53043 0.17717 0.0
C404 C 0.57514 0.46648 0.27553 0.0
C405 C 0.50331 0.55791 0.29713 0.0
O406 O 0.51808 0.41074 0.24441 0.0
O407 O 0.44888 0.4956 0.18878 0.0
O408 O 0.44222 0.4863 0.3027 0.0
O409 O 0.53653 0.49821 0.17786 0.0
O410 O 0.55 0.46417 0.29635 0.0
O411 O 0.48766 0.56233 0.2687 0.0
O412 O 0.57125 0.46929 0.24305 0.0
O413 O 0.51105 0.54535 0.19767 0.0
O414 O 0.50933 0.52832 0.30978 0.0
O415 O 0.47833 0.44576 0.18545 0.0
O416 O 0.48178 0.42447 0.28624 0.0
O417 O 0.42364 0.51658 0.25791 0.0
Sc418 Sc 0.96178 0.52746 0.71721 0.0
Sc419 Sc 0.02674 0.46453 0.72704 0.0
Sc420 Sc 0.00876 0.52181 0.79266 0.0
O421 O 0.9991 0.5041 0.74553 0.0
C422 C 0.99429 0.59095 0.75784 0.0
C423 C 0.02444 0.52156 0.66677 0.0
C424 C 0.08495 0.50015 0.77158 0.0
C425 C 0.95643 0.45051 0.68942 0.0
C426 C 0.92621 0.52325 0.7881 0.0
C427 C 0.0106 0.4411 0.80363 0.0
O428 O 0.96969 0.57807 0.7405 0.0
O429 O 0.03545 0.49387 0.68063 0.0
O430 O 0.06328 0.51582 0.79007 0.0
O431 O 0.9474 0.48183 0.68853 0.0
O432 O 0.95477 0.53037 0.8025 0.0
O433 O 0.01944 0.43406 0.77289 0.0
O434 O 0.92372 0.51583 0.75627 0.0
O435 O 0.98227 0.44013 0.70618 0.0
O436 O 0.0042 0.47141 0.81423 0.0
O437 O 0.99901 0.53903 0.67785 0.0
O438 O 0.01601 0.57228 0.77315 0.0
O439 O 0.07617 0.48148 0.74632 0.0
Sc440 Sc 0.69979 0.98751 0.01278 0.0
Sc441 Sc 0.76693 0.96394 0.95943 0.0
Sc442 Sc 0.77984 0.02479 0.02615 0.0
O443 O 0.7491 0.99199 0.99921 0.0
C444 C 0.71391 0.0685 0.01913 0.0
C445 C 0.69567 0.99296 0.93136 0.0
C446 C 0.81182 0.03111 0.95077 0.0
C447 C 0.7155 0.90983 0.99135 0.0
C448 C 0.73102 0.99398 0.08507 0.0
C449 C 0.82312 0.95692 0.0202 0.0
O450 O 0.69562 0.0417 0.02351 0.0
O451 O 0.72446 0.97825 0.92591 0.0
O452 O 0.81197 0.03879 0.98252 0.0
O453 O 0.69727 0.93296 0.00517 0.0
O454 O 0.75267 0.01649 0.07504 0.0
O455 O 0.80991 0.94867 0.99123 0.0
O456 O 0.71361 0.97608 0.06426 0.0
O457 O 0.74234 0.91647 0.97422 0.0
O458 O 0.8143 0.98314 0.03776 0.0
O459 O 0.68382 0.99847 0.96133 0.0
O460 O 0.74627 0.06741 0.01449 0.0
O461 O 0.79397 0.00678 0.93858 0.0
Sc462 Sc 0.19739 0.52652 0.9979 0.0
Sc463 Sc 0.27629 0.54269 0.03506 0.0
Sc464 Sc 0.26804 0.47563 0.97291 0.0
O465 O 0.24748 0.51457 0.00196 0.0
C466 C 0.19714 0.44469 0.00235 0.0
C467 C 0.20974 0.53533 0.079 0.0
C468 C 0.31173 0.46876 0.04172 0.0
C469 C 0.22849 0.60047 0.00207 0.0
C470 C 0.21378 0.507 0.92006 0.0
C471 C 0.32228 0.53748 0.96723 0.0
O472 O 0.18395 0.47428 0.00645 0.0
O473 O 0.24229 0.53443 0.07797 0.0
O474 O 0.30026 0.45616 0.01388 0.0
O475 O 0.20811 0.57913 0.98838 0.0
O476 O 0.24044 0.48919 0.92609 0.0
O477 O 0.31208 0.55214 0.99462 0.0
O478 O 0.19621 0.52082 0.94359 0.0
O479 O 0.252 0.5917 0.02299 0.0
O480 O 0.3101 0.50908 0.9559 0.0
O481 O 0.19107 0.53541 0.05221 0.0
O482 O 0.22702 0.43997 0.98927 0.0
O483 O 0.30479 0.4989 0.0519 0.0
Sc484 Sc 0.21748 0.51225 0.47357 0.0
Sc485 Sc 0.22487 0.4513 0.54187 0.0
Sc486 Sc 0.29829 0.48842 0.5071 0.0
O487 O 0.2467 0.48412 0.50745 0.0
C488 C 0.28068 0.48786 0.42737 0.0
C489 C 0.17924 0.43972 0.47426 0.0
C490 C 0.28872 0.40766 0.51827 0.0
C491 C 0.17538 0.51663 0.54356 0.0
C492 C 0.27597 0.56606 0.49377 0.0
C493 C 0.28422 0.48443 0.58737 0.0
O494 O 0.25062 0.50048 0.43009 0.0
O495 O 0.19078 0.43154 0.50363 0.0
O496 O 0.30594 0.43425 0.51068 0.0
O497 O 0.18134 0.52703 0.51316 0.0
O498 O 0.29712 0.54283 0.50215 0.0
O499 O 0.25708 0.46652 0.58447 0.0
O500 O 0.2455 0.55986 0.48354 0.0
O501 O 0.18953 0.49049 0.55703 0.0
O502 O 0.30111 0.4955 0.56174 0.0
O503 O 0.18617 0.46805 0.45942 0.0
O504 O 0.30003 0.48172 0.45285 0.0
O505 O 0.2583 0.40877 0.5299 0.0
Sc506 Sc 0.72666 0.97683 0.53465 0.0
Sc507 Sc 0.71809 0.03557 0.4669 0.0
Sc508 Sc 0.79693 0.02283 0.50482 0.0
O509 O 0.74707 0.01208 0.50231 0.0
C510 C 0.78201 0.01555 0.58211 0.0
C511 C 0.67094 0.03318 0.53496 0.0
C512 C 0.76474 0.09679 0.48763 0.0
C513 C 0.68471 0.96366 0.46522 0.0
C514 C 0.79512 0.94137 0.51677 0.0
C515 C 0.78694 0.02056 0.42522 0.0
O516 O 0.7618 0.99021 0.57676 0.0
O517 O 0.67596 0.03962 0.50318 0.0
O518 O 0.78973 0.07658 0.49339 0.0
O519 O 0.68806 0.9593 0.49751 0.0
O520 O 0.81011 0.97048 0.51684 0.0
O521 O 0.7572 0.034 0.42715 0.0
O522 O 0.76253 0.93817 0.5172 0.0
O523 O 0.70088 0.98681 0.44903 0.0
O524 O 0.80391 0.01091 0.45139 0.0
O525 O 0.69046 0.01417 0.553 0.0
O526 O 0.79218 0.03507 0.55804 0.0
O527 O 0.73445 0.08643 0.48131 0.0
H528 H 0.93749 0.17168 0.10077 0.0
H529 H 0.95583 0.10339 0.01572 0.0
H530 H 0.94632 0.05354 0.05311 0.0
H531 H 0.94743 0.0309 0.11258 0.0
H532 H 0.93356 0.10058 0.19742 0.0
H533 H 0.92539 0.14838 0.15771 0.0
C534 C 0.93812 0.14583 0.09029 0.0
C535 C 0.94782 0.14087 0.05599 0.0
C536 C 0.93367 0.11762 0.11208 0.0
C537 C 0.94841 0.10756 0.04222 0.0
C538 C 0.94332 0.07913 0.06367 0.0
C539 C 0.94092 0.05628 0.1221 0.0
C540 C 0.94113 0.06256 0.15762 0.0
C541 C 0.93799 0.08393 0.09906 0.0
C542 C 0.93333 0.09545 0.17005 0.0
C543 C 0.92907 0.12278 0.14739 0.0
H544 H 0.55303 0.83105 0.58597 0.0
H545 H 0.50183 0.89637 0.51294 0.0
H546 H 0.50945 0.94595 0.55102 0.0
H547 H 0.5195 0.96699 0.60986 0.0
H548 H 0.5653 0.8997 0.68471 0.0
H549 H 0.57239 0.85502 0.64116 0.0
C550 C 0.54471 0.85647 0.57808 0.0
C551 C 0.52702 0.86044 0.547 0.0
C552 C 0.54817 0.88443 0.60061 0.0
C553 C 0.51571 0.8931 0.53686 0.0
C554 C 0.5199 0.92131 0.55868 0.0
C555 C 0.53257 0.94315 0.61603 0.0
C556 C 0.54212 0.93652 0.65016 0.0
C557 C 0.53462 0.91691 0.59131 0.0
C558 C 0.55817 0.9053 0.65838 0.0
C559 C 0.56174 0.87962 0.63362 0.0
H560 H 0.45772 0.46589 0.87958 0.0
H561 H 0.45641 0.39437 0.79482 0.0
H562 H 0.4535 0.34627 0.83462 0.0
H563 H 0.46158 0.32434 0.89292 0.0
H564 H 0.46261 0.39432 0.97855 0.0
H565 H 0.45507 0.44319 0.93926 0.0
C566 C 0.45561 0.43984 0.86989 0.0
C567 C 0.45789 0.43369 0.8343 0.0
C568 C 0.4546 0.412 0.8931 0.0
C569 C 0.45521 0.39976 0.82211 0.0
C570 C 0.45371 0.37218 0.84485 0.0
C571 C 0.45929 0.35027 0.90294 0.0
C572 C 0.46295 0.356 0.93829 0.0
C573 C 0.45507 0.37795 0.88029 0.0
C574 C 0.45978 0.3895 0.95128 0.0
C575 C 0.4557 0.41738 0.92881 0.0
H576 H 0.0506 0.61364 0.46691 0.0
H577 H 0.04287 0.70083 0.39905 0.0
H578 H 0.04897 0.66355 0.34916 0.0
H579 H 0.04512 0.60584 0.32506 0.0
H580 H 0.05157 0.51762 0.39148 0.0
H581 H 0.05804 0.55529 0.44163 0.0
C582 C 0.05152 0.62436 0.44121 0.0
C583 C 0.04604 0.65969 0.43638 0.0
C584 C 0.05422 0.60254 0.41242 0.0
C585 C 0.04691 0.67356 0.4031 0.0
C586 C 0.0502 0.65229 0.3746 0.0
C587 C 0.049 0.59496 0.35044 0.0
C588 C 0.04751 0.55928 0.35483 0.0
C589 C 0.05214 0.61667 0.37894 0.0
C590 C 0.05275 0.54518 0.38764 0.0
C591 C 0.05609 0.5667 0.41631 0.0
H592 H 0.10036 0.95072 0.1809 0.0
H593 H 0.02109 0.95568 0.10391 0.0
H594 H 0.06403 0.94653 0.05859 0.0
H595 H 0.12523 0.94957 0.04131 0.0
H596 H 0.20384 0.94773 0.11942 0.0
H597 H 0.16018 0.94197 0.16396 0.0
C598 C 0.09247 0.94867 0.15422 0.0
C599 C 0.05795 0.95417 0.14547 0.0
C600 C 0.11728 0.94417 0.12858 0.0
C601 C 0.04766 0.9514 0.11104 0.0
C602 C 0.07224 0.94647 0.0852 0.0
C603 C 0.13276 0.9464 0.06796 0.0
C604 C 0.16762 0.94942 0.07722 0.0
C605 C 0.10734 0.94452 0.09362 0.0
C606 C 0.17712 0.94567 0.11182 0.0
C607 C 0.15217 0.94269 0.1373 0.0
H608 H 0.44658 0.04914 0.6172 0.0
H609 H 0.37923 0.02565 0.70189 0.0
H610 H 0.3292 0.04042 0.66721 0.0
H611 H 0.30477 0.04765 0.61025 0.0
H612 H 0.3711 0.06507 0.52332 0.0
H613 H 0.42117 0.06666 0.56131 0.0
C614 C 0.42095 0.0483 0.6281 0.0
C615 C 0.4162 0.03598 0.66165 0.0
C616 C 0.39214 0.05558 0.60751 0.0
C617 C 0.38311 0.03474 0.67585 0.0
C618 C 0.35459 0.04316 0.65608 0.0
C619 C 0.33009 0.05297 0.5998 0.0
C620 C 0.3344 0.05545 0.56411 0.0
C621 C 0.35873 0.05184 0.62144 0.0
C622 C 0.36715 0.06292 0.55079 0.0
C623 C 0.39587 0.06329 0.57246 0.0
H624 H 0.53877 0.55184 0.88735 0.0
H625 H 0.60593 0.54333 0.79974 0.0
H626 H 0.65618 0.5477 0.83682 0.0
H627 H 0.68027 0.54138 0.89433 0.0
H628 H 0.61432 0.54813 0.98286 0.0
H629 H 0.56445 0.55776 0.9456 0.0
C630 C 0.56443 0.55231 0.87649 0.0
C631 C 0.56894 0.54696 0.84112 0.0
C632 C 0.59338 0.55389 0.89819 0.0
C633 C 0.60214 0.54725 0.82706 0.0
C634 C 0.63084 0.54954 0.84822 0.0
C635 C 0.65512 0.54613 0.90539 0.0
C636 C 0.65069 0.54366 0.94099 0.0
C637 C 0.62672 0.55096 0.88388 0.0
C638 C 0.61819 0.55002 0.95535 0.0
C639 C 0.58965 0.55515 0.93405 0.0
H640 H 0.96558 0.45231 0.3916 0.0
H641 H 0.90002 0.44175 0.30302 0.0
H642 H 0.84962 0.43701 0.33988 0.0
H643 H 0.82379 0.45013 0.39567 0.0
H644 H 0.88854 0.46177 0.48476 0.0
H645 H 0.93963 0.45134 0.44969 0.0
C646 C 0.94044 0.44725 0.38064 0.0
C647 C 0.93619 0.44763 0.34487 0.0
C648 C 0.91136 0.44581 0.40204 0.0
C649 C 0.9036 0.4415 0.33064 0.0
C650 C 0.87477 0.43924 0.35166 0.0
C651 C 0.84906 0.44942 0.40747 0.0
C652 C 0.85266 0.45751 0.44235 0.0
C653 C 0.87819 0.44366 0.38717 0.0
C654 C 0.8853 0.4559 0.45774 0.0
C655 C 0.91453 0.45013 0.43768 0.0
H656 H 0.17622 0.10156 0.96466 0.0
H657 H 0.10607 0.01628 0.97213 0.0
H658 H 0.05743 0.0546 0.95992 0.0
H659 H 0.03503 0.1141 0.95865 0.0
H660 H 0.10603 0.19895 0.95384 0.0
H661 H 0.15447 0.15918 0.95197 0.0
C662 C 0.15029 0.09141 0.96275 0.0
C663 C 0.14424 0.05665 0.96974 0.0
C664 C 0.12281 0.11353 0.95601 0.0
C665 C 0.11091 0.04322 0.96699 0.0
C666 C 0.08325 0.0651 0.96011 0.0
C667 C 0.06106 0.12362 0.95544 0.0
C668 C 0.06727 0.15915 0.95613 0.0
C669 C 0.08879 0.10056 0.95604 0.0
C670 C 0.10094 0.17157 0.95287 0.0
C671 C 0.12858 0.14888 0.95236 0.0
H672 H 0.53413 0.38119 0.05169 0.0
H673 H 0.6054 0.29679 0.05874 0.0
H674 H 0.65276 0.33676 0.06821 0.0
H675 H 0.67506 0.3949 0.0599 0.0
H676 H 0.60523 0.47985 0.04897 0.0
H677 H 0.5561 0.44094 0.05631 0.0
C678 C 0.5598 0.37166 0.05688 0.0
C679 C 0.56648 0.33623 0.05431 0.0
C680 C 0.58724 0.395 0.06085 0.0
C681 C 0.59983 0.32402 0.06055 0.0
C682 C 0.62694 0.34687 0.06565 0.0
C683 C 0.64907 0.40497 0.06065 0.0
C684 C 0.64352 0.4399 0.05385 0.0
C685 C 0.62121 0.38234 0.0637 0.0
C686 C 0.60993 0.45296 0.05448 0.0
C687 C 0.58188 0.43064 0.05823 0.0
H688 H 0.89341 0.69506 0.53597 0.0
H689 H 0.97737 0.62778 0.56249 0.0
H690 H 0.93764 0.57911 0.56579 0.0
H691 H 0.88076 0.55421 0.55063 0.0
H692 H 0.7991 0.62204 0.51906 0.0
H693 H 0.836 0.67184 0.52834 0.0
C694 C 0.903 0.6699 0.54318 0.0
C695 C 0.93841 0.665 0.54826 0.0
C696 C 0.88036 0.64192 0.54355 0.0
C697 C 0.95025 0.63232 0.55822 0.0
C698 C 0.92756 0.60436 0.55978 0.0
C699 C 0.87097 0.57999 0.54667 0.0
C700 C 0.83752 0.58462 0.53384 0.0
C701 C 0.89283 0.60858 0.55089 0.0
C702 C 0.82497 0.61801 0.52856 0.0
C703 C 0.84603 0.64645 0.53384 0.0
H704 H 0.31803 0.91015 0.44259 0.0
H705 H 0.39436 0.98717 0.4646 0.0
H706 H 0.44028 0.9449 0.45538 0.0
H707 H 0.45709 0.88361 0.45288 0.0
H708 H 0.37928 0.80649 0.43599 0.0
H709 H 0.33557 0.85107 0.43028 0.0
C710 C 0.34482 0.91784 0.44404 0.0
C711 C 0.35309 0.95146 0.45401 0.0
C712 C 0.37071 0.89318 0.43994 0.0
C713 C 0.38766 0.96138 0.45651 0.0
C714 C 0.41379 0.93713 0.45158 0.0
C715 C 0.43081 0.87678 0.44651 0.0
C716 C 0.42126 0.84191 0.4449 0.0
C717 C 0.40551 0.90257 0.4449 0.0
C718 C 0.38708 0.83321 0.43732 0.0
C719 C 0.36207 0.85866 0.43435 0.0
H720 H 0.06439 0.90144 0.82489 0.0
H721 H 0.04536 0.98797 0.8912 0.0
H722 H 0.04622 0.95031 0.94152 0.0
H723 H 0.03894 0.891 0.96413 0.0
H724 H 0.05718 0.80519 0.89658 0.0
H725 H 0.07099 0.84411 0.84956 0.0
C726 C 0.06173 0.91213 0.85051 0.0
C727 C 0.05429 0.9471 0.85444 0.0
C728 C 0.06165 0.89029 0.87911 0.0
C729 C 0.05113 0.96096 0.88765 0.0
C730 C 0.05122 0.93938 0.9164 0.0
C731 C 0.04738 0.88106 0.93951 0.0
C732 C 0.04675 0.84552 0.93346 0.0
C733 C 0.0545 0.90372 0.9122 0.0
C734 C 0.0574 0.83262 0.9015 0.0
C735 C 0.06504 0.85481 0.87457 0.0
H736 H 0.47597 0.1041 0.46469 0.0
H737 H 0.45356 0.19277 0.40246 0.0
H738 H 0.44006 0.15583 0.3535 0.0
H739 H 0.44691 0.09961 0.32589 0.0
H740 H 0.46923 0.01052 0.38776 0.0
H741 H 0.46934 0.04593 0.43958 0.0
C742 C 0.46669 0.11504 0.44079 0.0
C743 C 0.46563 0.15085 0.43686 0.0
C744 C 0.45945 0.0936 0.41261 0.0
C745 C 0.45415 0.16513 0.40585 0.0
C746 C 0.44677 0.14406 0.37783 0.0
C747 C 0.4506 0.08783 0.35088 0.0
C748 C 0.45868 0.05276 0.35301 0.0
C749 C 0.45111 0.10842 0.38045 0.0
C750 C 0.46303 0.03756 0.38549 0.0
C751 C 0.46348 0.05787 0.41512 0.0
H752 H 0.54398 0.60524 0.03615 0.0
H753 H 0.53627 0.69252 0.10393 0.0
H754 H 0.54541 0.65562 0.15368 0.0
H755 H 0.54472 0.59822 0.17807 0.0
H756 H 0.54764 0.50955 0.11173 0.0
H757 H 0.5525 0.54702 0.06137 0.0
C758 C 0.54531 0.61606 0.0618 0.0
C759 C 0.53918 0.6513 0.0667 0.0
C760 C 0.5494 0.59439 0.09052 0.0
C761 C 0.54068 0.66532 0.09986 0.0
C762 C 0.54583 0.64427 0.12825 0.0
C763 C 0.54727 0.58707 0.15264 0.0
C764 C 0.54508 0.55131 0.14853 0.0
C765 C 0.54858 0.60867 0.12396 0.0
C766 C 0.54909 0.5371 0.11555 0.0
C767 C 0.55145 0.55854 0.08671 0.0
H768 H 0.94099 0.46057 0.62229 0.0
H769 H 0.94047 0.38416 0.70251 0.0
H770 H 0.93635 0.33849 0.65975 0.0
H771 H 0.94547 0.32045 0.60027 0.0
H772 H 0.94908 0.39582 0.51942 0.0
H773 H 0.93926 0.44194 0.56146 0.0
C774 C 0.93841 0.43399 0.63034 0.0
C775 C 0.94117 0.42558 0.66539 0.0
C776 C 0.93763 0.40777 0.60546 0.0
C777 C 0.93839 0.39109 0.67562 0.0
C778 C 0.93643 0.365 0.65118 0.0
C779 C 0.94316 0.34696 0.59189 0.0
C780 C 0.94831 0.3551 0.55721 0.0
C781 C 0.93805 0.37301 0.61614 0.0
C782 C 0.9452 0.38925 0.54619 0.0
C783 C 0.93976 0.41551 0.57022 0.0
H784 H 0.90232 0.05089 0.8222 0.0
H785 H 0.98262 0.04544 0.89802 0.0
H786 H 0.94006 0.05168 0.9442 0.0
H787 H 0.8791 0.04684 0.96221 0.0
H788 H 0.79953 0.0497 0.88514 0.0
H789 H 0.84247 0.05752 0.84024 0.0
C790 C 0.91046 0.05228 0.84884 0.0
C791 C 0.94522 0.04769 0.85699 0.0
C792 C 0.88588 0.05515 0.87497 0.0
C793 C 0.95584 0.04923 0.89139 0.0
C794 C 0.93149 0.05248 0.91771 0.0
C795 C 0.87121 0.05061 0.93575 0.0
C796 C 0.83631 0.04737 0.92684 0.0
C797 C 0.89626 0.05384 0.90981 0.0
C798 C 0.82632 0.05191 0.89246 0.0
C799 C 0.85086 0.05609 0.86676 0.0
H800 H 0.54423 0.95627 0.3926 0.0
H801 H 0.61177 0.95531 0.30492 0.0
H802 H 0.66079 0.94258 0.34196 0.0
H803 H 0.6855 0.94347 0.39939 0.0
H804 H 0.61961 0.95008 0.48803 0.0
H805 H 0.56881 0.94717 0.45094 0.0
C806 C 0.5696 0.95227 0.38178 0.0
C807 C 0.5748 0.95683 0.34636 0.0
C808 C 0.59789 0.946 0.40346 0.0
C809 C 0.60754 0.95196 0.33225 0.0
C810 C 0.63549 0.94474 0.35338 0.0
C811 C 0.65997 0.94292 0.41062 0.0
C812 C 0.65621 0.94741 0.44621 0.0
C813 C 0.63118 0.94328 0.38908 0.0
C814 C 0.62313 0.94648 0.46065 0.0
C815 C 0.59408 0.94547 0.43937 0.0
H816 H 0.31047 0.45566 0.10924 0.0
H817 H 0.37246 0.4432 0.01858 0.0
H818 H 0.42358 0.43388 0.0542 0.0
H819 H 0.45187 0.44276 0.11091 0.0
H820 H 0.38871 0.45775 0.20057 0.0
H821 H 0.33683 0.45182 0.16599 0.0
C822 C 0.33495 0.44941 0.09743 0.0
C823 C 0.33795 0.45024 0.06158 0.0
C824 C 0.36416 0.44516 0.11801 0.0
C825 C 0.36964 0.44235 0.04626 0.0
C826 C 0.39894 0.43753 0.06663 0.0
C827 C 0.4267 0.44334 0.12285 0.0
C828 C 0.42383 0.45095 0.15801 0.0
C829 C 0.39681 0.44085 0.10251 0.0
C830 C 0.39126 0.45205 0.17342 0.0
C831 C 0.36163 0.44885 0.15367 0.0
H832 H 0.10731 0.52271 0.53167 0.0
H833 H 0.18742 0.54802 0.60378 0.0
H834 H 0.1447 0.56005 0.64807 0.0
H835 H 0.08653 0.54986 0.66929 0.0
H836 H 0.00651 0.51932 0.59931 0.0
H837 H 0.0467 0.52331 0.55086 0.0
C838 C 0.11508 0.53229 0.55667 0.0
C839 C 0.15013 0.53453 0.56481 0.0
C840 C 0.09039 0.53749 0.58246 0.0
C841 C 0.16039 0.5463 0.59727 0.0
C842 C 0.13603 0.55286 0.62259 0.0
C843 C 0.07776 0.54544 0.64317 0.0
C844 C 0.04405 0.53433 0.63745 0.0
C845 C 0.10122 0.54656 0.61601 0.0
C846 C 0.03252 0.52818 0.60389 0.0
C847 C 0.05555 0.53014 0.57637 0.0
H848 H 0.81588 0.88957 0.02995 0.0
H849 H 0.88832 0.97257 0.04087 0.0
H850 H 0.93485 0.93119 0.05109 0.0
H851 H 0.95575 0.87141 0.0448 0.0
H852 H 0.88248 0.78943 0.0308 0.0
H853 H 0.83508 0.83014 0.03526 0.0
C854 C 0.84177 0.89846 0.03546 0.0
C855 C 0.84916 0.93364 0.03411 0.0
C856 C 0.86808 0.87467 0.04077 0.0
C857 C 0.88241 0.94537 0.04166 0.0
C858 C 0.90891 0.92175 0.04732 0.0
C859 C 0.92934 0.86245 0.04429 0.0
C860 C 0.92233 0.82775 0.03727 0.0
C861 C 0.90228 0.88629 0.04532 0.0
C862 C 0.88819 0.81618 0.03615 0.0
C863 C 0.86118 0.83945 0.03832 0.0
H864 H 0.46077 0.61225 0.95393 0.0
H865 H 0.39099 0.69786 0.94508 0.0
H866 H 0.34323 0.65859 0.93502 0.0
H867 H 0.31986 0.60084 0.94169 0.0
H868 H 0.38774 0.51487 0.95612 0.0
H869 H 0.43776 0.55286 0.94987 0.0
C870 C 0.43529 0.62222 0.94868 0.0
C871 C 0.42923 0.65785 0.95079 0.0
C872 C 0.40757 0.59931 0.94416 0.0
C873 C 0.39612 0.67051 0.94409 0.0
C874 C 0.3688 0.64808 0.93836 0.0
C875 C 0.34567 0.59028 0.94186 0.0
C876 C 0.35032 0.55531 0.94925 0.0
C877 C 0.37395 0.61251 0.94016 0.0
C878 C 0.38369 0.54171 0.94995 0.0
C879 C 0.41223 0.56357 0.947 0.0
H880 H 0.11351 0.44646 0.45063 0.0
H881 H 0.19669 0.37432 0.46182 0.0
H882 H 0.15762 0.3265 0.45111 0.0
H883 H 0.09866 0.30517 0.45141 0.0
H884 H 0.01429 0.37636 0.44335 0.0
H885 H 0.05468 0.42438 0.43896 0.0
C886 C 0.12312 0.42034 0.44933 0.0
C887 C 0.15772 0.4137 0.45721 0.0
C888 C 0.10015 0.39274 0.44431 0.0
C889 C 0.17003 0.37982 0.45592 0.0
C890 C 0.14769 0.35249 0.45002 0.0
C891 C 0.08916 0.3311 0.44756 0.0
C892 C 0.05364 0.33728 0.44834 0.0
C893 C 0.11246 0.35856 0.44612 0.0
C894 C 0.04158 0.37091 0.44291 0.0
C895 C 0.0647 0.39846 0.4408 0.0
H896 H 0.53823 0.11649 0.54276 0.0
H897 H 0.61171 0.19368 0.57268 0.0
H898 H 0.65435 0.14928 0.58491 0.0
H899 H 0.67472 0.09135 0.57105 0.0
H900 H 0.6037 0.01597 0.53212 0.0
H901 H 0.55587 0.05602 0.54001 0.0
C902 C 0.56302 0.12325 0.55366 0.0
C903 C 0.5721 0.15797 0.55692 0.0
C904 C 0.58807 0.09776 0.55814 0.0
C905 C 0.60438 0.16691 0.57025 0.0
C906 C 0.62883 0.14157 0.5768 0.0
C907 C 0.64847 0.08337 0.56591 0.0
C908 C 0.64232 0.05109 0.55124 0.0
C909 C 0.62168 0.10725 0.56849 0.0
C910 C 0.60861 0.0408 0.54376 0.0
C911 C 0.58143 0.0638 0.54794 0.0
H912 H 0.78293 0.35388 0.95525 0.0
H913 H 0.79 0.37773 0.06312 0.0
H914 H 0.82737 0.32832 0.0723 0.0
H915 H 0.86889 0.28873 0.0471 0.0
H916 H 0.86608 0.26725 0.93864 0.0
H917 H 0.8157 0.30439 0.93213 0.0
C918 C 0.79147 0.34719 0.98093 0.0
C919 C 0.78413 0.36932 0.00848 0.0
C920 C 0.81429 0.31955 0.9857 0.0
C921 C 0.79556 0.36093 0.04163 0.0
C922 C 0.81712 0.33288 0.04681 0.0
C923 C 0.85628 0.29112 0.02233 0.0
C924 C 0.87122 0.27584 0.99333 0.0
C925 C 0.82835 0.31347 0.01869 0.0
C926 C 0.85485 0.2788 0.96132 0.0
C927 C 0.82634 0.30042 0.95756 0.0
H928 H 0.61249 0.69592 0.54151 0.0
H929 H 0.61587 0.72481 0.43463 0.0
H930 H 0.66009 0.68139 0.42399 0.0
H931 H 0.69008 0.62823 0.44335 0.0
H932 H 0.68141 0.59764 0.54951 0.0
H933 H 0.6472 0.6484 0.56211 0.0
C934 C 0.62352 0.69335 0.51603 0.0
C935 C 0.61055 0.71327 0.48887 0.0
C936 C 0.64759 0.66735 0.50981 0.0
C937 C 0.6254 0.70988 0.45609 0.0
C938 C 0.6504 0.68468 0.44988 0.0
C939 C 0.68123 0.63323 0.46928 0.0
C940 C 0.68774 0.60907 0.49537 0.0
C941 C 0.6605 0.66216 0.47622 0.0
C942 C 0.67618 0.61565 0.52892 0.0
C943 C 0.65669 0.6447 0.53618 0.0
H944 H 0.29369 0.13574 0.95513 0.0
H945 H 0.27913 0.13614 0.06482 0.0
H946 H 0.31436 0.18799 0.06983 0.0
H947 H 0.36036 0.22366 0.04418 0.0
H948 H 0.37518 0.22194 0.93451 0.0
H949 H 0.32787 0.18136 0.92806 0.0
C950 C 0.29722 0.14799 0.97993 0.0
C951 C 0.28445 0.13195 0.00959 0.0
C952 C 0.3178 0.17753 0.98262 0.0
C953 C 0.28881 0.14807 0.04161 0.0
C954 C 0.30923 0.17757 0.04452 0.0
C955 C 0.35196 0.21581 0.01878 0.0
C956 C 0.37144 0.22532 0.9899 0.0
C957 C 0.32545 0.19134 0.0154 0.0
C958 C 0.36057 0.21476 0.9571 0.0
C959 C 0.33382 0.19117 0.95344 0.0
H960 H 0.14443 0.78338 0.45651 0.0
H961 H 0.14195 0.77378 0.56672 0.0
H962 H 0.19013 0.81388 0.57172 0.0
H963 H 0.22071 0.86301 0.54538 0.0
H964 H 0.21755 0.8762 0.43553 0.0
H965 H 0.18468 0.82311 0.42946 0.0
C966 C 0.15546 0.789 0.48151 0.0
C967 C 0.13934 0.77636 0.5112 0.0
C968 C 0.1818 0.8134 0.48418 0.0
C969 C 0.15391 0.78334 0.54348 0.0
C970 C 0.18115 0.8067 0.54635 0.0
C971 C 0.21412 0.85329 0.5201 0.0
C972 C 0.22106 0.87342 0.49094 0.0
C973 C 0.19359 0.82367 0.51702 0.0
C974 C 0.21218 0.86103 0.45826 0.0
C975 C 0.19319 0.83085 0.45483 0.0
H976 H 0.04753 0.88105 0.29573 0.0
H977 H 0.94095 0.86173 0.27337 0.0
H978 H 0.93994 0.81535 0.31601 0.0
H979 H 0.96587 0.79105 0.36889 0.0
H980 H 0.07116 0.81563 0.39361 0.0
H981 H 0.07649 0.84875 0.3408 0.0
C982 C 0.02458 0.86551 0.29914 0.0
C983 C 0.99437 0.87465 0.28176 0.0
C984 C 0.02378 0.84048 0.32492 0.0
C985 C 0.9646 0.85477 0.2863 0.0
C986 C 0.9639 0.82872 0.31115 0.0
C987 C 0.99022 0.80279 0.36207 0.0
C988 C 0.01786 0.8016 0.38535 0.0
C989 C 0.99275 0.82291 0.33211 0.0
C990 C 0.04934 0.81683 0.37634 0.0
C991 C 0.05242 0.83574 0.34615 0.0
H992 H 0.53161 0.12513 0.78599 0.0
H993 H 0.42466 0.10146 0.80299 0.0
H994 H 0.41997 0.14919 0.84325 0.0
H995 H 0.44912 0.18893 0.88217 0.0
H996 H 0.55648 0.21175 0.86787 0.0
H997 H 0.5582 0.17366 0.81768 0.0
C998 C 0.50702 0.13136 0.7975 0.0
C999 C 0.47861 0.10964 0.79194 0.0
C1000 C 0.5048 0.15823 0.82165 0.0
C1001 C 0.44691 0.11771 0.80718 0.0
C1002 C 0.44427 0.14484 0.83037 0.0
C1003 C 0.47261 0.18631 0.86738 0.0
C1004 C 0.50272 0.20257 0.8788 0.0
C1005 C 0.47348 0.16395 0.83919 0.0
C1006 C 0.53298 0.19941 0.85943 0.0
C1007 C 0.53401 0.17738 0.83095 0.0
H1008 H 0.43807 0.71115 0.63244 0.0
H1009 H 0.54705 0.71486 0.61335 0.0
H1010 H 0.55811 0.68396 0.66677 0.0
H1011 H 0.53628 0.64538 0.71102 0.0
H1012 H 0.42725 0.63606 0.72754 0.0
H1013 H 0.41658 0.68044 0.68423 0.0
C1014 C 0.46419 0.70623 0.6408 0.0
C1015 C 0.49178 0.7151 0.61919 0.0
C1016 C 0.47026 0.6871 0.67099 0.0
C1017 C 0.52554 0.7082 0.62974 0.0
C1018 C 0.53184 0.69041 0.66017 0.0
C1019 C 0.51026 0.65416 0.70614 0.0
C1020 C 0.48261 0.6373 0.72216 0.0
C1021 C 0.50435 0.6782 0.67997 0.0
C1022 C 0.44901 0.64881 0.71572 0.0
C1023 C 0.44288 0.67378 0.69046 0.0
H1024 H 0.0392 0.28124 0.14164 0.0
H1025 H 0.9315 0.29928 0.12265 0.0
H1026 H 0.92929 0.33946 0.17063 0.0
H1027 H 0.96097 0.37901 0.2078 0.0
H1028 H 0.06923 0.36434 0.22486 0.0
H1029 H 0.06835 0.3129 0.18837 0.0
C1030 C 0.01498 0.29291 0.14895 0.0
C1031 C 0.98569 0.28788 0.12834 0.0
C1032 C 0.01424 0.31711 0.17579 0.0
C1033 C 0.95446 0.30319 0.13793 0.0
C1034 C 0.95323 0.32632 0.16521 0.0
C1035 C 0.98402 0.36366 0.20452 0.0
C1036 C 0.01513 0.37523 0.21855 0.0
C1037 C 0.9834 0.335 0.18282 0.0
C1038 C 0.04499 0.35556 0.21432 0.0
C1039 C 0.04452 0.32644 0.19318 0.0
H1040 H 0.36777 0.02601 0.79771 0.0
H1041 H 0.37324 0.91587 0.80606 0.0
H1042 H 0.32146 0.91545 0.84202 0.0
H1043 H 0.28235 0.94788 0.87978 0.0
H1044 H 0.27882 0.05841 0.8725 0.0
H1045 H 0.32106 0.05729 0.82626 0.0
C1046 C 0.35686 0.00193 0.80663 0.0
C1047 C 0.37402 0.97107 0.79977 0.0
C1048 C 0.32749 0.00204 0.82743 0.0
C1049 C 0.3601 0.93986 0.81119 0.0
C1050 C 0.33068 0.93968 0.83182 0.0
C1051 C 0.28969 0.97155 0.86701 0.0
C1052 C 0.27792 0.00322 0.87977 0.0
C1053 C 0.31507 0.97079 0.84134 0.0
C1054 C 0.28781 0.03376 0.8632 0.0
C1055 C 0.31223 0.03316 0.83703 0.0
H1056 H 0.80671 0.44762 0.12032 0.0
H1057 H 0.778 0.55403 0.13053 0.0
H1058 H 0.81907 0.56098 0.17775 0.0
H1059 H 0.87157 0.53963 0.20694 0.0
H1060 H 0.90206 0.43407 0.19242 0.0
H1061 H 0.85183 0.42379 0.1565 0.0
C1062 C 0.8087 0.47205 0.13364 0.0
C1063 C 0.78988 0.50039 0.12169 0.0
C1064 C 0.83327 0.47615 0.15959 0.0
C1065 C 0.79226 0.53182 0.13932 0.0
C1066 C 0.8161 0.5359 0.16601 0.0
C1067 C 0.86654 0.51419 0.19672 0.0
C1068 C 0.8907 0.4878 0.20171 0.0
C1069 C 0.83807 0.50872 0.17503 0.0
C1070 C 0.88405 0.45491 0.18837 0.0
C1071 C 0.85536 0.44901 0.16782 0.0
H1072 H 0.63488 0.47775 0.7101 0.0
H1073 H 0.59577 0.57554 0.67552 0.0
H1074 H 0.64658 0.5841 0.64008 0.0
H1075 H 0.69409 0.55775 0.60919 0.0
H1076 H 0.73113 0.45797 0.63909 0.0
H1077 H 0.69021 0.45658 0.68694 0.0
C1078 C 0.6381 0.50133 0.69558 0.0
C1079 C 0.61137 0.52555 0.69456 0.0
C1080 C 0.66695 0.50557 0.67427 0.0
C1081 C 0.61575 0.55616 0.67592 0.0
C1082 C 0.64479 0.56111 0.65572 0.0
C1083 C 0.69411 0.53642 0.62718 0.0
C1084 C 0.71502 0.50789 0.6207 0.0
C1085 C 0.66945 0.53512 0.65321 0.0
C1086 C 0.71521 0.48028 0.64389 0.0
C1087 C 0.69142 0.47927 0.67084 0.0
H1088 H 0.12948 0.04536 0.28929 0.0
H1089 H 0.10639 0.93726 0.29723 0.0
H1090 H 0.15836 0.92808 0.33103 0.0
H1091 H 0.20213 0.95269 0.36826 0.0
H1092 H 0.22172 0.06176 0.36635 0.0
H1093 H 0.18055 0.06859 0.31937 0.0
C1094 C 0.13658 0.0197 0.29751 0.0
C1095 C 0.11415 0.99206 0.29131 0.0
C1096 C 0.16573 0.0149 0.31834 0.0
C1097 C 0.12325 0.9589 0.30215 0.0
C1098 C 0.15287 0.95367 0.32151 0.0
C1099 C 0.19816 0.97782 0.35685 0.0
C1100 C 0.21424 0.00677 0.37129 0.0
C1101 C 0.17315 0.98177 0.33133 0.0
C1102 C 0.20946 0.03907 0.35586 0.0
C1103 C 0.18554 0.04305 0.32927 0.0
H1104 H 0.21475 0.64867 0.0501 0.0
H1105 H 0.22132 0.63198 0.94091 0.0
H1106 H 0.18275 0.6802 0.93053 0.0
H1107 H 0.13517 0.71428 0.95342 0.0
H1108 H 0.1253 0.72867 0.06265 0.0
H1109 H 0.17742 0.69492 0.07233 0.0
C1110 C 0.20916 0.65691 0.02406 0.0
C1111 C 0.22031 0.6368 0.99628 0.0
C1112 C 0.18552 0.6836 0.01842 0.0
C1113 C 0.21278 0.64722 0.96259 0.0
C1114 C 0.19038 0.67448 0.95669 0.0
C1115 C 0.14537 0.71119 0.97919 0.0
C1116 C 0.12633 0.72316 0.00732 0.0
C1117 C 0.17464 0.69099 0.9845 0.0
C1118 C 0.13964 0.71948 0.04064 0.0
C1119 C 0.16923 0.69987 0.04618 0.0
H1120 H 0.38542 0.28132 0.52962 0.0
H1121 H 0.4161 0.31977 0.43014 0.0
H1122 H 0.36699 0.35849 0.42951 0.0
H1123 H 0.32282 0.38888 0.46195 0.0
H1124 H 0.29306 0.35309 0.56233 0.0
H1125 H 0.33397 0.3053 0.55776 0.0
C1126 C 0.38077 0.29742 0.50736 0.0
C1127 C 0.4048 0.29829 0.48034 0.0
C1128 C 0.35299 0.3204 0.50761 0.0
C1129 C 0.39833 0.31913 0.45157 0.0
C1130 C 0.37032 0.34135 0.45121 0.0
C1131 C 0.32475 0.37002 0.48241 0.0
C1132 C 0.30566 0.3745 0.51262 0.0
C1133 C 0.34866 0.34341 0.47985 0.0
C1134 C 0.30773 0.34995 0.5389 0.0
C1135 C 0.33127 0.3229 0.53636 0.0
H1136 H 0.63724 0.77891 0.03737 0.0
H1137 H 0.63287 0.76338 0.92792 0.0
H1138 H 0.67662 0.80792 0.91956 0.0
H1139 H 0.70471 0.86047 0.94276 0.0
H1140 H 0.70156 0.87953 0.05179 0.0
H1141 H 0.67237 0.82481 0.06114 0.0
C1142 C 0.64699 0.78432 0.0118 0.0
C1143 C 0.63163 0.76829 0.98331 0.0
C1144 C 0.67008 0.81153 0.00714 0.0
C1145 C 0.64443 0.77527 0.95029 0.0
C1146 C 0.66896 0.80127 0.94548 0.0
C1147 C 0.69846 0.85198 0.96855 0.0
C1148 C 0.70482 0.87391 0.99658 0.0
C1149 C 0.68022 0.82106 0.97355 0.0
C1150 C 0.69649 0.86305 0.02991 0.0
C1151 C 0.67984 0.83181 0.03524 0.0
H1152 H 0.85097 0.22369 0.45252 0.0
H1153 H 0.85526 0.2286 0.56311 0.0
H1154 H 0.80762 0.18811 0.56731 0.0
H1155 H 0.77658 0.14046 0.53976 0.0
H1156 H 0.77411 0.13325 0.42949 0.0
H1157 H 0.80867 0.18564 0.4247 0.0
C1158 C 0.84039 0.21714 0.47745 0.0
C1159 C 0.85706 0.22839 0.50746 0.0
C1160 C 0.81381 0.19272 0.47969 0.0
C1161 C 0.8431 0.21976 0.53965 0.0
C1162 C 0.81607 0.19636 0.54209 0.0
C1163 C 0.78232 0.15143 0.51477 0.0
C1164 C 0.77303 0.13341 0.48503 0.0
C1165 C 0.80294 0.18092 0.51235 0.0
C1166 C 0.78084 0.14718 0.45266 0.0
C1167 C 0.8009 0.17687 0.44996 0.0
H1168 H 0.0382 0.2147 0.63649 0.0
H1169 H 0.92865 0.20728 0.62207 0.0
H1170 H 0.92349 0.17209 0.67362 0.0
H1171 H 0.95162 0.1329 0.71364 0.0
H1172 H 0.06157 0.13681 0.72644 0.0
H1173 H 0.06513 0.1844 0.68559 0.0
C1174 C 0.01315 0.20653 0.64559 0.0
C1175 C 0.98388 0.21307 0.62554 0.0
C1176 C 0.01056 0.18508 0.6746 0.0
C1177 C 0.9515 0.2022 0.63717 0.0
C1178 C 0.94856 0.18191 0.66647 0.0
C1179 C 0.97621 0.14498 0.70832 0.0
C1180 C 0.0063 0.13099 0.72236 0.0
C1181 C 0.97814 0.17149 0.68406 0.0
C1182 C 0.038 0.14707 0.71577 0.0
C1183 C 0.0401 0.17406 0.69211 0.0
H1184 H 0.46671 0.79281 0.1288 0.0
H1185 H 0.57001 0.81141 0.09315 0.0
H1186 H 0.58218 0.84579 0.14399 0.0
H1187 H 0.5606 0.87855 0.19258 0.0
H1188 H 0.45609 0.86435 0.22668 0.0
H1189 H 0.44762 0.81959 0.18342 0.0
C1190 C 0.49207 0.80371 0.13275 0.0
C1191 C 0.51725 0.80017 0.10712 0.0
C1192 C 0.49861 0.8245 0.16166 0.0
C1193 C 0.55006 0.81436 0.11235 0.0
C1194 C 0.55706 0.834 0.1414 0.0
C1195 C 0.5362 0.86511 0.19113 0.0
C1196 C 0.50884 0.87533 0.21231 0.0
C1197 C 0.53108 0.84051 0.16536 0.0
C1198 C 0.47757 0.8572 0.21052 0.0
C1199 C 0.47258 0.8318 0.18551 0.0
H1200 H 0.55062 0.35801 0.27534 0.0
H1201 H 0.44149 0.36807 0.29137 0.0
H1202 H 0.4422 0.31948 0.33094 0.0
H1203 H 0.47599 0.28497 0.37115 0.0
H1204 H 0.58567 0.27802 0.35929 0.0
H1205 H 0.58287 0.31394 0.30759 0.0
C1206 C 0.52683 0.3485 0.28633 0.0
C1207 C 0.49611 0.36668 0.28088 0.0
C1208 C 0.52776 0.32154 0.31038 0.0
C1209 C 0.46544 0.35449 0.29548 0.0
C1210 C 0.46589 0.32691 0.31831 0.0
C1211 C 0.49899 0.29014 0.35622 0.0
C1212 C 0.53093 0.27909 0.3686 0.0
C1213 C 0.4972 0.31179 0.32754 0.0
C1214 C 0.56081 0.2861 0.34974 0.0
C1215 C 0.55919 0.30695 0.32049 0.0
H1216 H 0.04858 0.62945 0.77687 0.0
H1217 H 0.93873 0.63381 0.76319 0.0
H1218 H 0.93563 0.68302 0.8021 0.0
H1219 H 0.96206 0.71306 0.85117 0.0
H1220 H 0.07079 0.70226 0.86977 0.0
H1221 H 0.07663 0.66774 0.81776 0.0
C1222 C 0.02411 0.64198 0.78149 0.0
C1223 C 0.99384 0.62749 0.76804 0.0
C1224 C 0.0223 0.66862 0.80556 0.0
C1225 C 0.96239 0.6443 0.7735 0.0
C1226 C 0.96056 0.67215 0.79618 0.0
C1227 C 0.98721 0.70419 0.8431 0.0
C1228 C 0.01587 0.70954 0.8645 0.0
C1229 C 0.99001 0.68281 0.81416 0.0
C1230 C 0.04832 0.69793 0.85389 0.0
C1231 C 0.05163 0.67812 0.82424 0.0
H1232 H 0.63286 0.95946 0.20281 0.0
H1233 H 0.62741 0.0698 0.20825 0.0
H1234 H 0.67822 0.07465 0.17129 0.0
H1235 H 0.71546 0.04703 0.1277 0.0
H1236 H 0.71903 0.93649 0.12187 0.0
H1237 H 0.67881 0.932 0.16966 0.0
C1238 C 0.64362 0.98449 0.1968 0.0
C1239 C 0.62645 0.01422 0.20772 0.0
C1240 C 0.67246 0.98697 0.17535 0.0
C1241 C 0.64042 0.0466 0.20007 0.0
C1242 C 0.66927 0.04934 0.17874 0.0
C1243 C 0.70873 0.02205 0.13809 0.0
C1244 C 0.71989 0.99212 0.12121 0.0
C1245 C 0.68444 0.01968 0.16483 0.0
C1246 C 0.71065 0.95984 0.13452 0.0
C1247 C 0.68732 0.95726 0.16156 0.0
H1248 H 0.20435 0.46009 0.86829 0.0
H1249 H 0.19494 0.56763 0.89321 0.0
H1250 H 0.15939 0.57696 0.84259 0.0
H1251 H 0.12101 0.55224 0.79956 0.0
H1252 H 0.12732 0.44446 0.77533 0.0
H1253 H 0.17455 0.43761 0.81634 0.0
C1254 C 0.19552 0.4857 0.8618 0.0
C1255 C 0.20175 0.51305 0.8846 0.0
C1256 C 0.17408 0.49074 0.83298 0.0
C1257 C 0.19007 0.54615 0.87614 0.0
C1258 C 0.16963 0.55149 0.84728 0.0
C1259 C 0.13368 0.52756 0.8023 0.0
C1260 C 0.12051 0.49886 0.78484 0.0
C1261 C 0.15993 0.52365 0.82668 0.0
C1262 C 0.13713 0.467 0.78842 0.0
C1263 C 0.16383 0.46298 0.81228 0.0
H1264 H 0.38834 0.44809 0.31874 0.0
H1265 H 0.37139 0.55287 0.28737 0.0
H1266 H 0.32057 0.55611 0.32449 0.0
H1267 H 0.28845 0.5323 0.37415 0.0
H1268 H 0.30819 0.42824 0.4064 0.0
H1269 H 0.34973 0.42105 0.36008 0.0
C1270 C 0.37299 0.47135 0.31947 0.0
C1271 C 0.38375 0.50039 0.30105 0.0
C1272 C 0.34435 0.4731 0.34112 0.0
C1273 C 0.36352 0.53024 0.30157 0.0
C1274 C 0.33464 0.53215 0.32293 0.0
C1275 C 0.30085 0.5077 0.36997 0.0
C1276 C 0.29556 0.48083 0.39347 0.0
C1277 C 0.32575 0.50421 0.344 0.0
C1278 C 0.31204 0.44917 0.38843 0.0
C1279 C 0.33598 0.44517 0.36219 0.0
H1280 H 0.79498 0.96658 0.63096 0.0
H1281 H 0.80811 0.07447 0.60864 0.0
H1282 H 0.84949 0.07968 0.65525 0.0
H1283 H 0.88954 0.05152 0.69453 0.0
H1284 H 0.87842 0.94371 0.71686 0.0
H1285 H 0.8283 0.94054 0.67865 0.0
C1286 C 0.80605 0.99143 0.63706 0.0
C1287 C 0.79895 0.01996 0.61592 0.0
C1288 C 0.83059 0.99413 0.66357 0.0
C1289 C 0.81354 0.052 0.62416 0.0
C1290 C 0.83732 0.05501 0.65075 0.0
C1291 C 0.87544 0.02758 0.69177 0.0
C1292 C 0.88765 0.99784 0.70807 0.0
C1293 C 0.84725 0.02593 0.66943 0.0
C1294 C 0.86928 0.96696 0.7046 0.0
C1295 C 0.84087 0.96511 0.68249 0.0
H1296 H 0.02106 0.34753 0.93305 0.0
H1297 H 0.97042 0.27454 0.86659 0.0
H1298 H 0.97543 0.31516 0.8184 0.0
H1299 H 0.98944 0.37419 0.79726 0.0
H1300 H 0.03466 0.44703 0.86779 0.0
H1301 H 0.03597 0.40371 0.91267 0.0
C1302 C 0.01104 0.34026 0.90806 0.0
C1303 C 0.99479 0.30834 0.90355 0.0
C1304 C 0.01263 0.36398 0.88139 0.0
C1305 C 0.98291 0.29908 0.87073 0.0
C1306 C 0.98552 0.3224 0.84332 0.0
C1307 C 0.99964 0.38029 0.82246 0.0
C1308 C 0.01148 0.41374 0.82953 0.0
C1309 C 0.9995 0.35535 0.84865 0.0
C1310 C 0.02479 0.42159 0.8621 0.0
C1311 C 0.02577 0.39683 0.88767 0.0
H1312 H 0.55087 0.66158 0.41035 0.0
H1313 H 0.46977 0.7227 0.36632 0.0
H1314 H 0.46326 0.68071 0.31956 0.0
H1315 H 0.47542 0.62247 0.29648 0.0
H1316 H 0.55481 0.56116 0.34389 0.0
H1317 H 0.56727 0.60744 0.38406 0.0
C1318 C 0.53209 0.66599 0.39019 0.0
C1319 C 0.51046 0.6948 0.39192 0.0
C1320 C 0.52793 0.64145 0.36431 0.0
C1321 C 0.4867 0.70064 0.36543 0.0
C1322 C 0.48279 0.67648 0.33895 0.0
C1323 C 0.49585 0.61956 0.3152 0.0
C1324 C 0.51378 0.58819 0.31757 0.0
C1325 C 0.50244 0.64613 0.33887 0.0
C1326 C 0.54023 0.58478 0.34192 0.0
C1327 C 0.54743 0.61125 0.36487 0.0
H1328 H 0.52188 0.1308 0.20045 0.0
H1329 H 0.45275 0.05733 0.15414 0.0
H1330 H 0.4329 0.10032 0.11377 0.0
H1331 H 0.43961 0.15624 0.08711 0.0
H1332 H 0.5102 0.23032 0.12953 0.0
H1333 H 0.52427 0.19032 0.17634 0.0
C1334 C 0.50214 0.12446 0.18182 0.0
C1335 C 0.48928 0.09057 0.18003 0.0
C1336 C 0.49108 0.14949 0.15791 0.0
C1337 C 0.46361 0.08286 0.15577 0.0
C1338 C 0.45209 0.10753 0.13266 0.0
C1339 C 0.45763 0.16395 0.10697 0.0
C1340 C 0.47404 0.19605 0.1047 0.0
C1341 C 0.46633 0.14054 0.13285 0.0
C1342 C 0.49704 0.20581 0.1308 0.0
C1343 C 0.50539 0.18274 0.15732 0.0
H1344 H 0.98061 0.87684 0.70199 0.0
H1345 H 0.06366 0.94038 0.66509 0.0
H1346 H 0.08264 0.89476 0.62714 0.0
H1347 H 0.07224 0.83976 0.59972 0.0
H1348 H 0.98767 0.77606 0.63224 0.0
H1349 H 0.97341 0.81792 0.67737 0.0
C1350 C 0.00309 0.88041 0.68593 0.0
C1351 C 0.0203 0.91237 0.6859 0.0
C1352 C 0.01366 0.8539 0.66347 0.0
C1353 C 0.04946 0.91653 0.66504 0.0
C1354 C 0.0605 0.89028 0.64345 0.0
C1355 C 0.05104 0.83465 0.61711 0.0
C1356 C 0.03088 0.80501 0.61248 0.0
C1357 C 0.04227 0.85932 0.64177 0.0
C1358 C 0.00375 0.79857 0.63542 0.0
C1359 C 0.99533 0.82277 0.6609 0.0
H1360 H 0.80833 0.96315 0.39287 0.0
H1361 H 0.80374 0.07329 0.38323 0.0
H1362 H 0.84122 0.07098 0.33267 0.0
H1363 H 0.88206 0.03797 0.29708 0.0
H1364 H 0.88513 0.92772 0.30561 0.0
H1365 H 0.84073 0.92933 0.35014 0.0
C1366 C 0.81499 0.98646 0.37909 0.0
C1367 C 0.80384 0.01835 0.39161 0.0
C1368 C 0.83613 0.98481 0.34991 0.0
C1369 C 0.81221 0.04852 0.37377 0.0
C1370 C 0.83368 0.04719 0.34503 0.0
C1371 C 0.87184 0.01431 0.30776 0.0
C1372 C 0.8863 0.98276 0.29808 0.0
C1373 C 0.84667 0.01557 0.33357 0.0
C1374 C 0.87369 0.95218 0.31239 0.0
C1375 C 0.84871 0.95316 0.33813 0.0
H1376 H 0.58372 0.05376 0.83362 0.0
H1377 H 0.61943 0.97293 0.76717 0.0
H1378 H 0.66713 0.96102 0.80686 0.0
H1379 H 0.6925 0.96793 0.86528 0.0
H1380 H 0.65266 0.04721 0.93191 0.0
H1381 H 0.61287 0.06541 0.88748 0.0
C1382 C 0.6026 0.0342 0.82738 0.0
C1383 C 0.59822 0.01417 0.79778 0.0
C1384 C 0.62874 0.02672 0.85083 0.0
C1385 C 0.62264 0.9889 0.78974 0.0
C1386 C 0.64955 0.98179 0.81269 0.0
C1387 C 0.67544 0.98948 0.86975 0.0
C1388 C 0.67497 0.00564 0.90214 0.0
C1389 C 0.65193 0.99957 0.84409 0.0
C1390 C 0.65294 0.03374 0.90754 0.0
C1391 C 0.63027 0.04435 0.88209 0.0
H1392 H 0.3721 0.48126 0.72141 0.0
H1393 H 0.38874 0.58645 0.69108 0.0
H1394 H 0.34359 0.58183 0.64788 0.0
H1395 H 0.30868 0.54448 0.61121 0.0
H1396 H 0.29201 0.4389 0.63996 0.0
H1397 H 0.32751 0.44688 0.69142 0.0
C1398 C 0.3646 0.5035 0.70639 0.0
C1399 C 0.38354 0.5341 0.70918 0.0
C1400 C 0.33933 0.50025 0.68069 0.0
C1401 C 0.37424 0.5627 0.68927 0.0
C1402 C 0.34875 0.55995 0.66432 0.0
C1403 C 0.31217 0.52353 0.62929 0.0
C1404 C 0.29844 0.49108 0.62177 0.0
C1405 C 0.33259 0.52832 0.65854 0.0
C1406 C 0.30257 0.46411 0.64536 0.0
C1407 C 0.32298 0.46863 0.67464 0.0
H1408 H 0.09951 0.54892 0.19325 0.0
H1409 H 0.14259 0.45191 0.22421 0.0
H1410 H 0.19078 0.4603 0.18421 0.0
H1411 H 0.21361 0.49027 0.13244 0.0
H1412 H 0.16536 0.58409 0.09883 0.0
H1413 H 0.12637 0.58232 0.14789 0.0
C1414 C 0.12013 0.53017 0.19201 0.0
C1415 C 0.11765 0.49983 0.21132 0.0
C1416 C 0.14643 0.53444 0.16793 0.0
C1417 C 0.14427 0.4756 0.2097 0.0
C1418 C 0.17148 0.48022 0.18648 0.0
C1419 C 0.19517 0.51072 0.13662 0.0
C1420 C 0.19205 0.53724 0.11226 0.0
C1421 C 0.17185 0.50874 0.16424 0.0
C1422 C 0.16792 0.56346 0.11736 0.0
C1423 C 0.14565 0.5624 0.1453 0.0
H1424 H 0.38072 0.80555 0.01593 0.0
H1425 H 0.45107 0.85863 0.94828 0.0
H1426 H 0.40833 0.90271 0.93764 0.0
H1427 H 0.35305 0.92877 0.95052 0.0
H1428 H 0.28178 0.87727 0.01803 0.0
H1429 H 0.32258 0.82983 0.02522 0.0
C1430 C 0.38657 0.82655 0.99859 0.0
C1431 C 0.4194 0.82886 0.9834 0.0
C1432 C 0.36177 0.85224 0.9926 0.0
C1433 C 0.42633 0.85626 0.9608 0.0
C1434 C 0.40185 0.88158 0.9546 0.0
C1435 C 0.34627 0.90709 0.9667 0.0
C1436 C 0.3146 0.9068 0.98407 0.0
C1437 C 0.36984 0.88023 0.97091 0.0
C1438 C 0.30602 0.87817 0.00438 0.0
C1439 C 0.32943 0.85113 0.00865 0.0
H1440 H 0.87393 0.70062 0.99471 0.0
H1441 H 0.93633 0.63025 0.93594 0.0
H1442 H 0.8922 0.58624 0.94071 0.0
H1443 H 0.83943 0.56591 0.96578 0.0
H1444 H 0.77707 0.63262 0.02836 0.0
H1445 H 0.81715 0.68043 0.01714 0.0
C1446 C 0.87742 0.67581 0.98251 0.0
C1447 C 0.90842 0.66848 0.96524 0.0
C1448 C 0.8521 0.65011 0.98608 0.0
C1449 C 0.91288 0.63627 0.94967 0.0
C1450 C 0.88763 0.61115 0.95229 0.0
C1451 C 0.8343 0.59098 0.97682 0.0
C1452 C 0.80568 0.59563 0.99834 0.0
C1453 C 0.85771 0.61751 0.97115 0.0
C1454 C 0.79902 0.62842 0.0118 0.0
C1455 C 0.82208 0.6556 0.00557 0.0
H1456 H 0.62489 0.30815 0.54258 0.0
H1457 H 0.64527 0.29496 0.43465 0.0
H1458 H 0.69641 0.33149 0.43935 0.0
H1459 H 0.7276 0.37598 0.47208 0.0
H1460 H 0.70689 0.38904 0.57989 0.0
H1461 H 0.66453 0.34264 0.57796 0.0
C1462 C 0.64118 0.31261 0.5204 0.0
C1463 C 0.63138 0.29959 0.48826 0.0
C1464 C 0.67051 0.33338 0.52341 0.0
C1465 C 0.65253 0.305 0.4596 0.0
C1466 C 0.68162 0.32591 0.46227 0.0
C1467 C 0.71515 0.36724 0.49545 0.0
C1468 C 0.7204 0.38541 0.52614 0.0
C1469 C 0.69 0.34139 0.49376 0.0
C1470 C 0.70359 0.37477 0.55619 0.0
C1471 C 0.67892 0.34873 0.55491 0.0
H1472 H 0.11178 0.19736 0.52045 0.0
H1473 H 0.03491 0.13379 0.47134 0.0
H1474 H 0.07826 0.09206 0.45617 0.0
H1475 H 0.13665 0.07158 0.45899 0.0
H1476 H 0.21504 0.13168 0.50945 0.0
H1477 H 0.17261 0.17695 0.5213 0.0
C1478 C 0.10458 0.17445 0.50631 0.0
C1479 C 0.06981 0.16889 0.4973 0.0
C1480 C 0.12991 0.14985 0.49784 0.0
C1481 C 0.06115 0.13898 0.47888 0.0
C1482 C 0.08602 0.11493 0.47009 0.0
C1483 C 0.14473 0.09458 0.47255 0.0
C1484 C 0.179 0.09796 0.48364 0.0
C1485 C 0.12027 0.11986 0.47981 0.0
C1486 C 0.18886 0.12834 0.50059 0.0
C1487 C 0.16452 0.15411 0.50757 0.0
H1488 H 0.96005 0.58327 0.15205 0.0
H1489 H 0.03356 0.62779 0.22172 0.0
H1490 H 0.04132 0.67702 0.18272 0.0
H1491 H 0.03161 0.7035 0.12497 0.0
H1492 H 0.95724 0.65713 0.05694 0.0
H1493 H 0.94475 0.61299 0.09932 0.0
C1494 C 0.9774 0.60406 0.15885 0.0
C1495 C 0.99656 0.60197 0.18921 0.0
C1496 C 0.98152 0.63192 0.13654 0.0
C1497 C 0.01863 0.62906 0.19826 0.0
C1498 C 0.02313 0.65704 0.17593 0.0
C1499 C 0.01209 0.68423 0.12 0.0
C1500 C 0.99564 0.68323 0.08782 0.0
C1501 C 0.00533 0.65831 0.14448 0.0
C1502 C 0.97048 0.65809 0.08145 0.0
C1503 C 0.96338 0.63278 0.10558 0.0
H1504 H 0.52196 0.38569 0.69275 0.0
H1505 H 0.46046 0.45396 0.6303 0.0
H1506 H 0.45312 0.40902 0.5877 0.0
H1507 H 0.46815 0.3527 0.56547 0.0
H1508 H 0.52985 0.28341 0.62577 0.0
H1509 H 0.53255 0.32617 0.67234 0.0
C1510 C 0.50669 0.39065 0.66999 0.0
C1511 C 0.49229 0.42352 0.66461 0.0
C1512 C 0.50262 0.36455 0.64522 0.0
C1513 C 0.47227 0.42922 0.63506 0.0
C1514 C 0.46797 0.40349 0.61061 0.0
C1515 C 0.4819 0.34679 0.58901 0.0
C1516 C 0.49916 0.31528 0.59217 0.0
C1517 C 0.48367 0.37145 0.61505 0.0
C1518 C 0.51636 0.30757 0.62289 0.0
C1519 C 0.5181 0.33211 0.6493 0.0
H1520 H 0.46949 0.85382 0.79554 0.0
H1521 H 0.5589 0.91405 0.82179 0.0
H1522 H 0.58113 0.86703 0.85654 0.0
H1523 H 0.57009 0.81403 0.88748 0.0
H1524 H 0.4784 0.75542 0.86694 0.0
H1525 H 0.46266 0.79563 0.82099 0.0
C1526 C 0.49417 0.85616 0.80828 0.0
C1527 C 0.5123 0.88742 0.80676 0.0
C1528 C 0.50629 0.82933 0.82927 0.0
C1529 C 0.54426 0.89037 0.82325 0.0
C1530 C 0.55702 0.86351 0.843 0.0
C1531 C 0.54718 0.80952 0.87219 0.0
C1532 C 0.52516 0.78227 0.8807 0.0
C1533 C 0.53753 0.8336 0.8474 0.0
C1534 C 0.49576 0.77627 0.86066 0.0
C1535 C 0.48653 0.79956 0.83479 0.0
H1536 H 0.00093 0.07355 0.36102 0.0
H1537 H 0.99932 0.13744 0.27051 0.0
H1538 H 0.98739 0.18808 0.30646 0.0
H1539 H 0.97432 0.21341 0.36461 0.0
H1540 H 0.97423 0.14526 0.45235 0.0
H1541 H 0.9901 0.0975 0.41647 0.0
C1542 C 0.99798 0.09846 0.34884 0.0
C1543 C 0.00065 0.10149 0.31303 0.0
C1544 C 0.99074 0.12694 0.36935 0.0
C1545 C 0.99728 0.13427 0.29807 0.0
C1546 C 0.99037 0.16323 0.31863 0.0
C1547 C 0.97799 0.18813 0.37568 0.0
C1548 C 0.97276 0.18307 0.41119 0.0
C1549 C 0.98657 0.15982 0.35445 0.0
C1550 C 0.97764 0.15006 0.42515 0.0
C1551 C 0.9868 0.12252 0.40466 0.0
H1552 H 0.07022 0.00192 0.65865 0.0
H1553 H 0.14902 0.02567 0.73275 0.0
H1554 H 0.19347 0.01161 0.68965 0.0
H1555 H 0.20883 0.99667 0.62865 0.0
H1556 H 0.12673 0.97232 0.55774 0.0
H1557 H 0.08458 0.98188 0.60234 0.0
C1558 C 0.09714 0.00376 0.66573 0.0
C1559 C 0.10635 0.0152 0.69866 0.0
C1560 C 0.12189 0.99554 0.64129 0.0
C1561 C 0.14131 0.01697 0.70747 0.0
C1562 C 0.16661 0.00906 0.68278 0.0
C1563 C 0.18174 0.99312 0.62321 0.0
C1564 C 0.17099 0.98448 0.58959 0.0
C1565 C 0.15712 0.99892 0.64927 0.0
C1566 C 0.13579 0.97968 0.58302 0.0
C1567 C 0.11156 0.98507 0.60854 0.0
H1568 H 0.44002 0.99619 0.15328 0.0
H1569 H 0.367 0.97678 0.23426 0.0
H1570 H 0.31952 0.99021 0.19436 0.0
H1571 H 0.29957 0.00474 0.13464 0.0
H1572 H 0.37631 0.02489 0.05676 0.0
H1573 H 0.42163 0.01431 0.09773 0.0
C1574 C 0.41375 0.99485 0.16252 0.0
C1575 C 0.40701 0.98494 0.19651 0.0
C1576 C 0.38727 0.00281 0.13991 0.0
C1577 C 0.37282 0.98412 0.20807 0.0
C1578 C 0.34578 0.99175 0.18525 0.0
C1579 C 0.32622 0.00703 0.12686 0.0
C1580 C 0.33441 0.01494 0.0924 0.0
C1581 C 0.35274 0.00074 0.15084 0.0
C1582 C 0.36909 0.01812 0.08277 0.0
C1583 C 0.39517 0.01217 0.10621 0.0
H1584 H 0.59876 0.42517 0.32497 0.0
H1585 H 0.62698 0.51289 0.26378 0.0
H1586 H 0.6741 0.52605 0.30376 0.0
H1587 H 0.70022 0.51797 0.36172 0.0
H1588 H 0.66815 0.4314 0.42326 0.0
H1589 H 0.62992 0.4123 0.37764 0.0
C1590 C 0.61598 0.44654 0.31983 0.0
C1591 C 0.60948 0.46809 0.29164 0.0
C1592 C 0.6419 0.45455 0.34349 0.0
C1593 C 0.63178 0.49573 0.28514 0.0
C1594 C 0.65837 0.50351 0.30831 0.0
C1595 C 0.68543 0.49453 0.36471 0.0
C1596 C 0.68656 0.47649 0.39611 0.0
C1597 C 0.66267 0.48398 0.33845 0.0
C1598 C 0.66726 0.44612 0.39964 0.0
C1599 C 0.64541 0.4351 0.37353 0.0
H1600 H 0.87264 0.47724 0.79035 0.0
H1601 H 0.91211 0.56978 0.83708 0.0
H1602 H 0.86998 0.56526 0.88305 0.0
H1603 H 0.82758 0.53131 0.914 0.0
H1604 H 0.78722 0.43833 0.86952 0.0
H1605 H 0.82375 0.44663 0.81859 0.0
C1606 C 0.87128 0.49681 0.81014 0.0
C1607 C 0.89559 0.52367 0.81053 0.0
C1608 C 0.84734 0.49358 0.83722 0.0
C1609 C 0.89384 0.54874 0.83645 0.0
C1610 C 0.86989 0.5461 0.86284 0.0
C1611 C 0.82654 0.51304 0.89298 0.0
C1612 C 0.80533 0.48398 0.89565 0.0
C1613 C 0.84749 0.51798 0.86417 0.0
C1614 C 0.80355 0.46084 0.86801 0.0
C1615 C 0.82453 0.46554 0.83901 0.0
H1616 H 0.65934 0.08596 0.05686 0.0
H1617 H 0.72615 0.12397 0.97721 0.0
H1618 H 0.68598 0.17127 0.96571 0.0
H1619 H 0.6276 0.1963 0.97305 0.0
H1620 H 0.56092 0.15476 0.05147 0.0
H1621 H 0.60525 0.11444 0.06871 0.0
C1622 C 0.66542 0.10502 0.03741 0.0
C1623 C 0.69529 0.10141 0.01761 0.0
C1624 C 0.6419 0.13116 0.03035 0.0
C1625 C 0.70325 0.1264 0.99283 0.0
C1626 C 0.68011 0.15316 0.98602 0.0
C1627 C 0.6231 0.17876 0.99423 0.0
C1628 C 0.59077 0.17799 0.01043 0.0
C1629 C 0.64868 0.15499 0.00375 0.0
C1630 C 0.58529 0.15531 0.03802 0.0
C1631 C 0.61067 0.13232 0.04804 0.0
H1632 H 0.07795 0.35141 0.0573 0.0
H1633 H 0.11988 0.27949 0.98457 0.0
H1634 H 0.1678 0.31898 0.97258 0.0
H1635 H 0.19422 0.37734 0.97886 0.0
H1636 H 0.15156 0.44675 0.05422 0.0
H1637 H 0.10814 0.40485 0.06939 0.0
C1638 C 0.0979 0.34421 0.0392 0.0
C1639 C 0.09535 0.31294 0.02159 0.0
C1640 C 0.12524 0.36677 0.03274 0.0
C1641 C 0.12146 0.30356 0.99848 0.0
C1642 C 0.14871 0.32621 0.9915 0.0
C1643 C 0.17584 0.3829 0.99902 0.0
C1644 C 0.17573 0.41555 0.01468 0.0
C1645 C 0.15046 0.35838 0.00789 0.0
C1646 C 0.15182 0.42222 0.04104 0.0
C1647 C 0.12688 0.39824 0.04987 0.0
H1648 H 0.361 0.69468 0.53577 0.0
H1649 H 0.4185 0.66042 0.44737 0.0
H1650 H 0.37271 0.62068 0.43216 0.0
H1651 H 0.32107 0.58947 0.44858 0.0
H1652 H 0.26518 0.61851 0.53932 0.0
H1653 H 0.30466 0.66703 0.54859 0.0
C1654 C 0.3631 0.6789 0.51291 0.0
C1655 C 0.39336 0.68002 0.49309 0.0
C1656 C 0.33684 0.65523 0.50469 0.0
C1657 C 0.3958 0.6595 0.46346 0.0
C1658 C 0.36955 0.63686 0.45461 0.0
C1659 C 0.3168 0.60735 0.46957 0.0
C1660 C 0.29013 0.60104 0.4929 0.0
C1661 C 0.34057 0.6337 0.47563 0.0
C1662 C 0.28516 0.62355 0.52061 0.0
C1663 C 0.30809 0.65087 0.52618 0.0
H1664 H 0.88493 0.81061 0.48473 0.0
H1665 H 0.95913 0.87189 0.54046 0.0
H1666 H 0.9154 0.91449 0.55274 0.0
H1667 H 0.85796 0.93675 0.54417 0.0
H1668 H 0.78278 0.87786 0.4879 0.0
H1669 H 0.82487 0.83146 0.48 0.0
C1670 C 0.89144 0.83315 0.49977 0.0
C1671 C 0.92551 0.83822 0.5111 0.0
C1672 C 0.86606 0.85794 0.50668 0.0
C1673 C 0.93337 0.86747 0.53085 0.0
C1674 C 0.90834 0.89189 0.53804 0.0
C1675 C 0.85064 0.91365 0.53034 0.0
C1676 C 0.81758 0.91086 0.51617 0.0
C1677 C 0.87492 0.88772 0.52548 0.0
C1678 C 0.80817 0.88053 0.499 0.0
C1679 C 0.8323 0.8542 0.49428 0.0
loop_
_geom_bond_atom_site_label_1
_geom_bond_atom_site_label_2
_geom_bond_distance
_geom_bond_site_symmetry_2
_ccdc_geom_bond_type
Sc0 O3 2.025 1_655 S
Sc0 O10 2.105 1_654 S
Sc0 O13 2.105 . S
Sc0 O16 2.105 . S
Sc0 O19 2.105 1_655 S
Sc1 O3 2.025 . S
Sc1 O11 2.105 . S
Sc1 O15 2.105 . S
Sc1 O17 2.105 . S
Sc1 O21 2.105 . S
Sc2 O3 2.025 . S
Sc2 O12 2.105 . S
Sc2 O14 2.105 1_455 S
Sc2 O18 2.105 1_455 S
Sc2 O20 2.105 1_554 S
O3 Sc0 2.025 1_455 S
O3 Sc1 2.025 . S
O3 Sc2 2.025 . S
C4 O10 1.268 . S
C4 O20 1.268 . S
C5 O11 1.268 . S
C5 O19 1.268 . S
C6 O12 1.268 . S
C6 O21 1.268 . S
C7 O13 1.268 . S
C7 O17 1.268 1_655 S
C8 O14 1.268 . S
C8 O16 1.268 . S
C9 O15 1.268 . S
C9 O18 1.268 1_455 S
O10 Sc0 2.105 1_456 S
O10 C4 1.268 . S
O11 Sc1 2.105 . S
O11 C5 1.268 . S
O12 Sc2 2.105 . S
O12 C6 1.268 . S
O13 Sc0 2.105 . S
O13 C7 1.268 . S
O14 Sc2 2.105 1_655 S
O14 C8 1.268 . S
O15 Sc1 2.105 . S
O15 C9 1.268 . S
O16 Sc0 2.105 . S
O16 C8 1.268 . S
O17 Sc1 2.105 . S
O17 C7 1.268 1_455 S
O18 Sc2 2.105 1_655 S
O18 C9 1.268 1_655 S
O19 Sc0 2.105 1_455 S
O19 C5 1.268 . S
O20 Sc2 2.105 1_556 S
O20 C4 1.268 . S
O21 Sc1 2.105 . S
O21 C6 1.268 . S
Sc22 O25 2.025 . S
Sc22 O32 2.105 . S
Sc22 O35 2.105 . S
Sc22 O38 2.105 . S
Sc22 O41 2.105 . S
Sc23 O25 2.025 . S
Sc23 O33 2.105 . S
Sc23 O37 2.105 . S
Sc23 O39 2.105 . S
Sc23 O43 2.105 . S
Sc24 O25 2.025 . S
Sc24 O34 2.105 . S
Sc24 O36 2.105 . S
Sc24 O40 2.105 . S
Sc24 O42 2.105 . S
O25 Sc22 2.025 . S
O25 Sc23 2.025 . S
O25 Sc24 2.025 . S
C26 O32 1.268 . S
C26 O42 1.268 . S
C27 O33 1.268 . S
C27 O41 1.268 . S
C28 O34 1.268 . S
C28 O43 1.268 . S
C29 O35 1.268 . S
C29 O39 1.268 . S
C30 O36 1.268 . S
C30 O38 1.268 . S
C31 O37 1.268 . S
C31 O40 1.268 . S
O32 Sc22 2.105 . S
O32 C26 1.268 . S
O33 Sc23 2.105 . S
O33 C27 1.268 . S
O34 Sc24 2.105 . S
O34 C28 1.268 . S
O35 Sc22 2.105 . S
O35 C29 1.268 . S
O36 Sc24 2.105 . S
O36 C30 1.268 . S
O37 Sc23 2.105 . S
O37 C31 1.268 . S
O38 Sc22 2.105 . S
O38 C30 1.268 . S
O39 Sc23 2.105 . S
O39 C29 1.268 . S
O40 Sc24 2.105 . S
O40 C31 1.268 . S
O41 Sc22 2.105 . S
O41 C27 1.268 . S
O42 Sc24 2.105 . S
O42 C26 1.268 . S
O43 Sc23 2.105 . S
O43 C28 1.268 . S
Sc44 O47 2.025 . S
Sc44 O54 2.105 . S
Sc44 O57 2.105 . S
Sc44 O60 2.105 1_556 S
Sc44 O63 2.105 . S
Sc45 O47 2.025 . S
Sc45 O55 2.105 . S
Sc45 O59 2.105 . S
Sc45 O61 2.105 . S
Sc45 O65 2.105 . S
Sc46 O47 2.025 . S
Sc46 O56 2.105 . S
Sc46 O58 2.105 1_556 S
Sc46 O62 2.105 . S
Sc46 O64 2.105 . S
O47 Sc44 2.025 . S
O47 Sc45 2.025 . S
O47 Sc46 2.025 . S
C48 O54 1.268 . S
C48 O64 1.268 . S
C49 O55 1.268 . S
C49 O63 1.268 . S
C50 O56 1.268 . S
C50 O65 1.268 . S
C51 O57 1.268 . S
C51 O61 1.268 . S
C52 O58 1.268 . S
C52 O60 1.268 . S
C53 O59 1.268 . S
C53 O62 1.268 . S
O54 Sc44 2.105 . S
O54 C48 1.268 . S
O55 Sc45 2.105 . S
O55 C49 1.268 . S
O56 Sc46 2.105 . S
O56 C50 1.268 . S
O57 Sc44 2.105 . S
O57 C51 1.268 . S
O58 Sc46 2.105 1_554 S
O58 C52 1.268 . S
O59 Sc45 2.105 . S
O59 C53 1.268 . S
O60 Sc44 2.105 1_554 S
O60 C52 1.268 . S
O61 Sc45 2.105 . S
O61 C51 1.268 . S
O62 Sc46 2.105 . S
O62 C53 1.268 . S
O63 Sc44 2.105 . S
O63 C49 1.268 . S
O64 Sc46 2.105 . S
O64 C48 1.268 . S
O65 Sc45 2.105 . S
O65 C50 1.268 . S
Sc66 O69 2.025 . S
Sc66 O76 2.105 1_655 S
Sc66 O79 2.105 . S
Sc66 O82 2.105 . S
Sc66 O85 2.105 1_655 S
Sc67 O69 2.025 . S
Sc67 O77 2.105 . S
Sc67 O81 2.105 . S
Sc67 O83 2.105 . S
Sc67 O87 2.105 . S
Sc68 O69 2.025 1_455 S
Sc68 O78 2.105 . S
Sc68 O80 2.105 1_455 S
Sc68 O84 2.105 1_455 S
Sc68 O86 2.105 . S
O69 Sc66 2.025 . S
O69 Sc67 2.025 . S
O69 Sc68 2.025 1_655 S
C70 O76 1.268 . S
C70 O86 1.268 . S
C71 O77 1.268 . S
C71 O85 1.268 1_655 S
C72 O78 1.268 . S
C72 O87 1.268 1_455 S
C73 O79 1.268 . S
C73 O83 1.268 . S
C74 O80 1.268 . S
C74 O82 1.268 . S
C75 O81 1.268 . S
C75 O84 1.268 . S
O76 Sc66 2.105 1_455 S
O76 C70 1.268 . S
O77 Sc67 2.105 . S
O77 C71 1.268 . S
O78 Sc68 2.105 . S
O78 C72 1.268 . S
O79 Sc66 2.105 . S
O79 C73 1.268 . S
O80 Sc68 2.105 1_655 S
O80 C74 1.268 . S
O81 Sc67 2.105 . S
O81 C75 1.268 . S
O82 Sc66 2.105 . S
O82 C74 1.268 . S
O83 Sc67 2.105 . S
O83 C73 1.268 . S
O84 Sc68 2.105 1_655 S
O84 C75 1.268 . S
O85 Sc66 2.105 1_455 S
O85 C71 1.268 1_455 S
O86 Sc68 2.105 . S
O86 C70 1.268 . S
O87 Sc67 2.105 . S
O87 C72 1.268 1_655 S
Sc88 O91 2.025 1_565 S
Sc88 O98 2.105 1_465 S
Sc88 O101 2.105 . S
Sc88 O104 2.105 . S
Sc88 O107 2.105 1_565 S
Sc89 O91 2.025 . S
Sc89 O99 2.105 . S
Sc89 O103 2.105 . S
Sc89 O105 2.105 . S
Sc89 O109 2.105 . S
Sc90 O91 2.025 . S
Sc90 O100 2.105 . S
Sc90 O102 2.105 1_545 S
Sc90 O106 2.105 1_545 S
Sc90 O108 2.105 1_455 S
O91 Sc88 2.025 1_545 S
O91 Sc89 2.025 . S
O91 Sc90 2.025 . S
C92 O98 1.268 . S
C92 O108 1.268 . S
C93 O99 1.268 . S
C93 O107 1.268 . S
C94 O100 1.268 . S
C94 O109 1.268 . S
C95 O101 1.268 . S
C95 O105 1.268 1_565 S
C96 O102 1.268 . S
C96 O104 1.268 . S
C97 O103 1.268 . S
C97 O106 1.268 1_545 S
O98 Sc88 2.105 1_645 S
O98 C92 1.268 . S
O99 Sc89 2.105 . S
O99 C93 1.268 . S
O100 Sc90 2.105 . S
O100 C94 1.268 . S
O101 Sc88 2.105 . S
O101 C95 1.268 . S
O102 Sc90 2.105 1_565 S
O102 C96 1.268 . S
O103 Sc89 2.105 . S
O103 C97 1.268 . S
O104 Sc88 2.105 . S
O104 C96 1.268 . S
O105 Sc89 2.105 . S
O105 C95 1.268 1_545 S
O106 Sc90 2.105 1_565 S
O106 C97 1.268 1_565 S
O107 Sc88 2.105 1_545 S
O107 C93 1.268 . S
O108 Sc90 2.105 1_655 S
O108 C92 1.268 . S
O109 Sc89 2.105 . S
O109 C94 1.268 . S
Sc110 O113 2.025 1_545 S
Sc110 O120 2.105 1_545 S
Sc110 O123 2.105 . S
Sc110 O126 2.105 . S
Sc110 O129 2.105 1_545 S
Sc111 O113 2.025 . S
Sc111 O121 2.105 . S
Sc111 O125 2.105 . S
Sc111 O127 2.105 . S
Sc111 O131 2.105 . S
Sc112 O113 2.025 . S
Sc112 O122 2.105 . S
Sc112 O124 2.105 1_565 S
Sc112 O128 2.105 1_565 S
Sc112 O130 2.105 . S
O113 Sc110 2.025 1_565 S
O113 Sc111 2.025 . S
O113 Sc112 2.025 . S
C114 O120 1.268 . S
C114 O130 1.268 . S
C115 O121 1.268 . S
C115 O129 1.268 . S
C116 O122 1.268 . S
C116 O131 1.268 . S
C117 O123 1.268 . S
C117 O127 1.268 1_545 S
C118 O124 1.268 . S
C118 O126 1.268 . S
C119 O125 1.268 . S
C119 O128 1.268 1_565 S
O120 Sc110 2.105 1_565 S
O120 C114 1.268 . S
O121 Sc111 2.105 . S
O121 C115 1.268 . S
O122 Sc112 2.105 . S
O122 C116 1.268 . S
O123 Sc110 2.105 . S
O123 C117 1.268 . S
O124 Sc112 2.105 1_545 S
O124 C118 1.268 . S
O125 Sc111 2.105 . S
O125 C119 1.268 . S
O126 Sc110 2.105 . S
O126 C118 1.268 . S
O127 Sc111 2.105 . S
O127 C117 1.268 1_565 S
O128 Sc112 2.105 1_545 S
O128 C119 1.268 1_545 S
O129 Sc110 2.105 1_565 S
O129 C115 1.268 . S
O130 Sc112 2.105 . S
O130 C114 1.268 . S
O131 Sc111 2.105 . S
O131 C116 1.268 . S
Sc132 O135 2.025 . S
Sc132 O142 2.105 . S
Sc132 O145 2.105 . S
Sc132 O148 2.105 . S
Sc132 O151 2.105 . S
Sc133 O135 2.025 . S
Sc133 O143 2.105 . S
Sc133 O147 2.105 . S
Sc133 O149 2.105 . S
Sc133 O153 2.105 . S
Sc134 O135 2.025 . S
Sc134 O144 2.105 . S
Sc134 O146 2.105 . S
Sc134 O150 2.105 . S
Sc134 O152 2.105 . S
O135 Sc132 2.025 . S
O135 Sc133 2.025 . S
O135 Sc134 2.025 . S
C136 O142 1.268 . S
C136 O152 1.268 . S
C137 O143 1.268 . S
C137 O151 1.268 . S
C138 O144 1.268 . S
C138 O153 1.268 . S
C139 O145 1.268 . S
C139 O149 1.268 . S
C140 O146 1.268 . S
C140 O148 1.268 . S
C141 O147 1.268 . S
C141 O150 1.268 . S
O142 Sc132 2.105 . S
O142 C136 1.268 . S
O143 Sc133 2.105 . S
O143 C137 1.268 . S
O144 Sc134 2.105 . S
O144 C138 1.268 . S
O145 Sc132 2.105 . S
O145 C139 1.268 . S
O146 Sc134 2.105 . S
O146 C140 1.268 . S
O147 Sc133 2.105 . S
O147 C141 1.268 . S
O148 Sc132 2.105 . S
O148 C140 1.268 . S
O149 Sc133 2.105 . S
O149 C139 1.268 . S
O150 Sc134 2.105 . S
O150 C141 1.268 . S
O151 Sc132 2.105 . S
O151 C137 1.268 . S
O152 Sc134 2.105 . S
O152 C136 1.268 . S
O153 Sc133 2.105 . S
O153 C138 1.268 . S
Sc154 O157 2.025 . S
Sc154 O164 2.105 . S
Sc154 O167 2.105 . S
Sc154 O170 2.105 1_655 S
Sc154 O173 2.105 . S
Sc155 O157 2.025 . S
Sc155 O165 2.105 . S
Sc155 O169 2.105 . S
Sc155 O171 2.105 . S
Sc155 O175 2.105 . S
Sc156 O157 2.025 . S
Sc156 O166 2.105 . S
Sc156 O168 2.105 1_655 S
Sc156 O172 2.105 . S
Sc156 O174 2.105 . S
O157 Sc154 2.025 . S
O157 Sc155 2.025 . S
O157 Sc156 2.025 . S
C158 O164 1.268 . S
C158 O174 1.268 . S
C159 O165 1.268 . S
C159 O173 1.268 . S
C160 O166 1.268 . S
C160 O175 1.268 . S
C161 O167 1.268 . S
C161 O171 1.268 . S
C162 O168 1.268 . S
C162 O170 1.268 . S
C163 O169 1.268 . S
C163 O172 1.268 . S
O164 Sc154 2.105 . S
O164 C158 1.268 . S
O165 Sc155 2.105 . S
O165 C159 1.268 . S
O166 Sc156 2.105 . S
O166 C160 1.268 . S
O167 Sc154 2.105 . S
O167 C161 1.268 . S
O168 Sc156 2.105 1_455 S
O168 C162 1.268 . S
O169 Sc155 2.105 . S
O169 C163 1.268 . S
O170 Sc154 2.105 1_455 S
O170 C162 1.268 . S
O171 Sc155 2.105 . S
O171 C161 1.268 . S
O172 Sc156 2.105 . S
O172 C163 1.268 . S
O173 Sc154 2.105 . S
O173 C159 1.268 . S
O174 Sc156 2.105 . S
O174 C158 1.268 . S
O175 Sc155 2.105 . S
O175 C160 1.268 . S
Sc176 O179 2.025 1_556 S
Sc176 O186 2.105 1_546 S
Sc176 O189 2.105 . S
Sc176 O192 2.105 . S
Sc176 O195 2.105 1_556 S
Sc177 O179 2.025 . S
Sc177 O187 2.105 . S
Sc177 O191 2.105 . S
Sc177 O193 2.105 . S
Sc177 O197 2.105 . S
Sc178 O179 2.025 . S
Sc178 O188 2.105 . S
Sc178 O190 2.105 1_554 S
Sc178 O194 2.105 1_554 S
Sc178 O196 2.105 1_545 S
O179 Sc176 2.025 1_554 S
O179 Sc177 2.025 . S
O179 Sc178 2.025 . S
C180 O186 1.268 . S
C180 O196 1.268 . S
C181 O187 1.268 . S
C181 O195 1.268 . S
C182 O188 1.268 . S
C182 O197 1.268 . S
C183 O189 1.268 . S
C183 O193 1.268 1_556 S
C184 O190 1.268 . S
C184 O192 1.268 . S
C185 O191 1.268 . S
C185 O194 1.268 1_554 S
O186 Sc176 2.105 1_564 S
O186 C180 1.268 . S
O187 Sc177 2.105 . S
O187 C181 1.268 . S
O188 Sc178 2.105 . S
O188 C182 1.268 . S
O189 Sc176 2.105 . S
O189 C183 1.268 . S
O190 Sc178 2.105 1_556 S
O190 C184 1.268 . S
O191 Sc177 2.105 . S
O191 C185 1.268 . S
O192 Sc176 2.105 . S
O192 C184 1.268 . S
O193 Sc177 2.105 . S
O193 C183 1.268 1_554 S
O194 Sc178 2.105 1_556 S
O194 C185 1.268 1_556 S
O195 Sc176 2.105 1_554 S
O195 C181 1.268 . S
O196 Sc178 2.105 1_565 S
O196 C180 1.268 . S
O197 Sc177 2.105 . S
O197 C182 1.268 . S
Sc198 O201 2.025 1_554 S
Sc198 O208 2.105 1_554 S
Sc198 O211 2.105 . S
Sc198 O214 2.105 . S
Sc198 O217 2.105 1_554 S
Sc199 O201 2.025 . S
Sc199 O209 2.105 . S
Sc199 O213 2.105 . S
Sc199 O215 2.105 . S
Sc199 O219 2.105 . S
Sc200 O201 2.025 . S
Sc200 O210 2.105 . S
Sc200 O212 2.105 1_556 S
Sc200 O216 2.105 1_556 S
Sc200 O218 2.105 . S
O201 Sc198 2.025 1_556 S
O201 Sc199 2.025 . S
O201 Sc200 2.025 . S
C202 O208 1.268 . S
C202 O218 1.268 . S
C203 O209 1.268 . S
C203 O217 1.268 . S
C204 O210 1.268 . S
C204 O219 1.268 . S
C205 O211 1.268 . S
C205 O215 1.268 1_554 S
C206 O212 1.268 . S
C206 O214 1.268 . S
C207 O213 1.268 . S
C207 O216 1.268 1_556 S
O208 Sc198 2.105 1_556 S
O208 C202 1.268 . S
O209 Sc199 2.105 . S
O209 C203 1.268 . S
O210 Sc200 2.105 . S
O210 C204 1.268 . S
O211 Sc198 2.105 . S
O211 C205 1.268 . S
O212 Sc200 2.105 1_554 S
O212 C206 1.268 . S
O213 Sc199 2.105 . S
O213 C207 1.268 . S
O214 Sc198 2.105 . S
O214 C206 1.268 . S
O215 Sc199 2.105 . S
O215 C205 1.268 1_556 S
O216 Sc200 2.105 1_554 S
O216 C207 1.268 1_554 S
O217 Sc198 2.105 1_556 S
O217 C203 1.268 . S
O218 Sc200 2.105 . S
O218 C202 1.268 . S
O219 Sc199 2.105 . S
O219 C204 1.268 . S
Sc220 O223 2.025 . S
Sc220 O230 2.105 . S
Sc220 O233 2.105 . S
Sc220 O236 2.105 . S
Sc220 O239 2.105 . S
Sc221 O223 2.025 . S
Sc221 O231 2.105 . S
Sc221 O235 2.105 . S
Sc221 O237 2.105 . S
Sc221 O241 2.105 . S
Sc222 O223 2.025 . S
Sc222 O232 2.105 . S
Sc222 O234 2.105 . S
Sc222 O238 2.105 . S
Sc222 O240 2.105 . S
O223 Sc220 2.025 . S
O223 Sc221 2.025 . S
O223 Sc222 2.025 . S
C224 O230 1.268 . S
C224 O240 1.268 . S
C225 O231 1.268 . S
C225 O239 1.268 . S
C226 O232 1.268 . S
C226 O241 1.268 . S
C227 O233 1.268 . S
C227 O237 1.268 . S
C228 O234 1.268 . S
C228 O236 1.268 . S
C229 O235 1.268 . S
C229 O238 1.268 . S
O230 Sc220 2.105 . S
O230 C224 1.268 . S
O231 Sc221 2.105 . S
O231 C225 1.268 . S
O232 Sc222 2.105 . S
O232 C226 1.268 . S
O233 Sc220 2.105 . S
O233 C227 1.268 . S
O234 Sc222 2.105 . S
O234 C228 1.268 . S
O235 Sc221 2.105 . S
O235 C229 1.268 . S
O236 Sc220 2.105 . S
O236 C228 1.268 . S
O237 Sc221 2.105 . S
O237 C227 1.268 . S
O238 Sc222 2.105 . S
O238 C229 1.268 . S
O239 Sc220 2.105 . S
O239 C225 1.268 . S
O240 Sc222 2.105 . S
O240 C224 1.268 . S
O241 Sc221 2.105 . S
O241 C226 1.268 . S
Sc242 O245 2.025 . S
Sc242 O252 2.105 . S
Sc242 O255 2.105 . S
Sc242 O258 2.105 1_565 S
Sc242 O261 2.105 . S
Sc243 O245 2.025 . S
Sc243 O253 2.105 . S
Sc243 O257 2.105 . S
Sc243 O259 2.105 . S
Sc243 O263 2.105 . S
Sc244 O245 2.025 . S
Sc244 O254 2.105 . S
Sc244 O256 2.105 1_565 S
Sc244 O260 2.105 . S
Sc244 O262 2.105 . S
O245 Sc242 2.025 . S
O245 Sc243 2.025 . S
O245 Sc244 2.025 . S
C246 O252 1.268 . S
C246 O262 1.268 . S
C247 O253 1.268 . S
C247 O261 1.268 . S
C248 O254 1.268 . S
C248 O263 1.268 . S
C249 O255 1.268 . S
C249 O259 1.268 . S
C250 O256 1.268 . S
C250 O258 1.268 . S
C251 O257 1.268 . S
C251 O260 1.268 . S
O252 Sc242 2.105 . S
O252 C246 1.268 . S
O253 Sc243 2.105 . S
O253 C247 1.268 . S
O254 Sc244 2.105 . S
O254 C248 1.268 . S
O255 Sc242 2.105 . S
O255 C249 1.268 . S
O256 Sc244 2.105 1_545 S
O256 C250 1.268 . S
O257 Sc243 2.105 . S
O257 C251 1.268 . S
O258 Sc242 2.105 1_545 S
O258 C250 1.268 . S
O259 Sc243 2.105 . S
O259 C249 1.268 . S
O260 Sc244 2.105 . S
O260 C251 1.268 . S
O261 Sc242 2.105 . S
O261 C247 1.268 . S
O262 Sc244 2.105 . S
O262 C246 1.268 . S
O263 Sc243 2.105 . S
O263 C248 1.268 . S
Sc264 O267 2.025 1_455 S
Sc264 O274 2.105 . S
Sc264 O277 2.105 1_455 S
Sc264 O280 2.105 1_456 S
Sc264 O283 2.105 . S
Sc265 O267 2.025 . S
Sc265 O275 2.105 . S
Sc265 O279 2.105 . S
Sc265 O281 2.105 . S
Sc265 O285 2.105 . S
Sc266 O267 2.025 . S
Sc266 O276 2.105 1_655 S
Sc266 O278 2.105 1_556 S
Sc266 O282 2.105 . S
Sc266 O284 2.105 1_655 S
O267 Sc264 2.025 1_655 S
O267 Sc265 2.025 . S
O267 Sc266 2.025 . S
C268 O274 1.268 . S
C268 O284 1.268 . S
C269 O275 1.268 1_455 S
C269 O283 1.268 . S
C270 O276 1.268 1_655 S
C270 O285 1.268 . S
C271 O277 1.268 . S
C271 O281 1.268 . S
C272 O278 1.268 . S
C272 O280 1.268 . S
C273 O279 1.268 . S
C273 O282 1.268 . S
O274 Sc264 2.105 . S
O274 C268 1.268 . S
O275 Sc265 2.105 . S
O275 C269 1.268 1_655 S
O276 Sc266 2.105 1_455 S
O276 C270 1.268 1_455 S
O277 Sc264 2.105 1_655 S
O277 C271 1.268 . S
O278 Sc266 2.105 1_554 S
O278 C272 1.268 . S
O279 Sc265 2.105 . S
O279 C273 1.268 . S
O280 Sc264 2.105 1_654 S
O280 C272 1.268 . S
O281 Sc265 2.105 . S
O281 C271 1.268 . S
O282 Sc266 2.105 . S
O282 C273 1.268 . S
O283 Sc264 2.105 . S
O283 C269 1.268 . S
O284 Sc266 2.105 1_455 S
O284 C268 1.268 . S
O285 Sc265 2.105 . S
O285 C270 1.268 . S
Sc286 O289 2.025 . S
Sc286 O296 2.105 . S
Sc286 O299 2.105 . S
Sc286 O302 2.105 . S
Sc286 O305 2.105 . S
Sc287 O289 2.025 . S
Sc287 O297 2.105 . S
Sc287 O301 2.105 . S
Sc287 O303 2.105 . S
Sc287 O307 2.105 . S
Sc288 O289 2.025 . S
Sc288 O298 2.105 . S
Sc288 O300 2.105 . S
Sc288 O304 2.105 . S
Sc288 O306 2.105 . S
O289 Sc286 2.025 . S
O289 Sc287 2.025 . S
O289 Sc288 2.025 . S
C290 O296 1.268 . S
C290 O306 1.268 . S
C291 O297 1.268 . S
C291 O305 1.268 . S
C292 O298 1.268 . S
C292 O307 1.268 . S
C293 O299 1.268 . S
C293 O303 1.268 . S
C294 O300 1.268 . S
C294 O302 1.268 . S
C295 O301 1.268 . S
C295 O304 1.268 . S
O296 Sc286 2.105 . S
O296 C290 1.268 . S
O297 Sc287 2.105 . S
O297 C291 1.268 . S
O298 Sc288 2.105 . S
O298 C292 1.268 . S
O299 Sc286 2.105 . S
O299 C293 1.268 . S
O300 Sc288 2.105 . S
O300 C294 1.268 . S
O301 Sc287 2.105 . S
O301 C295 1.268 . S
O302 Sc286 2.105 . S
O302 C294 1.268 . S
O303 Sc287 2.105 . S
O303 C293 1.268 . S
O304 Sc288 2.105 . S
O304 C295 1.268 . S
O305 Sc286 2.105 . S
O305 C291 1.268 . S
O306 Sc288 2.105 . S
O306 C290 1.268 . S
O307 Sc287 2.105 . S
O307 C292 1.268 . S
Sc308 O311 2.025 . S
Sc308 O318 2.105 1_554 S
Sc308 O321 2.105 . S
Sc308 O324 2.105 . S
Sc308 O327 2.105 . S
Sc309 O311 2.025 . S
Sc309 O319 2.105 . S
Sc309 O323 2.105 . S
Sc309 O325 2.105 . S
Sc309 O329 2.105 . S
Sc310 O311 2.025 . S
Sc310 O320 2.105 . S
Sc310 O322 2.105 . S
Sc310 O326 2.105 . S
Sc310 O328 2.105 1_554 S
O311 Sc308 2.025 . S
O311 Sc309 2.025 . S
O311 Sc310 2.025 . S
C312 O318 1.268 . S
C312 O328 1.268 . S
C313 O319 1.268 . S
C313 O327 1.268 . S
C314 O320 1.268 . S
C314 O329 1.268 . S
C315 O321 1.268 . S
C315 O325 1.268 . S
C316 O322 1.268 . S
C316 O324 1.268 . S
C317 O323 1.268 . S
C317 O326 1.268 . S
O318 Sc308 2.105 1_556 S
O318 C312 1.268 . S
O319 Sc309 2.105 . S
O319 C313 1.268 . S
O320 Sc310 2.105 . S
O320 C314 1.268 . S
O321 Sc308 2.105 . S
O321 C315 1.268 . S
O322 Sc310 2.105 . S
O322 C316 1.268 . S
O323 Sc309 2.105 . S
O323 C317 1.268 . S
O324 Sc308 2.105 . S
O324 C316 1.268 . S
O325 Sc309 2.105 . S
O325 C315 1.268 . S
O326 Sc310 2.105 . S
O326 C317 1.268 . S
O327 Sc308 2.105 . S
O327 C313 1.268 . S
O328 Sc310 2.105 1_556 S
O328 C312 1.268 . S
O329 Sc309 2.105 . S
O329 C314 1.268 . S
Sc330 O333 2.025 . S
Sc330 O340 2.105 . S
Sc330 O343 2.105 1_455 S
Sc330 O346 2.105 1_455 S
Sc330 O349 2.105 . S
Sc331 O333 2.025 . S
Sc331 O341 2.105 . S
Sc331 O345 2.105 . S
Sc331 O347 2.105 . S
Sc331 O351 2.105 . S
Sc332 O333 2.025 1_655 S
Sc332 O342 2.105 1_655 S
Sc332 O344 2.105 . S
Sc332 O348 2.105 . S
Sc332 O350 2.105 1_655 S
O333 Sc330 2.025 . S
O333 Sc331 2.025 . S
O333 Sc332 2.025 1_455 S
C334 O340 1.268 . S
C334 O350 1.268 . S
C335 O341 1.268 . S
C335 O349 1.268 . S
C336 O342 1.268 . S
C336 O351 1.268 . S
C337 O343 1.268 1_455 S
C337 O347 1.268 . S
C338 O344 1.268 . S
C338 O346 1.268 . S
C339 O345 1.268 1_655 S
C339 O348 1.268 . S
O340 Sc330 2.105 . S
O340 C334 1.268 . S
O341 Sc331 2.105 . S
O341 C335 1.268 . S
O342 Sc332 2.105 1_455 S
O342 C336 1.268 . S
O343 Sc330 2.105 1_655 S
O343 C337 1.268 1_655 S
O344 Sc332 2.105 . S
O344 C338 1.268 . S
O345 Sc331 2.105 . S
O345 C339 1.268 1_455 S
O346 Sc330 2.105 1_655 S
O346 C338 1.268 . S
O347 Sc331 2.105 . S
O347 C337 1.268 . S
O348 Sc332 2.105 . S
O348 C339 1.268 . S
O349 Sc330 2.105 . S
O349 C335 1.268 . S
O350 Sc332 2.105 1_455 S
O350 C334 1.268 . S
O351 Sc331 2.105 . S
O351 C336 1.268 . S
Sc352 O355 2.025 . S
Sc352 O362 2.105 1_655 S
Sc352 O365 2.105 1_565 S
Sc352 O368 2.105 1_565 S
Sc352 O371 2.105 . S
Sc353 O355 2.025 . S
Sc353 O363 2.105 . S
Sc353 O367 2.105 . S
Sc353 O369 2.105 . S
Sc353 O373 2.105 . S
Sc354 O355 2.025 1_545 S
Sc354 O364 2.105 1_545 S
Sc354 O366 2.105 . S
Sc354 O370 2.105 . S
Sc354 O372 2.105 1_645 S
O355 Sc352 2.025 . S
O355 Sc353 2.025 . S
O355 Sc354 2.025 1_565 S
C356 O362 1.268 . S
C356 O372 1.268 . S
C357 O363 1.268 . S
C357 O371 1.268 . S
C358 O364 1.268 . S
C358 O373 1.268 . S
C359 O365 1.268 1_565 S
C359 O369 1.268 . S
C360 O366 1.268 . S
C360 O368 1.268 . S
C361 O367 1.268 1_545 S
C361 O370 1.268 . S
O362 Sc352 2.105 1_455 S
O362 C356 1.268 . S
O363 Sc353 2.105 . S
O363 C357 1.268 . S
O364 Sc354 2.105 1_565 S
O364 C358 1.268 . S
O365 Sc352 2.105 1_545 S
O365 C359 1.268 1_545 S
O366 Sc354 2.105 . S
O366 C360 1.268 . S
O367 Sc353 2.105 . S
O367 C361 1.268 1_565 S
O368 Sc352 2.105 1_545 S
O368 C360 1.268 . S
O369 Sc353 2.105 . S
O369 C359 1.268 . S
O370 Sc354 2.105 . S
O370 C361 1.268 . S
O371 Sc352 2.105 . S
O371 C357 1.268 . S
O372 Sc354 2.105 1_465 S
O372 C356 1.268 . S
O373 Sc353 2.105 . S
O373 C358 1.268 . S
Sc374 O377 2.025 . S
Sc374 O384 2.105 . S
Sc374 O387 2.105 1_545 S
Sc374 O390 2.105 1_545 S
Sc374 O393 2.105 . S
Sc375 O377 2.025 . S
Sc375 O385 2.105 . S
Sc375 O389 2.105 . S
Sc375 O391 2.105 . S
Sc375 O395 2.105 . S
Sc376 O377 2.025 1_565 S
Sc376 O386 2.105 1_565 S
Sc376 O388 2.105 . S
Sc376 O392 2.105 . S
Sc376 O394 2.105 1_565 S
O377 Sc374 2.025 . S
O377 Sc375 2.025 . S
O377 Sc376 2.025 1_545 S
C378 O384 1.268 . S
C378 O394 1.268 . S
C379 O385 1.268 . S
C379 O393 1.268 . S
C380 O386 1.268 . S
C380 O395 1.268 . S
C381 O387 1.268 1_545 S
C381 O391 1.268 . S
C382 O388 1.268 . S
C382 O390 1.268 . S
C383 O389 1.268 1_565 S
C383 O392 1.268 . S
O384 Sc374 2.105 . S
O384 C378 1.268 . S
O385 Sc375 2.105 . S
O385 C379 1.268 . S
O386 Sc376 2.105 1_545 S
O386 C380 1.268 . S
O387 Sc374 2.105 1_565 S
O387 C381 1.268 1_565 S
O388 Sc376 2.105 . S
O388 C382 1.268 . S
O389 Sc375 2.105 . S
O389 C383 1.268 1_545 S
O390 Sc374 2.105 1_565 S
O390 C382 1.268 . S
O391 Sc375 2.105 . S
O391 C381 1.268 . S
O392 Sc376 2.105 . S
O392 C383 1.268 . S
O393 Sc374 2.105 . S
O393 C379 1.268 . S
O394 Sc376 2.105 1_545 S
O394 C378 1.268 . S
O395 Sc375 2.105 . S
O395 C380 1.268 . S
Sc396 O399 2.025 . S
Sc396 O406 2.105 . S
Sc396 O409 2.105 . S
Sc396 O412 2.105 . S
Sc396 O415 2.105 . S
Sc397 O399 2.025 . S
Sc397 O407 2.105 . S
Sc397 O411 2.105 . S
Sc397 O413 2.105 . S
Sc397 O417 2.105 . S
Sc398 O399 2.025 . S
Sc398 O408 2.105 . S
Sc398 O410 2.105 . S
Sc398 O414 2.105 . S
Sc398 O416 2.105 . S
O399 Sc396 2.025 . S
O399 Sc397 2.025 . S
O399 Sc398 2.025 . S
C400 O406 1.268 . S
C400 O416 1.268 . S
C401 O407 1.268 . S
C401 O415 1.268 . S
C402 O408 1.268 . S
C402 O417 1.268 . S
C403 O409 1.268 . S
C403 O413 1.268 . S
C404 O410 1.268 . S
C404 O412 1.268 . S
C405 O411 1.268 . S
C405 O414 1.268 . S
O406 Sc396 2.105 . S
O406 C400 1.268 . S
O407 Sc397 2.105 . S
O407 C401 1.268 . S
O408 Sc398 2.105 . S
O408 C402 1.268 . S
O409 Sc396 2.105 . S
O409 C403 1.268 . S
O410 Sc398 2.105 . S
O410 C404 1.268 . S
O411 Sc397 2.105 . S
O411 C405 1.268 . S
O412 Sc396 2.105 . S
O412 C404 1.268 . S
O413 Sc397 2.105 . S
O413 C403 1.268 . S
O414 Sc398 2.105 . S
O414 C405 1.268 . S
O415 Sc396 2.105 . S
O415 C401 1.268 . S
O416 Sc398 2.105 . S
O416 C400 1.268 . S
O417 Sc397 2.105 . S
O417 C402 1.268 . S
Sc418 O421 2.025 . S
Sc418 O428 2.105 . S
Sc418 O431 2.105 . S
Sc418 O434 2.105 1_455 S
Sc418 O437 2.105 . S
Sc419 O421 2.025 . S
Sc419 O429 2.105 . S
Sc419 O433 2.105 . S
Sc419 O435 2.105 . S
Sc419 O439 2.105 . S
Sc420 O421 2.025 . S
Sc420 O430 2.105 . S
Sc420 O432 2.105 1_455 S
Sc420 O436 2.105 . S
Sc420 O438 2.105 . S
O421 Sc418 2.025 . S
O421 Sc419 2.025 . S
O421 Sc420 2.025 . S
C422 O428 1.268 . S
C422 O438 1.268 . S
C423 O429 1.268 . S
C423 O437 1.268 . S
C424 O430 1.268 . S
C424 O439 1.268 . S
C425 O431 1.268 . S
C425 O435 1.268 . S
C426 O432 1.268 . S
C426 O434 1.268 . S
C427 O433 1.268 . S
C427 O436 1.268 . S
O428 Sc418 2.105 . S
O428 C422 1.268 . S
O429 Sc419 2.105 . S
O429 C423 1.268 . S
O430 Sc420 2.105 . S
O430 C424 1.268 . S
O431 Sc418 2.105 . S
O431 C425 1.268 . S
O432 Sc420 2.105 1_655 S
O432 C426 1.268 . S
O433 Sc419 2.105 . S
O433 C427 1.268 . S
O434 Sc418 2.105 1_655 S
O434 C426 1.268 . S
O435 Sc419 2.105 . S
O435 C425 1.268 . S
O436 Sc420 2.105 . S
O436 C427 1.268 . S
O437 Sc418 2.105 . S
O437 C423 1.268 . S
O438 Sc420 2.105 . S
O438 C422 1.268 . S
O439 Sc419 2.105 . S
O439 C424 1.268 . S
Sc440 O443 2.025 . S
Sc440 O450 2.105 1_565 S
Sc440 O453 2.105 1_556 S
Sc440 O456 2.105 1_556 S
Sc440 O459 2.105 . S
Sc441 O443 2.025 . S
Sc441 O451 2.105 . S
Sc441 O455 2.105 . S
Sc441 O457 2.105 . S
Sc441 O461 2.105 . S
Sc442 O443 2.025 1_554 S
Sc442 O452 2.105 1_554 S
Sc442 O454 2.105 . S
Sc442 O458 2.105 . S
Sc442 O460 2.105 1_564 S
O443 Sc440 2.025 . S
O443 Sc441 2.025 . S
O443 Sc442 2.025 1_556 S
C444 O450 1.268 . S
C444 O460 1.268 . S
C445 O451 1.268 . S
C445 O459 1.268 . S
C446 O452 1.268 . S
C446 O461 1.268 . S
C447 O453 1.268 1_556 S
C447 O457 1.268 . S
C448 O454 1.268 . S
C448 O456 1.268 . S
C449 O455 1.268 1_554 S
C449 O458 1.268 . S
O450 Sc440 2.105 1_545 S
O450 C444 1.268 . S
O451 Sc441 2.105 . S
O451 C445 1.268 . S
O452 Sc442 2.105 1_556 S
O452 C446 1.268 . S
O453 Sc440 2.105 1_554 S
O453 C447 1.268 1_554 S
O454 Sc442 2.105 . S
O454 C448 1.268 . S
O455 Sc441 2.105 . S
O455 C449 1.268 1_556 S
O456 Sc440 2.105 1_554 S
O456 C448 1.268 . S
O457 Sc441 2.105 . S
O457 C447 1.268 . S
O458 Sc442 2.105 . S
O458 C449 1.268 . S
O459 Sc440 2.105 . S
O459 C445 1.268 . S
O460 Sc442 2.105 1_546 S
O460 C444 1.268 . S
O461 Sc441 2.105 . S
O461 C446 1.268 . S
Sc462 O465 2.025 . S
Sc462 O472 2.105 . S
Sc462 O475 2.105 1_554 S
Sc462 O478 2.105 1_554 S
Sc462 O481 2.105 . S
Sc463 O465 2.025 . S
Sc463 O473 2.105 . S
Sc463 O477 2.105 . S
Sc463 O479 2.105 . S
Sc463 O483 2.105 . S
Sc464 O465 2.025 1_556 S
Sc464 O474 2.105 1_556 S
Sc464 O476 2.105 . S
Sc464 O480 2.105 . S
Sc464 O482 2.105 1_556 S
O465 Sc462 2.025 . S
O465 Sc463 2.025 . S
O465 Sc464 2.025 1_554 S
C466 O472 1.268 . S
C466 O482 1.268 . S
C467 O473 1.268 . S
C467 O481 1.268 . S
C468 O474 1.268 . S
C468 O483 1.268 . S
C469 O475 1.268 1_554 S
C469 O479 1.268 . S
C470 O476 1.268 . S
C470 O478 1.268 . S
C471 O477 1.268 1_556 S
C471 O480 1.268 . S
O472 Sc462 2.105 . S
O472 C466 1.268 . S
O473 Sc463 2.105 . S
O473 C467 1.268 . S
O474 Sc464 2.105 1_554 S
O474 C468 1.268 . S
O475 Sc462 2.105 1_556 S
O475 C469 1.268 1_556 S
O476 Sc464 2.105 . S
O476 C470 1.268 . S
O477 Sc463 2.105 . S
O477 C471 1.268 1_554 S
O478 Sc462 2.105 1_556 S
O478 C470 1.268 . S
O479 Sc463 2.105 . S
O479 C469 1.268 . S
O480 Sc464 2.105 . S
O480 C471 1.268 . S
O481 Sc462 2.105 . S
O481 C467 1.268 . S
O482 Sc464 2.105 1_554 S
O482 C466 1.268 . S
O483 Sc463 2.105 . S
O483 C468 1.268 . S
Sc484 O487 2.025 . S
Sc484 O494 2.105 . S
Sc484 O497 2.105 . S
Sc484 O500 2.105 . S
Sc484 O503 2.105 . S
Sc485 O487 2.025 . S
Sc485 O495 2.105 . S
Sc485 O499 2.105 . S
Sc485 O501 2.105 . S
Sc485 O505 2.105 . S
Sc486 O487 2.025 . S
Sc486 O496 2.105 . S
Sc486 O498 2.105 . S
Sc486 O502 2.105 . S
Sc486 O504 2.105 . S
O487 Sc484 2.025 . S
O487 Sc485 2.025 . S
O487 Sc486 2.025 . S
C488 O494 1.268 . S
C488 O504 1.268 . S
C489 O495 1.268 . S
C489 O503 1.268 . S
C490 O496 1.268 . S
C490 O505 1.268 . S
C491 O497 1.268 . S
C491 O501 1.268 . S
C492 O498 1.268 . S
C492 O500 1.268 . S
C493 O499 1.268 . S
C493 O502 1.268 . S
O494 Sc484 2.105 . S
O494 C488 1.268 . S
O495 Sc485 2.105 . S
O495 C489 1.268 . S
O496 Sc486 2.105 . S
O496 C490 1.268 . S
O497 Sc484 2.105 . S
O497 C491 1.268 . S
O498 Sc486 2.105 . S
O498 C492 1.268 . S
O499 Sc485 2.105 . S
O499 C493 1.268 . S
O500 Sc484 2.105 . S
O500 C492 1.268 . S
O501 Sc485 2.105 . S
O501 C491 1.268 . S
O502 Sc486 2.105 . S
O502 C493 1.268 . S
O503 Sc484 2.105 . S
O503 C489 1.268 . S
O504 Sc486 2.105 . S
O504 C488 1.268 . S
O505 Sc485 2.105 . S
O505 C490 1.268 . S
Sc506 O509 2.025 . S
Sc506 O516 2.105 . S
Sc506 O519 2.105 . S
Sc506 O522 2.105 1_545 S
Sc506 O525 2.105 . S
Sc507 O509 2.025 . S
Sc507 O517 2.105 . S
Sc507 O521 2.105 . S
Sc507 O523 2.105 . S
Sc507 O527 2.105 . S
Sc508 O509 2.025 . S
Sc508 O518 2.105 . S
Sc508 O520 2.105 1_545 S
Sc508 O524 2.105 . S
Sc508 O526 2.105 . S
O509 Sc506 2.025 . S
O509 Sc507 2.025 . S
O509 Sc508 2.025 . S
C510 O516 1.268 . S
C510 O526 1.268 . S
C511 O517 1.268 . S
C511 O525 1.268 . S
C512 O518 1.268 . S
C512 O527 1.268 . S
C513 O519 1.268 . S
C513 O523 1.268 . S
C514 O520 1.268 . S
C514 O522 1.268 . S
C515 O521 1.268 . S
C515 O524 1.268 . S
O516 Sc506 2.105 . S
O516 C510 1.268 . S
O517 Sc507 2.105 . S
O517 C511 1.268 . S
O518 Sc508 2.105 . S
O518 C512 1.268 . S
O519 Sc506 2.105 . S
O519 C513 1.268 . S
O520 Sc508 2.105 1_565 S
O520 C514 1.268 . S
O521 Sc507 2.105 . S
O521 C515 1.268 . S
O522 Sc506 2.105 1_565 S
O522 C514 1.268 . S
O523 Sc507 2.105 . S
O523 C513 1.268 . S
O524 Sc508 2.105 . S
O524 C515 1.268 . S
O525 Sc506 2.105 . S
O525 C511 1.268 . S
O526 Sc508 2.105 . S
O526 C510 1.268 . S
O527 Sc507 2.105 . S
O527 C512 1.268 . S
H528 C534 0.930 . S
H529 C537 0.930 . S
H530 C538 0.931 1_455 S
H531 C539 0.930 . S
H532 C542 0.930 . S
H533 C543 0.932 . S
C534 H528 0.930 . S
C534 C535 1.355 . S
C534 C536 1.415 . S
C535 C534 1.355 . S
C535 C537 1.419 . S
C536 C534 1.415 . S
C536 C541 1.426 1_655 S
C536 C543 1.410 . S
C537 H529 0.930 . S
C537 C535 1.419 . S
C537 C538 1.362 . S
C538 H530 0.931 1_655 S
C538 C537 1.362 . S
C538 C541 1.409 1_655 S
C539 H531 0.930 . S
C539 C540 1.355 . S
C539 C541 1.414 . S
C540 C539 1.355 . S
C540 C542 1.419 . S
C541 C536 1.426 1_455 S
C541 C538 1.409 1_455 S
C541 C539 1.414 . S
C542 H532 0.930 . S
C542 C540 1.419 . S
C542 C543 1.360 1_455 S
C543 H533 0.932 . S
C543 C536 1.410 . S
C543 C542 1.360 1_655 S
H544 C550 0.930 . S
H545 C553 0.930 . S
H546 C554 0.930 . S
H547 C555 0.930 . S
H548 C558 0.930 . S
H549 C559 0.930 . S
C550 H544 0.930 . S
C550 C551 1.355 . S
C550 C552 1.415 . S
C551 C550 1.355 . S
C551 C553 1.419 . S
C552 C550 1.415 . S
C552 C557 1.425 . S
C552 C559 1.409 . S
C553 H545 0.930 . S
C553 C551 1.419 . S
C553 C554 1.362 . S
C554 H546 0.930 . S
C554 C553 1.362 . S
C554 C557 1.409 . S
C555 H547 0.930 . S
C555 C556 1.355 . S
C555 C557 1.415 . S
C556 C555 1.355 . S
C556 C558 1.419 . S
C557 C552 1.425 . S
C557 C554 1.409 . S
C557 C555 1.415 . S
C558 H548 0.930 . S
C558 C556 1.419 . S
C558 C559 1.362 . S
C559 H549 0.930 . S
C559 C552 1.409 . S
C559 C558 1.362 . S
H560 C566 0.930 . S
H561 C569 0.930 . S
H562 C570 0.930 . S
H563 C571 0.930 . S
H564 C574 0.930 . S
H565 C575 0.930 . S
C566 H560 0.930 . S
C566 C567 1.355 . S
C566 C568 1.415 . S
C567 C566 1.355 . S
C567 C569 1.419 . S
C568 C566 1.415 . S
C568 C573 1.425 . S
C568 C575 1.409 . S
C569 H561 0.930 . S
C569 C567 1.419 . S
C569 C570 1.362 . S
C570 H562 0.930 . S
C570 C569 1.362 . S
C570 C573 1.409 . S
C571 H563 0.930 . S
C571 C572 1.355 . S
C571 C573 1.415 . S
C572 C571 1.355 . S
C572 C574 1.419 . S
C573 C568 1.425 . S
C573 C570 1.409 . S
C573 C571 1.415 . S
C574 H564 0.930 . S
C574 C572 1.419 . S
C574 C575 1.362 . S
C575 H565 0.930 . S
C575 C568 1.409 . S
C575 C574 1.362 . S
H576 C582 0.930 . S
H577 C585 0.930 . S
H578 C586 0.930 . S
H579 C587 0.930 . S
H580 C590 0.930 . S
H581 C591 0.930 . S
C582 H576 0.930 . S
C582 C583 1.355 . S
C582 C584 1.415 . S
C583 C582 1.355 . S
C583 C585 1.419 1_455 S
C584 C582 1.415 . S
C584 C589 1.425 1_455 S
C584 C591 1.409 . S
C585 H577 0.930 . S
C585 C583 1.419 1_655 S
C585 C586 1.362 . S
C586 H578 0.930 . S
C586 C585 1.362 . S
C586 C589 1.409 . S
C587 H579 0.930 . S
C587 C588 1.355 . S
C587 C589 1.415 . S
C588 C587 1.355 . S
C588 C590 1.419 1_655 S
C589 C584 1.425 1_655 S
C589 C586 1.409 . S
C589 C587 1.415 . S
C590 H580 0.930 . S
C590 C588 1.419 1_455 S
C590 C591 1.362 . S
C591 H581 0.930 . S
C591 C584 1.409 . S
C591 C590 1.362 . S
H592 C598 0.930 . S
H593 C601 0.930 . S
H594 C602 0.930 . S
H595 C603 0.930 . S
H596 C606 0.930 . S
H597 C607 0.930 . S
C598 H592 0.930 . S
C598 C599 1.355 . S
C598 C600 1.415 . S
C599 C598 1.355 . S
C599 C601 1.419 . S
C600 C598 1.415 . S
C600 C605 1.425 1_565 S
C600 C607 1.409 . S
C601 H593 0.930 . S
C601 C599 1.419 . S
C601 C602 1.362 1_565 S
C602 H594 0.930 . S
C602 C601 1.362 1_545 S
C602 C605 1.409 . S
C603 H595 0.930 . S
C603 C604 1.355 . S
C603 C605 1.415 . S
C604 C603 1.355 . S
C604 C606 1.419 . S
C605 C600 1.425 1_545 S
C605 C602 1.409 . S
C605 C603 1.415 . S
C606 H596 0.930 . S
C606 C604 1.419 . S
C606 C607 1.362 1_545 S
C607 H597 0.930 . S
C607 C600 1.409 . S
C607 C606 1.362 1_565 S
H608 C614 0.930 . S
H609 C617 0.930 . S
H610 C618 0.930 . S
H611 C619 0.930 . S
H612 C622 0.930 . S
H613 C623 0.930 . S
C614 H608 0.930 . S
C614 C615 1.355 . S
C614 C616 1.415 . S
C615 C614 1.355 . S
C615 C617 1.419 1_545 S
C616 C614 1.415 . S
C616 C621 1.425 1_545 S
C616 C623 1.409 . S
C617 H609 0.930 . S
C617 C615 1.419 1_565 S
C617 C618 1.362 . S
C618 H610 0.930 . S
C618 C617 1.362 . S
C618 C621 1.409 . S
C619 H611 0.930 . S
C619 C620 1.355 . S
C619 C621 1.415 . S
C620 C619 1.355 . S
C620 C622 1.419 1_565 S
C621 C616 1.425 1_565 S
C621 C618 1.409 . S
C621 C619 1.415 . S
C622 H612 0.930 . S
C622 C620 1.419 1_545 S
C622 C623 1.362 . S
C623 H613 0.930 . S
C623 C616 1.409 . S
C623 C622 1.362 . S
H624 C630 0.930 . S
H625 C633 0.930 . S
H626 C634 0.930 . S
H627 C635 0.930 . S
H628 C638 0.930 . S
H629 C639 0.930 . S
C630 H624 0.930 . S
C630 C631 1.355 . S
C630 C632 1.415 . S
C631 C630 1.355 . S
C631 C633 1.419 . S
C632 C630 1.415 . S
C632 C637 1.425 . S
C632 C639 1.409 . S
C633 H625 0.930 . S
C633 C631 1.419 . S
C633 C634 1.362 . S
C634 H626 0.930 . S
C634 C633 1.362 . S
C634 C637 1.409 . S
C635 H627 0.930 . S
C635 C636 1.355 . S
C635 C637 1.415 . S
C636 C635 1.355 . S
C636 C638 1.419 . S
C637 C632 1.425 . S
C637 C634 1.409 . S
C637 C635 1.415 . S
C638 H628 0.930 . S
C638 C636 1.419 . S
C638 C639 1.362 . S
C639 H629 0.930 . S
C639 C632 1.409 . S
C639 C638 1.362 . S
H640 C646 0.930 . S
H641 C649 0.930 . S
H642 C650 0.930 . S
H643 C651 0.930 . S
H644 C654 0.930 . S
H645 C655 0.930 . S
C646 H640 0.930 . S
C646 C647 1.355 . S
C646 C648 1.415 . S
C647 C646 1.355 . S
C647 C649 1.419 . S
C648 C646 1.415 . S
C648 C653 1.425 . S
C648 C655 1.409 . S
C649 H641 0.930 . S
C649 C647 1.419 . S
C649 C650 1.362 . S
C650 H642 0.930 . S
C650 C649 1.362 . S
C650 C653 1.409 . S
C651 H643 0.930 . S
C651 C652 1.355 . S
C651 C653 1.415 . S
C652 C651 1.355 . S
C652 C654 1.419 . S
C653 C648 1.425 . S
C653 C650 1.409 . S
C653 C651 1.415 . S
C654 H644 0.930 . S
C654 C652 1.419 . S
C654 C655 1.362 . S
C655 H645 0.930 . S
C655 C648 1.409 . S
C655 C654 1.362 . S
H656 C662 0.930 1_554 S
H657 C665 0.930 . S
H658 C666 0.930 . S
H659 C667 0.930 . S
H660 C670 0.930 . S
H661 C671 0.930 . S
C662 H656 0.930 1_556 S
C662 C663 1.355 . S
C662 C664 1.415 1_556 S
C663 C662 1.355 . S
C663 C665 1.419 . S
C664 C662 1.415 1_554 S
C664 C669 1.425 1_554 S
C664 C671 1.409 . S
C665 H657 0.930 . S
C665 C663 1.419 . S
C665 C666 1.362 . S
C666 H658 0.930 . S
C666 C665 1.362 . S
C666 C669 1.409 . S
C667 H659 0.930 . S
C667 C668 1.354 1_556 S
C667 C669 1.415 . S
C668 C667 1.354 1_554 S
C668 C670 1.419 . S
C669 C664 1.425 1_556 S
C669 C666 1.409 . S
C669 C667 1.415 . S
C670 H660 0.930 . S
C670 C668 1.419 . S
C670 C671 1.362 . S
C671 H661 0.930 . S
C671 C664 1.409 . S
C671 C670 1.362 . S
H672 C678 0.930 . S
H673 C681 0.930 . S
H674 C682 0.930 . S
H675 C683 0.930 . S
H676 C686 0.930 . S
H677 C687 0.930 . S
C678 H672 0.930 . S
C678 C679 1.355 . S
C678 C680 1.415 . S
C679 C678 1.355 . S
C679 C681 1.419 1_556 S
C680 C678 1.415 . S
C680 C685 1.425 1_556 S
C680 C687 1.409 . S
C681 H673 0.930 . S
C681 C679 1.419 1_554 S
C681 C682 1.362 . S
C682 H674 0.930 . S
C682 C681 1.362 . S
C682 C685 1.409 . S
C683 H675 0.930 . S
C683 C684 1.355 . S
C683 C685 1.415 . S
C684 C683 1.355 . S
C684 C686 1.419 1_554 S
C685 C680 1.425 1_554 S
C685 C682 1.409 . S
C685 C683 1.415 . S
C686 H676 0.930 . S
C686 C684 1.419 1_556 S
C686 C687 1.362 . S
C687 H677 0.930 . S
C687 C680 1.409 . S
C687 C686 1.362 . S
H688 C694 0.930 . S
H689 C697 0.930 . S
H690 C698 0.930 . S
H691 C699 0.930 . S
H692 C702 0.930 . S
H693 C703 0.930 . S
C694 H688 0.930 . S
C694 C695 1.355 . S
C694 C696 1.415 . S
C695 C694 1.355 . S
C695 C697 1.419 . S
C696 C694 1.415 . S
C696 C701 1.425 . S
C696 C703 1.409 . S
C697 H689 0.930 . S
C697 C695 1.419 . S
C697 C698 1.362 . S
C698 H690 0.930 . S
C698 C697 1.362 . S
C698 C701 1.409 . S
C699 H691 0.930 . S
C699 C700 1.355 . S
C699 C701 1.415 . S
C700 C699 1.355 . S
C700 C702 1.419 . S
C701 C696 1.425 . S
C701 C698 1.409 . S
C701 C699 1.415 . S
C702 H692 0.930 . S
C702 C700 1.419 . S
C702 C703 1.362 . S
C703 H693 0.930 . S
C703 C696 1.409 . S
C703 C702 1.362 . S
H704 C710 0.930 . S
H705 C713 0.930 . S
H706 C714 0.930 . S
H707 C715 0.930 . S
H708 C718 0.930 . S
H709 C719 0.930 . S
C710 H704 0.930 . S
C710 C711 1.355 . S
C710 C712 1.415 . S
C711 C710 1.355 . S
C711 C713 1.419 . S
C712 C710 1.415 . S
C712 C717 1.425 . S
C712 C719 1.409 . S
C713 H705 0.930 . S
C713 C711 1.419 . S
C713 C714 1.362 . S
C714 H706 0.930 . S
C714 C713 1.362 . S
C714 C717 1.409 . S
C715 H707 0.930 . S
C715 C716 1.355 . S
C715 C717 1.415 . S
C716 C715 1.355 . S
C716 C718 1.419 . S
C717 C712 1.425 . S
C717 C714 1.409 . S
C717 C715 1.415 . S
C718 H708 0.930 . S
C718 C716 1.419 . S
C718 C719 1.362 . S
C719 H709 0.930 . S
C719 C712 1.409 . S
C719 C718 1.362 . S
H720 C726 0.930 . S
H721 C729 0.930 . S
H722 C730 0.930 . S
H723 C731 0.930 . S
H724 C734 0.930 . S
H725 C735 0.930 . S
C726 H720 0.930 . S
C726 C727 1.355 1_455 S
C726 C728 1.415 . S
C727 C726 1.355 1_655 S
C727 C729 1.419 . S
C728 C726 1.415 . S
C728 C733 1.425 1_455 S
C728 C735 1.409 . S
C729 H721 0.930 . S
C729 C727 1.419 . S
C729 C730 1.362 . S
C730 H722 0.930 . S
C730 C729 1.362 . S
C730 C733 1.409 . S
C731 H723 0.930 . S
C731 C732 1.355 1_655 S
C731 C733 1.415 . S
C732 C731 1.355 1_455 S
C732 C734 1.419 . S
C733 C728 1.425 1_655 S
C733 C730 1.409 . S
C733 C731 1.415 . S
C734 H724 0.930 . S
C734 C732 1.419 . S
C734 C735 1.362 . S
C735 H725 0.930 . S
C735 C728 1.409 . S
C735 C734 1.362 . S
H736 C742 0.930 . S
H737 C745 0.930 . S
H738 C746 0.930 . S
H739 C747 0.930 . S
H740 C750 0.930 . S
H741 C751 0.930 . S
C742 H736 0.930 . S
C742 C743 1.355 . S
C742 C744 1.415 . S
C743 C742 1.355 . S
C743 C745 1.419 . S
C744 C742 1.415 . S
C744 C749 1.425 . S
C744 C751 1.409 . S
C745 H737 0.930 . S
C745 C743 1.419 . S
C745 C746 1.362 . S
C746 H738 0.930 . S
C746 C745 1.362 . S
C746 C749 1.409 . S
C747 H739 0.930 . S
C747 C748 1.355 . S
C747 C749 1.415 . S
C748 C747 1.355 . S
C748 C750 1.419 . S
C749 C744 1.425 . S
C749 C746 1.409 . S
C749 C747 1.415 . S
C750 H740 0.930 . S
C750 C748 1.419 . S
C750 C751 1.362 . S
C751 H741 0.930 . S
C751 C744 1.409 . S
C751 C750 1.362 . S
H752 C758 0.930 . S
H753 C761 0.930 . S
H754 C762 0.930 . S
H755 C763 0.930 . S
H756 C766 0.930 . S
H757 C767 0.930 . S
C758 H752 0.930 . S
C758 C759 1.355 . S
C758 C760 1.415 . S
C759 C758 1.355 . S
C759 C761 1.419 . S
C760 C758 1.415 . S
C760 C765 1.425 . S
C760 C767 1.409 . S
C761 H753 0.930 . S
C761 C759 1.419 . S
C761 C762 1.362 . S
C762 H754 0.930 . S
C762 C761 1.362 . S
C762 C765 1.409 . S
C763 H755 0.930 . S
C763 C764 1.355 . S
C763 C765 1.415 . S
C764 C763 1.355 . S
C764 C766 1.419 . S
C765 C760 1.425 . S
C765 C762 1.409 . S
C765 C763 1.415 . S
C766 H756 0.930 . S
C766 C764 1.419 . S
C766 C767 1.362 . S
C767 H757 0.930 . S
C767 C760 1.409 . S
C767 C766 1.362 . S
H768 C774 0.930 . S
H769 C777 0.930 . S
H770 C778 0.930 . S
H771 C779 0.930 . S
H772 C782 0.930 . S
H773 C783 0.930 . S
C774 H768 0.930 . S
C774 C775 1.355 . S
C774 C776 1.415 . S
C775 C774 1.355 . S
C775 C777 1.419 1_455 S
C776 C774 1.415 . S
C776 C781 1.425 1_455 S
C776 C783 1.409 . S
C777 H769 0.930 . S
C777 C775 1.419 1_655 S
C777 C778 1.362 . S
C778 H770 0.930 . S
C778 C777 1.362 . S
C778 C781 1.409 . S
C779 H771 0.930 . S
C779 C780 1.355 . S
C779 C781 1.415 . S
C780 C779 1.355 . S
C780 C782 1.419 1_655 S
C781 C776 1.425 1_655 S
C781 C778 1.409 . S
C781 C779 1.415 . S
C782 H772 0.930 . S
C782 C780 1.419 1_455 S
C782 C783 1.362 . S
C783 H773 0.930 . S
C783 C776 1.409 . S
C783 C782 1.362 . S
H784 C790 0.930 . S
H785 C793 0.930 . S
H786 C794 0.930 . S
H787 C795 0.930 . S
H788 C798 0.930 . S
H789 C799 0.930 . S
C790 H784 0.930 . S
C790 C791 1.355 . S
C790 C792 1.415 . S
C791 C790 1.355 . S
C791 C793 1.419 1_545 S
C792 C790 1.415 . S
C792 C797 1.425 1_545 S
C792 C799 1.409 . S
C793 H785 0.930 . S
C793 C791 1.419 1_565 S
C793 C794 1.362 . S
C794 H786 0.930 . S
C794 C793 1.362 . S
C794 C797 1.409 . S
C795 H787 0.930 . S
C795 C796 1.355 . S
C795 C797 1.415 . S
C796 C795 1.355 . S
C796 C798 1.419 1_565 S
C797 C792 1.425 1_565 S
C797 C794 1.409 . S
C797 C795 1.415 . S
C798 H788 0.930 . S
C798 C796 1.419 1_545 S
C798 C799 1.362 . S
C799 H789 0.930 . S
C799 C792 1.409 . S
C799 C798 1.362 . S
H800 C806 0.930 . S
H801 C809 0.930 . S
H802 C810 0.930 . S
H803 C811 0.930 . S
H804 C814 0.930 . S
H805 C815 0.930 . S
C806 H800 0.930 . S
C806 C807 1.355 1_545 S
C806 C808 1.415 . S
C807 C806 1.355 1_565 S
C807 C809 1.419 . S
C808 C806 1.415 . S
C808 C813 1.425 1_545 S
C808 C815 1.409 . S
C809 H801 0.930 . S
C809 C807 1.419 . S
C809 C810 1.362 . S
C810 H802 0.930 . S
C810 C809 1.362 . S
C810 C813 1.409 . S
C811 H803 0.930 . S
C811 C812 1.355 1_565 S
C811 C813 1.415 . S
C812 C811 1.355 1_545 S
C812 C814 1.419 . S
C813 C808 1.425 1_565 S
C813 C810 1.409 . S
C813 C811 1.415 . S
C814 H804 0.930 . S
C814 C812 1.419 . S
C814 C815 1.362 . S
C815 H805 0.930 . S
C815 C808 1.409 . S
C815 C814 1.362 . S
H816 C822 0.930 . S
H817 C825 0.930 . S
H818 C826 0.930 . S
H819 C827 0.930 . S
H820 C830 0.930 . S
H821 C831 0.930 . S
C822 H816 0.930 . S
C822 C823 1.355 . S
C822 C824 1.415 . S
C823 C822 1.355 . S
C823 C825 1.419 . S
C824 C822 1.415 . S
C824 C829 1.425 . S
C824 C831 1.409 . S
C825 H817 0.930 . S
C825 C823 1.419 . S
C825 C826 1.362 . S
C826 H818 0.930 . S
C826 C825 1.362 . S
C826 C829 1.409 . S
C827 H819 0.930 . S
C827 C828 1.355 . S
C827 C829 1.415 . S
C828 C827 1.355 . S
C828 C830 1.419 . S
C829 C824 1.425 . S
C829 C826 1.409 . S
C829 C827 1.415 . S
C830 H820 0.930 . S
C830 C828 1.419 . S
C830 C831 1.362 . S
C831 H821 0.930 . S
C831 C824 1.409 . S
C831 C830 1.362 . S
H832 C838 0.930 . S
H833 C841 0.930 . S
H834 C842 0.930 . S
H835 C843 0.930 . S
H836 C846 0.930 . S
H837 C847 0.930 . S
C838 H832 0.930 . S
C838 C839 1.355 . S
C838 C840 1.415 . S
C839 C838 1.355 . S
C839 C841 1.419 . S
C840 C838 1.415 . S
C840 C845 1.425 . S
C840 C847 1.409 . S
C841 H833 0.930 . S
C841 C839 1.419 . S
C841 C842 1.362 . S
C842 H834 0.930 . S
C842 C841 1.362 . S
C842 C845 1.409 . S
C843 H835 0.930 . S
C843 C844 1.355 . S
C843 C845 1.415 . S
C844 C843 1.355 . S
C844 C846 1.419 . S
C845 C840 1.425 . S
C845 C842 1.409 . S
C845 C843 1.415 . S
C846 H836 0.930 . S
C846 C844 1.419 . S
C846 C847 1.362 . S
C847 H837 0.930 . S
C847 C840 1.409 . S
C847 C846 1.362 . S
H848 C854 0.930 . S
H849 C857 0.930 . S
H850 C858 0.930 . S
H851 C859 0.930 . S
H852 C862 0.930 . S
H853 C863 0.932 . S
C854 H848 0.930 . S
C854 C855 1.355 . S
C854 C856 1.415 . S
C855 C854 1.355 . S
C855 C857 1.419 . S
C856 C854 1.415 . S
C856 C861 1.425 . S
C856 C863 1.409 1_554 S
C857 H849 0.930 . S
C857 C855 1.419 . S
C857 C858 1.362 . S
C858 H850 0.930 . S
C858 C857 1.362 . S
C858 C861 1.409 . S
C859 H851 0.930 . S
C859 C860 1.355 . S
C859 C861 1.415 1_556 S
C860 C859 1.355 . S
C860 C862 1.419 . S
C861 C856 1.425 . S
C861 C858 1.409 . S
C861 C859 1.415 1_554 S
C862 H852 0.930 . S
C862 C860 1.419 . S
C862 C863 1.362 . S
C863 H853 0.932 . S
C863 C856 1.409 1_556 S
C863 C862 1.362 . S
H864 C870 0.930 . S
H865 C873 0.930 . S
H866 C874 0.930 . S
H867 C875 0.930 . S
H868 C878 0.930 . S
H869 C879 0.930 . S
C870 H864 0.930 . S
C870 C871 1.355 . S
C870 C872 1.415 . S
C871 C870 1.355 . S
C871 C873 1.419 1_554 S
C872 C870 1.415 . S
C872 C877 1.425 1_554 S
C872 C879 1.409 . S
C873 H865 0.930 . S
C873 C871 1.419 1_556 S
C873 C874 1.362 . S
C874 H866 0.930 . S
C874 C873 1.362 . S
C874 C877 1.409 . S
C875 H867 0.930 . S
C875 C876 1.355 . S
C875 C877 1.415 . S
C876 C875 1.355 . S
C876 C878 1.419 1_556 S
C877 C872 1.425 1_556 S
C877 C874 1.409 . S
C877 C875 1.415 . S
C878 H868 0.930 . S
C878 C876 1.419 1_554 S
C878 C879 1.362 . S
C879 H869 0.930 . S
C879 C872 1.409 . S
C879 C878 1.362 . S
H880 C886 0.930 . S
H881 C889 0.930 . S
H882 C890 0.930 . S
H883 C891 0.930 . S
H884 C894 0.930 . S
H885 C895 0.930 . S
C886 H880 0.930 . S
C886 C887 1.355 . S
C886 C888 1.415 . S
C887 C886 1.355 . S
C887 C889 1.419 . S
C888 C886 1.415 . S
C888 C893 1.425 . S
C888 C895 1.409 . S
C889 H881 0.930 . S
C889 C887 1.419 . S
C889 C890 1.362 . S
C890 H882 0.930 . S
C890 C889 1.362 . S
C890 C893 1.409 . S
C891 H883 0.930 . S
C891 C892 1.355 . S
C891 C893 1.415 . S
C892 C891 1.355 . S
C892 C894 1.419 . S
C893 C888 1.425 . S
C893 C890 1.409 . S
C893 C891 1.415 . S
C894 H884 0.930 . S
C894 C892 1.419 . S
C894 C895 1.362 . S
C895 H885 0.930 . S
C895 C888 1.409 . S
C895 C894 1.362 . S
H896 C902 0.930 . S
H897 C905 0.930 . S
H898 C906 0.930 . S
H899 C907 0.930 . S
H900 C910 0.930 . S
H901 C911 0.930 . S
C902 H896 0.930 . S
C902 C903 1.355 . S
C902 C904 1.415 . S
C903 C902 1.355 . S
C903 C905 1.419 . S
C904 C902 1.415 . S
C904 C909 1.425 . S
C904 C911 1.409 . S
C905 H897 0.930 . S
C905 C903 1.419 . S
C905 C906 1.362 . S
C906 H898 0.930 . S
C906 C905 1.362 . S
C906 C909 1.409 . S
C907 H899 0.930 . S
C907 C908 1.355 . S
C907 C909 1.415 . S
C908 C907 1.355 . S
C908 C910 1.419 . S
C909 C904 1.425 . S
C909 C906 1.409 . S
C909 C907 1.415 . S
C910 H900 0.930 . S
C910 C908 1.419 . S
C910 C911 1.362 . S
C911 H901 0.930 . S
C911 C904 1.409 . S
C911 C910 1.362 . S
H912 C918 0.929 1_556 S
H913 C921 0.930 . S
H914 C922 0.930 . S
H915 C923 0.930 . S
H916 C926 0.930 . S
H917 C927 0.930 1_556 S
C918 H912 0.929 1_554 S
C918 C919 1.355 . S
C918 C920 1.415 . S
C919 C918 1.355 . S
C919 C921 1.419 . S
C920 C918 1.415 . S
C920 C925 1.425 . S
C920 C927 1.409 . S
C921 H913 0.930 . S
C921 C919 1.419 . S
C921 C922 1.362 . S
C922 H914 0.930 . S
C922 C921 1.362 . S
C922 C925 1.409 . S
C923 H915 0.930 . S
C923 C924 1.355 . S
C923 C925 1.415 . S
C924 C923 1.355 . S
C924 C926 1.419 . S
C925 C920 1.425 . S
C925 C922 1.409 . S
C925 C923 1.415 . S
C926 H916 0.930 . S
C926 C924 1.419 . S
C926 C927 1.362 . S
C927 H917 0.930 1_554 S
C927 C920 1.409 . S
C927 C926 1.362 . S
H928 C934 0.930 . S
H929 C937 0.930 . S
H930 C938 0.930 . S
H931 C939 0.930 . S
H932 C942 0.930 . S
H933 C943 0.930 . S
C934 H928 0.930 . S
C934 C935 1.355 . S
C934 C936 1.415 . S
C935 C934 1.355 . S
C935 C937 1.419 . S
C936 C934 1.415 . S
C936 C941 1.425 . S
C936 C943 1.409 . S
C937 H929 0.930 . S
C937 C935 1.419 . S
C937 C938 1.362 . S
C938 H930 0.930 . S
C938 C937 1.362 . S
C938 C941 1.409 . S
C939 H931 0.930 . S
C939 C940 1.355 . S
C939 C941 1.415 . S
C940 C939 1.355 . S
C940 C942 1.419 . S
C941 C936 1.425 . S
C941 C938 1.409 . S
C941 C939 1.415 . S
C942 H932 0.930 . S
C942 C940 1.419 . S
C942 C943 1.362 . S
C943 H933 0.930 . S
C943 C936 1.409 . S
C943 C942 1.362 . S
H944 C950 0.930 . S
H945 C953 0.930 . S
H946 C954 0.930 . S
H947 C955 0.930 . S
H948 C958 0.930 . S
H949 C959 0.930 . S
C950 H944 0.930 . S
C950 C951 1.355 . S
C950 C952 1.415 . S
C951 C950 1.355 . S
C951 C953 1.419 1_556 S
C952 C950 1.415 . S
C952 C957 1.425 . S
C952 C959 1.409 . S
C953 H945 0.930 . S
C953 C951 1.419 1_554 S
C953 C954 1.362 . S
C954 H946 0.930 . S
C954 C953 1.362 . S
C954 C957 1.409 1_554 S
C955 H947 0.930 . S
C955 C956 1.355 . S
C955 C957 1.415 . S
C956 C955 1.355 . S
C956 C958 1.419 . S
C957 C952 1.425 . S
C957 C954 1.409 1_556 S
C957 C955 1.415 . S
C958 H948 0.930 . S
C958 C956 1.419 . S
C958 C959 1.362 . S
C959 H949 0.930 . S
C959 C952 1.409 . S
C959 C958 1.362 . S
H960 C966 0.930 . S
H961 C969 0.930 . S
H962 C970 0.930 . S
H963 C971 0.930 . S
H964 C974 0.930 . S
H965 C975 0.930 . S
C966 H960 0.930 . S
C966 C967 1.355 . S
C966 C968 1.415 . S
C967 C966 1.355 . S
C967 C969 1.419 . S
C968 C966 1.415 . S
C968 C973 1.425 . S
C968 C975 1.409 . S
C969 H961 0.930 . S
C969 C967 1.419 . S
C969 C970 1.362 . S
C970 H962 0.930 . S
C970 C969 1.362 . S
C970 C973 1.409 . S
C971 H963 0.930 . S
C971 C972 1.355 . S
C971 C973 1.415 . S
C972 C971 1.355 . S
C972 C974 1.419 . S
C973 C968 1.425 . S
C973 C970 1.409 . S
C973 C971 1.415 . S
C974 H964 0.930 . S
C974 C972 1.419 . S
C974 C975 1.362 . S
C975 H965 0.930 . S
C975 C968 1.409 . S
C975 C974 1.362 . S
H976 C982 0.930 . S
H977 C985 0.930 . S
H978 C986 0.930 . S
H979 C987 0.929 1_655 S
H980 C990 0.930 . S
H981 C991 0.930 . S
C982 H976 0.930 . S
C982 C983 1.355 . S
C982 C984 1.415 . S
C983 C982 1.355 . S
C983 C985 1.419 . S
C984 C982 1.415 . S
C984 C989 1.425 . S
C984 C991 1.409 . S
C985 H977 0.930 . S
C985 C983 1.419 . S
C985 C986 1.362 . S
C986 H978 0.930 . S
C986 C985 1.362 . S
C986 C989 1.409 . S
C987 H979 0.929 1_455 S
C987 C988 1.355 . S
C987 C989 1.415 . S
C988 C987 1.355 . S
C988 C990 1.419 . S
C989 C984 1.425 . S
C989 C986 1.409 . S
C989 C987 1.415 . S
C990 H980 0.930 . S
C990 C988 1.419 . S
C990 C991 1.362 . S
C991 H981 0.930 . S
C991 C984 1.409 . S
C991 C990 1.362 . S
H992 C998 0.930 . S
H993 C1001 0.930 . S
H994 C1002 0.930 . S
H995 C1003 0.930 . S
H996 C1006 0.930 . S
H997 C1007 0.930 . S
C998 H992 0.930 . S
C998 C999 1.355 . S
C998 C1000 1.415 . S
C999 C998 1.355 . S
C999 C1001 1.419 . S
C1000 C998 1.415 . S
C1000 C1005 1.425 . S
C1000 C1007 1.409 . S
C1001 H993 0.930 . S
C1001 C999 1.419 . S
C1001 C1002 1.362 . S
C1002 H994 0.930 . S
C1002 C1001 1.362 . S
C1002 C1005 1.409 . S
C1003 H995 0.930 . S
C1003 C1004 1.355 . S
C1003 C1005 1.415 . S
C1004 C1003 1.355 . S
C1004 C1006 1.419 . S
C1005 C1000 1.425 . S
C1005 C1002 1.409 . S
C1005 C1003 1.415 . S
C1006 H996 0.930 . S
C1006 C1004 1.419 . S
C1006 C1007 1.362 . S
C1007 H997 0.930 . S
C1007 C1000 1.409 . S
C1007 C1006 1.362 . S
H1008 C1014 0.930 . S
H1009 C1017 0.930 . S
H1010 C1018 0.930 . S
H1011 C1019 0.930 . S
H1012 C1022 0.930 . S
H1013 C1023 0.930 . S
C1014 H1008 0.930 . S
C1014 C1015 1.355 . S
C1014 C1016 1.415 . S
C1015 C1014 1.355 . S
C1015 C1017 1.419 . S
C1016 C1014 1.415 . S
C1016 C1021 1.425 . S
C1016 C1023 1.409 . S
C1017 H1009 0.930 . S
C1017 C1015 1.419 . S
C1017 C1018 1.362 . S
C1018 H1010 0.930 . S
C1018 C1017 1.362 . S
C1018 C1021 1.409 . S
C1019 H1011 0.930 . S
C1019 C1020 1.355 . S
C1019 C1021 1.415 . S
C1020 C1019 1.355 . S
C1020 C1022 1.419 . S
C1021 C1016 1.425 . S
C1021 C1018 1.409 . S
C1021 C1019 1.415 . S
C1022 H1012 0.930 . S
C1022 C1020 1.419 . S
C1022 C1023 1.362 . S
C1023 H1013 0.930 . S
C1023 C1016 1.409 . S
C1023 C1022 1.362 . S
H1024 C1030 0.930 . S
H1025 C1033 0.930 . S
H1026 C1034 0.930 . S
H1027 C1035 0.930 . S
H1028 C1038 0.930 . S
H1029 C1039 0.930 . S
C1030 H1024 0.930 . S
C1030 C1031 1.355 1_455 S
C1030 C1032 1.415 . S
C1031 C1030 1.355 1_655 S
C1031 C1033 1.419 . S
C1032 C1030 1.415 . S
C1032 C1037 1.425 1_455 S
C1032 C1039 1.409 . S
C1033 H1025 0.930 . S
C1033 C1031 1.419 . S
C1033 C1034 1.362 . S
C1034 H1026 0.930 . S
C1034 C1033 1.362 . S
C1034 C1037 1.409 . S
C1035 H1027 0.930 . S
C1035 C1036 1.355 . S
C1035 C1037 1.415 . S
C1036 C1035 1.355 . S
C1036 C1038 1.419 1_655 S
C1037 C1032 1.425 1_655 S
C1037 C1034 1.409 . S
C1037 C1035 1.415 . S
C1038 H1028 0.930 . S
C1038 C1036 1.419 1_455 S
C1038 C1039 1.362 . S
C1039 H1029 0.930 . S
C1039 C1032 1.409 . S
C1039 C1038 1.362 . S
H1040 C1046 0.930 . S
H1041 C1049 0.930 . S
H1042 C1050 0.930 1_565 S
H1043 C1051 0.930 . S
H1044 C1054 0.930 . S
H1045 C1055 0.930 . S
C1046 H1040 0.930 . S
C1046 C1047 1.355 . S
C1046 C1048 1.415 . S
C1047 C1046 1.355 . S
C1047 C1049 1.419 1_545 S
C1048 C1046 1.415 . S
C1048 C1053 1.425 . S
C1048 C1055 1.409 . S
C1049 H1041 0.930 . S
C1049 C1047 1.419 1_565 S
C1049 C1050 1.362 1_565 S
C1050 H1042 0.930 1_545 S
C1050 C1049 1.362 1_545 S
C1050 C1053 1.409 . S
C1051 H1043 0.930 . S
C1051 C1052 1.355 . S
C1051 C1053 1.415 . S
C1052 C1051 1.355 . S
C1052 C1054 1.419 . S
C1053 C1048 1.425 . S
C1053 C1050 1.409 . S
C1053 C1051 1.415 . S
C1054 H1044 0.930 . S
C1054 C1052 1.419 . S
C1054 C1055 1.362 . S
C1055 H1045 0.930 . S
C1055 C1048 1.409 . S
C1055 C1054 1.362 . S
H1056 C1062 0.930 . S
H1057 C1065 0.930 . S
H1058 C1066 0.930 . S
H1059 C1067 0.930 . S
H1060 C1070 0.930 . S
H1061 C1071 0.930 . S
C1062 H1056 0.930 . S
C1062 C1063 1.355 . S
C1062 C1064 1.415 . S
C1063 C1062 1.355 . S
C1063 C1065 1.419 . S
C1064 C1062 1.415 . S
C1064 C1069 1.425 . S
C1064 C1071 1.409 . S
C1065 H1057 0.930 . S
C1065 C1063 1.419 . S
C1065 C1066 1.362 . S
C1066 H1058 0.930 . S
C1066 C1065 1.362 . S
C1066 C1069 1.409 . S
C1067 H1059 0.930 . S
C1067 C1068 1.355 . S
C1067 C1069 1.415 . S
C1068 C1067 1.355 . S
C1068 C1070 1.419 . S
C1069 C1064 1.425 . S
C1069 C1066 1.409 . S
C1069 C1067 1.415 . S
C1070 H1060 0.930 . S
C1070 C1068 1.419 . S
C1070 C1071 1.362 . S
C1071 H1061 0.930 . S
C1071 C1064 1.409 . S
C1071 C1070 1.362 . S
H1072 C1078 0.930 . S
H1073 C1081 0.930 . S
H1074 C1082 0.930 . S
H1075 C1083 0.930 . S
H1076 C1086 0.930 . S
H1077 C1087 0.930 . S
C1078 H1072 0.930 . S
C1078 C1079 1.355 . S
C1078 C1080 1.415 . S
C1079 C1078 1.355 . S
C1079 C1081 1.419 . S
C1080 C1078 1.415 . S
C1080 C1085 1.425 . S
C1080 C1087 1.409 . S
C1081 H1073 0.930 . S
C1081 C1079 1.419 . S
C1081 C1082 1.362 . S
C1082 H1074 0.930 . S
C1082 C1081 1.362 . S
C1082 C1085 1.409 . S
C1083 H1075 0.930 . S
C1083 C1084 1.355 . S
C1083 C1085 1.415 . S
C1084 C1083 1.355 . S
C1084 C1086 1.419 . S
C1085 C1080 1.425 . S
C1085 C1082 1.409 . S
C1085 C1083 1.415 . S
C1086 H1076 0.930 . S
C1086 C1084 1.419 . S
C1086 C1087 1.362 . S
C1087 H1077 0.930 . S
C1087 C1080 1.409 . S
C1087 C1086 1.362 . S
H1088 C1094 0.930 . S
H1089 C1097 0.930 . S
H1090 C1098 0.930 . S
H1091 C1099 0.930 . S
H1092 C1102 0.930 . S
H1093 C1103 0.930 . S
C1094 H1088 0.930 . S
C1094 C1095 1.355 . S
C1094 C1096 1.415 . S
C1095 C1094 1.355 . S
C1095 C1097 1.419 . S
C1096 C1094 1.415 . S
C1096 C1101 1.425 . S
C1096 C1103 1.409 . S
C1097 H1089 0.930 . S
C1097 C1095 1.419 . S
C1097 C1098 1.362 . S
C1098 H1090 0.930 . S
C1098 C1097 1.362 . S
C1098 C1101 1.409 . S
C1099 H1091 0.930 . S
C1099 C1100 1.355 . S
C1099 C1101 1.415 . S
C1100 C1099 1.355 . S
C1100 C1102 1.419 . S
C1101 C1096 1.425 . S
C1101 C1098 1.409 . S
C1101 C1099 1.415 . S
C1102 H1092 0.930 . S
C1102 C1100 1.419 . S
C1102 C1103 1.362 . S
C1103 H1093 0.930 . S
C1103 C1096 1.409 . S
C1103 C1102 1.362 . S
H1104 C1110 0.930 1_554 S
H1105 C1113 0.930 . S
H1106 C1114 0.930 . S
H1107 C1115 0.930 . S
H1108 C1118 0.930 . S
H1109 C1119 0.930 . S
C1110 H1104 0.930 1_556 S
C1110 C1111 1.355 . S
C1110 C1112 1.415 . S
C1111 C1110 1.355 . S
C1111 C1113 1.419 . S
C1112 C1110 1.415 . S
C1112 C1117 1.425 . S
C1112 C1119 1.409 . S
C1113 H1105 0.930 . S
C1113 C1111 1.419 . S
C1113 C1114 1.362 . S
C1114 H1106 0.930 . S
C1114 C1113 1.362 . S
C1114 C1117 1.409 . S
C1115 H1107 0.930 . S
C1115 C1116 1.355 . S
C1115 C1117 1.415 . S
C1116 C1115 1.355 . S
C1116 C1118 1.419 . S
C1117 C1112 1.425 . S
C1117 C1114 1.409 . S
C1117 C1115 1.415 . S
C1118 H1108 0.930 . S
C1118 C1116 1.419 . S
C1118 C1119 1.362 . S
C1119 H1109 0.930 . S
C1119 C1112 1.409 . S
C1119 C1118 1.362 . S
H1120 C1126 0.930 . S
H1121 C1129 0.930 . S
H1122 C1130 0.930 . S
H1123 C1131 0.930 . S
H1124 C1134 0.930 . S
H1125 C1135 0.930 . S
C1126 H1120 0.930 . S
C1126 C1127 1.355 . S
C1126 C1128 1.415 . S
C1127 C1126 1.355 . S
C1127 C1129 1.419 . S
C1128 C1126 1.415 . S
C1128 C1133 1.425 . S
C1128 C1135 1.409 . S
C1129 H1121 0.930 . S
C1129 C1127 1.419 . S
C1129 C1130 1.362 . S
C1130 H1122 0.930 . S
C1130 C1129 1.362 . S
C1130 C1133 1.409 . S
C1131 H1123 0.930 . S
C1131 C1132 1.355 . S
C1131 C1133 1.415 . S
C1132 C1131 1.355 . S
C1132 C1134 1.419 . S
C1133 C1128 1.425 . S
C1133 C1130 1.409 . S
C1133 C1131 1.415 . S
C1134 H1124 0.930 . S
C1134 C1132 1.419 . S
C1134 C1135 1.362 . S
C1135 H1125 0.930 . S
C1135 C1128 1.409 . S
C1135 C1134 1.362 . S
H1136 C1142 0.930 . S
H1137 C1145 0.930 1_556 S
H1138 C1146 0.930 . S
H1139 C1147 0.930 . S
H1140 C1150 0.930 . S
H1141 C1151 0.930 . S
C1142 H1136 0.930 . S
C1142 C1143 1.355 . S
C1142 C1144 1.415 . S
C1143 C1142 1.355 . S
C1143 C1145 1.419 . S
C1144 C1142 1.415 . S
C1144 C1149 1.425 . S
C1144 C1151 1.409 . S
C1145 H1137 0.930 1_554 S
C1145 C1143 1.419 . S
C1145 C1146 1.362 1_554 S
C1146 H1138 0.930 . S
C1146 C1145 1.362 1_556 S
C1146 C1149 1.409 1_556 S
C1147 H1139 0.930 . S
C1147 C1148 1.355 1_556 S
C1147 C1149 1.415 1_556 S
C1148 C1147 1.355 1_554 S
C1148 C1150 1.419 . S
C1149 C1144 1.425 . S
C1149 C1146 1.409 1_554 S
C1149 C1147 1.415 1_554 S
C1150 H1140 0.930 . S
C1150 C1148 1.419 . S
C1150 C1151 1.362 . S
C1151 H1141 0.930 . S
C1151 C1144 1.409 . S
C1151 C1150 1.362 . S
H1152 C1158 0.930 . S
H1153 C1161 0.930 . S
H1154 C1162 0.930 . S
H1155 C1163 0.930 . S
H1156 C1166 0.930 . S
H1157 C1167 0.930 . S
C1158 H1152 0.930 . S
C1158 C1159 1.355 . S
C1158 C1160 1.415 . S
C1159 C1158 1.355 . S
C1159 C1161 1.419 . S
C1160 C1158 1.415 . S
C1160 C1165 1.425 . S
C1160 C1167 1.409 . S
C1161 H1153 0.930 . S
C1161 C1159 1.419 . S
C1161 C1162 1.362 . S
C1162 H1154 0.930 . S
C1162 C1161 1.362 . S
C1162 C1165 1.409 . S
C1163 H1155 0.930 . S
C1163 C1164 1.355 . S
C1163 C1165 1.415 . S
C1164 C1163 1.355 . S
C1164 C1166 1.419 . S
C1165 C1160 1.425 . S
C1165 C1162 1.409 . S
C1165 C1163 1.415 . S
C1166 H1156 0.930 . S
C1166 C1164 1.419 . S
C1166 C1167 1.362 . S
C1167 H1157 0.930 . S
C1167 C1160 1.409 . S
C1167 C1166 1.362 . S
H1168 C1174 0.930 . S
H1169 C1177 0.930 . S
H1170 C1178 0.930 . S
H1171 C1179 0.930 . S
H1172 C1182 0.930 . S
H1173 C1183 0.930 . S
C1174 H1168 0.930 . S
C1174 C1175 1.355 1_455 S
C1174 C1176 1.415 . S
C1175 C1174 1.355 1_655 S
C1175 C1177 1.419 . S
C1176 C1174 1.415 . S
C1176 C1181 1.425 1_455 S
C1176 C1183 1.409 . S
C1177 H1169 0.930 . S
C1177 C1175 1.419 . S
C1177 C1178 1.362 . S
C1178 H1170 0.930 . S
C1178 C1177 1.362 . S
C1178 C1181 1.409 . S
C1179 H1171 0.930 . S
C1179 C1180 1.355 . S
C1179 C1181 1.415 . S
C1180 C1179 1.355 . S
C1180 C1182 1.419 1_655 S
C1181 C1176 1.425 1_655 S
C1181 C1178 1.409 . S
C1181 C1179 1.415 . S
C1182 H1172 0.930 . S
C1182 C1180 1.419 1_455 S
C1182 C1183 1.362 . S
C1183 H1173 0.930 . S
C1183 C1176 1.409 . S
C1183 C1182 1.362 . S
H1184 C1190 0.930 . S
H1185 C1193 0.930 . S
H1186 C1194 0.930 . S
H1187 C1195 0.930 . S
H1188 C1198 0.930 . S
H1189 C1199 0.930 . S
C1190 H1184 0.930 . S
C1190 C1191 1.355 . S
C1190 C1192 1.415 . S
C1191 C1190 1.355 . S
C1191 C1193 1.419 . S
C1192 C1190 1.415 . S
C1192 C1197 1.425 . S
C1192 C1199 1.409 . S
C1193 H1185 0.930 . S
C1193 C1191 1.419 . S
C1193 C1194 1.362 . S
C1194 H1186 0.930 . S
C1194 C1193 1.362 . S
C1194 C1197 1.409 . S
C1195 H1187 0.930 . S
C1195 C1196 1.355 . S
C1195 C1197 1.415 . S
C1196 C1195 1.355 . S
C1196 C1198 1.419 . S
C1197 C1192 1.425 . S
C1197 C1194 1.409 . S
C1197 C1195 1.415 . S
C1198 H1188 0.930 . S
C1198 C1196 1.419 . S
C1198 C1199 1.362 . S
C1199 H1189 0.930 . S
C1199 C1192 1.409 . S
C1199 C1198 1.362 . S
H1200 C1206 0.930 . S
H1201 C1209 0.930 . S
H1202 C1210 0.930 . S
H1203 C1211 0.930 . S
H1204 C1214 0.930 . S
H1205 C1215 0.930 . S
C1206 H1200 0.930 . S
C1206 C1207 1.355 . S
C1206 C1208 1.415 . S
C1207 C1206 1.355 . S
C1207 C1209 1.419 . S
C1208 C1206 1.415 . S
C1208 C1213 1.425 . S
C1208 C1215 1.409 . S
C1209 H1201 0.930 . S
C1209 C1207 1.419 . S
C1209 C1210 1.362 . S
C1210 H1202 0.930 . S
C1210 C1209 1.362 . S
C1210 C1213 1.409 . S
C1211 H1203 0.930 . S
C1211 C1212 1.355 . S
C1211 C1213 1.415 . S
C1212 C1211 1.355 . S
C1212 C1214 1.419 . S
C1213 C1208 1.425 . S
C1213 C1210 1.409 . S
C1213 C1211 1.415 . S
C1214 H1204 0.930 . S
C1214 C1212 1.419 . S
C1214 C1215 1.362 . S
C1215 H1205 0.930 . S
C1215 C1208 1.409 . S
C1215 C1214 1.362 . S
H1216 C1222 0.930 . S
H1217 C1225 0.930 . S
H1218 C1226 0.930 . S
H1219 C1227 0.930 . S
H1220 C1230 0.930 . S
H1221 C1231 0.930 . S
C1222 H1216 0.930 . S
C1222 C1223 1.355 . S
C1222 C1224 1.415 . S
C1223 C1222 1.355 . S
C1223 C1225 1.419 1_455 S
C1224 C1222 1.415 . S
C1224 C1229 1.425 1_455 S
C1224 C1231 1.409 . S
C1225 H1217 0.930 . S
C1225 C1223 1.419 1_655 S
C1225 C1226 1.362 . S
C1226 H1218 0.930 . S
C1226 C1225 1.362 . S
C1226 C1229 1.409 . S
C1227 H1219 0.930 . S
C1227 C1228 1.355 1_655 S
C1227 C1229 1.415 . S
C1228 C1227 1.355 1_455 S
C1228 C1230 1.419 . S
C1229 C1224 1.425 1_655 S
C1229 C1226 1.409 . S
C1229 C1227 1.415 . S
C1230 H1220 0.930 . S
C1230 C1228 1.419 . S
C1230 C1231 1.362 . S
C1231 H1221 0.930 . S
C1231 C1224 1.409 . S
C1231 C1230 1.362 . S
H1232 C1238 0.930 . S
H1233 C1241 0.930 . S
H1234 C1242 0.930 . S
H1235 C1243 0.930 . S
H1236 C1246 0.930 . S
H1237 C1247 0.930 . S
C1238 H1232 0.930 . S
C1238 C1239 1.355 . S
C1238 C1240 1.415 . S
C1239 C1238 1.355 . S
C1239 C1241 1.419 1_565 S
C1240 C1238 1.415 . S
C1240 C1245 1.425 . S
C1240 C1247 1.409 . S
C1241 H1233 0.930 . S
C1241 C1239 1.419 1_545 S
C1241 C1242 1.362 . S
C1242 H1234 0.930 . S
C1242 C1241 1.362 . S
C1242 C1245 1.409 1_545 S
C1243 H1235 0.930 . S
C1243 C1244 1.355 . S
C1243 C1245 1.415 . S
C1244 C1243 1.355 . S
C1244 C1246 1.419 . S
C1245 C1240 1.425 . S
C1245 C1242 1.409 1_565 S
C1245 C1243 1.415 . S
C1246 H1236 0.930 . S
C1246 C1244 1.419 . S
C1246 C1247 1.362 . S
C1247 H1237 0.930 . S
C1247 C1240 1.409 . S
C1247 C1246 1.362 . S
H1248 C1254 0.930 . S
H1249 C1257 0.930 . S
H1250 C1258 0.930 . S
H1251 C1259 0.930 . S
H1252 C1262 0.930 . S
H1253 C1263 0.930 . S
C1254 H1248 0.930 . S
C1254 C1255 1.355 . S
C1254 C1256 1.415 . S
C1255 C1254 1.355 . S
C1255 C1257 1.419 . S
C1256 C1254 1.415 . S
C1256 C1261 1.425 . S
C1256 C1263 1.409 . S
C1257 H1249 0.930 . S
C1257 C1255 1.419 . S
C1257 C1258 1.362 . S
C1258 H1250 0.930 . S
C1258 C1257 1.362 . S
C1258 C1261 1.409 . S
C1259 H1251 0.930 . S
C1259 C1260 1.355 . S
C1259 C1261 1.415 . S
C1260 C1259 1.355 . S
C1260 C1262 1.419 . S
C1261 C1256 1.425 . S
C1261 C1258 1.409 . S
C1261 C1259 1.415 . S
C1262 H1252 0.930 . S
C1262 C1260 1.419 . S
C1262 C1263 1.362 . S
C1263 H1253 0.930 . S
C1263 C1256 1.409 . S
C1263 C1262 1.362 . S
H1264 C1270 0.930 . S
H1265 C1273 0.930 . S
H1266 C1274 0.930 . S
H1267 C1275 0.930 . S
H1268 C1278 0.930 . S
H1269 C1279 0.930 . S
C1270 H1264 0.930 . S
C1270 C1271 1.355 . S
C1270 C1272 1.415 . S
C1271 C1270 1.355 . S
C1271 C1273 1.419 . S
C1272 C1270 1.415 . S
C1272 C1277 1.425 . S
C1272 C1279 1.409 . S
C1273 H1265 0.930 . S
C1273 C1271 1.419 . S
C1273 C1274 1.362 . S
C1274 H1266 0.930 . S
C1274 C1273 1.362 . S
C1274 C1277 1.409 . S
C1275 H1267 0.930 . S
C1275 C1276 1.355 . S
C1275 C1277 1.415 . S
C1276 C1275 1.355 . S
C1276 C1278 1.419 . S
C1277 C1272 1.425 . S
C1277 C1274 1.409 . S
C1277 C1275 1.415 . S
C1278 H1268 0.930 . S
C1278 C1276 1.419 . S
C1278 C1279 1.362 . S
C1279 H1269 0.930 . S
C1279 C1272 1.409 . S
C1279 C1278 1.362 . S
H1280 C1286 0.930 . S
H1281 C1289 0.930 . S
H1282 C1290 0.930 . S
H1283 C1291 0.930 . S
H1284 C1294 0.930 . S
H1285 C1295 0.930 . S
C1286 H1280 0.930 . S
C1286 C1287 1.355 . S
C1286 C1288 1.415 . S
C1287 C1286 1.355 . S
C1287 C1289 1.419 . S
C1288 C1286 1.415 . S
C1288 C1293 1.425 . S
C1288 C1295 1.409 . S
C1289 H1281 0.930 . S
C1289 C1287 1.419 . S
C1289 C1290 1.362 . S
C1290 H1282 0.930 . S
C1290 C1289 1.362 . S
C1290 C1293 1.409 . S
C1291 H1283 0.930 . S
C1291 C1292 1.355 . S
C1291 C1293 1.415 . S
C1292 C1291 1.355 . S
C1292 C1294 1.419 . S
C1293 C1288 1.425 . S
C1293 C1290 1.409 . S
C1293 C1291 1.415 . S
C1294 H1284 0.930 . S
C1294 C1292 1.419 . S
C1294 C1295 1.362 . S
C1295 H1285 0.930 . S
C1295 C1288 1.409 . S
C1295 C1294 1.362 . S
H1296 C1302 0.930 . S
H1297 C1305 0.930 1_655 S
H1298 C1306 0.930 1_655 S
H1299 C1307 0.930 . S
H1300 C1310 0.930 . S
H1301 C1311 0.930 . S
C1302 H1296 0.930 . S
C1302 C1303 1.355 . S
C1302 C1304 1.415 . S
C1303 C1302 1.355 . S
C1303 C1305 1.419 . S
C1304 C1302 1.415 . S
C1304 C1309 1.425 . S
C1304 C1311 1.409 . S
C1305 H1297 0.930 1_455 S
C1305 C1303 1.419 . S
C1305 C1306 1.362 . S
C1306 H1298 0.930 1_455 S
C1306 C1305 1.362 . S
C1306 C1309 1.409 . S
C1307 H1299 0.930 . S
C1307 C1308 1.355 . S
C1307 C1309 1.415 . S
C1308 C1307 1.355 . S
C1308 C1310 1.419 . S
C1309 C1304 1.425 . S
C1309 C1306 1.409 . S
C1309 C1307 1.415 . S
C1310 H1300 0.930 . S
C1310 C1308 1.419 . S
C1310 C1311 1.362 . S
C1311 H1301 0.930 . S
C1311 C1304 1.409 . S
C1311 C1310 1.362 . S
H1312 C1318 0.930 . S
H1313 C1321 0.930 . S
H1314 C1322 0.930 . S
H1315 C1323 0.930 . S
H1316 C1326 0.930 . S
H1317 C1327 0.930 . S
C1318 H1312 0.930 . S
C1318 C1319 1.355 . S
C1318 C1320 1.415 . S
C1319 C1318 1.355 . S
C1319 C1321 1.419 . S
C1320 C1318 1.415 . S
C1320 C1325 1.425 . S
C1320 C1327 1.409 . S
C1321 H1313 0.930 . S
C1321 C1319 1.419 . S
C1321 C1322 1.362 . S
C1322 H1314 0.930 . S
C1322 C1321 1.362 . S
C1322 C1325 1.409 . S
C1323 H1315 0.930 . S
C1323 C1324 1.355 . S
C1323 C1325 1.415 . S
C1324 C1323 1.355 . S
C1324 C1326 1.419 . S
C1325 C1320 1.425 . S
C1325 C1322 1.409 . S
C1325 C1323 1.415 . S
C1326 H1316 0.930 . S
C1326 C1324 1.419 . S
C1326 C1327 1.362 . S
C1327 H1317 0.930 . S
C1327 C1320 1.409 . S
C1327 C1326 1.362 . S
H1328 C1334 0.930 . S
H1329 C1337 0.930 . S
H1330 C1338 0.930 . S
H1331 C1339 0.930 . S
H1332 C1342 0.930 . S
H1333 C1343 0.930 . S
C1334 H1328 0.930 . S
C1334 C1335 1.355 . S
C1334 C1336 1.415 . S
C1335 C1334 1.355 . S
C1335 C1337 1.419 . S
C1336 C1334 1.415 . S
C1336 C1341 1.425 . S
C1336 C1343 1.409 . S
C1337 H1329 0.930 . S
C1337 C1335 1.419 . S
C1337 C1338 1.362 . S
C1338 H1330 0.930 . S
C1338 C1337 1.362 . S
C1338 C1341 1.409 . S
C1339 H1331 0.930 . S
C1339 C1340 1.355 . S
C1339 C1341 1.415 . S
C1340 C1339 1.355 . S
C1340 C1342 1.419 . S
C1341 C1336 1.425 . S
C1341 C1338 1.409 . S
C1341 C1339 1.415 . S
C1342 H1332 0.930 . S
C1342 C1340 1.419 . S
C1342 C1343 1.362 . S
C1343 H1333 0.930 . S
C1343 C1336 1.409 . S
C1343 C1342 1.362 . S
H1344 C1350 0.930 . S
H1345 C1353 0.930 . S
H1346 C1354 0.930 . S
H1347 C1355 0.930 1_455 S
H1348 C1358 0.930 . S
H1349 C1359 0.930 . S
C1350 H1344 0.930 . S
C1350 C1351 1.355 . S
C1350 C1352 1.415 . S
C1351 C1350 1.355 . S
C1351 C1353 1.419 1_655 S
C1352 C1350 1.415 . S
C1352 C1357 1.425 . S
C1352 C1359 1.409 . S
C1353 H1345 0.930 . S
C1353 C1351 1.419 1_455 S
C1353 C1354 1.362 . S
C1354 H1346 0.930 . S
C1354 C1353 1.362 . S
C1354 C1357 1.409 1_455 S
C1355 H1347 0.930 1_655 S
C1355 C1356 1.355 . S
C1355 C1357 1.415 . S
C1356 C1355 1.355 . S
C1356 C1358 1.419 . S
C1357 C1352 1.425 . S
C1357 C1354 1.409 1_655 S
C1357 C1355 1.415 . S
C1358 H1348 0.930 . S
C1358 C1356 1.419 . S
C1358 C1359 1.362 . S
C1359 H1349 0.930 . S
C1359 C1352 1.409 . S
C1359 C1358 1.362 . S
H1360 C1366 0.930 . S
H1361 C1369 0.930 . S
H1362 C1370 0.930 . S
H1363 C1371 0.930 . S
H1364 C1374 0.930 1_565 S
H1365 C1375 0.930 1_565 S
C1366 H1360 0.930 . S
C1366 C1367 1.355 . S
C1366 C1368 1.415 . S
C1367 C1366 1.355 . S
C1367 C1369 1.419 . S
C1368 C1366 1.415 . S
C1368 C1373 1.425 . S
C1368 C1375 1.409 . S
C1369 H1361 0.930 . S
C1369 C1367 1.419 . S
C1369 C1370 1.362 . S
C1370 H1362 0.930 . S
C1370 C1369 1.362 . S
C1370 C1373 1.409 . S
C1371 H1363 0.930 . S
C1371 C1372 1.355 . S
C1371 C1373 1.415 . S
C1372 C1371 1.355 . S
C1372 C1374 1.419 . S
C1373 C1368 1.425 . S
C1373 C1370 1.409 . S
C1373 C1371 1.415 . S
C1374 H1364 0.930 1_545 S
C1374 C1372 1.419 . S
C1374 C1375 1.362 . S
C1375 H1365 0.930 1_545 S
C1375 C1368 1.409 . S
C1375 C1374 1.362 . S
H1376 C1382 0.930 . S
H1377 C1385 0.930 . S
H1378 C1386 0.930 . S
H1379 C1387 0.930 . S
H1380 C1390 0.930 . S
H1381 C1391 0.930 . S
C1382 H1376 0.930 . S
C1382 C1383 1.355 . S
C1382 C1384 1.415 . S
C1383 C1382 1.355 . S
C1383 C1385 1.419 . S
C1384 C1382 1.415 . S
C1384 C1389 1.425 . S
C1384 C1391 1.409 . S
C1385 H1377 0.930 . S
C1385 C1383 1.419 . S
C1385 C1386 1.362 . S
C1386 H1378 0.930 . S
C1386 C1385 1.362 . S
C1386 C1389 1.409 . S
C1387 H1379 0.930 . S
C1387 C1388 1.355 . S
C1387 C1389 1.415 . S
C1388 C1387 1.355 . S
C1388 C1390 1.419 . S
C1389 C1384 1.425 . S
C1389 C1386 1.409 . S
C1389 C1387 1.415 . S
C1390 H1380 0.930 . S
C1390 C1388 1.419 . S
C1390 C1391 1.362 . S
C1391 H1381 0.930 . S
C1391 C1384 1.409 . S
C1391 C1390 1.362 . S
H1392 C1398 0.930 . S
H1393 C1401 0.930 . S
H1394 C1402 0.930 . S
H1395 C1403 0.930 . S
H1396 C1406 0.930 . S
H1397 C1407 0.930 . S
C1398 H1392 0.930 . S
C1398 C1399 1.355 . S
C1398 C1400 1.415 . S
C1399 C1398 1.355 . S
C1399 C1401 1.419 . S
C1400 C1398 1.415 . S
C1400 C1405 1.425 . S
C1400 C1407 1.409 . S
C1401 H1393 0.930 . S
C1401 C1399 1.419 . S
C1401 C1402 1.362 . S
C1402 H1394 0.930 . S
C1402 C1401 1.362 . S
C1402 C1405 1.409 . S
C1403 H1395 0.930 . S
C1403 C1404 1.355 . S
C1403 C1405 1.415 . S
C1404 C1403 1.355 . S
C1404 C1406 1.419 . S
C1405 C1400 1.425 . S
C1405 C1402 1.409 . S
C1405 C1403 1.415 . S
C1406 H1396 0.930 . S
C1406 C1404 1.419 . S
C1406 C1407 1.362 . S
C1407 H1397 0.930 . S
C1407 C1400 1.409 . S
C1407 C1406 1.362 . S
H1408 C1414 0.930 . S
H1409 C1417 0.930 . S
H1410 C1418 0.930 . S
H1411 C1419 0.930 . S
H1412 C1422 0.930 . S
H1413 C1423 0.930 . S
C1414 H1408 0.930 . S
C1414 C1415 1.355 . S
C1414 C1416 1.415 . S
C1415 C1414 1.355 . S
C1415 C1417 1.419 . S
C1416 C1414 1.415 . S
C1416 C1421 1.425 . S
C1416 C1423 1.409 . S
C1417 H1409 0.930 . S
C1417 C1415 1.419 . S
C1417 C1418 1.362 . S
C1418 H1410 0.930 . S
C1418 C1417 1.362 . S
C1418 C1421 1.409 . S
C1419 H1411 0.930 . S
C1419 C1420 1.355 . S
C1419 C1421 1.415 . S
C1420 C1419 1.355 . S
C1420 C1422 1.419 . S
C1421 C1416 1.425 . S
C1421 C1418 1.409 . S
C1421 C1419 1.415 . S
C1422 H1412 0.930 . S
C1422 C1420 1.419 . S
C1422 C1423 1.362 . S
C1423 H1413 0.930 . S
C1423 C1416 1.409 . S
C1423 C1422 1.362 . S
H1424 C1430 0.930 . S
H1425 C1433 0.930 . S
H1426 C1434 0.930 . S
H1427 C1435 0.930 1_556 S
H1428 C1438 0.930 . S
H1429 C1439 0.930 . S
C1430 H1424 0.930 . S
C1430 C1431 1.355 . S
C1430 C1432 1.415 . S
C1431 C1430 1.355 . S
C1431 C1433 1.419 1_554 S
C1432 C1430 1.415 . S
C1432 C1437 1.425 . S
C1432 C1439 1.409 . S
C1433 H1425 0.930 . S
C1433 C1431 1.419 1_556 S
C1433 C1434 1.362 . S
C1434 H1426 0.930 . S
C1434 C1433 1.362 . S
C1434 C1437 1.409 1_556 S
C1435 H1427 0.930 1_554 S
C1435 C1436 1.355 . S
C1435 C1437 1.415 . S
C1436 C1435 1.355 . S
C1436 C1438 1.419 . S
C1437 C1432 1.425 . S
C1437 C1434 1.409 1_554 S
C1437 C1435 1.415 . S
C1438 H1428 0.930 . S
C1438 C1436 1.419 . S
C1438 C1439 1.362 . S
C1439 H1429 0.930 . S
C1439 C1432 1.409 . S
C1439 C1438 1.362 . S
H1440 C1446 0.930 . S
H1441 C1449 0.930 . S
H1442 C1450 0.930 . S
H1443 C1451 0.930 . S
H1444 C1454 0.930 1_554 S
H1445 C1455 0.930 1_554 S
C1446 H1440 0.930 . S
C1446 C1447 1.355 . S
C1446 C1448 1.415 . S
C1447 C1446 1.355 . S
C1447 C1449 1.419 . S
C1448 C1446 1.415 . S
C1448 C1453 1.425 . S
C1448 C1455 1.409 . S
C1449 H1441 0.930 . S
C1449 C1447 1.419 . S
C1449 C1450 1.362 . S
C1450 H1442 0.930 . S
C1450 C1449 1.362 . S
C1450 C1453 1.409 . S
C1451 H1443 0.930 . S
C1451 C1452 1.355 . S
C1451 C1453 1.415 . S
C1452 C1451 1.355 . S
C1452 C1454 1.419 . S
C1453 C1448 1.425 . S
C1453 C1450 1.409 . S
C1453 C1451 1.415 . S
C1454 H1444 0.930 1_556 S
C1454 C1452 1.419 . S
C1454 C1455 1.362 . S
C1455 H1445 0.930 1_556 S
C1455 C1448 1.409 . S
C1455 C1454 1.362 . S
H1456 C1462 0.930 . S
H1457 C1465 0.930 . S
H1458 C1466 0.930 . S
H1459 C1467 0.930 . S
H1460 C1470 0.930 . S
H1461 C1471 0.930 . S
C1462 H1456 0.930 . S
C1462 C1463 1.355 . S
C1462 C1464 1.415 . S
C1463 C1462 1.355 . S
C1463 C1465 1.419 . S
C1464 C1462 1.415 . S
C1464 C1469 1.425 . S
C1464 C1471 1.409 . S
C1465 H1457 0.930 . S
C1465 C1463 1.419 . S
C1465 C1466 1.362 . S
C1466 H1458 0.930 . S
C1466 C1465 1.362 . S
C1466 C1469 1.409 . S
C1467 H1459 0.930 . S
C1467 C1468 1.355 . S
C1467 C1469 1.415 . S
C1468 C1467 1.355 . S
C1468 C1470 1.419 . S
C1469 C1464 1.425 . S
C1469 C1466 1.409 . S
C1469 C1467 1.415 . S
C1470 H1460 0.930 . S
C1470 C1468 1.419 . S
C1470 C1471 1.362 . S
C1471 H1461 0.930 . S
C1471 C1464 1.409 . S
C1471 C1470 1.362 . S
H1472 C1478 0.930 . S
H1473 C1481 0.930 . S
H1474 C1482 0.930 . S
H1475 C1483 0.930 . S
H1476 C1486 0.930 . S
H1477 C1487 0.930 . S
C1478 H1472 0.930 . S
C1478 C1479 1.355 . S
C1478 C1480 1.415 . S
C1479 C1478 1.355 . S
C1479 C1481 1.419 . S
C1480 C1478 1.415 . S
C1480 C1485 1.425 . S
C1480 C1487 1.409 . S
C1481 H1473 0.930 . S
C1481 C1479 1.419 . S
C1481 C1482 1.362 . S
C1482 H1474 0.930 . S
C1482 C1481 1.362 . S
C1482 C1485 1.409 . S
C1483 H1475 0.930 . S
C1483 C1484 1.355 . S
C1483 C1485 1.415 . S
C1484 C1483 1.355 . S
C1484 C1486 1.419 . S
C1485 C1480 1.425 . S
C1485 C1482 1.409 . S
C1485 C1483 1.415 . S
C1486 H1476 0.930 . S
C1486 C1484 1.419 . S
C1486 C1487 1.362 . S
C1487 H1477 0.930 . S
C1487 C1480 1.409 . S
C1487 C1486 1.362 . S
H1488 C1494 0.930 . S
H1489 C1497 0.930 . S
H1490 C1498 0.930 . S
H1491 C1499 0.930 . S
H1492 C1502 0.930 . S
H1493 C1503 0.930 . S
C1494 H1488 0.930 . S
C1494 C1495 1.355 . S
C1494 C1496 1.415 . S
C1495 C1494 1.355 . S
C1495 C1497 1.419 . S
C1496 C1494 1.415 . S
C1496 C1501 1.425 . S
C1496 C1503 1.409 . S
C1497 H1489 0.930 . S
C1497 C1495 1.419 . S
C1497 C1498 1.362 . S
C1498 H1490 0.930 . S
C1498 C1497 1.362 . S
C1498 C1501 1.409 . S
C1499 H1491 0.930 . S
C1499 C1500 1.355 . S
C1499 C1501 1.415 . S
C1500 C1499 1.355 . S
C1500 C1502 1.419 . S
C1501 C1496 1.425 . S
C1501 C1498 1.409 . S
C1501 C1499 1.415 . S
C1502 H1492 0.930 . S
C1502 C1500 1.419 . S
C1502 C1503 1.362 . S
C1503 H1493 0.930 . S
C1503 C1496 1.409 . S
C1503 C1502 1.362 . S
H1504 C1510 0.930 . S
H1505 C1513 0.930 . S
H1506 C1514 0.930 . S
H1507 C1515 0.930 . S
H1508 C1518 0.930 . S
H1509 C1519 0.930 . S
C1510 H1504 0.930 . S
C1510 C1511 1.355 . S
C1510 C1512 1.415 . S
C1511 C1510 1.355 . S
C1511 C1513 1.419 . S
C1512 C1510 1.415 . S
C1512 C1517 1.425 . S
C1512 C1519 1.409 . S
C1513 H1505 0.930 . S
C1513 C1511 1.419 . S
C1513 C1514 1.362 . S
C1514 H1506 0.930 . S
C1514 C1513 1.362 . S
C1514 C1517 1.409 . S
C1515 H1507 0.930 . S
C1515 C1516 1.355 . S
C1515 C1517 1.415 . S
C1516 C1515 1.355 . S
C1516 C1518 1.419 . S
C1517 C1512 1.425 . S
C1517 C1514 1.409 . S
C1517 C1515 1.415 . S
C1518 H1508 0.930 . S
C1518 C1516 1.419 . S
C1518 C1519 1.362 . S
C1519 H1509 0.930 . S
C1519 C1512 1.409 . S
C1519 C1518 1.362 . S
H1520 C1526 0.930 . S
H1521 C1529 0.930 . S
H1522 C1530 0.930 . S
H1523 C1531 0.930 . S
H1524 C1534 0.930 . S
H1525 C1535 0.930 . S
C1526 H1520 0.930 . S
C1526 C1527 1.355 . S
C1526 C1528 1.415 . S
C1527 C1526 1.355 . S
C1527 C1529 1.419 . S
C1528 C1526 1.415 . S
C1528 C1533 1.425 . S
C1528 C1535 1.409 . S
C1529 H1521 0.930 . S
C1529 C1527 1.419 . S
C1529 C1530 1.362 . S
C1530 H1522 0.930 . S
C1530 C1529 1.362 . S
C1530 C1533 1.409 . S
C1531 H1523 0.930 . S
C1531 C1532 1.355 . S
C1531 C1533 1.415 . S
C1532 C1531 1.355 . S
C1532 C1534 1.419 . S
C1533 C1528 1.425 . S
C1533 C1530 1.409 . S
C1533 C1531 1.415 . S
C1534 H1524 0.930 . S
C1534 C1532 1.419 . S
C1534 C1535 1.362 . S
C1535 H1525 0.930 . S
C1535 C1528 1.409 . S
C1535 C1534 1.362 . S
H1536 C1542 0.930 . S
H1537 C1545 0.930 . S
H1538 C1546 0.930 . S
H1539 C1547 0.930 . S
H1540 C1550 0.930 . S
H1541 C1551 0.930 . S
C1542 H1536 0.930 . S
C1542 C1543 1.355 . S
C1542 C1544 1.415 . S
C1543 C1542 1.355 . S
C1543 C1545 1.419 . S
C1544 C1542 1.415 . S
C1544 C1549 1.425 . S
C1544 C1551 1.409 . S
C1545 H1537 0.930 . S
C1545 C1543 1.419 . S
C1545 C1546 1.362 . S
C1546 H1538 0.930 . S
C1546 C1545 1.362 . S
C1546 C1549 1.409 . S
C1547 H1539 0.930 . S
C1547 C1548 1.355 . S
C1547 C1549 1.415 . S
C1548 C1547 1.355 . S
C1548 C1550 1.419 . S
C1549 C1544 1.425 . S
C1549 C1546 1.409 . S
C1549 C1547 1.415 . S
C1550 H1540 0.930 . S
C1550 C1548 1.419 . S
C1550 C1551 1.362 . S
C1551 H1541 0.930 . S
C1551 C1544 1.409 . S
C1551 C1550 1.362 . S
H1552 C1558 0.930 . S
H1553 C1561 0.930 1_545 S
H1554 C1562 0.930 1_545 S
H1555 C1563 0.930 . S
H1556 C1566 0.930 . S
H1557 C1567 0.930 . S
C1558 H1552 0.930 . S
C1558 C1559 1.355 . S
C1558 C1560 1.415 . S
C1559 C1558 1.355 . S
C1559 C1561 1.419 . S
C1560 C1558 1.415 . S
C1560 C1565 1.425 . S
C1560 C1567 1.409 . S
C1561 H1553 0.930 1_565 S
C1561 C1559 1.419 . S
C1561 C1562 1.362 . S
C1562 H1554 0.930 1_565 S
C1562 C1561 1.362 . S
C1562 C1565 1.409 . S
C1563 H1555 0.930 . S
C1563 C1564 1.355 . S
C1563 C1565 1.415 . S
C1564 C1563 1.355 . S
C1564 C1566 1.419 . S
C1565 C1560 1.425 . S
C1565 C1562 1.409 . S
C1565 C1563 1.415 . S
C1566 H1556 0.930 . S
C1566 C1564 1.419 . S
C1566 C1567 1.362 . S
C1567 H1557 0.930 . S
C1567 C1560 1.409 . S
C1567 C1566 1.362 . S
H1568 C1574 0.930 . S
H1569 C1577 0.930 . S
H1570 C1578 0.930 . S
H1571 C1579 0.930 . S
H1572 C1582 0.930 . S
H1573 C1583 0.930 . S
C1574 H1568 0.930 . S
C1574 C1575 1.355 . S
C1574 C1576 1.415 . S
C1575 C1574 1.355 . S
C1575 C1577 1.419 . S
C1576 C1574 1.415 . S
C1576 C1581 1.425 . S
C1576 C1583 1.409 . S
C1577 H1569 0.930 . S
C1577 C1575 1.419 . S
C1577 C1578 1.362 . S
C1578 H1570 0.930 . S
C1578 C1577 1.362 . S
C1578 C1581 1.409 . S
C1579 H1571 0.930 . S
C1579 C1580 1.355 . S
C1579 C1581 1.415 . S
C1580 C1579 1.355 . S
C1580 C1582 1.419 . S
C1581 C1576 1.425 . S
C1581 C1578 1.409 . S
C1581 C1579 1.415 . S
C1582 H1572 0.930 . S
C1582 C1580 1.419 . S
C1582 C1583 1.362 . S
C1583 H1573 0.930 . S
C1583 C1576 1.409 . S
C1583 C1582 1.362 . S
H1584 C1590 0.930 . S
H1585 C1593 0.930 . S
H1586 C1594 0.930 . S
H1587 C1595 0.930 . S
H1588 C1598 0.930 . S
H1589 C1599 0.930 . S
C1590 H1584 0.930 . S
C1590 C1591 1.355 . S
C1590 C1592 1.415 . S
C1591 C1590 1.355 . S
C1591 C1593 1.419 . S
C1592 C1590 1.415 . S
C1592 C1597 1.425 . S
C1592 C1599 1.409 . S
C1593 H1585 0.930 . S
C1593 C1591 1.419 . S
C1593 C1594 1.362 . S
C1594 H1586 0.930 . S
C1594 C1593 1.362 . S
C1594 C1597 1.409 . S
C1595 H1587 0.930 . S
C1595 C1596 1.355 . S
C1595 C1597 1.415 . S
C1596 C1595 1.355 . S
C1596 C1598 1.419 . S
C1597 C1592 1.425 . S
C1597 C1594 1.409 . S
C1597 C1595 1.415 . S
C1598 H1588 0.930 . S
C1598 C1596 1.419 . S
C1598 C1599 1.362 . S
C1599 H1589 0.930 . S
C1599 C1592 1.409 . S
C1599 C1598 1.362 . S
H1600 C1606 0.930 . S
H1601 C1609 0.930 . S
H1602 C1610 0.930 . S
H1603 C1611 0.930 . S
H1604 C1614 0.930 . S
H1605 C1615 0.930 . S
C1606 H1600 0.930 . S
C1606 C1607 1.355 . S
C1606 C1608 1.415 . S
C1607 C1606 1.355 . S
C1607 C1609 1.419 . S
C1608 C1606 1.415 . S
C1608 C1613 1.425 . S
C1608 C1615 1.409 . S
C1609 H1601 0.930 . S
C1609 C1607 1.419 . S
C1609 C1610 1.362 . S
C1610 H1602 0.930 . S
C1610 C1609 1.362 . S
C1610 C1613 1.409 . S
C1611 H1603 0.930 . S
C1611 C1612 1.355 . S
C1611 C1613 1.415 . S
C1612 C1611 1.355 . S
C1612 C1614 1.419 . S
C1613 C1608 1.425 . S
C1613 C1610 1.409 . S
C1613 C1611 1.415 . S
C1614 H1604 0.930 . S
C1614 C1612 1.419 . S
C1614 C1615 1.362 . S
C1615 H1605 0.930 . S
C1615 C1608 1.409 . S
C1615 C1614 1.362 . S
H1616 C1622 0.930 1_554 S
H1617 C1625 0.930 . S
H1618 C1626 0.930 . S
H1619 C1627 0.930 . S
H1620 C1630 0.942 . S
H1621 C1631 0.930 . S
C1622 H1616 0.930 1_556 S
C1622 C1623 1.355 . S
C1622 C1624 1.415 . S
C1623 C1622 1.355 . S
C1623 C1625 1.419 . S
C1624 C1622 1.415 . S
C1624 C1629 1.425 . S
C1624 C1631 1.409 1_556 S
C1625 H1617 0.930 . S
C1625 C1623 1.419 . S
C1625 C1626 1.362 . S
C1626 H1618 0.930 . S
C1626 C1625 1.362 . S
C1626 C1629 1.409 . S
C1627 H1619 0.930 . S
C1627 C1628 1.355 . S
C1627 C1629 1.415 . S
C1628 C1627 1.355 . S
C1628 C1630 1.402 1_556 S
C1629 C1624 1.425 . S
C1629 C1626 1.409 . S
C1629 C1627 1.415 . S
C1630 H1620 0.942 . S
C1630 C1628 1.402 1_554 S
C1630 C1631 1.367 . S
C1631 H1621 0.930 . S
C1631 C1624 1.409 1_554 S
C1631 C1630 1.367 . S
H1632 C1638 0.930 . S
H1633 C1641 0.930 . S
H1634 C1642 0.930 . S
H1635 C1643 0.930 . S
H1636 C1646 0.930 . S
H1637 C1647 0.930 . S
C1638 H1632 0.930 . S
C1638 C1639 1.355 . S
C1638 C1640 1.415 . S
C1639 C1638 1.355 . S
C1639 C1641 1.419 . S
C1640 C1638 1.415 . S
C1640 C1645 1.425 . S
C1640 C1647 1.409 . S
C1641 H1633 0.930 . S
C1641 C1639 1.419 . S
C1641 C1642 1.362 . S
C1642 H1634 0.930 . S
C1642 C1641 1.362 . S
C1642 C1645 1.409 . S
C1643 H1635 0.930 . S
C1643 C1644 1.355 . S
C1643 C1645 1.415 . S
C1644 C1643 1.355 . S
C1644 C1646 1.419 . S
C1645 C1640 1.425 . S
C1645 C1642 1.409 . S
C1645 C1643 1.415 . S
C1646 H1636 0.930 . S
C1646 C1644 1.419 . S
C1646 C1647 1.362 . S
C1647 H1637 0.930 . S
C1647 C1640 1.409 . S
C1647 C1646 1.362 . S
H1648 C1654 0.930 . S
H1649 C1657 0.930 . S
H1650 C1658 0.930 . S
H1651 C1659 0.930 . S
H1652 C1662 0.930 . S
H1653 C1663 0.930 . S
C1654 H1648 0.930 . S
C1654 C1655 1.355 . S
C1654 C1656 1.415 . S
C1655 C1654 1.355 . S
C1655 C1657 1.419 . S
C1656 C1654 1.415 . S
C1656 C1661 1.425 . S
C1656 C1663 1.409 . S
C1657 H1649 0.930 . S
C1657 C1655 1.419 . S
C1657 C1658 1.362 . S
C1658 H1650 0.930 . S
C1658 C1657 1.362 . S
C1658 C1661 1.409 . S
C1659 H1651 0.930 . S
C1659 C1660 1.355 . S
C1659 C1661 1.415 . S
C1660 C1659 1.355 . S
C1660 C1662 1.419 . S
C1661 C1656 1.425 . S
C1661 C1658 1.409 . S
C1661 C1659 1.415 . S
C1662 H1652 0.930 . S
C1662 C1660 1.419 . S
C1662 C1663 1.362 . S
C1663 H1653 0.930 . S
C1663 C1656 1.409 . S
C1663 C1662 1.362 . S
H1664 C1670 0.930 . S
H1665 C1673 0.930 . S
H1666 C1674 0.930 . S
H1667 C1675 0.930 . S
H1668 C1678 0.930 . S
H1669 C1679 0.930 . S
C1670 H1664 0.930 . S
C1670 C1671 1.355 . S
C1670 C1672 1.415 . S
C1671 C1670 1.355 . S
C1671 C1673 1.419 . S
C1672 C1670 1.415 . S
C1672 C1677 1.425 . S
C1672 C1679 1.409 . S
C1673 H1665 0.930 . S
C1673 C1671 1.419 . S
C1673 C1674 1.362 . S
C1674 H1666 0.930 . S
C1674 C1673 1.362 . S
C1674 C1677 1.409 . S
C1675 H1667 0.930 . S
C1675 C1676 1.355 . S
C1675 C1677 1.415 . S
C1676 C1675 1.355 . S
C1676 C1678 1.419 . S
C1677 C1672 1.425 . S
C1677 C1674 1.409 . S
C1677 C1675 1.415 . S
C1678 H1668 0.930 . S
C1678 C1676 1.419 . S
C1678 C1679 1.362 . S
C1679 H1669 0.930 . S
C1679 C1672 1.409 . S
C1679 C1678 1.362 . S
C535 C7 0.919 . S
C540 C93 1.029 . S
C551 C29 0.919 . S
C556 C115 1.030 . S
C567 C141 0.983 . S
C572 C50 1.012 . S
C583 C72 0.925 . S
C588 C163 0.988 . S
C599 C95 0.912 . S
C604 C181 1.031 . S
C615 C117 0.948 . S
C620 C251 0.976 . S
C631 C138 1.023 . S
C636 C203 0.971 . S
C647 C160 1.010 . S
C652 C229 0.955 . S
C663 C183 0.937 . S
C668 C5 1.024 . S
C679 C53 1.025 . S
C684 C205 0.933 . S
C695 C75 0.998 . S
C700 C226 0.909 . S
C711 C248 0.927 . S
C716 C27 1.027 . S
C727 C358 0.969 . S
C732 C269 1.024 . S
C743 C291 0.894 . S
C748 C380 1.008 . S
C759 C317 1.004 . S
C764 C403 0.955 . S
C775 C425 1.014 . S
C780 C339 0.887 . S
C791 C361 0.935 . S
C796 C446 1.025 . S
C807 C383 1.015 . S
C812 C513 0.954 . S
C823 C468 0.960 . S
C828 C401 0.986 . S
C839 C491 1.028 . S
C844 C423 0.925 . S
C855 C449 0.969 . S
C860 C271 1.011 . S
C871 C314 1.020 . S
C876 C471 0.882 . S
C887 C489 0.909 . S
C892 C336 0.998 . S
C903 C293 1.027 . S
C908 C511 0.880 . S
C919 C207 0.972 1_554 S
C924 C8 0.828 . S
C935 C30 0.824 . S
C940 C225 0.989 . S
C951 C185 0.935 1_556 S
C956 C48 0.878 . S
C967 C70 0.955 . S
C972 C247 0.927 . S
C983 C96 0.985 . S
C988 C71 0.894 1_455 S
C999 C118 0.986 . S
C1004 C49 0.889 . S
C1015 C31 0.952 . S
C1020 C136 0.922 . S
C1031 C9 0.967 1_655 S
C1036 C158 0.895 . S
C1047 C119 0.906 1_545 S
C1052 C184 0.977 . S
C1063 C206 0.822 . S
C1068 C159 0.988 . S
C1079 C137 0.990 . S
C1084 C224 0.825 . S
C1095 C97 0.918 1_565 S
C1100 C246 0.965 . S
C1111 C469 0.897 1_556 S
C1116 C268 0.984 . S
C1127 C290 0.982 . S
C1132 C490 0.885 . S
C1143 C316 0.822 . S
C1148 C447 0.980 1_554 S
C1159 C338 0.974 . S
C1164 C512 0.910 . S
C1175 C337 0.983 1_655 S
C1180 C360 0.860 . S
C1191 C315 0.929 . S
C1196 C382 0.954 . S
C1207 C400 0.948 . S
C1212 C292 0.895 . S
C1223 C422 0.829 . S
C1228 C270 0.990 1_455 S
C1239 C381 0.974 1_565 S
C1244 C448 0.827 . S
C1255 C470 0.971 . S
C1260 C424 0.913 . S
C1271 C402 0.902 . S
C1276 C488 0.932 . S
C1287 C510 0.844 . S
C1292 C359 0.959 1_545 S
C1303 C4 1.231 . S
C1308 C427 1.250 . S
C1319 C26 1.274 . S
C1324 C405 1.266 . S
C1335 C379 1.284 . S
C1340 C52 1.262 . S
C1351 C357 1.302 . S
C1356 C74 1.223 . S
C1367 C515 1.281 . S
C1372 C92 1.170 . S
C1383 C114 1.192 . S
C1388 C445 1.305 . S
C1399 C140 1.178 . S
C1404 C493 1.272 . S
C1415 C162 1.230 . S
C1420 C467 1.250 . S
C1431 C313 1.291 . S
C1436 C180 1.250 . S
C1447 C273 1.253 . S
C1452 C202 1.265 . S
C1463 C295 1.252 . S
C1468 C228 1.220 . S
C1479 C335 1.304 . S
C1484 C250 1.206 . S
C1495 C161 1.303 . S
C1500 C272 1.183 . S
C1511 C139 1.250 . S
C1516 C294 1.255 . S
C1527 C116 1.270 . S
C1532 C312 1.273 . S
C1543 C94 1.305 . S
C1548 C334 1.199 . S
C1559 C356 1.261 . S
C1564 C249 1.251 . S
C1575 C378 1.274 . S
C1580 C182 1.265 . S
C1591 C404 1.271 . S
C1596 C227 1.273 . S
C1607 C426 1.167 . S
C1612 C204 1.288 . S
C1623 C444 1.252 . S
C1628 C51 1.291 . S
C1639 C6 1.305 . S
C1644 C466 1.200 . S
C1655 C28 1.284 . S
C1660 C492 1.261 . S
C1671 C73 1.305 . S
C1676 C514 1.201 . S
