# Generated by pormake.
# Topology unh, (4)-cn, num edge types: 1
# Building blocks:
#     Node 0, Type 0, BuildingBlock: KUFVIS_clean_sbu_0, # of connection points: 4
#     Node 1, Type 0, BuildingBlock: KUFVIS_clean_sbu_0, # of connection points: 4
#     Node 2, Type 0, BuildingBlock: KUFVIS_clean_sbu_0, # of connection points: 4
#     Node 3, Type 0, BuildingBlock: KUFVIS_clean_sbu_0, # of connection points: 4
#     Node 4, Type 0, BuildingBlock: KUFVIS_clean_sbu_0, # of connection points: 4
#     Node 5, Type 0, BuildingBlock: KUFVIS_clean_sbu_0, # of connection points: 4
#     Edge 6, Type (0, 0), BuildingBlock: UVAHIK_clean_linker_0, # of connection points: 2
#     Edge 7, Type (0, 0), BuildingBlock: UVAHIK_clean_linker_0, # of connection points: 2
#     Edge 8, Type (0, 0), BuildingBlock: UVAHIK_clean_linker_0, # of connection points: 2
#     Edge 9, Type (0, 0), BuildingBlock: UVAHIK_clean_linker_0, # of connection points: 2
#     Edge 10, Type (0, 0), BuildingBlock: UVAHIK_clean_linker_0, # of connection points: 2
#     Edge 11, Type (0, 0), BuildingBlock: UVAHIK_clean_linker_0, # of connection points: 2
#     Edge 12, Type (0, 0), BuildingBlock: UVAHIK_clean_linker_0, # of connection points: 2
#     Edge 13, Type (0, 0), BuildingBlock: UVAHIK_clean_linker_0, # of connection points: 2
#     Edge 14, Type (0, 0), BuildingBlock: UVAHIK_clean_linker_0, # of connection points: 2
#     Edge 15, Type (0, 0), BuildingBlock: UVAHIK_clean_linker_0, # of connection points: 2
#     Edge 16, Type (0, 0), BuildingBlock: UVAHIK_clean_linker_0, # of connection points: 2
#     Edge 17, Type (0, 0), BuildingBlock: UVAHIK_clean_linker_0, # of connection points: 2
# Relax obj value: 0.110
# Max RMSD: 0.222
# Mean RMSD: 0.222
data_MOF--net-unh--node1-KUFVIS_clean_sbu_0--edge1-UVAHIK_clean_linker_0
_symmetry_space_group_name_H-M    P1
_symmetry_Int_Tables_number       1
_symmetry_cell_setting            triclinic
loop_
_symmetry_equiv_pos_as_xyz
'x, y, z'
_cell_length_a     53.856131
_cell_length_b     53.844674
_cell_length_c     28.572763
_cell_angle_alpha  90.027958
_cell_angle_beta   89.981437
_cell_angle_gamma 120.02437
loop_
_atom_site_label
_atom_site_type_symbol
_atom_site_fract_x
_atom_site_fract_y
_atom_site_fract_z
_atom_type_partial_charge
Mn0 Mn 0.13374 0.58005 0.06325 0.0
Mn1 Mn 0.10879 0.62601 0.05281 0.0
C2 C 0.15548 0.61778 0.01202 0.0
C3 C 0.16196 0.56579 0.10324 0.0
C4 C 0.07938 0.56626 0.01042 0.0
O5 O 0.10856 0.5719 0.12008 0.0
O6 O 0.09686 0.60655 0.11487 0.0
C7 C 0.14307 0.66786 0.12653 0.0
N8 N 0.135 0.66199 0.08085 0.0
C9 C 0.16547 0.71143 0.05922 0.0
C10 C 0.17394 0.71805 0.1061 0.0
C11 C 0.16271 0.69616 0.13987 0.0
C12 C 0.1456 0.68291 0.04808 0.0
H13 H 0.13463 0.65106 0.15255 0.0
C14 C 0.09688 0.58564 0.13633 0.0
O15 O 0.13989 0.54754 0.07902 0.0
O16 O 0.16763 0.59221 0.10379 0.0
N17 N 0.11922 0.6464 0.99466 0.0
C18 C 0.11027 0.63613 0.95058 0.0
C19 C 0.12035 0.65513 0.91247 0.0
C20 C 0.13945 0.68446 0.92007 0.0
C21 C 0.14818 0.69455 0.96577 0.0
C22 C 0.13719 0.67466 0.00243 0.0
H23 H 0.09572 0.6136 0.94447 0.0
O24 O 0.15893 0.5957 0.0074 0.0
O25 O 0.13989 0.61727 0.04719 0.0
O26 O 0.09846 0.55996 0.02162 0.0
O27 O 0.08066 0.58983 0.02184 0.0
C28 C 0.16784 0.72347 0.97627 0.0
C29 C 0.17647 0.7319 0.02296 0.0
H30 H 0.18928 0.7398 0.11647 0.0
H31 H 0.16928 0.70106 0.17607 0.0
H32 H 0.11356 0.64716 0.87729 0.0
H33 H 0.14743 0.69899 0.89052 0.0
H34 H 0.17676 0.73932 0.94863 0.0
H35 H 0.1919 0.75412 0.03051 0.0
Mn36 Mn 0.55662 0.13572 0.23413 0.0
Mn37 Mn 0.48533 0.11012 0.22658 0.0
C38 C 0.53904 0.15342 0.17828 0.0
C39 C 0.60093 0.16679 0.26695 0.0
C40 C 0.51435 0.07851 0.18869 0.0
O41 O 0.54171 0.11515 0.29557 0.0
O42 O 0.49465 0.1003 0.28905 0.0
C43 C 0.4809 0.14765 0.29784 0.0
N44 N 0.47691 0.13769 0.25306 0.0
C45 C 0.45799 0.16795 0.23001 0.0
C46 C 0.4617 0.17838 0.27597 0.0
C47 C 0.47323 0.16819 0.31 0.0
C48 C 0.46582 0.14733 0.22004 0.0
H49 H 0.48996 0.14004 0.32403 0.0
C50 C 0.51627 0.10263 0.31175 0.0
O51 O 0.5957 0.14264 0.24832 0.0
O52 O 0.58029 0.17264 0.26693 0.0
N53 N 0.47325 0.11824 0.16839 0.0
C54 C 0.47209 0.10685 0.1253 0.0
C55 C 0.46162 0.11527 0.0871 0.0
C56 C 0.4523 0.13517 0.09364 0.0
C57 C 0.45331 0.14629 0.13843 0.0
C58 C 0.46366 0.13686 0.17528 0.0
H59 H 0.47937 0.09166 0.11999 0.0
O60 O 0.5643 0.15625 0.17349 0.0
O61 O 0.52504 0.14084 0.21627 0.0
O62 O 0.53975 0.09744 0.20017 0.0
O63 O 0.4923 0.08085 0.19724 0.0
C64 C 0.44496 0.16677 0.14779 0.0
C65 C 0.44733 0.17762 0.19353 0.0
H66 H 0.456 0.19437 0.28542 0.0
H67 H 0.47631 0.17625 0.34548 0.0
H68 H 0.4609 0.10659 0.05264 0.0
H69 H 0.44456 0.14188 0.06399 0.0
H70 H 0.43702 0.17458 0.11994 0.0
H71 H 0.44116 0.1936 0.20018 0.0
Mn72 Mn 0.4106 0.55361 0.40341 0.0
Mn73 Mn 0.36328 0.48269 0.3966 0.0
C74 C 0.37144 0.5375 0.35527 0.0
C75 C 0.42701 0.59701 0.4419 0.0
C76 C 0.42137 0.5114 0.34867 0.0
O77 O 0.42014 0.53714 0.45948 0.0
O78 O 0.38512 0.49084 0.45638 0.0
C79 C 0.32486 0.47744 0.47475 0.0
N80 N 0.32871 0.47413 0.42854 0.0
C81 C 0.2786 0.45541 0.41242 0.0
C82 C 0.27405 0.45841 0.45991 0.0
C83 C 0.29729 0.46952 0.49118 0.0
C84 C 0.3065 0.46344 0.39815 0.0
H85 H 0.3427 0.48614 0.49884 0.0
C86 C 0.40681 0.51185 0.4763 0.0
O87 O 0.4441 0.59223 0.41626 0.0
O88 O 0.40047 0.57664 0.44488 0.0
N89 N 0.34055 0.47191 0.34082 0.0
C90 C 0.34884 0.47187 0.29576 0.0
C91 C 0.32828 0.46225 0.25987 0.0
C92 C 0.29942 0.45262 0.27069 0.0
C93 C 0.29135 0.45254 0.31737 0.0
C94 C 0.31274 0.46213 0.35172 0.0
H95 H 0.371 0.47935 0.28719 0.0
O96 O 0.39365 0.56277 0.34896 0.0
O97 O 0.37259 0.52273 0.39038 0.0
O98 O 0.42871 0.53705 0.36013 0.0
O99 O 0.39787 0.48954 0.36169 0.0
C100 C 0.26303 0.44389 0.33106 0.0
C101 C 0.25666 0.44534 0.37854 0.0
H102 H 0.25286 0.45253 0.47267 0.0
H103 H 0.29398 0.47205 0.52783 0.0
H104 H 0.33468 0.46239 0.22392 0.0
H105 H 0.28368 0.44552 0.24285 0.0
H106 H 0.24606 0.43648 0.30525 0.0
H107 H 0.23488 0.439 0.38853 0.0
Mn108 Mn 0.85599 0.4187 0.55992 0.0
Mn109 Mn 0.88421 0.3753 0.5511 0.0
C110 C 0.83855 0.38302 0.5048 0.0
C111 C 0.82483 0.43063 0.59607 0.0
C112 C 0.91316 0.43586 0.51268 0.0
O113 O 0.87803 0.42569 0.62003 0.0
O114 O 0.89379 0.39418 0.61387 0.0
C115 C 0.84826 0.33224 0.62221 0.0
N116 N 0.85789 0.33875 0.57732 0.0
C117 C 0.82906 0.28942 0.55369 0.0
C118 C 0.81902 0.28216 0.59975 0.0
C119 C 0.82864 0.30368 0.63414 0.0
C120 C 0.84876 0.31822 0.54396 0.0
H121 H 0.85543 0.34874 0.64867 0.0
C122 C 0.89105 0.41332 0.6363 0.0
O123 O 0.84791 0.44993 0.57526 0.0
O124 O 0.81976 0.40439 0.59538 0.0
N125 N 0.87647 0.35548 0.49255 0.0
C126 C 0.88741 0.36621 0.44944 0.0
C127 C 0.87945 0.34754 0.41093 0.0
C128 C 0.86047 0.31806 0.41717 0.0
C129 C 0.84983 0.30746 0.46197 0.0
C130 C 0.85878 0.32704 0.49913 0.0
H131 H 0.90189 0.38886 0.44436 0.0
O132 O 0.83426 0.40459 0.50053 0.0
O133 O 0.85225 0.38259 0.54204 0.0
O134 O 0.89334 0.4411 0.52383 0.0
O135 O 0.91227 0.4122 0.52199 0.0
C136 C 0.83028 0.27832 0.47107 0.0
C137 C 0.81988 0.26931 0.51688 0.0
H138 H 0.80373 0.26019 0.60903 0.0
H139 H 0.82086 0.29826 0.6697 0.0
H140 H 0.88778 0.35589 0.37647 0.0
H141 H 0.85412 0.30379 0.38729 0.0
H142 H 0.82285 0.26271 0.44299 0.0
H143 H 0.80461 0.24691 0.52333 0.0
Mn144 Mn 0.44259 0.85879 0.73384 0.0
Mn145 Mn 0.51425 0.88722 0.72668 0.0
C146 C 0.46128 0.83902 0.68368 0.0
C147 C 0.39937 0.82873 0.77066 0.0
C148 C 0.48225 0.91421 0.68224 0.0
O149 O 0.45742 0.88353 0.79165 0.0
O150 O 0.50463 0.89845 0.78767 0.0
C151 C 0.52255 0.85457 0.8024 0.0
N152 N 0.52524 0.86243 0.75656 0.0
C153 C 0.54698 0.83404 0.73765 0.0
C154 C 0.54463 0.82581 0.78473 0.0
C155 C 0.53234 0.8361 0.81722 0.0
C156 C 0.53712 0.85273 0.72502 0.0
H157 H 0.51294 0.86228 0.82743 0.0
C158 C 0.48271 0.89676 0.80847 0.0
O159 O 0.40305 0.85084 0.7468 0.0
O160 O 0.42079 0.82409 0.77294 0.0
N161 N 0.52622 0.87758 0.66976 0.0
C162 C 0.5252 0.88607 0.62522 0.0
C163 C 0.5357 0.87676 0.58822 0.0
C164 C 0.54722 0.85892 0.59739 0.0
C165 C 0.54825 0.85065 0.64355 0.0
C166 C 0.53771 0.86082 0.67906 0.0
H167 H 0.51621 0.89964 0.61791 0.0
O168 O 0.43544 0.83446 0.67747 0.0
O169 O 0.47518 0.85464 0.71964 0.0
O170 O 0.45719 0.89438 0.69331 0.0
O171 O 0.50507 0.91404 0.69389 0.0
C172 C 0.55873 0.8322 0.65558 0.0
C173 C 0.5581 0.8239 0.70259 0.0
H174 H 0.55193 0.81136 0.79623 0.0
H175 H 0.5303 0.82971 0.85356 0.0
H176 H 0.53477 0.88318 0.55268 0.0
H177 H 0.55501 0.85152 0.56869 0.0
H178 H 0.56694 0.82393 0.62885 0.0
H179 H 0.56585 0.80939 0.71131 0.0
Mn180 Mn 0.57456 0.43424 0.90018 0.0
Mn181 Mn 0.61798 0.50602 0.89577 0.0
C182 C 0.6128 0.45372 0.84972 0.0
C183 C 0.56157 0.39016 0.93366 0.0
C184 C 0.55949 0.47498 0.84985 0.0
O185 O 0.56481 0.4479 0.95938 0.0
O186 O 0.59572 0.49545 0.95549 0.0
C187 C 0.65707 0.51228 0.97343 0.0
N188 N 0.65299 0.51604 0.92752 0.0
C189 C 0.70345 0.53743 0.91141 0.0
C190 C 0.70822 0.53398 0.9586 0.0
C191 C 0.68492 0.52132 0.98972 0.0
C192 C 0.67527 0.52824 0.89729 0.0
H193 H 0.6392 0.50238 -0.0026 0.0
C194 C 0.5759 0.47315 0.97613 0.0
O195 O 0.54296 0.39439 0.91149 0.0
O196 O 0.58757 0.41163 0.93672 0.0
N197 N 0.6409 0.51915 0.84027 0.0
C198 C 0.63247 0.51958 0.79545 0.0
C199 C 0.65312 0.53081 0.75972 0.0
C200 C 0.68219 0.54159 0.77045 0.0
C201 C 0.69038 0.54123 0.8169 0.0
C202 C 0.66888 0.53002 0.85112 0.0
H203 H 0.61014 0.51117 0.78695 0.0
O204 O 0.59138 0.42807 0.84258 0.0
O205 O 0.61139 0.46703 0.88678 0.0
O206 O 0.55359 0.44979 0.86155 0.0
O207 O 0.58282 0.49759 0.86115 0.0
C208 C 0.71896 0.551 0.83045 0.0
C209 C 0.72549 0.54909 0.87767 0.0
H210 H 0.72964 0.54073 0.97123 0.0
H211 H 0.6884 0.51844 0.02613 0.0
H212 H 0.64663 0.53099 0.72394 0.0
H213 H 0.69802 0.54993 0.7427 0.0
H214 H 0.73603 0.55968 0.80474 0.0
H215 H 0.74749 0.55634 0.88755 0.0
C216 C 0.05557 0.52237 0.95988 0.0
C217 C 0.05515 0.54577 0.98096 0.0
C218 C 0.03386 0.5044 0.92902 0.0
C219 C 0.98115 0.50606 0.84983 0.0
H220 H 0.95319 0.42451 0.83755 0.0
C221 C 0.89786 0.43981 0.71126 0.0
C222 C 0.90446 0.42252 0.68296 0.0
C223 C 0.91255 0.45123 0.75299 0.0
C224 C 0.96089 0.44728 0.84058 0.0
H225 H 0.0307 0.56764 0.98809 0.0
H226 H 0.99261 0.53598 0.93494 0.0
H227 H 0.9855 0.45138 0.90197 0.0
H228 H 0.93053 0.40229 0.67775 0.0
H229 H 0.95657 0.4227 0.75064 0.0
H230 H 0.95705 0.50221 0.78828 0.0
C231 C 0.0101 0.53195 0.94143 0.0
C232 C 0.97938 0.46266 0.87736 0.0
C233 C 0.03189 0.55004 0.97203 0.0
C234 C 0.92503 0.41564 0.69865 0.0
C235 C 0.93984 0.4272 0.74049 0.0
C236 C 0.96266 0.49072 0.81333 0.0
C237 C 0.01117 0.50932 0.91877 0.0
C238 C 0.9899 0.49229 0.8821 0.0
C239 C 0.93425 0.44574 0.76738 0.0
C240 C 0.9525 0.46124 0.80806 0.0
H241 H 0.07315 0.51843 0.96597 0.0
H242 H 0.03551 0.48736 0.91178 0.0
H243 H 0.98933 0.52895 0.85178 0.0
H244 H 0.88177 0.44514 0.7007 0.0
H245 H 0.90738 0.46497 0.77351 0.0
C246 C 0.51364 0.92415 0.87686 0.0
C247 C 0.48677 0.91089 0.85453 0.0
C248 C 0.5174 0.93809 0.91975 0.0
C249 C 0.47751 0.94576 0.01961 0.0
H250 H 0.54445 0.0216 0.02991 0.0
C251 C 0.48411 0.03448 0.14064 0.0
C252 C 0.51066 0.05356 0.16125 0.0
C253 C 0.48168 0.01314 0.11003 0.0
C254 C 0.52591 0.00024 0.02808 0.0
H255 H 0.44262 0.90137 0.86046 0.0
H256 H 0.44938 0.92607 0.9344 0.0
H257 H 0.53972 0.99158 0.96311 0.0
H258 H 0.55499 0.06387 0.16831 0.0
H259 H 0.55059 0.02658 0.11516 0.0
H260 H 0.46328 0.95501 0.08391 0.0
C261 C 0.46743 0.92532 0.91926 0.0
C262 C 0.52321 0.98301 0.98976 0.0
C263 C 0.46365 0.91136 0.87654 0.0
C264 C 0.53429 0.0498 0.1526 0.0
C265 C 0.53183 0.02848 0.12204 0.0
C266 C 0.48018 0.96306 0.05791 0.0
C267 C 0.49439 0.93906 0.94116 0.0
C268 C 0.49871 0.95582 0.9846 0.0
C269 C 0.50572 0.01044 0.09949 0.0
C270 C 0.50417 0.99068 0.06205 0.0
H271 H 0.53184 0.92395 0.86114 0.0
H272 H 0.53836 0.94821 0.93605 0.0
H273 H 0.4586 0.9247 0.01699 0.0
H274 H 0.46545 0.03669 0.14659 0.0
H275 H 0.46131 -0.00032 0.09288 0.0
C276 C 0.43409 0.47888 0.30513 0.0
C277 C 0.44057 0.5068 0.31729 0.0
C278 C 0.45124 0.47457 0.2733 0.0
C279 C 0.52188 0.51067 0.21368 0.0
H280 H 0.48109 0.4532 0.11821 0.0
C281 C 0.5727 0.50427 0.03861 0.0
C282 C 0.56443 0.4768 0.02109 0.0
C283 C 0.55989 0.50744 0.07901 0.0
C284 C 0.49286 0.46903 0.14501 0.0
H285 H 0.47073 0.5521 0.30638 0.0
H286 H 0.50026 0.54451 0.25028 0.0
H287 H 0.4544 0.4594 0.18127 0.0
H288 H 0.53737 0.4311 0.03392 0.0
H289 H 0.51533 0.43673 0.10426 0.0
H290 H 0.56034 0.52065 0.17645 0.0
C291 C 0.48215 0.52596 0.26588 0.0
C292 C 0.47755 0.47257 0.18121 0.0
C293 C 0.46507 0.53028 0.29784 0.0
C294 C 0.544 0.45261 0.04598 0.0
C295 C 0.53127 0.45579 0.08626 0.0
C296 C 0.53723 0.50717 0.17729 0.0
C297 C 0.47518 0.49806 0.25274 0.0
C298 C 0.49185 0.49351 0.21582 0.0
C299 C 0.53862 0.48321 0.10264 0.0
C300 C 0.52282 0.48638 0.14249 0.0
H301 H 0.41554 0.46028 0.31969 0.0
H302 H 0.44558 0.4528 0.26446 0.0
H303 H 0.53353 0.52678 0.24015 0.0
H304 H 0.58843 0.52336 0.02043 0.0
H305 H 0.56585 0.52886 0.09068 0.0
C306 C 0.93965 0.48432 0.47509 0.0
C307 C 0.93765 0.4578 0.48525 0.0
C308 C 0.96098 0.50387 0.44524 0.0
C309 C 0.02929 0.5216 0.38695 0.0
H310 H 0.00032 0.54883 0.28693 0.0
C311 C 0.08273 0.55415 0.20707 0.0
C312 C 0.08265 0.57674 0.18252 0.0
C313 C 0.06857 0.54487 0.24978 0.0
C314 C 0.00897 0.54198 0.31508 0.0
H315 H 0.95749 0.43175 0.47377 0.0
H316 H 0.9945 0.46578 0.42131 0.0
H317 H 0.9694 0.52317 0.35272 0.0
H318 H 0.06835 0.60795 0.18462 0.0
H319 H 0.04357 0.59165 0.25955 0.0
H320 H 0.06861 0.53971 0.34846 0.0
C321 C 0.97968 0.47151 0.43679 0.0
C322 C 0.99124 0.52724 0.3528 0.0
C323 C 0.95833 0.45192 0.46665 0.0
C324 C 0.06865 0.59033 0.20238 0.0
C325 C 0.05442 0.58099 0.24525 0.0
C326 C 0.04706 0.53642 0.34925 0.0
C327 C 0.9808 0.49739 0.42495 0.0
C328 C 0.00097 0.51628 0.38852 0.0
C329 C 0.054 0.55795 0.26913 0.0
C330 C 0.03682 0.54608 0.31231 0.0
H331 H 0.92429 0.48974 0.48919 0.0
H332 H 0.9616 0.52384 0.43725 0.0
H333 H 0.03749 0.51378 0.41438 0.0
H334 H 0.09336 0.5432 0.19302 0.0
H335 H 0.06827 0.52677 0.26688 0.0
C336 C 0.53447 0.09017 0.38338 0.0
C337 C 0.51144 0.08913 0.3585 0.0
C338 C 0.52975 0.07532 0.4254 0.0
C339 C 0.47348 0.01231 0.48526 0.0
H340 H 0.52864 0.03874 0.58687 0.0
C341 C 0.46022 0.93967 0.64151 0.0
C342 C 0.4848 0.93816 0.65325 0.0
C343 C 0.46222 0.96113 0.61178 0.0
C344 C 0.51308 0.0311 0.55871 0.0
H345 H 0.46554 0.07294 0.35983 0.0
H346 H 0.45739 0.04716 0.43355 0.0
H347 H 0.53396 0.07174 0.5239 0.0
H348 H 0.53094 0.95871 0.64409 0.0
H349 H 0.53431 0.99598 0.59176 0.0
H350 H 0.45302 0.97151 0.51929 0.0
C351 C 0.47903 0.05911 0.41996 0.0
C352 C 0.5161 0.04996 0.52272 0.0
C353 C 0.48373 0.07396 0.37779 0.0
C354 C 0.51157 0.9592 0.63577 0.0
C355 C 0.51355 0.98069 0.60602 0.0
C356 C 0.47042 0.99351 0.52127 0.0
C357 C 0.50192 0.05916 0.44368 0.0
C358 C 0.49668 0.04056 0.48507 0.0
C359 C 0.48882 0.98158 0.59313 0.0
C360 C 0.49052 0.00253 0.55785 0.0
H361 H 0.55614 0.10174 0.36977 0.0
H362 H 0.54781 0.07553 0.44246 0.0
H363 H 0.4584 0.00424 0.45644 0.0
H364 H 0.43927 0.92401 0.65466 0.0
H365 H 0.44286 0.96152 0.60294 0.0
C366 C 0.54532 0.50483 0.80168 0.0
C367 C 0.53868 0.47797 0.82 0.0
C368 C 0.52657 0.50718 0.77068 0.0
C369 C 0.47106 0.46449 0.68476 0.0
H370 H 0.45894 0.52967 0.68395 0.0
C371 C 0.40436 0.47906 0.54092 0.0
C372 C 0.41723 0.50666 0.52113 0.0
C373 C 0.41512 0.47422 0.58229 0.0
C374 C 0.46218 0.51137 0.68371 0.0
H375 H 0.50644 0.4327 0.8216 0.0
H376 H 0.47377 0.43694 0.76774 0.0
H377 H 0.48533 0.52381 0.7484 0.0
H378 H 0.45105 0.55096 0.53022 0.0
H379 H 0.46989 0.54238 0.60163 0.0
H380 H 0.44869 0.45247 0.61948 0.0
C381 C 0.49368 0.45607 0.77688 0.0
C382 C 0.47728 0.50804 0.72055 0.0
C383 C 0.5124 0.4537 0.80786 0.0
C384 C 0.44061 0.52939 0.54428 0.0
C385 C 0.4513 0.52455 0.58555 0.0
C386 C 0.456 0.46784 0.64791 0.0
C387 C 0.50079 0.48275 0.75737 0.0
C388 C 0.48233 0.48485 0.72099 0.0
C389 C 0.43888 0.49688 0.60477 0.0
C390 C 0.4519 0.49162 0.64652 0.0
H391 H 0.56536 0.52397 0.81023 0.0
H392 H 0.53279 0.52799 0.75581 0.0
H393 H 0.47493 0.4466 0.68379 0.0
H394 H 0.38619 0.4611 0.52422 0.0
H395 H 0.40494 0.45272 0.59657 0.0
C396 C 0.17402 0.52852 0.12895 0.0
C397 C 0.17967 0.55699 0.13005 0.0
C398 C 0.19078 0.52047 0.15519 0.0
C399 C 0.2394 0.54332 0.25683 0.0
H400 H 0.2712 0.50001 0.19954 0.0
C401 C 0.34475 0.53248 0.28183 0.0
C402 C 0.34478 0.52995 0.33059 0.0
C403 C 0.32031 0.52891 0.25881 0.0
C404 C 0.26237 0.51202 0.21602 0.0
H405 H 0.20734 0.59934 0.15913 0.0
H406 H 0.23653 0.58539 0.2044 0.0
H407 H 0.23658 0.50791 0.15618 0.0
H408 H 0.32022 0.52289 0.39406 0.0
H409 H 0.27711 0.51586 0.35395 0.0
H410 H 0.2661 0.54882 0.31556 0.0
C411 C 0.21897 0.56917 0.1839 0.0
C412 C 0.24239 0.51631 0.1914 0.0
C413 C 0.20237 0.57722 0.15765 0.0
C414 C 0.32021 0.52396 0.3562 0.0
C415 C 0.29575 0.5203 0.33328 0.0
C416 C 0.25931 0.53906 0.28135 0.0
C417 C 0.2133 0.54072 0.18317 0.0
C418 C 0.23137 0.53272 0.21112 0.0
C419 C 0.29573 0.52332 0.2844 0.0
C420 C 0.27157 0.524 0.26079 0.0
H421 H 0.15663 0.51247 0.10797 0.0
H422 H 0.18592 0.49837 0.1541 0.0
H423 H 0.2309 0.55566 0.27318 0.0
H424 H 0.36382 0.53778 0.26169 0.0
H425 H 0.32121 0.53195 0.22126 0.0
C426 C 0.63463 0.21386 0.30343 0.0
C427 C 0.62931 0.18716 0.28654 0.0
C428 C 0.66153 0.23358 0.32102 0.0
C429 C 0.72413 0.2774 0.33013 0.0
H430 H 0.7609 0.25377 0.42255 0.0
C431 C 0.8241 0.36134 0.42582 0.0
C432 C 0.82261 0.35803 0.47453 0.0
C433 C 0.80571 0.33851 0.39707 0.0
C434 C 0.75095 0.26064 0.39656 0.0
H435 H 0.64787 0.16 0.27515 0.0
H436 H 0.69513 0.19466 0.30626 0.0
H437 H 0.71738 0.21759 0.38314 0.0
H438 H 0.8006 0.32907 0.53192 0.0
H439 H 0.76809 0.28919 0.48197 0.0
H440 H 0.75648 0.32042 0.34512 0.0
C441 C 0.67837 0.20021 0.30582 0.0
C442 C 0.72621 0.23994 0.37377 0.0
C443 C 0.65139 0.18045 0.28795 0.0
C444 C 0.80266 0.33167 0.49426 0.0
C445 C 0.78413 0.30888 0.46562 0.0
C446 C 0.74876 0.29803 0.35284 0.0
C447 C 0.68373 0.22705 0.3222 0.0
C448 C 0.71208 0.24825 0.34143 0.0
C449 C 0.78499 0.31228 0.41673 0.0
C450 C 0.76198 0.28996 0.38729 0.0
H451 H 0.61804 0.21964 0.30296 0.0
H452 H 0.66485 0.25388 0.33426 0.0
H453 H 0.71395 0.28438 0.30475 0.0
H454 H 0.83911 0.38176 0.41013 0.0
H455 H 0.80704 0.34171 0.35954 0.0
C456 C 0.4777 0.80351 0.6845 0.0
C457 C 0.47013 0.8209 0.65886 0.0
C458 C 0.48181 0.7829 0.66188 0.0
C459 C 0.4621 0.72654 0.61362 0.0
H460 H 0.48769 0.73102 0.48542 0.0
C461 C 0.41833 0.6277 0.49699 0.0
C462 C 0.43718 0.62425 0.46737 0.0
C463 C 0.42766 0.65315 0.5217 0.0
C464 C 0.48087 0.72954 0.52147 0.0
H465 H 0.46039 0.83043 0.59008 0.0
H466 H 0.46673 0.79379 0.55027 0.0
H467 H 0.49738 0.77487 0.52648 0.0
H468 H 0.48059 0.6448 0.44013 0.0
H469 H 0.49694 0.6896 0.48353 0.0
H470 H 0.44526 0.68132 0.60859 0.0
C471 C 0.47073 0.79678 0.58755 0.0
C472 C 0.48618 0.75458 0.54482 0.0
C473 C 0.46685 0.81757 0.61025 0.0
C474 C 0.46558 0.64688 0.46275 0.0
C475 C 0.47492 0.67251 0.48742 0.0
C476 C 0.45685 0.70164 0.59038 0.0
C477 C 0.47749 0.77868 0.61333 0.0
C478 C 0.47616 0.75322 0.59074 0.0
C479 C 0.45605 0.67578 0.51736 0.0
C480 C 0.46538 0.70275 0.54364 0.0
H481 H 0.47936 0.80511 0.72229 0.0
H482 H 0.48727 0.76951 0.6827 0.0
H483 H 0.45378 0.72459 0.64875 0.0
H484 H 0.39629 0.61072 0.50121 0.0
H485 H 0.41246 0.65525 0.5438 0.0
C486 C 0.66459 0.46954 0.8486 0.0
C487 C 0.63951 0.46288 0.82399 0.0
C488 C 0.68894 0.47368 0.82467 0.0
C489 C 0.72397 0.45385 0.77109 0.0
H490 H 0.74674 0.48577 0.64641 0.0
C491 C 0.78221 0.41727 0.64648 0.0
C492 C 0.80563 0.43827 0.62107 0.0
C493 C 0.76468 0.42453 0.67193 0.0
C494 C 0.74084 0.47708 0.68144 0.0
H495 H 0.61966 0.45488 0.75573 0.0
H496 H 0.66211 0.46164 0.71354 0.0
H497 H 0.71244 0.49382 0.69069 0.0
H498 H 0.8288 0.48325 0.60161 0.0
H499 H 0.7979 0.49591 0.64619 0.0
H500 H 0.75189 0.43674 0.76177 0.0
C501 C 0.66342 0.46471 0.7511 0.0
C502 C 0.72111 0.48152 0.70661 0.0
C503 C 0.63909 0.46064 0.77513 0.0
C504 C 0.81089 0.46662 0.62093 0.0
C505 C 0.7932 0.47386 0.64627 0.0
C506 C 0.74355 0.44937 0.74596 0.0
C507 C 0.68835 0.4705 0.77577 0.0
C508 C 0.71206 0.46944 0.75133 0.0
C509 C 0.77013 0.45292 0.67244 0.0
C510 C 0.75166 0.46034 0.70049 0.0
H511 H 0.665 0.47041 0.88649 0.0
H512 H 0.70788 0.47831 0.84459 0.0
H513 H 0.71721 0.44395 0.80521 0.0
H514 H 0.77754 0.39523 0.64715 0.0
H515 H 0.74672 0.40784 0.69111 0.0
C516 C 0.36935 0.78686 0.82209 0.0
C517 C 0.37215 0.80985 0.79498 0.0
C518 C 0.34393 0.76926 0.84601 0.0
C519 C 0.26704 0.74467 0.84795 0.0
H520 H 0.27273 0.72076 0.97358 0.0
C521 C 0.19301 0.66901 0.01172 0.0
C522 C 0.17463 0.64413 0.98659 0.0
C523 C 0.21432 0.69303 0.98859 0.0
C524 C 0.27064 0.72758 0.93887 0.0
H525 H 0.35044 0.83231 0.77119 0.0
H526 H 0.30584 0.8014 0.81326 0.0
H527 H 0.31589 0.7556 0.93311 0.0
H528 H 0.1641 0.6242 0.91828 0.0
H529 H 0.20184 0.66608 0.87751 0.0
H530 H 0.22166 0.71632 0.85379 0.0
C531 C 0.32335 0.79701 0.81575 0.0
C532 C 0.29544 0.74726 0.91545 0.0
C533 C 0.34889 0.81473 0.79186 0.0
C534 C 0.17773 0.64351 0.93801 0.0
C535 C 0.19916 0.66752 0.91479 0.0
C536 C 0.24212 0.72489 0.87145 0.0
C537 C 0.32073 0.77424 0.84334 0.0
C538 C 0.29399 0.75552 0.86941 0.0
C539 C 0.21814 0.69229 0.94005 0.0
C540 C 0.24376 0.71576 0.91685 0.0
H541 H 0.38684 0.78246 0.82502 0.0
H542 H 0.34236 0.75155 0.86634 0.0
H543 H 0.26531 0.75064 0.81242 0.0
H544 H 0.19152 0.66953 0.04949 0.0
H545 H 0.22844 0.71186 0.00896 0.0
C546 C 0.57525 0.35738 0.97261 0.0
C547 C 0.55381 0.362 0.9539 0.0
C548 C 0.56831 0.33073 0.99102 0.0
C549 C 0.51028 0.26616 0.04386 0.0
H550 H 0.56098 0.23611 0.01789 0.0
C551 C 0.53251 0.16801 0.09897 0.0
C552 C 0.53086 0.16991 0.14764 0.0
C553 C 0.5287 0.18664 0.06984 0.0
C554 C 0.54623 0.24382 0.02488 0.0
H555 H 0.50821 0.34246 0.94013 0.0
H556 H 0.49602 0.29567 0.97292 0.0
H557 H 0.56749 0.27832 0.97621 0.0
H558 H 0.52511 0.19305 0.20457 0.0
H559 H 0.5186 0.22583 0.15389 0.0
H560 H 0.48943 0.23191 0.09343 0.0
C561 C 0.51819 0.31277 0.97313 0.0
C562 C 0.55021 0.26822 0.0014 0.0
C563 C 0.52519 0.33947 0.9543 0.0
C564 C 0.52541 0.19062 0.16696 0.0
C565 C 0.52168 0.20932 0.13793 0.0
C566 C 0.50633 0.24173 0.06754 0.0
C567 C 0.53975 0.30813 0.99135 0.0
C568 C 0.53282 0.28011 0.01162 0.0
C569 C 0.52389 0.20792 0.08908 0.0
C570 C 0.52477 0.23078 0.05912 0.0
H571 H 0.59749 0.37432 0.97288 0.0
H572 H 0.58531 0.32791 0.00559 0.0
H573 H 0.49658 0.27492 0.05241 0.0
H574 H 0.53723 0.15243 0.08358 0.0
H575 H 0.5304 0.18499 0.03233 0.0
loop_
_geom_bond_atom_site_label_1
_geom_bond_atom_site_label_2
_geom_bond_distance
_geom_bond_site_symmetry_2
_ccdc_geom_bond_type
Mn0 O5 2.095 . S
Mn0 O15 2.162 . S
Mn0 O16 2.297 . S
Mn0 O24 2.385 . S
Mn0 O25 2.209 . S
Mn0 O26 2.094 . S
Mn1 O6 2.121 . S
Mn1 N8 2.257 . S
Mn1 N17 2.282 1_554 S
Mn1 O25 2.215 . S
Mn1 O27 2.117 . S
C2 O24 1.234 . S
C2 O25 1.283 . S
C3 O15 1.281 . S
C3 O16 1.236 . S
C4 O26 1.240 . S
C4 O27 1.264 . S
O5 Mn0 2.095 . S
O5 C14 1.250 . S
O6 Mn1 2.121 . S
O6 C14 1.258 . S
C7 N8 1.326 . S
C7 C11 1.460 . S
C7 H13 0.929 . S
N8 Mn1 2.257 . S
N8 C7 1.326 . S
N8 C12 1.362 . S
C9 C10 1.258 . S
C9 C12 1.431 . S
C9 C29 1.449 . S
C10 C9 1.258 . S
C10 C11 1.477 . S
C10 H30 0.931 . S
C11 C7 1.460 . S
C11 C10 1.477 . S
C11 H31 0.930 . S
C12 N8 1.362 . S
C12 C9 1.431 . S
C12 C22 1.476 1_554 S
H13 C7 0.929 . S
C14 O5 1.250 . S
C14 O6 1.258 . S
O15 Mn0 2.162 . S
O15 C3 1.281 . S
O16 Mn0 2.297 . S
O16 C3 1.236 . S
N17 Mn1 2.282 1_556 S
N17 C18 1.328 . S
N17 C22 1.318 . S
C18 N17 1.328 . S
C18 C19 1.457 . S
C18 H23 0.929 . S
C19 C18 1.457 . S
C19 C20 1.291 . S
C19 H32 0.931 . S
C20 C19 1.291 . S
C20 C21 1.373 . S
C20 H33 0.929 . S
C21 C20 1.373 . S
C21 C22 1.396 . S
C21 C28 1.403 . S
C22 C12 1.476 1_556 S
C22 N17 1.318 . S
C22 C21 1.396 . S
H23 C18 0.929 . S
O24 Mn0 2.385 . S
O24 C2 1.234 . S
O25 Mn0 2.209 . S
O25 Mn1 2.215 . S
O25 C2 1.283 . S
O26 Mn0 2.094 . S
O26 C4 1.240 . S
O27 Mn1 2.117 . S
O27 C4 1.264 . S
C28 C21 1.403 . S
C28 C29 1.399 1_556 S
C28 H34 0.929 . S
C29 C9 1.449 . S
C29 C28 1.399 1_554 S
C29 H35 0.930 . S
H30 C10 0.931 . S
H31 C11 0.930 . S
H32 C19 0.931 . S
H33 C20 0.929 . S
H34 C28 0.929 . S
H35 C29 0.930 . S
Mn36 O41 2.095 . S
Mn36 O51 2.162 . S
Mn36 O52 2.297 . S
Mn36 O60 2.385 . S
Mn36 O61 2.209 . S
Mn36 O62 2.094 . S
Mn37 O42 2.121 . S
Mn37 N44 2.257 . S
Mn37 N53 2.282 . S
Mn37 O61 2.215 . S
Mn37 O63 2.117 . S
C38 O60 1.234 . S
C38 O61 1.283 . S
C39 O51 1.281 . S
C39 O52 1.236 . S
C40 O62 1.240 . S
C40 O63 1.264 . S
O41 Mn36 2.095 . S
O41 C50 1.250 . S
O42 Mn37 2.121 . S
O42 C50 1.258 . S
C43 N44 1.326 . S
C43 C47 1.460 . S
C43 H49 0.929 . S
N44 Mn37 2.257 . S
N44 C43 1.326 . S
N44 C48 1.362 . S
C45 C46 1.258 . S
C45 C48 1.431 . S
C45 C65 1.449 . S
C46 C45 1.258 . S
C46 C47 1.477 . S
C46 H66 0.931 . S
C47 C43 1.460 . S
C47 C46 1.477 . S
C47 H67 0.930 . S
C48 N44 1.362 . S
C48 C45 1.431 . S
C48 C58 1.476 . S
H49 C43 0.929 . S
C50 O41 1.250 . S
C50 O42 1.258 . S
O51 Mn36 2.162 . S
O51 C39 1.281 . S
O52 Mn36 2.297 . S
O52 C39 1.236 . S
N53 Mn37 2.282 . S
N53 C54 1.328 . S
N53 C58 1.318 . S
C54 N53 1.328 . S
C54 C55 1.457 . S
C54 H59 0.929 . S
C55 C54 1.457 . S
C55 C56 1.291 . S
C55 H68 0.931 . S
C56 C55 1.291 . S
C56 C57 1.373 . S
C56 H69 0.929 . S
C57 C56 1.373 . S
C57 C58 1.396 . S
C57 C64 1.403 . S
C58 C48 1.476 . S
C58 N53 1.318 . S
C58 C57 1.396 . S
H59 C54 0.929 . S
O60 Mn36 2.385 . S
O60 C38 1.234 . S
O61 Mn36 2.209 . S
O61 Mn37 2.215 . S
O61 C38 1.283 . S
O62 Mn36 2.094 . S
O62 C40 1.240 . S
O63 Mn37 2.117 . S
O63 C40 1.264 . S
C64 C57 1.403 . S
C64 C65 1.399 . S
C64 H70 0.929 . S
C65 C45 1.449 . S
C65 C64 1.399 . S
C65 H71 0.930 . S
H66 C46 0.931 . S
H67 C47 0.930 . S
H68 C55 0.931 . S
H69 C56 0.929 . S
H70 C64 0.929 . S
H71 C65 0.930 . S
Mn72 O77 2.095 . S
Mn72 O87 2.162 . S
Mn72 O88 2.297 . S
Mn72 O96 2.385 . S
Mn72 O97 2.209 . S
Mn72 O98 2.094 . S
Mn73 O78 2.121 . S
Mn73 N80 2.257 . S
Mn73 N89 2.282 . S
Mn73 O97 2.215 . S
Mn73 O99 2.117 . S
C74 O96 1.234 . S
C74 O97 1.283 . S
C75 O87 1.281 . S
C75 O88 1.236 . S
C76 O98 1.240 . S
C76 O99 1.264 . S
O77 Mn72 2.095 . S
O77 C86 1.250 . S
O78 Mn73 2.121 . S
O78 C86 1.258 . S
C79 N80 1.326 . S
C79 C83 1.460 . S
C79 H85 0.929 . S
N80 Mn73 2.257 . S
N80 C79 1.326 . S
N80 C84 1.362 . S
C81 C82 1.258 . S
C81 C84 1.431 . S
C81 C101 1.449 . S
C82 C81 1.258 . S
C82 C83 1.477 . S
C82 H102 0.931 . S
C83 C79 1.460 . S
C83 C82 1.477 . S
C83 H103 0.930 . S
C84 N80 1.362 . S
C84 C81 1.431 . S
C84 C94 1.476 . S
H85 C79 0.929 . S
C86 O77 1.250 . S
C86 O78 1.258 . S
O87 Mn72 2.162 . S
O87 C75 1.281 . S
O88 Mn72 2.297 . S
O88 C75 1.236 . S
N89 Mn73 2.282 . S
N89 C90 1.328 . S
N89 C94 1.318 . S
C90 N89 1.328 . S
C90 C91 1.457 . S
C90 H95 0.929 . S
C91 C90 1.457 . S
C91 C92 1.291 . S
C91 H104 0.931 . S
C92 C91 1.291 . S
C92 C93 1.373 . S
C92 H105 0.929 . S
C93 C92 1.373 . S
C93 C94 1.396 . S
C93 C100 1.403 . S
C94 C84 1.476 . S
C94 N89 1.318 . S
C94 C93 1.396 . S
H95 C90 0.929 . S
O96 Mn72 2.385 . S
O96 C74 1.234 . S
O97 Mn72 2.209 . S
O97 Mn73 2.215 . S
O97 C74 1.283 . S
O98 Mn72 2.094 . S
O98 C76 1.240 . S
O99 Mn73 2.117 . S
O99 C76 1.264 . S
C100 C93 1.403 . S
C100 C101 1.399 . S
C100 H106 0.929 . S
C101 C81 1.449 . S
C101 C100 1.399 . S
C101 H107 0.930 . S
H102 C82 0.931 . S
H103 C83 0.930 . S
H104 C91 0.931 . S
H105 C92 0.929 . S
H106 C100 0.929 . S
H107 C101 0.930 . S
Mn108 O113 2.095 . S
Mn108 O123 2.162 . S
Mn108 O124 2.297 . S
Mn108 O132 2.385 . S
Mn108 O133 2.209 . S
Mn108 O134 2.094 . S
Mn109 O114 2.121 . S
Mn109 N116 2.257 . S
Mn109 N125 2.282 . S
Mn109 O133 2.215 . S
Mn109 O135 2.117 . S
C110 O132 1.234 . S
C110 O133 1.283 . S
C111 O123 1.281 . S
C111 O124 1.236 . S
C112 O134 1.240 . S
C112 O135 1.264 . S
O113 Mn108 2.095 . S
O113 C122 1.250 . S
O114 Mn109 2.121 . S
O114 C122 1.258 . S
C115 N116 1.326 . S
C115 C119 1.460 . S
C115 H121 0.929 . S
N116 Mn109 2.257 . S
N116 C115 1.326 . S
N116 C120 1.362 . S
C117 C118 1.258 . S
C117 C120 1.431 . S
C117 C137 1.449 . S
C118 C117 1.258 . S
C118 C119 1.477 . S
C118 H138 0.931 . S
C119 C115 1.460 . S
C119 C118 1.477 . S
C119 H139 0.930 . S
C120 N116 1.362 . S
C120 C117 1.431 . S
C120 C130 1.476 . S
H121 C115 0.929 . S
C122 O113 1.250 . S
C122 O114 1.258 . S
O123 Mn108 2.162 . S
O123 C111 1.281 . S
O124 Mn108 2.297 . S
O124 C111 1.236 . S
N125 Mn109 2.282 . S
N125 C126 1.328 . S
N125 C130 1.318 . S
C126 N125 1.328 . S
C126 C127 1.457 . S
C126 H131 0.929 . S
C127 C126 1.457 . S
C127 C128 1.291 . S
C127 H140 0.931 . S
C128 C127 1.291 . S
C128 C129 1.373 . S
C128 H141 0.929 . S
C129 C128 1.373 . S
C129 C130 1.396 . S
C129 C136 1.403 . S
C130 C120 1.476 . S
C130 N125 1.318 . S
C130 C129 1.396 . S
H131 C126 0.929 . S
O132 Mn108 2.385 . S
O132 C110 1.234 . S
O133 Mn108 2.209 . S
O133 Mn109 2.215 . S
O133 C110 1.283 . S
O134 Mn108 2.094 . S
O134 C112 1.240 . S
O135 Mn109 2.117 . S
O135 C112 1.264 . S
C136 C129 1.403 . S
C136 C137 1.399 . S
C136 H142 0.929 . S
C137 C117 1.449 . S
C137 C136 1.399 . S
C137 H143 0.930 . S
H138 C118 0.931 . S
H139 C119 0.930 . S
H140 C127 0.931 . S
H141 C128 0.929 . S
H142 C136 0.929 . S
H143 C137 0.930 . S
Mn144 O149 2.095 . S
Mn144 O159 2.162 . S
Mn144 O160 2.297 . S
Mn144 O168 2.385 . S
Mn144 O169 2.209 . S
Mn144 O170 2.094 . S
Mn145 O150 2.121 . S
Mn145 N152 2.257 . S
Mn145 N161 2.282 . S
Mn145 O169 2.215 . S
Mn145 O171 2.117 . S
C146 O168 1.234 . S
C146 O169 1.283 . S
C147 O159 1.281 . S
C147 O160 1.236 . S
C148 O170 1.240 . S
C148 O171 1.264 . S
O149 Mn144 2.095 . S
O149 C158 1.250 . S
O150 Mn145 2.121 . S
O150 C158 1.258 . S
C151 N152 1.326 . S
C151 C155 1.460 . S
C151 H157 0.929 . S
N152 Mn145 2.257 . S
N152 C151 1.326 . S
N152 C156 1.362 . S
C153 C154 1.258 . S
C153 C156 1.431 . S
C153 C173 1.449 . S
C154 C153 1.258 . S
C154 C155 1.477 . S
C154 H174 0.931 . S
C155 C151 1.460 . S
C155 C154 1.477 . S
C155 H175 0.930 . S
C156 N152 1.362 . S
C156 C153 1.431 . S
C156 C166 1.476 . S
H157 C151 0.929 . S
C158 O149 1.250 . S
C158 O150 1.258 . S
O159 Mn144 2.162 . S
O159 C147 1.281 . S
O160 Mn144 2.297 . S
O160 C147 1.236 . S
N161 Mn145 2.282 . S
N161 C162 1.328 . S
N161 C166 1.318 . S
C162 N161 1.328 . S
C162 C163 1.457 . S
C162 H167 0.929 . S
C163 C162 1.457 . S
C163 C164 1.291 . S
C163 H176 0.931 . S
C164 C163 1.291 . S
C164 C165 1.373 . S
C164 H177 0.929 . S
C165 C164 1.373 . S
C165 C166 1.396 . S
C165 C172 1.403 . S
C166 C156 1.476 . S
C166 N161 1.318 . S
C166 C165 1.396 . S
H167 C162 0.929 . S
O168 Mn144 2.385 . S
O168 C146 1.234 . S
O169 Mn144 2.209 . S
O169 Mn145 2.215 . S
O169 C146 1.283 . S
O170 Mn144 2.094 . S
O170 C148 1.240 . S
O171 Mn145 2.117 . S
O171 C148 1.264 . S
C172 C165 1.403 . S
C172 C173 1.399 . S
C172 H178 0.929 . S
C173 C153 1.449 . S
C173 C172 1.399 . S
C173 H179 0.930 . S
H174 C154 0.931 . S
H175 C155 0.930 . S
H176 C163 0.931 . S
H177 C164 0.929 . S
H178 C172 0.929 . S
H179 C173 0.930 . S
Mn180 O185 2.095 . S
Mn180 O195 2.162 . S
Mn180 O196 2.297 . S
Mn180 O204 2.385 . S
Mn180 O205 2.209 . S
Mn180 O206 2.094 . S
Mn181 O186 2.121 . S
Mn181 N188 2.257 . S
Mn181 N197 2.282 . S
Mn181 O205 2.215 . S
Mn181 O207 2.117 . S
C182 O204 1.234 . S
C182 O205 1.283 . S
C183 O195 1.281 . S
C183 O196 1.236 . S
C184 O206 1.240 . S
C184 O207 1.264 . S
O185 Mn180 2.095 . S
O185 C194 1.250 . S
O186 Mn181 2.121 . S
O186 C194 1.258 . S
C187 N188 1.326 . S
C187 C191 1.460 . S
C187 H193 0.929 . S
N188 Mn181 2.257 . S
N188 C187 1.326 . S
N188 C192 1.362 . S
C189 C190 1.258 . S
C189 C192 1.431 . S
C189 C209 1.449 . S
C190 C189 1.258 . S
C190 C191 1.477 . S
C190 H210 0.931 . S
C191 C187 1.460 . S
C191 C190 1.477 . S
C191 H211 0.930 . S
C192 N188 1.362 . S
C192 C189 1.431 . S
C192 C202 1.476 . S
H193 C187 0.929 . S
C194 O185 1.250 . S
C194 O186 1.258 . S
O195 Mn180 2.162 . S
O195 C183 1.281 . S
O196 Mn180 2.297 . S
O196 C183 1.236 . S
N197 Mn181 2.282 . S
N197 C198 1.328 . S
N197 C202 1.318 . S
C198 N197 1.328 . S
C198 C199 1.457 . S
C198 H203 0.929 . S
C199 C198 1.457 . S
C199 C200 1.291 . S
C199 H212 0.931 . S
C200 C199 1.291 . S
C200 C201 1.373 . S
C200 H213 0.929 . S
C201 C200 1.373 . S
C201 C202 1.396 . S
C201 C208 1.403 . S
C202 C192 1.476 . S
C202 N197 1.318 . S
C202 C201 1.396 . S
H203 C198 0.929 . S
O204 Mn180 2.385 . S
O204 C182 1.234 . S
O205 Mn180 2.209 . S
O205 Mn181 2.215 . S
O205 C182 1.283 . S
O206 Mn180 2.094 . S
O206 C184 1.240 . S
O207 Mn181 2.117 . S
O207 C184 1.264 . S
C208 C201 1.403 . S
C208 C209 1.399 . S
C208 H214 0.929 . S
C209 C189 1.449 . S
C209 C208 1.399 . S
C209 H215 0.930 . S
H210 C190 0.931 . S
H211 C191 0.930 . S
H212 C199 0.931 . S
H213 C200 0.929 . S
H214 C208 0.929 . S
H215 C209 0.930 . S
C216 C217 1.349 . S
C216 C218 1.327 . S
C216 H241 0.950 . S
C217 C216 1.349 . S
C217 C233 1.349 . S
C218 C216 1.327 . S
C218 C237 1.429 . S
C218 H242 0.950 . S
C219 C236 1.574 . S
C219 C238 1.368 1_655 S
C219 H243 0.949 . S
H220 C224 0.949 . S
C221 C222 1.349 . S
C221 C223 1.327 . S
C221 H244 0.950 . S
C222 C221 1.349 . S
C222 C234 1.349 . S
C223 C221 1.327 . S
C223 C239 1.429 . S
C223 H245 0.950 . S
C224 H220 0.949 . S
C224 C232 1.574 . S
C224 C240 1.368 1_455 S
H225 C233 0.950 1_554 S
H226 C231 0.950 . S
H227 C232 0.949 . S
H228 C234 0.950 . S
H229 C235 0.950 . S
H230 C236 0.949 . S
C231 H226 0.950 . S
C231 C233 1.327 . S
C231 C237 1.429 . S
C232 C224 1.574 . S
C232 H227 0.949 . S
C232 C238 1.368 . S
C233 C217 1.349 . S
C233 H225 0.950 1_556 S
C233 C231 1.327 . S
C234 C222 1.349 . S
C234 H228 0.950 . S
C234 C235 1.327 . S
C235 H229 0.950 . S
C235 C234 1.327 . S
C235 C239 1.429 . S
C236 C219 1.574 . S
C236 H230 0.949 . S
C236 C240 1.368 . S
C237 C218 1.429 . S
C237 C231 1.429 . S
C237 C238 1.523 . S
C238 C219 1.368 1_455 S
C238 C232 1.368 . S
C238 C237 1.523 . S
C239 C223 1.429 . S
C239 C235 1.429 . S
C239 C240 1.523 . S
C240 C224 1.368 1_655 S
C240 C236 1.368 . S
C240 C239 1.523 . S
H241 C216 0.950 . S
H242 C218 0.950 . S
H243 C219 0.949 . S
H244 C221 0.950 . S
H245 C223 0.950 . S
C246 C247 1.349 . S
C246 C248 1.327 . S
C246 H271 0.950 . S
C247 C246 1.349 . S
C247 C263 1.349 . S
C248 C246 1.327 . S
C248 C267 1.429 . S
C248 H272 0.950 . S
C249 C266 1.579 . S
C249 C268 1.362 1_554 S
C249 H273 0.950 . S
H250 C254 0.949 . S
C251 C252 1.349 . S
C251 C253 1.327 . S
C251 H274 0.950 . S
C252 C251 1.349 . S
C252 C264 1.349 . S
C253 C251 1.327 . S
C253 C269 1.429 . S
C253 H275 0.950 . S
C254 H250 0.949 . S
C254 C262 1.574 . S
C254 C270 1.368 1_556 S
H255 C263 0.950 . S
H256 C261 0.950 . S
H257 C262 0.949 . S
H258 C264 0.950 . S
H259 C265 0.950 . S
H260 C266 0.949 . S
C261 H256 0.950 . S
C261 C263 1.327 . S
C261 C267 1.429 . S
C262 C254 1.574 . S
C262 H257 0.949 . S
C262 C268 1.368 1_545 S
C263 C247 1.349 . S
C263 H255 0.950 . S
C263 C261 1.327 . S
C264 C252 1.349 . S
C264 H258 0.950 . S
C264 C265 1.327 . S
C265 H259 0.950 . S
C265 C264 1.327 . S
C265 C269 1.429 . S
C266 C249 1.579 . S
C266 H260 0.949 . S
C266 C270 1.368 1_565 S
C267 C248 1.429 . S
C267 C261 1.429 . S
C267 C268 1.523 . S
C268 C249 1.362 1_556 S
C268 C262 1.368 1_565 S
C268 C267 1.523 . S
C269 C253 1.429 . S
C269 C265 1.429 . S
C269 C270 1.523 . S
C270 C254 1.368 1_554 S
C270 C266 1.368 1_545 S
C270 C269 1.523 . S
H271 C246 0.950 . S
H272 C248 0.950 . S
H273 C249 0.950 . S
H274 C251 0.950 . S
H275 C253 0.950 . S
C276 C277 1.349 . S
C276 C278 1.327 . S
C276 H301 0.950 . S
C277 C276 1.349 . S
C277 C293 1.349 . S
C278 C276 1.327 . S
C278 C297 1.429 . S
C278 H302 0.950 . S
C279 C296 1.574 . S
C279 C298 1.368 . S
C279 H303 0.949 . S
H280 C284 0.949 . S
C281 C282 1.349 . S
C281 C283 1.327 . S
C281 H304 0.950 1_554 S
C282 C281 1.349 . S
C282 C294 1.349 . S
C283 C281 1.327 . S
C283 C299 1.429 . S
C283 H305 0.950 . S
C284 H280 0.949 . S
C284 C292 1.574 . S
C284 C300 1.368 . S
H285 C293 0.950 . S
H286 C291 0.950 . S
H287 C292 0.949 . S
H288 C294 0.950 . S
H289 C295 0.950 . S
H290 C296 0.949 . S
C291 H286 0.950 . S
C291 C293 1.327 . S
C291 C297 1.429 . S
C292 C284 1.574 . S
C292 H287 0.949 . S
C292 C298 1.368 . S
C293 C277 1.349 . S
C293 H285 0.950 . S
C293 C291 1.327 . S
C294 C282 1.349 . S
C294 H288 0.950 . S
C294 C295 1.327 . S
C295 H289 0.950 . S
C295 C294 1.327 . S
C295 C299 1.429 . S
C296 C279 1.574 . S
C296 H290 0.949 . S
C296 C300 1.368 . S
C297 C278 1.429 . S
C297 C291 1.429 . S
C297 C298 1.523 . S
C298 C279 1.368 . S
C298 C292 1.368 . S
C298 C297 1.523 . S
C299 C283 1.429 . S
C299 C295 1.429 . S
C299 C300 1.523 . S
C300 C284 1.368 . S
C300 C296 1.368 . S
C300 C299 1.523 . S
H301 C276 0.950 . S
H302 C278 0.950 . S
H303 C279 0.949 . S
H304 C281 0.950 1_556 S
H305 C283 0.950 . S
C306 C307 1.349 . S
C306 C308 1.327 . S
C306 H331 0.950 . S
C307 C306 1.349 . S
C307 C323 1.349 . S
C308 C306 1.327 . S
C308 C327 1.429 . S
C308 H332 0.950 . S
C309 C326 1.574 . S
C309 C328 1.368 1_455 S
C309 H333 0.949 . S
H310 C314 0.949 . S
C311 C312 1.349 . S
C311 C313 1.327 . S
C311 H334 0.950 . S
C312 C311 1.349 . S
C312 C324 1.349 . S
C313 C311 1.327 . S
C313 C329 1.429 . S
C313 H335 0.950 . S
C314 H310 0.949 . S
C314 C322 1.574 . S
C314 C330 1.368 1_655 S
H315 C323 0.950 . S
H316 C321 0.950 . S
H317 C322 0.949 . S
H318 C324 0.950 . S
H319 C325 0.950 . S
H320 C326 0.949 . S
C321 H316 0.950 . S
C321 C323 1.327 . S
C321 C327 1.429 . S
C322 C314 1.574 . S
C322 H317 0.949 . S
C322 C328 1.368 . S
C323 C307 1.349 . S
C323 H315 0.950 . S
C323 C321 1.327 . S
C324 C312 1.349 . S
C324 H318 0.950 . S
C324 C325 1.327 . S
C325 H319 0.950 . S
C325 C324 1.327 . S
C325 C329 1.429 . S
C326 C309 1.574 . S
C326 H320 0.949 . S
C326 C330 1.368 . S
C327 C308 1.429 . S
C327 C321 1.429 . S
C327 C328 1.523 . S
C328 C309 1.368 1_655 S
C328 C322 1.368 . S
C328 C327 1.523 . S
C329 C313 1.429 . S
C329 C325 1.429 . S
C329 C330 1.523 . S
C330 C314 1.368 1_455 S
C330 C326 1.368 . S
C330 C329 1.523 . S
H331 C306 0.950 . S
H332 C308 0.950 . S
H333 C309 0.949 . S
H334 C311 0.950 . S
H335 C313 0.950 . S
C336 C337 1.349 . S
C336 C338 1.327 . S
C336 H361 0.950 . S
C337 C336 1.349 . S
C337 C353 1.349 . S
C338 C336 1.327 . S
C338 C357 1.429 . S
C338 H362 0.950 . S
C339 C356 1.574 . S
C339 C358 1.368 1_565 S
C339 H363 0.949 . S
H340 C344 0.949 . S
C341 C342 1.349 . S
C341 C343 1.327 . S
C341 H364 0.950 . S
C342 C341 1.349 . S
C342 C354 1.349 . S
C343 C341 1.327 . S
C343 C359 1.429 . S
C343 H365 0.950 . S
C344 H340 0.949 . S
C344 C352 1.574 . S
C344 C360 1.368 1_545 S
H345 C353 0.950 . S
H346 C351 0.950 . S
H347 C352 0.949 . S
H348 C354 0.950 . S
H349 C355 0.950 . S
H350 C356 0.949 . S
C351 H346 0.950 . S
C351 C353 1.327 . S
C351 C357 1.429 . S
C352 C344 1.574 . S
C352 H347 0.949 . S
C352 C358 1.368 . S
C353 C337 1.349 . S
C353 H345 0.950 . S
C353 C351 1.327 . S
C354 C342 1.349 . S
C354 H348 0.950 . S
C354 C355 1.327 . S
C355 H349 0.950 . S
C355 C354 1.327 . S
C355 C359 1.429 . S
C356 C339 1.574 . S
C356 H350 0.949 . S
C356 C360 1.368 . S
C357 C338 1.429 . S
C357 C351 1.429 . S
C357 C358 1.523 . S
C358 C339 1.368 1_545 S
C358 C352 1.368 . S
C358 C357 1.523 . S
C359 C343 1.429 . S
C359 C355 1.429 . S
C359 C360 1.523 . S
C360 C344 1.368 1_565 S
C360 C356 1.368 . S
C360 C359 1.523 . S
H361 C336 0.950 . S
H362 C338 0.950 . S
H363 C339 0.949 . S
H364 C341 0.950 . S
H365 C343 0.950 . S
C366 C367 1.349 . S
C366 C368 1.327 . S
C366 H391 0.950 . S
C367 C366 1.349 . S
C367 C383 1.349 . S
C368 C366 1.327 . S
C368 C387 1.429 . S
C368 H392 0.950 . S
C369 C386 1.574 . S
C369 C388 1.368 . S
C369 H393 0.949 . S
H370 C374 0.949 . S
C371 C372 1.349 . S
C371 C373 1.327 . S
C371 H394 0.950 . S
C372 C371 1.349 . S
C372 C384 1.349 . S
C373 C371 1.327 . S
C373 C389 1.429 . S
C373 H395 0.950 . S
C374 H370 0.949 . S
C374 C382 1.574 . S
C374 C390 1.368 . S
H375 C383 0.950 . S
H376 C381 0.950 . S
H377 C382 0.949 . S
H378 C384 0.950 . S
H379 C385 0.950 . S
H380 C386 0.949 . S
C381 H376 0.950 . S
C381 C383 1.327 . S
C381 C387 1.429 . S
C382 C374 1.574 . S
C382 H377 0.949 . S
C382 C388 1.368 . S
C383 C367 1.349 . S
C383 H375 0.950 . S
C383 C381 1.327 . S
C384 C372 1.349 . S
C384 H378 0.950 . S
C384 C385 1.327 . S
C385 H379 0.950 . S
C385 C384 1.327 . S
C385 C389 1.429 . S
C386 C369 1.574 . S
C386 H380 0.949 . S
C386 C390 1.368 . S
C387 C368 1.429 . S
C387 C381 1.429 . S
C387 C388 1.523 . S
C388 C369 1.368 . S
C388 C382 1.368 . S
C388 C387 1.523 . S
C389 C373 1.429 . S
C389 C385 1.429 . S
C389 C390 1.523 . S
C390 C374 1.368 . S
C390 C386 1.368 . S
C390 C389 1.523 . S
H391 C366 0.950 . S
H392 C368 0.950 . S
H393 C369 0.949 . S
H394 C371 0.950 . S
H395 C373 0.950 . S
C396 C397 1.349 . S
C396 C398 1.327 . S
C396 H421 0.950 . S
C397 C396 1.349 . S
C397 C413 1.349 . S
C398 C396 1.327 . S
C398 C417 1.429 . S
C398 H422 0.950 . S
C399 C416 1.574 . S
C399 C418 1.368 . S
C399 H423 0.949 . S
H400 C404 0.949 . S
C401 C402 1.349 . S
C401 C403 1.327 . S
C401 H424 0.950 . S
C402 C401 1.349 . S
C402 C414 1.349 . S
C403 C401 1.327 . S
C403 C419 1.429 . S
C403 H425 0.950 . S
C404 H400 0.949 . S
C404 C412 1.574 . S
C404 C420 1.368 . S
H405 C413 0.950 . S
H406 C411 0.950 . S
H407 C412 0.949 . S
H408 C414 0.950 . S
H409 C415 0.950 . S
H410 C416 0.949 . S
C411 H406 0.950 . S
C411 C413 1.327 . S
C411 C417 1.429 . S
C412 C404 1.574 . S
C412 H407 0.949 . S
C412 C418 1.368 . S
C413 C397 1.349 . S
C413 H405 0.950 . S
C413 C411 1.327 . S
C414 C402 1.349 . S
C414 H408 0.950 . S
C414 C415 1.327 . S
C415 H409 0.950 . S
C415 C414 1.327 . S
C415 C419 1.429 . S
C416 C399 1.574 . S
C416 H410 0.949 . S
C416 C420 1.368 . S
C417 C398 1.429 . S
C417 C411 1.429 . S
C417 C418 1.523 . S
C418 C399 1.368 . S
C418 C412 1.368 . S
C418 C417 1.523 . S
C419 C403 1.429 . S
C419 C415 1.429 . S
C419 C420 1.523 . S
C420 C404 1.368 . S
C420 C416 1.368 . S
C420 C419 1.523 . S
H421 C396 0.950 . S
H422 C398 0.950 . S
H423 C399 0.949 . S
H424 C401 0.950 . S
H425 C403 0.950 . S
C426 C427 1.349 . S
C426 C428 1.327 . S
C426 H451 0.950 . S
C427 C426 1.349 . S
C427 C443 1.349 . S
C428 C426 1.327 . S
C428 C447 1.429 . S
C428 H452 0.950 . S
C429 C446 1.574 . S
C429 C448 1.368 . S
C429 H453 0.949 . S
H430 C434 0.949 . S
C431 C432 1.349 . S
C431 C433 1.327 . S
C431 H454 0.950 . S
C432 C431 1.349 . S
C432 C444 1.349 . S
C433 C431 1.327 . S
C433 C449 1.429 . S
C433 H455 0.950 . S
C434 H430 0.949 . S
C434 C442 1.574 . S
C434 C450 1.368 . S
H435 C443 0.950 . S
H436 C441 0.950 . S
H437 C442 0.949 . S
H438 C444 0.950 . S
H439 C445 0.950 . S
H440 C446 0.949 . S
C441 H436 0.950 . S
C441 C443 1.327 . S
C441 C447 1.429 . S
C442 C434 1.574 . S
C442 H437 0.949 . S
C442 C448 1.368 . S
C443 C427 1.349 . S
C443 H435 0.950 . S
C443 C441 1.327 . S
C444 C432 1.349 . S
C444 H438 0.950 . S
C444 C445 1.327 . S
C445 H439 0.950 . S
C445 C444 1.327 . S
C445 C449 1.429 . S
C446 C429 1.574 . S
C446 H440 0.949 . S
C446 C450 1.368 . S
C447 C428 1.429 . S
C447 C441 1.429 . S
C447 C448 1.523 . S
C448 C429 1.368 . S
C448 C442 1.368 . S
C448 C447 1.523 . S
C449 C433 1.429 . S
C449 C445 1.429 . S
C449 C450 1.523 . S
C450 C434 1.368 . S
C450 C446 1.368 . S
C450 C449 1.523 . S
H451 C426 0.950 . S
H452 C428 0.950 . S
H453 C429 0.949 . S
H454 C431 0.950 . S
H455 C433 0.950 . S
C456 C457 1.349 . S
C456 C458 1.327 . S
C456 H481 0.950 . S
C457 C456 1.349 . S
C457 C473 1.349 . S
C458 C456 1.327 . S
C458 C477 1.429 . S
C458 H482 0.950 . S
C459 C476 1.574 . S
C459 C478 1.368 . S
C459 H483 0.949 . S
H460 C464 0.949 . S
C461 C462 1.349 . S
C461 C463 1.327 . S
C461 H484 0.950 . S
C462 C461 1.349 . S
C462 C474 1.349 . S
C463 C461 1.327 . S
C463 C479 1.429 . S
C463 H485 0.950 . S
C464 H460 0.949 . S
C464 C472 1.574 . S
C464 C480 1.368 . S
H465 C473 0.950 . S
H466 C471 0.950 . S
H467 C472 0.949 . S
H468 C474 0.950 . S
H469 C475 0.950 . S
H470 C476 0.949 . S
C471 H466 0.950 . S
C471 C473 1.327 . S
C471 C477 1.429 . S
C472 C464 1.574 . S
C472 H467 0.949 . S
C472 C478 1.368 . S
C473 C457 1.349 . S
C473 H465 0.950 . S
C473 C471 1.327 . S
C474 C462 1.349 . S
C474 H468 0.950 . S
C474 C475 1.327 . S
C475 H469 0.950 . S
C475 C474 1.327 . S
C475 C479 1.429 . S
C476 C459 1.574 . S
C476 H470 0.949 . S
C476 C480 1.368 . S
C477 C458 1.429 . S
C477 C471 1.429 . S
C477 C478 1.523 . S
C478 C459 1.368 . S
C478 C472 1.368 . S
C478 C477 1.523 . S
C479 C463 1.429 . S
C479 C475 1.429 . S
C479 C480 1.523 . S
C480 C464 1.368 . S
C480 C476 1.368 . S
C480 C479 1.523 . S
H481 C456 0.950 . S
H482 C458 0.950 . S
H483 C459 0.949 . S
H484 C461 0.950 . S
H485 C463 0.950 . S
C486 C487 1.349 . S
C486 C488 1.327 . S
C486 H511 0.950 . S
C487 C486 1.349 . S
C487 C503 1.349 . S
C488 C486 1.327 . S
C488 C507 1.429 . S
C488 H512 0.950 . S
C489 C506 1.574 . S
C489 C508 1.368 . S
C489 H513 0.949 . S
H490 C494 0.949 . S
C491 C492 1.349 . S
C491 C493 1.327 . S
C491 H514 0.950 . S
C492 C491 1.349 . S
C492 C504 1.349 . S
C493 C491 1.327 . S
C493 C509 1.429 . S
C493 H515 0.950 . S
C494 H490 0.949 . S
C494 C502 1.574 . S
C494 C510 1.368 . S
H495 C503 0.950 . S
H496 C501 0.950 . S
H497 C502 0.949 . S
H498 C504 0.950 . S
H499 C505 0.950 . S
H500 C506 0.949 . S
C501 H496 0.950 . S
C501 C503 1.327 . S
C501 C507 1.429 . S
C502 C494 1.574 . S
C502 H497 0.949 . S
C502 C508 1.368 . S
C503 C487 1.349 . S
C503 H495 0.950 . S
C503 C501 1.327 . S
C504 C492 1.349 . S
C504 H498 0.950 . S
C504 C505 1.327 . S
C505 H499 0.950 . S
C505 C504 1.327 . S
C505 C509 1.429 . S
C506 C489 1.574 . S
C506 H500 0.949 . S
C506 C510 1.368 . S
C507 C488 1.429 . S
C507 C501 1.429 . S
C507 C508 1.523 . S
C508 C489 1.368 . S
C508 C502 1.368 . S
C508 C507 1.523 . S
C509 C493 1.429 . S
C509 C505 1.429 . S
C509 C510 1.523 . S
C510 C494 1.368 . S
C510 C506 1.368 . S
C510 C509 1.523 . S
H511 C486 0.950 . S
H512 C488 0.950 . S
H513 C489 0.949 . S
H514 C491 0.950 . S
H515 C493 0.950 . S
C516 C517 1.349 . S
C516 C518 1.327 . S
C516 H541 0.950 . S
C517 C516 1.349 . S
C517 C533 1.349 . S
C518 C516 1.327 . S
C518 C537 1.429 . S
C518 H542 0.950 . S
C519 C536 1.574 . S
C519 C538 1.368 . S
C519 H543 0.949 . S
H520 C524 0.949 . S
C521 C522 1.349 . S
C521 C523 1.327 . S
C521 H544 0.950 . S
C522 C521 1.349 . S
C522 C534 1.349 1_554 S
C523 C521 1.327 . S
C523 C539 1.429 1_554 S
C523 H545 0.950 . S
C524 H520 0.949 . S
C524 C532 1.574 . S
C524 C540 1.368 . S
H525 C533 0.950 . S
H526 C531 0.950 . S
H527 C532 0.949 . S
H528 C534 0.950 . S
H529 C535 0.950 . S
H530 C536 0.949 . S
C531 H526 0.950 . S
C531 C533 1.327 . S
C531 C537 1.429 . S
C532 C524 1.574 . S
C532 H527 0.949 . S
C532 C538 1.368 . S
C533 C517 1.349 . S
C533 H525 0.950 . S
C533 C531 1.327 . S
C534 C522 1.349 1_556 S
C534 H528 0.950 . S
C534 C535 1.327 . S
C535 H529 0.950 . S
C535 C534 1.327 . S
C535 C539 1.429 . S
C536 C519 1.574 . S
C536 H530 0.949 . S
C536 C540 1.368 . S
C537 C518 1.429 . S
C537 C531 1.429 . S
C537 C538 1.523 . S
C538 C519 1.368 . S
C538 C532 1.368 . S
C538 C537 1.523 . S
C539 C523 1.429 1_556 S
C539 C535 1.429 . S
C539 C540 1.523 . S
C540 C524 1.368 . S
C540 C536 1.368 . S
C540 C539 1.523 . S
H541 C516 0.950 . S
H542 C518 0.950 . S
H543 C519 0.949 . S
H544 C521 0.950 . S
H545 C523 0.950 . S
C546 C547 1.349 1_554 S
C546 C548 1.327 . S
C546 H571 0.950 . S
C547 C546 1.349 1_556 S
C547 C563 1.349 . S
C548 C546 1.327 . S
C548 C567 1.429 . S
C548 H572 0.950 . S
C549 C566 1.574 . S
C549 C568 1.368 . S
C549 H573 0.949 . S
H550 C554 0.949 . S
C551 C552 1.349 . S
C551 C553 1.327 . S
C551 H574 0.950 . S
C552 C551 1.349 . S
C552 C564 1.349 . S
C553 C551 1.327 . S
C553 C569 1.429 . S
C553 H575 0.950 . S
C554 H550 0.949 . S
C554 C562 1.574 . S
C554 C570 1.368 . S
H555 C563 0.950 . S
H556 C561 0.950 . S
H557 C562 0.949 . S
H558 C564 0.950 . S
H559 C565 0.950 . S
H560 C566 0.949 . S
C561 H556 0.950 . S
C561 C563 1.327 . S
C561 C567 1.429 1_556 S
C562 C554 1.574 . S
C562 H557 0.949 . S
C562 C568 1.368 . S
C563 C547 1.349 . S
C563 H555 0.950 . S
C563 C561 1.327 . S
C564 C552 1.349 . S
C564 H558 0.950 . S
C564 C565 1.327 . S
C565 H559 0.950 . S
C565 C564 1.327 . S
C565 C569 1.429 . S
C566 C549 1.574 . S
C566 H560 0.949 . S
C566 C570 1.368 . S
C567 C548 1.429 . S
C567 C561 1.429 1_554 S
C567 C568 1.523 . S
C568 C549 1.368 . S
C568 C562 1.368 . S
C568 C567 1.523 . S
C569 C553 1.429 . S
C569 C565 1.429 . S
C569 C570 1.523 . S
C570 C554 1.368 . S
C570 C566 1.368 . S
C570 C569 1.523 . S
H571 C546 0.950 . S
H572 C548 0.950 . S
H573 C549 0.949 . S
H574 C551 0.950 . S
H575 C553 0.950 . S
C217 C4 1.149 1_556 S
C222 C122 1.149 . S
C247 C158 1.149 . S
C252 C40 1.150 . S
C277 C76 1.150 . S
C282 C194 1.150 1_554 S
C307 C112 1.149 . S
C312 C14 1.149 . S
C337 C50 1.149 . S
C342 C148 1.150 . S
C367 C184 1.150 . S
C372 C86 1.150 . S
C397 C3 1.148 . S
C402 C74 1.130 . S
C427 C39 1.148 . S
C432 C110 1.129 . S
C457 C146 1.130 . S
C462 C75 1.148 . S
C487 C182 1.130 . S
C492 C111 1.148 . S
C517 C147 1.148 . S
C522 C2 1.129 . S
C547 C183 1.148 . S
C552 C38 1.130 . S
