# Generated by pormake.
# Topology smc, (6)-cn, num edge types: 1
# Building blocks:
#     Node 0, Type 0, BuildingBlock: VOLQOD_clean_sbu_1, # of connection points: 6
#     Node 1, Type 0, BuildingBlock: VOLQOD_clean_sbu_1, # of connection points: 6
#     Node 2, Type 0, BuildingBlock: VOLQOD_clean_sbu_1, # of connection points: 6
#     Node 3, Type 0, BuildingBlock: VOLQOD_clean_sbu_1, # of connection points: 6
#     Node 4, Type 0, BuildingBlock: VOLQOD_clean_sbu_1, # of connection points: 6
#     Node 5, Type 0, BuildingBlock: VOLQOD_clean_sbu_1, # of connection points: 6
#     Node 6, Type 0, BuildingBlock: VOLQOD_clean_sbu_1, # of connection points: 6
#     Node 7, Type 0, BuildingBlock: VOLQOD_clean_sbu_1, # of connection points: 6
#     Node 8, Type 0, BuildingBlock: VOLQOD_clean_sbu_1, # of connection points: 6
#     Edge 9, Type (0, 0), BuildingBlock: XUDNAN_clean_linker_2, # of connection points: 2
#     Edge 10, Type (0, 0), BuildingBlock: XUDNAN_clean_linker_2, # of connection points: 2
#     Edge 11, Type (0, 0), BuildingBlock: XUDNAN_clean_linker_2, # of connection points: 2
#     Edge 12, Type (0, 0), BuildingBlock: XUDNAN_clean_linker_2, # of connection points: 2
#     Edge 13, Type (0, 0), BuildingBlock: XUDNAN_clean_linker_2, # of connection points: 2
#     Edge 14, Type (0, 0), BuildingBlock: XUDNAN_clean_linker_2, # of connection points: 2
#     Edge 15, Type (0, 0), BuildingBlock: XUDNAN_clean_linker_2, # of connection points: 2
#     Edge 16, Type (0, 0), BuildingBlock: XUDNAN_clean_linker_2, # of connection points: 2
#     Edge 17, Type (0, 0), BuildingBlock: XUDNAN_clean_linker_2, # of connection points: 2
#     Edge 18, Type (0, 0), BuildingBlock: XUDNAN_clean_linker_2, # of connection points: 2
#     Edge 19, Type (0, 0), BuildingBlock: XUDNAN_clean_linker_2, # of connection points: 2
#     Edge 20, Type (0, 0), BuildingBlock: XUDNAN_clean_linker_2, # of connection points: 2
#     Edge 21, Type (0, 0), BuildingBlock: XUDNAN_clean_linker_2, # of connection points: 2
#     Edge 22, Type (0, 0), BuildingBlock: XUDNAN_clean_linker_2, # of connection points: 2
#     Edge 23, Type (0, 0), BuildingBlock: XUDNAN_clean_linker_2, # of connection points: 2
#     Edge 24, Type (0, 0), BuildingBlock: XUDNAN_clean_linker_2, # of connection points: 2
#     Edge 25, Type (0, 0), BuildingBlock: XUDNAN_clean_linker_2, # of connection points: 2
#     Edge 26, Type (0, 0), BuildingBlock: XUDNAN_clean_linker_2, # of connection points: 2
#     Edge 27, Type (0, 0), BuildingBlock: XUDNAN_clean_linker_2, # of connection points: 2
#     Edge 28, Type (0, 0), BuildingBlock: XUDNAN_clean_linker_2, # of connection points: 2
#     Edge 29, Type (0, 0), BuildingBlock: XUDNAN_clean_linker_2, # of connection points: 2
#     Edge 30, Type (0, 0), BuildingBlock: XUDNAN_clean_linker_2, # of connection points: 2
#     Edge 31, Type (0, 0), BuildingBlock: XUDNAN_clean_linker_2, # of connection points: 2
#     Edge 32, Type (0, 0), BuildingBlock: XUDNAN_clean_linker_2, # of connection points: 2
#     Edge 33, Type (0, 0), BuildingBlock: XUDNAN_clean_linker_2, # of connection points: 2
#     Edge 34, Type (0, 0), BuildingBlock: XUDNAN_clean_linker_2, # of connection points: 2
#     Edge 35, Type (0, 0), BuildingBlock: XUDNAN_clean_linker_2, # of connection points: 2
# Relax obj value: 0.338
# Max RMSD: 0.273
# Mean RMSD: 0.261
data_MOF--net-smc--node1-VOLQOD_clean_sbu_1--edge1-XUDNAN_clean_linker_2
_symmetry_space_group_name_H-M    P1
_symmetry_Int_Tables_number       1
_symmetry_cell_setting            triclinic
loop_
_symmetry_equiv_pos_as_xyz
'x, y, z'
_cell_length_a     30.84224
_cell_length_b     31.074774
_cell_length_c     48.461175
_cell_angle_alpha  89.765768
_cell_angle_beta   90.509262
_cell_angle_gamma 120.60511
loop_
_atom_site_label
_atom_site_type_symbol
_atom_site_fract_x
_atom_site_fract_y
_atom_site_fract_z
_atom_type_partial_charge
O0 O 0.92329 0.47742 0.01404 0.0
Zn1 Zn 0.97079 0.45827 0.9987 0.0
O2 O -0.01318 0.42285 0.02612 0.0
Zn3 Zn 0.97939 0.36305 0.00792 0.0
Zn4 Zn 0.94265 0.40647 0.05734 0.0
Zn5 Zn 0.0544 0.46631 0.04044 0.0
O6 O 0.04657 0.36694 0.00566 0.0
O7 O 0.09625 0.4394 0.02701 0.0
O8 O 0.94149 0.41965 0.96362 0.0
O9 O 0.95304 0.3553 0.96856 0.0
O10 O 0.92782 0.30153 0.02811 0.0
O11 O 0.89846 0.33294 0.05918 0.0
O12 O 0.97924 0.42767 0.09335 0.0
O13 O 0.03185 0.52281 0.98923 0.0
O14 O 0.06008 0.46868 0.08244 0.0
O15 O 0.08292 0.5363 0.02506 0.0
C16 C 0.8996 0.46849 0.03664 0.0
C17 C 0.0898 0.40086 0.01419 0.0
C18 C 0.89782 0.29597 0.04756 0.0
C19 C 0.93841 0.38003 0.9542 0.0
C20 C 0.02537 0.45147 0.1004 0.0
C21 C 0.07141 0.5512 1.00311 0.0
O22 O 0.90241 0.44064 0.05502 0.0
O23 O 0.52059 0.47362 0.9841 0.0
Zn24 Zn 0.53533 0.54025 0.96911 0.0
O25 O 0.57105 0.5916 0.99686 0.0
Zn26 Zn 0.63765 0.64085 0.98435 0.0
Zn27 Zn 0.57226 0.56124 0.03117 0.0
Zn28 Zn 0.53448 0.62415 0.0041 0.0
O29 O 0.64496 0.7102 0.9833 0.0
O30 O 0.56345 0.68611 0.98209 0.0
O31 O 0.57379 0.55689 0.93328 0.0
O32 O 0.64682 0.62395 0.94536 0.0
O33 O 0.69003 0.63692 0.00811 0.0
O34 O 0.64187 0.57583 0.03744 0.0
O35 O 0.55704 0.59052 0.06389 0.0
O36 O 0.46563 0.52809 0.96259 0.0
O37 O 0.53833 0.64352 0.04431 0.0
O38 O 0.46287 0.57825 0.99415 0.0
C39 C 0.51197 0.4573 0.00884 0.0
C40 C 0.6095 0.71927 0.9787 0.0
C41 C 0.68487 0.60746 0.02791 0.0
C42 C 0.61863 0.5911 0.92763 0.0
C43 C 0.54635 0.62487 0.06584 0.0
C44 C 0.44115 0.54299 0.97665 0.0
O45 O 0.52562 0.48689 0.02943 0.0
O46 O 0.48505 0.95398 0.02033 0.0
Zn47 Zn 0.45498 -0.00678 0.03474 0.0
O48 O 0.42176 0.00654 0.00479 0.0
Zn49 Zn 0.35832 -0.00337 0.01825 0.0
Zn50 Zn 0.41234 0.96483 0.97343 0.0
Zn51 Zn 0.46715 0.07336 0.99243 0.0
O52 O 0.35881 0.06248 0.01648 0.0
O53 O 0.43835 0.11472 1.00363 0.0
O54 O 0.41121 0.96192 0.06791 0.0
O55 O 0.34714 0.97309 0.05787 0.0
O56 O 0.30101 0.9384 0.99793 0.0
O57 O 0.34125 0.90932 0.97299 0.0
O58 O 0.42359 0.00181 0.93751 0.0
O59 O 0.51491 0.05541 0.04808 0.0
O60 O 0.47234 0.08023 0.95108 0.0
O61 O 0.5359 0.09874 0.00906 0.0
C62 C 0.48653 0.93758 0.99652 0.0
C63 C 0.39536 0.10642 0.01129 0.0
C64 C 0.30089 0.90545 0.98222 0.0
C65 C 0.36995 0.95912 0.07436 0.0
C66 C 0.45023 0.04819 0.932 0.0
C67 C 0.54731 0.0901 0.03295 0.0
O68 O 0.46071 0.93926 0.97627 0.0
O69 O 0.59027 0.8227 0.32349 0.0
Zn70 Zn 0.64346 0.81501 0.30535 0.0
O71 O 0.66269 0.77722 0.32923 0.0
Zn72 Zn 0.65447 0.71934 0.30937 0.0
Zn73 Zn 0.62712 0.76146 0.36374 0.0
Zn74 Zn 0.73106 0.81893 0.33949 0.0
O75 O 0.72253 0.72529 0.30304 0.0
O76 O 0.77214 0.80545 0.31421 0.0
O77 O 0.61957 0.78374 0.26775 0.0
O78 O 0.62559 0.71574 0.27122 0.0
O79 O 0.60432 0.65687 0.32965 0.0
O80 O 0.58012 0.68809 0.36379 0.0
O81 O 0.6715 0.7745 0.39739 0.0
O82 O 0.69898 0.88665 0.30199 0.0
O83 O 0.74635 0.80553 0.37816 0.0
O84 O 0.74911 0.88997 0.33614 0.0
C85 C 0.57697 0.81997 0.34852 0.0
C86 C 0.76548 0.76551 0.30307 0.0
C87 C 0.57679 0.65125 0.35045 0.0
C88 C 0.61426 0.74369 0.25741 0.0
C89 C 0.71824 0.78949 0.39928 0.0
C90 C 0.73506 0.91153 0.31888 0.0
O91 O 0.59029 0.79951 0.36697 0.0
O92 O 0.19753 0.80281 0.33919 0.0
Zn93 Zn 0.20628 0.86201 0.31812 0.0
O94 O 0.23921 0.92255 0.34022 0.0
Zn95 Zn 0.29784 0.97418 0.31999 0.0
Zn96 Zn 0.25964 0.90787 0.3749 0.0
Zn97 Zn 0.19173 0.94332 0.3495 0.0
O98 O 0.29643 0.03936 0.31865 0.0
O99 O 0.22025 0.01211 0.33633 0.0
O100 O 0.23963 0.87057 0.28151 0.0
O101 O 0.29708 0.95163 0.2806 0.0
O102 O 0.36199 0.9829 0.33766 0.0
O103 O 0.33296 0.93507 0.3751 0.0
O104 O 0.24275 0.93558 0.40713 0.0
O105 O 0.13617 0.84381 0.30894 0.0
O106 O 0.18325 0.94872 0.39077 0.0
O107 O 0.12487 0.90019 0.33063 0.0
C108 C 0.20332 0.79715 0.36472 0.0
C109 C 0.26074 0.04643 0.32572 0.0
C110 C 0.36913 0.96418 0.35952 0.0
C111 C 0.27322 0.90899 0.26884 0.0
C112 C 0.20959 0.94762 0.41085 0.0
C113 C 0.10881 0.86192 0.31514 0.0
O114 O 0.22516 0.83428 0.38101 0.0
O115 O 0.20722 0.41169 0.34161 0.0
Zn116 Zn 0.13528 0.36497 0.33037 0.0
O117 O 0.09091 0.35193 0.36185 0.0
Zn118 Zn 0.03776 0.36458 0.35061 0.0
Zn119 Zn 0.12857 0.39353 0.3926 0.0
Zn120 Zn 0.06409 0.28432 0.3747 0.0
O121 O 0.97002 0.30049 0.35026 0.0
O122 O -0.00737 0.2456 0.36309 0.0
O123 O 0.11708 0.39193 0.29668 0.0
O124 O 0.04916 0.39127 0.31191 0.0
O125 O 0.03968 0.41911 0.37396 0.0
O126 O 0.11103 0.44598 0.39778 0.0
O127 O 0.11356 0.35691 0.42829 0.0
O128 O 0.13659 0.3034 0.32017 0.0
O129 O 0.06386 0.27764 0.41653 0.0
O130 O 0.10354 0.25593 0.35742 0.0
C131 C 0.22786 0.42888 0.365 0.0
C132 C 0.95952 0.25583 0.35499 0.0
C133 C 0.07344 0.44993 0.39058 0.0
C134 C 0.08107 0.40031 0.29299 0.0
C135 C 0.08674 0.31117 0.43484 0.0
C136 C 0.12796 0.26588 0.33488 0.0
O137 O 0.2019 0.42365 0.38632 0.0
O138 O 0.25259 0.14316 0.67265 0.0
Zn139 Zn 0.2982 0.12906 0.65028 0.0
O140 O 0.32415 0.09568 0.67316 0.0
Zn141 Zn 0.3187 0.03985 0.6521 0.0
Zn142 Zn 0.28705 0.07312 0.707 0.0
Zn143 Zn 0.3924 0.14271 0.68434 0.0
O144 O 0.38665 0.046 0.64778 0.0
O145 O 0.43589 0.12039 0.6675 0.0
O146 O 0.26419 0.09154 0.61518 0.0
O147 O 0.29063 0.03724 0.6142 0.0
O148 O 0.26796 0.97465 0.66962 0.0
O149 O 0.2403 0.00032 0.7046 0.0
O150 O 0.33121 0.08366 0.73972 0.0
O151 O 0.35409 0.19665 0.63926 0.0
O152 O 0.4058 0.14349 0.72545 0.0
O153 O 0.41322 0.21157 0.67072 0.0
C154 C 0.2385 0.1352 0.69771 0.0
C155 C 0.42992 0.08211 0.65464 0.0
C156 C 0.2385 0.96565 0.68989 0.0
C157 C 0.26791 0.05741 0.6029 0.0
C158 C 0.37753 0.11453 0.74437 0.0
C159 C 0.39572 0.22603 0.6512 0.0
O160 O 0.2494 0.10925 0.71361 0.0
O161 O 0.84664 0.13758 0.67162 0.0
Zn162 Zn 0.87694 0.20811 0.65887 0.0
O163 O 0.90867 0.25162 0.69041 0.0
Zn164 Zn 0.97491 0.30568 0.68058 0.0
Zn165 Zn 0.91056 0.21562 0.72239 0.0
Zn166 Zn 0.86614 0.27658 0.70001 0.0
O167 O 0.97535 0.37183 0.67767 0.0
O168 O 0.89292 0.34218 0.68192 0.0
O169 O 0.92506 0.22324 0.62719 0.0
O170 O -0.00787 0.29248 0.64276 0.0
O171 O 0.02758 0.30437 0.70549 0.0
O172 O 0.98111 0.23178 0.72744 0.0
O173 O 0.89332 0.2386 0.75739 0.0
O174 O 0.81588 0.20937 0.64551 0.0
O175 O 0.86439 0.28597 0.74111 0.0
O176 O 0.79705 0.23048 0.68538 0.0
C177 C 0.84203 0.11653 0.69488 0.0
C178 C 0.93695 0.37714 0.67568 0.0
C179 C 0.02364 0.26944 0.72123 0.0
C180 C 0.97015 0.25922 0.62416 0.0
C181 C 0.8763 0.26775 0.76139 0.0
C182 C 0.78406 0.21038 0.6616 0.0
O183 O 0.86394 0.14135 0.71665 0.0
O184 O 0.83143 0.63555 0.67555 0.0
Zn185 Zn 0.79864 0.67179 0.68956 0.0
O186 O 0.7578 0.67659 0.66126 0.0
Zn187 Zn 0.69557 0.66337 0.67858 0.0
Zn188 Zn 0.74978 0.63387 0.63037 0.0
Zn189 Zn 0.79652 0.74385 0.64816 0.0
O190 O 0.69233 0.72714 0.67938 0.0
O191 O 0.77115 0.78311 0.66711 0.0
O192 O 0.76202 0.6406 0.72418 0.0
O193 O 0.69099 0.64117 0.71891 0.0
O194 O 0.63838 0.60585 0.65827 0.0
O195 O 0.67686 0.58079 0.6289 0.0
O196 O 0.76516 0.6711 0.59401 0.0
O197 O 0.85479 0.73843 0.69995 0.0
O198 O 0.78909 0.74866 0.60688 0.0
O199 O 0.86976 0.77115 0.65814 0.0
C200 C 0.82731 0.61107 0.65377 0.0
C201 C 0.72852 0.77219 0.67686 0.0
C202 C 0.63715 0.57577 0.63997 0.0
C203 C 0.72043 0.63292 0.73369 0.0
C204 C 0.77813 0.71604 0.58813 0.0
C205 C 0.88522 0.76819 0.68214 0.0
O206 O 0.79585 0.60488 0.63467 0.0
H207 H 0.3806 0.53555 0.01838 0.0
H208 H 0.37746 0.48096 0.9357 0.0
H209 H 0.28454 0.42596 0.93877 0.0
H210 H 0.28366 0.41657 0.04643 0.0
H211 H 0.25916 0.44606 0.06817 0.0
H212 H 0.32507 0.47872 0.05955 0.0
H213 H 0.31846 0.55315 0.03997 0.0
H214 H 0.25313 0.52131 0.04921 0.0
H215 H 0.27129 0.54133 0.01409 0.0
H216 H 0.19079 0.38304 0.95025 0.0
H217 H 0.10671 0.36167 0.96756 0.0
H218 H 0.17571 0.44065 0.04368 0.0
C219 C 0.36052 0.51238 1.00075 0.0
C220 C 0.38587 0.51301 0.97662 0.0
C221 C 0.35837 0.48125 0.95428 0.0
C222 C 0.30585 0.44964 0.95597 0.0
C223 C 0.28213 0.44955 0.98039 0.0
C224 C 0.30889 0.48012 1.00235 0.0
C225 C 0.27529 0.4751 0.02597 0.0
C226 C 0.28647 0.45277 0.05153 0.0
C227 C 0.27979 0.52569 0.03267 0.0
C228 C 0.22483 0.43868 0.01346 0.0
C229 C 0.22919 0.42352 0.98734 0.0
C230 C 0.18694 0.39382 0.97088 0.0
C231 C 0.13937 0.38154 0.98092 0.0
C232 C 0.13515 0.39955 0.00693 0.0
C233 C 0.17806 0.42614 0.02381 0.0
H234 H 0.4805 0.872 0.95711 0.0
H235 H 0.57169 0.96191 0.02611 0.0
H236 H 0.62922 0.92957 0.01983 0.0
H237 H 0.48151 0.76728 0.9753 0.0
H238 H 0.48321 0.74697 0.94073 0.0
H239 H 0.45701 0.78599 0.9467 0.0
H240 H 0.51929 0.84989 0.91118 0.0
H241 H 0.54643 0.81115 0.90566 0.0
H242 H 0.58608 0.87555 0.91584 0.0
H243 H 0.66854 0.87836 0.01122 0.0
H244 H 0.67732 0.80412 0.00586 0.0
H245 H 0.56067 0.74661 0.943 0.0
C246 C 0.51334 0.88579 0.9704 0.0
C247 C 0.52173 0.9194 0.99202 0.0
C248 C 0.56439 0.93584 0.00948 0.0
C249 C 0.59774 0.91828 0.00581 0.0
C250 C 0.58803 0.88443 0.98454 0.0
C251 C 0.54659 0.86809 0.96724 0.0
C252 C 0.53969 0.82559 0.94909 0.0
C253 C 0.48731 0.77872 0.95324 0.0
C254 C 0.54841 0.84152 0.91863 0.0
C255 C 0.58154 0.8183 0.96018 0.0
C256 C 0.61039 0.85391 0.97983 0.0
C257 C 0.64716 0.85101 0.99539 0.0
C258 C 0.65229 0.80897 0.99208 0.0
C259 C 0.62 0.7703 0.97381 0.0
C260 C 0.58649 0.77651 0.9566 0.0
H261 H 0.24446 0.84461 0.0231 0.0
H262 H 0.25867 0.85629 0.93421 0.0
H263 H 0.19454 0.76639 0.92976 0.0
H264 H 0.24558 0.73619 0.02719 0.0
H265 H 0.20217 0.70871 0.0554 0.0
H266 H 0.23874 0.77558 0.05188 0.0
H267 H 0.15768 0.78092 0.05117 0.0
H268 H 0.12063 0.71407 0.05551 0.0
H269 H 0.10791 0.74344 0.02693 0.0
H270 H 0.13668 0.6744 0.93536 0.0
H271 H 0.08935 0.58612 0.95043 0.0
H272 H 0.12104 0.63371 0.03592 0.0
C273 C 0.23196 0.8286 1.00271 0.0
C274 C 0.25466 0.85712 0.9789 0.0
C275 C 0.24019 0.83486 0.95253 0.0
C276 C 0.2041 0.78398 0.94987 0.0
C277 C 0.18394 0.75613 0.97386 0.0
C278 C 0.19725 0.77765 0.9998 0.0
C279 C 0.17596 0.73852 0.02233 0.0
C280 C 0.21814 0.73986 0.04023 0.0
C281 C 0.13829 0.7446 0.04002 0.0
C282 C 0.14969 0.69157 0.00502 0.0
C283 C 0.15382 0.70258 0.97715 0.0
C284 C 0.13293 0.6653 0.95711 0.0
C285 C 0.10645 0.61542 0.96583 0.0
C286 C 0.10226 0.60346 0.99426 0.0
C287 C 0.12445 0.64199 0.01405 0.0
H288 H 0.41742 0.17572 0.97227 0.0
H289 H 0.36502 0.13685 0.05626 0.0
H290 H 0.38069 0.22263 0.06367 0.0
H291 H 0.5168 0.28767 0.98535 0.0
H292 H 0.51324 0.31982 0.95515 0.0
H293 H 0.48692 0.25332 0.95421 0.0
H294 H 0.3998 0.23983 0.93973 0.0
H295 H 0.42612 0.30661 0.9398 0.0
H296 H 0.37117 0.26704 0.96009 0.0
H297 H 0.41925 0.31638 0.06434 0.0
H298 H 0.4672 0.40773 0.05677 0.0
H299 H 0.49269 0.38361 0.97174 0.0
C300 C 0.40702 0.18476 0.99178 0.0
C301 C 0.38946 0.1501 0.01362 0.0
C302 C 0.37743 0.16294 0.03918 0.0
C303 C 0.38655 0.21156 0.04355 0.0
C304 C 0.40669 0.24598 0.02193 0.0
C305 C 0.41546 0.23266 0.99629 0.0
C306 C 0.44186 0.27729 0.97731 0.0
C307 C 0.49269 0.28494 0.96746 0.0
C308 C 0.40768 0.2724 0.95279 0.0
C309 C 0.44919 0.31837 0.9967 0.0
C310 C 0.42831 0.29971 0.02225 0.0
C311 C 0.43457 0.33126 0.0442 0.0
C312 C 0.46233 0.38309 0.03978 0.0
C313 C 0.48352 0.40277 0.01362 0.0
C314 C 0.47643 0.36976 0.99186 0.0
H315 H 0.62805 0.12181 0.99961 0.0
H316 H 0.58501 0.10997 0.08548 0.0
H317 H 0.6739 0.14455 0.09969 0.0
H318 H 0.72919 0.09076 0.01129 0.0
H319 H 0.76828 0.13393 0.98494 0.0
H320 H 0.70061 0.10237 0.98178 0.0
H321 H 0.70457 0.18764 0.97723 0.0
H322 H 0.77194 0.21886 0.97944 0.0
H323 H 0.73773 0.2349 1.00322 0.0
H324 H 0.76661 0.19263 0.10381 0.0
H325 H 0.85601 0.25652 0.09723 0.0
H326 H 0.83908 0.22919 0.00921 0.0
C327 C 0.63745 0.12656 0.0214 0.0
C328 C 0.60024 0.11416 0.0415 0.0
C329 C 0.61342 0.11983 0.06983 0.0
C330 C 0.66353 0.13869 0.07806 0.0
C331 C 0.69941 0.15011 0.05768 0.0
C332 C 0.68693 0.14413 0.02994 0.0
C333 C 0.73293 0.16319 0.01205 0.0
C334 C 0.73272 0.11997 0.99661 0.0
C335 C 0.73704 0.20355 0.99183 0.0
C336 C 0.77372 0.18464 0.03399 0.0
C337 C 0.75354 0.17548 0.06026 0.0
C338 C 0.78312 0.19869 0.08352 0.0
C339 C 0.83384 0.23471 0.07966 0.0
C340 C 0.85409 0.24661 0.0528 0.0
C341 C 0.82467 0.21901 0.02999 0.0
H342 H 0.88241 0.52712 1.00131 0.0
H343 H 0.85292 0.46764 0.08472 0.0
H344 H 0.80744 0.51216 0.09419 0.0
H345 H 0.89678 0.65007 0.01795 0.0
H346 H 0.86526 0.6507 0.98658 0.0
H347 H 0.90123 0.61966 0.98741 0.0
H348 H 0.82306 0.53734 0.97047 0.0
H349 H 0.78738 0.56839 0.96914 0.0
H350 H 0.76488 0.51211 0.98923 0.0
H351 H 0.75772 0.5544 0.09299 0.0
H352 H 0.7002 0.58435 0.07978 0.0
H353 H 0.76355 0.61831 0.99762 0.0
C354 C 0.86696 0.52389 0.02171 0.0
C355 C 0.87128 0.49396 0.04229 0.0
C356 C 0.85 0.49029 0.0686 0.0
C357 C 0.82462 0.5159 0.07427 0.0
C358 C 0.82128 0.54526 0.05352 0.0
C359 C 0.84163 0.54918 0.02772 0.0
C360 C 0.82837 0.57885 0.00814 0.0
C361 C 0.87574 0.62773 0.99952 0.0
C362 C 0.79917 0.54727 0.98277 0.0
C363 C 0.79533 0.58903 0.0266 0.0
C364 C 0.79271 0.57033 0.05289 0.0
C365 C 0.76024 0.57016 0.07271 0.0
C366 C 0.7278 0.58727 0.06504 0.0
C367 C 0.72813 0.60411 0.03782 0.0
C368 C 0.76381 0.60711 0.01879 0.0
H369 H 0.85222 0.84748 0.28822 0.0
H370 H 0.78111 0.68649 0.29564 0.0
H371 H 0.86414 0.69354 0.28966 0.0
H372 H 0.96141 0.87032 0.24187 0.0
H373 H 0.00285 0.92664 0.26077 0.0
H374 H 0.93737 0.90748 0.25616 0.0
H375 H 0.92878 0.91072 0.30914 0.0
H376 H -0.00651 0.92864 0.31404 0.0
H377 H 0.94481 0.87378 0.33111 0.0
H378 H 0.95564 0.71984 0.29306 0.0
H379 H 0.04586 0.76216 0.30611 0.0
H380 H 0.05527 0.90592 0.30088 0.0
C381 C 0.85375 0.81344 0.28753 0.0
C382 C 0.81052 0.76647 0.29247 0.0
C383 C 0.81387 0.7228 0.29162 0.0
C384 C 0.86087 0.72653 0.28823 0.0
C385 C 0.90352 0.77407 0.28546 0.0
C386 C 0.90011 0.81674 0.28475 0.0
C387 C 0.9512 0.86376 0.28676 0.0
C388 C 0.96396 0.89381 0.25977 0.0
C389 C 0.95472 0.89603 0.31174 0.0
C390 C -0.01617 0.84102 0.29071 0.0
C391 C 0.95611 0.78937 0.28886 0.0
C392 C 0.97782 0.76023 0.29396 0.0
C393 C 0.02889 0.78452 0.30147 0.0
C394 C 0.05694 0.83714 0.30458 0.0
C395 C 0.03437 0.86562 0.29865 0.0
H396 H 0.14889 0.20908 0.3691 0.0
H397 H 0.16587 0.26146 0.28454 0.0
H398 H 0.21545 0.22117 0.27408 0.0
H399 H 0.27418 0.22685 0.37636 0.0
H400 H 0.25268 0.17172 0.39735 0.0
H401 H 0.22009 0.2061 0.39821 0.0
H402 H 0.13586 0.12597 0.38514 0.0
H403 H 0.16799 0.09133 0.38515 0.0
H404 H 0.13325 0.09097 0.35496 0.0
H405 H 0.25794 0.16906 0.27246 0.0
H406 H 0.28205 0.10463 0.27928 0.0
H407 H 0.2421 0.09361 0.36546 0.0
C408 C 0.16264 0.21182 0.3483 0.0
C409 C 0.15315 0.23795 0.32758 0.0
C410 C 0.17253 0.24131 0.30072 0.0
C411 C 0.20109 0.21898 0.29466 0.0
C412 C 0.21066 0.19435 0.31581 0.0
C413 C 0.19182 0.19067 0.34207 0.0
C414 C 0.20549 0.16074 0.36101 0.0
C415 C 0.24018 0.19332 0.38462 0.0
C416 C 0.15783 0.11452 0.37219 0.0
C417 C 0.23343 0.14646 0.3411 0.0
C418 C 0.23678 0.16657 0.31516 0.0
C419 C 0.25655 0.15397 0.29282 0.0
C420 C 0.27071 0.11789 0.29686 0.0
C421 C 0.26463 0.09521 0.32297 0.0
C422 C 0.24816 0.11152 0.34548 0.0
H423 H 0.91019 0.17381 0.38619 0.0
H424 H 0.89821 0.24162 0.31054 0.0
H425 H 0.82761 0.15947 0.29507 0.0
H426 H 0.90359 0.0756 0.35798 0.0
H427 H 0.86748 0.03007 0.38409 0.0
H428 H 0.90486 0.09489 0.39318 0.0
H429 H 0.8267 0.09436 0.41276 0.0
H430 H 0.78896 0.02873 0.40463 0.0
H431 H 0.77081 0.07181 0.39167 0.0
H432 H 0.77247 0.06735 0.28394 0.0
H433 H 0.73371 0.97546 0.27975 0.0
H434 H 0.78654 0.97047 0.36232 0.0
C435 C 0.89091 0.17167 0.36699 0.0
C436 C 0.9089 0.21349 0.34957 0.0
C437 C 0.88398 0.20982 0.32431 0.0
C438 C 0.84412 0.16331 0.31537 0.0
C439 C 0.8296 0.12168 0.33224 0.0
C440 C 0.85158 0.12585 0.35788 0.0
C441 C 0.83517 0.0754 0.37047 0.0
C442 C 0.88047 0.06865 0.37676 0.0
C443 C 0.80351 0.06709 0.39641 0.0
C444 C 0.80329 0.04208 0.34717 0.0
C445 C 0.79927 0.06902 0.32555 0.0
C446 C 0.77449 0.04586 0.301 0.0
C447 C 0.75305 -0.00616 0.2987 0.0
C448 C 0.7577 0.9661 0.32061 0.0
C449 C 0.78275 -0.00929 0.34511 0.0
H450 H 0.13542 0.71014 0.33922 0.0
H451 H 0.21799 0.7693 0.41608 0.0
H452 H 0.1769 0.6839 0.43528 0.0
H453 H 0.01787 0.60772 0.37059 0.0
H454 H 0.0083 0.56561 0.34263 0.0
H455 H 0.03863 0.63193 0.33634 0.0
H456 H 0.11597 0.63185 0.31569 0.0
H457 H 0.08534 0.56567 0.32137 0.0
H458 H 0.14721 0.60636 0.33572 0.0
H459 H 0.13773 0.59298 0.44332 0.0
H460 H 0.10862 0.50331 0.43817 0.0
H461 H 0.04725 0.50314 0.35738 0.0
C462 C 0.14459 0.70526 0.36018 0.0
C463 C 0.18003 0.74625 0.37613 0.0
C464 C 0.19093 0.73833 0.40349 0.0
C465 C 0.16739 0.69008 0.41467 0.0
C466 C 0.13245 0.65046 0.39839 0.0
C467 C 0.12107 0.65757 0.37173 0.0
C468 C 0.08618 0.60848 0.35754 0.0
C469 C 0.03468 0.60313 0.35143 0.0
C470 C 0.11013 0.60276 0.33105 0.0
C471 C 0.08219 0.57244 0.3798 0.0
C472 C 0.10819 0.59741 0.40346 0.0
C473 C 0.11603 0.57279 0.4253 0.0
C474 C 0.09932 0.52193 0.42224 0.0
C475 C 0.07509 0.49656 0.39758 0.0
C476 C 0.06405 0.52142 0.37681 0.0
H477 H 0.29776 0.45761 0.32393 0.0
H478 H 0.28212 0.45245 0.41305 0.0
H479 H 0.37387 0.49164 0.41838 0.0
H480 H 0.41086 0.4405 0.32231 0.0
H481 H 0.43819 0.48407 0.29415 0.0
H482 H 0.37065 0.44595 0.29705 0.0
H483 H 0.36321 0.52544 0.29628 0.0
H484 H 0.43026 0.56333 0.29287 0.0
H485 H 0.39918 0.57472 0.32082 0.0
H486 H 0.46505 0.54362 0.41459 0.0
H487 H 0.54933 0.61221 0.40165 0.0
H488 H 0.50851 0.5827 0.31521 0.0
C489 C 0.3136 0.46378 0.34456 0.0
C490 C 0.28284 0.45201 0.36804 0.0
C491 C 0.30496 0.46137 0.39471 0.0
C492 C 0.35701 0.48293 0.39798 0.0
C493 C 0.38638 0.49453 0.37442 0.0
C494 C 0.36557 0.48547 0.34819 0.0
C495 C 0.4059 0.50815 0.32636 0.0
C496 C 0.40642 0.46721 0.30894 0.0
C497 C 0.39925 0.54511 0.30805 0.0
C498 C 0.45245 0.53453 0.34451 0.0
C499 C 0.44038 0.5247 0.37217 0.0
C500 C 0.47541 0.55048 0.39306 0.0
C501 C 0.52314 0.58929 0.38557 0.0
C502 C 0.53513 0.60159 0.3575 0.0
C503 C 0.50048 0.57234 0.33673 0.0
H504 H 0.4325 0.96534 0.32076 0.0
H505 H 0.41047 0.96267 0.40905 0.0
H506 H 0.47087 0.93392 0.41642 0.0
H507 H 0.42525 0.85683 0.31699 0.0
H508 H 0.47228 0.87092 0.29111 0.0
H509 H 0.44097 0.90625 0.29237 0.0
H510 H 0.5262 -0.01079 0.29701 0.0
H511 H 0.55831 0.95447 0.29462 0.0
H512 H 0.57044 -0.0045 0.32353 0.0
H513 H 0.51594 0.8866 0.4135 0.0
H514 H 0.55307 0.83534 0.40073 0.0
H515 H 0.54295 0.86648 0.31418 0.0
C516 C 0.44291 0.96178 0.34169 0.0
C517 C 0.41745 0.96666 0.36435 0.0
C518 C 0.43019 0.9596 0.39146 0.0
C519 C 0.46427 0.94308 0.39583 0.0
C520 C 0.48545 0.93426 0.37286 0.0
C521 C 0.47634 0.94461 0.34632 0.0
C522 C 0.49779 0.92522 0.32503 0.0
C523 C 0.4566 0.88758 0.30524 0.0
C524 C 0.54075 0.96869 0.30912 0.0
C525 C 0.51751 0.8998 0.34366 0.0
C526 C 0.51084 0.90604 0.37117 0.0
C527 C 0.52259 0.88251 0.39204 0.0
C528 C 0.543 0.85293 0.38457 0.0
C529 C 0.55096 0.84686 0.35647 0.0
C530 C 0.53767 0.87051 0.33588 0.0
H531 H 0.70563 0.17536 0.69667 0.0
H532 H 0.74134 0.182 0.60981 0.0
H533 H 0.65007 0.13429 0.59846 0.0
H534 H 0.59273 0.0489 0.6951 0.0
H535 H 0.56092 0.06595 0.71995 0.0
H536 H 0.62858 0.09527 0.72106 0.0
H537 H 0.63762 0.18294 0.71785 0.0
H538 H 0.57029 0.15391 0.71731 0.0
H539 H 0.60691 0.19589 0.68993 0.0
H540 H 0.5548 0.0949 0.59681 0.0
H541 H 0.46652 0.07326 0.60501 0.0
H542 H 0.49616 0.09047 0.6929 0.0
C543 C 0.69441 0.16666 0.67523 0.0
C544 C 0.73031 0.18273 0.65407 0.0
C545 C 0.71416 0.17007 0.62631 0.0
C546 C 0.66254 0.14268 0.61973 0.0
C547 C 0.62802 0.12742 0.64123 0.0
C548 C 0.64354 0.13893 0.66843 0.0
C549 C 0.59979 0.12193 0.68773 0.0
C550 C 0.59525 0.08055 0.7071 0.0
C551 C 0.6039 0.1663 0.70413 0.0
C552 C 0.55713 0.10158 0.66706 0.0
C553 C 0.57366 0.10382 0.64034 0.0
C554 C 0.54122 0.0918 0.61766 0.0
C555 C 0.49123 0.07929 0.62243 0.0
C556 C 0.47517 0.0797 0.64957 0.0
C557 C 0.50779 0.08898 0.67205 0.0
H558 H 0.87189 0.38552 0.64204 0.0
H559 H 0.01028 0.47349 0.68849 0.0
H560 H 0.00465 0.54935 0.6802 0.0
H561 H 0.89048 0.48817 0.59151 0.0
H562 H 0.82393 0.46604 0.59188 0.0
H563 H 0.84579 0.42242 0.59572 0.0
H564 H 0.79603 0.39049 0.6413 0.0
H565 H 0.77468 0.43425 0.63791 0.0
H566 H 0.80794 0.43434 0.66871 0.0
H567 H 0.97318 0.60912 0.67621 0.0
H568 H 0.92231 0.64981 0.67425 0.0
H569 H 0.80529 0.52326 0.62896 0.0
C570 C 0.90203 0.42121 0.64954 0.0
C571 C 0.94159 0.42409 0.66581 0.0
C572 C 0.98012 0.47094 0.67566 0.0
C573 C 0.97708 0.51403 0.67105 0.0
C574 C 0.93597 0.50942 0.65605 0.0
C575 C 0.8997 0.46427 0.6449 0.0
C576 C 0.85618 0.46744 0.6325 0.0
C577 C 0.85399 0.46063 0.60103 0.0
C578 C 0.80579 0.42941 0.64593 0.0
C579 C 0.87174 0.52051 0.64007 0.0
C580 C 0.91828 0.54441 0.65322 0.0
C581 C 0.93752 0.59135 0.66524 0.0
C582 C 0.90817 0.61396 0.6642 0.0
C583 C 0.86013 0.58966 0.65123 0.0
C584 C 0.84243 0.54307 0.63835 0.0
H585 H 0.57251 0.51447 0.67822 0.0
H586 H 0.59889 0.53127 0.5902 0.0
H587 H 0.52859 0.44455 0.58285 0.0
H588 H 0.56227 0.40189 0.68146 0.0
H589 H 0.51527 0.37542 0.70805 0.0
H590 H 0.55644 0.44195 0.7061 0.0
H591 H 0.47977 0.45465 0.70284 0.0
H592 H 0.43806 0.38797 0.70536 0.0
H593 H 0.43217 0.42189 0.67672 0.0
H594 H 0.4635 0.35346 0.58583 0.0
H595 H 0.41342 0.26404 0.59904 0.0
H596 H 0.43863 0.30581 0.68543 0.0
C597 C 0.56166 0.50054 0.65733 0.0
C598 C 0.58963 0.52942 0.63466 0.0
C599 C 0.57677 0.50959 0.60767 0.0
C600 C 0.53697 0.46058 0.60336 0.0
C601 C 0.51135 0.43207 0.62634 0.0
C602 C 0.52333 0.45134 0.65284 0.0
C603 C 0.49696 0.411 0.67433 0.0
C604 C 0.53502 0.40737 0.69359 0.0
C605 C 0.4595 0.41938 0.69078 0.0
C606 C 0.46992 0.36577 0.65585 0.0
C607 C 0.47722 0.37875 0.62825 0.0
C608 C 0.45712 0.34289 0.60737 0.0
C609 C 0.42906 0.29241 0.61499 0.0
C610 C 0.42306 0.27869 0.64315 0.0
C611 C 0.44332 0.31573 0.66375 0.0
H612 H 0.78852 0.84377 0.71277 0.0
H613 H 0.6586 0.79556 0.65942 0.0
H614 H 0.66495 0.87777 0.66541 0.0
H615 H 0.76339 0.92929 0.75925 0.0
H616 H 0.83012 0.97302 0.762 0.0
H617 H 0.80707 0.90695 0.75925 0.0
H618 H 0.86463 0.92415 0.71706 0.0
H619 H 0.88704 -0.01019 0.71921 0.0
H620 H 0.8588 0.95653 0.68758 0.0
H621 H 0.69906 0.96942 0.66713 0.0
H622 H 0.75214 0.06145 0.66872 0.0
H623 H 0.85742 0.04965 0.72347 0.0
C624 C 0.76006 0.84995 0.70349 0.0
C625 C 0.7228 0.81384 0.68592 0.0
C626 C 0.68671 0.82282 0.67338 0.0
C627 C 0.6902 0.86934 0.67666 0.0
C628 C 0.72917 0.90543 0.69307 0.0
C629 C 0.76264 0.89571 0.70695 0.0
C630 C 0.80467 0.94226 0.72055 0.0
C631 C 0.80107 0.9376 0.75214 0.0
C632 C 0.85681 0.95383 0.71047 0.0
C633 C 0.79205 0.98061 0.71034 0.0
C634 C 0.74794 0.95853 0.69486 0.0
C635 C 0.73256 0.98695 0.67999 0.0
C636 C 0.76315 0.03908 0.68078 0.0
C637 C 0.80836 0.06214 0.69646 0.0
C638 C 0.82228 0.03265 0.71196 0.0
H639 H 0.96287 0.80599 0.64532 0.0
H640 H 0.92927 0.78165 0.73277 0.0
H641 H 0.01847 0.81153 0.74299 0.0
H642 H 0.06235 0.77181 0.64585 0.0
H643 H 0.1002 0.81974 0.62119 0.0
H644 H 0.03251 0.79032 0.62009 0.0
H645 H 0.03914 0.87683 0.624 0.0
H646 H 0.1065 0.90613 0.62403 0.0
H647 H 0.07563 0.91821 0.65182 0.0
H648 H 0.11034 0.85332 0.74458 0.0
H649 H 0.20001 0.91581 0.73776 0.0
H650 H 0.17547 0.9089 0.64941 0.0
C651 C 0.97435 0.80699 0.66661 0.0
C652 C 0.93931 0.79162 0.68825 0.0
C653 C 0.95561 0.79327 0.71585 0.0
C654 C 0.00601 0.80947 0.72184 0.0
C655 C 0.03944 0.82321 0.69999 0.0
C656 C 0.02447 0.82262 0.67295 0.0
C657 C 0.06886 0.84438 0.65363 0.0
C658 C 0.06578 0.80415 0.63403 0.0
C659 C 0.07277 0.88905 0.63746 0.0
C660 C 0.11147 0.8605 0.6743 0.0
C661 C 0.09347 0.84641 0.70086 0.0
C662 C 0.12515 0.8634 0.7239 0.0
C663 C 0.17601 0.89859 0.71988 0.0
C664 C 0.19422 0.91596 0.69306 0.0
C665 C 0.16248 0.89438 0.66995 0.0
H666 H 0.22038 0.20276 0.67167 0.0
H667 H 0.19647 0.12281 0.74899 0.0
H668 H 0.1522 0.16398 0.76726 0.0
H669 H 0.23699 0.32009 0.70183 0.0
H670 H 0.20391 0.32869 0.67348 0.0
H671 H 0.23961 0.29824 0.66783 0.0
H672 H 0.16031 0.22093 0.64731 0.0
H673 H 0.12495 0.25159 0.65242 0.0
H674 H 0.1032 0.19066 0.66718 0.0
H675 H 0.10089 0.20389 0.77454 0.0
H676 H 0.04167 0.23469 0.76894 0.0
H677 H 0.10249 0.29219 0.688 0.0
C678 C 0.20639 0.19425 0.69258 0.0
C679 C 0.21181 0.15946 0.70888 0.0
C680 C 0.19276 0.14933 0.7361 0.0
C681 C 0.16799 0.17289 0.74675 0.0
C682 C 0.16331 0.207 0.73008 0.0
C683 C 0.18199 0.21766 0.70357 0.0
C684 C 0.16789 0.25192 0.6889 0.0
C685 C 0.21491 0.30276 0.68265 0.0
C686 C 0.13725 0.22728 0.66242 0.0
C687 C 0.13602 0.2568 0.71081 0.0
C688 C 0.1347 0.23143 0.73464 0.0
C689 C 0.10265 0.22503 0.75635 0.0
C690 C 0.0693 0.24276 0.75306 0.0
C691 C 0.06851 0.26664 0.7283 0.0
C692 C 0.10387 0.27583 0.70753 0.0
H693 H 0.12474 0.40357 0.24278 0.0
H694 H 0.02246 0.44093 0.28256 0.0
H695 H 0.00564 0.46759 0.23791 0.0
H696 H 0.17405 0.50629 0.19061 0.0
H697 H 0.17637 0.46727 0.16393 0.0
H698 H 0.18556 0.45658 0.19954 0.0
H699 H 0.11311 0.3645 0.19523 0.0
H700 H 0.10373 0.37491 0.15969 0.0
H701 H 0.05191 0.35127 0.18344 0.0
H702 H -0.00879 0.48007 0.18924 0.0
H703 H 0.98111 0.479 0.13865 0.0
H704 H 0.0943 0.43693 0.12909 0.0
C705 C 0.09967 0.41838 0.24216 0.0
C706 C 0.07495 0.42012 0.26625 0.0
C707 C 0.04174 0.43899 0.26446 0.0
C708 C 0.03212 0.45454 0.23918 0.0
C709 C 0.05617 0.45138 0.21578 0.0
C710 C 0.0895 0.43409 0.21695 0.0
C711 C 0.10726 0.43116 0.18824 0.0
C712 C 0.1642 0.4675 0.18542 0.0
C713 C 0.09314 0.37726 0.18125 0.0
C714 C 0.07737 0.4479 0.17079 0.0
C715 C 0.04854 0.45978 0.18725 0.0
C716 C 0.01437 0.47195 0.17612 0.0
C717 C 0.0088 0.47115 0.14741 0.0
C718 C 0.03755 0.45876 0.13012 0.0
C719 C 0.07302 0.44796 0.14191 0.0
H720 H 0.60786 0.66662 0.22667 0.0
H721 H 0.58038 0.79038 0.22246 0.0
H722 H 0.5542 0.76993 0.17367 0.0
H723 H 0.66109 0.68392 0.16068 0.0
H724 H 0.63357 0.61817 0.15355 0.0
H725 H 0.64631 0.64022 0.18863 0.0
H726 H 0.55286 0.57935 0.2011 0.0
H727 H 0.53982 0.55708 0.166 0.0
H728 H 0.50379 0.58132 0.18165 0.0
H729 H 0.53559 0.73865 0.12436 0.0
H730 H 0.52756 0.70004 0.07867 0.0
H731 H 0.56746 0.59717 0.11565 0.0
C732 C 0.59574 0.68913 0.21566 0.0
C733 C 0.59608 0.73007 0.22851 0.0
C734 C 0.58043 0.75879 0.21314 0.0
C735 C 0.56536 0.7474 0.18541 0.0
C736 C 0.56601 0.7071 0.17334 0.0
C737 C 0.58075 0.67839 0.18801 0.0
C738 C 0.58046 0.63862 0.16994 0.0
C739 C 0.63351 0.64569 0.16809 0.0
C740 C 0.54193 0.58598 0.18029 0.0
C741 C 0.56402 0.64991 0.14269 0.0
C742 C 0.55548 0.68927 0.14506 0.0
C743 C 0.54178 0.70751 0.12232 0.0
C744 C 0.5373 0.68533 0.09644 0.0
C745 C 0.5467 0.64542 0.09349 0.0
C746 C 0.5596 0.62731 0.11712 0.0
H747 H 0.41574 -0.00597 0.12425 0.0
H748 H 0.27536 0.88356 0.08582 0.0
H749 H 0.23766 0.85396 0.13199 0.0
H750 H 0.41097 0.92208 0.18546 0.0
H751 H 0.43546 0.9754 0.20813 0.0
H752 H 0.45319 0.98391 0.17231 0.0
H753 H 0.42182 0.04661 0.1668 0.0
H754 H 0.40405 0.03834 0.20256 0.0
H755 H 0.35807 0.02759 0.17615 0.0
H756 H 0.21533 0.8374 0.18206 0.0
H757 H 0.2058 0.84087 0.23234 0.0
H758 H 0.35827 0.9677 0.23824 0.0
C759 C 0.37737 0.96302 0.12572 0.0
C760 C 0.34845 0.94027 0.10175 0.0
C761 C 0.29796 0.90094 0.10413 0.0
C762 C 0.27644 0.88386 0.13019 0.0
C763 C 0.30577 0.90728 0.15354 0.0
C764 C 0.35491 0.94648 0.15157 0.0
C765 C 0.37655 0.9683 0.17973 0.0
C766 C 0.42172 0.96203 0.18682 0.0
C767 C 0.39095 0.02347 0.1814 0.0
C768 C 0.33181 0.93549 0.19784 0.0
C769 C 0.29178 0.89987 0.18235 0.0
C770 C 0.24638 0.86513 0.1944 0.0
C771 C 0.24141 0.86731 0.223 0.0
C772 C 0.28126 0.90462 0.23918 0.0
C773 C 0.32714 0.93889 0.22637 0.0
H774 H 0.38272 -0.00109 0.89034 0.0
H775 H 0.52071 0.13766 0.90932 0.0
H776 H 0.51935 0.16924 0.86254 0.0
H777 H 0.40766 -0.00895 0.81757 0.0
H778 H 0.34291 0.96708 0.80756 0.0
H779 H 0.35777 0.95409 0.84148 0.0
H780 H 0.30777 -0.00838 0.86325 0.0
H781 H 0.29315 0.00512 0.82944 0.0
H782 H 0.32402 0.05453 0.85454 0.0
H783 H 0.50121 0.18617 0.81365 0.0
H784 H 0.4661 0.18801 0.76776 0.0
H785 H 0.3377 0.04003 0.78276 0.0
C786 C 0.41324 0.03555 0.88449 0.0
C787 C 0.45216 0.06561 0.90333 0.0
C788 C 0.49068 0.11388 0.89512 0.0
C789 C 0.49024 0.13211 0.86861 0.0
C790 C 0.45078 0.10178 0.85069 0.0
C791 C 0.41293 0.05458 0.85836 0.0
C792 C 0.37304 0.0306 0.83604 0.0
C793 C 0.37021 0.98289 0.82501 0.0
C794 C 0.32146 0.01986 0.84645 0.0
C795 C 0.3941 0.07179 0.81468 0.0
C796 C 0.43926 0.11234 0.82328 0.0
C797 C 0.46582 0.15463 0.80674 0.0
C798 C 0.4456 0.15539 0.78075 0.0
C799 C 0.39896 0.11442 0.7718 0.0
C800 C 0.37312 0.07224 0.78912 0.0
H801 H 0.94597 0.31143 0.92188 0.0
H802 H 0.88729 0.41221 0.9219 0.0
H803 H 0.85883 0.389 0.8737 0.0
H804 H -0.00533 0.3397 0.85457 0.0
H805 H 0.97914 0.27694 0.8462 0.0
H806 H -0.00939 0.29767 0.88153 0.0
H807 H 0.9032 0.22336 0.89514 0.0
H808 H 0.89146 0.20237 0.85979 0.0
H809 H 0.84754 0.21446 0.87745 0.0
H810 H 0.84159 0.35924 0.82468 0.0
H811 H 0.83871 0.32662 0.77797 0.0
H812 H 0.90928 0.2457 0.80944 0.0
C813 C 0.9264 0.328 0.91191 0.0
C814 C 0.91871 0.36353 0.92578 0.0
C815 C 0.89366 0.38493 0.91177 0.0
C816 C 0.87715 0.37184 0.88439 0.0
C817 C 0.88592 0.33727 0.87122 0.0
C818 C 0.90994 0.31561 0.88448 0.0
C819 C 0.91747 0.28185 0.86506 0.0
C820 C 0.97381 0.30016 0.86164 0.0
C821 C 0.88816 0.22727 0.87495 0.0
C822 C 0.8948 0.2887 0.83871 0.0
C823 C 0.87635 0.32041 0.84279 0.0
C824 C 0.85551 0.33402 0.82127 0.0
C825 C 0.85408 0.31529 0.79477 0.0
C826 C 0.87361 0.28342 0.78994 0.0
C827 C 0.89357 0.26954 0.8124 0.0
H828 H 0.63364 0.60778 0.76293 0.0
H829 H 0.78323 0.62783 0.77174 0.0
H830 H 0.77094 0.61468 0.82166 0.0
H831 H 0.63594 0.6705 0.82349 0.0
H832 H 0.57131 0.62826 0.83284 0.0
H833 H 0.58956 0.63548 0.79717 0.0
H834 H 0.55349 0.54006 0.79316 0.0
H835 H 0.53477 0.53248 0.82882 0.0
H836 H 0.57466 0.50969 0.81694 0.0
H837 H 0.74803 0.61036 0.87079 0.0
H838 H 0.71095 0.60542 0.91652 0.0
H839 H 0.57355 0.58122 0.87705 0.0
C840 C 0.66342 0.60852 0.7753 0.0
C841 C 0.70945 0.61899 0.76324 0.0
C842 C 0.74754 0.61982 0.78028 0.0
C843 C 0.74103 0.61245 0.80877 0.0
C844 C 0.69588 0.6034 0.82005 0.0
C845 C 0.65727 0.60045 0.80391 0.0
C846 C 0.61294 0.59114 0.82164 0.0
C847 C 0.60181 0.6339 0.8186 0.0
C848 C 0.5662 0.54031 0.81473 0.0
C849 C 0.63342 0.59079 0.85021 0.0
C850 C 0.68148 0.59822 0.84871 0.0
C851 C 0.71001 0.60344 0.87227 0.0
C852 C 0.68882 0.60085 0.8981 0.0
C853 C 0.63933 0.59227 0.90017 0.0
C854 C 0.61109 0.58671 0.87593 0.0
H855 H 0.68483 0.79019 0.45161 0.0
H856 H 0.79827 0.77595 0.40703 0.0
H857 H 0.82816 0.75864 0.45083 0.0
H858 H 0.76518 0.85251 0.51249 0.0
H859 H 0.71343 0.82161 0.53617 0.0
H860 H 0.70227 0.83471 0.50142 0.0
H861 H 0.63604 0.74098 0.49431 0.0
H862 H 0.6472 0.72753 0.52894 0.0
H863 H 0.65384 0.69469 0.50023 0.0
H864 H 0.83894 0.73312 0.49865 0.0
H865 H 0.83685 0.71163 0.54815 0.0
H866 H 0.72247 0.75041 0.56247 0.0
C867 C 0.71635 0.78402 0.45115 0.0
C868 C 0.73917 0.78429 0.42591 0.0
C869 C 0.78045 0.77624 0.42613 0.0
C870 C 0.79755 0.76618 0.45089 0.0
C871 C 0.77373 0.76537 0.47536 0.0
C872 C 0.73471 0.77511 0.47578 0.0
C873 C 0.7158 0.7722 0.5049 0.0
C874 C 0.72472 0.8233 0.5143 0.0
C875 C 0.65991 0.73142 0.50722 0.0
C876 C 0.74932 0.75797 0.52069 0.0
C877 C 0.7822 0.7538 0.50321 0.0
C878 C 0.81417 0.73734 0.51263 0.0
C879 C 0.81268 0.72508 0.54066 0.0
C880 C 0.78021 0.73031 0.55895 0.0
C881 C 0.74842 0.74726 0.54889 0.0
H882 H 0.24018 0.92584 0.45897 0.0
H883 H 0.16738 0.0036 0.42624 0.0
H884 H 0.16793 0.03569 0.4731 0.0
H885 H 0.17658 0.89283 0.52629 0.0
H886 H 0.23248 0.90221 0.5439 0.0
H887 H 0.22092 0.88151 0.50851 0.0
H888 H 0.30811 0.95646 0.49499 0.0
H889 H 0.31977 0.97756 0.53022 0.0
H890 H 0.32302 0.01911 0.50319 0.0
H891 H 0.18538 0.0663 0.52316 0.0
H892 H 0.21489 0.0897 0.57144 0.0
H893 H 0.27486 -0.00995 0.57003 0.0
C894 C 0.22354 0.94896 0.46165 0.0
C895 C 0.20375 0.96227 0.43897 0.0
C896 C 0.18239 -0.00738 0.44339 0.0
C897 C 0.18265 0.01108 0.46991 0.0
C898 C 0.20376 -0.00181 0.49171 0.0
C899 C 0.22322 0.96726 0.48781 0.0
C900 C 0.24614 0.96081 0.51404 0.0
C901 C 0.21729 0.90609 0.52375 0.0
C902 C 0.30259 0.97963 0.51037 0.0
C903 C 0.23803 -0.00586 0.53325 0.0
C904 C 0.21323 0.01519 0.52019 0.0
C905 C 0.20419 0.04945 0.53365 0.0
C906 C 0.22122 0.06261 0.56105 0.0
C907 C 0.24711 0.04165 0.57462 0.0
C908 C 0.25489 0.00655 0.56045 0.0
H909 H 0.93125 0.21512 0.57363 0.0
H910 H 0.07159 0.31472 0.61638 0.0
H911 H 0.11786 0.32924 0.57298 0.0
H912 H -0.01518 0.16295 0.52376 0.0
H913 H 0.94497 0.16168 0.49595 0.0
H914 H 0.92323 0.1532 0.53107 0.0
H915 H 0.90682 0.22667 0.52544 0.0
H916 H 0.92844 0.23532 0.4904 0.0
H917 H 0.95738 0.28682 0.51437 0.0
H918 H 0.14753 0.34225 0.52488 0.0
H919 H 0.15887 0.35268 0.47449 0.0
H920 H 0.00072 0.24339 0.46188 0.0
C921 C 0.97185 0.23899 0.57396 0.0
C922 C -0.00221 0.26371 0.59845 0.0
C923 C 0.05083 0.29547 0.5979 0.0
C924 C 0.07755 0.30373 0.57337 0.0
C925 C 0.05083 0.27978 0.54949 0.0
C926 C -0.00078 0.24784 0.54952 0.0
C927 C 0.9793 0.23041 0.52046 0.0
C928 C 0.95675 0.17368 0.51765 0.0
C929 C 0.94073 0.24574 0.51219 0.0
C930 C 0.02753 0.25903 0.50407 0.0
C931 C 0.06837 0.28677 0.52135 0.0
C932 C 0.11614 0.31989 0.51114 0.0
C933 C 0.12221 0.32565 0.48253 0.0
C934 C 0.08087 0.29823 0.46442 0.0
C935 C 0.03319 0.26362 0.47531 0.0
loop_
_geom_bond_atom_site_label_1
_geom_bond_atom_site_label_2
_geom_bond_distance
_geom_bond_site_symmetry_2
_ccdc_geom_bond_type
O0 Zn1 1.953 . S
O0 C16 1.225 1_556 S
Zn1 O0 1.953 . S
Zn1 O2 1.949 1_656 S
Zn1 O8 1.919 . S
Zn1 O13 1.924 1_655 S
O2 Zn1 1.949 1_454 S
O2 Zn3 1.923 1_454 S
O2 Zn4 1.950 1_455 S
O2 Zn5 1.945 . S
Zn3 O2 1.923 1_656 S
Zn3 O6 1.933 1_655 S
Zn3 O9 1.941 . S
Zn3 O10 1.965 1_556 S
Zn4 O2 1.950 1_655 S
Zn4 O11 1.938 . S
Zn4 O12 1.906 . S
Zn4 O22 1.953 . S
Zn5 O2 1.945 . S
Zn5 O7 1.932 . S
Zn5 O14 1.977 . S
Zn5 O15 1.910 . S
O6 Zn3 1.933 1_455 S
O6 C17 1.226 1_556 S
O7 Zn5 1.932 . S
O7 C17 1.307 . S
O8 Zn1 1.919 . S
O8 C19 1.253 . S
O9 Zn3 1.941 . S
O9 C19 1.283 . S
O10 Zn3 1.965 1_554 S
O10 C18 1.303 . S
O11 Zn4 1.938 . S
O11 C18 1.247 . S
O12 Zn4 1.906 . S
O12 C20 1.304 1_655 S
O13 Zn1 1.924 1_455 S
O13 C21 1.311 1_556 S
O14 Zn5 1.977 . S
O14 C20 1.272 . S
O15 Zn5 1.910 . S
O15 C21 1.231 . S
C16 O0 1.225 1_554 S
C16 O22 1.298 . S
C17 O6 1.226 1_554 S
C17 O7 1.307 . S
C18 O10 1.303 . S
C18 O11 1.247 . S
C19 O8 1.253 . S
C19 O9 1.283 . S
C20 O12 1.304 1_455 S
C20 O14 1.272 . S
C21 O13 1.311 1_554 S
C21 O15 1.231 . S
O22 Zn4 1.953 . S
O22 C16 1.298 . S
O23 Zn24 1.953 . S
O23 C39 1.225 1_556 S
Zn24 O23 1.953 . S
Zn24 O25 1.949 1_556 S
Zn24 O31 1.919 . S
Zn24 O36 1.924 . S
O25 Zn24 1.949 1_554 S
O25 Zn26 1.923 1_554 S
O25 Zn27 1.950 . S
O25 Zn28 1.945 . S
Zn26 O25 1.923 1_556 S
Zn26 O29 1.933 . S
Zn26 O32 1.941 . S
Zn26 O33 1.965 1_556 S
Zn27 O25 1.950 . S
Zn27 O34 1.938 . S
Zn27 O35 1.906 . S
Zn27 O45 1.953 . S
Zn28 O25 1.945 . S
Zn28 O30 1.932 . S
Zn28 O37 1.977 . S
Zn28 O38 1.910 . S
O29 Zn26 1.933 . S
O29 C40 1.212 1_556 S
O30 Zn28 1.932 . S
O30 C40 1.326 . S
O31 Zn24 1.919 . S
O31 C42 1.253 . S
O32 Zn26 1.941 . S
O32 C42 1.283 . S
O33 Zn26 1.965 1_554 S
O33 C41 1.304 . S
O34 Zn27 1.938 . S
O34 C41 1.247 . S
O35 Zn27 1.906 . S
O35 C43 1.304 . S
O36 Zn24 1.924 . S
O36 C44 1.311 1_556 S
O37 Zn28 1.977 . S
O37 C43 1.272 . S
O38 Zn28 1.910 . S
O38 C44 1.231 . S
C39 O23 1.225 1_554 S
C39 O45 1.298 . S
C40 O29 1.212 1_554 S
C40 O30 1.326 . S
C41 O33 1.304 . S
C41 O34 1.247 . S
C42 O31 1.253 . S
C42 O32 1.283 . S
C43 O35 1.304 . S
C43 O37 1.272 . S
C44 O36 1.311 1_554 S
C44 O38 1.231 . S
O45 Zn27 1.953 . S
O45 C39 1.298 . S
O46 Zn47 1.953 1_565 S
O46 C62 1.225 . S
Zn47 O46 1.953 1_545 S
Zn47 O48 1.949 . S
Zn47 O54 1.919 . S
Zn47 O59 1.924 . S
O48 Zn47 1.949 . S
O48 Zn49 1.923 . S
O48 Zn50 1.950 1_544 S
O48 Zn51 1.945 1_554 S
Zn49 O48 1.923 . S
Zn49 O52 1.933 . S
Zn49 O55 1.941 . S
Zn49 O56 1.965 1_545 S
Zn50 O48 1.950 1_566 S
Zn50 O57 1.938 . S
Zn50 O58 1.906 . S
Zn50 O68 1.953 . S
Zn51 O48 1.945 1_556 S
Zn51 O53 1.932 . S
Zn51 O60 1.977 . S
Zn51 O61 1.910 . S
O52 Zn49 1.933 . S
O52 C63 1.226 . S
O53 Zn51 1.932 . S
O53 C63 1.307 1_556 S
O54 Zn47 1.919 . S
O54 C65 1.253 . S
O55 Zn49 1.941 . S
O55 C65 1.283 . S
O56 Zn49 1.965 1_565 S
O56 C64 1.286 1_554 S
O57 Zn50 1.938 . S
O57 C64 1.273 . S
O58 Zn50 1.906 . S
O58 C66 1.304 1_565 S
O59 Zn47 1.924 . S
O59 C67 1.311 . S
O60 Zn51 1.977 . S
O60 C66 1.272 . S
O61 Zn51 1.910 . S
O61 C67 1.231 1_556 S
C62 O46 1.225 . S
C62 O68 1.298 1_554 S
C63 O52 1.226 . S
C63 O53 1.307 1_554 S
C64 O56 1.286 1_556 S
C64 O57 1.273 . S
C65 O54 1.253 . S
C65 O55 1.283 . S
C66 O58 1.304 1_545 S
C66 O60 1.272 . S
C67 O59 1.311 . S
C67 O61 1.231 1_554 S
O68 Zn50 1.953 . S
O68 C62 1.298 1_556 S
O69 Zn70 1.953 . S
O69 C85 1.225 . S
Zn70 O69 1.953 . S
Zn70 O71 1.949 . S
Zn70 O77 1.919 . S
Zn70 O82 1.924 . S
O71 Zn70 1.949 . S
O71 Zn72 1.923 . S
O71 Zn73 1.950 . S
O71 Zn74 1.945 . S
Zn72 O71 1.923 . S
Zn72 O75 1.933 . S
Zn72 O78 1.941 . S
Zn72 O79 1.965 . S
Zn73 O71 1.950 . S
Zn73 O80 1.938 . S
Zn73 O81 1.906 . S
Zn73 O91 1.953 . S
Zn74 O71 1.945 . S
Zn74 O76 1.932 . S
Zn74 O83 1.977 . S
Zn74 O84 1.910 . S
O75 Zn72 1.933 . S
O75 C86 1.226 . S
O76 Zn74 1.932 . S
O76 C86 1.307 . S
O77 Zn70 1.919 . S
O77 C88 1.253 . S
O78 Zn72 1.941 . S
O78 C88 1.283 . S
O79 Zn72 1.965 . S
O79 C87 1.303 . S
O80 Zn73 1.938 . S
O80 C87 1.247 . S
O81 Zn73 1.906 . S
O81 C89 1.304 . S
O82 Zn70 1.924 . S
O82 C90 1.311 . S
O83 Zn74 1.977 . S
O83 C89 1.272 . S
O84 Zn74 1.910 . S
O84 C90 1.231 . S
C85 O69 1.225 . S
C85 O91 1.298 . S
C86 O75 1.226 . S
C86 O76 1.307 . S
C87 O79 1.303 . S
C87 O80 1.247 . S
C88 O77 1.253 . S
C88 O78 1.283 . S
C89 O81 1.304 . S
C89 O83 1.272 . S
C90 O82 1.311 . S
C90 O84 1.231 . S
O91 Zn73 1.953 . S
O91 C85 1.298 . S
O92 Zn93 1.953 . S
O92 C108 1.225 . S
Zn93 O92 1.953 . S
Zn93 O94 1.949 . S
Zn93 O100 1.919 . S
Zn93 O105 1.924 . S
O94 Zn93 1.949 . S
O94 Zn95 1.923 1_565 S
O94 Zn96 1.950 . S
O94 Zn97 1.945 . S
Zn95 O94 1.923 1_545 S
Zn95 O98 1.933 . S
Zn95 O101 1.941 1_545 S
Zn95 O102 1.965 . S
Zn96 O94 1.950 . S
Zn96 O103 1.938 . S
Zn96 O104 1.906 . S
Zn96 O114 1.953 . S
Zn97 O94 1.945 . S
Zn97 O99 1.932 1_565 S
Zn97 O106 1.977 . S
Zn97 O107 1.910 . S
O98 Zn95 1.933 . S
O98 C109 1.226 . S
O99 Zn97 1.932 1_545 S
O99 C109 1.307 . S
O100 Zn93 1.919 . S
O100 C111 1.253 . S
O101 Zn95 1.941 1_565 S
O101 C111 1.283 . S
O102 Zn95 1.965 . S
O102 C110 1.303 1_545 S
O103 Zn96 1.938 . S
O103 C110 1.247 . S
O104 Zn96 1.906 . S
O104 C112 1.304 . S
O105 Zn93 1.924 . S
O105 C113 1.311 . S
O106 Zn97 1.977 . S
O106 C112 1.272 . S
O107 Zn97 1.910 . S
O107 C113 1.231 . S
C108 O92 1.225 . S
C108 O114 1.298 . S
C109 O98 1.226 . S
C109 O99 1.307 . S
C110 O102 1.303 1_565 S
C110 O103 1.247 . S
C111 O100 1.253 . S
C111 O101 1.283 . S
C112 O104 1.304 . S
C112 O106 1.272 . S
C113 O105 1.311 . S
C113 O107 1.231 . S
O114 Zn96 1.953 . S
O114 C108 1.298 . S
O115 Zn116 1.953 . S
O115 C131 1.225 . S
Zn116 O115 1.953 . S
Zn116 O117 1.949 . S
Zn116 O123 1.919 . S
Zn116 O128 1.924 . S
O117 Zn116 1.949 . S
O117 Zn118 1.923 . S
O117 Zn119 1.950 . S
O117 Zn120 1.945 . S
Zn118 O117 1.923 . S
Zn118 O121 1.933 1_455 S
Zn118 O124 1.941 . S
Zn118 O125 1.965 . S
Zn119 O117 1.950 . S
Zn119 O126 1.938 . S
Zn119 O127 1.906 . S
Zn119 O137 1.953 . S
Zn120 O117 1.945 . S
Zn120 O122 1.932 . S
Zn120 O129 1.977 . S
Zn120 O130 1.910 . S
O121 Zn118 1.933 1_655 S
O121 C132 1.226 . S
O122 Zn120 1.932 . S
O122 C132 1.307 1_455 S
O123 Zn116 1.919 . S
O123 C134 1.253 . S
O124 Zn118 1.941 . S
O124 C134 1.283 . S
O125 Zn118 1.965 . S
O125 C133 1.303 . S
O126 Zn119 1.938 . S
O126 C133 1.247 . S
O127 Zn119 1.906 . S
O127 C135 1.304 . S
O128 Zn116 1.924 . S
O128 C136 1.311 . S
O129 Zn120 1.977 . S
O129 C135 1.272 . S
O130 Zn120 1.910 . S
O130 C136 1.231 . S
C131 O115 1.225 . S
C131 O137 1.298 . S
C132 O121 1.226 . S
C132 O122 1.307 1_655 S
C133 O125 1.303 . S
C133 O126 1.247 . S
C134 O123 1.253 . S
C134 O124 1.283 . S
C135 O127 1.304 . S
C135 O129 1.272 . S
C136 O128 1.311 . S
C136 O130 1.231 . S
O137 Zn119 1.953 . S
O137 C131 1.298 . S
O138 Zn139 1.953 . S
O138 C154 1.225 . S
Zn139 O138 1.953 . S
Zn139 O140 1.949 . S
Zn139 O146 1.919 . S
Zn139 O151 1.924 . S
O140 Zn139 1.949 . S
O140 Zn141 1.923 . S
O140 Zn142 1.950 . S
O140 Zn143 1.945 . S
Zn141 O140 1.923 . S
Zn141 O144 1.933 . S
Zn141 O147 1.941 . S
Zn141 O148 1.965 1_545 S
Zn142 O140 1.950 . S
Zn142 O149 1.938 . S
Zn142 O150 1.906 . S
Zn142 O160 1.953 . S
Zn143 O140 1.945 . S
Zn143 O145 1.932 . S
Zn143 O152 1.977 . S
Zn143 O153 1.910 . S
O144 Zn141 1.933 . S
O144 C155 1.226 . S
O145 Zn143 1.932 . S
O145 C155 1.307 . S
O146 Zn139 1.919 . S
O146 C157 1.253 . S
O147 Zn141 1.941 . S
O147 C157 1.283 . S
O148 Zn141 1.965 1_565 S
O148 C156 1.303 . S
O149 Zn142 1.938 . S
O149 C156 1.247 1_545 S
O150 Zn142 1.906 . S
O150 C158 1.304 . S
O151 Zn139 1.924 . S
O151 C159 1.311 . S
O152 Zn143 1.977 . S
O152 C158 1.272 . S
O153 Zn143 1.910 . S
O153 C159 1.231 . S
C154 O138 1.225 . S
C154 O160 1.298 . S
C155 O144 1.226 . S
C155 O145 1.307 . S
C156 O148 1.303 . S
C156 O149 1.247 1_565 S
C157 O146 1.253 . S
C157 O147 1.283 . S
C158 O150 1.304 . S
C158 O152 1.272 . S
C159 O151 1.311 . S
C159 O153 1.231 . S
O160 Zn142 1.953 . S
O160 C154 1.298 . S
O161 Zn162 1.953 . S
O161 C177 1.225 . S
Zn162 O161 1.953 . S
Zn162 O163 1.949 . S
Zn162 O169 1.919 . S
Zn162 O174 1.924 . S
O163 Zn162 1.949 . S
O163 Zn164 1.923 . S
O163 Zn165 1.950 . S
O163 Zn166 1.945 . S
Zn164 O163 1.923 . S
Zn164 O167 1.933 . S
Zn164 O170 1.941 . S
Zn164 O171 1.965 1_655 S
Zn165 O163 1.950 . S
Zn165 O172 1.938 . S
Zn165 O173 1.906 . S
Zn165 O183 1.953 . S
Zn166 O163 1.945 . S
Zn166 O168 1.932 . S
Zn166 O175 1.977 . S
Zn166 O176 1.910 . S
O167 Zn164 1.933 . S
O167 C178 1.226 . S
O168 Zn166 1.932 . S
O168 C178 1.307 . S
O169 Zn162 1.919 . S
O169 C180 1.253 . S
O170 Zn164 1.941 . S
O170 C180 1.283 . S
O171 Zn164 1.965 1_455 S
O171 C179 1.303 . S
O172 Zn165 1.938 . S
O172 C179 1.247 1_655 S
O173 Zn165 1.906 . S
O173 C181 1.304 . S
O174 Zn162 1.924 . S
O174 C182 1.311 . S
O175 Zn166 1.977 . S
O175 C181 1.272 . S
O176 Zn166 1.910 . S
O176 C182 1.231 . S
C177 O161 1.225 . S
C177 O183 1.298 . S
C178 O167 1.226 . S
C178 O168 1.307 . S
C179 O171 1.303 . S
C179 O172 1.247 1_455 S
C180 O169 1.253 . S
C180 O170 1.283 . S
C181 O173 1.304 . S
C181 O175 1.272 . S
C182 O174 1.311 . S
C182 O176 1.231 . S
O183 Zn165 1.953 . S
O183 C177 1.298 . S
O184 Zn185 1.953 . S
O184 C200 1.225 . S
Zn185 O184 1.953 . S
Zn185 O186 1.949 . S
Zn185 O192 1.919 . S
Zn185 O197 1.924 . S
O186 Zn185 1.949 . S
O186 Zn187 1.923 . S
O186 Zn188 1.950 . S
O186 Zn189 1.945 . S
Zn187 O186 1.923 . S
Zn187 O190 1.933 . S
Zn187 O193 1.941 . S
Zn187 O194 1.965 . S
Zn188 O186 1.950 . S
Zn188 O195 1.938 . S
Zn188 O196 1.906 . S
Zn188 O206 1.953 . S
Zn189 O186 1.945 . S
Zn189 O191 1.932 . S
Zn189 O198 1.977 . S
Zn189 O199 1.910 . S
O190 Zn187 1.933 . S
O190 C201 1.226 . S
O191 Zn189 1.932 . S
O191 C201 1.307 . S
O192 Zn185 1.919 . S
O192 C203 1.253 . S
O193 Zn187 1.941 . S
O193 C203 1.283 . S
O194 Zn187 1.965 . S
O194 C202 1.303 . S
O195 Zn188 1.938 . S
O195 C202 1.247 . S
O196 Zn188 1.906 . S
O196 C204 1.304 . S
O197 Zn185 1.924 . S
O197 C205 1.311 . S
O198 Zn189 1.977 . S
O198 C204 1.272 . S
O199 Zn189 1.910 . S
O199 C205 1.231 . S
C200 O184 1.225 . S
C200 O206 1.298 . S
C201 O190 1.226 . S
C201 O191 1.307 . S
C202 O194 1.303 . S
C202 O195 1.247 . S
C203 O192 1.253 . S
C203 O193 1.283 . S
C204 O196 1.304 . S
C204 O198 1.272 . S
C205 O197 1.311 . S
C205 O199 1.231 . S
O206 Zn188 1.953 . S
O206 C200 1.298 . S
H207 C219 0.930 . S
H208 C221 0.930 . S
H209 C222 0.930 . S
H210 C226 0.959 . S
H211 C226 0.959 . S
H212 C226 0.961 . S
H213 C227 0.960 . S
H214 C227 0.961 . S
H215 C227 0.959 . S
H216 C230 0.929 . S
H217 C231 0.931 . S
H218 C233 0.930 . S
C219 H207 0.930 . S
C219 C220 1.420 . S
C219 C224 1.399 . S
C220 C219 1.420 . S
C220 C221 1.351 1_554 S
C221 H208 0.930 . S
C221 C220 1.351 1_556 S
C221 C222 1.388 . S
C222 H209 0.930 . S
C222 C221 1.388 . S
C222 C223 1.390 . S
C223 C222 1.390 . S
C223 C224 1.394 1_556 S
C223 C229 1.465 . S
C224 C219 1.399 . S
C224 C223 1.394 1_554 S
C224 C225 1.516 . S
C225 C224 1.516 . S
C225 C226 1.502 . S
C225 C227 1.561 . S
C225 C228 1.526 . S
C226 H210 0.959 . S
C226 H211 0.959 . S
C226 H212 0.961 . S
C226 C225 1.502 . S
C227 H213 0.960 . S
C227 H214 0.961 . S
C227 H215 0.959 . S
C227 C225 1.561 . S
C228 C225 1.526 . S
C228 C229 1.396 1_554 S
C228 C233 1.390 . S
C229 C223 1.465 . S
C229 C228 1.396 1_556 S
C229 C230 1.399 . S
C230 H216 0.929 . S
C230 C229 1.399 . S
C230 C231 1.385 . S
C231 H217 0.931 . S
C231 C230 1.385 . S
C231 C232 1.399 . S
C232 C231 1.399 . S
C232 C233 1.379 1_556 S
C233 H218 0.930 . S
C233 C228 1.390 . S
C233 C232 1.379 1_554 S
H234 C246 0.930 . S
H235 C248 0.930 . S
H236 C249 0.930 . S
H237 C253 0.959 1_554 S
H238 C253 0.959 . S
H239 C253 0.961 . S
H240 C254 0.960 . S
H241 C254 0.961 . S
H242 C254 0.959 . S
H243 C257 0.929 . S
H244 C258 0.931 . S
H245 C260 0.930 . S
C246 H234 0.930 . S
C246 C247 1.399 1_556 S
C246 C251 1.399 . S
C247 C246 1.399 1_554 S
C247 C248 1.376 . S
C248 H235 0.930 . S
C248 C247 1.376 . S
C248 C249 1.388 . S
C249 H236 0.930 . S
C249 C248 1.388 . S
C249 C250 1.390 . S
C250 C249 1.390 . S
C250 C251 1.394 1_554 S
C250 C256 1.465 . S
C251 C246 1.399 . S
C251 C250 1.394 1_556 S
C251 C252 1.516 . S
C252 C251 1.516 . S
C252 C253 1.502 . S
C252 C254 1.561 . S
C252 C255 1.526 . S
C253 H237 0.959 1_556 S
C253 H238 0.959 . S
C253 H239 0.961 . S
C253 C252 1.502 . S
C254 H240 0.960 . S
C254 H241 0.961 . S
C254 H242 0.959 . S
C254 C252 1.561 . S
C255 C252 1.526 . S
C255 C256 1.396 1_556 S
C255 C260 1.390 . S
C256 C250 1.465 . S
C256 C255 1.396 1_554 S
C256 C257 1.399 . S
C257 H243 0.929 . S
C257 C256 1.399 . S
C257 C258 1.385 . S
C258 H244 0.931 . S
C258 C257 1.385 . S
C258 C259 1.396 . S
C259 C258 1.396 . S
C259 C260 1.381 1_554 S
C260 H245 0.930 . S
C260 C255 1.390 . S
C260 C259 1.381 1_556 S
H261 C273 0.930 . S
H262 C275 0.930 . S
H263 C276 0.930 . S
H264 C280 0.959 . S
H265 C280 0.959 . S
H266 C280 0.961 . S
H267 C281 0.960 . S
H268 C281 0.961 . S
H269 C281 0.959 . S
H270 C284 0.929 . S
H271 C285 0.931 . S
H272 C287 0.930 . S
C273 H261 0.930 . S
C273 C274 1.425 . S
C273 C278 1.399 . S
C274 C273 1.425 . S
C274 C275 1.345 1_554 S
C275 H262 0.930 . S
C275 C274 1.345 1_556 S
C275 C276 1.388 . S
C276 H263 0.930 . S
C276 C275 1.388 . S
C276 C277 1.390 . S
C277 C276 1.390 . S
C277 C278 1.394 1_556 S
C277 C283 1.465 . S
C278 C273 1.399 . S
C278 C277 1.394 1_554 S
C278 C279 1.516 . S
C279 C278 1.516 . S
C279 C280 1.502 . S
C279 C281 1.561 . S
C279 C282 1.526 . S
C280 H264 0.959 . S
C280 H265 0.959 . S
C280 H266 0.961 . S
C280 C279 1.502 . S
C281 H267 0.960 . S
C281 H268 0.961 . S
C281 H269 0.959 . S
C281 C279 1.561 . S
C282 C279 1.526 . S
C282 C283 1.396 1_554 S
C282 C287 1.390 . S
C283 C277 1.465 . S
C283 C282 1.396 1_556 S
C283 C284 1.399 . S
C284 H270 0.929 . S
C284 C283 1.399 . S
C284 C285 1.385 . S
C285 H271 0.931 . S
C285 C284 1.385 . S
C285 C286 1.368 1_556 S
C286 C285 1.368 1_554 S
C286 C287 1.405 . S
C287 H272 0.930 . S
C287 C282 1.390 . S
C287 C286 1.405 . S
H288 C300 0.930 . S
H289 C302 0.930 . S
H290 C303 0.930 . S
H291 C307 0.959 . S
H292 C307 0.959 . S
H293 C307 0.961 . S
H294 C308 0.960 . S
H295 C308 0.961 . S
H296 C308 0.959 . S
H297 C311 0.929 . S
H298 C312 0.931 . S
H299 C314 0.930 . S
C300 H288 0.930 . S
C300 C301 1.399 1_556 S
C300 C305 1.399 . S
C301 C300 1.399 1_554 S
C301 C302 1.376 . S
C302 H289 0.930 . S
C302 C301 1.376 . S
C302 C303 1.388 . S
C303 H290 0.930 . S
C303 C302 1.388 . S
C303 C304 1.390 . S
C304 C303 1.390 . S
C304 C305 1.394 1_554 S
C304 C310 1.465 . S
C305 C300 1.399 . S
C305 C304 1.394 1_556 S
C305 C306 1.516 . S
C306 C305 1.516 . S
C306 C307 1.502 . S
C306 C308 1.561 . S
C306 C309 1.526 . S
C307 H291 0.959 . S
C307 H292 0.959 . S
C307 H293 0.961 . S
C307 C306 1.502 . S
C308 H294 0.960 . S
C308 H295 0.961 . S
C308 H296 0.959 . S
C308 C306 1.561 . S
C309 C306 1.526 . S
C309 C310 1.396 1_556 S
C309 C314 1.390 . S
C310 C304 1.465 . S
C310 C309 1.396 1_554 S
C310 C311 1.399 . S
C311 H297 0.929 . S
C311 C310 1.399 . S
C311 C312 1.385 . S
C312 H298 0.931 . S
C312 C311 1.385 . S
C312 C313 1.389 . S
C313 C312 1.389 . S
C313 C314 1.387 1_554 S
C314 H299 0.930 . S
C314 C309 1.390 . S
C314 C313 1.387 1_556 S
H315 C327 0.930 . S
H316 C329 0.930 . S
H317 C330 0.930 . S
H318 C334 0.959 . S
H319 C334 0.959 . S
H320 C334 0.961 . S
H321 C335 0.960 . S
H322 C335 0.961 . S
H323 C335 0.959 . S
H324 C338 0.929 . S
H325 C339 0.931 . S
H326 C341 0.930 . S
C327 H315 0.930 . S
C327 C328 1.399 1_556 S
C327 C332 1.399 . S
C328 C327 1.399 1_554 S
C328 C329 1.376 . S
C329 H316 0.930 . S
C329 C328 1.376 . S
C329 C330 1.388 . S
C330 H317 0.930 . S
C330 C329 1.388 . S
C330 C331 1.390 . S
C331 C330 1.390 . S
C331 C332 1.394 1_554 S
C331 C337 1.465 . S
C332 C327 1.399 . S
C332 C331 1.394 1_556 S
C332 C333 1.516 . S
C333 C332 1.516 . S
C333 C334 1.502 . S
C333 C335 1.561 . S
C333 C336 1.526 . S
C334 H318 0.959 . S
C334 H319 0.959 . S
C334 H320 0.961 . S
C334 C333 1.502 . S
C335 H321 0.960 . S
C335 H322 0.961 . S
C335 H323 0.959 . S
C335 C333 1.561 . S
C336 C333 1.526 . S
C336 C337 1.396 1_556 S
C336 C341 1.390 . S
C337 C331 1.465 . S
C337 C336 1.396 1_554 S
C337 C338 1.399 . S
C338 H324 0.929 . S
C338 C337 1.399 . S
C338 C339 1.385 . S
C339 H325 0.931 . S
C339 C338 1.385 . S
C339 C340 1.389 . S
C340 C339 1.389 . S
C340 C341 1.387 1_554 S
C341 H326 0.930 . S
C341 C336 1.390 . S
C341 C340 1.387 1_556 S
H342 C354 0.930 . S
H343 C356 0.930 . S
H344 C357 0.930 . S
H345 C361 0.959 . S
H346 C361 0.959 . S
H347 C361 0.961 . S
H348 C362 0.960 . S
H349 C362 0.961 . S
H350 C362 0.959 . S
H351 C365 0.929 . S
H352 C366 0.931 . S
H353 C368 0.930 . S
C354 H342 0.930 . S
C354 C355 1.399 1_556 S
C354 C359 1.399 . S
C355 C354 1.399 1_554 S
C355 C356 1.376 . S
C356 H343 0.930 . S
C356 C355 1.376 . S
C356 C357 1.388 . S
C357 H344 0.930 . S
C357 C356 1.388 . S
C357 C358 1.390 . S
C358 C357 1.390 . S
C358 C359 1.394 1_554 S
C358 C364 1.465 . S
C359 C354 1.399 . S
C359 C358 1.394 1_556 S
C359 C360 1.516 . S
C360 C359 1.516 . S
C360 C361 1.502 . S
C360 C362 1.561 . S
C360 C363 1.526 . S
C361 H345 0.959 . S
C361 H346 0.959 . S
C361 H347 0.961 . S
C361 C360 1.502 . S
C362 H348 0.960 . S
C362 H349 0.961 . S
C362 H350 0.959 . S
C362 C360 1.561 . S
C363 C360 1.526 . S
C363 C364 1.396 1_556 S
C363 C368 1.390 . S
C364 C358 1.465 . S
C364 C363 1.396 1_554 S
C364 C365 1.399 . S
C365 H351 0.929 . S
C365 C364 1.399 . S
C365 C366 1.385 . S
C366 H352 0.931 . S
C366 C365 1.385 . S
C366 C367 1.389 . S
C367 C366 1.389 . S
C367 C368 1.387 1_554 S
C368 H353 0.930 . S
C368 C363 1.390 . S
C368 C367 1.387 1_556 S
H369 C381 0.930 . S
H370 C383 0.930 . S
H371 C384 0.930 . S
H372 C388 0.959 . S
H373 C388 0.959 . S
H374 C388 0.961 . S
H375 C389 0.960 . S
H376 C389 0.954 1_455 S
H377 C389 0.959 . S
H378 C392 0.929 1_655 S
H379 C393 0.931 . S
H380 C395 0.930 . S
C381 H369 0.930 . S
C381 C382 1.399 . S
C381 C386 1.399 . S
C382 C381 1.399 . S
C382 C383 1.376 . S
C383 H370 0.930 . S
C383 C382 1.376 . S
C383 C384 1.388 . S
C384 H371 0.930 . S
C384 C383 1.388 . S
C384 C385 1.390 . S
C385 C384 1.390 . S
C385 C386 1.394 . S
C385 C391 1.465 . S
C386 C381 1.399 . S
C386 C385 1.394 . S
C386 C387 1.516 . S
C387 C386 1.516 . S
C387 C388 1.502 . S
C387 C389 1.561 . S
C387 C390 1.526 1_655 S
C388 H372 0.959 . S
C388 H373 0.959 . S
C388 H374 0.961 . S
C388 C387 1.502 . S
C389 H375 0.960 . S
C389 H376 0.954 1_655 S
C389 H377 0.959 . S
C389 C387 1.561 . S
C390 C387 1.526 1_455 S
C390 C391 1.396 1_455 S
C390 C395 1.390 . S
C391 C385 1.465 . S
C391 C390 1.396 1_655 S
C391 C392 1.399 1_655 S
C392 H378 0.929 1_455 S
C392 C391 1.399 1_455 S
C392 C393 1.385 . S
C393 H379 0.931 . S
C393 C392 1.385 . S
C393 C394 1.389 . S
C394 C393 1.389 . S
C394 C395 1.387 . S
C395 H380 0.930 . S
C395 C390 1.390 . S
C395 C394 1.387 . S
H396 C408 0.930 . S
H397 C410 0.930 . S
H398 C411 0.930 . S
H399 C415 0.959 . S
H400 C415 0.959 . S
H401 C415 0.961 . S
H402 C416 0.960 . S
H403 C416 0.961 . S
H404 C416 0.959 . S
H405 C419 0.929 . S
H406 C420 0.931 . S
H407 C422 0.930 . S
C408 H396 0.930 . S
C408 C409 1.399 . S
C408 C413 1.399 . S
C409 C408 1.399 . S
C409 C410 1.376 . S
C410 H397 0.930 . S
C410 C409 1.376 . S
C410 C411 1.388 . S
C411 H398 0.930 . S
C411 C410 1.388 . S
C411 C412 1.390 . S
C412 C411 1.390 . S
C412 C413 1.394 . S
C412 C418 1.465 . S
C413 C408 1.399 . S
C413 C412 1.394 . S
C413 C414 1.516 . S
C414 C413 1.516 . S
C414 C415 1.502 . S
C414 C416 1.561 . S
C414 C417 1.526 . S
C415 H399 0.959 . S
C415 H400 0.959 . S
C415 H401 0.961 . S
C415 C414 1.502 . S
C416 H402 0.960 . S
C416 H403 0.961 . S
C416 H404 0.959 . S
C416 C414 1.561 . S
C417 C414 1.526 . S
C417 C418 1.396 . S
C417 C422 1.390 . S
C418 C412 1.465 . S
C418 C417 1.396 . S
C418 C419 1.399 . S
C419 H405 0.929 . S
C419 C418 1.399 . S
C419 C420 1.385 . S
C420 H406 0.931 . S
C420 C419 1.385 . S
C420 C421 1.389 . S
C421 C420 1.389 . S
C421 C422 1.387 . S
C422 H407 0.930 . S
C422 C417 1.390 . S
C422 C421 1.387 . S
H423 C435 0.930 . S
H424 C437 0.930 . S
H425 C438 0.930 . S
H426 C442 0.959 . S
H427 C442 0.959 . S
H428 C442 0.961 . S
H429 C443 0.960 . S
H430 C443 0.961 . S
H431 C443 0.959 . S
H432 C446 0.929 . S
H433 C447 0.931 . S
H434 C449 0.926 1_565 S
C435 H423 0.930 . S
C435 C436 1.399 . S
C435 C440 1.399 . S
C436 C435 1.399 . S
C436 C437 1.376 . S
C437 H424 0.930 . S
C437 C436 1.376 . S
C437 C438 1.388 . S
C438 H425 0.930 . S
C438 C437 1.388 . S
C438 C439 1.390 . S
C439 C438 1.390 . S
C439 C440 1.394 . S
C439 C445 1.465 . S
C440 C435 1.399 . S
C440 C439 1.394 . S
C440 C441 1.516 . S
C441 C440 1.516 . S
C441 C442 1.502 . S
C441 C443 1.561 . S
C441 C444 1.526 . S
C442 H426 0.959 . S
C442 H427 0.959 . S
C442 H428 0.961 . S
C442 C441 1.502 . S
C443 H429 0.960 . S
C443 H430 0.961 . S
C443 H431 0.959 . S
C443 C441 1.561 . S
C444 C441 1.526 . S
C444 C445 1.396 . S
C444 C449 1.390 . S
C445 C439 1.465 . S
C445 C444 1.396 . S
C445 C446 1.399 . S
C446 H432 0.929 . S
C446 C445 1.399 . S
C446 C447 1.385 1_545 S
C447 H433 0.931 . S
C447 C446 1.385 1_565 S
C447 C448 1.389 . S
C448 C447 1.389 . S
C448 C449 1.387 1_565 S
C449 H434 0.926 1_545 S
C449 C444 1.390 . S
C449 C448 1.387 1_545 S
H450 C462 0.930 . S
H451 C464 0.930 . S
H452 C465 0.930 . S
H453 C469 0.959 . S
H454 C469 0.959 . S
H455 C469 0.961 . S
H456 C470 0.960 . S
H457 C470 0.961 . S
H458 C470 0.959 . S
H459 C473 0.929 . S
H460 C474 0.931 . S
H461 C476 0.930 . S
C462 H450 0.930 . S
C462 C463 1.399 . S
C462 C467 1.399 . S
C463 C462 1.399 . S
C463 C464 1.376 . S
C464 H451 0.930 . S
C464 C463 1.376 . S
C464 C465 1.388 . S
C465 H452 0.930 . S
C465 C464 1.388 . S
C465 C466 1.390 . S
C466 C465 1.390 . S
C466 C467 1.394 . S
C466 C472 1.465 . S
C467 C462 1.399 . S
C467 C466 1.394 . S
C467 C468 1.516 . S
C468 C467 1.516 . S
C468 C469 1.502 . S
C468 C470 1.561 . S
C468 C471 1.526 . S
C469 H453 0.959 . S
C469 H454 0.959 . S
C469 H455 0.961 . S
C469 C468 1.502 . S
C470 H456 0.960 . S
C470 H457 0.961 . S
C470 H458 0.959 . S
C470 C468 1.561 . S
C471 C468 1.526 . S
C471 C472 1.396 . S
C471 C476 1.390 . S
C472 C466 1.465 . S
C472 C471 1.396 . S
C472 C473 1.399 . S
C473 H459 0.929 . S
C473 C472 1.399 . S
C473 C474 1.385 . S
C474 H460 0.931 . S
C474 C473 1.385 . S
C474 C475 1.389 . S
C475 C474 1.389 . S
C475 C476 1.387 . S
C476 H461 0.930 . S
C476 C471 1.390 . S
C476 C475 1.387 . S
H477 C489 0.930 . S
H478 C491 0.930 . S
H479 C492 0.930 . S
H480 C496 0.959 . S
H481 C496 0.959 . S
H482 C496 0.961 . S
H483 C497 0.960 . S
H484 C497 0.961 . S
H485 C497 0.959 . S
H486 C500 0.929 . S
H487 C501 0.931 . S
H488 C503 0.930 . S
C489 H477 0.930 . S
C489 C490 1.399 . S
C489 C494 1.399 . S
C490 C489 1.399 . S
C490 C491 1.376 . S
C491 H478 0.930 . S
C491 C490 1.376 . S
C491 C492 1.388 . S
C492 H479 0.930 . S
C492 C491 1.388 . S
C492 C493 1.390 . S
C493 C492 1.390 . S
C493 C494 1.394 . S
C493 C499 1.465 . S
C494 C489 1.399 . S
C494 C493 1.394 . S
C494 C495 1.516 . S
C495 C494 1.516 . S
C495 C496 1.502 . S
C495 C497 1.561 . S
C495 C498 1.526 . S
C496 H480 0.959 . S
C496 H481 0.959 . S
C496 H482 0.961 . S
C496 C495 1.502 . S
C497 H483 0.960 . S
C497 H484 0.961 . S
C497 H485 0.959 . S
C497 C495 1.561 . S
C498 C495 1.526 . S
C498 C499 1.396 . S
C498 C503 1.390 . S
C499 C493 1.465 . S
C499 C498 1.396 . S
C499 C500 1.399 . S
C500 H486 0.929 . S
C500 C499 1.399 . S
C500 C501 1.385 . S
C501 H487 0.931 . S
C501 C500 1.385 . S
C501 C502 1.389 . S
C502 C501 1.389 . S
C502 C503 1.387 . S
C503 H488 0.930 . S
C503 C498 1.390 . S
C503 C502 1.387 . S
H504 C516 0.930 . S
H505 C518 0.930 1_545 S
H506 C519 0.930 . S
H507 C523 0.959 . S
H508 C523 0.959 . S
H509 C523 0.961 . S
H510 C524 0.960 . S
H511 C524 0.961 . S
H512 C524 0.959 . S
H513 C527 0.929 . S
H514 C528 0.931 . S
H515 C530 0.930 . S
C516 H504 0.930 . S
C516 C517 1.399 . S
C516 C521 1.399 . S
C517 C516 1.399 . S
C517 C518 1.376 . S
C518 H505 0.930 1_565 S
C518 C517 1.376 . S
C518 C519 1.388 . S
C519 H506 0.930 . S
C519 C518 1.388 . S
C519 C520 1.390 . S
C520 C519 1.390 . S
C520 C521 1.394 . S
C520 C526 1.465 . S
C521 C516 1.399 . S
C521 C520 1.394 . S
C521 C522 1.516 . S
C522 C521 1.516 . S
C522 C523 1.502 . S
C522 C524 1.561 . S
C522 C525 1.526 . S
C523 H507 0.959 . S
C523 H508 0.959 . S
C523 H509 0.961 . S
C523 C522 1.502 . S
C524 H510 0.960 . S
C524 H511 0.961 . S
C524 H512 0.959 . S
C524 C522 1.561 . S
C525 C522 1.526 . S
C525 C526 1.396 . S
C525 C530 1.390 . S
C526 C520 1.465 . S
C526 C525 1.396 . S
C526 C527 1.399 . S
C527 H513 0.929 . S
C527 C526 1.399 . S
C527 C528 1.385 . S
C528 H514 0.931 . S
C528 C527 1.385 . S
C528 C529 1.389 . S
C529 C528 1.389 . S
C529 C530 1.387 . S
C530 H515 0.930 . S
C530 C525 1.390 . S
C530 C529 1.387 . S
H531 C543 0.930 . S
H532 C545 0.930 . S
H533 C546 0.930 . S
H534 C550 0.959 . S
H535 C550 0.959 . S
H536 C550 0.961 . S
H537 C551 0.960 . S
H538 C551 0.961 . S
H539 C551 0.959 . S
H540 C554 0.929 . S
H541 C555 0.931 . S
H542 C557 0.930 . S
C543 H531 0.930 . S
C543 C544 1.399 . S
C543 C548 1.399 . S
C544 C543 1.399 . S
C544 C545 1.376 . S
C545 H532 0.930 . S
C545 C544 1.376 . S
C545 C546 1.388 . S
C546 H533 0.930 . S
C546 C545 1.388 . S
C546 C547 1.390 . S
C547 C546 1.390 . S
C547 C548 1.394 . S
C547 C553 1.465 . S
C548 C543 1.399 . S
C548 C547 1.394 . S
C548 C549 1.516 . S
C549 C548 1.516 . S
C549 C550 1.502 . S
C549 C551 1.561 . S
C549 C552 1.526 . S
C550 H534 0.959 . S
C550 H535 0.959 . S
C550 H536 0.961 . S
C550 C549 1.502 . S
C551 H537 0.960 . S
C551 H538 0.961 . S
C551 H539 0.959 . S
C551 C549 1.561 . S
C552 C549 1.526 . S
C552 C553 1.396 . S
C552 C557 1.390 . S
C553 C547 1.465 . S
C553 C552 1.396 . S
C553 C554 1.399 . S
C554 H540 0.929 . S
C554 C553 1.399 . S
C554 C555 1.385 . S
C555 H541 0.931 . S
C555 C554 1.385 . S
C555 C556 1.389 . S
C556 C555 1.389 . S
C556 C557 1.387 . S
C557 H542 0.930 . S
C557 C552 1.390 . S
C557 C556 1.387 . S
H558 C570 0.930 . S
H559 C572 0.930 . S
H560 C573 0.930 . S
H561 C577 0.959 . S
H562 C577 0.959 . S
H563 C577 0.961 . S
H564 C578 0.960 . S
H565 C578 0.961 . S
H566 C578 0.959 . S
H567 C581 0.929 . S
H568 C582 0.931 . S
H569 C584 0.930 . S
C570 H558 0.930 . S
C570 C571 1.399 . S
C570 C575 1.399 . S
C571 C570 1.399 . S
C571 C572 1.376 . S
C572 H559 0.930 . S
C572 C571 1.376 . S
C572 C573 1.388 . S
C573 H560 0.930 . S
C573 C572 1.388 . S
C573 C574 1.390 . S
C574 C573 1.390 . S
C574 C575 1.394 . S
C574 C580 1.465 . S
C575 C570 1.399 . S
C575 C574 1.394 . S
C575 C576 1.516 . S
C576 C575 1.516 . S
C576 C577 1.502 . S
C576 C578 1.561 . S
C576 C579 1.526 . S
C577 H561 0.959 . S
C577 H562 0.959 . S
C577 H563 0.961 . S
C577 C576 1.502 . S
C578 H564 0.960 . S
C578 H565 0.961 . S
C578 H566 0.959 . S
C578 C576 1.561 . S
C579 C576 1.526 . S
C579 C580 1.396 . S
C579 C584 1.390 . S
C580 C574 1.465 . S
C580 C579 1.396 . S
C580 C581 1.399 . S
C581 H567 0.929 . S
C581 C580 1.399 . S
C581 C582 1.385 . S
C582 H568 0.931 . S
C582 C581 1.385 . S
C582 C583 1.389 . S
C583 C582 1.389 . S
C583 C584 1.387 . S
C584 H569 0.930 . S
C584 C579 1.390 . S
C584 C583 1.387 . S
H585 C597 0.930 . S
H586 C599 0.930 . S
H587 C600 0.930 . S
H588 C604 0.959 . S
H589 C604 0.959 . S
H590 C604 0.961 . S
H591 C605 0.960 . S
H592 C605 0.961 . S
H593 C605 0.959 . S
H594 C608 0.929 . S
H595 C609 0.931 . S
H596 C611 0.930 . S
C597 H585 0.930 . S
C597 C598 1.399 . S
C597 C602 1.399 . S
C598 C597 1.399 . S
C598 C599 1.376 . S
C599 H586 0.930 . S
C599 C598 1.376 . S
C599 C600 1.388 . S
C600 H587 0.930 . S
C600 C599 1.388 . S
C600 C601 1.390 . S
C601 C600 1.390 . S
C601 C602 1.394 . S
C601 C607 1.465 . S
C602 C597 1.399 . S
C602 C601 1.394 . S
C602 C603 1.516 . S
C603 C602 1.516 . S
C603 C604 1.502 . S
C603 C605 1.561 . S
C603 C606 1.526 . S
C604 H588 0.959 . S
C604 H589 0.959 . S
C604 H590 0.961 . S
C604 C603 1.502 . S
C605 H591 0.960 . S
C605 H592 0.961 . S
C605 H593 0.959 . S
C605 C603 1.561 . S
C606 C603 1.526 . S
C606 C607 1.396 . S
C606 C611 1.390 . S
C607 C601 1.465 . S
C607 C606 1.396 . S
C607 C608 1.399 . S
C608 H594 0.929 . S
C608 C607 1.399 . S
C608 C609 1.385 . S
C609 H595 0.931 . S
C609 C608 1.385 . S
C609 C610 1.389 . S
C610 C609 1.389 . S
C610 C611 1.387 . S
C611 H596 0.930 . S
C611 C606 1.390 . S
C611 C610 1.387 . S
H612 C624 0.930 . S
H613 C626 0.930 . S
H614 C627 0.930 . S
H615 C631 0.959 . S
H616 C631 0.959 . S
H617 C631 0.961 . S
H618 C632 0.960 . S
H619 C632 0.961 . S
H620 C632 0.959 . S
H621 C635 0.933 . S
H622 C636 0.931 . S
H623 C638 0.930 . S
C624 H612 0.930 . S
C624 C625 1.399 . S
C624 C629 1.399 . S
C625 C624 1.399 . S
C625 C626 1.376 . S
C626 H613 0.930 . S
C626 C625 1.376 . S
C626 C627 1.388 . S
C627 H614 0.930 . S
C627 C626 1.388 . S
C627 C628 1.390 . S
C628 C627 1.390 . S
C628 C629 1.394 . S
C628 C634 1.465 . S
C629 C624 1.399 . S
C629 C628 1.394 . S
C629 C630 1.516 . S
C630 C629 1.516 . S
C630 C631 1.502 . S
C630 C632 1.561 . S
C630 C633 1.526 . S
C631 H615 0.959 . S
C631 H616 0.959 . S
C631 H617 0.961 . S
C631 C630 1.502 . S
C632 H618 0.960 . S
C632 H619 0.961 . S
C632 H620 0.959 . S
C632 C630 1.561 . S
C633 C630 1.526 . S
C633 C634 1.396 . S
C633 C638 1.390 1_565 S
C634 C628 1.465 . S
C634 C633 1.396 . S
C634 C635 1.399 1_565 S
C635 H621 0.933 . S
C635 C634 1.399 1_545 S
C635 C636 1.385 . S
C636 H622 0.931 . S
C636 C635 1.385 . S
C636 C637 1.389 . S
C637 C636 1.389 . S
C637 C638 1.387 . S
C638 H623 0.930 . S
C638 C633 1.390 1_545 S
C638 C637 1.387 . S
H639 C651 0.930 . S
H640 C653 0.930 . S
H641 C654 0.930 . S
H642 C658 0.959 . S
H643 C658 0.959 . S
H644 C658 0.961 . S
H645 C659 0.960 . S
H646 C659 0.961 . S
H647 C659 0.959 . S
H648 C662 0.929 . S
H649 C663 0.931 1_545 S
H650 C665 0.930 . S
C651 H639 0.930 . S
C651 C652 1.399 . S
C651 C656 1.399 1_655 S
C652 C651 1.399 . S
C652 C653 1.376 . S
C653 H640 0.930 . S
C653 C652 1.376 . S
C653 C654 1.388 1_655 S
C654 H641 0.930 . S
C654 C653 1.388 1_455 S
C654 C655 1.390 . S
C655 C654 1.390 . S
C655 C656 1.394 . S
C655 C661 1.465 . S
C656 C651 1.399 1_455 S
C656 C655 1.394 . S
C656 C657 1.516 . S
C657 C656 1.516 . S
C657 C658 1.502 . S
C657 C659 1.561 . S
C657 C660 1.526 . S
C658 H642 0.959 . S
C658 H643 0.959 . S
C658 H644 0.961 . S
C658 C657 1.502 . S
C659 H645 0.960 . S
C659 H646 0.961 . S
C659 H647 0.959 . S
C659 C657 1.561 . S
C660 C657 1.526 . S
C660 C661 1.396 . S
C660 C665 1.390 . S
C661 C655 1.465 . S
C661 C660 1.396 . S
C661 C662 1.399 . S
C662 H648 0.929 . S
C662 C661 1.399 . S
C662 C663 1.385 . S
C663 H649 0.931 1_565 S
C663 C662 1.385 . S
C663 C664 1.389 . S
C664 C663 1.389 . S
C664 C665 1.387 . S
C665 H650 0.930 . S
C665 C660 1.390 . S
C665 C664 1.387 . S
H666 C678 0.930 . S
H667 C680 0.930 . S
H668 C681 0.930 . S
H669 C685 0.959 . S
H670 C685 0.959 . S
H671 C685 0.961 . S
H672 C686 0.960 . S
H673 C686 0.961 . S
H674 C686 0.959 . S
H675 C689 0.929 . S
H676 C690 0.931 . S
H677 C692 0.930 . S
C678 H666 0.930 . S
C678 C679 1.399 . S
C678 C683 1.399 . S
C679 C678 1.399 . S
C679 C680 1.376 . S
C680 H667 0.930 . S
C680 C679 1.376 . S
C680 C681 1.388 . S
C681 H668 0.930 . S
C681 C680 1.388 . S
C681 C682 1.390 . S
C682 C681 1.390 . S
C682 C683 1.394 . S
C682 C688 1.465 . S
C683 C678 1.399 . S
C683 C682 1.394 . S
C683 C684 1.516 . S
C684 C683 1.516 . S
C684 C685 1.502 . S
C684 C686 1.561 . S
C684 C687 1.526 . S
C685 H669 0.959 . S
C685 H670 0.959 . S
C685 H671 0.961 . S
C685 C684 1.502 . S
C686 H672 0.960 . S
C686 H673 0.961 . S
C686 H674 0.959 . S
C686 C684 1.561 . S
C687 C684 1.526 . S
C687 C688 1.396 . S
C687 C692 1.390 . S
C688 C682 1.465 . S
C688 C687 1.396 . S
C688 C689 1.399 . S
C689 H675 0.929 . S
C689 C688 1.399 . S
C689 C690 1.385 . S
C690 H676 0.931 . S
C690 C689 1.385 . S
C690 C691 1.389 . S
C691 C690 1.389 . S
C691 C692 1.387 . S
C692 H677 0.930 . S
C692 C687 1.390 . S
C692 C691 1.387 . S
H693 C705 0.930 . S
H694 C707 0.930 . S
H695 C708 0.930 . S
H696 C712 0.959 . S
H697 C712 0.959 . S
H698 C712 0.961 . S
H699 C713 0.960 . S
H700 C713 0.961 . S
H701 C713 0.959 1_655 S
H702 C716 0.929 . S
H703 C717 0.931 . S
H704 C719 0.930 . S
C705 H693 0.930 . S
C705 C706 1.399 . S
C705 C710 1.399 . S
C706 C705 1.399 . S
C706 C707 1.376 . S
C707 H694 0.930 . S
C707 C706 1.376 . S
C707 C708 1.388 . S
C708 H695 0.930 . S
C708 C707 1.388 . S
C708 C709 1.390 . S
C709 C708 1.390 . S
C709 C710 1.394 . S
C709 C715 1.465 . S
C710 C705 1.399 . S
C710 C709 1.394 . S
C710 C711 1.516 . S
C711 C710 1.516 . S
C711 C712 1.502 . S
C711 C713 1.561 . S
C711 C714 1.526 . S
C712 H696 0.959 . S
C712 H697 0.959 . S
C712 H698 0.961 . S
C712 C711 1.502 . S
C713 H699 0.960 . S
C713 H700 0.961 . S
C713 H701 0.959 1_455 S
C713 C711 1.561 . S
C714 C711 1.526 . S
C714 C715 1.396 . S
C714 C719 1.390 . S
C715 C709 1.465 . S
C715 C714 1.396 . S
C715 C716 1.399 . S
C716 H702 0.929 . S
C716 C715 1.399 . S
C716 C717 1.385 . S
C717 H703 0.931 . S
C717 C716 1.385 . S
C717 C718 1.389 . S
C718 C717 1.389 . S
C718 C719 1.387 . S
C719 H704 0.930 . S
C719 C714 1.390 . S
C719 C718 1.387 . S
H720 C732 0.930 . S
H721 C734 0.930 . S
H722 C735 0.930 . S
H723 C739 0.959 . S
H724 C739 0.959 . S
H725 C739 0.961 . S
H726 C740 0.960 . S
H727 C740 0.961 . S
H728 C740 0.959 . S
H729 C743 0.929 . S
H730 C744 0.931 . S
H731 C746 0.930 . S
C732 H720 0.930 . S
C732 C733 1.399 . S
C732 C737 1.399 . S
C733 C732 1.399 . S
C733 C734 1.376 . S
C734 H721 0.930 . S
C734 C733 1.376 . S
C734 C735 1.388 . S
C735 H722 0.930 . S
C735 C734 1.388 . S
C735 C736 1.390 . S
C736 C735 1.390 . S
C736 C737 1.394 . S
C736 C742 1.465 . S
C737 C732 1.399 . S
C737 C736 1.394 . S
C737 C738 1.516 . S
C738 C737 1.516 . S
C738 C739 1.502 . S
C738 C740 1.561 . S
C738 C741 1.526 . S
C739 H723 0.959 . S
C739 H724 0.959 . S
C739 H725 0.961 . S
C739 C738 1.502 . S
C740 H726 0.960 . S
C740 H727 0.961 . S
C740 H728 0.959 . S
C740 C738 1.561 . S
C741 C738 1.526 . S
C741 C742 1.396 . S
C741 C746 1.390 . S
C742 C736 1.465 . S
C742 C741 1.396 . S
C742 C743 1.399 . S
C743 H729 0.929 . S
C743 C742 1.399 . S
C743 C744 1.385 . S
C744 H730 0.931 . S
C744 C743 1.385 . S
C744 C745 1.389 . S
C745 C744 1.389 . S
C745 C746 1.387 . S
C746 H731 0.930 . S
C746 C741 1.390 . S
C746 C745 1.387 . S
H747 C759 0.930 . S
H748 C761 0.930 . S
H749 C762 0.930 . S
H750 C766 0.959 . S
H751 C766 0.959 . S
H752 C766 0.961 . S
H753 C767 0.960 . S
H754 C767 0.961 . S
H755 C767 0.959 . S
H756 C770 0.929 . S
H757 C771 0.931 . S
H758 C773 0.930 . S
C759 H747 0.930 . S
C759 C760 1.399 . S
C759 C764 1.399 . S
C760 C759 1.399 . S
C760 C761 1.376 1_545 S
C761 H748 0.930 . S
C761 C760 1.376 1_565 S
C761 C762 1.388 . S
C762 H749 0.930 . S
C762 C761 1.388 . S
C762 C763 1.390 . S
C763 C762 1.390 . S
C763 C764 1.394 1_565 S
C763 C769 1.465 . S
C764 C759 1.399 . S
C764 C763 1.394 1_545 S
C764 C765 1.516 . S
C765 C764 1.516 . S
C765 C766 1.502 . S
C765 C767 1.561 . S
C765 C768 1.526 . S
C766 H750 0.959 . S
C766 H751 0.959 . S
C766 H752 0.961 . S
C766 C765 1.502 . S
C767 H753 0.960 . S
C767 H754 0.961 . S
C767 H755 0.959 . S
C767 C765 1.561 . S
C768 C765 1.526 . S
C768 C769 1.396 1_545 S
C768 C773 1.390 . S
C769 C763 1.465 . S
C769 C768 1.396 1_565 S
C769 C770 1.399 . S
C770 H756 0.929 . S
C770 C769 1.399 . S
C770 C771 1.385 . S
C771 H757 0.931 . S
C771 C770 1.385 . S
C771 C772 1.389 . S
C772 C771 1.389 . S
C772 C773 1.387 1_565 S
C773 H758 0.930 . S
C773 C768 1.390 . S
C773 C772 1.387 1_545 S
H774 C786 0.930 . S
H775 C788 0.930 . S
H776 C789 0.930 . S
H777 C793 0.959 . S
H778 C793 0.959 . S
H779 C793 0.961 . S
H780 C794 0.960 . S
H781 C794 0.961 . S
H782 C794 0.959 . S
H783 C797 0.929 . S
H784 C798 0.931 . S
H785 C800 0.930 . S
C786 H774 0.930 . S
C786 C787 1.399 . S
C786 C791 1.399 . S
C787 C786 1.399 . S
C787 C788 1.376 . S
C788 H775 0.930 . S
C788 C787 1.376 . S
C788 C789 1.388 . S
C789 H776 0.930 . S
C789 C788 1.388 . S
C789 C790 1.390 . S
C790 C789 1.390 . S
C790 C791 1.394 . S
C790 C796 1.465 . S
C791 C786 1.399 . S
C791 C790 1.394 . S
C791 C792 1.516 . S
C792 C791 1.516 . S
C792 C793 1.502 . S
C792 C794 1.561 1_545 S
C792 C795 1.526 . S
C793 H777 0.959 . S
C793 H778 0.959 . S
C793 H779 0.961 . S
C793 C792 1.502 . S
C794 H780 0.960 . S
C794 H781 0.961 . S
C794 H782 0.959 . S
C794 C792 1.561 1_565 S
C795 C792 1.526 . S
C795 C796 1.396 . S
C795 C800 1.390 . S
C796 C790 1.465 . S
C796 C795 1.396 . S
C796 C797 1.399 . S
C797 H783 0.929 . S
C797 C796 1.399 . S
C797 C798 1.385 . S
C798 H784 0.931 . S
C798 C797 1.385 . S
C798 C799 1.389 . S
C799 C798 1.389 . S
C799 C800 1.387 . S
C800 H785 0.930 . S
C800 C795 1.390 . S
C800 C799 1.387 . S
H801 C813 0.930 1_455 S
H802 C815 0.930 . S
H803 C816 0.930 . S
H804 C820 0.959 . S
H805 C820 0.959 . S
H806 C820 0.961 . S
H807 C821 0.960 . S
H808 C821 0.961 . S
H809 C821 0.959 . S
H810 C824 0.929 . S
H811 C825 0.931 . S
H812 C827 0.930 . S
C813 H801 0.930 1_655 S
C813 C814 1.399 . S
C813 C818 1.399 . S
C814 C813 1.399 . S
C814 C815 1.376 . S
C815 H802 0.930 . S
C815 C814 1.376 . S
C815 C816 1.388 . S
C816 H803 0.930 . S
C816 C815 1.388 . S
C816 C817 1.390 . S
C817 C816 1.390 . S
C817 C818 1.394 . S
C817 C823 1.465 . S
C818 C813 1.399 . S
C818 C817 1.394 . S
C818 C819 1.516 . S
C819 C818 1.516 . S
C819 C820 1.502 1_655 S
C819 C821 1.561 . S
C819 C822 1.526 . S
C820 H804 0.959 . S
C820 H805 0.959 . S
C820 H806 0.961 . S
C820 C819 1.502 1_455 S
C821 H807 0.960 . S
C821 H808 0.961 . S
C821 H809 0.959 . S
C821 C819 1.561 . S
C822 C819 1.526 . S
C822 C823 1.396 . S
C822 C827 1.390 . S
C823 C817 1.465 . S
C823 C822 1.396 . S
C823 C824 1.399 . S
C824 H810 0.929 . S
C824 C823 1.399 . S
C824 C825 1.385 . S
C825 H811 0.931 . S
C825 C824 1.385 . S
C825 C826 1.389 . S
C826 C825 1.389 . S
C826 C827 1.387 . S
C827 H812 0.930 . S
C827 C822 1.390 . S
C827 C826 1.387 . S
H828 C840 0.930 . S
H829 C842 0.930 . S
H830 C843 0.930 . S
H831 C847 0.959 . S
H832 C847 0.959 . S
H833 C847 0.961 . S
H834 C848 0.960 . S
H835 C848 0.961 . S
H836 C848 0.959 . S
H837 C851 0.929 . S
H838 C852 0.931 . S
H839 C854 0.930 . S
C840 H828 0.930 . S
C840 C841 1.399 . S
C840 C845 1.399 . S
C841 C840 1.399 . S
C841 C842 1.376 . S
C842 H829 0.930 . S
C842 C841 1.376 . S
C842 C843 1.388 . S
C843 H830 0.930 . S
C843 C842 1.388 . S
C843 C844 1.390 . S
C844 C843 1.390 . S
C844 C845 1.394 . S
C844 C850 1.465 . S
C845 C840 1.399 . S
C845 C844 1.394 . S
C845 C846 1.516 . S
C846 C845 1.516 . S
C846 C847 1.502 . S
C846 C848 1.561 . S
C846 C849 1.526 . S
C847 H831 0.959 . S
C847 H832 0.959 . S
C847 H833 0.961 . S
C847 C846 1.502 . S
C848 H834 0.960 . S
C848 H835 0.961 . S
C848 H836 0.959 . S
C848 C846 1.561 . S
C849 C846 1.526 . S
C849 C850 1.396 . S
C849 C854 1.390 . S
C850 C844 1.465 . S
C850 C849 1.396 . S
C850 C851 1.399 . S
C851 H837 0.929 . S
C851 C850 1.399 . S
C851 C852 1.385 . S
C852 H838 0.931 . S
C852 C851 1.385 . S
C852 C853 1.389 . S
C853 C852 1.389 . S
C853 C854 1.387 . S
C854 H839 0.930 . S
C854 C849 1.390 . S
C854 C853 1.387 . S
H855 C867 0.930 . S
H856 C869 0.930 . S
H857 C870 0.930 . S
H858 C874 0.959 . S
H859 C874 0.959 . S
H860 C874 0.961 . S
H861 C875 0.960 . S
H862 C875 0.961 . S
H863 C875 0.959 . S
H864 C878 0.929 . S
H865 C879 0.931 . S
H866 C881 0.930 . S
C867 H855 0.930 . S
C867 C868 1.399 . S
C867 C872 1.399 . S
C868 C867 1.399 . S
C868 C869 1.376 . S
C869 H856 0.930 . S
C869 C868 1.376 . S
C869 C870 1.388 . S
C870 H857 0.930 . S
C870 C869 1.388 . S
C870 C871 1.390 . S
C871 C870 1.390 . S
C871 C872 1.394 . S
C871 C877 1.465 . S
C872 C867 1.399 . S
C872 C871 1.394 . S
C872 C873 1.516 . S
C873 C872 1.516 . S
C873 C874 1.502 . S
C873 C875 1.561 . S
C873 C876 1.526 . S
C874 H858 0.959 . S
C874 H859 0.959 . S
C874 H860 0.961 . S
C874 C873 1.502 . S
C875 H861 0.960 . S
C875 H862 0.961 . S
C875 H863 0.959 . S
C875 C873 1.561 . S
C876 C873 1.526 . S
C876 C877 1.396 . S
C876 C881 1.390 . S
C877 C871 1.465 . S
C877 C876 1.396 . S
C877 C878 1.399 . S
C878 H864 0.929 . S
C878 C877 1.399 . S
C878 C879 1.385 . S
C879 H865 0.931 . S
C879 C878 1.385 . S
C879 C880 1.389 . S
C880 C879 1.389 . S
C880 C881 1.387 . S
C881 H866 0.930 . S
C881 C876 1.390 . S
C881 C880 1.387 . S
H882 C894 0.930 . S
H883 C896 0.930 . S
H884 C897 0.930 . S
H885 C901 0.959 . S
H886 C901 0.959 . S
H887 C901 0.961 . S
H888 C902 0.960 . S
H889 C902 0.961 . S
H890 C902 0.959 . S
H891 C905 0.929 . S
H892 C906 0.931 . S
H893 C908 0.930 . S
C894 H882 0.930 . S
C894 C895 1.399 . S
C894 C899 1.399 . S
C895 C894 1.399 . S
C895 C896 1.376 1_565 S
C896 H883 0.930 . S
C896 C895 1.376 1_545 S
C896 C897 1.388 . S
C897 H884 0.930 . S
C897 C896 1.388 . S
C897 C898 1.390 . S
C898 C897 1.390 . S
C898 C899 1.394 1_545 S
C898 C904 1.465 . S
C899 C894 1.399 . S
C899 C898 1.394 1_565 S
C899 C900 1.516 . S
C900 C899 1.516 . S
C900 C901 1.502 . S
C900 C902 1.561 . S
C900 C903 1.526 1_565 S
C901 H885 0.959 . S
C901 H886 0.959 . S
C901 H887 0.961 . S
C901 C900 1.502 . S
C902 H888 0.960 . S
C902 H889 0.961 . S
C902 H890 0.959 . S
C902 C900 1.561 . S
C903 C900 1.526 1_545 S
C903 C904 1.396 . S
C903 C908 1.390 . S
C904 C898 1.465 . S
C904 C903 1.396 . S
C904 C905 1.399 . S
C905 H891 0.929 . S
C905 C904 1.399 . S
C905 C906 1.385 . S
C906 H892 0.931 . S
C906 C905 1.385 . S
C906 C907 1.389 . S
C907 C906 1.389 . S
C907 C908 1.387 . S
C908 H893 0.930 . S
C908 C903 1.390 . S
C908 C907 1.387 . S
H909 C921 0.930 . S
H910 C923 0.930 . S
H911 C924 0.930 1_455 S
H912 C928 0.959 . S
H913 C928 0.959 . S
H914 C928 0.961 1_655 S
H915 C929 0.960 . S
H916 C929 0.961 . S
H917 C929 0.959 . S
H918 C932 0.929 . S
H919 C933 0.931 . S
H920 C935 0.930 . S
C921 H909 0.930 . S
C921 C922 1.399 . S
C921 C926 1.399 . S
C922 C921 1.399 . S
C922 C923 1.376 . S
C923 H910 0.930 . S
C923 C922 1.376 . S
C923 C924 1.388 . S
C924 H911 0.930 1_655 S
C924 C923 1.388 . S
C924 C925 1.390 . S
C925 C924 1.390 . S
C925 C926 1.394 . S
C925 C931 1.465 1_655 S
C926 C921 1.399 . S
C926 C925 1.394 . S
C926 C927 1.516 . S
C927 C926 1.516 . S
C927 C928 1.502 1_655 S
C927 C929 1.561 . S
C927 C930 1.526 1_655 S
C928 H912 0.959 . S
C928 H913 0.959 . S
C928 H914 0.961 1_455 S
C928 C927 1.502 1_455 S
C929 H915 0.960 . S
C929 H916 0.961 . S
C929 H917 0.959 . S
C929 C927 1.561 . S
C930 C927 1.526 1_455 S
C930 C931 1.396 . S
C930 C935 1.390 . S
C931 C925 1.465 1_455 S
C931 C930 1.396 . S
C931 C932 1.399 . S
C932 H918 0.929 . S
C932 C931 1.399 . S
C932 C933 1.385 . S
C933 H919 0.931 . S
C933 C932 1.385 . S
C933 C934 1.389 . S
C934 C933 1.389 . S
C934 C935 1.387 . S
C935 H920 0.930 . S
C935 C930 1.390 . S
C935 C934 1.387 . S
C220 C44 1.059 . S
C232 C17 1.021 1_556 S
C247 C62 1.304 . S
C259 C40 1.297 . S
C274 C64 1.116 1_554 S
C286 C21 1.130 . S
C301 C63 1.134 . S
C313 C39 1.141 . S
C328 C67 0.688 . S
C340 C18 0.691 . S
C355 C16 1.170 . S
C367 C41 1.105 . S
C382 C86 1.136 . S
C394 C113 1.201 . S
C409 C136 1.292 . S
C421 C109 1.204 . S
C436 C132 1.032 . S
C448 C90 1.013 . S
C463 C108 1.110 . S
C475 C133 1.055 . S
C490 C131 0.828 . S
C502 C87 0.760 . S
C517 C110 0.939 . S
C529 C85 0.926 . S
C544 C182 0.918 . S
C556 C155 0.915 . S
C571 C178 1.292 . S
C583 C200 1.376 . S
C598 C202 0.984 . S
C610 C159 0.989 . S
C625 C201 0.877 . S
C637 C177 0.997 . S
C652 C205 0.757 . S
C664 C156 0.763 . S
C679 C154 1.052 . S
C691 C179 1.000 . S
C706 C134 1.536 . S
C718 C20 1.620 . S
C733 C88 1.759 . S
C745 C43 1.844 . S
C760 C65 1.614 . S
C772 C111 1.634 . S
C787 C66 1.578 . S
C799 C158 1.571 . S
C814 C19 1.619 . S
C826 C181 1.724 . S
C841 C203 1.779 . S
C853 C42 1.737 . S
C868 C89 1.716 . S
C880 C204 1.721 . S
C895 C112 1.599 . S
C907 C157 1.560 . S
C922 C180 1.741 . S
C934 C135 1.795 . S
