# Generated by pormake.
# Topology zfx, (5)-cn, num edge types: 1
# Building blocks:
#     Node 0, Type 0, BuildingBlock: XOMCOT_clean_sbu_1, # of connection points: 5
#     Node 1, Type 0, BuildingBlock: XOMCOT_clean_sbu_1, # of connection points: 5
#     Node 2, Type 0, BuildingBlock: XOMCOT_clean_sbu_1, # of connection points: 5
#     Node 3, Type 0, BuildingBlock: XOMCOT_clean_sbu_1, # of connection points: 5
#     Node 4, Type 0, BuildingBlock: XOMCOT_clean_sbu_1, # of connection points: 5
#     Node 5, Type 0, BuildingBlock: XOMCOT_clean_sbu_1, # of connection points: 5
#     Node 6, Type 0, BuildingBlock: XOMCOT_clean_sbu_1, # of connection points: 5
#     Node 7, Type 0, BuildingBlock: XOMCOT_clean_sbu_1, # of connection points: 5
#     Node 8, Type 0, BuildingBlock: XOMCOT_clean_sbu_1, # of connection points: 5
#     Node 9, Type 0, BuildingBlock: XOMCOT_clean_sbu_1, # of connection points: 5
#     Node 10, Type 0, BuildingBlock: XOMCOT_clean_sbu_1, # of connection points: 5
#     Node 11, Type 0, BuildingBlock: XOMCOT_clean_sbu_1, # of connection points: 5
#     Node 12, Type 0, BuildingBlock: XOMCOT_clean_sbu_1, # of connection points: 5
#     Node 13, Type 0, BuildingBlock: XOMCOT_clean_sbu_1, # of connection points: 5
#     Node 14, Type 0, BuildingBlock: XOMCOT_clean_sbu_1, # of connection points: 5
#     Node 15, Type 0, BuildingBlock: XOMCOT_clean_sbu_1, # of connection points: 5
#     Edge 16, Type (0, 0), BuildingBlock: UVAHIK_clean_linker_0, # of connection points: 2
#     Edge 17, Type (0, 0), BuildingBlock: UVAHIK_clean_linker_0, # of connection points: 2
#     Edge 18, Type (0, 0), BuildingBlock: UVAHIK_clean_linker_0, # of connection points: 2
#     Edge 19, Type (0, 0), BuildingBlock: UVAHIK_clean_linker_0, # of connection points: 2
#     Edge 20, Type (0, 0), BuildingBlock: UVAHIK_clean_linker_0, # of connection points: 2
#     Edge 21, Type (0, 0), BuildingBlock: UVAHIK_clean_linker_0, # of connection points: 2
#     Edge 22, Type (0, 0), BuildingBlock: UVAHIK_clean_linker_0, # of connection points: 2
#     Edge 23, Type (0, 0), BuildingBlock: UVAHIK_clean_linker_0, # of connection points: 2
#     Edge 24, Type (0, 0), BuildingBlock: UVAHIK_clean_linker_0, # of connection points: 2
#     Edge 25, Type (0, 0), BuildingBlock: UVAHIK_clean_linker_0, # of connection points: 2
#     Edge 26, Type (0, 0), BuildingBlock: UVAHIK_clean_linker_0, # of connection points: 2
#     Edge 27, Type (0, 0), BuildingBlock: UVAHIK_clean_linker_0, # of connection points: 2
#     Edge 28, Type (0, 0), BuildingBlock: UVAHIK_clean_linker_0, # of connection points: 2
#     Edge 29, Type (0, 0), BuildingBlock: UVAHIK_clean_linker_0, # of connection points: 2
#     Edge 30, Type (0, 0), BuildingBlock: UVAHIK_clean_linker_0, # of connection points: 2
#     Edge 31, Type (0, 0), BuildingBlock: UVAHIK_clean_linker_0, # of connection points: 2
#     Edge 32, Type (0, 0), BuildingBlock: UVAHIK_clean_linker_0, # of connection points: 2
#     Edge 33, Type (0, 0), BuildingBlock: UVAHIK_clean_linker_0, # of connection points: 2
#     Edge 34, Type (0, 0), BuildingBlock: UVAHIK_clean_linker_0, # of connection points: 2
#     Edge 35, Type (0, 0), BuildingBlock: UVAHIK_clean_linker_0, # of connection points: 2
#     Edge 36, Type (0, 0), BuildingBlock: UVAHIK_clean_linker_0, # of connection points: 2
#     Edge 37, Type (0, 0), BuildingBlock: UVAHIK_clean_linker_0, # of connection points: 2
#     Edge 38, Type (0, 0), BuildingBlock: UVAHIK_clean_linker_0, # of connection points: 2
#     Edge 39, Type (0, 0), BuildingBlock: UVAHIK_clean_linker_0, # of connection points: 2
#     Edge 40, Type (0, 0), BuildingBlock: UVAHIK_clean_linker_0, # of connection points: 2
#     Edge 41, Type (0, 0), BuildingBlock: UVAHIK_clean_linker_0, # of connection points: 2
#     Edge 42, Type (0, 0), BuildingBlock: UVAHIK_clean_linker_0, # of connection points: 2
#     Edge 43, Type (0, 0), BuildingBlock: UVAHIK_clean_linker_0, # of connection points: 2
#     Edge 44, Type (0, 0), BuildingBlock: UVAHIK_clean_linker_0, # of connection points: 2
#     Edge 45, Type (0, 0), BuildingBlock: UVAHIK_clean_linker_0, # of connection points: 2
#     Edge 46, Type (0, 0), BuildingBlock: UVAHIK_clean_linker_0, # of connection points: 2
#     Edge 47, Type (0, 0), BuildingBlock: UVAHIK_clean_linker_0, # of connection points: 2
#     Edge 48, Type (0, 0), BuildingBlock: UVAHIK_clean_linker_0, # of connection points: 2
#     Edge 49, Type (0, 0), BuildingBlock: UVAHIK_clean_linker_0, # of connection points: 2
#     Edge 50, Type (0, 0), BuildingBlock: UVAHIK_clean_linker_0, # of connection points: 2
#     Edge 51, Type (0, 0), BuildingBlock: UVAHIK_clean_linker_0, # of connection points: 2
#     Edge 52, Type (0, 0), BuildingBlock: UVAHIK_clean_linker_0, # of connection points: 2
#     Edge 53, Type (0, 0), BuildingBlock: UVAHIK_clean_linker_0, # of connection points: 2
#     Edge 54, Type (0, 0), BuildingBlock: UVAHIK_clean_linker_0, # of connection points: 2
#     Edge 55, Type (0, 0), BuildingBlock: UVAHIK_clean_linker_0, # of connection points: 2
# Relax obj value: 0.321
# Max RMSD: 0.201
# Mean RMSD: 0.201
data_MOF--net-zfx--node1-XOMCOT_clean_sbu_1--edge1-UVAHIK_clean_linker_0
_symmetry_space_group_name_H-M    P1
_symmetry_Int_Tables_number       1
_symmetry_cell_setting            triclinic
loop_
_symmetry_equiv_pos_as_xyz
'x, y, z'
_cell_length_a     79.823966
_cell_length_b     79.808889
_cell_length_c     30.260041
_cell_angle_alpha  90.059435
_cell_angle_beta   89.989344
_cell_angle_gamma 89.98612
loop_
_atom_site_label
_atom_site_type_symbol
_atom_site_fract_x
_atom_site_fract_y
_atom_site_fract_z
_atom_type_partial_charge
C0 C 0.54596 0.1457 0.38312 0.0
C1 C 0.55826 0.14886 0.41384 0.0
N2 N 0.55108 0.14918 0.45413 0.0
N3 N 0.53114 0.14414 0.40404 0.0
C4 C 0.53464 0.14633 0.4472 0.0
H5 H 0.54783 0.14403 0.34802 0.0
Co6 Co 0.51127 0.13722 0.37899 0.0
C7 C 0.48352 0.14996 0.43838 0.0
O8 O 0.47311 0.13878 0.42229 0.0
N9 N 0.49138 0.12976 0.35209 0.0
C10 C 0.47112 0.1139 0.32369 0.0
C11 C 0.48559 0.1139 0.34814 0.0
C12 C 0.48023 0.1391 0.32929 0.0
N13 N 0.46777 0.12979 0.31173 0.0
O14 O 0.51194 0.15646 0.33985 0.0
H15 H 0.49153 0.10283 0.36132 0.0
H16 H 0.48145 0.15247 0.32481 0.0
O17 O 0.49868 0.15042 0.42427 0.0
C18 C 0.51756 0.15266 0.30159 0.0
O19 O 0.52124 0.13687 0.29374 0.0
N20 N 0.51213 0.11779 0.41409 0.0
C21 C 0.51485 0.08552 0.44892 0.0
C22 C 0.50472 0.09761 0.46956 0.0
C23 C 0.50367 0.1138 0.45191 0.0
C24 C 0.52267 0.10645 0.39506 0.0
C25 C 0.52422 0.09027 0.41184 0.0
H26 H 0.49589 0.12279 0.46852 0.0
H27 H 0.52939 0.10984 0.36533 0.0
H28 H 0.52545 0.14495 0.47324 0.0
H29 H 0.57146 0.15054 0.40709 0.0
H30 H 0.4638 0.10298 0.31494 0.0
H31 H 0.49756 0.09453 0.49885 0.0
H32 H 0.53213 0.08136 0.39468 0.0
C33 C 0.12393 0.276 0.61155 0.0
C34 C 0.12268 0.29069 0.63516 0.0
N35 N 0.11016 0.28893 0.66458 0.0
N36 N 0.11245 0.26503 0.62672 0.0
C37 C 0.10409 0.27334 0.65864 0.0
H38 H 0.133 0.27324 0.58602 0.0
Co39 Co 0.11083 0.243 0.60876 0.0
C40 C 0.09989 0.22382 0.68724 0.0
O41 O 0.11198 0.21319 0.67791 0.0
N42 N 0.10901 0.22066 0.58882 0.0
C43 C 0.09773 0.19587 0.5725 0.0
C44 C 0.09521 0.21096 0.59323 0.0
C45 C 0.11937 0.21142 0.56311 0.0
N46 N 0.11294 0.19623 0.55365 0.0
O47 O 0.09054 0.24832 0.57735 0.0
H48 H 0.08372 0.21484 0.60919 0.0
H49 H 0.13096 0.21587 0.54914 0.0
O50 O 0.09799 0.23692 0.66315 0.0
C51 C 0.09435 0.25147 0.53723 0.0
O52 O 0.11014 0.25 0.52546 0.0
N53 N 0.13176 0.239 0.63585 0.0
C54 C 0.16506 0.23873 0.66488 0.0
C55 C 0.15182 0.24031 0.69514 0.0
C56 C 0.13527 0.24086 0.67984 0.0
C57 C 0.14455 0.23833 0.60609 0.0
C58 C 0.1612 0.23772 0.61979 0.0
H59 H 0.12544 0.24365 0.70324 0.0
H60 H 0.1419 0.23934 0.57123 0.0
H61 H 0.09429 0.26785 0.67865 0.0
H62 H 0.13053 0.30166 0.63164 0.0
H63 H 0.08862 0.18591 0.56865 0.0
H64 H 0.15424 0.24195 0.73009 0.0
H65 H 0.17097 0.23692 0.59505 0.0
C66 C 0.97162 0.85809 0.88057 0.0
C67 C 0.9598 0.85484 0.91261 0.0
N68 N 0.96763 0.85425 0.95205 0.0
N69 N 0.98676 0.8595 0.89988 0.0
C70 C 0.98394 0.85709 0.9433 0.0
H71 H 0.96928 0.85981 0.84567 0.0
Co72 Co 0.00647 0.86592 0.87315 0.0
C73 C 0.03431 0.8529 0.93122 0.0
O74 O 0.04469 0.86428 0.91602 0.0
N75 N 0.0264 0.8728 0.84483 0.0
C76 C 0.04692 0.88814 0.8157 0.0
C77 C 0.03259 0.88851 0.84067 0.0
C78 C 0.03728 0.86316 0.82182 0.0
N79 N 0.04983 0.87218 0.8037 0.0
O80 O 0.00484 0.84662 0.8344 0.0
H81 H 0.02715 0.89975 0.85424 0.0
H82 H 0.03582 0.84978 0.81756 0.0
O83 O 0.01918 0.85251 0.91707 0.0
C84 C 1.00026 0.84998 0.79493 0.0
O85 O 0.99817 0.86577 0.78386 0.0
N86 N 0.00648 0.88537 0.90837 0.0
C87 C 0.00522 0.91749 0.94473 0.0
C88 C 0.0136 0.90449 0.96678 0.0
C89 C 0.01403 0.88842 0.94812 0.0
C90 C 0.99719 0.89754 0.88844 0.0
C91 C 0.99657 0.91373 0.90568 0.0
H92 H 0.0205 0.8787 0.96576 0.0
H93 H 0.99087 0.89478 0.85765 0.0
H94 H 0.99357 0.85822 0.96828 0.0
H95 H 0.94649 0.85323 0.90731 0.0
H96 H 0.05448 0.89886 0.80674 0.0
H97 H 0.0202 0.90682 0.99743 0.0
H98 H 0.98959 0.92329 0.88819 0.0
C99 C 0.38753 0.71739 0.11056 0.0
C100 C 0.39049 0.70273 0.13287 0.0
N101 N 0.40191 0.7059 0.16444 0.0
N102 N 0.3969 0.72971 0.12842 0.0
C103 C 0.40567 0.72232 0.16104 0.0
H104 H 0.37855 0.71918 0.08423 0.0
Co105 Co 0.39462 0.7517 0.11174 0.0
C106 C 0.40771 0.77235 0.18749 0.0
O107 O 0.39441 0.78187 0.18449 0.0
N108 N 0.3915 0.77428 0.0924 0.0
C109 C 0.37995 0.79922 0.07799 0.0
C110 C 0.3794 0.78536 0.10446 0.0
C111 C 0.39914 0.78196 0.05804 0.0
N112 N 0.39225 0.79695 0.04846 0.0
O113 O 0.41424 0.74903 0.07409 0.0
H114 H 0.37024 0.78355 0.13027 0.0
H115 H 0.40923 0.77654 0.03907 0.0
O116 O 0.40921 0.75952 0.16211 0.0
C117 C 0.41022 0.74322 0.03611 0.0
O118 O 0.3942 0.74143 0.02722 0.0
N119 N 0.37475 0.75254 0.14462 0.0
C120 C 0.34255 0.75243 0.18026 0.0
C121 C 0.35665 0.75148 0.20797 0.0
C122 C 0.37276 0.75135 0.18935 0.0
C123 C 0.36116 0.75208 0.11739 0.0
C124 C 0.34499 0.7524 0.13444 0.0
H125 H 0.38352 0.75013 0.21074 0.0
H126 H 0.36299 0.75191 0.08196 0.0
H127 H 0.41386 0.72895 0.18354 0.0
H128 H 0.3844 0.69079 0.1273 0.0
H129 H 0.37129 0.80966 0.07864 0.0
H130 H 0.35525 0.751 0.24354 0.0
H131 H 0.33446 0.75248 0.11187 0.0
C132 C 0.54363 0.84827 0.63921 0.0
C133 C 0.55736 0.84593 0.61255 0.0
N134 N 0.55253 0.84803 0.57026 0.0
N135 N 0.53019 0.85167 0.61378 0.0
C136 C 0.53595 0.85128 0.572 0.0
H137 H 0.54374 0.84844 0.67489 0.0
Co138 Co 0.50973 0.85952 0.63298 0.0
C139 C 0.48325 0.84376 0.57332 0.0
O140 O 0.47153 0.85345 0.5897 0.0
N141 N 0.48932 0.86817 0.65446 0.0
C142 C 0.46921 0.88586 0.67525 0.0
C143 C 0.48425 0.88436 0.65387 0.0
C144 C 0.47728 0.86022 0.67778 0.0
N145 N 0.46481 0.87065 0.69024 0.0
O146 O 0.50893 0.8412 0.67533 0.0
H147 H 0.49113 0.89474 0.63999 0.0
H148 H 0.47776 0.84704 0.68595 0.0
O149 O 0.49843 0.84529 0.58687 0.0
C150 C 0.51303 0.84537 0.71467 0.0
O151 O 0.51555 0.86134 0.72302 0.0
N152 N 0.51181 0.87794 0.59448 0.0
C153 C 0.51476 0.90937 0.55486 0.0
C154 C 0.5036 0.89736 0.53794 0.0
C155 C 0.50239 0.88162 0.55806 0.0
C156 C 0.5233 0.88915 0.60988 0.0
C157 C 0.52503 0.90489 0.5905 0.0
H158 H 0.49331 0.87288 0.54549 0.0
H159 H 0.53057 0.88612 0.63896 0.0
H160 H 0.52835 0.85461 0.54375 0.0
H161 H 0.57 0.84344 0.62367 0.0
H162 H 0.46222 0.89735 0.67994 0.0
H163 H 0.49557 0.90028 0.51014 0.0
H164 H 0.53369 0.9138 0.60495 0.0
C165 C 0.38321 0.28424 0.86408 0.0
C166 C 0.38685 0.29737 0.83638 0.0
N167 N 0.39824 0.29203 0.80674 0.0
N168 N 0.39217 0.27071 0.85166 0.0
C169 C 0.40132 0.27586 0.81678 0.0
H170 H 0.37418 0.28435 0.89071 0.0
Co171 Co 0.38932 0.24991 0.87682 0.0
C172 C 0.40184 0.2251 0.81018 0.0
O173 O 0.38885 0.21565 0.81912 0.0
N174 N 0.38583 0.22868 0.90454 0.0
C175 C 0.37453 0.20478 0.92902 0.0
C176 C 0.37292 0.21774 0.89967 0.0
C177 C 0.39506 0.22184 0.93744 0.0
N178 N 0.38838 0.2075 0.953 0.0
O179 O 0.40898 0.25388 0.91288 0.0
H180 H 0.36283 0.21879 0.87612 0.0
H181 H 0.40642 0.22724 0.95051 0.0
O182 O 0.40347 0.23922 0.83 0.0
C183 C 0.40516 0.26135 0.94889 0.0
O184 O 0.38928 0.26468 0.95625 0.0
N185 N 0.36941 0.24777 0.84456 0.0
C186 C 0.33725 0.24624 0.80888 0.0
C187 C 0.35141 0.24481 0.78149 0.0
C188 C 0.36748 0.24589 0.79997 0.0
C189 C 0.35584 0.25063 0.87081 0.0
C190 C 0.33966 0.24961 0.85389 0.0
H191 H 0.37824 0.24534 0.77843 0.0
H192 H 0.35765 0.2532 0.90559 0.0
H193 H 0.40949 0.26778 0.79779 0.0
H194 H 0.3814 0.30978 0.8375 0.0
H195 H 0.36585 0.1945 0.9335 0.0
H196 H 0.35009 0.24269 0.74632 0.0
H197 H 0.32913 0.25147 0.87592 0.0
C198 C 0.97681 0.13131 0.15395 0.0
C199 C 0.9617 0.13324 0.1325 0.0
N200 N 0.9631 0.14631 0.10465 0.0
N201 N 0.98766 0.14292 0.13886 0.0
C202 C 0.97887 0.15203 0.10946 0.0
H203 H 0.97996 0.12158 0.17736 0.0
Co204 Co 0.01024 0.14402 0.15171 0.0
C205 C 0.02643 0.15285 0.0668 0.0
O206 O 0.03686 0.1404 0.07422 0.0
N207 N 0.03327 0.14547 0.16606 0.0
C208 C 0.05886 0.15618 0.17492 0.0
C209 C 0.0434 0.15853 0.15609 0.0
C210 C 0.04272 0.13583 0.19307 0.0
N211 N 0.05836 0.14189 0.19822 0.0
O212 O 0.00635 0.16484 0.18272 0.0
H213 H 0.03957 0.16958 0.13808 0.0
H214 H 0.03809 0.12525 0.21145 0.0
O215 O 0.01484 0.15606 0.09502 0.0
C216 C 0.00639 0.16291 0.22463 0.0
O217 O 0.01015 0.14809 0.24071 0.0
N218 N 0.01282 0.12264 0.12485 0.0
C219 C 0.01223 0.08933 0.09504 0.0
C220 C 0.00829 0.10261 0.06645 0.0
C221 C 0.00827 0.1191 0.08223 0.0
C222 C 0.01554 0.1098 0.1536 0.0
C223 C 0.01586 0.09318 0.13927 0.0
H224 H 0.00387 0.12889 0.06054 0.0
H225 H 0.01639 0.11228 0.18851 0.0
H226 H 0.98419 0.16204 0.08988 0.0
H227 H 0.95076 0.12534 0.13599 0.0
H228 H 0.0692 0.16497 0.17461 0.0
H229 H 0.00451 0.10026 0.03264 0.0
H230 H 0.01853 0.08343 0.1631 0.0
C231 C 0.11332 0.71285 0.37115 0.0
C232 C 0.11083 0.70043 0.34009 0.0
N233 N 0.10797 0.70781 0.30078 0.0
N234 N 0.11197 0.72794 0.35142 0.0
C235 C 0.10879 0.72441 0.30868 0.0
H236 H 0.1164 0.71094 0.40554 0.0
Co237 Co 0.11588 0.74902 0.37527 0.0
C238 C 0.0915 0.77005 0.32782 0.0
O239 O 0.08599 0.7754 0.36624 0.0
N240 N 0.12022 0.77033 0.39867 0.0
C241 C 0.12789 0.79704 0.40405 0.0
C242 C 0.12572 0.78376 0.37576 0.0
C243 C 0.11925 0.77576 0.44082 0.0
N244 N 0.12377 0.792 0.44511 0.0
O245 O 0.09567 0.74694 0.41044 0.0
H246 H 0.12792 0.78396 0.34052 0.0
H247 H 0.11494 0.76814 0.46785 0.0
O248 O 0.10346 0.75942 0.32654 0.0
C249 C 0.09851 0.74047 0.44829 0.0
O250 O 0.11401 0.73653 0.45867 0.0
N251 N 0.13616 0.74995 0.34485 0.0
C252 C 0.16893 0.74947 0.31272 0.0
C253 C 0.15545 0.75361 0.28479 0.0
C254 C 0.13906 0.75373 0.30152 0.0
C255 C 0.14903 0.74586 0.37224 0.0
C256 C 0.16547 0.74563 0.35702 0.0
H257 H 0.12882 0.75688 0.27973 0.0
H258 H 0.14642 0.74288 0.40643 0.0
H259 H 0.1079 0.73383 0.28322 0.0
H260 H 0.11127 0.68707 0.34597 0.0
H261 H 0.13211 0.80943 0.39484 0.0
H262 H 0.15751 0.75653 0.25028 0.0
H263 H 0.17542 0.74268 0.38007 0.0
C264 C 0.88641 0.78365 0.39705 0.0
C265 C 0.8894 0.79927 0.37936 0.0
N266 N 0.90307 0.7982 0.35339 0.0
N267 N 0.89795 0.77282 0.38146 0.0
C268 C 0.90809 0.7821 0.35569 0.0
H269 H 0.87605 0.78019 0.4182 0.0
Co270 Co 0.89832 0.74992 0.39067 0.0
C271 C 0.90837 0.73865 0.29945 0.0
O272 O 0.8944 0.7301 0.29528 0.0
N273 N 0.89889 0.72667 0.40214 0.0
C274 C 0.90474 0.69937 0.40507 0.0
C275 C 0.90694 0.71392 0.38162 0.0
C276 C 0.89251 0.71953 0.43895 0.0
N277 N 0.89565 0.70295 0.44122 0.0
O278 O 0.91868 0.7527 0.42432 0.0
H279 H 0.91495 0.71498 0.35319 0.0
H280 H 0.88602 0.72648 0.46439 0.0
O281 O 0.91156 0.74649 0.33551 0.0
C282 C 0.91597 0.75519 0.46539 0.0
O283 O 0.90045 0.75479 0.47976 0.0
N284 N 0.87734 0.74814 0.36069 0.0
C285 C 0.84469 0.74874 0.32635 0.0
C286 C 0.85791 0.75655 0.30384 0.0
C287 C 0.87406 0.75634 0.32187 0.0
C288 C 0.86441 0.74112 0.38369 0.0
C289 C 0.84816 0.74099 0.36683 0.0
H290 H 0.88392 0.76299 0.30482 0.0
H291 H 0.86633 0.73632 0.41643 0.0
H292 H 0.91838 0.77697 0.33674 0.0
H293 H 0.88181 0.81037 0.38398 0.0
H294 H 0.91042 0.68737 0.39775 0.0
H295 H 0.85579 0.76293 0.27277 0.0
H296 H 0.83823 0.73549 0.38646 0.0
C297 C 0.61627 0.22595 0.91201 0.0
C298 C 0.61623 0.21116 0.88848 0.0
N299 N 0.61154 0.21463 0.84675 0.0
N300 N 0.61146 0.23855 0.88521 0.0
C301 C 0.6086 0.23125 0.8458 0.0
H302 H 0.61987 0.22749 0.94622 0.0
Co303 Co 0.61071 0.26089 0.9006 0.0
C304 C 0.60097 0.27928 0.81947 0.0
O305 O 0.6129 0.29001 0.82934 0.0
N306 N 0.60977 0.28354 0.91781 0.0
C307 C 0.59947 0.30899 0.931 0.0
C308 C 0.59619 0.29352 0.91315 0.0
C309 C 0.62084 0.29305 0.94055 0.0
N310 N 0.61498 0.30863 0.94816 0.0
O311 O 0.58999 0.25681 0.93194 0.0
H312 H 0.58443 0.28965 0.89864 0.0
H313 H 0.63262 0.28858 0.9534 0.0
O314 O 0.59839 0.26665 0.84491 0.0
C315 C 0.59307 0.25499 0.9731 0.0
O316 O 0.60853 0.25745 0.98665 0.0
N317 N 0.63202 0.26358 0.8739 0.0
C318 C 0.66544 0.2631 0.84587 0.0
C319 C 0.65232 0.26237 0.81515 0.0
C320 C 0.63572 0.26209 0.82989 0.0
C321 C 0.64468 0.26337 0.90413 0.0
C322 C 0.66145 0.26342 0.89094 0.0
H323 H 0.62605 0.25996 0.80572 0.0
H324 H 0.64174 0.26253 0.93893 0.0
H325 H 0.60453 0.23798 0.81672 0.0
H326 H 0.61979 0.19892 0.90072 0.0
H327 H 0.59074 0.31931 0.93398 0.0
H328 H 0.65488 0.26126 0.78011 0.0
H329 H 0.67119 0.2635 0.91585 0.0
C330 C 0.61117 0.78541 0.11282 0.0
C331 C 0.60909 0.79917 0.1396 0.0
N332 N 0.61039 0.79413 0.18196 0.0
N333 N 0.61359 0.77177 0.13822 0.0
C334 C 0.61295 0.77743 0.18006 0.0
H335 H 0.61168 0.78554 0.07715 0.0
Co336 Co 0.62021 0.75093 0.11899 0.0
C337 C 0.60644 0.72539 0.18326 0.0
O338 O 0.61821 0.71481 0.17139 0.0
N339 N 0.6275 0.72999 0.09762 0.0
C340 C 0.64324 0.70822 0.07768 0.0
C341 C 0.64323 0.72363 0.09767 0.0
C342 C 0.61828 0.7182 0.07677 0.0
N343 N 0.62753 0.70481 0.06443 0.0
O344 O 0.60129 0.75078 0.07845 0.0
H345 H 0.65421 0.72967 0.11092 0.0
H346 H 0.60505 0.71955 0.0701 0.0
O347 O 0.60612 0.74013 0.16618 0.0
C348 C 0.6051 0.7546 0.03869 0.0
O349 O 0.62104 0.75647 0.02892 0.0
N350 N 0.63931 0.75254 0.15543 0.0
C351 C 0.67107 0.7556 0.19343 0.0
C352 C 0.65811 0.74723 0.21576 0.0
C353 C 0.64223 0.74597 0.19638 0.0
C354 C 0.65144 0.76159 0.13459 0.0
C355 C 0.66741 0.76319 0.15278 0.0
H356 H 0.63254 0.73965 0.21452 0.0
H357 H 0.64886 0.76695 0.10248 0.0
H358 H 0.61541 0.76955 0.20838 0.0
H359 H 0.6072 0.81191 0.12852 0.0
H360 H 0.65408 0.70028 0.07295 0.0
H361 H 0.66024 0.74162 0.24784 0.0
H362 H 0.67698 0.76972 0.13417 0.0
C363 C 0.88297 0.21596 0.64658 0.0
C364 C 0.88614 0.20337 0.67645 0.0
N365 N 0.89798 0.20878 0.70485 0.0
N366 N 0.8927 0.22925 0.65624 0.0
C367 C 0.902 0.22437 0.6911 0.0
H368 H 0.87341 0.21587 0.62126 0.0
Co369 Co 0.89061 0.25027 0.63068 0.0
C370 C 0.89981 0.27031 0.71312 0.0
O371 O 0.88427 0.27517 0.71911 0.0
N372 N 0.88853 0.27137 0.60298 0.0
C373 C 0.88548 0.29829 0.58538 0.0
C374 C 0.88677 0.28704 0.6194 0.0
C375 C 0.88807 0.27356 0.55869 0.0
N376 N 0.88635 0.28978 0.54712 0.0
O377 O 0.91123 0.24639 0.59826 0.0
H378 H 0.88631 0.2905 0.65355 0.0
H379 H 0.88919 0.26346 0.53516 0.0
O380 O 0.90359 0.26078 0.68036 0.0
C381 C 0.90862 0.23778 0.56329 0.0
O382 O 0.89331 0.23252 0.5554 0.0
N383 N 0.86943 0.25293 0.65896 0.0
C384 C 0.83664 0.25461 0.69214 0.0
C385 C 0.84988 0.24886 0.71864 0.0
C386 C 0.86606 0.24774 0.70115 0.0
C387 C 0.85653 0.25769 0.63214 0.0
C388 C 0.84017 0.25884 0.64812 0.0
H389 H 0.87597 0.24309 0.72209 0.0
H390 H 0.85876 0.26027 0.59761 0.0
H391 H 0.91092 0.23241 0.70756 0.0
H392 H 0.87938 0.19165 0.67892 0.0
H393 H 0.884 0.31171 0.5887 0.0
H394 H 0.84785 0.24534 0.75277 0.0
H395 H 0.8303 0.26259 0.62566 0.0
C396 C 0.03365 0.6324 0.85312 0.0
C397 C 0.04933 0.6346 0.87127 0.0
N398 N 0.04856 0.64764 0.89949 0.0
N399 N 0.02309 0.64382 0.87053 0.0
C400 C 0.03258 0.65309 0.89803 0.0
H401 H 0.02996 0.62263 0.83032 0.0
Co402 Co 1.00019 0.64458 0.86135 0.0
C403 C 0.98851 0.65448 0.95208 0.0
O404 O 0.97952 0.64073 0.95477 0.0
N405 N 0.97694 0.64552 0.85 0.0
C406 C 0.94999 0.65272 0.84626 0.0
C407 C 0.96467 0.65468 0.86927 0.0
C408 C 0.96943 0.63879 0.81412 0.0
N409 N 0.95303 0.64272 0.81146 0.0
O410 O 0.00316 0.66499 0.82833 0.0
H411 H 0.96628 0.66342 0.89609 0.0
H412 H 0.97605 0.63178 0.78903 0.0
O413 O 0.99692 0.6576 0.9169 0.0
C414 C 0.00533 0.66219 0.78718 0.0
O415 O 0.00455 0.64664 0.77305 0.0
N416 N 0.99824 0.62352 0.89047 0.0
C417 C 0.99945 0.59055 0.92217 0.0
C418 C 0.00623 0.60377 0.94694 0.0
C419 C 0.00586 0.62009 0.93002 0.0
C420 C 0.9921 0.61064 0.86562 0.0
C421 C 0.99228 0.5942 0.88108 0.0
H422 H 0.0121 0.62991 0.94829 0.0
H423 H 0.98784 0.61278 0.83246 0.0
H424 H 0.02768 0.66301 0.91872 0.0
H425 H 0.06026 0.62691 0.8653 0.0
H426 H 0.93835 0.65927 0.85254 0.0
H427 H 0.01239 0.60144 0.97821 0.0
H428 H 0.98717 0.58436 0.86043 0.0
C429 C 0.48161 0.37091 0.35946 0.0
C430 C 0.4684 0.36927 0.38848 0.0
N431 N 0.47199 0.35671 0.41671 0.0
N432 N 0.49343 0.3595 0.36967 0.0
C433 C 0.48703 0.3508 0.40379 0.0
H434 H 0.48297 0.38044 0.33433 0.0
Co435 Co 0.51496 0.35846 0.34741 0.0
C436 C 0.53619 0.34731 0.42254 0.0
O437 O 0.5468 0.35922 0.41171 0.0
N438 N 0.5368 0.35711 0.32389 0.0
C439 C 0.56142 0.346 0.3052 0.0
C440 C 0.54632 0.34309 0.32536 0.0
C441 C 0.54618 0.36811 0.30051 0.0
N442 N 0.56128 0.36176 0.28979 0.0
O443 O 0.50916 0.33818 0.31599 0.0
H444 H 0.54239 0.33132 0.33971 0.0
H445 H 0.54203 0.38031 0.28986 0.0
O446 O 0.52265 0.34553 0.40016 0.0
C447 C 0.50526 0.34197 0.2763 0.0
O448 O 0.50642 0.35777 0.26444 0.0
N449 N 0.51929 0.37935 0.37468 0.0
C450 C 0.51954 0.41254 0.40524 0.0
C451 C 0.51904 0.39905 0.43501 0.0
C452 C 0.51852 0.38257 0.41906 0.0
C453 C 0.51897 0.39234 0.34549 0.0
C454 C 0.51956 0.40893 0.35988 0.0
H455 H 0.51656 0.37256 0.44244 0.0
H456 H 0.51734 0.38983 0.31067 0.0
H457 H 0.49355 0.34066 0.41995 0.0
H458 H 0.45755 0.37738 0.39036 0.0
H459 H 0.57135 0.33697 0.29992 0.0
H460 H 0.51819 0.4012 0.47028 0.0
H461 H 0.51961 0.41884 0.33547 0.0
C462 C 0.04174 0.36726 0.12551 0.0
C463 C 0.05429 0.36505 0.09484 0.0
N464 N 0.0474 0.359 0.05737 0.0
N465 N 0.02705 0.36256 0.10753 0.0
C466 C 0.03088 0.35753 0.06624 0.0
H467 H 0.04311 0.37259 0.15817 0.0
Co468 Co 0.00626 0.36558 0.13298 0.0
C469 C 0.9812 0.35339 0.06733 0.0
O470 O 0.97121 0.36568 0.07926 0.0
N471 N 0.98526 0.36877 0.16001 0.0
C472 C 0.96195 0.37887 0.19046 0.0
C473 C 0.97696 0.38296 0.17102 0.0
C474 C 0.97507 0.35629 0.17364 0.0
N475 N 0.96083 0.36208 0.19208 0.0
O476 O 0.00976 0.34581 0.16853 0.0
H477 H 0.98134 0.39558 0.16592 0.0
H478 H 0.97796 0.34313 0.16963 0.0
O479 O 0.99558 0.35194 0.08578 0.0
C480 C 0.01491 0.34976 0.20709 0.0
O481 O 0.01671 0.36575 0.21639 0.0
N482 N 0.00432 0.38576 0.1014 0.0
C483 C 0.00438 0.41835 0.06773 0.0
C484 C 1.00019 0.40466 0.04062 0.0
C485 C 1.00057 0.38837 0.05787 0.0
C486 C 0.00971 0.39874 0.12694 0.0
C487 C 0.0096 0.41511 0.11112 0.0
H488 H 0.99815 0.37805 0.03585 0.0
H489 H 0.01376 0.39633 0.16046 0.0
H490 H 0.02163 0.35327 0.04276 0.0
H491 H 0.06733 0.36831 0.09942 0.0
H492 H 0.95285 0.38758 0.20374 0.0
H493 H 0.99654 0.40649 0.0065 0.0
H494 H 0.01367 0.42513 0.13274 0.0
C495 C 0.47357 0.63327 0.62528 0.0
C496 C 0.46077 0.63545 0.59545 0.0
N497 N 0.46709 0.64288 0.5591 0.0
N498 N 0.48784 0.63936 0.60792 0.0
C499 C 0.4835 0.64529 0.56791 0.0
H500 H 0.47274 0.62663 0.65633 0.0
Co501 Co 0.50881 0.63559 0.63112 0.0
C502 C 0.53313 0.64835 0.56251 0.0
O503 O 0.5432 0.63585 0.57154 0.0
N504 N 0.53021 0.63101 0.65653 0.0
C505 C 0.55362 0.61792 0.67784 0.0
C506 C 0.54057 0.61784 0.64852 0.0
C507 C 0.53752 0.63886 0.69117 0.0
N508 N 0.55155 0.63104 0.70496 0.0
O509 O 0.50584 0.65514 0.66901 0.0
H510 H 0.53895 0.60849 0.6231 0.0
H511 H 0.53258 0.64992 0.707 0.0
O512 O 0.5193 0.6498 0.58384 0.0
C513 C 0.4992 0.65115 0.70603 0.0
O514 O 0.49666 0.63516 0.714 0.0
N515 N 0.50986 0.61582 0.5974 0.0
C516 C 0.51068 0.58373 0.56069 0.0
C517 C 0.51272 0.59796 0.53389 0.0
C518 C 0.51205 0.61399 0.55286 0.0
C519 C 0.50644 0.60222 0.62304 0.0
C520 C 0.50707 0.58607 0.60561 0.0
H521 H 0.51323 0.62478 0.53166 0.0
H522 H 0.5038 0.60396 0.65782 0.0
H523 H 0.49239 0.65051 0.54486 0.0
H524 H 0.44809 0.63089 0.59928 0.0
H525 H 0.56341 0.60857 0.68037 0.0
H526 H 0.5151 0.59672 0.49881 0.0
H527 H 0.50481 0.5755 0.62721 0.0
C528 C 0.49997 0.05948 0.47384 0.0
C529 C 0.51503 0.06781 0.4641 0.0
C530 C 0.49995 0.04236 0.48375 0.0
C531 C 0.52585 0.00406 0.46943 0.0
H532 H 0.49507 0.9853 0.55524 0.0
C533 C 0.52992 0.93565 0.53258 0.0
C534 C 0.51479 0.9269 0.53827 0.0
C535 C 0.52986 0.95267 0.52155 0.0
C536 C 0.50361 0.99033 0.53081 0.0
H537 H 0.54196 0.06488 0.45911 0.0
H538 H 0.54199 0.03513 0.47733 0.0
H539 H 0.49538 0.01546 0.54256 0.0
H540 H 0.48773 0.92912 0.53615 0.0
H541 H 0.48763 0.9588 0.51659 0.0
H542 H 0.53422 0.9789 0.45825 0.0
C543 C 0.53012 0.04168 0.47612 0.0
C544 C 0.50379 0.00763 0.52352 0.0
C545 C 0.53012 0.05876 0.46591 0.0
C546 C 0.4996 0.93545 0.53154 0.0
C547 C 0.49954 0.9525 0.52088 0.0
C548 C 0.52574 0.98677 0.47696 0.0
C549 C 0.515 0.03317 0.48445 0.0
C550 C 0.51492 0.01474 0.49272 0.0
C551 C 0.51467 0.96136 0.51635 0.0
C552 C 0.51461 0.9797 0.50769 0.0
H553 H 0.48812 0.06605 0.47212 0.0
H554 H 0.48804 0.03623 0.48943 0.0
H555 H 0.53435 0.00901 0.44482 0.0
H556 H 0.54182 0.92938 0.53732 0.0
H557 H 0.54173 0.95915 0.51851 0.0
C558 C 0.30804 0.23511 0.81536 0.0
C559 C 0.31998 0.24428 0.7913 0.0
C560 C 0.2915 0.23397 0.8007 0.0
C561 C 0.26437 0.23946 0.70258 0.0
H562 H 0.22921 0.24359 0.79047 0.0
C563 C 0.19485 0.24823 0.65542 0.0
C564 C 0.18283 0.23921 0.67973 0.0
C565 C 0.2116 0.24854 0.66874 0.0
C566 C 0.23887 0.24222 0.76558 0.0
H567 H 0.324 0.25919 0.73243 0.0
H568 H 0.295 0.25729 0.70679 0.0
H569 H 0.25845 0.24463 0.81338 0.0
H570 H 0.17905 0.22351 0.73728 0.0
H571 H 0.20834 0.2241 0.76068 0.0
H572 H 0.24473 0.23717 0.65475 0.0
C573 C 0.2985 0.25083 0.73686 0.0
C574 C 0.25564 0.2428 0.77869 0.0
C575 C 0.31511 0.25193 0.75152 0.0
C576 C 0.18795 0.23069 0.71804 0.0
C577 C 0.20474 0.23102 0.73143 0.0
C578 C 0.24757 0.2389 0.68945 0.0
C579 C 0.28645 0.24201 0.7616 0.0
C580 C 0.26861 0.24141 0.74738 0.0
C581 C 0.21677 0.2399 0.7068 0.0
C582 C 0.23463 0.24028 0.72081 0.0
H583 H 0.31148 0.22879 0.84569 0.0
H584 H 0.28266 0.22675 0.82004 0.0
H585 H 0.27402 0.23811 0.67768 0.0
H586 H 0.1913 0.25526 0.62632 0.0
H587 H 0.22047 0.25577 0.64952 0.0
C588 C 0.00573 0.0588 0.10772 0.0
C589 C 0.01161 0.07157 0.07962 0.0
C590 C 0.00521 0.04214 0.09346 0.0
C591 C 0.00291 0.01611 0.99384 0.0
H592 H 0.01984 0.9808 0.06962 0.0
C593 C 0.00934 0.94816 0.93154 0.0
C594 C 0.00598 0.93503 0.9611 0.0
C595 C 0.01013 0.96472 0.94638 0.0
C596 C 0.01481 0.99045 0.04827 0.0
H597 H 0.0216 0.07662 0.01425 0.0
H598 H 0.0203 0.04756 0.9891 0.0
H599 H 0.02093 0.00986 0.09456 0.0
H600 H 0.00073 0.92894 0.02943 0.0
H601 H 0.00167 0.95793 0.05539 0.0
H602 H 0.99643 0.99681 0.94792 0.0
C603 C 0.01609 0.05054 0.02223 0.0
C604 C 0.01551 0.00712 0.06254 0.0
C605 C 0.01679 0.0672 0.03664 0.0
C606 C 0.00346 0.9388 0.00596 0.0
C607 C 0.00407 0.95542 0.02079 0.0
C608 C 0.00204 0.99944 0.97976 0.0
C609 C 0.01036 0.03783 0.05056 0.0
C610 C 0.00963 0.02013 0.0354 0.0
C611 C 0.0074 0.96862 0.99116 0.0
C612 C 0.00805 0.98637 0.00667 0.0
H613 H 0.00123 0.06165 0.14062 0.0
H614 H 1.00048 0.03265 0.11579 0.0
H615 H 0.99804 0.02585 0.97249 0.0
H616 H 0.01164 0.94561 0.89689 0.0
H617 H 0.01311 0.97444 0.92271 0.0
C618 C 0.31376 0.76478 0.18041 0.0
C619 C 0.32526 0.75328 0.19816 0.0
C620 C 0.29704 0.76475 0.19392 0.0
C621 C 0.26816 0.74918 0.28101 0.0
H622 H 0.23458 0.75601 0.19009 0.0
C623 C 0.19787 0.73707 0.31169 0.0
C624 C 0.18655 0.74931 0.29652 0.0
C625 C 0.21472 0.73755 0.29938 0.0
C626 C 0.2438 0.75424 0.21593 0.0
H627 H 0.32835 0.73296 0.24482 0.0
H628 H 0.299 0.73268 0.26815 0.0
H629 H 0.26419 0.75703 0.17074 0.0
H630 H 0.18414 0.77147 0.25557 0.0
H631 H 0.21358 0.77215 0.23351 0.0
H632 H 0.24767 0.74615 0.32603 0.0
C633 C 0.30297 0.74192 0.24416 0.0
C634 C 0.2608 0.75487 0.20491 0.0
C635 C 0.31979 0.74205 0.23083 0.0
C636 C 0.19244 0.76174 0.26752 0.0
C637 C 0.20933 0.76217 0.25498 0.0
C638 C 0.25115 0.74846 0.29197 0.0
C639 C 0.29133 0.7531 0.22532 0.0
C640 C 0.27322 0.7524 0.23732 0.0
C641 C 0.2207 0.7502 0.27128 0.0
C642 C 0.23878 0.75099 0.25956 0.0
H643 H 0.3177 0.77377 0.15567 0.0
H644 H 0.28858 0.77383 0.17952 0.0
H645 H 0.27734 0.74746 0.30696 0.0
H646 H 0.19371 0.72708 0.33327 0.0
H647 H 0.22309 0.72795 0.31177 0.0
C648 C 0.81659 0.73539 0.31361 0.0
C649 C 0.82717 0.74939 0.30948 0.0
C650 C 0.79978 0.73631 0.30093 0.0
C651 C 0.76974 0.76094 0.23401 0.0
H652 H 0.73674 0.74022 0.31051 0.0
C653 C 0.69866 0.77004 0.20686 0.0
C654 C 0.68849 0.75573 0.21104 0.0
C655 C 0.71544 0.76969 0.22016 0.0
C656 C 0.74579 0.74594 0.28856 0.0
H657 H 0.82836 0.7753 0.28819 0.0
H658 H 0.79902 0.7769 0.26592 0.0
H659 H 0.76636 0.73858 0.32953 0.0
H660 H 0.68804 0.72987 0.23293 0.0
H661 H 0.71725 0.72927 0.25623 0.0
H662 H 0.74916 0.76826 0.19297 0.0
C663 C 0.80378 0.76514 0.27859 0.0
C664 C 0.76279 0.74498 0.29942 0.0
C665 C 0.82062 0.76421 0.29128 0.0
C666 C 0.69542 0.74119 0.22986 0.0
C667 C 0.7122 0.74084 0.24315 0.0
C668 C 0.75273 0.7619 0.22313 0.0
C669 C 0.7931 0.75126 0.28378 0.0
C670 C 0.77499 0.75241 0.2722 0.0
C671 C 0.72247 0.75502 0.238 0.0
C672 C 0.74054 0.75437 0.2502 0.0
H673 H 0.8213 0.72369 0.32682 0.0
H674 H 0.79201 0.72527 0.30452 0.0
H675 H 0.77881 0.76662 0.21201 0.0
H676 H 0.69366 0.78152 0.19313 0.0
H677 H 0.7229 0.78093 0.21647 0.0
C678 C 0.81302 0.24408 0.74015 0.0
C679 C 0.81922 0.2559 0.70974 0.0
C680 C 0.79657 0.24517 0.75586 0.0
C681 C 0.75512 0.26154 0.72676 0.0
H682 H 0.74541 0.25696 0.8517 0.0
C683 C 0.68862 0.27279 0.79602 0.0
C684 C 0.68317 0.26261 0.83101 0.0
C685 C 0.7053 0.27226 0.78188 0.0
C686 C 0.74784 0.25803 0.81661 0.0
H687 H 0.8129 0.27841 0.67308 0.0
H688 H 0.78413 0.27999 0.69965 0.0
H689 H 0.77432 0.25523 0.82594 0.0
H690 H 0.69082 0.24364 0.87804 0.0
H691 H 0.71977 0.24236 0.85278 0.0
H692 H 0.72871 0.26392 0.71701 0.0
C693 C 0.79202 0.26984 0.71104 0.0
C694 C 0.76443 0.25709 0.80192 0.0
C695 C 0.80852 0.26887 0.69571 0.0
C696 C 0.69472 0.25183 0.85143 0.0
C697 C 0.71135 0.25114 0.83698 0.0
C698 C 0.73851 0.26228 0.74134 0.0
C699 C 0.78586 0.25798 0.74119 0.0
C700 C 0.76825 0.25889 0.75687 0.0
C701 C 0.71689 0.26137 0.80203 0.0
C702 C 0.73463 0.26058 0.7865 0.0
H703 H 0.82075 0.23375 0.7512 0.0
H704 H 0.7921 0.23575 0.77875 0.0
H705 H 0.75767 0.26274 0.69175 0.0
H706 H 0.68003 0.28134 0.77996 0.0
H707 H 0.70913 0.28054 0.75544 0.0
C708 C 0.0052 0.56011 0.90817 0.0
C709 C 1.00059 0.57293 0.93768 0.0
C710 C 0.00586 0.54345 0.9221 0.0
C711 C 0.00817 0.51688 0.02238 0.0
H712 H 0.99213 0.48223 0.94298 0.0
C713 C 0.99779 0.44879 0.07939 0.0
C714 C 0.00348 0.43591 0.05133 0.0
C715 C 0.99749 0.46541 0.06507 0.0
C716 C 0.99681 0.49174 0.96535 0.0
H717 H 0.99318 0.5783 0.00509 0.0
H718 H 0.99411 0.54914 0.02944 0.0
H719 H 0.99154 0.51144 0.91955 0.0
H720 H 0.01315 0.43051 0.98586 0.0
H721 H 0.01243 0.45958 0.96064 0.0
H722 H 0.01325 0.49715 0.06834 0.0
C723 C 0.99746 0.552 0.9956 0.0
C724 C 0.9965 0.5085 0.95193 0.0
C725 C 0.99689 0.56872 0.98168 0.0
C726 C 0.00853 0.44006 0.00818 0.0
C727 C 0.00815 0.45673 0.99375 0.0
C728 C 0.0084 0.50013 0.03586 0.0
C729 C 0.00186 0.53914 0.96588 0.0
C730 C 0.00218 0.52129 0.98027 0.0
C731 C 0.00276 0.4696 0.02221 0.0
C732 C 0.0027 0.48737 0.00753 0.0
H733 H 0.00846 0.56298 0.87427 0.0
H734 H 0.00966 0.53395 0.89856 0.0
H735 H 0.01291 0.52635 0.04478 0.0
H736 H 0.99345 0.44602 0.1125 0.0
H737 H 0.99296 0.47498 0.0875 0.0
C738 C 0.52782 0.43521 0.45918 0.0
C739 C 0.519 0.43024 0.42111 0.0
C740 C 0.52727 0.45186 0.4738 0.0
C741 C 0.51831 0.49498 0.43575 0.0
H742 H 0.51275 0.50442 0.56055 0.0
C743 C 0.50504 0.56193 0.50217 0.0
C744 C 0.51242 0.56647 0.5426 0.0
C745 C 0.50616 0.54542 0.48661 0.0
C746 C 0.51454 0.50204 0.52563 0.0
H747 H 0.50226 0.43895 0.36943 0.0
H748 H 0.5015 0.4679 0.3946 0.0
H749 H 0.5143 0.47546 0.53533 0.0
H750 H 0.5274 0.55743 0.59738 0.0
H751 H 0.52956 0.52883 0.57009 0.0
H752 H 0.51866 0.52155 0.42601 0.0
C753 C 0.50907 0.45898 0.41273 0.0
C754 C 0.51541 0.48541 0.51119 0.0
C755 C 0.50955 0.44235 0.39825 0.0
C756 C 0.52128 0.55426 0.56653 0.0
C757 C 0.52249 0.53782 0.55091 0.0
C758 C 0.51752 0.51163 0.45021 0.0
C759 C 0.51793 0.46395 0.45065 0.0
C760 C 0.51728 0.48167 0.46607 0.0
C761 C 0.51479 0.53311 0.51099 0.0
C762 C 0.51562 0.51539 0.49536 0.0
H763 H 0.53536 0.42629 0.47735 0.0
H764 H 0.53437 0.45532 0.5029 0.0
H765 H 0.51997 0.49253 0.4008 0.0
H766 H 0.49801 0.57102 0.48315 0.0
H767 H 0.49991 0.54223 0.45598 0.0
C768 C 0.45015 0.15247 0.28151 0.0
C769 C 0.45482 0.1355 0.28225 0.0
C770 C 0.43927 0.15846 0.24917 0.0
C771 C 0.42636 0.14833 0.13614 0.0
H772 H 0.39722 0.18671 0.1527 0.0
C773 C 0.39142 0.18066 0.9923 0.0
C774 C 0.39381 0.19808 0.9907 0.0
C775 C 0.39629 0.17158 0.02955 0.0
C776 C 0.40529 0.17595 0.14772 0.0
H777 H 0.4507 0.11129 0.25119 0.0
H778 H 0.43128 0.12165 0.19584 0.0
H779 H 0.40929 0.17279 0.21708 0.0
H780 H 0.40279 0.21974 0.02689 0.0
H781 H 0.41136 0.20388 0.09194 0.0
H782 H 0.42251 0.15168 0.06674 0.0
C783 C 0.43643 0.13041 0.21959 0.0
C784 C 0.41222 0.16801 0.18447 0.0
C785 C 0.44744 0.12444 0.25171 0.0
C786 C 0.40103 0.20629 0.02705 0.0
C787 C 0.4057 0.19726 0.06445 0.0
C788 C 0.4193 0.15617 0.09947 0.0
C789 C 0.43264 0.14757 0.21712 0.0
C790 C 0.42321 0.1544 0.179 0.0
C791 C 0.40339 0.17984 0.06598 0.0
C792 C 0.40908 0.17031 0.10492 0.0
H793 H 0.45525 0.16127 0.30515 0.0
H794 H 0.43671 0.17178 0.24813 0.0
H795 H 0.43497 0.13804 0.13065 0.0
H796 H 0.38594 0.17406 0.96457 0.0
H797 H 0.3944 0.15814 0.03003 0.0
C798 C 0.06526 0.13307 0.27363 0.0
C799 C 0.07045 0.13683 0.23058 0.0
C800 C 0.07699 0.13149 0.30743 0.0
C801 C 0.10252 0.12931 0.3784 0.0
H802 H 0.13602 0.16404 0.36643 0.0
C803 C 0.11864 0.1674 0.5294 0.0
C804 C 0.11883 0.18465 0.521 0.0
C805 C 0.12116 0.15597 0.495 0.0
C806 C 0.12665 0.15437 0.3706 0.0
H807 H 0.09184 0.14015 0.18774 0.0
H808 H 0.11259 0.13644 0.24632 0.0
H809 H 0.12278 0.15289 0.30122 0.0
H810 H 0.12278 0.20369 0.47147 0.0
H811 H 0.12601 0.18417 0.41105 0.0
H812 H 0.1046 0.13244 0.44783 0.0
C813 C 0.09945 0.13546 0.25468 0.0
C814 C 0.11923 0.14763 0.33278 0.0
C815 C 0.08763 0.13747 0.22101 0.0
C816 C 0.12271 0.19039 0.47856 0.0
C817 C 0.1247 0.17904 0.44393 0.0
C818 C 0.10942 0.13654 0.41624 0.0
C819 C 0.09426 0.13331 0.29884 0.0
C820 C 0.10612 0.13592 0.33639 0.0
C821 C 0.12321 0.16163 0.4512 0.0
C822 C 0.12064 0.1501 0.41284 0.0
H823 H 0.05206 0.13269 0.28184 0.0
H824 H 0.07225 0.13015 0.34073 0.0
H825 H 0.0932 0.11958 0.38252 0.0
H826 H 0.11585 0.16282 0.56226 0.0
H827 H 0.12053 0.14274 0.50252 0.0
C828 C 0.12172 0.81966 0.48178 0.0
C829 C 0.12275 0.8021 0.48458 0.0
C830 C 0.11861 0.82928 0.51942 0.0
C831 C 0.11506 0.82756 0.64233 0.0
H832 H 0.07991 0.86021 0.62222 0.0
C833 C 0.06784 0.8495 0.77471 0.0
C834 C 0.06256 0.86629 0.77379 0.0
C835 C 0.07895 0.84343 0.74281 0.0
C836 C 0.08996 0.85139 0.6284 0.0
H837 H 0.12284 0.78112 0.53031 0.0
H838 H 0.11659 0.79775 0.59522 0.0
H839 H 0.09304 0.84655 0.55964 0.0
H840 H 0.0654 0.89005 0.73967 0.0
H841 H 0.08487 0.87951 0.68453 0.0
H842 H 0.11123 0.83195 0.71153 0.0
C843 C 0.11836 0.80414 0.56401 0.0
C844 C 0.09755 0.84357 0.59245 0.0
C845 C 0.12165 0.79453 0.52646 0.0
C846 C 0.06924 0.87707 0.74157 0.0
C847 C 0.08031 0.87101 0.70971 0.0
C848 C 0.10736 0.83534 0.67842 0.0
C849 C 0.11629 0.82157 0.56069 0.0
C850 C 0.10997 0.83134 0.59895 0.0
C851 C 0.08494 0.85405 0.70935 0.0
C852 C 0.09453 0.84711 0.67173 0.0
H853 H 0.12256 0.82602 0.45033 0.0
H854 H 0.11745 0.84273 0.51589 0.0
H855 H 0.12476 0.81836 0.64842 0.0
H856 H 0.06314 0.84096 0.79954 0.0
H857 H 0.08223 0.83026 0.74316 0.0
C858 C 0.39996 0.79957 0.97011 0.0
C859 C 0.39528 0.80708 0.01019 0.0
C860 C 0.40209 0.80927 0.93235 0.0
C861 C 0.41387 0.85091 0.89851 0.0
H862 H 0.40081 0.83458 0.78272 0.0
C863 C 0.44331 0.87894 0.74468 0.0
C864 C 0.45066 0.86663 0.71761 0.0
C865 C 0.43109 0.87457 0.77547 0.0
C866 C 0.40442 0.83937 0.81484 0.0
H867 H 0.38912 0.83054 0.04241 0.0
H868 H 0.39306 0.84765 0.97612 0.0
H869 H 0.38973 0.82105 0.84895 0.0
H870 H 0.44978 0.84045 0.69861 0.0
H871 H 0.42901 0.83267 0.75345 0.0
H872 H 0.4294 0.86847 0.86487 0.0
C873 C 0.39496 0.83423 0.97405 0.0
C874 C 0.3981 0.83165 0.85262 0.0
C875 C 0.39272 0.82448 0.01182 0.0
C876 C 0.44468 0.85012 0.71978 0.0
C877 C 0.43253 0.84573 0.7507 0.0
C878 C 0.42025 0.85857 0.86078 0.0
C879 C 0.39964 0.82668 0.934 0.0
C880 C 0.40334 0.83692 0.89469 0.0
C881 C 0.42605 0.85781 0.7799 0.0
C882 C 0.41614 0.85241 0.81861 0.0
H883 H 0.40173 0.78615 0.96772 0.0
H884 H 0.406 0.80318 0.90204 0.0
H885 H 0.41818 0.85515 0.93057 0.0
H886 H 0.44759 0.89179 0.74387 0.0
H887 H 0.42614 0.88417 0.79718 0.0
C888 C 0.52156 0.83824 0.79199 0.0
C889 C 0.5174 0.83277 0.74916 0.0
C890 C 0.52782 0.8271 0.82356 0.0
C891 C 0.536 0.80083 0.89219 0.0
H892 H 0.56801 0.76786 0.85103 0.0
C893 C 0.57523 0.76113 0.01593 0.0
C894 C 0.59224 0.75912 0.005 0.0
C895 C 0.56378 0.76738 0.98462 0.0
C896 C 0.55916 0.77704 0.86327 0.0
H897 H 0.51595 0.81095 0.70671 0.0
H898 H 0.52658 0.7913 0.76225 0.0
H899 H 0.55218 0.78419 0.79765 0.0
H900 H 0.61033 0.76156 0.95186 0.0
H901 H 0.59074 0.77258 0.8983 0.0
H902 H 0.54371 0.79439 0.95778 0.0
C903 C 0.52528 0.80438 0.77115 0.0
C904 C 0.54984 0.78628 0.83246 0.0
C905 C 0.51901 0.81561 0.73935 0.0
C906 C 0.59735 0.76292 0.96165 0.0
C907 C 0.58599 0.76915 0.93057 0.0
C908 C 0.54542 0.79168 0.923 0.0
C909 C 0.53008 0.81003 0.81354 0.0
C910 C 0.5384 0.79863 0.84638 0.0
C911 C 0.56907 0.77175 0.94161 0.0
C912 C 0.55746 0.77993 0.90903 0.0
H913 H 0.5205 0.85135 0.80091 0.0
H914 H 0.53156 0.83211 0.85531 0.0
H915 H 0.52708 0.80994 0.90444 0.0
H916 H 0.57085 0.75835 0.049 0.0
H917 H 0.55082 0.76896 0.99433 0.0
C918 C 0.99685 0.84055 0.71668 0.0
C919 C 0.99634 0.83673 0.76203 0.0
C920 C 0.9912 0.82904 0.68514 0.0
C921 C 0.96074 0.79541 0.67255 0.0
H922 H 0.98244 0.78777 0.55963 0.0
C923 C 0.92824 0.75494 0.54097 0.0
C924 C 0.92936 0.76009 0.49673 0.0
C925 C 0.93877 0.76178 0.5732 0.0
C926 C 0.97609 0.78987 0.59075 0.0
H927 H 0.98992 0.81758 0.80976 0.0
H928 H 0.97969 0.79747 0.75448 0.0
H929 H 0.99663 0.80426 0.61647 0.0
H930 H 0.94273 0.77609 0.45114 0.0
H931 H 0.9608 0.78859 0.50755 0.0
H932 H 0.93987 0.78192 0.64669 0.0
C933 C 0.9846 0.80941 0.74344 0.0
C934 C 0.9843 0.79926 0.62348 0.0
C935 C 0.99055 0.82086 0.77507 0.0
C936 C 0.94176 0.77173 0.48494 0.0
C937 C 0.95211 0.77889 0.51746 0.0
C938 C 0.95244 0.78625 0.63972 0.0
C939 C 0.98461 0.81349 0.69813 0.0
C940 C 0.97667 0.80225 0.66467 0.0
C941 C 0.95045 0.77435 0.56237 0.0
C942 C 0.9599 0.78339 0.59811 0.0
H943 H 0.00128 0.85266 0.70554 0.0
H944 H 0.99128 0.83266 0.65065 0.0
H945 H 0.95437 0.79772 0.70357 0.0
H946 H 0.91885 0.7459 0.55093 0.0
H947 H 0.9374 0.75746 0.6069 0.0
C948 C 0.00739 0.17668 0.29846 0.0
C949 C 1.0006 0.17607 0.25568 0.0
C950 C 1.00007 0.18661 0.33131 0.0
C951 C 0.96702 0.21931 0.35237 0.0
H952 H 0.96624 0.19871 0.46842 0.0
C953 C 0.91688 0.23341 0.48479 0.0
C954 C 0.92171 0.23477 0.52935 0.0
C955 C 0.92847 0.22904 0.45217 0.0
C956 C 0.96656 0.2048 0.43645 0.0
H957 H 0.98112 0.18585 0.21325 0.0
H958 H 0.96789 0.20282 0.27085 0.0
H959 H 0.98255 0.18595 0.40952 0.0
H960 H 0.94265 0.23302 0.57452 0.0
H961 H 0.96304 0.22489 0.51724 0.0
H962 H 0.9502 0.23767 0.37928 0.0
C963 C 0.97918 0.19598 0.27902 0.0
C964 C 0.97598 0.1975 0.40245 0.0
C965 C 0.98676 0.18625 0.2458 0.0
C966 C 0.93859 0.2321 0.54045 0.0
C967 C 0.9502 0.22737 0.50772 0.0
C968 C 0.95741 0.22648 0.3863 0.0
C969 C 0.98545 0.19593 0.32268 0.0
C970 C 0.97625 0.20452 0.35965 0.0
C971 C 0.94521 0.22563 0.46323 0.0
C972 C 0.9569 0.2192 0.42862 0.0
H973 H 0.01812 0.16902 0.30695 0.0
H974 H 0.00568 0.18658 0.36388 0.0
H975 H 0.96708 0.22533 0.32033 0.0
H976 H 0.90398 0.2355 0.47509 0.0
H977 H 0.92415 0.22768 0.41843 0.0
C978 C 0.51738 0.18251 0.27281 0.0
C979 C 0.52083 0.16538 0.26666 0.0
C980 C 0.52139 0.19423 0.23972 0.0
C981 C 0.54125 0.21703 0.17728 0.0
H982 H 0.54171 0.20339 0.05425 0.0
C983 C 0.58469 0.2481 0.05042 0.0
C984 C 0.58051 0.24857 0.00527 0.0
C985 C 0.57425 0.24027 0.0811 0.0
C986 C 0.54143 0.20762 0.08824 0.0
H987 H 0.53103 0.14722 0.22043 0.0
H988 H 0.5383 0.16738 0.16416 0.0
H989 H 0.52863 0.18546 0.10915 0.0
H990 H 0.56153 0.24176 0.95739 0.0
H991 H 0.54296 0.22828 0.01135 0.0
H992 H 0.55379 0.23933 0.15625 0.0
C993 C 0.53215 0.1719 0.19375 0.0
C994 C 0.53413 0.19716 0.12004 0.0
C995 C 0.5281 0.16028 0.22649 0.0
C996 C 0.56514 0.24162 0.99188 0.0
C997 C 0.55458 0.23376 0.02284 0.0
C998 C 0.54839 0.22758 0.14541 0.0
C999 C 0.52897 0.18909 0.19977 0.0
C1000 C 0.53444 0.20142 0.16527 0.0
C1001 C 0.55916 0.2327 0.06785 0.0
C1002 C 0.54911 0.22279 0.10058 0.0
H1003 H 0.51174 0.18687 0.30328 0.0
H1004 H 0.51857 0.20732 0.24552 0.0
H1005 H 0.54178 0.22083 0.21161 0.0
H1006 H 0.59639 0.25334 0.06213 0.0
H1007 H 0.57847 0.23954 0.11503 0.0
C1008 C 0.92454 0.63909 0.78133 0.0
C1009 C 0.94195 0.63981 0.77481 0.0
C1010 C 0.91365 0.63887 0.74519 0.0
C1011 C 0.89609 0.65542 0.66844 0.0
H1012 H 0.91051 0.64144 0.55184 0.0
C1013 C 0.89254 0.69828 0.52122 0.0
C1014 C 0.89256 0.69196 0.47794 0.0
C1015 C 0.89204 0.68741 0.55718 0.0
C1016 C 0.90588 0.64514 0.58403 0.0
H1017 H 0.96162 0.63991 0.72542 0.0
H1018 H 0.94285 0.63994 0.66281 0.0
H1019 H 0.92226 0.62793 0.61658 0.0
H1020 H 0.89057 0.66946 0.43823 0.0
H1021 H 0.88954 0.65035 0.50127 0.0
H1022 H 0.87993 0.67283 0.63589 0.0
C1023 C 0.93744 0.63911 0.69555 0.0
C1024 C 0.91282 0.63753 0.62126 0.0
C1025 C 0.94829 0.63918 0.73159 0.0
C1026 C 0.89089 0.67461 0.47133 0.0
C1027 C 0.89027 0.6637 0.50739 0.0
C1028 C 0.88895 0.66284 0.63121 0.0
C1029 C 0.91998 0.63954 0.70185 0.0
C1030 C 0.90887 0.6434 0.66381 0.0
C1031 C 0.89144 0.66995 0.55074 0.0
C1032 C 0.89464 0.65861 0.58869 0.0
H1033 H 0.91937 0.63926 0.8144 0.0
H1034 H 0.90027 0.63891 0.75122 0.0
H1035 H 0.89262 0.66023 0.70063 0.0
H1036 H 0.894 0.71155 0.52746 0.0
H1037 H 0.8933 0.69273 0.58994 0.0
C1038 C 0.60504 0.68659 0.03577 0.0
C1039 C 0.6221 0.69082 0.03807 0.0
C1040 C 0.59944 0.6748 0.00517 0.0
C1041 C 0.61155 0.65988 0.89619 0.0
H1042 H 0.57111 0.63335 0.90807 0.0
C1043 C 0.57817 0.63066 0.74608 0.0
C1044 C 0.56101 0.63449 0.7442 0.0
C1045 C 0.58724 0.63351 0.78475 0.0
C1046 C 0.58248 0.64064 0.90442 0.0
H1047 H 0.64683 0.6848 0.01253 0.0
H1048 H 0.6371 0.66392 0.96022 0.0
H1049 H 0.58476 0.64449 0.97414 0.0
H1050 H 0.53977 0.64384 0.78148 0.0
H1051 H 0.55565 0.64912 0.84875 0.0
H1052 H 0.60895 0.65653 0.82648 0.0
C1053 C 0.62801 0.67006 0.98133 0.0
C1054 C 0.59027 0.647 0.94212 0.0
C1055 C 0.6336 0.68196 0.01166 0.0
C1056 C 0.55304 0.64104 0.78177 0.0
C1057 C 0.56206 0.64378 0.82048 0.0
C1058 C 0.60383 0.65343 0.8586 0.0
C1059 C 0.61082 0.66686 0.97653 0.0
C1060 C 0.60454 0.6572 0.93823 0.0
C1061 C 0.57924 0.64009 0.82227 0.0
C1062 C 0.58891 0.64428 0.8623 0.0
H1063 H 0.5959 0.69281 0.05645 0.0
H1064 H 0.58609 0.67269 0.00224 0.0
H1065 H 0.62238 0.66788 0.89192 0.0
H1066 H 0.58459 0.62563 0.71748 0.0
H1067 H 0.60049 0.63059 0.78536 0.0
C1068 C 0.62646 0.31602 0.02055 0.0
C1069 C 0.6217 0.32084 0.97795 0.0
C1070 C 0.62891 0.32808 0.05326 0.0
C1071 C 0.61295 0.37073 0.07647 0.0
H1072 H 0.62699 0.35607 0.19242 0.0
C1073 C 0.59035 0.36849 0.27027 0.0
C1074 C 0.57327 0.36862 0.25971 0.0
C1075 C 0.60234 0.37168 0.23768 0.0
C1076 C 0.6232 0.36091 0.1606 0.0
H1077 H 0.61782 0.34179 0.93407 0.0
H1078 H 0.62329 0.36309 0.99024 0.0
H1079 H 0.6405 0.34472 0.12809 0.0
H1080 H 0.55507 0.37326 0.20852 0.0
H1081 H 0.57557 0.3776 0.15096 0.0
H1082 H 0.5963 0.38761 0.10897 0.0
C1083 C 0.62423 0.35004 0.99952 0.0
C1084 C 0.63081 0.35401 0.12325 0.0
C1085 C 0.62126 0.3379 0.96712 0.0
C1086 C 0.56823 0.37321 0.21719 0.0
C1087 C 0.58015 0.37583 0.18424 0.0
C1088 C 0.60588 0.37819 0.11382 0.0
C1089 C 0.62699 0.3453 0.04381 0.0
C1090 C 0.62451 0.35749 0.08082 0.0
C1091 C 0.59743 0.37429 0.19344 0.0
C1092 C 0.60961 0.37207 0.15628 0.0
H1093 H 0.62677 0.3029 0.02954 0.0
H1094 H 0.63082 0.32362 0.0866 0.0
H1095 H 0.60796 0.37433 0.04465 0.0
H1096 H 0.59438 0.36516 0.30328 0.0
H1097 H 0.61542 0.37103 0.2468 0.0
C1098 C 0.88237 0.28701 0.46632 0.0
C1099 C 0.88694 0.2967 0.50325 0.0
C1100 C 0.88448 0.29328 0.42356 0.0
C1101 C 0.89443 0.33233 0.36127 0.0
H1102 H 0.91874 0.30221 0.2838 0.0
C1103 C 0.95198 0.33739 0.23477 0.0
C1104 C 0.94794 0.35241 0.2132 0.0
C1105 C 0.93997 0.329 0.25979 0.0
C1106 C 0.91188 0.31077 0.30491 0.0
H1107 H 0.89688 0.32073 0.52412 0.0
H1108 H 0.90069 0.33154 0.4502 0.0
H1109 H 0.90537 0.29123 0.34994 0.0
H1110 H 0.92791 0.36976 0.19794 0.0
H1111 H 0.90675 0.35498 0.24129 0.0
H1112 H 0.90217 0.3521 0.31855 0.0
C1113 C 0.89513 0.31925 0.45399 0.0
C1114 C 0.90402 0.30443 0.34256 0.0
C1115 C 0.893 0.31301 0.49655 0.0
C1116 C 0.9314 0.35837 0.21498 0.0
C1117 C 0.91931 0.34989 0.23972 0.0
C1118 C 0.90243 0.33869 0.32392 0.0
C1119 C 0.89119 0.30936 0.41696 0.0
C1120 C 0.89589 0.31529 0.37222 0.0
C1121 C 0.92359 0.33538 0.2635 0.0
C1122 C 0.91191 0.32809 0.29644 0.0
H1123 H 0.87738 0.2745 0.47042 0.0
H1124 H 0.88116 0.28543 0.39569 0.0
H1125 H 0.88792 0.34095 0.38298 0.0
H1126 H 0.96467 0.3326 0.23439 0.0
H1127 H 0.94385 0.31806 0.27828 0.0
C1128 C 0.01702 0.31979 0.23411 0.0
C1129 C 0.01911 0.33707 0.24131 0.0
C1130 C 0.02155 0.30818 0.26695 0.0
C1131 C 0.03269 0.30533 0.38738 0.0
H1132 H 0.05698 0.2656 0.35134 0.0
C1133 C 0.0657 0.26256 0.51605 0.0
C1134 C 0.08199 0.25759 0.50421 0.0
C1135 C 0.05495 0.26973 0.48445 0.0
C1136 C 0.05024 0.27665 0.36209 0.0
H1137 H 0.02747 0.35563 0.28898 0.0
H1138 H 0.0356 0.33566 0.34496 0.0
H1139 H 0.04409 0.28334 0.29555 0.0
H1140 H 0.09947 0.25572 0.44943 0.0
H1141 H 0.08114 0.26832 0.39543 0.0
H1142 H 0.03975 0.29923 0.45367 0.0
C1143 C 0.03014 0.33092 0.31467 0.0
C1144 C 0.04263 0.28674 0.32998 0.0
C1145 C 0.0256 0.34244 0.28215 0.0
C1146 C 0.08704 0.25942 0.45994 0.0
C1147 C 0.07639 0.26653 0.42861 0.0
C1148 C 0.04042 0.29532 0.41945 0.0
C1149 C 0.02825 0.31361 0.30766 0.0
C1150 C 0.03418 0.30151 0.34205 0.0
C1151 C 0.06026 0.27202 0.44036 0.0
C1152 C 0.04976 0.28111 0.40716 0.0
H1153 H 0.01198 0.31524 0.20312 0.0
H1154 H 0.01978 0.29495 0.26044 0.0
H1155 H 0.02595 0.31638 0.39813 0.0
H1156 H 0.06142 0.2613 0.54985 0.0
H1157 H 0.04255 0.27365 0.49468 0.0
C1158 C 0.43504 0.26298 0.97728 0.0
C1159 C 0.41781 0.26595 0.98303 0.0
C1160 C 0.4466 0.26787 0.01 0.0
C1161 C 0.4491 0.28125 0.12883 0.0
H1162 H 0.48996 0.3034 0.09229 0.0
C1163 C 0.49709 0.33434 0.19926 0.0
C1164 C 0.49875 0.32956 0.24379 0.0
C1165 C 0.48956 0.32373 0.16839 0.0
C1166 C 0.4786 0.29725 0.10317 0.0
H1167 H 0.3993 0.27625 0.02812 0.0
H1168 H 0.41918 0.28486 0.08394 0.0
H1169 H 0.47203 0.29036 0.03695 0.0
H1170 H 0.49423 0.30948 0.29037 0.0
H1171 H 0.48108 0.29073 0.23607 0.0
H1172 H 0.4552 0.28892 0.19474 0.0
C1173 C 0.4239 0.27852 0.05482 0.0
C1174 C 0.46839 0.28957 0.07136 0.0
C1175 C 0.41244 0.27369 0.02237 0.0
C1176 C 0.49315 0.31355 0.25636 0.0
C1177 C 0.48551 0.30287 0.22526 0.0
C1178 C 0.45928 0.28898 0.16061 0.0
C1179 C 0.44116 0.27575 0.04923 0.0
C1180 C 0.45324 0.28187 0.08356 0.0
C1181 C 0.48342 0.30793 0.1809 0.0
C1182 C 0.47394 0.29752 0.14811 0.0
H1183 H 0.4396 0.257 0.94748 0.0
H1184 H 0.45978 0.26542 0.00459 0.0
H1185 H 0.43772 0.27513 0.13971 0.0
H1186 H 0.50128 0.34654 0.18819 0.0
H1187 H 0.48799 0.32828 0.13494 0.0
C1188 C 0.41725 0.7343 0.95906 0.0
C1189 C 0.42277 0.73809 0.00211 0.0
C1190 C 0.42825 0.72792 0.92729 0.0
C1191 C 0.45458 0.72015 0.85829 0.0
H1192 H 0.48557 0.6857 0.89618 0.0
C1193 C 0.49354 0.68099 0.73157 0.0
C1194 C 0.49424 0.66369 0.74026 0.0
C1195 C 0.48748 0.69223 0.76379 0.0
C1196 C 0.47697 0.69528 0.88488 0.0
H1197 H 0.4445 0.73858 0.04488 0.0
H1198 H 0.46392 0.72749 0.98902 0.0
H1199 H 0.46987 0.70153 0.95118 0.0
H1200 H 0.48956 0.64483 0.79042 0.0
H1201 H 0.479 0.66409 0.84547 0.0
H1202 H 0.46104 0.71329 0.79193 0.0
C1203 C 0.45092 0.72932 0.98009 0.0
C1204 C 0.46809 0.70455 0.91662 0.0
C1205 C 0.43983 0.73581 0.01209 0.0
C1206 C 0.48921 0.65803 0.78227 0.0
C1207 C 0.48325 0.66918 0.81427 0.0
C1208 C 0.46342 0.71084 0.82654 0.0
C1209 C 0.44522 0.72509 0.93731 0.0
C1210 C 0.45642 0.71683 0.90382 0.0
C1211 C 0.48209 0.68644 0.80555 0.0
C1212 C 0.47442 0.69794 0.8393 0.0
H1213 H 0.40423 0.7359 0.94994 0.0
H1214 H 0.42322 0.72461 0.89522 0.0
H1215 H 0.44598 0.72972 0.847 0.0
H1216 H 0.49731 0.68579 0.69961 0.0
H1217 H 0.48693 0.70545 0.75589 0.0
C1218 C 0.02024 0.68912 0.76886 0.0
C1219 C 0.01036 0.67545 0.75558 0.0
C1220 C 0.02747 0.69974 0.73714 0.0
C1221 C 0.02618 0.71237 0.61868 0.0
H1222 H 0.0742 0.71714 0.63179 0.0
C1223 C 0.07008 0.73037 0.47235 0.0
C1224 C 0.08533 0.73828 0.48213 0.0
C1225 C 0.05922 0.72552 0.50662 0.0
C1226 C 0.06075 0.71636 0.62774 0.0
H1227 H 0.99937 0.66287 0.6991 0.0
H1228 H 0.01161 0.6815 0.64417 0.0
H1229 H 0.05799 0.70452 0.69078 0.0
H1230 H 0.10063 0.74853 0.53462 0.0
H1231 H 0.08144 0.74109 0.59379 0.0
H1232 H 0.02894 0.72416 0.55547 0.0
C1233 C 0.01393 0.68402 0.67881 0.0
C1234 C 0.05144 0.70903 0.66179 0.0
C1235 C 0.00697 0.67328 0.71034 0.0
C1236 C 0.08901 0.74227 0.52624 0.0
C1237 C 0.07805 0.7378 0.56025 0.0
C1238 C 0.03549 0.71991 0.58472 0.0
C1239 C 0.02468 0.69707 0.69166 0.0
C1240 C 0.03409 0.70671 0.65747 0.0
C1241 C 0.06329 0.72876 0.55127 0.0
C1242 C 0.05298 0.72182 0.58846 0.0
H1243 H 0.02316 0.69103 0.80346 0.0
H1244 H 0.0356 0.70978 0.7481 0.0
H1245 H 0.0128 0.71084 0.61443 0.0
H1246 H 0.06706 0.72701 0.43858 0.0
H1247 H 0.04807 0.71851 0.49815 0.0
C1248 C 0.42661 0.22954 0.75836 0.0
C1249 C 0.41366 0.21937 0.77505 0.0
C1250 C 0.43712 0.22368 0.72418 0.0
C1251 C 0.45035 0.18374 0.66953 0.0
H1252 H 0.46095 0.21126 0.56777 0.0
C1253 C 0.46318 0.15568 0.49943 0.0
C1254 C 0.47809 0.16003 0.4774 0.0
C1255 C 0.45802 0.16431 0.53719 0.0
C1256 C 0.45831 0.20351 0.59631 0.0
H1257 H 0.40176 0.19501 0.76853 0.0
H1258 H 0.41961 0.1851 0.7098 0.0
H1259 H 0.447 0.22387 0.6322 0.0
H1260 H 0.49908 0.17726 0.47771 0.0
H1261 H 0.48966 0.1928 0.54376 0.0
H1262 H 0.4608 0.16325 0.63295 0.0
C1263 C 0.42199 0.19746 0.7232 0.0
C1264 C 0.45034 0.21072 0.63326 0.0
C1265 C 0.41158 0.20326 0.75691 0.0
C1266 C 0.48755 0.17358 0.49385 0.0
C1267 C 0.48216 0.18249 0.53152 0.0
C1268 C 0.45809 0.17656 0.63266 0.0
C1269 C 0.43497 0.20748 0.70633 0.0
C1270 C 0.44577 0.20078 0.66981 0.0
C1271 C 0.46743 0.17775 0.55388 0.0
C1272 C 0.46174 0.18623 0.59515 0.0
H1273 H 0.42855 0.24203 0.77142 0.0
H1274 H 0.447 0.23175 0.71205 0.0
H1275 H 0.4475 0.17575 0.69744 0.0
H1276 H 0.45553 0.14534 0.48802 0.0
H1277 H 0.44656 0.16046 0.55347 0.0
C1278 C 0.02375 0.17955 0.02221 0.0
C1279 C 0.02843 0.1626 0.02542 0.0
C1280 C 0.0275 0.18879 0.98384 0.0
C1281 C 0.0387 0.18338 0.86554 0.0
H1282 H 0.0644 0.22437 0.87746 0.0
C1283 C 0.08709 0.2029 0.73791 0.0
C1284 C 0.08819 0.21963 0.72375 0.0
C1285 C 0.07651 0.19837 0.77251 0.0
C1286 C 0.05693 0.21313 0.87349 0.0
H1287 H 0.04004 0.14192 0.99038 0.0
H1288 H 0.04625 0.15775 0.92407 0.0
H1289 H 0.05114 0.21186 0.9428 0.0
H1290 H 0.07896 0.2448 0.73514 0.0
H1291 H 0.0605 0.23683 0.79709 0.0
H1292 H 0.04509 0.18413 0.79689 0.0
C1293 C 0.03978 0.16404 0.95085 0.0
C1294 C 0.04933 0.20597 0.91089 0.0
C1295 C 0.03631 0.15496 0.9891 0.0
C1296 C 0.07834 0.2318 0.74522 0.0
C1297 C 0.06785 0.22726 0.7807 0.0
C1298 C 0.04627 0.19048 0.82841 0.0
C1299 C 0.03563 0.18111 0.94778 0.0
C1300 C 0.04069 0.19064 0.90755 0.0
C1301 C 0.06678 0.21043 0.79447 0.0
C1302 C 0.05603 0.20507 0.83219 0.0
H1303 H 0.01774 0.18577 0.0498 0.0
H1304 H 0.02413 0.20192 0.98242 0.0
H1305 H 0.03185 0.17175 0.86167 0.0
H1306 H 0.09442 0.19316 0.7221 0.0
H1307 H 0.07619 0.18535 0.78266 0.0
C1308 C 0.0555 0.84499 0.98861 0.0
C1309 C 0.03962 0.84244 0.9695 0.0
C1310 C 0.06035 0.83622 0.02643 0.0
C1311 C 0.05311 0.79846 0.0927 0.0
H1312 H 0.07245 0.82494 0.18742 0.0
C1313 C 0.08829 0.77015 0.2448 0.0
C1314 C 0.08446 0.77715 0.28631 0.0
C1315 C 0.08189 0.77724 0.20585 0.0
C1316 C 0.06701 0.81736 0.16141 0.0
H1317 H 0.01658 0.82819 0.97486 0.0
H1318 H 0.02527 0.81256 0.04091 0.0
H1319 H 0.06295 0.83872 0.12001 0.0
H1320 H 0.07073 0.79705 0.31918 0.0
H1321 H 0.05985 0.80948 0.25149 0.0
H1322 H 0.05743 0.77704 0.13419 0.0
C1323 C 0.03388 0.82149 0.02639 0.0
C1324 C 0.06167 0.82525 0.12264 0.0
C1325 C 0.0289 0.83046 0.98863 0.0
C1326 C 0.07397 0.79131 0.28788 0.0
C1327 C 0.06778 0.7985 0.24902 0.0
C1328 C 0.05871 0.79051 0.13137 0.0
C1329 C 0.04958 0.82449 0.0461 0.0
C1330 C 0.05469 0.81592 0.08775 0.0
C1331 C 0.07172 0.79164 0.2075 0.0
C1332 C 0.0657 0.79989 0.16621 0.0
H1333 H 0.06415 0.85404 0.97488 0.0
H1334 H 0.0726 0.83866 0.04043 0.0
H1335 H 0.04786 0.79094 0.06632 0.0
H1336 H 0.0963 0.75923 0.24232 0.0
H1337 H 0.08526 0.77172 0.17437 0.0
C1338 C 0.42841 0.76549 0.24878 0.0
C1339 C 0.42049 0.77718 0.22096 0.0
C1340 C 0.43777 0.771 0.28568 0.0
C1341 C 0.43895 0.80768 0.36043 0.0
H1342 H 0.48026 0.78931 0.40718 0.0
C1343 C 0.46168 0.82772 0.53123 0.0
C1344 C 0.47856 0.83241 0.5361 0.0
C1345 C 0.45621 0.81906 0.4938 0.0
C1346 C 0.46876 0.79461 0.39438 0.0
H1347 H 0.41734 0.80367 0.20784 0.0
H1348 H 0.4338 0.81313 0.27046 0.0
H1349 H 0.46836 0.77793 0.33826 0.0
H1350 H 0.50314 0.83083 0.50602 0.0
H1351 H 0.49347 0.8157 0.43973 0.0
H1352 H 0.43922 0.82441 0.4155 0.0
C1353 C 0.43246 0.79978 0.26514 0.0
C1354 C 0.46187 0.788 0.35511 0.0
C1355 C 0.42309 0.79433 0.22894 0.0
C1356 C 0.49005 0.82739 0.50334 0.0
C1357 C 0.4845 0.81871 0.46538 0.0
C1358 C 0.44572 0.81416 0.39942 0.0
C1359 C 0.43939 0.78826 0.29512 0.0
C1360 C 0.44691 0.79457 0.33745 0.0
C1361 C 0.46738 0.81488 0.45958 0.0
C1362 C 0.46068 0.80774 0.41721 0.0
H1363 H 0.42654 0.75219 0.24363 0.0
H1364 H 0.44296 0.76177 0.30802 0.0
H1365 H 0.4273 0.81294 0.34842 0.0
H1366 H 0.4525 0.83112 0.55605 0.0
H1367 H 0.44303 0.81596 0.49124 0.0
C1368 C 0.5803 0.85174 0.53518 0.0
C1369 C 0.563 0.8486 0.53161 0.0
C1370 C 0.5904 0.85207 0.49751 0.0
C1371 C 0.60733 0.83586 0.41753 0.0
H1372 H 0.59041 0.85194 0.30513 0.0
C1373 C 0.60767 0.79719 0.26269 0.0
C1374 C 0.61047 0.80443 0.22105 0.0
C1375 C 0.60762 0.80704 0.30059 0.0
C1376 C 0.59565 0.84775 0.33624 0.0
H1377 H 0.5428 0.84352 0.4855 0.0
H1378 H 0.56031 0.8442 0.4202 0.0
H1379 H 0.57876 0.86296 0.37378 0.0
H1380 H 0.61595 0.82778 0.18705 0.0
H1381 H 0.61511 0.84511 0.25354 0.0
H1382 H 0.62333 0.81973 0.37994 0.0
C1383 C 0.56602 0.84672 0.45199 0.0
C1384 C 0.5889 0.85396 0.37545 0.0
C1385 C 0.55599 0.84623 0.48952 0.0
C1386 C 0.61346 0.82179 0.21839 0.0
C1387 C 0.61319 0.83171 0.25644 0.0
C1388 C 0.61404 0.82961 0.37832 0.0
C1389 C 0.58334 0.84945 0.45565 0.0
C1390 C 0.59397 0.84727 0.41623 0.0
C1391 C 0.61019 0.8244 0.29779 0.0
C1392 C 0.60749 0.83476 0.33748 0.0
H1393 H 0.58609 0.85395 0.56696 0.0
H1394 H 0.60375 0.85414 0.5011 0.0
H1395 H 0.61148 0.83052 0.44856 0.0
H1396 H 0.60501 0.78397 0.26615 0.0
H1397 H 0.6048 0.80114 0.33196 0.0
C1398 C 0.89815 0.82103 0.30006 0.0
C1399 C 0.90927 0.81042 0.32265 0.0
C1400 C 0.90374 0.83054 0.2642 0.0
C1401 C 0.94177 0.84478 0.20426 0.0
H1402 H 0.91494 0.83661 0.09957 0.0
C1403 C 0.94355 0.85698 0.00303 0.0
C1404 C 0.96021 0.85214 0.99505 0.0
C1405 C 0.93656 0.85526 0.04513 0.0
C1406 C 0.92243 0.83932 0.12854 0.0
H1407 H 0.93511 0.80249 0.32815 0.0
H1408 H 0.9449 0.81896 0.26555 0.0
H1409 H 0.90407 0.82883 0.17184 0.0
H1410 H 0.98248 0.84142 0.02479 0.0
H1411 H 0.97029 0.83831 0.09794 0.0
H1412 H 0.96037 0.85475 0.16071 0.0
C1413 C 0.93189 0.82 0.27533 0.0
C1414 C 0.91619 0.8349 0.17001 0.0
C1415 C 0.92628 0.81044 0.31092 0.0
C1416 C 0.9697 0.84553 0.03 0.0
C1417 C 0.96273 0.84381 0.072 0.0
C1418 C 0.948 0.84923 0.1628 0.0
C1419 C 0.92056 0.82969 0.25063 0.0
C1420 C 0.92599 0.83714 0.20815 0.0
C1421 C 0.94609 0.84867 0.08007 0.0
C1422 C 0.9386 0.84609 0.12439 0.0
H1423 H 0.88496 0.82119 0.30828 0.0
H1424 H 0.89478 0.83804 0.24601 0.0
H1425 H 0.94949 0.84686 0.23317 0.0
H1426 H 0.93599 0.86235 0.97696 0.0
H1427 H 0.92374 0.85923 0.05043 0.0
C1428 C 0.90827 0.2108 0.78167 0.0
C1429 C 0.90285 0.20097 0.74583 0.0
C1430 C 0.91197 0.20344 0.82223 0.0
C1431 C 0.92332 0.16344 0.87435 0.0
H1432 H 0.91193 0.18764 0.98152 0.0
C1433 C 0.94237 0.1395 0.04695 0.0
C1434 C 0.95152 0.15146 0.07103 0.0
C1435 C 0.93317 0.1443 0.00976 0.0
C1436 C 0.91511 0.18071 0.95187 0.0
H1437 H 0.89738 0.1756 0.72454 0.0
H1438 H 0.90361 0.16274 0.79589 0.0
H1439 H 0.90238 0.19816 0.91019 0.0
H1440 H 0.95744 0.1778 0.07712 0.0
H1441 H 0.94122 0.18628 0.01252 0.0
H1442 H 0.9363 0.14614 0.91619 0.0
C1443 C 0.90508 0.17616 0.79231 0.0
C1444 C 0.90974 0.18677 0.91103 0.0
C1445 C 0.90141 0.18354 0.75153 0.0
C1446 C 0.95054 0.16838 0.05888 0.0
C1447 C 0.94118 0.17321 0.02215 0.0
C1448 C 0.9286 0.15731 0.91529 0.0
C1449 C 0.91026 0.18608 0.82822 0.0
C1450 C 0.91421 0.17847 0.87172 0.0
C1451 C 0.93277 0.16117 0.99657 0.0
C1452 C 0.92493 0.16616 0.95429 0.0
H1453 H 0.9093 0.22426 0.77897 0.0
H1454 H 0.91625 0.21141 0.84893 0.0
H1455 H 0.92706 0.15681 0.8447 0.0
H1456 H 0.94307 0.12635 0.05548 0.0
H1457 H 0.92672 0.1348 0.99068 0.0
C1458 C 0.55055 0.15812 0.53204 0.0
C1459 C 0.55927 0.15121 0.49609 0.0
C1460 C 0.55852 0.16039 0.57258 0.0
C1461 C 0.57574 0.15775 0.66083 0.0
H1462 H 0.61942 0.17893 0.65678 0.0
C1463 C 0.60499 0.1866 0.8167 0.0
C1464 C 0.61011 0.20324 0.81015 0.0
C1465 C 0.6019 0.17615 0.78046 0.0
C1466 C 0.60728 0.1729 0.65849 0.0
H1467 H 0.58299 0.14067 0.47488 0.0
H1468 H 0.59696 0.14467 0.54586 0.0
H1469 H 0.60696 0.16824 0.58896 0.0
H1470 H 0.61731 0.22162 0.76101 0.0
H1471 H 0.61159 0.20368 0.69804 0.0
H1472 H 0.57554 0.16349 0.72979 0.0
C1473 C 0.58402 0.14853 0.54243 0.0
C1474 C 0.60021 0.16663 0.6197 0.0
C1475 C 0.57605 0.14632 0.50176 0.0
C1476 C 0.61303 0.20895 0.76698 0.0
C1477 C 0.61001 0.19856 0.73091 0.0
C1478 C 0.58278 0.1641 0.69958 0.0
C1479 C 0.57537 0.15573 0.57817 0.0
C1480 C 0.58408 0.15956 0.62021 0.0
C1481 C 0.60402 0.18218 0.73716 0.0
C1482 C 0.59834 0.17232 0.69847 0.0
H1483 H 0.53769 0.16221 0.52851 0.0
H1484 H 0.5516 0.16632 0.59913 0.0
H1485 H 0.56344 0.15206 0.66237 0.0
H1486 H 0.60267 0.18189 0.84967 0.0
H1487 H 0.59743 0.16353 0.78627 0.0
C1488 C 0.98529 0.66205 0.0315 0.0
C1489 C 0.98647 0.6672 0.98723 0.0
C1490 C 0.9805 0.67337 0.06451 0.0
C1491 C 0.95181 0.70604 0.0821 0.0
H1492 H 0.97557 0.71679 0.19013 0.0
C1493 C 0.91726 0.74096 0.22099 0.0
C1494 C 0.92116 0.73668 0.26467 0.0
C1495 C 0.92773 0.73606 0.18618 0.0
C1496 C 0.9686 0.71378 0.16053 0.0
H1497 H 0.98397 0.68829 0.94277 0.0
H1498 H 0.97485 0.70802 1.00054 0.0
H1499 H 0.98972 0.70107 0.1317 0.0
H1500 H 0.93919 0.72429 0.30671 0.0
H1501 H 0.95694 0.71475 0.2463 0.0
H1502 H 0.93028 0.71722 0.11128 0.0
C1503 C 0.97808 0.6953 0.00965 0.0
C1504 C 0.97684 0.70493 0.12684 0.0
C1505 C 0.98336 0.68406 0.97675 0.0
C1506 C 0.93604 0.72794 0.27326 0.0
C1507 C 0.94626 0.72252 0.23833 0.0
C1508 C 0.94342 0.71445 0.11611 0.0
C1509 C 0.97636 0.68995 0.05369 0.0
C1510 C 0.96847 0.70089 0.08747 0.0
C1511 C 0.94203 0.72608 0.19398 0.0
C1512 C 0.95158 0.71836 0.15622 0.0
H1513 H 0.98754 0.64909 0.04037 0.0
H1514 H 0.97913 0.66891 0.09813 0.0
H1515 H 0.945 0.70282 0.0523 0.0
H1516 H 0.90581 0.7477 0.21363 0.0
H1517 H 0.92422 0.7397 0.15302 0.0
C1518 C 0.58555 0.7317 0.24477 0.0
C1519 C 0.59478 0.72016 0.21929 0.0
C1520 C 0.57571 0.72618 0.2807 0.0
C1521 C 0.5564 0.68719 0.32741 0.0
H1522 H 0.55891 0.70977 0.44072 0.0
C1523 C 0.54807 0.65251 0.49086 0.0
C1524 C 0.53704 0.65887 0.52306 0.0
C1525 C 0.55219 0.66183 0.4534 0.0
C1526 C 0.55785 0.70349 0.40911 0.0
H1527 H 0.60051 0.69375 0.21131 0.0
H1528 H 0.58376 0.68432 0.2729 0.0
H1529 H 0.57143 0.72284 0.37504 0.0
H1530 H 0.52172 0.68025 0.54085 0.0
H1531 H 0.52942 0.69695 0.47517 0.0
H1532 H 0.54364 0.66748 0.36169 0.0
C1533 C 0.58382 0.69759 0.26538 0.0
C1534 C 0.56501 0.71097 0.37141 0.0
C1535 C 0.59362 0.70305 0.23002 0.0
C1536 C 0.53025 0.67498 0.5167 0.0
C1537 C 0.53469 0.68455 0.47926 0.0
C1538 C 0.54944 0.6797 0.36493 0.0
C1539 C 0.57474 0.70899 0.29149 0.0
C1540 C 0.56486 0.70264 0.33028 0.0
C1541 C 0.54563 0.67797 0.44703 0.0
C1542 C 0.55048 0.68749 0.40649 0.0
H1543 H 0.58622 0.74498 0.23762 0.0
H1544 H 0.56885 0.73534 0.29996 0.0
H1545 H 0.55559 0.68057 0.29623 0.0
H1546 H 0.5535 0.64014 0.49426 0.0
H1547 H 0.56074 0.65644 0.42947 0.0
C1548 C 0.52812 0.32652 0.4822 0.0
C1549 C 0.54032 0.33627 0.46056 0.0
C1550 C 0.53243 0.31679 0.51929 0.0
C1551 C 0.5693 0.29759 0.57434 0.0
H1552 H 0.54421 0.30169 0.68358 0.0
C1553 C 0.60014 0.29021 0.74262 0.0
C1554 C 0.59211 0.28136 0.7767 0.0
C1555 C 0.59201 0.29336 0.70274 0.0
C1556 C 0.55116 0.30012 0.65311 0.0
H1557 H 0.56662 0.34314 0.4606 0.0
H1558 H 0.57403 0.3263 0.5242 0.0
H1559 H 0.53301 0.31391 0.61524 0.0
H1560 H 0.56919 0.26868 0.79536 0.0
H1561 H 0.55464 0.27458 0.72506 0.0
H1562 H 0.58775 0.28448 0.61219 0.0
C1563 C 0.56117 0.32604 0.51276 0.0
C1564 C 0.54476 0.30713 0.61397 0.0
C1565 C 0.55687 0.33584 0.47636 0.0
C1566 C 0.57571 0.27549 0.76962 0.0
C1567 C 0.56738 0.27893 0.72958 0.0
C1568 C 0.57566 0.29065 0.61323 0.0
C1569 C 0.54906 0.3164 0.53484 0.0
C1570 C 0.55408 0.30648 0.57449 0.0
C1571 C 0.5755 0.28792 0.69571 0.0
C1572 C 0.56699 0.29235 0.65341 0.0
H1573 H 0.51524 0.32663 0.47098 0.0
H1574 H 0.5228 0.3095 0.53559 0.0
H1575 H 0.57662 0.29652 0.54433 0.0
H1576 H 0.6128 0.29485 0.74678 0.0
H1577 H 0.59856 0.30049 0.67768 0.0
C1578 C 0.9622 0.34724 0.00379 0.0
C1579 C 0.97641 0.34287 0.02868 0.0
C1580 C 0.9577 0.33811 0.9663 0.0
C1581 C 0.95965 0.29751 0.9122 0.0
H1582 H 0.9467 0.32351 0.80949 0.0
C1583 C 0.92753 0.26883 0.754 0.0
C1584 C 0.91277 0.27748 0.74278 0.0
C1585 C 0.93873 0.27563 0.78527 0.0
C1586 C 0.95034 0.31602 0.83777 0.0
H1587 H 0.9969 0.32514 0.03384 0.0
H1588 H 0.98872 0.30881 0.96815 0.0
H1589 H 0.95988 0.33742 0.87218 0.0
H1590 H 0.89851 0.3002 0.75437 0.0
H1591 H 0.91786 0.31197 0.80754 0.0
H1592 H 0.94929 0.27621 0.87821 0.0
C1593 C 0.9812 0.31949 0.9779 0.0
C1594 C 0.95789 0.324 0.87369 0.0
C1595 C 0.98589 0.32885 0.01539 0.0
C1596 C 0.90971 0.29316 0.76233 0.0
C1597 C 0.9209 0.3 0.79268 0.0
C1598 C 0.95199 0.28948 0.87607 0.0
C1599 C 0.96717 0.32421 0.95264 0.0
C1600 C 0.96207 0.31498 0.91198 0.0
C1601 C 0.93549 0.29133 0.80489 0.0
C1602 C 0.94667 0.2988 0.83916 0.0
H1603 H 0.95454 0.35792 0.01284 0.0
H1604 H 0.94668 0.34192 0.948 0.0
H1605 H 0.96274 0.29024 0.94129 0.0
H1606 H 0.93015 0.25667 0.73968 0.0
H1607 H 0.94987 0.26865 0.79406 0.0
C1608 C 0.11786 0.30901 0.72298 0.0
C1609 C 0.10551 0.30038 0.69898 0.0
C1610 C 0.11342 0.31877 0.7595 0.0
C1611 C 0.07917 0.34137 0.81217 0.0
H1612 H 0.09785 0.32625 0.92351 0.0
C1613 C 0.04629 0.35397 0.97667 0.0
C1614 C 0.05566 0.35563 0.01581 0.0
C1615 C 0.0541 0.35007 0.93681 0.0
C1616 C 0.09278 0.33097 0.89277 0.0
H1617 H 0.07893 0.2957 0.6926 0.0
H1618 H 0.07107 0.31317 0.75591 0.0
H1619 H 0.10861 0.31489 0.85434 0.0
H1620 H 0.08085 0.35491 0.04285 0.0
H1621 H 0.09453 0.3488 0.97293 0.0
H1622 H 0.06336 0.35747 0.85014 0.0
C1623 C 0.08415 0.31226 0.7467 0.0
C1624 C 0.09893 0.3244 0.85319 0.0
C1625 C 0.08862 0.30222 0.71082 0.0
C1626 C 0.07317 0.3538 0.01357 0.0
C1627 C 0.08103 0.3501 0.97343 0.0
C1628 C 0.07323 0.34818 0.85166 0.0
C1629 C 0.09654 0.32033 0.77182 0.0
C1630 C 0.09183 0.3292 0.81273 0.0
C1631 C 0.07156 0.34798 0.93465 0.0
C1632 C 0.07957 0.34265 0.89255 0.0
H1633 H 0.13097 0.30761 0.71462 0.0
H1634 H 0.12316 0.32488 0.77855 0.0
H1635 H 0.07365 0.34534 0.7812 0.0
H1636 H 0.03285 0.3556 0.97643 0.0
H1637 H 0.04632 0.34827 0.9079 0.0
C1638 C 0.42127 0.2987 0.75575 0.0
C1639 C 0.40472 0.30122 0.76979 0.0
C1640 C 0.42747 0.30731 0.71917 0.0
C1641 C 0.41484 0.32568 0.61556 0.0
H1642 H 0.4581 0.34768 0.62038 0.0
C1643 C 0.44594 0.35551 0.4612 0.0
C1644 C 0.46317 0.35229 0.45658 0.0
C1645 C 0.43763 0.35152 0.50054 0.0
C1646 C 0.44605 0.3415 0.6184 0.0
H1647 H 0.38158 0.31451 0.75664 0.0
H1648 H 0.39238 0.32941 0.69187 0.0
H1649 H 0.44588 0.33629 0.68778 0.0
H1650 H 0.4852 0.34272 0.49047 0.0
H1651 H 0.47071 0.33516 0.5574 0.0
H1652 H 0.41534 0.33013 0.54584 0.0
C1653 C 0.40056 0.32092 0.70958 0.0
C1654 C 0.43906 0.33506 0.65699 0.0
C1655 C 0.39445 0.31251 0.74666 0.0
C1656 C 0.47188 0.34507 0.49218 0.0
C1657 C 0.4636 0.34102 0.53115 0.0
C1658 C 0.42194 0.33194 0.57674 0.0
C1659 C 0.41712 0.31838 0.69561 0.0
C1660 C 0.42358 0.32679 0.65572 0.0
C1661 C 0.44641 0.34426 0.53597 0.0
C1662 C 0.43783 0.33955 0.5776 0.0
H1663 H 0.42942 0.29012 0.77324 0.0
H1664 H 0.44026 0.30505 0.7087 0.0
H1665 H 0.40289 0.31927 0.61384 0.0
H1666 H 0.43886 0.36101 0.43438 0.0
H1667 H 0.42438 0.35424 0.50333 0.0
C1668 C 0.44111 0.64576 0.51498 0.0
C1669 C 0.45871 0.64565 0.51754 0.0
C1670 C 0.43306 0.64827 0.47455 0.0
C1671 C 0.44121 0.64957 0.35309 0.0
H1672 H 0.40323 0.67987 0.35243 0.0
C1673 C 0.42382 0.69492 0.21329 0.0
C1674 C 0.40714 0.69481 0.19886 0.0
C1675 C 0.42865 0.68507 0.24908 0.0
C1676 C 0.41364 0.67116 0.35227 0.0
H1677 H 0.48154 0.6477 0.47857 0.0
H1678 H 0.46766 0.65307 0.40956 0.0
H1679 H 0.4143 0.66991 0.42267 0.0
H1680 H 0.38243 0.68439 0.20966 0.0
H1681 H 0.39081 0.66748 0.27362 0.0
H1682 H 0.44122 0.65201 0.28255 0.0
C1683 C 0.46 0.65073 0.43843 0.0
C1684 C 0.41996 0.66538 0.39241 0.0
C1685 C 0.46801 0.648 0.47857 0.0
C1686 C 0.3954 0.68448 0.2201 0.0
C1687 C 0.40014 0.67491 0.25655 0.0
C1688 C 0.43509 0.65563 0.31304 0.0
C1689 C 0.44243 0.65092 0.43585 0.0
C1690 C 0.43413 0.65491 0.39333 0.0
C1691 C 0.41676 0.67527 0.27142 0.0
C1692 C 0.42153 0.66676 0.31253 0.0
H1693 H 0.43349 0.64409 0.5442 0.0
H1694 H 0.4195 0.64819 0.47369 0.0
H1695 H 0.45185 0.64115 0.35255 0.0
H1696 H 0.43301 0.7028 0.19717 0.0
H1697 H 0.4415 0.68563 0.26048 0.0
C1698 C 0.09726 0.70882 0.22443 0.0
C1699 C 0.10548 0.70002 0.2583 0.0
C1700 C 0.09558 0.70185 0.1825 0.0
C1701 C 0.10232 0.68846 0.09107 0.0
H1702 H 0.08207 0.64454 0.07944 0.0
C1703 C 0.06143 0.66967 0.94501 0.0
C1704 C 0.06102 0.65294 0.93077 0.0
C1705 C 0.07152 0.67439 0.98048 0.0
C1706 C 0.08813 0.65665 0.08195 0.0
H1707 H 0.11812 0.67676 0.27462 0.0
H1708 H 0.11476 0.66435 0.20109 0.0
H1709 H 0.09076 0.65449 0.15218 0.0
H1710 H 0.07153 0.6282 0.9408 0.0
H1711 H 0.08931 0.63648 0.00292 0.0
H1712 H 0.09912 0.69092 0.02119 0.0
C1713 C 0.1098 0.67677 0.20731 0.0
C1714 C 0.09306 0.66235 0.12365 0.0
C1715 C 0.11162 0.68383 0.24941 0.0
C1716 C 0.07167 0.6412 0.95097 0.0
C1717 C 0.08172 0.64591 0.98674 0.0
C1718 C 0.09745 0.68275 0.04943 0.0
C1719 C 0.10193 0.68582 0.17336 0.0
C1720 C 0.0996 0.67856 0.12876 0.0
C1721 C 0.08139 0.66246 0.00259 0.0
C1722 C 0.08972 0.66705 0.04468 0.0
H1723 H 0.09198 0.72111 0.23028 0.0
H1724 H 0.08904 0.70894 0.15732 0.0
H1725 H 0.10766 0.70089 0.09403 0.0
H1726 H 0.05346 0.67897 0.92969 0.0
H1727 H 0.07083 0.68722 0.9921 0.0
loop_
_geom_bond_atom_site_label_1
_geom_bond_atom_site_label_2
_geom_bond_distance
_geom_bond_site_symmetry_2
_ccdc_geom_bond_type
C0 C1 1.351 . S
C0 N3 1.368 . S
C0 H5 0.931 . S
C1 C0 1.351 . S
C1 N2 1.373 . S
C1 H29 0.930 . S
N2 C1 1.373 . S
N2 C4 1.340 . S
N3 C0 1.368 . S
N3 C4 1.321 . S
N3 Co6 2.135 . S
C4 N2 1.340 . S
C4 N3 1.321 . S
C4 H28 0.930 . S
H5 C0 0.931 . S
Co6 N3 2.135 . S
Co6 N9 2.121 . S
Co6 O14 2.055 . S
Co6 O17 2.039 . S
Co6 N20 2.140 . S
C7 O8 1.227 . S
C7 O17 1.265 . S
O8 C7 1.227 . S
N9 Co6 2.121 . S
N9 C11 1.375 . S
N9 C12 1.313 . S
C10 C11 1.338 . S
C10 N13 1.377 . S
C10 H30 0.930 . S
C11 N9 1.375 . S
C11 C10 1.338 . S
C11 H15 0.931 . S
C12 N9 1.313 . S
C12 N13 1.344 . S
C12 H16 0.930 . S
N13 C10 1.377 . S
N13 C12 1.344 . S
O14 Co6 2.055 . S
O14 C18 1.253 . S
H15 C11 0.931 . S
H16 C12 0.930 . S
O17 Co6 2.039 . S
O17 C7 1.265 . S
C18 O14 1.253 . S
C18 O19 1.227 . S
O19 C18 1.227 . S
N20 Co6 2.140 . S
N20 C23 1.346 . S
N20 C24 1.345 . S
C21 C22 1.387 . S
C21 C25 1.391 . S
C22 C21 1.387 . S
C22 C23 1.369 . S
C22 H31 0.929 . S
C23 N20 1.346 . S
C23 C22 1.369 . S
C23 H26 0.928 . S
C24 N20 1.345 . S
C24 C25 1.371 . S
C24 H27 0.931 . S
C25 C21 1.391 . S
C25 C24 1.371 . S
C25 H32 0.930 . S
H26 C23 0.928 . S
H27 C24 0.931 . S
H28 C4 0.930 . S
H29 C1 0.930 . S
H30 C10 0.930 . S
H31 C22 0.929 . S
H32 C25 0.930 . S
C33 C34 1.351 . S
C33 N36 1.368 . S
C33 H38 0.931 . S
C34 C33 1.351 . S
C34 N35 1.373 . S
C34 H62 0.930 . S
N35 C34 1.373 . S
N35 C37 1.340 . S
N36 C33 1.368 . S
N36 C37 1.321 . S
N36 Co39 2.135 . S
C37 N35 1.340 . S
C37 N36 1.321 . S
C37 H61 0.930 . S
H38 C33 0.931 . S
Co39 N36 2.135 . S
Co39 N42 2.121 . S
Co39 O47 2.055 . S
Co39 O50 2.039 . S
Co39 N53 2.140 . S
C40 O41 1.227 . S
C40 O50 1.265 . S
O41 C40 1.227 . S
N42 Co39 2.121 . S
N42 C44 1.375 . S
N42 C45 1.313 . S
C43 C44 1.338 . S
C43 N46 1.377 . S
C43 H63 0.930 . S
C44 N42 1.375 . S
C44 C43 1.338 . S
C44 H48 0.931 . S
C45 N42 1.313 . S
C45 N46 1.344 . S
C45 H49 0.930 . S
N46 C43 1.377 . S
N46 C45 1.344 . S
O47 Co39 2.055 . S
O47 C51 1.253 . S
H48 C44 0.931 . S
H49 C45 0.930 . S
O50 Co39 2.039 . S
O50 C40 1.265 . S
C51 O47 1.253 . S
C51 O52 1.227 . S
O52 C51 1.227 . S
N53 Co39 2.140 . S
N53 C56 1.346 . S
N53 C57 1.345 . S
C54 C55 1.387 . S
C54 C58 1.391 . S
C55 C54 1.387 . S
C55 C56 1.369 . S
C55 H64 0.929 . S
C56 N53 1.346 . S
C56 C55 1.369 . S
C56 H59 0.928 . S
C57 N53 1.345 . S
C57 C58 1.371 . S
C57 H60 0.931 . S
C58 C54 1.391 . S
C58 C57 1.371 . S
C58 H65 0.930 . S
H59 C56 0.928 . S
H60 C57 0.931 . S
H61 C37 0.930 . S
H62 C34 0.930 . S
H63 C43 0.930 . S
H64 C55 0.929 . S
H65 C58 0.930 . S
C66 C67 1.351 . S
C66 N69 1.368 . S
C66 H71 0.931 . S
C67 C66 1.351 . S
C67 N68 1.373 . S
C67 H95 0.930 . S
N68 C67 1.373 . S
N68 C70 1.340 . S
N69 C66 1.368 . S
N69 C70 1.321 . S
N69 Co72 2.135 1_655 S
C70 N68 1.340 . S
C70 N69 1.321 . S
C70 H94 0.930 . S
H71 C66 0.931 . S
Co72 N69 2.135 1_455 S
Co72 N75 2.121 . S
Co72 O80 2.055 1_455 S
Co72 O83 2.039 . S
Co72 N86 2.140 . S
C73 O74 1.227 . S
C73 O83 1.265 . S
O74 C73 1.227 . S
N75 Co72 2.121 . S
N75 C77 1.375 . S
N75 C78 1.313 . S
C76 C77 1.338 . S
C76 N79 1.377 . S
C76 H96 0.930 . S
C77 N75 1.375 . S
C77 C76 1.338 . S
C77 H81 0.931 . S
C78 N75 1.313 . S
C78 N79 1.344 . S
C78 H82 0.930 . S
N79 C76 1.377 . S
N79 C78 1.344 . S
O80 Co72 2.055 1_655 S
O80 C84 1.253 . S
H81 C77 0.931 . S
H82 C78 0.930 . S
O83 Co72 2.039 . S
O83 C73 1.265 . S
C84 O80 1.253 . S
C84 O85 1.227 . S
O85 C84 1.227 . S
N86 Co72 2.140 . S
N86 C89 1.346 . S
N86 C90 1.345 . S
C87 C88 1.387 . S
C87 C91 1.391 . S
C88 C87 1.387 . S
C88 C89 1.369 . S
C88 H97 0.929 . S
C89 N86 1.346 . S
C89 C88 1.369 . S
C89 H92 0.928 . S
C90 N86 1.345 . S
C90 C91 1.371 . S
C90 H93 0.931 . S
C91 C87 1.391 . S
C91 C90 1.371 . S
C91 H98 0.930 . S
H92 C89 0.928 . S
H93 C90 0.931 . S
H94 C70 0.930 . S
H95 C67 0.930 . S
H96 C76 0.930 . S
H97 C88 0.929 . S
H98 C91 0.930 . S
C99 C100 1.351 . S
C99 N102 1.368 . S
C99 H104 0.931 . S
C100 C99 1.351 . S
C100 N101 1.373 . S
C100 H128 0.930 . S
N101 C100 1.373 . S
N101 C103 1.340 . S
N102 C99 1.368 . S
N102 C103 1.321 . S
N102 Co105 2.135 . S
C103 N101 1.340 . S
C103 N102 1.321 . S
C103 H127 0.930 . S
H104 C99 0.931 . S
Co105 N102 2.135 . S
Co105 N108 2.121 . S
Co105 O113 2.055 . S
Co105 O116 2.039 . S
Co105 N119 2.140 . S
C106 O107 1.227 . S
C106 O116 1.265 . S
O107 C106 1.227 . S
N108 Co105 2.121 . S
N108 C110 1.375 . S
N108 C111 1.313 . S
C109 C110 1.338 . S
C109 N112 1.377 . S
C109 H129 0.930 . S
C110 N108 1.375 . S
C110 C109 1.338 . S
C110 H114 0.931 . S
C111 N108 1.313 . S
C111 N112 1.344 . S
C111 H115 0.930 . S
N112 C109 1.377 . S
N112 C111 1.344 . S
O113 Co105 2.055 . S
O113 C117 1.253 . S
H114 C110 0.931 . S
H115 C111 0.930 . S
O116 Co105 2.039 . S
O116 C106 1.265 . S
C117 O113 1.253 . S
C117 O118 1.227 . S
O118 C117 1.227 . S
N119 Co105 2.140 . S
N119 C122 1.346 . S
N119 C123 1.345 . S
C120 C121 1.387 . S
C120 C124 1.391 . S
C121 C120 1.387 . S
C121 C122 1.369 . S
C121 H130 0.929 . S
C122 N119 1.346 . S
C122 C121 1.369 . S
C122 H125 0.928 . S
C123 N119 1.345 . S
C123 C124 1.371 . S
C123 H126 0.931 . S
C124 C120 1.391 . S
C124 C123 1.371 . S
C124 H131 0.930 . S
H125 C122 0.928 . S
H126 C123 0.931 . S
H127 C103 0.930 . S
H128 C100 0.930 . S
H129 C109 0.930 . S
H130 C121 0.929 . S
H131 C124 0.930 . S
C132 C133 1.351 . S
C132 N135 1.368 . S
C132 H137 0.931 . S
C133 C132 1.351 . S
C133 N134 1.373 . S
C133 H161 0.930 . S
N134 C133 1.373 . S
N134 C136 1.340 . S
N135 C132 1.368 . S
N135 C136 1.321 . S
N135 Co138 2.135 . S
C136 N134 1.340 . S
C136 N135 1.321 . S
C136 H160 0.930 . S
H137 C132 0.931 . S
Co138 N135 2.135 . S
Co138 N141 2.121 . S
Co138 O146 2.055 . S
Co138 O149 2.039 . S
Co138 N152 2.140 . S
C139 O140 1.227 . S
C139 O149 1.265 . S
O140 C139 1.227 . S
N141 Co138 2.121 . S
N141 C143 1.375 . S
N141 C144 1.313 . S
C142 C143 1.338 . S
C142 N145 1.377 . S
C142 H162 0.930 . S
C143 N141 1.375 . S
C143 C142 1.338 . S
C143 H147 0.931 . S
C144 N141 1.313 . S
C144 N145 1.344 . S
C144 H148 0.930 . S
N145 C142 1.377 . S
N145 C144 1.344 . S
O146 Co138 2.055 . S
O146 C150 1.253 . S
H147 C143 0.931 . S
H148 C144 0.930 . S
O149 Co138 2.039 . S
O149 C139 1.265 . S
C150 O146 1.253 . S
C150 O151 1.227 . S
O151 C150 1.227 . S
N152 Co138 2.140 . S
N152 C155 1.346 . S
N152 C156 1.345 . S
C153 C154 1.387 . S
C153 C157 1.391 . S
C154 C153 1.387 . S
C154 C155 1.369 . S
C154 H163 0.929 . S
C155 N152 1.346 . S
C155 C154 1.369 . S
C155 H158 0.928 . S
C156 N152 1.345 . S
C156 C157 1.371 . S
C156 H159 0.931 . S
C157 C153 1.391 . S
C157 C156 1.371 . S
C157 H164 0.930 . S
H158 C155 0.928 . S
H159 C156 0.931 . S
H160 C136 0.930 . S
H161 C133 0.930 . S
H162 C142 0.930 . S
H163 C154 0.929 . S
H164 C157 0.930 . S
C165 C166 1.351 . S
C165 N168 1.368 . S
C165 H170 0.931 . S
C166 C165 1.351 . S
C166 N167 1.373 . S
C166 H194 0.930 . S
N167 C166 1.373 . S
N167 C169 1.340 . S
N168 C165 1.368 . S
N168 C169 1.321 . S
N168 Co171 2.135 . S
C169 N167 1.340 . S
C169 N168 1.321 . S
C169 H193 0.930 . S
H170 C165 0.931 . S
Co171 N168 2.135 . S
Co171 N174 2.121 . S
Co171 O179 2.055 . S
Co171 O182 2.039 . S
Co171 N185 2.140 . S
C172 O173 1.227 . S
C172 O182 1.265 . S
O173 C172 1.227 . S
N174 Co171 2.121 . S
N174 C176 1.375 . S
N174 C177 1.313 . S
C175 C176 1.338 . S
C175 N178 1.377 . S
C175 H195 0.930 . S
C176 N174 1.375 . S
C176 C175 1.338 . S
C176 H180 0.931 . S
C177 N174 1.313 . S
C177 N178 1.344 . S
C177 H181 0.930 . S
N178 C175 1.377 . S
N178 C177 1.344 . S
O179 Co171 2.055 . S
O179 C183 1.253 . S
H180 C176 0.931 . S
H181 C177 0.930 . S
O182 Co171 2.039 . S
O182 C172 1.265 . S
C183 O179 1.253 . S
C183 O184 1.227 . S
O184 C183 1.227 . S
N185 Co171 2.140 . S
N185 C188 1.346 . S
N185 C189 1.345 . S
C186 C187 1.387 . S
C186 C190 1.391 . S
C187 C186 1.387 . S
C187 C188 1.369 . S
C187 H196 0.929 . S
C188 N185 1.346 . S
C188 C187 1.369 . S
C188 H191 0.928 . S
C189 N185 1.345 . S
C189 C190 1.371 . S
C189 H192 0.931 . S
C190 C186 1.391 . S
C190 C189 1.371 . S
C190 H197 0.930 . S
H191 C188 0.928 . S
H192 C189 0.931 . S
H193 C169 0.930 . S
H194 C166 0.930 . S
H195 C175 0.930 . S
H196 C187 0.929 . S
H197 C190 0.930 . S
C198 C199 1.351 . S
C198 N201 1.368 . S
C198 H203 0.931 . S
C199 C198 1.351 . S
C199 N200 1.373 . S
C199 H227 0.930 . S
N200 C199 1.373 . S
N200 C202 1.340 . S
N201 C198 1.368 . S
N201 C202 1.321 . S
N201 Co204 2.135 1_655 S
C202 N200 1.340 . S
C202 N201 1.321 . S
C202 H226 0.930 . S
H203 C198 0.931 . S
Co204 N201 2.135 1_455 S
Co204 N207 2.121 . S
Co204 O212 2.055 1_455 S
Co204 O215 2.039 . S
Co204 N218 2.140 . S
C205 O206 1.227 . S
C205 O215 1.265 . S
O206 C205 1.227 . S
N207 Co204 2.121 . S
N207 C209 1.375 . S
N207 C210 1.313 . S
C208 C209 1.338 . S
C208 N211 1.377 . S
C208 H228 0.930 . S
C209 N207 1.375 . S
C209 C208 1.338 . S
C209 H213 0.931 . S
C210 N207 1.313 . S
C210 N211 1.344 . S
C210 H214 0.930 . S
N211 C208 1.377 . S
N211 C210 1.344 . S
O212 Co204 2.055 1_655 S
O212 C216 1.253 . S
H213 C209 0.931 . S
H214 C210 0.930 . S
O215 Co204 2.039 . S
O215 C205 1.265 . S
C216 O212 1.253 . S
C216 O217 1.227 . S
O217 C216 1.227 . S
N218 Co204 2.140 . S
N218 C221 1.346 . S
N218 C222 1.345 . S
C219 C220 1.387 . S
C219 C223 1.391 . S
C220 C219 1.387 . S
C220 C221 1.369 . S
C220 H229 0.929 . S
C221 N218 1.346 . S
C221 C220 1.369 . S
C221 H224 0.928 . S
C222 N218 1.345 . S
C222 C223 1.371 . S
C222 H225 0.931 . S
C223 C219 1.391 . S
C223 C222 1.371 . S
C223 H230 0.930 . S
H224 C221 0.928 . S
H225 C222 0.931 . S
H226 C202 0.930 . S
H227 C199 0.930 . S
H228 C208 0.930 . S
H229 C220 0.929 . S
H230 C223 0.930 . S
C231 C232 1.351 . S
C231 N234 1.368 . S
C231 H236 0.931 . S
C232 C231 1.351 . S
C232 N233 1.373 . S
C232 H260 0.930 . S
N233 C232 1.373 . S
N233 C235 1.340 . S
N234 C231 1.368 . S
N234 C235 1.321 . S
N234 Co237 2.135 . S
C235 N233 1.340 . S
C235 N234 1.321 . S
C235 H259 0.930 . S
H236 C231 0.931 . S
Co237 N234 2.135 . S
Co237 N240 2.121 . S
Co237 O245 2.055 . S
Co237 O248 2.039 . S
Co237 N251 2.140 . S
C238 O239 1.227 . S
C238 O248 1.265 . S
O239 C238 1.227 . S
N240 Co237 2.121 . S
N240 C242 1.375 . S
N240 C243 1.313 . S
C241 C242 1.338 . S
C241 N244 1.377 . S
C241 H261 0.930 . S
C242 N240 1.375 . S
C242 C241 1.338 . S
C242 H246 0.931 . S
C243 N240 1.313 . S
C243 N244 1.344 . S
C243 H247 0.930 . S
N244 C241 1.377 . S
N244 C243 1.344 . S
O245 Co237 2.055 . S
O245 C249 1.253 . S
H246 C242 0.931 . S
H247 C243 0.930 . S
O248 Co237 2.039 . S
O248 C238 1.265 . S
C249 O245 1.253 . S
C249 O250 1.227 . S
O250 C249 1.227 . S
N251 Co237 2.140 . S
N251 C254 1.346 . S
N251 C255 1.345 . S
C252 C253 1.387 . S
C252 C256 1.391 . S
C253 C252 1.387 . S
C253 C254 1.369 . S
C253 H262 0.929 . S
C254 N251 1.346 . S
C254 C253 1.369 . S
C254 H257 0.928 . S
C255 N251 1.345 . S
C255 C256 1.371 . S
C255 H258 0.931 . S
C256 C252 1.391 . S
C256 C255 1.371 . S
C256 H263 0.930 . S
H257 C254 0.928 . S
H258 C255 0.931 . S
H259 C235 0.930 . S
H260 C232 0.930 . S
H261 C241 0.930 . S
H262 C253 0.929 . S
H263 C256 0.930 . S
C264 C265 1.351 . S
C264 N267 1.368 . S
C264 H269 0.931 . S
C265 C264 1.351 . S
C265 N266 1.373 . S
C265 H293 0.930 . S
N266 C265 1.373 . S
N266 C268 1.340 . S
N267 C264 1.368 . S
N267 C268 1.321 . S
N267 Co270 2.135 . S
C268 N266 1.340 . S
C268 N267 1.321 . S
C268 H292 0.930 . S
H269 C264 0.931 . S
Co270 N267 2.135 . S
Co270 N273 2.121 . S
Co270 O278 2.055 . S
Co270 O281 2.039 . S
Co270 N284 2.140 . S
C271 O272 1.227 . S
C271 O281 1.265 . S
O272 C271 1.227 . S
N273 Co270 2.121 . S
N273 C275 1.375 . S
N273 C276 1.313 . S
C274 C275 1.338 . S
C274 N277 1.377 . S
C274 H294 0.930 . S
C275 N273 1.375 . S
C275 C274 1.338 . S
C275 H279 0.931 . S
C276 N273 1.313 . S
C276 N277 1.344 . S
C276 H280 0.930 . S
N277 C274 1.377 . S
N277 C276 1.344 . S
O278 Co270 2.055 . S
O278 C282 1.253 . S
H279 C275 0.931 . S
H280 C276 0.930 . S
O281 Co270 2.039 . S
O281 C271 1.265 . S
C282 O278 1.253 . S
C282 O283 1.227 . S
O283 C282 1.227 . S
N284 Co270 2.140 . S
N284 C287 1.346 . S
N284 C288 1.345 . S
C285 C286 1.387 . S
C285 C289 1.391 . S
C286 C285 1.387 . S
C286 C287 1.369 . S
C286 H295 0.929 . S
C287 N284 1.346 . S
C287 C286 1.369 . S
C287 H290 0.928 . S
C288 N284 1.345 . S
C288 C289 1.371 . S
C288 H291 0.931 . S
C289 C285 1.391 . S
C289 C288 1.371 . S
C289 H296 0.930 . S
H290 C287 0.928 . S
H291 C288 0.931 . S
H292 C268 0.930 . S
H293 C265 0.930 . S
H294 C274 0.930 . S
H295 C286 0.929 . S
H296 C289 0.930 . S
C297 C298 1.351 . S
C297 N300 1.368 . S
C297 H302 0.931 . S
C298 C297 1.351 . S
C298 N299 1.373 . S
C298 H326 0.930 . S
N299 C298 1.373 . S
N299 C301 1.340 . S
N300 C297 1.368 . S
N300 C301 1.321 . S
N300 Co303 2.135 . S
C301 N299 1.340 . S
C301 N300 1.321 . S
C301 H325 0.930 . S
H302 C297 0.931 . S
Co303 N300 2.135 . S
Co303 N306 2.121 . S
Co303 O311 2.055 . S
Co303 O314 2.039 . S
Co303 N317 2.140 . S
C304 O305 1.227 . S
C304 O314 1.265 . S
O305 C304 1.227 . S
N306 Co303 2.121 . S
N306 C308 1.375 . S
N306 C309 1.313 . S
C307 C308 1.338 . S
C307 N310 1.377 . S
C307 H327 0.930 . S
C308 N306 1.375 . S
C308 C307 1.338 . S
C308 H312 0.931 . S
C309 N306 1.313 . S
C309 N310 1.344 . S
C309 H313 0.930 . S
N310 C307 1.377 . S
N310 C309 1.344 . S
O311 Co303 2.055 . S
O311 C315 1.253 . S
H312 C308 0.931 . S
H313 C309 0.930 . S
O314 Co303 2.039 . S
O314 C304 1.265 . S
C315 O311 1.253 . S
C315 O316 1.227 . S
O316 C315 1.227 . S
N317 Co303 2.140 . S
N317 C320 1.346 . S
N317 C321 1.345 . S
C318 C319 1.387 . S
C318 C322 1.391 . S
C319 C318 1.387 . S
C319 C320 1.369 . S
C319 H328 0.929 . S
C320 N317 1.346 . S
C320 C319 1.369 . S
C320 H323 0.928 . S
C321 N317 1.345 . S
C321 C322 1.371 . S
C321 H324 0.931 . S
C322 C318 1.391 . S
C322 C321 1.371 . S
C322 H329 0.930 . S
H323 C320 0.928 . S
H324 C321 0.931 . S
H325 C301 0.930 . S
H326 C298 0.930 . S
H327 C307 0.930 . S
H328 C319 0.929 . S
H329 C322 0.930 . S
C330 C331 1.351 . S
C330 N333 1.368 . S
C330 H335 0.931 . S
C331 C330 1.351 . S
C331 N332 1.373 . S
C331 H359 0.930 . S
N332 C331 1.373 . S
N332 C334 1.340 . S
N333 C330 1.368 . S
N333 C334 1.321 . S
N333 Co336 2.135 . S
C334 N332 1.340 . S
C334 N333 1.321 . S
C334 H358 0.930 . S
H335 C330 0.931 . S
Co336 N333 2.135 . S
Co336 N339 2.121 . S
Co336 O344 2.055 . S
Co336 O347 2.039 . S
Co336 N350 2.140 . S
C337 O338 1.227 . S
C337 O347 1.265 . S
O338 C337 1.227 . S
N339 Co336 2.121 . S
N339 C341 1.375 . S
N339 C342 1.313 . S
C340 C341 1.338 . S
C340 N343 1.377 . S
C340 H360 0.930 . S
C341 N339 1.375 . S
C341 C340 1.338 . S
C341 H345 0.931 . S
C342 N339 1.313 . S
C342 N343 1.344 . S
C342 H346 0.930 . S
N343 C340 1.377 . S
N343 C342 1.344 . S
O344 Co336 2.055 . S
O344 C348 1.253 . S
H345 C341 0.931 . S
H346 C342 0.930 . S
O347 Co336 2.039 . S
O347 C337 1.265 . S
C348 O344 1.253 . S
C348 O349 1.227 . S
O349 C348 1.227 . S
N350 Co336 2.140 . S
N350 C353 1.346 . S
N350 C354 1.345 . S
C351 C352 1.387 . S
C351 C355 1.391 . S
C352 C351 1.387 . S
C352 C353 1.369 . S
C352 H361 0.929 . S
C353 N350 1.346 . S
C353 C352 1.369 . S
C353 H356 0.928 . S
C354 N350 1.345 . S
C354 C355 1.371 . S
C354 H357 0.931 . S
C355 C351 1.391 . S
C355 C354 1.371 . S
C355 H362 0.930 . S
H356 C353 0.928 . S
H357 C354 0.931 . S
H358 C334 0.930 . S
H359 C331 0.930 . S
H360 C340 0.930 . S
H361 C352 0.929 . S
H362 C355 0.930 . S
C363 C364 1.351 . S
C363 N366 1.368 . S
C363 H368 0.931 . S
C364 C363 1.351 . S
C364 N365 1.373 . S
C364 H392 0.930 . S
N365 C364 1.373 . S
N365 C367 1.340 . S
N366 C363 1.368 . S
N366 C367 1.321 . S
N366 Co369 2.135 . S
C367 N365 1.340 . S
C367 N366 1.321 . S
C367 H391 0.930 . S
H368 C363 0.931 . S
Co369 N366 2.135 . S
Co369 N372 2.121 . S
Co369 O377 2.055 . S
Co369 O380 2.039 . S
Co369 N383 2.140 . S
C370 O371 1.227 . S
C370 O380 1.265 . S
O371 C370 1.227 . S
N372 Co369 2.121 . S
N372 C374 1.375 . S
N372 C375 1.313 . S
C373 C374 1.338 . S
C373 N376 1.377 . S
C373 H393 0.930 . S
C374 N372 1.375 . S
C374 C373 1.338 . S
C374 H378 0.931 . S
C375 N372 1.313 . S
C375 N376 1.344 . S
C375 H379 0.930 . S
N376 C373 1.377 . S
N376 C375 1.344 . S
O377 Co369 2.055 . S
O377 C381 1.253 . S
H378 C374 0.931 . S
H379 C375 0.930 . S
O380 Co369 2.039 . S
O380 C370 1.265 . S
C381 O377 1.253 . S
C381 O382 1.227 . S
O382 C381 1.227 . S
N383 Co369 2.140 . S
N383 C386 1.346 . S
N383 C387 1.345 . S
C384 C385 1.387 . S
C384 C388 1.391 . S
C385 C384 1.387 . S
C385 C386 1.369 . S
C385 H394 0.929 . S
C386 N383 1.346 . S
C386 C385 1.369 . S
C386 H389 0.928 . S
C387 N383 1.345 . S
C387 C388 1.371 . S
C387 H390 0.931 . S
C388 C384 1.391 . S
C388 C387 1.371 . S
C388 H395 0.930 . S
H389 C386 0.928 . S
H390 C387 0.931 . S
H391 C367 0.930 . S
H392 C364 0.930 . S
H393 C373 0.930 . S
H394 C385 0.929 . S
H395 C388 0.930 . S
C396 C397 1.351 . S
C396 N399 1.368 . S
C396 H401 0.931 . S
C397 C396 1.351 . S
C397 N398 1.373 . S
C397 H425 0.930 . S
N398 C397 1.373 . S
N398 C400 1.340 . S
N399 C396 1.368 . S
N399 C400 1.321 . S
N399 Co402 2.135 . S
C400 N398 1.340 . S
C400 N399 1.321 . S
C400 H424 0.930 . S
H401 C396 0.931 . S
Co402 N399 2.135 . S
Co402 N405 2.121 1_455 S
Co402 O410 2.055 . S
Co402 O413 2.039 1_455 S
Co402 N416 2.140 . S
C403 O404 1.227 . S
C403 O413 1.265 . S
O404 C403 1.227 . S
N405 Co402 2.121 1_655 S
N405 C407 1.375 . S
N405 C408 1.313 . S
C406 C407 1.338 . S
C406 N409 1.377 . S
C406 H426 0.930 . S
C407 N405 1.375 . S
C407 C406 1.338 . S
C407 H411 0.931 . S
C408 N405 1.313 . S
C408 N409 1.344 . S
C408 H412 0.930 . S
N409 C406 1.377 . S
N409 C408 1.344 . S
O410 Co402 2.055 . S
O410 C414 1.253 . S
H411 C407 0.931 . S
H412 C408 0.930 . S
O413 Co402 2.039 1_655 S
O413 C403 1.265 . S
C414 O410 1.253 . S
C414 O415 1.227 . S
O415 C414 1.227 . S
N416 Co402 2.140 . S
N416 C419 1.346 . S
N416 C420 1.345 . S
C417 C418 1.387 . S
C417 C421 1.391 . S
C418 C417 1.387 . S
C418 C419 1.369 . S
C418 H427 0.929 . S
C419 N416 1.346 . S
C419 C418 1.369 . S
C419 H422 0.928 . S
C420 N416 1.345 . S
C420 C421 1.371 . S
C420 H423 0.931 . S
C421 C417 1.391 . S
C421 C420 1.371 . S
C421 H428 0.930 . S
H422 C419 0.928 . S
H423 C420 0.931 . S
H424 C400 0.930 . S
H425 C397 0.930 . S
H426 C406 0.930 . S
H427 C418 0.929 . S
H428 C421 0.930 . S
C429 C430 1.351 . S
C429 N432 1.368 . S
C429 H434 0.931 . S
C430 C429 1.351 . S
C430 N431 1.373 . S
C430 H458 0.930 . S
N431 C430 1.373 . S
N431 C433 1.340 . S
N432 C429 1.368 . S
N432 C433 1.321 . S
N432 Co435 2.135 . S
C433 N431 1.340 . S
C433 N432 1.321 . S
C433 H457 0.930 . S
H434 C429 0.931 . S
Co435 N432 2.135 . S
Co435 N438 2.121 . S
Co435 O443 2.055 . S
Co435 O446 2.039 . S
Co435 N449 2.140 . S
C436 O437 1.227 . S
C436 O446 1.265 . S
O437 C436 1.227 . S
N438 Co435 2.121 . S
N438 C440 1.375 . S
N438 C441 1.313 . S
C439 C440 1.338 . S
C439 N442 1.377 . S
C439 H459 0.930 . S
C440 N438 1.375 . S
C440 C439 1.338 . S
C440 H444 0.931 . S
C441 N438 1.313 . S
C441 N442 1.344 . S
C441 H445 0.930 . S
N442 C439 1.377 . S
N442 C441 1.344 . S
O443 Co435 2.055 . S
O443 C447 1.253 . S
H444 C440 0.931 . S
H445 C441 0.930 . S
O446 Co435 2.039 . S
O446 C436 1.265 . S
C447 O443 1.253 . S
C447 O448 1.227 . S
O448 C447 1.227 . S
N449 Co435 2.140 . S
N449 C452 1.346 . S
N449 C453 1.345 . S
C450 C451 1.387 . S
C450 C454 1.391 . S
C451 C450 1.387 . S
C451 C452 1.369 . S
C451 H460 0.929 . S
C452 N449 1.346 . S
C452 C451 1.369 . S
C452 H455 0.928 . S
C453 N449 1.345 . S
C453 C454 1.371 . S
C453 H456 0.931 . S
C454 C450 1.391 . S
C454 C453 1.371 . S
C454 H461 0.930 . S
H455 C452 0.928 . S
H456 C453 0.931 . S
H457 C433 0.930 . S
H458 C430 0.930 . S
H459 C439 0.930 . S
H460 C451 0.929 . S
H461 C454 0.930 . S
C462 C463 1.351 . S
C462 N465 1.368 . S
C462 H467 0.931 . S
C463 C462 1.351 . S
C463 N464 1.373 . S
C463 H491 0.930 . S
N464 C463 1.373 . S
N464 C466 1.340 . S
N465 C462 1.368 . S
N465 C466 1.321 . S
N465 Co468 2.135 . S
C466 N464 1.340 . S
C466 N465 1.321 . S
C466 H490 0.930 . S
H467 C462 0.931 . S
Co468 N465 2.135 . S
Co468 N471 2.121 1_455 S
Co468 O476 2.055 . S
Co468 O479 2.039 1_455 S
Co468 N482 2.140 . S
C469 O470 1.227 . S
C469 O479 1.265 . S
O470 C469 1.227 . S
N471 Co468 2.121 1_655 S
N471 C473 1.375 . S
N471 C474 1.313 . S
C472 C473 1.338 . S
C472 N475 1.377 . S
C472 H492 0.930 . S
C473 N471 1.375 . S
C473 C472 1.338 . S
C473 H477 0.931 . S
C474 N471 1.313 . S
C474 N475 1.344 . S
C474 H478 0.930 . S
N475 C472 1.377 . S
N475 C474 1.344 . S
O476 Co468 2.055 . S
O476 C480 1.253 . S
H477 C473 0.931 . S
H478 C474 0.930 . S
O479 Co468 2.039 1_655 S
O479 C469 1.265 . S
C480 O476 1.253 . S
C480 O481 1.227 . S
O481 C480 1.227 . S
N482 Co468 2.140 . S
N482 C485 1.346 . S
N482 C486 1.345 . S
C483 C484 1.387 . S
C483 C487 1.391 . S
C484 C483 1.387 . S
C484 C485 1.369 . S
C484 H493 0.929 . S
C485 N482 1.346 . S
C485 C484 1.369 . S
C485 H488 0.928 . S
C486 N482 1.345 . S
C486 C487 1.371 . S
C486 H489 0.931 . S
C487 C483 1.391 . S
C487 C486 1.371 . S
C487 H494 0.930 . S
H488 C485 0.928 . S
H489 C486 0.931 . S
H490 C466 0.930 . S
H491 C463 0.930 . S
H492 C472 0.930 . S
H493 C484 0.929 . S
H494 C487 0.930 . S
C495 C496 1.351 . S
C495 N498 1.368 . S
C495 H500 0.931 . S
C496 C495 1.351 . S
C496 N497 1.373 . S
C496 H524 0.930 . S
N497 C496 1.373 . S
N497 C499 1.340 . S
N498 C495 1.368 . S
N498 C499 1.321 . S
N498 Co501 2.135 . S
C499 N497 1.340 . S
C499 N498 1.321 . S
C499 H523 0.930 . S
H500 C495 0.931 . S
Co501 N498 2.135 . S
Co501 N504 2.121 . S
Co501 O509 2.055 . S
Co501 O512 2.039 . S
Co501 N515 2.140 . S
C502 O503 1.227 . S
C502 O512 1.265 . S
O503 C502 1.227 . S
N504 Co501 2.121 . S
N504 C506 1.375 . S
N504 C507 1.313 . S
C505 C506 1.338 . S
C505 N508 1.377 . S
C505 H525 0.930 . S
C506 N504 1.375 . S
C506 C505 1.338 . S
C506 H510 0.931 . S
C507 N504 1.313 . S
C507 N508 1.344 . S
C507 H511 0.930 . S
N508 C505 1.377 . S
N508 C507 1.344 . S
O509 Co501 2.055 . S
O509 C513 1.253 . S
H510 C506 0.931 . S
H511 C507 0.930 . S
O512 Co501 2.039 . S
O512 C502 1.265 . S
C513 O509 1.253 . S
C513 O514 1.227 . S
O514 C513 1.227 . S
N515 Co501 2.140 . S
N515 C518 1.346 . S
N515 C519 1.345 . S
C516 C517 1.387 . S
C516 C520 1.391 . S
C517 C516 1.387 . S
C517 C518 1.369 . S
C517 H526 0.929 . S
C518 N515 1.346 . S
C518 C517 1.369 . S
C518 H521 0.928 . S
C519 N515 1.345 . S
C519 C520 1.371 . S
C519 H522 0.931 . S
C520 C516 1.391 . S
C520 C519 1.371 . S
C520 H527 0.930 . S
H521 C518 0.928 . S
H522 C519 0.931 . S
H523 C499 0.930 . S
H524 C496 0.930 . S
H525 C505 0.930 . S
H526 C517 0.929 . S
H527 C520 0.930 . S
C528 C529 1.349 . S
C528 C530 1.327 . S
C528 H553 0.950 . S
C529 C528 1.349 . S
C529 C545 1.349 . S
C530 C528 1.327 . S
C530 C549 1.429 . S
C530 H554 0.950 . S
C531 C548 1.574 1_545 S
C531 C550 1.368 . S
C531 H555 0.949 . S
H532 C536 0.949 . S
C533 C534 1.349 . S
C533 C535 1.327 . S
C533 H556 0.950 . S
C534 C533 1.349 . S
C534 C546 1.349 . S
C535 C533 1.327 . S
C535 C551 1.429 . S
C535 H557 0.950 . S
C536 H532 0.949 . S
C536 C544 1.574 1_565 S
C536 C552 1.368 . S
H537 C545 0.950 . S
H538 C543 0.950 . S
H539 C544 0.949 . S
H540 C546 0.950 . S
H541 C547 0.950 . S
H542 C548 0.949 . S
C543 H538 0.950 . S
C543 C545 1.327 . S
C543 C549 1.429 . S
C544 C536 1.574 1_545 S
C544 H539 0.949 . S
C544 C550 1.368 . S
C545 C529 1.349 . S
C545 H537 0.950 . S
C545 C543 1.327 . S
C546 C534 1.349 . S
C546 H540 0.950 . S
C546 C547 1.327 . S
C547 H541 0.950 . S
C547 C546 1.327 . S
C547 C551 1.429 . S
C548 C531 1.574 1_565 S
C548 H542 0.949 . S
C548 C552 1.368 . S
C549 C530 1.429 . S
C549 C543 1.429 . S
C549 C550 1.523 . S
C550 C531 1.368 . S
C550 C544 1.368 . S
C550 C549 1.523 . S
C551 C535 1.429 . S
C551 C547 1.429 . S
C551 C552 1.523 . S
C552 C536 1.368 . S
C552 C548 1.368 . S
C552 C551 1.523 . S
H553 C528 0.950 . S
H554 C530 0.950 . S
H555 C531 0.949 . S
H556 C533 0.950 . S
H557 C535 0.950 . S
C558 C559 1.349 . S
C558 C560 1.327 . S
C558 H583 0.950 . S
C559 C558 1.349 . S
C559 C575 1.349 . S
C560 C558 1.327 . S
C560 C579 1.429 . S
C560 H584 0.950 . S
C561 C578 1.574 . S
C561 C580 1.368 . S
C561 H585 0.949 . S
H562 C566 0.949 . S
C563 C564 1.349 . S
C563 C565 1.327 . S
C563 H586 0.950 . S
C564 C563 1.349 . S
C564 C576 1.349 . S
C565 C563 1.327 . S
C565 C581 1.429 . S
C565 H587 0.950 . S
C566 H562 0.949 . S
C566 C574 1.574 . S
C566 C582 1.368 . S
H567 C575 0.950 . S
H568 C573 0.950 . S
H569 C574 0.949 . S
H570 C576 0.950 . S
H571 C577 0.950 . S
H572 C578 0.949 . S
C573 H568 0.950 . S
C573 C575 1.327 . S
C573 C579 1.429 . S
C574 C566 1.574 . S
C574 H569 0.949 . S
C574 C580 1.368 . S
C575 C559 1.349 . S
C575 H567 0.950 . S
C575 C573 1.327 . S
C576 C564 1.349 . S
C576 H570 0.950 . S
C576 C577 1.327 . S
C577 H571 0.950 . S
C577 C576 1.327 . S
C577 C581 1.429 . S
C578 C561 1.574 . S
C578 H572 0.949 . S
C578 C582 1.368 . S
C579 C560 1.429 . S
C579 C573 1.429 . S
C579 C580 1.523 . S
C580 C561 1.368 . S
C580 C574 1.368 . S
C580 C579 1.523 . S
C581 C565 1.429 . S
C581 C577 1.429 . S
C581 C582 1.523 . S
C582 C566 1.368 . S
C582 C578 1.368 . S
C582 C581 1.523 . S
H583 C558 0.950 . S
H584 C560 0.950 . S
H585 C561 0.949 . S
H586 C563 0.950 . S
H587 C565 0.950 . S
C588 C589 1.349 1_655 S
C588 C590 1.327 . S
C588 H613 0.950 . S
C589 C588 1.349 1_455 S
C589 C605 1.349 . S
C590 C588 1.327 . S
C590 C609 1.429 1_655 S
C590 H614 0.950 . S
C591 C608 1.574 1_545 S
C591 C610 1.368 1_556 S
C591 H615 0.949 . S
H592 C596 0.949 . S
C593 C594 1.349 . S
C593 C595 1.327 . S
C593 H616 0.950 . S
C594 C593 1.349 . S
C594 C606 1.349 1_455 S
C595 C593 1.327 . S
C595 C611 1.429 . S
C595 H617 0.950 . S
C596 H592 0.949 . S
C596 C604 1.574 1_565 S
C596 C612 1.368 1_654 S
H597 C605 0.950 . S
H598 C603 0.950 . S
H599 C604 0.949 . S
H600 C606 0.950 . S
H601 C607 0.950 . S
H602 C608 0.949 . S
C603 H598 0.950 . S
C603 C605 1.327 . S
C603 C609 1.429 . S
C604 C596 1.574 1_545 S
C604 H599 0.949 . S
C604 C610 1.368 1_655 S
C605 C589 1.349 . S
C605 H597 0.950 . S
C605 C603 1.327 . S
C606 C594 1.349 1_655 S
C606 H600 0.950 . S
C606 C607 1.327 . S
C607 H601 0.950 . S
C607 C606 1.327 . S
C607 C611 1.429 1_655 S
C608 C591 1.574 1_565 S
C608 H602 0.949 . S
C608 C612 1.368 . S
C609 C590 1.429 1_455 S
C609 C603 1.429 . S
C609 C610 1.523 . S
C610 C591 1.368 1_554 S
C610 C604 1.368 1_455 S
C610 C609 1.523 . S
C611 C595 1.429 . S
C611 C607 1.429 1_455 S
C611 C612 1.523 . S
C612 C596 1.368 1_456 S
C612 C608 1.368 . S
C612 C611 1.523 . S
H613 C588 0.950 . S
H614 C590 0.950 . S
H615 C591 0.949 . S
H616 C593 0.950 . S
H617 C595 0.950 . S
C618 C619 1.349 . S
C618 C620 1.327 . S
C618 H643 0.950 . S
C619 C618 1.349 . S
C619 C635 1.349 . S
C620 C618 1.327 . S
C620 C639 1.429 . S
C620 H644 0.950 . S
C621 C638 1.574 . S
C621 C640 1.368 . S
C621 H645 0.949 . S
H622 C626 0.949 . S
C623 C624 1.349 . S
C623 C625 1.327 . S
C623 H646 0.950 . S
C624 C623 1.349 . S
C624 C636 1.349 . S
C625 C623 1.327 . S
C625 C641 1.429 . S
C625 H647 0.950 . S
C626 H622 0.949 . S
C626 C634 1.574 . S
C626 C642 1.368 . S
H627 C635 0.950 . S
H628 C633 0.950 . S
H629 C634 0.949 . S
H630 C636 0.950 . S
H631 C637 0.950 . S
H632 C638 0.949 . S
C633 H628 0.950 . S
C633 C635 1.327 . S
C633 C639 1.429 . S
C634 C626 1.574 . S
C634 H629 0.949 . S
C634 C640 1.368 . S
C635 C619 1.349 . S
C635 H627 0.950 . S
C635 C633 1.327 . S
C636 C624 1.349 . S
C636 H630 0.950 . S
C636 C637 1.327 . S
C637 H631 0.950 . S
C637 C636 1.327 . S
C637 C641 1.429 . S
C638 C621 1.574 . S
C638 H632 0.949 . S
C638 C642 1.368 . S
C639 C620 1.429 . S
C639 C633 1.429 . S
C639 C640 1.523 . S
C640 C621 1.368 . S
C640 C634 1.368 . S
C640 C639 1.523 . S
C641 C625 1.429 . S
C641 C637 1.429 . S
C641 C642 1.523 . S
C642 C626 1.368 . S
C642 C638 1.368 . S
C642 C641 1.523 . S
H643 C618 0.950 . S
H644 C620 0.950 . S
H645 C621 0.949 . S
H646 C623 0.950 . S
H647 C625 0.950 . S
C648 C649 1.349 . S
C648 C650 1.327 . S
C648 H673 0.950 . S
C649 C648 1.349 . S
C649 C665 1.349 . S
C650 C648 1.327 . S
C650 C669 1.429 . S
C650 H674 0.950 . S
C651 C668 1.574 . S
C651 C670 1.368 . S
C651 H675 0.949 . S
H652 C656 0.949 . S
C653 C654 1.349 . S
C653 C655 1.327 . S
C653 H676 0.950 . S
C654 C653 1.349 . S
C654 C666 1.349 . S
C655 C653 1.327 . S
C655 C671 1.429 . S
C655 H677 0.950 . S
C656 H652 0.949 . S
C656 C664 1.574 . S
C656 C672 1.368 . S
H657 C665 0.950 . S
H658 C663 0.950 . S
H659 C664 0.949 . S
H660 C666 0.950 . S
H661 C667 0.950 . S
H662 C668 0.949 . S
C663 H658 0.950 . S
C663 C665 1.327 . S
C663 C669 1.429 . S
C664 C656 1.574 . S
C664 H659 0.949 . S
C664 C670 1.368 . S
C665 C649 1.349 . S
C665 H657 0.950 . S
C665 C663 1.327 . S
C666 C654 1.349 . S
C666 H660 0.950 . S
C666 C667 1.327 . S
C667 H661 0.950 . S
C667 C666 1.327 . S
C667 C671 1.429 . S
C668 C651 1.574 . S
C668 H662 0.949 . S
C668 C672 1.368 . S
C669 C650 1.429 . S
C669 C663 1.429 . S
C669 C670 1.523 . S
C670 C651 1.368 . S
C670 C664 1.368 . S
C670 C669 1.523 . S
C671 C655 1.429 . S
C671 C667 1.429 . S
C671 C672 1.523 . S
C672 C656 1.368 . S
C672 C668 1.368 . S
C672 C671 1.523 . S
H673 C648 0.950 . S
H674 C650 0.950 . S
H675 C651 0.949 . S
H676 C653 0.950 . S
H677 C655 0.950 . S
C678 C679 1.349 . S
C678 C680 1.327 . S
C678 H703 0.950 . S
C679 C678 1.349 . S
C679 C695 1.349 . S
C680 C678 1.327 . S
C680 C699 1.429 . S
C680 H704 0.950 . S
C681 C698 1.574 . S
C681 C700 1.368 . S
C681 H705 0.949 . S
H682 C686 0.949 . S
C683 C684 1.349 . S
C683 C685 1.327 . S
C683 H706 0.950 . S
C684 C683 1.349 . S
C684 C696 1.349 . S
C685 C683 1.327 . S
C685 C701 1.429 . S
C685 H707 0.950 . S
C686 H682 0.949 . S
C686 C694 1.574 . S
C686 C702 1.368 . S
H687 C695 0.950 . S
H688 C693 0.950 . S
H689 C694 0.949 . S
H690 C696 0.950 . S
H691 C697 0.950 . S
H692 C698 0.949 . S
C693 H688 0.950 . S
C693 C695 1.327 . S
C693 C699 1.429 . S
C694 C686 1.574 . S
C694 H689 0.949 . S
C694 C700 1.368 . S
C695 C679 1.349 . S
C695 H687 0.950 . S
C695 C693 1.327 . S
C696 C684 1.349 . S
C696 H690 0.950 . S
C696 C697 1.327 . S
C697 H691 0.950 . S
C697 C696 1.327 . S
C697 C701 1.429 . S
C698 C681 1.574 . S
C698 H692 0.949 . S
C698 C702 1.368 . S
C699 C680 1.429 . S
C699 C693 1.429 . S
C699 C700 1.523 . S
C700 C681 1.368 . S
C700 C694 1.368 . S
C700 C699 1.523 . S
C701 C685 1.429 . S
C701 C697 1.429 . S
C701 C702 1.523 . S
C702 C686 1.368 . S
C702 C698 1.368 . S
C702 C701 1.523 . S
H703 C678 0.950 . S
H704 C680 0.950 . S
H705 C681 0.949 . S
H706 C683 0.950 . S
H707 C685 0.950 . S
C708 C709 1.349 . S
C708 C710 1.327 . S
C708 H733 0.950 . S
C709 C708 1.349 . S
C709 C725 1.349 1_455 S
C710 C708 1.327 . S
C710 C729 1.429 . S
C710 H734 0.950 . S
C711 C728 1.574 . S
C711 C730 1.368 1_654 S
C711 H735 0.949 . S
H712 C716 0.949 . S
C713 C714 1.349 1_655 S
C713 C715 1.327 . S
C713 H736 0.950 . S
C714 C713 1.349 1_455 S
C714 C726 1.349 . S
C715 C713 1.327 . S
C715 C731 1.429 1_655 S
C715 H737 0.950 . S
C716 H712 0.949 . S
C716 C724 1.574 . S
C716 C732 1.368 1_556 S
H717 C725 0.950 . S
H718 C723 0.950 . S
H719 C724 0.949 . S
H720 C726 0.950 . S
H721 C727 0.950 . S
H722 C728 0.949 . S
C723 H718 0.950 . S
C723 C725 1.327 . S
C723 C729 1.429 1_655 S
C724 C716 1.574 . S
C724 H719 0.949 . S
C724 C730 1.368 . S
C725 C709 1.349 1_655 S
C725 H717 0.950 . S
C725 C723 1.327 . S
C726 C714 1.349 . S
C726 H720 0.950 . S
C726 C727 1.327 . S
C727 H721 0.950 . S
C727 C726 1.327 . S
C727 C731 1.429 . S
C728 C711 1.574 . S
C728 H722 0.949 . S
C728 C732 1.368 1_655 S
C729 C710 1.429 . S
C729 C723 1.429 1_455 S
C729 C730 1.523 . S
C730 C711 1.368 1_456 S
C730 C724 1.368 . S
C730 C729 1.523 . S
C731 C715 1.429 1_455 S
C731 C727 1.429 . S
C731 C732 1.523 . S
C732 C716 1.368 1_554 S
C732 C728 1.368 1_455 S
C732 C731 1.523 . S
H733 C708 0.950 . S
H734 C710 0.950 . S
H735 C711 0.949 . S
H736 C713 0.950 . S
H737 C715 0.950 . S
C738 C739 1.349 . S
C738 C740 1.327 . S
C738 H763 0.950 . S
C739 C738 1.349 . S
C739 C755 1.349 . S
C740 C738 1.327 . S
C740 C759 1.429 . S
C740 H764 0.950 . S
C741 C758 1.574 . S
C741 C760 1.368 . S
C741 H765 0.949 . S
H742 C746 0.949 . S
C743 C744 1.349 . S
C743 C745 1.327 . S
C743 H766 0.950 . S
C744 C743 1.349 . S
C744 C756 1.349 . S
C745 C743 1.327 . S
C745 C761 1.429 . S
C745 H767 0.950 . S
C746 H742 0.949 . S
C746 C754 1.574 . S
C746 C762 1.368 . S
H747 C755 0.950 . S
H748 C753 0.950 . S
H749 C754 0.949 . S
H750 C756 0.950 . S
H751 C757 0.950 . S
H752 C758 0.949 . S
C753 H748 0.950 . S
C753 C755 1.327 . S
C753 C759 1.429 . S
C754 C746 1.574 . S
C754 H749 0.949 . S
C754 C760 1.368 . S
C755 C739 1.349 . S
C755 H747 0.950 . S
C755 C753 1.327 . S
C756 C744 1.349 . S
C756 H750 0.950 . S
C756 C757 1.327 . S
C757 H751 0.950 . S
C757 C756 1.327 . S
C757 C761 1.429 . S
C758 C741 1.574 . S
C758 H752 0.949 . S
C758 C762 1.368 . S
C759 C740 1.429 . S
C759 C753 1.429 . S
C759 C760 1.523 . S
C760 C741 1.368 . S
C760 C754 1.368 . S
C760 C759 1.523 . S
C761 C745 1.429 . S
C761 C757 1.429 . S
C761 C762 1.523 . S
C762 C746 1.368 . S
C762 C758 1.368 . S
C762 C761 1.523 . S
H763 C738 0.950 . S
H764 C740 0.950 . S
H765 C741 0.949 . S
H766 C743 0.950 . S
H767 C745 0.950 . S
C768 C769 1.349 . S
C768 C770 1.327 . S
C768 H793 0.950 . S
C769 C768 1.349 . S
C769 C785 1.349 . S
C770 C768 1.327 . S
C770 C789 1.429 . S
C770 H794 0.950 . S
C771 C788 1.574 . S
C771 C790 1.368 . S
C771 H795 0.949 . S
H772 C776 0.949 . S
C773 C774 1.349 1_556 S
C773 C775 1.327 1_556 S
C773 H796 0.950 . S
C774 C773 1.349 1_554 S
C774 C786 1.349 . S
C775 C773 1.327 1_554 S
C775 C791 1.429 . S
C775 H797 0.950 . S
C776 H772 0.949 . S
C776 C784 1.574 . S
C776 C792 1.368 . S
H777 C785 0.950 . S
H778 C783 0.950 . S
H779 C784 0.949 . S
H780 C786 0.950 . S
H781 C787 0.950 . S
H782 C788 0.949 . S
C783 H778 0.950 . S
C783 C785 1.327 . S
C783 C789 1.429 . S
C784 C776 1.574 . S
C784 H779 0.949 . S
C784 C790 1.368 . S
C785 C769 1.349 . S
C785 H777 0.950 . S
C785 C783 1.327 . S
C786 C774 1.349 . S
C786 H780 0.950 . S
C786 C787 1.327 . S
C787 H781 0.950 . S
C787 C786 1.327 . S
C787 C791 1.429 . S
C788 C771 1.574 . S
C788 H782 0.949 . S
C788 C792 1.368 . S
C789 C770 1.429 . S
C789 C783 1.429 . S
C789 C790 1.523 . S
C790 C771 1.368 . S
C790 C784 1.368 . S
C790 C789 1.523 . S
C791 C775 1.429 . S
C791 C787 1.429 . S
C791 C792 1.523 . S
C792 C776 1.368 . S
C792 C788 1.368 . S
C792 C791 1.523 . S
H793 C768 0.950 . S
H794 C770 0.950 . S
H795 C771 0.949 . S
H796 C773 0.950 . S
H797 C775 0.950 . S
C798 C799 1.349 . S
C798 C800 1.327 . S
C798 H823 0.950 . S
C799 C798 1.349 . S
C799 C815 1.349 . S
C800 C798 1.327 . S
C800 C819 1.429 . S
C800 H824 0.950 . S
C801 C818 1.574 . S
C801 C820 1.368 . S
C801 H825 0.949 . S
H802 C806 0.949 . S
C803 C804 1.349 . S
C803 C805 1.327 . S
C803 H826 0.950 . S
C804 C803 1.349 . S
C804 C816 1.349 . S
C805 C803 1.327 . S
C805 C821 1.429 . S
C805 H827 0.950 . S
C806 H802 0.949 . S
C806 C814 1.574 . S
C806 C822 1.368 . S
H807 C815 0.950 . S
H808 C813 0.950 . S
H809 C814 0.949 . S
H810 C816 0.950 . S
H811 C817 0.950 . S
H812 C818 0.949 . S
C813 H808 0.950 . S
C813 C815 1.327 . S
C813 C819 1.429 . S
C814 C806 1.574 . S
C814 H809 0.949 . S
C814 C820 1.368 . S
C815 C799 1.349 . S
C815 H807 0.950 . S
C815 C813 1.327 . S
C816 C804 1.349 . S
C816 H810 0.950 . S
C816 C817 1.327 . S
C817 H811 0.950 . S
C817 C816 1.327 . S
C817 C821 1.429 . S
C818 C801 1.574 . S
C818 H812 0.949 . S
C818 C822 1.368 . S
C819 C800 1.429 . S
C819 C813 1.429 . S
C819 C820 1.523 . S
C820 C801 1.368 . S
C820 C814 1.368 . S
C820 C819 1.523 . S
C821 C805 1.429 . S
C821 C817 1.429 . S
C821 C822 1.523 . S
C822 C806 1.368 . S
C822 C818 1.368 . S
C822 C821 1.523 . S
H823 C798 0.950 . S
H824 C800 0.950 . S
H825 C801 0.949 . S
H826 C803 0.950 . S
H827 C805 0.950 . S
C828 C829 1.349 . S
C828 C830 1.327 . S
C828 H853 0.950 . S
C829 C828 1.349 . S
C829 C845 1.349 . S
C830 C828 1.327 . S
C830 C849 1.429 . S
C830 H854 0.950 . S
C831 C848 1.574 . S
C831 C850 1.368 . S
C831 H855 0.949 . S
H832 C836 0.949 . S
C833 C834 1.349 . S
C833 C835 1.327 . S
C833 H856 0.950 . S
C834 C833 1.349 . S
C834 C846 1.349 . S
C835 C833 1.327 . S
C835 C851 1.429 . S
C835 H857 0.950 . S
C836 H832 0.949 . S
C836 C844 1.574 . S
C836 C852 1.368 . S
H837 C845 0.950 . S
H838 C843 0.950 . S
H839 C844 0.949 . S
H840 C846 0.950 . S
H841 C847 0.950 . S
H842 C848 0.949 . S
C843 H838 0.950 . S
C843 C845 1.327 . S
C843 C849 1.429 . S
C844 C836 1.574 . S
C844 H839 0.949 . S
C844 C850 1.368 . S
C845 C829 1.349 . S
C845 H837 0.950 . S
C845 C843 1.327 . S
C846 C834 1.349 . S
C846 H840 0.950 . S
C846 C847 1.327 . S
C847 H841 0.950 . S
C847 C846 1.327 . S
C847 C851 1.429 . S
C848 C831 1.574 . S
C848 H842 0.949 . S
C848 C852 1.368 . S
C849 C830 1.429 . S
C849 C843 1.429 . S
C849 C850 1.523 . S
C850 C831 1.368 . S
C850 C844 1.368 . S
C850 C849 1.523 . S
C851 C835 1.429 . S
C851 C847 1.429 . S
C851 C852 1.523 . S
C852 C836 1.368 . S
C852 C848 1.368 . S
C852 C851 1.523 . S
H853 C828 0.950 . S
H854 C830 0.950 . S
H855 C831 0.949 . S
H856 C833 0.950 . S
H857 C835 0.950 . S
C858 C859 1.349 . S
C858 C860 1.327 . S
C858 H883 0.950 . S
C859 C858 1.349 . S
C859 C875 1.349 1_556 S
C860 C858 1.327 . S
C860 C879 1.429 . S
C860 H884 0.950 . S
C861 C878 1.574 . S
C861 C880 1.368 . S
C861 H885 0.949 . S
H862 C866 0.949 . S
C863 C864 1.349 . S
C863 C865 1.327 . S
C863 H886 0.950 . S
C864 C863 1.349 . S
C864 C876 1.349 . S
C865 C863 1.327 . S
C865 C881 1.429 . S
C865 H887 0.950 . S
C866 H862 0.949 . S
C866 C874 1.574 . S
C866 C882 1.368 . S
H867 C875 0.950 . S
H868 C873 0.950 . S
H869 C874 0.949 . S
H870 C876 0.950 . S
H871 C877 0.950 . S
H872 C878 0.949 . S
C873 H868 0.950 . S
C873 C875 1.327 1_556 S
C873 C879 1.429 . S
C874 C866 1.574 . S
C874 H869 0.949 . S
C874 C880 1.368 . S
C875 C859 1.349 1_554 S
C875 H867 0.950 . S
C875 C873 1.327 1_554 S
C876 C864 1.349 . S
C876 H870 0.950 . S
C876 C877 1.327 . S
C877 H871 0.950 . S
C877 C876 1.327 . S
C877 C881 1.429 . S
C878 C861 1.574 . S
C878 H872 0.949 . S
C878 C882 1.368 . S
C879 C860 1.429 . S
C879 C873 1.429 . S
C879 C880 1.523 . S
C880 C861 1.368 . S
C880 C874 1.368 . S
C880 C879 1.523 . S
C881 C865 1.429 . S
C881 C877 1.429 . S
C881 C882 1.523 . S
C882 C866 1.368 . S
C882 C878 1.368 . S
C882 C881 1.523 . S
H883 C858 0.950 . S
H884 C860 0.950 . S
H885 C861 0.949 . S
H886 C863 0.950 . S
H887 C865 0.950 . S
C888 C889 1.349 . S
C888 C890 1.327 . S
C888 H913 0.950 . S
C889 C888 1.349 . S
C889 C905 1.349 . S
C890 C888 1.327 . S
C890 C909 1.429 . S
C890 H914 0.950 . S
C891 C908 1.574 . S
C891 C910 1.368 . S
C891 H915 0.949 . S
H892 C896 0.949 . S
C893 C894 1.349 . S
C893 C895 1.327 1_554 S
C893 H916 0.950 . S
C894 C893 1.349 . S
C894 C906 1.349 1_554 S
C895 C893 1.327 1_556 S
C895 C911 1.429 . S
C895 H917 0.950 . S
C896 H892 0.949 . S
C896 C904 1.574 . S
C896 C912 1.368 . S
H897 C905 0.950 . S
H898 C903 0.950 . S
H899 C904 0.949 . S
H900 C906 0.950 . S
H901 C907 0.950 . S
H902 C908 0.949 . S
C903 H898 0.950 . S
C903 C905 1.327 . S
C903 C909 1.429 . S
C904 C896 1.574 . S
C904 H899 0.949 . S
C904 C910 1.368 . S
C905 C889 1.349 . S
C905 H897 0.950 . S
C905 C903 1.327 . S
C906 C894 1.349 1_556 S
C906 H900 0.950 . S
C906 C907 1.327 . S
C907 H901 0.950 . S
C907 C906 1.327 . S
C907 C911 1.429 . S
C908 C891 1.574 . S
C908 H902 0.949 . S
C908 C912 1.368 . S
C909 C890 1.429 . S
C909 C903 1.429 . S
C909 C910 1.523 . S
C910 C891 1.368 . S
C910 C904 1.368 . S
C910 C909 1.523 . S
C911 C895 1.429 . S
C911 C907 1.429 . S
C911 C912 1.523 . S
C912 C896 1.368 . S
C912 C908 1.368 . S
C912 C911 1.523 . S
H913 C888 0.950 . S
H914 C890 0.950 . S
H915 C891 0.949 . S
H916 C893 0.950 . S
H917 C895 0.950 . S
C918 C919 1.349 . S
C918 C920 1.327 . S
C918 H943 0.950 . S
C919 C918 1.349 . S
C919 C935 1.349 . S
C920 C918 1.327 . S
C920 C939 1.429 . S
C920 H944 0.950 . S
C921 C938 1.574 . S
C921 C940 1.368 . S
C921 H945 0.949 . S
H922 C926 0.949 . S
C923 C924 1.349 . S
C923 C925 1.327 . S
C923 H946 0.950 . S
C924 C923 1.349 . S
C924 C936 1.349 . S
C925 C923 1.327 . S
C925 C941 1.429 . S
C925 H947 0.950 . S
C926 H922 0.949 . S
C926 C934 1.574 . S
C926 C942 1.368 . S
H927 C935 0.950 . S
H928 C933 0.950 . S
H929 C934 0.949 . S
H930 C936 0.950 . S
H931 C937 0.950 . S
H932 C938 0.949 . S
C933 H928 0.950 . S
C933 C935 1.327 . S
C933 C939 1.429 . S
C934 C926 1.574 . S
C934 H929 0.949 . S
C934 C940 1.368 . S
C935 C919 1.349 . S
C935 H927 0.950 . S
C935 C933 1.327 . S
C936 C924 1.349 . S
C936 H930 0.950 . S
C936 C937 1.327 . S
C937 H931 0.950 . S
C937 C936 1.327 . S
C937 C941 1.429 . S
C938 C921 1.574 . S
C938 H932 0.949 . S
C938 C942 1.368 . S
C939 C920 1.429 . S
C939 C933 1.429 . S
C939 C940 1.523 . S
C940 C921 1.368 . S
C940 C934 1.368 . S
C940 C939 1.523 . S
C941 C925 1.429 . S
C941 C937 1.429 . S
C941 C942 1.523 . S
C942 C926 1.368 . S
C942 C938 1.368 . S
C942 C941 1.523 . S
H943 C918 0.950 . S
H944 C920 0.950 . S
H945 C921 0.949 . S
H946 C923 0.950 . S
H947 C925 0.950 . S
C948 C949 1.349 . S
C948 C950 1.327 . S
C948 H973 0.950 . S
C949 C948 1.349 . S
C949 C965 1.349 . S
C950 C948 1.327 . S
C950 C969 1.429 . S
C950 H974 0.950 . S
C951 C968 1.574 . S
C951 C970 1.368 . S
C951 H975 0.949 . S
H952 C956 0.949 . S
C953 C954 1.349 . S
C953 C955 1.327 . S
C953 H976 0.950 . S
C954 C953 1.349 . S
C954 C966 1.349 . S
C955 C953 1.327 . S
C955 C971 1.429 . S
C955 H977 0.950 . S
C956 H952 0.949 . S
C956 C964 1.574 . S
C956 C972 1.368 . S
H957 C965 0.950 . S
H958 C963 0.950 . S
H959 C964 0.949 . S
H960 C966 0.950 . S
H961 C967 0.950 . S
H962 C968 0.949 . S
C963 H958 0.950 . S
C963 C965 1.327 . S
C963 C969 1.429 . S
C964 C956 1.574 . S
C964 H959 0.949 . S
C964 C970 1.368 . S
C965 C949 1.349 . S
C965 H957 0.950 . S
C965 C963 1.327 . S
C966 C954 1.349 . S
C966 H960 0.950 . S
C966 C967 1.327 . S
C967 H961 0.950 . S
C967 C966 1.327 . S
C967 C971 1.429 . S
C968 C951 1.574 . S
C968 H962 0.949 . S
C968 C972 1.368 . S
C969 C950 1.429 . S
C969 C963 1.429 . S
C969 C970 1.523 . S
C970 C951 1.368 . S
C970 C964 1.368 . S
C970 C969 1.523 . S
C971 C955 1.429 . S
C971 C967 1.429 . S
C971 C972 1.523 . S
C972 C956 1.368 . S
C972 C968 1.368 . S
C972 C971 1.523 . S
H973 C948 0.950 . S
H974 C950 0.950 . S
H975 C951 0.949 . S
H976 C953 0.950 . S
H977 C955 0.950 . S
C978 C979 1.349 . S
C978 C980 1.327 . S
C978 H1003 0.950 . S
C979 C978 1.349 . S
C979 C995 1.349 . S
C980 C978 1.327 . S
C980 C999 1.429 . S
C980 H1004 0.950 . S
C981 C998 1.574 . S
C981 C1000 1.368 . S
C981 H1005 0.949 . S
H982 C986 0.949 . S
C983 C984 1.349 1_554 S
C983 C985 1.327 . S
C983 H1006 0.950 1_554 S
C984 C983 1.349 1_556 S
C984 C996 1.349 . S
C985 C983 1.327 . S
C985 C1001 1.429 . S
C985 H1007 0.950 . S
C986 H982 0.949 . S
C986 C994 1.574 . S
C986 C1002 1.368 . S
H987 C995 0.950 . S
H988 C993 0.950 . S
H989 C994 0.949 . S
H990 C996 0.950 . S
H991 C997 0.950 . S
H992 C998 0.949 . S
C993 H988 0.950 . S
C993 C995 1.327 . S
C993 C999 1.429 . S
C994 C986 1.574 . S
C994 H989 0.949 . S
C994 C1000 1.368 . S
C995 C979 1.349 . S
C995 H987 0.950 . S
C995 C993 1.327 . S
C996 C984 1.349 . S
C996 H990 0.950 . S
C996 C997 1.327 1_556 S
C997 H991 0.950 . S
C997 C996 1.327 1_554 S
C997 C1001 1.429 . S
C998 C981 1.574 . S
C998 H992 0.949 . S
C998 C1002 1.368 . S
C999 C980 1.429 . S
C999 C993 1.429 . S
C999 C1000 1.523 . S
C1000 C981 1.368 . S
C1000 C994 1.368 . S
C1000 C999 1.523 . S
C1001 C985 1.429 . S
C1001 C997 1.429 . S
C1001 C1002 1.523 . S
C1002 C986 1.368 . S
C1002 C998 1.368 . S
C1002 C1001 1.523 . S
H1003 C978 0.950 . S
H1004 C980 0.950 . S
H1005 C981 0.949 . S
H1006 C983 0.950 1_556 S
H1007 C985 0.950 . S
C1008 C1009 1.349 . S
C1008 C1010 1.327 . S
C1008 H1033 0.950 . S
C1009 C1008 1.349 . S
C1009 C1025 1.349 . S
C1010 C1008 1.327 . S
C1010 C1029 1.429 . S
C1010 H1034 0.950 . S
C1011 C1028 1.574 . S
C1011 C1030 1.368 . S
C1011 H1035 0.949 . S
H1012 C1016 0.949 . S
C1013 C1014 1.349 . S
C1013 C1015 1.327 . S
C1013 H1036 0.950 . S
C1014 C1013 1.349 . S
C1014 C1026 1.349 . S
C1015 C1013 1.327 . S
C1015 C1031 1.429 . S
C1015 H1037 0.950 . S
C1016 H1012 0.949 . S
C1016 C1024 1.574 . S
C1016 C1032 1.368 . S
H1017 C1025 0.950 . S
H1018 C1023 0.950 . S
H1019 C1024 0.949 . S
H1020 C1026 0.950 . S
H1021 C1027 0.950 . S
H1022 C1028 0.949 . S
C1023 H1018 0.950 . S
C1023 C1025 1.327 . S
C1023 C1029 1.429 . S
C1024 C1016 1.574 . S
C1024 H1019 0.949 . S
C1024 C1030 1.368 . S
C1025 C1009 1.349 . S
C1025 H1017 0.950 . S
C1025 C1023 1.327 . S
C1026 C1014 1.349 . S
C1026 H1020 0.950 . S
C1026 C1027 1.327 . S
C1027 H1021 0.950 . S
C1027 C1026 1.327 . S
C1027 C1031 1.429 . S
C1028 C1011 1.574 . S
C1028 H1022 0.949 . S
C1028 C1032 1.368 . S
C1029 C1010 1.429 . S
C1029 C1023 1.429 . S
C1029 C1030 1.523 . S
C1030 C1011 1.368 . S
C1030 C1024 1.368 . S
C1030 C1029 1.523 . S
C1031 C1015 1.429 . S
C1031 C1027 1.429 . S
C1031 C1032 1.523 . S
C1032 C1016 1.368 . S
C1032 C1028 1.368 . S
C1032 C1031 1.523 . S
H1033 C1008 0.950 . S
H1034 C1010 0.950 . S
H1035 C1011 0.949 . S
H1036 C1013 0.950 . S
H1037 C1015 0.950 . S
C1038 C1039 1.349 1_554 S
C1038 C1040 1.327 1_554 S
C1038 H1063 0.950 . S
C1039 C1038 1.349 1_556 S
C1039 C1055 1.349 . S
C1040 C1038 1.327 1_556 S
C1040 C1059 1.429 . S
C1040 H1064 0.950 . S
C1041 C1058 1.574 . S
C1041 C1060 1.368 . S
C1041 H1065 0.949 . S
H1042 C1046 0.949 . S
C1043 C1044 1.349 . S
C1043 C1045 1.327 . S
C1043 H1066 0.950 . S
C1044 C1043 1.349 . S
C1044 C1056 1.349 . S
C1045 C1043 1.327 . S
C1045 C1061 1.429 . S
C1045 H1067 0.950 . S
C1046 H1042 0.949 . S
C1046 C1054 1.574 . S
C1046 C1062 1.368 . S
H1047 C1055 0.950 . S
H1048 C1053 0.950 . S
H1049 C1054 0.949 . S
H1050 C1056 0.950 . S
H1051 C1057 0.950 . S
H1052 C1058 0.949 . S
C1053 H1048 0.950 . S
C1053 C1055 1.327 . S
C1053 C1059 1.429 . S
C1054 C1046 1.574 . S
C1054 H1049 0.949 . S
C1054 C1060 1.368 . S
C1055 C1039 1.349 . S
C1055 H1047 0.950 . S
C1055 C1053 1.327 . S
C1056 C1044 1.349 . S
C1056 H1050 0.950 . S
C1056 C1057 1.327 . S
C1057 H1051 0.950 . S
C1057 C1056 1.327 . S
C1057 C1061 1.429 . S
C1058 C1041 1.574 . S
C1058 H1052 0.949 . S
C1058 C1062 1.368 . S
C1059 C1040 1.429 . S
C1059 C1053 1.429 . S
C1059 C1060 1.523 . S
C1060 C1041 1.368 . S
C1060 C1054 1.368 . S
C1060 C1059 1.523 . S
C1061 C1045 1.429 . S
C1061 C1057 1.429 . S
C1061 C1062 1.523 . S
C1062 C1046 1.368 . S
C1062 C1058 1.368 . S
C1062 C1061 1.523 . S
H1063 C1038 0.950 . S
H1064 C1040 0.950 . S
H1065 C1041 0.949 . S
H1066 C1043 0.950 . S
H1067 C1045 0.950 . S
C1068 C1069 1.349 . S
C1068 C1070 1.327 . S
C1068 H1093 0.950 . S
C1069 C1068 1.349 . S
C1069 C1085 1.349 . S
C1070 C1068 1.327 . S
C1070 C1089 1.429 . S
C1070 H1094 0.950 . S
C1071 C1088 1.574 . S
C1071 C1090 1.368 . S
C1071 H1095 0.949 . S
H1072 C1076 0.949 . S
C1073 C1074 1.349 . S
C1073 C1075 1.327 . S
C1073 H1096 0.950 . S
C1074 C1073 1.349 . S
C1074 C1086 1.349 . S
C1075 C1073 1.327 . S
C1075 C1091 1.429 . S
C1075 H1097 0.950 . S
C1076 H1072 0.949 . S
C1076 C1084 1.574 . S
C1076 C1092 1.368 . S
H1077 C1085 0.952 . S
H1078 C1083 0.950 . S
H1079 C1084 0.949 . S
H1080 C1086 0.950 . S
H1081 C1087 0.950 . S
H1082 C1088 0.949 . S
C1083 H1078 0.950 . S
C1083 C1085 1.327 . S
C1083 C1089 1.429 . S
C1084 C1076 1.574 . S
C1084 H1079 0.949 . S
C1084 C1090 1.368 . S
C1085 C1069 1.349 . S
C1085 H1077 0.952 . S
C1085 C1083 1.327 . S
C1086 C1074 1.349 . S
C1086 H1080 0.950 . S
C1086 C1087 1.327 . S
C1087 H1081 0.950 . S
C1087 C1086 1.327 . S
C1087 C1091 1.429 . S
C1088 C1071 1.574 . S
C1088 H1082 0.949 . S
C1088 C1092 1.368 . S
C1089 C1070 1.429 . S
C1089 C1083 1.429 . S
C1089 C1090 1.523 . S
C1090 C1071 1.368 . S
C1090 C1084 1.368 . S
C1090 C1089 1.523 . S
C1091 C1075 1.429 . S
C1091 C1087 1.429 . S
C1091 C1092 1.523 . S
C1092 C1076 1.368 . S
C1092 C1088 1.368 . S
C1092 C1091 1.523 . S
H1093 C1068 0.950 . S
H1094 C1070 0.950 . S
H1095 C1071 0.949 . S
H1096 C1073 0.950 . S
H1097 C1075 0.950 . S
C1098 C1099 1.349 . S
C1098 C1100 1.327 . S
C1098 H1123 0.950 . S
C1099 C1098 1.349 . S
C1099 C1115 1.349 . S
C1100 C1098 1.327 . S
C1100 C1119 1.429 . S
C1100 H1124 0.950 . S
C1101 C1118 1.574 . S
C1101 C1120 1.368 . S
C1101 H1125 0.949 . S
H1102 C1106 0.949 . S
C1103 C1104 1.349 . S
C1103 C1105 1.327 . S
C1103 H1126 0.950 . S
C1104 C1103 1.349 . S
C1104 C1116 1.349 . S
C1105 C1103 1.327 . S
C1105 C1121 1.429 . S
C1105 H1127 0.950 . S
C1106 H1102 0.949 . S
C1106 C1114 1.574 . S
C1106 C1122 1.368 . S
H1107 C1115 0.950 . S
H1108 C1113 0.950 . S
H1109 C1114 0.949 . S
H1110 C1116 0.950 . S
H1111 C1117 0.950 . S
H1112 C1118 0.949 . S
C1113 H1108 0.950 . S
C1113 C1115 1.327 . S
C1113 C1119 1.429 . S
C1114 C1106 1.574 . S
C1114 H1109 0.949 . S
C1114 C1120 1.368 . S
C1115 C1099 1.349 . S
C1115 H1107 0.950 . S
C1115 C1113 1.327 . S
C1116 C1104 1.349 . S
C1116 H1110 0.950 . S
C1116 C1117 1.327 . S
C1117 H1111 0.950 . S
C1117 C1116 1.327 . S
C1117 C1121 1.429 . S
C1118 C1101 1.574 . S
C1118 H1112 0.949 . S
C1118 C1122 1.368 . S
C1119 C1100 1.429 . S
C1119 C1113 1.429 . S
C1119 C1120 1.523 . S
C1120 C1101 1.368 . S
C1120 C1114 1.368 . S
C1120 C1119 1.523 . S
C1121 C1105 1.429 . S
C1121 C1117 1.429 . S
C1121 C1122 1.523 . S
C1122 C1106 1.368 . S
C1122 C1118 1.368 . S
C1122 C1121 1.523 . S
H1123 C1098 0.950 . S
H1124 C1100 0.950 . S
H1125 C1101 0.949 . S
H1126 C1103 0.950 . S
H1127 C1105 0.950 . S
C1128 C1129 1.349 . S
C1128 C1130 1.327 . S
C1128 H1153 0.950 . S
C1129 C1128 1.349 . S
C1129 C1145 1.349 . S
C1130 C1128 1.327 . S
C1130 C1149 1.429 . S
C1130 H1154 0.950 . S
C1131 C1148 1.574 . S
C1131 C1150 1.368 . S
C1131 H1155 0.949 . S
H1132 C1136 0.949 . S
C1133 C1134 1.349 . S
C1133 C1135 1.327 . S
C1133 H1156 0.950 . S
C1134 C1133 1.349 . S
C1134 C1146 1.349 . S
C1135 C1133 1.327 . S
C1135 C1151 1.429 . S
C1135 H1157 0.950 . S
C1136 H1132 0.949 . S
C1136 C1144 1.574 . S
C1136 C1152 1.368 . S
H1137 C1145 0.950 . S
H1138 C1143 0.950 . S
H1139 C1144 0.949 . S
H1140 C1146 0.950 . S
H1141 C1147 0.950 . S
H1142 C1148 0.949 . S
C1143 H1138 0.950 . S
C1143 C1145 1.327 . S
C1143 C1149 1.429 . S
C1144 C1136 1.574 . S
C1144 H1139 0.949 . S
C1144 C1150 1.368 . S
C1145 C1129 1.349 . S
C1145 H1137 0.950 . S
C1145 C1143 1.327 . S
C1146 C1134 1.349 . S
C1146 H1140 0.950 . S
C1146 C1147 1.327 . S
C1147 H1141 0.950 . S
C1147 C1146 1.327 . S
C1147 C1151 1.429 . S
C1148 C1131 1.574 . S
C1148 H1142 0.949 . S
C1148 C1152 1.368 . S
C1149 C1130 1.429 . S
C1149 C1143 1.429 . S
C1149 C1150 1.523 . S
C1150 C1131 1.368 . S
C1150 C1144 1.368 . S
C1150 C1149 1.523 . S
C1151 C1135 1.429 . S
C1151 C1147 1.429 . S
C1151 C1152 1.523 . S
C1152 C1136 1.368 . S
C1152 C1148 1.368 . S
C1152 C1151 1.523 . S
H1153 C1128 0.950 . S
H1154 C1130 0.950 . S
H1155 C1131 0.949 . S
H1156 C1133 0.950 . S
H1157 C1135 0.950 . S
C1158 C1159 1.349 . S
C1158 C1160 1.327 1_556 S
C1158 H1183 0.950 . S
C1159 C1158 1.349 . S
C1159 C1175 1.349 1_556 S
C1160 C1158 1.327 1_554 S
C1160 C1179 1.429 . S
C1160 H1184 0.950 . S
C1161 C1178 1.574 . S
C1161 C1180 1.368 . S
C1161 H1185 0.949 . S
H1162 C1166 0.949 . S
C1163 C1164 1.349 . S
C1163 C1165 1.327 . S
C1163 H1186 0.950 . S
C1164 C1163 1.349 . S
C1164 C1176 1.349 . S
C1165 C1163 1.327 . S
C1165 C1181 1.429 . S
C1165 H1187 0.950 . S
C1166 H1162 0.949 . S
C1166 C1174 1.574 . S
C1166 C1182 1.368 . S
H1167 C1175 0.950 1_556 S
H1168 C1173 0.950 . S
H1169 C1174 0.949 . S
H1170 C1176 0.950 . S
H1171 C1177 0.950 . S
H1172 C1178 0.949 . S
C1173 H1168 0.950 . S
C1173 C1175 1.327 . S
C1173 C1179 1.429 . S
C1174 C1166 1.574 . S
C1174 H1169 0.949 . S
C1174 C1180 1.368 . S
C1175 C1159 1.349 1_554 S
C1175 H1167 0.950 1_554 S
C1175 C1173 1.327 . S
C1176 C1164 1.349 . S
C1176 H1170 0.950 . S
C1176 C1177 1.327 . S
C1177 H1171 0.950 . S
C1177 C1176 1.327 . S
C1177 C1181 1.429 . S
C1178 C1161 1.574 . S
C1178 H1172 0.949 . S
C1178 C1182 1.368 . S
C1179 C1160 1.429 . S
C1179 C1173 1.429 . S
C1179 C1180 1.523 . S
C1180 C1161 1.368 . S
C1180 C1174 1.368 . S
C1180 C1179 1.523 . S
C1181 C1165 1.429 . S
C1181 C1177 1.429 . S
C1181 C1182 1.523 . S
C1182 C1166 1.368 . S
C1182 C1178 1.368 . S
C1182 C1181 1.523 . S
H1183 C1158 0.950 . S
H1184 C1160 0.950 . S
H1185 C1161 0.949 . S
H1186 C1163 0.950 . S
H1187 C1165 0.950 . S
C1188 C1189 1.349 . S
C1188 C1190 1.327 1_554 S
C1188 H1213 0.950 . S
C1189 C1188 1.349 . S
C1189 C1205 1.349 1_554 S
C1190 C1188 1.327 1_556 S
C1190 C1209 1.429 . S
C1190 H1214 0.950 . S
C1191 C1208 1.574 . S
C1191 C1210 1.368 . S
C1191 H1215 0.949 . S
H1192 C1196 0.949 . S
C1193 C1194 1.349 . S
C1193 C1195 1.327 . S
C1193 H1216 0.950 . S
C1194 C1193 1.349 . S
C1194 C1206 1.349 . S
C1195 C1193 1.327 . S
C1195 C1211 1.429 . S
C1195 H1217 0.950 . S
C1196 H1192 0.949 . S
C1196 C1204 1.574 . S
C1196 C1212 1.368 . S
H1197 C1205 0.955 . S
H1198 C1203 0.950 . S
H1199 C1204 0.949 . S
H1200 C1206 0.950 . S
H1201 C1207 0.950 . S
H1202 C1208 0.949 . S
C1203 H1198 0.950 . S
C1203 C1205 1.327 . S
C1203 C1209 1.429 . S
C1204 C1196 1.574 . S
C1204 H1199 0.949 . S
C1204 C1210 1.368 . S
C1205 C1189 1.349 1_556 S
C1205 H1197 0.955 . S
C1205 C1203 1.327 . S
C1206 C1194 1.349 . S
C1206 H1200 0.950 . S
C1206 C1207 1.327 . S
C1207 H1201 0.950 . S
C1207 C1206 1.327 . S
C1207 C1211 1.429 . S
C1208 C1191 1.574 . S
C1208 H1202 0.949 . S
C1208 C1212 1.368 . S
C1209 C1190 1.429 . S
C1209 C1203 1.429 . S
C1209 C1210 1.523 . S
C1210 C1191 1.368 . S
C1210 C1204 1.368 . S
C1210 C1209 1.523 . S
C1211 C1195 1.429 . S
C1211 C1207 1.429 . S
C1211 C1212 1.523 . S
C1212 C1196 1.368 . S
C1212 C1208 1.368 . S
C1212 C1211 1.523 . S
H1213 C1188 0.950 . S
H1214 C1190 0.950 . S
H1215 C1191 0.949 . S
H1216 C1193 0.950 . S
H1217 C1195 0.950 . S
C1218 C1219 1.349 . S
C1218 C1220 1.327 . S
C1218 H1243 0.950 . S
C1219 C1218 1.349 . S
C1219 C1235 1.349 . S
C1220 C1218 1.327 . S
C1220 C1239 1.429 . S
C1220 H1244 0.950 . S
C1221 C1238 1.574 . S
C1221 C1240 1.368 . S
C1221 H1245 0.949 . S
H1222 C1226 0.949 . S
C1223 C1224 1.349 . S
C1223 C1225 1.327 . S
C1223 H1246 0.950 . S
C1224 C1223 1.349 . S
C1224 C1236 1.349 . S
C1225 C1223 1.327 . S
C1225 C1241 1.429 . S
C1225 H1247 0.950 . S
C1226 H1222 0.949 . S
C1226 C1234 1.574 . S
C1226 C1242 1.368 . S
H1227 C1235 0.950 . S
H1228 C1233 0.950 . S
H1229 C1234 0.949 . S
H1230 C1236 0.950 . S
H1231 C1237 0.950 . S
H1232 C1238 0.949 . S
C1233 H1228 0.950 . S
C1233 C1235 1.327 . S
C1233 C1239 1.429 . S
C1234 C1226 1.574 . S
C1234 H1229 0.949 . S
C1234 C1240 1.368 . S
C1235 C1219 1.349 . S
C1235 H1227 0.950 . S
C1235 C1233 1.327 . S
C1236 C1224 1.349 . S
C1236 H1230 0.950 . S
C1236 C1237 1.327 . S
C1237 H1231 0.950 . S
C1237 C1236 1.327 . S
C1237 C1241 1.429 . S
C1238 C1221 1.574 . S
C1238 H1232 0.949 . S
C1238 C1242 1.368 . S
C1239 C1220 1.429 . S
C1239 C1233 1.429 . S
C1239 C1240 1.523 . S
C1240 C1221 1.368 . S
C1240 C1234 1.368 . S
C1240 C1239 1.523 . S
C1241 C1225 1.429 . S
C1241 C1237 1.429 . S
C1241 C1242 1.523 . S
C1242 C1226 1.368 . S
C1242 C1238 1.368 . S
C1242 C1241 1.523 . S
H1243 C1218 0.950 . S
H1244 C1220 0.950 . S
H1245 C1221 0.949 . S
H1246 C1223 0.950 . S
H1247 C1225 0.950 . S
C1248 C1249 1.349 . S
C1248 C1250 1.327 . S
C1248 H1273 0.950 . S
C1249 C1248 1.349 . S
C1249 C1265 1.349 . S
C1250 C1248 1.327 . S
C1250 C1269 1.429 . S
C1250 H1274 0.950 . S
C1251 C1268 1.574 . S
C1251 C1270 1.368 . S
C1251 H1275 0.949 . S
H1252 C1256 0.949 . S
C1253 C1254 1.349 . S
C1253 C1255 1.327 . S
C1253 H1276 0.950 . S
C1254 C1253 1.349 . S
C1254 C1266 1.349 . S
C1255 C1253 1.327 . S
C1255 C1271 1.429 . S
C1255 H1277 0.950 . S
C1256 H1252 0.949 . S
C1256 C1264 1.574 . S
C1256 C1272 1.368 . S
H1257 C1265 0.950 . S
H1258 C1263 0.950 . S
H1259 C1264 0.949 . S
H1260 C1266 0.950 . S
H1261 C1267 0.950 . S
H1262 C1268 0.949 . S
C1263 H1258 0.950 . S
C1263 C1265 1.327 . S
C1263 C1269 1.429 . S
C1264 C1256 1.574 . S
C1264 H1259 0.949 . S
C1264 C1270 1.368 . S
C1265 C1249 1.349 . S
C1265 H1257 0.950 . S
C1265 C1263 1.327 . S
C1266 C1254 1.349 . S
C1266 H1260 0.950 . S
C1266 C1267 1.327 . S
C1267 H1261 0.950 . S
C1267 C1266 1.327 . S
C1267 C1271 1.429 . S
C1268 C1251 1.574 . S
C1268 H1262 0.949 . S
C1268 C1272 1.368 . S
C1269 C1250 1.429 . S
C1269 C1263 1.429 . S
C1269 C1270 1.523 . S
C1270 C1251 1.368 . S
C1270 C1264 1.368 . S
C1270 C1269 1.523 . S
C1271 C1255 1.429 . S
C1271 C1267 1.429 . S
C1271 C1272 1.523 . S
C1272 C1256 1.368 . S
C1272 C1268 1.368 . S
C1272 C1271 1.523 . S
H1273 C1248 0.950 . S
H1274 C1250 0.950 . S
H1275 C1251 0.949 . S
H1276 C1253 0.950 . S
H1277 C1255 0.950 . S
C1278 C1279 1.349 . S
C1278 C1280 1.327 1_554 S
C1278 H1303 0.950 . S
C1279 C1278 1.349 . S
C1279 C1295 1.349 1_554 S
C1280 C1278 1.327 1_556 S
C1280 C1299 1.429 . S
C1280 H1304 0.950 . S
C1281 C1298 1.574 . S
C1281 C1300 1.368 . S
C1281 H1305 0.949 . S
H1282 C1286 0.949 . S
C1283 C1284 1.349 . S
C1283 C1285 1.327 . S
C1283 H1306 0.950 . S
C1284 C1283 1.349 . S
C1284 C1296 1.349 . S
C1285 C1283 1.327 . S
C1285 C1301 1.429 . S
C1285 H1307 0.950 . S
C1286 H1282 0.949 . S
C1286 C1294 1.574 . S
C1286 C1302 1.368 . S
H1287 C1295 0.950 . S
H1288 C1293 0.950 . S
H1289 C1294 0.949 . S
H1290 C1296 0.950 . S
H1291 C1297 0.950 . S
H1292 C1298 0.949 . S
C1293 H1288 0.950 . S
C1293 C1295 1.327 . S
C1293 C1299 1.429 . S
C1294 C1286 1.574 . S
C1294 H1289 0.949 . S
C1294 C1300 1.368 . S
C1295 C1279 1.349 1_556 S
C1295 H1287 0.950 . S
C1295 C1293 1.327 . S
C1296 C1284 1.349 . S
C1296 H1290 0.950 . S
C1296 C1297 1.327 . S
C1297 H1291 0.950 . S
C1297 C1296 1.327 . S
C1297 C1301 1.429 . S
C1298 C1281 1.574 . S
C1298 H1292 0.949 . S
C1298 C1302 1.368 . S
C1299 C1280 1.429 . S
C1299 C1293 1.429 . S
C1299 C1300 1.523 . S
C1300 C1281 1.368 . S
C1300 C1294 1.368 . S
C1300 C1299 1.523 . S
C1301 C1285 1.429 . S
C1301 C1297 1.429 . S
C1301 C1302 1.523 . S
C1302 C1286 1.368 . S
C1302 C1298 1.368 . S
C1302 C1301 1.523 . S
H1303 C1278 0.950 . S
H1304 C1280 0.950 . S
H1305 C1281 0.949 . S
H1306 C1283 0.950 . S
H1307 C1285 0.950 . S
C1308 C1309 1.349 . S
C1308 C1310 1.327 1_556 S
C1308 H1333 0.950 . S
C1309 C1308 1.349 . S
C1309 C1325 1.349 1_556 S
C1310 C1308 1.327 1_554 S
C1310 C1329 1.429 . S
C1310 H1334 0.950 . S
C1311 C1328 1.574 . S
C1311 C1330 1.368 . S
C1311 H1335 0.949 . S
H1312 C1316 0.949 . S
C1313 C1314 1.349 . S
C1313 C1315 1.327 . S
C1313 H1336 0.950 . S
C1314 C1313 1.349 . S
C1314 C1326 1.349 . S
C1315 C1313 1.327 . S
C1315 C1331 1.429 . S
C1315 H1337 0.950 . S
C1316 H1312 0.949 . S
C1316 C1324 1.574 . S
C1316 C1332 1.368 . S
H1317 C1325 0.950 1_556 S
H1318 C1323 0.950 . S
H1319 C1324 0.949 . S
H1320 C1326 0.950 . S
H1321 C1327 0.950 . S
H1322 C1328 0.949 . S
C1323 H1318 0.950 . S
C1323 C1325 1.327 . S
C1323 C1329 1.429 . S
C1324 C1316 1.574 . S
C1324 H1319 0.949 . S
C1324 C1330 1.368 . S
C1325 C1309 1.349 1_554 S
C1325 H1317 0.950 1_554 S
C1325 C1323 1.327 . S
C1326 C1314 1.349 . S
C1326 H1320 0.950 . S
C1326 C1327 1.327 . S
C1327 H1321 0.950 . S
C1327 C1326 1.327 . S
C1327 C1331 1.429 . S
C1328 C1311 1.574 . S
C1328 H1322 0.949 . S
C1328 C1332 1.368 . S
C1329 C1310 1.429 . S
C1329 C1323 1.429 . S
C1329 C1330 1.523 . S
C1330 C1311 1.368 . S
C1330 C1324 1.368 . S
C1330 C1329 1.523 . S
C1331 C1315 1.429 . S
C1331 C1327 1.429 . S
C1331 C1332 1.523 . S
C1332 C1316 1.368 . S
C1332 C1328 1.368 . S
C1332 C1331 1.523 . S
H1333 C1308 0.950 . S
H1334 C1310 0.950 . S
H1335 C1311 0.949 . S
H1336 C1313 0.950 . S
H1337 C1315 0.950 . S
C1338 C1339 1.349 . S
C1338 C1340 1.327 . S
C1338 H1363 0.950 . S
C1339 C1338 1.349 . S
C1339 C1355 1.349 . S
C1340 C1338 1.327 . S
C1340 C1359 1.429 . S
C1340 H1364 0.950 . S
C1341 C1358 1.574 . S
C1341 C1360 1.368 . S
C1341 H1365 0.949 . S
H1342 C1346 0.949 . S
C1343 C1344 1.349 . S
C1343 C1345 1.327 . S
C1343 H1366 0.950 . S
C1344 C1343 1.349 . S
C1344 C1356 1.349 . S
C1345 C1343 1.327 . S
C1345 C1361 1.429 . S
C1345 H1367 0.950 . S
C1346 H1342 0.949 . S
C1346 C1354 1.574 . S
C1346 C1362 1.368 . S
H1347 C1355 0.950 . S
H1348 C1353 0.950 . S
H1349 C1354 0.949 . S
H1350 C1356 0.950 . S
H1351 C1357 0.950 . S
H1352 C1358 0.949 . S
C1353 H1348 0.950 . S
C1353 C1355 1.327 . S
C1353 C1359 1.429 . S
C1354 C1346 1.574 . S
C1354 H1349 0.949 . S
C1354 C1360 1.368 . S
C1355 C1339 1.349 . S
C1355 H1347 0.950 . S
C1355 C1353 1.327 . S
C1356 C1344 1.349 . S
C1356 H1350 0.950 . S
C1356 C1357 1.327 . S
C1357 H1351 0.950 . S
C1357 C1356 1.327 . S
C1357 C1361 1.429 . S
C1358 C1341 1.574 . S
C1358 H1352 0.949 . S
C1358 C1362 1.368 . S
C1359 C1340 1.429 . S
C1359 C1353 1.429 . S
C1359 C1360 1.523 . S
C1360 C1341 1.368 . S
C1360 C1354 1.368 . S
C1360 C1359 1.523 . S
C1361 C1345 1.429 . S
C1361 C1357 1.429 . S
C1361 C1362 1.523 . S
C1362 C1346 1.368 . S
C1362 C1358 1.368 . S
C1362 C1361 1.523 . S
H1363 C1338 0.950 . S
H1364 C1340 0.950 . S
H1365 C1341 0.949 . S
H1366 C1343 0.950 . S
H1367 C1345 0.950 . S
C1368 C1369 1.349 . S
C1368 C1370 1.327 . S
C1368 H1393 0.950 . S
C1369 C1368 1.349 . S
C1369 C1385 1.349 . S
C1370 C1368 1.327 . S
C1370 C1389 1.429 . S
C1370 H1394 0.950 . S
C1371 C1388 1.574 . S
C1371 C1390 1.368 . S
C1371 H1395 0.949 . S
H1372 C1376 0.949 . S
C1373 C1374 1.349 . S
C1373 C1375 1.327 . S
C1373 H1396 0.950 . S
C1374 C1373 1.349 . S
C1374 C1386 1.349 . S
C1375 C1373 1.327 . S
C1375 C1391 1.429 . S
C1375 H1397 0.950 . S
C1376 H1372 0.949 . S
C1376 C1384 1.574 . S
C1376 C1392 1.368 . S
H1377 C1385 0.950 . S
H1378 C1383 0.950 . S
H1379 C1384 0.949 . S
H1380 C1386 0.950 . S
H1381 C1387 0.950 . S
H1382 C1388 0.949 . S
C1383 H1378 0.950 . S
C1383 C1385 1.327 . S
C1383 C1389 1.429 . S
C1384 C1376 1.574 . S
C1384 H1379 0.949 . S
C1384 C1390 1.368 . S
C1385 C1369 1.349 . S
C1385 H1377 0.950 . S
C1385 C1383 1.327 . S
C1386 C1374 1.349 . S
C1386 H1380 0.950 . S
C1386 C1387 1.327 . S
C1387 H1381 0.950 . S
C1387 C1386 1.327 . S
C1387 C1391 1.429 . S
C1388 C1371 1.574 . S
C1388 H1382 0.949 . S
C1388 C1392 1.368 . S
C1389 C1370 1.429 . S
C1389 C1383 1.429 . S
C1389 C1390 1.523 . S
C1390 C1371 1.368 . S
C1390 C1384 1.368 . S
C1390 C1389 1.523 . S
C1391 C1375 1.429 . S
C1391 C1387 1.429 . S
C1391 C1392 1.523 . S
C1392 C1376 1.368 . S
C1392 C1388 1.368 . S
C1392 C1391 1.523 . S
H1393 C1368 0.950 . S
H1394 C1370 0.950 . S
H1395 C1371 0.949 . S
H1396 C1373 0.950 . S
H1397 C1375 0.950 . S
C1398 C1399 1.349 . S
C1398 C1400 1.327 . S
C1398 H1423 0.950 . S
C1399 C1398 1.349 . S
C1399 C1415 1.349 . S
C1400 C1398 1.327 . S
C1400 C1419 1.429 . S
C1400 H1424 0.950 . S
C1401 C1418 1.574 . S
C1401 C1420 1.368 . S
C1401 H1425 0.949 . S
H1402 C1406 0.949 . S
C1403 C1404 1.349 . S
C1403 C1405 1.327 . S
C1403 H1426 0.950 . S
C1404 C1403 1.349 . S
C1404 C1416 1.349 1_554 S
C1405 C1403 1.327 . S
C1405 C1421 1.429 . S
C1405 H1427 0.950 . S
C1406 H1402 0.949 . S
C1406 C1414 1.574 . S
C1406 C1422 1.368 . S
H1407 C1415 0.950 . S
H1408 C1413 0.950 . S
H1409 C1414 0.949 . S
H1410 C1416 0.950 . S
H1411 C1417 0.950 . S
H1412 C1418 0.949 . S
C1413 H1408 0.950 . S
C1413 C1415 1.327 . S
C1413 C1419 1.429 . S
C1414 C1406 1.574 . S
C1414 H1409 0.949 . S
C1414 C1420 1.368 . S
C1415 C1399 1.349 . S
C1415 H1407 0.950 . S
C1415 C1413 1.327 . S
C1416 C1404 1.349 1_556 S
C1416 H1410 0.950 . S
C1416 C1417 1.327 1_556 S
C1417 H1411 0.950 . S
C1417 C1416 1.327 1_554 S
C1417 C1421 1.429 . S
C1418 C1401 1.574 . S
C1418 H1412 0.949 . S
C1418 C1422 1.368 . S
C1419 C1400 1.429 . S
C1419 C1413 1.429 . S
C1419 C1420 1.523 . S
C1420 C1401 1.368 . S
C1420 C1414 1.368 . S
C1420 C1419 1.523 . S
C1421 C1405 1.429 . S
C1421 C1417 1.429 . S
C1421 C1422 1.523 . S
C1422 C1406 1.368 . S
C1422 C1418 1.368 . S
C1422 C1421 1.523 . S
H1423 C1398 0.950 . S
H1424 C1400 0.950 . S
H1425 C1401 0.949 . S
H1426 C1403 0.950 . S
H1427 C1405 0.950 . S
C1428 C1429 1.349 . S
C1428 C1430 1.327 . S
C1428 H1453 0.950 . S
C1429 C1428 1.349 . S
C1429 C1445 1.349 . S
C1430 C1428 1.327 . S
C1430 C1449 1.429 . S
C1430 H1454 0.950 . S
C1431 C1448 1.574 . S
C1431 C1450 1.368 . S
C1431 H1455 0.949 . S
H1432 C1436 0.949 . S
C1433 C1434 1.349 . S
C1433 C1435 1.327 . S
C1433 H1456 0.950 . S
C1434 C1433 1.349 . S
C1434 C1446 1.349 1_556 S
C1435 C1433 1.327 . S
C1435 C1451 1.429 . S
C1435 H1457 0.950 . S
C1436 H1432 0.949 . S
C1436 C1444 1.574 . S
C1436 C1452 1.368 . S
H1437 C1445 0.950 . S
H1438 C1443 0.950 . S
H1439 C1444 0.949 . S
H1440 C1446 0.950 . S
H1441 C1447 0.950 . S
H1442 C1448 0.949 . S
C1443 H1438 0.950 . S
C1443 C1445 1.327 . S
C1443 C1449 1.429 . S
C1444 C1436 1.574 . S
C1444 H1439 0.949 . S
C1444 C1450 1.368 . S
C1445 C1429 1.349 . S
C1445 H1437 0.950 . S
C1445 C1443 1.327 . S
C1446 C1434 1.349 1_554 S
C1446 H1440 0.950 . S
C1446 C1447 1.327 1_554 S
C1447 H1441 0.950 . S
C1447 C1446 1.327 1_556 S
C1447 C1451 1.429 . S
C1448 C1431 1.574 . S
C1448 H1442 0.949 . S
C1448 C1452 1.368 . S
C1449 C1430 1.429 . S
C1449 C1443 1.429 . S
C1449 C1450 1.523 . S
C1450 C1431 1.368 . S
C1450 C1444 1.368 . S
C1450 C1449 1.523 . S
C1451 C1435 1.429 . S
C1451 C1447 1.429 . S
C1451 C1452 1.523 . S
C1452 C1436 1.368 . S
C1452 C1448 1.368 . S
C1452 C1451 1.523 . S
H1453 C1428 0.950 . S
H1454 C1430 0.950 . S
H1455 C1431 0.949 . S
H1456 C1433 0.950 . S
H1457 C1435 0.950 . S
C1458 C1459 1.349 . S
C1458 C1460 1.327 . S
C1458 H1483 0.950 . S
C1459 C1458 1.349 . S
C1459 C1475 1.349 . S
C1460 C1458 1.327 . S
C1460 C1479 1.429 . S
C1460 H1484 0.950 . S
C1461 C1478 1.574 . S
C1461 C1480 1.368 . S
C1461 H1485 0.949 . S
H1462 C1466 0.949 . S
C1463 C1464 1.349 . S
C1463 C1465 1.327 . S
C1463 H1486 0.950 . S
C1464 C1463 1.349 . S
C1464 C1476 1.349 . S
C1465 C1463 1.327 . S
C1465 C1481 1.429 . S
C1465 H1487 0.950 . S
C1466 H1462 0.949 . S
C1466 C1474 1.574 . S
C1466 C1482 1.368 . S
H1467 C1475 0.950 . S
H1468 C1473 0.950 . S
H1469 C1474 0.949 . S
H1470 C1476 0.950 . S
H1471 C1477 0.950 . S
H1472 C1478 0.949 . S
C1473 H1468 0.950 . S
C1473 C1475 1.327 . S
C1473 C1479 1.429 . S
C1474 C1466 1.574 . S
C1474 H1469 0.949 . S
C1474 C1480 1.368 . S
C1475 C1459 1.349 . S
C1475 H1467 0.950 . S
C1475 C1473 1.327 . S
C1476 C1464 1.349 . S
C1476 H1470 0.950 . S
C1476 C1477 1.327 . S
C1477 H1471 0.950 . S
C1477 C1476 1.327 . S
C1477 C1481 1.429 . S
C1478 C1461 1.574 . S
C1478 H1472 0.949 . S
C1478 C1482 1.368 . S
C1479 C1460 1.429 . S
C1479 C1473 1.429 . S
C1479 C1480 1.523 . S
C1480 C1461 1.368 . S
C1480 C1474 1.368 . S
C1480 C1479 1.523 . S
C1481 C1465 1.429 . S
C1481 C1477 1.429 . S
C1481 C1482 1.523 . S
C1482 C1466 1.368 . S
C1482 C1478 1.368 . S
C1482 C1481 1.523 . S
H1483 C1458 0.950 . S
H1484 C1460 0.950 . S
H1485 C1461 0.949 . S
H1486 C1463 0.950 . S
H1487 C1465 0.950 . S
C1488 C1489 1.349 1_554 S
C1488 C1490 1.327 . S
C1488 H1513 0.950 . S
C1489 C1488 1.349 1_556 S
C1489 C1505 1.349 . S
C1490 C1488 1.327 . S
C1490 C1509 1.429 . S
C1490 H1514 0.950 . S
C1491 C1508 1.574 . S
C1491 C1510 1.368 . S
C1491 H1515 0.949 . S
H1492 C1496 0.949 . S
C1493 C1494 1.349 . S
C1493 C1495 1.327 . S
C1493 H1516 0.950 . S
C1494 C1493 1.349 . S
C1494 C1506 1.349 . S
C1495 C1493 1.327 . S
C1495 C1511 1.429 . S
C1495 H1517 0.950 . S
C1496 H1492 0.949 . S
C1496 C1504 1.574 . S
C1496 C1512 1.368 . S
H1497 C1505 0.950 . S
H1498 C1503 0.950 . S
H1499 C1504 0.949 . S
H1500 C1506 0.950 . S
H1501 C1507 0.950 . S
H1502 C1508 0.949 . S
C1503 H1498 0.950 . S
C1503 C1505 1.327 1_554 S
C1503 C1509 1.429 . S
C1504 C1496 1.574 . S
C1504 H1499 0.949 . S
C1504 C1510 1.368 . S
C1505 C1489 1.349 . S
C1505 H1497 0.950 . S
C1505 C1503 1.327 1_556 S
C1506 C1494 1.349 . S
C1506 H1500 0.950 . S
C1506 C1507 1.327 . S
C1507 H1501 0.950 . S
C1507 C1506 1.327 . S
C1507 C1511 1.429 . S
C1508 C1491 1.574 . S
C1508 H1502 0.949 . S
C1508 C1512 1.368 . S
C1509 C1490 1.429 . S
C1509 C1503 1.429 . S
C1509 C1510 1.523 . S
C1510 C1491 1.368 . S
C1510 C1504 1.368 . S
C1510 C1509 1.523 . S
C1511 C1495 1.429 . S
C1511 C1507 1.429 . S
C1511 C1512 1.523 . S
C1512 C1496 1.368 . S
C1512 C1508 1.368 . S
C1512 C1511 1.523 . S
H1513 C1488 0.950 . S
H1514 C1490 0.950 . S
H1515 C1491 0.949 . S
H1516 C1493 0.950 . S
H1517 C1495 0.950 . S
C1518 C1519 1.349 . S
C1518 C1520 1.327 . S
C1518 H1543 0.950 . S
C1519 C1518 1.349 . S
C1519 C1535 1.349 . S
C1520 C1518 1.327 . S
C1520 C1539 1.429 . S
C1520 H1544 0.950 . S
C1521 C1538 1.574 . S
C1521 C1540 1.368 . S
C1521 H1545 0.949 . S
H1522 C1526 0.949 . S
C1523 C1524 1.349 . S
C1523 C1525 1.327 . S
C1523 H1546 0.950 . S
C1524 C1523 1.349 . S
C1524 C1536 1.349 . S
C1525 C1523 1.327 . S
C1525 C1541 1.429 . S
C1525 H1547 0.950 . S
C1526 H1522 0.949 . S
C1526 C1534 1.574 . S
C1526 C1542 1.368 . S
H1527 C1535 0.950 . S
H1528 C1533 0.950 . S
H1529 C1534 0.949 . S
H1530 C1536 0.950 . S
H1531 C1537 0.950 . S
H1532 C1538 0.949 . S
C1533 H1528 0.950 . S
C1533 C1535 1.327 . S
C1533 C1539 1.429 . S
C1534 C1526 1.574 . S
C1534 H1529 0.949 . S
C1534 C1540 1.368 . S
C1535 C1519 1.349 . S
C1535 H1527 0.950 . S
C1535 C1533 1.327 . S
C1536 C1524 1.349 . S
C1536 H1530 0.950 . S
C1536 C1537 1.327 . S
C1537 H1531 0.950 . S
C1537 C1536 1.327 . S
C1537 C1541 1.429 . S
C1538 C1521 1.574 . S
C1538 H1532 0.949 . S
C1538 C1542 1.368 . S
C1539 C1520 1.429 . S
C1539 C1533 1.429 . S
C1539 C1540 1.523 . S
C1540 C1521 1.368 . S
C1540 C1534 1.368 . S
C1540 C1539 1.523 . S
C1541 C1525 1.429 . S
C1541 C1537 1.429 . S
C1541 C1542 1.523 . S
C1542 C1526 1.368 . S
C1542 C1538 1.368 . S
C1542 C1541 1.523 . S
H1543 C1518 0.950 . S
H1544 C1520 0.950 . S
H1545 C1521 0.949 . S
H1546 C1523 0.950 . S
H1547 C1525 0.950 . S
C1548 C1549 1.349 . S
C1548 C1550 1.327 . S
C1548 H1573 0.950 . S
C1549 C1548 1.349 . S
C1549 C1565 1.349 . S
C1550 C1548 1.327 . S
C1550 C1569 1.429 . S
C1550 H1574 0.950 . S
C1551 C1568 1.574 . S
C1551 C1570 1.368 . S
C1551 H1575 0.949 . S
H1552 C1556 0.949 . S
C1553 C1554 1.349 . S
C1553 C1555 1.327 . S
C1553 H1576 0.950 . S
C1554 C1553 1.349 . S
C1554 C1566 1.349 . S
C1555 C1553 1.327 . S
C1555 C1571 1.429 . S
C1555 H1577 0.950 . S
C1556 H1552 0.949 . S
C1556 C1564 1.574 . S
C1556 C1572 1.368 . S
H1557 C1565 0.950 . S
H1558 C1563 0.950 . S
H1559 C1564 0.949 . S
H1560 C1566 0.950 . S
H1561 C1567 0.950 . S
H1562 C1568 0.949 . S
C1563 H1558 0.950 . S
C1563 C1565 1.327 . S
C1563 C1569 1.429 . S
C1564 C1556 1.574 . S
C1564 H1559 0.949 . S
C1564 C1570 1.368 . S
C1565 C1549 1.349 . S
C1565 H1557 0.950 . S
C1565 C1563 1.327 . S
C1566 C1554 1.349 . S
C1566 H1560 0.950 . S
C1566 C1567 1.327 . S
C1567 H1561 0.950 . S
C1567 C1566 1.327 . S
C1567 C1571 1.429 . S
C1568 C1551 1.574 . S
C1568 H1562 0.949 . S
C1568 C1572 1.368 . S
C1569 C1550 1.429 . S
C1569 C1563 1.429 . S
C1569 C1570 1.523 . S
C1570 C1551 1.368 . S
C1570 C1564 1.368 . S
C1570 C1569 1.523 . S
C1571 C1555 1.429 . S
C1571 C1567 1.429 . S
C1571 C1572 1.523 . S
C1572 C1556 1.368 . S
C1572 C1568 1.368 . S
C1572 C1571 1.523 . S
H1573 C1548 0.950 . S
H1574 C1550 0.950 . S
H1575 C1551 0.949 . S
H1576 C1553 0.950 . S
H1577 C1555 0.950 . S
C1578 C1579 1.349 1_556 S
C1578 C1580 1.327 . S
C1578 H1603 0.950 . S
C1579 C1578 1.349 1_554 S
C1579 C1595 1.349 . S
C1580 C1578 1.327 . S
C1580 C1599 1.429 . S
C1580 H1604 0.950 . S
C1581 C1598 1.574 . S
C1581 C1600 1.368 . S
C1581 H1605 0.949 . S
H1582 C1586 0.949 . S
C1583 C1584 1.349 . S
C1583 C1585 1.327 . S
C1583 H1606 0.950 . S
C1584 C1583 1.349 . S
C1584 C1596 1.349 . S
C1585 C1583 1.327 . S
C1585 C1601 1.429 . S
C1585 H1607 0.950 . S
C1586 H1582 0.949 . S
C1586 C1594 1.574 . S
C1586 C1602 1.368 . S
H1587 C1595 0.950 . S
H1588 C1593 0.950 . S
H1589 C1594 0.949 . S
H1590 C1596 0.950 . S
H1591 C1597 0.950 . S
H1592 C1598 0.949 . S
C1593 H1588 0.950 . S
C1593 C1595 1.327 1_556 S
C1593 C1599 1.429 . S
C1594 C1586 1.574 . S
C1594 H1589 0.949 . S
C1594 C1600 1.368 . S
C1595 C1579 1.349 . S
C1595 H1587 0.950 . S
C1595 C1593 1.327 1_554 S
C1596 C1584 1.349 . S
C1596 H1590 0.950 . S
C1596 C1597 1.327 . S
C1597 H1591 0.950 . S
C1597 C1596 1.327 . S
C1597 C1601 1.429 . S
C1598 C1581 1.574 . S
C1598 H1592 0.949 . S
C1598 C1602 1.368 . S
C1599 C1580 1.429 . S
C1599 C1593 1.429 . S
C1599 C1600 1.523 . S
C1600 C1581 1.368 . S
C1600 C1594 1.368 . S
C1600 C1599 1.523 . S
C1601 C1585 1.429 . S
C1601 C1597 1.429 . S
C1601 C1602 1.523 . S
C1602 C1586 1.368 . S
C1602 C1598 1.368 . S
C1602 C1601 1.523 . S
H1603 C1578 0.950 . S
H1604 C1580 0.950 . S
H1605 C1581 0.949 . S
H1606 C1583 0.950 . S
H1607 C1585 0.950 . S
C1608 C1609 1.349 . S
C1608 C1610 1.327 . S
C1608 H1633 0.950 . S
C1609 C1608 1.349 . S
C1609 C1625 1.349 . S
C1610 C1608 1.327 . S
C1610 C1629 1.429 . S
C1610 H1634 0.950 . S
C1611 C1628 1.574 . S
C1611 C1630 1.368 . S
C1611 H1635 0.949 . S
H1612 C1616 0.949 . S
C1613 C1614 1.349 . S
C1613 C1615 1.327 . S
C1613 H1636 0.950 . S
C1614 C1613 1.349 . S
C1614 C1626 1.349 . S
C1615 C1613 1.327 . S
C1615 C1631 1.429 . S
C1615 H1637 0.950 . S
C1616 H1612 0.949 . S
C1616 C1624 1.574 . S
C1616 C1632 1.368 . S
H1617 C1625 0.950 . S
H1618 C1623 0.950 . S
H1619 C1624 0.949 . S
H1620 C1626 0.950 1_554 S
H1621 C1627 0.950 . S
H1622 C1628 0.949 . S
C1623 H1618 0.950 . S
C1623 C1625 1.327 . S
C1623 C1629 1.429 . S
C1624 C1616 1.574 . S
C1624 H1619 0.949 . S
C1624 C1630 1.368 . S
C1625 C1609 1.349 . S
C1625 H1617 0.950 . S
C1625 C1623 1.327 . S
C1626 C1614 1.349 . S
C1626 H1620 0.950 1_556 S
C1626 C1627 1.327 . S
C1627 H1621 0.950 . S
C1627 C1626 1.327 . S
C1627 C1631 1.429 . S
C1628 C1611 1.574 . S
C1628 H1622 0.949 . S
C1628 C1632 1.368 . S
C1629 C1610 1.429 . S
C1629 C1623 1.429 . S
C1629 C1630 1.523 . S
C1630 C1611 1.368 . S
C1630 C1624 1.368 . S
C1630 C1629 1.523 . S
C1631 C1615 1.429 . S
C1631 C1627 1.429 . S
C1631 C1632 1.523 . S
C1632 C1616 1.368 . S
C1632 C1628 1.368 . S
C1632 C1631 1.523 . S
H1633 C1608 0.950 . S
H1634 C1610 0.950 . S
H1635 C1611 0.949 . S
H1636 C1613 0.950 . S
H1637 C1615 0.950 . S
C1638 C1639 1.349 . S
C1638 C1640 1.327 . S
C1638 H1663 0.950 . S
C1639 C1638 1.349 . S
C1639 C1655 1.349 . S
C1640 C1638 1.327 . S
C1640 C1659 1.429 . S
C1640 H1664 0.950 . S
C1641 C1658 1.574 . S
C1641 C1660 1.368 . S
C1641 H1665 0.949 . S
H1642 C1646 0.949 . S
C1643 C1644 1.349 . S
C1643 C1645 1.327 . S
C1643 H1666 0.950 . S
C1644 C1643 1.349 . S
C1644 C1656 1.349 . S
C1645 C1643 1.327 . S
C1645 C1661 1.429 . S
C1645 H1667 0.950 . S
C1646 H1642 0.949 . S
C1646 C1654 1.574 . S
C1646 C1662 1.368 . S
H1647 C1655 0.950 . S
H1648 C1653 0.950 . S
H1649 C1654 0.949 . S
H1650 C1656 0.950 . S
H1651 C1657 0.950 . S
H1652 C1658 0.949 . S
C1653 H1648 0.950 . S
C1653 C1655 1.327 . S
C1653 C1659 1.429 . S
C1654 C1646 1.574 . S
C1654 H1649 0.949 . S
C1654 C1660 1.368 . S
C1655 C1639 1.349 . S
C1655 H1647 0.950 . S
C1655 C1653 1.327 . S
C1656 C1644 1.349 . S
C1656 H1650 0.950 . S
C1656 C1657 1.327 . S
C1657 H1651 0.950 . S
C1657 C1656 1.327 . S
C1657 C1661 1.429 . S
C1658 C1641 1.574 . S
C1658 H1652 0.949 . S
C1658 C1662 1.368 . S
C1659 C1640 1.429 . S
C1659 C1653 1.429 . S
C1659 C1660 1.523 . S
C1660 C1641 1.368 . S
C1660 C1654 1.368 . S
C1660 C1659 1.523 . S
C1661 C1645 1.429 . S
C1661 C1657 1.429 . S
C1661 C1662 1.523 . S
C1662 C1646 1.368 . S
C1662 C1658 1.368 . S
C1662 C1661 1.523 . S
H1663 C1638 0.950 . S
H1664 C1640 0.950 . S
H1665 C1641 0.949 . S
H1666 C1643 0.950 . S
H1667 C1645 0.950 . S
C1668 C1669 1.349 . S
C1668 C1670 1.327 . S
C1668 H1693 0.950 . S
C1669 C1668 1.349 . S
C1669 C1685 1.349 . S
C1670 C1668 1.327 . S
C1670 C1689 1.429 . S
C1670 H1694 0.950 . S
C1671 C1688 1.574 . S
C1671 C1690 1.368 . S
C1671 H1695 0.949 . S
H1672 C1676 0.949 . S
C1673 C1674 1.349 . S
C1673 C1675 1.327 . S
C1673 H1696 0.950 . S
C1674 C1673 1.349 . S
C1674 C1686 1.349 . S
C1675 C1673 1.327 . S
C1675 C1691 1.429 . S
C1675 H1697 0.950 . S
C1676 H1672 0.949 . S
C1676 C1684 1.574 . S
C1676 C1692 1.368 . S
H1677 C1685 0.950 . S
H1678 C1683 0.950 . S
H1679 C1684 0.949 . S
H1680 C1686 0.950 . S
H1681 C1687 0.950 . S
H1682 C1688 0.949 . S
C1683 H1678 0.950 . S
C1683 C1685 1.327 . S
C1683 C1689 1.429 . S
C1684 C1676 1.574 . S
C1684 H1679 0.949 . S
C1684 C1690 1.368 . S
C1685 C1669 1.349 . S
C1685 H1677 0.950 . S
C1685 C1683 1.327 . S
C1686 C1674 1.349 . S
C1686 H1680 0.950 . S
C1686 C1687 1.327 . S
C1687 H1681 0.950 . S
C1687 C1686 1.327 . S
C1687 C1691 1.429 . S
C1688 C1671 1.574 . S
C1688 H1682 0.949 . S
C1688 C1692 1.368 . S
C1689 C1670 1.429 . S
C1689 C1683 1.429 . S
C1689 C1690 1.523 . S
C1690 C1671 1.368 . S
C1690 C1684 1.368 . S
C1690 C1689 1.523 . S
C1691 C1675 1.429 . S
C1691 C1687 1.429 . S
C1691 C1692 1.523 . S
C1692 C1676 1.368 . S
C1692 C1688 1.368 . S
C1692 C1691 1.523 . S
H1693 C1668 0.950 . S
H1694 C1670 0.950 . S
H1695 C1671 0.949 . S
H1696 C1673 0.950 . S
H1697 C1675 0.950 . S
C1698 C1699 1.349 . S
C1698 C1700 1.327 . S
C1698 H1723 0.950 . S
C1699 C1698 1.349 . S
C1699 C1715 1.349 . S
C1700 C1698 1.327 . S
C1700 C1719 1.429 . S
C1700 H1724 0.950 . S
C1701 C1718 1.574 . S
C1701 C1720 1.368 . S
C1701 H1725 0.949 . S
H1702 C1706 0.949 . S
C1703 C1704 1.349 1_556 S
C1703 C1705 1.327 1_556 S
C1703 H1726 0.950 . S
C1704 C1703 1.349 1_554 S
C1704 C1716 1.349 . S
C1705 C1703 1.327 1_554 S
C1705 C1721 1.429 . S
C1705 H1727 0.950 . S
C1706 H1702 0.949 . S
C1706 C1714 1.574 . S
C1706 C1722 1.368 . S
H1707 C1715 0.950 . S
H1708 C1713 0.950 . S
H1709 C1714 0.949 . S
H1710 C1716 0.950 . S
H1711 C1717 0.950 . S
H1712 C1718 0.949 . S
C1713 H1708 0.950 . S
C1713 C1715 1.327 . S
C1713 C1719 1.429 . S
C1714 C1706 1.574 . S
C1714 H1709 0.949 . S
C1714 C1720 1.368 . S
C1715 C1699 1.349 . S
C1715 H1707 0.950 . S
C1715 C1713 1.327 . S
C1716 C1704 1.349 . S
C1716 H1710 0.950 . S
C1716 C1717 1.327 . S
C1717 H1711 0.950 . S
C1717 C1716 1.327 . S
C1717 C1721 1.429 . S
C1718 C1701 1.574 . S
C1718 H1712 0.949 . S
C1718 C1722 1.368 . S
C1719 C1700 1.429 . S
C1719 C1713 1.429 . S
C1719 C1720 1.523 . S
C1720 C1701 1.368 . S
C1720 C1714 1.368 . S
C1720 C1719 1.523 . S
C1721 C1705 1.429 . S
C1721 C1717 1.429 . S
C1721 C1722 1.523 . S
C1722 C1706 1.368 . S
C1722 C1718 1.368 . S
C1722 C1721 1.523 . S
H1723 C1698 0.950 . S
H1724 C1700 0.950 . S
H1725 C1701 0.949 . S
H1726 C1703 0.950 . S
H1727 C1705 0.950 . S
C529 C21 0.991 . S
C534 C153 0.991 . S
C559 C186 0.990 . S
C564 C54 0.990 . S
C589 C219 0.991 . S
C594 C87 0.991 . S
C619 C120 0.990 . S
C624 C252 0.990 . S
C649 C285 0.990 . S
C654 C351 0.990 . S
C679 C384 0.990 . S
C684 C318 0.990 . S
C709 C417 0.991 . S
C714 C483 0.991 . S
C739 C450 0.991 . S
C744 C516 0.991 . S
C769 N13 1.136 . S
C774 N178 1.136 1_554 S
C799 N211 1.136 . S
C804 N46 1.136 . S
C829 N244 1.136 . S
C834 N79 1.136 . S
C859 N112 1.136 1_556 S
C864 N145 1.136 . S
C889 C150 1.943 . S
C894 C348 1.943 . S
C919 C84 1.943 . S
C924 C282 1.943 . S
C949 C216 1.943 . S
C954 C381 1.943 . S
C979 C18 1.943 . S
C984 C315 1.943 . S
C1009 N409 1.136 . S
C1014 N277 1.136 . S
C1039 N343 1.136 1_556 S
C1044 N508 1.136 . S
C1069 N310 1.136 1_554 S
C1074 N442 1.136 . S
C1099 N376 1.136 . S
C1104 N475 1.136 . S
C1129 C480 1.943 . S
C1134 C51 1.943 . S
C1159 C183 1.943 . S
C1164 C447 1.943 . S
C1189 C117 1.943 . S
C1194 C513 1.943 . S
C1219 C414 1.943 . S
C1224 C249 1.943 . S
C1249 C172 1.546 . S
C1254 C7 1.546 . S
C1279 C205 1.547 . S
C1284 C40 1.547 . S
C1309 C73 1.547 . S
C1314 C238 1.547 . S
C1339 C106 1.546 . S
C1344 C139 1.546 . S
C1369 N134 0.618 . S
C1374 N332 0.618 . S
C1399 N266 0.617 . S
C1404 N68 0.617 1_554 S
C1429 N365 0.617 . S
C1434 N200 0.617 1_556 S
C1459 N2 0.618 . S
C1464 N299 0.618 . S
C1489 C403 1.546 . S
C1494 C271 1.546 . S
C1519 C337 1.547 . S
C1524 C502 1.547 . S
C1549 C436 1.547 . S
C1554 C304 1.547 . S
C1579 C469 1.546 . S
C1584 C370 1.546 . S
C1609 N35 0.618 . S
C1614 N464 0.618 1_556 S
C1639 N167 0.617 . S
C1644 N431 0.617 . S
C1669 N497 0.617 . S
C1674 N101 0.617 . S
C1699 N233 0.618 . S
C1704 N398 0.618 1_554 S
