# Generated by pormake.
# Topology fnr, (5)-cn, num edge types: 1
# Building blocks:
#     Node 0, Type 0, BuildingBlock: XOMCOT_clean_sbu_0, # of connection points: 5
#     Node 1, Type 0, BuildingBlock: XOMCOT_clean_sbu_0, # of connection points: 5
#     Node 2, Type 0, BuildingBlock: XOMCOT_clean_sbu_0, # of connection points: 5
#     Node 3, Type 0, BuildingBlock: XOMCOT_clean_sbu_0, # of connection points: 5
#     Node 4, Type 0, BuildingBlock: XOMCOT_clean_sbu_0, # of connection points: 5
#     Node 5, Type 0, BuildingBlock: XOMCOT_clean_sbu_0, # of connection points: 5
#     Node 6, Type 0, BuildingBlock: XOMCOT_clean_sbu_0, # of connection points: 5
#     Node 7, Type 0, BuildingBlock: XOMCOT_clean_sbu_0, # of connection points: 5
#     Node 8, Type 0, BuildingBlock: XOMCOT_clean_sbu_0, # of connection points: 5
#     Node 9, Type 0, BuildingBlock: XOMCOT_clean_sbu_0, # of connection points: 5
#     Node 10, Type 0, BuildingBlock: XOMCOT_clean_sbu_0, # of connection points: 5
#     Node 11, Type 0, BuildingBlock: XOMCOT_clean_sbu_0, # of connection points: 5
#     Edge 12, Type (0, 0), BuildingBlock: KIFKEQ_clean_linker_1, # of connection points: 2
#     Edge 13, Type (0, 0), BuildingBlock: KIFKEQ_clean_linker_1, # of connection points: 2
#     Edge 14, Type (0, 0), BuildingBlock: KIFKEQ_clean_linker_1, # of connection points: 2
#     Edge 15, Type (0, 0), BuildingBlock: KIFKEQ_clean_linker_1, # of connection points: 2
#     Edge 16, Type (0, 0), BuildingBlock: KIFKEQ_clean_linker_1, # of connection points: 2
#     Edge 17, Type (0, 0), BuildingBlock: KIFKEQ_clean_linker_1, # of connection points: 2
#     Edge 18, Type (0, 0), BuildingBlock: KIFKEQ_clean_linker_1, # of connection points: 2
#     Edge 19, Type (0, 0), BuildingBlock: KIFKEQ_clean_linker_1, # of connection points: 2
#     Edge 20, Type (0, 0), BuildingBlock: KIFKEQ_clean_linker_1, # of connection points: 2
#     Edge 21, Type (0, 0), BuildingBlock: KIFKEQ_clean_linker_1, # of connection points: 2
#     Edge 22, Type (0, 0), BuildingBlock: KIFKEQ_clean_linker_1, # of connection points: 2
#     Edge 23, Type (0, 0), BuildingBlock: KIFKEQ_clean_linker_1, # of connection points: 2
#     Edge 24, Type (0, 0), BuildingBlock: KIFKEQ_clean_linker_1, # of connection points: 2
#     Edge 25, Type (0, 0), BuildingBlock: KIFKEQ_clean_linker_1, # of connection points: 2
#     Edge 26, Type (0, 0), BuildingBlock: KIFKEQ_clean_linker_1, # of connection points: 2
#     Edge 27, Type (0, 0), BuildingBlock: KIFKEQ_clean_linker_1, # of connection points: 2
#     Edge 28, Type (0, 0), BuildingBlock: KIFKEQ_clean_linker_1, # of connection points: 2
#     Edge 29, Type (0, 0), BuildingBlock: KIFKEQ_clean_linker_1, # of connection points: 2
#     Edge 30, Type (0, 0), BuildingBlock: KIFKEQ_clean_linker_1, # of connection points: 2
#     Edge 31, Type (0, 0), BuildingBlock: KIFKEQ_clean_linker_1, # of connection points: 2
#     Edge 32, Type (0, 0), BuildingBlock: KIFKEQ_clean_linker_1, # of connection points: 2
#     Edge 33, Type (0, 0), BuildingBlock: KIFKEQ_clean_linker_1, # of connection points: 2
#     Edge 34, Type (0, 0), BuildingBlock: KIFKEQ_clean_linker_1, # of connection points: 2
#     Edge 35, Type (0, 0), BuildingBlock: KIFKEQ_clean_linker_1, # of connection points: 2
#     Edge 36, Type (0, 0), BuildingBlock: KIFKEQ_clean_linker_1, # of connection points: 2
#     Edge 37, Type (0, 0), BuildingBlock: KIFKEQ_clean_linker_1, # of connection points: 2
#     Edge 38, Type (0, 0), BuildingBlock: KIFKEQ_clean_linker_1, # of connection points: 2
#     Edge 39, Type (0, 0), BuildingBlock: KIFKEQ_clean_linker_1, # of connection points: 2
#     Edge 40, Type (0, 0), BuildingBlock: KIFKEQ_clean_linker_1, # of connection points: 2
#     Edge 41, Type (0, 0), BuildingBlock: KIFKEQ_clean_linker_1, # of connection points: 2
# Relax obj value: 0.290
# Max RMSD: 0.219
# Mean RMSD: 0.219
data_MOF--net-fnr--node1-XOMCOT_clean_sbu_0--edge1-KIFKEQ_clean_linker_1
_symmetry_space_group_name_H-M    P1
_symmetry_Int_Tables_number       1
_symmetry_cell_setting            triclinic
loop_
_symmetry_equiv_pos_as_xyz
'x, y, z'
_cell_length_a     41.142192
_cell_length_b     41.064185
_cell_length_c     53.160834
_cell_angle_alpha  89.98903
_cell_angle_beta   90.053508
_cell_angle_gamma 119.83077
loop_
_atom_site_label
_atom_site_type_symbol
_atom_site_fract_x
_atom_site_fract_y
_atom_site_fract_z
_atom_type_partial_charge
Co0 Co 0.40599 0.19738 0.09144 0.0
C1 C 0.35224 0.2188 0.0676 0.0
C2 C 0.38675 0.25645 0.09655 0.0
C3 C 0.36594 0.27054 0.08616 0.0
N4 N 0.37826 0.22379 0.08528 0.0
N5 N 0.34398 0.24708 0.0679 0.0
H6 H 0.34039 0.19569 0.05442 0.0
H7 H 0.40836 0.27071 0.11043 0.0
C8 C 0.48666 0.25829 0.09852 0.0
O9 O 0.49148 0.23641 0.11427 0.0
N10 N 0.43453 0.1719 0.09691 0.0
C11 C 0.43538 0.15239 0.11709 0.0
C12 C 0.46466 0.14538 0.11422 0.0
C13 C 0.46208 0.17487 0.08161 0.0
N14 N 0.48155 0.15988 0.09202 0.0
C15 C 0.37122 0.17192 0.13982 0.0
C16 C 0.4231 0.23089 0.16851 0.0
C17 C 0.39471 0.19939 0.18081 0.0
C18 C 0.36793 0.17012 0.16601 0.0
C19 C 0.42531 0.23163 0.14228 0.0
N20 N 0.40073 0.20155 0.12806 0.0
H21 H 0.35048 0.14837 0.12924 0.0
H22 H 0.44679 0.25696 0.13394 0.0
H23 H 0.4177 0.1455 0.13346 0.0
H24 H 0.47024 0.19126 0.06447 0.0
O25 O 0.36198 0.14908 0.08631 0.0
O26 O 0.4016 0.18231 0.05622 0.0
O27 O 0.45426 0.24769 0.08896 0.0
C28 C 0.37272 0.15069 0.06322 0.0
H29 H 0.36865 0.29739 0.0909 0.0
H30 H 0.47402 0.13237 0.12797 0.0
H31 H 0.44418 0.25461 0.17903 0.0
H32 H 0.34471 0.14569 0.17456 0.0
Co33 Co 0.22173 0.40812 0.56731 0.0
C34 C 0.14282 0.35243 0.55195 0.0
C35 C 0.16514 0.40633 0.53408 0.0
C36 C 0.12913 0.38404 0.52582 0.0
N37 N 0.17369 0.3869 0.55067 0.0
N38 N 0.11517 0.35036 0.537 0.0
H39 H 0.14062 0.32962 0.5634 0.0
H40 H 0.18407 0.43474 0.52802 0.0
C41 C 0.23773 0.48475 0.58363 0.0
O42 O 0.25277 0.48086 0.60441 0.0
N43 N 0.27135 0.43166 0.58258 0.0
C44 C 0.28412 0.42558 0.60452 0.0
C45 C 0.31997 0.45483 0.60864 0.0
C46 C 0.30033 0.46343 0.57326 0.0
N47 N 0.3299 0.47852 0.58896 0.0
C48 C 0.19821 0.36655 0.61327 0.0
C49 C 0.16917 0.40712 0.63579 0.0
C50 C 0.17685 0.38352 0.65069 0.0
C51 C 0.18918 0.36126 0.63874 0.0
C52 C 0.17855 0.41139 0.61018 0.0
N53 N 0.19676 0.39429 0.60004 0.0
H54 H 0.20977 0.35059 0.60493 0.0
H55 H 0.17268 0.42978 0.59897 0.0
H56 H 0.26865 0.40304 0.61754 0.0
H57 H 0.29831 0.47736 0.55652 0.0
O58 O 0.22439 0.36345 0.56122 0.0
O59 O 0.24568 0.41177 0.53513 0.0
O60 O 0.22384 0.45836 0.56733 0.0
C61 C 0.24209 0.37919 0.5406 0.0
H62 H 0.11447 0.39159 0.51215 0.0
H63 H 0.33663 0.45948 0.62544 0.0
H64 H 0.15809 0.4237 0.64404 0.0
H65 H 0.19373 0.34129 0.64928 0.0
Co66 Co 0.81367 0.22494 0.0568 0.0
C67 C 0.78756 0.14452 0.04002 0.0
C68 C 0.78925 0.18186 0.01112 0.0
C69 C 0.77449 0.14675 1.001 0.0
N70 N 0.79728 0.18082 0.03562 0.0
N71 N 0.77316 0.12326 0.01911 0.0
H72 H 0.78834 0.13312 0.05815 0.0
H73 H 0.79219 0.20636 1.00147 0.0
C74 C 0.73182 0.19288 0.0501 0.0
O75 O 0.72923 0.1601 0.05385 0.0
N76 N 0.8302 0.27016 0.07612 0.0
C77 C 0.85654 0.28429 0.09429 0.0
C78 C 0.86359 0.32002 0.10007 0.0
C79 C 0.82139 0.29699 0.07121 0.0
N80 N 0.84128 0.32765 0.08557 0.0
C81 C 0.81357 0.1796 0.09767 0.0
C82 C 0.77058 0.19704 0.12879 0.0
C83 C 0.79153 0.18217 0.13934 0.0
C84 C 0.81181 0.17169 0.1234 0.0
C85 C 0.77269 0.20402 0.10304 0.0
N86 N 0.79494 0.19647 0.08782 0.0
H87 H 0.83268 0.17527 0.08612 0.0
H88 H 0.75986 0.21965 0.09612 0.0
H89 H 0.87065 0.27026 0.10203 0.0
H90 H 0.80247 0.29506 0.05638 0.0
O91 O 0.86337 0.2317 0.0579 0.0
O92 O 0.84334 0.25612 0.02874 0.0
O93 O 0.76395 0.22282 0.05041 0.0
C94 C 0.8706 0.25211 0.03785 0.0
H95 H 0.76438 0.13874 0.98192 0.0
H96 H 0.88406 0.33921 0.11341 0.0
H97 H 0.75476 0.20566 0.14062 0.0
H98 H 0.82869 0.16052 0.13101 0.0
Co99 Co 0.59291 0.81593 0.55855 0.0
C100 C 0.64958 0.79219 0.54484 0.0
C101 C 0.59705 0.76266 0.52519 0.0
C102 C 0.61914 0.74813 0.51777 0.0
N103 N 0.6157 0.78992 0.54232 0.0
N104 N 0.65201 0.76656 0.53003 0.0
H105 H 0.67151 0.81152 0.55733 0.0
H106 H 0.56901 0.75379 0.51854 0.0
C107 C 0.52208 0.75289 0.57888 0.0
O108 O 0.52863 0.77323 0.59934 0.0
N109 N 0.56723 0.84084 0.57308 0.0
C110 C 0.57925 0.87132 0.58803 0.0
C111 C 0.54986 0.87796 0.59223 0.0
C112 C 0.53145 0.83102 0.56739 0.0
N113 N 0.51966 0.85219 0.57943 0.0
C114 C 0.63146 0.83778 0.60551 0.0
C115 C 0.6023 0.76711 0.62625 0.0
C116 C 0.62065 0.79872 0.64192 0.0
C117 C 0.63749 0.8343 0.63083 0.0
C118 C 0.59736 0.77205 0.60069 0.0
N119 N 0.60822 0.80711 0.59148 0.0
H120 H 0.64468 0.86548 0.59748 0.0
H121 H 0.58279 0.74761 0.58879 0.0
H122 H 0.60726 0.88836 0.59518 0.0
H123 H 0.51416 0.80847 0.5546 0.0
O124 O 0.63651 0.8634 0.55236 0.0
O125 O 0.58886 0.83579 0.52592 0.0
O126 O 0.54409 0.7662 0.55994 0.0
C127 C 0.62122 0.86503 0.5315 0.0
H128 H 0.61183 0.72588 0.50419 0.0
H129 H 0.55055 0.89962 0.60419 0.0
H130 H 0.59019 0.73898 0.63383 0.0
H131 H 0.65414 0.85944 0.64186 0.0
Co132 Co 0.79626 0.61051 0.06921 0.0
C133 C 0.87404 0.67337 0.05357 0.0
C134 C 0.84028 0.63701 0.02381 0.0
C135 C 0.8735 0.66363 0.01372 0.0
N136 N 0.83995 0.64306 0.04875 0.0
N137 N 0.89478 0.6865 0.03231 0.0
H138 H 0.88409 0.6852 0.07198 0.0
H139 H 0.81801 0.61401 0.01354 0.0
C140 C 0.83841 0.56971 0.06541 0.0
O141 O 0.86839 0.60177 0.07095 0.0
N142 N 0.75176 0.5769 0.08768 0.0
C143 C 0.73596 0.58448 0.10733 0.0
C144 C 0.70278 0.55237 0.11313 0.0
C145 C 0.72822 0.54079 0.08169 0.0
N146 N 0.69808 0.52499 0.09696 0.0
C147 C 0.83664 0.65925 0.11041 0.0
C148 C 0.82982 0.60241 0.14176 0.0
C149 C 0.84188 0.63799 0.15184 0.0
C150 C 0.84628 0.66698 0.13586 0.0
C151 C 0.82066 0.5959 0.11634 0.0
N152 N 0.82383 0.62401 0.10088 0.0
H153 H 0.83698 0.68098 0.09876 0.0
H154 H 0.80754 0.56726 0.10981 0.0
H155 H 0.74752 0.61147 0.11655 0.0
H156 H 0.73257 0.52677 0.0659 0.0
O157 O 0.78104 0.64794 0.06932 0.0
O158 O 0.76478 0.60365 0.04035 0.0
O159 O 0.80662 0.56797 0.06337 0.0
C160 C 0.76281 0.63242 0.04876 0.0
H161 H 0.88207 0.6651 0.9943 0.0
H162 H 0.68371 0.54942 0.12812 0.0
H163 H 0.82518 0.57919 0.15381 0.0
H164 H 0.8547 0.69462 0.14329 0.0
Co165 Co 0.17993 0.78958 0.5945 0.0
C166 C 0.2133 0.86413 0.57074 0.0
C167 C 0.17844 0.85968 0.6021 0.0
C168 C 0.19094 0.89405 0.59079 0.0
N169 N 0.19263 0.8411 0.58957 0.0
N170 N 0.2127 0.89678 0.57097 0.0
H171 H 0.22713 0.85639 0.55659 0.0
H172 H 0.15951 0.8486 0.61793 0.0
C173 C 0.25316 0.79365 0.60512 0.0
O174 O 0.23592 0.77085 0.62401 0.0
N175 N 0.16643 0.73707 0.59824 0.0
C176 C 0.1346 0.70846 0.60789 0.0
C177 C 0.13469 0.67536 0.60435 0.0
C178 C 0.18415 0.72028 0.58761 0.0
N179 N 0.16606 0.68297 0.59179 0.0
C180 C 0.15334 0.77787 0.64541 0.0
C181 C 0.21999 0.82822 0.66813 0.0
C182 C 0.1891 0.80503 0.68336 0.0
C183 C 0.15519 0.7804 0.67155 0.0
C184 C 0.2168 0.82475 0.64189 0.0
N185 N 0.18446 0.79776 0.63091 0.0
H186 H 0.12651 0.76013 0.63694 0.0
H187 H 0.24053 0.84342 0.63045 0.0
H188 H 0.1116 0.71052 0.61578 0.0
H189 H 0.20931 0.7348 0.57641 0.0
O190 O 0.12767 0.77419 0.59134 0.0
O191 O 0.16441 0.77886 0.55945 0.0
O192 O 0.23518 0.80485 0.59113 0.0
C193 C 0.13101 0.7699 0.56749 0.0
H194 H 0.18426 0.91525 0.59669 0.0
H195 H 0.11329 0.64783 0.61054 0.0
H196 H 0.24632 0.84895 0.67638 0.0
H197 H 0.13023 0.7626 0.68235 0.0
Co198 Co 0.85332 0.60966 0.42904 0.0
C199 C 0.81576 0.64907 0.45122 0.0
C200 C 0.85806 0.68299 0.42427 0.0
C201 C 0.84423 0.70424 0.43479 0.0
N202 N 0.84028 0.64845 0.43454 0.0
N203 N 0.81773 0.68303 0.45179 0.0
H204 H 0.79798 0.62573 0.46333 0.0
H205 H 0.8803 0.69239 0.41052 0.0
C206 C 0.78162 0.54156 0.41568 0.0
O207 O 0.80031 0.53754 0.39704 0.0
N208 N 0.86734 0.57073 0.42453 0.0
C209 C 0.89924 0.57477 0.41439 0.0
C210 C 0.89922 0.54136 0.41611 0.0
C211 C 0.84953 0.53513 0.43363 0.0
N212 N 0.86776 0.5162 0.42802 0.0
C213 C 0.88259 0.62985 0.37889 0.0
C214 C 0.81722 0.61693 0.35566 0.0
C215 C 0.84936 0.62818 0.34087 0.0
C216 C 0.88255 0.63561 0.35306 0.0
C217 C 0.81868 0.61198 0.38163 0.0
N218 N 0.8505 0.61599 0.39273 0.0
H219 H 0.90901 0.63808 0.38777 0.0
H220 H 0.79412 0.60493 0.39278 0.0
H221 H 0.92206 0.60037 0.40704 0.0
H222 H 0.82386 0.5233 0.44439 0.0
O223 O 0.90527 0.64626 0.43352 0.0
O224 O 0.86713 0.61263 0.46442 0.0
O225 O 0.79821 0.5696 0.4307 0.0
C226 C 0.90072 0.63783 0.45722 0.0
H227 H 0.85314 0.73321 0.43033 0.0
H228 H 0.92065 0.536 0.4088 0.0
H229 H 0.79104 0.6117 0.34732 0.0
H230 H 0.9087 0.64663 0.34287 0.0
Co231 Co 0.26248 0.84772 0.954 0.0
C232 C 0.18501 0.82838 0.97119 0.0
C233 C 0.21485 0.81133 0.99624 0.0
C234 C 0.18146 0.80263 0.00723 0.0
N235 N 0.21734 0.8276 0.9738 0.0
N236 N 0.16271 0.81336 0.99163 0.0
H237 H 0.17832 0.84026 0.95517 0.0
H238 H 0.23639 0.8067 0.00426 0.0
C239 C 0.26831 0.77931 0.94139 0.0
O240 O 0.28169 0.79453 0.91933 0.0
N241 N 0.30975 0.86761 0.93591 0.0
C242 C 0.32285 0.88988 0.91543 0.0
C243 C 0.35727 0.89412 0.90912 0.0
C244 C 0.33743 0.86063 0.94249 0.0
N245 N 0.36619 0.8753 0.92602 0.0
C246 C 0.23607 0.86036 0.90745 0.0
C247 C 0.19984 0.7875 0.88991 0.0
C248 C 0.20882 0.81701 0.87297 0.0
C249 C 0.22467 0.85345 0.8825 0.0
C250 C 0.21158 0.79584 0.9151 0.0
N251 N 0.23338 0.83234 0.92267 0.0
H252 H 0.24959 0.88905 0.91378 0.0
H253 H 0.20462 0.773 0.92798 0.0
H254 H 0.30893 0.90228 0.90545 0.0
H255 H 0.33528 0.84291 0.9582 0.0
O256 O 0.26859 0.89708 0.95587 0.0
O257 O 0.29136 0.87436 0.98411 0.0
O258 O 0.25996 0.79705 0.95766 0.0
C259 C 0.28758 0.90248 0.9763 0.0
H260 H 0.17143 0.78903 0.02526 0.0
H261 H 0.37407 0.90938 0.89304 0.0
H262 H 0.18585 0.75863 0.88353 0.0
H263 H 0.23008 0.87686 0.87039 0.0
Co264 Co 0.42364 0.24332 0.4516 0.0
C265 C 0.36527 0.16349 0.4669 0.0
C266 C 0.39138 0.20179 0.49757 0.0
C267 C 0.36876 0.16683 0.50733 0.0
N268 N 0.38964 0.20018 0.47219 0.0
N269 N 0.35254 0.14279 0.48817 0.0
H270 H 0.35965 0.15135 0.4483 0.0
H271 H 0.40993 0.22631 0.50848 0.0
C272 C 0.46772 0.20597 0.46486 0.0
O273 O 0.43702 0.17363 0.46176 0.0
N274 N 0.45831 0.28728 0.4328 0.0
C275 C 0.45198 0.30182 0.41189 0.0
C276 C 0.48454 0.33447 0.40578 0.0
C277 C 0.49423 0.31106 0.43917 0.0
N278 N 0.51102 0.34003 0.42295 0.0
C279 C 0.38115 0.19852 0.40995 0.0
C280 C 0.44205 0.20625 0.38307 0.0
C281 C 0.40783 0.19353 0.37055 0.0
C282 C 0.3767 0.1881 0.3846 0.0
C283 C 0.4453 0.21632 0.4084 0.0
N284 N 0.4153 0.21334 0.42142 0.0
H285 H 0.35763 0.19725 0.41987 0.0
H286 H 0.47294 0.23005 0.41663 0.0
H287 H 0.42561 0.28963 0.40186 0.0
H288 H 0.50765 0.30767 0.45568 0.0
O289 O 0.38474 0.25561 0.4462 0.0
O290 O 0.42464 0.27638 0.47814 0.0
O291 O 0.46714 0.23663 0.46227 0.0
C292 C 0.39634 0.27563 0.46653 0.0
H293 H 0.36617 0.1591 0.52701 0.0
H294 H 0.48858 0.3524 0.38978 0.0
H295 H 0.46681 0.21077 0.37296 0.0
H296 H 0.34983 0.17881 0.37566 0.0
Co297 Co 0.17198 0.40451 0.93001 0.0
C298 C 0.20433 0.36104 0.95251 0.0
C299 C 0.17403 0.3348 0.91869 0.0
C300 C 0.18832 0.31334 0.92843 0.0
N301 N 0.1846 0.36502 0.93359 0.0
N302 N 0.20713 0.32977 0.94975 0.0
H303 H 0.21623 0.38054 0.96804 0.0
H304 H 0.15674 0.32848 0.90207 0.0
C305 C 0.24458 0.47221 0.91852 0.0
O306 O 0.22663 0.47792 0.9001 0.0
N307 N 0.15945 0.44476 0.92805 0.0
C308 C 0.12834 0.44396 0.91903 0.0
C309 C 0.13111 0.47848 0.92288 0.0
C310 C 0.17918 0.47907 0.93887 0.0
N311 N 0.16343 0.50072 0.9351 0.0
C312 C 0.14417 0.39279 0.87937 0.0
C313 C 0.20821 0.40306 0.85557 0.0
C314 C 0.17723 0.3968 0.84092 0.0
C315 C 0.14473 0.39095 0.85322 0.0
C316 C 0.20654 0.40506 0.88182 0.0
N317 N 0.17538 0.40194 0.89337 0.0
H318 H 0.11806 0.38558 0.88828 0.0
H319 H 0.23034 0.4091 0.89286 0.0
H320 H 0.10433 0.4199 0.91104 0.0
H321 H 0.20448 0.48805 0.9497 0.0
O322 O 0.12001 0.36774 0.93322 0.0
O323 O 0.15735 0.3989 0.96524 0.0
O324 O 0.22708 0.4435 0.93283 0.0
C325 C 0.12402 0.37429 0.95719 0.0
H326 H 0.18422 0.28707 0.92089 0.0
H327 H 0.11101 0.48661 0.91688 0.0
H328 H 0.2336 0.40675 0.84684 0.0
H329 H 0.11951 0.38406 0.84274 0.0
Co330 Co 0.77584 0.1669 0.4167 0.0
C331 C 0.84895 0.19773 0.44236 0.0
C332 C 0.8427 0.15885 0.41318 0.0
C333 C 0.87618 0.17009 0.42538 0.0
N334 N 0.82573 0.17621 0.42384 0.0
N335 N 0.88005 0.19446 0.44375 0.0
H336 H 0.84254 0.21431 0.45512 0.0
H337 H 0.8311 0.13868 0.39803 0.0
C338 C 0.78115 0.24158 0.4105 0.0
O339 O 0.7586 0.22651 0.39118 0.0
N340 N 0.7252 0.15715 0.41057 0.0
C341 C 0.70185 0.14071 0.39089 0.0
C342 C 0.66997 0.14308 0.39449 0.0
C343 C 0.70647 0.16795 0.42621 0.0
N344 N 0.67309 0.16031 0.41664 0.0
C345 C 0.77399 0.14302 0.36612 0.0
C346 C 0.81861 0.21216 0.34425 0.0
C347 C 0.80021 0.18032 0.32872 0.0
C348 C 0.77936 0.14531 0.34029 0.0
C349 C 0.81322 0.20839 0.37043 0.0
N350 N 0.78846 0.17444 0.38082 0.0
H351 H 0.75671 0.1155 0.37398 0.0
H352 H 0.82858 0.23289 0.3821 0.0
H353 H 0.70711 0.12828 0.37473 0.0
H354 H 0.71802 0.18299 0.44363 0.0
O355 O 0.75745 0.11387 0.41755 0.0
O356 O 0.76005 0.14714 0.45084 0.0
O357 O 0.79277 0.22226 0.42264 0.0
C358 C 0.75041 0.11433 0.44117 0.0
H359 H 0.8961 0.16095 0.42108 0.0
H360 H 0.64643 0.13324 0.38171 0.0
H361 H 0.83627 0.23978 0.33634 0.0
H362 H 0.76652 0.11957 0.32945 0.0
Co363 Co 0.61005 0.76663 0.92011 0.0
C364 C 0.64992 0.84115 0.94369 0.0
C365 C 0.68205 0.83621 0.91363 0.0
C366 C 0.70303 0.87079 0.92481 0.0
N367 N 0.64877 0.81785 0.92542 0.0
N368 N 0.68288 0.87383 0.94381 0.0
H369 H 0.62754 0.83368 0.95711 0.0
H370 H 0.69069 0.82494 0.89829 0.0
C371 C 0.54259 0.77356 0.90903 0.0
O372 O 0.53585 0.75023 0.89023 0.0
N373 N 0.57107 0.71429 0.91593 0.0
C374 C 0.57474 0.68563 0.90668 0.0
C375 C 0.5417 0.65257 0.90993 0.0
C376 C 0.53631 0.69754 0.92603 0.0
N377 N 0.51743 0.6601 0.922 0.0
C378 C 0.62572 0.7555 0.86932 0.0
C379 C 0.6126 0.80855 0.847 0.0
C380 C 0.6209 0.78578 0.8317 0.0
C381 C 0.62833 0.75959 0.8433 0.0
C382 C 0.61041 0.80352 0.87312 0.0
N383 N 0.61446 0.77545 0.88384 0.0
H384 H 0.63369 0.73674 0.8777 0.0
H385 H 0.60536 0.82218 0.88469 0.0
H386 H 0.60005 0.68761 0.89935 0.0
H387 H 0.52537 0.71224 0.93684 0.0
O388 O 0.64669 0.75112 0.92342 0.0
O389 O 0.61406 0.75548 0.95513 0.0
O390 O 0.57096 0.78282 0.92331 0.0
C391 C 0.63903 0.74706 0.94726 0.0
H392 H 0.73095 0.89204 0.91929 0.0
H393 H 0.53612 0.62511 0.90386 0.0
H394 H 0.60826 0.83029 0.83891 0.0
H395 H 0.63574 0.74197 0.83239 0.0
H396 H 0.71981 0.24705 0.07074 0.0
H397 H 0.66465 0.14141 0.03097 0.0
H398 H 0.65871 0.24189 0.07894 0.0
H399 H 0.60392 0.13667 0.0387 0.0
H400 H 0.50276 0.15707 0.04439 0.0
H401 H 0.56506 0.1703 0.03032 0.0
H402 H 0.60422 0.19205 0.10715 0.0
H403 H 0.54208 0.1784 0.12111 0.0
C404 C 0.69477 0.22338 0.06309 0.0
C405 C 0.69683 0.19457 0.05028 0.0
C406 C 0.65986 0.22027 0.06797 0.0
C407 C 0.62665 0.18873 0.0596 0.0
C408 C 0.62906 0.16132 0.04527 0.0
C409 C 0.66378 0.16403 0.04088 0.0
C410 C 0.52476 0.16459 0.05817 0.0
C411 C 0.51757 0.16621 0.08383 0.0
C412 C 0.56029 0.17222 0.05017 0.0
C413 C 0.58947 0.18251 0.06764 0.0
C414 C 0.58236 0.18463 0.09325 0.0
C415 C 0.5467 0.17628 0.10128 0.0
H416 H 0.3759 0.51294 0.54985 0.0
H417 H 0.35005 0.53021 0.62541 0.0
H418 H 0.42389 0.57926 0.54699 0.0
H419 H 0.39563 0.59671 0.62235 0.0
H420 H 0.50074 0.70812 0.6199 0.0
H421 H 0.45724 0.64132 0.6222 0.0
H422 H 0.43487 0.6398 0.54248 0.0
H423 H 0.48098 0.7067 0.54009 0.0
C424 C 0.38079 0.53115 0.56585 0.0
C425 C 0.36006 0.51663 0.588 0.0
C426 C 0.40784 0.56922 0.56418 0.0
C427 C 0.41395 0.59379 0.58443 0.0
C428 C 0.39278 0.57886 0.60656 0.0
C429 C 0.36652 0.54069 0.6084 0.0
C430 C 0.48634 0.69352 0.60288 0.0
C431 C 0.49387 0.71261 0.57985 0.0
C432 C 0.46114 0.65508 0.60419 0.0
C433 C 0.4419 0.63475 0.5826 0.0
C434 C 0.44943 0.65411 0.55949 0.0
C435 C 0.47554 0.69256 0.55809 0.0
H436 H 0.78101 0.33646 0.08134 0.0
H437 H 0.9016 0.39708 0.08436 0.0
H438 H 0.78061 0.39527 0.07609 0.0
H439 H 0.90192 0.45592 0.07743 0.0
H440 H 0.89056 0.55881 0.08939 0.0
H441 H 0.89093 0.50044 0.09499 0.0
H442 H 0.79145 0.44316 0.04874 0.0
H443 H 0.78987 0.50151 0.04468 0.0
C444 C 0.80744 0.36257 0.08071 0.0
C445 C 0.8413 0.3625 0.08345 0.0
C446 C 0.80735 0.39629 0.07742 0.0
C447 C 0.84126 0.43068 0.07616 0.0
C448 C 0.87518 0.43031 0.07883 0.0
C449 C 0.87514 0.39663 0.08273 0.0
C450 C 0.86893 0.53379 0.08025 0.0
C451 C 0.84024 0.53473 0.06653 0.0
C452 C 0.86921 0.50018 0.08336 0.0
C453 C 0.84124 0.46672 0.07234 0.0
C454 C 0.81304 0.46801 0.05801 0.0
C455 C 0.8123 0.50155 0.0554 0.0
H456 H 0.49715 0.90349 0.58761 0.0
H457 H 0.45564 0.78561 0.57403 0.0
H458 H 0.43249 0.89086 0.59203 0.0
H459 H 0.39163 0.77326 0.57804 0.0
H460 H 0.29047 0.75926 0.62261 0.0
H461 H 0.35476 0.77507 0.61463 0.0
H462 H 0.37038 0.86726 0.56738 0.0
H463 H 0.30517 0.85125 0.57539 0.0
C464 C 0.47432 0.875 0.5854 0.0
C465 C 0.48169 0.84561 0.58047 0.0
C466 C 0.4373 0.86783 0.58771 0.0
C467 C 0.40693 0.83103 0.5855 0.0
C468 C 0.41437 0.80187 0.58006 0.0
C469 C 0.45116 0.80905 0.57752 0.0
C470 C 0.30746 0.78298 0.61052 0.0
C471 C 0.29259 0.80402 0.59966 0.0
C472 C 0.34434 0.79188 0.60581 0.0
C473 C 0.36768 0.82231 0.59027 0.0
C474 C 0.3531 0.84373 0.57952 0.0
C475 C 0.31576 0.83445 0.58399 0.0
H476 H 0.6261 0.49946 0.11135 0.0
H477 H 0.70022 0.46409 0.07973 0.0
H478 H 0.57433 0.43473 0.10958 0.0
H479 H 0.64845 0.39983 0.0773 0.0
H480 H 0.56024 0.28556 0.10928 0.0
H481 H 0.61081 0.35036 0.10765 0.0
H482 H 0.53404 0.38447 0.07892 0.0
H483 H 0.48294 0.31924 0.08085 0.0
C484 C 0.63134 0.47792 0.10403 0.0
C485 C 0.66732 0.48694 0.09575 0.0
C486 C 0.60161 0.44094 0.10272 0.0
C487 C 0.60731 0.41219 0.09328 0.0
C488 C 0.64321 0.4213 0.08485 0.0
C489 C 0.67282 0.45821 0.08604 0.0
C490 C 0.5541 0.3068 0.10247 0.0
C491 C 0.51755 0.2973 0.09528 0.0
C492 C 0.58317 0.34393 0.1014 0.0
C493 C 0.57642 0.37255 0.0932 0.0
C494 C 0.53999 0.36303 0.08556 0.0
C495 C 0.51084 0.32569 0.08646 0.0
H496 H 0.1949 0.49489 0.54857 0.0
H497 H 0.26792 0.54852 0.61212 0.0
H498 H 0.18059 0.54573 0.54659 0.0
H499 H 0.25326 0.59917 0.61022 0.0
H500 H 0.23782 0.69781 0.58978 0.0
H501 H 0.25913 0.65237 0.58388 0.0
H502 H 0.14428 0.56387 0.57514 0.0
H503 H 0.12314 0.60936 0.5806 0.0
C504 C 0.20826 0.51771 0.56193 0.0
C505 C 0.23225 0.51747 0.58069 0.0
C506 C 0.1999 0.54673 0.56084 0.0
C507 C 0.2156 0.57624 0.57835 0.0
C508 C 0.24096 0.57692 0.59636 0.0
C509 C 0.24913 0.54776 0.59756 0.0
C510 C 0.21724 0.66878 0.58608 0.0
C511 C 0.17879 0.65703 0.58577 0.0
C512 C 0.22941 0.64276 0.58293 0.0
C513 C 0.20336 0.60459 0.57915 0.0
C514 C 0.16504 0.59315 0.57781 0.0
C515 C 0.15288 0.61909 0.58118 0.0
H516 H 0.9105 0.48283 0.43124 0.0
H517 H 0.79585 0.45925 0.43232 0.0
H518 H 0.88881 0.41578 0.43055 0.0
H519 H 0.77416 0.39217 0.43262 0.0
H520 H 0.75218 0.28386 0.39285 0.0
H521 H 0.77242 0.34913 0.40131 0.0
H522 H 0.85722 0.35516 0.45213 0.0
H523 H 0.8371 0.2891 0.44323 0.0
C524 C 0.88065 0.46339 0.43164 0.0
C525 C 0.85497 0.47665 0.43144 0.0
C526 C 0.8682 0.42482 0.43155 0.0
C527 C 0.8297 0.39841 0.43123 0.0
C528 C 0.80404 0.41166 0.43241 0.0
C529 C 0.81649 0.45023 0.43252 0.0
C530 C 0.77511 0.29889 0.40592 0.0
C531 C 0.79319 0.28117 0.41721 0.0
C532 C 0.78648 0.33641 0.41099 0.0
C533 C 0.81637 0.35757 0.42751 0.0
C534 C 0.83424 0.33979 0.43917 0.0
C535 C 0.82264 0.3019 0.43417 0.0
H536 H 0.40229 0.873 0.88395 0.0
H537 H 0.39777 0.85707 0.96444 0.0
H538 H 0.44745 0.85134 0.88063 0.0
H539 H 0.44227 0.83428 0.961 0.0
H540 H 0.54748 0.82346 0.94543 0.0
H541 H 0.50785 0.85203 0.95007 0.0
H542 H 0.44307 0.78992 0.8854 0.0
H543 H 0.4825 0.76176 0.88063 0.0
C544 C 0.41131 0.86545 0.90101 0.0
C545 C 0.39614 0.86662 0.92446 0.0
C546 C 0.4369 0.85255 0.89906 0.0
C547 C 0.44811 0.84059 0.92051 0.0
C548 C 0.43429 0.84334 0.94412 0.0
C549 C 0.40853 0.85611 0.94606 0.0
C550 C 0.52472 0.81588 0.93225 0.0
C551 C 0.51823 0.79033 0.91263 0.0
C552 C 0.50199 0.83219 0.93494 0.0
C553 C 0.4725 0.82351 0.91797 0.0
C554 C 0.46596 0.79778 0.89852 0.0
C555 C 0.48846 0.78139 0.89591 0.0
H556 H 0.74805 0.46899 0.40067 0.0
H557 H 0.72541 0.54877 0.43835 0.0
H558 H 0.68229 0.42117 0.40416 0.0
H559 H 0.65884 0.50051 0.44155 0.0
H560 H 0.53849 0.41239 0.40849 0.0
H561 H 0.60429 0.46258 0.40906 0.0
H562 H 0.63622 0.38512 0.4396 0.0
H563 H 0.57077 0.33522 0.43903 0.0
C564 C 0.72897 0.47631 0.40974 0.0
C565 C 0.74185 0.51267 0.41919 0.0
C566 C 0.69133 0.44882 0.41184 0.0
C567 C 0.66546 0.45712 0.42311 0.0
C568 C 0.67822 0.49346 0.43267 0.0
C569 C 0.71624 0.52093 0.43098 0.0
C570 C 0.55963 0.4062 0.41532 0.0
C571 C 0.5495 0.36988 0.42367 0.0
C572 C 0.59716 0.43496 0.41589 0.0
C573 C 0.62532 0.42772 0.4244 0.0
C574 C 0.61511 0.39147 0.43289 0.0
C575 C 0.57764 0.36296 0.43268 0.0
H576 H 0.29293 0.73834 0.91578 0.0
H577 H 0.21735 0.72933 0.97518 0.0
H578 H 0.26872 0.67091 0.91769 0.0
H579 H 0.19312 0.66148 0.97719 0.0
H580 H 0.12668 0.53923 0.94392 0.0
H581 H 0.15444 0.60707 0.94907 0.0
H582 H 0.26499 0.61999 0.94402 0.0
H583 H 0.2373 0.55245 0.93833 0.0
C584 C 0.27151 0.72202 0.92954 0.0
C585 C 0.25703 0.73925 0.94528 0.0
C586 C 0.25773 0.68332 0.93071 0.0
C587 C 0.22885 0.66069 0.94753 0.0
C588 C 0.21513 0.67806 0.96386 0.0
C589 C 0.22925 0.71697 0.96287 0.0
C590 C 0.15689 0.55653 0.94403 0.0
C591 C 0.17968 0.5403 0.94061 0.0
C592 C 0.17283 0.5954 0.94724 0.0
C593 C 0.21197 0.61904 0.94687 0.0
C594 C 0.23476 0.60267 0.94418 0.0
C595 C 0.21884 0.56383 0.94116 0.0
H596 H 0.48095 0.15146 0.48239 0.0
H597 H 0.53535 0.26074 0.44717 0.0
H598 H 0.5362 0.14549 0.47426 0.0
H599 H 0.59037 0.2544 0.43871 0.0
H600 H 0.63543 0.18734 0.39071 0.0
H601 H 0.59106 0.20498 0.40752 0.0
H602 H 0.60907 0.17614 0.48235 0.0
H603 H 0.65409 0.15895 0.46541 0.0
C604 C 0.5051 0.17459 0.47351 0.0
C605 C 0.50379 0.20642 0.46526 0.0
C606 C 0.5367 0.1712 0.46893 0.0
C607 C 0.56727 0.19933 0.45566 0.0
C608 C 0.56699 0.23225 0.44886 0.0
C609 C 0.53563 0.23596 0.45386 0.0
C610 C 0.62995 0.1849 0.41073 0.0
C611 C 0.64778 0.17149 0.42677 0.0
C612 C 0.60499 0.19541 0.42039 0.0
C613 C 0.59691 0.19211 0.44623 0.0
C614 C 0.61499 0.17904 0.46236 0.0
C615 C 0.64062 0.16924 0.45273 0.0
H616 H 0.29448 0.46772 0.95083 0.0
H617 H 0.2845 0.54055 0.89646 0.0
H618 H 0.36076 0.51444 0.95676 0.0
H619 H 0.35012 0.58639 0.90201 0.0
H620 H 0.46118 0.67579 0.92767 0.0
H621 H 0.39465 0.63084 0.93179 0.0
H622 H 0.41873 0.53975 0.9319 0.0
H623 H 0.48544 0.58481 0.9289 0.0
C624 C 0.30635 0.49367 0.94025 0.0
C625 C 0.28432 0.50031 0.92306 0.0
C626 C 0.34427 0.52034 0.94358 0.0
C627 C 0.36067 0.5542 0.92993 0.0
C628 C 0.3383 0.56095 0.91315 0.0
C629 C 0.30067 0.53438 0.90975 0.0
C630 C 0.45246 0.64629 0.92922 0.0
C631 C 0.47869 0.63393 0.9276 0.0
C632 C 0.41424 0.62046 0.93132 0.0
C633 C 0.40136 0.58168 0.93178 0.0
C634 C 0.42772 0.56942 0.93165 0.0
C635 C 0.46596 0.59526 0.9296 0.0
H636 H 0.45844 0.24292 0.3371 0.0
H637 H 0.35237 0.1396 0.34083 0.0
H638 H 0.4537 0.24265 0.2915 0.0
H639 H 0.34727 0.13979 0.29489 0.0
H640 H 0.37641 0.13747 0.20996 0.0
H641 H 0.37841 0.13404 0.25572 0.0
H642 H 0.41359 0.25194 0.26081 0.0
H643 H 0.41094 0.25535 0.21516 0.0
C644 C 0.43434 0.21979 0.32816 0.0
C645 C 0.40589 0.1911 0.34262 0.0
C646 C 0.43138 0.21996 0.30202 0.0
C647 C 0.39995 0.19141 0.28961 0.0
C648 C 0.37188 0.16213 0.30393 0.0
C649 C 0.37471 0.1621 0.33021 0.0
C650 C 0.38394 0.16255 0.22082 0.0
C651 C 0.39371 0.19677 0.20879 0.0
C652 C 0.38519 0.16055 0.24706 0.0
C653 C 0.3965 0.19278 0.26185 0.0
C654 C 0.40545 0.22677 0.24989 0.0
C655 C 0.40398 0.22872 0.2237 0.0
H656 H 0.12235 0.38292 0.68104 0.0
H657 H 0.22929 0.3872 0.68337 0.0
H658 H 0.12201 0.3854 0.72703 0.0
H659 H 0.22959 0.39068 0.72895 0.0
H660 H 0.20326 0.36009 0.81139 0.0
H661 H 0.20152 0.3554 0.76561 0.0
H662 H 0.1515 0.42625 0.76172 0.0
H663 H 0.15237 0.42994 0.80749 0.0
C664 C 0.14579 0.38451 0.69139 0.0
C665 C 0.17558 0.38439 0.67861 0.0
C666 C 0.14575 0.38611 0.71773 0.0
C667 C 0.17573 0.38808 0.73182 0.0
C668 C 0.2056 0.38828 0.71889 0.0
C669 C 0.20546 0.38633 0.69268 0.0
C670 C 0.19218 0.37486 0.8007 0.0
C671 C 0.17796 0.39535 0.81302 0.0
C672 C 0.19116 0.37223 0.77444 0.0
C673 C 0.17628 0.3904 0.75985 0.0
C674 C 0.16246 0.41125 0.77226 0.0
C675 C 0.16316 0.41357 0.79851 0.0
H676 H 0.8588 0.22825 0.29783 0.0
H677 H 0.74362 0.13807 0.29587 0.0
H678 H 0.85956 0.22946 0.25168 0.0
H679 H 0.74539 0.1382 0.25028 0.0
H680 H 0.77867 0.1234 0.16994 0.0
H681 H 0.78378 0.12417 0.21603 0.0
H682 H 0.82064 0.24265 0.21656 0.0
H683 H 0.8149 0.24171 0.17069 0.0
C684 C 0.83373 0.20876 0.28771 0.0
C685 C 0.80137 0.18266 0.30071 0.0
C686 C 0.83429 0.2093 0.26133 0.0
C687 C 0.80273 0.18342 0.24755 0.0
C688 C 0.77037 0.15781 0.26048 0.0
C689 C 0.76953 0.15773 0.28666 0.0
C690 C 0.78799 0.14952 0.17998 0.0
C691 C 0.7959 0.18234 0.16695 0.0
C692 C 0.79092 0.15001 0.20623 0.0
C693 C 0.80263 0.18352 0.21972 0.0
C694 C 0.81181 0.21658 0.20656 0.0
C695 C 0.80817 0.21593 0.18042 0.0
H696 H 0.57217 0.79467 0.80142 0.0
H697 H 0.67102 0.78328 0.79892 0.0
H698 H 0.57116 0.79605 0.75557 0.0
H699 H 0.66986 0.78445 0.75307 0.0
H700 H 0.63216 0.74971 0.67092 0.0
H701 H 0.63172 0.74605 0.71698 0.0
H702 H 0.60815 0.83734 0.72136 0.0
H703 H 0.60752 0.84024 0.67576 0.0
C704 C 0.59393 0.79291 0.7911 0.0
C705 C 0.62163 0.78884 0.80384 0.0
C706 C 0.59327 0.79354 0.76483 0.0
C707 C 0.62034 0.79015 0.7507 0.0
C708 C 0.64823 0.78641 0.76342 0.0
C709 C 0.64893 0.78586 0.78969 0.0
C710 C 0.62666 0.76875 0.68179 0.0
C711 C 0.62028 0.7955 0.66973 0.0
C712 C 0.6267 0.7669 0.70812 0.0
C713 C 0.61996 0.79148 0.72279 0.0
C714 C 0.6131 0.8178 0.71064 0.0
C715 C 0.61322 0.81975 0.68448 0.0
H716 H 0.90488 0.66977 0.18094 0.0
H717 H 0.78443 0.61578 0.18432 0.0
H718 H 0.90778 0.67092 0.22715 0.0
H719 H 0.78702 0.61685 0.23034 0.0
H720 H 0.81004 0.65403 0.31319 0.0
H721 H 0.80946 0.66066 0.26755 0.0
H722 H 0.88767 0.62011 0.25987 0.0
H723 H 0.88749 0.61231 0.30521 0.0
C724 C 0.87917 0.65873 0.19167 0.0
C725 C 0.84449 0.64283 0.17936 0.0
C726 C 0.88072 0.65913 0.218 0.0
C727 C 0.84759 0.64389 0.23234 0.0
C728 C 0.81301 0.62916 0.21984 0.0
C729 C 0.81148 0.62844 0.19358 0.0
C730 C 0.82683 0.64615 0.3018 0.0
C731 C 0.84885 0.63267 0.31303 0.0
C732 C 0.82666 0.65019 0.27565 0.0
C733 C 0.84878 0.64121 0.26016 0.0
C734 C 0.87092 0.62798 0.27134 0.0
C735 C 0.87079 0.62355 0.29739 0.0
H736 H 0.14817 0.76517 0.8454 0.0
H737 H 0.26192 0.85631 0.83816 0.0
H738 H 0.14296 0.76008 0.79931 0.0
H739 H 0.25665 0.85178 0.79263 0.0
H740 H 0.24716 0.81139 0.71211 0.0
H741 H 0.25102 0.81047 0.75786 0.0
H742 H 0.14108 0.79891 0.7637 0.0
H743 H 0.1373 0.8002 0.71796 0.0
C744 C 0.17203 0.78386 0.83398 0.0
C745 C 0.20526 0.81139 0.84531 0.0
C746 C 0.16902 0.78119 0.80766 0.0
C747 C 0.19939 0.80564 0.79232 0.0
C748 C 0.23286 0.83232 0.80383 0.0
C749 C 0.23574 0.83515 0.82994 0.0
C750 C 0.22399 0.80909 0.72313 0.0
C751 C 0.192 0.80598 0.71131 0.0
C752 C 0.22609 0.80833 0.74936 0.0
C753 C 0.19626 0.80444 0.76442 0.0
C754 C 0.16423 0.80125 0.75263 0.0
C755 C 0.16217 0.80212 0.7264 0.0
H756 H 0.30351 0.9683 0.95481 0.0
H757 H 0.3079 0.92037 0.02615 0.0
H758 H 0.3241 0.02862 0.97484 0.0
H759 H 0.3288 0.98151 0.04646 0.0
H760 H 0.3168 0.08096 0.07612 0.0
H761 H 0.29952 0.02156 0.05551 0.0
H762 H 0.37881 0.08102 0.99621 0.0
H763 H 0.3964 0.14079 0.01697 0.0
C764 C 0.30921 0.97075 0.97483 0.0
C765 C 0.3039 0.93948 0.98896 0.0
C766 C 0.32124 1.00549 0.98626 0.0
C767 C 0.32793 0.00991 0.01224 0.0
C768 C 0.32348 0.97886 0.0264 0.0
C769 C 0.31185 0.94398 0.01481 0.0
C770 C 0.33024 0.08153 0.05848 0.0
C771 C 0.35788 0.11576 0.04811 0.0
C772 C 0.32066 0.04736 0.04687 0.0
C773 C 0.33818 0.04647 0.02445 0.0
C774 C 0.36479 0.08075 0.01351 0.0
C775 C 0.37468 0.11503 0.02528 0.0
H776 H 0.28351 0.4053 0.49721 0.0
H777 H 0.24706 0.31783 0.5533 0.0
H778 H 0.3233 0.383 0.47822 0.0
H779 H 0.287 0.29631 0.53466 0.0
H780 H 0.39711 0.3003 0.51437 0.0
H781 H 0.35947 0.32669 0.53078 0.0
H782 H 0.31428 0.32124 0.45659 0.0
H783 H 0.35145 0.29448 0.44024 0.0
C784 C 0.2836 0.38112 0.50526 0.0
C785 C 0.26215 0.36334 0.52673 0.0
C786 C 0.30644 0.3685 0.49448 0.0
C787 C 0.30861 0.33837 0.50529 0.0
C788 C 0.28634 0.32002 0.52626 0.0
C789 C 0.26319 0.33218 0.53675 0.0
C790 C 0.3795 0.30519 0.50155 0.0
C791 C 0.37698 0.29515 0.47611 0.0
C792 C 0.35786 0.32007 0.51093 0.0
C793 C 0.33386 0.32573 0.49492 0.0
C794 C 0.33264 0.31725 0.46927 0.0
C795 C 0.35377 0.3018 0.45999 0.0
H796 H 0.92206 0.22971 0.04253 0.0
H797 H 0.90482 0.31558 0.00872 0.0
H798 H 0.98577 0.26005 0.02583 0.0
H799 H 0.96932 0.34655 0.99245 0.0
H800 H 0.10226 0.40637 0.99357 0.0
H801 H 0.04057 0.37749 0.01429 0.0
H802 H 0.00957 0.27245 0.97732 0.0
H803 H 0.07036 0.30147 0.95615 0.0
C804 C 0.93196 0.25515 0.03156 0.0
C805 C 0.90847 0.27021 0.02675 0.0
C806 C 0.96839 0.27248 0.0221 0.0
C807 C 0.98239 0.3057 0.00811 0.0
C808 C 0.95915 0.32111 1.00345 0.0
C809 C 0.92226 0.30325 0.01249 0.0
C810 C 0.08249 0.37691 0.99044 0.0
C811 C 0.09096 0.3559 0.97357 0.0
C812 C 0.0472 0.3606 1.00197 0.0
C813 C 0.02045 0.32289 0.99722 0.0
C814 C 0.02978 0.30153 0.9813 0.0
C815 C 0.06451 0.31804 0.96932 0.0
H816 H 0.6857 0.92857 0.54298 0.0
H817 H 0.59678 0.88252 0.48775 0.0
H818 H 0.71407 0.98887 0.52198 0.0
H819 H 0.62575 0.94373 0.46643 0.0
H820 H 0.71827 0.04445 0.42125 0.0
H821 H 0.68478 0.98446 0.44262 0.0
H822 H 0.70185 0.04171 0.51367 0.0
H823 H 0.7358 0.10254 0.49207 0.0
C824 C 0.67217 0.93122 0.52623 0.0
C825 C 0.63894 0.90053 0.51696 0.0
C826 C 0.68835 0.96606 0.51437 0.0
C827 C 0.672 0.97126 0.49273 0.0
C828 C 0.63903 0.94052 0.48311 0.0
C829 C 0.62249 0.90548 0.49522 0.0
C830 C 0.71496 0.04446 0.44146 0.0
C831 C 0.73005 0.07838 0.45503 0.0
C832 C 0.69535 0.00993 0.45364 0.0
C833 C 0.69053 0.00827 0.47979 0.0
C834 C 0.70533 0.04214 0.49346 0.0
C835 C 0.72473 0.07694 0.48116 0.0
H836 H 0.72659 0.60931 1.00375 0.0
H837 H 0.75091 0.68915 0.0638 0.0
H838 H 0.69439 0.63636 0.98069 0.0
H839 H 0.71899 0.71644 0.04056 0.0
H840 H 0.68971 0.72658 0.93373 0.0
H841 H 0.71694 0.69757 0.95948 0.0
H842 H 0.65561 0.70225 0.02397 0.0
H843 H 0.62812 0.73185 0.99796 0.0
C844 C 0.7249 0.6325 0.01207 0.0
C845 C 0.74154 0.64733 0.03544 0.0
C846 C 0.70659 0.64806 0.99885 0.0
C847 C 0.70446 0.67869 0.00878 0.0
C848 C 0.72001 0.69272 0.03255 0.0
C849 C 0.73849 0.67725 0.04573 0.0
C850 C 0.682 0.7216 0.95341 0.0
C851 C 0.65666 0.73142 0.96382 0.0
C852 C 0.69742 0.70467 0.96811 0.0
C853 C 0.68802 0.69719 0.99362 0.0
C854 C 0.66333 0.70774 0.00431 0.0
C855 C 0.64762 0.72462 0.98947 0.0
H856 H 0.97221 0.65839 0.44585 0.0
H857 H 0.90263 0.65735 0.50679 0.0
H858 H 0.0273 0.68989 0.47238 0.0
H859 H 0.95823 0.69157 0.53321 0.0
H860 H 0.05977 0.72265 0.58222 0.0
H861 H 1.00415 0.68978 0.55634 0.0
H862 H 0.0701 0.74534 0.4903 0.0
H863 H 0.12635 0.7761 0.51638 0.0
C864 C 0.96886 0.6653 0.465 0.0
C865 C 0.93323 0.65544 0.47434 0.0
C866 C 1.0006 0.68383 0.4802 0.0
C867 C 0.99777 0.69399 0.50504 0.0
C868 C 0.96179 0.68384 0.51439 0.0
C869 C 0.9298 0.66432 0.49928 0.0
C870 C 0.06232 0.72789 0.56215 0.0
C871 C 0.09738 0.75195 0.55128 0.0
C872 C 0.03024 0.70918 0.54724 0.0
C873 C 0.03213 0.71465 0.52103 0.0
C874 C 0.06734 0.7395 0.51028 0.0
C875 C 0.09968 0.75752 0.5252 0.0
H876 H 0.80081 0.0787 0.03397 0.0
H877 H 0.70722 0.07807 0.9971 0.0
H878 H 0.77671 0.01297 0.02131 0.0
H879 H 0.68342 0.01338 0.98411 0.0
H880 H 0.63781 0.89243 0.97006 0.0
H881 H 0.65709 0.94838 0.99554 0.0
H882 H 0.77314 0.98382 0.98039 0.0
H883 H 0.75396 0.92713 0.95586 0.0
C884 C 0.77464 0.06412 0.02372 0.0
C885 C 0.75597 0.08328 0.01626 0.0
C886 C 0.76101 0.02675 0.01626 0.0
C887 C 0.72828 0.00798 1.00149 0.0
C888 C 0.70845 0.02667 0.99564 0.0
C889 C 0.72219 0.06384 1.00289 0.0
C890 C 0.66745 0.91168 0.97257 0.0
C891 C 0.69427 0.90543 0.96052 0.0
C892 C 0.67852 0.94395 0.98707 0.0
C893 C 0.71667 0.97081 0.98984 0.0
C894 C 0.74354 0.96364 0.97884 0.0
C895 C 0.73247 0.93136 0.96438 0.0
H896 H 0.74587 0.64144 0.46771 0.0
H897 H 0.84253 0.75237 0.47125 0.0
H898 H 0.70931 0.6636 0.49076 0.0
H899 H 0.80676 0.7745 0.49507 0.0
H900 H 0.71742 0.81073 0.50656 0.0
H901 H 0.76024 0.79071 0.49015 0.0
H902 H 0.69643 0.6842 0.52829 0.0
H903 H 0.65297 0.70418 0.5434 0.0
C904 C 0.75947 0.67041 0.47385 0.0
C905 C 0.79696 0.69518 0.46741 0.0
C906 C 0.7386 0.68324 0.48721 0.0
C907 C 0.75483 0.72111 0.49484 0.0
C908 C 0.79284 0.74544 0.48912 0.0
C909 C 0.81348 0.73271 0.4755 0.0
C910 C 0.71354 0.78362 0.51202 0.0
C911 C 0.68241 0.75919 0.52652 0.0
C912 C 0.73791 0.77189 0.50256 0.0
C913 C 0.73176 0.73544 0.50752 0.0
C914 C 0.70176 0.71204 0.52345 0.0
C915 C 0.67721 0.72365 0.53256 0.0
H916 H 0.9236 0.73527 0.99387 0.0
H917 H 0.95288 0.70226 0.06341 0.0
H918 H 0.98983 0.7754 0.98392 0.0
H919 H 0.01929 0.74167 0.0534 0.0
H920 H 0.13747 0.82471 0.03547 0.0
H921 H 0.07232 0.80244 0.04683 0.0
H922 H 0.03886 0.76417 0.97045 0.0
H923 H 0.10446 0.78756 0.95917 0.0
C924 C 0.94438 0.73714 0.00721 0.0
C925 C 0.93322 0.71552 0.02932 0.0
C926 C 0.98229 0.75989 1.00144 0.0
C927 C 0.01003 0.7614 0.01761 0.0
C928 C 0.99879 0.74155 0.04056 0.0
C929 C 0.96074 0.71896 0.0464 0.0
C930 C 0.11614 0.81225 0.02104 0.0
C931 C 0.12581 0.80754 0.9965 0.0
C932 C 0.07881 0.79922 0.02757 0.0
C933 C 0.05014 0.78084 0.00973 0.0
C934 C 0.06015 0.77842 0.98469 0.0
C935 C 0.0977 0.79182 0.97812 0.0
H936 H 0.19127 0.94776 0.55942 0.0
H937 H 0.2746 0.91627 0.54251 0.0
H938 H 0.22427 1.00309 0.53308 0.0
H939 H 0.30695 0.97105 0.51525 0.0
H940 H 0.38026 0.10182 0.50778 0.0
H941 H 0.34431 0.03744 0.52297 0.0
H942 H 0.24367 0.02918 0.49125 0.0
H943 H 0.28034 0.09441 0.47645 0.0
C944 C 0.21651 0.95245 0.54995 0.0
C945 C 0.23057 0.92777 0.5535 0.0
C946 C 0.23514 0.98396 0.53445 0.0
C947 C 0.26838 0.9917 0.52202 0.0
C948 C 0.28163 0.96619 0.52473 0.0
C949 C 0.26293 0.9346 0.54025 0.0
C950 C 0.35064 0.08567 0.50343 0.0
C951 C 0.33293 0.10272 0.49096 0.0
C952 C 0.32998 0.04877 0.51207 0.0
C953 C 0.29094 0.02811 0.50858 0.0
C954 C 0.27361 0.04447 0.49456 0.0
C955 C 0.29451 0.08152 0.48579 0.0
H956 H 0.20243 0.32652 1.00034 0.0
H957 H 0.25047 0.29991 0.93722 0.0
H958 H 0.23018 0.30092 0.02899 0.0
H959 H 0.281 0.27672 0.96574 0.0
H960 H 0.31597 0.21625 0.02159 0.0
H961 H 0.2795 0.2325 0.99319 0.0
H962 H 0.28364 0.31248 0.04787 0.0
H963 H 0.31619 0.29376 0.0766 0.0
C964 C 0.21959 0.31572 0.99269 0.0
C965 C 0.22459 0.3155 0.96663 0.0
C966 C 0.23582 0.30114 0.0091 0.0
C967 C 0.25863 0.28697 0.99999 0.0
C968 C 0.26335 0.28667 0.97372 0.0
C969 C 0.24617 0.30033 0.95728 0.0
C970 C 0.3084 0.23672 0.0277 0.0
C971 C 0.31986 0.25401 0.05141 0.0
C972 C 0.28785 0.24656 0.01121 0.0
C973 C 0.27852 0.27424 0.01786 0.0
C974 C 0.28936 0.29067 0.04184 0.0
C975 C 0.30903 0.28035 0.05837 0.0
H976 H 0.04937 0.34316 0.55055 0.0
H977 H 0.09987 0.28972 0.50934 0.0
H978 H 0.98846 0.30023 0.53183 0.0
H979 H 0.03964 0.24763 0.48943 0.0
H980 H 0.92279 0.16683 0.46239 0.0
H981 H 0.97682 0.19858 0.49025 0.0
H982 H 0.96171 0.2955 0.49206 0.0
H983 H 0.90714 0.26313 0.46484 0.0
C984 C 0.04693 0.32127 0.53801 0.0
C985 C 0.07884 0.3191 0.53164 0.0
C986 C 0.0123 0.29712 0.52689 0.0
C987 C 1.00904 0.27079 0.50865 0.0
C988 C 0.04075 0.26718 0.50353 0.0
C989 C 0.07529 0.29109 0.51498 0.0
C990 C 0.93102 0.19489 0.46882 0.0
C991 C 0.91082 0.21257 0.46127 0.0
C992 C 0.96206 0.21315 0.48481 0.0
C993 C 0.97394 0.24976 0.49349 0.0
C994 C 0.95315 0.26708 0.48627 0.0
C995 C 0.92188 0.24862 0.47052 0.0
loop_
_geom_bond_atom_site_label_1
_geom_bond_atom_site_label_2
_geom_bond_distance
_geom_bond_site_symmetry_2
_ccdc_geom_bond_type
Co0 N4 2.148 . S
Co0 N10 2.128 . S
Co0 N20 2.194 . S
Co0 O25 2.351 . S
Co0 O26 2.155 . S
Co0 O27 2.096 . S
C1 N4 1.301 . S
C1 N5 1.328 . S
C1 H6 0.930 . S
C2 C3 1.333 . S
C2 N4 1.317 . S
C2 H7 0.930 . S
C3 C2 1.333 . S
C3 N5 1.350 . S
C3 H29 0.931 . S
N4 Co0 2.148 . S
N4 C1 1.301 . S
N4 C2 1.317 . S
N5 C1 1.328 . S
N5 C3 1.350 . S
H6 C1 0.930 . S
H7 C2 0.930 . S
C8 O9 1.224 . S
C8 O27 1.247 . S
O9 C8 1.224 . S
N10 Co0 2.128 . S
N10 C11 1.355 . S
N10 C13 1.311 . S
C11 N10 1.355 . S
C11 C12 1.363 . S
C11 H23 0.929 . S
C12 C11 1.363 . S
C12 N14 1.375 . S
C12 H30 0.931 . S
C13 N10 1.311 . S
C13 N14 1.347 . S
C13 H24 0.929 . S
N14 C12 1.375 . S
N14 C13 1.347 . S
C15 C18 1.365 . S
C15 N20 1.328 . S
C15 H21 0.929 . S
C16 C17 1.362 . S
C16 C19 1.378 . S
C16 H31 0.929 . S
C17 C16 1.362 . S
C17 C18 1.366 . S
C18 C15 1.365 . S
C18 C17 1.366 . S
C18 H32 0.930 . S
C19 C16 1.378 . S
C19 N20 1.315 . S
C19 H22 0.930 . S
N20 Co0 2.194 . S
N20 C15 1.328 . S
N20 C19 1.315 . S
H21 C15 0.929 . S
H22 C19 0.930 . S
H23 C11 0.929 . S
H24 C13 0.929 . S
O25 Co0 2.351 . S
O25 C28 1.244 . S
O26 Co0 2.155 . S
O26 C28 1.240 . S
O27 Co0 2.096 . S
O27 C8 1.247 . S
C28 O25 1.244 . S
C28 O26 1.240 . S
H29 C3 0.931 . S
H30 C12 0.931 . S
H31 C16 0.929 . S
H32 C18 0.930 . S
Co33 N37 2.148 . S
Co33 N43 2.128 . S
Co33 N53 2.194 . S
Co33 O58 2.351 . S
Co33 O59 2.155 . S
Co33 O60 2.096 . S
C34 N37 1.301 . S
C34 N38 1.328 . S
C34 H39 0.930 . S
C35 C36 1.333 . S
C35 N37 1.317 . S
C35 H40 0.930 . S
C36 C35 1.333 . S
C36 N38 1.350 . S
C36 H62 0.931 . S
N37 Co33 2.148 . S
N37 C34 1.301 . S
N37 C35 1.317 . S
N38 C34 1.328 . S
N38 C36 1.350 . S
H39 C34 0.930 . S
H40 C35 0.930 . S
C41 O42 1.224 . S
C41 O60 1.247 . S
O42 C41 1.224 . S
N43 Co33 2.128 . S
N43 C44 1.355 . S
N43 C46 1.311 . S
C44 N43 1.355 . S
C44 C45 1.363 . S
C44 H56 0.929 . S
C45 C44 1.363 . S
C45 N47 1.375 . S
C45 H63 0.931 . S
C46 N43 1.311 . S
C46 N47 1.347 . S
C46 H57 0.929 . S
N47 C45 1.375 . S
N47 C46 1.347 . S
C48 C51 1.365 . S
C48 N53 1.328 . S
C48 H54 0.929 . S
C49 C50 1.362 . S
C49 C52 1.378 . S
C49 H64 0.929 . S
C50 C49 1.362 . S
C50 C51 1.366 . S
C51 C48 1.365 . S
C51 C50 1.366 . S
C51 H65 0.930 . S
C52 C49 1.378 . S
C52 N53 1.315 . S
C52 H55 0.930 . S
N53 Co33 2.194 . S
N53 C48 1.328 . S
N53 C52 1.315 . S
H54 C48 0.929 . S
H55 C52 0.930 . S
H56 C44 0.929 . S
H57 C46 0.929 . S
O58 Co33 2.351 . S
O58 C61 1.244 . S
O59 Co33 2.155 . S
O59 C61 1.240 . S
O60 Co33 2.096 . S
O60 C41 1.247 . S
C61 O58 1.244 . S
C61 O59 1.240 . S
H62 C36 0.931 . S
H63 C45 0.931 . S
H64 C49 0.929 . S
H65 C51 0.930 . S
Co66 N70 2.148 . S
Co66 N76 2.128 . S
Co66 N86 2.194 . S
Co66 O91 2.351 . S
Co66 O92 2.155 . S
Co66 O93 2.096 . S
C67 N70 1.301 . S
C67 N71 1.328 . S
C67 H72 0.930 . S
C68 C69 1.333 . S
C68 N70 1.317 . S
C68 H73 0.930 . S
C69 C68 1.333 . S
C69 N71 1.350 . S
C69 H95 0.931 . S
N70 Co66 2.148 . S
N70 C67 1.301 . S
N70 C68 1.317 . S
N71 C67 1.328 . S
N71 C69 1.350 . S
H72 C67 0.930 . S
H73 C68 0.930 . S
C74 O75 1.224 . S
C74 O93 1.247 . S
O75 C74 1.224 . S
N76 Co66 2.128 . S
N76 C77 1.355 . S
N76 C79 1.311 . S
C77 N76 1.355 . S
C77 C78 1.363 . S
C77 H89 0.929 . S
C78 C77 1.363 . S
C78 N80 1.375 . S
C78 H96 0.931 . S
C79 N76 1.311 . S
C79 N80 1.347 . S
C79 H90 0.929 . S
N80 C78 1.375 . S
N80 C79 1.347 . S
C81 C84 1.365 . S
C81 N86 1.328 . S
C81 H87 0.929 . S
C82 C83 1.362 . S
C82 C85 1.378 . S
C82 H97 0.929 . S
C83 C82 1.362 . S
C83 C84 1.366 . S
C84 C81 1.365 . S
C84 C83 1.366 . S
C84 H98 0.930 . S
C85 C82 1.378 . S
C85 N86 1.315 . S
C85 H88 0.930 . S
N86 Co66 2.194 . S
N86 C81 1.328 . S
N86 C85 1.315 . S
H87 C81 0.929 . S
H88 C85 0.930 . S
H89 C77 0.929 . S
H90 C79 0.929 . S
O91 Co66 2.351 . S
O91 C94 1.244 . S
O92 Co66 2.155 . S
O92 C94 1.240 . S
O93 Co66 2.096 . S
O93 C74 1.247 . S
C94 O91 1.244 . S
C94 O92 1.240 . S
H95 C69 0.931 . S
H96 C78 0.931 . S
H97 C82 0.929 . S
H98 C84 0.930 . S
Co99 N103 2.148 . S
Co99 N109 2.128 . S
Co99 N119 2.194 . S
Co99 O124 2.351 . S
Co99 O125 2.155 . S
Co99 O126 2.096 . S
C100 N103 1.301 . S
C100 N104 1.328 . S
C100 H105 0.930 . S
C101 C102 1.333 . S
C101 N103 1.317 . S
C101 H106 0.930 . S
C102 C101 1.333 . S
C102 N104 1.350 . S
C102 H128 0.931 . S
N103 Co99 2.148 . S
N103 C100 1.301 . S
N103 C101 1.317 . S
N104 C100 1.328 . S
N104 C102 1.350 . S
H105 C100 0.930 . S
H106 C101 0.930 . S
C107 O108 1.224 . S
C107 O126 1.247 . S
O108 C107 1.224 . S
N109 Co99 2.128 . S
N109 C110 1.355 . S
N109 C112 1.311 . S
C110 N109 1.355 . S
C110 C111 1.363 . S
C110 H122 0.929 . S
C111 C110 1.363 . S
C111 N113 1.375 . S
C111 H129 0.931 . S
C112 N109 1.311 . S
C112 N113 1.347 . S
C112 H123 0.929 . S
N113 C111 1.375 . S
N113 C112 1.347 . S
C114 C117 1.365 . S
C114 N119 1.328 . S
C114 H120 0.929 . S
C115 C116 1.362 . S
C115 C118 1.378 . S
C115 H130 0.929 . S
C116 C115 1.362 . S
C116 C117 1.366 . S
C117 C114 1.365 . S
C117 C116 1.366 . S
C117 H131 0.930 . S
C118 C115 1.378 . S
C118 N119 1.315 . S
C118 H121 0.930 . S
N119 Co99 2.194 . S
N119 C114 1.328 . S
N119 C118 1.315 . S
H120 C114 0.929 . S
H121 C118 0.930 . S
H122 C110 0.929 . S
H123 C112 0.929 . S
O124 Co99 2.351 . S
O124 C127 1.244 . S
O125 Co99 2.155 . S
O125 C127 1.240 . S
O126 Co99 2.096 . S
O126 C107 1.247 . S
C127 O124 1.244 . S
C127 O125 1.240 . S
H128 C102 0.931 . S
H129 C111 0.931 . S
H130 C115 0.929 . S
H131 C117 0.930 . S
Co132 N136 2.148 . S
Co132 N142 2.128 . S
Co132 N152 2.194 . S
Co132 O157 2.351 . S
Co132 O158 2.155 . S
Co132 O159 2.096 . S
C133 N136 1.301 . S
C133 N137 1.328 . S
C133 H138 0.930 . S
C134 C135 1.333 . S
C134 N136 1.317 . S
C134 H139 0.930 . S
C135 C134 1.333 . S
C135 N137 1.350 . S
C135 H161 0.931 . S
N136 Co132 2.148 . S
N136 C133 1.301 . S
N136 C134 1.317 . S
N137 C133 1.328 . S
N137 C135 1.350 . S
H138 C133 0.930 . S
H139 C134 0.930 . S
C140 O141 1.224 . S
C140 O159 1.247 . S
O141 C140 1.224 . S
N142 Co132 2.128 . S
N142 C143 1.355 . S
N142 C145 1.311 . S
C143 N142 1.355 . S
C143 C144 1.363 . S
C143 H155 0.929 . S
C144 C143 1.363 . S
C144 N146 1.375 . S
C144 H162 0.931 . S
C145 N142 1.311 . S
C145 N146 1.347 . S
C145 H156 0.929 . S
N146 C144 1.375 . S
N146 C145 1.347 . S
C147 C150 1.365 . S
C147 N152 1.328 . S
C147 H153 0.929 . S
C148 C149 1.362 . S
C148 C151 1.378 . S
C148 H163 0.929 . S
C149 C148 1.362 . S
C149 C150 1.366 . S
C150 C147 1.365 . S
C150 C149 1.366 . S
C150 H164 0.930 . S
C151 C148 1.378 . S
C151 N152 1.315 . S
C151 H154 0.930 . S
N152 Co132 2.194 . S
N152 C147 1.328 . S
N152 C151 1.315 . S
H153 C147 0.929 . S
H154 C151 0.930 . S
H155 C143 0.929 . S
H156 C145 0.929 . S
O157 Co132 2.351 . S
O157 C160 1.244 . S
O158 Co132 2.155 . S
O158 C160 1.240 . S
O159 Co132 2.096 . S
O159 C140 1.247 . S
C160 O157 1.244 . S
C160 O158 1.240 . S
H161 C135 0.931 . S
H162 C144 0.931 . S
H163 C148 0.929 . S
H164 C150 0.930 . S
Co165 N169 2.148 . S
Co165 N175 2.128 . S
Co165 N185 2.194 . S
Co165 O190 2.351 . S
Co165 O191 2.155 . S
Co165 O192 2.096 . S
C166 N169 1.301 . S
C166 N170 1.328 . S
C166 H171 0.930 . S
C167 C168 1.333 . S
C167 N169 1.317 . S
C167 H172 0.930 . S
C168 C167 1.333 . S
C168 N170 1.350 . S
C168 H194 0.931 . S
N169 Co165 2.148 . S
N169 C166 1.301 . S
N169 C167 1.317 . S
N170 C166 1.328 . S
N170 C168 1.350 . S
H171 C166 0.930 . S
H172 C167 0.930 . S
C173 O174 1.224 . S
C173 O192 1.247 . S
O174 C173 1.224 . S
N175 Co165 2.128 . S
N175 C176 1.355 . S
N175 C178 1.311 . S
C176 N175 1.355 . S
C176 C177 1.363 . S
C176 H188 0.929 . S
C177 C176 1.363 . S
C177 N179 1.375 . S
C177 H195 0.931 . S
C178 N175 1.311 . S
C178 N179 1.347 . S
C178 H189 0.929 . S
N179 C177 1.375 . S
N179 C178 1.347 . S
C180 C183 1.365 . S
C180 N185 1.328 . S
C180 H186 0.929 . S
C181 C182 1.362 . S
C181 C184 1.378 . S
C181 H196 0.929 . S
C182 C181 1.362 . S
C182 C183 1.366 . S
C183 C180 1.365 . S
C183 C182 1.366 . S
C183 H197 0.930 . S
C184 C181 1.378 . S
C184 N185 1.315 . S
C184 H187 0.930 . S
N185 Co165 2.194 . S
N185 C180 1.328 . S
N185 C184 1.315 . S
H186 C180 0.929 . S
H187 C184 0.930 . S
H188 C176 0.929 . S
H189 C178 0.929 . S
O190 Co165 2.351 . S
O190 C193 1.244 . S
O191 Co165 2.155 . S
O191 C193 1.240 . S
O192 Co165 2.096 . S
O192 C173 1.247 . S
C193 O190 1.244 . S
C193 O191 1.240 . S
H194 C168 0.931 . S
H195 C177 0.931 . S
H196 C181 0.929 . S
H197 C183 0.930 . S
Co198 N202 2.148 . S
Co198 N208 2.128 . S
Co198 N218 2.194 . S
Co198 O223 2.351 . S
Co198 O224 2.155 . S
Co198 O225 2.096 . S
C199 N202 1.301 . S
C199 N203 1.328 . S
C199 H204 0.930 . S
C200 C201 1.333 . S
C200 N202 1.317 . S
C200 H205 0.930 . S
C201 C200 1.333 . S
C201 N203 1.350 . S
C201 H227 0.931 . S
N202 Co198 2.148 . S
N202 C199 1.301 . S
N202 C200 1.317 . S
N203 C199 1.328 . S
N203 C201 1.350 . S
H204 C199 0.930 . S
H205 C200 0.930 . S
C206 O207 1.224 . S
C206 O225 1.247 . S
O207 C206 1.224 . S
N208 Co198 2.128 . S
N208 C209 1.355 . S
N208 C211 1.311 . S
C209 N208 1.355 . S
C209 C210 1.363 . S
C209 H221 0.929 . S
C210 C209 1.363 . S
C210 N212 1.375 . S
C210 H228 0.931 . S
C211 N208 1.311 . S
C211 N212 1.347 . S
C211 H222 0.929 . S
N212 C210 1.375 . S
N212 C211 1.347 . S
C213 C216 1.365 . S
C213 N218 1.328 . S
C213 H219 0.929 . S
C214 C215 1.362 . S
C214 C217 1.378 . S
C214 H229 0.929 . S
C215 C214 1.362 . S
C215 C216 1.366 . S
C216 C213 1.365 . S
C216 C215 1.366 . S
C216 H230 0.930 . S
C217 C214 1.378 . S
C217 N218 1.315 . S
C217 H220 0.930 . S
N218 Co198 2.194 . S
N218 C213 1.328 . S
N218 C217 1.315 . S
H219 C213 0.929 . S
H220 C217 0.930 . S
H221 C209 0.929 . S
H222 C211 0.929 . S
O223 Co198 2.351 . S
O223 C226 1.244 . S
O224 Co198 2.155 . S
O224 C226 1.240 . S
O225 Co198 2.096 . S
O225 C206 1.247 . S
C226 O223 1.244 . S
C226 O224 1.240 . S
H227 C201 0.931 . S
H228 C210 0.931 . S
H229 C214 0.929 . S
H230 C216 0.930 . S
Co231 N235 2.148 . S
Co231 N241 2.128 . S
Co231 N251 2.194 . S
Co231 O256 2.351 . S
Co231 O257 2.155 . S
Co231 O258 2.096 . S
C232 N235 1.301 . S
C232 N236 1.328 . S
C232 H237 0.930 . S
C233 C234 1.333 . S
C233 N235 1.317 . S
C233 H238 0.930 . S
C234 C233 1.333 . S
C234 N236 1.350 . S
C234 H260 0.931 . S
N235 Co231 2.148 . S
N235 C232 1.301 . S
N235 C233 1.317 . S
N236 C232 1.328 . S
N236 C234 1.350 . S
H237 C232 0.930 . S
H238 C233 0.930 . S
C239 O240 1.224 . S
C239 O258 1.247 . S
O240 C239 1.224 . S
N241 Co231 2.128 . S
N241 C242 1.355 . S
N241 C244 1.311 . S
C242 N241 1.355 . S
C242 C243 1.363 . S
C242 H254 0.929 . S
C243 C242 1.363 . S
C243 N245 1.375 . S
C243 H261 0.931 . S
C244 N241 1.311 . S
C244 N245 1.347 . S
C244 H255 0.929 . S
N245 C243 1.375 . S
N245 C244 1.347 . S
C246 C249 1.365 . S
C246 N251 1.328 . S
C246 H252 0.929 . S
C247 C248 1.362 . S
C247 C250 1.378 . S
C247 H262 0.929 . S
C248 C247 1.362 . S
C248 C249 1.366 . S
C249 C246 1.365 . S
C249 C248 1.366 . S
C249 H263 0.930 . S
C250 C247 1.378 . S
C250 N251 1.315 . S
C250 H253 0.930 . S
N251 Co231 2.194 . S
N251 C246 1.328 . S
N251 C250 1.315 . S
H252 C246 0.929 . S
H253 C250 0.930 . S
H254 C242 0.929 . S
H255 C244 0.929 . S
O256 Co231 2.351 . S
O256 C259 1.244 . S
O257 Co231 2.155 . S
O257 C259 1.240 . S
O258 Co231 2.096 . S
O258 C239 1.247 . S
C259 O256 1.244 . S
C259 O257 1.240 . S
H260 C234 0.931 . S
H261 C243 0.931 . S
H262 C247 0.929 . S
H263 C249 0.930 . S
Co264 N268 2.148 . S
Co264 N274 2.128 . S
Co264 N284 2.194 . S
Co264 O289 2.351 . S
Co264 O290 2.155 . S
Co264 O291 2.096 . S
C265 N268 1.301 . S
C265 N269 1.328 . S
C265 H270 0.930 . S
C266 C267 1.333 . S
C266 N268 1.317 . S
C266 H271 0.930 . S
C267 C266 1.333 . S
C267 N269 1.350 . S
C267 H293 0.931 . S
N268 Co264 2.148 . S
N268 C265 1.301 . S
N268 C266 1.317 . S
N269 C265 1.328 . S
N269 C267 1.350 . S
H270 C265 0.930 . S
H271 C266 0.930 . S
C272 O273 1.224 . S
C272 O291 1.247 . S
O273 C272 1.224 . S
N274 Co264 2.128 . S
N274 C275 1.355 . S
N274 C277 1.311 . S
C275 N274 1.355 . S
C275 C276 1.363 . S
C275 H287 0.929 . S
C276 C275 1.363 . S
C276 N278 1.375 . S
C276 H294 0.931 . S
C277 N274 1.311 . S
C277 N278 1.347 . S
C277 H288 0.929 . S
N278 C276 1.375 . S
N278 C277 1.347 . S
C279 C282 1.365 . S
C279 N284 1.328 . S
C279 H285 0.929 . S
C280 C281 1.362 . S
C280 C283 1.378 . S
C280 H295 0.929 . S
C281 C280 1.362 . S
C281 C282 1.366 . S
C282 C279 1.365 . S
C282 C281 1.366 . S
C282 H296 0.930 . S
C283 C280 1.378 . S
C283 N284 1.315 . S
C283 H286 0.930 . S
N284 Co264 2.194 . S
N284 C279 1.328 . S
N284 C283 1.315 . S
H285 C279 0.929 . S
H286 C283 0.930 . S
H287 C275 0.929 . S
H288 C277 0.929 . S
O289 Co264 2.351 . S
O289 C292 1.244 . S
O290 Co264 2.155 . S
O290 C292 1.240 . S
O291 Co264 2.096 . S
O291 C272 1.247 . S
C292 O289 1.244 . S
C292 O290 1.240 . S
H293 C267 0.931 . S
H294 C276 0.931 . S
H295 C280 0.929 . S
H296 C282 0.930 . S
Co297 N301 2.148 . S
Co297 N307 2.128 . S
Co297 N317 2.194 . S
Co297 O322 2.351 . S
Co297 O323 2.155 . S
Co297 O324 2.096 . S
C298 N301 1.301 . S
C298 N302 1.328 . S
C298 H303 0.930 . S
C299 C300 1.333 . S
C299 N301 1.317 . S
C299 H304 0.930 . S
C300 C299 1.333 . S
C300 N302 1.350 . S
C300 H326 0.931 . S
N301 Co297 2.148 . S
N301 C298 1.301 . S
N301 C299 1.317 . S
N302 C298 1.328 . S
N302 C300 1.350 . S
H303 C298 0.930 . S
H304 C299 0.930 . S
C305 O306 1.224 . S
C305 O324 1.247 . S
O306 C305 1.224 . S
N307 Co297 2.128 . S
N307 C308 1.355 . S
N307 C310 1.311 . S
C308 N307 1.355 . S
C308 C309 1.363 . S
C308 H320 0.929 . S
C309 C308 1.363 . S
C309 N311 1.375 . S
C309 H327 0.931 . S
C310 N307 1.311 . S
C310 N311 1.347 . S
C310 H321 0.929 . S
N311 C309 1.375 . S
N311 C310 1.347 . S
C312 C315 1.365 . S
C312 N317 1.328 . S
C312 H318 0.929 . S
C313 C314 1.362 . S
C313 C316 1.378 . S
C313 H328 0.929 . S
C314 C313 1.362 . S
C314 C315 1.366 . S
C315 C312 1.365 . S
C315 C314 1.366 . S
C315 H329 0.930 . S
C316 C313 1.378 . S
C316 N317 1.315 . S
C316 H319 0.930 . S
N317 Co297 2.194 . S
N317 C312 1.328 . S
N317 C316 1.315 . S
H318 C312 0.929 . S
H319 C316 0.930 . S
H320 C308 0.929 . S
H321 C310 0.929 . S
O322 Co297 2.351 . S
O322 C325 1.244 . S
O323 Co297 2.155 . S
O323 C325 1.240 . S
O324 Co297 2.096 . S
O324 C305 1.247 . S
C325 O322 1.244 . S
C325 O323 1.240 . S
H326 C300 0.931 . S
H327 C309 0.931 . S
H328 C313 0.929 . S
H329 C315 0.930 . S
Co330 N334 2.148 . S
Co330 N340 2.128 . S
Co330 N350 2.194 . S
Co330 O355 2.351 . S
Co330 O356 2.155 . S
Co330 O357 2.096 . S
C331 N334 1.301 . S
C331 N335 1.328 . S
C331 H336 0.930 . S
C332 C333 1.333 . S
C332 N334 1.317 . S
C332 H337 0.930 . S
C333 C332 1.333 . S
C333 N335 1.350 . S
C333 H359 0.931 . S
N334 Co330 2.148 . S
N334 C331 1.301 . S
N334 C332 1.317 . S
N335 C331 1.328 . S
N335 C333 1.350 . S
H336 C331 0.930 . S
H337 C332 0.930 . S
C338 O339 1.224 . S
C338 O357 1.247 . S
O339 C338 1.224 . S
N340 Co330 2.128 . S
N340 C341 1.355 . S
N340 C343 1.311 . S
C341 N340 1.355 . S
C341 C342 1.363 . S
C341 H353 0.929 . S
C342 C341 1.363 . S
C342 N344 1.375 . S
C342 H360 0.931 . S
C343 N340 1.311 . S
C343 N344 1.347 . S
C343 H354 0.929 . S
N344 C342 1.375 . S
N344 C343 1.347 . S
C345 C348 1.365 . S
C345 N350 1.328 . S
C345 H351 0.929 . S
C346 C347 1.362 . S
C346 C349 1.378 . S
C346 H361 0.929 . S
C347 C346 1.362 . S
C347 C348 1.366 . S
C348 C345 1.365 . S
C348 C347 1.366 . S
C348 H362 0.930 . S
C349 C346 1.378 . S
C349 N350 1.315 . S
C349 H352 0.930 . S
N350 Co330 2.194 . S
N350 C345 1.328 . S
N350 C349 1.315 . S
H351 C345 0.929 . S
H352 C349 0.930 . S
H353 C341 0.929 . S
H354 C343 0.929 . S
O355 Co330 2.351 . S
O355 C358 1.244 . S
O356 Co330 2.155 . S
O356 C358 1.240 . S
O357 Co330 2.096 . S
O357 C338 1.247 . S
C358 O355 1.244 . S
C358 O356 1.240 . S
H359 C333 0.931 . S
H360 C342 0.931 . S
H361 C346 0.929 . S
H362 C348 0.930 . S
Co363 N367 2.148 . S
Co363 N373 2.128 . S
Co363 N383 2.194 . S
Co363 O388 2.351 . S
Co363 O389 2.155 . S
Co363 O390 2.096 . S
C364 N367 1.301 . S
C364 N368 1.328 . S
C364 H369 0.930 . S
C365 C366 1.333 . S
C365 N367 1.317 . S
C365 H370 0.930 . S
C366 C365 1.333 . S
C366 N368 1.350 . S
C366 H392 0.931 . S
N367 Co363 2.148 . S
N367 C364 1.301 . S
N367 C365 1.317 . S
N368 C364 1.328 . S
N368 C366 1.350 . S
H369 C364 0.930 . S
H370 C365 0.930 . S
C371 O372 1.224 . S
C371 O390 1.247 . S
O372 C371 1.224 . S
N373 Co363 2.128 . S
N373 C374 1.355 . S
N373 C376 1.311 . S
C374 N373 1.355 . S
C374 C375 1.363 . S
C374 H386 0.929 . S
C375 C374 1.363 . S
C375 N377 1.375 . S
C375 H393 0.931 . S
C376 N373 1.311 . S
C376 N377 1.347 . S
C376 H387 0.929 . S
N377 C375 1.375 . S
N377 C376 1.347 . S
C378 C381 1.365 . S
C378 N383 1.328 . S
C378 H384 0.929 . S
C379 C380 1.362 . S
C379 C382 1.378 . S
C379 H394 0.929 . S
C380 C379 1.362 . S
C380 C381 1.366 . S
C381 C378 1.365 . S
C381 C380 1.366 . S
C381 H395 0.930 . S
C382 C379 1.378 . S
C382 N383 1.315 . S
C382 H385 0.930 . S
N383 Co363 2.194 . S
N383 C378 1.328 . S
N383 C382 1.315 . S
H384 C378 0.929 . S
H385 C382 0.930 . S
H386 C374 0.929 . S
H387 C376 0.929 . S
O388 Co363 2.351 . S
O388 C391 1.244 . S
O389 Co363 2.155 . S
O389 C391 1.240 . S
O390 Co363 2.096 . S
O390 C371 1.247 . S
C391 O388 1.244 . S
C391 O389 1.240 . S
H392 C366 0.931 . S
H393 C375 0.931 . S
H394 C379 0.929 . S
H395 C381 0.930 . S
H396 C404 0.950 . S
H397 C409 0.950 . S
H398 C406 0.950 . S
H399 C408 0.950 . S
H400 C410 0.950 . S
H401 C412 0.950 . S
H402 C414 0.950 . S
H403 C415 0.950 . S
C404 H396 0.950 . S
C404 C405 1.386 . S
C404 C406 1.391 . S
C405 C404 1.386 . S
C405 C409 1.393 . S
C406 H398 0.950 . S
C406 C404 1.391 . S
C406 C407 1.400 . S
C407 C406 1.400 . S
C407 C408 1.398 . S
C407 C413 1.491 . S
C408 H399 0.950 . S
C408 C407 1.398 . S
C408 C409 1.391 . S
C409 H397 0.950 . S
C409 C405 1.393 . S
C409 C408 1.391 . S
C410 H400 0.950 . S
C410 C411 1.386 . S
C410 C412 1.391 . S
C411 C410 1.386 . S
C411 C415 1.393 . S
C412 H401 0.950 . S
C412 C410 1.391 . S
C412 C413 1.400 . S
C413 C407 1.491 . S
C413 C412 1.400 . S
C413 C414 1.398 . S
C414 H402 0.950 . S
C414 C413 1.398 . S
C414 C415 1.391 . S
C415 H403 0.950 . S
C415 C411 1.393 . S
C415 C414 1.391 . S
H416 C424 0.950 . S
H417 C429 0.950 . S
H418 C426 0.950 . S
H419 C428 0.950 . S
H420 C430 0.950 . S
H421 C432 0.950 . S
H422 C434 0.950 . S
H423 C435 0.950 . S
C424 H416 0.950 . S
C424 C425 1.386 . S
C424 C426 1.391 . S
C425 C424 1.386 . S
C425 C429 1.393 . S
C426 H418 0.950 . S
C426 C424 1.391 . S
C426 C427 1.400 . S
C427 C426 1.400 . S
C427 C428 1.398 . S
C427 C433 1.491 . S
C428 H419 0.950 . S
C428 C427 1.398 . S
C428 C429 1.391 . S
C429 H417 0.950 . S
C429 C425 1.393 . S
C429 C428 1.391 . S
C430 H420 0.950 . S
C430 C431 1.386 . S
C430 C432 1.391 . S
C431 C430 1.386 . S
C431 C435 1.393 . S
C432 H421 0.950 . S
C432 C430 1.391 . S
C432 C433 1.400 . S
C433 C427 1.491 . S
C433 C432 1.400 . S
C433 C434 1.398 . S
C434 H422 0.950 . S
C434 C433 1.398 . S
C434 C435 1.391 . S
C435 H423 0.950 . S
C435 C431 1.393 . S
C435 C434 1.391 . S
H436 C444 0.950 . S
H437 C449 0.950 . S
H438 C446 0.950 . S
H439 C448 0.950 . S
H440 C450 0.950 . S
H441 C452 0.950 . S
H442 C454 0.950 . S
H443 C455 0.950 . S
C444 H436 0.950 . S
C444 C445 1.386 . S
C444 C446 1.391 . S
C445 C444 1.386 . S
C445 C449 1.393 . S
C446 H438 0.950 . S
C446 C444 1.391 . S
C446 C447 1.400 . S
C447 C446 1.400 . S
C447 C448 1.398 . S
C447 C453 1.491 . S
C448 H439 0.950 . S
C448 C447 1.398 . S
C448 C449 1.391 . S
C449 H437 0.950 . S
C449 C445 1.393 . S
C449 C448 1.391 . S
C450 H440 0.950 . S
C450 C451 1.386 . S
C450 C452 1.391 . S
C451 C450 1.386 . S
C451 C455 1.393 . S
C452 H441 0.950 . S
C452 C450 1.391 . S
C452 C453 1.400 . S
C453 C447 1.491 . S
C453 C452 1.400 . S
C453 C454 1.398 . S
C454 H442 0.950 . S
C454 C453 1.398 . S
C454 C455 1.391 . S
C455 H443 0.950 . S
C455 C451 1.393 . S
C455 C454 1.391 . S
H456 C464 0.950 . S
H457 C469 0.950 . S
H458 C466 0.950 . S
H459 C468 0.950 . S
H460 C470 0.950 . S
H461 C472 0.950 . S
H462 C474 0.950 . S
H463 C475 0.950 . S
C464 H456 0.950 . S
C464 C465 1.386 . S
C464 C466 1.391 . S
C465 C464 1.386 . S
C465 C469 1.393 . S
C466 H458 0.950 . S
C466 C464 1.391 . S
C466 C467 1.400 . S
C467 C466 1.400 . S
C467 C468 1.398 . S
C467 C473 1.491 . S
C468 H459 0.950 . S
C468 C467 1.398 . S
C468 C469 1.391 . S
C469 H457 0.950 . S
C469 C465 1.393 . S
C469 C468 1.391 . S
C470 H460 0.950 . S
C470 C471 1.386 . S
C470 C472 1.391 . S
C471 C470 1.386 . S
C471 C475 1.393 . S
C472 H461 0.950 . S
C472 C470 1.391 . S
C472 C473 1.400 . S
C473 C467 1.491 . S
C473 C472 1.400 . S
C473 C474 1.398 . S
C474 H462 0.950 . S
C474 C473 1.398 . S
C474 C475 1.391 . S
C475 H463 0.950 . S
C475 C471 1.393 . S
C475 C474 1.391 . S
H476 C484 0.950 . S
H477 C489 0.950 . S
H478 C486 0.950 . S
H479 C488 0.950 . S
H480 C490 0.950 . S
H481 C492 0.950 . S
H482 C494 0.950 . S
H483 C495 0.950 . S
C484 H476 0.950 . S
C484 C485 1.386 . S
C484 C486 1.391 . S
C485 C484 1.386 . S
C485 C489 1.393 . S
C486 H478 0.950 . S
C486 C484 1.391 . S
C486 C487 1.400 . S
C487 C486 1.400 . S
C487 C488 1.398 . S
C487 C493 1.491 . S
C488 H479 0.950 . S
C488 C487 1.398 . S
C488 C489 1.391 . S
C489 H477 0.950 . S
C489 C485 1.393 . S
C489 C488 1.391 . S
C490 H480 0.950 . S
C490 C491 1.386 . S
C490 C492 1.391 . S
C491 C490 1.386 . S
C491 C495 1.393 . S
C492 H481 0.950 . S
C492 C490 1.391 . S
C492 C493 1.400 . S
C493 C487 1.491 . S
C493 C492 1.400 . S
C493 C494 1.398 . S
C494 H482 0.950 . S
C494 C493 1.398 . S
C494 C495 1.391 . S
C495 H483 0.950 . S
C495 C491 1.393 . S
C495 C494 1.391 . S
H496 C504 0.950 . S
H497 C509 0.950 . S
H498 C506 0.950 . S
H499 C508 0.950 . S
H500 C510 0.950 . S
H501 C512 0.950 . S
H502 C514 0.950 . S
H503 C515 0.950 . S
C504 H496 0.950 . S
C504 C505 1.386 . S
C504 C506 1.391 . S
C505 C504 1.386 . S
C505 C509 1.393 . S
C506 H498 0.950 . S
C506 C504 1.391 . S
C506 C507 1.400 . S
C507 C506 1.400 . S
C507 C508 1.398 . S
C507 C513 1.491 . S
C508 H499 0.950 . S
C508 C507 1.398 . S
C508 C509 1.391 . S
C509 H497 0.950 . S
C509 C505 1.393 . S
C509 C508 1.391 . S
C510 H500 0.950 . S
C510 C511 1.386 . S
C510 C512 1.391 . S
C511 C510 1.386 . S
C511 C515 1.393 . S
C512 H501 0.950 . S
C512 C510 1.391 . S
C512 C513 1.400 . S
C513 C507 1.491 . S
C513 C512 1.400 . S
C513 C514 1.398 . S
C514 H502 0.950 . S
C514 C513 1.398 . S
C514 C515 1.391 . S
C515 H503 0.950 . S
C515 C511 1.393 . S
C515 C514 1.391 . S
H516 C524 0.950 . S
H517 C529 0.950 . S
H518 C526 0.950 . S
H519 C528 0.950 . S
H520 C530 0.950 . S
H521 C532 0.950 . S
H522 C534 0.950 . S
H523 C535 0.950 . S
C524 H516 0.950 . S
C524 C525 1.386 . S
C524 C526 1.391 . S
C525 C524 1.386 . S
C525 C529 1.393 . S
C526 H518 0.950 . S
C526 C524 1.391 . S
C526 C527 1.400 . S
C527 C526 1.400 . S
C527 C528 1.398 . S
C527 C533 1.491 . S
C528 H519 0.950 . S
C528 C527 1.398 . S
C528 C529 1.391 . S
C529 H517 0.950 . S
C529 C525 1.393 . S
C529 C528 1.391 . S
C530 H520 0.950 . S
C530 C531 1.386 . S
C530 C532 1.391 . S
C531 C530 1.386 . S
C531 C535 1.393 . S
C532 H521 0.950 . S
C532 C530 1.391 . S
C532 C533 1.400 . S
C533 C527 1.491 . S
C533 C532 1.400 . S
C533 C534 1.398 . S
C534 H522 0.950 . S
C534 C533 1.398 . S
C534 C535 1.391 . S
C535 H523 0.950 . S
C535 C531 1.393 . S
C535 C534 1.391 . S
H536 C544 0.950 . S
H537 C549 0.950 . S
H538 C546 0.950 . S
H539 C548 0.950 . S
H540 C550 0.950 . S
H541 C552 0.950 . S
H542 C554 0.950 . S
H543 C555 0.950 . S
C544 H536 0.950 . S
C544 C545 1.386 . S
C544 C546 1.391 . S
C545 C544 1.386 . S
C545 C549 1.393 . S
C546 H538 0.950 . S
C546 C544 1.391 . S
C546 C547 1.400 . S
C547 C546 1.400 . S
C547 C548 1.398 . S
C547 C553 1.491 . S
C548 H539 0.950 . S
C548 C547 1.398 . S
C548 C549 1.391 . S
C549 H537 0.950 . S
C549 C545 1.393 . S
C549 C548 1.391 . S
C550 H540 0.950 . S
C550 C551 1.386 . S
C550 C552 1.391 . S
C551 C550 1.386 . S
C551 C555 1.393 . S
C552 H541 0.950 . S
C552 C550 1.391 . S
C552 C553 1.400 . S
C553 C547 1.491 . S
C553 C552 1.400 . S
C553 C554 1.398 . S
C554 H542 0.950 . S
C554 C553 1.398 . S
C554 C555 1.391 . S
C555 H543 0.950 . S
C555 C551 1.393 . S
C555 C554 1.391 . S
H556 C564 0.950 . S
H557 C569 0.950 . S
H558 C566 0.950 . S
H559 C568 0.950 . S
H560 C570 0.950 . S
H561 C572 0.950 . S
H562 C574 0.950 . S
H563 C575 0.950 . S
C564 H556 0.950 . S
C564 C565 1.386 . S
C564 C566 1.391 . S
C565 C564 1.386 . S
C565 C569 1.393 . S
C566 H558 0.950 . S
C566 C564 1.391 . S
C566 C567 1.400 . S
C567 C566 1.400 . S
C567 C568 1.398 . S
C567 C573 1.491 . S
C568 H559 0.950 . S
C568 C567 1.398 . S
C568 C569 1.391 . S
C569 H557 0.950 . S
C569 C565 1.393 . S
C569 C568 1.391 . S
C570 H560 0.950 . S
C570 C571 1.386 . S
C570 C572 1.391 . S
C571 C570 1.386 . S
C571 C575 1.393 . S
C572 H561 0.950 . S
C572 C570 1.391 . S
C572 C573 1.400 . S
C573 C567 1.491 . S
C573 C572 1.400 . S
C573 C574 1.398 . S
C574 H562 0.950 . S
C574 C573 1.398 . S
C574 C575 1.391 . S
C575 H563 0.950 . S
C575 C571 1.393 . S
C575 C574 1.391 . S
H576 C584 0.950 . S
H577 C589 0.950 . S
H578 C586 0.950 . S
H579 C588 0.950 . S
H580 C590 0.950 . S
H581 C592 0.950 . S
H582 C594 0.950 . S
H583 C595 0.950 . S
C584 H576 0.950 . S
C584 C585 1.386 . S
C584 C586 1.391 . S
C585 C584 1.386 . S
C585 C589 1.393 . S
C586 H578 0.950 . S
C586 C584 1.391 . S
C586 C587 1.400 . S
C587 C586 1.400 . S
C587 C588 1.398 . S
C587 C593 1.491 . S
C588 H579 0.950 . S
C588 C587 1.398 . S
C588 C589 1.391 . S
C589 H577 0.950 . S
C589 C585 1.393 . S
C589 C588 1.391 . S
C590 H580 0.950 . S
C590 C591 1.386 . S
C590 C592 1.391 . S
C591 C590 1.386 . S
C591 C595 1.393 . S
C592 H581 0.950 . S
C592 C590 1.391 . S
C592 C593 1.400 . S
C593 C587 1.491 . S
C593 C592 1.400 . S
C593 C594 1.398 . S
C594 H582 0.950 . S
C594 C593 1.398 . S
C594 C595 1.391 . S
C595 H583 0.950 . S
C595 C591 1.393 . S
C595 C594 1.391 . S
H596 C604 0.950 . S
H597 C609 0.950 . S
H598 C606 0.950 . S
H599 C608 0.950 . S
H600 C610 0.950 . S
H601 C612 0.950 . S
H602 C614 0.950 . S
H603 C615 0.950 . S
C604 H596 0.950 . S
C604 C605 1.386 . S
C604 C606 1.391 . S
C605 C604 1.386 . S
C605 C609 1.393 . S
C606 H598 0.950 . S
C606 C604 1.391 . S
C606 C607 1.400 . S
C607 C606 1.400 . S
C607 C608 1.398 . S
C607 C613 1.491 . S
C608 H599 0.950 . S
C608 C607 1.398 . S
C608 C609 1.391 . S
C609 H597 0.950 . S
C609 C605 1.393 . S
C609 C608 1.391 . S
C610 H600 0.950 . S
C610 C611 1.386 . S
C610 C612 1.391 . S
C611 C610 1.386 . S
C611 C615 1.393 . S
C612 H601 0.950 . S
C612 C610 1.391 . S
C612 C613 1.400 . S
C613 C607 1.491 . S
C613 C612 1.400 . S
C613 C614 1.398 . S
C614 H602 0.950 . S
C614 C613 1.398 . S
C614 C615 1.391 . S
C615 H603 0.950 . S
C615 C611 1.393 . S
C615 C614 1.391 . S
H616 C624 0.950 . S
H617 C629 0.950 . S
H618 C626 0.950 . S
H619 C628 0.950 . S
H620 C630 0.950 . S
H621 C632 0.950 . S
H622 C634 0.950 . S
H623 C635 0.950 . S
C624 H616 0.950 . S
C624 C625 1.386 . S
C624 C626 1.391 . S
C625 C624 1.386 . S
C625 C629 1.393 . S
C626 H618 0.950 . S
C626 C624 1.391 . S
C626 C627 1.400 . S
C627 C626 1.400 . S
C627 C628 1.398 . S
C627 C633 1.491 . S
C628 H619 0.950 . S
C628 C627 1.398 . S
C628 C629 1.391 . S
C629 H617 0.950 . S
C629 C625 1.393 . S
C629 C628 1.391 . S
C630 H620 0.950 . S
C630 C631 1.386 . S
C630 C632 1.391 . S
C631 C630 1.386 . S
C631 C635 1.393 . S
C632 H621 0.950 . S
C632 C630 1.391 . S
C632 C633 1.400 . S
C633 C627 1.491 . S
C633 C632 1.400 . S
C633 C634 1.398 . S
C634 H622 0.950 . S
C634 C633 1.398 . S
C634 C635 1.391 . S
C635 H623 0.950 . S
C635 C631 1.393 . S
C635 C634 1.391 . S
H636 C644 0.950 . S
H637 C649 0.950 . S
H638 C646 0.950 . S
H639 C648 0.950 . S
H640 C650 0.950 . S
H641 C652 0.950 . S
H642 C654 0.950 . S
H643 C655 0.950 . S
C644 H636 0.950 . S
C644 C645 1.386 . S
C644 C646 1.391 . S
C645 C644 1.386 . S
C645 C649 1.393 . S
C646 H638 0.950 . S
C646 C644 1.391 . S
C646 C647 1.400 . S
C647 C646 1.400 . S
C647 C648 1.398 . S
C647 C653 1.491 . S
C648 H639 0.950 . S
C648 C647 1.398 . S
C648 C649 1.391 . S
C649 H637 0.950 . S
C649 C645 1.393 . S
C649 C648 1.391 . S
C650 H640 0.950 . S
C650 C651 1.386 . S
C650 C652 1.391 . S
C651 C650 1.386 . S
C651 C655 1.393 . S
C652 H641 0.950 . S
C652 C650 1.391 . S
C652 C653 1.400 . S
C653 C647 1.491 . S
C653 C652 1.400 . S
C653 C654 1.398 . S
C654 H642 0.950 . S
C654 C653 1.398 . S
C654 C655 1.391 . S
C655 H643 0.950 . S
C655 C651 1.393 . S
C655 C654 1.391 . S
H656 C664 0.950 . S
H657 C669 0.950 . S
H658 C666 0.950 . S
H659 C668 0.950 . S
H660 C670 0.950 . S
H661 C672 0.950 . S
H662 C674 0.950 . S
H663 C675 0.950 . S
C664 H656 0.950 . S
C664 C665 1.386 . S
C664 C666 1.391 . S
C665 C664 1.386 . S
C665 C669 1.393 . S
C666 H658 0.950 . S
C666 C664 1.391 . S
C666 C667 1.400 . S
C667 C666 1.400 . S
C667 C668 1.398 . S
C667 C673 1.491 . S
C668 H659 0.950 . S
C668 C667 1.398 . S
C668 C669 1.391 . S
C669 H657 0.950 . S
C669 C665 1.393 . S
C669 C668 1.391 . S
C670 H660 0.950 . S
C670 C671 1.386 . S
C670 C672 1.391 . S
C671 C670 1.386 . S
C671 C675 1.393 . S
C672 H661 0.950 . S
C672 C670 1.391 . S
C672 C673 1.400 . S
C673 C667 1.491 . S
C673 C672 1.400 . S
C673 C674 1.398 . S
C674 H662 0.950 . S
C674 C673 1.398 . S
C674 C675 1.391 . S
C675 H663 0.950 . S
C675 C671 1.393 . S
C675 C674 1.391 . S
H676 C684 0.950 . S
H677 C689 0.950 . S
H678 C686 0.950 . S
H679 C688 0.950 . S
H680 C690 0.950 . S
H681 C692 0.950 . S
H682 C694 0.950 . S
H683 C695 0.950 . S
C684 H676 0.950 . S
C684 C685 1.386 . S
C684 C686 1.391 . S
C685 C684 1.386 . S
C685 C689 1.393 . S
C686 H678 0.950 . S
C686 C684 1.391 . S
C686 C687 1.400 . S
C687 C686 1.400 . S
C687 C688 1.398 . S
C687 C693 1.491 . S
C688 H679 0.950 . S
C688 C687 1.398 . S
C688 C689 1.391 . S
C689 H677 0.950 . S
C689 C685 1.393 . S
C689 C688 1.391 . S
C690 H680 0.950 . S
C690 C691 1.386 . S
C690 C692 1.391 . S
C691 C690 1.386 . S
C691 C695 1.393 . S
C692 H681 0.950 . S
C692 C690 1.391 . S
C692 C693 1.400 . S
C693 C687 1.491 . S
C693 C692 1.400 . S
C693 C694 1.398 . S
C694 H682 0.950 . S
C694 C693 1.398 . S
C694 C695 1.391 . S
C695 H683 0.950 . S
C695 C691 1.393 . S
C695 C694 1.391 . S
H696 C704 0.950 . S
H697 C709 0.950 . S
H698 C706 0.950 . S
H699 C708 0.950 . S
H700 C710 0.950 . S
H701 C712 0.950 . S
H702 C714 0.950 . S
H703 C715 0.950 . S
C704 H696 0.950 . S
C704 C705 1.386 . S
C704 C706 1.391 . S
C705 C704 1.386 . S
C705 C709 1.393 . S
C706 H698 0.950 . S
C706 C704 1.391 . S
C706 C707 1.400 . S
C707 C706 1.400 . S
C707 C708 1.398 . S
C707 C713 1.491 . S
C708 H699 0.950 . S
C708 C707 1.398 . S
C708 C709 1.391 . S
C709 H697 0.950 . S
C709 C705 1.393 . S
C709 C708 1.391 . S
C710 H700 0.950 . S
C710 C711 1.386 . S
C710 C712 1.391 . S
C711 C710 1.386 . S
C711 C715 1.393 . S
C712 H701 0.950 . S
C712 C710 1.391 . S
C712 C713 1.400 . S
C713 C707 1.491 . S
C713 C712 1.400 . S
C713 C714 1.398 . S
C714 H702 0.950 . S
C714 C713 1.398 . S
C714 C715 1.391 . S
C715 H703 0.950 . S
C715 C711 1.393 . S
C715 C714 1.391 . S
H716 C724 0.950 . S
H717 C729 0.950 . S
H718 C726 0.950 . S
H719 C728 0.950 . S
H720 C730 0.950 . S
H721 C732 0.950 . S
H722 C734 0.950 . S
H723 C735 0.950 . S
C724 H716 0.950 . S
C724 C725 1.386 . S
C724 C726 1.391 . S
C725 C724 1.386 . S
C725 C729 1.393 . S
C726 H718 0.950 . S
C726 C724 1.391 . S
C726 C727 1.400 . S
C727 C726 1.400 . S
C727 C728 1.398 . S
C727 C733 1.491 . S
C728 H719 0.950 . S
C728 C727 1.398 . S
C728 C729 1.391 . S
C729 H717 0.950 . S
C729 C725 1.393 . S
C729 C728 1.391 . S
C730 H720 0.950 . S
C730 C731 1.386 . S
C730 C732 1.391 . S
C731 C730 1.386 . S
C731 C735 1.393 . S
C732 H721 0.950 . S
C732 C730 1.391 . S
C732 C733 1.400 . S
C733 C727 1.491 . S
C733 C732 1.400 . S
C733 C734 1.398 . S
C734 H722 0.950 . S
C734 C733 1.398 . S
C734 C735 1.391 . S
C735 H723 0.950 . S
C735 C731 1.393 . S
C735 C734 1.391 . S
H736 C744 0.950 . S
H737 C749 0.950 . S
H738 C746 0.950 . S
H739 C748 0.950 . S
H740 C750 0.950 . S
H741 C752 0.950 . S
H742 C754 0.950 . S
H743 C755 0.950 . S
C744 H736 0.950 . S
C744 C745 1.386 . S
C744 C746 1.391 . S
C745 C744 1.386 . S
C745 C749 1.393 . S
C746 H738 0.950 . S
C746 C744 1.391 . S
C746 C747 1.400 . S
C747 C746 1.400 . S
C747 C748 1.398 . S
C747 C753 1.491 . S
C748 H739 0.950 . S
C748 C747 1.398 . S
C748 C749 1.391 . S
C749 H737 0.950 . S
C749 C745 1.393 . S
C749 C748 1.391 . S
C750 H740 0.950 . S
C750 C751 1.386 . S
C750 C752 1.391 . S
C751 C750 1.386 . S
C751 C755 1.393 . S
C752 H741 0.950 . S
C752 C750 1.391 . S
C752 C753 1.400 . S
C753 C747 1.491 . S
C753 C752 1.400 . S
C753 C754 1.398 . S
C754 H742 0.950 . S
C754 C753 1.398 . S
C754 C755 1.391 . S
C755 H743 0.950 . S
C755 C751 1.393 . S
C755 C754 1.391 . S
H756 C764 0.950 . S
H757 C769 0.950 1_554 S
H758 C766 0.950 . S
H759 C768 0.950 . S
H760 C770 0.950 . S
H761 C772 0.950 . S
H762 C774 0.950 . S
H763 C775 0.950 1_556 S
C764 H756 0.950 . S
C764 C765 1.386 . S
C764 C766 1.391 . S
C765 C764 1.386 . S
C765 C769 1.393 . S
C766 H758 0.950 . S
C766 C764 1.391 . S
C766 C767 1.400 . S
C767 C766 1.400 . S
C767 C768 1.398 1_556 S
C767 C773 1.491 1_566 S
C768 H759 0.950 . S
C768 C767 1.398 1_554 S
C768 C769 1.391 1_554 S
C769 H757 0.950 1_556 S
C769 C765 1.393 . S
C769 C768 1.391 1_556 S
C770 H760 0.950 . S
C770 C771 1.386 . S
C770 C772 1.391 . S
C771 C770 1.386 . S
C771 C775 1.393 . S
C772 H761 0.950 . S
C772 C770 1.391 . S
C772 C773 1.400 . S
C773 C767 1.491 1_544 S
C773 C772 1.400 . S
C773 C774 1.398 1_554 S
C774 H762 0.950 . S
C774 C773 1.398 1_556 S
C774 C775 1.391 1_556 S
C775 H763 0.950 1_554 S
C775 C771 1.393 . S
C775 C774 1.391 1_554 S
H776 C784 0.950 . S
H777 C789 0.950 . S
H778 C786 0.950 . S
H779 C788 0.950 . S
H780 C790 0.950 . S
H781 C792 0.950 . S
H782 C794 0.950 . S
H783 C795 0.950 . S
C784 H776 0.950 . S
C784 C785 1.386 . S
C784 C786 1.391 . S
C785 C784 1.386 . S
C785 C789 1.393 . S
C786 H778 0.950 . S
C786 C784 1.391 . S
C786 C787 1.400 . S
C787 C786 1.400 . S
C787 C788 1.398 . S
C787 C793 1.491 . S
C788 H779 0.950 . S
C788 C787 1.398 . S
C788 C789 1.391 . S
C789 H777 0.950 . S
C789 C785 1.393 . S
C789 C788 1.391 . S
C790 H780 0.950 . S
C790 C791 1.386 . S
C790 C792 1.391 . S
C791 C790 1.386 . S
C791 C795 1.393 . S
C792 H781 0.950 . S
C792 C790 1.391 . S
C792 C793 1.400 . S
C793 C787 1.491 . S
C793 C792 1.400 . S
C793 C794 1.398 . S
C794 H782 0.950 . S
C794 C793 1.398 . S
C794 C795 1.391 . S
C795 H783 0.950 . S
C795 C791 1.393 . S
C795 C794 1.391 . S
H796 C804 0.950 . S
H797 C809 0.950 . S
H798 C806 0.950 . S
H799 C808 0.950 . S
H800 C810 0.950 . S
H801 C812 0.950 . S
H802 C814 0.950 . S
H803 C815 0.950 . S
C804 H796 0.950 . S
C804 C805 1.386 . S
C804 C806 1.391 . S
C805 C804 1.386 . S
C805 C809 1.393 . S
C806 H798 0.950 . S
C806 C804 1.391 . S
C806 C807 1.400 . S
C807 C806 1.400 . S
C807 C808 1.398 . S
C807 C813 1.491 1_654 S
C808 H799 0.950 . S
C808 C807 1.398 . S
C808 C809 1.391 . S
C809 H797 0.950 . S
C809 C805 1.393 . S
C809 C808 1.391 . S
C810 H800 0.950 . S
C810 C811 1.386 . S
C810 C812 1.391 . S
C811 C810 1.386 . S
C811 C815 1.393 . S
C812 H801 0.950 . S
C812 C810 1.391 . S
C812 C813 1.400 . S
C813 C807 1.491 1_456 S
C813 C812 1.400 . S
C813 C814 1.398 . S
C814 H802 0.950 . S
C814 C813 1.398 . S
C814 C815 1.391 . S
C815 H803 0.950 . S
C815 C811 1.393 . S
C815 C814 1.391 . S
H816 C824 0.950 . S
H817 C829 0.950 . S
H818 C826 0.950 . S
H819 C828 0.950 . S
H820 C830 0.950 . S
H821 C832 0.950 . S
H822 C834 0.950 . S
H823 C835 0.950 . S
C824 H816 0.950 . S
C824 C825 1.386 . S
C824 C826 1.391 . S
C825 C824 1.386 . S
C825 C829 1.393 . S
C826 H818 0.950 . S
C826 C824 1.391 . S
C826 C827 1.400 . S
C827 C826 1.400 . S
C827 C828 1.398 . S
C827 C833 1.491 1_565 S
C828 H819 0.950 . S
C828 C827 1.398 . S
C828 C829 1.391 . S
C829 H817 0.950 . S
C829 C825 1.393 . S
C829 C828 1.391 . S
C830 H820 0.950 . S
C830 C831 1.386 . S
C830 C832 1.391 . S
C831 C830 1.386 . S
C831 C835 1.393 . S
C832 H821 0.950 . S
C832 C830 1.391 . S
C832 C833 1.400 . S
C833 C827 1.491 1_545 S
C833 C832 1.400 . S
C833 C834 1.398 . S
C834 H822 0.950 . S
C834 C833 1.398 . S
C834 C835 1.391 . S
C835 H823 0.950 . S
C835 C831 1.393 . S
C835 C834 1.391 . S
H836 C844 0.950 . S
H837 C849 0.950 . S
H838 C846 0.950 . S
H839 C848 0.950 . S
H840 C850 0.950 . S
H841 C852 0.950 . S
H842 C854 0.950 . S
H843 C855 0.950 . S
C844 H836 0.950 . S
C844 C845 1.386 . S
C844 C846 1.391 . S
C845 C844 1.386 . S
C845 C849 1.393 . S
C846 H838 0.950 . S
C846 C844 1.391 . S
C846 C847 1.400 . S
C847 C846 1.400 . S
C847 C848 1.398 . S
C847 C853 1.491 1_554 S
C848 H839 0.950 . S
C848 C847 1.398 . S
C848 C849 1.391 . S
C849 H837 0.950 . S
C849 C845 1.393 . S
C849 C848 1.391 . S
C850 H840 0.950 . S
C850 C851 1.386 . S
C850 C852 1.391 . S
C851 C850 1.386 . S
C851 C855 1.393 . S
C852 H841 0.950 . S
C852 C850 1.391 . S
C852 C853 1.400 . S
C853 C847 1.491 1_556 S
C853 C852 1.400 . S
C853 C854 1.398 . S
C854 H842 0.950 . S
C854 C853 1.398 . S
C854 C855 1.391 . S
C855 H843 0.950 . S
C855 C851 1.393 . S
C855 C854 1.391 . S
H856 C864 0.950 . S
H857 C869 0.950 . S
H858 C866 0.950 . S
H859 C868 0.950 . S
H860 C870 0.950 . S
H861 C872 0.950 . S
H862 C874 0.950 . S
H863 C875 0.950 . S
C864 H856 0.950 . S
C864 C865 1.386 . S
C864 C866 1.391 . S
C865 C864 1.386 . S
C865 C869 1.393 . S
C866 H858 0.950 . S
C866 C864 1.391 . S
C866 C867 1.400 . S
C867 C866 1.400 . S
C867 C868 1.398 . S
C867 C873 1.491 1_655 S
C868 H859 0.950 . S
C868 C867 1.398 . S
C868 C869 1.391 . S
C869 H857 0.950 . S
C869 C865 1.393 . S
C869 C868 1.391 . S
C870 H860 0.950 . S
C870 C871 1.386 . S
C870 C872 1.391 . S
C871 C870 1.386 . S
C871 C875 1.393 . S
C872 H861 0.950 . S
C872 C870 1.391 . S
C872 C873 1.400 . S
C873 C867 1.491 1_455 S
C873 C872 1.400 . S
C873 C874 1.398 . S
C874 H862 0.950 . S
C874 C873 1.398 . S
C874 C875 1.391 . S
C875 H863 0.950 . S
C875 C871 1.393 . S
C875 C874 1.391 . S
H876 C884 0.950 . S
H877 C889 0.950 . S
H878 C886 0.945 . S
H879 C888 0.950 1_565 S
H880 C890 0.950 . S
H881 C892 0.955 1_554 S
H882 C894 0.950 1_545 S
H883 C895 0.950 . S
C884 H876 0.950 . S
C884 C885 1.386 . S
C884 C886 1.395 1_554 S
C885 C884 1.386 . S
C885 C889 1.393 . S
C886 H878 0.945 . S
C886 C884 1.395 1_556 S
C886 C887 1.402 1_556 S
C887 C886 1.402 1_554 S
C887 C888 1.398 . S
C887 C893 1.491 1_544 S
C888 H879 0.950 1_545 S
C888 C887 1.398 . S
C888 C889 1.391 . S
C889 H877 0.950 . S
C889 C885 1.393 . S
C889 C888 1.391 . S
C890 H880 0.950 . S
C890 C891 1.386 . S
C890 C892 1.388 . S
C891 C890 1.386 . S
C891 C895 1.393 . S
C892 H881 0.955 1_556 S
C892 C890 1.388 . S
C892 C893 1.399 . S
C893 C887 1.491 1_566 S
C893 C892 1.399 . S
C893 C894 1.398 . S
C894 H882 0.950 1_565 S
C894 C893 1.398 . S
C894 C895 1.391 . S
C895 H883 0.950 . S
C895 C891 1.393 . S
C895 C894 1.391 . S
H896 C904 0.950 . S
H897 C909 0.950 . S
H898 C906 0.950 . S
H899 C908 0.950 . S
H900 C910 0.950 . S
H901 C912 0.950 . S
H902 C914 0.950 . S
H903 C915 0.950 . S
C904 H896 0.950 . S
C904 C905 1.386 . S
C904 C906 1.391 . S
C905 C904 1.386 . S
C905 C909 1.393 . S
C906 H898 0.950 . S
C906 C904 1.391 . S
C906 C907 1.400 . S
C907 C906 1.400 . S
C907 C908 1.398 . S
C907 C913 1.491 . S
C908 H899 0.950 . S
C908 C907 1.398 . S
C908 C909 1.391 . S
C909 H897 0.950 . S
C909 C905 1.393 . S
C909 C908 1.391 . S
C910 H900 0.950 . S
C910 C911 1.386 . S
C910 C912 1.391 . S
C911 C910 1.386 . S
C911 C915 1.393 . S
C912 H901 0.950 . S
C912 C910 1.391 . S
C912 C913 1.400 . S
C913 C907 1.491 . S
C913 C912 1.400 . S
C913 C914 1.398 . S
C914 H902 0.950 . S
C914 C913 1.398 . S
C914 C915 1.391 . S
C915 H903 0.950 . S
C915 C911 1.393 . S
C915 C914 1.391 . S
H916 C924 0.950 . S
H917 C929 0.950 . S
H918 C926 0.950 1_556 S
H919 C928 0.950 1_455 S
H920 C930 0.950 . S
H921 C932 0.950 1_554 S
H922 C934 0.950 1_655 S
H923 C935 0.950 . S
C924 H916 0.950 . S
C924 C925 1.386 . S
C924 C926 1.391 . S
C925 C924 1.386 . S
C925 C929 1.393 . S
C926 H918 0.950 1_554 S
C926 C924 1.391 . S
C926 C927 1.400 . S
C927 C926 1.400 . S
C927 C928 1.398 . S
C927 C933 1.491 1_654 S
C928 H919 0.950 1_655 S
C928 C927 1.398 . S
C928 C929 1.391 . S
C929 H917 0.950 . S
C929 C925 1.393 . S
C929 C928 1.391 . S
C930 H920 0.950 . S
C930 C931 1.386 . S
C930 C932 1.391 . S
C931 C930 1.386 . S
C931 C935 1.393 . S
C932 H921 0.950 1_556 S
C932 C930 1.391 . S
C932 C933 1.400 . S
C933 C927 1.491 1_456 S
C933 C932 1.400 . S
C933 C934 1.398 . S
C934 H922 0.950 1_455 S
C934 C933 1.398 . S
C934 C935 1.391 . S
C935 H923 0.950 . S
C935 C931 1.393 . S
C935 C934 1.391 . S
H936 C944 0.950 . S
H937 C949 0.950 . S
H938 C946 0.950 1_545 S
H939 C948 0.950 . S
H940 C950 0.950 . S
H941 C952 0.950 1_565 S
H942 C954 0.950 . S
H943 C955 0.950 . S
C944 H936 0.950 . S
C944 C945 1.386 . S
C944 C946 1.391 . S
C945 C944 1.386 . S
C945 C949 1.393 . S
C946 H938 0.950 1_565 S
C946 C944 1.391 . S
C946 C947 1.400 . S
C947 C946 1.400 . S
C947 C948 1.398 . S
C947 C953 1.491 1_565 S
C948 H939 0.950 . S
C948 C947 1.398 . S
C948 C949 1.391 . S
C949 H937 0.950 . S
C949 C945 1.393 . S
C949 C948 1.391 . S
C950 H940 0.950 . S
C950 C951 1.386 . S
C950 C952 1.391 . S
C951 C950 1.386 . S
C951 C955 1.393 . S
C952 H941 0.950 1_545 S
C952 C950 1.391 . S
C952 C953 1.400 . S
C953 C947 1.491 1_545 S
C953 C952 1.400 . S
C953 C954 1.398 . S
C954 H942 0.950 . S
C954 C953 1.398 . S
C954 C955 1.391 . S
C955 H943 0.950 . S
C955 C951 1.393 . S
C955 C954 1.391 . S
H956 C964 0.950 . S
H957 C969 0.950 . S
H958 C966 0.944 . S
H959 C968 0.950 . S
H960 C970 0.950 . S
H961 C972 0.955 1_556 S
H962 C974 0.950 . S
H963 C975 0.950 . S
C964 H956 0.950 . S
C964 C965 1.386 . S
C964 C966 1.395 1_556 S
C965 C964 1.386 . S
C965 C969 1.393 . S
C966 H958 0.944 . S
C966 C964 1.395 1_554 S
C966 C967 1.402 1_554 S
C967 C966 1.402 1_556 S
C967 C968 1.398 . S
C967 C973 1.491 1_556 S
C968 H959 0.950 . S
C968 C967 1.398 . S
C968 C969 1.391 . S
C969 H957 0.950 . S
C969 C965 1.393 . S
C969 C968 1.391 . S
C970 H960 0.950 . S
C970 C971 1.386 . S
C970 C972 1.388 . S
C971 C970 1.386 . S
C971 C975 1.393 . S
C972 H961 0.955 1_554 S
C972 C970 1.388 . S
C972 C973 1.398 . S
C973 C967 1.491 1_554 S
C973 C972 1.398 . S
C973 C974 1.398 . S
C974 H962 0.950 . S
C974 C973 1.398 . S
C974 C975 1.391 . S
C975 H963 0.950 . S
C975 C971 1.393 . S
C975 C974 1.391 . S
H976 C984 0.950 . S
H977 C989 0.950 . S
H978 C986 0.950 . S
H979 C988 0.950 . S
H980 C990 0.950 . S
H981 C992 0.950 . S
H982 C994 0.950 . S
H983 C995 0.950 . S
C984 H976 0.950 . S
C984 C985 1.386 . S
C984 C986 1.391 . S
C985 C984 1.386 . S
C985 C989 1.393 . S
C986 H978 0.950 . S
C986 C984 1.391 . S
C986 C987 1.400 . S
C987 C986 1.400 . S
C987 C988 1.398 . S
C987 C993 1.491 1_455 S
C988 H979 0.950 . S
C988 C987 1.398 . S
C988 C989 1.391 . S
C989 H977 0.950 . S
C989 C985 1.393 . S
C989 C988 1.391 . S
C990 H980 0.950 . S
C990 C991 1.386 . S
C990 C992 1.391 . S
C991 C990 1.386 . S
C991 C995 1.393 . S
C992 H981 0.950 . S
C992 C990 1.391 . S
C992 C993 1.400 . S
C993 C987 1.491 1_655 S
C993 C992 1.400 . S
C993 C994 1.398 . S
C994 H982 0.950 . S
C994 C993 1.398 . S
C994 C995 1.391 . S
C995 H983 0.950 . S
C995 C991 1.393 . S
C995 C994 1.391 . S
C405 C74 1.582 . S
C411 N14 1.621 . S
C425 N47 1.623 . S
C431 C107 1.578 . S
C445 N80 1.621 . S
C451 C140 1.574 . S
C465 N113 1.614 . S
C471 C173 1.566 . S
C485 N146 1.615 . S
C491 C8 1.565 . S
C505 C41 1.567 . S
C511 N179 1.614 . S
C525 N212 1.616 . S
C531 C338 1.570 . S
C545 N245 1.618 . S
C551 C371 1.576 . S
C565 C206 1.584 . S
C571 N278 1.625 . S
C585 C239 1.588 . S
C591 N311 1.626 . S
C605 C272 1.569 . S
C611 N344 1.618 . S
C625 C305 1.572 . S
C631 N377 1.616 . S
C645 C281 1.317 . S
C651 C17 1.329 . S
C665 C50 1.331 . S
C671 C314 1.319 . S
C685 C347 1.333 . S
C691 C83 1.321 . S
C705 C380 1.319 . S
C711 C116 1.318 . S
C725 C149 1.328 . S
C731 C215 1.317 . S
C745 C248 1.331 . S
C751 C182 1.329 . S
C765 C259 1.343 . S
C771 C28 1.333 . S
C785 C61 1.332 . S
C791 C292 1.338 . S
C805 C94 1.344 . S
C811 C325 1.347 . S
C825 C127 1.342 . S
C831 C358 1.332 . S
C845 C160 1.333 . S
C851 C391 1.334 . S
C865 C226 1.339 . S
C871 C193 1.332 . S
C885 N71 1.499 . S
C891 N368 1.466 . S
C905 N203 1.481 . S
C911 N104 1.467 . S
C925 N137 1.493 . S
C931 N236 1.463 . S
C945 N170 1.474 . S
C951 N269 1.501 . S
C965 N302 1.500 . S
C971 N5 1.467 . S
C985 N38 1.474 . S
C991 N335 1.472 . S
