# Generated by pormake.
# Topology sxc, (6)-cn, num edge types: 1
# Building blocks:
#     Node 0, Type 0, BuildingBlock: UKALOJ_clean_sbu_0, # of connection points: 6
#     Node 1, Type 0, BuildingBlock: UKALOJ_clean_sbu_0, # of connection points: 6
#     Node 2, Type 0, BuildingBlock: UKALOJ_clean_sbu_0, # of connection points: 6
#     Edge 3, Type (0, 0), BuildingBlock: XUDNAN_clean_linker_2, # of connection points: 2
#     Edge 4, Type (0, 0), BuildingBlock: XUDNAN_clean_linker_2, # of connection points: 2
#     Edge 5, Type (0, 0), BuildingBlock: XUDNAN_clean_linker_2, # of connection points: 2
#     Edge 6, Type (0, 0), BuildingBlock: XUDNAN_clean_linker_2, # of connection points: 2
#     Edge 7, Type (0, 0), BuildingBlock: XUDNAN_clean_linker_2, # of connection points: 2
#     Edge 8, Type (0, 0), BuildingBlock: XUDNAN_clean_linker_2, # of connection points: 2
#     Edge 9, Type (0, 0), BuildingBlock: XUDNAN_clean_linker_2, # of connection points: 2
#     Edge 10, Type (0, 0), BuildingBlock: XUDNAN_clean_linker_2, # of connection points: 2
#     Edge 11, Type (0, 0), BuildingBlock: XUDNAN_clean_linker_2, # of connection points: 2
# Relax obj value: 0.116
# Max RMSD: 0.183
# Mean RMSD: 0.183
data_MOF--net-sxc--node1-UKALOJ_clean_sbu_0--edge1-XUDNAN_clean_linker_2
_symmetry_space_group_name_H-M    P1
_symmetry_Int_Tables_number       1
_symmetry_cell_setting            triclinic
loop_
_symmetry_equiv_pos_as_xyz
'x, y, z'
_cell_length_a     15.058865
_cell_length_b     14.999927
_cell_length_c     60.586467
_cell_angle_alpha  89.972599
_cell_angle_beta   89.797167
_cell_angle_gamma 120.01104
loop_
_atom_site_label
_atom_site_type_symbol
_atom_site_fract_x
_atom_site_fract_y
_atom_site_fract_z
_atom_type_partial_charge
Zn0 Zn 0.94735 0.06422 1.00746 0.0
O1 O -0.02283 0.93856 1.00924 0.0
C2 C 0.74571 0.91375 0.02647 0.0
Zn3 Zn 0.9479 0.06709 0.04401 0.0
C4 C -0.00687 0.91072 0.02799 0.0
O5 O -0.00491 0.96006 0.04517 0.0
C6 C 0.89625 0.2168 0.02481 0.0
O7 O 0.10304 0.19329 0.04235 0.0
O8 O 0.10114 0.17168 1.00643 0.0
N9 N 0.94517 0.0754 0.07776 0.0
C10 C 5e-05 0.06538 0.09415 0.0
C11 C 0.89075 0.09736 0.10915 0.0
N12 N 0.87735 0.0951 0.08717 0.0
N13 N -0.03298 0.07855 0.114 0.0
C14 C 0.00357 0.06503 0.95742 0.0
C15 C 0.86348 0.034 0.94223 0.0
N16 N 0.93818 0.05595 0.97371 0.0
N17 N 0.85141 0.03688 0.96418 0.0
N18 N 0.95841 0.05183 0.9375 0.0
H19 H 0.16453 0.16463 0.9616 0.0
H20 H 0.13096 0.04605 0.9476 0.0
H21 H 0.11204 0.0467 0.97715 0.0
C22 C 0.1087 0.08082 0.96115 0.0
C23 C 0.08917 0.04881 0.09056 0.0
H24 H 0.06082 0.9649 0.08987 0.0
H25 H 0.14486 0.08226 0.10428 0.0
H26 H 0.12814 0.08383 0.07471 0.0
O27 O 0.89842 0.17285 0.04249 0.0
O28 O 0.91618 0.18868 1.00656 0.0
C29 C 0.14756 0.22113 0.02362 0.0
O30 O 0.79248 0.9579 1.00883 0.0
O31 O 0.79272 0.94207 0.04477 0.0
Zn32 Zn 0.11847 0.13196 0.34055 0.0
O33 O -0.03977 0.09547 0.33935 0.0
C34 C 0.16218 0.32832 0.36363 0.0
Zn35 Zn 0.11694 0.12377 0.3773 0.0
C36 C 0.91801 0.08477 0.35817 0.0
O37 O -0.03353 0.08657 0.37533 0.0
C38 C 0.31898 0.17664 0.36099 0.0
O39 O 0.0764 0.97126 0.3738 0.0
O40 O 0.07875 0.97291 0.33756 0.0
N41 N 0.09635 0.10038 0.41078 0.0
C42 C 0.156 0.14132 0.42875 0.0
C43 C 0.00906 0.02438 0.44004 0.0
N44 N 0.00523 0.0281 0.41792 0.0
N45 N 0.10268 0.09461 0.44735 0.0
C46 C 0.08843 0.09461 0.28955 0.0
C47 C 0.1986 0.24254 0.27719 0.0
N48 N 0.13508 0.15513 0.30712 0.0
N49 N 0.20353 0.24685 0.29936 0.0
N50 N 0.12734 0.1477 0.27056 0.0
H51 H 0.03223 0.93296 0.29142 0.0
H52 H 0.94961 0.96689 0.27669 0.0
H53 H 0.95671 -0.02508 0.30652 0.0
C54 C 0.00114 -0.0138 0.29112 0.0
C55 C 0.26822 0.21833 0.42758 0.0
H56 H 0.30992 0.17711 0.42336 0.0
H57 H 0.29862 0.25825 0.44345 0.0
H58 H 0.28332 0.27557 0.41439 0.0
O59 O 0.26885 0.16256 0.37878 0.0
O60 O 0.27608 0.17041 0.34253 0.0
C61 C 0.0663 0.92496 0.35569 0.0
O62 O 0.15703 0.28981 0.34463 0.0
O63 O 0.1548 0.27606 0.38073 0.0
Zn64 Zn 0.04478 0.9737 0.71137 0.0
O65 O 0.93661 0.02012 0.71385 0.0
C66 C 0.89066 0.77642 0.69051 0.0
Zn67 Zn 0.04597 -0.01791 0.67492 0.0
C68 C 0.88902 0.02137 0.69671 0.0
O69 O 0.91933 0.00982 0.67783 0.0
C70 C 0.19777 0.92825 0.6911 0.0
O71 O 0.15006 0.13801 0.67662 0.0
O72 O 0.17006 0.13013 0.71235 0.0
N73 N 0.03822 -0.0123 0.64119 0.0
C74 C 0.10618 0.04165 0.62503 0.0
C75 C -0.03647 0.94096 0.60956 0.0
N76 N 0.94979 0.92549 0.63147 0.0
N77 N 0.06093 0.01365 0.60504 0.0
C78 C 0.0632 0.02016 0.76221 0.0
C79 C 0.02328 0.8726 0.77521 0.0
N80 N 0.04525 0.95685 0.7449 0.0
N81 N 0.02083 0.86544 0.75307 0.0
N82 N 0.05013 0.969 0.78142 0.0
H83 H 0.17217 0.18063 0.75993 0.0
H84 H 0.05623 0.15145 0.77449 0.0
H85 H 0.0563 0.14166 0.74468 0.0
C86 C 0.08764 0.12966 0.7602 0.0
C87 C 0.21737 0.11714 0.62874 0.0
H88 H 0.22816 0.1958 0.62951 0.0
H89 H 0.26443 0.11478 0.61486 0.0
H90 H 0.24417 0.10114 0.64446 0.0
O91 O 0.17186 0.95244 0.67306 0.0
O92 O 0.15096 0.9252 0.70877 0.0
C93 C 0.19614 0.18122 0.69435 0.0
O94 O 0.9191 0.81847 0.70933 0.0
O95 O 0.93971 0.82577 0.67347 0.0
H96 H 0.94857 0.37254 0.99424 0.0
H97 H 0.82133 0.26944 0.05997 0.0
H98 H 0.83796 0.43768 0.06739 0.0
H99 H 0.13196 0.62346 1.00824 0.0
H100 H 0.11697 0.68621 0.98433 0.0
H101 H 0.08743 0.55429 0.98261 0.0
H102 H 0.90364 0.49794 0.96919 0.0
H103 H 0.93343 0.63015 0.97027 0.0
H104 H 0.82403 0.53238 0.98516 0.0
H105 H 0.89154 0.61891 0.07027 0.0
H106 H 0.94064 0.79966 0.06571 0.0
H107 H 0.02029 0.7897 0.99702 0.0
C108 C 0.92118 0.38451 1.00989 0.0
C109 C 0.8844 0.3082 0.02659 0.0
C110 C 0.85046 0.32696 0.04699 0.0
C111 C 0.85993 0.42243 0.05143 0.0
C112 C 0.90175 0.49778 0.03517 0.0
C113 C 0.92882 0.47969 1.01455 0.0
C114 C -0.02769 0.57596 1.00029 0.0
C115 C 0.08378 0.61207 0.99347 0.0
C116 C 0.90427 0.55803 0.98003 0.0
C117 C -0.03312 0.65075 1.01636 0.0
C118 C 0.92762 0.60361 0.03646 0.0
C119 C 0.92041 0.65654 0.0545 0.0
C120 C 0.94988 0.75986 0.05176 0.0
C121 C -0.01593 0.80897 0.03095 0.0
C122 C -0.00583 0.75401 1.01307 0.0
H123 H 0.42246 0.13311 0.32887 0.0
H124 H 0.44623 0.24349 0.39608 0.0
H125 H 0.59917 0.22813 0.4018 0.0
H126 H 0.49378 0.94876 0.33951 0.0
H127 H 0.57082 0.97095 0.31508 0.0
H128 H 0.46732 -0.0015 0.31485 0.0
H129 H 0.59244 0.18668 0.30283 0.0
H130 H 0.69603 0.15911 0.30252 0.0
H131 H 0.70631 0.26434 0.31883 0.0
H132 H 0.7277 0.17728 0.40262 0.0
H133 H 0.85858 0.13023 0.39656 0.0
H134 H 0.77084 0.06612 0.32746 0.0
C135 C 0.46193 0.15699 0.34453 0.0
C136 C 0.42192 0.18839 0.36217 0.0
C137 C 0.47465 0.21779 0.3825 0.0
C138 C 0.56158 0.20937 0.38591 0.0
C139 C 0.59586 0.17304 0.36869 0.0
C140 C 0.55029 0.15011 0.34818 0.0
C141 C 0.60379 0.11142 0.33279 0.0
C142 C 0.52948 0.00086 0.32511 0.0
C143 C 0.65256 0.18479 0.31307 0.0
C144 C 0.685 0.11465 0.34813 0.0
C145 C 0.67682 0.14894 0.36879 0.0
C146 C 0.73685 0.1526 0.3864 0.0
C147 C 0.81057 0.12438 0.38272 0.0
C148 C 0.82602 0.09488 0.36141 0.0
C149 C 0.7613 0.08875 0.34387 0.0
H150 H 0.77017 0.62587 0.72125 0.0
H151 H 0.77838 0.72117 0.65312 0.0
H152 H 0.59765 0.59061 0.64888 0.0
H153 H 0.60416 0.34927 0.70928 0.0
H154 H 0.53649 0.32287 0.73522 0.0
H155 H 0.6677 0.42557 0.73326 0.0
H156 H 0.6131 0.55264 0.74846 0.0
H157 H 0.48127 0.45072 0.7499 0.0
H158 H 0.51512 0.56603 0.73438 0.0
H159 H 0.41582 0.46432 0.65231 0.0
H160 H 0.24751 0.31387 0.66003 0.0
H161 H 0.35364 0.28131 0.72454 0.0
C162 C 0.73413 0.61778 0.70537 0.0
C163 C 0.78867 0.68416 0.68756 0.0
C164 C 0.73894 0.67114 0.667 0.0
C165 C 0.63566 0.59791 0.66445 0.0
C166 C 0.58326 0.53635 0.68243 0.0
C167 C 0.63091 0.54237 0.70226 0.0
C168 C 0.55662 0.46093 0.71829 0.0
C169 C 0.59343 0.38516 0.72436 0.0
C170 C 0.54061 0.51059 0.73898 0.0
C171 C 0.46018 0.40948 0.70431 0.0
C172 C 0.47756 0.45656 0.68391 0.0
C173 C 0.40137 0.42538 0.66807 0.0
C174 C 0.30589 0.33983 0.67266 0.0
C175 C 0.28789 0.28465 0.69272 0.0
C176 C 0.36505 0.32206 0.70909 0.0
H177 H 0.77378 0.05717 0.66593 0.0
H178 H 0.77174 0.95924 0.73358 0.0
H179 H 0.59124 0.9109 0.73733 0.0
H180 H 0.60937 0.16927 0.67821 0.0
H181 H 0.54496 0.13236 0.65198 0.0
H182 H 0.67532 0.15924 0.65428 0.0
H183 H 0.62043 -0.02085 0.63807 0.0
H184 H 0.48942 0.95086 0.63625 0.0
H185 H 0.51958 0.866 0.6514 0.0
H186 H 0.41102 0.85935 0.73347 0.0
H187 H 0.2449 0.84453 0.72543 0.0
H188 H 0.35942 -0.01056 0.66149 0.0
C189 C 0.73553 0.02717 0.6816 0.0
C190 C 0.78708 0.01183 0.69943 0.0
C191 C 0.73457 0.97254 0.71971 0.0
C192 C 0.63143 0.94358 0.72197 0.0
C193 C 0.582 0.95637 0.70398 0.0
C194 C 0.63241 0.00032 0.68442 0.0
C195 C 0.56091 0.01078 0.66831 0.0
C196 C 0.59997 0.12468 0.66288 0.0
C197 C 0.54678 0.94793 0.64726 0.0
C198 C 0.46266 0.96456 0.68189 0.0
C199 C 0.47698 0.93194 0.7022 0.0
C200 C 0.39888 0.8858 0.71775 0.0
C201 C 0.30454 0.87739 0.71294 0.0
C202 C 0.28928 0.91662 0.69291 0.0
C203 C 0.36854 0.95804 0.67686 0.0
H204 H 0.64038 0.75875 0.05718 0.0
H205 H 0.62087 0.85994 0.99102 0.0
H206 H 0.46963 0.692 0.98368 0.0
H207 H 0.57207 0.50612 0.04377 0.0
H208 H 0.49297 0.44502 0.06767 0.0
H209 H 0.59581 0.57656 0.06922 0.0
H210 H 0.46891 0.63534 0.08208 0.0
H211 H 0.366 0.50357 0.08113 0.0
H212 H 0.3562 0.60151 0.06589 0.0
H213 H 0.34122 0.51122 0.98103 0.0
H214 H 0.20857 0.33118 0.98578 0.0
H215 H 0.29385 0.34269 0.05469 0.0
C216 C 0.60219 0.74642 0.04143 0.0
C217 C 0.64289 0.82217 0.02461 0.0
C218 C 0.59163 0.80289 1.0041 0.0
C219 C 0.50582 0.70757 0.9997 0.0
C220 C 0.47098 0.63281 1.01611 0.0
C221 C 0.51482 0.65136 0.03679 0.0
C222 C 0.46067 0.5557 0.05122 0.0
C223 C 0.53482 0.51871 0.05839 0.0
C224 C 0.4099 0.57521 0.07127 0.0
C225 C 0.38115 0.48075 0.03516 0.0
C226 C 0.39058 0.52728 1.01493 0.0
C227 C 0.33129 0.47408 0.99689 0.0
C228 C 0.25681 0.37117 0.99976 0.0
C229 C 0.24041 0.32267 0.02066 0.0
C230 C 0.30451 0.37788 0.03856 0.0
H231 H 0.20783 0.48485 0.33337 0.0
H232 H 0.08409 0.37525 0.39909 0.0
H233 H 0.03002 0.50412 0.40143 0.0
H234 H 0.30782 0.75846 0.34686 0.0
H235 H 0.28058 0.78943 0.3199 0.0
H236 H 0.30924 0.68707 0.32307 0.0
H237 H 0.1379 0.56211 0.30377 0.0
H238 H 0.10754 0.6636 0.30109 0.0
H239 H 0.0192 0.5452 0.31489 0.0
H240 H -0.02182 0.63262 0.39637 0.0
H241 H -0.03281 0.78689 0.38803 0.0
H242 H 0.13479 0.82892 0.32681 0.0
C243 C 0.17104 0.48951 0.34837 0.0
C244 C 0.15027 0.41978 0.36604 0.0
C245 C 0.10191 0.42815 0.38541 0.0
C246 C 0.06951 0.5003 0.38682 0.0
C247 C 0.08777 0.56526 0.36892 0.0
C248 C 0.14039 0.56357 0.35036 0.0
C249 C 0.15528 0.6478 0.33425 0.0
C250 C 0.27002 0.72528 0.33083 0.0
C251 C 0.10178 0.60189 0.31219 0.0
C252 C 0.10204 0.69598 0.34671 0.0
C253 C 0.06193 0.64496 0.36643 0.0
C254 C 0.00995 0.67403 0.38109 0.0
C255 C 0.00365 0.76143 0.37612 0.0
C256 C 0.05029 0.8198 0.35682 0.0
C257 C 0.09709 0.78473 0.3415 0.0
H258 H 0.09426 0.25249 0.23873 0.0
H259 H 0.10513 0.97413 0.25139 0.0
H260 H 0.07115 0.92725 0.21178 0.0
H261 H 0.88831 0.14216 0.19929 0.0
H262 H 0.94146 0.25684 0.18251 0.0
H263 H -0.033 0.26672 0.21167 0.0
H264 H 0.16231 0.36726 0.2035 0.0
H265 H 0.13736 0.35669 0.17429 0.0
H266 H 0.21733 0.31073 0.18582 0.0
H267 H 0.03998 0.91473 0.17015 0.0
H268 H -0.00064 0.92997 0.13113 0.0
H269 H 0.00581 0.21485 0.14653 0.0
C270 C 0.08893 0.18148 0.2331 0.0
C271 C 0.10101 0.11616 0.248 0.0
C272 C 0.0939 0.02389 0.24021 0.0
C273 C 0.07568 -0.00262 0.21776 0.0
C274 C 0.06454 0.06399 0.20342 0.0
C275 C 0.06982 0.15362 0.21088 0.0
C276 C 0.05288 0.2111 0.19238 0.0
C277 C 0.95668 0.21965 0.19672 0.0
C278 C 0.14816 0.31775 0.18879 0.0
C279 C 0.03721 0.14003 0.17326 0.0
C280 C 0.04529 0.05609 0.17982 0.0
C281 C 0.03375 -0.01971 0.16486 0.0
C282 C 0.01169 -0.01012 0.14273 0.0
C283 C 0.00093 0.07422 0.13592 0.0
C284 C 0.01433 0.15006 0.1514 0.0
H285 H 0.06349 0.94444 0.47641 0.0
H286 H 0.19763 0.2744 0.47027 0.0
H287 H 0.22573 0.29274 0.51068 0.0
H288 H 0.91945 0.9211 0.5225 0.0
H289 H 0.93099 0.81874 0.53523 0.0
H290 H 0.9408 0.8342 0.50575 0.0
H291 H 0.11866 0.84635 0.50642 0.0
H292 H 0.10919 0.83042 0.53599 0.0
H293 H 0.21841 0.94048 0.52381 0.0
H294 H 0.22006 0.27142 0.55247 0.0
H295 H 0.17302 0.21209 0.5912 0.0
H296 H 0.03397 0.89564 0.56958 0.0
C297 C 0.10189 0.02074 0.48356 0.0
C298 C 0.13267 0.10842 0.47017 0.0
C299 C 0.17868 0.20689 0.4801 0.0
C300 C 0.19382 0.21772 0.50306 0.0
C301 C 0.16147 0.12917 0.51585 0.0
C302 C 0.11626 0.03248 0.50637 0.0
C303 C 0.07686 0.94844 0.52368 0.0
C304 C -0.03986 0.87646 0.52167 0.0
C305 C 0.13424 0.88787 0.5224 0.0
C306 C 0.10407 0.01245 0.54445 0.0
C307 C 0.15463 0.11663 0.5397 0.0
C308 C 0.18219 0.19012 0.55635 0.0
C309 C 0.15588 0.15599 0.57829 0.0
C310 C 0.10165 0.04951 0.58328 0.0
C311 C 0.07677 -0.02256 0.56614 0.0
H312 H 0.91232 0.86818 0.81356 0.0
H313 H 0.20259 0.14323 0.80004 0.0
H314 H 0.21566 0.19337 0.83948 0.0
H315 H 0.81815 -0.01679 0.85234 0.0
H316 H 0.7558 0.86988 0.86952 0.0
H317 H 0.77165 0.85751 0.84042 0.0
H318 H 0.86489 0.75585 0.84915 0.0
H319 H 0.8503 0.76889 0.87829 0.0
H320 H -0.024 0.8127 0.86676 0.0
H321 H 0.19655 0.20952 0.88111 0.0
H322 H 0.14005 0.19782 0.9201 0.0
H323 H 0.86118 0.91356 0.90541 0.0
C324 C -0.02166 0.93914 0.81896 0.0
C325 C 0.05596 0.00258 0.80386 0.0
C326 C 0.14148 0.09487 0.81136 0.0
C327 C 0.14984 0.12321 0.83372 0.0
C328 C 0.07182 0.05835 0.84825 0.0
C329 C -0.01279 0.96872 0.84106 0.0
C330 C 0.91252 0.91322 0.85968 0.0
C331 C 0.8084 0.90557 0.85522 0.0
C332 C 0.90026 0.80635 0.8637 0.0
C333 C -0.03206 -0.01452 0.87857 0.0
C334 C 0.06028 0.06826 0.8718 0.0
C335 C 0.12451 0.14486 0.88655 0.0
C336 C 0.09248 0.13729 0.90866 0.0
C337 C -0.00295 0.05416 0.91566 0.0
C338 C 0.9347 -0.02254 0.9004 0.0
loop_
_geom_bond_atom_site_label_1
_geom_bond_atom_site_label_2
_geom_bond_distance
_geom_bond_site_symmetry_2
_ccdc_geom_bond_type
Zn0 O1 2.055 1_545 S
Zn0 O8 2.046 . S
Zn0 N16 2.036 . S
Zn0 O28 2.053 1_455 S
Zn0 O30 2.066 1_445 S
O1 Zn0 2.055 1_565 S
O1 C4 1.259 1_556 S
C2 O30 1.256 1_554 S
C2 O31 1.244 . S
Zn3 O5 2.046 1_545 S
Zn3 O7 2.055 . S
Zn3 N9 2.035 1_455 S
Zn3 O27 2.066 1_455 S
Zn3 O31 2.053 1_445 S
C4 O1 1.259 1_554 S
C4 O5 1.254 . S
O5 Zn3 2.046 1_565 S
O5 C4 1.254 . S
C6 O27 1.256 . S
C6 O28 1.244 1_554 S
O7 Zn3 2.055 . S
O7 C29 1.259 . S
O8 Zn0 2.046 . S
O8 C29 1.254 1_556 S
N9 Zn3 2.035 1_655 S
N9 C10 1.297 1_655 S
N9 N12 1.403 1_545 S
C10 N9 1.297 1_455 S
C10 N13 1.367 1_455 S
C10 C23 1.481 . S
C11 N12 1.299 1_545 S
C11 N13 1.379 . S
N12 N9 1.403 1_565 S
N12 C11 1.299 1_565 S
N13 C10 1.367 1_655 S
N13 C11 1.379 . S
C14 N16 1.298 1_655 S
C14 N18 1.367 . S
C14 C22 1.481 1_545 S
C15 N17 1.299 1_655 S
C15 N18 1.379 . S
N16 Zn0 2.036 . S
N16 C14 1.298 1_455 S
N16 N17 1.398 . S
N17 C15 1.299 1_455 S
N17 N16 1.398 . S
N18 C14 1.367 . S
N18 C15 1.379 . S
H19 C22 0.980 1_455 S
H20 C22 0.981 . S
H21 C22 0.981 . S
C22 C14 1.481 1_565 S
C22 H19 0.980 1_655 S
C22 H20 0.981 . S
C22 H21 0.981 . S
C23 C10 1.481 . S
C23 H24 0.980 . S
C23 H25 0.981 . S
C23 H26 0.981 . S
H24 C23 0.980 . S
H25 C23 0.981 . S
H26 C23 0.981 . S
O27 Zn3 2.066 1_655 S
O27 C6 1.256 . S
O28 Zn0 2.053 1_655 S
O28 C6 1.244 1_556 S
C29 O7 1.259 . S
C29 O8 1.254 1_554 S
O30 Zn0 2.066 1_665 S
O30 C2 1.256 1_556 S
O31 C2 1.244 . S
O31 Zn3 2.053 1_665 S
Zn32 O33 2.065 . S
Zn32 O40 2.046 1_545 S
Zn32 N48 2.036 . S
Zn32 O60 2.053 . S
Zn32 O62 2.066 . S
O33 Zn32 2.065 . S
O33 C36 1.254 1_455 S
C34 O62 1.256 . S
C34 O63 1.244 . S
Zn35 O37 2.046 1_455 S
Zn35 O39 2.065 . S
Zn35 N41 2.036 . S
Zn35 O59 2.066 . S
Zn35 O63 2.053 . S
C36 O33 1.254 1_655 S
C36 O37 1.254 . S
O37 Zn35 2.046 1_655 S
O37 C36 1.254 . S
C38 O59 1.256 . S
C38 O60 1.244 . S
O39 Zn35 2.065 . S
O39 C61 1.254 1_545 S
O40 Zn32 2.046 1_565 S
O40 C61 1.254 . S
N41 Zn35 2.036 . S
N41 C42 1.298 . S
N41 N44 1.398 . S
C42 N41 1.298 . S
C42 N45 1.367 . S
C42 C55 1.481 . S
C43 N44 1.299 . S
C43 N45 1.379 . S
N44 N41 1.398 . S
N44 C43 1.299 . S
N45 C42 1.367 . S
N45 C43 1.379 . S
C46 N48 1.298 . S
C46 N50 1.367 . S
C46 C54 1.481 . S
C47 N49 1.299 . S
C47 N50 1.379 . S
N48 Zn32 2.036 . S
N48 C46 1.298 . S
N48 N49 1.398 . S
N49 C47 1.299 . S
N49 N48 1.398 . S
N50 C46 1.367 . S
N50 C47 1.379 . S
H51 C54 0.980 1_655 S
H52 C54 0.981 1_655 S
H53 C54 0.981 . S
C54 C46 1.481 . S
C54 H51 0.980 1_455 S
C54 H52 0.981 1_455 S
C54 H53 0.981 . S
C55 C42 1.481 . S
C55 H56 0.980 1_545 S
C55 H57 0.981 1_545 S
C55 H58 0.981 . S
H56 C55 0.980 1_565 S
H57 C55 0.981 1_565 S
H58 C55 0.981 . S
O59 Zn35 2.066 . S
O59 C38 1.256 . S
O60 Zn32 2.053 . S
O60 C38 1.244 . S
C61 O39 1.254 1_565 S
C61 O40 1.254 . S
O62 Zn32 2.066 . S
O62 C34 1.256 . S
O63 C34 1.244 . S
O63 Zn35 2.053 . S
Zn64 O65 2.055 1_455 S
Zn64 O72 2.046 . S
Zn64 N80 2.036 . S
Zn64 O92 2.053 1_545 S
Zn64 O94 2.066 1_445 S
O65 Zn64 2.055 1_655 S
O65 C68 1.259 . S
C66 O94 1.256 . S
C66 O95 1.244 . S
Zn67 O69 2.046 1_455 S
Zn67 O71 2.055 . S
Zn67 N73 2.035 1_545 S
Zn67 O91 2.066 1_545 S
Zn67 O95 2.053 1_445 S
C68 O65 1.259 . S
C68 O69 1.254 . S
O69 Zn67 2.046 1_655 S
O69 C68 1.254 . S
C70 O91 1.256 . S
C70 O92 1.244 . S
O71 Zn67 2.055 . S
O71 C93 1.259 . S
O72 Zn64 2.046 . S
O72 C93 1.254 . S
N73 Zn67 2.035 1_565 S
N73 C74 1.297 1_565 S
N73 N76 1.403 1_455 S
C74 N73 1.297 1_545 S
C74 N77 1.367 1_545 S
C74 C87 1.481 . S
C75 N76 1.299 1_455 S
C75 N77 1.379 . S
N76 N73 1.403 1_655 S
N76 C75 1.299 1_655 S
N77 C74 1.367 1_565 S
N77 C75 1.379 . S
C78 N80 1.298 1_565 S
C78 N82 1.367 . S
C78 C86 1.481 1_455 S
C79 N81 1.299 1_565 S
C79 N82 1.379 . S
N80 Zn64 2.036 . S
N80 C78 1.298 1_545 S
N80 N81 1.398 . S
N81 C79 1.299 1_545 S
N81 N80 1.398 . S
N82 C78 1.367 . S
N82 C79 1.379 . S
H83 C86 0.980 1_545 S
H84 C86 0.981 . S
H85 C86 0.981 . S
C86 C78 1.481 1_655 S
C86 H83 0.980 1_565 S
C86 H84 0.981 . S
C86 H85 0.981 . S
C87 C74 1.481 . S
C87 H88 0.980 . S
C87 H89 0.981 . S
C87 H90 0.981 . S
H88 C87 0.980 . S
H89 C87 0.981 . S
H90 C87 0.981 . S
O91 Zn67 2.066 1_565 S
O91 C70 1.256 . S
O92 Zn64 2.053 1_565 S
O92 C70 1.244 . S
C93 O71 1.259 . S
C93 O72 1.254 . S
O94 Zn64 2.066 1_665 S
O94 C66 1.256 . S
O95 C66 1.244 . S
O95 Zn67 2.053 1_665 S
H96 C108 0.930 . S
H97 C110 0.930 . S
H98 C111 0.930 . S
H99 C115 0.959 . S
H100 C115 0.959 . S
H101 C115 0.961 . S
H102 C116 0.960 . S
H103 C116 0.961 . S
H104 C116 0.959 . S
H105 C119 0.929 . S
H106 C120 0.931 1_655 S
H107 C122 0.930 . S
C108 H96 0.930 . S
C108 C109 1.399 1_456 S
C108 C113 1.398 1_556 S
C109 C108 1.399 1_654 S
C109 C110 1.376 . S
C110 H97 0.930 . S
C110 C109 1.376 . S
C110 C111 1.388 . S
C111 H98 0.930 . S
C111 C110 1.388 . S
C111 C112 1.390 . S
C112 C111 1.390 . S
C112 C113 1.401 1_655 S
C112 C118 1.465 . S
C113 C108 1.398 1_554 S
C113 C112 1.401 1_455 S
C113 C114 1.511 1_554 S
C114 C113 1.511 1_556 S
C114 C115 1.502 . S
C114 C116 1.561 1_455 S
C114 C117 1.549 . S
C115 H99 0.959 . S
C115 H100 0.959 . S
C115 H101 0.961 . S
C115 C114 1.502 . S
C116 H102 0.960 . S
C116 H103 0.961 . S
C116 H104 0.959 . S
C116 C114 1.561 1_655 S
C117 C114 1.549 . S
C117 C118 1.362 1_456 S
C117 C122 1.398 . S
C118 C112 1.465 . S
C118 C117 1.362 1_654 S
C118 C119 1.399 . S
C119 H105 0.929 . S
C119 C118 1.399 . S
C119 C120 1.385 1_655 S
C120 H106 0.931 1_455 S
C120 C119 1.385 1_455 S
C120 C121 1.389 . S
C121 C120 1.389 . S
C121 C122 1.387 1_554 S
C122 H107 0.930 . S
C122 C117 1.398 . S
C122 C121 1.387 1_556 S
H123 C135 0.930 . S
H124 C137 0.930 . S
H125 C138 0.930 . S
H126 C142 0.959 1_565 S
H127 C142 0.959 . S
H128 C142 0.961 . S
H129 C143 0.960 . S
H130 C143 0.961 . S
H131 C143 0.959 . S
H132 C146 0.929 . S
H133 C147 0.931 . S
H134 C149 0.930 . S
C135 H123 0.930 . S
C135 C136 1.399 . S
C135 C140 1.399 . S
C136 C135 1.399 . S
C136 C137 1.376 . S
C137 H124 0.930 . S
C137 C136 1.376 . S
C137 C138 1.388 . S
C138 H125 0.930 . S
C138 C137 1.388 . S
C138 C139 1.390 . S
C139 C138 1.390 . S
C139 C140 1.394 . S
C139 C145 1.465 . S
C140 C135 1.399 . S
C140 C139 1.394 . S
C140 C141 1.516 . S
C141 C140 1.516 . S
C141 C142 1.502 . S
C141 C143 1.561 . S
C141 C144 1.526 . S
C142 H126 0.959 1_545 S
C142 H127 0.959 . S
C142 H128 0.961 . S
C142 C141 1.502 . S
C143 H129 0.960 . S
C143 H130 0.961 . S
C143 H131 0.959 . S
C143 C141 1.561 . S
C144 C141 1.526 . S
C144 C145 1.396 . S
C144 C149 1.390 . S
C145 C139 1.465 . S
C145 C144 1.396 . S
C145 C146 1.399 . S
C146 H132 0.929 . S
C146 C145 1.399 . S
C146 C147 1.385 . S
C147 H133 0.931 . S
C147 C146 1.385 . S
C147 C148 1.389 . S
C148 C147 1.389 . S
C148 C149 1.387 . S
C149 H134 0.930 . S
C149 C144 1.390 . S
C149 C148 1.387 . S
H150 C162 0.930 . S
H151 C164 0.930 . S
H152 C165 0.930 . S
H153 C169 0.959 . S
H154 C169 0.959 . S
H155 C169 0.961 . S
H156 C170 0.960 . S
H157 C170 0.961 . S
H158 C170 0.959 . S
H159 C173 0.929 . S
H160 C174 0.931 . S
H161 C176 0.930 . S
C162 H150 0.930 . S
C162 C163 1.399 . S
C162 C167 1.399 . S
C163 C162 1.399 . S
C163 C164 1.376 . S
C164 H151 0.930 . S
C164 C163 1.376 . S
C164 C165 1.388 . S
C165 H152 0.930 . S
C165 C164 1.388 . S
C165 C166 1.390 . S
C166 C165 1.390 . S
C166 C167 1.394 . S
C166 C172 1.465 . S
C167 C162 1.399 . S
C167 C166 1.394 . S
C167 C168 1.516 . S
C168 C167 1.516 . S
C168 C169 1.502 . S
C168 C170 1.561 . S
C168 C171 1.526 . S
C169 H153 0.959 . S
C169 H154 0.959 . S
C169 H155 0.961 . S
C169 C168 1.502 . S
C170 H156 0.960 . S
C170 H157 0.961 . S
C170 H158 0.959 . S
C170 C168 1.561 . S
C171 C168 1.526 . S
C171 C172 1.396 . S
C171 C176 1.390 . S
C172 C166 1.465 . S
C172 C171 1.396 . S
C172 C173 1.399 . S
C173 H159 0.929 . S
C173 C172 1.399 . S
C173 C174 1.385 . S
C174 H160 0.931 . S
C174 C173 1.385 . S
C174 C175 1.389 . S
C175 C174 1.389 . S
C175 C176 1.387 . S
C176 H161 0.930 . S
C176 C171 1.390 . S
C176 C175 1.387 . S
H177 C189 0.930 . S
H178 C191 0.930 . S
H179 C192 0.930 . S
H180 C196 0.959 . S
H181 C196 0.959 . S
H182 C196 0.961 . S
H183 C197 0.960 . S
H184 C197 0.961 . S
H185 C197 0.959 . S
H186 C200 0.929 . S
H187 C201 0.931 . S
H188 C203 0.930 . S
C189 H177 0.930 . S
C189 C190 1.399 . S
C189 C194 1.399 . S
C190 C189 1.399 . S
C190 C191 1.376 1_545 S
C191 H178 0.930 . S
C191 C190 1.376 1_565 S
C191 C192 1.388 . S
C192 H179 0.930 . S
C192 C191 1.388 . S
C192 C193 1.390 . S
C193 C192 1.390 . S
C193 C194 1.394 1_565 S
C193 C199 1.465 . S
C194 C189 1.399 . S
C194 C193 1.394 1_545 S
C194 C195 1.516 . S
C195 C194 1.516 . S
C195 C196 1.502 . S
C195 C197 1.561 . S
C195 C198 1.526 . S
C196 H180 0.959 . S
C196 H181 0.959 . S
C196 H182 0.961 . S
C196 C195 1.502 . S
C197 H183 0.960 . S
C197 H184 0.961 . S
C197 H185 0.959 . S
C197 C195 1.561 . S
C198 C195 1.526 . S
C198 C199 1.396 1_545 S
C198 C203 1.390 . S
C199 C193 1.465 . S
C199 C198 1.396 1_565 S
C199 C200 1.399 . S
C200 H186 0.929 . S
C200 C199 1.399 . S
C200 C201 1.385 . S
C201 H187 0.931 . S
C201 C200 1.385 . S
C201 C202 1.389 . S
C202 C201 1.389 . S
C202 C203 1.387 1_565 S
C203 H188 0.930 . S
C203 C198 1.390 . S
C203 C202 1.387 1_545 S
H204 C216 0.930 . S
H205 C218 0.930 . S
H206 C219 0.930 . S
H207 C223 0.959 . S
H208 C223 0.959 . S
H209 C223 0.961 . S
H210 C224 0.960 . S
H211 C224 0.961 . S
H212 C224 0.959 . S
H213 C227 0.929 . S
H214 C228 0.931 . S
H215 C230 0.930 . S
C216 H204 0.930 . S
C216 C217 1.399 . S
C216 C221 1.399 . S
C217 C216 1.399 . S
C217 C218 1.376 1_554 S
C218 H205 0.930 . S
C218 C217 1.376 1_556 S
C218 C219 1.388 . S
C219 H206 0.930 . S
C219 C218 1.388 . S
C219 C220 1.390 . S
C220 C219 1.390 . S
C220 C221 1.394 1_556 S
C220 C226 1.465 . S
C221 C216 1.399 . S
C221 C220 1.394 1_554 S
C221 C222 1.516 . S
C222 C221 1.516 . S
C222 C223 1.502 . S
C222 C224 1.561 . S
C222 C225 1.526 . S
C223 H207 0.959 . S
C223 H208 0.959 . S
C223 H209 0.961 . S
C223 C222 1.502 . S
C224 H210 0.960 . S
C224 H211 0.961 . S
C224 H212 0.959 . S
C224 C222 1.561 . S
C225 C222 1.526 . S
C225 C226 1.396 1_554 S
C225 C230 1.390 . S
C226 C220 1.465 . S
C226 C225 1.396 1_556 S
C226 C227 1.399 . S
C227 H213 0.929 . S
C227 C226 1.399 . S
C227 C228 1.385 . S
C228 H214 0.931 . S
C228 C227 1.385 . S
C228 C229 1.389 1_556 S
C229 C228 1.389 1_554 S
C229 C230 1.387 . S
C230 H215 0.930 . S
C230 C225 1.390 . S
C230 C229 1.387 . S
H231 C243 0.930 . S
H232 C245 0.930 . S
H233 C246 0.930 . S
H234 C250 0.959 . S
H235 C250 0.959 . S
H236 C250 0.961 . S
H237 C251 0.960 . S
H238 C251 0.961 . S
H239 C251 0.959 . S
H240 C254 0.929 . S
H241 C255 0.931 . S
H242 C257 0.930 . S
C243 H231 0.930 . S
C243 C244 1.399 . S
C243 C248 1.399 . S
C244 C243 1.399 . S
C244 C245 1.376 . S
C245 H232 0.930 . S
C245 C244 1.376 . S
C245 C246 1.388 . S
C246 H233 0.930 . S
C246 C245 1.388 . S
C246 C247 1.390 . S
C247 C246 1.390 . S
C247 C248 1.394 . S
C247 C253 1.465 . S
C248 C243 1.399 . S
C248 C247 1.394 . S
C248 C249 1.516 . S
C249 C248 1.516 . S
C249 C250 1.502 . S
C249 C251 1.561 . S
C249 C252 1.526 . S
C250 H234 0.959 . S
C250 H235 0.959 . S
C250 H236 0.961 . S
C250 C249 1.502 . S
C251 H237 0.960 . S
C251 H238 0.961 . S
C251 H239 0.959 . S
C251 C249 1.561 . S
C252 C249 1.526 . S
C252 C253 1.396 . S
C252 C257 1.390 . S
C253 C247 1.465 . S
C253 C252 1.396 . S
C253 C254 1.399 . S
C254 H240 0.929 . S
C254 C253 1.399 . S
C254 C255 1.385 . S
C255 H241 0.931 . S
C255 C254 1.385 . S
C255 C256 1.389 . S
C256 C255 1.389 . S
C256 C257 1.387 . S
C257 H242 0.930 . S
C257 C252 1.390 . S
C257 C256 1.387 . S
H258 C270 0.930 . S
H259 C272 0.930 . S
H260 C273 0.930 . S
H261 C277 0.959 1_655 S
H262 C277 0.959 . S
H263 C277 0.961 . S
H264 C278 0.960 . S
H265 C278 0.961 . S
H266 C278 0.959 . S
H267 C281 0.929 1_565 S
H268 C282 0.931 1_665 S
H269 C284 0.930 . S
C270 H258 0.930 . S
C270 C271 1.399 . S
C270 C275 1.399 . S
C271 C270 1.399 . S
C271 C272 1.376 . S
C272 H259 0.930 . S
C272 C271 1.376 . S
C272 C273 1.388 . S
C273 H260 0.930 . S
C273 C272 1.388 . S
C273 C274 1.390 . S
C274 C273 1.390 . S
C274 C275 1.394 . S
C274 C280 1.465 . S
C275 C270 1.399 . S
C275 C274 1.394 . S
C275 C276 1.516 . S
C276 C275 1.516 . S
C276 C277 1.502 . S
C276 C278 1.561 . S
C276 C279 1.526 . S
C277 H261 0.959 1_455 S
C277 H262 0.959 . S
C277 H263 0.961 . S
C277 C276 1.502 . S
C278 H264 0.960 . S
C278 H265 0.961 . S
C278 H266 0.959 . S
C278 C276 1.561 . S
C279 C276 1.526 . S
C279 C280 1.396 . S
C279 C284 1.390 . S
C280 C274 1.465 . S
C280 C279 1.396 . S
C280 C281 1.399 . S
C281 H267 0.929 1_545 S
C281 C280 1.399 . S
C281 C282 1.385 . S
C282 H268 0.931 1_445 S
C282 C281 1.385 . S
C282 C283 1.389 . S
C283 C282 1.389 . S
C283 C284 1.387 . S
C284 H269 0.930 . S
C284 C279 1.390 . S
C284 C283 1.387 . S
H285 C297 0.930 . S
H286 C299 0.930 . S
H287 C300 0.930 . S
H288 C304 0.959 . S
H289 C304 0.959 . S
H290 C304 0.961 . S
H291 C305 0.960 . S
H292 C305 0.961 . S
H293 C305 0.959 1_545 S
H294 C308 0.929 . S
H295 C309 0.931 . S
H296 C311 0.930 . S
C297 H285 0.930 . S
C297 C298 1.399 . S
C297 C302 1.399 . S
C298 C297 1.399 . S
C298 C299 1.376 . S
C299 H286 0.930 . S
C299 C298 1.376 . S
C299 C300 1.388 . S
C300 H287 0.930 . S
C300 C299 1.388 . S
C300 C301 1.390 . S
C301 C300 1.390 . S
C301 C302 1.394 . S
C301 C307 1.465 . S
C302 C297 1.399 . S
C302 C301 1.394 . S
C302 C303 1.516 1_545 S
C303 C302 1.516 1_565 S
C303 C304 1.502 . S
C303 C305 1.561 . S
C303 C306 1.526 1_565 S
C304 H288 0.959 . S
C304 H289 0.959 . S
C304 H290 0.961 . S
C304 C303 1.502 . S
C305 H291 0.960 . S
C305 H292 0.961 . S
C305 H293 0.959 1_565 S
C305 C303 1.561 . S
C306 C303 1.526 1_545 S
C306 C307 1.396 . S
C306 C311 1.390 1_545 S
C307 C301 1.465 . S
C307 C306 1.396 . S
C307 C308 1.399 . S
C308 H294 0.929 . S
C308 C307 1.399 . S
C308 C309 1.385 . S
C309 H295 0.931 . S
C309 C308 1.385 . S
C309 C310 1.389 . S
C310 C309 1.389 . S
C310 C311 1.387 1_545 S
C311 H296 0.930 . S
C311 C306 1.390 1_565 S
C311 C310 1.387 1_565 S
H312 C324 0.930 . S
H313 C326 0.930 . S
H314 C327 0.930 . S
H315 C331 0.959 . S
H316 C331 0.959 . S
H317 C331 0.961 . S
H318 C332 0.960 . S
H319 C332 0.961 . S
H320 C332 0.959 1_455 S
H321 C335 0.929 . S
H322 C336 0.931 . S
H323 C338 0.930 . S
C324 H312 0.930 . S
C324 C325 1.399 1_655 S
C324 C329 1.399 . S
C325 C324 1.399 1_455 S
C325 C326 1.376 1_565 S
C326 H313 0.930 . S
C326 C325 1.376 1_545 S
C326 C327 1.388 . S
C327 H314 0.930 . S
C327 C326 1.388 . S
C327 C328 1.390 . S
C328 C327 1.390 . S
C328 C329 1.394 1_445 S
C328 C334 1.465 . S
C329 C324 1.399 . S
C329 C328 1.394 1_665 S
C329 C330 1.516 . S
C330 C329 1.516 . S
C330 C331 1.502 . S
C330 C332 1.561 . S
C330 C333 1.526 . S
C331 H315 0.959 . S
C331 H316 0.959 . S
C331 H317 0.961 . S
C331 C330 1.502 . S
C332 H318 0.960 . S
C332 H319 0.961 . S
C332 H320 0.959 1_655 S
C332 C330 1.561 . S
C333 C330 1.526 . S
C333 C334 1.396 1_665 S
C333 C338 1.390 . S
C334 C328 1.465 . S
C334 C333 1.396 1_445 S
C334 C335 1.399 . S
C335 H321 0.929 . S
C335 C334 1.399 . S
C335 C336 1.385 . S
C336 H322 0.931 . S
C336 C335 1.385 . S
C336 C337 1.389 1_455 S
C337 C336 1.389 1_655 S
C337 C338 1.387 1_545 S
C338 H323 0.930 . S
C338 C333 1.390 . S
C338 C337 1.387 1_565 S
C109 C6 1.235 . S
C121 C4 1.208 . S
C136 C38 1.232 . S
C148 C36 1.210 . S
C163 C66 1.197 . S
C175 C93 1.231 . S
C190 C68 1.206 . S
C202 C70 1.234 . S
C217 C2 1.233 . S
C229 C29 1.209 . S
C244 C34 1.193 . S
C256 C61 1.234 . S
C271 N50 1.541 . S
C283 N13 1.539 1_455 S
C298 N45 1.577 . S
C310 N77 1.563 1_545 S
C325 N82 1.539 . S
C337 N18 1.539 . S
