# Generated by pormake.
# Topology eta-c, (3)-cn, num edge types: 1
# Building blocks:
#     Node 0, Type 0, BuildingBlock: WUSLED_clean_sbu_0, # of connection points: 3
#     Node 1, Type 0, BuildingBlock: WUSLED_clean_sbu_0, # of connection points: 3
#     Node 2, Type 0, BuildingBlock: WUSLED_clean_sbu_0, # of connection points: 3
#     Node 3, Type 0, BuildingBlock: WUSLED_clean_sbu_0, # of connection points: 3
#     Node 4, Type 0, BuildingBlock: WUSLED_clean_sbu_0, # of connection points: 3
#     Node 5, Type 0, BuildingBlock: WUSLED_clean_sbu_0, # of connection points: 3
#     Edge 6, Type (0, 0), BuildingBlock: OJICUG_clean_linker_0, # of connection points: 2
#     Edge 7, Type (0, 0), BuildingBlock: OJICUG_clean_linker_0, # of connection points: 2
#     Edge 8, Type (0, 0), BuildingBlock: OJICUG_clean_linker_0, # of connection points: 2
#     Edge 9, Type (0, 0), BuildingBlock: OJICUG_clean_linker_0, # of connection points: 2
#     Edge 10, Type (0, 0), BuildingBlock: OJICUG_clean_linker_0, # of connection points: 2
#     Edge 11, Type (0, 0), BuildingBlock: OJICUG_clean_linker_0, # of connection points: 2
#     Edge 12, Type (0, 0), BuildingBlock: OJICUG_clean_linker_0, # of connection points: 2
#     Edge 13, Type (0, 0), BuildingBlock: OJICUG_clean_linker_0, # of connection points: 2
#     Edge 14, Type (0, 0), BuildingBlock: OJICUG_clean_linker_0, # of connection points: 2
# Relax obj value: 0.000
# Max RMSD: 0.004
# Mean RMSD: 0.003
data_MOF--net-eta-c--node1-WUSLED_clean_sbu_0--edge1-OJICUG_clean_linker_0
_symmetry_space_group_name_H-M    P1
_symmetry_Int_Tables_number       1
_symmetry_cell_setting            triclinic
loop_
_symmetry_equiv_pos_as_xyz
'x, y, z'
_cell_length_a     53.880825
_cell_length_b     54.431977
_cell_length_c     22.517876
_cell_angle_alpha  91.016721
_cell_angle_beta   89.507356
_cell_angle_gamma 118.83133
loop_
_atom_site_label
_atom_site_type_symbol
_atom_site_fract_x
_atom_site_fract_y
_atom_site_fract_z
_atom_type_partial_charge
C0 C 0.41463 0.82057 0.19972 0.0
C1 C 0.40223 0.79145 0.19063 0.0
C2 C 0.37938 0.78353 0.28773 0.0
C3 C 0.3848 0.77307 0.23435 0.0
C4 C 0.39219 0.81277 0.29665 0.0
C5 C 0.40963 0.83108 0.25306 0.0
U6 U 0.44733 0.83649 0.04407 0.0
O7 O 0.45224 0.86943 0.98235 0.0
O8 O 0.48984 0.86832 1.01543 0.0
C9 C 0.48005 0.88221 0.98505 0.0
C10 C 0.43231 0.84028 0.15376 0.0
C11 C 0.494 0.91271 0.99659 0.0
C12 C 0.50124 0.953 0.0575 0.0
C13 C 0.48769 0.92391 0.04748 0.0
C14 C 0.5276 0.95991 0.966 0.0
C15 C 0.52141 0.97141 1.01686 0.0
C16 C 0.51401 0.93088 0.95602 0.0
C17 C 0.4317 0.77493 0.9364 0.0
C18 C 0.44383 0.77987 0.8314 0.0
C19 C 0.42363 0.73416 0.87657 0.0
C20 C 0.4224 0.74611 0.93125 0.0
C21 C 0.43403 0.75081 0.82576 0.0
C22 C 0.44268 0.79183 0.88629 0.0
C23 C 0.42919 0.78673 0.99407 0.0
O24 O 0.45584 0.8398 0.14014 0.0
O25 O 0.41859 0.84155 0.10697 0.0
O26 O 0.41476 0.80049 0.99386 0.0
O27 O 0.45246 0.79926 1.02599 0.0
H28 H 0.40581 0.78297 0.14953 0.0
H29 H 0.37507 0.7507 0.22579 0.0
H30 H 0.3888 0.82154 0.33751 0.0
H31 H 0.41909 0.8535 0.26088 0.0
H32 H 0.49568 0.96105 0.09677 0.0
H33 H 0.47226 0.91017 0.07933 0.0
H34 H 0.5433 0.97331 0.93423 0.0
H35 H 0.51923 0.9226 0.9166 0.0
H36 H 0.45177 0.79326 0.79311 0.0
H37 H 0.41648 0.71186 0.87408 0.0
H38 H 0.41399 0.73275 0.96953 0.0
H39 H 0.44999 0.81417 0.88949 0.0
C40 C 0.63114 0.3984 0.53123 0.0
C41 C 0.64944 0.38707 0.52264 0.0
C42 C 0.63534 0.3638 0.61832 0.0
C43 C 0.65155 0.36994 0.56582 0.0
C44 C 0.61713 0.37538 0.62654 0.0
C45 C 0.61508 0.3925 0.58342 0.0
U46 U 0.64565 0.43032 0.37636 0.0
O47 O 0.61709 0.43581 0.31538 0.0
O48 O 0.65527 0.47264 0.34878 0.0
C49 C 0.63158 0.46334 0.31858 0.0
C50 C 0.62819 0.41602 0.48599 0.0
C51 C 0.61496 0.47787 0.33057 0.0
C52 C 0.57992 0.48416 0.38802 0.0
C53 C 0.59563 0.47014 0.37787 0.0
C54 C 0.60289 0.51392 0.30406 0.0
C55 C 0.58332 0.50624 0.35117 0.0
C56 C 0.61849 0.49985 0.2939 0.0
C57 C 0.69062 0.41325 0.2669 0.0
C58 C 0.69823 0.42737 0.16356 0.0
C59 C 0.72067 0.40201 0.20386 0.0
C60 C 0.70831 0.40123 0.25911 0.0
C61 C 0.71558 0.41482 0.15526 0.0
C62 C 0.68579 0.42654 0.21896 0.0
C63 C 0.67705 0.41118 0.32497 0.0
O64 O 0.65151 0.43903 0.47252 0.0
O65 O 0.61307 0.40249 0.43916 0.0
O66 O 0.64921 0.39741 0.32506 0.0
O67 O 0.6876 0.43431 0.35741 0.0
H68 H 0.66202 0.39141 0.48251 0.0
H69 H 0.666 0.36165 0.55825 0.0
H70 H 0.60398 0.37076 0.66582 0.0
H71 H 0.60073 0.40095 0.59064 0.0
H72 H 0.56486 0.47744 0.42429 0.0
H73 H 0.59263 0.45321 0.40675 0.0
H74 H 0.60649 0.5311 0.27542 0.0
H75 H 0.63342 0.50621 0.25735 0.0
H76 H 0.69379 0.43729 0.12693 0.0
H77 H 0.73434 0.39266 0.19909 0.0
H78 H 0.71241 0.39102 0.29573 0.0
H79 H 0.6722 0.43597 0.22424 0.0
C80 C 0.26381 0.67154 0.54941 0.0
C81 C 0.2923 0.67766 0.54993 0.0
C82 C 0.30227 0.70792 0.46435 0.0
C83 C 0.31134 0.6956 0.50758 0.0
C84 C 0.27369 0.70168 0.46426 0.0
C85 C 0.25469 0.68366 0.50632 0.0
U86 U 0.24579 0.63635 0.70109 0.0
O87 O 0.21091 0.62843 0.7625 0.0
O88 O 0.21481 0.59299 0.72465 0.0
C89 C 0.19952 0.60103 0.75707 0.0
C90 C 0.2433 0.65269 0.59329 0.0
C91 C 0.16861 0.58548 0.74758 0.0
C92 C 0.12511 0.58131 0.70615 0.0
C93 C 0.15479 0.59537 0.71001 0.0
C94 C 0.12293 0.54691 0.77572 0.0
C95 C 0.10879 0.55718 0.7399 0.0
C96 C 0.15248 0.56094 0.77955 0.0
C97 C 0.30603 0.6524 0.81118 0.0
C98 C 0.30233 0.62487 0.89795 0.0
C99 C 0.34407 0.66988 0.88384 0.0
C100 C 0.33249 0.67331 0.83132 0.0
C101 C 0.32934 0.64543 0.91751 0.0
C102 C 0.29078 0.62832 0.84528 0.0
C103 C 0.29519 0.65584 0.75382 0.0
O104 O 0.2445 0.62965 0.60434 0.0
O105 O 0.24021 0.66497 0.64141 0.0
O106 O 0.27998 0.66878 0.75593 0.0
O107 O 0.28457 0.63376 0.71809 0.0
H108 H 0.29982 0.66864 0.58311 0.0
H109 H 0.33324 0.70019 0.50929 0.0
H110 H 0.26592 0.71051 0.43119 0.0
H111 H 0.23279 0.67916 0.50515 0.0
H112 H 0.11495 0.5899 0.67838 0.0
H113 H 0.16687 0.61428 0.6848 0.0
H114 H 0.11112 0.52811 0.8014 0.0
H115 H 0.16275 0.55289 0.80855 0.0
H116 H 0.2901 0.60603 0.92324 0.0
H117 H 0.36492 0.68606 0.89711 0.0
H118 H 0.34442 0.69216 0.80582 0.0
H119 H 0.27013 0.61206 0.83082 0.0
C120 C 0.62944 0.24743 0.8812 0.0
C121 C 0.6462 0.27628 0.89262 0.0
C122 C 0.63448 0.28674 0.79508 0.0
C123 C 0.6487 0.29578 0.84994 0.0
C124 C 0.61782 0.25774 0.78403 0.0
C125 C 0.61536 0.23831 0.82668 0.0
U126 U 0.64345 0.22824 0.03521 0.0
O127 O 0.61514 0.19477 0.09506 0.0
O128 O 0.65372 0.19531 0.06126 0.0
C129 C 0.62998 0.18145 0.09104 0.0
C130 C 0.62631 0.22659 0.9256 0.0
C131 C 0.61379 0.15103 0.07831 0.0
C132 C 0.57615 0.11083 1.02662 0.0
C133 C 0.59163 0.13987 0.03668 0.0
C134 C 0.60506 0.10383 0.09894 0.0
C135 C 0.58259 0.09238 0.0578 0.0
C136 C 0.62043 0.13281 0.10909 0.0
C137 C 0.68833 0.28851 0.14575 0.0
C138 C 0.71821 0.28979 0.22758 0.0
C139 C 0.7034 0.32519 0.2217 0.0
C140 C 0.68834 0.31246 0.16973 0.0
C141 C 0.71902 0.31439 0.25062 0.0
C142 C 0.70298 0.27695 0.17563 0.0
C143 C 0.67418 0.27708 0.08817 0.0
O144 O 0.64963 0.22587 0.93899 0.0
O145 O 0.61096 0.22519 0.9724 0.0
O146 O 0.64633 0.26386 0.08875 0.0
O147 O 0.68496 0.26469 0.05419 0.0
H148 H 0.6573 0.28369 0.93453 0.0
H149 H 0.66195 0.3179 0.85972 0.0
H150 H 0.60621 0.25 0.74281 0.0
H151 H 0.60227 0.21612 0.81719 0.0
H152 H 0.55885 0.10282 0.99507 0.0
H153 H 0.58617 0.15359 1.01232 0.0
H154 H 0.61103 0.09041 0.12297 0.0
H155 H 0.63754 0.14102 0.14117 0.0
H156 H 0.73011 0.281 0.24856 0.0
H157 H 0.70297 0.34363 0.23909 0.0
H158 H 0.67706 0.32165 0.14762 0.0
H159 H 0.70321 0.25839 0.15814 0.0
C160 C 0.41764 0.62126 0.21019 0.0
C161 C 0.40526 0.63855 0.21943 0.0
C162 C 0.38664 0.62875 0.11823 0.0
C163 C 0.38991 0.6423 0.1738 0.0
C164 C 0.3991 0.61141 0.10957 0.0
C165 C 0.41441 0.60772 0.1551 0.0
U166 U 0.44708 0.63241 0.36882 0.0
O167 O 0.45137 0.60275 0.4273 0.0
O168 O 0.48928 0.64087 0.39927 0.0
C169 C 0.47921 0.61683 0.42673 0.0
C170 C 0.43418 0.61722 0.257 0.0
C171 C 0.49377 0.6003 0.41408 0.0
C172 C 0.49888 0.56451 0.35738 0.0
C173 C 0.48496 0.58029 0.36772 0.0
C174 C 0.53078 0.58885 0.43906 0.0
C175 C 0.52196 0.56853 0.39305 0.0
C176 C 0.5168 0.6045 0.44946 0.0
C177 C 0.42951 0.67556 0.48218 0.0
C178 C 0.45539 0.69848 0.57261 0.0
C179 C 0.40698 0.68917 0.56046 0.0
C180 C 0.40594 0.67713 0.50452 0.0
C181 C 0.43174 0.70005 0.59514 0.0
C182 C 0.45425 0.68621 0.51675 0.0
C183 C 0.42778 0.66303 0.42266 0.0
O184 O 0.45737 0.63982 0.27383 0.0
O185 O 0.41948 0.60165 0.30168 0.0
O186 O 0.41345 0.63551 0.41936 0.0
O187 O 0.45128 0.67373 0.39127 0.0
H188 H 0.40751 0.64914 0.26185 0.0
H189 H 0.38039 0.65558 0.18223 0.0
H190 H 0.39746 0.60102 0.06718 0.0
H191 H 0.42391 0.59437 0.14713 0.0
H192 H 0.49129 0.54889 0.32196 0.0
H193 H 0.46723 0.57675 0.3398 0.0
H194 H 0.54874 0.59294 0.46674 0.0
H195 H 0.52401 0.61995 0.48525 0.0
H196 H 0.47465 0.70641 0.59852 0.0
H197 H 0.38852 0.69032 0.57623 0.0
H198 H 0.38669 0.66912 0.4785 0.0
H199 H 0.47267 0.68507 0.5006 0.0
C200 C 0.8317 0.40405 0.54167 0.0
C201 C 0.80433 0.38243 0.55451 0.0
C202 C 0.79345 0.37429 0.4487 0.0
C203 C 0.78541 0.36759 0.50839 0.0
C204 C 0.82088 0.39604 0.4363 0.0
C205 C 0.83979 0.41073 0.48234 0.0
U206 U 0.84888 0.4315 0.70197 0.0
O207 O 0.8827 0.43522 0.76146 0.0
O208 O 0.88071 0.47299 0.73616 0.0
C209 C 0.89502 0.46276 0.76383 0.0
C210 C 0.85202 0.42003 0.58926 0.0
C211 C 0.92597 0.47766 0.7552 0.0
C212 C 0.9685 0.48499 0.70206 0.0
C213 C 0.93887 0.47152 0.70694 0.0
C214 C 0.97249 0.51126 0.79272 0.0
C215 C 0.98569 0.50475 0.74545 0.0
C216 C 0.94298 0.49783 0.79751 0.0
C217 C 0.78768 0.41244 0.81257 0.0
C218 C 0.79069 0.43589 0.90735 0.0
C219 C 0.75014 0.39061 0.88571 0.0
C220 C 0.76162 0.39012 0.83004 0.0
C221 C 0.76449 0.41353 0.925 0.0
C222 C 0.80226 0.4353 0.85172 0.0
C223 C 0.799 0.41147 0.75324 0.0
O224 O 0.85166 0.44289 0.60782 0.0
O225 O 0.85387 0.4052 0.63276 0.0
O226 O 0.81318 0.3975 0.7492 0.0
O227 O 0.81096 0.43516 0.72412 0.0
H228 H 0.7976 0.3771 0.60013 0.0
H229 H 0.76436 0.35116 0.51946 0.0
H230 H 0.82789 0.40152 0.39088 0.0
H231 H 0.86081 0.42734 0.47156 0.0
H232 H 0.97795 0.47936 0.66529 0.0
H233 H 0.92605 0.45601 0.67371 0.0
H234 H 0.98499 0.52672 0.82629 0.0
H235 H 0.93342 0.50297 0.83487 0.0
H236 H 0.80241 0.45369 0.93686 0.0
H237 H 0.7298 0.3732 0.89763 0.0
H238 H 0.75003 0.37233 0.80041 0.0
H239 H 0.82252 0.45268 0.83926 0.0
C240 C 0.54238 1.02104 0.98029 0.0
C241 C 0.53625 1.00241 0.02763 0.0
H242 H 0.56192 0.06372 0.95232 0.0
C243 C 0.54492 1.01369 0.08516 0.0
H244 H 0.53571 1.01317 0.93549 0.0
C245 C 0.55961 0.04275 0.09496 0.0
C246 C 0.56613 0.06138 0.04749 0.0
H247 H 0.54084 1.00008 0.12266 0.0
H248 H 0.5658 0.0506 0.13993 0.0
C249 C 0.55712 0.0501 0.99007 0.0
C250 C 0.5468 0.5426 0.43012 0.0
C251 C 0.53692 0.55182 0.38229 0.0
H252 H 0.56932 0.52143 0.45805 0.0
C253 C 0.54186 0.54529 0.32415 0.0
H254 H 0.54307 0.54685 0.47553 0.0
C255 C 0.55656 0.53029 0.31414 0.0
C256 C 0.56681 0.52143 0.36196 0.0
H257 H 0.53481 0.55222 0.28617 0.0
H258 H 0.55981 0.52556 0.26875 0.0
C259 C 0.56156 0.52765 0.4201 0.0
C260 C 0.06229 0.53407 0.79396 0.0
C261 C 0.07722 0.54347 0.74029 0.0
H262 H 1.02206 0.51429 0.83747 0.0
C263 C 0.06173 0.53988 0.68782 0.0
H264 H 0.07346 0.53679 0.83538 0.0
C265 C 1.03205 0.52713 0.68913 0.0
C266 C 1.01721 0.51791 0.74301 0.0
H267 H 0.07253 0.54671 0.64565 0.0
H268 H 1.02076 0.52488 0.64809 0.0
C269 C 1.03275 0.52146 0.79529 0.0
C270 C 0.36075 0.73957 0.34828 0.0
C271 C 0.35992 0.76416 0.3334 0.0
H272 H 0.34331 0.70257 0.40124 0.0
C273 C 0.34018 0.77015 0.36239 0.0
H274 H 0.37585 0.73444 0.32716 0.0
C275 C 0.32168 0.752 0.40491 0.0
C276 C 0.32243 0.72739 0.41975 0.0
H277 H 0.33874 0.78874 0.35162 0.0
H278 H 0.30687 0.75738 0.42651 0.0
C279 C 0.34231 0.72146 0.39116 0.0
C280 C 0.63586 0.35046 0.72476 0.0
C281 C 0.6368 0.34491 0.66374 0.0
H282 H 0.6342 0.33655 0.81377 0.0
C283 C 0.63822 0.32065 0.64647 0.0
H284 H 0.63515 0.36913 0.73976 0.0
C285 C 0.63802 0.30212 0.68901 0.0
C286 C 0.63639 0.30733 0.74997 0.0
H287 H 0.63876 0.31556 0.59994 0.0
H288 H 0.63903 0.28361 0.67403 0.0
C289 C 0.63566 0.33193 0.76731 0.0
C290 C 0.37351 0.65943 0.05798 0.0
C291 C 0.37066 0.63283 0.06903 0.0
H292 H 0.36248 0.68424 1.00245 0.0
C293 C 0.35311 0.61025 0.0314 0.0
H294 H 0.387 0.67735 0.08573 0.0
C295 C 0.33935 0.61425 0.98316 0.0
C296 C 0.34266 0.64095 0.97123 0.0
H297 H 0.35008 0.58939 0.03902 0.0
H298 H 0.32671 0.59648 0.95428 0.0
C299 C 0.35969 0.66344 1.00971 0.0
C300 C 0.75669 0.32946 0.40002 0.0
C301 C 0.77344 0.35883 0.39931 0.0
H302 H 0.72631 0.29235 0.35387 0.0
C303 C 0.77148 0.37339 0.3502 0.0
H304 H 0.75783 0.31759 0.43701 0.0
C305 C 0.7536 0.35896 0.3026 0.0
C306 C 0.73716 0.32957 0.30274 0.0
H307 H 0.78384 0.39603 0.34847 0.0
H308 H 0.75318 0.37084 0.26499 0.0
C309 C 0.73883 0.31497 0.35215 0.0
C310 C 0.45631 0.73833 0.67205 0.0
C311 C 0.43273 0.71289 0.6546 0.0
H312 H 0.47527 0.77027 0.7396 0.0
C313 C 0.40984 0.69991 0.69413 0.0
H314 H 0.4742 0.74894 0.64244 0.0
C315 C 0.41047 0.71208 0.74967 0.0
C316 C 0.43386 0.7377 0.76696 0.0
H317 H 0.39148 0.68018 0.6823 0.0
H318 H 0.3924 0.70158 0.77878 0.0
C319 C 0.45681 0.75068 0.72747 0.0
C320 C 0.73964 0.38981 1.01898 0.0
C321 C 0.7521 0.41401 0.9841 0.0
H322 H 0.71831 0.37108 0.09993 0.0
C323 C 0.75239 0.43853 1.00591 0.0
H324 H 0.73926 0.37065 1.00372 0.0
C325 C 0.74036 0.43879 0.06116 0.0
C326 C 0.72804 0.41461 0.09611 0.0
H327 H 0.7616 0.45745 0.9799 0.0
H328 H 0.74104 0.45802 0.07686 0.0
C329 C 0.72785 0.39013 0.07436 0.0
loop_
_geom_bond_atom_site_label_1
_geom_bond_atom_site_label_2
_geom_bond_distance
_geom_bond_site_symmetry_2
_ccdc_geom_bond_type
C0 C1 1.264 . S
C0 C5 1.479 . S
C0 C10 1.465 . S
C1 C0 1.264 . S
C1 C3 1.339 . S
C1 H28 0.931 . S
C2 C3 1.395 . S
C2 C4 1.320 . S
C3 C1 1.339 . S
C3 C2 1.395 . S
C3 H29 0.929 . S
C4 C2 1.320 . S
C4 C5 1.405 . S
C4 H30 0.930 . S
C5 C0 1.479 . S
C5 C4 1.405 . S
C5 H31 0.931 . S
U6 O7 2.454 . S
U6 O8 2.458 1_554 S
U6 C9 2.984 . S
U6 C10 2.847 . S
U6 C23 2.882 1_554 S
U6 O24 2.441 . S
U6 O25 2.420 . S
U6 O26 2.455 1_554 S
U6 O27 2.449 1_554 S
O7 U6 2.454 . S
O7 C9 1.353 . S
O8 U6 2.458 1_556 S
O8 C9 1.286 1_556 S
C9 U6 2.984 . S
C9 O7 1.353 . S
C9 O8 1.286 1_554 S
C9 C11 1.363 . S
C10 C0 1.465 . S
C10 U6 2.847 . S
C10 O24 1.249 . S
C10 O25 1.202 . S
C11 C9 1.363 . S
C11 C13 1.408 . S
C11 C16 1.342 1_554 S
C12 C13 1.310 . S
C12 C15 1.461 . S
C12 H32 0.932 . S
C13 C11 1.408 . S
C13 C12 1.310 . S
C13 H33 0.930 . S
C14 C15 1.474 1_556 S
C14 C16 1.285 . S
C14 H34 0.929 . S
C15 C12 1.461 . S
C15 C14 1.474 1_554 S
C16 C11 1.342 1_556 S
C16 C14 1.285 . S
C16 H35 0.930 . S
C17 C20 1.424 . S
C17 C22 1.245 . S
C17 C23 1.428 . S
C18 C21 1.260 . S
C18 C22 1.477 . S
C18 H36 0.932 . S
C19 C20 1.384 . S
C19 C21 1.479 . S
C19 H37 0.929 . S
C20 C17 1.424 . S
C20 C19 1.384 . S
C20 H38 0.928 . S
C21 C18 1.260 . S
C21 C19 1.479 . S
C22 C17 1.245 . S
C22 C18 1.477 . S
C22 H39 0.932 . S
C23 U6 2.882 1_556 S
C23 C17 1.428 . S
C23 O26 1.301 . S
C23 O27 1.282 . S
O24 U6 2.441 . S
O24 C10 1.249 . S
O25 U6 2.420 . S
O25 C10 1.202 . S
O26 U6 2.455 1_556 S
O26 C23 1.301 . S
O27 U6 2.449 1_556 S
O27 C23 1.282 . S
H28 C1 0.931 . S
H29 C3 0.929 . S
H30 C4 0.930 . S
H31 C5 0.931 . S
H32 C12 0.932 . S
H33 C13 0.930 . S
H34 C14 0.929 . S
H35 C16 0.930 . S
H36 C18 0.932 . S
H37 C19 0.929 . S
H38 C20 0.928 . S
H39 C22 0.932 . S
C40 C41 1.264 . S
C40 C45 1.479 . S
C40 C50 1.465 . S
C41 C40 1.264 . S
C41 C43 1.339 . S
C41 H68 0.931 . S
C42 C43 1.395 . S
C42 C44 1.320 . S
C43 C41 1.339 . S
C43 C42 1.395 . S
C43 H69 0.929 . S
C44 C42 1.320 . S
C44 C45 1.405 . S
C44 H70 0.930 . S
C45 C40 1.479 . S
C45 C44 1.405 . S
C45 H71 0.931 . S
U46 O47 2.454 . S
U46 O48 2.458 . S
U46 C49 2.984 . S
U46 C50 2.847 . S
U46 C63 2.882 . S
U46 O64 2.441 . S
U46 O65 2.420 . S
U46 O66 2.455 . S
U46 O67 2.449 . S
O47 U46 2.454 . S
O47 C49 1.353 . S
O48 U46 2.458 . S
O48 C49 1.286 . S
C49 U46 2.984 . S
C49 O47 1.353 . S
C49 O48 1.286 . S
C49 C51 1.363 . S
C50 C40 1.465 . S
C50 U46 2.847 . S
C50 O64 1.249 . S
C50 O65 1.202 . S
C51 C49 1.363 . S
C51 C53 1.408 . S
C51 C56 1.342 . S
C52 C53 1.310 . S
C52 C55 1.461 . S
C52 H72 0.932 . S
C53 C51 1.408 . S
C53 C52 1.310 . S
C53 H73 0.930 . S
C54 C55 1.474 . S
C54 C56 1.285 . S
C54 H74 0.929 . S
C55 C52 1.461 . S
C55 C54 1.474 . S
C56 C51 1.342 . S
C56 C54 1.285 . S
C56 H75 0.930 . S
C57 C60 1.424 . S
C57 C62 1.245 . S
C57 C63 1.428 . S
C58 C61 1.260 . S
C58 C62 1.477 . S
C58 H76 0.932 . S
C59 C60 1.384 . S
C59 C61 1.479 . S
C59 H77 0.929 . S
C60 C57 1.424 . S
C60 C59 1.384 . S
C60 H78 0.928 . S
C61 C58 1.260 . S
C61 C59 1.479 . S
C62 C57 1.245 . S
C62 C58 1.477 . S
C62 H79 0.932 . S
C63 U46 2.882 . S
C63 C57 1.428 . S
C63 O66 1.301 . S
C63 O67 1.282 . S
O64 U46 2.441 . S
O64 C50 1.249 . S
O65 U46 2.420 . S
O65 C50 1.202 . S
O66 U46 2.455 . S
O66 C63 1.301 . S
O67 U46 2.449 . S
O67 C63 1.282 . S
H68 C41 0.931 . S
H69 C43 0.929 . S
H70 C44 0.930 . S
H71 C45 0.931 . S
H72 C52 0.932 . S
H73 C53 0.930 . S
H74 C54 0.929 . S
H75 C56 0.930 . S
H76 C58 0.932 . S
H77 C59 0.929 . S
H78 C60 0.928 . S
H79 C62 0.932 . S
C80 C81 1.264 . S
C80 C85 1.479 . S
C80 C90 1.465 . S
C81 C80 1.264 . S
C81 C83 1.339 . S
C81 H108 0.931 . S
C82 C83 1.395 . S
C82 C84 1.320 . S
C83 C81 1.339 . S
C83 C82 1.395 . S
C83 H109 0.929 . S
C84 C82 1.320 . S
C84 C85 1.405 . S
C84 H110 0.930 . S
C85 C80 1.479 . S
C85 C84 1.405 . S
C85 H111 0.931 . S
U86 O87 2.454 . S
U86 O88 2.458 . S
U86 C89 2.984 . S
U86 C90 2.847 . S
U86 C103 2.882 . S
U86 O104 2.441 . S
U86 O105 2.420 . S
U86 O106 2.455 . S
U86 O107 2.449 . S
O87 U86 2.454 . S
O87 C89 1.353 . S
O88 U86 2.458 . S
O88 C89 1.286 . S
C89 U86 2.984 . S
C89 O87 1.353 . S
C89 O88 1.286 . S
C89 C91 1.363 . S
C90 C80 1.465 . S
C90 U86 2.847 . S
C90 O104 1.249 . S
C90 O105 1.202 . S
C91 C89 1.363 . S
C91 C93 1.408 . S
C91 C96 1.342 . S
C92 C93 1.310 . S
C92 C95 1.461 . S
C92 H112 0.932 . S
C93 C91 1.408 . S
C93 C92 1.310 . S
C93 H113 0.930 . S
C94 C95 1.474 . S
C94 C96 1.285 . S
C94 H114 0.929 . S
C95 C92 1.461 . S
C95 C94 1.474 . S
C96 C91 1.342 . S
C96 C94 1.285 . S
C96 H115 0.930 . S
C97 C100 1.424 . S
C97 C102 1.245 . S
C97 C103 1.428 . S
C98 C101 1.260 . S
C98 C102 1.477 . S
C98 H116 0.932 . S
C99 C100 1.384 . S
C99 C101 1.479 . S
C99 H117 0.929 . S
C100 C97 1.424 . S
C100 C99 1.384 . S
C100 H118 0.928 . S
C101 C98 1.260 . S
C101 C99 1.479 . S
C102 C97 1.245 . S
C102 C98 1.477 . S
C102 H119 0.932 . S
C103 U86 2.882 . S
C103 C97 1.428 . S
C103 O106 1.301 . S
C103 O107 1.282 . S
O104 U86 2.441 . S
O104 C90 1.249 . S
O105 U86 2.420 . S
O105 C90 1.202 . S
O106 U86 2.455 . S
O106 C103 1.301 . S
O107 U86 2.449 . S
O107 C103 1.282 . S
H108 C81 0.931 . S
H109 C83 0.929 . S
H110 C84 0.930 . S
H111 C85 0.931 . S
H112 C92 0.932 . S
H113 C93 0.930 . S
H114 C94 0.929 . S
H115 C96 0.930 . S
H116 C98 0.932 . S
H117 C99 0.929 . S
H118 C100 0.928 . S
H119 C102 0.932 . S
C120 C121 1.264 . S
C120 C125 1.479 . S
C120 C130 1.465 . S
C121 C120 1.264 . S
C121 C123 1.339 . S
C121 H148 0.931 . S
C122 C123 1.395 . S
C122 C124 1.320 . S
C123 C121 1.339 . S
C123 C122 1.395 . S
C123 H149 0.929 . S
C124 C122 1.320 . S
C124 C125 1.405 . S
C124 H150 0.930 . S
C125 C120 1.479 . S
C125 C124 1.405 . S
C125 H151 0.931 . S
U126 O127 2.454 1_554 S
U126 O128 2.458 . S
U126 C129 2.984 . S
U126 C130 2.847 1_554 S
U126 C143 2.882 . S
U126 O144 2.441 1_554 S
U126 O145 2.420 1_554 S
U126 O146 2.455 . S
U126 O147 2.449 . S
O127 U126 2.454 1_556 S
O127 C129 1.353 1_556 S
O128 U126 2.458 . S
O128 C129 1.286 . S
C129 U126 2.984 . S
C129 O127 1.353 1_554 S
C129 O128 1.286 . S
C129 C131 1.363 . S
C130 C120 1.465 . S
C130 U126 2.847 1_556 S
C130 O144 1.249 . S
C130 O145 1.202 . S
C131 C129 1.363 . S
C131 C133 1.408 1_554 S
C131 C136 1.342 . S
C132 C133 1.310 . S
C132 C135 1.461 1_556 S
C132 H152 0.932 . S
C133 C131 1.408 1_556 S
C133 C132 1.310 . S
C133 H153 0.930 . S
C134 C135 1.474 . S
C134 C136 1.285 . S
C134 H154 0.929 . S
C135 C132 1.461 1_554 S
C135 C134 1.474 . S
C136 C131 1.342 . S
C136 C134 1.285 . S
C136 H155 0.930 . S
C137 C140 1.424 . S
C137 C142 1.245 . S
C137 C143 1.428 . S
C138 C141 1.260 . S
C138 C142 1.477 . S
C138 H156 0.932 . S
C139 C140 1.384 . S
C139 C141 1.479 . S
C139 H157 0.929 . S
C140 C137 1.424 . S
C140 C139 1.384 . S
C140 H158 0.928 . S
C141 C138 1.260 . S
C141 C139 1.479 . S
C142 C137 1.245 . S
C142 C138 1.477 . S
C142 H159 0.932 . S
C143 U126 2.882 . S
C143 C137 1.428 . S
C143 O146 1.301 . S
C143 O147 1.282 . S
O144 U126 2.441 1_556 S
O144 C130 1.249 . S
O145 U126 2.420 1_556 S
O145 C130 1.202 . S
O146 U126 2.455 . S
O146 C143 1.301 . S
O147 U126 2.449 . S
O147 C143 1.282 . S
H148 C121 0.931 . S
H149 C123 0.929 . S
H150 C124 0.930 . S
H151 C125 0.931 . S
H152 C132 0.932 . S
H153 C133 0.930 . S
H154 C134 0.929 . S
H155 C136 0.930 . S
H156 C138 0.932 . S
H157 C139 0.929 . S
H158 C140 0.928 . S
H159 C142 0.932 . S
C160 C161 1.264 . S
C160 C165 1.479 . S
C160 C170 1.465 . S
C161 C160 1.264 . S
C161 C163 1.339 . S
C161 H188 0.931 . S
C162 C163 1.395 . S
C162 C164 1.320 . S
C163 C161 1.339 . S
C163 C162 1.395 . S
C163 H189 0.929 . S
C164 C162 1.320 . S
C164 C165 1.405 . S
C164 H190 0.930 . S
C165 C160 1.479 . S
C165 C164 1.405 . S
C165 H191 0.931 . S
U166 O167 2.454 . S
U166 O168 2.458 . S
U166 C169 2.984 . S
U166 C170 2.847 . S
U166 C183 2.882 . S
U166 O184 2.441 . S
U166 O185 2.420 . S
U166 O186 2.455 . S
U166 O187 2.449 . S
O167 U166 2.454 . S
O167 C169 1.353 . S
O168 U166 2.458 . S
O168 C169 1.286 . S
C169 U166 2.984 . S
C169 O167 1.353 . S
C169 O168 1.286 . S
C169 C171 1.363 . S
C170 C160 1.465 . S
C170 U166 2.847 . S
C170 O184 1.249 . S
C170 O185 1.202 . S
C171 C169 1.363 . S
C171 C173 1.408 . S
C171 C176 1.342 . S
C172 C173 1.310 . S
C172 C175 1.461 . S
C172 H192 0.932 . S
C173 C171 1.408 . S
C173 C172 1.310 . S
C173 H193 0.930 . S
C174 C175 1.474 . S
C174 C176 1.285 . S
C174 H194 0.929 . S
C175 C172 1.461 . S
C175 C174 1.474 . S
C176 C171 1.342 . S
C176 C174 1.285 . S
C176 H195 0.930 . S
C177 C180 1.424 . S
C177 C182 1.245 . S
C177 C183 1.428 . S
C178 C181 1.260 . S
C178 C182 1.477 . S
C178 H196 0.932 . S
C179 C180 1.384 . S
C179 C181 1.479 . S
C179 H197 0.929 . S
C180 C177 1.424 . S
C180 C179 1.384 . S
C180 H198 0.928 . S
C181 C178 1.260 . S
C181 C179 1.479 . S
C182 C177 1.245 . S
C182 C178 1.477 . S
C182 H199 0.932 . S
C183 U166 2.882 . S
C183 C177 1.428 . S
C183 O186 1.301 . S
C183 O187 1.282 . S
O184 U166 2.441 . S
O184 C170 1.249 . S
O185 U166 2.420 . S
O185 C170 1.202 . S
O186 U166 2.455 . S
O186 C183 1.301 . S
O187 U166 2.449 . S
O187 C183 1.282 . S
H188 C161 0.931 . S
H189 C163 0.929 . S
H190 C164 0.930 . S
H191 C165 0.931 . S
H192 C172 0.932 . S
H193 C173 0.930 . S
H194 C174 0.929 . S
H195 C176 0.930 . S
H196 C178 0.932 . S
H197 C179 0.929 . S
H198 C180 0.928 . S
H199 C182 0.932 . S
C200 C201 1.264 . S
C200 C205 1.479 . S
C200 C210 1.465 . S
C201 C200 1.264 . S
C201 C203 1.339 . S
C201 H228 0.931 . S
C202 C203 1.395 . S
C202 C204 1.320 . S
C203 C201 1.339 . S
C203 C202 1.395 . S
C203 H229 0.929 . S
C204 C202 1.320 . S
C204 C205 1.405 . S
C204 H230 0.930 . S
C205 C200 1.479 . S
C205 C204 1.405 . S
C205 H231 0.931 . S
U206 O207 2.454 . S
U206 O208 2.458 . S
U206 C209 2.984 . S
U206 C210 2.847 . S
U206 C223 2.882 . S
U206 O224 2.441 . S
U206 O225 2.420 . S
U206 O226 2.455 . S
U206 O227 2.449 . S
O207 U206 2.454 . S
O207 C209 1.353 . S
O208 U206 2.458 . S
O208 C209 1.286 . S
C209 U206 2.984 . S
C209 O207 1.353 . S
C209 O208 1.286 . S
C209 C211 1.363 . S
C210 C200 1.465 . S
C210 U206 2.847 . S
C210 O224 1.249 . S
C210 O225 1.202 . S
C211 C209 1.363 . S
C211 C213 1.408 . S
C211 C216 1.342 . S
C212 C213 1.310 . S
C212 C215 1.461 . S
C212 H232 0.932 . S
C213 C211 1.408 . S
C213 C212 1.310 . S
C213 H233 0.930 . S
C214 C215 1.474 . S
C214 C216 1.285 . S
C214 H234 0.929 . S
C215 C212 1.461 . S
C215 C214 1.474 . S
C216 C211 1.342 . S
C216 C214 1.285 . S
C216 H235 0.930 . S
C217 C220 1.424 . S
C217 C222 1.245 . S
C217 C223 1.428 . S
C218 C221 1.260 . S
C218 C222 1.477 . S
C218 H236 0.932 . S
C219 C220 1.384 . S
C219 C221 1.479 . S
C219 H237 0.929 . S
C220 C217 1.424 . S
C220 C219 1.384 . S
C220 H238 0.928 . S
C221 C218 1.260 . S
C221 C219 1.479 . S
C222 C217 1.245 . S
C222 C218 1.477 . S
C222 H239 0.932 . S
C223 U206 2.882 . S
C223 C217 1.428 . S
C223 O226 1.301 . S
C223 O227 1.282 . S
O224 U206 2.441 . S
O224 C210 1.249 . S
O225 U206 2.420 . S
O225 C210 1.202 . S
O226 U206 2.455 . S
O226 C223 1.301 . S
O227 U206 2.449 . S
O227 C223 1.282 . S
H228 C201 0.931 . S
H229 C203 0.929 . S
H230 C204 0.930 . S
H231 C205 0.931 . S
H232 C212 0.932 . S
H233 C213 0.930 . S
H234 C214 0.929 . S
H235 C216 0.930 . S
H236 C218 0.932 . S
H237 C219 0.929 . S
H238 C220 0.928 . S
H239 C222 0.932 . S
C240 C241 1.387 1_556 S
C240 H244 0.950 . S
C240 C249 1.390 1_565 S
C241 C240 1.387 1_554 S
C241 C243 1.387 . S
H242 C249 0.950 . S
C243 C241 1.387 . S
C243 C245 1.390 1_565 S
C243 H247 0.950 . S
H244 C240 0.950 . S
C245 C243 1.390 1_545 S
C245 C246 1.387 . S
C245 H248 0.950 . S
C246 C245 1.387 . S
C246 C249 1.387 1_554 S
H247 C243 0.950 . S
H248 C245 0.950 . S
C249 C240 1.390 1_545 S
C249 H242 0.950 . S
C249 C246 1.387 1_556 S
C250 C251 1.387 . S
C250 H254 0.950 . S
C250 C259 1.390 . S
C251 C250 1.387 . S
C251 C253 1.387 . S
H252 C259 0.950 . S
C253 C251 1.387 . S
C253 C255 1.390 . S
C253 H257 0.950 . S
H254 C250 0.950 . S
C255 C253 1.390 . S
C255 C256 1.387 . S
C255 H258 0.950 . S
C256 C255 1.387 . S
C256 C259 1.387 . S
H257 C253 0.950 . S
H258 C255 0.950 . S
C259 C250 1.390 . S
C259 H252 0.950 . S
C259 C256 1.387 . S
C260 C261 1.387 . S
C260 H264 0.950 . S
C260 C269 1.390 1_455 S
C261 C260 1.387 . S
C261 C263 1.387 . S
H262 C269 0.950 . S
C263 C261 1.387 . S
C263 C265 1.390 1_455 S
C263 H267 0.950 . S
H264 C260 0.950 . S
C265 C263 1.390 1_655 S
C265 C266 1.387 . S
C265 H268 0.950 . S
C266 C265 1.387 . S
C266 C269 1.387 . S
H267 C263 0.950 . S
H268 C265 0.950 . S
C269 C260 1.390 1_655 S
C269 H262 0.950 . S
C269 C266 1.387 . S
C270 C271 1.387 . S
C270 H274 0.950 . S
C270 C279 1.390 . S
C271 C270 1.387 . S
C271 C273 1.387 . S
H272 C279 0.950 . S
C273 C271 1.387 . S
C273 C275 1.390 . S
C273 H277 0.950 . S
H274 C270 0.950 . S
C275 C273 1.390 . S
C275 C276 1.387 . S
C275 H278 0.950 . S
C276 C275 1.387 . S
C276 C279 1.387 . S
H277 C273 0.950 . S
H278 C275 0.950 . S
C279 C270 1.390 . S
C279 H272 0.950 . S
C279 C276 1.387 . S
C280 C281 1.387 . S
C280 H284 0.950 . S
C280 C289 1.390 . S
C281 C280 1.387 . S
C281 C283 1.387 . S
H282 C289 0.950 . S
C283 C281 1.387 . S
C283 C285 1.390 . S
C283 H287 0.950 . S
H284 C280 0.950 . S
C285 C283 1.390 . S
C285 C286 1.387 . S
C285 H288 0.950 . S
C286 C285 1.387 . S
C286 C289 1.387 . S
H287 C283 0.950 . S
H288 C285 0.950 . S
C289 C280 1.390 . S
C289 H282 0.950 . S
C289 C286 1.387 . S
C290 C291 1.387 . S
C290 H294 0.950 . S
C290 C299 1.390 1_554 S
C291 C290 1.387 . S
C291 C293 1.387 . S
H292 C299 0.950 . S
C293 C291 1.387 . S
C293 C295 1.390 1_554 S
C293 H297 0.950 . S
H294 C290 0.950 . S
C295 C293 1.390 1_556 S
C295 C296 1.387 . S
C295 H298 0.950 . S
C296 C295 1.387 . S
C296 C299 1.387 . S
H297 C293 0.950 . S
H298 C295 0.950 . S
C299 C290 1.390 1_556 S
C299 H292 0.950 . S
C299 C296 1.387 . S
C300 C301 1.387 . S
C300 H304 0.950 . S
C300 C309 1.390 . S
C301 C300 1.387 . S
C301 C303 1.387 . S
H302 C309 0.950 . S
C303 C301 1.387 . S
C303 C305 1.390 . S
C303 H307 0.950 . S
H304 C300 0.950 . S
C305 C303 1.390 . S
C305 C306 1.387 . S
C305 H308 0.950 . S
C306 C305 1.387 . S
C306 C309 1.387 . S
H307 C303 0.950 . S
H308 C305 0.950 . S
C309 C300 1.390 . S
C309 H302 0.950 . S
C309 C306 1.387 . S
C310 C311 1.387 . S
C310 H314 0.950 . S
C310 C319 1.390 . S
C311 C310 1.387 . S
C311 C313 1.387 . S
H312 C319 0.950 . S
C313 C311 1.387 . S
C313 C315 1.390 . S
C313 H317 0.950 . S
H314 C310 0.950 . S
C315 C313 1.390 . S
C315 C316 1.387 . S
C315 H318 0.950 . S
C316 C315 1.387 . S
C316 C319 1.387 . S
H317 C313 0.950 . S
H318 C315 0.950 . S
C319 C310 1.390 . S
C319 H312 0.950 . S
C319 C316 1.387 . S
C320 C321 1.387 . S
C320 H324 0.950 . S
C320 C329 1.390 1_556 S
C321 C320 1.387 . S
C321 C323 1.387 . S
H322 C329 0.950 . S
C323 C321 1.387 . S
C323 C325 1.390 1_556 S
C323 H327 0.950 . S
H324 C320 0.950 . S
C325 C323 1.390 1_554 S
C325 C326 1.387 . S
C325 H328 0.950 . S
C326 C325 1.387 . S
C326 C329 1.387 . S
H327 C323 0.950 . S
H328 C325 0.950 . S
C329 C320 1.390 1_554 S
C329 H322 0.950 . S
C329 C326 1.387 . S
C241 C15 1.500 . S
C246 C135 1.500 . S
C251 C175 1.500 . S
C256 C55 1.500 . S
C261 C95 1.506 . S
C266 C215 1.506 . S
C271 C2 1.486 . S
C276 C82 1.492 . S
C281 C42 1.487 . S
C286 C122 1.487 . S
C291 C162 1.489 . S
C296 C101 1.494 . S
C301 C202 1.494 . S
C306 C141 1.493 . S
C311 C181 1.487 . S
C316 C21 1.489 . S
C321 C221 1.497 . S
C326 C61 1.489 . S
