# Generated by pormake.
# Topology uni, (4)-cn, num edge types: 1
# Building blocks:
#     Node 0, Type 0, BuildingBlock: CEKHIL_clean_sbu_0, # of connection points: 4
#     Node 1, Type 0, BuildingBlock: CEKHIL_clean_sbu_0, # of connection points: 4
#     Node 2, Type 0, BuildingBlock: CEKHIL_clean_sbu_0, # of connection points: 4
#     Node 3, Type 0, BuildingBlock: CEKHIL_clean_sbu_0, # of connection points: 4
#     Node 4, Type 0, BuildingBlock: CEKHIL_clean_sbu_0, # of connection points: 4
#     Node 5, Type 0, BuildingBlock: CEKHIL_clean_sbu_0, # of connection points: 4
#     Edge 6, Type (0, 0), BuildingBlock: XIVTED_clean_linker_0, # of connection points: 2
#     Edge 7, Type (0, 0), BuildingBlock: XIVTED_clean_linker_0, # of connection points: 2
#     Edge 8, Type (0, 0), BuildingBlock: XIVTED_clean_linker_0, # of connection points: 2
#     Edge 9, Type (0, 0), BuildingBlock: XIVTED_clean_linker_0, # of connection points: 2
#     Edge 10, Type (0, 0), BuildingBlock: XIVTED_clean_linker_0, # of connection points: 2
#     Edge 11, Type (0, 0), BuildingBlock: XIVTED_clean_linker_0, # of connection points: 2
#     Edge 12, Type (0, 0), BuildingBlock: XIVTED_clean_linker_0, # of connection points: 2
#     Edge 13, Type (0, 0), BuildingBlock: XIVTED_clean_linker_0, # of connection points: 2
#     Edge 14, Type (0, 0), BuildingBlock: XIVTED_clean_linker_0, # of connection points: 2
#     Edge 15, Type (0, 0), BuildingBlock: XIVTED_clean_linker_0, # of connection points: 2
#     Edge 16, Type (0, 0), BuildingBlock: XIVTED_clean_linker_0, # of connection points: 2
#     Edge 17, Type (0, 0), BuildingBlock: XIVTED_clean_linker_0, # of connection points: 2
# Relax obj value: 0.073
# Max RMSD: 0.102
# Mean RMSD: 0.095
data_MOF--net-uni--node1-CEKHIL_clean_sbu_0--edge1-XIVTED_clean_linker_0
_symmetry_space_group_name_H-M    P1
_symmetry_Int_Tables_number       1
_symmetry_cell_setting            triclinic
loop_
_symmetry_equiv_pos_as_xyz
'x, y, z'
_cell_length_a     38.578566
_cell_length_b     38.232907
_cell_length_c     23.201286
_cell_angle_alpha  89.980164
_cell_angle_beta   90.039927
_cell_angle_gamma 120.87933
loop_
_atom_site_label
_atom_site_type_symbol
_atom_site_fract_x
_atom_site_fract_y
_atom_site_fract_z
_atom_type_partial_charge
Co0 Co 0.66827 0.03488 0.08125 0.0
O1 O 0.69038 0.01302 0.1354 0.0
O2 O 0.6417 0.97646 0.07261 0.0
C3 C 0.72841 0.08654 0.05029 0.0
O4 O 0.63841 0.04517 0.01718 0.0
Co5 Co 0.68134 0.12141 0.08945 0.0
O6 O 0.65536 0.11065 0.0125 0.0
C7 C 0.62339 0.0566 0.16821 0.0
C8 C 0.66567 0.97762 0.11291 0.0
C9 C 0.63666 0.07446 0.99272 0.0
O10 O 0.62738 0.02963 0.14055 0.0
O11 O 0.64443 0.09477 0.15692 0.0
O12 O 0.7134 0.0502 0.02887 0.0
O13 O 0.70811 0.09017 0.09172 0.0
Co14 Co 0.66275 0.66604 0.24676 0.0
O15 O 0.7079 0.68518 0.29968 0.0
O16 O 0.69259 0.63928 0.23106 0.0
C17 C 0.67273 0.72803 0.22383 0.0
O18 O 0.62154 0.63926 0.18231 0.0
Co19 Co 0.59028 0.67885 0.26101 0.0
O20 O 0.57342 0.65555 0.18248 0.0
C21 C 0.59551 0.61714 0.33236 0.0
C22 C 0.71666 0.66093 0.27254 0.0
C23 C 0.59053 0.63806 0.15954 0.0
O24 O 0.62626 0.62209 0.30343 0.0
O25 O 0.57944 0.63892 0.32442 0.0
O26 O 0.69346 0.71439 0.19834 0.0
O27 O 0.64868 0.70527 0.26412 0.0
Co28 Co 0.02941 0.66324 0.38209 0.0
O29 O 1.00391 0.6831 0.33033 0.0
O30 O 0.97172 0.63377 0.39434 0.0
C31 C 0.07964 0.72518 0.41104 0.0
O32 O 0.04362 0.63513 0.44448 0.0
Co33 Co 0.11716 0.68166 0.36952 0.0
O34 O 0.10963 0.65628 0.44664 0.0
C35 C 0.05255 0.62093 0.29267 0.0
C36 C 0.97004 0.65695 0.35484 0.0
C37 C 0.07422 0.63565 0.46764 0.0
O38 O 0.02506 0.62274 0.32188 0.0
O39 O 0.09039 0.64414 0.30258 0.0
O40 O 0.04417 0.70879 0.43473 0.0
O41 O 0.08303 0.70512 0.36893 0.0
Co42 Co 0.39322 0.02307 0.58099 0.0
O43 O 0.37118 0.04497 0.63513 0.0
O44 O 0.41983 0.08149 0.57235 0.0
C45 C 0.33303 0.97143 0.55003 0.0
O46 O 0.42302 0.01274 0.51694 0.0
Co47 Co 0.38009 0.93652 0.58918 0.0
O48 O 0.40605 0.94726 0.51226 0.0
C49 C 0.43814 1.00131 0.66794 0.0
C50 C 0.39591 0.08037 0.61266 0.0
C51 C 0.42476 0.98345 0.4925 0.0
O52 O 0.43413 0.02829 0.6403 0.0
O53 O 0.41709 0.96314 0.65664 0.0
O54 O 0.34805 0.00777 0.5286 0.0
O55 O 0.35335 0.96779 0.59146 0.0
Co56 Co 0.39772 0.39157 0.74533 0.0
O57 O 0.35197 0.37236 0.79706 0.0
O58 O 0.36804 0.41832 0.72826 0.0
C59 C 0.38811 0.32966 0.72289 0.0
O60 O 0.43969 0.41846 0.68189 0.0
Co61 Co 0.4701 0.37892 0.76229 0.0
O62 O 0.48773 0.40208 0.68384 0.0
C63 C 0.46409 0.44071 0.83218 0.0
C64 C 0.34353 0.39665 0.7693 0.0
C65 C 0.47093 0.41964 0.6601 0.0
O66 O 0.43353 0.43552 0.80248 0.0
O67 O 0.4804 0.41907 0.82514 0.0
O68 O 0.36762 0.34329 0.69662 0.0
O69 O 0.41165 0.35235 0.7637 0.0
Co70 Co 0.0316 0.39496 0.88236 0.0
O71 O 0.0574 0.37527 0.83091 0.0
O72 O 0.08924 0.42463 0.89497 0.0
C73 C 0.98148 0.33294 0.91118 0.0
O74 O 0.01718 0.42295 0.94454 0.0
Co75 Co 0.94378 0.37626 0.86952 0.0
O76 O 0.95112 0.40159 0.94664 0.0
C77 C 1.00837 0.43731 0.793 0.0
C78 C 0.09115 0.4015 0.85566 0.0
C79 C 0.98654 0.42235 0.96764 0.0
O80 O 0.03589 0.4354 0.82207 0.0
O81 O 0.97054 0.41409 0.80289 0.0
O82 O 0.01694 0.34946 0.93505 0.0
O83 O 0.97805 0.35294 0.86899 0.0
H84 H 0.57302 0.97928 0.21207 0.0
H85 H 0.46911 0.05668 0.43722 0.0
H86 H 0.60334 0.10432 0.23049 0.0
H87 H 0.44141 0.932 0.43118 0.0
H88 H 0.51573 0.07303 0.3573 0.0
H89 H 0.52254 0.95988 0.28876 0.0
C90 C 0.56914 1.00265 0.23208 0.0
C91 C 0.59267 0.04356 0.21468 0.0
C92 C 0.49942 0.04203 0.37326 0.0
C93 C 0.53489 0.02151 0.3022 0.0
C94 C 0.47264 0.03261 0.41899 0.0
C95 C 0.4513 0.99289 0.44138 0.0
C96 C 0.50517 0.01161 0.34938 0.0
C97 C 0.45723 0.96307 0.41553 0.0
C98 C 0.5403 0.99153 0.27583 0.0
C99 C 0.58618 0.07243 0.24228 0.0
N100 N 0.48371 0.97306 0.37105 0.0
N101 N 0.55803 0.06085 0.28444 0.0
H102 H 0.52257 0.58848 0.3841 0.0
H103 H 0.54262 0.43973 0.60585 0.0
H104 H 0.62494 0.57146 0.38205 0.0
H105 H 0.44008 0.45605 0.59343 0.0
H106 H 0.57295 0.48502 0.52242 0.0
H107 H 0.492 0.53775 0.45917 0.0
C108 C 0.53877 0.57407 0.39941 0.0
C109 C 0.57669 0.58467 0.37677 0.0
C110 C 0.54371 0.47839 0.53789 0.0
C111 C 0.54132 0.52579 0.46383 0.0
C112 C 0.52632 0.45249 0.58543 0.0
C113 C 0.4888 0.44422 0.60714 0.0
C114 C 0.52341 0.49607 0.51198 0.0
C115 C 0.46914 0.46166 0.57881 0.0
C116 C 0.5211 0.54483 0.44244 0.0
C117 C 0.59572 0.56433 0.39828 0.0
N118 N 0.48673 0.48676 0.53312 0.0
N119 N 0.57794 0.53599 0.44098 0.0
H120 H 0.95847 0.45404 0.73126 0.0
H121 H 0.12909 0.62329 0.52714 0.0
H122 H 0.08433 0.49115 0.74837 0.0
H123 H 1.00329 0.58806 0.52516 0.0
H124 H 0.11501 0.57659 0.60818 0.0
H125 H 0.976 0.50378 0.65556 0.0
C126 C 0.98995 0.47261 0.71913 0.0
C127 C 0.01994 0.46809 0.74647 0.0
C128 C 0.09062 0.57931 0.59005 0.0
C129 C 0.04036 0.5259 0.65869 0.0
C130 C 0.09859 0.60598 0.54382 0.0
C131 C 0.06729 0.60956 0.51889 0.0
C132 C 0.05107 0.55602 0.6114 0.0
C133 C 0.02843 0.58634 0.5425 0.0
C134 C 0.99996 0.50126 0.67571 0.0
C135 C 0.06017 0.49347 0.72856 0.0
N136 N 0.02149 0.56058 0.58708 0.0
N137 N 0.06923 0.52126 0.68561 0.0
H138 H 0.59266 1.00135 0.93703 0.0
H139 H 0.48816 0.07854 0.7123 0.0
H140 H 0.61972 0.12583 0.93163 0.0
H141 H 0.45861 0.95368 0.72974 0.0
H142 H 0.53863 0.09795 0.78909 0.0
H143 H 0.5461 0.98499 0.85694 0.0
C144 C 0.589 0.02537 0.91892 0.0
C145 C 0.61014 0.06504 0.94153 0.0
C146 C 0.52104 0.06634 0.77593 0.0
C147 C 0.55634 0.04632 0.84934 0.0
C148 C 0.49221 0.05522 0.73211 0.0
C149 C 0.46889 0.01436 0.71441 0.0
C150 C 0.52666 0.03641 0.80206 0.0
C151 C 0.4756 0.98553 0.74177 0.0
C152 C 0.56225 0.01596 0.87308 0.0
C153 C 0.60406 0.09481 0.9158 0.0
N154 N 0.50374 0.99712 0.784 0.0
N155 N 0.57761 0.08481 0.87123 0.0
H156 H 0.62342 0.60392 0.09245 0.0
H157 H 0.43366 0.48593 0.88011 0.0
H158 H 0.51839 0.61607 0.10509 0.0
H159 H 0.53679 0.47021 0.88526 0.0
H160 H 0.46514 0.53777 0.95638 0.0
H161 H 0.59338 0.55952 0.00981 0.0
C162 C 0.59403 0.59741 0.07776 0.0
C163 C 0.57332 0.61359 0.10631 0.0
C164 C 0.48078 0.52295 0.94048 0.0
C165 C 0.53833 0.56211 0.01102 0.0
C166 C 0.46288 0.49344 0.89693 0.0
C167 C 0.48238 0.47334 0.87644 0.0
C168 C 0.51848 0.53251 0.96317 0.0
C169 C 0.52024 0.48438 0.89987 0.0
C170 C 0.5768 0.57191 0.03037 0.0
C171 C 0.53542 0.6042 0.08458 0.0
N172 N 0.53686 0.51301 0.94179 0.0
N173 N 0.51898 0.57882 0.03841 0.0
H174 H 0.93151 0.43414 0.02769 0.0
H175 H 0.10262 0.6056 0.22895 0.0
H176 H 0.05765 0.4707 0.02437 0.0
H177 H 0.97639 0.56604 0.24949 0.0
H178 H 0.08505 0.5559 0.15324 0.0
H179 H 0.94563 0.48102 0.10852 0.0
C180 C 0.96208 0.45177 0.04402 0.0
C181 C 0.99347 0.44852 0.01879 0.0
C182 C 0.06101 0.55785 0.17415 0.0
C183 C 1.00974 0.50227 0.11101 0.0
C184 C 0.07105 0.58649 0.2176 0.0
C185 C 0.04096 0.59029 0.24594 0.0
C186 C 0.02049 0.5325 0.15813 0.0
C187 C 1.00061 0.56428 0.22891 0.0
C188 C 0.97008 0.47855 0.09013 0.0
C189 C 0.03244 0.47215 0.04196 0.0
N190 N 0.99153 0.53649 0.18594 0.0
N191 N 0.03939 0.498 0.08639 0.0
H192 H 0.68958 0.76406 0.117 0.0
H193 H 0.68966 0.96254 0.21607 0.0
H194 H 0.65825 0.77737 0.29069 0.0
H195 H 0.64415 0.90952 0.04875 0.0
H196 H 0.69265 0.90198 0.24279 0.0
H197 H 0.6877 0.82528 0.0891 0.0
C198 C 0.68271 0.78009 0.14926 0.0
C199 C 0.67401 0.76577 0.20615 0.0
C200 C 0.68198 0.9037 0.20029 0.0
C201 C 0.67243 0.83557 0.17496 0.0
C202 C 0.6803 0.93814 0.18503 0.0
C203 C 0.66636 0.9408 0.13032 0.0
C204 C 0.67074 0.87229 0.15997 0.0
C205 C 0.65468 0.9084 0.0916 0.0
C206 C 0.68139 0.81471 0.13329 0.0
C207 C 0.66498 0.78739 0.24631 0.0
N208 N 0.65751 0.87559 0.10694 0.0
N209 N 0.66476 0.82142 0.2301 0.0
H210 H 0.94854 0.67769 0.25369 0.0
H211 H 0.75722 0.67737 0.37546 0.0
H212 H 0.90505 0.6335 0.42521 0.0
H213 H 0.75933 0.64072 0.20033 0.0
H214 H 0.81842 0.67458 0.39575 0.0
H215 H 0.88575 0.67733 0.23364 0.0
C216 C 0.92575 0.66787 0.28702 0.0
C217 C 0.93181 0.65537 0.34104 0.0
C218 C 0.8053 0.66709 0.35299 0.0
C219 C 0.86078 0.65597 0.31896 0.0
C220 C 0.7706 0.66882 0.34135 0.0
C221 C 0.75318 0.6591 0.28623 0.0
C222 C 0.82327 0.65677 0.30871 0.0
C223 C 0.77166 0.64816 0.24353 0.0
C224 C 0.89002 0.6676 0.27554 0.0
C225 C 0.90137 0.643 0.38281 0.0
N226 N 0.80598 0.64775 0.25545 0.0
N227 N 0.86734 0.64409 0.37117 0.0
H228 H 0.09374 0.75674 0.52047 0.0
H229 H 0.2979 0.96151 0.44419 0.0
H230 H 0.146 0.77912 0.35041 0.0
H231 H 0.28148 0.90182 0.60823 0.0
H232 H 0.23448 0.90229 0.41034 0.0
H233 H 0.15521 0.8181 0.55523 0.0
C234 C 0.11796 0.7748 0.49045 0.0
C235 C 0.11501 0.76295 0.43262 0.0
C236 C 0.24484 0.90234 0.45376 0.0
C237 C 0.18455 0.83293 0.47159 0.0
C238 C 0.28084 0.93602 0.47308 0.0
C239 C 0.29493 0.93632 0.5289 0.0
C240 C 0.22237 0.86932 0.49108 0.0
C241 C 0.27176 0.90257 0.56469 0.0
C242 C 0.15296 0.80952 0.51028 0.0
C243 C 0.14727 0.78717 0.39542 0.0
N244 N 0.23639 0.87049 0.54534 0.0
N245 N 0.18062 0.82121 0.41543 0.0
H246 H 0.37187 0.29374 0.61605 0.0
H247 H 0.37201 0.0955 0.71581 0.0
H248 H 0.40279 0.28054 0.79013 0.0
H249 H 0.41752 0.1485 0.54852 0.0
H250 H 0.36908 0.1561 0.74246 0.0
H251 H 0.3741 0.2327 0.58844 0.0
C252 C 0.37874 0.27778 0.64845 0.0
C253 C 0.3872 0.29208 0.70538 0.0
C254 C 0.37975 0.15437 0.69999 0.0
C255 C 0.38919 0.22245 0.67449 0.0
C256 C 0.38139 0.1199 0.68476 0.0
C257 C 0.3953 0.11722 0.63008 0.0
C258 C 0.39099 0.18577 0.65965 0.0
C259 C 0.407 0.14963 0.59135 0.0
C260 C 0.38026 0.24325 0.63265 0.0
C261 C 0.39624 0.27054 0.74572 0.0
N262 N 0.4042 0.18245 0.60665 0.0
N263 N 0.39666 0.23658 0.72965 0.0
H264 H 0.15599 0.42582 0.92669 0.0
H265 H 0.30149 0.41666 0.69543 0.0
H266 H 0.11325 0.38035 0.75533 0.0
H267 H 0.30238 0.38101 0.87155 0.0
H268 H 0.24002 0.41849 0.71582 0.0
H269 H 0.21793 0.42477 0.90636 0.0
C270 C 0.15984 0.41602 0.88461 0.0
C271 C 0.12951 0.40316 0.84256 0.0
C272 C 0.25378 0.41034 0.74992 0.0
C273 C 0.2003 0.40246 0.819 0.0
C274 C 0.28888 0.40947 0.73849 0.0
C275 C 0.30696 0.3986 0.78191 0.0
C276 C 0.23729 0.4014 0.80556 0.0
C277 C 0.28924 0.38935 0.83685 0.0
C278 C 0.19498 0.41517 0.87328 0.0
C279 C 0.13587 0.39041 0.78894 0.0
N280 N 0.25556 0.39137 0.84734 0.0
N281 N 0.17077 0.39074 0.77844 0.0
H282 H 0.96747 0.30146 0.02065 0.0
H283 H 0.76346 0.09645 0.94445 0.0
H284 H 0.91516 0.27886 0.85051 0.0
H285 H 0.77994 0.15621 0.10841 0.0
H286 H 0.8268 0.1557 0.91055 0.0
H287 H 0.90608 0.24006 0.05541 0.0
C288 C 0.94326 0.28335 0.99061 0.0
C289 C 0.94617 0.29514 0.93276 0.0
C290 C 0.81647 0.15566 0.95396 0.0
C291 C 0.87672 0.22511 0.97174 0.0
C292 C 0.78051 0.12195 0.97331 0.0
C293 C 0.76647 0.12167 0.02912 0.0
C294 C 0.83894 0.18871 0.99125 0.0
C295 C 0.78963 0.15546 0.06488 0.0
C296 C 0.9083 0.2486 0.01045 0.0
C297 C 0.91392 0.27085 0.89554 0.0
N298 N 0.82495 0.18755 0.0455 0.0
N299 N 0.88061 0.23679 0.91555 0.0
loop_
_geom_bond_atom_site_label_1
_geom_bond_atom_site_label_2
_geom_bond_distance
_geom_bond_site_symmetry_2
_ccdc_geom_bond_type
Co0 O1 2.216 1_545 S
Co0 O2 2.091 1_545 S
Co0 O4 2.004 1_554 S
Co0 O10 2.021 . S
Co0 O12 2.137 . S
Co0 O13 2.244 . S
O1 Co0 2.216 1_565 S
O1 C8 1.247 . S
O2 Co0 2.091 1_565 S
O2 C8 1.261 . S
C3 O12 1.247 . S
C3 O13 1.272 . S
O4 Co0 2.004 1_556 S
O4 C9 1.259 . S
Co5 O6 2.061 . S
Co5 O11 2.052 . S
Co5 O13 2.135 . S
O6 Co5 2.061 . S
O6 C9 1.235 1_554 S
C7 O10 1.238 . S
C7 O11 1.241 . S
C8 O1 1.247 . S
C8 O2 1.261 . S
C9 O4 1.259 . S
C9 O6 1.235 1_556 S
O10 Co0 2.021 . S
O10 C7 1.238 . S
O11 Co5 2.052 . S
O11 C7 1.241 . S
O12 Co0 2.137 . S
O12 C3 1.247 . S
O13 Co0 2.244 . S
O13 C3 1.272 . S
O13 Co5 2.135 . S
Co14 O15 2.216 . S
Co14 O16 2.091 . S
Co14 O18 2.004 . S
Co14 O24 2.021 . S
Co14 O26 2.137 . S
Co14 O27 2.244 . S
O15 Co14 2.216 . S
O15 C22 1.247 . S
O16 Co14 2.091 . S
O16 C22 1.261 . S
C17 O26 1.247 . S
C17 O27 1.272 . S
O18 Co14 2.004 . S
O18 C23 1.259 . S
Co19 O20 2.061 . S
Co19 O25 2.052 . S
Co19 O27 2.135 . S
O20 Co19 2.061 . S
O20 C23 1.235 . S
C21 O24 1.238 . S
C21 O25 1.241 . S
C22 O15 1.247 . S
C22 O16 1.261 . S
C23 O18 1.259 . S
C23 O20 1.235 . S
O24 Co14 2.021 . S
O24 C21 1.238 . S
O25 Co19 2.052 . S
O25 C21 1.241 . S
O26 Co14 2.137 . S
O26 C17 1.247 . S
O27 Co14 2.244 . S
O27 C17 1.272 . S
O27 Co19 2.135 . S
Co28 O29 2.216 1_455 S
Co28 O30 2.091 1_455 S
Co28 O32 2.004 . S
Co28 O38 2.028 1_455 S
Co28 O40 2.137 . S
Co28 O41 2.244 . S
O29 Co28 2.216 1_655 S
O29 C36 1.247 . S
O30 Co28 2.091 1_655 S
O30 C36 1.261 . S
C31 O40 1.247 . S
C31 O41 1.272 . S
O32 Co28 2.004 . S
O32 C37 1.259 . S
Co33 O34 2.061 . S
Co33 O39 2.052 . S
Co33 O41 2.135 . S
O34 Co33 2.061 . S
O34 C37 1.235 . S
C35 O38 1.213 1_455 S
C35 O39 1.241 . S
C36 O29 1.247 . S
C36 O30 1.261 . S
C37 O32 1.259 . S
C37 O34 1.235 . S
O38 Co28 2.028 1_655 S
O38 C35 1.213 1_655 S
O39 Co33 2.052 . S
O39 C35 1.241 . S
O40 Co28 2.137 . S
O40 C31 1.247 . S
O41 Co28 2.244 . S
O41 C31 1.272 . S
O41 Co33 2.135 . S
Co42 O43 2.216 . S
Co42 O44 2.091 . S
Co42 O46 2.004 . S
Co42 O52 2.021 . S
Co42 O54 2.137 . S
Co42 O55 2.244 1_545 S
O43 Co42 2.216 . S
O43 C50 1.247 . S
O44 Co42 2.091 . S
O44 C50 1.261 . S
C45 O54 1.247 1_565 S
C45 O55 1.272 . S
O46 Co42 2.004 . S
O46 C51 1.259 . S
Co47 O48 2.061 . S
Co47 O53 2.052 . S
Co47 O55 2.135 . S
O48 Co47 2.061 . S
O48 C51 1.235 1_565 S
C49 O52 1.238 . S
C49 O53 1.241 1_545 S
C50 O43 1.247 . S
C50 O44 1.261 . S
C51 O46 1.259 . S
C51 O48 1.235 1_545 S
O52 Co42 2.021 . S
O52 C49 1.238 . S
O53 Co47 2.052 . S
O53 C49 1.241 1_565 S
O54 Co42 2.137 . S
O54 C45 1.247 1_545 S
O55 Co42 2.244 1_565 S
O55 C45 1.272 . S
O55 Co47 2.135 . S
Co56 O57 2.216 . S
Co56 O58 2.091 . S
Co56 O60 2.004 . S
Co56 O66 2.021 . S
Co56 O68 2.137 . S
Co56 O69 2.244 . S
O57 Co56 2.216 . S
O57 C64 1.247 . S
O58 Co56 2.091 . S
O58 C64 1.261 . S
C59 O68 1.247 . S
C59 O69 1.272 . S
O60 Co56 2.004 . S
O60 C65 1.259 . S
Co61 O62 2.061 . S
Co61 O67 2.052 . S
Co61 O69 2.135 . S
O62 Co61 2.061 . S
O62 C65 1.235 . S
C63 O66 1.238 . S
C63 O67 1.241 . S
C64 O57 1.247 . S
C64 O58 1.261 . S
C65 O60 1.259 . S
C65 O62 1.235 . S
O66 Co56 2.021 . S
O66 C63 1.238 . S
O67 Co61 2.052 . S
O67 C63 1.241 . S
O68 Co56 2.137 . S
O68 C59 1.247 . S
O69 Co56 2.244 . S
O69 C59 1.272 . S
O69 Co61 2.135 . S
Co70 O71 2.216 . S
Co70 O72 2.091 . S
Co70 O74 2.004 . S
Co70 O80 2.021 . S
Co70 O82 2.137 1_455 S
Co70 O83 2.244 1_455 S
O71 Co70 2.216 . S
O71 C78 1.247 . S
O72 Co70 2.091 . S
O72 C78 1.261 . S
C73 O82 1.247 . S
C73 O83 1.272 . S
O74 Co70 2.004 . S
O74 C79 1.255 1_556 S
Co75 O76 2.061 . S
Co75 O81 2.052 . S
Co75 O83 2.135 . S
O76 Co75 2.061 . S
O76 C79 1.224 1_656 S
C77 O80 1.238 . S
C77 O81 1.241 1_455 S
C78 O71 1.247 . S
C78 O72 1.261 . S
C79 O74 1.255 1_554 S
C79 O76 1.224 1_454 S
O80 Co70 2.021 . S
O80 C77 1.238 . S
O81 Co75 2.052 . S
O81 C77 1.241 1_655 S
O82 Co70 2.137 1_655 S
O82 C73 1.247 . S
O83 Co70 2.244 1_655 S
O83 C73 1.272 . S
O83 Co75 2.135 . S
H84 C90 0.930 . S
H85 C94 0.930 . S
H86 C99 0.929 . S
H87 C97 0.929 . S
H88 C92 0.929 . S
H89 C98 0.929 . S
C90 H84 0.930 . S
C90 C91 1.367 1_565 S
C90 C98 1.378 . S
C91 C90 1.367 1_545 S
C91 C99 1.433 . S
C92 H88 0.929 . S
C92 C94 1.378 . S
C92 C96 1.350 . S
C93 C96 1.463 . S
C93 C98 1.350 1_545 S
C93 N101 1.427 . S
C94 H85 0.930 . S
C94 C92 1.378 . S
C94 C95 1.367 . S
C95 C94 1.367 . S
C95 C97 1.433 1_545 S
C96 C92 1.350 . S
C96 C93 1.463 . S
C96 N100 1.427 1_545 S
C97 H87 0.929 . S
C97 C95 1.433 1_565 S
C97 N100 1.384 . S
C98 H89 0.929 . S
C98 C90 1.378 . S
C98 C93 1.350 1_565 S
C99 H86 0.929 . S
C99 C91 1.433 . S
C99 N101 1.384 . S
N100 C96 1.427 1_565 S
N100 C97 1.384 . S
N101 C93 1.427 . S
N101 C99 1.384 . S
H102 C108 0.930 . S
H103 C112 0.930 . S
H104 C117 0.929 . S
H105 C115 0.929 . S
H106 C110 0.929 . S
H107 C116 0.929 . S
C108 H102 0.930 . S
C108 C109 1.367 . S
C108 C116 1.378 . S
C109 C108 1.367 . S
C109 C117 1.433 . S
C110 H106 0.929 . S
C110 C112 1.378 . S
C110 C114 1.350 . S
C111 C114 1.463 . S
C111 C116 1.350 . S
C111 N119 1.427 . S
C112 H103 0.930 . S
C112 C110 1.378 . S
C112 C113 1.367 . S
C113 C112 1.367 . S
C113 C115 1.433 . S
C114 C110 1.350 . S
C114 C111 1.463 . S
C114 N118 1.427 . S
C115 H105 0.929 . S
C115 C113 1.433 . S
C115 N118 1.384 . S
C116 H107 0.929 . S
C116 C108 1.378 . S
C116 C111 1.350 . S
C117 H104 0.929 . S
C117 C109 1.433 . S
C117 N119 1.384 . S
N118 C114 1.427 . S
N118 C115 1.384 . S
N119 C111 1.427 . S
N119 C117 1.384 . S
H120 C126 0.930 . S
H121 C130 0.930 . S
H122 C135 0.929 . S
H123 C133 0.929 . S
H124 C128 0.929 . S
H125 C134 0.929 . S
C126 H120 0.930 . S
C126 C127 1.367 1_655 S
C126 C134 1.378 . S
C127 C126 1.367 1_455 S
C127 C135 1.433 . S
C128 H124 0.929 . S
C128 C130 1.378 . S
C128 C132 1.350 . S
C129 C132 1.463 . S
C129 C134 1.350 1_455 S
C129 N137 1.427 . S
C130 H121 0.930 . S
C130 C128 1.378 . S
C130 C131 1.367 . S
C131 C130 1.367 . S
C131 C133 1.433 1_455 S
C132 C128 1.350 . S
C132 C129 1.463 . S
C132 N136 1.427 1_455 S
C133 H123 0.929 . S
C133 C131 1.433 1_655 S
C133 N136 1.384 . S
C134 H125 0.929 . S
C134 C126 1.378 . S
C134 C129 1.350 1_655 S
C135 H122 0.929 . S
C135 C127 1.433 . S
C135 N137 1.384 . S
N136 C132 1.427 1_655 S
N136 C133 1.384 . S
N137 C129 1.427 . S
N137 C135 1.384 . S
H138 C144 0.930 1_565 S
H139 C148 0.930 . S
H140 C153 0.929 . S
H141 C151 0.929 1_565 S
H142 C146 0.929 . S
H143 C152 0.929 1_565 S
C144 H138 0.930 1_545 S
C144 C145 1.367 . S
C144 C152 1.378 . S
C145 C144 1.367 . S
C145 C153 1.433 . S
C146 H142 0.929 . S
C146 C148 1.378 . S
C146 C150 1.350 . S
C147 C150 1.463 . S
C147 C152 1.350 . S
C147 N155 1.427 . S
C148 H139 0.930 . S
C148 C146 1.378 . S
C148 C149 1.367 . S
C149 C148 1.367 . S
C149 C151 1.433 . S
C150 C146 1.350 . S
C150 C147 1.463 . S
C150 N154 1.427 . S
C151 H141 0.929 1_545 S
C151 C149 1.433 . S
C151 N154 1.384 . S
C152 H143 0.929 1_545 S
C152 C144 1.378 . S
C152 C147 1.350 . S
C153 H140 0.929 . S
C153 C145 1.433 . S
C153 N155 1.384 . S
N154 C150 1.427 . S
N154 C151 1.384 . S
N155 C147 1.427 . S
N155 C153 1.384 . S
H156 C162 0.930 . S
H157 C166 0.930 . S
H158 C171 0.929 . S
H159 C169 0.929 . S
H160 C164 0.929 1_554 S
H161 C170 0.929 . S
C162 H156 0.930 . S
C162 C163 1.367 . S
C162 C170 1.378 1_554 S
C163 C162 1.367 . S
C163 C171 1.433 . S
C164 H160 0.929 1_556 S
C164 C166 1.378 . S
C164 C168 1.350 . S
C165 C168 1.463 . S
C165 C170 1.350 . S
C165 N173 1.427 1_556 S
C166 H157 0.930 . S
C166 C164 1.378 . S
C166 C167 1.367 . S
C167 C166 1.367 . S
C167 C169 1.433 . S
C168 C164 1.350 . S
C168 C165 1.463 . S
C168 N172 1.427 . S
C169 H159 0.929 . S
C169 C167 1.433 . S
C169 N172 1.384 . S
C170 H161 0.929 . S
C170 C162 1.378 1_556 S
C170 C165 1.350 . S
C171 H158 0.929 . S
C171 C163 1.433 . S
C171 N173 1.384 . S
N172 C168 1.427 . S
N172 C169 1.384 . S
N173 C165 1.427 1_554 S
N173 C171 1.384 . S
H174 C180 0.930 . S
H175 C184 0.930 . S
H176 C189 0.929 . S
H177 C187 0.929 . S
H178 C182 0.929 . S
H179 C188 0.929 . S
C180 H174 0.930 . S
C180 C181 1.367 1_655 S
C180 C188 1.378 . S
C181 C180 1.367 1_455 S
C181 C189 1.433 . S
C182 H178 0.929 . S
C182 C184 1.378 . S
C182 C186 1.350 . S
C183 C186 1.463 . S
C183 C188 1.350 1_455 S
C183 N191 1.427 . S
C184 H175 0.930 . S
C184 C182 1.378 . S
C184 C185 1.367 . S
C185 C184 1.367 . S
C185 C187 1.433 1_455 S
C186 C182 1.350 . S
C186 C183 1.463 . S
C186 N190 1.427 1_455 S
C187 H177 0.929 . S
C187 C185 1.433 1_655 S
C187 N190 1.384 . S
C188 H179 0.929 . S
C188 C180 1.378 . S
C188 C183 1.350 1_655 S
C189 H176 0.929 . S
C189 C181 1.433 . S
C189 N191 1.384 . S
N190 C186 1.427 1_655 S
N190 C187 1.384 . S
N191 C183 1.427 . S
N191 C189 1.384 . S
H192 C198 0.930 . S
H193 C202 0.930 . S
H194 C207 0.929 . S
H195 C205 0.929 . S
H196 C200 0.929 . S
H197 C206 0.929 . S
C198 H192 0.930 . S
C198 C199 1.367 . S
C198 C206 1.378 . S
C199 C198 1.367 . S
C199 C207 1.433 . S
C200 H196 0.929 . S
C200 C202 1.378 . S
C200 C204 1.350 . S
C201 C204 1.463 . S
C201 C206 1.350 . S
C201 N209 1.427 . S
C202 H193 0.930 . S
C202 C200 1.378 . S
C202 C203 1.367 . S
C203 C202 1.367 . S
C203 C205 1.433 . S
C204 C200 1.350 . S
C204 C201 1.463 . S
C204 N208 1.427 . S
C205 H195 0.929 . S
C205 C203 1.433 . S
C205 N208 1.384 . S
C206 H197 0.929 . S
C206 C198 1.378 . S
C206 C201 1.350 . S
C207 H194 0.929 . S
C207 C199 1.433 . S
C207 N209 1.384 . S
N208 C204 1.427 . S
N208 C205 1.384 . S
N209 C201 1.427 . S
N209 C207 1.384 . S
H210 C216 0.930 . S
H211 C220 0.930 . S
H212 C225 0.929 . S
H213 C223 0.929 . S
H214 C218 0.929 . S
H215 C224 0.929 . S
C216 H210 0.930 . S
C216 C217 1.367 . S
C216 C224 1.378 . S
C217 C216 1.367 . S
C217 C225 1.433 . S
C218 H214 0.929 . S
C218 C220 1.378 . S
C218 C222 1.350 . S
C219 C222 1.463 . S
C219 C224 1.350 . S
C219 N227 1.427 . S
C220 H211 0.930 . S
C220 C218 1.378 . S
C220 C221 1.367 . S
C221 C220 1.367 . S
C221 C223 1.433 . S
C222 C218 1.350 . S
C222 C219 1.463 . S
C222 N226 1.427 . S
C223 H213 0.929 . S
C223 C221 1.433 . S
C223 N226 1.384 . S
C224 H215 0.929 . S
C224 C216 1.378 . S
C224 C219 1.350 . S
C225 H212 0.929 . S
C225 C217 1.433 . S
C225 N227 1.384 . S
N226 C222 1.427 . S
N226 C223 1.384 . S
N227 C219 1.427 . S
N227 C225 1.384 . S
H228 C234 0.930 . S
H229 C238 0.930 . S
H230 C243 0.929 . S
H231 C241 0.929 . S
H232 C236 0.929 . S
H233 C242 0.929 . S
C234 H228 0.930 . S
C234 C235 1.367 . S
C234 C242 1.378 . S
C235 C234 1.367 . S
C235 C243 1.433 . S
C236 H232 0.929 . S
C236 C238 1.378 . S
C236 C240 1.350 . S
C237 C240 1.463 . S
C237 C242 1.350 . S
C237 N245 1.427 . S
C238 H229 0.930 . S
C238 C236 1.378 . S
C238 C239 1.367 . S
C239 C238 1.367 . S
C239 C241 1.433 . S
C240 C236 1.350 . S
C240 C237 1.463 . S
C240 N244 1.427 . S
C241 H231 0.929 . S
C241 C239 1.433 . S
C241 N244 1.384 . S
C242 H233 0.929 . S
C242 C234 1.378 . S
C242 C237 1.350 . S
C243 H230 0.929 . S
C243 C235 1.433 . S
C243 N245 1.384 . S
N244 C240 1.427 . S
N244 C241 1.384 . S
N245 C237 1.427 . S
N245 C243 1.384 . S
H246 C252 0.930 . S
H247 C256 0.930 . S
H248 C261 0.929 . S
H249 C259 0.929 . S
H250 C254 0.929 . S
H251 C260 0.929 . S
C252 H246 0.930 . S
C252 C253 1.367 . S
C252 C260 1.378 . S
C253 C252 1.367 . S
C253 C261 1.433 . S
C254 H250 0.929 . S
C254 C256 1.378 . S
C254 C258 1.350 . S
C255 C258 1.463 . S
C255 C260 1.350 . S
C255 N263 1.427 . S
C256 H247 0.930 . S
C256 C254 1.378 . S
C256 C257 1.367 . S
C257 C256 1.367 . S
C257 C259 1.433 . S
C258 C254 1.350 . S
C258 C255 1.463 . S
C258 N262 1.427 . S
C259 H249 0.929 . S
C259 C257 1.433 . S
C259 N262 1.384 . S
C260 H251 0.929 . S
C260 C252 1.378 . S
C260 C255 1.350 . S
C261 H248 0.929 . S
C261 C253 1.433 . S
C261 N263 1.384 . S
N262 C258 1.427 . S
N262 C259 1.384 . S
N263 C255 1.427 . S
N263 C261 1.384 . S
H264 C270 0.930 . S
H265 C274 0.930 . S
H266 C279 0.929 . S
H267 C277 0.929 . S
H268 C272 0.929 . S
H269 C278 0.929 . S
C270 H264 0.930 . S
C270 C271 1.367 . S
C270 C278 1.378 . S
C271 C270 1.367 . S
C271 C279 1.433 . S
C272 H268 0.929 . S
C272 C274 1.378 . S
C272 C276 1.350 . S
C273 C276 1.463 . S
C273 C278 1.350 . S
C273 N281 1.427 . S
C274 H265 0.930 . S
C274 C272 1.378 . S
C274 C275 1.367 . S
C275 C274 1.367 . S
C275 C277 1.433 . S
C276 C272 1.350 . S
C276 C273 1.463 . S
C276 N280 1.427 . S
C277 H267 0.929 . S
C277 C275 1.433 . S
C277 N280 1.384 . S
C278 H269 0.929 . S
C278 C270 1.378 . S
C278 C273 1.350 . S
C279 H266 0.929 . S
C279 C271 1.433 . S
C279 N281 1.384 . S
N280 C276 1.427 . S
N280 C277 1.384 . S
N281 C273 1.427 . S
N281 C279 1.384 . S
H282 C288 0.930 . S
H283 C292 0.930 . S
H284 C297 0.929 . S
H285 C295 0.929 . S
H286 C290 0.929 . S
H287 C296 0.929 . S
C288 H282 0.930 . S
C288 C289 1.367 1_554 S
C288 C296 1.378 . S
C289 C288 1.367 1_556 S
C289 C297 1.433 . S
C290 H286 0.929 . S
C290 C292 1.378 . S
C290 C294 1.350 . S
C291 C294 1.463 . S
C291 C296 1.350 1_556 S
C291 N299 1.427 . S
C292 H283 0.930 . S
C292 C290 1.378 . S
C292 C293 1.367 1_556 S
C293 C292 1.367 1_554 S
C293 C295 1.433 . S
C294 C290 1.350 . S
C294 C291 1.463 . S
C294 N298 1.427 1_556 S
C295 H285 0.929 . S
C295 C293 1.433 . S
C295 N298 1.384 . S
C296 H287 0.929 . S
C296 C288 1.378 . S
C296 C291 1.350 1_554 S
C297 H284 0.929 . S
C297 C289 1.433 . S
C297 N299 1.384 . S
N298 C294 1.427 1_554 S
N298 C295 1.384 . S
N299 C291 1.427 . S
N299 C297 1.384 . S
C91 C7 1.660 . S
C95 C51 1.687 . S
C109 C21 1.606 . S
C113 C65 1.633 . S
C127 C77 1.632 . S
C131 C37 1.659 . S
C145 C9 1.689 . S
C149 C49 1.663 . S
C163 C23 1.636 . S
C167 C63 1.612 . S
C181 C79 1.677 . S
C185 C35 1.636 . S
C199 C17 1.383 . S
C203 C8 1.382 . S
C217 C36 1.359 . S
C221 C22 1.354 . S
C235 C31 1.411 . S
C239 C45 1.410 . S
C253 C59 1.383 . S
C257 C50 1.382 . S
C271 C78 1.353 . S
C275 C64 1.355 . S
C289 C73 1.410 . S
C293 C3 1.411 . S
