# Generated by pormake.
# Topology fni, (5)-cn, num edge types: 1
# Building blocks:
#     Node 0, Type 0, BuildingBlock: XOMCOT_clean_sbu_1, # of connection points: 5
#     Node 1, Type 0, BuildingBlock: XOMCOT_clean_sbu_1, # of connection points: 5
#     Node 2, Type 0, BuildingBlock: XOMCOT_clean_sbu_1, # of connection points: 5
#     Node 3, Type 0, BuildingBlock: XOMCOT_clean_sbu_1, # of connection points: 5
#     Node 4, Type 0, BuildingBlock: XOMCOT_clean_sbu_1, # of connection points: 5
#     Node 5, Type 0, BuildingBlock: XOMCOT_clean_sbu_1, # of connection points: 5
#     Node 6, Type 0, BuildingBlock: XOMCOT_clean_sbu_1, # of connection points: 5
#     Node 7, Type 0, BuildingBlock: XOMCOT_clean_sbu_1, # of connection points: 5
#     Edge 8, Type (0, 0), BuildingBlock: XUDNAN_clean_linker_2, # of connection points: 2
#     Edge 9, Type (0, 0), BuildingBlock: XUDNAN_clean_linker_2, # of connection points: 2
#     Edge 10, Type (0, 0), BuildingBlock: XUDNAN_clean_linker_2, # of connection points: 2
#     Edge 11, Type (0, 0), BuildingBlock: XUDNAN_clean_linker_2, # of connection points: 2
#     Edge 12, Type (0, 0), BuildingBlock: XUDNAN_clean_linker_2, # of connection points: 2
#     Edge 13, Type (0, 0), BuildingBlock: XUDNAN_clean_linker_2, # of connection points: 2
#     Edge 14, Type (0, 0), BuildingBlock: XUDNAN_clean_linker_2, # of connection points: 2
#     Edge 15, Type (0, 0), BuildingBlock: XUDNAN_clean_linker_2, # of connection points: 2
#     Edge 16, Type (0, 0), BuildingBlock: XUDNAN_clean_linker_2, # of connection points: 2
#     Edge 17, Type (0, 0), BuildingBlock: XUDNAN_clean_linker_2, # of connection points: 2
#     Edge 18, Type (0, 0), BuildingBlock: XUDNAN_clean_linker_2, # of connection points: 2
#     Edge 19, Type (0, 0), BuildingBlock: XUDNAN_clean_linker_2, # of connection points: 2
#     Edge 20, Type (0, 0), BuildingBlock: XUDNAN_clean_linker_2, # of connection points: 2
#     Edge 21, Type (0, 0), BuildingBlock: XUDNAN_clean_linker_2, # of connection points: 2
#     Edge 22, Type (0, 0), BuildingBlock: XUDNAN_clean_linker_2, # of connection points: 2
#     Edge 23, Type (0, 0), BuildingBlock: XUDNAN_clean_linker_2, # of connection points: 2
#     Edge 24, Type (0, 0), BuildingBlock: XUDNAN_clean_linker_2, # of connection points: 2
#     Edge 25, Type (0, 0), BuildingBlock: XUDNAN_clean_linker_2, # of connection points: 2
#     Edge 26, Type (0, 0), BuildingBlock: XUDNAN_clean_linker_2, # of connection points: 2
#     Edge 27, Type (0, 0), BuildingBlock: XUDNAN_clean_linker_2, # of connection points: 2
# Relax obj value: 0.165
# Max RMSD: 0.169
# Mean RMSD: 0.163
data_MOF--net-fni--node1-XOMCOT_clean_sbu_1--edge1-XUDNAN_clean_linker_2
_symmetry_space_group_name_H-M    P1
_symmetry_Int_Tables_number       1
_symmetry_cell_setting            triclinic
loop_
_symmetry_equiv_pos_as_xyz
'x, y, z'
_cell_length_a     54.593854
_cell_length_b     52.403467
_cell_length_c     17.438329
_cell_angle_alpha  93.34327
_cell_angle_beta   93.63499
_cell_angle_gamma 90.242932
loop_
_atom_site_label
_atom_site_type_symbol
_atom_site_fract_x
_atom_site_fract_y
_atom_site_fract_z
_atom_type_partial_charge
C0 C 0.41947 0.40922 0.12902 0.0
C1 C 0.4202 0.41488 0.20713 0.0
N2 N 0.43343 0.3968 0.24241 0.0
N3 N 0.43217 0.38765 0.11477 0.0
C4 C 0.44055 0.38053 0.18509 0.0
H5 H 0.41055 0.42033 0.08511 0.0
Co6 Co 0.43779 0.37386 0.01592 0.0
C7 C 0.43048 0.31809 0.03747 0.0
O8 O 0.41601 0.31591 0.97422 0.0
N9 N 0.44436 0.36096 0.91452 0.0
C10 C 0.4572 0.33904 0.81086 0.0
C11 C 0.45389 0.33852 0.88855 0.0
C12 C 0.44375 0.37524 0.85203 0.0
N13 N 0.45078 0.36227 0.78791 0.0
O14 O 0.47216 0.38125 0.03555 0.0
H15 H 0.4594 0.32303 0.9238 0.0
H16 H 0.43908 0.39524 0.85389 0.0
O17 O 0.44089 0.33963 0.05789 0.0
C18 C 0.47445 0.40461 0.0199 0.0
O19 O 0.45486 0.41683 0.99477 0.0
N20 N 0.40342 0.36994 0.99589 0.0
C21 C 0.35307 0.3796 0.98323 0.0
C22 C 0.3627 0.36285 0.03701 0.0
C23 C 0.3881 0.35861 0.04341 0.0
C24 C 0.39393 0.38583 0.94268 0.0
C25 C 0.36892 0.3904 0.9341 0.0
H26 H 0.39551 0.34805 0.09082 0.0
H27 H 0.40578 0.39731 0.91192 0.0
H28 H 0.45245 0.3644 0.19402 0.0
H29 H 0.41168 0.43109 0.23581 0.0
H30 H 0.46481 0.3239 0.77497 0.0
H31 H 0.35106 0.35478 0.07759 0.0
H32 H 0.36226 0.40386 0.89288 0.0
C33 C 0.62911 0.94303 0.25185 0.0
C34 C 0.63055 0.9469 0.17529 0.0
N35 N 0.60998 0.93754 0.13699 0.0
N36 N 0.60782 0.93092 0.26242 0.0
C37 C 0.59653 0.92772 0.19097 0.0
H38 H 0.64218 0.95009 0.29727 0.0
Co39 Co 0.59546 0.92682 0.35897 0.0
C40 C 0.5853 0.87225 0.36624 0.0
O41 O 0.59557 0.87445 0.43656 0.0
N42 N 0.58216 0.92377 0.45683 0.0
C43 C 0.55552 0.91524 0.54463 0.0
C44 C 0.55981 0.91368 0.46742 0.0
C45 C 0.59045 0.93238 0.52866 0.0
N46 N 0.57484 0.92716 0.58269 0.0
O47 O 0.56506 0.94171 0.3235 0.0
H48 H 0.54728 0.90573 0.42159 0.0
H49 H 0.60735 0.94269 0.54261 0.0
O50 O 0.58394 0.89178 0.32519 0.0
C51 C 0.5682 0.9659 0.32708 0.0
O52 O 0.58979 0.97517 0.3528 0.0
N53 N 0.62661 0.91498 0.39417 0.0
C54 C 0.677 0.90924 0.42918 0.0
C55 C 0.6638 0.89098 0.38064 0.0
C56 C 0.63863 0.89436 0.36306 0.0
C57 C 0.63939 0.933 0.43985 0.0
C58 C 0.66411 0.92996 0.46098 0.0
H59 H 0.62946 0.88149 0.31975 0.0
H60 H 0.63094 0.95107 0.45438 0.0
H61 H 0.57806 0.92024 0.17969 0.0
H62 H 0.64512 0.957 0.15015 0.0
H63 H 0.53921 0.9089 0.57043 0.0
H64 H 0.67304 0.87519 0.35227 0.0
H65 H 0.67328 0.94472 0.49845 0.0
C66 C 0.05325 0.11629 0.43681 0.0
C67 C 0.05241 0.11662 0.35768 0.0
N68 N 0.07409 0.10832 0.3341 0.0
N69 N 0.07572 0.1087 0.46346 0.0
C70 C 0.08722 0.10247 0.39865 0.0
H71 H 0.03811 0.12103 0.47167 0.0
Co72 Co 0.08863 0.10506 0.56576 0.0
C73 C 0.13447 0.12091 0.49264 0.0
O74 O 0.12308 0.13979 0.45936 0.0
N75 N 0.10127 0.10031 0.66545 0.0
C76 C 0.12568 0.08664 0.7608 0.0
C77 C 0.12102 0.08583 0.68259 0.0
C78 C 0.09376 0.10923 0.73433 0.0
N79 N 0.10857 0.10135 0.79318 0.0
O80 O 0.08663 0.06856 0.54699 0.0
H81 H 0.13128 0.07509 0.64078 0.0
H82 H 0.0781 0.12158 0.74109 0.0
O83 O 0.12266 0.10598 0.53315 0.0
C84 C 0.06732 0.06054 0.57565 0.0
O85 O 0.05281 0.07758 0.60706 0.0
N86 N 0.08885 0.14094 0.58861 0.0
C87 C 0.08533 0.19331 0.62703 0.0
C88 C 0.108 0.18091 0.63422 0.0
C89 C 0.1093 0.15462 0.61596 0.0
C90 C 0.06646 0.15236 0.58852 0.0
C91 C 0.06432 0.17861 0.605 0.0
H92 H 0.12671 0.14524 0.62558 0.0
H93 H 0.04999 0.14099 0.57885 0.0
H94 H 0.10501 0.09356 0.39814 0.0
H95 H 0.0373 0.12313 0.32079 0.0
H96 H 0.14032 0.07688 0.79173 0.0
H97 H 0.12456 0.19142 0.65395 0.0
H98 H 0.04628 0.18717 0.60324 0.0
C99 C 0.875 0.57454 0.69049 0.0
C100 C 0.87224 0.57327 0.61132 0.0
N101 N 0.86809 0.59704 0.58847 0.0
N102 N 0.87306 0.59908 0.71718 0.0
C103 C 0.86847 0.61232 0.65355 0.0
H104 H 0.8795 0.5588 0.72614 0.0
Co105 Co 0.88085 0.61081 0.81861 0.0
C106 C 0.89468 0.66632 0.80717 0.0
O107 O 0.88722 0.67345 0.87525 0.0
N108 N 0.88924 0.62226 0.92214 0.0
C109 C 0.91231 0.63323 0.02927 0.0
C110 C 0.91186 0.63011 0.95028 0.0
C111 C 0.87623 0.62104 0.98555 0.0
N112 N 0.88984 0.6276 0.05105 0.0
O113 O 0.91301 0.59671 0.81019 0.0
H114 H 0.92736 0.63257 0.91568 0.0
H115 H 0.85756 0.61417 0.98503 0.0
O116 O 0.89237 0.643 0.78175 0.0
C117 C 0.91721 0.57684 0.84756 0.0
O118 O 0.90064 0.56904 0.89261 0.0
N119 N 0.84854 0.62173 0.82646 0.0
C120 C 0.799 0.62805 0.85111 0.0
C121 C 0.81223 0.64744 0.81937 0.0
C122 C 0.83722 0.64389 0.80723 0.0
C123 C 0.83537 0.60217 0.85198 0.0
C124 C 0.81076 0.60509 0.86636 0.0
H125 H 0.84711 0.65876 0.78193 0.0
H126 H 0.84445 0.58438 0.86383 0.0
H127 H 0.86696 0.63292 0.65433 0.0
H128 H 0.87396 0.55638 0.5733 0.0
H129 H 0.92801 0.63872 0.06787 0.0
H130 H 0.80347 0.66522 0.8053 0.0
H131 H 0.80096 0.58949 0.88917 0.0
C132 C 0.35885 0.08706 0.18735 0.0
C133 C 0.35771 0.0829 0.10892 0.0
N134 N 0.37621 0.09587 0.08114 0.0
N135 N 0.37783 0.10291 0.20974 0.0
C136 C 0.38809 0.10804 0.14341 0.0
H137 H 0.34723 0.07789 0.22545 0.0
Co138 Co 0.38946 0.11056 0.31196 0.0
C139 C 0.39685 0.16719 0.32392 0.0
O140 O 0.38867 0.16851 0.3933 0.0
N141 N 0.40188 0.1173 0.41569 0.0
C142 C 0.42627 0.12959 0.51934 0.0
C143 C 0.42263 0.13035 0.44043 0.0
C144 C 0.39404 0.10781 0.48055 0.0
N145 N 0.40825 0.11526 0.54411 0.0
O146 O 0.42138 0.09946 0.28679 0.0
H147 H 0.43466 0.13951 0.40323 0.0
H148 H 0.37862 0.09501 0.48203 0.0
O149 O 0.39732 0.14564 0.28555 0.0
C150 C 0.4238 0.0755 0.29361 0.0
O151 O 0.40491 0.06243 0.31398 0.0
N152 N 0.35725 0.11872 0.33798 0.0
C153 C 0.30944 0.1207 0.38675 0.0
C154 C 0.31929 0.14135 0.35039 0.0
C155 C 0.34326 0.13983 0.32521 0.0
C156 C 0.34712 0.09796 0.36752 0.0
C157 C 0.32353 0.09858 0.39291 0.0
H158 H 0.35022 0.15543 0.29504 0.0
H159 H 0.35758 0.08054 0.37097 0.0
H160 H 0.40483 0.11905 0.14135 0.0
H161 H 0.34476 0.07044 0.07511 0.0
H162 H 0.4415 0.13795 0.55514 0.0
H163 H 0.30872 0.15853 0.34227 0.0
H164 H 0.31635 0.08167 0.41678 0.0
C165 C 0.91133 0.89847 0.66394 0.0
C166 C 0.91205 0.9 0.74336 0.0
N167 N 0.93029 0.88492 0.76951 0.0
N168 N 0.92884 0.88223 0.64049 0.0
C169 C 0.94003 0.87437 0.70605 0.0
H170 H 0.89918 0.90895 0.62597 0.0
Co171 Co 0.93852 0.87321 0.5417 0.0
C172 C 0.93506 0.81694 0.52997 0.0
O173 O 0.92628 0.81841 0.45844 0.0
N174 N 0.94961 0.864 0.44286 0.0
C175 C 0.97557 0.84752 0.36001 0.0
C176 C 0.96979 0.84944 0.43536 0.0
C177 C 0.94374 0.87107 0.3703 0.0
N178 N 0.95926 0.86125 0.31896 0.0
O179 O 0.97203 0.88137 0.57581 0.0
H180 H 0.98005 0.84099 0.48245 0.0
H181 H 0.92921 0.88402 0.35495 0.0
O182 O 0.94117 0.83739 0.57061 0.0
C183 C 0.97345 0.90561 0.57301 0.0
O184 O 0.9535 0.91815 0.55271 0.0
N185 N 0.9054 0.86891 0.5077 0.0
C186 C 0.85537 0.87849 0.48111 0.0
C187 C 0.86329 0.8577 0.52344 0.0
C188 C 0.88851 0.85336 0.53684 0.0
C189 C 0.89785 0.88888 0.46602 0.0
C190 C 0.87311 0.89336 0.44938 0.0
H191 H 0.89425 0.8391 0.57632 0.0
H192 H 0.91107 0.90287 0.45125 0.0
H193 H 0.95536 0.86134 0.70707 0.0
H194 H 0.9007 0.91199 0.77902 0.0
H195 H 0.9908 0.83698 0.33748 0.0
H196 H 0.85027 0.84616 0.55085 0.0
H197 H 0.86803 0.90958 0.41619 0.0
C198 C 0.11455 0.45708 0.76258 0.0
C199 C 0.11888 0.45827 0.6861 0.0
N200 N 0.10742 0.43828 0.64706 0.0
N201 N 0.10082 0.43617 0.77168 0.0
C202 C 0.09644 0.42523 0.69997 0.0
H203 H 0.12146 0.47026 0.80904 0.0
Co204 Co 0.09256 0.42603 0.86652 0.0
C205 C 0.08902 0.36976 0.85195 0.0
O206 O 0.10019 0.36927 0.92086 0.0
N207 N 0.08364 0.41639 0.96448 0.0
C208 C 0.06236 0.40095 0.05702 0.0
C209 C 0.06257 0.40446 0.97928 0.0
C210 C 0.0955 0.42045 0.03461 0.0
N211 N 0.08328 0.4109 0.09151 0.0
O212 O 0.05965 0.43671 0.84285 0.0
H213 H 0.04831 0.39845 0.93601 0.0
H214 H 0.11248 0.43083 0.04531 0.0
O215 O 0.08476 0.39126 0.82251 0.0
C216 C 0.05404 0.45748 0.879 0.0
O217 O 0.06978 0.46785 0.93204 0.0
N218 N 0.12587 0.41817 0.88845 0.0
C219 C 0.17669 0.4155 0.9189 0.0
C220 C 0.16426 0.39723 0.86846 0.0
C221 C 0.13892 0.39926 0.85253 0.0
C222 C 0.13799 0.43704 0.93274 0.0
C223 C 0.16311 0.43564 0.95102 0.0
H224 H 0.13024 0.38631 0.80863 0.0
H225 H 0.128 0.45353 0.95365 0.0
H226 H 0.0862 0.40762 0.6869 0.0
H227 H 0.12979 0.47254 0.66105 0.0
H228 H 0.0481 0.39154 0.08555 0.0
H229 H 0.17414 0.38216 0.83887 0.0
H230 H 0.17179 0.45049 0.98928 0.0
C231 C 0.55415 0.63331 0.94406 0.0
C232 C 0.55223 0.63221 0.86456 0.0
N233 N 0.56843 0.61493 0.83874 0.0
N234 N 0.57171 0.617 0.96807 0.0
C235 C 0.57991 0.60606 0.90258 0.0
H236 H 0.54335 0.64518 0.98163 0.0
Co237 Co 0.5834 0.60966 0.06739 0.0
C238 C 0.63766 0.61894 0.0653 0.0
O239 O 0.6394 0.6272 0.13807 0.0
N240 N 0.59529 0.60117 0.16716 0.0
C241 C 0.61491 0.57819 0.25488 0.0
C242 C 0.6127 0.5833 0.17865 0.0
C243 C 0.58677 0.60617 0.23796 0.0
N244 N 0.59847 0.5924 0.29233 0.0
O245 O 0.58147 0.57358 0.03798 0.0
H246 H 0.6226 0.57376 0.1336 0.0
H247 H 0.57126 0.61823 0.24904 0.0
O248 O 0.61686 0.61176 0.03317 0.0
C249 C 0.56236 0.56382 0.06331 0.0
O250 O 0.54737 0.57914 0.09967 0.0
N251 N 0.58287 0.64478 0.09804 0.0
C252 C 0.57513 0.69499 0.15509 0.0
C253 C 0.59509 0.68908 0.11019 0.0
C254 C 0.59832 0.66391 0.08065 0.0
C255 C 0.56249 0.65056 0.13644 0.0
C256 C 0.55828 0.67536 0.16551 0.0
H257 H 0.61308 0.66016 0.04349 0.0
H258 H 0.54929 0.63564 0.14436 0.0
H259 H 0.5943 0.59192 0.90187 0.0
H260 H 0.53955 0.64286 0.82866 0.0
H261 H 0.62725 0.56447 0.2803 0.0
H262 H 0.60834 0.70358 0.09882 0.0
H263 H 0.54187 0.67902 0.19598 0.0
H264 H 0.52964 0.53845 0.14217 0.0
H265 H 0.58278 0.52617 0.96951 0.0
H266 H 0.57081 0.48023 0.95497 0.0
H267 H 0.53655 0.47583 0.2287 0.0
H268 H 0.50422 0.47401 0.24353 0.0
H269 H 0.51945 0.50468 0.2468 0.0
H270 H 0.48801 0.51982 0.14147 0.0
H271 H 0.4726 0.48943 0.1388 0.0
H272 H 0.48344 0.50105 0.05166 0.0
H273 H 0.54844 0.43662 0.94832 0.0
H274 H 0.51736 0.40174 0.94633 0.0
H275 H 0.48039 0.44347 0.12573 0.0
C276 C 0.5391 0.52611 0.10197 0.0
C277 C 0.55712 0.53592 0.05677 0.0
C278 C 0.56898 0.51903 1.00494 0.0
C279 C 0.56234 0.49291 0.99659 0.0
C280 C 0.54414 0.48396 0.04148 0.0
C281 C 0.53286 0.50019 0.09353 0.0
C282 C 0.51249 0.48683 0.13071 0.0
C283 C 0.51855 0.48524 0.21759 0.0
C284 C 0.48768 0.50006 0.11463 0.0
C285 C 0.51321 0.46073 0.08927 0.0
C286 C 0.53182 0.45911 0.03889 0.0
C287 C 0.53427 0.4375 0.98905 0.0
C288 C 0.51674 0.41764 0.98875 0.0
C289 C 0.49709 0.41969 0.03774 0.0
C290 C 0.49585 0.44111 0.08995 0.0
H291 H 0.43393 0.02498 0.31072 0.0
H292 H 0.46725 0.09632 0.2543 0.0
H293 H 0.50711 0.07448 0.24462 0.0
H294 H 0.48303 1.00457 0.4303 0.0
H295 H 0.47974 0.97115 0.4004 0.0
H296 H 0.45344 0.99171 0.39545 0.0
H297 H 0.44556 0.97855 0.25042 0.0
H298 H 0.47189 0.95791 0.2549 0.0
H299 H 0.46975 0.98231 0.18613 0.0
H300 H 0.5437 0.04598 0.2518 0.0
H301 H 0.57486 0.01313 0.27653 0.0
H302 H 0.51788 0.95983 0.32726 0.0
C303 C 0.4495 0.03599 0.2952 0.0
C304 C 0.44745 0.0624 0.28298 0.0
C305 C 0.46836 0.0761 0.26361 0.0
C306 C 0.49104 0.06382 0.25781 0.0
C307 C 0.49245 0.03784 0.2711 0.0
C308 C 0.47223 0.02405 0.28917 0.0
C309 C 0.47895 0.9967 0.30515 0.0
C310 C 0.47347 0.9907 0.38773 0.0
C311 C 0.46575 0.97775 0.24558 0.0
C312 C 0.5063 0.99739 0.29518 0.0
C313 C 0.51361 0.02127 0.27485 0.0
C314 C 0.53814 0.02715 0.26679 0.0
C315 C 0.5557 0.00836 0.2812 0.0
C316 C 0.54875 0.9839 0.30341 0.0
C317 C 0.52365 0.97819 0.30898 0.0
H318 H 0.97937 0.94815 0.66498 0.0
H319 H 0.01763 0.8979 0.5083 0.0
H320 H 0.05016 0.93099 0.5031 0.0
H321 H 0.98582 1.00135 0.57291 0.0
H322 H 0.98991 0.02335 0.65617 0.0
H323 H 0.9734 0.99395 0.66247 0.0
H324 H 0.00291 0.9814 0.77615 0.0
H325 H 0.01927 0.01118 0.77166 0.0
H326 H 0.03555 0.98135 0.7658 0.0
H327 H 0.07407 0.97351 0.49714 0.0
H328 H 0.08764 0.01888 0.49772 0.0
H329 H 0.03248 0.03993 0.65766 0.0
C330 C 0.99528 0.94367 0.6327 0.0
C331 C 0.9964 0.92041 0.58841 0.0
C332 C 0.01692 0.91537 0.54448 0.0
C333 C 0.03532 0.93418 0.54073 0.0
C334 C 0.03296 0.95764 0.58213 0.0
C335 C 0.01362 0.96209 0.62871 0.0
C336 C 0.01337 0.98949 0.66081 0.0
C337 C 0.98921 1.00279 0.63658 0.0
C338 C 0.01807 0.99093 0.74883 0.0
C339 C 0.03481 1.00024 0.62226 0.0
C340 C 0.04625 0.9817 0.57794 0.0
C341 C 0.06548 0.988 0.53294 0.0
C342 C 0.07303 0.01382 0.53332 0.0
C343 C 0.0611 0.03299 0.57754 0.0
C344 C 0.04204 0.02582 0.62316 0.0
H345 H 0.02397 0.4826 0.97523 0.0
H346 H 0.03478 0.46527 0.73382 0.0
H347 H 0.00168 0.49554 0.69826 0.0
H348 H 0.9568 0.48725 0.95075 0.0
H349 H 0.95571 0.51234 0.02567 0.0
H350 H 0.9797 0.48888 0.03011 0.0
H351 H 0.01219 0.52534 0.04052 0.0
H352 H 0.98833 0.54888 0.03434 0.0
H353 H 0.01203 0.5481 0.96685 0.0
H354 H 0.97015 0.53142 0.69119 0.0
H355 H 0.93742 0.56341 0.7117 0.0
H356 H 0.94525 0.55388 0.95715 0.0
C357 C 0.01901 0.48486 0.91488 0.0
C358 C 0.03173 0.47169 0.85709 0.0
C359 C 0.02492 0.47504 0.77872 0.0
C360 C 0.00636 0.49235 0.75816 0.0
C361 C 0.99457 0.50565 0.81678 0.0
C362 C 0.00018 0.5015 0.89348 0.0
C363 C 0.98441 0.51755 0.94554 0.0
C364 C 0.96819 0.50049 0.99065 0.0
C365 C 0.0002 0.53606 1.0 0.0
C366 C 0.9693 0.53176 0.8864 0.0
C367 C 0.97566 0.52502 0.81247 0.0
C368 C 0.96482 0.53657 0.74875 0.0
C369 C 0.94648 0.55487 0.7609 0.0
C370 C 0.93898 0.56098 0.83591 0.0
C371 C 0.95069 0.54943 0.89923 0.0
H372 H 0.43661 0.35468 0.32749 0.0
H373 H 0.44318 0.43731 0.34257 0.0
H374 H 0.45067 0.43697 0.48356 0.0
H375 H 0.40393 0.35026 0.49625 0.0
H376 H 0.41861 0.32143 0.52633 0.0
H377 H 0.41574 0.32777 0.4258 0.0
H378 H 0.46268 0.32325 0.4179 0.0
H379 H 0.46576 0.31685 0.51848 0.0
H380 H 0.48309 0.34254 0.4831 0.0
H381 H 0.45569 0.42816 0.62256 0.0
H382 H 0.45711 0.41155 0.75185 0.0
H383 H 0.44615 0.33445 0.64996 0.0
C384 C 0.44006 0.3726 0.36057 0.0
C385 C 0.43937 0.39606 0.32411 0.0
C386 C 0.44346 0.41919 0.36937 0.0
C387 C 0.44786 0.41917 0.44943 0.0
C388 C 0.44803 0.39583 0.48382 0.0
C389 C 0.44422 0.37294 0.44108 0.0
C390 C 0.44404 0.35071 0.4933 0.0
C391 C 0.41909 0.33673 0.48491 0.0
C392 C 0.46516 0.33225 0.47722 0.0
C393 C 0.44811 0.36476 0.5719 0.0
C394 C 0.45054 0.39075 0.56479 0.0
C395 C 0.45383 0.40783 0.62889 0.0
C396 C 0.45442 0.3982 0.70233 0.0
C397 C 0.45159 0.37167 0.71164 0.0
C398 C 0.44867 0.35477 0.64508 0.0
H399 H 0.58576 0.90419 0.03189 0.0
H400 H 0.61795 0.98015 0.06298 0.0
H401 H 0.60931 0.9866 0.92528 0.0
H402 H 0.60974 0.88819 0.8527 0.0
H403 H 0.58307 0.87091 0.81086 0.0
H404 H 0.58937 0.87288 0.91362 0.0
H405 H 0.54627 0.89184 0.93194 0.0
H406 H 0.53978 0.88984 0.82909 0.0
H407 H 0.53705 0.91997 0.88312 0.0
H408 H 0.60117 0.98375 0.78451 0.0
H409 H 0.59267 0.972 0.64624 0.0
H410 H 0.56478 0.89822 0.70178 0.0
C411 C 0.59046 0.9223 0.00962 0.0
C412 C 0.60265 0.94164 0.05787 0.0
C413 C 0.60891 0.96499 0.02678 0.0
C414 C 0.60393 0.9689 0.94876 0.0
C415 C 0.59252 0.94931 0.90223 0.0
C416 C 0.58568 0.92651 0.93115 0.0
C417 C 0.57494 0.90815 0.8669 0.0
C418 C 0.5902 0.88359 0.86067 0.0
C419 C 0.5479 0.9021 0.87847 0.0
C420 C 0.57739 0.92406 0.79757 0.0
C421 C 0.58747 0.94778 0.81973 0.0
C422 C 0.59297 0.96537 0.76638 0.0
C423 C 0.58823 0.95851 0.68807 0.0
C424 C 0.57801 0.93433 0.66366 0.0
C425 C 0.57219 0.91701 0.71924 0.0
H426 H 0.06772 0.1014 0.87455 0.0
H427 H 0.14648 0.11344 0.89443 0.0
H428 H 0.1456 0.11846 0.03584 0.0
H429 H 0.05301 0.14574 0.03877 0.0
H430 H 0.02945 0.12497 0.06873 0.0
H431 H 0.03582 0.12499 0.96857 0.0
H432 H 0.043 0.07614 0.96627 0.0
H433 H 0.03692 0.07599 0.06652 0.0
H434 H 0.06543 0.0635 0.03406 0.0
H435 H 0.13706 0.11885 0.17297 0.0
H436 H 0.12114 0.11627 0.30086 0.0
H437 H 0.04759 0.1031 0.19566 0.0
C438 C 0.08459 0.10575 0.90896 0.0
C439 C 0.10718 0.10719 0.87419 0.0
C440 C 0.12907 0.11224 0.92052 0.0
C441 C 0.12871 0.11517 1.00062 0.0
C442 C 0.1063 0.11292 0.03349 0.0
C443 C 0.08458 0.10848 0.98946 0.0
C444 C 0.0633 0.10535 0.0402 0.0
C445 C 0.04427 0.12653 0.02836 0.0
C446 C 0.05148 0.07866 0.02589 0.0
C447 C 0.07658 0.10842 0.11935 0.0
C448 C 0.10135 0.11285 0.11375 0.0
C449 C 0.11768 0.1155 0.17825 0.0
C450 C 0.10847 0.11371 0.25072 0.0
C451 C 0.08313 0.10925 0.25843 0.0
C452 C 0.06699 0.10668 0.19162 0.0
H453 H 0.91457 0.60513 0.16783 0.0
H454 H 0.84837 0.64661 0.10802 0.0
H455 H 0.83579 0.6446 0.24199 0.0
H456 H 0.88582 0.56183 0.28734 0.0
H457 H 0.91204 0.56034 0.35512 0.0
H458 H 0.91631 0.56656 0.25635 0.0
H459 H 0.94018 0.60823 0.30084 0.0
H460 H 0.93598 0.60214 0.39977 0.0
H461 H 0.92602 0.63197 0.36226 0.0
H462 H 0.83167 0.63937 0.38515 0.0
H463 H 0.83383 0.62684 0.52079 0.0
H464 H 0.90064 0.58527 0.482 0.0
C465 C 0.89756 0.61397 0.18348 0.0
C466 C 0.88253 0.62636 0.12852 0.0
C467 C 0.86008 0.63717 0.1499 0.0
C468 C 0.8529 0.63618 0.22568 0.0
C469 C 0.86818 0.62383 0.27878 0.0
C470 C 0.88986 0.61256 0.2582 0.0
C471 C 0.90228 0.59913 0.32455 0.0
C472 C 0.90421 0.57026 0.30463 0.0
C473 C 0.92761 0.61109 0.34824 0.0
C474 C 0.8843 0.60468 0.38591 0.0
C475 C 0.86495 0.61932 0.35896 0.0
C476 C 0.84659 0.62765 0.4065 0.0
C477 C 0.84794 0.62056 0.4832 0.0
C478 C 0.86716 0.60488 0.51076 0.0
C479 C 0.88555 0.59692 0.46149 0.0
H480 H 0.39539 0.13319 0.99848 0.0
H481 H 0.373 0.05346 0.98601 0.0
H482 H 0.38137 0.04961 0.84899 0.0
H483 H 0.36872 0.14759 0.81625 0.0
H484 H 0.39301 0.16844 0.79175 0.0
H485 H 0.38741 0.16485 0.89121 0.0
H486 H 0.43247 0.15152 0.91876 0.0
H487 H 0.43836 0.15515 0.8194 0.0
H488 H 0.44485 0.12526 0.86239 0.0
H489 H 0.3885 0.05466 0.71286 0.0
H490 H 0.39557 0.06827 0.58302 0.0
H491 H 0.41451 0.14453 0.67872 0.0
C492 C 0.39273 0.11487 0.96696 0.0
C493 C 0.38334 0.09365 1.00278 0.0
C494 C 0.37977 0.07004 0.95954 0.0
C495 C 0.38465 0.06761 0.88175 0.0
C496 C 0.39325 0.08893 0.84757 0.0
C497 C 0.39747 0.1121 0.88848 0.0
C498 C 0.40573 0.13219 0.83587 0.0
C499 C 0.38763 0.15459 0.83365 0.0
C500 C 0.43192 0.14158 0.86059 0.0
C501 C 0.40496 0.11672 0.7591 0.0
C502 C 0.39779 0.09179 0.76774 0.0
C503 C 0.3944 0.07405 0.70531 0.0
C504 C 0.39829 0.08196 0.63177 0.0
C505 C 0.40561 0.10737 0.62096 0.0
C506 C 0.40928 0.12489 0.68571 0.0
H507 H 0.92028 0.87201 0.22016 0.0
H508 H 0.99914 0.86072 0.23391 0.0
H509 H 1.0 0.86629 0.09515 0.0
H510 H 0.90786 0.83887 0.03718 0.0
H511 H 0.88455 0.86063 1.00412 0.0
H512 H 0.88995 0.85643 0.10554 0.0
H513 H 0.89717 0.90517 0.13068 0.0
H514 H 0.89173 0.90954 0.0293 0.0
H515 H 0.91992 0.92097 0.07929 0.0
H516 H 0.99258 0.87157 0.9553 0.0
H517 H 0.97725 0.87737 0.82158 0.0
H518 H 0.90325 0.88615 0.89587 0.0
C519 C 0.93775 0.87102 0.19413 0.0
C520 C 0.95962 0.86568 0.23813 0.0
C521 C 0.98207 0.86427 0.2015 0.0
C522 C 0.9828 0.86761 0.12266 0.0
C523 C 0.96094 0.87249 0.08092 0.0
C524 C 0.93883 0.87435 0.11515 0.0
C525 C 0.918 0.8794 0.05624 0.0
C526 C 0.89897 0.85752 0.05044 0.0
C527 C 0.906 0.90532 0.07501 0.0
C528 C 0.93191 0.87989 0.98369 0.0
C529 C 0.95665 0.87585 0.99953 0.0
C530 C 0.97325 0.87481 0.94208 0.0
C531 C 0.96434 0.87793 0.86621 0.0
C532 C 0.93905 0.8821 0.84822 0.0
C533 C 0.92269 0.88325 0.90805 0.0
H534 H 0.06943 0.42485 0.54471 0.0
H535 H 0.14813 0.43686 0.56834 0.0
H536 H 0.15063 0.42727 0.42853 0.0
H537 H 0.06833 0.37368 0.38932 0.0
H538 H 0.04114 0.38573 0.34012 0.0
H539 H 0.04575 0.39062 0.44322 0.0
H540 H 0.04094 0.43946 0.43209 0.0
H541 H 0.03632 0.43471 0.32912 0.0
H542 H 0.0603 0.45592 0.37071 0.0
H543 H 0.1446 0.41824 0.28771 0.0
H544 H 0.13039 0.41322 0.15122 0.0
H545 H 0.05487 0.40988 0.21508 0.0
C546 C 0.08715 0.42492 0.52016 0.0
C547 C 0.10867 0.43132 0.56664 0.0
C548 C 0.13154 0.43196 0.5331 0.0
C549 C 0.13312 0.42641 0.45411 0.0
C550 C 0.11156 0.42052 0.40942 0.0
C551 C 0.08897 0.4199 0.44086 0.0
C552 C 0.06848 0.41517 0.37859 0.0
C553 C 0.05514 0.38979 0.38841 0.0
C554 C 0.05045 0.43766 0.37758 0.0
C555 C 0.0831 0.41365 0.30735 0.0
C556 C 0.10793 0.41638 0.32688 0.0
C557 C 0.12519 0.41617 0.27158 0.0
C558 C 0.11687 0.41355 0.194 0.0
C559 C 0.09144 0.41157 0.17198 0.0
C560 C 0.0744 0.41119 0.22981 0.0
H561 H 0.56389 0.64355 0.7126 0.0
H562 H 0.58186 0.56781 0.78608 0.0
H563 H 0.58983 0.55375 0.65275 0.0
H564 H 0.53366 0.62298 0.52587 0.0
H565 H 0.5459 0.64908 0.47686 0.0
H566 H 0.54056 0.65318 0.57775 0.0
H567 H 0.58591 0.66702 0.60787 0.0
H568 H 0.59137 0.66297 0.50713 0.0
H569 H 0.61004 0.64625 0.57663 0.0
H570 H 0.59668 0.54788 0.51373 0.0
H571 H 0.60319 0.55066 0.37629 0.0
H572 H 0.5815 0.63031 0.38941 0.0
C573 C 0.56921 0.62394 0.7003 0.0
C574 C 0.5723 0.60678 0.75995 0.0
C575 C 0.57967 0.58138 0.74172 0.0
C576 C 0.58407 0.57315 0.66601 0.0
C577 C 0.58107 0.59055 0.60882 0.0
C578 C 0.57386 0.61543 0.62476 0.0
C579 C 0.57292 0.6304 0.55253 0.0
C580 C 0.5467 0.63944 0.53205 0.0
C581 C 0.59115 0.65299 0.56161 0.0
C582 C 0.58088 0.61004 0.49381 0.0
C583 C 0.58534 0.58721 0.52782 0.0
C584 C 0.59331 0.56566 0.48643 0.0
C585 C 0.59712 0.56751 0.40836 0.0
C586 C 0.59311 0.59077 0.37198 0.0
C587 C 0.58456 0.61224 0.41537 0.0
H588 H 0.20623 0.37313 0.93558 0.0
H589 H 0.2088 0.45603 0.93413 0.0
H590 H 0.25344 0.4553 0.96117 0.0
H591 H 0.25488 0.36606 0.08509 0.0
H592 H 0.26748 0.33796 0.03827 0.0
H593 H 0.23521 0.34465 0.02405 0.0
H594 H 0.23884 0.34284 0.87644 0.0
H595 H 0.27106 0.33598 0.89015 0.0
H596 H 0.26115 0.36288 0.83658 0.0
H597 H 0.29731 0.44626 0.98425 0.0
H598 H 0.33918 0.42905 0.99405 0.0
H599 H 0.30972 0.35173 0.97542 0.0
C600 C 0.21617 0.39113 0.9409 0.0
C601 C 0.20379 0.41468 0.93413 0.0
C602 C 0.21759 0.43777 0.94138 0.0
C603 C 0.24304 0.43758 0.9563 0.0
C604 C 0.25457 0.41415 0.96327 0.0
C605 C 0.24173 0.3913 0.95524 0.0
C606 C 0.259 0.36876 0.96155 0.0
C607 C 0.25383 0.35346 0.03141 0.0
C608 C 0.25742 0.35161 0.88672 0.0
C609 C 0.28354 0.38261 0.97334 0.0
C610 C 0.28037 0.40879 0.97487 0.0
C611 C 0.30008 0.42581 0.98311 0.0
C612 C 0.32376 0.41585 0.98832 0.0
C613 C 0.32761 0.3891 0.98472 0.0
C614 C 0.30722 0.37224 0.9787 0.0
H615 H 0.59122 0.84757 0.22422 0.0
H616 H 0.56065 0.83903 0.44488 0.0
H617 H 0.55188 0.79358 0.40949 0.0
H618 H 0.549 0.80034 0.10967 0.0
H619 H 0.57321 0.78846 0.05198 0.0
H620 H 0.57371 0.82131 0.08913 0.0
H621 H 0.61718 0.8148 0.15291 0.0
H622 H 0.6167 0.78187 0.11704 0.0
H623 H 0.62209 0.78975 0.21872 0.0
H624 H 0.55161 0.74878 0.36029 0.0
H625 H 0.55718 0.70662 0.29579 0.0
H626 H 0.58693 0.74257 0.10285 0.0
C627 C 0.58185 0.83625 0.26354 0.0
C628 C 0.57625 0.84677 0.33685 0.0
C629 C 0.56486 0.83129 0.38827 0.0
C630 C 0.55982 0.80548 0.3687 0.0
C631 C 0.56634 0.79534 0.2974 0.0
C632 C 0.57686 0.81017 0.24503 0.0
C633 C 0.58381 0.79373 0.17507 0.0
C634 C 0.56905 0.80142 0.10214 0.0
C635 C 0.61159 0.79513 0.16541 0.0
C636 C 0.57615 0.7674 0.19762 0.0
C637 C 0.56599 0.76896 0.26822 0.0
C638 C 0.55893 0.74731 0.30397 0.0
C639 C 0.56206 0.72336 0.26637 0.0
C640 C 0.57201 0.721 0.19306 0.0
C641 C 0.57919 0.74351 0.15853 0.0
H642 H 0.26598 0.13973 0.32236 0.0
H643 H 0.29702 0.10322 0.52323 0.0
H644 H 0.2558 0.09919 0.57075 0.0
H645 H 0.21892 0.17586 0.42508 0.0
H646 H 0.1963 0.17209 0.34525 0.0
H647 H 0.22847 0.17304 0.32788 0.0
H648 H 0.22385 0.12948 0.24991 0.0
H649 H 0.19176 0.12824 0.26792 0.0
H650 H 0.21163 0.10237 0.29437 0.0
H651 H 0.21138 0.09593 0.59229 0.0
H652 H 0.16632 0.09803 0.59379 0.0
H653 H 0.1634 0.13849 0.3832 0.0
C654 C 0.26413 0.13134 0.37701 0.0
C655 C 0.28475 0.12147 0.41849 0.0
C656 C 0.28148 0.11045 0.48958 0.0
C657 C 0.25814 0.10814 0.5173 0.0
C658 C 0.23814 0.11725 0.47395 0.0
C659 C 0.24084 0.12903 0.40603 0.0
C660 C 0.2161 0.13703 0.3709 0.0
C661 C 0.21488 0.16624 0.36708 0.0
C662 C 0.21051 0.12347 0.29105 0.0
C663 C 0.19919 0.1276 0.42924 0.0
C664 C 0.21234 0.11611 0.48788 0.0
C665 C 0.20086 0.1051 0.5471 0.0
C666 C 0.17522 0.1062 0.54714 0.0
C667 C 0.16134 0.11841 0.48873 0.0
C668 C 0.17355 0.12918 0.42894 0.0
H669 H 0.90102 0.71826 0.83932 0.0
H670 H 0.91024 0.65803 0.66173 0.0
H671 H 0.92498 0.68985 0.5765 0.0
H672 H 0.87855 0.76499 0.71485 0.0
H673 H 0.89417 0.79157 0.76741 0.0
H674 H 0.8859 0.7639 0.81688 0.0
H675 H 0.93123 0.75896 0.86696 0.0
H676 H 0.93962 0.7866 0.81729 0.0
H677 H 0.95486 0.7566 0.79928 0.0
H678 H 0.93559 0.7281 0.50673 0.0
H679 H 0.94138 0.77063 0.45658 0.0
H680 H 0.9268 0.80654 0.67931 0.0
C681 C 0.90639 0.71171 0.78283 0.0
C682 C 0.90446 0.68555 0.75742 0.0
C683 C 0.91153 0.67788 0.68276 0.0
C684 C 0.92002 0.69582 0.63388 0.0
C685 C 0.92155 0.72141 0.66047 0.0
C686 C 0.91502 0.7294 0.73322 0.0
C687 C 0.91745 0.75825 0.74613 0.0
C688 C 0.89253 0.77038 0.76224 0.0
C689 C 0.93695 0.76552 0.81128 0.0
C690 C 0.92587 0.76524 0.66869 0.0
C691 C 0.92821 0.74362 0.62039 0.0
C692 C 0.93418 0.74513 0.54431 0.0
C693 C 0.93742 0.76937 0.51633 0.0
C694 C 0.93487 0.79181 0.56431 0.0
C695 C 0.92947 0.78967 0.64195 0.0
H696 H 0.81259 0.84901 0.46437 0.0
H697 H 0.83915 0.92753 0.49448 0.0
H698 H 0.79693 0.94295 0.48301 0.0
H699 H 0.76217 0.85963 0.32887 0.0
H700 H 0.74116 0.8383 0.36936 0.0
H701 H 0.7737 0.83264 0.37923 0.0
H702 H 0.77194 0.83302 0.52737 0.0
H703 H 0.73935 0.83853 0.51791 0.0
H704 H 0.75899 0.86016 0.57824 0.0
H705 H 0.75315 0.95055 0.45995 0.0
H706 H 0.70849 0.95024 0.4395 0.0
H707 H 0.7079 0.86717 0.43804 0.0
C708 C 0.80947 0.86941 0.469 0.0
C709 C 0.82937 0.88702 0.47789 0.0
C710 C 0.82443 0.91359 0.48448 0.0
C711 C 0.80043 0.92262 0.47885 0.0
C712 C 0.78138 0.90491 0.46822 0.0
C713 C 0.78541 0.87888 0.46454 0.0
C714 C 0.76119 0.86426 0.45444 0.0
C715 C 0.75946 0.84773 0.37845 0.0
C716 C 0.75766 0.84803 0.52362 0.0
C717 C 0.74314 0.88625 0.45208 0.0
C718 C 0.75539 0.90943 0.45969 0.0
C719 C 0.74321 0.93256 0.45586 0.0
C720 C 0.71768 0.93212 0.44504 0.0
C721 C 0.70432 0.90871 0.43972 0.0
C722 C 0.7174 0.88542 0.44259 0.0
H723 H 0.10513 0.22058 0.75487 0.0
H724 H 0.0605 0.22862 0.54313 0.0
H725 H 0.05626 0.27492 0.57662 0.0
H726 H 0.0708 0.26384 0.87191 0.0
H727 H 0.09739 0.2763 0.9287 0.0
H728 H 0.09748 0.24412 0.88646 0.0
H729 H 0.13696 0.25416 0.81834 0.0
H730 H 0.13706 0.28634 0.86069 0.0
H731 H 0.13732 0.28087 0.75773 0.0
H732 H 0.05758 0.32084 0.63373 0.0
H733 H 0.06324 0.36182 0.71142 0.0
H734 H 0.10563 0.32254 0.88701 0.0
C735 C 0.09469 0.23216 0.71519 0.0
C736 C 0.08328 0.22113 0.64619 0.0
C737 C 0.06934 0.23677 0.59641 0.0
C738 C 0.06689 0.26305 0.61485 0.0
C739 C 0.0783 0.27332 0.68363 0.0
C740 C 0.09182 0.25829 0.73314 0.0
C741 C 0.1017 0.27374 0.80444 0.0
C742 C 0.0912 0.26391 0.87716 0.0
C743 C 0.12993 0.27378 0.81062 0.0
C744 C 0.09175 0.29983 0.78729 0.0
C745 C 0.07841 0.29933 0.71723 0.0
C746 C 0.06789 0.32141 0.68889 0.0
C747 C 0.07119 0.34459 0.73336 0.0
C748 C 0.08471 0.34539 0.80554 0.0
C749 C 0.09497 0.32261 0.8325 0.0
H750 H 0.68611 0.6186 0.11536 0.0
H751 H 0.63777 0.62397 0.9098 0.0
H752 H 0.67381 0.62984 0.83322 0.0
H753 H 0.73146 0.66457 0.07161 0.0
H754 H 0.75702 0.64644 0.1093 0.0
H755 H 0.72741 0.6436 0.14826 0.0
H756 H 0.72782 0.59452 0.1191 0.0
H757 H 0.75753 0.5972 0.0809 0.0
H758 H 0.73253 0.58197 0.02272 0.0
H759 H 0.71559 0.63625 0.7798 0.0
H760 H 0.75961 0.63706 0.75156 0.0
H761 H 0.7801 0.62501 0.99071 0.0
C762 C 0.68312 0.62106 0.05425 0.0
C763 C 0.65918 0.62099 0.01854 0.0
C764 C 0.65599 0.62389 0.93825 0.0
C765 C 0.67633 0.62742 0.89441 0.0
C766 C 0.69972 0.62767 0.93159 0.0
C767 C 0.7032 0.62414 0.0095 0.0
C768 C 0.73021 0.62379 0.03499 0.0
C769 C 0.73691 0.64592 0.09456 0.0
C770 C 0.73744 0.59783 0.06624 0.0
C771 C 0.74143 0.6277 0.95937 0.0
C772 C 0.7236 0.6303 0.9005 0.0
C773 C 0.72969 0.63418 0.82545 0.0
C774 C 0.75465 0.63479 0.80996 0.0
C775 C 0.77304 0.63116 0.86905 0.0
C776 C 0.76629 0.62789 0.94467 0.0
H777 H 0.41544 0.26823 1.00517 0.0
H778 H 0.44723 0.31962 0.1895 0.0
H779 H 0.44392 0.28579 0.28079 0.0
H780 H 0.37207 0.23906 0.11175 0.0
H781 H 0.3751 0.20737 0.0675 0.0
H782 H 0.3817 0.23485 0.01484 0.0
H783 H 0.42514 0.21745 0.99215 0.0
H784 H 0.41853 0.18979 0.04424 0.0
H785 H 0.4451 0.20939 0.07337 0.0
H786 H 0.43279 0.2483 0.35468 0.0
H787 H 0.4182 0.2082 0.40454 0.0
H788 H 0.39587 0.1796 0.17205 0.0
C789 C 0.42214 0.27223 0.06444 0.0
C790 C 0.4316 0.29671 0.09004 0.0
C791 C 0.44003 0.30112 0.16821 0.0
C792 C 0.43818 0.28197 0.22065 0.0
C793 C 0.42824 0.25831 0.19388 0.0
C794 C 0.42076 0.25318 0.11736 0.0
C795 C 0.41011 0.22631 0.10407 0.0
C796 C 0.38314 0.22696 0.07271 0.0
C797 C 0.42566 0.20976 0.05029 0.0
C798 C 0.41225 0.21738 0.18544 0.0
C799 C 0.42268 0.23621 0.23628 0.0
C800 C 0.42502 0.23325 0.31527 0.0
C801 C 0.41654 0.21046 0.34308 0.0
C802 C 0.40611 0.19074 0.29214 0.0
C803 C 0.40417 0.19419 0.21216 0.0
loop_
_geom_bond_atom_site_label_1
_geom_bond_atom_site_label_2
_geom_bond_distance
_geom_bond_site_symmetry_2
_ccdc_geom_bond_type
C0 C1 1.351 . S
C0 N3 1.368 . S
C0 H5 0.931 . S
C1 C0 1.351 . S
C1 N2 1.373 . S
C1 H29 0.930 . S
N2 C1 1.373 . S
N2 C4 1.340 . S
N3 C0 1.368 . S
N3 C4 1.321 . S
N3 Co6 2.135 . S
C4 N2 1.340 . S
C4 N3 1.321 . S
C4 H28 0.930 . S
H5 C0 0.931 . S
Co6 N3 2.135 . S
Co6 N9 2.121 1_554 S
Co6 O14 2.055 . S
Co6 O17 2.039 . S
Co6 N20 2.140 . S
C7 O8 1.227 . S
C7 O17 1.265 . S
O8 C7 1.227 . S
N9 Co6 2.121 1_556 S
N9 C11 1.375 . S
N9 C12 1.313 . S
C10 C11 1.338 . S
C10 N13 1.377 . S
C10 H30 0.930 . S
C11 N9 1.375 . S
C11 C10 1.338 . S
C11 H15 0.931 . S
C12 N9 1.313 . S
C12 N13 1.344 . S
C12 H16 0.930 . S
N13 C10 1.377 . S
N13 C12 1.344 . S
O14 Co6 2.055 . S
O14 C18 1.253 . S
H15 C11 0.931 . S
H16 C12 0.930 . S
O17 Co6 2.039 . S
O17 C7 1.265 . S
C18 O14 1.253 . S
C18 O19 1.227 . S
O19 C18 1.227 . S
N20 Co6 2.140 . S
N20 C23 1.346 . S
N20 C24 1.345 . S
C21 C22 1.387 . S
C21 C25 1.391 . S
C22 C21 1.387 . S
C22 C23 1.369 . S
C22 H31 0.929 . S
C23 N20 1.346 . S
C23 C22 1.369 . S
C23 H26 0.928 . S
C24 N20 1.345 . S
C24 C25 1.371 . S
C24 H27 0.931 1_554 S
C25 C21 1.391 . S
C25 C24 1.371 . S
C25 H32 0.930 1_554 S
H26 C23 0.928 . S
H27 C24 0.931 1_556 S
H28 C4 0.930 . S
H29 C1 0.930 . S
H30 C10 0.930 . S
H31 C22 0.929 . S
H32 C25 0.930 1_556 S
C33 C34 1.351 . S
C33 N36 1.368 . S
C33 H38 0.931 . S
C34 C33 1.351 . S
C34 N35 1.373 . S
C34 H62 0.930 . S
N35 C34 1.373 . S
N35 C37 1.340 . S
N36 C33 1.368 . S
N36 C37 1.321 . S
N36 Co39 2.135 . S
C37 N35 1.340 . S
C37 N36 1.321 . S
C37 H61 0.930 . S
H38 C33 0.931 . S
Co39 N36 2.135 . S
Co39 N42 2.121 . S
Co39 O47 2.055 . S
Co39 O50 2.039 . S
Co39 N53 2.140 . S
C40 O41 1.227 . S
C40 O50 1.265 . S
O41 C40 1.227 . S
N42 Co39 2.121 . S
N42 C44 1.375 . S
N42 C45 1.313 . S
C43 C44 1.338 . S
C43 N46 1.377 . S
C43 H63 0.930 . S
C44 N42 1.375 . S
C44 C43 1.338 . S
C44 H48 0.931 . S
C45 N42 1.313 . S
C45 N46 1.344 . S
C45 H49 0.930 . S
N46 C43 1.377 . S
N46 C45 1.344 . S
O47 Co39 2.055 . S
O47 C51 1.253 . S
H48 C44 0.931 . S
H49 C45 0.930 . S
O50 Co39 2.039 . S
O50 C40 1.265 . S
C51 O47 1.253 . S
C51 O52 1.227 . S
O52 C51 1.227 . S
N53 Co39 2.140 . S
N53 C56 1.346 . S
N53 C57 1.345 . S
C54 C55 1.387 . S
C54 C58 1.391 . S
C55 C54 1.387 . S
C55 C56 1.369 . S
C55 H64 0.929 . S
C56 N53 1.346 . S
C56 C55 1.369 . S
C56 H59 0.928 . S
C57 N53 1.345 . S
C57 C58 1.371 . S
C57 H60 0.931 . S
C58 C54 1.391 . S
C58 C57 1.371 . S
C58 H65 0.930 . S
H59 C56 0.928 . S
H60 C57 0.931 . S
H61 C37 0.930 . S
H62 C34 0.930 . S
H63 C43 0.930 . S
H64 C55 0.929 . S
H65 C58 0.930 . S
C66 C67 1.351 . S
C66 N69 1.368 . S
C66 H71 0.931 . S
C67 C66 1.351 . S
C67 N68 1.373 . S
C67 H95 0.930 . S
N68 C67 1.373 . S
N68 C70 1.340 . S
N69 C66 1.368 . S
N69 C70 1.321 . S
N69 Co72 2.135 . S
C70 N68 1.340 . S
C70 N69 1.321 . S
C70 H94 0.930 . S
H71 C66 0.931 . S
Co72 N69 2.135 . S
Co72 N75 2.121 . S
Co72 O80 2.055 . S
Co72 O83 2.039 . S
Co72 N86 2.140 . S
C73 O74 1.227 . S
C73 O83 1.265 . S
O74 C73 1.227 . S
N75 Co72 2.121 . S
N75 C77 1.375 . S
N75 C78 1.313 . S
C76 C77 1.338 . S
C76 N79 1.377 . S
C76 H96 0.930 . S
C77 N75 1.375 . S
C77 C76 1.338 . S
C77 H81 0.931 . S
C78 N75 1.313 . S
C78 N79 1.344 . S
C78 H82 0.930 . S
N79 C76 1.377 . S
N79 C78 1.344 . S
O80 Co72 2.055 . S
O80 C84 1.253 . S
H81 C77 0.931 . S
H82 C78 0.930 . S
O83 Co72 2.039 . S
O83 C73 1.265 . S
C84 O80 1.253 . S
C84 O85 1.227 . S
O85 C84 1.227 . S
N86 Co72 2.140 . S
N86 C89 1.346 . S
N86 C90 1.345 . S
C87 C88 1.387 . S
C87 C91 1.391 . S
C88 C87 1.387 . S
C88 C89 1.369 . S
C88 H97 0.929 . S
C89 N86 1.346 . S
C89 C88 1.369 . S
C89 H92 0.928 . S
C90 N86 1.345 . S
C90 C91 1.371 . S
C90 H93 0.931 . S
C91 C87 1.391 . S
C91 C90 1.371 . S
C91 H98 0.930 . S
H92 C89 0.928 . S
H93 C90 0.931 . S
H94 C70 0.930 . S
H95 C67 0.930 . S
H96 C76 0.930 . S
H97 C88 0.929 . S
H98 C91 0.930 . S
C99 C100 1.351 . S
C99 N102 1.368 . S
C99 H104 0.931 . S
C100 C99 1.351 . S
C100 N101 1.373 . S
C100 H128 0.930 . S
N101 C100 1.373 . S
N101 C103 1.340 . S
N102 C99 1.368 . S
N102 C103 1.321 . S
N102 Co105 2.135 . S
C103 N101 1.340 . S
C103 N102 1.321 . S
C103 H127 0.930 . S
H104 C99 0.931 . S
Co105 N102 2.135 . S
Co105 N108 2.121 . S
Co105 O113 2.055 . S
Co105 O116 2.039 . S
Co105 N119 2.140 . S
C106 O107 1.227 . S
C106 O116 1.265 . S
O107 C106 1.227 . S
N108 Co105 2.121 . S
N108 C110 1.375 . S
N108 C111 1.313 1_556 S
C109 C110 1.338 1_554 S
C109 N112 1.377 . S
C109 H129 0.930 . S
C110 N108 1.375 . S
C110 C109 1.338 1_556 S
C110 H114 0.931 . S
C111 N108 1.313 1_554 S
C111 N112 1.344 . S
C111 H115 0.930 . S
N112 C109 1.377 . S
N112 C111 1.344 . S
O113 Co105 2.055 . S
O113 C117 1.253 . S
H114 C110 0.931 . S
H115 C111 0.930 . S
O116 Co105 2.039 . S
O116 C106 1.265 . S
C117 O113 1.253 . S
C117 O118 1.227 . S
O118 C117 1.227 . S
N119 Co105 2.140 . S
N119 C122 1.346 . S
N119 C123 1.345 . S
C120 C121 1.387 . S
C120 C124 1.391 . S
C121 C120 1.387 . S
C121 C122 1.369 . S
C121 H130 0.929 . S
C122 N119 1.346 . S
C122 C121 1.369 . S
C122 H125 0.928 . S
C123 N119 1.345 . S
C123 C124 1.371 . S
C123 H126 0.931 . S
C124 C120 1.391 . S
C124 C123 1.371 . S
C124 H131 0.930 . S
H125 C122 0.928 . S
H126 C123 0.931 . S
H127 C103 0.930 . S
H128 C100 0.930 . S
H129 C109 0.930 . S
H130 C121 0.929 . S
H131 C124 0.930 . S
C132 C133 1.351 . S
C132 N135 1.368 . S
C132 H137 0.931 . S
C133 C132 1.351 . S
C133 N134 1.373 . S
C133 H161 0.930 . S
N134 C133 1.373 . S
N134 C136 1.340 . S
N135 C132 1.368 . S
N135 C136 1.321 . S
N135 Co138 2.135 . S
C136 N134 1.340 . S
C136 N135 1.321 . S
C136 H160 0.930 . S
H137 C132 0.931 . S
Co138 N135 2.135 . S
Co138 N141 2.121 . S
Co138 O146 2.055 . S
Co138 O149 2.039 . S
Co138 N152 2.140 . S
C139 O140 1.227 . S
C139 O149 1.265 . S
O140 C139 1.227 . S
N141 Co138 2.121 . S
N141 C143 1.375 . S
N141 C144 1.313 . S
C142 C143 1.338 . S
C142 N145 1.377 . S
C142 H162 0.930 . S
C143 N141 1.375 . S
C143 C142 1.338 . S
C143 H147 0.931 . S
C144 N141 1.313 . S
C144 N145 1.344 . S
C144 H148 0.930 . S
N145 C142 1.377 . S
N145 C144 1.344 . S
O146 Co138 2.055 . S
O146 C150 1.253 . S
H147 C143 0.931 . S
H148 C144 0.930 . S
O149 Co138 2.039 . S
O149 C139 1.265 . S
C150 O146 1.253 . S
C150 O151 1.227 . S
O151 C150 1.227 . S
N152 Co138 2.140 . S
N152 C155 1.346 . S
N152 C156 1.345 . S
C153 C154 1.387 . S
C153 C157 1.391 . S
C154 C153 1.387 . S
C154 C155 1.369 . S
C154 H163 0.929 . S
C155 N152 1.346 . S
C155 C154 1.369 . S
C155 H158 0.928 . S
C156 N152 1.345 . S
C156 C157 1.371 . S
C156 H159 0.931 . S
C157 C153 1.391 . S
C157 C156 1.371 . S
C157 H164 0.930 . S
H158 C155 0.928 . S
H159 C156 0.931 . S
H160 C136 0.930 . S
H161 C133 0.930 . S
H162 C142 0.930 . S
H163 C154 0.929 . S
H164 C157 0.930 . S
C165 C166 1.351 . S
C165 N168 1.368 . S
C165 H170 0.931 . S
C166 C165 1.351 . S
C166 N167 1.373 . S
C166 H194 0.930 . S
N167 C166 1.373 . S
N167 C169 1.340 . S
N168 C165 1.368 . S
N168 C169 1.321 . S
N168 Co171 2.135 . S
C169 N167 1.340 . S
C169 N168 1.321 . S
C169 H193 0.930 . S
H170 C165 0.931 . S
Co171 N168 2.135 . S
Co171 N174 2.121 . S
Co171 O179 2.055 . S
Co171 O182 2.039 . S
Co171 N185 2.140 . S
C172 O173 1.227 . S
C172 O182 1.265 . S
O173 C172 1.227 . S
N174 Co171 2.121 . S
N174 C176 1.375 . S
N174 C177 1.313 . S
C175 C176 1.338 . S
C175 N178 1.377 . S
C175 H195 0.930 . S
C176 N174 1.375 . S
C176 C175 1.338 . S
C176 H180 0.931 . S
C177 N174 1.313 . S
C177 N178 1.344 . S
C177 H181 0.930 . S
N178 C175 1.377 . S
N178 C177 1.344 . S
O179 Co171 2.055 . S
O179 C183 1.253 . S
H180 C176 0.931 . S
H181 C177 0.930 . S
O182 Co171 2.039 . S
O182 C172 1.265 . S
C183 O179 1.253 . S
C183 O184 1.227 . S
O184 C183 1.227 . S
N185 Co171 2.140 . S
N185 C188 1.346 . S
N185 C189 1.345 . S
C186 C187 1.387 . S
C186 C190 1.391 . S
C187 C186 1.387 . S
C187 C188 1.369 . S
C187 H196 0.929 . S
C188 N185 1.346 . S
C188 C187 1.369 . S
C188 H191 0.928 . S
C189 N185 1.345 . S
C189 C190 1.371 . S
C189 H192 0.931 . S
C190 C186 1.391 . S
C190 C189 1.371 . S
C190 H197 0.930 . S
H191 C188 0.928 . S
H192 C189 0.931 . S
H193 C169 0.930 . S
H194 C166 0.930 . S
H195 C175 0.930 . S
H196 C187 0.929 . S
H197 C190 0.930 . S
C198 C199 1.351 . S
C198 N201 1.368 . S
C198 H203 0.931 . S
C199 C198 1.351 . S
C199 N200 1.373 . S
C199 H227 0.930 . S
N200 C199 1.373 . S
N200 C202 1.340 . S
N201 C198 1.368 . S
N201 C202 1.321 . S
N201 Co204 2.135 . S
C202 N200 1.340 . S
C202 N201 1.321 . S
C202 H226 0.930 . S
H203 C198 0.931 . S
Co204 N201 2.135 . S
Co204 N207 2.121 . S
Co204 O212 2.055 . S
Co204 O215 2.039 . S
Co204 N218 2.140 . S
C205 O206 1.227 . S
C205 O215 1.265 . S
O206 C205 1.227 . S
N207 Co204 2.121 . S
N207 C209 1.375 . S
N207 C210 1.313 . S
C208 C209 1.338 1_554 S
C208 N211 1.377 . S
C208 H228 0.930 . S
C209 N207 1.375 . S
C209 C208 1.338 1_556 S
C209 H213 0.931 . S
C210 N207 1.313 . S
C210 N211 1.344 1_556 S
C210 H214 0.930 . S
N211 C208 1.377 . S
N211 C210 1.344 1_554 S
O212 Co204 2.055 . S
O212 C216 1.253 . S
H213 C209 0.931 . S
H214 C210 0.930 . S
O215 Co204 2.039 . S
O215 C205 1.265 . S
C216 O212 1.253 . S
C216 O217 1.227 . S
O217 C216 1.227 . S
N218 Co204 2.140 . S
N218 C221 1.346 . S
N218 C222 1.345 . S
C219 C220 1.387 . S
C219 C223 1.391 . S
C220 C219 1.387 . S
C220 C221 1.369 . S
C220 H229 0.929 . S
C221 N218 1.346 . S
C221 C220 1.369 . S
C221 H224 0.928 . S
C222 N218 1.345 . S
C222 C223 1.371 . S
C222 H225 0.931 . S
C223 C219 1.391 . S
C223 C222 1.371 . S
C223 H230 0.930 . S
H224 C221 0.928 . S
H225 C222 0.931 . S
H226 C202 0.930 . S
H227 C199 0.930 . S
H228 C208 0.930 . S
H229 C220 0.929 . S
H230 C223 0.930 . S
C231 C232 1.351 . S
C231 N234 1.368 . S
C231 H236 0.931 . S
C232 C231 1.351 . S
C232 N233 1.373 . S
C232 H260 0.930 . S
N233 C232 1.373 . S
N233 C235 1.340 . S
N234 C231 1.368 . S
N234 C235 1.321 . S
N234 Co237 2.135 1_556 S
C235 N233 1.340 . S
C235 N234 1.321 . S
C235 H259 0.930 . S
H236 C231 0.931 . S
Co237 N234 2.135 1_554 S
Co237 N240 2.121 . S
Co237 O245 2.055 . S
Co237 O248 2.039 1_554 S
Co237 N251 2.140 . S
C238 O239 1.227 . S
C238 O248 1.265 . S
O239 C238 1.227 . S
N240 Co237 2.121 . S
N240 C242 1.375 . S
N240 C243 1.313 . S
C241 C242 1.338 . S
C241 N244 1.377 . S
C241 H261 0.930 . S
C242 N240 1.375 . S
C242 C241 1.338 . S
C242 H246 0.931 . S
C243 N240 1.313 . S
C243 N244 1.344 . S
C243 H247 0.930 . S
N244 C241 1.377 . S
N244 C243 1.344 . S
O245 Co237 2.055 . S
O245 C249 1.253 . S
H246 C242 0.931 . S
H247 C243 0.930 . S
O248 Co237 2.039 1_556 S
O248 C238 1.265 . S
C249 O245 1.253 . S
C249 O250 1.227 . S
O250 C249 1.227 . S
N251 Co237 2.140 . S
N251 C254 1.346 1_554 S
N251 C255 1.345 . S
C252 C253 1.387 1_554 S
C252 C256 1.391 . S
C253 C252 1.387 1_556 S
C253 C254 1.369 . S
C253 H262 0.929 . S
C254 N251 1.346 1_556 S
C254 C253 1.369 . S
C254 H257 0.928 . S
C255 N251 1.345 . S
C255 C256 1.371 . S
C255 H258 0.931 . S
C256 C252 1.391 . S
C256 C255 1.371 . S
C256 H263 0.930 . S
H257 C254 0.928 . S
H258 C255 0.931 . S
H259 C235 0.930 . S
H260 C232 0.930 . S
H261 C241 0.930 . S
H262 C253 0.929 . S
H263 C256 0.930 . S
H264 C276 0.930 . S
H265 C278 0.930 . S
H266 C279 0.930 . S
H267 C283 0.959 . S
H268 C283 0.959 . S
H269 C283 0.961 . S
H270 C284 0.960 . S
H271 C284 0.961 . S
H272 C284 0.959 . S
H273 C287 0.929 . S
H274 C288 0.931 . S
H275 C290 0.930 . S
C276 H264 0.930 . S
C276 C277 1.399 . S
C276 C281 1.399 . S
C277 C276 1.399 . S
C277 C278 1.376 1_554 S
C278 H265 0.930 . S
C278 C277 1.376 1_556 S
C278 C279 1.388 . S
C279 H266 0.930 . S
C279 C278 1.388 . S
C279 C280 1.390 1_556 S
C280 C279 1.390 1_554 S
C280 C281 1.394 . S
C280 C286 1.465 . S
C281 C276 1.399 . S
C281 C280 1.394 . S
C281 C282 1.516 . S
C282 C281 1.516 . S
C282 C283 1.502 . S
C282 C284 1.561 . S
C282 C285 1.526 . S
C283 H267 0.959 . S
C283 H268 0.959 . S
C283 H269 0.961 . S
C283 C282 1.502 . S
C284 H270 0.960 . S
C284 H271 0.961 . S
C284 H272 0.959 . S
C284 C282 1.561 . S
C285 C282 1.526 . S
C285 C286 1.396 . S
C285 C290 1.390 . S
C286 C280 1.465 . S
C286 C285 1.396 . S
C286 C287 1.399 1_554 S
C287 H273 0.929 . S
C287 C286 1.399 1_556 S
C287 C288 1.385 . S
C288 H274 0.931 . S
C288 C287 1.385 . S
C288 C289 1.389 1_556 S
C289 C288 1.389 1_554 S
C289 C290 1.387 . S
C290 H275 0.930 . S
C290 C285 1.390 . S
C290 C289 1.387 . S
H291 C303 0.930 . S
H292 C305 0.930 . S
H293 C306 0.930 . S
H294 C310 0.959 . S
H295 C310 0.959 . S
H296 C310 0.991 . S
H297 C311 0.960 . S
H298 C311 0.961 . S
H299 C311 0.959 . S
H300 C314 0.929 . S
H301 C315 0.931 . S
H302 C317 0.930 . S
C303 H291 0.930 . S
C303 C304 1.399 . S
C303 C308 1.399 . S
C304 C303 1.399 . S
C304 C305 1.376 . S
C305 H292 0.930 . S
C305 C304 1.376 . S
C305 C306 1.388 . S
C306 H293 0.930 . S
C306 C305 1.388 . S
C306 C307 1.390 . S
C307 C306 1.390 . S
C307 C308 1.394 . S
C307 C313 1.465 1_545 S
C308 C303 1.399 . S
C308 C307 1.394 . S
C308 C309 1.516 . S
C309 C308 1.516 . S
C309 C310 1.502 1_545 S
C309 C311 1.561 . S
C309 C312 1.526 1_545 S
C310 H294 0.959 . S
C310 H295 0.959 . S
C310 H296 0.991 . S
C310 C309 1.502 1_565 S
C311 H297 0.960 . S
C311 H298 0.961 . S
C311 H299 0.959 . S
C311 C309 1.561 . S
C312 C309 1.526 1_565 S
C312 C313 1.396 . S
C312 C317 1.390 . S
C313 C307 1.465 1_565 S
C313 C312 1.396 . S
C313 C314 1.399 . S
C314 H300 0.929 . S
C314 C313 1.399 . S
C314 C315 1.385 . S
C315 H301 0.931 . S
C315 C314 1.385 . S
C315 C316 1.389 . S
C316 C315 1.389 . S
C316 C317 1.387 . S
C317 H302 0.930 . S
C317 C312 1.390 . S
C317 C316 1.387 . S
H318 C330 0.930 . S
H319 C332 0.930 . S
H320 C333 0.929 . S
H321 C337 0.959 . S
H322 C337 0.959 . S
H323 C337 0.961 . S
H324 C338 0.960 . S
H325 C338 0.961 1_545 S
H326 C338 0.959 . S
H327 C341 0.929 1_565 S
H328 C342 0.931 . S
H329 C344 0.930 . S
C330 H318 0.930 . S
C330 C331 1.399 . S
C330 C335 1.399 . S
C331 C330 1.399 . S
C331 C332 1.376 . S
C332 H319 0.930 . S
C332 C331 1.376 . S
C332 C333 1.388 . S
C333 H320 0.929 . S
C333 C332 1.388 . S
C333 C334 1.388 1_655 S
C334 C333 1.388 1_455 S
C334 C335 1.390 1_455 S
C334 C340 1.471 . S
C335 C330 1.399 . S
C335 C334 1.390 1_655 S
C335 C336 1.516 1_665 S
C336 C335 1.516 1_445 S
C336 C337 1.502 1_455 S
C336 C338 1.561 1_545 S
C336 C339 1.526 . S
C337 H321 0.959 . S
C337 H322 0.959 . S
C337 H323 0.961 . S
C337 C336 1.502 1_655 S
C338 H324 0.960 . S
C338 H325 0.961 1_565 S
C338 H326 0.959 . S
C338 C336 1.561 1_565 S
C339 C336 1.526 . S
C339 C340 1.396 1_545 S
C339 C344 1.390 . S
C340 C334 1.471 . S
C340 C339 1.396 1_565 S
C340 C341 1.399 1_565 S
C341 H327 0.929 1_545 S
C341 C340 1.399 1_545 S
C341 C342 1.385 . S
C342 H328 0.931 . S
C342 C341 1.385 . S
C342 C343 1.389 . S
C343 C342 1.389 . S
C343 C344 1.387 . S
C344 H329 0.930 . S
C344 C339 1.390 . S
C344 C343 1.387 . S
H345 C357 0.930 . S
H346 C359 0.930 . S
H347 C360 0.930 . S
H348 C364 0.959 . S
H349 C364 0.959 1_554 S
H350 C364 0.961 1_554 S
H351 C365 0.960 . S
H352 C365 0.961 1_655 S
H353 C365 0.959 1_556 S
H354 C368 0.929 . S
H355 C369 0.931 . S
H356 C371 0.930 . S
C357 H345 0.930 . S
C357 C358 1.399 . S
C357 C362 1.399 . S
C358 C357 1.399 . S
C358 C359 1.376 . S
C359 H346 0.930 . S
C359 C358 1.376 . S
C359 C360 1.388 . S
C360 H347 0.930 . S
C360 C359 1.388 . S
C360 C361 1.390 . S
C361 C360 1.390 . S
C361 C362 1.394 . S
C361 C367 1.465 1_455 S
C362 C357 1.399 . S
C362 C361 1.394 . S
C362 C363 1.516 1_455 S
C363 C362 1.516 1_655 S
C363 C364 1.502 . S
C363 C365 1.561 1_656 S
C363 C366 1.526 . S
C364 H348 0.959 . S
C364 H349 0.959 1_556 S
C364 H350 0.961 1_556 S
C364 C363 1.502 . S
C365 H351 0.960 . S
C365 H352 0.961 1_455 S
C365 H353 0.959 1_554 S
C365 C363 1.561 1_454 S
C366 C363 1.526 . S
C366 C367 1.396 . S
C366 C371 1.390 . S
C367 C361 1.465 1_655 S
C367 C366 1.396 . S
C367 C368 1.399 . S
C368 H354 0.929 . S
C368 C367 1.399 . S
C368 C369 1.385 . S
C369 H355 0.931 . S
C369 C368 1.385 . S
C369 C370 1.389 . S
C370 C369 1.389 . S
C370 C371 1.387 . S
C371 H356 0.930 . S
C371 C366 1.390 . S
C371 C370 1.387 . S
H372 C384 0.930 . S
H373 C386 0.930 . S
H374 C387 0.930 . S
H375 C391 0.959 . S
H376 C391 0.959 . S
H377 C391 0.961 . S
H378 C392 0.960 . S
H379 C392 0.961 . S
H380 C392 0.959 . S
H381 C395 0.929 . S
H382 C396 0.931 . S
H383 C398 0.930 . S
C384 H372 0.930 . S
C384 C385 1.399 . S
C384 C389 1.399 . S
C385 C384 1.399 . S
C385 C386 1.376 . S
C386 H373 0.930 . S
C386 C385 1.376 . S
C386 C387 1.388 . S
C387 H374 0.930 . S
C387 C386 1.388 . S
C387 C388 1.390 . S
C388 C387 1.390 . S
C388 C389 1.394 . S
C388 C394 1.465 . S
C389 C384 1.399 . S
C389 C388 1.394 . S
C389 C390 1.516 . S
C390 C389 1.516 . S
C390 C391 1.502 . S
C390 C392 1.561 . S
C390 C393 1.526 . S
C391 H375 0.959 . S
C391 H376 0.959 . S
C391 H377 0.961 . S
C391 C390 1.502 . S
C392 H378 0.960 . S
C392 H379 0.961 . S
C392 H380 0.959 . S
C392 C390 1.561 . S
C393 C390 1.526 . S
C393 C394 1.396 . S
C393 C398 1.390 . S
C394 C388 1.465 . S
C394 C393 1.396 . S
C394 C395 1.399 . S
C395 H381 0.929 . S
C395 C394 1.399 . S
C395 C396 1.385 . S
C396 H382 0.931 . S
C396 C395 1.385 . S
C396 C397 1.389 . S
C397 C396 1.389 . S
C397 C398 1.387 . S
C398 H383 0.930 . S
C398 C393 1.390 . S
C398 C397 1.387 . S
H399 C411 0.930 . S
H400 C413 0.930 . S
H401 C414 0.930 . S
H402 C418 0.959 . S
H403 C418 0.959 . S
H404 C418 0.961 . S
H405 C419 0.960 . S
H406 C419 0.961 . S
H407 C419 0.959 . S
H408 C422 0.929 . S
H409 C423 0.931 . S
H410 C425 0.930 . S
C411 H399 0.930 . S
C411 C412 1.399 1_556 S
C411 C416 1.399 . S
C412 C411 1.399 1_554 S
C412 C413 1.376 . S
C413 H400 0.930 . S
C413 C412 1.376 . S
C413 C414 1.388 1_554 S
C414 H401 0.930 . S
C414 C413 1.388 1_556 S
C414 C415 1.390 . S
C415 C414 1.390 . S
C415 C416 1.394 . S
C415 C421 1.465 . S
C416 C411 1.399 . S
C416 C415 1.394 . S
C416 C417 1.516 . S
C417 C416 1.516 . S
C417 C418 1.502 . S
C417 C419 1.561 . S
C417 C420 1.526 . S
C418 H402 0.959 . S
C418 H403 0.959 . S
C418 H404 0.961 . S
C418 C417 1.502 . S
C419 H405 0.960 . S
C419 H406 0.961 . S
C419 H407 0.959 . S
C419 C417 1.561 . S
C420 C417 1.526 . S
C420 C421 1.396 . S
C420 C425 1.390 . S
C421 C415 1.465 . S
C421 C420 1.396 . S
C421 C422 1.399 . S
C422 H408 0.929 . S
C422 C421 1.399 . S
C422 C423 1.385 . S
C423 H409 0.931 . S
C423 C422 1.385 . S
C423 C424 1.389 . S
C424 C423 1.389 . S
C424 C425 1.387 . S
C425 H410 0.930 . S
C425 C420 1.390 . S
C425 C424 1.387 . S
H426 C438 0.930 . S
H427 C440 0.930 . S
H428 C441 0.930 . S
H429 C445 0.960 1_556 S
H430 C445 0.959 . S
H431 C445 0.961 1_556 S
H432 C446 0.960 1_556 S
H433 C446 0.961 . S
H434 C446 0.959 . S
H435 C449 0.929 . S
H436 C450 0.931 . S
H437 C452 0.930 . S
C438 H426 0.930 . S
C438 C439 1.399 . S
C438 C443 1.399 . S
C439 C438 1.399 . S
C439 C440 1.376 . S
C440 H427 0.930 . S
C440 C439 1.376 . S
C440 C441 1.388 . S
C441 H428 0.930 . S
C441 C440 1.388 . S
C441 C442 1.390 . S
C442 C441 1.390 . S
C442 C443 1.394 . S
C442 C448 1.465 1_556 S
C443 C438 1.399 . S
C443 C442 1.394 . S
C443 C444 1.516 1_556 S
C444 C443 1.516 1_554 S
C444 C445 1.502 . S
C444 C446 1.561 . S
C444 C447 1.526 . S
C445 H429 0.960 1_554 S
C445 H430 0.959 . S
C445 H431 0.961 1_554 S
C445 C444 1.502 . S
C446 H432 0.960 1_554 S
C446 H433 0.961 . S
C446 H434 0.959 . S
C446 C444 1.561 . S
C447 C444 1.526 . S
C447 C448 1.396 . S
C447 C452 1.390 . S
C448 C442 1.465 1_554 S
C448 C447 1.396 . S
C448 C449 1.399 . S
C449 H435 0.929 . S
C449 C448 1.399 . S
C449 C450 1.385 . S
C450 H436 0.931 . S
C450 C449 1.385 . S
C450 C451 1.389 . S
C451 C450 1.389 . S
C451 C452 1.387 . S
C452 H437 0.930 . S
C452 C447 1.390 . S
C452 C451 1.387 . S
H453 C465 0.930 . S
H454 C467 0.930 . S
H455 C468 0.930 . S
H456 C472 0.959 . S
H457 C472 0.959 . S
H458 C472 0.961 . S
H459 C473 0.960 . S
H460 C473 0.961 . S
H461 C473 0.959 . S
H462 C476 0.929 . S
H463 C477 0.931 . S
H464 C479 0.930 . S
C465 H453 0.930 . S
C465 C466 1.399 . S
C465 C470 1.399 . S
C466 C465 1.399 . S
C466 C467 1.376 . S
C467 H454 0.930 . S
C467 C466 1.376 . S
C467 C468 1.388 . S
C468 H455 0.930 . S
C468 C467 1.388 . S
C468 C469 1.390 . S
C469 C468 1.390 . S
C469 C470 1.394 . S
C469 C475 1.465 . S
C470 C465 1.399 . S
C470 C469 1.394 . S
C470 C471 1.516 . S
C471 C470 1.516 . S
C471 C472 1.502 . S
C471 C473 1.561 . S
C471 C474 1.526 . S
C472 H456 0.959 . S
C472 H457 0.959 . S
C472 H458 0.961 . S
C472 C471 1.502 . S
C473 H459 0.960 . S
C473 H460 0.961 . S
C473 H461 0.959 . S
C473 C471 1.561 . S
C474 C471 1.526 . S
C474 C475 1.396 . S
C474 C479 1.390 . S
C475 C469 1.465 . S
C475 C474 1.396 . S
C475 C476 1.399 . S
C476 H462 0.929 . S
C476 C475 1.399 . S
C476 C477 1.385 . S
C477 H463 0.931 . S
C477 C476 1.385 . S
C477 C478 1.389 . S
C478 C477 1.389 . S
C478 C479 1.387 . S
C479 H464 0.930 . S
C479 C474 1.390 . S
C479 C478 1.387 . S
H480 C492 0.930 . S
H481 C494 0.930 . S
H482 C495 0.930 . S
H483 C499 0.959 . S
H484 C499 0.959 . S
H485 C499 0.961 . S
H486 C500 0.960 . S
H487 C500 0.961 . S
H488 C500 0.959 . S
H489 C503 0.929 . S
H490 C504 0.931 . S
H491 C506 0.930 . S
C492 H480 0.930 . S
C492 C493 1.399 1_556 S
C492 C497 1.399 . S
C493 C492 1.399 1_554 S
C493 C494 1.376 . S
C494 H481 0.930 . S
C494 C493 1.376 . S
C494 C495 1.388 1_554 S
C495 H482 0.930 . S
C495 C494 1.388 1_556 S
C495 C496 1.390 . S
C496 C495 1.390 . S
C496 C497 1.394 . S
C496 C502 1.465 . S
C497 C492 1.399 . S
C497 C496 1.394 . S
C497 C498 1.516 . S
C498 C497 1.516 . S
C498 C499 1.502 . S
C498 C500 1.561 . S
C498 C501 1.526 . S
C499 H483 0.959 . S
C499 H484 0.959 . S
C499 H485 0.961 . S
C499 C498 1.502 . S
C500 H486 0.960 . S
C500 H487 0.961 . S
C500 H488 0.959 . S
C500 C498 1.561 . S
C501 C498 1.526 . S
C501 C502 1.396 . S
C501 C506 1.390 . S
C502 C496 1.465 . S
C502 C501 1.396 . S
C502 C503 1.399 . S
C503 H489 0.929 . S
C503 C502 1.399 . S
C503 C504 1.385 . S
C504 H490 0.931 . S
C504 C503 1.385 . S
C504 C505 1.389 . S
C505 C504 1.389 . S
C505 C506 1.387 . S
C506 H491 0.930 . S
C506 C501 1.390 . S
C506 C505 1.387 . S
H507 C519 0.930 . S
H508 C521 0.930 . S
H509 C522 0.930 . S
H510 C526 0.959 . S
H511 C526 0.959 . S
H512 C526 0.961 . S
H513 C527 0.960 . S
H514 C527 0.961 . S
H515 C527 0.959 . S
H516 C530 0.929 . S
H517 C531 0.931 . S
H518 C533 0.930 . S
C519 H507 0.930 . S
C519 C520 1.399 . S
C519 C524 1.399 . S
C520 C519 1.399 . S
C520 C521 1.376 . S
C521 H508 0.930 . S
C521 C520 1.376 . S
C521 C522 1.388 . S
C522 H509 0.930 . S
C522 C521 1.388 . S
C522 C523 1.390 . S
C523 C522 1.390 . S
C523 C524 1.394 . S
C523 C529 1.465 . S
C524 C519 1.399 . S
C524 C523 1.394 . S
C524 C525 1.516 . S
C525 C524 1.516 . S
C525 C526 1.502 . S
C525 C527 1.561 . S
C525 C528 1.526 . S
C526 H510 0.959 . S
C526 H511 0.959 . S
C526 H512 0.961 . S
C526 C525 1.502 . S
C527 H513 0.960 . S
C527 H514 0.961 . S
C527 H515 0.959 . S
C527 C525 1.561 . S
C528 C525 1.526 . S
C528 C529 1.396 . S
C528 C533 1.390 1_554 S
C529 C523 1.465 . S
C529 C528 1.396 . S
C529 C530 1.399 1_554 S
C530 H516 0.929 . S
C530 C529 1.399 1_556 S
C530 C531 1.385 . S
C531 H517 0.931 . S
C531 C530 1.385 . S
C531 C532 1.389 . S
C532 C531 1.389 . S
C532 C533 1.387 . S
C533 H518 0.930 . S
C533 C528 1.390 1_556 S
C533 C532 1.387 . S
H534 C546 0.930 . S
H535 C548 0.930 . S
H536 C549 0.930 . S
H537 C553 0.959 . S
H538 C553 0.959 . S
H539 C553 0.961 . S
H540 C554 0.960 . S
H541 C554 0.961 . S
H542 C554 0.959 . S
H543 C557 0.929 . S
H544 C558 0.931 . S
H545 C560 0.930 . S
C546 H534 0.930 . S
C546 C547 1.399 . S
C546 C551 1.399 . S
C547 C546 1.399 . S
C547 C548 1.376 . S
C548 H535 0.930 . S
C548 C547 1.376 . S
C548 C549 1.388 . S
C549 H536 0.930 . S
C549 C548 1.388 . S
C549 C550 1.390 . S
C550 C549 1.390 . S
C550 C551 1.394 . S
C550 C556 1.465 . S
C551 C546 1.399 . S
C551 C550 1.394 . S
C551 C552 1.516 . S
C552 C551 1.516 . S
C552 C553 1.502 . S
C552 C554 1.561 . S
C552 C555 1.526 . S
C553 H537 0.959 . S
C553 H538 0.959 . S
C553 H539 0.961 . S
C553 C552 1.502 . S
C554 H540 0.960 . S
C554 H541 0.961 . S
C554 H542 0.959 . S
C554 C552 1.561 . S
C555 C552 1.526 . S
C555 C556 1.396 . S
C555 C560 1.390 . S
C556 C550 1.465 . S
C556 C555 1.396 . S
C556 C557 1.399 . S
C557 H543 0.929 . S
C557 C556 1.399 . S
C557 C558 1.385 . S
C558 H544 0.931 . S
C558 C557 1.385 . S
C558 C559 1.389 . S
C559 C558 1.389 . S
C559 C560 1.387 . S
C560 H545 0.930 . S
C560 C555 1.390 . S
C560 C559 1.387 . S
H561 C573 0.930 . S
H562 C575 0.930 . S
H563 C576 0.930 . S
H564 C580 0.959 . S
H565 C580 0.959 . S
H566 C580 0.961 . S
H567 C581 0.960 . S
H568 C581 0.961 . S
H569 C581 0.959 . S
H570 C584 0.929 . S
H571 C585 0.931 . S
H572 C587 0.930 . S
C573 H561 0.930 . S
C573 C574 1.399 . S
C573 C578 1.399 . S
C574 C573 1.399 . S
C574 C575 1.376 . S
C575 H562 0.930 . S
C575 C574 1.376 . S
C575 C576 1.388 . S
C576 H563 0.930 . S
C576 C575 1.388 . S
C576 C577 1.390 . S
C577 C576 1.390 . S
C577 C578 1.394 . S
C577 C583 1.465 . S
C578 C573 1.399 . S
C578 C577 1.394 . S
C578 C579 1.516 . S
C579 C578 1.516 . S
C579 C580 1.502 . S
C579 C581 1.561 . S
C579 C582 1.526 . S
C580 H564 0.959 . S
C580 H565 0.959 . S
C580 H566 0.961 . S
C580 C579 1.502 . S
C581 H567 0.960 . S
C581 H568 0.961 . S
C581 H569 0.959 . S
C581 C579 1.561 . S
C582 C579 1.526 . S
C582 C583 1.396 . S
C582 C587 1.390 . S
C583 C577 1.465 . S
C583 C582 1.396 . S
C583 C584 1.399 . S
C584 H570 0.929 . S
C584 C583 1.399 . S
C584 C585 1.385 . S
C585 H571 0.931 . S
C585 C584 1.385 . S
C585 C586 1.389 . S
C586 C585 1.389 . S
C586 C587 1.387 . S
C587 H572 0.930 . S
C587 C582 1.390 . S
C587 C586 1.387 . S
H588 C600 0.930 . S
H589 C602 0.930 . S
H590 C603 0.930 1_554 S
H591 C607 0.959 . S
H592 C607 0.959 . S
H593 C607 0.961 . S
H594 C608 0.960 . S
H595 C608 0.961 . S
H596 C608 0.959 . S
H597 C611 0.929 . S
H598 C612 0.931 . S
H599 C614 0.930 . S
C600 H588 0.930 . S
C600 C601 1.399 . S
C600 C605 1.399 . S
C601 C600 1.399 . S
C601 C602 1.376 . S
C602 H589 0.930 . S
C602 C601 1.376 . S
C602 C603 1.388 . S
C603 H590 0.930 1_556 S
C603 C602 1.388 . S
C603 C604 1.390 . S
C604 C603 1.390 . S
C604 C605 1.394 . S
C604 C610 1.465 . S
C605 C600 1.399 . S
C605 C604 1.394 . S
C605 C606 1.516 . S
C606 C605 1.516 . S
C606 C607 1.502 . S
C606 C608 1.561 . S
C606 C609 1.526 . S
C607 H591 0.959 . S
C607 H592 0.959 . S
C607 H593 0.961 . S
C607 C606 1.502 . S
C608 H594 0.960 . S
C608 H595 0.961 . S
C608 H596 0.959 . S
C608 C606 1.561 . S
C609 C606 1.526 . S
C609 C610 1.396 . S
C609 C614 1.390 . S
C610 C604 1.465 . S
C610 C609 1.396 . S
C610 C611 1.399 1_556 S
C611 H597 0.929 . S
C611 C610 1.399 1_554 S
C611 C612 1.385 . S
C612 H598 0.931 . S
C612 C611 1.385 . S
C612 C613 1.389 . S
C613 C612 1.389 . S
C613 C614 1.387 1_554 S
C614 H599 0.930 . S
C614 C609 1.390 . S
C614 C613 1.387 1_556 S
H615 C627 0.930 . S
H616 C629 0.930 . S
H617 C630 0.930 . S
H618 C634 0.959 . S
H619 C634 0.959 1_556 S
H620 C634 0.961 . S
H621 C635 0.960 . S
H622 C635 0.961 . S
H623 C635 0.959 . S
H624 C638 0.929 . S
H625 C639 0.931 . S
H626 C641 0.930 . S
C627 H615 0.930 . S
C627 C628 1.399 . S
C627 C632 1.399 . S
C628 C627 1.399 . S
C628 C629 1.376 . S
C629 H616 0.930 . S
C629 C628 1.376 . S
C629 C630 1.388 . S
C630 H617 0.930 . S
C630 C629 1.388 . S
C630 C631 1.390 . S
C631 C630 1.390 . S
C631 C632 1.394 . S
C631 C637 1.465 . S
C632 C627 1.399 . S
C632 C631 1.394 . S
C632 C633 1.516 . S
C633 C632 1.516 . S
C633 C634 1.502 . S
C633 C635 1.561 . S
C633 C636 1.526 . S
C634 H618 0.959 . S
C634 H619 0.959 1_554 S
C634 H620 0.961 . S
C634 C633 1.502 . S
C635 H621 0.960 . S
C635 H622 0.961 . S
C635 H623 0.959 . S
C635 C633 1.561 . S
C636 C633 1.526 . S
C636 C637 1.396 . S
C636 C641 1.390 . S
C637 C631 1.465 . S
C637 C636 1.396 . S
C637 C638 1.399 . S
C638 H624 0.929 . S
C638 C637 1.399 . S
C638 C639 1.385 . S
C639 H625 0.931 . S
C639 C638 1.385 . S
C639 C640 1.389 . S
C640 C639 1.389 . S
C640 C641 1.387 . S
C641 H626 0.930 . S
C641 C636 1.390 . S
C641 C640 1.387 . S
H642 C654 0.930 . S
H643 C656 0.930 . S
H644 C657 0.930 . S
H645 C661 0.959 . S
H646 C661 0.959 . S
H647 C661 0.961 . S
H648 C662 0.960 . S
H649 C662 0.961 . S
H650 C662 0.959 . S
H651 C665 0.929 . S
H652 C666 0.931 . S
H653 C668 0.930 . S
C654 H642 0.930 . S
C654 C655 1.399 . S
C654 C659 1.399 . S
C655 C654 1.399 . S
C655 C656 1.376 . S
C656 H643 0.930 . S
C656 C655 1.376 . S
C656 C657 1.388 . S
C657 H644 0.930 . S
C657 C656 1.388 . S
C657 C658 1.390 . S
C658 C657 1.390 . S
C658 C659 1.394 . S
C658 C664 1.465 . S
C659 C654 1.399 . S
C659 C658 1.394 . S
C659 C660 1.516 . S
C660 C659 1.516 . S
C660 C661 1.502 . S
C660 C662 1.561 . S
C660 C663 1.526 . S
C661 H645 0.959 . S
C661 H646 0.959 . S
C661 H647 0.961 . S
C661 C660 1.502 . S
C662 H648 0.960 . S
C662 H649 0.961 . S
C662 H650 0.959 . S
C662 C660 1.561 . S
C663 C660 1.526 . S
C663 C664 1.396 . S
C663 C668 1.390 . S
C664 C658 1.465 . S
C664 C663 1.396 . S
C664 C665 1.399 . S
C665 H651 0.929 . S
C665 C664 1.399 . S
C665 C666 1.385 . S
C666 H652 0.931 . S
C666 C665 1.385 . S
C666 C667 1.389 . S
C667 C666 1.389 . S
C667 C668 1.387 . S
C668 H653 0.930 . S
C668 C663 1.390 . S
C668 C667 1.387 . S
H669 C681 0.930 . S
H670 C683 0.930 . S
H671 C684 0.930 . S
H672 C688 0.959 . S
H673 C688 0.959 . S
H674 C688 0.961 . S
H675 C689 0.960 . S
H676 C689 0.961 . S
H677 C689 0.959 . S
H678 C692 0.929 . S
H679 C693 0.931 . S
H680 C695 0.930 . S
C681 H669 0.930 . S
C681 C682 1.399 . S
C681 C686 1.399 . S
C682 C681 1.399 . S
C682 C683 1.376 . S
C683 H670 0.930 . S
C683 C682 1.376 . S
C683 C684 1.388 . S
C684 H671 0.930 . S
C684 C683 1.388 . S
C684 C685 1.390 . S
C685 C684 1.390 . S
C685 C686 1.394 . S
C685 C691 1.465 . S
C686 C681 1.399 . S
C686 C685 1.394 . S
C686 C687 1.516 . S
C687 C686 1.516 . S
C687 C688 1.502 . S
C687 C689 1.561 . S
C687 C690 1.526 . S
C688 H672 0.959 . S
C688 H673 0.959 . S
C688 H674 0.961 . S
C688 C687 1.502 . S
C689 H675 0.960 . S
C689 H676 0.961 . S
C689 H677 0.959 . S
C689 C687 1.561 . S
C690 C687 1.526 . S
C690 C691 1.396 . S
C690 C695 1.390 . S
C691 C685 1.465 . S
C691 C690 1.396 . S
C691 C692 1.399 . S
C692 H678 0.929 . S
C692 C691 1.399 . S
C692 C693 1.385 . S
C693 H679 0.931 . S
C693 C692 1.385 . S
C693 C694 1.389 . S
C694 C693 1.389 . S
C694 C695 1.387 . S
C695 H680 0.930 . S
C695 C690 1.390 . S
C695 C694 1.387 . S
H696 C708 0.930 . S
H697 C710 0.930 . S
H698 C711 0.930 . S
H699 C715 0.959 . S
H700 C715 0.959 . S
H701 C715 0.961 . S
H702 C716 0.960 . S
H703 C716 0.961 . S
H704 C716 0.959 . S
H705 C719 0.929 . S
H706 C720 0.931 . S
H707 C722 0.930 . S
C708 H696 0.930 . S
C708 C709 1.399 . S
C708 C713 1.399 . S
C709 C708 1.399 . S
C709 C710 1.376 . S
C710 H697 0.930 . S
C710 C709 1.376 . S
C710 C711 1.388 . S
C711 H698 0.930 . S
C711 C710 1.388 . S
C711 C712 1.390 . S
C712 C711 1.390 . S
C712 C713 1.394 . S
C712 C718 1.465 . S
C713 C708 1.399 . S
C713 C712 1.394 . S
C713 C714 1.516 . S
C714 C713 1.516 . S
C714 C715 1.502 . S
C714 C716 1.561 . S
C714 C717 1.526 . S
C715 H699 0.959 . S
C715 H700 0.959 . S
C715 H701 0.961 . S
C715 C714 1.502 . S
C716 H702 0.960 . S
C716 H703 0.961 . S
C716 H704 0.959 . S
C716 C714 1.561 . S
C717 C714 1.526 . S
C717 C718 1.396 . S
C717 C722 1.390 . S
C718 C712 1.465 . S
C718 C717 1.396 . S
C718 C719 1.399 . S
C719 H705 0.929 . S
C719 C718 1.399 . S
C719 C720 1.385 . S
C720 H706 0.931 . S
C720 C719 1.385 . S
C720 C721 1.389 . S
C721 C720 1.389 . S
C721 C722 1.387 . S
C722 H707 0.930 . S
C722 C717 1.390 . S
C722 C721 1.387 . S
H723 C735 0.930 . S
H724 C737 0.930 . S
H725 C738 0.930 . S
H726 C742 0.959 . S
H727 C742 0.959 . S
H728 C742 0.961 . S
H729 C743 0.960 . S
H730 C743 0.961 . S
H731 C743 0.959 . S
H732 C746 0.929 . S
H733 C747 0.931 . S
H734 C749 0.930 . S
C735 H723 0.930 . S
C735 C736 1.399 . S
C735 C740 1.399 . S
C736 C735 1.399 . S
C736 C737 1.376 . S
C737 H724 0.930 . S
C737 C736 1.376 . S
C737 C738 1.388 . S
C738 H725 0.930 . S
C738 C737 1.388 . S
C738 C739 1.390 . S
C739 C738 1.390 . S
C739 C740 1.394 . S
C739 C745 1.465 . S
C740 C735 1.399 . S
C740 C739 1.394 . S
C740 C741 1.516 . S
C741 C740 1.516 . S
C741 C742 1.502 . S
C741 C743 1.561 . S
C741 C744 1.526 . S
C742 H726 0.959 . S
C742 H727 0.959 . S
C742 H728 0.961 . S
C742 C741 1.502 . S
C743 H729 0.960 . S
C743 H730 0.961 . S
C743 H731 0.959 . S
C743 C741 1.561 . S
C744 C741 1.526 . S
C744 C745 1.396 . S
C744 C749 1.390 . S
C745 C739 1.465 . S
C745 C744 1.396 . S
C745 C746 1.399 . S
C746 H732 0.929 . S
C746 C745 1.399 . S
C746 C747 1.385 . S
C747 H733 0.931 . S
C747 C746 1.385 . S
C747 C748 1.389 . S
C748 C747 1.389 . S
C748 C749 1.387 . S
C749 H734 0.930 . S
C749 C744 1.390 . S
C749 C748 1.387 . S
H750 C762 0.930 1_554 S
H751 C764 0.930 . S
H752 C765 0.930 . S
H753 C769 0.959 . S
H754 C769 0.959 . S
H755 C769 0.961 . S
H756 C770 0.960 . S
H757 C770 0.961 . S
H758 C770 0.959 . S
H759 C773 0.929 . S
H760 C774 0.931 . S
H761 C776 0.930 . S
C762 H750 0.930 1_556 S
C762 C763 1.399 . S
C762 C767 1.399 . S
C763 C762 1.399 . S
C763 C764 1.376 . S
C764 H751 0.930 . S
C764 C763 1.376 . S
C764 C765 1.388 . S
C765 H752 0.930 . S
C765 C764 1.388 . S
C765 C766 1.390 . S
C766 C765 1.390 . S
C766 C767 1.394 . S
C766 C772 1.465 . S
C767 C762 1.399 . S
C767 C766 1.394 . S
C767 C768 1.516 . S
C768 C767 1.516 . S
C768 C769 1.502 1_556 S
C768 C770 1.561 . S
C768 C771 1.526 . S
C769 H753 0.959 . S
C769 H754 0.959 . S
C769 H755 0.961 . S
C769 C768 1.502 1_554 S
C770 H756 0.960 . S
C770 H757 0.961 . S
C770 H758 0.959 . S
C770 C768 1.561 . S
C771 C768 1.526 . S
C771 C772 1.396 . S
C771 C776 1.390 . S
C772 C766 1.465 . S
C772 C771 1.396 . S
C772 C773 1.399 . S
C773 H759 0.929 . S
C773 C772 1.399 . S
C773 C774 1.385 . S
C774 H760 0.931 . S
C774 C773 1.385 . S
C774 C775 1.389 . S
C775 C774 1.389 . S
C775 C776 1.387 . S
C776 H761 0.930 . S
C776 C771 1.390 . S
C776 C775 1.387 . S
H777 C789 0.930 . S
H778 C791 0.930 . S
H779 C792 0.930 . S
H780 C796 0.959 . S
H781 C796 0.959 . S
H782 C796 0.961 . S
H783 C797 0.960 . S
H784 C797 0.961 . S
H785 C797 0.959 . S
H786 C800 0.929 . S
H787 C801 0.931 . S
H788 C803 0.930 . S
C789 H777 0.930 . S
C789 C790 1.399 . S
C789 C794 1.399 . S
C790 C789 1.399 . S
C790 C791 1.376 . S
C791 H778 0.930 . S
C791 C790 1.376 . S
C791 C792 1.388 . S
C792 H779 0.930 . S
C792 C791 1.388 . S
C792 C793 1.390 . S
C793 C792 1.390 . S
C793 C794 1.394 . S
C793 C799 1.465 . S
C794 C789 1.399 . S
C794 C793 1.394 . S
C794 C795 1.516 . S
C795 C794 1.516 . S
C795 C796 1.502 . S
C795 C797 1.561 . S
C795 C798 1.526 . S
C796 H780 0.959 . S
C796 H781 0.959 . S
C796 H782 0.961 . S
C796 C795 1.502 . S
C797 H783 0.960 . S
C797 H784 0.961 . S
C797 H785 0.959 . S
C797 C795 1.561 . S
C798 C795 1.526 . S
C798 C799 1.396 . S
C798 C803 1.390 . S
C799 C793 1.465 . S
C799 C798 1.396 . S
C799 C800 1.399 . S
C800 H786 0.929 . S
C800 C799 1.399 . S
C800 C801 1.385 . S
C801 H787 0.931 . S
C801 C800 1.385 . S
C801 C802 1.389 . S
C802 C801 1.389 . S
C802 C803 1.387 . S
C803 H788 0.930 . S
C803 C798 1.390 . S
C803 C802 1.387 . S
C277 C249 1.178 . S
C289 C18 1.158 . S
C304 C150 1.184 . S
C316 C51 1.181 . S
C331 C183 1.166 . S
C343 C84 1.176 . S
C358 C216 1.169 . S
C370 C117 1.174 . S
C385 N2 1.245 . S
C397 N13 1.311 . S
C412 N35 1.221 . S
C424 N46 1.308 . S
C439 N79 1.245 . S
C451 N68 1.321 . S
C466 N112 1.271 . S
C478 N101 1.340 . S
C493 N134 1.258 . S
C505 N145 1.345 . S
C520 N178 1.310 . S
C532 N167 1.262 . S
C547 N200 1.289 . S
C559 N211 1.236 . S
C574 N233 1.272 . S
C586 N244 1.303 . S
C601 C219 1.390 . S
C613 C21 1.395 . S
C628 C40 1.377 . S
C640 C252 1.348 . S
C655 C153 1.622 . S
C667 C73 1.615 . S
C682 C106 1.570 . S
C694 C172 1.600 . S
C709 C186 1.380 . S
C721 C54 1.397 . S
C736 C87 1.380 . S
C748 C205 1.389 . S
C763 C238 1.595 . S
C775 C120 1.642 . S
C790 C7 1.598 . S
C802 C139 1.606 . S
