# Generated by pormake.
# Topology uoo, (4)-cn, num edge types: 1
# Building blocks:
#     Node 0, Type 0, BuildingBlock: CEKHIL_clean_sbu_0, # of connection points: 4
#     Node 1, Type 0, BuildingBlock: CEKHIL_clean_sbu_0, # of connection points: 4
#     Node 2, Type 0, BuildingBlock: CEKHIL_clean_sbu_0, # of connection points: 4
#     Node 3, Type 0, BuildingBlock: CEKHIL_clean_sbu_0, # of connection points: 4
#     Node 4, Type 0, BuildingBlock: CEKHIL_clean_sbu_0, # of connection points: 4
#     Node 5, Type 0, BuildingBlock: CEKHIL_clean_sbu_0, # of connection points: 4
#     Edge 6, Type (0, 0), BuildingBlock: MIFKUJ_clean_linker_0, # of connection points: 2
#     Edge 7, Type (0, 0), BuildingBlock: MIFKUJ_clean_linker_0, # of connection points: 2
#     Edge 8, Type (0, 0), BuildingBlock: MIFKUJ_clean_linker_0, # of connection points: 2
#     Edge 9, Type (0, 0), BuildingBlock: MIFKUJ_clean_linker_0, # of connection points: 2
#     Edge 10, Type (0, 0), BuildingBlock: MIFKUJ_clean_linker_0, # of connection points: 2
#     Edge 11, Type (0, 0), BuildingBlock: MIFKUJ_clean_linker_0, # of connection points: 2
#     Edge 12, Type (0, 0), BuildingBlock: MIFKUJ_clean_linker_0, # of connection points: 2
#     Edge 13, Type (0, 0), BuildingBlock: MIFKUJ_clean_linker_0, # of connection points: 2
#     Edge 14, Type (0, 0), BuildingBlock: MIFKUJ_clean_linker_0, # of connection points: 2
#     Edge 15, Type (0, 0), BuildingBlock: MIFKUJ_clean_linker_0, # of connection points: 2
#     Edge 16, Type (0, 0), BuildingBlock: MIFKUJ_clean_linker_0, # of connection points: 2
#     Edge 17, Type (0, 0), BuildingBlock: MIFKUJ_clean_linker_0, # of connection points: 2
# Relax obj value: 0.247
# Max RMSD: 0.171
# Mean RMSD: 0.171
data_MOF--net-uoo--node1-CEKHIL_clean_sbu_0--edge1-MIFKUJ_clean_linker_0
_symmetry_space_group_name_H-M    P1
_symmetry_Int_Tables_number       1
_symmetry_cell_setting            triclinic
loop_
_symmetry_equiv_pos_as_xyz
'x, y, z'
_cell_length_a     31.363449
_cell_length_b     31.359277
_cell_length_c     50.581753
_cell_angle_alpha  90.081673
_cell_angle_beta   89.866571
_cell_angle_gamma 120.0324
loop_
_atom_site_label
_atom_site_type_symbol
_atom_site_fract_x
_atom_site_fract_y
_atom_site_fract_z
_atom_type_partial_charge
Co0 Co 0.14665 0.30339 -0.00715 0.0
O1 O 0.0835 0.29938 0.98919 0.0
O2 O 0.15094 0.36275 0.00601 0.0
C3 C 0.14865 0.27469 0.95254 0.0
O4 O 0.21811 0.32397 -0.00157 0.0
Co5 Co 0.16243 0.21379 0.9912 0.0
O6 O 0.23377 0.26371 0.98805 0.0
C7 C 0.11539 0.22997 0.0375 0.0
C8 C 0.10491 0.34325 -0.00046 0.0
C9 C 0.24827 0.30839 -0.00595 0.0
O10 O 0.1283 0.2733 0.02893 0.0
O11 O 0.12132 0.19848 0.02425 0.0
O12 O 0.16068 0.32056 0.95568 0.0
O13 O 0.13227 0.24705 0.97328 0.0
Co14 Co 0.84325 0.14538 0.32792 0.0
O15 O 0.78333 0.08214 0.32687 0.0
O16 O 0.79012 0.15125 0.34267 0.0
C17 C 0.86818 0.14388 0.28649 0.0
O18 O 0.89494 0.21725 0.33129 0.0
Co19 Co 0.94835 0.16128 0.32195 0.0
O20 O 0.96954 0.23237 0.31828 0.0
C21 C 0.8916 0.11743 0.37073 0.0
C22 C 0.76217 0.10487 0.33725 0.0
C23 C 0.94013 0.24716 0.32542 0.0
O24 O 0.85994 0.12978 0.3636 0.0
O25 O 0.92702 0.1226 0.35588 0.0
O26 O 0.83479 0.15605 0.29088 0.0
O27 O 0.88247 0.1294 0.30682 0.0
Co28 Co 0.69664 0.84179 0.65639 0.0
O29 O 0.70012 0.78189 0.65835 0.0
O30 O 0.63445 0.78858 0.66732 0.0
C31 C 0.73375 0.86822 0.61717 0.0
O32 O 0.67517 0.89253 0.65551 0.0
Co33 Co 0.78533 0.94791 0.65535 0.0
O34 O 0.73654 0.97039 0.65114 0.0
C35 C 0.76184 0.88777 0.70348 0.0
C36 C 0.65383 0.76069 0.66515 0.0
C37 C 0.6909 0.93864 0.6527 0.0
O38 O 0.71899 0.85779 0.69412 0.0
O39 O 0.7957 0.923 0.68999 0.0
O40 O 0.68773 0.83393 0.61832 0.0
O41 O 0.75691 0.88256 0.63941 0.0
Co42 Co 0.85861 0.69958 0.98875 0.0
O43 O 0.92307 0.70544 0.99015 0.0
O44 O 0.85227 0.63885 0.00055 0.0
C45 C 0.8662 0.73472 0.94917 0.0
O46 O 0.78567 0.6759 0.98844 0.0
Co47 Co 0.83827 0.78636 0.98696 0.0
O48 O 0.76847 0.73585 0.9801 0.0
C49 C 0.87268 0.764 0.03639 0.0
C50 C 0.89969 0.65981 -0.00187 0.0
C51 C 0.75506 0.69062 0.98341 0.0
O52 O 0.86588 0.72343 0.02626 0.0
O53 O 0.8673 0.7959 0.0233 0.0
O54 O 0.85593 0.68913 0.95074 0.0
O55 O 0.87592 0.75861 0.97123 0.0
Co56 Co 0.15799 0.85637 0.31741 0.0
O57 O 0.21694 0.92071 0.31899 0.0
O58 O 0.21358 0.84902 0.32497 0.0
C59 C 0.12603 0.86756 0.2802 0.0
O60 O 0.10844 0.78351 0.31624 0.0
Co61 Co 0.05088 0.83585 0.32101 0.0
O62 O 0.02999 0.76592 0.31346 0.0
C63 C 0.11406 0.8674 0.36841 0.0
C64 C 0.23998 0.8966 0.32369 0.0
C65 C 0.06231 0.75271 0.31365 0.0
O66 O 0.14611 0.86049 0.35617 0.0
O67 O 0.07573 0.86345 0.35716 0.0
O68 O 0.16125 0.85712 0.27901 0.0
O69 O 0.11436 0.87512 0.30356 0.0
Co70 Co 0.29952 0.15528 0.65363 0.0
O71 O 0.29575 0.21471 0.64923 0.0
O72 O 0.36053 0.21097 0.66369 0.0
C73 C 0.2661 0.11952 0.61496 0.0
O74 O 0.32115 0.10546 0.65983 0.0
Co75 Co 0.21166 0.04925 0.6569 0.0
O76 O 0.26123 0.02762 0.65358 0.0
C77 C 0.23401 0.11659 0.70208 0.0
C78 C 0.34112 0.23768 0.65765 0.0
C79 C 0.30621 0.05938 0.65768 0.0
O80 O 0.27414 0.14817 0.69067 0.0
O81 O 0.20247 0.07584 0.69138 0.0
O82 O 0.31198 0.15425 0.61614 0.0
O83 O 0.24079 0.11042 0.63657 0.0
H84 H 0.26784 0.20793 0.72263 0.0
H85 H 0.25085 0.22943 0.76609 0.0
H86 H 0.1611 0.07514 0.7853 0.0
H87 H 0.17619 0.05335 0.74107 0.0
H88 H 0.1182 0.12115 0.80284 0.0
H89 H 0.28142 0.14943 0.80942 0.0
H90 H 0.36834 0.18192 0.797 0.0
H91 H 0.39662 0.32987 0.80681 0.0
H92 H 0.30963 0.29837 0.81859 0.0
H93 H 0.12059 0.17955 0.9404 0.0
H94 H 0.13252 0.14777 0.89853 0.0
H95 H 0.20344 0.2944 0.86572 0.0
H96 H 0.19172 0.32653 0.90756 0.0
H97 H 0.25553 0.2453 0.85761 0.0
H98 H 0.08742 0.21254 0.84725 0.0
H99 H 0.0006 0.17688 0.8609 0.0
H100 H 0.98387 0.03237 0.86166 0.0
H101 H 0.07059 0.06718 0.84793 0.0
C102 C 0.24463 0.17852 0.73613 0.0
C103 C 0.22369 0.12893 0.72858 0.0
C104 C 0.23511 0.19087 0.76104 0.0
C105 C 0.20569 0.15391 0.77924 0.0
C106 C 0.18416 0.10428 0.77163 0.0
C107 C 0.19286 0.09187 0.74642 0.0
C108 C 0.19705 0.16748 0.80599 0.0
C109 C 0.14835 0.14767 0.81498 0.0
C110 C 0.23632 0.20233 0.82184 0.0
C111 C 0.2888 0.22148 0.81469 0.0
C112 C 0.30605 0.18891 0.80868 0.0
C113 C 0.35536 0.20716 0.80173 0.0
C114 C 0.38794 0.25793 0.80098 0.0
C115 C 0.37131 0.29056 0.80725 0.0
C116 C 0.32199 0.27252 0.81407 0.0
C117 C 0.1386 0.20501 0.92424 0.0
C118 C 0.15525 0.25553 0.92719 0.0
C119 C 0.14515 0.18674 0.90033 0.0
C120 C 0.16849 0.21872 0.87904 0.0
C121 C 0.18525 0.26918 0.88196 0.0
C122 C 0.17846 0.28744 0.90582 0.0
C123 C 0.17692 0.19997 0.85393 0.0
C124 C 0.22559 0.21859 0.84541 0.0
C125 C 0.13779 0.16348 0.83878 0.0
C126 C 0.08558 0.14252 0.84682 0.0
C127 C 0.06528 0.1732 0.85046 0.0
C128 C 0.01606 0.15312 0.85812 0.0
C129 C 0.98676 0.1024 0.86217 0.0
C130 C 0.00662 0.07165 0.85853 0.0
C131 C 0.05573 0.0915 0.8507 0.0
H132 H 0.94866 0.08691 0.86809 0.0
H133 H 0.42612 0.27199 0.79564 0.0
H134 H 0.83205 0.15188 0.23894 0.0
H135 H 0.86805 0.15771 0.19519 0.0
H136 H 0.99101 0.15431 0.23123 0.0
H137 H 0.95392 0.14597 0.27472 0.0
H138 H 0.94513 0.22234 0.17298 0.0
H139 H 0.04116 0.10583 0.19127 0.0
H140 H 0.02601 0.03167 0.21586 0.0
H141 H 0.87092 0.98056 0.21705 0.0
H142 H 0.88497 0.05401 0.19213 0.0
H143 H 0.13019 0.28991 0.07945 0.0
H144 H 0.08469 0.26843 0.12107 0.0
H145 H -0.00178 0.11736 0.09525 0.0
H146 H 0.04557 0.13832 0.05401 0.0
H147 H 0.01454 0.11782 0.14484 0.0
H148 H 0.95417 0.1997 0.09112 0.0
H149 H 0.96011 0.26547 0.06198 0.0
H150 H 0.02355 0.37011 0.12524 0.0
H151 H 0.01866 0.30512 0.15468 0.0
C152 C 0.86661 0.15208 0.23744 0.0
C153 C 0.89011 0.14824 0.26015 0.0
C154 C 0.88718 0.15546 0.21246 0.0
C155 C 0.93191 0.15567 0.20981 0.0
C156 C 0.95581 0.15279 0.23262 0.0
C157 C 0.93477 0.14844 0.25752 0.0
C158 C 0.95465 0.16092 0.18336 0.0
C159 C 0.96 0.19924 0.16681 0.0
C160 C 0.97301 0.13002 0.17488 0.0
C161 C 0.96423 0.08577 0.19003 0.0
C162 C 0.0038 0.07872 0.1967 0.0
C163 C 0.9954 0.03678 0.21069 0.0
C164 C 0.94756 0.00149 0.21806 0.0
C165 C 0.90798 0.00802 0.21141 0.0
C166 C 0.91615 0.04985 0.19739 0.0
C167 C 0.10182 0.25202 0.08279 0.0
C168 C 0.09105 0.21581 0.06349 0.0
C169 C 0.07563 0.23983 0.10649 0.0
C170 C 0.03709 0.19158 0.11096 0.0
C171 C 0.02759 0.1549 0.09214 0.0
C172 C 0.05463 0.16688 0.06863 0.0
C173 C 0.00609 0.17995 0.13499 0.0
C174 C -0.00078 0.14053 0.15101 0.0
C175 C 0.98453 0.20851 0.14248 0.0
C176 C 0.98634 0.24754 0.12507 0.0
C177 C 0.96955 0.23677 0.0988 0.0
C178 C 0.97276 0.27392 0.08222 0.0
C179 C 0.9923 0.32196 0.09173 0.0
C180 C 0.00845 0.33288 0.11789 0.0
C181 C 0.0054 0.29588 0.13455 0.0
H182 H 0.99487 0.35069 0.07884 0.0
H183 H 0.94116 0.96904 0.22888 0.0
H184 H 0.84741 0.12942 0.41434 0.0
H185 H 0.83216 0.08667 0.4568 0.0
H186 H 0.90488 0.00965 0.42848 0.0
H187 H 0.92165 0.05327 0.38614 0.0
H188 H 0.78974 0.95679 0.452 0.0
H189 H 0.96616 0.06367 0.46776 0.0
H190 H 0.0423 0.14462 0.46945 0.0
H191 H 0.97384 0.19705 0.52408 0.0
H192 H 0.89713 0.11649 0.5225 0.0
H193 H 0.74227 0.82553 0.57238 0.0
H194 H 0.78047 0.86647 0.5306 0.0
H195 H 0.81074 0.00587 0.56396 0.0
H196 H 0.77716 0.9655 0.60626 0.0
H197 H 0.88171 0.0241 0.53562 0.0
H198 H 0.70623 0.92586 0.51955 0.0
H199 H 0.62551 0.84939 0.51784 0.0
H200 H 0.684 0.78586 0.46374 0.0
H201 H 0.76518 0.86179 0.46535 0.0
C202 C 0.86072 0.10386 0.41727 0.0
C203 C 0.88568 0.09461 0.39696 0.0
C204 C 0.85213 0.07968 0.4415 0.0
C205 C 0.86769 0.04542 0.44561 0.0
C206 C 0.89308 0.03642 0.42559 0.0
C207 C 0.90263 0.06136 0.40151 0.0
C208 C 0.85377 0.01642 0.47018 0.0
C209 C 0.81015 0.97083 0.47028 0.0
C210 C 0.87985 0.03584 0.49391 0.0
C211 C 0.92579 0.08429 0.49476 0.0
C212 C 0.96719 0.09264 0.47989 0.0
C213 C 0.01049 0.13839 0.4809 0.0
C214 C 0.01285 0.17602 0.49678 0.0
C215 C 0.97194 0.16791 0.51175 0.0
C216 C 0.92859 0.12219 0.51084 0.0
C217 C 0.75755 0.86497 0.57064 0.0
C218 C 0.75673 0.89257 0.59223 0.0
C219 C 0.77896 0.88833 0.54676 0.0
C220 C 0.79744 0.93922 0.54375 0.0
C221 C 0.79689 0.96666 0.56563 0.0
C222 C 0.77741 0.94362 0.58978 0.0
C223 C 0.81662 0.96412 0.51788 0.0
C224 C 0.86125 0.00926 0.51744 0.0
C225 C 0.7907 0.94475 0.49386 0.0
C226 C 0.74185 0.89925 0.49279 0.0
C227 C 0.7019 0.89546 0.50741 0.0
C228 C 0.65608 0.85224 0.50644 0.0
C229 C 0.64968 0.81274 0.49076 0.0
C230 C 0.68903 0.81644 0.47592 0.0
C231 C 0.73493 0.85956 0.47683 0.0
H232 H 0.61419 0.7793 0.49005 0.0
H233 H 0.0464 0.2114 0.49755 0.0
H234 H 0.87067 0.8231 0.94282 0.0
H235 H 0.85317 0.85501 0.90284 0.0
H236 H 0.83175 0.72702 0.85958 0.0
H237 H 0.84764 0.69405 0.8998 0.0
H238 H 0.89226 0.88205 0.85613 0.0
H239 H 0.73831 0.692 0.81596 0.0
H240 H 0.67643 0.6113 0.83402 0.0
H241 H 0.6781 0.67921 0.90808 0.0
H242 H 0.73885 0.76043 0.89025 0.0
H243 H 0.84988 0.90415 0.72203 0.0
H244 H 0.86774 0.88425 0.76567 0.0
H245 H 0.71823 0.83559 0.79016 0.0
H246 H 0.69945 0.85232 0.74574 0.0
H247 H 0.73853 0.77409 0.80686 0.0
H248 H 0.82555 0.94879 0.81323 0.0
H249 H 0.88244 0.03482 0.80008 0.0
H250 H 0.00359 0.00752 0.8012 0.0
H251 H 0.9474 0.92123 0.81421 0.0
C252 C 0.86241 0.8018 0.92477 0.0
C253 C 0.85993 0.75579 0.92447 0.0
C254 C 0.85263 0.82022 0.90192 0.0
C255 C 0.84043 0.79306 0.87835 0.0
C256 C 0.84012 0.74811 0.87772 0.0
C257 C 0.84939 0.7294 0.90065 0.0
C258 C 0.82639 0.81091 0.85467 0.0
C259 C 0.85864 0.85857 0.84533 0.0
C260 C 0.78156 0.78091 0.84125 0.0
C261 C 0.74362 0.73229 0.85182 0.0
C262 C 0.72519 0.68979 0.83602 0.0
C263 C 0.69027 0.64393 0.84623 0.0
C264 C 0.67344 0.64011 0.8722 0.0
C265 C 0.69121 0.68219 0.88798 0.0
C266 C 0.72583 0.72815 0.87781 0.0
C267 C 0.82101 0.88971 0.73685 0.0
C268 C 0.77334 0.87985 0.73061 0.0
C269 C 0.83133 0.87866 0.76189 0.0
C270 C 0.79465 0.85925 0.78152 0.0
C271 C 0.7472 0.85048 0.77542 0.0
C272 C 0.73649 0.86017 0.75009 0.0
C273 C 0.805 0.84511 0.80775 0.0
C274 C 0.77201 0.79796 0.81766 0.0
C275 C 0.84813 0.87648 0.82232 0.0
C276 C 0.88214 0.92839 0.81448 0.0
C277 C 0.86427 0.96104 0.8105 0.0
C278 C 0.89641 0.00986 0.8031 0.0
C279 C 0.94654 0.02653 0.79966 0.0
C280 C 0.9647 0.99447 0.80374 0.0
C281 C 0.93276 0.94566 0.81124 0.0
H282 H 0.97139 0.06437 0.79401 0.0
H283 H 0.64654 0.60457 0.88009 0.0
H284 H 0.14987 0.86661 0.22844 0.0
H285 H 0.09908 0.85693 0.18968 0.0
H286 H 0.98543 0.85102 0.24031 0.0
H287 H 0.03638 0.86184 0.27912 0.0
H288 H 0.95357 0.77139 0.20325 0.0
H289 H 0.03757 0.94607 0.20621 0.0
H290 H 0.10876 0.03022 0.20954 0.0
H291 H 0.1691 0.00812 0.138 0.0
H292 H 0.09865 0.92351 0.13445 0.0
H293 H 0.88126 0.83996 0.06707 0.0
H294 H 0.91459 0.8617 0.11179 0.0
H295 H 0.93704 0.73674 0.11284 0.0
H296 H 0.90292 0.7141 0.06846 0.0
H297 H 0.00393 0.88876 0.12826 0.0
H298 H 0.92812 0.69382 0.1742 0.0
H299 H 0.85328 0.61196 0.17191 0.0
H300 H 0.76854 0.67856 0.14825 0.0
H301 H 0.8427 0.76088 0.15075 0.0
C302 C 0.11428 0.86374 0.23128 0.0
C303 C 0.09694 0.86472 0.25676 0.0
C304 C 0.08546 0.85842 0.20917 0.0
C305 C 0.03869 0.85338 0.21227 0.0
C306 C 0.02151 0.85494 0.23763 0.0
C307 C 0.05067 0.86114 0.25972 0.0
C308 C 0.00677 0.84344 0.18901 0.0
C309 C 0.96424 0.79706 0.18688 0.0
C310 C 0.02032 0.87756 0.16808 0.0
C311 C 0.06304 0.92826 0.17021 0.0
C312 C 0.06627 0.95896 0.19133 0.0
C313 C 0.10642 0.00679 0.19322 0.0
C314 C 0.14346 0.02447 0.17402 0.0
C315 C 0.1404 0.99435 0.15287 0.0
C316 C 0.10034 0.94647 0.15089 0.0
C317 C 0.89275 0.81674 0.07692 0.0
C318 C 0.88941 0.77526 0.06415 0.0
C319 C 0.91186 0.8293 0.10246 0.0
C320 C 0.92789 0.80064 0.11572 0.0
C321 C 0.92398 0.75886 0.10319 0.0
C322 C 0.90462 0.74608 0.07773 0.0
C323 C 0.95149 0.81585 0.142 0.0
C324 C 0.99265 0.8632 0.14471 0.0
C325 C 0.93612 0.78287 0.16366 0.0
C326 C 0.8911 0.73353 0.16251 0.0
C327 C 0.89347 0.69104 0.16867 0.0
C328 C 0.85117 0.64454 0.16729 0.0
C329 C 0.80621 0.64005 0.15988 0.0
C330 C 0.80342 0.68207 0.15391 0.0
C331 C 0.84559 0.72866 0.15527 0.0
H332 H 0.77352 0.60402 0.15881 0.0
H333 H 0.17449 0.06153 0.17551 0.0
H334 H 0.30299 0.14163 0.56496 0.0
H335 H 0.26866 0.09167 0.52506 0.0
H336 H 0.14887 0.97981 0.57094 0.0
H337 H 0.18235 0.03001 0.61086 0.0
H338 H 0.19896 0.94519 0.53555 0.0
H339 H 0.11837 0.0408 0.53616 0.0
H340 H 0.11237 0.11617 0.53854 0.0
H341 H 0.20392 0.17321 0.46959 0.0
H342 H 0.21095 0.09839 0.46699 0.0
H343 H 0.05288 0.88037 0.40185 0.0
H344 H 0.07086 0.91432 0.44646 0.0
H345 H 0.21343 0.92524 0.44297 0.0
H346 H 0.19571 0.89079 0.39835 0.0
H347 H 0.14216 0.00426 0.45984 0.0
H348 H 0.24808 0.91496 0.50574 0.0
H349 H 0.24827 0.83647 0.50363 0.0
H350 H 0.09593 0.76075 0.48102 0.0
H351 H 0.09462 0.83862 0.48336 0.0
C352 C 0.26929 0.10645 0.56652 0.0
C353 C 0.24525 0.08967 0.59095 0.0
C354 C 0.24975 0.07807 0.54377 0.0
C355 C 0.20631 0.03226 0.54519 0.0
C356 C 0.18247 0.01513 0.56957 0.0
C357 C 0.20153 0.04389 0.59227 0.0
C358 C 0.18604 0.00229 0.52111 0.0
C359 C 0.18636 0.95786 0.51897 0.0
C360 C 0.16901 0.01875 0.4998 0.0
C361 C 0.16561 0.0642 0.50155 0.0
C362 C 0.13768 0.06965 0.52168 0.0
C363 C 0.13396 0.11221 0.52302 0.0
C364 C 0.15784 0.14951 0.50426 0.0
C365 C 0.18548 0.14431 0.48412 0.0
C366 C 0.18931 0.10182 0.48269 0.0
C367 C 0.08786 0.88937 0.41063 0.0
C368 C 0.12298 0.8831 0.39642 0.0
C369 C 0.09806 0.90885 0.43613 0.0
C370 C 0.14339 0.92221 0.448 0.0
C371 C 0.17796 0.91459 0.43427 0.0
C372 C 0.16778 0.89503 0.40873 0.0
C373 C 0.15584 0.94735 0.47394 0.0
C374 C 0.15437 0.99118 0.47641 0.0
C375 C 0.17123 0.92996 0.49563 0.0
C376 C 0.17141 0.88276 0.4945 0.0
C377 C 0.21456 0.88153 0.50044 0.0
C378 C 0.21488 0.83714 0.49918 0.0
C379 C 0.17218 0.79368 0.49212 0.0
C380 C 0.12903 0.79447 0.48639 0.0
C381 C 0.1285 0.83875 0.48764 0.0
H382 H 0.17251 0.75936 0.49113 0.0
H383 H 0.15482 0.18238 0.5053 0.0
H384 H 0.32651 0.29694 0.97915 0.0
H385 H 0.41356 0.36119 0.97715 0.0
H386 H 0.37712 0.46668 0.00898 0.0
H387 H 0.29074 0.40344 0.01099 0.0
H388 H 0.43376 0.5012 0.96502 0.0
H389 H 0.43415 0.4226 0.04675 0.0
H390 H 0.41974 0.35272 0.07512 0.0
H391 H 0.51789 0.32743 0.02698 0.0
H392 H 0.53238 0.39679 -0.00191 0.0
H393 H 0.67442 0.70077 -0.00701 0.0
H394 H 0.588 0.63496 -0.00598 0.0
H395 H 0.63117 0.52967 0.9702 0.0
H396 H 0.71722 0.59463 0.97012 0.0
H397 H 0.57077 0.4938 0.00932 0.0
H398 H 0.56981 0.57076 0.927 0.0
H399 H 0.58293 0.63912 0.89767 0.0
H400 H 0.48668 0.66684 0.94596 0.0
H401 H 0.47276 0.59851 0.97553 0.0
C402 C 0.33715 0.33366 0.98603 0.0
C403 C 0.30155 0.34501 -0.00492 0.0
C404 C 0.38686 0.3703 0.98487 0.0
C405 C 0.40165 0.41868 -0.00714 0.0
C406 C 0.3664 0.42967 0.00254 0.0
C407 C 0.31697 0.39329 0.00372 0.0
C408 C 0.45351 0.45862 0.99033 0.0
C409 C 0.46374 0.49986 0.9749 0.0
C410 C 0.49258 0.45623 0.00273 0.0
C411 C 0.48392 0.41455 0.02009 0.0
C412 C 0.45232 0.40187 0.04207 0.0
C413 C 0.44421 0.36241 0.05828 0.0
C414 C 0.46777 0.33556 0.05281 0.0
C415 C 0.4996 0.34821 0.03116 0.0
C416 C 0.5078 0.38761 0.01488 0.0
C417 C 0.66528 0.66366 0.98771 0.0
C418 C 0.70249 0.65273 0.98169 0.0
C419 C 0.61592 0.62609 0.98821 0.0
C420 C 0.60302 0.57731 0.98205 0.0
C421 C 0.64018 0.56687 0.97521 0.0
C422 C 0.68936 0.60409 0.97514 0.0
C423 C 0.55123 0.53656 0.98391 0.0
C424 C 0.54093 0.49514 -0.00073 0.0
C425 C 0.5121 0.53864 0.97131 0.0
C426 C 0.52059 0.57982 0.9536 0.0
C427 C 0.5517 0.59164 0.93146 0.0
C428 C 0.55923 0.63032 0.91477 0.0
C429 C 0.53594 0.65749 0.92004 0.0
C430 C 0.50478 0.64583 0.94193 0.0
C431 C 0.49691 0.60702 0.9586 0.0
H432 H 0.54189 0.68747 0.90712 0.0
H433 H 0.46145 0.30503 0.06538 0.0
H434 H 0.8915 0.29089 0.34639 0.0
H435 H 0.91425 0.37716 0.34396 0.0
H436 H 0.04907 0.41114 0.30381 0.0
H437 H 0.0267 0.32422 0.30625 0.0
H438 H 0.06068 0.48084 0.3424 0.0
H439 H 0.95488 0.39784 0.26823 0.0
H440 H 0.87964 0.33236 0.24711 0.0
H441 H 0.79148 0.37534 0.29255 0.0
H442 H 0.86616 0.44064 0.31424 0.0
H443 H 0.11748 0.7138 0.29622 0.0
H444 H 0.09681 0.6279 0.29739 0.0
H445 H 0.95331 0.58651 0.32903 0.0
H446 H 0.97335 0.67277 0.32711 0.0
H447 H 0.94661 0.52011 0.29446 0.0
H448 H 0.04841 0.60068 0.36933 0.0
H449 H 0.12133 0.66479 0.39276 0.0
H450 H 0.21425 0.62548 0.34914 0.0
H451 H 0.14192 0.56156 0.32516 0.0
C452 C 0.92622 0.31657 0.33716 0.0
C453 C 0.95705 0.30048 0.32621 0.0
C454 C 0.93906 0.36591 0.33577 0.0
C455 C 0.98281 0.40022 0.32327 0.0
C456 C 0.01494 0.38499 0.3134 0.0
C457 C 0.00212 0.33539 0.31481 0.0
C458 C 0.99382 0.45157 0.3198 0.0
C459 C 0.03625 0.48963 0.33158 0.0
C460 C 0.96096 0.4626 0.30636 0.0
C461 C 0.91609 0.42389 0.293 0.0
C462 C 0.91943 0.39314 0.27383 0.0
C463 C 0.87688 0.35607 0.26175 0.0
C464 C 0.8308 0.34963 0.26852 0.0
C465 C 0.82719 0.38035 0.28734 0.0
C466 C 0.86962 0.41743 0.29951 0.0
C467 C 0.08134 0.68639 0.30325 0.0
C468 C 0.04718 0.70002 0.31187 0.0
C469 C 0.06968 0.63732 0.30401 0.0
C470 C 0.02404 0.60099 0.31396 0.0
C471 C 0.98893 0.61408 0.32147 0.0
C472 C 0.00035 0.66328 0.32035 0.0
C473 C 0.01364 0.54966 0.31703 0.0
C474 C 0.97124 0.51151 0.30522 0.0
C475 C 0.04625 0.53849 0.33073 0.0
C476 C 0.08979 0.57664 0.34527 0.0
C477 C 0.08443 0.60593 0.3646 0.0
C478 C 0.12565 0.64221 0.378 0.0
C479 C 0.17241 0.64929 0.37239 0.0
C480 C 0.17801 0.61999 0.35343 0.0
C481 C 0.13691 0.58371 0.33995 0.0
H482 H 0.20428 0.6774 0.38278 0.0
H483 H 0.7979 0.32089 0.25916 0.0
H484 H 0.29697 0.9694 0.64571 0.0
H485 H 0.36268 0.94856 0.64577 0.0
H486 H 0.46565 0.09438 0.67407 0.0
H487 H 0.40105 0.11557 0.67393 0.0
H488 H 0.50207 0.07002 0.63234 0.0
H489 H 0.42313 0.99679 0.71485 0.0
H490 H 0.35346 0.94303 0.7439 0.0
H491 H 0.33062 0.81615 0.69985 0.0
H492 H 0.39977 0.86927 0.67029 0.0
H493 H 0.70216 0.02983 0.6632 0.0
H494 H 0.63687 0.05128 0.66461 0.0
H495 H 0.53052 0.90349 0.64043 0.0
H496 H 0.59473 0.88167 0.6396 0.0
H497 H 0.49613 0.92971 0.68072 0.0
H498 H 0.57413 0.00296 0.5977 0.0
H499 H 0.64361 0.05673 0.56853 0.0
H500 H 0.66793 0.1834 0.6133 0.0
H501 H 0.59895 0.13027 0.64295 0.0
C502 C 0.33348 0.99677 0.65221 0.0
C503 C 0.34377 0.0442 0.65964 0.0
C504 C 0.37093 0.98484 0.65225 0.0
C505 C 0.419 0.02005 0.65989 0.0
C506 C 0.42892 0.06685 0.66792 0.0
C507 C 0.39177 0.07879 0.66785 0.0
C508 C 0.45971 0.00916 0.6587 0.0
C509 C 0.50107 0.03966 0.64315 0.0
C510 C 0.45787 0.96907 0.67243 0.0
C511 C 0.4163 0.93707 0.69019 0.0
C512 C 0.40298 0.95747 0.71121 0.0
C513 C 0.36364 0.92711 0.7278 0.0
C514 C 0.33754 0.87622 0.72367 0.0
C515 C 0.35082 0.85558 0.70299 0.0
C516 C 0.3901 0.8858 0.68633 0.0
C517 C 0.66493 0.00219 0.65795 0.0
C518 C 0.65352 0.95405 0.65147 0.0
C519 C 0.62769 0.01442 0.65874 0.0
C520 C 0.57882 0.97891 0.6526 0.0
C521 C 0.56783 0.93132 0.64547 0.0
C522 C 0.60469 0.91898 0.64495 0.0
C523 C 0.53847 0.9904 0.6542 0.0
C524 C 0.49718 0.96006 0.66988 0.0
C525 C 0.54033 0.0306 0.64055 0.0
C526 C 0.58171 0.06258 0.6227 0.0
C527 C 0.59454 0.04223 0.60144 0.0
C528 C 0.63378 0.07261 0.5848 0.0
C529 C 0.66025 0.12343 0.58911 0.0
C530 C 0.64744 0.14402 0.61002 0.0
C531 C 0.60825 0.1138 0.62673 0.0
H532 H 0.69062 0.14688 0.5762 0.0
H533 H 0.3071 0.85277 0.73654 0.0
H534 H 0.43826 0.29174 0.66907 0.0
H535 H 0.48851 0.38058 0.67301 0.0
H536 H 0.36169 0.39548 0.65633 0.0
H537 H 0.31081 0.30561 0.65165 0.0
H538 H 0.43998 0.46122 0.62923 0.0
H539 H 0.40768 0.41083 0.719 0.0
H540 H 0.40144 0.36192 0.7584 0.0
H541 H 0.55739 0.41754 0.75589 0.0
H542 H 0.56445 0.46612 0.71612 0.0
H543 H 0.55476 0.70909 0.67153 0.0
H544 H 0.5013 0.62005 0.6727 0.0
H545 H 0.62795 0.60094 0.66747 0.0
H546 H 0.68236 0.69087 0.66579 0.0
H547 H 0.5474 0.53864 0.70724 0.0
H548 H 0.57581 0.5853 0.61486 0.0
H549 H 0.57915 0.63491 0.57631 0.0
H550 H 0.42558 0.58697 0.58594 0.0
H551 H 0.42155 0.53766 0.62485 0.0
C552 C 0.4208 0.31374 0.66632 0.0
C553 C 0.37048 0.29169 0.66016 0.0
C554 C 0.44963 0.36459 0.66873 0.0
C555 C 0.42867 0.39457 0.66547 0.0
C556 C 0.37846 0.37286 0.65908 0.0
C557 C 0.34948 0.32166 0.65645 0.0
C558 C 0.46008 0.44865 0.66796 0.0
C559 C 0.4628 0.47816 0.64649 0.0
C560 C 0.49048 0.47067 0.69032 0.0
C561 C 0.48652 0.44185 0.71442 0.0
C562 C 0.44061 0.41237 0.72672 0.0
C563 C 0.43693 0.38472 0.74914 0.0
C564 C 0.47899 0.38656 0.75962 0.0
C565 C 0.52483 0.41613 0.74773 0.0
C566 C 0.5287 0.44377 0.72525 0.0
C567 C 0.57151 0.68615 0.67089 0.0
C568 C 0.62281 0.70695 0.66841 0.0
C569 C 0.54081 0.63528 0.67154 0.0
C570 C 0.5608 0.60426 0.67 0.0
C571 C 0.61208 0.62463 0.66867 0.0
C572 C 0.64298 0.6758 0.66765 0.0
C573 C 0.5275 0.55057 0.66843 0.0
C574 C 0.52437 0.52139 0.69009 0.0
C575 C 0.49625 0.52889 0.64643 0.0
C576 C 0.49852 0.55824 0.62293 0.0
C577 C 0.54288 0.58571 0.60891 0.0
C578 C 0.54487 0.6137 0.58697 0.0
C579 C 0.50264 0.61421 0.57872 0.0
C580 C 0.45828 0.58661 0.59238 0.0
C581 C 0.45612 0.55861 0.61436 0.0
H582 H 0.50425 0.6359 0.56172 0.0
H583 H 0.47612 0.36515 0.77699 0.0
H584 H 0.86497 0.57667 0.02732 0.0
H585 H 0.90086 0.52392 0.03234 0.0
H586 H 0.02518 0.62434 0.98459 0.0
H587 H 0.98995 0.67836 0.98028 0.0
H588 H 0.9149 0.47436 -0.00306 0.0
H589 H 0.12546 0.61473 -0.00027 0.0
H590 H 0.18204 0.69799 0.01695 0.0
H591 H 0.07489 0.68061 0.07534 0.0
H592 H 0.01798 0.59704 0.05873 0.0
H593 H 0.04409 0.35118 0.96447 0.0
H594 H 0.00969 0.40587 0.96754 0.0
H595 H 0.07211 0.45104 0.04561 0.0
H596 H 0.10972 0.3992 0.04151 0.0
H597 H 0.0871 0.52693 0.02179 0.0
H598 H 0.94258 0.36923 0.03237 0.0
H599 H 0.88308 0.28291 0.02107 0.0
H600 H 0.85132 0.32938 0.94752 0.0
H601 H 0.91112 0.41596 0.95823 0.0
C602 C 0.90033 0.5879 0.0182 0.0
C603 C 0.92466 0.63148 0.00332 0.0
C604 C 0.92071 0.55762 0.02101 0.0
C605 C 0.96564 0.57001 0.00881 0.0
C606 C 0.99078 0.61431 -0.0055 0.0
C607 C 0.97064 0.64511 0.99199 0.0
C608 C 0.9844 0.535 0.00986 0.0
C609 C 0.95252 0.48583 0.0025 0.0
C610 C 0.03314 0.54963 0.01758 0.0
C611 C 0.06726 0.59982 0.02777 0.0
C612 C 0.11404 0.62863 0.01629 0.0
C613 C 0.14616 0.67588 0.02594 0.0
C614 C 0.132 0.69464 0.04716 0.0
C615 C 0.08574 0.66613 0.05883 0.0
C616 C 0.05351 0.61884 0.04927 0.0
C617 C 0.04984 0.37244 0.98236 0.0
C618 C 0.07919 0.37112 0.00281 0.0
C619 C 0.03007 0.40354 0.98418 0.0
C620 C 0.03761 0.4322 0.007 0.0
C621 C 0.06592 0.4296 0.02776 0.0
C622 C 0.08709 0.39979 0.02552 0.0
C623 C 0.01761 0.4662 0.0088 0.0
C624 C 0.04934 0.51529 0.01648 0.0
C625 C 0.96812 0.45105 0.00235 0.0
C626 C 0.93157 0.39906 -0.00396 0.0
C627 C 0.92306 0.36102 0.01374 0.0
C628 C 0.88927 0.31205 0.00744 0.0
C629 C 0.86349 0.30066 0.98357 0.0
C630 C 0.87133 0.33825 0.96599 0.0
C631 C 0.90511 0.38729 0.97218 0.0
H632 H 0.83739 0.26272 0.97872 0.0
H633 H 0.15692 0.73124 0.0546 0.0
H634 H 0.7102 0.14477 0.35847 0.0
H635 H 0.6211 0.1094 0.35909 0.0
H636 H 0.60282 0.97542 0.32446 0.0
H637 H 0.69239 0.01107 0.32333 0.0
H638 H 0.55117 0.00762 0.29819 0.0
H639 H 0.57091 0.97926 0.38884 0.0
H640 H 0.60578 0.00015 0.43376 0.0
H641 H 0.55558 0.10423 0.44184 0.0
H642 H 0.521 0.08448 0.39679 0.0
H643 H 0.29631 0.85388 0.31998 0.0
H644 H 0.3854 0.89271 0.32434 0.0
H645 H 0.39525 0.03286 0.33899 0.0
H646 H 0.30527 0.99414 0.33412 0.0
H647 H 0.4505 0.00066 0.37568 0.0
H648 H 0.4299 0.02627 0.28395 0.0
H649 H 0.39335 0.00116 0.23957 0.0
H650 H 0.44415 0.89716 0.23451 0.0
H651 H 0.48035 0.92111 0.27908 0.0
C652 C 0.68725 0.10749 0.35132 0.0
C653 C 0.70829 0.08073 0.34075 0.0
C654 C 0.63627 0.08725 0.3518 0.0
C655 C 0.60529 0.0397 0.34193 0.0
C656 C 0.62612 0.01224 0.33215 0.0
C657 C 0.67724 0.03253 0.33162 0.0
C658 C 0.5515 0.02015 0.34013 0.0
C659 C 0.52912 0.00551 0.31523 0.0
C660 C 0.52297 0.01868 0.36223 0.0
C661 C 0.54381 0.03075 0.38932 0.0
C662 C 0.5677 0.00694 0.40009 0.0
C663 C 0.58733 0.01851 0.4256 0.0
C664 C 0.58302 0.0536 0.44061 0.0
C665 C 0.55895 0.07711 0.43017 0.0
C666 C 0.53929 0.06571 0.40466 0.0
C667 C 0.31727 0.89298 0.32418 0.0
C668 C 0.2939 0.92108 0.32669 0.0
C669 C 0.36816 0.91504 0.32662 0.0
C670 C 0.39664 0.96551 0.33191 0.0
C671 C 0.3736 0.99377 0.3349 0.0
C672 C 0.32244 0.97175 0.33201 0.0
C673 C 0.45062 0.98815 0.33385 0.0
C674 C 0.47288 0.00319 0.35871 0.0
C675 C 0.47905 0.9896 0.31181 0.0
C676 C 0.45741 0.97516 0.28497 0.0
C677 C 0.43286 0.9977 0.27349 0.0
C678 C 0.41229 0.98375 0.24828 0.0
C679 C 0.41631 0.94749 0.23426 0.0
C680 C 0.44101 0.92519 0.24541 0.0
C681 C 0.4616 0.93898 0.27064 0.0
H682 H 0.40038 0.93676 0.21473 0.0
H683 H 0.59823 0.06249 0.46036 0.0
loop_
_geom_bond_atom_site_label_1
_geom_bond_atom_site_label_2
_geom_bond_distance
_geom_bond_site_symmetry_2
_ccdc_geom_bond_type
Co0 O1 2.216 . S
Co0 O2 2.091 . S
Co0 O4 2.004 1_556 S
Co0 O10 2.021 1_556 S
Co0 O12 2.137 . S
Co0 O13 2.244 . S
O1 Co0 2.216 . S
O1 C8 1.247 . S
O2 Co0 2.091 . S
O2 C8 1.261 . S
C3 O12 1.247 . S
C3 O13 1.272 . S
O4 Co0 2.004 1_554 S
O4 C9 1.259 . S
Co5 O6 2.061 . S
Co5 O11 2.052 . S
Co5 O13 2.135 1_554 S
O6 Co5 2.061 . S
O6 C9 1.235 . S
C7 O10 1.238 . S
C7 O11 1.241 . S
C8 O1 1.247 . S
C8 O2 1.261 . S
C9 O4 1.259 . S
C9 O6 1.235 . S
O10 Co0 2.021 1_554 S
O10 C7 1.238 . S
O11 Co5 2.052 . S
O11 C7 1.241 . S
O12 Co0 2.137 . S
O12 C3 1.247 . S
O13 Co0 2.244 . S
O13 C3 1.272 . S
O13 Co5 2.135 1_556 S
Co14 O15 2.216 . S
Co14 O16 2.091 . S
Co14 O18 2.004 . S
Co14 O24 2.021 . S
Co14 O26 2.137 . S
Co14 O27 2.244 . S
O15 Co14 2.216 . S
O15 C22 1.247 . S
O16 Co14 2.091 . S
O16 C22 1.261 . S
C17 O26 1.247 . S
C17 O27 1.272 . S
O18 Co14 2.004 . S
O18 C23 1.259 . S
Co19 O20 2.061 . S
Co19 O25 2.052 . S
Co19 O27 2.135 . S
O20 Co19 2.061 . S
O20 C23 1.235 . S
C21 O24 1.238 . S
C21 O25 1.241 . S
C22 O15 1.247 . S
C22 O16 1.261 . S
C23 O18 1.259 . S
C23 O20 1.235 . S
O24 Co14 2.021 . S
O24 C21 1.238 . S
O25 Co19 2.052 . S
O25 C21 1.241 . S
O26 Co14 2.137 . S
O26 C17 1.247 . S
O27 Co14 2.244 . S
O27 C17 1.272 . S
O27 Co19 2.135 . S
Co28 O29 2.216 . S
Co28 O30 2.091 . S
Co28 O32 2.004 . S
Co28 O38 2.021 . S
Co28 O40 2.137 . S
Co28 O41 2.244 . S
O29 Co28 2.216 . S
O29 C36 1.247 . S
O30 Co28 2.091 . S
O30 C36 1.261 . S
C31 O40 1.247 . S
C31 O41 1.272 . S
O32 Co28 2.004 . S
O32 C37 1.259 . S
Co33 O34 2.061 . S
Co33 O39 2.052 . S
Co33 O41 2.135 . S
O34 Co33 2.061 . S
O34 C37 1.235 . S
C35 O38 1.238 . S
C35 O39 1.241 . S
C36 O29 1.247 . S
C36 O30 1.261 . S
C37 O32 1.259 . S
C37 O34 1.235 . S
O38 Co28 2.021 . S
O38 C35 1.238 . S
O39 Co33 2.052 . S
O39 C35 1.241 . S
O40 Co28 2.137 . S
O40 C31 1.247 . S
O41 Co28 2.244 . S
O41 C31 1.272 . S
O41 Co33 2.135 . S
Co42 O43 2.216 . S
Co42 O44 2.091 . S
Co42 O46 2.004 1_556 S
Co42 O52 2.021 1_556 S
Co42 O54 2.137 . S
Co42 O55 2.244 . S
O43 Co42 2.216 . S
O43 C50 1.247 . S
O44 Co42 2.091 . S
O44 C50 1.261 . S
C45 O54 1.247 . S
C45 O55 1.272 . S
O46 Co42 2.004 1_554 S
O46 C51 1.259 . S
Co47 O48 2.061 . S
Co47 O53 2.052 . S
Co47 O55 2.135 1_554 S
O48 Co47 2.061 . S
O48 C51 1.235 . S
C49 O52 1.238 . S
C49 O53 1.241 . S
C50 O43 1.247 . S
C50 O44 1.261 . S
C51 O46 1.259 . S
C51 O48 1.235 . S
O52 Co42 2.021 1_554 S
O52 C49 1.238 . S
O53 Co47 2.052 . S
O53 C49 1.241 . S
O54 Co42 2.137 . S
O54 C45 1.247 . S
O55 Co42 2.244 . S
O55 C45 1.272 . S
O55 Co47 2.135 1_556 S
Co56 O57 2.216 . S
Co56 O58 2.091 . S
Co56 O60 2.004 . S
Co56 O66 2.021 . S
Co56 O68 2.137 . S
Co56 O69 2.244 . S
O57 Co56 2.216 . S
O57 C64 1.247 . S
O58 Co56 2.091 . S
O58 C64 1.261 . S
C59 O68 1.247 . S
C59 O69 1.272 . S
O60 Co56 2.004 . S
O60 C65 1.259 . S
Co61 O62 2.061 . S
Co61 O67 2.052 . S
Co61 O69 2.135 . S
O62 Co61 2.061 . S
O62 C65 1.235 . S
C63 O66 1.238 . S
C63 O67 1.241 . S
C64 O57 1.247 . S
C64 O58 1.261 . S
C65 O60 1.259 . S
C65 O62 1.235 . S
O66 Co56 2.021 . S
O66 C63 1.238 . S
O67 Co61 2.052 . S
O67 C63 1.241 . S
O68 Co56 2.137 . S
O68 C59 1.247 . S
O69 Co56 2.244 . S
O69 C59 1.272 . S
O69 Co61 2.135 . S
Co70 O71 2.216 . S
Co70 O72 2.091 . S
Co70 O74 2.004 . S
Co70 O80 2.021 . S
Co70 O82 2.137 . S
Co70 O83 2.244 . S
O71 Co70 2.216 . S
O71 C78 1.247 . S
O72 Co70 2.091 . S
O72 C78 1.261 . S
C73 O82 1.247 . S
C73 O83 1.272 . S
O74 Co70 2.004 . S
O74 C79 1.259 . S
Co75 O76 2.061 . S
Co75 O81 2.052 . S
Co75 O83 2.135 . S
O76 Co75 2.061 . S
O76 C79 1.235 . S
C77 O80 1.238 . S
C77 O81 1.241 . S
C78 O71 1.247 . S
C78 O72 1.261 . S
C79 O74 1.259 . S
C79 O76 1.235 . S
O80 Co70 2.021 . S
O80 C77 1.238 . S
O81 Co75 2.052 . S
O81 C77 1.241 . S
O82 Co70 2.137 . S
O82 C73 1.247 . S
O83 Co70 2.244 . S
O83 C73 1.272 . S
O83 Co75 2.135 . S
H84 C102 0.951 . S
H85 C104 0.951 . S
H86 C106 0.950 . S
H87 C107 0.950 . S
H88 C109 0.950 . S
H89 C112 0.950 . S
H90 C113 0.950 . S
H91 C115 0.950 . S
H92 C116 0.950 . S
H93 C117 0.951 . S
H94 C119 0.951 . S
H95 C121 0.950 . S
H96 C122 0.950 . S
H97 C124 0.950 . S
H98 C127 0.950 . S
H99 C128 0.950 . S
H100 C130 0.950 1_655 S
H101 C131 0.950 . S
C102 H84 0.951 . S
C102 C103 1.366 . S
C102 C104 1.388 . S
C103 C102 1.366 . S
C103 C107 1.385 . S
C104 H85 0.951 . S
C104 C102 1.388 . S
C104 C105 1.366 . S
C105 C104 1.366 . S
C105 C106 1.414 . S
C105 C108 1.499 . S
C106 H86 0.950 . S
C106 C105 1.414 . S
C106 C107 1.374 . S
C107 H87 0.950 . S
C107 C103 1.385 . S
C107 C106 1.374 . S
C108 C105 1.499 . S
C108 C109 1.373 . S
C108 C110 1.389 . S
C109 H88 0.950 . S
C109 C108 1.373 . S
C109 C125 1.377 . S
C110 C108 1.389 . S
C110 C111 1.524 . S
C110 C124 1.377 . S
C111 C110 1.524 . S
C111 C112 1.397 . S
C111 C116 1.363 . S
C112 H89 0.950 . S
C112 C111 1.397 . S
C112 C113 1.334 . S
C113 H90 0.950 . S
C113 C112 1.334 . S
C113 C114 1.287 . S
C114 C113 1.287 . S
C114 C115 1.524 . S
C114 H133 0.913 . S
C115 H91 0.950 . S
C115 C114 1.524 . S
C115 C116 1.415 . S
C116 H92 0.950 . S
C116 C111 1.363 . S
C116 C115 1.415 . S
C117 H93 0.951 . S
C117 C118 1.366 . S
C117 C119 1.388 . S
C118 C117 1.366 . S
C118 C122 1.385 . S
C119 H94 0.951 . S
C119 C117 1.388 . S
C119 C120 1.366 . S
C120 C119 1.366 . S
C120 C121 1.414 . S
C120 C123 1.499 . S
C121 H95 0.950 . S
C121 C120 1.414 . S
C121 C122 1.374 . S
C122 H96 0.950 . S
C122 C118 1.385 . S
C122 C121 1.374 . S
C123 C120 1.499 . S
C123 C124 1.373 . S
C123 C125 1.389 . S
C124 H97 0.950 . S
C124 C110 1.377 . S
C124 C123 1.373 . S
C125 C109 1.377 . S
C125 C123 1.389 . S
C125 C126 1.524 . S
C126 C125 1.524 . S
C126 C127 1.397 . S
C126 C131 1.363 . S
C127 H98 0.950 . S
C127 C126 1.397 . S
C127 C128 1.334 . S
C128 H99 0.950 . S
C128 C127 1.334 . S
C128 C129 1.287 1_455 S
C129 C128 1.287 1_655 S
C129 C130 1.524 1_655 S
C129 H132 0.999 . S
C130 H100 0.950 1_455 S
C130 C129 1.524 1_455 S
C130 C131 1.415 . S
C131 H101 0.950 . S
C131 C126 1.363 . S
C131 C130 1.415 . S
H132 C129 0.999 . S
H133 C114 0.913 . S
H134 C152 0.951 . S
H135 C154 0.951 . S
H136 C156 0.950 1_455 S
H137 C157 0.950 . S
H138 C159 0.950 . S
H139 C162 0.950 . S
H140 C163 0.950 . S
H141 C165 0.950 1_565 S
H142 C166 0.950 . S
H143 C167 0.951 . S
H144 C169 0.951 . S
H145 C171 0.960 . S
H146 C172 0.950 . S
H147 C174 0.950 . S
H148 C177 0.952 . S
H149 C178 0.950 1_655 S
H150 C180 0.950 . S
H151 C181 0.950 . S
C152 H134 0.951 . S
C152 C153 1.366 . S
C152 C154 1.388 . S
C153 C152 1.366 . S
C153 C157 1.385 . S
C154 H135 0.951 . S
C154 C152 1.388 . S
C154 C155 1.366 . S
C155 C154 1.366 . S
C155 C156 1.414 . S
C155 C158 1.499 . S
C156 H136 0.950 1_655 S
C156 C155 1.414 . S
C156 C157 1.374 . S
C157 H137 0.950 . S
C157 C153 1.385 . S
C157 C156 1.374 . S
C158 C155 1.499 . S
C158 C159 1.373 . S
C158 C160 1.389 . S
C159 H138 0.950 . S
C159 C158 1.373 . S
C159 C175 1.377 1_655 S
C160 C158 1.389 . S
C160 C161 1.524 . S
C160 C174 1.377 1_655 S
C161 C160 1.524 . S
C161 C162 1.397 1_655 S
C161 C166 1.363 . S
C162 H139 0.950 . S
C162 C161 1.397 1_455 S
C162 C163 1.334 . S
C163 H140 0.950 . S
C163 C162 1.334 . S
C163 C164 1.287 1_455 S
C164 C163 1.287 1_655 S
C164 C165 1.524 . S
C164 H183 0.913 1_545 S
C165 H141 0.950 1_545 S
C165 C164 1.524 . S
C165 C166 1.415 . S
C166 H142 0.950 . S
C166 C161 1.363 . S
C166 C165 1.415 . S
C167 H143 0.951 . S
C167 C168 1.366 . S
C167 C169 1.388 . S
C168 C167 1.366 . S
C168 C172 1.385 . S
C169 H144 0.951 . S
C169 C167 1.388 . S
C169 C170 1.366 . S
C170 C169 1.366 . S
C170 C171 1.414 . S
C170 C173 1.499 . S
C171 H145 0.960 . S
C171 C170 1.414 . S
C171 C172 1.374 . S
C172 H146 0.950 . S
C172 C168 1.385 . S
C172 C171 1.374 . S
C173 C170 1.499 . S
C173 C174 1.373 . S
C173 C175 1.389 . S
C174 H147 0.950 . S
C174 C160 1.377 1_455 S
C174 C173 1.373 . S
C175 C159 1.377 1_455 S
C175 C173 1.389 . S
C175 C176 1.524 . S
C176 C175 1.524 . S
C176 C177 1.384 1_455 S
C176 C181 1.363 . S
C177 H148 0.952 . S
C177 C176 1.384 1_655 S
C177 C178 1.345 1_655 S
C178 H149 0.950 1_455 S
C178 C177 1.345 1_455 S
C178 C179 1.287 . S
C179 C178 1.287 . S
C179 C180 1.524 . S
C179 H182 0.999 . S
C180 H150 0.950 . S
C180 C179 1.524 . S
C180 C181 1.415 . S
C181 H151 0.950 . S
C181 C176 1.363 . S
C181 C180 1.415 . S
H182 C179 0.999 . S
H183 C164 0.913 1_565 S
H184 C202 0.951 . S
H185 C204 0.951 . S
H186 C206 0.950 1_565 S
H187 C207 0.950 . S
H188 C209 0.950 . S
H189 C212 0.950 . S
H190 C213 0.950 1_455 S
H191 C215 0.950 . S
H192 C216 0.950 . S
H193 C217 0.951 . S
H194 C219 0.951 . S
H195 C221 0.950 1_545 S
H196 C222 0.950 . S
H197 C224 0.950 . S
H198 C227 0.950 . S
H199 C228 0.950 . S
H200 C230 0.950 . S
H201 C231 0.950 . S
C202 H184 0.951 . S
C202 C203 1.366 . S
C202 C204 1.388 . S
C203 C202 1.366 . S
C203 C207 1.385 . S
C204 H185 0.951 . S
C204 C202 1.388 . S
C204 C205 1.366 . S
C205 C204 1.366 . S
C205 C206 1.414 . S
C205 C208 1.499 . S
C206 H186 0.950 1_545 S
C206 C205 1.414 . S
C206 C207 1.374 . S
C207 H187 0.950 . S
C207 C203 1.385 . S
C207 C206 1.374 . S
C208 C205 1.499 . S
C208 C209 1.373 1_545 S
C208 C210 1.389 . S
C209 H188 0.950 . S
C209 C208 1.373 1_565 S
C209 C225 1.377 . S
C210 C208 1.389 . S
C210 C211 1.524 . S
C210 C224 1.377 . S
C211 C210 1.524 . S
C211 C212 1.397 . S
C211 C216 1.363 . S
C212 H189 0.950 . S
C212 C211 1.397 . S
C212 C213 1.334 . S
C213 H190 0.950 1_655 S
C213 C212 1.334 . S
C213 C214 1.287 . S
C214 C213 1.287 . S
C214 C215 1.524 . S
C214 H233 0.913 1_655 S
C215 H191 0.950 . S
C215 C214 1.524 . S
C215 C216 1.415 . S
C216 H192 0.950 . S
C216 C211 1.363 . S
C216 C215 1.415 . S
C217 H193 0.951 . S
C217 C218 1.366 . S
C217 C219 1.388 . S
C218 C217 1.366 . S
C218 C222 1.385 . S
C219 H194 0.951 . S
C219 C217 1.388 . S
C219 C220 1.366 . S
C220 C219 1.366 . S
C220 C221 1.414 . S
C220 C223 1.499 . S
C221 H195 0.950 1_565 S
C221 C220 1.414 . S
C221 C222 1.374 . S
C222 H196 0.950 . S
C222 C218 1.385 . S
C222 C221 1.374 . S
C223 C220 1.499 . S
C223 C224 1.373 1_565 S
C223 C225 1.389 . S
C224 H197 0.950 . S
C224 C210 1.377 . S
C224 C223 1.373 1_545 S
C225 C209 1.377 . S
C225 C223 1.389 . S
C225 C226 1.524 . S
C226 C225 1.524 . S
C226 C227 1.397 . S
C226 C231 1.363 . S
C227 H198 0.950 . S
C227 C226 1.397 . S
C227 C228 1.334 . S
C228 H199 0.950 . S
C228 C227 1.334 . S
C228 C229 1.287 . S
C229 C228 1.287 . S
C229 C230 1.524 . S
C229 H232 0.999 . S
C230 H200 0.950 . S
C230 C229 1.524 . S
C230 C231 1.415 . S
C231 H201 0.950 . S
C231 C226 1.363 . S
C231 C230 1.415 . S
H232 C229 0.999 . S
H233 C214 0.913 1_455 S
H234 C252 0.951 . S
H235 C254 0.951 . S
H236 C256 0.950 . S
H237 C257 0.950 . S
H238 C259 0.950 . S
H239 C262 0.950 . S
H240 C263 0.950 . S
H241 C265 0.950 . S
H242 C266 0.950 . S
H243 C267 0.951 . S
H244 C269 0.951 . S
H245 C271 0.950 . S
H246 C272 0.950 . S
H247 C274 0.950 . S
H248 C277 0.950 . S
H249 C278 0.950 1_545 S
H250 C280 0.950 . S
H251 C281 0.950 . S
C252 H234 0.951 . S
C252 C253 1.366 . S
C252 C254 1.388 . S
C253 C252 1.366 . S
C253 C257 1.385 . S
C254 H235 0.951 . S
C254 C252 1.388 . S
C254 C255 1.366 . S
C255 C254 1.366 . S
C255 C256 1.414 . S
C255 C258 1.499 . S
C256 H236 0.950 . S
C256 C255 1.414 . S
C256 C257 1.374 . S
C257 H237 0.950 . S
C257 C253 1.385 . S
C257 C256 1.374 . S
C258 C255 1.499 . S
C258 C259 1.373 . S
C258 C260 1.389 . S
C259 H238 0.950 . S
C259 C258 1.373 . S
C259 C275 1.377 . S
C260 C258 1.389 . S
C260 C261 1.524 . S
C260 C274 1.377 . S
C261 C260 1.524 . S
C261 C262 1.397 . S
C261 C266 1.363 . S
C262 H239 0.950 . S
C262 C261 1.397 . S
C262 C263 1.334 . S
C263 H240 0.950 . S
C263 C262 1.334 . S
C263 C264 1.287 . S
C264 C263 1.287 . S
C264 C265 1.524 . S
C264 H283 0.913 . S
C265 H241 0.950 . S
C265 C264 1.524 . S
C265 C266 1.415 . S
C266 H242 0.950 . S
C266 C261 1.363 . S
C266 C265 1.415 . S
C267 H243 0.951 . S
C267 C268 1.366 . S
C267 C269 1.388 . S
C268 C267 1.366 . S
C268 C272 1.385 . S
C269 H244 0.951 . S
C269 C267 1.388 . S
C269 C270 1.366 . S
C270 C269 1.366 . S
C270 C271 1.414 . S
C270 C273 1.499 . S
C271 H245 0.950 . S
C271 C270 1.414 . S
C271 C272 1.374 . S
C272 H246 0.950 . S
C272 C268 1.385 . S
C272 C271 1.374 . S
C273 C270 1.499 . S
C273 C274 1.373 . S
C273 C275 1.389 . S
C274 H247 0.950 . S
C274 C260 1.377 . S
C274 C273 1.373 . S
C275 C259 1.377 . S
C275 C273 1.389 . S
C275 C276 1.524 . S
C276 C275 1.524 . S
C276 C277 1.397 . S
C276 C281 1.363 . S
C277 H248 0.950 . S
C277 C276 1.397 . S
C277 C278 1.334 . S
C278 H249 0.950 1_565 S
C278 C277 1.334 . S
C278 C279 1.287 1_565 S
C279 C278 1.287 1_545 S
C279 C280 1.524 1_545 S
C279 H282 0.999 . S
C280 H250 0.950 . S
C280 C279 1.524 1_565 S
C280 C281 1.415 . S
C281 H251 0.950 . S
C281 C276 1.363 . S
C281 C280 1.415 . S
H282 C279 0.999 . S
H283 C264 0.913 . S
H284 C302 0.951 . S
H285 C304 0.951 . S
H286 C306 0.950 1_655 S
H287 C307 0.950 . S
H288 C309 0.950 . S
H289 C312 0.950 . S
H290 C313 0.934 1_545 S
H291 C315 0.950 1_545 S
H292 C316 0.950 . S
H293 C317 0.951 . S
H294 C319 0.951 . S
H295 C321 0.950 1_455 S
H296 C322 0.950 . S
H297 C324 0.950 . S
H298 C327 0.950 . S
H299 C328 0.950 . S
H300 C330 0.950 . S
H301 C331 0.950 . S
C302 H284 0.951 . S
C302 C303 1.366 . S
C302 C304 1.388 . S
C303 C302 1.366 . S
C303 C307 1.385 . S
C304 H285 0.951 . S
C304 C302 1.388 . S
C304 C305 1.366 . S
C305 C304 1.366 . S
C305 C306 1.414 . S
C305 C308 1.499 . S
C306 H286 0.950 1_455 S
C306 C305 1.414 . S
C306 C307 1.374 . S
C307 H287 0.950 . S
C307 C303 1.385 . S
C307 C306 1.374 . S
C308 C305 1.499 . S
C308 C309 1.373 1_455 S
C308 C310 1.389 . S
C309 H288 0.950 . S
C309 C308 1.373 1_655 S
C309 C325 1.377 . S
C310 C308 1.389 . S
C310 C311 1.524 . S
C310 C324 1.377 . S
C311 C310 1.524 . S
C311 C312 1.397 . S
C311 C316 1.363 . S
C312 H289 0.950 . S
C312 C311 1.397 . S
C312 C313 1.334 . S
C313 H290 0.934 1_565 S
C313 C312 1.334 . S
C313 C314 1.287 1_565 S
C314 C313 1.287 1_545 S
C314 C315 1.524 1_545 S
C314 H333 0.913 . S
C315 H291 0.950 1_565 S
C315 C314 1.524 1_565 S
C315 C316 1.415 . S
C316 H292 0.950 . S
C316 C311 1.363 . S
C316 C315 1.415 . S
C317 H293 0.951 . S
C317 C318 1.366 . S
C317 C319 1.388 . S
C318 C317 1.366 . S
C318 C322 1.385 . S
C319 H294 0.951 . S
C319 C317 1.388 . S
C319 C320 1.366 . S
C320 C319 1.366 . S
C320 C321 1.414 . S
C320 C323 1.499 . S
C321 H295 0.950 1_655 S
C321 C320 1.414 . S
C321 C322 1.374 . S
C322 H296 0.950 . S
C322 C318 1.385 . S
C322 C321 1.374 . S
C323 C320 1.499 . S
C323 C324 1.373 1_655 S
C323 C325 1.389 . S
C324 H297 0.950 . S
C324 C310 1.377 . S
C324 C323 1.373 1_455 S
C325 C309 1.377 . S
C325 C323 1.389 . S
C325 C326 1.524 . S
C326 C325 1.524 . S
C326 C327 1.397 . S
C326 C331 1.363 . S
C327 H298 0.950 . S
C327 C326 1.397 . S
C327 C328 1.334 . S
C328 H299 0.950 . S
C328 C327 1.334 . S
C328 C329 1.287 . S
C329 C328 1.287 . S
C329 C330 1.524 . S
C329 H332 0.999 . S
C330 H300 0.950 . S
C330 C329 1.524 . S
C330 C331 1.415 . S
C331 H301 0.950 . S
C331 C326 1.363 . S
C331 C330 1.415 . S
H332 C329 0.999 . S
H333 C314 0.913 . S
H334 C352 0.951 . S
H335 C354 0.951 . S
H336 C356 0.950 1_565 S
H337 C357 0.950 . S
H338 C359 0.950 . S
H339 C362 0.950 . S
H340 C363 0.950 . S
H341 C365 0.950 . S
H342 C366 0.950 . S
H343 C367 0.951 . S
H344 C369 0.951 . S
H345 C371 0.950 1_545 S
H346 C372 0.950 . S
H347 C374 0.950 . S
H348 C377 0.950 . S
H349 C378 0.950 . S
H350 C380 0.950 . S
H351 C381 0.950 . S
C352 H334 0.951 . S
C352 C353 1.366 . S
C352 C354 1.388 . S
C353 C352 1.366 . S
C353 C357 1.385 . S
C354 H335 0.951 . S
C354 C352 1.388 . S
C354 C355 1.366 . S
C355 C354 1.366 . S
C355 C356 1.414 . S
C355 C358 1.499 . S
C356 H336 0.950 1_545 S
C356 C355 1.414 . S
C356 C357 1.374 . S
C357 H337 0.950 . S
C357 C353 1.385 . S
C357 C356 1.374 . S
C358 C355 1.499 . S
C358 C359 1.373 1_545 S
C358 C360 1.389 . S
C359 H338 0.950 . S
C359 C358 1.373 1_565 S
C359 C375 1.377 . S
C360 C358 1.389 . S
C360 C361 1.524 . S
C360 C374 1.377 . S
C361 C360 1.524 . S
C361 C362 1.397 . S
C361 C366 1.363 . S
C362 H339 0.950 . S
C362 C361 1.397 . S
C362 C363 1.334 . S
C363 H340 0.950 . S
C363 C362 1.334 . S
C363 C364 1.287 . S
C364 C363 1.287 . S
C364 C365 1.524 . S
C364 H383 0.913 . S
C365 H341 0.950 . S
C365 C364 1.524 . S
C365 C366 1.415 . S
C366 H342 0.950 . S
C366 C361 1.363 . S
C366 C365 1.415 . S
C367 H343 0.951 . S
C367 C368 1.366 . S
C367 C369 1.388 . S
C368 C367 1.366 . S
C368 C372 1.385 . S
C369 H344 0.951 . S
C369 C367 1.388 . S
C369 C370 1.366 . S
C370 C369 1.366 . S
C370 C371 1.414 . S
C370 C373 1.499 . S
C371 H345 0.950 1_565 S
C371 C370 1.414 . S
C371 C372 1.374 . S
C372 H346 0.950 . S
C372 C368 1.385 . S
C372 C371 1.374 . S
C373 C370 1.499 . S
C373 C374 1.373 1_565 S
C373 C375 1.389 . S
C374 H347 0.950 . S
C374 C360 1.377 . S
C374 C373 1.373 1_545 S
C375 C359 1.377 . S
C375 C373 1.389 . S
C375 C376 1.524 . S
C376 C375 1.524 . S
C376 C377 1.397 . S
C376 C381 1.363 . S
C377 H348 0.950 . S
C377 C376 1.397 . S
C377 C378 1.334 . S
C378 H349 0.950 . S
C378 C377 1.334 . S
C378 C379 1.287 . S
C379 C378 1.287 . S
C379 C380 1.524 . S
C379 H382 0.999 . S
C380 H350 0.950 . S
C380 C379 1.524 . S
C380 C381 1.415 . S
C381 H351 0.950 . S
C381 C376 1.363 . S
C381 C380 1.415 . S
H382 C379 0.999 . S
H383 C364 0.913 . S
H384 C402 0.951 1_556 S
H385 C404 0.951 1_556 S
H386 C406 0.950 . S
H387 C407 0.950 . S
H388 C409 0.950 . S
H389 C412 0.950 . S
H390 C413 0.950 . S
H391 C415 0.950 . S
H392 C416 0.950 . S
H393 C417 0.951 . S
H394 C419 0.951 . S
H395 C421 0.934 1_556 S
H396 C422 0.950 1_556 S
H397 C424 0.950 . S
H398 C427 0.950 . S
H399 C428 0.950 . S
H400 C430 0.950 1_554 S
H401 C431 0.950 . S
C402 H384 0.951 1_554 S
C402 C403 1.366 . S
C402 C404 1.388 . S
C403 C402 1.366 . S
C403 C407 1.385 . S
C404 H385 0.951 1_554 S
C404 C402 1.388 . S
C404 C405 1.366 . S
C405 C404 1.366 . S
C405 C406 1.414 . S
C405 C408 1.499 . S
C406 H386 0.950 . S
C406 C405 1.414 . S
C406 C407 1.374 . S
C407 H387 0.950 . S
C407 C403 1.385 . S
C407 C406 1.374 . S
C408 C405 1.499 . S
C408 C409 1.373 . S
C408 C410 1.389 . S
C409 H388 0.950 . S
C409 C408 1.373 . S
C409 C425 1.377 . S
C410 C408 1.389 . S
C410 C411 1.524 . S
C410 C424 1.377 . S
C411 C410 1.524 . S
C411 C412 1.397 . S
C411 C416 1.363 . S
C412 H389 0.950 . S
C412 C411 1.397 . S
C412 C413 1.334 . S
C413 H390 0.950 . S
C413 C412 1.334 . S
C413 C414 1.287 . S
C414 C413 1.287 . S
C414 C415 1.524 . S
C414 H433 0.913 . S
C415 H391 0.950 . S
C415 C414 1.524 . S
C415 C416 1.415 . S
C416 H392 0.950 . S
C416 C411 1.363 . S
C416 C415 1.415 . S
C417 H393 0.951 . S
C417 C418 1.366 . S
C417 C419 1.388 . S
C418 C417 1.366 . S
C418 C422 1.385 . S
C419 H394 0.951 . S
C419 C417 1.388 . S
C419 C420 1.366 . S
C420 C419 1.366 . S
C420 C421 1.431 . S
C420 C423 1.499 . S
C421 H395 0.934 1_554 S
C421 C420 1.431 . S
C421 C422 1.375 . S
C422 H396 0.950 1_554 S
C422 C418 1.385 . S
C422 C421 1.375 . S
C423 C420 1.499 . S
C423 C424 1.373 . S
C423 C425 1.389 . S
C424 H397 0.950 . S
C424 C410 1.377 . S
C424 C423 1.373 . S
C425 C409 1.377 . S
C425 C423 1.389 . S
C425 C426 1.524 1_554 S
C426 C425 1.524 1_556 S
C426 C427 1.397 . S
C426 C431 1.363 1_556 S
C427 H398 0.950 . S
C427 C426 1.397 . S
C427 C428 1.334 . S
C428 H399 0.950 . S
C428 C427 1.334 . S
C428 C429 1.287 . S
C429 C428 1.287 . S
C429 C430 1.524 . S
C429 H432 0.999 . S
C430 H400 0.950 1_556 S
C430 C429 1.524 . S
C430 C431 1.415 1_556 S
C431 H401 0.950 . S
C431 C426 1.363 1_554 S
C431 C430 1.415 1_554 S
H432 C429 0.999 . S
H433 C414 0.913 . S
H434 C452 0.951 . S
H435 C454 0.951 . S
H436 C456 0.950 1_455 S
H437 C457 0.950 . S
H438 C459 0.950 . S
H439 C462 0.950 . S
H440 C463 0.950 . S
H441 C465 0.950 . S
H442 C466 0.950 . S
H443 C467 0.951 . S
H444 C469 0.951 . S
H445 C471 0.950 1_655 S
H446 C472 0.950 . S
H447 C474 0.950 . S
H448 C477 0.950 . S
H449 C478 0.950 . S
H450 C480 0.950 . S
H451 C481 0.950 . S
C452 H434 0.951 . S
C452 C453 1.366 . S
C452 C454 1.388 . S
C453 C452 1.366 . S
C453 C457 1.385 . S
C454 H435 0.951 . S
C454 C452 1.388 . S
C454 C455 1.366 . S
C455 C454 1.366 . S
C455 C456 1.414 . S
C455 C458 1.499 . S
C456 H436 0.950 1_655 S
C456 C455 1.414 . S
C456 C457 1.374 . S
C457 H437 0.950 . S
C457 C453 1.385 . S
C457 C456 1.374 . S
C458 C455 1.499 . S
C458 C459 1.373 1_655 S
C458 C460 1.389 . S
C459 H438 0.950 . S
C459 C458 1.373 1_455 S
C459 C475 1.377 . S
C460 C458 1.389 . S
C460 C461 1.524 . S
C460 C474 1.377 . S
C461 C460 1.524 . S
C461 C462 1.397 . S
C461 C466 1.363 . S
C462 H439 0.950 . S
C462 C461 1.397 . S
C462 C463 1.334 . S
C463 H440 0.950 . S
C463 C462 1.334 . S
C463 C464 1.287 . S
C464 C463 1.287 . S
C464 C465 1.524 . S
C464 H483 0.913 . S
C465 H441 0.950 . S
C465 C464 1.524 . S
C465 C466 1.415 . S
C466 H442 0.950 . S
C466 C461 1.363 . S
C466 C465 1.415 . S
C467 H443 0.951 . S
C467 C468 1.366 . S
C467 C469 1.388 . S
C468 C467 1.366 . S
C468 C472 1.385 . S
C469 H444 0.951 . S
C469 C467 1.388 . S
C469 C470 1.366 . S
C470 C469 1.366 . S
C470 C471 1.414 . S
C470 C473 1.499 . S
C471 H445 0.950 1_455 S
C471 C470 1.414 . S
C471 C472 1.374 . S
C472 H446 0.950 . S
C472 C468 1.385 . S
C472 C471 1.374 . S
C473 C470 1.499 . S
C473 C474 1.373 1_455 S
C473 C475 1.389 . S
C474 H447 0.950 . S
C474 C460 1.377 . S
C474 C473 1.373 1_655 S
C475 C459 1.377 . S
C475 C473 1.389 . S
C475 C476 1.524 . S
C476 C475 1.524 . S
C476 C477 1.397 . S
C476 C481 1.363 . S
C477 H448 0.950 . S
C477 C476 1.397 . S
C477 C478 1.334 . S
C478 H449 0.950 . S
C478 C477 1.334 . S
C478 C479 1.287 . S
C479 C478 1.287 . S
C479 C480 1.524 . S
C479 H482 0.999 . S
C480 H450 0.950 . S
C480 C479 1.524 . S
C480 C481 1.415 . S
C481 H451 0.950 . S
C481 C476 1.363 . S
C481 C480 1.415 . S
H482 C479 0.999 . S
H483 C464 0.913 . S
H484 C502 0.951 1_565 S
H485 C504 0.948 1_565 S
H486 C506 0.950 . S
H487 C507 0.950 . S
H488 C509 0.950 . S
H489 C512 0.950 . S
H490 C513 0.950 . S
H491 C515 0.950 . S
H492 C516 0.950 . S
H493 C517 0.951 1_545 S
H494 C519 0.948 1_545 S
H495 C521 0.950 . S
H496 C522 0.950 . S
H497 C524 0.950 . S
H498 C527 0.950 . S
H499 C528 0.950 . S
H500 C530 0.950 . S
H501 C531 0.950 . S
C502 H484 0.951 1_545 S
C502 C503 1.366 . S
C502 C504 1.390 . S
C503 C502 1.366 . S
C503 C507 1.385 . S
C504 H485 0.948 1_545 S
C504 C502 1.390 . S
C504 C505 1.366 . S
C505 C504 1.366 . S
C505 C506 1.414 . S
C505 C508 1.499 . S
C506 H486 0.950 . S
C506 C505 1.414 . S
C506 C507 1.374 . S
C507 H487 0.950 . S
C507 C503 1.385 . S
C507 C506 1.374 . S
C508 C505 1.499 . S
C508 C509 1.373 . S
C508 C510 1.389 1_545 S
C509 H488 0.950 . S
C509 C508 1.373 . S
C509 C525 1.377 . S
C510 C508 1.389 1_565 S
C510 C511 1.524 . S
C510 C524 1.377 . S
C511 C510 1.524 . S
C511 C512 1.397 . S
C511 C516 1.363 . S
C512 H489 0.950 . S
C512 C511 1.397 . S
C512 C513 1.334 . S
C513 H490 0.950 . S
C513 C512 1.334 . S
C513 C514 1.287 . S
C514 C513 1.287 . S
C514 C515 1.524 . S
C514 H533 0.913 . S
C515 H491 0.950 . S
C515 C514 1.524 . S
C515 C516 1.415 . S
C516 H492 0.950 . S
C516 C511 1.363 . S
C516 C515 1.415 . S
C517 H493 0.951 1_565 S
C517 C518 1.366 . S
C517 C519 1.390 . S
C518 C517 1.366 . S
C518 C522 1.385 . S
C519 H494 0.948 1_565 S
C519 C517 1.390 . S
C519 C520 1.366 . S
C520 C519 1.366 . S
C520 C521 1.414 . S
C520 C523 1.499 . S
C521 H495 0.950 . S
C521 C520 1.414 . S
C521 C522 1.374 . S
C522 H496 0.950 . S
C522 C518 1.385 . S
C522 C521 1.374 . S
C523 C520 1.499 . S
C523 C524 1.373 . S
C523 C525 1.389 1_565 S
C524 H497 0.950 . S
C524 C510 1.377 . S
C524 C523 1.373 . S
C525 C509 1.377 . S
C525 C523 1.389 1_545 S
C525 C526 1.524 . S
C526 C525 1.524 . S
C526 C527 1.397 . S
C526 C531 1.363 . S
C527 H498 0.950 . S
C527 C526 1.397 . S
C527 C528 1.334 . S
C528 H499 0.950 . S
C528 C527 1.334 . S
C528 C529 1.287 . S
C529 C528 1.287 . S
C529 C530 1.524 . S
C529 H532 0.999 . S
C530 H500 0.950 . S
C530 C529 1.524 . S
C530 C531 1.415 . S
C531 H501 0.950 . S
C531 C526 1.363 . S
C531 C530 1.415 . S
H532 C529 0.999 . S
H533 C514 0.913 . S
H534 C552 0.951 . S
H535 C554 0.951 . S
H536 C556 0.950 . S
H537 C557 0.950 . S
H538 C559 0.950 . S
H539 C562 0.950 . S
H540 C563 0.950 . S
H541 C565 0.950 . S
H542 C566 0.950 . S
H543 C567 0.951 . S
H544 C569 0.951 . S
H545 C571 0.950 . S
H546 C572 0.950 . S
H547 C574 0.950 . S
H548 C577 0.950 . S
H549 C578 0.950 . S
H550 C580 0.950 . S
H551 C581 0.950 . S
C552 H534 0.951 . S
C552 C553 1.366 . S
C552 C554 1.388 . S
C553 C552 1.366 . S
C553 C557 1.385 . S
C554 H535 0.951 . S
C554 C552 1.388 . S
C554 C555 1.366 . S
C555 C554 1.366 . S
C555 C556 1.414 . S
C555 C558 1.499 . S
C556 H536 0.950 . S
C556 C555 1.414 . S
C556 C557 1.374 . S
C557 H537 0.950 . S
C557 C553 1.385 . S
C557 C556 1.374 . S
C558 C555 1.499 . S
C558 C559 1.373 . S
C558 C560 1.389 . S
C559 H538 0.950 . S
C559 C558 1.373 . S
C559 C575 1.377 . S
C560 C558 1.389 . S
C560 C561 1.524 . S
C560 C574 1.377 . S
C561 C560 1.524 . S
C561 C562 1.397 . S
C561 C566 1.363 . S
C562 H539 0.950 . S
C562 C561 1.397 . S
C562 C563 1.334 . S
C563 H540 0.950 . S
C563 C562 1.334 . S
C563 C564 1.287 . S
C564 C563 1.287 . S
C564 C565 1.524 . S
C564 H583 0.913 . S
C565 H541 0.950 . S
C565 C564 1.524 . S
C565 C566 1.415 . S
C566 H542 0.950 . S
C566 C561 1.363 . S
C566 C565 1.415 . S
C567 H543 0.951 . S
C567 C568 1.366 . S
C567 C569 1.388 . S
C568 C567 1.366 . S
C568 C572 1.385 . S
C569 H544 0.951 . S
C569 C567 1.388 . S
C569 C570 1.366 . S
C570 C569 1.366 . S
C570 C571 1.414 . S
C570 C573 1.499 . S
C571 H545 0.950 . S
C571 C570 1.414 . S
C571 C572 1.374 . S
C572 H546 0.950 . S
C572 C568 1.385 . S
C572 C571 1.374 . S
C573 C570 1.499 . S
C573 C574 1.373 . S
C573 C575 1.389 . S
C574 H547 0.950 . S
C574 C560 1.377 . S
C574 C573 1.373 . S
C575 C559 1.377 . S
C575 C573 1.389 . S
C575 C576 1.524 . S
C576 C575 1.524 . S
C576 C577 1.397 . S
C576 C581 1.363 . S
C577 H548 0.950 . S
C577 C576 1.397 . S
C577 C578 1.334 . S
C578 H549 0.950 . S
C578 C577 1.334 . S
C578 C579 1.287 . S
C579 C578 1.287 . S
C579 C580 1.524 . S
C579 H582 0.999 . S
C580 H550 0.950 . S
C580 C579 1.524 . S
C580 C581 1.415 . S
C581 H551 0.950 . S
C581 C576 1.363 . S
C581 C580 1.415 . S
H582 C579 0.999 . S
H583 C564 0.913 . S
H584 C602 0.951 . S
H585 C604 0.951 . S
H586 C606 0.950 . S
H587 C607 0.950 . S
H588 C609 0.950 . S
H589 C612 0.950 1_556 S
H590 C613 0.950 . S
H591 C615 0.950 . S
H592 C616 0.950 . S
H593 C617 0.951 . S
H594 C619 0.951 . S
H595 C621 0.950 . S
H596 C622 0.950 . S
H597 C624 0.950 . S
H598 C627 0.950 . S
H599 C628 0.950 . S
H600 C630 0.950 . S
H601 C631 0.950 . S
C602 H584 0.951 . S
C602 C603 1.366 1_554 S
C602 C604 1.388 . S
C603 C602 1.366 1_556 S
C603 C607 1.385 . S
C604 H585 0.951 . S
C604 C602 1.388 . S
C604 C605 1.366 1_554 S
C605 C604 1.366 1_556 S
C605 C606 1.414 . S
C605 C608 1.499 . S
C606 H586 0.950 . S
C606 C605 1.414 . S
C606 C607 1.374 . S
C607 H587 0.950 . S
C607 C603 1.385 . S
C607 C606 1.374 . S
C608 C605 1.499 . S
C608 C609 1.373 . S
C608 C610 1.389 1_656 S
C609 H588 0.950 . S
C609 C608 1.373 . S
C609 C625 1.377 . S
C610 C608 1.389 1_454 S
C610 C611 1.524 . S
C610 C624 1.377 . S
C611 C610 1.524 . S
C611 C612 1.397 . S
C611 C616 1.363 . S
C612 H589 0.950 1_554 S
C612 C611 1.397 . S
C612 C613 1.334 . S
C613 H590 0.950 . S
C613 C612 1.334 . S
C613 C614 1.287 . S
C614 C613 1.287 . S
C614 C615 1.524 . S
C614 H633 0.913 . S
C615 H591 0.950 . S
C615 C614 1.524 . S
C615 C616 1.415 . S
C616 H592 0.950 . S
C616 C611 1.363 . S
C616 C615 1.415 . S
C617 H593 0.951 . S
C617 C618 1.366 . S
C617 C619 1.388 . S
C618 C617 1.366 . S
C618 C622 1.385 1_556 S
C619 H594 0.951 . S
C619 C617 1.388 . S
C619 C620 1.366 . S
C620 C619 1.366 . S
C620 C621 1.414 1_556 S
C620 C623 1.499 . S
C621 H595 0.950 . S
C621 C620 1.414 1_554 S
C621 C622 1.374 . S
C622 H596 0.950 . S
C622 C618 1.385 1_554 S
C622 C621 1.374 . S
C623 C620 1.499 . S
C623 C624 1.373 1_556 S
C623 C625 1.389 1_455 S
C624 H597 0.950 . S
C624 C610 1.377 . S
C624 C623 1.373 1_554 S
C625 C609 1.377 . S
C625 C623 1.389 1_655 S
C625 C626 1.524 . S
C626 C625 1.524 . S
C626 C627 1.397 . S
C626 C631 1.363 . S
C627 H598 0.950 . S
C627 C626 1.397 . S
C627 C628 1.334 . S
C628 H599 0.950 . S
C628 C627 1.334 . S
C628 C629 1.287 . S
C629 C628 1.287 . S
C629 C630 1.524 . S
C629 H632 0.999 . S
C630 H600 0.950 . S
C630 C629 1.524 . S
C630 C631 1.415 . S
C631 H601 0.950 . S
C631 C626 1.363 . S
C631 C630 1.415 . S
H632 C629 0.999 . S
H633 C614 0.913 . S
H634 C652 0.951 . S
H635 C654 0.951 . S
H636 C656 0.950 1_565 S
H637 C657 0.950 . S
H638 C659 0.950 . S
H639 C662 0.950 . S
H640 C663 0.950 . S
H641 C665 0.950 . S
H642 C666 0.950 . S
H643 C667 0.951 . S
H644 C669 0.951 . S
H645 C671 0.950 1_545 S
H646 C672 0.950 . S
H647 C674 0.950 . S
H648 C677 0.950 . S
H649 C678 0.950 . S
H650 C680 0.950 . S
H651 C681 0.950 . S
C652 H634 0.951 . S
C652 C653 1.366 . S
C652 C654 1.388 . S
C653 C652 1.366 . S
C653 C657 1.385 . S
C654 H635 0.951 . S
C654 C652 1.388 . S
C654 C655 1.366 . S
C655 C654 1.366 . S
C655 C656 1.414 . S
C655 C658 1.499 . S
C656 H636 0.950 1_545 S
C656 C655 1.414 . S
C656 C657 1.374 . S
C657 H637 0.950 . S
C657 C653 1.385 . S
C657 C656 1.374 . S
C658 C655 1.499 . S
C658 C659 1.373 . S
C658 C660 1.389 . S
C659 H638 0.950 . S
C659 C658 1.373 . S
C659 C675 1.377 1_545 S
C660 C658 1.389 . S
C660 C661 1.524 . S
C660 C674 1.377 1_545 S
C661 C660 1.524 . S
C661 C662 1.397 1_545 S
C661 C666 1.363 . S
C662 H639 0.950 . S
C662 C661 1.397 1_565 S
C662 C663 1.334 . S
C663 H640 0.950 . S
C663 C662 1.334 . S
C663 C664 1.287 1_565 S
C664 C663 1.287 1_545 S
C664 C665 1.524 . S
C664 H683 0.913 . S
C665 H641 0.950 . S
C665 C664 1.524 . S
C665 C666 1.415 . S
C666 H642 0.950 . S
C666 C661 1.363 . S
C666 C665 1.415 . S
C667 H643 0.951 . S
C667 C668 1.366 . S
C667 C669 1.388 . S
C668 C667 1.366 . S
C668 C672 1.385 . S
C669 H644 0.951 . S
C669 C667 1.388 . S
C669 C670 1.366 . S
C670 C669 1.366 . S
C670 C671 1.414 . S
C670 C673 1.499 . S
C671 H645 0.950 1_565 S
C671 C670 1.414 . S
C671 C672 1.374 . S
C672 H646 0.950 . S
C672 C668 1.385 . S
C672 C671 1.374 . S
C673 C670 1.499 . S
C673 C674 1.373 . S
C673 C675 1.389 . S
C674 H647 0.950 . S
C674 C660 1.377 1_565 S
C674 C673 1.373 . S
C675 C659 1.377 1_565 S
C675 C673 1.389 . S
C675 C676 1.524 . S
C676 C675 1.524 . S
C676 C677 1.397 1_565 S
C676 C681 1.363 . S
C677 H648 0.950 . S
C677 C676 1.397 1_545 S
C677 C678 1.334 . S
C678 H649 0.950 . S
C678 C677 1.334 . S
C678 C679 1.287 1_545 S
C679 C678 1.287 1_565 S
C679 C680 1.524 . S
C679 H682 0.999 . S
C680 H650 0.950 . S
C680 C679 1.524 . S
C680 C681 1.415 . S
C681 H651 0.950 . S
C681 C676 1.363 . S
C681 C680 1.415 . S
H682 C679 0.999 . S
H683 C664 0.913 . S
C103 C77 1.153 . S
C118 C3 1.138 . S
C153 C17 1.137 . S
C168 C7 1.153 . S
C203 C21 1.153 . S
C218 C31 1.138 . S
C253 C45 1.138 . S
C268 C35 1.153 . S
C303 C59 1.137 . S
C318 C49 1.153 . S
C353 C73 1.137 . S
C368 C63 1.153 . S
C403 C9 1.390 . S
C418 C51 1.390 . S
C453 C23 1.390 . S
C468 C65 1.390 . S
C503 C79 1.390 . S
C518 C37 1.391 . S
C553 C78 1.317 . S
C568 C36 1.317 . S
C603 C50 1.316 . S
C618 C8 1.316 . S
C653 C22 1.317 . S
C668 C64 1.316 . S
