# Generated by pormake.
# Topology ulj, (4)-cn, num edge types: 1
# Building blocks:
#     Node 0, Type 0, BuildingBlock: ESEHIV_clean_sbu_0, # of connection points: 4
#     Node 1, Type 0, BuildingBlock: ESEHIV_clean_sbu_0, # of connection points: 4
#     Node 2, Type 0, BuildingBlock: ESEHIV_clean_sbu_0, # of connection points: 4
#     Node 3, Type 0, BuildingBlock: ESEHIV_clean_sbu_0, # of connection points: 4
#     Node 4, Type 0, BuildingBlock: ESEHIV_clean_sbu_0, # of connection points: 4
#     Node 5, Type 0, BuildingBlock: ESEHIV_clean_sbu_0, # of connection points: 4
#     Node 6, Type 0, BuildingBlock: ESEHIV_clean_sbu_0, # of connection points: 4
#     Node 7, Type 0, BuildingBlock: ESEHIV_clean_sbu_0, # of connection points: 4
#     Node 8, Type 0, BuildingBlock: ESEHIV_clean_sbu_0, # of connection points: 4
#     Node 9, Type 0, BuildingBlock: ESEHIV_clean_sbu_0, # of connection points: 4
#     Node 10, Type 0, BuildingBlock: ESEHIV_clean_sbu_0, # of connection points: 4
#     Node 11, Type 0, BuildingBlock: ESEHIV_clean_sbu_0, # of connection points: 4
#     Node 12, Type 0, BuildingBlock: ESEHIV_clean_sbu_0, # of connection points: 4
#     Node 13, Type 0, BuildingBlock: ESEHIV_clean_sbu_0, # of connection points: 4
#     Node 14, Type 0, BuildingBlock: ESEHIV_clean_sbu_0, # of connection points: 4
#     Node 15, Type 0, BuildingBlock: ESEHIV_clean_sbu_0, # of connection points: 4
#     Node 16, Type 0, BuildingBlock: ESEHIV_clean_sbu_0, # of connection points: 4
#     Node 17, Type 0, BuildingBlock: ESEHIV_clean_sbu_0, # of connection points: 4
#     Node 18, Type 0, BuildingBlock: ESEHIV_clean_sbu_0, # of connection points: 4
#     Node 19, Type 0, BuildingBlock: ESEHIV_clean_sbu_0, # of connection points: 4
#     Node 20, Type 0, BuildingBlock: ESEHIV_clean_sbu_0, # of connection points: 4
#     Node 21, Type 0, BuildingBlock: ESEHIV_clean_sbu_0, # of connection points: 4
#     Node 22, Type 0, BuildingBlock: ESEHIV_clean_sbu_0, # of connection points: 4
#     Node 23, Type 0, BuildingBlock: ESEHIV_clean_sbu_0, # of connection points: 4
#     Node 24, Type 0, BuildingBlock: ESEHIV_clean_sbu_0, # of connection points: 4
#     Node 25, Type 0, BuildingBlock: ESEHIV_clean_sbu_0, # of connection points: 4
#     Node 26, Type 0, BuildingBlock: ESEHIV_clean_sbu_0, # of connection points: 4
#     Node 27, Type 0, BuildingBlock: ESEHIV_clean_sbu_0, # of connection points: 4
#     Node 28, Type 0, BuildingBlock: ESEHIV_clean_sbu_0, # of connection points: 4
#     Node 29, Type 0, BuildingBlock: ESEHIV_clean_sbu_0, # of connection points: 4
#     Node 30, Type 0, BuildingBlock: ESEHIV_clean_sbu_0, # of connection points: 4
#     Node 31, Type 0, BuildingBlock: ESEHIV_clean_sbu_0, # of connection points: 4
#     Node 32, Type 0, BuildingBlock: ESEHIV_clean_sbu_0, # of connection points: 4
#     Node 33, Type 0, BuildingBlock: ESEHIV_clean_sbu_0, # of connection points: 4
#     Node 34, Type 0, BuildingBlock: ESEHIV_clean_sbu_0, # of connection points: 4
#     Node 35, Type 0, BuildingBlock: ESEHIV_clean_sbu_0, # of connection points: 4
#     Node 36, Type 0, BuildingBlock: ESEHIV_clean_sbu_0, # of connection points: 4
#     Node 37, Type 0, BuildingBlock: ESEHIV_clean_sbu_0, # of connection points: 4
#     Node 38, Type 0, BuildingBlock: ESEHIV_clean_sbu_0, # of connection points: 4
#     Node 39, Type 0, BuildingBlock: ESEHIV_clean_sbu_0, # of connection points: 4
#     Node 40, Type 0, BuildingBlock: ESEHIV_clean_sbu_0, # of connection points: 4
#     Node 41, Type 0, BuildingBlock: ESEHIV_clean_sbu_0, # of connection points: 4
#     Node 42, Type 0, BuildingBlock: ESEHIV_clean_sbu_0, # of connection points: 4
#     Node 43, Type 0, BuildingBlock: ESEHIV_clean_sbu_0, # of connection points: 4
#     Node 44, Type 0, BuildingBlock: ESEHIV_clean_sbu_0, # of connection points: 4
#     Node 45, Type 0, BuildingBlock: ESEHIV_clean_sbu_0, # of connection points: 4
#     Node 46, Type 0, BuildingBlock: ESEHIV_clean_sbu_0, # of connection points: 4
#     Node 47, Type 0, BuildingBlock: ESEHIV_clean_sbu_0, # of connection points: 4
#     Edge 48, Type (0, 0), BuildingBlock: XUDNAN_clean_linker_2, # of connection points: 2
#     Edge 49, Type (0, 0), BuildingBlock: XUDNAN_clean_linker_2, # of connection points: 2
#     Edge 50, Type (0, 0), BuildingBlock: XUDNAN_clean_linker_2, # of connection points: 2
#     Edge 51, Type (0, 0), BuildingBlock: XUDNAN_clean_linker_2, # of connection points: 2
#     Edge 52, Type (0, 0), BuildingBlock: XUDNAN_clean_linker_2, # of connection points: 2
#     Edge 53, Type (0, 0), BuildingBlock: XUDNAN_clean_linker_2, # of connection points: 2
#     Edge 54, Type (0, 0), BuildingBlock: XUDNAN_clean_linker_2, # of connection points: 2
#     Edge 55, Type (0, 0), BuildingBlock: XUDNAN_clean_linker_2, # of connection points: 2
#     Edge 56, Type (0, 0), BuildingBlock: XUDNAN_clean_linker_2, # of connection points: 2
#     Edge 57, Type (0, 0), BuildingBlock: XUDNAN_clean_linker_2, # of connection points: 2
#     Edge 58, Type (0, 0), BuildingBlock: XUDNAN_clean_linker_2, # of connection points: 2
#     Edge 59, Type (0, 0), BuildingBlock: XUDNAN_clean_linker_2, # of connection points: 2
#     Edge 60, Type (0, 0), BuildingBlock: XUDNAN_clean_linker_2, # of connection points: 2
#     Edge 61, Type (0, 0), BuildingBlock: XUDNAN_clean_linker_2, # of connection points: 2
#     Edge 62, Type (0, 0), BuildingBlock: XUDNAN_clean_linker_2, # of connection points: 2
#     Edge 63, Type (0, 0), BuildingBlock: XUDNAN_clean_linker_2, # of connection points: 2
#     Edge 64, Type (0, 0), BuildingBlock: XUDNAN_clean_linker_2, # of connection points: 2
#     Edge 65, Type (0, 0), BuildingBlock: XUDNAN_clean_linker_2, # of connection points: 2
#     Edge 66, Type (0, 0), BuildingBlock: XUDNAN_clean_linker_2, # of connection points: 2
#     Edge 67, Type (0, 0), BuildingBlock: XUDNAN_clean_linker_2, # of connection points: 2
#     Edge 68, Type (0, 0), BuildingBlock: XUDNAN_clean_linker_2, # of connection points: 2
#     Edge 69, Type (0, 0), BuildingBlock: XUDNAN_clean_linker_2, # of connection points: 2
#     Edge 70, Type (0, 0), BuildingBlock: XUDNAN_clean_linker_2, # of connection points: 2
#     Edge 71, Type (0, 0), BuildingBlock: XUDNAN_clean_linker_2, # of connection points: 2
#     Edge 72, Type (0, 0), BuildingBlock: XUDNAN_clean_linker_2, # of connection points: 2
#     Edge 73, Type (0, 0), BuildingBlock: XUDNAN_clean_linker_2, # of connection points: 2
#     Edge 74, Type (0, 0), BuildingBlock: XUDNAN_clean_linker_2, # of connection points: 2
#     Edge 75, Type (0, 0), BuildingBlock: XUDNAN_clean_linker_2, # of connection points: 2
#     Edge 76, Type (0, 0), BuildingBlock: XUDNAN_clean_linker_2, # of connection points: 2
#     Edge 77, Type (0, 0), BuildingBlock: XUDNAN_clean_linker_2, # of connection points: 2
#     Edge 78, Type (0, 0), BuildingBlock: XUDNAN_clean_linker_2, # of connection points: 2
#     Edge 79, Type (0, 0), BuildingBlock: XUDNAN_clean_linker_2, # of connection points: 2
#     Edge 80, Type (0, 0), BuildingBlock: XUDNAN_clean_linker_2, # of connection points: 2
#     Edge 81, Type (0, 0), BuildingBlock: XUDNAN_clean_linker_2, # of connection points: 2
#     Edge 82, Type (0, 0), BuildingBlock: XUDNAN_clean_linker_2, # of connection points: 2
#     Edge 83, Type (0, 0), BuildingBlock: XUDNAN_clean_linker_2, # of connection points: 2
#     Edge 84, Type (0, 0), BuildingBlock: XUDNAN_clean_linker_2, # of connection points: 2
#     Edge 85, Type (0, 0), BuildingBlock: XUDNAN_clean_linker_2, # of connection points: 2
#     Edge 86, Type (0, 0), BuildingBlock: XUDNAN_clean_linker_2, # of connection points: 2
#     Edge 87, Type (0, 0), BuildingBlock: XUDNAN_clean_linker_2, # of connection points: 2
#     Edge 88, Type (0, 0), BuildingBlock: XUDNAN_clean_linker_2, # of connection points: 2
#     Edge 89, Type (0, 0), BuildingBlock: XUDNAN_clean_linker_2, # of connection points: 2
#     Edge 90, Type (0, 0), BuildingBlock: XUDNAN_clean_linker_2, # of connection points: 2
#     Edge 91, Type (0, 0), BuildingBlock: XUDNAN_clean_linker_2, # of connection points: 2
#     Edge 92, Type (0, 0), BuildingBlock: XUDNAN_clean_linker_2, # of connection points: 2
#     Edge 93, Type (0, 0), BuildingBlock: XUDNAN_clean_linker_2, # of connection points: 2
#     Edge 94, Type (0, 0), BuildingBlock: XUDNAN_clean_linker_2, # of connection points: 2
#     Edge 95, Type (0, 0), BuildingBlock: XUDNAN_clean_linker_2, # of connection points: 2
#     Edge 96, Type (0, 0), BuildingBlock: XUDNAN_clean_linker_2, # of connection points: 2
#     Edge 97, Type (0, 0), BuildingBlock: XUDNAN_clean_linker_2, # of connection points: 2
#     Edge 98, Type (0, 0), BuildingBlock: XUDNAN_clean_linker_2, # of connection points: 2
#     Edge 99, Type (0, 0), BuildingBlock: XUDNAN_clean_linker_2, # of connection points: 2
#     Edge 100, Type (0, 0), BuildingBlock: XUDNAN_clean_linker_2, # of connection points: 2
#     Edge 101, Type (0, 0), BuildingBlock: XUDNAN_clean_linker_2, # of connection points: 2
#     Edge 102, Type (0, 0), BuildingBlock: XUDNAN_clean_linker_2, # of connection points: 2
#     Edge 103, Type (0, 0), BuildingBlock: XUDNAN_clean_linker_2, # of connection points: 2
#     Edge 104, Type (0, 0), BuildingBlock: XUDNAN_clean_linker_2, # of connection points: 2
#     Edge 105, Type (0, 0), BuildingBlock: XUDNAN_clean_linker_2, # of connection points: 2
#     Edge 106, Type (0, 0), BuildingBlock: XUDNAN_clean_linker_2, # of connection points: 2
#     Edge 107, Type (0, 0), BuildingBlock: XUDNAN_clean_linker_2, # of connection points: 2
#     Edge 108, Type (0, 0), BuildingBlock: XUDNAN_clean_linker_2, # of connection points: 2
#     Edge 109, Type (0, 0), BuildingBlock: XUDNAN_clean_linker_2, # of connection points: 2
#     Edge 110, Type (0, 0), BuildingBlock: XUDNAN_clean_linker_2, # of connection points: 2
#     Edge 111, Type (0, 0), BuildingBlock: XUDNAN_clean_linker_2, # of connection points: 2
#     Edge 112, Type (0, 0), BuildingBlock: XUDNAN_clean_linker_2, # of connection points: 2
#     Edge 113, Type (0, 0), BuildingBlock: XUDNAN_clean_linker_2, # of connection points: 2
#     Edge 114, Type (0, 0), BuildingBlock: XUDNAN_clean_linker_2, # of connection points: 2
#     Edge 115, Type (0, 0), BuildingBlock: XUDNAN_clean_linker_2, # of connection points: 2
#     Edge 116, Type (0, 0), BuildingBlock: XUDNAN_clean_linker_2, # of connection points: 2
#     Edge 117, Type (0, 0), BuildingBlock: XUDNAN_clean_linker_2, # of connection points: 2
#     Edge 118, Type (0, 0), BuildingBlock: XUDNAN_clean_linker_2, # of connection points: 2
#     Edge 119, Type (0, 0), BuildingBlock: XUDNAN_clean_linker_2, # of connection points: 2
#     Edge 120, Type (0, 0), BuildingBlock: XUDNAN_clean_linker_2, # of connection points: 2
#     Edge 121, Type (0, 0), BuildingBlock: XUDNAN_clean_linker_2, # of connection points: 2
#     Edge 122, Type (0, 0), BuildingBlock: XUDNAN_clean_linker_2, # of connection points: 2
#     Edge 123, Type (0, 0), BuildingBlock: XUDNAN_clean_linker_2, # of connection points: 2
#     Edge 124, Type (0, 0), BuildingBlock: XUDNAN_clean_linker_2, # of connection points: 2
#     Edge 125, Type (0, 0), BuildingBlock: XUDNAN_clean_linker_2, # of connection points: 2
#     Edge 126, Type (0, 0), BuildingBlock: XUDNAN_clean_linker_2, # of connection points: 2
#     Edge 127, Type (0, 0), BuildingBlock: XUDNAN_clean_linker_2, # of connection points: 2
#     Edge 128, Type (0, 0), BuildingBlock: XUDNAN_clean_linker_2, # of connection points: 2
#     Edge 129, Type (0, 0), BuildingBlock: XUDNAN_clean_linker_2, # of connection points: 2
#     Edge 130, Type (0, 0), BuildingBlock: XUDNAN_clean_linker_2, # of connection points: 2
#     Edge 131, Type (0, 0), BuildingBlock: XUDNAN_clean_linker_2, # of connection points: 2
#     Edge 132, Type (0, 0), BuildingBlock: XUDNAN_clean_linker_2, # of connection points: 2
#     Edge 133, Type (0, 0), BuildingBlock: XUDNAN_clean_linker_2, # of connection points: 2
#     Edge 134, Type (0, 0), BuildingBlock: XUDNAN_clean_linker_2, # of connection points: 2
#     Edge 135, Type (0, 0), BuildingBlock: XUDNAN_clean_linker_2, # of connection points: 2
#     Edge 136, Type (0, 0), BuildingBlock: XUDNAN_clean_linker_2, # of connection points: 2
#     Edge 137, Type (0, 0), BuildingBlock: XUDNAN_clean_linker_2, # of connection points: 2
#     Edge 138, Type (0, 0), BuildingBlock: XUDNAN_clean_linker_2, # of connection points: 2
#     Edge 139, Type (0, 0), BuildingBlock: XUDNAN_clean_linker_2, # of connection points: 2
#     Edge 140, Type (0, 0), BuildingBlock: XUDNAN_clean_linker_2, # of connection points: 2
#     Edge 141, Type (0, 0), BuildingBlock: XUDNAN_clean_linker_2, # of connection points: 2
#     Edge 142, Type (0, 0), BuildingBlock: XUDNAN_clean_linker_2, # of connection points: 2
#     Edge 143, Type (0, 0), BuildingBlock: XUDNAN_clean_linker_2, # of connection points: 2
# Relax obj value: 0.037
# Max RMSD: 0.127
# Mean RMSD: 0.127
data_MOF--net-ulj--node1-ESEHIV_clean_sbu_0--edge1-XUDNAN_clean_linker_2
_symmetry_space_group_name_H-M    P1
_symmetry_Int_Tables_number       1
_symmetry_cell_setting            triclinic
loop_
_symmetry_equiv_pos_as_xyz
'x, y, z'
_cell_length_a     71.040118
_cell_length_b     71.056878
_cell_length_c     71.018477
_cell_angle_alpha  89.84972
_cell_angle_beta   90.052706
_cell_angle_gamma 90.000574
loop_
_atom_site_label
_atom_site_type_symbol
_atom_site_fract_x
_atom_site_fract_y
_atom_site_fract_z
_atom_type_partial_charge
Cu0 Cu 0.13611 0.26161 0.31948 0.0
N1 N 0.11685 0.24428 0.32548 0.0
N2 N 0.09799 0.2247 0.34164 0.0
C3 C 0.11358 0.23564 0.34216 0.0
C4 C 0.09141 0.22629 0.32388 0.0
C5 C 0.10301 0.23834 0.314 0.0
O6 O 0.13056 0.28587 0.33165 0.0
C7 C 0.16384 0.2345 0.31794 0.0
O8 O 0.15028 0.22643 0.30828 0.0
H9 H 0.12248 0.23724 0.35442 0.0
H10 H 0.1013 0.24263 0.29949 0.0
N11 N 0.13679 0.26647 0.29341 0.0
N12 N 0.14822 0.27241 0.26451 0.0
C13 C 0.15209 0.2661 0.2821 0.0
C14 C 0.12279 0.27331 0.28261 0.0
C15 C 0.12975 0.27693 0.26483 0.0
C16 C 0.12337 0.28781 0.34799 0.0
O17 O 0.12144 0.27297 0.35884 0.0
H18 H 0.16599 0.26213 0.28692 0.0
H19 H 0.10865 0.27603 0.28751 0.0
O20 O 0.16056 0.25045 0.3255 0.0
H21 H 0.0788 0.21962 0.31852 0.0
H22 H 0.12187 0.28272 0.25312 0.0
Cu23 Cu 0.50815 0.63879 0.95911 0.0
N24 N 0.4985 0.63927 0.93439 0.0
N25 N 0.47911 0.65089 0.91215 0.0
C26 C 0.48168 0.64726 0.93067 0.0
C27 C 0.49511 0.64485 0.90381 0.0
C28 C 0.50708 0.63777 0.91757 0.0
O29 O 0.52296 0.66233 0.96028 0.0
C30 C 0.47968 0.61723 0.97045 0.0
O31 O 0.48643 0.60925 0.95521 0.0
H32 H 0.4722 0.65183 0.94166 0.0
H33 H 0.52146 0.63318 0.9156 0.0
N34 N 0.52342 0.61863 0.96733 0.0
N35 N 0.53263 0.59814 0.98971 0.0
C36 C 0.52491 0.61509 0.98595 0.0
C37 C 0.53065 0.60335 0.95881 0.0
C38 C 0.53654 0.59076 0.97262 0.0
C39 C 0.53976 0.66142 0.95373 0.0
O40 O 0.54663 0.6448 0.94952 0.0
H41 H 0.51944 0.62451 0.99656 0.0
H42 H 0.53054 0.60098 0.94377 0.0
O43 O 0.4861 0.63346 0.97508 0.0
H44 H 0.49831 0.64617 0.88897 0.0
H45 H 0.54218 0.57682 0.97024 0.0
Cu46 Cu 0.87082 0.26525 0.32619 0.0
N47 N 0.88478 0.28594 0.33542 0.0
N48 N 0.90364 0.305 0.35244 0.0
C49 C 0.89736 0.2871 0.34977 0.0
C50 C 0.89451 0.31528 0.33923 0.0
C51 C 0.88305 0.3036 0.32888 0.0
O52 O 0.88031 0.24224 0.33851 0.0
C53 C 0.82987 0.26308 0.32259 0.0
O54 O 0.83266 0.24867 0.31139 0.0
H55 H 0.90173 0.27508 0.35806 0.0
H56 H 0.87378 0.30774 0.31751 0.0
N57 N 0.87515 0.26292 0.29999 0.0
N58 N 0.87146 0.25971 0.26867 0.0
C59 C 0.86306 0.26401 0.28525 0.0
C60 C 0.89177 0.25808 0.29235 0.0
C61 C 0.88958 0.25611 0.27317 0.0
C62 C 0.87815 0.23884 0.356 0.0
O63 O 0.86811 0.25059 0.36612 0.0
H64 H 0.8484 0.2678 0.28654 0.0
H65 H 0.90451 0.25555 0.30032 0.0
O66 O 0.8439 0.27077 0.33081 0.0
H67 H 0.89556 0.33034 0.33732 0.0
H68 H 0.90033 0.25153 0.26342 0.0
Cu69 Cu 0.52804 0.89934 0.95099 0.0
N70 N 0.53808 0.89994 0.92645 0.0
N71 N 0.54942 0.88668 0.90014 0.0
C72 C 0.54052 0.88388 0.91666 0.0
C73 C 0.55282 0.90538 0.89943 0.0
C74 C 0.54563 0.91359 0.91564 0.0
O75 O 0.51 0.87842 0.94892 0.0
C76 C 0.56473 0.90476 0.96523 0.0
O77 O 0.57074 0.90313 0.94784 0.0
H78 H 0.53659 0.87017 0.92204 0.0
H79 H 0.54653 0.92826 0.91957 0.0
N80 N 0.51549 0.92088 0.95991 0.0
N81 N 0.50538 0.94064 0.98242 0.0
C82 C 0.51427 0.92432 0.97855 0.0
C83 C 0.50702 0.93565 0.95153 0.0
C84 C 0.50062 0.9478 0.96542 0.0
C85 C 0.49752 0.88178 0.93636 0.0
O86 O 0.49651 0.89897 0.92956 0.0
H87 H 0.51973 0.91482 0.98916 0.0
H88 H 0.50573 0.93756 0.93646 0.0
O89 O 0.54862 0.89793 0.9694 0.0
H90 H 0.5602 0.91254 0.88818 0.0
H91 H 0.49337 0.96101 0.96317 0.0
Cu92 Cu 0.15062 0.76673 0.19373 0.0
N93 N 0.14862 0.77123 0.16752 0.0
N94 N 0.13295 0.78208 0.14202 0.0
C95 C 0.1363 0.7841 0.16068 0.0
C96 C 0.14381 0.76731 0.13689 0.0
C97 C 0.15333 0.7606 0.1526 0.0
O98 O 0.126 0.75438 0.19827 0.0
C99 C 0.17659 0.79348 0.19852 0.0
O100 O 0.18202 0.78384 0.18372 0.0
H101 H 0.12872 0.79375 0.16967 0.0
H102 H 0.16198 0.74809 0.15332 0.0
N103 N 0.16922 0.75093 0.20465 0.0
N104 N 0.1875 0.74176 0.22889 0.0
C105 C 0.17385 0.75351 0.22294 0.0
C106 C 0.18059 0.73697 0.1987 0.0
C107 C 0.19171 0.73111 0.21375 0.0
C108 C 0.12566 0.73735 0.19223 0.0
O109 O 0.1415 0.72987 0.18643 0.0
H110 H 0.1672 0.76391 0.23184 0.0
H111 H 0.18084 0.73148 0.18451 0.0
O112 O 0.15995 0.79041 0.20491 0.0
H113 H 0.1443 0.76124 0.12294 0.0
H114 H 0.20229 0.72014 0.21349 0.0
Cu115 Cu 0.01709 0.61994 0.0897 0.0
N116 N 0.02985 0.6251 0.11261 0.0
N117 N 0.04431 0.64291 0.13452 0.0
C118 C 0.03536 0.64261 0.11769 0.0
C119 C 0.04441 0.62477 0.14031 0.0
C120 C 0.03537 0.61387 0.12689 0.0
O121 O 0.99979 0.64158 0.08699 0.0
C122 C 0.04915 0.60254 0.07408 0.0
O123 O 0.05556 0.60316 0.0914 0.0
H124 H 0.03303 0.65492 0.10898 0.0
H125 H 0.03311 0.59883 0.12747 0.0
N126 N 1.00186 0.59842 0.08804 0.0
N127 N 0.98786 0.57849 0.06767 0.0
C128 C 0.99053 0.59663 0.07286 0.0
C129 C 1.00643 0.58065 0.09285 0.0
C130 C 0.99771 0.56837 0.08046 0.0
C131 C 0.98837 0.64263 0.10092 0.0
O132 O 0.98897 0.62913 0.11361 0.0
H133 H 0.98672 0.60855 0.06413 0.0
H134 H 0.01725 0.57695 0.10291 0.0
O135 O 0.035 0.61289 0.06973 0.0
H136 H 0.05038 0.61975 0.15342 0.0
H137 H 0.99983 0.55331 0.08001 0.0
Cu138 Cu 0.8864 0.7584 0.20257 0.0
N139 N 0.88659 0.75012 0.17734 0.0
N140 N 0.8991 0.7356 0.15212 0.0
C141 C 0.89905 0.73718 0.1711 0.0
C142 C 0.88606 0.74816 0.14618 0.0
C143 C 0.87845 0.75714 0.16173 0.0
O144 O 0.90969 0.7738 0.20347 0.0
C145 C 0.86979 0.72435 0.21317 0.0
O146 O 0.86432 0.72511 0.19553 0.0
H147 H 0.90868 0.72984 0.18037 0.0
H148 H 0.86838 0.76855 0.16156 0.0
N149 N 0.86621 0.77312 0.21142 0.0
N150 N 0.84694 0.78318 0.2345 0.0
C151 C 0.86403 0.77605 0.23009 0.0
C152 C 0.84986 0.7786 0.20357 0.0
C153 C 0.83804 0.785 0.21774 0.0
C154 C 0.90859 0.79018 0.19586 0.0
O155 O 0.8919 0.79639 0.19085 0.0
H156 H 0.8746 0.7721 0.24033 0.0
H157 H 0.8463 0.77698 0.18886 0.0
O158 O 0.88221 0.73617 0.21886 0.0
H159 H 0.88255 0.75103 0.13162 0.0
H160 H 0.82362 0.78956 0.2159 0.0
Cu161 Cu 1.01233 0.89468 0.0783 0.0
N162 N 1.00464 0.89343 0.104 0.0
N163 N 0.99133 0.87871 0.12887 0.0
C164 C 0.99877 0.87687 0.11146 0.0
C165 C 0.99259 0.89727 0.13268 0.0
C166 C 1.00092 0.9063 0.11743 0.0
O167 O 0.02614 0.87042 0.07614 0.0
C168 C 0.98641 0.9207 0.06787 0.0
O169 O 0.99577 0.92846 0.08174 0.0
H170 H 0.99918 0.8637 0.10383 0.0
H171 H 1.00354 0.92123 0.11615 0.0
N172 N 0.02955 0.91227 0.06802 0.0
N173 N 0.03986 0.92788 0.04225 0.0
C174 C 0.03188 0.91201 0.04914 0.0
C175 C 0.03656 0.92898 0.07353 0.0
C176 C 0.04297 0.93859 0.05768 0.0
C177 C 0.04037 0.87068 0.08736 0.0
O178 O 0.0438 0.88646 0.09635 0.0
H179 H 0.02603 0.90096 0.04048 0.0
H180 H 0.03563 0.93448 0.08769 0.0
O181 O 0.98987 0.90336 0.06391 0.0
H182 H 0.98773 0.90386 0.14551 0.0
H183 H 0.04863 0.95272 0.05754 0.0
Cu184 Cu 0.33277 0.15589 0.27144 0.0
N185 N 0.33768 0.14069 0.2502 0.0
N186 N 0.35243 0.12259 0.2289 0.0
C187 C 0.35422 0.13289 0.24484 0.0
C188 C 0.33408 0.12404 0.22412 0.0
C189 C 0.32508 0.1351 0.23722 0.0
O190 O 0.34722 0.14595 0.29322 0.0
C191 C 0.32549 0.18905 0.25151 0.0
O192 O 0.3136 0.1773 0.24364 0.0
H193 H 0.36727 0.13474 0.25249 0.0
H194 H 0.31029 0.13871 0.23735 0.0
N195 N 0.30732 0.15473 0.27842 0.0
N196 N 0.27929 0.16445 0.28919 0.0
C197 C 0.29743 0.16913 0.28579 0.0
C198 C 0.29511 0.14032 0.27722 0.0
C199 C 0.2778 0.14629 0.28378 0.0
C200 C 0.34869 0.12807 0.29525 0.0
O201 O 0.34119 0.11706 0.28246 0.0
H202 H 0.30339 0.18292 0.28822 0.0
H203 H 0.29854 0.12649 0.2719 0.0
O204 O 0.33659 0.18265 0.26426 0.0
H205 H 0.32748 0.11724 0.2122 0.0
H206 H 0.26517 0.13782 0.28464 0.0
Cu207 Cu 0.40848 0.45155 0.01439 0.0
N208 N 0.39719 0.44181 0.03633 0.0
N209 N 0.37956 0.42522 0.05677 0.0
C210 C 0.38518 0.42718 0.0386 0.0
C211 C 0.38856 0.43913 0.06612 0.0
C212 C 0.39923 0.4493 0.05356 0.0
O213 O 0.39837 0.43806 0.99198 0.0
C214 C 0.44598 0.44413 0.03032 0.0
O215 O 0.43758 0.43295 0.04243 0.0
H216 H 0.38038 0.41844 0.0271 0.0
H217 H 0.4079 0.46139 0.05672 0.0
N218 N 0.40259 0.47737 1.01287 0.0
N219 N 0.40663 0.50879 1.01136 0.0
C220 C 0.41491 0.49162 1.01012 0.0
C221 C 0.38595 0.48575 0.0161 0.0
C222 C 0.38833 0.50499 0.01506 0.0
C223 C 0.38067 0.43808 0.98838 0.0
O224 O 0.36942 0.44734 0.99972 0.0
H225 H 0.42976 0.48931 1.00781 0.0
H226 H 0.37305 0.47843 0.01948 0.0
O227 O 0.43635 0.45143 0.01692 0.0
H228 H 0.38768 0.44182 0.08108 0.0
H229 H 0.37731 0.51529 0.01702 0.0
Cu230 Cu 0.68527 0.36247 0.27035 0.0
N231 N 0.6614 0.36658 0.25884 0.0
N232 N 0.63871 0.38224 0.24294 0.0
C233 C 0.65706 0.38188 0.24827 0.0
C234 C 0.63129 0.3664 0.25051 0.0
C235 C 0.64522 0.35685 0.26028 0.0
O236 O 0.68948 0.38534 0.28584 0.0
C237 C 0.69644 0.33786 0.24374 0.0
O238 O 0.67931 0.33267 0.2484 0.0
H239 H 0.66713 0.39287 0.2451 0.0
H240 H 0.64358 0.34391 0.26817 0.0
N241 N 0.68819 0.34229 0.28754 0.0
N242 N 0.70574 0.32175 0.30414 0.0
C243 C 0.70486 0.33319 0.289 0.0
C244 C 0.67805 0.33629 0.3024 0.0
C245 C 0.6889 0.3237 0.31273 0.0
C246 C 0.67542 0.38858 0.29672 0.0
O247 O 0.66113 0.37689 0.2961 0.0
H248 H 0.71675 0.336 0.2799 0.0
H249 H 0.66422 0.34141 0.30612 0.0
O250 O 0.70253 0.35352 0.25038 0.0
H251 H 0.6168 0.36194 0.24916 0.0
H252 H 0.68498 0.31706 0.32589 0.0
Cu253 Cu 0.61755 0.0813 0.01652 0.0
N254 N 0.63285 0.08951 0.03668 0.0
N255 N 0.65345 0.10586 0.05437 0.0
C256 C 0.64736 0.1019 0.03671 0.0
C257 C 0.64254 0.09521 0.06578 0.0
C258 C 0.62995 0.08525 0.0549 0.0
O259 O 0.62537 0.09541 0.99379 0.0
C260 C 0.57673 0.07555 0.0174 0.0
O261 O 0.57892 0.06587 1.00182 0.0
H262 H 0.65293 0.10838 0.0241 0.0
H263 H 0.61905 0.07588 0.05995 0.0
N264 N 0.6223 0.05558 1.01179 0.0
N265 N 0.61846 0.02451 1.00702 0.0
C266 C 0.61116 0.04038 0.01469 0.0
C267 C 0.63731 0.04899 1.00236 0.0
C268 C 0.63501 0.02996 0.99941 0.0
C269 C 0.62815 0.11317 0.99308 0.0
O270 O 0.62297 0.12358 1.00743 0.0
H271 H 0.59761 0.04106 0.02157 0.0
H272 H 0.64883 0.05761 0.99738 0.0
O273 O 0.59093 0.08407 0.0245 0.0
H274 H 0.64342 0.09471 0.08098 0.0
H275 H 0.64469 0.02094 0.9919 0.0
Cu276 Cu 0.3302 0.87848 0.26869 0.0
N277 N 0.35512 0.88191 0.2778 0.0
N278 N 0.37889 0.89827 0.29112 0.0
C279 C 0.3613 0.89891 0.28381 0.0
C280 C 0.3841 0.88004 0.28956 0.0
C281 C 0.36952 0.87004 0.28119 0.0
O282 O 0.32658 0.90188 0.25382 0.0
C283 C 0.31971 0.85807 0.3013 0.0
O284 O 0.33783 0.85792 0.30485 0.0
H285 H 0.35272 0.9115 0.28337 0.0
H286 H 0.36927 0.8551 0.27831 0.0
N287 N 0.32372 0.85874 0.25235 0.0
N288 N 0.29867 0.84216 0.24193 0.0
C289 C 0.30629 0.8594 0.24468 0.0
C290 C 0.32746 0.84025 0.25426 0.0
C291 C 0.3122 0.83003 0.24761 0.0
C292 C 0.33481 0.9017 0.23771 0.0
O293 O 0.3426 0.88594 0.23207 0.0
H294 H 0.29846 0.8724 0.24347 0.0
H295 H 0.33908 0.83463 0.26236 0.0
O296 O 0.3134 0.87014 0.28936 0.0
H297 H 0.39746 0.87433 0.29415 0.0
H298 H 0.31037 0.81497 0.24897 0.0
Cu299 Cu 0.13931 0.45275 1.01071 0.0
N300 N 0.14252 0.42865 0.99944 0.0
N301 N 0.15828 0.40489 0.98548 0.0
C302 C 0.15945 0.42206 0.99365 0.0
C303 C 0.13979 0.40047 0.9862 0.0
C304 C 0.13016 0.41503 0.99488 0.0
O305 O 0.16062 0.45434 0.02855 0.0
C306 C 0.11939 0.46757 0.98179 0.0
O307 O 0.11049 0.45195 0.98603 0.0
H308 H 0.17239 0.42996 0.99511 0.0
H309 H 0.11519 0.41563 0.99751 0.0
N310 N 0.11758 0.45793 0.02515 0.0
N311 N 0.09534 0.4782 0.03511 0.0
C312 C 0.11357 0.47583 0.03026 0.0
C313 C 0.10128 0.44847 0.02716 0.0
C314 C 0.08756 0.46094 0.03324 0.0
C315 C 0.16044 0.44048 0.04017 0.0
O316 O 0.14632 0.42857 0.03921 0.0
H317 H 0.12342 0.48734 0.02851 0.0
H318 H 0.09905 0.43406 0.02287 0.0
O319 O 0.13509 0.47099 0.99006 0.0
H320 H 0.13365 0.38756 0.98097 0.0
H321 H 0.07277 0.45775 0.03509 0.0
Cu322 Cu 0.70421 0.64615 0.26899 0.0
N323 N 0.69752 0.63034 0.28951 0.0
N324 N 0.68127 0.61105 0.30885 0.0
C325 C 0.68106 0.62114 0.29258 0.0
C326 C 0.6986 0.61399 0.31614 0.0
C327 C 0.70852 0.62573 0.30424 0.0
O328 O 0.69154 0.63552 0.2465 0.0
C329 C 0.70641 0.68008 0.28936 0.0
O330 O 0.71738 0.66929 0.29965 0.0
H331 H 0.6691 0.62197 0.28318 0.0
H332 H 0.72285 0.63051 0.30615 0.0
N333 N 0.73055 0.64547 0.26446 0.0
N334 N 0.7604 0.65455 0.25872 0.0
C335 C 0.74292 0.66001 0.26407 0.0
C336 C 0.74063 0.63035 0.25915 0.0
C337 C 0.75894 0.63588 0.25557 0.0
C338 C 0.67391 0.63686 0.24335 0.0
O339 O 0.66372 0.64739 0.25461 0.0
H340 H 0.73908 0.67444 0.26698 0.0
H341 H 0.73493 0.61632 0.25759 0.0
O342 O 0.69813 0.67271 0.27513 0.0
H343 H 0.70392 0.60782 0.32904 0.0
H344 H 0.7703 0.62684 0.25098 0.0
Cu345 Cu 0.89501 0.07433 1.00173 0.0
N346 N 0.89395 0.09916 0.99157 0.0
N347 N 0.88178 0.12271 0.974 0.0
C348 C 0.87922 0.10516 0.98099 0.0
C349 C 0.89882 0.12805 0.98058 0.0
C350 C 0.9062 0.11362 0.99153 0.0
O351 O 0.87196 0.0734 0.01735 0.0
C352 C 0.91773 0.06324 0.97385 0.0
O353 O 0.92531 0.07871 0.98042 0.0
H354 H 0.86707 0.09648 0.97793 0.0
H355 H 0.91973 0.11353 0.99853 0.0
N356 N 0.91415 0.06537 0.01804 0.0
N357 N 0.93061 0.04041 0.02911 0.0
C358 C 0.9139 0.04687 0.02256 0.0
C359 C 0.93178 0.07107 0.022 0.0
C360 C 0.94189 0.05578 0.02893 0.0
C361 C 0.87299 0.08611 0.03014 0.0
O362 O 0.88858 0.09601 0.03117 0.0
H363 H 0.90202 0.03796 0.01922 0.0
H364 H 0.9374 0.08481 0.0186 0.0
O365 O 0.90156 0.05816 0.98017 0.0
H366 H 0.90554 0.1414 0.97759 0.0
H367 H 0.95668 0.05586 0.03256 0.0
Cu368 Cu 0.26469 0.33864 0.15736 0.0
N369 N 0.2535 0.36281 0.15548 0.0
N370 N 0.23959 0.38732 0.1409 0.0
C371 C 0.24471 0.36902 0.13974 0.0
C372 C 0.2454 0.39286 0.15813 0.0
C373 C 0.25392 0.37775 0.16709 0.0
O374 O 0.28211 0.33891 0.1358 0.0
C375 C 0.22902 0.32389 0.16652 0.0
O376 O 0.22494 0.34176 0.16869 0.0
H377 H 0.24272 0.36038 0.12736 0.0
H378 H 0.26028 0.37785 0.18091 0.0
N379 N 0.27896 0.33308 0.17922 0.0
N380 N 0.29388 0.31469 0.20046 0.0
C381 C 0.28371 0.31532 0.18432 0.0
C382 C 0.28635 0.34415 0.19267 0.0
C383 C 0.29554 0.33291 0.2057 0.0
C384 C 0.29404 0.3523 0.13751 0.0
O385 O 0.29423 0.36164 0.15345 0.0
H386 H 0.2799 0.30311 0.1761 0.0
H387 H 0.28525 0.35931 0.19301 0.0
O388 O 0.24475 0.31946 0.15895 0.0
H389 H 0.24368 0.40685 0.16387 0.0
H390 H 0.3027 0.33786 0.2182 0.0
Cu391 Cu 0.26207 0.7005 0.37912 0.0
N392 N 0.25057 0.67674 0.38378 0.0
N393 N 0.22973 0.65747 0.39822 0.0
C394 C 0.23412 0.67538 0.39328 0.0
C395 C 0.24423 0.64708 0.39161 0.0
C396 C 0.25707 0.65897 0.38282 0.0
O397 O 0.27747 0.70338 0.40239 0.0
C398 C 0.23308 0.709 0.35547 0.0
O399 O 0.23551 0.69084 0.35319 0.0
H400 H 0.22602 0.6876 0.39734 0.0
H401 H 0.27053 0.65502 0.37693 0.0
N402 N 0.27812 0.70556 0.35851 0.0
N403 N 0.2862 0.72842 0.33784 0.0
C404 C 0.284 0.72359 0.35615 0.0
C405 C 0.27704 0.69858 0.34093 0.0
C406 C 0.28199 0.71258 0.32823 0.0
C407 C 0.29368 0.69528 0.4021 0.0
O408 O 0.29988 0.68878 0.38597 0.0
H409 H 0.28371 0.7338 0.36744 0.0
H410 H 0.27059 0.68526 0.33739 0.0
O411 O 0.24157 0.71691 0.36939 0.0
H412 H 0.24569 0.63201 0.39328 0.0
H413 H 0.28088 0.71165 0.31306 0.0
Cu414 Cu 0.95934 0.52479 0.90179 0.0
N415 N 0.95533 0.54601 0.8862 0.0
N416 N 0.9422 0.56909 0.86889 0.0
C417 C 0.93929 0.55263 0.87817 0.0
C418 C 0.96071 0.57278 0.8711 0.0
C419 C 0.9687 0.55861 0.88168 0.0
O420 O 0.94236 0.50429 0.89312 0.0
C421 C 0.9603 0.52447 0.94288 0.0
O422 O 0.96777 0.50763 0.94137 0.0
H423 H 0.92572 0.54584 0.87957 0.0
H424 H 0.98326 0.55768 0.88606 0.0
N425 N 0.98501 0.51747 0.89972 0.0
N426 N 0.01579 0.51256 0.90572 0.0
C427 C 0.99905 0.51858 0.91265 0.0
C428 C 0.99332 0.51066 0.88413 0.0
C429 C 1.01214 0.50763 0.88776 0.0
C430 C 0.9411 0.50022 0.87559 0.0
O431 O 0.95122 0.50989 0.8635 0.0
H432 H 0.99723 0.52409 0.9267 0.0
H433 H 0.98626 0.50816 0.87091 0.0
O434 O 0.95484 0.53305 0.92798 0.0
H435 H 0.96801 0.58493 0.86549 0.0
H436 H 0.02231 0.50197 0.87795 0.0
Cu437 Cu 0.75587 0.83498 0.37615 0.0
N438 N 0.76428 0.86007 0.38003 0.0
N439 N 0.77903 0.88293 0.39635 0.0
C440 C 0.77109 0.86565 0.39695 0.0
C441 C 0.77707 0.88862 0.37831 0.0
C442 C 0.76785 0.87461 0.36832 0.0
O443 O 0.74441 0.82953 0.40102 0.0
C444 C 0.78085 0.8264 0.34855 0.0
O445 O 0.77187 0.84138 0.34253 0.0
H446 H 0.77106 0.85674 0.40934 0.0
H447 H 0.76457 0.87488 0.35345 0.0
N448 N 0.73742 0.82923 0.35777 0.0
N449 N 0.7227 0.80939 0.33782 0.0
C450 C 0.73358 0.81113 0.35339 0.0
C451 C 0.72854 0.83952 0.34455 0.0
C452 C 0.71939 0.82735 0.33233 0.0
C453 C 0.7276 0.83581 0.40327 0.0
O454 O 0.71853 0.84222 0.38848 0.0
H455 H 0.7394 0.79944 0.36124 0.0
H456 H 0.7295 0.85466 0.34326 0.0
O457 O 0.77741 0.82071 0.36539 0.0
H458 H 0.78211 0.90188 0.37271 0.0
H459 H 0.71171 0.8315 0.31983 0.0
Cu460 Cu 0.58638 0.50269 0.40998 0.0
N461 N 0.61023 0.49104 0.41009 0.0
N462 N 0.63384 0.47489 0.39643 0.0
C463 C 0.61575 0.48067 0.39517 0.0
C464 C 0.64003 0.48207 0.41295 0.0
C465 C 0.62545 0.49205 0.42133 0.0
O466 O 0.58824 0.51858 0.38709 0.0
C467 C 0.57142 0.4689 0.42458 0.0
O468 O 0.58825 0.46144 0.42303 0.0
H469 H 0.60668 0.47807 0.38321 0.0
H470 H 0.6261 0.49988 0.43436 0.0
N471 N 0.57843 0.51862 0.4295 0.0
N472 N 0.55251 0.52926 0.44446 0.0
C473 C 0.56114 0.52637 0.42772 0.0
C474 C 0.58112 0.5169 0.4482 0.0
C475 C 0.56532 0.52373 0.45743 0.0
C476 C 0.60091 0.53128 0.38922 0.0
O477 O 0.60862 0.5329 0.40597 0.0
H478 H 0.55411 0.52748 0.41425 0.0
H479 H 0.59239 0.50888 0.45458 0.0
O480 O 0.56729 0.48298 0.41399 0.0
H481 H 0.65409 0.48039 0.41856 0.0
H482 H 0.56258 0.52244 0.47237 0.0
Cu483 Cu 0.27035 0.68987 0.65144 0.0
N484 N 0.28107 0.66551 0.64962 0.0
N485 N 0.29445 0.64098 0.6347 0.0
C486 C 0.28988 0.65945 0.63388 0.0
C487 C 0.28828 0.63519 0.65176 0.0
C488 C 0.28006 0.6503 0.66091 0.0
O489 O 0.25381 0.69014 0.62912 0.0
C490 C 0.30503 0.7036 0.66432 0.0
O491 O 0.30738 0.68572 0.66835 0.0
H492 H 0.29214 0.66835 0.6217 0.0
H493 H 0.27341 0.65003 0.67458 0.0
N494 N 0.25511 0.69548 0.6725 0.0
N495 N 0.23928 0.71426 0.69255 0.0
C496 C 0.25006 0.7133 0.67687 0.0
C497 C 0.24729 0.68467 0.68596 0.0
C498 C 0.2375 0.69617 0.69827 0.0
C499 C 0.2418 0.67675 0.63031 0.0
O500 O 0.24086 0.66732 0.64621 0.0
H501 H 0.25414 0.72534 0.66845 0.0
H502 H 0.24854 0.66953 0.68682 0.0
O503 O 0.29071 0.70847 0.65447 0.0
H504 H 0.28951 0.62102 0.65725 0.0
H505 H 0.22989 0.6915 0.71062 0.0
Cu506 Cu 0.93987 0.51007 0.61739 0.0
N507 N 0.91765 0.49552 0.62089 0.0
N508 N 0.89524 0.48008 0.6373 0.0
C509 C 0.90995 0.49217 0.63803 0.0
C510 C 0.89355 0.47565 0.61889 0.0
C511 C 0.90725 0.48528 0.6088 0.0
O512 O 0.93851 0.52882 0.63768 0.0
C513 C 0.96015 0.4777 0.60738 0.0
O514 O 0.94499 0.46767 0.61072 0.0
H515 H 0.91549 0.49804 0.65095 0.0
H516 H 0.90982 0.48436 0.59382 0.0
N517 N 0.94336 0.52332 0.59459 0.0
N518 N 0.96197 0.5363 0.57233 0.0
C519 C 0.96009 0.53153 0.5907 0.0
C520 C 0.93413 0.52291 0.57804 0.0
C521 C 0.94548 0.53107 0.56436 0.0
C522 C 0.92359 0.53884 0.6364 0.0
O523 O 0.91288 0.53657 0.62148 0.0
H524 H 0.97117 0.53291 0.60107 0.0
H525 H 0.92075 0.51601 0.57578 0.0
O526 O 0.96188 0.49355 0.6157 0.0
H527 H 0.8832 0.46608 0.61313 0.0
H528 H 0.94231 0.53189 0.54947 0.0
Cu529 Cu 0.07561 0.01485 0.62004 0.0
N530 N 0.08276 0.03522 0.63579 0.0
N531 N 0.09975 0.05392 0.65503 0.0
C532 C 0.09954 0.03797 0.64454 0.0
C533 C 0.0824 0.06138 0.65278 0.0
C534 C 0.07201 0.04986 0.64108 0.0
O535 O 0.09182 0.99341 0.62735 0.0
C536 C 0.06829 0.03523 0.58656 0.0
O537 O 0.05814 0.04516 0.59837 0.0
H538 H 0.11138 0.02849 0.64316 0.0
H539 H 0.05752 0.05192 0.63687 0.0
N540 N 0.04977 1.00842 0.62272 0.0
N541 N 0.01974 1.00163 0.61495 0.0
C542 C 0.03707 1.00645 0.6086 0.0
C543 C 0.04007 1.00464 0.63856 0.0
C544 C 0.02164 1.00039 0.63383 0.0
C545 C 0.09343 0.98856 0.64466 0.0
O546 O 0.08326 0.99741 0.65729 0.0
H547 H 0.0405 1.00824 0.59388 0.0
H548 H 0.04593 1.00502 0.65261 0.0
O549 O 0.0783 0.02176 0.59315 0.0
H550 H 0.07736 0.07409 0.65945 0.0
H551 H 1.01044 0.99699 0.64358 0.0
Cu552 Cu 0.64645 0.7604 0.83522 0.0
N553 N 0.64414 0.75374 0.86098 0.0
N554 N 0.62882 0.74205 0.88617 0.0
C555 C 0.62735 0.7486 0.86836 0.0
C556 C 0.64734 0.74318 0.89031 0.0
C557 C 0.65674 0.75054 0.87482 0.0
O558 O 0.6232 0.77493 0.83095 0.0
C559 C 0.66992 0.73233 0.82554 0.0
O560 O 0.67817 0.74109 0.83955 0.0
H561 H 0.61433 0.74886 0.86043 0.0
H562 H 0.67174 0.75283 0.87365 0.0
N563 N 0.66596 0.77632 0.82668 0.0
N564 N 0.68411 0.78882 0.80397 0.0
C565 C 0.66933 0.77763 0.80804 0.0
C566 C 0.67919 0.78713 0.8349 0.0
C567 C 0.69033 0.79501 0.82085 0.0
C568 C 0.62399 0.79079 0.8395 0.0
O569 O 0.63959 0.79511 0.84842 0.0
H570 H 0.66097 0.77035 0.7976 0.0
H571 H 0.68078 0.78897 0.84993 0.0
O572 O 0.6531 0.73731 0.82121 0.0
H573 H 0.65365 0.73884 0.9035 0.0
H574 H 0.70233 0.80416 0.82294 0.0
Cu575 Cu 0.99958 0.11789 0.4395 0.0
N576 N 0.98292 0.12146 0.41899 0.0
N577 N 0.96075 0.13717 0.40261 0.0
C578 C 0.969 0.13439 0.41957 0.0
C579 C 0.96989 0.12544 0.3908 0.0
C580 C 0.98354 0.11575 0.40093 0.0
O581 O 0.01695 0.13929 0.43742 0.0
C582 C 0.97305 0.09963 0.45904 0.0
O583 O 0.97157 0.09291 0.44191 0.0
H584 H 0.96573 0.14238 0.43209 0.0
H585 H 0.9937 0.10592 0.39532 0.0
N586 N 0.01443 0.09603 0.44128 0.0
N587 N 0.0294 0.07444 0.45903 0.0
C588 C 0.02339 0.09241 0.45765 0.0
C589 C 0.01484 0.0797 0.43171 0.0
C590 C 0.02429 0.0664 0.44257 0.0
C591 C 0.02671 0.138 0.42234 0.0
O592 O 0.02518 0.12252 0.41237 0.0
H593 H 0.02431 0.10259 0.46892 0.0
H594 H 1.00757 0.0772 0.41857 0.0
O595 O 0.98405 0.11362 0.46182 0.0
H596 H 0.96716 0.12416 0.37586 0.0
H597 H 0.02597 0.05164 0.43921 0.0
Cu598 Cu 0.39252 0.76828 0.81929 0.0
N599 N 0.41064 0.78627 0.82641 0.0
N600 N 0.42964 0.80389 0.84451 0.0
C601 C 0.41685 0.78976 0.84407 0.0
C602 C 0.43158 0.80938 0.82639 0.0
C603 C 0.41996 0.79846 0.81529 0.0
O604 O 0.39933 0.74522 0.83298 0.0
C605 C 0.36386 0.7943 0.81547 0.0
O606 O 0.37765 0.8025 0.80628 0.0
H607 H 0.41182 0.78232 0.85639 0.0
H608 H 0.41833 0.79941 0.80017 0.0
N609 N 0.39328 0.76292 0.79331 0.0
N610 N 0.38309 0.75631 0.76409 0.0
C611 C 0.3784 0.76266 0.78141 0.0
C612 C 0.40789 0.75652 0.78314 0.0
C613 C 0.40166 0.7524 0.76516 0.0
C614 C 0.39449 0.74124 0.84978 0.0
O615 O 0.38245 0.75221 0.85849 0.0
H616 H 0.36421 0.76626 0.7856 0.0
H617 H 0.42197 0.75447 0.78858 0.0
O618 O 0.36724 0.77864 0.82371 0.0
H619 H 0.44087 0.82041 0.82146 0.0
H620 H 0.41011 0.74678 0.75381 0.0
Cu621 Cu 0.01683 0.40047 0.4482 0.0
N622 N 0.02919 0.40148 0.42477 0.0
N623 N 0.04796 0.39051 0.40183 0.0
C624 C 0.0421 0.38849 0.41982 0.0
C625 C 0.03832 0.40556 0.39521 0.0
C626 C 0.0267 0.41223 0.40935 0.0
O627 O 0.99988 0.37858 0.44533 0.0
C628 C 0.04623 0.41704 0.46472 0.0
O629 O 0.04202 0.42785 0.45031 0.0
H630 H 0.04683 0.37755 0.42933 0.0
H631 H 0.0167 0.42363 0.40817 0.0
N632 N 1.00263 0.42156 0.45585 0.0
N633 N 0.99403 0.44219 0.47821 0.0
C634 C 0.99818 0.42409 0.47418 0.0
C635 C 1.00093 0.43871 0.4479 0.0
C636 C 0.99565 0.45143 0.46165 0.0
C637 C 0.98794 0.38126 0.43206 0.0
O638 O 0.98726 0.39808 0.42435 0.0
H639 H 1.00004 0.41326 0.48476 0.0
H640 H 1.00505 0.44215 0.43366 0.0
O641 O 0.03727 0.40152 0.46683 0.0
H642 H 0.039 0.41096 0.38097 0.0
H643 H 0.99426 0.4665 0.45983 0.0
Cu644 Cu 0.65624 0.2644 0.69161 0.0
N645 N 0.65283 0.27548 0.66745 0.0
N646 N 0.63723 0.29001 0.64385 0.0
C647 C 0.63771 0.28604 0.66252 0.0
C648 C 0.6528 0.28166 0.6368 0.0
C649 C 0.66235 0.27275 0.65132 0.0
O650 O 0.63306 0.24906 0.69503 0.0
C651 C 0.67794 0.29458 0.70377 0.0
O652 O 0.68189 0.29457 0.68571 0.0
H653 H 0.62675 0.28992 0.67235 0.0
H654 H 0.67494 0.26429 0.65006 0.0
N655 N 0.67639 0.24747 0.69529 0.0
N656 N 0.69642 0.23089 0.71343 0.0
C657 C 0.68406 0.24526 0.71259 0.0
C658 C 0.6843 0.23394 0.68467 0.0
C659 C 0.69658 0.2236 0.69588 0.0
C660 C 0.63081 0.23732 0.68149 0.0
O661 O 0.64384 0.23676 0.66841 0.0
H662 H 0.67973 0.25334 0.72472 0.0
H663 H 0.68089 0.23123 0.67008 0.0
O664 O 0.66437 0.28411 0.70954 0.0
H665 H 0.65691 0.28173 0.62213 0.0
H666 H 0.70465 0.21144 0.69156 0.0
Cu667 Cu 0.51577 0.12942 0.58668 0.0
N668 N 0.52254 0.13111 0.61246 0.0
N669 N 0.53685 0.14525 0.63701 0.0
C670 C 0.53536 0.14398 0.61806 0.0
C671 C 0.52436 0.13247 0.64364 0.0
C672 C 0.51556 0.12379 0.6285 0.0
O673 O 0.50254 0.1538 0.58324 0.0
C674 C 0.54281 0.10348 0.58137 0.0
O675 O 0.5337 0.09824 0.59659 0.0
H676 H 0.54277 0.15298 0.60823 0.0
H677 H 0.5044 0.11345 0.62918 0.0
N678 N 0.49893 0.11169 0.57647 0.0
N679 N 0.48853 0.09526 0.55146 0.0
C680 C 0.49811 0.11047 0.55752 0.0
C681 C 0.48934 0.09663 0.58285 0.0
C682 C 0.48272 0.08657 0.5674 0.0
C683 C 0.48797 0.154 0.59397 0.0
O684 O 0.48379 0.13847 0.60313 0.0
H685 H 0.50529 0.12029 0.54832 0.0
H686 H 0.48818 0.09264 0.59751 0.0
O687 O 0.53859 0.11955 0.5741 0.0
H688 H 0.52152 0.12975 0.65836 0.0
H689 H 0.4752 0.07333 0.5679 0.0
Cu690 Cu 0.37443 0.26144 0.69435 0.0
N691 N 0.37617 0.25214 0.66944 0.0
N692 N 0.3913 0.23896 0.64488 0.0
C693 C 0.39087 0.24145 0.66377 0.0
C694 C 0.3761 0.24845 0.63841 0.0
C695 C 0.36682 0.25656 0.65355 0.0
O696 O 0.39834 0.27587 0.69676 0.0
C697 C 0.35365 0.229 0.70502 0.0
O698 O 0.3534 0.22544 0.68689 0.0
H699 H 0.4017 0.23654 0.67331 0.0
H700 H 0.35469 0.26574 0.65289 0.0
N701 N 0.35585 0.27883 0.70133 0.0
N702 N 0.34122 0.29012 0.72719 0.0
C703 C 0.35784 0.28663 0.71856 0.0
C704 C 0.33712 0.27764 0.6987 0.0
C705 C 0.32809 0.28478 0.71447 0.0
C706 C 0.39916 0.28902 0.6843 0.0
O707 O 0.38438 0.29153 0.67345 0.0
H708 H 0.37125 0.28675 0.72579 0.0
H709 H 0.33051 0.26972 0.68751 0.0
O710 O 0.36569 0.24098 0.71125 0.0
H711 H 0.37214 0.24981 0.62376 0.0
H712 H 0.31309 0.28428 0.71701 0.0
Cu713 Cu 0.5123 0.40118 0.58631 0.0
N714 N 0.50316 0.39851 0.61134 0.0
N715 N 0.48897 0.38335 0.63544 0.0
C716 C 0.49156 0.38429 0.61656 0.0
C717 C 0.49935 0.39772 0.64236 0.0
C718 C 0.50805 0.40701 0.62753 0.0
O719 O 0.52706 0.37765 0.5832 0.0
C720 C 0.48397 0.4254 0.57734 0.0
O721 O 0.49016 0.43159 0.59359 0.0
H722 H 0.48591 0.37418 0.60667 0.0
H723 H 0.51784 0.41862 0.62858 0.0
N724 N 0.52922 0.42049 0.57941 0.0
N725 N 0.54022 0.43959 0.55652 0.0
C726 C 0.53458 0.42201 0.56117 0.0
C727 C 0.53188 0.43775 0.58672 0.0
C728 C 0.53862 0.44952 0.57265 0.0
C729 C 0.54034 0.37696 0.5955 0.0
O730 O 0.54271 0.39168 0.60641 0.0
H731 H 0.53205 0.41104 0.55092 0.0
H732 H 0.52727 0.44204 0.60056 0.0
O733 O 0.4906 0.40981 0.57101 0.0
H734 H 0.50084 0.40115 0.65712 0.0
H735 H 0.54078 0.46455 0.57387 0.0
Cu736 Cu 0.8292 0.65526 0.76126 0.0
N737 N 0.83533 0.64093 0.73979 0.0
N738 N 0.85036 0.62229 0.71904 0.0
C739 C 0.8513 0.63129 0.73588 0.0
C740 C 0.83309 0.62665 0.71224 0.0
C741 C 0.82395 0.63796 0.72499 0.0
O742 O 0.84622 0.64765 0.78188 0.0
C743 C 0.82045 0.68993 0.74347 0.0
O744 O 0.80775 0.67934 0.73523 0.0
H745 H 0.8632 0.63073 0.74537 0.0
H746 H 0.80985 0.64354 0.72361 0.0
N747 N 0.80377 0.65094 0.76782 0.0
N748 N 0.7732 0.65592 0.77448 0.0
C749 C 0.79058 0.66369 0.77296 0.0
C750 C 0.79443 0.63456 0.76621 0.0
C751 C 0.77568 0.63755 0.7703 0.0
C752 C 0.84841 0.63043 0.78674 0.0
O753 O 0.83838 0.61745 0.77822 0.0
H754 H 0.79355 0.67851 0.77479 0.0
H755 H 0.80073 0.62142 0.76184 0.0
O756 O 0.83173 0.68227 0.75525 0.0
H757 H 0.82728 0.62216 0.69892 0.0
H758 H 0.76472 0.62698 0.77008 0.0
Cu759 Cu 0.89063 0.94522 0.51784 0.0
N760 N 0.89026 0.92019 0.52644 0.0
N761 N 0.877 0.89488 0.53991 0.0
C762 C 0.8741 0.91187 0.53192 0.0
C763 C 0.89582 0.89227 0.53936 0.0
C764 C 0.90398 0.90785 0.53087 0.0
O765 O 0.86746 0.9469 0.50234 0.0
C766 C 0.9039 0.95724 0.55371 0.0
O767 O 0.90424 0.93929 0.55807 0.0
H768 H 0.86051 0.91872 0.53106 0.0
H769 H 0.91887 0.91036 0.52903 0.0
N770 N 0.91133 0.95304 0.50357 0.0
N771 N 0.92887 0.97872 0.49738 0.0
C772 C 0.91142 0.97108 0.4976 0.0
C773 C 0.92955 0.94888 0.50675 0.0
C774 C 0.94039 0.96457 0.50273 0.0
C775 C 0.86801 0.94008 0.48565 0.0
O776 O 0.8844 0.93497 0.4788 0.0
H777 H 0.89857 0.9791 0.49602 0.0
H778 H 0.9344 0.93647 0.51413 0.0
O779 O 0.89446 0.9625 0.53924 0.0
H780 H 0.90319 0.88023 0.54513 0.0
H781 H 0.95524 0.96607 0.50578 0.0
Cu782 Cu 0.19816 0.87455 0.75732 0.0
N783 N 0.19579 0.89025 0.73582 0.0
N784 N 0.18401 0.90747 0.7119 0.0
C785 C 0.18011 0.89794 0.72803 0.0
C786 C 0.20279 0.90579 0.70964 0.0
C787 C 0.20996 0.89531 0.72432 0.0
O788 O 0.18159 0.88429 0.77748 0.0
C789 C 0.20618 0.84124 0.73802 0.0
O790 O 0.21903 0.85261 0.73112 0.0
H791 H 0.16611 0.89613 0.73374 0.0
H792 H 0.22453 0.89135 0.72629 0.0
N793 N 0.22296 0.87485 0.76678 0.0
N794 N 0.25005 0.8643 0.77933 0.0
C795 C 0.23211 0.86004 0.7745 0.0
C796 C 0.23548 0.88905 0.76686 0.0
C797 C 0.25215 0.88261 0.77454 0.0
C798 C 0.18345 0.90153 0.78237 0.0
O799 O 0.19582 0.91192 0.77334 0.0
H800 H 0.22582 0.84626 0.77605 0.0
H801 H 0.23275 0.90305 0.76152 0.0
O802 O 0.19423 0.84801 0.74971 0.0
H803 H 0.21084 0.91172 0.69812 0.0
H804 H 0.26481 0.89085 0.77648 0.0
Cu805 Cu 0.1259 0.57421 0.51222 0.0
N806 N 0.13876 0.58368 0.53352 0.0
N807 N 0.1577 0.60067 0.5524 0.0
C808 C 0.14928 0.5995 0.53527 0.0
C809 C 0.15211 0.58502 0.56168 0.0
C810 C 0.14067 0.57463 0.55006 0.0
O811 O 0.1373 0.58638 0.48974 0.0
C812 C 0.09058 0.56707 0.52903 0.0
O813 O 0.10171 0.55724 0.54005 0.0
H814 H 0.15127 0.60959 0.524 0.0
H815 H 0.13466 0.56104 0.55333 0.0
N816 N 0.1305 0.54814 0.51077 0.0
N817 N 0.12559 0.51696 0.50844 0.0
C818 C 0.11815 0.5344 0.50622 0.0
C819 C 0.14633 0.53913 0.51591 0.0
C820 C 0.14338 0.52 0.51449 0.0
C821 C 0.13491 0.60365 0.48534 0.0
O822 O 0.12286 0.61365 0.49513 0.0
H823 H 0.1039 0.53723 0.50165 0.0
H824 H 0.15897 0.546 0.52091 0.0
O825 O 0.09811 0.57661 0.51563 0.0
H826 H 0.15608 0.58118 0.57589 0.0
H827 H 0.15347 0.50922 0.51823 0.0
Cu828 Cu 0.82325 0.38946 0.77098 0.0
N829 N 0.84678 0.39344 0.78302 0.0
N830 N 0.86823 0.40821 0.80116 0.0
C831 C 0.84971 0.40538 0.79758 0.0
C832 C 0.87733 0.39765 0.78826 0.0
C833 C 0.86412 0.38861 0.77712 0.0
O834 O 0.82253 0.40948 0.75142 0.0
C835 C 0.80842 0.37531 0.80389 0.0
O836 O 0.82626 0.37085 0.80576 0.0
H837 H 0.83843 0.41262 0.8048 0.0
H838 H 0.86697 0.37982 0.76504 0.0
N839 N 0.81888 0.36609 0.75929 0.0
N840 N 0.79766 0.34362 0.75214 0.0
C841 C 0.8018 0.3622 0.75173 0.0
C842 C 0.82591 0.34925 0.76445 0.0
C843 C 0.81291 0.33542 0.76003 0.0
C844 C 0.83203 0.40635 0.73637 0.0
O845 O 0.83933 0.38954 0.73403 0.0
H846 H 0.79155 0.37301 0.74847 0.0
H847 H 0.83841 0.34737 0.77295 0.0
O848 O 0.80375 0.38661 0.79055 0.0
H849 H 0.89246 0.39677 0.78674 0.0
H850 H 0.81397 0.32068 0.76375 0.0
Cu851 Cu 0.63188 0.94655 0.51688 0.0
N852 N 0.63395 0.92047 0.51115 0.0
N853 N 0.64851 0.89562 0.49795 0.0
C854 C 0.6498 0.9139 0.50291 0.0
C855 C 0.6311 0.89028 0.50336 0.0
C856 C 0.62221 0.90556 0.51171 0.0
O857 O 0.65649 0.95077 0.5294 0.0
C858 C 0.60527 0.9515 0.49058 0.0
O859 O 0.59929 0.93814 0.50187 0.0
H860 H 0.66192 0.92267 0.49996 0.0
H861 H 0.60806 0.90581 0.5173 0.0
N862 N 0.61426 0.95723 0.53374 0.0
N863 N 0.59779 0.98197 0.54478 0.0
C864 C 0.61044 0.97578 0.53206 0.0
C865 C 0.60358 0.95128 0.54824 0.0
C866 C 0.59348 0.96657 0.55515 0.0
C867 C 0.65731 0.94006 0.54399 0.0
O868 O 0.64217 0.93038 0.54838 0.0
H869 H 0.61714 0.98469 0.52165 0.0
H870 H 0.60311 0.93696 0.55343 0.0
O871 O 0.6219 0.95807 0.49345 0.0
H872 H 0.62521 0.87637 0.50139 0.0
H873 H 0.58356 0.96628 0.5667 0.0
Cu874 Cu 0.19415 0.15197 0.76461 0.0
N875 N 0.16958 0.14902 0.77505 0.0
N876 N 0.14627 0.13231 0.78886 0.0
C877 C 0.16365 0.13191 0.78111 0.0
C878 C 0.14091 0.15052 0.78762 0.0
C879 C 0.15519 0.16075 0.77895 0.0
O880 O 0.19439 0.1295 0.74806 0.0
C881 C 0.20603 0.17366 0.79357 0.0
O882 O 0.19029 0.18149 0.78794 0.0
H883 H 0.17221 0.11934 0.78015 0.0
H884 H 0.15507 0.17567 0.77589 0.0
N885 N 0.20153 0.17242 0.74896 0.0
N886 N 0.22398 0.19226 0.73821 0.0
C887 C 0.21983 0.17455 0.74391 0.0
C888 C 0.19369 0.18944 0.74611 0.0
C889 C 0.20746 0.20164 0.73953 0.0
C890 C 0.18191 0.13171 0.73512 0.0
O891 O 0.17385 0.14832 0.73383 0.0
H892 H 0.23038 0.16382 0.74639 0.0
H893 H 0.17954 0.19321 0.75022 0.0
O894 O 0.21092 0.1579 0.78614 0.0
H895 H 0.12756 0.15603 0.79244 0.0
H896 H 0.20569 0.21658 0.7371 0.0
Cu897 Cu 0.40068 0.58045 0.5095 0.0
N898 N 0.39766 0.6056 0.50016 0.0
N899 N 0.38187 0.62945 0.48616 0.0
C900 C 0.38109 0.61157 0.49272 0.0
C901 C 0.39966 0.63511 0.48967 0.0
C902 C 0.40929 0.62051 0.49848 0.0
O903 O 0.37668 0.57692 0.52315 0.0
C904 C 0.42706 0.57083 0.48373 0.0
O905 O 0.43216 0.58761 0.48941 0.0
H906 H 0.36868 0.60278 0.4919 0.0
H907 H 0.42376 0.62081 0.50323 0.0
N908 N 0.41847 0.57292 0.52787 0.0
N909 N 0.43371 0.54806 0.54073 0.0
C910 C 0.41723 0.55494 0.53405 0.0
C911 C 0.43651 0.57785 0.53102 0.0
C912 C 0.44588 0.56261 0.53901 0.0
C913 C 0.37571 0.58945 0.53614 0.0
O914 O 0.39025 0.60064 0.53846 0.0
H915 H 0.40494 0.54635 0.53141 0.0
H916 H 0.44294 0.59073 0.52605 0.0
O917 O 0.41081 0.56472 0.48882 0.0
H918 H 0.40523 0.64891 0.48639 0.0
H919 H 0.46079 0.56198 0.5421 0.0
Cu920 Cu 0.76643 0.8451 0.66093 0.0
N921 N 0.75977 0.87041 0.65613 0.0
N922 N 0.74751 0.89419 0.63897 0.0
C923 C 0.74775 0.87539 0.64221 0.0
C924 C 0.75994 0.90131 0.65152 0.0
C925 C 0.76752 0.88665 0.66198 0.0
O926 O 0.77762 0.83748 0.63684 0.0
C927 C 0.73948 0.83901 0.6872 0.0
O928 O 0.74672 0.85535 0.69194 0.0
H929 H 0.74016 0.86518 0.63384 0.0
H930 H 0.77851 0.88774 0.67245 0.0
N931 N 0.78435 0.8396 0.67972 0.0
N932 N 0.79963 0.81983 0.69922 0.0
C933 C 0.78893 0.82158 0.68357 0.0
C934 C 0.79247 0.84981 0.69343 0.0
C935 C 0.80204 0.83766 0.7054 0.0
C936 C 0.79445 0.84353 0.63457 0.0
O937 O 0.80274 0.85202 0.64873 0.0
H938 H 0.78391 0.80989 0.67522 0.0
H939 H 0.79083 0.86483 0.69519 0.0
O940 O 0.74459 0.83183 0.67148 0.0
H941 H 0.76366 0.91601 0.65283 0.0
H942 H 0.80938 0.8416 0.71815 0.0
Cu943 Cu 0.75526 0.20712 0.87789 0.0
N944 N 0.73445 0.20254 0.894 0.0
N945 N 0.71199 0.1887 0.91171 0.0
C946 C 0.72625 0.18609 0.89921 0.0
C947 C 0.71117 0.20753 0.91416 0.0
C948 C 0.72491 0.21593 0.90333 0.0
O949 O 0.77773 0.1926 0.88679 0.0
C950 C 0.7552 0.20864 0.83715 0.0
O951 O 0.77035 0.21902 0.83915 0.0
H952 H 0.73101 0.1725 0.89431 0.0
H953 H 0.72783 0.23084 0.9024 0.0
N954 N 0.76133 0.23312 0.87884 0.0
N955 N 0.76602 0.26359 0.87097 0.0
C956 C 0.75746 0.24711 0.86638 0.0
C957 C 0.77223 0.24117 0.89202 0.0
C958 C 0.7751 0.25977 0.8873 0.0
C959 C 0.77946 0.1859 0.90352 0.0
O960 O 0.76554 0.18802 0.91546 0.0
H961 H 0.74908 0.24502 0.85386 0.0
H962 H 0.77811 0.23383 0.90402 0.0
O963 O 0.74756 0.20124 0.8517 0.0
H964 H 0.70125 0.21488 0.92305 0.0
H965 H 0.78358 0.26955 0.89528 0.0
Cu966 Cu 0.44794 0.01447 0.40154 0.0
N967 N 0.42232 0.02164 0.40099 0.0
N968 N 0.39926 0.0405 0.39019 0.0
C969 C 0.41661 0.03346 0.38719 0.0
C970 C 0.39359 0.03264 0.40658 0.0
C971 C 0.40777 0.02082 0.41313 0.0
O972 O 0.45006 1.00344 0.37592 0.0
C973 C 0.45439 0.03843 0.4299 0.0
O974 O 0.44139 0.02655 0.43547 0.0
H975 H 0.42569 0.03791 0.37577 0.0
H976 H 0.40783 1.01319 0.42633 0.0
N977 N 0.45898 0.99641 0.41774 0.0
N978 N 0.48425 0.98515 0.43323 0.0
C979 C 0.47788 0.99671 0.41956 0.0
C980 C 0.45296 0.98399 0.43077 0.0
C981 C 0.46859 0.97687 0.44024 0.0
C982 C 0.44228 0.9871 0.37511 0.0
O983 O 0.43614 0.97959 0.39086 0.0
H984 H 0.4868 1.00588 0.41126 0.0
H985 H 0.43834 0.98095 0.43375 0.0
O986 O 0.46028 0.03697 0.4128 0.0
H987 H 0.38045 0.0357 0.41363 0.0
H988 H 0.46835 0.96712 0.45197 0.0
Cu989 Cu 0.27357 0.32852 0.8794 0.0
N990 N 0.28197 0.35378 0.87961 0.0
N991 N 0.29995 0.37609 0.89336 0.0
C992 C 0.29892 0.35809 0.88723 0.0
C993 C 0.28292 0.38352 0.88922 0.0
C994 C 0.27187 0.36976 0.88088 0.0
O995 O 0.26137 0.3273 0.90452 0.0
C996 C 0.29983 0.31999 0.85363 0.0
O997 O 0.29131 0.33498 0.84697 0.0
H998 H 0.3095 0.34754 0.89024 0.0
H999 H 0.25699 0.37083 0.87783 0.0
N1000 N 0.25591 0.3186 0.86209 0.0
N1001 N 0.24388 0.29336 0.84706 0.0
C1002 C 0.25174 0.30006 0.86305 0.0
C1003 C 0.25031 0.32402 0.84479 0.0
C1004 C 0.24285 0.30852 0.83553 0.0
C1005 C 0.24454 0.33397 0.90472 0.0
O1006 O 0.23648 0.33787 0.88853 0.0
H1007 H 0.25616 0.29126 0.87471 0.0
H1008 H 0.2529 0.33776 0.83873 0.0
O1009 O 0.29555 0.31421 0.87026 0.0
H1010 H 0.27832 0.39752 0.89302 0.0
H1011 H 0.23792 0.30829 0.82111 0.0
Cu1012 Cu 0.07791 1.00922 0.89404 0.0
N1013 N 0.103 1.00055 0.89327 0.0
N1014 N 0.12462 0.98221 0.87901 0.0
C1015 C 0.10674 0.98365 0.88539 0.0
C1016 C 0.13259 0.99895 0.88328 0.0
C1017 C 0.11923 1.01024 0.89193 0.0
O1018 O 0.07639 0.02269 0.86942 0.0
C1019 C 0.06956 0.98221 0.91942 0.0
O1020 O 0.08513 0.98998 0.92561 0.0
H1021 H 0.09583 0.97345 0.88237 0.0
H1022 H 0.12074 0.02503 0.89517 0.0
N1023 N 0.06807 0.0262 0.9119 0.0
N1024 N 0.04171 0.03587 0.92669 0.0
C1025 C 0.04956 0.0302 0.91034 0.0
C1026 C 0.07234 0.0298 0.93003 0.0
C1027 C 0.05612 0.03583 0.93915 0.0
C1028 C 0.08316 0.0395 0.86978 0.0
O1029 O 0.08786 0.04661 0.88617 0.0
H1030 H 0.04154 0.02665 0.89787 0.0
H1031 H 0.08562 0.0264 0.93666 0.0
O1032 O 0.0635 0.98702 0.903 0.0
H1033 H 0.14667 1.00322 0.87936 0.0
H1034 H 0.05487 0.03872 0.95405 0.0
Cu1035 Cu 0.7736 0.19306 0.14453 0.0
N1036 N 0.78243 0.16797 0.14392 0.0
N1037 N 0.7944 0.14246 0.12942 0.0
C1038 C 0.7931 0.16147 0.12958 0.0
C1039 C 0.78416 0.13679 0.14445 0.0
C1040 C 0.77676 0.1525 0.15329 0.0
O1041 O 0.75728 0.19357 0.12206 0.0
C1042 C 0.80307 0.20615 0.16383 0.0
O1043 O 0.79745 0.19118 0.17315 0.0
H1044 H 0.79864 0.17052 0.11862 0.0
H1045 H 0.76704 0.15252 0.165 0.0
N1046 N 0.75923 0.20162 0.16527 0.0
N1047 N 0.74873 0.2238 0.18528 0.0
C1048 C 0.75777 0.22022 0.16895 0.0
C1049 C 0.75078 0.19299 0.17991 0.0
C1050 C 0.74413 0.20665 0.19216 0.0
C1051 C 0.74234 0.18379 0.12458 0.0
O1052 O 0.73907 0.17717 0.14154 0.0
H1053 H 0.76358 0.23097 0.15984 0.0
H1054 H 0.74994 0.17792 0.18184 0.0
O1055 O 0.79564 0.20947 0.14771 0.0
H1056 H 0.78165 0.1223 0.14845 0.0
H1057 H 0.73703 0.20412 0.20541 0.0
Cu1058 Cu 0.43423 0.01384 0.11993 0.0
N1059 N 0.4115 1.00062 0.12512 0.0
N1060 N 0.3901 0.98523 0.14283 0.0
C1061 C 0.40677 0.99445 0.14255 0.0
C1062 C 0.38399 0.98568 0.12482 0.0
C1063 C 0.39706 0.99535 0.114 0.0
O1064 O 0.43589 0.03131 0.14131 0.0
C1065 C 0.4501 0.985 0.10039 0.0
O1066 O 0.43215 0.98256 0.09683 0.0
H1067 H 0.41557 0.99652 0.15482 0.0
H1068 H 0.39611 0.99821 0.09906 0.0
N1069 N 0.43604 0.02871 0.09796 0.0
N1070 N 0.45557 0.04273 0.07721 0.0
C1071 C 0.45128 0.03988 0.09555 0.0
C1072 C 0.43029 0.02455 0.08037 0.0
C1073 C 0.44226 0.03317 0.06759 0.0
C1074 C 0.42229 0.04312 0.14074 0.0
O1075 O 0.41116 0.04276 0.12595 0.0
H1076 H 0.46051 0.04372 0.10706 0.0
H1077 H 0.41966 0.0142 0.07702 0.0
O1078 O 0.45462 0.99608 0.11384 0.0
H1079 H 0.37087 0.9797 0.11988 0.0
H1080 H 0.44196 0.03141 0.05246 0.0
Cu1081 Cu 0.58721 0.50873 0.12868 0.0
N1082 N 0.60921 0.52292 0.13465 0.0
N1083 N 0.62595 0.54483 0.15043 0.0
C1084 C 0.60888 0.53682 0.14761 0.0
C1085 C 0.63762 0.53546 0.1387 0.0
C1086 C 0.62728 0.52204 0.12894 0.0
O1087 O 0.58367 0.49213 0.15112 0.0
C1088 C 0.57583 0.5376 0.10632 0.0
O1089 O 0.59382 0.53554 0.1026 0.0
H1090 H 0.59621 0.54075 0.15509 0.0
H1091 H 0.6326 0.51227 0.11858 0.0
N1092 N 0.58624 0.49209 0.10762 0.0
N1093 N 0.56879 0.47715 0.08557 0.0
C1094 C 0.57254 0.49357 0.09433 0.0
C1095 C 0.59135 0.4738 0.10697 0.0
C1096 C 0.58064 0.46461 0.09348 0.0
C1097 C 0.59864 0.48292 0.15552 0.0
O1098 O 0.61374 0.48568 0.14525 0.0
H1099 H 0.5636 0.50571 0.09271 0.0
H1100 H 0.60065 0.46702 0.11693 0.0
O1101 O 0.56893 0.52804 0.12007 0.0
H1102 H 0.65251 0.53825 0.13707 0.0
H1103 H 0.58067 0.44965 0.09066 0.0
H1104 H 0.19278 0.32783 0.17835 0.0
H1105 H 0.23998 0.2892 0.18024 0.0
H1106 H 0.22328 0.27011 0.20423 0.0
H1107 H 0.18445 0.32897 0.22592 0.0
H1108 H 0.15915 0.33023 0.22436 0.0
H1109 H 0.1734 0.33906 0.20538 0.0
H1110 H 0.15615 0.31724 0.18183 0.0
H1111 H 0.14161 0.30852 0.20071 0.0
H1112 H 0.15494 0.29232 0.1865 0.0
H1113 H 0.20297 0.25793 0.23153 0.0
H1114 H 0.18006 0.25237 0.25724 0.0
H1115 H 0.14642 0.29914 0.23703 0.0
C1116 C 0.19938 0.31501 0.18333 0.0
C1117 C 0.21763 0.30992 0.17723 0.0
C1118 C 0.22588 0.2932 0.18439 0.0
C1119 C 0.21653 0.28235 0.19815 0.0
C1120 C 0.19885 0.28827 0.20444 0.0
C1121 C 0.19024 0.30405 0.19696 0.0
C1122 C 0.17181 0.30824 0.20685 0.0
C1123 C 0.17225 0.32778 0.21618 0.0
C1124 C 0.15514 0.30647 0.19316 0.0
C1125 C 0.17155 0.29267 0.22145 0.0
C1126 C 0.18721 0.28123 0.21986 0.0
C1127 C 0.19053 0.26665 0.23265 0.0
C1128 C 0.17751 0.26367 0.24732 0.0
C1129 C 0.16131 0.27519 0.24912 0.0
C1130 C 0.15837 0.2898 0.23586 0.0
H1131 H 0.58349 0.5379 0.06905 0.0
H1132 H 0.54175 0.55705 0.10916 0.0
H1133 H 0.52481 0.57349 0.08309 0.0
H1134 H 0.58666 0.57868 0.04193 0.0
H1135 H 0.58932 0.56657 0.01982 0.0
H1136 H 0.59694 0.5555 0.04131 0.0
H1137 H 0.57571 0.52671 0.03428 0.0
H1138 H 0.56802 0.53764 1.01267 0.0
H1139 H 0.55096 0.53018 0.02992 0.0
H1140 H 0.51421 0.58994 0.05217 0.0
H1141 H 0.51017 0.60346 0.02034 0.0
H1142 H 0.55914 0.57271 1.00102 0.0
C1143 C 0.57073 0.54549 0.07248 0.0
C1144 C 0.56407 0.5464 0.09127 0.0
C1145 C 0.54713 0.55618 0.09493 0.0
C1146 C 0.53748 0.56556 0.08018 0.0
C1147 C 0.54479 0.56468 0.06186 0.0
C1148 C 0.56094 0.55462 0.05803 0.0
C1149 C 0.56631 0.55591 0.0374 0.0
C1150 C 0.58597 0.56469 0.03498 0.0
C1151 C 0.56518 0.53645 0.02801 0.0
C1152 C 0.55105 0.56887 0.0301 0.0
C1153 C 0.53866 0.57371 0.04434 0.0
C1154 C 0.52382 0.58613 0.041 0.0
C1155 C 0.52174 0.59388 0.02285 0.0
C1156 C 0.53444 0.58931 1.00809 0.0
C1157 C 0.54911 0.57639 1.01186 0.0
H1158 H 0.83536 0.24889 0.26111 0.0
H1159 H 0.88809 0.26414 0.23448 0.0
H1160 H 0.8747 0.2562 0.20338 0.0
H1161 H 0.82673 0.20949 0.2344 0.0
H1162 H 0.80157 0.21246 0.2329 0.0
H1163 H 0.81427 0.22211 0.25252 0.0
H1164 H 0.80062 0.25514 0.24509 0.0
H1165 H 0.78789 0.24554 0.22535 0.0
H1166 H 0.80368 0.26508 0.22191 0.0
H1167 H 0.85641 0.24324 0.1752 0.0
H1168 H 0.83563 0.22503 0.15367 0.0
H1169 H 0.79528 0.2183 0.19884 0.0
C1170 C 0.8439 0.25113 0.2487 0.0
C1171 C 0.8628 0.25724 0.25033 0.0
C1172 C 0.87363 0.25941 0.23368 0.0
C1173 C 0.86608 0.25506 0.21589 0.0
C1174 C 0.84756 0.24863 0.21481 0.0
C1175 C 0.83659 0.24677 0.23082 0.0
C1176 C 0.81775 0.23789 0.22615 0.0
C1177 C 0.81493 0.21939 0.23714 0.0
C1178 C 0.80153 0.25174 0.22985 0.0
C1179 C 0.82014 0.23435 0.20523 0.0
C1180 C 0.83723 0.24099 0.19877 0.0
C1181 C 0.84287 0.23824 0.18007 0.0
C1182 C 0.83098 0.22799 0.16787 0.0
C1183 C 0.81386 0.22042 0.17456 0.0
C1184 C 0.80827 0.22411 0.19332 0.0
H1185 H 0.47496 0.96103 0.99381 0.0
H1186 H 0.52774 0.93751 1.01331 0.0
H1187 H 0.52106 0.94877 0.04551 0.0
H1188 H 0.47463 1.00262 0.02498 0.0
H1189 H 0.44962 1.00127 0.02892 0.0
H1190 H 0.45945 0.99325 1.00697 0.0
H1191 H 0.44404 0.96057 1.0117 0.0
H1192 H 0.43395 0.96845 0.03351 0.0
H1193 H 0.44846 0.94765 0.03314 0.0
H1194 H 0.50741 0.96156 0.07662 0.0
H1195 H 0.48716 0.97252 0.10306 0.0
H1196 H 0.44315 0.9861 0.06296 0.0
C1197 C 0.48528 0.95862 1.00477 0.0
C1198 C 0.50194 0.94845 1.00094 0.0
C1199 C 0.51487 0.9452 0.01585 0.0
C1200 C 0.51123 0.95166 0.03421 0.0
C1201 C 0.49452 0.96135 0.0376 0.0
C1202 C 0.48174 0.96477 0.02324 0.0
C1203 C 0.46415 0.97415 0.03078 0.0
C1204 C 0.46183 0.994 0.02241 0.0
C1205 C 0.44662 0.96197 0.02706 0.0
C1206 C 0.46879 0.975 0.0516 0.0
C1207 C 0.4865 0.96795 0.05534 0.0
C1208 C 0.49352 0.96714 0.07379 0.0
C1209 C 0.48198 0.9734 0.08874 0.0
C1210 C 0.46352 0.97993 0.08514 0.0
C1211 C 0.45712 0.98096 0.06626 0.0
H1212 H 0.2143 0.69353 0.32606 0.0
H1213 H 0.2339 0.74749 0.34673 0.0
H1214 H 0.22416 0.76223 0.31637 0.0
H1215 H 0.23255 0.6992 0.2803 0.0
H1216 H 0.21367 0.68653 0.26905 0.0
H1217 H 0.22013 0.68102 0.29296 0.0
H1218 H 0.18589 0.68703 0.30392 0.0
H1219 H 0.17922 0.69229 0.28001 0.0
H1220 H 0.17472 0.70916 0.29838 0.0
H1221 H 0.21208 0.7705 0.28238 0.0
H1222 H 0.20026 0.77121 0.24943 0.0
H1223 H 0.19219 0.7109 0.25101 0.0
C1224 C 0.21631 0.70857 0.32453 0.0
C1225 C 0.22463 0.71938 0.33911 0.0
C1226 C 0.22717 0.73894 0.33608 0.0
C1227 C 0.22182 0.74736 0.31876 0.0
C1228 C 0.21417 0.73601 0.30452 0.0
C1229 C 0.21153 0.71698 0.30736 0.0
C1230 C 0.2043 0.70734 0.28974 0.0
C1231 C 0.21851 0.69266 0.2826 0.0
C1232 C 0.18488 0.69844 0.29322 0.0
C1233 C 0.20297 0.72389 0.27636 0.0
C1234 C 0.20855 0.7404 0.2851 0.0
C1235 C 0.20784 0.75759 0.27553 0.0
C1236 C 0.20112 0.75788 0.25682 0.0
C1237 C 0.1955 0.74107 0.24764 0.0
C1238 C 0.19669 0.72388 0.25756 0.0
H1239 H 0.99578 0.54594 0.04812 0.0
H1240 H 0.96162 0.59658 0.04644 0.0
H1241 H 0.94995 0.5877 0.015 0.0
H1242 H 1.00931 0.54552 1.00069 0.0
H1243 H 1.00739 0.52044 0.99734 0.0
H1244 H 1.01239 0.52967 0.02034 0.0
H1245 H 0.98384 0.51251 0.03442 0.0
H1246 H 0.97878 0.50262 1.01162 0.0
H1247 H 0.96092 0.51571 0.02397 0.0
H1248 H 0.94351 0.57443 0.98258 0.0
H1249 H 0.94195 0.55714 0.95245 0.0
H1250 H 0.97905 0.51433 0.97546 0.0
C1251 C 0.98557 0.55502 0.04139 0.0
C1252 C 0.97976 0.57212 0.04995 0.0
C1253 C 0.96656 0.5836 0.04024 0.0
C1254 C 0.95974 0.57861 0.02235 0.0
C1255 C 0.96601 0.56191 0.01421 0.0
C1256 C 0.97847 0.55017 0.0235 0.0
C1257 C 0.98313 0.53312 1.01144 0.0
C1258 C 1.00432 0.53216 1.00718 0.0
C1259 C 0.97625 0.51491 0.02093 0.0
C1260 C 0.97179 0.53741 0.99376 0.0
C1261 C 0.96193 0.55404 0.9957 0.0
C1262 C 0.95101 0.56128 0.98101 0.0
C1263 C 0.95022 0.55134 0.9639 0.0
C1264 C 0.9602 0.53424 0.96151 0.0
C1265 C 0.971 0.52719 0.97682 0.0
H1266 H 0.81849 0.80707 0.24446 0.0
H1267 H 0.85783 0.7664 0.26752 0.0
H1268 H 0.84517 0.77205 0.29934 0.0
H1269 H 0.82091 0.83978 0.28225 0.0
H1270 H 0.79627 0.84575 0.28129 0.0
H1271 H 0.80818 0.83797 0.26035 0.0
H1272 H 0.78353 0.8114 0.25616 0.0
H1273 H 0.77154 0.81912 0.2771 0.0
H1274 H 0.77939 0.79508 0.2752 0.0
H1275 H 0.82749 0.78272 0.3297 0.0
H1276 H 0.80771 0.79805 0.35426 0.0
H1277 H 0.78075 0.83138 0.31064 0.0
C1278 C 0.82438 0.79921 0.25613 0.0
C1279 C 0.8393 0.78634 0.25325 0.0
C1280 C 0.84663 0.77656 0.26915 0.0
C1281 C 0.8394 0.77958 0.28739 0.0
C1282 C 0.82477 0.79245 0.28971 0.0
C1283 C 0.81738 0.8021 0.27443 0.0
C1284 C 0.80197 0.81545 0.28058 0.0
C1285 C 0.80715 0.83595 0.27584 0.0
C1286 C 0.78299 0.80993 0.27174 0.0
C1287 C 0.80197 0.81204 0.30167 0.0
C1288 C 0.81503 0.79861 0.30682 0.0
C1289 C 0.81725 0.79328 0.32573 0.0
C1290 C 0.80595 0.80203 0.33963 0.0
C1291 C 0.79275 0.81609 0.33456 0.0
C1292 C 0.79082 0.82088 0.31523 0.0
H1293 H 0.05859 0.99475 0.95348 0.0
H1294 H 0.05777 0.94515 0.91825 0.0
H1295 H 0.04824 0.92589 0.94594 0.0
H1296 H 0.07944 0.97441 0.99189 0.0
H1297 H 0.06644 0.98703 1.00961 0.0
H1298 H 0.06985 0.99735 0.98671 0.0
H1299 H 0.0338 1.00106 0.98213 0.0
H1300 H 0.03055 0.99164 1.00547 0.0
H1301 H 0.01869 0.98098 0.98573 0.0
H1302 H 0.04358 0.91161 0.97876 0.0
H1303 H 0.04101 0.90376 1.01239 0.0
H1304 H 0.04432 0.96313 0.02638 0.0
C1305 C 0.05558 0.97995 0.95141 0.0
C1306 C 0.05841 0.97151 0.93356 0.0
C1307 C 0.05507 0.95201 0.93158 0.0
C1308 C 0.04988 0.94096 0.94734 0.0
C1309 C 0.048 0.94966 0.96494 0.0
C1310 C 0.05039 0.96883 0.96693 0.0
C1311 C 0.04888 0.97469 0.98746 0.0
C1312 C 0.06725 0.98391 0.99431 0.0
C1313 C 0.03197 0.98786 0.99037 0.0
C1314 C 0.04574 0.95576 0.99693 0.0
C1315 C 0.04523 0.94152 0.98369 0.0
C1316 C 0.04354 0.92274 0.98913 0.0
C1317 C 0.04204 0.91843 1.00843 0.0
C1318 C 0.04216 0.93275 0.02239 0.0
C1319 C 0.04413 0.95172 0.01634 0.0
H1320 H 0.2414 0.16102 0.28383 0.0
H1321 H 0.28367 0.19555 0.31118 0.0
H1322 H 0.25874 0.21673 0.32278 0.0
H1323 H 0.21196 0.19849 0.26879 0.0
H1324 H 0.19031 0.1859 0.27286 0.0
H1325 H 0.21149 0.17316 0.26734 0.0
H1326 H 0.20775 0.15347 0.29788 0.0
H1327 H 0.18655 0.16617 0.30351 0.0
H1328 H 0.20566 0.16532 0.3202 0.0
H1329 H 0.22874 0.23489 0.33071 0.0
H1330 H 0.19667 0.24835 0.33355 0.0
H1331 H 0.17443 0.20144 0.30144 0.0
C1332 C 0.24545 0.17285 0.29248 0.0
C1333 C 0.26461 0.17652 0.29654 0.0
C1334 C 0.26919 0.19247 0.30764 0.0
C1335 C 0.25508 0.20455 0.31443 0.0
C1336 C 0.23637 0.20055 0.31007 0.0
C1337 C 0.23156 0.18505 0.29935 0.0
C1338 C 0.2105 0.18414 0.29615 0.0
C1339 C 0.2058 0.18551 0.27503 0.0
C1340 C 0.20213 0.16621 0.30496 0.0
C1341 C 0.2042 0.20158 0.30662 0.0
C1342 C 0.21927 0.21087 0.31464 0.0
C1343 C 0.21683 0.22764 0.32457 0.0
C1344 C 0.19856 0.23518 0.32616 0.0
C1345 C 0.18296 0.22596 0.31782 0.0
C1346 C 0.18596 0.20884 0.30812 0.0
H1347 H 0.48506 0.58045 0.97706 0.0
H1348 H 0.44753 0.62643 0.99084 0.0
H1349 H 0.42538 0.60353 1.0056 0.0
H1350 H 0.45123 0.54943 0.96248 0.0
H1351 H 0.4625 0.52859 0.97161 0.0
H1352 H 0.47645 0.54874 0.96528 0.0
H1353 H 0.4908 0.54975 0.99882 0.0
H1354 H 0.4771 0.52936 1.00522 0.0
H1355 H 0.47544 0.55058 0.01897 0.0
H1356 H 0.4058 0.57441 0.01527 0.0
H1357 H 0.39143 0.54328 0.01999 0.0
H1358 H 0.44204 0.51684 0.99818 0.0
C1359 C 0.47237 0.58581 0.98361 0.0
C1360 C 0.46799 0.60521 0.9829 0.0
C1361 C 0.45127 0.61167 0.9915 0.0
C1362 C 0.4386 0.59871 0.99978 0.0
C1363 C 0.44305 0.57948 0.99946 0.0
C1364 C 0.45973 0.57317 0.99179 0.0
C1365 C 0.46085 0.55188 0.99175 0.0
C1366 C 0.46287 0.54422 0.97158 0.0
C1367 C 0.477 0.54499 1.00445 0.0
C1368 C 0.44187 0.54697 1.00005 0.0
C1369 C 0.43186 0.56301 1.00465 0.0
C1370 C 0.41365 0.56183 1.01183 0.0
C1371 C 0.40551 0.54392 0.01431 0.0
C1372 C 0.41541 0.52722 1.00944 0.0
C1373 C 0.43395 0.52902 1.00233 0.0
H1374 H 0.80318 0.26629 0.29478 0.0
H1375 H 0.81359 0.27962 0.35339 0.0
H1376 H 0.78197 0.29425 0.35554 0.0
H1377 H 0.78038 0.30996 0.28394 0.0
H1378 H 0.76387 0.29981 0.26756 0.0
H1379 H 0.78651 0.28897 0.27112 0.0
H1380 H 0.77019 0.2575 0.27943 0.0
H1381 H 0.74749 0.26828 0.27598 0.0
H1382 H 0.75292 0.25686 0.29802 0.0
H1383 H 0.74874 0.30711 0.35128 0.0
H1384 H 0.71858 0.32064 0.34006 0.0
H1385 H 0.73097 0.30166 0.28352 0.0
C1386 C 0.79868 0.27205 0.30814 0.0
C1387 C 0.81072 0.27151 0.32406 0.0
C1388 C 0.80454 0.27973 0.3411 0.0
C1389 C 0.78658 0.28801 0.34244 0.0
C1390 C 0.77505 0.28835 0.3265 0.0
C1391 C 0.78098 0.28084 0.30957 0.0
C1392 C 0.7665 0.28431 0.29415 0.0
C1393 C 0.77481 0.29649 0.27826 0.0
C1394 C 0.75882 0.26562 0.28645 0.0
C1395 C 0.75148 0.29493 0.30504 0.0
C1396 C 0.75652 0.29679 0.32376 0.0
C1397 C 0.74473 0.30578 0.33664 0.0
C1398 C 0.72756 0.31332 0.33019 0.0
C1399 C 0.72242 0.31221 0.31096 0.0
C1400 C 0.73457 0.30277 0.29829 0.0
H1401 H 0.59482 0.92749 0.95686 0.0
H1402 H 0.55337 0.91683 1.00041 0.0
H1403 H 0.56362 0.94572 0.01697 0.0
H1404 H 0.63149 0.94763 0.98777 0.0
H1405 H 0.63848 0.96456 0.97017 0.0
H1406 H 0.62917 0.94206 0.96312 0.0
H1407 H 0.60373 0.95896 0.94313 0.0
H1408 H 0.61279 0.98148 0.95026 0.0
H1409 H 0.58837 0.97583 0.9542 0.0
H1410 H 0.57643 0.97809 0.02688 0.0
H1411 H 0.59193 1.00911 0.03025 0.0
H1412 H 0.62468 0.99802 0.97996 0.0
C1413 C 0.58815 0.93089 0.97013 0.0
C1414 C 0.57317 0.9198 0.97726 0.0
C1415 C 0.5648 0.92504 0.99459 0.0
C1416 C 0.57054 0.94148 1.00409 0.0
C1417 C 0.58482 0.95248 0.99622 0.0
C1418 C 0.59368 0.9472 0.97974 0.0
C1419 C 0.60797 0.96181 0.97359 0.0
C1420 C 0.62796 0.95352 0.97368 0.0
C1421 C 0.6029 0.97 0.95415 0.0
C1422 C 0.6056 0.97636 0.98897 0.0
C1423 C 0.59222 0.97077 1.00195 0.0
C1424 C 0.58708 0.98243 0.01689 0.0
C1425 C 0.59589 1.00013 0.01863 0.0
C1426 C 0.60973 1.0061 1.00551 0.0
C1427 C 0.61455 0.99387 0.99054 0.0
H1428 H 0.21269 0.78206 0.20228 0.0
H1429 H 0.17493 0.82686 0.21909 0.0
H1430 H 0.20211 0.84393 0.2333 0.0
H1431 H 0.24328 0.78395 0.24401 0.0
H1432 H 0.26402 0.77845 0.23049 0.0
H1433 H 0.24138 0.76962 0.22319 0.0
H1434 H 0.24608 0.7849 0.19036 0.0
H1435 H 0.2686 0.79396 0.19757 0.0
H1436 H 0.25082 0.80977 0.18871 0.0
H1437 H 0.23467 0.85709 0.24313 0.0
H1438 H 0.26801 0.86419 0.24954 0.0
H1439 H 0.28413 0.81021 0.22617 0.0
C1440 C 0.21003 0.79542 0.20911 0.0
C1441 C 0.19165 0.80323 0.20944 0.0
C1442 C 0.18881 0.82058 0.21873 0.0
C1443 C 0.20422 0.83036 0.22674 0.0
C1444 C 0.22227 0.82243 0.22561 0.0
C1445 C 0.22509 0.80516 0.21726 0.0
C1446 C 0.24574 0.79963 0.21746 0.0
C1447 C 0.24878 0.78186 0.22951 0.0
C1448 C 0.25324 0.79691 0.19733 0.0
C1449 C 0.25441 0.81677 0.22669 0.0
C1450 C 0.24067 0.82975 0.23139 0.0
C1451 C 0.24543 0.84694 0.23953 0.0
C1452 C 0.26456 0.85093 0.24294 0.0
C1453 C 0.27897 0.83788 0.23819 0.0
C1454 C 0.27361 0.82049 0.23007 0.0
H1455 H 0.10856 0.50894 0.05391 0.0
H1456 H 0.06037 0.48801 0.02298 0.0
H1457 H 0.04448 0.51874 0.02684 0.0
H1458 H 0.08166 0.53475 0.08803 0.0
H1459 H 0.09843 0.5537 0.08979 0.0
H1460 H 0.10625 0.53045 0.08351 0.0
H1461 H 0.12147 0.54396 0.05321 0.0
H1462 H 0.11345 0.56722 0.0593 0.0
H1463 H 0.10721 0.55719 0.03686 0.0
H1464 H 0.03376 0.55252 0.03412 0.0
H1465 H 0.02761 0.58392 0.04772 0.0
H1466 H 0.08207 0.58233 0.07531 0.0
C1467 C 0.09469 0.51089 0.04788 0.0
C1468 C 0.08576 0.49601 0.03807 0.0
C1469 C 0.06746 0.49907 0.03067 0.0
C1470 C 0.05838 0.51658 0.03266 0.0
C1471 C 0.06761 0.53099 0.04231 0.0
C1472 C 0.08526 0.5282 0.05005 0.0
C1473 C 0.09163 0.54552 0.06083 0.0
C1474 C 0.09466 0.54082 0.08178 0.0
C1475 C 0.1095 0.55397 0.05202 0.0
C1476 C 0.07481 0.55846 0.05805 0.0
C1477 C 0.06122 0.54998 0.04703 0.0
C1478 C 0.04435 0.55921 0.04274 0.0
C1479 C 0.04105 0.57722 0.05038 0.0
C1480 C 0.05441 0.58581 0.06246 0.0
C1481 C 0.07164 0.57631 0.06597 0.0
H1482 H 0.853 0.69051 0.20669 0.0
H1483 H 0.85742 0.73464 0.2484 0.0
H1484 H 0.83042 0.72082 0.26571 0.0
H1485 H 0.8047 0.68892 0.20407 0.0
H1486 H 0.80264 0.66377 0.20152 0.0
H1487 H 0.82371 0.67557 0.19389 0.0
H1488 H 0.84399 0.65409 0.2153 0.0
H1489 H 0.82301 0.64192 0.22275 0.0
H1490 H 0.83848 0.65221 0.24001 0.0
H1491 H 0.79948 0.70446 0.27562 0.0
H1492 H 0.7708 0.68491 0.27957 0.0
H1493 H 0.78772 0.65075 0.23209 0.0
C1494 C 0.84875 0.69685 0.21988 0.0
C1495 C 0.85759 0.71349 0.22637 0.0
C1496 C 0.85126 0.72163 0.24342 0.0
C1497 C 0.83575 0.71396 0.25322 0.0
C1498 C 0.82688 0.69794 0.24598 0.0
C1499 C 0.83352 0.68922 0.22993 0.0
C1500 C 0.82118 0.67262 0.22454 0.0
C1501 C 0.81255 0.6754 0.20484 0.0
C1502 C 0.83233 0.65411 0.22573 0.0
C1503 C 0.80622 0.67358 0.23974 0.0
C1504 C 0.80964 0.68833 0.25195 0.0
C1505 C 0.79695 0.69269 0.26632 0.0
C1506 C 0.7806 0.68159 0.26839 0.0
C1507 C 0.77706 0.66614 0.2563 0.0
C1508 C 0.79017 0.66218 0.24182 0.0
H1509 H 0.96602 0.02449 0.0321 0.0
H1510 H 0.90646 1.01113 0.03562 0.0
H1511 H 0.91426 0.97792 0.04132 0.0
H1512 H 0.98131 0.98104 1.00995 0.0
H1513 H 1.00254 0.97882 0.02366 0.0
H1514 H 0.99309 1.00181 0.01853 0.0
H1515 H 0.99151 1.01013 0.05376 0.0
H1516 H 1.00192 0.98768 0.0592 0.0
H1517 H 0.97988 0.9943 0.06987 0.0
H1518 H 0.92865 0.94556 0.0484 0.0
H1519 H 0.94845 0.91882 0.05937 0.0
H1520 H 0.99823 0.95317 0.05204 0.0
C1521 C 0.95454 0.01469 0.03403 0.0
C1522 C 0.93551 0.0208 0.03306 0.0
C1523 C 0.92114 1.00712 0.03579 0.0
C1524 C 0.92543 0.98805 0.0391 0.0
C1525 C 0.94424 0.98253 0.03978 0.0
C1526 C 0.95858 0.99552 0.03749 0.0
C1527 C 0.97765 0.98616 0.04017 0.0
C1528 C 0.98932 0.98702 0.02198 0.0
C1529 C 0.98836 0.99509 0.05674 0.0
C1530 C 0.97177 0.96605 0.04464 0.0
C1531 C 0.95245 0.96409 0.04407 0.0
C1532 C 0.94382 0.94692 0.04864 0.0
C1533 C 0.95516 0.93167 0.05463 0.0
C1534 C 0.9749 0.9337 0.0561 0.0
C1535 C 0.9832 0.95102 0.05056 0.0
H1536 H 0.28215 0.27804 0.19713 0.0
H1537 H 0.32303 0.31334 0.22562 0.0
H1538 H 0.33583 0.28537 0.24184 0.0
H1539 H 0.27337 0.24662 0.23579 0.0
H1540 H 0.27118 0.22611 0.22108 0.0
H1541 H 0.26527 0.24898 0.21183 0.0
H1542 H 0.2888 0.24412 0.18442 0.0
H1543 H 0.29479 0.22124 0.19359 0.0
H1544 H 0.31299 0.23847 0.18962 0.0
H1545 H 0.34436 0.25264 0.25527 0.0
H1546 H 0.34724 0.21895 0.26426 0.0
H1547 H 0.30121 0.20553 0.22642 0.0
C1548 C 0.29389 0.27998 0.20663 0.0
C1549 C 0.30147 0.29814 0.20997 0.0
C1550 C 0.31671 0.29978 0.22285 0.0
C1551 C 0.3242 0.28388 0.23211 0.0
C1552 C 0.31639 0.26624 0.22846 0.0
C1553 C 0.30155 0.26425 0.216 0.0
C1554 C 0.29558 0.24381 0.21453 0.0
C1555 C 0.27514 0.24124 0.22121 0.0
C1556 C 0.2982 0.23648 0.19434 0.0
C1557 C 0.30938 0.23457 0.22804 0.0
C1558 C 0.3213 0.24768 0.236 0.0
C1559 C 0.33509 0.24229 0.24905 0.0
C1560 C 0.33667 0.22309 0.25408 0.0
C1561 C 0.32456 0.20943 0.24607 0.0
C1562 C 0.31082 0.21546 0.23283 0.0
H1563 H 0.32706 0.83311 0.32998 0.0
H1564 H 0.28842 0.84291 0.2837 0.0
H1565 H 0.27515 0.81098 0.28831 0.0
H1566 H 0.33731 0.78613 0.32012 0.0
H1567 H 0.33825 0.77836 0.34429 0.0
H1568 H 0.34351 0.80247 0.33849 0.0
H1569 H 0.31783 0.81394 0.3616 0.0
H1570 H 0.31267 0.78986 0.36772 0.0
H1571 H 0.29415 0.80509 0.35938 0.0
H1572 H 0.26844 0.77609 0.29618 0.0
H1573 H 0.26673 0.74347 0.3084 0.0
H1574 H 0.30884 0.75683 0.35043 0.0
C1575 C 0.31544 0.82878 0.32112 0.0
C1576 C 0.30873 0.84076 0.30653 0.0
C1577 C 0.29367 0.83427 0.29514 0.0
C1578 C 0.28614 0.81602 0.29758 0.0
C1579 C 0.29354 0.80438 0.31171 0.0
C1580 C 0.30762 0.81071 0.32354 0.0
C1581 C 0.31348 0.79541 0.33739 0.0
C1582 C 0.33438 0.7903 0.33492 0.0
C1583 C 0.30928 0.80143 0.35773 0.0
C1584 C 0.3008 0.77928 0.33135 0.0
C1585 C 0.28944 0.78469 0.31645 0.0
C1586 C 0.27718 0.77188 0.30794 0.0
C1587 C 0.27642 0.75327 0.31489 0.0
C1588 C 0.2877 0.74746 0.33036 0.0
C1589 C 0.29996 0.76081 0.33869 0.0
H1590 H 0.02209 0.50446 0.9428 0.0
H1591 H 0.05047 0.51663 0.89019 0.0
H1592 H 0.08124 0.51103 0.90547 0.0
H1593 H 0.059 0.52468 0.97449 0.0
H1594 H 0.0556 0.50638 0.99173 0.0
H1595 H 0.03618 0.51395 0.97726 0.0
H1596 H 0.03104 0.47953 0.96639 0.0
H1597 H 0.05043 0.47201 0.98084 0.0
H1598 H 0.05037 0.46681 0.956 0.0
H1599 H 0.10909 0.50092 0.92594 0.0
H1600 H 0.13042 0.48519 0.94888 0.0
H1601 H 0.08392 0.47955 0.98785 0.0
C1602 C 0.0348 0.50643 0.93464 0.0
C1603 C 0.03379 0.51107 0.91527 0.0
C1604 C 0.05082 0.513 0.905 0.0
C1605 C 0.06841 0.50998 0.91361 0.0
C1606 C 0.06892 0.50505 0.93262 0.0
C1607 C 0.05252 0.50329 0.94301 0.0
C1608 C 0.05675 0.49625 0.96274 0.0
C1609 C 0.05157 0.51122 0.97742 0.0
C1610 C 0.04655 0.47754 0.96671 0.0
C1611 C 0.07794 0.49358 0.9616 0.0
C1612 C 0.08483 0.49913 0.94428 0.0
C1613 C 0.10387 0.49683 0.93966 0.0
C1614 C 0.11598 0.48804 0.95281 0.0
C1615 C 0.10891 0.48149 0.97023 0.0
C1616 C 0.08978 0.4848 0.97476 0.0
H1617 H 0.73802 0.77412 0.34234 0.0
H1618 H 0.69492 0.80463 0.31146 0.0
H1619 H 0.68595 0.77522 0.29527 0.0
H1620 H 0.75179 0.74333 0.30498 0.0
H1621 H 0.75546 0.72343 0.32034 0.0
H1622 H 0.75854 0.74696 0.32918 0.0
H1623 H 0.73446 0.74019 0.35573 0.0
H1624 H 0.73132 0.71663 0.34699 0.0
H1625 H 0.71125 0.73189 0.34969 0.0
H1626 H 0.6818 0.7414 0.28209 0.0
H1627 H 0.6828 0.70737 0.27417 0.0
H1628 H 0.72789 0.69963 0.31468 0.0
C1629 C 0.72655 0.77478 0.33236 0.0
C1630 C 0.71723 0.79202 0.32836 0.0
C1631 C 0.7025 0.79186 0.3148 0.0
C1632 C 0.69722 0.77511 0.30553 0.0
C1633 C 0.70671 0.75844 0.30989 0.0
C1634 C 0.72106 0.75823 0.32305 0.0
C1635 C 0.72908 0.73857 0.32538 0.0
C1636 C 0.74995 0.73805 0.31962 0.0
C1637 C 0.72636 0.7314 0.34565 0.0
C1638 C 0.71696 0.72767 0.31159 0.0
C1639 C 0.70418 0.73931 0.30265 0.0
C1640 C 0.69174 0.73222 0.28911 0.0
C1641 C 0.69239 0.71283 0.28468 0.0
C1642 C 0.7053 0.70065 0.29384 0.0
C1643 C 0.71768 0.70838 0.30746 0.0
H1644 H 0.46177 0.56691 0.49857 0.0
H1645 H 0.42757 0.54852 0.4516 0.0
H1646 H 0.45607 0.53447 0.43679 0.0
H1647 H 0.50068 0.58117 0.47343 0.0
H1648 H 0.51799 0.57319 0.49022 0.0
H1649 H 0.49475 0.57944 0.49806 0.0
H1650 H 0.49038 0.54642 0.51322 0.0
H1651 H 0.51391 0.54035 0.5059 0.0
H1652 H 0.49432 0.52578 0.49904 0.0
H1653 H 0.48958 0.52558 0.42584 0.0
H1654 H 0.52347 0.52045 0.42073 0.0
H1655 H 0.53561 0.545 0.47526 0.0
C1656 C 0.46014 0.55944 0.4854 0.0
C1657 C 0.44237 0.55859 0.47633 0.0
C1658 C 0.44091 0.54899 0.45898 0.0
C1659 C 0.45709 0.54114 0.45043 0.0
C1660 C 0.47455 0.54286 0.45953 0.0
C1661 C 0.47602 0.55151 0.47684 0.0
C1662 C 0.49633 0.5523 0.48351 0.0
C1663 C 0.50281 0.57274 0.48647 0.0
C1664 C 0.49889 0.54052 0.50151 0.0
C1665 C 0.50635 0.54331 0.46698 0.0
C1666 C 0.49356 0.53785 0.45332 0.0
C1667 C 0.4996 0.52975 0.43653 0.0
C1668 C 0.51904 0.52709 0.43367 0.0
C1669 C 0.53249 0.53252 0.44748 0.0
C1670 C 0.52584 0.54063 0.46442 0.0
H1671 H 0.25157 0.75066 0.68896 0.0
H1672 H 0.20884 0.71634 0.71599 0.0
H1673 H 0.19531 0.74483 0.73054 0.0
H1674 H 0.25832 0.78295 0.72712 0.0
H1675 H 0.26161 0.80304 0.71194 0.0
H1676 H 0.26784 0.77988 0.70381 0.0
H1677 H 0.24607 0.78421 0.67483 0.0
H1678 H 0.23975 0.80738 0.68289 0.0
H1679 H 0.22166 0.79019 0.67832 0.0
H1680 H 0.18624 0.77802 0.74228 0.0
H1681 H 0.18321 0.81195 0.75008 0.0
H1682 H 0.23159 0.82398 0.71479 0.0
C1683 C 0.23927 0.74904 0.69778 0.0
C1684 C 0.23134 0.73103 0.7012 0.0
C1685 C 0.2154 0.7298 0.7132 0.0
C1686 C 0.2075 0.74599 0.72148 0.0
C1687 C 0.21565 0.76348 0.71774 0.0
C1688 C 0.23122 0.76504 0.70617 0.0
C1689 C 0.23748 0.78538 0.70443 0.0
C1690 C 0.2575 0.78796 0.7123 0.0
C1691 C 0.23615 0.79219 0.6839 0.0
C1692 C 0.22298 0.79507 0.71674 0.0
C1693 C 0.21047 0.78228 0.72435 0.0
C1694 C 0.19597 0.78812 0.73633 0.0
C1695 C 0.19432 0.80745 0.74067 0.0
C1696 C 0.20706 0.82079 0.73305 0.0
C1697 C 0.22149 0.81431 0.72087 0.0
H1698 H 0.07248 0.54888 0.55777 0.0
H1699 H 0.06118 0.58161 0.50738 0.0
H1700 H 0.02683 0.57742 0.51272 0.0
H1701 H 0.0352 0.51533 0.55167 0.0
H1702 H 0.03037 0.51356 0.57652 0.0
H1703 H 0.05375 0.51928 0.56854 0.0
H1704 H 0.05336 0.54962 0.58876 0.0
H1705 H 0.03001 0.54397 0.59682 0.0
H1706 H 0.03451 0.56636 0.58572 0.0
H1707 H 0.99292 0.56831 0.52382 0.0
H1708 H 0.96408 0.55691 0.53987 0.0
H1709 H 0.99863 0.53113 0.58316 0.0
C1710 C 0.06289 0.5553 0.5478 0.0
C1711 C 0.06971 0.56566 0.53211 0.0
C1712 C 0.05643 0.5737 0.51953 0.0
C1713 C 0.03686 0.57131 0.52245 0.0
C1714 C 0.0307 0.56088 0.53804 0.0
C1715 C 0.04345 0.55309 0.55051 0.0
C1716 C 0.03353 0.5425 0.56622 0.0
C1717 C 0.03851 0.52142 0.5657 0.0
C1718 C 0.03813 0.55113 0.58552 0.0
C1719 C 1.01311 0.54569 0.56091 0.0
C1720 C 1.01165 0.55611 0.5445 0.0
C1721 C 0.99404 0.56024 0.53671 0.0
C1722 C 0.97768 0.55364 0.54592 0.0
C1723 C 0.97887 0.54315 0.56293 0.0
C1724 C 0.99697 0.53927 0.5704 0.0
H1725 H 0.92258 0.95241 0.58723 0.0
H1726 H 0.91999 0.98917 0.53847 0.0
H1727 H 0.94898 1.00525 0.5492 0.0
H1728 H 0.94087 0.9881 0.62057 0.0
H1729 H 0.95543 0.97112 0.6326 0.0
H1730 H 0.93369 0.9638 0.62177 0.0
H1731 H 0.95188 0.93879 0.60256 0.0
H1732 H 0.97369 0.9462 0.6131 0.0
H1733 H 0.97124 0.94606 0.58784 0.0
H1734 H 0.98068 0.01492 0.56382 0.0
H1735 H 1.00979 0.0195 0.58248 0.0
H1736 H 0.99097 0.97719 0.62229 0.0
C1737 C 0.9278 0.96419 0.57905 0.0
C1738 C 0.9188 0.96958 0.56203 0.0
C1739 C 0.92635 0.98491 0.55167 0.0
C1740 C 0.94295 0.99405 0.55761 0.0
C1741 C 0.95177 0.98795 0.57415 0.0
C1742 C 0.9442 0.97359 0.58491 0.0
C1743 C 0.95657 0.96929 0.60185 0.0
C1744 C 0.94601 0.97333 0.62029 0.0
C1745 C 0.96377 0.94888 0.60129 0.0
C1746 C 0.97252 0.9832 0.59884 0.0
C1747 C 0.96957 0.99379 0.58273 0.0
C1748 C 0.98293 1.00686 0.57658 0.0
C1749 C 0.99953 1.00927 0.58721 0.0
C1750 C 1.0027 0.99882 0.60396 0.0
C1751 C 0.98888 0.98565 0.60976 0.0
H1752 H 0.73074 0.8506 0.72277 0.0
H1753 H 0.72449 0.80298 0.68514 0.0
H1754 H 0.70949 0.78484 0.71103 0.0
H1755 H 0.74331 0.82416 0.76326 0.0
H1756 H 0.73105 0.83927 0.77949 0.0
H1757 H 0.74006 0.84873 0.75776 0.0
H1758 H 0.70683 0.86091 0.74891 0.0
H1759 H 0.69773 0.85165 0.77071 0.0
H1760 H 0.68729 0.84472 0.74865 0.0
H1761 H 0.69575 0.7718 0.74184 0.0
H1762 H 0.68443 0.7651 0.77405 0.0
H1763 H 0.70082 0.82116 0.79151 0.0
C1764 C 0.72602 0.83643 0.71976 0.0
C1765 C 0.72868 0.8283 0.70173 0.0
C1766 C 0.72246 0.80962 0.69869 0.0
C1767 C 0.714 0.79919 0.71337 0.0
C1768 C 0.71194 0.80761 0.73105 0.0
C1769 C 0.71777 0.82585 0.73423 0.0
C1770 C 0.71461 0.83159 0.75456 0.0
C1771 C 0.73337 0.83621 0.76434 0.0
C1772 C 0.70079 0.8482 0.75577 0.0
C1773 C 0.706 0.81373 0.76247 0.0
C1774 C 0.70451 0.80008 0.74869 0.0
C1775 C 0.69683 0.78246 0.75265 0.0
C1776 C 0.69036 0.7788 0.77101 0.0
C1777 C 0.69163 0.79262 0.78537 0.0
C1778 C 0.69978 0.81025 0.78096 0.0
H1779 H 0.02179 0.08299 0.49563 0.0
H1780 H 0.05416 0.04517 0.46052 0.0
H1781 H 0.06814 0.03072 0.48919 0.0
H1782 H 0.0567 0.09148 0.53043 0.0
H1783 H 0.0403 0.09175 0.54978 0.0
H1784 H 0.03261 0.09851 0.52656 0.0
H1785 H 1.00616 0.07318 0.52758 0.0
H1786 H 1.01362 0.06689 0.55102 0.0
H1787 H 1.01229 0.04915 0.533 0.0
H1788 H 0.07935 0.02112 0.52267 0.0
H1789 H 0.08524 0.01651 0.55683 0.0
H1790 H 0.04532 0.06098 0.5692 0.0
C1791 C 0.03195 0.07179 0.49389 0.0
C1792 C 0.03709 0.06542 0.47572 0.0
C1793 C 0.05001 0.0503 0.47424 0.0
C1794 C 0.05807 0.04206 0.49047 0.0
C1795 C 0.05291 0.04893 0.50817 0.0
C1796 C 0.03997 0.06335 0.50989 0.0
C1797 C 0.03649 0.06814 0.53038 0.0
C1798 C 0.04185 0.08869 0.53452 0.0
C1799 C 0.01592 0.0641 0.53581 0.0
C1800 C 0.04982 0.05451 0.54001 0.0
C1801 C 0.05914 0.04343 0.52705 0.0
C1802 C 0.07208 0.02975 0.53287 0.0
C1803 C 0.0754 0.02726 0.55234 0.0
C1804 C 0.06588 0.03842 0.56584 0.0
C1805 C 0.053 0.05225 0.55938 0.0
H1806 H 0.3853 0.72836 0.73803 0.0
H1807 H 0.35226 0.77686 0.75443 0.0
H1808 H 0.33037 0.77097 0.7279 0.0
H1809 H 0.37917 0.7329 0.6869 0.0
H1810 H 0.37727 0.70784 0.68352 0.0
H1811 H 0.3912 0.71699 0.70264 0.0
H1812 H 0.37188 0.69718 0.72646 0.0
H1813 H 0.35805 0.68787 0.70741 0.0
H1814 H 0.3466 0.69943 0.72685 0.0
H1815 H 0.31112 0.7586 0.69992 0.0
H1816 H 0.29493 0.73925 0.67583 0.0
H1817 H 0.34033 0.69857 0.67852 0.0
C1818 C 0.37368 0.73797 0.73582 0.0
C1819 C 0.37063 0.75321 0.74823 0.0
C1820 C 0.35489 0.7651 0.74514 0.0
C1821 C 0.34246 0.76193 0.73001 0.0
C1822 C 0.34584 0.74672 0.71806 0.0
C1823 C 0.36102 0.73486 0.72094 0.0
C1824 C 0.36074 0.71861 0.70715 0.0
C1825 C 0.37813 0.71912 0.69429 0.0
C1826 C 0.35922 0.69966 0.71759 0.0
C1827 C 0.34293 0.72299 0.6962 0.0
C1828 C 0.33464 0.73943 0.70244 0.0
C1829 C 0.31762 0.74582 0.69484 0.0
C1830 C 0.30858 0.73482 0.681 0.0
C1831 C 0.31644 0.71749 0.67508 0.0
C1832 C 0.33407 0.71186 0.68254 0.0
H1833 H 0.97553 0.42697 0.5081 0.0
H1834 H 1.00799 0.47557 0.49065 0.0
H1835 H 1.00525 0.48888 0.52272 0.0
H1836 H 0.94302 0.45241 0.53701 0.0
H1837 H 0.94116 0.43407 0.55449 0.0
H1838 H 0.94663 0.42817 0.53048 0.0
H1839 H 0.97674 0.41089 0.54175 0.0
H1840 H 0.97145 0.41694 0.5658 0.0
H1841 H 0.99383 0.42337 0.55573 0.0
H1842 H 0.99884 0.49683 0.55733 0.0
H1843 H 0.98651 0.50018 0.58974 0.0
H1844 H 0.95711 0.44703 0.584 0.0
C1845 C 0.98212 0.44037 0.51109 0.0
C1846 C 0.99194 0.45024 0.49682 0.0
C1847 C 1.00019 0.46786 0.50124 0.0
C1848 C 0.99885 0.47545 0.51949 0.0
C1849 C 0.98908 0.46533 0.53325 0.0
C1850 C 0.98068 0.44826 0.52917 0.0
C1851 C 0.97011 0.44067 0.54612 0.0
C1852 C 0.94898 0.43873 0.54176 0.0
C1853 C 0.97854 0.42185 0.55274 0.0
C1854 C 0.97375 0.45615 0.56036 0.0
C1855 C 0.98495 0.47014 0.55279 0.0
C1856 C 0.99 0.48595 0.56331 0.0
C1857 C 0.98293 0.48775 0.58176 0.0
C1858 C 0.97063 0.47404 0.58948 0.0
C1859 C 0.96646 0.45783 0.57865 0.0
H1860 H 0.71204 0.2514 0.74174 0.0
H1861 H 0.70127 0.19431 0.72342 0.0
H1862 H 0.71477 0.18215 0.75328 0.0
H1863 H 0.75695 0.24163 0.76404 0.0
H1864 H 0.75322 0.25803 0.783 0.0
H1865 H 0.74237 0.26211 0.76043 0.0
H1866 H 0.70948 0.26364 0.77629 0.0
H1867 H 0.72048 0.25989 0.79885 0.0
H1868 H 0.70191 0.24446 0.79107 0.0
H1869 H 0.72725 0.17645 0.78672 0.0
H1870 H 0.74172 0.17755 0.81857 0.0
H1871 H 0.74726 0.23808 0.81364 0.0
C1872 C 0.71261 0.23634 0.74403 0.0
C1873 C 0.70556 0.22377 0.73025 0.0
C1874 C 0.70671 0.20416 0.73368 0.0
C1875 C 0.71424 0.19715 0.75067 0.0
C1876 C 0.7209 0.20991 0.76404 0.0
C1877 C 0.72047 0.2291 0.76074 0.0
C1878 C 0.72905 0.23981 0.77712 0.0
C1879 C 0.74643 0.25106 0.77076 0.0
C1880 C 0.71436 0.25272 0.78638 0.0
C1881 C 0.73443 0.22368 0.79015 0.0
C1882 C 0.72923 0.20655 0.78256 0.0
C1883 C 0.73165 0.18977 0.79262 0.0
C1884 C 0.7398 0.1905 0.81072 0.0
C1885 C 0.74586 0.20782 0.81841 0.0
C1886 C 0.74309 0.22458 0.80793 0.0
H1887 H 0.43949 0.04512 0.46435 0.0
H1888 H 0.4877 0.05965 0.42978 0.0
H1889 H 0.50162 0.07665 0.45713 0.0
H1890 H 0.43684 0.08769 0.49195 0.0
H1891 H 0.43035 0.07514 0.51306 0.0
H1892 H 0.42395 0.0659 0.49035 0.0
H1893 H 0.44064 0.03452 0.49858 0.0
H1894 H 0.44729 0.04371 0.52123 0.0
H1895 H 0.46506 0.03482 0.50549 0.0
H1896 H 0.51056 0.09085 0.48977 0.0
H1897 H 0.51361 0.10079 0.52294 0.0
H1898 H 0.45972 0.07521 0.53573 0.0
C1899 C 0.45291 0.05204 0.46225 0.0
C1900 C 0.46244 0.05108 0.44469 0.0
C1901 C 0.47999 0.06035 0.4429 0.0
C1902 C 0.48802 0.06992 0.45845 0.0
C1903 C 0.47836 0.07003 0.47569 0.0
C1904 C 0.46112 0.06131 0.47753 0.0
C1905 C 0.45375 0.06246 0.49755 0.0
C1906 C 0.43512 0.07345 0.49827 0.0
C1907 C 0.45156 0.0427 0.50622 0.0
C1908 C 0.46951 0.07325 0.50697 0.0
C1909 C 0.48356 0.07762 0.49416 0.0
C1910 C 0.49954 0.08755 0.49975 0.0
C1911 C 0.50109 0.09323 0.51869 0.0
C1912 C 0.48682 0.08894 0.53207 0.0
C1913 C 0.47091 0.07866 0.52599 0.0
H1914 H 0.31021 0.28295 0.74964 0.0
H1915 H 0.36642 0.30695 0.75061 0.0
H1916 H 0.36363 0.31199 0.78474 0.0
H1917 H 0.28999 0.31556 0.78212 0.0
H1918 H 0.27487 0.29837 0.79311 0.0
H1919 H 0.28198 0.29539 0.769 0.0
H1920 H 0.29465 0.2624 0.77751 0.0
H1921 H 0.28854 0.26558 0.80195 0.0
H1922 H 0.3124 0.25996 0.79551 0.0
H1923 H 0.35441 0.31595 0.81883 0.0
H1924 H 0.33769 0.32246 0.84869 0.0
H1925 H 0.28734 0.2968 0.82604 0.0
C1926 C 0.32195 0.28932 0.75692 0.0
C1927 C 0.33871 0.29425 0.74714 0.0
C1928 C 0.3536 0.3026 0.75757 0.0
C1929 C 0.35215 0.30554 0.77708 0.0
C1930 C 0.33567 0.30017 0.78627 0.0
C1931 C 0.32071 0.29248 0.7765 0.0
C1932 C 0.3041 0.28912 0.78962 0.0
C1933 C 0.28672 0.30028 0.78308 0.0
C1934 C 0.29966 0.268 0.79122 0.0
C1935 C 0.31188 0.29667 0.8081 0.0
C1936 C 0.33029 0.30258 0.80596 0.0
C1937 C 0.34011 0.31107 0.82075 0.0
C1938 C 0.33061 0.31445 0.83782 0.0
C1939 C 0.3115 0.30938 0.84004 0.0
C1940 C 0.30224 0.29995 0.82509 0.0
H1941 H 0.57575 0.43953 0.44963 0.0
H1942 H 0.54397 0.49092 0.44109 0.0
H1943 H 0.53303 0.48944 0.47413 0.0
H1944 H 0.53973 0.41682 0.48017 0.0
H1945 H 0.55732 0.4052 0.49432 0.0
H1946 H 0.56192 0.41015 0.46985 0.0
H1947 H 0.59222 0.42801 0.47935 0.0
H1948 H 0.58756 0.42344 0.50385 0.0
H1949 H 0.5907 0.44729 0.49573 0.0
H1950 H 0.52948 0.48444 0.50982 0.0
H1951 H 0.52769 0.47298 0.54272 0.0
H1952 H 0.55846 0.42281 0.52715 0.0
C1953 C 0.56615 0.45029 0.45454 0.0
C1954 C 0.56112 0.46565 0.44274 0.0
C1955 C 0.54836 0.47924 0.44982 0.0
C1956 C 0.54208 0.4785 0.46865 0.0
C1957 C 0.54811 0.46367 0.48015 0.0
C1958 C 0.55932 0.44944 0.47313 0.0
C1959 C 0.56347 0.43479 0.48825 0.0
C1960 C 0.55511 0.4156 0.48282 0.0
C1961 C 0.58475 0.4333 0.49201 0.0
C1962 C 0.55325 0.44319 0.50503 0.0
C1963 C 0.54473 0.46002 0.50014 0.0
C1964 C 0.53569 0.47105 0.51362 0.0
C1965 C 0.53486 0.4645 0.53235 0.0
C1966 C 0.54266 0.44687 0.53754 0.0
C1967 C 0.55207 0.43618 0.52359 0.0
H1968 H 0.70798 0.73168 0.82413 0.0
H1969 H 0.65895 0.70342 0.80126 0.0
H1970 H 0.68016 0.681 0.78462 0.0
H1971 H 0.73751 0.72722 0.7828 0.0
H1972 H 0.75859 0.72401 0.79658 0.0
H1973 H 0.73945 0.73785 0.80574 0.0
H1974 H 0.73842 0.71671 0.83552 0.0
H1975 H 0.75749 0.70277 0.82645 0.0
H1976 H 0.73564 0.69163 0.83293 0.0
H1977 H 0.70773 0.6605 0.7721 0.0
H1978 H 0.73784 0.64521 0.76387 0.0
H1979 H 0.76819 0.68786 0.79516 0.0
C1980 C 0.70155 0.72082 0.81562 0.0
C1981 C 0.68171 0.71921 0.81418 0.0
C1982 C 0.67406 0.70494 0.8026 0.0
C1983 C 0.68604 0.69215 0.79315 0.0
C1984 C 0.70558 0.69403 0.79523 0.0
C1985 C 0.71319 0.70821 0.80607 0.0
C1986 C 0.73452 0.7074 0.80635 0.0
C1987 C 0.74301 0.72518 0.79733 0.0
C1988 C 0.74194 0.70445 0.82651 0.0
C1989 C 0.73794 0.69025 0.79427 0.0
C1990 C 0.72113 0.68269 0.78792 0.0
C1991 C 0.72089 0.66644 0.77697 0.0
C1992 C 0.73813 0.65775 0.77247 0.0
C1993 C 0.75554 0.66525 0.77886 0.0
C1994 C 0.75527 0.68184 0.78981 0.0
H1995 H 0.9627 0.99463 0.48808 0.0
H1996 H 0.90564 1.00841 0.50501 0.0
H1997 H 0.91304 0.04204 0.50275 0.0
H1998 H 0.98548 0.03521 0.5129 0.0
H1999 H 1.00246 0.03874 0.49438 0.0
H2000 H 0.9936 0.01546 0.49927 0.0
H2001 H 0.98276 1.01193 0.46458 0.0
H2002 H 0.99208 0.0349 0.45956 0.0
H2003 H 0.96779 0.02972 0.45433 0.0
H2004 H 0.92515 0.07423 0.49473 0.0
H2005 H 0.94069 0.10157 0.4796 0.0
H2006 H 0.99029 0.06776 0.46983 0.0
C2007 C 0.95186 1.00471 0.49163 0.0
C2008 C 0.93349 0.99862 0.49648 0.0
C2009 C 0.91969 1.01242 0.50079 0.0
C2010 C 0.92384 0.03171 0.49986 0.0
C2011 C 0.94197 0.03721 0.49486 0.0
C2012 C 0.95581 0.02411 0.49086 0.0
C2013 C 0.97373 0.03379 0.48438 0.0
C2014 C 0.98977 0.03061 0.49858 0.0
C2015 C 0.97941 0.0272 0.46454 0.0
C2016 C 0.96744 0.05422 0.48438 0.0
C2017 C 0.9492 0.05596 0.49088 0.0
C2018 C 0.93963 0.07316 0.49015 0.0
C2019 C 0.94861 0.08872 0.48175 0.0
C2020 C 0.96694 0.08697 0.4743 0.0
C2021 C 0.97664 0.06969 0.47629 0.0
H2022 H 0.28825 0.86786 0.77708 0.0
H2023 H 0.24414 0.83209 0.79958 0.0
H2024 H 0.26826 0.81058 0.81253 0.0
H2025 H 0.31923 0.83111 0.76339 0.0
H2026 H 0.34028 0.84381 0.76965 0.0
H2027 H 0.31946 0.85647 0.76268 0.0
H2028 H 0.32038 0.87517 0.79397 0.0
H2029 H 0.3412 0.86252 0.80104 0.0
H2030 H 0.32075 0.86259 0.81605 0.0
H2031 H 0.29801 0.79239 0.82268 0.0
H2032 H 0.33002 0.77936 0.82797 0.0
H2033 H 0.35393 0.82765 0.7991 0.0
C2034 C 0.28357 0.85568 0.78493 0.0
C2035 C 0.26416 0.85181 0.78728 0.0
C2036 C 0.25884 0.83538 0.79737 0.0
C2037 C 0.27248 0.82309 0.80491 0.0
C2038 C 0.29147 0.82736 0.8023 0.0
C2039 C 0.29696 0.84329 0.79251 0.0
C2040 C 0.3182 0.84454 0.79116 0.0
C2041 C 0.32466 0.84394 0.7705 0.0
C2042 C 0.32556 0.86226 0.80116 0.0
C2043 C 0.32385 0.82683 0.80164 0.0
C2044 C 0.30831 0.81706 0.80806 0.0
C2045 C 0.31025 0.80002 0.81777 0.0
C2046 C 0.3285 0.79273 0.82078 0.0
C2047 C 0.34457 0.80245 0.81404 0.0
C2048 C 0.34203 0.81982 0.80455 0.0
H2049 H 0.0877 0.50961 0.50642 0.0
H2050 H 0.14258 0.48287 0.50341 0.0
H2051 H 0.12732 0.45232 0.49785 0.0
H2052 H 0.06246 0.46977 0.52846 0.0
H2053 H 0.04149 0.47364 0.51471 0.0
H2054 H 0.05637 0.49323 0.52087 0.0
H2055 H 0.05982 0.50236 0.48574 0.0
H2056 H 0.04452 0.48322 0.47952 0.0
H2057 H 0.06759 0.48489 0.46909 0.0
H2058 H 0.1062 0.425 0.48898 0.0
H2059 H 0.08139 0.4048 0.47499 0.0
H2060 H 0.04054 0.44904 0.48385 0.0
C2061 C 0.09659 0.49738 0.50473 0.0
C2062 C 0.11648 0.49888 0.50554 0.0
C2063 C 0.12738 0.48229 0.50324 0.0
C2064 C 0.11881 0.46475 0.50006 0.0
C2065 C 0.09923 0.46381 0.49931 0.0
C2066 C 0.08826 0.47974 0.50153 0.0
C2067 C 0.06761 0.47529 0.49849 0.0
C2068 C 0.05632 0.47816 0.51672 0.0
C2069 C 0.05942 0.48713 0.48224 0.0
C2070 C 0.06876 0.45459 0.49339 0.0
C2071 C 0.08707 0.44806 0.49434 0.0
C2072 C 0.09176 0.42983 0.4886 0.0
C2073 C 0.07757 0.41831 0.48089 0.0
C2074 C 0.059 0.42516 0.47893 0.0
C2075 C 0.05451 0.44324 0.48588 0.0
H2076 H 0.77317 0.35112 0.72353 0.0
H2077 H 0.78041 0.317 0.77363 0.0
H2078 H 0.74887 0.30298 0.7687 0.0
H2079 H 0.72278 0.35962 0.72817 0.0
H2080 H 0.7183 0.35755 0.70327 0.0
H2081 H 0.74087 0.36575 0.71145 0.0
H2082 H 0.75755 0.33938 0.69265 0.0
H2083 H 0.73507 0.33129 0.68424 0.0
H2084 H 0.75063 0.31524 0.6963 0.0
H2085 H 0.71596 0.29244 0.7578 0.0
H2086 H 0.68724 0.28356 0.74005 0.0
H2087 H 0.70227 0.32346 0.69629 0.0
C2088 C 0.76803 0.34079 0.7335 0.0
C2089 C 0.77931 0.33518 0.74897 0.0
C2090 C 0.77216 0.32141 0.76158 0.0
C2091 C 0.75415 0.31349 0.75898 0.0
C2092 C 0.74337 0.31931 0.74356 0.0
C2093 C 0.75019 0.33249 0.73091 0.0
C2094 C 0.73642 0.33542 0.71479 0.0
C2095 C 0.72917 0.3558 0.71441 0.0
C2096 C 0.74546 0.33 0.69588 0.0
C2097 C 0.72086 0.32177 0.72023 0.0
C2098 C 0.72492 0.31283 0.73704 0.0
C2099 C 0.71267 0.29939 0.74464 0.0
C2100 C 0.69625 0.29453 0.73452 0.0
C2101 C 0.69232 0.30283 0.71677 0.0
C2102 C 0.70469 0.31694 0.70989 0.0
H2103 H 0.58596 0.99999 0.57669 0.0
H2104 H 0.59331 1.00759 0.51657 0.0
H2105 H 0.58234 0.04047 0.51922 0.0
H2106 H 0.54375 0.02759 0.58087 0.0
H2107 H 0.55014 0.03722 0.60344 0.0
H2108 H 0.5588 0.01445 0.59657 0.0
H2109 H 0.59299 0.02584 0.60227 0.0
H2110 H 0.58441 0.04873 0.60893 0.0
H2111 H 0.6014 0.04657 0.59023 0.0
H2112 H 0.56917 0.07313 0.52866 0.0
H2113 H 0.55445 0.10095 0.54395 0.0
H2114 H 0.55718 0.07198 0.59771 0.0
C2115 C 0.58517 1.00853 0.56407 0.0
C2116 C 0.59065 1.00108 0.54643 0.0
C2117 C 0.5895 1.01292 0.5303 0.0
C2118 C 0.58321 0.03168 0.53166 0.0
C2119 C 0.57817 0.03865 0.54928 0.0
C2120 C 0.57909 0.02738 0.56519 0.0
C2121 C 0.57274 0.03813 0.58246 0.0
C2122 C 0.55532 0.0288 0.59135 0.0
C2123 C 0.58885 0.03992 0.59682 0.0
C2124 C 0.56789 0.05709 0.5738 0.0
C2125 C 0.5711 0.05726 0.55465 0.0
C2126 C 0.5668 0.07315 0.54371 0.0
C2127 C 0.5586 0.08902 0.55252 0.0
C2128 C 0.5548 0.08888 0.57209 0.0
C2129 C 0.55999 0.07276 0.58275 0.0
H2130 H 0.33065 0.19795 0.70106 0.0
H2131 H 0.33651 0.2495 0.73301 0.0
H2132 H 0.30381 0.24597 0.74447 0.0
H2133 H 0.28389 0.2026 0.68712 0.0
H2134 H 0.27725 0.17835 0.69053 0.0
H2135 H 0.30136 0.18428 0.68545 0.0
H2136 H 0.31236 0.16715 0.71571 0.0
H2137 H 0.28831 0.16081 0.72071 0.0
H2138 H 0.302 0.1733 0.73803 0.0
H2139 H 0.26846 0.23946 0.74769 0.0
H2140 H 0.23627 0.22646 0.74986 0.0
H2141 H 0.25427 0.17653 0.72009 0.0
C2142 C 0.32524 0.20822 0.71092 0.0
C2143 C 0.33623 0.22417 0.71595 0.0
C2144 C 0.3285 0.23725 0.72885 0.0
C2145 C 0.30983 0.23539 0.73535 0.0
C2146 C 0.29914 0.21997 0.72942 0.0
C2147 C 0.30684 0.20619 0.71812 0.0
C2148 C 0.2925 0.19068 0.7143 0.0
C2149 C 0.28852 0.18888 0.69309 0.0
C2150 C 0.29919 0.17187 0.72269 0.0
C2151 C 0.27535 0.19812 0.72475 0.0
C2152 C 0.2794 0.21526 0.73301 0.0
C2153 C 0.26537 0.22576 0.74182 0.0
C2154 C 0.24702 0.21831 0.74289 0.0
C2155 C 0.24269 0.20026 0.73559 0.0
C2156 C 0.25717 0.19014 0.72626 0.0
H2157 H 0.49666 0.45591 0.55811 0.0
H2158 H 0.44566 0.42679 0.57412 0.0
H2159 H 0.42692 0.4549 0.56524 0.0
H2160 H 0.48542 0.49885 0.57657 0.0
H2161 H 0.49557 0.51314 0.5582 0.0
H2162 H 0.50455 0.48987 0.5626 0.0
H2163 H 0.49751 0.4797 0.52746 0.0
H2164 H 0.49085 0.50386 0.5238 0.0
H2165 H 0.47483 0.48516 0.51768 0.0
H2166 H 0.41436 0.48795 0.55873 0.0
H2167 H 0.40854 0.52155 0.55235 0.0
H2168 H 0.46788 0.5295 0.54017 0.0
C2169 C 0.48145 0.45513 0.55876 0.0
C2170 C 0.47253 0.43881 0.56604 0.0
C2171 C 0.45269 0.43875 0.56779 0.0
C2172 C 0.44198 0.45481 0.56302 0.0
C2173 C 0.4513 0.47092 0.55653 0.0
C2174 C 0.47058 0.47105 0.55402 0.0
C2175 C 0.47733 0.49048 0.54799 0.0
C2176 C 0.49156 0.49855 0.56218 0.0
C2177 C 0.48562 0.48977 0.52804 0.0
C2178 C 0.45901 0.50152 0.54818 0.0
C2179 C 0.44413 0.48992 0.55299 0.0
C2180 C 0.4259 0.49701 0.55462 0.0
C2181 C 0.42273 0.51623 0.55091 0.0
C2182 C 0.43763 0.52846 0.54554 0.0
C2183 C 0.45608 0.52081 0.54431 0.0
H2184 H 0.7962 0.70991 0.72103 0.0
H2185 H 0.84544 0.71679 0.75653 0.0
H2186 H 0.84551 0.75099 0.74938 0.0
H2187 H 0.80935 0.74281 0.68523 0.0
H2188 H 0.78568 0.75121 0.68159 0.0
H2189 H 0.78959 0.7275 0.68969 0.0
H2190 H 0.76827 0.73369 0.71861 0.0
H2191 H 0.76427 0.75742 0.71059 0.0
H2192 H 0.77342 0.75324 0.73391 0.0
H2193 H 0.83989 0.78499 0.73782 0.0
H2194 H 0.82943 0.81482 0.72304 0.0
H2195 H 0.78366 0.78499 0.69577 0.0
C2196 C 0.80707 0.71853 0.72733 0.0
C2197 C 0.82088 0.71055 0.73933 0.0
C2198 C 0.83473 0.7225 0.74728 0.0
C2199 C 0.83486 0.74196 0.7433 0.0
C2200 C 0.82101 0.74933 0.73138 0.0
C2201 C 0.80735 0.7379 0.72356 0.0
C2202 C 0.79397 0.7491 0.71124 0.0
C2203 C 0.7947 0.74225 0.69072 0.0
C2204 C 0.77379 0.74832 0.71906 0.0
C2205 C 0.80227 0.76865 0.71314 0.0
C2206 C 0.81781 0.76858 0.72485 0.0
C2207 C 0.82771 0.78513 0.72866 0.0
C2208 C 0.8216 0.80206 0.72025 0.0
C2209 C 0.80576 0.80242 0.70807 0.0
C2210 C 0.79601 0.78536 0.70466 0.0
H2211 H 0.8125 0.36002 0.83858 0.0
H2212 H 0.77472 0.36092 0.79071 0.0
H2213 H 0.75764 0.33341 0.80393 0.0
H2214 H 0.81814 0.31229 0.84027 0.0
H2215 H 0.81941 0.31036 0.86555 0.0
H2216 H 0.82625 0.3319 0.85415 0.0
H2217 H 0.80231 0.3506 0.87427 0.0
H2218 H 0.7956 0.32912 0.88603 0.0
H2219 H 0.77797 0.34343 0.87465 0.0
H2220 H 0.74759 0.30255 0.82097 0.0
H2221 H 0.74455 0.27376 0.84028 0.0
H2222 H 0.79003 0.29342 0.87612 0.0
C2223 C 0.80013 0.35494 0.83125 0.0
C2224 C 0.79468 0.36296 0.81382 0.0
C2225 C 0.77879 0.35547 0.80437 0.0
C2226 C 0.76915 0.33966 0.81171 0.0
C2227 C 0.77548 0.33158 0.82858 0.0
C2228 C 0.79047 0.33926 0.83834 0.0
C2229 C 0.79571 0.3273 0.85525 0.0
C2230 C 0.81607 0.32004 0.8537 0.0
C2231 C 0.79271 0.33827 0.87364 0.0
C2232 C 0.78165 0.31139 0.85339 0.0
C2233 C 0.76998 0.31406 0.83804 0.0
C2234 C 0.75654 0.30056 0.83315 0.0
C2235 C 0.755 0.28408 0.84422 0.0
C2236 C 0.76693 0.28099 0.86003 0.0
C2237 C 0.78033 0.2951 0.86452 0.0
H2238 H 0.57351 0.93447 0.47822 0.0
H2239 H 0.60397 0.9872 0.47415 0.0
H2240 H 0.57648 1.00142 0.45763 0.0
H2241 H 0.54771 0.93735 0.43355 0.0
H2242 H 0.52687 0.927 0.44368 0.0
H2243 H 0.54976 0.92079 0.45271 0.0
H2244 H 0.53911 0.93058 0.48615 0.0
H2245 H 0.51631 0.93712 0.47722 0.0
H2246 H 0.53024 0.95403 0.48997 0.0
H2247 H 0.54394 1.01022 0.44373 0.0
H2248 H 0.51085 1.0127 0.43331 0.0
H2249 H 0.50166 0.95424 0.44822 0.0
C2250 C 0.57468 0.94893 0.47351 0.0
C2251 C 0.59109 0.95966 0.47735 0.0
C2252 C 0.59179 0.97857 0.47108 0.0
C2253 C 0.57613 0.98678 0.46184 0.0
C2254 C 0.55991 0.97588 0.45899 0.0
C2255 C 0.55924 0.95729 0.46457 0.0
C2256 C 0.53994 0.94875 0.46114 0.0
C2257 C 0.54115 0.93251 0.44692 0.0
C2258 C 0.53088 0.94224 0.47973 0.0
C2259 C 0.52958 0.96547 0.4529 0.0
C2260 C 0.54135 0.98097 0.4516 0.0
C2261 C 0.53477 0.99809 0.44457 0.0
C2262 C 0.5159 0.99933 0.4386 0.0
C2263 C 0.50357 0.98362 0.43978 0.0
C2264 C 0.51062 0.96652 0.44718 0.0
H2265 H 0.2431 0.27634 0.81235 0.0
H2266 H 0.23559 0.26536 0.87198 0.0
H2267 H 0.22979 0.23181 0.86513 0.0
H2268 H 0.20672 0.24632 0.79639 0.0
H2269 H 0.21905 0.23831 0.77581 0.0
H2270 H 0.22412 0.26117 0.78538 0.0
H2271 H 0.25866 0.25243 0.78698 0.0
H2272 H 0.25538 0.22829 0.77997 0.0
H2273 H 0.26648 0.23346 0.80201 0.0
H2274 H 0.22253 0.19924 0.85127 0.0
H2275 H 0.21228 0.17227 0.83163 0.0
H2276 H 0.225 0.20427 0.78136 0.0
C2277 C 0.24014 0.26697 0.824 0.0
C2278 C 0.2399 0.27372 0.84278 0.0
C2279 C 0.23615 0.26068 0.85751 0.0
C2280 C 0.23281 0.2415 0.85375 0.0
C2281 C 0.23331 0.23532 0.83513 0.0
C2282 C 0.23678 0.24774 0.82051 0.0
C2283 C 0.2359 0.23771 0.80171 0.0
C2284 C 0.22055 0.24639 0.78907 0.0
C2285 C 0.25525 0.23804 0.79209 0.0
C2286 C 0.23075 0.21787 0.80789 0.0
C2287 C 0.2296 0.21664 0.82726 0.0
C2288 C 0.22379 0.19999 0.8361 0.0
C2289 C 0.21826 0.18457 0.82486 0.0
C2290 C 0.21864 0.18581 0.80497 0.0
C2291 C 0.22544 0.20257 0.79652 0.0
H2292 H 0.0226 0.03227 0.96034 0.0
H2293 H 0.01483 0.04505 0.90103 0.0
H2294 H 0.98064 0.04743 0.90597 0.0
H2295 H 0.97908 1.00527 0.9668 0.0
H2296 H 0.9741 0.01485 0.98974 0.0
H2297 H 0.99812 1.01253 0.98191 0.0
H2298 H 1.00427 0.0479 0.9874 0.0
H2299 H 0.98062 0.05021 0.9961 0.0
H2300 H 0.9886 0.06502 0.97705 0.0
H2301 H 0.94726 0.05083 0.91756 0.0
H2302 H 0.9186 0.05872 0.93574 0.0
H2303 H 0.94739 0.04374 0.98732 0.0
C2304 C 1.01377 0.03557 0.94837 0.0
C2305 C 0.02165 0.03822 0.93017 0.0
C2306 C 1.00932 0.04254 0.91501 0.0
C2307 C 0.98978 0.04392 0.91767 0.0
C2308 C 0.98247 0.04095 0.93563 0.0
C2309 C 0.9941 0.03705 0.95078 0.0
C2310 C 0.98272 0.03585 0.96888 0.0
C2311 C 0.98357 0.01593 0.97732 0.0
C2312 C 0.98945 0.05063 0.98319 0.0
C2313 C 0.96306 0.04026 0.96159 0.0
C2314 C 0.96314 0.04279 0.9423 0.0
C2315 C 0.94694 0.04848 0.93262 0.0
C2316 C 0.93057 0.05264 0.94299 0.0
C2317 C 0.93047 0.05106 0.96283 0.0
C2318 C 0.94677 0.04416 0.97208 0.0
H2319 H 0.71912 0.23411 0.20732 0.0
H2320 H 0.77053 0.25524 0.18221 0.0
H2321 H 0.76385 0.2869 0.19505 0.0
H2322 H 0.69106 0.27401 0.19803 0.0
H2323 H 0.67821 0.2728 0.21987 0.0
H2324 H 0.68784 0.25171 0.20975 0.0
H2325 H 0.706 0.2449 0.24073 0.0
H2326 H 0.69635 0.26596 0.25097 0.0
H2327 H 0.72148 0.2626 0.25023 0.0
H2328 H 0.75047 0.31732 0.21067 0.0
H2329 H 0.73152 0.34229 0.22636 0.0
H2330 H 0.68905 0.30056 0.23997 0.0
C2331 C 0.72911 0.24532 0.20473 0.0
C2332 C 0.7453 0.24211 0.19364 0.0
C2333 C 0.75787 0.25733 0.19041 0.0
C2334 C 0.75425 0.27539 0.19777 0.0
C2335 C 0.73796 0.27816 0.20838 0.0
C2336 C 0.72563 0.26344 0.21184 0.0
C2337 C 0.70878 0.27006 0.22304 0.0
C2338 C 0.69039 0.26696 0.21201 0.0
C2339 C 0.70812 0.2603 0.24239 0.0
C2340 C 0.71326 0.29082 0.22501 0.0
C2341 C 0.73025 0.29534 0.21676 0.0
C2342 C 0.73712 0.31385 0.21712 0.0
C2343 C 0.72627 0.32799 0.22603 0.0
C2344 C 0.70863 0.32359 0.2342 0.0
C2345 C 0.7023 0.30466 0.23365 0.0
H2346 H 0.54657 0.05173 1.01115 0.0
H2347 H 0.56543 0.09686 0.04765 0.0
H2348 H 0.53602 0.09407 0.06604 0.0
H2349 H 0.49665 0.06345 1.01092 0.0
H2350 H 0.48914 0.03921 1.01159 0.0
H2351 H 0.51122 0.04537 1.00073 0.0
H2352 H 0.52846 0.02177 0.02256 0.0
H2353 H 0.50649 0.01563 0.03361 0.0
H2354 H 0.52589 0.02382 0.04772 0.0
H2355 H 0.50489 0.08555 0.08134 0.0
H2356 H 0.47469 0.07206 0.0922 0.0
H2357 H 0.4759 0.03224 0.04608 0.0
C2358 C 0.54443 0.06124 0.02284 0.0
C2359 C 0.55838 0.0747 0.02777 0.0
C2360 C 0.55503 0.08654 0.04345 0.0
C2361 C 0.53832 0.08504 0.05401 0.0
C2362 C 0.52499 0.07155 0.04887 0.0
C2363 C 0.52786 0.05983 0.03364 0.0
C2364 C 0.51162 0.04599 0.03156 0.0
C2365 C 0.50156 0.04867 1.01257 0.0
C2366 C 0.51853 0.0256 0.03401 0.0
C2367 C 0.49908 0.05187 0.04787 0.0
C2368 C 0.5071 0.0666 0.0577 0.0
C2369 C 0.49847 0.07408 0.07366 0.0
C2370 C 0.48131 0.0663 0.07977 0.0
C2371 C 0.47274 0.05119 0.06998 0.0
C2372 C 0.48181 0.04401 0.0537 0.0
H2373 H 0.54391 0.44781 0.08734 0.0
H2374 H 0.55669 0.49913 0.05692 0.0
H2375 H 0.52789 0.49499 0.03766 0.0
H2376 H 0.52258 0.42151 0.04808 0.0
H2377 H 0.50456 0.41123 0.0627 0.0
H2378 H 0.5271 0.41721 0.0727 0.0
H2379 H 0.51055 0.43777 0.09778 0.0
H2380 H 0.488 0.43187 0.08786 0.0
H2381 H 0.49475 0.45619 0.09031 0.0
H2382 H 0.49679 0.4857 0.02234 0.0
H2383 H 0.46532 0.47347 1.01391 0.0
H2384 H 0.47171 0.42901 0.05543 0.0
C2385 C 0.54086 0.4579 0.0763 0.0
C2386 C 0.55279 0.47363 0.07337 0.0
C2387 C 0.5479 0.48689 0.05925 0.0
C2388 C 0.53156 0.48463 0.04823 0.0
C2389 C 0.51999 0.46909 0.0516 0.0
C2390 C 0.52436 0.45601 0.06539 0.0
C2391 C 0.5088 0.44141 0.06717 0.0
C2392 C 0.51621 0.42167 0.06238 0.0
C2393 C 0.50001 0.44184 0.08695 0.0
C2394 C 0.49496 0.44833 0.05232 0.0
C2395 C 0.50179 0.46418 0.04332 0.0
C2396 C 0.49138 0.47325 0.02928 0.0
C2397 C 0.47348 0.46613 0.02451 0.0
C2398 C 0.4659 0.45018 0.03388 0.0
C2399 C 0.47702 0.44115 0.04786 0.0
H2400 H 0.10228 0.29501 0.37956 0.0
H2401 H 0.12519 0.32205 0.32974 0.0
H2402 H 0.10921 0.3517 0.33857 0.0
H2403 H 0.05736 0.3164 0.37729 0.0
H2404 H 0.05478 0.31866 0.40243 0.0
H2405 H 0.06905 0.30007 0.39286 0.0
H2406 H 0.09749 0.31142 0.41269 0.0
H2407 H 0.08327 0.33001 0.42239 0.0
H2408 H 0.10515 0.33554 0.41079 0.0
H2409 H 0.08931 0.37824 0.35243 0.0
H2410 H 0.06785 0.3991 0.37006 0.0
H2411 H 0.05748 0.35408 0.41018 0.0
C2412 C 0.10421 0.30721 0.3706 0.0
C2413 C 0.11515 0.30616 0.35397 0.0
C2414 C 0.117 0.32247 0.34258 0.0
C2415 C 0.10795 0.3394 0.34749 0.0
C2416 C 0.09704 0.33983 0.36383 0.0
C2417 C 0.0952 0.32415 0.37523 0.0
C2418 C 0.08213 0.328 0.39164 0.0
C2419 C 0.06481 0.31501 0.39101 0.0
C2420 C 0.09264 0.32613 0.41049 0.0
C2421 C 0.07677 0.34828 0.38768 0.0
C2422 C 0.08554 0.3549 0.37162 0.0
C2423 C 0.08243 0.37316 0.36505 0.0
C2424 C 0.07008 0.38491 0.37512 0.0
C2425 C 0.06087 0.37841 0.39163 0.0
C2426 C 0.06441 0.35977 0.39787 0.0
H2427 H 0.63008 0.71097 0.90875 0.0
H2428 H 0.5932 0.75536 0.88906 0.0
H2429 H 0.56685 0.74154 0.9073 0.0
H2430 H 0.59638 0.67456 0.90455 0.0
H2431 H 0.60431 0.66167 0.92495 0.0
H2432 H 0.62055 0.67628 0.91211 0.0
H2433 H 0.62846 0.69436 0.94275 0.0
H2434 H 0.61212 0.67985 0.95566 0.0
H2435 H 0.60974 0.7051 0.95606 0.0
H2436 H 0.54392 0.72177 0.92709 0.0
H2437 H 0.52623 0.69642 0.9434 0.0
H2438 H 0.5778 0.66423 0.94876 0.0
C2439 C 0.61655 0.71797 0.90862 0.0
C2440 C 0.61377 0.73441 0.89767 0.0
C2441 C 0.59567 0.74282 0.89739 0.0
C2442 C 0.58065 0.7351 0.9078 0.0
C2443 C 0.58379 0.71879 0.91834 0.0
C2444 C 0.6013 0.71023 0.91866 0.0
C2445 C 0.60062 0.69192 0.9297 0.0
C2446 C 0.60576 0.67512 0.91707 0.0
C2447 C 0.6135 0.69287 0.94708 0.0
C2448 C 0.58001 0.69138 0.93538 0.0
C2449 C 0.57056 0.70715 0.92902 0.0
C2450 C 0.55126 0.70943 0.93222 0.0
C2451 C 0.54131 0.69501 0.94165 0.0
C2452 C 0.55058 0.67836 0.94753 0.0
C2453 C 0.57027 0.67683 0.94461 0.0
H2454 H 0.90604 0.21534 0.34175 0.0
H2455 H 0.8722 0.22548 0.39158 0.0
H2456 H 0.88874 0.19982 0.4081 0.0
H2457 H 0.90868 0.16399 0.34666 0.0
H2458 H 0.93277 0.1627 0.33881 0.0
H2459 H 0.91766 0.18127 0.33035 0.0
H2460 H 0.94162 0.20612 0.34197 0.0
H2461 H 0.95679 0.18764 0.35048 0.0
H2462 H 0.94901 0.20587 0.36627 0.0
H2463 H 0.90961 0.17397 0.41989 0.0
H2464 H 0.93355 0.14965 0.42618 0.0
H2465 H 0.95461 0.15581 0.36917 0.0
C2466 C 0.90194 0.212 0.35605 0.0
C2467 C 0.88766 0.22248 0.36529 0.0
C2468 C 0.883 0.21775 0.38412 0.0
C2469 C 0.89232 0.20313 0.39366 0.0
C2470 C 0.9064 0.19325 0.38427 0.0
C2471 C 0.91123 0.19742 0.36588 0.0
C2472 C 0.92739 0.18495 0.35938 0.0
C2473 C 0.92125 0.17249 0.34282 0.0
C2474 C 0.94473 0.19686 0.35422 0.0
C2475 C 0.93094 0.17325 0.37702 0.0
C2476 C 0.9186 0.17828 0.39116 0.0
C2477 C 0.91932 0.1699 0.4089 0.0
C2478 C 0.93308 0.15613 0.41238 0.0
C2479 C 0.94608 0.15074 0.39825 0.0
C2480 C 0.94479 0.15937 0.38024 0.0
H2481 H 0.47893 0.88493 0.90305 0.0
H2482 H 0.49243 0.84424 0.94664 0.0
H2483 H 0.47563 0.81955 0.92834 0.0
H2484 H 0.43296 0.86787 0.89088 0.0
H2485 H 0.43615 0.87251 0.86612 0.0
H2486 H 0.44824 0.88667 0.88329 0.0
H2487 H 0.48014 0.87863 0.86757 0.0
H2488 H 0.4682 0.86436 0.8504 0.0
H2489 H 0.48676 0.85433 0.86456 0.0
H2490 H 0.4567 0.79932 0.90422 0.0
H2491 H 0.43983 0.78571 0.87683 0.0
H2492 H 0.44077 0.84013 0.84921 0.0
C2493 C 0.47822 0.87091 0.90902 0.0
C2494 C 0.48682 0.86663 0.92651 0.0
C2495 C 0.48582 0.84793 0.9334 0.0
C2496 C 0.4763 0.83384 0.92306 0.0
C2497 C 0.46808 0.83863 0.90577 0.0
C2498 C 0.46914 0.85677 0.89883 0.0
C2499 C 0.46009 0.85844 0.87958 0.0
C2500 C 0.44337 0.87218 0.88 0.0
C2501 C 0.47467 0.86428 0.86465 0.0
C2502 C 0.45357 0.83841 0.87664 0.0
C2503 C 0.45812 0.82713 0.8919 0.0
C2504 C 0.45317 0.8081 0.89226 0.0
C2505 C 0.44351 0.80049 0.87666 0.0
C2506 C 0.43905 0.8118 0.86078 0.0
C2507 C 0.44418 0.83102 0.86095 0.0
H2508 H 0.12154 0.69937 0.19278 0.0
H2509 H 0.09083 0.75068 0.18079 0.0
H2510 H 0.06523 0.73176 0.16628 0.0
H2511 H 0.11234 0.67694 0.15097 0.0
H2512 H 0.11003 0.65359 0.16068 0.0
H2513 H 0.12434 0.67078 0.1725 0.0
H2514 H 0.10505 0.66631 0.2031 0.0
H2515 H 0.09084 0.64882 0.19148 0.0
H2516 H 0.07981 0.66883 0.20243 0.0
H2517 H 0.04519 0.70692 0.14886 0.0
H2518 H 0.03139 0.67897 0.13333 0.0
H2519 H 0.07528 0.64401 0.15732 0.0
C2520 C 0.10911 0.70662 0.18771 0.0
C2521 C 0.10808 0.72655 0.18822 0.0
C2522 C 0.09176 0.73547 0.18102 0.0
C2523 C 0.07724 0.72479 0.17256 0.0
C2524 C 0.07913 0.70518 0.17161 0.0
C2525 C 0.09455 0.6962 0.17938 0.0
C2526 C 0.09393 0.67515 0.17571 0.0
C2527 C 0.11118 0.66875 0.16429 0.0
C2528 C 0.09231 0.66413 0.19429 0.0
C2529 C 0.07601 0.6736 0.1642 0.0
C2530 C 0.06763 0.69105 0.16196 0.0
C2531 C 0.05155 0.69321 0.15083 0.0
C2532 C 0.04386 0.67724 0.14191 0.0
C2533 C 0.05213 0.65918 0.14413 0.0
C2534 C 0.06838 0.65747 0.15559 0.0
H2535 H 0.91628 0.70283 0.16251 0.0
H2536 H 0.91057 0.74193 0.11588 0.0
H2537 H 0.93265 0.72265 0.09712 0.0
H2538 H 0.96558 0.69373 0.15677 0.0
H2539 H 0.96364 0.66923 0.16313 0.0
H2540 H 0.94722 0.68606 0.17254 0.0
H2541 H 0.9194 0.66642 0.15946 0.0
H2542 H 0.93575 0.64953 0.15003 0.0
H2543 H 0.91876 0.66064 0.13476 0.0
H2544 H 0.95692 0.69871 0.08364 0.0
H2545 H 0.97908 0.67242 0.07701 0.0
H2546 H 0.96794 0.6496 0.1326 0.0
C2547 C 0.91969 0.70745 0.1484 0.0
C2548 C 0.91159 0.72402 0.14079 0.0
C2549 C 0.91635 0.72925 0.12207 0.0
C2550 C 0.92901 0.71841 0.1113 0.0
C2551 C 0.93683 0.70224 0.11933 0.0
C2552 C 0.93221 0.69678 0.13746 0.0
C2553 C 0.94234 0.67882 0.14294 0.0
C2554 C 0.95547 0.68217 0.15984 0.0
C2555 C 0.92822 0.66292 0.14703 0.0
C2556 C 0.95344 0.67499 0.12514 0.0
C2557 C 0.95025 0.68862 0.11162 0.0
C2558 C 0.95939 0.68795 0.09416 0.0
C2559 C 0.972 0.67297 0.09049 0.0
C2560 C 0.97526 0.65879 0.10416 0.0
C2561 C 0.96576 0.66002 0.12167 0.0
H2562 H 0.91057 0.82802 0.18848 0.0
H2563 H 0.94443 0.77728 0.18789 0.0
H2564 H 0.97011 0.79487 0.17201 0.0
H2565 H 0.923 0.84484 0.144 0.0
H2566 H 0.92361 0.86935 0.15042 0.0
H2567 H 0.90874 0.85329 0.16319 0.0
H2568 H 0.92475 0.86285 0.19449 0.0
H2569 H 0.93957 0.87913 0.18184 0.0
H2570 H 0.95 0.86129 0.19663 0.0
H2571 H 0.99052 0.81749 0.15235 0.0
H2572 H 1.00499 0.8435 0.13406 0.0
H2573 H 0.95862 0.88 0.14909 0.0
C2574 C 0.92357 0.82067 0.18543 0.0
C2575 C 0.92547 0.8012 0.18962 0.0
C2576 C 0.94268 0.79218 0.18516 0.0
C2577 C 0.9573 0.80207 0.17598 0.0
C2578 C 0.9547 0.82112 0.17158 0.0
C2579 C 0.93836 0.8304 0.17653 0.0
C2580 C 0.93878 0.85077 0.16987 0.0
C2581 C 0.92257 0.85479 0.15605 0.0
C2582 C 0.93825 0.86431 0.18671 0.0
C2583 C 0.95773 0.8515 0.15999 0.0
C2584 C 0.96668 0.83422 0.16103 0.0
C2585 C 0.98375 0.83112 0.1518 0.0
C2586 C 0.99185 0.84596 0.14136 0.0
C2587 C 0.98311 0.86387 0.14033 0.0
C2588 C 0.96587 0.86662 0.14996 0.0
H2589 H 0.06523 0.86772 0.1164 0.0
H2590 H 0.04336 0.83578 0.06924 0.0
H2591 H 0.06493 0.8094 0.07772 0.0
H2592 H 0.11312 0.85354 0.11284 0.0
H2593 H 0.11667 0.85277 0.13796 0.0
H2594 H 0.09953 0.86861 0.12803 0.0
H2595 H 0.07367 0.85406 0.14923 0.0
H2596 H 0.09073 0.8382 0.15928 0.0
H2597 H 0.06962 0.82902 0.14861 0.0
H2598 H 0.0904 0.78657 0.09186 0.0
H2599 H 0.11479 0.76978 0.11027 0.0
H2600 H 0.119 0.81744 0.14803 0.0
C2601 C 0.06487 0.85524 0.10769 0.0
C2602 C 0.05256 0.854 0.09197 0.0
C2603 C 0.0526 0.83718 0.08129 0.0
C2604 C 0.06487 0.82214 0.08603 0.0
C2605 C 0.07693 0.82404 0.10158 0.0
C2606 C 0.07681 0.84022 0.11228 0.0
C2607 C 0.09076 0.83903 0.12844 0.0
C2608 C 0.10592 0.8544 0.1267 0.0
C2609 C 0.08058 0.84014 0.14752 0.0
C2610 C 0.09902 0.81964 0.12526 0.0
C2611 C 0.09097 0.81115 0.10969 0.0
C2612 C 0.09667 0.79321 0.10405 0.0
C2613 C 0.1107 0.78378 0.11458 0.0
C2614 C 0.119 0.79215 0.13075 0.0
C2615 C 0.11295 0.81042 0.13596 0.0
H2616 H 0.36823 0.09501 0.2968 0.0
H2617 H 0.34814 0.14046 0.33202 0.0
H2618 H 0.35849 0.12281 0.36044 0.0
H2619 H 0.35528 0.05703 0.32598 0.0
H2620 H 0.37602 0.04317 0.32141 0.0
H2621 H 0.36767 0.05962 0.30398 0.0
H2622 H 0.40016 0.07615 0.30355 0.0
H2623 H 0.40871 0.05957 0.32078 0.0
H2624 H 0.41021 0.08447 0.32531 0.0
H2625 H 0.36845 0.09813 0.38529 0.0
H2626 H 0.3814 0.07141 0.40379 0.0
H2627 H 0.39717 0.04341 0.35209 0.0
C2628 C 0.36626 0.10139 0.31049 0.0
C2629 C 0.35737 0.11915 0.31219 0.0
C2630 C 0.35509 0.127 0.33035 0.0
C2631 C 0.36079 0.11697 0.34658 0.0
C2632 C 0.36912 0.09926 0.34441 0.0
C2633 C 0.37226 0.09178 0.32674 0.0
C2634 C 0.3818 0.07269 0.32809 0.0
C2635 C 0.36945 0.05722 0.31934 0.0
C2636 C 0.40138 0.07326 0.31889 0.0
C2637 C 0.38326 0.07034 0.34928 0.0
C2638 C 0.37566 0.08569 0.3585 0.0
C2639 C 0.37464 0.08621 0.37815 0.0
C2640 C 0.38188 0.07091 0.38856 0.0
C2641 C 0.39033 0.05536 0.3794 0.0
C2642 C 0.39093 0.05517 0.35948 0.0
H2643 H 0.34378 0.43806 0.97649 0.0
H2644 H 0.39836 0.41419 0.96318 0.0
H2645 H 0.38386 0.39638 0.9369 0.0
H2646 H 0.31644 0.39688 0.96721 0.0
H2647 H 0.2969 0.40964 0.95722 0.0
H2648 H 0.3117 0.42067 0.97457 0.0
H2649 H 0.31821 0.44822 0.95154 0.0
H2650 H 0.30344 0.43725 0.9341 0.0
H2651 H 0.32742 0.44328 0.92842 0.0
H2652 H 0.36263 0.38017 0.91241 0.0
H2653 H 0.33728 0.36778 0.89199 0.0
H2654 H 0.29672 0.40271 0.92115 0.0
C2655 C 0.35279 0.42916 0.96805 0.0
C2656 C 0.37233 0.4276 0.97203 0.0
C2657 C 0.38343 0.41573 0.9605 0.0
C2658 C 0.37527 0.40552 0.94551 0.0
C2659 C 0.35595 0.40736 0.94208 0.0
C2660 C 0.34489 0.41897 0.95302 0.0
C2661 C 0.32447 0.41844 0.94658 0.0
C2662 C 0.31163 0.41096 0.96233 0.0
C2663 C 0.31801 0.43796 0.93975 0.0
C2664 C 0.32564 0.40462 0.93034 0.0
C2665 C 0.34392 0.39834 0.92797 0.0
C2666 C 0.34833 0.38511 0.91416 0.0
C2667 C 0.33379 0.37808 0.90263 0.0
C2668 C 0.31491 0.38426 0.90477 0.0
C2669 C 0.31096 0.39786 0.91882 0.0
H2670 H 0.64351 0.40325 0.3114 0.0
H2671 H 0.70414 0.4098 0.31331 0.0
H2672 H 0.70046 0.43338 0.33899 0.0
H2673 H 0.63124 0.45199 0.32068 0.0
H2674 H 0.61098 0.44549 0.33451 0.0
H2675 H 0.61883 0.43044 0.31571 0.0
H2676 H 0.62117 0.40253 0.33916 0.0
H2677 H 0.61352 0.4175 0.35805 0.0
H2678 H 0.63545 0.40489 0.36002 0.0
H2679 H 0.68915 0.45514 0.36669 0.0
H2680 H 0.67204 0.47339 0.39097 0.0
H2681 H 0.61917 0.45117 0.37009 0.0
C2682 C 0.65611 0.40973 0.31701 0.0
C2683 C 0.67416 0.4046 0.31028 0.0
C2684 C 0.69017 0.41358 0.31807 0.0
C2685 C 0.68817 0.42691 0.33275 0.0
C2686 C 0.67007 0.4312 0.33937 0.0
C2687 C 0.65435 0.42293 0.33147 0.0
C2688 C 0.63642 0.4293 0.34105 0.0
C2689 C 0.62362 0.43994 0.32716 0.0
C2690 C 0.62604 0.41256 0.35011 0.0
C2691 C 0.64433 0.44238 0.35585 0.0
C2692 C 0.66374 0.4434 0.35477 0.0
C2693 C 0.67395 0.45443 0.36747 0.0
C2694 C 0.66409 0.46468 0.38136 0.0
C2695 C 0.64414 0.46394 0.38253 0.0
C2696 C 0.63433 0.45247 0.36953 0.0
H2697 H 0.64206 0.1493 0.99063 0.0
H2698 H 0.64093 0.09622 0.9606 0.0
H2699 H 0.66203 0.10968 0.93632 0.0
H2700 H 0.64294 0.17995 0.94962 0.0
H2701 H 0.65874 0.1966 0.96039 0.0
H2702 H 0.64296 0.18295 0.97482 0.0
H2703 H 0.67127 0.17076 0.99437 0.0
H2704 H 0.68715 0.1843 0.97996 0.0
H2705 H 0.69055 0.15929 0.98256 0.0
H2706 H 0.68444 0.12912 0.91554 0.0
H2707 H 0.70501 0.15265 0.90015 0.0
H2708 H 0.69187 0.19255 0.94441 0.0
C2709 C 0.646 0.14053 0.97883 0.0
C2710 C 0.63961 0.12167 0.97754 0.0
C2711 C 0.64546 0.11071 0.96193 0.0
C2712 C 0.65751 0.11824 0.94806 0.0
C2713 C 0.66373 0.13679 0.94992 0.0
C2714 C 0.6581 0.14779 0.96492 0.0
C2715 C 0.66711 0.16714 0.964 0.0
C2716 C 0.65204 0.18257 0.96209 0.0
C2717 C 0.67977 0.17056 0.98124 0.0
C2718 C 0.67867 0.1654 0.94612 0.0
C2719 C 0.67659 0.1478 0.93818 0.0
C2720 C 0.68611 0.14295 0.92168 0.0
C2721 C 0.6979 0.15642 0.91306 0.0
C2722 C 0.70017 0.17465 0.92086 0.0
C2723 C 0.69037 0.17897 0.93773 0.0
H2724 H 0.3371 0.90406 0.19951 0.0
H2725 H 0.34266 0.93773 0.24996 0.0
H2726 H 0.3562 0.96375 0.23085 0.0
H2727 H 0.37915 0.9167 0.17852 0.0
H2728 H 0.3704 0.91736 0.1547 0.0
H2729 H 0.35924 0.90244 0.17188 0.0
H2730 H 0.32714 0.91844 0.16537 0.0
H2731 H 0.33813 0.93324 0.14791 0.0
H2732 H 0.32518 0.94368 0.16703 0.0
H2733 H 0.37346 0.98431 0.20629 0.0
H2734 H 0.38892 0.99883 0.17852 0.0
H2735 H 0.37049 0.95223 0.14394 0.0
C2736 C 0.34061 0.91715 0.20647 0.0
C2737 C 0.33855 0.91894 0.22624 0.0
C2738 C 0.34366 0.93616 0.23483 0.0
C2739 C 0.35156 0.95094 0.22406 0.0
C2740 C 0.35398 0.94843 0.20465 0.0
C2741 C 0.34821 0.93207 0.1959 0.0
C2742 C 0.35283 0.93247 0.17501 0.0
C2743 C 0.3662 0.91628 0.16973 0.0
C2744 C 0.33474 0.93193 0.16313 0.0
C2745 C 0.36258 0.95141 0.17333 0.0
C2746 C 0.36321 0.9604 0.19058 0.0
C2747 C 0.37269 0.97749 0.1927 0.0
C2748 C 0.38156 0.98559 0.17687 0.0
C2749 C 0.38079 0.9768 0.15898 0.0
C2750 C 0.37103 0.9595 0.1573 0.0
H2751 H 0.21432 0.37549 0.11458 0.0
H2752 H 0.24388 0.42493 0.1345 0.0
H2753 H 0.22825 0.44418 0.10991 0.0
H2754 H 0.21543 0.38685 0.06479 0.0
H2755 H 0.19211 0.37782 0.06051 0.0
H2756 H 0.20628 0.36801 0.07916 0.0
H2757 H 0.17976 0.375 0.10318 0.0
H2758 H 0.1655 0.38475 0.0846 0.0
H2759 H 0.17072 0.39862 0.10517 0.0
H2760 H 0.20879 0.45815 0.08218 0.0
H2761 H 0.18598 0.46532 0.05649 0.0
H2762 H 0.16898 0.40672 0.05605 0.0
C2763 C 0.21768 0.39032 0.11366 0.0
C2764 C 0.23045 0.39863 0.12649 0.0
C2765 C 0.23409 0.41822 0.12497 0.0
C2766 C 0.22535 0.42926 0.11093 0.0
C2767 C 0.21281 0.42061 0.0985 0.0
C2768 C 0.20891 0.40157 0.0999 0.0
C2769 C 0.19432 0.39571 0.08548 0.0
C2770 C 0.20253 0.38124 0.07167 0.0
C2771 C 0.17652 0.38808 0.09519 0.0
C2772 C 0.19054 0.41437 0.07578 0.0
C2773 C 0.20144 0.4286 0.08325 0.0
C2774 C 0.20018 0.44705 0.0763 0.0
C2775 C 0.18726 0.45102 0.06164 0.0
C2776 C 0.17558 0.43666 0.05427 0.0
C2777 C 0.17755 0.41812 0.06141 0.0
H2778 H 0.68817 0.60723 0.22181 0.0
H2779 H 0.63788 0.64079 0.23059 0.0
H2780 H 0.62091 0.62157 0.20732 0.0
H2781 H 0.68138 0.59973 0.17103 0.0
H2782 H 0.68981 0.57581 0.17165 0.0
H2783 H 0.69855 0.59272 0.1884 0.0
H2784 H 0.68851 0.57085 0.21579 0.0
H2785 H 0.6797 0.55391 0.19915 0.0
H2786 H 0.66443 0.56296 0.21725 0.0
H2787 H 0.60869 0.59817 0.18406 0.0
H2788 H 0.60214 0.57233 0.16201 0.0
H2789 H 0.65981 0.55293 0.16768 0.0
C2790 C 0.67367 0.6107 0.21864 0.0
C2791 C 0.66446 0.62572 0.2281 0.0
C2792 C 0.64536 0.62949 0.22364 0.0
C2793 C 0.63554 0.61861 0.21038 0.0
C2794 C 0.64489 0.60384 0.20153 0.0
C2795 C 0.66354 0.59984 0.20539 0.0
C2796 C 0.66996 0.58273 0.19415 0.0
C2797 C 0.68587 0.58807 0.1805 0.0
C2798 C 0.67601 0.56666 0.20738 0.0
C2799 C 0.65198 0.57772 0.18352 0.0
C2800 C 0.63775 0.59016 0.18803 0.0
C2801 C 0.61975 0.58836 0.18042 0.0
C2802 C 0.61612 0.57348 0.16795 0.0
C2803 C 0.63034 0.56036 0.16304 0.0
C2804 C 0.64861 0.56271 0.17092 0.0
H2805 H 0.8243 0.15162 0.10713 0.0
H2806 H 0.78462 0.10677 0.11887 0.0
H2807 H 0.79926 0.08739 0.09395 0.0
H2808 H 0.82588 0.14563 0.0567 0.0
H2809 H 0.85068 0.15074 0.05516 0.0
H2810 H 0.83677 0.16098 0.07368 0.0
H2811 H 0.85944 0.14695 0.09866 0.0
H2812 H 0.87345 0.13675 0.08021 0.0
H2813 H 0.86412 0.12201 0.09867 0.0
H2814 H 0.81885 0.0728 0.0665 0.0
H2815 H 0.84232 0.06442 0.04184 0.0
H2816 H 0.86873 0.11893 0.04914 0.0
C2817 C 0.81856 0.13779 0.10442 0.0
C2818 C 0.80322 0.13084 0.11507 0.0
C2819 C 0.79644 0.11245 0.11113 0.0
C2820 C 0.80461 0.10135 0.09685 0.0
C2821 C 0.81967 0.10869 0.08656 0.0
C2822 C 0.82662 0.12649 0.09033 0.0
C2823 C 0.84322 0.13108 0.07776 0.0
C2824 C 0.83887 0.14811 0.06508 0.0
C2825 C 0.86111 0.13438 0.08953 0.0
C2826 C 0.84464 0.11312 0.06636 0.0
C2827 C 0.83089 0.10034 0.0714 0.0
C2828 C 0.82967 0.08277 0.06253 0.0
C2829 C 0.84299 0.07811 0.04846 0.0
C2830 C 0.85748 0.0909 0.04354 0.0
C2831 C 0.85798 0.10867 0.05258 0.0
H2832 H 0.36037 0.42835 0.08982 0.0
H2833 H 0.36856 0.3912 0.04214 0.0
H2834 H 0.34683 0.36808 0.05672 0.0
H2835 H 0.36041 0.39287 0.12502 0.0
H2836 H 0.34293 0.40452 0.1392 0.0
H2837 H 0.35827 0.41814 0.12432 0.0
H2838 H 0.32926 0.43328 0.10804 0.0
H2839 H 0.31383 0.4197 0.12288 0.0
H2840 H 0.31159 0.41834 0.09765 0.0
H2841 H 0.32364 0.34848 0.07801 0.0
H2842 H 0.30298 0.33533 0.10318 0.0
H2843 H 0.31234 0.38569 0.13627 0.0
C2844 C 0.35786 0.41535 0.08237 0.0
C2845 C 0.36644 0.41171 0.06478 0.0
C2846 C 0.36216 0.39452 0.05554 0.0
C2847 C 0.34985 0.38122 0.06378 0.0
C2848 C 0.34187 0.38527 0.08129 0.0
C2849 C 0.3458 0.402 0.09038 0.0
C2850 C 0.33594 0.40317 0.10917 0.0
C2851 C 0.35024 0.40476 0.12538 0.0
C2852 C 0.32182 0.41959 0.10944 0.0
C2853 C 0.32596 0.3844 0.10948 0.0
C2854 C 0.32926 0.37419 0.0933 0.0
C2855 C 0.32107 0.35643 0.09073 0.0
C2856 C 0.30935 0.34903 0.10508 0.0
C2857 C 0.30613 0.35932 0.12184 0.0
C2858 C 0.3146 0.37723 0.12381 0.0
H2859 H 0.33173 0.69049 0.40582 0.0
H2860 H 0.27964 0.6857 0.43713 0.0
H2861 H 0.29683 0.66942 0.46292 0.0
H2862 H 0.35015 0.64657 0.41681 0.0
H2863 H 0.37429 0.65405 0.41902 0.0
H2864 H 0.35838 0.66695 0.40407 0.0
H2865 H 0.36565 0.69763 0.42222 0.0
H2866 H 0.38184 0.68489 0.43709 0.0
H2867 H 0.36287 0.69815 0.44745 0.0
H2868 H 0.31944 0.64938 0.48327 0.0
H2869 H 0.34568 0.63158 0.49801 0.0
H2870 H 0.38347 0.65132 0.45448 0.0
C2871 C 0.32401 0.68654 0.41836 0.0
C2872 C 0.30429 0.68965 0.41949 0.0
C2873 C 0.29474 0.68391 0.43604 0.0
C2874 C 0.30441 0.67445 0.45069 0.0
C2875 C 0.32375 0.67107 0.44881 0.0
C2876 C 0.33351 0.67739 0.43321 0.0
C2877 C 0.35414 0.67167 0.43427 0.0
C2878 C 0.35954 0.65906 0.41755 0.0
C2879 C 0.36688 0.68913 0.43532 0.0
C2880 C 0.35449 0.66071 0.45268 0.0
C2881 C 0.33679 0.66038 0.46081 0.0
C2882 C 0.33338 0.64992 0.47715 0.0
C2883 C 0.34834 0.63975 0.4854 0.0
C2884 C 0.36669 0.64021 0.47757 0.0
C2885 C 0.36972 0.65099 0.46102 0.0
H2886 H 0.94235 0.48272 0.84119 0.0
H2887 H 0.91066 0.48357 0.89334 0.0
H2888 H 0.88855 0.45999 0.88011 0.0
H2889 H 0.90351 0.47823 0.80973 0.0
H2890 H 0.9155 0.46256 0.79383 0.0
H2891 H 0.92877 0.47923 0.80753 0.0
H2892 H 0.94903 0.45215 0.82122 0.0
H2893 H 0.93586 0.43539 0.80751 0.0
H2894 H 0.93763 0.43256 0.83268 0.0
H2895 H 0.8687 0.43728 0.85991 0.0
H2896 H 0.85472 0.41605 0.83605 0.0
H2897 H 0.90045 0.42901 0.79785 0.0
C2898 C 0.93081 0.47793 0.84992 0.0
C2899 C 0.92826 0.48514 0.86836 0.0
C2900 C 0.913 0.47829 0.87924 0.0
C2901 C 0.90032 0.46492 0.87179 0.0
C2902 C 0.90317 0.45828 0.85347 0.0
C2903 C 0.91822 0.46443 0.8428 0.0
C2904 C 0.91841 0.45499 0.82362 0.0
C2905 C 0.91643 0.46963 0.80774 0.0
C2906 C 0.93629 0.44306 0.82112 0.0
C2907 C 0.90101 0.44265 0.825 0.0
C2908 C 0.89229 0.44484 0.84226 0.0
C2909 C 0.87556 0.43539 0.84645 0.0
C2910 C 0.86765 0.42341 0.83277 0.0
C2911 C 0.8765 0.42068 0.81509 0.0
C2912 C 0.89346 0.43049 0.8113 0.0
H2913 H 0.64357 0.87293 0.46746 0.0
H2914 H 0.68574 0.89439 0.50579 0.0
H2915 H 0.71061 0.87761 0.48801 0.0
H2916 H 0.66553 0.82678 0.45769 0.0
H2917 H 0.65924 0.82744 0.4331 0.0
H2918 H 0.64461 0.83908 0.45021 0.0
H2919 H 0.64778 0.87043 0.43177 0.0
H2920 H 0.66226 0.85885 0.41457 0.0
H2921 H 0.6709 0.87947 0.42651 0.0
H2922 H 0.73132 0.85955 0.46461 0.0
H2923 H 0.74583 0.84532 0.43625 0.0
H2924 H 0.69032 0.83716 0.41231 0.0
C2925 C 0.65799 0.87368 0.47232 0.0
C2926 C 0.6627 0.88471 0.48821 0.0
C2927 C 0.68183 0.88591 0.49376 0.0
C2928 C 0.69603 0.87635 0.48377 0.0
C2929 C 0.69099 0.86573 0.46803 0.0
C2930 C 0.67241 0.86452 0.46224 0.0
C2931 C 0.67091 0.85384 0.4438 0.0
C2932 C 0.65939 0.83571 0.44636 0.0
C2933 C 0.66247 0.8664 0.42825 0.0
C2934 C 0.69149 0.84944 0.43999 0.0
C2935 C 0.70287 0.85606 0.45429 0.0
C2936 C 0.72248 0.85417 0.45344 0.0
C2937 C 0.73064 0.84588 0.43734 0.0
C2938 C 0.71926 0.83985 0.42213 0.0
C2939 C 0.69942 0.84134 0.4238 0.0
H2940 H 0.62883 0.55741 0.39185 0.0
H2941 H 0.59166 0.53158 0.35091 0.0
H2942 H 0.60727 0.55013 0.32553 0.0
H2943 H 0.63128 0.60367 0.37079 0.0
H2944 H 0.65574 0.60662 0.37688 0.0
H2945 H 0.64076 0.59218 0.39138 0.0
H2946 H 0.66375 0.56418 0.38738 0.0
H2947 H 0.67877 0.57848 0.3728 0.0
H2948 H 0.66989 0.55641 0.36403 0.0
H2949 H 0.6286 0.57182 0.30437 0.0
H2950 H 0.6529 0.59265 0.29035 0.0
H2951 H 0.67577 0.60292 0.34598 0.0
C2952 C 0.6237 0.55567 0.3776 0.0
C2953 C 0.60881 0.54301 0.3735 0.0
C2954 C 0.60288 0.54124 0.35452 0.0
C2955 C 0.61173 0.55173 0.34001 0.0
C2956 C 0.62655 0.56391 0.34466 0.0
C2957 C 0.6324 0.56583 0.3631 0.0
C2958 C 0.64899 0.57914 0.3647 0.0
C2959 C 0.64388 0.59643 0.37664 0.0
C2960 C 0.66637 0.56894 0.37269 0.0
C2961 C 0.65183 0.58447 0.34425 0.0
C2962 C 0.63872 0.57573 0.33281 0.0
C2963 C 0.63883 0.57868 0.31333 0.0
C2964 C 0.65267 0.59064 0.30546 0.0
C2965 C 0.66643 0.59946 0.31697 0.0
C2966 C 0.66573 0.59629 0.33665 0.0
H2967 H 0.18412 0.59628 0.57979 0.0
H2968 H 0.16076 0.63752 0.54121 0.0
H2969 H 0.18166 0.6619 0.55495 0.0
H2970 H 0.18596 0.62561 0.61934 0.0
H2971 H 0.20752 0.61559 0.62826 0.0
H2972 H 0.19199 0.60155 0.61405 0.0
H2973 H 0.21937 0.5947 0.59093 0.0
H2974 H 0.23498 0.60881 0.60505 0.0
H2975 H 0.232 0.61404 0.58039 0.0
H2976 H 0.20494 0.68246 0.57521 0.0
H2977 H 0.2262 0.69601 0.59968 0.0
H2978 H 0.23243 0.64056 0.62442 0.0
C2979 C 0.18326 0.6104 0.57414 0.0
C2980 C 0.17058 0.61489 0.55943 0.0
C2981 C 0.17039 0.6336 0.55237 0.0
C2982 C 0.18221 0.64758 0.56014 0.0
C2983 C 0.19429 0.64265 0.57492 0.0
C2984 C 0.19483 0.6244 0.58172 0.0
C2985 C 0.20822 0.62251 0.59815 0.0
C2986 C 0.1978 0.61594 0.616 0.0
C2987 C 0.22461 0.60923 0.59333 0.0
C2988 C 0.2149 0.64261 0.59995 0.0
C2989 C 0.20704 0.65414 0.58637 0.0
C2990 C 0.21117 0.67344 0.58583 0.0
C2991 C 0.2233 0.68105 0.5997 0.0
C2992 C 0.23086 0.66939 0.61403 0.0
C2993 C 0.22676 0.64993 0.61378 0.0
H2994 H 0.8456 0.59952 0.6883 0.0
H2995 H 0.88752 0.61753 0.729 0.0
H2996 H 0.91116 0.59758 0.71318 0.0
H2997 H 0.86123 0.55189 0.68354 0.0
H2998 H 0.85622 0.55117 0.65868 0.0
H2999 H 0.84269 0.56627 0.67383 0.0
H3000 H 0.85126 0.59502 0.65295 0.0
H3001 H 0.8648 0.58 0.63774 0.0
H3002 H 0.87567 0.60027 0.64841 0.0
H3003 H 0.93066 0.57486 0.69176 0.0
H3004 H 0.94321 0.55346 0.66706 0.0
H3005 H 0.88817 0.5525 0.64063 0.0
C3006 C 0.85968 0.59955 0.69402 0.0
C3007 C 0.86443 0.61039 0.71006 0.0
C3008 C 0.88323 0.60941 0.71689 0.0
C3009 C 0.89686 0.59809 0.70792 0.0
C3010 C 0.89161 0.58777 0.69205 0.0
C3011 C 0.87341 0.58852 0.68521 0.0
C3012 C 0.87114 0.57657 0.66776 0.0
C3013 C 0.85698 0.56053 0.67116 0.0
C3014 C 0.86538 0.58869 0.65071 0.0
C3015 C 0.89094 0.56906 0.66563 0.0
C3016 C 0.90264 0.57542 0.6798 0.0
C3017 C 0.92155 0.56991 0.6806 0.0
C3018 C 0.92859 0.55773 0.66653 0.0
C3019 C 0.91679 0.55141 0.65175 0.0
C3020 C 0.89773 0.5572 0.65153 0.0
H3021 H 0.15234 0.92784 0.72039 0.0
H3022 H 0.18675 0.9085 0.67394 0.0
H3023 H 0.1666 0.92591 0.65158 0.0
H3024 H 0.107 0.92673 0.69539 0.0
H3025 H 0.09848 0.94793 0.70636 0.0
H3026 H 0.1149 0.93297 0.71868 0.0
H3027 H 0.1375 0.96124 0.72293 0.0
H3028 H 0.12118 0.97625 0.71059 0.0
H3029 H 0.14514 0.97429 0.70251 0.0
H3030 H 0.14331 0.94647 0.63409 0.0
H3031 H 0.11906 0.96899 0.62314 0.0
H3032 H 0.09985 0.97561 0.68075 0.0
C3033 C 0.15541 0.92705 0.70548 0.0
C3034 C 0.17118 0.91674 0.69895 0.0
C3035 C 0.1749 0.91638 0.67933 0.0
C3036 C 0.16345 0.92617 0.66648 0.0
C3037 C 0.14824 0.93644 0.67335 0.0
C3038 C 0.14418 0.93698 0.6924 0.0
C3039 C 0.12747 0.94982 0.69609 0.0
C3040 C 0.11099 0.93869 0.70463 0.0
C3041 C 0.13317 0.96638 0.70878 0.0
C3042 C 0.1229 0.95646 0.67621 0.0
C3043 C 0.13498 0.94848 0.66329 0.0
C3044 C 0.13372 0.95274 0.6441 0.0
C3045 C 0.11987 0.96556 0.63798 0.0
C3046 C 0.10743 0.97413 0.65098 0.0
C3047 C 0.10902 0.96932 0.67035 0.0
H3048 H 0.62545 0.82856 0.8438 0.0
H3049 H 0.58618 0.78195 0.84252 0.0
H3050 H 0.56109 0.803 0.85474 0.0
H3051 H 0.61203 0.84639 0.88606 0.0
H3052 H 0.61492 0.87088 0.88007 0.0
H3053 H 0.62849 0.85331 0.86802 0.0
H3054 H 0.6159 0.86518 0.83588 0.0
H3055 H 0.60244 0.88303 0.84782 0.0
H3056 H 0.59087 0.86688 0.83207 0.0
H3057 H 0.54206 0.82809 0.87221 0.0
H3058 H 0.53043 0.85486 0.89116 0.0
H3059 H 0.58233 0.88503 0.88062 0.0
C3060 C 0.61138 0.82292 0.84544 0.0
C3061 C 0.60769 0.80365 0.84198 0.0
C3062 C 0.58921 0.79673 0.84465 0.0
C3063 C 0.57494 0.80859 0.85173 0.0
C3064 C 0.57933 0.82737 0.85578 0.0
C3065 C 0.59708 0.83454 0.85237 0.0
C3066 C 0.59886 0.85465 0.85931 0.0
C3067 C 0.61449 0.85639 0.87425 0.0
C3068 C 0.60221 0.86824 0.84278 0.0
C3069 C 0.57957 0.85758 0.86788 0.0
C3070 C 0.56842 0.84176 0.86559 0.0
C3071 C 0.55059 0.84062 0.87372 0.0
C3072 C 0.54412 0.85586 0.88456 0.0
C3073 C 0.5554 0.87212 0.88724 0.0
C3074 C 0.57321 0.87303 0.87844 0.0
H3075 H 0.03743 0.14224 0.386 0.0
H3076 H 0.04151 0.16945 0.44044 0.0
H3077 H 0.06117 0.19466 0.42598 0.0
H3078 H 0.08391 0.15175 0.3698 0.0
H3079 H 0.0766 0.15569 0.3458 0.0
H3080 H 0.06331 0.14005 0.36071 0.0
H3081 H 0.03305 0.1594 0.3542 0.0
H3082 H 0.04621 0.17506 0.33922 0.0
H3083 H 0.033 0.18435 0.35876 0.0
H3084 H 0.08152 0.21655 0.40465 0.0
H3085 H 0.09777 0.23376 0.37891 0.0
H3086 H 0.07867 0.19192 0.33898 0.0
C3087 C 0.04249 0.15341 0.39503 0.0
C3088 C 0.03809 0.15374 0.41446 0.0
C3089 C 0.04475 0.16887 0.42556 0.0
C3090 C 0.05596 0.18319 0.41744 0.0
C3091 C 0.06015 0.18226 0.39819 0.0
C3092 C 0.05337 0.16778 0.38717 0.0
C3093 C 0.05917 0.17 0.36679 0.0
C3094 C 0.07148 0.15339 0.36041 0.0
C3095 C 0.04183 0.17235 0.35399 0.0
C3096 C 0.07044 0.18799 0.36789 0.0
C3097 C 0.07105 0.19486 0.3861 0.0
C3098 C 0.08101 0.21125 0.39038 0.0
C3099 C 0.09031 0.22088 0.3757 0.0
C3100 C 0.08944 0.21423 0.3569 0.0
C3101 C 0.07942 0.19749 0.35312 0.0
H3102 H 0.47906 0.67235 0.87983 0.0
H3103 H 0.44351 0.65332 0.92576 0.0
H3104 H 0.41768 0.67321 0.91393 0.0
H3105 H 0.46355 0.71961 0.87917 0.0
H3106 H 0.46398 0.72217 0.85392 0.0
H3107 H 0.47951 0.70563 0.86529 0.0
H3108 H 0.46627 0.67878 0.84455 0.0
H3109 H 0.45074 0.69526 0.83306 0.0
H3110 H 0.44126 0.67447 0.84413 0.0
H3111 H 0.39645 0.69714 0.89878 0.0
H3112 H 0.38079 0.72215 0.88028 0.0
H3113 H 0.42905 0.72478 0.84299 0.0
C3114 C 0.46576 0.67206 0.88721 0.0
C3115 C 0.46351 0.66126 0.90391 0.0
C3116 C 0.44582 0.66161 0.91318 0.0
C3117 C 0.43096 0.67282 0.90649 0.0
C3118 C 0.43378 0.68356 0.8903 0.0
C3119 C 0.45065 0.68315 0.88064 0.0
C3120 C 0.45007 0.69648 0.86385 0.0
C3121 C 0.46517 0.71188 0.86568 0.0
C3122 C 0.45221 0.6856 0.8453 0.0
C3123 C 0.43037 0.70463 0.86579 0.0
C3124 C 0.42125 0.69698 0.88118 0.0
C3125 C 0.40335 0.70302 0.88653 0.0
C3126 C 0.39456 0.71728 0.87595 0.0
C3127 C 0.40353 0.72529 0.86003 0.0
C3128 C 0.42164 0.71868 0.85484 0.0
H3129 H 0.96888 0.38285 0.3989 0.0
H3130 H 0.98035 0.34502 0.44553 0.0
H3131 H 0.96032 0.32064 0.43024 0.0
H3132 H 0.92109 0.37049 0.39135 0.0
H3133 H 0.92271 0.37257 0.3661 0.0
H3134 H 0.93784 0.38646 0.38091 0.0
H3135 H 0.96713 0.37307 0.36382 0.0
H3136 H 0.9521 0.35914 0.34894 0.0
H3137 H 0.97039 0.34794 0.36254 0.0
H3138 H 0.93751 0.30056 0.40894 0.0
H3139 H 0.91597 0.28753 0.38484 0.0
H3140 H 0.92172 0.33903 0.35234 0.0
C3141 C 0.96721 0.36949 0.40609 0.0
C3142 C 0.97613 0.36599 0.4236 0.0
C3143 C 0.97365 0.34813 0.43218 0.0
C3144 C 0.96228 0.3342 0.42356 0.0
C3145 C 0.95365 0.33827 0.40625 0.0
C3146 C 0.9562 0.35554 0.39765 0.0
C3147 C 0.94583 0.35671 0.37905 0.0
C3148 C 0.93099 0.37249 0.37938 0.0
C3149 C 0.95969 0.35937 0.36262 0.0
C3150 C 0.93669 0.3375 0.37846 0.0
C3151 C 0.94127 0.32694 0.39419 0.0
C3152 C 0.93401 0.30879 0.39658 0.0
C3153 C 0.92177 0.30143 0.3827 0.0
C3154 C 0.91682 0.31214 0.36649 0.0
C3155 C 0.92472 0.33036 0.3645 0.0
H3156 H 0.62219 0.21615 0.65084 0.0
H3157 H 0.60168 0.22919 0.70681 0.0
H3158 H 0.57519 0.20669 0.70197 0.0
H3159 H 0.57725 0.21234 0.62834 0.0
H3160 H 0.58474 0.19352 0.61312 0.0
H3161 H 0.60157 0.21056 0.62135 0.0
H3162 H 0.62221 0.1837 0.63498 0.0
H3163 H 0.60542 0.16657 0.62685 0.0
H3164 H 0.61202 0.16716 0.65135 0.0
H3165 H 0.55084 0.18144 0.69017 0.0
H3166 H 0.53141 0.15818 0.67295 0.0
H3167 H 0.56906 0.16255 0.62512 0.0
C3168 C 0.61221 0.2144 0.66222 0.0
C3169 C 0.61418 0.2245 0.67931 0.0
C3170 C 0.60055 0.22169 0.69361 0.0
C3171 C 0.58548 0.20888 0.69095 0.0
C3172 C 0.58416 0.19905 0.67389 0.0
C3173 C 0.59722 0.20185 0.65978 0.0
C3174 C 0.59297 0.18989 0.64265 0.0
C3175 C 0.58889 0.20232 0.62535 0.0
C3176 C 0.60911 0.17601 0.63874 0.0
C3177 C 0.57544 0.17972 0.64918 0.0
C3178 C 0.57048 0.18506 0.66723 0.0
C3179 C 0.55471 0.17727 0.67605 0.0
C3180 C 0.54377 0.16392 0.66616 0.0
C3181 C 0.54852 0.15842 0.64753 0.0
C3182 C 0.56472 0.16649 0.63915 0.0
H3183 H 0.41348 0.20972 0.65633 0.0
H3184 H 0.40221 0.24621 0.60865 0.0
H3185 H 0.4272 0.2301 0.59049 0.0
H3186 H 0.46409 0.20703 0.65056 0.0
H3187 H 0.46521 0.18262 0.65744 0.0
H3188 H 0.44692 0.19754 0.66668 0.0
H3189 H 0.42155 0.17444 0.65432 0.0
H3190 H 0.43975 0.15941 0.6452 0.0
H3191 H 0.42149 0.16801 0.62978 0.0
H3192 H 0.45444 0.20903 0.57734 0.0
H3193 H 0.4781 0.18405 0.57044 0.0
H3194 H 0.47044 0.16185 0.6268 0.0
C3195 C 0.41635 0.2145 0.64214 0.0
C3196 C 0.40579 0.22937 0.63404 0.0
C3197 C 0.4099 0.23481 0.61522 0.0
C3198 C 0.42422 0.2258 0.60481 0.0
C3199 C 0.4344 0.21123 0.61329 0.0
C3200 C 0.43047 0.20558 0.63153 0.0
C3201 C 0.44274 0.18911 0.63731 0.0
C3202 C 0.45549 0.1944 0.65399 0.0
C3203 C 0.43066 0.17172 0.64191 0.0
C3204 C 0.45413 0.18622 0.6195 0.0
C3205 C 0.4494 0.19918 0.60577 0.0
C3206 C 0.45819 0.19886 0.58807 0.0
C3207 C 0.47173 0.18472 0.58427 0.0
C3208 C 0.47617 0.17094 0.59801 0.0
C3209 C 0.46738 0.1721 0.61589 0.0
H3210 H 0.45839 0.3632 0.62352 0.0
H3211 H 0.49537 0.37115 0.67142 0.0
H3212 H 0.47758 0.34701 0.68919 0.0
H3213 H 0.416 0.35728 0.65004 0.0
H3214 H 0.40634 0.33983 0.63439 0.0
H3215 H 0.42245 0.35726 0.62549 0.0
H3216 H 0.44404 0.33082 0.61275 0.0
H3217 H 0.42801 0.31331 0.62169 0.0
H3218 H 0.45243 0.31281 0.62859 0.0
H3219 H 0.45495 0.32088 0.70188 0.0
H3220 H 0.42911 0.29802 0.70822 0.0
H3221 H 0.40722 0.30821 0.65211 0.0
C3222 C 0.46289 0.35979 0.63768 0.0
C3223 C 0.47842 0.36921 0.64595 0.0
C3224 C 0.48349 0.36439 0.66472 0.0
C3225 C 0.47351 0.35053 0.67492 0.0
C3226 C 0.45829 0.34152 0.66632 0.0
C3227 C 0.45298 0.34612 0.64812 0.0
C3228 C 0.43579 0.33494 0.64218 0.0
C3229 C 0.41916 0.34812 0.63777 0.0
C3230 C 0.44035 0.32222 0.6253 0.0
C3231 C 0.43216 0.3234 0.65983 0.0
C3232 C 0.44533 0.32715 0.67362 0.0
C3233 C 0.44459 0.31793 0.69111 0.0
C3234 C 0.4299 0.30488 0.69461 0.0
C3235 C 0.41599 0.30129 0.68078 0.0
C3236 C 0.41747 0.31064 0.66314 0.0
H3237 H 0.55797 0.3679 0.62823 0.0
H3238 H 0.5514 0.34854 0.57077 0.0
H3239 H 0.57513 0.32344 0.57695 0.0
H3240 H 0.60691 0.36164 0.63201 0.0
H3241 H 0.60634 0.35394 0.6562 0.0
H3242 H 0.58827 0.36938 0.64737 0.0
H3243 H 0.56262 0.34565 0.65781 0.0
H3244 H 0.5806 0.33018 0.66682 0.0
H3245 H 0.56384 0.32163 0.64981 0.0
H3246 H 0.60198 0.30178 0.58955 0.0
H3247 H 0.62664 0.28468 0.60729 0.0
H3248 H 0.61453 0.31828 0.65665 0.0
C3249 C 0.56134 0.35831 0.6169 0.0
C3250 C 0.5528 0.3603 0.59892 0.0
C3251 C 0.5576 0.34729 0.58465 0.0
C3252 C 0.57116 0.33305 0.58806 0.0
C3253 C 0.57959 0.33183 0.60589 0.0
C3254 C 0.57458 0.34403 0.62012 0.0
C3255 C 0.58561 0.3401 0.63804 0.0
C3256 C 0.59748 0.35729 0.64373 0.0
C3257 C 0.57238 0.33403 0.65407 0.0
C3258 C 0.59798 0.32393 0.63173 0.0
C3259 C 0.59439 0.31934 0.61314 0.0
C3260 C 0.60469 0.30525 0.60413 0.0
C3261 C 0.61882 0.29566 0.61432 0.0
C3262 C 0.62262 0.30001 0.63347 0.0
C3263 C 0.61189 0.31436 0.64218 0.0
H3264 H 0.91158 0.55844 0.84786 0.0
H3265 H 0.94227 0.60712 0.86805 0.0
H3266 H 0.92096 0.62804 0.85028 0.0
H3267 H 0.90389 0.57594 0.80131 0.0
H3268 H 0.88056 0.56625 0.79891 0.0
H3269 H 0.89743 0.555 0.81416 0.0
H3270 H 0.87416 0.55756 0.84207 0.0
H3271 H 0.85719 0.56878 0.82688 0.0
H3272 H 0.8646 0.58022 0.84826 0.0
H3273 H 0.89708 0.64388 0.82936 0.0
H3274 H 0.87249 0.65331 0.80659 0.0
H3275 H 0.85713 0.59464 0.79934 0.0
C3276 C 0.91359 0.57351 0.84875 0.0
C3277 C 0.92867 0.58111 0.85939 0.0
C3278 C 0.93099 0.60093 0.8599 0.0
C3279 C 0.91888 0.61296 0.84991 0.0
C3280 C 0.9044 0.60507 0.83931 0.0
C3281 C 0.90165 0.5858 0.83865 0.0
C3282 C 0.88543 0.58103 0.8255 0.0
C3283 C 0.89224 0.56883 0.80899 0.0
C3284 C 0.8694 0.57132 0.83633 0.0
C3285 C 0.87963 0.60056 0.81884 0.0
C3286 C 0.8907 0.61423 0.82707 0.0
C3287 C 0.88827 0.63329 0.82289 0.0
C3288 C 0.87424 0.63853 0.8099 0.0
C3289 C 0.86276 0.62481 0.80111 0.0
C3290 C 0.86555 0.60556 0.80581 0.0
H3291 H 0.86439 0.93521 0.44749 0.0
H3292 H 0.83263 0.93204 0.49949 0.0
H3293 H 0.80574 0.9182 0.48205 0.0
H3294 H 0.82393 0.94714 0.41673 0.0
H3295 H 0.83296 0.93344 0.39741 0.0
H3296 H 0.84898 0.94424 0.41385 0.0
H3297 H 0.86414 0.91175 0.42042 0.0
H3298 H 0.84807 0.90082 0.40417 0.0
H3299 H 0.84951 0.89248 0.42812 0.0
H3300 H 0.78372 0.90091 0.45915 0.0
H3301 H 0.76733 0.88537 0.43254 0.0
H3302 H 0.81251 0.90177 0.39507 0.0
C3303 C 0.85162 0.932 0.45517 0.0
C3304 C 0.85063 0.93488 0.47492 0.0
C3305 C 0.83369 0.93029 0.48438 0.0
C3306 C 0.81837 0.92226 0.47457 0.0
C3307 C 0.82002 0.91918 0.45519 0.0
C3308 C 0.83612 0.92429 0.44554 0.0
C3309 C 0.83453 0.91928 0.42478 0.0
C3310 C 0.83513 0.93709 0.41247 0.0
C3311 C 0.84998 0.90525 0.41905 0.0
C3312 C 0.81519 0.91016 0.42425 0.0
C3313 C 0.80709 0.9101 0.44196 0.0
C3314 C 0.78983 0.90125 0.4452 0.0
C3315 C 0.78063 0.89238 0.43002 0.0
C3316 C 0.78847 0.89259 0.41167 0.0
C3317 C 0.80595 0.90175 0.40882 0.0
H3318 H 0.18514 0.93796 0.79521 0.0
H3319 H 0.15696 0.88476 0.80558 0.0
H3320 H 0.13949 0.89936 0.832 0.0
H3321 H 0.19035 0.95171 0.84368 0.0
H3322 H 0.18614 0.97631 0.83904 0.0
H3323 H 0.19634 0.96164 0.82108 0.0
H3324 H 0.16972 0.97114 0.79799 0.0
H3325 H 0.1595 0.9859 0.81583 0.0
H3326 H 0.14552 0.96783 0.80485 0.0
H3327 H 0.12487 0.92032 0.8575 0.0
H3328 H 0.11411 0.9454 0.87899 0.0
H3329 H 0.15191 0.98488 0.85173 0.0
C3330 C 0.1753 0.92929 0.80299 0.0
C3331 C 0.17248 0.9101 0.7982 0.0
C3332 C 0.15941 0.89943 0.80887 0.0
C3333 C 0.14944 0.90763 0.82395 0.0
C3334 C 0.15264 0.92656 0.82828 0.0
C3335 C 0.16526 0.93724 0.81805 0.0
C3336 C 0.1661 0.95731 0.82537 0.0
C3337 C 0.18591 0.96201 0.83273 0.0
C3338 C 0.15984 0.97137 0.8101 0.0
C3339 C 0.15195 0.95636 0.84135 0.0
C3340 C 0.14435 0.9385 0.84283 0.0
C3341 C 0.13077 0.93432 0.85639 0.0
C3342 C 0.12468 0.94872 0.86854 0.0
C3343 C 0.13208 0.96725 0.8672 0.0
C3344 C 0.14608 0.97092 0.85344 0.0
H3345 H 0.16968 0.59316 0.47024 0.0
H3346 H 0.12614 0.63582 0.46634 0.0
H3347 H 0.14508 0.65311 0.44295 0.0
H3348 H 0.20852 0.62527 0.46749 0.0
H3349 H 0.22334 0.61005 0.45365 0.0
H3350 H 0.20593 0.60008 0.46917 0.0
H3351 H 0.19138 0.58177 0.44127 0.0
H3352 H 0.20878 0.59166 0.42567 0.0
H3353 H 0.18409 0.5944 0.42045 0.0
H3354 H 0.16886 0.66652 0.42062 0.0
H3355 H 0.19615 0.67553 0.40136 0.0
H3356 H 0.22568 0.62526 0.41984 0.0
C3357 C 0.16401 0.60597 0.46421 0.0
C3358 C 0.14621 0.61298 0.4701 0.0
C3359 C 0.1396 0.63006 0.46211 0.0
C3360 C 0.15028 0.64001 0.44875 0.0
C3361 C 0.16778 0.63291 0.44344 0.0
C3362 C 0.17468 0.6163 0.4509 0.0
C3363 C 0.19438 0.61237 0.44329 0.0
C3364 C 0.2089 0.61192 0.45936 0.0
C3365 C 0.19467 0.59396 0.432 0.0
C3366 C 0.19744 0.62938 0.43048 0.0
C3367 C 0.18181 0.64094 0.43077 0.0
C3368 C 0.18119 0.65758 0.42035 0.0
C3369 C 0.19692 0.66267 0.40949 0.0
C3370 C 0.21336 0.65132 0.40902 0.0
C3371 C 0.21342 0.63428 0.41964 0.0
H3372 H 0.84369 0.40204 0.69987 0.0
H3373 H 0.83364 0.44486 0.74204 0.0
H3374 H 0.8477 0.46881 0.72077 0.0
H3375 H 0.88767 0.4181 0.68455 0.0
H3376 H 0.88398 0.41274 0.66003 0.0
H3377 H 0.87184 0.39943 0.67788 0.0
H3378 H 0.8398 0.40775 0.66258 0.0
H3379 H 0.85185 0.42095 0.64454 0.0
H3380 H 0.83383 0.43208 0.65847 0.0
H3381 H 0.86636 0.48744 0.69572 0.0
H3382 H 0.88462 0.49941 0.66848 0.0
H3383 H 0.88105 0.44463 0.64212 0.0
C3384 C 0.84407 0.41653 0.70454 0.0
C3385 C 0.83741 0.42153 0.72269 0.0
C3386 C 0.83836 0.44066 0.72818 0.0
C3387 C 0.84648 0.45435 0.71619 0.0
C3388 C 0.85336 0.4488 0.69859 0.0
C3389 C 0.85188 0.43036 0.69267 0.0
C3390 C 0.8606 0.42782 0.67329 0.0
C3391 C 0.87699 0.41369 0.67399 0.0
C3392 C 0.84562 0.4218 0.65887 0.0
C3393 C 0.86761 0.44762 0.66928 0.0
C3394 C 0.86339 0.45953 0.68408 0.0
C3395 C 0.86944 0.47824 0.684 0.0
C3396 C 0.87992 0.48492 0.66849 0.0
C3397 C 0.88417 0.47306 0.65303 0.0
C3398 C 0.87775 0.45417 0.65351 0.0
H3399 H 0.66437 0.90943 0.56559 0.0
H3400 H 0.68914 0.96276 0.54917 0.0
H3401 H 0.71564 0.95682 0.57149 0.0
H3402 H 0.67468 0.91175 0.61393 0.0
H3403 H 0.6794 0.88693 0.61628 0.0
H3404 H 0.6634 0.89517 0.59842 0.0
H3405 H 0.68312 0.87846 0.57274 0.0
H3406 H 0.69914 0.87004 0.59054 0.0
H3407 H 0.70793 0.88343 0.57083 0.0
H3408 H 0.73868 0.94492 0.59783 0.0
H3409 H 0.75616 0.92826 0.62298 0.0
H3410 H 0.71523 0.88301 0.62133 0.0
C3411 C 0.67537 0.91993 0.56651 0.0
C3412 C 0.67455 0.93668 0.55563 0.0
C3413 C 0.68945 0.94982 0.55726 0.0
C3414 C 0.7045 0.94655 0.56998 0.0
C3415 C 0.70453 0.93 0.58081 0.0
C3416 C 0.69035 0.91686 0.57893 0.0
C3417 C 0.69318 0.90025 0.59208 0.0
C3418 C 0.67669 0.89843 0.606 0.0
C3419 C 0.69601 0.88197 0.58087 0.0
C3420 C 0.7111 0.90605 0.60202 0.0
C3421 C 0.71753 0.92323 0.5954 0.0
C3422 C 0.73371 0.93145 0.60294 0.0
C3423 C 0.74351 0.92189 0.6174 0.0
C3424 C 0.73721 0.90418 0.62429 0.0
C3425 C 0.72071 0.89632 0.61635 0.0
H3426 H 0.10643 0.09076 0.66303 0.0
H3427 H 0.12764 0.03451 0.67332 0.0
H3428 H 0.1524 0.0477 0.69418 0.0
H3429 H 0.15168 0.11417 0.66208 0.0
H3430 H 0.1428 0.13501 0.67343 0.0
H3431 H 0.12738 0.12089 0.65912 0.0
H3432 H 0.10431 0.11743 0.68719 0.0
H3433 H 0.11964 0.13157 0.70154 0.0
H3434 H 0.11287 0.10838 0.70933 0.0
H3435 H 0.17428 0.06823 0.71617 0.0
H3436 H 0.19039 0.09313 0.73489 0.0
H3437 H 0.15475 0.13507 0.70832 0.0
C3438 C 0.11624 0.08115 0.66964 0.0
C3439 C 0.11493 0.06152 0.6665 0.0
C3440 C 0.12835 0.04958 0.67532 0.0
C3441 C 0.14245 0.05698 0.68729 0.0
C3442 C 0.14318 0.07644 0.69022 0.0
C3443 C 0.13043 0.08829 0.68142 0.0
C3444 C 0.1339 0.10862 0.68671 0.0
C3445 C 0.13926 0.12036 0.6693 0.0
C3446 C 0.11666 0.11698 0.69679 0.0
C3447 C 0.15043 0.10648 0.70004 0.0
C3448 C 0.15571 0.08789 0.70207 0.0
C3449 C 0.17029 0.08283 0.71444 0.0
C3450 C 0.17945 0.09707 0.72501 0.0
C3451 C 0.17409 0.1162 0.7231 0.0
C3452 C 0.15949 0.12071 0.71019 0.0
H3453 H 0.364 0.62313 0.54905 0.0
H3454 H 0.3503 0.56377 0.55152 0.0
H3455 H 0.32656 0.57051 0.57642 0.0
H3456 H 0.36238 0.63192 0.59701 0.0
H3457 H 0.35234 0.65513 0.5949 0.0
H3458 H 0.36641 0.64576 0.57608 0.0
H3459 H 0.33903 0.65106 0.55253 0.0
H3460 H 0.32493 0.66071 0.57124 0.0
H3461 H 0.31617 0.64125 0.55755 0.0
H3462 H 0.30657 0.58423 0.60396 0.0
H3463 H 0.29104 0.60314 0.62873 0.0
H3464 H 0.31849 0.65332 0.60741 0.0
C3465 C 0.35574 0.61153 0.55453 0.0
C3466 C 0.35897 0.5929 0.54828 0.0
C3467 C 0.3479 0.57817 0.55588 0.0
C3468 C 0.33449 0.5819 0.57014 0.0
C3469 C 0.33219 0.60045 0.57643 0.0
C3470 C 0.34238 0.61503 0.56855 0.0
C3471 C 0.33806 0.63364 0.57801 0.0
C3472 C 0.35586 0.6421 0.58703 0.0
C3473 C 0.32901 0.64748 0.564 0.0
C3474 C 0.3241 0.62737 0.59284 0.0
C3475 C 0.32081 0.60821 0.59177 0.0
C3476 C 0.30898 0.59925 0.60469 0.0
C3477 C 0.3003 0.61011 0.61885 0.0
C3478 C 0.30341 0.62982 0.6201 0.0
C3479 C 0.31549 0.63841 0.60677 0.0
H3480 H 0.88084 0.87558 0.57275 0.0
H3481 H 0.84107 0.8891 0.52852 0.0
H3482 H 0.81593 0.87243 0.54602 0.0
H3483 H 0.86078 0.82885 0.58626 0.0
H3484 H 0.86504 0.83294 0.61093 0.0
H3485 H 0.88043 0.84316 0.59351 0.0
H3486 H 0.87435 0.87632 0.60738 0.0
H3487 H 0.85908 0.8662 0.62484 0.0
H3488 H 0.85048 0.88464 0.60962 0.0
H3489 H 0.7943 0.85693 0.57015 0.0
H3490 H 0.77815 0.84685 0.59945 0.0
H3491 H 0.83202 0.84425 0.62799 0.0
C3492 C 0.86699 0.87448 0.56649 0.0
C3493 C 0.86296 0.8834 0.54915 0.0
C3494 C 0.84446 0.88228 0.54175 0.0
C3495 C 0.83013 0.87274 0.55154 0.0
C3496 C 0.83446 0.86438 0.56881 0.0
C3497 C 0.85247 0.86523 0.57623 0.0
C3498 C 0.85305 0.85709 0.59596 0.0
C3499 C 0.86557 0.83946 0.5967 0.0
C3500 C 0.85961 0.87195 0.61028 0.0
C3501 C 0.83249 0.85205 0.59873 0.0
C3502 C 0.822 0.85595 0.5828 0.0
C3503 C 0.80245 0.85355 0.58258 0.0
C3504 C 0.79337 0.84767 0.59924 0.0
C3505 C 0.80383 0.84456 0.61593 0.0
C3506 C 0.82367 0.84626 0.61537 0.0
H3507 H 0.84329 0.1243 0.97446 0.0
H3508 H 0.89234 0.14461 0.94449 0.0
H3509 H 0.87168 0.16181 0.92221 0.0
H3510 H 0.81243 0.11858 0.9342 0.0
H3511 H 0.7918 0.12699 0.94631 0.0
H3512 H 0.8104 0.11565 0.95934 0.0
H3513 H 0.81319 0.14477 0.981 0.0
H3514 H 0.79454 0.15615 0.9681 0.0
H3515 H 0.81701 0.16765 0.97067 0.0
H3516 H 0.84505 0.17638 0.9024 0.0
H3517 H 0.81545 0.18953 0.88926 0.0
H3518 H 0.78387 0.1615 0.93339 0.0
C3519 C 0.84965 0.13227 0.96313 0.0
C3520 C 0.86951 0.13298 0.96119 0.0
C3521 C 0.87724 0.14389 0.94634 0.0
C3522 C 0.86557 0.15363 0.93353 0.0
C3523 C 0.84606 0.15264 0.93581 0.0
C3524 C 0.83818 0.14243 0.95043 0.0
C3525 C 0.81686 0.14445 0.95037 0.0
C3526 C 0.80731 0.12527 0.94737 0.0
C3527 C 0.81 0.15381 0.96862 0.0
C3528 C 0.81396 0.1573 0.93343 0.0
C3529 C 0.83094 0.16167 0.92504 0.0
C3530 C 0.8317 0.17309 0.90897 0.0
C3531 C 0.81478 0.18044 0.90151 0.0
C3532 C 0.79725 0.17666 0.91023 0.0
C3533 C 0.79699 0.16479 0.92637 0.0
H3534 H 0.40247 0.89709 0.32156 0.0
H3535 H 0.37885 0.93486 0.27984 0.0
H3536 H 0.39572 0.96161 0.29448 0.0
H3537 H 0.39762 0.92847 0.35997 0.0
H3538 H 0.41899 0.92114 0.37156 0.0
H3539 H 0.40655 0.90498 0.35658 0.0
H3540 H 0.43684 0.9001 0.33689 0.0
H3541 H 0.44931 0.91643 0.35174 0.0
H3542 H 0.44848 0.9202 0.32664 0.0
H3543 H 0.41476 0.98493 0.31504 0.0
H3544 H 0.43065 1.00219 0.341 0.0
H3545 H 0.4407 0.94926 0.36967 0.0
C3546 C 0.40113 0.91093 0.3153 0.0
C3547 C 0.38943 0.91377 0.29938 0.0
C3548 C 0.38768 0.93227 0.292 0.0
C3549 C 0.39735 0.94756 0.30018 0.0
C3550 C 0.40869 0.94432 0.31594 0.0
C3551 C 0.41045 0.92642 0.32351 0.0
C3552 C 0.42221 0.92684 0.34137 0.0
C3553 C 0.41065 0.91996 0.35837 0.0
C3554 C 0.44028 0.9152 0.33901 0.0
C3555 C 0.42663 0.94772 0.34283 0.0
C3556 C 0.41903 0.95761 0.32789 0.0
C3557 C 0.42088 0.97723 0.3267 0.0
C3558 C 0.43014 0.98696 0.34141 0.0
C3559 C 0.43723 0.97713 0.35727 0.0
C3560 C 0.43573 0.95721 0.35761 0.0
H3561 H 0.20678 0.33771 0.91001 0.0
H3562 H 0.26018 0.34723 0.93791 0.0
H3563 H 0.24365 0.36523 0.9629 0.0
H3564 H 0.18809 0.3821 0.917 0.0
H3565 H 0.1642 0.37447 0.92084 0.0
H3566 H 0.17982 0.36044 0.90672 0.0
H3567 H 0.17385 0.33156 0.9282 0.0
H3568 H 0.15796 0.34542 0.94226 0.0
H3569 H 0.17756 0.33357 0.95324 0.0
H3570 H 0.22108 0.38585 0.9827 0.0
H3571 H 0.19497 0.40417 0.99669 0.0
H3572 H 0.15641 0.38052 0.9558 0.0
C3573 C 0.21498 0.34308 0.92168 0.0
C3574 C 0.23482 0.34079 0.92208 0.0
C3575 C 0.24498 0.34837 0.93747 0.0
C3576 C 0.23568 0.3588 0.95163 0.0
C3577 C 0.21615 0.36136 0.95037 0.0
C3578 C 0.20592 0.35335 0.93591 0.0
C3579 C 0.18525 0.35877 0.9371 0.0
C3580 C 0.17899 0.36959 0.91936 0.0
C3581 C 0.17293 0.34129 0.9404 0.0
C3582 C 0.18539 0.37145 0.95425 0.0
C3583 C 0.20332 0.37282 0.96174 0.0
C3584 C 0.207 0.38461 0.97702 0.0
C3585 C 0.19206 0.39511 0.98482 0.0
C3586 C 0.17351 0.3938 0.97748 0.0
C3587 C 0.17027 0.38165 0.96201 0.0
H3588 H 0.08585 0.07767 0.86643 0.0
H3589 H 0.09466 0.0263 0.83491 0.0
H3590 H 0.11045 0.04477 0.8097 0.0
H3591 H 0.07759 0.10899 0.82521 0.0
H3592 H 0.08958 0.12843 0.83622 0.0
H3593 H 0.07739 0.11132 0.85048 0.0
H3594 H 0.108 0.10532 0.86936 0.0
H3595 H 0.12036 0.12219 0.85504 0.0
H3596 H 0.12907 0.09844 0.85705 0.0
H3597 H 0.12915 0.06898 0.78987 0.0
H3598 H 0.14575 0.09636 0.776 0.0
H3599 H 0.12357 0.1321 0.82 0.0
C3600 C 0.09061 0.07032 0.85397 0.0
C3601 C 0.08876 0.05046 0.85261 0.0
C3602 C 0.0955 0.04146 0.83617 0.0
C3603 C 0.10467 0.05188 0.82185 0.0
C3604 C 0.10679 0.07138 0.82399 0.0
C3605 C 0.09957 0.08052 0.83953 0.0
C3606 C 0.10419 0.10143 0.83896 0.0
C3607 C 0.08611 0.11324 0.83764 0.0
C3608 C 0.11611 0.10717 0.85612 0.0
C3609 C 0.11554 0.1027 0.82089 0.0
C3610 C 0.11697 0.08521 0.81246 0.0
C3611 C 0.12781 0.08272 0.79626 0.0
C3612 C 0.13731 0.09836 0.78851 0.0
C3613 C 0.13589 0.11648 0.79675 0.0
C3614 C 0.12467 0.11858 0.81312 0.0
H3615 H 0.65604 0.12367 0.08824 0.0
H3616 H 0.6833 0.11908 0.03383 0.0
H3617 H 0.70788 0.14144 0.0444 0.0
H3618 H 0.66581 0.1732 0.09603 0.0
H3619 H 0.66963 0.16992 0.12092 0.0
H3620 H 0.65371 0.15463 0.10844 0.0
H3621 H 0.67246 0.12547 0.11995 0.0
H3622 H 0.68827 0.14064 0.13259 0.0
H3623 H 0.69742 0.12424 0.11559 0.0
H3624 H 0.73118 0.16325 0.06263 0.0
H3625 H 0.75023 0.18057 0.08635 0.0
H3626 H 0.70676 0.17048 0.12795 0.0
C3627 C 0.66714 0.12724 0.07846 0.0
C3628 C 0.66765 0.11939 0.06017 0.0
C3629 C 0.68241 0.12491 0.04786 0.0
C3630 C 0.6965 0.13762 0.05378 0.0
C3631 C 0.69561 0.14492 0.07201 0.0
C3632 C 0.68119 0.13989 0.08409 0.0
C3633 C 0.68357 0.14896 0.1032 0.0
C3634 C 0.6672 0.16248 0.10739 0.0
C3635 C 0.68556 0.13393 0.11874 0.0
C3636 C 0.70179 0.15959 0.10024 0.0
C3637 C 0.70857 0.15733 0.08216 0.0
C3638 C 0.72581 0.16524 0.07673 0.0
C3639 C 0.73651 0.17521 0.09025 0.0
C3640 C 0.72998 0.17705 0.109 0.0
C3641 C 0.71216 0.16949 0.11372 0.0
H3642 H 0.39479 0.06965 0.14073 0.0
H3643 H 0.4373 0.04488 0.177 0.0
H3644 H 0.42534 0.06413 0.20367 0.0
H3645 H 0.39466 0.11661 0.16095 0.0
H3646 H 0.36957 0.11905 0.15809 0.0
H3647 H 0.3828 0.10468 0.14197 0.0
H3648 H 0.36102 0.07636 0.14944 0.0
H3649 H 0.34781 0.09057 0.16565 0.0
H3650 H 0.35819 0.06878 0.17351 0.0
H3651 H 0.40663 0.08552 0.22697 0.0
H3652 H 0.38358 0.10557 0.24384 0.0
H3653 H 0.35361 0.11496 0.19149 0.0
C3654 C 0.40188 0.06836 0.15418 0.0
C3655 C 0.41711 0.05575 0.15668 0.0
C3656 C 0.42574 0.05454 0.17464 0.0
C3657 C 0.41898 0.0654 0.18987 0.0
C3658 C 0.40361 0.07741 0.1869 0.0
C3659 C 0.39528 0.0789 0.16938 0.0
C3660 C 0.37838 0.09187 0.16972 0.0
C3661 C 0.38155 0.10907 0.15693 0.0
C3662 C 0.36029 0.08126 0.16426 0.0
C3663 C 0.3782 0.09739 0.19025 0.0
C3664 C 0.39291 0.08913 0.20002 0.0
C3665 C 0.39518 0.09209 0.21934 0.0
C3666 C 0.38205 0.10358 0.22882 0.0
C3667 C 0.36668 0.11184 0.21905 0.0
C3668 C 0.36501 0.10875 0.19946 0.0
H3669 H 0.65424 0.40812 0.2188 0.0
H3670 H 0.60087 0.38958 0.24196 0.0
H3671 H 0.58439 0.4138 0.22317 0.0
H3672 H 0.64337 0.45797 0.21802 0.0
H3673 H 0.65572 0.46203 0.19622 0.0
H3674 H 0.66317 0.4434 0.21179 0.0
H3675 H 0.6598 0.41931 0.18466 0.0
H3676 H 0.65238 0.43787 0.16902 0.0
H3677 H 0.63769 0.41744 0.17232 0.0
H3678 H 0.57349 0.44082 0.20073 0.0
H3679 H 0.56998 0.46633 0.17685 0.0
H3680 H 0.63057 0.46674 0.16935 0.0
C3681 C 0.63912 0.40919 0.22015 0.0
C3682 C 0.629 0.39671 0.23202 0.0
C3683 C 0.6091 0.39866 0.23292 0.0
C3684 C 0.59955 0.41254 0.22234 0.0
C3685 C 0.60998 0.42456 0.21079 0.0
C3686 C 0.62937 0.42295 0.20967 0.0
C3687 C 0.6374 0.43723 0.19598 0.0
C3688 C 0.6507 0.45097 0.20611 0.0
C3689 C 0.6474 0.42737 0.17952 0.0
C3690 C 0.61958 0.44707 0.18945 0.0
C3691 C 0.60383 0.43973 0.19813 0.0
C3692 C 0.58581 0.44665 0.19392 0.0
C3693 C 0.5839 0.46121 0.18037 0.0
C3694 C 0.59992 0.46867 0.1711 0.0
C3695 C 0.61792 0.46147 0.17603 0.0
loop_
_geom_bond_atom_site_label_1
_geom_bond_atom_site_label_2
_geom_bond_distance
_geom_bond_site_symmetry_2
_ccdc_geom_bond_type
Cu0 N1 1.999 . S
Cu0 O6 1.974 . S
Cu0 N11 1.985 . S
Cu0 O20 1.959 . S
N1 Cu0 1.999 . S
N1 C3 1.263 . S
N1 C5 1.389 . S
N2 C3 1.358 . S
N2 C4 1.400 . S
C3 N1 1.263 . S
C3 N2 1.358 . S
C3 H9 0.930 . S
C4 N2 1.400 . S
C4 C5 1.351 . S
C4 H21 0.930 . S
C5 N1 1.389 . S
C5 C4 1.351 . S
C5 H10 0.930 . S
O6 Cu0 1.974 . S
O6 C16 1.282 . S
C7 O8 1.261 . S
C7 O20 1.251 . S
O8 C7 1.261 . S
H9 C3 0.930 . S
H10 C5 0.930 . S
N11 Cu0 1.985 . S
N11 C13 1.335 . S
N11 C14 1.390 . S
N12 C13 1.345 . S
N12 C15 1.336 . S
C13 N11 1.335 . S
C13 N12 1.345 . S
C13 H18 0.930 . S
C14 N11 1.390 . S
C14 C15 1.346 . S
C14 H19 0.930 . S
C15 N12 1.336 . S
C15 C14 1.346 . S
C15 H22 0.929 . S
C16 O6 1.282 . S
C16 O17 1.216 . S
O17 C16 1.216 . S
H18 C13 0.930 . S
H19 C14 0.930 . S
O20 Cu0 1.959 . S
O20 C7 1.251 . S
H21 C4 0.930 . S
H22 C15 0.929 . S
Cu23 N24 1.999 . S
Cu23 O29 1.974 . S
Cu23 N34 1.985 . S
Cu23 O43 1.959 . S
N24 Cu23 1.999 . S
N24 C26 1.263 . S
N24 C28 1.389 . S
N25 C26 1.358 . S
N25 C27 1.400 . S
C26 N24 1.263 . S
C26 N25 1.358 . S
C26 H32 0.930 . S
C27 N25 1.400 . S
C27 C28 1.351 . S
C27 H44 0.930 . S
C28 N24 1.389 . S
C28 C27 1.351 . S
C28 H33 0.930 . S
O29 Cu23 1.974 . S
O29 C39 1.282 . S
C30 O31 1.261 . S
C30 O43 1.251 . S
O31 C30 1.261 . S
H32 C26 0.930 . S
H33 C28 0.930 . S
N34 Cu23 1.985 . S
N34 C36 1.335 . S
N34 C37 1.390 . S
N35 C36 1.345 . S
N35 C38 1.336 . S
C36 N34 1.335 . S
C36 N35 1.345 . S
C36 H41 0.930 . S
C37 N34 1.390 . S
C37 C38 1.346 . S
C37 H42 0.930 . S
C38 N35 1.336 . S
C38 C37 1.346 . S
C38 H45 0.929 . S
C39 O29 1.282 . S
C39 O40 1.216 . S
O40 C39 1.216 . S
H41 C36 0.930 . S
H42 C37 0.930 . S
O43 Cu23 1.959 . S
O43 C30 1.251 . S
H44 C27 0.930 . S
H45 C38 0.929 . S
Cu46 N47 1.999 . S
Cu46 O52 1.974 . S
Cu46 N57 1.985 . S
Cu46 O66 1.959 . S
N47 Cu46 1.999 . S
N47 C49 1.263 . S
N47 C51 1.389 . S
N48 C49 1.358 . S
N48 C50 1.400 . S
C49 N47 1.263 . S
C49 N48 1.358 . S
C49 H55 0.930 . S
C50 N48 1.400 . S
C50 C51 1.351 . S
C50 H67 0.930 . S
C51 N47 1.389 . S
C51 C50 1.351 . S
C51 H56 0.930 . S
O52 Cu46 1.974 . S
O52 C62 1.282 . S
C53 O54 1.261 . S
C53 O66 1.251 . S
O54 C53 1.261 . S
H55 C49 0.930 . S
H56 C51 0.930 . S
N57 Cu46 1.985 . S
N57 C59 1.335 . S
N57 C60 1.390 . S
N58 C59 1.345 . S
N58 C61 1.336 . S
C59 N57 1.335 . S
C59 N58 1.345 . S
C59 H64 0.930 . S
C60 N57 1.390 . S
C60 C61 1.346 . S
C60 H65 0.930 . S
C61 N58 1.336 . S
C61 C60 1.346 . S
C61 H68 0.929 . S
C62 O52 1.282 . S
C62 O63 1.216 . S
O63 C62 1.216 . S
H64 C59 0.930 . S
H65 C60 0.930 . S
O66 Cu46 1.959 . S
O66 C53 1.251 . S
H67 C50 0.930 . S
H68 C61 0.929 . S
Cu69 N70 1.999 . S
Cu69 O75 1.974 . S
Cu69 N80 1.985 . S
Cu69 O89 1.959 . S
N70 Cu69 1.999 . S
N70 C72 1.263 . S
N70 C74 1.389 . S
N71 C72 1.358 . S
N71 C73 1.400 . S
C72 N70 1.263 . S
C72 N71 1.358 . S
C72 H78 0.930 . S
C73 N71 1.400 . S
C73 C74 1.351 . S
C73 H90 0.930 . S
C74 N70 1.389 . S
C74 C73 1.351 . S
C74 H79 0.930 . S
O75 Cu69 1.974 . S
O75 C85 1.282 . S
C76 O77 1.261 . S
C76 O89 1.251 . S
O77 C76 1.261 . S
H78 C72 0.930 . S
H79 C74 0.930 . S
N80 Cu69 1.985 . S
N80 C82 1.335 . S
N80 C83 1.390 . S
N81 C82 1.345 . S
N81 C84 1.336 . S
C82 N80 1.335 . S
C82 N81 1.345 . S
C82 H87 0.930 . S
C83 N80 1.390 . S
C83 C84 1.346 . S
C83 H88 0.930 . S
C84 N81 1.336 . S
C84 C83 1.346 . S
C84 H91 0.929 . S
C85 O75 1.282 . S
C85 O86 1.216 . S
O86 C85 1.216 . S
H87 C82 0.930 . S
H88 C83 0.930 . S
O89 Cu69 1.959 . S
O89 C76 1.251 . S
H90 C73 0.930 . S
H91 C84 0.929 . S
Cu92 N93 1.999 . S
Cu92 O98 1.974 . S
Cu92 N103 1.985 . S
Cu92 O112 1.959 . S
N93 Cu92 1.999 . S
N93 C95 1.263 . S
N93 C97 1.389 . S
N94 C95 1.358 . S
N94 C96 1.400 . S
C95 N93 1.263 . S
C95 N94 1.358 . S
C95 H101 0.930 . S
C96 N94 1.400 . S
C96 C97 1.351 . S
C96 H113 0.930 . S
C97 N93 1.389 . S
C97 C96 1.351 . S
C97 H102 0.930 . S
O98 Cu92 1.974 . S
O98 C108 1.282 . S
C99 O100 1.261 . S
C99 O112 1.251 . S
O100 C99 1.261 . S
H101 C95 0.930 . S
H102 C97 0.930 . S
N103 Cu92 1.985 . S
N103 C105 1.335 . S
N103 C106 1.390 . S
N104 C105 1.345 . S
N104 C107 1.336 . S
C105 N103 1.335 . S
C105 N104 1.345 . S
C105 H110 0.930 . S
C106 N103 1.390 . S
C106 C107 1.346 . S
C106 H111 0.930 . S
C107 N104 1.336 . S
C107 C106 1.346 . S
C107 H114 0.929 . S
C108 O98 1.282 . S
C108 O109 1.216 . S
O109 C108 1.216 . S
H110 C105 0.930 . S
H111 C106 0.930 . S
O112 Cu92 1.959 . S
O112 C99 1.251 . S
H113 C96 0.930 . S
H114 C107 0.929 . S
Cu115 N116 1.999 . S
Cu115 O121 1.974 1_455 S
Cu115 N126 1.985 1_455 S
Cu115 O135 1.959 . S
N116 Cu115 1.999 . S
N116 C118 1.263 . S
N116 C120 1.389 . S
N117 C118 1.358 . S
N117 C119 1.400 . S
C118 N116 1.263 . S
C118 N117 1.358 . S
C118 H124 0.930 . S
C119 N117 1.400 . S
C119 C120 1.351 . S
C119 H136 0.930 . S
C120 N116 1.389 . S
C120 C119 1.351 . S
C120 H125 0.930 . S
O121 Cu115 1.974 1_655 S
O121 C131 1.282 . S
C122 O123 1.261 . S
C122 O135 1.251 . S
O123 C122 1.261 . S
H124 C118 0.930 . S
H125 C120 0.930 . S
N126 Cu115 1.985 1_655 S
N126 C128 1.335 . S
N126 C129 1.390 . S
N127 C128 1.345 . S
N127 C130 1.336 . S
C128 N126 1.335 . S
C128 N127 1.345 . S
C128 H133 0.930 . S
C129 N126 1.390 . S
C129 C130 1.346 . S
C129 H134 0.930 . S
C130 N127 1.336 . S
C130 C129 1.346 . S
C130 H137 0.929 . S
C131 O121 1.282 . S
C131 O132 1.216 . S
O132 C131 1.216 . S
H133 C128 0.930 . S
H134 C129 0.930 . S
O135 Cu115 1.959 . S
O135 C122 1.251 . S
H136 C119 0.930 . S
H137 C130 0.929 . S
Cu138 N139 1.999 . S
Cu138 O144 1.974 . S
Cu138 N149 1.985 . S
Cu138 O158 1.959 . S
N139 Cu138 1.999 . S
N139 C141 1.263 . S
N139 C143 1.389 . S
N140 C141 1.358 . S
N140 C142 1.400 . S
C141 N139 1.263 . S
C141 N140 1.358 . S
C141 H147 0.930 . S
C142 N140 1.400 . S
C142 C143 1.351 . S
C142 H159 0.930 . S
C143 N139 1.389 . S
C143 C142 1.351 . S
C143 H148 0.930 . S
O144 Cu138 1.974 . S
O144 C154 1.282 . S
C145 O146 1.261 . S
C145 O158 1.251 . S
O146 C145 1.261 . S
H147 C141 0.930 . S
H148 C143 0.930 . S
N149 Cu138 1.985 . S
N149 C151 1.335 . S
N149 C152 1.390 . S
N150 C151 1.345 . S
N150 C153 1.336 . S
C151 N149 1.335 . S
C151 N150 1.345 . S
C151 H156 0.930 . S
C152 N149 1.390 . S
C152 C153 1.346 . S
C152 H157 0.930 . S
C153 N150 1.336 . S
C153 C152 1.346 . S
C153 H160 0.929 . S
C154 O144 1.282 . S
C154 O155 1.216 . S
O155 C154 1.216 . S
H156 C151 0.930 . S
H157 C152 0.930 . S
O158 Cu138 1.959 . S
O158 C145 1.251 . S
H159 C142 0.930 . S
H160 C153 0.929 . S
Cu161 N162 1.999 . S
Cu161 O167 1.974 1_655 S
Cu161 N172 1.985 1_655 S
Cu161 O181 1.959 . S
N162 Cu161 1.999 . S
N162 C164 1.263 . S
N162 C166 1.389 . S
N163 C164 1.358 . S
N163 C165 1.400 . S
C164 N162 1.263 . S
C164 N163 1.358 . S
C164 H170 0.930 . S
C165 N163 1.400 . S
C165 C166 1.351 . S
C165 H182 0.930 . S
C166 N162 1.389 . S
C166 C165 1.351 . S
C166 H171 0.930 . S
O167 Cu161 1.974 1_455 S
O167 C177 1.282 . S
C168 O169 1.261 . S
C168 O181 1.251 . S
O169 C168 1.261 . S
H170 C164 0.930 . S
H171 C166 0.930 . S
N172 Cu161 1.985 1_455 S
N172 C174 1.335 . S
N172 C175 1.390 . S
N173 C174 1.345 . S
N173 C176 1.336 . S
C174 N172 1.335 . S
C174 N173 1.345 . S
C174 H179 0.930 . S
C175 N172 1.390 . S
C175 C176 1.346 . S
C175 H180 0.930 . S
C176 N173 1.336 . S
C176 C175 1.346 . S
C176 H183 0.929 . S
C177 O167 1.282 . S
C177 O178 1.216 . S
O178 C177 1.216 . S
H179 C174 0.930 . S
H180 C175 0.930 . S
O181 Cu161 1.959 . S
O181 C168 1.251 . S
H182 C165 0.930 . S
H183 C176 0.929 . S
Cu184 N185 1.999 . S
Cu184 O190 1.974 . S
Cu184 N195 1.985 . S
Cu184 O204 1.959 . S
N185 Cu184 1.999 . S
N185 C187 1.263 . S
N185 C189 1.389 . S
N186 C187 1.358 . S
N186 C188 1.400 . S
C187 N185 1.263 . S
C187 N186 1.358 . S
C187 H193 0.930 . S
C188 N186 1.400 . S
C188 C189 1.351 . S
C188 H205 0.930 . S
C189 N185 1.389 . S
C189 C188 1.351 . S
C189 H194 0.930 . S
O190 Cu184 1.974 . S
O190 C200 1.282 . S
C191 O192 1.261 . S
C191 O204 1.251 . S
O192 C191 1.261 . S
H193 C187 0.930 . S
H194 C189 0.930 . S
N195 Cu184 1.985 . S
N195 C197 1.335 . S
N195 C198 1.390 . S
N196 C197 1.345 . S
N196 C199 1.336 . S
C197 N195 1.335 . S
C197 N196 1.345 . S
C197 H202 0.930 . S
C198 N195 1.390 . S
C198 C199 1.346 . S
C198 H203 0.930 . S
C199 N196 1.336 . S
C199 C198 1.346 . S
C199 H206 0.929 . S
C200 O190 1.282 . S
C200 O201 1.216 . S
O201 C200 1.216 . S
H202 C197 0.930 . S
H203 C198 0.930 . S
O204 Cu184 1.959 . S
O204 C191 1.251 . S
H205 C188 0.930 . S
H206 C199 0.929 . S
Cu207 N208 1.999 . S
Cu207 O213 1.974 1_554 S
Cu207 N218 1.985 1_554 S
Cu207 O227 1.959 . S
N208 Cu207 1.999 . S
N208 C210 1.263 . S
N208 C212 1.389 . S
N209 C210 1.358 . S
N209 C211 1.400 . S
C210 N208 1.263 . S
C210 N209 1.358 . S
C210 H216 0.930 . S
C211 N209 1.400 . S
C211 C212 1.351 . S
C211 H228 0.930 . S
C212 N208 1.389 . S
C212 C211 1.351 . S
C212 H217 0.930 . S
O213 Cu207 1.974 1_556 S
O213 C223 1.282 . S
C214 O215 1.261 . S
C214 O227 1.251 . S
O215 C214 1.261 . S
H216 C210 0.930 . S
H217 C212 0.930 . S
N218 Cu207 1.985 1_556 S
N218 C220 1.335 . S
N218 C221 1.390 . S
N219 C220 1.345 . S
N219 C222 1.336 . S
C220 N218 1.335 . S
C220 N219 1.345 . S
C220 H225 0.930 . S
C221 N218 1.390 . S
C221 C222 1.346 . S
C221 H226 0.930 . S
C222 N219 1.336 . S
C222 C221 1.346 . S
C222 H229 0.929 . S
C223 O213 1.282 . S
C223 O224 1.216 . S
O224 C223 1.216 . S
H225 C220 0.930 . S
H226 C221 0.930 . S
O227 Cu207 1.959 . S
O227 C214 1.251 . S
H228 C211 0.930 . S
H229 C222 0.929 . S
Cu230 N231 1.999 . S
Cu230 O236 1.974 . S
Cu230 N241 1.985 . S
Cu230 O250 1.959 . S
N231 Cu230 1.999 . S
N231 C233 1.263 . S
N231 C235 1.389 . S
N232 C233 1.358 . S
N232 C234 1.400 . S
C233 N231 1.263 . S
C233 N232 1.358 . S
C233 H239 0.930 . S
C234 N232 1.400 . S
C234 C235 1.351 . S
C234 H251 0.930 . S
C235 N231 1.389 . S
C235 C234 1.351 . S
C235 H240 0.930 . S
O236 Cu230 1.974 . S
O236 C246 1.282 . S
C237 O238 1.261 . S
C237 O250 1.251 . S
O238 C237 1.261 . S
H239 C233 0.930 . S
H240 C235 0.930 . S
N241 Cu230 1.985 . S
N241 C243 1.335 . S
N241 C244 1.390 . S
N242 C243 1.345 . S
N242 C245 1.336 . S
C243 N241 1.335 . S
C243 N242 1.345 . S
C243 H248 0.930 . S
C244 N241 1.390 . S
C244 C245 1.346 . S
C244 H249 0.930 . S
C245 N242 1.336 . S
C245 C244 1.346 . S
C245 H252 0.929 . S
C246 O236 1.282 . S
C246 O247 1.216 . S
O247 C246 1.216 . S
H248 C243 0.930 . S
H249 C244 0.930 . S
O250 Cu230 1.959 . S
O250 C237 1.251 . S
H251 C234 0.930 . S
H252 C245 0.929 . S
Cu253 N254 1.999 . S
Cu253 O259 1.974 1_554 S
Cu253 N264 1.985 1_554 S
Cu253 O273 1.959 . S
N254 Cu253 1.999 . S
N254 C256 1.263 . S
N254 C258 1.389 . S
N255 C256 1.358 . S
N255 C257 1.400 . S
C256 N254 1.263 . S
C256 N255 1.358 . S
C256 H262 0.930 . S
C257 N255 1.400 . S
C257 C258 1.351 . S
C257 H274 0.930 . S
C258 N254 1.389 . S
C258 C257 1.351 . S
C258 H263 0.930 . S
O259 Cu253 1.974 1_556 S
O259 C269 1.282 . S
C260 O261 1.261 . S
C260 O273 1.251 . S
O261 C260 1.261 . S
H262 C256 0.930 . S
H263 C258 0.930 . S
N264 Cu253 1.985 1_556 S
N264 C266 1.335 . S
N264 C267 1.390 . S
N265 C266 1.345 . S
N265 C268 1.336 . S
C266 N264 1.335 . S
C266 N265 1.345 . S
C266 H271 0.930 . S
C267 N264 1.390 . S
C267 C268 1.346 . S
C267 H272 0.930 . S
C268 N265 1.336 . S
C268 C267 1.346 . S
C268 H275 0.929 . S
C269 O259 1.282 . S
C269 O270 1.216 . S
O270 C269 1.216 . S
H271 C266 0.930 . S
H272 C267 0.930 . S
O273 Cu253 1.959 . S
O273 C260 1.251 . S
H274 C257 0.930 . S
H275 C268 0.929 . S
Cu276 N277 1.999 . S
Cu276 O282 1.974 . S
Cu276 N287 1.985 . S
Cu276 O296 1.959 . S
N277 Cu276 1.999 . S
N277 C279 1.263 . S
N277 C281 1.389 . S
N278 C279 1.358 . S
N278 C280 1.400 . S
C279 N277 1.263 . S
C279 N278 1.358 . S
C279 H285 0.930 . S
C280 N278 1.400 . S
C280 C281 1.351 . S
C280 H297 0.930 . S
C281 N277 1.389 . S
C281 C280 1.351 . S
C281 H286 0.930 . S
O282 Cu276 1.974 . S
O282 C292 1.282 . S
C283 O284 1.261 . S
C283 O296 1.251 . S
O284 C283 1.261 . S
H285 C279 0.930 . S
H286 C281 0.930 . S
N287 Cu276 1.985 . S
N287 C289 1.335 . S
N287 C290 1.390 . S
N288 C289 1.345 . S
N288 C291 1.336 . S
C289 N287 1.335 . S
C289 N288 1.345 . S
C289 H294 0.930 . S
C290 N287 1.390 . S
C290 C291 1.346 . S
C290 H295 0.930 . S
C291 N288 1.336 . S
C291 C290 1.346 . S
C291 H298 0.929 . S
C292 O282 1.282 . S
C292 O293 1.216 . S
O293 C292 1.216 . S
H294 C289 0.930 . S
H295 C290 0.930 . S
O296 Cu276 1.959 . S
O296 C283 1.251 . S
H297 C280 0.930 . S
H298 C291 0.929 . S
Cu299 N300 1.999 . S
Cu299 O305 1.974 1_556 S
Cu299 N310 1.985 1_556 S
Cu299 O319 1.959 . S
N300 Cu299 1.999 . S
N300 C302 1.263 . S
N300 C304 1.389 . S
N301 C302 1.358 . S
N301 C303 1.400 . S
C302 N300 1.263 . S
C302 N301 1.358 . S
C302 H308 0.930 . S
C303 N301 1.400 . S
C303 C304 1.351 . S
C303 H320 0.930 . S
C304 N300 1.389 . S
C304 C303 1.351 . S
C304 H309 0.930 . S
O305 Cu299 1.974 1_554 S
O305 C315 1.282 . S
C306 O307 1.261 . S
C306 O319 1.251 . S
O307 C306 1.261 . S
H308 C302 0.930 . S
H309 C304 0.930 . S
N310 Cu299 1.985 1_554 S
N310 C312 1.335 . S
N310 C313 1.390 . S
N311 C312 1.345 . S
N311 C314 1.336 . S
C312 N310 1.335 . S
C312 N311 1.345 . S
C312 H317 0.930 . S
C313 N310 1.390 . S
C313 C314 1.346 . S
C313 H318 0.930 . S
C314 N311 1.336 . S
C314 C313 1.346 . S
C314 H321 0.929 . S
C315 O305 1.282 . S
C315 O316 1.216 . S
O316 C315 1.216 . S
H317 C312 0.930 . S
H318 C313 0.930 . S
O319 Cu299 1.959 . S
O319 C306 1.251 . S
H320 C303 0.930 . S
H321 C314 0.929 . S
Cu322 N323 1.999 . S
Cu322 O328 1.974 . S
Cu322 N333 1.985 . S
Cu322 O342 1.959 . S
N323 Cu322 1.999 . S
N323 C325 1.263 . S
N323 C327 1.389 . S
N324 C325 1.358 . S
N324 C326 1.400 . S
C325 N323 1.263 . S
C325 N324 1.358 . S
C325 H331 0.930 . S
C326 N324 1.400 . S
C326 C327 1.351 . S
C326 H343 0.930 . S
C327 N323 1.389 . S
C327 C326 1.351 . S
C327 H332 0.930 . S
O328 Cu322 1.974 . S
O328 C338 1.282 . S
C329 O330 1.261 . S
C329 O342 1.251 . S
O330 C329 1.261 . S
H331 C325 0.930 . S
H332 C327 0.930 . S
N333 Cu322 1.985 . S
N333 C335 1.335 . S
N333 C336 1.390 . S
N334 C335 1.345 . S
N334 C337 1.336 . S
C335 N333 1.335 . S
C335 N334 1.345 . S
C335 H340 0.930 . S
C336 N333 1.390 . S
C336 C337 1.346 . S
C336 H341 0.930 . S
C337 N334 1.336 . S
C337 C336 1.346 . S
C337 H344 0.929 . S
C338 O328 1.282 . S
C338 O339 1.216 . S
O339 C338 1.216 . S
H340 C335 0.930 . S
H341 C336 0.930 . S
O342 Cu322 1.959 . S
O342 C329 1.251 . S
H343 C326 0.930 . S
H344 C337 0.929 . S
Cu345 N346 1.999 . S
Cu345 O351 1.974 1_556 S
Cu345 N356 1.985 1_556 S
Cu345 O365 1.959 . S
N346 Cu345 1.999 . S
N346 C348 1.263 . S
N346 C350 1.389 . S
N347 C348 1.358 . S
N347 C349 1.400 . S
C348 N346 1.263 . S
C348 N347 1.358 . S
C348 H354 0.930 . S
C349 N347 1.400 . S
C349 C350 1.351 . S
C349 H366 0.930 . S
C350 N346 1.389 . S
C350 C349 1.351 . S
C350 H355 0.930 . S
O351 Cu345 1.974 1_554 S
O351 C361 1.282 . S
C352 O353 1.261 . S
C352 O365 1.251 . S
O353 C352 1.261 . S
H354 C348 0.930 . S
H355 C350 0.930 . S
N356 Cu345 1.985 1_554 S
N356 C358 1.335 . S
N356 C359 1.390 . S
N357 C358 1.345 . S
N357 C360 1.336 . S
C358 N356 1.335 . S
C358 N357 1.345 . S
C358 H363 0.930 . S
C359 N356 1.390 . S
C359 C360 1.346 . S
C359 H364 0.930 . S
C360 N357 1.336 . S
C360 C359 1.346 . S
C360 H367 0.929 . S
C361 O351 1.282 . S
C361 O362 1.216 . S
O362 C361 1.216 . S
H363 C358 0.930 . S
H364 C359 0.930 . S
O365 Cu345 1.959 . S
O365 C352 1.251 . S
H366 C349 0.930 . S
H367 C360 0.929 . S
Cu368 N369 1.999 . S
Cu368 O374 1.974 . S
Cu368 N379 1.985 . S
Cu368 O388 1.959 . S
N369 Cu368 1.999 . S
N369 C371 1.263 . S
N369 C373 1.389 . S
N370 C371 1.358 . S
N370 C372 1.400 . S
C371 N369 1.263 . S
C371 N370 1.358 . S
C371 H377 0.930 . S
C372 N370 1.400 . S
C372 C373 1.351 . S
C372 H389 0.930 . S
C373 N369 1.389 . S
C373 C372 1.351 . S
C373 H378 0.930 . S
O374 Cu368 1.974 . S
O374 C384 1.282 . S
C375 O376 1.261 . S
C375 O388 1.251 . S
O376 C375 1.261 . S
H377 C371 0.930 . S
H378 C373 0.930 . S
N379 Cu368 1.985 . S
N379 C381 1.335 . S
N379 C382 1.390 . S
N380 C381 1.345 . S
N380 C383 1.336 . S
C381 N379 1.335 . S
C381 N380 1.345 . S
C381 H386 0.930 . S
C382 N379 1.390 . S
C382 C383 1.346 . S
C382 H387 0.930 . S
C383 N380 1.336 . S
C383 C382 1.346 . S
C383 H390 0.929 . S
C384 O374 1.282 . S
C384 O385 1.216 . S
O385 C384 1.216 . S
H386 C381 0.930 . S
H387 C382 0.930 . S
O388 Cu368 1.959 . S
O388 C375 1.251 . S
H389 C372 0.930 . S
H390 C383 0.929 . S
Cu391 N392 1.999 . S
Cu391 O397 1.974 . S
Cu391 N402 1.985 . S
Cu391 O411 1.959 . S
N392 Cu391 1.999 . S
N392 C394 1.263 . S
N392 C396 1.389 . S
N393 C394 1.358 . S
N393 C395 1.400 . S
C394 N392 1.263 . S
C394 N393 1.358 . S
C394 H400 0.930 . S
C395 N393 1.400 . S
C395 C396 1.351 . S
C395 H412 0.930 . S
C396 N392 1.389 . S
C396 C395 1.351 . S
C396 H401 0.930 . S
O397 Cu391 1.974 . S
O397 C407 1.282 . S
C398 O399 1.261 . S
C398 O411 1.251 . S
O399 C398 1.261 . S
H400 C394 0.930 . S
H401 C396 0.930 . S
N402 Cu391 1.985 . S
N402 C404 1.335 . S
N402 C405 1.390 . S
N403 C404 1.345 . S
N403 C406 1.336 . S
C404 N402 1.335 . S
C404 N403 1.345 . S
C404 H409 0.930 . S
C405 N402 1.390 . S
C405 C406 1.346 . S
C405 H410 0.930 . S
C406 N403 1.336 . S
C406 C405 1.346 . S
C406 H413 0.929 . S
C407 O397 1.282 . S
C407 O408 1.216 . S
O408 C407 1.216 . S
H409 C404 0.930 . S
H410 C405 0.930 . S
O411 Cu391 1.959 . S
O411 C398 1.251 . S
H412 C395 0.930 . S
H413 C406 0.929 . S
Cu414 N415 1.999 . S
Cu414 O420 1.974 . S
Cu414 N425 1.985 . S
Cu414 O434 1.959 . S
N415 Cu414 1.999 . S
N415 C417 1.263 . S
N415 C419 1.389 . S
N416 C417 1.358 . S
N416 C418 1.400 . S
C417 N415 1.263 . S
C417 N416 1.358 . S
C417 H423 0.930 . S
C418 N416 1.400 . S
C418 C419 1.351 . S
C418 H435 0.930 . S
C419 N415 1.389 . S
C419 C418 1.351 . S
C419 H424 0.930 . S
O420 Cu414 1.974 . S
O420 C430 1.282 . S
C421 O422 1.261 . S
C421 O434 1.251 . S
O422 C421 1.261 . S
H423 C417 0.930 . S
H424 C419 0.930 . S
N425 Cu414 1.985 . S
N425 C427 1.335 . S
N425 C428 1.390 . S
N426 C427 1.345 . S
N426 C429 1.336 . S
C427 N425 1.335 . S
C427 N426 1.345 . S
C427 H432 0.930 . S
C428 N425 1.390 . S
C428 C429 1.346 . S
C428 H433 0.930 . S
C429 N426 1.336 . S
C429 C428 1.346 . S
C429 H436 0.929 . S
C430 O420 1.282 . S
C430 O431 1.216 . S
O431 C430 1.216 . S
H432 C427 0.930 . S
H433 C428 0.930 . S
O434 Cu414 1.959 . S
O434 C421 1.251 . S
H435 C418 0.930 . S
H436 C429 0.929 . S
Cu437 N438 1.999 . S
Cu437 O443 1.974 . S
Cu437 N448 1.985 . S
Cu437 O457 1.959 . S
N438 Cu437 1.999 . S
N438 C440 1.263 . S
N438 C442 1.389 . S
N439 C440 1.358 . S
N439 C441 1.400 . S
C440 N438 1.263 . S
C440 N439 1.358 . S
C440 H446 0.930 . S
C441 N439 1.400 . S
C441 C442 1.351 . S
C441 H458 0.930 . S
C442 N438 1.389 . S
C442 C441 1.351 . S
C442 H447 0.930 . S
O443 Cu437 1.974 . S
O443 C453 1.282 . S
C444 O445 1.261 . S
C444 O457 1.251 . S
O445 C444 1.261 . S
H446 C440 0.930 . S
H447 C442 0.930 . S
N448 Cu437 1.985 . S
N448 C450 1.335 . S
N448 C451 1.390 . S
N449 C450 1.345 . S
N449 C452 1.336 . S
C450 N448 1.335 . S
C450 N449 1.345 . S
C450 H455 0.930 . S
C451 N448 1.390 . S
C451 C452 1.346 . S
C451 H456 0.930 . S
C452 N449 1.336 . S
C452 C451 1.346 . S
C452 H459 0.929 . S
C453 O443 1.282 . S
C453 O454 1.216 . S
O454 C453 1.216 . S
H455 C450 0.930 . S
H456 C451 0.930 . S
O457 Cu437 1.959 . S
O457 C444 1.251 . S
H458 C441 0.930 . S
H459 C452 0.929 . S
Cu460 N461 1.999 . S
Cu460 O466 1.974 . S
Cu460 N471 1.985 . S
Cu460 O480 1.959 . S
N461 Cu460 1.999 . S
N461 C463 1.263 . S
N461 C465 1.389 . S
N462 C463 1.358 . S
N462 C464 1.400 . S
C463 N461 1.263 . S
C463 N462 1.358 . S
C463 H469 0.930 . S
C464 N462 1.400 . S
C464 C465 1.351 . S
C464 H481 0.930 . S
C465 N461 1.389 . S
C465 C464 1.351 . S
C465 H470 0.930 . S
O466 Cu460 1.974 . S
O466 C476 1.282 . S
C467 O468 1.261 . S
C467 O480 1.251 . S
O468 C467 1.261 . S
H469 C463 0.930 . S
H470 C465 0.930 . S
N471 Cu460 1.985 . S
N471 C473 1.335 . S
N471 C474 1.390 . S
N472 C473 1.345 . S
N472 C475 1.336 . S
C473 N471 1.335 . S
C473 N472 1.345 . S
C473 H478 0.930 . S
C474 N471 1.390 . S
C474 C475 1.346 . S
C474 H479 0.930 . S
C475 N472 1.336 . S
C475 C474 1.346 . S
C475 H482 0.929 . S
C476 O466 1.282 . S
C476 O477 1.216 . S
O477 C476 1.216 . S
H478 C473 0.930 . S
H479 C474 0.930 . S
O480 Cu460 1.959 . S
O480 C467 1.251 . S
H481 C464 0.930 . S
H482 C475 0.929 . S
Cu483 N484 1.999 . S
Cu483 O489 1.974 . S
Cu483 N494 1.985 . S
Cu483 O503 1.959 . S
N484 Cu483 1.999 . S
N484 C486 1.263 . S
N484 C488 1.389 . S
N485 C486 1.358 . S
N485 C487 1.400 . S
C486 N484 1.263 . S
C486 N485 1.358 . S
C486 H492 0.930 . S
C487 N485 1.400 . S
C487 C488 1.351 . S
C487 H504 0.930 . S
C488 N484 1.389 . S
C488 C487 1.351 . S
C488 H493 0.930 . S
O489 Cu483 1.974 . S
O489 C499 1.282 . S
C490 O491 1.261 . S
C490 O503 1.251 . S
O491 C490 1.261 . S
H492 C486 0.930 . S
H493 C488 0.930 . S
N494 Cu483 1.985 . S
N494 C496 1.335 . S
N494 C497 1.390 . S
N495 C496 1.345 . S
N495 C498 1.336 . S
C496 N494 1.335 . S
C496 N495 1.345 . S
C496 H501 0.930 . S
C497 N494 1.390 . S
C497 C498 1.346 . S
C497 H502 0.930 . S
C498 N495 1.336 . S
C498 C497 1.346 . S
C498 H505 0.929 . S
C499 O489 1.282 . S
C499 O500 1.216 . S
O500 C499 1.216 . S
H501 C496 0.930 . S
H502 C497 0.930 . S
O503 Cu483 1.959 . S
O503 C490 1.251 . S
H504 C487 0.930 . S
H505 C498 0.929 . S
Cu506 N507 1.999 . S
Cu506 O512 1.974 . S
Cu506 N517 1.985 . S
Cu506 O526 1.959 . S
N507 Cu506 1.999 . S
N507 C509 1.263 . S
N507 C511 1.389 . S
N508 C509 1.358 . S
N508 C510 1.400 . S
C509 N507 1.263 . S
C509 N508 1.358 . S
C509 H515 0.930 . S
C510 N508 1.400 . S
C510 C511 1.351 . S
C510 H527 0.930 . S
C511 N507 1.389 . S
C511 C510 1.351 . S
C511 H516 0.930 . S
O512 Cu506 1.974 . S
O512 C522 1.282 . S
C513 O514 1.261 . S
C513 O526 1.251 . S
O514 C513 1.261 . S
H515 C509 0.930 . S
H516 C511 0.930 . S
N517 Cu506 1.985 . S
N517 C519 1.335 . S
N517 C520 1.390 . S
N518 C519 1.345 . S
N518 C521 1.336 . S
C519 N517 1.335 . S
C519 N518 1.345 . S
C519 H524 0.930 . S
C520 N517 1.390 . S
C520 C521 1.346 . S
C520 H525 0.930 . S
C521 N518 1.336 . S
C521 C520 1.346 . S
C521 H528 0.929 . S
C522 O512 1.282 . S
C522 O523 1.216 . S
O523 C522 1.216 . S
H524 C519 0.930 . S
H525 C520 0.930 . S
O526 Cu506 1.959 . S
O526 C513 1.251 . S
H527 C510 0.930 . S
H528 C521 0.929 . S
Cu529 N530 1.999 . S
Cu529 O535 1.974 1_545 S
Cu529 N540 1.985 1_545 S
Cu529 O549 1.959 . S
N530 Cu529 1.999 . S
N530 C532 1.263 . S
N530 C534 1.389 . S
N531 C532 1.358 . S
N531 C533 1.400 . S
C532 N530 1.263 . S
C532 N531 1.358 . S
C532 H538 0.930 . S
C533 N531 1.400 . S
C533 C534 1.351 . S
C533 H550 0.930 . S
C534 N530 1.389 . S
C534 C533 1.351 . S
C534 H539 0.930 . S
O535 Cu529 1.974 1_565 S
O535 C545 1.282 . S
C536 O537 1.261 . S
C536 O549 1.251 . S
O537 C536 1.261 . S
H538 C532 0.930 . S
H539 C534 0.930 . S
N540 Cu529 1.985 1_565 S
N540 C542 1.335 . S
N540 C543 1.390 . S
N541 C542 1.345 . S
N541 C544 1.336 . S
C542 N540 1.335 . S
C542 N541 1.345 . S
C542 H547 0.930 . S
C543 N540 1.390 . S
C543 C544 1.346 . S
C543 H548 0.930 . S
C544 N541 1.336 . S
C544 C543 1.346 . S
C544 H551 0.929 . S
C545 O535 1.282 . S
C545 O546 1.216 . S
O546 C545 1.216 . S
H547 C542 0.930 . S
H548 C543 0.930 . S
O549 Cu529 1.959 . S
O549 C536 1.251 . S
H550 C533 0.930 . S
H551 C544 0.929 . S
Cu552 N553 1.999 . S
Cu552 O558 1.974 . S
Cu552 N563 1.985 . S
Cu552 O572 1.959 . S
N553 Cu552 1.999 . S
N553 C555 1.263 . S
N553 C557 1.389 . S
N554 C555 1.358 . S
N554 C556 1.400 . S
C555 N553 1.263 . S
C555 N554 1.358 . S
C555 H561 0.930 . S
C556 N554 1.400 . S
C556 C557 1.351 . S
C556 H573 0.930 . S
C557 N553 1.389 . S
C557 C556 1.351 . S
C557 H562 0.930 . S
O558 Cu552 1.974 . S
O558 C568 1.282 . S
C559 O560 1.261 . S
C559 O572 1.251 . S
O560 C559 1.261 . S
H561 C555 0.930 . S
H562 C557 0.930 . S
N563 Cu552 1.985 . S
N563 C565 1.335 . S
N563 C566 1.390 . S
N564 C565 1.345 . S
N564 C567 1.336 . S
C565 N563 1.335 . S
C565 N564 1.345 . S
C565 H570 0.930 . S
C566 N563 1.390 . S
C566 C567 1.346 . S
C566 H571 0.930 . S
C567 N564 1.336 . S
C567 C566 1.346 . S
C567 H574 0.929 . S
C568 O558 1.282 . S
C568 O569 1.216 . S
O569 C568 1.216 . S
H570 C565 0.930 . S
H571 C566 0.930 . S
O572 Cu552 1.959 . S
O572 C559 1.251 . S
H573 C556 0.930 . S
H574 C567 0.929 . S
Cu575 N576 1.999 . S
Cu575 O581 1.974 1_655 S
Cu575 N586 1.985 1_655 S
Cu575 O595 1.959 . S
N576 Cu575 1.999 . S
N576 C578 1.263 . S
N576 C580 1.389 . S
N577 C578 1.358 . S
N577 C579 1.400 . S
C578 N576 1.263 . S
C578 N577 1.358 . S
C578 H584 0.930 . S
C579 N577 1.400 . S
C579 C580 1.351 . S
C579 H596 0.930 . S
C580 N576 1.389 . S
C580 C579 1.351 . S
C580 H585 0.930 . S
O581 Cu575 1.974 1_455 S
O581 C591 1.282 . S
C582 O583 1.261 . S
C582 O595 1.251 . S
O583 C582 1.261 . S
H584 C578 0.930 . S
H585 C580 0.930 . S
N586 Cu575 1.985 1_455 S
N586 C588 1.335 . S
N586 C589 1.390 . S
N587 C588 1.345 . S
N587 C590 1.336 . S
C588 N586 1.335 . S
C588 N587 1.345 . S
C588 H593 0.930 . S
C589 N586 1.390 . S
C589 C590 1.346 . S
C589 H594 0.930 . S
C590 N587 1.336 . S
C590 C589 1.346 . S
C590 H597 0.929 . S
C591 O581 1.282 . S
C591 O592 1.216 . S
O592 C591 1.216 . S
H593 C588 0.930 . S
H594 C589 0.930 . S
O595 Cu575 1.959 . S
O595 C582 1.251 . S
H596 C579 0.930 . S
H597 C590 0.929 . S
Cu598 N599 1.999 . S
Cu598 O604 1.974 . S
Cu598 N609 1.985 . S
Cu598 O618 1.959 . S
N599 Cu598 1.999 . S
N599 C601 1.263 . S
N599 C603 1.389 . S
N600 C601 1.358 . S
N600 C602 1.400 . S
C601 N599 1.263 . S
C601 N600 1.358 . S
C601 H607 0.930 . S
C602 N600 1.400 . S
C602 C603 1.351 . S
C602 H619 0.930 . S
C603 N599 1.389 . S
C603 C602 1.351 . S
C603 H608 0.930 . S
O604 Cu598 1.974 . S
O604 C614 1.282 . S
C605 O606 1.261 . S
C605 O618 1.251 . S
O606 C605 1.261 . S
H607 C601 0.930 . S
H608 C603 0.930 . S
N609 Cu598 1.985 . S
N609 C611 1.335 . S
N609 C612 1.390 . S
N610 C611 1.345 . S
N610 C613 1.336 . S
C611 N609 1.335 . S
C611 N610 1.345 . S
C611 H616 0.930 . S
C612 N609 1.390 . S
C612 C613 1.346 . S
C612 H617 0.930 . S
C613 N610 1.336 . S
C613 C612 1.346 . S
C613 H620 0.929 . S
C614 O604 1.282 . S
C614 O615 1.216 . S
O615 C614 1.216 . S
H616 C611 0.930 . S
H617 C612 0.930 . S
O618 Cu598 1.959 . S
O618 C605 1.251 . S
H619 C602 0.930 . S
H620 C613 0.929 . S
Cu621 N622 1.999 . S
Cu621 O627 1.974 1_455 S
Cu621 N632 1.985 1_455 S
Cu621 O641 1.959 . S
N622 Cu621 1.999 . S
N622 C624 1.263 . S
N622 C626 1.389 . S
N623 C624 1.358 . S
N623 C625 1.400 . S
C624 N622 1.263 . S
C624 N623 1.358 . S
C624 H630 0.930 . S
C625 N623 1.400 . S
C625 C626 1.351 . S
C625 H642 0.930 . S
C626 N622 1.389 . S
C626 C625 1.351 . S
C626 H631 0.930 . S
O627 Cu621 1.974 1_655 S
O627 C637 1.282 . S
C628 O629 1.261 . S
C628 O641 1.251 . S
O629 C628 1.261 . S
H630 C624 0.930 . S
H631 C626 0.930 . S
N632 Cu621 1.985 1_655 S
N632 C634 1.335 . S
N632 C635 1.390 . S
N633 C634 1.345 . S
N633 C636 1.336 . S
C634 N632 1.335 . S
C634 N633 1.345 . S
C634 H639 0.930 . S
C635 N632 1.390 . S
C635 C636 1.346 . S
C635 H640 0.930 . S
C636 N633 1.336 . S
C636 C635 1.346 . S
C636 H643 0.929 . S
C637 O627 1.282 . S
C637 O638 1.216 . S
O638 C637 1.216 . S
H639 C634 0.930 . S
H640 C635 0.930 . S
O641 Cu621 1.959 . S
O641 C628 1.251 . S
H642 C625 0.930 . S
H643 C636 0.929 . S
Cu644 N645 1.999 . S
Cu644 O650 1.974 . S
Cu644 N655 1.985 . S
Cu644 O664 1.959 . S
N645 Cu644 1.999 . S
N645 C647 1.263 . S
N645 C649 1.389 . S
N646 C647 1.358 . S
N646 C648 1.400 . S
C647 N645 1.263 . S
C647 N646 1.358 . S
C647 H653 0.930 . S
C648 N646 1.400 . S
C648 C649 1.351 . S
C648 H665 0.930 . S
C649 N645 1.389 . S
C649 C648 1.351 . S
C649 H654 0.930 . S
O650 Cu644 1.974 . S
O650 C660 1.282 . S
C651 O652 1.261 . S
C651 O664 1.251 . S
O652 C651 1.261 . S
H653 C647 0.930 . S
H654 C649 0.930 . S
N655 Cu644 1.985 . S
N655 C657 1.335 . S
N655 C658 1.390 . S
N656 C657 1.345 . S
N656 C659 1.336 . S
C657 N655 1.335 . S
C657 N656 1.345 . S
C657 H662 0.930 . S
C658 N655 1.390 . S
C658 C659 1.346 . S
C658 H663 0.930 . S
C659 N656 1.336 . S
C659 C658 1.346 . S
C659 H666 0.929 . S
C660 O650 1.282 . S
C660 O661 1.216 . S
O661 C660 1.216 . S
H662 C657 0.930 . S
H663 C658 0.930 . S
O664 Cu644 1.959 . S
O664 C651 1.251 . S
H665 C648 0.930 . S
H666 C659 0.929 . S
Cu667 N668 1.999 . S
Cu667 O673 1.974 . S
Cu667 N678 1.985 . S
Cu667 O687 1.959 . S
N668 Cu667 1.999 . S
N668 C670 1.263 . S
N668 C672 1.389 . S
N669 C670 1.358 . S
N669 C671 1.400 . S
C670 N668 1.263 . S
C670 N669 1.358 . S
C670 H676 0.930 . S
C671 N669 1.400 . S
C671 C672 1.351 . S
C671 H688 0.930 . S
C672 N668 1.389 . S
C672 C671 1.351 . S
C672 H677 0.930 . S
O673 Cu667 1.974 . S
O673 C683 1.282 . S
C674 O675 1.261 . S
C674 O687 1.251 . S
O675 C674 1.261 . S
H676 C670 0.930 . S
H677 C672 0.930 . S
N678 Cu667 1.985 . S
N678 C680 1.335 . S
N678 C681 1.390 . S
N679 C680 1.345 . S
N679 C682 1.336 . S
C680 N678 1.335 . S
C680 N679 1.345 . S
C680 H685 0.930 . S
C681 N678 1.390 . S
C681 C682 1.346 . S
C681 H686 0.930 . S
C682 N679 1.336 . S
C682 C681 1.346 . S
C682 H689 0.929 . S
C683 O673 1.282 . S
C683 O684 1.216 . S
O684 C683 1.216 . S
H685 C680 0.930 . S
H686 C681 0.930 . S
O687 Cu667 1.959 . S
O687 C674 1.251 . S
H688 C671 0.930 . S
H689 C682 0.929 . S
Cu690 N691 1.999 . S
Cu690 O696 1.974 . S
Cu690 N701 1.985 . S
Cu690 O710 1.959 . S
N691 Cu690 1.999 . S
N691 C693 1.263 . S
N691 C695 1.389 . S
N692 C693 1.358 . S
N692 C694 1.400 . S
C693 N691 1.263 . S
C693 N692 1.358 . S
C693 H699 0.930 . S
C694 N692 1.400 . S
C694 C695 1.351 . S
C694 H711 0.930 . S
C695 N691 1.389 . S
C695 C694 1.351 . S
C695 H700 0.930 . S
O696 Cu690 1.974 . S
O696 C706 1.282 . S
C697 O698 1.261 . S
C697 O710 1.251 . S
O698 C697 1.261 . S
H699 C693 0.930 . S
H700 C695 0.930 . S
N701 Cu690 1.985 . S
N701 C703 1.335 . S
N701 C704 1.390 . S
N702 C703 1.345 . S
N702 C705 1.336 . S
C703 N701 1.335 . S
C703 N702 1.345 . S
C703 H708 0.930 . S
C704 N701 1.390 . S
C704 C705 1.346 . S
C704 H709 0.930 . S
C705 N702 1.336 . S
C705 C704 1.346 . S
C705 H712 0.929 . S
C706 O696 1.282 . S
C706 O707 1.216 . S
O707 C706 1.216 . S
H708 C703 0.930 . S
H709 C704 0.930 . S
O710 Cu690 1.959 . S
O710 C697 1.251 . S
H711 C694 0.930 . S
H712 C705 0.929 . S
Cu713 N714 1.999 . S
Cu713 O719 1.974 . S
Cu713 N724 1.985 . S
Cu713 O733 1.959 . S
N714 Cu713 1.999 . S
N714 C716 1.263 . S
N714 C718 1.389 . S
N715 C716 1.358 . S
N715 C717 1.400 . S
C716 N714 1.263 . S
C716 N715 1.358 . S
C716 H722 0.930 . S
C717 N715 1.400 . S
C717 C718 1.351 . S
C717 H734 0.930 . S
C718 N714 1.389 . S
C718 C717 1.351 . S
C718 H723 0.930 . S
O719 Cu713 1.974 . S
O719 C729 1.282 . S
C720 O721 1.261 . S
C720 O733 1.251 . S
O721 C720 1.261 . S
H722 C716 0.930 . S
H723 C718 0.930 . S
N724 Cu713 1.985 . S
N724 C726 1.335 . S
N724 C727 1.390 . S
N725 C726 1.345 . S
N725 C728 1.336 . S
C726 N724 1.335 . S
C726 N725 1.345 . S
C726 H731 0.930 . S
C727 N724 1.390 . S
C727 C728 1.346 . S
C727 H732 0.930 . S
C728 N725 1.336 . S
C728 C727 1.346 . S
C728 H735 0.929 . S
C729 O719 1.282 . S
C729 O730 1.216 . S
O730 C729 1.216 . S
H731 C726 0.930 . S
H732 C727 0.930 . S
O733 Cu713 1.959 . S
O733 C720 1.251 . S
H734 C717 0.930 . S
H735 C728 0.929 . S
Cu736 N737 1.999 . S
Cu736 O742 1.974 . S
Cu736 N747 1.985 . S
Cu736 O756 1.959 . S
N737 Cu736 1.999 . S
N737 C739 1.263 . S
N737 C741 1.389 . S
N738 C739 1.358 . S
N738 C740 1.400 . S
C739 N737 1.263 . S
C739 N738 1.358 . S
C739 H745 0.930 . S
C740 N738 1.400 . S
C740 C741 1.351 . S
C740 H757 0.930 . S
C741 N737 1.389 . S
C741 C740 1.351 . S
C741 H746 0.930 . S
O742 Cu736 1.974 . S
O742 C752 1.282 . S
C743 O744 1.261 . S
C743 O756 1.251 . S
O744 C743 1.261 . S
H745 C739 0.930 . S
H746 C741 0.930 . S
N747 Cu736 1.985 . S
N747 C749 1.335 . S
N747 C750 1.390 . S
N748 C749 1.345 . S
N748 C751 1.336 . S
C749 N747 1.335 . S
C749 N748 1.345 . S
C749 H754 0.930 . S
C750 N747 1.390 . S
C750 C751 1.346 . S
C750 H755 0.930 . S
C751 N748 1.336 . S
C751 C750 1.346 . S
C751 H758 0.929 . S
C752 O742 1.282 . S
C752 O753 1.216 . S
O753 C752 1.216 . S
H754 C749 0.930 . S
H755 C750 0.930 . S
O756 Cu736 1.959 . S
O756 C743 1.251 . S
H757 C740 0.930 . S
H758 C751 0.929 . S
Cu759 N760 1.999 . S
Cu759 O765 1.974 . S
Cu759 N770 1.985 . S
Cu759 O779 1.959 . S
N760 Cu759 1.999 . S
N760 C762 1.263 . S
N760 C764 1.389 . S
N761 C762 1.358 . S
N761 C763 1.400 . S
C762 N760 1.263 . S
C762 N761 1.358 . S
C762 H768 0.930 . S
C763 N761 1.400 . S
C763 C764 1.351 . S
C763 H780 0.930 . S
C764 N760 1.389 . S
C764 C763 1.351 . S
C764 H769 0.930 . S
O765 Cu759 1.974 . S
O765 C775 1.282 . S
C766 O767 1.261 . S
C766 O779 1.251 . S
O767 C766 1.261 . S
H768 C762 0.930 . S
H769 C764 0.930 . S
N770 Cu759 1.985 . S
N770 C772 1.335 . S
N770 C773 1.390 . S
N771 C772 1.345 . S
N771 C774 1.336 . S
C772 N770 1.335 . S
C772 N771 1.345 . S
C772 H777 0.930 . S
C773 N770 1.390 . S
C773 C774 1.346 . S
C773 H778 0.930 . S
C774 N771 1.336 . S
C774 C773 1.346 . S
C774 H781 0.929 . S
C775 O765 1.282 . S
C775 O776 1.216 . S
O776 C775 1.216 . S
H777 C772 0.930 . S
H778 C773 0.930 . S
O779 Cu759 1.959 . S
O779 C766 1.251 . S
H780 C763 0.930 . S
H781 C774 0.929 . S
Cu782 N783 1.999 . S
Cu782 O788 1.974 . S
Cu782 N793 1.985 . S
Cu782 O802 1.959 . S
N783 Cu782 1.999 . S
N783 C785 1.263 . S
N783 C787 1.389 . S
N784 C785 1.358 . S
N784 C786 1.400 . S
C785 N783 1.263 . S
C785 N784 1.358 . S
C785 H791 0.930 . S
C786 N784 1.400 . S
C786 C787 1.351 . S
C786 H803 0.930 . S
C787 N783 1.389 . S
C787 C786 1.351 . S
C787 H792 0.930 . S
O788 Cu782 1.974 . S
O788 C798 1.282 . S
C789 O790 1.261 . S
C789 O802 1.251 . S
O790 C789 1.261 . S
H791 C785 0.930 . S
H792 C787 0.930 . S
N793 Cu782 1.985 . S
N793 C795 1.335 . S
N793 C796 1.390 . S
N794 C795 1.345 . S
N794 C797 1.336 . S
C795 N793 1.335 . S
C795 N794 1.345 . S
C795 H800 0.930 . S
C796 N793 1.390 . S
C796 C797 1.346 . S
C796 H801 0.930 . S
C797 N794 1.336 . S
C797 C796 1.346 . S
C797 H804 0.929 . S
C798 O788 1.282 . S
C798 O799 1.216 . S
O799 C798 1.216 . S
H800 C795 0.930 . S
H801 C796 0.930 . S
O802 Cu782 1.959 . S
O802 C789 1.251 . S
H803 C786 0.930 . S
H804 C797 0.929 . S
Cu805 N806 1.999 . S
Cu805 O811 1.974 . S
Cu805 N816 1.985 . S
Cu805 O825 1.959 . S
N806 Cu805 1.999 . S
N806 C808 1.263 . S
N806 C810 1.389 . S
N807 C808 1.358 . S
N807 C809 1.400 . S
C808 N806 1.263 . S
C808 N807 1.358 . S
C808 H814 0.930 . S
C809 N807 1.400 . S
C809 C810 1.351 . S
C809 H826 0.930 . S
C810 N806 1.389 . S
C810 C809 1.351 . S
C810 H815 0.930 . S
O811 Cu805 1.974 . S
O811 C821 1.282 . S
C812 O813 1.261 . S
C812 O825 1.251 . S
O813 C812 1.261 . S
H814 C808 0.930 . S
H815 C810 0.930 . S
N816 Cu805 1.985 . S
N816 C818 1.335 . S
N816 C819 1.390 . S
N817 C818 1.345 . S
N817 C820 1.336 . S
C818 N816 1.335 . S
C818 N817 1.345 . S
C818 H823 0.930 . S
C819 N816 1.390 . S
C819 C820 1.346 . S
C819 H824 0.930 . S
C820 N817 1.336 . S
C820 C819 1.346 . S
C820 H827 0.929 . S
C821 O811 1.282 . S
C821 O822 1.216 . S
O822 C821 1.216 . S
H823 C818 0.930 . S
H824 C819 0.930 . S
O825 Cu805 1.959 . S
O825 C812 1.251 . S
H826 C809 0.930 . S
H827 C820 0.929 . S
Cu828 N829 1.999 . S
Cu828 O834 1.974 . S
Cu828 N839 1.985 . S
Cu828 O848 1.959 . S
N829 Cu828 1.999 . S
N829 C831 1.263 . S
N829 C833 1.389 . S
N830 C831 1.358 . S
N830 C832 1.400 . S
C831 N829 1.263 . S
C831 N830 1.358 . S
C831 H837 0.930 . S
C832 N830 1.400 . S
C832 C833 1.351 . S
C832 H849 0.930 . S
C833 N829 1.389 . S
C833 C832 1.351 . S
C833 H838 0.930 . S
O834 Cu828 1.974 . S
O834 C844 1.282 . S
C835 O836 1.261 . S
C835 O848 1.251 . S
O836 C835 1.261 . S
H837 C831 0.930 . S
H838 C833 0.930 . S
N839 Cu828 1.985 . S
N839 C841 1.335 . S
N839 C842 1.390 . S
N840 C841 1.345 . S
N840 C843 1.336 . S
C841 N839 1.335 . S
C841 N840 1.345 . S
C841 H846 0.930 . S
C842 N839 1.390 . S
C842 C843 1.346 . S
C842 H847 0.930 . S
C843 N840 1.336 . S
C843 C842 1.346 . S
C843 H850 0.929 . S
C844 O834 1.282 . S
C844 O845 1.216 . S
O845 C844 1.216 . S
H846 C841 0.930 . S
H847 C842 0.930 . S
O848 Cu828 1.959 . S
O848 C835 1.251 . S
H849 C832 0.930 . S
H850 C843 0.929 . S
Cu851 N852 1.999 . S
Cu851 O857 1.974 . S
Cu851 N862 1.985 . S
Cu851 O871 1.959 . S
N852 Cu851 1.999 . S
N852 C854 1.263 . S
N852 C856 1.389 . S
N853 C854 1.358 . S
N853 C855 1.400 . S
C854 N852 1.263 . S
C854 N853 1.358 . S
C854 H860 0.930 . S
C855 N853 1.400 . S
C855 C856 1.351 . S
C855 H872 0.930 . S
C856 N852 1.389 . S
C856 C855 1.351 . S
C856 H861 0.930 . S
O857 Cu851 1.974 . S
O857 C867 1.282 . S
C858 O859 1.261 . S
C858 O871 1.251 . S
O859 C858 1.261 . S
H860 C854 0.930 . S
H861 C856 0.930 . S
N862 Cu851 1.985 . S
N862 C864 1.335 . S
N862 C865 1.390 . S
N863 C864 1.345 . S
N863 C866 1.336 . S
C864 N862 1.335 . S
C864 N863 1.345 . S
C864 H869 0.930 . S
C865 N862 1.390 . S
C865 C866 1.346 . S
C865 H870 0.930 . S
C866 N863 1.336 . S
C866 C865 1.346 . S
C866 H873 0.929 . S
C867 O857 1.282 . S
C867 O868 1.216 . S
O868 C867 1.216 . S
H869 C864 0.930 . S
H870 C865 0.930 . S
O871 Cu851 1.959 . S
O871 C858 1.251 . S
H872 C855 0.930 . S
H873 C866 0.929 . S
Cu874 N875 1.999 . S
Cu874 O880 1.974 . S
Cu874 N885 1.985 . S
Cu874 O894 1.959 . S
N875 Cu874 1.999 . S
N875 C877 1.263 . S
N875 C879 1.389 . S
N876 C877 1.358 . S
N876 C878 1.400 . S
C877 N875 1.263 . S
C877 N876 1.358 . S
C877 H883 0.930 . S
C878 N876 1.400 . S
C878 C879 1.351 . S
C878 H895 0.930 . S
C879 N875 1.389 . S
C879 C878 1.351 . S
C879 H884 0.930 . S
O880 Cu874 1.974 . S
O880 C890 1.282 . S
C881 O882 1.261 . S
C881 O894 1.251 . S
O882 C881 1.261 . S
H883 C877 0.930 . S
H884 C879 0.930 . S
N885 Cu874 1.985 . S
N885 C887 1.335 . S
N885 C888 1.390 . S
N886 C887 1.345 . S
N886 C889 1.336 . S
C887 N885 1.335 . S
C887 N886 1.345 . S
C887 H892 0.930 . S
C888 N885 1.390 . S
C888 C889 1.346 . S
C888 H893 0.930 . S
C889 N886 1.336 . S
C889 C888 1.346 . S
C889 H896 0.929 . S
C890 O880 1.282 . S
C890 O891 1.216 . S
O891 C890 1.216 . S
H892 C887 0.930 . S
H893 C888 0.930 . S
O894 Cu874 1.959 . S
O894 C881 1.251 . S
H895 C878 0.930 . S
H896 C889 0.929 . S
Cu897 N898 1.999 . S
Cu897 O903 1.974 . S
Cu897 N908 1.985 . S
Cu897 O917 1.959 . S
N898 Cu897 1.999 . S
N898 C900 1.263 . S
N898 C902 1.389 . S
N899 C900 1.358 . S
N899 C901 1.400 . S
C900 N898 1.263 . S
C900 N899 1.358 . S
C900 H906 0.930 . S
C901 N899 1.400 . S
C901 C902 1.351 . S
C901 H918 0.930 . S
C902 N898 1.389 . S
C902 C901 1.351 . S
C902 H907 0.930 . S
O903 Cu897 1.974 . S
O903 C913 1.282 . S
C904 O905 1.261 . S
C904 O917 1.251 . S
O905 C904 1.261 . S
H906 C900 0.930 . S
H907 C902 0.930 . S
N908 Cu897 1.985 . S
N908 C910 1.335 . S
N908 C911 1.390 . S
N909 C910 1.345 . S
N909 C912 1.336 . S
C910 N908 1.335 . S
C910 N909 1.345 . S
C910 H915 0.930 . S
C911 N908 1.390 . S
C911 C912 1.346 . S
C911 H916 0.930 . S
C912 N909 1.336 . S
C912 C911 1.346 . S
C912 H919 0.929 . S
C913 O903 1.282 . S
C913 O914 1.216 . S
O914 C913 1.216 . S
H915 C910 0.930 . S
H916 C911 0.930 . S
O917 Cu897 1.959 . S
O917 C904 1.251 . S
H918 C901 0.930 . S
H919 C912 0.929 . S
Cu920 N921 1.999 . S
Cu920 O926 1.974 . S
Cu920 N931 1.985 . S
Cu920 O940 1.959 . S
N921 Cu920 1.999 . S
N921 C923 1.263 . S
N921 C925 1.389 . S
N922 C923 1.358 . S
N922 C924 1.400 . S
C923 N921 1.263 . S
C923 N922 1.358 . S
C923 H929 0.930 . S
C924 N922 1.400 . S
C924 C925 1.351 . S
C924 H941 0.930 . S
C925 N921 1.389 . S
C925 C924 1.351 . S
C925 H930 0.930 . S
O926 Cu920 1.974 . S
O926 C936 1.282 . S
C927 O928 1.261 . S
C927 O940 1.251 . S
O928 C927 1.261 . S
H929 C923 0.930 . S
H930 C925 0.930 . S
N931 Cu920 1.985 . S
N931 C933 1.335 . S
N931 C934 1.390 . S
N932 C933 1.345 . S
N932 C935 1.336 . S
C933 N931 1.335 . S
C933 N932 1.345 . S
C933 H938 0.930 . S
C934 N931 1.390 . S
C934 C935 1.346 . S
C934 H939 0.930 . S
C935 N932 1.336 . S
C935 C934 1.346 . S
C935 H942 0.929 . S
C936 O926 1.282 . S
C936 O937 1.216 . S
O937 C936 1.216 . S
H938 C933 0.930 . S
H939 C934 0.930 . S
O940 Cu920 1.959 . S
O940 C927 1.251 . S
H941 C924 0.930 . S
H942 C935 0.929 . S
Cu943 N944 1.999 . S
Cu943 O949 1.974 . S
Cu943 N954 1.985 . S
Cu943 O963 1.959 . S
N944 Cu943 1.999 . S
N944 C946 1.263 . S
N944 C948 1.389 . S
N945 C946 1.358 . S
N945 C947 1.400 . S
C946 N944 1.263 . S
C946 N945 1.358 . S
C946 H952 0.930 . S
C947 N945 1.400 . S
C947 C948 1.351 . S
C947 H964 0.930 . S
C948 N944 1.389 . S
C948 C947 1.351 . S
C948 H953 0.930 . S
O949 Cu943 1.974 . S
O949 C959 1.282 . S
C950 O951 1.261 . S
C950 O963 1.251 . S
O951 C950 1.261 . S
H952 C946 0.930 . S
H953 C948 0.930 . S
N954 Cu943 1.985 . S
N954 C956 1.335 . S
N954 C957 1.390 . S
N955 C956 1.345 . S
N955 C958 1.336 . S
C956 N954 1.335 . S
C956 N955 1.345 . S
C956 H961 0.930 . S
C957 N954 1.390 . S
C957 C958 1.346 . S
C957 H962 0.930 . S
C958 N955 1.336 . S
C958 C957 1.346 . S
C958 H965 0.929 . S
C959 O949 1.282 . S
C959 O960 1.216 . S
O960 C959 1.216 . S
H961 C956 0.930 . S
H962 C957 0.930 . S
O963 Cu943 1.959 . S
O963 C950 1.251 . S
H964 C947 0.930 . S
H965 C958 0.929 . S
Cu966 N967 1.999 . S
Cu966 O972 1.974 1_545 S
Cu966 N977 1.985 1_545 S
Cu966 O986 1.959 . S
N967 Cu966 1.999 . S
N967 C969 1.263 . S
N967 C971 1.389 . S
N968 C969 1.358 . S
N968 C970 1.400 . S
C969 N967 1.263 . S
C969 N968 1.358 . S
C969 H975 0.930 . S
C970 N968 1.400 . S
C970 C971 1.351 . S
C970 H987 0.930 . S
C971 N967 1.389 . S
C971 C970 1.351 . S
C971 H976 0.930 . S
O972 Cu966 1.974 1_565 S
O972 C982 1.282 . S
C973 O974 1.261 . S
C973 O986 1.251 . S
O974 C973 1.261 . S
H975 C969 0.930 . S
H976 C971 0.930 . S
N977 Cu966 1.985 1_565 S
N977 C979 1.335 . S
N977 C980 1.390 . S
N978 C979 1.345 . S
N978 C981 1.336 . S
C979 N977 1.335 . S
C979 N978 1.345 . S
C979 H984 0.930 . S
C980 N977 1.390 . S
C980 C981 1.346 . S
C980 H985 0.930 . S
C981 N978 1.336 . S
C981 C980 1.346 . S
C981 H988 0.929 . S
C982 O972 1.282 . S
C982 O983 1.216 . S
O983 C982 1.216 . S
H984 C979 0.930 . S
H985 C980 0.930 . S
O986 Cu966 1.959 . S
O986 C973 1.251 . S
H987 C970 0.930 . S
H988 C981 0.929 . S
Cu989 N990 1.999 . S
Cu989 O995 1.974 . S
Cu989 N1000 1.985 . S
Cu989 O1009 1.959 . S
N990 Cu989 1.999 . S
N990 C992 1.263 . S
N990 C994 1.389 . S
N991 C992 1.358 . S
N991 C993 1.400 . S
C992 N990 1.263 . S
C992 N991 1.358 . S
C992 H998 0.930 . S
C993 N991 1.400 . S
C993 C994 1.351 . S
C993 H1010 0.930 . S
C994 N990 1.389 . S
C994 C993 1.351 . S
C994 H999 0.930 . S
O995 Cu989 1.974 . S
O995 C1005 1.282 . S
C996 O997 1.261 . S
C996 O1009 1.251 . S
O997 C996 1.261 . S
H998 C992 0.930 . S
H999 C994 0.930 . S
N1000 Cu989 1.985 . S
N1000 C1002 1.335 . S
N1000 C1003 1.390 . S
N1001 C1002 1.345 . S
N1001 C1004 1.336 . S
C1002 N1000 1.335 . S
C1002 N1001 1.345 . S
C1002 H1007 0.930 . S
C1003 N1000 1.390 . S
C1003 C1004 1.346 . S
C1003 H1008 0.930 . S
C1004 N1001 1.336 . S
C1004 C1003 1.346 . S
C1004 H1011 0.929 . S
C1005 O995 1.282 . S
C1005 O1006 1.216 . S
O1006 C1005 1.216 . S
H1007 C1002 0.930 . S
H1008 C1003 0.930 . S
O1009 Cu989 1.959 . S
O1009 C996 1.251 . S
H1010 C993 0.930 . S
H1011 C1004 0.929 . S
Cu1012 N1013 1.999 . S
Cu1012 O1018 1.974 1_565 S
Cu1012 N1023 1.985 1_565 S
Cu1012 O1032 1.959 . S
N1013 Cu1012 1.999 . S
N1013 C1015 1.263 . S
N1013 C1017 1.389 . S
N1014 C1015 1.358 . S
N1014 C1016 1.400 . S
C1015 N1013 1.263 . S
C1015 N1014 1.358 . S
C1015 H1021 0.930 . S
C1016 N1014 1.400 . S
C1016 C1017 1.351 . S
C1016 H1033 0.930 . S
C1017 N1013 1.389 . S
C1017 C1016 1.351 . S
C1017 H1022 0.930 . S
O1018 Cu1012 1.974 1_545 S
O1018 C1028 1.282 . S
C1019 O1020 1.261 . S
C1019 O1032 1.251 . S
O1020 C1019 1.261 . S
H1021 C1015 0.930 . S
H1022 C1017 0.930 . S
N1023 Cu1012 1.985 1_545 S
N1023 C1025 1.335 . S
N1023 C1026 1.390 . S
N1024 C1025 1.345 . S
N1024 C1027 1.336 . S
C1025 N1023 1.335 . S
C1025 N1024 1.345 . S
C1025 H1030 0.930 . S
C1026 N1023 1.390 . S
C1026 C1027 1.346 . S
C1026 H1031 0.930 . S
C1027 N1024 1.336 . S
C1027 C1026 1.346 . S
C1027 H1034 0.929 . S
C1028 O1018 1.282 . S
C1028 O1029 1.216 . S
O1029 C1028 1.216 . S
H1030 C1025 0.930 . S
H1031 C1026 0.930 . S
O1032 Cu1012 1.959 . S
O1032 C1019 1.251 . S
H1033 C1016 0.930 . S
H1034 C1027 0.929 . S
Cu1035 N1036 1.999 . S
Cu1035 O1041 1.974 . S
Cu1035 N1046 1.985 . S
Cu1035 O1055 1.959 . S
N1036 Cu1035 1.999 . S
N1036 C1038 1.263 . S
N1036 C1040 1.389 . S
N1037 C1038 1.358 . S
N1037 C1039 1.400 . S
C1038 N1036 1.263 . S
C1038 N1037 1.358 . S
C1038 H1044 0.930 . S
C1039 N1037 1.400 . S
C1039 C1040 1.351 . S
C1039 H1056 0.930 . S
C1040 N1036 1.389 . S
C1040 C1039 1.351 . S
C1040 H1045 0.930 . S
O1041 Cu1035 1.974 . S
O1041 C1051 1.282 . S
C1042 O1043 1.261 . S
C1042 O1055 1.251 . S
O1043 C1042 1.261 . S
H1044 C1038 0.930 . S
H1045 C1040 0.930 . S
N1046 Cu1035 1.985 . S
N1046 C1048 1.335 . S
N1046 C1049 1.390 . S
N1047 C1048 1.345 . S
N1047 C1050 1.336 . S
C1048 N1046 1.335 . S
C1048 N1047 1.345 . S
C1048 H1053 0.930 . S
C1049 N1046 1.390 . S
C1049 C1050 1.346 . S
C1049 H1054 0.930 . S
C1050 N1047 1.336 . S
C1050 C1049 1.346 . S
C1050 H1057 0.929 . S
C1051 O1041 1.282 . S
C1051 O1052 1.216 . S
O1052 C1051 1.216 . S
H1053 C1048 0.930 . S
H1054 C1049 0.930 . S
O1055 Cu1035 1.959 . S
O1055 C1042 1.251 . S
H1056 C1039 0.930 . S
H1057 C1050 0.929 . S
Cu1058 N1059 1.999 . S
Cu1058 O1064 1.974 1_565 S
Cu1058 N1069 1.985 1_565 S
Cu1058 O1078 1.959 . S
N1059 Cu1058 1.999 . S
N1059 C1061 1.263 . S
N1059 C1063 1.389 . S
N1060 C1061 1.358 . S
N1060 C1062 1.400 . S
C1061 N1059 1.263 . S
C1061 N1060 1.358 . S
C1061 H1067 0.930 . S
C1062 N1060 1.400 . S
C1062 C1063 1.351 . S
C1062 H1079 0.930 . S
C1063 N1059 1.389 . S
C1063 C1062 1.351 . S
C1063 H1068 0.930 . S
O1064 Cu1058 1.974 1_545 S
O1064 C1074 1.282 . S
C1065 O1066 1.261 . S
C1065 O1078 1.251 . S
O1066 C1065 1.261 . S
H1067 C1061 0.930 . S
H1068 C1063 0.930 . S
N1069 Cu1058 1.985 1_545 S
N1069 C1071 1.335 . S
N1069 C1072 1.390 . S
N1070 C1071 1.345 . S
N1070 C1073 1.336 . S
C1071 N1069 1.335 . S
C1071 N1070 1.345 . S
C1071 H1076 0.930 . S
C1072 N1069 1.390 . S
C1072 C1073 1.346 . S
C1072 H1077 0.930 . S
C1073 N1070 1.336 . S
C1073 C1072 1.346 . S
C1073 H1080 0.929 . S
C1074 O1064 1.282 . S
C1074 O1075 1.216 . S
O1075 C1074 1.216 . S
H1076 C1071 0.930 . S
H1077 C1072 0.930 . S
O1078 Cu1058 1.959 . S
O1078 C1065 1.251 . S
H1079 C1062 0.930 . S
H1080 C1073 0.929 . S
Cu1081 N1082 1.999 . S
Cu1081 O1087 1.974 . S
Cu1081 N1092 1.985 . S
Cu1081 O1101 1.959 . S
N1082 Cu1081 1.999 . S
N1082 C1084 1.263 . S
N1082 C1086 1.389 . S
N1083 C1084 1.358 . S
N1083 C1085 1.400 . S
C1084 N1082 1.263 . S
C1084 N1083 1.358 . S
C1084 H1090 0.930 . S
C1085 N1083 1.400 . S
C1085 C1086 1.351 . S
C1085 H1102 0.930 . S
C1086 N1082 1.389 . S
C1086 C1085 1.351 . S
C1086 H1091 0.930 . S
O1087 Cu1081 1.974 . S
O1087 C1097 1.282 . S
C1088 O1089 1.261 . S
C1088 O1101 1.251 . S
O1089 C1088 1.261 . S
H1090 C1084 0.930 . S
H1091 C1086 0.930 . S
N1092 Cu1081 1.985 . S
N1092 C1094 1.335 . S
N1092 C1095 1.390 . S
N1093 C1094 1.345 . S
N1093 C1096 1.336 . S
C1094 N1092 1.335 . S
C1094 N1093 1.345 . S
C1094 H1099 0.930 . S
C1095 N1092 1.390 . S
C1095 C1096 1.346 . S
C1095 H1100 0.930 . S
C1096 N1093 1.336 . S
C1096 C1095 1.346 . S
C1096 H1103 0.929 . S
C1097 O1087 1.282 . S
C1097 O1098 1.216 . S
O1098 C1097 1.216 . S
H1099 C1094 0.930 . S
H1100 C1095 0.930 . S
O1101 Cu1081 1.959 . S
O1101 C1088 1.251 . S
H1102 C1085 0.930 . S
H1103 C1096 0.929 . S
H1104 C1116 0.930 . S
H1105 C1118 0.930 . S
H1106 C1119 0.930 . S
H1107 C1123 0.959 . S
H1108 C1123 0.959 . S
H1109 C1123 0.961 . S
H1110 C1124 0.960 . S
H1111 C1124 0.961 . S
H1112 C1124 0.959 . S
H1113 C1127 0.929 . S
H1114 C1128 0.931 . S
H1115 C1130 0.930 . S
C1116 H1104 0.930 . S
C1116 C1117 1.399 . S
C1116 C1121 1.399 . S
C1117 C1116 1.399 . S
C1117 C1118 1.376 . S
C1118 H1105 0.930 . S
C1118 C1117 1.376 . S
C1118 C1119 1.388 . S
C1119 H1106 0.930 . S
C1119 C1118 1.388 . S
C1119 C1120 1.390 . S
C1120 C1119 1.390 . S
C1120 C1121 1.394 . S
C1120 C1126 1.465 . S
C1121 C1116 1.399 . S
C1121 C1120 1.394 . S
C1121 C1122 1.516 . S
C1122 C1121 1.516 . S
C1122 C1123 1.502 . S
C1122 C1124 1.561 . S
C1122 C1125 1.526 . S
C1123 H1107 0.959 . S
C1123 H1108 0.959 . S
C1123 H1109 0.961 . S
C1123 C1122 1.502 . S
C1124 H1110 0.960 . S
C1124 H1111 0.961 . S
C1124 H1112 0.959 . S
C1124 C1122 1.561 . S
C1125 C1122 1.526 . S
C1125 C1126 1.396 . S
C1125 C1130 1.390 . S
C1126 C1120 1.465 . S
C1126 C1125 1.396 . S
C1126 C1127 1.399 . S
C1127 H1113 0.929 . S
C1127 C1126 1.399 . S
C1127 C1128 1.385 . S
C1128 H1114 0.931 . S
C1128 C1127 1.385 . S
C1128 C1129 1.389 . S
C1129 C1128 1.389 . S
C1129 C1130 1.387 . S
C1130 H1115 0.930 . S
C1130 C1125 1.390 . S
C1130 C1129 1.387 . S
H1131 C1143 0.930 . S
H1132 C1145 0.930 . S
H1133 C1146 0.930 . S
H1134 C1150 0.957 1_554 S
H1135 C1150 0.959 . S
H1136 C1150 0.961 1_554 S
H1137 C1151 0.960 . S
H1138 C1151 0.961 1_556 S
H1139 C1151 0.959 . S
H1140 C1154 0.929 . S
H1141 C1155 0.931 . S
H1142 C1157 0.930 . S
C1143 H1131 0.930 . S
C1143 C1144 1.399 . S
C1143 C1148 1.399 . S
C1144 C1143 1.399 . S
C1144 C1145 1.376 . S
C1145 H1132 0.930 . S
C1145 C1144 1.376 . S
C1145 C1146 1.388 . S
C1146 H1133 0.930 . S
C1146 C1145 1.388 . S
C1146 C1147 1.390 . S
C1147 C1146 1.390 . S
C1147 C1148 1.394 . S
C1147 C1153 1.465 . S
C1148 C1143 1.399 . S
C1148 C1147 1.394 . S
C1148 C1149 1.516 . S
C1149 C1148 1.516 . S
C1149 C1150 1.502 1_554 S
C1149 C1151 1.561 . S
C1149 C1152 1.526 1_554 S
C1150 H1134 0.957 1_556 S
C1150 H1135 0.959 . S
C1150 H1136 0.961 1_556 S
C1150 C1149 1.502 1_556 S
C1151 H1137 0.960 . S
C1151 H1138 0.961 1_554 S
C1151 H1139 0.959 . S
C1151 C1149 1.561 . S
C1152 C1149 1.526 1_556 S
C1152 C1153 1.396 1_556 S
C1152 C1157 1.390 . S
C1153 C1147 1.465 . S
C1153 C1152 1.396 1_554 S
C1153 C1154 1.399 . S
C1154 H1140 0.929 . S
C1154 C1153 1.399 . S
C1154 C1155 1.385 1_554 S
C1155 H1141 0.931 . S
C1155 C1154 1.385 1_556 S
C1155 C1156 1.389 . S
C1156 C1155 1.389 . S
C1156 C1157 1.387 . S
C1157 H1142 0.930 . S
C1157 C1152 1.390 . S
C1157 C1156 1.387 . S
H1158 C1170 0.930 . S
H1159 C1172 0.930 . S
H1160 C1173 0.930 . S
H1161 C1177 0.959 . S
H1162 C1177 0.959 . S
H1163 C1177 0.961 . S
H1164 C1178 0.960 . S
H1165 C1178 0.961 . S
H1166 C1178 0.959 . S
H1167 C1181 0.929 . S
H1168 C1182 0.931 . S
H1169 C1184 0.930 . S
C1170 H1158 0.930 . S
C1170 C1171 1.399 . S
C1170 C1175 1.399 . S
C1171 C1170 1.399 . S
C1171 C1172 1.376 . S
C1172 H1159 0.930 . S
C1172 C1171 1.376 . S
C1172 C1173 1.388 . S
C1173 H1160 0.930 . S
C1173 C1172 1.388 . S
C1173 C1174 1.390 . S
C1174 C1173 1.390 . S
C1174 C1175 1.394 . S
C1174 C1180 1.465 . S
C1175 C1170 1.399 . S
C1175 C1174 1.394 . S
C1175 C1176 1.516 . S
C1176 C1175 1.516 . S
C1176 C1177 1.502 . S
C1176 C1178 1.561 . S
C1176 C1179 1.526 . S
C1177 H1161 0.959 . S
C1177 H1162 0.959 . S
C1177 H1163 0.961 . S
C1177 C1176 1.502 . S
C1178 H1164 0.960 . S
C1178 H1165 0.961 . S
C1178 H1166 0.959 . S
C1178 C1176 1.561 . S
C1179 C1176 1.526 . S
C1179 C1180 1.396 . S
C1179 C1184 1.390 . S
C1180 C1174 1.465 . S
C1180 C1179 1.396 . S
C1180 C1181 1.399 . S
C1181 H1167 0.929 . S
C1181 C1180 1.399 . S
C1181 C1182 1.385 . S
C1182 H1168 0.931 . S
C1182 C1181 1.385 . S
C1182 C1183 1.389 . S
C1183 C1182 1.389 . S
C1183 C1184 1.387 . S
C1184 H1169 0.930 . S
C1184 C1179 1.390 . S
C1184 C1183 1.387 . S
H1185 C1197 0.930 . S
H1186 C1199 0.930 . S
H1187 C1200 0.954 . S
H1188 C1204 0.959 . S
H1189 C1204 0.959 . S
H1190 C1204 0.961 . S
H1191 C1205 0.960 1_556 S
H1192 C1205 0.961 . S
H1193 C1205 0.962 . S
H1194 C1208 0.929 . S
H1195 C1209 0.931 . S
H1196 C1211 0.930 . S
C1197 H1185 0.930 . S
C1197 C1198 1.399 . S
C1197 C1202 1.358 1_556 S
C1198 C1197 1.399 . S
C1198 C1199 1.376 . S
C1199 H1186 0.930 . S
C1199 C1198 1.376 . S
C1199 C1200 1.343 1_556 S
C1200 H1187 0.954 . S
C1200 C1199 1.343 1_554 S
C1200 C1201 1.413 . S
C1201 C1200 1.413 . S
C1201 C1202 1.415 . S
C1201 C1207 1.465 . S
C1202 C1197 1.358 1_554 S
C1202 C1201 1.415 . S
C1202 C1203 1.542 . S
C1203 C1202 1.542 . S
C1203 C1204 1.502 . S
C1203 C1205 1.561 . S
C1203 C1206 1.526 . S
C1204 H1188 0.959 . S
C1204 H1189 0.959 . S
C1204 H1190 0.961 . S
C1204 C1203 1.502 . S
C1205 H1191 0.960 1_554 S
C1205 H1192 0.961 . S
C1205 H1193 0.962 . S
C1205 C1203 1.561 . S
C1206 C1203 1.526 . S
C1206 C1207 1.396 . S
C1206 C1211 1.390 . S
C1207 C1201 1.465 . S
C1207 C1206 1.396 . S
C1207 C1208 1.399 . S
C1208 H1194 0.929 . S
C1208 C1207 1.399 . S
C1208 C1209 1.385 . S
C1209 H1195 0.931 . S
C1209 C1208 1.385 . S
C1209 C1210 1.389 . S
C1210 C1209 1.389 . S
C1210 C1211 1.387 . S
C1211 H1196 0.930 . S
C1211 C1206 1.390 . S
C1211 C1210 1.387 . S
H1212 C1224 0.930 . S
H1213 C1226 0.930 . S
H1214 C1227 0.930 . S
H1215 C1231 0.959 . S
H1216 C1231 0.959 . S
H1217 C1231 0.961 . S
H1218 C1232 0.960 . S
H1219 C1232 0.961 . S
H1220 C1232 0.959 . S
H1221 C1235 0.929 . S
H1222 C1236 0.931 . S
H1223 C1238 0.930 . S
C1224 H1212 0.930 . S
C1224 C1225 1.399 . S
C1224 C1229 1.399 . S
C1225 C1224 1.399 . S
C1225 C1226 1.376 . S
C1226 H1213 0.930 . S
C1226 C1225 1.376 . S
C1226 C1227 1.388 . S
C1227 H1214 0.930 . S
C1227 C1226 1.388 . S
C1227 C1228 1.390 . S
C1228 C1227 1.390 . S
C1228 C1229 1.394 . S
C1228 C1234 1.465 . S
C1229 C1224 1.399 . S
C1229 C1228 1.394 . S
C1229 C1230 1.516 . S
C1230 C1229 1.516 . S
C1230 C1231 1.502 . S
C1230 C1232 1.561 . S
C1230 C1233 1.526 . S
C1231 H1215 0.959 . S
C1231 H1216 0.959 . S
C1231 H1217 0.961 . S
C1231 C1230 1.502 . S
C1232 H1218 0.960 . S
C1232 H1219 0.961 . S
C1232 H1220 0.959 . S
C1232 C1230 1.561 . S
C1233 C1230 1.526 . S
C1233 C1234 1.396 . S
C1233 C1238 1.390 . S
C1234 C1228 1.465 . S
C1234 C1233 1.396 . S
C1234 C1235 1.399 . S
C1235 H1221 0.929 . S
C1235 C1234 1.399 . S
C1235 C1236 1.385 . S
C1236 H1222 0.931 . S
C1236 C1235 1.385 . S
C1236 C1237 1.389 . S
C1237 C1236 1.389 . S
C1237 C1238 1.387 . S
C1238 H1223 0.930 . S
C1238 C1233 1.390 . S
C1238 C1237 1.387 . S
H1239 C1251 0.930 . S
H1240 C1253 0.930 . S
H1241 C1254 0.930 . S
H1242 C1258 0.959 . S
H1243 C1258 0.959 . S
H1244 C1258 0.961 . S
H1245 C1259 0.917 1_554 S
H1246 C1259 0.986 . S
H1247 C1259 0.956 1_554 S
H1248 C1262 0.929 . S
H1249 C1263 0.931 . S
H1250 C1265 0.930 . S
C1251 H1239 0.930 . S
C1251 C1252 1.399 . S
C1251 C1256 1.385 1_554 S
C1252 C1251 1.399 . S
C1252 C1253 1.376 . S
C1253 H1240 0.930 . S
C1253 C1252 1.376 . S
C1253 C1254 1.388 1_554 S
C1254 H1241 0.930 . S
C1254 C1253 1.388 1_556 S
C1254 C1255 1.390 . S
C1255 C1254 1.390 . S
C1255 C1256 1.402 . S
C1255 C1261 1.465 . S
C1256 C1251 1.385 1_556 S
C1256 C1255 1.402 . S
C1256 C1257 1.525 . S
C1257 C1256 1.525 . S
C1257 C1258 1.502 . S
C1257 C1259 1.585 . S
C1257 C1260 1.526 . S
C1258 H1242 0.959 . S
C1258 H1243 0.959 . S
C1258 H1244 0.961 . S
C1258 C1257 1.502 . S
C1259 H1245 0.917 1_556 S
C1259 H1246 0.986 . S
C1259 H1247 0.956 1_556 S
C1259 C1257 1.585 . S
C1260 C1257 1.526 . S
C1260 C1261 1.396 . S
C1260 C1265 1.390 . S
C1261 C1255 1.465 . S
C1261 C1260 1.396 . S
C1261 C1262 1.399 . S
C1262 H1248 0.929 . S
C1262 C1261 1.399 . S
C1262 C1263 1.385 . S
C1263 H1249 0.931 . S
C1263 C1262 1.385 . S
C1263 C1264 1.389 . S
C1264 C1263 1.389 . S
C1264 C1265 1.387 . S
C1265 H1250 0.930 . S
C1265 C1260 1.390 . S
C1265 C1264 1.387 . S
H1266 C1278 0.930 . S
H1267 C1280 0.930 . S
H1268 C1281 0.930 . S
H1269 C1285 0.959 . S
H1270 C1285 0.959 . S
H1271 C1285 0.961 . S
H1272 C1286 0.960 . S
H1273 C1286 0.961 . S
H1274 C1286 0.959 . S
H1275 C1289 0.929 . S
H1276 C1290 0.931 . S
H1277 C1292 0.930 . S
C1278 H1266 0.930 . S
C1278 C1279 1.399 . S
C1278 C1283 1.399 . S
C1279 C1278 1.399 . S
C1279 C1280 1.376 . S
C1280 H1267 0.930 . S
C1280 C1279 1.376 . S
C1280 C1281 1.388 . S
C1281 H1268 0.930 . S
C1281 C1280 1.388 . S
C1281 C1282 1.390 . S
C1282 C1281 1.390 . S
C1282 C1283 1.394 . S
C1282 C1288 1.465 . S
C1283 C1278 1.399 . S
C1283 C1282 1.394 . S
C1283 C1284 1.516 . S
C1284 C1283 1.516 . S
C1284 C1285 1.502 . S
C1284 C1286 1.561 . S
C1284 C1287 1.526 . S
C1285 H1269 0.959 . S
C1285 H1270 0.959 . S
C1285 H1271 0.961 . S
C1285 C1284 1.502 . S
C1286 H1272 0.960 . S
C1286 H1273 0.961 . S
C1286 H1274 0.959 . S
C1286 C1284 1.561 . S
C1287 C1284 1.526 . S
C1287 C1288 1.396 . S
C1287 C1292 1.390 . S
C1288 C1282 1.465 . S
C1288 C1287 1.396 . S
C1288 C1289 1.399 . S
C1289 H1275 0.929 . S
C1289 C1288 1.399 . S
C1289 C1290 1.385 . S
C1290 H1276 0.931 . S
C1290 C1289 1.385 . S
C1290 C1291 1.389 . S
C1291 C1290 1.389 . S
C1291 C1292 1.387 . S
C1292 H1277 0.930 . S
C1292 C1287 1.390 . S
C1292 C1291 1.387 . S
H1293 C1305 0.930 . S
H1294 C1307 0.930 . S
H1295 C1308 0.930 . S
H1296 C1312 0.959 . S
H1297 C1312 0.924 1_554 S
H1298 C1312 0.961 . S
H1299 C1313 0.960 . S
H1300 C1313 0.961 . S
H1301 C1313 0.959 . S
H1302 C1316 0.932 . S
H1303 C1317 0.931 . S
H1304 C1319 0.930 . S
C1305 H1293 0.930 . S
C1305 C1306 1.399 . S
C1305 C1310 1.399 . S
C1306 C1305 1.399 . S
C1306 C1307 1.376 . S
C1307 H1294 0.930 . S
C1307 C1306 1.376 . S
C1307 C1308 1.388 . S
C1308 H1295 0.930 . S
C1308 C1307 1.388 . S
C1308 C1309 1.390 . S
C1309 C1308 1.390 . S
C1309 C1310 1.394 . S
C1309 C1315 1.465 . S
C1310 C1305 1.399 . S
C1310 C1309 1.394 . S
C1310 C1311 1.516 . S
C1311 C1310 1.516 . S
C1311 C1312 1.502 . S
C1311 C1313 1.561 . S
C1311 C1314 1.526 . S
C1312 H1296 0.959 . S
C1312 H1297 0.924 1_556 S
C1312 H1298 0.961 . S
C1312 C1311 1.502 . S
C1313 H1299 0.960 . S
C1313 H1300 0.961 . S
C1313 H1301 0.959 . S
C1313 C1311 1.561 . S
C1314 C1311 1.526 . S
C1314 C1315 1.396 . S
C1314 C1319 1.390 1_556 S
C1315 C1309 1.465 . S
C1315 C1314 1.396 . S
C1315 C1316 1.403 . S
C1316 H1302 0.932 . S
C1316 C1315 1.403 . S
C1316 C1317 1.378 1_556 S
C1317 H1303 0.931 . S
C1317 C1316 1.378 1_554 S
C1317 C1318 1.389 . S
C1318 C1317 1.389 . S
C1318 C1319 1.387 . S
C1319 H1304 0.930 . S
C1319 C1314 1.390 1_554 S
C1319 C1318 1.387 . S
H1320 C1332 0.930 . S
H1321 C1334 0.930 . S
H1322 C1335 0.930 . S
H1323 C1339 0.959 . S
H1324 C1339 0.959 . S
H1325 C1339 0.961 . S
H1326 C1340 0.960 . S
H1327 C1340 0.961 . S
H1328 C1340 0.959 . S
H1329 C1343 0.929 . S
H1330 C1344 0.931 . S
H1331 C1346 0.930 . S
C1332 H1320 0.930 . S
C1332 C1333 1.399 . S
C1332 C1337 1.399 . S
C1333 C1332 1.399 . S
C1333 C1334 1.376 . S
C1334 H1321 0.930 . S
C1334 C1333 1.376 . S
C1334 C1335 1.388 . S
C1335 H1322 0.930 . S
C1335 C1334 1.388 . S
C1335 C1336 1.390 . S
C1336 C1335 1.390 . S
C1336 C1337 1.394 . S
C1336 C1342 1.465 . S
C1337 C1332 1.399 . S
C1337 C1336 1.394 . S
C1337 C1338 1.516 . S
C1338 C1337 1.516 . S
C1338 C1339 1.502 . S
C1338 C1340 1.561 . S
C1338 C1341 1.526 . S
C1339 H1323 0.959 . S
C1339 H1324 0.959 . S
C1339 H1325 0.961 . S
C1339 C1338 1.502 . S
C1340 H1326 0.960 . S
C1340 H1327 0.961 . S
C1340 H1328 0.959 . S
C1340 C1338 1.561 . S
C1341 C1338 1.526 . S
C1341 C1342 1.396 . S
C1341 C1346 1.390 . S
C1342 C1336 1.465 . S
C1342 C1341 1.396 . S
C1342 C1343 1.399 . S
C1343 H1329 0.929 . S
C1343 C1342 1.399 . S
C1343 C1344 1.385 . S
C1344 H1330 0.931 . S
C1344 C1343 1.385 . S
C1344 C1345 1.389 . S
C1345 C1344 1.389 . S
C1345 C1346 1.387 . S
C1346 H1331 0.930 . S
C1346 C1341 1.390 . S
C1346 C1345 1.387 . S
H1347 C1359 0.930 . S
H1348 C1361 0.930 . S
H1349 C1362 0.930 . S
H1350 C1366 0.959 . S
H1351 C1366 0.959 . S
H1352 C1366 0.961 . S
H1353 C1367 0.960 . S
H1354 C1367 0.961 . S
H1355 C1367 0.959 . S
H1356 C1370 0.929 . S
H1357 C1371 0.931 . S
H1358 C1373 0.930 . S
C1359 H1347 0.930 . S
C1359 C1360 1.399 . S
C1359 C1364 1.399 . S
C1360 C1359 1.399 . S
C1360 C1361 1.376 . S
C1361 H1348 0.930 . S
C1361 C1360 1.376 . S
C1361 C1362 1.388 . S
C1362 H1349 0.930 . S
C1362 C1361 1.388 . S
C1362 C1363 1.390 . S
C1363 C1362 1.390 . S
C1363 C1364 1.394 . S
C1363 C1369 1.465 . S
C1364 C1359 1.399 . S
C1364 C1363 1.394 . S
C1364 C1365 1.516 . S
C1365 C1364 1.516 . S
C1365 C1366 1.502 . S
C1365 C1367 1.561 . S
C1365 C1368 1.526 . S
C1366 H1350 0.959 . S
C1366 H1351 0.959 . S
C1366 H1352 0.961 . S
C1366 C1365 1.502 . S
C1367 H1353 0.960 . S
C1367 H1354 0.961 . S
C1367 H1355 0.959 . S
C1367 C1365 1.561 . S
C1368 C1365 1.526 . S
C1368 C1369 1.396 . S
C1368 C1373 1.390 . S
C1369 C1363 1.465 . S
C1369 C1368 1.396 . S
C1369 C1370 1.399 . S
C1370 H1356 0.929 . S
C1370 C1369 1.399 . S
C1370 C1371 1.385 . S
C1371 H1357 0.931 . S
C1371 C1370 1.385 . S
C1371 C1372 1.389 . S
C1372 C1371 1.389 . S
C1372 C1373 1.387 . S
C1373 H1358 0.930 . S
C1373 C1368 1.390 . S
C1373 C1372 1.387 . S
H1374 C1386 0.930 . S
H1375 C1388 0.930 . S
H1376 C1389 0.930 . S
H1377 C1393 0.959 . S
H1378 C1393 0.959 . S
H1379 C1393 0.961 . S
H1380 C1394 0.960 . S
H1381 C1394 0.961 . S
H1382 C1394 0.959 . S
H1383 C1397 0.929 . S
H1384 C1398 0.931 . S
H1385 C1400 0.930 . S
C1386 H1374 0.930 . S
C1386 C1387 1.399 . S
C1386 C1391 1.399 . S
C1387 C1386 1.399 . S
C1387 C1388 1.376 . S
C1388 H1375 0.930 . S
C1388 C1387 1.376 . S
C1388 C1389 1.388 . S
C1389 H1376 0.930 . S
C1389 C1388 1.388 . S
C1389 C1390 1.390 . S
C1390 C1389 1.390 . S
C1390 C1391 1.394 . S
C1390 C1396 1.465 . S
C1391 C1386 1.399 . S
C1391 C1390 1.394 . S
C1391 C1392 1.516 . S
C1392 C1391 1.516 . S
C1392 C1393 1.502 . S
C1392 C1394 1.561 . S
C1392 C1395 1.526 . S
C1393 H1377 0.959 . S
C1393 H1378 0.959 . S
C1393 H1379 0.961 . S
C1393 C1392 1.502 . S
C1394 H1380 0.960 . S
C1394 H1381 0.961 . S
C1394 H1382 0.959 . S
C1394 C1392 1.561 . S
C1395 C1392 1.526 . S
C1395 C1396 1.396 . S
C1395 C1400 1.390 . S
C1396 C1390 1.465 . S
C1396 C1395 1.396 . S
C1396 C1397 1.399 . S
C1397 H1383 0.929 . S
C1397 C1396 1.399 . S
C1397 C1398 1.385 . S
C1398 H1384 0.931 . S
C1398 C1397 1.385 . S
C1398 C1399 1.389 . S
C1399 C1398 1.389 . S
C1399 C1400 1.387 . S
C1400 H1385 0.930 . S
C1400 C1395 1.390 . S
C1400 C1399 1.387 . S
H1401 C1413 0.930 . S
H1402 C1415 0.930 . S
H1403 C1416 0.930 . S
H1404 C1420 0.959 . S
H1405 C1420 0.959 . S
H1406 C1420 0.961 . S
H1407 C1421 0.960 . S
H1408 C1421 0.961 1_545 S
H1409 C1421 0.959 1_545 S
H1410 C1424 0.943 . S
H1411 C1425 0.931 . S
H1412 C1427 0.930 . S
C1413 H1401 0.930 . S
C1413 C1414 1.399 . S
C1413 C1418 1.399 . S
C1414 C1413 1.399 . S
C1414 C1415 1.376 . S
C1415 H1402 0.930 . S
C1415 C1414 1.376 . S
C1415 C1416 1.388 . S
C1416 H1403 0.930 . S
C1416 C1415 1.388 . S
C1416 C1417 1.390 . S
C1417 C1416 1.390 . S
C1417 C1418 1.394 . S
C1417 C1423 1.465 . S
C1418 C1413 1.399 . S
C1418 C1417 1.394 . S
C1418 C1419 1.516 . S
C1419 C1418 1.516 . S
C1419 C1420 1.502 . S
C1419 C1421 1.561 . S
C1419 C1422 1.554 . S
C1420 H1404 0.959 . S
C1420 H1405 0.959 . S
C1420 H1406 0.961 . S
C1420 C1419 1.502 . S
C1421 H1407 0.960 . S
C1421 H1408 0.961 1_565 S
C1421 H1409 0.959 1_565 S
C1421 C1419 1.561 . S
C1422 C1419 1.554 . S
C1422 C1423 1.419 . S
C1422 C1427 1.346 1_565 S
C1423 C1417 1.465 . S
C1423 C1422 1.419 . S
C1423 C1424 1.413 . S
C1424 H1410 0.943 . S
C1424 C1423 1.413 . S
C1424 C1425 1.358 1_565 S
C1425 H1411 0.931 . S
C1425 C1424 1.358 1_545 S
C1425 C1426 1.389 . S
C1426 C1425 1.389 . S
C1426 C1427 1.387 . S
C1427 H1412 0.930 . S
C1427 C1422 1.346 1_545 S
C1427 C1426 1.387 . S
H1428 C1440 0.930 . S
H1429 C1442 0.930 . S
H1430 C1443 0.930 . S
H1431 C1447 0.959 . S
H1432 C1447 0.959 . S
H1433 C1447 0.961 . S
H1434 C1448 0.960 . S
H1435 C1448 0.961 . S
H1436 C1448 0.959 . S
H1437 C1451 0.929 . S
H1438 C1452 0.931 . S
H1439 C1454 0.930 . S
C1440 H1428 0.930 . S
C1440 C1441 1.399 . S
C1440 C1445 1.399 . S
C1441 C1440 1.399 . S
C1441 C1442 1.376 . S
C1442 H1429 0.930 . S
C1442 C1441 1.376 . S
C1442 C1443 1.388 . S
C1443 H1430 0.930 . S
C1443 C1442 1.388 . S
C1443 C1444 1.390 . S
C1444 C1443 1.390 . S
C1444 C1445 1.394 . S
C1444 C1450 1.465 . S
C1445 C1440 1.399 . S
C1445 C1444 1.394 . S
C1445 C1446 1.516 . S
C1446 C1445 1.516 . S
C1446 C1447 1.502 . S
C1446 C1448 1.561 . S
C1446 C1449 1.526 . S
C1447 H1431 0.959 . S
C1447 H1432 0.959 . S
C1447 H1433 0.961 . S
C1447 C1446 1.502 . S
C1448 H1434 0.960 . S
C1448 H1435 0.961 . S
C1448 H1436 0.959 . S
C1448 C1446 1.561 . S
C1449 C1446 1.526 . S
C1449 C1450 1.396 . S
C1449 C1454 1.390 . S
C1450 C1444 1.465 . S
C1450 C1449 1.396 . S
C1450 C1451 1.399 . S
C1451 H1437 0.929 . S
C1451 C1450 1.399 . S
C1451 C1452 1.385 . S
C1452 H1438 0.931 . S
C1452 C1451 1.385 . S
C1452 C1453 1.389 . S
C1453 C1452 1.389 . S
C1453 C1454 1.387 . S
C1454 H1439 0.930 . S
C1454 C1449 1.390 . S
C1454 C1453 1.387 . S
H1455 C1467 0.930 . S
H1456 C1469 0.930 . S
H1457 C1470 0.930 . S
H1458 C1474 0.959 . S
H1459 C1474 0.959 . S
H1460 C1474 0.961 . S
H1461 C1475 0.960 . S
H1462 C1475 0.961 . S
H1463 C1475 0.959 . S
H1464 C1478 0.929 . S
H1465 C1479 0.931 . S
H1466 C1481 0.930 . S
C1467 H1455 0.930 . S
C1467 C1468 1.399 . S
C1467 C1472 1.399 . S
C1468 C1467 1.399 . S
C1468 C1469 1.376 . S
C1469 H1456 0.930 . S
C1469 C1468 1.376 . S
C1469 C1470 1.388 . S
C1470 H1457 0.930 . S
C1470 C1469 1.388 . S
C1470 C1471 1.390 . S
C1471 C1470 1.390 . S
C1471 C1472 1.394 . S
C1471 C1477 1.465 . S
C1472 C1467 1.399 . S
C1472 C1471 1.394 . S
C1472 C1473 1.516 . S
C1473 C1472 1.516 . S
C1473 C1474 1.502 . S
C1473 C1475 1.561 . S
C1473 C1476 1.526 . S
C1474 H1458 0.959 . S
C1474 H1459 0.959 . S
C1474 H1460 0.961 . S
C1474 C1473 1.502 . S
C1475 H1461 0.960 . S
C1475 H1462 0.961 . S
C1475 H1463 0.959 . S
C1475 C1473 1.561 . S
C1476 C1473 1.526 . S
C1476 C1477 1.396 . S
C1476 C1481 1.390 . S
C1477 C1471 1.465 . S
C1477 C1476 1.396 . S
C1477 C1478 1.399 . S
C1478 H1464 0.929 . S
C1478 C1477 1.399 . S
C1478 C1479 1.385 . S
C1479 H1465 0.931 . S
C1479 C1478 1.385 . S
C1479 C1480 1.389 . S
C1480 C1479 1.389 . S
C1480 C1481 1.387 . S
C1481 H1466 0.930 . S
C1481 C1476 1.390 . S
C1481 C1480 1.387 . S
H1482 C1494 0.930 . S
H1483 C1496 0.930 . S
H1484 C1497 0.930 . S
H1485 C1501 0.959 . S
H1486 C1501 0.959 . S
H1487 C1501 0.961 . S
H1488 C1502 0.960 . S
H1489 C1502 0.961 . S
H1490 C1502 0.959 . S
H1491 C1505 0.929 . S
H1492 C1506 0.931 . S
H1493 C1508 0.930 . S
C1494 H1482 0.930 . S
C1494 C1495 1.399 . S
C1494 C1499 1.399 . S
C1495 C1494 1.399 . S
C1495 C1496 1.376 . S
C1496 H1483 0.930 . S
C1496 C1495 1.376 . S
C1496 C1497 1.388 . S
C1497 H1484 0.930 . S
C1497 C1496 1.388 . S
C1497 C1498 1.390 . S
C1498 C1497 1.390 . S
C1498 C1499 1.394 . S
C1498 C1504 1.465 . S
C1499 C1494 1.399 . S
C1499 C1498 1.394 . S
C1499 C1500 1.516 . S
C1500 C1499 1.516 . S
C1500 C1501 1.502 . S
C1500 C1502 1.561 . S
C1500 C1503 1.526 . S
C1501 H1485 0.959 . S
C1501 H1486 0.959 . S
C1501 H1487 0.961 . S
C1501 C1500 1.502 . S
C1502 H1488 0.960 . S
C1502 H1489 0.961 . S
C1502 H1490 0.959 . S
C1502 C1500 1.561 . S
C1503 C1500 1.526 . S
C1503 C1504 1.396 . S
C1503 C1508 1.390 . S
C1504 C1498 1.465 . S
C1504 C1503 1.396 . S
C1504 C1505 1.399 . S
C1505 H1491 0.929 . S
C1505 C1504 1.399 . S
C1505 C1506 1.385 . S
C1506 H1492 0.931 . S
C1506 C1505 1.385 . S
C1506 C1507 1.389 . S
C1507 C1506 1.389 . S
C1507 C1508 1.387 . S
C1508 H1493 0.930 . S
C1508 C1503 1.390 . S
C1508 C1507 1.387 . S
H1509 C1521 0.930 . S
H1510 C1523 0.930 . S
H1511 C1524 0.930 . S
H1512 C1528 0.959 . S
H1513 C1528 0.959 . S
H1514 C1528 0.961 . S
H1515 C1529 0.960 . S
H1516 C1529 0.961 . S
H1517 C1529 0.959 . S
H1518 C1532 0.929 . S
H1519 C1533 0.931 . S
H1520 C1535 0.930 . S
C1521 H1509 0.930 . S
C1521 C1522 1.399 . S
C1521 C1526 1.399 1_545 S
C1522 C1521 1.399 . S
C1522 C1523 1.376 . S
C1523 H1510 0.930 . S
C1523 C1522 1.376 . S
C1523 C1524 1.388 . S
C1524 H1511 0.930 . S
C1524 C1523 1.388 . S
C1524 C1525 1.390 1_545 S
C1525 C1524 1.390 1_565 S
C1525 C1526 1.394 . S
C1525 C1531 1.465 . S
C1526 C1521 1.399 1_565 S
C1526 C1525 1.394 . S
C1526 C1527 1.516 . S
C1527 C1526 1.516 . S
C1527 C1528 1.502 . S
C1527 C1529 1.561 . S
C1527 C1530 1.526 . S
C1528 H1512 0.959 . S
C1528 H1513 0.959 . S
C1528 H1514 0.961 . S
C1528 C1527 1.502 . S
C1529 H1515 0.960 . S
C1529 H1516 0.961 . S
C1529 H1517 0.959 . S
C1529 C1527 1.561 . S
C1530 C1527 1.526 . S
C1530 C1531 1.396 . S
C1530 C1535 1.390 . S
C1531 C1525 1.465 . S
C1531 C1530 1.396 . S
C1531 C1532 1.399 . S
C1532 H1518 0.929 . S
C1532 C1531 1.399 . S
C1532 C1533 1.385 . S
C1533 H1519 0.931 . S
C1533 C1532 1.385 . S
C1533 C1534 1.389 . S
C1534 C1533 1.389 . S
C1534 C1535 1.387 . S
C1535 H1520 0.930 . S
C1535 C1530 1.390 . S
C1535 C1534 1.387 . S
H1536 C1548 0.930 . S
H1537 C1550 0.930 . S
H1538 C1551 0.930 . S
H1539 C1555 0.959 . S
H1540 C1555 0.959 . S
H1541 C1555 0.961 . S
H1542 C1556 0.960 . S
H1543 C1556 0.961 . S
H1544 C1556 0.959 . S
H1545 C1559 0.929 . S
H1546 C1560 0.931 . S
H1547 C1562 0.930 . S
C1548 H1536 0.930 . S
C1548 C1549 1.399 . S
C1548 C1553 1.399 . S
C1549 C1548 1.399 . S
C1549 C1550 1.376 . S
C1550 H1537 0.930 . S
C1550 C1549 1.376 . S
C1550 C1551 1.388 . S
C1551 H1538 0.930 . S
C1551 C1550 1.388 . S
C1551 C1552 1.390 . S
C1552 C1551 1.390 . S
C1552 C1553 1.394 . S
C1552 C1558 1.465 . S
C1553 C1548 1.399 . S
C1553 C1552 1.394 . S
C1553 C1554 1.516 . S
C1554 C1553 1.516 . S
C1554 C1555 1.502 . S
C1554 C1556 1.561 . S
C1554 C1557 1.526 . S
C1555 H1539 0.959 . S
C1555 H1540 0.959 . S
C1555 H1541 0.961 . S
C1555 C1554 1.502 . S
C1556 H1542 0.960 . S
C1556 H1543 0.961 . S
C1556 H1544 0.959 . S
C1556 C1554 1.561 . S
C1557 C1554 1.526 . S
C1557 C1558 1.396 . S
C1557 C1562 1.390 . S
C1558 C1552 1.465 . S
C1558 C1557 1.396 . S
C1558 C1559 1.399 . S
C1559 H1545 0.929 . S
C1559 C1558 1.399 . S
C1559 C1560 1.385 . S
C1560 H1546 0.931 . S
C1560 C1559 1.385 . S
C1560 C1561 1.389 . S
C1561 C1560 1.389 . S
C1561 C1562 1.387 . S
C1562 H1547 0.930 . S
C1562 C1557 1.390 . S
C1562 C1561 1.387 . S
H1563 C1575 0.930 . S
H1564 C1577 0.930 . S
H1565 C1578 0.930 . S
H1566 C1582 0.959 . S
H1567 C1582 0.959 . S
H1568 C1582 0.961 . S
H1569 C1583 0.960 . S
H1570 C1583 0.961 . S
H1571 C1583 0.959 . S
H1572 C1586 0.929 . S
H1573 C1587 0.931 . S
H1574 C1589 0.930 . S
C1575 H1563 0.930 . S
C1575 C1576 1.399 . S
C1575 C1580 1.399 . S
C1576 C1575 1.399 . S
C1576 C1577 1.376 . S
C1577 H1564 0.930 . S
C1577 C1576 1.376 . S
C1577 C1578 1.388 . S
C1578 H1565 0.930 . S
C1578 C1577 1.388 . S
C1578 C1579 1.390 . S
C1579 C1578 1.390 . S
C1579 C1580 1.394 . S
C1579 C1585 1.465 . S
C1580 C1575 1.399 . S
C1580 C1579 1.394 . S
C1580 C1581 1.516 . S
C1581 C1580 1.516 . S
C1581 C1582 1.502 . S
C1581 C1583 1.561 . S
C1581 C1584 1.526 . S
C1582 H1566 0.959 . S
C1582 H1567 0.959 . S
C1582 H1568 0.961 . S
C1582 C1581 1.502 . S
C1583 H1569 0.960 . S
C1583 H1570 0.961 . S
C1583 H1571 0.959 . S
C1583 C1581 1.561 . S
C1584 C1581 1.526 . S
C1584 C1585 1.396 . S
C1584 C1589 1.390 . S
C1585 C1579 1.465 . S
C1585 C1584 1.396 . S
C1585 C1586 1.399 . S
C1586 H1572 0.929 . S
C1586 C1585 1.399 . S
C1586 C1587 1.385 . S
C1587 H1573 0.931 . S
C1587 C1586 1.385 . S
C1587 C1588 1.389 . S
C1588 C1587 1.389 . S
C1588 C1589 1.387 . S
C1589 H1574 0.930 . S
C1589 C1584 1.390 . S
C1589 C1588 1.387 . S
H1590 C1602 0.930 . S
H1591 C1604 0.930 . S
H1592 C1605 0.930 . S
H1593 C1609 0.959 . S
H1594 C1609 0.959 . S
H1595 C1609 0.961 . S
H1596 C1610 0.960 . S
H1597 C1610 0.961 . S
H1598 C1610 0.959 . S
H1599 C1613 0.929 . S
H1600 C1614 0.931 . S
H1601 C1616 0.930 . S
C1602 H1590 0.930 . S
C1602 C1603 1.399 . S
C1602 C1607 1.399 1_655 S
C1603 C1602 1.399 . S
C1603 C1604 1.376 . S
C1604 H1591 0.930 . S
C1604 C1603 1.376 . S
C1604 C1605 1.388 . S
C1605 H1592 0.930 . S
C1605 C1604 1.388 . S
C1605 C1606 1.390 1_655 S
C1606 C1605 1.390 1_455 S
C1606 C1607 1.394 . S
C1606 C1612 1.465 . S
C1607 C1602 1.399 1_455 S
C1607 C1606 1.394 . S
C1607 C1608 1.516 . S
C1608 C1607 1.516 . S
C1608 C1609 1.502 . S
C1608 C1610 1.561 . S
C1608 C1611 1.526 . S
C1609 H1593 0.959 . S
C1609 H1594 0.959 . S
C1609 H1595 0.961 . S
C1609 C1608 1.502 . S
C1610 H1596 0.960 . S
C1610 H1597 0.961 . S
C1610 H1598 0.959 . S
C1610 C1608 1.561 . S
C1611 C1608 1.526 . S
C1611 C1612 1.396 . S
C1611 C1616 1.390 . S
C1612 C1606 1.465 . S
C1612 C1611 1.396 . S
C1612 C1613 1.399 . S
C1613 H1599 0.929 . S
C1613 C1612 1.399 . S
C1613 C1614 1.385 . S
C1614 H1600 0.931 . S
C1614 C1613 1.385 . S
C1614 C1615 1.389 . S
C1615 C1614 1.389 . S
C1615 C1616 1.387 . S
C1616 H1601 0.930 . S
C1616 C1611 1.390 . S
C1616 C1615 1.387 . S
H1617 C1629 0.930 . S
H1618 C1631 0.930 . S
H1619 C1632 0.930 . S
H1620 C1636 0.959 . S
H1621 C1636 0.959 . S
H1622 C1636 0.961 . S
H1623 C1637 0.960 . S
H1624 C1637 0.961 . S
H1625 C1637 0.959 . S
H1626 C1640 0.929 . S
H1627 C1641 0.931 . S
H1628 C1643 0.930 . S
C1629 H1617 0.930 . S
C1629 C1630 1.399 . S
C1629 C1634 1.399 . S
C1630 C1629 1.399 . S
C1630 C1631 1.376 . S
C1631 H1618 0.930 . S
C1631 C1630 1.376 . S
C1631 C1632 1.388 . S
C1632 H1619 0.930 . S
C1632 C1631 1.388 . S
C1632 C1633 1.390 . S
C1633 C1632 1.390 . S
C1633 C1634 1.394 . S
C1633 C1639 1.465 . S
C1634 C1629 1.399 . S
C1634 C1633 1.394 . S
C1634 C1635 1.516 . S
C1635 C1634 1.516 . S
C1635 C1636 1.502 . S
C1635 C1637 1.561 . S
C1635 C1638 1.526 . S
C1636 H1620 0.959 . S
C1636 H1621 0.959 . S
C1636 H1622 0.961 . S
C1636 C1635 1.502 . S
C1637 H1623 0.960 . S
C1637 H1624 0.961 . S
C1637 H1625 0.959 . S
C1637 C1635 1.561 . S
C1638 C1635 1.526 . S
C1638 C1639 1.396 . S
C1638 C1643 1.390 . S
C1639 C1633 1.465 . S
C1639 C1638 1.396 . S
C1639 C1640 1.399 . S
C1640 H1626 0.929 . S
C1640 C1639 1.399 . S
C1640 C1641 1.385 . S
C1641 H1627 0.931 . S
C1641 C1640 1.385 . S
C1641 C1642 1.389 . S
C1642 C1641 1.389 . S
C1642 C1643 1.387 . S
C1643 H1628 0.930 . S
C1643 C1638 1.390 . S
C1643 C1642 1.387 . S
H1644 C1656 0.930 . S
H1645 C1658 0.930 . S
H1646 C1659 0.930 . S
H1647 C1663 0.959 . S
H1648 C1663 0.959 . S
H1649 C1663 0.961 . S
H1650 C1664 0.960 . S
H1651 C1664 0.961 . S
H1652 C1664 0.959 . S
H1653 C1667 0.929 . S
H1654 C1668 0.931 . S
H1655 C1670 0.930 . S
C1656 H1644 0.930 . S
C1656 C1657 1.399 . S
C1656 C1661 1.399 . S
C1657 C1656 1.399 . S
C1657 C1658 1.376 . S
C1658 H1645 0.930 . S
C1658 C1657 1.376 . S
C1658 C1659 1.388 . S
C1659 H1646 0.930 . S
C1659 C1658 1.388 . S
C1659 C1660 1.390 . S
C1660 C1659 1.390 . S
C1660 C1661 1.394 . S
C1660 C1666 1.465 . S
C1661 C1656 1.399 . S
C1661 C1660 1.394 . S
C1661 C1662 1.516 . S
C1662 C1661 1.516 . S
C1662 C1663 1.502 . S
C1662 C1664 1.561 . S
C1662 C1665 1.526 . S
C1663 H1647 0.959 . S
C1663 H1648 0.959 . S
C1663 H1649 0.961 . S
C1663 C1662 1.502 . S
C1664 H1650 0.960 . S
C1664 H1651 0.961 . S
C1664 H1652 0.959 . S
C1664 C1662 1.561 . S
C1665 C1662 1.526 . S
C1665 C1666 1.396 . S
C1665 C1670 1.390 . S
C1666 C1660 1.465 . S
C1666 C1665 1.396 . S
C1666 C1667 1.399 . S
C1667 H1653 0.929 . S
C1667 C1666 1.399 . S
C1667 C1668 1.385 . S
C1668 H1654 0.931 . S
C1668 C1667 1.385 . S
C1668 C1669 1.389 . S
C1669 C1668 1.389 . S
C1669 C1670 1.387 . S
C1670 H1655 0.930 . S
C1670 C1665 1.390 . S
C1670 C1669 1.387 . S
H1671 C1683 0.930 . S
H1672 C1685 0.930 . S
H1673 C1686 0.930 . S
H1674 C1690 0.959 . S
H1675 C1690 0.959 . S
H1676 C1690 0.961 . S
H1677 C1691 0.960 . S
H1678 C1691 0.961 . S
H1679 C1691 0.959 . S
H1680 C1694 0.929 . S
H1681 C1695 0.931 . S
H1682 C1697 0.930 . S
C1683 H1671 0.930 . S
C1683 C1684 1.399 . S
C1683 C1688 1.399 . S
C1684 C1683 1.399 . S
C1684 C1685 1.376 . S
C1685 H1672 0.930 . S
C1685 C1684 1.376 . S
C1685 C1686 1.388 . S
C1686 H1673 0.930 . S
C1686 C1685 1.388 . S
C1686 C1687 1.390 . S
C1687 C1686 1.390 . S
C1687 C1688 1.394 . S
C1687 C1693 1.465 . S
C1688 C1683 1.399 . S
C1688 C1687 1.394 . S
C1688 C1689 1.516 . S
C1689 C1688 1.516 . S
C1689 C1690 1.502 . S
C1689 C1691 1.561 . S
C1689 C1692 1.526 . S
C1690 H1674 0.959 . S
C1690 H1675 0.959 . S
C1690 H1676 0.961 . S
C1690 C1689 1.502 . S
C1691 H1677 0.960 . S
C1691 H1678 0.961 . S
C1691 H1679 0.959 . S
C1691 C1689 1.561 . S
C1692 C1689 1.526 . S
C1692 C1693 1.396 . S
C1692 C1697 1.390 . S
C1693 C1687 1.465 . S
C1693 C1692 1.396 . S
C1693 C1694 1.399 . S
C1694 H1680 0.929 . S
C1694 C1693 1.399 . S
C1694 C1695 1.385 . S
C1695 H1681 0.931 . S
C1695 C1694 1.385 . S
C1695 C1696 1.389 . S
C1696 C1695 1.389 . S
C1696 C1697 1.387 . S
C1697 H1682 0.930 . S
C1697 C1692 1.390 . S
C1697 C1696 1.387 . S
H1698 C1710 0.930 . S
H1699 C1712 0.930 . S
H1700 C1713 0.930 . S
H1701 C1717 0.959 . S
H1702 C1717 0.959 . S
H1703 C1717 0.961 . S
H1704 C1718 0.960 . S
H1705 C1718 0.934 1_655 S
H1706 C1718 0.959 . S
H1707 C1721 0.929 . S
H1708 C1722 0.931 . S
H1709 C1724 0.930 . S
C1710 H1698 0.930 . S
C1710 C1711 1.399 . S
C1710 C1715 1.399 . S
C1711 C1710 1.399 . S
C1711 C1712 1.376 . S
C1712 H1699 0.930 . S
C1712 C1711 1.376 . S
C1712 C1713 1.388 . S
C1713 H1700 0.930 . S
C1713 C1712 1.388 . S
C1713 C1714 1.390 . S
C1714 C1713 1.390 . S
C1714 C1715 1.394 . S
C1714 C1720 1.465 . S
C1715 C1710 1.399 . S
C1715 C1714 1.394 . S
C1715 C1716 1.516 . S
C1716 C1715 1.516 . S
C1716 C1717 1.502 . S
C1716 C1718 1.561 . S
C1716 C1719 1.526 . S
C1717 H1701 0.959 . S
C1717 H1702 0.959 . S
C1717 H1703 0.961 . S
C1717 C1716 1.502 . S
C1718 H1704 0.960 . S
C1718 H1705 0.934 1_455 S
C1718 H1706 0.959 . S
C1718 C1716 1.561 . S
C1719 C1716 1.526 . S
C1719 C1720 1.396 . S
C1719 C1724 1.390 1_455 S
C1720 C1714 1.465 . S
C1720 C1719 1.396 . S
C1720 C1721 1.399 1_455 S
C1721 H1707 0.929 . S
C1721 C1720 1.399 1_655 S
C1721 C1722 1.385 . S
C1722 H1708 0.931 . S
C1722 C1721 1.385 . S
C1722 C1723 1.389 . S
C1723 C1722 1.389 . S
C1723 C1724 1.387 . S
C1724 H1709 0.930 . S
C1724 C1719 1.390 1_655 S
C1724 C1723 1.387 . S
H1725 C1737 0.930 . S
H1726 C1739 0.930 . S
H1727 C1740 0.930 . S
H1728 C1744 0.959 . S
H1729 C1744 0.959 . S
H1730 C1744 0.961 . S
H1731 C1745 0.960 . S
H1732 C1745 0.961 1_455 S
H1733 C1745 0.959 . S
H1734 C1748 0.946 . S
H1735 C1749 0.931 . S
H1736 C1751 0.930 . S
C1737 H1725 0.930 . S
C1737 C1738 1.399 . S
C1737 C1742 1.399 . S
C1738 C1737 1.399 . S
C1738 C1739 1.376 . S
C1739 H1726 0.930 . S
C1739 C1738 1.376 . S
C1739 C1740 1.388 . S
C1740 H1727 0.930 . S
C1740 C1739 1.388 . S
C1740 C1741 1.390 . S
C1741 C1740 1.390 . S
C1741 C1742 1.394 . S
C1741 C1747 1.465 . S
C1742 C1737 1.399 . S
C1742 C1741 1.394 . S
C1742 C1743 1.516 . S
C1743 C1742 1.516 . S
C1743 C1744 1.502 . S
C1743 C1745 1.561 . S
C1743 C1746 1.526 . S
C1744 H1728 0.959 . S
C1744 H1729 0.959 . S
C1744 H1730 0.961 . S
C1744 C1743 1.502 . S
C1745 H1731 0.960 . S
C1745 H1732 0.961 1_655 S
C1745 H1733 0.959 . S
C1745 C1743 1.561 . S
C1746 C1743 1.526 . S
C1746 C1747 1.396 . S
C1746 C1751 1.390 1_655 S
C1747 C1741 1.465 . S
C1747 C1746 1.396 . S
C1747 C1748 1.399 1_655 S
C1748 H1734 0.946 . S
C1748 C1747 1.399 1_455 S
C1748 C1749 1.385 . S
C1749 H1735 0.931 . S
C1749 C1748 1.385 . S
C1749 C1750 1.389 . S
C1750 C1749 1.389 . S
C1750 C1751 1.387 . S
C1751 H1736 0.930 . S
C1751 C1746 1.390 1_455 S
C1751 C1750 1.387 . S
H1752 C1764 0.930 . S
H1753 C1766 0.930 . S
H1754 C1767 0.930 . S
H1755 C1771 0.959 . S
H1756 C1771 0.959 . S
H1757 C1771 0.961 . S
H1758 C1772 0.960 . S
H1759 C1772 0.961 . S
H1760 C1772 0.959 . S
H1761 C1775 0.929 . S
H1762 C1776 0.931 . S
H1763 C1778 0.930 . S
C1764 H1752 0.930 . S
C1764 C1765 1.399 . S
C1764 C1769 1.399 . S
C1765 C1764 1.399 . S
C1765 C1766 1.376 . S
C1766 H1753 0.930 . S
C1766 C1765 1.376 . S
C1766 C1767 1.388 . S
C1767 H1754 0.930 . S
C1767 C1766 1.388 . S
C1767 C1768 1.390 . S
C1768 C1767 1.390 . S
C1768 C1769 1.394 . S
C1768 C1774 1.465 . S
C1769 C1764 1.399 . S
C1769 C1768 1.394 . S
C1769 C1770 1.516 . S
C1770 C1769 1.516 . S
C1770 C1771 1.502 . S
C1770 C1772 1.561 . S
C1770 C1773 1.526 . S
C1771 H1755 0.959 . S
C1771 H1756 0.959 . S
C1771 H1757 0.961 . S
C1771 C1770 1.502 . S
C1772 H1758 0.960 . S
C1772 H1759 0.961 . S
C1772 H1760 0.959 . S
C1772 C1770 1.561 . S
C1773 C1770 1.526 . S
C1773 C1774 1.396 . S
C1773 C1778 1.390 . S
C1774 C1768 1.465 . S
C1774 C1773 1.396 . S
C1774 C1775 1.399 . S
C1775 H1761 0.929 . S
C1775 C1774 1.399 . S
C1775 C1776 1.385 . S
C1776 H1762 0.931 . S
C1776 C1775 1.385 . S
C1776 C1777 1.389 . S
C1777 C1776 1.389 . S
C1777 C1778 1.387 . S
C1778 H1763 0.930 . S
C1778 C1773 1.390 . S
C1778 C1777 1.387 . S
H1779 C1791 0.930 . S
H1780 C1793 0.930 . S
H1781 C1794 0.930 . S
H1782 C1798 0.959 . S
H1783 C1798 0.959 . S
H1784 C1798 0.961 . S
H1785 C1799 0.960 . S
H1786 C1799 0.961 . S
H1787 C1799 0.959 . S
H1788 C1802 0.929 . S
H1789 C1803 0.931 . S
H1790 C1805 0.930 . S
C1791 H1779 0.930 . S
C1791 C1792 1.399 . S
C1791 C1796 1.399 . S
C1792 C1791 1.399 . S
C1792 C1793 1.376 . S
C1793 H1780 0.930 . S
C1793 C1792 1.376 . S
C1793 C1794 1.388 . S
C1794 H1781 0.930 . S
C1794 C1793 1.388 . S
C1794 C1795 1.390 . S
C1795 C1794 1.390 . S
C1795 C1796 1.394 . S
C1795 C1801 1.465 . S
C1796 C1791 1.399 . S
C1796 C1795 1.394 . S
C1796 C1797 1.516 . S
C1797 C1796 1.516 . S
C1797 C1798 1.502 . S
C1797 C1799 1.561 . S
C1797 C1800 1.526 . S
C1798 H1782 0.959 . S
C1798 H1783 0.959 . S
C1798 H1784 0.961 . S
C1798 C1797 1.502 . S
C1799 H1785 0.960 . S
C1799 H1786 0.961 . S
C1799 H1787 0.959 . S
C1799 C1797 1.561 . S
C1800 C1797 1.526 . S
C1800 C1801 1.396 . S
C1800 C1805 1.390 . S
C1801 C1795 1.465 . S
C1801 C1800 1.396 . S
C1801 C1802 1.399 . S
C1802 H1788 0.929 . S
C1802 C1801 1.399 . S
C1802 C1803 1.385 . S
C1803 H1789 0.931 . S
C1803 C1802 1.385 . S
C1803 C1804 1.389 . S
C1804 C1803 1.389 . S
C1804 C1805 1.387 . S
C1805 H1790 0.930 . S
C1805 C1800 1.390 . S
C1805 C1804 1.387 . S
H1806 C1818 0.930 . S
H1807 C1820 0.930 . S
H1808 C1821 0.930 . S
H1809 C1825 0.959 . S
H1810 C1825 0.959 . S
H1811 C1825 0.961 . S
H1812 C1826 0.960 . S
H1813 C1826 0.961 . S
H1814 C1826 0.959 . S
H1815 C1829 0.929 . S
H1816 C1830 0.931 . S
H1817 C1832 0.930 . S
C1818 H1806 0.930 . S
C1818 C1819 1.399 . S
C1818 C1823 1.399 . S
C1819 C1818 1.399 . S
C1819 C1820 1.376 . S
C1820 H1807 0.930 . S
C1820 C1819 1.376 . S
C1820 C1821 1.388 . S
C1821 H1808 0.930 . S
C1821 C1820 1.388 . S
C1821 C1822 1.390 . S
C1822 C1821 1.390 . S
C1822 C1823 1.394 . S
C1822 C1828 1.465 . S
C1823 C1818 1.399 . S
C1823 C1822 1.394 . S
C1823 C1824 1.516 . S
C1824 C1823 1.516 . S
C1824 C1825 1.502 . S
C1824 C1826 1.561 . S
C1824 C1827 1.526 . S
C1825 H1809 0.959 . S
C1825 H1810 0.959 . S
C1825 H1811 0.961 . S
C1825 C1824 1.502 . S
C1826 H1812 0.960 . S
C1826 H1813 0.961 . S
C1826 H1814 0.959 . S
C1826 C1824 1.561 . S
C1827 C1824 1.526 . S
C1827 C1828 1.396 . S
C1827 C1832 1.390 . S
C1828 C1822 1.465 . S
C1828 C1827 1.396 . S
C1828 C1829 1.399 . S
C1829 H1815 0.929 . S
C1829 C1828 1.399 . S
C1829 C1830 1.385 . S
C1830 H1816 0.931 . S
C1830 C1829 1.385 . S
C1830 C1831 1.389 . S
C1831 C1830 1.389 . S
C1831 C1832 1.387 . S
C1832 H1817 0.930 . S
C1832 C1827 1.390 . S
C1832 C1831 1.387 . S
H1833 C1845 0.930 . S
H1834 C1847 0.930 . S
H1835 C1848 0.930 . S
H1836 C1852 0.959 . S
H1837 C1852 0.959 . S
H1838 C1852 0.961 . S
H1839 C1853 0.960 . S
H1840 C1853 0.961 . S
H1841 C1853 0.959 . S
H1842 C1856 0.929 . S
H1843 C1857 0.931 . S
H1844 C1859 0.930 . S
C1845 H1833 0.930 . S
C1845 C1846 1.399 . S
C1845 C1850 1.399 . S
C1846 C1845 1.399 . S
C1846 C1847 1.376 . S
C1847 H1834 0.930 . S
C1847 C1846 1.376 . S
C1847 C1848 1.388 . S
C1848 H1835 0.930 . S
C1848 C1847 1.388 . S
C1848 C1849 1.390 . S
C1849 C1848 1.390 . S
C1849 C1850 1.394 . S
C1849 C1855 1.465 . S
C1850 C1845 1.399 . S
C1850 C1849 1.394 . S
C1850 C1851 1.516 . S
C1851 C1850 1.516 . S
C1851 C1852 1.502 . S
C1851 C1853 1.561 . S
C1851 C1854 1.526 . S
C1852 H1836 0.959 . S
C1852 H1837 0.959 . S
C1852 H1838 0.961 . S
C1852 C1851 1.502 . S
C1853 H1839 0.960 . S
C1853 H1840 0.961 . S
C1853 H1841 0.959 . S
C1853 C1851 1.561 . S
C1854 C1851 1.526 . S
C1854 C1855 1.396 . S
C1854 C1859 1.390 . S
C1855 C1849 1.465 . S
C1855 C1854 1.396 . S
C1855 C1856 1.399 . S
C1856 H1842 0.929 . S
C1856 C1855 1.399 . S
C1856 C1857 1.385 . S
C1857 H1843 0.931 . S
C1857 C1856 1.385 . S
C1857 C1858 1.389 . S
C1858 C1857 1.389 . S
C1858 C1859 1.387 . S
C1859 H1844 0.930 . S
C1859 C1854 1.390 . S
C1859 C1858 1.387 . S
H1860 C1872 0.930 . S
H1861 C1874 0.930 . S
H1862 C1875 0.930 . S
H1863 C1879 0.959 . S
H1864 C1879 0.959 . S
H1865 C1879 0.961 . S
H1866 C1880 0.960 . S
H1867 C1880 0.961 . S
H1868 C1880 0.959 . S
H1869 C1883 0.929 . S
H1870 C1884 0.931 . S
H1871 C1886 0.930 . S
C1872 H1860 0.930 . S
C1872 C1873 1.399 . S
C1872 C1877 1.399 . S
C1873 C1872 1.399 . S
C1873 C1874 1.376 . S
C1874 H1861 0.930 . S
C1874 C1873 1.376 . S
C1874 C1875 1.388 . S
C1875 H1862 0.930 . S
C1875 C1874 1.388 . S
C1875 C1876 1.390 . S
C1876 C1875 1.390 . S
C1876 C1877 1.394 . S
C1876 C1882 1.465 . S
C1877 C1872 1.399 . S
C1877 C1876 1.394 . S
C1877 C1878 1.516 . S
C1878 C1877 1.516 . S
C1878 C1879 1.502 . S
C1878 C1880 1.561 . S
C1878 C1881 1.526 . S
C1879 H1863 0.959 . S
C1879 H1864 0.959 . S
C1879 H1865 0.961 . S
C1879 C1878 1.502 . S
C1880 H1866 0.960 . S
C1880 H1867 0.961 . S
C1880 H1868 0.959 . S
C1880 C1878 1.561 . S
C1881 C1878 1.526 . S
C1881 C1882 1.396 . S
C1881 C1886 1.390 . S
C1882 C1876 1.465 . S
C1882 C1881 1.396 . S
C1882 C1883 1.399 . S
C1883 H1869 0.929 . S
C1883 C1882 1.399 . S
C1883 C1884 1.385 . S
C1884 H1870 0.931 . S
C1884 C1883 1.385 . S
C1884 C1885 1.389 . S
C1885 C1884 1.389 . S
C1885 C1886 1.387 . S
C1886 H1871 0.930 . S
C1886 C1881 1.390 . S
C1886 C1885 1.387 . S
H1887 C1899 0.930 . S
H1888 C1901 0.930 . S
H1889 C1902 0.930 . S
H1890 C1906 0.959 . S
H1891 C1906 0.959 . S
H1892 C1906 0.961 . S
H1893 C1907 0.960 . S
H1894 C1907 0.961 . S
H1895 C1907 0.959 . S
H1896 C1910 0.929 . S
H1897 C1911 0.931 . S
H1898 C1913 0.930 . S
C1899 H1887 0.930 . S
C1899 C1900 1.399 . S
C1899 C1904 1.399 . S
C1900 C1899 1.399 . S
C1900 C1901 1.376 . S
C1901 H1888 0.930 . S
C1901 C1900 1.376 . S
C1901 C1902 1.388 . S
C1902 H1889 0.930 . S
C1902 C1901 1.388 . S
C1902 C1903 1.390 . S
C1903 C1902 1.390 . S
C1903 C1904 1.394 . S
C1903 C1909 1.465 . S
C1904 C1899 1.399 . S
C1904 C1903 1.394 . S
C1904 C1905 1.516 . S
C1905 C1904 1.516 . S
C1905 C1906 1.502 . S
C1905 C1907 1.561 . S
C1905 C1908 1.526 . S
C1906 H1890 0.959 . S
C1906 H1891 0.959 . S
C1906 H1892 0.961 . S
C1906 C1905 1.502 . S
C1907 H1893 0.960 . S
C1907 H1894 0.961 . S
C1907 H1895 0.959 . S
C1907 C1905 1.561 . S
C1908 C1905 1.526 . S
C1908 C1909 1.396 . S
C1908 C1913 1.390 . S
C1909 C1903 1.465 . S
C1909 C1908 1.396 . S
C1909 C1910 1.399 . S
C1910 H1896 0.929 . S
C1910 C1909 1.399 . S
C1910 C1911 1.385 . S
C1911 H1897 0.931 . S
C1911 C1910 1.385 . S
C1911 C1912 1.389 . S
C1912 C1911 1.389 . S
C1912 C1913 1.387 . S
C1913 H1898 0.930 . S
C1913 C1908 1.390 . S
C1913 C1912 1.387 . S
H1914 C1926 0.930 . S
H1915 C1928 0.930 . S
H1916 C1929 0.930 . S
H1917 C1933 0.959 . S
H1918 C1933 0.959 . S
H1919 C1933 0.961 . S
H1920 C1934 0.960 . S
H1921 C1934 0.961 . S
H1922 C1934 0.959 . S
H1923 C1937 0.929 . S
H1924 C1938 0.931 . S
H1925 C1940 0.930 . S
C1926 H1914 0.930 . S
C1926 C1927 1.399 . S
C1926 C1931 1.399 . S
C1927 C1926 1.399 . S
C1927 C1928 1.376 . S
C1928 H1915 0.930 . S
C1928 C1927 1.376 . S
C1928 C1929 1.388 . S
C1929 H1916 0.930 . S
C1929 C1928 1.388 . S
C1929 C1930 1.390 . S
C1930 C1929 1.390 . S
C1930 C1931 1.394 . S
C1930 C1936 1.465 . S
C1931 C1926 1.399 . S
C1931 C1930 1.394 . S
C1931 C1932 1.516 . S
C1932 C1931 1.516 . S
C1932 C1933 1.502 . S
C1932 C1934 1.561 . S
C1932 C1935 1.526 . S
C1933 H1917 0.959 . S
C1933 H1918 0.959 . S
C1933 H1919 0.961 . S
C1933 C1932 1.502 . S
C1934 H1920 0.960 . S
C1934 H1921 0.961 . S
C1934 H1922 0.959 . S
C1934 C1932 1.561 . S
C1935 C1932 1.526 . S
C1935 C1936 1.396 . S
C1935 C1940 1.390 . S
C1936 C1930 1.465 . S
C1936 C1935 1.396 . S
C1936 C1937 1.399 . S
C1937 H1923 0.929 . S
C1937 C1936 1.399 . S
C1937 C1938 1.385 . S
C1938 H1924 0.931 . S
C1938 C1937 1.385 . S
C1938 C1939 1.389 . S
C1939 C1938 1.389 . S
C1939 C1940 1.387 . S
C1940 H1925 0.930 . S
C1940 C1935 1.390 . S
C1940 C1939 1.387 . S
H1941 C1953 0.930 . S
H1942 C1955 0.930 . S
H1943 C1956 0.930 . S
H1944 C1960 0.959 . S
H1945 C1960 0.959 . S
H1946 C1960 0.961 . S
H1947 C1961 0.960 . S
H1948 C1961 0.961 . S
H1949 C1961 0.959 . S
H1950 C1964 0.929 . S
H1951 C1965 0.931 . S
H1952 C1967 0.930 . S
C1953 H1941 0.930 . S
C1953 C1954 1.399 . S
C1953 C1958 1.399 . S
C1954 C1953 1.399 . S
C1954 C1955 1.376 . S
C1955 H1942 0.930 . S
C1955 C1954 1.376 . S
C1955 C1956 1.388 . S
C1956 H1943 0.930 . S
C1956 C1955 1.388 . S
C1956 C1957 1.390 . S
C1957 C1956 1.390 . S
C1957 C1958 1.394 . S
C1957 C1963 1.465 . S
C1958 C1953 1.399 . S
C1958 C1957 1.394 . S
C1958 C1959 1.516 . S
C1959 C1958 1.516 . S
C1959 C1960 1.502 . S
C1959 C1961 1.561 . S
C1959 C1962 1.526 . S
C1960 H1944 0.959 . S
C1960 H1945 0.959 . S
C1960 H1946 0.961 . S
C1960 C1959 1.502 . S
C1961 H1947 0.960 . S
C1961 H1948 0.961 . S
C1961 H1949 0.959 . S
C1961 C1959 1.561 . S
C1962 C1959 1.526 . S
C1962 C1963 1.396 . S
C1962 C1967 1.390 . S
C1963 C1957 1.465 . S
C1963 C1962 1.396 . S
C1963 C1964 1.399 . S
C1964 H1950 0.929 . S
C1964 C1963 1.399 . S
C1964 C1965 1.385 . S
C1965 H1951 0.931 . S
C1965 C1964 1.385 . S
C1965 C1966 1.389 . S
C1966 C1965 1.389 . S
C1966 C1967 1.387 . S
C1967 H1952 0.930 . S
C1967 C1962 1.390 . S
C1967 C1966 1.387 . S
H1968 C1980 0.930 . S
H1969 C1982 0.930 . S
H1970 C1983 0.930 . S
H1971 C1987 0.959 . S
H1972 C1987 0.959 . S
H1973 C1987 0.961 . S
H1974 C1988 0.960 . S
H1975 C1988 0.961 . S
H1976 C1988 0.959 . S
H1977 C1991 0.929 . S
H1978 C1992 0.931 . S
H1979 C1994 0.930 . S
C1980 H1968 0.930 . S
C1980 C1981 1.399 . S
C1980 C1985 1.399 . S
C1981 C1980 1.399 . S
C1981 C1982 1.376 . S
C1982 H1969 0.930 . S
C1982 C1981 1.376 . S
C1982 C1983 1.388 . S
C1983 H1970 0.930 . S
C1983 C1982 1.388 . S
C1983 C1984 1.390 . S
C1984 C1983 1.390 . S
C1984 C1985 1.394 . S
C1984 C1990 1.465 . S
C1985 C1980 1.399 . S
C1985 C1984 1.394 . S
C1985 C1986 1.516 . S
C1986 C1985 1.516 . S
C1986 C1987 1.502 . S
C1986 C1988 1.561 . S
C1986 C1989 1.526 . S
C1987 H1971 0.959 . S
C1987 H1972 0.959 . S
C1987 H1973 0.961 . S
C1987 C1986 1.502 . S
C1988 H1974 0.960 . S
C1988 H1975 0.961 . S
C1988 H1976 0.959 . S
C1988 C1986 1.561 . S
C1989 C1986 1.526 . S
C1989 C1990 1.396 . S
C1989 C1994 1.390 . S
C1990 C1984 1.465 . S
C1990 C1989 1.396 . S
C1990 C1991 1.399 . S
C1991 H1977 0.929 . S
C1991 C1990 1.399 . S
C1991 C1992 1.385 . S
C1992 H1978 0.931 . S
C1992 C1991 1.385 . S
C1992 C1993 1.389 . S
C1993 C1992 1.389 . S
C1993 C1994 1.387 . S
C1994 H1979 0.930 . S
C1994 C1989 1.390 . S
C1994 C1993 1.387 . S
H1995 C2007 0.930 . S
H1996 C2009 0.930 . S
H1997 C2010 0.930 . S
H1998 C2014 0.959 . S
H1999 C2014 0.959 . S
H2000 C2014 0.961 . S
H2001 C2015 0.960 . S
H2002 C2015 0.961 . S
H2003 C2015 0.959 . S
H2004 C2018 0.929 . S
H2005 C2019 0.931 . S
H2006 C2021 0.930 . S
C2007 H1995 0.930 . S
C2007 C2008 1.399 . S
C2007 C2012 1.399 1_565 S
C2008 C2007 1.399 . S
C2008 C2009 1.376 . S
C2009 H1996 0.930 . S
C2009 C2008 1.376 . S
C2009 C2010 1.388 . S
C2010 H1997 0.930 . S
C2010 C2009 1.388 . S
C2010 C2011 1.390 1_565 S
C2011 C2010 1.390 1_545 S
C2011 C2012 1.394 . S
C2011 C2017 1.465 . S
C2012 C2007 1.399 1_545 S
C2012 C2011 1.394 . S
C2012 C2013 1.516 . S
C2013 C2012 1.516 . S
C2013 C2014 1.502 . S
C2013 C2015 1.561 . S
C2013 C2016 1.526 . S
C2014 H1998 0.959 . S
C2014 H1999 0.959 . S
C2014 H2000 0.961 . S
C2014 C2013 1.502 . S
C2015 H2001 0.960 . S
C2015 H2002 0.961 . S
C2015 H2003 0.959 . S
C2015 C2013 1.561 . S
C2016 C2013 1.526 . S
C2016 C2017 1.396 . S
C2016 C2021 1.390 . S
C2017 C2011 1.465 . S
C2017 C2016 1.396 . S
C2017 C2018 1.399 . S
C2018 H2004 0.929 . S
C2018 C2017 1.399 . S
C2018 C2019 1.385 . S
C2019 H2005 0.931 . S
C2019 C2018 1.385 . S
C2019 C2020 1.389 . S
C2020 C2019 1.389 . S
C2020 C2021 1.387 . S
C2021 H2006 0.930 . S
C2021 C2016 1.390 . S
C2021 C2020 1.387 . S
H2022 C2034 0.930 . S
H2023 C2036 0.930 . S
H2024 C2037 0.930 . S
H2025 C2041 0.959 . S
H2026 C2041 0.959 . S
H2027 C2041 0.961 . S
H2028 C2042 0.960 . S
H2029 C2042 0.961 . S
H2030 C2042 0.959 . S
H2031 C2045 0.929 . S
H2032 C2046 0.931 . S
H2033 C2048 0.930 . S
C2034 H2022 0.930 . S
C2034 C2035 1.399 . S
C2034 C2039 1.399 . S
C2035 C2034 1.399 . S
C2035 C2036 1.376 . S
C2036 H2023 0.930 . S
C2036 C2035 1.376 . S
C2036 C2037 1.388 . S
C2037 H2024 0.930 . S
C2037 C2036 1.388 . S
C2037 C2038 1.390 . S
C2038 C2037 1.390 . S
C2038 C2039 1.394 . S
C2038 C2044 1.465 . S
C2039 C2034 1.399 . S
C2039 C2038 1.394 . S
C2039 C2040 1.516 . S
C2040 C2039 1.516 . S
C2040 C2041 1.502 . S
C2040 C2042 1.561 . S
C2040 C2043 1.526 . S
C2041 H2025 0.959 . S
C2041 H2026 0.959 . S
C2041 H2027 0.961 . S
C2041 C2040 1.502 . S
C2042 H2028 0.960 . S
C2042 H2029 0.961 . S
C2042 H2030 0.959 . S
C2042 C2040 1.561 . S
C2043 C2040 1.526 . S
C2043 C2044 1.396 . S
C2043 C2048 1.390 . S
C2044 C2038 1.465 . S
C2044 C2043 1.396 . S
C2044 C2045 1.399 . S
C2045 H2031 0.929 . S
C2045 C2044 1.399 . S
C2045 C2046 1.385 . S
C2046 H2032 0.931 . S
C2046 C2045 1.385 . S
C2046 C2047 1.389 . S
C2047 C2046 1.389 . S
C2047 C2048 1.387 . S
C2048 H2033 0.930 . S
C2048 C2043 1.390 . S
C2048 C2047 1.387 . S
H2049 C2061 0.930 . S
H2050 C2063 0.930 . S
H2051 C2064 0.930 . S
H2052 C2068 0.959 . S
H2053 C2068 0.959 . S
H2054 C2068 0.961 . S
H2055 C2069 0.960 . S
H2056 C2069 0.961 . S
H2057 C2069 0.959 . S
H2058 C2072 0.929 . S
H2059 C2073 0.931 . S
H2060 C2075 0.930 . S
C2061 H2049 0.930 . S
C2061 C2062 1.399 . S
C2061 C2066 1.399 . S
C2062 C2061 1.399 . S
C2062 C2063 1.376 . S
C2063 H2050 0.930 . S
C2063 C2062 1.376 . S
C2063 C2064 1.388 . S
C2064 H2051 0.930 . S
C2064 C2063 1.388 . S
C2064 C2065 1.390 . S
C2065 C2064 1.390 . S
C2065 C2066 1.394 . S
C2065 C2071 1.465 . S
C2066 C2061 1.399 . S
C2066 C2065 1.394 . S
C2066 C2067 1.516 . S
C2067 C2066 1.516 . S
C2067 C2068 1.502 . S
C2067 C2069 1.561 . S
C2067 C2070 1.526 . S
C2068 H2052 0.959 . S
C2068 H2053 0.959 . S
C2068 H2054 0.961 . S
C2068 C2067 1.502 . S
C2069 H2055 0.960 . S
C2069 H2056 0.961 . S
C2069 H2057 0.959 . S
C2069 C2067 1.561 . S
C2070 C2067 1.526 . S
C2070 C2071 1.396 . S
C2070 C2075 1.390 . S
C2071 C2065 1.465 . S
C2071 C2070 1.396 . S
C2071 C2072 1.399 . S
C2072 H2058 0.929 . S
C2072 C2071 1.399 . S
C2072 C2073 1.385 . S
C2073 H2059 0.931 . S
C2073 C2072 1.385 . S
C2073 C2074 1.389 . S
C2074 C2073 1.389 . S
C2074 C2075 1.387 . S
C2075 H2060 0.930 . S
C2075 C2070 1.390 . S
C2075 C2074 1.387 . S
H2076 C2088 0.930 . S
H2077 C2090 0.930 . S
H2078 C2091 0.930 . S
H2079 C2095 0.959 . S
H2080 C2095 0.959 . S
H2081 C2095 0.961 . S
H2082 C2096 0.960 . S
H2083 C2096 0.961 . S
H2084 C2096 0.959 . S
H2085 C2099 0.929 . S
H2086 C2100 0.931 . S
H2087 C2102 0.930 . S
C2088 H2076 0.930 . S
C2088 C2089 1.399 . S
C2088 C2093 1.399 . S
C2089 C2088 1.399 . S
C2089 C2090 1.376 . S
C2090 H2077 0.930 . S
C2090 C2089 1.376 . S
C2090 C2091 1.388 . S
C2091 H2078 0.930 . S
C2091 C2090 1.388 . S
C2091 C2092 1.390 . S
C2092 C2091 1.390 . S
C2092 C2093 1.394 . S
C2092 C2098 1.465 . S
C2093 C2088 1.399 . S
C2093 C2092 1.394 . S
C2093 C2094 1.516 . S
C2094 C2093 1.516 . S
C2094 C2095 1.502 . S
C2094 C2096 1.561 . S
C2094 C2097 1.526 . S
C2095 H2079 0.959 . S
C2095 H2080 0.959 . S
C2095 H2081 0.961 . S
C2095 C2094 1.502 . S
C2096 H2082 0.960 . S
C2096 H2083 0.961 . S
C2096 H2084 0.959 . S
C2096 C2094 1.561 . S
C2097 C2094 1.526 . S
C2097 C2098 1.396 . S
C2097 C2102 1.390 . S
C2098 C2092 1.465 . S
C2098 C2097 1.396 . S
C2098 C2099 1.399 . S
C2099 H2085 0.929 . S
C2099 C2098 1.399 . S
C2099 C2100 1.385 . S
C2100 H2086 0.931 . S
C2100 C2099 1.385 . S
C2100 C2101 1.389 . S
C2101 C2100 1.389 . S
C2101 C2102 1.387 . S
C2102 H2087 0.930 . S
C2102 C2097 1.390 . S
C2102 C2101 1.387 . S
H2103 C2115 0.930 . S
H2104 C2117 0.930 . S
H2105 C2118 0.930 1_545 S
H2106 C2122 0.959 . S
H2107 C2122 0.959 . S
H2108 C2122 0.961 . S
H2109 C2123 0.960 . S
H2110 C2123 0.961 . S
H2111 C2123 0.959 . S
H2112 C2126 0.929 . S
H2113 C2127 0.931 . S
H2114 C2129 0.930 . S
C2115 H2103 0.930 . S
C2115 C2116 1.399 . S
C2115 C2120 1.399 1_565 S
C2116 C2115 1.399 . S
C2116 C2117 1.376 . S
C2117 H2104 0.930 . S
C2117 C2116 1.376 . S
C2117 C2118 1.388 . S
C2118 H2105 0.930 1_565 S
C2118 C2117 1.388 . S
C2118 C2119 1.390 1_565 S
C2119 C2118 1.390 1_545 S
C2119 C2120 1.394 . S
C2119 C2125 1.465 . S
C2120 C2115 1.399 1_545 S
C2120 C2119 1.394 . S
C2120 C2121 1.516 . S
C2121 C2120 1.516 . S
C2121 C2122 1.502 . S
C2121 C2123 1.561 . S
C2121 C2124 1.526 . S
C2122 H2106 0.959 . S
C2122 H2107 0.959 . S
C2122 H2108 0.961 . S
C2122 C2121 1.502 . S
C2123 H2109 0.960 . S
C2123 H2110 0.961 . S
C2123 H2111 0.959 . S
C2123 C2121 1.561 . S
C2124 C2121 1.526 . S
C2124 C2125 1.396 . S
C2124 C2129 1.390 . S
C2125 C2119 1.465 . S
C2125 C2124 1.396 . S
C2125 C2126 1.399 . S
C2126 H2112 0.929 . S
C2126 C2125 1.399 . S
C2126 C2127 1.385 . S
C2127 H2113 0.931 . S
C2127 C2126 1.385 . S
C2127 C2128 1.389 . S
C2128 C2127 1.389 . S
C2128 C2129 1.387 . S
C2129 H2114 0.930 . S
C2129 C2124 1.390 . S
C2129 C2128 1.387 . S
H2130 C2142 0.930 . S
H2131 C2144 0.930 . S
H2132 C2145 0.930 . S
H2133 C2149 0.959 . S
H2134 C2149 0.959 . S
H2135 C2149 0.961 . S
H2136 C2150 0.960 . S
H2137 C2150 0.961 . S
H2138 C2150 0.959 . S
H2139 C2153 0.929 . S
H2140 C2154 0.931 . S
H2141 C2156 0.930 . S
C2142 H2130 0.930 . S
C2142 C2143 1.399 . S
C2142 C2147 1.399 . S
C2143 C2142 1.399 . S
C2143 C2144 1.376 . S
C2144 H2131 0.930 . S
C2144 C2143 1.376 . S
C2144 C2145 1.388 . S
C2145 H2132 0.930 . S
C2145 C2144 1.388 . S
C2145 C2146 1.390 . S
C2146 C2145 1.390 . S
C2146 C2147 1.394 . S
C2146 C2152 1.465 . S
C2147 C2142 1.399 . S
C2147 C2146 1.394 . S
C2147 C2148 1.516 . S
C2148 C2147 1.516 . S
C2148 C2149 1.502 . S
C2148 C2150 1.561 . S
C2148 C2151 1.526 . S
C2149 H2133 0.959 . S
C2149 H2134 0.959 . S
C2149 H2135 0.961 . S
C2149 C2148 1.502 . S
C2150 H2136 0.960 . S
C2150 H2137 0.961 . S
C2150 H2138 0.959 . S
C2150 C2148 1.561 . S
C2151 C2148 1.526 . S
C2151 C2152 1.396 . S
C2151 C2156 1.390 . S
C2152 C2146 1.465 . S
C2152 C2151 1.396 . S
C2152 C2153 1.399 . S
C2153 H2139 0.929 . S
C2153 C2152 1.399 . S
C2153 C2154 1.385 . S
C2154 H2140 0.931 . S
C2154 C2153 1.385 . S
C2154 C2155 1.389 . S
C2155 C2154 1.389 . S
C2155 C2156 1.387 . S
C2156 H2141 0.930 . S
C2156 C2151 1.390 . S
C2156 C2155 1.387 . S
H2157 C2169 0.930 . S
H2158 C2171 0.930 . S
H2159 C2172 0.930 . S
H2160 C2176 0.959 . S
H2161 C2176 0.959 . S
H2162 C2176 0.961 . S
H2163 C2177 0.960 . S
H2164 C2177 0.961 . S
H2165 C2177 0.959 . S
H2166 C2180 0.929 . S
H2167 C2181 0.931 . S
H2168 C2183 0.930 . S
C2169 H2157 0.930 . S
C2169 C2170 1.399 . S
C2169 C2174 1.399 . S
C2170 C2169 1.399 . S
C2170 C2171 1.376 . S
C2171 H2158 0.930 . S
C2171 C2170 1.376 . S
C2171 C2172 1.388 . S
C2172 H2159 0.930 . S
C2172 C2171 1.388 . S
C2172 C2173 1.390 . S
C2173 C2172 1.390 . S
C2173 C2174 1.394 . S
C2173 C2179 1.465 . S
C2174 C2169 1.399 . S
C2174 C2173 1.394 . S
C2174 C2175 1.516 . S
C2175 C2174 1.516 . S
C2175 C2176 1.502 . S
C2175 C2177 1.561 . S
C2175 C2178 1.526 . S
C2176 H2160 0.959 . S
C2176 H2161 0.959 . S
C2176 H2162 0.961 . S
C2176 C2175 1.502 . S
C2177 H2163 0.960 . S
C2177 H2164 0.961 . S
C2177 H2165 0.959 . S
C2177 C2175 1.561 . S
C2178 C2175 1.526 . S
C2178 C2179 1.396 . S
C2178 C2183 1.390 . S
C2179 C2173 1.465 . S
C2179 C2178 1.396 . S
C2179 C2180 1.399 . S
C2180 H2166 0.929 . S
C2180 C2179 1.399 . S
C2180 C2181 1.385 . S
C2181 H2167 0.931 . S
C2181 C2180 1.385 . S
C2181 C2182 1.389 . S
C2182 C2181 1.389 . S
C2182 C2183 1.387 . S
C2183 H2168 0.930 . S
C2183 C2178 1.390 . S
C2183 C2182 1.387 . S
H2184 C2196 0.930 . S
H2185 C2198 0.930 . S
H2186 C2199 0.930 . S
H2187 C2203 0.959 . S
H2188 C2203 0.959 . S
H2189 C2203 0.961 . S
H2190 C2204 0.960 . S
H2191 C2204 0.961 . S
H2192 C2204 0.959 . S
H2193 C2207 0.929 . S
H2194 C2208 0.931 . S
H2195 C2210 0.930 . S
C2196 H2184 0.930 . S
C2196 C2197 1.399 . S
C2196 C2201 1.399 . S
C2197 C2196 1.399 . S
C2197 C2198 1.376 . S
C2198 H2185 0.930 . S
C2198 C2197 1.376 . S
C2198 C2199 1.388 . S
C2199 H2186 0.930 . S
C2199 C2198 1.388 . S
C2199 C2200 1.390 . S
C2200 C2199 1.390 . S
C2200 C2201 1.394 . S
C2200 C2206 1.465 . S
C2201 C2196 1.399 . S
C2201 C2200 1.394 . S
C2201 C2202 1.516 . S
C2202 C2201 1.516 . S
C2202 C2203 1.502 . S
C2202 C2204 1.561 . S
C2202 C2205 1.526 . S
C2203 H2187 0.959 . S
C2203 H2188 0.959 . S
C2203 H2189 0.961 . S
C2203 C2202 1.502 . S
C2204 H2190 0.960 . S
C2204 H2191 0.961 . S
C2204 H2192 0.959 . S
C2204 C2202 1.561 . S
C2205 C2202 1.526 . S
C2205 C2206 1.396 . S
C2205 C2210 1.390 . S
C2206 C2200 1.465 . S
C2206 C2205 1.396 . S
C2206 C2207 1.399 . S
C2207 H2193 0.929 . S
C2207 C2206 1.399 . S
C2207 C2208 1.385 . S
C2208 H2194 0.931 . S
C2208 C2207 1.385 . S
C2208 C2209 1.389 . S
C2209 C2208 1.389 . S
C2209 C2210 1.387 . S
C2210 H2195 0.930 . S
C2210 C2205 1.390 . S
C2210 C2209 1.387 . S
H2211 C2223 0.930 . S
H2212 C2225 0.930 . S
H2213 C2226 0.930 . S
H2214 C2230 0.959 . S
H2215 C2230 0.959 . S
H2216 C2230 0.961 . S
H2217 C2231 0.960 . S
H2218 C2231 0.961 . S
H2219 C2231 0.959 . S
H2220 C2234 0.929 . S
H2221 C2235 0.931 . S
H2222 C2237 0.930 . S
C2223 H2211 0.930 . S
C2223 C2224 1.399 . S
C2223 C2228 1.399 . S
C2224 C2223 1.399 . S
C2224 C2225 1.376 . S
C2225 H2212 0.930 . S
C2225 C2224 1.376 . S
C2225 C2226 1.388 . S
C2226 H2213 0.930 . S
C2226 C2225 1.388 . S
C2226 C2227 1.390 . S
C2227 C2226 1.390 . S
C2227 C2228 1.394 . S
C2227 C2233 1.465 . S
C2228 C2223 1.399 . S
C2228 C2227 1.394 . S
C2228 C2229 1.516 . S
C2229 C2228 1.516 . S
C2229 C2230 1.502 . S
C2229 C2231 1.561 . S
C2229 C2232 1.526 . S
C2230 H2214 0.959 . S
C2230 H2215 0.959 . S
C2230 H2216 0.961 . S
C2230 C2229 1.502 . S
C2231 H2217 0.960 . S
C2231 H2218 0.961 . S
C2231 H2219 0.959 . S
C2231 C2229 1.561 . S
C2232 C2229 1.526 . S
C2232 C2233 1.396 . S
C2232 C2237 1.390 . S
C2233 C2227 1.465 . S
C2233 C2232 1.396 . S
C2233 C2234 1.399 . S
C2234 H2220 0.929 . S
C2234 C2233 1.399 . S
C2234 C2235 1.385 . S
C2235 H2221 0.931 . S
C2235 C2234 1.385 . S
C2235 C2236 1.389 . S
C2236 C2235 1.389 . S
C2236 C2237 1.387 . S
C2237 H2222 0.930 . S
C2237 C2232 1.390 . S
C2237 C2236 1.387 . S
H2238 C2250 0.930 . S
H2239 C2252 0.930 . S
H2240 C2253 0.930 . S
H2241 C2257 0.959 . S
H2242 C2257 0.959 . S
H2243 C2257 0.961 . S
H2244 C2258 0.960 . S
H2245 C2258 0.961 . S
H2246 C2258 0.959 . S
H2247 C2261 0.929 . S
H2248 C2262 0.931 . S
H2249 C2264 0.930 . S
C2250 H2238 0.930 . S
C2250 C2251 1.399 . S
C2250 C2255 1.399 . S
C2251 C2250 1.399 . S
C2251 C2252 1.376 . S
C2252 H2239 0.930 . S
C2252 C2251 1.376 . S
C2252 C2253 1.388 . S
C2253 H2240 0.930 . S
C2253 C2252 1.388 . S
C2253 C2254 1.390 . S
C2254 C2253 1.390 . S
C2254 C2255 1.394 . S
C2254 C2260 1.465 . S
C2255 C2250 1.399 . S
C2255 C2254 1.394 . S
C2255 C2256 1.516 . S
C2256 C2255 1.516 . S
C2256 C2257 1.502 . S
C2256 C2258 1.561 . S
C2256 C2259 1.526 . S
C2257 H2241 0.959 . S
C2257 H2242 0.959 . S
C2257 H2243 0.961 . S
C2257 C2256 1.502 . S
C2258 H2244 0.960 . S
C2258 H2245 0.961 . S
C2258 H2246 0.959 . S
C2258 C2256 1.561 . S
C2259 C2256 1.526 . S
C2259 C2260 1.396 . S
C2259 C2264 1.390 . S
C2260 C2254 1.465 . S
C2260 C2259 1.396 . S
C2260 C2261 1.399 . S
C2261 H2247 0.929 . S
C2261 C2260 1.399 . S
C2261 C2262 1.385 . S
C2262 H2248 0.931 . S
C2262 C2261 1.385 . S
C2262 C2263 1.389 . S
C2263 C2262 1.389 . S
C2263 C2264 1.387 . S
C2264 H2249 0.930 . S
C2264 C2259 1.390 . S
C2264 C2263 1.387 . S
H2265 C2277 0.930 . S
H2266 C2279 0.930 . S
H2267 C2280 0.930 . S
H2268 C2284 0.959 . S
H2269 C2284 0.959 . S
H2270 C2284 0.961 . S
H2271 C2285 0.960 . S
H2272 C2285 0.961 . S
H2273 C2285 0.959 . S
H2274 C2288 0.929 . S
H2275 C2289 0.931 . S
H2276 C2291 0.930 . S
C2277 H2265 0.930 . S
C2277 C2278 1.399 . S
C2277 C2282 1.399 . S
C2278 C2277 1.399 . S
C2278 C2279 1.376 . S
C2279 H2266 0.930 . S
C2279 C2278 1.376 . S
C2279 C2280 1.388 . S
C2280 H2267 0.930 . S
C2280 C2279 1.388 . S
C2280 C2281 1.390 . S
C2281 C2280 1.390 . S
C2281 C2282 1.394 . S
C2281 C2287 1.465 . S
C2282 C2277 1.399 . S
C2282 C2281 1.394 . S
C2282 C2283 1.516 . S
C2283 C2282 1.516 . S
C2283 C2284 1.502 . S
C2283 C2285 1.561 . S
C2283 C2286 1.526 . S
C2284 H2268 0.959 . S
C2284 H2269 0.959 . S
C2284 H2270 0.961 . S
C2284 C2283 1.502 . S
C2285 H2271 0.960 . S
C2285 H2272 0.961 . S
C2285 H2273 0.959 . S
C2285 C2283 1.561 . S
C2286 C2283 1.526 . S
C2286 C2287 1.396 . S
C2286 C2291 1.390 . S
C2287 C2281 1.465 . S
C2287 C2286 1.396 . S
C2287 C2288 1.399 . S
C2288 H2274 0.929 . S
C2288 C2287 1.399 . S
C2288 C2289 1.385 . S
C2289 H2275 0.931 . S
C2289 C2288 1.385 . S
C2289 C2290 1.389 . S
C2290 C2289 1.389 . S
C2290 C2291 1.387 . S
C2291 H2276 0.930 . S
C2291 C2286 1.390 . S
C2291 C2290 1.387 . S
H2292 C2304 0.930 . S
H2293 C2306 0.930 . S
H2294 C2307 0.930 . S
H2295 C2311 0.959 . S
H2296 C2311 0.959 . S
H2297 C2311 0.961 . S
H2298 C2312 0.936 1_455 S
H2299 C2312 0.961 . S
H2300 C2312 0.959 . S
H2301 C2315 0.929 . S
H2302 C2316 0.931 . S
H2303 C2318 0.930 . S
C2304 H2292 0.930 . S
C2304 C2305 1.399 . S
C2304 C2309 1.399 1_455 S
C2305 C2304 1.399 . S
C2305 C2306 1.376 . S
C2306 H2293 0.930 . S
C2306 C2305 1.376 . S
C2306 C2307 1.388 . S
C2307 H2294 0.930 . S
C2307 C2306 1.388 . S
C2307 C2308 1.390 1_455 S
C2308 C2307 1.390 1_655 S
C2308 C2309 1.394 . S
C2308 C2314 1.465 . S
C2309 C2304 1.399 1_655 S
C2309 C2308 1.394 . S
C2309 C2310 1.516 . S
C2310 C2309 1.516 . S
C2310 C2311 1.502 . S
C2310 C2312 1.561 . S
C2310 C2313 1.526 . S
C2311 H2295 0.959 . S
C2311 H2296 0.959 . S
C2311 H2297 0.961 . S
C2311 C2310 1.502 . S
C2312 H2298 0.936 1_655 S
C2312 H2299 0.961 . S
C2312 H2300 0.959 . S
C2312 C2310 1.561 . S
C2313 C2310 1.526 . S
C2313 C2314 1.396 . S
C2313 C2318 1.390 . S
C2314 C2308 1.465 . S
C2314 C2313 1.396 . S
C2314 C2315 1.399 . S
C2315 H2301 0.929 . S
C2315 C2314 1.399 . S
C2315 C2316 1.385 . S
C2316 H2302 0.931 . S
C2316 C2315 1.385 . S
C2316 C2317 1.389 . S
C2317 C2316 1.389 . S
C2317 C2318 1.387 . S
C2318 H2303 0.930 . S
C2318 C2313 1.390 . S
C2318 C2317 1.387 . S
H2319 C2331 0.930 . S
H2320 C2333 0.930 . S
H2321 C2334 0.930 . S
H2322 C2338 0.959 . S
H2323 C2338 0.959 . S
H2324 C2338 0.961 . S
H2325 C2339 0.960 . S
H2326 C2339 0.961 . S
H2327 C2339 0.959 . S
H2328 C2342 0.929 . S
H2329 C2343 0.931 . S
H2330 C2345 0.930 . S
C2331 H2319 0.930 . S
C2331 C2332 1.399 . S
C2331 C2336 1.399 . S
C2332 C2331 1.399 . S
C2332 C2333 1.376 . S
C2333 H2320 0.930 . S
C2333 C2332 1.376 . S
C2333 C2334 1.388 . S
C2334 H2321 0.930 . S
C2334 C2333 1.388 . S
C2334 C2335 1.390 . S
C2335 C2334 1.390 . S
C2335 C2336 1.394 . S
C2335 C2341 1.465 . S
C2336 C2331 1.399 . S
C2336 C2335 1.394 . S
C2336 C2337 1.516 . S
C2337 C2336 1.516 . S
C2337 C2338 1.502 . S
C2337 C2339 1.561 . S
C2337 C2340 1.526 . S
C2338 H2322 0.959 . S
C2338 H2323 0.959 . S
C2338 H2324 0.961 . S
C2338 C2337 1.502 . S
C2339 H2325 0.960 . S
C2339 H2326 0.961 . S
C2339 H2327 0.959 . S
C2339 C2337 1.561 . S
C2340 C2337 1.526 . S
C2340 C2341 1.396 . S
C2340 C2345 1.390 . S
C2341 C2335 1.465 . S
C2341 C2340 1.396 . S
C2341 C2342 1.399 . S
C2342 H2328 0.929 . S
C2342 C2341 1.399 . S
C2342 C2343 1.385 . S
C2343 H2329 0.931 . S
C2343 C2342 1.385 . S
C2343 C2344 1.389 . S
C2344 C2343 1.389 . S
C2344 C2345 1.387 . S
C2345 H2330 0.930 . S
C2345 C2340 1.390 . S
C2345 C2344 1.387 . S
H2346 C2358 0.930 . S
H2347 C2360 0.930 . S
H2348 C2361 0.930 . S
H2349 C2365 0.959 . S
H2350 C2365 0.959 . S
H2351 C2365 0.961 . S
H2352 C2366 0.960 . S
H2353 C2366 0.961 . S
H2354 C2366 0.959 . S
H2355 C2369 0.929 . S
H2356 C2370 0.931 . S
H2357 C2372 0.930 . S
C2358 H2346 0.930 . S
C2358 C2359 1.399 . S
C2358 C2363 1.399 . S
C2359 C2358 1.399 . S
C2359 C2360 1.376 . S
C2360 H2347 0.930 . S
C2360 C2359 1.376 . S
C2360 C2361 1.388 . S
C2361 H2348 0.930 . S
C2361 C2360 1.388 . S
C2361 C2362 1.390 . S
C2362 C2361 1.390 . S
C2362 C2363 1.394 . S
C2362 C2368 1.465 . S
C2363 C2358 1.399 . S
C2363 C2362 1.394 . S
C2363 C2364 1.516 . S
C2364 C2363 1.516 . S
C2364 C2365 1.502 . S
C2364 C2366 1.561 . S
C2364 C2367 1.526 . S
C2365 H2349 0.959 . S
C2365 H2350 0.959 . S
C2365 H2351 0.961 . S
C2365 C2364 1.502 . S
C2366 H2352 0.960 . S
C2366 H2353 0.961 . S
C2366 H2354 0.959 . S
C2366 C2364 1.561 . S
C2367 C2364 1.526 . S
C2367 C2368 1.396 . S
C2367 C2372 1.390 . S
C2368 C2362 1.465 . S
C2368 C2367 1.396 . S
C2368 C2369 1.399 . S
C2369 H2355 0.929 . S
C2369 C2368 1.399 . S
C2369 C2370 1.385 . S
C2370 H2356 0.931 . S
C2370 C2369 1.385 . S
C2370 C2371 1.389 . S
C2371 C2370 1.389 . S
C2371 C2372 1.387 . S
C2372 H2357 0.930 . S
C2372 C2367 1.390 . S
C2372 C2371 1.387 . S
H2373 C2385 0.930 . S
H2374 C2387 0.930 . S
H2375 C2388 0.930 . S
H2376 C2392 0.959 . S
H2377 C2392 0.959 . S
H2378 C2392 0.961 . S
H2379 C2393 0.960 . S
H2380 C2393 0.961 . S
H2381 C2393 0.959 . S
H2382 C2396 0.929 . S
H2383 C2397 0.931 . S
H2384 C2399 0.930 . S
C2385 H2373 0.930 . S
C2385 C2386 1.399 . S
C2385 C2390 1.399 . S
C2386 C2385 1.399 . S
C2386 C2387 1.376 . S
C2387 H2374 0.930 . S
C2387 C2386 1.376 . S
C2387 C2388 1.388 . S
C2388 H2375 0.930 . S
C2388 C2387 1.388 . S
C2388 C2389 1.390 . S
C2389 C2388 1.390 . S
C2389 C2390 1.394 . S
C2389 C2395 1.465 . S
C2390 C2385 1.399 . S
C2390 C2389 1.394 . S
C2390 C2391 1.516 . S
C2391 C2390 1.516 . S
C2391 C2392 1.502 . S
C2391 C2393 1.561 . S
C2391 C2394 1.526 . S
C2392 H2376 0.959 . S
C2392 H2377 0.959 . S
C2392 H2378 0.961 . S
C2392 C2391 1.502 . S
C2393 H2379 0.960 . S
C2393 H2380 0.961 . S
C2393 H2381 0.959 . S
C2393 C2391 1.561 . S
C2394 C2391 1.526 . S
C2394 C2395 1.396 . S
C2394 C2399 1.390 . S
C2395 C2389 1.465 . S
C2395 C2394 1.396 . S
C2395 C2396 1.399 . S
C2396 H2382 0.929 . S
C2396 C2395 1.399 . S
C2396 C2397 1.385 . S
C2397 H2383 0.931 . S
C2397 C2396 1.385 . S
C2397 C2398 1.389 . S
C2398 C2397 1.389 . S
C2398 C2399 1.387 . S
C2399 H2384 0.930 . S
C2399 C2394 1.390 . S
C2399 C2398 1.387 . S
H2400 C2412 0.930 . S
H2401 C2414 0.930 . S
H2402 C2415 0.930 . S
H2403 C2419 0.959 . S
H2404 C2419 0.959 . S
H2405 C2419 0.961 . S
H2406 C2420 0.960 . S
H2407 C2420 0.961 . S
H2408 C2420 0.959 . S
H2409 C2423 0.929 . S
H2410 C2424 0.931 . S
H2411 C2426 0.930 . S
C2412 H2400 0.930 . S
C2412 C2413 1.399 . S
C2412 C2417 1.399 . S
C2413 C2412 1.399 . S
C2413 C2414 1.376 . S
C2414 H2401 0.930 . S
C2414 C2413 1.376 . S
C2414 C2415 1.388 . S
C2415 H2402 0.930 . S
C2415 C2414 1.388 . S
C2415 C2416 1.390 . S
C2416 C2415 1.390 . S
C2416 C2417 1.394 . S
C2416 C2422 1.465 . S
C2417 C2412 1.399 . S
C2417 C2416 1.394 . S
C2417 C2418 1.516 . S
C2418 C2417 1.516 . S
C2418 C2419 1.502 . S
C2418 C2420 1.561 . S
C2418 C2421 1.526 . S
C2419 H2403 0.959 . S
C2419 H2404 0.959 . S
C2419 H2405 0.961 . S
C2419 C2418 1.502 . S
C2420 H2406 0.960 . S
C2420 H2407 0.961 . S
C2420 H2408 0.959 . S
C2420 C2418 1.561 . S
C2421 C2418 1.526 . S
C2421 C2422 1.396 . S
C2421 C2426 1.390 . S
C2422 C2416 1.465 . S
C2422 C2421 1.396 . S
C2422 C2423 1.399 . S
C2423 H2409 0.929 . S
C2423 C2422 1.399 . S
C2423 C2424 1.385 . S
C2424 H2410 0.931 . S
C2424 C2423 1.385 . S
C2424 C2425 1.389 . S
C2425 C2424 1.389 . S
C2425 C2426 1.387 . S
C2426 H2411 0.930 . S
C2426 C2421 1.390 . S
C2426 C2425 1.387 . S
H2427 C2439 0.930 . S
H2428 C2441 0.930 . S
H2429 C2442 0.930 . S
H2430 C2446 0.959 . S
H2431 C2446 0.959 . S
H2432 C2446 0.961 . S
H2433 C2447 0.960 . S
H2434 C2447 0.961 . S
H2435 C2447 0.959 . S
H2436 C2450 0.929 . S
H2437 C2451 0.931 . S
H2438 C2453 0.930 . S
C2439 H2427 0.930 . S
C2439 C2440 1.399 . S
C2439 C2444 1.399 . S
C2440 C2439 1.399 . S
C2440 C2441 1.376 . S
C2441 H2428 0.930 . S
C2441 C2440 1.376 . S
C2441 C2442 1.388 . S
C2442 H2429 0.930 . S
C2442 C2441 1.388 . S
C2442 C2443 1.390 . S
C2443 C2442 1.390 . S
C2443 C2444 1.394 . S
C2443 C2449 1.465 . S
C2444 C2439 1.399 . S
C2444 C2443 1.394 . S
C2444 C2445 1.516 . S
C2445 C2444 1.516 . S
C2445 C2446 1.502 . S
C2445 C2447 1.561 . S
C2445 C2448 1.526 . S
C2446 H2430 0.959 . S
C2446 H2431 0.959 . S
C2446 H2432 0.961 . S
C2446 C2445 1.502 . S
C2447 H2433 0.960 . S
C2447 H2434 0.961 . S
C2447 H2435 0.959 . S
C2447 C2445 1.561 . S
C2448 C2445 1.526 . S
C2448 C2449 1.396 . S
C2448 C2453 1.390 . S
C2449 C2443 1.465 . S
C2449 C2448 1.396 . S
C2449 C2450 1.399 . S
C2450 H2436 0.929 . S
C2450 C2449 1.399 . S
C2450 C2451 1.385 . S
C2451 H2437 0.931 . S
C2451 C2450 1.385 . S
C2451 C2452 1.389 . S
C2452 C2451 1.389 . S
C2452 C2453 1.387 . S
C2453 H2438 0.930 . S
C2453 C2448 1.390 . S
C2453 C2452 1.387 . S
H2454 C2466 0.930 . S
H2455 C2468 0.930 . S
H2456 C2469 0.930 . S
H2457 C2473 0.959 . S
H2458 C2473 0.959 . S
H2459 C2473 0.961 . S
H2460 C2474 0.960 . S
H2461 C2474 0.961 . S
H2462 C2474 0.959 . S
H2463 C2477 0.929 . S
H2464 C2478 0.931 . S
H2465 C2480 0.930 . S
C2466 H2454 0.930 . S
C2466 C2467 1.399 . S
C2466 C2471 1.399 . S
C2467 C2466 1.399 . S
C2467 C2468 1.376 . S
C2468 H2455 0.930 . S
C2468 C2467 1.376 . S
C2468 C2469 1.388 . S
C2469 H2456 0.930 . S
C2469 C2468 1.388 . S
C2469 C2470 1.390 . S
C2470 C2469 1.390 . S
C2470 C2471 1.394 . S
C2470 C2476 1.465 . S
C2471 C2466 1.399 . S
C2471 C2470 1.394 . S
C2471 C2472 1.516 . S
C2472 C2471 1.516 . S
C2472 C2473 1.502 . S
C2472 C2474 1.561 . S
C2472 C2475 1.526 . S
C2473 H2457 0.959 . S
C2473 H2458 0.959 . S
C2473 H2459 0.961 . S
C2473 C2472 1.502 . S
C2474 H2460 0.960 . S
C2474 H2461 0.961 . S
C2474 H2462 0.959 . S
C2474 C2472 1.561 . S
C2475 C2472 1.526 . S
C2475 C2476 1.396 . S
C2475 C2480 1.390 . S
C2476 C2470 1.465 . S
C2476 C2475 1.396 . S
C2476 C2477 1.399 . S
C2477 H2463 0.929 . S
C2477 C2476 1.399 . S
C2477 C2478 1.385 . S
C2478 H2464 0.931 . S
C2478 C2477 1.385 . S
C2478 C2479 1.389 . S
C2479 C2478 1.389 . S
C2479 C2480 1.387 . S
C2480 H2465 0.930 . S
C2480 C2475 1.390 . S
C2480 C2479 1.387 . S
H2481 C2493 0.930 . S
H2482 C2495 0.930 . S
H2483 C2496 0.930 . S
H2484 C2500 0.959 . S
H2485 C2500 0.959 . S
H2486 C2500 0.961 . S
H2487 C2501 0.960 . S
H2488 C2501 0.961 . S
H2489 C2501 0.959 . S
H2490 C2504 0.929 . S
H2491 C2505 0.931 . S
H2492 C2507 0.930 . S
C2493 H2481 0.930 . S
C2493 C2494 1.399 . S
C2493 C2498 1.399 . S
C2494 C2493 1.399 . S
C2494 C2495 1.376 . S
C2495 H2482 0.930 . S
C2495 C2494 1.376 . S
C2495 C2496 1.388 . S
C2496 H2483 0.930 . S
C2496 C2495 1.388 . S
C2496 C2497 1.390 . S
C2497 C2496 1.390 . S
C2497 C2498 1.394 . S
C2497 C2503 1.465 . S
C2498 C2493 1.399 . S
C2498 C2497 1.394 . S
C2498 C2499 1.516 . S
C2499 C2498 1.516 . S
C2499 C2500 1.502 . S
C2499 C2501 1.561 . S
C2499 C2502 1.526 . S
C2500 H2484 0.959 . S
C2500 H2485 0.959 . S
C2500 H2486 0.961 . S
C2500 C2499 1.502 . S
C2501 H2487 0.960 . S
C2501 H2488 0.961 . S
C2501 H2489 0.959 . S
C2501 C2499 1.561 . S
C2502 C2499 1.526 . S
C2502 C2503 1.396 . S
C2502 C2507 1.390 . S
C2503 C2497 1.465 . S
C2503 C2502 1.396 . S
C2503 C2504 1.399 . S
C2504 H2490 0.929 . S
C2504 C2503 1.399 . S
C2504 C2505 1.385 . S
C2505 H2491 0.931 . S
C2505 C2504 1.385 . S
C2505 C2506 1.389 . S
C2506 C2505 1.389 . S
C2506 C2507 1.387 . S
C2507 H2492 0.930 . S
C2507 C2502 1.390 . S
C2507 C2506 1.387 . S
H2508 C2520 0.930 . S
H2509 C2522 0.930 . S
H2510 C2523 0.930 . S
H2511 C2527 0.959 . S
H2512 C2527 0.959 . S
H2513 C2527 0.961 . S
H2514 C2528 0.960 . S
H2515 C2528 0.961 . S
H2516 C2528 0.959 . S
H2517 C2531 0.929 . S
H2518 C2532 0.931 . S
H2519 C2534 0.930 . S
C2520 H2508 0.930 . S
C2520 C2521 1.399 . S
C2520 C2525 1.399 . S
C2521 C2520 1.399 . S
C2521 C2522 1.376 . S
C2522 H2509 0.930 . S
C2522 C2521 1.376 . S
C2522 C2523 1.388 . S
C2523 H2510 0.930 . S
C2523 C2522 1.388 . S
C2523 C2524 1.390 . S
C2524 C2523 1.390 . S
C2524 C2525 1.394 . S
C2524 C2530 1.465 . S
C2525 C2520 1.399 . S
C2525 C2524 1.394 . S
C2525 C2526 1.516 . S
C2526 C2525 1.516 . S
C2526 C2527 1.502 . S
C2526 C2528 1.561 . S
C2526 C2529 1.526 . S
C2527 H2511 0.959 . S
C2527 H2512 0.959 . S
C2527 H2513 0.961 . S
C2527 C2526 1.502 . S
C2528 H2514 0.960 . S
C2528 H2515 0.961 . S
C2528 H2516 0.959 . S
C2528 C2526 1.561 . S
C2529 C2526 1.526 . S
C2529 C2530 1.396 . S
C2529 C2534 1.390 . S
C2530 C2524 1.465 . S
C2530 C2529 1.396 . S
C2530 C2531 1.399 . S
C2531 H2517 0.929 . S
C2531 C2530 1.399 . S
C2531 C2532 1.385 . S
C2532 H2518 0.931 . S
C2532 C2531 1.385 . S
C2532 C2533 1.389 . S
C2533 C2532 1.389 . S
C2533 C2534 1.387 . S
C2534 H2519 0.930 . S
C2534 C2529 1.390 . S
C2534 C2533 1.387 . S
H2535 C2547 0.930 . S
H2536 C2549 0.930 . S
H2537 C2550 0.930 . S
H2538 C2554 0.959 . S
H2539 C2554 0.959 . S
H2540 C2554 0.961 . S
H2541 C2555 0.960 . S
H2542 C2555 0.961 . S
H2543 C2555 0.959 . S
H2544 C2558 0.929 . S
H2545 C2559 0.931 . S
H2546 C2561 0.930 . S
C2547 H2535 0.930 . S
C2547 C2548 1.399 . S
C2547 C2552 1.399 . S
C2548 C2547 1.399 . S
C2548 C2549 1.376 . S
C2549 H2536 0.930 . S
C2549 C2548 1.376 . S
C2549 C2550 1.388 . S
C2550 H2537 0.930 . S
C2550 C2549 1.388 . S
C2550 C2551 1.390 . S
C2551 C2550 1.390 . S
C2551 C2552 1.394 . S
C2551 C2557 1.465 . S
C2552 C2547 1.399 . S
C2552 C2551 1.394 . S
C2552 C2553 1.516 . S
C2553 C2552 1.516 . S
C2553 C2554 1.502 . S
C2553 C2555 1.561 . S
C2553 C2556 1.526 . S
C2554 H2538 0.959 . S
C2554 H2539 0.959 . S
C2554 H2540 0.961 . S
C2554 C2553 1.502 . S
C2555 H2541 0.960 . S
C2555 H2542 0.961 . S
C2555 H2543 0.959 . S
C2555 C2553 1.561 . S
C2556 C2553 1.526 . S
C2556 C2557 1.396 . S
C2556 C2561 1.390 . S
C2557 C2551 1.465 . S
C2557 C2556 1.396 . S
C2557 C2558 1.399 . S
C2558 H2544 0.929 . S
C2558 C2557 1.399 . S
C2558 C2559 1.385 . S
C2559 H2545 0.931 . S
C2559 C2558 1.385 . S
C2559 C2560 1.389 . S
C2560 C2559 1.389 . S
C2560 C2561 1.387 . S
C2561 H2546 0.930 . S
C2561 C2556 1.390 . S
C2561 C2560 1.387 . S
H2562 C2574 0.930 . S
H2563 C2576 0.930 . S
H2564 C2577 0.930 . S
H2565 C2581 0.959 . S
H2566 C2581 0.959 . S
H2567 C2581 0.961 . S
H2568 C2582 0.960 . S
H2569 C2582 0.961 . S
H2570 C2582 0.959 . S
H2571 C2585 0.929 . S
H2572 C2586 0.931 . S
H2573 C2588 0.930 . S
C2574 H2562 0.930 . S
C2574 C2575 1.399 . S
C2574 C2579 1.399 . S
C2575 C2574 1.399 . S
C2575 C2576 1.376 . S
C2576 H2563 0.930 . S
C2576 C2575 1.376 . S
C2576 C2577 1.388 . S
C2577 H2564 0.930 . S
C2577 C2576 1.388 . S
C2577 C2578 1.390 . S
C2578 C2577 1.390 . S
C2578 C2579 1.394 . S
C2578 C2584 1.465 . S
C2579 C2574 1.399 . S
C2579 C2578 1.394 . S
C2579 C2580 1.516 . S
C2580 C2579 1.516 . S
C2580 C2581 1.502 . S
C2580 C2582 1.561 . S
C2580 C2583 1.526 . S
C2581 H2565 0.959 . S
C2581 H2566 0.959 . S
C2581 H2567 0.961 . S
C2581 C2580 1.502 . S
C2582 H2568 0.960 . S
C2582 H2569 0.961 . S
C2582 H2570 0.959 . S
C2582 C2580 1.561 . S
C2583 C2580 1.526 . S
C2583 C2584 1.396 . S
C2583 C2588 1.390 . S
C2584 C2578 1.465 . S
C2584 C2583 1.396 . S
C2584 C2585 1.399 . S
C2585 H2571 0.929 . S
C2585 C2584 1.399 . S
C2585 C2586 1.385 . S
C2586 H2572 0.931 . S
C2586 C2585 1.385 . S
C2586 C2587 1.389 . S
C2587 C2586 1.389 . S
C2587 C2588 1.387 . S
C2588 H2573 0.930 . S
C2588 C2583 1.390 . S
C2588 C2587 1.387 . S
H2589 C2601 0.930 . S
H2590 C2603 0.930 . S
H2591 C2604 0.930 . S
H2592 C2608 0.959 . S
H2593 C2608 0.959 . S
H2594 C2608 0.961 . S
H2595 C2609 0.960 . S
H2596 C2609 0.961 . S
H2597 C2609 0.959 . S
H2598 C2612 0.929 . S
H2599 C2613 0.931 . S
H2600 C2615 0.930 . S
C2601 H2589 0.930 . S
C2601 C2602 1.399 . S
C2601 C2606 1.399 . S
C2602 C2601 1.399 . S
C2602 C2603 1.376 . S
C2603 H2590 0.930 . S
C2603 C2602 1.376 . S
C2603 C2604 1.388 . S
C2604 H2591 0.930 . S
C2604 C2603 1.388 . S
C2604 C2605 1.390 . S
C2605 C2604 1.390 . S
C2605 C2606 1.394 . S
C2605 C2611 1.465 . S
C2606 C2601 1.399 . S
C2606 C2605 1.394 . S
C2606 C2607 1.516 . S
C2607 C2606 1.516 . S
C2607 C2608 1.502 . S
C2607 C2609 1.561 . S
C2607 C2610 1.526 . S
C2608 H2592 0.959 . S
C2608 H2593 0.959 . S
C2608 H2594 0.961 . S
C2608 C2607 1.502 . S
C2609 H2595 0.960 . S
C2609 H2596 0.961 . S
C2609 H2597 0.959 . S
C2609 C2607 1.561 . S
C2610 C2607 1.526 . S
C2610 C2611 1.396 . S
C2610 C2615 1.390 . S
C2611 C2605 1.465 . S
C2611 C2610 1.396 . S
C2611 C2612 1.399 . S
C2612 H2598 0.929 . S
C2612 C2611 1.399 . S
C2612 C2613 1.385 . S
C2613 H2599 0.931 . S
C2613 C2612 1.385 . S
C2613 C2614 1.389 . S
C2614 C2613 1.389 . S
C2614 C2615 1.387 . S
C2615 H2600 0.930 . S
C2615 C2610 1.390 . S
C2615 C2614 1.387 . S
H2616 C2628 0.930 . S
H2617 C2630 0.930 . S
H2618 C2631 0.930 . S
H2619 C2635 0.959 . S
H2620 C2635 0.959 . S
H2621 C2635 0.961 . S
H2622 C2636 0.960 . S
H2623 C2636 0.961 . S
H2624 C2636 0.959 . S
H2625 C2639 0.929 . S
H2626 C2640 0.931 . S
H2627 C2642 0.930 . S
C2628 H2616 0.930 . S
C2628 C2629 1.399 . S
C2628 C2633 1.399 . S
C2629 C2628 1.399 . S
C2629 C2630 1.376 . S
C2630 H2617 0.930 . S
C2630 C2629 1.376 . S
C2630 C2631 1.388 . S
C2631 H2618 0.930 . S
C2631 C2630 1.388 . S
C2631 C2632 1.390 . S
C2632 C2631 1.390 . S
C2632 C2633 1.394 . S
C2632 C2638 1.465 . S
C2633 C2628 1.399 . S
C2633 C2632 1.394 . S
C2633 C2634 1.516 . S
C2634 C2633 1.516 . S
C2634 C2635 1.502 . S
C2634 C2636 1.561 . S
C2634 C2637 1.526 . S
C2635 H2619 0.959 . S
C2635 H2620 0.959 . S
C2635 H2621 0.961 . S
C2635 C2634 1.502 . S
C2636 H2622 0.960 . S
C2636 H2623 0.961 . S
C2636 H2624 0.959 . S
C2636 C2634 1.561 . S
C2637 C2634 1.526 . S
C2637 C2638 1.396 . S
C2637 C2642 1.390 . S
C2638 C2632 1.465 . S
C2638 C2637 1.396 . S
C2638 C2639 1.399 . S
C2639 H2625 0.929 . S
C2639 C2638 1.399 . S
C2639 C2640 1.385 . S
C2640 H2626 0.931 . S
C2640 C2639 1.385 . S
C2640 C2641 1.389 . S
C2641 C2640 1.389 . S
C2641 C2642 1.387 . S
C2642 H2627 0.930 . S
C2642 C2637 1.390 . S
C2642 C2641 1.387 . S
H2643 C2655 0.930 . S
H2644 C2657 0.930 . S
H2645 C2658 0.930 . S
H2646 C2662 0.959 . S
H2647 C2662 0.959 . S
H2648 C2662 0.961 . S
H2649 C2663 0.960 . S
H2650 C2663 0.961 . S
H2651 C2663 0.959 . S
H2652 C2666 0.929 . S
H2653 C2667 0.931 . S
H2654 C2669 0.930 . S
C2655 H2643 0.930 . S
C2655 C2656 1.399 . S
C2655 C2660 1.399 . S
C2656 C2655 1.399 . S
C2656 C2657 1.376 . S
C2657 H2644 0.930 . S
C2657 C2656 1.376 . S
C2657 C2658 1.388 . S
C2658 H2645 0.930 . S
C2658 C2657 1.388 . S
C2658 C2659 1.390 . S
C2659 C2658 1.390 . S
C2659 C2660 1.394 . S
C2659 C2665 1.465 . S
C2660 C2655 1.399 . S
C2660 C2659 1.394 . S
C2660 C2661 1.516 . S
C2661 C2660 1.516 . S
C2661 C2662 1.502 . S
C2661 C2663 1.561 . S
C2661 C2664 1.526 . S
C2662 H2646 0.959 . S
C2662 H2647 0.959 . S
C2662 H2648 0.961 . S
C2662 C2661 1.502 . S
C2663 H2649 0.960 . S
C2663 H2650 0.961 . S
C2663 H2651 0.959 . S
C2663 C2661 1.561 . S
C2664 C2661 1.526 . S
C2664 C2665 1.396 . S
C2664 C2669 1.390 . S
C2665 C2659 1.465 . S
C2665 C2664 1.396 . S
C2665 C2666 1.399 . S
C2666 H2652 0.929 . S
C2666 C2665 1.399 . S
C2666 C2667 1.385 . S
C2667 H2653 0.931 . S
C2667 C2666 1.385 . S
C2667 C2668 1.389 . S
C2668 C2667 1.389 . S
C2668 C2669 1.387 . S
C2669 H2654 0.930 . S
C2669 C2664 1.390 . S
C2669 C2668 1.387 . S
H2670 C2682 0.930 . S
H2671 C2684 0.930 . S
H2672 C2685 0.930 . S
H2673 C2689 0.959 . S
H2674 C2689 0.959 . S
H2675 C2689 0.961 . S
H2676 C2690 0.960 . S
H2677 C2690 0.961 . S
H2678 C2690 0.959 . S
H2679 C2693 0.929 . S
H2680 C2694 0.931 . S
H2681 C2696 0.930 . S
C2682 H2670 0.930 . S
C2682 C2683 1.399 . S
C2682 C2687 1.399 . S
C2683 C2682 1.399 . S
C2683 C2684 1.376 . S
C2684 H2671 0.930 . S
C2684 C2683 1.376 . S
C2684 C2685 1.388 . S
C2685 H2672 0.930 . S
C2685 C2684 1.388 . S
C2685 C2686 1.390 . S
C2686 C2685 1.390 . S
C2686 C2687 1.394 . S
C2686 C2692 1.465 . S
C2687 C2682 1.399 . S
C2687 C2686 1.394 . S
C2687 C2688 1.516 . S
C2688 C2687 1.516 . S
C2688 C2689 1.502 . S
C2688 C2690 1.561 . S
C2688 C2691 1.526 . S
C2689 H2673 0.959 . S
C2689 H2674 0.959 . S
C2689 H2675 0.961 . S
C2689 C2688 1.502 . S
C2690 H2676 0.960 . S
C2690 H2677 0.961 . S
C2690 H2678 0.959 . S
C2690 C2688 1.561 . S
C2691 C2688 1.526 . S
C2691 C2692 1.396 . S
C2691 C2696 1.390 . S
C2692 C2686 1.465 . S
C2692 C2691 1.396 . S
C2692 C2693 1.399 . S
C2693 H2679 0.929 . S
C2693 C2692 1.399 . S
C2693 C2694 1.385 . S
C2694 H2680 0.931 . S
C2694 C2693 1.385 . S
C2694 C2695 1.389 . S
C2695 C2694 1.389 . S
C2695 C2696 1.387 . S
C2696 H2681 0.930 . S
C2696 C2691 1.390 . S
C2696 C2695 1.387 . S
H2697 C2709 0.930 . S
H2698 C2711 0.930 . S
H2699 C2712 0.930 . S
H2700 C2716 0.959 . S
H2701 C2716 0.959 . S
H2702 C2716 0.961 . S
H2703 C2717 0.960 . S
H2704 C2717 0.961 . S
H2705 C2717 0.959 . S
H2706 C2720 0.929 . S
H2707 C2721 0.931 . S
H2708 C2723 0.930 . S
C2709 H2697 0.930 . S
C2709 C2710 1.399 . S
C2709 C2714 1.399 . S
C2710 C2709 1.399 . S
C2710 C2711 1.376 . S
C2711 H2698 0.930 . S
C2711 C2710 1.376 . S
C2711 C2712 1.388 . S
C2712 H2699 0.930 . S
C2712 C2711 1.388 . S
C2712 C2713 1.390 . S
C2713 C2712 1.390 . S
C2713 C2714 1.394 . S
C2713 C2719 1.465 . S
C2714 C2709 1.399 . S
C2714 C2713 1.394 . S
C2714 C2715 1.516 . S
C2715 C2714 1.516 . S
C2715 C2716 1.502 . S
C2715 C2717 1.561 . S
C2715 C2718 1.526 . S
C2716 H2700 0.959 . S
C2716 H2701 0.959 . S
C2716 H2702 0.961 . S
C2716 C2715 1.502 . S
C2717 H2703 0.960 . S
C2717 H2704 0.961 . S
C2717 H2705 0.959 . S
C2717 C2715 1.561 . S
C2718 C2715 1.526 . S
C2718 C2719 1.396 . S
C2718 C2723 1.390 . S
C2719 C2713 1.465 . S
C2719 C2718 1.396 . S
C2719 C2720 1.399 . S
C2720 H2706 0.929 . S
C2720 C2719 1.399 . S
C2720 C2721 1.385 . S
C2721 H2707 0.931 . S
C2721 C2720 1.385 . S
C2721 C2722 1.389 . S
C2722 C2721 1.389 . S
C2722 C2723 1.387 . S
C2723 H2708 0.930 . S
C2723 C2718 1.390 . S
C2723 C2722 1.387 . S
H2724 C2736 0.930 . S
H2725 C2738 0.930 . S
H2726 C2739 0.930 . S
H2727 C2743 0.959 . S
H2728 C2743 0.959 . S
H2729 C2743 0.961 . S
H2730 C2744 0.960 . S
H2731 C2744 0.961 . S
H2732 C2744 0.959 . S
H2733 C2747 0.929 . S
H2734 C2748 0.931 . S
H2735 C2750 0.930 . S
C2736 H2724 0.930 . S
C2736 C2737 1.399 . S
C2736 C2741 1.399 . S
C2737 C2736 1.399 . S
C2737 C2738 1.376 . S
C2738 H2725 0.930 . S
C2738 C2737 1.376 . S
C2738 C2739 1.388 . S
C2739 H2726 0.930 . S
C2739 C2738 1.388 . S
C2739 C2740 1.390 . S
C2740 C2739 1.390 . S
C2740 C2741 1.394 . S
C2740 C2746 1.465 . S
C2741 C2736 1.399 . S
C2741 C2740 1.394 . S
C2741 C2742 1.516 . S
C2742 C2741 1.516 . S
C2742 C2743 1.502 . S
C2742 C2744 1.561 . S
C2742 C2745 1.526 . S
C2743 H2727 0.959 . S
C2743 H2728 0.959 . S
C2743 H2729 0.961 . S
C2743 C2742 1.502 . S
C2744 H2730 0.960 . S
C2744 H2731 0.961 . S
C2744 H2732 0.959 . S
C2744 C2742 1.561 . S
C2745 C2742 1.526 . S
C2745 C2746 1.396 . S
C2745 C2750 1.390 . S
C2746 C2740 1.465 . S
C2746 C2745 1.396 . S
C2746 C2747 1.399 . S
C2747 H2733 0.929 . S
C2747 C2746 1.399 . S
C2747 C2748 1.385 . S
C2748 H2734 0.931 . S
C2748 C2747 1.385 . S
C2748 C2749 1.389 . S
C2749 C2748 1.389 . S
C2749 C2750 1.387 . S
C2750 H2735 0.930 . S
C2750 C2745 1.390 . S
C2750 C2749 1.387 . S
H2751 C2763 0.930 . S
H2752 C2765 0.930 . S
H2753 C2766 0.930 . S
H2754 C2770 0.959 . S
H2755 C2770 0.959 . S
H2756 C2770 0.961 . S
H2757 C2771 0.960 . S
H2758 C2771 0.961 . S
H2759 C2771 0.959 . S
H2760 C2774 0.929 . S
H2761 C2775 0.931 . S
H2762 C2777 0.930 . S
C2763 H2751 0.930 . S
C2763 C2764 1.399 . S
C2763 C2768 1.399 . S
C2764 C2763 1.399 . S
C2764 C2765 1.376 . S
C2765 H2752 0.930 . S
C2765 C2764 1.376 . S
C2765 C2766 1.388 . S
C2766 H2753 0.930 . S
C2766 C2765 1.388 . S
C2766 C2767 1.390 . S
C2767 C2766 1.390 . S
C2767 C2768 1.394 . S
C2767 C2773 1.465 . S
C2768 C2763 1.399 . S
C2768 C2767 1.394 . S
C2768 C2769 1.516 . S
C2769 C2768 1.516 . S
C2769 C2770 1.502 . S
C2769 C2771 1.561 . S
C2769 C2772 1.526 . S
C2770 H2754 0.959 . S
C2770 H2755 0.959 . S
C2770 H2756 0.961 . S
C2770 C2769 1.502 . S
C2771 H2757 0.960 . S
C2771 H2758 0.961 . S
C2771 H2759 0.959 . S
C2771 C2769 1.561 . S
C2772 C2769 1.526 . S
C2772 C2773 1.396 . S
C2772 C2777 1.390 . S
C2773 C2767 1.465 . S
C2773 C2772 1.396 . S
C2773 C2774 1.399 . S
C2774 H2760 0.929 . S
C2774 C2773 1.399 . S
C2774 C2775 1.385 . S
C2775 H2761 0.931 . S
C2775 C2774 1.385 . S
C2775 C2776 1.389 . S
C2776 C2775 1.389 . S
C2776 C2777 1.387 . S
C2777 H2762 0.930 . S
C2777 C2772 1.390 . S
C2777 C2776 1.387 . S
H2778 C2790 0.930 . S
H2779 C2792 0.930 . S
H2780 C2793 0.930 . S
H2781 C2797 0.959 . S
H2782 C2797 0.959 . S
H2783 C2797 0.961 . S
H2784 C2798 0.960 . S
H2785 C2798 0.961 . S
H2786 C2798 0.959 . S
H2787 C2801 0.929 . S
H2788 C2802 0.931 . S
H2789 C2804 0.930 . S
C2790 H2778 0.930 . S
C2790 C2791 1.399 . S
C2790 C2795 1.399 . S
C2791 C2790 1.399 . S
C2791 C2792 1.376 . S
C2792 H2779 0.930 . S
C2792 C2791 1.376 . S
C2792 C2793 1.388 . S
C2793 H2780 0.930 . S
C2793 C2792 1.388 . S
C2793 C2794 1.390 . S
C2794 C2793 1.390 . S
C2794 C2795 1.394 . S
C2794 C2800 1.465 . S
C2795 C2790 1.399 . S
C2795 C2794 1.394 . S
C2795 C2796 1.516 . S
C2796 C2795 1.516 . S
C2796 C2797 1.502 . S
C2796 C2798 1.561 . S
C2796 C2799 1.526 . S
C2797 H2781 0.959 . S
C2797 H2782 0.959 . S
C2797 H2783 0.961 . S
C2797 C2796 1.502 . S
C2798 H2784 0.960 . S
C2798 H2785 0.961 . S
C2798 H2786 0.959 . S
C2798 C2796 1.561 . S
C2799 C2796 1.526 . S
C2799 C2800 1.396 . S
C2799 C2804 1.390 . S
C2800 C2794 1.465 . S
C2800 C2799 1.396 . S
C2800 C2801 1.399 . S
C2801 H2787 0.929 . S
C2801 C2800 1.399 . S
C2801 C2802 1.385 . S
C2802 H2788 0.931 . S
C2802 C2801 1.385 . S
C2802 C2803 1.389 . S
C2803 C2802 1.389 . S
C2803 C2804 1.387 . S
C2804 H2789 0.930 . S
C2804 C2799 1.390 . S
C2804 C2803 1.387 . S
H2805 C2817 0.930 . S
H2806 C2819 0.930 . S
H2807 C2820 0.930 . S
H2808 C2824 0.959 . S
H2809 C2824 0.959 . S
H2810 C2824 0.961 . S
H2811 C2825 0.960 . S
H2812 C2825 0.961 . S
H2813 C2825 0.959 . S
H2814 C2828 0.929 . S
H2815 C2829 0.931 . S
H2816 C2831 0.930 . S
C2817 H2805 0.930 . S
C2817 C2818 1.399 . S
C2817 C2822 1.399 . S
C2818 C2817 1.399 . S
C2818 C2819 1.376 . S
C2819 H2806 0.930 . S
C2819 C2818 1.376 . S
C2819 C2820 1.388 . S
C2820 H2807 0.930 . S
C2820 C2819 1.388 . S
C2820 C2821 1.390 . S
C2821 C2820 1.390 . S
C2821 C2822 1.394 . S
C2821 C2827 1.465 . S
C2822 C2817 1.399 . S
C2822 C2821 1.394 . S
C2822 C2823 1.516 . S
C2823 C2822 1.516 . S
C2823 C2824 1.502 . S
C2823 C2825 1.561 . S
C2823 C2826 1.526 . S
C2824 H2808 0.959 . S
C2824 H2809 0.959 . S
C2824 H2810 0.961 . S
C2824 C2823 1.502 . S
C2825 H2811 0.960 . S
C2825 H2812 0.961 . S
C2825 H2813 0.959 . S
C2825 C2823 1.561 . S
C2826 C2823 1.526 . S
C2826 C2827 1.396 . S
C2826 C2831 1.390 . S
C2827 C2821 1.465 . S
C2827 C2826 1.396 . S
C2827 C2828 1.399 . S
C2828 H2814 0.929 . S
C2828 C2827 1.399 . S
C2828 C2829 1.385 . S
C2829 H2815 0.931 . S
C2829 C2828 1.385 . S
C2829 C2830 1.389 . S
C2830 C2829 1.389 . S
C2830 C2831 1.387 . S
C2831 H2816 0.930 . S
C2831 C2826 1.390 . S
C2831 C2830 1.387 . S
H2832 C2844 0.930 . S
H2833 C2846 0.930 . S
H2834 C2847 0.930 . S
H2835 C2851 0.959 . S
H2836 C2851 0.959 . S
H2837 C2851 0.961 . S
H2838 C2852 0.960 . S
H2839 C2852 0.961 . S
H2840 C2852 0.959 . S
H2841 C2855 0.929 . S
H2842 C2856 0.931 . S
H2843 C2858 0.930 . S
C2844 H2832 0.930 . S
C2844 C2845 1.399 . S
C2844 C2849 1.399 . S
C2845 C2844 1.399 . S
C2845 C2846 1.376 . S
C2846 H2833 0.930 . S
C2846 C2845 1.376 . S
C2846 C2847 1.388 . S
C2847 H2834 0.930 . S
C2847 C2846 1.388 . S
C2847 C2848 1.390 . S
C2848 C2847 1.390 . S
C2848 C2849 1.394 . S
C2848 C2854 1.465 . S
C2849 C2844 1.399 . S
C2849 C2848 1.394 . S
C2849 C2850 1.516 . S
C2850 C2849 1.516 . S
C2850 C2851 1.502 . S
C2850 C2852 1.561 . S
C2850 C2853 1.526 . S
C2851 H2835 0.959 . S
C2851 H2836 0.959 . S
C2851 H2837 0.961 . S
C2851 C2850 1.502 . S
C2852 H2838 0.960 . S
C2852 H2839 0.961 . S
C2852 H2840 0.959 . S
C2852 C2850 1.561 . S
C2853 C2850 1.526 . S
C2853 C2854 1.396 . S
C2853 C2858 1.390 . S
C2854 C2848 1.465 . S
C2854 C2853 1.396 . S
C2854 C2855 1.399 . S
C2855 H2841 0.929 . S
C2855 C2854 1.399 . S
C2855 C2856 1.385 . S
C2856 H2842 0.931 . S
C2856 C2855 1.385 . S
C2856 C2857 1.389 . S
C2857 C2856 1.389 . S
C2857 C2858 1.387 . S
C2858 H2843 0.930 . S
C2858 C2853 1.390 . S
C2858 C2857 1.387 . S
H2859 C2871 0.930 . S
H2860 C2873 0.930 . S
H2861 C2874 0.930 . S
H2862 C2878 0.959 . S
H2863 C2878 0.959 . S
H2864 C2878 0.961 . S
H2865 C2879 0.960 . S
H2866 C2879 0.961 . S
H2867 C2879 0.959 . S
H2868 C2882 0.929 . S
H2869 C2883 0.931 . S
H2870 C2885 0.930 . S
C2871 H2859 0.930 . S
C2871 C2872 1.399 . S
C2871 C2876 1.399 . S
C2872 C2871 1.399 . S
C2872 C2873 1.376 . S
C2873 H2860 0.930 . S
C2873 C2872 1.376 . S
C2873 C2874 1.388 . S
C2874 H2861 0.930 . S
C2874 C2873 1.388 . S
C2874 C2875 1.390 . S
C2875 C2874 1.390 . S
C2875 C2876 1.394 . S
C2875 C2881 1.465 . S
C2876 C2871 1.399 . S
C2876 C2875 1.394 . S
C2876 C2877 1.516 . S
C2877 C2876 1.516 . S
C2877 C2878 1.502 . S
C2877 C2879 1.561 . S
C2877 C2880 1.526 . S
C2878 H2862 0.959 . S
C2878 H2863 0.959 . S
C2878 H2864 0.961 . S
C2878 C2877 1.502 . S
C2879 H2865 0.960 . S
C2879 H2866 0.961 . S
C2879 H2867 0.959 . S
C2879 C2877 1.561 . S
C2880 C2877 1.526 . S
C2880 C2881 1.396 . S
C2880 C2885 1.390 . S
C2881 C2875 1.465 . S
C2881 C2880 1.396 . S
C2881 C2882 1.399 . S
C2882 H2868 0.929 . S
C2882 C2881 1.399 . S
C2882 C2883 1.385 . S
C2883 H2869 0.931 . S
C2883 C2882 1.385 . S
C2883 C2884 1.389 . S
C2884 C2883 1.389 . S
C2884 C2885 1.387 . S
C2885 H2870 0.930 . S
C2885 C2880 1.390 . S
C2885 C2884 1.387 . S
H2886 C2898 0.930 . S
H2887 C2900 0.930 . S
H2888 C2901 0.930 . S
H2889 C2905 0.959 . S
H2890 C2905 0.959 . S
H2891 C2905 0.961 . S
H2892 C2906 0.960 . S
H2893 C2906 0.961 . S
H2894 C2906 0.959 . S
H2895 C2909 0.929 . S
H2896 C2910 0.931 . S
H2897 C2912 0.930 . S
C2898 H2886 0.930 . S
C2898 C2899 1.399 . S
C2898 C2903 1.399 . S
C2899 C2898 1.399 . S
C2899 C2900 1.376 . S
C2900 H2887 0.930 . S
C2900 C2899 1.376 . S
C2900 C2901 1.388 . S
C2901 H2888 0.930 . S
C2901 C2900 1.388 . S
C2901 C2902 1.390 . S
C2902 C2901 1.390 . S
C2902 C2903 1.394 . S
C2902 C2908 1.465 . S
C2903 C2898 1.399 . S
C2903 C2902 1.394 . S
C2903 C2904 1.516 . S
C2904 C2903 1.516 . S
C2904 C2905 1.502 . S
C2904 C2906 1.561 . S
C2904 C2907 1.526 . S
C2905 H2889 0.959 . S
C2905 H2890 0.959 . S
C2905 H2891 0.961 . S
C2905 C2904 1.502 . S
C2906 H2892 0.960 . S
C2906 H2893 0.961 . S
C2906 H2894 0.959 . S
C2906 C2904 1.561 . S
C2907 C2904 1.526 . S
C2907 C2908 1.396 . S
C2907 C2912 1.390 . S
C2908 C2902 1.465 . S
C2908 C2907 1.396 . S
C2908 C2909 1.399 . S
C2909 H2895 0.929 . S
C2909 C2908 1.399 . S
C2909 C2910 1.385 . S
C2910 H2896 0.931 . S
C2910 C2909 1.385 . S
C2910 C2911 1.389 . S
C2911 C2910 1.389 . S
C2911 C2912 1.387 . S
C2912 H2897 0.930 . S
C2912 C2907 1.390 . S
C2912 C2911 1.387 . S
H2913 C2925 0.930 . S
H2914 C2927 0.930 . S
H2915 C2928 0.930 . S
H2916 C2932 0.959 . S
H2917 C2932 0.959 . S
H2918 C2932 0.961 . S
H2919 C2933 0.960 . S
H2920 C2933 0.961 . S
H2921 C2933 0.959 . S
H2922 C2936 0.929 . S
H2923 C2937 0.931 . S
H2924 C2939 0.930 . S
C2925 H2913 0.930 . S
C2925 C2926 1.399 . S
C2925 C2930 1.399 . S
C2926 C2925 1.399 . S
C2926 C2927 1.376 . S
C2927 H2914 0.930 . S
C2927 C2926 1.376 . S
C2927 C2928 1.388 . S
C2928 H2915 0.930 . S
C2928 C2927 1.388 . S
C2928 C2929 1.390 . S
C2929 C2928 1.390 . S
C2929 C2930 1.394 . S
C2929 C2935 1.465 . S
C2930 C2925 1.399 . S
C2930 C2929 1.394 . S
C2930 C2931 1.516 . S
C2931 C2930 1.516 . S
C2931 C2932 1.502 . S
C2931 C2933 1.561 . S
C2931 C2934 1.526 . S
C2932 H2916 0.959 . S
C2932 H2917 0.959 . S
C2932 H2918 0.961 . S
C2932 C2931 1.502 . S
C2933 H2919 0.960 . S
C2933 H2920 0.961 . S
C2933 H2921 0.959 . S
C2933 C2931 1.561 . S
C2934 C2931 1.526 . S
C2934 C2935 1.396 . S
C2934 C2939 1.390 . S
C2935 C2929 1.465 . S
C2935 C2934 1.396 . S
C2935 C2936 1.399 . S
C2936 H2922 0.929 . S
C2936 C2935 1.399 . S
C2936 C2937 1.385 . S
C2937 H2923 0.931 . S
C2937 C2936 1.385 . S
C2937 C2938 1.389 . S
C2938 C2937 1.389 . S
C2938 C2939 1.387 . S
C2939 H2924 0.930 . S
C2939 C2934 1.390 . S
C2939 C2938 1.387 . S
H2940 C2952 0.930 . S
H2941 C2954 0.930 . S
H2942 C2955 0.930 . S
H2943 C2959 0.959 . S
H2944 C2959 0.959 . S
H2945 C2959 0.961 . S
H2946 C2960 0.960 . S
H2947 C2960 0.961 . S
H2948 C2960 0.959 . S
H2949 C2963 0.929 . S
H2950 C2964 0.931 . S
H2951 C2966 0.930 . S
C2952 H2940 0.930 . S
C2952 C2953 1.399 . S
C2952 C2957 1.399 . S
C2953 C2952 1.399 . S
C2953 C2954 1.376 . S
C2954 H2941 0.930 . S
C2954 C2953 1.376 . S
C2954 C2955 1.388 . S
C2955 H2942 0.930 . S
C2955 C2954 1.388 . S
C2955 C2956 1.390 . S
C2956 C2955 1.390 . S
C2956 C2957 1.394 . S
C2956 C2962 1.465 . S
C2957 C2952 1.399 . S
C2957 C2956 1.394 . S
C2957 C2958 1.516 . S
C2958 C2957 1.516 . S
C2958 C2959 1.502 . S
C2958 C2960 1.561 . S
C2958 C2961 1.526 . S
C2959 H2943 0.959 . S
C2959 H2944 0.959 . S
C2959 H2945 0.961 . S
C2959 C2958 1.502 . S
C2960 H2946 0.960 . S
C2960 H2947 0.961 . S
C2960 H2948 0.959 . S
C2960 C2958 1.561 . S
C2961 C2958 1.526 . S
C2961 C2962 1.396 . S
C2961 C2966 1.390 . S
C2962 C2956 1.465 . S
C2962 C2961 1.396 . S
C2962 C2963 1.399 . S
C2963 H2949 0.929 . S
C2963 C2962 1.399 . S
C2963 C2964 1.385 . S
C2964 H2950 0.931 . S
C2964 C2963 1.385 . S
C2964 C2965 1.389 . S
C2965 C2964 1.389 . S
C2965 C2966 1.387 . S
C2966 H2951 0.930 . S
C2966 C2961 1.390 . S
C2966 C2965 1.387 . S
H2967 C2979 0.930 . S
H2968 C2981 0.930 . S
H2969 C2982 0.930 . S
H2970 C2986 0.959 . S
H2971 C2986 0.959 . S
H2972 C2986 0.961 . S
H2973 C2987 0.960 . S
H2974 C2987 0.961 . S
H2975 C2987 0.959 . S
H2976 C2990 0.929 . S
H2977 C2991 0.931 . S
H2978 C2993 0.930 . S
C2979 H2967 0.930 . S
C2979 C2980 1.399 . S
C2979 C2984 1.399 . S
C2980 C2979 1.399 . S
C2980 C2981 1.376 . S
C2981 H2968 0.930 . S
C2981 C2980 1.376 . S
C2981 C2982 1.388 . S
C2982 H2969 0.930 . S
C2982 C2981 1.388 . S
C2982 C2983 1.390 . S
C2983 C2982 1.390 . S
C2983 C2984 1.394 . S
C2983 C2989 1.465 . S
C2984 C2979 1.399 . S
C2984 C2983 1.394 . S
C2984 C2985 1.516 . S
C2985 C2984 1.516 . S
C2985 C2986 1.502 . S
C2985 C2987 1.561 . S
C2985 C2988 1.526 . S
C2986 H2970 0.959 . S
C2986 H2971 0.959 . S
C2986 H2972 0.961 . S
C2986 C2985 1.502 . S
C2987 H2973 0.960 . S
C2987 H2974 0.961 . S
C2987 H2975 0.959 . S
C2987 C2985 1.561 . S
C2988 C2985 1.526 . S
C2988 C2989 1.396 . S
C2988 C2993 1.390 . S
C2989 C2983 1.465 . S
C2989 C2988 1.396 . S
C2989 C2990 1.399 . S
C2990 H2976 0.929 . S
C2990 C2989 1.399 . S
C2990 C2991 1.385 . S
C2991 H2977 0.931 . S
C2991 C2990 1.385 . S
C2991 C2992 1.389 . S
C2992 C2991 1.389 . S
C2992 C2993 1.387 . S
C2993 H2978 0.930 . S
C2993 C2988 1.390 . S
C2993 C2992 1.387 . S
H2994 C3006 0.930 . S
H2995 C3008 0.930 . S
H2996 C3009 0.930 . S
H2997 C3013 0.959 . S
H2998 C3013 0.959 . S
H2999 C3013 0.961 . S
H3000 C3014 0.960 . S
H3001 C3014 0.961 . S
H3002 C3014 0.959 . S
H3003 C3017 0.929 . S
H3004 C3018 0.931 . S
H3005 C3020 0.930 . S
C3006 H2994 0.930 . S
C3006 C3007 1.399 . S
C3006 C3011 1.399 . S
C3007 C3006 1.399 . S
C3007 C3008 1.376 . S
C3008 H2995 0.930 . S
C3008 C3007 1.376 . S
C3008 C3009 1.388 . S
C3009 H2996 0.930 . S
C3009 C3008 1.388 . S
C3009 C3010 1.390 . S
C3010 C3009 1.390 . S
C3010 C3011 1.394 . S
C3010 C3016 1.465 . S
C3011 C3006 1.399 . S
C3011 C3010 1.394 . S
C3011 C3012 1.516 . S
C3012 C3011 1.516 . S
C3012 C3013 1.502 . S
C3012 C3014 1.561 . S
C3012 C3015 1.526 . S
C3013 H2997 0.959 . S
C3013 H2998 0.959 . S
C3013 H2999 0.961 . S
C3013 C3012 1.502 . S
C3014 H3000 0.960 . S
C3014 H3001 0.961 . S
C3014 H3002 0.959 . S
C3014 C3012 1.561 . S
C3015 C3012 1.526 . S
C3015 C3016 1.396 . S
C3015 C3020 1.390 . S
C3016 C3010 1.465 . S
C3016 C3015 1.396 . S
C3016 C3017 1.399 . S
C3017 H3003 0.929 . S
C3017 C3016 1.399 . S
C3017 C3018 1.385 . S
C3018 H3004 0.931 . S
C3018 C3017 1.385 . S
C3018 C3019 1.389 . S
C3019 C3018 1.389 . S
C3019 C3020 1.387 . S
C3020 H3005 0.930 . S
C3020 C3015 1.390 . S
C3020 C3019 1.387 . S
H3021 C3033 0.930 . S
H3022 C3035 0.930 . S
H3023 C3036 0.930 . S
H3024 C3040 0.959 . S
H3025 C3040 0.959 . S
H3026 C3040 0.961 . S
H3027 C3041 0.960 . S
H3028 C3041 0.961 . S
H3029 C3041 0.959 . S
H3030 C3044 0.929 . S
H3031 C3045 0.931 . S
H3032 C3047 0.930 . S
C3033 H3021 0.930 . S
C3033 C3034 1.399 . S
C3033 C3038 1.399 . S
C3034 C3033 1.399 . S
C3034 C3035 1.376 . S
C3035 H3022 0.930 . S
C3035 C3034 1.376 . S
C3035 C3036 1.388 . S
C3036 H3023 0.930 . S
C3036 C3035 1.388 . S
C3036 C3037 1.390 . S
C3037 C3036 1.390 . S
C3037 C3038 1.394 . S
C3037 C3043 1.465 . S
C3038 C3033 1.399 . S
C3038 C3037 1.394 . S
C3038 C3039 1.516 . S
C3039 C3038 1.516 . S
C3039 C3040 1.502 . S
C3039 C3041 1.561 . S
C3039 C3042 1.526 . S
C3040 H3024 0.959 . S
C3040 H3025 0.959 . S
C3040 H3026 0.961 . S
C3040 C3039 1.502 . S
C3041 H3027 0.960 . S
C3041 H3028 0.961 . S
C3041 H3029 0.959 . S
C3041 C3039 1.561 . S
C3042 C3039 1.526 . S
C3042 C3043 1.396 . S
C3042 C3047 1.390 . S
C3043 C3037 1.465 . S
C3043 C3042 1.396 . S
C3043 C3044 1.399 . S
C3044 H3030 0.929 . S
C3044 C3043 1.399 . S
C3044 C3045 1.385 . S
C3045 H3031 0.931 . S
C3045 C3044 1.385 . S
C3045 C3046 1.389 . S
C3046 C3045 1.389 . S
C3046 C3047 1.387 . S
C3047 H3032 0.930 . S
C3047 C3042 1.390 . S
C3047 C3046 1.387 . S
H3048 C3060 0.930 . S
H3049 C3062 0.930 . S
H3050 C3063 0.930 . S
H3051 C3067 0.959 . S
H3052 C3067 0.959 . S
H3053 C3067 0.961 . S
H3054 C3068 0.960 . S
H3055 C3068 0.961 . S
H3056 C3068 0.959 . S
H3057 C3071 0.929 . S
H3058 C3072 0.931 . S
H3059 C3074 0.930 . S
C3060 H3048 0.930 . S
C3060 C3061 1.399 . S
C3060 C3065 1.399 . S
C3061 C3060 1.399 . S
C3061 C3062 1.376 . S
C3062 H3049 0.930 . S
C3062 C3061 1.376 . S
C3062 C3063 1.388 . S
C3063 H3050 0.930 . S
C3063 C3062 1.388 . S
C3063 C3064 1.390 . S
C3064 C3063 1.390 . S
C3064 C3065 1.394 . S
C3064 C3070 1.465 . S
C3065 C3060 1.399 . S
C3065 C3064 1.394 . S
C3065 C3066 1.516 . S
C3066 C3065 1.516 . S
C3066 C3067 1.502 . S
C3066 C3068 1.561 . S
C3066 C3069 1.526 . S
C3067 H3051 0.959 . S
C3067 H3052 0.959 . S
C3067 H3053 0.961 . S
C3067 C3066 1.502 . S
C3068 H3054 0.960 . S
C3068 H3055 0.961 . S
C3068 H3056 0.959 . S
C3068 C3066 1.561 . S
C3069 C3066 1.526 . S
C3069 C3070 1.396 . S
C3069 C3074 1.390 . S
C3070 C3064 1.465 . S
C3070 C3069 1.396 . S
C3070 C3071 1.399 . S
C3071 H3057 0.929 . S
C3071 C3070 1.399 . S
C3071 C3072 1.385 . S
C3072 H3058 0.931 . S
C3072 C3071 1.385 . S
C3072 C3073 1.389 . S
C3073 C3072 1.389 . S
C3073 C3074 1.387 . S
C3074 H3059 0.930 . S
C3074 C3069 1.390 . S
C3074 C3073 1.387 . S
H3075 C3087 0.930 . S
H3076 C3089 0.930 . S
H3077 C3090 0.930 . S
H3078 C3094 0.959 . S
H3079 C3094 0.959 . S
H3080 C3094 0.961 . S
H3081 C3095 0.960 . S
H3082 C3095 0.961 . S
H3083 C3095 0.959 . S
H3084 C3098 0.929 . S
H3085 C3099 0.931 . S
H3086 C3101 0.930 . S
C3087 H3075 0.930 . S
C3087 C3088 1.399 . S
C3087 C3092 1.399 . S
C3088 C3087 1.399 . S
C3088 C3089 1.376 . S
C3089 H3076 0.930 . S
C3089 C3088 1.376 . S
C3089 C3090 1.388 . S
C3090 H3077 0.930 . S
C3090 C3089 1.388 . S
C3090 C3091 1.390 . S
C3091 C3090 1.390 . S
C3091 C3092 1.394 . S
C3091 C3097 1.465 . S
C3092 C3087 1.399 . S
C3092 C3091 1.394 . S
C3092 C3093 1.516 . S
C3093 C3092 1.516 . S
C3093 C3094 1.502 . S
C3093 C3095 1.561 . S
C3093 C3096 1.526 . S
C3094 H3078 0.959 . S
C3094 H3079 0.959 . S
C3094 H3080 0.961 . S
C3094 C3093 1.502 . S
C3095 H3081 0.960 . S
C3095 H3082 0.961 . S
C3095 H3083 0.959 . S
C3095 C3093 1.561 . S
C3096 C3093 1.526 . S
C3096 C3097 1.396 . S
C3096 C3101 1.390 . S
C3097 C3091 1.465 . S
C3097 C3096 1.396 . S
C3097 C3098 1.399 . S
C3098 H3084 0.929 . S
C3098 C3097 1.399 . S
C3098 C3099 1.385 . S
C3099 H3085 0.931 . S
C3099 C3098 1.385 . S
C3099 C3100 1.389 . S
C3100 C3099 1.389 . S
C3100 C3101 1.387 . S
C3101 H3086 0.930 . S
C3101 C3096 1.390 . S
C3101 C3100 1.387 . S
H3102 C3114 0.930 . S
H3103 C3116 0.930 . S
H3104 C3117 0.930 . S
H3105 C3121 0.959 . S
H3106 C3121 0.959 . S
H3107 C3121 0.961 . S
H3108 C3122 0.960 . S
H3109 C3122 0.961 . S
H3110 C3122 0.959 . S
H3111 C3125 0.929 . S
H3112 C3126 0.931 . S
H3113 C3128 0.930 . S
C3114 H3102 0.930 . S
C3114 C3115 1.399 . S
C3114 C3119 1.399 . S
C3115 C3114 1.399 . S
C3115 C3116 1.376 . S
C3116 H3103 0.930 . S
C3116 C3115 1.376 . S
C3116 C3117 1.388 . S
C3117 H3104 0.930 . S
C3117 C3116 1.388 . S
C3117 C3118 1.390 . S
C3118 C3117 1.390 . S
C3118 C3119 1.394 . S
C3118 C3124 1.465 . S
C3119 C3114 1.399 . S
C3119 C3118 1.394 . S
C3119 C3120 1.516 . S
C3120 C3119 1.516 . S
C3120 C3121 1.502 . S
C3120 C3122 1.561 . S
C3120 C3123 1.526 . S
C3121 H3105 0.959 . S
C3121 H3106 0.959 . S
C3121 H3107 0.961 . S
C3121 C3120 1.502 . S
C3122 H3108 0.960 . S
C3122 H3109 0.961 . S
C3122 H3110 0.959 . S
C3122 C3120 1.561 . S
C3123 C3120 1.526 . S
C3123 C3124 1.396 . S
C3123 C3128 1.390 . S
C3124 C3118 1.465 . S
C3124 C3123 1.396 . S
C3124 C3125 1.399 . S
C3125 H3111 0.929 . S
C3125 C3124 1.399 . S
C3125 C3126 1.385 . S
C3126 H3112 0.931 . S
C3126 C3125 1.385 . S
C3126 C3127 1.389 . S
C3127 C3126 1.389 . S
C3127 C3128 1.387 . S
C3128 H3113 0.930 . S
C3128 C3123 1.390 . S
C3128 C3127 1.387 . S
H3129 C3141 0.930 . S
H3130 C3143 0.930 . S
H3131 C3144 0.930 . S
H3132 C3148 0.959 . S
H3133 C3148 0.959 . S
H3134 C3148 0.961 . S
H3135 C3149 0.960 . S
H3136 C3149 0.961 . S
H3137 C3149 0.959 . S
H3138 C3152 0.929 . S
H3139 C3153 0.931 . S
H3140 C3155 0.930 . S
C3141 H3129 0.930 . S
C3141 C3142 1.399 . S
C3141 C3146 1.399 . S
C3142 C3141 1.399 . S
C3142 C3143 1.376 . S
C3143 H3130 0.930 . S
C3143 C3142 1.376 . S
C3143 C3144 1.388 . S
C3144 H3131 0.930 . S
C3144 C3143 1.388 . S
C3144 C3145 1.390 . S
C3145 C3144 1.390 . S
C3145 C3146 1.394 . S
C3145 C3151 1.465 . S
C3146 C3141 1.399 . S
C3146 C3145 1.394 . S
C3146 C3147 1.516 . S
C3147 C3146 1.516 . S
C3147 C3148 1.502 . S
C3147 C3149 1.561 . S
C3147 C3150 1.526 . S
C3148 H3132 0.959 . S
C3148 H3133 0.959 . S
C3148 H3134 0.961 . S
C3148 C3147 1.502 . S
C3149 H3135 0.960 . S
C3149 H3136 0.961 . S
C3149 H3137 0.959 . S
C3149 C3147 1.561 . S
C3150 C3147 1.526 . S
C3150 C3151 1.396 . S
C3150 C3155 1.390 . S
C3151 C3145 1.465 . S
C3151 C3150 1.396 . S
C3151 C3152 1.399 . S
C3152 H3138 0.929 . S
C3152 C3151 1.399 . S
C3152 C3153 1.385 . S
C3153 H3139 0.931 . S
C3153 C3152 1.385 . S
C3153 C3154 1.389 . S
C3154 C3153 1.389 . S
C3154 C3155 1.387 . S
C3155 H3140 0.930 . S
C3155 C3150 1.390 . S
C3155 C3154 1.387 . S
H3156 C3168 0.930 . S
H3157 C3170 0.930 . S
H3158 C3171 0.930 . S
H3159 C3175 0.959 . S
H3160 C3175 0.959 . S
H3161 C3175 0.961 . S
H3162 C3176 0.960 . S
H3163 C3176 0.961 . S
H3164 C3176 0.959 . S
H3165 C3179 0.929 . S
H3166 C3180 0.931 . S
H3167 C3182 0.930 . S
C3168 H3156 0.930 . S
C3168 C3169 1.399 . S
C3168 C3173 1.399 . S
C3169 C3168 1.399 . S
C3169 C3170 1.376 . S
C3170 H3157 0.930 . S
C3170 C3169 1.376 . S
C3170 C3171 1.388 . S
C3171 H3158 0.930 . S
C3171 C3170 1.388 . S
C3171 C3172 1.390 . S
C3172 C3171 1.390 . S
C3172 C3173 1.394 . S
C3172 C3178 1.465 . S
C3173 C3168 1.399 . S
C3173 C3172 1.394 . S
C3173 C3174 1.516 . S
C3174 C3173 1.516 . S
C3174 C3175 1.502 . S
C3174 C3176 1.561 . S
C3174 C3177 1.526 . S
C3175 H3159 0.959 . S
C3175 H3160 0.959 . S
C3175 H3161 0.961 . S
C3175 C3174 1.502 . S
C3176 H3162 0.960 . S
C3176 H3163 0.961 . S
C3176 H3164 0.959 . S
C3176 C3174 1.561 . S
C3177 C3174 1.526 . S
C3177 C3178 1.396 . S
C3177 C3182 1.390 . S
C3178 C3172 1.465 . S
C3178 C3177 1.396 . S
C3178 C3179 1.399 . S
C3179 H3165 0.929 . S
C3179 C3178 1.399 . S
C3179 C3180 1.385 . S
C3180 H3166 0.931 . S
C3180 C3179 1.385 . S
C3180 C3181 1.389 . S
C3181 C3180 1.389 . S
C3181 C3182 1.387 . S
C3182 H3167 0.930 . S
C3182 C3177 1.390 . S
C3182 C3181 1.387 . S
H3183 C3195 0.930 . S
H3184 C3197 0.930 . S
H3185 C3198 0.930 . S
H3186 C3202 0.959 . S
H3187 C3202 0.959 . S
H3188 C3202 0.961 . S
H3189 C3203 0.960 . S
H3190 C3203 0.961 . S
H3191 C3203 0.959 . S
H3192 C3206 0.929 . S
H3193 C3207 0.931 . S
H3194 C3209 0.930 . S
C3195 H3183 0.930 . S
C3195 C3196 1.399 . S
C3195 C3200 1.399 . S
C3196 C3195 1.399 . S
C3196 C3197 1.376 . S
C3197 H3184 0.930 . S
C3197 C3196 1.376 . S
C3197 C3198 1.388 . S
C3198 H3185 0.930 . S
C3198 C3197 1.388 . S
C3198 C3199 1.390 . S
C3199 C3198 1.390 . S
C3199 C3200 1.394 . S
C3199 C3205 1.465 . S
C3200 C3195 1.399 . S
C3200 C3199 1.394 . S
C3200 C3201 1.516 . S
C3201 C3200 1.516 . S
C3201 C3202 1.502 . S
C3201 C3203 1.561 . S
C3201 C3204 1.526 . S
C3202 H3186 0.959 . S
C3202 H3187 0.959 . S
C3202 H3188 0.961 . S
C3202 C3201 1.502 . S
C3203 H3189 0.960 . S
C3203 H3190 0.961 . S
C3203 H3191 0.959 . S
C3203 C3201 1.561 . S
C3204 C3201 1.526 . S
C3204 C3205 1.396 . S
C3204 C3209 1.390 . S
C3205 C3199 1.465 . S
C3205 C3204 1.396 . S
C3205 C3206 1.399 . S
C3206 H3192 0.929 . S
C3206 C3205 1.399 . S
C3206 C3207 1.385 . S
C3207 H3193 0.931 . S
C3207 C3206 1.385 . S
C3207 C3208 1.389 . S
C3208 C3207 1.389 . S
C3208 C3209 1.387 . S
C3209 H3194 0.930 . S
C3209 C3204 1.390 . S
C3209 C3208 1.387 . S
H3210 C3222 0.930 . S
H3211 C3224 0.930 . S
H3212 C3225 0.930 . S
H3213 C3229 0.959 . S
H3214 C3229 0.959 . S
H3215 C3229 0.961 . S
H3216 C3230 0.960 . S
H3217 C3230 0.961 . S
H3218 C3230 0.959 . S
H3219 C3233 0.929 . S
H3220 C3234 0.931 . S
H3221 C3236 0.930 . S
C3222 H3210 0.930 . S
C3222 C3223 1.399 . S
C3222 C3227 1.399 . S
C3223 C3222 1.399 . S
C3223 C3224 1.376 . S
C3224 H3211 0.930 . S
C3224 C3223 1.376 . S
C3224 C3225 1.388 . S
C3225 H3212 0.930 . S
C3225 C3224 1.388 . S
C3225 C3226 1.390 . S
C3226 C3225 1.390 . S
C3226 C3227 1.394 . S
C3226 C3232 1.465 . S
C3227 C3222 1.399 . S
C3227 C3226 1.394 . S
C3227 C3228 1.516 . S
C3228 C3227 1.516 . S
C3228 C3229 1.502 . S
C3228 C3230 1.561 . S
C3228 C3231 1.526 . S
C3229 H3213 0.959 . S
C3229 H3214 0.959 . S
C3229 H3215 0.961 . S
C3229 C3228 1.502 . S
C3230 H3216 0.960 . S
C3230 H3217 0.961 . S
C3230 H3218 0.959 . S
C3230 C3228 1.561 . S
C3231 C3228 1.526 . S
C3231 C3232 1.396 . S
C3231 C3236 1.390 . S
C3232 C3226 1.465 . S
C3232 C3231 1.396 . S
C3232 C3233 1.399 . S
C3233 H3219 0.929 . S
C3233 C3232 1.399 . S
C3233 C3234 1.385 . S
C3234 H3220 0.931 . S
C3234 C3233 1.385 . S
C3234 C3235 1.389 . S
C3235 C3234 1.389 . S
C3235 C3236 1.387 . S
C3236 H3221 0.930 . S
C3236 C3231 1.390 . S
C3236 C3235 1.387 . S
H3237 C3249 0.930 . S
H3238 C3251 0.930 . S
H3239 C3252 0.930 . S
H3240 C3256 0.959 . S
H3241 C3256 0.959 . S
H3242 C3256 0.961 . S
H3243 C3257 0.960 . S
H3244 C3257 0.961 . S
H3245 C3257 0.959 . S
H3246 C3260 0.929 . S
H3247 C3261 0.931 . S
H3248 C3263 0.930 . S
C3249 H3237 0.930 . S
C3249 C3250 1.399 . S
C3249 C3254 1.399 . S
C3250 C3249 1.399 . S
C3250 C3251 1.376 . S
C3251 H3238 0.930 . S
C3251 C3250 1.376 . S
C3251 C3252 1.388 . S
C3252 H3239 0.930 . S
C3252 C3251 1.388 . S
C3252 C3253 1.390 . S
C3253 C3252 1.390 . S
C3253 C3254 1.394 . S
C3253 C3259 1.465 . S
C3254 C3249 1.399 . S
C3254 C3253 1.394 . S
C3254 C3255 1.516 . S
C3255 C3254 1.516 . S
C3255 C3256 1.502 . S
C3255 C3257 1.561 . S
C3255 C3258 1.526 . S
C3256 H3240 0.959 . S
C3256 H3241 0.959 . S
C3256 H3242 0.961 . S
C3256 C3255 1.502 . S
C3257 H3243 0.960 . S
C3257 H3244 0.961 . S
C3257 H3245 0.959 . S
C3257 C3255 1.561 . S
C3258 C3255 1.526 . S
C3258 C3259 1.396 . S
C3258 C3263 1.390 . S
C3259 C3253 1.465 . S
C3259 C3258 1.396 . S
C3259 C3260 1.399 . S
C3260 H3246 0.929 . S
C3260 C3259 1.399 . S
C3260 C3261 1.385 . S
C3261 H3247 0.931 . S
C3261 C3260 1.385 . S
C3261 C3262 1.389 . S
C3262 C3261 1.389 . S
C3262 C3263 1.387 . S
C3263 H3248 0.930 . S
C3263 C3258 1.390 . S
C3263 C3262 1.387 . S
H3264 C3276 0.930 . S
H3265 C3278 0.930 . S
H3266 C3279 0.930 . S
H3267 C3283 0.959 . S
H3268 C3283 0.959 . S
H3269 C3283 0.961 . S
H3270 C3284 0.960 . S
H3271 C3284 0.961 . S
H3272 C3284 0.959 . S
H3273 C3287 0.929 . S
H3274 C3288 0.931 . S
H3275 C3290 0.930 . S
C3276 H3264 0.930 . S
C3276 C3277 1.399 . S
C3276 C3281 1.399 . S
C3277 C3276 1.399 . S
C3277 C3278 1.376 . S
C3278 H3265 0.930 . S
C3278 C3277 1.376 . S
C3278 C3279 1.388 . S
C3279 H3266 0.930 . S
C3279 C3278 1.388 . S
C3279 C3280 1.390 . S
C3280 C3279 1.390 . S
C3280 C3281 1.394 . S
C3280 C3286 1.465 . S
C3281 C3276 1.399 . S
C3281 C3280 1.394 . S
C3281 C3282 1.516 . S
C3282 C3281 1.516 . S
C3282 C3283 1.502 . S
C3282 C3284 1.561 . S
C3282 C3285 1.526 . S
C3283 H3267 0.959 . S
C3283 H3268 0.959 . S
C3283 H3269 0.961 . S
C3283 C3282 1.502 . S
C3284 H3270 0.960 . S
C3284 H3271 0.961 . S
C3284 H3272 0.959 . S
C3284 C3282 1.561 . S
C3285 C3282 1.526 . S
C3285 C3286 1.396 . S
C3285 C3290 1.390 . S
C3286 C3280 1.465 . S
C3286 C3285 1.396 . S
C3286 C3287 1.399 . S
C3287 H3273 0.929 . S
C3287 C3286 1.399 . S
C3287 C3288 1.385 . S
C3288 H3274 0.931 . S
C3288 C3287 1.385 . S
C3288 C3289 1.389 . S
C3289 C3288 1.389 . S
C3289 C3290 1.387 . S
C3290 H3275 0.930 . S
C3290 C3285 1.390 . S
C3290 C3289 1.387 . S
H3291 C3303 0.930 . S
H3292 C3305 0.930 . S
H3293 C3306 0.930 . S
H3294 C3310 0.959 . S
H3295 C3310 0.959 . S
H3296 C3310 0.961 . S
H3297 C3311 0.960 . S
H3298 C3311 0.961 . S
H3299 C3311 0.959 . S
H3300 C3314 0.929 . S
H3301 C3315 0.931 . S
H3302 C3317 0.930 . S
C3303 H3291 0.930 . S
C3303 C3304 1.399 . S
C3303 C3308 1.399 . S
C3304 C3303 1.399 . S
C3304 C3305 1.376 . S
C3305 H3292 0.930 . S
C3305 C3304 1.376 . S
C3305 C3306 1.388 . S
C3306 H3293 0.930 . S
C3306 C3305 1.388 . S
C3306 C3307 1.390 . S
C3307 C3306 1.390 . S
C3307 C3308 1.394 . S
C3307 C3313 1.465 . S
C3308 C3303 1.399 . S
C3308 C3307 1.394 . S
C3308 C3309 1.516 . S
C3309 C3308 1.516 . S
C3309 C3310 1.502 . S
C3309 C3311 1.561 . S
C3309 C3312 1.526 . S
C3310 H3294 0.959 . S
C3310 H3295 0.959 . S
C3310 H3296 0.961 . S
C3310 C3309 1.502 . S
C3311 H3297 0.960 . S
C3311 H3298 0.961 . S
C3311 H3299 0.959 . S
C3311 C3309 1.561 . S
C3312 C3309 1.526 . S
C3312 C3313 1.396 . S
C3312 C3317 1.390 . S
C3313 C3307 1.465 . S
C3313 C3312 1.396 . S
C3313 C3314 1.399 . S
C3314 H3300 0.929 . S
C3314 C3313 1.399 . S
C3314 C3315 1.385 . S
C3315 H3301 0.931 . S
C3315 C3314 1.385 . S
C3315 C3316 1.389 . S
C3316 C3315 1.389 . S
C3316 C3317 1.387 . S
C3317 H3302 0.930 . S
C3317 C3312 1.390 . S
C3317 C3316 1.387 . S
H3318 C3330 0.930 . S
H3319 C3332 0.930 . S
H3320 C3333 0.930 . S
H3321 C3337 0.959 . S
H3322 C3337 0.959 . S
H3323 C3337 0.961 . S
H3324 C3338 0.960 . S
H3325 C3338 0.961 . S
H3326 C3338 0.959 . S
H3327 C3341 0.929 . S
H3328 C3342 0.931 . S
H3329 C3344 0.930 . S
C3330 H3318 0.930 . S
C3330 C3331 1.399 . S
C3330 C3335 1.399 . S
C3331 C3330 1.399 . S
C3331 C3332 1.376 . S
C3332 H3319 0.930 . S
C3332 C3331 1.376 . S
C3332 C3333 1.388 . S
C3333 H3320 0.930 . S
C3333 C3332 1.388 . S
C3333 C3334 1.390 . S
C3334 C3333 1.390 . S
C3334 C3335 1.394 . S
C3334 C3340 1.465 . S
C3335 C3330 1.399 . S
C3335 C3334 1.394 . S
C3335 C3336 1.516 . S
C3336 C3335 1.516 . S
C3336 C3337 1.502 . S
C3336 C3338 1.561 . S
C3336 C3339 1.526 . S
C3337 H3321 0.959 . S
C3337 H3322 0.959 . S
C3337 H3323 0.961 . S
C3337 C3336 1.502 . S
C3338 H3324 0.960 . S
C3338 H3325 0.961 . S
C3338 H3326 0.959 . S
C3338 C3336 1.561 . S
C3339 C3336 1.526 . S
C3339 C3340 1.396 . S
C3339 C3344 1.390 . S
C3340 C3334 1.465 . S
C3340 C3339 1.396 . S
C3340 C3341 1.399 . S
C3341 H3327 0.929 . S
C3341 C3340 1.399 . S
C3341 C3342 1.385 . S
C3342 H3328 0.931 . S
C3342 C3341 1.385 . S
C3342 C3343 1.389 . S
C3343 C3342 1.389 . S
C3343 C3344 1.387 . S
C3344 H3329 0.930 . S
C3344 C3339 1.390 . S
C3344 C3343 1.387 . S
H3345 C3357 0.930 . S
H3346 C3359 0.930 . S
H3347 C3360 0.930 . S
H3348 C3364 0.959 . S
H3349 C3364 0.959 . S
H3350 C3364 0.961 . S
H3351 C3365 0.960 . S
H3352 C3365 0.961 . S
H3353 C3365 0.959 . S
H3354 C3368 0.929 . S
H3355 C3369 0.931 . S
H3356 C3371 0.930 . S
C3357 H3345 0.930 . S
C3357 C3358 1.399 . S
C3357 C3362 1.399 . S
C3358 C3357 1.399 . S
C3358 C3359 1.376 . S
C3359 H3346 0.930 . S
C3359 C3358 1.376 . S
C3359 C3360 1.388 . S
C3360 H3347 0.930 . S
C3360 C3359 1.388 . S
C3360 C3361 1.390 . S
C3361 C3360 1.390 . S
C3361 C3362 1.394 . S
C3361 C3367 1.465 . S
C3362 C3357 1.399 . S
C3362 C3361 1.394 . S
C3362 C3363 1.516 . S
C3363 C3362 1.516 . S
C3363 C3364 1.502 . S
C3363 C3365 1.561 . S
C3363 C3366 1.526 . S
C3364 H3348 0.959 . S
C3364 H3349 0.959 . S
C3364 H3350 0.961 . S
C3364 C3363 1.502 . S
C3365 H3351 0.960 . S
C3365 H3352 0.961 . S
C3365 H3353 0.959 . S
C3365 C3363 1.561 . S
C3366 C3363 1.526 . S
C3366 C3367 1.396 . S
C3366 C3371 1.390 . S
C3367 C3361 1.465 . S
C3367 C3366 1.396 . S
C3367 C3368 1.399 . S
C3368 H3354 0.929 . S
C3368 C3367 1.399 . S
C3368 C3369 1.385 . S
C3369 H3355 0.931 . S
C3369 C3368 1.385 . S
C3369 C3370 1.389 . S
C3370 C3369 1.389 . S
C3370 C3371 1.387 . S
C3371 H3356 0.930 . S
C3371 C3366 1.390 . S
C3371 C3370 1.387 . S
H3372 C3384 0.930 . S
H3373 C3386 0.930 . S
H3374 C3387 0.930 . S
H3375 C3391 0.959 . S
H3376 C3391 0.959 . S
H3377 C3391 0.961 . S
H3378 C3392 0.960 . S
H3379 C3392 0.961 . S
H3380 C3392 0.959 . S
H3381 C3395 0.929 . S
H3382 C3396 0.931 . S
H3383 C3398 0.930 . S
C3384 H3372 0.930 . S
C3384 C3385 1.399 . S
C3384 C3389 1.399 . S
C3385 C3384 1.399 . S
C3385 C3386 1.376 . S
C3386 H3373 0.930 . S
C3386 C3385 1.376 . S
C3386 C3387 1.388 . S
C3387 H3374 0.930 . S
C3387 C3386 1.388 . S
C3387 C3388 1.390 . S
C3388 C3387 1.390 . S
C3388 C3389 1.394 . S
C3388 C3394 1.465 . S
C3389 C3384 1.399 . S
C3389 C3388 1.394 . S
C3389 C3390 1.516 . S
C3390 C3389 1.516 . S
C3390 C3391 1.502 . S
C3390 C3392 1.561 . S
C3390 C3393 1.526 . S
C3391 H3375 0.959 . S
C3391 H3376 0.959 . S
C3391 H3377 0.961 . S
C3391 C3390 1.502 . S
C3392 H3378 0.960 . S
C3392 H3379 0.961 . S
C3392 H3380 0.959 . S
C3392 C3390 1.561 . S
C3393 C3390 1.526 . S
C3393 C3394 1.396 . S
C3393 C3398 1.390 . S
C3394 C3388 1.465 . S
C3394 C3393 1.396 . S
C3394 C3395 1.399 . S
C3395 H3381 0.929 . S
C3395 C3394 1.399 . S
C3395 C3396 1.385 . S
C3396 H3382 0.931 . S
C3396 C3395 1.385 . S
C3396 C3397 1.389 . S
C3397 C3396 1.389 . S
C3397 C3398 1.387 . S
C3398 H3383 0.930 . S
C3398 C3393 1.390 . S
C3398 C3397 1.387 . S
H3399 C3411 0.930 . S
H3400 C3413 0.930 . S
H3401 C3414 0.930 . S
H3402 C3418 0.959 . S
H3403 C3418 0.959 . S
H3404 C3418 0.961 . S
H3405 C3419 0.960 . S
H3406 C3419 0.961 . S
H3407 C3419 0.959 . S
H3408 C3422 0.929 . S
H3409 C3423 0.931 . S
H3410 C3425 0.930 . S
C3411 H3399 0.930 . S
C3411 C3412 1.399 . S
C3411 C3416 1.399 . S
C3412 C3411 1.399 . S
C3412 C3413 1.376 . S
C3413 H3400 0.930 . S
C3413 C3412 1.376 . S
C3413 C3414 1.388 . S
C3414 H3401 0.930 . S
C3414 C3413 1.388 . S
C3414 C3415 1.390 . S
C3415 C3414 1.390 . S
C3415 C3416 1.394 . S
C3415 C3421 1.465 . S
C3416 C3411 1.399 . S
C3416 C3415 1.394 . S
C3416 C3417 1.516 . S
C3417 C3416 1.516 . S
C3417 C3418 1.502 . S
C3417 C3419 1.561 . S
C3417 C3420 1.526 . S
C3418 H3402 0.959 . S
C3418 H3403 0.959 . S
C3418 H3404 0.961 . S
C3418 C3417 1.502 . S
C3419 H3405 0.960 . S
C3419 H3406 0.961 . S
C3419 H3407 0.959 . S
C3419 C3417 1.561 . S
C3420 C3417 1.526 . S
C3420 C3421 1.396 . S
C3420 C3425 1.390 . S
C3421 C3415 1.465 . S
C3421 C3420 1.396 . S
C3421 C3422 1.399 . S
C3422 H3408 0.929 . S
C3422 C3421 1.399 . S
C3422 C3423 1.385 . S
C3423 H3409 0.931 . S
C3423 C3422 1.385 . S
C3423 C3424 1.389 . S
C3424 C3423 1.389 . S
C3424 C3425 1.387 . S
C3425 H3410 0.930 . S
C3425 C3420 1.390 . S
C3425 C3424 1.387 . S
H3426 C3438 0.930 . S
H3427 C3440 0.930 . S
H3428 C3441 0.930 . S
H3429 C3445 0.959 . S
H3430 C3445 0.959 . S
H3431 C3445 0.961 . S
H3432 C3446 0.960 . S
H3433 C3446 0.961 . S
H3434 C3446 0.959 . S
H3435 C3449 0.929 . S
H3436 C3450 0.931 . S
H3437 C3452 0.930 . S
C3438 H3426 0.930 . S
C3438 C3439 1.399 . S
C3438 C3443 1.399 . S
C3439 C3438 1.399 . S
C3439 C3440 1.376 . S
C3440 H3427 0.930 . S
C3440 C3439 1.376 . S
C3440 C3441 1.388 . S
C3441 H3428 0.930 . S
C3441 C3440 1.388 . S
C3441 C3442 1.390 . S
C3442 C3441 1.390 . S
C3442 C3443 1.394 . S
C3442 C3448 1.465 . S
C3443 C3438 1.399 . S
C3443 C3442 1.394 . S
C3443 C3444 1.516 . S
C3444 C3443 1.516 . S
C3444 C3445 1.502 . S
C3444 C3446 1.561 . S
C3444 C3447 1.526 . S
C3445 H3429 0.959 . S
C3445 H3430 0.959 . S
C3445 H3431 0.961 . S
C3445 C3444 1.502 . S
C3446 H3432 0.960 . S
C3446 H3433 0.961 . S
C3446 H3434 0.959 . S
C3446 C3444 1.561 . S
C3447 C3444 1.526 . S
C3447 C3448 1.396 . S
C3447 C3452 1.390 . S
C3448 C3442 1.465 . S
C3448 C3447 1.396 . S
C3448 C3449 1.399 . S
C3449 H3435 0.929 . S
C3449 C3448 1.399 . S
C3449 C3450 1.385 . S
C3450 H3436 0.931 . S
C3450 C3449 1.385 . S
C3450 C3451 1.389 . S
C3451 C3450 1.389 . S
C3451 C3452 1.387 . S
C3452 H3437 0.930 . S
C3452 C3447 1.390 . S
C3452 C3451 1.387 . S
H3453 C3465 0.930 . S
H3454 C3467 0.930 . S
H3455 C3468 0.930 . S
H3456 C3472 0.959 . S
H3457 C3472 0.959 . S
H3458 C3472 0.961 . S
H3459 C3473 0.960 . S
H3460 C3473 0.961 . S
H3461 C3473 0.959 . S
H3462 C3476 0.929 . S
H3463 C3477 0.931 . S
H3464 C3479 0.930 . S
C3465 H3453 0.930 . S
C3465 C3466 1.399 . S
C3465 C3470 1.399 . S
C3466 C3465 1.399 . S
C3466 C3467 1.376 . S
C3467 H3454 0.930 . S
C3467 C3466 1.376 . S
C3467 C3468 1.388 . S
C3468 H3455 0.930 . S
C3468 C3467 1.388 . S
C3468 C3469 1.390 . S
C3469 C3468 1.390 . S
C3469 C3470 1.394 . S
C3469 C3475 1.465 . S
C3470 C3465 1.399 . S
C3470 C3469 1.394 . S
C3470 C3471 1.516 . S
C3471 C3470 1.516 . S
C3471 C3472 1.502 . S
C3471 C3473 1.561 . S
C3471 C3474 1.526 . S
C3472 H3456 0.959 . S
C3472 H3457 0.959 . S
C3472 H3458 0.961 . S
C3472 C3471 1.502 . S
C3473 H3459 0.960 . S
C3473 H3460 0.961 . S
C3473 H3461 0.959 . S
C3473 C3471 1.561 . S
C3474 C3471 1.526 . S
C3474 C3475 1.396 . S
C3474 C3479 1.390 . S
C3475 C3469 1.465 . S
C3475 C3474 1.396 . S
C3475 C3476 1.399 . S
C3476 H3462 0.929 . S
C3476 C3475 1.399 . S
C3476 C3477 1.385 . S
C3477 H3463 0.931 . S
C3477 C3476 1.385 . S
C3477 C3478 1.389 . S
C3478 C3477 1.389 . S
C3478 C3479 1.387 . S
C3479 H3464 0.930 . S
C3479 C3474 1.390 . S
C3479 C3478 1.387 . S
H3480 C3492 0.930 . S
H3481 C3494 0.930 . S
H3482 C3495 0.930 . S
H3483 C3499 0.959 . S
H3484 C3499 0.959 . S
H3485 C3499 0.961 . S
H3486 C3500 0.960 . S
H3487 C3500 0.961 . S
H3488 C3500 0.959 . S
H3489 C3503 0.929 . S
H3490 C3504 0.931 . S
H3491 C3506 0.930 . S
C3492 H3480 0.930 . S
C3492 C3493 1.399 . S
C3492 C3497 1.399 . S
C3493 C3492 1.399 . S
C3493 C3494 1.376 . S
C3494 H3481 0.930 . S
C3494 C3493 1.376 . S
C3494 C3495 1.388 . S
C3495 H3482 0.930 . S
C3495 C3494 1.388 . S
C3495 C3496 1.390 . S
C3496 C3495 1.390 . S
C3496 C3497 1.394 . S
C3496 C3502 1.465 . S
C3497 C3492 1.399 . S
C3497 C3496 1.394 . S
C3497 C3498 1.516 . S
C3498 C3497 1.516 . S
C3498 C3499 1.502 . S
C3498 C3500 1.561 . S
C3498 C3501 1.526 . S
C3499 H3483 0.959 . S
C3499 H3484 0.959 . S
C3499 H3485 0.961 . S
C3499 C3498 1.502 . S
C3500 H3486 0.960 . S
C3500 H3487 0.961 . S
C3500 H3488 0.959 . S
C3500 C3498 1.561 . S
C3501 C3498 1.526 . S
C3501 C3502 1.396 . S
C3501 C3506 1.390 . S
C3502 C3496 1.465 . S
C3502 C3501 1.396 . S
C3502 C3503 1.399 . S
C3503 H3489 0.929 . S
C3503 C3502 1.399 . S
C3503 C3504 1.385 . S
C3504 H3490 0.931 . S
C3504 C3503 1.385 . S
C3504 C3505 1.389 . S
C3505 C3504 1.389 . S
C3505 C3506 1.387 . S
C3506 H3491 0.930 . S
C3506 C3501 1.390 . S
C3506 C3505 1.387 . S
H3507 C3519 0.930 . S
H3508 C3521 0.930 . S
H3509 C3522 0.930 . S
H3510 C3526 0.959 . S
H3511 C3526 0.959 . S
H3512 C3526 0.961 . S
H3513 C3527 0.960 . S
H3514 C3527 0.961 . S
H3515 C3527 0.959 . S
H3516 C3530 0.929 . S
H3517 C3531 0.931 . S
H3518 C3533 0.930 . S
C3519 H3507 0.930 . S
C3519 C3520 1.399 . S
C3519 C3524 1.399 . S
C3520 C3519 1.399 . S
C3520 C3521 1.376 . S
C3521 H3508 0.930 . S
C3521 C3520 1.376 . S
C3521 C3522 1.388 . S
C3522 H3509 0.930 . S
C3522 C3521 1.388 . S
C3522 C3523 1.390 . S
C3523 C3522 1.390 . S
C3523 C3524 1.394 . S
C3523 C3529 1.465 . S
C3524 C3519 1.399 . S
C3524 C3523 1.394 . S
C3524 C3525 1.516 . S
C3525 C3524 1.516 . S
C3525 C3526 1.502 . S
C3525 C3527 1.561 . S
C3525 C3528 1.526 . S
C3526 H3510 0.959 . S
C3526 H3511 0.959 . S
C3526 H3512 0.961 . S
C3526 C3525 1.502 . S
C3527 H3513 0.960 . S
C3527 H3514 0.961 . S
C3527 H3515 0.959 . S
C3527 C3525 1.561 . S
C3528 C3525 1.526 . S
C3528 C3529 1.396 . S
C3528 C3533 1.390 . S
C3529 C3523 1.465 . S
C3529 C3528 1.396 . S
C3529 C3530 1.399 . S
C3530 H3516 0.929 . S
C3530 C3529 1.399 . S
C3530 C3531 1.385 . S
C3531 H3517 0.931 . S
C3531 C3530 1.385 . S
C3531 C3532 1.389 . S
C3532 C3531 1.389 . S
C3532 C3533 1.387 . S
C3533 H3518 0.930 . S
C3533 C3528 1.390 . S
C3533 C3532 1.387 . S
H3534 C3546 0.930 . S
H3535 C3548 0.930 . S
H3536 C3549 0.930 . S
H3537 C3553 0.959 . S
H3538 C3553 0.959 . S
H3539 C3553 0.961 . S
H3540 C3554 0.960 . S
H3541 C3554 0.961 . S
H3542 C3554 0.959 . S
H3543 C3557 0.929 . S
H3544 C3558 0.931 . S
H3545 C3560 0.930 . S
C3546 H3534 0.930 . S
C3546 C3547 1.399 . S
C3546 C3551 1.399 . S
C3547 C3546 1.399 . S
C3547 C3548 1.376 . S
C3548 H3535 0.930 . S
C3548 C3547 1.376 . S
C3548 C3549 1.388 . S
C3549 H3536 0.930 . S
C3549 C3548 1.388 . S
C3549 C3550 1.390 . S
C3550 C3549 1.390 . S
C3550 C3551 1.394 . S
C3550 C3556 1.465 . S
C3551 C3546 1.399 . S
C3551 C3550 1.394 . S
C3551 C3552 1.516 . S
C3552 C3551 1.516 . S
C3552 C3553 1.502 . S
C3552 C3554 1.561 . S
C3552 C3555 1.526 . S
C3553 H3537 0.959 . S
C3553 H3538 0.959 . S
C3553 H3539 0.961 . S
C3553 C3552 1.502 . S
C3554 H3540 0.960 . S
C3554 H3541 0.961 . S
C3554 H3542 0.959 . S
C3554 C3552 1.561 . S
C3555 C3552 1.526 . S
C3555 C3556 1.396 . S
C3555 C3560 1.390 . S
C3556 C3550 1.465 . S
C3556 C3555 1.396 . S
C3556 C3557 1.399 . S
C3557 H3543 0.929 . S
C3557 C3556 1.399 . S
C3557 C3558 1.385 . S
C3558 H3544 0.931 . S
C3558 C3557 1.385 . S
C3558 C3559 1.389 . S
C3559 C3558 1.389 . S
C3559 C3560 1.387 . S
C3560 H3545 0.930 . S
C3560 C3555 1.390 . S
C3560 C3559 1.387 . S
H3561 C3573 0.930 . S
H3562 C3575 0.930 . S
H3563 C3576 0.930 . S
H3564 C3580 0.959 . S
H3565 C3580 0.959 . S
H3566 C3580 0.961 . S
H3567 C3581 0.960 . S
H3568 C3581 0.961 . S
H3569 C3581 0.959 . S
H3570 C3584 0.929 . S
H3571 C3585 0.931 . S
H3572 C3587 0.930 . S
C3573 H3561 0.930 . S
C3573 C3574 1.399 . S
C3573 C3578 1.399 . S
C3574 C3573 1.399 . S
C3574 C3575 1.376 . S
C3575 H3562 0.930 . S
C3575 C3574 1.376 . S
C3575 C3576 1.388 . S
C3576 H3563 0.930 . S
C3576 C3575 1.388 . S
C3576 C3577 1.390 . S
C3577 C3576 1.390 . S
C3577 C3578 1.394 . S
C3577 C3583 1.465 . S
C3578 C3573 1.399 . S
C3578 C3577 1.394 . S
C3578 C3579 1.516 . S
C3579 C3578 1.516 . S
C3579 C3580 1.502 . S
C3579 C3581 1.561 . S
C3579 C3582 1.526 . S
C3580 H3564 0.959 . S
C3580 H3565 0.959 . S
C3580 H3566 0.961 . S
C3580 C3579 1.502 . S
C3581 H3567 0.960 . S
C3581 H3568 0.961 . S
C3581 H3569 0.959 . S
C3581 C3579 1.561 . S
C3582 C3579 1.526 . S
C3582 C3583 1.396 . S
C3582 C3587 1.390 . S
C3583 C3577 1.465 . S
C3583 C3582 1.396 . S
C3583 C3584 1.399 . S
C3584 H3570 0.929 . S
C3584 C3583 1.399 . S
C3584 C3585 1.385 . S
C3585 H3571 0.931 . S
C3585 C3584 1.385 . S
C3585 C3586 1.389 . S
C3586 C3585 1.389 . S
C3586 C3587 1.387 . S
C3587 H3572 0.930 . S
C3587 C3582 1.390 . S
C3587 C3586 1.387 . S
H3588 C3600 0.930 . S
H3589 C3602 0.930 . S
H3590 C3603 0.930 . S
H3591 C3607 0.959 . S
H3592 C3607 0.959 . S
H3593 C3607 0.961 . S
H3594 C3608 0.960 . S
H3595 C3608 0.961 . S
H3596 C3608 0.959 . S
H3597 C3611 0.929 . S
H3598 C3612 0.931 . S
H3599 C3614 0.930 . S
C3600 H3588 0.930 . S
C3600 C3601 1.399 . S
C3600 C3605 1.399 . S
C3601 C3600 1.399 . S
C3601 C3602 1.376 . S
C3602 H3589 0.930 . S
C3602 C3601 1.376 . S
C3602 C3603 1.388 . S
C3603 H3590 0.930 . S
C3603 C3602 1.388 . S
C3603 C3604 1.390 . S
C3604 C3603 1.390 . S
C3604 C3605 1.394 . S
C3604 C3610 1.465 . S
C3605 C3600 1.399 . S
C3605 C3604 1.394 . S
C3605 C3606 1.516 . S
C3606 C3605 1.516 . S
C3606 C3607 1.502 . S
C3606 C3608 1.561 . S
C3606 C3609 1.526 . S
C3607 H3591 0.959 . S
C3607 H3592 0.959 . S
C3607 H3593 0.961 . S
C3607 C3606 1.502 . S
C3608 H3594 0.960 . S
C3608 H3595 0.961 . S
C3608 H3596 0.959 . S
C3608 C3606 1.561 . S
C3609 C3606 1.526 . S
C3609 C3610 1.396 . S
C3609 C3614 1.390 . S
C3610 C3604 1.465 . S
C3610 C3609 1.396 . S
C3610 C3611 1.399 . S
C3611 H3597 0.929 . S
C3611 C3610 1.399 . S
C3611 C3612 1.385 . S
C3612 H3598 0.931 . S
C3612 C3611 1.385 . S
C3612 C3613 1.389 . S
C3613 C3612 1.389 . S
C3613 C3614 1.387 . S
C3614 H3599 0.930 . S
C3614 C3609 1.390 . S
C3614 C3613 1.387 . S
H3615 C3627 0.930 . S
H3616 C3629 0.930 . S
H3617 C3630 0.930 . S
H3618 C3634 0.959 . S
H3619 C3634 0.959 . S
H3620 C3634 0.961 . S
H3621 C3635 0.960 . S
H3622 C3635 0.961 . S
H3623 C3635 0.959 . S
H3624 C3638 0.929 . S
H3625 C3639 0.931 . S
H3626 C3641 0.930 . S
C3627 H3615 0.930 . S
C3627 C3628 1.399 . S
C3627 C3632 1.399 . S
C3628 C3627 1.399 . S
C3628 C3629 1.376 . S
C3629 H3616 0.930 . S
C3629 C3628 1.376 . S
C3629 C3630 1.388 . S
C3630 H3617 0.930 . S
C3630 C3629 1.388 . S
C3630 C3631 1.390 . S
C3631 C3630 1.390 . S
C3631 C3632 1.394 . S
C3631 C3637 1.465 . S
C3632 C3627 1.399 . S
C3632 C3631 1.394 . S
C3632 C3633 1.516 . S
C3633 C3632 1.516 . S
C3633 C3634 1.502 . S
C3633 C3635 1.561 . S
C3633 C3636 1.526 . S
C3634 H3618 0.959 . S
C3634 H3619 0.959 . S
C3634 H3620 0.961 . S
C3634 C3633 1.502 . S
C3635 H3621 0.960 . S
C3635 H3622 0.961 . S
C3635 H3623 0.959 . S
C3635 C3633 1.561 . S
C3636 C3633 1.526 . S
C3636 C3637 1.396 . S
C3636 C3641 1.390 . S
C3637 C3631 1.465 . S
C3637 C3636 1.396 . S
C3637 C3638 1.399 . S
C3638 H3624 0.929 . S
C3638 C3637 1.399 . S
C3638 C3639 1.385 . S
C3639 H3625 0.931 . S
C3639 C3638 1.385 . S
C3639 C3640 1.389 . S
C3640 C3639 1.389 . S
C3640 C3641 1.387 . S
C3641 H3626 0.930 . S
C3641 C3636 1.390 . S
C3641 C3640 1.387 . S
H3642 C3654 0.930 . S
H3643 C3656 0.930 . S
H3644 C3657 0.930 . S
H3645 C3661 0.959 . S
H3646 C3661 0.959 . S
H3647 C3661 0.961 . S
H3648 C3662 0.960 . S
H3649 C3662 0.961 . S
H3650 C3662 0.959 . S
H3651 C3665 0.929 . S
H3652 C3666 0.931 . S
H3653 C3668 0.930 . S
C3654 H3642 0.930 . S
C3654 C3655 1.399 . S
C3654 C3659 1.399 . S
C3655 C3654 1.399 . S
C3655 C3656 1.376 . S
C3656 H3643 0.930 . S
C3656 C3655 1.376 . S
C3656 C3657 1.388 . S
C3657 H3644 0.930 . S
C3657 C3656 1.388 . S
C3657 C3658 1.390 . S
C3658 C3657 1.390 . S
C3658 C3659 1.394 . S
C3658 C3664 1.465 . S
C3659 C3654 1.399 . S
C3659 C3658 1.394 . S
C3659 C3660 1.516 . S
C3660 C3659 1.516 . S
C3660 C3661 1.502 . S
C3660 C3662 1.561 . S
C3660 C3663 1.526 . S
C3661 H3645 0.959 . S
C3661 H3646 0.959 . S
C3661 H3647 0.961 . S
C3661 C3660 1.502 . S
C3662 H3648 0.960 . S
C3662 H3649 0.961 . S
C3662 H3650 0.959 . S
C3662 C3660 1.561 . S
C3663 C3660 1.526 . S
C3663 C3664 1.396 . S
C3663 C3668 1.390 . S
C3664 C3658 1.465 . S
C3664 C3663 1.396 . S
C3664 C3665 1.399 . S
C3665 H3651 0.929 . S
C3665 C3664 1.399 . S
C3665 C3666 1.385 . S
C3666 H3652 0.931 . S
C3666 C3665 1.385 . S
C3666 C3667 1.389 . S
C3667 C3666 1.389 . S
C3667 C3668 1.387 . S
C3668 H3653 0.930 . S
C3668 C3663 1.390 . S
C3668 C3667 1.387 . S
H3669 C3681 0.930 . S
H3670 C3683 0.930 . S
H3671 C3684 0.930 . S
H3672 C3688 0.959 . S
H3673 C3688 0.959 . S
H3674 C3688 0.961 . S
H3675 C3689 0.960 . S
H3676 C3689 0.961 . S
H3677 C3689 0.959 . S
H3678 C3692 0.929 . S
H3679 C3693 0.931 . S
H3680 C3695 0.930 . S
C3681 H3669 0.930 . S
C3681 C3682 1.399 . S
C3681 C3686 1.399 . S
C3682 C3681 1.399 . S
C3682 C3683 1.376 . S
C3683 H3670 0.930 . S
C3683 C3682 1.376 . S
C3683 C3684 1.388 . S
C3684 H3671 0.930 . S
C3684 C3683 1.388 . S
C3684 C3685 1.390 . S
C3685 C3684 1.390 . S
C3685 C3686 1.394 . S
C3685 C3691 1.465 . S
C3686 C3681 1.399 . S
C3686 C3685 1.394 . S
C3686 C3687 1.516 . S
C3687 C3686 1.516 . S
C3687 C3688 1.502 . S
C3687 C3689 1.561 . S
C3687 C3690 1.526 . S
C3688 H3672 0.959 . S
C3688 H3673 0.959 . S
C3688 H3674 0.961 . S
C3688 C3687 1.502 . S
C3689 H3675 0.960 . S
C3689 H3676 0.961 . S
C3689 H3677 0.959 . S
C3689 C3687 1.561 . S
C3690 C3687 1.526 . S
C3690 C3691 1.396 . S
C3690 C3695 1.390 . S
C3691 C3685 1.465 . S
C3691 C3690 1.396 . S
C3691 C3692 1.399 . S
C3692 H3678 0.929 . S
C3692 C3691 1.399 . S
C3692 C3693 1.385 . S
C3693 H3679 0.931 . S
C3693 C3692 1.385 . S
C3693 C3694 1.389 . S
C3694 C3693 1.389 . S
C3694 C3695 1.387 . S
C3695 H3680 0.930 . S
C3695 C3690 1.390 . S
C3695 C3694 1.387 . S
C1117 C375 1.417 . S
C1129 N12 1.397 . S
C1144 C1088 1.421 . S
C1156 N35 1.384 . S
C1171 N58 1.373 . S
C1183 C1042 1.403 . S
C1198 N81 1.375 . S
C1210 C1065 1.402 . S
C1225 C398 1.421 . S
C1237 N104 1.397 . S
C1252 N127 1.379 . S
C1264 C421 1.416 . S
C1279 N150 1.378 . S
C1291 C444 1.404 . S
C1306 C1019 1.412 . S
C1318 N173 1.371 . S
C1333 N196 1.414 . S
C1345 C7 1.405 . S
C1360 C30 1.409 . S
C1372 N219 1.382 . S
C1387 C53 1.399 . S
C1399 N242 1.373 . S
C1414 C76 1.404 . S
C1426 N265 1.415 . S
C1441 C99 1.419 . S
C1453 N288 1.389 . S
C1468 N311 1.415 . S
C1480 C122 1.384 . S
C1495 C145 1.408 . S
C1507 N334 1.410 . S
C1522 N357 1.410 . S
C1534 C168 1.384 . S
C1549 N380 1.398 . S
C1561 C191 1.386 . S
C1576 C283 1.393 . S
C1588 N403 1.417 . S
C1603 N426 1.404 . S
C1615 C306 1.383 . S
C1630 N449 1.403 . S
C1642 C329 1.388 . S
C1657 C904 1.401 . S
C1669 N472 1.411 . S
C1684 N495 1.385 . S
C1696 C789 1.389 . S
C1711 C812 1.397 . S
C1723 N518 1.419 . S
C1738 C766 1.398 . S
C1750 N541 1.420 . S
C1765 C927 1.388 . S
C1777 N564 1.401 . S
C1792 N587 1.413 . S
C1804 C536 1.391 . S
C1819 N610 1.416 . S
C1831 C490 1.408 . S
C1846 N633 1.419 . S
C1858 C513 1.391 . S
C1873 N656 1.371 . S
C1885 C950 1.403 . S
C1900 C973 1.415 . S
C1912 N679 1.369 . S
C1927 N702 1.370 . S
C1939 C996 1.408 . S
C1954 C467 1.387 . S
C1966 N725 1.413 . S
C1981 C559 1.389 . S
C1993 N748 1.398 . S
C2008 N771 1.404 . S
C2020 C582 1.383 . S
C2035 N794 1.422 . S
C2047 C605 1.401 . S
C2062 N817 1.398 . S
C2074 C628 1.383 . S
C2089 N840 1.420 . S
C2101 C651 1.397 . S
C2116 N863 1.407 . S
C2128 C674 1.408 . S
C2143 C697 1.389 . S
C2155 N886 1.411 . S
C2170 C720 1.406 . S
C2182 N909 1.381 . S
C2197 C743 1.398 . S
C2209 N932 1.420 . S
C2224 C835 1.400 . S
C2236 N955 1.422 . S
C2251 C858 1.394 . S
C2263 N978 1.419 . S
C2278 N1001 1.373 . S
C2290 C881 1.402 . S
C2305 N1024 1.386 . S
C2317 C352 1.396 . S
C2332 N1047 1.390 . S
C2344 C237 1.394 . S
C2359 C260 1.414 . S
C2371 N1070 1.378 . S
C2386 N1093 1.408 . S
C2398 C214 1.391 . S
C2413 C16 1.601 . S
C2425 N623 1.547 . S
C2440 N554 1.492 . S
C2452 C39 1.631 . S
C2467 C62 1.609 . S
C2479 N577 1.451 . S
C2494 C85 1.644 . S
C2506 N600 1.560 . S
C2521 C108 1.626 . S
C2533 N117 1.474 . S
C2548 N140 1.525 . S
C2560 C131 1.623 . S
C2575 C154 1.613 . S
C2587 N163 1.455 . S
C2602 C177 1.646 . S
C2614 N94 1.583 . S
C2629 C200 1.609 . S
C2641 N968 1.553 . S
C2656 C223 1.645 . S
C2668 N991 1.535 . S
C2683 C246 1.631 . S
C2695 N462 1.567 . S
C2710 C269 1.622 . S
C2722 N945 1.547 . S
C2737 C292 1.608 . S
C2749 N1060 1.451 . S
C2764 N370 1.549 . S
C2776 C315 1.626 . S
C2791 C338 1.634 . S
C2803 N1083 1.483 . S
C2818 N1037 1.555 . S
C2830 C361 1.632 . S
C2845 N209 1.510 . S
C2857 C384 1.584 . S
C2872 C407 1.625 . S
C2884 N899 1.470 . S
C2899 C430 1.632 . S
C2911 N830 1.498 . S
C2926 N853 1.471 . S
C2938 C453 1.625 . S
C2953 C476 1.602 . S
C2965 N324 1.498 . S
C2980 N807 1.482 . S
C2992 C499 1.604 . S
C3007 N738 1.475 . S
C3019 C522 1.608 . S
C3034 N784 1.491 . S
C3046 C545 1.619 . S
C3061 C568 1.643 . S
C3073 N71 1.534 . S
C3088 C591 1.617 . S
C3100 N2 1.541 . S
C3115 N25 1.472 . S
C3127 C614 1.623 . S
C3142 C637 1.610 . S
C3154 N48 1.490 . S
C3169 C660 1.617 . S
C3181 N669 1.564 . S
C3196 N692 1.566 . S
C3208 C683 1.633 . S
C3223 N715 1.569 . S
C3235 C706 1.628 . S
C3250 C729 1.640 . S
C3262 N646 1.559 . S
C3277 N416 1.538 . S
C3289 C752 1.607 . S
C3304 C775 1.610 . S
C3316 N439 1.470 . S
C3331 C798 1.618 . S
C3343 N1014 1.550 . S
C3358 C821 1.623 . S
C3370 N393 1.484 . S
C3385 C844 1.624 . S
C3397 N508 1.473 . S
C3412 C867 1.641 . S
C3424 N922 1.570 . S
C3439 N531 1.549 . S
C3451 C890 1.596 . S
C3466 C913 1.625 . S
C3478 N485 1.560 . S
C3493 N761 1.482 . S
C3505 C936 1.609 . S
C3520 N347 1.557 . S
C3532 C959 1.606 . S
C3547 N278 1.475 . S
C3559 C982 1.623 . S
C3574 C1005 1.606 . S
C3586 N301 1.450 . S
C3601 C1028 1.628 . S
C3613 N876 1.490 . S
C3628 N255 1.495 . S
C3640 C1051 1.625 . S
C3655 C1074 1.612 . S
C3667 N186 1.527 . S
C3682 N232 1.471 . S
C3694 C1097 1.602 . S
