# Generated by pormake.
# Topology vmm, (7)-cn, num edge types: 1
# Building blocks:
#     Node 0, Type 0, BuildingBlock: HICVOG_clean_sbu_0, # of connection points: 7
#     Node 1, Type 0, BuildingBlock: HICVOG_clean_sbu_0, # of connection points: 7
#     Node 2, Type 0, BuildingBlock: HICVOG_clean_sbu_0, # of connection points: 7
#     Node 3, Type 0, BuildingBlock: HICVOG_clean_sbu_0, # of connection points: 7
#     Edge 4, Type (0, 0), BuildingBlock: TEMPAE_clean_linker_10, # of connection points: 2
#     Edge 5, Type (0, 0), BuildingBlock: TEMPAE_clean_linker_10, # of connection points: 2
#     Edge 6, Type (0, 0), BuildingBlock: TEMPAE_clean_linker_10, # of connection points: 2
#     Edge 7, Type (0, 0), BuildingBlock: TEMPAE_clean_linker_10, # of connection points: 2
#     Edge 8, Type (0, 0), BuildingBlock: TEMPAE_clean_linker_10, # of connection points: 2
#     Edge 9, Type (0, 0), BuildingBlock: TEMPAE_clean_linker_10, # of connection points: 2
#     Edge 10, Type (0, 0), BuildingBlock: TEMPAE_clean_linker_10, # of connection points: 2
#     Edge 11, Type (0, 0), BuildingBlock: TEMPAE_clean_linker_10, # of connection points: 2
#     Edge 12, Type (0, 0), BuildingBlock: TEMPAE_clean_linker_10, # of connection points: 2
#     Edge 13, Type (0, 0), BuildingBlock: TEMPAE_clean_linker_10, # of connection points: 2
#     Edge 14, Type (0, 0), BuildingBlock: TEMPAE_clean_linker_10, # of connection points: 2
#     Edge 15, Type (0, 0), BuildingBlock: TEMPAE_clean_linker_10, # of connection points: 2
#     Edge 16, Type (0, 0), BuildingBlock: TEMPAE_clean_linker_10, # of connection points: 2
#     Edge 17, Type (0, 0), BuildingBlock: TEMPAE_clean_linker_10, # of connection points: 2
# Relax obj value: 0.084
# Max RMSD: 0.164
# Mean RMSD: 0.164
data_MOF--net-vmm--node1-HICVOG_clean_sbu_0--edge1-TEMPAE_clean_linker_10
_symmetry_space_group_name_H-M    P1
_symmetry_Int_Tables_number       1
_symmetry_cell_setting            triclinic
loop_
_symmetry_equiv_pos_as_xyz
'x, y, z'
_cell_length_a     18.244795
_cell_length_b     44.921733
_cell_length_c     22.040809
_cell_angle_alpha  89.705416
_cell_angle_beta   81.287898
_cell_angle_gamma 90.115676
loop_
_atom_site_label
_atom_site_type_symbol
_atom_site_fract_x
_atom_site_fract_y
_atom_site_fract_z
_atom_type_partial_charge
Zn0 Zn 0.28638 0.11206 0.23533 0.0
C1 C 0.15574 0.06522 0.16269 0.0
N2 N 0.2131 0.04637 0.15861 0.0
C3 C 0.27197 0.06412 0.15944 0.0
N4 N 0.2501 0.09263 0.16847 0.0
N5 N 0.178 0.09379 0.16727 0.0
C6 C -0.0194 0.11583 0.19217 0.0
O7 O 0.00498 0.10125 0.23689 0.0
O8 O 0.39605 0.11566 0.22032 0.0
Zn9 Zn 0.1344 0.13254 0.15331 0.0
N10 N 0.2593 0.08733 0.30714 0.0
C11 C 0.1639 0.0657 0.3795 0.0
C12 C 0.18599 0.08224 0.32618 0.0
C13 C 0.31175 0.07637 0.33894 0.0
N14 N 0.21605 0.05509 0.41181 0.0
C15 C 0.28977 0.05982 0.39301 0.0
O16 O 0.14766 0.16457 0.2149 0.0
C17 C 0.19337 0.17032 0.25145 0.0
O18 O 0.24525 0.15242 0.25857 0.0
H19 H 0.14512 0.09132 0.30048 0.0
H20 H 0.3696 0.08129 0.32321 0.0
C21 C 0.18167 0.17656 0.05883 0.0
C22 C 0.21336 0.18598 0.99932 0.0
C23 C 0.24001 0.13539 0.97291 0.0
C24 C 0.20747 0.12634 0.03118 0.0
N25 N 0.17931 0.14696 0.07306 0.0
N26 N 0.24186 0.16478 0.95843 0.0
H27 H 0.15936 0.19223 0.09379 0.0
C28 C 0.43675 0.11904 0.16878 0.0
O29 O 0.40691 0.12025 0.1182 0.0
O30 O 0.02582 0.12995 0.15292 0.0
H31 H 0.20418 0.10302 0.04297 0.0
H32 H 0.10572 0.06158 0.39547 0.0
H33 H 0.26298 0.1192 0.93917 0.0
Zn34 Zn 0.8088 0.63654 0.41264 0.0
C35 C 0.7074 0.55781 0.3998 0.0
N36 N 0.75653 0.54903 0.43546 0.0
C37 C 0.79903 0.57316 0.43732 0.0
N38 N 0.77716 0.59599 0.40446 0.0
N39 N 0.71939 0.5862 0.38022 0.0
C40 C 0.52289 0.62798 0.35236 0.0
O41 O 0.55859 0.65258 0.36165 0.0
O42 O 0.91928 0.63618 0.4182 0.0
Zn43 Zn 0.67292 0.60363 0.31429 0.0
N44 N 0.75308 0.65147 0.48844 0.0
C45 C 0.64588 0.64646 0.56396 0.0
C46 C 0.68857 0.63713 0.50985 0.0
C47 C 0.77637 0.6752 0.51888 0.0
N48 N 0.66873 0.67011 0.59419 0.0
C49 C 0.73271 0.68509 0.57345 0.0
O50 O 0.7112 0.64465 0.28689 0.0
C51 C 0.75393 0.66566 0.29851 0.0
O52 O 0.79094 0.6641 0.34309 0.0
H53 H 0.67017 0.61854 0.48512 0.0
H54 H 0.82831 0.68588 0.50079 0.0
C55 C 0.64725 0.57087 0.20633 0.0
C56 C 0.66515 0.54955 0.15985 0.0
C57 C 0.78216 0.54245 0.19232 0.0
C58 C 0.76422 0.56355 0.23826 0.0
N59 N 0.69697 0.57711 0.24488 0.0
N60 N 0.73223 0.53581 0.15458 0.0
H61 H 0.59374 0.58172 0.21297 0.0
C62 C 0.96576 0.6344 0.36908 0.0
O63 O 0.94082 0.63373 0.31621 0.0
O64 O 0.55995 0.60498 0.33353 0.0
H65 H 0.80312 0.56876 0.26916 0.0
H66 H 0.59461 0.63516 0.58166 0.0
H67 H 0.83516 0.53125 0.18697 0.0
Zn68 Zn 0.67263 0.93622 0.81569 0.0
C69 C 0.80298 0.9761 0.92226 0.0
N70 N 0.75605 0.99854 0.91686 0.0
C71 C 0.70467 0.98613 0.88772 0.0
N72 N 0.72053 0.95741 0.87452 0.0
N73 N 0.78162 0.9507 0.89724 0.0
C74 C 0.96993 0.91002 0.87328 0.0
O75 O 0.94673 0.90781 0.81988 0.0
O76 O 0.56093 0.93553 0.83832 0.0
Zn77 Zn 0.8132 0.91063 0.91421 0.0
N78 N 0.69547 0.95894 0.74058 0.0
C79 C 0.78586 0.98597 0.67274 0.0
C80 C 0.76701 0.96777 0.72413 0.0
C81 C 0.64186 0.96718 0.70717 0.0
N82 N 0.73235 0.99457 0.63982 0.0
C83 C 0.6606 0.98557 0.65527 0.0
O84 O 0.79828 0.8797 0.84984 0.0
C85 C 0.75723 0.8755 0.80871 0.0
O86 O 0.7109 0.89496 0.79664 0.0
H87 H 0.80875 0.96107 0.75143 0.0
H88 H 0.58514 0.96019 0.72193 0.0
C89 C 0.76887 0.87 1.01499 0.0
C90 C 0.7287 0.86108 0.0721 0.0
C91 C 0.66898 0.90828 0.07982 0.0
C92 C 0.70889 0.91688 1.02366 0.0
N93 N 0.75821 0.89771 0.9924 0.0
N94 N 0.67979 0.88079 0.10254 0.0
H95 H 0.80728 0.85521 0.98795 0.0
C96 C 0.5242 0.91333 0.86266 0.0
O97 O 0.55981 0.8892 0.87516 0.0
O98 O 0.92223 0.91152 0.92159 0.0
H99 H 0.70028 0.93867 1.00515 0.0
H100 H 0.84245 0.99341 0.65936 0.0
H101 H 0.62955 0.9233 0.10522 0.0
Zn102 Zn 0.28633 0.43621 0.71975 0.0
C103 C 0.13249 0.45837 0.61584 0.0
N104 N 0.18862 0.4694 0.57587 0.0
C105 C 0.24841 0.4619 0.60093 0.0
N106 N 0.22984 0.44765 0.6551 0.0
N107 N 0.15734 0.44364 0.66214 0.0
C108 C -0.02283 0.41162 0.68956 0.0
O109 O -0.001 0.42547 0.7361 0.0
O110 O 0.39492 0.43092 0.68678 0.0
Zn111 Zn 0.13101 0.40217 0.66415 0.0
N112 N 0.27681 0.46823 0.77931 0.0
C113 C 0.20038 0.50583 0.83153 0.0
C114 C 0.21282 0.48415 0.78626 0.0
C115 C 0.32953 0.47333 0.8158 0.0
N116 N 0.25211 0.51056 0.86863 0.0
C117 C 0.31675 0.495 0.86217 0.0
O118 O 0.14322 0.38133 0.74191 0.0
C119 C 0.19365 0.38044 0.77589 0.0
O120 O 0.24795 0.39874 0.76859 0.0
H121 H 0.17101 0.47966 0.75767 0.0
H122 H 0.37936 0.45995 0.81017 0.0
C123 C 0.16946 0.36436 0.55668 0.0
C124 C 0.21994 0.35004 0.51137 0.0
C125 C 0.3199 0.37179 0.55311 0.0
C126 C 0.26997 0.38504 0.59884 0.0
N127 N 0.19582 0.38183 0.59901 0.0
N128 N 0.29386 0.3546 0.51075 0.0
H129 H 0.11023 0.36159 0.55856 0.0
C130 C 0.42854 0.4065 0.6919 0.0
O131 O 0.39099 0.38342 0.7169 0.0
O132 O 0.02528 0.39876 0.65086 0.0
H133 H 0.2904 0.39764 0.63423 0.0
H134 H 0.14949 0.51852 0.83777 0.0
H135 H 0.379 0.37463 0.55198 0.0
C136 C 0.54693 0.13122 0.21699 0.0
C137 C 0.51748 0.11979 0.16682 0.0
C138 C 0.62313 0.13035 0.21871 0.0
C139 C 0.67052 0.11683 0.16992 0.0
C140 C 0.64118 0.10532 0.11891 0.0
C141 C 0.56476 0.10747 0.11746 0.0
C142 C 0.65283 0.14384 0.27279 0.0
C143 C 0.69001 0.08988 0.06712 0.0
C144 C 0.87295 0.13806 0.15234 0.0
C145 C 0.9017 0.11528 0.18541 0.0
C146 C 0.79789 0.13852 0.146 0.0
C147 C 0.75097 0.1153 0.1723 0.0
C148 C 0.78007 0.09172 0.20419 0.0
C149 C 0.8553 0.09213 0.21088 0.0
C150 C 0.76837 0.16434 0.11282 0.0
C151 C 0.73151 0.06637 0.23196 0.0
H152 H 0.51019 0.14097 0.25495 0.0
H153 H 0.54163 0.09844 0.07902 0.0
H154 H 0.67914 0.12636 0.29786 0.0
H155 H 0.69616 0.16063 0.25654 0.0
H156 H 0.60873 0.15472 0.30547 0.0
H157 H 0.65969 0.08434 0.02862 0.0
H158 H 0.73859 0.10395 0.04923 0.0
H159 H 0.71159 0.06894 0.08457 0.0
H160 H 0.90885 0.15599 0.1326 0.0
H161 H 0.87787 0.07424 0.23556 0.0
H162 H 0.72584 0.17642 0.14475 0.0
H163 H 0.74101 0.1561 0.07449 0.0
H164 H 0.81267 0.18034 0.09402 0.0
H165 H 0.69131 0.07464 0.27101 0.0
H166 H 0.76426 0.04813 0.24893 0.0
H167 H 0.699 0.05715 0.19769 0.0
C168 C 0.39978 0.6535 0.37691 0.0
C169 C 0.44035 0.62739 0.36147 0.0
C170 C 0.32199 0.65375 0.38248 0.0
C171 C 0.28337 0.62719 0.37299 0.0
C172 C 0.32377 0.60051 0.35957 0.0
C173 C 0.40169 0.60099 0.35336 0.0
C174 C 0.28125 0.68271 0.39663 0.0
C175 C 0.28489 0.57158 0.35013 0.0
C176 C 0.07398 0.6262 0.42585 0.0
C177 C 0.04676 0.63231 0.37084 0.0
C178 C 0.1507 0.6237 0.42717 0.0
C179 C 0.20151 0.62798 0.37242 0.0
C180 C 0.17419 0.63407 0.31683 0.0
C181 C 0.09738 0.63597 0.31667 0.0
C182 C 0.17734 0.61654 0.48715 0.0
C183 C 0.22621 0.63891 0.25744 0.0
H184 H 0.42891 0.67401 0.3834 0.0
H185 H 0.43236 0.58063 0.34181 0.0
H186 H 0.25329 0.68929 0.35729 0.0
H187 H 0.23757 0.67994 0.43713 0.0
H188 H 0.31888 0.70106 0.40588 0.0
H189 H 0.32322 0.55227 0.34698 0.0
H190 H 0.23884 0.56753 0.38832 0.0
H191 H 0.26028 0.57289 0.30715 0.0
H192 H 0.03529 0.62302 0.46783 0.0
H193 H 0.07701 0.64069 0.27393 0.0
H194 H 0.21082 0.63536 0.50058 0.0
H195 H 0.21379 0.59669 0.48185 0.0
H196 H 0.13074 0.61219 0.52483 0.0
H197 H 0.26309 0.65819 0.26201 0.0
H198 H 0.19616 0.64313 0.21803 0.0
H199 H 0.26212 0.61913 0.24701 0.0
C200 C 0.07606 0.91706 0.93245 0.0
C201 C 0.05047 0.91128 0.8767 0.0
C202 C 0.15242 0.91866 0.93557 0.0
C203 C 0.2043 0.91396 0.88187 0.0
C204 C 0.1787 0.90806 0.82558 0.0
C205 C 0.10225 0.90692 0.82366 0.0
C206 C 0.17754 0.92549 0.99618 0.0
C207 C 0.23219 0.90294 0.76724 0.0
C208 C 0.40418 0.94076 0.86541 0.0
C209 C 0.44197 0.91417 0.87345 0.0
C210 C 0.32649 0.94131 0.87044 0.0
C211 C 0.28557 0.91465 0.88399 0.0
C212 C 0.3232 0.88802 0.89462 0.0
C213 C 0.40089 0.88812 0.88936 0.0
C214 C 0.28838 0.97028 0.8599 0.0
C215 C 0.28163 0.85912 0.90905 0.0
H216 H 0.03644 0.92069 0.97359 0.0
H217 H 0.0831 0.90243 0.78039 0.0
H218 H 0.21385 0.90743 1.0088 0.0
H219 H 0.21078 0.94631 0.99208 0.0
H220 H 0.13021 0.92816 0.03388 0.0
H221 H 0.20334 0.89853 0.72727 0.0
H222 H 0.2685 0.92273 0.7567 0.0
H223 H 0.26855 0.88373 0.77334 0.0
H224 H 0.4354 0.96112 0.85416 0.0
H225 H 0.42953 0.86751 0.89597 0.0
H226 H 0.25377 0.97734 0.90318 0.0
H227 H 0.25089 0.96742 0.82513 0.0
H228 H 0.32851 0.98836 0.84415 0.0
H229 H 0.23648 0.86209 0.94831 0.0
H230 H 0.31838 0.84087 0.92031 0.0
H231 H 0.25549 0.85229 0.86898 0.0
C232 C 0.87517 0.39835 0.63025 0.0
C233 C 0.89814 0.41165 0.68171 0.0
C234 C 0.79992 0.3975 0.62351 0.0
C235 C 0.74664 0.4101 0.66945 0.0
C236 C 0.76978 0.42445 0.72036 0.0
C237 C 0.84526 0.42506 0.72587 0.0
C238 C 0.77726 0.38287 0.56768 0.0
C239 C 0.71458 0.4387 0.76965 0.0
C240 C 0.55038 0.4287 0.64571 0.0
C241 C 0.51034 0.40533 0.67776 0.0
C242 C 0.62804 0.42981 0.63948 0.0
C243 C 0.66625 0.40707 0.66639 0.0
C244 C 0.62644 0.38251 0.69548 0.0
C245 C 0.54894 0.38188 0.70061 0.0
C246 C 0.66818 0.45626 0.60731 0.0
C247 C 0.66535 0.35768 0.72421 0.0
H248 H 0.91589 0.38839 0.59538 0.0
H249 H 0.86265 0.43572 0.76535 0.0
H250 H 0.74096 0.36344 0.58194 0.0
H251 H 0.74471 0.39871 0.54366 0.0
H252 H 0.82575 0.37522 0.53486 0.0
H253 H 0.74179 0.44962 0.80553 0.0
H254 H 0.68158 0.45562 0.74889 0.0
H255 H 0.6753 0.42161 0.79196 0.0
H256 H 0.52094 0.44654 0.62682 0.0
H257 H 0.51849 0.36362 0.72507 0.0
H258 H 0.72487 0.4505 0.58478 0.0
H259 H 0.67301 0.47393 0.64149 0.0
H260 H 0.63714 0.46559 0.57207 0.0
H261 H 0.71164 0.34884 0.69075 0.0
H262 H 0.62721 0.33904 0.74063 0.0
H263 H 0.68956 0.36645 0.76381 0.0
C264 C 0.41283 0.03695 0.40375 0.0
C265 C 0.34427 0.04842 0.43095 0.0
C266 C 0.46398 0.02591 0.43989 0.0
C267 C 0.44656 0.02676 0.50473 0.0
C268 C 0.37747 0.03835 0.53236 0.0
C269 C 0.32689 0.04873 0.49513 0.0
C270 C 0.53652 1.01323 0.4087 0.0
C271 C 0.3574 0.04019 0.60129 0.0
C272 C 0.54972 0.97662 0.6028 0.0
C273 C 0.60441 0.99598 0.61809 0.0
C274 C 0.49844 0.98624 0.56535 0.0
C275 C 0.50109 1.01604 0.54376 0.0
C276 C 0.55565 0.03574 0.55978 0.0
C277 C 0.60721 0.02535 0.59608 0.0
C278 C 0.44206 0.96441 0.54822 0.0
C279 C 0.55932 0.06785 0.53885 0.0
H280 H 0.42601 0.03611 0.35416 0.0
H281 H 0.27407 0.05767 0.51634 0.0
H282 H 0.58351 0.0263 0.42138 0.0
H283 H 0.54283 0.99001 0.42451 0.0
H284 H 0.54063 1.01333 0.35789 0.0
H285 H 0.30166 0.05002 0.61552 0.0
H286 H 0.35834 1.01768 0.62203 0.0
H287 H 0.39902 0.05393 0.62036 0.0
H288 H 0.54819 0.95375 0.61885 0.0
H289 H 0.64931 0.04037 0.60803 0.0
H290 H 0.44779 0.96259 0.49753 0.0
H291 H 0.38517 0.9725 0.56468 0.0
H292 H 0.44823 0.94188 0.56784 0.0
H293 H 0.56928 0.06903 0.48799 0.0
H294 H 0.60392 0.08047 0.55664 0.0
H295 H 0.50554 0.07895 0.55449 0.0
C296 C 0.34301 0.50512 0.96781 0.0
C297 C 0.36987 0.50077 0.90547 0.0
C298 C 0.39106 0.51218 1.00974 0.0
C299 C 0.46778 0.51583 0.98855 0.0
C300 C 0.49536 0.51138 0.92555 0.0
C301 C 0.44613 0.50356 0.88483 0.0
C302 C 0.35959 0.51584 0.07671 0.0
C303 C 0.57653 0.51564 0.9009 0.0
C304 C 0.57508 0.56298 0.08866 0.0
C305 C 0.61285 0.54119 0.11744 0.0
C306 C 0.52887 0.55508 0.04567 0.0
C307 C 0.51873 0.52462 0.0324 0.0
C308 C 0.55591 0.50254 0.06218 0.0
C309 C 0.60339 0.51113 0.10358 0.0
C310 C 0.49157 0.57933 1.01393 0.0
C311 C 0.54496 0.46983 0.0508 0.0
H312 H 0.28409 0.50283 0.98392 0.0
H313 H 0.46693 0.50063 0.8365 0.0
H314 H 0.38903 0.50101 0.10537 0.0
H315 H 0.36817 0.53903 0.09123 0.0
H316 H 0.29935 0.51069 0.08623 0.0
H317 H 0.58922 0.51116 0.85088 0.0
H318 H 0.59338 0.53882 0.90936 0.0
H319 H 0.61074 0.50067 0.92525 0.0
H320 H 0.58327 0.58626 0.09853 0.0
H321 H 0.63247 0.49425 0.12591 0.0
H322 H 0.43047 0.57703 1.02507 0.0
H323 H 0.50633 0.57717 0.96342 0.0
H324 H 0.50753 0.60194 1.02747 0.0
H325 H 0.48528 0.464 0.06202 0.0
H326 H 0.57681 0.45544 0.07854 0.0
H327 H 0.56246 0.46474 1.00156 0.0
C328 C 0.92902 0.97971 0.95116 0.0
C329 C 0.85225 0.97833 0.96862 0.0
C330 C 0.97421 0.99241 0.99046 0.0
C331 C 0.94084 1.00504 0.04683 0.0
C332 C 0.86365 1.00232 0.06565 0.0
C333 C 0.82055 0.9884 1.02679 0.0
C334 C 0.05696 0.99401 0.9701 0.0
C335 C 0.82545 1.0168 0.12359 0.0
C336 C 0.06326 0.0255 0.1641 0.0
C337 C 0.08597 0.05437 0.14513 0.0
C338 C 0.01526 1.0092 0.13304 0.0
C339 C -0.01403 0.02279 0.08408 0.0
C340 C 0.00289 0.05297 0.06869 0.0
C341 C 0.0554 0.06799 0.09766 0.0
C342 C 0.00084 0.97679 0.14938 0.0
C343 C 0.96891 0.06887 1.01929 0.0
H344 H 0.95301 0.97289 0.90536 0.0
H345 H 0.76069 0.98797 0.0394 0.0
H346 H 0.07483 1.01756 0.96336 0.0
H347 H 0.08632 0.98448 1.00624 0.0
H348 H 0.07448 0.98194 0.92649 0.0
H349 H 0.76613 1.01026 0.13448 0.0
H350 H 0.85349 1.01112 0.16334 0.0
H351 H 0.82861 0.04133 0.11768 0.0
H352 H 0.08838 1.01468 0.19996 0.0
H353 H 0.07552 0.08957 0.08059 0.0
H354 H 0.02585 0.96274 0.11041 0.0
H355 H 0.94049 0.97204 0.15737 0.0
H356 H 0.02455 0.97007 0.19092 0.0
H357 H -0.00691 0.0602 0.97362 0.0
H358 H -0.02117 0.09328 1.01972 0.0
H359 H 0.90821 0.06479 1.02529 0.0
C360 C 0.00931 0.46801 0.58708 0.0
C361 C 0.0631 0.47516 0.62339 0.0
C362 C 0.95987 0.48974 0.57215 0.0
C363 C 0.96772 0.51956 0.59134 0.0
C364 C 0.01728 0.52613 0.63289 0.0
C365 C 0.06377 0.5036 0.64923 0.0
C366 C 0.90464 0.48141 0.53052 0.0
C367 C 0.02764 0.55747 0.65445 0.0
C368 C 0.92493 0.56859 0.46259 0.0
C369 C 0.85008 0.57451 0.48237 0.0
C370 C 0.96737 0.5538 0.50136 0.0
C371 C 0.93274 0.5439 0.56004 0.0
C372 C 0.85991 0.55326 0.58277 0.0
C373 C 0.81971 0.56895 0.5437 0.0
C374 C 0.0464 0.54555 0.4766 0.0
C375 C 0.82077 0.54334 0.64486 0.0
H376 H 0.00987 0.44618 0.56625 0.0
H377 H 0.10674 0.50921 0.67633 0.0
H378 H 0.84992 0.49166 0.54659 0.0
H379 H 0.92433 0.48988 0.48347 0.0
H380 H 0.89721 0.45689 0.52825 0.0
H381 H 0.05359 0.55769 0.69691 0.0
H382 H 0.06458 0.56982 0.61816 0.0
H383 H 0.97416 0.56956 0.66314 0.0
H384 H 0.9479 0.57234 0.41485 0.0
H385 H 0.76124 0.57325 0.55855 0.0
H386 H 0.04927 0.52147 0.46552 0.0
H387 H 0.08302 0.54966 0.51156 0.0
H388 H 0.06802 0.55831 0.43432 0.0
H389 H 0.79858 0.52051 0.64106 0.0
H390 H 0.77353 0.55821 0.66172 0.0
H391 H 0.8592 0.54268 0.6793 0.0
C392 C 0.26316 0.22598 0.92476 0.0
C393 C 0.21536 0.21778 0.97844 0.0
C394 C 0.26096 0.25449 0.89888 0.0
C395 C 0.21043 0.2758 0.92764 0.0
C396 C 0.16496 0.26844 0.98365 0.0
C397 C 0.16732 0.23948 1.00807 0.0
C398 C 0.3101 0.26124 0.83881 0.0
C399 C 0.11126 0.29072 1.01635 0.0
C400 C 0.24206 0.35453 0.86348 0.0
C401 C 0.1924 0.35548 0.82066 0.0
C402 C 0.24583 0.32937 0.9013 0.0
C403 C 0.2 0.30438 0.89524 0.0
C404 C 0.14805 0.30568 0.85368 0.0
C405 C 0.14444 0.33123 0.81745 0.0
C406 C 0.30067 0.32913 0.94613 0.0
C407 C 0.09879 0.27944 0.84501 0.0
H408 H 0.3013 0.20976 0.90157 0.0
H409 H 0.12917 0.2338 0.04897 0.0
H410 H 0.27528 0.26486 0.80229 0.0
H411 H 0.34213 0.28198 0.84251 0.0
H412 H 0.34964 0.24293 0.8243 0.0
H413 H 0.08888 0.28338 0.06377 0.0
H414 H 0.13846 0.31273 1.01847 0.0
H415 H 0.06412 0.29375 0.99051 0.0
H416 H 0.27902 0.37319 0.86666 0.0
H417 H 0.10587 0.3316 0.78458 0.0
H418 H 0.3464 0.3135 0.93003 0.0
H419 H 0.27364 0.32117 0.99185 0.0
H420 H 0.32492 0.35151 0.95126 0.0
H421 H 0.13344 0.26034 0.82639 0.0
H422 H 0.0588 0.28455 0.81309 0.0
H423 H 0.06723 0.27231 0.88972 0.0
C424 C 0.72215 0.7139 0.67102 0.0
C425 C 0.75209 0.71151 0.60864 0.0
C426 C 0.73068 0.7399 0.70419 0.0
C427 C 0.77069 0.76426 0.6746 0.0
C428 C 0.80444 0.76156 0.61261 0.0
C429 C 0.79439 0.73531 0.58021 0.0
C430 C 0.69344 0.74184 0.77011 0.0
C431 C 0.84807 0.78697 0.57958 0.0
C432 C 0.70975 0.84057 0.73553 0.0
C433 C 0.76273 0.84725 0.77351 0.0
C434 C 0.71269 0.81393 0.70241 0.0
C435 C 0.77039 0.79338 0.7068 0.0
C436 C 0.82489 0.80011 0.74414 0.0
C437 C 0.82023 0.82691 0.77734 0.0
C438 C 0.65296 0.80752 0.66366 0.0
C439 C 0.88761 0.77888 0.7495 0.0
H440 H 0.69002 0.69562 0.69381 0.0
H441 H 0.81698 0.73417 0.53195 0.0
H442 H 0.73355 0.74936 0.79997 0.0
H443 H 0.64828 0.75855 0.77382 0.0
H444 H 0.66935 0.72019 0.78787 0.0
H445 H 0.87869 0.78011 0.53439 0.0
H446 H 0.80977 0.8053 0.57193 0.0
H447 H 0.88827 0.79598 0.60789 0.0
H448 H 0.66496 0.85603 0.73222 0.0
H449 H 0.86171 0.83192 0.80621 0.0
H450 H 0.62193 0.78715 0.6809 0.0
H451 H 0.67826 0.80325 0.6155 0.0
H452 H 0.61294 0.82614 0.66396 0.0
H453 H 0.86512 0.75767 0.77071 0.0
H454 H 0.92782 0.78811 0.77765 0.0
H455 H 0.91758 0.77351 0.70323 0.0
C456 C 0.80045 0.81355 0.08473 0.0
C457 C 0.73664 0.8311 0.10021 0.0
C458 C 0.8076 0.78584 0.1134 0.0
C459 C 0.75024 0.77553 0.15931 0.0
C460 C 0.68583 0.79301 0.17505 0.0
C461 C 0.67976 0.82038 0.14529 0.0
C462 C 0.87699 0.76773 0.09512 0.0
C463 C 0.62342 0.78295 0.22395 0.0
C464 C 0.72864 0.69384 0.20521 0.0
C465 C 0.75823 0.69323 0.26044 0.0
C466 C 0.72834 0.72019 0.17058 0.0
C467 C 0.75747 0.74673 0.19195 0.0
C468 C 0.78902 0.74612 0.24686 0.0
C469 C 0.78942 0.71938 0.2802 0.0
C470 C 0.69503 0.71979 0.11191 0.0
C471 C 0.81997 0.77398 0.2716 0.0
H472 H 0.84583 0.82156 0.05127 0.0
H473 H 0.62998 0.83348 0.15772 0.0
H474 H 0.90714 0.76523 0.13492 0.0
H475 H 0.86224 0.74504 0.08132 0.0
H476 H 0.91493 0.77811 0.05659 0.0
H477 H 0.57696 0.79913 0.23082 0.0
H478 H 0.60155 0.76114 0.2114 0.0
H479 H 0.64443 0.77985 0.26824 0.0
H480 H 0.70495 0.67374 0.18919 0.0
H481 H 0.81232 0.71921 0.3228 0.0
H482 H 0.73451 0.72949 0.07365 0.0
H483 H 0.6443 0.7337 0.11731 0.0
H484 H 0.68008 0.69693 0.09905 0.0
H485 H 0.86175 0.78443 0.23602 0.0
H486 H 0.84619 0.76948 0.31303 0.0
H487 H 0.7748 0.79039 0.28372 0.0
C488 C 0.1395 0.308 0.48487 0.0
C489 C 0.19662 0.32863 0.46691 0.0
C490 C 0.1283 0.28376 0.44713 0.0
C491 C 0.17515 0.28019 0.39019 0.0
C492 C 0.22892 0.30225 0.3699 0.0
C493 C 0.23922 0.32608 0.40862 0.0
C494 C 0.07029 0.26075 0.47044 0.0
C495 C 0.27954 0.29955 0.30929 0.0
C496 C 0.22837 0.20224 0.33516 0.0
C497 C 0.18601 0.19824 0.28771 0.0
C498 C 0.22374 0.22849 0.36957 0.0
C499 C 0.17584 0.25158 0.35619 0.0
C500 C 0.13208 0.24764 0.30894 0.0
C501 C 0.13752 0.22097 0.27531 0.0
C502 C 0.27123 0.23167 0.41972 0.0
C503 C 0.08067 0.27181 0.2932 0.0
H504 H 0.10689 0.30955 0.53011 0.0
H505 H 0.28306 0.3421 0.3943 0.0
H506 H 0.0384 0.25413 0.43362 0.0
H507 H 0.09793 0.2405 0.48491 0.0
H508 H 0.03105 0.26896 0.51029 0.0
H509 H 0.31108 0.32041 0.29649 0.0
H510 H 0.31977 0.28131 0.3123 0.0
H511 H 0.24734 0.29383 0.2721 0.0
H512 H 0.26557 0.18479 0.34555 0.0
H513 H 0.10458 0.21811 0.23874 0.0
H514 H 0.23603 0.23692 0.46393 0.0
H515 H 0.31079 0.25041 0.40865 0.0
H516 H 0.30334 0.21119 0.42596 0.0
H517 H 0.0423 0.27848 0.33482 0.0
H518 H 0.04747 0.2647 0.2575 0.0
H519 H 0.11338 0.29182 0.27626 0.0
C520 C 0.40498 0.04938 0.12952 0.0
C521 C 0.33643 0.05711 0.11338 0.0
C522 C 0.46245 0.03938 0.08444 0.0
C523 C 0.4495 0.03638 1.02272 0.0
C524 C 0.38041 0.04451 1.00656 0.0
C525 C 0.325 0.05492 0.05203 0.0
C526 C 0.53595 0.03109 0.1033 0.0
C527 C 0.364 0.04116 0.9418 0.0
C528 C 0.61746 0.02823 0.89979 0.0
C529 C 0.62877 0.99746 0.90169 0.0
C530 C 0.55731 0.04144 0.93708 0.0
C531 C 0.50672 0.02314 0.97582 0.0
C532 C 0.51334 0.9918 0.97232 0.0
C533 C 0.57547 0.97939 0.93656 0.0
C534 C 0.55061 0.07494 0.93591 0.0
C535 C 0.45738 0.97142 1.0093 0.0
H536 H 0.4131 0.05062 0.17717 0.0
H537 H 0.27106 0.06008 0.04001 0.0
H538 H 0.5395 1.00653 0.10724 0.0
H539 H 0.5827 0.03856 0.06835 0.0
H540 H 0.54274 0.04087 0.14833 0.0
H541 H 0.305 0.04578 0.93819 0.0
H542 H 0.39927 0.05678 0.91095 0.0
H543 H 0.37754 1.01828 0.92507 0.0
H544 H 0.65933 0.04223 0.8734 0.0
H545 H 0.58582 0.95579 0.94091 0.0
H546 H 0.51797 0.08401 0.97823 0.0
H547 H 0.52276 0.08146 0.89648 0.0
H548 H 0.60623 0.08563 0.92887 0.0
H549 H 0.46168 0.97331 0.05877 0.0
H550 H 0.46595 0.94774 0.99571 0.0
H551 H 0.40025 0.97796 1.00333 0.0
C552 C 0.3344 0.46752 0.50509 0.0
C553 C 0.32283 0.46904 0.56932 0.0
C554 C 0.39642 0.48064 0.47037 0.0
C555 C 0.44962 0.49463 0.50086 0.0
C556 C 0.44065 0.49462 0.56608 0.0
C557 C 0.3762 0.48221 0.59974 0.0
C558 C 0.40236 0.48123 0.40123 0.0
C559 C 0.49636 0.50929 0.60056 0.0
C560 C 0.63756 0.5109 0.40814 0.0
C561 C 0.63643 0.54205 0.40534 0.0
C562 C 0.5771 0.49496 0.43913 0.0
C563 C 0.51245 0.5106 0.46439 0.0
C564 C 0.5086 0.54182 0.45657 0.0
C565 C 0.57174 0.55728 0.42905 0.0
C566 C 0.58466 0.46173 0.44726 0.0
C567 C 0.43907 0.55905 0.47991 0.0
H568 H 0.29245 0.45741 0.48172 0.0
H569 H 0.36578 0.48432 0.64926 0.0
H570 H 0.40698 0.50458 0.3843 0.0
H571 H 0.45311 0.46941 0.38026 0.0
H572 H 0.35382 0.47066 0.38496 0.0
H573 H 0.49404 0.49963 0.64733 0.0
H574 H 0.55366 0.50723 0.57569 0.0
H575 H 0.48346 0.53332 0.60588 0.0
H576 H 0.68855 0.49922 0.39134 0.0
H577 H 0.57261 0.58131 0.4317 0.0
H578 H 0.56327 0.45011 0.40926 0.0
H579 H 0.55301 0.45363 0.49125 0.0
H580 H 0.64364 0.45522 0.44572 0.0
H581 H 0.39216 0.5504 0.45835 0.0
H582 H 0.44548 0.58325 0.46998 0.0
H583 H 0.42397 0.55608 0.53017 0.0
loop_
_geom_bond_atom_site_label_1
_geom_bond_atom_site_label_2
_geom_bond_distance
_geom_bond_site_symmetry_2
_ccdc_geom_bond_type
Zn0 N4 2.020 . S
Zn0 O8 2.019 . S
Zn0 N10 2.119 . S
Zn0 O18 1.975 . S
C1 N2 1.334 . S
C1 N5 1.336 . S
N2 C1 1.334 . S
N2 C3 1.334 . S
C3 N2 1.334 . S
C3 N4 1.336 . S
N4 Zn0 2.020 . S
N4 C3 1.336 . S
N4 N5 1.354 . S
N5 C1 1.336 . S
N5 N4 1.354 . S
N5 Zn9 2.020 . S
C6 O7 1.244 1_655 S
C6 O30 1.257 1_655 S
O7 C6 1.244 1_455 S
O8 Zn0 2.019 . S
O8 C28 1.257 . S
Zn9 N5 2.020 . S
Zn9 O16 1.975 . S
Zn9 N25 2.119 . S
Zn9 O30 2.019 . S
N10 Zn0 2.119 . S
N10 C12 1.334 . S
N10 C13 1.328 . S
C11 C12 1.391 . S
C11 N14 1.329 . S
C11 H32 0.930 . S
C12 N10 1.334 . S
C12 C11 1.391 . S
C12 H19 0.930 . S
C13 N10 1.328 . S
C13 C15 1.392 . S
C13 H20 0.930 . S
N14 C11 1.329 . S
N14 C15 1.331 . S
C15 C13 1.392 . S
C15 N14 1.331 . S
O16 Zn9 1.975 . S
O16 C17 1.252 . S
C17 O16 1.252 . S
C17 O18 1.252 . S
O18 Zn0 1.975 . S
O18 C17 1.252 . S
H19 C12 0.930 . S
H20 C13 0.930 . S
C21 C22 1.392 . S
C21 N25 1.328 . S
C21 H27 0.930 . S
C22 C21 1.392 . S
C22 N26 1.331 . S
C23 C24 1.391 . S
C23 N26 1.329 . S
C23 H33 0.930 . S
C24 C23 1.391 . S
C24 N25 1.334 . S
C24 H31 0.930 . S
N25 Zn9 2.119 . S
N25 C21 1.328 . S
N25 C24 1.334 . S
N26 C22 1.331 . S
N26 C23 1.329 . S
H27 C21 0.930 . S
C28 O8 1.257 . S
C28 O29 1.244 . S
O29 C28 1.244 . S
O30 C6 1.257 1_455 S
O30 Zn9 2.019 . S
H31 C24 0.930 . S
H32 C11 0.930 . S
H33 C23 0.930 . S
Zn34 N38 2.020 . S
Zn34 O42 2.019 . S
Zn34 N44 2.119 . S
Zn34 O52 1.975 . S
C35 N36 1.334 . S
C35 N39 1.336 . S
N36 C35 1.334 . S
N36 C37 1.334 . S
C37 N36 1.334 . S
C37 N38 1.336 . S
N38 Zn34 2.020 . S
N38 C37 1.336 . S
N38 N39 1.354 . S
N39 C35 1.336 . S
N39 N38 1.354 . S
N39 Zn43 2.020 . S
C40 O41 1.244 . S
C40 O64 1.257 . S
O41 C40 1.244 . S
O42 Zn34 2.019 . S
O42 C62 1.257 1_655 S
Zn43 N39 2.020 . S
Zn43 O50 1.975 . S
Zn43 N59 2.119 . S
Zn43 O64 2.019 . S
N44 Zn34 2.119 . S
N44 C46 1.334 . S
N44 C47 1.328 . S
C45 C46 1.391 . S
C45 N48 1.329 . S
C45 H66 0.930 . S
C46 N44 1.334 . S
C46 C45 1.391 . S
C46 H53 0.930 . S
C47 N44 1.328 . S
C47 C49 1.392 . S
C47 H54 0.930 . S
N48 C45 1.329 . S
N48 C49 1.331 . S
C49 C47 1.392 . S
C49 N48 1.331 . S
O50 Zn43 1.975 . S
O50 C51 1.252 . S
C51 O50 1.252 . S
C51 O52 1.252 . S
O52 Zn34 1.975 . S
O52 C51 1.252 . S
H53 C46 0.930 . S
H54 C47 0.930 . S
C55 C56 1.392 . S
C55 N59 1.328 . S
C55 H61 0.930 . S
C56 C55 1.392 . S
C56 N60 1.331 . S
C57 C58 1.391 . S
C57 N60 1.329 . S
C57 H67 0.930 . S
C58 C57 1.391 . S
C58 N59 1.334 . S
C58 H65 0.930 . S
N59 Zn43 2.119 . S
N59 C55 1.328 . S
N59 C58 1.334 . S
N60 C56 1.331 . S
N60 C57 1.329 . S
H61 C55 0.930 . S
C62 O42 1.257 1_455 S
C62 O63 1.244 1_455 S
O63 C62 1.244 1_655 S
O64 C40 1.257 . S
O64 Zn43 2.019 . S
H65 C58 0.930 . S
H66 C45 0.930 . S
H67 C57 0.930 . S
Zn68 N72 2.020 . S
Zn68 O76 2.019 . S
Zn68 N78 2.119 . S
Zn68 O86 1.975 . S
C69 N70 1.334 . S
C69 N73 1.336 . S
N70 C69 1.334 . S
N70 C71 1.334 . S
C71 N70 1.334 . S
C71 N72 1.336 . S
N72 Zn68 2.020 . S
N72 C71 1.336 . S
N72 N73 1.354 . S
N73 C69 1.336 . S
N73 N72 1.354 . S
N73 Zn77 2.020 . S
C74 O75 1.244 1_455 S
C74 O98 1.257 1_455 S
O75 C74 1.244 1_655 S
O76 Zn68 2.019 . S
O76 C96 1.257 . S
Zn77 N73 2.020 . S
Zn77 O84 1.975 . S
Zn77 N93 2.119 . S
Zn77 O98 2.019 . S
N78 Zn68 2.119 . S
N78 C80 1.334 . S
N78 C81 1.328 . S
C79 C80 1.391 . S
C79 N82 1.329 . S
C79 H100 0.930 . S
C80 N78 1.334 . S
C80 C79 1.391 . S
C80 H87 0.930 . S
C81 N78 1.328 . S
C81 C83 1.392 . S
C81 H88 0.930 . S
N82 C79 1.329 . S
N82 C83 1.331 . S
C83 C81 1.392 . S
C83 N82 1.331 . S
O84 Zn77 1.975 . S
O84 C85 1.252 . S
C85 O84 1.252 . S
C85 O86 1.252 . S
O86 Zn68 1.975 . S
O86 C85 1.252 . S
H87 C80 0.930 . S
H88 C81 0.930 . S
C89 C90 1.392 . S
C89 N93 1.328 . S
C89 H95 0.930 . S
C90 C89 1.392 . S
C90 N94 1.331 . S
C91 C92 1.391 . S
C91 N94 1.329 . S
C91 H101 0.930 . S
C92 C91 1.391 . S
C92 N93 1.334 . S
C92 H99 0.930 . S
N93 Zn77 2.119 . S
N93 C89 1.328 . S
N93 C92 1.334 . S
N94 C90 1.331 . S
N94 C91 1.329 . S
H95 C89 0.930 . S
C96 O76 1.257 . S
C96 O97 1.244 . S
O97 C96 1.244 . S
O98 C74 1.257 1_655 S
O98 Zn77 2.019 . S
H99 C92 0.930 . S
H100 C79 0.930 . S
H101 C91 0.930 . S
Zn102 N106 2.020 . S
Zn102 O110 2.019 . S
Zn102 N112 2.119 . S
Zn102 O120 1.975 . S
C103 N104 1.334 . S
C103 N107 1.336 . S
N104 C103 1.334 . S
N104 C105 1.334 . S
C105 N104 1.334 . S
C105 N106 1.336 . S
N106 Zn102 2.020 . S
N106 C105 1.336 . S
N106 N107 1.354 . S
N107 C103 1.336 . S
N107 N106 1.354 . S
N107 Zn111 2.020 . S
C108 O109 1.244 1_655 S
C108 O132 1.257 1_655 S
O109 C108 1.244 1_455 S
O110 Zn102 2.019 . S
O110 C130 1.257 . S
Zn111 N107 2.020 . S
Zn111 O118 1.975 . S
Zn111 N127 2.119 . S
Zn111 O132 2.019 . S
N112 Zn102 2.119 . S
N112 C114 1.334 . S
N112 C115 1.328 . S
C113 C114 1.391 . S
C113 N116 1.329 . S
C113 H134 0.930 . S
C114 N112 1.334 . S
C114 C113 1.391 . S
C114 H121 0.930 . S
C115 N112 1.328 . S
C115 C117 1.392 . S
C115 H122 0.930 . S
N116 C113 1.329 . S
N116 C117 1.331 . S
C117 C115 1.392 . S
C117 N116 1.331 . S
O118 Zn111 1.975 . S
O118 C119 1.252 . S
C119 O118 1.252 . S
C119 O120 1.252 . S
O120 Zn102 1.975 . S
O120 C119 1.252 . S
H121 C114 0.930 . S
H122 C115 0.930 . S
C123 C124 1.392 . S
C123 N127 1.328 . S
C123 H129 0.930 . S
C124 C123 1.392 . S
C124 N128 1.331 . S
C125 C126 1.391 . S
C125 N128 1.329 . S
C125 H135 0.930 . S
C126 C125 1.391 . S
C126 N127 1.334 . S
C126 H133 0.930 . S
N127 Zn111 2.119 . S
N127 C123 1.328 . S
N127 C126 1.334 . S
N128 C124 1.331 . S
N128 C125 1.329 . S
H129 C123 0.930 . S
C130 O110 1.257 . S
C130 O131 1.244 . S
O131 C130 1.244 . S
O132 C108 1.257 1_455 S
O132 Zn111 2.019 . S
H133 C126 0.930 . S
H134 C113 0.930 . S
H135 C125 0.930 . S
C136 C137 1.391 . S
C136 C138 1.394 . S
C136 H152 0.931 . S
C137 C136 1.391 . S
C137 C141 1.376 . S
C138 C136 1.394 . S
C138 C139 1.369 . S
C138 C142 1.531 . S
C139 C138 1.369 . S
C139 C140 1.410 . S
C139 C147 1.503 . S
C140 C139 1.410 . S
C140 C141 1.392 . S
C140 C143 1.511 . S
C141 C137 1.376 . S
C141 C140 1.392 . S
C141 H153 0.929 . S
C142 C138 1.531 . S
C142 H154 0.960 . S
C142 H155 0.962 . S
C142 H156 0.960 . S
C143 C140 1.511 . S
C143 H157 0.961 . S
C143 H158 0.961 . S
C143 H159 0.961 . S
C144 C145 1.370 . S
C144 C146 1.363 . S
C144 H160 0.931 . S
C145 C144 1.370 . S
C145 C149 1.408 . S
C146 C144 1.363 . S
C146 C147 1.370 . S
C146 C150 1.524 . S
C147 C139 1.503 . S
C147 C146 1.370 . S
C147 C148 1.403 . S
C148 C147 1.403 . S
C148 C149 1.404 . S
C148 C151 1.539 . S
C149 C145 1.408 . S
C149 C148 1.404 . S
C149 H161 0.930 . S
C150 C146 1.524 . S
C150 H162 0.956 . S
C150 H163 0.961 . S
C150 H164 0.961 . S
C151 C148 1.539 . S
C151 H165 0.958 . S
C151 H166 0.961 . S
C151 H167 0.960 . S
H152 C136 0.931 . S
H153 C141 0.929 . S
H154 C142 0.960 . S
H155 C142 0.962 . S
H156 C142 0.960 . S
H157 C143 0.961 . S
H158 C143 0.961 . S
H159 C143 0.961 . S
H160 C144 0.931 . S
H161 C149 0.930 . S
H162 C150 0.956 . S
H163 C150 0.961 . S
H164 C150 0.961 . S
H165 C151 0.958 . S
H166 C151 0.961 . S
H167 C151 0.960 . S
C168 C169 1.391 . S
C168 C170 1.394 . S
C168 H184 0.931 . S
C169 C168 1.391 . S
C169 C173 1.376 . S
C170 C168 1.394 . S
C170 C171 1.369 . S
C170 C174 1.531 . S
C171 C170 1.369 . S
C171 C172 1.410 . S
C171 C179 1.503 . S
C172 C171 1.410 . S
C172 C173 1.392 . S
C172 C175 1.511 . S
C173 C169 1.376 . S
C173 C172 1.392 . S
C173 H185 0.929 . S
C174 C170 1.531 . S
C174 H186 0.960 . S
C174 H187 0.962 . S
C174 H188 0.960 . S
C175 C172 1.511 . S
C175 H189 0.961 . S
C175 H190 0.961 . S
C175 H191 0.961 . S
C176 C177 1.370 . S
C176 C178 1.363 . S
C176 H192 0.931 . S
C177 C176 1.370 . S
C177 C181 1.408 . S
C178 C176 1.363 . S
C178 C179 1.370 . S
C178 C182 1.524 . S
C179 C171 1.503 . S
C179 C178 1.370 . S
C179 C180 1.403 . S
C180 C179 1.403 . S
C180 C181 1.404 . S
C180 C183 1.539 . S
C181 C177 1.408 . S
C181 C180 1.404 . S
C181 H193 0.930 . S
C182 C178 1.524 . S
C182 H194 0.956 . S
C182 H195 0.961 . S
C182 H196 0.961 . S
C183 C180 1.539 . S
C183 H197 0.958 . S
C183 H198 0.961 . S
C183 H199 0.960 . S
H184 C168 0.931 . S
H185 C173 0.929 . S
H186 C174 0.960 . S
H187 C174 0.962 . S
H188 C174 0.960 . S
H189 C175 0.961 . S
H190 C175 0.961 . S
H191 C175 0.961 . S
H192 C176 0.931 . S
H193 C181 0.930 . S
H194 C182 0.956 . S
H195 C182 0.961 . S
H196 C182 0.961 . S
H197 C183 0.958 . S
H198 C183 0.961 . S
H199 C183 0.960 . S
C200 C201 1.391 . S
C200 C202 1.394 . S
C200 H216 0.931 . S
C201 C200 1.391 . S
C201 C205 1.376 . S
C202 C200 1.394 . S
C202 C203 1.369 . S
C202 C206 1.531 . S
C203 C202 1.369 . S
C203 C204 1.410 . S
C203 C211 1.503 . S
C204 C203 1.410 . S
C204 C205 1.392 . S
C204 C207 1.511 . S
C205 C201 1.376 . S
C205 C204 1.392 . S
C205 H217 0.929 . S
C206 C202 1.531 . S
C206 H218 0.960 . S
C206 H219 0.962 . S
C206 H220 0.960 . S
C207 C204 1.511 . S
C207 H221 0.961 . S
C207 H222 0.961 . S
C207 H223 0.961 . S
C208 C209 1.370 . S
C208 C210 1.363 . S
C208 H224 0.931 . S
C209 C208 1.370 . S
C209 C213 1.408 . S
C210 C208 1.363 . S
C210 C211 1.370 . S
C210 C214 1.524 . S
C211 C203 1.503 . S
C211 C210 1.370 . S
C211 C212 1.403 . S
C212 C211 1.403 . S
C212 C213 1.404 . S
C212 C215 1.539 . S
C213 C209 1.408 . S
C213 C212 1.404 . S
C213 H225 0.930 . S
C214 C210 1.524 . S
C214 H226 0.956 . S
C214 H227 0.961 . S
C214 H228 0.961 . S
C215 C212 1.539 . S
C215 H229 0.958 . S
C215 H230 0.961 . S
C215 H231 0.960 . S
H216 C200 0.931 . S
H217 C205 0.929 . S
H218 C206 0.960 . S
H219 C206 0.962 . S
H220 C206 0.960 . S
H221 C207 0.961 . S
H222 C207 0.961 . S
H223 C207 0.961 . S
H224 C208 0.931 . S
H225 C213 0.930 . S
H226 C214 0.956 . S
H227 C214 0.961 . S
H228 C214 0.961 . S
H229 C215 0.958 . S
H230 C215 0.961 . S
H231 C215 0.960 . S
C232 C233 1.391 . S
C232 C234 1.394 . S
C232 H248 0.931 . S
C233 C232 1.391 . S
C233 C237 1.376 . S
C234 C232 1.394 . S
C234 C235 1.369 . S
C234 C238 1.531 . S
C235 C234 1.369 . S
C235 C236 1.410 . S
C235 C243 1.503 . S
C236 C235 1.410 . S
C236 C237 1.392 . S
C236 C239 1.511 . S
C237 C233 1.376 . S
C237 C236 1.392 . S
C237 H249 0.929 . S
C238 C234 1.531 . S
C238 H250 0.960 . S
C238 H251 0.962 . S
C238 H252 0.960 . S
C239 C236 1.511 . S
C239 H253 0.961 . S
C239 H254 0.961 . S
C239 H255 0.961 . S
C240 C241 1.370 . S
C240 C242 1.363 . S
C240 H256 0.931 . S
C241 C240 1.370 . S
C241 C245 1.408 . S
C242 C240 1.363 . S
C242 C243 1.370 . S
C242 C246 1.524 . S
C243 C235 1.503 . S
C243 C242 1.370 . S
C243 C244 1.403 . S
C244 C243 1.403 . S
C244 C245 1.404 . S
C244 C247 1.539 . S
C245 C241 1.408 . S
C245 C244 1.404 . S
C245 H257 0.930 . S
C246 C242 1.524 . S
C246 H258 0.956 . S
C246 H259 0.961 . S
C246 H260 0.961 . S
C247 C244 1.539 . S
C247 H261 0.958 . S
C247 H262 0.961 . S
C247 H263 0.960 . S
H248 C232 0.931 . S
H249 C237 0.929 . S
H250 C238 0.960 . S
H251 C238 0.962 . S
H252 C238 0.960 . S
H253 C239 0.961 . S
H254 C239 0.961 . S
H255 C239 0.961 . S
H256 C240 0.931 . S
H257 C245 0.930 . S
H258 C246 0.956 . S
H259 C246 0.961 . S
H260 C246 0.961 . S
H261 C247 0.958 . S
H262 C247 0.961 . S
H263 C247 0.960 . S
C264 C265 1.391 . S
C264 C266 1.394 . S
C264 H280 0.931 . S
C265 C264 1.391 . S
C265 C269 1.376 . S
C266 C264 1.394 . S
C266 C267 1.369 . S
C266 C270 1.531 . S
C267 C266 1.369 . S
C267 C268 1.410 . S
C267 C275 1.503 1_545 S
C268 C267 1.410 . S
C268 C269 1.392 . S
C268 C271 1.511 . S
C269 C265 1.376 . S
C269 C268 1.392 . S
C269 H281 0.929 . S
C270 C266 1.531 . S
C270 H282 0.960 . S
C270 H283 0.962 1_545 S
C270 H284 0.960 . S
C271 C268 1.511 . S
C271 H285 0.961 . S
C271 H286 0.961 1_545 S
C271 H287 0.961 . S
C272 C273 1.370 . S
C272 C274 1.363 . S
C272 H288 0.931 . S
C273 C272 1.370 . S
C273 C277 1.408 1_565 S
C274 C272 1.363 . S
C274 C275 1.370 . S
C274 C278 1.524 . S
C275 C267 1.503 1_565 S
C275 C274 1.370 . S
C275 C276 1.403 1_565 S
C276 C275 1.403 1_545 S
C276 C277 1.404 . S
C276 C279 1.539 . S
C277 C273 1.408 1_545 S
C277 C276 1.404 . S
C277 H289 0.930 . S
C278 C274 1.524 . S
C278 H290 0.956 . S
C278 H291 0.961 . S
C278 H292 0.961 . S
C279 C276 1.539 . S
C279 H293 0.958 . S
C279 H294 0.961 . S
C279 H295 0.960 . S
H280 C264 0.931 . S
H281 C269 0.929 . S
H282 C270 0.960 . S
H283 C270 0.962 1_565 S
H284 C270 0.960 . S
H285 C271 0.961 . S
H286 C271 0.961 1_565 S
H287 C271 0.961 . S
H288 C272 0.931 . S
H289 C277 0.930 . S
H290 C278 0.956 . S
H291 C278 0.961 . S
H292 C278 0.961 . S
H293 C279 0.958 . S
H294 C279 0.961 . S
H295 C279 0.960 . S
C296 C297 1.391 . S
C296 C298 1.394 1_556 S
C296 H312 0.931 . S
C297 C296 1.391 . S
C297 C301 1.376 . S
C298 C296 1.394 1_554 S
C298 C299 1.369 1_554 S
C298 C302 1.531 . S
C299 C298 1.369 1_556 S
C299 C300 1.410 . S
C299 C307 1.503 1_556 S
C300 C299 1.410 . S
C300 C301 1.392 . S
C300 C303 1.511 . S
C301 C297 1.376 . S
C301 C300 1.392 . S
C301 H313 0.929 . S
C302 C298 1.531 . S
C302 H314 0.960 . S
C302 H315 0.962 . S
C302 H316 0.960 . S
C303 C300 1.511 . S
C303 H317 0.961 . S
C303 H318 0.961 . S
C303 H319 0.961 . S
C304 C305 1.370 . S
C304 C306 1.363 . S
C304 H320 0.931 . S
C305 C304 1.370 . S
C305 C309 1.408 . S
C306 C304 1.363 . S
C306 C307 1.370 . S
C306 C310 1.524 . S
C307 C299 1.503 1_554 S
C307 C306 1.370 . S
C307 C308 1.403 . S
C308 C307 1.403 . S
C308 C309 1.404 . S
C308 C311 1.539 . S
C309 C305 1.408 . S
C309 C308 1.404 . S
C309 H321 0.930 . S
C310 C306 1.524 . S
C310 H322 0.956 . S
C310 H323 0.961 1_554 S
C310 H324 0.961 . S
C311 C308 1.539 . S
C311 H325 0.958 . S
C311 H326 0.961 1_554 S
C311 H327 0.960 1_554 S
H312 C296 0.931 . S
H313 C301 0.929 . S
H314 C302 0.960 . S
H315 C302 0.962 . S
H316 C302 0.960 . S
H317 C303 0.961 . S
H318 C303 0.961 . S
H319 C303 0.961 . S
H320 C304 0.931 . S
H321 C309 0.930 . S
H322 C310 0.956 . S
H323 C310 0.961 1_556 S
H324 C310 0.961 . S
H325 C311 0.958 . S
H326 C311 0.961 1_556 S
H327 C311 0.960 1_556 S
C328 C329 1.391 . S
C328 C330 1.394 1_655 S
C328 H344 0.931 . S
C329 C328 1.391 . S
C329 C333 1.376 . S
C330 C328 1.394 1_455 S
C330 C331 1.369 1_455 S
C330 C334 1.531 . S
C331 C330 1.369 1_655 S
C331 C332 1.410 . S
C331 C339 1.503 1_666 S
C332 C331 1.410 . S
C332 C333 1.392 . S
C332 C335 1.511 1_566 S
C333 C329 1.376 . S
C333 C332 1.392 . S
C333 H345 0.929 . S
C334 C330 1.531 . S
C334 H346 0.960 . S
C334 H347 0.962 . S
C334 H348 0.960 . S
C335 C332 1.511 1_544 S
C335 H349 0.961 . S
C335 H350 0.961 . S
C335 H351 0.961 1_554 S
C336 C337 1.370 . S
C336 C338 1.363 . S
C336 H352 0.931 . S
C337 C336 1.370 . S
C337 C341 1.408 . S
C338 C336 1.363 . S
C338 C339 1.370 . S
C338 C342 1.524 1_545 S
C339 C331 1.503 1_444 S
C339 C338 1.370 . S
C339 C340 1.403 1_554 S
C340 C339 1.403 1_556 S
C340 C341 1.404 1_556 S
C340 C343 1.539 . S
C341 C337 1.408 . S
C341 C340 1.404 1_554 S
C341 H353 0.930 1_554 S
C342 C338 1.524 1_565 S
C342 H354 0.956 . S
C342 H355 0.961 1_455 S
C342 H356 0.961 . S
C343 C340 1.539 . S
C343 H357 0.958 . S
C343 H358 0.961 . S
C343 H359 0.960 1_455 S
H344 C328 0.931 . S
H345 C333 0.929 . S
H346 C334 0.960 . S
H347 C334 0.962 . S
H348 C334 0.960 . S
H349 C335 0.961 . S
H350 C335 0.961 . S
H351 C335 0.961 1_556 S
H352 C336 0.931 . S
H353 C341 0.930 1_556 S
H354 C342 0.956 . S
H355 C342 0.961 1_655 S
H356 C342 0.961 . S
H357 C343 0.958 . S
H358 C343 0.961 . S
H359 C343 0.960 1_655 S
C360 C361 1.391 . S
C360 C362 1.394 1_455 S
C360 H376 0.931 . S
C361 C360 1.391 . S
C361 C365 1.376 . S
C362 C360 1.394 1_655 S
C362 C363 1.369 1_655 S
C362 C366 1.531 . S
C363 C362 1.369 1_455 S
C363 C364 1.410 . S
C363 C371 1.503 1_455 S
C364 C363 1.410 . S
C364 C365 1.392 . S
C364 C367 1.511 . S
C365 C361 1.376 . S
C365 C364 1.392 . S
C365 H377 0.929 . S
C366 C362 1.531 . S
C366 H378 0.960 . S
C366 H379 0.962 . S
C366 H380 0.960 . S
C367 C364 1.511 . S
C367 H381 0.961 . S
C367 H382 0.961 . S
C367 H383 0.961 . S
C368 C369 1.370 . S
C368 C370 1.363 . S
C368 H384 0.931 . S
C369 C368 1.370 . S
C369 C373 1.408 . S
C370 C368 1.363 . S
C370 C371 1.370 . S
C370 C374 1.524 1_655 S
C371 C363 1.503 1_655 S
C371 C370 1.370 . S
C371 C372 1.403 . S
C372 C371 1.403 . S
C372 C373 1.404 . S
C372 C375 1.539 . S
C373 C369 1.408 . S
C373 C372 1.404 . S
C373 H385 0.930 . S
C374 C370 1.524 1_455 S
C374 H386 0.956 . S
C374 H387 0.961 . S
C374 H388 0.961 . S
C375 C372 1.539 . S
C375 H389 0.958 . S
C375 H390 0.961 . S
C375 H391 0.960 . S
H376 C360 0.931 . S
H377 C365 0.929 . S
H378 C366 0.960 . S
H379 C366 0.962 . S
H380 C366 0.960 . S
H381 C367 0.961 . S
H382 C367 0.961 . S
H383 C367 0.961 . S
H384 C368 0.931 . S
H385 C373 0.930 . S
H386 C374 0.956 . S
H387 C374 0.961 . S
H388 C374 0.961 . S
H389 C375 0.958 . S
H390 C375 0.961 . S
H391 C375 0.960 . S
C392 C393 1.391 . S
C392 C394 1.394 . S
C392 H408 0.931 . S
C393 C392 1.391 . S
C393 C397 1.376 . S
C394 C392 1.394 . S
C394 C395 1.369 . S
C394 C398 1.531 . S
C395 C394 1.369 . S
C395 C396 1.410 . S
C395 C403 1.503 . S
C396 C395 1.410 . S
C396 C397 1.392 . S
C396 C399 1.511 . S
C397 C393 1.376 . S
C397 C396 1.392 . S
C397 H409 0.929 . S
C398 C394 1.531 . S
C398 H410 0.960 . S
C398 H411 0.962 . S
C398 H412 0.960 . S
C399 C396 1.511 . S
C399 H413 0.961 1_455 S
C399 H414 0.961 . S
C399 H415 0.961 . S
C400 C401 1.370 . S
C400 C402 1.363 . S
C400 H416 0.931 . S
C401 C400 1.370 . S
C401 C405 1.408 . S
C402 C400 1.363 . S
C402 C403 1.370 . S
C402 C406 1.524 . S
C403 C395 1.503 . S
C403 C402 1.370 . S
C403 C404 1.403 . S
C404 C403 1.403 . S
C404 C405 1.404 . S
C404 C407 1.539 . S
C405 C401 1.408 . S
C405 C404 1.404 . S
C405 H417 0.930 . S
C406 C402 1.524 . S
C406 H418 0.956 . S
C406 H419 0.961 . S
C406 H420 0.961 . S
C407 C404 1.539 . S
C407 H421 0.958 . S
C407 H422 0.961 . S
C407 H423 0.960 . S
H408 C392 0.931 . S
H409 C397 0.929 . S
H410 C398 0.960 . S
H411 C398 0.962 . S
H412 C398 0.960 . S
H413 C399 0.961 1_655 S
H414 C399 0.961 . S
H415 C399 0.961 . S
H416 C400 0.931 . S
H417 C405 0.930 . S
H418 C406 0.956 . S
H419 C406 0.961 . S
H420 C406 0.961 . S
H421 C407 0.958 . S
H422 C407 0.961 . S
H423 C407 0.960 . S
C424 C425 1.391 . S
C424 C426 1.394 . S
C424 H440 0.931 . S
C425 C424 1.391 . S
C425 C429 1.376 . S
C426 C424 1.394 . S
C426 C427 1.369 . S
C426 C430 1.531 . S
C427 C426 1.369 . S
C427 C428 1.410 . S
C427 C435 1.503 . S
C428 C427 1.410 . S
C428 C429 1.392 . S
C428 C431 1.511 . S
C429 C425 1.376 . S
C429 C428 1.392 . S
C429 H441 0.929 . S
C430 C426 1.531 . S
C430 H442 0.960 . S
C430 H443 0.962 . S
C430 H444 0.960 . S
C431 C428 1.511 . S
C431 H445 0.961 . S
C431 H446 0.961 . S
C431 H447 0.961 . S
C432 C433 1.370 . S
C432 C434 1.363 . S
C432 H448 0.931 . S
C433 C432 1.370 . S
C433 C437 1.408 . S
C434 C432 1.363 . S
C434 C435 1.370 . S
C434 C438 1.524 . S
C435 C427 1.503 . S
C435 C434 1.370 . S
C435 C436 1.403 . S
C436 C435 1.403 . S
C436 C437 1.404 . S
C436 C439 1.539 . S
C437 C433 1.408 . S
C437 C436 1.404 . S
C437 H449 0.930 . S
C438 C434 1.524 . S
C438 H450 0.956 . S
C438 H451 0.961 . S
C438 H452 0.961 . S
C439 C436 1.539 . S
C439 H453 0.958 . S
C439 H454 0.961 . S
C439 H455 0.960 . S
H440 C424 0.931 . S
H441 C429 0.929 . S
H442 C430 0.960 . S
H443 C430 0.962 . S
H444 C430 0.960 . S
H445 C431 0.961 . S
H446 C431 0.961 . S
H447 C431 0.961 . S
H448 C432 0.931 . S
H449 C437 0.930 . S
H450 C438 0.956 . S
H451 C438 0.961 . S
H452 C438 0.961 . S
H453 C439 0.958 . S
H454 C439 0.961 . S
H455 C439 0.960 . S
C456 C457 1.391 . S
C456 C458 1.394 . S
C456 H472 0.931 . S
C457 C456 1.391 . S
C457 C461 1.376 . S
C458 C456 1.394 . S
C458 C459 1.369 . S
C458 C462 1.531 . S
C459 C458 1.369 . S
C459 C460 1.410 . S
C459 C467 1.503 . S
C460 C459 1.410 . S
C460 C461 1.392 . S
C460 C463 1.511 . S
C461 C457 1.376 . S
C461 C460 1.392 . S
C461 H473 0.929 1_554 S
C462 C458 1.531 . S
C462 H474 0.960 . S
C462 H475 0.962 . S
C462 H476 0.960 . S
C463 C460 1.511 . S
C463 H477 0.961 . S
C463 H478 0.961 . S
C463 H479 0.961 . S
C464 C465 1.370 . S
C464 C466 1.363 . S
C464 H480 0.931 . S
C465 C464 1.370 . S
C465 C469 1.408 . S
C466 C464 1.363 . S
C466 C467 1.370 . S
C466 C470 1.524 . S
C467 C459 1.503 . S
C467 C466 1.370 . S
C467 C468 1.403 . S
C468 C467 1.403 . S
C468 C469 1.404 . S
C468 C471 1.539 . S
C469 C465 1.408 . S
C469 C468 1.404 . S
C469 H481 0.930 . S
C470 C466 1.524 . S
C470 H482 0.956 . S
C470 H483 0.961 . S
C470 H484 0.961 . S
C471 C468 1.539 . S
C471 H485 0.958 . S
C471 H486 0.961 . S
C471 H487 0.960 . S
H472 C456 0.931 . S
H473 C461 0.929 1_556 S
H474 C462 0.960 . S
H475 C462 0.962 . S
H476 C462 0.960 . S
H477 C463 0.961 . S
H478 C463 0.961 . S
H479 C463 0.961 . S
H480 C464 0.931 . S
H481 C469 0.930 . S
H482 C470 0.956 . S
H483 C470 0.961 . S
H484 C470 0.961 . S
H485 C471 0.958 . S
H486 C471 0.961 . S
H487 C471 0.960 . S
C488 C489 1.391 . S
C488 C490 1.394 . S
C488 H504 0.931 . S
C489 C488 1.391 . S
C489 C493 1.376 . S
C490 C488 1.394 . S
C490 C491 1.369 . S
C490 C494 1.531 . S
C491 C490 1.369 . S
C491 C492 1.410 . S
C491 C499 1.503 . S
C492 C491 1.410 . S
C492 C493 1.392 . S
C492 C495 1.511 . S
C493 C489 1.376 . S
C493 C492 1.392 . S
C493 H505 0.929 . S
C494 C490 1.531 . S
C494 H506 0.960 . S
C494 H507 0.962 . S
C494 H508 0.960 1_455 S
C495 C492 1.511 . S
C495 H509 0.961 . S
C495 H510 0.961 . S
C495 H511 0.961 . S
C496 C497 1.370 . S
C496 C498 1.363 . S
C496 H512 0.931 . S
C497 C496 1.370 . S
C497 C501 1.408 . S
C498 C496 1.363 . S
C498 C499 1.370 . S
C498 C502 1.524 . S
C499 C491 1.503 . S
C499 C498 1.370 . S
C499 C500 1.403 . S
C500 C499 1.403 . S
C500 C501 1.404 . S
C500 C503 1.539 . S
C501 C497 1.408 . S
C501 C500 1.404 . S
C501 H513 0.930 . S
C502 C498 1.524 . S
C502 H514 0.956 . S
C502 H515 0.961 . S
C502 H516 0.961 . S
C503 C500 1.539 . S
C503 H517 0.958 . S
C503 H518 0.961 . S
C503 H519 0.960 . S
H504 C488 0.931 . S
H505 C493 0.929 . S
H506 C494 0.960 . S
H507 C494 0.962 . S
H508 C494 0.960 1_655 S
H509 C495 0.961 . S
H510 C495 0.961 . S
H511 C495 0.961 . S
H512 C496 0.931 . S
H513 C501 0.930 . S
H514 C502 0.956 . S
H515 C502 0.961 . S
H516 C502 0.961 . S
H517 C503 0.958 . S
H518 C503 0.961 . S
H519 C503 0.960 . S
C520 C521 1.391 . S
C520 C522 1.394 . S
C520 H536 0.931 . S
C521 C520 1.391 . S
C521 C525 1.376 . S
C522 C520 1.394 . S
C522 C523 1.369 . S
C522 C526 1.533 . S
C523 C522 1.369 . S
C523 C524 1.410 . S
C523 C531 1.503 1_544 S
C524 C523 1.410 . S
C524 C525 1.392 . S
C524 C527 1.511 1_554 S
C525 C521 1.376 . S
C525 C524 1.392 . S
C525 H537 0.929 . S
C526 C522 1.533 . S
C526 H538 0.952 1_545 S
C526 H539 0.968 . S
C526 H540 0.960 1_545 S
C527 C524 1.511 1_556 S
C527 H541 0.961 . S
C527 H542 0.964 . S
C527 H543 0.961 1_545 S
C528 C529 1.370 . S
C528 C530 1.363 1_565 S
C528 H544 0.935 . S
C529 C528 1.370 . S
C529 C533 1.408 . S
C530 C528 1.363 1_545 S
C530 C531 1.370 1_545 S
C530 C534 1.524 . S
C531 C523 1.503 1_566 S
C531 C530 1.370 1_565 S
C531 C532 1.403 . S
C532 C531 1.403 . S
C532 C533 1.404 . S
C532 C535 1.539 1_556 S
C533 C529 1.408 . S
C533 C532 1.404 . S
C533 H545 0.930 . S
C534 C530 1.524 . S
C534 H546 0.956 . S
C534 H547 0.961 . S
C534 H548 0.961 . S
C535 C532 1.539 1_554 S
C535 H549 0.958 . S
C535 H550 0.961 1_554 S
C535 H551 0.960 . S
H536 C520 0.931 . S
H537 C525 0.929 . S
H538 C526 0.952 1_565 S
H539 C526 0.968 . S
H540 C526 0.960 1_565 S
H541 C527 0.961 . S
H542 C527 0.964 . S
H543 C527 0.961 1_565 S
H544 C528 0.935 . S
H545 C533 0.930 . S
H546 C534 0.956 . S
H547 C534 0.961 . S
H548 C534 0.961 . S
H549 C535 0.958 . S
H550 C535 0.961 1_556 S
H551 C535 0.960 . S
C552 C553 1.391 . S
C552 C554 1.394 . S
C552 H568 0.931 . S
C553 C552 1.391 . S
C553 C557 1.376 . S
C554 C552 1.394 . S
C554 C555 1.369 . S
C554 C558 1.531 . S
C555 C554 1.369 . S
C555 C556 1.410 . S
C555 C563 1.503 . S
C556 C555 1.410 . S
C556 C557 1.392 . S
C556 C559 1.511 . S
C557 C553 1.376 . S
C557 C556 1.392 . S
C557 H569 0.929 . S
C558 C554 1.531 . S
C558 H570 0.960 . S
C558 H571 0.962 . S
C558 H572 0.960 . S
C559 C556 1.511 . S
C559 H573 0.961 . S
C559 H574 0.961 . S
C559 H575 0.961 . S
C560 C561 1.370 . S
C560 C562 1.363 . S
C560 H576 0.931 . S
C561 C560 1.370 . S
C561 C565 1.408 . S
C562 C560 1.363 . S
C562 C563 1.370 . S
C562 C566 1.524 . S
C563 C555 1.503 . S
C563 C562 1.370 . S
C563 C564 1.403 . S
C564 C563 1.403 . S
C564 C565 1.404 . S
C564 C567 1.539 . S
C565 C561 1.408 . S
C565 C564 1.404 . S
C565 H577 0.930 . S
C566 C562 1.524 . S
C566 H578 0.956 . S
C566 H579 0.961 . S
C566 H580 0.961 . S
C567 C564 1.539 . S
C567 H581 0.958 . S
C567 H582 0.961 . S
C567 H583 0.960 . S
H568 C552 0.931 . S
H569 C557 0.929 . S
H570 C558 0.960 . S
H571 C558 0.962 . S
H572 C558 0.960 . S
H573 C559 0.961 . S
H574 C559 0.961 . S
H575 C559 0.961 . S
H576 C560 0.931 . S
H577 C565 0.930 . S
H578 C566 0.956 . S
H579 C566 0.961 . S
H580 C566 0.961 . S
H581 C567 0.958 . S
H582 C567 0.961 . S
H583 C567 0.960 . S
C137 C28 1.059 . S
C145 C6 1.062 . S
C169 C40 1.055 . S
C177 C62 1.071 . S
C201 C74 1.064 . S
C209 C96 1.073 . S
C233 C108 1.079 . S
C241 C130 1.070 . S
C265 C15 1.811 . S
C273 C83 1.821 . S
C297 C117 1.816 . S
C305 C56 1.819 . S
C329 C69 1.936 . S
C337 C1 1.971 . S
C361 C103 1.957 . S
C369 C37 1.963 . S
C393 C22 1.582 1_556 S
C401 C119 1.774 . S
C425 C49 1.618 . S
C433 C85 1.771 . S
C457 C90 1.565 1_554 S
C465 C51 1.776 . S
C489 C124 1.617 . S
C497 C17 1.772 . S
C521 C3 1.487 . S
C529 C71 1.484 . S
C553 C105 1.449 . S
C561 C35 1.494 . S
