# Generated by pormake.
# Topology sxa, (6)-cn, num edge types: 1
# Building blocks:
#     Node 0, Type 0, BuildingBlock: UKALOJ_clean_sbu_0, # of connection points: 6
#     Node 1, Type 0, BuildingBlock: UKALOJ_clean_sbu_0, # of connection points: 6
#     Node 2, Type 0, BuildingBlock: UKALOJ_clean_sbu_0, # of connection points: 6
#     Node 3, Type 0, BuildingBlock: UKALOJ_clean_sbu_0, # of connection points: 6
#     Edge 4, Type (0, 0), BuildingBlock: CIFDUS_clean_linker_0, # of connection points: 2
#     Edge 5, Type (0, 0), BuildingBlock: CIFDUS_clean_linker_0, # of connection points: 2
#     Edge 6, Type (0, 0), BuildingBlock: CIFDUS_clean_linker_0, # of connection points: 2
#     Edge 7, Type (0, 0), BuildingBlock: CIFDUS_clean_linker_0, # of connection points: 2
#     Edge 8, Type (0, 0), BuildingBlock: CIFDUS_clean_linker_0, # of connection points: 2
#     Edge 9, Type (0, 0), BuildingBlock: CIFDUS_clean_linker_0, # of connection points: 2
#     Edge 10, Type (0, 0), BuildingBlock: CIFDUS_clean_linker_0, # of connection points: 2
#     Edge 11, Type (0, 0), BuildingBlock: CIFDUS_clean_linker_0, # of connection points: 2
#     Edge 12, Type (0, 0), BuildingBlock: CIFDUS_clean_linker_0, # of connection points: 2
#     Edge 13, Type (0, 0), BuildingBlock: CIFDUS_clean_linker_0, # of connection points: 2
#     Edge 14, Type (0, 0), BuildingBlock: CIFDUS_clean_linker_0, # of connection points: 2
#     Edge 15, Type (0, 0), BuildingBlock: CIFDUS_clean_linker_0, # of connection points: 2
# Relax obj value: 0.127
# Max RMSD: 0.190
# Mean RMSD: 0.190
data_MOF--net-sxa--node1-UKALOJ_clean_sbu_0--edge1-CIFDUS_clean_linker_0
_symmetry_space_group_name_H-M    P1
_symmetry_Int_Tables_number       1
_symmetry_cell_setting            triclinic
loop_
_symmetry_equiv_pos_as_xyz
'x, y, z'
_cell_length_a     20.990245
_cell_length_b     34.373021
_cell_length_c     13.218782
_cell_angle_alpha  89.786419
_cell_angle_beta   89.961723
_cell_angle_gamma 90.145251
loop_
_atom_site_label
_atom_site_type_symbol
_atom_site_fract_x
_atom_site_fract_y
_atom_site_fract_z
_atom_type_partial_charge
Zn0 Zn -0.00243 0.85533 0.24921 0.0
O1 O 0.03352 0.85235 0.39933 0.0
C2 C 0.12092 0.8245 0.18662 0.0
Zn3 Zn -0.00396 0.78972 0.24305 0.0
C4 C 0.04707 0.81934 0.43829 0.0
O5 O 0.03225 0.78829 0.39133 0.0
C6 C 0.95114 0.82525 0.05249 0.0
O7 O 0.90149 0.78822 0.29706 0.0
O8 O 0.90159 0.85225 0.30138 0.0
N9 N 0.00164 0.72949 0.22972 0.0
C10 C 0.96643 0.7036 0.1766 0.0
C11 C 0.05205 0.67491 0.21923 0.0
N12 N 0.05453 0.7113 0.25675 0.0
N13 N -0.00242 0.66928 0.16723 0.0
C14 C 0.00626 0.94161 0.17263 0.0
C15 C 0.97345 0.97422 0.29871 0.0
N16 N -0.00532 0.91594 0.24859 0.0
N17 N 0.9744 0.93642 0.32682 0.0
N18 N -0.00735 0.97843 0.20179 0.0
H19 H 0.06161 0.90374 0.07589 0.0
H20 H 0.06463 0.95446 0.04218 0.0
H21 H -0.00577 0.92604 1.01713 0.0
C22 C 0.03359 0.93081 0.07161 0.0
C23 C 0.90004 0.71106 0.1399 0.0
H24 H 0.87588 0.73302 0.18707 0.0
H25 H 0.87181 0.68372 0.1406 0.0
H26 H 0.90165 0.72205 0.0615 0.0
O27 O 0.96219 0.79276 0.09477 0.0
O28 O 0.9631 0.85633 0.10021 0.0
C29 C 0.87239 0.82 0.31384 0.0
O30 O 0.09272 0.85654 0.20167 0.0
O31 O 0.08996 0.79283 0.19278 0.0
Zn32 Zn 0.47437 0.24615 0.25579 0.0
O33 O 0.43897 0.24596 0.40616 0.0
C34 C 0.35016 0.27736 0.19701 0.0
Zn35 Zn 0.4747 0.31175 0.25376 0.0
C36 C 0.42519 0.27836 0.44774 0.0
O37 O 0.43958 0.31016 0.40307 0.0
C38 C 0.51896 0.28001 0.06027 0.0
O39 O 0.56989 0.31251 0.30555 0.0
O40 O 0.57044 0.24845 0.30701 0.0
N41 N 0.46874 0.37207 0.24563 0.0
C42 C 0.50563 0.39845 0.19667 0.0
C43 C 0.417 0.42589 0.2274 0.0
N44 N 0.41397 0.38948 0.26544 0.0
N45 N 0.47375 0.43227 0.18236 0.0
C46 C 0.46653 0.16301 0.1639 0.0
C47 C 0.50354 0.12614 0.27924 0.0
N48 N 0.4775 0.18569 0.24567 0.0
N49 N 0.50016 0.16255 0.31747 0.0
N50 N 0.48303 0.12575 0.18262 0.0
H51 H 0.40879 0.20297 0.07527 0.0
H52 H 0.40825 0.15335 0.03222 0.0
H53 H 0.47666 0.18349 1.01125 0.0
C54 C 0.4381 0.17667 0.06572 0.0
C55 C 0.57435 0.39215 0.17066 0.0
H56 H 0.59863 0.37663 0.23298 0.0
H57 H 0.59929 0.42022 0.15766 0.0
H58 H 0.57826 0.37427 0.10185 0.0
O59 O 0.50722 0.31183 0.10459 0.0
O60 O 0.50838 0.24834 0.10659 0.0
C61 C 0.59941 0.28068 0.32045 0.0
O62 O 0.37935 0.2455 0.20962 0.0
O63 O 0.38019 0.30926 0.20512 0.0
Zn64 Zn 0.97401 0.35024 0.78881 0.0
O65 O 0.93876 0.35157 0.63859 0.0
C66 C 0.84956 0.31916 0.8466 0.0
Zn67 Zn 0.97401 0.28456 0.78964 0.0
C68 C 0.92516 0.3193 0.59615 0.0
O69 O 0.93952 0.28745 0.64016 0.0
C70 C 0.01855 0.31525 0.98357 0.0
O71 O 0.06948 0.28335 0.73839 0.0
O72 O 0.07001 0.34747 0.73743 0.0
N73 N 0.96568 0.22423 0.79096 0.0
C74 C -0.00357 0.19586 0.84263 0.0
C75 C 0.9153 0.16976 0.77407 0.0
N76 N 0.91553 0.20771 0.74804 0.0
N77 N 0.96517 0.16143 0.83456 0.0
C78 C 0.96824 0.4336 0.88167 0.0
C79 C 0.00424 0.47028 0.76478 0.0
N80 N 0.97874 0.41073 0.80013 0.0
N81 N 0.00083 0.43375 0.72745 0.0
N82 N 0.9845 0.47094 0.86186 0.0
H83 H 0.90959 0.39391 0.96979 0.0
H84 H 0.91028 0.44342 1.0138 0.0
H85 H 0.978 0.41269 0.03384 0.0
C86 C 0.93955 0.42001 0.97981 0.0
C87 C 0.05888 0.20137 0.89522 0.0
H88 H 0.08386 0.22771 0.86715 0.0
H89 H 0.08946 0.17544 0.88412 0.0
H90 H 0.05037 0.20455 0.97716 0.0
O91 O 0.00628 0.28343 0.93919 0.0
O92 O 0.00792 0.34703 0.9378 0.0
C93 C 0.09899 0.31533 0.72379 0.0
O94 O 0.87897 0.35113 0.83521 0.0
O95 O 0.87944 0.28731 0.83774 0.0
Zn96 Zn 0.49569 0.81349 0.78324 0.0
O97 O 0.40087 0.81308 0.73101 0.0
C98 C 0.45151 0.7821 0.97783 0.0
Zn99 Zn 0.4982 0.74795 0.78472 0.0
C100 C 0.37237 0.78084 0.71652 0.0
O101 O 0.40215 0.74902 0.73139 0.0
C102 C 0.62123 0.78129 0.84307 0.0
O103 O 0.53454 0.74775 0.63482 0.0
O104 O 0.53114 0.81191 0.63441 0.0
N105 N 0.49612 0.68742 0.79657 0.0
C106 C 0.50618 0.66485 0.87921 0.0
C107 C 0.47212 0.62758 0.76291 0.0
N108 N 0.47529 0.66404 0.72422 0.0
N109 N 0.49085 0.62736 0.86047 0.0
C110 C 0.46384 0.89975 0.83844 0.0
C111 C 0.55233 0.92765 0.80741 0.0
N112 N 0.50064 0.87375 0.78895 0.0
N113 N 0.55531 0.89146 0.76888 0.0
N114 N 0.49573 0.9336 0.85303 0.0
H115 H 0.37107 0.87757 0.80162 0.0
H116 H 0.37005 0.92114 0.87636 0.0
H117 H 0.39087 0.87521 0.93298 0.0
C118 C 0.39504 0.89316 0.86396 0.0
C119 C 0.53307 0.67891 0.97784 0.0
H120 H 0.56276 0.70518 0.96774 0.0
H121 H 0.56221 0.65578 1.01377 0.0
H122 H 0.49367 0.68607 0.03025 0.0
O123 O 0.59357 0.74869 0.83273 0.0
O124 O 0.58967 0.81241 0.83247 0.0
C125 C 0.54703 0.78018 0.59158 0.0
O126 O 0.46293 0.81376 0.93185 0.0
O127 O 0.46296 0.75026 0.9335 0.0
H128 H 0.94627 0.54461 0.82721 0.0
H129 H 0.03546 0.47092 0.04958 0.0
H130 H 0.04231 0.52524 0.16737 0.0
H131 H 0.02614 0.5946 0.20593 0.0
H132 H 0.94499 0.66966 0.97862 0.0
H133 H 0.93094 0.61453 0.86566 0.0
C134 C 0.96685 0.54058 0.90171 0.0
C135 C -0.01157 0.50345 0.93071 0.0
C136 C 0.97162 0.57232 0.9688 0.0
C137 C 0.01603 0.49871 0.02688 0.0
C138 C 0.02064 0.52994 0.09395 0.0
C139 C 0.00464 0.59872 0.13213 0.0
C140 C 0.98442 0.63615 0.10301 0.0
C141 C -0.00137 0.56691 0.06582 0.0
C142 C 0.95797 0.64112 1.00593 0.0
C143 C 0.95102 0.60956 0.94009 0.0
H144 H 0.44066 0.50677 0.21107 0.0
H145 H 0.5341 0.43057 1.00012 0.0
H146 H 0.54974 0.48467 0.88256 0.0
H147 H 0.53282 0.55391 0.83573 0.0
H148 H 0.43286 0.62855 0.04258 0.0
H149 H 0.42337 0.57536 0.16451 0.0
C150 C 0.46517 0.50221 0.13989 0.0
C151 C 0.48812 0.46488 0.11649 0.0
C152 C 0.47239 0.53333 0.07115 0.0
C153 C 0.51852 0.45922 0.02268 0.0
C154 C 0.52655 0.49012 0.95438 0.0
C155 C 0.50929 0.55836 0.90777 0.0
C156 C 0.48527 0.59542 0.93133 0.0
C157 C 0.50326 0.52729 0.97735 0.0
C158 C 0.45394 0.60078 0.02428 0.0
C159 C 0.44791 0.57021 0.09366 0.0
H160 H 0.53092 1.00805 0.82788 0.0
H161 H 0.43456 0.93064 0.03475 0.0
H162 H 0.42037 0.98368 0.15468 0.0
H163 H 0.43938 0.05234 0.20479 0.0
H164 H 0.54241 0.12799 1.0021 0.0
H165 H 0.55066 0.07587 0.87786 0.0
C166 C 0.50609 1.003 0.89869 0.0
C167 C 0.48187 0.96566 0.92015 0.0
C168 C 0.49989 1.03344 0.96893 0.0
C169 C 0.45107 0.95935 1.01353 0.0
C170 C 0.44392 0.98962 0.08326 0.0
C171 C 0.46341 0.0572 0.13322 0.0
C172 C 0.48873 0.09421 0.11139 0.0
C173 C 0.46858 1.02677 0.06225 0.0
C174 C 0.52058 0.10018 0.01903 0.0
C175 C 0.52579 0.07026 0.94832 0.0
H176 H 0.96163 0.99063 1.00413 0.0
H177 H 0.02492 1.04897 0.27407 0.0
H178 H 0.02459 0.11128 0.18374 0.0
H179 H 0.00179 0.14931 0.02974 0.0
H180 H 0.94512 0.09024 0.75725 0.0
H181 H 0.94847 1.02777 0.84639 0.0
C182 C 0.97776 1.01656 0.0425 0.0
C183 C -0.00483 1.0147 0.14546 0.0
C184 C 0.97848 0.05222 0.98947 0.0
C185 C 0.01189 1.04943 0.19484 0.0
C186 C 0.01184 0.08507 0.14307 0.0
C187 C -0.00722 0.12279 0.98846 0.0
C188 C 0.97497 0.12456 0.88564 0.0
C189 C -0.00493 0.08687 0.04033 0.0
C190 C 0.95962 0.0897 0.83584 0.0
C191 C 0.96137 0.05398 0.88693 0.0
H192 H 0.2912 0.84231 0.70024 0.0
H193 H 0.30259 0.71828 0.65327 0.0
H194 H 0.1959 0.71837 0.58004 0.0
H195 H 0.10576 0.75466 0.51086 0.0
H196 H 0.09618 0.87914 0.55085 0.0
H197 H 0.19473 0.87754 0.64884 0.0
C198 C 0.27023 0.81521 0.67485 0.0
C199 C 0.30548 0.78045 0.68059 0.0
C200 C 0.20893 0.81549 0.63221 0.0
C201 C 0.27695 0.74554 0.64875 0.0
C202 C 0.21583 0.74554 0.60698 0.0
C203 C 0.12414 0.78139 0.54315 0.0
C204 C 0.09388 0.81706 0.52211 0.0
C205 C 0.18213 0.78049 0.59591 0.0
C206 C 0.11851 0.85128 0.56524 0.0
C207 C 0.17531 0.85046 0.62042 0.0
H208 H 0.17796 0.25289 0.70218 0.0
H209 H 0.17181 0.37792 0.66984 0.0
H210 H 0.27922 0.37789 0.59983 0.0
H211 H 0.36869 0.34202 0.52864 0.0
H212 H 0.3734 0.21673 0.55201 0.0
H213 H 0.27401 0.21747 0.64822 0.0
C214 C 0.20028 0.28017 0.68052 0.0
C215 C 0.16624 0.31527 0.68943 0.0
C216 C 0.26209 0.27997 0.63938 0.0
C217 C 0.19642 0.3504 0.66263 0.0
C218 C 0.25801 0.35045 0.62277 0.0
C219 C 0.34905 0.31485 0.5569 0.0
C220 C 0.37819 0.27932 0.53159 0.0
C221 C 0.29055 0.31534 0.60828 0.0
C222 C 0.35198 0.24452 0.56974 0.0
C223 C 0.29465 0.24488 0.62383 0.0
H224 H 0.86995 0.25551 0.51298 0.0
H225 H 0.87224 0.38096 0.49428 0.0
H226 H 0.77273 0.37972 0.39866 0.0
H227 H 0.67734 0.34365 0.3445 0.0
H228 H 0.67333 0.21843 0.3719 0.0
H229 H 0.78092 0.21912 0.44123 0.0
C230 C 0.84974 0.28263 0.48586 0.0
C231 C 0.87824 0.31833 0.51233 0.0
C232 C 0.79115 0.28181 0.43491 0.0
C233 C 0.85134 0.35305 0.47561 0.0
C234 C 0.79394 0.35239 0.4219 0.0
C235 C 0.70014 0.31646 0.36471 0.0
C236 C 0.66667 0.2811 0.35464 0.0
C237 C 0.762 0.31705 0.40534 0.0
C238 C 0.69749 0.24613 0.37999 0.0
C239 C 0.75917 0.24646 0.41943 0.0
H240 H 0.7941 0.75706 0.33626 0.0
H241 H 0.79931 0.88202 0.36876 0.0
H242 H 0.69202 0.88108 0.4394 0.0
H243 H 0.60293 0.8444 0.51067 0.0
H244 H 0.59951 0.71914 0.48775 0.0
H245 H 0.6987 0.72082 0.39101 0.0
C246 C 0.77161 0.78414 0.35807 0.0
C247 C 0.80532 0.81948 0.34897 0.0
C248 C 0.70996 0.78339 0.39964 0.0
C249 C 0.77495 0.85433 0.37611 0.0
C250 C 0.71343 0.85385 0.41631 0.0
C251 C 0.62281 0.81744 0.48242 0.0
C252 C 0.59407 0.78164 0.50787 0.0
C253 C 0.68123 0.81848 0.43087 0.0
C254 C 0.62062 0.74712 0.46984 0.0
C255 C 0.67782 0.74802 0.41545 0.0
H256 H 0.41002 0.84493 0.08228 0.0
H257 H 0.39582 0.71979 0.07311 0.0
H258 H 0.29132 0.72263 0.15222 0.0
H259 H 0.19508 0.7606 0.18074 0.0
H260 H 0.20251 0.88606 0.16302 0.0
H261 H 0.3171 0.88333 0.13088 0.0
C262 C 0.38419 0.8183 0.09837 0.0
C263 C 0.40864 0.78246 0.06598 0.0
C264 C 0.3216 0.82034 0.13388 0.0
C265 C 0.37726 0.74794 0.09451 0.0
C266 C 0.31685 0.74955 0.13794 0.0
C267 C 0.22168 0.78741 0.17012 0.0
C268 C 0.19018 0.82341 0.17082 0.0
C269 C 0.28686 0.78561 0.15005 0.0
C270 C 0.22558 0.85793 0.16014 0.0
C271 C 0.29109 0.85641 0.1428 0.0
H272 H 0.06349 0.2528 0.08633 0.0
H273 H 0.0715 0.37805 0.07966 0.0
H274 H 0.17551 0.37672 0.16031 0.0
H275 H 0.27339 0.34025 0.19073 0.0
H276 H 0.27144 0.21479 0.17175 0.0
H277 H 0.15724 0.21577 0.13708 0.0
C278 C 0.08772 0.27974 0.10342 0.0
C279 C 0.0616 0.31522 0.07152 0.0
C280 C 0.14997 0.27864 0.14044 0.0
C281 C 0.09124 0.35015 0.10085 0.0
C282 C 0.1514 0.34943 0.14527 0.0
C283 C 0.24801 0.31308 0.17938 0.0
C284 C 0.28101 0.2776 0.18048 0.0
C285 C 0.18295 0.31387 0.15776 0.0
C286 C 0.24723 0.24256 0.16868 0.0
C287 C 0.18192 0.24306 0.14983 0.0
H288 H 0.5621 0.34257 0.95462 0.0
H289 H 0.57158 0.21729 0.96428 0.0
H290 H 0.6754 0.21908 0.88288 0.0
H291 H 0.77299 0.256 0.85258 0.0
H292 H 0.77038 0.38147 0.87025 0.0
H293 H 0.65597 0.37998 0.90384 0.0
C294 C 0.58671 0.31568 0.93814 0.0
C295 C 0.56119 0.28008 0.97132 0.0
C296 C 0.64905 0.31707 0.90122 0.0
C297 C 0.591 0.24527 0.9423 0.0
C298 C 0.65105 0.24626 0.8975 0.0
C299 C 0.74744 0.28308 0.86338 0.0
C300 C 0.7803 0.3187 0.86237 0.0
C301 C 0.68232 0.28198 0.88454 0.0
C302 C 0.74628 0.35359 0.87341 0.0
C303 C 0.68085 0.35279 0.89159 0.0
H304 H 0.91252 0.76481 0.93632 0.0
H305 H 0.89224 0.88882 0.9693 0.0
H306 H 0.78695 0.88581 0.89247 0.0
H307 H 0.69223 0.84655 0.85948 0.0
H308 H 0.70597 0.72116 0.85564 0.0
H309 H 0.82066 0.7256 0.88517 0.0
C310 C 0.88499 0.7911 0.92637 0.0
C311 C 0.90797 0.82644 0.96481 0.0
C312 C 0.82207 0.78858 0.89266 0.0
C313 C 0.87471 0.86093 0.94333 0.0
C314 C 0.8139 0.85915 0.90129 0.0
C315 C 0.72022 0.82013 0.86474 0.0
C316 C 0.69047 0.78354 0.85853 0.0
C317 C 0.78549 0.82286 0.88361 0.0
C318 C 0.72764 0.74964 0.86288 0.0
C319 C 0.79322 0.75217 0.8786 0.0
loop_
_geom_bond_atom_site_label_1
_geom_bond_atom_site_label_2
_geom_bond_distance
_geom_bond_site_symmetry_2
_ccdc_geom_bond_type
Zn0 O1 2.055 1_655 S
Zn0 O8 2.046 . S
Zn0 N16 2.036 . S
Zn0 O28 2.053 . S
Zn0 O30 2.066 1_655 S
O1 Zn0 2.055 1_455 S
O1 C4 1.259 . S
C2 O30 1.256 . S
C2 O31 1.244 . S
Zn3 O5 2.046 . S
Zn3 O7 2.055 1_455 S
Zn3 N9 2.036 . S
Zn3 O27 2.066 1_455 S
Zn3 O31 2.053 . S
C4 O1 1.259 . S
C4 O5 1.254 . S
O5 Zn3 2.046 . S
O5 C4 1.254 . S
C6 O27 1.256 . S
C6 O28 1.244 . S
O7 Zn3 2.055 1_655 S
O7 C29 1.259 . S
O8 Zn0 2.046 . S
O8 C29 1.254 . S
N9 Zn3 2.036 . S
N9 C10 1.298 1_455 S
N9 N12 1.398 . S
C10 N9 1.298 1_655 S
C10 N13 1.367 . S
C10 C23 1.481 . S
C11 N12 1.299 . S
C11 N13 1.379 1_455 S
N12 N9 1.398 . S
N12 C11 1.299 . S
N13 C10 1.367 . S
N13 C11 1.379 1_655 S
C14 N16 1.298 1_455 S
C14 N18 1.367 . S
C14 C22 1.481 . S
C15 N17 1.299 . S
C15 N18 1.379 1_655 S
N16 Zn0 2.036 . S
N16 C14 1.298 1_655 S
N16 N17 1.398 . S
N17 C15 1.299 . S
N17 N16 1.398 . S
N18 C14 1.367 . S
N18 C15 1.379 1_455 S
H19 C22 0.980 . S
H20 C22 0.981 . S
H21 C22 0.981 . S
C22 C14 1.481 . S
C22 H19 0.980 . S
C22 H20 0.981 . S
C22 H21 0.981 . S
C23 C10 1.481 . S
C23 H24 0.980 . S
C23 H25 0.981 . S
C23 H26 0.981 . S
H24 C23 0.980 . S
H25 C23 0.981 . S
H26 C23 0.981 . S
O27 Zn3 2.066 1_655 S
O27 C6 1.256 . S
O28 Zn0 2.053 . S
O28 C6 1.244 . S
C29 O7 1.259 . S
C29 O8 1.254 . S
O30 Zn0 2.066 1_455 S
O30 C2 1.256 . S
O31 C2 1.244 . S
O31 Zn3 2.053 . S
Zn32 O33 2.055 . S
Zn32 O40 2.046 . S
Zn32 N48 2.036 . S
Zn32 O60 2.053 . S
Zn32 O62 2.066 . S
O33 Zn32 2.055 . S
O33 C36 1.259 . S
C34 O62 1.256 . S
C34 O63 1.244 . S
Zn35 O37 2.046 . S
Zn35 O39 2.055 . S
Zn35 N41 2.036 . S
Zn35 O59 2.066 . S
Zn35 O63 2.053 . S
C36 O33 1.259 . S
C36 O37 1.254 . S
O37 Zn35 2.046 . S
O37 C36 1.254 . S
C38 O59 1.256 . S
C38 O60 1.244 . S
O39 Zn35 2.055 . S
O39 C61 1.259 . S
O40 Zn32 2.046 . S
O40 C61 1.254 . S
N41 Zn35 2.036 . S
N41 C42 1.298 . S
N41 N44 1.398 . S
C42 N41 1.298 . S
C42 N45 1.367 . S
C42 C55 1.481 . S
C43 N44 1.299 . S
C43 N45 1.379 . S
N44 N41 1.398 . S
N44 C43 1.299 . S
N45 C42 1.367 . S
N45 C43 1.379 . S
C46 N48 1.298 . S
C46 N50 1.367 . S
C46 C54 1.481 . S
C47 N49 1.299 . S
C47 N50 1.379 . S
N48 Zn32 2.036 . S
N48 C46 1.298 . S
N48 N49 1.398 . S
N49 C47 1.299 . S
N49 N48 1.398 . S
N50 C46 1.367 . S
N50 C47 1.379 . S
H51 C54 0.980 . S
H52 C54 0.981 . S
H53 C54 0.981 . S
C54 C46 1.481 . S
C54 H51 0.980 . S
C54 H52 0.981 . S
C54 H53 0.981 . S
C55 C42 1.481 . S
C55 H56 0.980 . S
C55 H57 0.981 . S
C55 H58 0.981 . S
H56 C55 0.980 . S
H57 C55 0.981 . S
H58 C55 0.981 . S
O59 Zn35 2.066 . S
O59 C38 1.256 . S
O60 Zn32 2.053 . S
O60 C38 1.244 . S
C61 O39 1.259 . S
C61 O40 1.254 . S
O62 Zn32 2.066 . S
O62 C34 1.256 . S
O63 C34 1.244 . S
O63 Zn35 2.053 . S
Zn64 O65 2.055 1_455 S
Zn64 O72 2.046 . S
Zn64 N80 2.036 . S
Zn64 O92 2.053 . S
Zn64 O94 2.066 1_455 S
O65 Zn64 2.055 1_655 S
O65 C68 1.259 . S
C66 O94 1.256 . S
C66 O95 1.244 . S
Zn67 O69 2.046 . S
Zn67 O71 2.055 1_655 S
Zn67 N73 2.036 . S
Zn67 O91 2.066 1_655 S
Zn67 O95 2.053 . S
C68 O65 1.259 . S
C68 O69 1.254 . S
O69 Zn67 2.046 . S
O69 C68 1.254 . S
C70 O91 1.256 . S
C70 O92 1.244 . S
O71 Zn67 2.055 1_455 S
O71 C93 1.259 . S
O72 Zn64 2.046 . S
O72 C93 1.254 . S
N73 Zn67 2.036 . S
N73 C74 1.298 1_655 S
N73 N76 1.398 . S
C74 N73 1.298 1_455 S
C74 N77 1.367 . S
C74 C87 1.481 . S
C75 N76 1.299 . S
C75 N77 1.379 1_655 S
N76 N73 1.398 . S
N76 C75 1.299 . S
N77 C74 1.367 . S
N77 C75 1.379 1_455 S
C78 N80 1.298 1_655 S
C78 N82 1.367 . S
C78 C86 1.481 . S
C79 N81 1.299 . S
C79 N82 1.379 1_455 S
N80 Zn64 2.036 . S
N80 C78 1.298 1_455 S
N80 N81 1.398 . S
N81 C79 1.299 . S
N81 N80 1.398 . S
N82 C78 1.367 . S
N82 C79 1.379 1_655 S
H83 C86 0.980 . S
H84 C86 0.981 . S
H85 C86 0.981 . S
C86 C78 1.481 . S
C86 H83 0.980 . S
C86 H84 0.981 . S
C86 H85 0.981 . S
C87 C74 1.481 . S
C87 H88 0.980 . S
C87 H89 0.981 . S
C87 H90 0.981 . S
H88 C87 0.980 . S
H89 C87 0.981 . S
H90 C87 0.981 . S
O91 Zn67 2.066 1_455 S
O91 C70 1.256 . S
O92 Zn64 2.053 . S
O92 C70 1.244 . S
C93 O71 1.259 . S
C93 O72 1.254 . S
O94 Zn64 2.066 1_655 S
O94 C66 1.256 . S
O95 C66 1.244 . S
O95 Zn67 2.053 . S
Zn96 O97 2.055 . S
Zn96 O104 2.046 . S
Zn96 N112 2.036 . S
Zn96 O124 2.053 . S
Zn96 O126 2.066 . S
O97 Zn96 2.055 . S
O97 C100 1.259 . S
C98 O126 1.256 . S
C98 O127 1.244 . S
Zn99 O101 2.046 . S
Zn99 O103 2.055 . S
Zn99 N105 2.036 . S
Zn99 O123 2.066 . S
Zn99 O127 2.053 . S
C100 O97 1.259 . S
C100 O101 1.254 . S
O101 Zn99 2.046 . S
O101 C100 1.254 . S
C102 O123 1.256 . S
C102 O124 1.244 . S
O103 Zn99 2.055 . S
O103 C125 1.259 . S
O104 Zn96 2.046 . S
O104 C125 1.254 . S
N105 Zn99 2.036 . S
N105 C106 1.298 . S
N105 N108 1.398 . S
C106 N105 1.298 . S
C106 N109 1.367 . S
C106 C119 1.481 . S
C107 N108 1.299 . S
C107 N109 1.379 . S
N108 N105 1.398 . S
N108 C107 1.299 . S
N109 C106 1.367 . S
N109 C107 1.379 . S
C110 N112 1.298 . S
C110 N114 1.367 . S
C110 C118 1.481 . S
C111 N113 1.299 . S
C111 N114 1.379 . S
N112 Zn96 2.036 . S
N112 C110 1.298 . S
N112 N113 1.398 . S
N113 C111 1.299 . S
N113 N112 1.398 . S
N114 C110 1.367 . S
N114 C111 1.379 . S
H115 C118 0.980 . S
H116 C118 0.981 . S
H117 C118 0.981 . S
C118 C110 1.481 . S
C118 H115 0.980 . S
C118 H116 0.981 . S
C118 H117 0.981 . S
C119 C106 1.481 . S
C119 H120 0.980 . S
C119 H121 0.981 . S
C119 H122 0.981 . S
H120 C119 0.980 . S
H121 C119 0.981 . S
H122 C119 0.981 . S
O123 Zn99 2.066 . S
O123 C102 1.256 . S
O124 Zn96 2.053 . S
O124 C102 1.244 . S
C125 O103 1.259 . S
C125 O104 1.254 . S
O126 Zn96 2.066 . S
O126 C98 1.256 . S
O127 C98 1.244 . S
O127 Zn99 2.053 . S
H128 C134 0.930 . S
H129 C137 0.930 . S
H130 C138 0.930 . S
H131 C139 0.930 . S
H132 C142 0.930 . S
H133 C143 0.930 . S
C134 H128 0.930 . S
C134 C135 1.355 . S
C134 C136 1.415 . S
C135 C134 1.355 . S
C135 C137 1.419 1_556 S
C136 C134 1.415 . S
C136 C141 1.425 1_556 S
C136 C143 1.409 . S
C137 H129 0.930 . S
C137 C135 1.419 1_554 S
C137 C138 1.362 . S
C138 H130 0.930 . S
C138 C137 1.362 . S
C138 C141 1.409 . S
C139 H131 0.930 . S
C139 C140 1.355 . S
C139 C141 1.415 . S
C140 C139 1.355 . S
C140 C142 1.419 1_554 S
C141 C136 1.425 1_554 S
C141 C138 1.409 . S
C141 C139 1.415 . S
C142 H132 0.930 . S
C142 C140 1.419 1_556 S
C142 C143 1.362 . S
C143 H133 0.930 . S
C143 C136 1.409 . S
C143 C142 1.362 . S
H144 C150 0.930 . S
H145 C153 0.930 . S
H146 C154 0.930 . S
H147 C155 0.930 . S
H148 C158 0.930 . S
H149 C159 0.930 . S
C150 H144 0.930 . S
C150 C151 1.355 . S
C150 C152 1.415 . S
C151 C150 1.355 . S
C151 C153 1.419 . S
C152 C150 1.415 . S
C152 C157 1.425 1_554 S
C152 C159 1.409 . S
C153 H145 0.930 . S
C153 C151 1.419 . S
C153 C154 1.362 1_554 S
C154 H146 0.930 . S
C154 C153 1.362 1_556 S
C154 C157 1.409 . S
C155 H147 0.930 . S
C155 C156 1.355 . S
C155 C157 1.415 . S
C156 C155 1.355 . S
C156 C158 1.419 . S
C157 C152 1.425 1_556 S
C157 C154 1.409 . S
C157 C155 1.415 . S
C158 H148 0.930 . S
C158 C156 1.419 . S
C158 C159 1.362 1_556 S
C159 H149 0.930 . S
C159 C152 1.409 . S
C159 C158 1.362 1_554 S
H160 C166 0.930 . S
H161 C169 0.930 . S
H162 C170 0.930 . S
H163 C171 0.930 . S
H164 C174 0.930 . S
H165 C175 0.930 . S
C166 H160 0.930 . S
C166 C167 1.355 . S
C166 C168 1.405 1_565 S
C167 C166 1.355 . S
C167 C169 1.419 . S
C168 C166 1.405 1_545 S
C168 C173 1.425 1_546 S
C168 C175 1.419 . S
C169 H161 0.930 . S
C169 C167 1.419 . S
C169 C170 1.362 1_556 S
C170 H162 0.930 . S
C170 C169 1.362 1_554 S
C170 C173 1.419 . S
C171 H163 0.930 . S
C171 C172 1.355 . S
C171 C173 1.405 1_545 S
C172 C171 1.355 . S
C172 C174 1.419 . S
C173 C168 1.425 1_564 S
C173 C170 1.419 . S
C173 C171 1.405 1_565 S
C174 H164 0.930 . S
C174 C172 1.419 . S
C174 C175 1.362 1_554 S
C175 H165 0.930 . S
C175 C168 1.419 . S
C175 C174 1.362 1_556 S
H176 C182 0.930 1_556 S
H177 C185 0.930 . S
H178 C186 0.930 . S
H179 C187 0.930 1_554 S
H180 C190 0.930 . S
H181 C191 0.930 . S
C182 H176 0.930 1_554 S
C182 C183 1.355 . S
C182 C184 1.415 1_554 S
C183 C182 1.355 . S
C183 C185 1.419 . S
C184 C182 1.415 1_556 S
C184 C189 1.425 1_566 S
C184 C191 1.409 . S
C185 H177 0.930 . S
C185 C183 1.419 . S
C185 C186 1.362 1_565 S
C186 H178 0.930 . S
C186 C185 1.362 1_545 S
C186 C189 1.409 . S
C187 H179 0.930 1_556 S
C187 C188 1.355 . S
C187 C189 1.415 1_556 S
C188 C187 1.355 . S
C188 C190 1.419 . S
C189 C184 1.425 1_544 S
C189 C186 1.409 . S
C189 C187 1.415 1_554 S
C190 H180 0.930 . S
C190 C188 1.419 . S
C190 C191 1.362 1_545 S
C191 H181 0.930 . S
C191 C184 1.409 . S
C191 C190 1.362 1_565 S
H192 C198 0.930 . S
H193 C201 0.930 . S
H194 C202 0.930 . S
H195 C203 0.930 . S
H196 C206 0.930 . S
H197 C207 0.930 . S
C198 H192 0.930 . S
C198 C199 1.355 . S
C198 C200 1.415 . S
C199 C198 1.355 . S
C199 C201 1.419 . S
C200 C198 1.415 . S
C200 C205 1.425 . S
C200 C207 1.409 . S
C201 H193 0.930 . S
C201 C199 1.419 . S
C201 C202 1.362 . S
C202 H194 0.930 . S
C202 C201 1.362 . S
C202 C205 1.409 . S
C203 H195 0.930 . S
C203 C204 1.355 . S
C203 C205 1.415 . S
C204 C203 1.355 . S
C204 C206 1.419 . S
C205 C200 1.425 . S
C205 C202 1.409 . S
C205 C203 1.415 . S
C206 H196 0.930 . S
C206 C204 1.419 . S
C206 C207 1.362 . S
C207 H197 0.930 . S
C207 C200 1.409 . S
C207 C206 1.362 . S
H208 C214 0.930 . S
H209 C217 0.930 . S
H210 C218 0.930 . S
H211 C219 0.930 . S
H212 C222 0.930 . S
H213 C223 0.930 . S
C214 H208 0.930 . S
C214 C215 1.355 . S
C214 C216 1.415 . S
C215 C214 1.355 . S
C215 C217 1.419 . S
C216 C214 1.415 . S
C216 C221 1.425 . S
C216 C223 1.409 . S
C217 H209 0.930 . S
C217 C215 1.419 . S
C217 C218 1.362 . S
C218 H210 0.930 . S
C218 C217 1.362 . S
C218 C221 1.409 . S
C219 H211 0.930 . S
C219 C220 1.355 . S
C219 C221 1.415 . S
C220 C219 1.355 . S
C220 C222 1.419 . S
C221 C216 1.425 . S
C221 C218 1.409 . S
C221 C219 1.415 . S
C222 H212 0.930 . S
C222 C220 1.419 . S
C222 C223 1.362 . S
C223 H213 0.930 . S
C223 C216 1.409 . S
C223 C222 1.362 . S
H224 C230 0.930 . S
H225 C233 0.930 . S
H226 C234 0.930 . S
H227 C235 0.930 . S
H228 C238 0.930 . S
H229 C239 0.930 . S
C230 H224 0.930 . S
C230 C231 1.355 . S
C230 C232 1.415 . S
C231 C230 1.355 . S
C231 C233 1.419 . S
C232 C230 1.415 . S
C232 C237 1.425 . S
C232 C239 1.409 . S
C233 H225 0.930 . S
C233 C231 1.419 . S
C233 C234 1.362 . S
C234 H226 0.930 . S
C234 C233 1.362 . S
C234 C237 1.409 . S
C235 H227 0.930 . S
C235 C236 1.355 . S
C235 C237 1.415 . S
C236 C235 1.355 . S
C236 C238 1.419 . S
C237 C232 1.425 . S
C237 C234 1.409 . S
C237 C235 1.415 . S
C238 H228 0.930 . S
C238 C236 1.419 . S
C238 C239 1.362 . S
C239 H229 0.930 . S
C239 C232 1.409 . S
C239 C238 1.362 . S
H240 C246 0.930 . S
H241 C249 0.930 . S
H242 C250 0.930 . S
H243 C251 0.930 . S
H244 C254 0.930 . S
H245 C255 0.930 . S
C246 H240 0.930 . S
C246 C247 1.355 . S
C246 C248 1.415 . S
C247 C246 1.355 . S
C247 C249 1.419 . S
C248 C246 1.415 . S
C248 C253 1.425 . S
C248 C255 1.409 . S
C249 H241 0.930 . S
C249 C247 1.419 . S
C249 C250 1.362 . S
C250 H242 0.930 . S
C250 C249 1.362 . S
C250 C253 1.409 . S
C251 H243 0.930 . S
C251 C252 1.355 . S
C251 C253 1.415 . S
C252 C251 1.355 . S
C252 C254 1.419 . S
C253 C248 1.425 . S
C253 C250 1.409 . S
C253 C251 1.415 . S
C254 H244 0.930 . S
C254 C252 1.419 . S
C254 C255 1.362 . S
C255 H245 0.930 . S
C255 C248 1.409 . S
C255 C254 1.362 . S
H256 C262 0.930 . S
H257 C265 0.930 . S
H258 C266 0.930 . S
H259 C267 0.930 . S
H260 C270 0.930 . S
H261 C271 0.930 . S
C262 H256 0.930 . S
C262 C263 1.355 1_554 S
C262 C264 1.415 . S
C263 C262 1.355 1_556 S
C263 C265 1.419 . S
C264 C262 1.415 . S
C264 C269 1.425 1_554 S
C264 C271 1.409 . S
C265 H257 0.930 . S
C265 C263 1.419 . S
C265 C266 1.362 . S
C266 H258 0.930 . S
C266 C265 1.362 . S
C266 C269 1.409 . S
C267 H259 0.930 . S
C267 C268 1.355 1_556 S
C267 C269 1.415 . S
C268 C267 1.355 1_554 S
C268 C270 1.419 . S
C269 C264 1.425 1_556 S
C269 C266 1.409 . S
C269 C267 1.415 . S
C270 H260 0.930 . S
C270 C268 1.419 . S
C270 C271 1.362 . S
C271 H261 0.930 . S
C271 C264 1.409 . S
C271 C270 1.362 . S
H272 C278 0.930 . S
H273 C281 0.930 . S
H274 C282 0.930 . S
H275 C283 0.930 . S
H276 C286 0.930 . S
H277 C287 0.930 . S
C278 H272 0.930 . S
C278 C279 1.355 . S
C278 C280 1.415 . S
C279 C278 1.355 . S
C279 C281 1.419 1_556 S
C280 C278 1.415 . S
C280 C285 1.425 1_556 S
C280 C287 1.409 . S
C281 H273 0.930 . S
C281 C279 1.419 1_554 S
C281 C282 1.362 . S
C282 H274 0.930 . S
C282 C281 1.362 . S
C282 C285 1.409 . S
C283 H275 0.930 . S
C283 C284 1.355 . S
C283 C285 1.415 . S
C284 C283 1.355 . S
C284 C286 1.419 1_554 S
C285 C280 1.425 1_554 S
C285 C282 1.409 . S
C285 C283 1.415 . S
C286 H276 0.930 . S
C286 C284 1.419 1_556 S
C286 C287 1.362 . S
C287 H277 0.930 . S
C287 C280 1.409 . S
C287 C286 1.362 . S
H288 C294 0.930 . S
H289 C297 0.930 . S
H290 C298 0.930 . S
H291 C299 0.930 . S
H292 C302 0.930 . S
H293 C303 0.930 . S
C294 H288 0.930 . S
C294 C295 1.355 . S
C294 C296 1.415 . S
C295 C294 1.355 . S
C295 C297 1.419 1_554 S
C296 C294 1.415 . S
C296 C301 1.425 1_554 S
C296 C303 1.409 . S
C297 H289 0.930 . S
C297 C295 1.419 1_556 S
C297 C298 1.362 . S
C298 H290 0.930 . S
C298 C297 1.362 . S
C298 C301 1.409 . S
C299 H291 0.930 . S
C299 C300 1.355 . S
C299 C301 1.415 . S
C300 C299 1.355 . S
C300 C302 1.419 1_556 S
C301 C296 1.425 1_556 S
C301 C298 1.409 . S
C301 C299 1.415 . S
C302 H292 0.930 . S
C302 C300 1.419 1_554 S
C302 C303 1.362 . S
C303 H293 0.930 . S
C303 C296 1.409 . S
C303 C302 1.362 . S
H304 C310 0.930 . S
H305 C313 0.930 . S
H306 C314 0.930 . S
H307 C315 0.930 . S
H308 C318 0.930 . S
H309 C319 0.930 . S
C310 H304 0.930 . S
C310 C311 1.355 1_556 S
C310 C312 1.415 . S
C311 C310 1.355 1_554 S
C311 C313 1.419 . S
C312 C310 1.415 . S
C312 C317 1.425 1_556 S
C312 C319 1.409 . S
C313 H305 0.930 . S
C313 C311 1.419 . S
C313 C314 1.362 . S
C314 H306 0.930 . S
C314 C313 1.362 . S
C314 C317 1.409 . S
C315 H307 0.930 . S
C315 C316 1.355 1_554 S
C315 C317 1.415 . S
C316 C315 1.355 1_556 S
C316 C318 1.419 . S
C317 C312 1.425 1_554 S
C317 C314 1.409 . S
C317 C315 1.415 . S
C318 H308 0.930 . S
C318 C316 1.419 . S
C318 C319 1.362 . S
C319 H309 0.930 . S
C319 C312 1.409 . S
C319 C318 1.362 . S
C135 N82 1.851 . S
C140 N13 1.866 . S
C151 N45 1.844 . S
C156 N109 1.895 . S
C167 N114 1.845 . S
C172 N50 1.898 . S
C183 N18 1.907 . S
C188 N77 1.885 . S
C199 C100 1.532 . S
C204 C4 1.536 . S
C215 C93 1.535 . S
C220 C36 1.540 . S
C231 C68 1.549 . S
C236 C61 1.547 . S
C247 C29 1.530 . S
C252 C125 1.537 . S
C263 C98 0.909 . S
C268 C2 0.912 . S
C279 C70 0.962 . S
C284 C34 0.960 . S
C295 C38 0.962 . S
C300 C66 0.962 . S
C311 C6 0.870 . S
C316 C102 0.874 . S
