# Generated by pormake.
# Topology wjy, (5)-cn, num edge types: 1
# Building blocks:
#     Node 0, Type 0, BuildingBlock: BEQFEK_clean_sbu_0, # of connection points: 5
#     Node 1, Type 0, BuildingBlock: BEQFEK_clean_sbu_0, # of connection points: 5
#     Node 2, Type 0, BuildingBlock: BEQFEK_clean_sbu_0, # of connection points: 5
#     Node 3, Type 0, BuildingBlock: BEQFEK_clean_sbu_0, # of connection points: 5
#     Node 4, Type 0, BuildingBlock: BEQFEK_clean_sbu_0, # of connection points: 5
#     Node 5, Type 0, BuildingBlock: BEQFEK_clean_sbu_0, # of connection points: 5
#     Node 6, Type 0, BuildingBlock: BEQFEK_clean_sbu_0, # of connection points: 5
#     Node 7, Type 0, BuildingBlock: BEQFEK_clean_sbu_0, # of connection points: 5
#     Node 8, Type 0, BuildingBlock: BEQFEK_clean_sbu_0, # of connection points: 5
#     Node 9, Type 0, BuildingBlock: BEQFEK_clean_sbu_0, # of connection points: 5
#     Node 10, Type 0, BuildingBlock: BEQFEK_clean_sbu_0, # of connection points: 5
#     Node 11, Type 0, BuildingBlock: BEQFEK_clean_sbu_0, # of connection points: 5
#     Edge 12, Type (0, 0), BuildingBlock: KIFKEQ_clean_linker_1, # of connection points: 2
#     Edge 13, Type (0, 0), BuildingBlock: KIFKEQ_clean_linker_1, # of connection points: 2
#     Edge 14, Type (0, 0), BuildingBlock: KIFKEQ_clean_linker_1, # of connection points: 2
#     Edge 15, Type (0, 0), BuildingBlock: KIFKEQ_clean_linker_1, # of connection points: 2
#     Edge 16, Type (0, 0), BuildingBlock: KIFKEQ_clean_linker_1, # of connection points: 2
#     Edge 17, Type (0, 0), BuildingBlock: KIFKEQ_clean_linker_1, # of connection points: 2
#     Edge 18, Type (0, 0), BuildingBlock: KIFKEQ_clean_linker_1, # of connection points: 2
#     Edge 19, Type (0, 0), BuildingBlock: KIFKEQ_clean_linker_1, # of connection points: 2
#     Edge 20, Type (0, 0), BuildingBlock: KIFKEQ_clean_linker_1, # of connection points: 2
#     Edge 21, Type (0, 0), BuildingBlock: KIFKEQ_clean_linker_1, # of connection points: 2
#     Edge 22, Type (0, 0), BuildingBlock: KIFKEQ_clean_linker_1, # of connection points: 2
#     Edge 23, Type (0, 0), BuildingBlock: KIFKEQ_clean_linker_1, # of connection points: 2
#     Edge 24, Type (0, 0), BuildingBlock: KIFKEQ_clean_linker_1, # of connection points: 2
#     Edge 25, Type (0, 0), BuildingBlock: KIFKEQ_clean_linker_1, # of connection points: 2
#     Edge 26, Type (0, 0), BuildingBlock: KIFKEQ_clean_linker_1, # of connection points: 2
#     Edge 27, Type (0, 0), BuildingBlock: KIFKEQ_clean_linker_1, # of connection points: 2
#     Edge 28, Type (0, 0), BuildingBlock: KIFKEQ_clean_linker_1, # of connection points: 2
#     Edge 29, Type (0, 0), BuildingBlock: KIFKEQ_clean_linker_1, # of connection points: 2
#     Edge 30, Type (0, 0), BuildingBlock: KIFKEQ_clean_linker_1, # of connection points: 2
#     Edge 31, Type (0, 0), BuildingBlock: KIFKEQ_clean_linker_1, # of connection points: 2
#     Edge 32, Type (0, 0), BuildingBlock: KIFKEQ_clean_linker_1, # of connection points: 2
#     Edge 33, Type (0, 0), BuildingBlock: KIFKEQ_clean_linker_1, # of connection points: 2
#     Edge 34, Type (0, 0), BuildingBlock: KIFKEQ_clean_linker_1, # of connection points: 2
#     Edge 35, Type (0, 0), BuildingBlock: KIFKEQ_clean_linker_1, # of connection points: 2
#     Edge 36, Type (0, 0), BuildingBlock: KIFKEQ_clean_linker_1, # of connection points: 2
#     Edge 37, Type (0, 0), BuildingBlock: KIFKEQ_clean_linker_1, # of connection points: 2
#     Edge 38, Type (0, 0), BuildingBlock: KIFKEQ_clean_linker_1, # of connection points: 2
#     Edge 39, Type (0, 0), BuildingBlock: KIFKEQ_clean_linker_1, # of connection points: 2
#     Edge 40, Type (0, 0), BuildingBlock: KIFKEQ_clean_linker_1, # of connection points: 2
#     Edge 41, Type (0, 0), BuildingBlock: KIFKEQ_clean_linker_1, # of connection points: 2
# Relax obj value: 0.133
# Max RMSD: 0.158
# Mean RMSD: 0.158
data_MOF--net-wjy--node1-BEQFEK_clean_sbu_0--edge1-KIFKEQ_clean_linker_1
_symmetry_space_group_name_H-M    P1
_symmetry_Int_Tables_number       1
_symmetry_cell_setting            triclinic
loop_
_symmetry_equiv_pos_as_xyz
'x, y, z'
_cell_length_a     74.350354
_cell_length_b     74.433075
_cell_length_c     19.226756
_cell_angle_alpha  89.987883
_cell_angle_beta   89.982719
_cell_angle_gamma 120.00107
loop_
_atom_site_label
_atom_site_type_symbol
_atom_site_fract_x
_atom_site_fract_y
_atom_site_fract_z
_atom_type_partial_charge
Co0 Co 0.4566 0.11083 0.17858 0.0
Co1 Co 0.47595 0.12059 0.02968 0.0
C2 C 0.4397 0.07836 0.07063 0.0
O3 O 0.43825 0.08391 0.13212 0.0
O4 O 0.45362 0.09093 0.02889 0.0
C5 C 0.44793 0.09695 0.31533 0.0
O6 O 0.45124 0.0827 0.28781 0.0
C7 C 0.47202 0.1236 0.87983 0.0
C8 C 0.50424 0.13577 0.84344 0.0
C9 C 0.4841 0.12851 0.82017 0.0
N10 N 0.48443 0.12774 0.93546 0.0
N11 N 0.50372 0.13528 0.91344 0.0
C12 C 0.44885 0.11336 0.88415 0.0
H13 H 0.44157 0.09963 0.84936 0.0
H14 H 0.44338 0.10872 0.93826 0.0
H15 H 0.44385 0.12439 0.86683 0.0
C16 C 0.45268 0.14776 0.14755 0.0
N17 N 0.45771 0.13337 0.1291 0.0
N18 N 0.46622 0.13783 0.0669 0.0
C19 C 0.46705 0.15535 0.04395 0.0
C20 C 0.45843 0.16221 0.09421 0.0
C21 C 0.44272 0.14764 0.21531 0.0
H22 H 0.43043 0.13159 0.22808 0.0
H23 H 0.43586 0.15788 0.21356 0.0
H24 H 0.4546 0.15305 0.25708 0.0
O25 O 0.48489 0.11476 0.18843 0.0
O26 O 0.49987 0.12337 0.08474 0.0
H27 H 0.48211 0.18299 0.98004 0.0
H28 H 0.46722 0.15891 0.93373 0.0
C29 C 0.47778 0.16641 0.97846 0.0
H30 H 0.49198 0.16535 0.97042 0.0
H31 H 0.51638 0.13927 0.94605 0.0
O32 O 0.44783 0.11055 0.27569 0.0
C33 C 0.50054 0.11991 0.14931 0.0
Co34 Co 0.3504 0.45789 0.3265 0.0
Co35 Co 0.36055 0.4761 0.17673 0.0
C36 C 0.36601 0.43982 0.2244 0.0
O37 O 0.3587 0.43865 0.28531 0.0
O38 O 0.36761 0.45358 0.18136 0.0
C39 C 0.34052 0.43826 0.46645 0.0
O40 O 0.34423 0.42369 0.44468 0.0
C41 C 0.35373 0.46896 0.02906 0.0
C42 C 0.36541 0.50033 0.98549 0.0
C43 C 0.35621 0.47955 0.96759 0.0
N44 N 0.36118 0.48277 0.0812 0.0
N45 N 0.36826 0.50154 0.05497 0.0
C46 C 0.34291 0.44596 0.03903 0.0
H47 H 0.33606 0.44174 0.09191 0.0
H48 H 0.33056 0.43795 -0.00062 0.0
H49 H 0.35434 0.44063 0.03306 0.0
C50 C 0.30952 0.45331 0.29139 0.0
N51 N 0.32914 0.45855 0.27479 0.0
N52 N 0.33352 0.46689 0.21244 0.0
C53 C 0.31683 0.46742 0.18745 0.0
C54 C 0.30101 0.45877 0.23663 0.0
C55 C 0.29922 0.44321 0.35848 0.0
H56 H 0.30341 0.43133 0.37288 0.0
H57 H 0.28207 0.43581 0.35471 0.0
H58 H 0.30489 0.45511 0.40017 0.0
O59 O 0.37506 0.48604 0.3328 0.0
O60 O 0.38179 0.50072 0.22867 0.0
H61 H 0.33158 0.49262 0.11531 0.0
H62 H 0.30372 0.48096 0.1185 0.0
C63 C 0.31677 0.47777 0.12075 0.0
H64 H 0.31541 0.4676 0.07652 0.0
H65 H 0.37472 0.5151 0.08454 0.0
O66 O 0.34173 0.45193 0.42426 0.0
C67 C 0.38578 0.50153 0.2934 0.0
Co68 Co 0.89783 0.34589 0.51428 0.0
Co69 Co 0.88803 0.35565 0.36554 0.0
C70 C 0.93029 0.36161 0.40598 0.0
O71 O 0.92483 0.3546 0.46752 0.0
O72 O 0.91764 0.36297 0.36466 0.0
C73 C 0.91174 0.35093 0.65097 0.0
O74 O 0.92607 0.36847 0.62347 0.0
C75 C 0.88513 0.3488 0.21566 0.0
C76 C 0.87327 0.36905 0.17903 0.0
C77 C 0.8804 0.35607 0.15591 0.0
N78 N 0.881 0.35711 0.27122 0.0
N79 N 0.87365 0.36898 0.24905 0.0
C80 C 0.89525 0.33578 0.22013 0.0
H81 H 0.89971 0.3348 0.27436 0.0
H82 H 0.8842 0.31981 0.20232 0.0
H83 H 0.9091 0.34224 0.18579 0.0
C84 C 0.86074 0.30515 0.48282 0.0
N85 N 0.87525 0.32454 0.46452 0.0
N86 N 0.87085 0.32867 0.40235 0.0
C87 C 0.85329 0.31205 0.37922 0.0
C88 C 0.84634 0.29655 0.42934 0.0
C89 C 0.86063 0.29529 0.55075 0.0
H90 H 0.87659 0.29874 0.56355 0.0
H91 H 0.85008 0.27824 0.54928 0.0
H92 H 0.85545 0.30201 0.59237 0.0
O93 O 0.89375 0.37012 0.52484 0.0
O94 O 0.8851 0.37655 0.42129 0.0
H95 H 0.82566 0.29957 0.31525 0.0
H96 H 0.84979 0.30889 0.26896 0.0
C97 C 0.84226 0.31184 0.31384 0.0
H98 H 0.84333 0.32711 0.30619 0.0
H99 H 0.86972 0.37772 0.28158 0.0
O100 O 0.89809 0.33728 0.61131 0.0
C101 C 0.88848 0.38055 0.48597 0.0
Co102 Co 0.55205 0.89381 0.67557 0.0
Co103 Co 0.53353 0.88573 0.52619 0.0
C104 C 0.56925 0.92767 0.573 0.0
O105 O 0.57079 0.92143 0.63329 0.0
O106 O 0.55547 0.91548 0.53016 0.0
C107 C 0.5684 0.90675 0.81508 0.0
O108 O 0.57591 0.92594 0.7935 0.0
C109 C 0.53843 0.88742 0.37628 0.0
C110 C 0.5073 0.86404 0.33874 0.0
C111 C 0.52722 0.87813 0.31685 0.0
N112 N 0.52577 0.87934 0.43134 0.0
N113 N 0.50712 0.86544 0.40866 0.0
C114 C 0.5613 0.90215 0.38105 0.0
H115 H 0.56745 0.90017 0.43127 0.0
H116 H 0.56962 0.89968 0.33747 0.0
H117 H 0.56422 0.91826 0.37761 0.0
C118 C 0.55598 0.85712 0.64058 0.0
N119 N 0.55126 0.87184 0.62356 0.0
N120 N 0.54349 0.86834 0.56038 0.0
C121 C 0.5432 0.85134 0.53471 0.0
C122 C 0.55102 0.84356 0.58477 0.0
C123 C 0.56297 0.85501 0.71162 0.0
H124 H 0.55132 0.85365 0.75051 0.0
H125 H 0.57787 0.86922 0.72403 0.0
H126 H 0.5649 0.84123 0.71616 0.0
O127 O 0.5238 0.88985 0.68484 0.0
O128 O 0.50906 0.88181 0.58076 0.0
H129 H 0.51891 0.83728 0.45929 0.0
H130 H 0.53867 0.82999 0.4506 0.0
C131 C 0.53578 0.84285 0.46328 0.0
H132 H 0.544 0.85534 0.42446 0.0
H133 H 0.4944 0.85666 0.44095 0.0
O134 O 0.55954 0.89193 0.7721 0.0
C135 C 0.50821 0.88481 0.64563 0.0
Co136 Co 0.66142 0.54959 0.83632 0.0
Co137 Co 0.65067 0.53143 0.68642 0.0
C138 C 0.64465 0.56711 0.73535 0.0
O139 O 0.65205 0.56823 0.79607 0.0
O140 O 0.64334 0.55364 0.69168 0.0
C141 C 0.66913 0.5684 0.97565 0.0
O142 O 0.66184 0.58027 0.95411 0.0
C143 C 0.65644 0.53808 0.53815 0.0
C144 C 0.64512 0.50664 0.49581 0.0
C145 C 0.65382 0.52731 0.47708 0.0
N146 N 0.64955 0.52448 0.59098 0.0
N147 N 0.64267 0.50566 0.56548 0.0
C148 C 0.66687 0.56111 0.54685 0.0
H149 H 0.67394 0.5657 0.59932 0.0
H150 H 0.67899 0.56911 0.50647 0.0
H151 H 0.65515 0.56606 0.54093 0.0
C152 C 0.70229 0.55459 0.79824 0.0
N153 N 0.68261 0.54937 0.78268 0.0
N154 N 0.67797 0.54097 0.72044 0.0
C155 C 0.69454 0.54042 0.69445 0.0
C156 C 0.71056 0.54907 0.74289 0.0
C157 C 0.71279 0.56447 0.86527 0.0
H158 H 0.70874 0.57639 0.88054 0.0
H159 H 0.72991 0.57177 0.8609 0.0
H160 H 0.70715 0.55247 0.90664 0.0
O161 O 0.63754 0.52099 0.84485 0.0
O162 O 0.62979 0.50696 0.73958 0.0
H163 H 0.70745 0.52695 0.62423 0.0
H164 H 0.69502 0.53976 0.58343 0.0
C165 C 0.69424 0.52988 0.62781 0.0
H166 H 0.67955 0.51486 0.6239 0.0
H167 H 0.63665 0.49223 0.59567 0.0
O168 O 0.67082 0.55629 0.93318 0.0
C169 C 0.6266 0.50571 0.80495 0.0
Co170 Co 0.11168 0.6585 0.02055 0.0
Co171 Co 0.12234 0.65116 0.8698 0.0
C172 C 0.07961 0.64388 0.91191 0.0
O173 O 0.08489 0.65053 0.97383 0.0
O174 O 0.09246 0.643 0.87027 0.0
C175 C 0.1059 0.67494 0.15781 0.0
O176 O 0.10161 0.68833 0.12888 0.0
C177 C 0.12537 0.66116 0.72187 0.0
C178 C 0.14061 0.64464 0.67891 0.0
C179 C 0.13205 0.65678 0.65973 0.0
N180 N 0.12978 0.65204 0.77436 0.0
N181 N 0.13905 0.64233 0.74845 0.0
C182 C 0.11418 0.67302 0.73194 0.0
H183 H 0.10113 0.66766 0.69447 0.0
H184 H 0.10829 0.67141 0.7857 0.0
H185 H 0.1251 0.68976 0.72313 0.0
C186 C 0.14945 0.70009 0.99541 0.0
N187 N 0.13478 0.68093 0.97493 0.0
N188 N 0.13921 0.67759 0.9116 0.0
C189 C 0.15679 0.69446 0.88988 0.0
C190 C 0.16378 0.70933 0.94192 0.0
C191 C 0.14967 0.7093 0.06473 0.0
H192 H 0.13612 0.71165 0.06804 0.0
H193 H 0.16393 0.7245 0.07271 0.0
H194 H 0.14832 0.69843 0.10657 0.0
O195 O 0.11586 0.63427 0.02351 0.0
O196 O 0.12567 0.62954 0.91956 0.0
H197 H 0.16738 0.68055 0.81458 0.0
H198 H 0.18435 0.70811 0.82512 0.0
C199 C 0.16789 0.6955 0.82368 0.0
H200 H 0.16006 0.69843 0.77969 0.0
H201 H 0.14386 0.63375 0.778 0.0
O202 O 0.11011 0.6634 0.12077 0.0
C203 C 0.12164 0.62452 0.98342 0.0
Co204 Co 0.89812 0.54941 0.64715 0.0
Co205 Co 0.88807 0.53276 0.80001 0.0
C206 C 0.93045 0.5679 0.7557 0.0
O207 O 0.92495 0.56876 0.69359 0.0
O208 O 0.91775 0.55453 0.79849 0.0
C209 C 0.90238 0.57123 0.51127 0.0
O210 O 0.90357 0.58747 0.54252 0.0
C211 C 0.8884 0.54048 0.94837 0.0
C212 C 0.86607 0.50978 0.99157 0.0
C213 C 0.87942 0.53026 0.00989 0.0
N214 N 0.88085 0.52673 0.89594 0.0
N215 N 0.86753 0.50835 0.92205 0.0
C216 C 0.9024 0.56333 0.9386 0.0
H217 H 0.90018 0.56812 0.88613 0.0
H218 H 0.89934 0.57217 0.97879 0.0
H219 H 0.91877 0.56708 0.94369 0.0
C220 C 0.85932 0.55182 0.66998 0.0
N221 N 0.8747 0.5485 0.6918 0.0
N222 N 0.87101 0.54202 0.7568 0.0
C223 C 0.85353 0.54151 0.77874 0.0
C224 C 0.84549 0.54763 0.72446 0.0
C225 C 0.85645 0.55644 0.59643 0.0
H226 H 0.8618 0.54854 0.56005 0.0
H227 H 0.86567 0.57342 0.58772 0.0
H228 H 0.83992 0.55127 0.58539 0.0
O229 O 0.89439 0.52125 0.64688 0.0
O230 O 0.88497 0.50753 0.75212 0.0
H231 H 0.83983 0.51889 0.85963 0.0
H232 H 0.83155 0.538 0.85956 0.0
C233 C 0.84485 0.53547 0.85069 0.0
H234 H 0.85706 0.54491 0.88905 0.0
H235 H 0.85935 0.4949 0.89244 0.0
O236 O 0.90006 0.55578 0.54649 0.0
C237 C 0.88893 0.50611 0.68848 0.0
Co238 Co 0.34911 0.89403 0.82653 0.0
Co239 Co 0.35957 0.88638 0.97641 0.0
C240 C 0.36568 0.92817 0.92745 0.0
O241 O 0.35797 0.92184 0.86712 0.0
O242 O 0.36721 0.91604 0.97074 0.0
C243 C 0.34135 0.90519 0.68709 0.0
O244 O 0.3483 0.92429 0.70868 0.0
C245 C 0.35501 0.88807 0.12542 0.0
C246 C 0.36394 0.86587 0.16613 0.0
C247 C 0.3569 0.87918 0.18598 0.0
N248 N 0.36073 0.88047 0.07184 0.0
N249 N 0.36621 0.86731 0.09641 0.0
C250 C 0.34571 0.90174 0.11779 0.0
H251 H 0.33834 0.89954 0.06595 0.0
H252 H 0.33399 0.89838 0.15904 0.0
H253 H 0.35815 0.91816 0.12302 0.0
C254 C 0.30836 0.85758 0.86278 0.0
N255 N 0.32789 0.87227 0.87923 0.0
N256 N 0.3323 0.86875 0.94219 0.0
C257 C 0.31567 0.85168 0.96806 0.0
C258 C 0.29994 0.84397 0.91855 0.0
C259 C 0.29896 0.85559 0.79237 0.0
H260 H 0.30847 0.85316 0.75309 0.0
H261 H 0.29928 0.87026 0.77913 0.0
H262 H 0.2828 0.84246 0.78955 0.0
O263 O 0.37348 0.8901 0.8188 0.0
O264 O 0.38024 0.88236 0.92326 0.0
H265 H 0.32707 0.83866 0.04333 0.0
H266 H 0.2995 0.82931 0.05049 0.0
C267 C 0.31487 0.84301 0.039 0.0
H268 H 0.31799 0.85504 0.07853 0.0
H269 H 0.37104 0.85899 0.0655 0.0
O270 O 0.33993 0.89149 0.72951 0.0
C271 C 0.38408 0.88521 0.85835 0.0
Co272 Co 0.45969 0.34794 0.99017 0.0
Co273 Co 0.47667 0.35776 0.14145 0.0
C274 C 0.44154 0.3643 0.09104 0.0
O275 O 0.44088 0.35718 0.03016 0.0
O276 O 0.45466 0.36535 0.13578 0.0
C277 C 0.43967 0.33869 0.85167 0.0
O278 O 0.4261 0.34375 0.87414 0.0
C279 C 0.47008 0.35274 0.2902 0.0
C280 C 0.50111 0.36133 0.33125 0.0
C281 C 0.48073 0.35435 0.3508 0.0
N282 N 0.48349 0.35856 0.23687 0.0
N283 N 0.50208 0.36384 0.26164 0.0
C284 C 0.44711 0.34354 0.28217 0.0
H285 H 0.44203 0.33637 0.23003 0.0
H286 H 0.43864 0.33168 0.32291 0.0
H287 H 0.44315 0.35598 0.28795 0.0
C288 C 0.45507 0.30709 0.0251 0.0
N289 N 0.45971 0.32647 0.0425 0.0
N290 N 0.46716 0.33056 0.10611 0.0
C291 C 0.46736 0.31377 0.13163 0.0
C292 C 0.45977 0.29833 0.08108 0.0
C293 C 0.44849 0.29823 0.9536 0.0
H294 H 0.46057 0.30841 0.91568 0.0
H295 H 0.43389 0.29799 0.93968 0.0
H296 H 0.44619 0.28238 0.94925 0.0
O297 O 0.48832 0.37167 0.98329 0.0
O298 O 0.50154 0.37887 0.08976 0.0
H299 H 0.49117 0.32444 0.20903 0.0
H300 H 0.47244 0.29699 0.2147 0.0
C301 C 0.47455 0.31253 0.20328 0.0
H302 H 0.46551 0.31577 0.24196 0.0
H303 H 0.51528 0.3687 0.23092 0.0
O304 O 0.4531 0.33903 0.89311 0.0
C305 C 0.5033 0.38235 0.02453 0.0
Co306 Co 0.112 0.45526 0.14237 0.0
Co307 Co 0.12187 0.47202 0.29514 0.0
C308 C 0.07953 0.43693 0.25076 0.0
O309 O 0.08509 0.43602 0.18876 0.0
O310 O 0.09219 0.4503 0.29354 0.0
C311 C 0.10797 0.43339 0.00655 0.0
O312 O 0.107 0.41724 0.03772 0.0
C313 C 0.12143 0.46437 0.44366 0.0
C314 C 0.14368 0.49511 0.48672 0.0
C315 C 0.13036 0.47462 0.50515 0.0
N316 N 0.12897 0.47812 0.39114 0.0
N317 N 0.14224 0.49651 0.41719 0.0
C318 C 0.1075 0.44152 0.43398 0.0
H319 H 0.10972 0.43674 0.38147 0.0
H320 H 0.11064 0.43271 0.47411 0.0
H321 H 0.09111 0.43768 0.43925 0.0
C322 C 0.15083 0.45298 0.16603 0.0
N323 N 0.13534 0.45617 0.18757 0.0
N324 N 0.13892 0.46266 0.25257 0.0
C325 C 0.15643 0.46329 0.27478 0.0
C326 C 0.16461 0.45726 0.22069 0.0
C327 C 0.15389 0.4485 0.0925 0.0
H328 H 0.14844 0.4563 0.05607 0.0
H329 H 0.14487 0.43152 0.08367 0.0
H330 H 0.17048 0.45389 0.08165 0.0
O331 O 0.11587 0.48346 0.14126 0.0
O332 O 0.12514 0.49723 0.24648 0.0
H333 H 0.17003 0.48603 0.35527 0.0
H334 H 0.1784 0.467 0.35583 0.0
C335 C 0.16507 0.46946 0.34671 0.0
H336 H 0.15285 0.46004 0.38512 0.0
H337 H 0.15042 0.50996 0.38751 0.0
O338 O 0.11009 0.44876 0.04182 0.0
C339 C 0.12135 0.49865 0.18264 0.0
Co340 Co 0.66054 0.11123 0.32746 0.0
Co341 Co 0.65048 0.11977 0.47738 0.0
C342 C 0.6452 0.07814 0.43373 0.0
O343 O 0.6522 0.08411 0.37248 0.0
O344 O 0.64363 0.09034 0.47647 0.0
C345 C 0.65716 0.09673 0.19118 0.0
O346 O 0.64035 0.08116 0.21825 0.0
C347 C 0.65685 0.12134 0.62696 0.0
C348 C 0.63775 0.13433 0.66558 0.0
C349 C 0.65013 0.12634 0.68725 0.0
N350 N 0.64894 0.12626 0.57216 0.0
N351 N 0.6377 0.13422 0.59549 0.0
C352 C 0.66886 0.11017 0.6213 0.0
H353 H 0.67242 0.10878 0.56624 0.0
H354 H 0.68369 0.11867 0.65015 0.0
H355 H 0.65976 0.09451 0.64484 0.0
C356 C 0.70092 0.14868 0.3598 0.0
N357 N 0.68165 0.13379 0.37792 0.0
N358 N 0.67745 0.1376 0.44082 0.0
C359 C 0.69393 0.15512 0.46487 0.0
C360 C 0.70941 0.16274 0.41433 0.0
C361 C 0.71 0.15029 0.28901 0.0
H362 H 0.69935 0.15063 0.24932 0.0
H363 H 0.71133 0.13631 0.27906 0.0
H364 H 0.72545 0.16441 0.28323 0.0
O365 O 0.63595 0.11477 0.31786 0.0
O366 O 0.62919 0.12244 0.4226 0.0
H367 H 0.68103 0.166 0.54268 0.0
H368 H 0.70917 0.17919 0.5433 0.0
C369 C 0.69479 0.16411 0.5353 0.0
H370 H 0.69432 0.15322 0.57548 0.0
H371 H 0.62939 0.13886 0.56371 0.0
O372 O 0.66953 0.11138 0.23076 0.0
C373 C 0.62522 0.11942 0.35777 0.0
Co374 Co 0.55436 0.65951 0.48231 0.0
Co375 Co 0.53454 0.64953 0.63071 0.0
C376 C 0.57076 0.64337 0.59012 0.0
O377 O 0.57248 0.65062 0.52887 0.0
O378 O 0.55671 0.64197 0.63142 0.0
C379 C 0.56277 0.6542 0.34556 0.0
O380 O 0.55925 0.63659 0.37327 0.0
C381 C 0.53839 0.65627 0.78073 0.0
C382 C 0.50617 0.63622 0.81699 0.0
C383 C 0.52629 0.64907 0.84036 0.0
N384 N 0.526 0.64804 0.72503 0.0
N385 N 0.50671 0.63628 0.74698 0.0
C386 C 0.56156 0.66919 0.77649 0.0
H387 H 0.56885 0.66281 0.81162 0.0
H388 H 0.56706 0.66993 0.72247 0.0
H389 H 0.56654 0.68524 0.7934 0.0
C390 C 0.5584 0.70033 0.51444 0.0
N391 N 0.55326 0.68085 0.53235 0.0
N392 N 0.54456 0.67664 0.59427 0.0
C393 C 0.54372 0.69329 0.61757 0.0
C394 C 0.55254 0.70892 0.56786 0.0
C395 C 0.56849 0.71032 0.44701 0.0
H396 H 0.5807 0.70645 0.43406 0.0
H397 H 0.57547 0.72742 0.44934 0.0
H398 H 0.55667 0.70408 0.40505 0.0
O399 O 0.52601 0.63537 0.47169 0.0
O400 O 0.51063 0.62874 0.57474 0.0
H401 H 0.52842 0.7057 0.68108 0.0
H402 H 0.54319 0.69644 0.7278 0.0
C403 C 0.53277 0.69346 0.68272 0.0
H404 H 0.51856 0.67818 0.69018 0.0
H405 H 0.49405 0.62765 0.71432 0.0
O406 O 0.56319 0.66806 0.38517 0.0
C407 C 0.51018 0.62486 0.51001 0.0
H408 H 0.49122 0.29118 0.114 0.0
H409 H 0.42677 0.26005 0.05309 0.0
H410 H 0.49018 0.25784 0.11879 0.0
H411 H 0.42575 0.22661 0.05649 0.0
H412 H 0.44199 0.17566 0.99433 0.0
H413 H 0.44176 0.20849 0.99151 0.0
H414 H 0.47294 0.22523 0.19035 0.0
H415 H 0.47325 0.19251 0.19262 0.0
C416 C 0.4768 0.27714 0.10209 0.0
C417 C 0.45904 0.2781 0.08357 0.0
C418 C 0.47619 0.25809 0.10479 0.0
C419 C 0.45786 0.23961 0.0882 0.0
C420 C 0.44013 0.24061 0.069 0.0
C421 C 0.4407 0.25968 0.06707 0.0
C422 C 0.44871 0.18639 0.03738 0.0
C423 C 0.45757 0.18163 0.09376 0.0
C424 C 0.44848 0.20507 0.03601 0.0
C425 C 0.45736 0.21943 0.09068 0.0
C426 C 0.46613 0.21455 0.14724 0.0
C427 C 0.46616 0.19579 0.14887 0.0
H428 H 0.20269 0.48877 0.25825 0.0
H429 H 0.17146 0.42615 0.17934 0.0
H430 H 0.23544 0.48861 0.26144 0.0
H431 H 0.20429 0.42588 0.18228 0.0
H432 H 0.27206 0.44259 0.13343 0.0
H433 H 0.23891 0.44211 0.12693 0.0
H434 H 0.25088 0.47168 0.32831 0.0
H435 H 0.28414 0.47257 0.33362 0.0
C436 C 0.20287 0.47492 0.24201 0.0
C437 C 0.18457 0.45736 0.21958 0.0
C438 C 0.22159 0.4748 0.24388 0.0
C439 C 0.22244 0.45715 0.22283 0.0
C440 C 0.20418 0.43976 0.19852 0.0
C441 C 0.18541 0.43987 0.19692 0.0
C442 C 0.26751 0.44896 0.17612 0.0
C443 C 0.28056 0.45761 0.234 0.0
C444 C 0.24852 0.44857 0.17269 0.0
C445 C 0.24229 0.45693 0.22699 0.0
C446 C 0.25533 0.46536 0.28521 0.0
C447 C 0.27426 0.46567 0.28867 0.0
H448 H 0.74766 0.16745 0.39106 0.0
H449 H 0.71669 0.20175 0.44049 0.0
H450 H 0.78132 0.19967 0.39475 0.0
H451 H 0.75027 0.23386 0.44586 0.0
H452 H 0.8155 0.28158 0.52596 0.0
H453 H 0.78243 0.24883 0.52247 0.0
H454 H 0.8001 0.23366 0.32669 0.0
H455 H 0.8332 0.26648 0.33047 0.0
C456 C 0.74812 0.18191 0.40264 0.0
C457 C 0.7297 0.18218 0.41614 0.0
C458 C 0.76731 0.2003 0.40473 0.0
C459 C 0.76839 0.21923 0.42106 0.0
C460 C 0.74991 0.21945 0.43421 0.0
C461 C 0.73074 0.20112 0.43124 0.0
C462 C 0.81233 0.27111 0.48264 0.0
C463 C 0.82681 0.27639 0.42862 0.0
C464 C 0.7934 0.2525 0.48031 0.0
C465 C 0.7887 0.23874 0.42424 0.0
C466 C 0.80339 0.24391 0.37075 0.0
C467 C 0.82222 0.26266 0.37271 0.0
H468 H 0.56881 0.7385 0.66863 0.0
H469 H 0.53795 0.72472 0.46968 0.0
H470 H 0.56902 0.77154 0.67239 0.0
H471 H 0.53823 0.75772 0.47294 0.0
H472 H 0.51963 0.80503 0.55125 0.0
H473 H 0.52076 0.77279 0.54545 0.0
H474 H 0.58516 0.80589 0.608 0.0
H475 H 0.58408 0.83826 0.61231 0.0
C476 C 0.56218 0.74265 0.62564 0.0
C477 C 0.55343 0.72921 0.56879 0.0
C478 C 0.5624 0.76155 0.62754 0.0
C479 C 0.55362 0.76719 0.57298 0.0
C480 C 0.54496 0.75371 0.51596 0.0
C481 C 0.54495 0.73494 0.51377 0.0
C482 C 0.53407 0.80541 0.56301 0.0
C483 C 0.5518 0.82408 0.58189 0.0
C484 C 0.53472 0.78699 0.55973 0.0
C485 C 0.55307 0.78684 0.57609 0.0
C486 C 0.57077 0.80552 0.59566 0.0
C487 C 0.57016 0.824 0.59815 0.0
H488 H 0.72703 0.53459 0.83895 0.0
H489 H 0.73945 0.56493 0.63928 0.0
H490 H 0.7599 0.53472 0.83269 0.0
H491 H 0.77221 0.56464 0.63179 0.0
H492 H 0.83932 0.57917 0.68308 0.0
H493 H 0.80685 0.58013 0.68633 0.0
H494 H 0.77474 0.51737 0.76536 0.0
H495 H 0.80715 0.51654 0.76192 0.0
C496 C 0.73691 0.54141 0.79392 0.0
C497 C 0.73081 0.54981 0.73968 0.0
C498 C 0.75561 0.54128 0.7899 0.0
C499 C 0.76863 0.54958 0.73152 0.0
C500 C 0.76262 0.55826 0.67766 0.0
C501 C 0.74385 0.55832 0.68166 0.0
C502 C 0.82524 0.56559 0.70067 0.0
C503 C 0.82572 0.54791 0.72326 0.0
C504 C 0.80667 0.5661 0.70244 0.0
C505 C 0.78825 0.5489 0.72685 0.0
C506 C 0.78873 0.53104 0.74773 0.0
C507 C 0.80725 0.53053 0.7457 0.0
H508 H 0.29308 0.80523 0.94571 0.0
H509 H 0.2614 0.83897 0.89862 0.0
H510 H 0.25974 0.77299 0.95336 0.0
H511 H 0.22789 0.80668 0.9058 0.0
H512 H 0.1751 0.7404 0.84799 0.0
H513 H 0.20794 0.77336 0.8424 0.0
H514 H 0.22872 0.75676 0.02881 0.0
H515 H 0.19601 0.7237 0.0333 0.0
C516 C 0.27891 0.80569 0.93739 0.0
C517 C 0.2797 0.8245 0.92192 0.0
C518 C 0.25984 0.78729 0.94191 0.0
C519 C 0.24117 0.7873 0.93054 0.0
C520 C 0.24202 0.80615 0.91428 0.0
C521 C 0.26113 0.82459 0.9102 0.0
C522 C 0.1867 0.74396 0.88789 0.0
C523 C 0.18307 0.72973 0.94142 0.0
C524 C 0.20541 0.76281 0.88495 0.0
C525 C 0.22093 0.76766 0.93518 0.0
C526 C 0.21715 0.75339 0.98903 0.0
C527 C 0.19839 0.7346 0.9921 0.0
H528 H 0.49869 0.11318 0.72133 0.0
H529 H 0.45434 0.13376 0.75312 0.0
H530 H 0.48707 0.10428 0.60142 0.0
H531 H 0.44215 0.12415 0.63355 0.0
H532 H 0.44961 0.07148 0.41386 0.0
H533 H 0.45634 0.07845 0.53766 0.0
H534 H 0.45493 0.13543 0.51366 0.0
H535 H 0.44788 0.12834 0.3897 0.0
C536 C 0.48637 0.11571 0.70275 0.0
C537 C 0.47714 0.12377 0.74705 0.0
C538 C 0.47954 0.11038 0.63431 0.0
C539 C 0.46343 0.11318 0.60836 0.0
C540 C 0.4545 0.12171 0.6522 0.0
C541 C 0.46129 0.12695 0.72096 0.0
C542 C 0.45039 0.08533 0.43507 0.0
C543 C 0.44845 0.09947 0.39176 0.0
C544 C 0.45439 0.08939 0.50595 0.0
C545 C 0.45653 0.10767 0.53515 0.0
C546 C 0.45333 0.1212 0.49271 0.0
C547 C 0.44933 0.11714 0.42166 0.0
H548 H 0.34013 0.47102 0.52693 0.0
H549 H 0.33579 0.41227 0.57553 0.0
H550 H 0.34128 0.47872 0.64895 0.0
H551 H 0.33564 0.41946 0.69952 0.0
H552 H 0.36615 0.45299 0.90489 0.0
H553 H 0.35881 0.44038 0.78554 0.0
H554 H 0.32486 0.47298 0.75437 0.0
H555 H 0.33353 0.48659 0.87248 0.0
C556 C 0.33892 0.45946 0.56382 0.0
C557 C 0.33811 0.4411 0.54134 0.0
C558 C 0.33938 0.46383 0.63435 0.0
C559 C 0.33861 0.44978 0.68474 0.0
C560 C 0.3367 0.43087 0.6623 0.0
C561 C 0.3366 0.42663 0.59125 0.0
C562 C 0.35699 0.45727 0.87233 0.0
C563 C 0.35049 0.47082 0.89715 0.0
C564 C 0.35261 0.44992 0.80407 0.0
C565 C 0.3413 0.4557 0.75966 0.0
C566 C 0.33406 0.46859 0.78615 0.0
C567 C 0.3389 0.47634 0.85385 0.0
H568 H 0.93755 0.37779 0.74948 0.0
H569 H 0.88001 0.31979 0.72543 0.0
H570 H 0.93065 0.37767 0.87333 0.0
H571 H 0.87299 0.31988 0.84943 0.0
H572 H 0.89634 0.38601 0.05718 0.0
H573 H 0.90519 0.38312 0.93729 0.0
H574 H 0.8841 0.31811 0.96932 0.0
H575 H 0.87459 0.32089 0.08889 0.0
C576 C 0.92356 0.36487 0.77073 0.0
C577 C 0.90922 0.34893 0.72742 0.0
C578 C 0.91954 0.36488 0.84164 0.0
C579 C 0.9011 0.34896 0.8709 0.0
C580 C 0.88735 0.33235 0.82846 0.0
C581 C 0.89137 0.33233 0.75737 0.0
C582 C 0.89355 0.37109 0.03858 0.0
C583 C 0.88516 0.35378 0.08285 0.0
C584 C 0.89884 0.36948 0.97016 0.0
C585 C 0.89567 0.35046 0.94416 0.0
C586 C 0.88684 0.333 0.98799 0.0
C587 C 0.88164 0.33465 0.05675 0.0
H588 H 0.58947 0.93257 0.92396 0.0
H589 H 0.54151 0.87 0.87572 0.0
H590 H 0.58214 0.92525 0.04772 0.0
H591 H 0.53313 0.86313 0.99749 0.0
H592 H 0.52669 0.85027 0.22494 0.0
H593 H 0.54049 0.85695 0.10678 0.0
H594 H 0.5578 0.92154 0.12907 0.0
H595 H 0.54543 0.91485 0.24877 0.0
C596 C 0.57745 0.91724 0.93987 0.0
C597 C 0.56606 0.90192 0.89015 0.0
C598 C 0.57304 0.91307 0.01075 0.0
C599 C 0.55681 0.89364 0.03319 0.0
C600 C 0.54598 0.87815 0.98309 0.0
C601 C 0.55071 0.88216 0.9127 0.0
C602 C 0.53355 0.86585 0.2041 0.0
C603 C 0.53497 0.88205 0.24504 0.0
C604 C 0.54139 0.86974 0.13637 0.0
C605 C 0.55022 0.88982 0.10754 0.0
C606 C 0.55158 0.90599 0.14937 0.0
C607 C 0.54426 0.90217 0.2177 0.0
H608 H 0.67036 0.59301 0.08426 0.0
H609 H 0.67324 0.53776 0.03674 0.0
H610 H 0.67042 0.58597 0.20833 0.0
H611 H 0.67187 0.52998 0.15881 0.0
H612 H 0.67843 0.52249 0.38389 0.0
H613 H 0.68693 0.5363 0.26595 0.0
H614 H 0.64814 0.56397 0.29287 0.0
H615 H 0.64113 0.55138 0.41232 0.0
C616 C 0.67111 0.57945 0.1003 0.0
C617 C 0.67168 0.56592 0.05067 0.0
C618 C 0.67094 0.57527 0.1714 0.0
C619 C 0.67093 0.55724 0.19418 0.0
C620 C 0.67226 0.5442 0.14409 0.0
C621 C 0.67287 0.5486 0.07349 0.0
C622 C 0.67194 0.53169 0.36427 0.0
C623 C 0.65911 0.53586 0.40637 0.0
C624 C 0.67667 0.53954 0.29664 0.0
C625 C 0.66806 0.55113 0.269 0.0
C626 C 0.65541 0.55549 0.31222 0.0
C627 C 0.65118 0.54811 0.38048 0.0
H628 H 0.12431 0.70646 0.25235 0.0
H629 H 0.09034 0.63982 0.23312 0.0
H630 H 0.13116 0.70319 0.37493 0.0
H631 H 0.09585 0.63632 0.35573 0.0
H632 H 0.12958 0.63454 0.54475 0.0
H633 H 0.12281 0.64 0.42584 0.0
H634 H 0.11937 0.69391 0.4895 0.0
H635 H 0.12821 0.68962 0.60707 0.0
C636 C 0.11781 0.69114 0.27512 0.0
C637 C 0.10691 0.67339 0.23375 0.0
C638 C 0.1217 0.68921 0.34526 0.0
C639 C 0.11442 0.66946 0.37526 0.0
C640 C 0.10236 0.65178 0.33419 0.0
C641 C 0.09893 0.65374 0.26411 0.0
C642 C 0.12755 0.64768 0.53357 0.0
C643 C 0.12868 0.66114 0.5868 0.0
C644 C 0.12333 0.65065 0.46519 0.0
C645 C 0.11988 0.66706 0.44796 0.0
C646 C 0.12175 0.68099 0.50064 0.0
C647 C 0.12635 0.67821 0.56899 0.0
H648 H 0.91704 0.55544 0.06928 0.0
H649 H 0.85117 0.5242 0.1106 0.0
H650 H 0.92407 0.56872 0.18852 0.0
H651 H 0.85824 0.5378 0.22996 0.0
H652 H 0.88304 0.58405 0.41925 0.0
H653 H 0.87786 0.5762 0.29405 0.0
H654 H 0.91491 0.54652 0.30746 0.0
H655 H 0.91954 0.55376 0.43213 0.0
C656 C 0.90408 0.55176 0.10354 0.0
C657 C 0.88356 0.53896 0.08087 0.0
C658 C 0.90811 0.55928 0.17163 0.0
C659 C 0.89168 0.55441 0.21786 0.0
C660 C 0.87114 0.54197 0.19481 0.0
C661 C 0.86711 0.53409 0.12701 0.0
C662 C 0.89035 0.57621 0.39492 0.0
C663 C 0.90172 0.56954 0.43491 0.0
C664 C 0.88727 0.5716 0.32375 0.0
C665 C 0.89601 0.56078 0.29156 0.0
C666 C 0.90814 0.55499 0.3311 0.0
C667 C 0.91076 0.5591 0.40225 0.0
H668 H 0.34062 0.92875 0.57812 0.0
H669 H 0.33678 0.87022 0.62632 0.0
H670 H 0.34076 0.92164 0.45415 0.0
H671 H 0.33831 0.86377 0.50435 0.0
H672 H 0.3318 0.8499 0.2788 0.0
H673 H 0.32333 0.85534 0.39663 0.0
H674 H 0.36342 0.92161 0.37101 0.0
H675 H 0.37053 0.91597 0.25178 0.0
C676 C 0.33969 0.91435 0.56227 0.0
C677 C 0.33884 0.90015 0.61208 0.0
C678 C 0.33998 0.91033 0.49124 0.0
C679 C 0.3398 0.89221 0.46872 0.0
C680 C 0.33811 0.87772 0.51893 0.0
C681 C 0.33741 0.88153 0.58945 0.0
C682 C 0.33862 0.86558 0.29869 0.0
C683 C 0.35183 0.88252 0.25694 0.0
C684 C 0.33388 0.86876 0.36622 0.0
C685 C 0.34281 0.88895 0.39411 0.0
C686 C 0.35588 0.90589 0.35137 0.0
C687 C 0.36017 0.90269 0.28325 0.0
H688 H 0.48504 0.32919 0.44289 0.0
H689 H 0.45712 0.36746 0.4168 0.0
H690 H 0.47108 0.32046 0.56064 0.0
H691 H 0.44424 0.36002 0.53591 0.0
H692 H 0.41463 0.33693 0.74339 0.0
H693 H 0.42162 0.3369 0.61919 0.0
H694 H 0.47796 0.33597 0.66798 0.0
H695 H 0.47035 0.33469 0.79013 0.0
C696 C 0.47602 0.33583 0.46293 0.0
C697 C 0.47217 0.34901 0.42152 0.0
C698 C 0.46805 0.33093 0.53036 0.0
C699 C 0.45663 0.33966 0.55845 0.0
C700 C 0.45259 0.35266 0.51602 0.0
C701 C 0.46013 0.35712 0.448 0.0
C702 C 0.42826 0.33629 0.72722 0.0
C703 C 0.44201 0.33601 0.77666 0.0
C704 C 0.4324 0.33647 0.65607 0.0
C705 C 0.45051 0.33667 0.63314 0.0
C706 C 0.4637 0.33549 0.68298 0.0
C707 C 0.4594 0.33495 0.75358 0.0
H708 H 0.15872 0.48083 0.60557 0.0
H709 H 0.09282 0.44924 0.56489 0.0
H710 H 0.1518 0.46718 0.72488 0.0
H711 H 0.08593 0.4359 0.6841 0.0
H712 H 0.0904 0.45054 0.92779 0.0
H713 H 0.09489 0.45784 0.80313 0.0
H714 H 0.13257 0.42886 0.78892 0.0
H715 H 0.12754 0.42094 0.91412 0.0
C716 C 0.1428 0.47086 0.62212 0.0
C717 C 0.12631 0.46591 0.57615 0.0
C718 C 0.13886 0.46294 0.68989 0.0
C719 C 0.11835 0.45038 0.71312 0.0
C720 C 0.10187 0.44543 0.66708 0.0
C721 C 0.10582 0.45299 0.599 0.0
C722 C 0.09929 0.44536 0.89774 0.0
C723 C 0.10855 0.4351 0.93018 0.0
C724 C 0.10183 0.44951 0.82659 0.0
C725 C 0.11411 0.44395 0.78682 0.0
C726 C 0.12305 0.4333 0.8188 0.0
C727 C 0.12006 0.42865 0.88997 0.0
H728 H 0.61999 0.10704 0.78382 0.0
H729 H 0.68618 0.13528 0.75415 0.0
H730 H 0.62369 0.09839 0.90342 0.0
H731 H 0.68992 0.12614 0.87347 0.0
H732 H 0.63278 0.06896 0.09208 0.0
H733 H 0.63267 0.07522 0.96773 0.0
H734 H 0.6861 0.13636 0.99299 0.0
H735 H 0.68645 0.13004 0.11734 0.0
C736 C 0.63531 0.11126 0.80291 0.0
C737 C 0.65274 0.12146 0.75959 0.0
C738 C 0.63742 0.10612 0.87104 0.0
C739 C 0.65707 0.1113 0.89751 0.0
C740 C 0.67458 0.12184 0.85437 0.0
C741 C 0.67242 0.12685 0.78591 0.0
C742 C 0.64474 0.08361 0.07101 0.0
C743 C 0.65944 0.09911 0.11477 0.0
C744 C 0.64458 0.08723 -0.00016 0.0
C745 C 0.65914 0.10641 0.97086 0.0
C746 C 0.6747 0.12141 0.01378 0.0
C747 C 0.67486 0.11779 0.08508 0.0
H748 H 0.56278 0.68558 0.27077 0.0
H749 H 0.56073 0.62683 0.24739 0.0
H750 H 0.55553 0.68546 0.14686 0.0
H751 H 0.55382 0.6269 0.12369 0.0
H752 H 0.55607 0.68409 0.90725 0.0
H753 H 0.56819 0.68676 0.02695 0.0
H754 H 0.52316 0.62208 0.05972 0.0
H755 H 0.5116 0.61928 0.93967 0.0
C756 C 0.56122 0.67286 0.23899 0.0
C757 C 0.56209 0.65609 0.26911 0.0
C758 C 0.55709 0.67281 0.16796 0.0
C759 C 0.55376 0.656 0.12577 0.0
C760 C 0.55586 0.63986 0.15519 0.0
C761 C 0.55998 0.6399 0.22602 0.0
C762 C 0.54907 0.67036 0.93957 0.0
C763 C 0.53322 0.65134 0.91358 0.0
C764 C 0.55582 0.67196 0.00843 0.0
C765 C 0.54684 0.65456 0.05251 0.0
C766 C 0.53072 0.63567 0.02667 0.0
C767 C 0.52393 0.63411 0.95813 0.0
H768 H 0.53838 0.13322 0.08689 0.0
H769 H 0.50583 0.11006 0.28176 0.0
H770 H 0.56925 0.13491 0.13782 0.0
H771 H 0.53635 0.11117 0.33174 0.0
H772 H 0.61056 0.11069 0.22457 0.0
H773 H 0.58125 0.11206 0.17502 0.0
H774 H 0.57102 0.13367 0.37162 0.0
H775 H 0.60012 0.13171 0.42208 0.0
C776 C 0.53778 0.12846 0.14048 0.0
C777 C 0.51958 0.12146 0.18005 0.0
C778 C 0.55545 0.12932 0.16964 0.0
C779 C 0.55532 0.12313 0.23895 0.0
C780 C 0.53718 0.11637 0.27863 0.0
C781 C 0.51958 0.1156 0.24966 0.0
C782 C 0.60213 0.1158 0.25738 0.0
C783 C 0.60769 0.12101 0.32754 0.0
C784 C 0.58537 0.11674 0.22867 0.0
C785 C 0.57373 0.123 0.26915 0.0
C786 C 0.57945 0.12849 0.33912 0.0
C787 C 0.5962 0.12747 0.36802 0.0
H788 H 0.39985 0.50695 0.42708 0.0
H789 H 0.41134 0.53911 0.23054 0.0
H790 H 0.42904 0.53726 0.47833 0.0
H791 H 0.44037 0.56986 0.28283 0.0
H792 H 0.50534 0.61037 0.37684 0.0
H793 H 0.47483 0.58155 0.32456 0.0
H794 H 0.44109 0.57192 0.51689 0.0
H795 H 0.47194 0.60049 0.57014 0.0
C796 C 0.40848 0.52057 0.39481 0.0
C797 C 0.40325 0.52051 0.32442 0.0
C798 C 0.42518 0.53807 0.42455 0.0
C799 C 0.43709 0.55608 0.38492 0.0
C800 C 0.43171 0.55616 0.31471 0.0
C801 C 0.415 0.53856 0.28475 0.0
C802 C 0.49141 0.60218 0.40812 0.0
C803 C 0.49116 0.60771 0.47797 0.0
C804 C 0.47382 0.5857 0.3778 0.0
C805 C 0.45545 0.57435 0.41636 0.0
C806 C 0.45507 0.58011 0.4859 0.0
C807 C 0.47273 0.59656 0.51641 0.0
H808 H 0.87498 0.40486 0.42373 0.0
H809 H 0.89773 0.39531 0.61915 0.0
H810 H 0.87304 0.43383 0.47464 0.0
H811 H 0.89634 0.42458 0.66926 0.0
H812 H 0.87605 0.46892 0.75602 0.0
H813 H 0.87391 0.43744 0.70804 0.0
H814 H 0.89677 0.46851 0.51085 0.0
H815 H 0.89839 0.49945 0.55761 0.0
C816 C 0.87959 0.40893 0.47747 0.0
C817 C 0.88663 0.39781 0.51709 0.0
C818 C 0.87856 0.42561 0.50665 0.0
C819 C 0.88465 0.43165 0.57603 0.0
C820 C 0.89128 0.42024 0.61602 0.0
C821 C 0.89223 0.40352 0.58697 0.0
C822 C 0.88052 0.46895 0.70238 0.0
C823 C 0.88737 0.48675 0.66083 0.0
C824 C 0.87938 0.45095 0.67492 0.0
C825 C 0.88508 0.45039 0.60539 0.0
C826 C 0.89186 0.46819 0.56409 0.0
C827 C 0.89294 0.48606 0.59131 0.0
H828 H 0.39841 0.89379 0.72485 0.0
H829 H 0.40881 0.87222 0.92132 0.0
H830 H 0.4274 0.89209 0.67415 0.0
H831 H 0.43758 0.86989 0.86962 0.0
H832 H 0.50274 0.89382 0.77887 0.0
H833 H 0.47218 0.89233 0.82978 0.0
H834 H 0.43934 0.86941 0.63541 0.0
H835 H 0.47032 0.87153 0.58348 0.0
C836 C 0.40675 0.88846 0.75718 0.0
C837 C 0.40131 0.88324 0.82743 0.0
C838 C 0.42332 0.88733 0.72777 0.0
C839 C 0.43487 0.88083 0.76762 0.0
C840 C 0.42922 0.87525 0.83761 0.0
C841 C 0.41266 0.87649 0.86723 0.0
C842 C 0.48901 0.88837 0.74684 0.0
C843 C 0.48906 0.8829 0.67681 0.0
C844 C 0.47137 0.88737 0.77637 0.0
C845 C 0.45323 0.88075 0.73687 0.0
C846 C 0.45314 0.87488 0.66714 0.0
C847 C 0.47087 0.876 0.63739 0.0
H848 H 0.51849 0.38457 0.89429 0.0
H849 H 0.532 0.41839 0.08751 0.0
H850 H 0.54928 0.41307 0.84183 0.0
H851 H 0.56221 0.44761 0.03406 0.0
H852 H 0.62396 0.49204 0.93795 0.0
H853 H 0.59562 0.46133 0.9916 0.0
H854 H 0.56197 0.44596 0.79689 0.0
H855 H 0.59098 0.47605 0.74255 0.0
C856 C 0.52805 0.39821 0.92548 0.0
C857 C 0.52282 0.39929 0.99497 0.0
C858 C 0.54565 0.41468 0.89518 0.0
C859 C 0.55827 0.43291 0.93309 0.0
C860 C 0.55316 0.43379 0.00322 0.0
C861 C 0.53576 0.41707 0.034 0.0
C862 C 0.61055 0.48196 0.90653 0.0
C863 C 0.60968 0.48645 0.83601 0.0
C864 C 0.59417 0.4644 0.93748 0.0
C865 C 0.57628 0.45107 0.89909 0.0
C866 C 0.57557 0.45553 0.82815 0.0
C867 C 0.59217 0.47289 0.79684 0.0
H868 H 0.13423 0.53584 0.24984 0.0
H869 H 0.11247 0.50545 0.05103 0.0
H870 H 0.1365 0.56732 0.20161 0.0
H871 H 0.11421 0.53646 0.00393 0.0
H872 H 0.13529 0.60054 0.91869 0.0
H873 H 0.13743 0.57142 0.96799 0.0
H874 H 0.11376 0.57962 0.16352 0.0
H875 H 0.11216 0.6089 0.11524 0.0
C876 C 0.12992 0.53584 0.19604 0.0
C877 C 0.12313 0.51807 0.15454 0.0
C878 C 0.13114 0.55385 0.16841 0.0
C879 C 0.12557 0.55446 0.09874 0.0
C880 C 0.11899 0.53673 0.05731 0.0
C881 C 0.11782 0.51883 0.08473 0.0
C882 C 0.13064 0.59618 0.97227 0.0
C883 C 0.12347 0.60704 0.01274 0.0
C884 C 0.13179 0.57943 0.00052 0.0
C885 C 0.12572 0.57312 0.06981 0.0
C886 C 0.11886 0.5842 0.11042 0.0
C887 C 0.11778 0.60093 0.08234 0.0
H888 H 0.41082 0.04558 0.14795 0.0
H889 H 0.43688 0.06195 0.94108 0.0
H890 H 0.39017 0.00938 0.11218 0.0
H891 H 0.41656 0.02577 0.90597 0.0
H892 H 0.36655 0.95985 0.85055 0.0
H893 H 0.38164 0.99629 0.88424 0.0
H894 H 0.39851 0.9825 0.08393 0.0
H895 H 0.3835 0.94642 0.05091 0.0
C896 C 0.41204 0.04152 0.09475 0.0
C897 C 0.42569 0.05667 0.04768 0.0
C898 C 0.40027 0.02075 0.07433 0.0
C899 C 0.40184 0.01465 0.00635 0.0
C900 C 0.41484 0.02994 0.95851 0.0
C901 C 0.42663 0.05069 0.97892 0.0
C902 C 0.37331 0.96458 0.90185 0.0
C903 C 0.37372 0.95013 0.948 0.0
C904 C 0.38202 0.98547 0.92105 0.0
C905 C 0.39122 0.9923 0.98691 0.0
C906 C 0.39124 0.97775 0.03333 0.0
C907 C 0.38267 0.95699 0.01412 0.0
H908 H 0.43945 0.38068 0.2157 0.0
H909 H 0.41205 0.36647 0.01051 0.0
H910 H 0.41841 0.39594 0.24676 0.0
H911 H 0.39075 0.38181 0.04217 0.0
H912 H 0.38194 0.4379 0.0983 0.0
H913 H 0.39729 0.41697 0.06579 0.0
H914 H 0.38303 0.38861 0.26934 0.0
H915 H 0.36777 0.40979 0.30249 0.0
C916 C 0.4287 0.38049 0.17741 0.0
C917 C 0.42749 0.3723 0.11048 0.0
C918 C 0.41652 0.38919 0.19549 0.0
C919 C 0.40285 0.39007 0.14707 0.0
C920 C 0.40127 0.38151 0.08051 0.0
C921 C 0.41342 0.37267 0.06244 0.0
C922 C 0.3818 0.42703 0.13604 0.0
C923 C 0.37369 0.42565 0.20328 0.0
C924 C 0.39052 0.41492 0.11711 0.0
C925 C 0.39145 0.40115 0.16496 0.0
C926 C 0.38277 0.39926 0.2315 0.0
C927 C 0.37394 0.41134 0.25042 0.0
H928 H 0.06237 0.43679 0.37634 0.0
H929 H 0.04725 0.40568 0.17721 0.0
H930 H 0.02656 0.4158 0.41291 0.0
H931 H 0.0111 0.38441 0.21448 0.0
H932 H 0.94607 0.37457 0.27549 0.0
H933 H 0.98203 0.39007 0.2381 0.0
H934 H 0.9995 0.38099 0.44376 0.0
H935 H 0.96347 0.36581 0.48188 0.0
C936 C 0.0515 0.42522 0.34063 0.0
C937 C 0.0578 0.42294 0.27373 0.0
C938 C 0.03089 0.41308 0.36188 0.0
C939 C 0.01593 0.39837 0.31679 0.0
C940 C 0.02223 0.39575 0.25029 0.0
C941 C 0.04295 0.40788 0.22901 0.0
C942 C 0.95752 0.37572 0.31278 0.0
C943 C 0.95189 0.36916 0.38204 0.0
C944 C 0.97815 0.38446 0.29104 0.0
C945 C 0.99369 0.38689 0.33797 0.0
C946 C 0.98794 0.3796 0.40654 0.0
C947 C 0.96727 0.37081 0.42832 0.0
H948 H 0.56849 0.94627 0.45156 0.0
H949 H 0.60114 0.95899 0.64747 0.0
H950 H 0.58964 0.98238 0.41852 0.0
H951 H 0.6225 0.99543 0.61386 0.0
H952 H 0.6328 0.06132 0.56333 0.0
H953 H 0.617 0.02503 0.59671 0.0
H954 H 0.62482 0.00921 0.38707 0.0
H955 H 0.64037 0.04559 0.35309 0.0
C956 C 0.58042 0.95667 0.48726 0.0
C957 C 0.58312 0.94961 0.55218 0.0
C958 C 0.59263 0.97744 0.46806 0.0
C959 C 0.60784 0.9918 0.51336 0.0
C960 C 0.61081 0.98476 0.57796 0.0
C961 C 0.59861 0.96388 0.59712 0.0
C962 C 0.63135 0.05017 0.52435 0.0
C963 C 0.63767 0.05638 0.45525 0.0
C964 C 0.62242 0.02935 0.54374 0.0
C965 C 0.61953 0.01419 0.4945 0.0
C966 C 0.62658 0.02049 0.42603 0.0
C967 C 0.63559 0.04135 0.40664 0.0
H968 H 0.60034 0.64018 0.5144 0.0
H969 H 0.57261 0.62881 0.719 0.0
H970 H 0.62099 0.62466 0.55085 0.0
H971 H 0.59288 0.61295 0.7547 0.0
H972 H 0.62832 0.56865 0.60998 0.0
H973 H 0.61322 0.58964 0.57668 0.0
H974 H 0.6275 0.61839 0.77958 0.0
H975 H 0.64256 0.59703 0.81366 0.0
C976 C 0.59874 0.63451 0.56723 0.0
C977 C 0.58464 0.63556 0.61345 0.0
C978 C 0.6105 0.62552 0.58805 0.0
C979 C 0.60847 0.6174 0.65556 0.0
C980 C 0.59499 0.6192 0.70256 0.0
C981 C 0.58322 0.62816 0.68179 0.0
C982 C 0.62851 0.57958 0.64751 0.0
C983 C 0.63668 0.58109 0.71466 0.0
C984 C 0.61992 0.59175 0.62812 0.0
C985 C 0.61918 0.60576 0.67531 0.0
C986 C 0.62768 0.60761 0.74215 0.0
C987 C 0.63638 0.59543 0.76159 0.0
H988 H 0.04621 0.6392 0.98775 0.0
H989 H 0.06401 0.63107 0.78117 0.0
H990 H 0.01019 0.62379 0.94939 0.0
H991 H 0.02806 0.61533 0.74354 0.0
H992 H 0.94757 0.56794 0.88123 0.0
H993 H 0.98335 0.58901 0.91801 0.0
H994 H 0.99882 0.62065 0.71994 0.0
H995 H 0.96272 0.59929 0.68245 0.0
C996 C 0.0425 0.63428 0.93411 0.0
C997 C 0.058 0.63618 0.88784 0.0
C998 C 0.02183 0.62535 0.91219 0.0
C999 C 0.0162 0.61817 0.84348 0.0
C1000 C 0.03185 0.62085 0.79658 0.0
C1001 C 0.05247 0.62973 0.81846 0.0
C1002 C 0.95844 0.57958 0.84564 0.0
C1003 C 0.95216 0.58191 0.77879 0.0
C1004 C 0.97902 0.59176 0.86701 0.0
C1005 C 0.99398 0.60658 0.8221 0.0
C1006 C 0.9877 0.60924 0.75562 0.0
C1007 C 0.967 0.59705 0.73421 0.0
loop_
_geom_bond_atom_site_label_1
_geom_bond_atom_site_label_2
_geom_bond_distance
_geom_bond_site_symmetry_2
_ccdc_geom_bond_type
Co0 O3 1.970 . S
Co0 N17 1.989 . S
Co0 O25 1.967 . S
Co0 O32 1.920 . S
Co1 O4 1.966 . S
Co1 N10 2.022 1_554 S
Co1 N18 1.993 . S
Co1 O26 1.941 . S
C2 O3 1.258 . S
C2 O4 1.263 . S
O3 Co0 1.970 . S
O3 C2 1.258 . S
O4 Co1 1.966 . S
O4 C2 1.263 . S
C5 O6 1.235 . S
C5 O32 1.289 . S
O6 C5 1.235 . S
C7 C9 1.400 . S
C7 N10 1.351 . S
C7 C12 1.501 . S
C8 C9 1.387 . S
C8 N11 1.341 . S
C9 C7 1.400 . S
C9 C8 1.387 . S
N10 Co1 2.022 1_556 S
N10 C7 1.351 . S
N10 N11 1.365 . S
N11 C8 1.341 . S
N11 N10 1.365 . S
N11 H31 0.862 . S
C12 C7 1.501 . S
C12 H13 0.961 . S
C12 H14 0.961 . S
C12 H15 0.960 . S
H13 C12 0.961 . S
H14 C12 0.961 . S
H15 C12 0.960 . S
C16 N17 1.342 . S
C16 C20 1.401 . S
C16 C21 1.499 . S
N17 Co0 1.989 . S
N17 C16 1.342 . S
N17 N18 1.388 . S
N18 Co1 1.993 . S
N18 N17 1.388 . S
N18 C19 1.346 . S
C19 N18 1.346 . S
C19 C20 1.396 . S
C19 C29 1.510 1_554 S
C20 C16 1.401 . S
C20 C19 1.396 . S
C21 C16 1.499 . S
C21 H22 0.959 . S
C21 H23 0.960 . S
C21 H24 0.961 . S
H22 C21 0.959 . S
H23 C21 0.960 . S
H24 C21 0.961 . S
O25 Co0 1.967 . S
O25 C33 1.258 . S
O26 Co1 1.941 . S
O26 C33 1.266 . S
H27 C29 0.959 . S
H28 C29 0.961 . S
C29 C19 1.510 1_556 S
C29 H27 0.959 . S
C29 H28 0.961 . S
C29 H30 0.960 . S
H30 C29 0.960 . S
H31 N11 0.862 . S
O32 Co0 1.920 . S
O32 C5 1.289 . S
C33 O25 1.258 . S
C33 O26 1.266 . S
Co34 O37 1.970 . S
Co34 N51 1.989 . S
Co34 O59 1.967 . S
Co34 O66 1.920 . S
Co35 O38 1.966 . S
Co35 N44 2.022 . S
Co35 N52 1.993 . S
Co35 O60 1.941 . S
C36 O37 1.258 . S
C36 O38 1.263 . S
O37 Co34 1.970 . S
O37 C36 1.258 . S
O38 Co35 1.966 . S
O38 C36 1.263 . S
C39 O40 1.235 . S
C39 O66 1.289 . S
O40 C39 1.235 . S
C41 C43 1.400 1_554 S
C41 N44 1.351 . S
C41 C46 1.501 . S
C42 C43 1.387 . S
C42 N45 1.341 1_556 S
C43 C41 1.400 1_556 S
C43 C42 1.387 . S
N44 Co35 2.022 . S
N44 C41 1.351 . S
N44 N45 1.365 . S
N45 C42 1.341 1_554 S
N45 N44 1.365 . S
N45 H65 0.862 . S
C46 C41 1.501 . S
C46 H47 0.961 . S
C46 H48 0.961 . S
C46 H49 0.960 . S
H47 C46 0.961 . S
H48 C46 0.961 . S
H49 C46 0.960 . S
C50 N51 1.342 . S
C50 C54 1.401 . S
C50 C55 1.499 . S
N51 Co34 1.989 . S
N51 C50 1.342 . S
N51 N52 1.388 . S
N52 Co35 1.993 . S
N52 N51 1.388 . S
N52 C53 1.346 . S
C53 N52 1.346 . S
C53 C54 1.396 . S
C53 C63 1.510 . S
C54 C50 1.401 . S
C54 C53 1.396 . S
C55 C50 1.499 . S
C55 H56 0.959 . S
C55 H57 0.960 . S
C55 H58 0.961 . S
H56 C55 0.959 . S
H57 C55 0.960 . S
H58 C55 0.961 . S
O59 Co34 1.967 . S
O59 C67 1.258 . S
O60 Co35 1.941 . S
O60 C67 1.266 . S
H61 C63 0.959 . S
H62 C63 0.961 . S
C63 C53 1.510 . S
C63 H61 0.959 . S
C63 H62 0.961 . S
C63 H64 0.960 . S
H64 C63 0.960 . S
H65 N45 0.862 . S
O66 Co34 1.920 . S
O66 C39 1.289 . S
C67 O59 1.258 . S
C67 O60 1.266 . S
Co68 O71 1.970 . S
Co68 N85 1.989 . S
Co68 O93 1.967 . S
Co68 O100 1.920 . S
Co69 O72 1.966 . S
Co69 N78 2.022 . S
Co69 N86 1.993 . S
Co69 O94 1.941 . S
C70 O71 1.258 . S
C70 O72 1.263 . S
O71 Co68 1.970 . S
O71 C70 1.258 . S
O72 Co69 1.966 . S
O72 C70 1.263 . S
C73 O74 1.235 . S
C73 O100 1.289 . S
O74 C73 1.235 . S
C75 C77 1.400 . S
C75 N78 1.351 . S
C75 C80 1.501 . S
C76 C77 1.387 . S
C76 N79 1.341 . S
C77 C75 1.400 . S
C77 C76 1.387 . S
N78 Co69 2.022 . S
N78 C75 1.351 . S
N78 N79 1.365 . S
N79 C76 1.341 . S
N79 N78 1.365 . S
N79 H99 0.862 . S
C80 C75 1.501 . S
C80 H81 0.961 . S
C80 H82 0.961 . S
C80 H83 0.960 . S
H81 C80 0.961 . S
H82 C80 0.961 . S
H83 C80 0.960 . S
C84 N85 1.342 . S
C84 C88 1.401 . S
C84 C89 1.499 . S
N85 Co68 1.989 . S
N85 C84 1.342 . S
N85 N86 1.388 . S
N86 Co69 1.993 . S
N86 N85 1.388 . S
N86 C87 1.346 . S
C87 N86 1.346 . S
C87 C88 1.396 . S
C87 C97 1.510 . S
C88 C84 1.401 . S
C88 C87 1.396 . S
C89 C84 1.499 . S
C89 H90 0.959 . S
C89 H91 0.960 . S
C89 H92 0.961 . S
H90 C89 0.959 . S
H91 C89 0.960 . S
H92 C89 0.961 . S
O93 Co68 1.967 . S
O93 C101 1.258 . S
O94 Co69 1.941 . S
O94 C101 1.266 . S
H95 C97 0.959 . S
H96 C97 0.961 . S
C97 C87 1.510 . S
C97 H95 0.959 . S
C97 H96 0.961 . S
C97 H98 0.960 . S
H98 C97 0.960 . S
H99 N79 0.862 . S
O100 Co68 1.920 . S
O100 C73 1.289 . S
C101 O93 1.258 . S
C101 O94 1.266 . S
Co102 O105 1.970 . S
Co102 N119 1.989 . S
Co102 O127 1.967 . S
Co102 O134 1.920 . S
Co103 O106 1.966 . S
Co103 N112 2.022 . S
Co103 N120 1.993 . S
Co103 O128 1.941 . S
C104 O105 1.258 . S
C104 O106 1.263 . S
O105 Co102 1.970 . S
O105 C104 1.258 . S
O106 Co103 1.966 . S
O106 C104 1.263 . S
C107 O108 1.235 . S
C107 O134 1.289 . S
O108 C107 1.235 . S
C109 C111 1.400 . S
C109 N112 1.351 . S
C109 C114 1.501 . S
C110 C111 1.387 . S
C110 N113 1.341 . S
C111 C109 1.400 . S
C111 C110 1.387 . S
N112 Co103 2.022 . S
N112 C109 1.351 . S
N112 N113 1.365 . S
N113 C110 1.341 . S
N113 N112 1.365 . S
N113 H133 0.862 . S
C114 C109 1.501 . S
C114 H115 0.961 . S
C114 H116 0.961 . S
C114 H117 0.960 . S
H115 C114 0.961 . S
H116 C114 0.961 . S
H117 C114 0.960 . S
C118 N119 1.342 . S
C118 C122 1.401 . S
C118 C123 1.499 . S
N119 Co102 1.989 . S
N119 C118 1.342 . S
N119 N120 1.388 . S
N120 Co103 1.993 . S
N120 N119 1.388 . S
N120 C121 1.346 . S
C121 N120 1.346 . S
C121 C122 1.396 . S
C121 C131 1.510 . S
C122 C118 1.401 . S
C122 C121 1.396 . S
C123 C118 1.499 . S
C123 H124 0.959 . S
C123 H125 0.960 . S
C123 H126 0.961 . S
H124 C123 0.959 . S
H125 C123 0.960 . S
H126 C123 0.961 . S
O127 Co102 1.967 . S
O127 C135 1.258 . S
O128 Co103 1.941 . S
O128 C135 1.266 . S
H129 C131 0.959 . S
H130 C131 0.961 . S
C131 C121 1.510 . S
C131 H129 0.959 . S
C131 H130 0.961 . S
C131 H132 0.960 . S
H132 C131 0.960 . S
H133 N113 0.862 . S
O134 Co102 1.920 . S
O134 C107 1.289 . S
C135 O127 1.258 . S
C135 O128 1.266 . S
Co136 O139 1.970 . S
Co136 N153 1.989 . S
Co136 O161 1.967 . S
Co136 O168 1.920 . S
Co137 O140 1.966 . S
Co137 N146 2.022 . S
Co137 N154 1.993 . S
Co137 O162 1.941 . S
C138 O139 1.258 . S
C138 O140 1.263 . S
O139 Co136 1.970 . S
O139 C138 1.258 . S
O140 Co137 1.966 . S
O140 C138 1.263 . S
C141 O142 1.235 . S
C141 O168 1.289 . S
O142 C141 1.235 . S
C143 C145 1.400 . S
C143 N146 1.351 . S
C143 C148 1.501 . S
C144 C145 1.387 . S
C144 N147 1.341 . S
C145 C143 1.400 . S
C145 C144 1.387 . S
N146 Co137 2.022 . S
N146 C143 1.351 . S
N146 N147 1.365 . S
N147 C144 1.341 . S
N147 N146 1.365 . S
N147 H167 0.862 . S
C148 C143 1.501 . S
C148 H149 0.961 . S
C148 H150 0.961 . S
C148 H151 0.960 . S
H149 C148 0.961 . S
H150 C148 0.961 . S
H151 C148 0.960 . S
C152 N153 1.342 . S
C152 C156 1.401 . S
C152 C157 1.499 . S
N153 Co136 1.989 . S
N153 C152 1.342 . S
N153 N154 1.388 . S
N154 Co137 1.993 . S
N154 N153 1.388 . S
N154 C155 1.346 . S
C155 N154 1.346 . S
C155 C156 1.396 . S
C155 C165 1.510 . S
C156 C152 1.401 . S
C156 C155 1.396 . S
C157 C152 1.499 . S
C157 H158 0.959 . S
C157 H159 0.960 . S
C157 H160 0.961 . S
H158 C157 0.959 . S
H159 C157 0.960 . S
H160 C157 0.961 . S
O161 Co136 1.967 . S
O161 C169 1.258 . S
O162 Co137 1.941 . S
O162 C169 1.266 . S
H163 C165 0.959 . S
H164 C165 0.961 . S
C165 C155 1.510 . S
C165 H163 0.959 . S
C165 H164 0.961 . S
C165 H166 0.960 . S
H166 C165 0.960 . S
H167 N147 0.862 . S
O168 Co136 1.920 . S
O168 C141 1.289 . S
C169 O161 1.258 . S
C169 O162 1.266 . S
Co170 O173 1.970 1_554 S
Co170 N187 1.989 1_554 S
Co170 O195 1.967 1_554 S
Co170 O202 1.920 . S
Co171 O174 1.966 . S
Co171 N180 2.022 . S
Co171 N188 1.993 . S
Co171 O196 1.941 . S
C172 O173 1.258 . S
C172 O174 1.263 . S
O173 Co170 1.970 1_556 S
O173 C172 1.258 . S
O174 Co171 1.966 . S
O174 C172 1.263 . S
C175 O176 1.235 . S
C175 O202 1.289 . S
O176 C175 1.235 . S
C177 C179 1.400 . S
C177 N180 1.351 . S
C177 C182 1.501 . S
C178 C179 1.387 . S
C178 N181 1.341 . S
C179 C177 1.400 . S
C179 C178 1.387 . S
N180 Co171 2.022 . S
N180 C177 1.351 . S
N180 N181 1.365 . S
N181 C178 1.341 . S
N181 N180 1.365 . S
N181 H201 0.862 . S
C182 C177 1.501 . S
C182 H183 0.961 . S
C182 H184 0.961 . S
C182 H185 0.960 . S
H183 C182 0.961 . S
H184 C182 0.961 . S
H185 C182 0.960 . S
C186 N187 1.342 . S
C186 C190 1.401 . S
C186 C191 1.499 1_556 S
N187 Co170 1.989 1_556 S
N187 C186 1.342 . S
N187 N188 1.388 . S
N188 Co171 1.993 . S
N188 N187 1.388 . S
N188 C189 1.346 . S
C189 N188 1.346 . S
C189 C190 1.396 . S
C189 C199 1.510 . S
C190 C186 1.401 . S
C190 C189 1.396 . S
C191 C186 1.499 1_554 S
C191 H192 0.959 . S
C191 H193 0.960 . S
C191 H194 0.961 . S
H192 C191 0.959 . S
H193 C191 0.960 . S
H194 C191 0.961 . S
O195 Co170 1.967 1_556 S
O195 C203 1.258 . S
O196 Co171 1.941 . S
O196 C203 1.266 . S
H197 C199 0.959 . S
H198 C199 0.961 . S
C199 C189 1.510 . S
C199 H197 0.959 . S
C199 H198 0.961 . S
C199 H200 0.960 . S
H200 C199 0.960 . S
H201 N181 0.862 . S
O202 Co170 1.920 . S
O202 C175 1.289 . S
C203 O195 1.258 . S
C203 O196 1.266 . S
Co204 O207 1.970 . S
Co204 N221 1.989 . S
Co204 O229 1.967 . S
Co204 O236 1.920 . S
Co205 O208 1.966 . S
Co205 N214 2.022 . S
Co205 N222 1.993 . S
Co205 O230 1.941 . S
C206 O207 1.258 . S
C206 O208 1.263 . S
O207 Co204 1.970 . S
O207 C206 1.258 . S
O208 Co205 1.966 . S
O208 C206 1.263 . S
C209 O210 1.235 . S
C209 O236 1.289 . S
O210 C209 1.235 . S
C211 C213 1.400 1_556 S
C211 N214 1.351 . S
C211 C216 1.501 . S
C212 C213 1.387 . S
C212 N215 1.341 1_554 S
C213 C211 1.400 1_554 S
C213 C212 1.387 . S
N214 Co205 2.022 . S
N214 C211 1.351 . S
N214 N215 1.365 . S
N215 C212 1.341 1_556 S
N215 N214 1.365 . S
N215 H235 0.862 . S
C216 C211 1.501 . S
C216 H217 0.961 . S
C216 H218 0.961 . S
C216 H219 0.960 . S
H217 C216 0.961 . S
H218 C216 0.961 . S
H219 C216 0.960 . S
C220 N221 1.342 . S
C220 C224 1.401 . S
C220 C225 1.499 . S
N221 Co204 1.989 . S
N221 C220 1.342 . S
N221 N222 1.388 . S
N222 Co205 1.993 . S
N222 N221 1.388 . S
N222 C223 1.346 . S
C223 N222 1.346 . S
C223 C224 1.396 . S
C223 C233 1.510 . S
C224 C220 1.401 . S
C224 C223 1.396 . S
C225 C220 1.499 . S
C225 H226 0.959 . S
C225 H227 0.960 . S
C225 H228 0.961 . S
H226 C225 0.959 . S
H227 C225 0.960 . S
H228 C225 0.961 . S
O229 Co204 1.967 . S
O229 C237 1.258 . S
O230 Co205 1.941 . S
O230 C237 1.266 . S
H231 C233 0.959 . S
H232 C233 0.961 . S
C233 C223 1.510 . S
C233 H231 0.959 . S
C233 H232 0.961 . S
C233 H234 0.960 . S
H234 C233 0.960 . S
H235 N215 0.862 . S
O236 Co204 1.920 . S
O236 C209 1.289 . S
C237 O229 1.258 . S
C237 O230 1.266 . S
Co238 O241 1.970 . S
Co238 N255 1.989 . S
Co238 O263 1.967 . S
Co238 O270 1.920 . S
Co239 O242 1.966 . S
Co239 N248 2.022 1_556 S
Co239 N256 1.993 . S
Co239 O264 1.941 . S
C240 O241 1.258 . S
C240 O242 1.263 . S
O241 Co238 1.970 . S
O241 C240 1.258 . S
O242 Co239 1.966 . S
O242 C240 1.263 . S
C243 O244 1.235 . S
C243 O270 1.289 . S
O244 C243 1.235 . S
C245 C247 1.400 . S
C245 N248 1.351 . S
C245 C250 1.501 . S
C246 C247 1.387 . S
C246 N249 1.341 . S
C247 C245 1.400 . S
C247 C246 1.387 . S
N248 Co239 2.022 1_554 S
N248 C245 1.351 . S
N248 N249 1.365 . S
N249 C246 1.341 . S
N249 N248 1.365 . S
N249 H269 0.862 . S
C250 C245 1.501 . S
C250 H251 0.961 . S
C250 H252 0.961 . S
C250 H253 0.960 . S
H251 C250 0.961 . S
H252 C250 0.961 . S
H253 C250 0.960 . S
C254 N255 1.342 . S
C254 C258 1.401 . S
C254 C259 1.499 . S
N255 Co238 1.989 . S
N255 C254 1.342 . S
N255 N256 1.388 . S
N256 Co239 1.993 . S
N256 N255 1.388 . S
N256 C257 1.346 . S
C257 N256 1.346 . S
C257 C258 1.396 . S
C257 C267 1.510 1_556 S
C258 C254 1.401 . S
C258 C257 1.396 . S
C259 C254 1.499 . S
C259 H260 0.959 . S
C259 H261 0.960 . S
C259 H262 0.961 . S
H260 C259 0.959 . S
H261 C259 0.960 . S
H262 C259 0.961 . S
O263 Co238 1.967 . S
O263 C271 1.258 . S
O264 Co239 1.941 . S
O264 C271 1.266 . S
H265 C267 0.959 . S
H266 C267 0.961 . S
C267 C257 1.510 1_554 S
C267 H265 0.959 . S
C267 H266 0.961 . S
C267 H268 0.960 . S
H268 C267 0.960 . S
H269 N249 0.862 . S
O270 Co238 1.920 . S
O270 C243 1.289 . S
C271 O263 1.258 . S
C271 O264 1.266 . S
Co272 O275 1.970 1_556 S
Co272 N289 1.989 1_556 S
Co272 O297 1.967 1_556 S
Co272 O304 1.920 . S
Co273 O276 1.966 . S
Co273 N282 2.022 . S
Co273 N290 1.993 . S
Co273 O298 1.941 . S
C274 O275 1.258 . S
C274 O276 1.263 . S
O275 Co272 1.970 1_554 S
O275 C274 1.258 . S
O276 Co273 1.966 . S
O276 C274 1.263 . S
C277 O278 1.235 . S
C277 O304 1.289 . S
O278 C277 1.235 . S
C279 C281 1.400 . S
C279 N282 1.351 . S
C279 C284 1.501 . S
C280 C281 1.387 . S
C280 N283 1.341 . S
C281 C279 1.400 . S
C281 C280 1.387 . S
N282 Co273 2.022 . S
N282 C279 1.351 . S
N282 N283 1.365 . S
N283 C280 1.341 . S
N283 N282 1.365 . S
N283 H303 0.862 . S
C284 C279 1.501 . S
C284 H285 0.961 . S
C284 H286 0.961 . S
C284 H287 0.960 . S
H285 C284 0.961 . S
H286 C284 0.961 . S
H287 C284 0.960 . S
C288 N289 1.342 . S
C288 C292 1.401 . S
C288 C293 1.499 1_554 S
N289 Co272 1.989 1_554 S
N289 C288 1.342 . S
N289 N290 1.388 . S
N290 Co273 1.993 . S
N290 N289 1.388 . S
N290 C291 1.346 . S
C291 N290 1.346 . S
C291 C292 1.396 . S
C291 C301 1.510 . S
C292 C288 1.401 . S
C292 C291 1.396 . S
C293 C288 1.499 1_556 S
C293 H294 0.959 . S
C293 H295 0.960 . S
C293 H296 0.961 . S
H294 C293 0.959 . S
H295 C293 0.960 . S
H296 C293 0.961 . S
O297 Co272 1.967 1_554 S
O297 C305 1.258 . S
O298 Co273 1.941 . S
O298 C305 1.266 . S
H299 C301 0.959 . S
H300 C301 0.961 . S
C301 C291 1.510 . S
C301 H299 0.959 . S
C301 H300 0.961 . S
C301 H302 0.960 . S
H302 C301 0.960 . S
H303 N283 0.862 . S
O304 Co272 1.920 . S
O304 C277 1.289 . S
C305 O297 1.258 . S
C305 O298 1.266 . S
Co306 O309 1.970 . S
Co306 N323 1.989 . S
Co306 O331 1.967 . S
Co306 O338 1.920 . S
Co307 O310 1.966 . S
Co307 N316 2.022 . S
Co307 N324 1.993 . S
Co307 O332 1.941 . S
C308 O309 1.258 . S
C308 O310 1.263 . S
O309 Co306 1.970 . S
O309 C308 1.258 . S
O310 Co307 1.966 . S
O310 C308 1.263 . S
C311 O312 1.235 . S
C311 O338 1.289 . S
O312 C311 1.235 . S
C313 C315 1.400 . S
C313 N316 1.351 . S
C313 C318 1.501 . S
C314 C315 1.387 . S
C314 N317 1.341 . S
C315 C313 1.400 . S
C315 C314 1.387 . S
N316 Co307 2.022 . S
N316 C313 1.351 . S
N316 N317 1.365 . S
N317 C314 1.341 . S
N317 N316 1.365 . S
N317 H337 0.862 . S
C318 C313 1.501 . S
C318 H319 0.961 . S
C318 H320 0.961 . S
C318 H321 0.960 . S
H319 C318 0.961 . S
H320 C318 0.961 . S
H321 C318 0.960 . S
C322 N323 1.342 . S
C322 C326 1.401 . S
C322 C327 1.499 . S
N323 Co306 1.989 . S
N323 C322 1.342 . S
N323 N324 1.388 . S
N324 Co307 1.993 . S
N324 N323 1.388 . S
N324 C325 1.346 . S
C325 N324 1.346 . S
C325 C326 1.396 . S
C325 C335 1.510 . S
C326 C322 1.401 . S
C326 C325 1.396 . S
C327 C322 1.499 . S
C327 H328 0.959 . S
C327 H329 0.960 . S
C327 H330 0.961 . S
H328 C327 0.959 . S
H329 C327 0.960 . S
H330 C327 0.961 . S
O331 Co306 1.967 . S
O331 C339 1.258 . S
O332 Co307 1.941 . S
O332 C339 1.266 . S
H333 C335 0.959 . S
H334 C335 0.961 . S
C335 C325 1.510 . S
C335 H333 0.959 . S
C335 H334 0.961 . S
C335 H336 0.960 . S
H336 C335 0.960 . S
H337 N317 0.862 . S
O338 Co306 1.920 . S
O338 C311 1.289 . S
C339 O331 1.258 . S
C339 O332 1.266 . S
Co340 O343 1.970 . S
Co340 N357 1.989 . S
Co340 O365 1.967 . S
Co340 O372 1.920 . S
Co341 O344 1.966 . S
Co341 N350 2.022 . S
Co341 N358 1.993 . S
Co341 O366 1.941 . S
C342 O343 1.258 . S
C342 O344 1.263 . S
O343 Co340 1.970 . S
O343 C342 1.258 . S
O344 Co341 1.966 . S
O344 C342 1.263 . S
C345 O346 1.235 . S
C345 O372 1.289 . S
O346 C345 1.235 . S
C347 C349 1.400 . S
C347 N350 1.351 . S
C347 C352 1.501 . S
C348 C349 1.387 . S
C348 N351 1.341 . S
C349 C347 1.400 . S
C349 C348 1.387 . S
N350 Co341 2.022 . S
N350 C347 1.351 . S
N350 N351 1.365 . S
N351 C348 1.341 . S
N351 N350 1.365 . S
N351 H371 0.862 . S
C352 C347 1.501 . S
C352 H353 0.961 . S
C352 H354 0.961 . S
C352 H355 0.960 . S
H353 C352 0.961 . S
H354 C352 0.961 . S
H355 C352 0.960 . S
C356 N357 1.342 . S
C356 C360 1.401 . S
C356 C361 1.499 . S
N357 Co340 1.989 . S
N357 C356 1.342 . S
N357 N358 1.388 . S
N358 Co341 1.993 . S
N358 N357 1.388 . S
N358 C359 1.346 . S
C359 N358 1.346 . S
C359 C360 1.396 . S
C359 C369 1.510 . S
C360 C356 1.401 . S
C360 C359 1.396 . S
C361 C356 1.499 . S
C361 H362 0.959 . S
C361 H363 0.960 . S
C361 H364 0.961 . S
H362 C361 0.959 . S
H363 C361 0.960 . S
H364 C361 0.961 . S
O365 Co340 1.967 . S
O365 C373 1.258 . S
O366 Co341 1.941 . S
O366 C373 1.266 . S
H367 C369 0.959 . S
H368 C369 0.961 . S
C369 C359 1.510 . S
C369 H367 0.959 . S
C369 H368 0.961 . S
C369 H370 0.960 . S
H370 C369 0.960 . S
H371 N351 0.862 . S
O372 Co340 1.920 . S
O372 C345 1.289 . S
C373 O365 1.258 . S
C373 O366 1.266 . S
Co374 O377 1.970 . S
Co374 N391 1.989 . S
Co374 O399 1.967 . S
Co374 O406 1.920 . S
Co375 O378 1.966 . S
Co375 N384 2.022 . S
Co375 N392 1.993 . S
Co375 O400 1.941 . S
C376 O377 1.258 . S
C376 O378 1.263 . S
O377 Co374 1.970 . S
O377 C376 1.258 . S
O378 Co375 1.966 . S
O378 C376 1.263 . S
C379 O380 1.235 . S
C379 O406 1.289 . S
O380 C379 1.235 . S
C381 C383 1.400 . S
C381 N384 1.351 . S
C381 C386 1.501 . S
C382 C383 1.387 . S
C382 N385 1.341 . S
C383 C381 1.400 . S
C383 C382 1.387 . S
N384 Co375 2.022 . S
N384 C381 1.351 . S
N384 N385 1.365 . S
N385 C382 1.341 . S
N385 N384 1.365 . S
N385 H405 0.862 . S
C386 C381 1.501 . S
C386 H387 0.961 . S
C386 H388 0.961 . S
C386 H389 0.960 . S
H387 C386 0.961 . S
H388 C386 0.961 . S
H389 C386 0.960 . S
C390 N391 1.342 . S
C390 C394 1.401 . S
C390 C395 1.499 . S
N391 Co374 1.989 . S
N391 C390 1.342 . S
N391 N392 1.388 . S
N392 Co375 1.993 . S
N392 N391 1.388 . S
N392 C393 1.346 . S
C393 N392 1.346 . S
C393 C394 1.396 . S
C393 C403 1.510 . S
C394 C390 1.401 . S
C394 C393 1.396 . S
C395 C390 1.499 . S
C395 H396 0.959 . S
C395 H397 0.960 . S
C395 H398 0.961 . S
H396 C395 0.959 . S
H397 C395 0.960 . S
H398 C395 0.961 . S
O399 Co374 1.967 . S
O399 C407 1.258 . S
O400 Co375 1.941 . S
O400 C407 1.266 . S
H401 C403 0.959 . S
H402 C403 0.961 . S
C403 C393 1.510 . S
C403 H401 0.959 . S
C403 H402 0.961 . S
C403 H404 0.960 . S
H404 C403 0.960 . S
H405 N385 0.862 . S
O406 Co374 1.920 . S
O406 C379 1.289 . S
C407 O399 1.258 . S
C407 O400 1.266 . S
H408 C416 0.950 . S
H409 C421 0.950 1_556 S
H410 C418 0.950 . S
H411 C420 0.950 1_556 S
H412 C422 0.950 1_556 S
H413 C424 0.950 1_556 S
H414 C426 0.950 . S
H415 C427 0.950 . S
C416 H408 0.950 . S
C416 C417 1.386 . S
C416 C418 1.391 . S
C417 C416 1.386 . S
C417 C421 1.393 . S
C418 H410 0.950 . S
C418 C416 1.391 . S
C418 C419 1.400 . S
C419 C418 1.400 . S
C419 C420 1.398 . S
C419 C425 1.491 . S
C420 H411 0.950 1_554 S
C420 C419 1.398 . S
C420 C421 1.391 . S
C421 H409 0.950 1_554 S
C421 C417 1.393 . S
C421 C420 1.391 . S
C422 H412 0.950 1_554 S
C422 C423 1.386 . S
C422 C424 1.391 . S
C423 C422 1.386 . S
C423 C427 1.393 . S
C424 H413 0.950 1_554 S
C424 C422 1.391 . S
C424 C425 1.400 . S
C425 C419 1.491 . S
C425 C424 1.400 . S
C425 C426 1.398 . S
C426 H414 0.950 . S
C426 C425 1.398 . S
C426 C427 1.391 . S
C427 H415 0.950 . S
C427 C423 1.393 . S
C427 C426 1.391 . S
H428 C436 0.950 . S
H429 C441 0.950 . S
H430 C438 0.950 . S
H431 C440 0.950 . S
H432 C442 0.950 . S
H433 C444 0.950 . S
H434 C446 0.950 . S
H435 C447 0.950 . S
C436 H428 0.950 . S
C436 C437 1.386 . S
C436 C438 1.391 . S
C437 C436 1.386 . S
C437 C441 1.393 . S
C438 H430 0.950 . S
C438 C436 1.391 . S
C438 C439 1.400 . S
C439 C438 1.400 . S
C439 C440 1.398 . S
C439 C445 1.491 . S
C440 H431 0.950 . S
C440 C439 1.398 . S
C440 C441 1.391 . S
C441 H429 0.950 . S
C441 C437 1.393 . S
C441 C440 1.391 . S
C442 H432 0.950 . S
C442 C443 1.386 . S
C442 C444 1.391 . S
C443 C442 1.386 . S
C443 C447 1.393 . S
C444 H433 0.950 . S
C444 C442 1.391 . S
C444 C445 1.400 . S
C445 C439 1.491 . S
C445 C444 1.400 . S
C445 C446 1.398 . S
C446 H434 0.950 . S
C446 C445 1.398 . S
C446 C447 1.391 . S
C447 H435 0.950 . S
C447 C443 1.393 . S
C447 C446 1.391 . S
H448 C456 0.950 . S
H449 C461 0.950 . S
H450 C458 0.950 . S
H451 C460 0.950 . S
H452 C462 0.950 . S
H453 C464 0.950 . S
H454 C466 0.950 . S
H455 C467 0.950 . S
C456 H448 0.950 . S
C456 C457 1.386 . S
C456 C458 1.391 . S
C457 C456 1.386 . S
C457 C461 1.393 . S
C458 H450 0.950 . S
C458 C456 1.391 . S
C458 C459 1.400 . S
C459 C458 1.400 . S
C459 C460 1.398 . S
C459 C465 1.491 . S
C460 H451 0.950 . S
C460 C459 1.398 . S
C460 C461 1.391 . S
C461 H449 0.950 . S
C461 C457 1.393 . S
C461 C460 1.391 . S
C462 H452 0.950 . S
C462 C463 1.386 . S
C462 C464 1.391 . S
C463 C462 1.386 . S
C463 C467 1.393 . S
C464 H453 0.950 . S
C464 C462 1.391 . S
C464 C465 1.400 . S
C465 C459 1.491 . S
C465 C464 1.400 . S
C465 C466 1.398 . S
C466 H454 0.950 . S
C466 C465 1.398 . S
C466 C467 1.391 . S
C467 H455 0.950 . S
C467 C463 1.393 . S
C467 C466 1.391 . S
H468 C476 0.950 . S
H469 C481 0.950 . S
H470 C478 0.950 . S
H471 C480 0.950 . S
H472 C482 0.950 . S
H473 C484 0.950 . S
H474 C486 0.950 . S
H475 C487 0.950 . S
C476 H468 0.950 . S
C476 C477 1.386 . S
C476 C478 1.391 . S
C477 C476 1.386 . S
C477 C481 1.393 . S
C478 H470 0.950 . S
C478 C476 1.391 . S
C478 C479 1.400 . S
C479 C478 1.400 . S
C479 C480 1.398 . S
C479 C485 1.491 . S
C480 H471 0.950 . S
C480 C479 1.398 . S
C480 C481 1.391 . S
C481 H469 0.950 . S
C481 C477 1.393 . S
C481 C480 1.391 . S
C482 H472 0.950 . S
C482 C483 1.386 . S
C482 C484 1.391 . S
C483 C482 1.386 . S
C483 C487 1.393 . S
C484 H473 0.950 . S
C484 C482 1.391 . S
C484 C485 1.400 . S
C485 C479 1.491 . S
C485 C484 1.400 . S
C485 C486 1.398 . S
C486 H474 0.950 . S
C486 C485 1.398 . S
C486 C487 1.391 . S
C487 H475 0.950 . S
C487 C483 1.393 . S
C487 C486 1.391 . S
H488 C496 0.950 . S
H489 C501 0.950 . S
H490 C498 0.950 . S
H491 C500 0.950 . S
H492 C502 0.950 . S
H493 C504 0.950 . S
H494 C506 0.950 . S
H495 C507 0.950 . S
C496 H488 0.950 . S
C496 C497 1.386 . S
C496 C498 1.391 . S
C497 C496 1.386 . S
C497 C501 1.393 . S
C498 H490 0.950 . S
C498 C496 1.391 . S
C498 C499 1.400 . S
C499 C498 1.400 . S
C499 C500 1.398 . S
C499 C505 1.491 . S
C500 H491 0.950 . S
C500 C499 1.398 . S
C500 C501 1.391 . S
C501 H489 0.950 . S
C501 C497 1.393 . S
C501 C500 1.391 . S
C502 H492 0.950 . S
C502 C503 1.386 . S
C502 C504 1.391 . S
C503 C502 1.386 . S
C503 C507 1.393 . S
C504 H493 0.950 . S
C504 C502 1.391 . S
C504 C505 1.400 . S
C505 C499 1.491 . S
C505 C504 1.400 . S
C505 C506 1.398 . S
C506 H494 0.950 . S
C506 C505 1.398 . S
C506 C507 1.391 . S
C507 H495 0.950 . S
C507 C503 1.393 . S
C507 C506 1.391 . S
H508 C516 0.950 . S
H509 C521 0.950 . S
H510 C518 0.950 . S
H511 C520 0.950 . S
H512 C522 0.950 . S
H513 C524 0.950 . S
H514 C526 0.950 . S
H515 C527 0.950 . S
C516 H508 0.950 . S
C516 C517 1.386 . S
C516 C518 1.391 . S
C517 C516 1.386 . S
C517 C521 1.393 . S
C518 H510 0.950 . S
C518 C516 1.391 . S
C518 C519 1.400 . S
C519 C518 1.400 . S
C519 C520 1.398 . S
C519 C525 1.491 . S
C520 H511 0.950 . S
C520 C519 1.398 . S
C520 C521 1.391 . S
C521 H509 0.950 . S
C521 C517 1.393 . S
C521 C520 1.391 . S
C522 H512 0.950 . S
C522 C523 1.386 . S
C522 C524 1.391 . S
C523 C522 1.386 . S
C523 C527 1.393 . S
C524 H513 0.950 . S
C524 C522 1.391 . S
C524 C525 1.400 . S
C525 C519 1.491 . S
C525 C524 1.400 . S
C525 C526 1.398 . S
C526 H514 0.950 . S
C526 C525 1.398 . S
C526 C527 1.391 . S
C527 H515 0.950 . S
C527 C523 1.393 . S
C527 C526 1.391 . S
H528 C536 0.950 . S
H529 C541 0.950 . S
H530 C538 0.950 . S
H531 C540 0.950 . S
H532 C542 0.950 . S
H533 C544 0.950 . S
H534 C546 0.950 . S
H535 C547 0.950 . S
C536 H528 0.950 . S
C536 C537 1.386 . S
C536 C538 1.391 . S
C537 C536 1.386 . S
C537 C541 1.393 . S
C538 H530 0.950 . S
C538 C536 1.391 . S
C538 C539 1.400 . S
C539 C538 1.400 . S
C539 C540 1.398 . S
C539 C545 1.491 . S
C540 H531 0.950 . S
C540 C539 1.398 . S
C540 C541 1.391 . S
C541 H529 0.950 . S
C541 C537 1.393 . S
C541 C540 1.391 . S
C542 H532 0.950 . S
C542 C543 1.386 . S
C542 C544 1.391 . S
C543 C542 1.386 . S
C543 C547 1.393 . S
C544 H533 0.950 . S
C544 C542 1.391 . S
C544 C545 1.400 . S
C545 C539 1.491 . S
C545 C544 1.400 . S
C545 C546 1.398 . S
C546 H534 0.950 . S
C546 C545 1.398 . S
C546 C547 1.391 . S
C547 H535 0.950 . S
C547 C543 1.393 . S
C547 C546 1.391 . S
H548 C556 0.950 . S
H549 C561 0.950 . S
H550 C558 0.950 . S
H551 C560 0.950 . S
H552 C562 0.950 . S
H553 C564 0.950 . S
H554 C566 0.950 . S
H555 C567 0.950 . S
C556 H548 0.950 . S
C556 C557 1.386 . S
C556 C558 1.391 . S
C557 C556 1.386 . S
C557 C561 1.393 . S
C558 H550 0.950 . S
C558 C556 1.391 . S
C558 C559 1.400 . S
C559 C558 1.400 . S
C559 C560 1.398 . S
C559 C565 1.491 . S
C560 H551 0.950 . S
C560 C559 1.398 . S
C560 C561 1.391 . S
C561 H549 0.950 . S
C561 C557 1.393 . S
C561 C560 1.391 . S
C562 H552 0.950 . S
C562 C563 1.386 . S
C562 C564 1.391 . S
C563 C562 1.386 . S
C563 C567 1.393 . S
C564 H553 0.950 . S
C564 C562 1.391 . S
C564 C565 1.400 . S
C565 C559 1.491 . S
C565 C564 1.400 . S
C565 C566 1.398 . S
C566 H554 0.950 . S
C566 C565 1.398 . S
C566 C567 1.391 . S
C567 H555 0.950 . S
C567 C563 1.393 . S
C567 C566 1.391 . S
H568 C576 0.950 . S
H569 C581 0.950 . S
H570 C578 0.950 . S
H571 C580 0.950 . S
H572 C582 0.950 . S
H573 C584 0.950 . S
H574 C586 0.950 . S
H575 C587 0.950 . S
C576 H568 0.950 . S
C576 C577 1.386 . S
C576 C578 1.391 . S
C577 C576 1.386 . S
C577 C581 1.393 . S
C578 H570 0.950 . S
C578 C576 1.391 . S
C578 C579 1.400 . S
C579 C578 1.400 . S
C579 C580 1.398 . S
C579 C585 1.491 . S
C580 H571 0.950 . S
C580 C579 1.398 . S
C580 C581 1.391 . S
C581 H569 0.950 . S
C581 C577 1.393 . S
C581 C580 1.391 . S
C582 H572 0.950 . S
C582 C583 1.386 . S
C582 C584 1.391 1_554 S
C583 C582 1.386 . S
C583 C587 1.393 . S
C584 H573 0.950 . S
C584 C582 1.391 1_556 S
C584 C585 1.400 . S
C585 C579 1.491 . S
C585 C584 1.400 . S
C585 C586 1.398 . S
C586 H574 0.950 . S
C586 C585 1.398 . S
C586 C587 1.391 1_556 S
C587 H575 0.950 . S
C587 C583 1.393 . S
C587 C586 1.391 1_554 S
H588 C596 0.950 . S
H589 C601 0.950 . S
H590 C598 0.950 1_554 S
H591 C600 0.950 . S
H592 C602 0.950 . S
H593 C604 0.950 . S
H594 C606 0.950 . S
H595 C607 0.950 . S
C596 H588 0.950 . S
C596 C597 1.386 . S
C596 C598 1.391 . S
C597 C596 1.386 . S
C597 C601 1.393 . S
C598 H590 0.950 1_556 S
C598 C596 1.391 . S
C598 C599 1.400 1_556 S
C599 C598 1.400 1_554 S
C599 C600 1.398 1_554 S
C599 C605 1.491 . S
C600 H591 0.950 . S
C600 C599 1.398 1_556 S
C600 C601 1.391 . S
C601 H589 0.950 . S
C601 C597 1.393 . S
C601 C600 1.391 . S
C602 H592 0.950 . S
C602 C603 1.386 . S
C602 C604 1.391 . S
C603 C602 1.386 . S
C603 C607 1.393 . S
C604 H593 0.950 . S
C604 C602 1.391 . S
C604 C605 1.400 . S
C605 C599 1.491 . S
C605 C604 1.400 . S
C605 C606 1.398 . S
C606 H594 0.950 . S
C606 C605 1.398 . S
C606 C607 1.391 . S
C607 H595 0.950 . S
C607 C603 1.393 . S
C607 C606 1.391 . S
H608 C616 0.950 . S
H609 C621 0.950 . S
H610 C618 0.950 . S
H611 C620 0.950 . S
H612 C622 0.950 . S
H613 C624 0.950 . S
H614 C626 0.950 . S
H615 C627 0.950 . S
C616 H608 0.950 . S
C616 C617 1.386 . S
C616 C618 1.391 . S
C617 C616 1.386 . S
C617 C621 1.393 . S
C618 H610 0.950 . S
C618 C616 1.391 . S
C618 C619 1.400 . S
C619 C618 1.400 . S
C619 C620 1.398 . S
C619 C625 1.491 . S
C620 H611 0.950 . S
C620 C619 1.398 . S
C620 C621 1.391 . S
C621 H609 0.950 . S
C621 C617 1.393 . S
C621 C620 1.391 . S
C622 H612 0.950 . S
C622 C623 1.386 . S
C622 C624 1.391 . S
C623 C622 1.386 . S
C623 C627 1.393 . S
C624 H613 0.950 . S
C624 C622 1.391 . S
C624 C625 1.400 . S
C625 C619 1.491 . S
C625 C624 1.400 . S
C625 C626 1.398 . S
C626 H614 0.950 . S
C626 C625 1.398 . S
C626 C627 1.391 . S
C627 H615 0.950 . S
C627 C623 1.393 . S
C627 C626 1.391 . S
H628 C636 0.950 . S
H629 C641 0.950 . S
H630 C638 0.950 . S
H631 C640 0.950 . S
H632 C642 0.950 . S
H633 C644 0.950 . S
H634 C646 0.950 . S
H635 C647 0.950 . S
C636 H628 0.950 . S
C636 C637 1.386 . S
C636 C638 1.391 . S
C637 C636 1.386 . S
C637 C641 1.393 . S
C638 H630 0.950 . S
C638 C636 1.391 . S
C638 C639 1.400 . S
C639 C638 1.400 . S
C639 C640 1.398 . S
C639 C645 1.491 . S
C640 H631 0.950 . S
C640 C639 1.398 . S
C640 C641 1.391 . S
C641 H629 0.950 . S
C641 C637 1.393 . S
C641 C640 1.391 . S
C642 H632 0.950 . S
C642 C643 1.386 . S
C642 C644 1.391 . S
C643 C642 1.386 . S
C643 C647 1.393 . S
C644 H633 0.950 . S
C644 C642 1.391 . S
C644 C645 1.400 . S
C645 C639 1.491 . S
C645 C644 1.400 . S
C645 C646 1.398 . S
C646 H634 0.950 . S
C646 C645 1.398 . S
C646 C647 1.391 . S
C647 H635 0.950 . S
C647 C643 1.393 . S
C647 C646 1.391 . S
H648 C656 0.950 . S
H649 C661 0.950 . S
H650 C658 0.950 . S
H651 C660 0.950 . S
H652 C662 0.950 . S
H653 C664 0.950 . S
H654 C666 0.950 . S
H655 C667 0.950 . S
C656 H648 0.950 . S
C656 C657 1.386 . S
C656 C658 1.391 . S
C657 C656 1.386 . S
C657 C661 1.393 . S
C658 H650 0.950 . S
C658 C656 1.391 . S
C658 C659 1.400 . S
C659 C658 1.400 . S
C659 C660 1.398 . S
C659 C665 1.491 . S
C660 H651 0.950 . S
C660 C659 1.398 . S
C660 C661 1.391 . S
C661 H649 0.950 . S
C661 C657 1.393 . S
C661 C660 1.391 . S
C662 H652 0.950 . S
C662 C663 1.386 . S
C662 C664 1.391 . S
C663 C662 1.386 . S
C663 C667 1.393 . S
C664 H653 0.950 . S
C664 C662 1.391 . S
C664 C665 1.400 . S
C665 C659 1.491 . S
C665 C664 1.400 . S
C665 C666 1.398 . S
C666 H654 0.950 . S
C666 C665 1.398 . S
C666 C667 1.391 . S
C667 H655 0.950 . S
C667 C663 1.393 . S
C667 C666 1.391 . S
H668 C676 0.950 . S
H669 C681 0.950 . S
H670 C678 0.950 . S
H671 C680 0.950 . S
H672 C682 0.950 . S
H673 C684 0.950 . S
H674 C686 0.950 . S
H675 C687 0.950 . S
C676 H668 0.950 . S
C676 C677 1.386 . S
C676 C678 1.391 . S
C677 C676 1.386 . S
C677 C681 1.393 . S
C678 H670 0.950 . S
C678 C676 1.391 . S
C678 C679 1.400 . S
C679 C678 1.400 . S
C679 C680 1.398 . S
C679 C685 1.491 . S
C680 H671 0.950 . S
C680 C679 1.398 . S
C680 C681 1.391 . S
C681 H669 0.950 . S
C681 C677 1.393 . S
C681 C680 1.391 . S
C682 H672 0.950 . S
C682 C683 1.386 . S
C682 C684 1.391 . S
C683 C682 1.386 . S
C683 C687 1.393 . S
C684 H673 0.950 . S
C684 C682 1.391 . S
C684 C685 1.400 . S
C685 C679 1.491 . S
C685 C684 1.400 . S
C685 C686 1.398 . S
C686 H674 0.950 . S
C686 C685 1.398 . S
C686 C687 1.391 . S
C687 H675 0.950 . S
C687 C683 1.393 . S
C687 C686 1.391 . S
H688 C696 0.950 . S
H689 C701 0.950 . S
H690 C698 0.950 . S
H691 C700 0.950 . S
H692 C702 0.950 . S
H693 C704 0.950 . S
H694 C706 0.950 . S
H695 C707 0.950 . S
C696 H688 0.950 . S
C696 C697 1.386 . S
C696 C698 1.391 . S
C697 C696 1.386 . S
C697 C701 1.393 . S
C698 H690 0.950 . S
C698 C696 1.391 . S
C698 C699 1.400 . S
C699 C698 1.400 . S
C699 C700 1.398 . S
C699 C705 1.491 . S
C700 H691 0.950 . S
C700 C699 1.398 . S
C700 C701 1.391 . S
C701 H689 0.950 . S
C701 C697 1.393 . S
C701 C700 1.391 . S
C702 H692 0.950 . S
C702 C703 1.386 . S
C702 C704 1.391 . S
C703 C702 1.386 . S
C703 C707 1.393 . S
C704 H693 0.950 . S
C704 C702 1.391 . S
C704 C705 1.400 . S
C705 C699 1.491 . S
C705 C704 1.400 . S
C705 C706 1.398 . S
C706 H694 0.950 . S
C706 C705 1.398 . S
C706 C707 1.391 . S
C707 H695 0.950 . S
C707 C703 1.393 . S
C707 C706 1.391 . S
H708 C716 0.950 . S
H709 C721 0.950 . S
H710 C718 0.950 . S
H711 C720 0.950 . S
H712 C722 0.950 . S
H713 C724 0.950 . S
H714 C726 0.950 . S
H715 C727 0.950 . S
C716 H708 0.950 . S
C716 C717 1.386 . S
C716 C718 1.391 . S
C717 C716 1.386 . S
C717 C721 1.393 . S
C718 H710 0.950 . S
C718 C716 1.391 . S
C718 C719 1.400 . S
C719 C718 1.400 . S
C719 C720 1.398 . S
C719 C725 1.491 . S
C720 H711 0.950 . S
C720 C719 1.398 . S
C720 C721 1.391 . S
C721 H709 0.950 . S
C721 C717 1.393 . S
C721 C720 1.391 . S
C722 H712 0.950 . S
C722 C723 1.386 . S
C722 C724 1.391 . S
C723 C722 1.386 . S
C723 C727 1.393 . S
C724 H713 0.950 . S
C724 C722 1.391 . S
C724 C725 1.400 . S
C725 C719 1.491 . S
C725 C724 1.400 . S
C725 C726 1.398 . S
C726 H714 0.950 . S
C726 C725 1.398 . S
C726 C727 1.391 . S
C727 H715 0.950 . S
C727 C723 1.393 . S
C727 C726 1.391 . S
H728 C736 0.950 . S
H729 C741 0.950 . S
H730 C738 0.950 . S
H731 C740 0.950 . S
H732 C742 0.950 . S
H733 C744 0.950 1_556 S
H734 C746 0.950 . S
H735 C747 0.950 . S
C736 H728 0.950 . S
C736 C737 1.386 . S
C736 C738 1.391 . S
C737 C736 1.386 . S
C737 C741 1.393 . S
C738 H730 0.950 . S
C738 C736 1.391 . S
C738 C739 1.400 . S
C739 C738 1.400 . S
C739 C740 1.398 . S
C739 C745 1.491 . S
C740 H731 0.950 . S
C740 C739 1.398 . S
C740 C741 1.391 . S
C741 H729 0.950 . S
C741 C737 1.393 . S
C741 C740 1.391 . S
C742 H732 0.950 . S
C742 C743 1.386 . S
C742 C744 1.391 . S
C743 C742 1.386 . S
C743 C747 1.393 . S
C744 H733 0.950 1_554 S
C744 C742 1.391 . S
C744 C745 1.400 1_554 S
C745 C739 1.491 . S
C745 C744 1.400 1_556 S
C745 C746 1.398 1_556 S
C746 H734 0.950 . S
C746 C745 1.398 1_554 S
C746 C747 1.391 . S
C747 H735 0.950 . S
C747 C743 1.393 . S
C747 C746 1.391 . S
H748 C756 0.950 . S
H749 C761 0.950 . S
H750 C758 0.950 . S
H751 C760 0.950 . S
H752 C762 0.950 . S
H753 C764 0.950 . S
H754 C766 0.950 . S
H755 C767 0.950 . S
C756 H748 0.950 . S
C756 C757 1.386 . S
C756 C758 1.391 . S
C757 C756 1.386 . S
C757 C761 1.393 . S
C758 H750 0.950 . S
C758 C756 1.391 . S
C758 C759 1.400 . S
C759 C758 1.400 . S
C759 C760 1.398 . S
C759 C765 1.491 . S
C760 H751 0.950 . S
C760 C759 1.398 . S
C760 C761 1.391 . S
C761 H749 0.950 . S
C761 C757 1.393 . S
C761 C760 1.391 . S
C762 H752 0.950 . S
C762 C763 1.386 . S
C762 C764 1.391 1_556 S
C763 C762 1.386 . S
C763 C767 1.393 . S
C764 H753 0.950 . S
C764 C762 1.391 1_554 S
C764 C765 1.400 . S
C765 C759 1.491 . S
C765 C764 1.400 . S
C765 C766 1.398 . S
C766 H754 0.950 . S
C766 C765 1.398 . S
C766 C767 1.391 1_554 S
C767 H755 0.950 . S
C767 C763 1.393 . S
C767 C766 1.391 1_556 S
H768 C776 0.950 . S
H769 C781 0.950 . S
H770 C778 0.950 . S
H771 C780 0.950 . S
H772 C782 0.950 . S
H773 C784 0.950 . S
H774 C786 0.950 . S
H775 C787 0.950 . S
C776 H768 0.950 . S
C776 C777 1.386 . S
C776 C778 1.391 . S
C777 C776 1.386 . S
C777 C781 1.393 . S
C778 H770 0.950 . S
C778 C776 1.391 . S
C778 C779 1.400 . S
C779 C778 1.400 . S
C779 C780 1.398 . S
C779 C785 1.491 . S
C780 H771 0.950 . S
C780 C779 1.398 . S
C780 C781 1.391 . S
C781 H769 0.950 . S
C781 C777 1.393 . S
C781 C780 1.391 . S
C782 H772 0.950 . S
C782 C783 1.386 . S
C782 C784 1.391 . S
C783 C782 1.386 . S
C783 C787 1.393 . S
C784 H773 0.950 . S
C784 C782 1.391 . S
C784 C785 1.400 . S
C785 C779 1.491 . S
C785 C784 1.400 . S
C785 C786 1.398 . S
C786 H774 0.950 . S
C786 C785 1.398 . S
C786 C787 1.391 . S
C787 H775 0.950 . S
C787 C783 1.393 . S
C787 C786 1.391 . S
H788 C796 0.950 . S
H789 C801 0.950 . S
H790 C798 0.950 . S
H791 C800 0.950 . S
H792 C802 0.950 . S
H793 C804 0.950 . S
H794 C806 0.950 . S
H795 C807 0.950 . S
C796 H788 0.950 . S
C796 C797 1.386 . S
C796 C798 1.391 . S
C797 C796 1.386 . S
C797 C801 1.393 . S
C798 H790 0.950 . S
C798 C796 1.391 . S
C798 C799 1.400 . S
C799 C798 1.400 . S
C799 C800 1.398 . S
C799 C805 1.491 . S
C800 H791 0.950 . S
C800 C799 1.398 . S
C800 C801 1.391 . S
C801 H789 0.950 . S
C801 C797 1.393 . S
C801 C800 1.391 . S
C802 H792 0.950 . S
C802 C803 1.386 . S
C802 C804 1.391 . S
C803 C802 1.386 . S
C803 C807 1.393 . S
C804 H793 0.950 . S
C804 C802 1.391 . S
C804 C805 1.400 . S
C805 C799 1.491 . S
C805 C804 1.400 . S
C805 C806 1.398 . S
C806 H794 0.950 . S
C806 C805 1.398 . S
C806 C807 1.391 . S
C807 H795 0.950 . S
C807 C803 1.393 . S
C807 C806 1.391 . S
H808 C816 0.950 . S
H809 C821 0.950 . S
H810 C818 0.950 . S
H811 C820 0.950 . S
H812 C822 0.950 . S
H813 C824 0.950 . S
H814 C826 0.950 . S
H815 C827 0.950 . S
C816 H808 0.950 . S
C816 C817 1.386 . S
C816 C818 1.391 . S
C817 C816 1.386 . S
C817 C821 1.393 . S
C818 H810 0.950 . S
C818 C816 1.391 . S
C818 C819 1.400 . S
C819 C818 1.400 . S
C819 C820 1.398 . S
C819 C825 1.491 . S
C820 H811 0.950 . S
C820 C819 1.398 . S
C820 C821 1.391 . S
C821 H809 0.950 . S
C821 C817 1.393 . S
C821 C820 1.391 . S
C822 H812 0.950 . S
C822 C823 1.386 . S
C822 C824 1.391 . S
C823 C822 1.386 . S
C823 C827 1.393 . S
C824 H813 0.950 . S
C824 C822 1.391 . S
C824 C825 1.400 . S
C825 C819 1.491 . S
C825 C824 1.400 . S
C825 C826 1.398 . S
C826 H814 0.950 . S
C826 C825 1.398 . S
C826 C827 1.391 . S
C827 H815 0.950 . S
C827 C823 1.393 . S
C827 C826 1.391 . S
H828 C836 0.950 . S
H829 C841 0.950 . S
H830 C838 0.950 . S
H831 C840 0.950 . S
H832 C842 0.950 . S
H833 C844 0.950 . S
H834 C846 0.950 . S
H835 C847 0.950 . S
C836 H828 0.950 . S
C836 C837 1.386 . S
C836 C838 1.391 . S
C837 C836 1.386 . S
C837 C841 1.393 . S
C838 H830 0.950 . S
C838 C836 1.391 . S
C838 C839 1.400 . S
C839 C838 1.400 . S
C839 C840 1.398 . S
C839 C845 1.491 . S
C840 H831 0.950 . S
C840 C839 1.398 . S
C840 C841 1.391 . S
C841 H829 0.950 . S
C841 C837 1.393 . S
C841 C840 1.391 . S
C842 H832 0.950 . S
C842 C843 1.386 . S
C842 C844 1.391 . S
C843 C842 1.386 . S
C843 C847 1.393 . S
C844 H833 0.950 . S
C844 C842 1.391 . S
C844 C845 1.400 . S
C845 C839 1.491 . S
C845 C844 1.400 . S
C845 C846 1.398 . S
C846 H834 0.950 . S
C846 C845 1.398 . S
C846 C847 1.391 . S
C847 H835 0.950 . S
C847 C843 1.393 . S
C847 C846 1.391 . S
H848 C856 0.950 . S
H849 C861 0.950 . S
H850 C858 0.950 . S
H851 C860 0.950 . S
H852 C862 0.950 . S
H853 C864 0.950 . S
H854 C866 0.950 . S
H855 C867 0.950 . S
C856 H848 0.950 . S
C856 C857 1.386 1_556 S
C856 C858 1.391 . S
C857 C856 1.386 1_554 S
C857 C861 1.393 . S
C858 H850 0.950 . S
C858 C856 1.391 . S
C858 C859 1.400 . S
C859 C858 1.400 . S
C859 C860 1.398 . S
C859 C865 1.491 . S
C860 H851 0.950 . S
C860 C859 1.398 . S
C860 C861 1.391 1_556 S
C861 H849 0.950 . S
C861 C857 1.393 . S
C861 C860 1.391 1_554 S
C862 H852 0.950 . S
C862 C863 1.386 . S
C862 C864 1.391 . S
C863 C862 1.386 . S
C863 C867 1.393 . S
C864 H853 0.950 . S
C864 C862 1.391 . S
C864 C865 1.400 . S
C865 C859 1.491 . S
C865 C864 1.400 . S
C865 C866 1.398 . S
C866 H854 0.950 . S
C866 C865 1.398 . S
C866 C867 1.391 . S
C867 H855 0.950 . S
C867 C863 1.393 . S
C867 C866 1.391 . S
H868 C876 0.950 . S
H869 C881 0.950 . S
H870 C878 0.950 . S
H871 C880 0.950 . S
H872 C882 0.950 . S
H873 C884 0.950 . S
H874 C886 0.950 . S
H875 C887 0.950 . S
C876 H868 0.950 . S
C876 C877 1.386 . S
C876 C878 1.391 . S
C877 C876 1.386 . S
C877 C881 1.393 . S
C878 H870 0.950 . S
C878 C876 1.391 . S
C878 C879 1.400 . S
C879 C878 1.400 . S
C879 C880 1.398 . S
C879 C885 1.491 . S
C880 H871 0.950 . S
C880 C879 1.398 . S
C880 C881 1.391 . S
C881 H869 0.950 . S
C881 C877 1.393 . S
C881 C880 1.391 . S
C882 H872 0.950 . S
C882 C883 1.386 . S
C882 C884 1.391 . S
C883 C882 1.386 . S
C883 C887 1.393 1_556 S
C884 H873 0.950 . S
C884 C882 1.391 . S
C884 C885 1.400 1_556 S
C885 C879 1.491 . S
C885 C884 1.400 1_554 S
C885 C886 1.398 . S
C886 H874 0.950 . S
C886 C885 1.398 . S
C886 C887 1.391 . S
C887 H875 0.950 . S
C887 C883 1.393 1_554 S
C887 C886 1.391 . S
H888 C896 0.950 . S
H889 C901 0.950 1_556 S
H890 C898 0.950 . S
H891 C900 0.950 . S
H892 C902 0.950 . S
H893 C904 0.950 . S
H894 C906 0.950 . S
H895 C907 0.950 1_554 S
C896 H888 0.950 . S
C896 C897 1.386 . S
C896 C898 1.391 . S
C897 C896 1.386 . S
C897 C901 1.393 . S
C898 H890 0.950 . S
C898 C896 1.391 . S
C898 C899 1.400 . S
C899 C898 1.400 . S
C899 C900 1.398 1_554 S
C899 C905 1.491 1_544 S
C900 H891 0.950 . S
C900 C899 1.398 1_556 S
C900 C901 1.391 1_556 S
C901 H889 0.950 1_554 S
C901 C897 1.393 . S
C901 C900 1.391 1_554 S
C902 H892 0.950 . S
C902 C903 1.386 . S
C902 C904 1.391 . S
C903 C902 1.386 . S
C903 C907 1.393 . S
C904 H893 0.950 . S
C904 C902 1.391 . S
C904 C905 1.400 . S
C905 C899 1.491 1_566 S
C905 C904 1.400 . S
C905 C906 1.398 1_556 S
C906 H894 0.950 . S
C906 C905 1.398 1_554 S
C906 C907 1.391 1_554 S
C907 H895 0.950 1_556 S
C907 C903 1.393 . S
C907 C906 1.391 1_556 S
H908 C916 0.950 . S
H909 C921 0.950 . S
H910 C918 0.950 . S
H911 C920 0.950 . S
H912 C922 0.950 . S
H913 C924 0.950 . S
H914 C926 0.950 . S
H915 C927 0.950 . S
C916 H908 0.950 . S
C916 C917 1.386 . S
C916 C918 1.391 . S
C917 C916 1.386 . S
C917 C921 1.393 . S
C918 H910 0.950 . S
C918 C916 1.391 . S
C918 C919 1.400 . S
C919 C918 1.400 . S
C919 C920 1.398 . S
C919 C925 1.491 . S
C920 H911 0.950 . S
C920 C919 1.398 . S
C920 C921 1.391 . S
C921 H909 0.950 . S
C921 C917 1.393 . S
C921 C920 1.391 . S
C922 H912 0.950 . S
C922 C923 1.386 . S
C922 C924 1.391 . S
C923 C922 1.386 . S
C923 C927 1.393 . S
C924 H913 0.950 . S
C924 C922 1.391 . S
C924 C925 1.400 . S
C925 C919 1.491 . S
C925 C924 1.400 . S
C925 C926 1.398 . S
C926 H914 0.950 . S
C926 C925 1.398 . S
C926 C927 1.391 . S
C927 H915 0.950 . S
C927 C923 1.393 . S
C927 C926 1.391 . S
H928 C936 0.950 . S
H929 C941 0.950 . S
H930 C938 0.950 . S
H931 C940 0.950 . S
H932 C942 0.950 . S
H933 C944 0.950 . S
H934 C946 0.950 . S
H935 C947 0.950 . S
C936 H928 0.950 . S
C936 C937 1.386 . S
C936 C938 1.391 . S
C937 C936 1.386 . S
C937 C941 1.393 . S
C938 H930 0.950 . S
C938 C936 1.391 . S
C938 C939 1.400 . S
C939 C938 1.400 . S
C939 C940 1.398 . S
C939 C945 1.491 1_455 S
C940 H931 0.950 . S
C940 C939 1.398 . S
C940 C941 1.391 . S
C941 H929 0.950 . S
C941 C937 1.393 . S
C941 C940 1.391 . S
C942 H932 0.950 . S
C942 C943 1.386 . S
C942 C944 1.391 . S
C943 C942 1.386 . S
C943 C947 1.393 . S
C944 H933 0.950 . S
C944 C942 1.391 . S
C944 C945 1.400 . S
C945 C939 1.491 1_655 S
C945 C944 1.400 . S
C945 C946 1.398 . S
C946 H934 0.950 . S
C946 C945 1.398 . S
C946 C947 1.391 . S
C947 H935 0.950 . S
C947 C943 1.393 . S
C947 C946 1.391 . S
H948 C956 0.950 . S
H949 C961 0.950 . S
H950 C958 0.950 . S
H951 C960 0.950 . S
H952 C962 0.950 . S
H953 C964 0.950 . S
H954 C966 0.950 . S
H955 C967 0.950 . S
C956 H948 0.950 . S
C956 C957 1.386 . S
C956 C958 1.391 . S
C957 C956 1.386 . S
C957 C961 1.393 . S
C958 H950 0.950 . S
C958 C956 1.391 . S
C958 C959 1.400 . S
C959 C958 1.400 . S
C959 C960 1.398 . S
C959 C965 1.491 1_565 S
C960 H951 0.950 . S
C960 C959 1.398 . S
C960 C961 1.391 . S
C961 H949 0.950 . S
C961 C957 1.393 . S
C961 C960 1.391 . S
C962 H952 0.950 . S
C962 C963 1.386 . S
C962 C964 1.391 . S
C963 C962 1.386 . S
C963 C967 1.393 . S
C964 H953 0.950 . S
C964 C962 1.391 . S
C964 C965 1.400 . S
C965 C959 1.491 1_545 S
C965 C964 1.400 . S
C965 C966 1.398 . S
C966 H954 0.950 . S
C966 C965 1.398 . S
C966 C967 1.391 . S
C967 H955 0.950 . S
C967 C963 1.393 . S
C967 C966 1.391 . S
H968 C976 0.950 . S
H969 C981 0.950 . S
H970 C978 0.950 . S
H971 C980 0.950 . S
H972 C982 0.950 . S
H973 C984 0.950 . S
H974 C986 0.950 . S
H975 C987 0.950 . S
C976 H968 0.950 . S
C976 C977 1.386 . S
C976 C978 1.391 . S
C977 C976 1.386 . S
C977 C981 1.393 . S
C978 H970 0.950 . S
C978 C976 1.391 . S
C978 C979 1.400 . S
C979 C978 1.400 . S
C979 C980 1.398 . S
C979 C985 1.491 . S
C980 H971 0.950 . S
C980 C979 1.398 . S
C980 C981 1.391 . S
C981 H969 0.950 . S
C981 C977 1.393 . S
C981 C980 1.391 . S
C982 H972 0.950 . S
C982 C983 1.386 . S
C982 C984 1.391 . S
C983 C982 1.386 . S
C983 C987 1.393 . S
C984 H973 0.950 . S
C984 C982 1.391 . S
C984 C985 1.400 . S
C985 C979 1.491 . S
C985 C984 1.400 . S
C985 C986 1.398 . S
C986 H974 0.950 . S
C986 C985 1.398 . S
C986 C987 1.391 . S
C987 H975 0.950 . S
C987 C983 1.393 . S
C987 C986 1.391 . S
H988 C996 0.950 . S
H989 C1001 0.950 . S
H990 C998 0.950 . S
H991 C1000 0.950 . S
H992 C1002 0.950 . S
H993 C1004 0.950 . S
H994 C1006 0.950 . S
H995 C1007 0.950 . S
C996 H988 0.950 . S
C996 C997 1.386 . S
C996 C998 1.391 . S
C997 C996 1.386 . S
C997 C1001 1.393 . S
C998 H990 0.950 . S
C998 C996 1.391 . S
C998 C999 1.400 . S
C999 C998 1.400 . S
C999 C1000 1.398 . S
C999 C1005 1.491 1_455 S
C1000 H991 0.950 . S
C1000 C999 1.398 . S
C1000 C1001 1.391 . S
C1001 H989 0.950 . S
C1001 C997 1.393 . S
C1001 C1000 1.391 . S
C1002 H992 0.950 . S
C1002 C1003 1.386 . S
C1002 C1004 1.391 . S
C1003 C1002 1.386 . S
C1003 C1007 1.393 . S
C1004 H993 0.950 . S
C1004 C1002 1.391 . S
C1004 C1005 1.400 . S
C1005 C999 1.491 1_655 S
C1005 C1004 1.400 . S
C1005 C1006 1.398 . S
C1006 H994 0.950 . S
C1006 C1005 1.398 . S
C1006 C1007 1.391 . S
C1007 H995 0.950 . S
C1007 C1003 1.393 . S
C1007 C1006 1.391 . S
C417 C292 1.514 . S
C423 C20 1.517 . S
C437 C326 1.515 . S
C443 C54 1.517 . S
C457 C360 1.517 . S
C463 C88 1.514 . S
C477 C394 1.514 . S
C483 C122 1.517 . S
C497 C156 1.517 . S
C503 C224 1.514 . S
C517 C258 1.515 . S
C523 C190 1.517 . S
C537 C9 1.232 . S
C543 C5 1.250 . S
C557 C39 1.255 . S
C563 C43 1.223 . S
C577 C73 1.255 . S
C583 C77 1.227 . S
C597 C107 1.247 . S
C603 C111 1.244 . S
C617 C141 1.249 1_554 S
C623 C145 1.243 . S
C637 C175 1.251 . S
C643 C179 1.239 . S
C657 C213 1.244 . S
C663 C209 1.247 . S
C677 C243 1.250 . S
C683 C247 1.241 . S
C697 C281 1.223 . S
C703 C277 1.254 . S
C717 C315 1.222 . S
C723 C311 1.256 1_556 S
C737 C349 1.238 . S
C743 C345 1.248 . S
C757 C379 1.252 . S
C763 C383 1.226 . S
C777 C33 1.603 . S
C783 C373 1.603 . S
C797 C67 1.610 . S
C803 C407 1.613 . S
C817 C101 1.605 . S
C823 C237 1.603 . S
C837 C271 1.611 . S
C843 C135 1.613 . S
C857 C305 1.603 . S
C863 C169 1.604 . S
C877 C339 1.611 . S
C883 C203 1.608 . S
C897 C2 1.571 . S
C903 C240 1.569 . S
C917 C274 1.577 . S
C923 C36 1.578 . S
C937 C308 1.572 . S
C943 C70 1.575 . S
C957 C104 1.570 . S
C963 C342 1.573 . S
C977 C376 1.570 . S
C983 C138 1.569 . S
C997 C172 1.569 . S
C1003 C206 1.570 . S
