# Generated by pormake.
# Topology ofo, (3)-cn, num edge types: 1
# Building blocks:
#     Node 0, Type 0, BuildingBlock: OLANEW_clean_sbu_2, # of connection points: 3
#     Node 1, Type 0, BuildingBlock: OLANEW_clean_sbu_2, # of connection points: 3
#     Node 2, Type 0, BuildingBlock: OLANEW_clean_sbu_2, # of connection points: 3
#     Node 3, Type 0, BuildingBlock: OLANEW_clean_sbu_2, # of connection points: 3
#     Node 4, Type 0, BuildingBlock: OLANEW_clean_sbu_2, # of connection points: 3
#     Node 5, Type 0, BuildingBlock: OLANEW_clean_sbu_2, # of connection points: 3
#     Node 6, Type 0, BuildingBlock: OLANEW_clean_sbu_2, # of connection points: 3
#     Node 7, Type 0, BuildingBlock: OLANEW_clean_sbu_2, # of connection points: 3
#     Node 8, Type 0, BuildingBlock: OLANEW_clean_sbu_2, # of connection points: 3
#     Node 9, Type 0, BuildingBlock: OLANEW_clean_sbu_2, # of connection points: 3
#     Node 10, Type 0, BuildingBlock: OLANEW_clean_sbu_2, # of connection points: 3
#     Node 11, Type 0, BuildingBlock: OLANEW_clean_sbu_2, # of connection points: 3
#     Edge 12, Type (0, 0), BuildingBlock: TEMPAE_clean_linker_10, # of connection points: 2
#     Edge 13, Type (0, 0), BuildingBlock: TEMPAE_clean_linker_10, # of connection points: 2
#     Edge 14, Type (0, 0), BuildingBlock: TEMPAE_clean_linker_10, # of connection points: 2
#     Edge 15, Type (0, 0), BuildingBlock: TEMPAE_clean_linker_10, # of connection points: 2
#     Edge 16, Type (0, 0), BuildingBlock: TEMPAE_clean_linker_10, # of connection points: 2
#     Edge 17, Type (0, 0), BuildingBlock: TEMPAE_clean_linker_10, # of connection points: 2
#     Edge 18, Type (0, 0), BuildingBlock: TEMPAE_clean_linker_10, # of connection points: 2
#     Edge 19, Type (0, 0), BuildingBlock: TEMPAE_clean_linker_10, # of connection points: 2
#     Edge 20, Type (0, 0), BuildingBlock: TEMPAE_clean_linker_10, # of connection points: 2
#     Edge 21, Type (0, 0), BuildingBlock: TEMPAE_clean_linker_10, # of connection points: 2
#     Edge 22, Type (0, 0), BuildingBlock: TEMPAE_clean_linker_10, # of connection points: 2
#     Edge 23, Type (0, 0), BuildingBlock: TEMPAE_clean_linker_10, # of connection points: 2
#     Edge 24, Type (0, 0), BuildingBlock: TEMPAE_clean_linker_10, # of connection points: 2
#     Edge 25, Type (0, 0), BuildingBlock: TEMPAE_clean_linker_10, # of connection points: 2
#     Edge 26, Type (0, 0), BuildingBlock: TEMPAE_clean_linker_10, # of connection points: 2
#     Edge 27, Type (0, 0), BuildingBlock: TEMPAE_clean_linker_10, # of connection points: 2
#     Edge 28, Type (0, 0), BuildingBlock: TEMPAE_clean_linker_10, # of connection points: 2
#     Edge 29, Type (0, 0), BuildingBlock: TEMPAE_clean_linker_10, # of connection points: 2
# Relax obj value: 0.000
# Max RMSD: 0.045
# Mean RMSD: 0.045
data_MOF--net-ofo--node1-OLANEW_clean_sbu_2--edge1-TEMPAE_clean_linker_10
_symmetry_space_group_name_H-M    P1
_symmetry_Int_Tables_number       1
_symmetry_cell_setting            triclinic
loop_
_symmetry_equiv_pos_as_xyz
'x, y, z'
_cell_length_a     23.471183
_cell_length_b     23.510508
_cell_length_c     81.720856
_cell_angle_alpha  89.935569
_cell_angle_beta   90.159649
_cell_angle_gamma 119.76226
loop_
_atom_site_label
_atom_site_type_symbol
_atom_site_fract_x
_atom_site_fract_y
_atom_site_fract_z
_atom_type_partial_charge
O0 O 0.44713 0.22684 0.03159 0.0
Cd1 Cd 0.41765 0.31286 0.03373 0.0
O2 O 0.45567 0.23895 0.05813 0.0
Cd3 Cd 0.48189 0.22975 0.08333 0.0
O4 O 0.51254 0.25752 0.10877 0.0
C5 C 0.53748 0.3179 0.11234 0.0
O6 O 0.54369 0.35925 0.10071 0.0
C7 C 0.46027 0.21068 0.04534 0.0
C8 C 0.29897 0.28642 0.01941 0.0
O9 O 0.35337 0.31924 0.01174 0.0
O10 O 0.30046 0.26449 0.03368 0.0
O11 O 0.23808 0.45406 0.70857 0.0
Cd12 Cd 0.13005 0.43697 0.71638 0.0
O13 O 0.23628 0.38687 0.72759 0.0
Cd14 Cd 0.15203 0.38238 0.74035 0.0
O15 O 0.10292 0.40688 0.75966 0.0
C16 C 0.13465 0.42625 0.77304 0.0
O17 O 0.1914 0.42808 0.77421 0.0
C18 C 0.26403 0.42357 0.7153 0.0
C19 C 0.03065 0.34122 0.69688 0.0
O20 O 0.05821 0.40204 0.69305 0.0
O21 O 0.05 0.32572 0.70997 0.0
O22 O 0.77375 0.2215 0.36467 0.0
Cd23 Cd 0.68051 0.11287 0.37074 0.0
O24 O 0.80799 0.23198 0.39018 0.0
Cd25 Cd 0.72009 0.15012 0.40078 0.0
O26 O 0.65521 0.12812 0.42191 0.0
C27 C 0.68093 0.16863 0.43364 0.0
O28 O 0.74191 0.21627 0.43211 0.0
C29 C 0.81653 0.25357 0.37559 0.0
C30 C 0.68795 0.01077 0.35514 0.0
O31 O 0.65652 0.03675 0.34864 0.0
O32 O 0.71634 0.03342 0.36893 0.0
O33 O 0.56739 0.81287 0.04624 0.0
Cd34 Cd 0.59182 0.72372 0.05006 0.0
O35 O 0.61791 0.8626 0.069 0.0
Cd36 Cd 0.62139 0.77802 0.07905 0.0
O37 O 0.59085 0.70627 0.09897 0.0
C38 C 0.57329 0.72348 0.1119 0.0
O39 O 0.57664 0.78096 0.11211 0.0
C40 C 0.58855 0.86185 0.05583 0.0
C41 C 0.67548 0.72278 0.02578 0.0
O42 O 0.61295 0.68979 0.02408 0.0
O43 O 0.69844 0.75633 0.03892 0.0
O44 O 0.74697 0.52868 0.67553 0.0
Cd45 Cd 0.85812 0.54427 0.67387 0.0
O46 O 0.75589 0.51251 0.70154 0.0
Cd47 Cd 0.7234 0.4836 0.72684 0.0
O48 O 0.70909 0.45028 0.75232 0.0
C49 C 0.71826 0.40294 0.7561 0.0
O50 O 0.73495 0.37521 0.74455 0.0
C51 C 0.72186 0.51539 0.68975 0.0
C52 C 0.95257 0.6586 0.65852 0.0
O53 O 0.92052 0.60488 0.65052 0.0
O54 O 0.93868 0.65868 0.67368 0.0
O55 O 0.22761 0.74697 0.36973 0.0
Cd56 Cd 0.31746 0.85649 0.37654 0.0
O57 O 0.17181 0.74398 0.39164 0.0
Cd58 Cd 0.25352 0.82629 0.40423 0.0
O59 O 0.31575 0.8582 0.42617 0.0
C60 C 0.28765 0.82889 0.43933 0.0
O61 O 0.22477 0.78536 0.43883 0.0
C62 C 0.17545 0.71861 0.37822 0.0
C63 C 0.31676 0.9524 0.35637 0.0
O64 O 0.34992 0.92447 0.35255 0.0
O65 O 0.28403 0.93504 0.36974 0.0
O66 O 0.77991 0.5017 0.29134 0.0
Cd67 Cd 0.68463 0.51561 0.28603 0.0
O68 O 0.82753 0.55603 0.26888 0.0
Cd69 Cd 0.74007 0.5508 0.25796 0.0
O70 O 0.68479 0.51196 0.2352 0.0
C71 C 0.71462 0.49567 0.22489 0.0
O72 O 0.77278 0.50443 0.22883 0.0
C73 C 0.82961 0.52776 0.28196 0.0
C74 C 0.69117 0.62473 0.3016 0.0
O75 O 0.6618 0.56794 0.30829 0.0
O76 O 0.71809 0.63009 0.28763 0.0
O77 O 0.18134 0.79944 0.92315 0.0
Cd78 Cd 0.06869 0.71519 0.91655 0.0
O79 O 0.19281 0.85439 0.90041 0.0
Cd80 Cd 0.1094 0.77351 0.88781 0.0
O81 O 0.07959 0.70872 0.86639 0.0
C82 C 0.05077 0.64652 0.86717 0.0
O83 O 0.03335 0.61792 0.88154 0.0
C84 C 0.21453 0.84996 0.91435 0.0
C85 C 0.98061 0.71471 0.93972 0.0
O86 O 0.00626 0.67798 0.94143 0.0
O87 O -0.00377 0.75132 0.92699 0.0
O88 O 0.47588 0.26094 0.60562 0.0
Cd89 Cd 0.45699 0.15518 0.59539 0.0
O90 O 0.42039 0.26938 0.58491 0.0
Cd91 Cd 0.4181 0.19019 0.57035 0.0
O92 O 0.44732 0.15766 0.5484 0.0
C93 C 0.44315 0.18233 0.5349 0.0
O94 O 0.41882 0.22205 0.53496 0.0
C95 C 0.45065 0.29118 0.59842 0.0
C96 C 0.34518 0.05051 0.60916 0.0
O97 O 0.40225 0.07018 0.61532 0.0
O98 O 0.34095 0.0804 0.59649 0.0
O99 O 0.22657 0.42166 0.27409 0.0
Cd100 Cd 0.31131 0.39748 0.26476 0.0
O101 O 0.17441 0.39182 0.25049 0.0
Cd102 Cd 0.25195 0.38852 0.23643 0.0
O103 O 0.30698 0.41959 0.21345 0.0
C104 C 0.36925 0.45229 0.21264 0.0
O105 O 0.40382 0.46517 0.22618 0.0
C106 C 0.17737 0.41034 0.26525 0.0
C107 C 0.31401 0.30072 0.28417 0.0
O108 O 0.35026 0.36167 0.28756 0.0
O109 O 0.27671 0.28555 0.27155 0.0
O110 O 0.68899 0.21532 0.96055 0.0
Cd111 Cd 0.79953 0.30865 0.96438 0.0
O112 O 0.71291 0.23534 0.93462 0.0
Cd113 Cd 0.6966 0.23075 0.90815 0.0
O114 O 0.70788 0.25859 0.88231 0.0
C115 C 0.65902 0.23946 0.87273 0.0
O116 O 0.59977 0.20036 0.8784 0.0
C117 C 0.67174 0.20176 0.94567 0.0
C118 C 0.89307 0.28119 0.97753 0.0
O119 O 0.86184 0.30074 0.98666 0.0
O120 O 0.87873 0.27281 0.96225 0.0
O121 O 0.5563 0.78898 0.61308 0.0
Cd122 Cd 0.57383 0.89824 0.60665 0.0
O123 O 0.5842 0.77722 0.58813 0.0
Cd124 Cd 0.57983 0.85881 0.57651 0.0
O125 O 0.54146 0.88238 0.55459 0.0
C126 C 0.53469 0.84665 0.54224 0.0
O127 O 0.55321 0.80246 0.54356 0.0
C128 C 0.56873 0.75631 0.60272 0.0
C129 C 0.67288 -0.00535 0.62612 0.0
O130 O 0.61252 0.96711 0.63046 0.0
O131 O 0.68637 0.97668 0.61255 0.0
C132 C 0.59303 0.40923 0.13256 0.0
C133 C 0.55981 0.34177 0.12923 0.0
C134 C 0.6156 0.43299 0.14838 0.0
C135 C 0.60461 0.38827 0.16122 0.0
C136 C 0.57053 0.32009 0.158 0.0
C137 C 0.54859 0.29763 0.14203 0.0
C138 C 0.65286 0.50611 0.15125 0.0
C139 C 0.55815 0.27093 0.17137 0.0
C140 C 0.72195 0.45452 0.19727 0.0
C141 C 0.68528 0.46713 0.20876 0.0
C142 C 0.69587 0.42794 0.18187 0.0
C143 C 0.63131 0.41323 0.17785 0.0
C144 C 0.59346 0.42464 0.18948 0.0
C145 C 0.62107 0.45198 0.20477 0.0
C146 C 0.73771 0.41613 0.16985 0.0
C147 C 0.52419 0.40887 0.18568 0.0
H148 H 0.60225 0.44377 0.12275 0.0
H149 H 0.52286 0.24545 0.13958 0.0
H150 H 0.63368 0.51888 0.16219 0.0
H151 H 0.70525 0.52224 0.15365 0.0
H152 H 0.65004 0.53395 0.14058 0.0
H153 H 0.52886 0.21957 0.167 0.0
H154 H 0.6056 0.2785 0.17624 0.0
H155 H 0.53181 0.27819 0.1817 0.0
H156 H 0.77156 0.46592 0.20022 0.0
H157 H 0.5923 0.46139 0.21359 0.0
H158 H 0.74608 0.44642 0.15875 0.0
H159 H 0.71194 0.3641 0.16592 0.0
H160 H 0.78613 0.42808 0.17509 0.0
H161 H 0.52519 0.44279 0.17611 0.0
H162 H 0.49873 0.41322 0.19664 0.0
H163 H 0.49514 0.35844 0.18075 0.0
C164 C 0.15015 0.47646 0.80076 0.0
C165 C 0.11081 0.45008 0.78679 0.0
C166 C 0.13123 0.50328 0.81351 0.0
C167 C 0.07111 0.50346 0.81241 0.0
C168 C 0.02983 0.47475 0.79863 0.0
C169 C 0.05039 0.44876 0.78592 0.0
C170 C 0.17673 0.53327 0.82799 0.0
C171 C 0.96508 0.47338 0.79702 0.0
C172 C 0.01826 0.53958 0.85315 0.0
C173 C 0.04571 0.60788 0.85231 0.0
C174 C 0.02195 0.50392 0.83979 0.0
C175 C 0.05432 0.53744 0.82531 0.0
C176 C 0.0781 0.60562 0.82402 0.0
C177 C 0.07336 0.63995 0.8375 0.0
C178 C -0.00547 0.43099 0.84149 0.0
C179 C 0.11235 0.64314 0.80875 0.0
H180 H 0.19677 0.47754 0.80161 0.0
H181 H 0.0195 0.42825 0.7752 0.0
H182 H 0.1936 0.58645 0.82864 0.0
H183 H 0.15032 0.51074 0.83953 0.0
H184 H 0.22054 0.52697 0.82728 0.0
H185 H 0.93278 0.43727 0.78771 0.0
H186 H 0.93877 0.46142 0.80888 0.0
H187 H 0.97422 0.52256 0.79327 0.0
H188 H -0.004 0.51415 0.86445 0.0
H189 H 0.09407 0.69257 0.83663 0.0
H190 H 0.03553 0.42046 0.84257 0.0
H191 H 0.96562 0.40497 0.83047 0.0
H192 H 0.96275 0.41089 0.85245 0.0
H193 H 0.15975 0.6439 0.80739 0.0
H194 H 0.12231 0.69452 0.80908 0.0
H195 H 0.08226 0.61864 0.79777 0.0
C196 C 0.67298 0.21066 0.46111 0.0
C197 C 0.64288 0.16476 0.44848 0.0
C198 C 0.63773 0.20997 0.475 0.0
C199 C 0.57065 0.16195 0.47641 0.0
C200 C 0.53988 0.11528 0.46375 0.0
C201 C 0.57643 0.11707 0.44995 0.0
C202 C 0.67205 0.26166 0.48802 0.0
C203 C 0.46823 0.06394 0.4647 0.0
C204 C 0.50181 0.13403 0.51961 0.0
C205 C 0.47062 0.17179 0.5196 0.0
C206 C 0.53293 0.12875 0.50549 0.0
C207 C 0.53274 0.16188 0.49101 0.0
C208 C 0.49989 0.19864 0.49082 0.0
C209 C 0.46906 0.20292 0.50508 0.0
C210 C 0.56858 0.0902 0.50632 0.0
C211 C 0.49987 0.23606 0.47578 0.0
H212 H 0.72422 0.24785 0.46008 0.0
H213 H 0.55272 0.08153 0.44024 0.0
H214 H 0.64685 0.29067 0.48952 0.0
H215 H 0.66971 0.23821 0.49997 0.0
H216 H 0.72439 0.29572 0.48504 0.0
H217 H 0.45148 0.03145 0.4538 0.0
H218 H 0.45954 0.03359 0.47577 0.0
H219 H 0.43764 0.08757 0.46585 0.0
H220 H 0.50343 0.1099 0.53077 0.0
H221 H 0.44519 0.23228 0.50494 0.0
H222 H 0.62227 0.12447 0.50663 0.0
H223 H 0.55799 0.05916 0.49529 0.0
H224 H 0.55517 0.05867 0.51738 0.0
H225 H 0.55074 0.27525 0.47309 0.0
H226 H 0.46866 0.25895 0.4773 0.0
H227 H 0.48217 0.20322 0.46497 0.0
C228 C 0.47025 0.51999 0.19587 0.0
C229 C 0.40167 0.48214 0.19687 0.0
C230 C 0.50105 0.55387 0.18147 0.0
C231 C 0.46228 0.55115 0.16785 0.0
C232 C 0.3932 0.511 0.16856 0.0
C233 C 0.36381 0.47663 0.183 0.0
C234 C 0.57493 0.59497 0.18122 0.0
C235 C 0.34996 0.50727 0.15441 0.0
C236 C 0.52859 0.70051 0.14031 0.0
C237 C 0.54725 0.67944 0.1263 0.0
C238 C 0.50155 0.65937 0.15391 0.0
C239 C 0.49304 0.59543 0.15358 0.0
C240 C 0.51259 0.57398 0.13958 0.0
C241 C 0.53939 0.61623 0.12607 0.0
C242 C 0.48114 0.68412 0.16856 0.0
C243 C 0.50412 0.50609 0.13873 0.0
H244 H 0.50008 0.52428 0.20646 0.0
H245 H 0.31078 0.44744 0.18361 0.0
H246 H 0.59492 0.59602 0.16887 0.0
H247 H 0.58946 0.64605 0.18465 0.0
H248 H 0.59784 0.57648 0.19011 0.0
H249 H 0.29766 0.47 0.15641 0.0
H250 H 0.35338 0.5557 0.15267 0.0
H251 H 0.36679 0.49536 0.14292 0.0
H252 H 0.53449 0.74924 0.14064 0.0
H253 H 0.55355 0.59945 0.11529 0.0
H254 H 0.50836 0.68321 0.17958 0.0
H255 H 0.42807 0.65155 0.171 0.0
H256 H 0.49037 0.73487 0.1668 0.0
H257 H 0.52124 0.49431 0.15022 0.0
H258 H 0.53113 0.50065 0.12826 0.0
H259 H 0.45133 0.46955 0.1373 0.0
C260 C 0.71658 0.32437 0.77708 0.0
C261 C 0.71079 0.37951 0.77325 0.0
C262 C 0.7093 0.30126 0.79322 0.0
C263 C 0.69623 0.33421 0.80587 0.0
C264 C 0.69098 0.39027 0.80213 0.0
C265 C 0.69812 0.41213 0.78586 0.0
C266 C 0.71508 0.24122 0.79671 0.0
C267 C 0.67771 0.42709 0.81532 0.0
C268 C 0.61511 0.24072 0.84482 0.0
C269 C 0.66877 0.26276 0.85553 0.0
C270 C 0.62345 0.26338 0.82862 0.0
C271 C 0.68695 0.3094 0.82299 0.0
C272 C 0.74139 0.33175 0.83371 0.0
C273 C 0.73168 0.308 0.84983 0.0
C274 C 0.56422 0.23819 0.81753 0.0
C275 C 0.80991 0.38073 0.82816 0.0
H276 H 0.72642 0.29885 0.76743 0.0
H277 H 0.69389 0.45494 0.78304 0.0
H278 H 0.75481 0.25319 0.80574 0.0
H279 H 0.66879 0.20237 0.80218 0.0
H280 H 0.72563 0.22135 0.78551 0.0
H281 H 0.67613 0.47042 0.81045 0.0
H282 H 0.63016 0.39415 0.82133 0.0
H283 H 0.71634 0.44381 0.82489 0.0
H284 H 0.56637 0.20575 0.8491 0.0
H285 H 0.77349 0.32533 0.85799 0.0
H286 H 0.57145 0.2148 0.80655 0.0
H287 H 0.55808 0.27959 0.81322 0.0
H288 H 0.51831 0.20195 0.82373 0.0
H289 H 0.84628 0.39633 0.83829 0.0
H290 H 0.81084 0.42482 0.82298 0.0
H291 H 0.82545 0.35893 0.81832 0.0
C292 C 0.4783 0.89457 0.52565 0.0
C293 C 0.50282 0.85112 0.52695 0.0
C294 C 0.44463 0.89586 0.51151 0.0
C295 C 0.43558 0.85293 0.49835 0.0
C296 C 0.461 0.80965 0.49953 0.0
C297 C 0.49443 0.80945 0.51376 0.0
C298 C 0.41744 0.94204 0.51081 0.0
C299 C 0.45115 0.762 0.48595 0.0
C300 C 0.29343 0.80381 0.46883 0.0
C301 C 0.32536 0.83935 0.45472 0.0
C302 C 0.32854 0.8089 0.48319 0.0
C303 C 0.39737 0.85113 0.48357 0.0
C304 C 0.4298 0.8884 0.4695 0.0
C305 C 0.39343 0.88197 0.45523 0.0
C306 C 0.29224 0.76684 0.49774 0.0
C307 C 0.50326 0.93302 0.46925 0.0
H308 H 0.48443 0.92686 0.53578 0.0
H309 H 0.51306 0.77561 0.51464 0.0
H310 H 0.43461 0.97215 0.49957 0.0
H311 H 0.3631 0.91373 0.51021 0.0
H312 H 0.43204 0.97507 0.5216 0.0
H313 H 0.47437 0.73184 0.48874 0.0
H314 H 0.39791 0.7287 0.48386 0.0
H315 H 0.47203 0.7888 0.47436 0.0
H316 H 0.24089 0.77059 0.46857 0.0
H317 H 0.41863 0.90941 0.44438 0.0
H318 H 0.30242 0.79751 0.50884 0.0
H319 H 0.30965 0.73158 0.50024 0.0
H320 H 0.23831 0.73882 0.49573 0.0
H321 H 0.52052 0.96126 0.48079 0.0
H322 H 0.5192 0.96771 0.45878 0.0
H323 H 0.52768 0.90316 0.46816 0.0
C324 C 0.51964 0.15661 0.03367 0.0
C325 C 0.48181 0.16142 0.04627 0.0
C326 C 0.54041 0.10997 0.03434 0.0
C327 C 0.52129 0.06596 0.04772 0.0
C328 C 0.48225 0.07009 0.06035 0.0
C329 C 0.46355 0.11824 0.05955 0.0
C330 C 0.58321 0.10813 0.02083 0.0
C331 C 0.4595 0.02307 0.07462 0.0
C332 C 0.52022 0.9045 0.04302 0.0
C333 C 0.57507 0.91592 0.05238 0.0
C334 C 0.50263 0.95323 0.04119 0.0
C335 C 0.54181 0.01536 0.04855 0.0
C336 C 0.59895 0.02808 0.05738 0.0
C337 C 0.6144 0.97793 0.05938 0.0
C338 C 0.44064 0.93731 0.03196 0.0
C339 C 0.64297 0.09422 0.06503 0.0
H340 H 0.5339 0.19013 0.0234 0.0
H341 H 0.43308 0.12093 0.06911 0.0
H342 H 0.62976 0.11459 0.02605 0.0
H343 H 0.55828 0.05972 0.01467 0.0
H344 H 0.59506 0.1468 0.01149 0.0
H345 H 0.42814 0.03189 0.08323 0.0
H346 H 0.43128 0.97191 0.07008 0.0
H347 H 0.50246 0.02765 0.08146 0.0
H348 H 0.48937 0.8565 0.0377 0.0
H349 H 0.65712 0.98713 0.06653 0.0
H350 H 0.45152 0.97343 0.02202 0.0
H351 H 0.40531 0.94062 0.04035 0.0
H352 H 0.41675 0.88742 0.02652 0.0
H353 H 0.65701 0.13354 0.05579 0.0
H354 H 0.68835 0.09787 0.07031 0.0
H355 H 0.61622 0.10339 0.07491 0.0
C356 C 0.36954 0.4884 0.70001 0.0
C357 C 0.32812 0.4334 0.70948 0.0
C358 C 0.43283 0.50148 0.69568 0.0
C359 C 0.45482 0.45795 0.70072 0.0
C360 C 0.41213 0.40083 0.70965 0.0
C361 C 0.34958 0.38959 0.71406 0.0
C362 C 0.47714 0.56337 0.68634 0.0
C363 C 0.43314 0.35238 0.71491 0.0
C364 C 0.60576 0.46913 0.68034 0.0
C365 C 0.65395 0.5018 0.69236 0.0
C366 C 0.54058 0.45428 0.68287 0.0
C367 C 0.52378 0.47412 0.6976 0.0
C368 C 0.57282 0.50874 0.70955 0.0
C369 C 0.63719 0.52168 0.70684 0.0
C370 C 0.48951 0.41623 0.66997 0.0
C371 C 0.55732 0.53219 0.72523 0.0
H372 H 0.35344 0.52262 0.69646 0.0
H373 H 0.31765 0.34666 0.72124 0.0
H374 H 0.51863 0.59708 0.69431 0.0
H375 H 0.49843 0.55223 0.67555 0.0
H376 H 0.45091 0.58915 0.68212 0.0
H377 H 0.39227 0.30766 0.72049 0.0
H378 H 0.45218 0.3377 0.70427 0.0
H379 H 0.47357 0.3756 0.72398 0.0
H380 H 0.61872 0.45378 0.66912 0.0
H381 H 0.67476 0.54851 0.71594 0.0
H382 H 0.46553 0.44424 0.66587 0.0
H383 H 0.45062 0.36946 0.67523 0.0
H384 H 0.51064 0.40497 0.65913 0.0
H385 H 0.53546 0.56348 0.72241 0.0
H386 H 0.60154 0.5606 0.73299 0.0
H387 H 0.52059 0.48969 0.73239 0.0
C388 C 0.13202 0.61247 0.36297 0.0
C389 C 0.12091 0.65336 0.3734 0.0
C390 C 0.08337 0.5468 0.3605 0.0
C391 C 0.02203 0.52196 0.36844 0.0
C392 C 0.00911 0.56438 0.37804 0.0
C393 C 0.05881 0.62938 0.38049 0.0
C394 C 0.09931 0.50294 0.35036 0.0
C395 C 0.94405 0.54011 0.38655 0.0
C396 C 0.87314 0.35632 0.3587 0.0
C397 C 0.87379 0.31874 0.37199 0.0
C398 C 0.92266 0.42216 0.35691 0.0
C399 C 0.97432 0.45035 0.36853 0.0
C400 C 0.97726 0.41126 0.38132 0.0
C401 C 0.92688 0.34617 0.38294 0.0
C402 C 0.91815 0.46243 0.34309 0.0
C403 C 0.03177 0.43915 0.39389 0.0
H404 H 0.17994 0.63064 0.35747 0.0
H405 H 0.04962 0.66092 0.3884 0.0
H406 H 0.10608 0.46907 0.35854 0.0
H407 H 0.05829 0.47243 0.34191 0.0
H408 H 0.14495 0.53139 0.34315 0.0
H409 H 0.93927 0.58073 0.39206 0.0
H410 H 0.90292 0.51316 0.37784 0.0
H411 H 0.93897 0.50546 0.39643 0.0
H412 H 0.83231 0.33539 0.35018 0.0
H413 H 0.92813 0.31723 0.39313 0.0
H414 H 0.96251 0.48148 0.3353 0.0
H415 H 0.91645 0.50546 0.34807 0.0
H416 H 0.87402 0.43378 0.33534 0.0
H417 H 0.0803 0.46423 0.38778 0.0
H418 H 0.03014 0.40084 0.40217 0.0
H419 H 0.02777 0.47621 0.40144 0.0
C420 C 0.94499 0.55645 0.27611 0.0
C421 C 0.88679 0.5184 0.28485 0.0
C422 C -0.00516 0.54011 0.27582 0.0
C423 C -0.01388 0.48397 0.28438 0.0
C424 C 0.92978 0.44826 0.29425 0.0
C425 C 0.88084 0.46622 0.29447 0.0
C426 C 0.05455 0.58012 0.26532 0.0
C427 C 0.91926 0.38852 0.30366 0.0
C428 C 0.0663 0.39939 0.26285 0.0
C429 C 0.12523 0.42255 0.27158 0.0
C430 C 0.01925 0.41644 0.26745 0.0
C431 C 0.03145 0.45813 0.28108 0.0
C432 C 0.08941 0.4793 0.29042 0.0
C433 C 0.13561 0.46106 0.28559 0.0
C434 C 0.95778 0.39223 0.25722 0.0
C435 C 0.10448 0.5242 0.30493 0.0
H436 H 0.95035 0.5974 0.26883 0.0
H437 H 0.83614 0.43677 0.30132 0.0
H438 H 0.10004 0.59209 0.27216 0.0
H439 H 0.05256 0.55112 0.25441 0.0
H440 H 0.05768 0.62651 0.26109 0.0
H441 H 0.87392 0.36719 0.31117 0.0
H442 H 0.91566 0.35046 0.29503 0.0
H443 H 0.96184 0.4013 0.3118 0.0
H444 H 0.05752 0.36906 0.25211 0.0
H445 H 0.18106 0.47926 0.29241 0.0
H446 H 0.95815 0.43426 0.25092 0.0
H447 H 0.91364 0.36908 0.26513 0.0
H448 H 0.95331 0.35613 0.24781 0.0
H449 H 0.11952 0.57438 0.30055 0.0
H450 H 0.14487 0.52657 0.31254 0.0
H451 H 0.06036 0.50808 0.31268 0.0
C452 C 0.55165 0.13929 0.95148 0.0
C453 C 0.60442 0.15008 0.94145 0.0
C454 C 0.48715 0.09125 0.94753 0.0
C455 C 0.47546 0.05191 0.93344 0.0
C456 C 0.52886 0.06179 0.92345 0.0
C457 C 0.59267 0.11121 0.92749 0.0
C458 C 0.43146 0.08323 0.95831 0.0
C459 C 0.51867 0.01984 0.90854 0.0
C460 C 0.31652 0.88854 0.93115 0.0
C461 C 0.27977 0.90241 0.91992 0.0
C462 C 0.38032 0.93669 0.93566 0.0
C463 C 0.40736 0.00066 0.92908 0.0
C464 C 0.36972 0.01542 0.9181 0.0
C465 C 0.30671 0.96591 0.91349 0.0
C466 C 0.41941 0.91866 0.94713 0.0
C467 C 0.39617 0.08343 0.91113 0.0
H468 H 0.56068 0.16945 0.96227 0.0
H469 H 0.63359 0.11846 0.91993 0.0
H470 H 0.39578 0.09058 0.95097 0.0
H471 H 0.40478 0.03275 0.9633 0.0
H472 H 0.44875 0.11839 0.96869 0.0
H473 H 0.56557 0.0325 0.90235 0.0
H474 H 0.49387 0.96738 0.91209 0.0
H475 H 0.48623 0.02578 0.89964 0.0
H476 H 0.29616 0.83941 0.93605 0.0
H477 H 0.27836 0.977 0.90488 0.0
H478 H 0.4345 0.95061 0.9581 0.0
H479 H 0.46492 0.9267 0.94097 0.0
H480 H 0.39129 0.86676 0.95117 0.0
H481 H 0.4116 0.11981 0.92119 0.0
H482 H 0.35945 0.08772 0.90341 0.0
H483 H 0.44022 0.09651 0.90359 0.0
C484 C 0.52158 0.65551 0.62038 0.0
C485 C 0.56006 0.69115 0.60697 0.0
C486 C 0.50433 0.58957 0.62276 0.0
C487 C 0.52632 0.55899 0.61147 0.0
C488 C 0.56928 0.59637 0.59868 0.0
C489 C 0.58539 0.66179 0.59656 0.0
C490 C 0.4589 0.55172 0.63663 0.0
C491 C 0.59482 0.5661 0.58651 0.0
C492 C 0.51267 0.39193 0.61577 0.0
C493 C 0.46177 0.35514 0.60464 0.0
C494 C 0.53148 0.45759 0.6192 0.0
C495 C 0.49821 0.4866 0.61141 0.0
C496 C 0.44308 0.44778 0.60136 0.0
C497 C 0.42575 0.38269 0.59805 0.0
C498 C 0.58972 0.49713 0.63023 0.0
C499 C 0.40532 0.47634 0.59307 0.0
H500 H 0.502 0.67792 0.62853 0.0
H501 H 0.61601 0.68928 0.58632 0.0
H502 H 0.40818 0.52219 0.63183 0.0
H503 H 0.47286 0.51738 0.64222 0.0
H504 H 0.45872 0.58484 0.64629 0.0
H505 H 0.63307 0.60332 0.57839 0.0
H506 H 0.6158 0.53912 0.59296 0.0
H507 H 0.55371 0.5303 0.57876 0.0
H508 H 0.54037 0.37079 0.62105 0.0
H509 H 0.38558 0.35424 0.58968 0.0
H510 H 0.57749 0.52359 0.63956 0.0
H511 H 0.63115 0.53453 0.62289 0.0
H512 H 0.60629 0.46603 0.63656 0.0
H513 H 0.39288 0.504 0.60198 0.0
H514 H 0.35924 0.43799 0.5873 0.0
H515 H 0.43625 0.5112 0.58341 0.0
C516 C 0.96946 0.23592 0.97561 0.0
C517 C 0.94687 0.27242 0.98421 0.0
C518 C 0.02374 0.23148 0.98124 0.0
C519 C 0.05711 0.26572 -0.00442 0.0
C520 C 0.03364 0.30154 0.00448 0.0
C521 C 0.97834 0.30382 -0.00121 0.0
C522 C 0.04626 0.19142 0.97165 0.0
C523 C 0.0685 0.33966 0.01967 0.0
C524 C 0.17616 0.22841 0.01841 0.0
C525 C 0.23679 0.27736 0.01241 0.0
C526 C 0.117 0.22235 0.01259 0.0
C527 C 0.11872 0.26736 0.00081 0.0
C528 C 0.1798 0.3162 -0.00548 0.0
C529 C 0.23804 0.3201 0.00026 0.0
C530 C 0.05278 0.1686 0.01928 0.0
C531 C 0.18383 0.36589 0.98216 0.0
H532 H 0.94498 0.21116 0.9644 0.0
H533 H 0.96131 0.33239 0.00544 0.0
H534 H 0.09506 0.2242 0.9662 0.0
H535 H 0.05182 0.15691 0.97989 0.0
H536 H 0.01155 0.16298 0.96166 0.0
H537 H 0.04293 0.36355 0.02543 0.0
H538 H 0.0725 0.30685 0.02879 0.0
H539 H 0.11918 0.37808 0.01651 0.0
H540 H 0.17496 0.19497 0.02773 0.0
H541 H 0.28478 0.35828 -0.00435 0.0
H542 H 0.01934 0.14028 0.00909 0.0
H543 H 0.02819 0.19034 0.02642 0.0
H544 H 0.05961 0.13434 0.02733 0.0
H545 H 0.15426 0.34069 0.97117 0.0
H546 H 0.23507 0.4 0.97828 0.0
H547 H 0.16299 0.39502 0.98748 0.0
C548 C 0.7917 0.07047 0.63246 0.0
C549 C 0.72541 0.04561 0.63647 0.0
C550 C 0.84193 0.11845 0.6422 0.0
C551 C 0.82553 0.14254 0.65624 0.0
C552 C 0.75874 0.11786 0.66032 0.0
C553 C 0.70951 0.06955 0.65042 0.0
C554 C 0.91259 0.14324 0.63751 0.0
C555 C 0.73926 0.1426 0.67513 0.0
C556 C 0.95325 0.22367 0.68987 0.0
C557 C 0.97816 0.29041 0.6865 0.0
C558 C 0.9038 0.17505 0.68008 0.0
C559 C 0.87826 0.19357 0.66667 0.0
C560 C 0.90303 0.26084 0.66323 0.0
C561 C 0.95282 0.30843 0.67315 0.0
C562 C 0.87897 0.10384 0.68408 0.0
C563 C 0.87679 0.28255 0.6491 0.0
H564 H 0.80446 0.05215 0.62172 0.0
H565 H 0.65844 0.05075 0.6536 0.0
H566 H 0.93775 0.19691 0.63541 0.0
H567 H 0.93877 0.13443 0.64765 0.0
H568 H 0.91714 0.11921 0.62628 0.0
H569 H 0.68516 0.11876 0.67655 0.0
H570 H 0.76021 0.13352 0.68636 0.0
H571 H 0.75958 0.19633 0.67417 0.0
H572 H 0.97266 0.20929 0.70013 0.0
H573 H 0.97167 0.35986 0.67047 0.0
H574 H 0.88615 0.07887 0.67343 0.0
H575 H 0.82553 0.07882 0.6866 0.0
H576 H 0.9043 0.09758 0.69485 0.0
H577 H 0.88418 0.26291 0.63745 0.0
H578 H 0.90099 0.33675 0.64812 0.0
H579 H 0.8232 0.26259 0.65054 0.0
C580 C 0.73351 0.93465 0.35282 0.0
C581 C 0.69056 0.95559 0.34707 0.0
C582 C 0.73573 0.8818 0.34545 0.0
C583 C 0.69339 0.84852 0.33215 0.0
C584 C 0.64998 0.86948 0.32628 0.0
C585 C 0.64939 0.923 0.33374 0.0
C586 C 0.78327 0.86146 0.35193 0.0
C587 C 0.60356 0.83487 0.31224 0.0
C588 C 0.73356 0.74561 0.30357 0.0
C589 C 0.69294 0.68216 0.30963 0.0
C590 C 0.73482 0.80028 0.31089 0.0
C591 C 0.69386 0.79123 0.32449 0.0
C592 C 0.65281 0.72731 0.33067 0.0
C593 C 0.65315 0.67363 0.32324 0.0
C594 C 0.77985 0.86771 0.30406 0.0
C595 C 0.60791 0.71553 0.34503 0.0
H596 H 0.76569 0.95973 0.36306 0.0
H597 H 0.61587 0.93868 0.32927 0.0
H598 H 0.75596 0.81026 0.35645 0.0
H599 H 0.8159 0.86286 0.34195 0.0
H600 H 0.81414 0.89351 0.36206 0.0
H601 H 0.5729 0.85724 0.30913 0.0
H602 H 0.63165 0.83612 0.30122 0.0
H603 H 0.57067 0.78259 0.3154 0.0
H604 H 0.76464 0.75267 0.2931 0.0
H605 H 0.62141 0.62476 0.32796 0.0
H606 H 0.81332 0.89996 0.31379 0.0
H607 H 0.75062 0.89014 0.29975 0.0
H608 H 0.80986 0.86662 0.29371 0.0
H609 H 0.63702 0.74337 0.35585 0.0
H610 H 0.57898 0.66286 0.34836 0.0
H611 H 0.5734 0.73353 0.34211 0.0
C612 C 0.78815 0.7609 0.01461 0.0
C613 C 0.71982 0.72188 0.01298 0.0
C614 C 0.83071 0.76022 0.00265 0.0
C615 C 0.80441 0.71935 -0.01126 0.0
C616 C 0.7355 0.67991 0.98701 0.0
C617 C 0.69406 0.68174 -0.00087 0.0
C618 C 0.90389 0.80321 0.00491 0.0
C619 C 0.70555 0.63553 0.97239 0.0
C620 C 0.91107 0.75936 0.95075 0.0
C621 C 0.93483 0.7153 0.95213 0.0
C622 C 0.86856 0.76115 0.96256 0.0
C623 C 0.84904 0.71764 0.97604 0.0
C624 C 0.87248 0.67276 0.97745 0.0
C625 C 0.91518 0.67223 0.96551 0.0
C626 C 0.84483 0.80989 0.96065 0.0
C627 C 0.8526 0.62538 -0.0084 0.0
H628 H 0.80854 0.79215 0.02524 0.0
H629 H 0.64137 0.65136 -0.00223 0.0
H630 H 0.92768 0.77258 0.00528 0.0
H631 H 0.92498 0.83707 -0.00564 0.0
H632 H 0.91649 0.83267 0.01633 0.0
H633 H 0.65106 0.60802 0.97285 0.0
H634 H 0.72104 0.66476 0.96095 0.0
H635 H 0.7234 0.59985 0.97175 0.0
H636 H 0.92603 0.7929 0.94048 0.0
H637 H 0.93318 0.63794 0.96667 0.0
H638 H 0.85999 0.84294 0.97142 0.0
H639 H 0.79043 0.78384 0.96012 0.0
H640 H 0.86434 0.84019 0.94943 0.0
H641 H 0.8681 0.65279 0.00332 0.0
H642 H 0.87449 0.59305 -0.00918 0.0
H643 H 0.79838 0.59429 -0.00804 0.0
C644 C 0.29228 0.95368 0.62788 0.0
C645 C 0.28601 -0.0054 0.61639 0.0
C646 C 0.23671 0.89971 0.63459 0.0
C647 C 0.17329 0.88687 0.62988 0.0
C648 C 0.16662 0.92853 0.61846 0.0
C649 C 0.22307 0.98162 0.61175 0.0
C650 C 0.2459 0.85598 0.64658 0.0
C651 C 0.09986 0.91699 0.61331 0.0
C652 C 0.03203 0.71322 0.63564 0.0
C653 C 0.00613 0.71794 0.65069 0.0
C654 C 0.08595 0.76799 0.62863 0.0
C655 C 0.11406 0.82921 0.63676 0.0
C656 C 0.08689 0.83474 0.65172 0.0
C657 C 0.03358 0.77892 0.65858 0.0
C658 C 0.11397 0.75991 0.61276 0.0
C659 C 0.11484 0.8994 0.66062 0.0
H660 H 0.34074 0.96325 0.63147 0.0
H661 H 0.21785 0.01325 0.60294 0.0
H662 H 0.22216 0.85479 0.65839 0.0
H663 H 0.2218 0.80505 0.64183 0.0
H664 H 0.2985 0.87251 0.64891 0.0
H665 H 0.1031 0.95493 0.60465 0.0
H666 H 0.07163 0.86829 0.60739 0.0
H667 H 0.07169 0.9167 0.62422 0.0
H668 H 0.0113 0.66622 0.62951 0.0
H669 H 0.01362 0.78301 0.67018 0.0
H670 H 0.16548 0.7716 0.61469 0.0
H671 H 0.11471 0.79468 0.60346 0.0
H672 H 0.08551 0.70938 0.60779 0.0
H673 H 0.16603 0.91573 0.66448 0.0
H674 H 0.0858 0.89631 0.67164 0.0
H675 H 0.11637 0.93755 0.65234 0.0
C676 C 0.35564 0.02477 0.3316 0.0
C677 C 0.31631 0.0032 0.34566 0.0
C678 C 0.35591 0.07304 0.3214 0.0
C679 C 0.31568 0.10025 0.32531 0.0
C680 C 0.27567 0.07852 0.33944 0.0
C681 C 0.27657 0.0304 0.34946 0.0
C682 C 0.39942 0.09509 0.30647 0.0
C683 C 0.23187 0.10614 0.34398 0.0
C684 C 0.35887 0.26678 0.30776 0.0
C685 C 0.31487 0.24941 0.29458 0.0
C686 C 0.35988 0.21876 0.3178 0.0
C687 C 0.31563 0.15169 0.31464 0.0
C688 C 0.27114 0.1338 0.30136 0.0
C689 C 0.27139 0.18284 0.29147 0.0
C690 C 0.40827 0.2398 0.3318 0.0
C691 C 0.22301 0.06282 0.29764 0.0
H692 H 0.38656 0.00411 0.32857 0.0
H693 H 0.24592 0.01396 0.36027 0.0
H694 H 0.36927 0.08642 0.29529 0.0
H695 H 0.43436 0.14852 0.30719 0.0
H696 H 0.42784 0.06911 0.30515 0.0
H697 H 0.20333 0.08366 0.35529 0.0
H698 H 0.26186 0.15985 0.34585 0.0
H699 H 0.19704 0.09794 0.33385 0.0
H700 H 0.39272 0.31807 0.31025 0.0
H701 H 0.23715 0.16894 0.28133 0.0
H702 H 0.44016 0.21766 0.33044 0.0
H703 H 0.38163 0.22194 0.34355 0.0
H704 H 0.43988 0.29389 0.33251 0.0
H705 H 0.2498 0.03585 0.29529 0.0
H706 H 0.19172 0.05706 0.28684 0.0
H707 H 0.19079 0.03948 0.30835 0.0
loop_
_geom_bond_atom_site_label_1
_geom_bond_atom_site_label_2
_geom_bond_distance
_geom_bond_site_symmetry_2
_ccdc_geom_bond_type
O0 Cd1 2.300 . S
O0 C7 1.275 . S
Cd1 O0 2.300 . S
Cd1 O9 2.381 . S
Cd1 O10 2.378 . S
O2 Cd3 2.385 . S
O2 C7 1.255 . S
Cd3 O2 2.385 . S
Cd3 O4 2.317 . S
O4 Cd3 2.317 . S
O4 C5 1.232 . S
C5 O4 1.232 . S
C5 O6 1.218 . S
O6 C5 1.218 . S
C7 O0 1.275 . S
C7 O2 1.255 . S
C8 O9 1.258 . S
C8 O10 1.256 . S
O9 Cd1 2.381 . S
O9 C8 1.258 . S
O10 Cd1 2.378 . S
O10 C8 1.256 . S
O11 Cd12 2.300 . S
O11 C18 1.275 . S
Cd12 O11 2.300 . S
Cd12 O20 2.381 . S
Cd12 O21 2.378 . S
O13 Cd14 2.385 . S
O13 C18 1.255 . S
Cd14 O13 2.385 . S
Cd14 O15 2.317 . S
O15 Cd14 2.317 . S
O15 C16 1.232 . S
C16 O15 1.232 . S
C16 O17 1.218 . S
O17 C16 1.218 . S
C18 O11 1.275 . S
C18 O13 1.255 . S
C19 O20 1.258 . S
C19 O21 1.256 . S
O20 Cd12 2.381 . S
O20 C19 1.258 . S
O21 Cd12 2.378 . S
O21 C19 1.256 . S
O22 Cd23 2.300 . S
O22 C29 1.275 . S
Cd23 O22 2.300 . S
Cd23 O31 2.381 . S
Cd23 O32 2.378 . S
O24 Cd25 2.385 . S
O24 C29 1.255 . S
Cd25 O24 2.385 . S
Cd25 O26 2.317 . S
O26 Cd25 2.317 . S
O26 C27 1.232 . S
C27 O26 1.232 . S
C27 O28 1.218 . S
O28 C27 1.218 . S
C29 O22 1.275 . S
C29 O24 1.255 . S
C30 O31 1.258 . S
C30 O32 1.256 . S
O31 Cd23 2.381 . S
O31 C30 1.258 . S
O32 Cd23 2.378 . S
O32 C30 1.256 . S
O33 Cd34 2.300 . S
O33 C40 1.275 . S
Cd34 O33 2.300 . S
Cd34 O42 2.381 . S
Cd34 O43 2.378 . S
O35 Cd36 2.385 . S
O35 C40 1.255 . S
Cd36 O35 2.385 . S
Cd36 O37 2.317 . S
O37 Cd36 2.317 . S
O37 C38 1.232 . S
C38 O37 1.232 . S
C38 O39 1.218 . S
O39 C38 1.218 . S
C40 O33 1.275 . S
C40 O35 1.255 . S
C41 O42 1.258 . S
C41 O43 1.256 . S
O42 Cd34 2.381 . S
O42 C41 1.258 . S
O43 Cd34 2.378 . S
O43 C41 1.256 . S
O44 Cd45 2.300 . S
O44 C51 1.275 . S
Cd45 O44 2.300 . S
Cd45 O53 2.381 . S
Cd45 O54 2.378 . S
O46 Cd47 2.385 . S
O46 C51 1.255 . S
Cd47 O46 2.385 . S
Cd47 O48 2.317 . S
O48 Cd47 2.317 . S
O48 C49 1.232 . S
C49 O48 1.232 . S
C49 O50 1.218 . S
O50 C49 1.218 . S
C51 O44 1.275 . S
C51 O46 1.255 . S
C52 O53 1.258 . S
C52 O54 1.256 . S
O53 Cd45 2.381 . S
O53 C52 1.258 . S
O54 Cd45 2.378 . S
O54 C52 1.256 . S
O55 Cd56 2.300 . S
O55 C62 1.275 . S
Cd56 O55 2.300 . S
Cd56 O64 2.381 . S
Cd56 O65 2.378 . S
O57 Cd58 2.385 . S
O57 C62 1.255 . S
Cd58 O57 2.385 . S
Cd58 O59 2.317 . S
O59 Cd58 2.317 . S
O59 C60 1.232 . S
C60 O59 1.232 . S
C60 O61 1.218 . S
O61 C60 1.218 . S
C62 O55 1.275 . S
C62 O57 1.255 . S
C63 O64 1.258 . S
C63 O65 1.256 . S
O64 Cd56 2.381 . S
O64 C63 1.258 . S
O65 Cd56 2.378 . S
O65 C63 1.256 . S
O66 Cd67 2.300 . S
O66 C73 1.275 . S
Cd67 O66 2.300 . S
Cd67 O75 2.381 . S
Cd67 O76 2.378 . S
O68 Cd69 2.385 . S
O68 C73 1.255 . S
Cd69 O68 2.385 . S
Cd69 O70 2.317 . S
O70 Cd69 2.317 . S
O70 C71 1.232 . S
C71 O70 1.232 . S
C71 O72 1.218 . S
O72 C71 1.218 . S
C73 O66 1.275 . S
C73 O68 1.255 . S
C74 O75 1.258 . S
C74 O76 1.256 . S
O75 Cd67 2.381 . S
O75 C74 1.258 . S
O76 Cd67 2.378 . S
O76 C74 1.256 . S
O77 Cd78 2.300 . S
O77 C84 1.275 . S
Cd78 O77 2.300 . S
Cd78 O86 2.381 . S
Cd78 O87 2.378 . S
O79 Cd80 2.385 . S
O79 C84 1.255 . S
Cd80 O79 2.385 . S
Cd80 O81 2.317 . S
O81 Cd80 2.317 . S
O81 C82 1.232 . S
C82 O81 1.232 . S
C82 O83 1.218 . S
O83 C82 1.218 . S
C84 O77 1.275 . S
C84 O79 1.255 . S
C85 O86 1.258 . S
C85 O87 1.256 . S
O86 Cd78 2.381 . S
O86 C85 1.258 . S
O87 Cd78 2.378 . S
O87 C85 1.256 . S
O88 Cd89 2.300 . S
O88 C95 1.275 . S
Cd89 O88 2.300 . S
Cd89 O97 2.381 . S
Cd89 O98 2.378 . S
O90 Cd91 2.385 . S
O90 C95 1.255 . S
Cd91 O90 2.385 . S
Cd91 O92 2.317 . S
O92 Cd91 2.317 . S
O92 C93 1.232 . S
C93 O92 1.232 . S
C93 O94 1.218 . S
O94 C93 1.218 . S
C95 O88 1.275 . S
C95 O90 1.255 . S
C96 O97 1.258 . S
C96 O98 1.256 . S
O97 Cd89 2.381 . S
O97 C96 1.258 . S
O98 Cd89 2.378 . S
O98 C96 1.256 . S
O99 Cd100 2.300 . S
O99 C106 1.275 . S
Cd100 O99 2.300 . S
Cd100 O108 2.381 . S
Cd100 O109 2.378 . S
O101 Cd102 2.385 . S
O101 C106 1.255 . S
Cd102 O101 2.385 . S
Cd102 O103 2.317 . S
O103 Cd102 2.317 . S
O103 C104 1.232 . S
C104 O103 1.232 . S
C104 O105 1.218 . S
O105 C104 1.218 . S
C106 O99 1.275 . S
C106 O101 1.255 . S
C107 O108 1.258 . S
C107 O109 1.256 . S
O108 Cd100 2.381 . S
O108 C107 1.258 . S
O109 Cd100 2.378 . S
O109 C107 1.256 . S
O110 Cd111 2.300 . S
O110 C117 1.275 . S
Cd111 O110 2.300 . S
Cd111 O119 2.381 . S
Cd111 O120 2.378 . S
O112 Cd113 2.385 . S
O112 C117 1.255 . S
Cd113 O112 2.385 . S
Cd113 O114 2.317 . S
O114 Cd113 2.317 . S
O114 C115 1.232 . S
C115 O114 1.232 . S
C115 O116 1.218 . S
O116 C115 1.218 . S
C117 O110 1.275 . S
C117 O112 1.255 . S
C118 O119 1.258 . S
C118 O120 1.256 . S
O119 Cd111 2.381 . S
O119 C118 1.258 . S
O120 Cd111 2.378 . S
O120 C118 1.256 . S
O121 Cd122 2.300 . S
O121 C128 1.275 . S
Cd122 O121 2.300 . S
Cd122 O130 2.381 . S
Cd122 O131 2.378 . S
O123 Cd124 2.385 . S
O123 C128 1.255 . S
Cd124 O123 2.385 . S
Cd124 O125 2.317 . S
O125 Cd124 2.317 . S
O125 C126 1.232 . S
C126 O125 1.232 . S
C126 O127 1.218 . S
O127 C126 1.218 . S
C128 O121 1.275 . S
C128 O123 1.255 . S
C129 O130 1.258 . S
C129 O131 1.256 . S
O130 Cd122 2.381 . S
O130 C129 1.258 . S
O131 Cd122 2.378 . S
O131 C129 1.256 . S
C132 C133 1.391 . S
C132 C134 1.394 . S
C132 H148 0.931 . S
C133 C132 1.391 . S
C133 C137 1.376 . S
C134 C132 1.394 . S
C134 C135 1.369 . S
C134 C138 1.531 . S
C135 C134 1.369 . S
C135 C136 1.410 . S
C135 C143 1.503 . S
C136 C135 1.410 . S
C136 C137 1.392 . S
C136 C139 1.511 . S
C137 C133 1.376 . S
C137 C136 1.392 . S
C137 H149 0.929 . S
C138 C134 1.531 . S
C138 H150 0.960 . S
C138 H151 0.962 . S
C138 H152 0.960 . S
C139 C136 1.511 . S
C139 H153 0.961 . S
C139 H154 0.961 . S
C139 H155 0.961 . S
C140 C141 1.370 . S
C140 C142 1.363 . S
C140 H156 0.931 . S
C141 C140 1.370 . S
C141 C145 1.408 . S
C142 C140 1.363 . S
C142 C143 1.370 . S
C142 C146 1.524 . S
C143 C135 1.503 . S
C143 C142 1.370 . S
C143 C144 1.403 . S
C144 C143 1.403 . S
C144 C145 1.404 . S
C144 C147 1.539 . S
C145 C141 1.408 . S
C145 C144 1.404 . S
C145 H157 0.930 . S
C146 C142 1.524 . S
C146 H158 0.956 . S
C146 H159 0.961 . S
C146 H160 0.961 . S
C147 C144 1.539 . S
C147 H161 0.958 . S
C147 H162 0.961 . S
C147 H163 0.960 . S
H148 C132 0.931 . S
H149 C137 0.929 . S
H150 C138 0.960 . S
H151 C138 0.962 . S
H152 C138 0.960 . S
H153 C139 0.961 . S
H154 C139 0.961 . S
H155 C139 0.961 . S
H156 C140 0.931 . S
H157 C145 0.930 . S
H158 C146 0.956 . S
H159 C146 0.961 . S
H160 C146 0.961 . S
H161 C147 0.958 . S
H162 C147 0.961 . S
H163 C147 0.960 . S
C164 C165 1.391 . S
C164 C166 1.394 . S
C164 H180 0.931 . S
C165 C164 1.391 . S
C165 C169 1.376 . S
C166 C164 1.394 . S
C166 C167 1.369 . S
C166 C170 1.531 . S
C167 C166 1.369 . S
C167 C168 1.410 . S
C167 C175 1.503 . S
C168 C167 1.410 . S
C168 C169 1.392 . S
C168 C171 1.511 . S
C169 C165 1.376 . S
C169 C168 1.392 . S
C169 H181 0.929 . S
C170 C166 1.531 . S
C170 H182 0.960 . S
C170 H183 0.962 . S
C170 H184 0.960 . S
C171 C168 1.511 . S
C171 H185 0.961 1_455 S
C171 H186 0.961 . S
C171 H187 0.961 . S
C172 C173 1.370 . S
C172 C174 1.363 . S
C172 H188 0.931 . S
C173 C172 1.370 . S
C173 C177 1.408 . S
C174 C172 1.363 . S
C174 C175 1.370 . S
C174 C178 1.524 . S
C175 C167 1.503 . S
C175 C174 1.370 . S
C175 C176 1.403 . S
C176 C175 1.403 . S
C176 C177 1.404 . S
C176 C179 1.539 . S
C177 C173 1.408 . S
C177 C176 1.404 . S
C177 H189 0.930 . S
C178 C174 1.524 . S
C178 H190 0.956 . S
C178 H191 0.961 . S
C178 H192 0.961 . S
C179 C176 1.539 . S
C179 H193 0.958 . S
C179 H194 0.961 . S
C179 H195 0.960 . S
H180 C164 0.931 . S
H181 C169 0.929 . S
H182 C170 0.960 . S
H183 C170 0.962 . S
H184 C170 0.960 . S
H185 C171 0.961 1_655 S
H186 C171 0.961 . S
H187 C171 0.961 . S
H188 C172 0.931 . S
H189 C177 0.930 . S
H190 C178 0.956 . S
H191 C178 0.961 . S
H192 C178 0.961 . S
H193 C179 0.958 . S
H194 C179 0.961 . S
H195 C179 0.960 . S
C196 C197 1.391 . S
C196 C198 1.394 . S
C196 H212 0.931 . S
C197 C196 1.391 . S
C197 C201 1.376 . S
C198 C196 1.394 . S
C198 C199 1.369 . S
C198 C202 1.531 . S
C199 C198 1.369 . S
C199 C200 1.410 . S
C199 C207 1.503 . S
C200 C199 1.410 . S
C200 C201 1.392 . S
C200 C203 1.511 . S
C201 C197 1.376 . S
C201 C200 1.392 . S
C201 H213 0.929 . S
C202 C198 1.531 . S
C202 H214 0.960 . S
C202 H215 0.962 . S
C202 H216 0.960 . S
C203 C200 1.511 . S
C203 H217 0.961 . S
C203 H218 0.961 . S
C203 H219 0.961 . S
C204 C205 1.370 . S
C204 C206 1.363 . S
C204 H220 0.931 . S
C205 C204 1.370 . S
C205 C209 1.408 . S
C206 C204 1.363 . S
C206 C207 1.370 . S
C206 C210 1.524 . S
C207 C199 1.503 . S
C207 C206 1.370 . S
C207 C208 1.403 . S
C208 C207 1.403 . S
C208 C209 1.404 . S
C208 C211 1.539 . S
C209 C205 1.408 . S
C209 C208 1.404 . S
C209 H221 0.930 . S
C210 C206 1.524 . S
C210 H222 0.956 . S
C210 H223 0.961 . S
C210 H224 0.961 . S
C211 C208 1.539 . S
C211 H225 0.958 . S
C211 H226 0.961 . S
C211 H227 0.960 . S
H212 C196 0.931 . S
H213 C201 0.929 . S
H214 C202 0.960 . S
H215 C202 0.962 . S
H216 C202 0.960 . S
H217 C203 0.961 . S
H218 C203 0.961 . S
H219 C203 0.961 . S
H220 C204 0.931 . S
H221 C209 0.930 . S
H222 C210 0.956 . S
H223 C210 0.961 . S
H224 C210 0.961 . S
H225 C211 0.958 . S
H226 C211 0.961 . S
H227 C211 0.960 . S
C228 C229 1.391 . S
C228 C230 1.394 . S
C228 H244 0.931 . S
C229 C228 1.391 . S
C229 C233 1.376 . S
C230 C228 1.394 . S
C230 C231 1.369 . S
C230 C234 1.531 . S
C231 C230 1.369 . S
C231 C232 1.410 . S
C231 C239 1.503 . S
C232 C231 1.410 . S
C232 C233 1.392 . S
C232 C235 1.511 . S
C233 C229 1.376 . S
C233 C232 1.392 . S
C233 H245 0.929 . S
C234 C230 1.531 . S
C234 H246 0.960 . S
C234 H247 0.962 . S
C234 H248 0.960 . S
C235 C232 1.511 . S
C235 H249 0.961 . S
C235 H250 0.961 . S
C235 H251 0.961 . S
C236 C237 1.370 . S
C236 C238 1.363 . S
C236 H252 0.931 . S
C237 C236 1.370 . S
C237 C241 1.408 . S
C238 C236 1.363 . S
C238 C239 1.370 . S
C238 C242 1.524 . S
C239 C231 1.503 . S
C239 C238 1.370 . S
C239 C240 1.403 . S
C240 C239 1.403 . S
C240 C241 1.404 . S
C240 C243 1.539 . S
C241 C237 1.408 . S
C241 C240 1.404 . S
C241 H253 0.930 . S
C242 C238 1.524 . S
C242 H254 0.956 . S
C242 H255 0.961 . S
C242 H256 0.961 . S
C243 C240 1.539 . S
C243 H257 0.958 . S
C243 H258 0.961 . S
C243 H259 0.960 . S
H244 C228 0.931 . S
H245 C233 0.929 . S
H246 C234 0.960 . S
H247 C234 0.962 . S
H248 C234 0.960 . S
H249 C235 0.961 . S
H250 C235 0.961 . S
H251 C235 0.961 . S
H252 C236 0.931 . S
H253 C241 0.930 . S
H254 C242 0.956 . S
H255 C242 0.961 . S
H256 C242 0.961 . S
H257 C243 0.958 . S
H258 C243 0.961 . S
H259 C243 0.960 . S
C260 C261 1.391 . S
C260 C262 1.394 . S
C260 H276 0.931 . S
C261 C260 1.391 . S
C261 C265 1.376 . S
C262 C260 1.394 . S
C262 C263 1.369 . S
C262 C266 1.531 . S
C263 C262 1.369 . S
C263 C264 1.410 . S
C263 C271 1.503 . S
C264 C263 1.410 . S
C264 C265 1.392 . S
C264 C267 1.511 . S
C265 C261 1.376 . S
C265 C264 1.392 . S
C265 H277 0.929 . S
C266 C262 1.531 . S
C266 H278 0.960 . S
C266 H279 0.962 . S
C266 H280 0.960 . S
C267 C264 1.511 . S
C267 H281 0.961 . S
C267 H282 0.961 . S
C267 H283 0.961 . S
C268 C269 1.370 . S
C268 C270 1.363 . S
C268 H284 0.931 . S
C269 C268 1.370 . S
C269 C273 1.408 . S
C270 C268 1.363 . S
C270 C271 1.370 . S
C270 C274 1.524 . S
C271 C263 1.503 . S
C271 C270 1.370 . S
C271 C272 1.403 . S
C272 C271 1.403 . S
C272 C273 1.404 . S
C272 C275 1.539 . S
C273 C269 1.408 . S
C273 C272 1.404 . S
C273 H285 0.930 . S
C274 C270 1.524 . S
C274 H286 0.956 . S
C274 H287 0.961 . S
C274 H288 0.961 . S
C275 C272 1.539 . S
C275 H289 0.958 . S
C275 H290 0.961 1_655 S
C275 H291 0.960 . S
H276 C260 0.931 . S
H277 C265 0.929 . S
H278 C266 0.960 . S
H279 C266 0.962 . S
H280 C266 0.960 . S
H281 C267 0.961 . S
H282 C267 0.961 . S
H283 C267 0.961 . S
H284 C268 0.931 . S
H285 C273 0.930 . S
H286 C274 0.956 . S
H287 C274 0.961 . S
H288 C274 0.961 . S
H289 C275 0.958 . S
H290 C275 0.961 1_455 S
H291 C275 0.960 . S
C292 C293 1.391 . S
C292 C294 1.394 . S
C292 H308 0.931 . S
C293 C292 1.391 . S
C293 C297 1.376 . S
C294 C292 1.394 . S
C294 C295 1.369 . S
C294 C298 1.531 . S
C295 C294 1.369 . S
C295 C296 1.410 . S
C295 C303 1.503 . S
C296 C295 1.410 . S
C296 C297 1.392 . S
C296 C299 1.511 . S
C297 C293 1.376 . S
C297 C296 1.392 . S
C297 H309 0.929 . S
C298 C294 1.531 . S
C298 H310 0.960 . S
C298 H311 0.962 . S
C298 H312 0.960 . S
C299 C296 1.511 . S
C299 H313 0.961 . S
C299 H314 0.961 . S
C299 H315 0.961 . S
C300 C301 1.370 . S
C300 C302 1.363 . S
C300 H316 0.931 . S
C301 C300 1.370 . S
C301 C305 1.408 . S
C302 C300 1.363 . S
C302 C303 1.370 . S
C302 C306 1.524 . S
C303 C295 1.503 . S
C303 C302 1.370 . S
C303 C304 1.403 . S
C304 C303 1.403 . S
C304 C305 1.404 . S
C304 C307 1.539 . S
C305 C301 1.408 . S
C305 C304 1.404 . S
C305 H317 0.930 . S
C306 C302 1.524 . S
C306 H318 0.956 . S
C306 H319 0.961 . S
C306 H320 0.961 . S
C307 C304 1.539 . S
C307 H321 0.958 . S
C307 H322 0.961 . S
C307 H323 0.960 . S
H308 C292 0.931 . S
H309 C297 0.929 . S
H310 C298 0.960 . S
H311 C298 0.962 . S
H312 C298 0.960 . S
H313 C299 0.961 . S
H314 C299 0.961 . S
H315 C299 0.961 . S
H316 C300 0.931 . S
H317 C305 0.930 . S
H318 C306 0.956 . S
H319 C306 0.961 . S
H320 C306 0.961 . S
H321 C307 0.958 . S
H322 C307 0.961 . S
H323 C307 0.960 . S
C324 C325 1.391 . S
C324 C326 1.394 . S
C324 H340 0.931 . S
C325 C324 1.391 . S
C325 C329 1.376 . S
C326 C324 1.394 . S
C326 C327 1.369 . S
C326 C330 1.531 . S
C327 C326 1.369 . S
C327 C328 1.410 . S
C327 C335 1.503 1_545 S
C328 C327 1.410 . S
C328 C329 1.392 . S
C328 C331 1.511 1_545 S
C329 C325 1.376 . S
C329 C328 1.392 . S
C329 H341 0.929 . S
C330 C326 1.531 . S
C330 H342 0.960 . S
C330 H343 0.962 . S
C330 H344 0.960 . S
C331 C328 1.511 1_565 S
C331 H345 0.961 . S
C331 H346 0.961 . S
C331 H347 0.961 . S
C332 C333 1.370 . S
C332 C334 1.363 . S
C332 H348 0.931 . S
C333 C332 1.370 . S
C333 C337 1.408 . S
C334 C332 1.363 . S
C334 C335 1.370 . S
C334 C338 1.524 . S
C335 C327 1.503 1_565 S
C335 C334 1.370 . S
C335 C336 1.403 . S
C336 C335 1.403 . S
C336 C337 1.404 . S
C336 C339 1.539 1_565 S
C337 C333 1.408 . S
C337 C336 1.404 . S
C337 H349 0.930 . S
C338 C334 1.524 . S
C338 H350 0.956 . S
C338 H351 0.961 . S
C338 H352 0.961 . S
C339 C336 1.539 1_545 S
C339 H353 0.958 . S
C339 H354 0.961 1_545 S
C339 H355 0.960 . S
H340 C324 0.931 . S
H341 C329 0.929 . S
H342 C330 0.960 . S
H343 C330 0.962 . S
H344 C330 0.960 . S
H345 C331 0.961 . S
H346 C331 0.961 . S
H347 C331 0.961 . S
H348 C332 0.931 . S
H349 C337 0.930 . S
H350 C338 0.956 . S
H351 C338 0.961 . S
H352 C338 0.961 . S
H353 C339 0.958 . S
H354 C339 0.961 1_565 S
H355 C339 0.960 . S
C356 C357 1.391 . S
C356 C358 1.394 . S
C356 H372 0.931 . S
C357 C356 1.391 . S
C357 C361 1.376 . S
C358 C356 1.394 . S
C358 C359 1.369 . S
C358 C362 1.531 . S
C359 C358 1.369 . S
C359 C360 1.410 . S
C359 C367 1.503 . S
C360 C359 1.410 . S
C360 C361 1.392 . S
C360 C363 1.511 . S
C361 C357 1.376 . S
C361 C360 1.392 . S
C361 H373 0.929 . S
C362 C358 1.531 . S
C362 H374 0.960 . S
C362 H375 0.962 . S
C362 H376 0.960 . S
C363 C360 1.511 . S
C363 H377 0.961 . S
C363 H378 0.961 . S
C363 H379 0.961 . S
C364 C365 1.370 . S
C364 C366 1.363 . S
C364 H380 0.931 . S
C365 C364 1.370 . S
C365 C369 1.408 . S
C366 C364 1.363 . S
C366 C367 1.370 . S
C366 C370 1.524 . S
C367 C359 1.503 . S
C367 C366 1.370 . S
C367 C368 1.403 . S
C368 C367 1.403 . S
C368 C369 1.404 . S
C368 C371 1.539 . S
C369 C365 1.408 . S
C369 C368 1.404 . S
C369 H381 0.930 . S
C370 C366 1.524 . S
C370 H382 0.956 . S
C370 H383 0.961 . S
C370 H384 0.961 . S
C371 C368 1.539 . S
C371 H385 0.958 . S
C371 H386 0.961 . S
C371 H387 0.960 . S
H372 C356 0.931 . S
H373 C361 0.929 . S
H374 C362 0.960 . S
H375 C362 0.962 . S
H376 C362 0.960 . S
H377 C363 0.961 . S
H378 C363 0.961 . S
H379 C363 0.961 . S
H380 C364 0.931 . S
H381 C369 0.930 . S
H382 C370 0.956 . S
H383 C370 0.961 . S
H384 C370 0.961 . S
H385 C371 0.958 . S
H386 C371 0.961 . S
H387 C371 0.960 . S
C388 C389 1.391 . S
C388 C390 1.394 . S
C388 H404 0.931 . S
C389 C388 1.391 . S
C389 C393 1.376 . S
C390 C388 1.394 . S
C390 C391 1.369 . S
C390 C394 1.531 . S
C391 C390 1.369 . S
C391 C392 1.410 . S
C391 C399 1.503 1_455 S
C392 C391 1.410 . S
C392 C393 1.392 . S
C392 C395 1.511 1_455 S
C393 C389 1.376 . S
C393 C392 1.392 . S
C393 H405 0.929 . S
C394 C390 1.531 . S
C394 H406 0.960 . S
C394 H407 0.962 . S
C394 H408 0.960 . S
C395 C392 1.511 1_655 S
C395 H409 0.961 . S
C395 H410 0.961 . S
C395 H411 0.961 . S
C396 C397 1.370 . S
C396 C398 1.363 . S
C396 H412 0.931 . S
C397 C396 1.370 . S
C397 C401 1.408 . S
C398 C396 1.363 . S
C398 C399 1.370 . S
C398 C402 1.524 1_655 S
C399 C391 1.503 1_655 S
C399 C398 1.370 . S
C399 C400 1.403 . S
C400 C399 1.403 . S
C400 C401 1.404 . S
C400 C403 1.539 . S
C401 C397 1.408 . S
C401 C400 1.404 . S
C401 H413 0.930 . S
C402 C398 1.524 1_455 S
C402 H414 0.956 . S
C402 H415 0.961 . S
C402 H416 0.961 1_455 S
C403 C400 1.539 . S
C403 H417 0.958 . S
C403 H418 0.961 . S
C403 H419 0.960 . S
H404 C388 0.931 . S
H405 C393 0.929 . S
H406 C394 0.960 . S
H407 C394 0.962 . S
H408 C394 0.960 . S
H409 C395 0.961 . S
H410 C395 0.961 . S
H411 C395 0.961 . S
H412 C396 0.931 . S
H413 C401 0.930 . S
H414 C402 0.956 . S
H415 C402 0.961 . S
H416 C402 0.961 1_655 S
H417 C403 0.958 . S
H418 C403 0.961 . S
H419 C403 0.960 . S
C420 C421 1.391 . S
C420 C422 1.394 . S
C420 H436 0.931 . S
C421 C420 1.391 . S
C421 C425 1.376 . S
C422 C420 1.394 . S
C422 C423 1.369 . S
C422 C426 1.531 1_655 S
C423 C422 1.369 . S
C423 C424 1.410 . S
C423 C431 1.503 1_655 S
C424 C423 1.410 . S
C424 C425 1.392 . S
C424 C427 1.511 . S
C425 C421 1.376 . S
C425 C424 1.392 . S
C425 H437 0.929 . S
C426 C422 1.531 1_455 S
C426 H438 0.960 . S
C426 H439 0.962 . S
C426 H440 0.960 . S
C427 C424 1.511 . S
C427 H441 0.961 . S
C427 H442 0.961 . S
C427 H443 0.961 . S
C428 C429 1.370 . S
C428 C430 1.363 . S
C428 H444 0.931 . S
C429 C428 1.370 . S
C429 C433 1.408 . S
C430 C428 1.363 . S
C430 C431 1.370 . S
C430 C434 1.524 . S
C431 C423 1.503 1_455 S
C431 C430 1.370 . S
C431 C432 1.403 . S
C432 C431 1.403 . S
C432 C433 1.404 . S
C432 C435 1.539 . S
C433 C429 1.408 . S
C433 C432 1.404 . S
C433 H445 0.930 . S
C434 C430 1.524 . S
C434 H446 0.956 . S
C434 H447 0.961 1_455 S
C434 H448 0.961 . S
C435 C432 1.539 . S
C435 H449 0.958 . S
C435 H450 0.961 . S
C435 H451 0.960 1_455 S
H436 C420 0.931 . S
H437 C425 0.929 . S
H438 C426 0.960 . S
H439 C426 0.962 . S
H440 C426 0.960 . S
H441 C427 0.961 . S
H442 C427 0.961 . S
H443 C427 0.961 . S
H444 C428 0.931 . S
H445 C433 0.930 . S
H446 C434 0.956 . S
H447 C434 0.961 1_655 S
H448 C434 0.961 . S
H449 C435 0.958 . S
H450 C435 0.961 . S
H451 C435 0.960 1_655 S
C452 C453 1.391 . S
C452 C454 1.394 . S
C452 H468 0.931 . S
C453 C452 1.391 . S
C453 C457 1.376 . S
C454 C452 1.394 . S
C454 C455 1.369 . S
C454 C458 1.531 . S
C455 C454 1.369 . S
C455 C456 1.410 . S
C455 C463 1.503 1_545 S
C456 C455 1.410 . S
C456 C457 1.392 . S
C456 C459 1.511 1_545 S
C457 C453 1.376 . S
C457 C456 1.392 . S
C457 H469 0.929 . S
C458 C454 1.531 . S
C458 H470 0.960 . S
C458 H471 0.962 . S
C458 H472 0.960 . S
C459 C456 1.511 1_565 S
C459 H473 0.961 . S
C459 H474 0.961 . S
C459 H475 0.961 . S
C460 C461 1.370 . S
C460 C462 1.363 . S
C460 H476 0.931 . S
C461 C460 1.370 . S
C461 C465 1.408 . S
C462 C460 1.363 . S
C462 C463 1.370 . S
C462 C466 1.524 1_565 S
C463 C455 1.503 1_565 S
C463 C462 1.370 . S
C463 C464 1.403 . S
C464 C463 1.403 . S
C464 C465 1.404 . S
C464 C467 1.539 . S
C465 C461 1.408 . S
C465 C464 1.404 . S
C465 H477 0.930 . S
C466 C462 1.524 1_545 S
C466 H478 0.956 . S
C466 H479 0.961 . S
C466 H480 0.961 . S
C467 C464 1.539 . S
C467 H481 0.958 . S
C467 H482 0.961 . S
C467 H483 0.960 . S
H468 C452 0.931 . S
H469 C457 0.929 . S
H470 C458 0.960 . S
H471 C458 0.962 . S
H472 C458 0.960 . S
H473 C459 0.961 . S
H474 C459 0.961 . S
H475 C459 0.961 . S
H476 C460 0.931 . S
H477 C465 0.930 . S
H478 C466 0.956 . S
H479 C466 0.961 . S
H480 C466 0.961 . S
H481 C467 0.958 . S
H482 C467 0.961 . S
H483 C467 0.960 . S
C484 C485 1.391 . S
C484 C486 1.394 . S
C484 H500 0.931 . S
C485 C484 1.391 . S
C485 C489 1.376 . S
C486 C484 1.394 . S
C486 C487 1.369 . S
C486 C490 1.531 . S
C487 C486 1.369 . S
C487 C488 1.410 . S
C487 C495 1.503 . S
C488 C487 1.410 . S
C488 C489 1.392 . S
C488 C491 1.511 . S
C489 C485 1.376 . S
C489 C488 1.392 . S
C489 H501 0.929 . S
C490 C486 1.531 . S
C490 H502 0.960 . S
C490 H503 0.962 . S
C490 H504 0.960 . S
C491 C488 1.511 . S
C491 H505 0.961 . S
C491 H506 0.961 . S
C491 H507 0.961 . S
C492 C493 1.370 . S
C492 C494 1.363 . S
C492 H508 0.931 . S
C493 C492 1.370 . S
C493 C497 1.408 . S
C494 C492 1.363 . S
C494 C495 1.370 . S
C494 C498 1.524 . S
C495 C487 1.503 . S
C495 C494 1.370 . S
C495 C496 1.403 . S
C496 C495 1.403 . S
C496 C497 1.404 . S
C496 C499 1.539 . S
C497 C493 1.408 . S
C497 C496 1.404 . S
C497 H509 0.930 . S
C498 C494 1.524 . S
C498 H510 0.956 . S
C498 H511 0.961 . S
C498 H512 0.961 . S
C499 C496 1.539 . S
C499 H513 0.958 . S
C499 H514 0.961 . S
C499 H515 0.960 . S
H500 C484 0.931 . S
H501 C489 0.929 . S
H502 C490 0.960 . S
H503 C490 0.962 . S
H504 C490 0.960 . S
H505 C491 0.961 . S
H506 C491 0.961 . S
H507 C491 0.961 . S
H508 C492 0.931 . S
H509 C497 0.930 . S
H510 C498 0.956 . S
H511 C498 0.961 . S
H512 C498 0.961 . S
H513 C499 0.958 . S
H514 C499 0.961 . S
H515 C499 0.960 . S
C516 C517 1.391 . S
C516 C518 1.394 . S
C516 H532 0.931 . S
C517 C516 1.391 . S
C517 C521 1.376 . S
C518 C516 1.394 . S
C518 C519 1.369 . S
C518 C522 1.531 . S
C519 C518 1.369 . S
C519 C520 1.416 . S
C519 C527 1.503 1_556 S
C520 C519 1.416 . S
C520 C521 1.405 . S
C520 C523 1.493 1_556 S
C521 C517 1.376 . S
C521 C520 1.405 . S
C521 H533 0.929 1_455 S
C522 C518 1.531 . S
C522 H534 0.960 . S
C522 H535 0.962 . S
C522 H536 0.960 . S
C523 C520 1.493 1_554 S
C523 H537 0.961 1_455 S
C523 H538 0.961 . S
C523 H539 0.961 . S
C524 C525 1.370 . S
C524 C526 1.363 . S
C524 H540 0.931 . S
C525 C524 1.370 . S
C525 C529 1.408 . S
C526 C524 1.363 . S
C526 C527 1.370 . S
C526 C530 1.524 . S
C527 C519 1.503 1_554 S
C527 C526 1.370 . S
C527 C528 1.403 . S
C528 C527 1.403 . S
C528 C529 1.404 . S
C528 C531 1.539 . S
C529 C525 1.408 . S
C529 C528 1.404 . S
C529 H541 0.930 . S
C530 C526 1.524 . S
C530 H542 0.956 1_554 S
C530 H543 0.961 . S
C530 H544 0.961 . S
C531 C528 1.539 . S
C531 H545 0.954 . S
C531 H546 0.961 . S
C531 H547 0.960 . S
H532 C516 0.931 . S
H533 C521 0.929 1_655 S
H534 C522 0.960 . S
H535 C522 0.962 . S
H536 C522 0.960 . S
H537 C523 0.961 1_655 S
H538 C523 0.961 . S
H539 C523 0.961 . S
H540 C524 0.931 . S
H541 C529 0.930 . S
H542 C530 0.956 1_556 S
H543 C530 0.961 . S
H544 C530 0.961 . S
H545 C531 0.954 . S
H546 C531 0.961 . S
H547 C531 0.960 . S
C548 C549 1.391 . S
C548 C550 1.394 . S
C548 H564 0.931 . S
C549 C548 1.391 . S
C549 C553 1.376 . S
C550 C548 1.394 . S
C550 C551 1.369 . S
C550 C554 1.531 . S
C551 C550 1.369 . S
C551 C552 1.410 . S
C551 C559 1.503 . S
C552 C551 1.410 . S
C552 C553 1.392 . S
C552 C555 1.511 . S
C553 C549 1.376 . S
C553 C552 1.392 . S
C553 H565 0.929 1_545 S
C554 C550 1.531 . S
C554 H566 0.960 . S
C554 H567 0.962 . S
C554 H568 0.960 . S
C555 C552 1.511 . S
C555 H569 0.961 . S
C555 H570 0.961 . S
C555 H571 0.961 . S
C556 C557 1.370 . S
C556 C558 1.363 . S
C556 H572 0.931 . S
C557 C556 1.370 . S
C557 C561 1.408 . S
C558 C556 1.363 . S
C558 C559 1.370 . S
C558 C562 1.524 . S
C559 C551 1.503 . S
C559 C558 1.370 . S
C559 C560 1.403 . S
C560 C559 1.403 . S
C560 C561 1.404 . S
C560 C563 1.539 . S
C561 C557 1.408 . S
C561 C560 1.404 . S
C561 H573 0.930 . S
C562 C558 1.524 . S
C562 H574 0.956 . S
C562 H575 0.961 . S
C562 H576 0.961 . S
C563 C560 1.539 . S
C563 H577 0.958 . S
C563 H578 0.961 . S
C563 H579 0.960 . S
H564 C548 0.931 . S
H565 C553 0.929 1_565 S
H566 C554 0.960 . S
H567 C554 0.962 . S
H568 C554 0.960 . S
H569 C555 0.961 . S
H570 C555 0.961 . S
H571 C555 0.961 . S
H572 C556 0.931 . S
H573 C561 0.930 . S
H574 C562 0.956 . S
H575 C562 0.961 . S
H576 C562 0.961 . S
H577 C563 0.958 . S
H578 C563 0.961 . S
H579 C563 0.960 . S
C580 C581 1.391 . S
C580 C582 1.394 . S
C580 H596 0.931 . S
C581 C580 1.391 . S
C581 C585 1.376 . S
C582 C580 1.394 . S
C582 C583 1.369 . S
C582 C586 1.531 . S
C583 C582 1.369 . S
C583 C584 1.410 . S
C583 C591 1.503 . S
C584 C583 1.410 . S
C584 C585 1.392 . S
C584 C587 1.511 . S
C585 C581 1.376 . S
C585 C584 1.392 . S
C585 H597 0.929 1_565 S
C586 C582 1.531 . S
C586 H598 0.960 . S
C586 H599 0.962 . S
C586 H600 0.960 . S
C587 C584 1.511 . S
C587 H601 0.961 1_565 S
C587 H602 0.961 . S
C587 H603 0.961 . S
C588 C589 1.370 . S
C588 C590 1.363 . S
C588 H604 0.931 . S
C589 C588 1.370 . S
C589 C593 1.408 . S
C590 C588 1.363 . S
C590 C591 1.370 . S
C590 C594 1.524 . S
C591 C583 1.503 . S
C591 C590 1.370 . S
C591 C592 1.403 . S
C592 C591 1.403 . S
C592 C593 1.404 . S
C592 C595 1.539 . S
C593 C589 1.408 . S
C593 C592 1.404 . S
C593 H605 0.930 . S
C594 C590 1.524 . S
C594 H606 0.956 . S
C594 H607 0.961 . S
C594 H608 0.961 . S
C595 C592 1.539 . S
C595 H609 0.958 . S
C595 H610 0.961 . S
C595 H611 0.960 . S
H596 C580 0.931 . S
H597 C585 0.929 1_545 S
H598 C586 0.960 . S
H599 C586 0.962 . S
H600 C586 0.960 . S
H601 C587 0.961 1_545 S
H602 C587 0.961 . S
H603 C587 0.961 . S
H604 C588 0.931 . S
H605 C593 0.930 . S
H606 C594 0.956 . S
H607 C594 0.961 . S
H608 C594 0.961 . S
H609 C595 0.958 . S
H610 C595 0.961 . S
H611 C595 0.960 . S
C612 C613 1.391 . S
C612 C614 1.394 . S
C612 H628 0.931 . S
C613 C612 1.391 . S
C613 C617 1.376 . S
C614 C612 1.394 . S
C614 C615 1.369 . S
C614 C618 1.531 . S
C615 C614 1.369 . S
C615 C616 1.410 . S
C615 C623 1.503 1_554 S
C616 C615 1.410 . S
C616 C617 1.392 . S
C616 C619 1.511 . S
C617 C613 1.376 . S
C617 C616 1.392 . S
C617 H629 0.929 . S
C618 C614 1.531 . S
C618 H630 0.953 1_554 S
C618 H631 0.962 1_554 S
C618 H632 0.960 . S
C619 C616 1.511 . S
C619 H633 0.961 . S
C619 H634 0.961 . S
C619 H635 0.961 . S
C620 C621 1.370 . S
C620 C622 1.363 . S
C620 H636 0.931 . S
C621 C620 1.370 . S
C621 C625 1.408 1_655 S
C622 C620 1.363 . S
C622 C623 1.370 . S
C622 C626 1.524 . S
C623 C615 1.503 1_556 S
C623 C622 1.370 . S
C623 C624 1.402 . S
C624 C623 1.402 . S
C624 C625 1.402 1_655 S
C624 C627 1.542 1_556 S
C625 C621 1.408 1_455 S
C625 C624 1.402 1_455 S
C625 H637 0.930 . S
C626 C622 1.524 . S
C626 H638 0.956 . S
C626 H639 0.961 . S
C626 H640 0.961 . S
C627 C624 1.542 1_554 S
C627 H641 0.958 1_655 S
C627 H642 0.961 1_655 S
C627 H643 0.960 . S
H628 C612 0.931 . S
H629 C617 0.929 . S
H630 C618 0.953 1_556 S
H631 C618 0.962 1_556 S
H632 C618 0.960 . S
H633 C619 0.961 . S
H634 C619 0.961 . S
H635 C619 0.961 . S
H636 C620 0.931 . S
H637 C625 0.930 . S
H638 C626 0.956 . S
H639 C626 0.961 . S
H640 C626 0.961 . S
H641 C627 0.958 1_455 S
H642 C627 0.961 1_455 S
H643 C627 0.960 . S
C644 C645 1.391 . S
C644 C646 1.394 . S
C644 H660 0.931 . S
C645 C644 1.391 . S
C645 C649 1.376 . S
C646 C644 1.394 . S
C646 C647 1.369 . S
C646 C650 1.531 . S
C647 C646 1.369 . S
C647 C648 1.410 . S
C647 C655 1.503 . S
C648 C647 1.410 . S
C648 C649 1.392 . S
C648 C651 1.511 . S
C649 C645 1.376 . S
C649 C648 1.392 . S
C649 H661 0.929 1_565 S
C650 C646 1.531 . S
C650 H662 0.960 . S
C650 H663 0.962 . S
C650 H664 0.960 . S
C651 C648 1.511 . S
C651 H665 0.961 . S
C651 H666 0.961 . S
C651 H667 0.961 . S
C652 C653 1.370 . S
C652 C654 1.363 . S
C652 H668 0.931 1_455 S
C653 C652 1.370 . S
C653 C657 1.408 . S
C654 C652 1.363 . S
C654 C655 1.370 . S
C654 C658 1.524 . S
C655 C647 1.503 . S
C655 C654 1.370 . S
C655 C656 1.403 . S
C656 C655 1.403 . S
C656 C657 1.404 . S
C656 C659 1.539 . S
C657 C653 1.408 . S
C657 C656 1.404 . S
C657 H669 0.930 . S
C658 C654 1.524 . S
C658 H670 0.956 . S
C658 H671 0.961 . S
C658 H672 0.961 . S
C659 C656 1.539 . S
C659 H673 0.958 . S
C659 H674 0.961 . S
C659 H675 0.960 . S
H660 C644 0.931 . S
H661 C649 0.929 1_545 S
H662 C650 0.960 . S
H663 C650 0.962 . S
H664 C650 0.960 . S
H665 C651 0.961 . S
H666 C651 0.961 . S
H667 C651 0.961 . S
H668 C652 0.931 1_655 S
H669 C657 0.930 . S
H670 C658 0.956 . S
H671 C658 0.961 . S
H672 C658 0.961 . S
H673 C659 0.958 . S
H674 C659 0.961 . S
H675 C659 0.960 . S
C676 C677 1.391 . S
C676 C678 1.394 . S
C676 H692 0.931 1_545 S
C677 C676 1.391 . S
C677 C681 1.376 . S
C678 C676 1.394 . S
C678 C679 1.369 . S
C678 C682 1.531 . S
C679 C678 1.369 . S
C679 C680 1.410 . S
C679 C687 1.503 . S
C680 C679 1.410 . S
C680 C681 1.392 . S
C680 C683 1.511 . S
C681 C677 1.376 . S
C681 C680 1.392 . S
C681 H693 0.929 . S
C682 C678 1.531 . S
C682 H694 0.960 . S
C682 H695 0.962 . S
C682 H696 0.960 . S
C683 C680 1.511 . S
C683 H697 0.961 . S
C683 H698 0.961 . S
C683 H699 0.961 . S
C684 C685 1.370 . S
C684 C686 1.363 . S
C684 H700 0.931 . S
C685 C684 1.370 . S
C685 C689 1.408 . S
C686 C684 1.363 . S
C686 C687 1.370 . S
C686 C690 1.524 . S
C687 C679 1.503 . S
C687 C686 1.370 . S
C687 C688 1.403 . S
C688 C687 1.403 . S
C688 C689 1.404 . S
C688 C691 1.539 . S
C689 C685 1.408 . S
C689 C688 1.404 . S
C689 H701 0.930 . S
C690 C686 1.524 . S
C690 H702 0.956 . S
C690 H703 0.961 . S
C690 H704 0.961 . S
C691 C688 1.539 . S
C691 H705 0.958 . S
C691 H706 0.961 . S
C691 H707 0.960 . S
H692 C676 0.931 1_565 S
H693 C681 0.929 . S
H694 C682 0.960 . S
H695 C682 0.962 . S
H696 C682 0.960 . S
H697 C683 0.961 . S
H698 C683 0.961 . S
H699 C683 0.961 . S
H700 C684 0.931 . S
H701 C689 0.930 . S
H702 C690 0.956 . S
H703 C690 0.961 . S
H704 C690 0.961 . S
H705 C691 0.958 . S
H706 C691 0.961 . S
H707 C691 0.960 . S
C133 C5 1.264 . S
C141 C71 1.288 . S
C165 C16 1.329 . S
C173 C82 1.246 . S
C197 C27 1.304 . S
C205 C93 1.248 . S
C229 C104 1.241 . S
C237 C38 1.295 . S
C261 C49 1.307 . S
C269 C115 1.270 . S
C293 C126 1.228 . S
C301 C60 1.297 . S
C325 C7 1.469 . S
C333 C40 1.454 . S
C357 C18 1.445 . S
C365 C51 1.464 . S
C389 C62 1.445 . S
C397 C29 1.464 . S
C421 C73 1.455 . S
C429 C106 1.449 . S
C453 C117 1.441 . S
C461 C84 1.465 . S
C485 C128 1.476 . S
C493 C95 1.443 . S
C517 C118 1.507 1_455 S
C525 C8 1.501 . S
C549 C129 1.502 1_545 S
C557 C19 1.503 1_655 S
C581 C30 1.507 1_565 S
C589 C74 1.502 . S
C613 C41 1.479 . S
C621 C85 1.500 1_655 S
C645 C96 1.504 1_565 S
C653 C52 1.492 1_455 S
C677 C63 1.486 1_545 S
C685 C107 1.490 . S
