# Generated by pormake.
# Topology skb, (5)-cn, num edge types: 1
# Building blocks:
#     Node 0, Type 0, BuildingBlock: XOMCOT_clean_sbu_0, # of connection points: 5
#     Node 1, Type 0, BuildingBlock: XOMCOT_clean_sbu_0, # of connection points: 5
#     Node 2, Type 0, BuildingBlock: XOMCOT_clean_sbu_0, # of connection points: 5
#     Node 3, Type 0, BuildingBlock: XOMCOT_clean_sbu_0, # of connection points: 5
#     Node 4, Type 0, BuildingBlock: XOMCOT_clean_sbu_0, # of connection points: 5
#     Node 5, Type 0, BuildingBlock: XOMCOT_clean_sbu_0, # of connection points: 5
#     Node 6, Type 0, BuildingBlock: XOMCOT_clean_sbu_0, # of connection points: 5
#     Node 7, Type 0, BuildingBlock: XOMCOT_clean_sbu_0, # of connection points: 5
#     Node 8, Type 0, BuildingBlock: XOMCOT_clean_sbu_0, # of connection points: 5
#     Node 9, Type 0, BuildingBlock: XOMCOT_clean_sbu_0, # of connection points: 5
#     Node 10, Type 0, BuildingBlock: XOMCOT_clean_sbu_0, # of connection points: 5
#     Node 11, Type 0, BuildingBlock: XOMCOT_clean_sbu_0, # of connection points: 5
#     Node 12, Type 0, BuildingBlock: XOMCOT_clean_sbu_0, # of connection points: 5
#     Node 13, Type 0, BuildingBlock: XOMCOT_clean_sbu_0, # of connection points: 5
#     Node 14, Type 0, BuildingBlock: XOMCOT_clean_sbu_0, # of connection points: 5
#     Node 15, Type 0, BuildingBlock: XOMCOT_clean_sbu_0, # of connection points: 5
#     Edge 16, Type (0, 0), BuildingBlock: TEMPAE_clean_linker_10, # of connection points: 2
#     Edge 17, Type (0, 0), BuildingBlock: TEMPAE_clean_linker_10, # of connection points: 2
#     Edge 18, Type (0, 0), BuildingBlock: TEMPAE_clean_linker_10, # of connection points: 2
#     Edge 19, Type (0, 0), BuildingBlock: TEMPAE_clean_linker_10, # of connection points: 2
#     Edge 20, Type (0, 0), BuildingBlock: TEMPAE_clean_linker_10, # of connection points: 2
#     Edge 21, Type (0, 0), BuildingBlock: TEMPAE_clean_linker_10, # of connection points: 2
#     Edge 22, Type (0, 0), BuildingBlock: TEMPAE_clean_linker_10, # of connection points: 2
#     Edge 23, Type (0, 0), BuildingBlock: TEMPAE_clean_linker_10, # of connection points: 2
#     Edge 24, Type (0, 0), BuildingBlock: TEMPAE_clean_linker_10, # of connection points: 2
#     Edge 25, Type (0, 0), BuildingBlock: TEMPAE_clean_linker_10, # of connection points: 2
#     Edge 26, Type (0, 0), BuildingBlock: TEMPAE_clean_linker_10, # of connection points: 2
#     Edge 27, Type (0, 0), BuildingBlock: TEMPAE_clean_linker_10, # of connection points: 2
#     Edge 28, Type (0, 0), BuildingBlock: TEMPAE_clean_linker_10, # of connection points: 2
#     Edge 29, Type (0, 0), BuildingBlock: TEMPAE_clean_linker_10, # of connection points: 2
#     Edge 30, Type (0, 0), BuildingBlock: TEMPAE_clean_linker_10, # of connection points: 2
#     Edge 31, Type (0, 0), BuildingBlock: TEMPAE_clean_linker_10, # of connection points: 2
#     Edge 32, Type (0, 0), BuildingBlock: TEMPAE_clean_linker_10, # of connection points: 2
#     Edge 33, Type (0, 0), BuildingBlock: TEMPAE_clean_linker_10, # of connection points: 2
#     Edge 34, Type (0, 0), BuildingBlock: TEMPAE_clean_linker_10, # of connection points: 2
#     Edge 35, Type (0, 0), BuildingBlock: TEMPAE_clean_linker_10, # of connection points: 2
#     Edge 36, Type (0, 0), BuildingBlock: TEMPAE_clean_linker_10, # of connection points: 2
#     Edge 37, Type (0, 0), BuildingBlock: TEMPAE_clean_linker_10, # of connection points: 2
#     Edge 38, Type (0, 0), BuildingBlock: TEMPAE_clean_linker_10, # of connection points: 2
#     Edge 39, Type (0, 0), BuildingBlock: TEMPAE_clean_linker_10, # of connection points: 2
#     Edge 40, Type (0, 0), BuildingBlock: TEMPAE_clean_linker_10, # of connection points: 2
#     Edge 41, Type (0, 0), BuildingBlock: TEMPAE_clean_linker_10, # of connection points: 2
#     Edge 42, Type (0, 0), BuildingBlock: TEMPAE_clean_linker_10, # of connection points: 2
#     Edge 43, Type (0, 0), BuildingBlock: TEMPAE_clean_linker_10, # of connection points: 2
#     Edge 44, Type (0, 0), BuildingBlock: TEMPAE_clean_linker_10, # of connection points: 2
#     Edge 45, Type (0, 0), BuildingBlock: TEMPAE_clean_linker_10, # of connection points: 2
#     Edge 46, Type (0, 0), BuildingBlock: TEMPAE_clean_linker_10, # of connection points: 2
#     Edge 47, Type (0, 0), BuildingBlock: TEMPAE_clean_linker_10, # of connection points: 2
#     Edge 48, Type (0, 0), BuildingBlock: TEMPAE_clean_linker_10, # of connection points: 2
#     Edge 49, Type (0, 0), BuildingBlock: TEMPAE_clean_linker_10, # of connection points: 2
#     Edge 50, Type (0, 0), BuildingBlock: TEMPAE_clean_linker_10, # of connection points: 2
#     Edge 51, Type (0, 0), BuildingBlock: TEMPAE_clean_linker_10, # of connection points: 2
#     Edge 52, Type (0, 0), BuildingBlock: TEMPAE_clean_linker_10, # of connection points: 2
#     Edge 53, Type (0, 0), BuildingBlock: TEMPAE_clean_linker_10, # of connection points: 2
#     Edge 54, Type (0, 0), BuildingBlock: TEMPAE_clean_linker_10, # of connection points: 2
#     Edge 55, Type (0, 0), BuildingBlock: TEMPAE_clean_linker_10, # of connection points: 2
# Relax obj value: 0.087
# Max RMSD: 0.137
# Mean RMSD: 0.137
data_MOF--net-skb--node1-XOMCOT_clean_sbu_0--edge1-TEMPAE_clean_linker_10
_symmetry_space_group_name_H-M    P1
_symmetry_Int_Tables_number       1
_symmetry_cell_setting            triclinic
loop_
_symmetry_equiv_pos_as_xyz
'x, y, z'
_cell_length_a     50.324628
_cell_length_b     27.747257
_cell_length_c     69.947737
_cell_angle_alpha  89.95405
_cell_angle_beta   89.959589
_cell_angle_gamma 89.930936
loop_
_atom_site_label
_atom_site_type_symbol
_atom_site_fract_x
_atom_site_fract_y
_atom_site_fract_z
_atom_type_partial_charge
Co0 Co 0.19432 0.02051 0.14502 0.0
C1 C 0.18807 0.02886 0.10156 0.0
C2 C 0.22348 0.06047 0.11298 0.0
C3 C 0.22326 0.06804 0.09361 0.0
N4 N 0.20118 0.03694 0.11824 0.0
N5 N 0.20104 0.04825 0.08642 0.0
H6 H 0.16966 0.00951 0.10016 0.0
H7 H 0.23899 0.07163 0.12272 0.0
C8 C 0.19833 0.12706 0.14404 0.0
O9 O 0.18038 0.12511 0.13043 0.0
N10 N 0.18944 0.00481 0.17177 0.0
C11 C 0.16998 0.97827 0.17972 0.0
C12 C 0.17522 0.97332 0.19898 0.0
C13 C 0.20633 0.01526 0.18618 0.0
N14 N 0.19817 0.99644 0.20307 0.0
C15 C 0.14072 0.00885 0.13275 0.0
C16 C 0.11778 0.07416 0.15754 0.0
C17 C 0.10128 0.04509 0.14622 0.0
C18 C 0.11317 0.01258 0.13357 0.0
C19 C 0.14549 0.06975 0.15605 0.0
N20 N 0.15673 0.03784 0.14349 0.0
H21 H 0.14897 0.97994 0.12439 0.0
H22 H 0.15781 0.09002 0.16579 0.0
H23 H 0.15336 0.96305 0.17203 0.0
H24 H 0.2247 0.03483 0.18412 0.0
O25 O 0.19046 0.95375 0.1384 0.0
O26 O 0.22875 0.9882 0.14589 0.0
O27 O 0.20559 0.08816 0.15242 0.0
C28 C 0.21583 0.9494 0.14095 0.0
H29 H 0.2386 0.08577 0.08533 0.0
H30 H 0.16301 0.95394 0.20912 0.0
H31 H 0.10937 0.09914 0.16779 0.0
H32 H 0.10126 0.98796 0.12516 0.0
Co33 Co 0.80856 0.03917 0.147 0.0
C34 C 0.8146 0.03313 0.10317 0.0
C35 C 0.77929 0.00159 0.11481 0.0
C36 C 0.77846 0.99698 0.09533 0.0
N37 N 0.80201 0.02368 0.12002 0.0
N38 N 0.80053 0.01699 0.08788 0.0
H39 H 0.83296 0.0526 0.10176 0.0
H40 H 0.76403 0.98986 0.12465 0.0
C41 C 0.80455 0.9328 0.14567 0.0
O42 O 0.82243 0.93478 0.13198 0.0
N43 N 0.81262 0.05367 0.17398 0.0
C44 C 0.832 0.07857 0.18276 0.0
C45 C 0.82546 0.08319 0.20187 0.0
C46 C 0.79451 0.044 0.18774 0.0
N47 N 0.80174 0.0616 0.20505 0.0
C48 C 0.86198 0.05161 0.1349 0.0
C49 C 0.88541 0.98737 0.15992 0.0
C50 C 0.90162 0.01854 0.14923 0.0
C51 C 0.8895 0.04979 0.13621 0.0
C52 C 0.85763 0.99016 0.15807 0.0
N53 N 0.84618 0.02205 0.14558 0.0
H54 H 0.85353 0.07984 0.1263 0.0
H55 H 0.84539 0.96901 0.1676 0.0
H56 H 0.84943 0.09299 0.17575 0.0
H57 H 0.77594 0.02584 0.18485 0.0
O58 O 0.8127 0.10597 0.14081 0.0
O59 O 0.77415 0.07163 0.14773 0.0
O60 O 0.79726 0.97158 0.15405 0.0
C61 C 0.78732 0.11045 0.14313 0.0
H62 H 0.76264 0.98011 0.08729 0.0
H63 H 0.83738 0.10138 0.21249 0.0
H64 H 0.894 0.9632 0.1704 0.0
H65 H 0.90118 0.0745 0.12765 0.0
Co66 Co 0.19808 0.03525 0.88619 0.0
C67 C 0.1941 0.03496 0.9296 0.0
C68 C 0.22486 0.99001 0.91811 0.0
C69 C 0.22591 0.98726 0.93763 0.0
N70 N 0.20476 0.01923 0.91289 0.0
N71 N 0.20673 0.01571 0.94499 0.0
H72 H 0.17832 0.06118 0.93066 0.0
H73 H 0.2386 0.97296 0.90837 0.0
C74 C 0.2068 0.939 0.86487 0.0
O75 O 0.194 0.95399 0.84964 0.0
N76 N 0.19312 0.05086 0.8593 0.0
C77 C 0.17113 0.06627 0.85018 0.0
C78 C 0.17715 0.07277 0.83107 0.0
C79 C 0.21229 0.04949 0.84573 0.0
N80 N 0.20306 0.06192 0.82823 0.0
C81 C 0.14547 0.05663 0.89838 0.0
C82 C 0.11864 0.98234 0.88083 0.0
C83 C 0.10397 0.02034 0.88894 0.0
C84 C 0.11786 0.05673 0.89833 0.0
C85 C 0.14669 0.98365 0.88114 0.0
N86 N 0.15989 0.02155 0.88932 0.0
H87 H 0.155 0.08671 0.90518 0.0
H88 H 0.15734 0.95506 0.87421 0.0
H89 H 0.15199 0.07218 0.8568 0.0
H90 H 0.23255 0.03881 0.84867 0.0
O91 O 0.19621 0.10269 0.89227 0.0
O92 O 0.23348 0.06499 0.88494 0.0
O93 O 0.20819 0.96566 0.87981 0.0
C94 C 0.22159 0.10494 0.88983 0.0
H95 H 0.23999 0.96604 0.94574 0.0
H96 H 0.16326 0.08368 0.82009 0.0
H97 H 0.1086 0.95308 0.87359 0.0
H98 H 0.10741 0.08615 0.90523 0.0
Co99 Co 0.81069 0.01707 0.88794 0.0
C100 C 0.82009 0.01983 0.93056 0.0
C101 C 0.78722 0.06334 0.92119 0.0
C102 C 0.78989 0.06881 0.94057 0.0
N103 N 0.80627 0.03328 0.91477 0.0
N104 N 0.81048 0.04163 0.94652 0.0
H105 H 0.83682 0.99529 0.93038 0.0
H106 H 0.77217 0.08006 0.91239 0.0
C107 C 0.80501 0.11612 0.86888 0.0
O108 O 0.82459 0.10703 0.85697 0.0
N109 N 0.81376 0.00141 0.86078 0.0
C110 C 0.83034 0.96956 0.85235 0.0
C111 C 0.82308 0.96382 0.83354 0.0
C112 C 0.79624 0.01369 0.84686 0.0
N113 N 0.80161 0.99149 0.83006 0.0
C114 C 0.866 0.99589 0.88918 0.0
C115 C 0.88607 0.08803 0.89155 0.0
C116 C 0.90373 0.04908 0.88945 0.0
C117 C 0.8933 0.00271 0.88873 0.0
C118 C 0.85838 0.07952 0.89165 0.0
N119 N 0.84861 0.03381 0.8894 0.0
H120 H 0.85915 0.95925 0.88908 0.0
H121 H 0.84507 0.1096 0.89364 0.0
H122 H 0.84582 0.94939 0.85933 0.0
H123 H 0.7791 0.03653 0.84924 0.0
O124 O 0.81419 0.94992 0.89449 0.0
O125 O 0.77597 0.98528 0.88793 0.0
O126 O 0.7984 0.08496 0.88149 0.0
C127 C 0.78879 0.94594 0.89233 0.0
H128 H 0.77728 0.09042 0.94974 0.0
H129 H 0.83257 0.94012 0.82331 0.0
H130 H 0.89353 0.12448 0.8928 0.0
H131 H 0.90628 0.97157 0.88786 0.0
Co132 Co 0.19344 0.52079 0.64147 0.0
C133 C 0.19227 0.52874 0.5976 0.0
C134 C 0.22977 0.54383 0.61078 0.0
C135 C 0.23289 0.54723 0.59136 0.0
N136 N 0.20445 0.5317 0.61492 0.0
N137 N 0.20939 0.53778 0.58306 0.0
H138 H 0.17172 0.51967 0.59531 0.0
H139 H 0.24517 0.54964 0.6213 0.0
C140 C 0.19949 0.62653 0.63759 0.0
O141 O 0.18422 0.62306 0.62242 0.0
N142 N 0.18491 0.51086 0.66819 0.0
C143 C 0.16436 0.48684 0.67597 0.0
C144 C 0.1683 0.48396 0.69549 0.0
C145 C 0.20107 0.5219 0.68296 0.0
N146 N 0.19152 0.50587 0.6999 0.0
C147 C 0.14225 0.50615 0.62557 0.0
C148 C 0.11526 0.57489 0.64648 0.0
C149 C 0.10069 0.5412 0.63578 0.0
C150 C 0.11466 0.50757 0.62484 0.0
C151 C 0.1432 0.57223 0.64682 0.0
N152 N 0.15641 0.53797 0.63642 0.0
H153 H 0.15209 0.4771 0.61817 0.0
H154 H 0.15398 0.5955 0.65645 0.0
H155 H 0.14808 0.47132 0.66799 0.0
H156 H 0.22016 0.53921 0.6811 0.0
O157 O 0.18979 0.45305 0.63668 0.0
O158 O 0.22719 0.48768 0.64597 0.0
O159 O 0.20435 0.58903 0.64763 0.0
C160 C 0.2146 0.44848 0.64114 0.0
H161 H 0.25108 0.55599 0.58386 0.0
H162 H 0.1552 0.46633 0.70557 0.0
H163 H 0.10517 0.601 0.65542 0.0
H164 H 0.10425 0.48094 0.61635 0.0
Co165 Co 0.80744 0.55013 0.6454 0.0
C166 C 0.81785 0.55104 0.60278 0.0
C167 C 0.7832 0.51102 0.61118 0.0
C168 C 0.78639 0.5063 0.5918 0.0
N169 N 0.80299 0.53844 0.6182 0.0
N170 N 0.8081 0.53127 0.58649 0.0
H171 H 0.83563 0.57287 0.60351 0.0
H172 H 0.76757 0.49495 0.61966 0.0
C173 C 0.80538 0.44761 0.66056 0.0
O174 O 0.82757 0.45425 0.67004 0.0
N175 N 0.81041 0.55989 0.67325 0.0
C176 C 0.83145 0.55085 0.6848 0.0
C177 C 0.82351 0.55248 0.70357 0.0
C178 C 0.78984 0.56666 0.68561 0.0
N179 N 0.79738 0.56231 0.70411 0.0
C180 C 0.86218 0.57169 0.64756 0.0
C181 C 0.88273 0.48604 0.63395 0.0
C182 C 0.90021 0.52263 0.63986 0.0
C183 C 0.88952 0.56599 0.6464 0.0
C184 C 0.85507 0.49303 0.63565 0.0
N185 N 0.84522 0.53487 0.64319 0.0
H186 H 0.85463 0.60541 0.653 0.0
H187 H 0.84169 0.46512 0.63085 0.0
H188 H 0.85091 0.53923 0.68034 0.0
H189 H 0.76937 0.57115 0.68124 0.0
O190 O 0.81096 0.61808 0.6406 0.0
O191 O 0.77261 0.58152 0.64584 0.0
O192 O 0.79578 0.48138 0.65022 0.0
C193 C 0.78542 0.62134 0.6422 0.0
H194 H 0.77365 0.48616 0.58224 0.0
H195 H 0.83575 0.54456 0.71591 0.0
H196 H 0.89035 0.45237 0.62835 0.0
H197 H 0.9023 0.59551 0.65066 0.0
Co198 Co 0.19788 0.53031 0.38243 0.0
C199 C 0.19855 0.53306 0.42581 0.0
C200 C 0.19399 0.46211 0.41413 0.0
C201 C 0.19241 0.45896 0.43362 0.0
N202 N 0.19799 0.5084 0.40902 0.0
N203 N 0.19492 0.50349 0.44109 0.0
H204 H 0.2003 0.57182 0.42681 0.0
H205 H 0.19128 0.43234 0.40439 0.0
C206 C 0.21234 0.43669 0.36017 0.0
O207 O 0.2028 0.45199 0.34381 0.0
N208 N 0.19806 0.55154 0.35591 0.0
C209 C 0.1789 0.57669 0.34687 0.0
C210 C 0.18726 0.58661 0.3285 0.0
C211 C 0.21819 0.54805 0.34314 0.0
N212 N 0.21188 0.5682 0.32611 0.0
C213 C 0.14459 0.53701 0.39431 0.0
C214 C 0.12037 0.48769 0.36486 0.0
C215 C 0.10452 0.51383 0.37776 0.0
C216 C 0.11703 0.53729 0.39295 0.0
C217 C 0.14824 0.48845 0.36673 0.0
N218 N 0.16007 0.51407 0.38109 0.0
H219 H 0.15356 0.55775 0.40562 0.0
H220 H 0.15997 0.47089 0.356 0.0
H221 H 0.16014 0.58717 0.35318 0.0
H222 H 0.23697 0.53066 0.34622 0.0
O223 O 0.19298 0.59638 0.39016 0.0
O224 O 0.23223 0.56188 0.38581 0.0
O225 O 0.21096 0.46299 0.37521 0.0
C226 C 0.21863 0.60054 0.39007 0.0
H227 H 0.18937 0.42604 0.44162 0.0
H228 H 0.17584 0.60506 0.31761 0.0
H229 H 0.11143 0.46898 0.35291 0.0
H230 H 0.1056 0.55715 0.40345 0.0
Co231 Co 0.81171 0.52375 0.38603 0.0
C232 C 0.81722 0.5293 0.42993 0.0
C233 C 0.78119 0.55786 0.41816 0.0
C234 C 0.78004 0.5623 0.43762 0.0
N235 N 0.80451 0.53765 0.41305 0.0
N236 N 0.80254 0.54413 0.44517 0.0
H237 H 0.83621 0.51179 0.43135 0.0
H238 H 0.76581 0.56862 0.40824 0.0
C239 C 0.80652 0.63006 0.3884 0.0
O240 O 0.82432 0.6277 0.40211 0.0
N241 N 0.81643 0.51072 0.35899 0.0
C242 C 0.83629 0.48695 0.35022 0.0
C243 C 0.83 0.48221 0.3311 0.0
C244 C 0.79826 0.51957 0.3452 0.0
N245 N 0.80592 0.50252 0.32789 0.0
C246 C 0.86528 0.51202 0.39836 0.0
C247 C 0.88816 0.57873 0.37413 0.0
C248 C 0.9048 0.54828 0.38487 0.0
C249 C 0.89286 0.51517 0.39729 0.0
C250 C 0.86041 0.57461 0.37575 0.0
N251 N 0.84921 0.54167 0.3879 0.0
H252 H 0.85699 0.48294 0.40662 0.0
H253 H 0.84803 0.59587 0.36636 0.0
H254 H 0.85386 0.47316 0.35727 0.0
H255 H 0.77932 0.53652 0.3481 0.0
O256 O 0.81611 0.45646 0.39167 0.0
O257 O 0.77757 0.49074 0.38466 0.0
O258 O 0.79986 0.59162 0.37951 0.0
C259 C 0.7908 0.45175 0.38895 0.0
H260 H 0.76374 0.57798 0.44558 0.0
H261 H 0.84228 0.46465 0.32049 0.0
H262 H 0.89646 0.60453 0.36417 0.0
H263 H 0.9047 0.4896 0.40533 0.0
Co264 Co 0.69445 0.0326 0.64692 0.0
C265 C 0.69611 0.0281 0.60349 0.0
C266 C 0.69402 0.09986 0.61475 0.0
C267 C 0.69267 0.10252 0.59526 0.0
N268 N 0.69631 0.05336 0.62016 0.0
N269 N 0.6936 0.05755 0.58804 0.0
H270 H 0.69636 0.98917 0.60268 0.0
H271 H 0.6921 0.13029 0.62427 0.0
C272 C 0.70968 0.12622 0.66884 0.0
O273 O 0.69946 0.11259 0.68523 0.0
N274 N 0.69275 0.01248 0.67357 0.0
C275 C 0.67257 0.98903 0.68208 0.0
C276 C 0.67928 0.9801 0.70084 0.0
C277 C 0.71194 0.01557 0.68707 0.0
N278 N 0.70398 0.99737 0.70416 0.0
C279 C 0.64152 0.02997 0.63382 0.0
C280 C 0.61767 0.08214 0.66269 0.0
C281 C 0.60154 0.05841 0.64928 0.0
C282 C 0.61395 0.03301 0.63449 0.0
C283 C 0.64545 0.07852 0.66137 0.0
N284 N 0.65707 0.05169 0.64728 0.0
H285 H 0.65035 0.00764 0.62291 0.0
H286 H 0.65721 0.09486 0.67234 0.0
H287 H 0.65422 0.97891 0.67512 0.0
H288 H 0.731 0.0323 0.68446 0.0
O289 O 0.68873 0.96659 0.63955 0.0
O290 O 0.72829 0.99907 0.64474 0.0
O291 O 0.70835 0.09913 0.65405 0.0
C292 C 0.71428 0.96095 0.64055 0.0
H293 H 0.69067 0.1354 0.58705 0.0
H294 H 0.66677 0.96182 0.7111 0.0
H295 H 0.6089 0.10233 0.67435 0.0
H296 H 0.60246 0.0133 0.62401 0.0
Co297 Co 0.3096 0.03938 0.64527 0.0
C298 C 0.31737 0.02731 0.60188 0.0
C299 C 0.27944 0.00556 0.61281 0.0
C300 C 0.27995 0.9963 0.59357 0.0
N301 N 0.3029 0.02449 0.6183 0.0
N302 N 0.30375 0.00985 0.58665 0.0
H303 H 0.33739 0.04064 0.60081 0.0
H304 H 0.26302 0.99822 0.62236 0.0
C305 C 0.30509 0.93321 0.64316 0.0
O306 O 0.3232 0.93568 0.62965 0.0
N307 N 0.31413 0.05344 0.67223 0.0
C308 C 0.33369 0.07871 0.68065 0.0
C309 C 0.3276 0.08406 0.69977 0.0
C310 C 0.29632 0.04425 0.68624 0.0
N311 N 0.30398 0.06261 0.70332 0.0
C312 C 0.36304 0.05285 0.63347 0.0
C313 C 0.3863 0.98758 0.65818 0.0
C314 C 0.4025 0.02007 0.64815 0.0
C315 C 0.39053 0.05191 0.63528 0.0
C316 C 0.35857 0.98977 0.65595 0.0
N317 N 0.3472 0.02226 0.64367 0.0
H318 H 0.35451 0.08095 0.62478 0.0
H319 H 0.34626 0.96779 0.66513 0.0
H320 H 0.35089 0.09311 0.67334 0.0
H321 H 0.27762 0.02617 0.68369 0.0
O322 O 0.31364 0.10649 0.63935 0.0
O323 O 0.27523 0.07193 0.64637 0.0
O324 O 0.29808 0.97158 0.65197 0.0
C325 C 0.28831 0.11098 0.64196 0.0
H326 H 0.26386 0.98132 0.58521 0.0
H327 H 0.3397 0.10276 0.71016 0.0
H328 H 0.39482 0.96294 0.66851 0.0
H329 H 0.4023 0.07764 0.62727 0.0
Co330 Co 0.69461 0.04315 0.38719 0.0
C331 C 0.69104 0.03569 0.43112 0.0
C332 C 0.72869 0.01736 0.41874 0.0
C333 C 0.73092 0.01392 0.4382 0.0
N334 N 0.70384 0.03142 0.41404 0.0
N335 N 0.70735 0.02539 0.44602 0.0
H336 H 0.67068 0.04676 0.43295 0.0
H337 H 0.74438 0.01034 0.40854 0.0
C338 C 0.69995 0.9371 0.39097 0.0
O339 O 0.6837 0.94062 0.40563 0.0
N340 N 0.68806 0.05378 0.36018 0.0
C341 C 0.66783 0.07701 0.35162 0.0
C342 C 0.67334 0.08042 0.33229 0.0
C343 C 0.70559 0.04387 0.34607 0.0
N344 N 0.69724 0.05978 0.32876 0.0
C345 C 0.64245 0.05869 0.40149 0.0
C346 C 0.61638 0.99035 0.37987 0.0
C347 C 0.60129 0.02408 0.39024 0.0
C348 C 0.6148 0.05761 0.4015 0.0
C349 C 0.64435 0.99277 0.38021 0.0
N350 N 0.65712 0.02679 0.39099 0.0
H351 H 0.65197 0.08754 0.40919 0.0
H352 H 0.65557 0.96936 0.37086 0.0
H353 H 0.65066 0.09153 0.35893 0.0
H354 H 0.72468 0.02723 0.34873 0.0
O355 O 0.6911 0.11095 0.39205 0.0
O356 O 0.72885 0.07548 0.38395 0.0
O357 O 0.70554 0.97467 0.38117 0.0
C358 C 0.71621 0.11496 0.38845 0.0
H359 H 0.7486 0.00389 0.44608 0.0
H360 H 0.6607 0.0975 0.32178 0.0
H361 H 0.60669 0.96428 0.37072 0.0
H362 H 0.60403 0.08429 0.40976 0.0
Co363 Co 0.30732 0.01153 0.38648 0.0
C364 C 0.31416 0.01285 0.42949 0.0
C365 C 0.29252 0.07372 0.41869 0.0
C366 C 0.29327 0.07686 0.43818 0.0
N367 N 0.30567 0.0338 0.413 0.0
N368 N 0.30654 0.0385 0.44513 0.0
H369 H 0.32463 0.97879 0.43011 0.0
H370 H 0.28213 0.09871 0.40954 0.0
C371 C 0.30488 0.11073 0.36759 0.0
O372 O 0.32735 0.10284 0.35854 0.0
N373 N 0.30717 0.98966 0.3597 0.0
C374 C 0.31453 0.94583 0.35307 0.0
C375 C 0.30729 0.94146 0.33422 0.0
C376 C 0.2942 0.01011 0.3447 0.0
N377 N 0.29445 0.98188 0.3289 0.0
C378 C 0.36205 0.99348 0.37901 0.0
C379 C 0.38301 0.07838 0.3928 0.0
C380 C 0.40033 0.04308 0.38549 0.0
C381 C 0.3894 1.00033 0.3786 0.0
C382 C 0.35532 0.07039 0.39253 0.0
N383 N 0.34509 0.02858 0.3852 0.0
H384 H 0.35481 0.95863 0.37507 0.0
H385 H 0.34221 0.0975 0.39839 0.0
H386 H 0.32295 0.91707 0.36154 0.0
H387 H 0.28357 0.04383 0.34547 0.0
O388 O 0.31215 0.9462 0.3952 0.0
O389 O 0.27302 0.97993 0.38951 0.0
O390 O 0.29469 0.07779 0.37808 0.0
C391 C 0.28652 0.9417 0.39449 0.0
H392 H 0.2842 0.10508 0.44666 0.0
H393 H 0.30975 0.90957 0.32549 0.0
H394 H 0.39076 0.11165 0.39864 0.0
H395 H 0.40204 0.97131 0.37359 0.0
Co396 Co 0.69562 0.52037 0.14644 0.0
C397 C 0.69211 0.52351 0.10252 0.0
C398 C 0.72467 0.56205 0.11484 0.0
C399 C 0.72649 0.56574 0.09538 0.0
N400 N 0.70285 0.53657 0.11961 0.0
N401 N 0.70616 0.54131 0.08748 0.0
H402 H 0.67534 0.49989 0.1008 0.0
H403 H 0.73882 0.57647 0.12495 0.0
C404 C 0.69867 0.62701 0.14575 0.0
O405 O 0.68092 0.6251 0.13199 0.0
N406 N 0.69095 0.50526 0.17331 0.0
C407 C 0.67159 0.47976 0.18188 0.0
C408 C 0.67774 0.47529 0.20106 0.0
C409 C 0.70865 0.51542 0.18725 0.0
N410 N 0.70118 0.49759 0.20448 0.0
C411 C 0.6426 0.50799 0.13334 0.0
C412 C 0.61811 0.57062 0.15847 0.0
C413 C 0.60235 0.54016 0.14716 0.0
C414 C 0.61503 0.50965 0.13413 0.0
C415 C 0.64596 0.56796 0.15715 0.0
N416 N 0.65794 0.53694 0.14458 0.0
H417 H 0.65141 0.48025 0.12471 0.0
H418 H 0.65779 0.58857 0.16709 0.0
H419 H 0.65445 0.46489 0.17468 0.0
H420 H 0.7271 0.53413 0.18453 0.0
O421 O 0.69196 0.45368 0.14001 0.0
O422 O 0.73016 0.48854 0.14751 0.0
O423 O 0.70629 0.58807 0.15388 0.0
C424 C 0.7173 0.44959 0.14265 0.0
H425 H 0.74186 0.58489 0.08769 0.0
H426 H 0.66576 0.4567 0.21157 0.0
H427 H 0.60909 0.59416 0.16898 0.0
H428 H 0.60371 0.48543 0.12514 0.0
Co429 Co 0.3097 0.53943 0.14119 0.0
C430 C 0.3155 0.5258 0.09773 0.0
C431 C 0.27809 0.5043 0.10961 0.0
C432 C 0.27764 0.49519 0.09035 0.0
N433 N 0.30184 0.52303 0.11451 0.0
N434 N 0.30113 0.50854 0.08281 0.0
H435 H 0.33543 0.53927 0.09618 0.0
H436 H 0.26206 0.49736 0.11954 0.0
C437 C 0.30445 0.43311 0.14031 0.0
O438 O 0.32167 0.43437 0.12619 0.0
N439 N 0.31553 0.55519 0.16786 0.0
C440 C 0.33405 0.58484 0.17513 0.0
C441 C 0.32922 0.59048 0.19441 0.0
C442 C 0.29964 0.5434 0.18272 0.0
N443 N 0.30749 0.56447 0.19929 0.0
C444 C 0.36301 0.54992 0.12817 0.0
C445 C 0.38603 0.48498 0.1531 0.0
C446 C 0.40253 0.51411 0.14176 0.0
C447 C 0.39059 0.54632 0.12899 0.0
C448 C 0.35832 0.48931 0.15165 0.0
N449 N 0.34706 0.52119 0.13909 0.0
H450 H 0.35463 0.57834 0.11956 0.0
H451 H 0.34604 0.46916 0.16147 0.0
H452 H 0.34944 0.6024 0.16689 0.0
H453 H 0.28236 0.52066 0.18119 0.0
O454 O 0.31382 0.60615 0.13442 0.0
O455 O 0.2756 0.57265 0.14273 0.0
O456 O 0.29809 0.47224 0.14886 0.0
C457 C 0.28863 0.61122 0.13763 0.0
H458 H 0.26101 0.48068 0.08242 0.0
H459 H 0.34043 0.61364 0.20385 0.0
H460 H 0.39444 0.4601 0.1634 0.0
H461 H 0.40246 0.57082 0.12047 0.0
Co462 Co 0.6953 0.53439 0.8868 0.0
C463 C 0.6901 0.53188 0.93018 0.0
C464 C 0.72413 0.49457 0.91911 0.0
C465 C 0.72368 0.48872 0.93858 0.0
N466 N 0.70289 0.52078 0.91363 0.0
N467 N 0.70231 0.51201 0.94556 0.0
H468 H 0.67231 0.55343 0.93117 0.0
H469 H 0.73917 0.48074 0.90953 0.0
C470 C 0.70696 0.4378 0.86645 0.0
O471 O 0.69409 0.45087 0.85097 0.0
N472 N 0.68904 0.54779 0.85979 0.0
C473 C 0.66586 0.5576 0.85091 0.0
C474 C 0.67066 0.56385 0.83164 0.0
C475 C 0.7077 0.54989 0.84583 0.0
N476 N 0.69696 0.55898 0.82847 0.0
C477 C 0.64228 0.55118 0.89925 0.0
C478 C 0.61776 0.47256 0.88297 0.0
C479 C 0.60192 0.50854 0.89143 0.0
C480 C 0.61476 0.54756 0.89995 0.0
C481 C 0.64568 0.47723 0.88283 0.0
N482 N 0.65769 0.51702 0.8905 0.0
H483 H 0.65088 0.58314 0.90531 0.0
H484 H 0.65716 0.44967 0.87591 0.0
H485 H 0.64669 0.56008 0.8578 0.0
H486 H 0.72861 0.54299 0.84821 0.0
O487 O 0.69164 0.60208 0.89216 0.0
O488 O 0.72971 0.56728 0.88476 0.0
O489 O 0.70742 0.46543 0.88114 0.0
C490 C 0.71686 0.60651 0.88928 0.0
H491 H 0.73823 0.46945 0.94706 0.0
H492 H 0.65594 0.57169 0.82079 0.0
H493 H 0.60868 0.44147 0.8763 0.0
H494 H 0.60355 0.57668 0.9064 0.0
Co495 Co 0.30802 0.51612 0.88207 0.0
C496 C 0.31425 0.51387 0.92524 0.0
C497 C 0.30273 0.58331 0.91463 0.0
C498 C 0.30328 0.58532 0.93416 0.0
N499 N 0.30959 0.53857 0.90874 0.0
N500 N 0.31028 0.54177 0.94094 0.0
H501 H 0.31926 0.47597 0.92587 0.0
H502 H 0.29719 0.61316 0.9056 0.0
C503 C 0.30314 0.61622 0.86429 0.0
O504 O 0.32556 0.61059 0.85492 0.0
N505 N 0.30468 0.49403 0.85531 0.0
C506 C 0.30985 0.44916 0.84867 0.0
C507 C 0.30127 0.44516 0.83013 0.0
C508 C 0.29163 0.51571 0.84058 0.0
N509 N 0.28975 0.48696 0.82496 0.0
C510 C 0.36134 0.49724 0.87118 0.0
C511 C 0.38542 0.57614 0.88761 0.0
C512 C 0.40142 0.53818 0.88082 0.0
C513 C 0.38887 0.4995 0.87187 0.0
C514 C 0.35747 0.57267 0.88641 0.0
N515 N 0.34564 0.53293 0.8785 0.0
H516 H 0.35293 0.46437 0.86604 0.0
H517 H 0.34552 0.60104 0.89253 0.0
H518 H 0.31815 0.41985 0.85692 0.0
H519 H 0.2826 0.5509 0.84137 0.0
O520 O 0.31433 0.4511 0.89042 0.0
O521 O 0.27439 0.48391 0.88725 0.0
O522 O 0.29383 0.58182 0.87445 0.0
C523 C 0.28875 0.44598 0.89129 0.0
H524 H 0.2984 0.61646 0.9428 0.0
H525 H 0.30209 0.41284 0.82149 0.0
H526 H 0.3943 0.6069 0.89465 0.0
H527 H 0.40027 0.46959 0.86619 0.0
C528 C 0.23026 0.0348 0.22537 0.0
C529 C 0.21175 0.99828 0.22135 0.0
C530 C 0.24401 0.03614 0.24291 0.0
C531 C 0.23915 1.00022 0.25689 0.0
C532 C 0.22024 0.96372 0.25305 0.0
C533 C 0.20689 0.96312 0.2354 0.0
C534 C 0.26399 0.0757 0.24639 0.0
C535 C 0.21443 0.92463 0.2675 0.0
C536 C 0.2916 0.96815 0.29404 0.0
C537 C 0.28161 0.99008 0.31065 0.0
C538 C 0.27843 0.9724 0.2764 0.0
C539 C 0.25455 0.99929 0.2752 0.0
C540 C 0.24477 0.02287 0.29176 0.0
C541 C 0.25841 0.01805 0.30926 0.0
C542 C 0.28976 0.94701 0.25912 0.0
C543 C 0.21939 0.05186 0.29115 0.0
H544 H 0.23398 0.06257 0.21483 0.0
H545 H 0.19301 0.9343 0.23249 0.0
H546 H 0.25889 0.09556 0.25966 0.0
H547 H 0.28402 0.05983 0.24849 0.0
H548 H 0.26494 0.10177 0.23434 0.0
H549 H 0.19837 0.90002 0.26271 0.0
H550 H 0.23263 0.90299 0.2701 0.0
H551 H 0.20852 0.94089 0.28135 0.0
H552 H 0.30974 0.94724 0.29486 0.0
H553 H 0.25037 0.03485 0.32198 0.0
H554 H 0.29234 0.97289 0.24717 0.0
H555 H 0.27572 0.91882 0.25421 0.0
H556 H 0.30923 0.92973 0.26217 0.0
H557 H 0.22027 0.07885 0.27946 0.0
H558 H 0.21546 0.07088 0.30483 0.0
H559 H 0.2024 0.02763 0.28807 0.0
C560 C 0.76562 0.02714 0.22529 0.0
C561 C 0.78678 0.05972 0.22288 0.0
C562 C 0.75063 0.02572 0.24233 0.0
C563 C 0.75697 0.05723 0.25759 0.0
C564 C 0.77845 0.08975 0.25541 0.0
C565 C 0.79291 0.09079 0.23815 0.0
C566 C 0.72785 0.99061 0.24395 0.0
C567 C 0.78609 0.12378 0.27131 0.0
C568 C 0.70453 0.08803 0.29531 0.0
C569 C 0.71168 0.05799 0.3107 0.0
C570 C 0.71877 0.08755 0.27794 0.0
C571 C 0.74101 0.05667 0.27577 0.0
C572 C 0.74827 0.02602 0.29112 0.0
C573 C 0.7335 0.02681 0.30826 0.0
C574 C 0.71013 0.1206 0.26195 0.0
C575 C 0.77189 0.99266 0.28952 0.0
H576 H 0.76073 0.00234 0.2139 0.0
H577 H 0.80885 0.1166 0.23663 0.0
H578 H 0.73109 0.96607 0.25625 0.0
H579 H 0.70907 0.01045 0.24667 0.0
H580 H 0.72537 0.96853 0.23082 0.0
H581 H 0.80376 0.14592 0.26764 0.0
H582 H 0.76927 0.14832 0.27456 0.0
H583 H 0.79046 0.10313 0.28453 0.0
H584 H 0.68803 0.11271 0.29684 0.0
H585 H 0.73917 0.00274 0.31972 0.0
H586 H 0.70642 0.09942 0.24877 0.0
H587 H 0.72621 0.14664 0.25865 0.0
H588 H 0.69183 0.1411 0.26556 0.0
H589 H 0.76928 0.96794 0.27721 0.0
H590 H 0.77488 0.97075 0.30265 0.0
H591 H 0.79017 0.01394 0.28682 0.0
C592 C 0.26932 0.02765 0.7246 0.0
C593 C 0.28943 0.0618 0.72129 0.0
C594 C 0.2549 0.0269 0.74189 0.0
C595 C 0.26074 0.06089 0.7564 0.0
C596 C 0.28105 0.09527 0.75323 0.0
C597 C 0.295 0.09544 0.73577 0.0
C598 C 0.23337 0.98969 0.74461 0.0
C599 C 0.28804 0.13209 0.76829 0.0
C600 C 0.20867 0.08926 0.79461 0.0
C601 C 0.21751 0.0617 0.81024 0.0
C602 C 0.22234 0.08897 0.77702 0.0
C603 C 0.24562 0.06066 0.7749 0.0
C604 C 0.25467 0.03275 0.79057 0.0
C605 C 0.24052 0.03347 0.80795 0.0
C606 C 0.21192 0.11919 0.76071 0.0
C607 C 0.27939 0.00211 0.789 0.0
H608 H 0.26493 0.00104 0.71376 0.0
H609 H 0.31009 0.12255 0.73345 0.0
H610 H 0.23796 0.96686 0.75721 0.0
H611 H 0.2141 0.0078 0.74749 0.0
H612 H 0.23104 0.96603 0.73192 0.0
H613 H 0.30462 0.15593 0.76378 0.0
H614 H 0.27045 0.15479 0.77153 0.0
H615 H 0.2938 0.11364 0.78175 0.0
H616 H 0.19118 0.11164 0.79614 0.0
H617 H 0.24739 0.0113 0.81969 0.0
H618 H 0.20816 0.09609 0.74806 0.0
H619 H 0.22701 0.14629 0.75647 0.0
H620 H 0.19323 0.13833 0.76446 0.0
H621 H 0.27708 0.97551 0.7773 0.0
H622 H 0.28382 0.9824 0.80246 0.0
H623 H 0.29669 0.0251 0.78536 0.0
C624 C 0.70444 0.98934 0.73961 0.0
C625 C 0.71801 0.99831 0.72235 0.0
C626 C 0.71762 0.98982 0.75734 0.0
C627 C 0.74512 1.00022 0.7581 0.0
C628 C 0.75893 0.01022 0.74089 0.0
C629 C 0.74532 0.00887 0.72328 0.0
C630 C 0.70211 0.97854 0.77529 0.0
C631 C 0.78822 0.02186 0.74104 0.0
C632 C 0.77477 0.03684 0.80635 0.0
C633 C 0.78682 0.99379 0.81234 0.0
C634 C 0.76138 0.03973 0.78867 0.0
C635 C 0.75961 0.99836 0.77682 0.0
C636 C 0.77138 0.95464 0.783 0.0
C637 C 0.7849 0.953 0.80056 0.0
C638 C 0.74939 0.08718 0.78256 0.0
C639 C 0.76958 0.9094 0.77108 0.0
H640 H 0.68335 0.98211 0.73943 0.0
H641 H 0.75628 0.01562 0.71026 0.0
H642 H 0.71059 0.94617 0.78235 0.0
H643 H 0.70372 0.00882 0.78556 0.0
H644 H 0.68074 0.97183 0.77235 0.0
H645 H 0.79579 0.03159 0.72662 0.0
H646 H 0.79217 0.05225 0.75094 0.0
H647 H 0.79962 0.99035 0.74636 0.0
H648 H 0.77637 0.06855 0.8153 0.0
H649 H 0.79377 0.9194 0.80522 0.0
H650 H 0.72772 0.08298 0.78026 0.0
H651 H 0.75819 0.09874 0.76875 0.0
H652 H 0.75264 0.11607 0.7933 0.0
H653 H 0.74843 0.89998 0.76862 0.0
H654 H 0.77962 0.87821 0.77796 0.0
H655 H 0.77877 0.91557 0.75687 0.0
C656 C 0.19853 0.47437 0.73279 0.0
C657 C 0.20457 0.50802 0.7184 0.0
C658 C 0.21195 0.47452 0.75045 0.0
C659 C 0.23209 0.50905 0.75395 0.0
C660 C 0.23794 0.54378 0.73969 0.0
C661 C 0.22413 0.5429 0.72217 0.0
C662 C 0.20506 0.43675 0.76519 0.0
C663 C 0.25922 0.58127 0.74278 0.0
C664 C 0.2541 0.52646 0.8059 0.0
C665 C 0.27641 0.49612 0.80695 0.0
C666 C 0.23981 0.53199 0.78867 0.0
C667 C 0.24805 0.50677 0.77205 0.0
C668 C 0.27107 0.47745 0.7729 0.0
C669 C 0.28489 0.47253 0.79025 0.0
C670 C 0.21542 0.56365 0.78842 0.0
C671 C 0.28081 0.45025 0.75556 0.0
H672 H 0.18377 0.44687 0.73012 0.0
H673 H 0.22875 0.56962 0.71139 0.0
H674 H 0.22242 0.41283 0.76759 0.0
H675 H 0.20028 0.45413 0.77905 0.0
H676 H 0.18789 0.41422 0.76078 0.0
H677 H 0.26049 0.60726 0.73073 0.0
H678 H 0.25529 0.60152 0.75616 0.0
H679 H 0.27881 0.56336 0.74444 0.0
H680 H 0.24724 0.54459 0.81869 0.0
H681 H 0.30237 0.44977 0.79079 0.0
H682 H 0.19755 0.54125 0.78576 0.0
H683 H 0.21675 0.59024 0.77661 0.0
H684 H 0.21263 0.58336 0.8021 0.0
H685 H 0.26558 0.42377 0.75101 0.0
H686 H 0.29969 0.43067 0.75834 0.0
H687 H 0.28396 0.47546 0.74345 0.0
C688 C 0.78403 0.52435 0.73449 0.0
C689 C 0.78085 0.56129 0.72098 0.0
C690 C 0.76942 0.52397 0.75163 0.0
C691 C 0.7516 0.56221 0.75568 0.0
C692 C 0.74812 0.59947 0.74197 0.0
C693 C 0.76254 0.5982 0.72466 0.0
C694 C 0.77325 0.48276 0.76547 0.0
C695 C 0.72975 0.64136 0.74583 0.0
C696 C 0.69841 0.54157 0.79381 0.0
C697 C 0.71043 0.56079 0.81022 0.0
C698 C 0.71145 0.54203 0.776 0.0
C699 C 0.73696 0.56323 0.77437 0.0
C700 C 0.74898 0.58354 0.79085 0.0
C701 C 0.73573 0.58153 0.80859 0.0
C702 C 0.69818 0.51876 0.759 0.0
C703 C 0.77591 0.60728 0.78975 0.0
H704 H 0.79799 0.49553 0.73155 0.0
H705 H 0.76025 0.6269 0.71427 0.0
H706 H 0.78171 0.49641 0.77907 0.0
H707 H 0.7538 0.46603 0.7689 0.0
H708 H 0.78671 0.4545 0.75972 0.0
H709 H 0.72905 0.66718 0.73369 0.0
H710 H 0.70934 0.62814 0.74867 0.0
H711 H 0.73643 0.66084 0.75881 0.0
H712 H 0.679 0.52499 0.79504 0.0
H713 H 0.74497 0.59682 0.82118 0.0
H714 H 0.71069 0.48871 0.75363 0.0
H715 H 0.69614 0.54517 0.74719 0.0
H716 H 0.67817 0.50439 0.76255 0.0
H717 H 0.79117 0.58028 0.78569 0.0
H718 H 0.78181 0.62394 0.80354 0.0
H719 H 0.77585 0.63554 0.77851 0.0
C720 C 0.30755 0.57975 0.23439 0.0
C721 C 0.29461 0.56241 0.21793 0.0
C722 C 0.29494 0.58012 0.25237 0.0
C723 C 0.26878 0.562 0.25423 0.0
C724 C 0.25579 0.54328 0.23788 0.0
C725 C 0.26871 0.54397 0.22 0.0
C726 C 0.30952 0.60069 0.26937 0.0
C727 C 0.228 0.52309 0.23921 0.0
C728 C 0.24334 0.52794 0.30398 0.0
C729 C 0.22718 0.56755 0.30857 0.0
C730 C 0.25695 0.52556 0.28639 0.0
C731 C 0.25471 0.56403 0.27312 0.0
C732 C 0.23883 0.60452 0.27787 0.0
C733 C 0.22516 0.60562 0.29543 0.0
C734 C 0.27333 0.48143 0.28184 0.0
C735 C 0.23616 0.6467 0.26435 0.0
H736 H 0.32762 0.59329 0.23334 0.0
H737 H 0.25817 0.53067 0.20763 0.0
H738 H 0.29828 0.63178 0.27524 0.0
H739 H 0.31093 0.57329 0.28088 0.0
H740 H 0.3299 0.6129 0.26566 0.0
H741 H 0.22118 0.50734 0.22547 0.0
H742 H 0.22711 0.49481 0.25042 0.0
H743 H 0.21394 0.55201 0.24344 0.0
H744 H 0.2447 0.4981 0.31392 0.0
H745 H 0.21294 0.63653 0.29895 0.0
H746 H 0.29418 0.4919 0.27882 0.0
H747 H 0.2655 0.46376 0.26879 0.0
H748 H 0.27326 0.4548 0.29372 0.0
H749 H 0.25608 0.66161 0.261 0.0
H750 H 0.22361 0.67597 0.27035 0.0
H751 H 0.22727 0.63456 0.25068 0.0
C752 C 0.70953 0.46907 0.23775 0.0
C753 C 0.71577 0.5 0.22243 0.0
C754 C 0.72378 0.47046 0.25507 0.0
C755 C 0.74515 0.50317 0.25727 0.0
C756 C 0.75155 0.53464 0.24199 0.0
C757 C 0.73676 0.53292 0.2249 0.0
C758 C 0.71608 0.43649 0.27101 0.0
C759 C 0.77425 0.56992 0.24361 0.0
C760 C 0.76896 0.53424 0.30773 0.0
C761 C 0.79096 0.50341 0.31006 0.0
C762 C 0.75394 0.53455 0.29072 0.0
C763 C 0.76111 0.50375 0.27541 0.0
C764 C 0.78343 0.47305 0.27751 0.0
C765 C 0.7979 0.47303 0.29474 0.0
C766 C 0.73021 0.56768 0.2892 0.0
C767 C 0.79197 0.43987 0.26153 0.0
H768 H 0.69369 0.44306 0.2362 0.0
H769 H 0.74172 0.55767 0.2135 0.0
H770 H 0.73285 0.41184 0.27425 0.0
H771 H 0.71178 0.45717 0.28423 0.0
H772 H 0.69836 0.41448 0.26738 0.0
H773 H 0.77668 0.59215 0.23051 0.0
H774 H 0.77097 0.59431 0.25595 0.0
H775 H 0.79307 0.55017 0.2463 0.0
H776 H 0.76341 0.55848 0.31916 0.0
H777 H 0.8145 0.44854 0.29619 0.0
H778 H 0.712 0.54628 0.28644 0.0
H779 H 0.73279 0.59264 0.27694 0.0
H780 H 0.72713 0.58934 0.30237 0.0
H781 H 0.77583 0.41396 0.25827 0.0
H782 H 0.81022 0.41923 0.26514 0.0
H783 H 0.79574 0.46101 0.24834 0.0
C784 C 0.20546 0.21451 0.13711 0.0
C785 C 0.21233 0.17333 0.14769 0.0
C786 C 0.22036 0.25709 0.1384 0.0
C787 C 0.24267 0.25894 0.15069 0.0
C788 C 0.24894 0.21837 0.16218 0.0
C789 C 0.23375 0.17596 0.1605 0.0
C790 C 0.21297 0.29935 0.12584 0.0
C791 C 0.27237 0.21905 0.17563 0.0
C792 C 0.29625 0.34563 0.13406 0.0
C793 C 0.29062 0.38713 0.1448 0.0
C794 C 0.28151 0.30314 0.13645 0.0
C795 C 0.26065 0.30173 0.15003 0.0
C796 C 0.25566 0.34268 0.1616 0.0
C797 C 0.27064 0.38497 0.15881 0.0
C798 C 0.28749 0.26046 0.12375 0.0
C799 C 0.2338 0.34248 0.17637 0.0
H800 H 0.18889 0.21311 0.12724 0.0
H801 H 0.23917 0.14446 0.1688 0.0
H802 H 0.21104 0.33259 0.13453 0.0
H803 H 0.22894 0.30571 0.11519 0.0
H804 H 0.19402 0.29338 0.11805 0.0
H805 H 0.27264 0.18715 0.18524 0.0
H806 H 0.29108 0.21942 0.16724 0.0
H807 H 0.27207 0.25221 0.18448 0.0
H808 H 0.31169 0.34669 0.12326 0.0
H809 H 0.2662 0.41671 0.16725 0.0
H810 H 0.27036 0.25369 0.11414 0.0
H811 H 0.29044 0.22754 0.13251 0.0
H812 H 0.30548 0.26617 0.11482 0.0
H813 H 0.21422 0.34153 0.16912 0.0
H814 H 0.23449 0.37483 0.18571 0.0
H815 H 0.2352 0.30976 0.18545 0.0
C816 C 0.70599 0.71453 0.13913 0.0
C817 C 0.71239 0.67324 0.14978 0.0
C818 C 0.72084 0.75705 0.14089 0.0
C819 C 0.74257 0.75859 0.15372 0.0
C820 C 0.7483 0.71791 0.16526 0.0
C821 C 0.73319 0.67562 0.16311 0.0
C822 C 0.71405 0.79955 0.12829 0.0
C823 C 0.77111 0.71831 0.17926 0.0
C824 C 0.7969 0.84552 0.13882 0.0
C825 C 0.79071 0.88664 0.14962 0.0
C826 C 0.78204 0.80301 0.14064 0.0
C827 C 0.76052 0.8013 0.15367 0.0
C828 C 0.75499 0.84182 0.16532 0.0
C829 C 0.7701 0.8841 0.16312 0.0
C830 C 0.78862 0.76068 0.12791 0.0
C831 C 0.73241 0.84123 0.17953 0.0
H832 H 0.6899 0.71325 0.12886 0.0
H833 H 0.73822 0.644 0.17148 0.0
H834 H 0.71172 0.83262 0.13704 0.0
H835 H 0.73052 0.8061 0.11806 0.0
H836 H 0.69548 0.79375 0.12004 0.0
H837 H 0.77098 0.68618 0.18875 0.0
H838 H 0.7902 0.71894 0.17132 0.0
H839 H 0.77038 0.75124 0.18823 0.0
H840 H 0.81284 0.84693 0.12842 0.0
H841 H 0.76525 0.91557 0.17161 0.0
H842 H 0.77197 0.75423 0.11783 0.0
H843 H 0.79112 0.72751 0.13658 0.0
H844 H 0.80704 0.76661 0.11946 0.0
H845 H 0.7132 0.84056 0.17177 0.0
H846 H 0.73265 0.87329 0.18904 0.0
H847 H 0.73333 0.80824 0.18848 0.0
C848 C 0.23551 0.87514 0.8802 0.0
C849 C 0.21989 0.89056 0.86471 0.0
C850 C 0.24894 0.83058 0.87986 0.0
C851 C 0.24657 0.80004 0.86372 0.0
C852 C 0.23054 0.81499 0.84814 0.0
C853 C 0.21755 0.85999 0.84878 0.0
C854 C 0.26589 0.81636 0.89676 0.0
C855 C 0.22717 0.78343 0.83074 0.0
C856 C 0.30016 0.70427 0.85552 0.0
C857 C 0.28835 0.66286 0.86332 0.0
C858 C 0.28679 0.74897 0.85546 0.0
C859 C 0.2608 0.75247 0.8632 0.0
C860 C 0.2486 0.71061 0.87077 0.0
C861 C 0.26251 0.66655 0.87084 0.0
C862 C 0.30068 0.79269 0.8474 0.0
C863 C 0.22085 0.71241 0.87897 0.0
H864 H 0.23753 0.8981 0.8926 0.0
H865 H 0.20556 0.87125 0.83671 0.0
H866 H 0.25863 0.78197 0.90292 0.0
H867 H 0.28668 0.81031 0.89204 0.0
H868 H 0.26585 0.8442 0.90816 0.0
H869 H 0.21366 0.79973 0.81997 0.0
H870 H 0.24676 0.77688 0.82394 0.0
H871 H 0.21909 0.74783 0.83503 0.0
H872 H 0.32013 0.70203 0.84976 0.0
H873 H 0.25309 0.63488 0.87686 0.0
H874 H 0.30277 0.82051 0.85869 0.0
H875 H 0.28862 0.80874 0.83575 0.0
H876 H 0.32073 0.78399 0.8417 0.0
H877 H 0.22031 0.73728 0.89138 0.0
H878 H 0.21379 0.67642 0.88372 0.0
H879 H 0.20679 0.72671 0.86815 0.0
C880 C 0.739 0.37903 0.8816 0.0
C881 C 0.7209 0.39013 0.86695 0.0
C882 C 0.753 0.33498 0.88185 0.0
C883 C 0.74863 0.3005 0.86723 0.0
C884 C 0.73017 0.31121 0.85252 0.0
C885 C 0.71672 0.35584 0.85248 0.0
C886 C 0.77266 0.3255 0.89771 0.0
C887 C 0.72452 0.27537 0.83682 0.0
C888 C 0.80096 0.20271 0.85803 0.0
C889 C 0.79061 0.16327 0.86818 0.0
C890 C 0.78765 0.24752 0.85768 0.0
C891 C 0.76313 0.25308 0.86747 0.0
C892 C 0.75246 0.21321 0.87754 0.0
C893 C 0.76635 0.1691 0.87787 0.0
C894 C 0.79996 0.28911 0.84696 0.0
C895 C 0.72625 0.21706 0.88796 0.0
H896 H 0.74258 0.40511 0.8928 0.0
H897 H 0.70278 0.36374 0.8411 0.0
H898 H 0.76676 0.29283 0.90581 0.0
H899 H 0.79263 0.31847 0.89157 0.0
H900 H 0.77413 0.3562 0.90784 0.0
H901 H 0.70937 0.28876 0.82656 0.0
H902 H 0.74304 0.26722 0.82885 0.0
H903 H 0.71737 0.241 0.8431 0.0
H904 H 0.8197 0.19881 0.85054 0.0
H905 H 0.75798 0.13891 0.88564 0.0
H906 H 0.80327 0.31978 0.85684 0.0
H907 H 0.78623 0.30181 0.83562 0.0
H908 H 0.81923 0.27924 0.84025 0.0
H909 H 0.72745 0.24536 0.89912 0.0
H910 H 0.72041 0.18259 0.89486 0.0
H911 H 0.71037 0.22794 0.87784 0.0
C912 C 0.78821 0.86203 0.9048 0.0
C913 C 0.77629 0.89779 0.89349 0.0
C914 C 0.77905 0.81428 0.90454 0.0
C915 C 0.75779 0.80155 0.89233 0.0
C916 C 0.74543 0.83767 0.88101 0.0
C917 C 0.75466 0.88557 0.88188 0.0
C918 C 0.79233 0.77737 0.91723 0.0
C919 C 0.72291 0.82546 0.86763 0.0
C920 C 0.75047 0.66851 0.87913 0.0
C921 C 0.72931 0.65462 0.89091 0.0
C922 C 0.75983 0.7164 0.87928 0.0
C923 C 0.74813 0.75065 0.89181 0.0
C924 C 0.72733 0.73611 0.90414 0.0
C925 C 0.71801 0.68854 0.90337 0.0
C926 C 0.78181 0.73066 0.86573 0.0
C927 C 0.71475 0.7709 0.91808 0.0
H928 H 0.80496 0.87138 0.91379 0.0
H929 H 0.74571 0.91297 0.87289 0.0
H930 H 0.77736 0.75996 0.92661 0.0
H931 H 0.80141 0.74861 0.90836 0.0
H932 H 0.80804 0.79345 0.92636 0.0
H933 H 0.71566 0.85745 0.85962 0.0
H934 H 0.72953 0.79775 0.85723 0.0
H935 H 0.70608 0.80989 0.8758 0.0
H936 H 0.75896 0.6425 0.86931 0.0
H937 H 0.70168 0.67783 0.91256 0.0
H938 H 0.79904 0.74466 0.87388 0.0
H939 H 0.77485 0.76013 0.85623 0.0
H940 H 0.78858 0.70003 0.85674 0.0
H941 H 0.73019 0.7866 0.92752 0.0
H942 H 0.6994 0.75343 0.92715 0.0
H943 H 0.70536 0.80115 0.91019 0.0
C944 C 0.29212 0.36273 0.90432 0.0
C945 C 0.27745 0.39734 0.89418 0.0
C946 C 0.28426 0.3142 0.90475 0.0
C947 C 0.26148 0.29963 0.89441 0.0
C948 C 0.24625 0.33467 0.88447 0.0
C949 C 0.25428 0.38327 0.88463 0.0
C950 C 0.30065 0.27839 0.91596 0.0
C951 C 0.22198 0.32055 0.87313 0.0
C952 C 0.25447 0.16775 0.87952 0.0
C953 C 0.23515 0.15164 0.89241 0.0
C954 C 0.26354 0.21581 0.88012 0.0
C955 C 0.2534 0.24784 0.89419 0.0
C956 C 0.23491 0.23069 0.90782 0.0
C957 C 0.2258 0.18306 0.90661 0.0
C958 C 0.28305 0.23288 0.8652 0.0
C959 C 0.2241 0.26304 0.92335 0.0
H960 H 0.31011 0.37354 0.91167 0.0
H961 H 0.24319 0.40977 0.87649 0.0
H962 H 0.28784 0.25863 0.92622 0.0
H963 H 0.30938 0.25133 0.90612 0.0
H964 H 0.31701 0.29594 0.924 0.0
H965 H 0.21233 0.35202 0.86616 0.0
H966 H 0.2276 0.29413 0.86192 0.0
H967 H 0.20725 0.30276 0.88259 0.0
H968 H 0.26138 0.14367 0.86837 0.0
H969 H 0.21083 0.17053 0.91661 0.0
H970 H 0.30075 0.2489 0.87216 0.0
H971 H 0.27374 0.26152 0.85636 0.0
H972 H 0.28967 0.20326 0.85563 0.0
H973 H 0.24065 0.28023 0.93128 0.0
H974 H 0.21142 0.24315 0.93368 0.0
H975 H 0.2121 0.29236 0.91687 0.0
C976 C 0.71835 0.36764 0.12875 0.0
C977 C 0.72981 0.40178 0.14098 0.0
C978 C 0.72733 0.31988 0.12844 0.0
C979 C 0.74795 0.30567 0.14095 0.0
C980 C 0.75998 0.34024 0.15311 0.0
C981 C 0.75091 0.38822 0.15284 0.0
C982 C 0.71446 0.28449 0.11491 0.0
C983 C 0.78187 0.32621 0.16677 0.0
C984 C 0.75352 0.17203 0.15278 0.0
C985 C 0.77509 0.15847 0.14135 0.0
C986 C 0.74452 0.22006 0.15291 0.0
C987 C 0.75711 0.2547 0.14105 0.0
C988 C 0.77827 0.24053 0.12899 0.0
C989 C 0.78715 0.19271 0.12943 0.0
C990 C 0.72205 0.23405 0.16609 0.0
C991 C 0.79176 0.27599 0.11577 0.0
H992 H 0.70204 0.37823 0.11952 0.0
H993 H 0.75949 0.41452 0.16248 0.0
H994 H 0.72977 0.26745 0.1057 0.0
H995 H 0.70472 0.25526 0.12315 0.0
H996 H 0.69934 0.30184 0.10559 0.0
H997 H 0.78911 0.35732 0.17528 0.0
H998 H 0.7746 0.298 0.17673 0.0
H999 H 0.79886 0.31063 0.15876 0.0
H1000 H 0.74446 0.14566 0.16218 0.0
H1001 H 0.80382 0.18214 0.12054 0.0
H1002 H 0.7054 0.24957 0.15772 0.0
H1003 H 0.72887 0.26229 0.17618 0.0
H1004 H 0.71447 0.20292 0.17447 0.0
H1005 H 0.77689 0.29303 0.1062 0.0
H1006 H 0.80733 0.2587 0.10683 0.0
H1007 H 0.80109 0.30521 0.12424 0.0
C1008 C 0.25005 0.88819 0.15037 0.0
C1009 C 0.22846 0.90164 0.13894 0.0
C1010 C 0.25972 0.84056 0.15009 0.0
C1011 C 0.24787 0.80619 0.13775 0.0
C1012 C 0.22669 0.8203 0.12569 0.0
C1013 C 0.21705 0.86766 0.12661 0.0
C1014 C 0.2821 0.82666 0.16336 0.0
C1015 C 0.21398 0.78524 0.11196 0.0
C1016 C 0.28807 0.69488 0.12496 0.0
C1017 C 0.27642 0.65955 0.13659 0.0
C1018 C 0.27874 0.74252 0.12501 0.0
C1019 C 0.25761 0.75545 0.13733 0.0
C1020 C 0.24557 0.71978 0.14901 0.0
C1021 C 0.25495 0.672 0.14834 0.0
C1022 C 0.29164 0.77907 0.11197 0.0
C1023 C 0.22323 0.73234 0.16253 0.0
H1024 H 0.25864 0.91431 0.16008 0.0
H1025 H 0.20038 0.87811 0.1177 0.0
H1026 H 0.27541 0.79756 0.17312 0.0
H1027 H 0.2991 0.8123 0.15502 0.0
H1028 H 0.28913 0.85756 0.17208 0.0
H1029 H 0.19851 0.80257 0.10294 0.0
H1030 H 0.22931 0.7693 0.10246 0.0
H1031 H 0.2047 0.7552 0.12002 0.0
H1032 H 0.30467 0.68527 0.11583 0.0
H1033 H 0.24618 0.64486 0.15753 0.0
H1034 H 0.30079 0.8082 0.12058 0.0
H1035 H 0.27643 0.79605 0.10266 0.0
H1036 H 0.30724 0.76276 0.10276 0.0
H1037 H 0.2299 0.76055 0.17269 0.0
H1038 H 0.21625 0.70063 0.17083 0.0
H1039 H 0.20619 0.7474 0.15444 0.0
C1040 C 0.20827 0.71341 0.63031 0.0
C1041 C 0.21288 0.67297 0.64192 0.0
C1042 C 0.22272 0.75618 0.63281 0.0
C1043 C 0.24229 0.75883 0.64731 0.0
C1044 C 0.24623 0.71893 0.65964 0.0
C1045 C 0.2315 0.67645 0.65679 0.0
C1046 C 0.21781 0.79787 0.61936 0.0
C1047 C 0.26678 0.72038 0.67534 0.0
C1048 C 0.29848 0.84566 0.63624 0.0
C1049 C 0.29077 0.8871 0.64633 0.0
C1050 C 0.28344 0.80317 0.63709 0.0
C1051 C 0.26005 0.8018 0.64834 0.0
C1052 C 0.25279 0.84272 0.65928 0.0
C1053 C 0.26822 0.88493 0.65814 0.0
C1054 C 0.29198 0.76038 0.62523 0.0
C1055 C 0.22811 0.84262 0.67155 0.0
H1056 H 0.19384 0.7113 0.61885 0.0
H1057 H 0.23515 0.64551 0.6659 0.0
H1058 H 0.21411 0.8314 0.62757 0.0
H1059 H 0.23573 0.80401 0.61043 0.0
H1060 H 0.20063 0.79138 0.60975 0.0
H1061 H 0.26544 0.6886 0.68496 0.0
H1062 H 0.28695 0.72122 0.66893 0.0
H1063 H 0.26448 0.75361 0.68399 0.0
H1064 H 0.31593 0.84676 0.62716 0.0
H1065 H 0.26211 0.91668 0.66602 0.0
H1066 H 0.277 0.75344 0.61392 0.0
H1067 H 0.29314 0.72757 0.63426 0.0
H1068 H 0.31158 0.76608 0.61828 0.0
H1069 H 0.21026 0.84132 0.66226 0.0
H1070 H 0.22676 0.87516 0.68074 0.0
H1071 H 0.22767 0.81011 0.68078 0.0
C1072 C 0.76571 0.39517 0.65406 0.0
C1073 C 0.79143 0.40033 0.66157 0.0
C1074 C 0.75211 0.35096 0.65511 0.0
C1075 C 0.76457 0.31057 0.66369 0.0
C1076 C 0.79061 0.3154 0.67114 0.0
C1077 C 0.80365 0.3602 0.6701 0.0
C1078 C 0.7243 0.34759 0.64714 0.0
C1079 C 0.80475 0.27315 0.6802 0.0
C1080 C 0.72168 0.20735 0.68234 0.0
C1081 C 0.72344 0.17364 0.66743 0.0
C1082 C 0.73477 0.25207 0.68125 0.0
C1083 C 0.75031 0.26335 0.66495 0.0
C1084 C 0.75221 0.22947 0.64986 0.0
C1085 C 0.73867 0.18525 0.65123 0.0
C1086 C 0.73192 0.28734 0.69755 0.0
C1087 C 0.76874 0.23977 0.63231 0.0
H1088 H 0.75601 0.4259 0.6475 0.0
H1089 H 0.82353 0.36365 0.67587 0.0
H1090 H 0.72348 0.3196 0.63585 0.0
H1091 H 0.7103 0.33654 0.65859 0.0
H1092 H 0.71735 0.3823 0.64098 0.0
H1093 H 0.82514 0.28251 0.685 0.0
H1094 H 0.79328 0.26001 0.6927 0.0
H1095 H 0.80607 0.24294 0.66986 0.0
H1096 H 0.70991 0.19894 0.69489 0.0
H1097 H 0.74031 0.15949 0.63965 0.0
H1098 H 0.72366 0.3219 0.6922 0.0
H1099 H 0.75172 0.29528 0.70376 0.0
H1100 H 0.71878 0.27352 0.70908 0.0
H1101 H 0.76144 0.2729 0.62513 0.0
H1102 H 0.76828 0.20964 0.62186 0.0
H1103 H 0.78968 0.24639 0.6365 0.0
C1104 C 0.22419 0.35634 0.34568 0.0
C1105 C 0.2255 0.38843 0.36119 0.0
C1106 C 0.23678 0.31097 0.34632 0.0
C1107 C 0.25139 0.29725 0.36278 0.0
C1108 C 0.25284 0.32949 0.37846 0.0
C1109 C 0.23979 0.37441 0.37753 0.0
C1110 C 0.23439 0.2776 0.32938 0.0
C1111 C 0.26834 0.31666 0.39622 0.0
C1112 C 0.26483 0.1638 0.37241 0.0
C1113 C 0.29101 0.15814 0.36577 0.0
C1114 C 0.25167 0.20855 0.37133 0.0
C1115 C 0.26501 0.24912 0.36363 0.0
C1116 C 0.29142 0.24365 0.35686 0.0
C1117 C 0.30401 0.19829 0.3579 0.0
C1118 C 0.22344 0.21242 0.3785 0.0
C1119 C 0.30652 0.28594 0.34873 0.0
H1120 H 0.21318 0.36654 0.333 0.0
H1121 H 0.24108 0.39883 0.38958 0.0
H1122 H 0.25439 0.26938 0.32355 0.0
H1123 H 0.22542 0.24292 0.33392 0.0
H1124 H 0.22204 0.29324 0.31776 0.0
H1125 H 0.26778 0.34579 0.4071 0.0
H1126 H 0.26023 0.28327 0.40269 0.0
H1127 H 0.28938 0.30934 0.39243 0.0
H1128 H 0.2545 0.13311 0.37845 0.0
H1129 H 0.32426 0.19452 0.35282 0.0
H1130 H 0.21032 0.22582 0.36692 0.0
H1131 H 0.22237 0.23887 0.39036 0.0
H1132 H 0.21562 0.17735 0.38369 0.0
H1133 H 0.29568 0.30111 0.33629 0.0
H1134 H 0.3269 0.27589 0.34408 0.0
H1135 H 0.30798 0.3149 0.3596 0.0
C1136 C 0.77009 0.67827 0.37274 0.0
C1137 C 0.79213 0.67613 0.38501 0.0
C1138 C 0.75465 0.7205 0.37123 0.0
C1139 C 0.76138 0.76151 0.38227 0.0
C1140 C 0.78424 0.76013 0.39405 0.0
C1141 C 0.7993 0.71761 0.39525 0.0
C1142 C 0.73055 0.72056 0.35841 0.0
C1143 C 0.79221 0.80299 0.40604 0.0
C1144 C 0.73312 0.88688 0.37279 0.0
C1145 C 0.71368 0.89059 0.38713 0.0
C1146 C 0.74809 0.84436 0.37046 0.0
C1147 C 0.74358 0.80465 0.38278 0.0
C1148 C 0.72326 0.80756 0.39676 0.0
C1149 C 0.70858 0.85034 0.39873 0.0
C1150 C 0.76943 0.84264 0.3553 0.0
C1151 C 0.71774 0.76613 0.4102 0.0
H1152 H 0.76438 0.6465 0.36473 0.0
H1153 H 0.81635 0.71656 0.4047 0.0
H1154 H 0.71228 0.72227 0.36727 0.0
H1155 H 0.73061 0.75287 0.34905 0.0
H1156 H 0.72956 0.68783 0.3493 0.0
H1157 H 0.81145 0.79724 0.41349 0.0
H1158 H 0.79385 0.83568 0.39699 0.0
H1159 H 0.77668 0.81016 0.41695 0.0
H1160 H 0.73719 0.91765 0.36369 0.0
H1161 H 0.69355 0.85262 0.4098 0.0
H1162 H 0.7675 0.8094 0.34661 0.0
H1163 H 0.78926 0.84161 0.36221 0.0
H1164 H 0.76863 0.87438 0.34562 0.0
H1165 H 0.71441 0.73247 0.402 0.0
H1166 H 0.70012 0.77284 0.4194 0.0
H1167 H 0.73523 0.76006 0.41955 0.0
C1168 C 0.75664 0.3917 0.37854 0.0
C1169 C 0.77859 0.40348 0.38989 0.0
C1170 C 0.74701 0.34412 0.37792 0.0
C1171 C 0.75927 0.30803 0.38928 0.0
C1172 C 0.78098 0.32026 0.40115 0.0
C1173 C 0.79055 0.36768 0.40113 0.0
C1174 C 0.72405 0.33227 0.36488 0.0
C1175 C 0.79413 0.28327 0.41388 0.0
C1176 C 0.71831 0.19769 0.40168 0.0
C1177 C 0.72893 0.16277 0.38937 0.0
C1178 C 0.72824 0.24482 0.40195 0.0
C1179 C 0.74893 0.25774 0.38926 0.0
C1180 C 0.75991 0.2225 0.37685 0.0
C1181 C 0.74996 0.17509 0.37722 0.0
C1182 C 0.71649 0.28082 0.41578 0.0
C1183 C 0.78172 0.23516 0.36292 0.0
H1184 H 0.74763 0.41923 0.36964 0.0
H1185 H 0.80751 0.37681 0.40996 0.0
H1186 H 0.72998 0.3035 0.35472 0.0
H1187 H 0.70712 0.31824 0.37337 0.0
H1188 H 0.71718 0.36411 0.3566 0.0
H1189 H 0.81044 0.29894 0.42258 0.0
H1190 H 0.77923 0.26718 0.42368 0.0
H1191 H 0.8024 0.25357 0.40509 0.0
H1192 H 0.70209 0.18809 0.41116 0.0
H1193 H 0.75794 0.14821 0.36755 0.0
H1194 H 0.70737 0.31116 0.4078 0.0
H1195 H 0.73237 0.29617 0.42493 0.0
H1196 H 0.7011 0.26449 0.42516 0.0
H1197 H 0.77492 0.2645 0.35329 0.0
H1198 H 0.78786 0.20384 0.35407 0.0
H1199 H 0.79934 0.24877 0.37074 0.0
C1200 C 0.21859 0.68043 0.40625 0.0
C1201 C 0.23088 0.64818 0.39358 0.0
C1202 C 0.22749 0.72818 0.40806 0.0
C1203 C 0.24869 0.74468 0.39646 0.0
C1204 C 0.26152 0.71191 0.38389 0.0
C1205 C 0.25269 0.6638 0.38279 0.0
C1206 C 0.21379 0.76128 0.42208 0.0
C1207 C 0.28385 0.72818 0.37101 0.0
C1208 C 0.25279 0.87941 0.38557 0.0
C1209 C 0.27433 0.89352 0.39691 0.0
C1210 C 0.24415 0.83113 0.38534 0.0
C1211 C 0.25694 0.79647 0.39711 0.0
C1212 C 0.27789 0.81124 0.40927 0.0
C1213 C 0.28659 0.85935 0.40879 0.0
C1214 C 0.22205 0.81682 0.37192 0.0
C1215 C 0.29154 0.77599 0.42247 0.0
H1216 H 0.20171 0.66837 0.41461 0.0
H1217 H 0.26192 0.63912 0.37277 0.0
H1218 H 0.22864 0.77882 0.43149 0.0
H1219 H 0.20324 0.7903 0.41424 0.0
H1220 H 0.19917 0.74187 0.43116 0.0
H1221 H 0.29199 0.69824 0.36224 0.0
H1222 H 0.2766 0.75695 0.36128 0.0
H1223 H 0.3002 0.74379 0.37963 0.0
H1224 H 0.2436 0.90553 0.37612 0.0
H1225 H 0.30332 0.87018 0.41755 0.0
H1226 H 0.20558 0.79989 0.38004 0.0
H1227 H 0.22949 0.78963 0.36159 0.0
H1228 H 0.21402 0.84805 0.36382 0.0
H1229 H 0.27663 0.75688 0.43137 0.0
H1230 H 0.30606 0.79393 0.43206 0.0
H1231 H 0.30219 0.74834 0.41395 0.0
C1232 C 0.75146 0.68274 0.65204 0.0
C1233 C 0.77242 0.66879 0.6401 0.0
C1234 C 0.74181 0.73044 0.65172 0.0
C1235 C 0.75295 0.76434 0.63879 0.0
C1236 C 0.77334 0.74954 0.62615 0.0
C1237 C 0.78307 0.70222 0.62716 0.0
C1238 C 0.72039 0.74503 0.66568 0.0
C1239 C 0.78525 0.78393 0.61176 0.0
C1240 C 0.713 0.87743 0.62756 0.0
C1241 C 0.72597 0.91228 0.63865 0.0
C1242 C 0.72183 0.8294 0.62721 0.0
C1243 C 0.74373 0.81553 0.63866 0.0
C1244 C 0.75706 0.85076 0.64977 0.0
C1245 C 0.74822 0.8989 0.64944 0.0
C1246 C 0.70756 0.79342 0.61472 0.0
C1247 C 0.78022 0.83733 0.66241 0.0
H1248 H 0.74349 0.65705 0.66223 0.0
H1249 H 0.79927 0.69135 0.61787 0.0
H1250 H 0.72795 0.77393 0.67519 0.0
H1251 H 0.70303 0.75992 0.6579 0.0
H1252 H 0.71362 0.71436 0.67466 0.0
H1253 H 0.79966 0.76585 0.60209 0.0
H1254 H 0.76934 0.80053 0.60296 0.0
H1255 H 0.79564 0.81357 0.61931 0.0
H1256 H 0.69576 0.88773 0.6192 0.0
H1257 H 0.75799 0.92563 0.65828 0.0
H1258 H 0.69855 0.76482 0.62371 0.0
H1259 H 0.72189 0.77562 0.60493 0.0
H1260 H 0.69163 0.81044 0.60603 0.0
H1261 H 0.774 0.8093 0.67282 0.0
H1262 H 0.78813 0.86874 0.67043 0.0
H1263 H 0.79649 0.82175 0.65367 0.0
C1264 C 0.21692 0.36573 0.62802 0.0
C1265 C 0.22704 0.40038 0.64063 0.0
C1266 C 0.22658 0.31839 0.62802 0.0
C1267 C 0.24648 0.30502 0.64127 0.0
C1268 C 0.25693 0.33996 0.65401 0.0
C1269 C 0.24727 0.38758 0.65338 0.0
C1270 C 0.21544 0.28269 0.61384 0.0
C1271 C 0.27792 0.3268 0.6685 0.0
C1272 C 0.25356 0.17083 0.65175 0.0
C1273 C 0.27598 0.15916 0.64084 0.0
C1274 C 0.24392 0.21845 0.65228 0.0
C1275 C 0.25675 0.25469 0.64134 0.0
C1276 C 0.27896 0.24258 0.62992 0.0
C1277 C 0.28844 0.1951 0.62996 0.0
C1278 C 0.22035 0.23019 0.6648 0.0
C1279 C 0.29278 0.27979 0.61767 0.0
H1280 H 0.20134 0.37571 0.61807 0.0
H1281 H 0.25486 0.41428 0.66328 0.0
H1282 H 0.23172 0.26748 0.60499 0.0
H1283 H 0.20599 0.25222 0.62153 0.0
H1284 H 0.20046 0.29924 0.60419 0.0
H1285 H 0.28359 0.35787 0.67763 0.0
H1286 H 0.27056 0.2973 0.67782 0.0
H1287 H 0.29596 0.31324 0.66113 0.0
H1288 H 0.24415 0.14319 0.66036 0.0
H1289 H 0.30578 0.18609 0.62146 0.0
H1290 H 0.20389 0.24471 0.65596 0.0
H1291 H 0.22583 0.25857 0.67524 0.0
H1292 H 0.213 0.19819 0.67275 0.0
H1293 H 0.2784 0.29621 0.60755 0.0
H1294 H 0.30952 0.26423 0.60934 0.0
H1295 H 0.3006 0.30922 0.62678 0.0
C1296 C 0.94293 0.0672 0.15358 0.0
C1297 C 0.93083 0.02174 0.15228 0.0
C1298 C 0.97064 0.07198 0.15428 0.0
C1299 C 0.98677 0.03024 0.1538 0.0
C1300 C 0.97469 0.98408 0.15349 0.0
C1301 C 0.9468 0.98035 0.15276 0.0
C1302 C 0.98263 0.12185 0.15469 0.0
C1303 C 0.99124 0.93871 0.1531 0.0
C1304 C 0.05561 0.04338 0.1321 0.0
C1305 C 0.07187 0.04524 0.14836 0.0
C1306 C 0.02796 0.03848 0.13372 0.0
C1307 C 0.01618 0.03525 0.15207 0.0
C1308 C 0.03241 0.03798 0.16857 0.0
C1309 C 0.06008 0.04308 0.16653 0.0
C1310 C 0.01137 0.03639 0.11575 0.0
C1311 C 0.02059 0.03465 0.18837 0.0
H1312 H 0.93066 0.09934 0.15366 0.0
H1313 H 0.93755 0.94518 0.15178 0.0
H1314 H 0.99716 0.12486 0.16654 0.0
H1315 H 0.99357 0.12855 0.14117 0.0
H1316 H 0.96735 0.15045 0.15642 0.0
H1317 H 0.97893 0.90573 0.15464 0.0
H1318 H 1.00222 0.9366 0.13936 0.0
H1319 H 0.00622 0.93936 0.16472 0.0
H1320 H 0.06461 0.0454 0.11804 0.0
H1321 H 0.07258 0.04379 0.17914 0.0
H1322 H 0.99653 0.06599 0.11579 0.0
H1323 H 1.00022 0.00193 0.11525 0.0
H1324 H 0.0236 0.03941 0.10258 0.0
H1325 H 0.00548 0.06335 0.1904 0.0
H1326 H 0.03586 0.03808 0.19975 0.0
H1327 H 0.0103 0.99958 0.19012 0.0
C1328 C 0.05762 0.98674 0.8925 0.0
C1329 C 0.07451 0.02455 0.88716 0.0
C1330 C 0.02979 0.99295 0.89263 0.0
C1331 C 0.01858 0.03781 0.88704 0.0
C1332 C 0.0356 0.07552 0.88109 0.0
C1333 C 0.06325 0.06849 0.8813 0.0
C1334 C 0.01237 0.95184 0.89912 0.0
C1335 C 0.02461 0.12355 0.87468 0.0
C1336 C 0.94602 0.03766 0.87151 0.0
C1337 C 0.93301 0.05458 0.88793 0.0
C1338 C 0.97382 0.03318 0.87087 0.0
C1339 C 0.98908 0.04521 0.88718 0.0
C1340 C 0.97608 0.06379 0.90363 0.0
C1341 C 0.94816 0.06842 0.90378 0.0
C1342 C 0.98676 0.01404 0.85293 0.0
C1343 C 0.99156 0.07692 0.92133 0.0
H1344 H 0.06621 0.95288 0.89718 0.0
H1345 H 0.0762 0.09772 0.87695 0.0
H1346 H 1.0005 0.96311 0.91173 0.0
H1347 H 0.99815 0.94213 0.88765 0.0
H1348 H 0.02407 0.91929 0.90299 0.0
H1349 H 0.04049 0.14886 0.87011 0.0
H1350 H 0.01066 0.11832 0.86258 0.0
H1351 H 0.01321 0.14043 0.88649 0.0
H1352 H 0.93425 0.0264 0.85933 0.0
H1353 H 0.93808 0.08057 0.91661 0.0
H1354 H 0.99638 0.97887 0.85598 0.0
H1355 H 0.00255 0.03904 0.84802 0.0
H1356 H 0.97227 0.00901 0.84113 0.0
H1357 H 1.00158 0.04436 0.9271 0.0
H1358 H 0.97868 0.09243 0.93268 0.0
H1359 H 0.00731 0.10339 0.91775 0.0
C1360 C 0.94312 0.50904 0.62232 0.0
C1361 C 0.92956 0.51727 0.6395 0.0
C1362 C 0.97105 0.51208 0.62148 0.0
C1363 C 0.98565 0.52303 0.63828 0.0
C1364 C 0.97199 0.52937 0.65579 0.0
C1365 C 0.94415 0.5267 0.65615 0.0
C1366 C 0.98486 0.50523 0.60253 0.0
C1367 C 0.98672 0.54019 0.6741 0.0
C1368 C 0.05932 0.49257 0.64016 0.0
C1369 C 0.07122 0.53766 0.63703 0.0
C1370 C 0.03159 0.48733 0.64055 0.0
C1371 C 0.0152 0.52812 0.63761 0.0
C1372 C 0.02706 0.57389 0.6346 0.0
C1373 C 0.05496 0.57818 0.63449 0.0
C1374 C 0.01984 0.4381 0.64419 0.0
C1375 C 0.01027 0.61823 0.63134 0.0
H1376 H 0.93182 0.5024 0.6094 0.0
H1377 H 0.93363 0.5331 0.66945 0.0
H1378 H 0.99536 0.53888 0.59849 0.0
H1379 H 1.00007 0.4764 0.60368 0.0
H1380 H 0.97078 0.49566 0.59091 0.0
H1381 H 0.97324 0.54196 0.68666 0.0
H1382 H 1.00201 0.51216 0.67678 0.0
H1383 H 0.99722 0.57517 0.67277 0.0
H1384 H 0.0718 0.46122 0.64243 0.0
H1385 H 0.06408 0.613 0.63198 0.0
H1386 H 0.00696 0.42745 0.63205 0.0
H1387 H 0.00714 0.4391 0.65716 0.0
H1388 H 0.03534 0.41 0.64619 0.0
H1389 H 0.99711 0.61268 0.61881 0.0
H1390 H 0.0225 0.65094 0.62884 0.0
H1391 H 0.99728 0.62465 0.64391 0.0
C1392 C 0.951 0.54081 0.39817 0.0
C1393 C 0.9343 0.54777 0.38233 0.0
C1394 C 0.97857 0.53517 0.39597 0.0
C1395 C 0.98997 0.53693 0.37746 0.0
C1396 C 0.97337 0.54517 0.36143 0.0
C1397 C 0.94575 0.55041 0.36404 0.0
C1398 C 0.9955 0.52683 0.41349 0.0
C1399 C 0.98474 0.54771 0.34148 0.0
C1400 C 0.0638 0.5655 0.37674 0.0
C1401 C 0.07528 0.51949 0.37527 0.0
C1402 C 0.03613 0.57183 0.37663 0.0
C1403 C 0.01935 0.53113 0.37512 0.0
C1404 C 0.03081 0.48473 0.3728 0.0
C1405 C 0.05868 0.47947 0.3728 0.0
C1406 C 0.02487 0.62198 0.37891 0.0
C1407 C 0.01362 0.4404 0.37118 0.0
H1408 H 0.94244 0.53938 0.41239 0.0
H1409 H 0.93304 0.5551 0.35168 0.0
H1410 H 0.0064 0.49221 0.41212 0.0
H1411 H 0.01055 0.55581 0.41478 0.0
H1412 H 0.98355 0.52586 0.42685 0.0
H1413 H 0.9693 0.55555 0.33057 0.0
H1414 H 1.00022 0.5761 0.34073 0.0
H1415 H 0.99448 0.51302 0.33785 0.0
H1416 H 0.07657 0.59667 0.37834 0.0
H1417 H 0.06745 0.44388 0.3717 0.0
H1418 H 0.01446 0.62486 0.39285 0.0
H1419 H 0.01003 0.62943 0.36757 0.0
H1420 H 0.04052 0.65015 0.37831 0.0
H1421 H 0.0028 0.43463 0.38481 0.0
H1422 H 0.02543 0.40754 0.36795 0.0
H1423 H 0.9985 0.44537 0.35981 0.0
C1424 C 0.44253 0.06983 0.65531 0.0
C1425 C 0.43146 0.02425 0.65188 0.0
C1426 C 0.47009 0.0761 0.65681 0.0
C1427 C 0.4871 0.03582 0.65474 0.0
C1428 C 0.47599 0.9893 0.65215 0.0
C1429 C 0.44822 0.98401 0.65085 0.0
C1430 C 0.48101 0.12621 0.65979 0.0
C1431 C 0.49348 0.94547 0.64985 0.0
C1432 C 0.55603 0.05995 0.63474 0.0
C1433 C 0.57205 0.05687 0.65111 0.0
C1434 C 0.52846 0.05303 0.63577 0.0
C1435 C 0.51642 0.04318 0.65365 0.0
C1436 C 0.53233 0.04133 0.67034 0.0
C1437 C 0.55997 0.04815 0.66887 0.0
C1438 C 0.51223 0.05568 0.61763 0.0
C1439 C 0.5202 0.03129 0.68968 0.0
H1440 H 0.42955 0.10092 0.65644 0.0
H1441 H 0.4397 0.94878 0.6482 0.0
H1442 H 0.49536 0.12641 0.67183 0.0
H1443 H 0.49191 0.13789 0.6468 0.0
H1444 H 0.46511 0.15295 0.66281 0.0
H1445 H 0.48183 0.9115 0.64958 0.0
H1446 H 0.50486 0.94834 0.6363 0.0
H1447 H 0.50812 0.94346 0.66167 0.0
H1448 H 0.56515 0.06729 0.621 0.0
H1449 H 0.57221 0.04507 0.68156 0.0
H1450 H 0.49696 0.08436 0.6189 0.0
H1451 H 0.50163 0.02113 0.61535 0.0
H1452 H 0.52465 0.06326 0.60484 0.0
H1453 H 0.50441 0.05807 0.69282 0.0
H1454 H 0.53516 0.03241 0.70134 0.0
H1455 H 0.51071 0.99523 0.68965 0.0
C1456 C 0.44352 0.05649 0.40274 0.0
C1457 C 0.42979 0.0482 0.38563 0.0
C1458 C 0.47146 0.05323 0.4035 0.0
C1459 C 0.48603 0.04206 0.38668 0.0
C1460 C 0.47224 0.03564 0.36923 0.0
C1461 C 0.44436 0.03844 0.36895 0.0
C1462 C 0.48534 0.06009 0.42241 0.0
C1463 C 0.48689 0.02465 0.35089 0.0
C1464 C 0.55983 0.07251 0.38518 0.0
C1465 C 0.57179 0.0275 0.38849 0.0
C1466 C 0.53207 0.07767 0.38447 0.0
C1467 C 0.51566 0.03689 0.3873 0.0
C1468 C 0.5276 0.99117 0.39043 0.0
C1469 C 0.55553 0.98695 0.39083 0.0
C1470 C 0.5203 0.12686 0.3807 0.0
C1471 C 0.51084 0.94682 0.39362 0.0
H1472 H 0.43232 0.06331 0.41571 0.0
H1473 H 0.43379 0.03199 0.3557 0.0
H1474 H 0.49592 0.02645 0.42641 0.0
H1475 H 0.50049 0.08894 0.42121 0.0
H1476 H 0.47129 0.06962 0.43407 0.0
H1477 H 0.47337 0.02295 0.33837 0.0
H1478 H 0.5022 0.05258 0.34815 0.0
H1479 H 0.49737 0.98961 0.3522 0.0
H1480 H 0.57229 0.10392 0.38308 0.0
H1481 H 0.56465 0.95217 0.39348 0.0
H1482 H 0.50752 0.13784 0.39287 0.0
H1483 H 0.5075 0.12563 0.3678 0.0
H1484 H 0.53579 0.15483 0.37853 0.0
H1485 H 0.49769 0.95226 0.40618 0.0
H1486 H 0.5231 0.91406 0.39605 0.0
H1487 H 0.49785 0.94056 0.38106 0.0
C1488 C 0.56079 0.49148 0.15024 0.0
C1489 C 0.57302 0.53692 0.14956 0.0
C1490 C 0.53306 0.48685 0.15049 0.0
C1491 C 0.51701 0.52872 0.15016 0.0
C1492 C 0.52918 0.5748 0.15039 0.0
C1493 C 0.5571 0.57838 0.15013 0.0
C1494 C 0.52096 0.43706 0.15036 0.0
C1495 C 0.51273 0.62029 0.15014 0.0
C1496 C 0.44844 0.5169 0.12792 0.0
C1497 C 0.43194 0.51429 0.14406 0.0
C1498 C 0.47607 0.52171 0.12974 0.0
C1499 C 0.48761 0.52401 0.14818 0.0
C1500 C 0.47114 0.52059 0.16456 0.0
C1501 C 0.44349 0.51568 0.1623 0.0
C1502 C 0.49293 0.52462 0.1119 0.0
C1503 C 0.48268 0.52287 0.18445 0.0
H1504 H 0.57301 0.45927 0.15024 0.0
H1505 H 0.56644 0.61354 0.14961 0.0
H1506 H 0.50627 0.43343 0.16211 0.0
H1507 H 0.51017 0.43128 0.13672 0.0
H1508 H 0.53615 0.40824 0.15192 0.0
H1509 H 0.52508 0.65313 0.15195 0.0
H1510 H 0.50194 0.62301 0.13635 0.0
H1511 H 0.49759 0.61927 0.16167 0.0
H1512 H 0.43965 0.51544 0.11378 0.0
H1513 H 0.43084 0.51441 0.17484 0.0
H1514 H 0.50766 0.49483 0.11179 0.0
H1515 H 0.5042 0.55895 0.11175 0.0
H1516 H 0.48087 0.52248 0.09863 0.0
H1517 H 0.49763 0.49386 0.18639 0.0
H1518 H 0.46723 0.51916 0.1957 0.0
H1519 H 0.4931 0.5577 0.18649 0.0
C1520 C 0.4423 0.49223 0.8901 0.0
C1521 C 0.43076 0.53579 0.88401 0.0
C1522 C 0.46995 0.48675 0.89156 0.0
C1523 C 0.48676 0.52593 0.887 0.0
C1524 C 0.47529 0.57057 0.88142 0.0
C1525 C 0.44741 0.57502 0.88003 0.0
C1526 C 0.48117 0.43867 0.89773 0.0
C1527 C 0.49252 0.61335 0.8766 0.0
C1528 C 0.55736 0.52299 0.90666 0.0
C1529 C 0.57223 0.50805 0.8907 0.0
C1530 C 0.52968 0.52918 0.90561 0.0
C1531 C 0.51629 0.51991 0.88821 0.0
C1532 C 0.53103 0.50347 0.87219 0.0
C1533 C 0.5588 0.4977 0.87363 0.0
C1534 C 0.5148 0.54629 0.9231 0.0
C1535 C 0.51751 0.49275 0.85342 0.0
H1536 H 0.42959 0.46197 0.89361 0.0
H1537 H 0.43868 0.6087 0.87528 0.0
H1538 H 0.49413 0.42391 0.8863 0.0
H1539 H 0.49366 0.44323 0.91066 0.0
H1540 H 0.46538 0.4119 0.90093 0.0
H1541 H 0.48062 0.64581 0.87295 0.0
H1542 H 0.50565 0.62206 0.88885 0.0
H1543 H 0.50555 0.60445 0.86429 0.0
H1544 H 0.5675 0.53054 0.91999 0.0
H1545 H 0.5701 0.48675 0.86117 0.0
H1546 H 0.49944 0.51953 0.92717 0.0
H1547 H 0.50437 0.58059 0.91989 0.0
H1548 H 0.52814 0.55209 0.93553 0.0
H1549 H 0.50198 0.46488 0.85552 0.0
H1550 H 0.53169 0.47991 0.84236 0.0
H1551 H 0.50744 0.52565 0.84804 0.0
C1552 C 0.22304 0.01812 0.97827 0.0
C1553 C 0.20216 0.02423 0.96517 0.0
C1554 C 0.21903 0.02285 0.99801 0.0
C1555 C 0.19352 0.03491 1.00507 0.0
C1556 C 0.17238 0.04237 0.99198 0.0
C1557 C 0.17693 0.03683 0.97217 0.0
C1558 C 0.24226 0.01478 1.01134 0.0
C1559 C 0.14499 0.05589 0.99892 0.0
C1560 C 0.1857 0.00396 0.05783 0.0
C1561 C 0.19409 0.0469 0.06643 0.0
C1562 C 0.18363 1.00027 0.03779 0.0
C1563 C 0.1897 0.04074 0.02615 0.0
C1564 C 0.19611 0.08518 0.03495 0.0
C1565 C 0.19848 0.08754 0.05493 0.0
C1566 C 0.17696 0.9521 0.02905 0.0
C1567 C 0.20229 0.12948 0.02323 0.0
H1568 H 0.24278 0.00972 0.97311 0.0
H1569 H 0.16064 0.04145 0.96222 0.0
H1570 H 0.24643 0.04821 0.01948 0.0
H1571 H 0.23735 0.98621 0.02187 0.0
H1572 H 0.26062 0.00405 1.0036 0.0
H1573 H 0.13084 0.06163 0.98694 0.0
H1574 H 0.1371 0.02708 1.00834 0.0
H1575 H 0.14598 0.08934 1.00757 0.0
H1576 H 0.18244 0.97247 0.0667 0.0
H1577 H 0.20466 0.12092 0.06162 0.0
H1578 H 0.19508 0.93652 0.02243 0.0
H1579 H 0.16194 0.95636 0.01757 0.0
H1580 H 0.16929 0.92621 0.03984 0.0
H1581 H 0.22192 0.12504 0.01622 0.0
H1582 H 0.20288 0.1626 0.03214 0.0
H1583 H 0.18729 0.13444 1.01178 0.0
C1584 C 0.82093 0.9916 0.97485 0.0
C1585 C 0.8186 0.03699 0.96623 0.0
C1586 C 0.82245 0.98708 0.99493 0.0
C1587 C 0.82188 0.02899 1.00659 0.0
C1588 C 0.82181 0.07492 0.99773 0.0
C1589 C 0.81998 0.07828 0.97774 0.0
C1590 C 0.82247 0.93741 1.00369 0.0
C1591 C 0.82149 0.12065 1.00941 0.0
C1592 C 0.78563 0.02304 0.05429 0.0
C1593 C 0.80646 0.02135 0.06765 0.0
C1594 C 0.79052 0.02472 0.03455 0.0
C1595 C 0.817 0.02519 0.0277 0.0
C1596 C 0.83824 0.02412 0.04104 0.0
C1597 C 0.83273 0.02226 0.06085 0.0
C1598 C 0.76716 0.02632 0.02099 0.0
C1599 C 0.86674 0.02483 0.03436 0.0
H1600 H 0.81963 0.95966 0.96599 0.0
H1601 H 0.81831 0.1134 0.97105 0.0
H1602 H 0.83722 0.93513 0.01544 0.0
H1603 H 0.80263 0.92993 1.00994 0.0
H1604 H 0.82698 0.90903 0.99297 0.0
H1605 H 0.82546 0.15303 1.00051 0.0
H1606 H 0.80171 0.12498 0.01623 0.0
H1607 H 0.83648 0.11892 0.02101 0.0
H1608 H 0.76527 0.02349 0.05929 0.0
H1609 H 0.84896 0.02064 0.07099 0.0
H1610 H 0.7684 0.99602 1.01068 0.0
H1611 H 0.76761 0.06027 1.01261 0.0
H1612 H 0.74779 0.02415 0.02857 0.0
H1613 H 0.8706 0.99353 0.0249 0.0
H1614 H 0.88101 0.02375 0.04646 0.0
H1615 H 0.87051 0.05783 0.02582 0.0
C1616 C 0.18238 0.55696 0.55444 0.0
C1617 C 0.20476 0.53532 0.56274 0.0
C1618 C 0.17894 0.5573 0.53442 0.0
C1619 C 0.19799 0.53436 0.52252 0.0
C1620 C 0.22038 0.51187 0.53097 0.0
C1621 C 0.2236 0.51311 0.55089 0.0
C1622 C 0.15509 0.5825 0.52598 0.0
C1623 C 0.24082 0.48578 0.51898 0.0
C1624 C 0.17948 0.48437 0.47382 0.0
C1625 C 0.19307 0.51534 0.46124 0.0
C1626 C 0.18004 0.49131 0.49367 0.0
C1627 C 0.19403 0.53099 0.50136 0.0
C1628 C 0.20632 0.56433 0.48875 0.0
C1629 C 0.20583 0.55598 0.46884 0.0
C1630 C 0.16681 0.45457 0.50647 0.0
C1631 C 0.22096 0.60769 0.49633 0.0
H1632 H 0.168 0.57467 0.5636 0.0
H1633 H 0.24079 0.49608 0.55732 0.0
H1634 H 0.16169 0.61018 0.51555 0.0
H1635 H 0.14262 0.55631 0.51808 0.0
H1636 H 0.14266 0.60018 0.53708 0.0
H1637 H 0.2571 0.47022 0.52776 0.0
H1638 H 0.23116 0.4562 0.5109 0.0
H1639 H 0.24962 0.51084 0.50837 0.0
H1640 H 0.16873 0.45378 0.46818 0.0
H1641 H 0.21627 0.58029 0.45934 0.0
H1642 H 0.15321 0.47259 0.5167 0.0
H1643 H 0.18214 0.43542 0.51499 0.0
H1644 H 0.15532 0.42744 0.49825 0.0
H1645 H 0.20869 0.62675 0.50714 0.0
H1646 H 0.22629 0.63344 0.48478 0.0
H1647 H 0.23948 0.59583 0.50352 0.0
C1648 C 0.83442 0.54238 0.47247 0.0
C1649 C 0.80829 0.54059 0.46546 0.0
C1650 C 0.83958 0.54202 0.49235 0.0
C1651 C 0.81814 0.53987 0.50552 0.0
C1652 C 0.79182 0.53733 0.49845 0.0
C1653 C 0.7873 0.5374 0.47866 0.0
C1654 C 0.86793 0.54427 0.49928 0.0
C1655 C 0.76825 0.53454 0.51181 0.0
C1656 C 0.82063 0.4922 0.55633 0.0
C1657 C 0.81764 0.53448 0.56708 0.0
C1658 C 0.8234 0.49367 0.53634 0.0
C1659 C 0.82262 0.5386 0.52673 0.0
C1660 C 0.82158 0.58167 0.53769 0.0
C1661 C 0.81923 0.57908 0.55778 0.0
C1662 C 0.82483 0.4468 0.52545 0.0
C1663 C 0.82057 0.63036 0.52812 0.0
H1664 H 0.85077 0.54508 0.46245 0.0
H1665 H 0.76708 0.53475 0.47351 0.0
H1666 H 0.87084 0.57712 0.50806 0.0
H1667 H 0.87229 0.51283 0.50857 0.0
H1668 H 0.88242 0.54475 0.48729 0.0
H1669 H 0.74901 0.53416 0.50404 0.0
H1670 H 0.76956 0.50141 0.52065 0.0
H1671 H 0.76832 0.56577 0.5217 0.0
H1672 H 0.81935 0.45772 0.56357 0.0
H1673 H 0.81659 0.61172 0.56607 0.0
H1674 H 0.83994 0.44888 0.51393 0.0
H1675 H 0.80535 0.43964 0.51859 0.0
H1676 H 0.82971 0.4159 0.53493 0.0
H1677 H 0.83561 0.6327 0.51656 0.0
H1678 H 0.82397 0.66015 0.53843 0.0
H1679 H 0.80075 0.63549 0.52147 0.0
C1680 C 0.70348 0.00492 0.5601 0.0
C1681 C 0.69099 0.04558 0.56795 0.0
C1682 C 0.70368 0.99709 0.54014 0.0
C1683 C 0.69128 0.03089 0.52775 0.0
C1684 C 0.67741 0.07041 0.53573 0.0
C1685 C 0.67721 0.07691 0.55562 0.0
C1686 C 0.71823 0.9539 0.53226 0.0
C1687 C 0.66404 0.10761 0.5232 0.0
C1688 C 0.72089 0.05045 0.47826 0.0
C1689 C 0.70217 0.02848 0.46628 0.0
C1690 C 0.71758 0.05117 0.49819 0.0
C1691 C 0.6952 0.02839 0.50653 0.0
C1692 C 0.6762 0.00592 0.49448 0.0
C1693 C 0.67975 0.00674 0.47445 0.0
C1694 C 0.73799 0.07677 0.51031 0.0
C1695 C 0.65235 0.98049 0.50278 0.0
H1696 H 0.71405 0.98038 0.56945 0.0
H1697 H 0.6667 0.10756 0.5615 0.0
H1698 H 0.70591 0.93536 0.52137 0.0
H1699 H 0.73675 0.96589 0.5251 0.0
H1700 H 0.72356 0.92768 0.54365 0.0
H1701 H 0.6524 0.13421 0.53163 0.0
H1702 H 0.67931 0.12734 0.51484 0.0
H1703 H 0.65055 0.08997 0.51283 0.0
H1704 H 0.73816 0.06743 0.47193 0.0
H1705 H 0.6655 0.98914 0.46519 0.0
H1706 H 0.74689 0.05124 0.5207 0.0
H1707 H 0.72829 0.10592 0.51864 0.0
H1708 H 0.7542 0.09281 0.5016 0.0
H1709 H 0.65897 0.95194 0.51282 0.0
H1710 H 0.63974 0.96383 0.49156 0.0
H1711 H 0.64006 0.00624 0.51108 0.0
C1712 C 0.28927 0.04145 0.47807 0.0
C1713 C 0.30929 0.02725 0.46526 0.0
C1714 C 0.29209 0.03563 0.49787 0.0
C1715 C 0.3155 0.01442 0.50531 0.0
C1716 C 0.33556 0.99852 0.49248 0.0
C1717 C 0.33222 0.0051 0.47256 0.0
C1718 C 0.26998 0.05272 0.51085 0.0
C1719 C 0.36068 0.97533 0.49981 0.0
C1720 C 0.32492 0.04549 0.55795 0.0
C1721 C 0.31165 0.00711 0.56681 0.0
C1722 C 0.32816 0.04681 0.53792 0.0
C1723 C 0.31816 0.00856 0.52653 0.0
C1724 C 0.30671 0.96799 0.53564 0.0
C1725 C 0.30346 0.96793 0.55559 0.0
C1726 C 0.34042 0.09083 0.52886 0.0
C1727 C 0.29606 0.9261 0.52423 0.0
H1728 H 0.27119 0.05748 0.47258 0.0
H1729 H 0.34779 0.99419 0.46277 0.0
H1730 H 0.26218 0.02206 0.51935 0.0
H1731 H 0.27771 0.07983 0.52108 0.0
H1732 H 0.25323 0.06911 0.50279 0.0
H1733 H 0.37382 0.96293 0.48803 0.0
H1734 H 0.3718 0.00144 0.50875 0.0
H1735 H 0.35576 0.94407 0.50905 0.0
H1736 H 0.3312 0.07588 0.56655 0.0
H1737 H 0.29358 0.93782 0.56243 0.0
H1738 H 0.32465 0.11244 0.5218 0.0
H1739 H 0.35495 0.08029 0.51768 0.0
H1740 H 0.35057 0.11398 0.53955 0.0
H1741 H 0.27746 0.93713 0.5169 0.0
H1742 H 0.29161 0.89444 0.53342 0.0
H1743 H 0.31046 0.9151 0.51303 0.0
C1744 C 0.67629 0.52639 0.05969 0.0
C1745 C 0.70179 0.53475 0.06714 0.0
C1746 C 0.67208 0.52238 0.03977 0.0
C1747 C 0.69385 0.52705 0.027 0.0
C1748 C 0.71959 0.53507 0.03449 0.0
C1749 C 0.72323 0.53838 0.05432 0.0
C1750 C 0.64439 0.51325 0.03239 0.0
C1751 C 0.74347 0.54004 0.02152 0.0
C1752 C 0.69759 0.47368 0.97712 0.0
C1753 C 0.69516 0.51471 0.96553 0.0
C1754 C 0.69503 0.47655 0.99709 0.0
C1755 C 0.69043 0.52184 1.00581 0.0
C1756 C 0.68641 0.563 0.99408 0.0
C1757 C 0.68861 0.55886 0.97403 0.0
C1758 C 0.699 0.43153 1.00888 0.0
C1759 C 0.6817 0.61205 1.00273 0.0
H1760 H 0.65956 0.52379 0.06938 0.0
H1761 H 0.74312 0.54355 0.05978 0.0
H1762 H 0.63824 0.54302 0.02276 0.0
H1763 H 0.64408 0.47959 0.02385 0.0
H1764 H 0.62961 0.51007 0.04413 0.0
H1765 H 0.76198 0.5481 0.02955 0.0
H1766 H 0.74651 0.5062 1.01337 0.0
H1767 H 0.74007 0.56931 1.01098 0.0
H1768 H 0.70235 0.43942 0.97052 0.0
H1769 H 0.68688 0.59063 0.9651 0.0
H1770 H 0.68348 0.42869 0.02009 0.0
H1771 H 0.71852 0.43326 0.01621 0.0
H1772 H 0.69853 0.3984 0.99998 0.0
H1773 H 0.66626 0.61013 1.01403 0.0
H1774 H 0.6755 0.63898 0.99184 0.0
H1775 H 0.70029 0.62486 1.00956 0.0
C1776 C 0.33114 0.50103 0.96884 0.0
C1777 C 0.31061 0.52892 0.96098 0.0
C1778 C 0.33291 0.49371 0.98881 0.0
C1779 C 0.31353 0.51435 1.00112 0.0
C1780 C 0.29234 0.54116 0.99308 0.0
C1781 C 0.29121 0.5481 0.97324 0.0
C1782 C 0.35581 0.46495 0.99678 0.0
C1783 C 0.27094 0.56321 1.00548 0.0
C1784 C 0.29752 0.46942 0.05119 0.0
C1785 C 0.30811 0.50608 0.06274 0.0
C1786 C 0.30069 0.46987 0.03122 0.0
C1787 C 0.31479 0.50803 0.02241 0.0
C1788 C 0.32695 0.54357 0.03407 0.0
C1789 C 0.32353 0.54211 0.0541 0.0
C1790 C 0.28751 0.43102 0.01949 0.0
C1791 C 0.34221 0.58486 0.02533 0.0
H1792 H 0.34627 0.4865 0.95944 0.0
H1793 H 0.2751 0.56911 0.96721 0.0
H1794 H 0.36822 0.48838 1.006 0.0
H1795 H 0.3483 0.43518 1.00589 0.0
H1796 H 0.36854 0.4495 0.98534 0.0
H1797 H 0.25567 0.58262 0.99697 0.0
H1798 H 0.26094 0.53474 1.01398 0.0
H1799 H 0.27995 0.58895 0.01572 0.0
H1800 H 0.28606 0.44087 0.05778 0.0
H1801 H 0.33173 0.57059 0.06287 0.0
H1802 H 0.3015 0.41648 1.00867 0.0
H1803 H 0.27035 0.44662 1.01167 0.0
H1804 H 0.28021 0.40079 0.02849 0.0
H1805 H 0.35647 0.57135 1.01448 0.0
H1806 H 0.35327 0.60586 0.03625 0.0
H1807 H 0.32819 0.60948 0.01793 0.0
loop_
_geom_bond_atom_site_label_1
_geom_bond_atom_site_label_2
_geom_bond_distance
_geom_bond_site_symmetry_2
_ccdc_geom_bond_type
Co0 N4 2.148 . S
Co0 N10 2.128 . S
Co0 N20 2.194 . S
Co0 O25 2.351 1_545 S
Co0 O26 2.155 1_545 S
Co0 O27 2.096 . S
C1 N4 1.301 . S
C1 N5 1.328 . S
C1 H6 0.930 1_545 S
C2 C3 1.333 . S
C2 N4 1.317 . S
C2 H7 0.930 . S
C3 C2 1.333 . S
C3 N5 1.350 . S
C3 H29 0.931 . S
N4 Co0 2.148 . S
N4 C1 1.301 . S
N4 C2 1.317 . S
N5 C1 1.328 . S
N5 C3 1.350 . S
H6 C1 0.930 1_565 S
H7 C2 0.930 . S
C8 O9 1.224 . S
C8 O27 1.247 . S
O9 C8 1.224 . S
N10 Co0 2.128 . S
N10 C11 1.355 . S
N10 C13 1.311 . S
C11 N10 1.355 . S
C11 C12 1.363 . S
C11 H23 0.929 1_545 S
C12 C11 1.363 . S
C12 N14 1.375 . S
C12 H30 0.931 . S
C13 N10 1.311 . S
C13 N14 1.347 . S
C13 H24 0.929 . S
N14 C12 1.375 . S
N14 C13 1.347 . S
C15 C18 1.365 . S
C15 N20 1.328 . S
C15 H21 0.929 1_545 S
C16 C17 1.362 . S
C16 C19 1.378 . S
C16 H31 0.929 . S
C17 C16 1.362 . S
C17 C18 1.366 . S
C18 C15 1.365 . S
C18 C17 1.366 . S
C18 H32 0.930 1_545 S
C19 C16 1.378 . S
C19 N20 1.315 . S
C19 H22 0.930 . S
N20 Co0 2.194 . S
N20 C15 1.328 . S
N20 C19 1.315 . S
H21 C15 0.929 1_565 S
H22 C19 0.930 . S
H23 C11 0.929 1_565 S
H24 C13 0.929 . S
O25 Co0 2.351 1_565 S
O25 C28 1.244 . S
O26 Co0 2.155 1_565 S
O26 C28 1.240 . S
O27 Co0 2.096 . S
O27 C8 1.247 . S
C28 O25 1.244 . S
C28 O26 1.240 . S
H29 C3 0.931 . S
H30 C12 0.931 . S
H31 C16 0.929 . S
H32 C18 0.930 1_565 S
Co33 N37 2.148 . S
Co33 N43 2.128 . S
Co33 N53 2.194 . S
Co33 O58 2.351 . S
Co33 O59 2.155 . S
Co33 O60 2.096 1_545 S
C34 N37 1.301 . S
C34 N38 1.328 . S
C34 H39 0.930 . S
C35 C36 1.333 . S
C35 N37 1.317 1_565 S
C35 H40 0.930 . S
C36 C35 1.333 . S
C36 N38 1.350 1_565 S
C36 H62 0.931 . S
N37 Co33 2.148 . S
N37 C34 1.301 . S
N37 C35 1.317 1_545 S
N38 C34 1.328 . S
N38 C36 1.350 1_545 S
H39 C34 0.930 . S
H40 C35 0.930 . S
C41 O42 1.224 . S
C41 O60 1.247 . S
O42 C41 1.224 . S
N43 Co33 2.128 . S
N43 C44 1.355 . S
N43 C46 1.311 . S
C44 N43 1.355 . S
C44 C45 1.363 . S
C44 H56 0.929 . S
C45 C44 1.363 . S
C45 N47 1.375 . S
C45 H63 0.931 . S
C46 N43 1.311 . S
C46 N47 1.347 . S
C46 H57 0.929 1_545 S
N47 C45 1.375 . S
N47 C46 1.347 . S
C48 C51 1.365 . S
C48 N53 1.328 . S
C48 H54 0.929 . S
C49 C50 1.362 1_565 S
C49 C52 1.378 . S
C49 H64 0.929 . S
C50 C49 1.362 1_545 S
C50 C51 1.366 . S
C51 C48 1.365 . S
C51 C50 1.366 . S
C51 H65 0.930 . S
C52 C49 1.378 . S
C52 N53 1.315 1_565 S
C52 H55 0.930 . S
N53 Co33 2.194 . S
N53 C48 1.328 . S
N53 C52 1.315 1_545 S
H54 C48 0.929 . S
H55 C52 0.930 . S
H56 C44 0.929 . S
H57 C46 0.929 1_565 S
O58 Co33 2.351 . S
O58 C61 1.244 . S
O59 Co33 2.155 . S
O59 C61 1.240 . S
O60 Co33 2.096 1_565 S
O60 C41 1.247 . S
C61 O58 1.244 . S
C61 O59 1.240 . S
H62 C36 0.931 . S
H63 C45 0.931 . S
H64 C49 0.929 . S
H65 C51 0.930 . S
Co66 N70 2.148 . S
Co66 N76 2.128 . S
Co66 N86 2.194 . S
Co66 O91 2.351 . S
Co66 O92 2.155 . S
Co66 O93 2.096 1_545 S
C67 N70 1.301 . S
C67 N71 1.328 . S
C67 H72 0.930 . S
C68 C69 1.333 . S
C68 N70 1.317 1_565 S
C68 H73 0.930 . S
C69 C68 1.333 . S
C69 N71 1.350 1_565 S
C69 H95 0.931 . S
N70 Co66 2.148 . S
N70 C67 1.301 . S
N70 C68 1.317 1_545 S
N71 C67 1.328 . S
N71 C69 1.350 1_545 S
H72 C67 0.930 . S
H73 C68 0.930 . S
C74 O75 1.224 . S
C74 O93 1.247 . S
O75 C74 1.224 . S
N76 Co66 2.128 . S
N76 C77 1.355 . S
N76 C79 1.311 . S
C77 N76 1.355 . S
C77 C78 1.363 . S
C77 H89 0.929 . S
C78 C77 1.363 . S
C78 N80 1.375 . S
C78 H96 0.931 . S
C79 N76 1.311 . S
C79 N80 1.347 . S
C79 H90 0.929 1_545 S
N80 C78 1.375 . S
N80 C79 1.347 . S
C81 C84 1.365 . S
C81 N86 1.328 . S
C81 H87 0.929 . S
C82 C83 1.362 1_565 S
C82 C85 1.378 . S
C82 H97 0.929 . S
C83 C82 1.362 1_545 S
C83 C84 1.366 . S
C84 C81 1.365 . S
C84 C83 1.366 . S
C84 H98 0.930 . S
C85 C82 1.378 . S
C85 N86 1.315 1_565 S
C85 H88 0.930 . S
N86 Co66 2.194 . S
N86 C81 1.328 . S
N86 C85 1.315 1_545 S
H87 C81 0.929 . S
H88 C85 0.930 . S
H89 C77 0.929 . S
H90 C79 0.929 1_565 S
O91 Co66 2.351 . S
O91 C94 1.244 . S
O92 Co66 2.155 . S
O92 C94 1.240 . S
O93 Co66 2.096 1_565 S
O93 C74 1.247 . S
C94 O91 1.244 . S
C94 O92 1.240 . S
H95 C69 0.931 . S
H96 C78 0.931 . S
H97 C82 0.929 . S
H98 C84 0.930 . S
Co99 N103 2.148 . S
Co99 N109 2.128 . S
Co99 N119 2.194 . S
Co99 O124 2.351 1_545 S
Co99 O125 2.155 1_545 S
Co99 O126 2.096 . S
C100 N103 1.301 . S
C100 N104 1.328 . S
C100 H105 0.930 1_545 S
C101 C102 1.333 . S
C101 N103 1.317 . S
C101 H106 0.930 . S
C102 C101 1.333 . S
C102 N104 1.350 . S
C102 H128 0.931 . S
N103 Co99 2.148 . S
N103 C100 1.301 . S
N103 C101 1.317 . S
N104 C100 1.328 . S
N104 C102 1.350 . S
H105 C100 0.930 1_565 S
H106 C101 0.930 . S
C107 O108 1.224 . S
C107 O126 1.247 . S
O108 C107 1.224 . S
N109 Co99 2.128 . S
N109 C110 1.355 . S
N109 C112 1.311 . S
C110 N109 1.355 . S
C110 C111 1.363 . S
C110 H122 0.929 1_545 S
C111 C110 1.363 . S
C111 N113 1.375 . S
C111 H129 0.931 . S
C112 N109 1.311 . S
C112 N113 1.347 . S
C112 H123 0.929 . S
N113 C111 1.375 . S
N113 C112 1.347 . S
C114 C117 1.365 . S
C114 N119 1.328 . S
C114 H120 0.929 1_545 S
C115 C116 1.362 . S
C115 C118 1.378 . S
C115 H130 0.929 . S
C116 C115 1.362 . S
C116 C117 1.366 . S
C117 C114 1.365 . S
C117 C116 1.366 . S
C117 H131 0.930 1_545 S
C118 C115 1.378 . S
C118 N119 1.315 . S
C118 H121 0.930 . S
N119 Co99 2.194 . S
N119 C114 1.328 . S
N119 C118 1.315 . S
H120 C114 0.929 1_565 S
H121 C118 0.930 . S
H122 C110 0.929 1_565 S
H123 C112 0.929 . S
O124 Co99 2.351 1_565 S
O124 C127 1.244 . S
O125 Co99 2.155 1_565 S
O125 C127 1.240 . S
O126 Co99 2.096 . S
O126 C107 1.247 . S
C127 O124 1.244 . S
C127 O125 1.240 . S
H128 C102 0.931 . S
H129 C111 0.931 . S
H130 C115 0.929 . S
H131 C117 0.930 1_565 S
Co132 N136 2.148 . S
Co132 N142 2.128 . S
Co132 N152 2.194 . S
Co132 O157 2.351 . S
Co132 O158 2.155 . S
Co132 O159 2.096 . S
C133 N136 1.301 . S
C133 N137 1.328 . S
C133 H138 0.930 . S
C134 C135 1.333 . S
C134 N136 1.317 . S
C134 H139 0.930 . S
C135 C134 1.333 . S
C135 N137 1.350 . S
C135 H161 0.931 . S
N136 Co132 2.148 . S
N136 C133 1.301 . S
N136 C134 1.317 . S
N137 C133 1.328 . S
N137 C135 1.350 . S
H138 C133 0.930 . S
H139 C134 0.930 . S
C140 O141 1.224 . S
C140 O159 1.247 . S
O141 C140 1.224 . S
N142 Co132 2.128 . S
N142 C143 1.355 . S
N142 C145 1.311 . S
C143 N142 1.355 . S
C143 C144 1.363 . S
C143 H155 0.929 . S
C144 C143 1.363 . S
C144 N146 1.375 . S
C144 H162 0.931 . S
C145 N142 1.311 . S
C145 N146 1.347 . S
C145 H156 0.929 . S
N146 C144 1.375 . S
N146 C145 1.347 . S
C147 C150 1.365 . S
C147 N152 1.328 . S
C147 H153 0.929 . S
C148 C149 1.362 . S
C148 C151 1.378 . S
C148 H163 0.929 . S
C149 C148 1.362 . S
C149 C150 1.366 . S
C150 C147 1.365 . S
C150 C149 1.366 . S
C150 H164 0.930 . S
C151 C148 1.378 . S
C151 N152 1.315 . S
C151 H154 0.930 . S
N152 Co132 2.194 . S
N152 C147 1.328 . S
N152 C151 1.315 . S
H153 C147 0.929 . S
H154 C151 0.930 . S
H155 C143 0.929 . S
H156 C145 0.929 . S
O157 Co132 2.351 . S
O157 C160 1.244 . S
O158 Co132 2.155 . S
O158 C160 1.240 . S
O159 Co132 2.096 . S
O159 C140 1.247 . S
C160 O157 1.244 . S
C160 O158 1.240 . S
H161 C135 0.931 . S
H162 C144 0.931 . S
H163 C148 0.929 . S
H164 C150 0.930 . S
Co165 N169 2.148 . S
Co165 N175 2.128 . S
Co165 N185 2.194 . S
Co165 O190 2.351 . S
Co165 O191 2.155 . S
Co165 O192 2.096 . S
C166 N169 1.301 . S
C166 N170 1.328 . S
C166 H171 0.930 . S
C167 C168 1.333 . S
C167 N169 1.317 . S
C167 H172 0.930 . S
C168 C167 1.333 . S
C168 N170 1.350 . S
C168 H194 0.931 . S
N169 Co165 2.148 . S
N169 C166 1.301 . S
N169 C167 1.317 . S
N170 C166 1.328 . S
N170 C168 1.350 . S
H171 C166 0.930 . S
H172 C167 0.930 . S
C173 O174 1.224 . S
C173 O192 1.247 . S
O174 C173 1.224 . S
N175 Co165 2.128 . S
N175 C176 1.355 . S
N175 C178 1.311 . S
C176 N175 1.355 . S
C176 C177 1.363 . S
C176 H188 0.929 . S
C177 C176 1.363 . S
C177 N179 1.375 . S
C177 H195 0.931 . S
C178 N175 1.311 . S
C178 N179 1.347 . S
C178 H189 0.929 . S
N179 C177 1.375 . S
N179 C178 1.347 . S
C180 C183 1.365 . S
C180 N185 1.328 . S
C180 H186 0.929 . S
C181 C182 1.362 . S
C181 C184 1.378 . S
C181 H196 0.929 . S
C182 C181 1.362 . S
C182 C183 1.366 . S
C183 C180 1.365 . S
C183 C182 1.366 . S
C183 H197 0.930 . S
C184 C181 1.378 . S
C184 N185 1.315 . S
C184 H187 0.930 . S
N185 Co165 2.194 . S
N185 C180 1.328 . S
N185 C184 1.315 . S
H186 C180 0.929 . S
H187 C184 0.930 . S
H188 C176 0.929 . S
H189 C178 0.929 . S
O190 Co165 2.351 . S
O190 C193 1.244 . S
O191 Co165 2.155 . S
O191 C193 1.240 . S
O192 Co165 2.096 . S
O192 C173 1.247 . S
C193 O190 1.244 . S
C193 O191 1.240 . S
H194 C168 0.931 . S
H195 C177 0.931 . S
H196 C181 0.929 . S
H197 C183 0.930 . S
Co198 N202 2.148 . S
Co198 N208 2.128 . S
Co198 N218 2.194 . S
Co198 O223 2.351 . S
Co198 O224 2.155 . S
Co198 O225 2.096 . S
C199 N202 1.301 . S
C199 N203 1.328 . S
C199 H204 0.930 . S
C200 C201 1.333 . S
C200 N202 1.317 . S
C200 H205 0.930 . S
C201 C200 1.333 . S
C201 N203 1.350 . S
C201 H227 0.931 . S
N202 Co198 2.148 . S
N202 C199 1.301 . S
N202 C200 1.317 . S
N203 C199 1.328 . S
N203 C201 1.350 . S
H204 C199 0.930 . S
H205 C200 0.930 . S
C206 O207 1.224 . S
C206 O225 1.247 . S
O207 C206 1.224 . S
N208 Co198 2.128 . S
N208 C209 1.355 . S
N208 C211 1.311 . S
C209 N208 1.355 . S
C209 C210 1.363 . S
C209 H221 0.929 . S
C210 C209 1.363 . S
C210 N212 1.375 . S
C210 H228 0.931 . S
C211 N208 1.311 . S
C211 N212 1.347 . S
C211 H222 0.929 . S
N212 C210 1.375 . S
N212 C211 1.347 . S
C213 C216 1.365 . S
C213 N218 1.328 . S
C213 H219 0.929 . S
C214 C215 1.362 . S
C214 C217 1.378 . S
C214 H229 0.929 . S
C215 C214 1.362 . S
C215 C216 1.366 . S
C216 C213 1.365 . S
C216 C215 1.366 . S
C216 H230 0.930 . S
C217 C214 1.378 . S
C217 N218 1.315 . S
C217 H220 0.930 . S
N218 Co198 2.194 . S
N218 C213 1.328 . S
N218 C217 1.315 . S
H219 C213 0.929 . S
H220 C217 0.930 . S
H221 C209 0.929 . S
H222 C211 0.929 . S
O223 Co198 2.351 . S
O223 C226 1.244 . S
O224 Co198 2.155 . S
O224 C226 1.240 . S
O225 Co198 2.096 . S
O225 C206 1.247 . S
C226 O223 1.244 . S
C226 O224 1.240 . S
H227 C201 0.931 . S
H228 C210 0.931 . S
H229 C214 0.929 . S
H230 C216 0.930 . S
Co231 N235 2.148 . S
Co231 N241 2.128 . S
Co231 N251 2.194 . S
Co231 O256 2.351 . S
Co231 O257 2.155 . S
Co231 O258 2.096 . S
C232 N235 1.301 . S
C232 N236 1.328 . S
C232 H237 0.930 . S
C233 C234 1.333 . S
C233 N235 1.317 . S
C233 H238 0.930 . S
C234 C233 1.333 . S
C234 N236 1.350 . S
C234 H260 0.931 . S
N235 Co231 2.148 . S
N235 C232 1.301 . S
N235 C233 1.317 . S
N236 C232 1.328 . S
N236 C234 1.350 . S
H237 C232 0.930 . S
H238 C233 0.930 . S
C239 O240 1.224 . S
C239 O258 1.247 . S
O240 C239 1.224 . S
N241 Co231 2.128 . S
N241 C242 1.355 . S
N241 C244 1.311 . S
C242 N241 1.355 . S
C242 C243 1.363 . S
C242 H254 0.929 . S
C243 C242 1.363 . S
C243 N245 1.375 . S
C243 H261 0.931 . S
C244 N241 1.311 . S
C244 N245 1.347 . S
C244 H255 0.929 . S
N245 C243 1.375 . S
N245 C244 1.347 . S
C246 C249 1.365 . S
C246 N251 1.328 . S
C246 H252 0.929 . S
C247 C248 1.362 . S
C247 C250 1.378 . S
C247 H262 0.929 . S
C248 C247 1.362 . S
C248 C249 1.366 . S
C249 C246 1.365 . S
C249 C248 1.366 . S
C249 H263 0.930 . S
C250 C247 1.378 . S
C250 N251 1.315 . S
C250 H253 0.930 . S
N251 Co231 2.194 . S
N251 C246 1.328 . S
N251 C250 1.315 . S
H252 C246 0.929 . S
H253 C250 0.930 . S
H254 C242 0.929 . S
H255 C244 0.929 . S
O256 Co231 2.351 . S
O256 C259 1.244 . S
O257 Co231 2.155 . S
O257 C259 1.240 . S
O258 Co231 2.096 . S
O258 C239 1.247 . S
C259 O256 1.244 . S
C259 O257 1.240 . S
H260 C234 0.931 . S
H261 C243 0.931 . S
H262 C247 0.929 . S
H263 C249 0.930 . S
Co264 N268 2.148 . S
Co264 N274 2.128 . S
Co264 N284 2.194 . S
Co264 O289 2.351 1_545 S
Co264 O290 2.155 1_545 S
Co264 O291 2.096 . S
C265 N268 1.301 . S
C265 N269 1.328 . S
C265 H270 0.930 1_545 S
C266 C267 1.333 . S
C266 N268 1.317 . S
C266 H271 0.930 . S
C267 C266 1.333 . S
C267 N269 1.350 . S
C267 H293 0.931 . S
N268 Co264 2.148 . S
N268 C265 1.301 . S
N268 C266 1.317 . S
N269 C265 1.328 . S
N269 C267 1.350 . S
H270 C265 0.930 1_565 S
H271 C266 0.930 . S
C272 O273 1.224 . S
C272 O291 1.247 . S
O273 C272 1.224 . S
N274 Co264 2.128 . S
N274 C275 1.355 . S
N274 C277 1.311 . S
C275 N274 1.355 . S
C275 C276 1.363 . S
C275 H287 0.929 1_545 S
C276 C275 1.363 . S
C276 N278 1.375 . S
C276 H294 0.931 . S
C277 N274 1.311 . S
C277 N278 1.347 . S
C277 H288 0.929 . S
N278 C276 1.375 . S
N278 C277 1.347 . S
C279 C282 1.365 . S
C279 N284 1.328 . S
C279 H285 0.929 1_545 S
C280 C281 1.362 . S
C280 C283 1.378 . S
C280 H295 0.929 . S
C281 C280 1.362 . S
C281 C282 1.366 . S
C282 C279 1.365 . S
C282 C281 1.366 . S
C282 H296 0.930 1_545 S
C283 C280 1.378 . S
C283 N284 1.315 . S
C283 H286 0.930 . S
N284 Co264 2.194 . S
N284 C279 1.328 . S
N284 C283 1.315 . S
H285 C279 0.929 1_565 S
H286 C283 0.930 . S
H287 C275 0.929 1_565 S
H288 C277 0.929 . S
O289 Co264 2.351 1_565 S
O289 C292 1.244 . S
O290 Co264 2.155 1_565 S
O290 C292 1.240 . S
O291 Co264 2.096 . S
O291 C272 1.247 . S
C292 O289 1.244 . S
C292 O290 1.240 . S
H293 C267 0.931 . S
H294 C276 0.931 . S
H295 C280 0.929 . S
H296 C282 0.930 1_565 S
Co297 N301 2.148 . S
Co297 N307 2.128 . S
Co297 N317 2.194 . S
Co297 O322 2.351 . S
Co297 O323 2.155 . S
Co297 O324 2.096 1_545 S
C298 N301 1.301 . S
C298 N302 1.328 . S
C298 H303 0.930 . S
C299 C300 1.333 . S
C299 N301 1.317 1_565 S
C299 H304 0.930 . S
C300 C299 1.333 . S
C300 N302 1.350 1_565 S
C300 H326 0.931 . S
N301 Co297 2.148 . S
N301 C298 1.301 . S
N301 C299 1.317 1_545 S
N302 C298 1.328 . S
N302 C300 1.350 1_545 S
H303 C298 0.930 . S
H304 C299 0.930 . S
C305 O306 1.224 . S
C305 O324 1.247 . S
O306 C305 1.224 . S
N307 Co297 2.128 . S
N307 C308 1.355 . S
N307 C310 1.311 . S
C308 N307 1.355 . S
C308 C309 1.363 . S
C308 H320 0.929 . S
C309 C308 1.363 . S
C309 N311 1.375 . S
C309 H327 0.931 . S
C310 N307 1.311 . S
C310 N311 1.347 . S
C310 H321 0.929 1_545 S
N311 C309 1.375 . S
N311 C310 1.347 . S
C312 C315 1.365 . S
C312 N317 1.328 . S
C312 H318 0.929 . S
C313 C314 1.362 1_565 S
C313 C316 1.378 . S
C313 H328 0.929 . S
C314 C313 1.362 1_545 S
C314 C315 1.366 . S
C315 C312 1.365 . S
C315 C314 1.366 . S
C315 H329 0.930 . S
C316 C313 1.378 . S
C316 N317 1.315 1_565 S
C316 H319 0.930 . S
N317 Co297 2.194 . S
N317 C312 1.328 . S
N317 C316 1.315 1_545 S
H318 C312 0.929 . S
H319 C316 0.930 . S
H320 C308 0.929 . S
H321 C310 0.929 1_565 S
O322 Co297 2.351 . S
O322 C325 1.244 . S
O323 Co297 2.155 . S
O323 C325 1.240 . S
O324 Co297 2.096 1_565 S
O324 C305 1.247 . S
C325 O322 1.244 . S
C325 O323 1.240 . S
H326 C300 0.931 . S
H327 C309 0.931 . S
H328 C313 0.929 . S
H329 C315 0.930 . S
Co330 N334 2.148 . S
Co330 N340 2.128 . S
Co330 N350 2.194 . S
Co330 O355 2.351 . S
Co330 O356 2.155 . S
Co330 O357 2.096 1_545 S
C331 N334 1.301 . S
C331 N335 1.328 . S
C331 H336 0.930 . S
C332 C333 1.333 . S
C332 N334 1.317 1_565 S
C332 H337 0.930 . S
C333 C332 1.333 . S
C333 N335 1.350 1_565 S
C333 H359 0.931 . S
N334 Co330 2.148 . S
N334 C331 1.301 . S
N334 C332 1.317 1_545 S
N335 C331 1.328 . S
N335 C333 1.350 1_545 S
H336 C331 0.930 . S
H337 C332 0.930 . S
C338 O339 1.224 . S
C338 O357 1.247 . S
O339 C338 1.224 . S
N340 Co330 2.128 . S
N340 C341 1.355 . S
N340 C343 1.311 . S
C341 N340 1.355 . S
C341 C342 1.363 . S
C341 H353 0.929 . S
C342 C341 1.363 . S
C342 N344 1.375 . S
C342 H360 0.931 . S
C343 N340 1.311 . S
C343 N344 1.347 . S
C343 H354 0.929 1_545 S
N344 C342 1.375 . S
N344 C343 1.347 . S
C345 C348 1.365 . S
C345 N350 1.328 . S
C345 H351 0.929 . S
C346 C347 1.362 1_565 S
C346 C349 1.378 . S
C346 H361 0.929 . S
C347 C346 1.362 1_545 S
C347 C348 1.366 . S
C348 C345 1.365 . S
C348 C347 1.366 . S
C348 H362 0.930 . S
C349 C346 1.378 . S
C349 N350 1.315 1_565 S
C349 H352 0.930 . S
N350 Co330 2.194 . S
N350 C345 1.328 . S
N350 C349 1.315 1_545 S
H351 C345 0.929 . S
H352 C349 0.930 . S
H353 C341 0.929 . S
H354 C343 0.929 1_565 S
O355 Co330 2.351 . S
O355 C358 1.244 . S
O356 Co330 2.155 . S
O356 C358 1.240 . S
O357 Co330 2.096 1_565 S
O357 C338 1.247 . S
C358 O355 1.244 . S
C358 O356 1.240 . S
H359 C333 0.931 . S
H360 C342 0.931 . S
H361 C346 0.929 . S
H362 C348 0.930 . S
Co363 N367 2.148 . S
Co363 N373 2.128 . S
Co363 N383 2.194 . S
Co363 O388 2.351 1_545 S
Co363 O389 2.155 1_545 S
Co363 O390 2.096 . S
C364 N367 1.301 . S
C364 N368 1.328 . S
C364 H369 0.930 1_545 S
C365 C366 1.333 . S
C365 N367 1.317 . S
C365 H370 0.930 . S
C366 C365 1.333 . S
C366 N368 1.350 . S
C366 H392 0.931 . S
N367 Co363 2.148 . S
N367 C364 1.301 . S
N367 C365 1.317 . S
N368 C364 1.328 . S
N368 C366 1.350 . S
H369 C364 0.930 1_565 S
H370 C365 0.930 . S
C371 O372 1.224 . S
C371 O390 1.247 . S
O372 C371 1.224 . S
N373 Co363 2.128 . S
N373 C374 1.355 . S
N373 C376 1.311 . S
C374 N373 1.355 . S
C374 C375 1.363 . S
C374 H386 0.929 1_545 S
C375 C374 1.363 . S
C375 N377 1.375 . S
C375 H393 0.931 . S
C376 N373 1.311 . S
C376 N377 1.347 . S
C376 H387 0.929 . S
N377 C375 1.375 . S
N377 C376 1.347 . S
C378 C381 1.365 . S
C378 N383 1.328 . S
C378 H384 0.929 1_545 S
C379 C380 1.362 . S
C379 C382 1.378 . S
C379 H394 0.929 . S
C380 C379 1.362 . S
C380 C381 1.366 . S
C381 C378 1.365 . S
C381 C380 1.366 . S
C381 H395 0.930 1_545 S
C382 C379 1.378 . S
C382 N383 1.315 . S
C382 H385 0.930 . S
N383 Co363 2.194 . S
N383 C378 1.328 . S
N383 C382 1.315 . S
H384 C378 0.929 1_565 S
H385 C382 0.930 . S
H386 C374 0.929 1_565 S
H387 C376 0.929 . S
O388 Co363 2.351 1_565 S
O388 C391 1.244 . S
O389 Co363 2.155 1_565 S
O389 C391 1.240 . S
O390 Co363 2.096 . S
O390 C371 1.247 . S
C391 O388 1.244 . S
C391 O389 1.240 . S
H392 C366 0.931 . S
H393 C375 0.931 . S
H394 C379 0.929 . S
H395 C381 0.930 1_565 S
Co396 N400 2.148 . S
Co396 N406 2.128 . S
Co396 N416 2.194 . S
Co396 O421 2.351 . S
Co396 O422 2.155 . S
Co396 O423 2.096 . S
C397 N400 1.301 . S
C397 N401 1.328 . S
C397 H402 0.930 . S
C398 C399 1.333 . S
C398 N400 1.317 . S
C398 H403 0.930 . S
C399 C398 1.333 . S
C399 N401 1.350 . S
C399 H425 0.931 . S
N400 Co396 2.148 . S
N400 C397 1.301 . S
N400 C398 1.317 . S
N401 C397 1.328 . S
N401 C399 1.350 . S
H402 C397 0.930 . S
H403 C398 0.930 . S
C404 O405 1.224 . S
C404 O423 1.247 . S
O405 C404 1.224 . S
N406 Co396 2.128 . S
N406 C407 1.355 . S
N406 C409 1.311 . S
C407 N406 1.355 . S
C407 C408 1.363 . S
C407 H419 0.929 . S
C408 C407 1.363 . S
C408 N410 1.375 . S
C408 H426 0.931 . S
C409 N406 1.311 . S
C409 N410 1.347 . S
C409 H420 0.929 . S
N410 C408 1.375 . S
N410 C409 1.347 . S
C411 C414 1.365 . S
C411 N416 1.328 . S
C411 H417 0.929 . S
C412 C413 1.362 . S
C412 C415 1.378 . S
C412 H427 0.929 . S
C413 C412 1.362 . S
C413 C414 1.366 . S
C414 C411 1.365 . S
C414 C413 1.366 . S
C414 H428 0.930 . S
C415 C412 1.378 . S
C415 N416 1.315 . S
C415 H418 0.930 . S
N416 Co396 2.194 . S
N416 C411 1.328 . S
N416 C415 1.315 . S
H417 C411 0.929 . S
H418 C415 0.930 . S
H419 C407 0.929 . S
H420 C409 0.929 . S
O421 Co396 2.351 . S
O421 C424 1.244 . S
O422 Co396 2.155 . S
O422 C424 1.240 . S
O423 Co396 2.096 . S
O423 C404 1.247 . S
C424 O421 1.244 . S
C424 O422 1.240 . S
H425 C399 0.931 . S
H426 C408 0.931 . S
H427 C412 0.929 . S
H428 C414 0.930 . S
Co429 N433 2.148 . S
Co429 N439 2.128 . S
Co429 N449 2.194 . S
Co429 O454 2.351 . S
Co429 O455 2.155 . S
Co429 O456 2.096 . S
C430 N433 1.301 . S
C430 N434 1.328 . S
C430 H435 0.930 . S
C431 C432 1.333 . S
C431 N433 1.317 . S
C431 H436 0.930 . S
C432 C431 1.333 . S
C432 N434 1.350 . S
C432 H458 0.931 . S
N433 Co429 2.148 . S
N433 C430 1.301 . S
N433 C431 1.317 . S
N434 C430 1.328 . S
N434 C432 1.350 . S
H435 C430 0.930 . S
H436 C431 0.930 . S
C437 O438 1.224 . S
C437 O456 1.247 . S
O438 C437 1.224 . S
N439 Co429 2.128 . S
N439 C440 1.355 . S
N439 C442 1.311 . S
C440 N439 1.355 . S
C440 C441 1.363 . S
C440 H452 0.929 . S
C441 C440 1.363 . S
C441 N443 1.375 . S
C441 H459 0.931 . S
C442 N439 1.311 . S
C442 N443 1.347 . S
C442 H453 0.929 . S
N443 C441 1.375 . S
N443 C442 1.347 . S
C444 C447 1.365 . S
C444 N449 1.328 . S
C444 H450 0.929 . S
C445 C446 1.362 . S
C445 C448 1.378 . S
C445 H460 0.929 . S
C446 C445 1.362 . S
C446 C447 1.366 . S
C447 C444 1.365 . S
C447 C446 1.366 . S
C447 H461 0.930 . S
C448 C445 1.378 . S
C448 N449 1.315 . S
C448 H451 0.930 . S
N449 Co429 2.194 . S
N449 C444 1.328 . S
N449 C448 1.315 . S
H450 C444 0.929 . S
H451 C448 0.930 . S
H452 C440 0.929 . S
H453 C442 0.929 . S
O454 Co429 2.351 . S
O454 C457 1.244 . S
O455 Co429 2.155 . S
O455 C457 1.240 . S
O456 Co429 2.096 . S
O456 C437 1.247 . S
C457 O454 1.244 . S
C457 O455 1.240 . S
H458 C432 0.931 . S
H459 C441 0.931 . S
H460 C445 0.929 . S
H461 C447 0.930 . S
Co462 N466 2.148 . S
Co462 N472 2.128 . S
Co462 N482 2.194 . S
Co462 O487 2.351 . S
Co462 O488 2.155 . S
Co462 O489 2.096 . S
C463 N466 1.301 . S
C463 N467 1.328 . S
C463 H468 0.930 . S
C464 C465 1.333 . S
C464 N466 1.317 . S
C464 H469 0.930 . S
C465 C464 1.333 . S
C465 N467 1.350 . S
C465 H491 0.931 . S
N466 Co462 2.148 . S
N466 C463 1.301 . S
N466 C464 1.317 . S
N467 C463 1.328 . S
N467 C465 1.350 . S
H468 C463 0.930 . S
H469 C464 0.930 . S
C470 O471 1.224 . S
C470 O489 1.247 . S
O471 C470 1.224 . S
N472 Co462 2.128 . S
N472 C473 1.355 . S
N472 C475 1.311 . S
C473 N472 1.355 . S
C473 C474 1.363 . S
C473 H485 0.929 . S
C474 C473 1.363 . S
C474 N476 1.375 . S
C474 H492 0.931 . S
C475 N472 1.311 . S
C475 N476 1.347 . S
C475 H486 0.929 . S
N476 C474 1.375 . S
N476 C475 1.347 . S
C477 C480 1.365 . S
C477 N482 1.328 . S
C477 H483 0.929 . S
C478 C479 1.362 . S
C478 C481 1.378 . S
C478 H493 0.929 . S
C479 C478 1.362 . S
C479 C480 1.366 . S
C480 C477 1.365 . S
C480 C479 1.366 . S
C480 H494 0.930 . S
C481 C478 1.378 . S
C481 N482 1.315 . S
C481 H484 0.930 . S
N482 Co462 2.194 . S
N482 C477 1.328 . S
N482 C481 1.315 . S
H483 C477 0.929 . S
H484 C481 0.930 . S
H485 C473 0.929 . S
H486 C475 0.929 . S
O487 Co462 2.351 . S
O487 C490 1.244 . S
O488 Co462 2.155 . S
O488 C490 1.240 . S
O489 Co462 2.096 . S
O489 C470 1.247 . S
C490 O487 1.244 . S
C490 O488 1.240 . S
H491 C465 0.931 . S
H492 C474 0.931 . S
H493 C478 0.929 . S
H494 C480 0.930 . S
Co495 N499 2.148 . S
Co495 N505 2.128 . S
Co495 N515 2.194 . S
Co495 O520 2.351 . S
Co495 O521 2.155 . S
Co495 O522 2.096 . S
C496 N499 1.301 . S
C496 N500 1.328 . S
C496 H501 0.930 . S
C497 C498 1.333 . S
C497 N499 1.317 . S
C497 H502 0.930 . S
C498 C497 1.333 . S
C498 N500 1.350 . S
C498 H524 0.931 . S
N499 Co495 2.148 . S
N499 C496 1.301 . S
N499 C497 1.317 . S
N500 C496 1.328 . S
N500 C498 1.350 . S
H501 C496 0.930 . S
H502 C497 0.930 . S
C503 O504 1.224 . S
C503 O522 1.247 . S
O504 C503 1.224 . S
N505 Co495 2.128 . S
N505 C506 1.355 . S
N505 C508 1.311 . S
C506 N505 1.355 . S
C506 C507 1.363 . S
C506 H518 0.929 . S
C507 C506 1.363 . S
C507 N509 1.375 . S
C507 H525 0.931 . S
C508 N505 1.311 . S
C508 N509 1.347 . S
C508 H519 0.929 . S
N509 C507 1.375 . S
N509 C508 1.347 . S
C510 C513 1.365 . S
C510 N515 1.328 . S
C510 H516 0.929 . S
C511 C512 1.362 . S
C511 C514 1.378 . S
C511 H526 0.929 . S
C512 C511 1.362 . S
C512 C513 1.366 . S
C513 C510 1.365 . S
C513 C512 1.366 . S
C513 H527 0.930 . S
C514 C511 1.378 . S
C514 N515 1.315 . S
C514 H517 0.930 . S
N515 Co495 2.194 . S
N515 C510 1.328 . S
N515 C514 1.315 . S
H516 C510 0.929 . S
H517 C514 0.930 . S
H518 C506 0.929 . S
H519 C508 0.929 . S
O520 Co495 2.351 . S
O520 C523 1.244 . S
O521 Co495 2.155 . S
O521 C523 1.240 . S
O522 Co495 2.096 . S
O522 C503 1.247 . S
C523 O520 1.244 . S
C523 O521 1.240 . S
H524 C498 0.931 . S
H525 C507 0.931 . S
H526 C511 0.929 . S
H527 C513 0.930 . S
C528 C529 1.391 . S
C528 C530 1.394 . S
C528 H544 0.931 . S
C529 C528 1.391 . S
C529 C533 1.376 . S
C530 C528 1.394 . S
C530 C531 1.369 . S
C530 C534 1.531 . S
C531 C530 1.369 . S
C531 C532 1.410 . S
C531 C539 1.503 . S
C532 C531 1.410 . S
C532 C533 1.392 . S
C532 C535 1.511 1_545 S
C533 C529 1.376 . S
C533 C532 1.392 . S
C533 H545 0.929 1_545 S
C534 C530 1.531 . S
C534 H546 0.960 . S
C534 H547 0.962 . S
C534 H548 0.960 . S
C535 C532 1.511 1_565 S
C535 H549 0.961 . S
C535 H550 0.961 . S
C535 H551 0.961 . S
C536 C537 1.370 . S
C536 C538 1.363 . S
C536 H552 0.931 . S
C537 C536 1.370 . S
C537 C541 1.408 . S
C538 C536 1.363 . S
C538 C539 1.370 . S
C538 C542 1.524 . S
C539 C531 1.503 . S
C539 C538 1.370 . S
C539 C540 1.403 . S
C540 C539 1.403 . S
C540 C541 1.404 . S
C540 C543 1.539 . S
C541 C537 1.408 . S
C541 C540 1.404 . S
C541 H553 0.930 . S
C542 C538 1.524 . S
C542 H554 0.956 . S
C542 H555 0.961 . S
C542 H556 0.961 . S
C543 C540 1.539 . S
C543 H557 0.958 . S
C543 H558 0.961 . S
C543 H559 0.960 . S
H544 C528 0.931 . S
H545 C533 0.929 1_565 S
H546 C534 0.960 . S
H547 C534 0.962 . S
H548 C534 0.960 . S
H549 C535 0.961 . S
H550 C535 0.961 . S
H551 C535 0.961 . S
H552 C536 0.931 . S
H553 C541 0.930 . S
H554 C542 0.956 . S
H555 C542 0.961 . S
H556 C542 0.961 . S
H557 C543 0.958 . S
H558 C543 0.961 . S
H559 C543 0.960 . S
C560 C561 1.391 . S
C560 C562 1.394 . S
C560 H576 0.931 . S
C561 C560 1.391 . S
C561 C565 1.376 1_565 S
C562 C560 1.394 . S
C562 C563 1.369 . S
C562 C566 1.531 . S
C563 C562 1.369 . S
C563 C564 1.410 1_565 S
C563 C571 1.503 . S
C564 C563 1.410 1_545 S
C564 C565 1.392 . S
C564 C567 1.511 . S
C565 C561 1.376 1_545 S
C565 C564 1.392 . S
C565 H577 0.929 . S
C566 C562 1.531 . S
C566 H578 0.960 . S
C566 H579 0.962 . S
C566 H580 0.960 . S
C567 C564 1.511 . S
C567 H581 0.961 . S
C567 H582 0.961 . S
C567 H583 0.961 . S
C568 C569 1.370 1_545 S
C568 C570 1.363 . S
C568 H584 0.931 . S
C569 C568 1.370 1_565 S
C569 C573 1.408 . S
C570 C568 1.363 . S
C570 C571 1.370 1_545 S
C570 C574 1.524 . S
C571 C563 1.503 . S
C571 C570 1.370 1_565 S
C571 C572 1.403 . S
C572 C571 1.403 . S
C572 C573 1.404 . S
C572 C575 1.539 . S
C573 C569 1.408 . S
C573 C572 1.404 . S
C573 H585 0.930 . S
C574 C570 1.524 . S
C574 H586 0.956 . S
C574 H587 0.961 . S
C574 H588 0.961 . S
C575 C572 1.539 . S
C575 H589 0.958 . S
C575 H590 0.961 . S
C575 H591 0.960 . S
H576 C560 0.931 . S
H577 C565 0.929 . S
H578 C566 0.960 . S
H579 C566 0.962 . S
H580 C566 0.960 . S
H581 C567 0.961 . S
H582 C567 0.961 . S
H583 C567 0.961 . S
H584 C568 0.931 . S
H585 C573 0.930 . S
H586 C574 0.956 . S
H587 C574 0.961 . S
H588 C574 0.961 . S
H589 C575 0.958 . S
H590 C575 0.961 . S
H591 C575 0.960 . S
C592 C593 1.391 . S
C592 C594 1.394 . S
C592 H608 0.931 . S
C593 C592 1.391 . S
C593 C597 1.376 1_565 S
C594 C592 1.394 . S
C594 C595 1.369 . S
C594 C598 1.531 . S
C595 C594 1.369 . S
C595 C596 1.410 1_565 S
C595 C603 1.503 . S
C596 C595 1.410 1_545 S
C596 C597 1.392 . S
C596 C599 1.511 . S
C597 C593 1.376 1_545 S
C597 C596 1.392 . S
C597 H609 0.929 . S
C598 C594 1.531 . S
C598 H610 0.960 . S
C598 H611 0.962 . S
C598 H612 0.960 . S
C599 C596 1.511 . S
C599 H613 0.961 . S
C599 H614 0.961 . S
C599 H615 0.961 . S
C600 C601 1.370 1_545 S
C600 C602 1.363 . S
C600 H616 0.931 . S
C601 C600 1.370 1_565 S
C601 C605 1.408 . S
C602 C600 1.363 . S
C602 C603 1.370 1_545 S
C602 C606 1.524 . S
C603 C595 1.503 . S
C603 C602 1.370 1_565 S
C603 C604 1.403 . S
C604 C603 1.403 . S
C604 C605 1.404 . S
C604 C607 1.539 . S
C605 C601 1.408 . S
C605 C604 1.404 . S
C605 H617 0.930 . S
C606 C602 1.524 . S
C606 H618 0.956 . S
C606 H619 0.961 . S
C606 H620 0.961 . S
C607 C604 1.539 . S
C607 H621 0.958 . S
C607 H622 0.961 . S
C607 H623 0.960 . S
H608 C592 0.931 . S
H609 C597 0.929 . S
H610 C598 0.960 . S
H611 C598 0.962 . S
H612 C598 0.960 . S
H613 C599 0.961 . S
H614 C599 0.961 . S
H615 C599 0.961 . S
H616 C600 0.931 . S
H617 C605 0.930 . S
H618 C606 0.956 . S
H619 C606 0.961 . S
H620 C606 0.961 . S
H621 C607 0.958 . S
H622 C607 0.961 . S
H623 C607 0.960 . S
C624 C625 1.391 . S
C624 C626 1.394 . S
C624 H640 0.931 . S
C625 C624 1.391 . S
C625 C629 1.376 . S
C626 C624 1.394 . S
C626 C627 1.369 . S
C626 C630 1.531 . S
C627 C626 1.369 . S
C627 C628 1.410 . S
C627 C635 1.503 . S
C628 C627 1.410 . S
C628 C629 1.392 . S
C628 C631 1.511 . S
C629 C625 1.376 . S
C629 C628 1.392 . S
C629 H641 0.929 . S
C630 C626 1.531 . S
C630 H642 0.960 . S
C630 H643 0.962 . S
C630 H644 0.960 . S
C631 C628 1.511 . S
C631 H645 0.961 . S
C631 H646 0.961 . S
C631 H647 0.961 . S
C632 C633 1.370 . S
C632 C634 1.363 . S
C632 H648 0.931 . S
C633 C632 1.370 . S
C633 C637 1.408 . S
C634 C632 1.363 . S
C634 C635 1.370 . S
C634 C638 1.524 . S
C635 C627 1.503 . S
C635 C634 1.370 . S
C635 C636 1.403 . S
C636 C635 1.403 . S
C636 C637 1.404 . S
C636 C639 1.539 1_545 S
C637 C633 1.408 . S
C637 C636 1.404 . S
C637 H649 0.930 1_545 S
C638 C634 1.524 . S
C638 H650 0.956 . S
C638 H651 0.961 . S
C638 H652 0.961 . S
C639 C636 1.539 1_565 S
C639 H653 0.958 . S
C639 H654 0.961 . S
C639 H655 0.960 . S
H640 C624 0.931 . S
H641 C629 0.929 . S
H642 C630 0.960 . S
H643 C630 0.962 . S
H644 C630 0.960 . S
H645 C631 0.961 . S
H646 C631 0.961 . S
H647 C631 0.961 . S
H648 C632 0.931 . S
H649 C637 0.930 1_565 S
H650 C638 0.956 . S
H651 C638 0.961 . S
H652 C638 0.961 . S
H653 C639 0.958 . S
H654 C639 0.961 . S
H655 C639 0.960 . S
C656 C657 1.391 . S
C656 C658 1.394 . S
C656 H672 0.931 . S
C657 C656 1.391 . S
C657 C661 1.376 . S
C658 C656 1.394 . S
C658 C659 1.369 . S
C658 C662 1.531 . S
C659 C658 1.369 . S
C659 C660 1.410 . S
C659 C667 1.503 . S
C660 C659 1.410 . S
C660 C661 1.392 . S
C660 C663 1.511 . S
C661 C657 1.376 . S
C661 C660 1.392 . S
C661 H673 0.929 . S
C662 C658 1.531 . S
C662 H674 0.960 . S
C662 H675 0.962 . S
C662 H676 0.960 . S
C663 C660 1.511 . S
C663 H677 0.961 . S
C663 H678 0.961 . S
C663 H679 0.961 . S
C664 C665 1.370 . S
C664 C666 1.363 . S
C664 H680 0.931 . S
C665 C664 1.370 . S
C665 C669 1.408 . S
C666 C664 1.363 . S
C666 C667 1.370 . S
C666 C670 1.524 . S
C667 C659 1.503 . S
C667 C666 1.370 . S
C667 C668 1.403 . S
C668 C667 1.403 . S
C668 C669 1.404 . S
C668 C671 1.539 . S
C669 C665 1.408 . S
C669 C668 1.404 . S
C669 H681 0.930 . S
C670 C666 1.524 . S
C670 H682 0.956 . S
C670 H683 0.961 . S
C670 H684 0.961 . S
C671 C668 1.539 . S
C671 H685 0.958 . S
C671 H686 0.961 . S
C671 H687 0.960 . S
H672 C656 0.931 . S
H673 C661 0.929 . S
H674 C662 0.960 . S
H675 C662 0.962 . S
H676 C662 0.960 . S
H677 C663 0.961 . S
H678 C663 0.961 . S
H679 C663 0.961 . S
H680 C664 0.931 . S
H681 C669 0.930 . S
H682 C670 0.956 . S
H683 C670 0.961 . S
H684 C670 0.961 . S
H685 C671 0.958 . S
H686 C671 0.961 . S
H687 C671 0.960 . S
C688 C689 1.391 . S
C688 C690 1.394 . S
C688 H704 0.931 . S
C689 C688 1.391 . S
C689 C693 1.376 . S
C690 C688 1.394 . S
C690 C691 1.369 . S
C690 C694 1.531 . S
C691 C690 1.369 . S
C691 C692 1.410 . S
C691 C699 1.503 . S
C692 C691 1.410 . S
C692 C693 1.392 . S
C692 C695 1.511 . S
C693 C689 1.376 . S
C693 C692 1.392 . S
C693 H705 0.929 . S
C694 C690 1.531 . S
C694 H706 0.960 . S
C694 H707 0.962 . S
C694 H708 0.960 . S
C695 C692 1.511 . S
C695 H709 0.961 . S
C695 H710 0.961 . S
C695 H711 0.961 . S
C696 C697 1.370 . S
C696 C698 1.363 . S
C696 H712 0.931 . S
C697 C696 1.370 . S
C697 C701 1.408 . S
C698 C696 1.363 . S
C698 C699 1.370 . S
C698 C702 1.524 . S
C699 C691 1.503 . S
C699 C698 1.370 . S
C699 C700 1.403 . S
C700 C699 1.403 . S
C700 C701 1.404 . S
C700 C703 1.539 . S
C701 C697 1.408 . S
C701 C700 1.404 . S
C701 H713 0.930 . S
C702 C698 1.524 . S
C702 H714 0.956 . S
C702 H715 0.961 . S
C702 H716 0.961 . S
C703 C700 1.539 . S
C703 H717 0.958 . S
C703 H718 0.961 . S
C703 H719 0.960 . S
H704 C688 0.931 . S
H705 C693 0.929 . S
H706 C694 0.960 . S
H707 C694 0.962 . S
H708 C694 0.960 . S
H709 C695 0.961 . S
H710 C695 0.961 . S
H711 C695 0.961 . S
H712 C696 0.931 . S
H713 C701 0.930 . S
H714 C702 0.956 . S
H715 C702 0.961 . S
H716 C702 0.961 . S
H717 C703 0.958 . S
H718 C703 0.961 . S
H719 C703 0.960 . S
C720 C721 1.391 . S
C720 C722 1.394 . S
C720 H736 0.931 . S
C721 C720 1.391 . S
C721 C725 1.376 . S
C722 C720 1.394 . S
C722 C723 1.369 . S
C722 C726 1.531 . S
C723 C722 1.369 . S
C723 C724 1.410 . S
C723 C731 1.503 . S
C724 C723 1.410 . S
C724 C725 1.392 . S
C724 C727 1.511 . S
C725 C721 1.376 . S
C725 C724 1.392 . S
C725 H737 0.929 . S
C726 C722 1.531 . S
C726 H738 0.960 . S
C726 H739 0.962 . S
C726 H740 0.960 . S
C727 C724 1.511 . S
C727 H741 0.961 . S
C727 H742 0.961 . S
C727 H743 0.961 . S
C728 C729 1.370 . S
C728 C730 1.363 . S
C728 H744 0.931 . S
C729 C728 1.370 . S
C729 C733 1.408 . S
C730 C728 1.363 . S
C730 C731 1.370 . S
C730 C734 1.524 . S
C731 C723 1.503 . S
C731 C730 1.370 . S
C731 C732 1.403 . S
C732 C731 1.403 . S
C732 C733 1.404 . S
C732 C735 1.539 . S
C733 C729 1.408 . S
C733 C732 1.404 . S
C733 H745 0.930 . S
C734 C730 1.524 . S
C734 H746 0.956 . S
C734 H747 0.961 . S
C734 H748 0.961 . S
C735 C732 1.539 . S
C735 H749 0.958 . S
C735 H750 0.961 . S
C735 H751 0.960 . S
H736 C720 0.931 . S
H737 C725 0.929 . S
H738 C726 0.960 . S
H739 C726 0.962 . S
H740 C726 0.960 . S
H741 C727 0.961 . S
H742 C727 0.961 . S
H743 C727 0.961 . S
H744 C728 0.931 . S
H745 C733 0.930 . S
H746 C734 0.956 . S
H747 C734 0.961 . S
H748 C734 0.961 . S
H749 C735 0.958 . S
H750 C735 0.961 . S
H751 C735 0.960 . S
C752 C753 1.391 . S
C752 C754 1.394 . S
C752 H768 0.931 . S
C753 C752 1.391 . S
C753 C757 1.376 . S
C754 C752 1.394 . S
C754 C755 1.369 . S
C754 C758 1.531 . S
C755 C754 1.369 . S
C755 C756 1.410 . S
C755 C763 1.503 . S
C756 C755 1.410 . S
C756 C757 1.392 . S
C756 C759 1.511 . S
C757 C753 1.376 . S
C757 C756 1.392 . S
C757 H769 0.929 . S
C758 C754 1.531 . S
C758 H770 0.960 . S
C758 H771 0.962 . S
C758 H772 0.960 . S
C759 C756 1.511 . S
C759 H773 0.961 . S
C759 H774 0.961 . S
C759 H775 0.961 . S
C760 C761 1.370 . S
C760 C762 1.363 . S
C760 H776 0.931 . S
C761 C760 1.370 . S
C761 C765 1.408 . S
C762 C760 1.363 . S
C762 C763 1.370 . S
C762 C766 1.524 . S
C763 C755 1.503 . S
C763 C762 1.370 . S
C763 C764 1.403 . S
C764 C763 1.403 . S
C764 C765 1.404 . S
C764 C767 1.539 . S
C765 C761 1.408 . S
C765 C764 1.404 . S
C765 H777 0.930 . S
C766 C762 1.524 . S
C766 H778 0.956 . S
C766 H779 0.961 . S
C766 H780 0.961 . S
C767 C764 1.539 . S
C767 H781 0.958 . S
C767 H782 0.961 . S
C767 H783 0.960 . S
H768 C752 0.931 . S
H769 C757 0.929 . S
H770 C758 0.960 . S
H771 C758 0.962 . S
H772 C758 0.960 . S
H773 C759 0.961 . S
H774 C759 0.961 . S
H775 C759 0.961 . S
H776 C760 0.931 . S
H777 C765 0.930 . S
H778 C766 0.956 . S
H779 C766 0.961 . S
H780 C766 0.961 . S
H781 C767 0.958 . S
H782 C767 0.961 . S
H783 C767 0.960 . S
C784 C785 1.391 . S
C784 C786 1.394 . S
C784 H800 0.931 . S
C785 C784 1.391 . S
C785 C789 1.376 . S
C786 C784 1.394 . S
C786 C787 1.369 . S
C786 C790 1.531 . S
C787 C786 1.369 . S
C787 C788 1.410 . S
C787 C795 1.503 . S
C788 C787 1.410 . S
C788 C789 1.392 . S
C788 C791 1.511 . S
C789 C785 1.376 . S
C789 C788 1.392 . S
C789 H801 0.929 . S
C790 C786 1.531 . S
C790 H802 0.960 . S
C790 H803 0.962 . S
C790 H804 0.960 . S
C791 C788 1.511 . S
C791 H805 0.961 . S
C791 H806 0.961 . S
C791 H807 0.961 . S
C792 C793 1.370 . S
C792 C794 1.363 . S
C792 H808 0.931 . S
C793 C792 1.370 . S
C793 C797 1.408 . S
C794 C792 1.363 . S
C794 C795 1.370 . S
C794 C798 1.524 . S
C795 C787 1.503 . S
C795 C794 1.370 . S
C795 C796 1.403 . S
C796 C795 1.403 . S
C796 C797 1.404 . S
C796 C799 1.539 . S
C797 C793 1.408 . S
C797 C796 1.404 . S
C797 H809 0.930 . S
C798 C794 1.524 . S
C798 H810 0.956 . S
C798 H811 0.961 . S
C798 H812 0.961 . S
C799 C796 1.539 . S
C799 H813 0.958 . S
C799 H814 0.961 . S
C799 H815 0.960 . S
H800 C784 0.931 . S
H801 C789 0.929 . S
H802 C790 0.960 . S
H803 C790 0.962 . S
H804 C790 0.960 . S
H805 C791 0.961 . S
H806 C791 0.961 . S
H807 C791 0.961 . S
H808 C792 0.931 . S
H809 C797 0.930 . S
H810 C798 0.956 . S
H811 C798 0.961 . S
H812 C798 0.961 . S
H813 C799 0.958 . S
H814 C799 0.961 . S
H815 C799 0.960 . S
C816 C817 1.391 . S
C816 C818 1.394 . S
C816 H832 0.931 . S
C817 C816 1.391 . S
C817 C821 1.376 . S
C818 C816 1.394 . S
C818 C819 1.369 . S
C818 C822 1.531 . S
C819 C818 1.369 . S
C819 C820 1.410 . S
C819 C827 1.503 . S
C820 C819 1.410 . S
C820 C821 1.392 . S
C820 C823 1.511 . S
C821 C817 1.376 . S
C821 C820 1.392 . S
C821 H833 0.929 . S
C822 C818 1.531 . S
C822 H834 0.960 . S
C822 H835 0.962 . S
C822 H836 0.960 . S
C823 C820 1.511 . S
C823 H837 0.961 . S
C823 H838 0.961 . S
C823 H839 0.961 . S
C824 C825 1.370 . S
C824 C826 1.363 . S
C824 H840 0.931 . S
C825 C824 1.370 . S
C825 C829 1.408 . S
C826 C824 1.363 . S
C826 C827 1.370 . S
C826 C830 1.524 . S
C827 C819 1.503 . S
C827 C826 1.370 . S
C827 C828 1.403 . S
C828 C827 1.403 . S
C828 C829 1.404 . S
C828 C831 1.539 . S
C829 C825 1.408 . S
C829 C828 1.404 . S
C829 H841 0.930 . S
C830 C826 1.524 . S
C830 H842 0.956 . S
C830 H843 0.961 . S
C830 H844 0.961 . S
C831 C828 1.539 . S
C831 H845 0.958 . S
C831 H846 0.961 . S
C831 H847 0.960 . S
H832 C816 0.931 . S
H833 C821 0.929 . S
H834 C822 0.960 . S
H835 C822 0.962 . S
H836 C822 0.960 . S
H837 C823 0.961 . S
H838 C823 0.961 . S
H839 C823 0.961 . S
H840 C824 0.931 . S
H841 C829 0.930 . S
H842 C830 0.956 . S
H843 C830 0.961 . S
H844 C830 0.961 . S
H845 C831 0.958 . S
H846 C831 0.961 . S
H847 C831 0.960 . S
C848 C849 1.391 . S
C848 C850 1.394 . S
C848 H864 0.931 . S
C849 C848 1.391 . S
C849 C853 1.376 . S
C850 C848 1.394 . S
C850 C851 1.369 . S
C850 C854 1.531 . S
C851 C850 1.369 . S
C851 C852 1.410 . S
C851 C859 1.503 . S
C852 C851 1.410 . S
C852 C853 1.392 . S
C852 C855 1.511 . S
C853 C849 1.376 . S
C853 C852 1.392 . S
C853 H865 0.929 . S
C854 C850 1.531 . S
C854 H866 0.960 . S
C854 H867 0.962 . S
C854 H868 0.960 . S
C855 C852 1.511 . S
C855 H869 0.961 . S
C855 H870 0.961 . S
C855 H871 0.961 . S
C856 C857 1.370 . S
C856 C858 1.363 . S
C856 H872 0.931 . S
C857 C856 1.370 . S
C857 C861 1.408 . S
C858 C856 1.363 . S
C858 C859 1.370 . S
C858 C862 1.524 . S
C859 C851 1.503 . S
C859 C858 1.370 . S
C859 C860 1.403 . S
C860 C859 1.403 . S
C860 C861 1.404 . S
C860 C863 1.539 . S
C861 C857 1.408 . S
C861 C860 1.404 . S
C861 H873 0.930 . S
C862 C858 1.524 . S
C862 H874 0.956 . S
C862 H875 0.961 . S
C862 H876 0.961 . S
C863 C860 1.539 . S
C863 H877 0.958 . S
C863 H878 0.961 . S
C863 H879 0.960 . S
H864 C848 0.931 . S
H865 C853 0.929 . S
H866 C854 0.960 . S
H867 C854 0.962 . S
H868 C854 0.960 . S
H869 C855 0.961 . S
H870 C855 0.961 . S
H871 C855 0.961 . S
H872 C856 0.931 . S
H873 C861 0.930 . S
H874 C862 0.956 . S
H875 C862 0.961 . S
H876 C862 0.961 . S
H877 C863 0.958 . S
H878 C863 0.961 . S
H879 C863 0.960 . S
C880 C881 1.391 . S
C880 C882 1.394 . S
C880 H896 0.931 . S
C881 C880 1.391 . S
C881 C885 1.376 . S
C882 C880 1.394 . S
C882 C883 1.369 . S
C882 C886 1.531 . S
C883 C882 1.369 . S
C883 C884 1.410 . S
C883 C891 1.503 . S
C884 C883 1.410 . S
C884 C885 1.392 . S
C884 C887 1.511 . S
C885 C881 1.376 . S
C885 C884 1.392 . S
C885 H897 0.929 . S
C886 C882 1.531 . S
C886 H898 0.960 . S
C886 H899 0.962 . S
C886 H900 0.960 . S
C887 C884 1.511 . S
C887 H901 0.961 . S
C887 H902 0.961 . S
C887 H903 0.961 . S
C888 C889 1.370 . S
C888 C890 1.363 . S
C888 H904 0.931 . S
C889 C888 1.370 . S
C889 C893 1.408 . S
C890 C888 1.363 . S
C890 C891 1.370 . S
C890 C894 1.524 . S
C891 C883 1.503 . S
C891 C890 1.370 . S
C891 C892 1.403 . S
C892 C891 1.403 . S
C892 C893 1.404 . S
C892 C895 1.539 . S
C893 C889 1.408 . S
C893 C892 1.404 . S
C893 H905 0.930 . S
C894 C890 1.524 . S
C894 H906 0.956 . S
C894 H907 0.961 . S
C894 H908 0.961 . S
C895 C892 1.539 . S
C895 H909 0.958 . S
C895 H910 0.961 . S
C895 H911 0.960 . S
H896 C880 0.931 . S
H897 C885 0.929 . S
H898 C886 0.960 . S
H899 C886 0.962 . S
H900 C886 0.960 . S
H901 C887 0.961 . S
H902 C887 0.961 . S
H903 C887 0.961 . S
H904 C888 0.931 . S
H905 C893 0.930 . S
H906 C894 0.956 . S
H907 C894 0.961 . S
H908 C894 0.961 . S
H909 C895 0.958 . S
H910 C895 0.961 . S
H911 C895 0.960 . S
C912 C913 1.391 . S
C912 C914 1.394 . S
C912 H928 0.931 . S
C913 C912 1.391 . S
C913 C917 1.376 . S
C914 C912 1.394 . S
C914 C915 1.369 . S
C914 C918 1.531 . S
C915 C914 1.369 . S
C915 C916 1.410 . S
C915 C923 1.503 . S
C916 C915 1.410 . S
C916 C917 1.392 . S
C916 C919 1.511 . S
C917 C913 1.376 . S
C917 C916 1.392 . S
C917 H929 0.929 . S
C918 C914 1.531 . S
C918 H930 0.960 . S
C918 H931 0.962 . S
C918 H932 0.960 . S
C919 C916 1.511 . S
C919 H933 0.961 . S
C919 H934 0.961 . S
C919 H935 0.961 . S
C920 C921 1.370 . S
C920 C922 1.363 . S
C920 H936 0.931 . S
C921 C920 1.370 . S
C921 C925 1.408 . S
C922 C920 1.363 . S
C922 C923 1.370 . S
C922 C926 1.524 . S
C923 C915 1.503 . S
C923 C922 1.370 . S
C923 C924 1.403 . S
C924 C923 1.403 . S
C924 C925 1.404 . S
C924 C927 1.539 . S
C925 C921 1.408 . S
C925 C924 1.404 . S
C925 H937 0.930 . S
C926 C922 1.524 . S
C926 H938 0.956 . S
C926 H939 0.961 . S
C926 H940 0.961 . S
C927 C924 1.539 . S
C927 H941 0.958 . S
C927 H942 0.961 . S
C927 H943 0.960 . S
H928 C912 0.931 . S
H929 C917 0.929 . S
H930 C918 0.960 . S
H931 C918 0.962 . S
H932 C918 0.960 . S
H933 C919 0.961 . S
H934 C919 0.961 . S
H935 C919 0.961 . S
H936 C920 0.931 . S
H937 C925 0.930 . S
H938 C926 0.956 . S
H939 C926 0.961 . S
H940 C926 0.961 . S
H941 C927 0.958 . S
H942 C927 0.961 . S
H943 C927 0.960 . S
C944 C945 1.391 . S
C944 C946 1.394 . S
C944 H960 0.931 . S
C945 C944 1.391 . S
C945 C949 1.376 . S
C946 C944 1.394 . S
C946 C947 1.369 . S
C946 C950 1.531 . S
C947 C946 1.369 . S
C947 C948 1.410 . S
C947 C955 1.503 . S
C948 C947 1.410 . S
C948 C949 1.392 . S
C948 C951 1.511 . S
C949 C945 1.376 . S
C949 C948 1.392 . S
C949 H961 0.929 . S
C950 C946 1.531 . S
C950 H962 0.960 . S
C950 H963 0.962 . S
C950 H964 0.960 . S
C951 C948 1.511 . S
C951 H965 0.961 . S
C951 H966 0.961 . S
C951 H967 0.961 . S
C952 C953 1.370 . S
C952 C954 1.363 . S
C952 H968 0.931 . S
C953 C952 1.370 . S
C953 C957 1.408 . S
C954 C952 1.363 . S
C954 C955 1.370 . S
C954 C958 1.524 . S
C955 C947 1.503 . S
C955 C954 1.370 . S
C955 C956 1.403 . S
C956 C955 1.403 . S
C956 C957 1.404 . S
C956 C959 1.539 . S
C957 C953 1.408 . S
C957 C956 1.404 . S
C957 H969 0.930 . S
C958 C954 1.524 . S
C958 H970 0.956 . S
C958 H971 0.961 . S
C958 H972 0.961 . S
C959 C956 1.539 . S
C959 H973 0.958 . S
C959 H974 0.961 . S
C959 H975 0.960 . S
H960 C944 0.931 . S
H961 C949 0.929 . S
H962 C950 0.960 . S
H963 C950 0.962 . S
H964 C950 0.960 . S
H965 C951 0.961 . S
H966 C951 0.961 . S
H967 C951 0.961 . S
H968 C952 0.931 . S
H969 C957 0.930 . S
H970 C958 0.956 . S
H971 C958 0.961 . S
H972 C958 0.961 . S
H973 C959 0.958 . S
H974 C959 0.961 . S
H975 C959 0.960 . S
C976 C977 1.391 . S
C976 C978 1.394 . S
C976 H992 0.931 . S
C977 C976 1.391 . S
C977 C981 1.376 . S
C978 C976 1.394 . S
C978 C979 1.369 . S
C978 C982 1.531 . S
C979 C978 1.369 . S
C979 C980 1.410 . S
C979 C987 1.503 . S
C980 C979 1.410 . S
C980 C981 1.392 . S
C980 C983 1.511 . S
C981 C977 1.376 . S
C981 C980 1.392 . S
C981 H993 0.929 . S
C982 C978 1.531 . S
C982 H994 0.960 . S
C982 H995 0.962 . S
C982 H996 0.960 . S
C983 C980 1.511 . S
C983 H997 0.961 . S
C983 H998 0.961 . S
C983 H999 0.961 . S
C984 C985 1.370 . S
C984 C986 1.363 . S
C984 H1000 0.931 . S
C985 C984 1.370 . S
C985 C989 1.408 . S
C986 C984 1.363 . S
C986 C987 1.370 . S
C986 C990 1.524 . S
C987 C979 1.503 . S
C987 C986 1.370 . S
C987 C988 1.403 . S
C988 C987 1.403 . S
C988 C989 1.404 . S
C988 C991 1.539 . S
C989 C985 1.408 . S
C989 C988 1.404 . S
C989 H1001 0.930 . S
C990 C986 1.524 . S
C990 H1002 0.956 . S
C990 H1003 0.961 . S
C990 H1004 0.961 . S
C991 C988 1.539 . S
C991 H1005 0.958 . S
C991 H1006 0.961 . S
C991 H1007 0.960 . S
H992 C976 0.931 . S
H993 C981 0.929 . S
H994 C982 0.960 . S
H995 C982 0.962 . S
H996 C982 0.960 . S
H997 C983 0.961 . S
H998 C983 0.961 . S
H999 C983 0.961 . S
H1000 C984 0.931 . S
H1001 C989 0.930 . S
H1002 C990 0.956 . S
H1003 C990 0.961 . S
H1004 C990 0.961 . S
H1005 C991 0.958 . S
H1006 C991 0.961 . S
H1007 C991 0.960 . S
C1008 C1009 1.391 . S
C1008 C1010 1.394 . S
C1008 H1024 0.931 . S
C1009 C1008 1.391 . S
C1009 C1013 1.376 . S
C1010 C1008 1.394 . S
C1010 C1011 1.369 . S
C1010 C1014 1.531 . S
C1011 C1010 1.369 . S
C1011 C1012 1.410 . S
C1011 C1019 1.503 . S
C1012 C1011 1.410 . S
C1012 C1013 1.392 . S
C1012 C1015 1.511 . S
C1013 C1009 1.376 . S
C1013 C1012 1.392 . S
C1013 H1025 0.929 . S
C1014 C1010 1.531 . S
C1014 H1026 0.960 . S
C1014 H1027 0.962 . S
C1014 H1028 0.960 . S
C1015 C1012 1.511 . S
C1015 H1029 0.961 . S
C1015 H1030 0.961 . S
C1015 H1031 0.961 . S
C1016 C1017 1.370 . S
C1016 C1018 1.363 . S
C1016 H1032 0.931 . S
C1017 C1016 1.370 . S
C1017 C1021 1.408 . S
C1018 C1016 1.363 . S
C1018 C1019 1.370 . S
C1018 C1022 1.524 . S
C1019 C1011 1.503 . S
C1019 C1018 1.370 . S
C1019 C1020 1.403 . S
C1020 C1019 1.403 . S
C1020 C1021 1.404 . S
C1020 C1023 1.539 . S
C1021 C1017 1.408 . S
C1021 C1020 1.404 . S
C1021 H1033 0.930 . S
C1022 C1018 1.524 . S
C1022 H1034 0.956 . S
C1022 H1035 0.961 . S
C1022 H1036 0.961 . S
C1023 C1020 1.539 . S
C1023 H1037 0.958 . S
C1023 H1038 0.961 . S
C1023 H1039 0.960 . S
H1024 C1008 0.931 . S
H1025 C1013 0.929 . S
H1026 C1014 0.960 . S
H1027 C1014 0.962 . S
H1028 C1014 0.960 . S
H1029 C1015 0.961 . S
H1030 C1015 0.961 . S
H1031 C1015 0.961 . S
H1032 C1016 0.931 . S
H1033 C1021 0.930 . S
H1034 C1022 0.956 . S
H1035 C1022 0.961 . S
H1036 C1022 0.961 . S
H1037 C1023 0.958 . S
H1038 C1023 0.961 . S
H1039 C1023 0.960 . S
C1040 C1041 1.391 . S
C1040 C1042 1.394 . S
C1040 H1056 0.931 . S
C1041 C1040 1.391 . S
C1041 C1045 1.376 . S
C1042 C1040 1.394 . S
C1042 C1043 1.369 . S
C1042 C1046 1.531 . S
C1043 C1042 1.369 . S
C1043 C1044 1.410 . S
C1043 C1051 1.503 . S
C1044 C1043 1.410 . S
C1044 C1045 1.392 . S
C1044 C1047 1.511 . S
C1045 C1041 1.376 . S
C1045 C1044 1.392 . S
C1045 H1057 0.929 . S
C1046 C1042 1.531 . S
C1046 H1058 0.960 . S
C1046 H1059 0.962 . S
C1046 H1060 0.960 . S
C1047 C1044 1.511 . S
C1047 H1061 0.961 . S
C1047 H1062 0.961 . S
C1047 H1063 0.961 . S
C1048 C1049 1.370 . S
C1048 C1050 1.363 . S
C1048 H1064 0.931 . S
C1049 C1048 1.370 . S
C1049 C1053 1.408 . S
C1050 C1048 1.363 . S
C1050 C1051 1.370 . S
C1050 C1054 1.524 . S
C1051 C1043 1.503 . S
C1051 C1050 1.370 . S
C1051 C1052 1.403 . S
C1052 C1051 1.403 . S
C1052 C1053 1.404 . S
C1052 C1055 1.539 . S
C1053 C1049 1.408 . S
C1053 C1052 1.404 . S
C1053 H1065 0.930 . S
C1054 C1050 1.524 . S
C1054 H1066 0.956 . S
C1054 H1067 0.961 . S
C1054 H1068 0.961 . S
C1055 C1052 1.539 . S
C1055 H1069 0.958 . S
C1055 H1070 0.961 . S
C1055 H1071 0.960 . S
H1056 C1040 0.931 . S
H1057 C1045 0.929 . S
H1058 C1046 0.960 . S
H1059 C1046 0.962 . S
H1060 C1046 0.960 . S
H1061 C1047 0.961 . S
H1062 C1047 0.961 . S
H1063 C1047 0.961 . S
H1064 C1048 0.931 . S
H1065 C1053 0.930 . S
H1066 C1054 0.956 . S
H1067 C1054 0.961 . S
H1068 C1054 0.961 . S
H1069 C1055 0.958 . S
H1070 C1055 0.961 . S
H1071 C1055 0.960 . S
C1072 C1073 1.391 . S
C1072 C1074 1.394 . S
C1072 H1088 0.931 . S
C1073 C1072 1.391 . S
C1073 C1077 1.376 . S
C1074 C1072 1.394 . S
C1074 C1075 1.369 . S
C1074 C1078 1.531 . S
C1075 C1074 1.369 . S
C1075 C1076 1.410 . S
C1075 C1083 1.503 . S
C1076 C1075 1.410 . S
C1076 C1077 1.392 . S
C1076 C1079 1.511 . S
C1077 C1073 1.376 . S
C1077 C1076 1.392 . S
C1077 H1089 0.929 . S
C1078 C1074 1.531 . S
C1078 H1090 0.960 . S
C1078 H1091 0.962 . S
C1078 H1092 0.960 . S
C1079 C1076 1.511 . S
C1079 H1093 0.961 . S
C1079 H1094 0.961 . S
C1079 H1095 0.961 . S
C1080 C1081 1.370 . S
C1080 C1082 1.363 . S
C1080 H1096 0.931 . S
C1081 C1080 1.370 . S
C1081 C1085 1.408 . S
C1082 C1080 1.363 . S
C1082 C1083 1.370 . S
C1082 C1086 1.524 . S
C1083 C1075 1.503 . S
C1083 C1082 1.370 . S
C1083 C1084 1.403 . S
C1084 C1083 1.403 . S
C1084 C1085 1.404 . S
C1084 C1087 1.539 . S
C1085 C1081 1.408 . S
C1085 C1084 1.404 . S
C1085 H1097 0.930 . S
C1086 C1082 1.524 . S
C1086 H1098 0.956 . S
C1086 H1099 0.961 . S
C1086 H1100 0.961 . S
C1087 C1084 1.539 . S
C1087 H1101 0.958 . S
C1087 H1102 0.961 . S
C1087 H1103 0.960 . S
H1088 C1072 0.931 . S
H1089 C1077 0.929 . S
H1090 C1078 0.960 . S
H1091 C1078 0.962 . S
H1092 C1078 0.960 . S
H1093 C1079 0.961 . S
H1094 C1079 0.961 . S
H1095 C1079 0.961 . S
H1096 C1080 0.931 . S
H1097 C1085 0.930 . S
H1098 C1086 0.956 . S
H1099 C1086 0.961 . S
H1100 C1086 0.961 . S
H1101 C1087 0.958 . S
H1102 C1087 0.961 . S
H1103 C1087 0.960 . S
C1104 C1105 1.391 . S
C1104 C1106 1.394 . S
C1104 H1120 0.931 . S
C1105 C1104 1.391 . S
C1105 C1109 1.376 . S
C1106 C1104 1.394 . S
C1106 C1107 1.369 . S
C1106 C1110 1.531 . S
C1107 C1106 1.369 . S
C1107 C1108 1.410 . S
C1107 C1115 1.503 . S
C1108 C1107 1.410 . S
C1108 C1109 1.392 . S
C1108 C1111 1.511 . S
C1109 C1105 1.376 . S
C1109 C1108 1.392 . S
C1109 H1121 0.929 . S
C1110 C1106 1.531 . S
C1110 H1122 0.960 . S
C1110 H1123 0.962 . S
C1110 H1124 0.960 . S
C1111 C1108 1.511 . S
C1111 H1125 0.961 . S
C1111 H1126 0.961 . S
C1111 H1127 0.961 . S
C1112 C1113 1.370 . S
C1112 C1114 1.363 . S
C1112 H1128 0.931 . S
C1113 C1112 1.370 . S
C1113 C1117 1.408 . S
C1114 C1112 1.363 . S
C1114 C1115 1.370 . S
C1114 C1118 1.524 . S
C1115 C1107 1.503 . S
C1115 C1114 1.370 . S
C1115 C1116 1.403 . S
C1116 C1115 1.403 . S
C1116 C1117 1.404 . S
C1116 C1119 1.539 . S
C1117 C1113 1.408 . S
C1117 C1116 1.404 . S
C1117 H1129 0.930 . S
C1118 C1114 1.524 . S
C1118 H1130 0.956 . S
C1118 H1131 0.961 . S
C1118 H1132 0.961 . S
C1119 C1116 1.539 . S
C1119 H1133 0.958 . S
C1119 H1134 0.961 . S
C1119 H1135 0.960 . S
H1120 C1104 0.931 . S
H1121 C1109 0.929 . S
H1122 C1110 0.960 . S
H1123 C1110 0.962 . S
H1124 C1110 0.960 . S
H1125 C1111 0.961 . S
H1126 C1111 0.961 . S
H1127 C1111 0.961 . S
H1128 C1112 0.931 . S
H1129 C1117 0.930 . S
H1130 C1118 0.956 . S
H1131 C1118 0.961 . S
H1132 C1118 0.961 . S
H1133 C1119 0.958 . S
H1134 C1119 0.961 . S
H1135 C1119 0.960 . S
C1136 C1137 1.391 . S
C1136 C1138 1.394 . S
C1136 H1152 0.931 . S
C1137 C1136 1.391 . S
C1137 C1141 1.376 . S
C1138 C1136 1.394 . S
C1138 C1139 1.369 . S
C1138 C1142 1.531 . S
C1139 C1138 1.369 . S
C1139 C1140 1.410 . S
C1139 C1147 1.503 . S
C1140 C1139 1.410 . S
C1140 C1141 1.392 . S
C1140 C1143 1.511 . S
C1141 C1137 1.376 . S
C1141 C1140 1.392 . S
C1141 H1153 0.929 . S
C1142 C1138 1.531 . S
C1142 H1154 0.960 . S
C1142 H1155 0.962 . S
C1142 H1156 0.960 . S
C1143 C1140 1.511 . S
C1143 H1157 0.961 . S
C1143 H1158 0.961 . S
C1143 H1159 0.961 . S
C1144 C1145 1.370 . S
C1144 C1146 1.363 . S
C1144 H1160 0.931 . S
C1145 C1144 1.370 . S
C1145 C1149 1.408 . S
C1146 C1144 1.363 . S
C1146 C1147 1.370 . S
C1146 C1150 1.524 . S
C1147 C1139 1.503 . S
C1147 C1146 1.370 . S
C1147 C1148 1.403 . S
C1148 C1147 1.403 . S
C1148 C1149 1.404 . S
C1148 C1151 1.539 . S
C1149 C1145 1.408 . S
C1149 C1148 1.404 . S
C1149 H1161 0.930 . S
C1150 C1146 1.524 . S
C1150 H1162 0.956 . S
C1150 H1163 0.961 . S
C1150 H1164 0.961 . S
C1151 C1148 1.539 . S
C1151 H1165 0.958 . S
C1151 H1166 0.961 . S
C1151 H1167 0.960 . S
H1152 C1136 0.931 . S
H1153 C1141 0.929 . S
H1154 C1142 0.960 . S
H1155 C1142 0.962 . S
H1156 C1142 0.960 . S
H1157 C1143 0.961 . S
H1158 C1143 0.961 . S
H1159 C1143 0.961 . S
H1160 C1144 0.931 . S
H1161 C1149 0.930 . S
H1162 C1150 0.956 . S
H1163 C1150 0.961 . S
H1164 C1150 0.961 . S
H1165 C1151 0.958 . S
H1166 C1151 0.961 . S
H1167 C1151 0.960 . S
C1168 C1169 1.391 . S
C1168 C1170 1.394 . S
C1168 H1184 0.931 . S
C1169 C1168 1.391 . S
C1169 C1173 1.376 . S
C1170 C1168 1.394 . S
C1170 C1171 1.369 . S
C1170 C1174 1.531 . S
C1171 C1170 1.369 . S
C1171 C1172 1.410 . S
C1171 C1179 1.503 . S
C1172 C1171 1.410 . S
C1172 C1173 1.392 . S
C1172 C1175 1.511 . S
C1173 C1169 1.376 . S
C1173 C1172 1.392 . S
C1173 H1185 0.929 . S
C1174 C1170 1.531 . S
C1174 H1186 0.960 . S
C1174 H1187 0.962 . S
C1174 H1188 0.960 . S
C1175 C1172 1.511 . S
C1175 H1189 0.961 . S
C1175 H1190 0.961 . S
C1175 H1191 0.961 . S
C1176 C1177 1.370 . S
C1176 C1178 1.363 . S
C1176 H1192 0.931 . S
C1177 C1176 1.370 . S
C1177 C1181 1.408 . S
C1178 C1176 1.363 . S
C1178 C1179 1.370 . S
C1178 C1182 1.524 . S
C1179 C1171 1.503 . S
C1179 C1178 1.370 . S
C1179 C1180 1.403 . S
C1180 C1179 1.403 . S
C1180 C1181 1.404 . S
C1180 C1183 1.539 . S
C1181 C1177 1.408 . S
C1181 C1180 1.404 . S
C1181 H1193 0.930 . S
C1182 C1178 1.524 . S
C1182 H1194 0.956 . S
C1182 H1195 0.961 . S
C1182 H1196 0.961 . S
C1183 C1180 1.539 . S
C1183 H1197 0.958 . S
C1183 H1198 0.961 . S
C1183 H1199 0.960 . S
H1184 C1168 0.931 . S
H1185 C1173 0.929 . S
H1186 C1174 0.960 . S
H1187 C1174 0.962 . S
H1188 C1174 0.960 . S
H1189 C1175 0.961 . S
H1190 C1175 0.961 . S
H1191 C1175 0.961 . S
H1192 C1176 0.931 . S
H1193 C1181 0.930 . S
H1194 C1182 0.956 . S
H1195 C1182 0.961 . S
H1196 C1182 0.961 . S
H1197 C1183 0.958 . S
H1198 C1183 0.961 . S
H1199 C1183 0.960 . S
C1200 C1201 1.391 . S
C1200 C1202 1.394 . S
C1200 H1216 0.931 . S
C1201 C1200 1.391 . S
C1201 C1205 1.376 . S
C1202 C1200 1.394 . S
C1202 C1203 1.369 . S
C1202 C1206 1.531 . S
C1203 C1202 1.369 . S
C1203 C1204 1.410 . S
C1203 C1211 1.503 . S
C1204 C1203 1.410 . S
C1204 C1205 1.392 . S
C1204 C1207 1.511 . S
C1205 C1201 1.376 . S
C1205 C1204 1.392 . S
C1205 H1217 0.929 . S
C1206 C1202 1.531 . S
C1206 H1218 0.960 . S
C1206 H1219 0.962 . S
C1206 H1220 0.960 . S
C1207 C1204 1.511 . S
C1207 H1221 0.961 . S
C1207 H1222 0.961 . S
C1207 H1223 0.961 . S
C1208 C1209 1.370 . S
C1208 C1210 1.363 . S
C1208 H1224 0.931 . S
C1209 C1208 1.370 . S
C1209 C1213 1.408 . S
C1210 C1208 1.363 . S
C1210 C1211 1.370 . S
C1210 C1214 1.524 . S
C1211 C1203 1.503 . S
C1211 C1210 1.370 . S
C1211 C1212 1.403 . S
C1212 C1211 1.403 . S
C1212 C1213 1.404 . S
C1212 C1215 1.539 . S
C1213 C1209 1.408 . S
C1213 C1212 1.404 . S
C1213 H1225 0.930 . S
C1214 C1210 1.524 . S
C1214 H1226 0.956 . S
C1214 H1227 0.961 . S
C1214 H1228 0.961 . S
C1215 C1212 1.539 . S
C1215 H1229 0.958 . S
C1215 H1230 0.961 . S
C1215 H1231 0.960 . S
H1216 C1200 0.931 . S
H1217 C1205 0.929 . S
H1218 C1206 0.960 . S
H1219 C1206 0.962 . S
H1220 C1206 0.960 . S
H1221 C1207 0.961 . S
H1222 C1207 0.961 . S
H1223 C1207 0.961 . S
H1224 C1208 0.931 . S
H1225 C1213 0.930 . S
H1226 C1214 0.956 . S
H1227 C1214 0.961 . S
H1228 C1214 0.961 . S
H1229 C1215 0.958 . S
H1230 C1215 0.961 . S
H1231 C1215 0.960 . S
C1232 C1233 1.391 . S
C1232 C1234 1.394 . S
C1232 H1248 0.931 . S
C1233 C1232 1.391 . S
C1233 C1237 1.376 . S
C1234 C1232 1.394 . S
C1234 C1235 1.369 . S
C1234 C1238 1.531 . S
C1235 C1234 1.369 . S
C1235 C1236 1.410 . S
C1235 C1243 1.503 . S
C1236 C1235 1.410 . S
C1236 C1237 1.392 . S
C1236 C1239 1.511 . S
C1237 C1233 1.376 . S
C1237 C1236 1.392 . S
C1237 H1249 0.929 . S
C1238 C1234 1.531 . S
C1238 H1250 0.960 . S
C1238 H1251 0.962 . S
C1238 H1252 0.960 . S
C1239 C1236 1.511 . S
C1239 H1253 0.961 . S
C1239 H1254 0.961 . S
C1239 H1255 0.961 . S
C1240 C1241 1.370 . S
C1240 C1242 1.363 . S
C1240 H1256 0.931 . S
C1241 C1240 1.370 . S
C1241 C1245 1.408 . S
C1242 C1240 1.363 . S
C1242 C1243 1.370 . S
C1242 C1246 1.524 . S
C1243 C1235 1.503 . S
C1243 C1242 1.370 . S
C1243 C1244 1.403 . S
C1244 C1243 1.403 . S
C1244 C1245 1.404 . S
C1244 C1247 1.539 . S
C1245 C1241 1.408 . S
C1245 C1244 1.404 . S
C1245 H1257 0.930 . S
C1246 C1242 1.524 . S
C1246 H1258 0.956 . S
C1246 H1259 0.961 . S
C1246 H1260 0.961 . S
C1247 C1244 1.539 . S
C1247 H1261 0.958 . S
C1247 H1262 0.961 . S
C1247 H1263 0.960 . S
H1248 C1232 0.931 . S
H1249 C1237 0.929 . S
H1250 C1238 0.960 . S
H1251 C1238 0.962 . S
H1252 C1238 0.960 . S
H1253 C1239 0.961 . S
H1254 C1239 0.961 . S
H1255 C1239 0.961 . S
H1256 C1240 0.931 . S
H1257 C1245 0.930 . S
H1258 C1246 0.956 . S
H1259 C1246 0.961 . S
H1260 C1246 0.961 . S
H1261 C1247 0.958 . S
H1262 C1247 0.961 . S
H1263 C1247 0.960 . S
C1264 C1265 1.391 . S
C1264 C1266 1.394 . S
C1264 H1280 0.931 . S
C1265 C1264 1.391 . S
C1265 C1269 1.376 . S
C1266 C1264 1.394 . S
C1266 C1267 1.369 . S
C1266 C1270 1.531 . S
C1267 C1266 1.369 . S
C1267 C1268 1.410 . S
C1267 C1275 1.503 . S
C1268 C1267 1.410 . S
C1268 C1269 1.392 . S
C1268 C1271 1.511 . S
C1269 C1265 1.376 . S
C1269 C1268 1.392 . S
C1269 H1281 0.929 . S
C1270 C1266 1.531 . S
C1270 H1282 0.960 . S
C1270 H1283 0.962 . S
C1270 H1284 0.960 . S
C1271 C1268 1.511 . S
C1271 H1285 0.961 . S
C1271 H1286 0.961 . S
C1271 H1287 0.961 . S
C1272 C1273 1.370 . S
C1272 C1274 1.363 . S
C1272 H1288 0.931 . S
C1273 C1272 1.370 . S
C1273 C1277 1.408 . S
C1274 C1272 1.363 . S
C1274 C1275 1.370 . S
C1274 C1278 1.524 . S
C1275 C1267 1.503 . S
C1275 C1274 1.370 . S
C1275 C1276 1.403 . S
C1276 C1275 1.403 . S
C1276 C1277 1.404 . S
C1276 C1279 1.539 . S
C1277 C1273 1.408 . S
C1277 C1276 1.404 . S
C1277 H1289 0.930 . S
C1278 C1274 1.524 . S
C1278 H1290 0.956 . S
C1278 H1291 0.961 . S
C1278 H1292 0.961 . S
C1279 C1276 1.539 . S
C1279 H1293 0.958 . S
C1279 H1294 0.961 . S
C1279 H1295 0.960 . S
H1280 C1264 0.931 . S
H1281 C1269 0.929 . S
H1282 C1270 0.960 . S
H1283 C1270 0.962 . S
H1284 C1270 0.960 . S
H1285 C1271 0.961 . S
H1286 C1271 0.961 . S
H1287 C1271 0.961 . S
H1288 C1272 0.931 . S
H1289 C1277 0.930 . S
H1290 C1278 0.956 . S
H1291 C1278 0.961 . S
H1292 C1278 0.961 . S
H1293 C1279 0.958 . S
H1294 C1279 0.961 . S
H1295 C1279 0.960 . S
C1296 C1297 1.391 . S
C1296 C1298 1.394 . S
C1296 H1312 0.931 . S
C1297 C1296 1.391 . S
C1297 C1301 1.376 1_545 S
C1298 C1296 1.394 . S
C1298 C1299 1.369 . S
C1298 C1302 1.531 . S
C1299 C1298 1.369 . S
C1299 C1300 1.410 1_545 S
C1299 C1307 1.503 1_655 S
C1300 C1299 1.410 1_565 S
C1300 C1301 1.392 . S
C1300 C1303 1.511 . S
C1301 C1297 1.376 1_565 S
C1301 C1300 1.392 . S
C1301 H1313 0.929 . S
C1302 C1298 1.531 . S
C1302 H1314 0.960 . S
C1302 H1315 0.962 . S
C1302 H1316 0.960 . S
C1303 C1300 1.511 . S
C1303 H1317 0.961 . S
C1303 H1318 0.961 1_655 S
C1303 H1319 0.961 . S
C1304 C1305 1.370 . S
C1304 C1306 1.363 . S
C1304 H1320 0.931 . S
C1305 C1304 1.370 . S
C1305 C1309 1.408 . S
C1306 C1304 1.363 . S
C1306 C1307 1.370 . S
C1306 C1310 1.524 . S
C1307 C1299 1.503 1_455 S
C1307 C1306 1.370 . S
C1307 C1308 1.403 . S
C1308 C1307 1.403 . S
C1308 C1309 1.404 . S
C1308 C1311 1.539 . S
C1309 C1305 1.408 . S
C1309 C1308 1.404 . S
C1309 H1321 0.930 . S
C1310 C1306 1.524 . S
C1310 H1322 0.934 1_455 S
C1310 H1323 0.948 1_455 S
C1310 H1324 0.961 . S
C1311 C1308 1.539 . S
C1311 H1325 0.958 . S
C1311 H1326 0.961 . S
C1311 H1327 0.960 . S
H1312 C1296 0.931 . S
H1313 C1301 0.929 . S
H1314 C1302 0.960 . S
H1315 C1302 0.962 . S
H1316 C1302 0.960 . S
H1317 C1303 0.961 . S
H1318 C1303 0.961 1_455 S
H1319 C1303 0.961 . S
H1320 C1304 0.931 . S
H1321 C1309 0.930 . S
H1322 C1310 0.934 1_655 S
H1323 C1310 0.948 1_655 S
H1324 C1310 0.961 . S
H1325 C1311 0.958 . S
H1326 C1311 0.961 . S
H1327 C1311 0.960 . S
C1328 C1329 1.391 1_565 S
C1328 C1330 1.394 . S
C1328 H1344 0.931 . S
C1329 C1328 1.391 1_545 S
C1329 C1333 1.376 . S
C1330 C1328 1.394 . S
C1330 C1331 1.369 1_565 S
C1330 C1334 1.531 . S
C1331 C1330 1.369 1_545 S
C1331 C1332 1.410 . S
C1331 C1339 1.503 1_455 S
C1332 C1331 1.410 . S
C1332 C1333 1.392 . S
C1332 C1335 1.511 . S
C1333 C1329 1.376 . S
C1333 C1332 1.392 . S
C1333 H1345 0.929 . S
C1334 C1330 1.531 . S
C1334 H1346 0.960 1_455 S
C1334 H1347 0.962 . S
C1334 H1348 0.960 . S
C1335 C1332 1.511 . S
C1335 H1349 0.961 . S
C1335 H1350 0.961 . S
C1335 H1351 0.961 . S
C1336 C1337 1.370 . S
C1336 C1338 1.363 . S
C1336 H1352 0.931 . S
C1337 C1336 1.370 . S
C1337 C1341 1.408 . S
C1338 C1336 1.363 . S
C1338 C1339 1.370 . S
C1338 C1342 1.524 . S
C1339 C1331 1.503 1_655 S
C1339 C1338 1.370 . S
C1339 C1340 1.403 . S
C1340 C1339 1.403 . S
C1340 C1341 1.404 . S
C1340 C1343 1.539 . S
C1341 C1337 1.408 . S
C1341 C1340 1.404 . S
C1341 H1353 0.930 . S
C1342 C1338 1.524 . S
C1342 H1354 0.956 1_545 S
C1342 H1355 0.961 1_655 S
C1342 H1356 0.961 . S
C1343 C1340 1.539 . S
C1343 H1357 0.958 . S
C1343 H1358 0.961 . S
C1343 H1359 0.960 1_655 S
H1344 C1328 0.931 . S
H1345 C1333 0.929 . S
H1346 C1334 0.960 1_655 S
H1347 C1334 0.962 . S
H1348 C1334 0.960 . S
H1349 C1335 0.961 . S
H1350 C1335 0.961 . S
H1351 C1335 0.961 . S
H1352 C1336 0.931 . S
H1353 C1341 0.930 . S
H1354 C1342 0.956 1_565 S
H1355 C1342 0.961 1_455 S
H1356 C1342 0.961 . S
H1357 C1343 0.958 . S
H1358 C1343 0.961 . S
H1359 C1343 0.960 1_455 S
C1360 C1361 1.391 . S
C1360 C1362 1.394 . S
C1360 H1376 0.931 . S
C1361 C1360 1.391 . S
C1361 C1365 1.376 . S
C1362 C1360 1.394 . S
C1362 C1363 1.369 . S
C1362 C1366 1.531 . S
C1363 C1362 1.369 . S
C1363 C1364 1.410 . S
C1363 C1371 1.503 1_655 S
C1364 C1363 1.410 . S
C1364 C1365 1.392 . S
C1364 C1367 1.511 . S
C1365 C1361 1.376 . S
C1365 C1364 1.392 . S
C1365 H1377 0.929 . S
C1366 C1362 1.531 . S
C1366 H1378 0.960 1_655 S
C1366 H1379 0.962 . S
C1366 H1380 0.960 . S
C1367 C1364 1.511 . S
C1367 H1381 0.961 . S
C1367 H1382 0.968 . S
C1367 H1383 0.961 . S
C1368 C1369 1.370 . S
C1368 C1370 1.363 . S
C1368 H1384 0.931 . S
C1369 C1368 1.370 . S
C1369 C1373 1.408 . S
C1370 C1368 1.363 . S
C1370 C1371 1.370 . S
C1370 C1374 1.524 . S
C1371 C1363 1.503 1_455 S
C1371 C1370 1.370 . S
C1371 C1372 1.403 . S
C1372 C1371 1.403 . S
C1372 C1373 1.404 . S
C1372 C1375 1.539 . S
C1373 C1369 1.408 . S
C1373 C1372 1.404 . S
C1373 H1385 0.930 . S
C1374 C1370 1.524 . S
C1374 H1386 0.956 . S
C1374 H1387 0.985 . S
C1374 H1388 0.961 . S
C1375 C1372 1.539 . S
C1375 H1389 0.958 . S
C1375 H1390 0.961 . S
C1375 H1391 0.960 1_455 S
H1376 C1360 0.931 . S
H1377 C1365 0.929 . S
H1378 C1366 0.960 1_455 S
H1379 C1366 0.962 . S
H1380 C1366 0.960 . S
H1381 C1367 0.961 . S
H1382 C1367 0.968 . S
H1383 C1367 0.961 . S
H1384 C1368 0.931 . S
H1385 C1373 0.930 . S
H1386 C1374 0.956 . S
H1387 C1374 0.985 . S
H1388 C1374 0.961 . S
H1389 C1375 0.958 . S
H1390 C1375 0.961 . S
H1391 C1375 0.960 1_655 S
C1392 C1393 1.391 . S
C1392 C1394 1.394 . S
C1392 H1408 0.931 . S
C1393 C1392 1.391 . S
C1393 C1397 1.376 . S
C1394 C1392 1.394 . S
C1394 C1395 1.369 . S
C1394 C1398 1.531 . S
C1395 C1394 1.369 . S
C1395 C1396 1.410 . S
C1395 C1403 1.503 1_655 S
C1396 C1395 1.410 . S
C1396 C1397 1.392 . S
C1396 C1399 1.511 . S
C1397 C1393 1.376 . S
C1397 C1396 1.392 . S
C1397 H1409 0.929 . S
C1398 C1394 1.531 . S
C1398 H1410 0.953 1_655 S
C1398 H1411 0.962 . S
C1398 H1412 0.960 . S
C1399 C1396 1.511 . S
C1399 H1413 0.961 . S
C1399 H1414 0.961 1_655 S
C1399 H1415 0.961 . S
C1400 C1401 1.370 . S
C1400 C1402 1.363 . S
C1400 H1416 0.931 . S
C1401 C1400 1.370 . S
C1401 C1405 1.408 . S
C1402 C1400 1.363 . S
C1402 C1403 1.370 . S
C1402 C1406 1.524 . S
C1403 C1395 1.503 1_455 S
C1403 C1402 1.370 . S
C1403 C1404 1.403 . S
C1404 C1403 1.403 . S
C1404 C1405 1.404 . S
C1404 C1407 1.539 . S
C1405 C1401 1.408 . S
C1405 C1404 1.404 . S
C1405 H1417 0.930 . S
C1406 C1402 1.524 . S
C1406 H1418 0.956 . S
C1406 H1419 0.961 . S
C1406 H1420 0.961 . S
C1407 C1404 1.539 . S
C1407 H1421 0.958 . S
C1407 H1422 0.961 . S
C1407 H1423 0.960 1_455 S
H1408 C1392 0.931 . S
H1409 C1397 0.929 . S
H1410 C1398 0.953 1_455 S
H1411 C1398 0.962 . S
H1412 C1398 0.960 . S
H1413 C1399 0.961 . S
H1414 C1399 0.961 1_455 S
H1415 C1399 0.961 . S
H1416 C1400 0.931 . S
H1417 C1405 0.930 . S
H1418 C1406 0.956 . S
H1419 C1406 0.961 . S
H1420 C1406 0.961 . S
H1421 C1407 0.958 . S
H1422 C1407 0.961 . S
H1423 C1407 0.960 1_655 S
C1424 C1425 1.391 . S
C1424 C1426 1.394 . S
C1424 H1440 0.931 . S
C1425 C1424 1.391 . S
C1425 C1429 1.376 1_545 S
C1426 C1424 1.394 . S
C1426 C1427 1.369 . S
C1426 C1430 1.531 . S
C1427 C1426 1.369 . S
C1427 C1428 1.410 1_545 S
C1427 C1435 1.503 . S
C1428 C1427 1.410 1_565 S
C1428 C1429 1.392 . S
C1428 C1431 1.511 . S
C1429 C1425 1.376 1_565 S
C1429 C1428 1.392 . S
C1429 H1441 0.929 . S
C1430 C1426 1.531 . S
C1430 H1442 0.960 . S
C1430 H1443 0.962 . S
C1430 H1444 0.960 . S
C1431 C1428 1.511 . S
C1431 H1445 0.961 . S
C1431 H1446 0.961 . S
C1431 H1447 0.961 . S
C1432 C1433 1.370 . S
C1432 C1434 1.363 . S
C1432 H1448 0.931 . S
C1433 C1432 1.370 . S
C1433 C1437 1.408 . S
C1434 C1432 1.363 . S
C1434 C1435 1.370 . S
C1434 C1438 1.524 . S
C1435 C1427 1.503 . S
C1435 C1434 1.370 . S
C1435 C1436 1.403 . S
C1436 C1435 1.403 . S
C1436 C1437 1.404 . S
C1436 C1439 1.539 . S
C1437 C1433 1.408 . S
C1437 C1436 1.404 . S
C1437 H1449 0.930 . S
C1438 C1434 1.524 . S
C1438 H1450 0.956 . S
C1438 H1451 0.961 . S
C1438 H1452 0.961 . S
C1439 C1436 1.539 . S
C1439 H1453 0.958 . S
C1439 H1454 0.961 . S
C1439 H1455 0.960 . S
H1440 C1424 0.931 . S
H1441 C1429 0.929 . S
H1442 C1430 0.960 . S
H1443 C1430 0.962 . S
H1444 C1430 0.960 . S
H1445 C1431 0.961 . S
H1446 C1431 0.961 . S
H1447 C1431 0.961 . S
H1448 C1432 0.931 . S
H1449 C1437 0.930 . S
H1450 C1438 0.956 . S
H1451 C1438 0.961 . S
H1452 C1438 0.961 . S
H1453 C1439 0.958 . S
H1454 C1439 0.961 . S
H1455 C1439 0.960 . S
C1456 C1457 1.391 . S
C1456 C1458 1.394 . S
C1456 H1472 0.931 . S
C1457 C1456 1.391 . S
C1457 C1461 1.376 . S
C1458 C1456 1.394 . S
C1458 C1459 1.369 . S
C1458 C1462 1.531 . S
C1459 C1458 1.369 . S
C1459 C1460 1.410 . S
C1459 C1467 1.503 . S
C1460 C1459 1.410 . S
C1460 C1461 1.392 . S
C1460 C1463 1.511 1_545 S
C1461 C1457 1.376 . S
C1461 C1460 1.392 . S
C1461 H1473 0.929 . S
C1462 C1458 1.531 . S
C1462 H1474 0.960 . S
C1462 H1475 0.962 . S
C1462 H1476 0.960 . S
C1463 C1460 1.511 1_565 S
C1463 H1477 0.961 1_565 S
C1463 H1478 0.961 1_565 S
C1463 H1479 0.961 . S
C1464 C1465 1.370 . S
C1464 C1466 1.363 . S
C1464 H1480 0.931 . S
C1465 C1464 1.370 . S
C1465 C1469 1.408 1_545 S
C1466 C1464 1.363 . S
C1466 C1467 1.370 . S
C1466 C1470 1.524 . S
C1467 C1459 1.503 . S
C1467 C1466 1.370 . S
C1467 C1468 1.403 1_545 S
C1468 C1467 1.403 1_565 S
C1468 C1469 1.404 . S
C1468 C1471 1.539 . S
C1469 C1465 1.408 1_565 S
C1469 C1468 1.404 . S
C1469 H1481 0.930 . S
C1470 C1466 1.524 . S
C1470 H1482 0.956 . S
C1470 H1483 0.961 . S
C1470 H1484 0.961 . S
C1471 C1468 1.539 . S
C1471 H1485 0.958 . S
C1471 H1486 0.961 . S
C1471 H1487 0.960 . S
H1472 C1456 0.931 . S
H1473 C1461 0.929 . S
H1474 C1462 0.960 . S
H1475 C1462 0.962 . S
H1476 C1462 0.960 . S
H1477 C1463 0.961 1_545 S
H1478 C1463 0.961 1_545 S
H1479 C1463 0.961 . S
H1480 C1464 0.931 . S
H1481 C1469 0.930 . S
H1482 C1470 0.956 . S
H1483 C1470 0.961 . S
H1484 C1470 0.961 . S
H1485 C1471 0.958 . S
H1486 C1471 0.961 . S
H1487 C1471 0.960 . S
C1488 C1489 1.391 . S
C1488 C1490 1.394 . S
C1488 H1504 0.931 . S
C1489 C1488 1.391 . S
C1489 C1493 1.376 . S
C1490 C1488 1.394 . S
C1490 C1491 1.369 . S
C1490 C1494 1.531 . S
C1491 C1490 1.369 . S
C1491 C1492 1.410 . S
C1491 C1499 1.503 . S
C1492 C1491 1.410 . S
C1492 C1493 1.392 . S
C1492 C1495 1.511 . S
C1493 C1489 1.376 . S
C1493 C1492 1.392 . S
C1493 H1505 0.929 . S
C1494 C1490 1.531 . S
C1494 H1506 0.960 . S
C1494 H1507 0.962 . S
C1494 H1508 0.960 . S
C1495 C1492 1.511 . S
C1495 H1509 0.961 . S
C1495 H1510 0.961 . S
C1495 H1511 0.961 . S
C1496 C1497 1.370 . S
C1496 C1498 1.363 . S
C1496 H1512 0.931 . S
C1497 C1496 1.370 . S
C1497 C1501 1.408 . S
C1498 C1496 1.363 . S
C1498 C1499 1.370 . S
C1498 C1502 1.524 . S
C1499 C1491 1.503 . S
C1499 C1498 1.370 . S
C1499 C1500 1.403 . S
C1500 C1499 1.403 . S
C1500 C1501 1.404 . S
C1500 C1503 1.539 . S
C1501 C1497 1.408 . S
C1501 C1500 1.404 . S
C1501 H1513 0.930 . S
C1502 C1498 1.524 . S
C1502 H1514 0.956 . S
C1502 H1515 0.961 . S
C1502 H1516 0.961 . S
C1503 C1500 1.539 . S
C1503 H1517 0.958 . S
C1503 H1518 0.961 . S
C1503 H1519 0.960 . S
H1504 C1488 0.931 . S
H1505 C1493 0.929 . S
H1506 C1494 0.960 . S
H1507 C1494 0.962 . S
H1508 C1494 0.960 . S
H1509 C1495 0.961 . S
H1510 C1495 0.961 . S
H1511 C1495 0.961 . S
H1512 C1496 0.931 . S
H1513 C1501 0.930 . S
H1514 C1502 0.956 . S
H1515 C1502 0.961 . S
H1516 C1502 0.961 . S
H1517 C1503 0.958 . S
H1518 C1503 0.961 . S
H1519 C1503 0.960 . S
C1520 C1521 1.391 . S
C1520 C1522 1.394 . S
C1520 H1536 0.931 . S
C1521 C1520 1.391 . S
C1521 C1525 1.376 . S
C1522 C1520 1.394 . S
C1522 C1523 1.369 . S
C1522 C1526 1.531 . S
C1523 C1522 1.369 . S
C1523 C1524 1.410 . S
C1523 C1531 1.503 . S
C1524 C1523 1.410 . S
C1524 C1525 1.392 . S
C1524 C1527 1.511 . S
C1525 C1521 1.376 . S
C1525 C1524 1.392 . S
C1525 H1537 0.929 . S
C1526 C1522 1.531 . S
C1526 H1538 0.960 . S
C1526 H1539 0.962 . S
C1526 H1540 0.960 . S
C1527 C1524 1.511 . S
C1527 H1541 0.961 . S
C1527 H1542 0.961 . S
C1527 H1543 0.961 . S
C1528 C1529 1.370 . S
C1528 C1530 1.363 . S
C1528 H1544 0.931 . S
C1529 C1528 1.370 . S
C1529 C1533 1.408 . S
C1530 C1528 1.363 . S
C1530 C1531 1.370 . S
C1530 C1534 1.524 . S
C1531 C1523 1.503 . S
C1531 C1530 1.370 . S
C1531 C1532 1.403 . S
C1532 C1531 1.403 . S
C1532 C1533 1.404 . S
C1532 C1535 1.539 . S
C1533 C1529 1.408 . S
C1533 C1532 1.404 . S
C1533 H1545 0.930 . S
C1534 C1530 1.524 . S
C1534 H1546 0.956 . S
C1534 H1547 0.961 . S
C1534 H1548 0.961 . S
C1535 C1532 1.539 . S
C1535 H1549 0.958 . S
C1535 H1550 0.961 . S
C1535 H1551 0.960 . S
H1536 C1520 0.931 . S
H1537 C1525 0.929 . S
H1538 C1526 0.960 . S
H1539 C1526 0.962 . S
H1540 C1526 0.960 . S
H1541 C1527 0.961 . S
H1542 C1527 0.961 . S
H1543 C1527 0.961 . S
H1544 C1528 0.931 . S
H1545 C1533 0.930 . S
H1546 C1534 0.956 . S
H1547 C1534 0.961 . S
H1548 C1534 0.961 . S
H1549 C1535 0.958 . S
H1550 C1535 0.961 . S
H1551 C1535 0.960 . S
C1552 C1553 1.391 . S
C1552 C1554 1.394 . S
C1552 H1568 0.931 . S
C1553 C1552 1.391 . S
C1553 C1557 1.376 . S
C1554 C1552 1.394 . S
C1554 C1555 1.369 . S
C1554 C1558 1.531 . S
C1555 C1554 1.369 . S
C1555 C1556 1.410 . S
C1555 C1563 1.503 1_556 S
C1556 C1555 1.410 . S
C1556 C1557 1.392 . S
C1556 C1559 1.511 . S
C1557 C1553 1.376 . S
C1557 C1556 1.392 . S
C1557 H1569 0.929 . S
C1558 C1554 1.531 . S
C1558 H1570 0.960 1_556 S
C1558 H1571 0.962 . S
C1558 H1572 0.960 . S
C1559 C1556 1.511 . S
C1559 H1573 0.961 1_545 S
C1559 H1574 0.961 1_546 S
C1559 H1575 0.961 . S
C1560 C1561 1.370 1_565 S
C1560 C1562 1.363 . S
C1560 H1576 0.931 . S
C1561 C1560 1.370 1_545 S
C1561 C1565 1.408 . S
C1562 C1560 1.363 . S
C1562 C1563 1.370 1_565 S
C1562 C1566 1.524 . S
C1563 C1555 1.503 1_554 S
C1563 C1562 1.370 1_545 S
C1563 C1564 1.403 . S
C1564 C1563 1.403 . S
C1564 C1565 1.404 . S
C1564 C1567 1.539 . S
C1565 C1561 1.408 . S
C1565 C1564 1.404 . S
C1565 H1577 0.930 . S
C1566 C1562 1.524 . S
C1566 H1578 0.946 1_554 S
C1566 H1579 0.961 1_554 S
C1566 H1580 0.961 . S
C1567 C1564 1.539 . S
C1567 H1581 0.958 . S
C1567 H1582 0.961 . S
C1567 H1583 0.960 . S
H1568 C1552 0.931 . S
H1569 C1557 0.929 . S
H1570 C1558 0.960 1_554 S
H1571 C1558 0.962 . S
H1572 C1558 0.960 . S
H1573 C1559 0.961 1_565 S
H1574 C1559 0.961 1_564 S
H1575 C1559 0.961 . S
H1576 C1560 0.931 . S
H1577 C1565 0.930 . S
H1578 C1566 0.946 1_556 S
H1579 C1566 0.961 1_556 S
H1580 C1566 0.961 . S
H1581 C1567 0.958 . S
H1582 C1567 0.961 . S
H1583 C1567 0.960 . S
C1584 C1585 1.391 1_565 S
C1584 C1586 1.394 . S
C1584 H1600 0.931 . S
C1585 C1584 1.391 1_545 S
C1585 C1589 1.376 . S
C1586 C1584 1.394 . S
C1586 C1587 1.369 1_565 S
C1586 C1590 1.531 . S
C1587 C1586 1.369 1_545 S
C1587 C1588 1.410 . S
C1587 C1595 1.503 1_556 S
C1588 C1587 1.410 . S
C1588 C1589 1.392 . S
C1588 C1591 1.511 . S
C1589 C1585 1.376 . S
C1589 C1588 1.392 . S
C1589 H1601 0.929 . S
C1590 C1586 1.531 . S
C1590 H1602 0.960 1_556 S
C1590 H1603 0.962 . S
C1590 H1604 0.960 . S
C1591 C1588 1.511 . S
C1591 H1605 0.961 . S
C1591 H1606 0.916 1_556 S
C1591 H1607 0.961 . S
C1592 C1593 1.370 . S
C1592 C1594 1.363 . S
C1592 H1608 0.931 . S
C1593 C1592 1.370 . S
C1593 C1597 1.391 1_545 S
C1594 C1592 1.363 . S
C1594 C1595 1.370 . S
C1594 C1598 1.524 . S
C1595 C1587 1.503 1_554 S
C1595 C1594 1.370 . S
C1595 C1596 1.403 1_545 S
C1596 C1595 1.403 1_565 S
C1596 C1597 1.406 . S
C1596 C1599 1.539 . S
C1597 C1593 1.391 1_565 S
C1597 C1596 1.406 . S
C1597 H1609 0.944 . S
C1598 C1594 1.524 . S
C1598 H1610 0.959 1_554 S
C1598 H1611 0.961 1_554 S
C1598 H1612 0.961 . S
C1599 C1596 1.539 . S
C1599 H1613 0.958 . S
C1599 H1614 0.961 . S
C1599 H1615 0.960 . S
H1600 C1584 0.931 . S
H1601 C1589 0.929 . S
H1602 C1590 0.960 1_554 S
H1603 C1590 0.962 . S
H1604 C1590 0.960 . S
H1605 C1591 0.961 . S
H1606 C1591 0.916 1_554 S
H1607 C1591 0.961 . S
H1608 C1592 0.931 . S
H1609 C1597 0.944 . S
H1610 C1598 0.959 1_556 S
H1611 C1598 0.961 1_556 S
H1612 C1598 0.961 . S
H1613 C1599 0.958 . S
H1614 C1599 0.961 . S
H1615 C1599 0.960 . S
C1616 C1617 1.391 . S
C1616 C1618 1.394 . S
C1616 H1632 0.931 . S
C1617 C1616 1.391 . S
C1617 C1621 1.376 . S
C1618 C1616 1.394 . S
C1618 C1619 1.369 . S
C1618 C1622 1.531 . S
C1619 C1618 1.369 . S
C1619 C1620 1.410 . S
C1619 C1627 1.503 . S
C1620 C1619 1.410 . S
C1620 C1621 1.392 . S
C1620 C1623 1.511 . S
C1621 C1617 1.376 . S
C1621 C1620 1.392 . S
C1621 H1633 0.929 . S
C1622 C1618 1.531 . S
C1622 H1634 0.960 . S
C1622 H1635 0.962 . S
C1622 H1636 0.960 . S
C1623 C1620 1.511 . S
C1623 H1637 0.961 . S
C1623 H1638 0.961 . S
C1623 H1639 0.961 . S
C1624 C1625 1.370 . S
C1624 C1626 1.363 . S
C1624 H1640 0.931 . S
C1625 C1624 1.370 . S
C1625 C1629 1.408 . S
C1626 C1624 1.363 . S
C1626 C1627 1.370 . S
C1626 C1630 1.524 . S
C1627 C1619 1.503 . S
C1627 C1626 1.370 . S
C1627 C1628 1.403 . S
C1628 C1627 1.403 . S
C1628 C1629 1.404 . S
C1628 C1631 1.539 . S
C1629 C1625 1.408 . S
C1629 C1628 1.404 . S
C1629 H1641 0.930 . S
C1630 C1626 1.524 . S
C1630 H1642 0.956 . S
C1630 H1643 0.961 . S
C1630 H1644 0.961 . S
C1631 C1628 1.539 . S
C1631 H1645 0.958 . S
C1631 H1646 0.961 . S
C1631 H1647 0.960 . S
H1632 C1616 0.931 . S
H1633 C1621 0.929 . S
H1634 C1622 0.960 . S
H1635 C1622 0.962 . S
H1636 C1622 0.960 . S
H1637 C1623 0.961 . S
H1638 C1623 0.961 . S
H1639 C1623 0.961 . S
H1640 C1624 0.931 . S
H1641 C1629 0.930 . S
H1642 C1630 0.956 . S
H1643 C1630 0.961 . S
H1644 C1630 0.961 . S
H1645 C1631 0.958 . S
H1646 C1631 0.961 . S
H1647 C1631 0.960 . S
C1648 C1649 1.391 . S
C1648 C1650 1.394 . S
C1648 H1664 0.931 . S
C1649 C1648 1.391 . S
C1649 C1653 1.376 . S
C1650 C1648 1.394 . S
C1650 C1651 1.369 . S
C1650 C1654 1.531 . S
C1651 C1650 1.369 . S
C1651 C1652 1.410 . S
C1651 C1659 1.503 . S
C1652 C1651 1.410 . S
C1652 C1653 1.392 . S
C1652 C1655 1.511 . S
C1653 C1649 1.376 . S
C1653 C1652 1.392 . S
C1653 H1665 0.929 . S
C1654 C1650 1.531 . S
C1654 H1666 0.960 . S
C1654 H1667 0.962 . S
C1654 H1668 0.960 . S
C1655 C1652 1.511 . S
C1655 H1669 0.961 . S
C1655 H1670 0.961 . S
C1655 H1671 0.961 . S
C1656 C1657 1.370 . S
C1656 C1658 1.363 . S
C1656 H1672 0.931 . S
C1657 C1656 1.370 . S
C1657 C1661 1.408 . S
C1658 C1656 1.363 . S
C1658 C1659 1.370 . S
C1658 C1662 1.524 . S
C1659 C1651 1.503 . S
C1659 C1658 1.370 . S
C1659 C1660 1.403 . S
C1660 C1659 1.403 . S
C1660 C1661 1.404 . S
C1660 C1663 1.539 . S
C1661 C1657 1.408 . S
C1661 C1660 1.404 . S
C1661 H1673 0.930 . S
C1662 C1658 1.524 . S
C1662 H1674 0.956 . S
C1662 H1675 0.961 . S
C1662 H1676 0.961 . S
C1663 C1660 1.539 . S
C1663 H1677 0.958 . S
C1663 H1678 0.961 . S
C1663 H1679 0.960 . S
H1664 C1648 0.931 . S
H1665 C1653 0.929 . S
H1666 C1654 0.960 . S
H1667 C1654 0.962 . S
H1668 C1654 0.960 . S
H1669 C1655 0.961 . S
H1670 C1655 0.961 . S
H1671 C1655 0.961 . S
H1672 C1656 0.931 . S
H1673 C1661 0.930 . S
H1674 C1662 0.956 . S
H1675 C1662 0.961 . S
H1676 C1662 0.961 . S
H1677 C1663 0.958 . S
H1678 C1663 0.961 . S
H1679 C1663 0.960 . S
C1680 C1681 1.391 1_565 S
C1680 C1682 1.394 . S
C1680 H1696 0.931 . S
C1681 C1680 1.391 1_545 S
C1681 C1685 1.376 . S
C1682 C1680 1.394 . S
C1682 C1683 1.369 1_565 S
C1682 C1686 1.531 . S
C1683 C1682 1.369 1_545 S
C1683 C1684 1.410 . S
C1683 C1691 1.503 . S
C1684 C1683 1.410 . S
C1684 C1685 1.392 . S
C1684 C1687 1.511 . S
C1685 C1681 1.376 . S
C1685 C1684 1.392 . S
C1685 H1697 0.929 . S
C1686 C1682 1.531 . S
C1686 H1698 0.960 . S
C1686 H1699 0.962 . S
C1686 H1700 0.960 . S
C1687 C1684 1.511 . S
C1687 H1701 0.961 . S
C1687 H1702 0.961 . S
C1687 H1703 0.961 . S
C1688 C1689 1.370 . S
C1688 C1690 1.363 . S
C1688 H1704 0.931 . S
C1689 C1688 1.370 . S
C1689 C1693 1.408 . S
C1690 C1688 1.363 . S
C1690 C1691 1.370 . S
C1690 C1694 1.524 . S
C1691 C1683 1.503 . S
C1691 C1690 1.370 . S
C1691 C1692 1.403 . S
C1692 C1691 1.403 . S
C1692 C1693 1.404 . S
C1692 C1695 1.539 1_545 S
C1693 C1689 1.408 . S
C1693 C1692 1.404 . S
C1693 H1705 0.930 1_545 S
C1694 C1690 1.524 . S
C1694 H1706 0.956 . S
C1694 H1707 0.961 . S
C1694 H1708 0.961 . S
C1695 C1692 1.539 1_565 S
C1695 H1709 0.958 . S
C1695 H1710 0.961 . S
C1695 H1711 0.960 . S
H1696 C1680 0.931 . S
H1697 C1685 0.929 . S
H1698 C1686 0.960 . S
H1699 C1686 0.962 . S
H1700 C1686 0.960 . S
H1701 C1687 0.961 . S
H1702 C1687 0.961 . S
H1703 C1687 0.961 . S
H1704 C1688 0.931 . S
H1705 C1693 0.930 1_565 S
H1706 C1694 0.956 . S
H1707 C1694 0.961 . S
H1708 C1694 0.961 . S
H1709 C1695 0.958 . S
H1710 C1695 0.961 . S
H1711 C1695 0.960 . S
C1712 C1713 1.391 . S
C1712 C1714 1.394 . S
C1712 H1728 0.931 . S
C1713 C1712 1.391 . S
C1713 C1717 1.376 . S
C1714 C1712 1.394 . S
C1714 C1715 1.369 . S
C1714 C1718 1.531 . S
C1715 C1714 1.369 . S
C1715 C1716 1.410 . S
C1715 C1723 1.503 . S
C1716 C1715 1.410 . S
C1716 C1717 1.392 . S
C1716 C1719 1.509 1_545 S
C1717 C1713 1.376 . S
C1717 C1716 1.392 . S
C1717 H1729 0.929 . S
C1718 C1714 1.531 . S
C1718 H1730 0.960 . S
C1718 H1731 0.962 . S
C1718 H1732 0.960 . S
C1719 C1716 1.509 1_565 S
C1719 H1733 0.956 1_565 S
C1719 H1734 0.953 1_565 S
C1719 H1735 0.976 . S
C1720 C1721 1.370 . S
C1720 C1722 1.363 . S
C1720 H1736 0.931 . S
C1721 C1720 1.370 . S
C1721 C1725 1.408 1_545 S
C1722 C1720 1.363 . S
C1722 C1723 1.370 . S
C1722 C1726 1.524 . S
C1723 C1715 1.503 . S
C1723 C1722 1.370 . S
C1723 C1724 1.403 1_545 S
C1724 C1723 1.403 1_565 S
C1724 C1725 1.404 . S
C1724 C1727 1.539 . S
C1725 C1721 1.408 1_565 S
C1725 C1724 1.404 . S
C1725 H1737 0.930 . S
C1726 C1722 1.524 . S
C1726 H1738 0.956 . S
C1726 H1739 0.961 . S
C1726 H1740 0.961 . S
C1727 C1724 1.539 . S
C1727 H1741 0.958 . S
C1727 H1742 0.961 . S
C1727 H1743 0.960 . S
H1728 C1712 0.931 . S
H1729 C1717 0.929 . S
H1730 C1718 0.960 . S
H1731 C1718 0.962 . S
H1732 C1718 0.960 . S
H1733 C1719 0.956 1_545 S
H1734 C1719 0.953 1_545 S
H1735 C1719 0.976 . S
H1736 C1720 0.931 . S
H1737 C1725 0.930 . S
H1738 C1726 0.956 . S
H1739 C1726 0.961 . S
H1740 C1726 0.961 . S
H1741 C1727 0.958 . S
H1742 C1727 0.961 . S
H1743 C1727 0.960 . S
C1744 C1745 1.391 . S
C1744 C1746 1.394 . S
C1744 H1760 0.931 . S
C1745 C1744 1.391 . S
C1745 C1749 1.376 . S
C1746 C1744 1.394 . S
C1746 C1747 1.369 . S
C1746 C1750 1.531 . S
C1747 C1746 1.369 . S
C1747 C1748 1.410 . S
C1747 C1755 1.503 1_554 S
C1748 C1747 1.410 . S
C1748 C1749 1.392 . S
C1748 C1751 1.511 . S
C1749 C1745 1.376 . S
C1749 C1748 1.392 . S
C1749 H1761 0.929 . S
C1750 C1746 1.531 . S
C1750 H1762 0.948 1_554 S
C1750 H1763 0.962 . S
C1750 H1764 0.960 . S
C1751 C1748 1.511 . S
C1751 H1765 0.961 . S
C1751 H1766 0.961 1_554 S
C1751 H1767 0.961 . S
C1752 C1753 1.370 . S
C1752 C1754 1.363 . S
C1752 H1768 0.931 . S
C1753 C1752 1.370 . S
C1753 C1757 1.408 . S
C1754 C1752 1.363 . S
C1754 C1755 1.370 . S
C1754 C1758 1.524 . S
C1755 C1747 1.503 1_556 S
C1755 C1754 1.370 . S
C1755 C1756 1.403 . S
C1756 C1755 1.403 . S
C1756 C1757 1.404 . S
C1756 C1759 1.539 . S
C1757 C1753 1.408 . S
C1757 C1756 1.404 . S
C1757 H1769 0.930 . S
C1758 C1754 1.524 . S
C1758 H1770 0.956 . S
C1758 H1771 0.980 . S
C1758 H1772 0.961 . S
C1759 C1756 1.539 . S
C1759 H1773 0.958 . S
C1759 H1774 0.961 . S
C1759 H1775 0.960 1_556 S
H1760 C1744 0.931 . S
H1761 C1749 0.929 . S
H1762 C1750 0.948 1_556 S
H1763 C1750 0.962 . S
H1764 C1750 0.960 . S
H1765 C1751 0.961 . S
H1766 C1751 0.961 1_556 S
H1767 C1751 0.961 . S
H1768 C1752 0.931 . S
H1769 C1757 0.930 . S
H1770 C1758 0.956 . S
H1771 C1758 0.980 . S
H1772 C1758 0.961 . S
H1773 C1759 0.958 . S
H1774 C1759 0.961 . S
H1775 C1759 0.960 1_554 S
C1776 C1777 1.391 . S
C1776 C1778 1.394 . S
C1776 H1792 0.931 . S
C1777 C1776 1.391 . S
C1777 C1781 1.376 . S
C1778 C1776 1.394 . S
C1778 C1779 1.369 . S
C1778 C1782 1.531 . S
C1779 C1778 1.369 . S
C1779 C1780 1.410 . S
C1779 C1787 1.503 1_556 S
C1780 C1779 1.410 . S
C1780 C1781 1.392 . S
C1780 C1783 1.511 . S
C1781 C1777 1.376 . S
C1781 C1780 1.392 . S
C1781 H1793 0.929 . S
C1782 C1778 1.531 . S
C1782 H1794 0.934 1_556 S
C1782 H1795 0.962 . S
C1782 H1796 0.960 . S
C1783 C1780 1.511 . S
C1783 H1797 0.961 . S
C1783 H1798 0.961 1_556 S
C1783 H1799 0.961 . S
C1784 C1785 1.370 . S
C1784 C1786 1.363 . S
C1784 H1800 0.931 . S
C1785 C1784 1.370 . S
C1785 C1789 1.408 . S
C1786 C1784 1.363 . S
C1786 C1787 1.370 . S
C1786 C1790 1.524 . S
C1787 C1779 1.503 1_554 S
C1787 C1786 1.370 . S
C1787 C1788 1.403 . S
C1788 C1787 1.403 . S
C1788 C1789 1.404 . S
C1788 C1791 1.539 . S
C1789 C1785 1.408 . S
C1789 C1788 1.404 . S
C1789 H1801 0.930 . S
C1790 C1786 1.524 . S
C1790 H1802 0.956 . S
C1790 H1803 0.982 . S
C1790 H1804 0.961 . S
C1791 C1788 1.539 . S
C1791 H1805 0.958 . S
C1791 H1806 0.961 . S
C1791 H1807 0.960 1_554 S
H1792 C1776 0.931 . S
H1793 C1781 0.929 . S
H1794 C1782 0.934 1_554 S
H1795 C1782 0.962 . S
H1796 C1782 0.960 . S
H1797 C1783 0.961 . S
H1798 C1783 0.961 1_554 S
H1799 C1783 0.961 . S
H1800 C1784 0.931 . S
H1801 C1789 0.930 . S
H1802 C1790 0.956 . S
H1803 C1790 0.982 . S
H1804 C1790 0.961 . S
H1805 C1791 0.958 . S
H1806 C1791 0.961 . S
H1807 C1791 0.960 1_556 S
C529 N14 1.660 . S
C537 N377 1.650 . S
C561 N47 1.674 1_565 S
C569 N344 1.659 1_565 S
C593 N311 1.671 1_565 S
C601 N80 1.657 1_565 S
C625 N278 1.626 . S
C633 N113 1.644 . S
C657 N146 1.631 . S
C665 N509 1.653 . S
C689 N179 1.646 . S
C697 N476 1.645 . S
C721 N443 1.627 . S
C729 N212 1.643 . S
C753 N410 1.626 . S
C761 N245 1.649 . S
C785 C8 1.002 . S
C793 C437 0.994 . S
C817 C404 0.979 . S
C825 C41 1.003 . S
C849 C74 0.981 . S
C857 C503 1.003 . S
C881 C470 1.001 . S
C889 C107 0.994 . S
C913 C127 1.579 . S
C921 C490 1.573 . S
C945 C523 1.574 . S
C953 C94 1.568 . S
C977 C424 1.579 . S
C985 C61 1.572 . S
C1009 C28 1.564 . S
C1017 C457 1.575 . S
C1041 C140 1.002 . S
C1049 C305 0.994 . S
C1073 C173 0.979 . S
C1081 C272 1.003 . S
C1105 C206 0.997 . S
C1113 C371 0.996 . S
C1137 C239 0.981 . S
C1145 C338 1.002 . S
C1169 C259 1.555 . S
C1177 C358 1.568 . S
C1201 C226 1.577 . S
C1209 C391 1.570 . S
C1233 C193 1.556 . S
C1241 C292 1.571 . S
C1265 C160 1.568 . S
C1273 C325 1.566 . S
C1297 C50 1.499 . S
C1305 C17 1.494 . S
C1329 C83 1.474 . S
C1337 C116 1.487 . S
C1361 C182 1.473 . S
C1369 C149 1.491 . S
C1393 C248 1.480 . S
C1401 C215 1.495 . S
C1425 C314 1.498 . S
C1433 C281 1.495 . S
C1457 C380 1.476 . S
C1465 C347 1.493 . S
C1489 C413 1.496 . S
C1497 C446 1.496 . S
C1521 C512 1.493 . S
C1529 C479 1.496 . S
C1553 N71 1.554 . S
C1561 N5 1.520 . S
C1585 N104 1.553 . S
C1593 N38 1.524 . S
C1617 N137 1.490 . S
C1625 N203 1.530 . S
C1649 N236 1.490 . S
C1657 N170 1.530 . S
C1681 N269 1.549 . S
C1689 N335 1.528 . S
C1713 N368 1.547 . S
C1721 N302 1.514 . S
C1745 N401 1.490 . S
C1753 N467 1.530 . S
C1777 N500 1.490 . S
C1785 N434 1.533 . S
