# Generated by pormake.
# Topology rac, (4)-cn, num edge types: 1
# Building blocks:
#     Node 0, Type 0, BuildingBlock: ICAMEG_clean_sbu_1, # of connection points: 4
#     Node 1, Type 0, BuildingBlock: ICAMEG_clean_sbu_1, # of connection points: 4
#     Node 2, Type 0, BuildingBlock: ICAMEG_clean_sbu_1, # of connection points: 4
#     Node 3, Type 0, BuildingBlock: ICAMEG_clean_sbu_1, # of connection points: 4
#     Node 4, Type 0, BuildingBlock: ICAMEG_clean_sbu_1, # of connection points: 4
#     Node 5, Type 0, BuildingBlock: ICAMEG_clean_sbu_1, # of connection points: 4
#     Node 6, Type 0, BuildingBlock: ICAMEG_clean_sbu_1, # of connection points: 4
#     Node 7, Type 0, BuildingBlock: ICAMEG_clean_sbu_1, # of connection points: 4
#     Edge 8, Type (0, 0), BuildingBlock: KIFKEQ_clean_linker_1, # of connection points: 2
#     Edge 9, Type (0, 0), BuildingBlock: KIFKEQ_clean_linker_1, # of connection points: 2
#     Edge 10, Type (0, 0), BuildingBlock: KIFKEQ_clean_linker_1, # of connection points: 2
#     Edge 11, Type (0, 0), BuildingBlock: KIFKEQ_clean_linker_1, # of connection points: 2
#     Edge 12, Type (0, 0), BuildingBlock: KIFKEQ_clean_linker_1, # of connection points: 2
#     Edge 13, Type (0, 0), BuildingBlock: KIFKEQ_clean_linker_1, # of connection points: 2
#     Edge 14, Type (0, 0), BuildingBlock: KIFKEQ_clean_linker_1, # of connection points: 2
#     Edge 15, Type (0, 0), BuildingBlock: KIFKEQ_clean_linker_1, # of connection points: 2
#     Edge 16, Type (0, 0), BuildingBlock: KIFKEQ_clean_linker_1, # of connection points: 2
#     Edge 17, Type (0, 0), BuildingBlock: KIFKEQ_clean_linker_1, # of connection points: 2
#     Edge 18, Type (0, 0), BuildingBlock: KIFKEQ_clean_linker_1, # of connection points: 2
#     Edge 19, Type (0, 0), BuildingBlock: KIFKEQ_clean_linker_1, # of connection points: 2
#     Edge 20, Type (0, 0), BuildingBlock: KIFKEQ_clean_linker_1, # of connection points: 2
#     Edge 21, Type (0, 0), BuildingBlock: KIFKEQ_clean_linker_1, # of connection points: 2
#     Edge 22, Type (0, 0), BuildingBlock: KIFKEQ_clean_linker_1, # of connection points: 2
#     Edge 23, Type (0, 0), BuildingBlock: KIFKEQ_clean_linker_1, # of connection points: 2
# Relax obj value: 0.287
# Max RMSD: 0.139
# Mean RMSD: 0.139
data_MOF--net-rac--node1-ICAMEG_clean_sbu_1--edge1-KIFKEQ_clean_linker_1
_symmetry_space_group_name_H-M    P1
_symmetry_Int_Tables_number       1
_symmetry_cell_setting            triclinic
loop_
_symmetry_equiv_pos_as_xyz
'x, y, z'
_cell_length_a     46.542591
_cell_length_b     20.811728
_cell_length_c     42.319543
_cell_angle_alpha  90.017455
_cell_angle_beta   89.997562
_cell_angle_gamma 89.978201
loop_
_atom_site_label
_atom_site_type_symbol
_atom_site_fract_x
_atom_site_fract_y
_atom_site_fract_z
_atom_type_partial_charge
Co0 Co 0.34071 0.30116 0.07897 0.0
Co1 Co 0.38042 0.25761 0.0141 0.0
O2 O 0.37768 0.2883 0.05794 0.0
C3 C 0.3811 0.2522 0.13017 0.0
O4 O 0.40307 0.24796 0.11089 0.0
C5 C 0.41679 0.37379 0.01629 0.0
O6 O 0.39487 0.4019 0.03008 0.0
O7 O 0.35497 0.32816 -0.00056 0.0
O8 O 0.32252 0.33038 0.03863 0.0
H9 H 0.34213 0.19604 0.9073 0.0
H10 H 0.39322 0.36755 0.10355 0.0
O11 O 0.35669 0.27205 0.12062 0.0
H12 H 0.32328 0.53983 0.08221 0.0
H13 H 0.27514 0.36873 0.16774 0.0
H14 H 0.28052 0.2695 0.06207 0.0
H15 H 0.3106 0.42674 0.07243 0.0
H16 H 0.32184 0.35539 0.14098 0.0
O17 O 0.4148 0.3152 0.00763 0.0
H18 H 0.33865 0.23234 0.96267 0.0
H19 H 0.42937 0.22198 0.97221 0.0
H20 H 0.23335 0.28248 0.08786 0.0
H21 H 0.40658 0.47973 0.11415 0.0
H22 H 0.23045 0.33248 0.14107 0.0
H23 H 0.37155 0.56703 0.10337 0.0
O24 O 0.33037 0.2111 0.06966 0.0
H25 H 0.46468 0.16476 0.0727 0.0
H26 H 0.38183 0.11565 0.00423 0.0
H27 H 0.4131 0.02755 0.0225 0.0
H28 H 0.45493 0.05188 0.05693 0.0
H29 H 0.43266 0.25134 0.05415 0.0
H30 H 0.43387 0.18608 0.91686 0.0
H31 H 0.39002 0.17266 0.88405 0.0
O32 O 0.34584 0.19921 0.0197 0.0
C33 C 0.331 0.34549 0.01103 0.0
C34 C 0.36139 0.20149 0.92139 0.0
C35 C 0.41288 0.19598 0.92674 0.0
N36 N 0.38375 0.22869 0.97071 0.0
C37 C 0.35954 0.22183 0.95278 0.0
C38 C 0.4102 0.21643 0.95804 0.0
C39 C 0.38827 0.18844 0.90835 0.0
C40 C 0.37758 0.40472 0.09944 0.0
N41 N 0.35095 0.38999 0.08795 0.0
C42 C 0.38539 0.46845 0.10522 0.0
C43 C 0.36576 0.51743 0.09907 0.0
C44 C 0.3387 0.50221 0.08719 0.0
C45 C 0.33166 0.43796 0.08169 0.0
C46 C 0.27612 0.34702 0.14452 0.0
C47 C 0.27942 0.29163 0.08515 0.0
C48 C 0.30251 0.33918 0.12928 0.0
N49 N 0.30389 0.31219 0.09986 0.0
C50 C 0.25266 0.29869 0.09967 0.0
C51 C 0.25105 0.32668 0.12954 0.0
C52 C 0.33077 0.18114 0.04342 0.0
C53 C 0.44651 0.15354 0.05771 0.0
C54 C 0.39981 0.1266 0.01946 0.0
C55 C 0.41753 0.07652 0.0296 0.0
C56 C 0.44102 0.09021 0.04889 0.0
N57 N 0.40532 0.18859 0.02826 0.0
C58 C 0.42834 0.20239 0.04709 0.0
Co59 Co 0.17365 0.70517 0.0792 0.0
Co60 Co 0.13379 0.74781 0.01432 0.0
O61 O 0.13663 0.71745 0.0582 0.0
C62 C 0.13318 0.75402 0.13036 0.0
O63 O 0.11119 0.75781 0.11108 0.0
C64 C 0.09758 0.63135 0.0167 0.0
O65 O 0.11954 0.60347 0.0305 0.0
O66 O 0.15933 0.67735 -0.00025 0.0
O67 O 0.19187 0.67596 0.03885 0.0
H68 H 0.17188 0.80884 0.90738 0.0
H69 H 0.12135 0.63825 0.10395 0.0
O70 O 0.15763 0.73434 0.12083 0.0
H71 H 0.19169 0.46675 0.08264 0.0
H72 H 0.23947 0.63902 0.16796 0.0
H73 H 0.23374 0.73753 0.06218 0.0
H74 H 0.20407 0.57995 0.07273 0.0
H75 H 0.19272 0.65154 0.14124 0.0
O76 O 0.09949 0.68991 0.00798 0.0
H77 H 0.17547 0.77301 0.9628 0.0
H78 H 0.08475 0.78276 0.97244 0.0
H79 H 0.28096 0.72538 0.08794 0.0
H80 H 0.10829 0.52596 0.11469 0.0
H81 H 0.28404 0.67574 0.1412 0.0
H82 H 0.14353 0.43905 0.10393 0.0
O83 O 0.18373 0.79531 0.06978 0.0
H84 H 0.04944 0.84043 0.07289 0.0
H85 H 0.13215 0.88969 0.00424 0.0
H86 H 0.10076 0.97767 0.02243 0.0
H87 H 0.059 0.95327 0.05695 0.0
H88 H 0.08158 0.75397 0.05443 0.0
H89 H 0.08014 0.81819 0.91704 0.0
H90 H 0.12393 0.83168 0.88416 0.0
O91 O 0.16829 0.80653 0.01978 0.0
C92 C 0.18337 0.66045 0.0113 0.0
C93 C 0.15265 0.80336 0.9215 0.0
C94 C 0.10115 0.80853 0.92691 0.0
N95 N 0.13037 0.77638 0.97089 0.0
C96 C 0.15456 0.78329 0.95292 0.0
C97 C 0.10389 0.78835 0.95824 0.0
C98 C 0.12573 0.8161 0.90847 0.0
C99 C 0.13708 0.60126 0.09984 0.0
N100 N 0.16365 0.61626 0.08828 0.0
C101 C 0.12944 0.53746 0.1057 0.0
C102 C 0.14919 0.4887 0.09957 0.0
C103 C 0.17619 0.5042 0.08762 0.0
C104 C 0.18306 0.56851 0.08203 0.0
C105 C 0.23842 0.66057 0.14472 0.0
C106 C 0.23491 0.71556 0.08529 0.0
C107 C 0.21199 0.66794 0.1295 0.0
N108 N 0.21052 0.69475 0.10005 0.0
C109 C 0.26171 0.70896 0.09979 0.0
C110 C 0.26341 0.68117 0.12969 0.0
C111 C 0.18329 0.82501 0.04349 0.0
C112 C 0.06757 0.85168 0.05787 0.0
C113 C 0.1142 0.8787 0.01951 0.0
C114 C 0.09641 0.92872 0.02961 0.0
C115 C 0.07296 0.91499 0.04894 0.0
N116 N 0.10879 0.81673 0.02841 0.0
C117 C 0.08581 0.8029 0.04729 0.0
Co118 Co 0.33716 0.20264 0.4197 0.0
Co119 Co 0.37783 0.24504 0.48339 0.0
O120 O 0.3745 0.21107 0.44031 0.0
C121 C 0.37906 0.23763 0.36724 0.0
O122 O 0.40105 0.24116 0.38652 0.0
C123 C 0.41254 0.12551 0.48499 0.0
O124 O 0.38968 0.0956 0.4743 0.0
O125 O 0.3511 0.17773 0.49919 0.0
O126 O 0.318 0.18269 0.46088 0.0
H127 H 0.34087 0.3174 0.58914 0.0
H128 H 0.38695 0.12357 0.39773 0.0
O129 O 0.35408 0.22294 0.37725 0.0
H130 H 0.31071 0.96821 0.42379 0.0
H131 H 0.26903 0.13589 0.33319 0.0
H132 H 0.27836 0.24779 0.4354 0.0
H133 H 0.30238 0.08436 0.43007 0.0
H134 H 0.31615 0.14416 0.35952 0.0
O135 O 0.41148 0.18574 0.49056 0.0
H136 H 0.33664 0.27742 0.53446 0.0
H137 H 0.42744 0.27983 0.5245 0.0
H138 H 0.23081 0.24006 0.41004 0.0
H139 H 0.39605 0.00804 0.39071 0.0
H140 H 0.2259 0.18368 0.35858 0.0
H141 H 0.35779 0.92928 0.40382 0.0
O142 O 0.33037 0.29537 0.42629 0.0
H143 H 0.46321 0.32708 0.42287 0.0
H144 H 0.38151 0.38738 0.49089 0.0
H145 H 0.41406 0.47164 0.47105 0.0
H146 H 0.45531 0.44167 0.43684 0.0
H147 H 0.42996 0.24443 0.44297 0.0
H148 H 0.43267 0.31936 0.57916 0.0
H149 H 0.38917 0.33862 0.61183 0.0
O150 O 0.34412 0.30568 0.47685 0.0
C151 C 0.32614 0.16576 0.48839 0.0
C152 C 0.35998 0.30939 0.57511 0.0
C153 C 0.41151 0.31041 0.56952 0.0
N154 N 0.38175 0.27685 0.52623 0.0
C155 C 0.35772 0.28694 0.5441 0.0
C156 C 0.40841 0.28791 0.53861 0.0
C157 C 0.38709 0.32123 0.58783 0.0
C158 C 0.36999 0.09003 0.40293 0.0
N159 N 0.34397 0.1112 0.41367 0.0
C160 C 0.37535 0.02443 0.39916 0.0
C161 C 0.35391 0.98025 0.4066 0.0
C162 C 0.32751 1.00205 0.4178 0.0
C163 C 0.32293 0.06799 0.42131 0.0
C164 C 0.27088 0.16044 0.35565 0.0
C165 C 0.2764 0.22291 0.41309 0.0
C166 C 0.29752 0.16544 0.37064 0.0
N167 N 0.29999 0.19599 0.39912 0.0
C168 C 0.24942 0.21882 0.3988 0.0
C169 C 0.24669 0.18725 0.36991 0.0
C170 C 0.33034 0.32543 0.4525 0.0
C171 C 0.4453 0.34076 0.43774 0.0
C172 C 0.39924 0.37398 0.47576 0.0
C173 C 0.41768 0.42189 0.46472 0.0
C174 C 0.44084 0.40504 0.44557 0.0
N175 N 0.40372 0.31102 0.46794 0.0
C176 C 0.42642 0.29414 0.44924 0.0
Co177 Co 0.1765 0.80525 0.42039 0.0
Co178 Co 0.13535 0.76229 0.48357 0.0
O179 O 0.13899 0.79681 0.44064 0.0
C180 C 0.13495 0.77115 0.36746 0.0
O181 O 0.11286 0.76716 0.3866 0.0
C182 C 0.1007 0.88193 0.48534 0.0
O183 O 0.12364 0.91191 0.47492 0.0
O184 O 0.16201 0.82935 0.4998 0.0
O185 O 0.19541 0.82433 0.46181 0.0
H186 H 0.17156 0.68842 0.58936 0.0
H187 H 0.12704 0.88503 0.39823 0.0
O188 O 0.15985 0.78579 0.37771 0.0
H189 H 0.20324 0.0394 0.42587 0.0
H190 H 0.2454 0.87302 0.33482 0.0
H191 H 0.23511 0.75933 0.43641 0.0
H192 H 0.21138 0.92307 0.43163 0.0
H193 H 0.19806 0.86457 0.36066 0.0
O194 O 0.10168 0.82161 0.49069 0.0
H195 H 0.17617 0.72912 0.53486 0.0
H196 H 0.08545 0.72714 0.52417 0.0
H197 H 0.28287 0.76719 0.41153 0.0
H198 H 0.11815 1.00076 0.3917 0.0
H199 H 0.28826 0.82448 0.36039 0.0
H200 H 0.15639 0.07901 0.40561 0.0
O201 O 0.18307 0.71236 0.42664 0.0
H202 H 0.05032 0.68132 0.4221 0.0
H203 H 0.13152 0.61986 0.49057 0.0
H204 H 0.09905 0.53598 0.47017 0.0
H205 H 0.05805 0.56653 0.43574 0.0
H206 H 0.08349 0.7636 0.44276 0.0
H207 H 0.07982 0.68691 0.57865 0.0
H208 H 0.1231 0.66705 0.61159 0.0
O209 O 0.16906 0.70159 0.47709 0.0
C210 C 0.18706 0.84123 0.48925 0.0
C211 C 0.15254 0.69668 0.5752 0.0
C212 C 0.10105 0.69591 0.56921 0.0
N213 N 0.13113 0.72996 0.52628 0.0
C214 C 0.15503 0.71954 0.5443 0.0
C215 C 0.10437 0.71882 0.5384 0.0
C216 C 0.12534 0.68476 0.58767 0.0
C217 C 0.144 0.91836 0.40378 0.0
N218 N 0.16989 0.89683 0.41469 0.0
C219 C 0.13875 0.98407 0.40028 0.0
C220 C 0.16018 0.02797 0.40816 0.0
C221 C 0.18646 0.00578 0.41953 0.0
C222 C 0.19092 0.93975 0.42275 0.0
C223 C 0.24334 0.84806 0.35714 0.0
C224 C 0.23727 0.78458 0.41423 0.0
C225 C 0.21657 0.84296 0.37185 0.0
N226 N 0.21384 0.81192 0.40016 0.0
C227 C 0.26438 0.78875 0.40022 0.0
C228 C 0.26738 0.82083 0.37151 0.0
C229 C 0.18292 0.682 0.45276 0.0
C230 C 0.06812 0.66739 0.43707 0.0
C231 C 0.1139 0.63352 0.47534 0.0
C232 C 0.0955 0.58581 0.46399 0.0
C233 C 0.07248 0.60299 0.4447 0.0
N234 N 0.10951 0.69659 0.4677 0.0
C235 C 0.08695 0.71379 0.44887 0.0
Co236 Co 0.67568 0.70327 0.91817 0.0
Co237 Co 0.63583 0.74409 0.98279 0.0
O238 O 0.63864 0.71137 0.93944 0.0
C239 C 0.63321 0.74094 0.86667 0.0
O240 O 0.61154 0.74498 0.88638 0.0
C241 C 0.60163 0.62403 0.98419 0.0
O242 O 0.62448 0.59492 0.97294 0.0
O243 O 0.66289 0.67668 0.99778 0.0
O244 O 0.69538 0.68177 0.95885 0.0
H245 H 0.67398 0.81404 0.08841 0.0
H246 H 0.62547 0.62577 0.89624 0.0
O247 O 0.65821 0.72508 0.87618 0.0
H248 H 0.70152 0.46834 0.92009 0.0
H249 H 0.74246 0.63884 0.82995 0.0
H250 H 0.73475 0.74743 0.93319 0.0
H251 H 0.71028 0.58417 0.9271 0.0
H252 H 0.69575 0.64645 0.85722 0.0
O253 O 0.60246 0.68416 0.99011 0.0
H254 H 0.6776 0.77555 0.03342 0.0
H255 H 0.58669 0.77723 0.02489 0.0
H256 H 0.78191 0.74033 0.90688 0.0
H257 H 0.61594 0.5106 0.8885 0.0
H258 H 0.78599 0.68565 0.8549 0.0
H259 H 0.6541 0.43081 0.9005 0.0
O260 O 0.68275 0.7957 0.92538 0.0
H261 H 0.54937 0.82686 0.92436 0.0
H262 H 0.632 0.88619 0.99117 0.0
H263 H 0.59899 0.97065 0.97244 0.0
H264 H 0.55727 0.94117 0.93884 0.0
H265 H 0.58309 0.74401 0.94333 0.0
H266 H 0.58206 0.81526 0.07989 0.0
H267 H 0.62593 0.83414 0.11199 0.0
O268 O 0.66933 0.80512 0.97611 0.0
C269 C 0.68764 0.66459 0.98646 0.0
C270 C 0.65471 0.8062 0.07463 0.0
C271 C 0.60312 0.8068 0.06986 0.0
N272 N 0.6324 0.77471 0.0259 0.0
C273 C 0.65663 0.7846 0.04345 0.0
C274 C 0.60587 0.78516 0.03876 0.0
C275 C 0.62774 0.81741 0.08785 0.0
C276 C 0.64239 0.59177 0.90096 0.0
N277 N 0.66858 0.61216 0.91151 0.0
C278 C 0.63678 0.52638 0.89678 0.0
C279 C 0.65816 0.48163 0.9036 0.0
C280 C 0.68476 0.50265 0.91459 0.0
C281 C 0.68958 0.56839 0.91852 0.0
C282 C 0.74097 0.66264 0.85264 0.0
C283 C 0.73636 0.72325 0.91065 0.0
C284 C 0.71456 0.66726 0.86815 0.0
N285 N 0.71255 0.6969 0.89691 0.0
C286 C 0.76312 0.71953 0.89583 0.0
C287 C 0.76539 0.68891 0.86665 0.0
C288 C 0.683 0.82518 0.95175 0.0
C289 C 0.56749 0.84033 0.93896 0.0
C290 C 0.61407 0.87301 0.9763 0.0
C291 C 0.59537 0.92104 0.96589 0.0
C292 C 0.57194 0.90445 0.94708 0.0
N293 N 0.60959 0.81021 0.96819 0.0
C294 C 0.58663 0.79359 0.94983 0.0
Co295 Co 0.83852 0.3006 0.91927 0.0
Co296 Co 0.879 0.25949 0.98331 0.0
O297 O 0.87578 0.29284 0.94011 0.0
C298 C 0.8807 0.26478 0.86716 0.0
O299 O 0.90255 0.26093 0.88662 0.0
C300 C 0.91303 0.37982 0.98484 0.0
O301 O 0.89006 0.4089 0.97388 0.0
O302 O 0.85196 0.32652 0.99876 0.0
O303 O 0.81908 0.32086 0.96026 0.0
H304 H 0.84179 0.18773 0.08902 0.0
H305 H 0.88819 0.37965 0.89719 0.0
O306 O 0.85571 0.27998 0.87699 0.0
H307 H 0.81171 0.53491 0.92282 0.0
H308 H 0.77069 0.36547 0.83214 0.0
H309 H 0.77977 0.25493 0.9347 0.0
H310 H 0.80349 0.41875 0.92922 0.0
H311 H 0.81767 0.3582 0.85883 0.0
O312 O 0.91233 0.3196 0.99053 0.0
H313 H 0.83767 0.22698 0.03421 0.0
H314 H 0.92852 0.22618 0.02482 0.0
H315 H 0.73235 0.26162 0.90897 0.0
H316 H 0.89717 0.49519 0.89003 0.0
H317 H 0.72757 0.3173 0.85732 0.0
H318 H 0.85879 0.57388 0.90294 0.0
O319 O 0.83193 0.20791 0.92607 0.0
H320 H 0.96508 0.17828 0.92367 0.0
H321 H 0.88316 0.11731 0.99117 0.0
H322 H 0.91616 0.03341 0.97178 0.0
H323 H 0.95752 0.06371 0.93784 0.0
H324 H 0.93139 0.26057 0.9433 0.0
H325 H 0.93364 0.18741 0.07962 0.0
H326 H 0.89005 0.16769 0.11206 0.0
O327 O 0.84554 0.19821 0.97671 0.0
C328 C 0.82706 0.33825 0.98776 0.0
C329 C 0.86094 0.19593 0.07508 0.0
C330 C 0.91249 0.19583 0.06982 0.0
N331 N 0.88282 0.2283 0.02626 0.0
C332 C 0.85874 0.21797 0.044 0.0
C333 C 0.90947 0.2179 0.03883 0.0
C334 C 0.88802 0.18476 0.08801 0.0
C335 C 0.87118 0.41318 0.9023 0.0
N336 N 0.84517 0.392 0.91301 0.0
C337 C 0.87647 0.47877 0.89844 0.0
C338 C 0.85497 0.52292 0.90577 0.0
C339 C 0.82856 0.50109 0.91692 0.0
C340 C 0.82405 0.43516 0.9205 0.0
C341 C 0.77248 0.34122 0.85467 0.0
C342 C 0.77786 0.27951 0.91231 0.0
C343 C 0.79905 0.33679 0.86987 0.0
N344 N 0.80144 0.3066 0.89844 0.0
C345 C 0.75095 0.28301 0.89781 0.0
C346 C 0.74829 0.31419 0.86882 0.0
C347 C 0.83188 0.17813 0.95235 0.0
C348 C 0.94713 0.16446 0.93842 0.0
C349 C 0.90093 0.13085 0.97615 0.0
C350 C 0.91963 0.08314 0.96537 0.0
C351 C 0.94286 0.10018 0.94636 0.0
N352 N 0.90524 0.1938 0.96821 0.0
C353 C 0.928 0.21087 0.94966 0.0
Co354 Co 0.67281 0.797 0.57966 0.0
Co355 Co 0.6342 0.76074 0.51344 0.0
O356 O 0.6361 0.78986 0.55756 0.0
C357 C 0.62984 0.75526 0.62997 0.0
O358 O 0.60801 0.75479 0.61037 0.0
C359 C 0.59877 0.87882 0.51531 0.0
O360 O 0.62054 0.906 0.5298 0.0
O361 O 0.66108 0.83014 0.50041 0.0
O362 O 0.69298 0.82225 0.5398 0.0
H363 H 0.6747 0.70065 0.4074 0.0
H364 H 0.62212 0.87207 0.60273 0.0
O365 O 0.65494 0.77107 0.62083 0.0
H366 H 0.69786 0.03223 0.58283 0.0
H367 H 0.73808 0.85488 0.67029 0.0
H368 H 0.73225 0.75507 0.56479 0.0
H369 H 0.70701 0.91725 0.57349 0.0
H370 H 0.6918 0.84901 0.64205 0.0
O371 O 0.60065 0.82041 0.50635 0.0
H372 H 0.67707 0.73467 0.46318 0.0
H373 H 0.58604 0.72964 0.46962 0.0
H374 H 0.77898 0.76047 0.59208 0.0
H375 H 0.61222 0.98624 0.61287 0.0
H376 H 0.78212 0.81072 0.64521 0.0
H377 H 0.65021 0.06746 0.60283 0.0
O378 O 0.68035 0.70546 0.57076 0.0
H379 H 0.54758 0.67112 0.56895 0.0
H380 H 0.63113 0.61941 0.50194 0.0
H381 H 0.59834 0.53269 0.51848 0.0
H382 H 0.55616 0.55834 0.55218 0.0
H383 H 0.58108 0.75627 0.5521 0.0
H384 H 0.58266 0.69608 0.41382 0.0
H385 H 0.62722 0.68113 0.38236 0.0
O386 O 0.6679 0.69985 0.51962 0.0
C387 C 0.68563 0.8415 0.5124 0.0
C388 C 0.65513 0.7068 0.42089 0.0
C389 C 0.60347 0.70431 0.42448 0.0
N390 N 0.63174 0.73359 0.46969 0.0
C391 C 0.65635 0.72587 0.45251 0.0
C392 C 0.60552 0.72344 0.45604 0.0
C393 C 0.62849 0.69591 0.40685 0.0
C394 C 0.63899 0.90655 0.59893 0.0
N395 N 0.66529 0.88739 0.58811 0.0
C396 C 0.63316 0.97144 0.60444 0.0
C397 C 0.65445 0.01701 0.59871 0.0
C398 C 0.68117 0.99728 0.58748 0.0
C399 C 0.6862 0.932 0.58221 0.0
C400 C 0.737 0.83301 0.64711 0.0
C401 C 0.73345 0.77735 0.58782 0.0
C402 C 0.71085 0.82941 0.63103 0.0
N403 N 0.70935 0.80221 0.60166 0.0
C404 C 0.75997 0.78011 0.6032 0.0
C405 C 0.7617 0.80824 0.63303 0.0
C406 C 0.68116 0.67802 0.54389 0.0
C407 C 0.56588 0.65932 0.55428 0.0
C408 C 0.61297 0.63091 0.51683 0.0
C409 C 0.5944 0.58162 0.526 0.0
C410 C 0.57072 0.59606 0.54488 0.0
N411 N 0.60809 0.69285 0.52616 0.0
C412 C 0.5849 0.70737 0.54461 0.0
Co413 Co 0.84004 0.21036 0.57954 0.0
Co414 Co 0.87913 0.24712 0.51375 0.0
O415 O 0.87692 0.21754 0.55777 0.0
C416 C 0.88272 0.25141 0.63027 0.0
O417 O 0.90459 0.25243 0.61073 0.0
C418 C 0.91452 0.12897 0.51556 0.0
O419 O 0.89267 0.10165 0.52981 0.0
O420 O 0.85233 0.17786 0.50034 0.0
O421 O 0.82012 0.18576 0.53942 0.0
H422 H 0.83937 0.30843 0.40757 0.0
H423 H 0.89045 0.13475 0.60286 0.0
O424 O 0.85766 0.23559 0.62096 0.0
H425 H 0.81474 0.97521 0.58158 0.0
H426 H 0.77404 0.15156 0.66936 0.0
H427 H 0.78076 0.25282 0.5643 0.0
H428 H 0.80576 0.09037 0.57262 0.0
H429 H 0.82053 0.15763 0.64157 0.0
O430 O 0.91272 0.18748 0.50676 0.0
H431 H 0.83661 0.27376 0.46322 0.0
H432 H 0.9276 0.27865 0.47042 0.0
H433 H 0.73382 0.24725 0.59113 0.0
H434 H 0.90017 0.02037 0.61264 0.0
H435 H 0.73023 0.19626 0.64405 0.0
H436 H 0.86219 0.93947 0.6019 0.0
O437 O 0.83269 0.30205 0.57088 0.0
H438 H 0.96541 0.33603 0.57021 0.0
H439 H 0.88231 0.38859 0.50271 0.0
H440 H 0.91499 0.47508 0.51979 0.0
H441 H 0.95694 0.44901 0.55373 0.0
H442 H 0.93202 0.25109 0.55281 0.0
H443 H 0.93137 0.31286 0.41477 0.0
H444 H 0.88702 0.32822 0.38299 0.0
O445 O 0.8454 0.30801 0.51984 0.0
C446 C 0.82768 0.16655 0.51208 0.0
C447 C 0.85885 0.30211 0.4212 0.0
C448 C 0.91048 0.30452 0.42523 0.0
N449 N 0.8819 0.27473 0.47011 0.0
C450 C 0.85741 0.28267 0.45275 0.0
C451 C 0.90822 0.28501 0.4567 0.0
C452 C 0.88559 0.31314 0.40741 0.0
C453 C 0.87359 0.10039 0.59875 0.0
N454 N 0.8474 0.11982 0.58774 0.0
C455 C 0.87931 0.03539 0.60406 0.0
C456 C 0.85803 0.99 0.59794 0.0
C457 C 0.83142 0.01001 0.58653 0.0
C458 C 0.82649 0.07539 0.58147 0.0
C459 C 0.77531 0.17375 0.64628 0.0
C460 C 0.77937 0.23024 0.58724 0.0
C461 C 0.80159 0.17748 0.63046 0.0
N462 N 0.80334 0.20508 0.6012 0.0
C463 C 0.75273 0.22738 0.60236 0.0
C464 C 0.75074 0.19883 0.63206 0.0
C465 C 0.83204 0.3297 0.54407 0.0
C466 C 0.9472 0.34801 0.55542 0.0
C467 C 0.90037 0.3769 0.5177 0.0
C468 C 0.91888 0.42606 0.52719 0.0
C469 C 0.94243 0.41139 0.5462 0.0
N470 N 0.90518 0.31484 0.52688 0.0
C471 C 0.92825 0.30009 0.54546 0.0
H472 H 0.31658 0.09566 0.0891 0.0
H473 H 0.30082 0.14075 0.99114 0.0
H474 H 0.2812 0.01029 0.08678 0.0
H475 H 0.26379 0.05728 0.98906 0.0
H476 H 0.19688 0.91165 0.08886 0.0
H477 H 0.23221 0.99715 0.08651 0.0
H478 H 0.25061 0.94806 0.98925 0.0
H479 H 0.21363 0.86447 0.99133 0.0
C480 C 0.30542 0.08724 0.06701 0.0
C481 C 0.31139 0.12505 0.04036 0.0
C482 C 0.28478 0.03868 0.06572 0.0
C483 C 0.26885 0.02748 0.03795 0.0
C484 C 0.27556 0.06403 0.01087 0.0
C485 C 0.29679 0.11198 0.01201 0.0
C486 C 0.20824 0.91967 0.06685 0.0
C487 C 0.20258 0.88123 0.04034 0.0
C488 C 0.22885 0.96829 0.06556 0.0
C489 C 0.24505 0.97892 0.03792 0.0
C490 C 0.23862 0.94176 0.01095 0.0
C491 C 0.21742 0.89375 0.01208 0.0
H492 H 0.21307 0.64089 0.50456 0.0
H493 H 0.1967 0.59675 0.4066 0.0
H494 H 0.25007 0.55761 0.50618 0.0
H495 H 0.23214 0.51122 0.40849 0.0
H496 H 0.31647 0.41082 0.40646 0.0
H497 H 0.28098 0.49623 0.40847 0.0
H498 H 0.26306 0.44928 0.50609 0.0
H499 H 0.30011 0.36612 0.50434 0.0
C500 C 0.21692 0.61224 0.4836 0.0
C501 C 0.20212 0.62551 0.4554 0.0
C502 C 0.23816 0.56437 0.48448 0.0
C503 C 0.2447 0.52796 0.4573 0.0
C504 C 0.22864 0.53942 0.42964 0.0
C505 C 0.20796 0.58801 0.4286 0.0
C506 C 0.3052 0.4194 0.42846 0.0
C507 C 0.31106 0.38178 0.45521 0.0
C508 C 0.28449 0.46792 0.42957 0.0
C509 C 0.26842 0.4792 0.45725 0.0
C510 C 0.27498 0.44265 0.48437 0.0
C511 C 0.29624 0.39485 0.48342 0.0
H512 H 0.71319 0.8651 0.00377 0.0
H513 H 0.69734 0.91052 0.90585 0.0
H514 H 0.75063 0.94731 0.00571 0.0
H515 H 0.73328 0.99489 0.90805 0.0
H516 H 0.81821 0.09227 0.90645 0.0
H517 H 0.78237 0.00763 0.90834 0.0
H518 H 0.76402 0.05574 0.00574 0.0
H519 H 0.80138 0.1382 0.00412 0.0
C520 C 0.71725 0.89378 0.98288 0.0
C521 C 0.70246 0.88117 0.9546 0.0
C522 C 0.73874 0.94102 0.98395 0.0
C523 C 0.74558 0.97739 0.95686 0.0
C524 C 0.72954 0.96665 0.92912 0.0
C525 C 0.70857 0.91873 0.92791 0.0
C526 C 0.80679 0.08407 0.92839 0.0
C527 C 0.81259 0.12187 0.9551 0.0
C528 C 0.78588 0.03602 0.92942 0.0
C529 C 0.76957 0.02539 0.95698 0.0
C530 C 0.77612 0.06194 0.98411 0.0
C531 C 0.79756 0.10931 0.98324 0.0
H532 H 0.71201 0.64056 0.49174 0.0
H533 H 0.69511 0.59069 0.58894 0.0
H534 H 0.7499 0.55904 0.48962 0.0
H535 H 0.7316 0.50754 0.58654 0.0
H536 H 0.80154 0.36766 0.49176 0.0
H537 H 0.76367 0.4492 0.48954 0.0
H538 H 0.78132 0.49982 0.58673 0.0
H539 H 0.81779 0.41664 0.58922 0.0
C540 C 0.71594 0.6111 0.51239 0.0
C541 C 0.70075 0.62231 0.54058 0.0
C542 C 0.73769 0.56435 0.51123 0.0
C543 C 0.74441 0.52731 0.53812 0.0
C544 C 0.72791 0.53643 0.56566 0.0
C545 C 0.70666 0.58367 0.56697 0.0
C546 C 0.79748 0.39692 0.51246 0.0
C547 C 0.81247 0.38546 0.54074 0.0
C548 C 0.77574 0.44369 0.51123 0.0
C549 C 0.76884 0.48049 0.53816 0.0
C550 C 0.78515 0.47112 0.56581 0.0
C551 C 0.80639 0.42386 0.56718 0.0
H552 H 0.42871 0.27381 0.16696 0.0
H553 H 0.34104 0.20672 0.17047 0.0
H554 H 0.43077 0.27243 0.22488 0.0
H555 H 0.34337 0.20224 0.2277 0.0
H556 H 0.33933 0.27823 0.32523 0.0
H557 H 0.3427 0.27963 0.26809 0.0
H558 H 0.43033 0.21152 0.27369 0.0
H559 H 0.42721 0.21303 0.33157 0.0
C560 C 0.41018 0.25724 0.18012 0.0
C561 C 0.38462 0.24103 0.16436 0.0
C562 C 0.41132 0.25647 0.21326 0.0
C563 C 0.38699 0.23876 0.23104 0.0
C564 C 0.36219 0.21839 0.21491 0.0
C565 C 0.36091 0.22024 0.18206 0.0
C566 C 0.35944 0.26417 0.3143 0.0
C567 C 0.38293 0.24502 0.33281 0.0
C568 C 0.36131 0.2643 0.28148 0.0
C569 C 0.38654 0.24395 0.26615 0.0
C570 C 0.41056 0.22739 0.2847 0.0
C571 C 0.4088 0.22825 0.31781 0.0
H572 H 0.08678 0.79439 0.33161 0.0
H573 H 0.17512 0.73226 0.32553 0.0
H574 H 0.08376 0.79551 0.27374 0.0
H575 H 0.17187 0.73042 0.2684 0.0
H576 H 0.17306 0.8011 0.17043 0.0
H577 H 0.17074 0.80664 0.22764 0.0
H578 H 0.08369 0.73421 0.22518 0.0
H579 H 0.08572 0.73185 0.16728 0.0
C580 C 0.10533 0.77982 0.31791 0.0
C581 C 0.13128 0.76397 0.33299 0.0
C582 C 0.10363 0.78044 0.28479 0.0
C583 C 0.12778 0.76453 0.26632 0.0
C584 C 0.15314 0.74524 0.28172 0.0
C585 C 0.15494 0.74562 0.31455 0.0
C586 C 0.15327 0.78732 0.18209 0.0
C587 C 0.12965 0.76564 0.16451 0.0
C588 C 0.152 0.78978 0.21494 0.0
C589 C 0.1273 0.76911 0.23118 0.0
C590 C 0.10306 0.75045 0.21348 0.0
C591 C 0.10418 0.74911 0.18035 0.0
H592 H 0.58396 0.72171 0.83192 0.0
H593 H 0.67301 0.77753 0.82386 0.0
H594 H 0.57993 0.72053 0.77405 0.0
H595 H 0.66882 0.77874 0.7668 0.0
H596 H 0.66787 0.70175 0.67012 0.0
H597 H 0.66548 0.6979 0.72735 0.0
H598 H 0.58086 0.7834 0.72472 0.0
H599 H 0.58292 0.78468 0.66671 0.0
C600 C 0.60245 0.73492 0.81781 0.0
C601 C 0.62889 0.74888 0.83232 0.0
C602 C 0.60017 0.73421 0.78472 0.0
C603 C 0.62425 0.74794 0.76576 0.0
C604 C 0.6501 0.76568 0.78058 0.0
C605 C 0.65246 0.76558 0.81335 0.0
C606 C 0.64855 0.71876 0.68173 0.0
C607 C 0.62569 0.74401 0.66407 0.0
C608 C 0.64726 0.71719 0.71456 0.0
C609 C 0.62332 0.74212 0.73071 0.0
C610 C 0.59964 0.76401 0.713 0.0
C611 C 0.60078 0.76468 0.67985 0.0
H612 H 0.92996 0.22359 0.66679 0.0
H613 H 0.84422 0.30227 0.67079 0.0
H614 H 0.93225 0.2246 0.72477 0.0
H615 H 0.84682 0.30592 0.728 0.0
H616 H 0.84074 0.22708 0.82477 0.0
H617 H 0.84444 0.22584 0.76767 0.0
H618 H 0.933 0.28702 0.77399 0.0
H619 H 0.92948 0.28574 0.83188 0.0
C620 C 0.91195 0.24256 0.68005 0.0
C621 C 0.88679 0.26213 0.66443 0.0
C622 C 0.91322 0.24309 0.7132 0.0
C623 C 0.88943 0.26379 0.73108 0.0
C624 C 0.86516 0.28753 0.71509 0.0
C625 C 0.86375 0.28607 0.68226 0.0
C626 C 0.86111 0.23968 0.81404 0.0
C627 C 0.88473 0.25713 0.83275 0.0
C628 C 0.86319 0.23957 0.78124 0.0
C629 C 0.8888 0.2581 0.76614 0.0
C630 C 0.91295 0.27268 0.78486 0.0
C631 C 0.91095 0.27194 0.81797 0.0
H632 H 0.43277 0.48693 0.04381 0.0
H633 H 0.4623 0.34247 0.97814 0.0
H634 H 0.47736 0.54606 0.03682 0.0
H635 H 0.50651 0.40306 0.96994 0.0
H636 H 0.59452 0.49353 0.98436 0.0
H637 H 0.55038 0.43307 0.99263 0.0
H638 H 0.50324 0.61114 0.00205 0.0
H639 H 0.54765 0.67128 0.9952 0.0
C640 C 0.44869 0.46811 0.02759 0.0
C641 C 0.44393 0.40998 0.0115 0.0
C642 C 0.47429 0.50232 0.0234 0.0
C643 C 0.49574 0.47982 0.00268 0.0
C644 C 0.49084 0.42161 0.9865 0.0
C645 C 0.46536 0.38695 0.99102 0.0
C646 C 0.57473 0.51975 0.98832 0.0
C647 C 0.57468 0.58727 0.98926 0.0
C648 C 0.54929 0.48503 0.99282 0.0
C649 C 0.52299 0.51689 0.99801 0.0
C650 C 0.52302 0.58459 0.99875 0.0
C651 C 0.54853 0.61927 0.99463 0.0
H652 H 0.08187 0.51792 0.0441 0.0
H653 H 0.05191 0.66245 0.97874 0.0
H654 H 0.03735 0.45844 0.03716 0.0
H655 H 0.00779 0.60154 0.9706 0.0
H656 H 0.91996 0.51037 0.98527 0.0
H657 H 0.96403 0.5711 0.99348 0.0
H658 H 0.01147 0.39334 0.00232 0.0
H659 H 0.96713 0.3329 0.99552 0.0
C660 C 0.06587 0.53669 0.02796 0.0
C661 C 0.07049 0.59494 0.01195 0.0
C662 C 0.04031 0.50228 0.0238 0.0
C663 C 0.01878 0.52471 0.00318 0.0
C664 C 0.02354 0.58304 0.98708 0.0
C665 C 0.04897 0.61789 0.99157 0.0
C666 C 0.93979 0.48427 0.98908 0.0
C667 C 0.93995 0.41674 0.98987 0.0
C668 C 0.9652 0.51915 0.99355 0.0
C669 C 0.99156 0.48746 0.99856 0.0
C670 C 0.99164 0.41975 0.99915 0.0
C671 C 0.96617 0.3849 0.99506 0.0
H672 H 0.5828 0.99228 0.54275 0.0
H673 H 0.55336 0.84789 0.47701 0.0
H674 H 0.53796 0.05088 0.53609 0.0
H675 H 0.50895 0.90784 0.46919 0.0
H676 H 0.42054 0.99522 0.48502 0.0
H677 H 0.46515 0.93614 0.49267 0.0
H678 H 0.51121 0.11559 0.50173 0.0
H679 H 0.46633 0.17437 0.49546 0.0
C680 C 0.56686 0.97339 0.52656 0.0
C681 C 0.57171 0.91536 0.5104 0.0
C682 C 0.54112 0.00727 0.52258 0.0
C683 C 0.5196 0.98448 0.50202 0.0
C684 C 0.52465 0.92656 0.48566 0.0
C685 C 0.55027 0.89227 0.48995 0.0
C686 C 0.44019 0.02205 0.48876 0.0
C687 C 0.43979 0.08956 0.48975 0.0
C688 C 0.46591 0.98812 0.49291 0.0
C689 C 0.49205 0.02077 0.49779 0.0
C690 C 0.49158 0.08846 0.49863 0.0
C691 C 0.46579 0.12235 0.49484 0.0
H692 H 0.93027 0.01501 0.54262 0.0
H693 H 0.96018 0.16035 0.4777 0.0
H694 H 0.97509 0.95632 0.536 0.0
H695 H 1.00458 0.10033 0.46991 0.0
H696 H 0.09282 0.01226 0.48588 0.0
H697 H 0.04823 0.07142 0.49353 0.0
H698 H 1.00195 0.89205 0.50152 0.0
H699 H 0.04681 0.83315 0.49526 0.0
C700 C 0.9463 0.03409 0.52662 0.0
C701 C 0.94159 0.09241 0.51068 0.0
C702 C 0.97204 1.00017 0.52266 0.0
C703 C 0.99369 0.0232 0.50234 0.0
C704 C 0.98878 0.08141 0.4862 0.0
C705 C 0.96316 0.11573 0.49047 0.0
C706 C 0.07313 0.98545 0.48938 0.0
C707 C 0.07345 0.91792 0.49008 0.0
C708 C 0.04742 0.01944 0.49353 0.0
C709 C 0.02123 0.98684 0.49811 0.0
C710 C 0.02163 0.91914 0.49865 0.0
C711 C 0.0474 0.88518 0.49487 0.0
H712 H 0.23221 0.68735 0.97907 0.0
H713 H 0.17648 0.53268 0.0075 0.0
H714 H 0.26926 0.60975 0.96407 0.0
H715 H 0.21367 0.45506 0.99476 0.0
H716 H 0.28228 0.31892 0.97852 0.0
H717 H 0.24525 0.3967 0.9637 0.0
H718 H 0.3008 0.55102 0.99495 0.0
H719 H 0.33797 0.47325 0.0075 0.0
C720 C 0.22768 0.63644 0.98109 0.0
C721 C 0.20163 0.61542 0.99399 0.0
C722 C 0.24896 0.59195 0.97298 0.0
C723 C 0.24485 0.52587 0.9787 0.0
C724 C 0.21772 0.50512 0.98947 0.0
C725 C 0.19629 0.54955 0.99689 0.0
C726 C 0.28681 0.3698 0.98068 0.0
C727 C 0.31284 0.39066 0.9937 0.0
C728 C 0.26554 0.41439 0.97269 0.0
C729 C 0.26965 0.4804 0.97863 0.0
C730 C 0.29676 0.50103 0.98949 0.0
C731 C 0.31818 0.45651 0.99681 0.0
H732 H 0.2683 0.17712 0.48924 0.0
H733 H 0.33798 0.06483 0.52772 0.0
H734 H 0.23419 0.09571 0.50568 0.0
H735 H 0.30356 0.98265 0.54465 0.0
H736 H 0.24483 0.82898 0.49125 0.0
H737 H 0.27889 0.91097 0.50716 0.0
H738 H 0.20928 0.02632 0.54396 0.0
H739 H 0.17492 0.94354 0.52756 0.0
C740 C 0.27617 0.13593 0.50232 0.0
C741 C 0.30577 0.12662 0.50678 0.0
C742 C 0.25656 0.08942 0.51203 0.0
C743 C 0.26618 0.03225 0.52617 0.0
C744 C 0.29556 0.02601 0.53356 0.0
C745 C 0.31524 0.0731 0.52404 0.0
C746 C 0.2369 0.87079 0.5038 0.0
C747 C 0.20727 0.88055 0.50776 0.0
C748 C 0.25647 0.91768 0.51319 0.0
C749 C 0.24677 0.97563 0.52648 0.0
C750 C 0.21733 0.98236 0.5335 0.0
C751 C 0.19769 0.93491 0.52431 0.0
H752 H 0.67607 0.56366 0.02582 0.0
H753 H 0.74554 0.67488 0.98622 0.0
H754 H 0.71052 0.48114 0.04239 0.0
H755 H 0.77969 0.59319 0.00242 0.0
H756 H 0.83893 0.44103 0.02579 0.0
H757 H 0.80454 0.52429 0.04158 0.0
H758 H 0.7351 0.40919 0.00432 0.0
H759 H 0.76922 0.32675 0.98888 0.0
C760 C 0.69878 0.57161 0.02181 0.0
C761 C 0.70818 0.62496 0.00437 0.0
C762 C 0.71847 0.52435 0.03113 0.0
C763 C 0.74778 0.53032 0.02343 0.0
C764 C 0.75736 0.58721 0.00902 0.0
C765 C 0.73774 0.63385 -0.00056 0.0
C766 C 0.81618 0.43258 0.02228 0.0
C767 C 0.80668 0.37812 0.00575 0.0
C768 C 0.79653 0.48028 0.03113 0.0
C769 C 0.76715 0.47365 0.02386 0.0
C770 C 0.75749 0.41573 0.01054 0.0
C771 C 0.77708 0.36862 0.00143 0.0
H772 H 0.74347 0.83012 0.51347 0.0
H773 H 0.67497 0.94485 0.47418 0.0
H774 H 0.77824 0.91128 0.49825 0.0
H775 H 0.71004 0.02687 0.45863 0.0
H776 H 0.76986 0.17861 0.51215 0.0
H777 H 0.73517 0.09708 0.49716 0.0
H778 H 0.80366 0.97986 0.45929 0.0
H779 H 0.83865 0.06226 0.4746 0.0
C780 C 0.73601 0.87191 0.50058 0.0
C781 C 0.70654 0.88182 0.4954 0.0
C782 C 0.75599 0.91823 0.49157 0.0
C783 C 0.74687 0.97583 0.47748 0.0
C784 C 0.71763 0.98307 0.46964 0.0
C785 C 0.69759 0.93612 0.47839 0.0
C786 C 0.7774 0.13638 0.49965 0.0
C787 C 0.80691 0.12614 0.49493 0.0
C788 C 0.75748 0.08983 0.49078 0.0
C789 C 0.76669 0.03168 0.47731 0.0
C790 C 0.79599 0.02408 0.46984 0.0
C791 C 0.81598 0.07126 0.47844 0.0
loop_
_geom_bond_atom_site_label_1
_geom_bond_atom_site_label_2
_geom_bond_distance
_geom_bond_site_symmetry_2
_ccdc_geom_bond_type
Co0 O2 2.143 . S
Co0 O8 2.074 . S
Co0 O11 2.093 . S
Co0 O24 2.097 . S
Co0 N41 2.151 . S
Co0 N49 2.214 . S
Co1 O2 2.160 . S
Co1 O7 2.058 . S
Co1 O17 2.057 . S
Co1 O32 2.037 . S
Co1 N36 2.145 1_554 S
Co1 N57 2.257 . S
O2 Co0 2.143 . S
O2 Co1 2.160 . S
C3 O4 1.278 . S
C3 O11 1.224 . S
O4 C3 1.278 . S
C5 O6 1.245 . S
C5 O17 1.232 . S
O6 C5 1.245 . S
O7 Co1 2.058 . S
O7 C33 1.269 . S
O8 Co0 2.074 . S
O8 C33 1.257 . S
H9 C34 0.930 . S
H10 C40 0.930 . S
O11 Co0 2.093 . S
O11 C3 1.224 . S
H12 C44 0.929 . S
H13 C46 0.930 . S
H14 C47 0.930 . S
H15 C45 0.929 . S
H16 C48 0.928 . S
O17 Co1 2.057 . S
O17 C5 1.232 . S
H18 C37 0.929 . S
H19 C38 0.929 . S
H20 C50 0.931 . S
H21 C42 0.929 . S
H22 C51 0.930 . S
H23 C43 0.931 . S
O24 Co0 2.097 . S
O24 C52 1.214 . S
H25 C53 0.929 . S
H26 C54 0.929 1_556 S
H27 C55 0.930 . S
H28 C56 0.929 . S
H29 C58 0.930 . S
H30 C35 0.930 . S
H31 C39 0.930 . S
O32 Co1 2.037 . S
O32 C52 1.234 . S
C33 O7 1.269 . S
C33 O8 1.257 . S
C34 H9 0.930 . S
C34 C37 1.388 . S
C34 C39 1.418 . S
C35 H30 0.930 . S
C35 C38 1.404 . S
C35 C39 1.353 . S
N36 Co1 2.145 1_556 S
N36 C37 1.397 . S
N36 C38 1.334 . S
C37 H18 0.929 . S
C37 C34 1.388 . S
C37 N36 1.397 . S
C38 H19 0.929 . S
C38 C35 1.404 . S
C38 N36 1.334 . S
C39 H31 0.930 . S
C39 C34 1.418 . S
C39 C35 1.353 . S
C40 H10 0.930 . S
C40 N41 1.330 . S
C40 C42 1.446 . S
N41 Co0 2.151 . S
N41 C40 1.330 . S
N41 C45 1.418 . S
C42 H21 0.929 . S
C42 C40 1.446 . S
C42 C43 1.332 . S
C43 H23 0.931 . S
C43 C42 1.332 . S
C43 C44 1.267 . S
C44 H12 0.929 . S
C44 C43 1.267 . S
C44 C45 1.251 . S
C45 H15 0.929 . S
C45 N41 1.418 . S
C45 C44 1.251 . S
C46 H13 0.930 . S
C46 C48 1.406 . S
C46 C51 1.261 . S
C47 H14 0.930 . S
C47 N49 1.325 . S
C47 C50 1.357 . S
C48 H16 0.928 . S
C48 C46 1.406 . S
C48 N49 1.261 . S
N49 Co0 2.214 . S
N49 C47 1.325 . S
N49 C48 1.261 . S
C50 H20 0.931 . S
C50 C47 1.357 . S
C50 C51 1.312 . S
C51 H22 0.930 . S
C51 C46 1.261 . S
C51 C50 1.312 . S
C52 O24 1.214 . S
C52 O32 1.234 . S
C53 H25 0.929 . S
C53 C56 1.391 . S
C53 C58 1.391 . S
C54 H26 0.929 1_554 S
C54 C55 1.390 . S
C54 N57 1.391 . S
C55 H27 0.930 . S
C55 C54 1.390 . S
C55 C56 1.392 . S
C56 H28 0.929 . S
C56 C53 1.391 . S
C56 C55 1.392 . S
N57 Co1 2.257 . S
N57 C54 1.391 . S
N57 C58 1.388 . S
C58 H29 0.930 . S
C58 C53 1.391 . S
C58 N57 1.388 . S
Co59 O61 2.143 . S
Co59 O67 2.074 . S
Co59 O70 2.093 . S
Co59 O83 2.097 . S
Co59 N100 2.151 . S
Co59 N108 2.214 . S
Co60 O61 2.160 . S
Co60 O66 2.058 . S
Co60 O76 2.057 . S
Co60 O91 2.037 . S
Co60 N95 2.145 1_554 S
Co60 N116 2.257 . S
O61 Co59 2.143 . S
O61 Co60 2.160 . S
C62 O63 1.278 . S
C62 O70 1.224 . S
O63 C62 1.278 . S
C64 O65 1.245 . S
C64 O76 1.232 . S
O65 C64 1.245 . S
O66 Co60 2.058 . S
O66 C92 1.269 . S
O67 Co59 2.074 . S
O67 C92 1.257 . S
H68 C93 0.930 . S
H69 C99 0.930 . S
O70 Co59 2.093 . S
O70 C62 1.224 . S
H71 C103 0.929 . S
H72 C105 0.930 . S
H73 C106 0.930 . S
H74 C104 0.929 . S
H75 C107 0.928 . S
O76 Co60 2.057 . S
O76 C64 1.232 . S
H77 C96 0.929 . S
H78 C97 0.929 . S
H79 C109 0.931 . S
H80 C101 0.929 . S
H81 C110 0.930 . S
H82 C102 0.931 . S
O83 Co59 2.097 . S
O83 C111 1.214 . S
H84 C112 0.929 . S
H85 C113 0.929 1_556 S
H86 C114 0.930 . S
H87 C115 0.929 . S
H88 C117 0.930 . S
H89 C94 0.930 . S
H90 C98 0.930 . S
O91 Co60 2.037 . S
O91 C111 1.234 . S
C92 O66 1.269 . S
C92 O67 1.257 . S
C93 H68 0.930 . S
C93 C96 1.388 . S
C93 C98 1.418 . S
C94 H89 0.930 . S
C94 C97 1.404 . S
C94 C98 1.353 . S
N95 Co60 2.145 1_556 S
N95 C96 1.397 . S
N95 C97 1.334 . S
C96 H77 0.929 . S
C96 C93 1.388 . S
C96 N95 1.397 . S
C97 H78 0.929 . S
C97 C94 1.404 . S
C97 N95 1.334 . S
C98 H90 0.930 . S
C98 C93 1.418 . S
C98 C94 1.353 . S
C99 H69 0.930 . S
C99 N100 1.330 . S
C99 C101 1.446 . S
N100 Co59 2.151 . S
N100 C99 1.330 . S
N100 C104 1.418 . S
C101 H80 0.929 . S
C101 C99 1.446 . S
C101 C102 1.332 . S
C102 H82 0.931 . S
C102 C101 1.332 . S
C102 C103 1.267 . S
C103 H71 0.929 . S
C103 C102 1.267 . S
C103 C104 1.251 . S
C104 H74 0.929 . S
C104 N100 1.418 . S
C104 C103 1.251 . S
C105 H72 0.930 . S
C105 C107 1.406 . S
C105 C110 1.261 . S
C106 H73 0.930 . S
C106 N108 1.325 . S
C106 C109 1.357 . S
C107 H75 0.928 . S
C107 C105 1.406 . S
C107 N108 1.261 . S
N108 Co59 2.214 . S
N108 C106 1.325 . S
N108 C107 1.261 . S
C109 H79 0.931 . S
C109 C106 1.357 . S
C109 C110 1.312 . S
C110 H81 0.930 . S
C110 C105 1.261 . S
C110 C109 1.312 . S
C111 O83 1.214 . S
C111 O91 1.234 . S
C112 H84 0.929 . S
C112 C115 1.391 . S
C112 C117 1.391 . S
C113 H85 0.929 1_554 S
C113 C114 1.390 . S
C113 N116 1.391 . S
C114 H86 0.930 . S
C114 C113 1.390 . S
C114 C115 1.392 . S
C115 H87 0.929 . S
C115 C112 1.391 . S
C115 C114 1.392 . S
N116 Co60 2.257 . S
N116 C113 1.391 . S
N116 C117 1.388 . S
C117 H88 0.930 . S
C117 C112 1.391 . S
C117 N116 1.388 . S
Co118 O120 2.143 . S
Co118 O126 2.074 . S
Co118 O129 2.093 . S
Co118 O142 2.097 . S
Co118 N159 2.151 . S
Co118 N167 2.214 . S
Co119 O120 2.160 . S
Co119 O125 2.058 . S
Co119 O135 2.057 . S
Co119 O150 2.037 . S
Co119 N154 2.145 . S
Co119 N175 2.257 . S
O120 Co118 2.143 . S
O120 Co119 2.160 . S
C121 O122 1.278 . S
C121 O129 1.224 . S
O122 C121 1.278 . S
C123 O124 1.245 . S
C123 O135 1.232 . S
O124 C123 1.245 . S
O125 Co119 2.058 . S
O125 C151 1.269 . S
O126 Co118 2.074 . S
O126 C151 1.257 . S
H127 C152 0.930 . S
H128 C158 0.930 . S
O129 Co118 2.093 . S
O129 C121 1.224 . S
H130 C162 0.929 . S
H131 C164 0.930 . S
H132 C165 0.930 . S
H133 C163 0.929 . S
H134 C166 0.928 . S
O135 Co119 2.057 . S
O135 C123 1.232 . S
H136 C155 0.929 . S
H137 C156 0.929 . S
H138 C168 0.931 . S
H139 C160 0.929 . S
H140 C169 0.930 . S
H141 C161 0.931 1_565 S
O142 Co118 2.097 . S
O142 C170 1.214 . S
H143 C171 0.929 . S
H144 C172 0.929 . S
H145 C173 0.930 . S
H146 C174 0.929 . S
H147 C176 0.930 . S
H148 C153 0.930 . S
H149 C157 0.930 . S
O150 Co119 2.037 . S
O150 C170 1.234 . S
C151 O125 1.269 . S
C151 O126 1.257 . S
C152 H127 0.930 . S
C152 C155 1.388 . S
C152 C157 1.418 . S
C153 H148 0.930 . S
C153 C156 1.404 . S
C153 C157 1.353 . S
N154 Co119 2.145 . S
N154 C155 1.397 . S
N154 C156 1.334 . S
C155 H136 0.929 . S
C155 C152 1.388 . S
C155 N154 1.397 . S
C156 H137 0.929 . S
C156 C153 1.404 . S
C156 N154 1.334 . S
C157 H149 0.930 . S
C157 C152 1.418 . S
C157 C153 1.353 . S
C158 H128 0.930 . S
C158 N159 1.330 . S
C158 C160 1.446 . S
N159 Co118 2.151 . S
N159 C158 1.330 . S
N159 C163 1.418 . S
C160 H139 0.929 . S
C160 C158 1.446 . S
C160 C161 1.332 . S
C161 H141 0.931 1_545 S
C161 C160 1.332 . S
C161 C162 1.267 . S
C162 H130 0.929 . S
C162 C161 1.267 . S
C162 C163 1.251 . S
C163 H133 0.929 . S
C163 N159 1.418 . S
C163 C162 1.251 . S
C164 H131 0.930 . S
C164 C166 1.406 . S
C164 C169 1.261 . S
C165 H132 0.930 . S
C165 N167 1.325 . S
C165 C168 1.357 . S
C166 H134 0.928 . S
C166 C164 1.406 . S
C166 N167 1.261 . S
N167 Co118 2.214 . S
N167 C165 1.325 . S
N167 C166 1.261 . S
C168 H138 0.931 . S
C168 C165 1.357 . S
C168 C169 1.312 . S
C169 H140 0.930 . S
C169 C164 1.261 . S
C169 C168 1.312 . S
C170 O142 1.214 . S
C170 O150 1.234 . S
C171 H143 0.929 . S
C171 C174 1.391 . S
C171 C176 1.391 . S
C172 H144 0.929 . S
C172 C173 1.390 . S
C172 N175 1.391 . S
C173 H145 0.930 . S
C173 C172 1.390 . S
C173 C174 1.392 . S
C174 H146 0.929 . S
C174 C171 1.391 . S
C174 C173 1.392 . S
N175 Co119 2.257 . S
N175 C172 1.391 . S
N175 C176 1.388 . S
C176 H147 0.930 . S
C176 C171 1.391 . S
C176 N175 1.388 . S
Co177 O179 2.143 . S
Co177 O185 2.074 . S
Co177 O188 2.093 . S
Co177 O201 2.097 . S
Co177 N218 2.151 . S
Co177 N226 2.214 . S
Co178 O179 2.160 . S
Co178 O184 2.058 . S
Co178 O194 2.057 . S
Co178 O209 2.037 . S
Co178 N213 2.145 . S
Co178 N234 2.257 . S
O179 Co177 2.143 . S
O179 Co178 2.160 . S
C180 O181 1.278 . S
C180 O188 1.224 . S
O181 C180 1.278 . S
C182 O183 1.245 . S
C182 O194 1.232 . S
O183 C182 1.245 . S
O184 Co178 2.058 . S
O184 C210 1.269 . S
O185 Co177 2.074 . S
O185 C210 1.257 . S
H186 C211 0.930 . S
H187 C217 0.930 . S
O188 Co177 2.093 . S
O188 C180 1.224 . S
H189 C221 0.929 . S
H190 C223 0.930 . S
H191 C224 0.930 . S
H192 C222 0.929 . S
H193 C225 0.928 . S
O194 Co178 2.057 . S
O194 C182 1.232 . S
H195 C214 0.929 . S
H196 C215 0.929 . S
H197 C227 0.931 . S
H198 C219 0.929 . S
H199 C228 0.930 . S
H200 C220 0.931 1_545 S
O201 Co177 2.097 . S
O201 C229 1.214 . S
H202 C230 0.929 . S
H203 C231 0.929 . S
H204 C232 0.930 . S
H205 C233 0.929 . S
H206 C235 0.930 . S
H207 C212 0.930 . S
H208 C216 0.930 . S
O209 Co178 2.037 . S
O209 C229 1.234 . S
C210 O184 1.269 . S
C210 O185 1.257 . S
C211 H186 0.930 . S
C211 C214 1.388 . S
C211 C216 1.418 . S
C212 H207 0.930 . S
C212 C215 1.404 . S
C212 C216 1.353 . S
N213 Co178 2.145 . S
N213 C214 1.397 . S
N213 C215 1.334 . S
C214 H195 0.929 . S
C214 C211 1.388 . S
C214 N213 1.397 . S
C215 H196 0.929 . S
C215 C212 1.404 . S
C215 N213 1.334 . S
C216 H208 0.930 . S
C216 C211 1.418 . S
C216 C212 1.353 . S
C217 H187 0.930 . S
C217 N218 1.330 . S
C217 C219 1.446 . S
N218 Co177 2.151 . S
N218 C217 1.330 . S
N218 C222 1.418 . S
C219 H198 0.929 . S
C219 C217 1.446 . S
C219 C220 1.332 . S
C220 H200 0.931 1_565 S
C220 C219 1.332 . S
C220 C221 1.267 . S
C221 H189 0.929 . S
C221 C220 1.267 . S
C221 C222 1.251 . S
C222 H192 0.929 . S
C222 N218 1.418 . S
C222 C221 1.251 . S
C223 H190 0.930 . S
C223 C225 1.406 . S
C223 C228 1.261 . S
C224 H191 0.930 . S
C224 N226 1.325 . S
C224 C227 1.357 . S
C225 H193 0.928 . S
C225 C223 1.406 . S
C225 N226 1.261 . S
N226 Co177 2.214 . S
N226 C224 1.325 . S
N226 C225 1.261 . S
C227 H197 0.931 . S
C227 C224 1.357 . S
C227 C228 1.312 . S
C228 H199 0.930 . S
C228 C223 1.261 . S
C228 C227 1.312 . S
C229 O201 1.214 . S
C229 O209 1.234 . S
C230 H202 0.929 . S
C230 C233 1.391 . S
C230 C235 1.391 . S
C231 H203 0.929 . S
C231 C232 1.390 . S
C231 N234 1.391 . S
C232 H204 0.930 . S
C232 C231 1.390 . S
C232 C233 1.392 . S
C233 H205 0.929 . S
C233 C230 1.391 . S
C233 C232 1.392 . S
N234 Co178 2.257 . S
N234 C231 1.391 . S
N234 C235 1.388 . S
C235 H206 0.930 . S
C235 C230 1.391 . S
C235 N234 1.388 . S
Co236 O238 2.143 . S
Co236 O244 2.074 . S
Co236 O247 2.093 . S
Co236 O260 2.097 . S
Co236 N277 2.151 . S
Co236 N285 2.214 . S
Co237 O238 2.160 . S
Co237 O243 2.058 . S
Co237 O253 2.057 . S
Co237 O268 2.037 . S
Co237 N272 2.145 1_556 S
Co237 N293 2.257 . S
O238 Co236 2.143 . S
O238 Co237 2.160 . S
C239 O240 1.278 . S
C239 O247 1.224 . S
O240 C239 1.278 . S
C241 O242 1.245 . S
C241 O253 1.232 . S
O242 C241 1.245 . S
O243 Co237 2.058 . S
O243 C269 1.269 . S
O244 Co236 2.074 . S
O244 C269 1.257 . S
H245 C270 0.930 . S
H246 C276 0.930 . S
O247 Co236 2.093 . S
O247 C239 1.224 . S
H248 C280 0.929 . S
H249 C282 0.930 . S
H250 C283 0.930 . S
H251 C281 0.929 . S
H252 C284 0.928 . S
O253 Co237 2.057 . S
O253 C241 1.232 . S
H254 C273 0.929 . S
H255 C274 0.929 . S
H256 C286 0.931 . S
H257 C278 0.929 . S
H258 C287 0.930 . S
H259 C279 0.931 . S
O260 Co236 2.097 . S
O260 C288 1.214 . S
H261 C289 0.929 . S
H262 C290 0.929 1_554 S
H263 C291 0.930 . S
H264 C292 0.929 . S
H265 C294 0.930 . S
H266 C271 0.930 . S
H267 C275 0.930 . S
O268 Co237 2.037 . S
O268 C288 1.234 . S
C269 O243 1.269 . S
C269 O244 1.257 . S
C270 H245 0.930 . S
C270 C273 1.388 . S
C270 C275 1.418 . S
C271 H266 0.930 . S
C271 C274 1.404 . S
C271 C275 1.353 . S
N272 Co237 2.145 1_554 S
N272 C273 1.397 . S
N272 C274 1.334 . S
C273 H254 0.929 . S
C273 C270 1.388 . S
C273 N272 1.397 . S
C274 H255 0.929 . S
C274 C271 1.404 . S
C274 N272 1.334 . S
C275 H267 0.930 . S
C275 C270 1.418 . S
C275 C271 1.353 . S
C276 H246 0.930 . S
C276 N277 1.330 . S
C276 C278 1.446 . S
N277 Co236 2.151 . S
N277 C276 1.330 . S
N277 C281 1.418 . S
C278 H257 0.929 . S
C278 C276 1.446 . S
C278 C279 1.332 . S
C279 H259 0.931 . S
C279 C278 1.332 . S
C279 C280 1.267 . S
C280 H248 0.929 . S
C280 C279 1.267 . S
C280 C281 1.251 . S
C281 H251 0.929 . S
C281 N277 1.418 . S
C281 C280 1.251 . S
C282 H249 0.930 . S
C282 C284 1.406 . S
C282 C287 1.261 . S
C283 H250 0.930 . S
C283 N285 1.325 . S
C283 C286 1.357 . S
C284 H252 0.928 . S
C284 C282 1.406 . S
C284 N285 1.261 . S
N285 Co236 2.214 . S
N285 C283 1.325 . S
N285 C284 1.261 . S
C286 H256 0.931 . S
C286 C283 1.357 . S
C286 C287 1.312 . S
C287 H258 0.930 . S
C287 C282 1.261 . S
C287 C286 1.312 . S
C288 O260 1.214 . S
C288 O268 1.234 . S
C289 H261 0.929 . S
C289 C292 1.391 . S
C289 C294 1.391 . S
C290 H262 0.929 1_556 S
C290 C291 1.390 . S
C290 N293 1.391 . S
C291 H263 0.930 . S
C291 C290 1.390 . S
C291 C292 1.392 . S
C292 H264 0.929 . S
C292 C289 1.391 . S
C292 C291 1.392 . S
N293 Co237 2.257 . S
N293 C290 1.391 . S
N293 C294 1.388 . S
C294 H265 0.930 . S
C294 C289 1.391 . S
C294 N293 1.388 . S
Co295 O297 2.143 . S
Co295 O303 2.074 . S
Co295 O306 2.093 . S
Co295 O319 2.097 . S
Co295 N336 2.151 . S
Co295 N344 2.214 . S
Co296 O297 2.160 . S
Co296 O302 2.058 . S
Co296 O312 2.057 . S
Co296 O327 2.037 . S
Co296 N331 2.145 1_556 S
Co296 N352 2.257 . S
O297 Co295 2.143 . S
O297 Co296 2.160 . S
C298 O299 1.278 . S
C298 O306 1.224 . S
O299 C298 1.278 . S
C300 O301 1.245 . S
C300 O312 1.232 . S
O301 C300 1.245 . S
O302 Co296 2.058 . S
O302 C328 1.269 . S
O303 Co295 2.074 . S
O303 C328 1.257 . S
H304 C329 0.930 . S
H305 C335 0.930 . S
O306 Co295 2.093 . S
O306 C298 1.224 . S
H307 C339 0.929 . S
H308 C341 0.930 . S
H309 C342 0.930 . S
H310 C340 0.929 . S
H311 C343 0.928 . S
O312 Co296 2.057 . S
O312 C300 1.232 . S
H313 C332 0.929 . S
H314 C333 0.929 . S
H315 C345 0.931 . S
H316 C337 0.929 . S
H317 C346 0.930 . S
H318 C338 0.931 . S
O319 Co295 2.097 . S
O319 C347 1.214 . S
H320 C348 0.929 . S
H321 C349 0.929 1_554 S
H322 C350 0.930 . S
H323 C351 0.929 . S
H324 C353 0.930 . S
H325 C330 0.930 . S
H326 C334 0.930 . S
O327 Co296 2.037 . S
O327 C347 1.234 . S
C328 O302 1.269 . S
C328 O303 1.257 . S
C329 H304 0.930 . S
C329 C332 1.388 . S
C329 C334 1.418 . S
C330 H325 0.930 . S
C330 C333 1.404 . S
C330 C334 1.353 . S
N331 Co296 2.145 1_554 S
N331 C332 1.397 . S
N331 C333 1.334 . S
C332 H313 0.929 . S
C332 C329 1.388 . S
C332 N331 1.397 . S
C333 H314 0.929 . S
C333 C330 1.404 . S
C333 N331 1.334 . S
C334 H326 0.930 . S
C334 C329 1.418 . S
C334 C330 1.353 . S
C335 H305 0.930 . S
C335 N336 1.330 . S
C335 C337 1.446 . S
N336 Co295 2.151 . S
N336 C335 1.330 . S
N336 C340 1.418 . S
C337 H316 0.929 . S
C337 C335 1.446 . S
C337 C338 1.332 . S
C338 H318 0.931 . S
C338 C337 1.332 . S
C338 C339 1.267 . S
C339 H307 0.929 . S
C339 C338 1.267 . S
C339 C340 1.251 . S
C340 H310 0.929 . S
C340 N336 1.418 . S
C340 C339 1.251 . S
C341 H308 0.930 . S
C341 C343 1.406 . S
C341 C346 1.261 . S
C342 H309 0.930 . S
C342 N344 1.325 . S
C342 C345 1.357 . S
C343 H311 0.928 . S
C343 C341 1.406 . S
C343 N344 1.261 . S
N344 Co295 2.214 . S
N344 C342 1.325 . S
N344 C343 1.261 . S
C345 H315 0.931 . S
C345 C342 1.357 . S
C345 C346 1.312 . S
C346 H317 0.930 . S
C346 C341 1.261 . S
C346 C345 1.312 . S
C347 O319 1.214 . S
C347 O327 1.234 . S
C348 H320 0.929 . S
C348 C351 1.391 . S
C348 C353 1.391 . S
C349 H321 0.929 1_556 S
C349 C350 1.390 . S
C349 N352 1.391 . S
C350 H322 0.930 . S
C350 C349 1.390 . S
C350 C351 1.392 . S
C351 H323 0.929 . S
C351 C348 1.391 . S
C351 C350 1.392 . S
N352 Co296 2.257 . S
N352 C349 1.391 . S
N352 C353 1.388 . S
C353 H324 0.930 . S
C353 C348 1.391 . S
C353 N352 1.388 . S
Co354 O356 2.143 . S
Co354 O362 2.074 . S
Co354 O365 2.093 . S
Co354 O378 2.097 . S
Co354 N395 2.151 . S
Co354 N403 2.214 . S
Co355 O356 2.160 . S
Co355 O361 2.058 . S
Co355 O371 2.057 . S
Co355 O386 2.037 . S
Co355 N390 2.145 . S
Co355 N411 2.257 . S
O356 Co354 2.143 . S
O356 Co355 2.160 . S
C357 O358 1.278 . S
C357 O365 1.224 . S
O358 C357 1.278 . S
C359 O360 1.245 . S
C359 O371 1.232 . S
O360 C359 1.245 . S
O361 Co355 2.058 . S
O361 C387 1.269 . S
O362 Co354 2.074 . S
O362 C387 1.257 . S
H363 C388 0.930 . S
H364 C394 0.930 . S
O365 Co354 2.093 . S
O365 C357 1.224 . S
H366 C398 0.929 . S
H367 C400 0.930 . S
H368 C401 0.930 . S
H369 C399 0.929 . S
H370 C402 0.928 . S
O371 Co355 2.057 . S
O371 C359 1.232 . S
H372 C391 0.929 . S
H373 C392 0.929 . S
H374 C404 0.931 . S
H375 C396 0.929 . S
H376 C405 0.930 . S
H377 C397 0.931 1_545 S
O378 Co354 2.097 . S
O378 C406 1.214 . S
H379 C407 0.929 . S
H380 C408 0.929 . S
H381 C409 0.930 . S
H382 C410 0.929 . S
H383 C412 0.930 . S
H384 C389 0.930 . S
H385 C393 0.930 . S
O386 Co355 2.037 . S
O386 C406 1.234 . S
C387 O361 1.269 . S
C387 O362 1.257 . S
C388 H363 0.930 . S
C388 C391 1.388 . S
C388 C393 1.418 . S
C389 H384 0.930 . S
C389 C392 1.404 . S
C389 C393 1.353 . S
N390 Co355 2.145 . S
N390 C391 1.397 . S
N390 C392 1.334 . S
C391 H372 0.929 . S
C391 C388 1.388 . S
C391 N390 1.397 . S
C392 H373 0.929 . S
C392 C389 1.404 . S
C392 N390 1.334 . S
C393 H385 0.930 . S
C393 C388 1.418 . S
C393 C389 1.353 . S
C394 H364 0.930 . S
C394 N395 1.330 . S
C394 C396 1.446 . S
N395 Co354 2.151 . S
N395 C394 1.330 . S
N395 C399 1.418 . S
C396 H375 0.929 . S
C396 C394 1.446 . S
C396 C397 1.332 . S
C397 H377 0.931 1_565 S
C397 C396 1.332 . S
C397 C398 1.267 . S
C398 H366 0.929 . S
C398 C397 1.267 . S
C398 C399 1.251 . S
C399 H369 0.929 . S
C399 N395 1.418 . S
C399 C398 1.251 . S
C400 H367 0.930 . S
C400 C402 1.406 . S
C400 C405 1.261 . S
C401 H368 0.930 . S
C401 N403 1.325 . S
C401 C404 1.357 . S
C402 H370 0.928 . S
C402 C400 1.406 . S
C402 N403 1.261 . S
N403 Co354 2.214 . S
N403 C401 1.325 . S
N403 C402 1.261 . S
C404 H374 0.931 . S
C404 C401 1.357 . S
C404 C405 1.312 . S
C405 H376 0.930 . S
C405 C400 1.261 . S
C405 C404 1.312 . S
C406 O378 1.214 . S
C406 O386 1.234 . S
C407 H379 0.929 . S
C407 C410 1.391 . S
C407 C412 1.391 . S
C408 H380 0.929 . S
C408 C409 1.390 . S
C408 N411 1.391 . S
C409 H381 0.930 . S
C409 C408 1.390 . S
C409 C410 1.392 . S
C410 H382 0.929 . S
C410 C407 1.391 . S
C410 C409 1.392 . S
N411 Co355 2.257 . S
N411 C408 1.391 . S
N411 C412 1.388 . S
C412 H383 0.930 . S
C412 C407 1.391 . S
C412 N411 1.388 . S
Co413 O415 2.143 . S
Co413 O421 2.074 . S
Co413 O424 2.093 . S
Co413 O437 2.097 . S
Co413 N454 2.151 . S
Co413 N462 2.214 . S
Co414 O415 2.160 . S
Co414 O420 2.058 . S
Co414 O430 2.057 . S
Co414 O445 2.037 . S
Co414 N449 2.145 . S
Co414 N470 2.257 . S
O415 Co413 2.143 . S
O415 Co414 2.160 . S
C416 O417 1.278 . S
C416 O424 1.224 . S
O417 C416 1.278 . S
C418 O419 1.245 . S
C418 O430 1.232 . S
O419 C418 1.245 . S
O420 Co414 2.058 . S
O420 C446 1.269 . S
O421 Co413 2.074 . S
O421 C446 1.257 . S
H422 C447 0.930 . S
H423 C453 0.930 . S
O424 Co413 2.093 . S
O424 C416 1.224 . S
H425 C457 0.929 . S
H426 C459 0.930 . S
H427 C460 0.930 . S
H428 C458 0.929 . S
H429 C461 0.928 . S
O430 Co414 2.057 . S
O430 C418 1.232 . S
H431 C450 0.929 . S
H432 C451 0.929 . S
H433 C463 0.931 . S
H434 C455 0.929 . S
H435 C464 0.930 . S
H436 C456 0.931 1_565 S
O437 Co413 2.097 . S
O437 C465 1.214 . S
H438 C466 0.929 . S
H439 C467 0.929 . S
H440 C468 0.930 . S
H441 C469 0.929 . S
H442 C471 0.930 . S
H443 C448 0.930 . S
H444 C452 0.930 . S
O445 Co414 2.037 . S
O445 C465 1.234 . S
C446 O420 1.269 . S
C446 O421 1.257 . S
C447 H422 0.930 . S
C447 C450 1.388 . S
C447 C452 1.418 . S
C448 H443 0.930 . S
C448 C451 1.404 . S
C448 C452 1.353 . S
N449 Co414 2.145 . S
N449 C450 1.397 . S
N449 C451 1.334 . S
C450 H431 0.929 . S
C450 C447 1.388 . S
C450 N449 1.397 . S
C451 H432 0.929 . S
C451 C448 1.404 . S
C451 N449 1.334 . S
C452 H444 0.930 . S
C452 C447 1.418 . S
C452 C448 1.353 . S
C453 H423 0.930 . S
C453 N454 1.330 . S
C453 C455 1.446 . S
N454 Co413 2.151 . S
N454 C453 1.330 . S
N454 C458 1.418 . S
C455 H434 0.929 . S
C455 C453 1.446 . S
C455 C456 1.332 . S
C456 H436 0.931 1_545 S
C456 C455 1.332 . S
C456 C457 1.267 . S
C457 H425 0.929 . S
C457 C456 1.267 . S
C457 C458 1.251 . S
C458 H428 0.929 . S
C458 N454 1.418 . S
C458 C457 1.251 . S
C459 H426 0.930 . S
C459 C461 1.406 . S
C459 C464 1.261 . S
C460 H427 0.930 . S
C460 N462 1.325 . S
C460 C463 1.357 . S
C461 H429 0.928 . S
C461 C459 1.406 . S
C461 N462 1.261 . S
N462 Co413 2.214 . S
N462 C460 1.325 . S
N462 C461 1.261 . S
C463 H433 0.931 . S
C463 C460 1.357 . S
C463 C464 1.312 . S
C464 H435 0.930 . S
C464 C459 1.261 . S
C464 C463 1.312 . S
C465 O437 1.214 . S
C465 O445 1.234 . S
C466 H438 0.929 . S
C466 C469 1.391 . S
C466 C471 1.391 . S
C467 H439 0.929 . S
C467 C468 1.390 . S
C467 N470 1.391 . S
C468 H440 0.930 . S
C468 C467 1.390 . S
C468 C469 1.392 . S
C469 H441 0.929 . S
C469 C466 1.391 . S
C469 C468 1.392 . S
N470 Co414 2.257 . S
N470 C467 1.391 . S
N470 C471 1.388 . S
C471 H442 0.930 . S
C471 C466 1.391 . S
C471 N470 1.388 . S
H472 C480 0.950 . S
H473 C485 0.950 . S
H474 C482 0.950 1_565 S
H475 C484 0.950 . S
H476 C486 0.950 . S
H477 C488 0.950 1_545 S
H478 C490 0.950 . S
H479 C491 0.950 . S
C480 H472 0.950 . S
C480 C481 1.386 . S
C480 C482 1.391 . S
C481 C480 1.386 . S
C481 C485 1.393 . S
C482 H474 0.950 1_545 S
C482 C480 1.391 . S
C482 C483 1.400 . S
C483 C482 1.400 . S
C483 C484 1.398 . S
C483 C489 1.491 1_545 S
C484 H475 0.950 . S
C484 C483 1.398 . S
C484 C485 1.391 . S
C485 H473 0.950 . S
C485 C481 1.393 . S
C485 C484 1.391 . S
C486 H476 0.950 . S
C486 C487 1.386 . S
C486 C488 1.391 . S
C487 C486 1.386 . S
C487 C491 1.393 . S
C488 H477 0.950 1_565 S
C488 C486 1.391 . S
C488 C489 1.400 . S
C489 C483 1.491 1_565 S
C489 C488 1.400 . S
C489 C490 1.398 . S
C490 H478 0.950 . S
C490 C489 1.398 . S
C490 C491 1.391 . S
C491 H479 0.950 . S
C491 C487 1.393 . S
C491 C490 1.391 . S
H492 C500 0.950 . S
H493 C505 0.950 . S
H494 C502 0.950 . S
H495 C504 0.950 . S
H496 C506 0.950 . S
H497 C508 0.950 . S
H498 C510 0.950 . S
H499 C511 0.950 . S
C500 H492 0.950 . S
C500 C501 1.386 . S
C500 C502 1.391 . S
C501 C500 1.386 . S
C501 C505 1.393 . S
C502 H494 0.950 . S
C502 C500 1.391 . S
C502 C503 1.400 . S
C503 C502 1.400 . S
C503 C504 1.398 . S
C503 C509 1.491 . S
C504 H495 0.950 . S
C504 C503 1.398 . S
C504 C505 1.391 . S
C505 H493 0.950 . S
C505 C501 1.393 . S
C505 C504 1.391 . S
C506 H496 0.950 . S
C506 C507 1.386 . S
C506 C508 1.391 . S
C507 C506 1.386 . S
C507 C511 1.393 . S
C508 H497 0.950 . S
C508 C506 1.391 . S
C508 C509 1.400 . S
C509 C503 1.491 . S
C509 C508 1.400 . S
C509 C510 1.398 . S
C510 H498 0.950 . S
C510 C509 1.398 . S
C510 C511 1.391 . S
C511 H499 0.950 . S
C511 C507 1.393 . S
C511 C510 1.391 . S
H512 C520 0.950 . S
H513 C525 0.950 . S
H514 C522 0.950 1_545 S
H515 C524 0.950 . S
H516 C526 0.950 . S
H517 C528 0.950 1_565 S
H518 C530 0.950 . S
H519 C531 0.950 . S
C520 H512 0.950 . S
C520 C521 1.386 . S
C520 C522 1.391 . S
C521 C520 1.386 . S
C521 C525 1.393 . S
C522 H514 0.950 1_565 S
C522 C520 1.391 . S
C522 C523 1.400 . S
C523 C522 1.400 . S
C523 C524 1.398 . S
C523 C529 1.491 1_565 S
C524 H515 0.950 . S
C524 C523 1.398 . S
C524 C525 1.391 . S
C525 H513 0.950 . S
C525 C521 1.393 . S
C525 C524 1.391 . S
C526 H516 0.950 . S
C526 C527 1.386 . S
C526 C528 1.391 . S
C527 C526 1.386 . S
C527 C531 1.393 . S
C528 H517 0.950 1_545 S
C528 C526 1.391 . S
C528 C529 1.400 . S
C529 C523 1.491 1_545 S
C529 C528 1.400 . S
C529 C530 1.398 . S
C530 H518 0.950 . S
C530 C529 1.398 . S
C530 C531 1.391 . S
C531 H519 0.950 . S
C531 C527 1.393 . S
C531 C530 1.391 . S
H532 C540 0.950 . S
H533 C545 0.950 . S
H534 C542 0.950 . S
H535 C544 0.950 . S
H536 C546 0.950 . S
H537 C548 0.950 . S
H538 C550 0.950 . S
H539 C551 0.950 . S
C540 H532 0.950 . S
C540 C541 1.386 . S
C540 C542 1.391 . S
C541 C540 1.386 . S
C541 C545 1.393 . S
C542 H534 0.950 . S
C542 C540 1.391 . S
C542 C543 1.400 . S
C543 C542 1.400 . S
C543 C544 1.398 . S
C543 C549 1.491 . S
C544 H535 0.950 . S
C544 C543 1.398 . S
C544 C545 1.391 . S
C545 H533 0.950 . S
C545 C541 1.393 . S
C545 C544 1.391 . S
C546 H536 0.950 . S
C546 C547 1.386 . S
C546 C548 1.391 . S
C547 C546 1.386 . S
C547 C551 1.393 . S
C548 H537 0.950 . S
C548 C546 1.391 . S
C548 C549 1.400 . S
C549 C543 1.491 . S
C549 C548 1.400 . S
C549 C550 1.398 . S
C550 H538 0.950 . S
C550 C549 1.398 . S
C550 C551 1.391 . S
C551 H539 0.950 . S
C551 C547 1.393 . S
C551 C550 1.391 . S
H552 C560 0.950 . S
H553 C565 0.950 . S
H554 C562 0.950 . S
H555 C564 0.950 . S
H556 C566 0.950 . S
H557 C568 0.950 . S
H558 C570 0.950 . S
H559 C571 0.950 . S
C560 H552 0.950 . S
C560 C561 1.386 . S
C560 C562 1.391 . S
C561 C560 1.386 . S
C561 C565 1.393 . S
C562 H554 0.950 . S
C562 C560 1.391 . S
C562 C563 1.400 . S
C563 C562 1.400 . S
C563 C564 1.398 . S
C563 C569 1.491 . S
C564 H555 0.950 . S
C564 C563 1.398 . S
C564 C565 1.391 . S
C565 H553 0.950 . S
C565 C561 1.393 . S
C565 C564 1.391 . S
C566 H556 0.950 . S
C566 C567 1.386 . S
C566 C568 1.391 . S
C567 C566 1.386 . S
C567 C571 1.393 . S
C568 H557 0.950 . S
C568 C566 1.391 . S
C568 C569 1.400 . S
C569 C563 1.491 . S
C569 C568 1.400 . S
C569 C570 1.398 . S
C570 H558 0.950 . S
C570 C569 1.398 . S
C570 C571 1.391 . S
C571 H559 0.950 . S
C571 C567 1.393 . S
C571 C570 1.391 . S
H572 C580 0.950 . S
H573 C585 0.950 . S
H574 C582 0.950 . S
H575 C584 0.950 . S
H576 C586 0.950 . S
H577 C588 0.950 . S
H578 C590 0.950 . S
H579 C591 0.950 . S
C580 H572 0.950 . S
C580 C581 1.386 . S
C580 C582 1.391 . S
C581 C580 1.386 . S
C581 C585 1.393 . S
C582 H574 0.950 . S
C582 C580 1.391 . S
C582 C583 1.400 . S
C583 C582 1.400 . S
C583 C584 1.398 . S
C583 C589 1.491 . S
C584 H575 0.950 . S
C584 C583 1.398 . S
C584 C585 1.391 . S
C585 H573 0.950 . S
C585 C581 1.393 . S
C585 C584 1.391 . S
C586 H576 0.950 . S
C586 C587 1.386 . S
C586 C588 1.391 . S
C587 C586 1.386 . S
C587 C591 1.393 . S
C588 H577 0.950 . S
C588 C586 1.391 . S
C588 C589 1.400 . S
C589 C583 1.491 . S
C589 C588 1.400 . S
C589 C590 1.398 . S
C590 H578 0.950 . S
C590 C589 1.398 . S
C590 C591 1.391 . S
C591 H579 0.950 . S
C591 C587 1.393 . S
C591 C590 1.391 . S
H592 C600 0.950 . S
H593 C605 0.950 . S
H594 C602 0.950 . S
H595 C604 0.950 . S
H596 C606 0.950 . S
H597 C608 0.950 . S
H598 C610 0.950 . S
H599 C611 0.950 . S
C600 H592 0.950 . S
C600 C601 1.386 . S
C600 C602 1.391 . S
C601 C600 1.386 . S
C601 C605 1.393 . S
C602 H594 0.950 . S
C602 C600 1.391 . S
C602 C603 1.400 . S
C603 C602 1.400 . S
C603 C604 1.398 . S
C603 C609 1.491 . S
C604 H595 0.950 . S
C604 C603 1.398 . S
C604 C605 1.391 . S
C605 H593 0.950 . S
C605 C601 1.393 . S
C605 C604 1.391 . S
C606 H596 0.950 . S
C606 C607 1.386 . S
C606 C608 1.391 . S
C607 C606 1.386 . S
C607 C611 1.393 . S
C608 H597 0.950 . S
C608 C606 1.391 . S
C608 C609 1.400 . S
C609 C603 1.491 . S
C609 C608 1.400 . S
C609 C610 1.398 . S
C610 H598 0.950 . S
C610 C609 1.398 . S
C610 C611 1.391 . S
C611 H599 0.950 . S
C611 C607 1.393 . S
C611 C610 1.391 . S
H612 C620 0.950 . S
H613 C625 0.950 . S
H614 C622 0.950 . S
H615 C624 0.950 . S
H616 C626 0.950 . S
H617 C628 0.950 . S
H618 C630 0.950 . S
H619 C631 0.950 . S
C620 H612 0.950 . S
C620 C621 1.386 . S
C620 C622 1.391 . S
C621 C620 1.386 . S
C621 C625 1.393 . S
C622 H614 0.950 . S
C622 C620 1.391 . S
C622 C623 1.400 . S
C623 C622 1.400 . S
C623 C624 1.398 . S
C623 C629 1.491 . S
C624 H615 0.950 . S
C624 C623 1.398 . S
C624 C625 1.391 . S
C625 H613 0.950 . S
C625 C621 1.393 . S
C625 C624 1.391 . S
C626 H616 0.950 . S
C626 C627 1.386 . S
C626 C628 1.391 . S
C627 C626 1.386 . S
C627 C631 1.393 . S
C628 H617 0.950 . S
C628 C626 1.391 . S
C628 C629 1.400 . S
C629 C623 1.491 . S
C629 C628 1.400 . S
C629 C630 1.398 . S
C630 H618 0.950 . S
C630 C629 1.398 . S
C630 C631 1.391 . S
C631 H619 0.950 . S
C631 C627 1.393 . S
C631 C630 1.391 . S
H632 C640 0.950 . S
H633 C645 0.950 . S
H634 C642 0.950 . S
H635 C644 0.950 . S
H636 C646 0.950 . S
H637 C648 0.950 . S
H638 C650 0.950 . S
H639 C651 0.950 . S
C640 H632 0.950 . S
C640 C641 1.386 . S
C640 C642 1.391 . S
C641 C640 1.386 . S
C641 C645 1.393 1_554 S
C642 H634 0.950 . S
C642 C640 1.391 . S
C642 C643 1.400 . S
C643 C642 1.400 . S
C643 C644 1.398 1_554 S
C643 C649 1.491 1_554 S
C644 H635 0.950 . S
C644 C643 1.398 1_556 S
C644 C645 1.391 . S
C645 H633 0.950 . S
C645 C641 1.393 1_556 S
C645 C644 1.391 . S
C646 H636 0.950 . S
C646 C647 1.386 . S
C646 C648 1.391 . S
C647 C646 1.386 . S
C647 C651 1.393 1_556 S
C648 H637 0.950 . S
C648 C646 1.391 . S
C648 C649 1.400 . S
C649 C643 1.491 1_556 S
C649 C648 1.400 . S
C649 C650 1.398 1_556 S
C650 H638 0.950 . S
C650 C649 1.398 1_554 S
C650 C651 1.391 . S
C651 H639 0.950 . S
C651 C647 1.393 1_554 S
C651 C650 1.391 . S
H652 C660 0.950 . S
H653 C665 0.950 . S
H654 C662 0.950 . S
H655 C664 0.950 1_655 S
H656 C666 0.950 . S
H657 C668 0.950 . S
H658 C670 0.950 1_455 S
H659 C671 0.950 . S
C660 H652 0.950 . S
C660 C661 1.386 . S
C660 C662 1.391 . S
C661 C660 1.386 . S
C661 C665 1.393 1_554 S
C662 H654 0.950 . S
C662 C660 1.391 . S
C662 C663 1.400 . S
C663 C662 1.400 . S
C663 C664 1.398 1_554 S
C663 C669 1.491 1_454 S
C664 H655 0.950 1_455 S
C664 C663 1.398 1_556 S
C664 C665 1.391 . S
C665 H653 0.950 . S
C665 C661 1.393 1_556 S
C665 C664 1.391 . S
C666 H656 0.950 . S
C666 C667 1.386 . S
C666 C668 1.391 . S
C667 C666 1.386 . S
C667 C671 1.393 1_556 S
C668 H657 0.950 . S
C668 C666 1.391 . S
C668 C669 1.400 . S
C669 C663 1.491 1_656 S
C669 C668 1.400 . S
C669 C670 1.398 1_556 S
C670 H658 0.950 1_655 S
C670 C669 1.398 1_554 S
C670 C671 1.391 . S
C671 H659 0.950 . S
C671 C667 1.393 1_554 S
C671 C670 1.391 . S
H672 C680 0.950 . S
H673 C685 0.950 . S
H674 C682 0.950 1_545 S
H675 C684 0.950 . S
H676 C686 0.950 . S
H677 C688 0.950 1_565 S
H678 C690 0.950 . S
H679 C691 0.950 . S
C680 H672 0.950 . S
C680 C681 1.386 . S
C680 C682 1.391 . S
C681 C680 1.386 . S
C681 C685 1.393 . S
C682 H674 0.950 1_565 S
C682 C680 1.391 . S
C682 C683 1.400 . S
C683 C682 1.400 . S
C683 C684 1.398 . S
C683 C689 1.491 1_565 S
C684 H675 0.950 . S
C684 C683 1.398 . S
C684 C685 1.391 . S
C685 H673 0.950 . S
C685 C681 1.393 . S
C685 C684 1.391 . S
C686 H676 0.950 . S
C686 C687 1.386 . S
C686 C688 1.391 . S
C687 C686 1.386 . S
C687 C691 1.393 . S
C688 H677 0.950 1_545 S
C688 C686 1.391 . S
C688 C689 1.400 . S
C689 C683 1.491 1_545 S
C689 C688 1.400 . S
C689 C690 1.398 . S
C690 H678 0.950 . S
C690 C689 1.398 . S
C690 C691 1.391 . S
C691 H679 0.950 . S
C691 C687 1.393 . S
C691 C690 1.391 . S
H692 C700 0.950 . S
H693 C705 0.950 . S
H694 C702 0.950 1_565 S
H695 C704 0.950 1_455 S
H696 C706 0.950 . S
H697 C708 0.950 1_545 S
H698 C710 0.950 1_655 S
H699 C711 0.950 . S
C700 H692 0.950 . S
C700 C701 1.386 . S
C700 C702 1.391 . S
C701 C700 1.386 . S
C701 C705 1.393 . S
C702 H694 0.950 1_545 S
C702 C700 1.391 . S
C702 C703 1.400 . S
C703 C702 1.400 . S
C703 C704 1.398 . S
C703 C709 1.491 1_645 S
C704 H695 0.950 1_655 S
C704 C703 1.398 . S
C704 C705 1.391 . S
C705 H693 0.950 . S
C705 C701 1.393 . S
C705 C704 1.391 . S
C706 H696 0.950 . S
C706 C707 1.386 . S
C706 C708 1.391 . S
C707 C706 1.386 . S
C707 C711 1.393 . S
C708 H697 0.950 1_565 S
C708 C706 1.391 . S
C708 C709 1.400 . S
C709 C703 1.491 1_465 S
C709 C708 1.400 . S
C709 C710 1.398 . S
C710 H698 0.950 1_455 S
C710 C709 1.398 . S
C710 C711 1.391 . S
C711 H699 0.950 . S
C711 C707 1.393 . S
C711 C710 1.391 . S
H712 C720 0.950 . S
H713 C725 0.950 1_556 S
H714 C722 0.950 . S
H715 C724 0.950 1_556 S
H716 C726 0.939 1_556 S
H717 C728 0.950 1_556 S
H718 C730 0.950 . S
H719 C731 0.950 . S
C720 H712 0.950 . S
C720 C721 1.386 . S
C720 C722 1.391 . S
C721 C720 1.386 . S
C721 C725 1.393 . S
C722 H714 0.950 . S
C722 C720 1.391 . S
C722 C723 1.400 . S
C723 C722 1.400 . S
C723 C724 1.398 . S
C723 C729 1.491 . S
C724 H715 0.950 1_554 S
C724 C723 1.398 . S
C724 C725 1.391 . S
C725 H713 0.950 1_554 S
C725 C721 1.393 . S
C725 C724 1.391 . S
C726 H716 0.939 1_554 S
C726 C727 1.396 . S
C726 C728 1.392 . S
C727 C726 1.396 . S
C727 C731 1.393 . S
C728 H717 0.950 1_554 S
C728 C726 1.392 . S
C728 C729 1.400 . S
C729 C723 1.491 . S
C729 C728 1.400 . S
C729 C730 1.398 . S
C730 H718 0.950 . S
C730 C729 1.398 . S
C730 C731 1.391 . S
C731 H719 0.950 . S
C731 C727 1.393 . S
C731 C730 1.391 . S
H732 C740 0.950 . S
H733 C745 0.950 . S
H734 C742 0.950 . S
H735 C744 0.950 . S
H736 C746 0.950 . S
H737 C748 0.950 . S
H738 C750 0.950 . S
H739 C751 0.950 . S
C740 H732 0.950 . S
C740 C741 1.386 . S
C740 C742 1.391 . S
C741 C740 1.386 . S
C741 C745 1.393 . S
C742 H734 0.950 . S
C742 C740 1.391 . S
C742 C743 1.400 . S
C743 C742 1.400 . S
C743 C744 1.398 . S
C743 C749 1.491 1_545 S
C744 H735 0.950 . S
C744 C743 1.398 . S
C744 C745 1.391 . S
C745 H733 0.950 . S
C745 C741 1.393 . S
C745 C744 1.391 . S
C746 H736 0.950 . S
C746 C747 1.386 . S
C746 C748 1.391 . S
C747 C746 1.386 . S
C747 C751 1.393 . S
C748 H737 0.950 . S
C748 C746 1.391 . S
C748 C749 1.400 . S
C749 C743 1.491 1_565 S
C749 C748 1.400 . S
C749 C750 1.398 . S
C750 H738 0.950 . S
C750 C749 1.398 . S
C750 C751 1.391 . S
C751 H739 0.950 . S
C751 C747 1.393 . S
C751 C750 1.391 . S
H752 C760 0.950 . S
H753 C765 0.950 . S
H754 C762 0.950 . S
H755 C764 0.950 . S
H756 C766 0.950 . S
H757 C768 0.950 . S
H758 C770 0.950 . S
H759 C771 0.950 . S
C760 H752 0.950 . S
C760 C761 1.386 1_554 S
C760 C762 1.391 . S
C761 C760 1.386 1_556 S
C761 C765 1.393 . S
C762 H754 0.950 . S
C762 C760 1.391 . S
C762 C763 1.400 1_554 S
C763 C762 1.400 1_556 S
C763 C764 1.398 . S
C763 C769 1.491 . S
C764 H755 0.950 . S
C764 C763 1.398 . S
C764 C765 1.391 . S
C765 H753 0.950 . S
C765 C761 1.393 . S
C765 C764 1.391 . S
C766 H756 0.950 . S
C766 C767 1.386 . S
C766 C768 1.391 . S
C767 C766 1.386 . S
C767 C771 1.393 1_556 S
C768 H757 0.950 . S
C768 C766 1.391 . S
C768 C769 1.400 . S
C769 C763 1.491 . S
C769 C768 1.400 . S
C769 C770 1.398 1_556 S
C770 H758 0.950 . S
C770 C769 1.398 1_554 S
C770 C771 1.391 . S
C771 H759 0.950 . S
C771 C767 1.393 1_554 S
C771 C770 1.391 . S
H772 C780 0.950 . S
H773 C785 0.950 . S
H774 C782 0.950 . S
H775 C784 0.950 . S
H776 C786 0.950 . S
H777 C788 0.950 . S
H778 C790 0.950 . S
H779 C791 0.950 . S
C780 H772 0.950 . S
C780 C781 1.386 . S
C780 C782 1.391 . S
C781 C780 1.386 . S
C781 C785 1.393 . S
C782 H774 0.950 . S
C782 C780 1.391 . S
C782 C783 1.400 . S
C783 C782 1.400 . S
C783 C784 1.398 . S
C783 C789 1.491 1_565 S
C784 H775 0.950 . S
C784 C783 1.398 . S
C784 C785 1.391 . S
C785 H773 0.950 . S
C785 C781 1.393 . S
C785 C784 1.391 . S
C786 H776 0.950 . S
C786 C787 1.386 . S
C786 C788 1.391 . S
C787 C786 1.386 . S
C787 C791 1.393 . S
C788 H777 0.950 . S
C788 C786 1.391 . S
C788 C789 1.400 . S
C789 C783 1.491 1_545 S
C789 C788 1.400 . S
C789 C790 1.398 . S
C790 H778 0.950 . S
C790 C789 1.398 . S
C790 C791 1.391 . S
C791 H779 0.950 . S
C791 C787 1.393 . S
C791 C790 1.391 . S
C481 C52 1.664 . S
C487 C111 1.673 . S
C501 C229 1.674 . S
C507 C170 1.673 . S
C521 C288 1.673 . S
C527 C347 1.664 . S
C541 C406 1.667 . S
C547 C465 1.676 . S
C561 C3 1.833 . S
C567 C121 1.842 . S
C581 C180 1.835 . S
C587 C62 1.838 . S
C601 C239 1.849 . S
C607 C357 1.843 . S
C621 C416 1.840 . S
C627 C298 1.851 . S
C641 C5 1.300 . S
C647 C241 1.300 . S
C661 C64 1.291 . S
C667 C300 1.291 . S
C681 C359 1.289 . S
C687 C123 1.289 . S
C701 C418 1.299 . S
C707 C182 1.299 . S
C721 C92 1.387 . S
C727 C33 1.405 . S
C741 C151 1.395 . S
C747 C210 1.397 . S
C761 C269 1.391 . S
C767 C328 1.401 . S
C781 C387 1.401 . S
C787 C446 1.393 . S
