# Generated by pormake.
# Topology ukf, (4)-cn, num edge types: 1
# Building blocks:
#     Node 0, Type 0, BuildingBlock: CEKHIL_clean_sbu_0, # of connection points: 4
#     Node 1, Type 0, BuildingBlock: CEKHIL_clean_sbu_0, # of connection points: 4
#     Node 2, Type 0, BuildingBlock: CEKHIL_clean_sbu_0, # of connection points: 4
#     Node 3, Type 0, BuildingBlock: CEKHIL_clean_sbu_0, # of connection points: 4
#     Node 4, Type 0, BuildingBlock: CEKHIL_clean_sbu_0, # of connection points: 4
#     Node 5, Type 0, BuildingBlock: CEKHIL_clean_sbu_0, # of connection points: 4
#     Node 6, Type 0, BuildingBlock: CEKHIL_clean_sbu_0, # of connection points: 4
#     Node 7, Type 0, BuildingBlock: CEKHIL_clean_sbu_0, # of connection points: 4
#     Node 8, Type 0, BuildingBlock: CEKHIL_clean_sbu_0, # of connection points: 4
#     Node 9, Type 0, BuildingBlock: CEKHIL_clean_sbu_0, # of connection points: 4
#     Node 10, Type 0, BuildingBlock: CEKHIL_clean_sbu_0, # of connection points: 4
#     Node 11, Type 0, BuildingBlock: CEKHIL_clean_sbu_0, # of connection points: 4
#     Edge 12, Type (0, 0), BuildingBlock: OJICUG_clean_linker_0, # of connection points: 2
#     Edge 13, Type (0, 0), BuildingBlock: OJICUG_clean_linker_0, # of connection points: 2
#     Edge 14, Type (0, 0), BuildingBlock: OJICUG_clean_linker_0, # of connection points: 2
#     Edge 15, Type (0, 0), BuildingBlock: OJICUG_clean_linker_0, # of connection points: 2
#     Edge 16, Type (0, 0), BuildingBlock: OJICUG_clean_linker_0, # of connection points: 2
#     Edge 17, Type (0, 0), BuildingBlock: OJICUG_clean_linker_0, # of connection points: 2
#     Edge 18, Type (0, 0), BuildingBlock: OJICUG_clean_linker_0, # of connection points: 2
#     Edge 19, Type (0, 0), BuildingBlock: OJICUG_clean_linker_0, # of connection points: 2
#     Edge 20, Type (0, 0), BuildingBlock: OJICUG_clean_linker_0, # of connection points: 2
#     Edge 21, Type (0, 0), BuildingBlock: OJICUG_clean_linker_0, # of connection points: 2
#     Edge 22, Type (0, 0), BuildingBlock: OJICUG_clean_linker_0, # of connection points: 2
#     Edge 23, Type (0, 0), BuildingBlock: OJICUG_clean_linker_0, # of connection points: 2
#     Edge 24, Type (0, 0), BuildingBlock: OJICUG_clean_linker_0, # of connection points: 2
#     Edge 25, Type (0, 0), BuildingBlock: OJICUG_clean_linker_0, # of connection points: 2
#     Edge 26, Type (0, 0), BuildingBlock: OJICUG_clean_linker_0, # of connection points: 2
#     Edge 27, Type (0, 0), BuildingBlock: OJICUG_clean_linker_0, # of connection points: 2
#     Edge 28, Type (0, 0), BuildingBlock: OJICUG_clean_linker_0, # of connection points: 2
#     Edge 29, Type (0, 0), BuildingBlock: OJICUG_clean_linker_0, # of connection points: 2
#     Edge 30, Type (0, 0), BuildingBlock: OJICUG_clean_linker_0, # of connection points: 2
#     Edge 31, Type (0, 0), BuildingBlock: OJICUG_clean_linker_0, # of connection points: 2
#     Edge 32, Type (0, 0), BuildingBlock: OJICUG_clean_linker_0, # of connection points: 2
#     Edge 33, Type (0, 0), BuildingBlock: OJICUG_clean_linker_0, # of connection points: 2
#     Edge 34, Type (0, 0), BuildingBlock: OJICUG_clean_linker_0, # of connection points: 2
#     Edge 35, Type (0, 0), BuildingBlock: OJICUG_clean_linker_0, # of connection points: 2
# Relax obj value: 0.103
# Max RMSD: 0.082
# Mean RMSD: 0.082
data_MOF--net-ukf--node1-CEKHIL_clean_sbu_0--edge1-OJICUG_clean_linker_0
_symmetry_space_group_name_H-M    P1
_symmetry_Int_Tables_number       1
_symmetry_cell_setting            triclinic
loop_
_symmetry_equiv_pos_as_xyz
'x, y, z'
_cell_length_a     23.487383
_cell_length_b     23.521859
_cell_length_c     47.113177
_cell_angle_alpha  89.966236
_cell_angle_beta   90.027736
_cell_angle_gamma 119.87026
loop_
_atom_site_label
_atom_site_type_symbol
_atom_site_fract_x
_atom_site_fract_y
_atom_site_fract_z
_atom_type_partial_charge
Co0 Co 0.45485 0.26593 0.03457 0.0
O1 O 0.51579 0.35291 0.04827 0.0
O2 O 0.41946 0.32566 0.02991 0.0
C3 C 0.53305 0.25828 0.01058 0.0
O4 O 0.38135 0.17936 0.01718 0.0
Co5 Co 0.48225 0.15136 0.05042 0.0
O6 O 0.40605 0.0994 0.02594 0.0
C7 C 0.41537 0.19508 0.091 0.0
C8 C 0.47533 0.37162 0.04004 0.0
C9 C 0.36895 0.11919 0.01551 0.0
O10 O 0.41514 0.23704 0.07342 0.0
O11 O 0.44303 0.16104 0.08609 0.0
O12 O 0.50349 0.28658 -0.00107 0.0
O13 O 0.51695 0.23891 0.03629 0.0
Co14 Co 0.19807 0.44682 0.36816 0.0
O15 O 0.1719 0.50807 0.38153 0.0
O16 O 0.10292 0.41108 0.36393 0.0
C17 C 0.28307 0.52392 0.34353 0.0
O18 O 0.21106 0.37286 0.35119 0.0
Co19 Co 0.34042 0.47458 0.38364 0.0
O20 O 0.31584 0.39757 0.35968 0.0
C21 C 0.23124 0.41007 0.42491 0.0
C22 C 0.11263 0.46715 0.37372 0.0
C23 C 0.25883 0.3603 0.34953 0.0
O24 O 0.18849 0.40867 0.40729 0.0
O25 O 0.29278 0.43767 0.41977 0.0
O26 O 0.225 0.49412 0.33216 0.0
O27 O 0.287 0.50875 0.36933 0.0
Co28 Co 0.76013 0.19192 0.70185 0.0
O29 O 0.6727 0.16601 0.71519 0.0
O30 O 0.70083 0.09695 0.69758 0.0
C31 C 0.76793 0.27703 0.67726 0.0
O32 O 0.84708 0.20462 0.68489 0.0
Co33 Co 0.8745 0.33406 0.71721 0.0
O34 O 0.92689 0.30923 0.69324 0.0
C35 C 0.83019 0.22494 0.75851 0.0
C36 C 0.65445 0.10681 0.70734 0.0
C37 C 0.90729 0.25222 0.68317 0.0
O38 O 0.78869 0.18222 0.741 0.0
O39 O 0.86403 0.28634 0.75329 0.0
O40 O 0.73978 0.2191 0.66584 0.0
O41 O 0.78699 0.28076 0.70304 0.0
Co42 Co 0.58139 0.75696 0.0339 0.0
O43 O 0.51932 0.66982 0.0471 0.0
O44 O 0.61632 0.69678 0.02962 0.0
C45 C 0.50472 0.76609 0.00932 0.0
O46 O 0.65611 0.84364 0.01713 0.0
Co47 Co 0.55456 0.87199 0.04961 0.0
O48 O 0.63178 0.92393 0.02568 0.0
C49 C 0.61796 0.82565 0.09082 0.0
C50 C 0.55993 0.65091 0.03936 0.0
C51 C 0.66898 0.90398 0.01555 0.0
O52 O 0.6193 0.78453 0.07311 0.0
O53 O 0.5908 0.86009 0.08573 0.0
O54 O 0.53423 0.73758 -0.00215 0.0
O55 O 0.51997 0.78476 0.03514 0.0
Co56 Co 0.83041 0.57005 0.36744 0.0
O57 O 0.85634 0.50861 0.38086 0.0
O58 O 0.92556 0.60561 0.36332 0.0
C59 C 0.74535 0.49311 0.34278 0.0
O60 O 0.81768 0.6442 0.35044 0.0
Co61 Co 0.68813 0.54257 0.38283 0.0
O62 O 0.71292 0.61963 0.35884 0.0
C63 C 0.79717 0.60646 0.4242 0.0
C64 C 0.91569 0.5495 0.37316 0.0
C65 C 0.76998 0.65686 0.34873 0.0
O66 O 0.83996 0.60806 0.40657 0.0
O67 O 0.73564 0.57893 0.41904 0.0
O68 O 0.80344 0.52279 0.33143 0.0
O69 O 0.74147 0.50833 0.36856 0.0
Co70 Co 0.26966 0.82604 0.70098 0.0
O71 O 0.35694 0.85182 0.71449 0.0
O72 O 0.32925 0.92093 0.69652 0.0
C73 C 0.26151 0.74042 0.67674 0.0
O74 O 0.18284 0.81335 0.68381 0.0
Co75 Co 0.155 0.68448 0.71684 0.0
O76 O 0.10282 0.709 0.69253 0.0
C77 C 0.19991 0.79433 0.7577 0.0
C78 C 0.37542 0.911 0.70654 0.0
C79 C 0.12258 0.76581 0.68217 0.0
O80 O 0.2412 0.83655 0.73998 0.0
O81 O 0.16589 0.73281 0.75277 0.0
O82 O 0.28993 0.7982 0.66516 0.0
O83 O 0.24247 0.73714 0.7025 0.0
Co84 Co 0.76021 0.5707 0.59805 0.0
O85 O 0.67282 0.5091 0.58488 0.0
O86 O 0.70042 0.6061 0.60239 0.0
C87 C 0.76893 0.49391 0.62265 0.0
O88 O 0.84715 0.64499 0.61482 0.0
Co89 Co 0.87496 0.54335 0.5823 0.0
O90 O 0.92736 0.62051 0.60616 0.0
C91 C 0.82896 0.60701 0.5411 0.0
C92 C 0.65424 0.5499 0.59268 0.0
C93 C 0.90754 0.65772 0.61636 0.0
O94 O 0.78793 0.60855 0.55884 0.0
O95 O 0.86321 0.57962 0.54616 0.0
O96 O 0.74061 0.52364 0.63409 0.0
O97 O 0.78763 0.50899 0.59681 0.0
Co98 Co 0.20114 0.75705 0.93116 0.0
O99 O 0.17525 0.66976 0.91784 0.0
O100 O 0.10614 0.69749 0.93579 0.0
C101 C 0.28704 0.76539 0.95537 0.0
O102 O 0.21405 0.84399 0.94813 0.0
Co103 Co 0.34285 0.87131 0.91505 0.0
O104 O 0.31851 0.92373 0.93922 0.0
C105 C 0.23245 0.82627 0.87433 0.0
C106 C 0.11606 0.65129 0.92589 0.0
C107 C 0.26171 0.90418 0.94962 0.0
O108 O 0.1903 0.78508 0.8921 0.0
O109 O 0.29409 0.86028 0.87919 0.0
O110 O 0.22926 0.73717 0.96701 0.0
O111 O 0.29016 0.78414 0.92957 0.0
Co112 Co 0.45153 0.19159 0.26405 0.0
O113 O 0.51269 0.16554 0.25034 0.0
O114 O 0.41606 0.09665 0.26838 0.0
C115 C 0.52923 0.27674 0.28836 0.0
O116 O 0.37776 0.2045 0.28143 0.0
Co117 Co 0.4786 0.33351 0.24862 0.0
O118 O 0.40228 0.30912 0.27308 0.0
C119 C 0.413 0.2241 0.20758 0.0
C120 C 0.47201 0.1064 0.25831 0.0
C121 C 0.36523 0.25221 0.2833 0.0
O122 O 0.41234 0.18161 0.22511 0.0
O123 O 0.44049 0.28555 0.21268 0.0
O124 O 0.49977 0.21885 0.29982 0.0
O125 O 0.5134 0.28044 0.26264 0.0
Co126 Co 0.26894 0.44569 0.59853 0.0
O127 O 0.35611 0.50717 0.5851 0.0
O128 O 0.32887 0.41048 0.60291 0.0
C129 C 0.26039 0.5228 0.62292 0.0
O130 O 0.18233 0.37158 0.61562 0.0
Co131 Co 0.15374 0.47246 0.58285 0.0
O132 O 0.10188 0.39581 0.60707 0.0
C133 C 0.1994 0.40842 0.54175 0.0
C134 C 0.37487 0.46654 0.59299 0.0
C135 C 0.12196 0.35882 0.61732 0.0
O136 O 0.24071 0.4072 0.55946 0.0
O137 O 0.1651 0.43574 0.54679 0.0
O138 O 0.28897 0.49336 0.63442 0.0
O139 O 0.24133 0.50724 0.59715 0.0
Co140 Co 0.83584 0.26665 0.9321 0.0
O141 O 0.86127 0.35378 0.91866 0.0
O142 O 0.93099 0.32627 0.93615 0.0
C143 C 0.75073 0.2588 0.9568 0.0
O144 O 0.82363 0.17996 0.94908 0.0
Co145 Co 0.69337 0.1521 0.91705 0.0
O146 O 0.71879 0.10008 0.94096 0.0
C147 C 0.80218 0.19648 0.87551 0.0
C148 C 0.92072 0.37234 0.92635 0.0
C149 C 0.77606 0.11978 0.95087 0.0
O150 O 0.84516 0.23799 0.89295 0.0
O151 O 0.74075 0.16265 0.88087 0.0
O152 O 0.80883 0.28705 0.96815 0.0
O153 O 0.74686 0.23956 0.93106 0.0
Co154 Co 0.57582 0.82516 0.26417 0.0
O155 O 0.51445 0.85111 0.25061 0.0
O156 O 0.61136 0.92015 0.26837 0.0
C157 C 0.49854 0.74015 0.28871 0.0
O158 O 0.64985 0.81232 0.28133 0.0
Co159 Co 0.5483 0.68309 0.24874 0.0
O160 O 0.62527 0.70775 0.27286 0.0
C161 C 0.61358 0.79237 0.20761 0.0
C162 C 0.55525 0.91032 0.25843 0.0
C163 C 0.66248 0.76466 0.28303 0.0
O164 O 0.61447 0.83491 0.22515 0.0
O165 O 0.58599 0.7309 0.21272 0.0
O166 O 0.52813 0.79812 0.30009 0.0
O167 O 0.51396 0.73634 0.26295 0.0
C168 C 0.28218 0.01785 0.95307 0.0
C169 C 0.25554 0.95507 0.96547 0.0
H170 H 0.33857 0.12176 0.95988 0.0
C171 C 0.24739 0.94933 -0.00504 0.0
H172 H 0.28926 0.02354 0.9303 0.0
C173 C 0.27559 1.00583 0.01189 0.0
C174 C 0.31211 0.06857 -0.00048 0.0
H175 H 0.22787 0.90187 0.00509 0.0
H176 H 0.27652 1.00009 0.03468 0.0
C177 C 0.31031 0.07434 0.97 0.0
C178 C 0.27944 0.26712 0.346 0.0
C179 C 0.25244 0.30317 0.33372 0.0
H180 H 0.33586 0.21945 0.33894 0.0
C181 C 0.24358 0.30048 0.30426 0.0
H182 H 0.28705 0.26874 0.36874 0.0
C183 C 0.27151 0.27199 0.28721 0.0
C184 C 0.30843 0.24587 0.29943 0.0
H185 H 0.22374 0.32835 0.29422 0.0
H186 H 0.27199 0.27848 0.26442 0.0
C187 C 0.30726 0.23853 0.32894 0.0
C188 C 0.02095 0.27228 0.67978 0.0
C189 C 0.95807 0.24562 0.66741 0.0
H190 H 0.12497 0.3286 0.67289 0.0
C191 C 0.95221 0.23716 0.63794 0.0
H192 H 0.02672 0.27959 0.70254 0.0
C193 C 1.00873 0.2652 0.62097 0.0
C194 C 0.07156 0.30186 0.6333 0.0
H195 H 0.90465 0.21759 0.62783 0.0
H196 H 1.00291 0.26599 0.59818 0.0
C197 C 0.07746 0.30024 0.66281 0.0
C198 C 0.72867 0.94963 0.97037 0.0
C199 C 0.72649 0.95466 -9e-05 0.0
H200 H 0.74987 1.00137 0.9309 0.0
C201 C 0.76292 0.01708 0.01255 0.0
H202 H 0.7005 0.90246 0.96006 0.0
C203 C 0.79108 0.074 -0.00413 0.0
C204 C 0.78308 0.06896 0.96636 0.0
H205 H 0.7617 0.02223 0.03537 0.0
H206 H 0.81031 0.12117 0.00622 0.0
C207 C 0.75686 1.00654 0.95369 0.0
C208 C 0.75618 0.74471 0.28651 0.0
C209 C 0.71966 0.77106 0.2989 0.0
H210 H 0.80395 0.68828 0.2933 0.0
C211 C 0.72171 0.77883 0.3284 0.0
H212 H 0.75504 0.73792 0.26372 0.0
C213 C 0.74998 0.75042 0.34533 0.0
C214 C 0.77649 0.71408 0.33293 0.0
H215 H 0.69347 0.79814 0.33852 0.0
H216 H 0.74298 0.7491 0.36811 0.0
C217 C 0.78452 0.71638 0.30344 0.0
C218 C 0.95248 0.71761 0.66157 0.0
C219 C 0.95828 0.71494 0.63209 0.0
H220 H 1.0033 0.73955 0.70131 0.0
C221 C 0.02111 0.75101 0.61971 0.0
H222 H 0.90496 0.68975 0.67169 0.0
C223 C 0.07767 0.77953 0.63666 0.0
C224 C 0.07188 0.77215 0.66618 0.0
H225 H 0.02684 0.74943 0.59695 0.0
H226 H 0.12519 0.79861 0.62656 0.0
C227 C 1.00905 0.74608 0.67852 0.0
C228 C 0.64306 0.2533 0.95425 0.0
C229 C 0.69343 0.25453 0.97084 0.0
H230 H 0.55258 0.25466 0.95405 0.0
C231 C 0.68935 0.25413 0.00044 0.0
H232 H 0.64555 0.2539 0.93128 0.0
C233 C 0.63546 0.25294 0.01335 0.0
C234 C 0.58628 0.25403 -0.00326 0.0
H235 H 0.72768 0.25489 0.01352 0.0
H236 H 0.63337 0.2533 0.03632 0.0
C237 C 0.59016 0.25396 0.96715 0.0
C238 C 0.39059 0.62597 0.34569 0.0
C239 C 0.34013 0.57661 0.32934 0.0
H240 H 0.48054 0.71791 0.34543 0.0
C241 C 0.34359 0.57987 0.29972 0.0
H242 H 0.38856 0.62438 0.36867 0.0
C243 C 0.39682 0.63239 0.28655 0.0
C244 C 0.44604 0.68296 0.30291 0.0
H245 H 0.30518 0.54212 0.28681 0.0
H246 H 0.39835 0.63449 0.26357 0.0
C247 C 0.44288 0.67941 0.33253 0.0
C248 C 0.77412 0.38494 0.6795 0.0
C249 C 0.77267 0.33434 0.66309 0.0
H250 H 0.77293 0.47541 0.67933 0.0
C251 C 0.77315 0.33808 0.63347 0.0
H252 H 0.77351 0.38273 0.70247 0.0
C253 C 0.77444 0.39174 0.62036 0.0
C254 C 0.7734 0.44111 0.63677 0.0
H255 H 0.77225 0.29958 0.62053 0.0
H256 H 0.77402 0.39346 0.59738 0.0
C257 C 0.77356 0.43767 0.66639 0.0
C258 C 0.39542 0.77219 0.95277 0.0
C259 C 0.34474 0.77031 0.96933 0.0
H260 H 0.48612 0.77112 0.95267 0.0
C261 C 0.34858 0.77024 -0.00107 0.0
H262 H 0.39313 0.77201 0.9298 0.0
C263 C 0.40235 0.77133 0.01188 0.0
C264 C 0.45179 0.77067 -0.00468 0.0
H265 H 0.31 0.76897 0.01199 0.0
H266 H 0.4041 0.77044 0.03485 0.0
C267 C 0.4483 0.77143 0.96572 0.0
C268 C 0.63121 0.38429 0.28596 0.0
C269 C 0.58198 0.33396 0.30242 0.0
H270 H 0.72302 0.47442 0.28606 0.0
C271 C 0.58532 0.33775 0.33202 0.0
H272 H 0.62953 0.38199 0.26298 0.0
C273 C 0.63778 0.39121 0.34509 0.0
C274 C 0.68822 0.44036 0.32865 0.0
H275 H 0.54767 0.29944 0.345 0.0
H276 H 0.63991 0.39298 0.36807 0.0
C277 C 0.68461 0.43685 0.29903 0.0
C278 C 0.25596 0.57965 0.66647 0.0
C279 C 0.25598 0.57579 0.63687 0.0
H280 H 0.25609 0.63509 0.70236 0.0
C281 C 0.25478 0.62488 0.62028 0.0
H282 H 0.25671 0.54212 0.67955 0.0
C283 C 0.25606 0.67868 0.6332 0.0
C284 C 0.25667 0.68285 0.6628 0.0
H285 H 0.25509 0.62283 0.59731 0.0
H286 H 0.25685 0.71697 0.62012 0.0
C287 C 0.25537 0.63253 0.67939 0.0
C288 C 0.38388 0.24208 0.13119 0.0
C289 C 0.38983 0.19033 0.11984 0.0
H290 H 0.38443 0.29235 0.16885 0.0
C291 C 0.38345 0.13965 0.13787 0.0
H292 H 0.38683 0.28086 0.11776 0.0
C293 C 0.38307 0.14658 0.16716 0.0
C294 C 0.3885 0.20398 0.17856 0.0
H295 H 0.38533 0.09771 0.12951 0.0
H296 H 0.38546 0.11044 0.18061 0.0
C297 C 0.3829 0.24871 0.16049 0.0
C298 C 0.25602 0.38038 0.47207 0.0
C299 C 0.21117 0.38574 0.45395 0.0
H300 H 0.28727 0.38298 0.51486 0.0
C301 C 0.15319 0.37937 0.46525 0.0
H302 H 0.30016 0.38271 0.46378 0.0
C303 C 0.14548 0.37854 0.49453 0.0
C304 C 0.19591 0.38461 0.51267 0.0
H305 H 0.117 0.38163 0.45175 0.0
H306 H 0.10296 0.37952 0.50284 0.0
C307 C 0.24855 0.38005 0.50135 0.0
C308 C 0.77652 0.14138 0.82855 0.0
C309 C 0.82163 0.19185 0.84639 0.0
H310 H 0.74394 0.11213 0.78595 0.0
C311 C 0.87895 0.24336 0.83475 0.0
H312 H 0.7329 0.09965 0.83711 0.0
C313 C 0.88563 0.24983 0.80542 0.0
C314 C 0.83479 0.20518 0.78758 0.0
H315 H 0.91531 0.28201 0.84802 0.0
H316 H 0.92762 0.2932 0.79686 0.0
C317 C 0.78292 0.14814 0.79922 0.0
C318 C 0.64731 0.87899 0.13813 0.0
C319 C 0.64128 0.82871 0.11997 0.0
H320 H 0.6434 0.90699 0.18087 0.0
C321 C 0.6452 0.77579 0.13131 0.0
H322 H 0.64685 0.92171 0.1298 0.0
C323 C 0.64411 0.76792 0.1606 0.0
C324 C 0.63861 0.81265 0.17867 0.0
H325 H 0.64231 0.73719 0.1178 0.0
H326 H 0.64128 0.7236 0.16887 0.0
C327 C 0.64571 0.87087 0.1674 0.0
C328 C 0.77978 0.63554 0.50073 0.0
C329 C 0.83233 0.63073 0.51201 0.0
H330 H 0.7283 0.63349 0.46318 0.0
C331 C 0.88269 0.63677 0.49385 0.0
H332 H 0.74112 0.63263 0.51425 0.0
C333 C 0.87505 0.63635 0.46457 0.0
C334 C 0.81719 0.63035 0.45329 0.0
H335 H 0.92513 0.63558 0.50213 0.0
H336 H 0.91119 0.63411 0.45105 0.0
C337 C 0.77237 0.6356 0.47145 0.0
C338 C 0.15397 0.77803 0.83422 0.0
C339 C 0.21162 0.83008 0.84536 0.0
H340 H 0.10399 0.72683 0.79677 0.0
C341 C 0.25576 0.88018 0.82712 0.0
H342 H 0.11831 0.73964 0.84781 0.0
C343 C 0.24819 0.87251 0.79786 0.0
C344 C 0.19612 0.81491 0.7867 0.0
H345 H 0.29959 0.9223 0.8353 0.0
H346 H 0.28651 0.90828 0.78426 0.0
C347 C 0.14612 0.77063 0.80495 0.0
C348 C 0.58482 0.55782 0.03999 0.0
C349 C 0.53908 0.57962 0.03977 0.0
H350 H 0.60036 0.47542 0.04085 0.0
C351 C 0.47157 0.53213 0.03966 0.0
H352 H 0.63696 0.59281 0.04004 0.0
C353 C 0.45035 0.46469 0.03949 0.0
C354 C 0.49608 0.44289 0.04017 0.0
H355 H 0.43481 0.54713 0.03928 0.0
H356 H 0.39822 0.4297 0.03912 0.0
C357 C 0.56358 0.49039 0.04056 0.0
C358 C 0.03399 0.57533 0.37361 0.0
C359 C 0.9667 0.52924 0.37367 0.0
H360 H 0.1323 0.59169 0.37418 0.0
C361 C 0.94753 0.46197 0.37385 0.0
H362 H 0.05049 0.62731 0.37344 0.0
C363 C 0.99432 0.44131 0.37364 0.0
C364 C 0.0616 0.4874 0.37398 0.0
H365 H 0.896 0.42496 0.37368 0.0
H366 H 0.97783 0.38933 0.37346 0.0
C367 C 0.08077 0.55467 0.37413 0.0
C368 C 0.56207 0.98882 0.70721 0.0
C369 C 0.58323 0.05607 0.7075 0.0
H370 H 0.4802 0.8908 0.70727 0.0
C371 C 0.53516 0.0755 0.70749 0.0
H372 H 0.59751 0.97212 0.70716 0.0
C373 C 0.46779 0.02899 0.70689 0.0
C374 C 0.44662 0.96174 0.70704 0.0
H375 H 0.54964 0.12701 0.70748 0.0
H376 H 0.43234 0.04569 0.70661 0.0
C377 C 0.49468 0.94231 0.70736 0.0
C378 C 0.56139 0.5753 0.59257 0.0
C379 C 0.58294 0.5294 0.59245 0.0
H380 H 0.47913 0.59126 0.59225 0.0
C381 C 0.53518 0.46206 0.59247 0.0
H382 H 0.5966 0.62732 0.5926 0.0
C383 C 0.46772 0.44116 0.59291 0.0
C384 C 0.44617 0.48705 0.5926 0.0
H385 H 0.54998 0.42519 0.5926 0.0
H386 H 0.43252 0.38914 0.59321 0.0
C387 C 0.49392 0.55439 0.59228 0.0
C388 C 0.08512 0.53229 0.92543 0.0
C389 C 0.06542 0.5801 0.92571 0.0
H390 H 0.05568 0.42971 0.92596 0.0
C391 C 0.99801 0.5587 0.92616 0.0
H392 H 0.13676 0.54695 0.92529 0.0
C393 C 0.95163 0.49134 0.9259 0.0
C394 C 0.97134 0.44353 0.92592 0.0
H395 H 0.98109 0.59393 0.92643 0.0
H396 H 0.9 0.47668 0.92613 0.0
C397 C 0.03876 0.46494 0.9259 0.0
C398 C 0.46736 0.94179 0.25798 0.0
C399 C 0.53479 0.96113 0.25802 0.0
H400 H 0.3944 0.97176 0.25859 0.0
C401 C 0.5808 0.02835 0.25806 0.0
H402 H 0.43041 0.8903 0.25817 0.0
C403 C 0.55991 0.07493 0.25765 0.0
C404 C 0.49249 0.05559 0.25794 0.0
H405 H 0.63289 0.04497 0.25813 0.0
H406 H 0.59687 0.12642 0.25758 0.0
C407 C 0.44648 0.98837 0.25831 0.0
loop_
_geom_bond_atom_site_label_1
_geom_bond_atom_site_label_2
_geom_bond_distance
_geom_bond_site_symmetry_2
_ccdc_geom_bond_type
Co0 O1 2.216 . S
Co0 O2 2.091 . S
Co0 O4 2.004 . S
Co0 O10 2.021 . S
Co0 O12 2.137 . S
Co0 O13 2.244 . S
O1 Co0 2.216 . S
O1 C8 1.247 . S
O2 Co0 2.091 . S
O2 C8 1.261 . S
C3 O12 1.247 . S
C3 O13 1.272 . S
O4 Co0 2.004 . S
O4 C9 1.259 . S
Co5 O6 2.061 . S
Co5 O11 2.052 . S
Co5 O13 2.135 . S
O6 Co5 2.061 . S
O6 C9 1.235 . S
C7 O10 1.238 . S
C7 O11 1.241 . S
C8 O1 1.247 . S
C8 O2 1.261 . S
C9 O4 1.259 . S
C9 O6 1.235 . S
O10 Co0 2.021 . S
O10 C7 1.238 . S
O11 Co5 2.052 . S
O11 C7 1.241 . S
O12 Co0 2.137 . S
O12 C3 1.247 . S
O13 Co0 2.244 . S
O13 C3 1.272 . S
O13 Co5 2.135 . S
Co14 O15 2.216 . S
Co14 O16 2.091 . S
Co14 O18 2.004 . S
Co14 O24 2.021 . S
Co14 O26 2.137 . S
Co14 O27 2.244 . S
O15 Co14 2.216 . S
O15 C22 1.247 . S
O16 Co14 2.091 . S
O16 C22 1.261 . S
C17 O26 1.247 . S
C17 O27 1.272 . S
O18 Co14 2.004 . S
O18 C23 1.259 . S
Co19 O20 2.061 . S
Co19 O25 2.052 . S
Co19 O27 2.135 . S
O20 Co19 2.061 . S
O20 C23 1.235 . S
C21 O24 1.238 . S
C21 O25 1.241 . S
C22 O15 1.247 . S
C22 O16 1.261 . S
C23 O18 1.259 . S
C23 O20 1.235 . S
O24 Co14 2.021 . S
O24 C21 1.238 . S
O25 Co19 2.052 . S
O25 C21 1.241 . S
O26 Co14 2.137 . S
O26 C17 1.247 . S
O27 Co14 2.244 . S
O27 C17 1.272 . S
O27 Co19 2.135 . S
Co28 O29 2.216 . S
Co28 O30 2.091 . S
Co28 O32 2.004 . S
Co28 O38 2.021 . S
Co28 O40 2.137 . S
Co28 O41 2.244 . S
O29 Co28 2.216 . S
O29 C36 1.247 . S
O30 Co28 2.091 . S
O30 C36 1.261 . S
C31 O40 1.247 . S
C31 O41 1.272 . S
O32 Co28 2.004 . S
O32 C37 1.259 . S
Co33 O34 2.061 . S
Co33 O39 2.052 . S
Co33 O41 2.135 . S
O34 Co33 2.061 . S
O34 C37 1.235 . S
C35 O38 1.238 . S
C35 O39 1.241 . S
C36 O29 1.247 . S
C36 O30 1.261 . S
C37 O32 1.259 . S
C37 O34 1.235 . S
O38 Co28 2.021 . S
O38 C35 1.238 . S
O39 Co33 2.052 . S
O39 C35 1.241 . S
O40 Co28 2.137 . S
O40 C31 1.247 . S
O41 Co28 2.244 . S
O41 C31 1.272 . S
O41 Co33 2.135 . S
Co42 O43 2.216 . S
Co42 O44 2.091 . S
Co42 O46 2.004 . S
Co42 O52 2.021 . S
Co42 O54 2.137 . S
Co42 O55 2.244 . S
O43 Co42 2.216 . S
O43 C50 1.247 . S
O44 Co42 2.091 . S
O44 C50 1.261 . S
C45 O54 1.247 . S
C45 O55 1.272 . S
O46 Co42 2.004 . S
O46 C51 1.259 . S
Co47 O48 2.061 . S
Co47 O53 2.052 . S
Co47 O55 2.135 . S
O48 Co47 2.061 . S
O48 C51 1.235 . S
C49 O52 1.238 . S
C49 O53 1.241 . S
C50 O43 1.247 . S
C50 O44 1.261 . S
C51 O46 1.259 . S
C51 O48 1.235 . S
O52 Co42 2.021 . S
O52 C49 1.238 . S
O53 Co47 2.052 . S
O53 C49 1.241 . S
O54 Co42 2.137 . S
O54 C45 1.247 . S
O55 Co42 2.244 . S
O55 C45 1.272 . S
O55 Co47 2.135 . S
Co56 O57 2.216 . S
Co56 O58 2.091 . S
Co56 O60 2.004 . S
Co56 O66 2.021 . S
Co56 O68 2.137 . S
Co56 O69 2.244 . S
O57 Co56 2.216 . S
O57 C64 1.247 . S
O58 Co56 2.091 . S
O58 C64 1.261 . S
C59 O68 1.247 . S
C59 O69 1.272 . S
O60 Co56 2.004 . S
O60 C65 1.259 . S
Co61 O62 2.061 . S
Co61 O67 2.052 . S
Co61 O69 2.135 . S
O62 Co61 2.061 . S
O62 C65 1.235 . S
C63 O66 1.238 . S
C63 O67 1.241 . S
C64 O57 1.247 . S
C64 O58 1.261 . S
C65 O60 1.259 . S
C65 O62 1.235 . S
O66 Co56 2.021 . S
O66 C63 1.238 . S
O67 Co61 2.052 . S
O67 C63 1.241 . S
O68 Co56 2.137 . S
O68 C59 1.247 . S
O69 Co56 2.244 . S
O69 C59 1.272 . S
O69 Co61 2.135 . S
Co70 O71 2.216 . S
Co70 O72 2.091 . S
Co70 O74 2.004 . S
Co70 O80 2.021 . S
Co70 O82 2.137 . S
Co70 O83 2.244 . S
O71 Co70 2.216 . S
O71 C78 1.247 . S
O72 Co70 2.091 . S
O72 C78 1.261 . S
C73 O82 1.247 . S
C73 O83 1.272 . S
O74 Co70 2.004 . S
O74 C79 1.259 . S
Co75 O76 2.061 . S
Co75 O81 2.052 . S
Co75 O83 2.135 . S
O76 Co75 2.061 . S
O76 C79 1.235 . S
C77 O80 1.238 . S
C77 O81 1.241 . S
C78 O71 1.247 . S
C78 O72 1.261 . S
C79 O74 1.259 . S
C79 O76 1.235 . S
O80 Co70 2.021 . S
O80 C77 1.238 . S
O81 Co75 2.052 . S
O81 C77 1.241 . S
O82 Co70 2.137 . S
O82 C73 1.247 . S
O83 Co70 2.244 . S
O83 C73 1.272 . S
O83 Co75 2.135 . S
Co84 O85 2.216 . S
Co84 O86 2.091 . S
Co84 O88 2.004 . S
Co84 O94 2.021 . S
Co84 O96 2.137 . S
Co84 O97 2.244 . S
O85 Co84 2.216 . S
O85 C92 1.247 . S
O86 Co84 2.091 . S
O86 C92 1.261 . S
C87 O96 1.247 . S
C87 O97 1.272 . S
O88 Co84 2.004 . S
O88 C93 1.259 . S
Co89 O90 2.061 . S
Co89 O95 2.052 . S
Co89 O97 2.135 . S
O90 Co89 2.061 . S
O90 C93 1.235 . S
C91 O94 1.238 . S
C91 O95 1.241 . S
C92 O85 1.247 . S
C92 O86 1.261 . S
C93 O88 1.259 . S
C93 O90 1.235 . S
O94 Co84 2.021 . S
O94 C91 1.238 . S
O95 Co89 2.052 . S
O95 C91 1.241 . S
O96 Co84 2.137 . S
O96 C87 1.247 . S
O97 Co84 2.244 . S
O97 C87 1.272 . S
O97 Co89 2.135 . S
Co98 O99 2.216 . S
Co98 O100 2.091 . S
Co98 O102 2.004 . S
Co98 O108 2.021 . S
Co98 O110 2.137 . S
Co98 O111 2.244 . S
O99 Co98 2.216 . S
O99 C106 1.247 . S
O100 Co98 2.091 . S
O100 C106 1.261 . S
C101 O110 1.247 . S
C101 O111 1.272 . S
O102 Co98 2.004 . S
O102 C107 1.259 . S
Co103 O104 2.061 . S
Co103 O109 2.052 . S
Co103 O111 2.135 . S
O104 Co103 2.061 . S
O104 C107 1.235 . S
C105 O108 1.238 . S
C105 O109 1.241 . S
C106 O99 1.247 . S
C106 O100 1.261 . S
C107 O102 1.259 . S
C107 O104 1.235 . S
O108 Co98 2.021 . S
O108 C105 1.238 . S
O109 Co103 2.052 . S
O109 C105 1.241 . S
O110 Co98 2.137 . S
O110 C101 1.247 . S
O111 Co98 2.244 . S
O111 C101 1.272 . S
O111 Co103 2.135 . S
Co112 O113 2.216 . S
Co112 O114 2.091 . S
Co112 O116 2.004 . S
Co112 O122 2.021 . S
Co112 O124 2.137 . S
Co112 O125 2.244 . S
O113 Co112 2.216 . S
O113 C120 1.247 . S
O114 Co112 2.091 . S
O114 C120 1.261 . S
C115 O124 1.247 . S
C115 O125 1.272 . S
O116 Co112 2.004 . S
O116 C121 1.259 . S
Co117 O118 2.061 . S
Co117 O123 2.052 . S
Co117 O125 2.135 . S
O118 Co117 2.061 . S
O118 C121 1.235 . S
C119 O122 1.238 . S
C119 O123 1.241 . S
C120 O113 1.247 . S
C120 O114 1.261 . S
C121 O116 1.259 . S
C121 O118 1.235 . S
O122 Co112 2.021 . S
O122 C119 1.238 . S
O123 Co117 2.052 . S
O123 C119 1.241 . S
O124 Co112 2.137 . S
O124 C115 1.247 . S
O125 Co112 2.244 . S
O125 C115 1.272 . S
O125 Co117 2.135 . S
Co126 O127 2.216 . S
Co126 O128 2.091 . S
Co126 O130 2.004 . S
Co126 O136 2.021 . S
Co126 O138 2.137 . S
Co126 O139 2.244 . S
O127 Co126 2.216 . S
O127 C134 1.247 . S
O128 Co126 2.091 . S
O128 C134 1.261 . S
C129 O138 1.247 . S
C129 O139 1.272 . S
O130 Co126 2.004 . S
O130 C135 1.259 . S
Co131 O132 2.061 . S
Co131 O137 2.052 . S
Co131 O139 2.135 . S
O132 Co131 2.061 . S
O132 C135 1.235 . S
C133 O136 1.238 . S
C133 O137 1.241 . S
C134 O127 1.247 . S
C134 O128 1.261 . S
C135 O130 1.259 . S
C135 O132 1.235 . S
O136 Co126 2.021 . S
O136 C133 1.238 . S
O137 Co131 2.052 . S
O137 C133 1.241 . S
O138 Co126 2.137 . S
O138 C129 1.247 . S
O139 Co126 2.244 . S
O139 C129 1.272 . S
O139 Co131 2.135 . S
Co140 O141 2.216 . S
Co140 O142 2.091 . S
Co140 O144 2.004 . S
Co140 O150 2.021 . S
Co140 O152 2.137 . S
Co140 O153 2.244 . S
O141 Co140 2.216 . S
O141 C148 1.247 . S
O142 Co140 2.091 . S
O142 C148 1.261 . S
C143 O152 1.247 . S
C143 O153 1.272 . S
O144 Co140 2.004 . S
O144 C149 1.259 . S
Co145 O146 2.061 . S
Co145 O151 2.052 . S
Co145 O153 2.135 . S
O146 Co145 2.061 . S
O146 C149 1.235 . S
C147 O150 1.238 . S
C147 O151 1.241 . S
C148 O141 1.247 . S
C148 O142 1.261 . S
C149 O144 1.259 . S
C149 O146 1.235 . S
O150 Co140 2.021 . S
O150 C147 1.238 . S
O151 Co145 2.052 . S
O151 C147 1.241 . S
O152 Co140 2.137 . S
O152 C143 1.247 . S
O153 Co140 2.244 . S
O153 C143 1.272 . S
O153 Co145 2.135 . S
Co154 O155 2.216 . S
Co154 O156 2.091 . S
Co154 O158 2.004 . S
Co154 O164 2.021 . S
Co154 O166 2.137 . S
Co154 O167 2.244 . S
O155 Co154 2.216 . S
O155 C162 1.247 . S
O156 Co154 2.091 . S
O156 C162 1.261 . S
C157 O166 1.247 . S
C157 O167 1.272 . S
O158 Co154 2.004 . S
O158 C163 1.259 . S
Co159 O160 2.061 . S
Co159 O165 2.052 . S
Co159 O167 2.135 . S
O160 Co159 2.061 . S
O160 C163 1.235 . S
C161 O164 1.238 . S
C161 O165 1.241 . S
C162 O155 1.247 . S
C162 O156 1.261 . S
C163 O158 1.259 . S
C163 O160 1.235 . S
O164 Co154 2.021 . S
O164 C161 1.238 . S
O165 Co159 2.052 . S
O165 C161 1.241 . S
O166 Co154 2.137 . S
O166 C157 1.247 . S
O167 Co154 2.244 . S
O167 C157 1.272 . S
O167 Co159 2.135 . S
C168 C169 1.387 . S
C168 H172 0.950 . S
C168 C177 1.390 1_566 S
C169 C168 1.387 . S
C169 C171 1.387 . S
H170 C177 0.950 . S
C171 C169 1.387 . S
C171 C173 1.390 1_566 S
C171 H175 0.950 . S
H172 C168 0.950 . S
C173 C171 1.390 1_544 S
C173 C174 1.387 . S
C173 H176 0.950 . S
C174 C173 1.387 . S
C174 C177 1.387 . S
H175 C171 0.950 . S
H176 C173 0.950 . S
C177 C168 1.390 1_544 S
C177 H170 0.950 . S
C177 C174 1.387 . S
C178 C179 1.387 . S
C178 H182 0.950 . S
C178 C187 1.390 . S
C179 C178 1.387 . S
C179 C181 1.387 . S
H180 C187 0.950 . S
C181 C179 1.387 . S
C181 C183 1.390 . S
C181 H185 0.950 . S
H182 C178 0.950 . S
C183 C181 1.390 . S
C183 C184 1.387 . S
C183 H186 0.950 . S
C184 C183 1.387 . S
C184 C187 1.387 . S
H185 C181 0.950 . S
H186 C183 0.950 . S
C187 C178 1.390 . S
C187 H180 0.950 . S
C187 C184 1.387 . S
C188 C189 1.387 . S
C188 H192 0.950 . S
C188 C197 1.390 1_655 S
C189 C188 1.387 . S
C189 C191 1.387 . S
H190 C197 0.950 . S
C191 C189 1.387 . S
C191 C193 1.390 1_655 S
C191 H195 0.950 . S
H192 C188 0.950 . S
C193 C191 1.390 1_455 S
C193 C194 1.387 . S
C193 H196 0.950 . S
C194 C193 1.387 . S
C194 C197 1.387 . S
H195 C191 0.950 . S
H196 C193 0.950 . S
C197 C188 1.390 1_455 S
C197 H190 0.950 . S
C197 C194 1.387 . S
C198 C199 1.387 . S
C198 H202 0.950 . S
C198 C207 1.390 1_564 S
C199 C198 1.387 . S
C199 C201 1.387 . S
H200 C207 0.950 . S
C201 C199 1.387 . S
C201 C203 1.390 1_564 S
C201 H205 0.950 . S
H202 C198 0.950 . S
C203 C201 1.390 1_546 S
C203 C204 1.387 . S
C203 H206 0.950 . S
C204 C203 1.387 . S
C204 C207 1.387 . S
H205 C201 0.950 . S
H206 C203 0.950 . S
C207 C198 1.390 1_546 S
C207 H200 0.950 . S
C207 C204 1.387 . S
C208 C209 1.387 . S
C208 H212 0.950 . S
C208 C217 1.390 . S
C209 C208 1.387 . S
C209 C211 1.387 . S
H210 C217 0.950 . S
C211 C209 1.387 . S
C211 C213 1.390 . S
C211 H215 0.950 . S
H212 C208 0.950 . S
C213 C211 1.390 . S
C213 C214 1.387 . S
C213 H216 0.950 . S
C214 C213 1.387 . S
C214 C217 1.387 . S
H215 C211 0.950 . S
H216 C213 0.950 . S
C217 C208 1.390 . S
C217 H210 0.950 . S
C217 C214 1.387 . S
C218 C219 1.387 . S
C218 H222 0.950 . S
C218 C227 1.390 1_655 S
C219 C218 1.387 . S
C219 C221 1.387 . S
H220 C227 0.950 . S
C221 C219 1.387 . S
C221 C223 1.390 1_655 S
C221 H225 0.950 . S
H222 C218 0.950 . S
C223 C221 1.390 1_455 S
C223 C224 1.387 . S
C223 H226 0.950 . S
C224 C223 1.387 . S
C224 C227 1.387 . S
H225 C221 0.950 . S
H226 C223 0.950 . S
C227 C218 1.390 1_455 S
C227 H220 0.950 . S
C227 C224 1.387 . S
C228 C229 1.387 . S
C228 H232 0.950 . S
C228 C237 1.390 1_556 S
C229 C228 1.387 . S
C229 C231 1.387 . S
H230 C237 0.950 . S
C231 C229 1.387 . S
C231 C233 1.390 1_556 S
C231 H235 0.950 . S
H232 C228 0.950 . S
C233 C231 1.390 1_554 S
C233 C234 1.387 . S
C233 H236 0.950 . S
C234 C233 1.387 . S
C234 C237 1.387 . S
H235 C231 0.950 . S
H236 C233 0.950 . S
C237 C228 1.390 1_554 S
C237 H230 0.950 . S
C237 C234 1.387 . S
C238 C239 1.387 . S
C238 H242 0.950 . S
C238 C247 1.390 . S
C239 C238 1.387 . S
C239 C241 1.387 . S
H240 C247 0.950 . S
C241 C239 1.387 . S
C241 C243 1.390 . S
C241 H245 0.950 . S
H242 C238 0.950 . S
C243 C241 1.390 . S
C243 C244 1.387 . S
C243 H246 0.950 . S
C244 C243 1.387 . S
C244 C247 1.387 . S
H245 C241 0.950 . S
H246 C243 0.950 . S
C247 C238 1.390 . S
C247 H240 0.950 . S
C247 C244 1.387 . S
C248 C249 1.387 . S
C248 H252 0.950 . S
C248 C257 1.390 . S
C249 C248 1.387 . S
C249 C251 1.387 . S
H250 C257 0.950 . S
C251 C249 1.387 . S
C251 C253 1.390 . S
C251 H255 0.950 . S
H252 C248 0.950 . S
C253 C251 1.390 . S
C253 C254 1.387 . S
C253 H256 0.950 . S
C254 C253 1.387 . S
C254 C257 1.387 . S
H255 C251 0.950 . S
H256 C253 0.950 . S
C257 C248 1.390 . S
C257 H250 0.950 . S
C257 C254 1.387 . S
C258 C259 1.387 . S
C258 H262 0.950 . S
C258 C267 1.390 1_556 S
C259 C258 1.387 . S
C259 C261 1.387 . S
H260 C267 0.950 . S
C261 C259 1.387 . S
C261 C263 1.390 1_556 S
C261 H265 0.950 . S
H262 C258 0.950 . S
C263 C261 1.390 1_554 S
C263 C264 1.387 . S
C263 H266 0.950 . S
C264 C263 1.387 . S
C264 C267 1.387 . S
H265 C261 0.950 . S
H266 C263 0.950 . S
C267 C258 1.390 1_554 S
C267 H260 0.950 . S
C267 C264 1.387 . S
C268 C269 1.387 . S
C268 H272 0.950 . S
C268 C277 1.390 . S
C269 C268 1.387 . S
C269 C271 1.387 . S
H270 C277 0.950 . S
C271 C269 1.387 . S
C271 C273 1.390 . S
C271 H275 0.950 . S
H272 C268 0.950 . S
C273 C271 1.390 . S
C273 C274 1.387 . S
C273 H276 0.950 . S
C274 C273 1.387 . S
C274 C277 1.387 . S
H275 C271 0.950 . S
H276 C273 0.950 . S
C277 C268 1.390 . S
C277 H270 0.950 . S
C277 C274 1.387 . S
C278 C279 1.387 . S
C278 H282 0.950 . S
C278 C287 1.390 . S
C279 C278 1.387 . S
C279 C281 1.387 . S
H280 C287 0.950 . S
C281 C279 1.387 . S
C281 C283 1.390 . S
C281 H285 0.950 . S
H282 C278 0.950 . S
C283 C281 1.390 . S
C283 C284 1.387 . S
C283 H286 0.950 . S
C284 C283 1.387 . S
C284 C287 1.387 . S
H285 C281 0.950 . S
H286 C283 0.950 . S
C287 C278 1.390 . S
C287 H280 0.950 . S
C287 C284 1.387 . S
C288 C289 1.387 . S
C288 H292 0.950 . S
C288 C297 1.390 . S
C289 C288 1.387 . S
C289 C291 1.387 . S
H290 C297 0.950 . S
C291 C289 1.387 . S
C291 C293 1.390 . S
C291 H295 0.950 . S
H292 C288 0.950 . S
C293 C291 1.390 . S
C293 C294 1.387 . S
C293 H296 0.950 . S
C294 C293 1.387 . S
C294 C297 1.387 . S
H295 C291 0.950 . S
H296 C293 0.950 . S
C297 C288 1.390 . S
C297 H290 0.950 . S
C297 C294 1.387 . S
C298 C299 1.387 . S
C298 H302 0.950 . S
C298 C307 1.390 . S
C299 C298 1.387 . S
C299 C301 1.387 . S
H300 C307 0.950 . S
C301 C299 1.387 . S
C301 C303 1.390 . S
C301 H305 0.950 . S
H302 C298 0.950 . S
C303 C301 1.390 . S
C303 C304 1.387 . S
C303 H306 0.950 . S
C304 C303 1.387 . S
C304 C307 1.387 . S
H305 C301 0.950 . S
H306 C303 0.950 . S
C307 C298 1.390 . S
C307 H300 0.950 . S
C307 C304 1.387 . S
C308 C309 1.387 . S
C308 H312 0.950 . S
C308 C317 1.390 . S
C309 C308 1.387 . S
C309 C311 1.387 . S
H310 C317 0.950 . S
C311 C309 1.387 . S
C311 C313 1.390 . S
C311 H315 0.950 . S
H312 C308 0.950 . S
C313 C311 1.390 . S
C313 C314 1.387 . S
C313 H316 0.950 . S
C314 C313 1.387 . S
C314 C317 1.387 . S
H315 C311 0.950 . S
H316 C313 0.950 . S
C317 C308 1.390 . S
C317 H310 0.950 . S
C317 C314 1.387 . S
C318 C319 1.387 . S
C318 H322 0.950 . S
C318 C327 1.390 . S
C319 C318 1.387 . S
C319 C321 1.387 . S
H320 C327 0.950 . S
C321 C319 1.387 . S
C321 C323 1.390 . S
C321 H325 0.950 . S
H322 C318 0.950 . S
C323 C321 1.390 . S
C323 C324 1.387 . S
C323 H326 0.950 . S
C324 C323 1.387 . S
C324 C327 1.387 . S
H325 C321 0.950 . S
H326 C323 0.950 . S
C327 C318 1.390 . S
C327 H320 0.950 . S
C327 C324 1.387 . S
C328 C329 1.387 . S
C328 H332 0.950 . S
C328 C337 1.390 . S
C329 C328 1.387 . S
C329 C331 1.387 . S
H330 C337 0.950 . S
C331 C329 1.387 . S
C331 C333 1.390 . S
C331 H335 0.950 . S
H332 C328 0.950 . S
C333 C331 1.390 . S
C333 C334 1.387 . S
C333 H336 0.950 . S
C334 C333 1.387 . S
C334 C337 1.387 . S
H335 C331 0.950 . S
H336 C333 0.950 . S
C337 C328 1.390 . S
C337 H330 0.950 . S
C337 C334 1.387 . S
C338 C339 1.387 . S
C338 H342 0.950 . S
C338 C347 1.390 . S
C339 C338 1.387 . S
C339 C341 1.387 . S
H340 C347 0.950 . S
C341 C339 1.387 . S
C341 C343 1.390 . S
C341 H345 0.950 . S
H342 C338 0.950 . S
C343 C341 1.390 . S
C343 C344 1.387 . S
C343 H346 0.950 . S
C344 C343 1.387 . S
C344 C347 1.387 . S
H345 C341 0.950 . S
H346 C343 0.950 . S
C347 C338 1.390 . S
C347 H340 0.950 . S
C347 C344 1.387 . S
C348 C349 1.387 . S
C348 H352 0.950 1_554 S
C348 C357 1.390 . S
C349 C348 1.387 . S
C349 C351 1.387 . S
H350 C357 0.950 1_556 S
C351 C349 1.387 . S
C351 C353 1.390 . S
C351 H355 0.950 . S
H352 C348 0.950 1_556 S
C353 C351 1.390 . S
C353 C354 1.387 . S
C353 H356 0.950 . S
C354 C353 1.387 . S
C354 C357 1.387 . S
H355 C351 0.950 . S
H356 C353 0.950 . S
C357 C348 1.390 . S
C357 H350 0.950 1_554 S
C357 C354 1.387 . S
C358 C359 1.387 . S
C358 H362 0.950 . S
C358 C367 1.390 1_655 S
C359 C358 1.387 . S
C359 C361 1.387 . S
H360 C367 0.950 . S
C361 C359 1.387 . S
C361 C363 1.390 1_655 S
C361 H365 0.950 . S
H362 C358 0.950 . S
C363 C361 1.390 1_455 S
C363 C364 1.387 . S
C363 H366 0.950 . S
C364 C363 1.387 . S
C364 C367 1.387 . S
H365 C361 0.950 . S
H366 C363 0.950 . S
C367 C358 1.390 1_455 S
C367 H360 0.950 . S
C367 C364 1.387 . S
C368 C369 1.387 . S
C368 H372 0.950 . S
C368 C377 1.390 1_545 S
C369 C368 1.387 . S
C369 C371 1.387 . S
H370 C377 0.950 . S
C371 C369 1.387 . S
C371 C373 1.390 1_545 S
C371 H375 0.950 . S
H372 C368 0.950 . S
C373 C371 1.390 1_565 S
C373 C374 1.387 . S
C373 H376 0.950 . S
C374 C373 1.387 . S
C374 C377 1.387 . S
H375 C371 0.950 . S
H376 C373 0.950 . S
C377 C368 1.390 1_565 S
C377 H370 0.950 . S
C377 C374 1.387 . S
C378 C379 1.387 . S
C378 H382 0.950 . S
C378 C387 1.390 . S
C379 C378 1.387 . S
C379 C381 1.387 . S
H380 C387 0.950 . S
C381 C379 1.387 . S
C381 C383 1.390 . S
C381 H385 0.950 . S
H382 C378 0.950 . S
C383 C381 1.390 . S
C383 C384 1.387 . S
C383 H386 0.950 . S
C384 C383 1.387 . S
C384 C387 1.387 . S
H385 C381 0.950 . S
H386 C383 0.950 . S
C387 C378 1.390 . S
C387 H380 0.950 . S
C387 C384 1.387 . S
C388 C389 1.387 . S
C388 H392 0.950 . S
C388 C397 1.390 1_455 S
C389 C388 1.387 . S
C389 C391 1.387 . S
H390 C397 0.950 . S
C391 C389 1.387 . S
C391 C393 1.390 1_455 S
C391 H395 0.950 1_556 S
H392 C388 0.950 . S
C393 C391 1.390 1_655 S
C393 C394 1.387 . S
C393 H396 0.950 1_556 S
C394 C393 1.387 . S
C394 C397 1.387 . S
H395 C391 0.950 1_554 S
H396 C393 0.950 1_554 S
C397 C388 1.390 1_655 S
C397 H390 0.950 . S
C397 C394 1.387 . S
C398 C399 1.387 . S
C398 H402 0.950 . S
C398 C407 1.390 1_565 S
C399 C398 1.387 . S
C399 C401 1.387 . S
H400 C407 0.950 . S
C401 C399 1.387 . S
C401 C403 1.390 1_565 S
C401 H405 0.950 . S
H402 C398 0.950 . S
C403 C401 1.390 1_545 S
C403 C404 1.387 . S
C403 H406 0.950 . S
C404 C403 1.387 . S
C404 C407 1.387 . S
H405 C401 0.950 . S
H406 C403 0.950 . S
C407 C398 1.390 1_545 S
C407 H400 0.950 . S
C407 C404 1.387 . S
C169 C107 1.403 . S
C174 C9 1.403 . S
C179 C23 1.402 . S
C184 C121 1.405 . S
C189 C37 1.403 . S
C194 C135 1.405 . S
C199 C51 1.404 . S
C204 C149 1.404 . S
C209 C163 1.402 . S
C214 C65 1.405 . S
C219 C93 1.405 . S
C224 C79 1.403 . S
C229 C143 1.457 . S
C234 C3 1.457 . S
C239 C17 1.456 . S
C244 C157 1.456 . S
C249 C31 1.457 . S
C254 C87 1.456 . S
C259 C101 1.456 . S
C264 C45 1.456 . S
C269 C115 1.457 . S
C274 C59 1.456 . S
C279 C129 1.456 . S
C284 C73 1.456 . S
C289 C7 1.593 . S
C294 C119 1.595 . S
C299 C21 1.593 . S
C304 C133 1.593 . S
C309 C147 1.593 . S
C314 C35 1.593 . S
C319 C49 1.596 . S
C324 C161 1.595 . S
C329 C91 1.593 . S
C334 C63 1.593 . S
C339 C105 1.593 . S
C344 C77 1.593 . S
C349 C50 1.463 . S
C354 C8 1.463 . S
C359 C64 1.465 . S
C364 C22 1.465 . S
C369 C36 1.463 . S
C374 C78 1.463 . S
C379 C92 1.465 . S
C384 C134 1.465 . S
C389 C106 1.465 . S
C394 C148 1.465 . S
C399 C162 1.463 . S
C404 C120 1.463 . S
