# Generated by pormake.
# Topology whh, (6)-cn, num edge types: 1
# Building blocks:
#     Node 0, Type 0, BuildingBlock: VOLQOD_clean_sbu_1, # of connection points: 6
#     Node 1, Type 0, BuildingBlock: VOLQOD_clean_sbu_1, # of connection points: 6
#     Node 2, Type 0, BuildingBlock: VOLQOD_clean_sbu_1, # of connection points: 6
#     Node 3, Type 0, BuildingBlock: VOLQOD_clean_sbu_1, # of connection points: 6
#     Node 4, Type 0, BuildingBlock: VOLQOD_clean_sbu_1, # of connection points: 6
#     Node 5, Type 0, BuildingBlock: VOLQOD_clean_sbu_1, # of connection points: 6
#     Node 6, Type 0, BuildingBlock: VOLQOD_clean_sbu_1, # of connection points: 6
#     Node 7, Type 0, BuildingBlock: VOLQOD_clean_sbu_1, # of connection points: 6
#     Node 8, Type 0, BuildingBlock: VOLQOD_clean_sbu_1, # of connection points: 6
#     Node 9, Type 0, BuildingBlock: VOLQOD_clean_sbu_1, # of connection points: 6
#     Node 10, Type 0, BuildingBlock: VOLQOD_clean_sbu_1, # of connection points: 6
#     Node 11, Type 0, BuildingBlock: VOLQOD_clean_sbu_1, # of connection points: 6
#     Node 12, Type 0, BuildingBlock: VOLQOD_clean_sbu_1, # of connection points: 6
#     Node 13, Type 0, BuildingBlock: VOLQOD_clean_sbu_1, # of connection points: 6
#     Node 14, Type 0, BuildingBlock: VOLQOD_clean_sbu_1, # of connection points: 6
#     Node 15, Type 0, BuildingBlock: VOLQOD_clean_sbu_1, # of connection points: 6
#     Edge 16, Type (0, 0), BuildingBlock: XUDNAN_clean_linker_2, # of connection points: 2
#     Edge 17, Type (0, 0), BuildingBlock: XUDNAN_clean_linker_2, # of connection points: 2
#     Edge 18, Type (0, 0), BuildingBlock: XUDNAN_clean_linker_2, # of connection points: 2
#     Edge 19, Type (0, 0), BuildingBlock: XUDNAN_clean_linker_2, # of connection points: 2
#     Edge 20, Type (0, 0), BuildingBlock: XUDNAN_clean_linker_2, # of connection points: 2
#     Edge 21, Type (0, 0), BuildingBlock: XUDNAN_clean_linker_2, # of connection points: 2
#     Edge 22, Type (0, 0), BuildingBlock: XUDNAN_clean_linker_2, # of connection points: 2
#     Edge 23, Type (0, 0), BuildingBlock: XUDNAN_clean_linker_2, # of connection points: 2
#     Edge 24, Type (0, 0), BuildingBlock: XUDNAN_clean_linker_2, # of connection points: 2
#     Edge 25, Type (0, 0), BuildingBlock: XUDNAN_clean_linker_2, # of connection points: 2
#     Edge 26, Type (0, 0), BuildingBlock: XUDNAN_clean_linker_2, # of connection points: 2
#     Edge 27, Type (0, 0), BuildingBlock: XUDNAN_clean_linker_2, # of connection points: 2
#     Edge 28, Type (0, 0), BuildingBlock: XUDNAN_clean_linker_2, # of connection points: 2
#     Edge 29, Type (0, 0), BuildingBlock: XUDNAN_clean_linker_2, # of connection points: 2
#     Edge 30, Type (0, 0), BuildingBlock: XUDNAN_clean_linker_2, # of connection points: 2
#     Edge 31, Type (0, 0), BuildingBlock: XUDNAN_clean_linker_2, # of connection points: 2
#     Edge 32, Type (0, 0), BuildingBlock: XUDNAN_clean_linker_2, # of connection points: 2
#     Edge 33, Type (0, 0), BuildingBlock: XUDNAN_clean_linker_2, # of connection points: 2
#     Edge 34, Type (0, 0), BuildingBlock: XUDNAN_clean_linker_2, # of connection points: 2
#     Edge 35, Type (0, 0), BuildingBlock: XUDNAN_clean_linker_2, # of connection points: 2
#     Edge 36, Type (0, 0), BuildingBlock: XUDNAN_clean_linker_2, # of connection points: 2
#     Edge 37, Type (0, 0), BuildingBlock: XUDNAN_clean_linker_2, # of connection points: 2
#     Edge 38, Type (0, 0), BuildingBlock: XUDNAN_clean_linker_2, # of connection points: 2
#     Edge 39, Type (0, 0), BuildingBlock: XUDNAN_clean_linker_2, # of connection points: 2
#     Edge 40, Type (0, 0), BuildingBlock: XUDNAN_clean_linker_2, # of connection points: 2
#     Edge 41, Type (0, 0), BuildingBlock: XUDNAN_clean_linker_2, # of connection points: 2
#     Edge 42, Type (0, 0), BuildingBlock: XUDNAN_clean_linker_2, # of connection points: 2
#     Edge 43, Type (0, 0), BuildingBlock: XUDNAN_clean_linker_2, # of connection points: 2
#     Edge 44, Type (0, 0), BuildingBlock: XUDNAN_clean_linker_2, # of connection points: 2
#     Edge 45, Type (0, 0), BuildingBlock: XUDNAN_clean_linker_2, # of connection points: 2
#     Edge 46, Type (0, 0), BuildingBlock: XUDNAN_clean_linker_2, # of connection points: 2
#     Edge 47, Type (0, 0), BuildingBlock: XUDNAN_clean_linker_2, # of connection points: 2
#     Edge 48, Type (0, 0), BuildingBlock: XUDNAN_clean_linker_2, # of connection points: 2
#     Edge 49, Type (0, 0), BuildingBlock: XUDNAN_clean_linker_2, # of connection points: 2
#     Edge 50, Type (0, 0), BuildingBlock: XUDNAN_clean_linker_2, # of connection points: 2
#     Edge 51, Type (0, 0), BuildingBlock: XUDNAN_clean_linker_2, # of connection points: 2
#     Edge 52, Type (0, 0), BuildingBlock: XUDNAN_clean_linker_2, # of connection points: 2
#     Edge 53, Type (0, 0), BuildingBlock: XUDNAN_clean_linker_2, # of connection points: 2
#     Edge 54, Type (0, 0), BuildingBlock: XUDNAN_clean_linker_2, # of connection points: 2
#     Edge 55, Type (0, 0), BuildingBlock: XUDNAN_clean_linker_2, # of connection points: 2
#     Edge 56, Type (0, 0), BuildingBlock: XUDNAN_clean_linker_2, # of connection points: 2
#     Edge 57, Type (0, 0), BuildingBlock: XUDNAN_clean_linker_2, # of connection points: 2
#     Edge 58, Type (0, 0), BuildingBlock: XUDNAN_clean_linker_2, # of connection points: 2
#     Edge 59, Type (0, 0), BuildingBlock: XUDNAN_clean_linker_2, # of connection points: 2
#     Edge 60, Type (0, 0), BuildingBlock: XUDNAN_clean_linker_2, # of connection points: 2
#     Edge 61, Type (0, 0), BuildingBlock: XUDNAN_clean_linker_2, # of connection points: 2
#     Edge 62, Type (0, 0), BuildingBlock: XUDNAN_clean_linker_2, # of connection points: 2
#     Edge 63, Type (0, 0), BuildingBlock: XUDNAN_clean_linker_2, # of connection points: 2
# Relax obj value: 0.571
# Max RMSD: 0.276
# Mean RMSD: 0.276
data_MOF--net-whh--node1-VOLQOD_clean_sbu_1--edge1-XUDNAN_clean_linker_2
_symmetry_space_group_name_H-M    P1
_symmetry_Int_Tables_number       1
_symmetry_cell_setting            triclinic
loop_
_symmetry_equiv_pos_as_xyz
'x, y, z'
_cell_length_a     34.038984
_cell_length_b     34.117999
_cell_length_c     52.290464
_cell_angle_alpha  90.020764
_cell_angle_beta   90.041355
_cell_angle_gamma 89.939984
loop_
_atom_site_label
_atom_site_type_symbol
_atom_site_fract_x
_atom_site_fract_y
_atom_site_fract_z
_atom_type_partial_charge
O0 O 0.07851 0.549 0.10137 0.0
Zn1 Zn 0.0857 0.58149 0.13498 0.0
O2 O 0.04675 0.62261 0.13192 0.0
Zn3 Zn 0.99873 0.60896 0.14773 0.0
Zn4 Zn 0.03895 0.63048 0.09567 0.0
Zn5 Zn 0.0635 0.66937 0.1481 0.0
O6 O 0.97529 0.65295 0.16888 0.0
O7 O 0.03187 0.68098 0.17961 0.0
O8 O 0.0724 0.54828 0.16799 0.0
O9 O 0.0101 0.56671 0.17244 0.0
O10 O 0.96174 0.5889 0.12159 0.0
O11 O 0.98715 0.60724 0.08425 0.0
O12 O 0.0409 0.68698 0.08628 0.0
O13 O 0.13931 0.61182 0.13615 0.0
O14 O 0.05626 0.71391 0.12364 0.0
O15 O 0.12054 0.66722 0.15535 0.0
C16 C 0.08003 0.56438 0.07904 0.0
C17 C 0.9952 0.67588 0.18306 0.0
C18 C 0.96045 0.59048 0.09729 0.0
C19 C 0.03916 0.54596 0.17959 0.0
C20 C 0.04826 0.71695 0.09991 0.0
C21 C 0.14735 0.64508 0.14649 0.0
O22 O 0.08054 0.60143 0.07686 0.0
O23 O 0.94725 0.07632 0.09254 0.0
Zn24 Zn 0.91227 0.08653 0.12427 0.0
O25 O 0.87292 0.04508 0.12068 0.0
Zn26 Zn 0.88542 0.0014 0.14199 0.0
Zn27 Zn 0.87083 0.02877 0.08499 0.0
Zn28 Zn 0.82226 0.06145 0.12989 0.0
O29 O 0.83914 0.98237 0.16284 0.0
O30 O 0.8082 0.03964 0.16403 0.0
O31 O 0.9451 0.07757 0.15778 0.0
O32 O 0.92359 0.01829 0.16848 0.0
O33 O 0.91229 0.9608 0.1208 0.0
O34 O 0.90258 0.98016 0.08062 0.0
O35 O 0.81573 0.01857 0.07214 0.0
O36 O 0.88194 0.14005 0.12567 0.0
O37 O 0.78263 0.0421 0.10522 0.0
O38 O 0.82017 0.11891 0.12991 0.0
C39 C 0.93584 0.06941 0.0696 0.0
C40 C 0.81425 0.00551 0.1731 0.0
C41 C 0.91769 0.95684 0.09681 0.0
C42 C 0.94501 0.04799 0.1729 0.0
C43 C 0.78335 0.02599 0.08331 0.0
C44 C 0.84488 0.14659 0.12791 0.0
O45 O 0.89924 0.06913 0.06475 0.0
O46 O 0.43036 0.94115 0.11299 0.0
Zn47 Zn 0.41646 0.90321 0.14221 0.0
O48 O 0.45481 0.86217 0.1375 0.0
Zn49 Zn 0.50232 0.87436 0.15537 0.0
Zn50 Zn 0.4638 0.85759 0.10089 0.0
Zn51 Zn 0.43305 0.81507 0.1501 0.0
O52 O 0.52183 0.82833 0.17693 0.0
O53 O 0.46685 0.7934 0.17738 0.0
O54 O 0.42719 0.93132 0.17716 0.0
O55 O 0.49072 0.91677 0.18057 0.0
O56 O 0.54212 0.89354 0.12987 0.0
O57 O 0.51872 0.87361 0.0922 0.0
O58 O 0.45339 0.80373 0.08745 0.0
O59 O 0.36258 0.87402 0.13878 0.0
O60 O 0.43055 0.77472 0.12231 0.0
O61 O 0.3788 0.82325 0.16309 0.0
C62 C 0.43478 0.93211 0.08944 0.0
C63 C 0.50167 0.79951 0.18526 0.0
C64 C 0.54515 0.89 0.10565 0.0
C65 C 0.46049 0.9352 0.18846 0.0
C66 C 0.43952 0.77374 0.09867 0.0
C67 C 0.35311 0.84261 0.15082 0.0
O68 O 0.43071 0.89662 0.08257 0.0
O69 O 0.55271 0.41753 0.10644 0.0
Zn70 Zn 0.59012 0.41448 0.13772 0.0
O71 O 0.62182 0.46208 0.13289 0.0
Zn72 Zn 0.59939 0.50519 0.15143 0.0
Zn73 Zn 0.62336 0.47348 0.09615 0.0
Zn74 Zn 0.67378 0.4547 0.1442 0.0
O75 O 0.63879 0.53232 0.17497 0.0
O76 O 0.68608 0.48745 0.17454 0.0
O77 O 0.5566 0.42013 0.1712 0.0
O78 O 0.55947 0.48479 0.17558 0.0
O79 O 0.57117 0.54039 0.1268 0.0
O80 O 0.58836 0.51893 0.08813 0.0
O81 O 0.67759 0.48382 0.08231 0.0
O82 O 0.62894 0.36639 0.13977 0.0
O83 O 0.71176 0.46857 0.117 0.0
O84 O 0.68253 0.39915 0.15182 0.0
C85 C 0.56323 0.42439 0.08337 0.0
C86 C 0.67104 0.51858 0.18368 0.0
C87 C 0.56887 0.54191 0.10247 0.0
C88 C 0.54619 0.45173 0.18267 0.0
C89 C 0.71024 0.47933 0.09376 0.0
C90 C 0.66465 0.36707 0.14781 0.0
O91 O 0.59963 0.42757 0.07861 0.0
O92 O 0.0811 0.94395 0.41179 0.0
Zn93 Zn 0.08273 0.90614 0.38062 0.0
O94 O 0.03656 0.8728 0.3876 0.0
Zn95 Zn 0.99125 0.89053 0.36894 0.0
Zn96 Zn 0.02555 0.87418 0.4243 0.0
Zn97 Zn 0.04586 0.8202 0.37892 0.0
O98 O 0.96422 0.84713 0.34846 0.0
O99 O 0.01332 0.80429 0.34936 0.0
O100 O 0.07288 0.93847 0.34671 0.0
O101 O 0.00898 0.92756 0.3424 0.0
O102 O 0.95717 0.92256 0.39228 0.0
O103 O 0.98146 0.91132 0.43121 0.0
O104 O 0.0131 0.82136 0.43973 0.0
O105 O 0.13264 0.86943 0.37726 0.0
O106 O 0.03219 0.78423 0.40729 0.0
O107 O 0.10152 0.81272 0.37105 0.0
C108 C 0.07579 0.93434 0.43525 0.0
C109 C 0.98042 0.81563 0.34049 0.0
C110 C 0.9576 0.92867 0.41634 0.0
C111 C 0.04031 0.94406 0.33484 0.0
C112 C 0.01906 0.78777 0.42991 0.0
C113 C 0.13299 0.83261 0.37195 0.0
O114 O 0.07229 0.89827 0.44077 0.0
O115 O 0.56033 0.05217 0.43051 0.0
Zn116 Zn 0.59271 0.07174 0.39971 0.0
O117 O 0.6372 0.03674 0.39893 0.0
Zn118 Zn 0.62814 0.99225 0.37759 0.0
Zn119 Zn 0.64816 0.02021 0.43386 0.0
Zn120 Zn 0.68 0.06445 0.38417 0.0
O121 O 0.67251 0.9804 0.35335 0.0
O122 O 0.69881 0.03972 0.35175 0.0
O123 O 0.56068 0.06363 0.36583 0.0
O124 O 0.58324 0.00465 0.35461 0.0
O125 O 0.61796 0.94533 0.39893 0.0
O126 O 0.63999 0.96193 0.43752 0.0
O127 O 0.70309 0.03497 0.44437 0.0
O128 O 0.61726 0.12788 0.4042 0.0
O129 O 0.72408 0.06568 0.40941 0.0
O130 O 0.66626 0.11959 0.37675 0.0
C131 C 0.57182 0.04265 0.45301 0.0
C132 C 0.69543 0.00511 0.343 0.0
C133 C 0.62562 0.93684 0.42212 0.0
C134 C 0.56049 0.03374 0.35088 0.0
C135 C 0.72955 0.05368 0.43222 0.0
C136 C 0.64584 0.14175 0.39098 0.0
O137 O 0.60828 0.04156 0.45836 0.0
O138 O 0.40604 0.54023 0.42395 0.0
Zn139 Zn 0.40299 0.57412 0.39123 0.0
O140 O 0.4494 0.60652 0.39526 0.0
Zn141 Zn 0.49337 0.58664 0.37667 0.0
Zn142 Zn 0.4621 0.61075 0.4314 0.0
Zn143 Zn 0.4411 0.65697 0.38258 0.0
O144 O 0.51954 0.62883 0.355 0.0
O145 O 0.46383 0.66093 0.3475 0.0
O146 O 0.41 0.53962 0.35847 0.0
O147 O 0.47387 0.54828 0.35101 0.0
O148 O 0.52898 0.55805 0.40086 0.0
O149 O 0.50662 0.57477 0.43936 0.0
O150 O 0.4793 0.66525 0.4417 0.0
O151 O 0.35474 0.61179 0.3881 0.0
O152 O 0.4707 0.69431 0.40409 0.0
O153 O 0.38422 0.6698 0.38321 0.0
C154 C 0.41291 0.55242 0.44672 0.0
C155 C 0.49901 0.65221 0.3414 0.0
C156 C 0.52998 0.55548 0.42519 0.0
C157 C 0.44112 0.53261 0.34543 0.0
C158 C 0.48333 0.69467 0.42698 0.0
C159 C 0.35326 0.64922 0.38536 0.0
O160 O 0.41649 0.58909 0.4505 0.0
O161 O 0.93939 0.42725 0.42005 0.0
Zn162 Zn 0.90241 0.41274 0.39031 0.0
O163 O 0.86298 0.45313 0.39244 0.0
Zn164 Zn 0.8797 0.49805 0.37397 0.0
Zn165 Zn 0.85667 0.46534 0.42858 0.0
Zn166 Zn 0.81531 0.43408 0.37823 0.0
O167 O 0.83583 0.52042 0.35233 0.0
O168 O 0.79706 0.46806 0.34903 0.0
O169 O 0.93265 0.41855 0.3557 0.0
O170 O 0.91993 0.48165 0.34848 0.0
O171 O 0.90139 0.53749 0.39869 0.0
O172 O 0.87428 0.52043 0.43587 0.0
O173 O 0.80161 0.45706 0.44073 0.0
O174 O 0.86987 0.36116 0.39443 0.0
O175 O 0.77361 0.43534 0.4051 0.0
O176 O 0.82073 0.37773 0.36849 0.0
C177 C 0.92939 0.43376 0.44323 0.0
C178 C 0.80645 0.50281 0.34255 0.0
C179 C 0.89498 0.54361 0.4224 0.0
C180 C 0.93703 0.4498 0.34236 0.0
C181 C 0.77174 0.4443 0.42872 0.0
C182 C 0.83828 0.35233 0.38222 0.0
O183 O 0.89331 0.43253 0.44933 0.0
O184 O 0.91566 0.45469 0.9214 0.0
Zn185 Zn 0.90293 0.41937 0.89059 0.0
O186 O 0.94602 0.38256 0.89166 0.0
Zn187 Zn 0.98987 0.40119 0.87259 0.0
Zn188 Zn 0.95988 0.37612 0.92743 0.0
Zn189 Zn 0.93083 0.3343 0.87724 0.0
O190 O 0.01359 0.35852 0.85028 0.0
O191 O 0.95795 0.32571 0.84384 0.0
O192 O 0.9072 0.45151 0.85664 0.0
O193 O 0.97038 0.44089 0.8476 0.0
O194 O 0.02871 0.42567 0.89668 0.0
O195 O 0.01114 0.40227 0.93475 0.0
O196 O 0.96314 0.31975 0.93766 0.0
O197 O 0.85223 0.38512 0.89409 0.0
O198 O 0.94628 0.29108 0.90111 0.0
O199 O 0.87284 0.33109 0.87408 0.0
C200 C 0.9225 0.44243 0.94408 0.0
C201 C 0.99313 0.33398 0.83759 0.0
C202 C 0.03378 0.42271 0.92079 0.0
C203 C 0.93764 0.45727 0.84266 0.0
C204 C 0.95734 0.28907 0.92436 0.0
C205 C 0.84563 0.35107 0.88447 0.0
O206 O 0.92118 0.40581 0.9484 0.0
O207 O 0.0585 0.91743 0.91402 0.0
Zn208 Zn 0.09368 0.91549 0.88098 0.0
O209 O 0.12854 0.96038 0.88515 0.0
Zn210 Zn 0.10894 0.00498 0.86693 0.0
Zn211 Zn 0.13274 0.97199 0.92134 0.0
Zn212 Zn 0.17985 0.94809 0.87365 0.0
O213 O 0.15146 0.03216 0.8465 0.0
O214 O 0.2001 0.98887 0.84977 0.0
O215 O 0.05913 0.92399 0.84787 0.0
O216 O 0.06857 0.98781 0.8419 0.0
O217 O 0.08368 0.04157 0.89163 0.0
O218 O 0.1031 0.02108 0.93004 0.0
O219 O 0.18792 0.97622 0.9342 0.0
O220 O 0.13116 0.8662 0.87754 0.0
O221 O 0.2182 0.94548 0.90251 0.0
O222 O 0.18063 0.89595 0.85752 0.0
C223 C 0.07159 0.92105 0.9369 0.0
C224 C 0.18626 0.02098 0.84133 0.0
C225 C 0.08409 0.04477 0.9159 0.0
C226 C 0.052 0.95584 0.83559 0.0
C227 C 0.21831 0.96007 0.92486 0.0
C228 C 0.16371 0.86483 0.86504 0.0
O229 O 0.10756 0.92879 0.94066 0.0
O230 O 0.58338 0.04813 0.9326 0.0
Zn231 Zn 0.5896 0.07797 0.89779 0.0
O232 O 0.54593 0.11478 0.89752 0.0
Zn233 Zn 0.50179 0.09596 0.8789 0.0
Zn234 Zn 0.53186 0.12235 0.93277 0.0
Zn235 Zn 0.55951 0.1635 0.88288 0.0
O236 O 0.47873 0.13662 0.85471 0.0
O237 O 0.53425 0.16972 0.84872 0.0
O238 O 0.58321 0.0407 0.86569 0.0
O239 O 0.5205 0.0531 0.85658 0.0
O240 O 0.46321 0.07226 0.90289 0.0
O241 O 0.48501 0.08915 0.94157 0.0
O242 O 0.52073 0.17828 0.94117 0.0
O243 O 0.64039 0.11282 0.8975 0.0
O244 O 0.54079 0.20718 0.90548 0.0
O245 O 0.61726 0.16853 0.88085 0.0
C246 C 0.5809 0.06627 0.95402 0.0
C247 C 0.49955 0.16061 0.84186 0.0
C248 C 0.46085 0.07121 0.92717 0.0
C249 C 0.5521 0.0343 0.85234 0.0
C250 C 0.52653 0.209 0.92797 0.0
C251 C 0.64566 0.14775 0.88893 0.0
O252 O 0.57611 0.10317 0.95403 0.0
O253 O 0.44844 0.58298 0.92857 0.0
Zn254 Zn 0.4167 0.59 0.89423 0.0
O255 O 0.37552 0.55029 0.89752 0.0
Zn256 Zn 0.38828 0.50386 0.87902 0.0
Zn257 Zn 0.36896 0.53832 0.93347 0.0
Zn258 Zn 0.32656 0.56723 0.88498 0.0
O259 O 0.34328 0.48408 0.85715 0.0
O260 O 0.31533 0.54229 0.85137 0.0
O261 O 0.45121 0.57684 0.86173 0.0
O262 O 0.43093 0.51601 0.85435 0.0
O263 O 0.40887 0.46403 0.90316 0.0
O264 O 0.39648 0.48771 0.94204 0.0
O265 O 0.31247 0.53383 0.94438 0.0
O266 O 0.38781 0.64449 0.89 0.0
O267 O 0.28329 0.55333 0.90872 0.0
O268 O 0.32645 0.6244 0.88237 0.0
C269 C 0.43277 0.58171 0.95089 0.0
C270 C 0.32045 0.50676 0.84473 0.0
C271 C 0.41093 0.4616 0.92742 0.0
C272 C 0.45287 0.5449 0.84873 0.0
C273 C 0.28148 0.54118 0.93166 0.0
C274 C 0.35139 0.65163 0.88523 0.0
O275 O 0.39562 0.58052 0.95294 0.0
O276 O 0.9258 0.05627 0.59228 0.0
Zn277 Zn 0.91192 0.08541 0.6264 0.0
O278 O 0.9503 0.12689 0.62931 0.0
Zn279 Zn 0.99392 0.11234 0.64993 0.0
Zn280 Zn 0.96724 0.14058 0.59537 0.0
Zn281 Zn 0.92564 0.17055 0.64514 0.0
O282 O 0.01232 0.15603 0.67337 0.0
O283 O 0.95705 0.19042 0.6745 0.0
O284 O 0.91807 0.04936 0.65908 0.0
O285 O 0.9768 0.06946 0.67284 0.0
O286 O 0.03665 0.09415 0.62692 0.0
O287 O 0.02332 0.12369 0.58989 0.0
O288 O 0.96011 0.19772 0.58812 0.0
O289 O 0.85866 0.11669 0.6242 0.0
O290 O 0.92199 0.21536 0.62059 0.0
O291 O 0.8718 0.15669 0.65633 0.0
C292 C 0.93223 0.073 0.57072 0.0
C293 C 0.99174 0.18392 0.68253 0.0
C294 C 0.04532 0.10234 0.60383 0.0
C295 C 0.94679 0.04757 0.67506 0.0
C296 C 0.93887 0.22305 0.59946 0.0
C297 C 0.8478 0.14366 0.63982 0.0
O298 O 0.93725 0.10987 0.5695 0.0
O299 O 0.44406 0.90492 0.61198 0.0
Zn300 Zn 0.4115 0.90651 0.6462 0.0
O301 O 0.38349 0.95679 0.64462 0.0
Zn302 Zn 0.41028 0.9967 0.66376 0.0
Zn303 Zn 0.38125 0.97091 0.60891 0.0
Zn304 Zn 0.33081 0.95332 0.65606 0.0
O305 O 0.37331 0.02746 0.6866 0.0
O306 O 0.32113 0.98834 0.68585 0.0
O307 O 0.44863 0.90772 0.67836 0.0
O308 O 0.4476 0.97145 0.6878 0.0
O309 O 0.44069 0.031 0.63988 0.0
O310 O 0.42159 0.01172 0.60113 0.0
O311 O 0.32917 0.99073 0.59694 0.0
O312 O 0.36821 0.86218 0.64975 0.0
O313 O 0.29273 0.9702 0.62927 0.0
O314 O 0.31811 0.89845 0.66383 0.0
C315 C 0.42843 0.91093 0.59003 0.0
C316 C 0.33926 0.01803 0.69465 0.0
C317 C 0.44269 0.03312 0.61557 0.0
C318 C 0.45978 0.93688 0.69209 0.0
C319 C 0.29586 0.98558 0.60724 0.0
C320 C 0.33318 0.86521 0.65884 0.0
O321 O 0.39342 0.92337 0.58877 0.0
O322 O 0.57434 0.44544 0.60301 0.0
Zn323 Zn 0.58864 0.41427 0.63627 0.0
O324 O 0.55085 0.37212 0.63723 0.0
Zn325 Zn 0.50576 0.38534 0.65675 0.0
Zn326 Zn 0.53717 0.36164 0.60223 0.0
Zn327 Zn 0.5744 0.32719 0.6521 0.0
O328 O 0.48653 0.33988 0.67843 0.0
O329 O 0.54307 0.30778 0.68151 0.0
O330 O 0.58116 0.44753 0.67014 0.0
O331 O 0.52167 0.42644 0.68156 0.0
O332 O 0.46437 0.40515 0.63288 0.0
O333 O 0.48259 0.38159 0.59491 0.0
O334 O 0.54209 0.30501 0.59343 0.0
O335 O 0.64213 0.38366 0.63307 0.0
O336 O 0.57487 0.28277 0.6271 0.0
O337 O 0.62951 0.33814 0.66216 0.0
C338 C 0.57218 0.42902 0.58101 0.0
C339 C 0.50754 0.31286 0.6883 0.0
C340 C 0.45852 0.40036 0.60899 0.0
C341 C 0.55161 0.44795 0.68549 0.0
C342 C 0.55977 0.27745 0.60509 0.0
C343 C 0.65326 0.35436 0.64673 0.0
O344 O 0.57257 0.3919 0.5794 0.0
O345 O 0.04825 0.58349 0.60045 0.0
Zn346 Zn 0.07915 0.58818 0.6352 0.0
O347 O 0.11705 0.54493 0.63332 0.0
Zn348 Zn 0.10282 0.50172 0.65458 0.0
Zn349 Zn 0.12002 0.5271 0.59833 0.0
Zn350 Zn 0.16817 0.56018 0.64236 0.0
O351 O 0.14784 0.48218 0.67676 0.0
O352 O 0.18302 0.53693 0.67566 0.0
O353 O 0.04245 0.57935 0.66729 0.0
O354 O 0.06202 0.51964 0.67867 0.0
O355 O 0.07533 0.46139 0.63363 0.0
O356 O 0.08248 0.4824 0.59355 0.0
O357 O 0.17446 0.51096 0.58693 0.0
O358 O 0.11156 0.64062 0.63864 0.0
O359 O 0.20742 0.54048 0.61783 0.0
O360 O 0.17251 0.61741 0.64297 0.0
C361 C 0.06429 0.57892 0.57842 0.0
C362 C 0.17556 0.50358 0.68542 0.0
C363 C 0.06782 0.45892 0.60983 0.0
C364 C 0.04014 0.54937 0.68208 0.0
C365 C 0.20682 0.52085 0.59723 0.0
C366 C 0.14876 0.64597 0.64123 0.0
O367 O 0.10062 0.5708 0.57683 0.0
H368 H 0.78188 0.45279 0.10687 0.0
H369 H 0.7226 0.5292 0.05308 0.0
H370 H 0.78684 0.55665 0.03999 0.0
H371 H 0.83815 0.52044 0.13146 0.0
H372 H 0.88102 0.49054 0.13701 0.0
H373 H 0.83354 0.46819 0.13564 0.0
H374 H 0.85794 0.42182 0.10031 0.0
H375 H 0.90584 0.44438 0.1002 0.0
H376 H 0.87763 0.44128 0.07105 0.0
H377 H 0.85483 0.58619 0.04059 0.0
H378 H 0.91755 0.61526 0.05571 0.0
H379 H 0.92959 0.52149 0.1109 0.0
C380 C 0.78253 0.47424 0.09161 0.0
C381 C 0.74752 0.48904 0.08102 0.0
C382 C 0.74929 0.51725 0.06125 0.0
C383 C 0.78566 0.53292 0.05369 0.0
C384 C 0.81966 0.51954 0.06589 0.0
C385 C 0.81823 0.49036 0.08427 0.0
C386 C 0.85685 0.48585 0.09811 0.0
C387 C 0.85206 0.49165 0.12724 0.0
C388 C 0.87572 0.44599 0.09204 0.0
C389 C 0.87946 0.519 0.08609 0.0
C390 C 0.85834 0.5373 0.06687 0.0
C391 C 0.87199 0.57148 0.05514 0.0
C392 C 0.90746 0.58788 0.06385 0.0
C393 C 0.92783 0.57051 0.08449 0.0
C394 C 0.91429 0.53516 0.09506 0.0
H395 H 0.06146 0.78647 0.12348 0.0
H396 H 0.02157 0.7361 0.05189 0.0
H397 H 0.99705 0.80079 0.03836 0.0
H398 H 0.98232 0.8323 0.13653 0.0
H399 H 0.00241 0.87608 0.15073 0.0
H400 H 0.03056 0.83179 0.15084 0.0
H401 H 0.08803 0.86654 0.12763 0.0
H402 H 0.06028 0.91161 0.12794 0.0
H403 H 0.07896 0.89252 0.09819 0.0
H404 H 0.96165 0.86445 0.03762 0.0
H405 H 0.91882 0.91992 0.05015 0.0
H406 H 0.9785 0.92656 0.12326 0.0
C407 C 0.04913 0.78939 0.10448 0.0
C408 C 0.04308 0.75634 0.08886 0.0
C409 C 0.02651 0.76113 0.06421 0.0
C410 C 0.01271 0.79787 0.05628 0.0
C411 C 0.01622 0.82941 0.07309 0.0
C412 C 0.03473 0.82561 0.09657 0.0
C413 C 0.02786 0.86098 0.11334 0.0
C414 C 0.00968 0.84956 0.13934 0.0
C415 C 0.06606 0.8843 0.11697 0.0
C416 C -0.00081 0.88318 0.09682 0.0
C417 C 0.99423 0.8657 0.07317 0.0
C418 C 0.96592 0.87886 0.05585 0.0
C419 C 0.94148 0.90999 0.06319 0.0
C420 C 0.94496 0.92653 0.08789 0.0
C421 C 0.97496 0.91383 0.10442 0.0
H422 H 0.57317 0.96185 0.11606 0.0
H423 H 0.58927 0.86252 0.06559 0.0
H424 H 0.64722 0.89512 0.04617 0.0
H425 H 0.60842 0.03846 0.06834 0.0
H426 H 0.62987 0.06665 0.0939 0.0
H427 H 0.58591 0.03844 0.09952 0.0
H428 H 0.621 0.00277 0.13718 0.0
H429 H 0.66461 0.03073 0.13141 0.0
H430 H 0.6669 0.97793 0.13126 0.0
H431 H 0.7106 0.93213 0.0396 0.0
H432 H 0.772 0.96935 0.04647 0.0
H433 H 0.71039 0.04717 0.09834 0.0
C434 C 0.58865 0.94731 0.10064 0.0
C435 C 0.57773 0.90957 0.09259 0.0
C436 C 0.5978 0.89144 0.07209 0.0
C437 C 0.63038 0.90987 0.06085 0.0
C438 C 0.64126 0.94689 0.06978 0.0
C439 C 0.62037 0.96567 0.0889 0.0
C440 C 0.63972 0.00344 0.09694 0.0
C441 C 0.61446 0.03886 0.08922 0.0
C442 C 0.6486 0.00367 0.12588 0.0
C443 C 0.67671 0.00132 0.08109 0.0
C444 C 0.6768 0.9691 0.06501 0.0
C445 C 0.71041 0.95812 0.05147 0.0
C446 C 0.74518 0.97946 0.05544 0.0
C447 C 0.74589 0.01105 0.07299 0.0
C448 C 0.71065 0.02331 0.08468 0.0
H449 H 0.4152 0.704 0.11769 0.0
H450 H 0.46905 0.75671 0.05103 0.0
H451 H 0.49317 0.69204 0.03753 0.0
H452 H 0.48845 0.65866 0.13642 0.0
H453 H 0.46716 0.61363 0.14794 0.0
H454 H 0.43762 0.6568 0.14614 0.0
H455 H 0.38711 0.62139 0.11719 0.0
H456 H 0.41612 0.57724 0.11949 0.0
H457 H 0.40339 0.59681 0.08857 0.0
H458 H 0.52991 0.62984 0.03916 0.0
H459 H 0.57358 0.57755 0.05554 0.0
H460 H 0.50074 0.56695 0.12304 0.0
C461 C 0.43026 0.70154 0.09954 0.0
C462 C 0.44081 0.73531 0.08567 0.0
C463 C 0.46069 0.73118 0.06206 0.0
C464 C 0.47441 0.69439 0.05416 0.0
C465 C 0.46758 0.66212 0.06992 0.0
C466 C 0.44499 0.6652 0.09191 0.0
C467 C 0.44952 0.62943 0.10875 0.0
C468 C 0.46145 0.64034 0.13638 0.0
C469 C 0.41179 0.60475 0.10847 0.0
C470 C 0.48217 0.60865 0.09473 0.0
C471 C 0.4906 0.62647 0.07161 0.0
C472 C 0.52292 0.61512 0.05691 0.0
C473 C 0.54781 0.58578 0.06645 0.0
C474 C 0.54081 0.56928 0.09081 0.0
C475 C 0.50686 0.57976 0.10452 0.0
H476 H 0.90437 0.92571 0.45507 0.0
H477 H 0.95786 0.00321 0.39978 0.0
H478 H 0.91446 0.05688 0.41354 0.0
H479 H 0.81543 0.94444 0.44027 0.0
H480 H 0.79277 0.94349 0.47145 0.0
H481 H 0.83785 0.91785 0.4663 0.0
H482 H 0.86995 0.95665 0.50352 0.0
H483 H 0.82445 0.98276 0.50853 0.0
H484 H 0.86935 0.00944 0.50312 0.0
H485 H 0.85698 0.09425 0.42277 0.0
H486 H 0.7862 0.10624 0.41943 0.0
H487 H 0.76349 0.00494 0.467 0.0
C488 C 0.90756 0.95459 0.44675 0.0
C489 C 0.93401 0.96083 0.42655 0.0
C490 C 0.93732 -0.00181 0.41526 0.0
C491 C 0.91333 0.02898 0.42335 0.0
C492 C 0.88574 0.02174 0.44247 0.0
C493 C 0.88256 0.98528 0.45402 0.0
C494 C 0.84447 0.9819 0.46879 0.0
C495 C 0.82128 0.94479 0.46119 0.0
C496 C 0.85254 0.98275 0.4977 0.0
C497 C 0.82421 0.01934 0.46029 0.0
C498 C 0.84987 0.04334 0.44697 0.0
C499 C 0.83684 0.07625 0.43362 0.0
C500 C 0.79647 0.08275 0.43168 0.0
C501 C 0.76965 0.05606 0.44268 0.0
C502 C 0.78365 0.02597 0.45879 0.0
H503 H 0.62075 0.87091 0.39397 0.0
H504 H 0.60293 0.91571 0.47066 0.0
H505 H 0.57086 0.85325 0.48291 0.0
H506 H 0.53121 0.83168 0.38699 0.0
H507 H 0.54614 0.78942 0.3687 0.0
H508 H 0.57526 0.8332 0.36788 0.0
H509 H 0.63665 0.79418 0.38268 0.0
H510 H 0.60776 0.74995 0.3831 0.0
H511 H 0.6342 0.76493 0.41134 0.0
H512 H 0.53163 0.78895 0.48424 0.0
H513 H 0.49053 0.73047 0.47432 0.0
H514 H 0.53347 0.73228 0.39632 0.0
C515 C 0.61127 0.8671 0.41358 0.0
C516 C 0.61439 0.89778 0.43141 0.0
C517 C 0.6013 0.8921 0.45684 0.0
C518 C 0.58298 0.85681 0.46392 0.0
C519 C 0.57867 0.82765 0.44539 0.0
C520 C 0.59305 0.83243 0.42082 0.0
C521 C 0.58104 0.79934 0.40344 0.0
C522 C 0.55698 0.81433 0.38043 0.0
C523 C 0.61706 0.77569 0.39464 0.0
C524 C 0.55604 0.77605 0.42162 0.0
C525 C 0.55549 0.79199 0.44592 0.0
C526 C 0.53231 0.77597 0.46536 0.0
C527 C 0.50901 0.74302 0.4596 0.0
C528 C 0.50856 0.72756 0.43451 0.0
C529 C 0.53287 0.74396 0.4156 0.0
H530 H 0.5589 0.48885 0.40482 0.0
H531 H 0.56421 0.56197 0.47239 0.0
H532 H 0.61995 0.52278 0.48859 0.0
H533 H 0.5994 0.39368 0.43878 0.0
H534 H 0.62478 0.38083 0.40971 0.0
H535 H 0.57749 0.40467 0.40822 0.0
H536 H 0.60718 0.45919 0.3797 0.0
H537 H 0.654 0.43571 0.38103 0.0
H538 H 0.64935 0.4861 0.39103 0.0
H539 H 0.68554 0.49282 0.48956 0.0
H540 H 0.7522 0.47466 0.47573 0.0
H541 H 0.70352 0.41649 0.4092 0.0
C542 C 0.57117 0.49567 0.4234 0.0
C543 C 0.55829 0.5287 0.43712 0.0
C544 C 0.57421 0.53686 0.4615 0.0
C545 C 0.60554 0.51447 0.47096 0.0
C546 C 0.61952 0.48341 0.45612 0.0
C547 C 0.60198 0.47327 0.43314 0.0
C548 C 0.62607 0.44344 0.41867 0.0
C549 C 0.60572 0.40327 0.41887 0.0
C550 C 0.63468 0.457 0.39103 0.0
C551 C 0.66257 0.44289 0.43512 0.0
C552 C 0.65762 0.46459 0.45729 0.0
C553 C 0.68943 0.47456 0.47283 0.0
C554 C 0.72731 0.46429 0.46474 0.0
C555 C 0.73289 0.44464 0.44119 0.0
C556 C 0.69998 0.43146 0.42731 0.0
H557 H 0.04507 0.71442 0.42081 0.0
H558 H 0.96255 0.78003 0.46715 0.0
H559 H 0.92877 0.71834 0.47854 0.0
H560 H 0.98054 0.662 0.39121 0.0
H561 H 0.00749 0.6166 0.38901 0.0
H562 H 0.03351 0.66194 0.39203 0.0
H563 H 0.06932 0.63622 0.4323 0.0
H564 H 0.04363 0.59017 0.42961 0.0
H565 H 0.04124 0.61791 0.45892 0.0
H566 H 0.89485 0.65302 0.47591 0.0
H567 H 0.86491 0.59162 0.45964 0.0
H568 H 0.96762 0.57102 0.4127 0.0
C569 C 0.02097 0.71558 0.4343 0.0
C570 C 0.00633 0.75179 0.44309 0.0
C571 C 0.9745 0.75244 0.46046 0.0
C572 C 0.95514 0.7175 0.467 0.0
C573 C 0.96846 0.6824 0.45629 0.0
C574 C 0.00122 0.68123 0.44062 0.0
C575 C 0.00567 0.64189 0.42766 0.0
C576 C 0.00682 0.6459 0.39827 0.0
C577 C 0.04214 0.62025 0.43773 0.0
C578 C 0.96849 0.62226 0.4366 0.0
C579 C 0.94811 0.64525 0.45391 0.0
C580 C 0.91101 0.63445 0.46284 0.0
C581 C 0.89412 0.59978 0.45341 0.0
C582 C 0.91394 0.57729 0.43471 0.0
C583 C 0.95189 0.5881 0.42685 0.0
H584 H 0.06592 0.49039 0.90403 0.0
H585 H 0.07339 0.40457 0.96489 0.0
H586 H 0.13263 0.43771 0.98172 0.0
H587 H 0.15879 0.4938 0.88836 0.0
H588 H 0.16248 0.54572 0.8824 0.0
H589 H 0.11588 0.52185 0.87964 0.0
H590 H 0.08596 0.57032 0.91254 0.0
H591 H 0.13285 0.59452 0.91546 0.0
H592 H 0.10849 0.57585 0.94353 0.0
H593 H 0.19883 0.46901 0.98458 0.0
H594 H 0.26398 0.49621 0.97382 0.0
H595 H 0.21108 0.56432 0.91284 0.0
C596 C 0.07959 0.47916 0.92125 0.0
C597 C 0.06589 0.44466 0.9329 0.0
C598 C 0.08386 0.43093 0.9556 0.0
C599 C 0.11724 0.44977 0.96541 0.0
C600 C 0.13125 0.48289 0.95272 0.0
C601 C 0.11232 0.49799 0.93145 0.0
C602 C 0.13551 0.53072 0.91931 0.0
C603 C 0.14366 0.52247 0.89078 0.0
C604 C 0.11445 0.5702 0.92294 0.0
C605 C 0.17244 0.52873 0.93525 0.0
C606 C 0.16907 0.50198 0.95501 0.0
C607 C 0.20146 0.49098 0.96976 0.0
C608 C 0.2384 0.50647 0.96347 0.0
C609 C 0.24248 0.53219 0.94241 0.0
C610 C 0.20876 0.54485 0.92911 0.0
H611 H 0.93783 0.21818 0.9047 0.0
H612 H 0.00114 0.27286 0.9672 0.0
H613 H 0.03077 0.20903 0.97818 0.0
H614 H 0.92876 0.11533 0.93544 0.0
H615 H 0.93622 0.09304 0.90458 0.0
H616 H 0.91021 0.13897 0.90706 0.0
H617 H 0.9588 0.17006 0.87479 0.0
H618 H 0.98521 0.1248 0.87243 0.0
H619 H 0.01074 0.1689 0.8816 0.0
H620 H 0.06535 0.14456 0.97556 0.0
H621 H 0.10056 0.08576 0.95973 0.0
H622 H 0.01633 0.075 0.89797 0.0
C623 C 0.95669 0.21641 0.92134 0.0
C624 C 0.96739 0.25035 0.935 0.0
C625 C 0.99239 0.24708 0.95654 0.0
C626 C 0.00925 0.21089 0.96298 0.0
C627 C 0.00018 0.17834 0.94797 0.0
C628 C 0.9738 0.18068 0.92785 0.0
C629 C 0.97389 0.14375 0.91193 0.0
C630 C 0.93495 0.12145 0.91494 0.0
C631 C 0.98273 0.15244 0.88354 0.0
C632 C 0.00712 0.12195 0.92462 0.0
C633 C 0.02091 0.14141 0.94602 0.0
C634 C 0.05415 0.12855 0.95925 0.0
C635 C 0.07409 0.09538 0.95008 0.0
C636 C 0.0611 0.07637 0.92759 0.0
C637 C 0.02678 0.08927 0.91519 0.0
H638 H 0.24553 0.02094 0.95299 0.0
H639 H 0.27616 0.90547 0.9251 0.0
H640 H 0.34532 0.91712 0.93624 0.0
H641 H 0.31264 0.06734 0.9243 0.0
H642 H 0.32601 0.10341 0.94796 0.0
H643 H 0.27828 0.08156 0.94888 0.0
H644 H 0.28988 0.05842 0.9954 0.0
H645 H 0.33776 0.08104 0.99489 0.0
H646 H 0.33295 0.02996 1.00307 0.0
H647 H 0.40863 0.94749 0.93446 0.0
H648 H 0.46219 0.99298 0.92365 0.0
H649 H 0.39457 0.09014 0.95337 0.0
C650 C 0.26663 0.99741 0.9508 0.0
C651 C 0.25591 0.96232 0.93844 0.0
C652 C 0.28408 0.93247 0.93472 0.0
C653 C 0.32336 0.9388 0.94116 0.0
C654 C 0.33389 0.9751 0.9513 0.0
C655 C 0.30622 0.00377 0.95669 0.0
C656 C 0.32575 0.04281 0.96223 0.0
C657 C 0.30973 0.07564 0.94478 0.0
C658 C 0.32133 0.05369 0.99059 0.0
C659 C 0.36799 0.03275 0.956 0.0
C660 C 0.37219 0.99315 0.9507 0.0
C661 C 0.40628 0.97809 0.93968 0.0
C662 C 0.4364 0.00408 0.93342 0.0
C663 C 0.43237 0.04447 0.93841 0.0
C664 C 0.39849 0.05894 0.95052 0.0
H665 H 0.54542 0.28046 0.90878 0.0
H666 H 0.4805 0.22427 0.96997 0.0
H667 H 0.45322 0.28848 0.9827 0.0
H668 H 0.56123 0.37843 0.94275 0.0
H669 H 0.55477 0.40422 0.91298 0.0
H670 H 0.57709 0.35625 0.9132 0.0
H671 H 0.52515 0.33208 0.88044 0.0
H672 H 0.50272 0.3796 0.88023 0.0
H673 H 0.47368 0.33707 0.88795 0.0
H674 H 0.42326 0.35584 0.98317 0.0
H675 H 0.3926 0.41885 0.97024 0.0
H676 H 0.4765 0.4292 0.90839 0.0
C677 C 0.5264 0.28179 0.92536 0.0
C678 C 0.51493 0.24749 0.93831 0.0
C679 C 0.4898 0.25032 0.95981 0.0
C680 C 0.47434 0.28669 0.96728 0.0
C681 C 0.48494 0.31985 0.95334 0.0
C682 C 0.51088 0.31769 0.933 0.0
C683 C 0.51335 0.35602 0.91873 0.0
C684 C 0.55403 0.37484 0.92213 0.0
C685 C 0.50307 0.35085 0.89018 0.0
C686 C 0.48231 0.37901 0.93279 0.0
C687 C 0.4672 0.35842 0.95331 0.0
C688 C 0.43548 0.37261 0.96752 0.0
C689 C 0.41818 0.40821 0.96006 0.0
C690 C 0.43224 0.42826 0.93828 0.0
C691 C 0.46533 0.41412 0.92511 0.0
H692 H 0.07388 0.03082 0.61457 0.0
H693 H 0.09632 0.13428 0.56894 0.0
H694 H 0.16099 0.10691 0.55628 0.0
H695 H 0.16054 0.02364 0.64164 0.0
H696 H 0.16465 0.97096 0.64156 0.0
H697 H 0.1171 0.99343 0.64112 0.0
H698 H 0.0993 0.95559 0.59957 0.0
H699 H 0.147 0.93252 0.60017 0.0
H700 H 0.13115 0.95889 0.57214 0.0
H701 H 0.22767 0.07547 0.55702 0.0
H702 H 0.28928 0.04352 0.57106 0.0
H703 H 0.22177 0.96037 0.61563 0.0
C704 C 0.09204 0.04717 0.60134 0.0
C705 C 0.08077 0.08464 0.5929 0.0
C706 C 0.10477 0.10538 0.57552 0.0
C707 C 0.14131 0.08994 0.56815 0.0
C708 C 0.15249 0.05343 0.57781 0.0
C709 C 0.12807 0.03201 0.59367 0.0
C710 C 0.14841 0.99632 0.60438 0.0
C711 C 0.14765 0.99615 0.63389 0.0
C712 C 0.13039 0.9586 0.5934 0.0
C713 C 0.18924 0.0029 0.5941 0.0
C714 C 0.19089 0.03514 0.57807 0.0
C715 C 0.22656 0.04954 0.56892 0.0
C716 C 0.26139 0.03132 0.57703 0.0
C717 C 0.26003 -0.00032 0.59449 0.0
C718 C 0.22351 0.98446 0.6022 0.0
H719 H 0.58192 0.21036 0.62913 0.0
H720 H 0.52946 0.25371 0.559 0.0
H721 H 0.50717 0.18704 0.5486 0.0
H722 H 0.60233 0.1036 0.60536 0.0
H723 H 0.58896 0.08542 0.63651 0.0
H724 H 0.61381 0.13186 0.63352 0.0
H725 H 0.5578 0.16485 0.65925 0.0
H726 H 0.53236 0.11916 0.66179 0.0
H727 H 0.50793 0.16091 0.64786 0.0
H728 H 0.47377 0.12362 0.5523 0.0
H729 H 0.43533 0.0678 0.56873 0.0
H730 H 0.50776 0.06535 0.63693 0.0
C731 C 0.56749 0.20548 0.61095 0.0
C732 C 0.55714 0.23718 0.59499 0.0
C733 C 0.53766 0.22982 0.57156 0.0
C734 C 0.52505 0.19193 0.56541 0.0
C735 C 0.53262 0.16179 0.58273 0.0
C736 C 0.5542 0.16799 0.60483 0.0
C737 C 0.55171 0.13325 0.62273 0.0
C738 C 0.59158 0.11229 0.62463 0.0
C739 C 0.53652 0.1453 0.64943 0.0
C740 C 0.5222 0.10844 0.6085 0.0
C741 C 0.51266 0.12459 0.58503 0.0
C742 C 0.48196 0.10991 0.57018 0.0
C743 C 0.46009 0.07842 0.57974 0.0
C744 C 0.46884 0.06237 0.60402 0.0
C745 C 0.50089 0.0769 0.61816 0.0
H746 H 0.27897 0.54217 0.61366 0.0
H747 H 0.22035 0.4658 0.55937 0.0
H748 H 0.28393 0.43325 0.55023 0.0
H749 H 0.3767 0.54713 0.58264 0.0
H750 H 0.40232 0.54377 0.61275 0.0
H751 H 0.35525 0.56793 0.61098 0.0
H752 H 0.32637 0.52319 0.6457 0.0
H753 H 0.37299 0.49919 0.64894 0.0
H754 H 0.32963 0.47073 0.64213 0.0
H755 H 0.35146 0.4018 0.55307 0.0
H756 H 0.41428 0.37354 0.56866 0.0
H757 H 0.42469 0.46829 0.62343 0.0
C758 C 0.27951 0.51947 0.59918 0.0
C759 C 0.24473 0.5065 0.58722 0.0
C760 C 0.24676 0.47641 0.56861 0.0
C761 C 0.28275 0.45783 0.5633 0.0
C762 C 0.31616 0.46994 0.57667 0.0
C763 C 0.31466 0.50032 0.59415 0.0
C764 C 0.35225 0.5039 0.60926 0.0
C765 C 0.37289 0.54298 0.60356 0.0
C766 C 0.34484 0.49892 0.63819 0.0
C767 C 0.37471 0.46967 0.59842 0.0
C768 C 0.3541 0.45096 0.57915 0.0
C769 C 0.36808 0.41661 0.56783 0.0
C770 C 0.40358 0.40069 0.57684 0.0
C771 C 0.42375 0.41864 0.59739 0.0
C772 C 0.40955 0.45392 0.6078 0.0
H773 H 0.07154 0.39956 0.57492 0.0
H774 H 0.99423 0.45879 0.62805 0.0
H775 H 0.94174 0.41127 0.61865 0.0
H776 H 0.98964 0.35905 0.53002 0.0
H777 H 0.01601 0.31351 0.52647 0.0
H778 H 0.04258 0.35893 0.53006 0.0
H779 H 0.08034 0.3303 0.5689 0.0
H780 H 0.05455 0.28497 0.56513 0.0
H781 H 0.05294 0.31035 0.59538 0.0
H782 H 0.90435 0.35222 0.61183 0.0
H783 H 0.88951 0.28194 0.61408 0.0
H784 H 0.99088 0.25693 0.56659 0.0
C785 C 0.04294 0.40303 0.58369 0.0
C786 C 0.03632 0.43261 0.60189 0.0
C787 C -0.00061 0.43609 0.61393 0.0
C788 C 0.96931 0.40964 0.60842 0.0
C789 C 0.9768 0.37975 0.59093 0.0
C790 C 0.01284 0.37608 0.57882 0.0
C791 C 0.01629 0.33691 0.56542 0.0
C792 C 0.0161 0.34244 0.53626 0.0
C793 C 0.05316 0.31432 0.57427 0.0
C794 C 0.97863 0.31759 0.57436 0.0
C795 C 0.95523 0.34371 0.5877 0.0
C796 C 0.92186 0.33165 0.60095 0.0
C797 C 0.91375 0.29158 0.60223 0.0
C798 C 0.93936 0.2641 0.59072 0.0
C799 C 0.97055 0.27744 0.57522 0.0
H800 H 0.01353 0.66257 0.23224 0.0
H801 H 0.93718 0.73151 0.1837 0.0
H802 H 0.91463 0.76936 0.2216 0.0
H803 H 0.94688 0.66241 0.29021 0.0
H804 H 0.98859 0.66512 0.31139 0.0
H805 H 0.99268 0.63966 0.28129 0.0
H806 H 0.05228 0.68314 0.2691 0.0
H807 H 0.04835 0.70861 0.29901 0.0
H808 H 0.04697 0.73573 0.26944 0.0
H809 H 0.91081 0.80707 0.26362 0.0
H810 H 0.92515 0.83952 0.30499 0.0
H811 H 0.00057 0.74212 0.32591 0.0
C812 C 0.99113 0.68486 0.22983 0.0
C813 C 0.97677 0.69427 0.20539 0.0
C814 C 0.94799 0.72381 0.20253 0.0
C815 C 0.93507 0.7453 0.22391 0.0
C816 C 0.9506 0.73599 0.2479 0.0
C817 C 0.9775 0.70586 0.25094 0.0
C818 C 0.99262 0.70366 0.27804 0.0
C819 C 0.97938 0.66545 0.291 0.0
C820 C 0.03769 0.70808 0.27893 0.0
C821 C 0.97208 0.73879 0.28949 0.0
C822 C 0.94742 0.75684 0.27207 0.0
C823 C 0.92917 0.79256 0.27763 0.0
C824 C 0.93739 0.81078 0.3012 0.0
C825 C 0.96389 0.79331 0.31871 0.0
C826 C 0.97992 0.75613 0.31305 0.0
H827 H 0.70948 0.05486 0.30398 0.0
H828 H 0.72296 0.9334 0.32669 0.0
H829 H 0.75333 0.91843 0.28458 0.0
H830 H 0.68211 0.03384 0.23896 0.0
H831 H 0.70671 0.0765 0.22649 0.0
H832 H 0.68721 0.07707 0.25849 0.0
H833 H 0.7559 0.09571 0.27639 0.0
H834 H 0.77547 0.09554 0.24445 0.0
H835 H 0.79771 0.06538 0.26878 0.0
H836 H 0.78559 0.91879 0.24011 0.0
H837 H 0.81342 0.93357 0.19737 0.0
H838 H 0.77263 0.05371 0.20433 0.0
C839 C 0.71922 0.02516 0.30023 0.0
C840 C 0.71468 0.99538 0.31862 0.0
C841 C 0.72663 0.95664 0.3128 0.0
C842 C 0.74378 0.94793 0.28899 0.0
C843 C 0.74774 0.97816 0.27119 0.0
C844 C 0.73531 0.01587 0.27654 0.0
C845 C 0.74151 0.04307 0.2542 0.0
C846 C 0.70204 0.05851 0.24393 0.0
C847 C 0.76931 0.0769 0.26139 0.0
C848 C 0.76046 0.01516 0.23556 0.0
C849 C 0.76396 0.97782 0.24554 0.0
C850 C 0.78251 0.94781 0.232 0.0
C851 C 0.7982 0.95645 0.20776 0.0
C852 C 0.79489 0.99468 0.19738 0.0
C853 C 0.77522 0.02402 0.21145 0.0
H854 H 0.4663 0.73459 0.20393 0.0
H855 H 0.5697 0.80723 0.21414 0.0
H856 H 0.58701 0.76904 0.25297 0.0
H857 H 0.4392 0.73623 0.26639 0.0
H858 H 0.41948 0.68723 0.26678 0.0
H859 H 0.42048 0.71444 0.23743 0.0
H860 H 0.46054 0.65901 0.21531 0.0
H861 H 0.45794 0.63161 0.24462 0.0
H862 H 0.50502 0.64144 0.23014 0.0
H863 H 0.5872 0.72779 0.29419 0.0
H864 H 0.56848 0.6913 0.33351 0.0
H865 H 0.46309 0.65019 0.29575 0.0
C866 C 0.49324 0.74207 0.21382 0.0
C867 C 0.51672 0.77386 0.20591 0.0
C868 C 0.55143 0.78272 0.21971 0.0
C869 C 0.56146 0.76116 0.24177 0.0
C870 C 0.53654 0.7309 0.24958 0.0
C871 C 0.50314 0.72153 0.23584 0.0
C872 C 0.47806 0.69178 0.24948 0.0
C873 C 0.43692 0.70845 0.25537 0.0
C874 C 0.4753 0.65367 0.23395 0.0
C875 C 0.50189 0.68629 0.27352 0.0
C876 C 0.53597 0.7084 0.2732 0.0
C877 C 0.56096 0.70993 0.29441 0.0
C878 C 0.55024 0.68913 0.31659 0.0
C879 C 0.51453 0.66803 0.31735 0.0
C880 C 0.49071 0.66595 0.29542 0.0
H881 H 0.74737 0.51198 0.19825 0.0
H882 H 0.63543 0.56036 0.22211 0.0
H883 H 0.66262 0.57234 0.26528 0.0
H884 H 0.76403 0.45847 0.25007 0.0
H885 H 0.81637 0.46549 0.25234 0.0
H886 H 0.79236 0.46992 0.22192 0.0
H887 H 0.81991 0.53981 0.21607 0.0
H888 H 0.84493 0.53583 0.24634 0.0
H889 H 0.81195 0.57619 0.24055 0.0
H890 H 0.69674 0.56436 0.30768 0.0
H891 H 0.73694 0.54237 0.34463 0.0
H892 H 0.82706 0.5012 0.29284 0.0
C893 C 0.72907 0.52659 0.21226 0.0
C894 C 0.68937 0.53541 0.20685 0.0
C895 C 0.6661 0.55392 0.22575 0.0
C896 C 0.6813 0.5607 0.25035 0.0
C897 C 0.72 0.54956 0.25549 0.0
C898 C 0.74387 0.53373 0.23674 0.0
C899 C 0.78273 0.51995 0.24764 0.0
C900 C 0.7892 0.47587 0.2427 0.0
C901 C 0.81689 0.54443 0.23701 0.0
C902 C 0.77616 0.52829 0.27571 0.0
C903 C 0.74005 0.54588 0.2799 0.0
C904 C 0.72559 0.55187 0.30459 0.0
C905 C 0.74843 0.53927 0.32542 0.0
C906 C 0.78519 0.52113 0.32131 0.0
C907 C 0.79948 0.51619 0.29627 0.0
H908 H 0.96017 0.25186 0.69999 0.0
H909 H 0.05643 0.17097 0.71336 0.0
H910 H 0.0748 0.20838 0.75221 0.0
H911 H 0.0084 0.34197 0.72628 0.0
H912 H 0.96242 0.35822 0.73963 0.0
H913 H 0.96281 0.32999 0.71052 0.0
H914 H 0.91528 0.27992 0.73152 0.0
H915 H 0.91537 0.30792 0.76057 0.0
H916 H 0.92913 0.25689 0.76123 0.0
H917 H 0.07639 0.2498 0.79292 0.0
H918 H 0.05898 0.28852 0.8316 0.0
H919 H 0.9604 0.33928 0.79109 0.0
C920 C 0.98575 0.24243 0.71067 0.0
C921 C 0.0069 0.20853 0.70363 0.0
C922 C 0.03999 0.19709 0.71829 0.0
C923 C 0.05067 0.21822 0.74035 0.0
C924 C 0.02823 0.25087 0.7472 0.0
C925 C 0.99658 0.26296 0.73258 0.0
C926 C 0.97417 0.29586 0.74523 0.0
C927 C 0.97717 0.33375 0.72946 0.0
C928 C 0.93097 0.28443 0.74992 0.0
C929 C 0.9968 0.29921 0.76993 0.0
C930 C 0.02858 0.27389 0.77058 0.0
C931 C 0.05204 0.2702 0.7924 0.0
C932 C 0.04208 0.29224 0.81421 0.0
C933 C 0.00859 0.31673 0.81398 0.0
C934 C 0.98638 0.32088 0.79146 0.0
H935 H 0.26152 0.02849 0.70338 0.0
H936 H 0.37657 0.05304 0.73496 0.0
H937 H 0.34577 0.07336 0.77563 0.0
H938 H 0.20548 0.10812 0.74162 0.0
H939 H 0.16391 0.07577 0.74468 0.0
H940 H 0.19382 0.07428 0.71624 0.0
H941 H 0.2049 -0.00013 0.72293 0.0
H942 H 0.17546 0.00113 0.75129 0.0
H943 H 0.2251 0.9828 0.75282 0.0
H944 H 0.30561 0.07124 0.81502 0.0
H945 H 0.25885 0.05174 0.84885 0.0
H946 H 0.16854 0.03377 0.79189 0.0
C947 C 0.28001 0.03983 0.71853 0.0
C948 C 0.32127 0.0394 0.71615 0.0
C949 C 0.34482 0.05375 0.73635 0.0
C950 C 0.32753 0.06535 0.7595 0.0
C951 C 0.2867 0.06341 0.76178 0.0
C952 C 0.26312 0.05195 0.74155 0.0
C953 C 0.22079 0.04691 0.74978 0.0
C954 C 0.19445 0.07815 0.73734 0.0
C955 C 0.20575 0.00522 0.74388 0.0
C956 C 0.22477 0.05388 0.77824 0.0
C957 C 0.26287 0.06417 0.78474 0.0
C958 C 0.27534 0.06502 0.81017 0.0
C959 C 0.2487 0.0539 0.82926 0.0
C960 C 0.21001 0.04271 0.8228 0.0
C961 C 0.19749 0.04415 0.79718 0.0
H962 H 0.53627 0.15718 0.79664 0.0
H963 H 0.43168 0.20212 0.83342 0.0
H964 H 0.41575 0.24036 0.79429 0.0
H965 H 0.56585 0.24052 0.76926 0.0
H966 H 0.58373 0.21959 0.73983 0.0
H967 H 0.58207 0.19021 0.76825 0.0
H968 H 0.53925 0.13852 0.7449 0.0
H969 H 0.54111 0.16765 0.71616 0.0
H970 H 0.49435 0.15355 0.72942 0.0
H971 H 0.4192 0.28286 0.75415 0.0
H972 H 0.43957 0.32223 0.71659 0.0
H973 H 0.54054 0.24607 0.70645 0.0
C974 C 0.50928 0.17403 0.79603 0.0
C975 C 0.48499 0.1768 0.81768 0.0
C976 C 0.45022 0.1994 0.81668 0.0
C977 C 0.44107 0.22115 0.7946 0.0
C978 C 0.46659 0.21897 0.77372 0.0
C979 C 0.49955 0.19516 0.77414 0.0
C980 C 0.52441 0.2004 0.75051 0.0
C981 C 0.56646 0.21348 0.75739 0.0
C982 C 0.52478 0.16279 0.73429 0.0
C983 C 0.50175 0.23264 0.73738 0.0
C984 C 0.46814 0.24272 0.75068 0.0
C985 C 0.44491 0.27452 0.74326 0.0
C986 C 0.45672 0.29677 0.72195 0.0
C987 C 0.49164 0.28724 0.7086 0.0
C988 C 0.51361 0.25412 0.71615 0.0
H989 H 0.23421 0.54448 0.70807 0.0
H990 H 0.16906 0.43555 0.71407 0.0
H991 H 0.20525 0.41979 0.754 0.0
H992 H 0.32762 0.50998 0.73499 0.0
H993 H 0.33555 0.55589 0.75125 0.0
H994 H 0.3089 0.55487 0.72147 0.0
H995 H 0.25016 0.59012 0.74324 0.0
H996 H 0.27645 0.59109 0.77302 0.0
H997 H 0.22845 0.56895 0.77147 0.0
H998 H 0.24599 0.41945 0.79563 0.0
H999 H 0.28302 0.43671 0.83513 0.0
H1000 H 0.31639 0.5474 0.80097 0.0
C1001 C 0.22786 0.51685 0.71737 0.0
C1002 C 0.19886 0.49118 0.70788 0.0
C1003 C 0.19134 0.45559 0.72095 0.0
C1004 C 0.21182 0.44637 0.74357 0.0
C1005 C 0.23964 0.47302 0.75268 0.0
C1006 C 0.24751 0.50753 0.73984 0.0
C1007 C 0.27551 0.53343 0.75442 0.0
C1008 C 0.31419 0.53883 0.73965 0.0
C1009 C 0.25649 0.57321 0.76092 0.0
C1010 C 0.28145 0.50876 0.77796 0.0
C1011 C 0.2614 0.47358 0.77657 0.0
C1012 C 0.26196 0.4468 0.79678 0.0
C1013 C 0.28299 0.45673 0.81906 0.0
C1014 C 0.30207 0.49342 0.8209 0.0
C1015 C 0.30175 0.51925 0.79998 0.0
H1016 H 0.1911 0.68218 0.18293 0.0
H1017 H 0.1872 0.65566 0.10199 0.0
H1018 H 0.23601 0.70797 0.09378 0.0
H1019 H 0.19719 0.78256 0.17868 0.0
H1020 H 0.2318 0.78983 0.20435 0.0
H1021 H 0.19993 0.74775 0.20455 0.0
H1022 H 0.25964 0.7008 0.20748 0.0
H1023 H 0.29162 0.74279 0.20847 0.0
H1024 H 0.29903 0.70533 0.18464 0.0
H1025 H 0.27809 0.77017 0.0941 0.0
H1026 H 0.32371 0.82471 0.10385 0.0
H1027 H 0.30351 0.80748 0.18483 0.0
C1028 C 0.20198 0.68617 0.16364 0.0
C1029 C 0.18601 0.66426 0.14314 0.0
C1030 C 0.19994 0.6712 0.11805 0.0
C1031 C 0.2271 0.70142 0.11317 0.0
C1032 C 0.2406 0.72395 0.13368 0.0
C1033 C 0.22969 0.71559 0.15855 0.0
C1034 C 0.24865 0.74387 0.17724 0.0
C1035 C 0.21752 0.76738 0.19207 0.0
C1036 C 0.2764 0.72189 0.19553 0.0
C1037 C 0.27127 0.77003 0.15902 0.0
C1038 C 0.26569 0.75857 0.13392 0.0
C1039 C 0.28291 0.77907 0.11371 0.0
C1040 C 0.30817 0.81058 0.11939 0.0
C1041 C 0.31648 0.82093 0.14506 0.0
C1042 C 0.29699 0.80084 0.16501 0.0
H1043 H 0.78316 0.1772 0.10172 0.0
H1044 H 0.86692 0.20342 0.16174 0.0
H1045 H 0.82614 0.26011 0.17504 0.0
H1046 H 0.75918 0.28155 0.0863 0.0
H1047 H 0.70858 0.26987 0.0796 0.0
H1048 H 0.7464 0.23398 0.07382 0.0
H1049 H 0.70876 0.18497 0.10257 0.0
H1050 H 0.6716 0.22116 0.10924 0.0
H1051 H 0.69777 0.19813 0.13518 0.0
H1052 H 0.77229 0.3078 0.1851 0.0
H1053 H 0.71745 0.35479 0.18528 0.0
H1054 H 0.66931 0.30057 0.11707 0.0
C1055 C 0.79362 0.19588 0.11703 0.0
C1056 C 0.82852 0.18647 0.13049 0.0
C1057 C 0.84091 0.21081 0.15081 0.0
C1058 C 0.81755 0.2426 0.15871 0.0
C1059 C 0.78228 0.24985 0.14583 0.0
C1060 C 0.77102 0.22807 0.12485 0.0
C1061 C 0.73185 0.24221 0.11426 0.0
C1062 C 0.7368 0.25784 0.08687 0.0
C1063 C 0.70067 0.20966 0.11539 0.0
C1064 C 0.72236 0.275 0.13288 0.0
C1065 C 0.75168 0.27834 0.15114 0.0
C1066 C 0.74954 0.30582 0.17069 0.0
C1067 C 0.71798 0.33212 0.17076 0.0
C1068 C 0.68897 0.33134 0.15125 0.0
C1069 C 0.69054 0.30149 0.1325 0.0
H1070 H 0.32881 0.71585 0.40981 0.0
H1071 H 0.29414 0.63109 0.35232 0.0
H1072 H 0.23845 0.67386 0.33989 0.0
H1073 H 0.22744 0.74125 0.42878 0.0
H1074 H 0.2396 0.79182 0.43483 0.0
H1075 H 0.2763 0.7543 0.43902 0.0
H1076 H 0.32203 0.79173 0.40793 0.0
H1077 H 0.28498 0.82874 0.40305 0.0
H1078 H 0.30512 0.80275 0.37604 0.0
H1079 H 0.19089 0.7279 0.3312 0.0
H1080 H 0.14272 0.7815 0.33357 0.0
H1081 H 0.20335 0.82985 0.39937 0.0
C1082 C 0.30887 0.70599 0.39499 0.0
C1083 C 0.31546 0.67004 0.38207 0.0
C1084 C 0.28913 0.65813 0.36269 0.0
C1085 C 0.25784 0.68253 0.35529 0.0
C1086 C 0.25293 0.71838 0.36781 0.0
C1087 C 0.27681 0.72952 0.38785 0.0
C1088 C 0.26357 0.76859 0.39901 0.0
C1089 C 0.25097 0.76369 0.42707 0.0
C1090 C 0.29586 0.79979 0.39634 0.0
C1091 C 0.22867 0.77793 0.38191 0.0
C1092 C 0.22386 0.74885 0.3637 0.0
C1093 C 0.19412 0.75057 0.34553 0.0
C1094 C 0.16712 0.78142 0.3469 0.0
C1095 C 0.16934 0.81004 0.36654 0.0
C1096 C 0.20136 0.80899 0.38381 0.0
H1097 H 0.79126 0.31065 0.34976 0.0
H1098 H 0.83131 0.31473 0.42839 0.0
H1099 H 0.78008 0.26647 0.44036 0.0
H1100 H 0.68996 0.30391 0.36194 0.0
H1101 H 0.67956 0.26987 0.33645 0.0
H1102 H 0.72038 0.30315 0.33373 0.0
H1103 H 0.76847 0.24519 0.32655 0.0
H1104 H 0.72755 0.21193 0.3282 0.0
H1105 H 0.76916 0.20521 0.34909 0.0
H1106 H 0.71997 0.22098 0.44398 0.0
H1107 H 0.66773 0.17146 0.43725 0.0
H1108 H 0.66926 0.19591 0.35604 0.0
C1109 C 0.78997 0.30057 0.36938 0.0
C1110 C 0.81564 0.31618 0.38809 0.0
C1111 C 0.8126 0.3026 0.41362 0.0
C1112 C 0.78309 0.27569 0.42066 0.0
C1113 C 0.75711 0.26226 0.4019 0.0
C1114 C 0.76114 0.2734 0.37662 0.0
C1115 C 0.73044 0.25394 0.35989 0.0
C1116 C 0.7035 0.28456 0.34726 0.0
C1117 C 0.75007 0.22749 0.33975 0.0
C1118 C 0.70828 0.23012 0.37962 0.0
C1119 C 0.72352 0.23582 0.40386 0.0
C1120 C 0.7079 0.21639 0.42507 0.0
C1121 C 0.67762 0.18883 0.42117 0.0
C1122 C 0.66367 0.18054 0.39623 0.0
C1123 C 0.67849 0.20247 0.37541 0.0
H1124 H 0.6896 0.18469 0.85262 0.0
H1125 H 0.68201 0.16313 0.93404 0.0
H1126 H 0.72832 0.21779 0.94204 0.0
H1127 H 0.79653 0.21095 0.85294 0.0
H1128 H 0.78958 0.24665 0.82794 0.0
H1129 H 0.75861 0.20395 0.82929 0.0
H1130 H 0.69763 0.24946 0.82948 0.0
H1131 H 0.72844 0.29232 0.82929 0.0
H1132 H 0.69258 0.28585 0.85428 0.0
H1133 H 0.76849 0.2811 0.94108 0.0
H1134 H 0.81358 0.33594 0.93101 0.0
H1135 H 0.79893 0.3128 0.85014 0.0
C1136 C 0.69916 0.19037 0.87203 0.0
C1137 C 0.68299 0.1691 0.8927 0.0
C1138 C 0.69505 0.17822 0.91792 0.0
C1139 C 0.72075 0.20972 0.92264 0.0
C1140 C 0.73465 0.23139 0.90188 0.0
C1141 C 0.7255 0.22108 0.87701 0.0
C1142 C 0.74484 0.24861 0.85804 0.0
C1143 C 0.77414 0.22621 0.84106 0.0
C1144 C 0.71402 0.27033 0.84182 0.0
C1145 C 0.76573 0.2765 0.87608 0.0
C1146 C 0.75883 0.26662 0.90131 0.0
C1147 C 0.77434 0.2888 0.92137 0.0
C1148 C 0.79932 0.32042 0.91549 0.0
C1149 C 0.80906 0.32916 0.88981 0.0
C1150 C 0.79124 0.30737 0.86992 0.0
H1151 H 0.29822 0.68872 0.9154 0.0
H1152 H 0.36463 0.70088 0.84529 0.0
H1153 H 0.31962 0.75384 0.83129 0.0
H1154 H 0.2056 0.70054 0.88992 0.0
H1155 H 0.18497 0.72921 0.91558 0.0
H1156 H 0.22477 0.69578 0.92192 0.0
H1157 H 0.26685 0.75183 0.94103 0.0
H1158 H 0.22652 0.78511 0.93577 0.0
H1159 H 0.2743 0.796 0.92276 0.0
H1160 H 0.26238 0.79857 0.82257 0.0
H1161 H 0.20642 0.84437 0.82365 0.0
H1162 H 0.17757 0.80571 0.90035 0.0
C1163 C 0.3044 0.70401 0.8977 0.0
C1164 C 0.33567 0.69162 0.88173 0.0
C1165 C 0.34184 0.71095 0.85818 0.0
C1166 C 0.31592 0.74051 0.84991 0.0
C1167 C 0.28418 0.75058 0.86554 0.0
C1168 C 0.27909 0.73392 0.88936 0.0
C1169 C 0.24234 0.74979 0.90231 0.0
C1170 C 0.21268 0.71685 0.90775 0.0
C1171 C 0.25315 0.77202 0.92692 0.0
C1172 C 0.22703 0.77749 0.88186 0.0
C1173 C 0.25143 0.77696 0.86069 0.0
C1174 C 0.24342 0.79954 0.83916 0.0
C1175 C 0.21118 0.82512 0.83984 0.0
C1176 C 0.18725 0.82842 0.86196 0.0
C1177 C 0.1946 0.80324 0.88294 0.0
H1178 H 0.80263 0.18095 0.67527 0.0
H1179 H 0.81683 0.16617 0.59351 0.0
H1180 H 0.77237 0.2227 0.58604 0.0
H1181 H 0.69819 0.21069 0.67338 0.0
H1182 H 0.7047 0.24439 0.6996 0.0
H1183 H 0.73477 0.20106 0.69754 0.0
H1184 H 0.79683 0.2449 0.6999 0.0
H1185 H 0.76696 0.28845 0.70094 0.0
H1186 H 0.80379 0.28297 0.67644 0.0
H1187 H 0.73056 0.28607 0.58819 0.0
H1188 H 0.68543 0.34056 0.59938 0.0
H1189 H 0.69878 0.31225 0.67968 0.0
C1190 C 0.79531 0.18874 0.65575 0.0
C1191 C 0.81275 0.16866 0.63496 0.0
C1192 C 0.80307 0.18037 0.60973 0.0
C1193 C 0.77835 0.21293 0.60534 0.0
C1194 C 0.76321 0.23326 0.62637 0.0
C1195 C 0.77054 0.22081 0.65107 0.0
C1196 C 0.75092 0.24737 0.6705 0.0
C1197 C 0.72032 0.22452 0.68617 0.0
C1198 C 0.78146 0.26707 0.68797 0.0
C1199 C 0.73156 0.27702 0.65298 0.0
C1200 C 0.73931 0.26885 0.62758 0.0
C1201 C 0.72429 0.29251 0.60804 0.0
C1202 C 0.69917 0.3239 0.61458 0.0
C1203 C 0.68899 0.33115 0.64043 0.0
C1204 C 0.70647 0.30792 0.65977 0.0
H1205 H 0.32858 0.79573 0.63061 0.0
H1206 H 0.27504 0.85882 0.69372 0.0
H1207 H 0.21953 0.8129 0.69363 0.0
H1208 H 0.24109 0.77371 0.59728 0.0
H1209 H 0.25475 0.72467 0.58799 0.0
H1210 H 0.29218 0.76104 0.5934 0.0
H1211 H 0.32592 0.71633 0.62692 0.0
H1212 H 0.28926 0.67938 0.62101 0.0
H1213 H 0.29743 0.697 0.65308 0.0
H1214 H 0.16609 0.76417 0.6843 0.0
H1215 H 0.12564 0.70655 0.67227 0.0
H1216 H 0.21424 0.67242 0.61708 0.0
C1217 C 0.30581 0.79908 0.6449 0.0
C1218 C 0.30629 0.83112 0.66211 0.0
C1219 C 0.27539 0.83472 0.68023 0.0
C1220 C 0.24346 0.80891 0.68025 0.0
C1221 C 0.24271 0.77899 0.66225 0.0
C1222 C 0.27354 0.7731 0.64539 0.0
C1223 C 0.26534 0.73796 0.62837 0.0
C1224 C 0.26322 0.75009 0.60009 0.0
C1225 C 0.29632 0.70576 0.63261 0.0
C1226 C 0.22521 0.72547 0.63824 0.0
C1227 C 0.21236 0.74996 0.65748 0.0
C1228 C 0.17593 0.74458 0.66934 0.0
C1229 C 0.15282 0.71217 0.66216 0.0
C1230 C 0.16655 0.68539 0.64359 0.0
C1231 C 0.20281 0.69277 0.63115 0.0
H1232 H 0.934 0.43367 0.99588 0.0
H1233 H 0.97022 0.5039 0.93087 0.0
H1234 H 0.02106 0.53541 0.95746 0.0
H1235 H 0.94526 0.51063 0.04263 0.0
H1236 H 0.96184 0.47746 0.06729 0.0
H1237 H 0.9298 0.46019 0.04231 0.0
H1238 H 0.98073 0.40587 0.03198 0.0
H1239 H 0.01355 0.42439 0.0562 0.0
H1240 H 0.03024 0.41957 0.02363 0.0
H1241 H 0.06886 0.55846 0.99077 0.0
H1242 H 0.10104 0.5815 0.03025 0.0
H1243 H 0.03228 0.49908 0.0747 0.0
C1244 C 0.95227 0.45609 0.98734 0.0
C1245 C 0.94775 0.46645 0.96127 0.0
C1246 C 0.97244 0.49586 0.95085 0.0
C1247 C 0.0019 0.51352 0.96573 0.0
C1248 C 0.00619 0.50186 0.99113 0.0
C1249 C 0.98149 0.47451 1.00204 0.0
C1250 C 0.99062 0.46925 0.03026 0.0
C1251 C 0.95476 0.48006 0.04662 0.0
C1252 C 0.00462 0.42727 0.03584 0.0
C1253 C 0.02381 0.49851 0.03371 0.0
C1254 C 0.03298 0.51616 1.01066 0.0
C1255 C 0.06183 0.54491 1.00891 0.0
C1256 C 0.08019 0.55761 0.03146 0.0
C1257 C 0.06951 0.54195 0.05561 0.0
C1258 C 0.04186 0.51098 0.05655 0.0
H1259 H 0.00388 0.9654 0.93913 0.0
H1260 H 0.08343 0.89588 0.98533 0.0
H1261 H 0.05612 0.9256 0.02447 0.0
H1262 H 0.01103 0.05034 0.9725 0.0
H1263 H 0.96039 0.06541 0.9709 0.0
H1264 H 0.98021 0.03381 0.94655 0.0
H1265 H 0.9265 0.98196 0.95558 0.0
H1266 H 0.9058 0.01396 0.97949 0.0
H1267 H 0.91942 0.9645 0.98779 0.0
H1268 H 0.03027 0.97185 0.05755 0.0
H1269 H 0.9968 0.02169 0.08383 0.0
H1270 H 0.93085 0.06 0.01729 0.0
C1271 C 0.01391 0.95485 0.95754 0.0
C1272 C 0.04535 0.92768 0.95917 0.0
C1273 C 0.05894 0.91602 0.98365 0.0
C1274 C 0.04388 0.93309 1.00599 0.0
C1275 C 0.01484 0.96166 1.00369 0.0
C1276 C -0.00107 0.97157 0.9802 0.0
C1277 C 0.9692 0.00461 0.98317 0.0
C1278 C 0.98092 0.04067 0.96732 0.0
C1279 C 0.92776 0.99041 0.97609 0.0
C1280 C 0.97247 0.01293 1.01166 0.0
C1281 C -0.00095 0.98782 0.02308 0.0
C1282 C 0.00893 0.99128 0.04887 0.0
C1283 C 0.99018 0.02021 0.06359 0.0
C1284 C 0.96136 0.04518 0.05266 0.0
C1285 C 0.95283 0.04155 0.02622 0.0
H1286 H 0.54815 0.99259 0.9611 0.0
H1287 H 0.5898 0.09513 1.002 0.0
H1288 H 0.55756 0.07175 0.04118 0.0
H1289 H 0.45711 0.98752 0.98734 0.0
H1290 H 0.45382 0.93509 0.9909 0.0
H1291 H 0.48526 0.95555 0.96674 0.0
H1292 H 0.54537 0.91875 0.98505 0.0
H1293 H 0.51405 0.89692 1.00889 0.0
H1294 H 0.55724 0.92366 0.01851 0.0
H1295 H 0.51352 0.0422 0.07445 0.0
H1296 H 0.46741 0.00382 0.10092 0.0
H1297 H 0.45523 0.9195 0.03918 0.0
C1298 C 0.55208 0.00913 0.97859 0.0
C1299 C 0.57176 0.04568 0.9784 0.0
C1300 C 0.5751 0.06699 1.00162 0.0
C1301 C 0.55678 0.05398 0.02404 0.0
C1302 C 0.53591 0.01898 0.02332 0.0
C1303 C 0.53435 0.99621 1.00143 0.0
C1304 C 0.50831 0.96067 1.00566 0.0
C1305 C 0.47409 0.95969 0.98651 0.0
C1306 C 0.5327 0.92275 1.00446 0.0
C1307 C 0.49379 0.96838 0.03263 0.0
C1308 C 0.51043 0.00191 0.0426 0.0
C1309 C 0.50064 0.01559 0.06693 0.0
C1310 C 0.47396 0.99383 0.08173 0.0
C1311 C 0.45723 0.9587 0.07219 0.0
C1312 C 0.46712 0.94631 0.0471 0.0
H1313 H 0.5689 0.43506 0.03126 0.0
H1314 H 0.49751 0.46616 0.09697 0.0
H1315 H 0.46198 0.51471 0.07077 0.0
H1316 H 0.57775 0.53023 1.00451 0.0
H1317 H 0.573 0.5149 0.97165 0.0
H1318 H 0.5928 0.48163 0.99512 0.0
H1319 H 0.54003 0.42995 0.98361 0.0
H1320 H 0.52045 0.46258 0.95973 0.0
H1321 H 0.48891 0.44356 0.98446 0.0
H1322 H 0.43796 0.56378 0.03865 0.0
H1323 H 0.41524 0.59888 1.00019 0.0
H1324 H 0.49872 0.53399 0.95393 0.0
C1325 C 0.54517 0.45146 0.03998 0.0
C1326 C 0.53599 0.44647 0.06625 0.0
C1327 C 0.50483 0.46876 0.0769 0.0
C1328 C 0.4848 0.49691 0.06222 0.0
C1329 C 0.49575 0.50219 0.03675 0.0
C1330 C 0.52431 0.47925 0.02545 0.0
C1331 C 0.52903 0.48971 0.99733 0.0
C1332 C 0.57063 0.50502 0.99184 0.0
C1333 C 0.51901 0.45436 0.98027 0.0
C1334 C 0.49871 0.52222 0.9946 0.0
C1335 C 0.48057 0.52944 0.0178 0.0
C1336 C 0.45165 0.55805 0.02034 0.0
C1337 C 0.43923 0.57816 0.99839 0.0
C1338 C 0.45529 0.56951 0.97399 0.0
C1339 C 0.48642 0.54199 0.9723 0.0
H1340 H 0.97436 0.00394 0.56644 0.0
H1341 H 0.91557 0.09364 0.52182 0.0
H1342 H 0.94771 0.06908 0.4827 0.0
H1343 H 0.06447 0.00863 0.53554 0.0
H1344 H 0.07491 0.95683 0.53557 0.0
H1345 H 0.04386 0.97758 0.55994 0.0
H1346 H 0.98774 0.92958 0.54815 0.0
H1347 H 0.01905 0.90772 0.5243 0.0
H1348 H 0.97137 0.92634 0.51541 0.0
H1349 H 0.99418 0.04214 0.44988 0.0
H1350 H 0.03889 0.00337 0.42272 0.0
H1351 H 0.0663 0.92867 0.48754 0.0
C1352 C 0.96698 0.01728 0.54828 0.0
C1353 C 0.94204 0.05051 0.54719 0.0
C1354 C 0.93426 0.06799 0.5231 0.0
C1355 C 0.95272 0.05449 0.50079 0.0
C1356 C 0.97897 0.02331 0.50273 0.0
C1357 C 0.98527 0.00409 0.52566 0.0
C1358 C 0.01565 0.97175 0.52238 0.0
C1359 C 0.05184 0.97916 0.53937 0.0
C1360 C 0.99736 0.93145 0.52788 0.0
C1361 C 0.02572 0.97626 0.49418 0.0
C1362 C 0.00466 0.00661 0.48337 0.0
C1363 C 0.01021 0.01771 0.45797 0.0
C1364 C 0.03624 0.99582 0.44275 0.0
C1365 C 0.05632 0.96283 0.45286 0.0
C1366 C 0.05149 0.95367 0.47916 0.0
H1367 H 0.50333 0.94162 0.58447 0.0
H1368 H 0.40444 0.89504 0.54195 0.0
H1369 H 0.43071 0.92374 0.50233 0.0
H1370 H 0.51042 0.03063 0.55399 0.0
H1371 H 0.56316 0.03324 0.55321 0.0
H1372 H 0.53911 0.00469 0.57756 0.0
H1373 H 0.57935 0.94344 0.56283 0.0
H1374 H 0.6027 0.97266 0.53848 0.0
H1375 H 0.57712 0.92838 0.52979 0.0
H1376 H 0.46008 0.96757 0.46932 0.0
H1377 H 0.4997 0.01132 0.44209 0.0
H1378 H 0.58253 0.02714 0.50444 0.0
C1379 C 0.4884 0.93571 0.5666 0.0
C1380 C 0.45196 0.91563 0.5663 0.0
C1381 C 0.43256 0.90986 0.5426 0.0
C1382 C 0.44707 0.92641 0.52 0.0
C1383 C 0.48156 0.94819 0.52116 0.0
C1384 C 0.50288 0.95173 0.54358 0.0
C1385 C 0.53859 0.97778 0.53942 0.0
C1386 C 0.53779 0.01368 0.55716 0.0
C1387 C 0.5767 0.95415 0.54283 0.0
C1388 C 0.5327 0.98975 0.51166 0.0
C1389 C 0.49953 0.97241 0.50157 0.0
C1390 C 0.48661 0.98072 0.47683 0.0
C1391 C 0.50903 0.00616 0.46161 0.0
C1392 C 0.54427 0.02291 0.47101 0.0
C1393 C 0.55577 0.0149 0.4966 0.0
H1394 H 0.52246 0.49315 0.57732 0.0
H1395 H 0.59006 0.41076 0.53194 0.0
H1396 H 0.55473 0.43188 0.49316 0.0
H1397 H 0.4335 0.47908 0.54679 0.0
H1398 H 0.41698 0.52921 0.54639 0.0
H1399 H 0.45015 0.51276 0.57105 0.0
H1400 H 0.50111 0.56584 0.55949 0.0
H1401 H 0.46737 0.58457 0.53589 0.0
H1402 H 0.51665 0.57124 0.52672 0.0
H1403 H 0.50515 0.45371 0.46079 0.0
H1404 H 0.45591 0.48732 0.43411 0.0
H1405 H 0.4226 0.55955 0.49895 0.0
C1406 C 0.53098 0.48082 0.55907 0.0
C1407 C 0.55935 0.45047 0.55769 0.0
C1408 C 0.56867 0.43418 0.53347 0.0
C1409 C 0.54846 0.44571 0.51134 0.0
C1410 C 0.51908 0.47389 0.51356 0.0
C1411 C 0.51116 0.49224 0.53658 0.0
C1412 C 0.47757 0.52129 0.53354 0.0
C1413 C 0.4425 0.50989 0.55047 0.0
C1414 C 0.49151 0.56323 0.53924 0.0
C1415 C 0.46773 0.51605 0.50537 0.0
C1416 C 0.49155 0.48793 0.49441 0.0
C1417 C 0.48671 0.47625 0.46906 0.0
C1418 C 0.45815 0.4952 0.45412 0.0
C1419 C 0.43514 0.52616 0.46435 0.0
C1420 C 0.43962 0.53603 0.49054 0.0
H1421 H 0.99504 0.53758 0.57404 0.0
H1422 H 0.08379 0.59841 0.52992 0.0
H1423 H 0.05907 0.56744 0.49049 0.0
H1424 H 0.00123 0.44989 0.54271 0.0
H1425 H 0.94969 0.43783 0.54256 0.0
H1426 H 0.96913 0.46946 0.567 0.0
H1427 H 0.91964 0.52397 0.55541 0.0
H1428 H 0.89882 0.49222 0.53142 0.0
H1429 H 0.91599 0.54036 0.52271 0.0
H1430 H 0.03092 0.52336 0.45675 0.0
H1431 H 0.99472 0.47606 0.42992 0.0
H1432 H 0.92303 0.44413 0.49528 0.0
C1433 C 0.00778 0.54606 0.5559 0.0
C1434 C 0.04087 0.57114 0.55502 0.0
C1435 C 0.05796 0.57994 0.53098 0.0
C1436 C 0.04427 0.56227 0.50847 0.0
C1437 C 0.01305 0.53608 0.51011 0.0
C1438 C 0.99428 0.52869 0.53308 0.0
C1439 C 0.96286 0.4975 0.52965 0.0
C1440 C 0.97126 0.46152 0.54647 0.0
C1441 C 0.92189 0.51453 0.53512 0.0
C1442 C 0.96778 0.4878 0.5015 0.0
C1443 C 0.99693 0.51037 0.4906 0.0
C1444 C 0.00775 0.50578 0.46504 0.0
C1445 C 0.98736 0.47835 0.45001 0.0
C1446 C 0.9562 0.45595 0.46046 0.0
C1447 C 0.94684 0.46053 0.48671 0.0
H1448 H 0.91099 0.47946 0.29792 0.0
H1449 H 0.0126 0.42329 0.33165 0.0
H1450 H 0.05081 0.43687 0.29194 0.0
H1451 H 0.9275 0.44712 0.23139 0.0
H1452 H 0.90912 0.49302 0.21915 0.0
H1453 H 0.89076 0.47399 0.24896 0.0
H1454 H 0.90997 0.53956 0.27127 0.0
H1455 H 0.92861 0.55793 0.24145 0.0
H1456 H 0.95999 0.55653 0.26921 0.0
H1457 H 0.07952 0.46557 0.24868 0.0
H1458 H 0.0929 0.50121 0.208 0.0
H1459 H 0.97005 0.53494 0.20453 0.0
C1460 C 0.94105 0.46908 0.29674 0.0
C1461 C 0.95879 0.45005 0.31773 0.0
C1462 C 0.99827 0.43733 0.31559 0.0
C1463 C 0.02019 0.44522 0.29315 0.0
C1464 C 0.00195 0.4653 0.27298 0.0
C1465 C 0.96289 0.47635 0.27464 0.0
C1466 C 0.94983 0.4991 0.25139 0.0
C1467 C 0.9174 0.47698 0.23685 0.0
C1468 C 0.93633 0.54072 0.25878 0.0
C1469 C 0.98769 0.50002 0.23635 0.0
C1470 C 0.01771 0.48056 0.24881 0.0
C1471 C 0.05588 0.48029 0.2387 0.0
C1472 C 0.06329 0.5006 0.21554 0.0
C1473 C 0.03268 0.52093 0.20276 0.0
C1474 C 0.99443 0.51973 0.21341 0.0
H1475 H 0.97267 0.96917 0.31267 0.0
H1476 H 0.09912 0.97518 0.3033 0.0
H1477 H 0.08935 0.01101 0.26226 0.0
H1478 H 0.95056 0.94743 0.24966 0.0
H1479 H 0.90533 0.97497 0.24938 0.0
H1480 H 0.9234 0.9548 0.27886 0.0
H1481 H 0.92165 0.02397 0.29945 0.0
H1482 H 0.90373 0.04435 0.26987 0.0
H1483 H 0.94764 0.06377 0.2844 0.0
H1484 H 0.0631 0.042 0.21917 0.0
H1485 H 0.02487 0.05979 0.18019 0.0
H1486 H 0.91714 0.03046 0.2196 0.0
C1487 C 0.99865 0.97832 0.30234 0.0
C1488 C 0.03681 0.96917 0.31143 0.0
C1489 C 0.0696 0.98195 0.29697 0.0
C1490 C 0.06423 0.00234 0.27359 0.0
C1491 C 0.02591 0.00998 0.26503 0.0
C1492 C 0.99381 -0.00175 0.27924 0.0
C1493 C 0.95552 0.00677 0.26563 0.0
C1494 C 0.93238 0.96874 0.26058 0.0
C1495 C 0.93069 0.03649 0.28074 0.0
C1496 C 0.9707 0.02446 0.24109 0.0
C1497 C 0.01129 0.02682 0.24098 0.0
C1498 C 0.03135 0.04063 0.21938 0.0
C1499 C 0.00944 0.05104 0.19736 0.0
C1500 C 0.96803 0.04708 0.19705 0.0
C1501 C 0.94873 0.03443 0.21944 0.0
H1502 H 0.58732 0.01438 0.30427 0.0
H1503 H 0.48077 0.04802 0.34372 0.0
H1504 H 0.44199 0.03226 0.30457 0.0
H1505 H 0.55868 0.04984 0.2398 0.0
H1506 H 0.58324 0.00924 0.22459 0.0
H1507 H 0.60157 0.02834 0.25442 0.0
H1508 H 0.59709 0.95902 0.27434 0.0
H1509 H 0.57834 0.93974 0.24479 0.0
H1510 H 0.55081 0.93336 0.27392 0.0
H1511 H 0.41479 0.00351 0.26129 0.0
H1512 H 0.40351 0.96886 0.22003 0.0
H1513 H 0.52953 0.95657 0.21069 0.0
C1514 C 0.55589 0.0195 0.30447 0.0
C1515 C 0.53703 0.03272 0.32691 0.0
C1516 C 0.49585 0.03857 0.32656 0.0
C1517 C 0.47366 0.02943 0.30443 0.0
C1518 C 0.49325 0.01508 0.28278 0.0
C1519 C 0.53368 0.01091 0.28269 0.0
C1520 C 0.54822 0.99288 0.25804 0.0
C1521 C 0.57446 0.02181 0.24334 0.0
C1522 C 0.56986 0.95396 0.26309 0.0
C1523 C 0.50967 0.98624 0.24435 0.0
C1524 C 0.47808 -0.00067 0.25859 0.0
C1525 C 0.43951 0.99377 0.24994 0.0
C1526 C 0.43331 0.97406 0.22643 0.0
C1527 C 0.46551 0.95986 0.21193 0.0
C1528 C 0.50403 0.96693 0.22107 0.0
H1529 H 0.44545 0.56202 0.29798 0.0
H1530 H 0.44056 0.45249 0.33932 0.0
H1531 H 0.45937 0.41661 0.29975 0.0
H1532 H 0.41298 0.52423 0.2331 0.0
H1533 H 0.4467 0.55791 0.21819 0.0
H1534 H 0.42396 0.57024 0.2483 0.0
H1535 H 0.49546 0.5812 0.26706 0.0
H1536 H 0.51613 0.56703 0.23679 0.0
H1537 H 0.52996 0.54129 0.2655 0.0
H1538 H 0.48959 0.39463 0.25611 0.0
H1539 H 0.5253 0.38977 0.21472 0.0
H1540 H 0.50919 0.51471 0.20353 0.0
C1541 C 0.44634 0.53027 0.29831 0.0
C1542 C 0.44009 0.50982 0.32136 0.0
C1543 C 0.4437 0.46849 0.32155 0.0
C1544 C 0.45475 0.44798 0.29919 0.0
C1545 C 0.46207 0.4693 0.27683 0.0
C1546 C 0.45739 0.50962 0.27631 0.0
C1547 C 0.47107 0.52672 0.2512 0.0
C1548 C 0.43666 0.54593 0.23683 0.0
C1549 C 0.50513 0.55578 0.25539 0.0
C1550 C 0.48501 0.49009 0.23768 0.0
C1551 C 0.47953 0.45702 0.25248 0.0
C1552 C 0.49327 0.42037 0.24428 0.0
C1553 C 0.51349 0.4178 0.22068 0.0
C1554 C 0.5201 0.45174 0.20567 0.0
C1555 C 0.50467 0.48798 0.21429 0.0
H1556 H 0.00777 0.48332 0.70133 0.0
H1557 H 0.01078 0.60897 0.71321 0.0
H1558 H 0.97422 0.60023 0.75406 0.0
H1559 H 0.91054 0.46518 0.73054 0.0
H1560 H 0.9259 0.4196 0.74471 0.0
H1561 H 0.947 0.43536 0.7148 0.0
H1562 H 0.01691 0.43078 0.73321 0.0
H1563 H 0.99759 0.41393 0.76318 0.0
H1564 H 0.02884 0.45649 0.76233 0.0
H1565 H 0.94529 0.57499 0.79729 0.0
H1566 H 0.92936 0.53712 0.8366 0.0
H1567 H 0.94698 0.42893 0.79508 0.0
C1568 C -2e-05 0.50927 0.71215 0.0
C1569 C 0.01211 0.54692 0.70397 0.0
C1570 C 0.00139 0.57992 0.71886 0.0
C1571 C 0.98073 0.57511 0.74214 0.0
C1572 C 0.97052 0.53719 0.75006 0.0
C1573 C 0.97958 0.50495 0.73517 0.0
C1574 C 0.96885 0.46696 0.74839 0.0
C1575 C 0.93615 0.44551 0.73372 0.0
C1576 C 0.0052 0.44052 0.75199 0.0
C1577 C 0.9539 0.48243 0.77367 0.0
C1578 C 0.9542 0.523 0.7743 0.0
C1579 C 0.94418 0.5433 0.79665 0.0
C1580 C 0.93482 0.52163 0.81887 0.0
C1581 C 0.93585 0.48016 0.8186 0.0
C1582 C 0.94473 0.46061 0.79554 0.0
H1583 H 0.95149 0.07354 0.72336 0.0
H1584 H 0.94501 0.96665 0.67915 0.0
H1585 H 0.96356 0.92827 0.71782 0.0
H1586 H 0.03513 0.05142 0.75505 0.0
H1587 H 0.02196 0.07423 0.78494 0.0
H1588 H 0.00047 0.09141 0.75564 0.0
H1589 H 0.93065 0.07977 0.77382 0.0
H1590 H 0.95194 0.06302 0.80344 0.0
H1591 H 0.91785 0.03224 0.78634 0.0
H1592 H 0.99377 0.9034 0.7611 0.0
H1593 H 0.02962 0.89585 0.80233 0.0
H1594 H 0.01536 0.02023 0.81649 0.0
C1595 C 0.95214 0.04184 0.72213 0.0
C1596 C 0.94569 0.02294 0.69847 0.0
C1597 C 0.94849 0.98158 0.69729 0.0
C1598 C 0.9594 0.95965 0.71916 0.0
C1599 C 0.96715 0.97954 0.74208 0.0
C1600 C 0.96293 0.01983 0.74362 0.0
C1601 C 0.9766 0.03535 0.76924 0.0
C1602 C 0.01054 0.06481 0.766 0.0
C1603 C 0.9422 0.05366 0.78409 0.0
C1604 C 0.99049 -0.00214 0.78177 0.0
C1605 C 0.98455 0.96569 0.76616 0.0
C1606 C 0.99783 0.92845 0.77352 0.0
C1607 C 0.01811 0.92432 0.79705 0.0
C1608 C 0.02537 0.95735 0.81281 0.0
C1609 C 0.01036 0.99421 0.80507 0.0
H1610 H 0.43322 0.93649 0.74046 0.0
H1611 H 0.54008 0.93307 0.696 0.0
H1612 H 0.57889 0.94794 0.73505 0.0
H1613 H 0.4562 0.01734 0.77391 0.0
H1614 H 0.43356 0.00313 0.80364 0.0
H1615 H 0.41592 0.98307 0.77406 0.0
H1616 H 0.42743 0.91258 0.79096 0.0
H1617 H 0.44468 0.93244 0.82088 0.0
H1618 H 0.47513 0.89892 0.80305 0.0
H1619 H 0.60427 0.97538 0.77834 0.0
H1620 H 0.61229 0.01104 0.81955 0.0
H1621 H 0.48804 0.99596 0.83455 0.0
C1622 C 0.465 0.93656 0.73931 0.0
C1623 C 0.48384 0.93189 0.71548 0.0
C1624 C 0.52528 0.93479 0.71429 0.0
C1625 C 0.54747 0.94364 0.73639 0.0
C1626 C 0.52776 0.94958 0.75955 0.0
C1627 C 0.48733 0.94556 0.76109 0.0
C1628 C 0.47215 0.95824 0.78701 0.0
C1629 C 0.44276 0.99246 0.78448 0.0
C1630 C 0.45377 0.92346 0.80132 0.0
C1631 C 0.50998 0.97129 0.79965 0.0
C1632 C 0.542 0.96576 0.78384 0.0
C1633 C 0.57941 0.97901 0.79101 0.0
C1634 C 0.58384 -0.0009 0.81454 0.0
C1635 C 0.55093 0.00617 0.83045 0.0
C1636 C 0.51397 0.99086 0.82301 0.0
H1637 H 0.47304 0.47634 0.82571 0.0
H1638 H 0.4905 0.60175 0.81899 0.0
H1639 H 0.52576 0.59097 0.77785 0.0
H1640 H 0.56585 0.44458 0.79684 0.0
H1641 H 0.54266 0.40339 0.7814 0.0
H1642 H 0.5238 0.42149 0.81136 0.0
H1643 H 0.45498 0.43021 0.79084 0.0
H1644 H 0.47357 0.41213 0.76093 0.0
H1645 H 0.45 0.45942 0.7623 0.0
H1646 H 0.55428 0.56438 0.73396 0.0
H1647 H 0.56918 0.52667 0.69424 0.0
H1648 H 0.53064 0.42034 0.73164 0.0
C1649 C 0.48475 0.50176 0.81595 0.0
C1650 C 0.4789 0.54 0.82581 0.0
C1651 C 0.49483 0.57214 0.8121 0.0
C1652 C 0.51484 0.5662 0.78863 0.0
C1653 C 0.51903 0.52793 0.77919 0.0
C1654 C 0.50445 0.49637 0.79275 0.0
C1655 C 0.50967 0.45832 0.77829 0.0
C1656 C 0.53713 0.4303 0.79284 0.0
C1657 C 0.46969 0.43892 0.77276 0.0
C1658 C 0.52871 0.4731 0.75404 0.0
C1659 C 0.53456 0.5132 0.75475 0.0
C1660 C 0.55016 0.53294 0.73353 0.0
C1661 C 0.55887 0.51131 0.71106 0.0
C1662 C 0.55148 0.4705 0.70992 0.0
C1663 C 0.53705 0.45144 0.73199 0.0
loop_
_geom_bond_atom_site_label_1
_geom_bond_atom_site_label_2
_geom_bond_distance
_geom_bond_site_symmetry_2
_ccdc_geom_bond_type
O0 Zn1 1.953 . S
O0 C16 1.225 . S
Zn1 O0 1.953 . S
Zn1 O2 1.949 . S
Zn1 O8 1.919 . S
Zn1 O13 1.924 . S
O2 Zn1 1.949 . S
O2 Zn3 1.923 1_455 S
O2 Zn4 1.950 . S
O2 Zn5 1.945 . S
Zn3 O2 1.923 1_655 S
Zn3 O6 1.933 1_655 S
Zn3 O9 1.941 1_655 S
Zn3 O10 1.965 . S
Zn4 O2 1.950 . S
Zn4 O11 1.938 1_455 S
Zn4 O12 1.906 1_455 S
Zn4 O22 1.953 . S
Zn5 O2 1.945 . S
Zn5 O7 1.932 . S
Zn5 O14 1.977 . S
Zn5 O15 1.910 . S
O6 Zn3 1.933 1_455 S
O6 C17 1.226 . S
O7 Zn5 1.932 . S
O7 C17 1.307 . S
O8 Zn1 1.919 . S
O8 C19 1.253 . S
O9 Zn3 1.941 1_455 S
O9 C19 1.283 . S
O10 Zn3 1.965 . S
O10 C18 1.303 . S
O11 Zn4 1.938 1_655 S
O11 C18 1.247 . S
O12 Zn4 1.906 1_655 S
O12 C20 1.304 1_655 S
O13 Zn1 1.924 . S
O13 C21 1.311 . S
O14 Zn5 1.977 . S
O14 C20 1.272 . S
O15 Zn5 1.910 . S
O15 C21 1.231 . S
C16 O0 1.225 . S
C16 O22 1.298 . S
C17 O6 1.226 . S
C17 O7 1.307 . S
C18 O10 1.303 . S
C18 O11 1.247 . S
C19 O8 1.253 . S
C19 O9 1.283 . S
C20 O12 1.304 1_455 S
C20 O14 1.272 . S
C21 O13 1.311 . S
C21 O15 1.231 . S
O22 Zn4 1.953 . S
O22 C16 1.298 . S
O23 Zn24 1.953 . S
O23 C39 1.225 . S
Zn24 O23 1.953 . S
Zn24 O25 1.949 . S
Zn24 O31 1.919 . S
Zn24 O36 1.924 . S
O25 Zn24 1.949 . S
O25 Zn26 1.923 1_545 S
O25 Zn27 1.950 . S
O25 Zn28 1.945 . S
Zn26 O25 1.923 1_565 S
Zn26 O29 1.933 1_565 S
Zn26 O32 1.941 1_565 S
Zn26 O33 1.965 . S
Zn27 O25 1.950 . S
Zn27 O34 1.938 1_545 S
Zn27 O35 1.906 1_545 S
Zn27 O45 1.953 . S
Zn28 O25 1.945 . S
Zn28 O30 1.932 . S
Zn28 O37 1.977 . S
Zn28 O38 1.910 . S
O29 Zn26 1.933 1_545 S
O29 C40 1.226 . S
O30 Zn28 1.932 . S
O30 C40 1.307 . S
O31 Zn24 1.919 . S
O31 C42 1.253 . S
O32 Zn26 1.941 1_545 S
O32 C42 1.283 . S
O33 Zn26 1.965 . S
O33 C41 1.303 . S
O34 Zn27 1.938 1_565 S
O34 C41 1.247 . S
O35 Zn27 1.906 1_565 S
O35 C43 1.304 1_565 S
O36 Zn24 1.924 . S
O36 C44 1.311 . S
O37 Zn28 1.977 . S
O37 C43 1.272 . S
O38 Zn28 1.910 . S
O38 C44 1.231 . S
C39 O23 1.225 . S
C39 O45 1.298 . S
C40 O29 1.226 . S
C40 O30 1.307 . S
C41 O33 1.303 . S
C41 O34 1.247 . S
C42 O31 1.253 . S
C42 O32 1.283 . S
C43 O35 1.304 1_545 S
C43 O37 1.272 . S
C44 O36 1.311 . S
C44 O38 1.231 . S
O45 Zn27 1.953 . S
O45 C39 1.298 . S
O46 Zn47 1.953 . S
O46 C62 1.225 . S
Zn47 O46 1.953 . S
Zn47 O48 1.949 . S
Zn47 O54 1.919 . S
Zn47 O59 1.924 . S
O48 Zn47 1.949 . S
O48 Zn49 1.923 . S
O48 Zn50 1.950 . S
O48 Zn51 1.945 . S
Zn49 O48 1.923 . S
Zn49 O52 1.933 . S
Zn49 O55 1.941 . S
Zn49 O56 1.965 . S
Zn50 O48 1.950 . S
Zn50 O57 1.938 . S
Zn50 O58 1.906 . S
Zn50 O68 1.953 . S
Zn51 O48 1.945 . S
Zn51 O53 1.932 . S
Zn51 O60 1.977 . S
Zn51 O61 1.910 . S
O52 Zn49 1.933 . S
O52 C63 1.226 . S
O53 Zn51 1.932 . S
O53 C63 1.307 . S
O54 Zn47 1.919 . S
O54 C65 1.253 . S
O55 Zn49 1.941 . S
O55 C65 1.283 . S
O56 Zn49 1.965 . S
O56 C64 1.303 . S
O57 Zn50 1.938 . S
O57 C64 1.247 . S
O58 Zn50 1.906 . S
O58 C66 1.304 . S
O59 Zn47 1.924 . S
O59 C67 1.311 . S
O60 Zn51 1.977 . S
O60 C66 1.272 . S
O61 Zn51 1.910 . S
O61 C67 1.231 . S
C62 O46 1.225 . S
C62 O68 1.298 . S
C63 O52 1.226 . S
C63 O53 1.307 . S
C64 O56 1.303 . S
C64 O57 1.247 . S
C65 O54 1.253 . S
C65 O55 1.283 . S
C66 O58 1.304 . S
C66 O60 1.272 . S
C67 O59 1.311 . S
C67 O61 1.231 . S
O68 Zn50 1.953 . S
O68 C62 1.298 . S
O69 Zn70 1.953 . S
O69 C85 1.225 . S
Zn70 O69 1.953 . S
Zn70 O71 1.949 . S
Zn70 O77 1.919 . S
Zn70 O82 1.924 . S
O71 Zn70 1.949 . S
O71 Zn72 1.923 . S
O71 Zn73 1.950 . S
O71 Zn74 1.945 . S
Zn72 O71 1.923 . S
Zn72 O75 1.933 . S
Zn72 O78 1.941 . S
Zn72 O79 1.965 . S
Zn73 O71 1.950 . S
Zn73 O80 1.938 . S
Zn73 O81 1.906 . S
Zn73 O91 1.953 . S
Zn74 O71 1.945 . S
Zn74 O76 1.932 . S
Zn74 O83 1.977 . S
Zn74 O84 1.910 . S
O75 Zn72 1.933 . S
O75 C86 1.226 . S
O76 Zn74 1.932 . S
O76 C86 1.307 . S
O77 Zn70 1.919 . S
O77 C88 1.253 . S
O78 Zn72 1.941 . S
O78 C88 1.283 . S
O79 Zn72 1.965 . S
O79 C87 1.303 . S
O80 Zn73 1.938 . S
O80 C87 1.247 . S
O81 Zn73 1.906 . S
O81 C89 1.304 . S
O82 Zn70 1.924 . S
O82 C90 1.311 . S
O83 Zn74 1.977 . S
O83 C89 1.272 . S
O84 Zn74 1.910 . S
O84 C90 1.231 . S
C85 O69 1.225 . S
C85 O91 1.298 . S
C86 O75 1.226 . S
C86 O76 1.307 . S
C87 O79 1.303 . S
C87 O80 1.247 . S
C88 O77 1.253 . S
C88 O78 1.283 . S
C89 O81 1.304 . S
C89 O83 1.272 . S
C90 O82 1.311 . S
C90 O84 1.231 . S
O91 Zn73 1.953 . S
O91 C85 1.298 . S
O92 Zn93 1.953 . S
O92 C108 1.225 . S
Zn93 O92 1.953 . S
Zn93 O94 1.949 . S
Zn93 O100 1.919 . S
Zn93 O105 1.924 . S
O94 Zn93 1.949 . S
O94 Zn95 1.923 1_455 S
O94 Zn96 1.950 . S
O94 Zn97 1.945 . S
Zn95 O94 1.923 1_655 S
Zn95 O98 1.933 1_655 S
Zn95 O101 1.941 1_655 S
Zn95 O102 1.965 . S
Zn96 O94 1.950 . S
Zn96 O103 1.938 1_455 S
Zn96 O104 1.906 1_455 S
Zn96 O114 1.953 . S
Zn97 O94 1.945 . S
Zn97 O99 1.932 . S
Zn97 O106 1.977 . S
Zn97 O107 1.910 . S
O98 Zn95 1.933 1_455 S
O98 C109 1.226 . S
O99 Zn97 1.932 . S
O99 C109 1.307 . S
O100 Zn93 1.919 . S
O100 C111 1.253 . S
O101 Zn95 1.941 1_455 S
O101 C111 1.283 . S
O102 Zn95 1.965 . S
O102 C110 1.303 . S
O103 Zn96 1.938 1_655 S
O103 C110 1.247 . S
O104 Zn96 1.906 1_655 S
O104 C112 1.304 1_655 S
O105 Zn93 1.924 . S
O105 C113 1.311 . S
O106 Zn97 1.977 . S
O106 C112 1.272 . S
O107 Zn97 1.910 . S
O107 C113 1.231 . S
C108 O92 1.225 . S
C108 O114 1.298 . S
C109 O98 1.226 . S
C109 O99 1.307 . S
C110 O102 1.303 . S
C110 O103 1.247 . S
C111 O100 1.253 . S
C111 O101 1.283 . S
C112 O104 1.304 1_455 S
C112 O106 1.272 . S
C113 O105 1.311 . S
C113 O107 1.231 . S
O114 Zn96 1.953 . S
O114 C108 1.298 . S
O115 Zn116 1.953 . S
O115 C131 1.225 . S
Zn116 O115 1.953 . S
Zn116 O117 1.949 . S
Zn116 O123 1.919 . S
Zn116 O128 1.924 . S
O117 Zn116 1.949 . S
O117 Zn118 1.923 1_545 S
O117 Zn119 1.950 . S
O117 Zn120 1.945 . S
Zn118 O117 1.923 1_565 S
Zn118 O121 1.933 1_565 S
Zn118 O124 1.941 1_565 S
Zn118 O125 1.965 . S
Zn119 O117 1.950 . S
Zn119 O126 1.938 1_545 S
Zn119 O127 1.906 1_545 S
Zn119 O137 1.953 . S
Zn120 O117 1.945 . S
Zn120 O122 1.932 . S
Zn120 O129 1.977 . S
Zn120 O130 1.910 . S
O121 Zn118 1.933 1_545 S
O121 C132 1.226 . S
O122 Zn120 1.932 . S
O122 C132 1.307 . S
O123 Zn116 1.919 . S
O123 C134 1.253 . S
O124 Zn118 1.941 1_545 S
O124 C134 1.283 . S
O125 Zn118 1.965 . S
O125 C133 1.303 . S
O126 Zn119 1.938 1_565 S
O126 C133 1.247 . S
O127 Zn119 1.906 1_565 S
O127 C135 1.304 1_565 S
O128 Zn116 1.924 . S
O128 C136 1.311 . S
O129 Zn120 1.977 . S
O129 C135 1.272 . S
O130 Zn120 1.910 . S
O130 C136 1.231 . S
C131 O115 1.225 . S
C131 O137 1.298 . S
C132 O121 1.226 . S
C132 O122 1.307 . S
C133 O125 1.303 . S
C133 O126 1.247 . S
C134 O123 1.253 . S
C134 O124 1.283 . S
C135 O127 1.304 1_545 S
C135 O129 1.272 . S
C136 O128 1.311 . S
C136 O130 1.231 . S
O137 Zn119 1.953 . S
O137 C131 1.298 . S
O138 Zn139 1.953 . S
O138 C154 1.225 . S
Zn139 O138 1.953 . S
Zn139 O140 1.949 . S
Zn139 O146 1.919 . S
Zn139 O151 1.924 . S
O140 Zn139 1.949 . S
O140 Zn141 1.923 . S
O140 Zn142 1.950 . S
O140 Zn143 1.945 . S
Zn141 O140 1.923 . S
Zn141 O144 1.933 . S
Zn141 O147 1.941 . S
Zn141 O148 1.965 . S
Zn142 O140 1.950 . S
Zn142 O149 1.938 . S
Zn142 O150 1.906 . S
Zn142 O160 1.953 . S
Zn143 O140 1.945 . S
Zn143 O145 1.932 . S
Zn143 O152 1.977 . S
Zn143 O153 1.910 . S
O144 Zn141 1.933 . S
O144 C155 1.226 . S
O145 Zn143 1.932 . S
O145 C155 1.307 . S
O146 Zn139 1.919 . S
O146 C157 1.253 . S
O147 Zn141 1.941 . S
O147 C157 1.283 . S
O148 Zn141 1.965 . S
O148 C156 1.303 . S
O149 Zn142 1.938 . S
O149 C156 1.247 . S
O150 Zn142 1.906 . S
O150 C158 1.304 . S
O151 Zn139 1.924 . S
O151 C159 1.311 . S
O152 Zn143 1.977 . S
O152 C158 1.272 . S
O153 Zn143 1.910 . S
O153 C159 1.231 . S
C154 O138 1.225 . S
C154 O160 1.298 . S
C155 O144 1.226 . S
C155 O145 1.307 . S
C156 O148 1.303 . S
C156 O149 1.247 . S
C157 O146 1.253 . S
C157 O147 1.283 . S
C158 O150 1.304 . S
C158 O152 1.272 . S
C159 O151 1.311 . S
C159 O153 1.231 . S
O160 Zn142 1.953 . S
O160 C154 1.298 . S
O161 Zn162 1.953 . S
O161 C177 1.225 . S
Zn162 O161 1.953 . S
Zn162 O163 1.949 . S
Zn162 O169 1.919 . S
Zn162 O174 1.924 . S
O163 Zn162 1.949 . S
O163 Zn164 1.923 . S
O163 Zn165 1.950 . S
O163 Zn166 1.945 . S
Zn164 O163 1.923 . S
Zn164 O167 1.933 . S
Zn164 O170 1.941 . S
Zn164 O171 1.965 . S
Zn165 O163 1.950 . S
Zn165 O172 1.938 . S
Zn165 O173 1.906 . S
Zn165 O183 1.953 . S
Zn166 O163 1.945 . S
Zn166 O168 1.932 . S
Zn166 O175 1.977 . S
Zn166 O176 1.910 . S
O167 Zn164 1.933 . S
O167 C178 1.226 . S
O168 Zn166 1.932 . S
O168 C178 1.307 . S
O169 Zn162 1.919 . S
O169 C180 1.253 . S
O170 Zn164 1.941 . S
O170 C180 1.283 . S
O171 Zn164 1.965 . S
O171 C179 1.303 . S
O172 Zn165 1.938 . S
O172 C179 1.247 . S
O173 Zn165 1.906 . S
O173 C181 1.304 . S
O174 Zn162 1.924 . S
O174 C182 1.311 . S
O175 Zn166 1.977 . S
O175 C181 1.272 . S
O176 Zn166 1.910 . S
O176 C182 1.231 . S
C177 O161 1.225 . S
C177 O183 1.298 . S
C178 O167 1.226 . S
C178 O168 1.307 . S
C179 O171 1.303 . S
C179 O172 1.247 . S
C180 O169 1.253 . S
C180 O170 1.283 . S
C181 O173 1.304 . S
C181 O175 1.272 . S
C182 O174 1.311 . S
C182 O176 1.231 . S
O183 Zn165 1.953 . S
O183 C177 1.298 . S
O184 Zn185 1.953 . S
O184 C200 1.225 . S
Zn185 O184 1.953 . S
Zn185 O186 1.949 . S
Zn185 O192 1.919 . S
Zn185 O197 1.924 . S
O186 Zn185 1.949 . S
O186 Zn187 1.923 1_655 S
O186 Zn188 1.950 . S
O186 Zn189 1.945 . S
Zn187 O186 1.923 1_455 S
Zn187 O190 1.933 1_455 S
Zn187 O193 1.941 1_455 S
Zn187 O194 1.965 . S
Zn188 O186 1.950 . S
Zn188 O195 1.938 1_655 S
Zn188 O196 1.906 1_655 S
Zn188 O206 1.953 . S
Zn189 O186 1.945 . S
Zn189 O191 1.932 . S
Zn189 O198 1.977 . S
Zn189 O199 1.910 . S
O190 Zn187 1.933 1_655 S
O190 C201 1.226 . S
O191 Zn189 1.932 . S
O191 C201 1.307 . S
O192 Zn185 1.919 . S
O192 C203 1.253 . S
O193 Zn187 1.941 1_655 S
O193 C203 1.283 . S
O194 Zn187 1.965 . S
O194 C202 1.303 . S
O195 Zn188 1.938 1_455 S
O195 C202 1.247 . S
O196 Zn188 1.906 1_455 S
O196 C204 1.304 1_455 S
O197 Zn185 1.924 . S
O197 C205 1.311 . S
O198 Zn189 1.977 . S
O198 C204 1.272 . S
O199 Zn189 1.910 . S
O199 C205 1.231 . S
C200 O184 1.225 . S
C200 O206 1.298 . S
C201 O190 1.226 . S
C201 O191 1.307 . S
C202 O194 1.303 . S
C202 O195 1.247 . S
C203 O192 1.253 . S
C203 O193 1.283 . S
C204 O196 1.304 1_655 S
C204 O198 1.272 . S
C205 O197 1.311 . S
C205 O199 1.231 . S
O206 Zn188 1.953 . S
O206 C200 1.298 . S
O207 Zn208 1.953 . S
O207 C223 1.225 . S
Zn208 O207 1.953 . S
Zn208 O209 1.949 . S
Zn208 O215 1.919 . S
Zn208 O220 1.924 . S
O209 Zn208 1.949 . S
O209 Zn210 1.923 1_565 S
O209 Zn211 1.950 . S
O209 Zn212 1.945 . S
Zn210 O209 1.923 1_545 S
Zn210 O213 1.933 1_545 S
Zn210 O216 1.941 1_545 S
Zn210 O217 1.965 . S
Zn211 O209 1.950 . S
Zn211 O218 1.938 1_565 S
Zn211 O219 1.906 1_565 S
Zn211 O229 1.953 . S
Zn212 O209 1.945 . S
Zn212 O214 1.932 . S
Zn212 O221 1.977 . S
Zn212 O222 1.910 . S
O213 Zn210 1.933 1_565 S
O213 C224 1.226 . S
O214 Zn212 1.932 . S
O214 C224 1.307 . S
O215 Zn208 1.919 . S
O215 C226 1.253 . S
O216 Zn210 1.941 1_565 S
O216 C226 1.283 . S
O217 Zn210 1.965 . S
O217 C225 1.303 . S
O218 Zn211 1.938 1_545 S
O218 C225 1.247 . S
O219 Zn211 1.906 1_545 S
O219 C227 1.304 1_545 S
O220 Zn208 1.924 . S
O220 C228 1.311 . S
O221 Zn212 1.977 . S
O221 C227 1.272 . S
O222 Zn212 1.910 . S
O222 C228 1.231 . S
C223 O207 1.225 . S
C223 O229 1.298 . S
C224 O213 1.226 . S
C224 O214 1.307 . S
C225 O217 1.303 . S
C225 O218 1.247 . S
C226 O215 1.253 . S
C226 O216 1.283 . S
C227 O219 1.304 1_565 S
C227 O221 1.272 . S
C228 O220 1.311 . S
C228 O222 1.231 . S
O229 Zn211 1.953 . S
O229 C223 1.298 . S
O230 Zn231 1.953 . S
O230 C246 1.225 . S
Zn231 O230 1.953 . S
Zn231 O232 1.949 . S
Zn231 O238 1.919 . S
Zn231 O243 1.924 . S
O232 Zn231 1.949 . S
O232 Zn233 1.923 . S
O232 Zn234 1.950 . S
O232 Zn235 1.945 . S
Zn233 O232 1.923 . S
Zn233 O236 1.933 . S
Zn233 O239 1.941 . S
Zn233 O240 1.965 . S
Zn234 O232 1.950 . S
Zn234 O241 1.938 . S
Zn234 O242 1.906 . S
Zn234 O252 1.953 . S
Zn235 O232 1.945 . S
Zn235 O237 1.932 . S
Zn235 O244 1.977 . S
Zn235 O245 1.910 . S
O236 Zn233 1.933 . S
O236 C247 1.226 . S
O237 Zn235 1.932 . S
O237 C247 1.307 . S
O238 Zn231 1.919 . S
O238 C249 1.253 . S
O239 Zn233 1.941 . S
O239 C249 1.283 . S
O240 Zn233 1.965 . S
O240 C248 1.303 . S
O241 Zn234 1.938 . S
O241 C248 1.247 . S
O242 Zn234 1.906 . S
O242 C250 1.304 . S
O243 Zn231 1.924 . S
O243 C251 1.311 . S
O244 Zn235 1.977 . S
O244 C250 1.272 . S
O245 Zn235 1.910 . S
O245 C251 1.231 . S
C246 O230 1.225 . S
C246 O252 1.298 . S
C247 O236 1.226 . S
C247 O237 1.307 . S
C248 O240 1.303 . S
C248 O241 1.247 . S
C249 O238 1.253 . S
C249 O239 1.283 . S
C250 O242 1.304 . S
C250 O244 1.272 . S
C251 O243 1.311 . S
C251 O245 1.231 . S
O252 Zn234 1.953 . S
O252 C246 1.298 . S
O253 Zn254 1.953 . S
O253 C269 1.225 . S
Zn254 O253 1.953 . S
Zn254 O255 1.949 . S
Zn254 O261 1.919 . S
Zn254 O266 1.924 . S
O255 Zn254 1.949 . S
O255 Zn256 1.923 . S
O255 Zn257 1.950 . S
O255 Zn258 1.945 . S
Zn256 O255 1.923 . S
Zn256 O259 1.933 . S
Zn256 O262 1.941 . S
Zn256 O263 1.965 . S
Zn257 O255 1.950 . S
Zn257 O264 1.938 . S
Zn257 O265 1.906 . S
Zn257 O275 1.953 . S
Zn258 O255 1.945 . S
Zn258 O260 1.932 . S
Zn258 O267 1.977 . S
Zn258 O268 1.910 . S
O259 Zn256 1.933 . S
O259 C270 1.226 . S
O260 Zn258 1.932 . S
O260 C270 1.307 . S
O261 Zn254 1.919 . S
O261 C272 1.253 . S
O262 Zn256 1.941 . S
O262 C272 1.283 . S
O263 Zn256 1.965 . S
O263 C271 1.303 . S
O264 Zn257 1.938 . S
O264 C271 1.247 . S
O265 Zn257 1.906 . S
O265 C273 1.304 . S
O266 Zn254 1.924 . S
O266 C274 1.311 . S
O267 Zn258 1.977 . S
O267 C273 1.272 . S
O268 Zn258 1.910 . S
O268 C274 1.231 . S
C269 O253 1.225 . S
C269 O275 1.298 . S
C270 O259 1.226 . S
C270 O260 1.307 . S
C271 O263 1.303 . S
C271 O264 1.247 . S
C272 O261 1.253 . S
C272 O262 1.283 . S
C273 O265 1.304 . S
C273 O267 1.272 . S
C274 O266 1.311 . S
C274 O268 1.231 . S
O275 Zn257 1.953 . S
O275 C269 1.298 . S
O276 Zn277 1.953 . S
O276 C292 1.225 . S
Zn277 O276 1.953 . S
Zn277 O278 1.949 . S
Zn277 O284 1.919 . S
Zn277 O289 1.924 . S
O278 Zn277 1.949 . S
O278 Zn279 1.923 1_655 S
O278 Zn280 1.950 . S
O278 Zn281 1.945 . S
Zn279 O278 1.923 1_455 S
Zn279 O282 1.933 1_455 S
Zn279 O285 1.941 1_455 S
Zn279 O286 1.965 . S
Zn280 O278 1.950 . S
Zn280 O287 1.938 1_655 S
Zn280 O288 1.906 1_655 S
Zn280 O298 1.953 . S
Zn281 O278 1.945 . S
Zn281 O283 1.932 . S
Zn281 O290 1.977 . S
Zn281 O291 1.910 . S
O282 Zn279 1.933 1_655 S
O282 C293 1.226 . S
O283 Zn281 1.932 . S
O283 C293 1.307 . S
O284 Zn277 1.919 . S
O284 C295 1.253 . S
O285 Zn279 1.941 1_655 S
O285 C295 1.283 . S
O286 Zn279 1.965 . S
O286 C294 1.303 . S
O287 Zn280 1.938 1_455 S
O287 C294 1.247 . S
O288 Zn280 1.906 1_455 S
O288 C296 1.304 1_455 S
O289 Zn277 1.924 . S
O289 C297 1.311 . S
O290 Zn281 1.977 . S
O290 C296 1.272 . S
O291 Zn281 1.910 . S
O291 C297 1.231 . S
C292 O276 1.225 . S
C292 O298 1.298 . S
C293 O282 1.226 . S
C293 O283 1.307 . S
C294 O286 1.303 . S
C294 O287 1.247 . S
C295 O284 1.253 . S
C295 O285 1.283 . S
C296 O288 1.304 1_655 S
C296 O290 1.272 . S
C297 O289 1.311 . S
C297 O291 1.231 . S
O298 Zn280 1.953 . S
O298 C292 1.298 . S
O299 Zn300 1.953 . S
O299 C315 1.225 . S
Zn300 O299 1.953 . S
Zn300 O301 1.949 . S
Zn300 O307 1.919 . S
Zn300 O312 1.924 . S
O301 Zn300 1.949 . S
O301 Zn302 1.923 1_565 S
O301 Zn303 1.950 . S
O301 Zn304 1.945 . S
Zn302 O301 1.923 1_545 S
Zn302 O305 1.933 1_545 S
Zn302 O308 1.941 1_545 S
Zn302 O309 1.965 . S
Zn303 O301 1.950 . S
Zn303 O310 1.938 1_565 S
Zn303 O311 1.906 1_565 S
Zn303 O321 1.953 . S
Zn304 O301 1.945 . S
Zn304 O306 1.932 . S
Zn304 O313 1.977 . S
Zn304 O314 1.910 . S
O305 Zn302 1.933 1_565 S
O305 C316 1.226 . S
O306 Zn304 1.932 . S
O306 C316 1.307 . S
O307 Zn300 1.919 . S
O307 C318 1.253 . S
O308 Zn302 1.941 1_565 S
O308 C318 1.283 . S
O309 Zn302 1.965 . S
O309 C317 1.303 . S
O310 Zn303 1.938 1_545 S
O310 C317 1.247 . S
O311 Zn303 1.906 1_545 S
O311 C319 1.304 1_545 S
O312 Zn300 1.924 . S
O312 C320 1.311 . S
O313 Zn304 1.977 . S
O313 C319 1.272 . S
O314 Zn304 1.910 . S
O314 C320 1.231 . S
C315 O299 1.225 . S
C315 O321 1.298 . S
C316 O305 1.226 . S
C316 O306 1.307 . S
C317 O309 1.303 . S
C317 O310 1.247 . S
C318 O307 1.253 . S
C318 O308 1.283 . S
C319 O311 1.304 1_565 S
C319 O313 1.272 . S
C320 O312 1.311 . S
C320 O314 1.231 . S
O321 Zn303 1.953 . S
O321 C315 1.298 . S
O322 Zn323 1.953 . S
O322 C338 1.225 . S
Zn323 O322 1.953 . S
Zn323 O324 1.949 . S
Zn323 O330 1.919 . S
Zn323 O335 1.924 . S
O324 Zn323 1.949 . S
O324 Zn325 1.923 . S
O324 Zn326 1.950 . S
O324 Zn327 1.945 . S
Zn325 O324 1.923 . S
Zn325 O328 1.933 . S
Zn325 O331 1.941 . S
Zn325 O332 1.965 . S
Zn326 O324 1.950 . S
Zn326 O333 1.938 . S
Zn326 O334 1.906 . S
Zn326 O344 1.953 . S
Zn327 O324 1.945 . S
Zn327 O329 1.932 . S
Zn327 O336 1.977 . S
Zn327 O337 1.910 . S
O328 Zn325 1.933 . S
O328 C339 1.226 . S
O329 Zn327 1.932 . S
O329 C339 1.307 . S
O330 Zn323 1.919 . S
O330 C341 1.253 . S
O331 Zn325 1.941 . S
O331 C341 1.283 . S
O332 Zn325 1.965 . S
O332 C340 1.303 . S
O333 Zn326 1.938 . S
O333 C340 1.247 . S
O334 Zn326 1.906 . S
O334 C342 1.304 . S
O335 Zn323 1.924 . S
O335 C343 1.311 . S
O336 Zn327 1.977 . S
O336 C342 1.272 . S
O337 Zn327 1.910 . S
O337 C343 1.231 . S
C338 O322 1.225 . S
C338 O344 1.298 . S
C339 O328 1.226 . S
C339 O329 1.307 . S
C340 O332 1.303 . S
C340 O333 1.247 . S
C341 O330 1.253 . S
C341 O331 1.283 . S
C342 O334 1.304 . S
C342 O336 1.272 . S
C343 O335 1.311 . S
C343 O337 1.231 . S
O344 Zn326 1.953 . S
O344 C338 1.298 . S
O345 Zn346 1.953 . S
O345 C361 1.225 . S
Zn346 O345 1.953 . S
Zn346 O347 1.949 . S
Zn346 O353 1.919 . S
Zn346 O358 1.924 . S
O347 Zn346 1.949 . S
O347 Zn348 1.923 . S
O347 Zn349 1.950 . S
O347 Zn350 1.945 . S
Zn348 O347 1.923 . S
Zn348 O351 1.933 . S
Zn348 O354 1.941 . S
Zn348 O355 1.965 . S
Zn349 O347 1.950 . S
Zn349 O356 1.938 . S
Zn349 O357 1.906 . S
Zn349 O367 1.953 . S
Zn350 O347 1.945 . S
Zn350 O352 1.932 . S
Zn350 O359 1.977 . S
Zn350 O360 1.910 . S
O351 Zn348 1.933 . S
O351 C362 1.226 . S
O352 Zn350 1.932 . S
O352 C362 1.307 . S
O353 Zn346 1.919 . S
O353 C364 1.253 . S
O354 Zn348 1.941 . S
O354 C364 1.283 . S
O355 Zn348 1.965 . S
O355 C363 1.303 . S
O356 Zn349 1.938 . S
O356 C363 1.247 . S
O357 Zn349 1.906 . S
O357 C365 1.304 . S
O358 Zn346 1.924 . S
O358 C366 1.311 . S
O359 Zn350 1.977 . S
O359 C365 1.272 . S
O360 Zn350 1.910 . S
O360 C366 1.231 . S
C361 O345 1.225 . S
C361 O367 1.298 . S
C362 O351 1.226 . S
C362 O352 1.307 . S
C363 O355 1.303 . S
C363 O356 1.247 . S
C364 O353 1.253 . S
C364 O354 1.283 . S
C365 O357 1.304 . S
C365 O359 1.272 . S
C366 O358 1.311 . S
C366 O360 1.231 . S
O367 Zn349 1.953 . S
O367 C361 1.298 . S
H368 C380 0.930 . S
H369 C382 0.930 . S
H370 C383 0.930 . S
H371 C387 0.959 . S
H372 C387 0.959 . S
H373 C387 0.961 . S
H374 C388 0.960 . S
H375 C388 0.961 . S
H376 C388 0.959 . S
H377 C391 0.929 . S
H378 C392 0.931 . S
H379 C394 0.930 . S
C380 H368 0.930 . S
C380 C381 1.399 . S
C380 C385 1.399 . S
C381 C380 1.399 . S
C381 C382 1.376 . S
C382 H369 0.930 . S
C382 C381 1.376 . S
C382 C383 1.388 . S
C383 H370 0.930 . S
C383 C382 1.388 . S
C383 C384 1.390 . S
C384 C383 1.390 . S
C384 C385 1.394 . S
C384 C390 1.465 . S
C385 C380 1.399 . S
C385 C384 1.394 . S
C385 C386 1.516 . S
C386 C385 1.516 . S
C386 C387 1.502 . S
C386 C388 1.561 . S
C386 C389 1.526 . S
C387 H371 0.959 . S
C387 H372 0.959 . S
C387 H373 0.961 . S
C387 C386 1.502 . S
C388 H374 0.960 . S
C388 H375 0.961 . S
C388 H376 0.959 . S
C388 C386 1.561 . S
C389 C386 1.526 . S
C389 C390 1.396 . S
C389 C394 1.390 . S
C390 C384 1.465 . S
C390 C389 1.396 . S
C390 C391 1.399 . S
C391 H377 0.929 . S
C391 C390 1.399 . S
C391 C392 1.385 . S
C392 H378 0.931 . S
C392 C391 1.385 . S
C392 C393 1.389 . S
C393 C392 1.389 . S
C393 C394 1.387 . S
C394 H379 0.930 . S
C394 C389 1.390 . S
C394 C393 1.387 . S
H395 C407 0.930 1_455 S
H396 C409 0.930 . S
H397 C410 0.930 . S
H398 C414 0.959 1_455 S
H399 C414 0.959 . S
H400 C414 0.961 1_455 S
H401 C415 0.960 . S
H402 C415 0.961 . S
H403 C415 0.959 . S
H404 C418 0.929 . S
H405 C419 0.931 . S
H406 C421 0.930 . S
C407 H395 0.930 1_655 S
C407 C408 1.399 1_655 S
C407 C412 1.399 . S
C408 C407 1.399 1_455 S
C408 C409 1.376 1_455 S
C409 H396 0.930 . S
C409 C408 1.376 1_655 S
C409 C410 1.388 . S
C410 H397 0.930 . S
C410 C409 1.388 . S
C410 C411 1.390 . S
C411 C410 1.390 . S
C411 C412 1.394 . S
C411 C417 1.465 . S
C412 C407 1.399 . S
C412 C411 1.394 . S
C412 C413 1.516 . S
C413 C412 1.516 . S
C413 C414 1.502 . S
C413 C415 1.561 . S
C413 C416 1.526 . S
C414 H398 0.959 1_655 S
C414 H399 0.959 . S
C414 H400 0.961 1_655 S
C414 C413 1.502 . S
C415 H401 0.960 . S
C415 H402 0.961 . S
C415 H403 0.959 . S
C415 C413 1.561 . S
C416 C413 1.526 . S
C416 C417 1.396 . S
C416 C421 1.390 . S
C417 C411 1.465 . S
C417 C416 1.396 . S
C417 C418 1.399 . S
C418 H404 0.929 . S
C418 C417 1.399 . S
C418 C419 1.385 . S
C419 H405 0.931 . S
C419 C418 1.385 . S
C419 C420 1.389 . S
C420 C419 1.389 . S
C420 C421 1.387 . S
C421 H406 0.930 . S
C421 C416 1.390 . S
C421 C420 1.387 . S
H422 C434 0.930 . S
H423 C436 0.930 . S
H424 C437 0.930 . S
H425 C441 0.959 . S
H426 C441 0.959 . S
H427 C441 0.961 . S
H428 C442 0.960 . S
H429 C442 0.961 . S
H430 C442 0.959 . S
H431 C445 0.929 . S
H432 C446 0.931 . S
H433 C448 0.930 . S
C434 H422 0.930 . S
C434 C435 1.399 . S
C434 C439 1.399 . S
C435 C434 1.399 . S
C435 C436 1.376 . S
C436 H423 0.930 . S
C436 C435 1.376 . S
C436 C437 1.388 . S
C437 H424 0.930 . S
C437 C436 1.388 . S
C437 C438 1.390 . S
C438 C437 1.390 . S
C438 C439 1.394 . S
C438 C444 1.465 . S
C439 C434 1.399 . S
C439 C438 1.394 . S
C439 C440 1.516 . S
C440 C439 1.516 . S
C440 C441 1.502 1_565 S
C440 C442 1.561 . S
C440 C443 1.526 . S
C441 H425 0.959 . S
C441 H426 0.959 . S
C441 H427 0.961 . S
C441 C440 1.502 1_545 S
C442 H428 0.960 . S
C442 H429 0.961 . S
C442 H430 0.959 . S
C442 C440 1.561 . S
C443 C440 1.526 . S
C443 C444 1.396 . S
C443 C448 1.390 1_565 S
C444 C438 1.465 . S
C444 C443 1.396 . S
C444 C445 1.399 . S
C445 H431 0.929 . S
C445 C444 1.399 . S
C445 C446 1.385 . S
C446 H432 0.931 . S
C446 C445 1.385 . S
C446 C447 1.389 1_565 S
C447 C446 1.389 1_545 S
C447 C448 1.387 . S
C448 H433 0.930 . S
C448 C443 1.390 1_545 S
C448 C447 1.387 . S
H449 C461 0.930 . S
H450 C463 0.930 . S
H451 C464 0.930 . S
H452 C468 0.959 . S
H453 C468 0.959 . S
H454 C468 0.961 . S
H455 C469 0.960 . S
H456 C469 0.961 . S
H457 C469 0.959 . S
H458 C472 0.929 . S
H459 C473 0.931 . S
H460 C475 0.930 . S
C461 H449 0.930 . S
C461 C462 1.399 . S
C461 C466 1.399 . S
C462 C461 1.399 . S
C462 C463 1.376 . S
C463 H450 0.930 . S
C463 C462 1.376 . S
C463 C464 1.388 . S
C464 H451 0.930 . S
C464 C463 1.388 . S
C464 C465 1.390 . S
C465 C464 1.390 . S
C465 C466 1.394 . S
C465 C471 1.465 . S
C466 C461 1.399 . S
C466 C465 1.394 . S
C466 C467 1.516 . S
C467 C466 1.516 . S
C467 C468 1.502 . S
C467 C469 1.561 . S
C467 C470 1.526 . S
C468 H452 0.959 . S
C468 H453 0.959 . S
C468 H454 0.961 . S
C468 C467 1.502 . S
C469 H455 0.960 . S
C469 H456 0.961 . S
C469 H457 0.959 . S
C469 C467 1.561 . S
C470 C467 1.526 . S
C470 C471 1.396 . S
C470 C475 1.390 . S
C471 C465 1.465 . S
C471 C470 1.396 . S
C471 C472 1.399 . S
C472 H458 0.929 . S
C472 C471 1.399 . S
C472 C473 1.385 . S
C473 H459 0.931 . S
C473 C472 1.385 . S
C473 C474 1.389 . S
C474 C473 1.389 . S
C474 C475 1.387 . S
C475 H460 0.930 . S
C475 C470 1.390 . S
C475 C474 1.387 . S
H476 C488 0.930 . S
H477 C490 0.930 . S
H478 C491 0.930 1_545 S
H479 C495 0.959 . S
H480 C495 0.959 . S
H481 C495 0.961 . S
H482 C496 0.960 . S
H483 C496 0.961 . S
H484 C496 0.959 . S
H485 C499 0.929 . S
H486 C500 0.931 . S
H487 C502 0.930 . S
C488 H476 0.930 . S
C488 C489 1.399 . S
C488 C493 1.399 . S
C489 C488 1.399 . S
C489 C490 1.376 . S
C490 H477 0.930 . S
C490 C489 1.376 . S
C490 C491 1.388 . S
C491 H478 0.930 1_565 S
C491 C490 1.388 . S
C491 C492 1.390 . S
C492 C491 1.390 . S
C492 C493 1.394 . S
C492 C498 1.465 . S
C493 C488 1.399 . S
C493 C492 1.394 . S
C493 C494 1.516 . S
C494 C493 1.516 . S
C494 C495 1.502 . S
C494 C496 1.561 . S
C494 C497 1.526 . S
C495 H479 0.959 . S
C495 H480 0.959 . S
C495 H481 0.961 . S
C495 C494 1.502 . S
C496 H482 0.960 . S
C496 H483 0.961 . S
C496 H484 0.959 . S
C496 C494 1.561 . S
C497 C494 1.526 . S
C497 C498 1.396 . S
C497 C502 1.390 . S
C498 C492 1.465 . S
C498 C497 1.396 . S
C498 C499 1.399 1_565 S
C499 H485 0.929 . S
C499 C498 1.399 1_545 S
C499 C500 1.385 . S
C500 H486 0.931 . S
C500 C499 1.385 . S
C500 C501 1.389 . S
C501 C500 1.389 . S
C501 C502 1.387 1_545 S
C502 H487 0.930 . S
C502 C497 1.390 . S
C502 C501 1.387 1_565 S
H503 C515 0.930 . S
H504 C517 0.930 . S
H505 C518 0.930 . S
H506 C522 0.959 . S
H507 C522 0.959 . S
H508 C522 0.961 . S
H509 C523 0.960 . S
H510 C523 0.961 . S
H511 C523 0.959 . S
H512 C526 0.929 . S
H513 C527 0.931 . S
H514 C529 0.930 . S
C515 H503 0.930 . S
C515 C516 1.399 . S
C515 C520 1.399 . S
C516 C515 1.399 . S
C516 C517 1.376 . S
C517 H504 0.930 . S
C517 C516 1.376 . S
C517 C518 1.388 . S
C518 H505 0.930 . S
C518 C517 1.388 . S
C518 C519 1.390 . S
C519 C518 1.390 . S
C519 C520 1.394 . S
C519 C525 1.465 . S
C520 C515 1.399 . S
C520 C519 1.394 . S
C520 C521 1.516 . S
C521 C520 1.516 . S
C521 C522 1.502 . S
C521 C523 1.561 . S
C521 C524 1.526 . S
C522 H506 0.959 . S
C522 H507 0.959 . S
C522 H508 0.961 . S
C522 C521 1.502 . S
C523 H509 0.960 . S
C523 H510 0.961 . S
C523 H511 0.959 . S
C523 C521 1.561 . S
C524 C521 1.526 . S
C524 C525 1.396 . S
C524 C529 1.390 . S
C525 C519 1.465 . S
C525 C524 1.396 . S
C525 C526 1.399 . S
C526 H512 0.929 . S
C526 C525 1.399 . S
C526 C527 1.385 . S
C527 H513 0.931 . S
C527 C526 1.385 . S
C527 C528 1.389 . S
C528 C527 1.389 . S
C528 C529 1.387 . S
C529 H514 0.930 . S
C529 C524 1.390 . S
C529 C528 1.387 . S
H530 C542 0.930 . S
H531 C544 0.930 . S
H532 C545 0.930 . S
H533 C549 0.959 . S
H534 C549 0.959 . S
H535 C549 0.961 . S
H536 C550 0.960 . S
H537 C550 0.961 . S
H538 C550 0.959 . S
H539 C553 0.929 . S
H540 C554 0.931 . S
H541 C556 0.930 . S
C542 H530 0.930 . S
C542 C543 1.399 . S
C542 C547 1.399 . S
C543 C542 1.399 . S
C543 C544 1.376 . S
C544 H531 0.930 . S
C544 C543 1.376 . S
C544 C545 1.388 . S
C545 H532 0.930 . S
C545 C544 1.388 . S
C545 C546 1.390 . S
C546 C545 1.390 . S
C546 C547 1.394 . S
C546 C552 1.465 . S
C547 C542 1.399 . S
C547 C546 1.394 . S
C547 C548 1.516 . S
C548 C547 1.516 . S
C548 C549 1.502 . S
C548 C550 1.561 . S
C548 C551 1.526 . S
C549 H533 0.959 . S
C549 H534 0.959 . S
C549 H535 0.961 . S
C549 C548 1.502 . S
C550 H536 0.960 . S
C550 H537 0.961 . S
C550 H538 0.959 . S
C550 C548 1.561 . S
C551 C548 1.526 . S
C551 C552 1.396 . S
C551 C556 1.390 . S
C552 C546 1.465 . S
C552 C551 1.396 . S
C552 C553 1.399 . S
C553 H539 0.929 . S
C553 C552 1.399 . S
C553 C554 1.385 . S
C554 H540 0.931 . S
C554 C553 1.385 . S
C554 C555 1.389 . S
C555 C554 1.389 . S
C555 C556 1.387 . S
C556 H541 0.930 . S
C556 C551 1.390 . S
C556 C555 1.387 . S
H557 C569 0.930 . S
H558 C571 0.930 . S
H559 C572 0.930 . S
H560 C576 0.959 . S
H561 C576 0.959 . S
H562 C576 0.961 . S
H563 C577 0.960 1_455 S
H564 C577 0.961 . S
H565 C577 0.959 1_455 S
H566 C580 0.929 . S
H567 C581 0.931 . S
H568 C583 0.930 . S
C569 H557 0.930 . S
C569 C570 1.399 1_655 S
C569 C574 1.399 . S
C570 C569 1.399 1_455 S
C570 C571 1.376 . S
C571 H558 0.930 . S
C571 C570 1.376 . S
C571 C572 1.388 1_455 S
C572 H559 0.930 . S
C572 C571 1.388 1_655 S
C572 C573 1.390 . S
C573 C572 1.390 . S
C573 C574 1.394 . S
C573 C579 1.465 . S
C574 C569 1.399 . S
C574 C573 1.394 . S
C574 C575 1.516 . S
C575 C574 1.516 . S
C575 C576 1.502 . S
C575 C577 1.561 . S
C575 C578 1.526 . S
C576 H560 0.959 . S
C576 H561 0.959 . S
C576 H562 0.961 . S
C576 C575 1.502 . S
C577 H563 0.960 1_655 S
C577 H564 0.961 . S
C577 H565 0.959 1_655 S
C577 C575 1.561 . S
C578 C575 1.526 . S
C578 C579 1.396 . S
C578 C583 1.390 . S
C579 C573 1.465 . S
C579 C578 1.396 . S
C579 C580 1.399 . S
C580 H566 0.929 . S
C580 C579 1.399 . S
C580 C581 1.385 . S
C581 H567 0.931 . S
C581 C580 1.385 . S
C581 C582 1.389 . S
C582 C581 1.389 . S
C582 C583 1.387 . S
C583 H568 0.930 . S
C583 C578 1.390 . S
C583 C582 1.387 . S
H584 C596 0.930 . S
H585 C598 0.930 . S
H586 C599 0.930 . S
H587 C603 0.959 . S
H588 C603 0.959 . S
H589 C603 0.961 . S
H590 C604 0.960 . S
H591 C604 0.961 . S
H592 C604 0.959 . S
H593 C607 0.929 . S
H594 C608 0.931 . S
H595 C610 0.930 . S
C596 H584 0.930 . S
C596 C597 1.399 . S
C596 C601 1.399 . S
C597 C596 1.399 . S
C597 C598 1.376 . S
C598 H585 0.930 . S
C598 C597 1.376 . S
C598 C599 1.388 . S
C599 H586 0.930 . S
C599 C598 1.388 . S
C599 C600 1.390 . S
C600 C599 1.390 . S
C600 C601 1.394 . S
C600 C606 1.465 . S
C601 C596 1.399 . S
C601 C600 1.394 . S
C601 C602 1.516 . S
C602 C601 1.516 . S
C602 C603 1.502 . S
C602 C604 1.561 . S
C602 C605 1.526 . S
C603 H587 0.959 . S
C603 H588 0.959 . S
C603 H589 0.961 . S
C603 C602 1.502 . S
C604 H590 0.960 . S
C604 H591 0.961 . S
C604 H592 0.959 . S
C604 C602 1.561 . S
C605 C602 1.526 . S
C605 C606 1.396 . S
C605 C610 1.390 . S
C606 C600 1.465 . S
C606 C605 1.396 . S
C606 C607 1.399 . S
C607 H593 0.929 . S
C607 C606 1.399 . S
C607 C608 1.385 . S
C608 H594 0.931 . S
C608 C607 1.385 . S
C608 C609 1.389 . S
C609 C608 1.389 . S
C609 C610 1.387 . S
C610 H595 0.930 . S
C610 C605 1.390 . S
C610 C609 1.387 . S
H611 C623 0.930 . S
H612 C625 0.930 . S
H613 C626 0.930 . S
H614 C630 0.959 . S
H615 C630 0.959 . S
H616 C630 0.961 . S
H617 C631 0.960 1_655 S
H618 C631 0.961 1_655 S
H619 C631 0.959 . S
H620 C634 0.929 . S
H621 C635 0.931 . S
H622 C637 0.930 . S
C623 H611 0.930 . S
C623 C624 1.399 . S
C623 C628 1.399 1_655 S
C624 C623 1.399 . S
C624 C625 1.376 1_655 S
C625 H612 0.930 . S
C625 C624 1.376 1_455 S
C625 C626 1.388 . S
C626 H613 0.930 . S
C626 C625 1.388 . S
C626 C627 1.390 . S
C627 C626 1.390 . S
C627 C628 1.394 . S
C627 C633 1.465 . S
C628 C623 1.399 1_455 S
C628 C627 1.394 . S
C628 C629 1.516 . S
C629 C628 1.516 . S
C629 C630 1.502 1_455 S
C629 C631 1.561 . S
C629 C632 1.526 . S
C630 H614 0.959 . S
C630 H615 0.959 . S
C630 H616 0.961 . S
C630 C629 1.502 1_655 S
C631 H617 0.960 1_455 S
C631 H618 0.961 1_455 S
C631 H619 0.959 . S
C631 C629 1.561 . S
C632 C629 1.526 . S
C632 C633 1.396 . S
C632 C637 1.390 . S
C633 C627 1.465 . S
C633 C632 1.396 . S
C633 C634 1.399 . S
C634 H620 0.929 . S
C634 C633 1.399 . S
C634 C635 1.385 . S
C635 H621 0.931 . S
C635 C634 1.385 . S
C635 C636 1.389 . S
C636 C635 1.389 . S
C636 C637 1.387 . S
C637 H622 0.930 . S
C637 C632 1.390 . S
C637 C636 1.387 . S
H638 C650 0.930 . S
H639 C652 0.930 . S
H640 C653 0.930 . S
H641 C657 0.959 . S
H642 C657 0.959 . S
H643 C657 0.961 . S
H644 C658 0.960 . S
H645 C658 0.961 . S
H646 C658 0.959 . S
H647 C661 0.929 . S
H648 C662 0.931 . S
H649 C664 0.930 . S
C650 H638 0.930 . S
C650 C651 1.399 1_545 S
C650 C655 1.399 . S
C651 C650 1.399 1_565 S
C651 C652 1.376 . S
C652 H639 0.930 . S
C652 C651 1.376 . S
C652 C653 1.388 . S
C653 H640 0.930 . S
C653 C652 1.388 . S
C653 C654 1.390 1_565 S
C654 C653 1.390 1_545 S
C654 C655 1.394 . S
C654 C660 1.465 . S
C655 C650 1.399 . S
C655 C654 1.394 . S
C655 C656 1.516 . S
C656 C655 1.516 . S
C656 C657 1.502 . S
C656 C658 1.561 . S
C656 C659 1.526 . S
C657 H641 0.959 . S
C657 H642 0.959 . S
C657 H643 0.961 . S
C657 C656 1.502 . S
C658 H644 0.960 . S
C658 H645 0.961 . S
C658 H646 0.959 . S
C658 C656 1.561 . S
C659 C656 1.526 . S
C659 C660 1.396 . S
C659 C664 1.390 . S
C660 C654 1.465 . S
C660 C659 1.396 . S
C660 C661 1.399 . S
C661 H647 0.929 . S
C661 C660 1.399 . S
C661 C662 1.385 . S
C662 H648 0.931 . S
C662 C661 1.385 . S
C662 C663 1.389 . S
C663 C662 1.389 . S
C663 C664 1.387 . S
C664 H649 0.930 . S
C664 C659 1.390 . S
C664 C663 1.387 . S
H665 C677 0.930 . S
H666 C679 0.930 . S
H667 C680 0.930 . S
H668 C684 0.959 . S
H669 C684 0.959 . S
H670 C684 0.961 . S
H671 C685 0.960 . S
H672 C685 0.961 . S
H673 C685 0.959 . S
H674 C688 0.929 . S
H675 C689 0.931 . S
H676 C691 0.930 . S
C677 H665 0.930 . S
C677 C678 1.399 . S
C677 C682 1.399 . S
C678 C677 1.399 . S
C678 C679 1.376 . S
C679 H666 0.930 . S
C679 C678 1.376 . S
C679 C680 1.388 . S
C680 H667 0.930 . S
C680 C679 1.388 . S
C680 C681 1.390 . S
C681 C680 1.390 . S
C681 C682 1.394 . S
C681 C687 1.465 . S
C682 C677 1.399 . S
C682 C681 1.394 . S
C682 C683 1.516 . S
C683 C682 1.516 . S
C683 C684 1.502 . S
C683 C685 1.561 . S
C683 C686 1.526 . S
C684 H668 0.959 . S
C684 H669 0.959 . S
C684 H670 0.961 . S
C684 C683 1.502 . S
C685 H671 0.960 . S
C685 H672 0.961 . S
C685 H673 0.959 . S
C685 C683 1.561 . S
C686 C683 1.526 . S
C686 C687 1.396 . S
C686 C691 1.390 . S
C687 C681 1.465 . S
C687 C686 1.396 . S
C687 C688 1.399 . S
C688 H674 0.929 . S
C688 C687 1.399 . S
C688 C689 1.385 . S
C689 H675 0.931 . S
C689 C688 1.385 . S
C689 C690 1.389 . S
C690 C689 1.389 . S
C690 C691 1.387 . S
C691 H676 0.930 . S
C691 C686 1.390 . S
C691 C690 1.387 . S
H692 C704 0.930 . S
H693 C706 0.930 . S
H694 C707 0.930 . S
H695 C711 0.959 1_565 S
H696 C711 0.959 . S
H697 C711 0.961 . S
H698 C712 0.960 . S
H699 C712 0.961 . S
H700 C712 0.959 . S
H701 C715 0.929 . S
H702 C716 0.931 1_565 S
H703 C718 0.930 1_565 S
C704 H692 0.930 . S
C704 C705 1.399 . S
C704 C709 1.399 . S
C705 C704 1.399 . S
C705 C706 1.376 . S
C706 H693 0.930 . S
C706 C705 1.376 . S
C706 C707 1.388 . S
C707 H694 0.930 . S
C707 C706 1.388 . S
C707 C708 1.390 . S
C708 C707 1.390 . S
C708 C709 1.394 . S
C708 C714 1.465 . S
C709 C704 1.399 . S
C709 C708 1.394 . S
C709 C710 1.516 . S
C710 C709 1.516 . S
C710 C711 1.502 . S
C710 C712 1.561 . S
C710 C713 1.526 . S
C711 H695 0.959 1_545 S
C711 H696 0.959 . S
C711 H697 0.961 . S
C711 C710 1.502 . S
C712 H698 0.960 . S
C712 H699 0.961 . S
C712 H700 0.959 . S
C712 C710 1.561 . S
C713 C710 1.526 . S
C713 C714 1.396 . S
C713 C718 1.390 . S
C714 C708 1.465 . S
C714 C713 1.396 . S
C714 C715 1.399 . S
C715 H701 0.929 . S
C715 C714 1.399 . S
C715 C716 1.385 . S
C716 H702 0.931 1_545 S
C716 C715 1.385 . S
C716 C717 1.389 1_545 S
C717 C716 1.389 1_565 S
C717 C718 1.387 1_565 S
C718 H703 0.930 1_545 S
C718 C713 1.390 . S
C718 C717 1.387 1_545 S
H719 C731 0.930 . S
H720 C733 0.930 . S
H721 C734 0.930 . S
H722 C738 0.959 . S
H723 C738 0.959 . S
H724 C738 0.961 . S
H725 C739 0.960 . S
H726 C739 0.961 . S
H727 C739 0.959 . S
H728 C742 0.929 . S
H729 C743 0.931 . S
H730 C745 0.930 . S
C731 H719 0.930 . S
C731 C732 1.399 . S
C731 C736 1.399 . S
C732 C731 1.399 . S
C732 C733 1.376 . S
C733 H720 0.930 . S
C733 C732 1.376 . S
C733 C734 1.388 . S
C734 H721 0.930 . S
C734 C733 1.388 . S
C734 C735 1.390 . S
C735 C734 1.390 . S
C735 C736 1.394 . S
C735 C741 1.465 . S
C736 C731 1.399 . S
C736 C735 1.394 . S
C736 C737 1.516 . S
C737 C736 1.516 . S
C737 C738 1.502 . S
C737 C739 1.561 . S
C737 C740 1.526 . S
C738 H722 0.959 . S
C738 H723 0.959 . S
C738 H724 0.961 . S
C738 C737 1.502 . S
C739 H725 0.960 . S
C739 H726 0.961 . S
C739 H727 0.959 . S
C739 C737 1.561 . S
C740 C737 1.526 . S
C740 C741 1.396 . S
C740 C745 1.390 . S
C741 C735 1.465 . S
C741 C740 1.396 . S
C741 C742 1.399 . S
C742 H728 0.929 . S
C742 C741 1.399 . S
C742 C743 1.385 . S
C743 H729 0.931 . S
C743 C742 1.385 . S
C743 C744 1.389 . S
C744 C743 1.389 . S
C744 C745 1.387 . S
C745 H730 0.930 . S
C745 C740 1.390 . S
C745 C744 1.387 . S
H746 C758 0.930 . S
H747 C760 0.930 . S
H748 C761 0.930 . S
H749 C765 0.959 . S
H750 C765 0.959 . S
H751 C765 0.961 . S
H752 C766 0.960 . S
H753 C766 0.961 . S
H754 C766 0.959 . S
H755 C769 0.929 . S
H756 C770 0.931 . S
H757 C772 0.930 . S
C758 H746 0.930 . S
C758 C759 1.399 . S
C758 C763 1.399 . S
C759 C758 1.399 . S
C759 C760 1.376 . S
C760 H747 0.930 . S
C760 C759 1.376 . S
C760 C761 1.388 . S
C761 H748 0.930 . S
C761 C760 1.388 . S
C761 C762 1.390 . S
C762 C761 1.390 . S
C762 C763 1.394 . S
C762 C768 1.465 . S
C763 C758 1.399 . S
C763 C762 1.394 . S
C763 C764 1.516 . S
C764 C763 1.516 . S
C764 C765 1.502 . S
C764 C766 1.561 . S
C764 C767 1.526 . S
C765 H749 0.959 . S
C765 H750 0.959 . S
C765 H751 0.961 . S
C765 C764 1.502 . S
C766 H752 0.960 . S
C766 H753 0.961 . S
C766 H754 0.959 . S
C766 C764 1.561 . S
C767 C764 1.526 . S
C767 C768 1.396 . S
C767 C772 1.390 . S
C768 C762 1.465 . S
C768 C767 1.396 . S
C768 C769 1.399 . S
C769 H755 0.929 . S
C769 C768 1.399 . S
C769 C770 1.385 . S
C770 H756 0.931 . S
C770 C769 1.385 . S
C770 C771 1.389 . S
C771 C770 1.389 . S
C771 C772 1.387 . S
C772 H757 0.930 . S
C772 C767 1.390 . S
C772 C771 1.387 . S
H773 C785 0.930 . S
H774 C787 0.930 . S
H775 C788 0.930 . S
H776 C792 0.959 . S
H777 C792 0.959 . S
H778 C792 0.961 . S
H779 C793 0.960 . S
H780 C793 0.961 . S
H781 C793 0.959 . S
H782 C796 0.929 . S
H783 C797 0.931 . S
H784 C799 0.930 . S
C785 H773 0.930 . S
C785 C786 1.399 . S
C785 C790 1.399 . S
C786 C785 1.399 . S
C786 C787 1.376 . S
C787 H774 0.930 . S
C787 C786 1.376 . S
C787 C788 1.388 . S
C788 H775 0.930 . S
C788 C787 1.388 . S
C788 C789 1.390 . S
C789 C788 1.390 . S
C789 C790 1.394 . S
C789 C795 1.465 . S
C790 C785 1.399 . S
C790 C789 1.394 . S
C790 C791 1.516 . S
C791 C790 1.516 . S
C791 C792 1.502 . S
C791 C793 1.561 . S
C791 C794 1.526 . S
C792 H776 0.959 . S
C792 H777 0.959 . S
C792 H778 0.961 . S
C792 C791 1.502 . S
C793 H779 0.960 . S
C793 H780 0.961 . S
C793 H781 0.959 . S
C793 C791 1.561 . S
C794 C791 1.526 . S
C794 C795 1.396 . S
C794 C799 1.390 . S
C795 C789 1.465 . S
C795 C794 1.396 . S
C795 C796 1.399 1_455 S
C796 H782 0.929 . S
C796 C795 1.399 1_655 S
C796 C797 1.385 . S
C797 H783 0.931 . S
C797 C796 1.385 . S
C797 C798 1.389 . S
C798 C797 1.389 . S
C798 C799 1.387 1_655 S
C799 H784 0.930 . S
C799 C794 1.390 . S
C799 C798 1.387 1_455 S
H800 C812 0.930 1_655 S
H801 C814 0.930 . S
H802 C815 0.930 . S
H803 C819 0.959 . S
H804 C819 0.959 . S
H805 C819 0.961 . S
H806 C820 0.960 . S
H807 C820 0.961 . S
H808 C820 0.959 . S
H809 C823 0.929 . S
H810 C824 0.931 . S
H811 C826 0.930 1_655 S
C812 H800 0.930 1_455 S
C812 C813 1.399 . S
C812 C817 1.399 . S
C813 C812 1.399 . S
C813 C814 1.376 . S
C814 H801 0.930 . S
C814 C813 1.376 . S
C814 C815 1.388 . S
C815 H802 0.930 . S
C815 C814 1.388 . S
C815 C816 1.390 . S
C816 C815 1.390 . S
C816 C817 1.394 . S
C816 C822 1.465 . S
C817 C812 1.399 . S
C817 C816 1.394 . S
C817 C818 1.512 1_455 S
C818 C817 1.512 1_655 S
C818 C819 1.513 . S
C818 C820 1.556 1_655 S
C818 C821 1.522 1_655 S
C819 H803 0.959 . S
C819 H804 0.959 . S
C819 H805 0.961 . S
C819 C818 1.513 . S
C820 H806 0.960 . S
C820 H807 0.961 . S
C820 H808 0.959 . S
C820 C818 1.556 1_455 S
C821 C818 1.522 1_455 S
C821 C822 1.396 . S
C821 C826 1.390 . S
C822 C816 1.465 . S
C822 C821 1.396 . S
C822 C823 1.399 . S
C823 H809 0.929 . S
C823 C822 1.399 . S
C823 C824 1.385 . S
C824 H810 0.931 . S
C824 C823 1.385 . S
C824 C825 1.389 . S
C825 C824 1.389 . S
C825 C826 1.387 . S
C826 H811 0.930 1_455 S
C826 C821 1.390 . S
C826 C825 1.387 . S
H827 C839 0.930 . S
H828 C841 0.930 . S
H829 C842 0.930 . S
H830 C846 0.959 . S
H831 C846 0.959 . S
H832 C846 0.961 . S
H833 C847 0.960 . S
H834 C847 0.961 . S
H835 C847 0.959 . S
H836 C850 0.929 . S
H837 C851 0.931 . S
H838 C853 0.930 . S
C839 H827 0.930 . S
C839 C840 1.399 . S
C839 C844 1.399 . S
C840 C839 1.399 . S
C840 C841 1.376 1_545 S
C841 H828 0.930 . S
C841 C840 1.376 1_565 S
C841 C842 1.388 . S
C842 H829 0.930 . S
C842 C841 1.388 . S
C842 C843 1.390 1_565 S
C843 C842 1.390 1_545 S
C843 C844 1.394 . S
C843 C849 1.465 . S
C844 C839 1.399 . S
C844 C843 1.394 . S
C844 C845 1.516 . S
C845 C844 1.516 . S
C845 C846 1.502 . S
C845 C847 1.561 . S
C845 C848 1.526 . S
C846 H830 0.959 . S
C846 H831 0.959 . S
C846 H832 0.961 . S
C846 C845 1.502 . S
C847 H833 0.960 . S
C847 H834 0.961 . S
C847 H835 0.959 . S
C847 C845 1.561 . S
C848 C845 1.526 . S
C848 C849 1.396 . S
C848 C853 1.390 . S
C849 C843 1.465 . S
C849 C848 1.396 . S
C849 C850 1.399 1_545 S
C850 H836 0.929 . S
C850 C849 1.399 1_565 S
C850 C851 1.385 . S
C851 H837 0.931 . S
C851 C850 1.385 . S
C851 C852 1.389 1_565 S
C852 C851 1.389 1_545 S
C852 C853 1.387 . S
C853 H838 0.930 . S
C853 C848 1.390 . S
C853 C852 1.387 . S
H854 C866 0.930 . S
H855 C868 0.930 . S
H856 C869 0.930 . S
H857 C873 0.959 . S
H858 C873 0.959 . S
H859 C873 0.961 . S
H860 C874 0.960 . S
H861 C874 0.961 . S
H862 C874 0.959 . S
H863 C877 0.929 . S
H864 C878 0.931 . S
H865 C880 0.930 . S
C866 H854 0.930 . S
C866 C867 1.399 . S
C866 C871 1.399 . S
C867 C866 1.399 . S
C867 C868 1.376 . S
C868 H855 0.930 . S
C868 C867 1.376 . S
C868 C869 1.388 . S
C869 H856 0.930 . S
C869 C868 1.388 . S
C869 C870 1.390 . S
C870 C869 1.390 . S
C870 C871 1.394 . S
C870 C876 1.465 . S
C871 C866 1.399 . S
C871 C870 1.394 . S
C871 C872 1.516 . S
C872 C871 1.516 . S
C872 C873 1.502 . S
C872 C874 1.561 . S
C872 C875 1.526 . S
C873 H857 0.959 . S
C873 H858 0.959 . S
C873 H859 0.961 . S
C873 C872 1.502 . S
C874 H860 0.960 . S
C874 H861 0.961 . S
C874 H862 0.959 . S
C874 C872 1.561 . S
C875 C872 1.526 . S
C875 C876 1.396 . S
C875 C880 1.390 . S
C876 C870 1.465 . S
C876 C875 1.396 . S
C876 C877 1.399 . S
C877 H863 0.929 . S
C877 C876 1.399 . S
C877 C878 1.385 . S
C878 H864 0.931 . S
C878 C877 1.385 . S
C878 C879 1.389 . S
C879 C878 1.389 . S
C879 C880 1.387 . S
C880 H865 0.930 . S
C880 C875 1.390 . S
C880 C879 1.387 . S
H881 C893 0.930 . S
H882 C895 0.930 . S
H883 C896 0.930 . S
H884 C900 0.959 . S
H885 C900 0.959 . S
H886 C900 0.961 . S
H887 C901 0.960 . S
H888 C901 0.961 . S
H889 C901 0.959 . S
H890 C904 0.929 . S
H891 C905 0.931 . S
H892 C907 0.930 . S
C893 H881 0.930 . S
C893 C894 1.399 . S
C893 C898 1.399 . S
C894 C893 1.399 . S
C894 C895 1.376 . S
C895 H882 0.930 . S
C895 C894 1.376 . S
C895 C896 1.388 . S
C896 H883 0.930 . S
C896 C895 1.388 . S
C896 C897 1.390 . S
C897 C896 1.390 . S
C897 C898 1.394 . S
C897 C903 1.465 . S
C898 C893 1.399 . S
C898 C897 1.394 . S
C898 C899 1.516 . S
C899 C898 1.516 . S
C899 C900 1.502 . S
C899 C901 1.561 . S
C899 C902 1.526 . S
C900 H884 0.959 . S
C900 H885 0.959 . S
C900 H886 0.961 . S
C900 C899 1.502 . S
C901 H887 0.960 . S
C901 H888 0.961 . S
C901 H889 0.959 . S
C901 C899 1.561 . S
C902 C899 1.526 . S
C902 C903 1.396 . S
C902 C907 1.390 . S
C903 C897 1.465 . S
C903 C902 1.396 . S
C903 C904 1.399 . S
C904 H890 0.929 . S
C904 C903 1.399 . S
C904 C905 1.385 . S
C905 H891 0.931 . S
C905 C904 1.385 . S
C905 C906 1.389 . S
C906 C905 1.389 . S
C906 C907 1.387 . S
C907 H892 0.930 . S
C907 C902 1.390 . S
C907 C906 1.387 . S
H908 C920 0.930 . S
H909 C922 0.930 . S
H910 C923 0.930 . S
H911 C927 0.959 . S
H912 C927 0.959 . S
H913 C927 0.961 . S
H914 C928 0.960 . S
H915 C928 0.961 . S
H916 C928 0.959 . S
H917 C931 0.929 . S
H918 C932 0.931 . S
H919 C934 0.930 . S
C920 H908 0.930 . S
C920 C921 1.399 . S
C920 C925 1.399 . S
C921 C920 1.399 . S
C921 C922 1.376 . S
C922 H909 0.930 . S
C922 C921 1.376 . S
C922 C923 1.388 . S
C923 H910 0.930 . S
C923 C922 1.388 . S
C923 C924 1.390 . S
C924 C923 1.390 . S
C924 C925 1.394 . S
C924 C930 1.465 . S
C925 C920 1.399 . S
C925 C924 1.394 . S
C925 C926 1.516 . S
C926 C925 1.516 . S
C926 C927 1.502 1_655 S
C926 C928 1.561 . S
C926 C929 1.526 . S
C927 H911 0.959 . S
C927 H912 0.959 . S
C927 H913 0.961 . S
C927 C926 1.502 1_455 S
C928 H914 0.960 . S
C928 H915 0.961 . S
C928 H916 0.959 . S
C928 C926 1.561 . S
C929 C926 1.526 . S
C929 C930 1.396 . S
C929 C934 1.390 . S
C930 C924 1.465 . S
C930 C929 1.396 . S
C930 C931 1.399 . S
C931 H917 0.929 . S
C931 C930 1.399 . S
C931 C932 1.385 . S
C932 H918 0.931 . S
C932 C931 1.385 . S
C932 C933 1.389 . S
C933 C932 1.389 . S
C933 C934 1.387 . S
C934 H919 0.930 . S
C934 C929 1.390 . S
C934 C933 1.387 . S
H935 C947 0.930 . S
H936 C949 0.930 . S
H937 C950 0.930 . S
H938 C954 0.959 . S
H939 C954 0.959 . S
H940 C954 0.961 . S
H941 C955 0.960 . S
H942 C955 0.961 . S
H943 C955 0.959 . S
H944 C958 0.929 . S
H945 C959 0.931 . S
H946 C961 0.930 . S
C947 H935 0.930 . S
C947 C948 1.399 . S
C947 C952 1.399 . S
C948 C947 1.399 . S
C948 C949 1.376 1_565 S
C949 H936 0.930 . S
C949 C948 1.376 1_545 S
C949 C950 1.388 . S
C950 H937 0.930 . S
C950 C949 1.388 . S
C950 C951 1.390 1_545 S
C951 C950 1.390 1_565 S
C951 C952 1.394 . S
C951 C957 1.465 . S
C952 C947 1.399 . S
C952 C951 1.394 . S
C952 C953 1.516 . S
C953 C952 1.516 . S
C953 C954 1.502 . S
C953 C955 1.561 . S
C953 C956 1.526 . S
C954 H938 0.959 . S
C954 H939 0.959 . S
C954 H940 0.961 . S
C954 C953 1.502 . S
C955 H941 0.960 . S
C955 H942 0.961 . S
C955 H943 0.959 . S
C955 C953 1.561 . S
C956 C953 1.526 . S
C956 C957 1.396 . S
C956 C961 1.390 . S
C957 C951 1.465 . S
C957 C956 1.396 . S
C957 C958 1.399 1_565 S
C958 H944 0.929 . S
C958 C957 1.399 1_545 S
C958 C959 1.385 . S
C959 H945 0.931 . S
C959 C958 1.385 . S
C959 C960 1.389 1_545 S
C960 C959 1.389 1_565 S
C960 C961 1.387 . S
C961 H946 0.930 . S
C961 C956 1.390 . S
C961 C960 1.387 . S
H962 C974 0.930 . S
H963 C976 0.930 . S
H964 C977 0.930 . S
H965 C981 0.959 . S
H966 C981 0.959 . S
H967 C981 0.961 . S
H968 C982 0.960 . S
H969 C982 0.961 . S
H970 C982 0.959 . S
H971 C985 0.929 . S
H972 C986 0.931 . S
H973 C988 0.930 . S
C974 H962 0.930 . S
C974 C975 1.399 . S
C974 C979 1.399 . S
C975 C974 1.399 . S
C975 C976 1.376 . S
C976 H963 0.930 . S
C976 C975 1.376 . S
C976 C977 1.388 . S
C977 H964 0.930 . S
C977 C976 1.388 . S
C977 C978 1.390 . S
C978 C977 1.390 . S
C978 C979 1.394 . S
C978 C984 1.465 . S
C979 C974 1.399 . S
C979 C978 1.394 . S
C979 C980 1.516 . S
C980 C979 1.516 . S
C980 C981 1.502 . S
C980 C982 1.561 . S
C980 C983 1.526 . S
C981 H965 0.959 . S
C981 H966 0.959 . S
C981 H967 0.961 . S
C981 C980 1.502 . S
C982 H968 0.960 . S
C982 H969 0.961 . S
C982 H970 0.959 . S
C982 C980 1.561 . S
C983 C980 1.526 . S
C983 C984 1.396 . S
C983 C988 1.390 . S
C984 C978 1.465 . S
C984 C983 1.396 . S
C984 C985 1.399 . S
C985 H971 0.929 . S
C985 C984 1.399 . S
C985 C986 1.385 . S
C986 H972 0.931 . S
C986 C985 1.385 . S
C986 C987 1.389 . S
C987 C986 1.389 . S
C987 C988 1.387 . S
C988 H973 0.930 . S
C988 C983 1.390 . S
C988 C987 1.387 . S
H989 C1001 0.930 . S
H990 C1003 0.930 . S
H991 C1004 0.930 . S
H992 C1008 0.959 . S
H993 C1008 0.959 . S
H994 C1008 0.961 . S
H995 C1009 0.960 . S
H996 C1009 0.961 . S
H997 C1009 0.959 . S
H998 C1012 0.929 . S
H999 C1013 0.931 . S
H1000 C1015 0.930 . S
C1001 H989 0.930 . S
C1001 C1002 1.399 . S
C1001 C1006 1.399 . S
C1002 C1001 1.399 . S
C1002 C1003 1.376 . S
C1003 H990 0.930 . S
C1003 C1002 1.376 . S
C1003 C1004 1.388 . S
C1004 H991 0.930 . S
C1004 C1003 1.388 . S
C1004 C1005 1.390 . S
C1005 C1004 1.390 . S
C1005 C1006 1.394 . S
C1005 C1011 1.465 . S
C1006 C1001 1.399 . S
C1006 C1005 1.394 . S
C1006 C1007 1.516 . S
C1007 C1006 1.516 . S
C1007 C1008 1.502 . S
C1007 C1009 1.561 . S
C1007 C1010 1.526 . S
C1008 H992 0.959 . S
C1008 H993 0.959 . S
C1008 H994 0.961 . S
C1008 C1007 1.502 . S
C1009 H995 0.960 . S
C1009 H996 0.961 . S
C1009 H997 0.959 . S
C1009 C1007 1.561 . S
C1010 C1007 1.526 . S
C1010 C1011 1.396 . S
C1010 C1015 1.390 . S
C1011 C1005 1.465 . S
C1011 C1010 1.396 . S
C1011 C1012 1.399 . S
C1012 H998 0.929 . S
C1012 C1011 1.399 . S
C1012 C1013 1.385 . S
C1013 H999 0.931 . S
C1013 C1012 1.385 . S
C1013 C1014 1.389 . S
C1014 C1013 1.389 . S
C1014 C1015 1.387 . S
C1015 H1000 0.930 . S
C1015 C1010 1.390 . S
C1015 C1014 1.387 . S
H1016 C1028 0.930 . S
H1017 C1030 0.930 . S
H1018 C1031 0.930 . S
H1019 C1035 0.959 . S
H1020 C1035 0.959 . S
H1021 C1035 0.961 . S
H1022 C1036 0.960 . S
H1023 C1036 0.961 . S
H1024 C1036 0.959 . S
H1025 C1039 0.929 . S
H1026 C1040 0.931 . S
H1027 C1042 0.930 . S
C1028 H1016 0.930 . S
C1028 C1029 1.399 . S
C1028 C1033 1.399 . S
C1029 C1028 1.399 . S
C1029 C1030 1.376 . S
C1030 H1017 0.930 . S
C1030 C1029 1.376 . S
C1030 C1031 1.388 . S
C1031 H1018 0.930 . S
C1031 C1030 1.388 . S
C1031 C1032 1.390 . S
C1032 C1031 1.390 . S
C1032 C1033 1.394 . S
C1032 C1038 1.465 . S
C1033 C1028 1.399 . S
C1033 C1032 1.394 . S
C1033 C1034 1.516 . S
C1034 C1033 1.516 . S
C1034 C1035 1.502 . S
C1034 C1036 1.561 . S
C1034 C1037 1.526 . S
C1035 H1019 0.959 . S
C1035 H1020 0.959 . S
C1035 H1021 0.961 . S
C1035 C1034 1.502 . S
C1036 H1022 0.960 . S
C1036 H1023 0.961 . S
C1036 H1024 0.959 . S
C1036 C1034 1.561 . S
C1037 C1034 1.526 . S
C1037 C1038 1.396 . S
C1037 C1042 1.390 . S
C1038 C1032 1.465 . S
C1038 C1037 1.396 . S
C1038 C1039 1.399 . S
C1039 H1025 0.929 . S
C1039 C1038 1.399 . S
C1039 C1040 1.385 . S
C1040 H1026 0.931 . S
C1040 C1039 1.385 . S
C1040 C1041 1.389 . S
C1041 C1040 1.389 . S
C1041 C1042 1.387 . S
C1042 H1027 0.930 . S
C1042 C1037 1.390 . S
C1042 C1041 1.387 . S
H1043 C1055 0.930 . S
H1044 C1057 0.930 . S
H1045 C1058 0.930 . S
H1046 C1062 0.959 . S
H1047 C1062 0.959 . S
H1048 C1062 0.961 . S
H1049 C1063 0.960 . S
H1050 C1063 0.961 . S
H1051 C1063 0.959 . S
H1052 C1066 0.929 . S
H1053 C1067 0.931 . S
H1054 C1069 0.930 . S
C1055 H1043 0.930 . S
C1055 C1056 1.399 . S
C1055 C1060 1.399 . S
C1056 C1055 1.399 . S
C1056 C1057 1.376 . S
C1057 H1044 0.930 . S
C1057 C1056 1.376 . S
C1057 C1058 1.388 . S
C1058 H1045 0.930 . S
C1058 C1057 1.388 . S
C1058 C1059 1.390 . S
C1059 C1058 1.390 . S
C1059 C1060 1.394 . S
C1059 C1065 1.465 . S
C1060 C1055 1.399 . S
C1060 C1059 1.394 . S
C1060 C1061 1.516 . S
C1061 C1060 1.516 . S
C1061 C1062 1.502 . S
C1061 C1063 1.561 . S
C1061 C1064 1.526 . S
C1062 H1046 0.959 . S
C1062 H1047 0.959 . S
C1062 H1048 0.961 . S
C1062 C1061 1.502 . S
C1063 H1049 0.960 . S
C1063 H1050 0.961 . S
C1063 H1051 0.959 . S
C1063 C1061 1.561 . S
C1064 C1061 1.526 . S
C1064 C1065 1.396 . S
C1064 C1069 1.390 . S
C1065 C1059 1.465 . S
C1065 C1064 1.396 . S
C1065 C1066 1.399 . S
C1066 H1052 0.929 . S
C1066 C1065 1.399 . S
C1066 C1067 1.385 . S
C1067 H1053 0.931 . S
C1067 C1066 1.385 . S
C1067 C1068 1.389 . S
C1068 C1067 1.389 . S
C1068 C1069 1.387 . S
C1069 H1054 0.930 . S
C1069 C1064 1.390 . S
C1069 C1068 1.387 . S
H1070 C1082 0.930 . S
H1071 C1084 0.930 . S
H1072 C1085 0.930 . S
H1073 C1089 0.959 . S
H1074 C1089 0.959 . S
H1075 C1089 0.961 . S
H1076 C1090 0.960 . S
H1077 C1090 0.961 . S
H1078 C1090 0.959 . S
H1079 C1093 0.929 . S
H1080 C1094 0.931 . S
H1081 C1096 0.930 . S
C1082 H1070 0.930 . S
C1082 C1083 1.399 . S
C1082 C1087 1.399 . S
C1083 C1082 1.399 . S
C1083 C1084 1.376 . S
C1084 H1071 0.930 . S
C1084 C1083 1.376 . S
C1084 C1085 1.388 . S
C1085 H1072 0.930 . S
C1085 C1084 1.388 . S
C1085 C1086 1.390 . S
C1086 C1085 1.390 . S
C1086 C1087 1.394 . S
C1086 C1092 1.465 . S
C1087 C1082 1.399 . S
C1087 C1086 1.394 . S
C1087 C1088 1.516 . S
C1088 C1087 1.516 . S
C1088 C1089 1.502 . S
C1088 C1090 1.561 . S
C1088 C1091 1.526 . S
C1089 H1073 0.959 . S
C1089 H1074 0.959 . S
C1089 H1075 0.961 . S
C1089 C1088 1.502 . S
C1090 H1076 0.960 . S
C1090 H1077 0.961 . S
C1090 H1078 0.959 . S
C1090 C1088 1.561 . S
C1091 C1088 1.526 . S
C1091 C1092 1.396 . S
C1091 C1096 1.390 . S
C1092 C1086 1.465 . S
C1092 C1091 1.396 . S
C1092 C1093 1.399 . S
C1093 H1079 0.929 . S
C1093 C1092 1.399 . S
C1093 C1094 1.385 . S
C1094 H1080 0.931 . S
C1094 C1093 1.385 . S
C1094 C1095 1.389 . S
C1095 C1094 1.389 . S
C1095 C1096 1.387 . S
C1096 H1081 0.930 . S
C1096 C1091 1.390 . S
C1096 C1095 1.387 . S
H1097 C1109 0.930 . S
H1098 C1111 0.930 . S
H1099 C1112 0.930 . S
H1100 C1116 0.959 . S
H1101 C1116 0.959 . S
H1102 C1116 0.961 . S
H1103 C1117 0.960 . S
H1104 C1117 0.961 . S
H1105 C1117 0.959 . S
H1106 C1120 0.929 . S
H1107 C1121 0.931 . S
H1108 C1123 0.930 . S
C1109 H1097 0.930 . S
C1109 C1110 1.399 . S
C1109 C1114 1.399 . S
C1110 C1109 1.399 . S
C1110 C1111 1.376 . S
C1111 H1098 0.930 . S
C1111 C1110 1.376 . S
C1111 C1112 1.388 . S
C1112 H1099 0.930 . S
C1112 C1111 1.388 . S
C1112 C1113 1.390 . S
C1113 C1112 1.390 . S
C1113 C1114 1.394 . S
C1113 C1119 1.465 . S
C1114 C1109 1.399 . S
C1114 C1113 1.394 . S
C1114 C1115 1.516 . S
C1115 C1114 1.516 . S
C1115 C1116 1.502 . S
C1115 C1117 1.561 . S
C1115 C1118 1.526 . S
C1116 H1100 0.959 . S
C1116 H1101 0.959 . S
C1116 H1102 0.961 . S
C1116 C1115 1.502 . S
C1117 H1103 0.960 . S
C1117 H1104 0.961 . S
C1117 H1105 0.959 . S
C1117 C1115 1.561 . S
C1118 C1115 1.526 . S
C1118 C1119 1.396 . S
C1118 C1123 1.390 . S
C1119 C1113 1.465 . S
C1119 C1118 1.396 . S
C1119 C1120 1.399 . S
C1120 H1106 0.929 . S
C1120 C1119 1.399 . S
C1120 C1121 1.385 . S
C1121 H1107 0.931 . S
C1121 C1120 1.385 . S
C1121 C1122 1.389 . S
C1122 C1121 1.389 . S
C1122 C1123 1.387 . S
C1123 H1108 0.930 . S
C1123 C1118 1.390 . S
C1123 C1122 1.387 . S
H1124 C1136 0.930 . S
H1125 C1138 0.930 . S
H1126 C1139 0.930 . S
H1127 C1143 0.959 . S
H1128 C1143 0.959 . S
H1129 C1143 0.961 . S
H1130 C1144 0.960 . S
H1131 C1144 0.961 . S
H1132 C1144 0.959 . S
H1133 C1147 0.929 . S
H1134 C1148 0.931 . S
H1135 C1150 0.930 . S
C1136 H1124 0.930 . S
C1136 C1137 1.399 . S
C1136 C1141 1.399 . S
C1137 C1136 1.399 . S
C1137 C1138 1.376 . S
C1138 H1125 0.930 . S
C1138 C1137 1.376 . S
C1138 C1139 1.388 . S
C1139 H1126 0.930 . S
C1139 C1138 1.388 . S
C1139 C1140 1.390 . S
C1140 C1139 1.390 . S
C1140 C1141 1.394 . S
C1140 C1146 1.465 . S
C1141 C1136 1.399 . S
C1141 C1140 1.394 . S
C1141 C1142 1.516 . S
C1142 C1141 1.516 . S
C1142 C1143 1.502 . S
C1142 C1144 1.561 . S
C1142 C1145 1.526 . S
C1143 H1127 0.959 . S
C1143 H1128 0.959 . S
C1143 H1129 0.961 . S
C1143 C1142 1.502 . S
C1144 H1130 0.960 . S
C1144 H1131 0.961 . S
C1144 H1132 0.959 . S
C1144 C1142 1.561 . S
C1145 C1142 1.526 . S
C1145 C1146 1.396 . S
C1145 C1150 1.390 . S
C1146 C1140 1.465 . S
C1146 C1145 1.396 . S
C1146 C1147 1.399 . S
C1147 H1133 0.929 . S
C1147 C1146 1.399 . S
C1147 C1148 1.385 . S
C1148 H1134 0.931 . S
C1148 C1147 1.385 . S
C1148 C1149 1.389 . S
C1149 C1148 1.389 . S
C1149 C1150 1.387 . S
C1150 H1135 0.930 . S
C1150 C1145 1.390 . S
C1150 C1149 1.387 . S
H1151 C1163 0.930 . S
H1152 C1165 0.930 . S
H1153 C1166 0.930 . S
H1154 C1170 0.959 . S
H1155 C1170 0.959 . S
H1156 C1170 0.961 . S
H1157 C1171 0.960 . S
H1158 C1171 0.961 . S
H1159 C1171 0.959 . S
H1160 C1174 0.929 . S
H1161 C1175 0.931 . S
H1162 C1177 0.930 . S
C1163 H1151 0.930 . S
C1163 C1164 1.399 . S
C1163 C1168 1.399 . S
C1164 C1163 1.399 . S
C1164 C1165 1.376 . S
C1165 H1152 0.930 . S
C1165 C1164 1.376 . S
C1165 C1166 1.388 . S
C1166 H1153 0.930 . S
C1166 C1165 1.388 . S
C1166 C1167 1.390 . S
C1167 C1166 1.390 . S
C1167 C1168 1.394 . S
C1167 C1173 1.465 . S
C1168 C1163 1.399 . S
C1168 C1167 1.394 . S
C1168 C1169 1.516 . S
C1169 C1168 1.516 . S
C1169 C1170 1.502 . S
C1169 C1171 1.561 . S
C1169 C1172 1.526 . S
C1170 H1154 0.959 . S
C1170 H1155 0.959 . S
C1170 H1156 0.961 . S
C1170 C1169 1.502 . S
C1171 H1157 0.960 . S
C1171 H1158 0.961 . S
C1171 H1159 0.959 . S
C1171 C1169 1.561 . S
C1172 C1169 1.526 . S
C1172 C1173 1.396 . S
C1172 C1177 1.390 . S
C1173 C1167 1.465 . S
C1173 C1172 1.396 . S
C1173 C1174 1.399 . S
C1174 H1160 0.929 . S
C1174 C1173 1.399 . S
C1174 C1175 1.385 . S
C1175 H1161 0.931 . S
C1175 C1174 1.385 . S
C1175 C1176 1.389 . S
C1176 C1175 1.389 . S
C1176 C1177 1.387 . S
C1177 H1162 0.930 . S
C1177 C1172 1.390 . S
C1177 C1176 1.387 . S
H1178 C1190 0.930 . S
H1179 C1192 0.930 . S
H1180 C1193 0.930 . S
H1181 C1197 0.959 . S
H1182 C1197 0.959 . S
H1183 C1197 0.961 . S
H1184 C1198 0.960 . S
H1185 C1198 0.961 . S
H1186 C1198 0.959 . S
H1187 C1201 0.929 . S
H1188 C1202 0.931 . S
H1189 C1204 0.930 . S
C1190 H1178 0.930 . S
C1190 C1191 1.399 . S
C1190 C1195 1.399 . S
C1191 C1190 1.399 . S
C1191 C1192 1.376 . S
C1192 H1179 0.930 . S
C1192 C1191 1.376 . S
C1192 C1193 1.388 . S
C1193 H1180 0.930 . S
C1193 C1192 1.388 . S
C1193 C1194 1.390 . S
C1194 C1193 1.390 . S
C1194 C1195 1.394 . S
C1194 C1200 1.465 . S
C1195 C1190 1.399 . S
C1195 C1194 1.394 . S
C1195 C1196 1.516 . S
C1196 C1195 1.516 . S
C1196 C1197 1.502 . S
C1196 C1198 1.561 . S
C1196 C1199 1.526 . S
C1197 H1181 0.959 . S
C1197 H1182 0.959 . S
C1197 H1183 0.961 . S
C1197 C1196 1.502 . S
C1198 H1184 0.960 . S
C1198 H1185 0.961 . S
C1198 H1186 0.959 . S
C1198 C1196 1.561 . S
C1199 C1196 1.526 . S
C1199 C1200 1.396 . S
C1199 C1204 1.390 . S
C1200 C1194 1.465 . S
C1200 C1199 1.396 . S
C1200 C1201 1.399 . S
C1201 H1187 0.929 . S
C1201 C1200 1.399 . S
C1201 C1202 1.385 . S
C1202 H1188 0.931 . S
C1202 C1201 1.385 . S
C1202 C1203 1.389 . S
C1203 C1202 1.389 . S
C1203 C1204 1.387 . S
C1204 H1189 0.930 . S
C1204 C1199 1.390 . S
C1204 C1203 1.387 . S
H1205 C1217 0.930 . S
H1206 C1219 0.930 . S
H1207 C1220 0.930 . S
H1208 C1224 0.959 . S
H1209 C1224 0.959 . S
H1210 C1224 0.961 . S
H1211 C1225 0.960 . S
H1212 C1225 0.961 . S
H1213 C1225 0.959 . S
H1214 C1228 0.929 . S
H1215 C1229 0.931 . S
H1216 C1231 0.930 . S
C1217 H1205 0.930 . S
C1217 C1218 1.399 . S
C1217 C1222 1.399 . S
C1218 C1217 1.399 . S
C1218 C1219 1.376 . S
C1219 H1206 0.930 . S
C1219 C1218 1.376 . S
C1219 C1220 1.388 . S
C1220 H1207 0.930 . S
C1220 C1219 1.388 . S
C1220 C1221 1.390 . S
C1221 C1220 1.390 . S
C1221 C1222 1.394 . S
C1221 C1227 1.465 . S
C1222 C1217 1.399 . S
C1222 C1221 1.394 . S
C1222 C1223 1.516 . S
C1223 C1222 1.516 . S
C1223 C1224 1.502 . S
C1223 C1225 1.561 . S
C1223 C1226 1.526 . S
C1224 H1208 0.959 . S
C1224 H1209 0.959 . S
C1224 H1210 0.961 . S
C1224 C1223 1.502 . S
C1225 H1211 0.960 . S
C1225 H1212 0.961 . S
C1225 H1213 0.959 . S
C1225 C1223 1.561 . S
C1226 C1223 1.526 . S
C1226 C1227 1.396 . S
C1226 C1231 1.390 . S
C1227 C1221 1.465 . S
C1227 C1226 1.396 . S
C1227 C1228 1.399 . S
C1228 H1214 0.929 . S
C1228 C1227 1.399 . S
C1228 C1229 1.385 . S
C1229 H1215 0.931 . S
C1229 C1228 1.385 . S
C1229 C1230 1.389 . S
C1230 C1229 1.389 . S
C1230 C1231 1.387 . S
C1231 H1216 0.930 . S
C1231 C1226 1.390 . S
C1231 C1230 1.387 . S
H1232 C1244 0.930 . S
H1233 C1246 0.930 . S
H1234 C1247 0.930 1_455 S
H1235 C1251 0.959 . S
H1236 C1251 0.959 . S
H1237 C1251 0.961 . S
H1238 C1252 0.960 . S
H1239 C1252 0.961 . S
H1240 C1252 0.959 . S
H1241 C1255 0.929 1_556 S
H1242 C1256 0.931 . S
H1243 C1258 0.930 . S
C1244 H1232 0.930 . S
C1244 C1245 1.399 . S
C1244 C1249 1.399 . S
C1245 C1244 1.399 . S
C1245 C1246 1.376 . S
C1246 H1233 0.930 . S
C1246 C1245 1.376 . S
C1246 C1247 1.388 . S
C1247 H1234 0.930 1_655 S
C1247 C1246 1.388 . S
C1247 C1248 1.390 . S
C1248 C1247 1.390 . S
C1248 C1249 1.394 . S
C1248 C1254 1.465 1_656 S
C1249 C1244 1.399 . S
C1249 C1248 1.394 . S
C1249 C1250 1.516 1_556 S
C1250 C1249 1.516 1_554 S
C1250 C1251 1.502 . S
C1250 C1252 1.561 1_655 S
C1250 C1253 1.526 1_655 S
C1251 H1235 0.959 . S
C1251 H1236 0.959 . S
C1251 H1237 0.961 . S
C1251 C1250 1.502 . S
C1252 H1238 0.960 . S
C1252 H1239 0.961 . S
C1252 H1240 0.959 . S
C1252 C1250 1.561 1_455 S
C1253 C1250 1.526 1_455 S
C1253 C1254 1.396 . S
C1253 C1258 1.390 . S
C1254 C1248 1.465 1_454 S
C1254 C1253 1.396 . S
C1254 C1255 1.399 . S
C1255 H1241 0.929 1_554 S
C1255 C1254 1.399 . S
C1255 C1256 1.385 . S
C1256 H1242 0.931 . S
C1256 C1255 1.385 . S
C1256 C1257 1.389 . S
C1257 C1256 1.389 . S
C1257 C1258 1.387 . S
C1258 H1243 0.930 . S
C1258 C1253 1.390 . S
C1258 C1257 1.387 . S
H1259 C1271 0.930 1_545 S
H1260 C1273 0.930 . S
H1261 C1274 0.915 1_655 S
H1262 C1278 0.959 . S
H1263 C1278 0.959 . S
H1264 C1278 0.961 1_556 S
H1265 C1279 0.960 1_455 S
H1266 C1279 0.961 . S
H1267 C1279 0.959 . S
H1268 C1282 0.929 . S
H1269 C1283 0.931 . S
H1270 C1285 0.930 . S
C1271 H1259 0.930 1_565 S
C1271 C1272 1.399 . S
C1271 C1276 1.399 1_565 S
C1272 C1271 1.399 . S
C1272 C1273 1.376 . S
C1273 H1260 0.930 . S
C1273 C1272 1.376 . S
C1273 C1274 1.405 . S
C1274 H1261 0.915 1_455 S
C1274 C1273 1.405 . S
C1274 C1275 1.389 1_455 S
C1275 C1274 1.389 1_655 S
C1275 C1276 1.392 1_665 S
C1275 C1281 1.466 1_556 S
C1276 C1271 1.399 1_545 S
C1276 C1275 1.392 1_445 S
C1276 C1277 1.516 . S
C1277 C1276 1.516 . S
C1277 C1278 1.502 1_556 S
C1277 C1279 1.561 1_455 S
C1277 C1280 1.526 1_456 S
C1278 H1262 0.959 . S
C1278 H1263 0.959 . S
C1278 H1264 0.961 1_554 S
C1278 C1277 1.502 1_554 S
C1279 H1265 0.960 1_655 S
C1279 H1266 0.961 . S
C1279 H1267 0.959 . S
C1279 C1277 1.561 1_655 S
C1280 C1277 1.526 1_654 S
C1280 C1281 1.396 1_545 S
C1280 C1285 1.390 . S
C1281 C1275 1.466 1_554 S
C1281 C1280 1.396 1_565 S
C1281 C1282 1.399 . S
C1282 H1268 0.929 . S
C1282 C1281 1.399 . S
C1282 C1283 1.385 . S
C1283 H1269 0.931 . S
C1283 C1282 1.385 . S
C1283 C1284 1.389 1_565 S
C1284 C1283 1.389 1_545 S
C1284 C1285 1.387 . S
C1285 H1270 0.930 . S
C1285 C1280 1.390 . S
C1285 C1284 1.387 . S
H1286 C1298 0.930 . S
H1287 C1300 0.930 . S
H1288 C1301 0.930 . S
H1289 C1305 0.959 . S
H1290 C1305 0.959 . S
H1291 C1305 0.961 . S
H1292 C1306 0.960 . S
H1293 C1306 0.961 . S
H1294 C1306 0.975 . S
H1295 C1309 0.929 . S
H1296 C1310 0.931 . S
H1297 C1312 0.930 . S
C1298 H1286 0.930 . S
C1298 C1299 1.399 . S
C1298 C1303 1.399 . S
C1299 C1298 1.399 . S
C1299 C1300 1.376 . S
C1300 H1287 0.930 . S
C1300 C1299 1.376 . S
C1300 C1301 1.388 . S
C1301 H1288 0.930 . S
C1301 C1300 1.388 . S
C1301 C1302 1.390 . S
C1302 C1301 1.390 . S
C1302 C1303 1.394 . S
C1302 C1308 1.465 1_556 S
C1303 C1298 1.399 . S
C1303 C1302 1.394 . S
C1303 C1304 1.516 1_545 S
C1304 C1303 1.516 1_565 S
C1304 C1305 1.502 . S
C1304 C1306 1.561 1_556 S
C1304 C1307 1.526 1_556 S
C1305 H1289 0.959 . S
C1305 H1290 0.959 . S
C1305 H1291 0.961 . S
C1305 C1304 1.502 . S
C1306 H1292 0.960 . S
C1306 H1293 0.961 . S
C1306 H1294 0.975 . S
C1306 C1304 1.561 1_554 S
C1307 C1304 1.526 1_554 S
C1307 C1308 1.396 1_565 S
C1307 C1312 1.390 . S
C1308 C1302 1.465 1_554 S
C1308 C1307 1.396 1_545 S
C1308 C1309 1.399 . S
C1309 H1295 0.929 . S
C1309 C1308 1.399 . S
C1309 C1310 1.385 1_545 S
C1310 H1296 0.931 . S
C1310 C1309 1.385 1_565 S
C1310 C1311 1.389 . S
C1311 C1310 1.389 . S
C1311 C1312 1.387 . S
C1312 H1297 0.930 . S
C1312 C1307 1.390 . S
C1312 C1311 1.387 . S
H1313 C1325 0.930 . S
H1314 C1327 0.930 . S
H1315 C1328 0.930 . S
H1316 C1332 0.959 . S
H1317 C1332 0.959 . S
H1318 C1332 0.961 . S
H1319 C1333 0.960 . S
H1320 C1333 0.961 . S
H1321 C1333 0.959 . S
H1322 C1336 0.929 1_554 S
H1323 C1337 0.931 . S
H1324 C1339 0.930 . S
C1325 H1313 0.930 . S
C1325 C1326 1.399 . S
C1325 C1330 1.399 . S
C1326 C1325 1.399 . S
C1326 C1327 1.376 . S
C1327 H1314 0.930 . S
C1327 C1326 1.376 . S
C1327 C1328 1.388 . S
C1328 H1315 0.930 . S
C1328 C1327 1.388 . S
C1328 C1329 1.390 . S
C1329 C1328 1.390 . S
C1329 C1330 1.394 . S
C1329 C1335 1.465 1_554 S
C1330 C1325 1.399 . S
C1330 C1329 1.394 . S
C1330 C1331 1.516 1_554 S
C1331 C1330 1.516 1_556 S
C1331 C1332 1.502 . S
C1331 C1333 1.561 . S
C1331 C1334 1.526 . S
C1332 H1316 0.959 . S
C1332 H1317 0.959 . S
C1332 H1318 0.961 . S
C1332 C1331 1.502 . S
C1333 H1319 0.960 . S
C1333 H1320 0.961 . S
C1333 H1321 0.959 . S
C1333 C1331 1.561 . S
C1334 C1331 1.526 . S
C1334 C1335 1.396 . S
C1334 C1339 1.390 . S
C1335 C1329 1.465 1_556 S
C1335 C1334 1.396 . S
C1335 C1336 1.399 . S
C1336 H1322 0.929 1_556 S
C1336 C1335 1.399 . S
C1336 C1337 1.385 . S
C1337 H1323 0.931 . S
C1337 C1336 1.385 . S
C1337 C1338 1.389 . S
C1338 C1337 1.389 . S
C1338 C1339 1.387 . S
C1339 H1324 0.930 . S
C1339 C1334 1.390 . S
C1339 C1338 1.387 . S
H1340 C1352 0.930 1_455 S
H1341 C1354 0.930 . S
H1342 C1355 0.930 . S
H1343 C1359 0.959 . S
H1344 C1359 0.959 1_565 S
H1345 C1359 0.961 . S
H1346 C1360 0.960 . S
H1347 C1360 0.961 . S
H1348 C1360 0.959 . S
H1349 C1363 0.929 . S
H1350 C1364 0.931 . S
H1351 C1366 0.930 . S
C1352 H1340 0.930 1_655 S
C1352 C1353 1.399 . S
C1352 C1357 1.399 1_655 S
C1353 C1352 1.399 . S
C1353 C1354 1.376 . S
C1354 H1341 0.930 . S
C1354 C1353 1.376 . S
C1354 C1355 1.388 . S
C1355 H1342 0.930 . S
C1355 C1354 1.388 . S
C1355 C1356 1.390 . S
C1356 C1355 1.390 . S
C1356 C1357 1.394 1_655 S
C1356 C1362 1.465 1_545 S
C1357 C1352 1.399 1_455 S
C1357 C1356 1.394 1_455 S
C1357 C1358 1.516 1_545 S
C1358 C1357 1.516 1_565 S
C1358 C1359 1.502 1_565 S
C1358 C1360 1.561 . S
C1358 C1361 1.526 . S
C1359 H1343 0.959 . S
C1359 H1344 0.959 1_545 S
C1359 H1345 0.961 . S
C1359 C1358 1.502 1_545 S
C1360 H1346 0.960 . S
C1360 H1347 0.961 . S
C1360 H1348 0.959 . S
C1360 C1358 1.561 . S
C1361 C1358 1.526 . S
C1361 C1362 1.396 1_455 S
C1361 C1366 1.390 . S
C1362 C1356 1.465 1_565 S
C1362 C1361 1.396 1_655 S
C1362 C1363 1.399 . S
C1363 H1349 0.929 . S
C1363 C1362 1.399 . S
C1363 C1364 1.385 . S
C1364 H1350 0.931 . S
C1364 C1363 1.385 . S
C1364 C1365 1.389 1_655 S
C1365 C1364 1.389 1_455 S
C1365 C1366 1.387 . S
C1366 H1351 0.930 . S
C1366 C1361 1.390 . S
C1366 C1365 1.387 . S
H1367 C1379 0.930 . S
H1368 C1381 0.930 . S
H1369 C1382 0.930 1_545 S
H1370 C1386 0.959 1_545 S
H1371 C1386 0.959 . S
H1372 C1386 0.961 . S
H1373 C1387 0.960 . S
H1374 C1387 0.961 . S
H1375 C1387 0.959 . S
H1376 C1390 0.929 . S
H1377 C1391 0.931 . S
H1378 C1393 0.930 . S
C1379 H1367 0.930 . S
C1379 C1380 1.399 . S
C1379 C1384 1.399 . S
C1380 C1379 1.399 . S
C1380 C1381 1.376 . S
C1381 H1368 0.930 . S
C1381 C1380 1.376 . S
C1381 C1382 1.388 . S
C1382 H1369 0.930 1_565 S
C1382 C1381 1.388 . S
C1382 C1383 1.390 . S
C1383 C1382 1.390 . S
C1383 C1384 1.394 . S
C1383 C1389 1.465 1_565 S
C1384 C1379 1.399 . S
C1384 C1383 1.394 . S
C1384 C1385 1.516 . S
C1385 C1384 1.516 . S
C1385 C1386 1.502 . S
C1385 C1387 1.561 . S
C1385 C1388 1.526 1_565 S
C1386 H1370 0.959 1_565 S
C1386 H1371 0.959 . S
C1386 H1372 0.961 . S
C1386 C1385 1.502 . S
C1387 H1373 0.960 . S
C1387 H1374 0.961 . S
C1387 H1375 0.959 . S
C1387 C1385 1.561 . S
C1388 C1385 1.526 1_545 S
C1388 C1389 1.396 . S
C1388 C1393 1.390 . S
C1389 C1383 1.465 1_545 S
C1389 C1388 1.396 . S
C1389 C1390 1.399 . S
C1390 H1376 0.929 . S
C1390 C1389 1.399 . S
C1390 C1391 1.385 . S
C1391 H1377 0.931 . S
C1391 C1390 1.385 . S
C1391 C1392 1.389 . S
C1392 C1391 1.389 . S
C1392 C1393 1.387 . S
C1393 H1378 0.930 . S
C1393 C1388 1.390 . S
C1393 C1392 1.387 . S
H1394 C1406 0.930 . S
H1395 C1408 0.930 . S
H1396 C1409 0.930 . S
H1397 C1413 0.959 . S
H1398 C1413 0.959 . S
H1399 C1413 0.961 . S
H1400 C1414 0.960 . S
H1401 C1414 0.961 . S
H1402 C1414 0.959 . S
H1403 C1417 0.929 . S
H1404 C1418 0.931 . S
H1405 C1420 0.930 . S
C1406 H1394 0.930 . S
C1406 C1407 1.399 . S
C1406 C1411 1.399 . S
C1407 C1406 1.399 . S
C1407 C1408 1.376 . S
C1408 H1395 0.930 . S
C1408 C1407 1.376 . S
C1408 C1409 1.388 . S
C1409 H1396 0.930 . S
C1409 C1408 1.388 . S
C1409 C1410 1.390 . S
C1410 C1409 1.390 . S
C1410 C1411 1.394 . S
C1410 C1416 1.465 . S
C1411 C1406 1.399 . S
C1411 C1410 1.394 . S
C1411 C1412 1.516 . S
C1412 C1411 1.516 . S
C1412 C1413 1.502 . S
C1412 C1414 1.561 . S
C1412 C1415 1.526 . S
C1413 H1397 0.959 . S
C1413 H1398 0.959 . S
C1413 H1399 0.961 . S
C1413 C1412 1.502 . S
C1414 H1400 0.960 . S
C1414 H1401 0.961 . S
C1414 H1402 0.959 . S
C1414 C1412 1.561 . S
C1415 C1412 1.526 . S
C1415 C1416 1.396 . S
C1415 C1420 1.390 . S
C1416 C1410 1.465 . S
C1416 C1415 1.396 . S
C1416 C1417 1.399 . S
C1417 H1403 0.929 . S
C1417 C1416 1.399 . S
C1417 C1418 1.385 . S
C1418 H1404 0.931 . S
C1418 C1417 1.385 . S
C1418 C1419 1.389 . S
C1419 C1418 1.389 . S
C1419 C1420 1.387 . S
C1420 H1405 0.930 . S
C1420 C1415 1.390 . S
C1420 C1419 1.387 . S
H1421 C1433 0.930 . S
H1422 C1435 0.930 . S
H1423 C1436 0.930 . S
H1424 C1440 0.959 . S
H1425 C1440 0.959 . S
H1426 C1440 0.961 . S
H1427 C1441 0.960 . S
H1428 C1441 0.961 . S
H1429 C1441 0.959 . S
H1430 C1444 0.929 . S
H1431 C1445 0.931 . S
H1432 C1447 0.930 . S
C1433 H1421 0.930 . S
C1433 C1434 1.399 . S
C1433 C1438 1.399 . S
C1434 C1433 1.399 . S
C1434 C1435 1.376 . S
C1435 H1422 0.930 . S
C1435 C1434 1.376 . S
C1435 C1436 1.388 . S
C1436 H1423 0.930 . S
C1436 C1435 1.388 . S
C1436 C1437 1.390 . S
C1437 C1436 1.390 . S
C1437 C1438 1.394 . S
C1437 C1443 1.465 1_455 S
C1438 C1433 1.399 . S
C1438 C1437 1.394 . S
C1438 C1439 1.516 1_455 S
C1439 C1438 1.516 1_655 S
C1439 C1440 1.502 1_655 S
C1439 C1441 1.561 . S
C1439 C1442 1.526 . S
C1440 H1424 0.959 . S
C1440 H1425 0.959 . S
C1440 H1426 0.961 . S
C1440 C1439 1.502 1_455 S
C1441 H1427 0.960 . S
C1441 H1428 0.961 . S
C1441 H1429 0.959 . S
C1441 C1439 1.561 . S
C1442 C1439 1.526 . S
C1442 C1443 1.396 . S
C1442 C1447 1.390 . S
C1443 C1437 1.465 1_655 S
C1443 C1442 1.396 . S
C1443 C1444 1.399 . S
C1444 H1430 0.929 . S
C1444 C1443 1.399 . S
C1444 C1445 1.385 . S
C1445 H1431 0.931 . S
C1445 C1444 1.385 . S
C1445 C1446 1.389 . S
C1446 C1445 1.389 . S
C1446 C1447 1.387 . S
C1447 H1432 0.930 . S
C1447 C1442 1.390 . S
C1447 C1446 1.387 . S
H1448 C1460 0.930 . S
H1449 C1462 0.930 . S
H1450 C1463 0.930 . S
H1451 C1467 0.959 . S
H1452 C1467 0.959 . S
H1453 C1467 0.961 . S
H1454 C1468 0.960 . S
H1455 C1468 0.961 . S
H1456 C1468 0.959 . S
H1457 C1471 0.929 . S
H1458 C1472 0.931 . S
H1459 C1474 0.930 . S
C1460 H1448 0.930 . S
C1460 C1461 1.399 . S
C1460 C1465 1.399 . S
C1461 C1460 1.399 . S
C1461 C1462 1.376 . S
C1462 H1449 0.930 . S
C1462 C1461 1.376 . S
C1462 C1463 1.388 . S
C1463 H1450 0.930 . S
C1463 C1462 1.388 . S
C1463 C1464 1.390 . S
C1464 C1463 1.390 . S
C1464 C1465 1.394 . S
C1464 C1470 1.465 1_655 S
C1465 C1460 1.399 . S
C1465 C1464 1.394 . S
C1465 C1466 1.516 1_655 S
C1466 C1465 1.516 1_455 S
C1466 C1467 1.502 . S
C1466 C1468 1.561 1_455 S
C1466 C1469 1.526 . S
C1467 H1451 0.959 . S
C1467 H1452 0.959 . S
C1467 H1453 0.961 . S
C1467 C1466 1.502 . S
C1468 H1454 0.960 . S
C1468 H1455 0.961 . S
C1468 H1456 0.959 . S
C1468 C1466 1.561 1_655 S
C1469 C1466 1.526 . S
C1469 C1470 1.396 . S
C1469 C1474 1.390 . S
C1470 C1464 1.465 1_455 S
C1470 C1469 1.396 . S
C1470 C1471 1.399 . S
C1471 H1457 0.929 . S
C1471 C1470 1.399 . S
C1471 C1472 1.385 . S
C1472 H1458 0.931 . S
C1472 C1471 1.385 . S
C1472 C1473 1.389 . S
C1473 C1472 1.389 . S
C1473 C1474 1.387 . S
C1474 H1459 0.930 . S
C1474 C1469 1.390 . S
C1474 C1473 1.387 . S
H1475 C1487 0.936 . S
H1476 C1489 0.930 . S
H1477 C1490 0.930 . S
H1478 C1494 0.959 . S
H1479 C1494 0.959 . S
H1480 C1494 0.961 . S
H1481 C1495 0.960 . S
H1482 C1495 0.961 . S
H1483 C1495 0.959 . S
H1484 C1498 0.930 1_455 S
H1485 C1499 0.929 . S
H1486 C1501 0.930 . S
C1487 H1475 0.936 . S
C1487 C1488 1.390 1_545 S
C1487 C1492 1.401 . S
C1488 C1487 1.390 1_565 S
C1488 C1489 1.376 . S
C1489 H1476 0.930 . S
C1489 C1488 1.376 . S
C1489 C1490 1.388 . S
C1490 H1477 0.930 . S
C1490 C1489 1.388 . S
C1490 C1491 1.390 . S
C1491 C1490 1.390 . S
C1491 C1492 1.394 1_565 S
C1491 C1497 1.465 . S
C1492 C1487 1.401 . S
C1492 C1491 1.394 1_545 S
C1492 C1493 1.516 1_455 S
C1493 C1492 1.516 1_655 S
C1493 C1494 1.502 . S
C1493 C1495 1.561 1_655 S
C1493 C1496 1.526 . S
C1494 H1478 0.959 . S
C1494 H1479 0.959 . S
C1494 H1480 0.961 . S
C1494 C1493 1.502 . S
C1495 H1481 0.960 . S
C1495 H1482 0.961 . S
C1495 H1483 0.959 . S
C1495 C1493 1.561 1_455 S
C1496 C1493 1.526 . S
C1496 C1497 1.396 1_645 S
C1496 C1501 1.390 . S
C1497 C1491 1.465 . S
C1497 C1496 1.396 1_465 S
C1497 C1498 1.399 1_455 S
C1498 H1484 0.930 1_655 S
C1498 C1497 1.399 1_655 S
C1498 C1499 1.382 . S
C1499 H1485 0.929 . S
C1499 C1498 1.382 . S
C1499 C1500 1.392 1_565 S
C1500 C1499 1.392 1_545 S
C1500 C1501 1.387 . S
C1501 H1486 0.930 . S
C1501 C1496 1.390 . S
C1501 C1500 1.387 . S
H1502 C1514 0.930 . S
H1503 C1516 0.924 1_565 S
H1504 C1517 0.930 . S
H1505 C1521 0.959 . S
H1506 C1521 0.959 . S
H1507 C1521 0.961 . S
H1508 C1522 0.960 . S
H1509 C1522 0.961 . S
H1510 C1522 0.959 . S
H1511 C1525 0.929 . S
H1512 C1526 0.931 . S
H1513 C1528 0.934 . S
C1514 H1502 0.930 . S
C1514 C1515 1.399 . S
C1514 C1519 1.399 . S
C1515 C1514 1.399 . S
C1515 C1516 1.391 . S
C1516 H1503 0.924 1_545 S
C1516 C1515 1.391 . S
C1516 C1517 1.380 1_545 S
C1517 H1504 0.930 . S
C1517 C1516 1.380 1_565 S
C1517 C1518 1.390 . S
C1518 C1517 1.390 . S
C1518 C1519 1.394 1_565 S
C1518 C1524 1.465 . S
C1519 C1514 1.399 . S
C1519 C1518 1.394 1_545 S
C1519 C1520 1.516 . S
C1520 C1519 1.516 . S
C1520 C1521 1.502 . S
C1520 C1522 1.561 . S
C1520 C1523 1.526 . S
C1521 H1505 0.959 . S
C1521 H1506 0.959 . S
C1521 H1507 0.961 . S
C1521 C1520 1.502 . S
C1522 H1508 0.960 . S
C1522 H1509 0.961 . S
C1522 H1510 0.959 . S
C1522 C1520 1.561 . S
C1523 C1520 1.526 . S
C1523 C1524 1.396 1_545 S
C1523 C1528 1.391 . S
C1524 C1518 1.465 . S
C1524 C1523 1.396 1_565 S
C1524 C1525 1.399 . S
C1525 H1511 0.929 . S
C1525 C1524 1.399 . S
C1525 C1526 1.385 . S
C1526 H1512 0.931 . S
C1526 C1525 1.385 . S
C1526 C1527 1.389 . S
C1527 C1526 1.389 . S
C1527 C1528 1.381 1_565 S
C1528 H1513 0.934 . S
C1528 C1523 1.391 . S
C1528 C1527 1.381 1_545 S
H1529 C1541 0.930 . S
H1530 C1543 0.930 . S
H1531 C1544 0.930 . S
H1532 C1548 0.959 . S
H1533 C1548 0.959 . S
H1534 C1548 0.961 . S
H1535 C1549 0.960 . S
H1536 C1549 0.961 . S
H1537 C1549 0.959 . S
H1538 C1552 0.929 . S
H1539 C1553 0.931 . S
H1540 C1555 0.930 . S
C1541 H1529 0.930 . S
C1541 C1542 1.399 . S
C1541 C1546 1.399 . S
C1542 C1541 1.399 . S
C1542 C1543 1.376 . S
C1543 H1530 0.930 . S
C1543 C1542 1.376 . S
C1543 C1544 1.388 . S
C1544 H1531 0.930 . S
C1544 C1543 1.388 . S
C1544 C1545 1.390 . S
C1545 C1544 1.390 . S
C1545 C1546 1.394 . S
C1545 C1551 1.465 . S
C1546 C1541 1.399 . S
C1546 C1545 1.394 . S
C1546 C1547 1.516 . S
C1547 C1546 1.516 . S
C1547 C1548 1.502 . S
C1547 C1549 1.561 . S
C1547 C1550 1.526 . S
C1548 H1532 0.959 . S
C1548 H1533 0.959 . S
C1548 H1534 0.961 . S
C1548 C1547 1.502 . S
C1549 H1535 0.960 . S
C1549 H1536 0.961 . S
C1549 H1537 0.959 . S
C1549 C1547 1.561 . S
C1550 C1547 1.526 . S
C1550 C1551 1.396 . S
C1550 C1555 1.390 . S
C1551 C1545 1.465 . S
C1551 C1550 1.396 . S
C1551 C1552 1.399 . S
C1552 H1538 0.929 . S
C1552 C1551 1.399 . S
C1552 C1553 1.385 . S
C1553 H1539 0.931 . S
C1553 C1552 1.385 . S
C1553 C1554 1.389 . S
C1554 C1553 1.389 . S
C1554 C1555 1.387 . S
C1555 H1540 0.930 . S
C1555 C1550 1.390 . S
C1555 C1554 1.387 . S
H1556 C1568 0.930 . S
H1557 C1570 0.930 . S
H1558 C1571 0.930 . S
H1559 C1575 0.959 . S
H1560 C1575 0.959 . S
H1561 C1575 0.961 . S
H1562 C1576 0.960 . S
H1563 C1576 0.961 . S
H1564 C1576 0.959 . S
H1565 C1579 0.929 . S
H1566 C1580 0.931 . S
H1567 C1582 0.930 . S
C1568 H1556 0.930 . S
C1568 C1569 1.399 . S
C1568 C1573 1.399 . S
C1569 C1568 1.399 . S
C1569 C1570 1.376 . S
C1570 H1557 0.930 . S
C1570 C1569 1.376 . S
C1570 C1571 1.388 . S
C1571 H1558 0.930 . S
C1571 C1570 1.388 . S
C1571 C1572 1.390 . S
C1572 C1571 1.390 . S
C1572 C1573 1.394 . S
C1572 C1578 1.465 1_455 S
C1573 C1568 1.399 . S
C1573 C1572 1.394 . S
C1573 C1574 1.516 1_455 S
C1574 C1573 1.516 1_655 S
C1574 C1575 1.502 . S
C1574 C1576 1.561 1_655 S
C1574 C1577 1.526 . S
C1575 H1559 0.959 . S
C1575 H1560 0.959 . S
C1575 H1561 0.961 . S
C1575 C1574 1.502 . S
C1576 H1562 0.960 . S
C1576 H1563 0.961 . S
C1576 H1564 0.959 . S
C1576 C1574 1.561 1_455 S
C1577 C1574 1.526 . S
C1577 C1578 1.396 . S
C1577 C1582 1.390 . S
C1578 C1572 1.465 1_655 S
C1578 C1577 1.396 . S
C1578 C1579 1.399 . S
C1579 H1565 0.929 . S
C1579 C1578 1.399 . S
C1579 C1580 1.385 . S
C1580 H1566 0.931 . S
C1580 C1579 1.385 . S
C1580 C1581 1.389 . S
C1581 C1580 1.389 . S
C1581 C1582 1.387 . S
C1582 H1567 0.930 . S
C1582 C1577 1.390 . S
C1582 C1581 1.387 . S
H1583 C1595 0.930 . S
H1584 C1597 0.930 . S
H1585 C1598 0.930 . S
H1586 C1602 0.959 . S
H1587 C1602 0.959 . S
H1588 C1602 0.961 . S
H1589 C1603 0.960 . S
H1590 C1603 0.961 1_455 S
H1591 C1603 0.959 . S
H1592 C1606 0.929 . S
H1593 C1607 0.931 . S
H1594 C1609 0.930 1_545 S
C1595 H1583 0.930 . S
C1595 C1596 1.399 . S
C1595 C1600 1.399 . S
C1596 C1595 1.399 . S
C1596 C1597 1.376 1_545 S
C1597 H1584 0.930 . S
C1597 C1596 1.376 1_565 S
C1597 C1598 1.388 . S
C1598 H1585 0.930 . S
C1598 C1597 1.388 . S
C1598 C1599 1.390 . S
C1599 C1598 1.390 . S
C1599 C1600 1.394 1_565 S
C1599 C1605 1.465 . S
C1600 C1595 1.399 . S
C1600 C1599 1.394 1_545 S
C1600 C1601 1.516 1_655 S
C1601 C1600 1.516 1_455 S
C1601 C1602 1.502 . S
C1601 C1603 1.561 1_455 S
C1601 C1604 1.537 . S
C1602 H1586 0.959 . S
C1602 H1587 0.959 . S
C1602 H1588 0.961 . S
C1602 C1601 1.502 . S
C1603 H1589 0.960 . S
C1603 H1590 0.961 1_655 S
C1603 H1591 0.959 . S
C1603 C1601 1.561 1_655 S
C1604 C1601 1.537 . S
C1604 C1605 1.387 1_445 S
C1604 C1609 1.387 1_545 S
C1605 C1599 1.465 . S
C1605 C1604 1.387 1_665 S
C1605 C1606 1.399 . S
C1606 H1592 0.929 . S
C1606 C1605 1.399 . S
C1606 C1607 1.385 1_655 S
C1607 H1593 0.931 . S
C1607 C1606 1.385 1_455 S
C1607 C1608 1.389 . S
C1608 C1607 1.389 . S
C1608 C1609 1.387 . S
C1609 H1594 0.930 1_565 S
C1609 C1604 1.387 1_565 S
C1609 C1608 1.387 . S
H1610 C1622 0.930 . S
H1611 C1624 0.930 . S
H1612 C1625 0.942 . S
H1613 C1629 0.959 1_545 S
H1614 C1629 0.959 . S
H1615 C1629 0.961 . S
H1616 C1630 0.960 . S
H1617 C1630 0.961 . S
H1618 C1630 0.959 . S
H1619 C1633 0.929 . S
H1620 C1634 0.931 . S
H1621 C1636 0.930 1_565 S
C1622 H1610 0.930 . S
C1622 C1623 1.399 . S
C1622 C1627 1.399 . S
C1623 C1622 1.399 . S
C1623 C1624 1.376 . S
C1624 H1611 0.930 . S
C1624 C1623 1.376 . S
C1624 C1625 1.379 1_565 S
C1625 H1612 0.942 . S
C1625 C1624 1.379 1_545 S
C1625 C1626 1.387 1_545 S
C1626 C1625 1.387 1_565 S
C1626 C1627 1.394 . S
C1626 C1632 1.465 1_565 S
C1627 C1622 1.399 . S
C1627 C1626 1.394 . S
C1627 C1628 1.516 . S
C1628 C1627 1.516 . S
C1628 C1629 1.502 . S
C1628 C1630 1.561 . S
C1628 C1631 1.526 . S
C1629 H1613 0.959 1_565 S
C1629 H1614 0.959 . S
C1629 H1615 0.961 . S
C1629 C1628 1.502 . S
C1630 H1616 0.960 . S
C1630 H1617 0.961 . S
C1630 H1618 0.959 . S
C1630 C1628 1.561 . S
C1631 C1628 1.526 . S
C1631 C1632 1.396 1_565 S
C1631 C1636 1.390 1_565 S
C1632 C1626 1.465 1_545 S
C1632 C1631 1.396 1_545 S
C1632 C1633 1.399 . S
C1633 H1619 0.929 . S
C1633 C1632 1.399 . S
C1633 C1634 1.385 . S
C1634 H1620 0.931 . S
C1634 C1633 1.385 . S
C1634 C1635 1.389 . S
C1635 C1634 1.389 . S
C1635 C1636 1.387 . S
C1636 H1621 0.930 1_545 S
C1636 C1631 1.390 1_545 S
C1636 C1635 1.387 . S
H1637 C1649 0.930 . S
H1638 C1651 0.930 . S
H1639 C1652 0.930 . S
H1640 C1656 0.959 . S
H1641 C1656 0.959 . S
H1642 C1656 0.961 . S
H1643 C1657 0.960 . S
H1644 C1657 0.961 . S
H1645 C1657 0.959 . S
H1646 C1660 0.929 . S
H1647 C1661 0.931 . S
H1648 C1663 0.930 . S
C1649 H1637 0.930 . S
C1649 C1650 1.399 . S
C1649 C1654 1.399 . S
C1650 C1649 1.399 . S
C1650 C1651 1.376 . S
C1651 H1638 0.930 . S
C1651 C1650 1.376 . S
C1651 C1652 1.388 . S
C1652 H1639 0.930 . S
C1652 C1651 1.388 . S
C1652 C1653 1.390 . S
C1653 C1652 1.390 . S
C1653 C1654 1.394 . S
C1653 C1659 1.465 . S
C1654 C1649 1.399 . S
C1654 C1653 1.394 . S
C1654 C1655 1.516 . S
C1655 C1654 1.516 . S
C1655 C1656 1.502 . S
C1655 C1657 1.561 . S
C1655 C1658 1.526 . S
C1656 H1640 0.959 . S
C1656 H1641 0.959 . S
C1656 H1642 0.961 . S
C1656 C1655 1.502 . S
C1657 H1643 0.960 . S
C1657 H1644 0.961 . S
C1657 H1645 0.959 . S
C1657 C1655 1.561 . S
C1658 C1655 1.526 . S
C1658 C1659 1.396 . S
C1658 C1663 1.390 . S
C1659 C1653 1.465 . S
C1659 C1658 1.396 . S
C1659 C1660 1.399 . S
C1660 H1646 0.929 . S
C1660 C1659 1.399 . S
C1660 C1661 1.385 . S
C1661 H1647 0.931 . S
C1661 C1660 1.385 . S
C1661 C1662 1.389 . S
C1662 C1661 1.389 . S
C1662 C1663 1.387 . S
C1663 H1648 0.930 . S
C1663 C1658 1.390 . S
C1663 C1662 1.387 . S
C381 C89 0.775 . S
C393 C18 0.720 . S
C408 C20 0.673 . S
C420 C41 0.713 . S
C435 C64 0.696 . S
C447 C43 0.760 . S
C462 C66 0.776 . S
C474 C87 0.716 . S
C489 C110 0.742 . S
C501 C135 0.748 . S
C516 C133 0.699 . S
C528 C158 0.766 . S
C543 C156 0.698 . S
C555 C181 0.698 . S
C570 C112 0.774 . S
C582 C179 0.722 . S
C597 C202 0.733 . S
C609 C273 0.775 . S
C624 C204 0.709 . S
C636 C225 0.692 . S
C651 C227 0.722 . S
C663 C248 0.747 . S
C678 C250 0.759 . S
C690 C271 0.709 . S
C705 C294 0.708 . S
C717 C319 0.667 . S
C732 C342 0.761 . S
C744 C317 0.710 . S
C759 C365 0.723 . S
C771 C340 0.694 . S
C786 C363 0.742 . S
C798 C296 0.770 . S
C813 C17 0.670 . S
C825 C109 0.671 . S
C840 C132 0.676 . S
C852 C40 0.677 . S
C867 C63 0.673 . S
C879 C155 0.672 . S
C894 C86 0.670 . S
C906 C178 0.669 . S
C921 C293 0.670 . S
C933 C201 0.672 . S
C948 C316 0.678 . S
C960 C224 0.679 . S
C975 C247 0.677 . S
C987 C339 0.675 . S
C1002 C362 0.680 . S
C1014 C270 0.680 . S
C1029 C21 1.827 . S
C1041 C67 1.794 . S
C1056 C44 1.741 . S
C1068 C90 1.771 . S
C1083 C159 1.739 . S
C1095 C113 1.777 . S
C1110 C182 1.825 . S
C1122 C136 1.772 . S
C1137 C251 1.764 . S
C1149 C205 1.827 . S
C1164 C274 1.786 . S
C1176 C228 1.746 . S
C1191 C297 1.783 . S
C1203 C343 1.821 . S
C1218 C320 1.792 . S
C1230 C366 1.744 . S
C1245 C200 1.470 . S
C1257 C16 1.511 . S
C1272 C223 1.515 . S
C1284 C39 1.468 . S
C1299 C246 1.486 . S
C1311 C62 1.513 . S
C1326 C85 1.470 . S
C1338 C269 1.524 . S
C1353 C292 1.528 . S
C1365 C108 1.462 . S
C1380 C315 1.502 . S
C1392 C131 1.498 . S
C1407 C338 1.520 . S
C1419 C154 1.478 . S
C1434 C361 1.527 . S
C1446 C177 1.461 . S
C1461 C180 1.647 . S
C1473 C19 1.670 . S
C1488 C111 1.705 . S
C1500 C42 1.655 . S
C1515 C134 1.653 . S
C1527 C65 1.658 . S
C1542 C157 1.712 . S
C1554 C88 1.718 . S
C1569 C364 1.710 . S
C1581 C203 1.682 . S
C1596 C295 1.721 . S
C1608 C226 1.722 . S
C1623 C318 1.686 . S
C1635 C249 1.713 . S
C1650 C272 1.724 . S
C1662 C341 1.707 . S
