# Generated by pormake.
# Topology fnj, (5)-cn, num edge types: 1
# Building blocks:
#     Node 0, Type 0, BuildingBlock: XOMCOT_clean_sbu_0, # of connection points: 5
#     Node 1, Type 0, BuildingBlock: XOMCOT_clean_sbu_0, # of connection points: 5
#     Node 2, Type 0, BuildingBlock: XOMCOT_clean_sbu_0, # of connection points: 5
#     Node 3, Type 0, BuildingBlock: XOMCOT_clean_sbu_0, # of connection points: 5
#     Node 4, Type 0, BuildingBlock: XOMCOT_clean_sbu_0, # of connection points: 5
#     Node 5, Type 0, BuildingBlock: XOMCOT_clean_sbu_0, # of connection points: 5
#     Node 6, Type 0, BuildingBlock: XOMCOT_clean_sbu_0, # of connection points: 5
#     Node 7, Type 0, BuildingBlock: XOMCOT_clean_sbu_0, # of connection points: 5
#     Node 8, Type 0, BuildingBlock: XOMCOT_clean_sbu_0, # of connection points: 5
#     Node 9, Type 0, BuildingBlock: XOMCOT_clean_sbu_0, # of connection points: 5
#     Node 10, Type 0, BuildingBlock: XOMCOT_clean_sbu_0, # of connection points: 5
#     Node 11, Type 0, BuildingBlock: XOMCOT_clean_sbu_0, # of connection points: 5
#     Node 12, Type 0, BuildingBlock: XOMCOT_clean_sbu_0, # of connection points: 5
#     Node 13, Type 0, BuildingBlock: XOMCOT_clean_sbu_0, # of connection points: 5
#     Node 14, Type 0, BuildingBlock: XOMCOT_clean_sbu_0, # of connection points: 5
#     Node 15, Type 0, BuildingBlock: XOMCOT_clean_sbu_0, # of connection points: 5
#     Edge 16, Type (0, 0), BuildingBlock: XIVTED_clean_linker_0, # of connection points: 2
#     Edge 17, Type (0, 0), BuildingBlock: XIVTED_clean_linker_0, # of connection points: 2
#     Edge 18, Type (0, 0), BuildingBlock: XIVTED_clean_linker_0, # of connection points: 2
#     Edge 19, Type (0, 0), BuildingBlock: XIVTED_clean_linker_0, # of connection points: 2
#     Edge 20, Type (0, 0), BuildingBlock: XIVTED_clean_linker_0, # of connection points: 2
#     Edge 21, Type (0, 0), BuildingBlock: XIVTED_clean_linker_0, # of connection points: 2
#     Edge 22, Type (0, 0), BuildingBlock: XIVTED_clean_linker_0, # of connection points: 2
#     Edge 23, Type (0, 0), BuildingBlock: XIVTED_clean_linker_0, # of connection points: 2
#     Edge 24, Type (0, 0), BuildingBlock: XIVTED_clean_linker_0, # of connection points: 2
#     Edge 25, Type (0, 0), BuildingBlock: XIVTED_clean_linker_0, # of connection points: 2
#     Edge 26, Type (0, 0), BuildingBlock: XIVTED_clean_linker_0, # of connection points: 2
#     Edge 27, Type (0, 0), BuildingBlock: XIVTED_clean_linker_0, # of connection points: 2
#     Edge 28, Type (0, 0), BuildingBlock: XIVTED_clean_linker_0, # of connection points: 2
#     Edge 29, Type (0, 0), BuildingBlock: XIVTED_clean_linker_0, # of connection points: 2
#     Edge 30, Type (0, 0), BuildingBlock: XIVTED_clean_linker_0, # of connection points: 2
#     Edge 31, Type (0, 0), BuildingBlock: XIVTED_clean_linker_0, # of connection points: 2
#     Edge 32, Type (0, 0), BuildingBlock: XIVTED_clean_linker_0, # of connection points: 2
#     Edge 33, Type (0, 0), BuildingBlock: XIVTED_clean_linker_0, # of connection points: 2
#     Edge 34, Type (0, 0), BuildingBlock: XIVTED_clean_linker_0, # of connection points: 2
#     Edge 35, Type (0, 0), BuildingBlock: XIVTED_clean_linker_0, # of connection points: 2
#     Edge 36, Type (0, 0), BuildingBlock: XIVTED_clean_linker_0, # of connection points: 2
#     Edge 37, Type (0, 0), BuildingBlock: XIVTED_clean_linker_0, # of connection points: 2
#     Edge 38, Type (0, 0), BuildingBlock: XIVTED_clean_linker_0, # of connection points: 2
#     Edge 39, Type (0, 0), BuildingBlock: XIVTED_clean_linker_0, # of connection points: 2
#     Edge 40, Type (0, 0), BuildingBlock: XIVTED_clean_linker_0, # of connection points: 2
#     Edge 41, Type (0, 0), BuildingBlock: XIVTED_clean_linker_0, # of connection points: 2
#     Edge 42, Type (0, 0), BuildingBlock: XIVTED_clean_linker_0, # of connection points: 2
#     Edge 43, Type (0, 0), BuildingBlock: XIVTED_clean_linker_0, # of connection points: 2
#     Edge 44, Type (0, 0), BuildingBlock: XIVTED_clean_linker_0, # of connection points: 2
#     Edge 45, Type (0, 0), BuildingBlock: XIVTED_clean_linker_0, # of connection points: 2
#     Edge 46, Type (0, 0), BuildingBlock: XIVTED_clean_linker_0, # of connection points: 2
#     Edge 47, Type (0, 0), BuildingBlock: XIVTED_clean_linker_0, # of connection points: 2
#     Edge 48, Type (0, 0), BuildingBlock: XIVTED_clean_linker_0, # of connection points: 2
#     Edge 49, Type (0, 0), BuildingBlock: XIVTED_clean_linker_0, # of connection points: 2
#     Edge 50, Type (0, 0), BuildingBlock: XIVTED_clean_linker_0, # of connection points: 2
#     Edge 51, Type (0, 0), BuildingBlock: XIVTED_clean_linker_0, # of connection points: 2
#     Edge 52, Type (0, 0), BuildingBlock: XIVTED_clean_linker_0, # of connection points: 2
#     Edge 53, Type (0, 0), BuildingBlock: XIVTED_clean_linker_0, # of connection points: 2
#     Edge 54, Type (0, 0), BuildingBlock: XIVTED_clean_linker_0, # of connection points: 2
#     Edge 55, Type (0, 0), BuildingBlock: XIVTED_clean_linker_0, # of connection points: 2
# Relax obj value: 0.071
# Max RMSD: 0.155
# Mean RMSD: 0.154
data_MOF--net-fnj--node1-XOMCOT_clean_sbu_0--edge1-XIVTED_clean_linker_0
_symmetry_space_group_name_H-M    P1
_symmetry_Int_Tables_number       1
_symmetry_cell_setting            triclinic
loop_
_symmetry_equiv_pos_as_xyz
'x, y, z'
_cell_length_a     77.538508
_cell_length_b     77.562837
_cell_length_c     17.773052
_cell_angle_alpha  91.050326
_cell_angle_beta   91.037306
_cell_angle_gamma 90.010756
loop_
_atom_site_label
_atom_site_type_symbol
_atom_site_fract_x
_atom_site_fract_y
_atom_site_fract_z
_atom_type_partial_charge
Co0 Co 0.37508 0.00334 0.04619 0.0
C1 C 0.37593 0.00596 0.87958 0.0
C2 C 0.3609 0.0261 0.93053 0.0
C3 C 0.35963 0.02753 0.85364 0.0
N4 N 0.3712 0.01267 0.9469 0.0
N5 N 0.36901 0.01483 0.82132 0.0
H6 H 0.38387 0.99457 0.87358 0.0
H7 H 0.35408 0.03386 0.97141 0.0
C8 C 0.37711 0.03525 0.14957 0.0
O9 O 0.38912 0.02861 0.19329 0.0
N10 N 0.37863 0.99368 0.146 0.0
C11 C 0.3896 0.98091 0.16477 0.0
C12 C 0.38861 0.97805 0.24062 0.0
C13 C 0.37051 0.99782 0.21074 0.0
N14 N 0.37674 0.98881 0.27001 0.0
C15 C 0.40893 0.99152 0.01249 0.0
C16 C 0.4265 0.02205 0.03793 0.0
C17 C 0.43592 0.00693 0.02335 0.0
C18 C 0.4268 0.99169 1.00805 0.0
C19 C 0.40845 0.0213 0.04174 0.0
N20 N 0.39995 0.00591 0.0337 0.0
H21 H 0.40244 0.97948 1.0005 0.0
H22 H 0.40152 0.03315 0.05079 0.0
H23 H 0.39788 0.974 0.1267 0.0
H24 H 0.36052 0.00751 0.21462 0.0
O25 O 0.37231 0.98032 1.00486 0.0
O26 O 0.35109 0.99663 0.04791 0.0
O27 O 0.37178 0.02727 0.09013 0.0
C28 C 0.35594 0.98221 0.01644 0.0
H29 H 0.35166 0.03673 0.824 0.0
H30 H 0.39655 0.96913 0.27199 0.0
H31 H 0.43299 0.03427 0.04779 0.0
H32 H 0.43343 0.97986 0.99293 0.0
Co33 Co 0.25592 0.12913 0.28353 0.0
C34 C 0.2529 0.12799 0.11435 0.0
C35 C 0.242 0.10589 0.16606 0.0
C36 C 0.24057 0.10371 0.08925 0.0
N37 N 0.24949 0.12124 0.18215 0.0
N38 N 0.24747 0.11761 0.05663 0.0
H39 H 0.25985 0.13978 0.10649 0.0
H40 H 0.23804 0.09675 0.20763 0.0
C41 C 0.2177 0.12376 0.28479 0.0
O42 O 0.21666 0.13278 0.22299 0.0
N43 N 0.26244 0.13639 0.38448 0.0
C44 C 0.27331 0.14935 0.40365 0.0
C45 C 0.27416 0.15083 0.48089 0.0
C46 C 0.25693 0.13004 0.45 0.0
N47 N 0.26385 0.13871 0.51001 0.0
C48 C 0.25999 0.16251 0.22099 0.0
C49 C 0.23509 0.17925 0.30376 0.0
C50 C 0.24609 0.1891 0.25953 0.0
C51 C 0.25848 0.18037 0.21704 0.0
C52 C 0.23697 0.16125 0.30572 0.0
N53 N 0.24922 0.15299 0.26385 0.0
H54 H 0.2708 0.15659 0.19351 0.0
H55 H 0.22931 0.15418 0.34481 0.0
H56 H 0.28006 0.15723 0.36416 0.0
H57 H 0.24783 0.11953 0.45357 0.0
O58 O 0.27974 0.13047 0.2539 0.0
O59 O 0.26743 0.1072 0.29926 0.0
O60 O 0.23223 0.12225 0.31937 0.0
C61 C 0.28115 0.11445 0.2729 0.0
H62 H 0.23497 0.09265 0.05996 0.0
H63 H 0.28192 0.16003 0.51307 0.0
H64 H 0.22546 0.18541 0.33846 0.0
H65 H 0.26777 0.18734 0.18452 0.0
Co66 Co 0.12483 0.99907 0.46646 0.0
C67 C 0.1268 0.99901 0.63399 0.0
C68 C 0.14768 0.01285 0.58562 0.0
C69 C 0.14992 0.01317 0.6626 0.0
N70 N 0.1331 0.00412 0.56775 0.0
N71 N 0.13675 0.00448 0.69292 0.0
H72 H 0.11553 0.99102 0.6393 0.0
H73 H 0.15628 0.01832 0.54528 0.0
C74 C 0.12869 0.03373 0.38579 0.0
O75 O 0.11727 0.02981 0.33277 0.0
N76 N 0.11684 0.99368 0.36492 0.0
C77 C 0.10184 0.98589 0.34544 0.0
C78 C 0.10104 0.98375 0.26871 0.0
C79 C 0.12529 0.99553 0.29975 0.0
N80 N 0.11568 0.99 0.23971 0.0
C81 C 0.09187 0.99179 0.52792 0.0
C82 C 0.07493 0.02133 0.48438 0.0
C83 C 0.06526 0.00778 0.51376 0.0
C84 C 0.07412 0.99311 0.5377 0.0
C85 C 0.09284 0.01957 0.47635 0.0
N86 N 0.10107 0.00462 0.49524 0.0
H87 H 0.09796 0.97986 0.54328 0.0
H88 H 0.09974 0.03014 0.45308 0.0
H89 H 0.09213 0.98178 0.38395 0.0
H90 H 0.13791 0.0014 0.29638 0.0
O91 O 0.12475 0.9746 0.48707 0.0
O92 O 0.14708 0.98897 0.44463 0.0
O93 O 0.13123 0.02372 0.44137 0.0
C94 C 0.14077 0.97444 0.467 0.0
H95 H 0.16038 0.01939 0.69371 0.0
H96 H 0.09046 0.9779 0.23694 0.0
H97 H 0.06867 0.0331 0.46658 0.0
H98 H 0.0673 0.98221 0.56013 0.0
Co99 Co 0.24969 0.88067 0.7523 0.0
C100 C 0.24685 0.87971 0.9187 0.0
C101 C 0.22672 0.89478 0.86784 0.0
C102 C 0.22515 0.89584 0.94475 0.0
N103 N 0.24025 0.88459 0.85141 0.0
N104 N 0.23784 0.88643 0.97696 0.0
H105 H 0.25822 0.87173 0.92473 0.0
H106 H 0.21892 0.90159 0.82707 0.0
C107 C 0.21773 0.88049 0.648 0.0
O108 O 0.22255 0.86707 0.60739 0.0
N109 N 0.25937 0.877 0.65266 0.0
C110 C 0.27216 0.86603 0.63403 0.0
C111 C 0.27475 0.86669 0.55781 0.0
C112 C 0.25491 0.88474 0.58745 0.0
N113 N 0.26376 0.87831 0.52822 0.0
C114 C 0.26038 0.84643 0.78434 0.0
C115 C 0.22918 0.82999 0.75958 0.0
C116 C 0.24389 0.82006 0.7757 0.0
C117 C 0.25952 0.8286 0.7897 0.0
C118 C 0.2306 0.84799 0.75534 0.0
N119 N 0.24629 0.85591 0.76351 0.0
H120 H 0.27267 0.85249 0.79555 0.0
H121 H 0.21903 0.85537 0.7462 0.0
H122 H 0.27922 0.85795 0.67246 0.0
H123 H 0.24526 0.89475 0.58311 0.0
O124 O 0.27274 0.88279 0.79489 0.0
O125 O 0.25701 0.9044 0.75159 0.0
O126 O 0.22615 0.88509 0.70736 0.0
C127 C 0.27121 0.89924 0.78387 0.0
H128 H 0.21583 0.90364 0.97456 0.0
H129 H 0.28363 0.85872 0.5263 0.0
H130 H 0.2167 0.82394 0.75096 0.0
H131 H 0.27123 0.82155 0.80268 0.0
Co132 Co 0.62618 0.00698 1.00699 0.0
C133 C 0.62511 0.00446 0.17309 0.0
C134 C 0.64056 0.98448 0.1234 0.0
C135 C 0.64164 0.98314 0.20037 0.0
N136 N 0.63014 0.99778 0.10628 0.0
N137 N 0.63199 0.99574 0.23178 0.0
H138 H 0.61696 0.01572 0.17845 0.0
H139 H 0.64756 0.97672 0.08308 0.0
C140 C 0.62672 0.97467 0.90407 0.0
O141 O 0.61363 0.97927 0.86097 0.0
N142 N 0.62247 0.0164 0.90726 0.0
C143 C 0.61122 0.02888 0.88787 0.0
C144 C 0.61199 0.03136 0.81163 0.0
C145 C 0.63048 0.01204 0.84269 0.0
N146 N 0.62396 0.02062 0.78297 0.0
C147 C 0.59195 0.01753 0.0395 0.0
C148 C 0.57533 0.98667 1.00882 0.0
C149 C 0.56544 0.00147 0.02377 0.0
C150 C 0.57407 0.01686 0.04184 0.0
C151 C 0.59339 0.98792 1.00717 0.0
N152 N 0.60141 0.00349 0.01794 0.0
H153 H 0.59805 0.02968 0.05309 0.0
H154 H 0.60071 0.97635 0.99726 0.0
H155 H 0.60287 0.03576 0.9258 0.0
H156 H 0.64071 0.00259 0.83918 0.0
O157 O 0.62817 0.03015 0.04848 0.0
O158 O 0.64988 0.01443 1.00612 0.0
O159 O 0.63084 0.98334 0.96339 0.0
C160 C 0.64462 0.02869 0.03751 0.0
H161 H 0.64962 0.97407 0.23075 0.0
H162 H 0.60384 0.03995 0.77945 0.0
H163 H 0.5692 0.97436 0.99684 0.0
H164 H 0.56704 0.02843 0.05721 0.0
Co165 Co 0.74543 0.88001 0.72325 0.0
C166 C 0.74975 0.87982 0.89174 0.0
C167 C 0.75915 0.90287 0.84215 0.0
C168 C 0.76086 0.90457 0.91901 0.0
N169 N 0.75228 0.8873 0.82474 0.0
N170 N 0.75491 0.89007 0.95036 0.0
H171 H 0.7441 0.8673 0.89821 0.0
H172 H 0.76232 0.91253 0.8015 0.0
C173 C 0.78387 0.88432 0.72282 0.0
O174 O 0.78476 0.87573 0.78581 0.0
N175 N 0.73846 0.87325 0.62233 0.0
C176 C 0.72588 0.86194 0.60356 0.0
C177 C 0.72491 0.86036 0.52646 0.0
C178 C 0.74498 0.87845 0.55669 0.0
N179 N 0.73696 0.8707 0.49681 0.0
C180 C 0.7392 0.84666 0.78259 0.0
C181 C 0.76426 0.82909 0.70398 0.0
C182 C 0.75249 0.8196 0.746 0.0
C183 C 0.74 0.82874 0.78633 0.0
C184 C 0.76305 0.84713 0.702 0.0
N185 N 0.75074 0.85579 0.7419 0.0
H186 H 0.72861 0.85309 0.80978 0.0
H187 H 0.77139 0.85394 0.66475 0.0
H188 H 0.71797 0.85529 0.64325 0.0
H189 H 0.75549 0.88754 0.55308 0.0
O190 O 0.72143 0.88018 0.75242 0.0
O191 O 0.73547 0.90262 0.70876 0.0
O192 O 0.76941 0.88568 0.68752 0.0
C193 C 0.72122 0.89633 0.73443 0.0
H194 H 0.76554 0.91592 0.94925 0.0
H195 H 0.71582 0.85234 0.49498 0.0
H196 H 0.77404 0.82262 0.67116 0.0
H197 H 0.73022 0.82208 0.81741 0.0
Co198 Co 0.87568 0.00927 0.54295 0.0
C199 C 0.87358 0.00903 0.37514 0.0
C200 C 0.85317 0.99467 0.4244 0.0
C201 C 0.8508 0.99426 0.34749 0.0
N202 N 0.86753 0.00379 0.44173 0.0
N203 N 0.86365 0.00328 0.31652 0.0
H204 H 0.88463 0.01732 0.36945 0.0
H205 H 0.84476 0.98903 0.46507 0.0
C206 C 0.8726 0.97473 0.62542 0.0
O207 O 0.88426 0.97889 0.67712 0.0
N208 N 0.88358 0.01509 0.64442 0.0
C209 C 0.89832 0.02344 0.66309 0.0
C210 C 0.8993 0.0256 0.73979 0.0
C211 C 0.87542 0.01292 0.71019 0.0
N212 N 0.88502 0.01878 0.76976 0.0
C213 C 0.9086 0.01685 0.48165 0.0
C214 C 0.92584 0.9875 0.52541 0.0
C215 C 0.93538 0.00116 0.4963 0.0
C216 C 0.92637 0.01573 0.47215 0.0
C217 C 0.9079 0.98906 0.5332 0.0
N218 N 0.89953 0.00395 0.51452 0.0
H219 H 0.90238 0.02869 0.4659 0.0
H220 H 0.9011 0.97837 0.55582 0.0
H221 H 0.90774 0.0279 0.62401 0.0
H222 H 0.86304 0.00658 0.71432 0.0
O223 O 0.87544 0.03365 0.5208 0.0
O224 O 0.85328 0.01915 0.56401 0.0
O225 O 0.86963 0.98462 0.56975 0.0
C226 C 0.85942 0.03368 0.54078 0.0
H227 H 0.84042 0.98776 0.3169 0.0
H228 H 0.90975 0.03183 0.77089 0.0
H229 H 0.9322 0.97578 0.54309 0.0
H230 H 0.93309 0.02669 0.44971 0.0
Co231 Co 0.75188 0.13177 0.27221 0.0
C232 C 0.75336 0.13045 0.10548 0.0
C233 C 0.77154 0.11315 0.15635 0.0
C234 C 0.77238 0.11122 0.07931 0.0
N235 N 0.75968 0.12526 0.17271 0.0
N236 N 0.76091 0.12207 0.04723 0.0
H237 H 0.743 0.13968 0.09943 0.0
H238 H 0.77881 0.10589 0.19747 0.0
C239 C 0.78443 0.13068 0.3722 0.0
O240 O 0.78031 0.14415 0.41401 0.0
N241 N 0.74373 0.13816 0.37179 0.0
C242 C 0.73309 0.15136 0.38819 0.0
C243 C 0.73057 0.152 0.46447 0.0
C244 C 0.74695 0.13049 0.43842 0.0
N245 N 0.7395 0.13904 0.49658 0.0
C246 C 0.74313 0.16512 0.21881 0.0
C247 C 0.77375 0.18174 0.25417 0.0
C248 C 0.75979 0.19136 0.22634 0.0
C249 C 0.74453 0.18271 0.20667 0.0
C250 C 0.77192 0.16394 0.26403 0.0
N251 N 0.75642 0.15597 0.25019 0.0
H252 H 0.73097 0.15906 0.2049 0.0
H253 H 0.78302 0.15682 0.28264 0.0
H254 H 0.72741 0.16 0.34783 0.0
H255 H 0.75511 0.11927 0.44435 0.0
O256 O 0.7282 0.13017 0.23646 0.0
O257 O 0.74334 0.10868 0.28431 0.0
O258 O 0.77576 0.12671 0.3126 0.0
C259 C 0.72903 0.11398 0.2535 0.0
H260 H 0.78078 0.10244 0.0494 0.0
H261 H 0.72272 0.1614 0.49372 0.0
H262 H 0.78595 0.18793 0.26815 0.0
H263 H 0.73342 0.18962 0.18494 0.0
Co264 Co 0.87466 0.5039 0.54302 0.0
C265 C 0.87528 0.50627 0.3767 0.0
C266 C 0.85992 0.52626 0.42684 0.0
C267 C 0.85848 0.52738 0.34981 0.0
N268 N 0.87052 0.51309 0.44372 0.0
N269 N 0.86807 0.51476 0.31803 0.0
H270 H 0.88344 0.49502 0.37131 0.0
H271 H 0.853 0.534 0.46749 0.0
C272 C 0.87605 0.53552 0.64761 0.0
O273 O 0.88805 0.52883 0.69121 0.0
N274 N 0.87848 0.49436 0.64269 0.0
C275 C 0.89043 0.48261 0.66276 0.0
C276 C 0.88936 0.47979 0.73864 0.0
C277 C 0.86978 0.49791 0.70651 0.0
N278 N 0.87651 0.48956 0.76664 0.0
C279 C 0.90854 0.49283 0.50536 0.0
C280 C 0.92577 0.52345 0.53368 0.0
C281 C 0.93526 0.50873 0.5136 0.0
C282 C 0.92634 0.49341 0.49772 0.0
C283 C 0.90779 0.52236 0.53965 0.0
N284 N 0.89946 0.5069 0.52969 0.0
H285 H 0.90221 0.4807 0.49355 0.0
H286 H 0.90078 0.53402 0.55148 0.0
H287 H 0.89952 0.47651 0.6257 0.0
H288 H 0.85912 0.50687 0.70918 0.0
O289 O 0.87219 0.48081 0.50196 0.0
O290 O 0.85077 0.49681 0.54522 0.0
O291 O 0.87101 0.52778 0.58707 0.0
C292 C 0.8558 0.48247 0.51348 0.0
H293 H 0.85025 0.53629 0.31983 0.0
H294 H 0.89796 0.4717 0.77106 0.0
H295 H 0.93216 0.53571 0.54399 0.0
H296 H 0.9331 0.48172 0.48172 0.0
Co297 Co 0.75583 0.63053 0.78083 0.0
C298 C 0.75607 0.62795 0.61315 0.0
C299 C 0.74037 0.60847 0.66162 0.0
C300 C 0.74012 0.60606 0.58463 0.0
N301 N 0.75021 0.62231 0.67952 0.0
N302 N 0.74998 0.61834 0.55415 0.0
H303 H 0.76505 0.63845 0.60788 0.0
H304 H 0.73403 0.60044 0.70182 0.0
C305 C 0.72206 0.62532 0.86756 0.0
O306 O 0.7263 0.63632 0.92175 0.0
N307 N 0.76186 0.63854 0.88209 0.0
C308 C 0.76927 0.65379 0.90042 0.0
C309 C 0.77186 0.65474 0.97695 0.0
C310 C 0.76075 0.6301 0.94779 0.0
N311 N 0.76625 0.63997 1.00729 0.0
C312 C 0.76105 0.66364 0.71684 0.0
C313 C 0.732 0.67984 0.77056 0.0
C314 C 0.74466 0.68981 0.73627 0.0
C315 C 0.75906 0.68132 0.70729 0.0
C316 C 0.73437 0.66199 0.77802 0.0
N317 N 0.74911 0.65411 0.75377 0.0
H318 H 0.7729 0.65793 0.69805 0.0
H319 H 0.72452 0.65488 0.80541 0.0
H320 H 0.77271 0.6636 0.86115 0.0
H321 H 0.7553 0.61732 0.95197 0.0
O322 O 0.77992 0.63171 0.7555 0.0
O323 O 0.7672 0.60867 0.80056 0.0
O324 O 0.7316 0.62333 0.80997 0.0
C325 C 0.78114 0.61576 0.7755 0.0
H326 H 0.73313 0.59607 0.55362 0.0
H327 H 0.77748 0.6656 1.00755 0.0
H328 H 0.72049 0.68583 0.7927 0.0
H329 H 0.76931 0.68841 0.68117 0.0
Co330 Co 0.6228 0.50372 0.02129 0.0
C331 C 0.63001 0.50189 0.18767 0.0
C332 C 0.62715 0.52786 0.15011 0.0
C333 C 0.62968 0.52825 0.22684 0.0
N334 N 0.62752 0.51135 0.12495 0.0
N335 N 0.63143 0.51193 0.25065 0.0
H336 H 0.63036 0.48796 0.18783 0.0
H337 H 0.62443 0.53893 0.11589 0.0
C338 C 0.62956 0.53627 0.92733 0.0
O339 O 0.62064 0.53074 0.86829 0.0
N340 N 0.61796 0.49584 0.91856 0.0
C341 C 0.60359 0.48749 0.89454 0.0
C342 C 0.60485 0.48391 0.81877 0.0
C343 C 0.62815 0.49646 0.85764 0.0
N344 N 0.6202 0.48974 0.79522 0.0
C345 C 0.59014 0.50075 0.08825 0.0
C346 C 0.57141 0.52107 0.99052 0.0
C347 C 0.56251 0.51095 0.04189 0.0
C348 C 0.57221 0.50117 0.09281 0.0
C349 C 0.58948 0.52028 0.98789 0.0
N350 N 0.59858 0.50971 0.03467 0.0
H351 H 0.59724 0.49247 0.12591 0.0
H352 H 0.59586 0.52741 0.94546 0.0
H353 H 0.59278 0.48442 0.92944 0.0
H354 H 0.64084 0.50228 0.85851 0.0
O355 O 0.62155 0.47994 0.05174 0.0
O356 O 0.64535 0.49316 0.01645 0.0
O357 O 0.63002 0.52769 0.98828 0.0
C358 C 0.63802 0.47914 0.03944 0.0
H359 H 0.62937 0.53966 0.26277 0.0
H360 H 0.59487 0.47815 0.78317 0.0
H361 H 0.56447 0.52884 0.95005 0.0
H362 H 0.56599 0.49349 0.13478 0.0
Co363 Co 0.7526 0.38104 0.22885 0.0
C364 C 0.74825 0.37976 0.39582 0.0
C365 C 0.73249 0.39908 0.34459 0.0
C366 C 0.73094 0.40055 0.42143 0.0
N367 N 0.74306 0.38579 0.32802 0.0
N368 N 0.74094 0.38844 0.45387 0.0
H369 H 0.75812 0.37017 0.40336 0.0
H370 H 0.72691 0.4077 0.30371 0.0
C371 C 0.71408 0.38283 0.20001 0.0
O372 O 0.71102 0.37372 0.25992 0.0
N373 N 0.7622 0.37675 0.13048 0.0
C374 C 0.77526 0.36596 0.11409 0.0
C375 C 0.777 0.36512 0.03706 0.0
C376 C 0.75627 0.38244 0.06346 0.0
N377 N 0.76501 0.37543 1.00518 0.0
C378 C 0.75992 0.34747 0.28327 0.0
C379 C 0.73731 0.32934 0.18977 0.0
C380 C 0.74845 0.32017 0.23769 0.0
C381 C 0.75978 0.32956 0.28497 0.0
C382 C 0.73787 0.34742 0.18987 0.0
N383 N 0.74887 0.35631 0.23744 0.0
H384 H 0.76972 0.3541 0.31613 0.0
H385 H 0.73004 0.35408 0.14897 0.0
H386 H 0.78269 0.35884 0.15516 0.0
H387 H 0.74541 0.39104 0.05728 0.0
O388 O 0.77556 0.38259 0.27252 0.0
O389 O 0.76053 0.40457 0.22764 0.0
O390 O 0.72953 0.38537 0.17933 0.0
C391 C 0.77446 0.39907 0.26119 0.0
H392 H 0.72341 0.41018 0.45087 0.0
H393 H 0.78631 0.35737 1.00698 0.0
H394 H 0.7285 0.32265 0.1514 0.0
H395 H 0.76916 0.32313 0.32057 0.0
Co396 Co 0.1247 0.50281 0.50343 0.0
C397 C 0.1265 0.50216 0.6703 0.0
C398 C 0.1392 0.4803 0.62073 0.0
C399 C 0.14098 0.47948 0.69773 0.0
N400 N 0.13002 0.49448 0.60347 0.0
N401 N 0.13306 0.49327 0.7292 0.0
H402 H 0.11971 0.51428 0.67534 0.0
H403 H 0.14456 0.47127 0.58049 0.0
C404 C 0.12602 0.47111 0.39914 0.0
O405 O 0.11382 0.47636 0.35275 0.0
N406 N 0.11949 0.51144 0.40367 0.0
C407 C 0.10562 0.52083 0.3832 0.0
C408 C 0.10617 0.52368 0.30723 0.0
C409 C 0.12863 0.50928 0.34012 0.0
N410 N 0.12054 0.51626 0.27973 0.0
C411 C 0.09164 0.51242 0.55737 0.0
C412 C 0.07325 0.48417 0.50398 0.0
C413 C 0.06427 0.49818 0.53549 0.0
C414 C 0.0738 0.51219 0.56429 0.0
C415 C 0.09124 0.48489 0.49851 0.0
N416 N 0.10016 0.4993 0.52158 0.0
H417 H 0.09843 0.52369 0.57818 0.0
H418 H 0.09772 0.47385 0.47528 0.0
H419 H 0.09553 0.52509 0.42016 0.0
H420 H 0.14062 0.50217 0.33784 0.0
O421 O 0.12702 0.52635 0.54006 0.0
O422 O 0.14829 0.51035 0.49546 0.0
O423 O 0.12891 0.47883 0.46221 0.0
C424 C 0.14332 0.52485 0.52569 0.0
H425 H 0.14767 0.46941 0.72775 0.0
H426 H 0.09625 0.53006 0.27438 0.0
H427 H 0.06643 0.47281 0.48324 0.0
H428 H 0.06751 0.52333 0.58909 0.0
Co429 Co 0.2466 0.37831 0.23567 0.0
C430 C 0.24667 0.38058 0.40369 0.0
C431 C 0.26064 0.4012 0.35415 0.0
C432 C 0.26101 0.40364 0.43103 0.0
N433 N 0.25181 0.38665 0.33697 0.0
N434 N 0.25223 0.39065 0.46217 0.0
H435 H 0.23858 0.3694 0.40971 0.0
H436 H 0.26614 0.40967 0.31337 0.0
C437 C 0.28112 0.38204 0.15367 0.0
O438 O 0.2771 0.37054 0.10112 0.0
N439 N 0.24105 0.37025 0.13417 0.0
C440 C 0.23316 0.35526 0.11544 0.0
C441 C 0.23101 0.35425 0.03874 0.0
C442 C 0.24292 0.3785 0.06846 0.0
N443 N 0.23735 0.36875 1.00885 0.0
C444 C 0.23935 0.34554 0.29901 0.0
C445 C 0.26838 0.3282 0.25196 0.0
C446 C 0.25493 0.31875 0.28333 0.0
C447 C 0.24055 0.3278 0.30916 0.0
C448 C 0.2668 0.34612 0.24403 0.0
N449 N 0.25208 0.35455 0.26467 0.0
H450 H 0.22756 0.35177 0.31541 0.0
H451 H 0.27728 0.35287 0.21925 0.0
H452 H 0.22903 0.34568 0.15451 0.0
H453 H 0.24887 0.39107 0.06439 0.0
O454 O 0.22216 0.37833 0.25676 0.0
O455 O 0.23659 0.40057 0.21378 0.0
O456 O 0.27125 0.38459 0.20979 0.0
C457 C 0.22206 0.39432 0.23646 0.0
H458 H 0.26731 0.41415 0.46151 0.0
H459 H 0.2251 0.34361 1.00761 0.0
H460 H 0.2799 0.32176 0.23245 0.0
H461 H 0.22975 0.3211 0.33316 0.0
Co462 Co 0.37213 0.51132 0.03259 0.0
C463 C 0.37145 0.50839 0.86396 0.0
C464 C 0.35016 0.49567 0.91417 0.0
C465 C 0.34814 0.49442 0.83717 0.0
N466 N 0.36496 0.50415 0.93123 0.0
N467 N 0.36152 0.50251 0.80575 0.0
H468 H 0.38287 0.51597 0.85669 0.0
H469 H 0.34113 0.49116 0.95512 0.0
C470 C 0.36802 0.47295 0.0383 0.0
O471 O 0.37733 0.47177 0.97735 0.0
N472 N 0.37864 0.51854 0.13341 0.0
C473 C 0.39113 0.52988 0.15315 0.0
C474 C 0.39193 0.53126 0.23042 0.0
C475 C 0.37193 0.51323 0.19844 0.0
N476 N 0.37986 0.52078 0.25892 0.0
C477 C 0.40567 0.516 0.97264 0.0
C478 C 0.42286 0.49253 0.06144 0.0
C479 C 0.43255 0.50377 0.01768 0.0
C480 C 0.42359 0.51522 0.97125 0.0
C481 C 0.40476 0.4936 0.06048 0.0
N482 N 0.39629 0.50522 0.01603 0.0
H483 H 0.39956 0.52638 0.94297 0.0
H484 H 0.39774 0.48597 0.09986 0.0
H485 H 0.39922 0.53653 0.11409 0.0
H486 H 0.36139 0.50414 0.2012 0.0
O487 O 0.37301 0.53497 1.00083 0.0
O488 O 0.34979 0.5223 0.04481 0.0
O489 O 0.36579 0.48767 0.07041 0.0
C490 C 0.35685 0.53609 0.01806 0.0
H491 H 0.33729 0.48869 0.80682 0.0
H492 H 0.40098 0.53913 0.26293 0.0
H493 H 0.4292 0.48373 0.09962 0.0
H494 H 0.4304 0.52417 0.93634 0.0
Co495 Co 0.2478 0.63002 0.77669 0.0
C496 C 0.25057 0.63102 0.61074 0.0
C497 C 0.27154 0.61707 0.66129 0.0
C498 C 0.27292 0.61587 0.58425 0.0
N499 N 0.25755 0.62659 0.6779 0.0
N500 N 0.25967 0.62454 0.55229 0.0
H501 H 0.23862 0.6381 0.60495 0.0
H502 H 0.27983 0.61083 0.70204 0.0
C503 C 0.27936 0.63269 0.88139 0.0
O504 O 0.27267 0.64525 0.922 0.0
N505 N 0.23766 0.63315 0.87592 0.0
C506 C 0.22392 0.64304 0.8928 0.0
C507 C 0.22123 0.64259 0.96886 0.0
C508 C 0.24248 0.62603 0.94213 0.0
N509 N 0.23313 0.63216 1.00053 0.0
C510 C 0.23584 0.66406 0.74745 0.0
C511 C 0.26679 0.68124 0.76713 0.0
C512 C 0.25171 0.69083 0.75398 0.0
C513 C 0.2362 0.68192 0.74236 0.0
C514 C 0.26586 0.66322 0.77115 0.0
N515 N 0.25031 0.65492 0.76598 0.0
H516 H 0.22368 0.65768 0.73712 0.0
H517 H 0.27771 0.6561 0.77751 0.0
H518 H 0.21615 0.65012 0.85314 0.0
H519 H 0.25303 0.61702 0.94783 0.0
O520 O 0.22495 0.62726 0.73325 0.0
O521 O 0.24122 0.606 0.77632 0.0
O522 O 0.27153 0.62674 0.82267 0.0
C523 C 0.22688 0.61086 0.74408 0.0
H524 H 0.28281 0.60887 0.55429 0.0
H525 H 0.21126 0.64957 0.99831 0.0
H526 H 0.27919 0.68758 0.77348 0.0
H527 H 0.22423 0.6887 0.7312 0.0
H528 H 0.3637 0.03691 0.70596 0.0
H529 H 0.38197 0.96618 0.38373 0.0
H530 H 0.37663 0.984 0.75266 0.0
H531 H 0.36411 0.01771 0.33906 0.0
H532 H 0.37989 0.97228 0.51847 0.0
H533 H 0.36399 0.03007 0.5717 0.0
C534 C 0.36653 0.02382 0.68825 0.0
C535 C 0.37005 0.01102 0.74142 0.0
C536 C 0.37637 0.98225 0.47921 0.0
C537 C 0.37056 0.0031 0.58643 0.0
C538 C 0.3776 0.9788 0.402 0.0
C539 C 0.37349 0.99156 0.34935 0.0
C540 C 0.37104 0.99861 0.50452 0.0
C541 C 0.3675 0.0075 0.37703 0.0
C542 C 0.36674 0.01993 0.61123 0.0
C543 C 0.37399 0.99436 0.71425 0.0
N544 N 0.36661 0.01062 0.45251 0.0
N545 N 0.37412 0.9909 0.6388 0.0
H546 H 0.24718 0.09351 0.94288 0.0
H547 H 0.26591 0.1623 0.62454 0.0
H548 H 0.25196 0.14826 0.98696 0.0
H549 H 0.25482 0.1087 0.57584 0.0
H550 H 0.26159 0.15719 0.75789 0.0
H551 H 0.25042 0.09864 0.80896 0.0
C552 C 0.24879 0.10663 0.92469 0.0
C553 C 0.2493 0.12046 0.97697 0.0
C554 C 0.26006 0.14653 0.71811 0.0
C555 C 0.25326 0.12639 0.82291 0.0
C556 C 0.26264 0.14942 0.64187 0.0
C557 C 0.26083 0.13589 0.58874 0.0
C558 C 0.25571 0.12995 0.74186 0.0
C559 C 0.25623 0.11954 0.6146 0.0
C560 C 0.25073 0.10953 0.84796 0.0
C561 C 0.25173 0.13714 0.94938 0.0
N562 N 0.25391 0.11701 0.68932 0.0
N563 N 0.25364 0.13961 0.87444 0.0
H564 H 0.14719 0.99309 0.17524 0.0
H565 H 0.10611 0.99886 0.75954 0.0
H566 H 0.09261 0.99087 0.12315 0.0
H567 H 0.16068 0.00397 0.80689 0.0
H568 H 0.1013 0.99471 0.89297 0.0
H569 H 0.15278 0.99632 0.04098 0.0
C570 C 0.13639 0.99329 0.13586 0.0
C571 C 0.1194 0.99159 0.16087 0.0
C572 C 0.11435 0.99672 0.8743 0.0
C573 C 0.12571 0.99517 1.0072 0.0
C574 C 0.11711 0.99898 0.79785 0.0
C575 C 0.13383 0.00176 0.77172 0.0
C576 C 0.12839 0.99722 0.92539 0.0
C577 C 0.14755 0.00208 0.82452 0.0
C578 C 0.1396 0.99506 0.05917 0.0
C579 C 0.10594 0.99178 0.10689 0.0
N580 N 0.14453 0.99983 0.89885 0.0
N581 N 0.10939 0.99355 0.03292 0.0
H582 H 0.28664 0.87472 0.41495 0.0
H583 H 0.21538 0.89066 0.09162 0.0
H584 H 0.2338 0.88831 0.4595 0.0
H585 H 0.26871 0.87934 0.0461 0.0
H586 H 0.22197 0.88998 0.22616 0.0
H587 H 0.28048 0.87675 0.28007 0.0
C588 C 0.27375 0.87819 0.39645 0.0
C589 C 0.26071 0.88127 0.44897 0.0
C590 C 0.23225 0.88765 0.18683 0.0
C591 C 0.25354 0.8836 0.29395 0.0
C592 C 0.22851 0.88809 0.10971 0.0
C593 C 0.24151 0.88514 0.05684 0.0
C594 C 0.24915 0.8842 0.21197 0.0
C595 C 0.25821 0.88154 0.08432 0.0
C596 C 0.27025 0.87938 0.31929 0.0
C597 C 0.24431 0.88597 0.42141 0.0
N598 N 0.26154 0.8812 0.15982 0.0
N599 N 0.24118 0.88688 0.34593 0.0
H600 H 0.63498 0.99078 0.71683 0.0
H601 H 0.62441 0.02675 0.29823 0.0
H602 H 0.61977 0.04296 0.6681 0.0
H603 H 0.63673 0.97386 0.34809 0.0
H604 H 0.62348 0.03323 0.4332 0.0
H605 H 0.63739 0.98484 0.58195 0.0
C606 C 0.63238 0.00107 0.67794 0.0
C607 C 0.62711 0.0174 0.70409 0.0
C608 C 0.62639 0.0202 0.41455 0.0
C609 C 0.62954 0.01059 0.54905 0.0
C610 C 0.62679 0.01645 0.33731 0.0
C611 C 0.63068 0.99971 0.3113 0.0
C612 C 0.6299 0.00713 0.46643 0.0
C613 C 0.63391 0.98699 0.36515 0.0
C614 C 0.6336 0.99762 0.60074 0.0
C615 C 0.62365 0.03013 0.65061 0.0
N616 N 0.63346 0.99096 0.4399 0.0
N617 N 0.62487 0.02645 0.57579 0.0
H618 H 0.72763 0.84927 0.37983 0.0
H619 H 0.77197 0.90619 0.0674 0.0
H620 H 0.75431 0.89705 0.43174 0.0
H621 H 0.7343 0.86639 0.01662 0.0
H622 H 0.76823 0.90126 0.20125 0.0
H623 H 0.73261 0.85362 0.2469 0.0
C624 C 0.73445 0.86074 0.36368 0.0
C625 C 0.74038 0.87289 0.41785 0.0
C626 C 0.76082 0.89361 0.16063 0.0
C627 C 0.74642 0.87776 0.26462 0.0
C628 C 0.76288 0.89646 0.08396 0.0
C629 C 0.75338 0.88678 0.02981 0.0
C630 C 0.74928 0.8809 0.1837 0.0
C631 C 0.74207 0.87409 0.0555 0.0
C632 C 0.73737 0.86315 0.28742 0.0
C633 C 0.74956 0.88726 0.39263 0.0
N634 N 0.74034 0.87154 0.13043 0.0
N635 N 0.75227 0.8893 0.3179 0.0
H636 H 0.83931 0.00296 0.20404 0.0
H637 H 0.90857 0.01896 0.88483 0.0
H638 H 0.89382 0.01007 0.2475 0.0
H639 H 0.85397 0.01418 0.83692 0.0
H640 H 0.90307 0.01589 0.01774 0.0
H641 H 0.84413 0.00696 0.06994 0.0
C642 C 0.8523 0.00531 0.18552 0.0
C643 C 0.86619 0.00613 0.23743 0.0
C644 C 0.89224 0.01557 0.97837 0.0
C645 C 0.87176 0.01086 0.08373 0.0
C646 C 0.89536 0.01746 0.90206 0.0
C647 C 0.8817 0.01701 0.849 0.0
C648 C 0.87532 0.01312 1.00259 0.0
C649 C 0.86492 0.01452 0.87544 0.0
C650 C 0.85502 0.00768 0.10888 0.0
C651 C 0.88269 0.00951 0.20997 0.0
N652 N 0.8622 0.01268 0.95039 0.0
N653 N 0.885 0.01168 0.13515 0.0
H654 H 0.73393 0.16198 0.61168 0.0
H655 H 0.76617 0.09842 0.9346 0.0
H656 H 0.75076 0.1098 0.56614 0.0
H657 H 0.7473 0.14997 0.97686 0.0
H658 H 0.76061 0.10213 0.80016 0.0
H659 H 0.73843 0.15744 0.7452 0.0
C660 C 0.73839 0.14946 0.62934 0.0
C661 C 0.74182 0.13621 0.57654 0.0
C662 C 0.75766 0.11262 0.83885 0.0
C663 C 0.74737 0.13105 0.73133 0.0
C664 C 0.76093 0.11056 0.91581 0.0
C665 C 0.75729 0.12394 0.96763 0.0
C666 C 0.75071 0.12819 0.81304 0.0
C667 C 0.75019 0.13924 0.93949 0.0
C668 C 0.74109 0.14693 0.70616 0.0
C669 C 0.74801 0.12045 0.60412 0.0
N670 N 0.7472 0.14095 0.86431 0.0
N671 N 0.75059 0.11832 0.67947 0.0
H672 H 0.87709 0.484 0.25227 0.0
H673 H 0.86103 0.51743 0.83247 0.0
H674 H 0.86118 0.53585 0.2003 0.0
H675 H 0.88362 0.46804 0.88271 0.0
H676 H 0.85839 0.52333 0.96716 0.0
H677 H 0.87778 0.47718 0.11762 0.0
C678 C 0.87384 0.49401 0.21291 0.0
C679 C 0.86905 0.51056 0.23843 0.0
C680 C 0.8639 0.51118 0.9487 0.0
C681 C 0.86955 0.50269 0.08338 0.0
C682 C 0.86532 0.50775 0.87151 0.0
C683 C 0.87286 0.49234 0.84559 0.0
C684 C 0.86991 0.49905 1.00079 0.0
C685 C 0.87809 0.48027 0.89963 0.0
C686 C 0.87413 0.49005 0.13579 0.0
C687 C 0.86472 0.52285 0.18394 0.0
N688 N 0.87658 0.48391 0.97441 0.0
N689 N 0.86506 0.51867 0.10932 0.0
H690 H 0.7486 0.59418 0.44081 0.0
H691 H 0.76735 0.66325 0.12404 0.0
H692 H 0.75862 0.64814 0.4861 0.0
H693 H 0.7616 0.6088 0.07419 0.0
H694 H 0.76434 0.65755 0.25652 0.0
H695 H 0.75316 0.59895 0.30689 0.0
C696 C 0.75172 0.60704 0.42276 0.0
C697 C 0.75318 0.62079 0.47518 0.0
C698 C 0.76381 0.6468 0.2168 0.0
C699 C 0.75854 0.6263 0.32164 0.0
C700 C 0.76566 0.65003 0.14052 0.0
C701 C 0.76488 0.63649 0.08679 0.0
C702 C 0.76102 0.6299 0.24054 0.0
C703 C 0.7622 0.6197 0.11293 0.0
C704 C 0.75442 0.60972 0.34623 0.0
C705 C 0.75753 0.63711 0.44826 0.0
N706 N 0.76034 0.61689 0.18787 0.0
N707 N 0.75998 0.6394 0.37357 0.0
H708 H 0.64075 0.5141 0.73442 0.0
H709 H 0.61996 0.48203 0.31074 0.0
H710 H 0.61122 0.46837 0.67813 0.0
H711 H 0.6458 0.52984 0.36845 0.0
H712 H 0.61991 0.47484 0.44436 0.0
H713 H 0.64611 0.518 0.60061 0.0
C714 C 0.63564 0.50469 0.69415 0.0
C715 C 0.6254 0.49095 0.71776 0.0
C716 C 0.62571 0.48686 0.42772 0.0
C717 C 0.63126 0.49549 0.56388 0.0
C718 C 0.62583 0.49092 0.35127 0.0
C719 C 0.63274 0.50666 0.32818 0.0
C720 C 0.6326 0.49858 0.48162 0.0
C721 C 0.64004 0.51772 0.38365 0.0
C722 C 0.63858 0.50701 0.61754 0.0
C723 C 0.61895 0.47931 0.66253 0.0
N724 N 0.6397 0.51352 0.45757 0.0
N725 N 0.62189 0.4819 0.58834 0.0
H726 H 0.75362 0.35996 0.52364 0.0
H727 H 0.7497 0.40281 0.93724 0.0
H728 H 0.73612 0.41195 0.56789 0.0
H729 H 0.77221 0.35297 0.89046 0.0
H730 H 0.74358 0.40594 0.80272 0.0
H731 H 0.75968 0.35681 0.65802 0.0
C732 C 0.75111 0.37076 0.56125 0.0
C733 C 0.74434 0.38627 0.5336 0.0
C734 C 0.74989 0.39433 0.82188 0.0
C735 C 0.7511 0.38263 0.68853 0.0
C736 C 0.75332 0.39249 0.89888 0.0
C737 C 0.76154 0.37761 0.92563 0.0
C738 C 0.7546 0.38115 0.77092 0.0
C739 C 0.76608 0.36477 0.87271 0.0
C740 C 0.75451 0.36891 0.63825 0.0
C741 C 0.7411 0.39967 0.58596 0.0
N742 N 0.76252 0.36682 0.79815 0.0
N743 N 0.74451 0.39753 0.66059 0.0
H744 H 0.1119 0.5168 0.7974 0.0
H745 H 0.14045 0.49132 0.21443 0.0
H746 H 0.15224 0.47991 0.84497 0.0
H747 H 0.10996 0.53636 0.16384 0.0
H748 H 0.14469 0.48655 0.07974 0.0
H749 H 0.11046 0.52358 0.93149 0.0
C750 C 0.12055 0.51016 0.83544 0.0
C751 C 0.13218 0.49766 0.80871 0.0
C752 C 0.13717 0.49755 0.09824 0.0
C753 C 0.13037 0.50529 0.96363 0.0
C754 C 0.13484 0.50037 0.17537 0.0
C755 C 0.1247 0.51422 0.20104 0.0
C756 C 0.12922 0.50857 0.04615 0.0
C757 C 0.11758 0.52532 0.14703 0.0
C758 C 0.11967 0.51404 0.9124 0.0
C759 C 0.14286 0.48942 0.86204 0.0
N760 N 0.11985 0.52218 0.07238 0.0
N761 N 0.14162 0.49332 0.93668 0.0
H762 H 0.23784 0.34526 0.89362 0.0
H763 H 0.25206 0.41497 0.57469 0.0
H764 H 0.24105 0.39994 0.94188 0.0
H765 H 0.24618 0.36034 0.5312 0.0
H766 H 0.2482 0.41004 0.70886 0.0
H767 H 0.24077 0.3509 0.76079 0.0
C768 C 0.23897 0.35851 0.87649 0.0
C769 C 0.23902 0.37216 0.92963 0.0
C770 C 0.24771 0.39915 0.66988 0.0
C771 C 0.24274 0.3787 0.7761 0.0
C772 C 0.25001 0.40193 0.59322 0.0
C773 C 0.24948 0.38804 0.54128 0.0
C774 C 0.24492 0.38234 0.69499 0.0
C775 C 0.24649 0.37147 0.56873 0.0
C776 C 0.24078 0.36171 0.80022 0.0
C777 C 0.24102 0.389 0.90329 0.0
N778 N 0.24438 0.3691 0.64354 0.0
N779 N 0.2428 0.3918 0.82837 0.0
H780 H 0.378 0.52938 0.74237 0.0
H781 H 0.36465 0.49287 0.32115 0.0
H782 H 0.35075 0.48213 0.68815 0.0
H783 H 0.38737 0.5424 0.37716 0.0
H784 H 0.35972 0.48838 0.45475 0.0
H785 H 0.38223 0.53384 0.60859 0.0
C786 C 0.37301 0.51986 0.70241 0.0
C787 C 0.36407 0.5053 0.72671 0.0
C788 C 0.36576 0.50024 0.43769 0.0
C789 C 0.3687 0.51045 0.5728 0.0
C790 C 0.36851 0.50287 0.36124 0.0
C791 C 0.3765 0.51804 0.33746 0.0
C792 C 0.37107 0.51285 0.49093 0.0
C793 C 0.38142 0.53039 0.39255 0.0
C794 C 0.37531 0.52248 0.62582 0.0
C795 C 0.35758 0.4936 0.67195 0.0
N796 N 0.37866 0.52751 0.46651 0.0
N797 N 0.36007 0.4964 0.59759 0.0
H798 H 0.25211 0.60699 0.06952 0.0
H799 H 0.23998 0.6487 0.48202 0.0
H800 H 0.22211 0.65277 0.11598 0.0
H801 H 0.26969 0.60259 0.43955 0.0
H802 H 0.23299 0.64999 0.34772 0.0
H803 H 0.25857 0.60485 0.20433 0.0
C804 C 0.24682 0.61657 0.1076 0.0
C805 C 0.23643 0.63003 0.08041 0.0
C806 C 0.24105 0.63958 0.36777 0.0
C807 C 0.24379 0.62761 0.23551 0.0
C808 C 0.24499 0.6388 0.44474 0.0
C809 C 0.2555 0.62555 0.47273 0.0
C810 C 0.24762 0.62702 0.31793 0.0
C811 C 0.26177 0.61321 0.42093 0.0
C812 C 0.25049 0.6153 0.18482 0.0
C813 C 0.22991 0.64197 0.13339 0.0
N814 N 0.25774 0.61425 0.34629 0.0
N815 N 0.23372 0.64048 0.20791 0.0
H816 H 0.36964 0.04556 0.29367 0.0
H817 H 0.30631 0.12146 0.17321 0.0
H818 H 0.36149 0.05931 0.0618 0.0
H819 H 0.29284 0.0857 0.34569 0.0
H820 H 0.33243 0.10461 0.14866 0.0
H821 H 0.34742 0.06656 0.33041 0.0
C822 C 0.36347 0.05325 0.25077 0.0
C823 C 0.36717 0.05051 0.1745 0.0
C824 C 0.32383 0.10059 0.19238 0.0
C825 C 0.34215 0.07463 0.2161 0.0
C826 C 0.30897 0.11018 0.20654 0.0
C827 C 0.29737 0.10486 0.26122 0.0
C828 C 0.32733 0.08585 0.23445 0.0
C829 C 0.3014 0.09012 0.3026 0.0
C830 C 0.35075 0.06511 0.27171 0.0
C831 C 0.35886 0.06091 0.12114 0.0
N832 N 0.31611 0.08112 0.28854 0.0
N833 N 0.34671 0.0725 0.14291 0.0
H834 H 0.1534 0.04617 0.48551 0.0
H835 H 0.18636 0.11987 0.21211 0.0
H836 H 0.12942 0.05698 0.27051 0.0
H837 H 0.21481 0.10322 0.40869 0.0
H838 H 0.16323 0.09983 0.24189 0.0
H839 H 0.17364 0.06976 0.46712 0.0
C840 C 0.15226 0.05356 0.43461 0.0
C841 C 0.13971 0.04937 0.37915 0.0
C842 C 0.17447 0.10066 0.27888 0.0
C843 C 0.16301 0.07659 0.35777 0.0
C844 C 0.18768 0.11218 0.26213 0.0
C845 C 0.20267 0.11323 0.3077 0.0
C846 C 0.17613 0.09008 0.34192 0.0
C847 C 0.20357 0.10285 0.37168 0.0
C848 C 0.16389 0.06706 0.42414 0.0
C849 C 0.13887 0.05963 0.31477 0.0
N850 N 0.19056 0.09168 0.38661 0.0
N851 N 0.1504 0.07266 0.30569 0.0
H852 H 0.21619 0.91464 0.68186 0.0
H853 H 0.1306 0.94081 0.48269 0.0
H854 H 0.19117 0.87542 0.54289 0.0
H855 H 0.17579 0.9732 0.47773 0.0
H856 H 0.14908 0.91635 0.51856 0.0
H857 H 0.19756 0.93625 0.62625 0.0
C858 C 0.20661 0.91047 0.64027 0.0
C859 C 0.20519 0.89308 0.61734 0.0
C860 C 0.15489 0.92876 0.50819 0.0
C861 C 0.18376 0.91804 0.55341 0.0
C862 C 0.14441 0.9427 0.48804 0.0
C863 C 0.1517 0.95906 0.47758 0.0
C864 C 0.17262 0.93142 0.51991 0.0
C865 C 0.16964 0.96083 0.48516 0.0
C866 C 0.19611 0.92291 0.60803 0.0
C867 C 0.19265 0.88866 0.56225 0.0
N868 N 0.17944 0.94727 0.50731 0.0
N869 N 0.18221 0.90108 0.53248 0.0
H870 H 0.36248 0.94919 0.9703 0.0
H871 H 0.26814 0.93418 0.79699 0.0
H872 H 0.32114 0.98594 0.99678 0.0
H873 H 0.30345 0.89233 0.84011 0.0
H874 H 0.28871 0.95421 0.85705 0.0
H875 H 0.34201 0.92876 0.91201 0.0
C876 C 0.34905 0.95289 0.96441 0.0
C877 C 0.34344 0.96924 0.98842 0.0
C878 C 0.29195 0.94065 0.85321 0.0
C879 C 0.32012 0.94611 0.92078 0.0
C880 C 0.2803 0.92924 0.8184 0.0
C881 C 0.28414 0.91159 0.81358 0.0
C882 C 0.30761 0.93438 0.88261 0.0
C883 C 0.30001 0.90585 0.84273 0.0
C884 C 0.33741 0.94124 0.93112 0.0
C885 C 0.32595 0.97341 0.97938 0.0
N886 N 0.31121 0.91724 0.87596 0.0
N887 N 0.31491 0.96196 0.94562 0.0
H888 H 0.68751 0.8864 0.75034 0.0
H889 H 0.66056 0.973 0.94401 0.0
H890 H 0.72045 0.93124 0.7514 0.0
H891 H 0.62235 0.94754 0.80117 0.0
H892 H 0.68249 0.95381 0.89454 0.0
H893 H 0.66306 0.90504 0.78545 0.0
C894 C 0.68954 0.90016 0.75727 0.0
C895 C 0.70601 0.90733 0.7482 0.0
C896 C 0.6693 0.95237 0.8742 0.0
C897 C 0.67839 0.92842 0.78952 0.0
C898 C 0.65667 0.9632 0.9029 0.0
C899 C 0.63948 0.96184 0.87703 0.0
C900 C 0.6648 0.93975 0.82016 0.0
C901 C 0.63543 0.949 0.82271 0.0
C902 C 0.67562 0.91073 0.77688 0.0
C903 C 0.70798 0.9252 0.75765 0.0
N904 N 0.64802 0.93827 0.79636 0.0
N905 N 0.69441 0.93508 0.77905 0.0
H906 H 0.78715 0.90322 0.5945 0.0
H907 H 0.87273 0.95181 0.74198 0.0
H908 H 0.81472 0.8897 0.79814 0.0
H909 H 0.84782 0.96156 0.52787 0.0
H910 H 0.8528 0.92781 0.75994 0.0
H911 H 0.8103 0.9233 0.56535 0.0
C912 C 0.79816 0.90429 0.63269 0.0
C913 C 0.79889 0.89476 0.69914 0.0
C914 C 0.85179 0.93511 0.70871 0.0
C915 C 0.82545 0.918 0.66643 0.0
C916 C 0.86322 0.94883 0.6983 0.0
C917 C 0.86192 0.95891 0.63353 0.0
C918 C 0.83887 0.93143 0.65418 0.0
C919 C 0.84926 0.95434 0.57906 0.0
C920 C 0.81139 0.91582 0.61605 0.0
C921 C 0.81354 0.89675 0.7463 0.0
N922 N 0.83819 0.94109 0.59089 0.0
N923 N 0.82612 0.90825 0.72945 0.0
H924 H 0.82437 0.03463 0.5291 0.0
H925 H 0.81242 0.13516 0.46961 0.0
H926 H 0.86933 0.06737 0.5258 0.0
H927 H 0.78394 0.09633 0.34225 0.0
H928 H 0.83118 0.11217 0.52032 0.0
H929 H 0.80645 0.05929 0.49389 0.0
C930 C 0.83043 0.04708 0.52234 0.0
C931 C 0.84835 0.04896 0.52986 0.0
C932 C 0.82082 0.10885 0.48102 0.0
C933 C 0.82795 0.07717 0.49012 0.0
C934 C 0.81018 0.12189 0.45211 0.0
C935 C 0.79676 0.11768 0.40093 0.0
C936 C 0.81753 0.09156 0.46037 0.0
C937 C 0.79428 0.10025 0.38056 0.0
C938 C 0.82023 0.06109 0.50183 0.0
C939 C 0.85555 0.06539 0.51998 0.0
N940 N 0.80443 0.08787 0.41087 0.0
N941 N 0.84531 0.07893 0.50052 0.0
H942 H 0.69642 0.12133 0.20214 0.0
H943 H 0.67946 0.02558 0.05303 0.0
H944 H 0.73074 0.07893 0.2497 0.0
H945 H 0.63767 0.06141 0.0885 0.0
H946 H 0.69944 0.04649 0.11053 0.0
H947 H 0.67526 0.10075 0.1491 0.0
C948 C 0.6994 0.10769 0.2022 0.0
C949 C 0.71532 0.10179 0.23026 0.0
C950 C 0.6859 0.04978 0.10565 0.0
C951 C 0.69147 0.07838 0.16851 0.0
C952 C 0.67452 0.03792 0.07226 0.0
C953 C 0.65691 0.04181 0.06605 0.0
C954 C 0.67966 0.06571 0.13212 0.0
C955 C 0.65117 0.05794 0.09236 0.0
C956 C 0.68737 0.09599 0.17188 0.0
C957 C 0.71859 0.08401 0.22886 0.0
N958 N 0.66255 0.06937 0.12415 0.0
N959 N 0.70684 0.07294 0.19768 0.0
H960 H 0.80661 0.62265 0.6775 0.0
H961 H 0.86871 0.54545 0.79228 0.0
H962 H 0.79225 0.58662 0.8475 0.0
H963 H 0.8601 0.55964 0.56118 0.0
H964 H 0.84673 0.56656 0.83072 0.0
H965 H 0.83234 0.60533 0.652 0.0
C966 C 0.809 0.61122 0.71022 0.0
C967 C 0.79726 0.60597 0.76443 0.0
C968 C 0.8499 0.56517 0.77182 0.0
C969 C 0.82677 0.58637 0.73638 0.0
C970 C 0.86248 0.55324 0.74989 0.0
C971 C 0.86601 0.55064 0.67336 0.0
C972 C 0.8413 0.57489 0.71694 0.0
C973 C 0.85762 0.56115 0.6207 0.0
C974 C 0.82364 0.60136 0.69545 0.0
C975 C 0.80094 0.59101 0.80487 0.0
N976 N 0.84564 0.57282 0.64344 0.0
N977 N 0.81544 0.58171 0.79018 0.0
H978 H 0.70459 0.60712 0.7562 0.0
H979 H 0.64727 0.55412 0.03963 0.0
H980 H 0.70392 0.61839 0.99474 0.0
H981 H 0.63818 0.5533 0.79928 0.0
H982 H 0.66815 0.57743 0.02498 0.0
H983 H 0.68052 0.58713 0.77088 0.0
C984 C 0.69933 0.60548 0.81163 0.0
C985 C 0.70638 0.61443 0.87437 0.0
C986 C 0.66145 0.57227 0.97555 0.0
C987 C 0.67883 0.59137 0.89174 0.0
C988 C 0.64949 0.55894 0.98386 0.0
C989 C 0.64088 0.55167 0.92063 0.0
C990 C 0.66508 0.57826 0.90335 0.0
C991 C 0.64441 0.5585 0.84977 0.0
C992 C 0.68553 0.59409 0.81995 0.0
C993 C 0.69889 0.61183 0.94472 0.0
N994 N 0.65634 0.57124 0.84301 0.0
N995 N 0.68567 0.60042 0.95162 0.0
H996 H 0.67052 0.47125 0.99325 0.0
H997 H 0.68102 0.38879 0.24885 0.0
H998 H 0.62824 0.45104 0.11928 0.0
H999 H 0.71587 0.40133 0.07119 0.0
H1000 H 0.661 0.41081 0.20209 0.0
H1001 H 0.68731 0.44551 0.02268 0.0
C1002 C 0.66475 0.46135 0.0269 0.0
C1003 C 0.648 0.46329 0.05403 0.0
C1004 C 0.67293 0.40852 0.17279 0.0
C1005 C 0.66717 0.43381 0.08847 0.0
C1006 C 0.68433 0.39589 0.19921 0.0
C1007 C 0.70028 0.39333 0.16457 0.0
C1008 C 0.67763 0.41872 0.11183 0.0
C1009 C 0.70386 0.40298 0.10051 0.0
C1010 C 0.6743 0.44661 0.04343 0.0
C1011 C 0.64113 0.45002 0.09714 0.0
N1012 N 0.69277 0.41537 0.07697 0.0
N1013 N 0.6508 0.4359 0.11373 0.0
H1014 H 0.80648 0.39159 0.31855 0.0
H1015 H 0.82096 0.48594 0.49425 0.0
H1016 H 0.77147 0.43389 0.27961 0.0
H1017 H 0.86267 0.44979 0.4634 0.0
H1018 H 0.80129 0.46544 0.43099 0.0
H1019 H 0.82634 0.41156 0.38421 0.0
C1020 C 0.80306 0.4051 0.32319 0.0
C1021 C 0.78737 0.41114 0.29342 0.0
C1022 C 0.81474 0.46199 0.43841 0.0
C1023 C 0.80976 0.43387 0.36958 0.0
C1024 C 0.82592 0.47359 0.47508 0.0
C1025 C 0.84344 0.46953 0.48391 0.0
C1026 C 0.82112 0.44616 0.41122 0.0
C1027 C 0.84924 0.45342 0.45752 0.0
C1028 C 0.81436 0.41646 0.36077 0.0
C1029 C 0.7835 0.42874 0.30128 0.0
N1030 N 0.83809 0.4423 0.42231 0.0
N1031 N 0.79457 0.43948 0.33918 0.0
H1032 H 0.15937 0.46902 0.44624 0.0
H1033 H 0.18823 0.38429 0.24399 0.0
H1034 H 0.12269 0.445 0.29148 0.0
H1035 H 0.22109 0.42919 0.25473 0.0
H1036 H 0.16349 0.40268 0.27735 0.0
H1037 H 0.18188 0.45036 0.39707 0.0
C1038 C 0.15594 0.45962 0.40267 0.0
C1039 C 0.13904 0.45849 0.37326 0.0
C1040 C 0.1761 0.40845 0.27117 0.0
C1041 C 0.16493 0.43708 0.31683 0.0
C1042 C 0.19018 0.39803 0.25242 0.0
C1043 C 0.2067 0.40528 0.24671 0.0
C1044 C 0.17877 0.42605 0.28647 0.0
C1045 C 0.20857 0.4231 0.25824 0.0
C1046 C 0.16888 0.44912 0.37415 0.0
C1047 C 0.13554 0.44623 0.3158 0.0
N1048 N 0.19484 0.43283 0.27897 0.0
N1049 N 0.1484 0.43581 0.28974 0.0
H1050 H 0.29358 0.40716 0.25134 0.0
H1051 H 0.36493 0.44117 0.96877 0.0
H1052 H 0.3038 0.3829 0.03628 0.0
H1053 H 0.34801 0.47004 0.16377 0.0
H1054 H 0.3458 0.41756 1.00225 0.0
H1055 H 0.31652 0.42792 0.22944 0.0
C1056 C 0.30071 0.40607 0.19972 0.0
C1057 C 0.29653 0.3933 0.14525 0.0
C1058 C 0.34638 0.429 0.03808 0.0
C1059 C 0.323 0.41718 0.11983 0.0
C1060 C 0.35738 0.44249 0.0192 0.0
C1061 C 0.35806 0.45773 0.06323 0.0
C1062 C 0.33598 0.43064 0.10173 0.0
C1063 C 0.34788 0.45862 0.12785 0.0
C1064 C 0.31384 0.41799 0.18724 0.0
C1065 C 0.30645 0.39252 0.07984 0.0
N1066 N 0.33723 0.44533 0.14488 0.0
N1067 N 0.31913 0.40434 0.06879 0.0
H1068 H 0.28486 0.62215 0.02545 0.0
H1069 H 0.36492 0.56197 0.92364 0.0
H1070 H 0.30603 0.61908 0.80298 0.0
H1071 H 0.32656 0.54668 0.0821 0.0
H1072 H 0.34814 0.58798 0.89746 0.0
H1073 H 0.30521 0.59965 0.06601 0.0
C1074 C 0.29418 0.61714 0.98593 0.0
C1075 C 0.29392 0.6225 0.91095 0.0
C1076 C 0.34349 0.57898 0.93837 0.0
C1077 C 0.31697 0.59688 0.95659 0.0
C1078 C 0.35304 0.56417 0.95347 0.0
C1079 C 0.34704 0.55211 1.00477 0.0
C1080 C 0.32799 0.58196 0.97594 0.0
C1081 C 0.33154 0.55559 0.04167 0.0
C1082 C 0.30558 0.60419 1.00878 0.0
C1083 C 0.30592 0.61532 0.86135 0.0
N1084 N 0.32254 0.57026 0.02668 0.0
N1085 N 0.31698 0.60288 0.88503 0.0
H1086 H 0.17838 0.52219 0.53239 0.0
H1087 H 0.19394 0.61735 0.69648 0.0
H1088 H 0.13666 0.55755 0.57696 0.0
H1089 H 0.23073 0.5761 0.72413 0.0
H1090 H 0.17348 0.59676 0.63915 0.0
H1091 H 0.19873 0.54328 0.58651 0.0
C1092 C 0.17353 0.53448 0.55272 0.0
C1093 C 0.15583 0.53816 0.55033 0.0
C1094 C 0.18599 0.59222 0.65817 0.0
C1095 C 0.17897 0.56222 0.6126 0.0
C1096 C 0.19765 0.60393 0.69091 0.0
C1097 C 0.214 0.59837 0.71522 0.0
C1098 C 0.19084 0.5749 0.64871 0.0
C1099 C 0.2182 0.58088 0.70656 0.0
C1100 C 0.18512 0.54643 0.58414 0.0
C1101 C 0.15021 0.55422 0.57789 0.0
N1102 N 0.20672 0.56976 0.67345 0.0
N1103 N 0.16177 0.56569 0.60793 0.0
H1104 H 0.45825 0.0308 0.9663 0.0
H1105 H 0.54319 0.97704 0.07696 0.0
H1106 H 0.45727 0.98245 0.08263 0.0
H1107 H 0.54407 0.02559 0.96233 0.0
H1108 H 0.51161 0.97834 0.07669 0.0
H1109 H 0.48977 0.02915 0.96438 0.0
C1110 C 0.46466 0.01991 0.99187 0.0
C1111 C 0.45509 0.0067 0.0242 0.0
C1112 C 0.51873 0.9887 0.05153 0.0
C1113 C 0.49114 0.0046 0.02154 0.0
C1114 C 0.53674 0.98789 0.05123 0.0
C1115 C 0.54629 0.00129 0.02028 0.0
C1116 C 0.51021 0.003 0.0204 0.0
C1117 C 0.53725 0.01512 0.98813 0.0
C1118 C 0.48265 0.0189 0.99031 0.0
C1119 C 0.4641 0.99279 0.05588 0.0
N1120 N 0.51976 0.01564 0.98923 0.0
N1121 N 0.48158 0.9921 0.05365 0.0
H1122 H 0.24505 0.29749 0.39687 0.0
H1123 H 0.25116 0.21135 0.14332 0.0
H1124 H 0.26452 0.29621 0.17102 0.0
H1125 H 0.24101 0.21097 0.38128 0.0
H1126 H 0.2542 0.24265 0.15083 0.0
H1127 H 0.24215 0.26605 0.39135 0.0
C1128 C 0.24882 0.29058 0.34627 0.0
C1129 C 0.25504 0.29954 0.28429 0.0
C1130 C 0.25127 0.23574 0.20141 0.0
C1131 C 0.25158 0.2635 0.27731 0.0
C1132 C 0.24952 0.21782 0.19722 0.0
C1133 C 0.24593 0.20838 0.26187 0.0
C1134 C 0.24932 0.24444 0.27071 0.0
C1135 C 0.24361 0.21763 0.32974 0.0
C1136 C 0.24716 0.27262 0.34318 0.0
C1137 C 0.25985 0.28987 0.22044 0.0
N1138 N 0.2454 0.23511 0.33241 0.0
N1139 N 0.25789 0.27242 0.21841 0.0
H1140 H 0.04389 0.99625 0.62399 0.0
H1141 H 0.95674 0.01298 0.38656 0.0
H1142 H 0.04268 0.01982 0.40591 0.0
H1143 H 0.95799 0.98925 0.6043 0.0
H1144 H 0.98816 0.01544 0.39232 0.0
H1145 H 0.01246 0.99394 0.61848 0.0
C1146 C 0.03702 0.00101 0.575 0.0
C1147 C 0.04602 0.00818 0.51515 0.0
C1148 C 0.98159 0.00964 0.43875 0.0
C1149 C 0.00988 0.00553 0.50845 0.0
C1150 C 0.96361 0.00823 0.43554 0.0
C1151 C 0.95463 0.00095 0.49519 0.0
C1152 C 0.99076 0.00376 0.50217 0.0
C1153 C 0.96432 0.99479 0.55663 0.0
C1154 C 0.01904 0.99968 0.57192 0.0
C1155 C 0.03633 0.01436 0.45371 0.0
N1156 N 0.98181 0.99642 0.55868 0.0
N1157 N 0.01884 0.0128 0.45179 0.0
H1158 H 0.26891 0.71291 0.8513 0.0
H1159 H 0.22701 0.79816 0.67626 0.0
H1160 H 0.23443 0.71238 0.65792 0.0
H1161 H 0.25992 0.79831 0.87471 0.0
H1162 H 0.22921 0.76669 0.66931 0.0
H1163 H 0.26642 0.74434 0.85854 0.0
C1164 C 0.261 0.71942 0.80979 0.0
C1165 C 0.2518 0.70998 0.75419 0.0
C1166 C 0.2359 0.77361 0.71456 0.0
C1167 C 0.24863 0.74593 0.76288 0.0
C1168 C 0.2345 0.79156 0.71896 0.0
C1169 C 0.24338 0.8009 0.77584 0.0
C1170 C 0.24625 0.76492 0.76745 0.0
C1171 C 0.25308 0.79167 0.82913 0.0
C1172 C 0.25943 0.73735 0.81439 0.0
C1173 C 0.24155 0.71911 0.70244 0.0
N1174 N 0.25432 0.77423 0.82342 0.0
N1175 N 0.2402 0.73654 0.70818 0.0
H1176 H 0.73477 0.71204 0.84946 0.0
H1177 H 0.75835 0.79759 0.6257 0.0
H1178 H 0.75304 0.71143 0.62158 0.0
H1179 H 0.74559 0.7975 0.86112 0.0
H1180 H 0.75558 0.76619 0.62155 0.0
H1181 H 0.73671 0.74354 0.85183 0.0
C1182 C 0.73893 0.71853 0.79949 0.0
C1183 C 0.74378 0.70902 0.73529 0.0
C1184 C 0.75343 0.77304 0.67418 0.0
C1185 C 0.74635 0.74516 0.73806 0.0
C1186 C 0.75518 0.791 0.67681 0.0
C1187 C 0.7522 0.80033 0.74388 0.0
C1188 C 0.7486 0.76425 0.739 0.0
C1189 C 0.74778 0.79096 0.80783 0.0
C1190 C 0.74022 0.73653 0.80115 0.0
C1191 C 0.74935 0.71819 0.67263 0.0
N1192 N 0.74608 0.77351 0.80372 0.0
N1193 N 0.75052 0.73569 0.67566 0.0
H1194 H 0.74935 0.21155 0.1093 0.0
H1195 H 0.75347 0.29839 0.35596 0.0
H1196 H 0.77106 0.21442 0.3343 0.0
H1197 H 0.74571 0.29813 0.11472 0.0
H1198 H 0.75786 0.26727 0.3504 0.0
H1199 H 0.74649 0.243 0.11055 0.0
C1200 C 0.75369 0.21885 0.15863 0.0
C1201 C 0.76044 0.2104 0.22186 0.0
C1202 C 0.7552 0.27402 0.29867 0.0
C1203 C 0.75694 0.2463 0.22417 0.0
C1204 C 0.75269 0.29181 0.30172 0.0
C1205 C 0.74933 0.30099 0.23561 0.0
C1206 C 0.7542 0.26521 0.22909 0.0
C1207 C 0.74808 0.29163 0.16726 0.0
C1208 C 0.75204 0.23677 0.15934 0.0
C1209 C 0.76593 0.22044 0.28418 0.0
N1210 N 0.75053 0.27426 0.16577 0.0
N1211 N 0.76389 0.23785 0.2841 0.0
H1212 H 0.95603 0.49448 0.40622 0.0
H1213 H 0.04304 0.51065 0.64601 0.0
H1214 H 0.95797 0.52286 0.61723 0.0
H1215 H 0.04176 0.48746 0.4233 0.0
H1216 H 0.0118 0.5144 0.63827 0.0
H1217 H 0.98738 0.49151 0.41197 0.0
C1218 C 0.96309 0.50019 0.45357 0.0
C1219 C 0.95438 0.50886 0.51157 0.0
C1220 C 0.01834 0.50846 0.59114 0.0
C1221 C 0.99029 0.5054 0.51883 0.0
C1222 C 0.0362 0.50631 0.59548 0.0
C1223 C 0.0451 0.4988 0.53503 0.0
C1224 C 0.00925 0.50303 0.52594 0.0
C1225 C 0.03546 0.49315 0.47161 0.0
C1226 C 0.98099 0.49849 0.45683 0.0
C1227 C 0.96418 0.51618 0.57109 0.0
N1228 N 0.01808 0.49543 0.46864 0.0
N1229 N 0.98161 0.51416 0.57351 0.0
H1230 H 0.45284 0.53272 0.02051 0.0
H1231 H 0.54247 0.48212 0.05717 0.0
H1232 H 0.45619 0.47727 0.03162 0.0
H1233 H 0.53866 0.53689 0.0216 0.0
H1234 H 0.51103 0.48017 0.05418 0.0
H1235 H 0.48417 0.53446 0.02656 0.0
C1236 C 0.46015 0.52085 0.02353 0.0
C1237 C 0.45176 0.50477 0.02426 0.0
C1238 C 0.51705 0.49262 0.04713 0.0
C1239 C 0.48792 0.50676 0.03278 0.0
C1240 C 0.53503 0.49379 0.04936 0.0
C1241 C 0.5433 0.50974 0.04015 0.0
C1242 C 0.50713 0.50751 0.03578 0.0
C1243 C 0.53291 0.52431 0.02851 0.0
C1244 C 0.4781 0.52189 0.0275 0.0
C1245 C 0.46203 0.48994 0.03089 0.0
N1246 N 0.5154 0.52285 0.02688 0.0
N1247 N 0.47956 0.49129 0.03463 0.0
loop_
_geom_bond_atom_site_label_1
_geom_bond_atom_site_label_2
_geom_bond_distance
_geom_bond_site_symmetry_2
_ccdc_geom_bond_type
Co0 N4 2.148 1_554 S
Co0 N10 2.128 1_545 S
Co0 N20 2.194 1_554 S
Co0 O25 2.351 1_544 S
Co0 O26 2.155 1_544 S
Co0 O27 2.096 . S
C1 N4 1.301 . S
C1 N5 1.328 . S
C1 H6 0.930 1_545 S
C2 C3 1.333 . S
C2 N4 1.317 . S
C2 H7 0.930 . S
C3 C2 1.333 . S
C3 N5 1.350 . S
C3 H29 0.931 . S
N4 Co0 2.148 1_556 S
N4 C1 1.301 . S
N4 C2 1.317 . S
N5 C1 1.328 . S
N5 C3 1.350 . S
H6 C1 0.930 1_565 S
H7 C2 0.930 . S
C8 O9 1.224 . S
C8 O27 1.247 . S
O9 C8 1.224 . S
N10 Co0 2.128 1_565 S
N10 C11 1.355 . S
N10 C13 1.311 1_565 S
C11 N10 1.355 . S
C11 C12 1.363 . S
C11 H23 0.929 . S
C12 C11 1.363 . S
C12 N14 1.375 . S
C12 H30 0.931 . S
C13 N10 1.311 1_545 S
C13 N14 1.347 1_545 S
C13 H24 0.929 . S
N14 C12 1.375 . S
N14 C13 1.347 1_565 S
C15 C18 1.365 . S
C15 N20 1.328 1_565 S
C15 H21 0.929 . S
C16 C17 1.362 . S
C16 C19 1.378 . S
C16 H31 0.929 . S
C17 C16 1.362 . S
C17 C18 1.366 1_544 S
C18 C15 1.365 . S
C18 C17 1.366 1_566 S
C18 H32 0.930 . S
C19 C16 1.378 . S
C19 N20 1.315 1_554 S
C19 H22 0.930 . S
N20 Co0 2.194 1_556 S
N20 C15 1.328 1_545 S
N20 C19 1.315 1_556 S
H21 C15 0.929 . S
H22 C19 0.930 . S
H23 C11 0.929 . S
H24 C13 0.929 . S
O25 Co0 2.351 1_566 S
O25 C28 1.244 . S
O26 Co0 2.155 1_566 S
O26 C28 1.240 . S
O27 Co0 2.096 . S
O27 C8 1.247 . S
C28 O25 1.244 . S
C28 O26 1.240 . S
H29 C3 0.931 . S
H30 C12 0.931 . S
H31 C16 0.929 . S
H32 C18 0.930 . S
Co33 N37 2.148 . S
Co33 N43 2.128 . S
Co33 N53 2.194 . S
Co33 O58 2.351 . S
Co33 O59 2.155 . S
Co33 O60 2.096 . S
C34 N37 1.301 . S
C34 N38 1.328 . S
C34 H39 0.930 . S
C35 C36 1.333 . S
C35 N37 1.317 . S
C35 H40 0.930 . S
C36 C35 1.333 . S
C36 N38 1.350 . S
C36 H62 0.931 . S
N37 Co33 2.148 . S
N37 C34 1.301 . S
N37 C35 1.317 . S
N38 C34 1.328 . S
N38 C36 1.350 . S
H39 C34 0.930 . S
H40 C35 0.930 . S
C41 O42 1.224 . S
C41 O60 1.247 . S
O42 C41 1.224 . S
N43 Co33 2.128 . S
N43 C44 1.355 . S
N43 C46 1.311 . S
C44 N43 1.355 . S
C44 C45 1.363 . S
C44 H56 0.929 . S
C45 C44 1.363 . S
C45 N47 1.375 . S
C45 H63 0.931 . S
C46 N43 1.311 . S
C46 N47 1.347 . S
C46 H57 0.929 . S
N47 C45 1.375 . S
N47 C46 1.347 . S
C48 C51 1.365 . S
C48 N53 1.328 . S
C48 H54 0.929 . S
C49 C50 1.362 . S
C49 C52 1.378 . S
C49 H64 0.929 . S
C50 C49 1.362 . S
C50 C51 1.366 . S
C51 C48 1.365 . S
C51 C50 1.366 . S
C51 H65 0.930 . S
C52 C49 1.378 . S
C52 N53 1.315 . S
C52 H55 0.930 . S
N53 Co33 2.194 . S
N53 C48 1.328 . S
N53 C52 1.315 . S
H54 C48 0.929 . S
H55 C52 0.930 . S
H56 C44 0.929 . S
H57 C46 0.929 . S
O58 Co33 2.351 . S
O58 C61 1.244 . S
O59 Co33 2.155 . S
O59 C61 1.240 . S
O60 Co33 2.096 . S
O60 C41 1.247 . S
C61 O58 1.244 . S
C61 O59 1.240 . S
H62 C36 0.931 . S
H63 C45 0.931 . S
H64 C49 0.929 . S
H65 C51 0.930 . S
Co66 N70 2.148 . S
Co66 N76 2.128 1_545 S
Co66 N86 2.194 . S
Co66 O91 2.351 1_545 S
Co66 O92 2.155 1_545 S
Co66 O93 2.096 . S
C67 N70 1.301 . S
C67 N71 1.328 . S
C67 H72 0.930 1_545 S
C68 C69 1.333 . S
C68 N70 1.317 . S
C68 H73 0.930 . S
C69 C68 1.333 . S
C69 N71 1.350 . S
C69 H95 0.931 . S
N70 Co66 2.148 . S
N70 C67 1.301 . S
N70 C68 1.317 . S
N71 C67 1.328 . S
N71 C69 1.350 . S
H72 C67 0.930 1_565 S
H73 C68 0.930 . S
C74 O75 1.224 . S
C74 O93 1.247 . S
O75 C74 1.224 . S
N76 Co66 2.128 1_565 S
N76 C77 1.355 . S
N76 C79 1.311 1_565 S
C77 N76 1.355 . S
C77 C78 1.363 . S
C77 H89 0.929 . S
C78 C77 1.363 . S
C78 N80 1.375 . S
C78 H96 0.931 . S
C79 N76 1.311 1_545 S
C79 N80 1.347 1_545 S
C79 H90 0.929 . S
N80 C78 1.375 . S
N80 C79 1.347 1_565 S
C81 C84 1.365 . S
C81 N86 1.328 1_565 S
C81 H87 0.929 . S
C82 C83 1.362 . S
C82 C85 1.378 . S
C82 H97 0.929 . S
C83 C82 1.362 . S
C83 C84 1.366 1_545 S
C84 C81 1.365 . S
C84 C83 1.366 1_565 S
C84 H98 0.930 . S
C85 C82 1.378 . S
C85 N86 1.315 . S
C85 H88 0.930 . S
N86 Co66 2.194 . S
N86 C81 1.328 1_545 S
N86 C85 1.315 . S
H87 C81 0.929 . S
H88 C85 0.930 . S
H89 C77 0.929 . S
H90 C79 0.929 . S
O91 Co66 2.351 1_565 S
O91 C94 1.244 . S
O92 Co66 2.155 1_565 S
O92 C94 1.240 . S
O93 Co66 2.096 . S
O93 C74 1.247 . S
C94 O91 1.244 . S
C94 O92 1.240 . S
H95 C69 0.931 . S
H96 C78 0.931 . S
H97 C82 0.929 . S
H98 C84 0.930 . S
Co99 N103 2.148 . S
Co99 N109 2.128 . S
Co99 N119 2.194 . S
Co99 O124 2.351 . S
Co99 O125 2.155 . S
Co99 O126 2.096 . S
C100 N103 1.301 . S
C100 N104 1.328 . S
C100 H105 0.930 . S
C101 C102 1.333 . S
C101 N103 1.317 . S
C101 H106 0.930 . S
C102 C101 1.333 . S
C102 N104 1.350 . S
C102 H128 0.931 . S
N103 Co99 2.148 . S
N103 C100 1.301 . S
N103 C101 1.317 . S
N104 C100 1.328 . S
N104 C102 1.350 . S
H105 C100 0.930 . S
H106 C101 0.930 . S
C107 O108 1.224 . S
C107 O126 1.247 . S
O108 C107 1.224 . S
N109 Co99 2.128 . S
N109 C110 1.355 . S
N109 C112 1.311 . S
C110 N109 1.355 . S
C110 C111 1.363 . S
C110 H122 0.929 . S
C111 C110 1.363 . S
C111 N113 1.375 . S
C111 H129 0.931 . S
C112 N109 1.311 . S
C112 N113 1.347 . S
C112 H123 0.929 . S
N113 C111 1.375 . S
N113 C112 1.347 . S
C114 C117 1.365 . S
C114 N119 1.328 . S
C114 H120 0.929 . S
C115 C116 1.362 . S
C115 C118 1.378 . S
C115 H130 0.929 . S
C116 C115 1.362 . S
C116 C117 1.366 . S
C117 C114 1.365 . S
C117 C116 1.366 . S
C117 H131 0.930 . S
C118 C115 1.378 . S
C118 N119 1.315 . S
C118 H121 0.930 . S
N119 Co99 2.194 . S
N119 C114 1.328 . S
N119 C118 1.315 . S
H120 C114 0.929 . S
H121 C118 0.930 . S
H122 C110 0.929 . S
H123 C112 0.929 . S
O124 Co99 2.351 . S
O124 C127 1.244 . S
O125 Co99 2.155 . S
O125 C127 1.240 . S
O126 Co99 2.096 . S
O126 C107 1.247 . S
C127 O124 1.244 . S
C127 O125 1.240 . S
H128 C102 0.931 . S
H129 C111 0.931 . S
H130 C115 0.929 . S
H131 C117 0.930 . S
Co132 N136 2.148 1_545 S
Co132 N142 2.128 1_554 S
Co132 N152 2.194 . S
Co132 O157 2.351 . S
Co132 O158 2.155 . S
Co132 O159 2.096 1_544 S
C133 N136 1.301 1_545 S
C133 N137 1.328 1_545 S
C133 H138 0.930 . S
C134 C135 1.333 . S
C134 N136 1.317 . S
C134 H139 0.930 . S
C135 C134 1.333 . S
C135 N137 1.350 . S
C135 H161 0.931 . S
N136 Co132 2.148 1_565 S
N136 C133 1.301 1_565 S
N136 C134 1.317 . S
N137 C133 1.328 1_565 S
N137 C135 1.350 . S
H138 C133 0.930 . S
H139 C134 0.930 . S
C140 O141 1.224 . S
C140 O159 1.247 . S
O141 C140 1.224 . S
N142 Co132 2.128 1_556 S
N142 C143 1.355 . S
N142 C145 1.311 . S
C143 N142 1.355 . S
C143 C144 1.363 . S
C143 H155 0.929 . S
C144 C143 1.363 . S
C144 N146 1.375 . S
C144 H162 0.931 . S
C145 N142 1.311 . S
C145 N146 1.347 . S
C145 H156 0.929 1_545 S
N146 C144 1.375 . S
N146 C145 1.347 . S
C147 C150 1.365 . S
C147 N152 1.328 . S
C147 H153 0.929 . S
C148 C149 1.362 1_566 S
C148 C151 1.378 . S
C148 H163 0.929 . S
C149 C148 1.362 1_544 S
C149 C150 1.366 . S
C150 C147 1.365 . S
C150 C149 1.366 . S
C150 H164 0.930 . S
C151 C148 1.378 . S
C151 N152 1.315 1_566 S
C151 H154 0.930 . S
N152 Co132 2.194 . S
N152 C147 1.328 . S
N152 C151 1.315 1_544 S
H153 C147 0.929 . S
H154 C151 0.930 . S
H155 C143 0.929 . S
H156 C145 0.929 1_565 S
O157 Co132 2.351 . S
O157 C160 1.244 . S
O158 Co132 2.155 . S
O158 C160 1.240 . S
O159 Co132 2.096 1_566 S
O159 C140 1.247 . S
C160 O157 1.244 . S
C160 O158 1.240 . S
H161 C135 0.931 . S
H162 C144 0.931 . S
H163 C148 0.929 . S
H164 C150 0.930 . S
Co165 N169 2.148 . S
Co165 N175 2.128 . S
Co165 N185 2.194 . S
Co165 O190 2.351 . S
Co165 O191 2.155 . S
Co165 O192 2.096 . S
C166 N169 1.301 . S
C166 N170 1.328 . S
C166 H171 0.930 . S
C167 C168 1.333 . S
C167 N169 1.317 . S
C167 H172 0.930 . S
C168 C167 1.333 . S
C168 N170 1.350 . S
C168 H194 0.931 . S
N169 Co165 2.148 . S
N169 C166 1.301 . S
N169 C167 1.317 . S
N170 C166 1.328 . S
N170 C168 1.350 . S
H171 C166 0.930 . S
H172 C167 0.930 . S
C173 O174 1.224 . S
C173 O192 1.247 . S
O174 C173 1.224 . S
N175 Co165 2.128 . S
N175 C176 1.355 . S
N175 C178 1.311 . S
C176 N175 1.355 . S
C176 C177 1.363 . S
C176 H188 0.929 . S
C177 C176 1.363 . S
C177 N179 1.375 . S
C177 H195 0.931 . S
C178 N175 1.311 . S
C178 N179 1.347 . S
C178 H189 0.929 . S
N179 C177 1.375 . S
N179 C178 1.347 . S
C180 C183 1.365 . S
C180 N185 1.328 . S
C180 H186 0.929 . S
C181 C182 1.362 . S
C181 C184 1.378 . S
C181 H196 0.929 . S
C182 C181 1.362 . S
C182 C183 1.366 . S
C183 C180 1.365 . S
C183 C182 1.366 . S
C183 H197 0.930 . S
C184 C181 1.378 . S
C184 N185 1.315 . S
C184 H187 0.930 . S
N185 Co165 2.194 . S
N185 C180 1.328 . S
N185 C184 1.315 . S
H186 C180 0.929 . S
H187 C184 0.930 . S
H188 C176 0.929 . S
H189 C178 0.929 . S
O190 Co165 2.351 . S
O190 C193 1.244 . S
O191 Co165 2.155 . S
O191 C193 1.240 . S
O192 Co165 2.096 . S
O192 C173 1.247 . S
C193 O190 1.244 . S
C193 O191 1.240 . S
H194 C168 0.931 . S
H195 C177 0.931 . S
H196 C181 0.929 . S
H197 C183 0.930 . S
Co198 N202 2.148 1_545 S
Co198 N208 2.128 . S
Co198 N218 2.194 . S
Co198 O223 2.351 . S
Co198 O224 2.155 . S
Co198 O225 2.096 1_545 S
C199 N202 1.301 1_545 S
C199 N203 1.328 1_545 S
C199 H204 0.930 . S
C200 C201 1.333 . S
C200 N202 1.317 . S
C200 H205 0.930 . S
C201 C200 1.333 . S
C201 N203 1.350 . S
C201 H227 0.931 . S
N202 Co198 2.148 1_565 S
N202 C199 1.301 1_565 S
N202 C200 1.317 . S
N203 C199 1.328 1_565 S
N203 C201 1.350 . S
H204 C199 0.930 . S
H205 C200 0.930 . S
C206 O207 1.224 . S
C206 O225 1.247 . S
O207 C206 1.224 . S
N208 Co198 2.128 . S
N208 C209 1.355 . S
N208 C211 1.311 . S
C209 N208 1.355 . S
C209 C210 1.363 . S
C209 H221 0.929 . S
C210 C209 1.363 . S
C210 N212 1.375 . S
C210 H228 0.931 . S
C211 N208 1.311 . S
C211 N212 1.347 . S
C211 H222 0.929 1_545 S
N212 C210 1.375 . S
N212 C211 1.347 . S
C213 C216 1.365 . S
C213 N218 1.328 . S
C213 H219 0.929 . S
C214 C215 1.362 1_565 S
C214 C217 1.378 . S
C214 H229 0.929 . S
C215 C214 1.362 1_545 S
C215 C216 1.366 . S
C216 C213 1.365 . S
C216 C215 1.366 . S
C216 H230 0.930 . S
C217 C214 1.378 . S
C217 N218 1.315 1_565 S
C217 H220 0.930 . S
N218 Co198 2.194 . S
N218 C213 1.328 . S
N218 C217 1.315 1_545 S
H219 C213 0.929 . S
H220 C217 0.930 . S
H221 C209 0.929 . S
H222 C211 0.929 1_565 S
O223 Co198 2.351 . S
O223 C226 1.244 . S
O224 Co198 2.155 . S
O224 C226 1.240 . S
O225 Co198 2.096 1_565 S
O225 C206 1.247 . S
C226 O223 1.244 . S
C226 O224 1.240 . S
H227 C201 0.931 . S
H228 C210 0.931 . S
H229 C214 0.929 . S
H230 C216 0.930 . S
Co231 N235 2.148 . S
Co231 N241 2.128 . S
Co231 N251 2.194 . S
Co231 O256 2.351 . S
Co231 O257 2.155 . S
Co231 O258 2.096 . S
C232 N235 1.301 . S
C232 N236 1.328 . S
C232 H237 0.930 . S
C233 C234 1.333 . S
C233 N235 1.317 . S
C233 H238 0.930 . S
C234 C233 1.333 . S
C234 N236 1.350 . S
C234 H260 0.931 . S
N235 Co231 2.148 . S
N235 C232 1.301 . S
N235 C233 1.317 . S
N236 C232 1.328 . S
N236 C234 1.350 . S
H237 C232 0.930 . S
H238 C233 0.930 . S
C239 O240 1.224 . S
C239 O258 1.247 . S
O240 C239 1.224 . S
N241 Co231 2.128 . S
N241 C242 1.355 . S
N241 C244 1.311 . S
C242 N241 1.355 . S
C242 C243 1.363 . S
C242 H254 0.929 . S
C243 C242 1.363 . S
C243 N245 1.375 . S
C243 H261 0.931 . S
C244 N241 1.311 . S
C244 N245 1.347 . S
C244 H255 0.929 . S
N245 C243 1.375 . S
N245 C244 1.347 . S
C246 C249 1.365 . S
C246 N251 1.328 . S
C246 H252 0.929 . S
C247 C248 1.362 . S
C247 C250 1.378 . S
C247 H262 0.929 . S
C248 C247 1.362 . S
C248 C249 1.366 . S
C249 C246 1.365 . S
C249 C248 1.366 . S
C249 H263 0.930 . S
C250 C247 1.378 . S
C250 N251 1.315 . S
C250 H253 0.930 . S
N251 Co231 2.194 . S
N251 C246 1.328 . S
N251 C250 1.315 . S
H252 C246 0.929 . S
H253 C250 0.930 . S
H254 C242 0.929 . S
H255 C244 0.929 . S
O256 Co231 2.351 . S
O256 C259 1.244 . S
O257 Co231 2.155 . S
O257 C259 1.240 . S
O258 Co231 2.096 . S
O258 C239 1.247 . S
C259 O256 1.244 . S
C259 O257 1.240 . S
H260 C234 0.931 . S
H261 C243 0.931 . S
H262 C247 0.929 . S
H263 C249 0.930 . S
Co264 N268 2.148 . S
Co264 N274 2.128 . S
Co264 N284 2.194 . S
Co264 O289 2.351 . S
Co264 O290 2.155 . S
Co264 O291 2.096 . S
C265 N268 1.301 . S
C265 N269 1.328 . S
C265 H270 0.930 . S
C266 C267 1.333 . S
C266 N268 1.317 . S
C266 H271 0.930 . S
C267 C266 1.333 . S
C267 N269 1.350 . S
C267 H293 0.931 . S
N268 Co264 2.148 . S
N268 C265 1.301 . S
N268 C266 1.317 . S
N269 C265 1.328 . S
N269 C267 1.350 . S
H270 C265 0.930 . S
H271 C266 0.930 . S
C272 O273 1.224 . S
C272 O291 1.247 . S
O273 C272 1.224 . S
N274 Co264 2.128 . S
N274 C275 1.355 . S
N274 C277 1.311 . S
C275 N274 1.355 . S
C275 C276 1.363 . S
C275 H287 0.929 . S
C276 C275 1.363 . S
C276 N278 1.375 . S
C276 H294 0.931 . S
C277 N274 1.311 . S
C277 N278 1.347 . S
C277 H288 0.929 . S
N278 C276 1.375 . S
N278 C277 1.347 . S
C279 C282 1.365 . S
C279 N284 1.328 . S
C279 H285 0.929 . S
C280 C281 1.362 . S
C280 C283 1.378 . S
C280 H295 0.929 . S
C281 C280 1.362 . S
C281 C282 1.366 . S
C282 C279 1.365 . S
C282 C281 1.366 . S
C282 H296 0.930 . S
C283 C280 1.378 . S
C283 N284 1.315 . S
C283 H286 0.930 . S
N284 Co264 2.194 . S
N284 C279 1.328 . S
N284 C283 1.315 . S
H285 C279 0.929 . S
H286 C283 0.930 . S
H287 C275 0.929 . S
H288 C277 0.929 . S
O289 Co264 2.351 . S
O289 C292 1.244 . S
O290 Co264 2.155 . S
O290 C292 1.240 . S
O291 Co264 2.096 . S
O291 C272 1.247 . S
C292 O289 1.244 . S
C292 O290 1.240 . S
H293 C267 0.931 . S
H294 C276 0.931 . S
H295 C280 0.929 . S
H296 C282 0.930 . S
Co297 N301 2.148 . S
Co297 N307 2.128 . S
Co297 N317 2.194 . S
Co297 O322 2.351 . S
Co297 O323 2.155 . S
Co297 O324 2.096 . S
C298 N301 1.301 . S
C298 N302 1.328 . S
C298 H303 0.930 . S
C299 C300 1.333 . S
C299 N301 1.317 . S
C299 H304 0.930 . S
C300 C299 1.333 . S
C300 N302 1.350 . S
C300 H326 0.931 . S
N301 Co297 2.148 . S
N301 C298 1.301 . S
N301 C299 1.317 . S
N302 C298 1.328 . S
N302 C300 1.350 . S
H303 C298 0.930 . S
H304 C299 0.930 . S
C305 O306 1.224 . S
C305 O324 1.247 . S
O306 C305 1.224 . S
N307 Co297 2.128 . S
N307 C308 1.355 . S
N307 C310 1.311 . S
C308 N307 1.355 . S
C308 C309 1.363 . S
C308 H320 0.929 . S
C309 C308 1.363 . S
C309 N311 1.375 . S
C309 H327 0.931 1_556 S
C310 N307 1.311 . S
C310 N311 1.347 . S
C310 H321 0.929 . S
N311 C309 1.375 . S
N311 C310 1.347 . S
C312 C315 1.365 . S
C312 N317 1.328 . S
C312 H318 0.929 . S
C313 C314 1.362 . S
C313 C316 1.378 . S
C313 H328 0.929 . S
C314 C313 1.362 . S
C314 C315 1.366 . S
C315 C312 1.365 . S
C315 C314 1.366 . S
C315 H329 0.930 . S
C316 C313 1.378 . S
C316 N317 1.315 . S
C316 H319 0.930 . S
N317 Co297 2.194 . S
N317 C312 1.328 . S
N317 C316 1.315 . S
H318 C312 0.929 . S
H319 C316 0.930 . S
H320 C308 0.929 . S
H321 C310 0.929 . S
O322 Co297 2.351 . S
O322 C325 1.244 . S
O323 Co297 2.155 . S
O323 C325 1.240 . S
O324 Co297 2.096 . S
O324 C305 1.247 . S
C325 O322 1.244 . S
C325 O323 1.240 . S
H326 C300 0.931 . S
H327 C309 0.931 1_554 S
H328 C313 0.929 . S
H329 C315 0.930 . S
Co330 N334 2.148 . S
Co330 N340 2.128 1_554 S
Co330 N350 2.194 . S
Co330 O355 2.351 . S
Co330 O356 2.155 . S
Co330 O357 2.096 1_554 S
C331 N334 1.301 . S
C331 N335 1.328 . S
C331 H336 0.930 . S
C332 C333 1.333 . S
C332 N334 1.317 . S
C332 H337 0.930 . S
C333 C332 1.333 . S
C333 N335 1.350 . S
C333 H359 0.931 . S
N334 Co330 2.148 . S
N334 C331 1.301 . S
N334 C332 1.317 . S
N335 C331 1.328 . S
N335 C333 1.350 . S
H336 C331 0.930 . S
H337 C332 0.930 . S
C338 O339 1.224 . S
C338 O357 1.247 . S
O339 C338 1.224 . S
N340 Co330 2.128 1_556 S
N340 C341 1.355 . S
N340 C343 1.311 . S
C341 N340 1.355 . S
C341 C342 1.363 . S
C341 H353 0.929 . S
C342 C341 1.363 . S
C342 N344 1.375 . S
C342 H360 0.931 . S
C343 N340 1.311 . S
C343 N344 1.347 . S
C343 H354 0.929 . S
N344 C342 1.375 . S
N344 C343 1.347 . S
C345 C348 1.365 . S
C345 N350 1.328 . S
C345 H351 0.929 . S
C346 C347 1.362 1_556 S
C346 C349 1.378 . S
C346 H361 0.929 . S
C347 C346 1.362 1_554 S
C347 C348 1.366 . S
C348 C345 1.365 . S
C348 C347 1.366 . S
C348 H362 0.930 . S
C349 C346 1.378 . S
C349 N350 1.315 1_556 S
C349 H352 0.930 . S
N350 Co330 2.194 . S
N350 C345 1.328 . S
N350 C349 1.315 1_554 S
H351 C345 0.929 . S
H352 C349 0.930 . S
H353 C341 0.929 . S
H354 C343 0.929 . S
O355 Co330 2.351 . S
O355 C358 1.244 . S
O356 Co330 2.155 . S
O356 C358 1.240 . S
O357 Co330 2.096 1_556 S
O357 C338 1.247 . S
C358 O355 1.244 . S
C358 O356 1.240 . S
H359 C333 0.931 . S
H360 C342 0.931 . S
H361 C346 0.929 . S
H362 C348 0.930 . S
Co363 N367 2.148 . S
Co363 N373 2.128 . S
Co363 N383 2.194 . S
Co363 O388 2.351 . S
Co363 O389 2.155 . S
Co363 O390 2.096 . S
C364 N367 1.301 . S
C364 N368 1.328 . S
C364 H369 0.930 . S
C365 C366 1.333 . S
C365 N367 1.317 . S
C365 H370 0.930 . S
C366 C365 1.333 . S
C366 N368 1.350 . S
C366 H392 0.931 . S
N367 Co363 2.148 . S
N367 C364 1.301 . S
N367 C365 1.317 . S
N368 C364 1.328 . S
N368 C366 1.350 . S
H369 C364 0.930 . S
H370 C365 0.930 . S
C371 O372 1.224 . S
C371 O390 1.247 . S
O372 C371 1.224 . S
N373 Co363 2.128 . S
N373 C374 1.355 . S
N373 C376 1.311 . S
C374 N373 1.355 . S
C374 C375 1.363 . S
C374 H386 0.929 . S
C375 C374 1.363 . S
C375 N377 1.375 . S
C375 H393 0.931 . S
C376 N373 1.311 . S
C376 N377 1.347 . S
C376 H387 0.929 . S
N377 C375 1.375 . S
N377 C376 1.347 . S
C378 C381 1.365 . S
C378 N383 1.328 . S
C378 H384 0.929 . S
C379 C380 1.362 . S
C379 C382 1.378 . S
C379 H394 0.929 . S
C380 C379 1.362 . S
C380 C381 1.366 . S
C381 C378 1.365 . S
C381 C380 1.366 . S
C381 H395 0.930 . S
C382 C379 1.378 . S
C382 N383 1.315 . S
C382 H385 0.930 . S
N383 Co363 2.194 . S
N383 C378 1.328 . S
N383 C382 1.315 . S
H384 C378 0.929 . S
H385 C382 0.930 . S
H386 C374 0.929 . S
H387 C376 0.929 . S
O388 Co363 2.351 . S
O388 C391 1.244 . S
O389 Co363 2.155 . S
O389 C391 1.240 . S
O390 Co363 2.096 . S
O390 C371 1.247 . S
C391 O388 1.244 . S
C391 O389 1.240 . S
H392 C366 0.931 . S
H393 C375 0.931 . S
H394 C379 0.929 . S
H395 C381 0.930 . S
Co396 N400 2.148 . S
Co396 N406 2.128 . S
Co396 N416 2.194 . S
Co396 O421 2.351 . S
Co396 O422 2.155 . S
Co396 O423 2.096 . S
C397 N400 1.301 . S
C397 N401 1.328 . S
C397 H402 0.930 . S
C398 C399 1.333 . S
C398 N400 1.317 . S
C398 H403 0.930 . S
C399 C398 1.333 . S
C399 N401 1.350 . S
C399 H425 0.931 . S
N400 Co396 2.148 . S
N400 C397 1.301 . S
N400 C398 1.317 . S
N401 C397 1.328 . S
N401 C399 1.350 . S
H402 C397 0.930 . S
H403 C398 0.930 . S
C404 O405 1.224 . S
C404 O423 1.247 . S
O405 C404 1.224 . S
N406 Co396 2.128 . S
N406 C407 1.355 . S
N406 C409 1.311 . S
C407 N406 1.355 . S
C407 C408 1.363 . S
C407 H419 0.929 . S
C408 C407 1.363 . S
C408 N410 1.375 . S
C408 H426 0.931 . S
C409 N406 1.311 . S
C409 N410 1.347 . S
C409 H420 0.929 . S
N410 C408 1.375 . S
N410 C409 1.347 . S
C411 C414 1.365 . S
C411 N416 1.328 . S
C411 H417 0.929 . S
C412 C413 1.362 . S
C412 C415 1.378 . S
C412 H427 0.929 . S
C413 C412 1.362 . S
C413 C414 1.366 . S
C414 C411 1.365 . S
C414 C413 1.366 . S
C414 H428 0.930 . S
C415 C412 1.378 . S
C415 N416 1.315 . S
C415 H418 0.930 . S
N416 Co396 2.194 . S
N416 C411 1.328 . S
N416 C415 1.315 . S
H417 C411 0.929 . S
H418 C415 0.930 . S
H419 C407 0.929 . S
H420 C409 0.929 . S
O421 Co396 2.351 . S
O421 C424 1.244 . S
O422 Co396 2.155 . S
O422 C424 1.240 . S
O423 Co396 2.096 . S
O423 C404 1.247 . S
C424 O421 1.244 . S
C424 O422 1.240 . S
H425 C399 0.931 . S
H426 C408 0.931 . S
H427 C412 0.929 . S
H428 C414 0.930 . S
Co429 N433 2.148 . S
Co429 N439 2.128 . S
Co429 N449 2.194 . S
Co429 O454 2.351 . S
Co429 O455 2.155 . S
Co429 O456 2.096 . S
C430 N433 1.301 . S
C430 N434 1.328 . S
C430 H435 0.930 . S
C431 C432 1.333 . S
C431 N433 1.317 . S
C431 H436 0.930 . S
C432 C431 1.333 . S
C432 N434 1.350 . S
C432 H458 0.931 . S
N433 Co429 2.148 . S
N433 C430 1.301 . S
N433 C431 1.317 . S
N434 C430 1.328 . S
N434 C432 1.350 . S
H435 C430 0.930 . S
H436 C431 0.930 . S
C437 O438 1.224 . S
C437 O456 1.247 . S
O438 C437 1.224 . S
N439 Co429 2.128 . S
N439 C440 1.355 . S
N439 C442 1.311 . S
C440 N439 1.355 . S
C440 C441 1.363 . S
C440 H452 0.929 . S
C441 C440 1.363 . S
C441 N443 1.375 . S
C441 H459 0.931 . S
C442 N439 1.311 . S
C442 N443 1.347 . S
C442 H453 0.929 . S
N443 C441 1.375 . S
N443 C442 1.347 . S
C444 C447 1.365 . S
C444 N449 1.328 . S
C444 H450 0.929 . S
C445 C446 1.362 . S
C445 C448 1.378 . S
C445 H460 0.929 . S
C446 C445 1.362 . S
C446 C447 1.366 . S
C447 C444 1.365 . S
C447 C446 1.366 . S
C447 H461 0.930 . S
C448 C445 1.378 . S
C448 N449 1.315 . S
C448 H451 0.930 . S
N449 Co429 2.194 . S
N449 C444 1.328 . S
N449 C448 1.315 . S
H450 C444 0.929 . S
H451 C448 0.930 . S
H452 C440 0.929 . S
H453 C442 0.929 . S
O454 Co429 2.351 . S
O454 C457 1.244 . S
O455 Co429 2.155 . S
O455 C457 1.240 . S
O456 Co429 2.096 . S
O456 C437 1.247 . S
C457 O454 1.244 . S
C457 O455 1.240 . S
H458 C432 0.931 . S
H459 C441 0.931 . S
H460 C445 0.929 . S
H461 C447 0.930 . S
Co462 N466 2.148 1_554 S
Co462 N472 2.128 . S
Co462 N482 2.194 1_554 S
Co462 O487 2.351 1_554 S
Co462 O488 2.155 1_554 S
Co462 O489 2.096 . S
C463 N466 1.301 . S
C463 N467 1.328 . S
C463 H468 0.930 . S
C464 C465 1.333 . S
C464 N466 1.317 . S
C464 H469 0.930 . S
C465 C464 1.333 . S
C465 N467 1.350 . S
C465 H491 0.931 . S
N466 Co462 2.148 1_556 S
N466 C463 1.301 . S
N466 C464 1.317 . S
N467 C463 1.328 . S
N467 C465 1.350 . S
H468 C463 0.930 . S
H469 C464 0.930 . S
C470 O471 1.224 . S
C470 O489 1.247 . S
O471 C470 1.224 . S
N472 Co462 2.128 . S
N472 C473 1.355 . S
N472 C475 1.311 . S
C473 N472 1.355 . S
C473 C474 1.363 . S
C473 H485 0.929 . S
C474 C473 1.363 . S
C474 N476 1.375 . S
C474 H492 0.931 . S
C475 N472 1.311 . S
C475 N476 1.347 . S
C475 H486 0.929 . S
N476 C474 1.375 . S
N476 C475 1.347 . S
C477 C480 1.365 . S
C477 N482 1.328 . S
C477 H483 0.929 . S
C478 C479 1.362 . S
C478 C481 1.378 . S
C478 H493 0.929 . S
C479 C478 1.362 . S
C479 C480 1.366 1_554 S
C480 C477 1.365 . S
C480 C479 1.366 1_556 S
C480 H494 0.930 . S
C481 C478 1.378 . S
C481 N482 1.315 1_554 S
C481 H484 0.930 . S
N482 Co462 2.194 1_556 S
N482 C477 1.328 . S
N482 C481 1.315 1_556 S
H483 C477 0.929 . S
H484 C481 0.930 . S
H485 C473 0.929 . S
H486 C475 0.929 . S
O487 Co462 2.351 1_556 S
O487 C490 1.244 . S
O488 Co462 2.155 1_556 S
O488 C490 1.240 . S
O489 Co462 2.096 . S
O489 C470 1.247 . S
C490 O487 1.244 . S
C490 O488 1.240 . S
H491 C465 0.931 . S
H492 C474 0.931 . S
H493 C478 0.929 . S
H494 C480 0.930 . S
Co495 N499 2.148 . S
Co495 N505 2.128 . S
Co495 N515 2.194 . S
Co495 O520 2.351 . S
Co495 O521 2.155 . S
Co495 O522 2.096 . S
C496 N499 1.301 . S
C496 N500 1.328 . S
C496 H501 0.930 . S
C497 C498 1.333 . S
C497 N499 1.317 . S
C497 H502 0.930 . S
C498 C497 1.333 . S
C498 N500 1.350 . S
C498 H524 0.931 . S
N499 Co495 2.148 . S
N499 C496 1.301 . S
N499 C497 1.317 . S
N500 C496 1.328 . S
N500 C498 1.350 . S
H501 C496 0.930 . S
H502 C497 0.930 . S
C503 O504 1.224 . S
C503 O522 1.247 . S
O504 C503 1.224 . S
N505 Co495 2.128 . S
N505 C506 1.355 . S
N505 C508 1.311 . S
C506 N505 1.355 . S
C506 C507 1.363 . S
C506 H518 0.929 . S
C507 C506 1.363 . S
C507 N509 1.375 . S
C507 H525 0.929 1_556 S
C508 N505 1.311 . S
C508 N509 1.347 . S
C508 H519 0.929 . S
N509 C507 1.375 . S
N509 C508 1.347 . S
C510 C513 1.365 . S
C510 N515 1.328 . S
C510 H516 0.929 . S
C511 C512 1.362 . S
C511 C514 1.378 . S
C511 H526 0.929 . S
C512 C511 1.362 . S
C512 C513 1.366 . S
C513 C510 1.365 . S
C513 C512 1.366 . S
C513 H527 0.930 . S
C514 C511 1.378 . S
C514 N515 1.315 . S
C514 H517 0.930 . S
N515 Co495 2.194 . S
N515 C510 1.328 . S
N515 C514 1.315 . S
H516 C510 0.929 . S
H517 C514 0.930 . S
H518 C506 0.929 . S
H519 C508 0.929 . S
O520 Co495 2.351 . S
O520 C523 1.244 . S
O521 Co495 2.155 . S
O521 C523 1.240 . S
O522 Co495 2.096 . S
O522 C503 1.247 . S
C523 O520 1.244 . S
C523 O521 1.240 . S
H524 C498 0.931 . S
H525 C507 0.929 1_554 S
H526 C511 0.929 . S
H527 C513 0.930 . S
H528 C534 0.930 . S
H529 C538 0.930 . S
H530 C543 0.929 . S
H531 C541 0.929 . S
H532 C536 0.929 . S
H533 C542 0.929 . S
C534 H528 0.930 . S
C534 C535 1.367 . S
C534 C542 1.378 . S
C535 C534 1.367 . S
C535 C543 1.433 1_545 S
C536 H532 0.929 . S
C536 C538 1.378 . S
C536 C540 1.350 1_565 S
C537 C540 1.463 . S
C537 C542 1.350 . S
C537 N545 1.427 1_545 S
C538 H529 0.930 . S
C538 C536 1.378 . S
C538 C539 1.327 1_565 S
C539 C538 1.327 1_545 S
C539 C541 1.478 . S
C540 C536 1.350 1_545 S
C540 C537 1.463 . S
C540 N544 1.427 . S
C541 H531 0.929 . S
C541 C539 1.478 . S
C541 N544 1.384 . S
C542 H533 0.929 . S
C542 C534 1.378 . S
C542 C537 1.350 . S
C543 H530 0.929 . S
C543 C535 1.433 1_565 S
C543 N545 1.384 . S
N544 C540 1.427 . S
N544 C541 1.384 . S
N545 C537 1.427 1_565 S
N545 C543 1.384 . S
H546 C552 0.930 . S
H547 C556 0.930 . S
H548 C561 0.929 . S
H549 C559 0.929 . S
H550 C554 0.929 . S
H551 C560 0.929 . S
C552 H546 0.930 . S
C552 C553 1.367 . S
C552 C560 1.378 . S
C553 C552 1.367 . S
C553 C561 1.433 . S
C554 H550 0.929 . S
C554 C556 1.378 . S
C554 C558 1.350 . S
C555 C558 1.463 . S
C555 C560 1.350 . S
C555 N563 1.427 . S
C556 H547 0.930 . S
C556 C554 1.378 . S
C556 C557 1.367 . S
C557 C556 1.367 . S
C557 C559 1.433 . S
C558 C554 1.350 . S
C558 C555 1.463 . S
C558 N562 1.427 . S
C559 H549 0.929 . S
C559 C557 1.433 . S
C559 N562 1.384 . S
C560 H551 0.929 . S
C560 C552 1.378 . S
C560 C555 1.350 . S
C561 H548 0.929 . S
C561 C553 1.433 . S
C561 N563 1.384 . S
N562 C558 1.427 . S
N562 C559 1.384 . S
N563 C555 1.427 . S
N563 C561 1.384 . S
H564 C570 0.928 . S
H565 C574 0.930 . S
H566 C579 0.929 . S
H567 C577 0.929 . S
H568 C572 0.929 . S
H569 C578 0.929 . S
C570 H564 0.928 . S
C570 C571 1.366 . S
C570 C578 1.387 . S
C571 C570 1.366 . S
C571 C579 1.436 . S
C572 H568 0.929 . S
C572 C574 1.378 . S
C572 C576 1.350 . S
C573 C576 1.463 1_554 S
C573 C578 1.350 . S
C573 N581 1.427 . S
C574 H565 0.930 . S
C574 C572 1.378 . S
C574 C575 1.367 . S
C575 C574 1.367 . S
C575 C577 1.433 . S
C576 C572 1.350 . S
C576 C573 1.463 1_556 S
C576 N580 1.427 . S
C577 H567 0.929 . S
C577 C575 1.433 . S
C577 N580 1.384 . S
C578 H569 0.929 . S
C578 C570 1.387 . S
C578 C573 1.350 . S
C579 H566 0.929 . S
C579 C571 1.436 . S
C579 N581 1.384 . S
N580 C576 1.427 . S
N580 C577 1.384 . S
N581 C573 1.427 . S
N581 C579 1.384 . S
H582 C588 0.930 . S
H583 C592 0.930 . S
H584 C597 0.929 . S
H585 C595 0.929 . S
H586 C590 0.929 . S
H587 C596 0.929 . S
C588 H582 0.930 . S
C588 C589 1.367 . S
C588 C596 1.378 . S
C589 C588 1.367 . S
C589 C597 1.433 . S
C590 H586 0.929 . S
C590 C592 1.378 . S
C590 C594 1.350 . S
C591 C594 1.463 . S
C591 C596 1.350 . S
C591 N599 1.427 . S
C592 H583 0.930 . S
C592 C590 1.378 . S
C592 C593 1.367 . S
C593 C592 1.367 . S
C593 C595 1.433 . S
C594 C590 1.350 . S
C594 C591 1.463 . S
C594 N598 1.427 . S
C595 H585 0.929 . S
C595 C593 1.433 . S
C595 N598 1.384 . S
C596 H587 0.929 . S
C596 C588 1.378 . S
C596 C591 1.350 . S
C597 H584 0.929 . S
C597 C589 1.433 . S
C597 N599 1.384 . S
N598 C594 1.427 . S
N598 C595 1.384 . S
N599 C591 1.427 . S
N599 C597 1.384 . S
H600 C606 0.930 . S
H601 C610 0.930 . S
H602 C615 0.929 . S
H603 C613 0.929 . S
H604 C608 0.929 . S
H605 C614 0.929 . S
C606 H600 0.930 . S
C606 C607 1.367 1_565 S
C606 C614 1.378 . S
C607 C606 1.367 1_545 S
C607 C615 1.433 . S
C608 H604 0.929 . S
C608 C610 1.378 . S
C608 C612 1.350 . S
C609 C612 1.463 . S
C609 C614 1.350 1_545 S
C609 N617 1.427 . S
C610 H601 0.930 . S
C610 C608 1.378 . S
C610 C611 1.367 . S
C611 C610 1.367 . S
C611 C613 1.433 1_545 S
C612 C608 1.350 . S
C612 C609 1.463 . S
C612 N616 1.427 1_545 S
C613 H603 0.929 . S
C613 C611 1.433 1_565 S
C613 N616 1.384 . S
C614 H605 0.929 . S
C614 C606 1.378 . S
C614 C609 1.350 1_565 S
C615 H602 0.929 . S
C615 C607 1.433 . S
C615 N617 1.384 . S
N616 C612 1.427 1_565 S
N616 C613 1.384 . S
N617 C609 1.427 . S
N617 C615 1.384 . S
H618 C624 0.930 . S
H619 C628 0.930 . S
H620 C633 0.929 . S
H621 C631 0.929 . S
H622 C626 0.929 . S
H623 C632 0.929 . S
C624 H618 0.930 . S
C624 C625 1.367 . S
C624 C632 1.378 . S
C625 C624 1.367 . S
C625 C633 1.433 . S
C626 H622 0.929 . S
C626 C628 1.378 . S
C626 C630 1.350 . S
C627 C630 1.463 . S
C627 C632 1.350 . S
C627 N635 1.427 . S
C628 H619 0.930 . S
C628 C626 1.378 . S
C628 C629 1.367 . S
C629 C628 1.367 . S
C629 C631 1.433 . S
C630 C626 1.350 . S
C630 C627 1.463 . S
C630 N634 1.427 . S
C631 H621 0.929 . S
C631 C629 1.433 . S
C631 N634 1.384 . S
C632 H623 0.929 . S
C632 C624 1.378 . S
C632 C627 1.350 . S
C633 H620 0.929 . S
C633 C625 1.433 . S
C633 N635 1.384 . S
N634 C630 1.427 . S
N634 C631 1.384 . S
N635 C627 1.427 . S
N635 C633 1.384 . S
H636 C642 0.930 . S
H637 C646 0.930 . S
H638 C651 0.929 . S
H639 C649 0.929 . S
H640 C644 0.929 . S
H641 C650 0.929 . S
C642 H636 0.930 . S
C642 C643 1.367 1_565 S
C642 C650 1.378 . S
C643 C642 1.367 1_545 S
C643 C651 1.433 . S
C644 H640 0.929 . S
C644 C646 1.378 . S
C644 C648 1.350 . S
C645 C648 1.463 1_554 S
C645 C650 1.350 1_545 S
C645 N653 1.427 . S
C646 H637 0.930 . S
C646 C644 1.378 . S
C646 C647 1.367 . S
C647 C646 1.367 . S
C647 C649 1.433 1_545 S
C648 C644 1.350 . S
C648 C645 1.463 1_556 S
C648 N652 1.427 1_545 S
C649 H639 0.929 . S
C649 C647 1.433 1_565 S
C649 N652 1.384 . S
C650 H641 0.929 . S
C650 C642 1.378 . S
C650 C645 1.350 1_565 S
C651 H638 0.929 . S
C651 C643 1.433 . S
C651 N653 1.384 . S
N652 C648 1.427 1_565 S
N652 C649 1.384 . S
N653 C645 1.427 . S
N653 C651 1.384 . S
H654 C660 0.930 . S
H655 C664 0.930 . S
H656 C669 0.929 . S
H657 C667 0.929 . S
H658 C662 0.929 . S
H659 C668 0.929 . S
C660 H654 0.930 . S
C660 C661 1.367 . S
C660 C668 1.378 . S
C661 C660 1.367 . S
C661 C669 1.433 . S
C662 H658 0.929 . S
C662 C664 1.378 . S
C662 C666 1.350 . S
C663 C666 1.463 . S
C663 C668 1.350 . S
C663 N671 1.427 . S
C664 H655 0.930 . S
C664 C662 1.378 . S
C664 C665 1.367 . S
C665 C664 1.367 . S
C665 C667 1.433 . S
C666 C662 1.350 . S
C666 C663 1.463 . S
C666 N670 1.427 . S
C667 H657 0.929 . S
C667 C665 1.433 . S
C667 N670 1.384 . S
C668 H659 0.929 . S
C668 C660 1.378 . S
C668 C663 1.350 . S
C669 H656 0.929 . S
C669 C661 1.433 . S
C669 N671 1.384 . S
N670 C666 1.427 . S
N670 C667 1.384 . S
N671 C663 1.427 . S
N671 C669 1.384 . S
H672 C678 0.930 . S
H673 C682 0.930 . S
H674 C687 0.929 . S
H675 C685 0.929 . S
H676 C680 0.929 . S
H677 C686 0.929 . S
C678 H672 0.930 . S
C678 C679 1.367 . S
C678 C686 1.378 . S
C679 C678 1.367 . S
C679 C687 1.433 . S
C680 H676 0.929 . S
C680 C682 1.378 . S
C680 C684 1.350 . S
C681 C684 1.463 1_554 S
C681 C686 1.350 . S
C681 N689 1.427 . S
C682 H673 0.930 . S
C682 C680 1.378 . S
C682 C683 1.367 . S
C683 C682 1.367 . S
C683 C685 1.433 . S
C684 C680 1.350 . S
C684 C681 1.463 1_556 S
C684 N688 1.427 . S
C685 H675 0.929 . S
C685 C683 1.433 . S
C685 N688 1.384 . S
C686 H677 0.929 . S
C686 C678 1.378 . S
C686 C681 1.350 . S
C687 H674 0.929 . S
C687 C679 1.433 . S
C687 N689 1.384 . S
N688 C684 1.427 . S
N688 C685 1.384 . S
N689 C681 1.427 . S
N689 C687 1.384 . S
H690 C696 0.930 . S
H691 C700 0.930 . S
H692 C705 0.929 . S
H693 C703 0.929 . S
H694 C698 0.929 . S
H695 C704 0.929 . S
C696 H690 0.930 . S
C696 C697 1.367 . S
C696 C704 1.378 . S
C697 C696 1.367 . S
C697 C705 1.433 . S
C698 H694 0.929 . S
C698 C700 1.378 . S
C698 C702 1.350 . S
C699 C702 1.463 . S
C699 C704 1.350 . S
C699 N707 1.427 . S
C700 H691 0.930 . S
C700 C698 1.378 . S
C700 C701 1.367 . S
C701 C700 1.367 . S
C701 C703 1.433 . S
C702 C698 1.350 . S
C702 C699 1.463 . S
C702 N706 1.427 . S
C703 H693 0.929 . S
C703 C701 1.433 . S
C703 N706 1.384 . S
C704 H695 0.929 . S
C704 C696 1.378 . S
C704 C699 1.350 . S
C705 H692 0.929 . S
C705 C697 1.433 . S
C705 N707 1.384 . S
N706 C702 1.427 . S
N706 C703 1.384 . S
N707 C699 1.427 . S
N707 C705 1.384 . S
H708 C714 0.930 . S
H709 C718 0.930 . S
H710 C723 0.929 . S
H711 C721 0.929 . S
H712 C716 0.929 . S
H713 C722 0.929 . S
C714 H708 0.930 . S
C714 C715 1.367 . S
C714 C722 1.378 . S
C715 C714 1.367 . S
C715 C723 1.433 . S
C716 H712 0.929 . S
C716 C718 1.378 . S
C716 C720 1.350 . S
C717 C720 1.463 . S
C717 C722 1.350 . S
C717 N725 1.427 . S
C718 H709 0.930 . S
C718 C716 1.378 . S
C718 C719 1.367 . S
C719 C718 1.367 . S
C719 C721 1.433 . S
C720 C716 1.350 . S
C720 C717 1.463 . S
C720 N724 1.427 . S
C721 H711 0.929 . S
C721 C719 1.433 . S
C721 N724 1.384 . S
C722 H713 0.929 . S
C722 C714 1.378 . S
C722 C717 1.350 . S
C723 H710 0.929 . S
C723 C715 1.433 . S
C723 N725 1.384 . S
N724 C720 1.427 . S
N724 C721 1.384 . S
N725 C717 1.427 . S
N725 C723 1.384 . S
H726 C732 0.930 . S
H727 C736 0.930 . S
H728 C741 0.929 . S
H729 C739 0.929 . S
H730 C734 0.929 . S
H731 C740 0.929 . S
C732 H726 0.930 . S
C732 C733 1.367 . S
C732 C740 1.378 . S
C733 C732 1.367 . S
C733 C741 1.433 . S
C734 H730 0.929 . S
C734 C736 1.378 . S
C734 C738 1.350 . S
C735 C738 1.463 . S
C735 C740 1.350 . S
C735 N743 1.427 . S
C736 H727 0.930 . S
C736 C734 1.378 . S
C736 C737 1.367 . S
C737 C736 1.367 . S
C737 C739 1.433 . S
C738 C734 1.350 . S
C738 C735 1.463 . S
C738 N742 1.427 . S
C739 H729 0.929 . S
C739 C737 1.433 . S
C739 N742 1.384 . S
C740 H731 0.929 . S
C740 C732 1.378 . S
C740 C735 1.350 . S
C741 H728 0.929 . S
C741 C733 1.433 . S
C741 N743 1.384 . S
N742 C738 1.427 . S
N742 C739 1.384 . S
N743 C735 1.427 . S
N743 C741 1.384 . S
H744 C750 0.930 . S
H745 C754 0.930 . S
H746 C759 0.929 . S
H747 C757 0.929 . S
H748 C752 0.929 . S
H749 C758 0.929 . S
C750 H744 0.930 . S
C750 C751 1.367 . S
C750 C758 1.378 . S
C751 C750 1.367 . S
C751 C759 1.433 . S
C752 H748 0.929 . S
C752 C754 1.378 . S
C752 C756 1.350 . S
C753 C756 1.463 1_556 S
C753 C758 1.350 . S
C753 N761 1.427 . S
C754 H745 0.930 . S
C754 C752 1.378 . S
C754 C755 1.367 . S
C755 C754 1.367 . S
C755 C757 1.433 . S
C756 C752 1.350 . S
C756 C753 1.463 1_554 S
C756 N760 1.427 . S
C757 H747 0.929 . S
C757 C755 1.433 . S
C757 N760 1.384 . S
C758 H749 0.929 . S
C758 C750 1.378 . S
C758 C753 1.350 . S
C759 H746 0.929 . S
C759 C751 1.433 . S
C759 N761 1.384 . S
N760 C756 1.427 . S
N760 C757 1.384 . S
N761 C753 1.427 . S
N761 C759 1.384 . S
H762 C768 0.930 . S
H763 C772 0.930 . S
H764 C777 0.929 . S
H765 C775 0.929 . S
H766 C770 0.929 . S
H767 C776 0.929 . S
C768 H762 0.930 . S
C768 C769 1.367 . S
C768 C776 1.378 . S
C769 C768 1.367 . S
C769 C777 1.433 . S
C770 H766 0.929 . S
C770 C772 1.378 . S
C770 C774 1.350 . S
C771 C774 1.463 . S
C771 C776 1.350 . S
C771 N779 1.427 . S
C772 H763 0.930 . S
C772 C770 1.378 . S
C772 C773 1.367 . S
C773 C772 1.367 . S
C773 C775 1.433 . S
C774 C770 1.350 . S
C774 C771 1.463 . S
C774 N778 1.427 . S
C775 H765 0.929 . S
C775 C773 1.433 . S
C775 N778 1.384 . S
C776 H767 0.929 . S
C776 C768 1.378 . S
C776 C771 1.350 . S
C777 H764 0.929 . S
C777 C769 1.433 . S
C777 N779 1.384 . S
N778 C774 1.427 . S
N778 C775 1.384 . S
N779 C771 1.427 . S
N779 C777 1.384 . S
H780 C786 0.930 . S
H781 C790 0.930 . S
H782 C795 0.929 . S
H783 C793 0.929 . S
H784 C788 0.929 . S
H785 C794 0.929 . S
C786 H780 0.930 . S
C786 C787 1.367 . S
C786 C794 1.378 . S
C787 C786 1.367 . S
C787 C795 1.433 . S
C788 H784 0.929 . S
C788 C790 1.378 . S
C788 C792 1.350 . S
C789 C792 1.463 . S
C789 C794 1.350 . S
C789 N797 1.427 . S
C790 H781 0.930 . S
C790 C788 1.378 . S
C790 C791 1.367 . S
C791 C790 1.367 . S
C791 C793 1.433 . S
C792 C788 1.350 . S
C792 C789 1.463 . S
C792 N796 1.427 . S
C793 H783 0.929 . S
C793 C791 1.433 . S
C793 N796 1.384 . S
C794 H785 0.929 . S
C794 C786 1.378 . S
C794 C789 1.350 . S
C795 H782 0.929 . S
C795 C787 1.433 . S
C795 N797 1.384 . S
N796 C792 1.427 . S
N796 C793 1.384 . S
N797 C789 1.427 . S
N797 C795 1.384 . S
H798 C804 0.930 . S
H799 C808 0.930 . S
H800 C813 0.929 . S
H801 C811 0.929 . S
H802 C806 0.929 . S
H803 C812 0.929 . S
C804 H798 0.930 . S
C804 C805 1.367 . S
C804 C812 1.378 . S
C805 C804 1.367 . S
C805 C813 1.433 . S
C806 H802 0.929 . S
C806 C808 1.378 . S
C806 C810 1.350 . S
C807 C810 1.463 . S
C807 C812 1.350 . S
C807 N815 1.427 . S
C808 H799 0.930 . S
C808 C806 1.378 . S
C808 C809 1.367 . S
C809 C808 1.367 . S
C809 C811 1.433 . S
C810 C806 1.350 . S
C810 C807 1.463 . S
C810 N814 1.427 . S
C811 H801 0.929 . S
C811 C809 1.433 . S
C811 N814 1.384 . S
C812 H803 0.929 . S
C812 C804 1.378 . S
C812 C807 1.350 . S
C813 H800 0.929 . S
C813 C805 1.433 . S
C813 N815 1.384 . S
N814 C810 1.427 . S
N814 C811 1.384 . S
N815 C807 1.427 . S
N815 C813 1.384 . S
H816 C822 0.930 . S
H817 C826 0.930 . S
H818 C831 0.929 1_556 S
H819 C829 0.929 . S
H820 C824 0.929 . S
H821 C830 0.929 . S
C822 H816 0.930 . S
C822 C823 1.367 . S
C822 C830 1.378 . S
C823 C822 1.367 . S
C823 C831 1.433 . S
C824 H820 0.929 . S
C824 C826 1.378 . S
C824 C828 1.350 . S
C825 C828 1.463 . S
C825 C830 1.350 . S
C825 N833 1.427 . S
C826 H817 0.930 . S
C826 C824 1.378 . S
C826 C827 1.367 . S
C827 C826 1.367 . S
C827 C829 1.433 . S
C828 C824 1.350 . S
C828 C825 1.463 . S
C828 N832 1.427 . S
C829 H819 0.929 . S
C829 C827 1.433 . S
C829 N832 1.384 . S
C830 H821 0.929 . S
C830 C822 1.378 . S
C830 C825 1.350 . S
C831 H818 0.929 1_554 S
C831 C823 1.433 . S
C831 N833 1.384 . S
N832 C828 1.427 . S
N832 C829 1.384 . S
N833 C825 1.427 . S
N833 C831 1.384 . S
H834 C840 0.930 . S
H835 C844 0.930 . S
H836 C849 0.929 . S
H837 C847 0.929 . S
H838 C842 0.929 . S
H839 C848 0.929 . S
C840 H834 0.930 . S
C840 C841 1.367 . S
C840 C848 1.378 . S
C841 C840 1.367 . S
C841 C849 1.433 . S
C842 H838 0.929 . S
C842 C844 1.378 . S
C842 C846 1.350 . S
C843 C846 1.463 . S
C843 C848 1.350 . S
C843 N851 1.427 . S
C844 H835 0.930 . S
C844 C842 1.378 . S
C844 C845 1.367 . S
C845 C844 1.367 . S
C845 C847 1.433 . S
C846 C842 1.350 . S
C846 C843 1.463 . S
C846 N850 1.427 . S
C847 H837 0.929 . S
C847 C845 1.433 . S
C847 N850 1.384 . S
C848 H839 0.929 . S
C848 C840 1.378 . S
C848 C843 1.350 . S
C849 H836 0.929 . S
C849 C841 1.433 . S
C849 N851 1.384 . S
N850 C846 1.427 . S
N850 C847 1.384 . S
N851 C843 1.427 . S
N851 C849 1.384 . S
H852 C858 0.930 . S
H853 C862 0.930 . S
H854 C867 0.929 . S
H855 C865 0.929 . S
H856 C860 0.929 . S
H857 C866 0.929 . S
C858 H852 0.930 . S
C858 C859 1.367 . S
C858 C866 1.378 . S
C859 C858 1.367 . S
C859 C867 1.433 . S
C860 H856 0.929 . S
C860 C862 1.378 . S
C860 C864 1.350 . S
C861 C864 1.463 . S
C861 C866 1.350 . S
C861 N869 1.427 . S
C862 H853 0.930 . S
C862 C860 1.378 . S
C862 C863 1.367 . S
C863 C862 1.367 . S
C863 C865 1.433 . S
C864 C860 1.350 . S
C864 C861 1.463 . S
C864 N868 1.427 . S
C865 H855 0.929 . S
C865 C863 1.433 . S
C865 N868 1.384 . S
C866 H857 0.929 . S
C866 C858 1.378 . S
C866 C861 1.350 . S
C867 H854 0.929 . S
C867 C859 1.433 . S
C867 N869 1.384 . S
N868 C864 1.427 . S
N868 C865 1.384 . S
N869 C861 1.427 . S
N869 C867 1.384 . S
H870 C876 0.930 . S
H871 C880 0.930 . S
H872 C885 0.929 1_554 S
H873 C883 0.929 . S
H874 C878 0.929 . S
H875 C884 0.929 . S
C876 H870 0.930 . S
C876 C877 1.367 . S
C876 C884 1.378 . S
C877 C876 1.367 . S
C877 C885 1.433 . S
C878 H874 0.929 . S
C878 C880 1.378 . S
C878 C882 1.350 . S
C879 C882 1.463 . S
C879 C884 1.350 . S
C879 N887 1.427 . S
C880 H871 0.930 . S
C880 C878 1.378 . S
C880 C881 1.367 . S
C881 C880 1.367 . S
C881 C883 1.433 . S
C882 C878 1.350 . S
C882 C879 1.463 . S
C882 N886 1.427 . S
C883 H873 0.929 . S
C883 C881 1.433 . S
C883 N886 1.384 . S
C884 H875 0.929 . S
C884 C876 1.378 . S
C884 C879 1.350 . S
C885 H872 0.929 1_556 S
C885 C877 1.433 . S
C885 N887 1.384 . S
N886 C882 1.427 . S
N886 C883 1.384 . S
N887 C879 1.427 . S
N887 C885 1.384 . S
H888 C894 0.930 . S
H889 C898 0.930 1_554 S
H890 C903 0.929 . S
H891 C901 0.929 . S
H892 C896 0.929 . S
H893 C902 0.929 . S
C894 H888 0.930 . S
C894 C895 1.367 . S
C894 C902 1.378 . S
C895 C894 1.367 . S
C895 C903 1.433 . S
C896 H892 0.929 . S
C896 C898 1.378 . S
C896 C900 1.350 . S
C897 C900 1.463 . S
C897 C902 1.350 . S
C897 N905 1.427 . S
C898 H889 0.930 1_556 S
C898 C896 1.378 . S
C898 C899 1.367 . S
C899 C898 1.367 . S
C899 C901 1.433 . S
C900 C896 1.350 . S
C900 C897 1.463 . S
C900 N904 1.427 . S
C901 H891 0.929 . S
C901 C899 1.433 . S
C901 N904 1.384 . S
C902 H893 0.929 . S
C902 C894 1.378 . S
C902 C897 1.350 . S
C903 H890 0.929 . S
C903 C895 1.433 . S
C903 N905 1.384 . S
N904 C900 1.427 . S
N904 C901 1.384 . S
N905 C897 1.427 . S
N905 C903 1.384 . S
H906 C912 0.930 . S
H907 C916 0.930 . S
H908 C921 0.929 . S
H909 C919 0.929 . S
H910 C914 0.929 . S
H911 C920 0.929 . S
C912 H906 0.930 . S
C912 C913 1.367 . S
C912 C920 1.378 . S
C913 C912 1.367 . S
C913 C921 1.433 . S
C914 H910 0.929 . S
C914 C916 1.378 . S
C914 C918 1.350 . S
C915 C918 1.463 . S
C915 C920 1.350 . S
C915 N923 1.427 . S
C916 H907 0.930 . S
C916 C914 1.378 . S
C916 C917 1.367 . S
C917 C916 1.367 . S
C917 C919 1.433 . S
C918 C914 1.350 . S
C918 C915 1.463 . S
C918 N922 1.427 . S
C919 H909 0.929 . S
C919 C917 1.433 . S
C919 N922 1.384 . S
C920 H911 0.929 . S
C920 C912 1.378 . S
C920 C915 1.350 . S
C921 H908 0.929 . S
C921 C913 1.433 . S
C921 N923 1.384 . S
N922 C918 1.427 . S
N922 C919 1.384 . S
N923 C915 1.427 . S
N923 C921 1.384 . S
H924 C930 0.930 . S
H925 C934 0.930 . S
H926 C939 0.929 . S
H927 C937 0.929 . S
H928 C932 0.929 . S
H929 C938 0.929 . S
C930 H924 0.930 . S
C930 C931 1.367 . S
C930 C938 1.378 . S
C931 C930 1.367 . S
C931 C939 1.433 . S
C932 H928 0.929 . S
C932 C934 1.378 . S
C932 C936 1.350 . S
C933 C936 1.463 . S
C933 C938 1.350 . S
C933 N941 1.427 . S
C934 H925 0.930 . S
C934 C932 1.378 . S
C934 C935 1.367 . S
C935 C934 1.367 . S
C935 C937 1.433 . S
C936 C932 1.350 . S
C936 C933 1.463 . S
C936 N940 1.427 . S
C937 H927 0.929 . S
C937 C935 1.433 . S
C937 N940 1.384 . S
C938 H929 0.929 . S
C938 C930 1.378 . S
C938 C933 1.350 . S
C939 H926 0.929 . S
C939 C931 1.433 . S
C939 N941 1.384 . S
N940 C936 1.427 . S
N940 C937 1.384 . S
N941 C933 1.427 . S
N941 C939 1.384 . S
H942 C948 0.930 . S
H943 C952 0.941 . S
H944 C957 0.929 . S
H945 C955 0.929 . S
H946 C950 0.929 . S
H947 C956 0.929 . S
C948 H942 0.930 . S
C948 C949 1.367 . S
C948 C956 1.378 . S
C949 C948 1.367 . S
C949 C957 1.433 . S
C950 H946 0.929 . S
C950 C952 1.378 . S
C950 C954 1.350 . S
C951 C954 1.463 . S
C951 C956 1.350 . S
C951 N959 1.427 . S
C952 H943 0.941 . S
C952 C950 1.378 . S
C952 C953 1.367 . S
C953 C952 1.367 . S
C953 C955 1.433 . S
C954 C950 1.350 . S
C954 C951 1.463 . S
C954 N958 1.427 . S
C955 H945 0.929 . S
C955 C953 1.433 . S
C955 N958 1.384 . S
C956 H947 0.929 . S
C956 C948 1.378 . S
C956 C951 1.350 . S
C957 H944 0.929 . S
C957 C949 1.433 . S
C957 N959 1.384 . S
N958 C954 1.427 . S
N958 C955 1.384 . S
N959 C951 1.427 . S
N959 C957 1.384 . S
H960 C966 0.930 . S
H961 C970 0.930 . S
H962 C975 0.929 . S
H963 C973 0.929 . S
H964 C968 0.929 . S
H965 C974 0.929 . S
C966 H960 0.930 . S
C966 C967 1.367 . S
C966 C974 1.378 . S
C967 C966 1.367 . S
C967 C975 1.433 . S
C968 H964 0.929 . S
C968 C970 1.378 . S
C968 C972 1.350 . S
C969 C972 1.463 . S
C969 C974 1.350 . S
C969 N977 1.427 . S
C970 H961 0.930 . S
C970 C968 1.378 . S
C970 C971 1.367 . S
C971 C970 1.367 . S
C971 C973 1.433 . S
C972 C968 1.350 . S
C972 C969 1.463 . S
C972 N976 1.427 . S
C973 H963 0.929 . S
C973 C971 1.433 . S
C973 N976 1.384 . S
C974 H965 0.929 . S
C974 C966 1.378 . S
C974 C969 1.350 . S
C975 H962 0.929 . S
C975 C967 1.433 . S
C975 N977 1.384 . S
N976 C972 1.427 . S
N976 C973 1.384 . S
N977 C969 1.427 . S
N977 C975 1.384 . S
H978 C984 0.930 . S
H979 C988 0.930 1_554 S
H980 C993 0.929 . S
H981 C991 0.929 . S
H982 C986 0.926 1_554 S
H983 C992 0.929 . S
C984 H978 0.930 . S
C984 C985 1.367 . S
C984 C992 1.378 . S
C985 C984 1.367 . S
C985 C993 1.433 . S
C986 H982 0.926 1_556 S
C986 C988 1.378 . S
C986 C990 1.350 . S
C987 C990 1.463 . S
C987 C992 1.350 . S
C987 N995 1.427 . S
C988 H979 0.930 1_556 S
C988 C986 1.378 . S
C988 C989 1.367 . S
C989 C988 1.367 . S
C989 C991 1.433 . S
C990 C986 1.350 . S
C990 C987 1.463 . S
C990 N994 1.427 . S
C991 H981 0.929 . S
C991 C989 1.433 . S
C991 N994 1.384 . S
C992 H983 0.929 . S
C992 C984 1.378 . S
C992 C987 1.350 . S
C993 H980 0.929 . S
C993 C985 1.433 . S
C993 N995 1.384 . S
N994 C990 1.427 . S
N994 C991 1.384 . S
N995 C987 1.427 . S
N995 C993 1.384 . S
H996 C1002 0.930 1_556 S
H997 C1006 0.930 . S
H998 C1011 0.929 . S
H999 C1009 0.929 . S
H1000 C1004 0.929 . S
H1001 C1010 0.929 . S
C1002 H996 0.930 1_554 S
C1002 C1003 1.367 . S
C1002 C1010 1.378 . S
C1003 C1002 1.367 . S
C1003 C1011 1.433 . S
C1004 H1000 0.929 . S
C1004 C1006 1.378 . S
C1004 C1008 1.350 . S
C1005 C1008 1.463 . S
C1005 C1010 1.350 . S
C1005 N1013 1.427 . S
C1006 H997 0.930 . S
C1006 C1004 1.378 . S
C1006 C1007 1.367 . S
C1007 C1006 1.367 . S
C1007 C1009 1.433 . S
C1008 C1004 1.350 . S
C1008 C1005 1.463 . S
C1008 N1012 1.427 . S
C1009 H999 0.929 . S
C1009 C1007 1.433 . S
C1009 N1012 1.384 . S
C1010 H1001 0.929 . S
C1010 C1002 1.378 . S
C1010 C1005 1.350 . S
C1011 H998 0.929 . S
C1011 C1003 1.433 . S
C1011 N1013 1.384 . S
N1012 C1008 1.427 . S
N1012 C1009 1.384 . S
N1013 C1005 1.427 . S
N1013 C1011 1.384 . S
H1014 C1020 0.930 . S
H1015 C1024 0.930 . S
H1016 C1029 0.929 . S
H1017 C1027 0.929 . S
H1018 C1022 0.929 . S
H1019 C1028 0.929 . S
C1020 H1014 0.930 . S
C1020 C1021 1.367 . S
C1020 C1028 1.378 . S
C1021 C1020 1.367 . S
C1021 C1029 1.433 . S
C1022 H1018 0.929 . S
C1022 C1024 1.378 . S
C1022 C1026 1.350 . S
C1023 C1026 1.463 . S
C1023 C1028 1.350 . S
C1023 N1031 1.427 . S
C1024 H1015 0.930 . S
C1024 C1022 1.378 . S
C1024 C1025 1.367 . S
C1025 C1024 1.367 . S
C1025 C1027 1.433 . S
C1026 C1022 1.350 . S
C1026 C1023 1.463 . S
C1026 N1030 1.427 . S
C1027 H1017 0.929 . S
C1027 C1025 1.433 . S
C1027 N1030 1.384 . S
C1028 H1019 0.929 . S
C1028 C1020 1.378 . S
C1028 C1023 1.350 . S
C1029 H1016 0.929 . S
C1029 C1021 1.433 . S
C1029 N1031 1.384 . S
N1030 C1026 1.427 . S
N1030 C1027 1.384 . S
N1031 C1023 1.427 . S
N1031 C1029 1.384 . S
H1032 C1038 0.930 . S
H1033 C1042 0.930 . S
H1034 C1047 0.929 . S
H1035 C1045 0.929 . S
H1036 C1040 0.929 . S
H1037 C1046 0.929 . S
C1038 H1032 0.930 . S
C1038 C1039 1.367 . S
C1038 C1046 1.378 . S
C1039 C1038 1.367 . S
C1039 C1047 1.433 . S
C1040 H1036 0.929 . S
C1040 C1042 1.378 . S
C1040 C1044 1.350 . S
C1041 C1044 1.463 . S
C1041 C1046 1.350 . S
C1041 N1049 1.427 . S
C1042 H1033 0.930 . S
C1042 C1040 1.378 . S
C1042 C1043 1.367 . S
C1043 C1042 1.367 . S
C1043 C1045 1.433 . S
C1044 C1040 1.350 . S
C1044 C1041 1.463 . S
C1044 N1048 1.427 . S
C1045 H1035 0.929 . S
C1045 C1043 1.433 . S
C1045 N1048 1.384 . S
C1046 H1037 0.929 . S
C1046 C1038 1.378 . S
C1046 C1041 1.350 . S
C1047 H1034 0.929 . S
C1047 C1039 1.433 . S
C1047 N1049 1.384 . S
N1048 C1044 1.427 . S
N1048 C1045 1.384 . S
N1049 C1041 1.427 . S
N1049 C1047 1.384 . S
H1050 C1056 0.930 . S
H1051 C1060 0.930 1_556 S
H1052 C1065 0.929 . S
H1053 C1063 0.929 . S
H1054 C1058 0.929 . S
H1055 C1064 0.929 . S
C1056 H1050 0.930 . S
C1056 C1057 1.367 . S
C1056 C1064 1.378 . S
C1057 C1056 1.367 . S
C1057 C1065 1.433 . S
C1058 H1054 0.929 . S
C1058 C1060 1.378 . S
C1058 C1062 1.350 . S
C1059 C1062 1.463 . S
C1059 C1064 1.350 . S
C1059 N1067 1.427 . S
C1060 H1051 0.930 1_554 S
C1060 C1058 1.378 . S
C1060 C1061 1.367 . S
C1061 C1060 1.367 . S
C1061 C1063 1.433 . S
C1062 C1058 1.350 . S
C1062 C1059 1.463 . S
C1062 N1066 1.427 . S
C1063 H1053 0.929 . S
C1063 C1061 1.433 . S
C1063 N1066 1.384 . S
C1064 H1055 0.929 . S
C1064 C1056 1.378 . S
C1064 C1059 1.350 . S
C1065 H1052 0.929 . S
C1065 C1057 1.433 . S
C1065 N1067 1.384 . S
N1066 C1062 1.427 . S
N1066 C1063 1.384 . S
N1067 C1059 1.427 . S
N1067 C1065 1.384 . S
H1068 C1074 0.930 . S
H1069 C1078 0.930 . S
H1070 C1083 0.929 . S
H1071 C1081 0.936 . S
H1072 C1076 0.929 . S
H1073 C1082 0.929 . S
C1074 H1068 0.930 . S
C1074 C1075 1.367 . S
C1074 C1082 1.378 . S
C1075 C1074 1.367 . S
C1075 C1083 1.433 . S
C1076 H1072 0.929 . S
C1076 C1078 1.378 . S
C1076 C1080 1.350 . S
C1077 C1080 1.463 . S
C1077 C1082 1.350 . S
C1077 N1085 1.427 . S
C1078 H1069 0.930 . S
C1078 C1076 1.378 . S
C1078 C1079 1.367 . S
C1079 C1078 1.367 . S
C1079 C1081 1.429 1_556 S
C1080 C1076 1.350 . S
C1080 C1077 1.463 . S
C1080 N1084 1.427 . S
C1081 H1071 0.936 . S
C1081 C1079 1.429 1_554 S
C1081 N1084 1.381 1_554 S
C1082 H1073 0.929 . S
C1082 C1074 1.378 . S
C1082 C1077 1.350 . S
C1083 H1070 0.929 . S
C1083 C1075 1.433 . S
C1083 N1085 1.384 . S
N1084 C1080 1.427 . S
N1084 C1081 1.381 1_556 S
N1085 C1077 1.427 . S
N1085 C1083 1.384 . S
H1086 C1092 0.930 . S
H1087 C1096 0.930 . S
H1088 C1101 0.929 . S
H1089 C1099 0.929 . S
H1090 C1094 0.929 . S
H1091 C1100 0.929 . S
C1092 H1086 0.930 . S
C1092 C1093 1.367 . S
C1092 C1100 1.378 . S
C1093 C1092 1.367 . S
C1093 C1101 1.433 . S
C1094 H1090 0.929 . S
C1094 C1096 1.378 . S
C1094 C1098 1.350 . S
C1095 C1098 1.463 . S
C1095 C1100 1.350 . S
C1095 N1103 1.427 . S
C1096 H1087 0.930 . S
C1096 C1094 1.378 . S
C1096 C1097 1.367 . S
C1097 C1096 1.367 . S
C1097 C1099 1.433 . S
C1098 C1094 1.350 . S
C1098 C1095 1.463 . S
C1098 N1102 1.427 . S
C1099 H1089 0.929 . S
C1099 C1097 1.433 . S
C1099 N1102 1.384 . S
C1100 H1091 0.929 . S
C1100 C1092 1.378 . S
C1100 C1095 1.350 . S
C1101 H1088 0.929 . S
C1101 C1093 1.433 . S
C1101 N1103 1.384 . S
N1102 C1098 1.427 . S
N1102 C1099 1.384 . S
N1103 C1095 1.427 . S
N1103 C1101 1.384 . S
H1104 C1110 0.930 . S
H1105 C1114 0.930 . S
H1106 C1119 0.929 . S
H1107 C1117 0.929 . S
H1108 C1112 0.929 . S
H1109 C1118 0.929 . S
C1110 H1104 0.930 . S
C1110 C1111 1.367 1_556 S
C1110 C1118 1.378 . S
C1111 C1110 1.367 1_554 S
C1111 C1119 1.433 1_545 S
C1112 H1108 0.929 . S
C1112 C1114 1.378 . S
C1112 C1116 1.350 1_565 S
C1113 C1116 1.463 . S
C1113 C1118 1.350 1_554 S
C1113 N1121 1.427 1_545 S
C1114 H1105 0.930 . S
C1114 C1112 1.378 . S
C1114 C1115 1.367 1_565 S
C1115 C1114 1.367 1_545 S
C1115 C1117 1.433 1_554 S
C1116 C1112 1.350 1_545 S
C1116 C1113 1.463 . S
C1116 N1120 1.427 1_554 S
C1117 H1107 0.929 . S
C1117 C1115 1.433 1_556 S
C1117 N1120 1.384 . S
C1118 H1109 0.929 . S
C1118 C1110 1.378 . S
C1118 C1113 1.350 1_556 S
C1119 H1106 0.929 . S
C1119 C1111 1.433 1_565 S
C1119 N1121 1.384 . S
N1120 C1116 1.427 1_556 S
N1120 C1117 1.384 . S
N1121 C1113 1.427 1_565 S
N1121 C1119 1.384 . S
H1122 C1128 0.930 . S
H1123 C1132 0.930 . S
H1124 C1137 0.929 . S
H1125 C1135 0.929 . S
H1126 C1130 0.929 . S
H1127 C1136 0.929 . S
C1128 H1122 0.930 . S
C1128 C1129 1.367 . S
C1128 C1136 1.378 . S
C1129 C1128 1.367 . S
C1129 C1137 1.433 . S
C1130 H1126 0.929 . S
C1130 C1132 1.378 . S
C1130 C1134 1.350 . S
C1131 C1134 1.463 . S
C1131 C1136 1.350 . S
C1131 N1139 1.427 . S
C1132 H1123 0.930 . S
C1132 C1130 1.378 . S
C1132 C1133 1.367 . S
C1133 C1132 1.367 . S
C1133 C1135 1.433 . S
C1134 C1130 1.350 . S
C1134 C1131 1.463 . S
C1134 N1138 1.427 . S
C1135 H1125 0.929 . S
C1135 C1133 1.433 . S
C1135 N1138 1.384 . S
C1136 H1127 0.929 . S
C1136 C1128 1.378 . S
C1136 C1131 1.350 . S
C1137 H1124 0.929 . S
C1137 C1129 1.433 . S
C1137 N1139 1.384 . S
N1138 C1134 1.427 . S
N1138 C1135 1.384 . S
N1139 C1131 1.427 . S
N1139 C1137 1.384 . S
H1140 C1146 0.930 . S
H1141 C1150 0.930 . S
H1142 C1155 0.929 . S
H1143 C1153 0.929 . S
H1144 C1148 0.929 . S
H1145 C1154 0.929 . S
C1146 H1140 0.930 . S
C1146 C1147 1.367 1_565 S
C1146 C1154 1.378 . S
C1147 C1146 1.367 1_545 S
C1147 C1155 1.433 . S
C1148 H1144 0.929 . S
C1148 C1150 1.378 . S
C1148 C1152 1.350 . S
C1149 C1152 1.463 1_455 S
C1149 C1154 1.350 1_545 S
C1149 N1157 1.427 . S
C1150 H1141 0.930 . S
C1150 C1148 1.378 . S
C1150 C1151 1.367 . S
C1151 C1150 1.367 . S
C1151 C1153 1.433 1_545 S
C1152 C1148 1.350 . S
C1152 C1149 1.463 1_655 S
C1152 N1156 1.427 1_545 S
C1153 H1143 0.929 . S
C1153 C1151 1.433 1_565 S
C1153 N1156 1.384 . S
C1154 H1145 0.929 . S
C1154 C1146 1.378 . S
C1154 C1149 1.350 1_565 S
C1155 H1142 0.929 . S
C1155 C1147 1.433 . S
C1155 N1157 1.384 . S
N1156 C1152 1.427 1_565 S
N1156 C1153 1.384 . S
N1157 C1149 1.427 . S
N1157 C1155 1.384 . S
H1158 C1164 0.930 . S
H1159 C1168 0.930 . S
H1160 C1173 0.929 . S
H1161 C1171 0.929 . S
H1162 C1166 0.929 . S
H1163 C1172 0.929 . S
C1164 H1158 0.930 . S
C1164 C1165 1.367 . S
C1164 C1172 1.378 . S
C1165 C1164 1.367 . S
C1165 C1173 1.433 . S
C1166 H1162 0.929 . S
C1166 C1168 1.378 . S
C1166 C1170 1.350 . S
C1167 C1170 1.463 . S
C1167 C1172 1.350 . S
C1167 N1175 1.427 . S
C1168 H1159 0.930 . S
C1168 C1166 1.378 . S
C1168 C1169 1.367 . S
C1169 C1168 1.367 . S
C1169 C1171 1.433 . S
C1170 C1166 1.350 . S
C1170 C1167 1.463 . S
C1170 N1174 1.427 . S
C1171 H1161 0.929 . S
C1171 C1169 1.433 . S
C1171 N1174 1.384 . S
C1172 H1163 0.929 . S
C1172 C1164 1.378 . S
C1172 C1167 1.350 . S
C1173 H1160 0.929 . S
C1173 C1165 1.433 . S
C1173 N1175 1.384 . S
N1174 C1170 1.427 . S
N1174 C1171 1.384 . S
N1175 C1167 1.427 . S
N1175 C1173 1.384 . S
H1176 C1182 0.930 . S
H1177 C1186 0.930 . S
H1178 C1191 0.929 . S
H1179 C1189 0.929 . S
H1180 C1184 0.929 . S
H1181 C1190 0.929 . S
C1182 H1176 0.930 . S
C1182 C1183 1.367 . S
C1182 C1190 1.378 . S
C1183 C1182 1.367 . S
C1183 C1191 1.433 . S
C1184 H1180 0.929 . S
C1184 C1186 1.378 . S
C1184 C1188 1.350 . S
C1185 C1188 1.463 . S
C1185 C1190 1.350 . S
C1185 N1193 1.427 . S
C1186 H1177 0.930 . S
C1186 C1184 1.378 . S
C1186 C1187 1.367 . S
C1187 C1186 1.367 . S
C1187 C1189 1.433 . S
C1188 C1184 1.350 . S
C1188 C1185 1.463 . S
C1188 N1192 1.427 . S
C1189 H1179 0.929 . S
C1189 C1187 1.433 . S
C1189 N1192 1.384 . S
C1190 H1181 0.929 . S
C1190 C1182 1.378 . S
C1190 C1185 1.350 . S
C1191 H1178 0.929 . S
C1191 C1183 1.433 . S
C1191 N1193 1.384 . S
N1192 C1188 1.427 . S
N1192 C1189 1.384 . S
N1193 C1185 1.427 . S
N1193 C1191 1.384 . S
H1194 C1200 0.930 . S
H1195 C1204 0.930 . S
H1196 C1209 0.929 . S
H1197 C1207 0.929 . S
H1198 C1202 0.929 . S
H1199 C1208 0.929 . S
C1200 H1194 0.930 . S
C1200 C1201 1.367 . S
C1200 C1208 1.378 . S
C1201 C1200 1.367 . S
C1201 C1209 1.433 . S
C1202 H1198 0.929 . S
C1202 C1204 1.378 . S
C1202 C1206 1.350 . S
C1203 C1206 1.463 . S
C1203 C1208 1.350 . S
C1203 N1211 1.427 . S
C1204 H1195 0.930 . S
C1204 C1202 1.378 . S
C1204 C1205 1.367 . S
C1205 C1204 1.367 . S
C1205 C1207 1.433 . S
C1206 C1202 1.350 . S
C1206 C1203 1.463 . S
C1206 N1210 1.427 . S
C1207 H1197 0.929 . S
C1207 C1205 1.433 . S
C1207 N1210 1.384 . S
C1208 H1199 0.929 . S
C1208 C1200 1.378 . S
C1208 C1203 1.350 . S
C1209 H1196 0.929 . S
C1209 C1201 1.433 . S
C1209 N1211 1.384 . S
N1210 C1206 1.427 . S
N1210 C1207 1.384 . S
N1211 C1203 1.427 . S
N1211 C1209 1.384 . S
H1212 C1218 0.930 . S
H1213 C1222 0.930 . S
H1214 C1227 0.929 . S
H1215 C1225 0.929 . S
H1216 C1220 0.929 . S
H1217 C1226 0.929 . S
C1218 H1212 0.930 . S
C1218 C1219 1.367 . S
C1218 C1226 1.378 . S
C1219 C1218 1.367 . S
C1219 C1227 1.433 . S
C1220 H1216 0.929 . S
C1220 C1222 1.378 . S
C1220 C1224 1.350 . S
C1221 C1224 1.463 1_655 S
C1221 C1226 1.350 . S
C1221 N1229 1.427 . S
C1222 H1213 0.930 . S
C1222 C1220 1.378 . S
C1222 C1223 1.367 . S
C1223 C1222 1.367 . S
C1223 C1225 1.433 . S
C1224 C1220 1.350 . S
C1224 C1221 1.463 1_455 S
C1224 N1228 1.427 . S
C1225 H1215 0.929 . S
C1225 C1223 1.433 . S
C1225 N1228 1.384 . S
C1226 H1217 0.929 . S
C1226 C1218 1.378 . S
C1226 C1221 1.350 . S
C1227 H1214 0.929 . S
C1227 C1219 1.433 . S
C1227 N1229 1.384 . S
N1228 C1224 1.427 . S
N1228 C1225 1.384 . S
N1229 C1221 1.427 . S
N1229 C1227 1.384 . S
H1230 C1236 0.930 . S
H1231 C1240 0.930 . S
H1232 C1245 0.929 . S
H1233 C1243 0.929 . S
H1234 C1238 0.929 . S
H1235 C1244 0.929 . S
C1236 H1230 0.930 . S
C1236 C1237 1.367 . S
C1236 C1244 1.378 . S
C1237 C1236 1.367 . S
C1237 C1245 1.433 1_554 S
C1238 H1234 0.929 . S
C1238 C1240 1.378 . S
C1238 C1242 1.350 1_556 S
C1239 C1242 1.463 . S
C1239 C1244 1.350 . S
C1239 N1247 1.427 1_554 S
C1240 H1231 0.930 . S
C1240 C1238 1.378 . S
C1240 C1241 1.365 1_556 S
C1241 C1240 1.365 1_554 S
C1241 C1243 1.435 . S
C1242 C1238 1.350 1_554 S
C1242 C1239 1.463 . S
C1242 N1246 1.427 . S
C1243 H1233 0.929 . S
C1243 C1241 1.435 . S
C1243 N1246 1.384 . S
C1244 H1235 0.929 . S
C1244 C1236 1.378 . S
C1244 C1239 1.350 . S
C1245 H1232 0.929 . S
C1245 C1237 1.433 1_556 S
C1245 N1247 1.384 . S
N1246 C1242 1.427 . S
N1246 C1243 1.384 . S
N1247 C1239 1.427 1_556 S
N1247 C1245 1.384 . S
C535 N5 1.415 . S
C539 N14 1.403 1_545 S
C553 N38 1.424 1_556 S
C557 N47 1.418 . S
C571 N80 1.419 1_545 S
C575 N71 1.429 . S
C589 N113 1.411 . S
C593 N104 1.416 1_554 S
C607 N146 1.413 . S
C611 N137 1.418 1_545 S
C625 N179 1.417 . S
C629 N170 1.423 1_554 S
C643 N203 1.423 1_545 S
C647 N212 1.417 . S
C661 N245 1.407 . S
C665 N236 1.413 1_556 S
C679 N269 1.419 . S
C683 N278 1.413 . S
C697 N302 1.423 . S
C701 N311 1.417 1_554 S
C715 N344 1.426 . S
C719 N335 1.430 . S
C733 N368 1.421 . S
C737 N377 1.417 1_556 S
C751 N401 1.421 . S
C755 N410 1.417 . S
C769 N443 1.418 1_556 S
C773 N434 1.423 . S
C787 N467 1.430 . S
C791 N476 1.426 . S
C805 N509 1.417 1_554 S
C809 N500 1.421 . S
C823 C8 1.348 . S
C827 C61 1.344 . S
C841 C74 1.430 . S
C845 C41 1.432 . S
C859 C107 1.348 . S
C863 C94 1.347 . S
C877 C28 1.264 . S
C881 C127 1.260 . S
C895 C193 1.348 . S
C899 C140 1.348 . S
C913 C173 1.428 . S
C917 C206 1.429 . S
C931 C226 1.341 . S
C935 C239 1.351 . S
C949 C259 1.266 . S
C953 C160 1.259 . S
C967 C325 1.343 . S
C971 C272 1.348 . S
C985 C305 1.431 . S
C989 C338 1.431 . S
C1003 C358 1.341 . S
C1007 C371 1.353 . S
C1021 C391 1.267 . S
C1025 C292 1.258 . S
C1039 C404 1.347 . S
C1043 C457 1.349 . S
C1057 C437 1.430 . S
C1061 C470 1.432 . S
C1075 C503 1.348 . S
C1079 C490 1.344 . S
C1093 C424 1.259 . S
C1097 C523 1.266 . S
C1111 C17 1.203 . S
C1115 C149 1.203 . S
C1129 C446 1.270 . S
C1133 C50 1.270 . S
C1147 C83 1.270 . S
C1151 C215 1.270 . S
C1165 C512 1.206 . S
C1169 C116 1.206 . S
C1183 C314 1.273 . S
C1187 C182 1.273 . S
C1201 C248 1.202 . S
C1205 C380 1.202 . S
C1219 C281 1.202 . S
C1223 C413 1.202 . S
C1237 C479 1.272 . S
C1241 C347 1.272 . S
