# Generated by pormake.
# Topology wgi, (5)-cn, num edge types: 1
# Building blocks:
#     Node 0, Type 0, BuildingBlock: XOMCOT_clean_sbu_1, # of connection points: 5
#     Node 1, Type 0, BuildingBlock: XOMCOT_clean_sbu_1, # of connection points: 5
#     Node 2, Type 0, BuildingBlock: XOMCOT_clean_sbu_1, # of connection points: 5
#     Node 3, Type 0, BuildingBlock: XOMCOT_clean_sbu_1, # of connection points: 5
#     Node 4, Type 0, BuildingBlock: XOMCOT_clean_sbu_1, # of connection points: 5
#     Node 5, Type 0, BuildingBlock: XOMCOT_clean_sbu_1, # of connection points: 5
#     Node 6, Type 0, BuildingBlock: XOMCOT_clean_sbu_1, # of connection points: 5
#     Node 7, Type 0, BuildingBlock: XOMCOT_clean_sbu_1, # of connection points: 5
#     Node 8, Type 0, BuildingBlock: XOMCOT_clean_sbu_1, # of connection points: 5
#     Node 9, Type 0, BuildingBlock: XOMCOT_clean_sbu_1, # of connection points: 5
#     Node 10, Type 0, BuildingBlock: XOMCOT_clean_sbu_1, # of connection points: 5
#     Node 11, Type 0, BuildingBlock: XOMCOT_clean_sbu_1, # of connection points: 5
#     Node 12, Type 0, BuildingBlock: XOMCOT_clean_sbu_1, # of connection points: 5
#     Node 13, Type 0, BuildingBlock: XOMCOT_clean_sbu_1, # of connection points: 5
#     Node 14, Type 0, BuildingBlock: XOMCOT_clean_sbu_1, # of connection points: 5
#     Node 15, Type 0, BuildingBlock: XOMCOT_clean_sbu_1, # of connection points: 5
#     Node 16, Type 0, BuildingBlock: XOMCOT_clean_sbu_1, # of connection points: 5
#     Node 17, Type 0, BuildingBlock: XOMCOT_clean_sbu_1, # of connection points: 5
#     Node 18, Type 0, BuildingBlock: XOMCOT_clean_sbu_1, # of connection points: 5
#     Node 19, Type 0, BuildingBlock: XOMCOT_clean_sbu_1, # of connection points: 5
#     Node 20, Type 0, BuildingBlock: XOMCOT_clean_sbu_1, # of connection points: 5
#     Node 21, Type 0, BuildingBlock: XOMCOT_clean_sbu_1, # of connection points: 5
#     Node 22, Type 0, BuildingBlock: XOMCOT_clean_sbu_1, # of connection points: 5
#     Node 23, Type 0, BuildingBlock: XOMCOT_clean_sbu_1, # of connection points: 5
#     Node 24, Type 0, BuildingBlock: XOMCOT_clean_sbu_1, # of connection points: 5
#     Node 25, Type 0, BuildingBlock: XOMCOT_clean_sbu_1, # of connection points: 5
#     Node 26, Type 0, BuildingBlock: XOMCOT_clean_sbu_1, # of connection points: 5
#     Node 27, Type 0, BuildingBlock: XOMCOT_clean_sbu_1, # of connection points: 5
#     Node 28, Type 0, BuildingBlock: XOMCOT_clean_sbu_1, # of connection points: 5
#     Node 29, Type 0, BuildingBlock: XOMCOT_clean_sbu_1, # of connection points: 5
#     Node 30, Type 0, BuildingBlock: XOMCOT_clean_sbu_1, # of connection points: 5
#     Node 31, Type 0, BuildingBlock: XOMCOT_clean_sbu_1, # of connection points: 5
#     Edge 32, Type (0, 0), BuildingBlock: UVAHIK_clean_linker_0, # of connection points: 2
#     Edge 33, Type (0, 0), BuildingBlock: UVAHIK_clean_linker_0, # of connection points: 2
#     Edge 34, Type (0, 0), BuildingBlock: UVAHIK_clean_linker_0, # of connection points: 2
#     Edge 35, Type (0, 0), BuildingBlock: UVAHIK_clean_linker_0, # of connection points: 2
#     Edge 36, Type (0, 0), BuildingBlock: UVAHIK_clean_linker_0, # of connection points: 2
#     Edge 37, Type (0, 0), BuildingBlock: UVAHIK_clean_linker_0, # of connection points: 2
#     Edge 38, Type (0, 0), BuildingBlock: UVAHIK_clean_linker_0, # of connection points: 2
#     Edge 39, Type (0, 0), BuildingBlock: UVAHIK_clean_linker_0, # of connection points: 2
#     Edge 40, Type (0, 0), BuildingBlock: UVAHIK_clean_linker_0, # of connection points: 2
#     Edge 41, Type (0, 0), BuildingBlock: UVAHIK_clean_linker_0, # of connection points: 2
#     Edge 42, Type (0, 0), BuildingBlock: UVAHIK_clean_linker_0, # of connection points: 2
#     Edge 43, Type (0, 0), BuildingBlock: UVAHIK_clean_linker_0, # of connection points: 2
#     Edge 44, Type (0, 0), BuildingBlock: UVAHIK_clean_linker_0, # of connection points: 2
#     Edge 45, Type (0, 0), BuildingBlock: UVAHIK_clean_linker_0, # of connection points: 2
#     Edge 46, Type (0, 0), BuildingBlock: UVAHIK_clean_linker_0, # of connection points: 2
#     Edge 47, Type (0, 0), BuildingBlock: UVAHIK_clean_linker_0, # of connection points: 2
#     Edge 48, Type (0, 0), BuildingBlock: UVAHIK_clean_linker_0, # of connection points: 2
#     Edge 49, Type (0, 0), BuildingBlock: UVAHIK_clean_linker_0, # of connection points: 2
#     Edge 50, Type (0, 0), BuildingBlock: UVAHIK_clean_linker_0, # of connection points: 2
#     Edge 51, Type (0, 0), BuildingBlock: UVAHIK_clean_linker_0, # of connection points: 2
#     Edge 52, Type (0, 0), BuildingBlock: UVAHIK_clean_linker_0, # of connection points: 2
#     Edge 53, Type (0, 0), BuildingBlock: UVAHIK_clean_linker_0, # of connection points: 2
#     Edge 54, Type (0, 0), BuildingBlock: UVAHIK_clean_linker_0, # of connection points: 2
#     Edge 55, Type (0, 0), BuildingBlock: UVAHIK_clean_linker_0, # of connection points: 2
#     Edge 56, Type (0, 0), BuildingBlock: UVAHIK_clean_linker_0, # of connection points: 2
#     Edge 57, Type (0, 0), BuildingBlock: UVAHIK_clean_linker_0, # of connection points: 2
#     Edge 58, Type (0, 0), BuildingBlock: UVAHIK_clean_linker_0, # of connection points: 2
#     Edge 59, Type (0, 0), BuildingBlock: UVAHIK_clean_linker_0, # of connection points: 2
#     Edge 60, Type (0, 0), BuildingBlock: UVAHIK_clean_linker_0, # of connection points: 2
#     Edge 61, Type (0, 0), BuildingBlock: UVAHIK_clean_linker_0, # of connection points: 2
#     Edge 62, Type (0, 0), BuildingBlock: UVAHIK_clean_linker_0, # of connection points: 2
#     Edge 63, Type (0, 0), BuildingBlock: UVAHIK_clean_linker_0, # of connection points: 2
#     Edge 64, Type (0, 0), BuildingBlock: UVAHIK_clean_linker_0, # of connection points: 2
#     Edge 65, Type (0, 0), BuildingBlock: UVAHIK_clean_linker_0, # of connection points: 2
#     Edge 66, Type (0, 0), BuildingBlock: UVAHIK_clean_linker_0, # of connection points: 2
#     Edge 67, Type (0, 0), BuildingBlock: UVAHIK_clean_linker_0, # of connection points: 2
#     Edge 68, Type (0, 0), BuildingBlock: UVAHIK_clean_linker_0, # of connection points: 2
#     Edge 69, Type (0, 0), BuildingBlock: UVAHIK_clean_linker_0, # of connection points: 2
#     Edge 70, Type (0, 0), BuildingBlock: UVAHIK_clean_linker_0, # of connection points: 2
#     Edge 71, Type (0, 0), BuildingBlock: UVAHIK_clean_linker_0, # of connection points: 2
#     Edge 72, Type (0, 0), BuildingBlock: UVAHIK_clean_linker_0, # of connection points: 2
#     Edge 73, Type (0, 0), BuildingBlock: UVAHIK_clean_linker_0, # of connection points: 2
#     Edge 74, Type (0, 0), BuildingBlock: UVAHIK_clean_linker_0, # of connection points: 2
#     Edge 75, Type (0, 0), BuildingBlock: UVAHIK_clean_linker_0, # of connection points: 2
#     Edge 76, Type (0, 0), BuildingBlock: UVAHIK_clean_linker_0, # of connection points: 2
#     Edge 77, Type (0, 0), BuildingBlock: UVAHIK_clean_linker_0, # of connection points: 2
#     Edge 78, Type (0, 0), BuildingBlock: UVAHIK_clean_linker_0, # of connection points: 2
#     Edge 79, Type (0, 0), BuildingBlock: UVAHIK_clean_linker_0, # of connection points: 2
#     Edge 80, Type (0, 0), BuildingBlock: UVAHIK_clean_linker_0, # of connection points: 2
#     Edge 81, Type (0, 0), BuildingBlock: UVAHIK_clean_linker_0, # of connection points: 2
#     Edge 82, Type (0, 0), BuildingBlock: UVAHIK_clean_linker_0, # of connection points: 2
#     Edge 83, Type (0, 0), BuildingBlock: UVAHIK_clean_linker_0, # of connection points: 2
#     Edge 84, Type (0, 0), BuildingBlock: UVAHIK_clean_linker_0, # of connection points: 2
#     Edge 85, Type (0, 0), BuildingBlock: UVAHIK_clean_linker_0, # of connection points: 2
#     Edge 86, Type (0, 0), BuildingBlock: UVAHIK_clean_linker_0, # of connection points: 2
#     Edge 87, Type (0, 0), BuildingBlock: UVAHIK_clean_linker_0, # of connection points: 2
#     Edge 88, Type (0, 0), BuildingBlock: UVAHIK_clean_linker_0, # of connection points: 2
#     Edge 89, Type (0, 0), BuildingBlock: UVAHIK_clean_linker_0, # of connection points: 2
#     Edge 90, Type (0, 0), BuildingBlock: UVAHIK_clean_linker_0, # of connection points: 2
#     Edge 91, Type (0, 0), BuildingBlock: UVAHIK_clean_linker_0, # of connection points: 2
#     Edge 92, Type (0, 0), BuildingBlock: UVAHIK_clean_linker_0, # of connection points: 2
#     Edge 93, Type (0, 0), BuildingBlock: UVAHIK_clean_linker_0, # of connection points: 2
#     Edge 94, Type (0, 0), BuildingBlock: UVAHIK_clean_linker_0, # of connection points: 2
#     Edge 95, Type (0, 0), BuildingBlock: UVAHIK_clean_linker_0, # of connection points: 2
#     Edge 96, Type (0, 0), BuildingBlock: UVAHIK_clean_linker_0, # of connection points: 2
#     Edge 97, Type (0, 0), BuildingBlock: UVAHIK_clean_linker_0, # of connection points: 2
#     Edge 98, Type (0, 0), BuildingBlock: UVAHIK_clean_linker_0, # of connection points: 2
#     Edge 99, Type (0, 0), BuildingBlock: UVAHIK_clean_linker_0, # of connection points: 2
#     Edge 100, Type (0, 0), BuildingBlock: UVAHIK_clean_linker_0, # of connection points: 2
#     Edge 101, Type (0, 0), BuildingBlock: UVAHIK_clean_linker_0, # of connection points: 2
#     Edge 102, Type (0, 0), BuildingBlock: UVAHIK_clean_linker_0, # of connection points: 2
#     Edge 103, Type (0, 0), BuildingBlock: UVAHIK_clean_linker_0, # of connection points: 2
#     Edge 104, Type (0, 0), BuildingBlock: UVAHIK_clean_linker_0, # of connection points: 2
#     Edge 105, Type (0, 0), BuildingBlock: UVAHIK_clean_linker_0, # of connection points: 2
#     Edge 106, Type (0, 0), BuildingBlock: UVAHIK_clean_linker_0, # of connection points: 2
#     Edge 107, Type (0, 0), BuildingBlock: UVAHIK_clean_linker_0, # of connection points: 2
#     Edge 108, Type (0, 0), BuildingBlock: UVAHIK_clean_linker_0, # of connection points: 2
#     Edge 109, Type (0, 0), BuildingBlock: UVAHIK_clean_linker_0, # of connection points: 2
#     Edge 110, Type (0, 0), BuildingBlock: UVAHIK_clean_linker_0, # of connection points: 2
#     Edge 111, Type (0, 0), BuildingBlock: UVAHIK_clean_linker_0, # of connection points: 2
# Relax obj value: 0.194
# Max RMSD: 0.150
# Mean RMSD: 0.150
data_MOF--net-wgi--node1-XOMCOT_clean_sbu_1--edge1-UVAHIK_clean_linker_0
_symmetry_space_group_name_H-M    P1
_symmetry_Int_Tables_number       1
_symmetry_cell_setting            triclinic
loop_
_symmetry_equiv_pos_as_xyz
'x, y, z'
_cell_length_a     94.071174
_cell_length_b     94.101592
_cell_length_c     35.229224
_cell_angle_alpha  90.016399
_cell_angle_beta   89.990767
_cell_angle_gamma 89.999976
loop_
_atom_site_label
_atom_site_type_symbol
_atom_site_fract_x
_atom_site_fract_y
_atom_site_fract_z
_atom_type_partial_charge
C0 C 0.11685 0.17265 0.41028 0.0
C1 C 0.1025 0.17086 0.4155 0.0
N2 N 0.09845 0.15899 0.39698 0.0
N3 N 0.1218 0.16208 0.38815 0.0
C4 C 0.1104 0.15385 0.38067 0.0
H5 H 0.12337 0.18089 0.42274 0.0
Co6 Co 0.14081 0.15902 0.37774 0.0
C7 C 0.14161 0.1539 0.29532 0.0
O8 O 0.15186 0.1634 0.2945 0.0
N9 N 0.16037 0.15545 0.36976 0.0
C10 C 0.18082 0.14435 0.35704 0.0
C11 C 0.16667 0.14548 0.34769 0.0
C12 C 0.17084 0.15956 0.39367 0.0
N13 N 0.18334 0.15316 0.38624 0.0
O14 O 0.13943 0.14101 0.4029 0.0
H15 H 0.16122 0.13845 0.32833 0.0
H16 H 0.16915 0.1662 0.41823 0.0
O17 O 0.13597 0.15057 0.32734 0.0
C18 C 0.14271 0.14294 0.43767 0.0
O19 O 0.14639 0.15574 0.44881 0.0
N20 N 0.14183 0.17764 0.35668 0.0
C21 C 0.13892 0.20672 0.34163 0.0
C22 C 0.13044 0.19673 0.32273 0.0
C23 C 0.13191 0.18229 0.33104 0.0
C24 C 0.15031 0.18727 0.37468 0.0
C25 C 0.14923 0.20177 0.36707 0.0
H26 H 0.12433 0.17496 0.31886 0.0
H27 H 0.15715 0.18405 0.39741 0.0
H28 H 0.11095 0.14412 0.36438 0.0
H29 H 0.09571 0.17745 0.43297 0.0
H30 H 0.18834 0.13676 0.34561 0.0
H31 H 0.12203 0.20008 0.30374 0.0
H32 H 0.15593 0.20911 0.38261 0.0
C33 C 0.06911 0.86656 0.67402 0.0
C34 C 0.07159 0.85245 0.68173 0.0
N35 N 0.08483 0.84921 0.66994 0.0
N36 N 0.08068 0.87212 0.65706 0.0
C37 C 0.0901 0.86135 0.65509 0.0
H38 H 0.05963 0.87249 0.68116 0.0
Co39 Co 0.08343 0.89099 0.64427 0.0
C40 C 0.10588 0.88926 0.58566 0.0
O41 O 0.11372 0.89836 0.60469 0.0
N42 N 0.08607 0.91008 0.63212 0.0
C43 C 0.08722 0.93105 0.60315 0.0
C44 C 0.08545 0.91662 0.59805 0.0
C45 C 0.08805 0.92068 0.65731 0.0
N46 N 0.08891 0.93351 0.64055 0.0
O47 O 0.10025 0.8911 0.67526 0.0
H48 H 0.08357 0.91128 0.57132 0.0
H49 H 0.08826 0.91913 0.68764 0.0
O50 O 0.09393 0.88532 0.59914 0.0
C51 C 0.09671 0.89303 0.70983 0.0
O52 O 0.08322 0.89497 0.71806 0.0
N53 N 0.06639 0.89085 0.6173 0.0
C54 C 0.03834 0.88689 0.5944 0.0
C55 C 0.04952 0.87991 0.5756 0.0
C56 C 0.06351 0.88194 0.58771 0.0
C57 C 0.05582 0.89847 0.63414 0.0
C58 C 0.04171 0.89669 0.62305 0.0
H59 H 0.07179 0.87556 0.57515 0.0
H60 H 0.05826 0.90518 0.6582 0.0
H61 H 0.10069 0.86246 0.64345 0.0
H62 H 0.06438 0.84528 0.69608 0.0
H63 H 0.08715 0.93906 0.58114 0.0
H64 H 0.04741 0.87234 0.55314 0.0
H65 H 0.03347 0.90214 0.63881 0.0
C66 C 0.38083 0.8202 0.92752 0.0
C67 C 0.39499 0.82301 0.93328 0.0
N68 N 0.39808 0.83557 0.91684 0.0
N69 N 0.37506 0.83083 0.90704 0.0
C70 C 0.38578 0.8401 0.90118 0.0
H71 H 0.37498 0.81118 0.93838 0.0
Co72 Co 0.35594 0.83266 0.89588 0.0
C73 C 0.35515 0.83894 0.81406 0.0
O74 O 0.34524 0.82911 0.81206 0.0
N75 N 0.33625 0.83494 0.88697 0.0
C76 C 0.3155 0.84558 0.87514 0.0
C77 C 0.32977 0.84537 0.86691 0.0
C78 C 0.32568 0.82952 0.90864 0.0
N79 N 0.31301 0.83568 0.90173 0.0
O80 O 0.3558 0.85035 0.92293 0.0
H81 H 0.33517 0.85333 0.85015 0.0
H82 H 0.3274 0.82222 0.93181 0.0
O83 O 0.36053 0.84208 0.84655 0.0
C84 C 0.35204 0.84776 0.95705 0.0
O85 O 0.34885 0.83464 0.96645 0.0
N86 N 0.35647 0.81438 0.87288 0.0
C87 C 0.36201 0.78594 0.85465 0.0
C88 C 0.36933 0.79697 0.83643 0.0
C89 C 0.36664 0.81104 0.84652 0.0
C90 C 0.34906 0.80375 0.89024 0.0
C91 C 0.35149 0.78951 0.88117 0.0
H92 H 0.37353 0.81915 0.83504 0.0
H93 H 0.34218 0.80604 0.91375 0.0
H94 H 0.3845 0.85009 0.88638 0.0
H95 H 0.40231 0.81658 0.94964 0.0
H96 H 0.30787 0.85336 0.86529 0.0
H97 H 0.37764 0.79473 0.81602 0.0
H98 H 0.34596 0.78135 0.89706 0.0
C99 C 0.42669 0.1257 0.17042 0.0
C100 C 0.42519 0.14008 0.17659 0.0
N101 N 0.41269 0.14423 0.1616 0.0
N102 N 0.41528 0.12092 0.15111 0.0
C103 C 0.40694 0.13242 0.14624 0.0
H104 H 0.43529 0.11909 0.18054 0.0
Co105 Co 0.41061 0.10231 0.1398 0.0
C106 C 0.40386 0.10209 0.05828 0.0
O107 O 0.41155 0.09044 0.0561 0.0
N108 N 0.40524 0.0833 0.12981 0.0
C109 C 0.39051 0.06519 0.11885 0.0
C110 C 0.39272 0.07947 0.11388 0.0
C111 C 0.41018 0.0711 0.14527 0.0
N112 N 0.40147 0.05996 0.13893 0.0
O113 O 0.39291 0.10501 0.16585 0.0
H114 H 0.38507 0.08679 0.10196 0.0
H115 H 0.41899 0.07058 0.16472 0.0
O116 O 0.4024 0.10837 0.0904 0.0
C117 C 0.39361 0.09952 0.1989 0.0
O118 O 0.40508 0.09237 0.20829 0.0
N119 N 0.42886 0.0999 0.11827 0.0
C120 C 0.45813 0.10085 0.10424 0.0
C121 C 0.44863 0.10873 0.0819 0.0
C122 C 0.43409 0.10833 0.08983 0.0
C123 C 0.438 0.09222 0.14015 0.0
C124 C 0.45257 0.09221 0.13302 0.0
H125 H 0.4273 0.11578 0.07523 0.0
H126 H 0.43428 0.08725 0.16579 0.0
H127 H 0.39664 0.13202 0.13261 0.0
H128 H 0.43241 0.14679 0.19244 0.0
H129 H 0.3811 0.05934 0.11056 0.0
H130 H 0.45248 0.11604 0.06048 0.0
H131 H 0.45949 0.08618 0.15155 0.0
C132 C 0.11817 0.82145 0.09728 0.0
C133 C 0.10391 0.82353 0.09112 0.0
N134 N 0.1002 0.83609 0.10659 0.0
N135 N 0.12339 0.83253 0.11712 0.0
C136 C 0.11223 0.84134 0.12217 0.0
H137 H 0.12447 0.81267 0.08679 0.0
Co138 Co 0.14244 0.83565 0.12722 0.0
C139 C 0.14362 0.84124 0.20939 0.0
O140 O 0.15398 0.83186 0.21008 0.0
N141 N 0.16204 0.83927 0.13499 0.0
C142 C 0.18243 0.85052 0.14757 0.0
C143 C 0.16817 0.84969 0.15591 0.0
C144 C 0.17274 0.83461 0.11254 0.0
N145 N 0.1852 0.84107 0.12001 0.0
O146 O 0.14101 0.85359 0.10171 0.0
H147 H 0.16254 0.85709 0.1739 0.0
H148 H 0.17128 0.82751 0.08883 0.0
O149 O 0.13768 0.84428 0.17753 0.0
C150 C 0.14467 0.85186 0.06715 0.0
O151 O 0.14896 0.83924 0.05609 0.0
N152 N 0.14351 0.81711 0.14875 0.0
C153 C 0.14068 0.7881 0.16483 0.0
C154 C 0.13251 0.7982 0.1843 0.0
C155 C 0.13391 0.81261 0.17543 0.0
C156 C 0.15159 0.80736 0.12995 0.0
C157 C 0.1506 0.7929 0.1381 0.0
H158 H 0.12649 0.81999 0.18803 0.0
H159 H 0.15794 0.81044 0.10609 0.0
H160 H 0.11304 0.85159 0.13596 0.0
H161 H 0.09697 0.81666 0.07487 0.0
H162 H 0.18988 0.85825 0.15855 0.0
H163 H 0.12435 0.79496 0.20421 0.0
H164 H 0.157 0.78548 0.12197 0.0
C165 C 0.42614 0.87018 0.34005 0.0
C166 C 0.42456 0.85584 0.33375 0.0
N167 N 0.41234 0.8516 0.35018 0.0
N168 N 0.41507 0.87488 0.36084 0.0
C169 C 0.40681 0.86336 0.36643 0.0
H170 H 0.43455 0.87685 0.32907 0.0
Co171 Co 0.41094 0.89358 0.37255 0.0
C172 C 0.40538 0.89374 0.4547 0.0
O173 O 0.4137 0.90496 0.45594 0.0
N174 N 0.40618 0.91274 0.38265 0.0
C175 C 0.39227 0.93141 0.39465 0.0
C176 C 0.39433 0.91717 0.40095 0.0
C177 C 0.4108 0.9245 0.36438 0.0
N178 N 0.40263 0.93598 0.3714 0.0
O179 O 0.393 0.89142 0.34728 0.0
H180 H 0.38687 0.91027 0.41529 0.0
H181 H 0.41876 0.92441 0.3424 0.0
O182 O 0.40291 0.88775 0.42258 0.0
C183 C 0.39422 0.89633 0.31368 0.0
O184 O 0.4063 0.90225 0.30371 0.0
N185 N 0.42945 0.89546 0.39328 0.0
C186 C 0.45871 0.89419 0.40744 0.0
C187 C 0.44918 0.88588 0.42852 0.0
C188 C 0.43465 0.88645 0.42048 0.0
C189 C 0.43865 0.9035 0.37249 0.0
C190 C 0.45321 0.90333 0.37973 0.0
H191 H 0.42779 0.8788 0.43413 0.0
H192 H 0.43502 0.909 0.34765 0.0
H193 H 0.39674 0.86371 0.38128 0.0
H194 H 0.43153 0.84921 0.3169 0.0
H195 H 0.38329 0.93765 0.40419 0.0
H196 H 0.45298 0.8782 0.44903 0.0
H197 H 0.46018 0.90969 0.36212 0.0
C198 C 0.37577 0.17796 0.58876 0.0
C199 C 0.39018 0.1765 0.58343 0.0
N200 N 0.39436 0.16422 0.59966 0.0
N201 N 0.37094 0.16674 0.60868 0.0
C202 C 0.38245 0.1585 0.61474 0.0
H203 H 0.36915 0.18643 0.57794 0.0
Co204 Co 0.35207 0.16286 0.61901 0.0
C205 C 0.35171 0.15512 0.69989 0.0
O206 O 0.34076 0.16372 0.70328 0.0
N207 N 0.33267 0.15845 0.62707 0.0
C208 C 0.31298 0.14576 0.63731 0.0
C209 C 0.32716 0.14717 0.64588 0.0
C210 C 0.3217 0.16314 0.60563 0.0
N211 N 0.30964 0.15575 0.61167 0.0
O212 O 0.35383 0.14565 0.5904 0.0
H213 H 0.33323 0.13954 0.66203 0.0
H214 H 0.32277 0.17087 0.58321 0.0
O215 O 0.3575 0.15332 0.66722 0.0
C216 C 0.34983 0.14804 0.55642 0.0
O217 O 0.34515 0.16078 0.54769 0.0
N218 N 0.35065 0.18073 0.64395 0.0
C219 C 0.35296 0.20926 0.66566 0.0
C220 C 0.36157 0.19886 0.68241 0.0
C221 C 0.36041 0.18473 0.67078 0.0
C222 C 0.34206 0.19074 0.62792 0.0
C223 C 0.34282 0.20496 0.63888 0.0
H224 H 0.36816 0.17724 0.6813 0.0
H225 H 0.33541 0.18811 0.60423 0.0
H226 H 0.38202 0.14838 0.62926 0.0
H227 H 0.39692 0.18366 0.5675 0.0
H228 H 0.30605 0.13721 0.6463 0.0
H229 H 0.36989 0.20174 0.70221 0.0
H230 H 0.33606 0.21265 0.62483 0.0
C231 C 0.06696 0.12887 0.83023 0.0
C232 C 0.06898 0.1432 0.82506 0.0
N233 N 0.08168 0.14677 0.84009 0.0
N234 N 0.07825 0.12347 0.84876 0.0
C235 C 0.08708 0.13457 0.85421 0.0
H236 H 0.05796 0.1227 0.82053 0.0
Co237 Co 0.08116 0.10447 0.85973 0.0
C238 C 0.10316 0.10605 0.9195 0.0
O239 O 0.11153 0.09774 0.8995 0.0
N240 N 0.08399 0.08523 0.86974 0.0
C241 C 0.08548 0.06366 0.89521 0.0
C242 C 0.08418 0.07799 0.90283 0.0
C243 C 0.08497 0.07516 0.84271 0.0
N244 N 0.08588 0.06196 0.85725 0.0
O245 O 0.09828 0.10502 0.82994 0.0
H246 H 0.08302 0.08276 0.9306 0.0
H247 H 0.08477 0.07743 0.81271 0.0
O248 O 0.09106 0.1096 0.90625 0.0
C249 C 0.09509 0.10374 0.79491 0.0
O250 O 0.08168 0.10222 0.78536 0.0
N251 N 0.06384 0.10394 0.88559 0.0
C252 C 0.03545 0.10651 0.90729 0.0
C253 C 0.04603 0.11482 0.92467 0.0
C254 C 0.06021 0.11336 0.91345 0.0
C255 C 0.05386 0.09526 0.86989 0.0
C256 C 0.03966 0.09619 0.88079 0.0
H257 H 0.06803 0.12059 0.92489 0.0
H258 H 0.05679 0.08813 0.84713 0.0
H259 H 0.09732 0.13367 0.86799 0.0
H260 H 0.06184 0.15034 0.81036 0.0
H261 H 0.08557 0.05516 0.91589 0.0
H262 H 0.04331 0.12308 0.94481 0.0
H263 H 0.03197 0.08933 0.86713 0.0
C264 C 0.87674 0.82139 0.59235 0.0
C265 C 0.89114 0.82292 0.58748 0.0
N266 N 0.8953 0.83485 0.60551 0.0
N267 N 0.87187 0.83219 0.61381 0.0
C268 C 0.88337 0.8403 0.62118 0.0
H269 H 0.87014 0.81315 0.5802 0.0
Co270 Co 0.85288 0.83547 0.62392 0.0
C271 C 0.8519 0.84106 0.70612 0.0
O272 O 0.84147 0.83176 0.70693 0.0
N273 N 0.83331 0.83922 0.63159 0.0
C274 C 0.81292 0.8505 0.64387 0.0
C275 C 0.82711 0.8495 0.65286 0.0
C276 C 0.82274 0.83481 0.60839 0.0
N277 N 0.81027 0.8413 0.61562 0.0
O278 O 0.85442 0.85333 0.59804 0.0
H279 H 0.83267 0.85672 0.67149 0.0
H280 H 0.82432 0.82785 0.58441 0.0
O281 O 0.85772 0.84415 0.67413 0.0
C282 C 0.851 0.85135 0.56339 0.0
O283 O 0.847 0.83859 0.55268 0.0
N284 N 0.85171 0.81698 0.64577 0.0
C285 C 0.8544 0.78801 0.66265 0.0
C286 C 0.86284 0.79812 0.68122 0.0
C287 C 0.86149 0.81249 0.67197 0.0
C288 C 0.84331 0.80722 0.62794 0.0
C289 C 0.84427 0.79278 0.63646 0.0
H290 H 0.86907 0.81986 0.68393 0.0
H291 H 0.83665 0.81028 0.60466 0.0
H292 H 0.88292 0.85015 0.63704 0.0
H293 H 0.89791 0.81608 0.57064 0.0
H294 H 0.80544 0.85821 0.65491 0.0
H295 H 0.87114 0.7949 0.7007 0.0
H296 H 0.83764 0.78535 0.62107 0.0
C297 C 0.92503 0.12759 0.34411 0.0
C298 C 0.92299 0.14194 0.33904 0.0
N299 N 0.91014 0.14541 0.35322 0.0
N300 N 0.91361 0.12209 0.36188 0.0
C301 C 0.9047 0.13316 0.36695 0.0
H302 H 0.93401 0.12148 0.3341 0.0
Co303 Co 0.90986 0.10306 0.37031 0.0
C304 C 0.90062 0.10114 0.4502 0.0
O305 O 0.9085 0.08964 0.453 0.0
N306 N 0.90556 0.08359 0.37689 0.0
C307 C 0.89169 0.06443 0.38079 0.0
C308 C 0.89295 0.07858 0.38959 0.0
C309 C 0.91156 0.07225 0.35949 0.0
N310 N 0.90334 0.0605 0.36135 0.0
O311 O 0.89272 0.10502 0.34134 0.0
H312 H 0.88454 0.08508 0.40127 0.0
H313 H 0.92103 0.07284 0.34243 0.0
O314 O 0.89999 0.10783 0.4185 0.0
C315 C 0.89468 0.10025 0.30786 0.0
O316 O 0.907 0.09448 0.29944 0.0
N317 N 0.9276 0.10146 0.39514 0.0
C318 C 0.95628 0.10487 0.41421 0.0
C319 C 0.94557 0.11103 0.43647 0.0
C320 C 0.93134 0.10949 0.42596 0.0
C321 C 0.93791 0.09516 0.37375 0.0
C322 C 0.95226 0.09649 0.38314 0.0
H323 H 0.92361 0.11591 0.44065 0.0
H324 H 0.93526 0.09054 0.34674 0.0
H325 H 0.89425 0.13214 0.37946 0.0
H326 H 0.93012 0.1491 0.32436 0.0
H327 H 0.88229 0.05797 0.3849 0.0
H328 H 0.94819 0.11781 0.4603 0.0
H329 H 0.96015 0.0921 0.36405 0.0
C330 C 0.61581 0.17299 0.10065 0.0
C331 C 0.60159 0.17038 0.09509 0.0
N332 N 0.59838 0.1578 0.11125 0.0
N333 N 0.62149 0.16221 0.12072 0.0
C334 C 0.61066 0.15308 0.12663 0.0
H335 H 0.62176 0.18189 0.08951 0.0
Co336 Co 0.64063 0.15963 0.13013 0.0
C337 C 0.64239 0.15358 0.21206 0.0
O338 O 0.65262 0.1631 0.21286 0.0
N339 N 0.66032 0.15654 0.13737 0.0
C340 C 0.68077 0.14516 0.14803 0.0
C341 C 0.66656 0.14582 0.15689 0.0
C342 C 0.67093 0.16167 0.11535 0.0
N343 N 0.68342 0.15507 0.12158 0.0
O344 O 0.6396 0.14174 0.10417 0.0
H345 H 0.661 0.13805 0.17387 0.0
H346 H 0.66935 0.1691 0.09245 0.0
O347 O 0.63631 0.1507 0.18029 0.0
C348 C 0.64329 0.14359 0.06967 0.0
O349 O 0.64746 0.15628 0.05889 0.0
N350 N 0.64124 0.17811 0.15194 0.0
C351 C 0.63711 0.207 0.16768 0.0
C352 C 0.62992 0.19653 0.1885 0.0
C353 C 0.63189 0.1822 0.17968 0.0
C354 C 0.64845 0.1882 0.1319 0.0
C355 C 0.64675 0.20264 0.13971 0.0
H356 H 0.62504 0.17453 0.19324 0.0
H357 H 0.65443 0.18532 0.10714 0.0
H358 H 0.6119 0.14296 0.14085 0.0
H359 H 0.59436 0.1769 0.07872 0.0
H360 H 0.68823 0.13715 0.1575 0.0
H361 H 0.62221 0.1994 0.21001 0.0
H362 H 0.65206 0.21032 0.12175 0.0
C363 C 0.56868 0.87048 0.83303 0.0
C364 C 0.56998 0.85608 0.8274 0.0
N365 N 0.58242 0.85181 0.8426 0.0
N366 N 0.58017 0.87521 0.85202 0.0
C367 C 0.5884 0.86364 0.85727 0.0
H368 H 0.56004 0.87714 0.82338 0.0
Co369 Co 0.58404 0.89391 0.86407 0.0
C370 C 0.60566 0.89141 0.92424 0.0
O371 O 0.61409 0.89988 0.90494 0.0
N372 N 0.58783 0.9129 0.87548 0.0
C373 C 0.58925 0.93408 0.90325 0.0
C374 C 0.5867 0.91981 0.90896 0.0
C375 C 0.59102 0.92311 0.85007 0.0
N376 N 0.59202 0.93605 0.86613 0.0
O377 O 0.60118 0.89263 0.83446 0.0
H378 H 0.58379 0.91485 0.93555 0.0
H379 H 0.59188 0.92129 0.81991 0.0
O380 O 0.59361 0.88797 0.91046 0.0
C381 C 0.59813 0.89452 0.79954 0.0
O382 O 0.5849 0.89734 0.79022 0.0
N383 N 0.56671 0.89512 0.88953 0.0
C384 C 0.53815 0.89353 0.90988 0.0
C385 C 0.54838 0.88525 0.92873 0.0
C386 C 0.56266 0.88616 0.91801 0.0
C387 C 0.55709 0.90386 0.87254 0.0
C388 C 0.54277 0.90334 0.88255 0.0
H389 H 0.5702 0.87887 0.93046 0.0
H390 H 0.56041 0.91064 0.84938 0.0
H391 H 0.59861 0.86395 0.87138 0.0
H392 H 0.56253 0.84937 0.81235 0.0
H393 H 0.58886 0.94237 0.92454 0.0
H394 H 0.54527 0.87738 0.94957 0.0
H395 H 0.53528 0.91006 0.86762 0.0
C396 C 0.87587 0.17625 0.9249 0.0
C397 C 0.89005 0.1741 0.93241 0.0
N398 N 0.89418 0.16211 0.91462 0.0
N399 N 0.87113 0.16572 0.90227 0.0
C400 C 0.8825 0.15726 0.89645 0.0
H401 H 0.86927 0.18463 0.93637 0.0
Co402 Co 0.85228 0.16241 0.89059 0.0
C403 C 0.85227 0.15603 0.80882 0.0
O404 O 0.84172 0.16514 0.80584 0.0
N405 N 0.83283 0.15856 0.88124 0.0
C406 C 0.8128 0.14667 0.86877 0.0
C407 C 0.82703 0.14792 0.86045 0.0
C408 C 0.82197 0.163 0.9034 0.0
N409 N 0.80972 0.15611 0.89611 0.0
O410 O 0.85356 0.14467 0.91692 0.0
H411 H 0.83291 0.14052 0.84303 0.0
H412 H 0.82321 0.17015 0.92712 0.0
O413 O 0.85778 0.15355 0.8415 0.0
C414 C 0.8495 0.14644 0.95113 0.0
O415 O 0.84494 0.15903 0.96159 0.0
N416 N 0.85134 0.18073 0.86805 0.0
C417 C 0.85426 0.20963 0.8509 0.0
C418 C 0.86282 0.19946 0.83294 0.0
C419 C 0.86133 0.18511 0.84229 0.0
C420 C 0.84281 0.19054 0.88518 0.0
C421 C 0.84386 0.20494 0.87645 0.0
H422 H 0.86899 0.17769 0.83092 0.0
H423 H 0.83598 0.18755 0.90817 0.0
H424 H 0.882 0.14729 0.8812 0.0
H425 H 0.89671 0.18067 0.95029 0.0
H426 H 0.80565 0.13855 0.85831 0.0
H427 H 0.87131 0.20262 0.81396 0.0
H428 H 0.83711 0.21242 0.89132 0.0
C429 C 0.5673 0.12856 0.67713 0.0
C430 C 0.56932 0.14284 0.68328 0.0
N431 N 0.58207 0.1465 0.66879 0.0
N432 N 0.57865 0.1233 0.65853 0.0
C433 C 0.58751 0.13443 0.65403 0.0
H434 H 0.55825 0.12233 0.68621 0.0
Co435 Co 0.58145 0.10445 0.64614 0.0
C436 C 0.60393 0.1056 0.58762 0.0
O437 O 0.61146 0.09619 0.60649 0.0
N438 N 0.58412 0.0853 0.63437 0.0
C439 C 0.58491 0.06419 0.60595 0.0
C440 C 0.58249 0.07852 0.60083 0.0
C441 C 0.58744 0.07494 0.65922 0.0
N442 N 0.58812 0.06206 0.64274 0.0
O443 O 0.5982 0.10449 0.67751 0.0
H444 H 0.57956 0.08365 0.57449 0.0
H445 H 0.58887 0.07663 0.68926 0.0
O446 O 0.59213 0.10993 0.60119 0.0
C447 C 0.59465 0.1027 0.71214 0.0
O448 O 0.58119 0.10054 0.72032 0.0
N449 N 0.56448 0.1046 0.61875 0.0
C450 C 0.53657 0.10922 0.59544 0.0
C451 C 0.54796 0.11576 0.57646 0.0
C452 C 0.56187 0.11341 0.58879 0.0
C453 C 0.55369 0.09734 0.63571 0.0
C454 C 0.53963 0.09946 0.62444 0.0
H455 H 0.57031 0.11953 0.57608 0.0
H456 H 0.55592 0.09069 0.66003 0.0
H457 H 0.59779 0.13365 0.64037 0.0
H458 H 0.56213 0.14987 0.69818 0.0
H459 H 0.58434 0.056 0.58442 0.0
H460 H 0.5461 0.12326 0.55368 0.0
H461 H 0.53121 0.09433 0.64029 0.0
C462 C 0.61634 0.82238 0.41041 0.0
C463 C 0.60216 0.82511 0.41601 0.0
N464 N 0.59907 0.83775 0.40002 0.0
N465 N 0.62213 0.83315 0.39049 0.0
C466 C 0.61139 0.84241 0.38475 0.0
H467 H 0.6222 0.81337 0.42128 0.0
Co468 Co 0.64131 0.83524 0.3808 0.0
C469 C 0.64305 0.84183 0.29921 0.0
O470 O 0.65299 0.83202 0.29791 0.0
N471 N 0.66107 0.83775 0.37346 0.0
C472 C 0.68183 0.84864 0.36352 0.0
C473 C 0.66765 0.84837 0.35434 0.0
C474 C 0.67148 0.83227 0.39557 0.0
N475 N 0.68416 0.83857 0.38979 0.0
O476 O 0.64092 0.85291 0.40794 0.0
H477 H 0.66234 0.85638 0.33755 0.0
H478 H 0.66961 0.8248 0.41826 0.0
O479 O 0.63715 0.84475 0.33121 0.0
C480 C 0.64448 0.85059 0.44233 0.0
O481 O 0.64804 0.83762 0.4523 0.0
N482 N 0.64125 0.81696 0.35767 0.0
C483 C 0.63601 0.78843 0.3396 0.0
C484 C 0.62903 0.79939 0.32016 0.0
C485 C 0.63155 0.81352 0.33017 0.0
C486 C 0.64832 0.80639 0.37625 0.0
C487 C 0.64604 0.79211 0.36732 0.0
H488 H 0.62485 0.82158 0.3177 0.0
H489 H 0.65472 0.80878 0.40065 0.0
H490 H 0.61272 0.85253 0.3706 0.0
H491 H 0.59485 0.8186 0.43218 0.0
H492 H 0.6895 0.85652 0.35451 0.0
H493 H 0.62109 0.79709 0.29877 0.0
H494 H 0.65126 0.78404 0.3842 0.0
C495 C 0.92715 0.86844 0.17521 0.0
C496 C 0.9254 0.8542 0.18249 0.0
N497 N 0.9129 0.85002 0.16744 0.0
N498 N 0.91587 0.87318 0.15537 0.0
C499 C 0.90734 0.86177 0.15119 0.0
H500 H 0.93591 0.87502 0.1845 0.0
Co501 Co 0.91244 0.89184 0.14185 0.0
C502 C 0.89082 0.88901 0.08193 0.0
O503 O 0.88244 0.89754 0.1012 0.0
N504 N 0.90909 0.91078 0.12897 0.0
C505 C 0.90792 0.93165 0.09949 0.0
C506 C 0.90995 0.91724 0.09481 0.0
C507 C 0.90664 0.9214 0.15376 0.0
N508 N 0.90579 0.93418 0.1367 0.0
O509 O 0.89523 0.89124 0.17127 0.0
H510 H 0.91232 0.91188 0.06839 0.0
H511 H 0.90622 0.91995 0.18412 0.0
O512 O 0.90291 0.88562 0.09562 0.0
C513 C 0.89834 0.89351 0.206 0.0
O514 O 0.91164 0.89612 0.21502 0.0
N515 N 0.92988 0.89246 0.11679 0.0
C516 C 0.95853 0.89032 0.09793 0.0
C517 C 0.94836 0.88181 0.07956 0.0
C518 C 0.93401 0.88303 0.0895 0.0
C519 C 0.93947 0.90138 0.1332 0.0
C520 C 0.95382 0.90062 0.12383 0.0
H521 H 0.92646 0.87562 0.07755 0.0
H522 H 0.93609 0.90853 0.15549 0.0
H523 H 0.89717 0.86216 0.1369 0.0
H524 H 0.93258 0.84757 0.19869 0.0
H525 H 0.90819 0.93963 0.07739 0.0
H526 H 0.95154 0.87359 0.05979 0.0
H527 H 0.96126 0.90754 0.13829 0.0
C528 C 0.61662 0.67345 0.92345 0.0
C529 C 0.60237 0.67082 0.92798 0.0
N530 N 0.59906 0.65897 0.90834 0.0
N531 N 0.62225 0.66341 0.90073 0.0
C532 C 0.61135 0.65465 0.89217 0.0
H533 H 0.6226 0.68197 0.93648 0.0
Co534 Co 0.64138 0.66204 0.88979 0.0
C535 C 0.64265 0.65598 0.80799 0.0
O536 O 0.65234 0.66603 0.80638 0.0
N537 N 0.66113 0.66029 0.88115 0.0
C538 C 0.68227 0.65043 0.86944 0.0
C539 C 0.668 0.6501 0.86112 0.0
C540 C 0.67144 0.66608 0.90294 0.0
N541 N 0.68433 0.66042 0.89606 0.0
O542 O 0.64188 0.64428 0.91631 0.0
H543 H 0.66292 0.64198 0.84422 0.0
H544 H 0.66944 0.67327 0.92621 0.0
O545 O 0.63717 0.65268 0.84025 0.0
C546 C 0.64564 0.64671 0.95049 0.0
O547 O 0.6486 0.65983 0.96051 0.0
N548 N 0.64045 0.68036 0.86715 0.0
C549 C 0.63461 0.70863 0.84794 0.0
C550 C 0.62749 0.69744 0.82988 0.0
C551 C 0.63031 0.68345 0.84049 0.0
C552 C 0.64754 0.69117 0.88469 0.0
C553 C 0.64497 0.70533 0.87512 0.0
H554 H 0.62362 0.67519 0.82892 0.0
H555 H 0.6543 0.68906 0.90856 0.0
H556 H 0.61247 0.64523 0.87482 0.0
H557 H 0.59512 0.67691 0.94544 0.0
H558 H 0.69023 0.64297 0.85964 0.0
H559 H 0.61928 0.69947 0.80903 0.0
H560 H 0.6503 0.71363 0.89097 0.0
C561 C 0.57273 0.36872 0.17288 0.0
C562 C 0.57469 0.35435 0.17697 0.0
N563 N 0.58644 0.3506 0.1575 0.0
N564 N 0.58309 0.37401 0.15058 0.0
C565 C 0.59139 0.36275 0.14188 0.0
H566 H 0.56444 0.37499 0.18595 0.0
Co567 Co 0.58506 0.39315 0.13992 0.0
C568 C 0.59504 0.39471 0.06011 0.0
O569 O 0.58608 0.40513 0.05436 0.0
N570 N 0.58698 0.41324 0.13068 0.0
C571 C 0.58206 0.436 0.11815 0.0
C572 C 0.57788 0.42221 0.11283 0.0
C573 C 0.59674 0.42214 0.14616 0.0
N574 N 0.59383 0.43598 0.13967 0.0
O575 O 0.60222 0.39294 0.16914 0.0
H576 H 0.56845 0.41916 0.09739 0.0
H577 H 0.60558 0.41871 0.16332 0.0
O578 O 0.59563 0.38865 0.09265 0.0
C579 C 0.59923 0.39612 0.20344 0.0
O580 O 0.58626 0.40035 0.21148 0.0
N581 N 0.56738 0.39261 0.11585 0.0
C582 C 0.53876 0.38767 0.09973 0.0
C583 C 0.5495 0.38131 0.07775 0.0
C584 C 0.5638 0.38382 0.08651 0.0
C585 C 0.55709 0.3989 0.13725 0.0
C586 C 0.54278 0.39695 0.12899 0.0
H587 H 0.57187 0.37783 0.07168 0.0
H588 H 0.56007 0.40513 0.16182 0.0
H589 H 0.60091 0.36348 0.12475 0.0
H590 H 0.56821 0.34729 0.19397 0.0
H591 H 0.57623 0.44534 0.10922 0.0
H592 H 0.54693 0.37375 0.05563 0.0
H593 H 0.53494 0.40224 0.14651 0.0
C594 C 0.87703 0.31749 0.4253 0.0
C595 C 0.89139 0.31932 0.43095 0.0
N596 N 0.8951 0.33212 0.41689 0.0
N597 N 0.87181 0.32899 0.40725 0.0
C598 C 0.88303 0.33772 0.4026 0.0
H599 H 0.87071 0.30861 0.43501 0.0
Co600 Co 0.85292 0.3331 0.39806 0.0
C601 C 0.85176 0.341 0.31717 0.0
O602 O 0.84047 0.33281 0.31466 0.0
N603 N 0.83355 0.33783 0.39092 0.0
C604 C 0.81455 0.35179 0.38393 0.0
C605 C 0.82858 0.34987 0.37458 0.0
C606 C 0.82236 0.33302 0.41135 0.0
N607 N 0.81069 0.34124 0.40748 0.0
O608 O 0.85518 0.35044 0.42607 0.0
H609 H 0.83504 0.35761 0.35992 0.0
H610 H 0.82307 0.32458 0.43185 0.0
O611 O 0.85809 0.34241 0.34925 0.0
C612 C 0.85095 0.34853 0.4601 0.0
O613 O 0.84562 0.33612 0.46948 0.0
N614 N 0.851 0.31515 0.37404 0.0
C615 C 0.85332 0.28624 0.35598 0.0
C616 C 0.86106 0.29647 0.33571 0.0
C617 C 0.85991 0.31082 0.34553 0.0
C618 C 0.84327 0.30529 0.3935 0.0
C619 C 0.84397 0.2909 0.38432 0.0
H620 H 0.86722 0.3182 0.33248 0.0
H621 H 0.83767 0.30822 0.41883 0.0
H622 H 0.88223 0.34818 0.39003 0.0
H623 H 0.89839 0.31212 0.44591 0.0
H624 H 0.80814 0.36098 0.37702 0.0
H625 H 0.86881 0.29336 0.31455 0.0
H626 H 0.83791 0.2834 0.4011 0.0
C627 C 0.92699 0.63002 0.67615 0.0
C628 C 0.92458 0.64432 0.68086 0.0
N629 N 0.91179 0.64746 0.66578 0.0
N630 N 0.91587 0.62422 0.65771 0.0
C631 C 0.90673 0.63506 0.65196 0.0
H632 H 0.93607 0.62415 0.68654 0.0
Co633 Co 0.9132 0.60506 0.64865 0.0
C634 C 0.90454 0.60302 0.5684 0.0
O635 O 0.91348 0.59233 0.56549 0.0
N636 N 0.91009 0.58538 0.6415 0.0
C637 C 0.89834 0.56501 0.63307 0.0
C638 C 0.89831 0.57938 0.62627 0.0
C639 C 0.91669 0.57443 0.65906 0.0
N640 N 0.90986 0.56198 0.65401 0.0
O641 O 0.89592 0.60597 0.67744 0.0
H642 H 0.88961 0.5852 0.61361 0.0
H643 H 0.92551 0.57561 0.67829 0.0
O644 O 0.90308 0.6094 0.6004 0.0
C645 C 0.89778 0.60122 0.71098 0.0
O646 O 0.9102 0.59582 0.71998 0.0
N647 N 0.93105 0.60462 0.62368 0.0
C648 C 0.95935 0.6088 0.60164 0.0
C649 C 0.94819 0.61525 0.58167 0.0
C650 C 0.93419 0.61334 0.5937 0.0
C651 C 0.94181 0.5983 0.64334 0.0
C652 C 0.95597 0.6 0.63242 0.0
H653 H 0.92609 0.61979 0.58059 0.0
H654 H 0.93966 0.59312 0.66993 0.0
H655 H 0.89645 0.63378 0.63865 0.0
H656 H 0.93143 0.6517 0.69571 0.0
H657 H 0.88988 0.55762 0.62632 0.0
H658 H 0.95029 0.62237 0.55817 0.0
H659 H 0.96424 0.59538 0.64988 0.0
C660 C 0.6173 0.31946 0.59159 0.0
C661 C 0.60332 0.32182 0.58207 0.0
N662 N 0.59947 0.33459 0.59602 0.0
N663 N 0.62217 0.33067 0.61155 0.0
C664 C 0.61108 0.3397 0.61388 0.0
H665 H 0.62367 0.31041 0.5833 0.0
Co666 Co 0.64091 0.33369 0.62486 0.0
C667 C 0.63745 0.35612 0.68345 0.0
O668 O 0.64433 0.36539 0.66251 0.0
N669 N 0.65988 0.33665 0.63728 0.0
C670 C 0.68082 0.33857 0.66609 0.0
C671 C 0.66641 0.33665 0.67141 0.0
C672 C 0.67042 0.33843 0.61191 0.0
N673 N 0.68324 0.33976 0.62853 0.0
O674 O 0.64067 0.35075 0.59496 0.0
H675 H 0.66109 0.3351 0.69832 0.0
H676 H 0.66884 0.33822 0.58157 0.0
O677 O 0.63518 0.34364 0.67071 0.0
C678 C 0.64254 0.34786 0.55996 0.0
O679 O 0.64481 0.33461 0.54994 0.0
N680 N 0.64103 0.31647 0.65097 0.0
C681 C 0.63707 0.28836 0.67315 0.0
C682 C 0.62964 0.29939 0.69116 0.0
C683 C 0.6316 0.31338 0.67925 0.0
C684 C 0.64912 0.30605 0.63506 0.0
C685 C 0.64734 0.29188 0.64581 0.0
H686 H 0.62467 0.32146 0.69056 0.0
H687 H 0.65621 0.30861 0.61188 0.0
H688 H 0.61177 0.35017 0.62648 0.0
H689 H 0.59661 0.31481 0.5656 0.0
H690 H 0.68885 0.33899 0.68804 0.0
H691 H 0.62169 0.29717 0.71259 0.0
H692 H 0.65316 0.28372 0.63072 0.0
C693 C 0.92818 0.36687 0.85338 0.0
C694 C 0.92579 0.35264 0.84737 0.0
N695 N 0.91268 0.34947 0.86025 0.0
N696 N 0.91671 0.37259 0.87047 0.0
C697 C 0.90741 0.36177 0.87414 0.0
H698 H 0.93748 0.37279 0.84464 0.0
Co699 Co 0.91379 0.39169 0.87975 0.0
C700 C 0.90442 0.39309 0.95969 0.0
O701 O 0.91326 0.4038 0.96391 0.0
N702 N 0.91048 0.41133 0.88682 0.0
C703 C 0.89882 0.4318 0.89451 0.0
C704 C 0.89899 0.41755 0.90303 0.0
C705 C 0.9166 0.42199 0.86693 0.0
N706 N 0.90985 0.4345 0.87148 0.0
O707 O 0.89684 0.3908 0.84959 0.0
H708 H 0.8905 0.41195 0.91727 0.0
H709 H 0.92494 0.42046 0.84631 0.0
O710 O 0.90323 0.38705 0.92715 0.0
C711 C 0.89959 0.39483 0.81582 0.0
O712 O 0.91252 0.39915 0.80781 0.0
N713 N 0.93136 0.39222 0.90615 0.0
C714 C 0.95951 0.38822 0.92969 0.0
C715 C 0.9483 0.38126 0.94816 0.0
C716 C 0.93437 0.38314 0.93544 0.0
C717 C 0.94218 0.39916 0.88823 0.0
C718 C 0.95625 0.39753 0.89992 0.0
H719 H 0.92624 0.37638 0.94729 0.0
H720 H 0.94023 0.40482 0.8623 0.0
H721 H 0.89685 0.36301 0.88583 0.0
H722 H 0.93289 0.34536 0.83301 0.0
H723 H 0.89046 0.43927 0.9015 0.0
H724 H 0.95032 0.37377 0.97086 0.0
H725 H 0.96458 0.40261 0.88361 0.0
C726 C 0.87684 0.67666 0.09993 0.0
C727 C 0.89124 0.67494 0.09557 0.0
N728 N 0.89507 0.66272 0.11268 0.0
N729 N 0.87164 0.66567 0.12011 0.0
C730 C 0.88295 0.65729 0.12728 0.0
H731 H 0.87047 0.68515 0.08816 0.0
Co732 Co 0.85261 0.66253 0.12934 0.0
C733 C 0.85073 0.65324 0.2091 0.0
O734 O 0.83974 0.66178 0.21238 0.0
N735 N 0.83303 0.65903 0.13651 0.0
C736 C 0.81286 0.64676 0.1426 0.0
C737 C 0.82717 0.64696 0.15038 0.0
C738 C 0.82208 0.66565 0.11909 0.0
N739 N 0.80975 0.65848 0.12252 0.0
O740 O 0.85384 0.64544 0.09988 0.0
H741 H 0.83309 0.63822 0.16246 0.0
H742 H 0.82324 0.67473 0.10076 0.0
O743 O 0.8572 0.65225 0.1771 0.0
C744 C 0.84905 0.64737 0.06641 0.0
O745 O 0.84338 0.65971 0.05787 0.0
N746 N 0.85189 0.68023 0.15493 0.0
C747 C 0.85659 0.70853 0.17604 0.0
C748 C 0.86263 0.69736 0.19679 0.0
C749 C 0.86047 0.68335 0.18521 0.0
C750 C 0.84577 0.69102 0.13489 0.0
C751 C 0.84775 0.70519 0.14532 0.0
H752 H 0.8668 0.67524 0.19867 0.0
H753 H 0.84073 0.68887 0.10809 0.0
H754 H 0.88224 0.64727 0.14223 0.0
H755 H 0.89823 0.68187 0.07965 0.0
H756 H 0.80563 0.63801 0.14782 0.0
H757 H 0.86976 0.69944 0.22028 0.0
H758 H 0.84343 0.71346 0.12732 0.0
C759 C 0.57214 0.62554 0.3305 0.0
C760 C 0.57332 0.63995 0.32481 0.0
N761 N 0.58498 0.64459 0.3433 0.0
N762 N 0.58289 0.62118 0.3529 0.0
C763 C 0.5906 0.63297 0.36003 0.0
H764 H 0.56416 0.61861 0.31842 0.0
Co765 Co 0.58693 0.60252 0.36543 0.0
C766 C 0.5918 0.6031 0.44774 0.0
O767 O 0.5831 0.59217 0.44916 0.0
N768 N 0.59169 0.58339 0.37594 0.0
C769 C 0.60553 0.5648 0.38941 0.0
C770 C 0.60278 0.57881 0.39717 0.0
C771 C 0.58838 0.57199 0.35424 0.0
N772 N 0.59657 0.56056 0.362 0.0
O773 O 0.60487 0.60448 0.34023 0.0
H774 H 0.60958 0.58552 0.41419 0.0
H775 H 0.58115 0.57242 0.33048 0.0
O776 O 0.59491 0.60859 0.41536 0.0
C777 C 0.60332 0.60014 0.30617 0.0
O778 O 0.59087 0.59519 0.29567 0.0
N779 N 0.56837 0.60085 0.38666 0.0
C780 C 0.53929 0.6025 0.40344 0.0
C781 C 0.54899 0.61192 0.42012 0.0
C782 C 0.56338 0.61106 0.41099 0.0
C783 C 0.55907 0.59149 0.37056 0.0
C784 C 0.54456 0.59198 0.379 0.0
H785 H 0.57036 0.61927 0.42159 0.0
H786 H 0.56256 0.58426 0.34893 0.0
H787 H 0.60027 0.63295 0.37665 0.0
H788 H 0.56642 0.6464 0.30727 0.0
H789 H 0.61442 0.5587 0.40013 0.0
H790 H 0.54541 0.62055 0.43808 0.0
H791 H 0.53745 0.58456 0.36511 0.0
C792 C 0.37792 0.32076 0.08311 0.0
C793 C 0.392 0.32299 0.07475 0.0
N794 N 0.39641 0.33453 0.0941 0.0
N795 N 0.37353 0.33078 0.10779 0.0
C796 C 0.38501 0.33904 0.11403 0.0
H797 H 0.37113 0.31269 0.07089 0.0
Co798 Co 0.35475 0.33354 0.12093 0.0
C799 C 0.35517 0.3383 0.20336 0.0
O800 O 0.34493 0.3288 0.20468 0.0
N801 N 0.33532 0.33678 0.13152 0.0
C802 C 0.31496 0.3477 0.14615 0.0
C803 C 0.32926 0.34677 0.15399 0.0
C804 C 0.32455 0.33243 0.10897 0.0
N805 N 0.31211 0.33874 0.11752 0.0
O806 O 0.35543 0.35164 0.09601 0.0
H807 H 0.33495 0.35394 0.17249 0.0
H808 H 0.32596 0.32575 0.08434 0.0
O809 O 0.36034 0.34191 0.17097 0.0
C810 C 0.35148 0.34998 0.06165 0.0
O811 O 0.34743 0.3373 0.05047 0.0
N812 N 0.35445 0.31488 0.14187 0.0
C813 C 0.35789 0.28599 0.15854 0.0
C814 C 0.36668 0.29621 0.17539 0.0
C815 C 0.36496 0.31053 0.16619 0.0
C816 C 0.34577 0.30501 0.12554 0.0
C817 C 0.34713 0.29058 0.13395 0.0
H818 H 0.37269 0.31802 0.17686 0.0
H819 H 0.33843 0.30798 0.10366 0.0
H820 H 0.38477 0.34864 0.13096 0.0
H821 H 0.39842 0.31681 0.05531 0.0
H822 H 0.30755 0.3553 0.15803 0.0
H823 H 0.37545 0.29312 0.19352 0.0
H824 H 0.34023 0.28303 0.11985 0.0
C825 C 0.42783 0.62417 0.84231 0.0
C826 C 0.42665 0.63868 0.83905 0.0
N827 N 0.4143 0.64272 0.85522 0.0
N828 N 0.41638 0.61912 0.8609 0.0
C829 C 0.40829 0.63063 0.8682 0.0
H830 H 0.43628 0.61767 0.83085 0.0
Co831 Co 0.41203 0.60022 0.86892 0.0
C832 C 0.40215 0.59843 0.94831 0.0
O833 O 0.40955 0.58664 0.95136 0.0
N834 N 0.40718 0.58091 0.87514 0.0
C835 C 0.39282 0.5621 0.87784 0.0
C836 C 0.39429 0.57622 0.88668 0.0
C837 C 0.41315 0.56942 0.85847 0.0
N838 N 0.40463 0.55788 0.85958 0.0
O839 O 0.39514 0.60272 0.83926 0.0
H840 H 0.38591 0.58294 0.89759 0.0
H841 H 0.42289 0.56975 0.84248 0.0
O842 O 0.40201 0.60518 0.91666 0.0
C843 C 0.3971 0.59784 0.80589 0.0
O844 O 0.40927 0.59168 0.79792 0.0
N845 N 0.42958 0.59812 0.89446 0.0
C846 C 0.45823 0.60134 0.91408 0.0
C847 C 0.44749 0.60735 0.93652 0.0
C848 C 0.43329 0.60594 0.92572 0.0
C849 C 0.43992 0.59186 0.87307 0.0
C850 C 0.45425 0.59311 0.88269 0.0
H851 H 0.42559 0.61236 0.94049 0.0
H852 H 0.4373 0.58739 0.84582 0.0
H853 H 0.39805 0.63009 0.88211 0.0
H854 H 0.43403 0.64562 0.8245 0.0
H855 H 0.38322 0.55587 0.88108 0.0
H856 H 0.45008 0.614 0.96065 0.0
H857 H 0.46217 0.58882 0.86353 0.0
C858 C 0.1196 0.67697 0.59062 0.0
C859 C 0.10527 0.67513 0.58482 0.0
N860 N 0.1013 0.66283 0.60139 0.0
N861 N 0.1246 0.66599 0.61114 0.0
C862 C 0.11326 0.65751 0.61716 0.0
H863 H 0.12608 0.68551 0.57951 0.0
Co864 Co 0.14353 0.66248 0.62155 0.0
C865 C 0.1441 0.65557 0.70299 0.0
O866 O 0.15488 0.66441 0.70569 0.0
N867 N 0.16299 0.65844 0.6297 0.0
C868 C 0.18297 0.64632 0.64096 0.0
C869 C 0.16876 0.64751 0.64945 0.0
C870 C 0.17384 0.66309 0.60779 0.0
N871 N 0.18607 0.65608 0.61446 0.0
O872 O 0.14199 0.64493 0.5943 0.0
H873 H 0.16286 0.63996 0.66635 0.0
H874 H 0.1726 0.67053 0.58473 0.0
O875 O 0.13831 0.65335 0.67052 0.0
C876 C 0.14588 0.64703 0.56008 0.0
O877 O 0.15028 0.65975 0.55023 0.0
N878 N 0.14474 0.68063 0.64507 0.0
C879 C 0.1424 0.70934 0.66505 0.0
C880 C 0.13387 0.69905 0.68264 0.0
C881 C 0.13505 0.68482 0.67185 0.0
C882 C 0.15318 0.69055 0.62805 0.0
C883 C 0.15241 0.70485 0.63816 0.0
H884 H 0.1274 0.67737 0.6831 0.0
H885 H 0.15971 0.68775 0.60427 0.0
H886 H 0.1139 0.64745 0.63193 0.0
H887 H 0.09847 0.68199 0.56817 0.0
H888 H 0.19012 0.63809 0.65078 0.0
H889 H 0.12563 0.70207 0.70255 0.0
H890 H 0.15909 0.71243 0.62345 0.0
C891 C 0.06864 0.36605 0.33841 0.0
C892 C 0.07074 0.35174 0.33292 0.0
N893 N 0.08336 0.34817 0.34833 0.0
N894 N 0.07978 0.37142 0.35771 0.0
C895 C 0.08862 0.36032 0.36316 0.0
H896 H 0.05978 0.37225 0.32801 0.0
Co897 Co 0.08287 0.39047 0.36765 0.0
C898 C 0.08977 0.39152 0.44906 0.0
O899 O 0.0806 0.40202 0.45161 0.0
N900 N 0.08645 0.41006 0.37529 0.0
C901 C 0.09787 0.43046 0.38643 0.0
C902 C 0.09711 0.41625 0.39521 0.0
C903 C 0.08156 0.42066 0.35295 0.0
N904 N 0.08812 0.43313 0.35958 0.0
O905 O 0.10048 0.38924 0.34059 0.0
H906 H 0.10477 0.41067 0.4125 0.0
H907 H 0.07426 0.41911 0.32968 0.0
O908 O 0.09212 0.38566 0.41673 0.0
C909 C 0.09841 0.39297 0.30624 0.0
O910 O 0.08561 0.39698 0.29594 0.0
N911 N 0.06468 0.39138 0.39108 0.0
C912 C 0.03598 0.38839 0.41046 0.0
C913 C 0.04642 0.38021 0.42857 0.0
C914 C 0.06066 0.38171 0.4181 0.0
C915 C 0.05462 0.39952 0.37368 0.0
C916 C 0.04031 0.39844 0.38351 0.0
H917 H 0.06827 0.3743 0.42971 0.0
H918 H 0.05731 0.40601 0.34977 0.0
H919 H 0.09887 0.36123 0.3769 0.0
H920 H 0.06381 0.34467 0.31729 0.0
H921 H 0.10581 0.43792 0.39635 0.0
H922 H 0.04354 0.37198 0.44861 0.0
H923 H 0.03261 0.40488 0.36846 0.0
C924 C 0.38086 0.67408 0.42426 0.0
C925 C 0.39502 0.6714 0.43066 0.0
N926 N 0.39862 0.65952 0.41156 0.0
N927 N 0.3756 0.66399 0.40105 0.0
C928 C 0.38665 0.65526 0.39376 0.0
H929 H 0.37463 0.68252 0.43685 0.0
Co930 Co 0.35659 0.66145 0.38994 0.0
C931 C 0.35585 0.65574 0.30786 0.0
O932 O 0.34551 0.66513 0.30594 0.0
N933 N 0.33698 0.65836 0.38081 0.0
C934 C 0.31669 0.64696 0.3681 0.0
C935 C 0.33099 0.64771 0.3604 0.0
C936 C 0.3261 0.66333 0.40215 0.0
N937 N 0.31371 0.65672 0.39469 0.0
O938 O 0.35737 0.64344 0.41504 0.0
H939 H 0.33677 0.64003 0.34363 0.0
H940 H 0.32738 0.67061 0.42554 0.0
O941 O 0.36154 0.65289 0.3401 0.0
C942 C 0.3531 0.64501 0.44914 0.0
O943 O 0.34862 0.65758 0.46005 0.0
N944 N 0.35619 0.68001 0.36888 0.0
C945 C 0.35965 0.70897 0.35335 0.0
C946 C 0.3675 0.69874 0.33341 0.0
C947 C 0.36581 0.68435 0.34209 0.0
C948 C 0.34853 0.68989 0.38842 0.0
C949 C 0.34983 0.70434 0.38053 0.0
H950 H 0.373 0.67683 0.32914 0.0
H951 H 0.34231 0.68685 0.41259 0.0
H952 H 0.38571 0.64551 0.37762 0.0
H953 H 0.40204 0.67754 0.44864 0.0
H954 H 0.30938 0.63894 0.35783 0.0
H955 H 0.3756 0.70185 0.31321 0.0
H956 H 0.34372 0.71187 0.39712 0.0
C957 C 0.06988 0.62914 0.1734 0.0
C958 C 0.07211 0.64341 0.17915 0.0
N959 N 0.08475 0.64691 0.16378 0.0
N960 N 0.08098 0.62371 0.15402 0.0
C961 C 0.08991 0.63475 0.14875 0.0
H962 H 0.06096 0.62301 0.18373 0.0
Co963 Co 0.0839 0.60471 0.14333 0.0
C964 C 0.09212 0.60363 0.06269 0.0
O965 O 0.08333 0.59283 0.05939 0.0
N966 N 0.08728 0.58518 0.1345 0.0
C967 C 0.09943 0.56514 0.1246 0.0
C968 C 0.09911 0.57955 0.11856 0.0
C969 C 0.08099 0.57395 0.15162 0.0
N970 N 0.08807 0.5617 0.14574 0.0
O971 O 0.10127 0.60552 0.17163 0.0
H972 H 0.10764 0.58565 0.10604 0.0
H973 H 0.07223 0.5748 0.17119 0.0
O974 O 0.09366 0.60973 0.09506 0.0
C975 C 0.0992 0.60058 0.20489 0.0
O976 O 0.08662 0.59543 0.21336 0.0
N977 N 0.06593 0.60426 0.11911 0.0
C978 C 0.03737 0.60872 0.10026 0.0
C979 C 0.04825 0.61532 0.07957 0.0
C980 C 0.0624 0.61324 0.09001 0.0
C981 C 0.05543 0.59766 0.13916 0.0
C982 C 0.04114 0.5995 0.12979 0.0
H983 H 0.07032 0.61986 0.07668 0.0
H984 H 0.05791 0.59225 0.16519 0.0
H985 H 0.10013 0.63378 0.13491 0.0
H986 H 0.06523 0.65051 0.19488 0.0
H987 H 0.10803 0.558 0.11728 0.0
H988 H 0.04582 0.62275 0.05702 0.0
H989 H 0.03311 0.59473 0.14778 0.0
C990 C 0.11877 0.31922 0.9169 0.0
C991 C 0.10453 0.32116 0.92373 0.0
N992 N 0.10068 0.3339 0.90956 0.0
N993 N 0.12385 0.33059 0.89808 0.0
C994 C 0.11264 0.3394 0.89414 0.0
H995 H 0.12515 0.31033 0.92633 0.0
Co996 Co 0.14281 0.33386 0.88764 0.0
C997 C 0.14373 0.34316 0.80791 0.0
O998 O 0.1546 0.33452 0.80361 0.0
N999 N 0.16231 0.33752 0.87948 0.0
C1000 C 0.18231 0.35 0.87208 0.0
C1001 C 0.16804 0.34939 0.86397 0.0
C1002 C 0.17329 0.33154 0.89842 0.0
N1003 N 0.18552 0.33883 0.89415 0.0
O1004 O 0.14183 0.35082 0.91763 0.0
H1005 H 0.16205 0.35784 0.85074 0.0
H1006 H 0.17215 0.32295 0.91842 0.0
O1007 O 0.13769 0.34426 0.84047 0.0
C1008 C 0.14638 0.34833 0.95108 0.0
O1009 O 0.15122 0.33559 0.95905 0.0
N1010 N 0.1434 0.31627 0.86132 0.0
C1011 C 0.1386 0.28806 0.83954 0.0
C1012 C 0.13182 0.29928 0.82068 0.0
C1013 C 0.13407 0.31323 0.83259 0.0
C1014 C 0.15038 0.30546 0.87913 0.0
C1015 C 0.14833 0.29133 0.86834 0.0
H1016 H 0.12728 0.32135 0.82085 0.0
H1017 H 0.15633 0.30748 0.90459 0.0
H1018 H 0.11336 0.3498 0.88122 0.0
H1019 H 0.09773 0.31403 0.9396 0.0
H1020 H 0.18939 0.35875 0.86573 0.0
H1021 H 0.12407 0.29725 0.79861 0.0
H1022 H 0.15335 0.28301 0.88479 0.0
C1023 C 0.42751 0.36594 0.67342 0.0
C1024 C 0.42513 0.35191 0.68249 0.0
N1025 N 0.41196 0.3484 0.67067 0.0
N1026 N 0.41596 0.37113 0.65554 0.0
C1027 C 0.40667 0.36024 0.65437 0.0
H1028 H 0.43689 0.37208 0.68025 0.0
Co1029 Co 0.41269 0.38974 0.64091 0.0
C1030 C 0.39139 0.38642 0.57977 0.0
O1031 O 0.38278 0.39535 0.59696 0.0
N1032 N 0.4094 0.40856 0.62692 0.0
C1033 C 0.40835 0.42933 0.59684 0.0
C1034 C 0.41043 0.41489 0.59261 0.0
C1035 C 0.40677 0.41926 0.6513 0.0
N1036 N 0.40598 0.43196 0.63388 0.0
O1037 O 0.39543 0.38948 0.67022 0.0
H1038 H 0.41297 0.40944 0.56644 0.0
H1039 H 0.4062 0.41794 0.68168 0.0
O1040 O 0.40321 0.38317 0.59516 0.0
C1041 C 0.39853 0.39183 0.70492 0.0
O1042 O 0.41185 0.39433 0.714 0.0
N1043 N 0.4301 0.39005 0.61556 0.0
C1044 C 0.45844 0.38837 0.59294 0.0
C1045 C 0.44821 0.37911 0.57764 0.0
C1046 C 0.43405 0.38014 0.58931 0.0
C1047 C 0.43973 0.39951 0.62949 0.0
C1048 C 0.4539 0.39902 0.61807 0.0
H1049 H 0.42653 0.3723 0.57943 0.0
H1050 H 0.43654 0.40707 0.65099 0.0
H1051 H 0.39612 0.36109 0.64236 0.0
H1052 H 0.43232 0.345 0.69779 0.0
H1053 H 0.40878 0.43725 0.57462 0.0
H1054 H 0.45121 0.37054 0.55875 0.0
H1055 H 0.46132 0.40656 0.63014 0.0
C1056 C 0.09877 0.1199 0.97945 0.0
C1057 C 0.10707 0.11011 0.95894 0.0
C1058 C 0.10213 0.12331 0.01711 0.0
C1059 C 0.13193 0.12226 0.08618 0.0
H1060 H 0.10221 0.13026 0.15948 0.0
C1061 C 0.14395 0.15139 0.22512 0.0
C1062 C 0.13704 0.14736 0.25886 0.0
C1063 C 0.13998 0.14564 0.19025 0.0
C1064 C 0.11064 0.12789 0.13953 0.0
H1065 H 0.12538 0.09617 0.96225 0.0
H1066 H 0.13111 0.10195 0.02788 0.0
H1067 H 0.09588 0.12238 0.09557 0.0
H1068 H 0.12036 0.13407 0.28212 0.0
H1069 H 0.11341 0.12383 0.22063 0.0
H1070 H 0.1467 0.12755 0.13007 0.0
C1071 C 0.12213 0.1072 0.01474 0.0
C1072 C 0.10701 0.12356 0.10266 0.0
C1073 C 0.11882 0.10385 0.97703 0.0
C1074 C 0.12593 0.13738 0.2567 0.0
C1075 C 0.12191 0.13158 0.22147 0.0
C1076 C 0.13554 0.12653 0.12294 0.0
C1077 C 0.11384 0.11699 0.03536 0.0
C1078 C 0.11762 0.12087 0.0753 0.0
C1079 C 0.12897 0.1356 0.18781 0.0
C1080 C 0.12496 0.12967 0.14995 0.0
H1081 H 0.08968 0.12498 0.96641 0.0
H1082 H 0.09564 0.13109 0.03171 0.0
H1083 H 0.14042 0.12042 0.066 0.0
H1084 H 0.15249 0.15911 0.2254 0.0
H1085 H 0.14545 0.14926 0.165 0.0
C1086 C 0.10236 0.87429 0.52725 0.0
C1087 C 0.10998 0.88494 0.54655 0.0
C1088 C 0.10566 0.8708 0.48961 0.0
C1089 C 0.13448 0.87373 0.41796 0.0
H1090 H 0.1046 0.86313 0.34755 0.0
C1091 C 0.14686 0.84465 0.27906 0.0
C1092 C 0.13921 0.84791 0.24584 0.0
C1093 C 0.14297 0.85041 0.314 0.0
C1094 C 0.11306 0.86624 0.36668 0.0
H1095 H 0.12707 0.90026 0.54116 0.0
H1096 H 0.13272 0.89431 0.47556 0.0
H1097 H 0.09844 0.87083 0.41174 0.0
H1098 H 0.12138 0.85986 0.22359 0.0
H1099 H 0.11457 0.8701 0.28522 0.0
H1100 H 0.14908 0.86933 0.37296 0.0
C1101 C 0.12431 0.88848 0.48963 0.0
C1102 C 0.10955 0.87046 0.40372 0.0
C1103 C 0.12106 0.89192 0.52734 0.0
C1104 C 0.12752 0.85716 0.24858 0.0
C1105 C 0.12358 0.86295 0.28391 0.0
C1106 C 0.13797 0.86955 0.38103 0.0
C1107 C 0.11663 0.8779 0.47016 0.0
C1108 C 0.12023 0.87408 0.43006 0.0
C1109 C 0.13132 0.85966 0.31706 0.0
C1110 C 0.12734 0.8655 0.35505 0.0
H1111 H 0.09383 0.86861 0.54122 0.0
H1112 H 0.09969 0.8624 0.47592 0.0
H1113 H 0.14303 0.87631 0.43735 0.0
H1114 H 0.1559 0.83753 0.27831 0.0
H1115 H 0.14902 0.84736 0.33887 0.0
C1116 C 0.35474 0.84056 0.74336 0.0
C1117 C 0.36034 0.84538 0.77813 0.0
C1118 C 0.35971 0.84591 0.70893 0.0
C1119 C 0.37758 0.87638 0.66492 0.0
H1120 H 0.38482 0.84983 0.58284 0.0
C1121 C 0.40416 0.89411 0.52549 0.0
C1122 C 0.39973 0.888 0.49099 0.0
C1123 C 0.39925 0.88892 0.56017 0.0
C1124 C 0.38265 0.85742 0.6052 0.0
H1125 H 0.3755 0.85982 0.80374 0.0
H1126 H 0.38416 0.86937 0.74305 0.0
H1127 H 0.37697 0.84099 0.64443 0.0
H1128 H 0.38657 0.87158 0.46608 0.0
H1129 H 0.37769 0.86261 0.52697 0.0
H1130 H 0.38302 0.89284 0.62567 0.0
C1131 C 0.37587 0.86138 0.74279 0.0
C1132 C 0.37822 0.85235 0.64062 0.0
C1133 C 0.37095 0.8559 0.77752 0.0
C1134 C 0.3902 0.87652 0.49211 0.0
C1135 C 0.38518 0.87134 0.52705 0.0
C1136 C 0.38191 0.88147 0.62941 0.0
C1137 C 0.37038 0.85632 0.70809 0.0
C1138 C 0.37562 0.86176 0.67091 0.0
C1139 C 0.38965 0.87751 0.56158 0.0
C1140 C 0.38455 0.87207 0.59905 0.0
H1141 H 0.34653 0.8325 0.74253 0.0
H1142 H 0.35507 0.84196 0.68284 0.0
H1143 H 0.37546 0.88392 0.68745 0.0
H1144 H 0.4116 0.9029 0.5259 0.0
H1145 H 0.4032 0.89377 0.58598 0.0
C1146 C 0.34853 0.14683 0.76639 0.0
C1147 C 0.35743 0.14838 0.73463 0.0
C1148 C 0.35391 0.14191 0.80087 0.0
C1149 C 0.38471 0.1236 0.84519 0.0
H1150 H 0.36875 0.13981 0.93706 0.0
C1151 C 0.39611 0.099 0.99122 0.0
C1152 C 0.39773 0.10794 0.02286 0.0
C1153 C 0.39141 0.10437 0.95653 0.0
C1154 C 0.37347 0.13528 0.91179 0.0
H1155 H 0.37892 0.14573 0.71383 0.0
H1156 H 0.3885 0.13738 0.77455 0.0
H1157 H 0.3608 0.14834 0.87551 0.0
H1158 H 0.3955 0.12956 0.04311 0.0
H1159 H 0.38754 0.13912 0.98201 0.0
H1160 H 0.39775 0.11089 0.88147 0.0
C1161 C 0.37726 0.13975 0.77262 0.0
C1162 C 0.36874 0.14002 0.87633 0.0
C1163 C 0.3718 0.14453 0.73779 0.0
C1164 C 0.39426 0.1224 0.01925 0.0
C1165 C 0.38969 0.12784 0.98422 0.0
C1166 C 0.38954 0.11895 0.88066 0.0
C1167 C 0.3684 0.1386 0.80481 0.0
C1168 C 0.37412 0.13408 0.84251 0.0
C1169 C 0.38837 0.11891 0.95223 0.0
C1170 C 0.38382 0.12455 0.91449 0.0
H1171 H 0.33736 0.14955 0.76475 0.0
H1172 H 0.34665 0.14077 0.82451 0.0
H1173 H 0.38908 0.11871 0.81992 0.0
H1174 H 0.39853 0.08777 0.99316 0.0
H1175 H 0.39014 0.09706 0.93304 0.0
C1176 C 0.86792 0.85722 0.74493 0.0
C1177 C 0.85663 0.84745 0.74264 0.0
C1178 C 0.87208 0.86285 0.78027 0.0
C1179 C 0.85853 0.86785 0.87891 0.0
H1180 H 0.89823 0.87171 0.90628 0.0
C1181 C 0.87523 0.89081 0.02429 0.0
C1182 C 0.88698 0.88468 0.04265 0.0
C1183 C 0.87196 0.88729 0.98668 0.0
C1184 C 0.88709 0.8706 0.8992 0.0
H1185 H 0.84102 0.83587 0.77602 0.0
H1186 H 0.84831 0.84539 0.83654 0.0
H1187 H 0.89183 0.86388 0.84234 0.0
H1188 H 0.90446 0.86988 0.03575 0.0
H1189 H 0.89855 0.86343 0.97056 0.0
H1190 H 0.8537 0.87398 0.93584 0.0
C1191 C 0.85382 0.849 0.81133 0.0
C1192 C 0.88342 0.8663 0.86231 0.0
C1193 C 0.84969 0.84344 0.77637 0.0
C1194 C 0.89534 0.87484 0.02249 0.0
C1195 C 0.89202 0.87124 0.98491 0.0
C1196 C 0.86218 0.87208 0.91567 0.0
C1197 C 0.86499 0.85885 0.81391 0.0
C1198 C 0.86908 0.86466 0.85187 0.0
C1199 C 0.88028 0.87743 0.96641 0.0
C1200 C 0.87651 0.87339 0.92655 0.0
H1201 H 0.87352 0.8605 0.71953 0.0
H1202 H 0.88072 0.87045 0.78119 0.0
H1203 H 0.84737 0.86694 0.8718 0.0
H1204 H 0.86863 0.89854 0.03874 0.0
H1205 H 0.86298 0.89248 0.97335 0.0
C1206 C 0.84783 0.14698 0.74355 0.0
C1207 C 0.8573 0.1488 0.77403 0.0
C1208 C 0.85246 0.14123 0.70922 0.0
C1209 C 0.88346 0.13784 0.64851 0.0
H1210 H 0.86172 0.10822 0.59847 0.0
C1211 C 0.892 0.12145 0.49059 0.0
C1212 C 0.89389 0.10678 0.48504 0.0
C1213 C 0.8873 0.12664 0.52579 0.0
C1214 C 0.86789 0.1165 0.61208 0.0
H1215 H 0.87906 0.14592 0.79258 0.0
H1216 H 0.88731 0.13603 0.73171 0.0
H1217 H 0.85463 0.11643 0.66156 0.0
H1218 H 0.89186 0.08605 0.51129 0.0
H1219 H 0.8833 0.09505 0.57203 0.0
H1220 H 0.8966 0.13803 0.59865 0.0
C1221 C 0.87625 0.13901 0.73479 0.0
C1222 C 0.86383 0.12121 0.64814 0.0
C1223 C 0.87152 0.14455 0.76962 0.0
C1224 C 0.8905 0.09741 0.51474 0.0
C1225 C 0.88557 0.10256 0.54951 0.0
C1226 C 0.88739 0.13329 0.6121 0.0
C1227 C 0.86674 0.13735 0.70422 0.0
C1228 C 0.87157 0.13191 0.66678 0.0
C1229 C 0.88414 0.11722 0.55568 0.0
C1230 C 0.87966 0.12255 0.59356 0.0
H1231 H 0.83679 0.15013 0.74613 0.0
H1232 H 0.84492 0.14016 0.68615 0.0
H1233 H 0.88953 0.1462 0.66207 0.0
H1234 H 0.89465 0.12892 0.46828 0.0
H1235 H 0.88619 0.138 0.52972 0.0
C1236 C 0.62615 0.13783 0.25119 0.0
C1237 C 0.63811 0.14673 0.24834 0.0
C1238 C 0.62219 0.13202 0.28644 0.0
C1239 C 0.6366 0.1247 0.38321 0.0
H1240 H 0.5971 0.12477 0.41434 0.0
C1241 C 0.61902 0.10259 0.52926 0.0
C1242 C 0.60819 0.1099 0.54864 0.0
C1243 C 0.6224 0.10603 0.49163 0.0
C1244 C 0.6082 0.12475 0.4062 0.0
H1245 H 0.65533 0.15635 0.28044 0.0
H1246 H 0.64843 0.14647 0.34097 0.0
H1247 H 0.60343 0.13236 0.35023 0.0
H1248 H 0.59267 0.12684 0.54376 0.0
H1249 H 0.59873 0.13303 0.4786 0.0
H1250 H 0.6415 0.11765 0.43938 0.0
C1251 C 0.64216 0.14374 0.31623 0.0
C1252 C 0.6118 0.12892 0.3692 0.0
C1253 C 0.64606 0.14953 0.28133 0.0
C1254 C 0.60098 0.12089 0.52963 0.0
C1255 C 0.6044 0.12437 0.49208 0.0
C1256 C 0.63302 0.12058 0.42013 0.0
C1257 C 0.63019 0.13492 0.31942 0.0
C1258 C 0.62608 0.12917 0.35741 0.0
C1259 C 0.6151 0.11694 0.47242 0.0
C1260 C 0.61879 0.12071 0.43237 0.0
H1261 H 0.61978 0.13549 0.22635 0.0
H1262 H 0.61294 0.1252 0.28784 0.0
H1263 H 0.6477 0.12454 0.37501 0.0
H1264 H 0.62472 0.09398 0.54287 0.0
H1265 H 0.63058 0.09993 0.4774 0.0
C1266 C 0.62731 0.85838 0.26088 0.0
C1267 C 0.63878 0.84883 0.26311 0.0
C1268 C 0.62337 0.86435 0.22578 0.0
C1269 C 0.63748 0.87061 0.12809 0.0
H1270 H 0.59785 0.8734 0.09914 0.0
C1271 C 0.62095 0.89351 0.98244 0.0
C1272 C 0.60944 0.88711 0.96358 0.0
C1273 C 0.62412 0.88999 0.02011 0.0
C1274 C 0.60898 0.8726 0.10665 0.0
H1275 H 0.65508 0.83814 0.22998 0.0
H1276 H 0.64818 0.84824 0.16981 0.0
H1277 H 0.6041 0.86541 0.16298 0.0
H1278 H 0.59234 0.87183 0.96961 0.0
H1279 H 0.59811 0.86539 0.03486 0.0
H1280 H 0.64246 0.87717 0.07161 0.0
C1281 C 0.64232 0.8514 0.1949 0.0
C1282 C 0.61256 0.86821 0.14351 0.0
C1283 C 0.64622 0.84549 0.22963 0.0
C1284 C 0.60125 0.87701 0.98329 0.0
C1285 C 0.60449 0.87341 0.0209 0.0
C1286 C 0.63393 0.87492 0.09133 0.0
C1287 C 0.63088 0.86094 0.19233 0.0
C1288 C 0.62687 0.86693 0.15451 0.0
C1289 C 0.61596 0.87987 0.03992 0.0
C1290 C 0.61963 0.87583 0.07985 0.0
H1291 H 0.62132 0.86115 0.28609 0.0
H1292 H 0.61453 0.87172 0.22488 0.0
H1293 H 0.64862 0.86999 0.13565 0.0
H1294 H 0.6274 0.90145 0.96833 0.0
H1295 H 0.63289 0.89539 0.03384 0.0
C1296 C 0.59236 0.6033 0.51848 0.0
C1297 C 0.5975 0.60879 0.48395 0.0
C1298 C 0.59748 0.60828 0.55313 0.0
C1299 C 0.61623 0.63848 0.59796 0.0
H1300 H 0.62119 0.61168 0.68064 0.0
C1301 C 0.64396 0.6539 0.73749 0.0
C1302 C 0.63771 0.64952 0.77187 0.0
C1303 C 0.63909 0.6487 0.7028 0.0
C1304 C 0.61971 0.61931 0.65798 0.0
H1305 H 0.61206 0.62396 0.45893 0.0
H1306 H 0.62126 0.63259 0.51988 0.0
H1307 H 0.61333 0.60321 0.61868 0.0
H1308 H 0.62154 0.63599 0.7966 0.0
H1309 H 0.61302 0.62674 0.73548 0.0
H1310 H 0.62279 0.65455 0.63728 0.0
C1311 C 0.61309 0.62449 0.51994 0.0
C1312 C 0.61521 0.61447 0.62239 0.0
C1313 C 0.60789 0.61951 0.485 0.0
C1314 C 0.6266 0.63954 0.77067 0.0
C1315 C 0.62175 0.63425 0.7357 0.0
C1316 C 0.62081 0.6433 0.63349 0.0
C1317 C 0.60797 0.61887 0.55447 0.0
C1318 C 0.61334 0.624 0.59192 0.0
C1319 C 0.62785 0.63892 0.70136 0.0
C1320 C 0.6226 0.63378 0.66393 0.0
H1321 H 0.58425 0.59513 0.51893 0.0
H1322 H 0.59301 0.60392 0.57897 0.0
H1323 H 0.61469 0.64616 0.57545 0.0
H1324 H 0.65259 0.66151 0.73717 0.0
H1325 H 0.6442 0.65232 0.677 0.0
C1326 C 0.63028 0.34855 0.74907 0.0
C1327 C 0.63382 0.35949 0.72352 0.0
C1328 C 0.62758 0.35152 0.7873 0.0
C1329 C 0.63317 0.37924 0.86126 0.0
H1330 H 0.60331 0.35891 0.91427 0.0
C1331 C 0.60719 0.39935 0.99884 0.0
C1332 C 0.60332 0.38958 0.02716 0.0
C1333 C 0.61295 0.39472 0.96452 0.0
C1334 C 0.61185 0.3645 0.90009 0.0
H1335 H 0.63714 0.38219 0.7183 0.0
H1336 H 0.63207 0.38745 0.78479 0.0
H1337 H 0.60855 0.3531 0.84829 0.0
H1338 H 0.60288 0.3673 0.04235 0.0
H1339 H 0.61289 0.35907 0.98163 0.0
H1340 H 0.63611 0.39096 0.91283 0.0
C1341 C 0.63167 0.37649 0.77544 0.0
C1342 C 0.61486 0.3612 0.86216 0.0
C1343 C 0.63447 0.3735 0.73717 0.0
C1344 C 0.60588 0.37505 0.02109 0.0
C1345 C 0.61147 0.37036 0.98627 0.0
C1346 C 0.6301 0.3826 0.89908 0.0
C1347 C 0.62827 0.36552 0.80111 0.0
C1348 C 0.62544 0.36865 0.84203 0.0
C1349 C 0.61483 0.38016 0.95736 0.0
C1350 C 0.61927 0.37541 0.9188 0.0
H1351 H 0.62992 0.3376 0.73985 0.0
H1352 H 0.62524 0.34275 0.80618 0.0
H1353 H 0.64161 0.38499 0.84708 0.0
H1354 H 0.60533 0.41062 1.00276 0.0
H1355 H 0.61528 0.40254 0.94284 0.0
C1356 C 0.89394 0.39712 0.02366 0.0
C1357 C 0.89692 0.38771 0.99372 0.0
C1358 C 0.88838 0.39213 0.05791 0.0
C1359 C 0.88778 0.36103 0.11929 0.0
H1360 H 0.85632 0.38012 0.169 0.0
C1361 C 0.87162 0.35087 0.27697 0.0
C1362 C 0.85711 0.34789 0.28217 0.0
C1363 C 0.87657 0.35597 0.24189 0.0
C1364 C 0.86513 0.3747 0.15549 0.0
H1365 H 0.89628 0.36569 0.97595 0.0
H1366 H 0.88671 0.35685 0.03653 0.0
H1367 H 0.86399 0.3879 0.10602 0.0
H1368 H 0.83638 0.34839 0.25532 0.0
H1369 H 0.84492 0.35759 0.19487 0.0
H1370 H 0.88899 0.34792 0.16909 0.0
C1371 C 0.88862 0.36813 0.03317 0.0
C1372 C 0.86953 0.37916 0.11948 0.0
C1373 C 0.89395 0.37319 0.99845 0.0
C1374 C 0.84763 0.35056 0.25218 0.0
C1375 C 0.8525 0.35587 0.21756 0.0
C1376 C 0.88352 0.3567 0.15563 0.0
C1377 C 0.8859 0.37757 0.06335 0.0
C1378 C 0.88087 0.37236 0.10091 0.0
C1379 C 0.86704 0.35845 0.21177 0.0
C1380 C 0.87211 0.36346 0.17405 0.0
H1381 H 0.89613 0.40838 0.02084 0.0
H1382 H 0.88647 0.39965 0.08066 0.0
H1383 H 0.89665 0.35569 0.10583 0.0
H1384 H 0.87918 0.34881 0.29951 0.0
H1385 H 0.88783 0.35795 0.23827 0.0
C1386 C 0.87063 0.64276 0.24788 0.0
C1387 C 0.8562 0.64625 0.24379 0.0
C1388 C 0.87585 0.63792 0.2829 0.0
C1389 C 0.8664 0.63769 0.38591 0.0
H1390 H 0.8965 0.60974 0.39258 0.0
C1391 C 0.89302 0.62225 0.52929 0.0
C1392 C 0.89734 0.60806 0.53354 0.0
C1393 C 0.88784 0.62711 0.49424 0.0
C1394 C 0.88797 0.61745 0.39134 0.0
H1395 H 0.83579 0.64666 0.27237 0.0
H1396 H 0.8447 0.63777 0.33251 0.0
H1397 H 0.88783 0.61707 0.3306 0.0
H1398 H 0.89893 0.58767 0.50516 0.0
H1399 H 0.88949 0.59593 0.445 0.0
H1400 H 0.86618 0.63769 0.44666 0.0
C1401 C 0.85216 0.63924 0.30944 0.0
C1402 C 0.88314 0.62182 0.35563 0.0
C1403 C 0.84701 0.64421 0.27476 0.0
C1404 C 0.89584 0.59872 0.50267 0.0
C1405 C 0.89055 0.60351 0.46796 0.0
C1406 C 0.87116 0.63324 0.42162 0.0
C1407 C 0.8667 0.63634 0.31437 0.0
C1408 C 0.8722 0.63192 0.35238 0.0
C1409 C 0.88677 0.61783 0.46289 0.0
C1410 C 0.88194 0.62297 0.42487 0.0
H1411 H 0.87798 0.64434 0.22458 0.0
H1412 H 0.88713 0.63588 0.2856 0.0
H1413 H 0.85816 0.64571 0.38466 0.0
H1414 H 0.89416 0.62971 0.55252 0.0
H1415 H 0.88512 0.63824 0.49142 0.0
C1416 C 0.37689 0.38722 0.51973 0.0
C1417 C 0.38829 0.38149 0.54053 0.0
C1418 C 0.37456 0.38318 0.48193 0.0
C1419 C 0.38221 0.35428 0.41392 0.0
H1420 H 0.37049 0.38178 0.33806 0.0
C1421 C 0.35655 0.33739 0.27389 0.0
C1422 C 0.36065 0.34404 0.23984 0.0
C1423 C 0.36123 0.34244 0.30887 0.0
C1424 C 0.37392 0.37401 0.35882 0.0
H1425 H 0.40607 0.36684 0.5378 0.0
H1426 H 0.40202 0.35983 0.47219 0.0
H1427 H 0.37594 0.3897 0.40272 0.0
H1428 H 0.37298 0.36133 0.21607 0.0
H1429 H 0.38115 0.37037 0.27801 0.0
H1430 H 0.3801 0.33858 0.37033 0.0
C1431 C 0.39483 0.36741 0.48506 0.0
C1432 C 0.37687 0.37851 0.39598 0.0
C1433 C 0.39719 0.37149 0.52273 0.0
C1434 C 0.36964 0.35596 0.24176 0.0
C1435 C 0.37425 0.36116 0.27717 0.0
C1436 C 0.37919 0.34979 0.37697 0.0
C1437 C 0.38352 0.37323 0.46409 0.0
C1438 C 0.3809 0.36866 0.4241 0.0
C1439 C 0.37014 0.35437 0.3111 0.0
C1440 C 0.3748 0.35955 0.34909 0.0
H1441 H 0.36984 0.39498 0.53246 0.0
H1442 H 0.36562 0.38772 0.46683 0.0
H1443 H 0.38518 0.34637 0.4348 0.0
H1444 H 0.34966 0.32816 0.27371 0.0
H1445 H 0.35767 0.33708 0.33437 0.0
C1446 C 0.39272 0.59559 0.01394 0.0
C1447 C 0.39575 0.60453 0.98306 0.0
C1448 C 0.38825 0.60122 0.04861 0.0
C1449 C 0.3742 0.63397 0.09453 0.0
H1450 H 0.38748 0.61522 0.18594 0.0
C1451 C 0.35159 0.64877 0.24066 0.0
C1452 C 0.36067 0.64886 0.27232 0.0
C1453 C 0.35613 0.64328 0.20594 0.0
C1454 C 0.3838 0.62071 0.16079 0.0
H1455 H 0.39623 0.6264 0.96404 0.0
H1456 H 0.38872 0.63636 0.02497 0.0
H1457 H 0.39487 0.60638 0.12418 0.0
H1458 H 0.38161 0.64307 0.29257 0.0
H1459 H 0.38977 0.63374 0.23138 0.0
H1460 H 0.36358 0.64864 0.13112 0.0
C1461 C 0.38953 0.62493 0.02224 0.0
C1462 C 0.38786 0.61549 0.1252 0.0
C1463 C 0.39383 0.61924 0.98725 0.0
C1464 C 0.37436 0.64306 0.26869 0.0
C1465 C 0.37899 0.6377 0.23361 0.0
C1466 C 0.37026 0.63928 0.1301 0.0
C1467 C 0.3869 0.61599 0.0536 0.0
C1468 C 0.38297 0.62193 0.09153 0.0
C1469 C 0.36997 0.6379 0.20162 0.0
C1470 C 0.37483 0.63261 0.16377 0.0
H1471 H 0.39397 0.58418 0.01147 0.0
H1472 H 0.38594 0.59394 0.0716 0.0
H1473 H 0.37014 0.63919 0.06939 0.0
H1474 H 0.3409 0.65299 0.24263 0.0
H1475 H 0.3487 0.64325 0.18245 0.0
C1476 C 0.10098 0.59988 0.99692 0.0
C1477 C 0.09907 0.60907 0.02793 0.0
C1478 C 0.106 0.60498 0.96224 0.0
C1479 C 0.12373 0.63582 0.91611 0.0
H1480 H 0.1082 0.61862 0.82501 0.0
C1481 C 0.14777 0.64768 0.76968 0.0
C1482 C 0.1387 0.64886 0.73815 0.0
C1483 C 0.14269 0.64271 0.80442 0.0
C1484 C 0.11255 0.62368 0.85006 0.0
H1485 H 0.10122 0.6308 0.04722 0.0
H1486 H 0.10971 0.6399 0.98614 0.0
H1487 H 0.09984 0.61088 0.8869 0.0
H1488 H 0.11722 0.64551 0.71808 0.0
H1489 H 0.10814 0.63709 0.77928 0.0
H1490 H 0.13602 0.64901 0.87925 0.0
C1491 C 0.10756 0.62864 0.98882 0.0
C1492 C 0.1079 0.61907 0.88574 0.0
C1493 C 0.1027 0.62346 0.02386 0.0
C1494 C 0.12447 0.6446 0.74185 0.0
C1495 C 0.1193 0.63978 0.77696 0.0
C1496 C 0.12826 0.64052 0.88043 0.0
C1497 C 0.10905 0.61949 0.95732 0.0
C1498 C 0.11357 0.62492 0.91931 0.0
C1499 C 0.12832 0.63897 0.8089 0.0
C1500 C 0.1229 0.63438 0.84687 0.0
H1501 H 0.09843 0.58868 0.99931 0.0
H1502 H 0.1074 0.5975 0.93919 0.0
H1503 H 0.12841 0.64055 0.94117 0.0
H1504 H 0.15885 0.65071 0.76762 0.0
H1505 H 0.15009 0.64184 0.82785 0.0
C1506 C 0.1475 0.35384 0.74418 0.0
C1507 C 0.13813 0.35045 0.7739 0.0
C1508 C 0.14236 0.35904 0.70973 0.0
C1509 C 0.11158 0.35759 0.64762 0.0
H1510 H 0.12895 0.38992 0.59747 0.0
C1511 C 0.10105 0.37251 0.48938 0.0
C1512 C 0.097 0.38674 0.48407 0.0
C1513 C 0.10642 0.36801 0.52457 0.0
C1514 C 0.12402 0.38086 0.61111 0.0
H1515 H 0.11604 0.35003 0.79118 0.0
H1516 H 0.10694 0.35898 0.73021 0.0
H1517 H 0.13691 0.38303 0.66094 0.0
H1518 H 0.0959 0.4075 0.51069 0.0
H1519 H 0.10559 0.39974 0.57133 0.0
H1520 H 0.0988 0.35535 0.59747 0.0
C1521 C 0.1183 0.35766 0.73391 0.0
C1522 C 0.12858 0.37691 0.64738 0.0
C1523 C 0.12349 0.35269 0.76883 0.0
C1524 C 0.0989 0.39645 0.51397 0.0
C1525 C 0.10449 0.39203 0.54868 0.0
C1526 C 0.10718 0.3614 0.61102 0.0
C1527 C 0.1277 0.36075 0.70391 0.0
C1528 C 0.12238 0.36527 0.66609 0.0
C1529 C 0.10811 0.37774 0.55461 0.0
C1530 C 0.11331 0.37312 0.59247 0.0
H1531 H 0.15884 0.35219 0.74732 0.0
H1532 H 0.14984 0.36125 0.68711 0.0
H1533 H 0.10673 0.34847 0.66122 0.0
H1534 H 0.0996 0.3648 0.46687 0.0
H1535 H 0.10922 0.35694 0.52836 0.0
C1536 C 0.12741 0.12676 0.47568 0.0
C1537 C 0.14098 0.13196 0.46696 0.0
C1538 C 0.12487 0.12024 0.51081 0.0
C1539 C 0.14005 0.12057 0.60826 0.0
H1540 H 0.10897 0.09464 0.62804 0.0
C1541 C 0.10654 0.09219 0.7398 0.0
C1542 C 0.10577 0.10385 0.7645 0.0
C1543 C 0.1136 0.09333 0.70503 0.0
C1544 C 0.11789 0.10168 0.62325 0.0
H1545 H 0.16273 0.13361 0.48627 0.0
H1546 H 0.1586 0.12141 0.54631 0.0
H1547 H 0.11609 0.09931 0.56304 0.0
H1548 H 0.112 0.12571 0.77318 0.0
H1549 H 0.12403 0.12797 0.71202 0.0
H1550 H 0.14204 0.12273 0.66847 0.0
C1551 C 0.14974 0.12277 0.52704 0.0
C1552 C 0.12183 0.10455 0.58571 0.0
C1553 C 0.15219 0.12953 0.49235 0.0
C1554 C 0.11277 0.11648 0.75487 0.0
C1555 C 0.11963 0.11774 0.71969 0.0
C1556 C 0.13623 0.11757 0.6458 0.0
C1557 C 0.13591 0.11869 0.53765 0.0
C1558 C 0.13277 0.11426 0.57759 0.0
C1559 C 0.1197 0.10631 0.69369 0.0
C1560 C 0.1249 0.10832 0.65389 0.0
H1561 H 0.11854 0.12885 0.45688 0.0
H1562 H 0.11404 0.11738 0.51786 0.0
H1563 H 0.14839 0.12828 0.60344 0.0
H1564 H 0.10107 0.08238 0.74662 0.0
H1565 H 0.11375 0.08418 0.68642 0.0
C1566 C 0.11456 0.88039 0.74967 0.0
C1567 C 0.10701 0.89282 0.74119 0.0
C1568 C 0.12121 0.87886 0.78506 0.0
C1569 C 0.11838 0.89344 0.8832 0.0
H1570 H 0.14983 0.86781 0.90123 0.0
C1571 C 0.12882 0.86763 0.02948 0.0
C1572 C 0.14255 0.86277 0.03786 0.0
C1573 C 0.12603 0.87423 0.9946 0.0
C1574 C 0.14121 0.87525 0.89696 0.0
H1575 H 0.10119 0.91373 0.76131 0.0
H1576 H 0.11354 0.91153 0.82185 0.0
H1577 H 0.14342 0.8739 0.83665 0.0
H1578 H 0.1643 0.86183 0.01822 0.0
H1579 H 0.15974 0.87424 0.95874 0.0
H1580 H 0.11641 0.89509 0.94352 0.0
C1581 C 0.11392 0.90268 0.80224 0.0
C1582 C 0.13736 0.87855 0.85963 0.0
C1583 C 0.10704 0.90406 0.76731 0.0
C1584 C 0.15364 0.86562 0.01239 0.0
C1585 C 0.15094 0.8725 0.97799 0.0
C1586 C 0.12237 0.89031 0.92055 0.0
C1587 C 0.12058 0.88983 0.81238 0.0
C1588 C 0.1257 0.88746 0.85212 0.0
C1589 C 0.13698 0.87626 0.9677 0.0
C1590 C 0.13367 0.88093 0.92804 0.0
H1591 H 0.11439 0.87147 0.73021 0.0
H1592 H 0.12606 0.86873 0.79171 0.0
H1593 H 0.10921 0.90019 0.8789 0.0
H1594 H 0.12004 0.86522 0.04835 0.0
H1595 H 0.11511 0.87682 0.98783 0.0
C1596 C 0.34132 0.859 0.01367 0.0
C1597 C 0.35255 0.85845 0.9875 0.0
C1598 C 0.34299 0.86594 0.04844 0.0
C1599 C 0.36786 0.88862 0.1055 0.0
H1600 H 0.3512 0.86784 0.18954 0.0
C1601 C 0.38057 0.90502 0.25836 0.0
C1602 C 0.38352 0.89397 0.28388 0.0
C1603 C 0.3738 0.90224 0.22385 0.0
C1604 C 0.356 0.87375 0.16651 0.0
H1605 H 0.37413 0.8651 0.97618 0.0
H1606 H 0.3773 0.87693 0.03737 0.0
H1607 H 0.3458 0.86081 0.12487 0.0
H1608 H 0.38125 0.87145 0.29439 0.0
H1609 H 0.36977 0.86639 0.23367 0.0
H1610 H 0.37884 0.90092 0.14711 0.0
C1611 C 0.36702 0.87239 0.03087 0.0
C1612 C 0.35271 0.86987 0.12918 0.0
C1613 C 0.36522 0.86567 0.99564 0.0
C1614 C 0.37881 0.88019 0.27545 0.0
C1615 C 0.37228 0.87733 0.24048 0.0
C1616 C 0.37128 0.8924 0.14283 0.0
C1617 C 0.35608 0.87215 0.05834 0.0
C1618 C 0.35871 0.87714 0.09807 0.0
C1619 C 0.37019 0.88824 0.21357 0.0
C1620 C 0.36552 0.88492 0.17393 0.0
H1621 H 0.33146 0.85344 0.00798 0.0
H1622 H 0.33417 0.86588 0.0682 0.0
H1623 H 0.37256 0.89461 0.08248 0.0
H1624 H 0.38417 0.91573 0.26426 0.0
H1625 H 0.37199 0.911 0.20456 0.0
C1626 C 0.37982 0.09235 0.25563 0.0
C1627 C 0.38336 0.10291 0.22912 0.0
C1628 C 0.37349 0.09596 0.29018 0.0
C1629 C 0.3753 0.12421 0.35841 0.0
H1630 H 0.34384 0.10561 0.40942 0.0
C1631 C 0.36525 0.13192 0.5182 0.0
C1632 C 0.3518 0.13777 0.52541 0.0
C1633 C 0.36814 0.12566 0.48292 0.0
C1634 C 0.3527 0.1108 0.39551 0.0
H1635 H 0.38256 0.12544 0.21694 0.0
H1636 H 0.37168 0.13185 0.27797 0.0
H1637 H 0.34927 0.09967 0.34303 0.0
H1638 H 0.3306 0.14089 0.50305 0.0
H1639 H 0.33546 0.1294 0.44215 0.0
H1640 H 0.37894 0.13514 0.41087 0.0
C1641 C 0.37364 0.12075 0.27169 0.0
C1642 C 0.35575 0.10747 0.3576 0.0
C1643 C 0.37969 0.11708 0.23667 0.0
C1644 C 0.341 0.13628 0.49818 0.0
C1645 C 0.34379 0.12975 0.46336 0.0
C1646 C 0.37244 0.12732 0.39643 0.0
C1647 C 0.37091 0.11025 0.29922 0.0
C1648 C 0.36703 0.11423 0.33863 0.0
C1649 C 0.35753 0.12492 0.45478 0.0
C1650 C 0.36109 0.12069 0.41534 0.0
H1651 H 0.38271 0.08136 0.25052 0.0
H1652 H 0.37157 0.08767 0.31091 0.0
H1653 H 0.38419 0.12942 0.34464 0.0
H1654 H 0.37379 0.1332 0.53854 0.0
H1655 H 0.37881 0.12195 0.47699 0.0
C1656 C 0.88707 0.9042 0.26264 0.0
C1657 C 0.88781 0.89289 0.23681 0.0
C1658 C 0.88017 0.90256 0.29749 0.0
C1659 C 0.85791 0.87744 0.35511 0.0
H1660 H 0.87793 0.89514 0.43891 0.0
C1661 C 0.86643 0.86747 0.52542 0.0
C1662 C 0.85285 0.8622 0.53378 0.0
C1663 C 0.86907 0.87403 0.49037 0.0
C1664 C 0.87223 0.89004 0.41596 0.0
H1665 H 0.88165 0.87113 0.22623 0.0
H1666 H 0.86992 0.86797 0.28754 0.0
H1667 H 0.885 0.9004 0.37422 0.0
H1668 H 0.83119 0.86045 0.51385 0.0
H1669 H 0.83547 0.87271 0.454 0.0
H1670 H 0.84584 0.86628 0.39683 0.0
C1671 C 0.87423 0.87832 0.28072 0.0
C1672 C 0.87614 0.89325 0.37858 0.0
C1673 C 0.88091 0.8801 0.24543 0.0
C1674 C 0.84173 0.86456 0.50805 0.0
C1675 C 0.84428 0.87136 0.47345 0.0
C1676 C 0.85413 0.87408 0.39247 0.0
C1677 C 0.87421 0.88939 0.30781 0.0
C1678 C 0.86915 0.88687 0.34754 0.0
C1679 C 0.85812 0.87556 0.46326 0.0
C1680 C 0.86135 0.8802 0.42352 0.0
H1681 H 0.89242 0.91415 0.25657 0.0
H1682 H 0.88003 0.91147 0.31692 0.0
H1683 H 0.85212 0.87244 0.33215 0.0
H1684 H 0.87524 0.86544 0.5445 0.0
H1685 H 0.87991 0.87697 0.48366 0.0
C1686 C 0.87918 0.11627 0.26959 0.0
C1687 C 0.88449 0.10261 0.27684 0.0
C1688 C 0.87298 0.11936 0.23439 0.0
C1689 C 0.85717 0.10473 0.14747 0.0
H1690 H 0.87802 0.13454 0.09561 0.0
C1691 C 0.84091 0.13341 0.00761 0.0
C1692 C 0.85173 0.13573 0.98086 0.0
C1693 C 0.84391 0.12673 0.04211 0.0
C1694 C 0.87218 0.12613 0.10967 0.0
H1695 H 0.88663 0.08125 0.2547 0.0
H1696 H 0.87521 0.0865 0.19392 0.0
H1697 H 0.88342 0.12914 0.16193 0.0
H1698 H 0.87399 0.13248 0.96816 0.0
H1699 H 0.87937 0.121 0.02911 0.0
H1700 H 0.84571 0.10199 0.09519 0.0
C1701 C 0.87597 0.09483 0.21504 0.0
C1702 C 0.87512 0.12319 0.14772 0.0
C1703 C 0.88247 0.09183 0.24978 0.0
C1704 C 0.86543 0.13051 0.98807 0.0
C1705 C 0.86852 0.12412 0.02302 0.0
C1706 C 0.854 0.10791 0.10954 0.0
C1707 C 0.87172 0.10875 0.20641 0.0
C1708 C 0.86768 0.11244 0.16697 0.0
C1709 C 0.85787 0.12261 0.0508 0.0
C1710 C 0.86157 0.11856 0.09023 0.0
H1711 H 0.88086 0.12479 0.2898 0.0
H1712 H 0.86974 0.13017 0.22835 0.0
H1713 H 0.85136 0.09634 0.16168 0.0
H1714 H 0.83032 0.13756 1.00279 0.0
H1715 H 0.83555 0.12578 0.0631 0.0
C1716 C 0.60513 0.09173 0.76953 0.0
C1717 C 0.60496 0.103 0.7435 0.0
C1718 C 0.61208 0.09314 0.80438 0.0
C1719 C 0.61678 0.10225 0.88539 0.0
H1720 H 0.64796 0.12824 0.903 0.0
C1721 C 0.62752 0.1277 0.03204 0.0
C1722 C 0.6412 0.13276 0.04009 0.0
C1723 C 0.62467 0.12118 0.99707 0.0
C1724 C 0.63942 0.12069 0.89885 0.0
H1725 H 0.61212 0.12443 0.73263 0.0
H1726 H 0.62388 0.12721 0.79399 0.0
H1727 H 0.64138 0.12222 0.83852 0.0
H1728 H 0.66283 0.13415 0.0197 0.0
H1729 H 0.65819 0.12188 0.96004 0.0
H1730 H 0.61508 0.10041 0.94573 0.0
C1731 C 0.61911 0.11704 0.78732 0.0
C1732 C 0.63546 0.11743 0.86156 0.0
C1733 C 0.6124 0.11549 0.75201 0.0
C1734 C 0.65221 0.1302 0.01413 0.0
C1735 C 0.64946 0.12341 0.97963 0.0
C1736 C 0.62088 0.10533 0.92268 0.0
C1737 C 0.61865 0.10604 0.81454 0.0
C1738 C 0.62389 0.10839 0.8542 0.0
C1739 C 0.63551 0.11944 0.96972 0.0
C1740 C 0.63208 0.11484 0.93005 0.0
H1741 H 0.59937 0.08201 0.76351 0.0
H1742 H 0.61183 0.08425 0.82388 0.0
H1743 H 0.60767 0.09539 0.88123 0.0
H1744 H 0.6188 0.12988 0.0513 0.0
H1745 H 0.61376 0.11843 0.99062 0.0
C1746 C 0.61494 0.8803 0.76032 0.0
C1747 C 0.6087 0.89342 0.76895 0.0
C1748 C 0.62165 0.87823 0.7252 0.0
C1749 C 0.62103 0.89342 0.62748 0.0
H1750 H 0.64974 0.86471 0.60989 0.0
C1751 C 0.65422 0.86283 0.49875 0.0
C1752 C 0.64312 0.86131 0.47249 0.0
C1753 C 0.65194 0.86968 0.5334 0.0
C1754 C 0.64192 0.87299 0.61405 0.0
H1755 H 0.60526 0.91492 0.74935 0.0
H1756 H 0.61774 0.91169 0.6893 0.0
H1757 H 0.64357 0.87117 0.6744 0.0
H1758 H 0.62108 0.86611 0.46093 0.0
H1759 H 0.61683 0.8777 0.5219 0.0
H1760 H 0.61965 0.89551 0.56713 0.0
C1761 C 0.61706 0.90277 0.7086 0.0
C1762 C 0.63818 0.87653 0.65133 0.0
C1763 C 0.61011 0.90472 0.74328 0.0
C1764 C 0.62988 0.86746 0.48044 0.0
C1765 C 0.62748 0.87406 0.51556 0.0
C1766 C 0.62492 0.89004 0.59019 0.0
C1767 C 0.62238 0.88932 0.69827 0.0
C1768 C 0.62748 0.88659 0.65866 0.0
C1769 C 0.63835 0.87479 0.54315 0.0
C1770 C 0.63522 0.87957 0.58285 0.0
H1771 H 0.61366 0.87135 0.77939 0.0
H1772 H 0.62544 0.86768 0.71837 0.0
H1773 H 0.61259 0.90108 0.63163 0.0
H1774 H 0.66451 0.85806 0.49323 0.0
H1775 H 0.66071 0.87041 0.5532 0.0
C1776 C 0.63266 0.62869 0.98896 0.0
C1777 C 0.64533 0.63583 0.98041 0.0
C1778 C 0.63105 0.62187 0.02408 0.0
C1779 C 0.64599 0.62415 0.12166 0.0
H1780 H 0.61914 0.5938 0.14064 0.0
C1781 C 0.61692 0.59055 0.25187 0.0
C1782 C 0.61427 0.60188 0.27678 0.0
C1783 C 0.62392 0.59285 0.21745 0.0
C1784 C 0.62692 0.60211 0.13608 0.0
H1785 H 0.66661 0.64058 0.9999 0.0
H1786 H 0.66421 0.62791 0.05988 0.0
H1787 H 0.62543 0.59974 0.07582 0.0
H1788 H 0.61729 0.62436 0.28634 0.0
H1789 H 0.62917 0.6286 0.22575 0.0
H1790 H 0.64769 0.62632 0.18194 0.0
C1791 C 0.65526 0.628 0.04057 0.0
C1792 C 0.63035 0.60568 0.09863 0.0
C1793 C 0.65675 0.63506 1.00593 0.0
C1794 C 0.61951 0.61541 0.26789 0.0
C1795 C 0.62627 0.61781 0.23299 0.0
C1796 C 0.6427 0.62045 0.15911 0.0
C1797 C 0.64217 0.62191 0.051 0.0
C1798 C 0.63971 0.61695 0.09081 0.0
C1799 C 0.62806 0.60664 0.20663 0.0
C1800 C 0.63288 0.60957 0.16692 0.0
H1801 H 0.62362 0.62943 0.97001 0.0
H1802 H 0.62075 0.61743 0.03099 0.0
H1803 H 0.65308 0.63303 0.11708 0.0
H1804 H 0.61288 0.58002 0.25815 0.0
H1805 H 0.62548 0.5839 0.1986 0.0
C1806 C 0.62661 0.3623 0.51948 0.0
C1807 C 0.64047 0.35841 0.52984 0.0
C1808 C 0.62406 0.36863 0.4842 0.0
C1809 C 0.63862 0.38783 0.40352 0.0
H1810 H 0.61392 0.36403 0.3423 0.0
C1811 C 0.60953 0.40412 0.26464 0.0
C1812 C 0.60935 0.39419 0.23488 0.0
C1813 C 0.61623 0.40092 0.29898 0.0
C1814 C 0.62094 0.3707 0.35893 0.0
H1815 H 0.66256 0.35854 0.51281 0.0
H1816 H 0.65817 0.3703 0.45171 0.0
H1817 H 0.61887 0.35749 0.40814 0.0
H1818 H 0.6165 0.37341 0.21678 0.0
H1819 H 0.62797 0.3676 0.27749 0.0
H1820 H 0.64023 0.40133 0.35446 0.0
C1821 C 0.64932 0.36841 0.47072 0.0
C1822 C 0.62363 0.36706 0.39668 0.0
C1823 C 0.65183 0.36178 0.50565 0.0
C1824 C 0.6167 0.38131 0.23915 0.0
C1825 C 0.62312 0.37796 0.27391 0.0
C1826 C 0.63565 0.39167 0.36588 0.0
C1827 C 0.63536 0.37135 0.45908 0.0
C1828 C 0.63243 0.37561 0.41936 0.0
C1829 C 0.62256 0.38757 0.30449 0.0
C1830 C 0.6268 0.38311 0.34324 0.0
H1831 H 0.61767 0.35943 0.53733 0.0
H1832 H 0.6132 0.37079 0.47575 0.0
H1833 H 0.64551 0.39453 0.42047 0.0
H1834 H 0.60384 0.41408 0.26201 0.0
H1835 H 0.61556 0.40848 0.32212 0.0
C1836 C 0.88864 0.40426 0.75708 0.0
C1837 C 0.88938 0.39344 0.7844 0.0
C1838 C 0.88179 0.40195 0.72247 0.0
C1839 C 0.85953 0.37578 0.66825 0.0
H1840 H 0.87902 0.39252 0.58216 0.0
C1841 C 0.84236 0.36136 0.51697 0.0
C1842 C 0.85323 0.35903 0.49045 0.0
C1843 C 0.84519 0.36828 0.55122 0.0
C1844 C 0.87348 0.38766 0.60577 0.0
H1845 H 0.88317 0.3719 0.79783 0.0
H1846 H 0.87159 0.36757 0.73686 0.0
H1847 H 0.88639 0.39864 0.64602 0.0
H1848 H 0.87547 0.36245 0.47798 0.0
H1849 H 0.88067 0.37412 0.53833 0.0
H1850 H 0.84734 0.364 0.62804 0.0
C1851 C 0.87589 0.37804 0.74233 0.0
C1852 C 0.87755 0.39138 0.64266 0.0
C1853 C 0.8825 0.38049 0.77741 0.0
C1854 C 0.86685 0.3644 0.49775 0.0
C1855 C 0.8698 0.37105 0.53249 0.0
C1856 C 0.85561 0.3719 0.63136 0.0
C1857 C 0.87585 0.3886 0.71384 0.0
C1858 C 0.87073 0.3854 0.67453 0.0
C1859 C 0.8591 0.37265 0.5603 0.0
C1860 C 0.86261 0.37768 0.59951 0.0
H1861 H 0.8939 0.41435 0.76192 0.0
H1862 H 0.88161 0.41052 0.70196 0.0
H1863 H 0.85386 0.37108 0.69184 0.0
H1864 H 0.83176 0.35725 0.51189 0.0
H1865 H 0.83655 0.36969 0.57117 0.0
C1866 C 0.8817 0.61711 0.74798 0.0
C1867 C 0.88741 0.60354 0.74165 0.0
C1868 C 0.87521 0.62031 0.78277 0.0
C1869 C 0.85886 0.60613 0.86915 0.0
H1870 H 0.87908 0.63624 0.92163 0.0
C1871 C 0.84119 0.63536 0.00734 0.0
C1872 C 0.85166 0.63724 0.03531 0.0
C1873 C 0.84452 0.62885 0.97282 0.0
C1874 C 0.8734 0.62777 0.90737 0.0
H1875 H 0.89 0.58243 0.76508 0.0
H1876 H 0.87805 0.58784 0.82509 0.0
H1877 H 0.88521 0.63053 0.85587 0.0
H1878 H 0.87367 0.63339 0.04996 0.0
H1879 H 0.87964 0.62227 0.98888 0.0
H1880 H 0.84681 0.60366 0.9206 0.0
C1881 C 0.87874 0.59603 0.80355 0.0
C1882 C 0.87677 0.62463 0.86967 0.0
C1883 C 0.88553 0.59294 0.76926 0.0
C1884 C 0.86536 0.63182 0.02907 0.0
C1885 C 0.8688 0.62561 0.99408 0.0
C1886 C 0.85524 0.60951 0.9067 0.0
C1887 C 0.87405 0.60988 0.81123 0.0
C1888 C 0.86958 0.61376 0.85023 0.0
C1889 C 0.85849 0.62445 0.96529 0.0
C1890 C 0.86259 0.62028 0.92622 0.0
H1891 H 0.88325 0.62552 0.72737 0.0
H1892 H 0.87164 0.63107 0.78808 0.0
H1893 H 0.85323 0.59765 0.8548 0.0
H1894 H 0.83059 0.63961 0.01144 0.0
H1895 H 0.83642 0.62815 0.95104 0.0
C1896 C 0.34201 0.36347 0.00705 0.0
C1897 C 0.35321 0.361 0.03245 0.0
C1898 C 0.34445 0.37037 0.97255 0.0
C1899 C 0.37232 0.38903 0.91466 0.0
H1900 H 0.35206 0.3714 0.83114 0.0
C1901 C 0.38725 0.40277 0.76119 0.0
C1902 C 0.38796 0.39137 0.73563 0.0
C1903 C 0.3803 0.40126 0.796 0.0
C1904 C 0.35789 0.37641 0.85401 0.0
H1905 H 0.37563 0.36418 0.04272 0.0
H1906 H 0.38013 0.37588 0.98207 0.0
H1907 H 0.34582 0.36535 0.8959 0.0
H1908 H 0.3817 0.36961 0.72546 0.0
H1909 H 0.36988 0.3667 0.78673 0.0
H1910 H 0.3851 0.39928 0.87277 0.0
C1911 C 0.36931 0.37295 0.98898 0.0
C1912 C 0.35413 0.37312 0.89143 0.0
C1913 C 0.36676 0.36629 0.02393 0.0
C1914 C 0.38099 0.37864 0.74446 0.0
C1915 C 0.37426 0.37701 0.77971 0.0
C1916 C 0.3762 0.39217 0.87725 0.0
C1917 C 0.35828 0.37457 0.96213 0.0
C1918 C 0.36141 0.37923 0.92237 0.0
C1919 C 0.37425 0.38816 0.80655 0.0
C1920 C 0.36917 0.38577 0.84631 0.0
H1921 H 0.33148 0.35935 0.01298 0.0
H1922 H 0.3356 0.37179 0.9533 0.0
H1923 H 0.37807 0.39412 0.93754 0.0
H1924 H 0.39266 0.41266 0.75495 0.0
H1925 H 0.38018 0.41023 0.81525 0.0
C1926 C 0.38498 0.58964 0.74743 0.0
C1927 C 0.38707 0.60037 0.77458 0.0
C1928 C 0.37859 0.59273 0.71262 0.0
C1929 C 0.37812 0.62114 0.64541 0.0
H1930 H 0.34861 0.60024 0.59245 0.0
C1931 C 0.36878 0.62876 0.4858 0.0
C1932 C 0.35514 0.63411 0.4785 0.0
C1933 C 0.37175 0.62225 0.52068 0.0
C1934 C 0.35693 0.60607 0.60691 0.0
H1935 H 0.38365 0.62258 0.7876 0.0
H1936 H 0.37272 0.62813 0.72601 0.0
H1937 H 0.3541 0.5945 0.65898 0.0
H1938 H 0.3337 0.63606 0.50013 0.0
H1939 H 0.33871 0.62408 0.5603 0.0
H1940 H 0.38121 0.63251 0.59339 0.0
C1941 C 0.37583 0.61728 0.73203 0.0
C1942 C 0.36001 0.60285 0.64488 0.0
C1943 C 0.38193 0.6141 0.76731 0.0
C1944 C 0.34425 0.6318 0.50503 0.0
C1945 C 0.34712 0.62501 0.53944 0.0
C1946 C 0.37527 0.62414 0.60734 0.0
C1947 C 0.37451 0.6067 0.70399 0.0
C1948 C 0.37056 0.61045 0.66452 0.0
C1949 C 0.36103 0.62078 0.54829 0.0
C1950 C 0.36463 0.61666 0.58774 0.0
H1951 H 0.38899 0.579 0.75238 0.0
H1952 H 0.37777 0.58441 0.69146 0.0
H1953 H 0.38645 0.62702 0.65975 0.0
H1954 H 0.37741 0.63071 0.46608 0.0
H1955 H 0.38256 0.61904 0.52688 0.0
C1956 C 0.13093 0.63033 0.52236 0.0
C1957 C 0.14427 0.6363 0.53006 0.0
C1958 C 0.12845 0.62354 0.48756 0.0
C1959 C 0.14297 0.62363 0.38921 0.0
H1960 H 0.11342 0.59566 0.37316 0.0
C1961 C 0.11603 0.61519 0.24334 0.0
C1962 C 0.10967 0.60203 0.23568 0.0
C1963 C 0.12275 0.61756 0.2783 0.0
C1964 C 0.12192 0.60328 0.37691 0.0
H1965 H 0.16575 0.63899 0.50936 0.0
H1966 H 0.16177 0.62634 0.44996 0.0
H1967 H 0.12045 0.60171 0.43734 0.0
H1968 H 0.10626 0.5807 0.25667 0.0
H1969 H 0.11874 0.58445 0.3164 0.0
H1970 H 0.1447 0.62493 0.32878 0.0
C1971 C 0.153 0.62736 0.46966 0.0
C1972 C 0.12579 0.60694 0.41398 0.0
C1973 C 0.15537 0.63441 0.50397 0.0
C1974 C 0.1111 0.59095 0.26205 0.0
C1975 C 0.11807 0.5932 0.29653 0.0
C1976 C 0.13925 0.61982 0.35213 0.0
C1977 C 0.13934 0.62242 0.46012 0.0
C1978 C 0.13619 0.61737 0.42073 0.0
C1979 C 0.12341 0.60671 0.30596 0.0
C1980 C 0.12847 0.60978 0.34538 0.0
H1981 H 0.12215 0.63194 0.54179 0.0
H1982 H 0.11775 0.62002 0.48134 0.0
H1983 H 0.15087 0.63188 0.39294 0.0
H1984 H 0.11482 0.62396 0.22368 0.0
H1985 H 0.1266 0.62815 0.28443 0.0
C1986 C 0.11545 0.3784 0.26865 0.0
C1987 C 0.10933 0.39164 0.27664 0.0
C1988 C 0.12248 0.37617 0.23407 0.0
C1989 C 0.13943 0.37396 0.16106 0.0
H1990 H 0.12187 0.39332 0.07596 0.0
C1991 C 0.15587 0.35973 0.00913 0.0
C1992 C 0.14489 0.35858 0.98237 0.0
C1993 C 0.15357 0.36656 0.04377 0.0
C1994 C 0.12686 0.38774 0.09928 0.0
H1995 H 0.10656 0.4132 0.25674 0.0
H1996 H 0.11964 0.40968 0.19777 0.0
H1997 H 0.11462 0.39917 0.14007 0.0
H1998 H 0.12307 0.36404 0.96988 0.0
H1999 H 0.11875 0.37554 0.03092 0.0
H2000 H 0.15086 0.36174 0.1202 0.0
C2001 C 0.11857 0.40079 0.21704 0.0
C2002 C 0.12288 0.39128 0.13635 0.0
C2003 C 0.11128 0.4029 0.25111 0.0
C2004 C 0.13177 0.36504 0.98987 0.0
C2005 C 0.12933 0.37161 0.02499 0.0
C2006 C 0.14325 0.37025 0.12398 0.0
C2007 C 0.12368 0.38722 0.20714 0.0
C2008 C 0.12897 0.38433 0.16784 0.0
C2009 C 0.14007 0.37203 0.05298 0.0
C2010 C 0.13689 0.37696 0.09247 0.0
H2011 H 0.11379 0.36949 0.28764 0.0
H2012 H 0.12611 0.36553 0.22756 0.0
H2013 H 0.14455 0.3685 0.18439 0.0
H2014 H 0.1661 0.3548 1.00386 0.0
H2015 H 0.16225 0.36705 0.0639 0.0
C2016 C 0.28358 0.15409 0.60687 0.0
C2017 C 0.29681 0.15641 0.58964 0.0
C2018 C 0.27114 0.15426 0.58522 0.0
C2019 C 0.25698 0.16539 0.49104 0.0
H2020 H 0.22699 0.13864 0.5155 0.0
C2021 C 0.20945 0.15332 0.39169 0.0
C2022 C 0.19601 0.15379 0.40892 0.0
C2023 C 0.22177 0.15395 0.41381 0.0
C2024 C 0.23526 0.14622 0.50853 0.0
H2025 H 0.30754 0.16037 0.53626 0.0
H2026 H 0.28595 0.16031 0.49825 0.0
H2027 H 0.24847 0.13921 0.55415 0.0
H2028 H 0.18483 0.15485 0.46264 0.0
H2029 H 0.20635 0.15581 0.50135 0.0
H2030 H 0.24382 0.17205 0.44469 0.0
C2031 C 0.28503 0.15884 0.52863 0.0
C2032 C 0.24754 0.14662 0.53077 0.0
C2033 C 0.29742 0.15886 0.55037 0.0
C2034 C 0.19507 0.1547 0.44864 0.0
C2035 C 0.20736 0.15511 0.47077 0.0
C2036 C 0.24478 0.16484 0.46851 0.0
C2037 C 0.27172 0.15653 0.54574 0.0
C2038 C 0.25855 0.15623 0.52236 0.0
C2039 C 0.22081 0.15479 0.45356 0.0
C2040 C 0.23381 0.15527 0.47712 0.0
H2041 H 0.28289 0.15224 0.63715 0.0
H2042 H 0.26107 0.15269 0.59951 0.0
H2043 H 0.26511 0.1731 0.48409 0.0
H2044 H 0.21039 0.15263 0.36112 0.0
H2045 H 0.23204 0.15359 0.39992 0.0
C2046 C 0.08424 0.95934 0.64447 0.0
C2047 C 0.09034 0.94696 0.65968 0.0
C2048 C 0.08454 0.97207 0.66491 0.0
C2049 C 0.1022 0.9904 0.74521 0.0
H2050 H 0.06695 0.01169 0.74971 0.0
C2051 C 0.0931 0.03677 0.85078 0.0
C2052 C 0.08636 0.04889 0.83598 0.0
C2053 C 0.09391 0.02428 0.82931 0.0
C2054 C 0.07692 0.00595 0.74846 0.0
H2055 H 0.10225 0.93845 0.70723 0.0
H2056 H 0.10257 0.96054 0.74308 0.0
H2057 H 0.06835 0.99043 0.71051 0.0
H2058 H 0.07481 0.05722 0.78752 0.0
H2059 H 0.07645 0.03566 0.75007 0.0
H2060 H 0.11073 0.00594 0.78337 0.0
C2061 C 0.09757 0.96045 0.71539 0.0
C2062 C 0.07773 0.99379 0.72589 0.0
C2063 C 0.09724 0.94774 0.69502 0.0
C2064 C 0.08028 0.04818 0.79958 0.0
C2065 C 0.08106 0.03574 0.77824 0.0
C2066 C 0.10139 0.00258 0.76782 0.0
C2067 C 0.09101 0.9727 0.70087 0.0
C2068 C 0.09038 0.98588 0.72397 0.0
C2069 C 0.0879 0.02365 0.79277 0.0
C2070 C 0.08874 0.0105 0.76962 0.0
H2071 H 0.07881 0.95908 0.61741 0.0
H2072 H 0.07957 0.9814 0.65273 0.0
H2073 H 0.11214 0.98461 0.74403 0.0
H2074 H 0.09794 0.03703 0.87863 0.0
H2075 H 0.09914 0.01508 0.84142 0.0
C2076 C 0.19786 0.83761 0.05945 0.0
C2077 C 0.1982 0.8397 0.0989 0.0
C2078 C 0.21046 0.83643 0.03882 0.0
C2079 C 0.24905 0.84423 0.04465 0.0
H2080 H 0.25082 0.81888 0.9579 0.0
C2081 C 0.30107 0.83269 0.96354 0.0
C2082 C 0.30027 0.83437 0.92396 0.0
C2083 C 0.28871 0.83252 0.98547 0.0
C2084 C 0.25043 0.82603 0.98198 0.0
H2085 H 0.21186 0.84208 0.14782 0.0
H2086 H 0.234 0.83959 0.11206 0.0
H2087 H 0.22916 0.82002 0.99584 0.0
H2088 H 0.28606 0.83689 0.87619 0.0
H2089 H 0.26432 0.83636 0.91456 0.0
H2090 H 0.27047 0.85002 0.03096 0.0
C2091 C 0.22401 0.83919 0.09682 0.0
C2092 C 0.23802 0.82675 1.00365 0.0
C2093 C 0.21137 0.84056 0.11738 0.0
C2094 C 0.28689 0.83558 0.90664 0.0
C2095 C 0.27451 0.83521 0.92852 0.0
C2096 C 0.26152 0.84336 0.02326 0.0
C2097 C 0.22371 0.83715 0.05723 0.0
C2098 C 0.23712 0.83596 0.03506 0.0
C2099 C 0.27533 0.83386 0.96818 0.0
C2100 C 0.26228 0.83435 0.99158 0.0
H2101 H 0.18783 0.83722 0.0444 0.0
H2102 H 0.20979 0.83521 0.00831 0.0
H2103 H 0.24869 0.85162 0.06818 0.0
H2104 H 0.31126 0.83198 0.97767 0.0
H2105 H 0.28961 0.83142 0.01598 0.0
C2106 C 0.41616 0.95462 0.33807 0.0
C2107 C 0.40311 0.94918 0.35089 0.0
C2108 C 0.41656 0.96661 0.31471 0.0
C2109 C 0.39456 0.98584 0.24618 0.0
H2110 H 0.42143 0.01659 0.26096 0.0
C2111 C 0.38971 0.03932 0.1686 0.0
C2112 C 0.4022 0.04636 0.1575 0.0
C2113 C 0.3904 0.02689 0.19007 0.0
C2114 C 0.41402 0.00797 0.25607 0.0
H2115 H 0.38025 0.95221 0.34991 0.0
H2116 H 0.38096 0.97322 0.30956 0.0
H2117 H 0.4215 0.99641 0.3045 0.0
H2118 H 0.4252 0.04558 0.15873 0.0
H2119 H 0.42645 0.02371 0.19601 0.0
H2120 H 0.38708 0.99731 0.19778 0.0
C2121 C 0.39088 0.96814 0.31734 0.0
C2122 C 0.41402 0.99646 0.2811 0.0
C2123 C 0.39048 0.95622 0.34085 0.0
C2124 C 0.41541 0.04045 0.16729 0.0
C2125 C 0.41611 0.02798 0.1887 0.0
C2126 C 0.3946 0.99729 0.22106 0.0
C2127 C 0.4039 0.97331 0.30354 0.0
C2128 C 0.40418 0.98537 0.27663 0.0
C2129 C 0.4036 0.02119 0.20083 0.0
C2130 C 0.40422 0.00856 0.22596 0.0
H2131 H 0.42604 0.94945 0.34562 0.0
H2132 H 0.42675 0.97034 0.30441 0.0
H2133 H 0.38704 0.97729 0.24162 0.0
H2134 H 0.37936 0.04371 0.16214 0.0
H2135 H 0.38056 0.02206 0.19944 0.0
C2136 C 0.71023 0.83852 0.39621 0.0
C2137 C 0.69672 0.83716 0.41269 0.0
C2138 C 0.72244 0.83795 0.41876 0.0
C2139 C 0.73474 0.84513 0.51477 0.0
H2140 H 0.76717 0.82184 0.48752 0.0
C2141 C 0.78412 0.84105 0.61148 0.0
C2142 C 0.79743 0.84024 0.5937 0.0
C2143 C 0.77164 0.83999 0.59012 0.0
C2144 C 0.75829 0.82856 0.4953 0.0
H2145 H 0.68531 0.83431 0.46561 0.0
H2146 H 0.70665 0.83341 0.50509 0.0
H2147 H 0.74582 0.82123 0.4483 0.0
H2148 H 0.80821 0.83817 0.53965 0.0
H2149 H 0.78654 0.83671 0.5022 0.0
H2150 H 0.74726 0.85285 0.56098 0.0
C2151 C 0.70779 0.83479 0.47471 0.0
C2152 C 0.74605 0.82814 0.4729 0.0
C2153 C 0.69561 0.83515 0.45211 0.0
C2154 C 0.79807 0.83852 0.55416 0.0
C2155 C 0.78563 0.83765 0.53274 0.0
C2156 C 0.74704 0.84569 0.53691 0.0
C2157 C 0.72131 0.83625 0.45827 0.0
C2158 C 0.73418 0.83643 0.4824 0.0
C2159 C 0.77224 0.83831 0.55043 0.0
C2160 C 0.759 0.83745 0.52742 0.0
H2161 H 0.71131 0.84008 0.3659 0.0
H2162 H 0.73275 0.83921 0.40544 0.0
H2163 H 0.72577 0.85176 0.52244 0.0
H2164 H 0.78339 0.84229 0.64197 0.0
H2165 H 0.76153 0.84033 0.60481 0.0
C2166 C 0.91068 0.95996 0.14106 0.0
C2167 C 0.90421 0.94765 0.15558 0.0
C2168 C 0.91025 0.97269 0.16157 0.0
C2169 C 0.8915 0.99091 0.24024 0.0
H2170 H 0.92674 0.01199 0.25013 0.0
C2171 C 0.8984 0.035 0.35182 0.0
C2172 C 0.90485 0.04764 0.33951 0.0
C2173 C 0.89859 0.02288 0.32893 0.0
C2174 C 0.91678 0.00629 0.24735 0.0
H2175 H 0.89159 0.93921 0.20189 0.0
H2176 H 0.89104 0.96125 0.23785 0.0
H2177 H 0.92583 0.99113 0.20904 0.0
H2178 H 0.9167 0.05739 0.29344 0.0
H2179 H 0.91715 0.03624 0.25383 0.0
H2180 H 0.88249 0.00599 0.2788 0.0
C2181 C 0.89641 0.96115 0.21065 0.0
C2182 C 0.91625 0.99438 0.22371 0.0
C2183 C 0.89686 0.94846 0.19024 0.0
C2184 C 0.91186 0.04778 0.30423 0.0
C2185 C 0.91207 0.03566 0.28138 0.0
C2186 C 0.89205 0.00279 0.26391 0.0
C2187 C 0.90328 0.97335 0.19686 0.0
C2188 C 0.90362 0.9865 0.22011 0.0
C2189 C 0.90525 0.02314 0.29322 0.0
C2190 C 0.90472 0.01055 0.26793 0.0
H2191 H 0.91648 0.95965 0.11455 0.0
H2192 H 0.9155 0.98197 0.14999 0.0
H2193 H 0.88156 0.98519 0.23763 0.0
H2194 H 0.89306 0.03453 0.37901 0.0
H2195 H 0.89345 0.01331 0.33912 0.0
C2196 C 0.7836 0.15531 0.90086 0.0
C2197 C 0.79693 0.15662 0.91834 0.0
C2198 C 0.77118 0.15562 0.92265 0.0
C2199 C 0.75789 0.14819 0.01773 0.0
H2200 H 0.7267 0.17324 0.99137 0.0
C2201 C 0.70951 0.15483 0.11625 0.0
C2202 C 0.69613 0.15624 0.09919 0.0
C2203 C 0.72186 0.15539 0.09427 0.0
C2204 C 0.73522 0.16603 0.99886 0.0
H2205 H 0.80784 0.15889 0.9722 0.0
H2206 H 0.78617 0.15931 0.01029 0.0
H2207 H 0.74802 0.17284 0.95192 0.0
H2208 H 0.68505 0.15904 0.04581 0.0
H2209 H 0.7065 0.15967 0.00723 0.0
H2210 H 0.74508 0.14104 0.06397 0.0
C2211 C 0.7853 0.1582 0.97977 0.0
C2212 C 0.74743 0.16585 0.9763 0.0
C2213 C 0.79767 0.1581 0.95797 0.0
C2214 C 0.69527 0.15823 0.05976 0.0
C2215 C 0.70759 0.1586 0.03769 0.0
C2216 C 0.74562 0.14822 0.04 0.0
C2217 C 0.77195 0.15697 0.96232 0.0
C2218 C 0.75889 0.15698 0.98566 0.0
C2219 C 0.72105 0.15715 0.05464 0.0
C2220 C 0.73414 0.15719 0.03096 0.0
H2221 H 0.78282 0.15415 0.87035 0.0
H2222 H 0.76099 0.15456 0.9086 0.0
H2223 H 0.76654 0.14113 0.02526 0.0
H2224 H 0.71039 0.15336 0.14664 0.0
H2225 H 0.73204 0.1545 0.10841 0.0
C2226 C 0.60032 0.04861 0.69297 0.0
C2227 C 0.59098 0.04888 0.66188 0.0
C2228 C 0.60211 0.03624 0.71418 0.0
C2229 C 0.59545 0.99738 0.71399 0.0
H2230 H 0.59699 0.00215 0.8233 0.0
C2231 C 0.6027 0.94952 0.81345 0.0
C2232 C 0.59421 0.94921 0.84624 0.0
C2233 C 0.60371 0.96186 0.79168 0.0
C2234 C 0.59649 0.00062 0.79286 0.0
H2235 H 0.57651 0.03635 0.62785 0.0
H2236 H 0.57939 0.01469 0.66532 0.0
H2237 H 0.59584 0.02297 0.78257 0.0
H2238 H 0.58041 0.96163 0.88253 0.0
H2239 H 0.58196 0.98319 0.84428 0.0
H2240 H 0.59547 0.97501 0.72438 0.0
C2241 C 0.58553 0.02399 0.67299 0.0
C2242 C 0.59603 0.01257 0.76943 0.0
C2243 C 0.58385 0.03638 0.65151 0.0
C2244 C 0.58714 0.96163 0.85761 0.0
C2245 C 0.58805 0.97397 0.83565 0.0
C2246 C 0.59583 0.98542 0.73744 0.0
C2247 C 0.59449 0.02386 0.70501 0.0
C2248 C 0.59545 0.0111 0.72971 0.0
C2249 C 0.59616 0.97415 0.80206 0.0
C2250 C 0.59629 0.98689 0.77717 0.0
H2251 H 0.60615 0.05806 0.70111 0.0
H2252 H 0.60936 0.03643 0.73805 0.0
H2253 H 0.59516 0.99586 0.68353 0.0
H2254 H 0.60845 0.94014 0.80441 0.0
H2255 H 0.61031 0.96172 0.7665 0.0
C2256 C 0.71033 0.66238 0.90121 0.0
C2257 C 0.69692 0.66221 0.91852 0.0
C2258 C 0.72263 0.66341 0.92323 0.0
C2259 C 0.73529 0.67183 0.02116 0.0
H2260 H 0.7682 0.6501 0.98909 0.0
C2261 C 0.78365 0.658 0.11694 0.0
C2262 C 0.79702 0.66078 0.10093 0.0
C2263 C 0.77133 0.6594 0.09507 0.0
C2264 C 0.75911 0.65629 0.99819 0.0
H2265 H 0.68574 0.66273 0.97222 0.0
H2266 H 0.70713 0.66404 0.01087 0.0
H2267 H 0.7469 0.65014 0.94987 0.0
H2268 H 0.8081 0.66702 0.0496 0.0
H2269 H 0.78659 0.66928 0.01126 0.0
H2270 H 0.7475 0.67744 0.07038 0.0
C2271 C 0.70825 0.66392 0.98028 0.0
C2272 C 0.74692 0.65641 0.97564 0.0
C2273 C 0.69597 0.66314 0.9582 0.0
C2274 C 0.79789 0.66506 0.06279 0.0
C2275 C 0.78563 0.66621 0.0408 0.0
C2276 C 0.74742 0.6715 0.04403 0.0
C2277 C 0.72176 0.664 0.96312 0.0
C2278 C 0.73485 0.66419 0.98678 0.0
C2279 C 0.77227 0.6633 0.05667 0.0
C2280 C 0.75942 0.66376 0.03264 0.0
H2281 H 0.71124 0.66174 0.87061 0.0
H2282 H 0.73281 0.66373 0.90893 0.0
H2283 H 0.72631 0.67814 0.03037 0.0
H2284 H 0.78279 0.65467 0.14627 0.0
H2285 H 0.76112 0.65701 0.10779 0.0
C2286 C 0.60253 0.5351 0.35751 0.0
C2287 C 0.59778 0.54768 0.34021 0.0
C2288 C 0.60454 0.52278 0.33606 0.0
C2289 C 0.61011 0.51036 0.2377 0.0
H2290 H 0.59582 0.47453 0.27626 0.0
C2291 C 0.59817 0.46179 0.14365 0.0
C2292 C 0.59961 0.44812 0.15924 0.0
C2293 C 0.60104 0.47382 0.16553 0.0
C2294 C 0.60016 0.48438 0.26536 0.0
H2295 H 0.59161 0.55725 0.28665 0.0
H2296 H 0.59477 0.53568 0.24942 0.0
H2297 H 0.59416 0.49575 0.3154 0.0
H2298 H 0.60625 0.43639 0.20927 0.0
H2299 H 0.6116 0.45736 0.24701 0.0
H2300 H 0.61583 0.499 0.18727 0.0
C2301 C 0.59707 0.53538 0.27953 0.0
C2302 C 0.59915 0.49656 0.28778 0.0
C2303 C 0.59502 0.54768 0.301 0.0
C2304 C 0.60506 0.44673 0.19623 0.0
C2305 C 0.60795 0.45877 0.21809 0.0
C2306 C 0.61114 0.49816 0.21526 0.0
C2307 C 0.6019 0.52281 0.2968 0.0
C2308 C 0.6039 0.50972 0.27396 0.0
C2309 C 0.60545 0.47243 0.20346 0.0
C2310 C 0.60597 0.48507 0.22862 0.0
H2311 H 0.60472 0.53482 0.38767 0.0
H2312 H 0.60835 0.51328 0.35013 0.0
H2313 H 0.61409 0.52032 0.22656 0.0
H2314 H 0.5942 0.46319 0.11506 0.0
H2315 H 0.59897 0.48419 0.15338 0.0
C2316 C 0.70917 0.33562 0.62442 0.0
C2317 C 0.69661 0.34133 0.60915 0.0
C2318 C 0.72184 0.33604 0.60364 0.0
C2319 C 0.73442 0.33833 0.50505 0.0
H2320 H 0.77094 0.34702 0.55044 0.0
C2321 C 0.78512 0.34633 0.4155 0.0
C2322 C 0.79785 0.34063 0.42972 0.0
C2323 C 0.77282 0.34639 0.43772 0.0
C2324 C 0.76084 0.34441 0.53745 0.0
H2325 H 0.6877 0.35277 0.56131 0.0
H2326 H 0.70972 0.35348 0.52518 0.0
H2327 H 0.74952 0.34755 0.58957 0.0
H2328 H 0.80763 0.33065 0.4788 0.0
H2329 H 0.78614 0.33038 0.51698 0.0
H2330 H 0.74569 0.3351 0.45303 0.0
C2331 C 0.70973 0.34838 0.55274 0.0
C2332 C 0.74858 0.34473 0.55986 0.0
C2333 C 0.69711 0.34797 0.57345 0.0
C2334 C 0.79798 0.33489 0.46659 0.0
C2335 C 0.78569 0.33494 0.48878 0.0
C2336 C 0.74666 0.33798 0.48269 0.0
C2337 C 0.72216 0.34218 0.56726 0.0
C2338 C 0.73524 0.34176 0.54383 0.0
C2339 C 0.77299 0.34076 0.4747 0.0
C2340 C 0.76 0.34104 0.4986 0.0
H2341 H 0.70909 0.33036 0.65174 0.0
H2342 H 0.73126 0.33111 0.61548 0.0
H2343 H 0.72432 0.33574 0.49204 0.0
H2344 H 0.78469 0.35077 0.38719 0.0
H2345 H 0.76324 0.35108 0.42617 0.0
C2346 C 0.91063 0.46057 0.86633 0.0
C2347 C 0.9119 0.44714 0.8494 0.0
C2348 C 0.91202 0.47288 0.84444 0.0
C2349 C 0.90599 0.48615 0.74988 0.0
H2350 H 0.93184 0.51667 0.77626 0.0
C2351 C 0.91055 0.53586 0.6557 0.0
C2352 C 0.91234 0.54895 0.67407 0.0
C2353 C 0.91196 0.52316 0.67588 0.0
C2354 C 0.92442 0.50835 0.76872 0.0
H2355 H 0.91538 0.43592 0.79649 0.0
H2356 H 0.91752 0.45747 0.75801 0.0
H2357 H 0.93122 0.49517 0.81496 0.0
H2358 H 0.91686 0.55916 0.72777 0.0
H2359 H 0.9188 0.53712 0.76347 0.0
H2360 H 0.89861 0.4994 0.70488 0.0
C2361 C 0.91569 0.45846 0.78826 0.0
C2362 C 0.92414 0.49602 0.79081 0.0
C2363 C 0.91458 0.44618 0.81025 0.0
C2364 C 0.9157 0.54917 0.71286 0.0
C2365 C 0.91685 0.5365 0.73323 0.0
C2366 C 0.90605 0.49856 0.72821 0.0
C2367 C 0.91438 0.4719 0.80515 0.0
C2368 C 0.91492 0.48485 0.78154 0.0
C2369 C 0.91488 0.52331 0.7151 0.0
C2370 C 0.91525 0.50986 0.73735 0.0
H2371 H 0.90854 0.4615 0.89646 0.0
H2372 H 0.91086 0.48316 0.85798 0.0
H2373 H 0.89867 0.4777 0.74247 0.0
H2374 H 0.90801 0.53551 0.62573 0.0
H2375 H 0.91068 0.51324 0.6607 0.0
C2376 C 0.21158 0.33985 0.89984 0.0
C2377 C 0.19824 0.33723 0.91623 0.0
C2378 C 0.2239 0.3391 0.9219 0.0
C2379 C 0.23633 0.34375 0.01859 0.0
H2380 H 0.26927 0.32209 0.98658 0.0
C2381 C 0.28597 0.33822 0.11377 0.0
C2382 C 0.29925 0.33808 0.0957 0.0
C2383 C 0.27347 0.33751 0.09241 0.0
C2384 C 0.26025 0.32836 0.99572 0.0
H2385 H 0.18721 0.33203 0.96843 0.0
H2386 H 0.20875 0.33086 0.0071 0.0
H2387 H 0.24788 0.32204 0.9475 0.0
H2388 H 0.30997 0.33769 0.0413 0.0
H2389 H 0.28826 0.3369 1.0039 0.0
H2390 H 0.24873 0.35051 0.06607 0.0
C2391 C 0.20968 0.33331 0.97716 0.0
C2392 C 0.24799 0.32826 0.97338 0.0
C2393 C 0.1974 0.33383 0.95499 0.0
C2394 C 0.29985 0.33747 0.05593 0.0
C2395 C 0.28739 0.33698 0.03455 0.0
C2396 C 0.24865 0.34403 0.04067 0.0
C2397 C 0.22302 0.336 0.96084 0.0
C2398 C 0.23594 0.33595 0.98464 0.0
C2399 C 0.27403 0.3369 0.05248 0.0
C2400 C 0.26078 0.33636 0.02948 0.0
H2401 H 0.21241 0.34252 0.87004 0.0
H2402 H 0.23407 0.34131 0.90876 0.0
H2403 H 0.22719 0.34989 0.02763 0.0
H2404 H 0.28531 0.33864 0.14444 0.0
H2405 H 0.26339 0.33727 0.10724 0.0
C2406 C 0.3993 0.53248 0.84977 0.0
C2407 C 0.40615 0.54498 0.83797 0.0
C2408 C 0.3996 0.52032 0.82707 0.0
C2409 C 0.40442 0.50922 0.72761 0.0
H2410 H 0.40843 0.4717 0.77172 0.0
C2411 C 0.41144 0.45759 0.63915 0.0
C2412 C 0.40437 0.44544 0.6526 0.0
C2413 C 0.41131 0.47017 0.66035 0.0
C2414 C 0.40714 0.48211 0.75902 0.0
H2415 H 0.41882 0.55443 0.79303 0.0
H2416 H 0.41965 0.53314 0.75403 0.0
H2417 H 0.40964 0.49257 0.8125 0.0
H2418 H 0.39079 0.43721 0.69715 0.0
H2419 H 0.3905 0.4591 0.73397 0.0
H2420 H 0.40195 0.49869 0.67407 0.0
C2421 C 0.41391 0.53279 0.78066 0.0
C2422 C 0.40785 0.49405 0.78239 0.0
C2423 C 0.41361 0.54495 0.80336 0.0
C2424 C 0.39658 0.44632 0.68654 0.0
C2425 C 0.39644 0.45884 0.70764 0.0
C2426 C 0.40374 0.49725 0.7042 0.0
C2427 C 0.40675 0.52041 0.79202 0.0
C2428 C 0.40643 0.50774 0.76699 0.0
C2429 C 0.40409 0.47078 0.69529 0.0
C2430 C 0.40499 0.48357 0.71973 0.0
H2431 H 0.39354 0.53218 0.87635 0.0
H2432 H 0.39388 0.51097 0.83649 0.0
H2433 H 0.40308 0.51962 0.71496 0.0
H2434 H 0.41759 0.45718 0.61321 0.0
H2435 H 0.41734 0.4792 0.65019 0.0
C2436 C 0.28756 0.65643 0.39857 0.0
C2437 C 0.30084 0.65765 0.41645 0.0
C2438 C 0.27506 0.65688 0.41996 0.0
C2439 C 0.26137 0.64934 0.51437 0.0
H2440 H 0.2302 0.67429 0.48711 0.0
C2441 C 0.21218 0.6554 0.61045 0.0
C2442 C 0.19894 0.65694 0.59269 0.0
C2443 C 0.22469 0.65599 0.58916 0.0
C2444 C 0.23871 0.66711 0.49484 0.0
H2445 H 0.31153 0.65999 0.47059 0.0
H2446 H 0.28968 0.66066 0.50801 0.0
H2447 H 0.25178 0.67415 0.44868 0.0
H2448 H 0.18827 0.65989 0.53878 0.0
H2449 H 0.21001 0.66052 0.50138 0.0
H2450 H 0.24828 0.64194 0.55977 0.0
C2451 C 0.28895 0.65951 0.47747 0.0
C2452 C 0.25107 0.66708 0.47288 0.0
C2453 C 0.30142 0.65927 0.45606 0.0
C2454 C 0.19838 0.65898 0.55325 0.0
C2455 C 0.21086 0.65936 0.53187 0.0
C2456 C 0.24894 0.64921 0.53603 0.0
C2457 C 0.27567 0.65829 0.45963 0.0
C2458 C 0.26251 0.65824 0.48255 0.0
C2459 C 0.22419 0.65789 0.54954 0.0
C2460 C 0.23746 0.65812 0.52661 0.0
H2461 H 0.28691 0.65516 0.36807 0.0
H2462 H 0.26492 0.65583 0.40562 0.0
H2463 H 0.27 0.6423 0.52212 0.0
H2464 H 0.21281 0.6539 0.64088 0.0
H2465 H 0.23476 0.65506 0.60385 0.0
C2466 C 0.08251 0.54847 0.20412 0.0
C2467 C 0.08601 0.54851 0.1654 0.0
C2468 C 0.08167 0.5357 0.22409 0.0
C2469 C 0.09365 0.49819 0.21875 0.0
H2470 H 0.06753 0.49356 0.30307 0.0
C2471 C 0.08542 0.44511 0.29788 0.0
C2472 C 0.08689 0.44588 0.3375 0.0
C2473 C 0.08466 0.4575 0.27623 0.0
C2474 C 0.0749 0.49477 0.27965 0.0
H2475 H 0.09096 0.5354 0.11682 0.0
H2476 H 0.08892 0.51292 0.15117 0.0
H2477 H 0.06672 0.51524 0.26512 0.0
H2478 H 0.08858 0.46001 0.38569 0.0
H2479 H 0.08693 0.48185 0.34773 0.0
H2480 H 0.10154 0.47751 0.23298 0.0
C2481 C 0.08724 0.52275 0.16653 0.0
C2482 C 0.0745 0.50719 0.25798 0.0
C2483 C 0.08831 0.53556 0.14673 0.0
C2484 C 0.08745 0.45923 0.35517 0.0
C2485 C 0.08643 0.47164 0.33356 0.0
C2486 C 0.09387 0.48569 0.24003 0.0
C2487 C 0.08413 0.52266 0.20564 0.0
C2488 C 0.08398 0.50913 0.22747 0.0
C2489 C 0.08514 0.47085 0.29389 0.0
C2490 C 0.08459 0.48394 0.27084 0.0
H2491 H 0.08098 0.55835 0.21931 0.0
H2492 H 0.07956 0.53612 0.25428 0.0
H2493 H 0.10131 0.49939 0.19604 0.0
H2494 H 0.08518 0.43493 0.28358 0.0
H2495 H 0.08364 0.45665 0.24568 0.0
C2496 C 0.13559 0.23067 0.37134 0.0
C2497 C 0.13584 0.22217 0.33851 0.0
C2498 C 0.13152 0.2449 0.36941 0.0
C2499 C 0.11022 0.2693 0.3113 0.0
H2500 H 0.12716 0.2979 0.37641 0.0
C2501 C 0.08195 0.32202 0.34447 0.0
C2502 C 0.09016 0.33447 0.34645 0.0
C2503 C 0.08846 0.30874 0.3413 0.0
C2504 C 0.12241 0.2901 0.35772 0.0
H2505 H 0.13242 0.22211 0.27767 0.0
H2506 H 0.12536 0.24709 0.27422 0.0
H2507 H 0.13763 0.27424 0.37325 0.0
H2508 H 0.11167 0.34273 0.34633 0.0
H2509 H 0.12307 0.31953 0.34074 0.0
H2510 H 0.09506 0.28517 0.29556 0.0
C2511 C 0.12816 0.24264 0.30156 0.0
C2512 C 0.12832 0.27649 0.3562 0.0
C2513 C 0.13222 0.22835 0.3035 0.0
C2514 C 0.10506 0.33333 0.34547 0.0
C2515 C 0.11158 0.32004 0.34218 0.0
C2516 C 0.10432 0.28291 0.31277 0.0
C2517 C 0.12759 0.25103 0.3346 0.0
C2518 C 0.12216 0.26586 0.33343 0.0
C2519 C 0.10335 0.30759 0.33988 0.0
C2520 C 0.1102 0.29341 0.33646 0.0
H2521 H 0.13799 0.22619 0.39892 0.0
H2522 H 0.13094 0.25095 0.39552 0.0
H2523 H 0.10513 0.26134 0.29372 0.0
H2524 H 0.07047 0.32253 0.34574 0.0
H2525 H 0.08181 0.29936 0.34043 0.0
C2526 C 0.91148 0.8556 0.60783 0.0
C2527 C 0.90939 0.84082 0.60559 0.0
C2528 C 0.92519 0.86133 0.60603 0.0
C2529 C 0.96293 0.85166 0.61909 0.0
H2530 H 0.97053 0.88449 0.55567 0.0
C2531 C 0.01992 0.86808 0.58434 0.0
C2532 C 0.02333 0.88256 0.58818 0.0
C2533 C 0.00578 0.86362 0.58427 0.0
C2534 C 0.96854 0.87539 0.57375 0.0
H2535 H 0.92007 0.8205 0.60065 0.0
H2536 H 0.94388 0.83045 0.59703 0.0
H2537 H 0.94618 0.87563 0.56191 0.0
H2538 H 0.01447 0.90377 0.59277 0.0
H2539 H 0.9897 0.89592 0.59315 0.0
H2540 H 0.98519 0.85134 0.63091 0.0
C2541 C 0.93497 0.83762 0.6004 0.0
C2542 C 0.9546 0.87034 0.5774 0.0
C2543 C 0.9213 0.83192 0.60207 0.0
C2544 C 0.0122 0.89253 0.59015 0.0
C2545 C 0.99802 0.88805 0.59009 0.0
C2546 C 0.9768 0.85668 0.61542 0.0
C2547 C 0.93708 0.85239 0.60221 0.0
C2548 C 0.95168 0.85832 0.59981 0.0
C2549 C 0.99469 0.8735 0.58819 0.0
C2550 C 0.9798 0.86849 0.59237 0.0
H2551 H 0.90251 0.86275 0.61014 0.0
H2552 H 0.92649 0.87275 0.60781 0.0
H2553 H 0.96099 0.84256 0.63719 0.0
H2554 H 0.02817 0.86007 0.58325 0.0
H2555 H 0.00355 0.85236 0.58206 0.0
C2556 C 0.39364 0.659 0.85671 0.0
C2557 C 0.40843 0.65685 0.85611 0.0
C2558 C 0.388 0.67274 0.85641 0.0
C2559 C 0.39741 0.71 0.87717 0.0
H2560 H 0.36556 0.71905 0.81154 0.0
C2561 C 0.38118 0.76763 0.84872 0.0
C2562 C 0.36661 0.77094 0.85004 0.0
C2563 C 0.38572 0.75353 0.84835 0.0
C2564 C 0.37436 0.71665 0.8303 0.0
H2565 H 0.42888 0.66747 0.85541 0.0
H2566 H 0.41907 0.69141 0.85437 0.0
H2567 H 0.3745 0.69468 0.81429 0.0
H2568 H 0.34538 0.76197 0.8507 0.0
H2569 H 0.35336 0.73723 0.85051 0.0
H2570 H 0.39734 0.73191 0.89314 0.0
C2571 C 0.41182 0.68247 0.85535 0.0
C2572 C 0.37947 0.7027 0.83191 0.0
C2573 C 0.41745 0.66875 0.85553 0.0
C2574 C 0.35668 0.75977 0.84992 0.0
C2575 C 0.36124 0.74561 0.84953 0.0
C2576 C 0.39232 0.72391 0.87555 0.0
C2577 C 0.39703 0.68463 0.8557 0.0
C2578 C 0.39114 0.69926 0.8551 0.0
C2579 C 0.37583 0.74236 0.84945 0.0
C2580 C 0.38084 0.72743 0.8518 0.0
H2581 H 0.3864 0.65006 0.8567 0.0
H2582 H 0.37656 0.67406 0.857 0.0
H2583 H 0.40623 0.70765 0.89588 0.0
H2584 H 0.38915 0.77593 0.8494 0.0
H2585 H 0.39703 0.75138 0.84767 0.0
C2586 C 0.48028 0.10524 0.06578 0.0
C2587 C 0.47371 0.10325 0.10123 0.0
C2588 C 0.49465 0.109 0.06361 0.0
C2589 C 0.52801 0.11093 0.11991 0.0
H2590 H 0.5368 0.14263 0.05367 0.0
C2591 C 0.58437 0.13553 0.10971 0.0
C2592 C 0.58496 0.15046 0.10914 0.0
C2593 C 0.57135 0.12848 0.10611 0.0
C2594 C 0.53451 0.13378 0.07236 0.0
H2595 H 0.47719 0.10357 0.16219 0.0
H2596 H 0.50211 0.10996 0.15833 0.0
H2597 H 0.5132 0.13199 0.05176 0.0
H2598 H 0.57232 0.16966 0.10531 0.0
H2599 H 0.54965 0.1574 0.09919 0.0
H2600 H 0.54915 0.11311 0.14158 0.0
C2601 C 0.49627 0.10838 0.13216 0.0
C2602 C 0.52104 0.12756 0.0709 0.0
C2603 C 0.48194 0.10468 0.13434 0.0
C2604 C 0.57225 0.15816 0.10525 0.0
C2605 C 0.55926 0.15113 0.10164 0.0
C2606 C 0.54149 0.11714 0.12133 0.0
C2607 C 0.50274 0.11082 0.09684 0.0
C2608 C 0.51755 0.11625 0.09519 0.0
C2609 C 0.55867 0.1362 0.10181 0.0
C2610 C 0.54479 0.12882 0.09811 0.0
H2611 H 0.47427 0.1041 0.03975 0.0
H2612 H 0.49939 0.11066 0.03594 0.0
H2613 H 0.52568 0.10212 0.1387 0.0
H2614 H 0.59397 0.12927 0.11205 0.0
H2615 H 0.57125 0.11697 0.10601 0.0
C2616 C 0.13443 0.76665 0.20421 0.0
C2617 C 0.1376 0.77268 0.1687 0.0
C2618 C 0.13039 0.75237 0.20696 0.0
C2619 C 0.12998 0.7183 0.15343 0.0
H2620 H 0.09725 0.70988 0.21638 0.0
C2621 C 0.10656 0.6616 0.16615 0.0
C2622 C 0.09165 0.66056 0.16568 0.0
C2623 C 0.11319 0.67486 0.16921 0.0
C2624 C 0.10637 0.71207 0.19856 0.0
H2625 H 0.13893 0.7684 0.10824 0.0
H2626 H 0.13197 0.74366 0.11305 0.0
H2627 H 0.1074 0.73369 0.21707 0.0
H2628 H 0.07205 0.67264 0.16717 0.0
H2629 H 0.08356 0.69573 0.17213 0.0
H2630 H 0.12859 0.69684 0.13374 0.0
C2631 C 0.13289 0.74982 0.13891 0.0
C2632 C 0.11231 0.72567 0.19936 0.0
C2633 C 0.13691 0.76404 0.13617 0.0
C2634 C 0.08354 0.67306 0.16804 0.0
C2635 C 0.09015 0.6863 0.17101 0.0
C2636 C 0.12403 0.7047 0.1526 0.0
C2637 C 0.12942 0.74384 0.17425 0.0
C2638 C 0.12404 0.72901 0.17632 0.0
C2639 C 0.10505 0.68735 0.1718 0.0
C2640 C 0.11201 0.70149 0.17468 0.0
H2641 H 0.13497 0.77299 0.22983 0.0
H2642 H 0.12794 0.74802 0.23467 0.0
H2643 H 0.13913 0.72049 0.13568 0.0
H2644 H 0.11312 0.65217 0.16499 0.0
H2645 H 0.12469 0.67529 0.17016 0.0
C2646 C 0.48265 0.89092 0.37763 0.0
C2647 C 0.47428 0.89185 0.41063 0.0
C2648 C 0.497 0.88732 0.37987 0.0
C2649 C 0.52169 0.86766 0.44041 0.0
H2650 H 0.5499 0.88281 0.37104 0.0
C2651 C 0.57293 0.83741 0.40523 0.0
C2652 C 0.58566 0.84511 0.40196 0.0
C2653 C 0.55995 0.84444 0.40891 0.0
C2654 C 0.54221 0.87858 0.39093 0.0
H2655 H 0.4746 0.89024 0.472 0.0
H2656 H 0.49977 0.88391 0.47594 0.0
H2657 H 0.52639 0.89369 0.37424 0.0
H2658 H 0.59473 0.86628 0.40002 0.0
H2659 H 0.572 0.87861 0.40625 0.0
H2660 H 0.53747 0.85253 0.45701 0.0
C2661 C 0.49513 0.88585 0.44829 0.0
C2662 C 0.5287 0.88474 0.39252 0.0
C2663 C 0.48073 0.88948 0.44606 0.0
C2664 C 0.5851 0.86004 0.40193 0.0
C2665 C 0.57208 0.8671 0.40563 0.0
C2666 C 0.53518 0.86152 0.4388 0.0
C2667 C 0.50336 0.88451 0.41514 0.0
C2668 C 0.5182 0.87916 0.41674 0.0
C2669 C 0.55938 0.85936 0.40945 0.0
C2670 C 0.5455 0.86672 0.41348 0.0
H2671 H 0.47799 0.89235 0.34979 0.0
H2672 H 0.50294 0.88612 0.35374 0.0
H2673 H 0.51382 0.86303 0.45914 0.0
H2674 H 0.57298 0.82591 0.40469 0.0
H2675 H 0.55033 0.83817 0.4109 0.0
C2676 C 0.35959 0.22969 0.70832 0.0
C2677 C 0.35589 0.22459 0.67213 0.0
C2678 C 0.36385 0.24383 0.7132 0.0
C2679 C 0.36429 0.27908 0.66564 0.0
H2680 H 0.39842 0.28515 0.72516 0.0
C2681 C 0.38992 0.33451 0.67944 0.0
C2682 C 0.40479 0.33503 0.67588 0.0
C2683 C 0.38293 0.32151 0.68374 0.0
C2684 C 0.3889 0.28362 0.70837 0.0
H2685 H 0.35368 0.23039 0.61279 0.0
H2686 H 0.361 0.25488 0.6213 0.0
H2687 H 0.38747 0.26168 0.72374 0.0
H2688 H 0.42399 0.32234 0.67424 0.0
H2689 H 0.41183 0.29962 0.68124 0.0
H2690 H 0.36607 0.30083 0.64881 0.0
C2691 C 0.36037 0.2481 0.64608 0.0
C2692 C 0.38251 0.27022 0.70797 0.0
C2693 C 0.35613 0.23402 0.64121 0.0
C2694 C 0.41254 0.32229 0.67729 0.0
C2695 C 0.40556 0.30928 0.68144 0.0
C2696 C 0.37069 0.29247 0.66597 0.0
C2697 C 0.36449 0.25312 0.68199 0.0
C2698 C 0.37028 0.26773 0.68601 0.0
C2699 C 0.39066 0.30873 0.68447 0.0
C2700 C 0.38321 0.29483 0.68679 0.0
H2701 H 0.35939 0.22271 0.73275 0.0
H2702 H 0.36679 0.24743 0.74132 0.0
H2703 H 0.35477 0.27756 0.6488 0.0
H2704 H 0.38367 0.34416 0.67925 0.0
H2705 H 0.37147 0.32148 0.68663 0.0
C2706 C 0.91608 0.15659 0.95034 0.0
C2707 C 0.90782 0.15524 0.91731 0.0
C2708 C 0.92933 0.14996 0.95301 0.0
C2709 C 0.95161 0.12187 0.90859 0.0
H2710 H 0.98262 0.14271 0.95515 0.0
C2711 C 0.01055 0.10898 0.8826 0.0
C2712 C 0.02009 0.10965 0.91335 0.0
C2713 C 0.99639 0.11303 0.88696 0.0
C2714 C 0.97402 0.13666 0.94262 0.0
H2715 H 0.90695 0.14593 0.86117 0.0
H2716 H 0.93021 0.13458 0.86534 0.0
H2717 H 0.95883 0.15295 0.9546 0.0
H2718 H 0.02194 0.11477 0.97323 0.0
H2719 H 0.99716 0.12217 0.98054 0.0
H2720 H 0.96698 0.1058 0.89549 0.0
C2721 C 0.92634 0.14049 0.8896 0.0
C2722 C 0.96037 0.14252 0.94228 0.0
C2723 C 0.91304 0.14704 0.88708 0.0
C2724 C 0.01497 0.11427 0.94882 0.0
C2725 C 0.00078 0.11848 0.95306 0.0
C2726 C 0.96528 0.11606 0.90869 0.0
C2727 C 0.93468 0.1419 0.92258 0.0
C2728 C 0.94902 0.13528 0.92483 0.0
C2729 C 0.99139 0.11802 0.92204 0.0
C2730 C 0.97666 0.12348 0.92527 0.0
H2731 H 0.91222 0.16261 0.9744 0.0
H2732 H 0.93531 0.15106 0.97909 0.0
H2733 H 0.94308 0.11586 0.89561 0.0
H2734 H 0.01411 0.10586 0.8546 0.0
H2735 H 0.98948 0.11279 0.86237 0.0
C2736 C 0.91263 0.67366 0.66798 0.0
C2737 C 0.90469 0.66102 0.6669 0.0
C2738 C 0.90584 0.68682 0.67033 0.0
C2739 C 0.87158 0.70462 0.65268 0.0
H2740 H 0.88823 0.73424 0.71503 0.0
C2741 C 0.85778 0.76377 0.63471 0.0
C2742 C 0.85739 0.77258 0.66693 0.0
C2743 C 0.8619 0.74958 0.63774 0.0
C2744 C 0.88331 0.72604 0.69791 0.0
H2745 H 0.88335 0.65231 0.66774 0.0
H2746 H 0.87147 0.67531 0.67183 0.0
H2747 H 0.89872 0.71058 0.71485 0.0
H2748 H 0.86052 0.77323 0.72786 0.0
H2749 H 0.86769 0.74833 0.73323 0.0
H2750 H 0.85613 0.72009 0.63587 0.0
C2751 C 0.88297 0.67503 0.67037 0.0
C2752 C 0.88944 0.71253 0.6974 0.0
C2753 C 0.88977 0.66185 0.66793 0.0
C2754 C 0.86085 0.76675 0.70247 0.0
C2755 C 0.86497 0.7525 0.70551 0.0
C2756 C 0.86543 0.71814 0.65323 0.0
C2757 C 0.89093 0.68767 0.67178 0.0
C2758 C 0.8838 0.70173 0.67429 0.0
C2759 C 0.86574 0.74381 0.67307 0.0
C2760 C 0.87136 0.72908 0.67537 0.0
H2761 H 0.92412 0.67339 0.66663 0.0
H2762 H 0.91229 0.69635 0.67054 0.0
H2763 H 0.867 0.69657 0.63443 0.0
H2764 H 0.8555 0.76798 0.60676 0.0
H2765 H 0.86263 0.74328 0.61207 0.0
C2766 C 0.97485 0.12339 0.42585 0.0
C2767 C 0.97139 0.10907 0.41912 0.0
C2768 C 0.98895 0.12792 0.42485 0.0
C2769 C 0.02631 0.11635 0.42818 0.0
H2770 H 0.0325 0.15075 0.36979 0.0
C2771 C 0.08263 0.13797 0.39327 0.0
C2772 C 0.08446 0.15273 0.39716 0.0
C2773 C 0.06904 0.13194 0.39521 0.0
C2774 C 0.03096 0.14121 0.3865 0.0
H2775 H 0.98014 0.08816 0.40796 0.0
H2776 H 0.0049 0.09616 0.40602 0.0
H2777 H 0.00852 0.14147 0.37708 0.0
H2778 H 0.07343 0.17274 0.40524 0.0
H2779 H 0.04989 0.16227 0.40935 0.0
H2780 H 0.04881 0.11621 0.43788 0.0
C2781 C 0.99663 0.10383 0.41213 0.0
C2782 C 0.01721 0.1359 0.3907 0.0
C2783 C 0.98246 0.09928 0.41304 0.0
C2784 C 0.07242 0.16133 0.40253 0.0
C2785 C 0.05888 0.15533 0.40446 0.0
C2786 C 0.04011 0.12172 0.4241 0.0
C2787 C -4e-05 0.11828 0.41702 0.0
C2788 C 0.01471 0.12352 0.41196 0.0
C2789 C 0.05702 0.14057 0.40093 0.0
C2790 C 0.04255 0.13431 0.40357 0.0
H2791 H 0.96661 0.13127 0.43006 0.0
H2792 H 0.99121 0.13909 0.42932 0.0
H2793 H 0.02469 0.10681 0.44481 0.0
H2794 H 0.09169 0.13103 0.38952 0.0
H2795 H 0.06795 0.12055 0.39207 0.0
C2796 C 0.64336 0.23305 0.16763 0.0
C2797 C 0.6331 0.22224 0.17101 0.0
C2798 C 0.63926 0.24734 0.16611 0.0
C2799 C 0.60837 0.26929 0.14019 0.0
H2800 H 0.62785 0.29956 0.19378 0.0
C2801 C 0.58373 0.32455 0.15842 0.0
C2802 C 0.59252 0.33657 0.15542 0.0
C2803 C 0.58953 0.31092 0.15834 0.0
C2804 C 0.62243 0.29124 0.1782 0.0
H2805 H 0.61048 0.21807 0.17617 0.0
H2806 H 0.60342 0.24288 0.17452 0.0
H2807 H 0.63645 0.2751 0.19937 0.0
H2808 H 0.61433 0.34368 0.1497 0.0
H2809 H 0.62453 0.31973 0.14914 0.0
H2810 H 0.59431 0.2853 0.11919 0.0
C2811 C 0.61462 0.24032 0.17255 0.0
C2812 C 0.62734 0.27724 0.18148 0.0
C2813 C 0.61871 0.22609 0.17411 0.0
C2814 C 0.60728 0.33462 0.15174 0.0
C2815 C 0.61312 0.32093 0.15183 0.0
C2816 C 0.60349 0.28323 0.13689 0.0
C2817 C 0.62481 0.25109 0.16773 0.0
C2818 C 0.62019 0.26609 0.16301 0.0
C2819 C 0.60429 0.30893 0.15525 0.0
C2820 C 0.61031 0.29434 0.15635 0.0
H2821 H 0.65454 0.23044 0.16541 0.0
H2822 H 0.64735 0.2554 0.16234 0.0
H2823 H 0.60284 0.26098 0.12482 0.0
H2824 H 0.57232 0.32568 0.16087 0.0
H2825 H 0.58244 0.30193 0.16146 0.0
C2826 C 0.41212 0.85781 0.91776 0.0
C2827 C 0.41152 0.84289 0.91813 0.0
C2828 C 0.42519 0.86485 0.92039 0.0
C2829 C 0.46268 0.85919 0.94953 0.0
H2830 H 0.47012 0.8918 0.88532 0.0
C2831 C 0.51706 0.88765 0.95111 0.0
C2832 C 0.52273 0.89071 0.91512 0.0
C2833 C 0.50279 0.88366 0.95497 0.0
C2834 C 0.46821 0.8827 0.90344 0.0
H2835 H 0.42417 0.82366 0.92053 0.0
H2836 H 0.44691 0.83587 0.92462 0.0
H2837 H 0.44669 0.88076 0.88452 0.0
H2838 H 0.51782 0.892 0.855 0.0
H2839 H 0.49314 0.88508 0.86171 0.0
H2840 H 0.48438 0.86071 0.96713 0.0
C2841 C 0.4373 0.84218 0.92328 0.0
C2842 C 0.45473 0.87646 0.90327 0.0
C2843 C 0.42426 0.83517 0.92079 0.0
C2844 C 0.51375 0.89003 0.88327 0.0
C2845 C 0.49955 0.88604 0.88711 0.0
C2846 C 0.47617 0.8654 0.94961 0.0
C2847 C 0.43793 0.8571 0.92334 0.0
C2848 C 0.45188 0.86447 0.92578 0.0
C2849 C 0.49393 0.88261 0.9229 0.0
C2850 C 0.47917 0.87707 0.92603 0.0
H2851 H 0.40248 0.86406 0.9163 0.0
H2852 H 0.42528 0.87636 0.92075 0.0
H2853 H 0.46077 0.85011 0.96772 0.0
H2854 H 0.52367 0.88818 0.97622 0.0
H2855 H 0.49874 0.88125 0.98301 0.0
C2856 C 0.91328 0.3233 0.85604 0.0
C2857 C 0.90548 0.33602 0.85686 0.0
C2858 C 0.90641 0.31026 0.85168 0.0
C2859 C 0.87165 0.29283 0.86365 0.0
H2860 H 0.88916 0.2633 0.80265 0.0
C2861 C 0.85745 0.23381 0.8793 0.0
C2862 C 0.85741 0.22504 0.84697 0.0
C2863 C 0.86166 0.24798 0.87677 0.0
C2864 C 0.884 0.27149 0.81932 0.0
H2865 H 0.8843 0.34501 0.85323 0.0
H2866 H 0.87226 0.32223 0.84569 0.0
H2867 H 0.89985 0.28687 0.80489 0.0
H2868 H 0.86133 0.22444 0.78635 0.0
H2869 H 0.86871 0.24932 0.7819 0.0
H2870 H 0.8558 0.27744 0.87805 0.0
C2871 C 0.88371 0.32234 0.84892 0.0
C2872 C 0.89024 0.28494 0.82103 0.0
C2873 C 0.8906 0.3354 0.85336 0.0
C2874 C 0.86137 0.2309 0.81182 0.0
C2875 C 0.8656 0.24512 0.80928 0.0
C2876 C 0.86541 0.27938 0.86192 0.0
C2877 C 0.89154 0.30962 0.84793 0.0
C2878 C 0.88429 0.29569 0.84377 0.0
C2879 C 0.86596 0.25376 0.84187 0.0
C2880 C 0.87166 0.26848 0.8403 0.0
H2881 H 0.92473 0.3234 0.85921 0.0
H2882 H 0.91273 0.30064 0.85183 0.0
H2883 H 0.86683 0.30084 0.88158 0.0
H2884 H 0.85481 0.22959 0.90701 0.0
H2885 H 0.86209 0.25424 0.90255 0.0
C2886 C 0.51876 0.12853 0.58418 0.0
C2887 C 0.5217 0.11398 0.58883 0.0
C2888 C 0.50477 0.13341 0.58305 0.0
C2889 C 0.46734 0.12261 0.57009 0.0
H2890 H 0.45993 0.15614 0.63107 0.0
C2891 C 0.41042 0.14335 0.60078 0.0
C2892 C 0.40843 0.15815 0.59889 0.0
C2893 C 0.42409 0.13752 0.5991 0.0
C2894 C 0.46183 0.14686 0.61357 0.0
H2895 H 0.51217 0.09309 0.59407 0.0
H2896 H 0.48765 0.10168 0.59256 0.0
H2897 H 0.48397 0.14675 0.62706 0.0
H2898 H 0.41929 0.1784 0.59428 0.0
H2899 H 0.44303 0.16826 0.5907 0.0
H2900 H 0.44512 0.12278 0.55662 0.0
C2901 C 0.49622 0.10928 0.58964 0.0
C2902 C 0.47562 0.14148 0.61124 0.0
C2903 C 0.51027 0.10437 0.59079 0.0
C2904 C 0.42042 0.16697 0.59546 0.0
C2905 C 0.43405 0.16115 0.59383 0.0
C2906 C 0.4535 0.12802 0.57238 0.0
C2907 C 0.49335 0.1239 0.58667 0.0
C2908 C 0.47857 0.12937 0.58924 0.0
C2909 C 0.43606 0.14636 0.59562 0.0
C2910 C 0.45062 0.14028 0.59395 0.0
H2911 H 0.52726 0.13628 0.58312 0.0
H2912 H 0.5029 0.14472 0.5801 0.0
H2913 H 0.4693 0.11331 0.55274 0.0
H2914 H 0.40142 0.13624 0.60295 0.0
H2915 H 0.42528 0.12609 0.60088 0.0
C2916 C 0.61701 0.77002 0.33111 0.0
C2917 C 0.63151 0.77337 0.33482 0.0
C2918 C 0.61249 0.7559 0.33063 0.0
C2919 C 0.62452 0.7188 0.31757 0.0
H2920 H 0.59076 0.7103 0.37659 0.0
C2921 C 0.60527 0.66129 0.34702 0.0
C2922 C 0.59059 0.65884 0.34328 0.0
C2923 C 0.6107 0.67513 0.34599 0.0
C2924 C 0.60012 0.71251 0.3597 0.0
H2925 H 0.65268 0.76442 0.33957 0.0
H2926 H 0.64474 0.7397 0.33942 0.0
H2927 H 0.59948 0.73461 0.37346 0.0
H2928 H 0.5701 0.66902 0.33615 0.0
H2929 H 0.57954 0.69311 0.33399 0.0
H2930 H 0.62514 0.6966 0.30398 0.0
C2931 C 0.63688 0.74804 0.33656 0.0
C2932 C 0.60512 0.72645 0.35783 0.0
C2933 C 0.64142 0.76221 0.33696 0.0
C2934 C 0.58146 0.67054 0.33877 0.0
C2935 C 0.58686 0.68435 0.33792 0.0
C2936 C 0.61953 0.70481 0.31951 0.0
C2937 C 0.62233 0.74475 0.33409 0.0
C2938 C 0.6173 0.7298 0.33647 0.0
C2939 C 0.60154 0.68681 0.34145 0.0
C2940 C 0.6072 0.70154 0.34035 0.0
H2941 H 0.60903 0.7783 0.32999 0.0
H2942 H 0.60122 0.75374 0.32806 0.0
H2943 H 0.63387 0.72104 0.30064 0.0
H2944 H 0.61261 0.65251 0.35008 0.0
H2945 H 0.62205 0.67669 0.34908 0.0
C2946 C 0.0741 0.83469 0.10133 0.0
C2947 C 0.08654 0.8429 0.1037 0.0
C2948 C 0.06087 0.84118 0.09699 0.0
C2949 C 0.04216 0.8752 0.11099 0.0
H2950 H 0.01355 0.8572 0.04792 0.0
C2951 C 0.98271 0.8873 0.12625 0.0
C2952 C 0.97397 0.88735 0.09387 0.0
C2953 C 0.99699 0.88349 0.12365 0.0
C2954 C 0.02147 0.8625 0.06517 0.0
H2955 H 0.09485 0.86438 0.10298 0.0
H2956 H 0.0717 0.87576 0.0953 0.0
H2957 H 0.0375 0.8474 0.05012 0.0
H2958 H 0.97352 0.88371 0.03313 0.0
H2959 H -0.00138 0.87706 0.0285 0.0
H2960 H 0.02614 0.89034 0.1259 0.0
C2961 C 0.07218 0.86429 0.09735 0.0
C2962 C 0.03515 0.85676 0.06687 0.0
C2963 C 0.08544 0.85778 0.10186 0.0
C2964 C 0.97995 0.88369 0.05862 0.0
C2965 C 0.99431 0.87987 0.056 0.0
C2966 C 0.02849 0.88096 0.10921 0.0
C2967 C 0.05974 0.85605 0.09471 0.0
C2968 C 0.04557 0.86287 0.09041 0.0
C2969 C 0.00295 0.8796 0.0886 0.0
C2970 C 0.01789 0.87451 0.08691 0.0
H2971 H 0.0746 0.82322 0.10319 0.0
H2972 H 0.05148 0.83452 0.09593 0.0
H2973 H 0.04989 0.88014 0.12953 0.0
H2974 H 0.97841 0.88969 0.15404 0.0
H2975 H 0.00323 0.88309 0.14947 0.0
C2976 C 0.60301 0.83544 0.84324 0.0
C2977 C 0.58822 0.83765 0.84233 0.0
C2978 C 0.60858 0.82167 0.84283 0.0
C2979 C 0.59885 0.78459 0.86398 0.0
H2980 H 0.63119 0.77509 0.8005 0.0
C2981 C 0.61541 0.7268 0.83989 0.0
C2982 C 0.62998 0.72357 0.84225 0.0
C2983 C 0.61083 0.74087 0.83829 0.0
C2984 C 0.62224 0.77763 0.81865 0.0
H2985 H 0.56773 0.82713 0.84056 0.0
H2986 H 0.57743 0.80316 0.83927 0.0
H2987 H 0.62224 0.79949 0.80161 0.0
H2988 H 0.65117 0.73262 0.8435 0.0
H2989 H 0.64311 0.75732 0.84125 0.0
H2990 H 0.59881 0.76282 0.88106 0.0
C2991 C 0.58472 0.81206 0.84063 0.0
C2992 C 0.61713 0.79158 0.81931 0.0
C2993 C 0.57916 0.8258 0.84095 0.0
C2994 C 0.63988 0.73477 0.84195 0.0
C2995 C 0.63527 0.74889 0.84036 0.0
C2996 C 0.60395 0.77069 0.86332 0.0
C2997 C 0.59949 0.80983 0.84166 0.0
C2998 C 0.60529 0.79517 0.84174 0.0
C2999 C 0.62068 0.75208 0.83921 0.0
C3000 C 0.61561 0.767 0.84038 0.0
H3001 H 0.61028 0.84434 0.84383 0.0
H3002 H 0.62 0.82029 0.8439 0.0
H3003 H 0.5899 0.78708 0.88215 0.0
H3004 H 0.60747 0.71847 0.84065 0.0
H3005 H 0.59952 0.74297 0.83683 0.0
C3006 C 0.41601 0.34819 0.12297 0.0
C3007 C 0.4101 0.34125 0.09145 0.0
C3008 C 0.42949 0.35436 0.12061 0.0
C3009 C 0.4626 0.35311 0.06354 0.0
H3010 H 0.47144 0.38737 0.11997 0.0
C3011 C 0.51778 0.38087 0.05884 0.0
C3012 C 0.52356 0.38369 0.09491 0.0
C3013 C 0.50355 0.37671 0.05509 0.0
C3014 C 0.46909 0.3778 0.10403 0.0
H3015 H 0.41336 0.33585 0.0323 0.0
H3016 H 0.43673 0.34685 0.02782 0.0
H3017 H 0.44714 0.37834 0.1196 0.0
H3018 H 0.51888 0.38387 0.15538 0.0
H3019 H 0.49415 0.37711 0.14857 0.0
H3020 H 0.48463 0.35266 0.04803 0.0
C3021 C 0.43119 0.34718 0.05474 0.0
C3022 C 0.45521 0.37257 0.104 0.0
C3023 C 0.41778 0.34088 0.05727 0.0
C3024 C 0.51475 0.38226 0.12701 0.0
C3025 C 0.50056 0.3783 0.12321 0.0
C3026 C 0.47646 0.35844 0.06327 0.0
C3027 C 0.43728 0.35388 0.08648 0.0
C3028 C 0.45183 0.36001 0.08433 0.0
C3029 C 0.49482 0.37545 0.08729 0.0
C3030 C 0.47988 0.37068 0.08409 0.0
H3031 H 0.41035 0.34852 0.14971 0.0
H3032 H 0.43393 0.35921 0.14582 0.0
H3033 H 0.46045 0.34331 0.04849 0.0
H3034 H 0.52421 0.38195 0.03351 0.0
H3035 H 0.49934 0.37458 0.02704 0.0
C3036 C 0.85939 0.26495 0.31559 0.0
C3037 C 0.85648 0.27085 0.35145 0.0
C3038 C 0.8636 0.25073 0.31224 0.0
C3039 C 0.86464 0.2165 0.36451 0.0
H3040 H 0.89745 0.20864 0.30129 0.0
C3041 C 0.88832 0.16007 0.3497 0.0
C3042 C 0.90323 0.15906 0.351 0.0
C3043 C 0.88167 0.1733 0.34674 0.0
C3044 C 0.8883 0.21068 0.31914 0.0
H3045 H 0.85584 0.26634 0.41191 0.0
H3046 H 0.86298 0.24171 0.40598 0.0
H3047 H 0.88704 0.23239 0.30132 0.0
H3048 H 0.9228 0.17122 0.35072 0.0
H3049 H 0.91122 0.1943 0.34576 0.0
H3050 H 0.8662 0.19495 0.3834 0.0
C3051 C 0.86176 0.24795 0.38036 0.0
C3052 C 0.88222 0.22423 0.31878 0.0
C3053 C 0.85761 0.26211 0.38372 0.0
C3054 C 0.91132 0.1716 0.34928 0.0
C3055 C 0.90467 0.18483 0.34633 0.0
C3056 C 0.8707 0.20295 0.36483 0.0
C3057 C 0.86497 0.24212 0.34467 0.0
C3058 C 0.87047 0.22736 0.34196 0.0
C3059 C 0.88977 0.18583 0.34499 0.0
C3060 C 0.88274 0.19995 0.34262 0.0
H3061 H 0.85852 0.27135 0.29015 0.0
H3062 H 0.86588 0.2465 0.2843 0.0
H3063 H 0.85549 0.21854 0.38239 0.0
H3064 H 0.88177 0.15062 0.35023 0.0
H3065 H 0.87018 0.1737 0.3453 0.0
C3066 C 0.97794 0.62698 0.58644 0.0
C3067 C 0.97437 0.61275 0.59391 0.0
C3068 C 0.99212 0.6311 0.58297 0.0
C3069 C 0.02796 0.62063 0.61308 0.0
H3070 H 0.03952 0.64998 0.54225 0.0
C3071 C 0.08589 0.64146 0.60255 0.0
C3072 C 0.08744 0.6563 0.59971 0.0
C3073 C 0.07247 0.63516 0.59953 0.0
C3074 C 0.03643 0.64183 0.56234 0.0
H3075 H 0.98293 0.59159 0.60231 0.0
H3076 H 0.0078 0.59881 0.59618 0.0
H3077 H 0.01547 0.6404 0.53913 0.0
H3078 H 0.076 0.67612 0.59251 0.0
H3079 H 0.05267 0.66515 0.58712 0.0
H3080 H 0.0489 0.62222 0.63658 0.0
C3081 C -0.00043 0.60679 0.59344 0.0
C3082 C 0.02266 0.63633 0.56052 0.0
C3083 C 0.98534 0.60266 0.59688 0.0
C3084 C 0.07524 0.66467 0.59416 0.0
C3085 C 0.06186 0.65837 0.59102 0.0
C3086 C 0.04176 0.62611 0.61483 0.0
C3087 C 0.00312 0.62111 0.58695 0.0
C3088 C 0.01818 0.62586 0.58632 0.0
C3089 C 0.06033 0.64355 0.59346 0.0
C3090 C 0.04605 0.63696 0.58992 0.0
H3091 H 0.96981 0.63511 0.58487 0.0
H3092 H 0.99447 0.64225 0.57867 0.0
H3093 H 0.0248 0.61269 0.63366 0.0
H3094 H 0.09506 0.63466 0.60624 0.0
H3095 H 0.07164 0.6237 0.60121 0.0
C3096 C 0.58003 0.17261 0.67081 0.0
C3097 C 0.58854 0.16037 0.6696 0.0
C3098 C 0.58621 0.18607 0.67174 0.0
C3099 C 0.61921 0.20511 0.6954 0.0
H3100 H 0.6022 0.23482 0.63417 0.0
C3101 C 0.6426 0.26219 0.67818 0.0
C3102 C 0.63264 0.27334 0.67857 0.0
C3103 C 0.63806 0.24802 0.67856 0.0
C3104 C 0.60699 0.22667 0.65171 0.0
H3105 H 0.61027 0.15265 0.669 0.0
H3106 H 0.6211 0.17625 0.67003 0.0
H3107 H 0.59278 0.21079 0.63082 0.0
H3108 H 0.61008 0.27826 0.68038 0.0
H3109 H 0.60228 0.25373 0.6821 0.0
H3110 H 0.63342 0.22114 0.7163 0.0
C3111 C 0.60962 0.17539 0.67048 0.0
C3112 C 0.6016 0.2129 0.64977 0.0
C3113 C 0.60342 0.16189 0.66945 0.0
C3114 C 0.61809 0.27 0.68067 0.0
C3115 C 0.61358 0.25591 0.68104 0.0
C3116 C 0.62464 0.21894 0.69731 0.0
C3117 C 0.60107 0.18762 0.67146 0.0
C3118 C 0.60749 0.20201 0.67201 0.0
C3119 C 0.62348 0.24477 0.6791 0.0
C3120 C 0.61841 0.2299 0.67593 0.0
H3121 H 0.56855 0.17182 0.67061 0.0
H3122 H 0.57933 0.19529 0.67298 0.0
H3123 H 0.62392 0.19694 0.71304 0.0
H3124 H 0.65389 0.26442 0.6768 0.0
H3125 H 0.64593 0.23963 0.67703 0.0
C3126 C 0.98542 0.39449 0.93587 0.0
C3127 C 0.97453 0.38427 0.93736 0.0
C3128 C -0.00031 0.39039 0.93811 0.0
C3129 C 0.02323 0.36017 0.96375 0.0
H3130 H 0.04841 0.37615 0.88772 0.0
C3131 C 0.07469 0.3323 0.9183 0.0
C3132 C 0.08697 0.3406 0.91343 0.0
C3133 C 0.06149 0.33869 0.92412 0.0
C3134 C 0.04157 0.37173 0.90947 0.0
H3135 H 0.97015 0.36172 0.94301 0.0
H3136 H 0.99488 0.35462 0.94716 0.0
H3137 H 0.02443 0.38566 0.89501 0.0
H3138 H 0.09492 0.36223 0.91065 0.0
H3139 H 0.07177 0.3734 0.92031 0.0
H3140 H 0.04024 0.34598 0.97748 0.0
C3141 C 0.99244 0.36583 0.94487 0.0
C3142 C 0.02785 0.3772 0.91374 0.0
C3143 C 0.97822 0.36992 0.94258 0.0
C3144 C 0.08567 0.3555 0.91379 0.0
C3145 C 0.07242 0.36191 0.91948 0.0
C3146 C 0.03691 0.35467 0.95939 0.0
C3147 C 0.00335 0.37597 0.94195 0.0
C3148 C 0.01843 0.37129 0.94044 0.0
C3149 C 0.06022 0.35355 0.92509 0.0
C3150 C 0.04614 0.36021 0.93171 0.0
H3151 H 0.98292 0.40564 0.93222 0.0
H3152 H 0.00786 0.39847 0.9363 0.0
H3153 H 0.01632 0.35555 0.98504 0.0
H3154 H 0.07525 0.32082 0.91746 0.0
H3155 H 0.05223 0.33196 0.92752 0.0
C3156 C 0.91527 0.824 0.17418 0.0
C3157 C 0.90663 0.83606 0.16955 0.0
C3158 C 0.90926 0.81047 0.17647 0.0
C3159 C 0.87567 0.79156 0.19663 0.0
H3160 H 0.89465 0.76057 0.1447 0.0
C3161 C 0.8518 0.73486 0.17816 0.0
C3162 C 0.86131 0.72342 0.18221 0.0
C3163 C 0.85676 0.74888 0.17906 0.0
C3164 C 0.8893 0.76908 0.15972 0.0
H3165 H 0.88482 0.8433 0.16427 0.0
H3166 H 0.87436 0.81963 0.16735 0.0
H3167 H 0.90432 0.78447 0.14033 0.0
H3168 H 0.88345 0.71782 0.19119 0.0
H3169 H 0.89196 0.74216 0.19364 0.0
H3170 H 0.86056 0.77604 0.21571 0.0
C3171 C 0.88579 0.82069 0.16959 0.0
C3172 C 0.89485 0.78278 0.15722 0.0
C3173 C 0.89181 0.83425 0.16733 0.0
C3174 C 0.87578 0.72634 0.18856 0.0
C3175 C 0.88071 0.7403 0.18939 0.0
C3176 C 0.87007 0.7778 0.19904 0.0
C3177 C 0.89446 0.80864 0.17407 0.0
C3178 C 0.88819 0.79417 0.17592 0.0
C3179 C 0.87132 0.75171 0.18378 0.0
C3180 C 0.87693 0.7664 0.18091 0.0
H3181 H 0.92671 0.82498 0.17566 0.0
H3182 H 0.91624 0.80144 0.18044 0.0
H3183 H 0.87036 0.80008 0.21165 0.0
H3184 H 0.84059 0.73295 0.17341 0.0
H3185 H 0.84928 0.75747 0.17458 0.0
C3186 C 0.41684 0.6443 0.38147 0.0
C3187 C 0.41207 0.65222 0.41278 0.0
C3188 C 0.43003 0.63744 0.38254 0.0
C3189 C 0.46445 0.63831 0.43362 0.0
H3190 H 0.47036 0.60186 0.38469 0.0
C3191 C 0.51813 0.6094 0.44303 0.0
C3192 C 0.52374 0.60481 0.40811 0.0
C3193 C 0.5039 0.61352 0.44595 0.0
C3194 C 0.46886 0.61206 0.3984 0.0
H3195 H 0.41708 0.65865 0.4703 0.0
H3196 H 0.43991 0.64655 0.47249 0.0
H3197 H 0.44665 0.61247 0.38509 0.0
H3198 H 0.51854 0.60047 0.34918 0.0
H3199 H 0.49371 0.60743 0.35451 0.0
H3200 H 0.48663 0.63792 0.44685 0.0
C3201 C 0.43371 0.64594 0.44665 0.0
C3202 C 0.4553 0.61817 0.3985 0.0
C3203 C 0.42061 0.65289 0.44543 0.0
C3204 C 0.51457 0.60374 0.37668 0.0
C3205 C 0.50032 0.60778 0.37967 0.0
C3206 C 0.47795 0.63216 0.43375 0.0
C3207 C 0.43867 0.63824 0.41509 0.0
C3208 C 0.45295 0.63143 0.41589 0.0
C3209 C 0.49493 0.61306 0.41408 0.0
C3210 C 0.48033 0.61902 0.41593 0.0
H3211 H 0.41052 0.64369 0.35585 0.0
H3212 H 0.43358 0.63177 0.35751 0.0
H3213 H 0.46312 0.64865 0.44664 0.0
H3214 H 0.52484 0.61014 0.46795 0.0
H3215 H 0.49997 0.61732 0.47302 0.0
C3216 C 0.39141 0.15952 0.16607 0.0
C3217 C 0.40626 0.15808 0.16425 0.0
C3218 C 0.38517 0.17295 0.16884 0.0
C3219 C 0.39311 0.21044 0.19346 0.0
H3220 H 0.35937 0.21819 0.13374 0.0
C3221 C 0.3651 0.26501 0.19833 0.0
C3222 C 0.36105 0.27063 0.16299 0.0
C3223 C 0.36932 0.2508 0.20147 0.0
C3224 C 0.36881 0.21621 0.15053 0.0
H3225 H 0.42621 0.16956 0.16375 0.0
H3226 H 0.41535 0.19305 0.16798 0.0
H3227 H 0.36976 0.1945 0.13282 0.0
H3228 H 0.35826 0.26573 0.10326 0.0
H3229 H 0.36562 0.24109 0.10868 0.0
H3230 H 0.3925 0.23231 0.20989 0.0
C3231 C 0.40852 0.18379 0.16804 0.0
C3232 C 0.37468 0.20258 0.15034 0.0
C3233 C 0.41475 0.17034 0.16547 0.0
C3234 C 0.36102 0.26167 0.13107 0.0
C3235 C 0.36526 0.24752 0.13417 0.0
C3236 C 0.38727 0.22409 0.19355 0.0
C3237 C 0.39364 0.18525 0.16969 0.0
C3238 C 0.387 0.19957 0.17146 0.0
C3239 C 0.36963 0.24195 0.1693 0.0
C3240 C 0.37515 0.22718 0.1717 0.0
H3241 H 0.3846 0.15026 0.16599 0.0
H3242 H 0.3737 0.17367 0.17072 0.0
H3243 H 0.40248 0.20843 0.21049 0.0
H3244 H 0.36512 0.27163 0.22349 0.0
H3245 H 0.37243 0.24678 0.22905 0.0
C3246 C 0.4766 0.61998 0.92634 0.0
C3247 C 0.47331 0.60566 0.91909 0.0
C3248 C 0.49064 0.62468 0.92564 0.0
C3249 C 0.52809 0.61366 0.92979 0.0
H3250 H 0.53398 0.64857 0.87339 0.0
C3251 C 0.58413 0.63743 0.90131 0.0
C3252 C 0.58534 0.65219 0.90667 0.0
C3253 C 0.57076 0.63088 0.90136 0.0
C3254 C 0.53252 0.63888 0.8895 0.0
H3255 H 0.4823 0.58492 0.90714 0.0
H3256 H 0.50699 0.59321 0.90579 0.0
H3257 H 0.51018 0.63865 0.87853 0.0
H3258 H 0.57344 0.67166 0.91527 0.0
H3259 H 0.55028 0.66029 0.91604 0.0
H3260 H 0.55048 0.61404 0.94116 0.0
C3261 C 0.49861 0.60075 0.91207 0.0
C3262 C 0.51888 0.6332 0.89246 0.0
C3263 C 0.4845 0.59603 0.91266 0.0
C3264 C 0.57291 0.66026 0.91151 0.0
C3265 C 0.5596 0.65375 0.9115 0.0
C3266 C 0.54179 0.61939 0.92693 0.0
C3267 C 0.50177 0.61521 0.91759 0.0
C3268 C 0.51647 0.62067 0.91315 0.0
C3269 C 0.55835 0.63898 0.90653 0.0
C3270 C 0.5441 0.6322 0.90725 0.0
H3271 H 0.46827 0.62776 0.93079 0.0
H3272 H 0.49277 0.63585 0.93059 0.0
H3273 H 0.52653 0.604 0.94595 0.0
H3274 H 0.5935 0.63089 0.89786 0.0
H3275 H 0.57014 0.61949 0.89718 0.0
C3276 C 0.10689 0.83515 0.67706 0.0
C3277 C 0.092 0.83577 0.67386 0.0
C3278 C 0.11381 0.82209 0.68084 0.0
C3279 C 0.10754 0.78435 0.70608 0.0
H3280 H 0.14138 0.77758 0.64589 0.0
C3281 C 0.1361 0.73006 0.70708 0.0
C3282 C 0.13957 0.72471 0.67098 0.0
C3283 C 0.13207 0.74427 0.71158 0.0
C3284 C 0.13195 0.77932 0.66291 0.0
H3285 H 0.07275 0.82316 0.67184 0.0
H3286 H 0.08478 0.80038 0.67812 0.0
H3287 H 0.13041 0.80104 0.64557 0.0
H3288 H 0.14157 0.73019 0.61134 0.0
H3289 H 0.13464 0.75482 0.61921 0.0
H3290 H 0.10871 0.76246 0.72206 0.0
C3291 C 0.09111 0.81 0.67847 0.0
C3292 C 0.12574 0.7928 0.66303 0.0
C3293 C 0.0842 0.82305 0.67476 0.0
C3294 C 0.13929 0.73399 0.63971 0.0
C3295 C 0.13529 0.74816 0.6442 0.0
C3296 C 0.11374 0.77087 0.70593 0.0
C3297 C 0.10599 0.80936 0.68149 0.0
C3298 C 0.1133 0.7954 0.68404 0.0
C3299 C 0.13142 0.75342 0.68006 0.0
C3300 C 0.12586 0.76812 0.68375 0.0
H3301 H 0.11319 0.84477 0.67716 0.0
H3302 H 0.12527 0.82197 0.68359 0.0
H3303 H 0.09809 0.78607 0.72302 0.0
H3304 H 0.13633 0.72321 0.73177 0.0
H3305 H 0.12931 0.74806 0.73967 0.0
C3306 C 0.90988 0.35375 0.42204 0.0
C3307 C 0.9088 0.33888 0.41967 0.0
C3308 C 0.92316 0.36029 0.42513 0.0
C3309 C 0.96076 0.35318 0.45003 0.0
H3310 H 0.96808 0.3867 0.38909 0.0
C3311 C 0.01519 0.38172 0.45187 0.0
C3312 C 0.02066 0.38518 0.41589 0.0
C3313 C 0.001 0.37751 0.45595 0.0
C3314 C 0.9662 0.37734 0.40629 0.0
H3315 H 0.92078 0.31923 0.41845 0.0
H3316 H 0.94398 0.33062 0.42341 0.0
H3317 H 0.94448 0.37606 0.38881 0.0
H3318 H 0.01547 0.38684 0.35599 0.0
H3319 H 0.99088 0.37963 0.36314 0.0
H3320 H 0.98266 0.35413 0.46627 0.0
C3321 C 0.93456 0.33722 0.42361 0.0
C3322 C 0.95263 0.37133 0.40643 0.0
C3323 C 0.92127 0.33069 0.42064 0.0
C3324 C 0.01155 0.3846 0.38427 0.0
C3325 C 0.99742 0.38043 0.38834 0.0
C3326 C 0.97434 0.35919 0.44987 0.0
C3327 C 0.93566 0.3521 0.42584 0.0
C3328 C 0.94981 0.35904 0.42782 0.0
C3329 C 0.99201 0.37668 0.42412 0.0
C3330 C 0.97727 0.3712 0.42748 0.0
H3331 H 0.90046 0.36035 0.42217 0.0
H3332 H 0.92363 0.37176 0.42735 0.0
H3333 H 0.95887 0.34384 0.46726 0.0
H3334 H 0.02191 0.38215 0.4768 0.0
H3335 H 0.99709 0.37482 0.48396 0.0
C3336 C 0.4146 0.82554 0.3446 0.0
C3337 C 0.40601 0.83769 0.34805 0.0
C3338 C 0.40849 0.81205 0.34201 0.0
C3339 C 0.37555 0.79247 0.36391 0.0
H3340 H 0.39228 0.76383 0.29848 0.0
C3341 C 0.36402 0.73295 0.38177 0.0
C3342 C 0.36293 0.72434 0.34929 0.0
C3343 C 0.36797 0.74718 0.37871 0.0
C3344 C 0.38735 0.77175 0.31651 0.0
H3345 H 0.38424 0.8452 0.35058 0.0
H3346 H 0.37356 0.82167 0.34599 0.0
H3347 H 0.40171 0.78796 0.29795 0.0
H3348 H 0.36492 0.72401 0.288 0.0
H3349 H 0.37182 0.749 0.28259 0.0
H3350 H 0.36114 0.77629 0.38229 0.0
C3351 C 0.38504 0.82255 0.34596 0.0
C3352 C 0.39288 0.78553 0.31659 0.0
C3353 C 0.39116 0.83605 0.34869 0.0
C3354 C 0.36575 0.73036 0.31355 0.0
C3355 C 0.36972 0.74465 0.31048 0.0
C3356 C 0.37001 0.7787 0.36379 0.0
C3357 C 0.39364 0.81039 0.34264 0.0
C3358 C 0.38719 0.79599 0.34071 0.0
C3359 C 0.37097 0.75319 0.3431 0.0
C3360 C 0.37599 0.76812 0.34055 0.0
H3361 H 0.42606 0.82646 0.34449 0.0
H3362 H 0.41543 0.8029 0.34019 0.0
H3363 H 0.37097 0.80023 0.38303 0.0
H3364 H 0.36228 0.72859 0.40984 0.0
H3365 H 0.36913 0.75336 0.40448 0.0
C3366 C 0.01898 0.62759 0.09102 0.0
C3367 C 0.02232 0.61313 0.09541 0.0
C3368 C 0.00489 0.63215 0.09167 0.0
C3369 C 0.96761 0.62074 0.08262 0.0
H3370 H 0.96056 0.65384 0.14554 0.0
C3371 C 0.91086 0.64166 0.11495 0.0
C3372 C 0.90906 0.65648 0.11293 0.0
C3373 C 0.92446 0.63567 0.11356 0.0
C3374 C 0.96235 0.64467 0.12758 0.0
H3375 H 0.01341 0.59203 0.10214 0.0
H3376 H 0.98866 0.60005 0.1035 0.0
H3377 H 0.98462 0.64467 0.13943 0.0
H3378 H 0.92016 0.6766 0.10875 0.0
H3379 H 0.94377 0.66621 0.10562 0.0
H3380 H 0.94529 0.62087 0.07053 0.0
C3381 C 0.99702 0.60783 0.09947 0.0
C3382 C 0.97614 0.63943 0.12405 0.0
C3383 C 0.01117 0.60325 0.09891 0.0
C3384 C 0.92116 0.66516 0.10997 0.0
C3385 C 0.93471 0.65919 0.10861 0.0
C3386 C 0.95377 0.62604 0.08606 0.0
C3387 C 0.99377 0.62237 0.09679 0.0
C3388 C 0.97896 0.62752 0.10118 0.0
C3389 C 0.93654 0.64438 0.11028 0.0
C3390 C 0.95103 0.63817 0.10823 0.0
H3391 H 0.02728 0.63553 0.08883 0.0
H3392 H 0.0027 0.64341 0.08894 0.0
H3393 H 0.96949 0.61158 0.0647 0.0
H3394 H 0.90176 0.63466 0.11683 0.0
H3395 H 0.92552 0.62423 0.11522 0.0
C3396 C 0.11927 0.27015 0.83021 0.0
C3397 C 0.13386 0.27315 0.83371 0.0
C3398 C 0.11445 0.25615 0.8295 0.0
C3399 C 0.12499 0.21892 0.81448 0.0
H3400 H 0.09218 0.21133 0.87804 0.0
C3401 C 0.10307 0.16211 0.84098 0.0
C3402 C 0.08819 0.16063 0.83999 0.0
C3403 C 0.10933 0.17559 0.84038 0.0
C3404 C 0.10126 0.21329 0.85987 0.0
H3405 H 0.15485 0.26376 0.8377 0.0
H3406 H 0.14634 0.23916 0.83676 0.0
H3407 H 0.1019 0.23526 0.87508 0.0
H3408 H 0.06826 0.17217 0.83806 0.0
H3409 H 0.07913 0.19559 0.83631 0.0
H3410 H 0.12424 0.19689 0.79909 0.0
C3411 C 0.13869 0.24772 0.8344 0.0
C3412 C 0.10683 0.227 0.85816 0.0
C3413 C 0.14354 0.26178 0.83517 0.0
C3414 C 0.07974 0.17292 0.83848 0.0
C3415 C 0.08597 0.18636 0.83792 0.0
C3416 C 0.11938 0.20516 0.81612 0.0
C3417 C 0.12405 0.24479 0.83243 0.0
C3418 C 0.11864 0.23002 0.83508 0.0
C3419 C 0.10083 0.18787 0.83893 0.0
C3420 C 0.10734 0.20224 0.83849 0.0
H3421 H 0.11147 0.2786 0.82965 0.0
H3422 H 0.10312 0.25423 0.82737 0.0
H3423 H 0.13407 0.22095 0.79634 0.0
H3424 H 0.1099 0.15286 0.84169 0.0
H3425 H 0.12081 0.17641 0.84144 0.0
C3426 C 0.48365 0.38777 0.61601 0.0
C3427 C 0.47387 0.38593 0.58617 0.0
C3428 C 0.49793 0.38421 0.61129 0.0
C3429 C 0.5203 0.35971 0.55911 0.0
H3430 H 0.55115 0.38214 0.6009 0.0
C3431 C 0.57811 0.33943 0.55746 0.0
C3432 C 0.5861 0.34171 0.59059 0.0
C3433 C 0.56503 0.34619 0.55239 0.0
C3434 C 0.54265 0.3757 0.58935 0.0
H3435 H 0.47169 0.3794 0.52736 0.0
H3436 H 0.49667 0.37283 0.51951 0.0
H3437 H 0.52714 0.39196 0.5993 0.0
H3438 H 0.58671 0.35287 0.6443 0.0
H3439 H 0.56373 0.36444 0.63602 0.0
H3440 H 0.53558 0.34322 0.55058 0.0
C3441 C 0.49316 0.37705 0.54654 0.0
C3442 C 0.52892 0.38136 0.58825 0.0
C3443 C 0.47886 0.38077 0.55111 0.0
C3444 C 0.58083 0.35102 0.61836 0.0
C3445 C 0.56769 0.35769 0.61347 0.0
C3446 C 0.53399 0.354 0.56048 0.0
C3447 C 0.50278 0.37857 0.57678 0.0
C3448 C 0.51758 0.37333 0.5737 0.0
C3449 C 0.55959 0.3553 0.5805 0.0
C3450 C 0.54529 0.36184 0.57621 0.0
H3451 H 0.48022 0.39138 0.64372 0.0
H3452 H 0.50504 0.38527 0.63531 0.0
H3453 H 0.51172 0.3532 0.54822 0.0
H3454 H 0.58204 0.33253 0.53524 0.0
H3455 H 0.55921 0.3443 0.52636 0.0
loop_
_geom_bond_atom_site_label_1
_geom_bond_atom_site_label_2
_geom_bond_distance
_geom_bond_site_symmetry_2
_ccdc_geom_bond_type
C0 C1 1.351 . S
C0 N3 1.368 . S
C0 H5 0.931 . S
C1 C0 1.351 . S
C1 N2 1.373 . S
C1 H29 0.930 . S
N2 C1 1.373 . S
N2 C4 1.340 . S
N3 C0 1.368 . S
N3 C4 1.321 . S
N3 Co6 2.135 . S
C4 N2 1.340 . S
C4 N3 1.321 . S
C4 H28 0.930 . S
H5 C0 0.931 . S
Co6 N3 2.135 . S
Co6 N9 2.121 . S
Co6 O14 2.055 . S
Co6 O17 2.039 . S
Co6 N20 2.140 . S
C7 O8 1.227 . S
C7 O17 1.265 . S
O8 C7 1.227 . S
N9 Co6 2.121 . S
N9 C11 1.375 . S
N9 C12 1.313 . S
C10 C11 1.338 . S
C10 N13 1.377 . S
C10 H30 0.930 . S
C11 N9 1.375 . S
C11 C10 1.338 . S
C11 H15 0.931 . S
C12 N9 1.313 . S
C12 N13 1.344 . S
C12 H16 0.930 . S
N13 C10 1.377 . S
N13 C12 1.344 . S
O14 Co6 2.055 . S
O14 C18 1.253 . S
H15 C11 0.931 . S
H16 C12 0.930 . S
O17 Co6 2.039 . S
O17 C7 1.265 . S
C18 O14 1.253 . S
C18 O19 1.227 . S
O19 C18 1.227 . S
N20 Co6 2.140 . S
N20 C23 1.346 . S
N20 C24 1.345 . S
C21 C22 1.387 . S
C21 C25 1.391 . S
C22 C21 1.387 . S
C22 C23 1.369 . S
C22 H31 0.929 . S
C23 N20 1.346 . S
C23 C22 1.369 . S
C23 H26 0.928 . S
C24 N20 1.345 . S
C24 C25 1.371 . S
C24 H27 0.931 . S
C25 C21 1.391 . S
C25 C24 1.371 . S
C25 H32 0.930 . S
H26 C23 0.928 . S
H27 C24 0.931 . S
H28 C4 0.930 . S
H29 C1 0.930 . S
H30 C10 0.930 . S
H31 C22 0.929 . S
H32 C25 0.930 . S
C33 C34 1.351 . S
C33 N36 1.368 . S
C33 H38 0.931 . S
C34 C33 1.351 . S
C34 N35 1.373 . S
C34 H62 0.930 . S
N35 C34 1.373 . S
N35 C37 1.340 . S
N36 C33 1.368 . S
N36 C37 1.321 . S
N36 Co39 2.135 . S
C37 N35 1.340 . S
C37 N36 1.321 . S
C37 H61 0.930 . S
H38 C33 0.931 . S
Co39 N36 2.135 . S
Co39 N42 2.121 . S
Co39 O47 2.055 . S
Co39 O50 2.039 . S
Co39 N53 2.140 . S
C40 O41 1.227 . S
C40 O50 1.265 . S
O41 C40 1.227 . S
N42 Co39 2.121 . S
N42 C44 1.375 . S
N42 C45 1.313 . S
C43 C44 1.338 . S
C43 N46 1.377 . S
C43 H63 0.930 . S
C44 N42 1.375 . S
C44 C43 1.338 . S
C44 H48 0.931 . S
C45 N42 1.313 . S
C45 N46 1.344 . S
C45 H49 0.930 . S
N46 C43 1.377 . S
N46 C45 1.344 . S
O47 Co39 2.055 . S
O47 C51 1.253 . S
H48 C44 0.931 . S
H49 C45 0.930 . S
O50 Co39 2.039 . S
O50 C40 1.265 . S
C51 O47 1.253 . S
C51 O52 1.227 . S
O52 C51 1.227 . S
N53 Co39 2.140 . S
N53 C56 1.346 . S
N53 C57 1.345 . S
C54 C55 1.387 . S
C54 C58 1.391 . S
C55 C54 1.387 . S
C55 C56 1.369 . S
C55 H64 0.929 . S
C56 N53 1.346 . S
C56 C55 1.369 . S
C56 H59 0.928 . S
C57 N53 1.345 . S
C57 C58 1.371 . S
C57 H60 0.931 . S
C58 C54 1.391 . S
C58 C57 1.371 . S
C58 H65 0.930 . S
H59 C56 0.928 . S
H60 C57 0.931 . S
H61 C37 0.930 . S
H62 C34 0.930 . S
H63 C43 0.930 . S
H64 C55 0.929 . S
H65 C58 0.930 . S
C66 C67 1.351 . S
C66 N69 1.368 . S
C66 H71 0.931 . S
C67 C66 1.351 . S
C67 N68 1.373 . S
C67 H95 0.930 . S
N68 C67 1.373 . S
N68 C70 1.340 . S
N69 C66 1.368 . S
N69 C70 1.321 . S
N69 Co72 2.135 . S
C70 N68 1.340 . S
C70 N69 1.321 . S
C70 H94 0.930 . S
H71 C66 0.931 . S
Co72 N69 2.135 . S
Co72 N75 2.121 . S
Co72 O80 2.055 . S
Co72 O83 2.039 . S
Co72 N86 2.140 . S
C73 O74 1.227 . S
C73 O83 1.265 . S
O74 C73 1.227 . S
N75 Co72 2.121 . S
N75 C77 1.375 . S
N75 C78 1.313 . S
C76 C77 1.338 . S
C76 N79 1.377 . S
C76 H96 0.930 . S
C77 N75 1.375 . S
C77 C76 1.338 . S
C77 H81 0.931 . S
C78 N75 1.313 . S
C78 N79 1.344 . S
C78 H82 0.930 . S
N79 C76 1.377 . S
N79 C78 1.344 . S
O80 Co72 2.055 . S
O80 C84 1.253 . S
H81 C77 0.931 . S
H82 C78 0.930 . S
O83 Co72 2.039 . S
O83 C73 1.265 . S
C84 O80 1.253 . S
C84 O85 1.227 . S
O85 C84 1.227 . S
N86 Co72 2.140 . S
N86 C89 1.346 . S
N86 C90 1.345 . S
C87 C88 1.387 . S
C87 C91 1.391 . S
C88 C87 1.387 . S
C88 C89 1.369 . S
C88 H97 0.929 . S
C89 N86 1.346 . S
C89 C88 1.369 . S
C89 H92 0.928 . S
C90 N86 1.345 . S
C90 C91 1.371 . S
C90 H93 0.931 . S
C91 C87 1.391 . S
C91 C90 1.371 . S
C91 H98 0.930 . S
H92 C89 0.928 . S
H93 C90 0.931 . S
H94 C70 0.930 . S
H95 C67 0.930 . S
H96 C76 0.930 . S
H97 C88 0.929 . S
H98 C91 0.930 . S
C99 C100 1.351 . S
C99 N102 1.368 . S
C99 H104 0.931 . S
C100 C99 1.351 . S
C100 N101 1.373 . S
C100 H128 0.930 . S
N101 C100 1.373 . S
N101 C103 1.340 . S
N102 C99 1.368 . S
N102 C103 1.321 . S
N102 Co105 2.135 . S
C103 N101 1.340 . S
C103 N102 1.321 . S
C103 H127 0.930 . S
H104 C99 0.931 . S
Co105 N102 2.135 . S
Co105 N108 2.121 . S
Co105 O113 2.055 . S
Co105 O116 2.039 . S
Co105 N119 2.140 . S
C106 O107 1.227 . S
C106 O116 1.265 . S
O107 C106 1.227 . S
N108 Co105 2.121 . S
N108 C110 1.375 . S
N108 C111 1.313 . S
C109 C110 1.338 . S
C109 N112 1.377 . S
C109 H129 0.930 . S
C110 N108 1.375 . S
C110 C109 1.338 . S
C110 H114 0.931 . S
C111 N108 1.313 . S
C111 N112 1.344 . S
C111 H115 0.930 . S
N112 C109 1.377 . S
N112 C111 1.344 . S
O113 Co105 2.055 . S
O113 C117 1.253 . S
H114 C110 0.931 . S
H115 C111 0.930 . S
O116 Co105 2.039 . S
O116 C106 1.265 . S
C117 O113 1.253 . S
C117 O118 1.227 . S
O118 C117 1.227 . S
N119 Co105 2.140 . S
N119 C122 1.346 . S
N119 C123 1.345 . S
C120 C121 1.387 . S
C120 C124 1.391 . S
C121 C120 1.387 . S
C121 C122 1.369 . S
C121 H130 0.929 . S
C122 N119 1.346 . S
C122 C121 1.369 . S
C122 H125 0.928 . S
C123 N119 1.345 . S
C123 C124 1.371 . S
C123 H126 0.931 . S
C124 C120 1.391 . S
C124 C123 1.371 . S
C124 H131 0.930 . S
H125 C122 0.928 . S
H126 C123 0.931 . S
H127 C103 0.930 . S
H128 C100 0.930 . S
H129 C109 0.930 . S
H130 C121 0.929 . S
H131 C124 0.930 . S
C132 C133 1.351 . S
C132 N135 1.368 . S
C132 H137 0.931 . S
C133 C132 1.351 . S
C133 N134 1.373 . S
C133 H161 0.930 . S
N134 C133 1.373 . S
N134 C136 1.340 . S
N135 C132 1.368 . S
N135 C136 1.321 . S
N135 Co138 2.135 . S
C136 N134 1.340 . S
C136 N135 1.321 . S
C136 H160 0.930 . S
H137 C132 0.931 . S
Co138 N135 2.135 . S
Co138 N141 2.121 . S
Co138 O146 2.055 . S
Co138 O149 2.039 . S
Co138 N152 2.140 . S
C139 O140 1.227 . S
C139 O149 1.265 . S
O140 C139 1.227 . S
N141 Co138 2.121 . S
N141 C143 1.375 . S
N141 C144 1.313 . S
C142 C143 1.338 . S
C142 N145 1.377 . S
C142 H162 0.930 . S
C143 N141 1.375 . S
C143 C142 1.338 . S
C143 H147 0.931 . S
C144 N141 1.313 . S
C144 N145 1.344 . S
C144 H148 0.930 . S
N145 C142 1.377 . S
N145 C144 1.344 . S
O146 Co138 2.055 . S
O146 C150 1.253 . S
H147 C143 0.931 . S
H148 C144 0.930 . S
O149 Co138 2.039 . S
O149 C139 1.265 . S
C150 O146 1.253 . S
C150 O151 1.227 . S
O151 C150 1.227 . S
N152 Co138 2.140 . S
N152 C155 1.346 . S
N152 C156 1.345 . S
C153 C154 1.387 . S
C153 C157 1.391 . S
C154 C153 1.387 . S
C154 C155 1.369 . S
C154 H163 0.929 . S
C155 N152 1.346 . S
C155 C154 1.369 . S
C155 H158 0.928 . S
C156 N152 1.345 . S
C156 C157 1.371 . S
C156 H159 0.931 . S
C157 C153 1.391 . S
C157 C156 1.371 . S
C157 H164 0.930 . S
H158 C155 0.928 . S
H159 C156 0.931 . S
H160 C136 0.930 . S
H161 C133 0.930 . S
H162 C142 0.930 . S
H163 C154 0.929 . S
H164 C157 0.930 . S
C165 C166 1.351 . S
C165 N168 1.368 . S
C165 H170 0.931 . S
C166 C165 1.351 . S
C166 N167 1.373 . S
C166 H194 0.930 . S
N167 C166 1.373 . S
N167 C169 1.340 . S
N168 C165 1.368 . S
N168 C169 1.321 . S
N168 Co171 2.135 . S
C169 N167 1.340 . S
C169 N168 1.321 . S
C169 H193 0.930 . S
H170 C165 0.931 . S
Co171 N168 2.135 . S
Co171 N174 2.121 . S
Co171 O179 2.055 . S
Co171 O182 2.039 . S
Co171 N185 2.140 . S
C172 O173 1.227 . S
C172 O182 1.265 . S
O173 C172 1.227 . S
N174 Co171 2.121 . S
N174 C176 1.375 . S
N174 C177 1.313 . S
C175 C176 1.338 . S
C175 N178 1.377 . S
C175 H195 0.930 . S
C176 N174 1.375 . S
C176 C175 1.338 . S
C176 H180 0.931 . S
C177 N174 1.313 . S
C177 N178 1.344 . S
C177 H181 0.930 . S
N178 C175 1.377 . S
N178 C177 1.344 . S
O179 Co171 2.055 . S
O179 C183 1.253 . S
H180 C176 0.931 . S
H181 C177 0.930 . S
O182 Co171 2.039 . S
O182 C172 1.265 . S
C183 O179 1.253 . S
C183 O184 1.227 . S
O184 C183 1.227 . S
N185 Co171 2.140 . S
N185 C188 1.346 . S
N185 C189 1.345 . S
C186 C187 1.387 . S
C186 C190 1.391 . S
C187 C186 1.387 . S
C187 C188 1.369 . S
C187 H196 0.929 . S
C188 N185 1.346 . S
C188 C187 1.369 . S
C188 H191 0.928 . S
C189 N185 1.345 . S
C189 C190 1.371 . S
C189 H192 0.931 . S
C190 C186 1.391 . S
C190 C189 1.371 . S
C190 H197 0.930 . S
H191 C188 0.928 . S
H192 C189 0.931 . S
H193 C169 0.930 . S
H194 C166 0.930 . S
H195 C175 0.930 . S
H196 C187 0.929 . S
H197 C190 0.930 . S
C198 C199 1.351 . S
C198 N201 1.368 . S
C198 H203 0.931 . S
C199 C198 1.351 . S
C199 N200 1.373 . S
C199 H227 0.930 . S
N200 C199 1.373 . S
N200 C202 1.340 . S
N201 C198 1.368 . S
N201 C202 1.321 . S
N201 Co204 2.135 . S
C202 N200 1.340 . S
C202 N201 1.321 . S
C202 H226 0.930 . S
H203 C198 0.931 . S
Co204 N201 2.135 . S
Co204 N207 2.121 . S
Co204 O212 2.055 . S
Co204 O215 2.039 . S
Co204 N218 2.140 . S
C205 O206 1.227 . S
C205 O215 1.265 . S
O206 C205 1.227 . S
N207 Co204 2.121 . S
N207 C209 1.375 . S
N207 C210 1.313 . S
C208 C209 1.338 . S
C208 N211 1.377 . S
C208 H228 0.930 . S
C209 N207 1.375 . S
C209 C208 1.338 . S
C209 H213 0.931 . S
C210 N207 1.313 . S
C210 N211 1.344 . S
C210 H214 0.930 . S
N211 C208 1.377 . S
N211 C210 1.344 . S
O212 Co204 2.055 . S
O212 C216 1.253 . S
H213 C209 0.931 . S
H214 C210 0.930 . S
O215 Co204 2.039 . S
O215 C205 1.265 . S
C216 O212 1.253 . S
C216 O217 1.227 . S
O217 C216 1.227 . S
N218 Co204 2.140 . S
N218 C221 1.346 . S
N218 C222 1.345 . S
C219 C220 1.387 . S
C219 C223 1.391 . S
C220 C219 1.387 . S
C220 C221 1.369 . S
C220 H229 0.929 . S
C221 N218 1.346 . S
C221 C220 1.369 . S
C221 H224 0.928 . S
C222 N218 1.345 . S
C222 C223 1.371 . S
C222 H225 0.931 . S
C223 C219 1.391 . S
C223 C222 1.371 . S
C223 H230 0.930 . S
H224 C221 0.928 . S
H225 C222 0.931 . S
H226 C202 0.930 . S
H227 C199 0.930 . S
H228 C208 0.930 . S
H229 C220 0.929 . S
H230 C223 0.930 . S
C231 C232 1.351 . S
C231 N234 1.368 . S
C231 H236 0.931 . S
C232 C231 1.351 . S
C232 N233 1.373 . S
C232 H260 0.930 . S
N233 C232 1.373 . S
N233 C235 1.340 . S
N234 C231 1.368 . S
N234 C235 1.321 . S
N234 Co237 2.135 . S
C235 N233 1.340 . S
C235 N234 1.321 . S
C235 H259 0.930 . S
H236 C231 0.931 . S
Co237 N234 2.135 . S
Co237 N240 2.121 . S
Co237 O245 2.055 . S
Co237 O248 2.039 . S
Co237 N251 2.140 . S
C238 O239 1.227 . S
C238 O248 1.265 . S
O239 C238 1.227 . S
N240 Co237 2.121 . S
N240 C242 1.375 . S
N240 C243 1.313 . S
C241 C242 1.338 . S
C241 N244 1.377 . S
C241 H261 0.930 . S
C242 N240 1.375 . S
C242 C241 1.338 . S
C242 H246 0.931 . S
C243 N240 1.313 . S
C243 N244 1.344 . S
C243 H247 0.930 . S
N244 C241 1.377 . S
N244 C243 1.344 . S
O245 Co237 2.055 . S
O245 C249 1.253 . S
H246 C242 0.931 . S
H247 C243 0.930 . S
O248 Co237 2.039 . S
O248 C238 1.265 . S
C249 O245 1.253 . S
C249 O250 1.227 . S
O250 C249 1.227 . S
N251 Co237 2.140 . S
N251 C254 1.346 . S
N251 C255 1.345 . S
C252 C253 1.387 . S
C252 C256 1.391 . S
C253 C252 1.387 . S
C253 C254 1.369 . S
C253 H262 0.929 . S
C254 N251 1.346 . S
C254 C253 1.369 . S
C254 H257 0.928 . S
C255 N251 1.345 . S
C255 C256 1.371 . S
C255 H258 0.931 . S
C256 C252 1.391 . S
C256 C255 1.371 . S
C256 H263 0.930 . S
H257 C254 0.928 . S
H258 C255 0.931 . S
H259 C235 0.930 . S
H260 C232 0.930 . S
H261 C241 0.930 . S
H262 C253 0.929 . S
H263 C256 0.930 . S
C264 C265 1.351 . S
C264 N267 1.368 . S
C264 H269 0.931 . S
C265 C264 1.351 . S
C265 N266 1.373 . S
C265 H293 0.930 . S
N266 C265 1.373 . S
N266 C268 1.340 . S
N267 C264 1.368 . S
N267 C268 1.321 . S
N267 Co270 2.135 . S
C268 N266 1.340 . S
C268 N267 1.321 . S
C268 H292 0.930 . S
H269 C264 0.931 . S
Co270 N267 2.135 . S
Co270 N273 2.121 . S
Co270 O278 2.055 . S
Co270 O281 2.039 . S
Co270 N284 2.140 . S
C271 O272 1.227 . S
C271 O281 1.265 . S
O272 C271 1.227 . S
N273 Co270 2.121 . S
N273 C275 1.375 . S
N273 C276 1.313 . S
C274 C275 1.338 . S
C274 N277 1.377 . S
C274 H294 0.930 . S
C275 N273 1.375 . S
C275 C274 1.338 . S
C275 H279 0.931 . S
C276 N273 1.313 . S
C276 N277 1.344 . S
C276 H280 0.930 . S
N277 C274 1.377 . S
N277 C276 1.344 . S
O278 Co270 2.055 . S
O278 C282 1.253 . S
H279 C275 0.931 . S
H280 C276 0.930 . S
O281 Co270 2.039 . S
O281 C271 1.265 . S
C282 O278 1.253 . S
C282 O283 1.227 . S
O283 C282 1.227 . S
N284 Co270 2.140 . S
N284 C287 1.346 . S
N284 C288 1.345 . S
C285 C286 1.387 . S
C285 C289 1.391 . S
C286 C285 1.387 . S
C286 C287 1.369 . S
C286 H295 0.929 . S
C287 N284 1.346 . S
C287 C286 1.369 . S
C287 H290 0.928 . S
C288 N284 1.345 . S
C288 C289 1.371 . S
C288 H291 0.931 . S
C289 C285 1.391 . S
C289 C288 1.371 . S
C289 H296 0.930 . S
H290 C287 0.928 . S
H291 C288 0.931 . S
H292 C268 0.930 . S
H293 C265 0.930 . S
H294 C274 0.930 . S
H295 C286 0.929 . S
H296 C289 0.930 . S
C297 C298 1.351 . S
C297 N300 1.368 . S
C297 H302 0.931 . S
C298 C297 1.351 . S
C298 N299 1.373 . S
C298 H326 0.930 . S
N299 C298 1.373 . S
N299 C301 1.340 . S
N300 C297 1.368 . S
N300 C301 1.321 . S
N300 Co303 2.135 . S
C301 N299 1.340 . S
C301 N300 1.321 . S
C301 H325 0.930 . S
H302 C297 0.931 . S
Co303 N300 2.135 . S
Co303 N306 2.121 . S
Co303 O311 2.055 . S
Co303 O314 2.039 . S
Co303 N317 2.140 . S
C304 O305 1.227 . S
C304 O314 1.265 . S
O305 C304 1.227 . S
N306 Co303 2.121 . S
N306 C308 1.375 . S
N306 C309 1.313 . S
C307 C308 1.338 . S
C307 N310 1.377 . S
C307 H327 0.930 . S
C308 N306 1.375 . S
C308 C307 1.338 . S
C308 H312 0.931 . S
C309 N306 1.313 . S
C309 N310 1.344 . S
C309 H313 0.930 . S
N310 C307 1.377 . S
N310 C309 1.344 . S
O311 Co303 2.055 . S
O311 C315 1.253 . S
H312 C308 0.931 . S
H313 C309 0.930 . S
O314 Co303 2.039 . S
O314 C304 1.265 . S
C315 O311 1.253 . S
C315 O316 1.227 . S
O316 C315 1.227 . S
N317 Co303 2.140 . S
N317 C320 1.346 . S
N317 C321 1.345 . S
C318 C319 1.387 . S
C318 C322 1.391 . S
C319 C318 1.387 . S
C319 C320 1.369 . S
C319 H328 0.929 . S
C320 N317 1.346 . S
C320 C319 1.369 . S
C320 H323 0.928 . S
C321 N317 1.345 . S
C321 C322 1.371 . S
C321 H324 0.931 . S
C322 C318 1.391 . S
C322 C321 1.371 . S
C322 H329 0.930 . S
H323 C320 0.928 . S
H324 C321 0.931 . S
H325 C301 0.930 . S
H326 C298 0.930 . S
H327 C307 0.930 . S
H328 C319 0.929 . S
H329 C322 0.930 . S
C330 C331 1.351 . S
C330 N333 1.368 . S
C330 H335 0.931 . S
C331 C330 1.351 . S
C331 N332 1.373 . S
C331 H359 0.930 . S
N332 C331 1.373 . S
N332 C334 1.340 . S
N333 C330 1.368 . S
N333 C334 1.321 . S
N333 Co336 2.135 . S
C334 N332 1.340 . S
C334 N333 1.321 . S
C334 H358 0.930 . S
H335 C330 0.931 . S
Co336 N333 2.135 . S
Co336 N339 2.121 . S
Co336 O344 2.055 . S
Co336 O347 2.039 . S
Co336 N350 2.140 . S
C337 O338 1.227 . S
C337 O347 1.265 . S
O338 C337 1.227 . S
N339 Co336 2.121 . S
N339 C341 1.375 . S
N339 C342 1.313 . S
C340 C341 1.338 . S
C340 N343 1.377 . S
C340 H360 0.930 . S
C341 N339 1.375 . S
C341 C340 1.338 . S
C341 H345 0.931 . S
C342 N339 1.313 . S
C342 N343 1.344 . S
C342 H346 0.930 . S
N343 C340 1.377 . S
N343 C342 1.344 . S
O344 Co336 2.055 . S
O344 C348 1.253 . S
H345 C341 0.931 . S
H346 C342 0.930 . S
O347 Co336 2.039 . S
O347 C337 1.265 . S
C348 O344 1.253 . S
C348 O349 1.227 . S
O349 C348 1.227 . S
N350 Co336 2.140 . S
N350 C353 1.346 . S
N350 C354 1.345 . S
C351 C352 1.387 . S
C351 C355 1.391 . S
C352 C351 1.387 . S
C352 C353 1.369 . S
C352 H361 0.929 . S
C353 N350 1.346 . S
C353 C352 1.369 . S
C353 H356 0.928 . S
C354 N350 1.345 . S
C354 C355 1.371 . S
C354 H357 0.931 . S
C355 C351 1.391 . S
C355 C354 1.371 . S
C355 H362 0.930 . S
H356 C353 0.928 . S
H357 C354 0.931 . S
H358 C334 0.930 . S
H359 C331 0.930 . S
H360 C340 0.930 . S
H361 C352 0.929 . S
H362 C355 0.930 . S
C363 C364 1.351 . S
C363 N366 1.368 . S
C363 H368 0.931 . S
C364 C363 1.351 . S
C364 N365 1.373 . S
C364 H392 0.930 . S
N365 C364 1.373 . S
N365 C367 1.340 . S
N366 C363 1.368 . S
N366 C367 1.321 . S
N366 Co369 2.135 . S
C367 N365 1.340 . S
C367 N366 1.321 . S
C367 H391 0.930 . S
H368 C363 0.931 . S
Co369 N366 2.135 . S
Co369 N372 2.121 . S
Co369 O377 2.055 . S
Co369 O380 2.039 . S
Co369 N383 2.140 . S
C370 O371 1.227 . S
C370 O380 1.265 . S
O371 C370 1.227 . S
N372 Co369 2.121 . S
N372 C374 1.375 . S
N372 C375 1.313 . S
C373 C374 1.338 . S
C373 N376 1.377 . S
C373 H393 0.930 . S
C374 N372 1.375 . S
C374 C373 1.338 . S
C374 H378 0.931 . S
C375 N372 1.313 . S
C375 N376 1.344 . S
C375 H379 0.930 . S
N376 C373 1.377 . S
N376 C375 1.344 . S
O377 Co369 2.055 . S
O377 C381 1.253 . S
H378 C374 0.931 . S
H379 C375 0.930 . S
O380 Co369 2.039 . S
O380 C370 1.265 . S
C381 O377 1.253 . S
C381 O382 1.227 . S
O382 C381 1.227 . S
N383 Co369 2.140 . S
N383 C386 1.346 . S
N383 C387 1.345 . S
C384 C385 1.387 . S
C384 C388 1.391 . S
C385 C384 1.387 . S
C385 C386 1.369 . S
C385 H394 0.929 . S
C386 N383 1.346 . S
C386 C385 1.369 . S
C386 H389 0.928 . S
C387 N383 1.345 . S
C387 C388 1.371 . S
C387 H390 0.931 . S
C388 C384 1.391 . S
C388 C387 1.371 . S
C388 H395 0.930 . S
H389 C386 0.928 . S
H390 C387 0.931 . S
H391 C367 0.930 . S
H392 C364 0.930 . S
H393 C373 0.930 . S
H394 C385 0.929 . S
H395 C388 0.930 . S
C396 C397 1.351 . S
C396 N399 1.368 . S
C396 H401 0.931 . S
C397 C396 1.351 . S
C397 N398 1.373 . S
C397 H425 0.930 . S
N398 C397 1.373 . S
N398 C400 1.340 . S
N399 C396 1.368 . S
N399 C400 1.321 . S
N399 Co402 2.135 . S
C400 N398 1.340 . S
C400 N399 1.321 . S
C400 H424 0.930 . S
H401 C396 0.931 . S
Co402 N399 2.135 . S
Co402 N405 2.121 . S
Co402 O410 2.055 . S
Co402 O413 2.039 . S
Co402 N416 2.140 . S
C403 O404 1.227 . S
C403 O413 1.265 . S
O404 C403 1.227 . S
N405 Co402 2.121 . S
N405 C407 1.375 . S
N405 C408 1.313 . S
C406 C407 1.338 . S
C406 N409 1.377 . S
C406 H426 0.930 . S
C407 N405 1.375 . S
C407 C406 1.338 . S
C407 H411 0.931 . S
C408 N405 1.313 . S
C408 N409 1.344 . S
C408 H412 0.930 . S
N409 C406 1.377 . S
N409 C408 1.344 . S
O410 Co402 2.055 . S
O410 C414 1.253 . S
H411 C407 0.931 . S
H412 C408 0.930 . S
O413 Co402 2.039 . S
O413 C403 1.265 . S
C414 O410 1.253 . S
C414 O415 1.227 . S
O415 C414 1.227 . S
N416 Co402 2.140 . S
N416 C419 1.346 . S
N416 C420 1.345 . S
C417 C418 1.387 . S
C417 C421 1.391 . S
C418 C417 1.387 . S
C418 C419 1.369 . S
C418 H427 0.929 . S
C419 N416 1.346 . S
C419 C418 1.369 . S
C419 H422 0.928 . S
C420 N416 1.345 . S
C420 C421 1.371 . S
C420 H423 0.931 . S
C421 C417 1.391 . S
C421 C420 1.371 . S
C421 H428 0.930 . S
H422 C419 0.928 . S
H423 C420 0.931 . S
H424 C400 0.930 . S
H425 C397 0.930 . S
H426 C406 0.930 . S
H427 C418 0.929 . S
H428 C421 0.930 . S
C429 C430 1.351 . S
C429 N432 1.368 . S
C429 H434 0.931 . S
C430 C429 1.351 . S
C430 N431 1.373 . S
C430 H458 0.930 . S
N431 C430 1.373 . S
N431 C433 1.340 . S
N432 C429 1.368 . S
N432 C433 1.321 . S
N432 Co435 2.135 . S
C433 N431 1.340 . S
C433 N432 1.321 . S
C433 H457 0.930 . S
H434 C429 0.931 . S
Co435 N432 2.135 . S
Co435 N438 2.121 . S
Co435 O443 2.055 . S
Co435 O446 2.039 . S
Co435 N449 2.140 . S
C436 O437 1.227 . S
C436 O446 1.265 . S
O437 C436 1.227 . S
N438 Co435 2.121 . S
N438 C440 1.375 . S
N438 C441 1.313 . S
C439 C440 1.338 . S
C439 N442 1.377 . S
C439 H459 0.930 . S
C440 N438 1.375 . S
C440 C439 1.338 . S
C440 H444 0.931 . S
C441 N438 1.313 . S
C441 N442 1.344 . S
C441 H445 0.930 . S
N442 C439 1.377 . S
N442 C441 1.344 . S
O443 Co435 2.055 . S
O443 C447 1.253 . S
H444 C440 0.931 . S
H445 C441 0.930 . S
O446 Co435 2.039 . S
O446 C436 1.265 . S
C447 O443 1.253 . S
C447 O448 1.227 . S
O448 C447 1.227 . S
N449 Co435 2.140 . S
N449 C452 1.346 . S
N449 C453 1.345 . S
C450 C451 1.387 . S
C450 C454 1.391 . S
C451 C450 1.387 . S
C451 C452 1.369 . S
C451 H460 0.929 . S
C452 N449 1.346 . S
C452 C451 1.369 . S
C452 H455 0.928 . S
C453 N449 1.345 . S
C453 C454 1.371 . S
C453 H456 0.931 . S
C454 C450 1.391 . S
C454 C453 1.371 . S
C454 H461 0.930 . S
H455 C452 0.928 . S
H456 C453 0.931 . S
H457 C433 0.930 . S
H458 C430 0.930 . S
H459 C439 0.930 . S
H460 C451 0.929 . S
H461 C454 0.930 . S
C462 C463 1.351 . S
C462 N465 1.368 . S
C462 H467 0.931 . S
C463 C462 1.351 . S
C463 N464 1.373 . S
C463 H491 0.930 . S
N464 C463 1.373 . S
N464 C466 1.340 . S
N465 C462 1.368 . S
N465 C466 1.321 . S
N465 Co468 2.135 . S
C466 N464 1.340 . S
C466 N465 1.321 . S
C466 H490 0.930 . S
H467 C462 0.931 . S
Co468 N465 2.135 . S
Co468 N471 2.121 . S
Co468 O476 2.055 . S
Co468 O479 2.039 . S
Co468 N482 2.140 . S
C469 O470 1.227 . S
C469 O479 1.265 . S
O470 C469 1.227 . S
N471 Co468 2.121 . S
N471 C473 1.375 . S
N471 C474 1.313 . S
C472 C473 1.338 . S
C472 N475 1.377 . S
C472 H492 0.930 . S
C473 N471 1.375 . S
C473 C472 1.338 . S
C473 H477 0.931 . S
C474 N471 1.313 . S
C474 N475 1.344 . S
C474 H478 0.930 . S
N475 C472 1.377 . S
N475 C474 1.344 . S
O476 Co468 2.055 . S
O476 C480 1.253 . S
H477 C473 0.931 . S
H478 C474 0.930 . S
O479 Co468 2.039 . S
O479 C469 1.265 . S
C480 O476 1.253 . S
C480 O481 1.227 . S
O481 C480 1.227 . S
N482 Co468 2.140 . S
N482 C485 1.346 . S
N482 C486 1.345 . S
C483 C484 1.387 . S
C483 C487 1.391 . S
C484 C483 1.387 . S
C484 C485 1.369 . S
C484 H493 0.929 . S
C485 N482 1.346 . S
C485 C484 1.369 . S
C485 H488 0.928 . S
C486 N482 1.345 . S
C486 C487 1.371 . S
C486 H489 0.931 . S
C487 C483 1.391 . S
C487 C486 1.371 . S
C487 H494 0.930 . S
H488 C485 0.928 . S
H489 C486 0.931 . S
H490 C466 0.930 . S
H491 C463 0.930 . S
H492 C472 0.930 . S
H493 C484 0.929 . S
H494 C487 0.930 . S
C495 C496 1.351 . S
C495 N498 1.368 . S
C495 H500 0.931 . S
C496 C495 1.351 . S
C496 N497 1.373 . S
C496 H524 0.930 . S
N497 C496 1.373 . S
N497 C499 1.340 . S
N498 C495 1.368 . S
N498 C499 1.321 . S
N498 Co501 2.135 . S
C499 N497 1.340 . S
C499 N498 1.321 . S
C499 H523 0.930 . S
H500 C495 0.931 . S
Co501 N498 2.135 . S
Co501 N504 2.121 . S
Co501 O509 2.055 . S
Co501 O512 2.039 . S
Co501 N515 2.140 . S
C502 O503 1.227 . S
C502 O512 1.265 . S
O503 C502 1.227 . S
N504 Co501 2.121 . S
N504 C506 1.375 . S
N504 C507 1.313 . S
C505 C506 1.338 . S
C505 N508 1.377 . S
C505 H525 0.930 . S
C506 N504 1.375 . S
C506 C505 1.338 . S
C506 H510 0.931 . S
C507 N504 1.313 . S
C507 N508 1.344 . S
C507 H511 0.930 . S
N508 C505 1.377 . S
N508 C507 1.344 . S
O509 Co501 2.055 . S
O509 C513 1.253 . S
H510 C506 0.931 . S
H511 C507 0.930 . S
O512 Co501 2.039 . S
O512 C502 1.265 . S
C513 O509 1.253 . S
C513 O514 1.227 . S
O514 C513 1.227 . S
N515 Co501 2.140 . S
N515 C518 1.346 . S
N515 C519 1.345 . S
C516 C517 1.387 . S
C516 C520 1.391 . S
C517 C516 1.387 . S
C517 C518 1.369 . S
C517 H526 0.929 . S
C518 N515 1.346 . S
C518 C517 1.369 . S
C518 H521 0.928 . S
C519 N515 1.345 . S
C519 C520 1.371 . S
C519 H522 0.931 . S
C520 C516 1.391 . S
C520 C519 1.371 . S
C520 H527 0.930 . S
H521 C518 0.928 . S
H522 C519 0.931 . S
H523 C499 0.930 . S
H524 C496 0.930 . S
H525 C505 0.930 . S
H526 C517 0.929 . S
H527 C520 0.930 . S
C528 C529 1.351 . S
C528 N531 1.368 . S
C528 H533 0.931 . S
C529 C528 1.351 . S
C529 N530 1.373 . S
C529 H557 0.930 . S
N530 C529 1.373 . S
N530 C532 1.340 . S
N531 C528 1.368 . S
N531 C532 1.321 . S
N531 Co534 2.135 . S
C532 N530 1.340 . S
C532 N531 1.321 . S
C532 H556 0.930 . S
H533 C528 0.931 . S
Co534 N531 2.135 . S
Co534 N537 2.121 . S
Co534 O542 2.055 . S
Co534 O545 2.039 . S
Co534 N548 2.140 . S
C535 O536 1.227 . S
C535 O545 1.265 . S
O536 C535 1.227 . S
N537 Co534 2.121 . S
N537 C539 1.375 . S
N537 C540 1.313 . S
C538 C539 1.338 . S
C538 N541 1.377 . S
C538 H558 0.930 . S
C539 N537 1.375 . S
C539 C538 1.338 . S
C539 H543 0.931 . S
C540 N537 1.313 . S
C540 N541 1.344 . S
C540 H544 0.930 . S
N541 C538 1.377 . S
N541 C540 1.344 . S
O542 Co534 2.055 . S
O542 C546 1.253 . S
H543 C539 0.931 . S
H544 C540 0.930 . S
O545 Co534 2.039 . S
O545 C535 1.265 . S
C546 O542 1.253 . S
C546 O547 1.227 . S
O547 C546 1.227 . S
N548 Co534 2.140 . S
N548 C551 1.346 . S
N548 C552 1.345 . S
C549 C550 1.387 . S
C549 C553 1.391 . S
C550 C549 1.387 . S
C550 C551 1.369 . S
C550 H559 0.929 . S
C551 N548 1.346 . S
C551 C550 1.369 . S
C551 H554 0.928 . S
C552 N548 1.345 . S
C552 C553 1.371 . S
C552 H555 0.931 . S
C553 C549 1.391 . S
C553 C552 1.371 . S
C553 H560 0.930 . S
H554 C551 0.928 . S
H555 C552 0.931 . S
H556 C532 0.930 . S
H557 C529 0.930 . S
H558 C538 0.930 . S
H559 C550 0.929 . S
H560 C553 0.930 . S
C561 C562 1.351 . S
C561 N564 1.368 . S
C561 H566 0.931 . S
C562 C561 1.351 . S
C562 N563 1.373 . S
C562 H590 0.930 . S
N563 C562 1.373 . S
N563 C565 1.340 . S
N564 C561 1.368 . S
N564 C565 1.321 . S
N564 Co567 2.135 . S
C565 N563 1.340 . S
C565 N564 1.321 . S
C565 H589 0.930 . S
H566 C561 0.931 . S
Co567 N564 2.135 . S
Co567 N570 2.121 . S
Co567 O575 2.055 . S
Co567 O578 2.039 . S
Co567 N581 2.140 . S
C568 O569 1.227 . S
C568 O578 1.265 . S
O569 C568 1.227 . S
N570 Co567 2.121 . S
N570 C572 1.375 . S
N570 C573 1.313 . S
C571 C572 1.338 . S
C571 N574 1.377 . S
C571 H591 0.930 . S
C572 N570 1.375 . S
C572 C571 1.338 . S
C572 H576 0.931 . S
C573 N570 1.313 . S
C573 N574 1.344 . S
C573 H577 0.930 . S
N574 C571 1.377 . S
N574 C573 1.344 . S
O575 Co567 2.055 . S
O575 C579 1.253 . S
H576 C572 0.931 . S
H577 C573 0.930 . S
O578 Co567 2.039 . S
O578 C568 1.265 . S
C579 O575 1.253 . S
C579 O580 1.227 . S
O580 C579 1.227 . S
N581 Co567 2.140 . S
N581 C584 1.346 . S
N581 C585 1.345 . S
C582 C583 1.387 . S
C582 C586 1.391 . S
C583 C582 1.387 . S
C583 C584 1.369 . S
C583 H592 0.929 . S
C584 N581 1.346 . S
C584 C583 1.369 . S
C584 H587 0.928 . S
C585 N581 1.345 . S
C585 C586 1.371 . S
C585 H588 0.931 . S
C586 C582 1.391 . S
C586 C585 1.371 . S
C586 H593 0.930 . S
H587 C584 0.928 . S
H588 C585 0.931 . S
H589 C565 0.930 . S
H590 C562 0.930 . S
H591 C571 0.930 . S
H592 C583 0.929 . S
H593 C586 0.930 . S
C594 C595 1.351 . S
C594 N597 1.368 . S
C594 H599 0.931 . S
C595 C594 1.351 . S
C595 N596 1.373 . S
C595 H623 0.930 . S
N596 C595 1.373 . S
N596 C598 1.340 . S
N597 C594 1.368 . S
N597 C598 1.321 . S
N597 Co600 2.135 . S
C598 N596 1.340 . S
C598 N597 1.321 . S
C598 H622 0.930 . S
H599 C594 0.931 . S
Co600 N597 2.135 . S
Co600 N603 2.121 . S
Co600 O608 2.055 . S
Co600 O611 2.039 . S
Co600 N614 2.140 . S
C601 O602 1.227 . S
C601 O611 1.265 . S
O602 C601 1.227 . S
N603 Co600 2.121 . S
N603 C605 1.375 . S
N603 C606 1.313 . S
C604 C605 1.338 . S
C604 N607 1.377 . S
C604 H624 0.930 . S
C605 N603 1.375 . S
C605 C604 1.338 . S
C605 H609 0.931 . S
C606 N603 1.313 . S
C606 N607 1.344 . S
C606 H610 0.930 . S
N607 C604 1.377 . S
N607 C606 1.344 . S
O608 Co600 2.055 . S
O608 C612 1.253 . S
H609 C605 0.931 . S
H610 C606 0.930 . S
O611 Co600 2.039 . S
O611 C601 1.265 . S
C612 O608 1.253 . S
C612 O613 1.227 . S
O613 C612 1.227 . S
N614 Co600 2.140 . S
N614 C617 1.346 . S
N614 C618 1.345 . S
C615 C616 1.387 . S
C615 C619 1.391 . S
C616 C615 1.387 . S
C616 C617 1.369 . S
C616 H625 0.929 . S
C617 N614 1.346 . S
C617 C616 1.369 . S
C617 H620 0.928 . S
C618 N614 1.345 . S
C618 C619 1.371 . S
C618 H621 0.931 . S
C619 C615 1.391 . S
C619 C618 1.371 . S
C619 H626 0.930 . S
H620 C617 0.928 . S
H621 C618 0.931 . S
H622 C598 0.930 . S
H623 C595 0.930 . S
H624 C604 0.930 . S
H625 C616 0.929 . S
H626 C619 0.930 . S
C627 C628 1.351 . S
C627 N630 1.368 . S
C627 H632 0.931 . S
C628 C627 1.351 . S
C628 N629 1.373 . S
C628 H656 0.930 . S
N629 C628 1.373 . S
N629 C631 1.340 . S
N630 C627 1.368 . S
N630 C631 1.321 . S
N630 Co633 2.135 . S
C631 N629 1.340 . S
C631 N630 1.321 . S
C631 H655 0.930 . S
H632 C627 0.931 . S
Co633 N630 2.135 . S
Co633 N636 2.121 . S
Co633 O641 2.055 . S
Co633 O644 2.039 . S
Co633 N647 2.140 . S
C634 O635 1.227 . S
C634 O644 1.265 . S
O635 C634 1.227 . S
N636 Co633 2.121 . S
N636 C638 1.375 . S
N636 C639 1.313 . S
C637 C638 1.338 . S
C637 N640 1.377 . S
C637 H657 0.930 . S
C638 N636 1.375 . S
C638 C637 1.338 . S
C638 H642 0.931 . S
C639 N636 1.313 . S
C639 N640 1.344 . S
C639 H643 0.930 . S
N640 C637 1.377 . S
N640 C639 1.344 . S
O641 Co633 2.055 . S
O641 C645 1.253 . S
H642 C638 0.931 . S
H643 C639 0.930 . S
O644 Co633 2.039 . S
O644 C634 1.265 . S
C645 O641 1.253 . S
C645 O646 1.227 . S
O646 C645 1.227 . S
N647 Co633 2.140 . S
N647 C650 1.346 . S
N647 C651 1.345 . S
C648 C649 1.387 . S
C648 C652 1.391 . S
C649 C648 1.387 . S
C649 C650 1.369 . S
C649 H658 0.929 . S
C650 N647 1.346 . S
C650 C649 1.369 . S
C650 H653 0.928 . S
C651 N647 1.345 . S
C651 C652 1.371 . S
C651 H654 0.931 . S
C652 C648 1.391 . S
C652 C651 1.371 . S
C652 H659 0.930 . S
H653 C650 0.928 . S
H654 C651 0.931 . S
H655 C631 0.930 . S
H656 C628 0.930 . S
H657 C637 0.930 . S
H658 C649 0.929 . S
H659 C652 0.930 . S
C660 C661 1.351 . S
C660 N663 1.368 . S
C660 H665 0.931 . S
C661 C660 1.351 . S
C661 N662 1.373 . S
C661 H689 0.930 . S
N662 C661 1.373 . S
N662 C664 1.340 . S
N663 C660 1.368 . S
N663 C664 1.321 . S
N663 Co666 2.135 . S
C664 N662 1.340 . S
C664 N663 1.321 . S
C664 H688 0.930 . S
H665 C660 0.931 . S
Co666 N663 2.135 . S
Co666 N669 2.121 . S
Co666 O674 2.055 . S
Co666 O677 2.039 . S
Co666 N680 2.140 . S
C667 O668 1.227 . S
C667 O677 1.265 . S
O668 C667 1.227 . S
N669 Co666 2.121 . S
N669 C671 1.375 . S
N669 C672 1.313 . S
C670 C671 1.338 . S
C670 N673 1.377 . S
C670 H690 0.930 . S
C671 N669 1.375 . S
C671 C670 1.338 . S
C671 H675 0.931 . S
C672 N669 1.313 . S
C672 N673 1.344 . S
C672 H676 0.930 . S
N673 C670 1.377 . S
N673 C672 1.344 . S
O674 Co666 2.055 . S
O674 C678 1.253 . S
H675 C671 0.931 . S
H676 C672 0.930 . S
O677 Co666 2.039 . S
O677 C667 1.265 . S
C678 O674 1.253 . S
C678 O679 1.227 . S
O679 C678 1.227 . S
N680 Co666 2.140 . S
N680 C683 1.346 . S
N680 C684 1.345 . S
C681 C682 1.387 . S
C681 C685 1.391 . S
C682 C681 1.387 . S
C682 C683 1.369 . S
C682 H691 0.929 . S
C683 N680 1.346 . S
C683 C682 1.369 . S
C683 H686 0.928 . S
C684 N680 1.345 . S
C684 C685 1.371 . S
C684 H687 0.931 . S
C685 C681 1.391 . S
C685 C684 1.371 . S
C685 H692 0.930 . S
H686 C683 0.928 . S
H687 C684 0.931 . S
H688 C664 0.930 . S
H689 C661 0.930 . S
H690 C670 0.930 . S
H691 C682 0.929 . S
H692 C685 0.930 . S
C693 C694 1.351 . S
C693 N696 1.368 . S
C693 H698 0.931 . S
C694 C693 1.351 . S
C694 N695 1.373 . S
C694 H722 0.930 . S
N695 C694 1.373 . S
N695 C697 1.340 . S
N696 C693 1.368 . S
N696 C697 1.321 . S
N696 Co699 2.135 . S
C697 N695 1.340 . S
C697 N696 1.321 . S
C697 H721 0.930 . S
H698 C693 0.931 . S
Co699 N696 2.135 . S
Co699 N702 2.121 . S
Co699 O707 2.055 . S
Co699 O710 2.039 . S
Co699 N713 2.140 . S
C700 O701 1.227 . S
C700 O710 1.265 . S
O701 C700 1.227 . S
N702 Co699 2.121 . S
N702 C704 1.375 . S
N702 C705 1.313 . S
C703 C704 1.338 . S
C703 N706 1.377 . S
C703 H723 0.930 . S
C704 N702 1.375 . S
C704 C703 1.338 . S
C704 H708 0.931 . S
C705 N702 1.313 . S
C705 N706 1.344 . S
C705 H709 0.930 . S
N706 C703 1.377 . S
N706 C705 1.344 . S
O707 Co699 2.055 . S
O707 C711 1.253 . S
H708 C704 0.931 . S
H709 C705 0.930 . S
O710 Co699 2.039 . S
O710 C700 1.265 . S
C711 O707 1.253 . S
C711 O712 1.227 . S
O712 C711 1.227 . S
N713 Co699 2.140 . S
N713 C716 1.346 . S
N713 C717 1.345 . S
C714 C715 1.387 . S
C714 C718 1.391 . S
C715 C714 1.387 . S
C715 C716 1.369 . S
C715 H724 0.929 . S
C716 N713 1.346 . S
C716 C715 1.369 . S
C716 H719 0.928 . S
C717 N713 1.345 . S
C717 C718 1.371 . S
C717 H720 0.931 . S
C718 C714 1.391 . S
C718 C717 1.371 . S
C718 H725 0.930 . S
H719 C716 0.928 . S
H720 C717 0.931 . S
H721 C697 0.930 . S
H722 C694 0.930 . S
H723 C703 0.930 . S
H724 C715 0.929 . S
H725 C718 0.930 . S
C726 C727 1.351 . S
C726 N729 1.368 . S
C726 H731 0.931 . S
C727 C726 1.351 . S
C727 N728 1.373 . S
C727 H755 0.930 . S
N728 C727 1.373 . S
N728 C730 1.340 . S
N729 C726 1.368 . S
N729 C730 1.321 . S
N729 Co732 2.135 . S
C730 N728 1.340 . S
C730 N729 1.321 . S
C730 H754 0.930 . S
H731 C726 0.931 . S
Co732 N729 2.135 . S
Co732 N735 2.121 . S
Co732 O740 2.055 . S
Co732 O743 2.039 . S
Co732 N746 2.140 . S
C733 O734 1.227 . S
C733 O743 1.265 . S
O734 C733 1.227 . S
N735 Co732 2.121 . S
N735 C737 1.375 . S
N735 C738 1.313 . S
C736 C737 1.338 . S
C736 N739 1.377 . S
C736 H756 0.930 . S
C737 N735 1.375 . S
C737 C736 1.338 . S
C737 H741 0.931 . S
C738 N735 1.313 . S
C738 N739 1.344 . S
C738 H742 0.930 . S
N739 C736 1.377 . S
N739 C738 1.344 . S
O740 Co732 2.055 . S
O740 C744 1.253 . S
H741 C737 0.931 . S
H742 C738 0.930 . S
O743 Co732 2.039 . S
O743 C733 1.265 . S
C744 O740 1.253 . S
C744 O745 1.227 . S
O745 C744 1.227 . S
N746 Co732 2.140 . S
N746 C749 1.346 . S
N746 C750 1.345 . S
C747 C748 1.387 . S
C747 C751 1.391 . S
C748 C747 1.387 . S
C748 C749 1.369 . S
C748 H757 0.929 . S
C749 N746 1.346 . S
C749 C748 1.369 . S
C749 H752 0.928 . S
C750 N746 1.345 . S
C750 C751 1.371 . S
C750 H753 0.931 . S
C751 C747 1.391 . S
C751 C750 1.371 . S
C751 H758 0.930 . S
H752 C749 0.928 . S
H753 C750 0.931 . S
H754 C730 0.930 . S
H755 C727 0.930 . S
H756 C736 0.930 . S
H757 C748 0.929 . S
H758 C751 0.930 . S
C759 C760 1.351 . S
C759 N762 1.368 . S
C759 H764 0.931 . S
C760 C759 1.351 . S
C760 N761 1.373 . S
C760 H788 0.930 . S
N761 C760 1.373 . S
N761 C763 1.340 . S
N762 C759 1.368 . S
N762 C763 1.321 . S
N762 Co765 2.135 . S
C763 N761 1.340 . S
C763 N762 1.321 . S
C763 H787 0.930 . S
H764 C759 0.931 . S
Co765 N762 2.135 . S
Co765 N768 2.121 . S
Co765 O773 2.055 . S
Co765 O776 2.039 . S
Co765 N779 2.140 . S
C766 O767 1.227 . S
C766 O776 1.265 . S
O767 C766 1.227 . S
N768 Co765 2.121 . S
N768 C770 1.375 . S
N768 C771 1.313 . S
C769 C770 1.338 . S
C769 N772 1.377 . S
C769 H789 0.930 . S
C770 N768 1.375 . S
C770 C769 1.338 . S
C770 H774 0.931 . S
C771 N768 1.313 . S
C771 N772 1.344 . S
C771 H775 0.930 . S
N772 C769 1.377 . S
N772 C771 1.344 . S
O773 Co765 2.055 . S
O773 C777 1.253 . S
H774 C770 0.931 . S
H775 C771 0.930 . S
O776 Co765 2.039 . S
O776 C766 1.265 . S
C777 O773 1.253 . S
C777 O778 1.227 . S
O778 C777 1.227 . S
N779 Co765 2.140 . S
N779 C782 1.346 . S
N779 C783 1.345 . S
C780 C781 1.387 . S
C780 C784 1.391 . S
C781 C780 1.387 . S
C781 C782 1.369 . S
C781 H790 0.929 . S
C782 N779 1.346 . S
C782 C781 1.369 . S
C782 H785 0.928 . S
C783 N779 1.345 . S
C783 C784 1.371 . S
C783 H786 0.931 . S
C784 C780 1.391 . S
C784 C783 1.371 . S
C784 H791 0.930 . S
H785 C782 0.928 . S
H786 C783 0.931 . S
H787 C763 0.930 . S
H788 C760 0.930 . S
H789 C769 0.930 . S
H790 C781 0.929 . S
H791 C784 0.930 . S
C792 C793 1.351 . S
C792 N795 1.368 . S
C792 H797 0.931 . S
C793 C792 1.351 . S
C793 N794 1.373 . S
C793 H821 0.930 . S
N794 C793 1.373 . S
N794 C796 1.340 . S
N795 C792 1.368 . S
N795 C796 1.321 . S
N795 Co798 2.135 . S
C796 N794 1.340 . S
C796 N795 1.321 . S
C796 H820 0.930 . S
H797 C792 0.931 . S
Co798 N795 2.135 . S
Co798 N801 2.121 . S
Co798 O806 2.055 . S
Co798 O809 2.039 . S
Co798 N812 2.140 . S
C799 O800 1.227 . S
C799 O809 1.265 . S
O800 C799 1.227 . S
N801 Co798 2.121 . S
N801 C803 1.375 . S
N801 C804 1.313 . S
C802 C803 1.338 . S
C802 N805 1.377 . S
C802 H822 0.930 . S
C803 N801 1.375 . S
C803 C802 1.338 . S
C803 H807 0.931 . S
C804 N801 1.313 . S
C804 N805 1.344 . S
C804 H808 0.930 . S
N805 C802 1.377 . S
N805 C804 1.344 . S
O806 Co798 2.055 . S
O806 C810 1.253 . S
H807 C803 0.931 . S
H808 C804 0.930 . S
O809 Co798 2.039 . S
O809 C799 1.265 . S
C810 O806 1.253 . S
C810 O811 1.227 . S
O811 C810 1.227 . S
N812 Co798 2.140 . S
N812 C815 1.346 . S
N812 C816 1.345 . S
C813 C814 1.387 . S
C813 C817 1.391 . S
C814 C813 1.387 . S
C814 C815 1.369 . S
C814 H823 0.929 . S
C815 N812 1.346 . S
C815 C814 1.369 . S
C815 H818 0.928 . S
C816 N812 1.345 . S
C816 C817 1.371 . S
C816 H819 0.931 . S
C817 C813 1.391 . S
C817 C816 1.371 . S
C817 H824 0.930 . S
H818 C815 0.928 . S
H819 C816 0.931 . S
H820 C796 0.930 . S
H821 C793 0.930 . S
H822 C802 0.930 . S
H823 C814 0.929 . S
H824 C817 0.930 . S
C825 C826 1.351 . S
C825 N828 1.368 . S
C825 H830 0.931 . S
C826 C825 1.351 . S
C826 N827 1.373 . S
C826 H854 0.930 . S
N827 C826 1.373 . S
N827 C829 1.340 . S
N828 C825 1.368 . S
N828 C829 1.321 . S
N828 Co831 2.135 . S
C829 N827 1.340 . S
C829 N828 1.321 . S
C829 H853 0.930 . S
H830 C825 0.931 . S
Co831 N828 2.135 . S
Co831 N834 2.121 . S
Co831 O839 2.055 . S
Co831 O842 2.039 . S
Co831 N845 2.140 . S
C832 O833 1.227 . S
C832 O842 1.265 . S
O833 C832 1.227 . S
N834 Co831 2.121 . S
N834 C836 1.375 . S
N834 C837 1.313 . S
C835 C836 1.338 . S
C835 N838 1.377 . S
C835 H855 0.930 . S
C836 N834 1.375 . S
C836 C835 1.338 . S
C836 H840 0.931 . S
C837 N834 1.313 . S
C837 N838 1.344 . S
C837 H841 0.930 . S
N838 C835 1.377 . S
N838 C837 1.344 . S
O839 Co831 2.055 . S
O839 C843 1.253 . S
H840 C836 0.931 . S
H841 C837 0.930 . S
O842 Co831 2.039 . S
O842 C832 1.265 . S
C843 O839 1.253 . S
C843 O844 1.227 . S
O844 C843 1.227 . S
N845 Co831 2.140 . S
N845 C848 1.346 . S
N845 C849 1.345 . S
C846 C847 1.387 . S
C846 C850 1.391 . S
C847 C846 1.387 . S
C847 C848 1.369 . S
C847 H856 0.929 . S
C848 N845 1.346 . S
C848 C847 1.369 . S
C848 H851 0.928 . S
C849 N845 1.345 . S
C849 C850 1.371 . S
C849 H852 0.931 . S
C850 C846 1.391 . S
C850 C849 1.371 . S
C850 H857 0.930 . S
H851 C848 0.928 . S
H852 C849 0.931 . S
H853 C829 0.930 . S
H854 C826 0.930 . S
H855 C835 0.930 . S
H856 C847 0.929 . S
H857 C850 0.930 . S
C858 C859 1.351 . S
C858 N861 1.368 . S
C858 H863 0.931 . S
C859 C858 1.351 . S
C859 N860 1.373 . S
C859 H887 0.930 . S
N860 C859 1.373 . S
N860 C862 1.340 . S
N861 C858 1.368 . S
N861 C862 1.321 . S
N861 Co864 2.135 . S
C862 N860 1.340 . S
C862 N861 1.321 . S
C862 H886 0.930 . S
H863 C858 0.931 . S
Co864 N861 2.135 . S
Co864 N867 2.121 . S
Co864 O872 2.055 . S
Co864 O875 2.039 . S
Co864 N878 2.140 . S
C865 O866 1.227 . S
C865 O875 1.265 . S
O866 C865 1.227 . S
N867 Co864 2.121 . S
N867 C869 1.375 . S
N867 C870 1.313 . S
C868 C869 1.338 . S
C868 N871 1.377 . S
C868 H888 0.930 . S
C869 N867 1.375 . S
C869 C868 1.338 . S
C869 H873 0.931 . S
C870 N867 1.313 . S
C870 N871 1.344 . S
C870 H874 0.930 . S
N871 C868 1.377 . S
N871 C870 1.344 . S
O872 Co864 2.055 . S
O872 C876 1.253 . S
H873 C869 0.931 . S
H874 C870 0.930 . S
O875 Co864 2.039 . S
O875 C865 1.265 . S
C876 O872 1.253 . S
C876 O877 1.227 . S
O877 C876 1.227 . S
N878 Co864 2.140 . S
N878 C881 1.346 . S
N878 C882 1.345 . S
C879 C880 1.387 . S
C879 C883 1.391 . S
C880 C879 1.387 . S
C880 C881 1.369 . S
C880 H889 0.929 . S
C881 N878 1.346 . S
C881 C880 1.369 . S
C881 H884 0.928 . S
C882 N878 1.345 . S
C882 C883 1.371 . S
C882 H885 0.931 . S
C883 C879 1.391 . S
C883 C882 1.371 . S
C883 H890 0.930 . S
H884 C881 0.928 . S
H885 C882 0.931 . S
H886 C862 0.930 . S
H887 C859 0.930 . S
H888 C868 0.930 . S
H889 C880 0.929 . S
H890 C883 0.930 . S
C891 C892 1.351 . S
C891 N894 1.368 . S
C891 H896 0.931 . S
C892 C891 1.351 . S
C892 N893 1.373 . S
C892 H920 0.930 . S
N893 C892 1.373 . S
N893 C895 1.340 . S
N894 C891 1.368 . S
N894 C895 1.321 . S
N894 Co897 2.135 . S
C895 N893 1.340 . S
C895 N894 1.321 . S
C895 H919 0.930 . S
H896 C891 0.931 . S
Co897 N894 2.135 . S
Co897 N900 2.121 . S
Co897 O905 2.055 . S
Co897 O908 2.039 . S
Co897 N911 2.140 . S
C898 O899 1.227 . S
C898 O908 1.265 . S
O899 C898 1.227 . S
N900 Co897 2.121 . S
N900 C902 1.375 . S
N900 C903 1.313 . S
C901 C902 1.338 . S
C901 N904 1.377 . S
C901 H921 0.930 . S
C902 N900 1.375 . S
C902 C901 1.338 . S
C902 H906 0.931 . S
C903 N900 1.313 . S
C903 N904 1.344 . S
C903 H907 0.930 . S
N904 C901 1.377 . S
N904 C903 1.344 . S
O905 Co897 2.055 . S
O905 C909 1.253 . S
H906 C902 0.931 . S
H907 C903 0.930 . S
O908 Co897 2.039 . S
O908 C898 1.265 . S
C909 O905 1.253 . S
C909 O910 1.227 . S
O910 C909 1.227 . S
N911 Co897 2.140 . S
N911 C914 1.346 . S
N911 C915 1.345 . S
C912 C913 1.387 . S
C912 C916 1.391 . S
C913 C912 1.387 . S
C913 C914 1.369 . S
C913 H922 0.929 . S
C914 N911 1.346 . S
C914 C913 1.369 . S
C914 H917 0.928 . S
C915 N911 1.345 . S
C915 C916 1.371 . S
C915 H918 0.931 . S
C916 C912 1.391 . S
C916 C915 1.371 . S
C916 H923 0.930 . S
H917 C914 0.928 . S
H918 C915 0.931 . S
H919 C895 0.930 . S
H920 C892 0.930 . S
H921 C901 0.930 . S
H922 C913 0.929 . S
H923 C916 0.930 . S
C924 C925 1.351 . S
C924 N927 1.368 . S
C924 H929 0.931 . S
C925 C924 1.351 . S
C925 N926 1.373 . S
C925 H953 0.930 . S
N926 C925 1.373 . S
N926 C928 1.340 . S
N927 C924 1.368 . S
N927 C928 1.321 . S
N927 Co930 2.135 . S
C928 N926 1.340 . S
C928 N927 1.321 . S
C928 H952 0.930 . S
H929 C924 0.931 . S
Co930 N927 2.135 . S
Co930 N933 2.121 . S
Co930 O938 2.055 . S
Co930 O941 2.039 . S
Co930 N944 2.140 . S
C931 O932 1.227 . S
C931 O941 1.265 . S
O932 C931 1.227 . S
N933 Co930 2.121 . S
N933 C935 1.375 . S
N933 C936 1.313 . S
C934 C935 1.338 . S
C934 N937 1.377 . S
C934 H954 0.930 . S
C935 N933 1.375 . S
C935 C934 1.338 . S
C935 H939 0.931 . S
C936 N933 1.313 . S
C936 N937 1.344 . S
C936 H940 0.930 . S
N937 C934 1.377 . S
N937 C936 1.344 . S
O938 Co930 2.055 . S
O938 C942 1.253 . S
H939 C935 0.931 . S
H940 C936 0.930 . S
O941 Co930 2.039 . S
O941 C931 1.265 . S
C942 O938 1.253 . S
C942 O943 1.227 . S
O943 C942 1.227 . S
N944 Co930 2.140 . S
N944 C947 1.346 . S
N944 C948 1.345 . S
C945 C946 1.387 . S
C945 C949 1.391 . S
C946 C945 1.387 . S
C946 C947 1.369 . S
C946 H955 0.929 . S
C947 N944 1.346 . S
C947 C946 1.369 . S
C947 H950 0.928 . S
C948 N944 1.345 . S
C948 C949 1.371 . S
C948 H951 0.931 . S
C949 C945 1.391 . S
C949 C948 1.371 . S
C949 H956 0.930 . S
H950 C947 0.928 . S
H951 C948 0.931 . S
H952 C928 0.930 . S
H953 C925 0.930 . S
H954 C934 0.930 . S
H955 C946 0.929 . S
H956 C949 0.930 . S
C957 C958 1.351 . S
C957 N960 1.368 . S
C957 H962 0.931 . S
C958 C957 1.351 . S
C958 N959 1.373 . S
C958 H986 0.930 . S
N959 C958 1.373 . S
N959 C961 1.340 . S
N960 C957 1.368 . S
N960 C961 1.321 . S
N960 Co963 2.135 . S
C961 N959 1.340 . S
C961 N960 1.321 . S
C961 H985 0.930 . S
H962 C957 0.931 . S
Co963 N960 2.135 . S
Co963 N966 2.121 . S
Co963 O971 2.055 . S
Co963 O974 2.039 . S
Co963 N977 2.140 . S
C964 O965 1.227 . S
C964 O974 1.265 . S
O965 C964 1.227 . S
N966 Co963 2.121 . S
N966 C968 1.375 . S
N966 C969 1.313 . S
C967 C968 1.338 . S
C967 N970 1.377 . S
C967 H987 0.930 . S
C968 N966 1.375 . S
C968 C967 1.338 . S
C968 H972 0.931 . S
C969 N966 1.313 . S
C969 N970 1.344 . S
C969 H973 0.930 . S
N970 C967 1.377 . S
N970 C969 1.344 . S
O971 Co963 2.055 . S
O971 C975 1.253 . S
H972 C968 0.931 . S
H973 C969 0.930 . S
O974 Co963 2.039 . S
O974 C964 1.265 . S
C975 O971 1.253 . S
C975 O976 1.227 . S
O976 C975 1.227 . S
N977 Co963 2.140 . S
N977 C980 1.346 . S
N977 C981 1.345 . S
C978 C979 1.387 . S
C978 C982 1.391 . S
C979 C978 1.387 . S
C979 C980 1.369 . S
C979 H988 0.929 . S
C980 N977 1.346 . S
C980 C979 1.369 . S
C980 H983 0.928 . S
C981 N977 1.345 . S
C981 C982 1.371 . S
C981 H984 0.931 . S
C982 C978 1.391 . S
C982 C981 1.371 . S
C982 H989 0.930 . S
H983 C980 0.928 . S
H984 C981 0.931 . S
H985 C961 0.930 . S
H986 C958 0.930 . S
H987 C967 0.930 . S
H988 C979 0.929 . S
H989 C982 0.930 . S
C990 C991 1.351 . S
C990 N993 1.368 . S
C990 H995 0.931 . S
C991 C990 1.351 . S
C991 N992 1.373 . S
C991 H1019 0.930 . S
N992 C991 1.373 . S
N992 C994 1.340 . S
N993 C990 1.368 . S
N993 C994 1.321 . S
N993 Co996 2.135 . S
C994 N992 1.340 . S
C994 N993 1.321 . S
C994 H1018 0.930 . S
H995 C990 0.931 . S
Co996 N993 2.135 . S
Co996 N999 2.121 . S
Co996 O1004 2.055 . S
Co996 O1007 2.039 . S
Co996 N1010 2.140 . S
C997 O998 1.227 . S
C997 O1007 1.265 . S
O998 C997 1.227 . S
N999 Co996 2.121 . S
N999 C1001 1.375 . S
N999 C1002 1.313 . S
C1000 C1001 1.338 . S
C1000 N1003 1.377 . S
C1000 H1020 0.930 . S
C1001 N999 1.375 . S
C1001 C1000 1.338 . S
C1001 H1005 0.931 . S
C1002 N999 1.313 . S
C1002 N1003 1.344 . S
C1002 H1006 0.930 . S
N1003 C1000 1.377 . S
N1003 C1002 1.344 . S
O1004 Co996 2.055 . S
O1004 C1008 1.253 . S
H1005 C1001 0.931 . S
H1006 C1002 0.930 . S
O1007 Co996 2.039 . S
O1007 C997 1.265 . S
C1008 O1004 1.253 . S
C1008 O1009 1.227 . S
O1009 C1008 1.227 . S
N1010 Co996 2.140 . S
N1010 C1013 1.346 . S
N1010 C1014 1.345 . S
C1011 C1012 1.387 . S
C1011 C1015 1.391 . S
C1012 C1011 1.387 . S
C1012 C1013 1.369 . S
C1012 H1021 0.929 . S
C1013 N1010 1.346 . S
C1013 C1012 1.369 . S
C1013 H1016 0.928 . S
C1014 N1010 1.345 . S
C1014 C1015 1.371 . S
C1014 H1017 0.931 . S
C1015 C1011 1.391 . S
C1015 C1014 1.371 . S
C1015 H1022 0.930 . S
H1016 C1013 0.928 . S
H1017 C1014 0.931 . S
H1018 C994 0.930 . S
H1019 C991 0.930 . S
H1020 C1000 0.930 . S
H1021 C1012 0.929 . S
H1022 C1015 0.930 . S
C1023 C1024 1.351 . S
C1023 N1026 1.368 . S
C1023 H1028 0.931 . S
C1024 C1023 1.351 . S
C1024 N1025 1.373 . S
C1024 H1052 0.930 . S
N1025 C1024 1.373 . S
N1025 C1027 1.340 . S
N1026 C1023 1.368 . S
N1026 C1027 1.321 . S
N1026 Co1029 2.135 . S
C1027 N1025 1.340 . S
C1027 N1026 1.321 . S
C1027 H1051 0.930 . S
H1028 C1023 0.931 . S
Co1029 N1026 2.135 . S
Co1029 N1032 2.121 . S
Co1029 O1037 2.055 . S
Co1029 O1040 2.039 . S
Co1029 N1043 2.140 . S
C1030 O1031 1.227 . S
C1030 O1040 1.265 . S
O1031 C1030 1.227 . S
N1032 Co1029 2.121 . S
N1032 C1034 1.375 . S
N1032 C1035 1.313 . S
C1033 C1034 1.338 . S
C1033 N1036 1.377 . S
C1033 H1053 0.930 . S
C1034 N1032 1.375 . S
C1034 C1033 1.338 . S
C1034 H1038 0.931 . S
C1035 N1032 1.313 . S
C1035 N1036 1.344 . S
C1035 H1039 0.930 . S
N1036 C1033 1.377 . S
N1036 C1035 1.344 . S
O1037 Co1029 2.055 . S
O1037 C1041 1.253 . S
H1038 C1034 0.931 . S
H1039 C1035 0.930 . S
O1040 Co1029 2.039 . S
O1040 C1030 1.265 . S
C1041 O1037 1.253 . S
C1041 O1042 1.227 . S
O1042 C1041 1.227 . S
N1043 Co1029 2.140 . S
N1043 C1046 1.346 . S
N1043 C1047 1.345 . S
C1044 C1045 1.387 . S
C1044 C1048 1.391 . S
C1045 C1044 1.387 . S
C1045 C1046 1.369 . S
C1045 H1054 0.929 . S
C1046 N1043 1.346 . S
C1046 C1045 1.369 . S
C1046 H1049 0.928 . S
C1047 N1043 1.345 . S
C1047 C1048 1.371 . S
C1047 H1050 0.931 . S
C1048 C1044 1.391 . S
C1048 C1047 1.371 . S
C1048 H1055 0.930 . S
H1049 C1046 0.928 . S
H1050 C1047 0.931 . S
H1051 C1027 0.930 . S
H1052 C1024 0.930 . S
H1053 C1033 0.930 . S
H1054 C1045 0.929 . S
H1055 C1048 0.930 . S
C1056 C1057 1.349 . S
C1056 C1058 1.327 1_556 S
C1056 H1081 0.950 . S
C1057 C1056 1.349 . S
C1057 C1073 1.349 . S
C1058 C1056 1.327 1_554 S
C1058 C1077 1.429 . S
C1058 H1082 0.950 . S
C1059 C1076 1.574 . S
C1059 C1078 1.368 . S
C1059 H1083 0.949 . S
H1060 C1064 0.949 . S
C1061 C1062 1.349 . S
C1061 C1063 1.327 . S
C1061 H1084 0.950 . S
C1062 C1061 1.349 . S
C1062 C1074 1.349 . S
C1063 C1061 1.327 . S
C1063 C1079 1.429 . S
C1063 H1085 0.950 . S
C1064 H1060 0.949 . S
C1064 C1072 1.574 . S
C1064 C1080 1.368 . S
H1065 C1073 0.950 . S
H1066 C1071 0.950 . S
H1067 C1072 0.949 . S
H1068 C1074 0.950 . S
H1069 C1075 0.950 . S
H1070 C1076 0.949 . S
C1071 H1066 0.950 . S
C1071 C1073 1.327 1_554 S
C1071 C1077 1.429 . S
C1072 C1064 1.574 . S
C1072 H1067 0.949 . S
C1072 C1078 1.368 . S
C1073 C1057 1.349 . S
C1073 H1065 0.950 . S
C1073 C1071 1.327 1_556 S
C1074 C1062 1.349 . S
C1074 H1068 0.950 . S
C1074 C1075 1.327 . S
C1075 H1069 0.950 . S
C1075 C1074 1.327 . S
C1075 C1079 1.429 . S
C1076 C1059 1.574 . S
C1076 H1070 0.949 . S
C1076 C1080 1.368 . S
C1077 C1058 1.429 . S
C1077 C1071 1.429 . S
C1077 C1078 1.523 . S
C1078 C1059 1.368 . S
C1078 C1072 1.368 . S
C1078 C1077 1.523 . S
C1079 C1063 1.429 . S
C1079 C1075 1.429 . S
C1079 C1080 1.523 . S
C1080 C1064 1.368 . S
C1080 C1076 1.368 . S
C1080 C1079 1.523 . S
H1081 C1056 0.950 . S
H1082 C1058 0.950 . S
H1083 C1059 0.949 . S
H1084 C1061 0.950 . S
H1085 C1063 0.950 . S
C1086 C1087 1.349 . S
C1086 C1088 1.327 . S
C1086 H1111 0.950 . S
C1087 C1086 1.349 . S
C1087 C1103 1.349 . S
C1088 C1086 1.327 . S
C1088 C1107 1.429 . S
C1088 H1112 0.950 . S
C1089 C1106 1.574 . S
C1089 C1108 1.368 . S
C1089 H1113 0.949 . S
H1090 C1094 0.949 . S
C1091 C1092 1.349 . S
C1091 C1093 1.327 . S
C1091 H1114 0.950 . S
C1092 C1091 1.349 . S
C1092 C1104 1.349 . S
C1093 C1091 1.327 . S
C1093 C1109 1.429 . S
C1093 H1115 0.950 . S
C1094 H1090 0.949 . S
C1094 C1102 1.574 . S
C1094 C1110 1.368 . S
H1095 C1103 0.950 . S
H1096 C1101 0.950 . S
H1097 C1102 0.949 . S
H1098 C1104 0.950 . S
H1099 C1105 0.950 . S
H1100 C1106 0.949 . S
C1101 H1096 0.950 . S
C1101 C1103 1.327 . S
C1101 C1107 1.429 . S
C1102 C1094 1.574 . S
C1102 H1097 0.949 . S
C1102 C1108 1.368 . S
C1103 C1087 1.349 . S
C1103 H1095 0.950 . S
C1103 C1101 1.327 . S
C1104 C1092 1.349 . S
C1104 H1098 0.950 . S
C1104 C1105 1.327 . S
C1105 H1099 0.950 . S
C1105 C1104 1.327 . S
C1105 C1109 1.429 . S
C1106 C1089 1.574 . S
C1106 H1100 0.949 . S
C1106 C1110 1.368 . S
C1107 C1088 1.429 . S
C1107 C1101 1.429 . S
C1107 C1108 1.523 . S
C1108 C1089 1.368 . S
C1108 C1102 1.368 . S
C1108 C1107 1.523 . S
C1109 C1093 1.429 . S
C1109 C1105 1.429 . S
C1109 C1110 1.523 . S
C1110 C1094 1.368 . S
C1110 C1106 1.368 . S
C1110 C1109 1.523 . S
H1111 C1086 0.950 . S
H1112 C1088 0.950 . S
H1113 C1089 0.949 . S
H1114 C1091 0.950 . S
H1115 C1093 0.950 . S
C1116 C1117 1.349 . S
C1116 C1118 1.327 . S
C1116 H1141 0.950 . S
C1117 C1116 1.349 . S
C1117 C1133 1.349 . S
C1118 C1116 1.327 . S
C1118 C1137 1.429 . S
C1118 H1142 0.950 . S
C1119 C1136 1.574 . S
C1119 C1138 1.368 . S
C1119 H1143 0.949 . S
H1120 C1124 0.949 . S
C1121 C1122 1.349 . S
C1121 C1123 1.327 . S
C1121 H1144 0.950 . S
C1122 C1121 1.349 . S
C1122 C1134 1.349 . S
C1123 C1121 1.327 . S
C1123 C1139 1.429 . S
C1123 H1145 0.950 . S
C1124 H1120 0.949 . S
C1124 C1132 1.574 . S
C1124 C1140 1.368 . S
H1125 C1133 0.950 . S
H1126 C1131 0.950 . S
H1127 C1132 0.949 . S
H1128 C1134 0.950 . S
H1129 C1135 0.950 . S
H1130 C1136 0.949 . S
C1131 H1126 0.950 . S
C1131 C1133 1.327 . S
C1131 C1137 1.429 . S
C1132 C1124 1.574 . S
C1132 H1127 0.949 . S
C1132 C1138 1.368 . S
C1133 C1117 1.349 . S
C1133 H1125 0.950 . S
C1133 C1131 1.327 . S
C1134 C1122 1.349 . S
C1134 H1128 0.950 . S
C1134 C1135 1.327 . S
C1135 H1129 0.950 . S
C1135 C1134 1.327 . S
C1135 C1139 1.429 . S
C1136 C1119 1.574 . S
C1136 H1130 0.949 . S
C1136 C1140 1.368 . S
C1137 C1118 1.429 . S
C1137 C1131 1.429 . S
C1137 C1138 1.523 . S
C1138 C1119 1.368 . S
C1138 C1132 1.368 . S
C1138 C1137 1.523 . S
C1139 C1123 1.429 . S
C1139 C1135 1.429 . S
C1139 C1140 1.523 . S
C1140 C1124 1.368 . S
C1140 C1136 1.368 . S
C1140 C1139 1.523 . S
H1141 C1116 0.950 . S
H1142 C1118 0.950 . S
H1143 C1119 0.949 . S
H1144 C1121 0.950 . S
H1145 C1123 0.950 . S
C1146 C1147 1.349 . S
C1146 C1148 1.327 . S
C1146 H1171 0.950 . S
C1147 C1146 1.349 . S
C1147 C1163 1.349 . S
C1148 C1146 1.327 . S
C1148 C1167 1.429 . S
C1148 H1172 0.950 . S
C1149 C1166 1.574 . S
C1149 C1168 1.368 . S
C1149 H1173 0.949 . S
H1150 C1154 0.949 . S
C1151 C1152 1.349 . S
C1151 C1153 1.327 1_554 S
C1151 H1174 0.950 . S
C1152 C1151 1.349 . S
C1152 C1164 1.349 . S
C1153 C1151 1.327 1_556 S
C1153 C1169 1.429 . S
C1153 H1175 0.950 . S
C1154 H1150 0.949 . S
C1154 C1162 1.574 . S
C1154 C1170 1.368 . S
H1155 C1163 0.950 . S
H1156 C1161 0.950 . S
H1157 C1162 0.949 . S
H1158 C1164 0.950 . S
H1159 C1165 0.950 . S
H1160 C1166 0.949 . S
C1161 H1156 0.950 . S
C1161 C1163 1.327 . S
C1161 C1167 1.429 . S
C1162 C1154 1.574 . S
C1162 H1157 0.949 . S
C1162 C1168 1.368 . S
C1163 C1147 1.349 . S
C1163 H1155 0.950 . S
C1163 C1161 1.327 . S
C1164 C1152 1.349 . S
C1164 H1158 0.950 . S
C1164 C1165 1.327 1_554 S
C1165 H1159 0.950 . S
C1165 C1164 1.327 1_556 S
C1165 C1169 1.429 . S
C1166 C1149 1.574 . S
C1166 H1160 0.949 . S
C1166 C1170 1.368 . S
C1167 C1148 1.429 . S
C1167 C1161 1.429 . S
C1167 C1168 1.523 . S
C1168 C1149 1.368 . S
C1168 C1162 1.368 . S
C1168 C1167 1.523 . S
C1169 C1153 1.429 . S
C1169 C1165 1.429 . S
C1169 C1170 1.523 . S
C1170 C1154 1.368 . S
C1170 C1166 1.368 . S
C1170 C1169 1.523 . S
H1171 C1146 0.950 . S
H1172 C1148 0.950 . S
H1173 C1149 0.949 . S
H1174 C1151 0.950 . S
H1175 C1153 0.950 . S
C1176 C1177 1.349 . S
C1176 C1178 1.327 . S
C1176 H1201 0.950 . S
C1177 C1176 1.349 . S
C1177 C1193 1.349 . S
C1178 C1176 1.327 . S
C1178 C1197 1.429 . S
C1178 H1202 0.950 . S
C1179 C1196 1.574 . S
C1179 C1198 1.368 . S
C1179 H1203 0.949 . S
H1180 C1184 0.949 . S
C1181 C1182 1.349 . S
C1181 C1183 1.327 1_554 S
C1181 H1204 0.950 . S
C1182 C1181 1.349 . S
C1182 C1194 1.349 . S
C1183 C1181 1.327 1_556 S
C1183 C1199 1.429 . S
C1183 H1205 0.950 . S
C1184 H1180 0.949 . S
C1184 C1192 1.574 . S
C1184 C1200 1.368 . S
H1185 C1193 0.950 . S
H1186 C1191 0.950 . S
H1187 C1192 0.949 . S
H1188 C1194 0.950 . S
H1189 C1195 0.950 . S
H1190 C1196 0.949 . S
C1191 H1186 0.950 . S
C1191 C1193 1.327 . S
C1191 C1197 1.429 . S
C1192 C1184 1.574 . S
C1192 H1187 0.949 . S
C1192 C1198 1.368 . S
C1193 C1177 1.349 . S
C1193 H1185 0.950 . S
C1193 C1191 1.327 . S
C1194 C1182 1.349 . S
C1194 H1188 0.950 . S
C1194 C1195 1.327 1_554 S
C1195 H1189 0.950 . S
C1195 C1194 1.327 1_556 S
C1195 C1199 1.429 . S
C1196 C1179 1.574 . S
C1196 H1190 0.949 . S
C1196 C1200 1.368 . S
C1197 C1178 1.429 . S
C1197 C1191 1.429 . S
C1197 C1198 1.523 . S
C1198 C1179 1.368 . S
C1198 C1192 1.368 . S
C1198 C1197 1.523 . S
C1199 C1183 1.429 . S
C1199 C1195 1.429 . S
C1199 C1200 1.523 . S
C1200 C1184 1.368 . S
C1200 C1196 1.368 . S
C1200 C1199 1.523 . S
H1201 C1176 0.950 . S
H1202 C1178 0.950 . S
H1203 C1179 0.949 . S
H1204 C1181 0.950 . S
H1205 C1183 0.950 . S
C1206 C1207 1.349 . S
C1206 C1208 1.327 . S
C1206 H1231 0.950 . S
C1207 C1206 1.349 . S
C1207 C1223 1.349 . S
C1208 C1206 1.327 . S
C1208 C1227 1.429 . S
C1208 H1232 0.950 . S
C1209 C1226 1.574 . S
C1209 C1228 1.368 . S
C1209 H1233 0.949 . S
H1210 C1214 0.949 . S
C1211 C1212 1.349 . S
C1211 C1213 1.327 . S
C1211 H1234 0.950 . S
C1212 C1211 1.349 . S
C1212 C1224 1.349 . S
C1213 C1211 1.327 . S
C1213 C1229 1.429 . S
C1213 H1235 0.950 . S
C1214 H1210 0.949 . S
C1214 C1222 1.574 . S
C1214 C1230 1.368 . S
H1215 C1223 0.950 . S
H1216 C1221 0.950 . S
H1217 C1222 0.949 . S
H1218 C1224 0.950 . S
H1219 C1225 0.950 . S
H1220 C1226 0.949 . S
C1221 H1216 0.950 . S
C1221 C1223 1.327 . S
C1221 C1227 1.429 . S
C1222 C1214 1.574 . S
C1222 H1217 0.949 . S
C1222 C1228 1.368 . S
C1223 C1207 1.349 . S
C1223 H1215 0.950 . S
C1223 C1221 1.327 . S
C1224 C1212 1.349 . S
C1224 H1218 0.950 . S
C1224 C1225 1.327 . S
C1225 H1219 0.950 . S
C1225 C1224 1.327 . S
C1225 C1229 1.429 . S
C1226 C1209 1.574 . S
C1226 H1220 0.949 . S
C1226 C1230 1.368 . S
C1227 C1208 1.429 . S
C1227 C1221 1.429 . S
C1227 C1228 1.523 . S
C1228 C1209 1.368 . S
C1228 C1222 1.368 . S
C1228 C1227 1.523 . S
C1229 C1213 1.429 . S
C1229 C1225 1.429 . S
C1229 C1230 1.523 . S
C1230 C1214 1.368 . S
C1230 C1226 1.368 . S
C1230 C1229 1.523 . S
H1231 C1206 0.950 . S
H1232 C1208 0.950 . S
H1233 C1209 0.949 . S
H1234 C1211 0.950 . S
H1235 C1213 0.950 . S
C1236 C1237 1.349 . S
C1236 C1238 1.327 . S
C1236 H1261 0.950 . S
C1237 C1236 1.349 . S
C1237 C1253 1.349 . S
C1238 C1236 1.327 . S
C1238 C1257 1.429 . S
C1238 H1262 0.950 . S
C1239 C1256 1.574 . S
C1239 C1258 1.368 . S
C1239 H1263 0.949 . S
H1240 C1244 0.949 . S
C1241 C1242 1.349 . S
C1241 C1243 1.327 . S
C1241 H1264 0.950 . S
C1242 C1241 1.349 . S
C1242 C1254 1.349 . S
C1243 C1241 1.327 . S
C1243 C1259 1.429 . S
C1243 H1265 0.950 . S
C1244 H1240 0.949 . S
C1244 C1252 1.574 . S
C1244 C1260 1.368 . S
H1245 C1253 0.950 . S
H1246 C1251 0.950 . S
H1247 C1252 0.949 . S
H1248 C1254 0.950 . S
H1249 C1255 0.950 . S
H1250 C1256 0.949 . S
C1251 H1246 0.950 . S
C1251 C1253 1.327 . S
C1251 C1257 1.429 . S
C1252 C1244 1.574 . S
C1252 H1247 0.949 . S
C1252 C1258 1.368 . S
C1253 C1237 1.349 . S
C1253 H1245 0.950 . S
C1253 C1251 1.327 . S
C1254 C1242 1.349 . S
C1254 H1248 0.950 . S
C1254 C1255 1.327 . S
C1255 H1249 0.950 . S
C1255 C1254 1.327 . S
C1255 C1259 1.429 . S
C1256 C1239 1.574 . S
C1256 H1250 0.949 . S
C1256 C1260 1.368 . S
C1257 C1238 1.429 . S
C1257 C1251 1.429 . S
C1257 C1258 1.523 . S
C1258 C1239 1.368 . S
C1258 C1252 1.368 . S
C1258 C1257 1.523 . S
C1259 C1243 1.429 . S
C1259 C1255 1.429 . S
C1259 C1260 1.523 . S
C1260 C1244 1.368 . S
C1260 C1256 1.368 . S
C1260 C1259 1.523 . S
H1261 C1236 0.950 . S
H1262 C1238 0.950 . S
H1263 C1239 0.949 . S
H1264 C1241 0.950 . S
H1265 C1243 0.950 . S
C1266 C1267 1.349 . S
C1266 C1268 1.327 . S
C1266 H1291 0.950 . S
C1267 C1266 1.349 . S
C1267 C1283 1.349 . S
C1268 C1266 1.327 . S
C1268 C1287 1.429 . S
C1268 H1292 0.950 . S
C1269 C1286 1.574 . S
C1269 C1288 1.368 . S
C1269 H1293 0.949 . S
H1270 C1274 0.949 . S
C1271 C1272 1.349 . S
C1271 C1273 1.327 1_556 S
C1271 H1294 0.950 . S
C1272 C1271 1.349 . S
C1272 C1284 1.349 . S
C1273 C1271 1.327 1_554 S
C1273 C1289 1.429 . S
C1273 H1295 0.950 . S
C1274 H1270 0.949 . S
C1274 C1282 1.574 . S
C1274 C1290 1.368 . S
H1275 C1283 0.950 . S
H1276 C1281 0.950 . S
H1277 C1282 0.949 . S
H1278 C1284 0.950 . S
H1279 C1285 0.950 . S
H1280 C1286 0.949 . S
C1281 H1276 0.950 . S
C1281 C1283 1.327 . S
C1281 C1287 1.429 . S
C1282 C1274 1.574 . S
C1282 H1277 0.949 . S
C1282 C1288 1.368 . S
C1283 C1267 1.349 . S
C1283 H1275 0.950 . S
C1283 C1281 1.327 . S
C1284 C1272 1.349 . S
C1284 H1278 0.950 . S
C1284 C1285 1.327 1_556 S
C1285 H1279 0.950 . S
C1285 C1284 1.327 1_554 S
C1285 C1289 1.429 . S
C1286 C1269 1.574 . S
C1286 H1280 0.949 . S
C1286 C1290 1.368 . S
C1287 C1268 1.429 . S
C1287 C1281 1.429 . S
C1287 C1288 1.523 . S
C1288 C1269 1.368 . S
C1288 C1282 1.368 . S
C1288 C1287 1.523 . S
C1289 C1273 1.429 . S
C1289 C1285 1.429 . S
C1289 C1290 1.523 . S
C1290 C1274 1.368 . S
C1290 C1286 1.368 . S
C1290 C1289 1.523 . S
H1291 C1266 0.950 . S
H1292 C1268 0.950 . S
H1293 C1269 0.949 . S
H1294 C1271 0.950 . S
H1295 C1273 0.950 . S
C1296 C1297 1.349 . S
C1296 C1298 1.327 . S
C1296 H1321 0.950 . S
C1297 C1296 1.349 . S
C1297 C1313 1.349 . S
C1298 C1296 1.327 . S
C1298 C1317 1.429 . S
C1298 H1322 0.950 . S
C1299 C1316 1.574 . S
C1299 C1318 1.368 . S
C1299 H1323 0.949 . S
H1300 C1304 0.949 . S
C1301 C1302 1.349 . S
C1301 C1303 1.327 . S
C1301 H1324 0.950 . S
C1302 C1301 1.349 . S
C1302 C1314 1.349 . S
C1303 C1301 1.327 . S
C1303 C1319 1.429 . S
C1303 H1325 0.950 . S
C1304 H1300 0.949 . S
C1304 C1312 1.574 . S
C1304 C1320 1.368 . S
H1305 C1313 0.950 . S
H1306 C1311 0.950 . S
H1307 C1312 0.949 . S
H1308 C1314 0.950 . S
H1309 C1315 0.950 . S
H1310 C1316 0.949 . S
C1311 H1306 0.950 . S
C1311 C1313 1.327 . S
C1311 C1317 1.429 . S
C1312 C1304 1.574 . S
C1312 H1307 0.949 . S
C1312 C1318 1.368 . S
C1313 C1297 1.349 . S
C1313 H1305 0.950 . S
C1313 C1311 1.327 . S
C1314 C1302 1.349 . S
C1314 H1308 0.950 . S
C1314 C1315 1.327 . S
C1315 H1309 0.950 . S
C1315 C1314 1.327 . S
C1315 C1319 1.429 . S
C1316 C1299 1.574 . S
C1316 H1310 0.949 . S
C1316 C1320 1.368 . S
C1317 C1298 1.429 . S
C1317 C1311 1.429 . S
C1317 C1318 1.523 . S
C1318 C1299 1.368 . S
C1318 C1312 1.368 . S
C1318 C1317 1.523 . S
C1319 C1303 1.429 . S
C1319 C1315 1.429 . S
C1319 C1320 1.523 . S
C1320 C1304 1.368 . S
C1320 C1316 1.368 . S
C1320 C1319 1.523 . S
H1321 C1296 0.950 . S
H1322 C1298 0.950 . S
H1323 C1299 0.949 . S
H1324 C1301 0.950 . S
H1325 C1303 0.950 . S
C1326 C1327 1.349 . S
C1326 C1328 1.327 . S
C1326 H1351 0.950 . S
C1327 C1326 1.349 . S
C1327 C1343 1.349 . S
C1328 C1326 1.327 . S
C1328 C1347 1.429 . S
C1328 H1352 0.950 . S
C1329 C1346 1.574 . S
C1329 C1348 1.368 . S
C1329 H1353 0.949 . S
H1330 C1334 0.949 . S
C1331 C1332 1.349 . S
C1331 C1333 1.327 1_554 S
C1331 H1354 0.950 . S
C1332 C1331 1.349 . S
C1332 C1344 1.349 . S
C1333 C1331 1.327 1_556 S
C1333 C1349 1.429 . S
C1333 H1355 0.950 . S
C1334 H1330 0.949 . S
C1334 C1342 1.574 . S
C1334 C1350 1.368 . S
H1335 C1343 0.950 . S
H1336 C1341 0.950 . S
H1337 C1342 0.949 . S
H1338 C1344 0.950 . S
H1339 C1345 0.950 . S
H1340 C1346 0.949 . S
C1341 H1336 0.950 . S
C1341 C1343 1.327 . S
C1341 C1347 1.429 . S
C1342 C1334 1.574 . S
C1342 H1337 0.949 . S
C1342 C1348 1.368 . S
C1343 C1327 1.349 . S
C1343 H1335 0.950 . S
C1343 C1341 1.327 . S
C1344 C1332 1.349 . S
C1344 H1338 0.950 . S
C1344 C1345 1.327 1_554 S
C1345 H1339 0.950 . S
C1345 C1344 1.327 1_556 S
C1345 C1349 1.429 . S
C1346 C1329 1.574 . S
C1346 H1340 0.949 . S
C1346 C1350 1.368 . S
C1347 C1328 1.429 . S
C1347 C1341 1.429 . S
C1347 C1348 1.523 . S
C1348 C1329 1.368 . S
C1348 C1342 1.368 . S
C1348 C1347 1.523 . S
C1349 C1333 1.429 . S
C1349 C1345 1.429 . S
C1349 C1350 1.523 . S
C1350 C1334 1.368 . S
C1350 C1346 1.368 . S
C1350 C1349 1.523 . S
H1351 C1326 0.950 . S
H1352 C1328 0.950 . S
H1353 C1329 0.949 . S
H1354 C1331 0.950 . S
H1355 C1333 0.950 . S
C1356 C1357 1.349 . S
C1356 C1358 1.327 1_556 S
C1356 H1381 0.950 . S
C1357 C1356 1.349 . S
C1357 C1373 1.349 . S
C1358 C1356 1.327 1_554 S
C1358 C1377 1.429 . S
C1358 H1382 0.950 . S
C1359 C1376 1.574 . S
C1359 C1378 1.368 . S
C1359 H1383 0.949 . S
H1360 C1364 0.949 . S
C1361 C1362 1.349 . S
C1361 C1363 1.327 . S
C1361 H1384 0.950 . S
C1362 C1361 1.349 . S
C1362 C1374 1.349 . S
C1363 C1361 1.327 . S
C1363 C1379 1.429 . S
C1363 H1385 0.950 . S
C1364 H1360 0.949 . S
C1364 C1372 1.574 . S
C1364 C1380 1.368 . S
H1365 C1373 0.950 . S
H1366 C1371 0.950 . S
H1367 C1372 0.949 . S
H1368 C1374 0.950 . S
H1369 C1375 0.950 . S
H1370 C1376 0.949 . S
C1371 H1366 0.950 . S
C1371 C1373 1.327 1_554 S
C1371 C1377 1.429 . S
C1372 C1364 1.574 . S
C1372 H1367 0.949 . S
C1372 C1378 1.368 . S
C1373 C1357 1.349 . S
C1373 H1365 0.950 . S
C1373 C1371 1.327 1_556 S
C1374 C1362 1.349 . S
C1374 H1368 0.950 . S
C1374 C1375 1.327 . S
C1375 H1369 0.950 . S
C1375 C1374 1.327 . S
C1375 C1379 1.429 . S
C1376 C1359 1.574 . S
C1376 H1370 0.949 . S
C1376 C1380 1.368 . S
C1377 C1358 1.429 . S
C1377 C1371 1.429 . S
C1377 C1378 1.523 . S
C1378 C1359 1.368 . S
C1378 C1372 1.368 . S
C1378 C1377 1.523 . S
C1379 C1363 1.429 . S
C1379 C1375 1.429 . S
C1379 C1380 1.523 . S
C1380 C1364 1.368 . S
C1380 C1376 1.368 . S
C1380 C1379 1.523 . S
H1381 C1356 0.950 . S
H1382 C1358 0.950 . S
H1383 C1359 0.949 . S
H1384 C1361 0.950 . S
H1385 C1363 0.950 . S
C1386 C1387 1.349 . S
C1386 C1388 1.327 . S
C1386 H1411 0.950 . S
C1387 C1386 1.349 . S
C1387 C1403 1.349 . S
C1388 C1386 1.327 . S
C1388 C1407 1.429 . S
C1388 H1412 0.950 . S
C1389 C1406 1.574 . S
C1389 C1408 1.368 . S
C1389 H1413 0.949 . S
H1390 C1394 0.949 . S
C1391 C1392 1.349 . S
C1391 C1393 1.327 . S
C1391 H1414 0.950 . S
C1392 C1391 1.349 . S
C1392 C1404 1.349 . S
C1393 C1391 1.327 . S
C1393 C1409 1.429 . S
C1393 H1415 0.950 . S
C1394 H1390 0.949 . S
C1394 C1402 1.574 . S
C1394 C1410 1.368 . S
H1395 C1403 0.950 . S
H1396 C1401 0.950 . S
H1397 C1402 0.949 . S
H1398 C1404 0.950 . S
H1399 C1405 0.950 . S
H1400 C1406 0.949 . S
C1401 H1396 0.950 . S
C1401 C1403 1.327 . S
C1401 C1407 1.429 . S
C1402 C1394 1.574 . S
C1402 H1397 0.949 . S
C1402 C1408 1.368 . S
C1403 C1387 1.349 . S
C1403 H1395 0.950 . S
C1403 C1401 1.327 . S
C1404 C1392 1.349 . S
C1404 H1398 0.950 . S
C1404 C1405 1.327 . S
C1405 H1399 0.950 . S
C1405 C1404 1.327 . S
C1405 C1409 1.429 . S
C1406 C1389 1.574 . S
C1406 H1400 0.949 . S
C1406 C1410 1.368 . S
C1407 C1388 1.429 . S
C1407 C1401 1.429 . S
C1407 C1408 1.523 . S
C1408 C1389 1.368 . S
C1408 C1402 1.368 . S
C1408 C1407 1.523 . S
C1409 C1393 1.429 . S
C1409 C1405 1.429 . S
C1409 C1410 1.523 . S
C1410 C1394 1.368 . S
C1410 C1406 1.368 . S
C1410 C1409 1.523 . S
H1411 C1386 0.950 . S
H1412 C1388 0.950 . S
H1413 C1389 0.949 . S
H1414 C1391 0.950 . S
H1415 C1393 0.950 . S
C1416 C1417 1.349 . S
C1416 C1418 1.327 . S
C1416 H1441 0.950 . S
C1417 C1416 1.349 . S
C1417 C1433 1.349 . S
C1418 C1416 1.327 . S
C1418 C1437 1.429 . S
C1418 H1442 0.950 . S
C1419 C1436 1.574 . S
C1419 C1438 1.368 . S
C1419 H1443 0.949 . S
H1420 C1424 0.949 . S
C1421 C1422 1.349 . S
C1421 C1423 1.327 . S
C1421 H1444 0.950 . S
C1422 C1421 1.349 . S
C1422 C1434 1.349 . S
C1423 C1421 1.327 . S
C1423 C1439 1.429 . S
C1423 H1445 0.950 . S
C1424 H1420 0.949 . S
C1424 C1432 1.574 . S
C1424 C1440 1.368 . S
H1425 C1433 0.950 . S
H1426 C1431 0.950 . S
H1427 C1432 0.949 . S
H1428 C1434 0.950 . S
H1429 C1435 0.950 . S
H1430 C1436 0.949 . S
C1431 H1426 0.950 . S
C1431 C1433 1.327 . S
C1431 C1437 1.429 . S
C1432 C1424 1.574 . S
C1432 H1427 0.949 . S
C1432 C1438 1.368 . S
C1433 C1417 1.349 . S
C1433 H1425 0.950 . S
C1433 C1431 1.327 . S
C1434 C1422 1.349 . S
C1434 H1428 0.950 . S
C1434 C1435 1.327 . S
C1435 H1429 0.950 . S
C1435 C1434 1.327 . S
C1435 C1439 1.429 . S
C1436 C1419 1.574 . S
C1436 H1430 0.949 . S
C1436 C1440 1.368 . S
C1437 C1418 1.429 . S
C1437 C1431 1.429 . S
C1437 C1438 1.523 . S
C1438 C1419 1.368 . S
C1438 C1432 1.368 . S
C1438 C1437 1.523 . S
C1439 C1423 1.429 . S
C1439 C1435 1.429 . S
C1439 C1440 1.523 . S
C1440 C1424 1.368 . S
C1440 C1436 1.368 . S
C1440 C1439 1.523 . S
H1441 C1416 0.950 . S
H1442 C1418 0.950 . S
H1443 C1419 0.949 . S
H1444 C1421 0.950 . S
H1445 C1423 0.950 . S
C1446 C1447 1.349 . S
C1446 C1448 1.327 1_556 S
C1446 H1471 0.950 . S
C1447 C1446 1.349 . S
C1447 C1463 1.349 . S
C1448 C1446 1.327 1_554 S
C1448 C1467 1.429 . S
C1448 H1472 0.950 . S
C1449 C1466 1.574 . S
C1449 C1468 1.368 . S
C1449 H1473 0.949 . S
H1450 C1454 0.949 . S
C1451 C1452 1.349 . S
C1451 C1453 1.327 . S
C1451 H1474 0.950 . S
C1452 C1451 1.349 . S
C1452 C1464 1.349 . S
C1453 C1451 1.327 . S
C1453 C1469 1.429 . S
C1453 H1475 0.950 . S
C1454 H1450 0.949 . S
C1454 C1462 1.574 . S
C1454 C1470 1.368 . S
H1455 C1463 0.950 . S
H1456 C1461 0.950 . S
H1457 C1462 0.949 . S
H1458 C1464 0.950 . S
H1459 C1465 0.950 . S
H1460 C1466 0.949 . S
C1461 H1456 0.950 . S
C1461 C1463 1.327 1_554 S
C1461 C1467 1.429 . S
C1462 C1454 1.574 . S
C1462 H1457 0.949 . S
C1462 C1468 1.368 . S
C1463 C1447 1.349 . S
C1463 H1455 0.950 . S
C1463 C1461 1.327 1_556 S
C1464 C1452 1.349 . S
C1464 H1458 0.950 . S
C1464 C1465 1.327 . S
C1465 H1459 0.950 . S
C1465 C1464 1.327 . S
C1465 C1469 1.429 . S
C1466 C1449 1.574 . S
C1466 H1460 0.949 . S
C1466 C1470 1.368 . S
C1467 C1448 1.429 . S
C1467 C1461 1.429 . S
C1467 C1468 1.523 . S
C1468 C1449 1.368 . S
C1468 C1462 1.368 . S
C1468 C1467 1.523 . S
C1469 C1453 1.429 . S
C1469 C1465 1.429 . S
C1469 C1470 1.523 . S
C1470 C1454 1.368 . S
C1470 C1466 1.368 . S
C1470 C1469 1.523 . S
H1471 C1446 0.950 . S
H1472 C1448 0.950 . S
H1473 C1449 0.949 . S
H1474 C1451 0.950 . S
H1475 C1453 0.950 . S
C1476 C1477 1.349 . S
C1476 C1478 1.327 1_554 S
C1476 H1501 0.950 . S
C1477 C1476 1.349 . S
C1477 C1493 1.349 . S
C1478 C1476 1.327 1_556 S
C1478 C1497 1.429 . S
C1478 H1502 0.950 . S
C1479 C1496 1.574 . S
C1479 C1498 1.368 . S
C1479 H1503 0.949 . S
H1480 C1484 0.949 . S
C1481 C1482 1.349 . S
C1481 C1483 1.327 . S
C1481 H1504 0.950 . S
C1482 C1481 1.349 . S
C1482 C1494 1.349 . S
C1483 C1481 1.327 . S
C1483 C1499 1.429 . S
C1483 H1505 0.950 . S
C1484 H1480 0.949 . S
C1484 C1492 1.574 . S
C1484 C1500 1.368 . S
H1485 C1493 0.950 . S
H1486 C1491 0.950 . S
H1487 C1492 0.949 . S
H1488 C1494 0.950 . S
H1489 C1495 0.950 . S
H1490 C1496 0.949 . S
C1491 H1486 0.950 . S
C1491 C1493 1.327 1_556 S
C1491 C1497 1.429 . S
C1492 C1484 1.574 . S
C1492 H1487 0.949 . S
C1492 C1498 1.368 . S
C1493 C1477 1.349 . S
C1493 H1485 0.950 . S
C1493 C1491 1.327 1_554 S
C1494 C1482 1.349 . S
C1494 H1488 0.950 . S
C1494 C1495 1.327 . S
C1495 H1489 0.950 . S
C1495 C1494 1.327 . S
C1495 C1499 1.429 . S
C1496 C1479 1.574 . S
C1496 H1490 0.949 . S
C1496 C1500 1.368 . S
C1497 C1478 1.429 . S
C1497 C1491 1.429 . S
C1497 C1498 1.523 . S
C1498 C1479 1.368 . S
C1498 C1492 1.368 . S
C1498 C1497 1.523 . S
C1499 C1483 1.429 . S
C1499 C1495 1.429 . S
C1499 C1500 1.523 . S
C1500 C1484 1.368 . S
C1500 C1496 1.368 . S
C1500 C1499 1.523 . S
H1501 C1476 0.950 . S
H1502 C1478 0.950 . S
H1503 C1479 0.949 . S
H1504 C1481 0.950 . S
H1505 C1483 0.950 . S
C1506 C1507 1.349 . S
C1506 C1508 1.327 . S
C1506 H1531 0.950 . S
C1507 C1506 1.349 . S
C1507 C1523 1.349 . S
C1508 C1506 1.327 . S
C1508 C1527 1.429 . S
C1508 H1532 0.950 . S
C1509 C1526 1.574 . S
C1509 C1528 1.368 . S
C1509 H1533 0.949 . S
H1510 C1514 0.949 . S
C1511 C1512 1.349 . S
C1511 C1513 1.327 . S
C1511 H1534 0.950 . S
C1512 C1511 1.349 . S
C1512 C1524 1.349 . S
C1513 C1511 1.327 . S
C1513 C1529 1.429 . S
C1513 H1535 0.950 . S
C1514 H1510 0.949 . S
C1514 C1522 1.574 . S
C1514 C1530 1.368 . S
H1515 C1523 0.950 . S
H1516 C1521 0.950 . S
H1517 C1522 0.949 . S
H1518 C1524 0.950 . S
H1519 C1525 0.950 . S
H1520 C1526 0.949 . S
C1521 H1516 0.950 . S
C1521 C1523 1.327 . S
C1521 C1527 1.429 . S
C1522 C1514 1.574 . S
C1522 H1517 0.949 . S
C1522 C1528 1.368 . S
C1523 C1507 1.349 . S
C1523 H1515 0.950 . S
C1523 C1521 1.327 . S
C1524 C1512 1.349 . S
C1524 H1518 0.950 . S
C1524 C1525 1.327 . S
C1525 H1519 0.950 . S
C1525 C1524 1.327 . S
C1525 C1529 1.429 . S
C1526 C1509 1.574 . S
C1526 H1520 0.949 . S
C1526 C1530 1.368 . S
C1527 C1508 1.429 . S
C1527 C1521 1.429 . S
C1527 C1528 1.523 . S
C1528 C1509 1.368 . S
C1528 C1522 1.368 . S
C1528 C1527 1.523 . S
C1529 C1513 1.429 . S
C1529 C1525 1.429 . S
C1529 C1530 1.523 . S
C1530 C1514 1.368 . S
C1530 C1526 1.368 . S
C1530 C1529 1.523 . S
H1531 C1506 0.950 . S
H1532 C1508 0.950 . S
H1533 C1509 0.949 . S
H1534 C1511 0.950 . S
H1535 C1513 0.950 . S
C1536 C1537 1.349 . S
C1536 C1538 1.327 . S
C1536 H1561 0.950 . S
C1537 C1536 1.349 . S
C1537 C1553 1.349 . S
C1538 C1536 1.327 . S
C1538 C1557 1.429 . S
C1538 H1562 0.950 . S
C1539 C1556 1.574 . S
C1539 C1558 1.368 . S
C1539 H1563 0.949 . S
H1540 C1544 0.949 . S
C1541 C1542 1.349 . S
C1541 C1543 1.327 . S
C1541 H1564 0.950 . S
C1542 C1541 1.349 . S
C1542 C1554 1.349 . S
C1543 C1541 1.327 . S
C1543 C1559 1.429 . S
C1543 H1565 0.950 . S
C1544 H1540 0.949 . S
C1544 C1552 1.574 . S
C1544 C1560 1.368 . S
H1545 C1553 0.950 . S
H1546 C1551 0.950 . S
H1547 C1552 0.949 . S
H1548 C1554 0.950 . S
H1549 C1555 0.950 . S
H1550 C1556 0.949 . S
C1551 H1546 0.950 . S
C1551 C1553 1.327 . S
C1551 C1557 1.429 . S
C1552 C1544 1.574 . S
C1552 H1547 0.949 . S
C1552 C1558 1.368 . S
C1553 C1537 1.349 . S
C1553 H1545 0.950 . S
C1553 C1551 1.327 . S
C1554 C1542 1.349 . S
C1554 H1548 0.950 . S
C1554 C1555 1.327 . S
C1555 H1549 0.950 . S
C1555 C1554 1.327 . S
C1555 C1559 1.429 . S
C1556 C1539 1.574 . S
C1556 H1550 0.949 . S
C1556 C1560 1.368 . S
C1557 C1538 1.429 . S
C1557 C1551 1.429 . S
C1557 C1558 1.523 . S
C1558 C1539 1.368 . S
C1558 C1552 1.368 . S
C1558 C1557 1.523 . S
C1559 C1543 1.429 . S
C1559 C1555 1.429 . S
C1559 C1560 1.523 . S
C1560 C1544 1.368 . S
C1560 C1556 1.368 . S
C1560 C1559 1.523 . S
H1561 C1536 0.950 . S
H1562 C1538 0.950 . S
H1563 C1539 0.949 . S
H1564 C1541 0.950 . S
H1565 C1543 0.950 . S
C1566 C1567 1.349 . S
C1566 C1568 1.327 . S
C1566 H1591 0.950 . S
C1567 C1566 1.349 . S
C1567 C1583 1.349 . S
C1568 C1566 1.327 . S
C1568 C1587 1.429 . S
C1568 H1592 0.950 . S
C1569 C1586 1.574 . S
C1569 C1588 1.368 . S
C1569 H1593 0.949 . S
H1570 C1574 0.949 . S
C1571 C1572 1.349 . S
C1571 C1573 1.327 1_554 S
C1571 H1594 0.950 . S
C1572 C1571 1.349 . S
C1572 C1584 1.349 . S
C1573 C1571 1.327 1_556 S
C1573 C1589 1.429 . S
C1573 H1595 0.950 . S
C1574 H1570 0.949 . S
C1574 C1582 1.574 . S
C1574 C1590 1.368 . S
H1575 C1583 0.950 . S
H1576 C1581 0.950 . S
H1577 C1582 0.949 . S
H1578 C1584 0.950 . S
H1579 C1585 0.950 . S
H1580 C1586 0.949 . S
C1581 H1576 0.950 . S
C1581 C1583 1.327 . S
C1581 C1587 1.429 . S
C1582 C1574 1.574 . S
C1582 H1577 0.949 . S
C1582 C1588 1.368 . S
C1583 C1567 1.349 . S
C1583 H1575 0.950 . S
C1583 C1581 1.327 . S
C1584 C1572 1.349 . S
C1584 H1578 0.950 . S
C1584 C1585 1.327 1_554 S
C1585 H1579 0.950 . S
C1585 C1584 1.327 1_556 S
C1585 C1589 1.429 . S
C1586 C1569 1.574 . S
C1586 H1580 0.949 . S
C1586 C1590 1.368 . S
C1587 C1568 1.429 . S
C1587 C1581 1.429 . S
C1587 C1588 1.523 . S
C1588 C1569 1.368 . S
C1588 C1582 1.368 . S
C1588 C1587 1.523 . S
C1589 C1573 1.429 . S
C1589 C1585 1.429 . S
C1589 C1590 1.523 . S
C1590 C1574 1.368 . S
C1590 C1586 1.368 . S
C1590 C1589 1.523 . S
H1591 C1566 0.950 . S
H1592 C1568 0.950 . S
H1593 C1569 0.949 . S
H1594 C1571 0.950 . S
H1595 C1573 0.950 . S
C1596 C1597 1.349 . S
C1596 C1598 1.327 1_556 S
C1596 H1621 0.950 . S
C1597 C1596 1.349 . S
C1597 C1613 1.349 . S
C1598 C1596 1.327 1_554 S
C1598 C1617 1.429 . S
C1598 H1622 0.950 . S
C1599 C1616 1.574 . S
C1599 C1618 1.368 . S
C1599 H1623 0.949 . S
H1600 C1604 0.949 . S
C1601 C1602 1.349 . S
C1601 C1603 1.327 . S
C1601 H1624 0.950 . S
C1602 C1601 1.349 . S
C1602 C1614 1.349 . S
C1603 C1601 1.327 . S
C1603 C1619 1.429 . S
C1603 H1625 0.950 . S
C1604 H1600 0.949 . S
C1604 C1612 1.574 . S
C1604 C1620 1.368 . S
H1605 C1613 0.950 . S
H1606 C1611 0.950 . S
H1607 C1612 0.949 . S
H1608 C1614 0.950 . S
H1609 C1615 0.950 . S
H1610 C1616 0.949 . S
C1611 H1606 0.950 . S
C1611 C1613 1.327 1_554 S
C1611 C1617 1.429 . S
C1612 C1604 1.574 . S
C1612 H1607 0.949 . S
C1612 C1618 1.368 . S
C1613 C1597 1.349 . S
C1613 H1605 0.950 . S
C1613 C1611 1.327 1_556 S
C1614 C1602 1.349 . S
C1614 H1608 0.950 . S
C1614 C1615 1.327 . S
C1615 H1609 0.950 . S
C1615 C1614 1.327 . S
C1615 C1619 1.429 . S
C1616 C1599 1.574 . S
C1616 H1610 0.949 . S
C1616 C1620 1.368 . S
C1617 C1598 1.429 . S
C1617 C1611 1.429 . S
C1617 C1618 1.523 . S
C1618 C1599 1.368 . S
C1618 C1612 1.368 . S
C1618 C1617 1.523 . S
C1619 C1603 1.429 . S
C1619 C1615 1.429 . S
C1619 C1620 1.523 . S
C1620 C1604 1.368 . S
C1620 C1616 1.368 . S
C1620 C1619 1.523 . S
H1621 C1596 0.950 . S
H1622 C1598 0.950 . S
H1623 C1599 0.949 . S
H1624 C1601 0.950 . S
H1625 C1603 0.950 . S
C1626 C1627 1.349 . S
C1626 C1628 1.327 . S
C1626 H1651 0.950 . S
C1627 C1626 1.349 . S
C1627 C1643 1.349 . S
C1628 C1626 1.327 . S
C1628 C1647 1.429 . S
C1628 H1652 0.950 . S
C1629 C1646 1.574 . S
C1629 C1648 1.368 . S
C1629 H1653 0.949 . S
H1630 C1634 0.949 . S
C1631 C1632 1.349 . S
C1631 C1633 1.327 . S
C1631 H1654 0.950 . S
C1632 C1631 1.349 . S
C1632 C1644 1.349 . S
C1633 C1631 1.327 . S
C1633 C1649 1.429 . S
C1633 H1655 0.950 . S
C1634 H1630 0.949 . S
C1634 C1642 1.574 . S
C1634 C1650 1.368 . S
H1635 C1643 0.950 . S
H1636 C1641 0.950 . S
H1637 C1642 0.949 . S
H1638 C1644 0.950 . S
H1639 C1645 0.950 . S
H1640 C1646 0.949 . S
C1641 H1636 0.950 . S
C1641 C1643 1.327 . S
C1641 C1647 1.429 . S
C1642 C1634 1.574 . S
C1642 H1637 0.949 . S
C1642 C1648 1.368 . S
C1643 C1627 1.349 . S
C1643 H1635 0.950 . S
C1643 C1641 1.327 . S
C1644 C1632 1.349 . S
C1644 H1638 0.950 . S
C1644 C1645 1.327 . S
C1645 H1639 0.950 . S
C1645 C1644 1.327 . S
C1645 C1649 1.429 . S
C1646 C1629 1.574 . S
C1646 H1640 0.949 . S
C1646 C1650 1.368 . S
C1647 C1628 1.429 . S
C1647 C1641 1.429 . S
C1647 C1648 1.523 . S
C1648 C1629 1.368 . S
C1648 C1642 1.368 . S
C1648 C1647 1.523 . S
C1649 C1633 1.429 . S
C1649 C1645 1.429 . S
C1649 C1650 1.523 . S
C1650 C1634 1.368 . S
C1650 C1646 1.368 . S
C1650 C1649 1.523 . S
H1651 C1626 0.950 . S
H1652 C1628 0.950 . S
H1653 C1629 0.949 . S
H1654 C1631 0.950 . S
H1655 C1633 0.950 . S
C1656 C1657 1.349 . S
C1656 C1658 1.327 . S
C1656 H1681 0.950 . S
C1657 C1656 1.349 . S
C1657 C1673 1.349 . S
C1658 C1656 1.327 . S
C1658 C1677 1.429 . S
C1658 H1682 0.950 . S
C1659 C1676 1.574 . S
C1659 C1678 1.368 . S
C1659 H1683 0.949 . S
H1660 C1664 0.949 . S
C1661 C1662 1.349 . S
C1661 C1663 1.327 . S
C1661 H1684 0.950 . S
C1662 C1661 1.349 . S
C1662 C1674 1.349 . S
C1663 C1661 1.327 . S
C1663 C1679 1.429 . S
C1663 H1685 0.950 . S
C1664 H1660 0.949 . S
C1664 C1672 1.574 . S
C1664 C1680 1.368 . S
H1665 C1673 0.950 . S
H1666 C1671 0.950 . S
H1667 C1672 0.949 . S
H1668 C1674 0.950 . S
H1669 C1675 0.950 . S
H1670 C1676 0.949 . S
C1671 H1666 0.950 . S
C1671 C1673 1.327 . S
C1671 C1677 1.429 . S
C1672 C1664 1.574 . S
C1672 H1667 0.949 . S
C1672 C1678 1.368 . S
C1673 C1657 1.349 . S
C1673 H1665 0.950 . S
C1673 C1671 1.327 . S
C1674 C1662 1.349 . S
C1674 H1668 0.950 . S
C1674 C1675 1.327 . S
C1675 H1669 0.950 . S
C1675 C1674 1.327 . S
C1675 C1679 1.429 . S
C1676 C1659 1.574 . S
C1676 H1670 0.949 . S
C1676 C1680 1.368 . S
C1677 C1658 1.429 . S
C1677 C1671 1.429 . S
C1677 C1678 1.523 . S
C1678 C1659 1.368 . S
C1678 C1672 1.368 . S
C1678 C1677 1.523 . S
C1679 C1663 1.429 . S
C1679 C1675 1.429 . S
C1679 C1680 1.523 . S
C1680 C1664 1.368 . S
C1680 C1676 1.368 . S
C1680 C1679 1.523 . S
H1681 C1656 0.950 . S
H1682 C1658 0.950 . S
H1683 C1659 0.949 . S
H1684 C1661 0.950 . S
H1685 C1663 0.950 . S
C1686 C1687 1.349 . S
C1686 C1688 1.327 . S
C1686 H1711 0.950 . S
C1687 C1686 1.349 . S
C1687 C1703 1.349 . S
C1688 C1686 1.327 . S
C1688 C1707 1.429 . S
C1688 H1712 0.950 . S
C1689 C1706 1.574 . S
C1689 C1708 1.368 . S
C1689 H1713 0.949 . S
H1690 C1694 0.949 . S
C1691 C1692 1.349 . S
C1691 C1693 1.327 1_556 S
C1691 H1714 0.950 . S
C1692 C1691 1.349 . S
C1692 C1704 1.349 . S
C1693 C1691 1.327 1_554 S
C1693 C1709 1.429 . S
C1693 H1715 0.950 . S
C1694 H1690 0.949 . S
C1694 C1702 1.574 . S
C1694 C1710 1.368 . S
H1695 C1703 0.950 . S
H1696 C1701 0.950 . S
H1697 C1702 0.949 . S
H1698 C1704 0.950 . S
H1699 C1705 0.950 . S
H1700 C1706 0.949 . S
C1701 H1696 0.950 . S
C1701 C1703 1.327 . S
C1701 C1707 1.429 . S
C1702 C1694 1.574 . S
C1702 H1697 0.949 . S
C1702 C1708 1.368 . S
C1703 C1687 1.349 . S
C1703 H1695 0.950 . S
C1703 C1701 1.327 . S
C1704 C1692 1.349 . S
C1704 H1698 0.950 . S
C1704 C1705 1.327 1_556 S
C1705 H1699 0.950 . S
C1705 C1704 1.327 1_554 S
C1705 C1709 1.429 . S
C1706 C1689 1.574 . S
C1706 H1700 0.949 . S
C1706 C1710 1.368 . S
C1707 C1688 1.429 . S
C1707 C1701 1.429 . S
C1707 C1708 1.523 . S
C1708 C1689 1.368 . S
C1708 C1702 1.368 . S
C1708 C1707 1.523 . S
C1709 C1693 1.429 . S
C1709 C1705 1.429 . S
C1709 C1710 1.523 . S
C1710 C1694 1.368 . S
C1710 C1706 1.368 . S
C1710 C1709 1.523 . S
H1711 C1686 0.950 . S
H1712 C1688 0.950 . S
H1713 C1689 0.949 . S
H1714 C1691 0.950 . S
H1715 C1693 0.950 . S
C1716 C1717 1.349 . S
C1716 C1718 1.327 . S
C1716 H1741 0.950 . S
C1717 C1716 1.349 . S
C1717 C1733 1.349 . S
C1718 C1716 1.327 . S
C1718 C1737 1.429 . S
C1718 H1742 0.950 . S
C1719 C1736 1.574 . S
C1719 C1738 1.368 . S
C1719 H1743 0.949 . S
H1720 C1724 0.949 . S
C1721 C1722 1.349 . S
C1721 C1723 1.327 1_554 S
C1721 H1744 0.950 . S
C1722 C1721 1.349 . S
C1722 C1734 1.349 . S
C1723 C1721 1.327 1_556 S
C1723 C1739 1.429 . S
C1723 H1745 0.950 . S
C1724 H1720 0.949 . S
C1724 C1732 1.574 . S
C1724 C1740 1.368 . S
H1725 C1733 0.950 . S
H1726 C1731 0.950 . S
H1727 C1732 0.949 . S
H1728 C1734 0.950 . S
H1729 C1735 0.950 . S
H1730 C1736 0.949 . S
C1731 H1726 0.950 . S
C1731 C1733 1.327 . S
C1731 C1737 1.429 . S
C1732 C1724 1.574 . S
C1732 H1727 0.949 . S
C1732 C1738 1.368 . S
C1733 C1717 1.349 . S
C1733 H1725 0.950 . S
C1733 C1731 1.327 . S
C1734 C1722 1.349 . S
C1734 H1728 0.950 . S
C1734 C1735 1.327 1_554 S
C1735 H1729 0.950 . S
C1735 C1734 1.327 1_556 S
C1735 C1739 1.429 . S
C1736 C1719 1.574 . S
C1736 H1730 0.949 . S
C1736 C1740 1.368 . S
C1737 C1718 1.429 . S
C1737 C1731 1.429 . S
C1737 C1738 1.523 . S
C1738 C1719 1.368 . S
C1738 C1732 1.368 . S
C1738 C1737 1.523 . S
C1739 C1723 1.429 . S
C1739 C1735 1.429 . S
C1739 C1740 1.523 . S
C1740 C1724 1.368 . S
C1740 C1736 1.368 . S
C1740 C1739 1.523 . S
H1741 C1716 0.950 . S
H1742 C1718 0.950 . S
H1743 C1719 0.949 . S
H1744 C1721 0.950 . S
H1745 C1723 0.950 . S
C1746 C1747 1.349 . S
C1746 C1748 1.327 . S
C1746 H1771 0.950 . S
C1747 C1746 1.349 . S
C1747 C1763 1.349 . S
C1748 C1746 1.327 . S
C1748 C1767 1.429 . S
C1748 H1772 0.950 . S
C1749 C1766 1.574 . S
C1749 C1768 1.368 . S
C1749 H1773 0.949 . S
H1750 C1754 0.949 . S
C1751 C1752 1.349 . S
C1751 C1753 1.327 . S
C1751 H1774 0.950 . S
C1752 C1751 1.349 . S
C1752 C1764 1.349 . S
C1753 C1751 1.327 . S
C1753 C1769 1.429 . S
C1753 H1775 0.950 . S
C1754 H1750 0.949 . S
C1754 C1762 1.574 . S
C1754 C1770 1.368 . S
H1755 C1763 0.950 . S
H1756 C1761 0.950 . S
H1757 C1762 0.949 . S
H1758 C1764 0.950 . S
H1759 C1765 0.950 . S
H1760 C1766 0.949 . S
C1761 H1756 0.950 . S
C1761 C1763 1.327 . S
C1761 C1767 1.429 . S
C1762 C1754 1.574 . S
C1762 H1757 0.949 . S
C1762 C1768 1.368 . S
C1763 C1747 1.349 . S
C1763 H1755 0.950 . S
C1763 C1761 1.327 . S
C1764 C1752 1.349 . S
C1764 H1758 0.950 . S
C1764 C1765 1.327 . S
C1765 H1759 0.950 . S
C1765 C1764 1.327 . S
C1765 C1769 1.429 . S
C1766 C1749 1.574 . S
C1766 H1760 0.949 . S
C1766 C1770 1.368 . S
C1767 C1748 1.429 . S
C1767 C1761 1.429 . S
C1767 C1768 1.523 . S
C1768 C1749 1.368 . S
C1768 C1762 1.368 . S
C1768 C1767 1.523 . S
C1769 C1753 1.429 . S
C1769 C1765 1.429 . S
C1769 C1770 1.523 . S
C1770 C1754 1.368 . S
C1770 C1766 1.368 . S
C1770 C1769 1.523 . S
H1771 C1746 0.950 . S
H1772 C1748 0.950 . S
H1773 C1749 0.949 . S
H1774 C1751 0.950 . S
H1775 C1753 0.950 . S
C1776 C1777 1.349 . S
C1776 C1778 1.327 1_556 S
C1776 H1801 0.950 . S
C1777 C1776 1.349 . S
C1777 C1793 1.349 . S
C1778 C1776 1.327 1_554 S
C1778 C1797 1.429 . S
C1778 H1802 0.950 . S
C1779 C1796 1.574 . S
C1779 C1798 1.368 . S
C1779 H1803 0.949 . S
H1780 C1784 0.949 . S
C1781 C1782 1.349 . S
C1781 C1783 1.327 . S
C1781 H1804 0.950 . S
C1782 C1781 1.349 . S
C1782 C1794 1.349 . S
C1783 C1781 1.327 . S
C1783 C1799 1.429 . S
C1783 H1805 0.950 . S
C1784 H1780 0.949 . S
C1784 C1792 1.574 . S
C1784 C1800 1.368 . S
H1785 C1793 0.950 . S
H1786 C1791 0.950 . S
H1787 C1792 0.949 . S
H1788 C1794 0.950 . S
H1789 C1795 0.950 . S
H1790 C1796 0.949 . S
C1791 H1786 0.950 . S
C1791 C1793 1.327 1_554 S
C1791 C1797 1.429 . S
C1792 C1784 1.574 . S
C1792 H1787 0.949 . S
C1792 C1798 1.368 . S
C1793 C1777 1.349 . S
C1793 H1785 0.950 . S
C1793 C1791 1.327 1_556 S
C1794 C1782 1.349 . S
C1794 H1788 0.950 . S
C1794 C1795 1.327 . S
C1795 H1789 0.950 . S
C1795 C1794 1.327 . S
C1795 C1799 1.429 . S
C1796 C1779 1.574 . S
C1796 H1790 0.949 . S
C1796 C1800 1.368 . S
C1797 C1778 1.429 . S
C1797 C1791 1.429 . S
C1797 C1798 1.523 . S
C1798 C1779 1.368 . S
C1798 C1792 1.368 . S
C1798 C1797 1.523 . S
C1799 C1783 1.429 . S
C1799 C1795 1.429 . S
C1799 C1800 1.523 . S
C1800 C1784 1.368 . S
C1800 C1796 1.368 . S
C1800 C1799 1.523 . S
H1801 C1776 0.950 . S
H1802 C1778 0.950 . S
H1803 C1779 0.949 . S
H1804 C1781 0.950 . S
H1805 C1783 0.950 . S
C1806 C1807 1.349 . S
C1806 C1808 1.327 . S
C1806 H1831 0.950 . S
C1807 C1806 1.349 . S
C1807 C1823 1.349 . S
C1808 C1806 1.327 . S
C1808 C1827 1.429 . S
C1808 H1832 0.950 . S
C1809 C1826 1.574 . S
C1809 C1828 1.368 . S
C1809 H1833 0.949 . S
H1810 C1814 0.949 . S
C1811 C1812 1.349 . S
C1811 C1813 1.327 . S
C1811 H1834 0.950 . S
C1812 C1811 1.349 . S
C1812 C1824 1.349 . S
C1813 C1811 1.327 . S
C1813 C1829 1.429 . S
C1813 H1835 0.950 . S
C1814 H1810 0.949 . S
C1814 C1822 1.574 . S
C1814 C1830 1.368 . S
H1815 C1823 0.950 . S
H1816 C1821 0.950 . S
H1817 C1822 0.949 . S
H1818 C1824 0.950 . S
H1819 C1825 0.950 . S
H1820 C1826 0.949 . S
C1821 H1816 0.950 . S
C1821 C1823 1.327 . S
C1821 C1827 1.429 . S
C1822 C1814 1.574 . S
C1822 H1817 0.949 . S
C1822 C1828 1.368 . S
C1823 C1807 1.349 . S
C1823 H1815 0.950 . S
C1823 C1821 1.327 . S
C1824 C1812 1.349 . S
C1824 H1818 0.950 . S
C1824 C1825 1.327 . S
C1825 H1819 0.950 . S
C1825 C1824 1.327 . S
C1825 C1829 1.429 . S
C1826 C1809 1.574 . S
C1826 H1820 0.949 . S
C1826 C1830 1.368 . S
C1827 C1808 1.429 . S
C1827 C1821 1.429 . S
C1827 C1828 1.523 . S
C1828 C1809 1.368 . S
C1828 C1822 1.368 . S
C1828 C1827 1.523 . S
C1829 C1813 1.429 . S
C1829 C1825 1.429 . S
C1829 C1830 1.523 . S
C1830 C1814 1.368 . S
C1830 C1826 1.368 . S
C1830 C1829 1.523 . S
H1831 C1806 0.950 . S
H1832 C1808 0.950 . S
H1833 C1809 0.949 . S
H1834 C1811 0.950 . S
H1835 C1813 0.950 . S
C1836 C1837 1.349 . S
C1836 C1838 1.327 . S
C1836 H1861 0.950 . S
C1837 C1836 1.349 . S
C1837 C1853 1.349 . S
C1838 C1836 1.327 . S
C1838 C1857 1.429 . S
C1838 H1862 0.950 . S
C1839 C1856 1.574 . S
C1839 C1858 1.368 . S
C1839 H1863 0.949 . S
H1840 C1844 0.949 . S
C1841 C1842 1.349 . S
C1841 C1843 1.327 . S
C1841 H1864 0.950 . S
C1842 C1841 1.349 . S
C1842 C1854 1.349 . S
C1843 C1841 1.327 . S
C1843 C1859 1.429 . S
C1843 H1865 0.950 . S
C1844 H1840 0.949 . S
C1844 C1852 1.574 . S
C1844 C1860 1.368 . S
H1845 C1853 0.950 . S
H1846 C1851 0.950 . S
H1847 C1852 0.949 . S
H1848 C1854 0.950 . S
H1849 C1855 0.950 . S
H1850 C1856 0.949 . S
C1851 H1846 0.950 . S
C1851 C1853 1.327 . S
C1851 C1857 1.429 . S
C1852 C1844 1.574 . S
C1852 H1847 0.949 . S
C1852 C1858 1.368 . S
C1853 C1837 1.349 . S
C1853 H1845 0.950 . S
C1853 C1851 1.327 . S
C1854 C1842 1.349 . S
C1854 H1848 0.950 . S
C1854 C1855 1.327 . S
C1855 H1849 0.950 . S
C1855 C1854 1.327 . S
C1855 C1859 1.429 . S
C1856 C1839 1.574 . S
C1856 H1850 0.949 . S
C1856 C1860 1.368 . S
C1857 C1838 1.429 . S
C1857 C1851 1.429 . S
C1857 C1858 1.523 . S
C1858 C1839 1.368 . S
C1858 C1852 1.368 . S
C1858 C1857 1.523 . S
C1859 C1843 1.429 . S
C1859 C1855 1.429 . S
C1859 C1860 1.523 . S
C1860 C1844 1.368 . S
C1860 C1856 1.368 . S
C1860 C1859 1.523 . S
H1861 C1836 0.950 . S
H1862 C1838 0.950 . S
H1863 C1839 0.949 . S
H1864 C1841 0.950 . S
H1865 C1843 0.950 . S
C1866 C1867 1.349 . S
C1866 C1868 1.327 . S
C1866 H1891 0.950 . S
C1867 C1866 1.349 . S
C1867 C1883 1.349 . S
C1868 C1866 1.327 . S
C1868 C1887 1.429 . S
C1868 H1892 0.950 . S
C1869 C1886 1.574 . S
C1869 C1888 1.368 . S
C1869 H1893 0.949 . S
H1870 C1874 0.949 . S
C1871 C1872 1.349 . S
C1871 C1873 1.327 1_554 S
C1871 H1894 0.950 . S
C1872 C1871 1.349 . S
C1872 C1884 1.349 . S
C1873 C1871 1.327 1_556 S
C1873 C1889 1.429 . S
C1873 H1895 0.950 . S
C1874 H1870 0.949 . S
C1874 C1882 1.574 . S
C1874 C1890 1.368 . S
H1875 C1883 0.950 . S
H1876 C1881 0.950 . S
H1877 C1882 0.949 . S
H1878 C1884 0.950 . S
H1879 C1885 0.950 . S
H1880 C1886 0.949 . S
C1881 H1876 0.950 . S
C1881 C1883 1.327 . S
C1881 C1887 1.429 . S
C1882 C1874 1.574 . S
C1882 H1877 0.949 . S
C1882 C1888 1.368 . S
C1883 C1867 1.349 . S
C1883 H1875 0.950 . S
C1883 C1881 1.327 . S
C1884 C1872 1.349 . S
C1884 H1878 0.950 . S
C1884 C1885 1.327 1_554 S
C1885 H1879 0.950 . S
C1885 C1884 1.327 1_556 S
C1885 C1889 1.429 . S
C1886 C1869 1.574 . S
C1886 H1880 0.949 . S
C1886 C1890 1.368 . S
C1887 C1868 1.429 . S
C1887 C1881 1.429 . S
C1887 C1888 1.523 . S
C1888 C1869 1.368 . S
C1888 C1882 1.368 . S
C1888 C1887 1.523 . S
C1889 C1873 1.429 . S
C1889 C1885 1.429 . S
C1889 C1890 1.523 . S
C1890 C1874 1.368 . S
C1890 C1886 1.368 . S
C1890 C1889 1.523 . S
H1891 C1866 0.950 . S
H1892 C1868 0.950 . S
H1893 C1869 0.949 . S
H1894 C1871 0.950 . S
H1895 C1873 0.950 . S
C1896 C1897 1.349 . S
C1896 C1898 1.327 1_554 S
C1896 H1921 0.950 . S
C1897 C1896 1.349 . S
C1897 C1913 1.349 . S
C1898 C1896 1.327 1_556 S
C1898 C1917 1.429 . S
C1898 H1922 0.950 . S
C1899 C1916 1.574 . S
C1899 C1918 1.368 . S
C1899 H1923 0.949 . S
H1900 C1904 0.949 . S
C1901 C1902 1.349 . S
C1901 C1903 1.327 . S
C1901 H1924 0.950 . S
C1902 C1901 1.349 . S
C1902 C1914 1.349 . S
C1903 C1901 1.327 . S
C1903 C1919 1.429 . S
C1903 H1925 0.950 . S
C1904 H1900 0.949 . S
C1904 C1912 1.574 . S
C1904 C1920 1.368 . S
H1905 C1913 0.950 . S
H1906 C1911 0.950 . S
H1907 C1912 0.949 . S
H1908 C1914 0.950 . S
H1909 C1915 0.950 . S
H1910 C1916 0.949 . S
C1911 H1906 0.950 . S
C1911 C1913 1.327 1_556 S
C1911 C1917 1.429 . S
C1912 C1904 1.574 . S
C1912 H1907 0.949 . S
C1912 C1918 1.368 . S
C1913 C1897 1.349 . S
C1913 H1905 0.950 . S
C1913 C1911 1.327 1_554 S
C1914 C1902 1.349 . S
C1914 H1908 0.950 . S
C1914 C1915 1.327 . S
C1915 H1909 0.950 . S
C1915 C1914 1.327 . S
C1915 C1919 1.429 . S
C1916 C1899 1.574 . S
C1916 H1910 0.949 . S
C1916 C1920 1.368 . S
C1917 C1898 1.429 . S
C1917 C1911 1.429 . S
C1917 C1918 1.523 . S
C1918 C1899 1.368 . S
C1918 C1912 1.368 . S
C1918 C1917 1.523 . S
C1919 C1903 1.429 . S
C1919 C1915 1.429 . S
C1919 C1920 1.523 . S
C1920 C1904 1.368 . S
C1920 C1916 1.368 . S
C1920 C1919 1.523 . S
H1921 C1896 0.950 . S
H1922 C1898 0.950 . S
H1923 C1899 0.949 . S
H1924 C1901 0.950 . S
H1925 C1903 0.950 . S
C1926 C1927 1.349 . S
C1926 C1928 1.327 . S
C1926 H1951 0.950 . S
C1927 C1926 1.349 . S
C1927 C1943 1.349 . S
C1928 C1926 1.327 . S
C1928 C1947 1.429 . S
C1928 H1952 0.950 . S
C1929 C1946 1.574 . S
C1929 C1948 1.368 . S
C1929 H1953 0.949 . S
H1930 C1934 0.949 . S
C1931 C1932 1.349 . S
C1931 C1933 1.327 . S
C1931 H1954 0.950 . S
C1932 C1931 1.349 . S
C1932 C1944 1.349 . S
C1933 C1931 1.327 . S
C1933 C1949 1.429 . S
C1933 H1955 0.950 . S
C1934 H1930 0.949 . S
C1934 C1942 1.574 . S
C1934 C1950 1.368 . S
H1935 C1943 0.950 . S
H1936 C1941 0.950 . S
H1937 C1942 0.949 . S
H1938 C1944 0.950 . S
H1939 C1945 0.950 . S
H1940 C1946 0.949 . S
C1941 H1936 0.950 . S
C1941 C1943 1.327 . S
C1941 C1947 1.429 . S
C1942 C1934 1.574 . S
C1942 H1937 0.949 . S
C1942 C1948 1.368 . S
C1943 C1927 1.349 . S
C1943 H1935 0.950 . S
C1943 C1941 1.327 . S
C1944 C1932 1.349 . S
C1944 H1938 0.950 . S
C1944 C1945 1.327 . S
C1945 H1939 0.950 . S
C1945 C1944 1.327 . S
C1945 C1949 1.429 . S
C1946 C1929 1.574 . S
C1946 H1940 0.949 . S
C1946 C1950 1.368 . S
C1947 C1928 1.429 . S
C1947 C1941 1.429 . S
C1947 C1948 1.523 . S
C1948 C1929 1.368 . S
C1948 C1942 1.368 . S
C1948 C1947 1.523 . S
C1949 C1933 1.429 . S
C1949 C1945 1.429 . S
C1949 C1950 1.523 . S
C1950 C1934 1.368 . S
C1950 C1946 1.368 . S
C1950 C1949 1.523 . S
H1951 C1926 0.950 . S
H1952 C1928 0.950 . S
H1953 C1929 0.949 . S
H1954 C1931 0.950 . S
H1955 C1933 0.950 . S
C1956 C1957 1.349 . S
C1956 C1958 1.327 . S
C1956 H1981 0.950 . S
C1957 C1956 1.349 . S
C1957 C1973 1.349 . S
C1958 C1956 1.327 . S
C1958 C1977 1.429 . S
C1958 H1982 0.950 . S
C1959 C1976 1.574 . S
C1959 C1978 1.368 . S
C1959 H1983 0.949 . S
H1960 C1964 0.949 . S
C1961 C1962 1.349 . S
C1961 C1963 1.327 . S
C1961 H1984 0.950 . S
C1962 C1961 1.349 . S
C1962 C1974 1.349 . S
C1963 C1961 1.327 . S
C1963 C1979 1.429 . S
C1963 H1985 0.950 . S
C1964 H1960 0.949 . S
C1964 C1972 1.574 . S
C1964 C1980 1.368 . S
H1965 C1973 0.950 . S
H1966 C1971 0.950 . S
H1967 C1972 0.949 . S
H1968 C1974 0.950 . S
H1969 C1975 0.950 . S
H1970 C1976 0.949 . S
C1971 H1966 0.950 . S
C1971 C1973 1.327 . S
C1971 C1977 1.429 . S
C1972 C1964 1.574 . S
C1972 H1967 0.949 . S
C1972 C1978 1.368 . S
C1973 C1957 1.349 . S
C1973 H1965 0.950 . S
C1973 C1971 1.327 . S
C1974 C1962 1.349 . S
C1974 H1968 0.950 . S
C1974 C1975 1.327 . S
C1975 H1969 0.950 . S
C1975 C1974 1.327 . S
C1975 C1979 1.429 . S
C1976 C1959 1.574 . S
C1976 H1970 0.949 . S
C1976 C1980 1.368 . S
C1977 C1958 1.429 . S
C1977 C1971 1.429 . S
C1977 C1978 1.523 . S
C1978 C1959 1.368 . S
C1978 C1972 1.368 . S
C1978 C1977 1.523 . S
C1979 C1963 1.429 . S
C1979 C1975 1.429 . S
C1979 C1980 1.523 . S
C1980 C1964 1.368 . S
C1980 C1976 1.368 . S
C1980 C1979 1.523 . S
H1981 C1956 0.950 . S
H1982 C1958 0.950 . S
H1983 C1959 0.949 . S
H1984 C1961 0.950 . S
H1985 C1963 0.950 . S
C1986 C1987 1.349 . S
C1986 C1988 1.327 . S
C1986 H2011 0.950 . S
C1987 C1986 1.349 . S
C1987 C2003 1.349 . S
C1988 C1986 1.327 . S
C1988 C2007 1.429 . S
C1988 H2012 0.950 . S
C1989 C2006 1.574 . S
C1989 C2008 1.368 . S
C1989 H2013 0.949 . S
H1990 C1994 0.949 . S
C1991 C1992 1.349 . S
C1991 C1993 1.327 1_556 S
C1991 H2014 0.950 . S
C1992 C1991 1.349 . S
C1992 C2004 1.349 . S
C1993 C1991 1.327 1_554 S
C1993 C2009 1.429 . S
C1993 H2015 0.950 . S
C1994 H1990 0.949 . S
C1994 C2002 1.574 . S
C1994 C2010 1.368 . S
H1995 C2003 0.950 . S
H1996 C2001 0.950 . S
H1997 C2002 0.949 . S
H1998 C2004 0.950 . S
H1999 C2005 0.950 . S
H2000 C2006 0.949 . S
C2001 H1996 0.950 . S
C2001 C2003 1.327 . S
C2001 C2007 1.429 . S
C2002 C1994 1.574 . S
C2002 H1997 0.949 . S
C2002 C2008 1.368 . S
C2003 C1987 1.349 . S
C2003 H1995 0.950 . S
C2003 C2001 1.327 . S
C2004 C1992 1.349 . S
C2004 H1998 0.950 . S
C2004 C2005 1.327 1_556 S
C2005 H1999 0.950 . S
C2005 C2004 1.327 1_554 S
C2005 C2009 1.429 . S
C2006 C1989 1.574 . S
C2006 H2000 0.949 . S
C2006 C2010 1.368 . S
C2007 C1988 1.429 . S
C2007 C2001 1.429 . S
C2007 C2008 1.523 . S
C2008 C1989 1.368 . S
C2008 C2002 1.368 . S
C2008 C2007 1.523 . S
C2009 C1993 1.429 . S
C2009 C2005 1.429 . S
C2009 C2010 1.523 . S
C2010 C1994 1.368 . S
C2010 C2006 1.368 . S
C2010 C2009 1.523 . S
H2011 C1986 0.950 . S
H2012 C1988 0.950 . S
H2013 C1989 0.949 . S
H2014 C1991 0.950 . S
H2015 C1993 0.950 . S
C2016 C2017 1.349 . S
C2016 C2018 1.327 . S
C2016 H2041 0.950 . S
C2017 C2016 1.349 . S
C2017 C2033 1.349 . S
C2018 C2016 1.327 . S
C2018 C2037 1.429 . S
C2018 H2042 0.950 . S
C2019 C2036 1.574 . S
C2019 C2038 1.368 . S
C2019 H2043 0.949 . S
H2020 C2024 0.949 . S
C2021 C2022 1.349 . S
C2021 C2023 1.327 . S
C2021 H2044 0.950 . S
C2022 C2021 1.349 . S
C2022 C2034 1.349 . S
C2023 C2021 1.327 . S
C2023 C2039 1.429 . S
C2023 H2045 0.950 . S
C2024 H2020 0.949 . S
C2024 C2032 1.574 . S
C2024 C2040 1.368 . S
H2025 C2033 0.950 . S
H2026 C2031 0.950 . S
H2027 C2032 0.949 . S
H2028 C2034 0.950 . S
H2029 C2035 0.950 . S
H2030 C2036 0.949 . S
C2031 H2026 0.950 . S
C2031 C2033 1.327 . S
C2031 C2037 1.429 . S
C2032 C2024 1.574 . S
C2032 H2027 0.949 . S
C2032 C2038 1.368 . S
C2033 C2017 1.349 . S
C2033 H2025 0.950 . S
C2033 C2031 1.327 . S
C2034 C2022 1.349 . S
C2034 H2028 0.950 . S
C2034 C2035 1.327 . S
C2035 H2029 0.950 . S
C2035 C2034 1.327 . S
C2035 C2039 1.429 . S
C2036 C2019 1.574 . S
C2036 H2030 0.949 . S
C2036 C2040 1.368 . S
C2037 C2018 1.429 . S
C2037 C2031 1.429 . S
C2037 C2038 1.523 . S
C2038 C2019 1.368 . S
C2038 C2032 1.368 . S
C2038 C2037 1.523 . S
C2039 C2023 1.429 . S
C2039 C2035 1.429 . S
C2039 C2040 1.523 . S
C2040 C2024 1.368 . S
C2040 C2036 1.368 . S
C2040 C2039 1.523 . S
H2041 C2016 0.950 . S
H2042 C2018 0.950 . S
H2043 C2019 0.949 . S
H2044 C2021 0.950 . S
H2045 C2023 0.950 . S
C2046 C2047 1.349 . S
C2046 C2048 1.327 . S
C2046 H2071 0.950 . S
C2047 C2046 1.349 . S
C2047 C2063 1.349 . S
C2048 C2046 1.327 . S
C2048 C2067 1.429 . S
C2048 H2072 0.950 . S
C2049 C2066 1.574 1_565 S
C2049 C2068 1.368 . S
C2049 H2073 0.949 . S
H2050 C2054 0.949 . S
C2051 C2052 1.349 . S
C2051 C2053 1.327 . S
C2051 H2074 0.950 . S
C2052 C2051 1.349 . S
C2052 C2064 1.349 . S
C2053 C2051 1.327 . S
C2053 C2069 1.429 . S
C2053 H2075 0.950 . S
C2054 H2050 0.949 . S
C2054 C2062 1.574 1_545 S
C2054 C2070 1.368 . S
H2055 C2063 0.950 . S
H2056 C2061 0.950 . S
H2057 C2062 0.949 . S
H2058 C2064 0.950 . S
H2059 C2065 0.950 . S
H2060 C2066 0.949 . S
C2061 H2056 0.950 . S
C2061 C2063 1.327 . S
C2061 C2067 1.429 . S
C2062 C2054 1.574 1_565 S
C2062 H2057 0.949 . S
C2062 C2068 1.368 . S
C2063 C2047 1.349 . S
C2063 H2055 0.950 . S
C2063 C2061 1.327 . S
C2064 C2052 1.349 . S
C2064 H2058 0.950 . S
C2064 C2065 1.327 . S
C2065 H2059 0.950 . S
C2065 C2064 1.327 . S
C2065 C2069 1.429 . S
C2066 C2049 1.574 1_545 S
C2066 H2060 0.949 . S
C2066 C2070 1.368 . S
C2067 C2048 1.429 . S
C2067 C2061 1.429 . S
C2067 C2068 1.523 . S
C2068 C2049 1.368 . S
C2068 C2062 1.368 . S
C2068 C2067 1.523 . S
C2069 C2053 1.429 . S
C2069 C2065 1.429 . S
C2069 C2070 1.523 . S
C2070 C2054 1.368 . S
C2070 C2066 1.368 . S
C2070 C2069 1.523 . S
H2071 C2046 0.950 . S
H2072 C2048 0.950 . S
H2073 C2049 0.949 . S
H2074 C2051 0.950 . S
H2075 C2053 0.950 . S
C2076 C2077 1.349 . S
C2076 C2078 1.327 . S
C2076 H2101 0.950 . S
C2077 C2076 1.349 . S
C2077 C2093 1.349 . S
C2078 C2076 1.327 . S
C2078 C2097 1.429 . S
C2078 H2102 0.950 . S
C2079 C2096 1.574 . S
C2079 C2098 1.368 . S
C2079 H2103 0.949 . S
H2080 C2084 0.949 . S
C2081 C2082 1.349 . S
C2081 C2083 1.327 . S
C2081 H2104 0.950 . S
C2082 C2081 1.349 . S
C2082 C2094 1.349 . S
C2083 C2081 1.327 . S
C2083 C2099 1.429 . S
C2083 H2105 0.950 . S
C2084 H2080 0.949 . S
C2084 C2092 1.574 . S
C2084 C2100 1.368 . S
H2085 C2093 0.950 . S
H2086 C2091 0.950 . S
H2087 C2092 0.949 . S
H2088 C2094 0.950 . S
H2089 C2095 0.950 . S
H2090 C2096 0.949 . S
C2091 H2086 0.950 . S
C2091 C2093 1.327 . S
C2091 C2097 1.429 . S
C2092 C2084 1.574 . S
C2092 H2087 0.949 . S
C2092 C2098 1.368 1_556 S
C2093 C2077 1.349 . S
C2093 H2085 0.950 . S
C2093 C2091 1.327 . S
C2094 C2082 1.349 . S
C2094 H2088 0.950 . S
C2094 C2095 1.327 . S
C2095 H2089 0.950 . S
C2095 C2094 1.327 . S
C2095 C2099 1.429 . S
C2096 C2079 1.574 . S
C2096 H2090 0.949 . S
C2096 C2100 1.368 1_554 S
C2097 C2078 1.429 . S
C2097 C2091 1.429 . S
C2097 C2098 1.523 . S
C2098 C2079 1.368 . S
C2098 C2092 1.368 1_554 S
C2098 C2097 1.523 . S
C2099 C2083 1.429 . S
C2099 C2095 1.429 . S
C2099 C2100 1.523 . S
C2100 C2084 1.368 . S
C2100 C2096 1.368 1_556 S
C2100 C2099 1.523 . S
H2101 C2076 0.950 . S
H2102 C2078 0.950 . S
H2103 C2079 0.949 . S
H2104 C2081 0.950 . S
H2105 C2083 0.950 . S
C2106 C2107 1.349 . S
C2106 C2108 1.327 . S
C2106 H2131 0.950 . S
C2107 C2106 1.349 . S
C2107 C2123 1.349 . S
C2108 C2106 1.327 . S
C2108 C2127 1.429 . S
C2108 H2132 0.950 . S
C2109 C2126 1.574 1_565 S
C2109 C2128 1.368 . S
C2109 H2133 0.949 . S
H2110 C2114 0.949 . S
C2111 C2112 1.349 . S
C2111 C2113 1.327 . S
C2111 H2134 0.950 . S
C2112 C2111 1.349 . S
C2112 C2124 1.349 . S
C2113 C2111 1.327 . S
C2113 C2129 1.429 . S
C2113 H2135 0.950 . S
C2114 H2110 0.949 . S
C2114 C2122 1.574 1_545 S
C2114 C2130 1.368 . S
H2115 C2123 0.950 . S
H2116 C2121 0.950 . S
H2117 C2122 0.949 . S
H2118 C2124 0.950 . S
H2119 C2125 0.950 . S
H2120 C2126 0.949 . S
C2121 H2116 0.950 . S
C2121 C2123 1.327 . S
C2121 C2127 1.429 . S
C2122 C2114 1.574 1_565 S
C2122 H2117 0.949 . S
C2122 C2128 1.368 . S
C2123 C2107 1.349 . S
C2123 H2115 0.950 . S
C2123 C2121 1.327 . S
C2124 C2112 1.349 . S
C2124 H2118 0.950 . S
C2124 C2125 1.327 . S
C2125 H2119 0.950 . S
C2125 C2124 1.327 . S
C2125 C2129 1.429 . S
C2126 C2109 1.574 1_545 S
C2126 H2120 0.949 . S
C2126 C2130 1.368 . S
C2127 C2108 1.429 . S
C2127 C2121 1.429 . S
C2127 C2128 1.523 . S
C2128 C2109 1.368 . S
C2128 C2122 1.368 . S
C2128 C2127 1.523 . S
C2129 C2113 1.429 . S
C2129 C2125 1.429 . S
C2129 C2130 1.523 . S
C2130 C2114 1.368 . S
C2130 C2126 1.368 . S
C2130 C2129 1.523 . S
H2131 C2106 0.950 . S
H2132 C2108 0.950 . S
H2133 C2109 0.949 . S
H2134 C2111 0.950 . S
H2135 C2113 0.950 . S
C2136 C2137 1.349 . S
C2136 C2138 1.327 . S
C2136 H2161 0.950 . S
C2137 C2136 1.349 . S
C2137 C2153 1.349 . S
C2138 C2136 1.327 . S
C2138 C2157 1.429 . S
C2138 H2162 0.950 . S
C2139 C2156 1.574 . S
C2139 C2158 1.368 . S
C2139 H2163 0.949 . S
H2140 C2144 0.949 . S
C2141 C2142 1.349 . S
C2141 C2143 1.327 . S
C2141 H2164 0.950 . S
C2142 C2141 1.349 . S
C2142 C2154 1.349 . S
C2143 C2141 1.327 . S
C2143 C2159 1.429 . S
C2143 H2165 0.950 . S
C2144 H2140 0.949 . S
C2144 C2152 1.574 . S
C2144 C2160 1.368 . S
H2145 C2153 0.950 . S
H2146 C2151 0.950 . S
H2147 C2152 0.949 . S
H2148 C2154 0.950 . S
H2149 C2155 0.950 . S
H2150 C2156 0.949 . S
C2151 H2146 0.950 . S
C2151 C2153 1.327 . S
C2151 C2157 1.429 . S
C2152 C2144 1.574 . S
C2152 H2147 0.949 . S
C2152 C2158 1.368 . S
C2153 C2137 1.349 . S
C2153 H2145 0.950 . S
C2153 C2151 1.327 . S
C2154 C2142 1.349 . S
C2154 H2148 0.950 . S
C2154 C2155 1.327 . S
C2155 H2149 0.950 . S
C2155 C2154 1.327 . S
C2155 C2159 1.429 . S
C2156 C2139 1.574 . S
C2156 H2150 0.949 . S
C2156 C2160 1.368 . S
C2157 C2138 1.429 . S
C2157 C2151 1.429 . S
C2157 C2158 1.523 . S
C2158 C2139 1.368 . S
C2158 C2152 1.368 . S
C2158 C2157 1.523 . S
C2159 C2143 1.429 . S
C2159 C2155 1.429 . S
C2159 C2160 1.523 . S
C2160 C2144 1.368 . S
C2160 C2156 1.368 . S
C2160 C2159 1.523 . S
H2161 C2136 0.950 . S
H2162 C2138 0.950 . S
H2163 C2139 0.949 . S
H2164 C2141 0.950 . S
H2165 C2143 0.950 . S
C2166 C2167 1.349 . S
C2166 C2168 1.327 . S
C2166 H2191 0.950 . S
C2167 C2166 1.349 . S
C2167 C2183 1.349 . S
C2168 C2166 1.327 . S
C2168 C2187 1.429 . S
C2168 H2192 0.950 . S
C2169 C2186 1.574 1_565 S
C2169 C2188 1.368 . S
C2169 H2193 0.949 . S
H2170 C2174 0.949 . S
C2171 C2172 1.349 . S
C2171 C2173 1.327 . S
C2171 H2194 0.950 . S
C2172 C2171 1.349 . S
C2172 C2184 1.349 . S
C2173 C2171 1.327 . S
C2173 C2189 1.429 . S
C2173 H2195 0.950 . S
C2174 H2170 0.949 . S
C2174 C2182 1.574 1_545 S
C2174 C2190 1.368 . S
H2175 C2183 0.950 . S
H2176 C2181 0.950 . S
H2177 C2182 0.949 . S
H2178 C2184 0.950 . S
H2179 C2185 0.950 . S
H2180 C2186 0.949 . S
C2181 H2176 0.950 . S
C2181 C2183 1.327 . S
C2181 C2187 1.429 . S
C2182 C2174 1.574 1_565 S
C2182 H2177 0.949 . S
C2182 C2188 1.368 . S
C2183 C2167 1.349 . S
C2183 H2175 0.950 . S
C2183 C2181 1.327 . S
C2184 C2172 1.349 . S
C2184 H2178 0.950 . S
C2184 C2185 1.327 . S
C2185 H2179 0.950 . S
C2185 C2184 1.327 . S
C2185 C2189 1.429 . S
C2186 C2169 1.574 1_545 S
C2186 H2180 0.949 . S
C2186 C2190 1.368 . S
C2187 C2168 1.429 . S
C2187 C2181 1.429 . S
C2187 C2188 1.523 . S
C2188 C2169 1.368 . S
C2188 C2182 1.368 . S
C2188 C2187 1.523 . S
C2189 C2173 1.429 . S
C2189 C2185 1.429 . S
C2189 C2190 1.523 . S
C2190 C2174 1.368 . S
C2190 C2186 1.368 . S
C2190 C2189 1.523 . S
H2191 C2166 0.950 . S
H2192 C2168 0.950 . S
H2193 C2169 0.949 . S
H2194 C2171 0.950 . S
H2195 C2173 0.950 . S
C2196 C2197 1.349 . S
C2196 C2198 1.327 . S
C2196 H2221 0.950 . S
C2197 C2196 1.349 . S
C2197 C2213 1.349 . S
C2198 C2196 1.327 . S
C2198 C2217 1.429 . S
C2198 H2222 0.950 . S
C2199 C2216 1.574 . S
C2199 C2218 1.368 1_554 S
C2199 H2223 0.949 . S
H2200 C2204 0.949 . S
C2201 C2202 1.349 . S
C2201 C2203 1.327 . S
C2201 H2224 0.950 . S
C2202 C2201 1.349 . S
C2202 C2214 1.349 . S
C2203 C2201 1.327 . S
C2203 C2219 1.429 . S
C2203 H2225 0.950 . S
C2204 H2200 0.949 . S
C2204 C2212 1.574 . S
C2204 C2220 1.368 1_556 S
H2205 C2213 0.950 . S
H2206 C2211 0.950 . S
H2207 C2212 0.949 . S
H2208 C2214 0.950 . S
H2209 C2215 0.950 . S
H2210 C2216 0.949 . S
C2211 H2206 0.950 . S
C2211 C2213 1.327 . S
C2211 C2217 1.429 . S
C2212 C2204 1.574 . S
C2212 H2207 0.949 . S
C2212 C2218 1.368 . S
C2213 C2197 1.349 . S
C2213 H2205 0.950 . S
C2213 C2211 1.327 . S
C2214 C2202 1.349 . S
C2214 H2208 0.950 . S
C2214 C2215 1.327 . S
C2215 H2209 0.950 . S
C2215 C2214 1.327 . S
C2215 C2219 1.429 . S
C2216 C2199 1.574 . S
C2216 H2210 0.949 . S
C2216 C2220 1.368 . S
C2217 C2198 1.429 . S
C2217 C2211 1.429 . S
C2217 C2218 1.523 . S
C2218 C2199 1.368 1_556 S
C2218 C2212 1.368 . S
C2218 C2217 1.523 . S
C2219 C2203 1.429 . S
C2219 C2215 1.429 . S
C2219 C2220 1.523 . S
C2220 C2204 1.368 1_554 S
C2220 C2216 1.368 . S
C2220 C2219 1.523 . S
H2221 C2196 0.950 . S
H2222 C2198 0.950 . S
H2223 C2199 0.949 . S
H2224 C2201 0.950 . S
H2225 C2203 0.950 . S
C2226 C2227 1.349 . S
C2226 C2228 1.327 . S
C2226 H2251 0.950 . S
C2227 C2226 1.349 . S
C2227 C2243 1.349 . S
C2228 C2226 1.327 . S
C2228 C2247 1.429 . S
C2228 H2252 0.950 . S
C2229 C2246 1.574 1_545 S
C2229 C2248 1.368 . S
C2229 H2253 0.949 . S
H2230 C2234 0.949 . S
C2231 C2232 1.349 . S
C2231 C2233 1.327 . S
C2231 H2254 0.950 . S
C2232 C2231 1.349 . S
C2232 C2244 1.349 . S
C2233 C2231 1.327 . S
C2233 C2249 1.429 . S
C2233 H2255 0.950 . S
C2234 H2230 0.949 . S
C2234 C2242 1.574 1_565 S
C2234 C2250 1.368 . S
H2235 C2243 0.950 . S
H2236 C2241 0.950 . S
H2237 C2242 0.949 . S
H2238 C2244 0.950 . S
H2239 C2245 0.950 . S
H2240 C2246 0.949 . S
C2241 H2236 0.950 . S
C2241 C2243 1.327 . S
C2241 C2247 1.429 . S
C2242 C2234 1.574 1_545 S
C2242 H2237 0.949 . S
C2242 C2248 1.368 . S
C2243 C2227 1.349 . S
C2243 H2235 0.950 . S
C2243 C2241 1.327 . S
C2244 C2232 1.349 . S
C2244 H2238 0.950 . S
C2244 C2245 1.327 . S
C2245 H2239 0.950 . S
C2245 C2244 1.327 . S
C2245 C2249 1.429 . S
C2246 C2229 1.574 1_565 S
C2246 H2240 0.949 . S
C2246 C2250 1.368 . S
C2247 C2228 1.429 . S
C2247 C2241 1.429 . S
C2247 C2248 1.523 . S
C2248 C2229 1.368 . S
C2248 C2242 1.368 . S
C2248 C2247 1.523 . S
C2249 C2233 1.429 . S
C2249 C2245 1.429 . S
C2249 C2250 1.523 . S
C2250 C2234 1.368 . S
C2250 C2246 1.368 . S
C2250 C2249 1.523 . S
H2251 C2226 0.950 . S
H2252 C2228 0.950 . S
H2253 C2229 0.949 . S
H2254 C2231 0.950 . S
H2255 C2233 0.950 . S
C2256 C2257 1.349 . S
C2256 C2258 1.327 . S
C2256 H2281 0.950 . S
C2257 C2256 1.349 . S
C2257 C2273 1.349 . S
C2258 C2256 1.327 . S
C2258 C2277 1.429 . S
C2258 H2282 0.950 . S
C2259 C2276 1.574 . S
C2259 C2278 1.368 1_554 S
C2259 H2283 0.949 . S
H2260 C2264 0.949 . S
C2261 C2262 1.349 . S
C2261 C2263 1.327 . S
C2261 H2284 0.950 . S
C2262 C2261 1.349 . S
C2262 C2274 1.349 . S
C2263 C2261 1.327 . S
C2263 C2279 1.429 . S
C2263 H2285 0.950 . S
C2264 H2260 0.949 . S
C2264 C2272 1.574 . S
C2264 C2280 1.368 1_556 S
H2265 C2273 0.950 . S
H2266 C2271 0.950 . S
H2267 C2272 0.949 . S
H2268 C2274 0.950 . S
H2269 C2275 0.950 . S
H2270 C2276 0.949 . S
C2271 H2266 0.950 . S
C2271 C2273 1.327 . S
C2271 C2277 1.429 . S
C2272 C2264 1.574 . S
C2272 H2267 0.949 . S
C2272 C2278 1.368 . S
C2273 C2257 1.349 . S
C2273 H2265 0.950 . S
C2273 C2271 1.327 . S
C2274 C2262 1.349 . S
C2274 H2268 0.950 . S
C2274 C2275 1.327 . S
C2275 H2269 0.950 . S
C2275 C2274 1.327 . S
C2275 C2279 1.429 . S
C2276 C2259 1.574 . S
C2276 H2270 0.949 . S
C2276 C2280 1.368 . S
C2277 C2258 1.429 . S
C2277 C2271 1.429 . S
C2277 C2278 1.523 . S
C2278 C2259 1.368 1_556 S
C2278 C2272 1.368 . S
C2278 C2277 1.523 . S
C2279 C2263 1.429 . S
C2279 C2275 1.429 . S
C2279 C2280 1.523 . S
C2280 C2264 1.368 1_554 S
C2280 C2276 1.368 . S
C2280 C2279 1.523 . S
H2281 C2256 0.950 . S
H2282 C2258 0.950 . S
H2283 C2259 0.949 . S
H2284 C2261 0.950 . S
H2285 C2263 0.950 . S
C2286 C2287 1.349 . S
C2286 C2288 1.327 . S
C2286 H2311 0.950 . S
C2287 C2286 1.349 . S
C2287 C2303 1.349 . S
C2288 C2286 1.327 . S
C2288 C2307 1.429 . S
C2288 H2312 0.950 . S
C2289 C2306 1.574 . S
C2289 C2308 1.368 . S
C2289 H2313 0.949 . S
H2290 C2294 0.949 . S
C2291 C2292 1.349 . S
C2291 C2293 1.327 . S
C2291 H2314 0.950 . S
C2292 C2291 1.349 . S
C2292 C2304 1.349 . S
C2293 C2291 1.327 . S
C2293 C2309 1.429 . S
C2293 H2315 0.950 . S
C2294 H2290 0.949 . S
C2294 C2302 1.574 . S
C2294 C2310 1.368 . S
H2295 C2303 0.950 . S
H2296 C2301 0.950 . S
H2297 C2302 0.949 . S
H2298 C2304 0.950 . S
H2299 C2305 0.950 . S
H2300 C2306 0.949 . S
C2301 H2296 0.950 . S
C2301 C2303 1.327 . S
C2301 C2307 1.429 . S
C2302 C2294 1.574 . S
C2302 H2297 0.949 . S
C2302 C2308 1.368 . S
C2303 C2287 1.349 . S
C2303 H2295 0.950 . S
C2303 C2301 1.327 . S
C2304 C2292 1.349 . S
C2304 H2298 0.950 . S
C2304 C2305 1.327 . S
C2305 H2299 0.950 . S
C2305 C2304 1.327 . S
C2305 C2309 1.429 . S
C2306 C2289 1.574 . S
C2306 H2300 0.949 . S
C2306 C2310 1.368 . S
C2307 C2288 1.429 . S
C2307 C2301 1.429 . S
C2307 C2308 1.523 . S
C2308 C2289 1.368 . S
C2308 C2302 1.368 . S
C2308 C2307 1.523 . S
C2309 C2293 1.429 . S
C2309 C2305 1.429 . S
C2309 C2310 1.523 . S
C2310 C2294 1.368 . S
C2310 C2306 1.368 . S
C2310 C2309 1.523 . S
H2311 C2286 0.950 . S
H2312 C2288 0.950 . S
H2313 C2289 0.949 . S
H2314 C2291 0.950 . S
H2315 C2293 0.950 . S
C2316 C2317 1.349 . S
C2316 C2318 1.327 . S
C2316 H2341 0.950 . S
C2317 C2316 1.349 . S
C2317 C2333 1.349 . S
C2318 C2316 1.327 . S
C2318 C2337 1.429 . S
C2318 H2342 0.950 . S
C2319 C2336 1.574 . S
C2319 C2338 1.368 . S
C2319 H2343 0.949 . S
H2320 C2324 0.949 . S
C2321 C2322 1.349 . S
C2321 C2323 1.327 . S
C2321 H2344 0.950 . S
C2322 C2321 1.349 . S
C2322 C2334 1.349 . S
C2323 C2321 1.327 . S
C2323 C2339 1.429 . S
C2323 H2345 0.950 . S
C2324 H2320 0.949 . S
C2324 C2332 1.574 . S
C2324 C2340 1.368 . S
H2325 C2333 0.950 . S
H2326 C2331 0.950 . S
H2327 C2332 0.949 . S
H2328 C2334 0.950 . S
H2329 C2335 0.950 . S
H2330 C2336 0.949 . S
C2331 H2326 0.950 . S
C2331 C2333 1.327 . S
C2331 C2337 1.429 . S
C2332 C2324 1.574 . S
C2332 H2327 0.949 . S
C2332 C2338 1.368 . S
C2333 C2317 1.349 . S
C2333 H2325 0.950 . S
C2333 C2331 1.327 . S
C2334 C2322 1.349 . S
C2334 H2328 0.950 . S
C2334 C2335 1.327 . S
C2335 H2329 0.950 . S
C2335 C2334 1.327 . S
C2335 C2339 1.429 . S
C2336 C2319 1.574 . S
C2336 H2330 0.949 . S
C2336 C2340 1.368 . S
C2337 C2318 1.429 . S
C2337 C2331 1.429 . S
C2337 C2338 1.523 . S
C2338 C2319 1.368 . S
C2338 C2332 1.368 . S
C2338 C2337 1.523 . S
C2339 C2323 1.429 . S
C2339 C2335 1.429 . S
C2339 C2340 1.523 . S
C2340 C2324 1.368 . S
C2340 C2336 1.368 . S
C2340 C2339 1.523 . S
H2341 C2316 0.950 . S
H2342 C2318 0.950 . S
H2343 C2319 0.949 . S
H2344 C2321 0.950 . S
H2345 C2323 0.950 . S
C2346 C2347 1.349 . S
C2346 C2348 1.327 . S
C2346 H2371 0.950 . S
C2347 C2346 1.349 . S
C2347 C2363 1.349 . S
C2348 C2346 1.327 . S
C2348 C2367 1.429 . S
C2348 H2372 0.950 . S
C2349 C2366 1.574 . S
C2349 C2368 1.368 . S
C2349 H2373 0.949 . S
H2350 C2354 0.949 . S
C2351 C2352 1.349 . S
C2351 C2353 1.327 . S
C2351 H2374 0.950 . S
C2352 C2351 1.349 . S
C2352 C2364 1.349 . S
C2353 C2351 1.327 . S
C2353 C2369 1.429 . S
C2353 H2375 0.950 . S
C2354 H2350 0.949 . S
C2354 C2362 1.574 . S
C2354 C2370 1.368 . S
H2355 C2363 0.950 . S
H2356 C2361 0.950 . S
H2357 C2362 0.949 . S
H2358 C2364 0.950 . S
H2359 C2365 0.950 . S
H2360 C2366 0.949 . S
C2361 H2356 0.950 . S
C2361 C2363 1.327 . S
C2361 C2367 1.429 . S
C2362 C2354 1.574 . S
C2362 H2357 0.949 . S
C2362 C2368 1.368 . S
C2363 C2347 1.349 . S
C2363 H2355 0.950 . S
C2363 C2361 1.327 . S
C2364 C2352 1.349 . S
C2364 H2358 0.950 . S
C2364 C2365 1.327 . S
C2365 H2359 0.950 . S
C2365 C2364 1.327 . S
C2365 C2369 1.429 . S
C2366 C2349 1.574 . S
C2366 H2360 0.949 . S
C2366 C2370 1.368 . S
C2367 C2348 1.429 . S
C2367 C2361 1.429 . S
C2367 C2368 1.523 . S
C2368 C2349 1.368 . S
C2368 C2362 1.368 . S
C2368 C2367 1.523 . S
C2369 C2353 1.429 . S
C2369 C2365 1.429 . S
C2369 C2370 1.523 . S
C2370 C2354 1.368 . S
C2370 C2366 1.368 . S
C2370 C2369 1.523 . S
H2371 C2346 0.950 . S
H2372 C2348 0.950 . S
H2373 C2349 0.949 . S
H2374 C2351 0.950 . S
H2375 C2353 0.950 . S
C2376 C2377 1.349 . S
C2376 C2378 1.327 . S
C2376 H2401 0.950 . S
C2377 C2376 1.349 . S
C2377 C2393 1.349 . S
C2378 C2376 1.327 . S
C2378 C2397 1.429 . S
C2378 H2402 0.950 . S
C2379 C2396 1.574 . S
C2379 C2398 1.368 1_554 S
C2379 H2403 0.949 . S
H2380 C2384 0.949 . S
C2381 C2382 1.349 . S
C2381 C2383 1.327 . S
C2381 H2404 0.950 . S
C2382 C2381 1.349 . S
C2382 C2394 1.349 . S
C2383 C2381 1.327 . S
C2383 C2399 1.429 . S
C2383 H2405 0.950 . S
C2384 H2380 0.949 . S
C2384 C2392 1.574 . S
C2384 C2400 1.368 1_556 S
H2385 C2393 0.950 . S
H2386 C2391 0.950 . S
H2387 C2392 0.949 . S
H2388 C2394 0.950 . S
H2389 C2395 0.950 . S
H2390 C2396 0.949 . S
C2391 H2386 0.950 . S
C2391 C2393 1.327 . S
C2391 C2397 1.429 . S
C2392 C2384 1.574 . S
C2392 H2387 0.949 . S
C2392 C2398 1.368 . S
C2393 C2377 1.349 . S
C2393 H2385 0.950 . S
C2393 C2391 1.327 . S
C2394 C2382 1.349 . S
C2394 H2388 0.950 . S
C2394 C2395 1.327 . S
C2395 H2389 0.950 . S
C2395 C2394 1.327 . S
C2395 C2399 1.429 . S
C2396 C2379 1.574 . S
C2396 H2390 0.949 . S
C2396 C2400 1.368 . S
C2397 C2378 1.429 . S
C2397 C2391 1.429 . S
C2397 C2398 1.523 . S
C2398 C2379 1.368 1_556 S
C2398 C2392 1.368 . S
C2398 C2397 1.523 . S
C2399 C2383 1.429 . S
C2399 C2395 1.429 . S
C2399 C2400 1.523 . S
C2400 C2384 1.368 1_554 S
C2400 C2396 1.368 . S
C2400 C2399 1.523 . S
H2401 C2376 0.950 . S
H2402 C2378 0.950 . S
H2403 C2379 0.949 . S
H2404 C2381 0.950 . S
H2405 C2383 0.950 . S
C2406 C2407 1.349 . S
C2406 C2408 1.327 . S
C2406 H2431 0.950 . S
C2407 C2406 1.349 . S
C2407 C2423 1.349 . S
C2408 C2406 1.327 . S
C2408 C2427 1.429 . S
C2408 H2432 0.950 . S
C2409 C2426 1.574 . S
C2409 C2428 1.368 . S
C2409 H2433 0.949 . S
H2410 C2414 0.949 . S
C2411 C2412 1.349 . S
C2411 C2413 1.327 . S
C2411 H2434 0.950 . S
C2412 C2411 1.349 . S
C2412 C2424 1.349 . S
C2413 C2411 1.327 . S
C2413 C2429 1.429 . S
C2413 H2435 0.950 . S
C2414 H2410 0.949 . S
C2414 C2422 1.574 . S
C2414 C2430 1.368 . S
H2415 C2423 0.950 . S
H2416 C2421 0.950 . S
H2417 C2422 0.949 . S
H2418 C2424 0.950 . S
H2419 C2425 0.950 . S
H2420 C2426 0.949 . S
C2421 H2416 0.950 . S
C2421 C2423 1.327 . S
C2421 C2427 1.429 . S
C2422 C2414 1.574 . S
C2422 H2417 0.949 . S
C2422 C2428 1.368 . S
C2423 C2407 1.349 . S
C2423 H2415 0.950 . S
C2423 C2421 1.327 . S
C2424 C2412 1.349 . S
C2424 H2418 0.950 . S
C2424 C2425 1.327 . S
C2425 H2419 0.950 . S
C2425 C2424 1.327 . S
C2425 C2429 1.429 . S
C2426 C2409 1.574 . S
C2426 H2420 0.949 . S
C2426 C2430 1.368 . S
C2427 C2408 1.429 . S
C2427 C2421 1.429 . S
C2427 C2428 1.523 . S
C2428 C2409 1.368 . S
C2428 C2422 1.368 . S
C2428 C2427 1.523 . S
C2429 C2413 1.429 . S
C2429 C2425 1.429 . S
C2429 C2430 1.523 . S
C2430 C2414 1.368 . S
C2430 C2426 1.368 . S
C2430 C2429 1.523 . S
H2431 C2406 0.950 . S
H2432 C2408 0.950 . S
H2433 C2409 0.949 . S
H2434 C2411 0.950 . S
H2435 C2413 0.950 . S
C2436 C2437 1.349 . S
C2436 C2438 1.327 . S
C2436 H2461 0.950 . S
C2437 C2436 1.349 . S
C2437 C2453 1.349 . S
C2438 C2436 1.327 . S
C2438 C2457 1.429 . S
C2438 H2462 0.950 . S
C2439 C2456 1.574 . S
C2439 C2458 1.368 . S
C2439 H2463 0.949 . S
H2440 C2444 0.949 . S
C2441 C2442 1.349 . S
C2441 C2443 1.327 . S
C2441 H2464 0.950 . S
C2442 C2441 1.349 . S
C2442 C2454 1.349 . S
C2443 C2441 1.327 . S
C2443 C2459 1.429 . S
C2443 H2465 0.950 . S
C2444 H2440 0.949 . S
C2444 C2452 1.574 . S
C2444 C2460 1.368 . S
H2445 C2453 0.950 . S
H2446 C2451 0.950 . S
H2447 C2452 0.949 . S
H2448 C2454 0.950 . S
H2449 C2455 0.950 . S
H2450 C2456 0.949 . S
C2451 H2446 0.950 . S
C2451 C2453 1.327 . S
C2451 C2457 1.429 . S
C2452 C2444 1.574 . S
C2452 H2447 0.949 . S
C2452 C2458 1.368 . S
C2453 C2437 1.349 . S
C2453 H2445 0.950 . S
C2453 C2451 1.327 . S
C2454 C2442 1.349 . S
C2454 H2448 0.950 . S
C2454 C2455 1.327 . S
C2455 H2449 0.950 . S
C2455 C2454 1.327 . S
C2455 C2459 1.429 . S
C2456 C2439 1.574 . S
C2456 H2450 0.949 . S
C2456 C2460 1.368 . S
C2457 C2438 1.429 . S
C2457 C2451 1.429 . S
C2457 C2458 1.523 . S
C2458 C2439 1.368 . S
C2458 C2452 1.368 . S
C2458 C2457 1.523 . S
C2459 C2443 1.429 . S
C2459 C2455 1.429 . S
C2459 C2460 1.523 . S
C2460 C2444 1.368 . S
C2460 C2456 1.368 . S
C2460 C2459 1.523 . S
H2461 C2436 0.950 . S
H2462 C2438 0.950 . S
H2463 C2439 0.949 . S
H2464 C2441 0.950 . S
H2465 C2443 0.950 . S
C2466 C2467 1.349 . S
C2466 C2468 1.327 . S
C2466 H2491 0.950 . S
C2467 C2466 1.349 . S
C2467 C2483 1.349 . S
C2468 C2466 1.327 . S
C2468 C2487 1.429 . S
C2468 H2492 0.950 . S
C2469 C2486 1.574 . S
C2469 C2488 1.368 . S
C2469 H2493 0.949 . S
H2470 C2474 0.949 . S
C2471 C2472 1.349 . S
C2471 C2473 1.327 . S
C2471 H2494 0.950 . S
C2472 C2471 1.349 . S
C2472 C2484 1.349 . S
C2473 C2471 1.327 . S
C2473 C2489 1.429 . S
C2473 H2495 0.950 . S
C2474 H2470 0.949 . S
C2474 C2482 1.574 . S
C2474 C2490 1.368 . S
H2475 C2483 0.950 . S
H2476 C2481 0.950 . S
H2477 C2482 0.949 . S
H2478 C2484 0.950 . S
H2479 C2485 0.950 . S
H2480 C2486 0.949 . S
C2481 H2476 0.950 . S
C2481 C2483 1.327 . S
C2481 C2487 1.429 . S
C2482 C2474 1.574 . S
C2482 H2477 0.949 . S
C2482 C2488 1.368 . S
C2483 C2467 1.349 . S
C2483 H2475 0.950 . S
C2483 C2481 1.327 . S
C2484 C2472 1.349 . S
C2484 H2478 0.950 . S
C2484 C2485 1.327 . S
C2485 H2479 0.950 . S
C2485 C2484 1.327 . S
C2485 C2489 1.429 . S
C2486 C2469 1.574 . S
C2486 H2480 0.949 . S
C2486 C2490 1.368 . S
C2487 C2468 1.429 . S
C2487 C2481 1.429 . S
C2487 C2488 1.523 . S
C2488 C2469 1.368 . S
C2488 C2482 1.368 . S
C2488 C2487 1.523 . S
C2489 C2473 1.429 . S
C2489 C2485 1.429 . S
C2489 C2490 1.523 . S
C2490 C2474 1.368 . S
C2490 C2486 1.368 . S
C2490 C2489 1.523 . S
H2491 C2466 0.950 . S
H2492 C2468 0.950 . S
H2493 C2469 0.949 . S
H2494 C2471 0.950 . S
H2495 C2473 0.950 . S
C2496 C2497 1.349 . S
C2496 C2498 1.327 . S
C2496 H2521 0.950 . S
C2497 C2496 1.349 . S
C2497 C2513 1.349 . S
C2498 C2496 1.327 . S
C2498 C2517 1.429 . S
C2498 H2522 0.950 . S
C2499 C2516 1.574 . S
C2499 C2518 1.368 . S
C2499 H2523 0.949 . S
H2500 C2504 0.949 . S
C2501 C2502 1.349 . S
C2501 C2503 1.327 . S
C2501 H2524 0.950 . S
C2502 C2501 1.349 . S
C2502 C2514 1.349 . S
C2503 C2501 1.327 . S
C2503 C2519 1.429 . S
C2503 H2525 0.950 . S
C2504 H2500 0.949 . S
C2504 C2512 1.574 . S
C2504 C2520 1.368 . S
H2505 C2513 0.950 . S
H2506 C2511 0.950 . S
H2507 C2512 0.949 . S
H2508 C2514 0.950 . S
H2509 C2515 0.950 . S
H2510 C2516 0.949 . S
C2511 H2506 0.950 . S
C2511 C2513 1.327 . S
C2511 C2517 1.429 . S
C2512 C2504 1.574 . S
C2512 H2507 0.949 . S
C2512 C2518 1.368 . S
C2513 C2497 1.349 . S
C2513 H2505 0.950 . S
C2513 C2511 1.327 . S
C2514 C2502 1.349 . S
C2514 H2508 0.950 . S
C2514 C2515 1.327 . S
C2515 H2509 0.950 . S
C2515 C2514 1.327 . S
C2515 C2519 1.429 . S
C2516 C2499 1.574 . S
C2516 H2510 0.949 . S
C2516 C2520 1.368 . S
C2517 C2498 1.429 . S
C2517 C2511 1.429 . S
C2517 C2518 1.523 . S
C2518 C2499 1.368 . S
C2518 C2512 1.368 . S
C2518 C2517 1.523 . S
C2519 C2503 1.429 . S
C2519 C2515 1.429 . S
C2519 C2520 1.523 . S
C2520 C2504 1.368 . S
C2520 C2516 1.368 . S
C2520 C2519 1.523 . S
H2521 C2496 0.950 . S
H2522 C2498 0.950 . S
H2523 C2499 0.949 . S
H2524 C2501 0.950 . S
H2525 C2503 0.950 . S
C2526 C2527 1.349 . S
C2526 C2528 1.327 . S
C2526 H2551 0.950 . S
C2527 C2526 1.349 . S
C2527 C2543 1.349 . S
C2528 C2526 1.327 . S
C2528 C2547 1.429 . S
C2528 H2552 0.950 . S
C2529 C2546 1.574 . S
C2529 C2548 1.368 . S
C2529 H2553 0.949 . S
H2530 C2534 0.949 . S
C2531 C2532 1.349 . S
C2531 C2533 1.327 . S
C2531 H2554 0.950 . S
C2532 C2531 1.349 . S
C2532 C2544 1.349 . S
C2533 C2531 1.327 . S
C2533 C2549 1.429 . S
C2533 H2555 0.950 . S
C2534 H2530 0.949 . S
C2534 C2542 1.574 . S
C2534 C2550 1.368 . S
H2535 C2543 0.950 . S
H2536 C2541 0.950 . S
H2537 C2542 0.949 . S
H2538 C2544 0.950 . S
H2539 C2545 0.950 . S
H2540 C2546 0.949 . S
C2541 H2536 0.950 . S
C2541 C2543 1.327 . S
C2541 C2547 1.429 . S
C2542 C2534 1.574 . S
C2542 H2537 0.949 . S
C2542 C2548 1.368 . S
C2543 C2527 1.349 . S
C2543 H2535 0.950 . S
C2543 C2541 1.327 . S
C2544 C2532 1.349 . S
C2544 H2538 0.950 . S
C2544 C2545 1.327 . S
C2545 H2539 0.950 . S
C2545 C2544 1.327 . S
C2545 C2549 1.429 . S
C2546 C2529 1.574 . S
C2546 H2540 0.949 . S
C2546 C2550 1.368 . S
C2547 C2528 1.429 . S
C2547 C2541 1.429 . S
C2547 C2548 1.523 . S
C2548 C2529 1.368 . S
C2548 C2542 1.368 . S
C2548 C2547 1.523 . S
C2549 C2533 1.429 . S
C2549 C2545 1.429 . S
C2549 C2550 1.523 1_455 S
C2550 C2534 1.368 . S
C2550 C2546 1.368 . S
C2550 C2549 1.523 1_655 S
H2551 C2526 0.950 . S
H2552 C2528 0.950 . S
H2553 C2529 0.949 . S
H2554 C2531 0.950 . S
H2555 C2533 0.950 . S
C2556 C2557 1.349 . S
C2556 C2558 1.327 . S
C2556 H2581 0.950 . S
C2557 C2556 1.349 . S
C2557 C2573 1.349 . S
C2558 C2556 1.327 . S
C2558 C2577 1.429 . S
C2558 H2582 0.950 . S
C2559 C2576 1.574 . S
C2559 C2578 1.368 . S
C2559 H2583 0.949 . S
H2560 C2564 0.949 . S
C2561 C2562 1.349 . S
C2561 C2563 1.327 . S
C2561 H2584 0.950 . S
C2562 C2561 1.349 . S
C2562 C2574 1.349 . S
C2563 C2561 1.327 . S
C2563 C2579 1.429 . S
C2563 H2585 0.950 . S
C2564 H2560 0.949 . S
C2564 C2572 1.574 . S
C2564 C2580 1.368 . S
H2565 C2573 0.950 . S
H2566 C2571 0.950 . S
H2567 C2572 0.949 . S
H2568 C2574 0.950 . S
H2569 C2575 0.950 . S
H2570 C2576 0.949 . S
C2571 H2566 0.950 . S
C2571 C2573 1.327 . S
C2571 C2577 1.429 . S
C2572 C2564 1.574 . S
C2572 H2567 0.949 . S
C2572 C2578 1.368 . S
C2573 C2557 1.349 . S
C2573 H2565 0.950 . S
C2573 C2571 1.327 . S
C2574 C2562 1.349 . S
C2574 H2568 0.950 . S
C2574 C2575 1.327 . S
C2575 H2569 0.950 . S
C2575 C2574 1.327 . S
C2575 C2579 1.429 . S
C2576 C2559 1.574 . S
C2576 H2570 0.949 . S
C2576 C2580 1.368 . S
C2577 C2558 1.429 . S
C2577 C2571 1.429 . S
C2577 C2578 1.523 . S
C2578 C2559 1.368 . S
C2578 C2572 1.368 . S
C2578 C2577 1.523 . S
C2579 C2563 1.429 . S
C2579 C2575 1.429 . S
C2579 C2580 1.523 . S
C2580 C2564 1.368 . S
C2580 C2576 1.368 . S
C2580 C2579 1.523 . S
H2581 C2556 0.950 . S
H2582 C2558 0.950 . S
H2583 C2559 0.949 . S
H2584 C2561 0.950 . S
H2585 C2563 0.950 . S
C2586 C2587 1.349 . S
C2586 C2588 1.327 . S
C2586 H2611 0.950 . S
C2587 C2586 1.349 . S
C2587 C2603 1.349 . S
C2588 C2586 1.327 . S
C2588 C2607 1.429 . S
C2588 H2612 0.950 . S
C2589 C2606 1.574 . S
C2589 C2608 1.368 . S
C2589 H2613 0.949 . S
H2590 C2594 0.949 . S
C2591 C2592 1.349 . S
C2591 C2593 1.327 . S
C2591 H2614 0.950 . S
C2592 C2591 1.349 . S
C2592 C2604 1.349 . S
C2593 C2591 1.327 . S
C2593 C2609 1.429 . S
C2593 H2615 0.950 . S
C2594 H2590 0.949 . S
C2594 C2602 1.574 . S
C2594 C2610 1.368 . S
H2595 C2603 0.950 . S
H2596 C2601 0.950 . S
H2597 C2602 0.949 . S
H2598 C2604 0.950 . S
H2599 C2605 0.950 . S
H2600 C2606 0.949 . S
C2601 H2596 0.950 . S
C2601 C2603 1.327 . S
C2601 C2607 1.429 . S
C2602 C2594 1.574 . S
C2602 H2597 0.949 . S
C2602 C2608 1.368 . S
C2603 C2587 1.349 . S
C2603 H2595 0.950 . S
C2603 C2601 1.327 . S
C2604 C2592 1.349 . S
C2604 H2598 0.950 . S
C2604 C2605 1.327 . S
C2605 H2599 0.950 . S
C2605 C2604 1.327 . S
C2605 C2609 1.429 . S
C2606 C2589 1.574 . S
C2606 H2600 0.949 . S
C2606 C2610 1.368 . S
C2607 C2588 1.429 . S
C2607 C2601 1.429 . S
C2607 C2608 1.523 . S
C2608 C2589 1.368 . S
C2608 C2602 1.368 . S
C2608 C2607 1.523 . S
C2609 C2593 1.429 . S
C2609 C2605 1.429 . S
C2609 C2610 1.523 . S
C2610 C2594 1.368 . S
C2610 C2606 1.368 . S
C2610 C2609 1.523 . S
H2611 C2586 0.950 . S
H2612 C2588 0.950 . S
H2613 C2589 0.949 . S
H2614 C2591 0.950 . S
H2615 C2593 0.950 . S
C2616 C2617 1.349 . S
C2616 C2618 1.327 . S
C2616 H2641 0.950 . S
C2617 C2616 1.349 . S
C2617 C2633 1.349 . S
C2618 C2616 1.327 . S
C2618 C2637 1.429 . S
C2618 H2642 0.950 . S
C2619 C2636 1.574 . S
C2619 C2638 1.368 . S
C2619 H2643 0.949 . S
H2620 C2624 0.949 . S
C2621 C2622 1.349 . S
C2621 C2623 1.327 . S
C2621 H2644 0.950 . S
C2622 C2621 1.349 . S
C2622 C2634 1.349 . S
C2623 C2621 1.327 . S
C2623 C2639 1.429 . S
C2623 H2645 0.950 . S
C2624 H2620 0.949 . S
C2624 C2632 1.574 . S
C2624 C2640 1.368 . S
H2625 C2633 0.950 . S
H2626 C2631 0.950 . S
H2627 C2632 0.949 . S
H2628 C2634 0.950 . S
H2629 C2635 0.950 . S
H2630 C2636 0.949 . S
C2631 H2626 0.950 . S
C2631 C2633 1.327 . S
C2631 C2637 1.429 . S
C2632 C2624 1.574 . S
C2632 H2627 0.949 . S
C2632 C2638 1.368 . S
C2633 C2617 1.349 . S
C2633 H2625 0.950 . S
C2633 C2631 1.327 . S
C2634 C2622 1.349 . S
C2634 H2628 0.950 . S
C2634 C2635 1.327 . S
C2635 H2629 0.950 . S
C2635 C2634 1.327 . S
C2635 C2639 1.429 . S
C2636 C2619 1.574 . S
C2636 H2630 0.949 . S
C2636 C2640 1.368 . S
C2637 C2618 1.429 . S
C2637 C2631 1.429 . S
C2637 C2638 1.523 . S
C2638 C2619 1.368 . S
C2638 C2632 1.368 . S
C2638 C2637 1.523 . S
C2639 C2623 1.429 . S
C2639 C2635 1.429 . S
C2639 C2640 1.523 . S
C2640 C2624 1.368 . S
C2640 C2636 1.368 . S
C2640 C2639 1.523 . S
H2641 C2616 0.950 . S
H2642 C2618 0.950 . S
H2643 C2619 0.949 . S
H2644 C2621 0.950 . S
H2645 C2623 0.950 . S
C2646 C2647 1.349 . S
C2646 C2648 1.327 . S
C2646 H2671 0.950 . S
C2647 C2646 1.349 . S
C2647 C2663 1.349 . S
C2648 C2646 1.327 . S
C2648 C2667 1.429 . S
C2648 H2672 0.950 . S
C2649 C2666 1.574 . S
C2649 C2668 1.368 . S
C2649 H2673 0.949 . S
H2650 C2654 0.949 . S
C2651 C2652 1.349 . S
C2651 C2653 1.327 . S
C2651 H2674 0.950 . S
C2652 C2651 1.349 . S
C2652 C2664 1.349 . S
C2653 C2651 1.327 . S
C2653 C2669 1.429 . S
C2653 H2675 0.950 . S
C2654 H2650 0.949 . S
C2654 C2662 1.574 . S
C2654 C2670 1.368 . S
H2655 C2663 0.950 . S
H2656 C2661 0.950 . S
H2657 C2662 0.949 . S
H2658 C2664 0.950 . S
H2659 C2665 0.950 . S
H2660 C2666 0.949 . S
C2661 H2656 0.950 . S
C2661 C2663 1.327 . S
C2661 C2667 1.429 . S
C2662 C2654 1.574 . S
C2662 H2657 0.949 . S
C2662 C2668 1.368 . S
C2663 C2647 1.349 . S
C2663 H2655 0.950 . S
C2663 C2661 1.327 . S
C2664 C2652 1.349 . S
C2664 H2658 0.950 . S
C2664 C2665 1.327 . S
C2665 H2659 0.950 . S
C2665 C2664 1.327 . S
C2665 C2669 1.429 . S
C2666 C2649 1.574 . S
C2666 H2660 0.949 . S
C2666 C2670 1.368 . S
C2667 C2648 1.429 . S
C2667 C2661 1.429 . S
C2667 C2668 1.523 . S
C2668 C2649 1.368 . S
C2668 C2662 1.368 . S
C2668 C2667 1.523 . S
C2669 C2653 1.429 . S
C2669 C2665 1.429 . S
C2669 C2670 1.523 . S
C2670 C2654 1.368 . S
C2670 C2666 1.368 . S
C2670 C2669 1.523 . S
H2671 C2646 0.950 . S
H2672 C2648 0.950 . S
H2673 C2649 0.949 . S
H2674 C2651 0.950 . S
H2675 C2653 0.950 . S
C2676 C2677 1.349 . S
C2676 C2678 1.327 . S
C2676 H2701 0.950 . S
C2677 C2676 1.349 . S
C2677 C2693 1.349 . S
C2678 C2676 1.327 . S
C2678 C2697 1.429 . S
C2678 H2702 0.950 . S
C2679 C2696 1.574 . S
C2679 C2698 1.368 . S
C2679 H2703 0.949 . S
H2680 C2684 0.949 . S
C2681 C2682 1.349 . S
C2681 C2683 1.327 . S
C2681 H2704 0.950 . S
C2682 C2681 1.349 . S
C2682 C2694 1.349 . S
C2683 C2681 1.327 . S
C2683 C2699 1.429 . S
C2683 H2705 0.950 . S
C2684 H2680 0.949 . S
C2684 C2692 1.574 . S
C2684 C2700 1.368 . S
H2685 C2693 0.950 . S
H2686 C2691 0.950 . S
H2687 C2692 0.949 . S
H2688 C2694 0.950 . S
H2689 C2695 0.950 . S
H2690 C2696 0.949 . S
C2691 H2686 0.950 . S
C2691 C2693 1.327 . S
C2691 C2697 1.429 . S
C2692 C2684 1.574 . S
C2692 H2687 0.949 . S
C2692 C2698 1.368 . S
C2693 C2677 1.349 . S
C2693 H2685 0.950 . S
C2693 C2691 1.327 . S
C2694 C2682 1.349 . S
C2694 H2688 0.950 . S
C2694 C2695 1.327 . S
C2695 H2689 0.950 . S
C2695 C2694 1.327 . S
C2695 C2699 1.429 . S
C2696 C2679 1.574 . S
C2696 H2690 0.949 . S
C2696 C2700 1.368 . S
C2697 C2678 1.429 . S
C2697 C2691 1.429 . S
C2697 C2698 1.523 . S
C2698 C2679 1.368 . S
C2698 C2692 1.368 . S
C2698 C2697 1.523 . S
C2699 C2683 1.429 . S
C2699 C2695 1.429 . S
C2699 C2700 1.523 . S
C2700 C2684 1.368 . S
C2700 C2696 1.368 . S
C2700 C2699 1.523 . S
H2701 C2676 0.950 . S
H2702 C2678 0.950 . S
H2703 C2679 0.949 . S
H2704 C2681 0.950 . S
H2705 C2683 0.950 . S
C2706 C2707 1.349 . S
C2706 C2708 1.327 . S
C2706 H2731 0.950 . S
C2707 C2706 1.349 . S
C2707 C2723 1.349 . S
C2708 C2706 1.327 . S
C2708 C2727 1.429 . S
C2708 H2732 0.950 . S
C2709 C2726 1.574 . S
C2709 C2728 1.368 . S
C2709 H2733 0.949 . S
H2710 C2714 0.949 . S
C2711 C2712 1.349 . S
C2711 C2713 1.327 . S
C2711 H2734 0.950 . S
C2712 C2711 1.349 . S
C2712 C2724 1.349 . S
C2713 C2711 1.327 . S
C2713 C2729 1.429 . S
C2713 H2735 0.950 . S
C2714 H2710 0.949 . S
C2714 C2722 1.574 . S
C2714 C2730 1.368 . S
H2715 C2723 0.950 . S
H2716 C2721 0.950 . S
H2717 C2722 0.949 . S
H2718 C2724 0.950 . S
H2719 C2725 0.950 . S
H2720 C2726 0.949 . S
C2721 H2716 0.950 . S
C2721 C2723 1.327 . S
C2721 C2727 1.429 . S
C2722 C2714 1.574 . S
C2722 H2717 0.949 . S
C2722 C2728 1.368 . S
C2723 C2707 1.349 . S
C2723 H2715 0.950 . S
C2723 C2721 1.327 . S
C2724 C2712 1.349 . S
C2724 H2718 0.950 . S
C2724 C2725 1.327 . S
C2725 H2719 0.950 . S
C2725 C2724 1.327 . S
C2725 C2729 1.429 . S
C2726 C2709 1.574 . S
C2726 H2720 0.949 . S
C2726 C2730 1.368 . S
C2727 C2708 1.429 . S
C2727 C2721 1.429 . S
C2727 C2728 1.523 . S
C2728 C2709 1.368 . S
C2728 C2722 1.368 . S
C2728 C2727 1.523 . S
C2729 C2713 1.429 . S
C2729 C2725 1.429 . S
C2729 C2730 1.523 1_455 S
C2730 C2714 1.368 . S
C2730 C2726 1.368 . S
C2730 C2729 1.523 1_655 S
H2731 C2706 0.950 . S
H2732 C2708 0.950 . S
H2733 C2709 0.949 . S
H2734 C2711 0.950 . S
H2735 C2713 0.950 . S
C2736 C2737 1.349 . S
C2736 C2738 1.327 . S
C2736 H2761 0.950 . S
C2737 C2736 1.349 . S
C2737 C2753 1.349 . S
C2738 C2736 1.327 . S
C2738 C2757 1.429 . S
C2738 H2762 0.950 . S
C2739 C2756 1.574 . S
C2739 C2758 1.368 . S
C2739 H2763 0.949 . S
H2740 C2744 0.949 . S
C2741 C2742 1.349 . S
C2741 C2743 1.327 . S
C2741 H2764 0.950 . S
C2742 C2741 1.349 . S
C2742 C2754 1.349 . S
C2743 C2741 1.327 . S
C2743 C2759 1.429 . S
C2743 H2765 0.950 . S
C2744 H2740 0.949 . S
C2744 C2752 1.574 . S
C2744 C2760 1.368 . S
H2745 C2753 0.950 . S
H2746 C2751 0.950 . S
H2747 C2752 0.949 . S
H2748 C2754 0.950 . S
H2749 C2755 0.950 . S
H2750 C2756 0.949 . S
C2751 H2746 0.950 . S
C2751 C2753 1.327 . S
C2751 C2757 1.429 . S
C2752 C2744 1.574 . S
C2752 H2747 0.949 . S
C2752 C2758 1.368 . S
C2753 C2737 1.349 . S
C2753 H2745 0.950 . S
C2753 C2751 1.327 . S
C2754 C2742 1.349 . S
C2754 H2748 0.950 . S
C2754 C2755 1.327 . S
C2755 H2749 0.950 . S
C2755 C2754 1.327 . S
C2755 C2759 1.429 . S
C2756 C2739 1.574 . S
C2756 H2750 0.949 . S
C2756 C2760 1.368 . S
C2757 C2738 1.429 . S
C2757 C2751 1.429 . S
C2757 C2758 1.523 . S
C2758 C2739 1.368 . S
C2758 C2752 1.368 . S
C2758 C2757 1.523 . S
C2759 C2743 1.429 . S
C2759 C2755 1.429 . S
C2759 C2760 1.523 . S
C2760 C2744 1.368 . S
C2760 C2756 1.368 . S
C2760 C2759 1.523 . S
H2761 C2736 0.950 . S
H2762 C2738 0.950 . S
H2763 C2739 0.949 . S
H2764 C2741 0.950 . S
H2765 C2743 0.950 . S
C2766 C2767 1.349 . S
C2766 C2768 1.327 . S
C2766 H2791 0.950 . S
C2767 C2766 1.349 . S
C2767 C2783 1.349 . S
C2768 C2766 1.327 . S
C2768 C2787 1.429 . S
C2768 H2792 0.950 . S
C2769 C2786 1.574 . S
C2769 C2788 1.368 . S
C2769 H2793 0.949 . S
H2770 C2774 0.949 . S
C2771 C2772 1.349 . S
C2771 C2773 1.327 . S
C2771 H2794 0.950 . S
C2772 C2771 1.349 . S
C2772 C2784 1.349 . S
C2773 C2771 1.327 . S
C2773 C2789 1.429 . S
C2773 H2795 0.950 . S
C2774 H2770 0.949 . S
C2774 C2782 1.574 . S
C2774 C2790 1.368 . S
H2775 C2783 0.950 . S
H2776 C2781 0.950 . S
H2777 C2782 0.958 . S
H2778 C2784 0.950 . S
H2779 C2785 0.950 . S
H2780 C2786 0.949 . S
C2781 H2776 0.950 . S
C2781 C2783 1.327 . S
C2781 C2787 1.429 . S
C2782 C2774 1.574 . S
C2782 H2777 0.958 . S
C2782 C2788 1.368 . S
C2783 C2767 1.349 . S
C2783 H2775 0.950 . S
C2783 C2781 1.327 . S
C2784 C2772 1.349 . S
C2784 H2778 0.950 . S
C2784 C2785 1.327 . S
C2785 H2779 0.950 . S
C2785 C2784 1.327 . S
C2785 C2789 1.429 . S
C2786 C2769 1.574 . S
C2786 H2780 0.949 . S
C2786 C2790 1.368 . S
C2787 C2768 1.429 . S
C2787 C2781 1.429 . S
C2787 C2788 1.523 1_655 S
C2788 C2769 1.368 . S
C2788 C2782 1.368 . S
C2788 C2787 1.523 1_455 S
C2789 C2773 1.429 . S
C2789 C2785 1.429 . S
C2789 C2790 1.523 . S
C2790 C2774 1.368 . S
C2790 C2786 1.368 . S
C2790 C2789 1.523 . S
H2791 C2766 0.950 . S
H2792 C2768 0.950 . S
H2793 C2769 0.949 . S
H2794 C2771 0.950 . S
H2795 C2773 0.950 . S
C2796 C2797 1.349 . S
C2796 C2798 1.327 . S
C2796 H2821 0.950 . S
C2797 C2796 1.349 . S
C2797 C2813 1.349 . S
C2798 C2796 1.327 . S
C2798 C2817 1.429 . S
C2798 H2822 0.950 . S
C2799 C2816 1.574 . S
C2799 C2818 1.368 . S
C2799 H2823 0.949 . S
H2800 C2804 0.949 . S
C2801 C2802 1.349 . S
C2801 C2803 1.327 . S
C2801 H2824 0.950 . S
C2802 C2801 1.349 . S
C2802 C2814 1.349 . S
C2803 C2801 1.327 . S
C2803 C2819 1.429 . S
C2803 H2825 0.950 . S
C2804 H2800 0.949 . S
C2804 C2812 1.574 . S
C2804 C2820 1.368 . S
H2805 C2813 0.950 . S
H2806 C2811 0.950 . S
H2807 C2812 0.949 . S
H2808 C2814 0.950 . S
H2809 C2815 0.950 . S
H2810 C2816 0.949 . S
C2811 H2806 0.950 . S
C2811 C2813 1.327 . S
C2811 C2817 1.429 . S
C2812 C2804 1.574 . S
C2812 H2807 0.949 . S
C2812 C2818 1.368 . S
C2813 C2797 1.349 . S
C2813 H2805 0.950 . S
C2813 C2811 1.327 . S
C2814 C2802 1.349 . S
C2814 H2808 0.950 . S
C2814 C2815 1.327 . S
C2815 H2809 0.950 . S
C2815 C2814 1.327 . S
C2815 C2819 1.429 . S
C2816 C2799 1.574 . S
C2816 H2810 0.949 . S
C2816 C2820 1.368 . S
C2817 C2798 1.429 . S
C2817 C2811 1.429 . S
C2817 C2818 1.523 . S
C2818 C2799 1.368 . S
C2818 C2812 1.368 . S
C2818 C2817 1.523 . S
C2819 C2803 1.429 . S
C2819 C2815 1.429 . S
C2819 C2820 1.523 . S
C2820 C2804 1.368 . S
C2820 C2816 1.368 . S
C2820 C2819 1.523 . S
H2821 C2796 0.950 . S
H2822 C2798 0.950 . S
H2823 C2799 0.949 . S
H2824 C2801 0.950 . S
H2825 C2803 0.950 . S
C2826 C2827 1.349 . S
C2826 C2828 1.327 . S
C2826 H2851 0.950 . S
C2827 C2826 1.349 . S
C2827 C2843 1.349 . S
C2828 C2826 1.327 . S
C2828 C2847 1.429 . S
C2828 H2852 0.950 . S
C2829 C2846 1.574 . S
C2829 C2848 1.368 . S
C2829 H2853 0.949 . S
H2830 C2834 0.949 . S
C2831 C2832 1.349 . S
C2831 C2833 1.327 . S
C2831 H2854 0.950 . S
C2832 C2831 1.349 . S
C2832 C2844 1.349 . S
C2833 C2831 1.327 . S
C2833 C2849 1.429 . S
C2833 H2855 0.950 . S
C2834 H2830 0.949 . S
C2834 C2842 1.574 . S
C2834 C2850 1.368 . S
H2835 C2843 0.950 . S
H2836 C2841 0.950 . S
H2837 C2842 0.949 . S
H2838 C2844 0.950 . S
H2839 C2845 0.950 . S
H2840 C2846 0.949 . S
C2841 H2836 0.950 . S
C2841 C2843 1.327 . S
C2841 C2847 1.429 . S
C2842 C2834 1.574 . S
C2842 H2837 0.949 . S
C2842 C2848 1.368 . S
C2843 C2827 1.349 . S
C2843 H2835 0.950 . S
C2843 C2841 1.327 . S
C2844 C2832 1.349 . S
C2844 H2838 0.950 . S
C2844 C2845 1.327 . S
C2845 H2839 0.950 . S
C2845 C2844 1.327 . S
C2845 C2849 1.429 . S
C2846 C2829 1.574 . S
C2846 H2840 0.949 . S
C2846 C2850 1.368 . S
C2847 C2828 1.429 . S
C2847 C2841 1.429 . S
C2847 C2848 1.523 . S
C2848 C2829 1.368 . S
C2848 C2842 1.368 . S
C2848 C2847 1.523 . S
C2849 C2833 1.429 . S
C2849 C2845 1.429 . S
C2849 C2850 1.523 . S
C2850 C2834 1.368 . S
C2850 C2846 1.368 . S
C2850 C2849 1.523 . S
H2851 C2826 0.950 . S
H2852 C2828 0.950 . S
H2853 C2829 0.949 . S
H2854 C2831 0.950 . S
H2855 C2833 0.950 . S
C2856 C2857 1.349 . S
C2856 C2858 1.327 . S
C2856 H2881 0.950 . S
C2857 C2856 1.349 . S
C2857 C2873 1.349 . S
C2858 C2856 1.327 . S
C2858 C2877 1.429 . S
C2858 H2882 0.950 . S
C2859 C2876 1.574 . S
C2859 C2878 1.368 . S
C2859 H2883 0.949 . S
H2860 C2864 0.949 . S
C2861 C2862 1.349 . S
C2861 C2863 1.327 . S
C2861 H2884 0.950 . S
C2862 C2861 1.349 . S
C2862 C2874 1.349 . S
C2863 C2861 1.327 . S
C2863 C2879 1.429 . S
C2863 H2885 0.950 . S
C2864 H2860 0.949 . S
C2864 C2872 1.574 . S
C2864 C2880 1.368 . S
H2865 C2873 0.950 . S
H2866 C2871 0.950 . S
H2867 C2872 0.949 . S
H2868 C2874 0.950 . S
H2869 C2875 0.950 . S
H2870 C2876 0.949 . S
C2871 H2866 0.950 . S
C2871 C2873 1.327 . S
C2871 C2877 1.429 . S
C2872 C2864 1.574 . S
C2872 H2867 0.949 . S
C2872 C2878 1.368 . S
C2873 C2857 1.349 . S
C2873 H2865 0.950 . S
C2873 C2871 1.327 . S
C2874 C2862 1.349 . S
C2874 H2868 0.950 . S
C2874 C2875 1.327 . S
C2875 H2869 0.950 . S
C2875 C2874 1.327 . S
C2875 C2879 1.429 . S
C2876 C2859 1.574 . S
C2876 H2870 0.949 . S
C2876 C2880 1.368 . S
C2877 C2858 1.429 . S
C2877 C2871 1.429 . S
C2877 C2878 1.523 . S
C2878 C2859 1.368 . S
C2878 C2872 1.368 . S
C2878 C2877 1.523 . S
C2879 C2863 1.429 . S
C2879 C2875 1.429 . S
C2879 C2880 1.523 . S
C2880 C2864 1.368 . S
C2880 C2876 1.368 . S
C2880 C2879 1.523 . S
H2881 C2856 0.950 . S
H2882 C2858 0.950 . S
H2883 C2859 0.949 . S
H2884 C2861 0.950 . S
H2885 C2863 0.950 . S
C2886 C2887 1.349 . S
C2886 C2888 1.327 . S
C2886 H2911 0.950 . S
C2887 C2886 1.349 . S
C2887 C2903 1.349 . S
C2888 C2886 1.327 . S
C2888 C2907 1.429 . S
C2888 H2912 0.950 . S
C2889 C2906 1.574 . S
C2889 C2908 1.368 . S
C2889 H2913 0.949 . S
H2890 C2894 0.949 . S
C2891 C2892 1.349 . S
C2891 C2893 1.327 . S
C2891 H2914 0.950 . S
C2892 C2891 1.349 . S
C2892 C2904 1.349 . S
C2893 C2891 1.327 . S
C2893 C2909 1.429 . S
C2893 H2915 0.950 . S
C2894 H2890 0.949 . S
C2894 C2902 1.574 . S
C2894 C2910 1.368 . S
H2895 C2903 0.950 . S
H2896 C2901 0.950 . S
H2897 C2902 0.949 . S
H2898 C2904 0.950 . S
H2899 C2905 0.950 . S
H2900 C2906 0.949 . S
C2901 H2896 0.950 . S
C2901 C2903 1.327 . S
C2901 C2907 1.429 . S
C2902 C2894 1.574 . S
C2902 H2897 0.949 . S
C2902 C2908 1.368 . S
C2903 C2887 1.349 . S
C2903 H2895 0.950 . S
C2903 C2901 1.327 . S
C2904 C2892 1.349 . S
C2904 H2898 0.950 . S
C2904 C2905 1.327 . S
C2905 H2899 0.950 . S
C2905 C2904 1.327 . S
C2905 C2909 1.429 . S
C2906 C2889 1.574 . S
C2906 H2900 0.949 . S
C2906 C2910 1.368 . S
C2907 C2888 1.429 . S
C2907 C2901 1.429 . S
C2907 C2908 1.523 . S
C2908 C2889 1.368 . S
C2908 C2902 1.368 . S
C2908 C2907 1.523 . S
C2909 C2893 1.429 . S
C2909 C2905 1.429 . S
C2909 C2910 1.523 . S
C2910 C2894 1.368 . S
C2910 C2906 1.368 . S
C2910 C2909 1.523 . S
H2911 C2886 0.950 . S
H2912 C2888 0.950 . S
H2913 C2889 0.949 . S
H2914 C2891 0.950 . S
H2915 C2893 0.950 . S
C2916 C2917 1.349 . S
C2916 C2918 1.327 . S
C2916 H2941 0.950 . S
C2917 C2916 1.349 . S
C2917 C2933 1.349 . S
C2918 C2916 1.327 . S
C2918 C2937 1.429 . S
C2918 H2942 0.950 . S
C2919 C2936 1.574 . S
C2919 C2938 1.368 . S
C2919 H2943 0.949 . S
H2920 C2924 0.949 . S
C2921 C2922 1.349 . S
C2921 C2923 1.327 . S
C2921 H2944 0.950 . S
C2922 C2921 1.349 . S
C2922 C2934 1.349 . S
C2923 C2921 1.327 . S
C2923 C2939 1.429 . S
C2923 H2945 0.950 . S
C2924 H2920 0.949 . S
C2924 C2932 1.574 . S
C2924 C2940 1.368 . S
H2925 C2933 0.950 . S
H2926 C2931 0.950 . S
H2927 C2932 0.949 . S
H2928 C2934 0.950 . S
H2929 C2935 0.950 . S
H2930 C2936 0.949 . S
C2931 H2926 0.950 . S
C2931 C2933 1.327 . S
C2931 C2937 1.429 . S
C2932 C2924 1.574 . S
C2932 H2927 0.949 . S
C2932 C2938 1.368 . S
C2933 C2917 1.349 . S
C2933 H2925 0.950 . S
C2933 C2931 1.327 . S
C2934 C2922 1.349 . S
C2934 H2928 0.950 . S
C2934 C2935 1.327 . S
C2935 H2929 0.950 . S
C2935 C2934 1.327 . S
C2935 C2939 1.429 . S
C2936 C2919 1.574 . S
C2936 H2930 0.949 . S
C2936 C2940 1.368 . S
C2937 C2918 1.429 . S
C2937 C2931 1.429 . S
C2937 C2938 1.523 . S
C2938 C2919 1.368 . S
C2938 C2932 1.368 . S
C2938 C2937 1.523 . S
C2939 C2923 1.429 . S
C2939 C2935 1.429 . S
C2939 C2940 1.523 . S
C2940 C2924 1.368 . S
C2940 C2936 1.368 . S
C2940 C2939 1.523 . S
H2941 C2916 0.950 . S
H2942 C2918 0.950 . S
H2943 C2919 0.949 . S
H2944 C2921 0.950 . S
H2945 C2923 0.950 . S
C2946 C2947 1.349 . S
C2946 C2948 1.327 . S
C2946 H2971 0.950 . S
C2947 C2946 1.349 . S
C2947 C2963 1.349 . S
C2948 C2946 1.327 . S
C2948 C2967 1.429 . S
C2948 H2972 0.950 . S
C2949 C2966 1.574 . S
C2949 C2968 1.368 . S
C2949 H2973 0.949 . S
H2950 C2954 0.949 . S
C2951 C2952 1.349 . S
C2951 C2953 1.327 . S
C2951 H2974 0.950 . S
C2952 C2951 1.349 . S
C2952 C2964 1.349 . S
C2953 C2951 1.327 . S
C2953 C2969 1.429 . S
C2953 H2975 0.950 . S
C2954 H2950 0.949 . S
C2954 C2962 1.574 . S
C2954 C2970 1.368 . S
H2955 C2963 0.950 . S
H2956 C2961 0.950 . S
H2957 C2962 0.949 . S
H2958 C2964 0.950 . S
H2959 C2965 0.950 . S
H2960 C2966 0.949 . S
C2961 H2956 0.950 . S
C2961 C2963 1.327 . S
C2961 C2967 1.429 . S
C2962 C2954 1.574 . S
C2962 H2957 0.949 . S
C2962 C2968 1.368 . S
C2963 C2947 1.349 . S
C2963 H2955 0.950 . S
C2963 C2961 1.327 . S
C2964 C2952 1.349 . S
C2964 H2958 0.950 . S
C2964 C2965 1.327 . S
C2965 H2959 0.950 . S
C2965 C2964 1.327 . S
C2965 C2969 1.429 . S
C2966 C2949 1.574 . S
C2966 H2960 0.949 . S
C2966 C2970 1.368 . S
C2967 C2948 1.429 . S
C2967 C2961 1.429 . S
C2967 C2968 1.523 . S
C2968 C2949 1.368 . S
C2968 C2962 1.368 . S
C2968 C2967 1.523 . S
C2969 C2953 1.429 . S
C2969 C2965 1.429 . S
C2969 C2970 1.523 1_655 S
C2970 C2954 1.368 . S
C2970 C2966 1.368 . S
C2970 C2969 1.523 1_455 S
H2971 C2946 0.950 . S
H2972 C2948 0.950 . S
H2973 C2949 0.949 . S
H2974 C2951 0.950 . S
H2975 C2953 0.950 . S
C2976 C2977 1.349 . S
C2976 C2978 1.327 . S
C2976 H3001 0.950 . S
C2977 C2976 1.349 . S
C2977 C2993 1.349 . S
C2978 C2976 1.327 . S
C2978 C2997 1.429 . S
C2978 H3002 0.950 . S
C2979 C2996 1.574 . S
C2979 C2998 1.368 . S
C2979 H3003 0.949 . S
H2980 C2984 0.949 . S
C2981 C2982 1.349 . S
C2981 C2983 1.327 . S
C2981 H3004 0.950 . S
C2982 C2981 1.349 . S
C2982 C2994 1.349 . S
C2983 C2981 1.327 . S
C2983 C2999 1.429 . S
C2983 H3005 0.950 . S
C2984 H2980 0.949 . S
C2984 C2992 1.574 . S
C2984 C3000 1.368 . S
H2985 C2993 0.950 . S
H2986 C2991 0.950 . S
H2987 C2992 0.949 . S
H2988 C2994 0.950 . S
H2989 C2995 0.950 . S
H2990 C2996 0.949 . S
C2991 H2986 0.950 . S
C2991 C2993 1.327 . S
C2991 C2997 1.429 . S
C2992 C2984 1.574 . S
C2992 H2987 0.949 . S
C2992 C2998 1.368 . S
C2993 C2977 1.349 . S
C2993 H2985 0.950 . S
C2993 C2991 1.327 . S
C2994 C2982 1.349 . S
C2994 H2988 0.950 . S
C2994 C2995 1.327 . S
C2995 H2989 0.950 . S
C2995 C2994 1.327 . S
C2995 C2999 1.429 . S
C2996 C2979 1.574 . S
C2996 H2990 0.949 . S
C2996 C3000 1.368 . S
C2997 C2978 1.429 . S
C2997 C2991 1.429 . S
C2997 C2998 1.523 . S
C2998 C2979 1.368 . S
C2998 C2992 1.368 . S
C2998 C2997 1.523 . S
C2999 C2983 1.429 . S
C2999 C2995 1.429 . S
C2999 C3000 1.523 . S
C3000 C2984 1.368 . S
C3000 C2996 1.368 . S
C3000 C2999 1.523 . S
H3001 C2976 0.950 . S
H3002 C2978 0.950 . S
H3003 C2979 0.949 . S
H3004 C2981 0.950 . S
H3005 C2983 0.950 . S
C3006 C3007 1.349 . S
C3006 C3008 1.327 . S
C3006 H3031 0.950 . S
C3007 C3006 1.349 . S
C3007 C3023 1.349 . S
C3008 C3006 1.327 . S
C3008 C3027 1.429 . S
C3008 H3032 0.950 . S
C3009 C3026 1.574 . S
C3009 C3028 1.368 . S
C3009 H3033 0.949 . S
H3010 C3014 0.949 . S
C3011 C3012 1.349 . S
C3011 C3013 1.327 . S
C3011 H3034 0.950 . S
C3012 C3011 1.349 . S
C3012 C3024 1.349 . S
C3013 C3011 1.327 . S
C3013 C3029 1.429 . S
C3013 H3035 0.950 . S
C3014 H3010 0.949 . S
C3014 C3022 1.574 . S
C3014 C3030 1.368 . S
H3015 C3023 0.950 . S
H3016 C3021 0.950 . S
H3017 C3022 0.949 . S
H3018 C3024 0.950 . S
H3019 C3025 0.950 . S
H3020 C3026 0.949 . S
C3021 H3016 0.950 . S
C3021 C3023 1.327 . S
C3021 C3027 1.429 . S
C3022 C3014 1.574 . S
C3022 H3017 0.949 . S
C3022 C3028 1.368 . S
C3023 C3007 1.349 . S
C3023 H3015 0.950 . S
C3023 C3021 1.327 . S
C3024 C3012 1.349 . S
C3024 H3018 0.950 . S
C3024 C3025 1.327 . S
C3025 H3019 0.950 . S
C3025 C3024 1.327 . S
C3025 C3029 1.429 . S
C3026 C3009 1.574 . S
C3026 H3020 0.949 . S
C3026 C3030 1.368 . S
C3027 C3008 1.429 . S
C3027 C3021 1.429 . S
C3027 C3028 1.523 . S
C3028 C3009 1.368 . S
C3028 C3022 1.368 . S
C3028 C3027 1.523 . S
C3029 C3013 1.429 . S
C3029 C3025 1.429 . S
C3029 C3030 1.523 . S
C3030 C3014 1.368 . S
C3030 C3026 1.368 . S
C3030 C3029 1.523 . S
H3031 C3006 0.950 . S
H3032 C3008 0.950 . S
H3033 C3009 0.949 . S
H3034 C3011 0.950 . S
H3035 C3013 0.950 . S
C3036 C3037 1.349 . S
C3036 C3038 1.327 . S
C3036 H3061 0.950 . S
C3037 C3036 1.349 . S
C3037 C3053 1.349 . S
C3038 C3036 1.327 . S
C3038 C3057 1.429 . S
C3038 H3062 0.950 . S
C3039 C3056 1.574 . S
C3039 C3058 1.368 . S
C3039 H3063 0.949 . S
H3040 C3044 0.949 . S
C3041 C3042 1.349 . S
C3041 C3043 1.327 . S
C3041 H3064 0.950 . S
C3042 C3041 1.349 . S
C3042 C3054 1.349 . S
C3043 C3041 1.327 . S
C3043 C3059 1.429 . S
C3043 H3065 0.950 . S
C3044 H3040 0.949 . S
C3044 C3052 1.574 . S
C3044 C3060 1.368 . S
H3045 C3053 0.950 . S
H3046 C3051 0.950 . S
H3047 C3052 0.949 . S
H3048 C3054 0.950 . S
H3049 C3055 0.950 . S
H3050 C3056 0.949 . S
C3051 H3046 0.950 . S
C3051 C3053 1.327 . S
C3051 C3057 1.429 . S
C3052 C3044 1.574 . S
C3052 H3047 0.949 . S
C3052 C3058 1.368 . S
C3053 C3037 1.349 . S
C3053 H3045 0.950 . S
C3053 C3051 1.327 . S
C3054 C3042 1.349 . S
C3054 H3048 0.950 . S
C3054 C3055 1.327 . S
C3055 H3049 0.950 . S
C3055 C3054 1.327 . S
C3055 C3059 1.429 . S
C3056 C3039 1.574 . S
C3056 H3050 0.949 . S
C3056 C3060 1.368 . S
C3057 C3038 1.429 . S
C3057 C3051 1.429 . S
C3057 C3058 1.523 . S
C3058 C3039 1.368 . S
C3058 C3052 1.368 . S
C3058 C3057 1.523 . S
C3059 C3043 1.429 . S
C3059 C3055 1.429 . S
C3059 C3060 1.523 . S
C3060 C3044 1.368 . S
C3060 C3056 1.368 . S
C3060 C3059 1.523 . S
H3061 C3036 0.950 . S
H3062 C3038 0.950 . S
H3063 C3039 0.949 . S
H3064 C3041 0.950 . S
H3065 C3043 0.950 . S
C3066 C3067 1.349 . S
C3066 C3068 1.327 . S
C3066 H3091 0.950 . S
C3067 C3066 1.349 . S
C3067 C3083 1.349 . S
C3068 C3066 1.327 . S
C3068 C3087 1.429 . S
C3068 H3092 0.950 . S
C3069 C3086 1.574 . S
C3069 C3088 1.368 . S
C3069 H3093 0.949 . S
H3070 C3074 0.949 . S
C3071 C3072 1.349 . S
C3071 C3073 1.327 . S
C3071 H3094 0.950 . S
C3072 C3071 1.349 . S
C3072 C3084 1.349 . S
C3073 C3071 1.327 . S
C3073 C3089 1.429 . S
C3073 H3095 0.950 . S
C3074 H3070 0.949 . S
C3074 C3082 1.574 . S
C3074 C3090 1.368 . S
H3075 C3083 0.950 . S
H3076 C3081 0.950 . S
H3077 C3082 0.948 . S
H3078 C3084 0.950 . S
H3079 C3085 0.950 . S
H3080 C3086 0.949 . S
C3081 H3076 0.950 . S
C3081 C3083 1.327 . S
C3081 C3087 1.429 . S
C3082 C3074 1.574 . S
C3082 H3077 0.948 . S
C3082 C3088 1.368 . S
C3083 C3067 1.349 . S
C3083 H3075 0.950 . S
C3083 C3081 1.327 . S
C3084 C3072 1.349 . S
C3084 H3078 0.950 . S
C3084 C3085 1.327 . S
C3085 H3079 0.950 . S
C3085 C3084 1.327 . S
C3085 C3089 1.429 . S
C3086 C3069 1.574 . S
C3086 H3080 0.949 . S
C3086 C3090 1.368 . S
C3087 C3068 1.429 . S
C3087 C3081 1.429 . S
C3087 C3088 1.523 1_655 S
C3088 C3069 1.368 . S
C3088 C3082 1.368 . S
C3088 C3087 1.523 1_455 S
C3089 C3073 1.429 . S
C3089 C3085 1.429 . S
C3089 C3090 1.523 . S
C3090 C3074 1.368 . S
C3090 C3086 1.368 . S
C3090 C3089 1.523 . S
H3091 C3066 0.950 . S
H3092 C3068 0.950 . S
H3093 C3069 0.949 . S
H3094 C3071 0.950 . S
H3095 C3073 0.950 . S
C3096 C3097 1.349 . S
C3096 C3098 1.327 . S
C3096 H3121 0.950 . S
C3097 C3096 1.349 . S
C3097 C3113 1.349 . S
C3098 C3096 1.327 . S
C3098 C3117 1.429 . S
C3098 H3122 0.950 . S
C3099 C3116 1.574 . S
C3099 C3118 1.368 . S
C3099 H3123 0.949 . S
H3100 C3104 0.949 . S
C3101 C3102 1.349 . S
C3101 C3103 1.327 . S
C3101 H3124 0.950 . S
C3102 C3101 1.349 . S
C3102 C3114 1.349 . S
C3103 C3101 1.327 . S
C3103 C3119 1.429 . S
C3103 H3125 0.950 . S
C3104 H3100 0.949 . S
C3104 C3112 1.574 . S
C3104 C3120 1.368 . S
H3105 C3113 0.950 . S
H3106 C3111 0.950 . S
H3107 C3112 0.949 . S
H3108 C3114 0.950 . S
H3109 C3115 0.950 . S
H3110 C3116 0.949 . S
C3111 H3106 0.950 . S
C3111 C3113 1.327 . S
C3111 C3117 1.429 . S
C3112 C3104 1.574 . S
C3112 H3107 0.949 . S
C3112 C3118 1.368 . S
C3113 C3097 1.349 . S
C3113 H3105 0.950 . S
C3113 C3111 1.327 . S
C3114 C3102 1.349 . S
C3114 H3108 0.950 . S
C3114 C3115 1.327 . S
C3115 H3109 0.950 . S
C3115 C3114 1.327 . S
C3115 C3119 1.429 . S
C3116 C3099 1.574 . S
C3116 H3110 0.949 . S
C3116 C3120 1.368 . S
C3117 C3098 1.429 . S
C3117 C3111 1.429 . S
C3117 C3118 1.523 . S
C3118 C3099 1.368 . S
C3118 C3112 1.368 . S
C3118 C3117 1.523 . S
C3119 C3103 1.429 . S
C3119 C3115 1.429 . S
C3119 C3120 1.523 . S
C3120 C3104 1.368 . S
C3120 C3116 1.368 . S
C3120 C3119 1.523 . S
H3121 C3096 0.950 . S
H3122 C3098 0.950 . S
H3123 C3099 0.949 . S
H3124 C3101 0.950 . S
H3125 C3103 0.950 . S
C3126 C3127 1.349 . S
C3126 C3128 1.327 . S
C3126 H3151 0.950 . S
C3127 C3126 1.349 . S
C3127 C3143 1.349 . S
C3128 C3126 1.327 . S
C3128 C3147 1.429 . S
C3128 H3152 0.950 . S
C3129 C3146 1.574 . S
C3129 C3148 1.368 . S
C3129 H3153 0.949 . S
H3130 C3134 0.949 . S
C3131 C3132 1.349 . S
C3131 C3133 1.327 . S
C3131 H3154 0.950 . S
C3132 C3131 1.349 . S
C3132 C3144 1.349 . S
C3133 C3131 1.327 . S
C3133 C3149 1.429 . S
C3133 H3155 0.950 . S
C3134 H3130 0.949 . S
C3134 C3142 1.574 . S
C3134 C3150 1.368 . S
H3135 C3143 0.950 . S
H3136 C3141 0.950 . S
H3137 C3142 0.949 . S
H3138 C3144 0.950 . S
H3139 C3145 0.950 . S
H3140 C3146 0.949 . S
C3141 H3136 0.950 . S
C3141 C3143 1.327 . S
C3141 C3147 1.429 . S
C3142 C3134 1.574 . S
C3142 H3137 0.949 . S
C3142 C3148 1.368 . S
C3143 C3127 1.349 . S
C3143 H3135 0.950 . S
C3143 C3141 1.327 . S
C3144 C3132 1.349 . S
C3144 H3138 0.950 . S
C3144 C3145 1.327 . S
C3145 H3139 0.950 . S
C3145 C3144 1.327 . S
C3145 C3149 1.429 . S
C3146 C3129 1.574 . S
C3146 H3140 0.949 . S
C3146 C3150 1.368 . S
C3147 C3128 1.429 . S
C3147 C3141 1.429 . S
C3147 C3148 1.523 1_655 S
C3148 C3129 1.368 . S
C3148 C3142 1.368 . S
C3148 C3147 1.523 1_455 S
C3149 C3133 1.429 . S
C3149 C3145 1.429 . S
C3149 C3150 1.523 . S
C3150 C3134 1.368 . S
C3150 C3146 1.368 . S
C3150 C3149 1.523 . S
H3151 C3126 0.950 . S
H3152 C3128 0.950 . S
H3153 C3129 0.949 . S
H3154 C3131 0.950 . S
H3155 C3133 0.950 . S
C3156 C3157 1.349 . S
C3156 C3158 1.327 . S
C3156 H3181 0.950 . S
C3157 C3156 1.349 . S
C3157 C3173 1.349 . S
C3158 C3156 1.327 . S
C3158 C3177 1.429 . S
C3158 H3182 0.950 . S
C3159 C3176 1.574 . S
C3159 C3178 1.368 . S
C3159 H3183 0.949 . S
H3160 C3164 0.949 . S
C3161 C3162 1.349 . S
C3161 C3163 1.327 . S
C3161 H3184 0.950 . S
C3162 C3161 1.349 . S
C3162 C3174 1.349 . S
C3163 C3161 1.327 . S
C3163 C3179 1.429 . S
C3163 H3185 0.950 . S
C3164 H3160 0.949 . S
C3164 C3172 1.574 . S
C3164 C3180 1.368 . S
H3165 C3173 0.950 . S
H3166 C3171 0.950 . S
H3167 C3172 0.949 . S
H3168 C3174 0.950 . S
H3169 C3175 0.950 . S
H3170 C3176 0.949 . S
C3171 H3166 0.950 . S
C3171 C3173 1.327 . S
C3171 C3177 1.429 . S
C3172 C3164 1.574 . S
C3172 H3167 0.949 . S
C3172 C3178 1.368 . S
C3173 C3157 1.349 . S
C3173 H3165 0.950 . S
C3173 C3171 1.327 . S
C3174 C3162 1.349 . S
C3174 H3168 0.950 . S
C3174 C3175 1.327 . S
C3175 H3169 0.950 . S
C3175 C3174 1.327 . S
C3175 C3179 1.429 . S
C3176 C3159 1.574 . S
C3176 H3170 0.949 . S
C3176 C3180 1.368 . S
C3177 C3158 1.429 . S
C3177 C3171 1.429 . S
C3177 C3178 1.523 . S
C3178 C3159 1.368 . S
C3178 C3172 1.368 . S
C3178 C3177 1.523 . S
C3179 C3163 1.429 . S
C3179 C3175 1.429 . S
C3179 C3180 1.523 . S
C3180 C3164 1.368 . S
C3180 C3176 1.368 . S
C3180 C3179 1.523 . S
H3181 C3156 0.950 . S
H3182 C3158 0.950 . S
H3183 C3159 0.949 . S
H3184 C3161 0.950 . S
H3185 C3163 0.950 . S
C3186 C3187 1.349 . S
C3186 C3188 1.327 . S
C3186 H3211 0.950 . S
C3187 C3186 1.349 . S
C3187 C3203 1.349 . S
C3188 C3186 1.327 . S
C3188 C3207 1.429 . S
C3188 H3212 0.950 . S
C3189 C3206 1.574 . S
C3189 C3208 1.368 . S
C3189 H3213 0.949 . S
H3190 C3194 0.949 . S
C3191 C3192 1.349 . S
C3191 C3193 1.327 . S
C3191 H3214 0.950 . S
C3192 C3191 1.349 . S
C3192 C3204 1.349 . S
C3193 C3191 1.327 . S
C3193 C3209 1.429 . S
C3193 H3215 0.950 . S
C3194 H3190 0.949 . S
C3194 C3202 1.574 . S
C3194 C3210 1.368 . S
H3195 C3203 0.950 . S
H3196 C3201 0.950 . S
H3197 C3202 0.949 . S
H3198 C3204 0.950 . S
H3199 C3205 0.950 . S
H3200 C3206 0.949 . S
C3201 H3196 0.950 . S
C3201 C3203 1.327 . S
C3201 C3207 1.429 . S
C3202 C3194 1.574 . S
C3202 H3197 0.949 . S
C3202 C3208 1.368 . S
C3203 C3187 1.349 . S
C3203 H3195 0.950 . S
C3203 C3201 1.327 . S
C3204 C3192 1.349 . S
C3204 H3198 0.950 . S
C3204 C3205 1.327 . S
C3205 H3199 0.950 . S
C3205 C3204 1.327 . S
C3205 C3209 1.429 . S
C3206 C3189 1.574 . S
C3206 H3200 0.949 . S
C3206 C3210 1.368 . S
C3207 C3188 1.429 . S
C3207 C3201 1.429 . S
C3207 C3208 1.523 . S
C3208 C3189 1.368 . S
C3208 C3202 1.368 . S
C3208 C3207 1.523 . S
C3209 C3193 1.429 . S
C3209 C3205 1.429 . S
C3209 C3210 1.523 . S
C3210 C3194 1.368 . S
C3210 C3206 1.368 . S
C3210 C3209 1.523 . S
H3211 C3186 0.950 . S
H3212 C3188 0.950 . S
H3213 C3189 0.949 . S
H3214 C3191 0.950 . S
H3215 C3193 0.950 . S
C3216 C3217 1.349 . S
C3216 C3218 1.327 . S
C3216 H3241 0.950 . S
C3217 C3216 1.349 . S
C3217 C3233 1.349 . S
C3218 C3216 1.327 . S
C3218 C3237 1.429 . S
C3218 H3242 0.950 . S
C3219 C3236 1.574 . S
C3219 C3238 1.368 . S
C3219 H3243 0.949 . S
H3220 C3224 0.949 . S
C3221 C3222 1.349 . S
C3221 C3223 1.327 . S
C3221 H3244 0.950 . S
C3222 C3221 1.349 . S
C3222 C3234 1.349 . S
C3223 C3221 1.327 . S
C3223 C3239 1.429 . S
C3223 H3245 0.950 . S
C3224 H3220 0.949 . S
C3224 C3232 1.574 . S
C3224 C3240 1.368 . S
H3225 C3233 0.950 . S
H3226 C3231 0.950 . S
H3227 C3232 0.949 . S
H3228 C3234 0.950 . S
H3229 C3235 0.950 . S
H3230 C3236 0.949 . S
C3231 H3226 0.950 . S
C3231 C3233 1.327 . S
C3231 C3237 1.429 . S
C3232 C3224 1.574 . S
C3232 H3227 0.949 . S
C3232 C3238 1.368 . S
C3233 C3217 1.349 . S
C3233 H3225 0.950 . S
C3233 C3231 1.327 . S
C3234 C3222 1.349 . S
C3234 H3228 0.950 . S
C3234 C3235 1.327 . S
C3235 H3229 0.950 . S
C3235 C3234 1.327 . S
C3235 C3239 1.429 . S
C3236 C3219 1.574 . S
C3236 H3230 0.949 . S
C3236 C3240 1.368 . S
C3237 C3218 1.429 . S
C3237 C3231 1.429 . S
C3237 C3238 1.523 . S
C3238 C3219 1.368 . S
C3238 C3232 1.368 . S
C3238 C3237 1.523 . S
C3239 C3223 1.429 . S
C3239 C3235 1.429 . S
C3239 C3240 1.523 . S
C3240 C3224 1.368 . S
C3240 C3236 1.368 . S
C3240 C3239 1.523 . S
H3241 C3216 0.950 . S
H3242 C3218 0.950 . S
H3243 C3219 0.949 . S
H3244 C3221 0.950 . S
H3245 C3223 0.950 . S
C3246 C3247 1.349 . S
C3246 C3248 1.327 . S
C3246 H3271 0.950 . S
C3247 C3246 1.349 . S
C3247 C3263 1.349 . S
C3248 C3246 1.327 . S
C3248 C3267 1.429 . S
C3248 H3272 0.950 . S
C3249 C3266 1.574 . S
C3249 C3268 1.368 . S
C3249 H3273 0.949 . S
H3250 C3254 0.949 . S
C3251 C3252 1.349 . S
C3251 C3253 1.327 . S
C3251 H3274 0.950 . S
C3252 C3251 1.349 . S
C3252 C3264 1.349 . S
C3253 C3251 1.327 . S
C3253 C3269 1.429 . S
C3253 H3275 0.950 . S
C3254 H3250 0.949 . S
C3254 C3262 1.574 . S
C3254 C3270 1.368 . S
H3255 C3263 0.950 . S
H3256 C3261 0.950 . S
H3257 C3262 0.949 . S
H3258 C3264 0.950 . S
H3259 C3265 0.950 . S
H3260 C3266 0.949 . S
C3261 H3256 0.950 . S
C3261 C3263 1.327 . S
C3261 C3267 1.429 . S
C3262 C3254 1.574 . S
C3262 H3257 0.949 . S
C3262 C3268 1.368 . S
C3263 C3247 1.349 . S
C3263 H3255 0.950 . S
C3263 C3261 1.327 . S
C3264 C3252 1.349 . S
C3264 H3258 0.950 . S
C3264 C3265 1.327 . S
C3265 H3259 0.950 . S
C3265 C3264 1.327 . S
C3265 C3269 1.429 . S
C3266 C3249 1.574 . S
C3266 H3260 0.949 . S
C3266 C3270 1.368 . S
C3267 C3248 1.429 . S
C3267 C3261 1.429 . S
C3267 C3268 1.523 . S
C3268 C3249 1.368 . S
C3268 C3262 1.368 . S
C3268 C3267 1.523 . S
C3269 C3253 1.429 . S
C3269 C3265 1.429 . S
C3269 C3270 1.523 . S
C3270 C3254 1.368 . S
C3270 C3266 1.368 . S
C3270 C3269 1.523 . S
H3271 C3246 0.950 . S
H3272 C3248 0.950 . S
H3273 C3249 0.949 . S
H3274 C3251 0.950 . S
H3275 C3253 0.950 . S
C3276 C3277 1.349 . S
C3276 C3278 1.327 . S
C3276 H3301 0.950 . S
C3277 C3276 1.349 . S
C3277 C3293 1.349 . S
C3278 C3276 1.327 . S
C3278 C3297 1.429 . S
C3278 H3302 0.950 . S
C3279 C3296 1.574 . S
C3279 C3298 1.368 . S
C3279 H3303 0.949 . S
H3280 C3284 0.949 . S
C3281 C3282 1.349 . S
C3281 C3283 1.327 . S
C3281 H3304 0.950 . S
C3282 C3281 1.349 . S
C3282 C3294 1.349 . S
C3283 C3281 1.327 . S
C3283 C3299 1.429 . S
C3283 H3305 0.950 . S
C3284 H3280 0.949 . S
C3284 C3292 1.574 . S
C3284 C3300 1.368 . S
H3285 C3293 0.950 . S
H3286 C3291 0.950 . S
H3287 C3292 0.949 . S
H3288 C3294 0.950 . S
H3289 C3295 0.950 . S
H3290 C3296 0.949 . S
C3291 H3286 0.950 . S
C3291 C3293 1.327 . S
C3291 C3297 1.429 . S
C3292 C3284 1.574 . S
C3292 H3287 0.949 . S
C3292 C3298 1.368 . S
C3293 C3277 1.349 . S
C3293 H3285 0.950 . S
C3293 C3291 1.327 . S
C3294 C3282 1.349 . S
C3294 H3288 0.950 . S
C3294 C3295 1.327 . S
C3295 H3289 0.950 . S
C3295 C3294 1.327 . S
C3295 C3299 1.429 . S
C3296 C3279 1.574 . S
C3296 H3290 0.949 . S
C3296 C3300 1.368 . S
C3297 C3278 1.429 . S
C3297 C3291 1.429 . S
C3297 C3298 1.523 . S
C3298 C3279 1.368 . S
C3298 C3292 1.368 . S
C3298 C3297 1.523 . S
C3299 C3283 1.429 . S
C3299 C3295 1.429 . S
C3299 C3300 1.523 . S
C3300 C3284 1.368 . S
C3300 C3296 1.368 . S
C3300 C3299 1.523 . S
H3301 C3276 0.950 . S
H3302 C3278 0.950 . S
H3303 C3279 0.949 . S
H3304 C3281 0.950 . S
H3305 C3283 0.950 . S
C3306 C3307 1.349 . S
C3306 C3308 1.327 . S
C3306 H3331 0.950 . S
C3307 C3306 1.349 . S
C3307 C3323 1.349 . S
C3308 C3306 1.327 . S
C3308 C3327 1.429 . S
C3308 H3332 0.950 . S
C3309 C3326 1.574 . S
C3309 C3328 1.368 . S
C3309 H3333 0.949 . S
H3310 C3314 0.949 . S
C3311 C3312 1.349 . S
C3311 C3313 1.327 . S
C3311 H3334 0.950 . S
C3312 C3311 1.349 . S
C3312 C3324 1.349 . S
C3313 C3311 1.327 . S
C3313 C3329 1.429 . S
C3313 H3335 0.950 . S
C3314 H3310 0.949 . S
C3314 C3322 1.574 . S
C3314 C3330 1.368 . S
H3315 C3323 0.950 . S
H3316 C3321 0.950 . S
H3317 C3322 0.949 . S
H3318 C3324 0.950 . S
H3319 C3325 0.950 . S
H3320 C3326 0.949 . S
C3321 H3316 0.950 . S
C3321 C3323 1.327 . S
C3321 C3327 1.429 . S
C3322 C3314 1.574 . S
C3322 H3317 0.949 . S
C3322 C3328 1.368 . S
C3323 C3307 1.349 . S
C3323 H3315 0.950 . S
C3323 C3321 1.327 . S
C3324 C3312 1.349 . S
C3324 H3318 0.950 . S
C3324 C3325 1.327 . S
C3325 H3319 0.950 . S
C3325 C3324 1.327 . S
C3325 C3329 1.429 . S
C3326 C3309 1.574 . S
C3326 H3320 0.949 . S
C3326 C3330 1.368 . S
C3327 C3308 1.429 . S
C3327 C3321 1.429 . S
C3327 C3328 1.523 . S
C3328 C3309 1.368 . S
C3328 C3322 1.368 . S
C3328 C3327 1.523 . S
C3329 C3313 1.429 . S
C3329 C3325 1.429 . S
C3329 C3330 1.523 1_455 S
C3330 C3314 1.368 . S
C3330 C3326 1.368 . S
C3330 C3329 1.523 1_655 S
H3331 C3306 0.950 . S
H3332 C3308 0.950 . S
H3333 C3309 0.949 . S
H3334 C3311 0.950 . S
H3335 C3313 0.950 . S
C3336 C3337 1.349 . S
C3336 C3338 1.327 . S
C3336 H3361 0.950 . S
C3337 C3336 1.349 . S
C3337 C3353 1.349 . S
C3338 C3336 1.327 . S
C3338 C3357 1.429 . S
C3338 H3362 0.950 . S
C3339 C3356 1.574 . S
C3339 C3358 1.368 . S
C3339 H3363 0.949 . S
H3340 C3344 0.949 . S
C3341 C3342 1.349 . S
C3341 C3343 1.327 . S
C3341 H3364 0.950 . S
C3342 C3341 1.349 . S
C3342 C3354 1.349 . S
C3343 C3341 1.327 . S
C3343 C3359 1.429 . S
C3343 H3365 0.950 . S
C3344 H3340 0.949 . S
C3344 C3352 1.574 . S
C3344 C3360 1.368 . S
H3345 C3353 0.950 . S
H3346 C3351 0.950 . S
H3347 C3352 0.949 . S
H3348 C3354 0.950 . S
H3349 C3355 0.950 . S
H3350 C3356 0.949 . S
C3351 H3346 0.950 . S
C3351 C3353 1.327 . S
C3351 C3357 1.429 . S
C3352 C3344 1.574 . S
C3352 H3347 0.949 . S
C3352 C3358 1.368 . S
C3353 C3337 1.349 . S
C3353 H3345 0.950 . S
C3353 C3351 1.327 . S
C3354 C3342 1.349 . S
C3354 H3348 0.950 . S
C3354 C3355 1.327 . S
C3355 H3349 0.950 . S
C3355 C3354 1.327 . S
C3355 C3359 1.429 . S
C3356 C3339 1.574 . S
C3356 H3350 0.949 . S
C3356 C3360 1.368 . S
C3357 C3338 1.429 . S
C3357 C3351 1.429 . S
C3357 C3358 1.523 . S
C3358 C3339 1.368 . S
C3358 C3352 1.368 . S
C3358 C3357 1.523 . S
C3359 C3343 1.429 . S
C3359 C3355 1.429 . S
C3359 C3360 1.523 . S
C3360 C3344 1.368 . S
C3360 C3356 1.368 . S
C3360 C3359 1.523 . S
H3361 C3336 0.950 . S
H3362 C3338 0.950 . S
H3363 C3339 0.949 . S
H3364 C3341 0.950 . S
H3365 C3343 0.950 . S
C3366 C3367 1.349 . S
C3366 C3368 1.327 . S
C3366 H3391 0.950 . S
C3367 C3366 1.349 . S
C3367 C3383 1.349 . S
C3368 C3366 1.327 . S
C3368 C3387 1.429 . S
C3368 H3392 0.950 . S
C3369 C3386 1.574 . S
C3369 C3388 1.368 . S
C3369 H3393 0.949 . S
H3370 C3374 0.949 . S
C3371 C3372 1.349 . S
C3371 C3373 1.327 . S
C3371 H3394 0.950 . S
C3372 C3371 1.349 . S
C3372 C3384 1.349 . S
C3373 C3371 1.327 . S
C3373 C3389 1.429 . S
C3373 H3395 0.950 . S
C3374 H3370 0.949 . S
C3374 C3382 1.574 . S
C3374 C3390 1.368 . S
H3375 C3383 0.950 . S
H3376 C3381 0.950 . S
H3377 C3382 0.947 . S
H3378 C3384 0.950 . S
H3379 C3385 0.950 . S
H3380 C3386 0.949 . S
C3381 H3376 0.950 . S
C3381 C3383 1.327 . S
C3381 C3387 1.429 . S
C3382 C3374 1.574 . S
C3382 H3377 0.947 . S
C3382 C3388 1.368 . S
C3383 C3367 1.349 . S
C3383 H3375 0.950 . S
C3383 C3381 1.327 . S
C3384 C3372 1.349 . S
C3384 H3378 0.950 . S
C3384 C3385 1.327 . S
C3385 H3379 0.950 . S
C3385 C3384 1.327 . S
C3385 C3389 1.429 . S
C3386 C3369 1.574 . S
C3386 H3380 0.949 . S
C3386 C3390 1.368 . S
C3387 C3368 1.429 . S
C3387 C3381 1.429 . S
C3387 C3388 1.523 1_455 S
C3388 C3369 1.368 . S
C3388 C3382 1.368 . S
C3388 C3387 1.523 1_655 S
C3389 C3373 1.429 . S
C3389 C3385 1.429 . S
C3389 C3390 1.523 . S
C3390 C3374 1.368 . S
C3390 C3386 1.368 . S
C3390 C3389 1.523 . S
H3391 C3366 0.950 . S
H3392 C3368 0.950 . S
H3393 C3369 0.949 . S
H3394 C3371 0.950 . S
H3395 C3373 0.950 . S
C3396 C3397 1.349 . S
C3396 C3398 1.327 . S
C3396 H3421 0.950 . S
C3397 C3396 1.349 . S
C3397 C3413 1.349 . S
C3398 C3396 1.327 . S
C3398 C3417 1.429 . S
C3398 H3422 0.950 . S
C3399 C3416 1.574 . S
C3399 C3418 1.368 . S
C3399 H3423 0.949 . S
H3400 C3404 0.949 . S
C3401 C3402 1.349 . S
C3401 C3403 1.327 . S
C3401 H3424 0.950 . S
C3402 C3401 1.349 . S
C3402 C3414 1.349 . S
C3403 C3401 1.327 . S
C3403 C3419 1.429 . S
C3403 H3425 0.950 . S
C3404 H3400 0.949 . S
C3404 C3412 1.574 . S
C3404 C3420 1.368 . S
H3405 C3413 0.950 . S
H3406 C3411 0.950 . S
H3407 C3412 0.949 . S
H3408 C3414 0.950 . S
H3409 C3415 0.950 . S
H3410 C3416 0.949 . S
C3411 H3406 0.950 . S
C3411 C3413 1.327 . S
C3411 C3417 1.429 . S
C3412 C3404 1.574 . S
C3412 H3407 0.949 . S
C3412 C3418 1.368 . S
C3413 C3397 1.349 . S
C3413 H3405 0.950 . S
C3413 C3411 1.327 . S
C3414 C3402 1.349 . S
C3414 H3408 0.950 . S
C3414 C3415 1.327 . S
C3415 H3409 0.950 . S
C3415 C3414 1.327 . S
C3415 C3419 1.429 . S
C3416 C3399 1.574 . S
C3416 H3410 0.949 . S
C3416 C3420 1.368 . S
C3417 C3398 1.429 . S
C3417 C3411 1.429 . S
C3417 C3418 1.523 . S
C3418 C3399 1.368 . S
C3418 C3412 1.368 . S
C3418 C3417 1.523 . S
C3419 C3403 1.429 . S
C3419 C3415 1.429 . S
C3419 C3420 1.523 . S
C3420 C3404 1.368 . S
C3420 C3416 1.368 . S
C3420 C3419 1.523 . S
H3421 C3396 0.950 . S
H3422 C3398 0.950 . S
H3423 C3399 0.949 . S
H3424 C3401 0.950 . S
H3425 C3403 0.950 . S
C3426 C3427 1.349 . S
C3426 C3428 1.327 . S
C3426 H3451 0.950 . S
C3427 C3426 1.349 . S
C3427 C3443 1.349 . S
C3428 C3426 1.327 . S
C3428 C3447 1.429 . S
C3428 H3452 0.950 . S
C3429 C3446 1.574 . S
C3429 C3448 1.368 . S
C3429 H3453 0.949 . S
H3430 C3434 0.949 . S
C3431 C3432 1.349 . S
C3431 C3433 1.327 . S
C3431 H3454 0.950 . S
C3432 C3431 1.349 . S
C3432 C3444 1.349 . S
C3433 C3431 1.327 . S
C3433 C3449 1.429 . S
C3433 H3455 0.950 . S
C3434 H3430 0.949 . S
C3434 C3442 1.574 . S
C3434 C3450 1.368 . S
H3435 C3443 0.950 . S
H3436 C3441 0.950 . S
H3437 C3442 0.949 . S
H3438 C3444 0.950 . S
H3439 C3445 0.950 . S
H3440 C3446 0.949 . S
C3441 H3436 0.950 . S
C3441 C3443 1.327 . S
C3441 C3447 1.429 . S
C3442 C3434 1.574 . S
C3442 H3437 0.949 . S
C3442 C3448 1.368 . S
C3443 C3427 1.349 . S
C3443 H3435 0.950 . S
C3443 C3441 1.327 . S
C3444 C3432 1.349 . S
C3444 H3438 0.950 . S
C3444 C3445 1.327 . S
C3445 H3439 0.950 . S
C3445 C3444 1.327 . S
C3445 C3449 1.429 . S
C3446 C3429 1.574 . S
C3446 H3440 0.949 . S
C3446 C3450 1.368 . S
C3447 C3428 1.429 . S
C3447 C3441 1.429 . S
C3447 C3448 1.523 . S
C3448 C3429 1.368 . S
C3448 C3442 1.368 . S
C3448 C3447 1.523 . S
C3449 C3433 1.429 . S
C3449 C3445 1.429 . S
C3449 C3450 1.523 . S
C3450 C3434 1.368 . S
C3450 C3446 1.368 . S
C3450 C3449 1.523 . S
H3451 C3426 0.950 . S
H3452 C3428 0.950 . S
H3453 C3429 0.949 . S
H3454 C3431 0.950 . S
H3455 C3433 0.950 . S
C1057 C238 1.264 . S
C1062 C7 1.264 . S
C1087 C40 1.264 . S
C1092 C139 1.264 . S
C1117 C73 1.264 . S
C1122 C172 1.264 . S
C1147 C205 1.264 . S
C1152 C106 1.264 . S
C1177 C271 1.264 . S
C1182 C502 1.264 . S
C1207 C403 1.264 . S
C1212 C304 1.264 . S
C1237 C337 1.264 . S
C1242 C436 1.264 . S
C1267 C469 1.264 . S
C1272 C370 1.264 . S
C1297 C766 1.264 . S
C1302 C535 1.264 . S
C1327 C667 1.264 . S
C1332 C568 1.264 . S
C1357 C700 1.264 . S
C1362 C601 1.264 . S
C1387 C733 1.264 . S
C1392 C634 1.264 . S
C1417 C1030 1.264 . S
C1422 C799 1.264 . S
C1447 C832 1.264 . S
C1452 C931 1.264 . S
C1477 C964 1.264 . S
C1482 C865 1.264 . S
C1507 C997 1.264 . S
C1512 C898 1.264 . S
C1537 C18 0.443 . S
C1542 C249 0.443 . S
C1567 C51 0.443 . S
C1572 C150 0.443 . S
C1597 C84 0.443 . S
C1602 C183 0.443 . S
C1627 C117 0.443 . S
C1632 C216 0.443 . S
C1657 C513 0.443 . S
C1662 C282 0.443 . S
C1687 C315 0.443 . S
C1692 C414 0.443 . S
C1717 C447 0.443 . S
C1722 C348 0.443 . S
C1747 C381 0.443 . S
C1752 C480 0.443 . S
C1777 C546 0.443 . S
C1782 C777 0.443 . S
C1807 C678 0.443 . S
C1812 C579 0.443 . S
C1837 C711 0.443 . S
C1842 C612 0.443 . S
C1867 C645 0.443 . S
C1872 C744 0.443 . S
C1897 C810 0.443 . S
C1902 C1041 0.443 . S
C1927 C843 0.443 . S
C1932 C942 0.443 . S
C1957 C876 0.443 . S
C1962 C975 0.443 . S
C1987 C909 0.443 . S
C1992 C1008 0.443 . S
C2017 N211 1.544 . S
C2022 N13 1.544 . S
C2047 N46 1.544 . S
C2052 N244 1.544 . S
C2077 N145 1.544 . S
C2082 N79 1.544 . S
C2107 N178 1.544 . S
C2112 N112 1.544 . S
C2137 N475 1.544 . S
C2142 N277 1.544 . S
C2167 N508 1.544 . S
C2172 N310 1.544 . S
C2197 N409 1.544 . S
C2202 N343 1.544 . S
C2227 N442 1.544 . S
C2232 N376 1.544 . S
C2257 N541 1.544 . S
C2262 N739 1.544 . S
C2287 N772 1.544 . S
C2292 N574 1.544 . S
C2317 N673 1.544 . S
C2322 N607 1.544 . S
C2347 N706 1.544 . S
C2352 N640 1.544 . S
C2377 N1003 1.544 . S
C2382 N805 1.544 . S
C2407 N838 1.544 . S
C2412 N1036 1.544 . S
C2437 N937 1.544 . S
C2442 N871 1.544 . S
C2467 N970 1.544 . S
C2472 N904 1.544 . S
C2497 C21 1.649 . S
C2502 N893 1.563 . S
C2527 N266 1.563 . S
C2532 C54 1.649 . S
C2557 N827 1.563 . S
C2562 C87 1.649 . S
C2587 C120 1.649 . S
C2592 N332 1.563 . S
C2617 C153 1.649 . S
C2622 N959 1.563 . S
C2647 C186 1.649 . S
C2652 N464 1.563 . S
C2677 C219 1.649 . S
C2682 N1025 1.563 . S
C2707 N398 1.563 . S
C2712 C252 1.649 . S
C2737 N629 1.563 . S
C2742 C285 1.649 . S
C2767 C318 1.649 . S
C2772 N2 1.563 . S
C2797 C351 1.649 . S
C2802 N563 1.563 . S
C2827 N68 1.563 . S
C2832 C384 1.649 . S
C2857 N695 1.563 . S
C2862 C417 1.649 . S
C2887 C450 1.649 . S
C2892 N200 1.563 . S
C2917 C483 1.649 . S
C2922 N761 1.563 . S
C2947 N134 1.563 . S
C2952 C516 1.649 . S
C2977 N365 1.563 . S
C2982 C549 1.649 . S
C3007 N794 1.563 . S
C3012 C582 1.649 . S
C3037 C615 1.649 . S
C3042 N299 1.563 . S
C3067 C648 1.649 . S
C3072 N860 1.563 . S
C3097 N431 1.563 . S
C3102 C681 1.649 . S
C3127 C714 1.649 . S
C3132 N992 1.563 . S
C3157 N497 1.563 . S
C3162 C747 1.649 . S
C3187 N926 1.563 . S
C3192 C780 1.649 . S
C3217 N101 1.563 . S
C3222 C813 1.649 . S
C3247 C846 1.649 . S
C3252 N530 1.563 . S
C3277 N35 1.563 . S
C3282 C879 1.649 . S
C3307 N596 1.563 . S
C3312 C912 1.649 . S
C3337 N167 1.563 . S
C3342 C945 1.649 . S
C3367 C978 1.649 . S
C3372 N728 1.563 . S
C3397 C1011 1.649 . S
C3402 N233 1.563 . S
C3427 C1044 1.649 . S
C3432 N662 1.563 . S
