# Generated by pormake.
# Topology lcs, (4)-cn, num edge types: 1
# Building blocks:
#     Node 0, Type 0, BuildingBlock: TATPOV_clean_sbu_0, # of connection points: 4
#     Node 1, Type 0, BuildingBlock: TATPOV_clean_sbu_0, # of connection points: 4
#     Node 2, Type 0, BuildingBlock: TATPOV_clean_sbu_0, # of connection points: 4
#     Node 3, Type 0, BuildingBlock: TATPOV_clean_sbu_0, # of connection points: 4
#     Node 4, Type 0, BuildingBlock: TATPOV_clean_sbu_0, # of connection points: 4
#     Node 5, Type 0, BuildingBlock: TATPOV_clean_sbu_0, # of connection points: 4
#     Node 6, Type 0, BuildingBlock: TATPOV_clean_sbu_0, # of connection points: 4
#     Node 7, Type 0, BuildingBlock: TATPOV_clean_sbu_0, # of connection points: 4
#     Node 8, Type 0, BuildingBlock: TATPOV_clean_sbu_0, # of connection points: 4
#     Node 9, Type 0, BuildingBlock: TATPOV_clean_sbu_0, # of connection points: 4
#     Node 10, Type 0, BuildingBlock: TATPOV_clean_sbu_0, # of connection points: 4
#     Node 11, Type 0, BuildingBlock: TATPOV_clean_sbu_0, # of connection points: 4
#     Node 12, Type 0, BuildingBlock: TATPOV_clean_sbu_0, # of connection points: 4
#     Node 13, Type 0, BuildingBlock: TATPOV_clean_sbu_0, # of connection points: 4
#     Node 14, Type 0, BuildingBlock: TATPOV_clean_sbu_0, # of connection points: 4
#     Node 15, Type 0, BuildingBlock: TATPOV_clean_sbu_0, # of connection points: 4
#     Node 16, Type 0, BuildingBlock: TATPOV_clean_sbu_0, # of connection points: 4
#     Node 17, Type 0, BuildingBlock: TATPOV_clean_sbu_0, # of connection points: 4
#     Node 18, Type 0, BuildingBlock: TATPOV_clean_sbu_0, # of connection points: 4
#     Node 19, Type 0, BuildingBlock: TATPOV_clean_sbu_0, # of connection points: 4
#     Node 20, Type 0, BuildingBlock: TATPOV_clean_sbu_0, # of connection points: 4
#     Node 21, Type 0, BuildingBlock: TATPOV_clean_sbu_0, # of connection points: 4
#     Node 22, Type 0, BuildingBlock: TATPOV_clean_sbu_0, # of connection points: 4
#     Node 23, Type 0, BuildingBlock: TATPOV_clean_sbu_0, # of connection points: 4
#     Edge 24, Type (0, 0), BuildingBlock: OJICUG_clean_linker_0, # of connection points: 2
#     Edge 25, Type (0, 0), BuildingBlock: OJICUG_clean_linker_0, # of connection points: 2
#     Edge 26, Type (0, 0), BuildingBlock: OJICUG_clean_linker_0, # of connection points: 2
#     Edge 27, Type (0, 0), BuildingBlock: OJICUG_clean_linker_0, # of connection points: 2
#     Edge 28, Type (0, 0), BuildingBlock: OJICUG_clean_linker_0, # of connection points: 2
#     Edge 29, Type (0, 0), BuildingBlock: OJICUG_clean_linker_0, # of connection points: 2
#     Edge 30, Type (0, 0), BuildingBlock: OJICUG_clean_linker_0, # of connection points: 2
#     Edge 31, Type (0, 0), BuildingBlock: OJICUG_clean_linker_0, # of connection points: 2
#     Edge 32, Type (0, 0), BuildingBlock: OJICUG_clean_linker_0, # of connection points: 2
#     Edge 33, Type (0, 0), BuildingBlock: OJICUG_clean_linker_0, # of connection points: 2
#     Edge 34, Type (0, 0), BuildingBlock: OJICUG_clean_linker_0, # of connection points: 2
#     Edge 35, Type (0, 0), BuildingBlock: OJICUG_clean_linker_0, # of connection points: 2
#     Edge 36, Type (0, 0), BuildingBlock: OJICUG_clean_linker_0, # of connection points: 2
#     Edge 37, Type (0, 0), BuildingBlock: OJICUG_clean_linker_0, # of connection points: 2
#     Edge 38, Type (0, 0), BuildingBlock: OJICUG_clean_linker_0, # of connection points: 2
#     Edge 39, Type (0, 0), BuildingBlock: OJICUG_clean_linker_0, # of connection points: 2
#     Edge 40, Type (0, 0), BuildingBlock: OJICUG_clean_linker_0, # of connection points: 2
#     Edge 41, Type (0, 0), BuildingBlock: OJICUG_clean_linker_0, # of connection points: 2
#     Edge 42, Type (0, 0), BuildingBlock: OJICUG_clean_linker_0, # of connection points: 2
#     Edge 43, Type (0, 0), BuildingBlock: OJICUG_clean_linker_0, # of connection points: 2
#     Edge 44, Type (0, 0), BuildingBlock: OJICUG_clean_linker_0, # of connection points: 2
#     Edge 45, Type (0, 0), BuildingBlock: OJICUG_clean_linker_0, # of connection points: 2
#     Edge 46, Type (0, 0), BuildingBlock: OJICUG_clean_linker_0, # of connection points: 2
#     Edge 47, Type (0, 0), BuildingBlock: OJICUG_clean_linker_0, # of connection points: 2
#     Edge 48, Type (0, 0), BuildingBlock: OJICUG_clean_linker_0, # of connection points: 2
#     Edge 49, Type (0, 0), BuildingBlock: OJICUG_clean_linker_0, # of connection points: 2
#     Edge 50, Type (0, 0), BuildingBlock: OJICUG_clean_linker_0, # of connection points: 2
#     Edge 51, Type (0, 0), BuildingBlock: OJICUG_clean_linker_0, # of connection points: 2
#     Edge 52, Type (0, 0), BuildingBlock: OJICUG_clean_linker_0, # of connection points: 2
#     Edge 53, Type (0, 0), BuildingBlock: OJICUG_clean_linker_0, # of connection points: 2
#     Edge 54, Type (0, 0), BuildingBlock: OJICUG_clean_linker_0, # of connection points: 2
#     Edge 55, Type (0, 0), BuildingBlock: OJICUG_clean_linker_0, # of connection points: 2
#     Edge 56, Type (0, 0), BuildingBlock: OJICUG_clean_linker_0, # of connection points: 2
#     Edge 57, Type (0, 0), BuildingBlock: OJICUG_clean_linker_0, # of connection points: 2
#     Edge 58, Type (0, 0), BuildingBlock: OJICUG_clean_linker_0, # of connection points: 2
#     Edge 59, Type (0, 0), BuildingBlock: OJICUG_clean_linker_0, # of connection points: 2
#     Edge 60, Type (0, 0), BuildingBlock: OJICUG_clean_linker_0, # of connection points: 2
#     Edge 61, Type (0, 0), BuildingBlock: OJICUG_clean_linker_0, # of connection points: 2
#     Edge 62, Type (0, 0), BuildingBlock: OJICUG_clean_linker_0, # of connection points: 2
#     Edge 63, Type (0, 0), BuildingBlock: OJICUG_clean_linker_0, # of connection points: 2
#     Edge 64, Type (0, 0), BuildingBlock: OJICUG_clean_linker_0, # of connection points: 2
#     Edge 65, Type (0, 0), BuildingBlock: OJICUG_clean_linker_0, # of connection points: 2
#     Edge 66, Type (0, 0), BuildingBlock: OJICUG_clean_linker_0, # of connection points: 2
#     Edge 67, Type (0, 0), BuildingBlock: OJICUG_clean_linker_0, # of connection points: 2
#     Edge 68, Type (0, 0), BuildingBlock: OJICUG_clean_linker_0, # of connection points: 2
#     Edge 69, Type (0, 0), BuildingBlock: OJICUG_clean_linker_0, # of connection points: 2
#     Edge 70, Type (0, 0), BuildingBlock: OJICUG_clean_linker_0, # of connection points: 2
#     Edge 71, Type (0, 0), BuildingBlock: OJICUG_clean_linker_0, # of connection points: 2
# Relax obj value: 0.083
# Max RMSD: 0.146
# Mean RMSD: 0.143
data_MOF--net-lcs--node1-TATPOV_clean_sbu_0--edge1-OJICUG_clean_linker_0
_symmetry_space_group_name_H-M    P1
_symmetry_Int_Tables_number       1
_symmetry_cell_setting            triclinic
loop_
_symmetry_equiv_pos_as_xyz
'x, y, z'
_cell_length_a     36.1305
_cell_length_b     35.777909
_cell_length_c     35.588047
_cell_angle_alpha  89.357954
_cell_angle_beta   89.253767
_cell_angle_gamma 88.01996
loop_
_atom_site_label
_atom_site_type_symbol
_atom_site_fract_x
_atom_site_fract_y
_atom_site_fract_z
_atom_type_partial_charge
Zn0 Zn 0.98881 0.15221 0.4587 0.0
Zn1 Zn 0.00211 0.21784 0.42501 0.0
O2 O 0.95693 0.22808 0.45995 0.0
O3 O 0.94651 0.17535 0.48997 0.0
O4 O 0.01155 0.26947 0.40472 0.0
O5 O 0.04145 0.1472 0.47657 0.0
O6 O 0.05301 0.19936 0.44598 0.0
C7 C 0.93765 0.2093 0.48319 0.0
C8 C 0.9773 0.15448 0.37761 0.0
O9 O 0.98608 0.1885 0.37996 0.0
O10 O 0.97733 0.13352 0.40658 0.0
C11 C 0.02692 0.27734 0.37339 0.0
O12 O 0.0388 0.25016 0.35133 0.0
C13 C 0.06428 0.17116 0.4655 0.0
Zn14 Zn 0.00892 0.85544 0.54638 0.0
Zn15 Zn -0.0065 0.78871 0.57773 0.0
O16 O 0.94359 0.80829 0.55518 0.0
O17 O 0.95823 0.85955 0.52422 0.0
O18 O 0.98368 0.73642 0.59675 0.0
O19 O 0.05175 0.83279 0.51646 0.0
O20 O 0.03828 0.77867 0.54233 0.0
C21 C 0.9345 0.83601 0.53394 0.0
C22 C 0.01785 0.85098 0.6276 0.0
O23 O 0.00957 0.81698 0.62366 0.0
O24 O 0.01782 0.87312 0.59951 0.0
C25 C 0.97152 0.72754 0.62924 0.0
O26 O 0.96291 0.75398 0.65347 0.0
C27 C 0.05865 0.7981 0.52071 0.0
Zn28 Zn 0.48843 0.653 0.9668 0.0
Zn29 Zn 0.50499 0.71712 0.93175 0.0
O30 O 0.4597 0.7317 0.96595 0.0
O31 O 0.4458 0.67899 0.99452 0.0
O32 O 0.51896 0.76557 0.90619 0.0
O33 O 0.53923 0.64788 0.98912 0.0
O34 O 0.55444 0.6969 0.95502 0.0
C35 C 0.43885 0.71342 0.98826 0.0
C36 C 0.47915 0.65229 0.88607 0.0
O37 O 0.48806 0.68626 0.88828 0.0
O38 O 0.47885 0.63159 0.91522 0.0
C39 C 0.49395 0.78817 0.89382 0.0
O40 O 0.459 0.77995 0.89836 0.0
C41 C 0.56344 0.67006 0.97739 0.0
Zn42 Zn 0.50695 0.35423 0.04204 0.0
Zn43 Zn 0.49113 0.28823 0.07524 0.0
O44 O 0.44147 0.3067 0.05157 0.0
O45 O 0.45635 0.35724 0.0195 0.0
O46 O 0.48162 0.23658 0.09605 0.0
O47 O 0.54993 0.33046 0.01313 0.0
O48 O 0.53604 0.27714 0.04044 0.0
C49 C 0.4326 0.3338 0.02947 0.0
C50 C 0.51495 0.35217 0.1234 0.0
O51 O 0.50657 0.3181 0.12028 0.0
O52 O 0.51543 0.37351 0.09471 0.0
C53 C 0.47063 0.22846 0.12918 0.0
O54 O 0.46276 0.25544 0.15302 0.0
C55 C 0.55662 0.29585 0.01838 0.0
Zn56 Zn 0.89706 0.73707 0.21289 0.0
Zn57 Zn 0.96175 0.75418 0.17874 0.0
O58 O 0.94177 0.80461 0.20086 0.0
O59 O 0.89241 0.78898 0.23378 0.0
O60 O 0.01292 0.76454 0.15822 0.0
O61 O 0.92164 0.69503 0.243 0.0
O62 O 0.97363 0.70996 0.21461 0.0
C63 C 0.91468 0.81347 0.22277 0.0
C64 C 0.89954 0.72678 0.13149 0.0
O65 O 0.93298 0.73641 0.13401 0.0
O66 O 0.8786 0.72639 0.16038 0.0
C67 C 0.02147 0.77518 0.12509 0.0
O68 O -0.00483 0.78218 0.10059 0.0
C69 C 0.956 0.68913 0.2374 0.0
Zn70 Zn 0.59618 0.76116 0.29527 0.0
Zn71 Zn 0.53261 0.74721 0.3324 0.0
O72 O 0.51847 0.79099 0.29636 0.0
O73 O 0.5697 0.80208 0.26462 0.0
O74 O 0.48467 0.73555 0.35898 0.0
O75 O 0.60126 0.70754 0.27871 0.0
O76 O 0.55076 0.69587 0.31134 0.0
C77 C 0.53597 0.81018 0.27197 0.0
C78 C 0.59764 0.77564 0.37522 0.0
O79 O 0.56412 0.76598 0.37442 0.0
O80 O 0.61746 0.77497 0.34556 0.0
C81 C 0.46267 0.76185 0.36986 0.0
O82 O 0.47144 0.7967 0.36351 0.0
C83 C 0.5781 0.68445 0.29099 0.0
Zn84 Zn 0.39638 0.24014 0.71174 0.0
Zn85 Zn 0.46124 0.25511 0.67705 0.0
O86 O 0.44314 0.30604 0.69948 0.0
O87 O 0.39351 0.29199 0.73275 0.0
O88 O 0.51231 0.26408 0.65557 0.0
O89 O 0.42015 0.19751 0.74156 0.0
O90 O 0.47252 0.21059 0.71285 0.0
C91 C 0.41652 0.31571 0.72164 0.0
C92 C 0.39738 0.22981 0.63054 0.0
O93 O 0.43117 0.23837 0.63279 0.0
O94 O 0.37671 0.23004 0.65963 0.0
C95 C 0.52044 0.27501 0.62242 0.0
O96 O 0.49379 0.2832 0.59864 0.0
C97 C 0.45431 0.19047 0.73581 0.0
Zn98 Zn 0.0912 0.25991 0.79313 0.0
Zn99 Zn 0.02801 0.24605 0.83027 0.0
O100 O 0.01347 0.28937 0.7936 0.0
O101 O 0.06478 0.30024 0.76189 0.0
O102 O 0.98019 0.23344 0.85675 0.0
O103 O 0.09736 0.2064 0.77689 0.0
O104 O 0.04728 0.19459 0.8101 0.0
C105 C 0.03101 0.30831 0.769 0.0
C106 C 0.09252 0.27572 0.87279 0.0
O107 O 0.059 0.26603 0.8722 0.0
O108 O 0.11236 0.27445 0.84316 0.0
C109 C 0.95708 0.25902 0.86702 0.0
O110 O 0.96448 0.29414 0.86006 0.0
C111 C 0.07467 0.18317 0.78979 0.0
Zn112 Zn 0.44454 -0.00404 0.15038 0.0
Zn113 Zn 0.41253 0.01287 0.2169 0.0
O114 O 0.44822 0.96784 0.22898 0.0
O115 O 0.47538 0.95413 0.17489 0.0
O116 O 0.38888 0.02618 0.26697 0.0
O117 O 0.4623 0.0483 0.14436 0.0
O118 O 0.43336 0.06297 0.19723 0.0
C119 C 0.47053 0.94719 0.20956 0.0
C120 C 0.3656 0.98538 0.15348 0.0
O121 O 0.36883 -0.00465 0.18742 0.0
O122 O 0.39352 0.98445 0.13154 0.0
C123 C 0.37749 0.00024 0.28843 0.0
O124 O 0.38193 0.96531 0.2778 0.0
C125 C 0.45224 0.07259 0.16835 0.0
Zn126 Zn 0.34878 0.04695 0.51512 0.0
Zn127 Zn 0.28305 0.08105 0.49863 0.0
O128 O 0.30222 0.05955 0.44754 0.0
O129 O 0.35244 0.02636 0.46303 0.0
O130 O 0.231 0.10157 0.48916 0.0
O131 O 0.32624 0.01664 0.55721 0.0
O132 O 0.2731 0.04468 0.54262 0.0
C133 C 0.32946 0.03761 0.43852 0.0
C134 C 0.34526 0.12769 0.52614 0.0
O135 O 0.31153 0.12532 0.51685 0.0
O136 O 0.36676 0.09891 0.52597 0.0
C137 C 0.22105 0.13497 0.48035 0.0
O138 O 0.24633 0.15997 0.47446 0.0
C139 C 0.29187 0.02188 0.56324 0.0
Zn140 Zn 0.19991 0.89622 0.74255 0.0
Zn141 Zn 0.16643 0.96298 0.75909 0.0
O142 O 0.18832 0.94442 0.80996 0.0
O143 O 0.22061 0.89326 0.79459 0.0
O144 O 0.14589 0.01545 0.76823 0.0
O145 O 0.22955 0.91894 0.70004 0.0
O146 O 0.20199 0.97273 0.71468 0.0
C147 C 0.20998 0.91691 0.81896 0.0
C148 C 0.11985 0.89995 0.73253 0.0
O149 O 0.12249 0.93399 0.74181 0.0
O150 O 0.14827 0.87811 0.73224 0.0
C151 C 0.11296 0.02511 0.77801 0.0
O152 O 0.08885 -0.00072 0.78532 0.0
C153 C 0.22435 0.95362 0.6939 0.0
Zn154 Zn 0.25191 0.80329 0.10722 0.0
Zn155 Zn 0.23589 0.83595 0.04095 0.0
O156 O 0.28096 0.8005 0.02879 0.0
O157 O 0.29378 0.77258 0.08274 0.0
O158 O 0.22286 0.8599 0.991 0.0
O159 O 0.2001 0.78508 0.11281 0.0
O160 O 0.18619 0.81444 0.05995 0.0
C161 C 0.30125 0.77794 0.04825 0.0
C162 C 0.26244 0.88299 0.10497 0.0
O163 O 0.2528 0.87995 0.07093 0.0
O164 O 0.26313 0.85466 0.12668 0.0
C165 C 0.24848 0.87096 0.96919 0.0
O166 O 0.28314 0.8662 0.97943 0.0
C167 C 0.17634 0.79522 0.08859 0.0
Zn168 Zn 0.15087 0.45814 0.98999 0.0
Zn169 Zn 0.21484 0.41951 0.00389 0.0
O170 O 0.22825 0.45579 0.96069 0.0
O171 O 0.17683 0.48856 0.94941 0.0
O172 O 0.26309 0.39214 0.01558 0.0
O173 O 0.14699 0.47401 0.04415 0.0
O174 O 0.19767 0.44015 0.05554 0.0
C175 C 0.21051 0.48072 0.94159 0.0
C176 C 0.14928 0.37869 0.97465 0.0
O177 O 0.183 0.37862 0.98443 0.0
O178 O 0.12948 0.40862 0.97553 0.0
C179 C 0.28484 0.38136 0.98921 0.0
O180 O 0.27548 0.38815 0.95418 0.0
C181 C 0.17062 0.46094 0.06722 0.0
Zn182 Zn 0.73799 0.20115 0.89528 0.0
Zn183 Zn 0.75588 0.17114 0.96299 0.0
O184 O 0.80477 0.19431 0.94367 0.0
O185 O 0.7879 0.2237 0.89147 0.0
O186 O 0.76625 0.15225 0.01583 0.0
O187 O 0.69481 0.23084 0.91776 0.0
O188 O 0.71048 0.20633 0.97255 0.0
C189 C 0.81239 0.2152 0.91547 0.0
C190 C 0.7316 0.12052 0.90066 0.0
O191 O 0.74059 0.12515 0.9347 0.0
O192 O 0.73026 0.14808 0.87794 0.0
C193 C 0.77657 0.11915 0.02535 0.0
O194 O 0.78353 0.09412 -0.00076 0.0
C195 C 0.689 0.22732 0.95274 0.0
Zn196 Zn 0.05885 0.50938 0.35849 0.0
Zn197 Zn 0.0889 0.49418 0.2902 0.0
O198 O 0.06976 0.443 0.30874 0.0
O199 O 0.04254 0.45648 0.36287 0.0
O200 O 0.10683 0.4857 0.23691 0.0
O201 O 0.02526 0.55063 0.3369 0.0
O202 O 0.05147 0.53796 0.28215 0.0
C203 C 0.05172 0.43281 0.33798 0.0
C204 C 0.13796 0.52157 0.3518 0.0
O205 O 0.13398 0.51186 0.31784 0.0
O206 O 0.11065 0.52172 0.37455 0.0
C207 C 0.13917 0.47466 0.22652 0.0
O208 O 0.1641 0.46589 0.25197 0.0
C209 C 0.02891 0.55766 0.30213 0.0
Zn210 Zn 0.65111 0.95722 0.4949 0.0
Zn211 Zn 0.71542 0.92045 0.50984 0.0
O212 O 0.72833 0.95707 0.46653 0.0
O213 O 0.67635 0.98861 0.45466 0.0
O214 O 0.76434 0.89447 0.52208 0.0
O215 O 0.6451 0.97282 0.54892 0.0
O216 O 0.6962 0.9401 0.5615 0.0
C217 C 0.71022 0.98149 0.44711 0.0
C218 C 0.65189 0.87777 0.47919 0.0
O219 O 0.6854 0.87852 0.48956 0.0
O220 O 0.63134 0.90721 0.47989 0.0
C221 C 0.78614 0.88394 0.49564 0.0
O222 O 0.77639 0.89025 0.46063 0.0
C223 C 0.66824 0.96 0.57261 0.0
Zn224 Zn 0.79724 0.10199 0.26084 0.0
Zn225 Zn 0.83238 0.0363 0.24604 0.0
O226 O 0.79676 0.02463 0.2905 0.0
O227 O 0.76681 0.07788 0.3024 0.0
O228 O 0.8572 0.98623 0.23393 0.0
O229 O 0.78014 0.10712 0.20741 0.0
O230 O 0.81172 0.05502 0.19465 0.0
C231 C 0.77333 0.04367 0.31023 0.0
C232 C 0.87632 0.10074 0.274 0.0
O233 O 0.87486 0.06666 0.26446 0.0
O234 O 0.84737 0.12178 0.27377 0.0
C235 C 0.86692 0.96386 0.26031 0.0
O236 O 0.86062 0.97368 0.29533 0.0
C237 C 0.79189 0.08323 0.18374 0.0
Zn238 Zn 0.24229 0.70926 0.39664 0.0
Zn239 Zn 0.25973 0.67735 0.46364 0.0
O240 O 0.30854 0.70087 0.44512 0.0
O241 O 0.29223 0.73198 0.39374 0.0
O242 O 0.27021 0.65778 0.51614 0.0
O243 O 0.19867 0.73808 0.41944 0.0
O244 O 0.21379 0.71174 0.47355 0.0
C245 C 0.31653 0.72247 0.41762 0.0
C246 C 0.23676 0.62819 0.39989 0.0
O247 O 0.24543 0.63187 0.43416 0.0
O248 O 0.23513 0.65645 0.37805 0.0
C249 C 0.28191 0.62499 0.52522 0.0
O250 O 0.29 0.60062 0.49876 0.0
C251 C 0.19239 0.73323 0.45418 0.0
Zn252 Zn 0.30278 0.6047 0.76091 0.0
Zn253 Zn 0.3374 0.53891 0.74519 0.0
O254 O 0.3003 0.52634 0.78785 0.0
O255 O 0.27089 0.57968 0.80067 0.0
O256 O 0.36202 0.48898 0.73262 0.0
O257 O 0.28719 0.61132 0.70712 0.0
O258 O 0.31815 0.55902 0.69377 0.0
C259 C 0.2766 0.54514 0.80747 0.0
C260 C 0.38122 0.60159 0.77714 0.0
O261 O 0.37956 0.56792 0.76639 0.0
O262 O 0.35272 0.62324 0.77626 0.0
C263 C 0.37199 0.46682 0.75905 0.0
O264 O 0.36608 0.47694 0.79405 0.0
C265 C 0.2989 0.58772 0.68314 0.0
Zn266 Zn 0.54908 0.00951 0.86111 0.0
Zn267 Zn 0.57914 0.99074 0.79374 0.0
O268 O 0.55697 0.94117 0.81387 0.0
O269 O 0.52732 0.95887 0.86564 0.0
O270 O 0.59798 0.9802 0.74085 0.0
O271 O 0.51928 0.05265 0.83832 0.0
O272 O 0.5438 0.0362 0.78377 0.0
C273 C 0.5363 0.93373 0.84219 0.0
C274 C 0.62888 0.01655 0.85574 0.0
O275 O 0.62449 0.00701 0.82179 0.0
O276 O 0.6015 0.01799 0.87839 0.0
C277 C 0.63113 0.9712 0.73119 0.0
O278 O 0.65623 0.96548 0.75719 0.0
C279 C 0.5228 0.05805 0.80327 0.0
Zn280 Zn 0.84807 0.54676 0.01083 0.0
Zn281 Zn 0.78376 0.5835 0.99401 0.0
O282 O 0.80266 0.56156 0.94301 0.0
O283 O 0.85186 0.52682 0.9585 0.0
O284 O 0.73457 0.60993 0.9822 0.0
O285 O 0.82267 0.51716 0.05165 0.0
O286 O 0.77023 0.5465 0.03669 0.0
C287 C 0.82928 0.53888 0.93396 0.0
C288 C 0.84813 0.62634 0.02431 0.0
O289 O 0.81449 0.6252 0.01436 0.0
O290 O 0.86887 0.59705 0.02348 0.0
C291 C 0.71322 0.61988 0.00928 0.0
O292 O 0.72385 0.6131 0.04393 0.0
C293 C 0.78827 0.52291 0.05714 0.0
Zn294 Zn 0.9425 0.49461 0.64558 0.0
Zn295 Zn 0.90926 0.51128 0.71164 0.0
O296 O 0.94446 0.46611 0.72432 0.0
O297 O 0.97271 0.45258 0.67075 0.0
O298 O 0.88526 0.52495 0.76142 0.0
O299 O 0.96046 0.54705 0.64001 0.0
O300 O 0.93074 0.56124 0.69257 0.0
C301 C 0.96707 0.44545 0.70527 0.0
C302 C 0.86349 0.48364 0.64738 0.0
O303 O 0.86606 0.4937 0.68138 0.0
O304 O 0.89178 0.48294 0.62592 0.0
C305 C 0.87419 0.49932 0.78344 0.0
O306 O 0.87876 0.46422 0.7734 0.0
C307 C 0.95011 0.57111 0.66413 0.0
Zn308 Zn 0.75094 0.29964 0.60161 0.0
Zn309 Zn 0.73486 0.33185 0.53492 0.0
O310 O 0.77939 0.29544 0.52342 0.0
O311 O 0.79228 0.26794 0.57758 0.0
O312 O 0.72197 0.35548 0.48462 0.0
O313 O 0.69896 0.28214 0.60753 0.0
O314 O 0.68494 0.31127 0.55455 0.0
C315 C 0.79951 0.27276 0.54297 0.0
C316 C 0.76218 0.37931 0.5983 0.0
O317 O 0.7524 0.37603 0.56432 0.0
O318 O 0.76273 0.35118 0.62028 0.0
C319 C 0.74756 0.36543 0.46217 0.0
O320 O 0.78228 0.35957 0.47181 0.0
C321 C 0.67511 0.29239 0.58344 0.0
Zn322 Zn 0.69683 0.39666 0.23646 0.0
Zn323 Zn 0.66484 0.46322 0.25445 0.0
O324 O 0.68723 0.44295 0.30468 0.0
O325 O 0.71885 0.39189 0.2878 0.0
O326 O 0.64565 0.51584 0.26522 0.0
O327 O 0.72575 0.41929 0.19339 0.0
O328 O 0.69946 0.47332 0.20924 0.0
C329 C 0.7087 0.415 0.31286 0.0
C330 C 0.61665 0.40161 0.228 0.0
O331 O 0.61992 0.43555 0.23737 0.0
O332 O 0.64475 0.37937 0.2272 0.0
C333 C 0.61289 0.52607 0.27503 0.0
O334 O 0.58802 0.50071 0.28123 0.0
C335 C 0.72093 0.45408 0.18766 0.0
C336 C 0.05739 0.36456 0.32104 0.0
C337 C 0.04322 0.39301 0.34469 0.0
H338 H 0.06345 0.30552 0.31153 0.0
C339 C 0.02238 0.38299 0.37667 0.0
H340 H 0.07359 0.37132 0.29622 0.0
C341 C 0.01675 0.34555 0.38548 0.0
C342 C 0.03173 0.317 0.36254 0.0
H343 H 0.01086 0.40409 0.39548 0.0
H344 H 0.00098 0.33904 0.41066 0.0
C345 C 0.05167 0.32687 0.32988 0.0
C346 C 0.88841 0.85971 0.48729 0.0
C347 C 0.89581 0.84293 0.52238 0.0
H348 H 0.84774 0.88509 0.45108 0.0
C349 C 0.86639 0.8371 0.54769 0.0
H350 H 0.91068 0.86452 0.46732 0.0
C351 C 0.83043 0.84984 0.53881 0.0
C352 C 0.82327 0.86767 0.50411 0.0
H353 H 0.87148 0.82453 0.57505 0.0
H354 H 0.80836 0.84632 0.55932 0.0
C355 C 0.85241 0.87148 0.47803 0.0
C356 C 0.42069 0.65209 0.79986 0.0
C357 C 0.41417 0.61382 0.79682 0.0
H358 H 0.4477 0.69435 0.8301 0.0
C359 C 0.43519 0.5879 0.81833 0.0
H360 H 0.40503 0.67258 0.78332 0.0
C361 C 0.45907 0.60036 0.84568 0.0
C362 C 0.46282 0.63883 0.85124 0.0
H363 H 0.43071 0.55819 0.81648 0.0
H364 H 0.47266 0.57999 0.86408 0.0
C365 C 0.44521 0.6645 0.82658 0.0
C366 C 0.60694 0.24608 0.01781 0.0
C367 C 0.58993 0.27784 0.00096 0.0
H368 H 0.65218 0.20581 0.0163 0.0
C369 C 0.60615 0.29331 0.9685 0.0
H370 H 0.59528 0.23377 0.04307 0.0
C371 C 0.63848 0.27703 0.95291 0.0
C372 C 0.65571 0.24551 0.97001 0.0
H373 H 0.59369 0.31785 0.95499 0.0
H374 H 0.65013 0.28926 0.92761 0.0
C375 C 0.63972 0.23032 0.00272 0.0
C376 C 0.02392 0.60772 0.25277 0.0
C377 C 0.00946 0.59072 0.28532 0.0
H378 H 0.01891 0.65263 0.21276 0.0
C379 C 0.97759 0.60679 0.30254 0.0
H380 H 0.04867 0.59624 0.23908 0.0
C381 C 0.96026 0.63895 0.28717 0.0
C382 C 0.97499 0.65613 0.25483 0.0
H383 H 0.96591 0.59438 0.32773 0.0
H384 H 0.93546 0.65049 0.30073 0.0
C385 C 0.00711 0.64027 0.23793 0.0
C386 C 0.64998 0.79652 0.4138 0.0
C387 C 0.61171 0.79363 0.40888 0.0
H388 H 0.6929 0.82506 0.44125 0.0
C389 C 0.58699 0.81345 0.43277 0.0
H390 H 0.66958 0.78126 0.39592 0.0
C391 C 0.60028 0.83904 0.45815 0.0
C392 C 0.63845 0.84445 0.46059 0.0
H393 H 0.55732 0.81167 0.42963 0.0
H394 H 0.58061 0.85622 0.47415 0.0
C395 C 0.6633 0.82147 0.43983 0.0
C396 C 0.41605 0.38434 0.70699 0.0
C397 C 0.41026 0.35504 0.73275 0.0
H398 H 0.40771 0.44291 0.69486 0.0
C399 C 0.39434 0.36324 0.76805 0.0
H400 H 0.42799 0.37866 0.67947 0.0
C401 C 0.38341 0.39987 0.7771 0.0
C402 C 0.38725 0.42893 0.75063 0.0
H403 H 0.38959 0.34111 0.78841 0.0
H404 H 0.37049 0.40514 0.80425 0.0
C405 C 0.40419 0.42096 0.71568 0.0
C406 C 0.91626 0.21442 0.90156 0.0
C407 C 0.92095 0.24924 0.88366 0.0
H408 H 0.878 0.17671 0.92697 0.0
C409 C 0.89023 0.27406 0.88001 0.0
H410 H 0.93956 0.19486 0.90497 0.0
C411 C 0.85514 0.26343 0.89193 0.0
C412 C 0.8502 0.22819 0.90867 0.0
H413 H 0.89297 0.30107 0.86637 0.0
H414 H 0.83163 0.28244 0.88718 0.0
C415 C 0.88119 0.20416 0.91443 0.0
C416 C 0.35197 0.99112 0.3913 0.0
C417 C 0.3365 0.02677 0.39915 0.0
H418 H 0.37638 0.95463 0.34996 0.0
C419 C 0.33226 0.05303 0.36978 0.0
H420 H 0.3556 0.97042 0.41353 0.0
C421 C 0.34517 0.04435 0.3335 0.0
C422 C 0.36158 0.00896 0.32592 0.0
H423 H 0.32077 0.08084 0.37525 0.0
H424 H 0.34279 0.06547 0.31153 0.0
C425 C 0.36391 0.98212 0.35495 0.0
C426 C 0.27425 0.95501 0.64436 0.0
C427 C 0.24221 0.97137 0.66096 0.0
H428 H 0.31526 0.95831 0.60049 0.0
C429 C 0.22627 0.00399 0.64472 0.0
H430 H 0.28708 0.92981 0.65621 0.0
C431 C 0.24184 0.01975 0.61235 0.0
C432 C 0.27414 0.00367 0.59599 0.0
H433 H 0.20136 0.01704 0.65666 0.0
H434 H 0.22895 0.04494 0.60054 0.0
C435 C 0.29031 0.97125 0.61243 0.0
C436 C 0.19571 0.91572 0.88794 0.0
C437 C 0.22122 0.91039 0.85823 0.0
H438 H 0.18412 0.90655 0.94658 0.0
C439 C 0.25645 0.8945 0.86578 0.0
H440 H 0.16824 0.92759 0.88272 0.0
C441 C 0.26576 0.88317 0.90221 0.0
C442 C 0.23962 0.88651 0.93161 0.0
H443 H 0.27658 0.89008 0.84328 0.0
H444 H 0.2929 0.8703 0.90699 0.0
C445 C 0.20468 0.90339 0.92431 0.0
C446 C 0.28375 0.92406 0.15583 0.0
C447 C 0.2796 0.91738 0.11734 0.0
H448 H 0.31393 0.95221 0.19762 0.0
C449 C 0.29816 0.93973 0.09097 0.0
H450 H 0.26942 0.90746 0.17671 0.0
C451 C 0.32415 0.96481 0.1029 0.0
C452 C 0.33126 0.96845 0.14134 0.0
H453 H 0.29534 0.9353 0.06108 0.0
H454 H 0.34056 0.97929 0.08199 0.0
C455 C 0.30916 0.94976 0.16777 0.0
C456 C 0.3285 0.34712 0.03284 0.0
C457 C 0.32173 0.3647 -0.00207 0.0
H458 H 0.36915 0.32227 0.0698 0.0
C459 C 0.35114 0.36824 0.97211 0.0
H460 H 0.30623 0.34381 0.05315 0.0
C461 C 0.38704 0.3566 0.98189 0.0
C462 C 0.39406 0.34027 0.01727 0.0
H463 H 0.34676 0.38165 0.94501 0.0
H464 H 0.40952 0.36129 0.96214 0.0
C465 C 0.36436 0.33454 0.04225 0.0
C466 C 0.91283 0.88221 0.20834 0.0
C467 C 0.90713 0.85266 0.23384 0.0
H468 H 0.90378 0.94076 0.19643 0.0
C469 C 0.89039 0.86041 0.26887 0.0
H470 H 0.92539 0.8769 0.18103 0.0
C471 C 0.8787 0.89683 0.27793 0.0
C472 C 0.88259 0.92613 0.25175 0.0
H473 H 0.8857 0.8381 0.28903 0.0
H474 H 0.86525 0.90175 0.3049 0.0
C475 C 0.9002 0.91861 0.21704 0.0
C476 C 0.14111 0.78216 0.45529 0.0
C477 C 0.15863 0.75038 0.47159 0.0
H478 H 0.0958 0.82232 0.4582 0.0
C479 C 0.14253 0.73394 0.50362 0.0
H480 H 0.15283 0.79535 0.43053 0.0
C481 C 0.10941 0.74879 0.51886 0.0
C482 C 0.09215 0.78086 0.50286 0.0
H483 H 0.15519 0.70919 0.51656 0.0
H484 H 0.09772 0.73557 0.54363 0.0
C485 C 0.10843 0.79751 0.47105 0.0
C486 C 0.98096 0.65949 0.61511 0.0
C487 C 0.96745 0.68757 0.63948 0.0
H488 H 0.98666 0.60106 0.60401 0.0
C489 C 0.94997 0.67696 0.67332 0.0
H490 H -0.00515 0.66658 0.58897 0.0
C491 C 0.94518 0.6391 0.68203 0.0
C492 C 0.95799 0.61108 0.65716 0.0
H493 H 0.93938 0.6979 0.6928 0.0
H494 H 0.93085 0.63186 0.70787 0.0
C495 C 0.97639 0.62179 0.62387 0.0
C496 C 0.15445 0.12079 0.49142 0.0
C497 C 0.18106 0.14552 0.47796 0.0
H498 H 0.09713 0.10977 0.4988 0.0
C499 C 0.16897 0.18007 0.46239 0.0
H500 H 0.16273 0.09411 0.50395 0.0
C501 C 0.13102 0.18911 0.45928 0.0
C502 C 0.10444 0.16392 0.47205 0.0
H503 H 0.18877 0.19983 0.45191 0.0
H504 H 0.12256 0.21549 0.44626 0.0
C505 C 0.1167 0.12993 0.48867 0.0
C506 C 0.57526 0.35142 0.2081 0.0
C507 C 0.58209 0.38967 0.21101 0.0
H508 H 0.54721 0.30941 0.17849 0.0
C509 C 0.55984 0.41576 0.19098 0.0
H510 H 0.59177 0.33078 0.2236 0.0
C511 C 0.53481 0.40353 0.1646 0.0
C512 C 0.53118 0.36511 0.15854 0.0
H513 H 0.56437 0.44545 0.19283 0.0
H514 H 0.52051 0.42408 0.14695 0.0
C515 C 0.54965 0.33922 0.18232 0.0
C516 C 0.35319 0.72962 0.0495 0.0
C517 C 0.33571 0.76072 0.03188 0.0
H518 H 0.39937 0.69047 0.04967 0.0
C519 C 0.35306 0.7769 0.00033 0.0
H520 H 0.34071 0.71664 0.07399 0.0
C521 C 0.38725 0.76244 0.98693 0.0
C522 C 0.40449 0.73108 0.00437 0.0
H523 H 0.34057 0.80118 0.9864 0.0
H524 H 0.3998 0.77538 0.96246 0.0
C525 C 0.38695 0.71477 0.0357 0.0
C526 C 0.01449 0.39247 0.70469 0.0
C527 C 0.98407 0.41096 0.72226 0.0
H528 H 0.05304 0.34561 0.70551 0.0
C529 C 0.96838 0.39463 0.75462 0.0
H530 H 0.02709 0.40414 0.6796 0.0
C531 C 0.9827 0.36055 0.76895 0.0
C532 C 0.01344 0.34233 0.75164 0.0
H533 H 0.94462 0.40786 0.76856 0.0
H534 H 0.97015 0.34891 0.79409 0.0
C535 C 0.02921 0.35878 0.71941 0.0
C536 C 0.33277 0.18474 0.56426 0.0
C537 C 0.35798 0.16197 0.54372 0.0
H538 H 0.32573 0.22462 0.6084 0.0
C539 C 0.39605 0.1681 0.54624 0.0
H540 H 0.30324 0.18072 0.56276 0.0
C541 C 0.40888 0.19372 0.57189 0.0
C542 C 0.38384 0.21293 0.59594 0.0
H543 H 0.41603 0.15116 0.53039 0.0
H544 H 0.4385 0.19574 0.57529 0.0
C545 C 0.34563 0.20978 0.5905 0.0
C546 C 0.5603 0.61716 0.29772 0.0
C547 C 0.58516 0.64388 0.28453 0.0
H548 H 0.54945 0.55891 0.30505 0.0
C549 C 0.61852 0.63138 0.2673 0.0
H550 H 0.5344 0.62581 0.3112 0.0
C551 C 0.62731 0.59323 0.26425 0.0
C552 C 0.60285 0.56648 0.27801 0.0
H553 H 0.63841 0.65107 0.25685 0.0
H554 H 0.65347 0.58476 0.25118 0.0
C555 C 0.56898 0.57882 0.29432 0.0
C556 C 0.08887 0.76563 0.13876 0.0
C557 C 0.061 0.77888 0.11436 0.0
H558 H 0.14673 0.7597 0.1495 0.0
C559 C 0.07142 0.79565 0.08005 0.0
H560 H 0.08191 0.75222 0.16525 0.0
C561 C 0.10892 0.80007 0.07094 0.0
C562 C 0.13673 0.78753 0.09585 0.0
H563 H 0.05061 0.80602 0.06054 0.0
H564 H 0.11606 0.81394 0.04475 0.0
C565 C 0.12617 0.76976 0.12958 0.0
C566 C 0.68543 0.95176 0.64074 0.0
C567 C 0.6604 0.96512 0.61335 0.0
H568 H 0.69591 0.9432 0.69949 0.0
C569 C 0.62617 0.98115 0.62523 0.0
H570 H 0.71198 0.93916 0.63259 0.0
C571 C 0.61679 0.98294 0.66337 0.0
C572 C 0.64151 0.96913 0.69076 0.0
H573 H 0.6061 0.99163 0.60502 0.0
H574 H 0.59002 -0.00483 0.67134 0.0
C575 C 0.67616 0.95394 0.67907 0.0
C576 C 0.77284 -0.00484 0.36182 0.0
C577 C 0.75644 0.02708 0.34458 0.0
H578 H 0.77184 0.95643 0.40817 0.0
C579 C 0.72541 0.04458 0.36207 0.0
H580 H 0.79705 0.98125 0.34938 0.0
C581 C 0.71083 0.03023 0.39571 0.0
C582 C 0.72737 -0.00153 0.41308 0.0
H583 H 0.71224 0.06934 0.34968 0.0
H584 H 0.68656 0.04406 0.40811 0.0
C585 C 0.75867 0.98122 0.39582 0.0
C586 C 0.79572 0.07438 0.07727 0.0
C587 C 0.77938 0.10883 0.06574 0.0
H588 H 0.81245 0.03905 0.12359 0.0
C589 C 0.7654 0.13354 0.09328 0.0
H590 H 0.80663 0.05463 0.05673 0.0
C591 C 0.76828 0.12444 0.1314 0.0
C592 C 0.78554 0.0905 0.14311 0.0
H593 H 0.7523 0.16013 0.08545 0.0
H594 H 0.75767 0.14456 0.15171 0.0
C595 C 0.79893 0.06538 0.11558 0.0
C596 C 0.67143 0.03752 0.90528 0.0
C597 C 0.6638 0.03309 0.86703 0.0
H598 H 0.70036 0.06826 0.9461 0.0
C599 C 0.68565 0.05126 0.83998 0.0
H600 H 0.6553 0.02346 0.92669 0.0
C601 C 0.711 0.07744 0.85106 0.0
C602 C 0.71537 0.08518 0.88933 0.0
H603 H 0.68057 0.04819 0.81025 0.0
H604 H 0.72493 0.09374 0.82965 0.0
C605 C 0.69736 0.06312 0.91637 0.0
C606 C 0.63109 0.66764 0.9607 0.0
C607 C 0.60258 0.6621 0.98721 0.0
H608 H 0.68855 0.65782 0.94654 0.0
C609 C 0.61125 0.64482 0.02176 0.0
H610 H 0.62507 0.68056 0.93368 0.0
C611 C 0.64751 0.63246 0.02935 0.0
C612 C 0.67572 0.63619 0.00215 0.0
H613 H 0.58979 0.64015 0.04266 0.0
H614 H 0.65312 0.61861 0.056 0.0
C615 C 0.66729 0.65434 0.96791 0.0
C616 C 0.12548 0.09232 0.7648 0.0
C617 C 0.10191 0.06537 0.7798 0.0
H618 H 0.13509 0.15022 0.75549 0.0
C619 C 0.06798 0.07737 0.79623 0.0
H620 H 0.15164 0.0841 0.75158 0.0
C621 C 0.05843 0.11561 0.79861 0.0
C622 C 0.08246 0.14257 0.78425 0.0
H623 H 0.04912 0.05729 0.80789 0.0
H624 H 0.03256 0.12404 0.81227 0.0
C625 C 0.11583 0.13035 0.76684 0.0
C626 C 0.88543 0.20961 0.53061 0.0
C627 C 0.90274 0.22593 0.49917 0.0
H628 H 0.83925 0.21153 0.56909 0.0
C629 C 0.88503 0.25689 0.48144 0.0
H630 H 0.89819 0.18558 0.54474 0.0
C631 C 0.85081 0.27112 0.49477 0.0
C632 C 0.83378 0.25519 0.52657 0.0
H633 H 0.89735 0.26983 0.45685 0.0
H634 H 0.83812 0.29519 0.48063 0.0
C635 C 0.85154 0.22432 0.5444 0.0
C636 C 0.48865 0.89024 0.86533 0.0
C637 C 0.52407 0.89545 0.84984 0.0
H638 H 0.45118 0.85209 0.89065 0.0
C639 C 0.54885 0.86454 0.84646 0.0
H640 H 0.4691 0.91371 0.86833 0.0
C641 C 0.53898 0.82936 0.86029 0.0
C642 C 0.50384 0.82444 0.87677 0.0
H643 H 0.57646 0.86798 0.83499 0.0
H644 H 0.559 0.80618 0.85862 0.0
C645 C 0.47844 0.855 0.87816 0.0
C646 C 0.94048 0.16615 0.31988 0.0
C647 C 0.96055 0.14097 0.34306 0.0
H648 H 0.89747 0.17285 0.27932 0.0
C649 C 0.95837 0.10239 0.33706 0.0
H650 H 0.94175 0.19606 0.3238 0.0
C651 C 0.93349 0.08912 0.31112 0.0
C652 C 0.90994 0.1143 0.29149 0.0
H653 H 0.97389 0.08242 0.35433 0.0
H654 H 0.93031 0.05921 0.30917 0.0
C655 C 0.91501 0.15289 0.29453 0.0
C656 C 0.47353 0.10908 0.80263 0.0
C657 C 0.50462 0.09134 0.78556 0.0
H658 H 0.43307 0.15425 0.80014 0.0
C659 C 0.51941 0.10686 0.75241 0.0
H660 H 0.4616 0.09781 0.82826 0.0
C661 C 0.50367 0.13967 0.73687 0.0
C662 C 0.47232 0.15718 0.7537 0.0
H663 H 0.54359 0.09404 0.73882 0.0
H664 H 0.51566 0.15094 0.71127 0.0
C665 C 0.45728 0.14143 0.78661 0.0
C666 C 0.09636 0.34153 0.95371 0.0
C667 C 0.13473 0.34557 0.95655 0.0
H668 H 0.05273 0.31494 0.92539 0.0
C669 C 0.15898 0.32109 0.9368 0.0
H670 H 0.07712 0.35987 0.96894 0.0
C671 C 0.14507 0.2959 0.91137 0.0
C672 C 0.10674 0.29425 0.90605 0.0
H673 H 0.18871 0.32354 0.93853 0.0
H674 H 0.16433 0.27939 0.89423 0.0
C675 C 0.08244 0.31571 0.92893 0.0
C676 C 0.39628 0.77909 0.38277 0.0
C677 C 0.42621 0.75329 0.38644 0.0
H678 H 0.33785 0.78928 0.38972 0.0
C679 C 0.4204 0.71864 0.40424 0.0
H680 H 0.39992 0.806 0.3692 0.0
C681 C 0.38497 0.70949 0.41694 0.0
C682 C 0.35472 0.73447 0.41112 0.0
H683 H 0.44309 0.69835 0.40765 0.0
H684 H 0.38091 0.68214 0.42938 0.0
C685 C 0.36079 0.76956 0.39452 0.0
C686 C 0.84319 0.54431 0.82855 0.0
C687 C 0.85899 0.50863 0.82108 0.0
H688 H 0.82013 0.58159 0.87033 0.0
C689 C 0.86163 0.48214 0.8504 0.0
H690 H 0.84059 0.56518 0.80637 0.0
C691 C 0.85061 0.49173 0.88687 0.0
C692 C 0.83578 0.52767 0.8946 0.0
H693 H 0.87366 0.45443 0.84552 0.0
H694 H 0.8544 0.47123 0.90925 0.0
C695 C 0.83121 0.5536 0.86499 0.0
C696 C 0.76968 0.45497 0.137 0.0
C697 C 0.73834 0.47183 0.15443 0.0
H698 H 0.8101 0.45799 0.09261 0.0
C699 C 0.72275 0.50494 0.13879 0.0
H700 H 0.7822 0.42937 0.14831 0.0
C701 C 0.73817 0.52082 0.10635 0.0
C702 C 0.76995 0.50434 0.08935 0.0
H703 H 0.69834 0.51835 0.15135 0.0
H704 H 0.72572 0.54649 0.09511 0.0
C705 C 0.78556 0.47129 0.10505 0.0
C706 C 0.76424 0.37775 0.395 0.0
C707 C 0.73856 0.38147 0.42478 0.0
H708 H 0.77468 0.38539 0.33609 0.0
C709 C 0.70403 0.39955 0.41811 0.0
H710 H 0.79106 0.36398 0.39927 0.0
C711 C 0.69505 0.4128 0.38203 0.0
C712 C 0.7201 0.40726 0.35193 0.0
H713 H 0.68382 0.40303 0.44065 0.0
H714 H 0.6679 0.42565 0.37732 0.0
C715 C 0.7549 0.39005 0.35886 0.0
C716 C 0.80725 0.44746 0.661 0.0
C717 C 0.82964 0.46607 0.63475 0.0
H718 H 0.76787 0.4048 0.66978 0.0
C719 C 0.82343 0.46164 0.59622 0.0
H720 H 0.81134 0.45047 0.69091 0.0
C721 C 0.79802 0.43598 0.58415 0.0
C722 C 0.77915 0.41388 0.61049 0.0
H723 H 0.84008 0.47597 0.57543 0.0
H724 H 0.79586 0.43102 0.55429 0.0
C725 C 0.78246 0.42121 0.64894 0.0
C726 C 0.44659 0.14096 0.18479 0.0
C727 C 0.45958 0.11252 0.16049 0.0
H728 H 0.43986 0.19999 0.19403 0.0
C729 C 0.47741 0.1227 0.12671 0.0
H730 H 0.43267 0.13411 0.21098 0.0
C731 C 0.48115 0.16024 0.11687 0.0
C732 C 0.46741 0.18872 0.14063 0.0
H733 H 0.48782 0.10164 0.10727 0.0
H734 H 0.4946 0.16689 0.09037 0.0
C735 C 0.45059 0.1787 0.175 0.0
C736 C 0.0542 0.83699 0.6853 0.0
C737 C 0.03446 0.86313 0.66285 0.0
H738 H 0.09725 0.8284 0.72555 0.0
C739 C 0.0371 0.90143 0.67019 0.0
H740 H 0.05257 0.80726 0.6804 0.0
C741 C 0.06223 0.91351 0.69653 0.0
C742 C 0.0856 0.88744 0.71527 0.0
H743 H 0.02184 0.92214 0.65355 0.0
H744 H 0.06582 0.94328 0.69939 0.0
C745 C 0.0799 0.84908 0.71107 0.0
C746 C 0.5337 0.86114 0.22287 0.0
C747 C 0.51828 0.84437 0.2551 0.0
H748 H 0.53082 0.90669 0.18328 0.0
C749 C 0.48756 0.86227 0.27278 0.0
H750 H 0.5575 0.84822 0.20871 0.0
C751 C 0.47285 0.8963 0.25876 0.0
C752 C 0.48809 0.91288 0.22633 0.0
H753 H 0.47528 0.85037 0.29793 0.0
H754 H 0.44908 0.90925 0.27295 0.0
C755 C 0.51856 0.89478 0.20844 0.0
C756 C 0.83601 0.68292 0.06325 0.0
C757 C 0.8613 0.65971 0.04328 0.0
H758 H 0.82852 0.72277 0.10737 0.0
C759 C 0.89943 0.6647 0.04728 0.0
H760 H 0.80643 0.67976 0.06068 0.0
C761 C 0.91205 0.68989 0.07351 0.0
C762 C 0.8867 0.70976 0.09668 0.0
H763 H 0.9195 0.64737 0.03196 0.0
H764 H 0.94159 0.69119 0.07793 0.0
C765 C 0.84862 0.70747 0.09008 0.0
C766 C 0.57 0.29487 0.57663 0.0
C767 C 0.55986 0.27789 0.61093 0.0
H768 H 0.61441 0.31273 0.54079 0.0
C769 C 0.58791 0.26371 0.63463 0.0
H770 H 0.54905 0.30593 0.55765 0.0
C771 C 0.62515 0.26722 0.62485 0.0
C772 C 0.63547 0.28526 0.59118 0.0
H773 H 0.58116 0.25011 0.66107 0.0
H774 H 0.64586 0.25649 0.64427 0.0
C775 C 0.60746 0.29864 0.5669 0.0
C776 C 0.13176 0.4853 0.12088 0.0
C777 C 0.16452 0.467 0.10805 0.0
H778 H 0.09803 0.50176 0.16799 0.0
C779 C 0.18971 0.45233 0.13469 0.0
H780 H 0.11167 0.49692 0.10125 0.0
C781 C 0.18184 0.45522 0.17324 0.0
C782 C 0.14851 0.47254 0.1859 0.0
H783 H 0.21518 0.43802 0.12578 0.0
H784 H 0.20155 0.44325 0.19306 0.0
C785 C 0.12379 0.48789 0.15925 0.0
C786 C 0.2742 0.49512 0.85736 0.0
C787 C 0.25863 0.52778 0.84078 0.0
H788 H 0.27191 0.45529 0.90265 0.0
C789 C 0.22753 0.54528 0.85813 0.0
H790 H 0.29843 0.48117 0.845 0.0
C791 C 0.21219 0.53032 0.89111 0.0
C792 C 0.22802 0.49791 0.90793 0.0
H793 H 0.21499 0.5706 0.84622 0.0
H794 H 0.18798 0.54425 0.90352 0.0
C795 C 0.25928 0.48054 0.89071 0.0
C796 C 0.27143 0.63873 0.59337 0.0
C797 C 0.28534 0.61438 0.56548 0.0
H798 H 0.26421 0.64921 0.65196 0.0
C799 C 0.30229 0.58007 0.57655 0.0
H800 H 0.25793 0.66524 0.58591 0.0
C801 C 0.30601 0.5708 0.61474 0.0
C802 C 0.29259 0.59554 0.64261 0.0
H803 H 0.31319 0.56061 0.55574 0.0
H804 H 0.31985 0.54453 0.6224 0.0
C805 C 0.27488 0.6294 0.63137 0.0
C806 C 0.19262 0.5597 0.33676 0.0
C807 C 0.17212 0.53938 0.36329 0.0
H808 H 0.2298 0.60432 0.32779 0.0
C809 C 0.18006 0.54258 0.40162 0.0
H810 H 0.1872 0.55764 0.307 0.0
C811 C 0.20493 0.56886 0.41349 0.0
C812 C 0.22154 0.59283 0.3872 0.0
H813 H 0.16493 0.52686 0.4226 0.0
H814 H 0.20818 0.57283 0.44338 0.0
C815 C 0.21692 0.58654 0.34867 0.0
loop_
_geom_bond_atom_site_label_1
_geom_bond_atom_site_label_2
_geom_bond_distance
_geom_bond_site_symmetry_2
_ccdc_geom_bond_type
Zn0 O3 2.031 . S
Zn0 O5 2.049 1_655 S
Zn0 O10 2.067 . S
Zn1 O2 1.962 1_455 S
Zn1 O4 1.986 . S
Zn1 O6 1.996 . S
Zn1 O9 1.943 1_455 S
O2 Zn1 1.962 1_655 S
O2 C7 1.254 . S
O3 Zn0 2.031 . S
O3 C7 1.269 . S
O4 Zn1 1.986 . S
O4 C11 1.262 . S
O5 Zn0 2.049 1_455 S
O5 C13 1.260 . S
O6 Zn1 1.996 . S
O6 C13 1.257 . S
C7 O2 1.254 . S
C7 O3 1.269 . S
C8 O9 1.249 . S
C8 O10 1.270 . S
O9 Zn1 1.943 1_655 S
O9 C8 1.249 . S
O10 Zn0 2.067 . S
O10 C8 1.270 . S
C11 O4 1.262 . S
C11 O12 1.232 1_455 S
O12 C11 1.232 1_655 S
C13 O5 1.260 . S
C13 O6 1.257 . S
Zn14 O17 2.031 1_455 S
Zn14 O19 2.049 . S
Zn14 O24 2.067 . S
Zn15 O16 1.962 1_455 S
Zn15 O18 1.986 . S
Zn15 O20 1.996 . S
Zn15 O23 1.943 . S
O16 Zn15 1.962 1_655 S
O16 C21 1.254 . S
O17 Zn14 2.031 1_655 S
O17 C21 1.269 . S
O18 Zn15 1.986 . S
O18 C25 1.262 1_455 S
O19 Zn14 2.049 . S
O19 C27 1.260 . S
O20 Zn15 1.996 . S
O20 C27 1.257 . S
C21 O16 1.254 . S
C21 O17 1.269 . S
C22 O23 1.249 . S
C22 O24 1.270 . S
O23 Zn15 1.943 . S
O23 C22 1.249 . S
O24 Zn14 2.067 . S
O24 C22 1.270 . S
C25 O18 1.262 1_655 S
C25 O26 1.232 . S
O26 C25 1.232 . S
C27 O19 1.260 . S
C27 O20 1.257 . S
Zn28 O31 2.031 . S
Zn28 O33 2.049 . S
Zn28 O38 2.067 . S
Zn29 O30 1.962 . S
Zn29 O32 1.986 . S
Zn29 O34 1.996 . S
Zn29 O37 1.943 . S
O30 Zn29 1.962 . S
O30 C35 1.254 . S
O31 Zn28 2.031 . S
O31 C35 1.269 . S
O32 Zn29 1.986 . S
O32 C39 1.262 . S
O33 Zn28 2.049 . S
O33 C41 1.260 . S
O34 Zn29 1.996 . S
O34 C41 1.257 . S
C35 O30 1.254 . S
C35 O31 1.269 . S
C36 O37 1.249 . S
C36 O38 1.270 . S
O37 Zn29 1.943 . S
O37 C36 1.249 . S
O38 Zn28 2.067 . S
O38 C36 1.270 . S
C39 O32 1.262 . S
C39 O40 1.232 . S
O40 C39 1.232 . S
C41 O33 1.260 . S
C41 O34 1.257 . S
Zn42 O45 2.031 . S
Zn42 O47 2.049 . S
Zn42 O52 2.067 . S
Zn43 O44 1.962 . S
Zn43 O46 1.986 . S
Zn43 O48 1.996 . S
Zn43 O51 1.943 . S
O44 Zn43 1.962 . S
O44 C49 1.254 . S
O45 Zn42 2.031 . S
O45 C49 1.269 . S
O46 Zn43 1.986 . S
O46 C53 1.262 . S
O47 Zn42 2.049 . S
O47 C55 1.260 . S
O48 Zn43 1.996 . S
O48 C55 1.257 . S
C49 O44 1.254 . S
C49 O45 1.269 . S
C50 O51 1.249 . S
C50 O52 1.270 . S
O51 Zn43 1.943 . S
O51 C50 1.249 . S
O52 Zn42 2.067 . S
O52 C50 1.270 . S
C53 O46 1.262 . S
C53 O54 1.232 . S
O54 C53 1.232 . S
C55 O47 1.260 . S
C55 O48 1.257 . S
Zn56 O59 2.031 . S
Zn56 O61 2.049 . S
Zn56 O66 2.067 . S
Zn57 O58 1.962 . S
Zn57 O60 1.986 . S
Zn57 O62 1.996 . S
Zn57 O65 1.943 1_455 S
O58 Zn57 1.962 . S
O58 C63 1.254 1_455 S
O59 Zn56 2.031 . S
O59 C63 1.269 . S
O60 Zn57 1.986 . S
O60 C67 1.262 . S
O61 Zn56 2.049 . S
O61 C69 1.260 1_655 S
O62 Zn57 1.996 . S
O62 C69 1.257 . S
C63 O58 1.254 1_655 S
C63 O59 1.269 . S
C64 O65 1.249 . S
C64 O66 1.270 . S
O65 Zn57 1.943 1_655 S
O65 C64 1.249 . S
O66 Zn56 2.067 . S
O66 C64 1.270 . S
C67 O60 1.262 . S
C67 O68 1.232 . S
O68 C67 1.232 . S
C69 O61 1.260 1_455 S
C69 O62 1.257 . S
Zn70 O73 2.031 . S
Zn70 O75 2.049 . S
Zn70 O80 2.067 . S
Zn71 O72 1.962 . S
Zn71 O74 1.986 . S
Zn71 O76 1.996 . S
Zn71 O79 1.943 . S
O72 Zn71 1.962 . S
O72 C77 1.254 . S
O73 Zn70 2.031 . S
O73 C77 1.269 . S
O74 Zn71 1.986 . S
O74 C81 1.262 . S
O75 Zn70 2.049 . S
O75 C83 1.260 . S
O76 Zn71 1.996 . S
O76 C83 1.257 . S
C77 O72 1.254 . S
C77 O73 1.269 . S
C78 O79 1.249 . S
C78 O80 1.270 . S
O79 Zn71 1.943 . S
O79 C78 1.249 . S
O80 Zn70 2.067 . S
O80 C78 1.270 . S
C81 O74 1.262 . S
C81 O82 1.232 . S
O82 C81 1.232 . S
C83 O75 1.260 . S
C83 O76 1.257 . S
Zn84 O87 2.031 . S
Zn84 O89 2.049 . S
Zn84 O94 2.067 . S
Zn85 O86 1.962 . S
Zn85 O88 1.986 . S
Zn85 O90 1.996 . S
Zn85 O93 1.943 . S
O86 Zn85 1.962 . S
O86 C91 1.254 . S
O87 Zn84 2.031 . S
O87 C91 1.269 . S
O88 Zn85 1.986 . S
O88 C95 1.262 . S
O89 Zn84 2.049 . S
O89 C97 1.260 . S
O90 Zn85 1.996 . S
O90 C97 1.257 . S
C91 O86 1.254 . S
C91 O87 1.269 . S
C92 O93 1.249 . S
C92 O94 1.270 . S
O93 Zn85 1.943 . S
O93 C92 1.249 . S
O94 Zn84 2.067 . S
O94 C92 1.270 . S
C95 O88 1.262 . S
C95 O96 1.232 . S
O96 C95 1.232 . S
C97 O89 1.260 . S
C97 O90 1.257 . S
Zn98 O101 2.031 . S
Zn98 O103 2.049 . S
Zn98 O108 2.067 . S
Zn99 O100 1.962 . S
Zn99 O102 1.986 . S
Zn99 O104 1.996 1_655 S
Zn99 O107 1.943 1_655 S
O100 Zn99 1.962 . S
O100 C105 1.254 . S
O101 Zn98 2.031 . S
O101 C105 1.269 1_455 S
O102 Zn99 1.986 . S
O102 C109 1.262 . S
O103 Zn98 2.049 . S
O103 C111 1.260 . S
O104 Zn99 1.996 1_455 S
O104 C111 1.257 . S
C105 O100 1.254 . S
C105 O101 1.269 1_655 S
C106 O107 1.249 . S
C106 O108 1.270 . S
O107 Zn99 1.943 1_455 S
O107 C106 1.249 . S
O108 Zn98 2.067 . S
O108 C106 1.270 . S
C109 O102 1.262 . S
C109 O110 1.232 . S
O110 C109 1.232 . S
C111 O103 1.260 . S
C111 O104 1.257 . S
Zn112 O115 2.031 . S
Zn112 O117 2.049 1_565 S
Zn112 O122 2.067 . S
Zn113 O114 1.962 1_545 S
Zn113 O116 1.986 . S
Zn113 O118 1.996 . S
Zn113 O121 1.943 1_545 S
O114 Zn113 1.962 1_565 S
O114 C119 1.254 . S
O115 Zn112 2.031 . S
O115 C119 1.269 . S
O116 Zn113 1.986 . S
O116 C123 1.262 . S
O117 Zn112 2.049 1_545 S
O117 C125 1.260 . S
O118 Zn113 1.996 . S
O118 C125 1.257 . S
C119 O114 1.254 . S
C119 O115 1.269 . S
C120 O121 1.249 . S
C120 O122 1.270 . S
O121 Zn113 1.943 1_565 S
O121 C120 1.249 . S
O122 Zn112 2.067 . S
O122 C120 1.270 . S
C123 O116 1.262 . S
C123 O124 1.232 1_545 S
O124 C123 1.232 1_565 S
C125 O117 1.260 . S
C125 O118 1.257 . S
Zn126 O129 2.031 . S
Zn126 O131 2.049 . S
Zn126 O136 2.067 . S
Zn127 O128 1.962 . S
Zn127 O130 1.986 . S
Zn127 O132 1.996 . S
Zn127 O135 1.943 . S
O128 Zn127 1.962 . S
O128 C133 1.254 . S
O129 Zn126 2.031 . S
O129 C133 1.269 . S
O130 Zn127 1.986 . S
O130 C137 1.262 . S
O131 Zn126 2.049 . S
O131 C139 1.260 . S
O132 Zn127 1.996 . S
O132 C139 1.257 . S
C133 O128 1.254 . S
C133 O129 1.269 . S
C134 O135 1.249 . S
C134 O136 1.270 . S
O135 Zn127 1.943 . S
O135 C134 1.249 . S
O136 Zn126 2.067 . S
O136 C134 1.270 . S
C137 O130 1.262 . S
C137 O138 1.232 . S
O138 C137 1.232 . S
C139 O131 1.260 . S
C139 O132 1.257 . S
Zn140 O143 2.031 . S
Zn140 O145 2.049 . S
Zn140 O150 2.067 . S
Zn141 O142 1.962 . S
Zn141 O144 1.986 . S
Zn141 O146 1.996 . S
Zn141 O149 1.943 1_545 S
O142 Zn141 1.962 . S
O142 C147 1.254 1_545 S
O143 Zn140 2.031 . S
O143 C147 1.269 . S
O144 Zn141 1.986 . S
O144 C151 1.262 . S
O145 Zn140 2.049 . S
O145 C153 1.260 1_565 S
O146 Zn141 1.996 . S
O146 C153 1.257 . S
C147 O142 1.254 1_565 S
C147 O143 1.269 . S
C148 O149 1.249 . S
C148 O150 1.270 . S
O149 Zn141 1.943 1_565 S
O149 C148 1.249 . S
O150 Zn140 2.067 . S
O150 C148 1.270 . S
C151 O144 1.262 . S
C151 O152 1.232 . S
O152 C151 1.232 . S
C153 O145 1.260 1_545 S
C153 O146 1.257 . S
Zn154 O157 2.031 . S
Zn154 O159 2.049 . S
Zn154 O164 2.067 . S
Zn155 O156 1.962 . S
Zn155 O158 1.986 . S
Zn155 O160 1.996 1_556 S
Zn155 O163 1.943 1_556 S
O156 Zn155 1.962 . S
O156 C161 1.254 . S
O157 Zn154 2.031 . S
O157 C161 1.269 1_554 S
O158 Zn155 1.986 . S
O158 C165 1.262 . S
O159 Zn154 2.049 . S
O159 C167 1.260 . S
O160 Zn155 1.996 1_554 S
O160 C167 1.257 . S
C161 O156 1.254 . S
C161 O157 1.269 1_556 S
C162 O163 1.249 . S
C162 O164 1.270 . S
O163 Zn155 1.943 1_554 S
O163 C162 1.249 . S
O164 Zn154 2.067 . S
O164 C162 1.270 . S
C165 O158 1.262 . S
C165 O166 1.232 . S
O166 C165 1.232 . S
C167 O159 1.260 . S
C167 O160 1.257 . S
Zn168 O171 2.031 . S
Zn168 O173 2.049 1_556 S
Zn168 O178 2.067 . S
Zn169 O170 1.962 1_554 S
Zn169 O172 1.986 . S
Zn169 O174 1.996 . S
Zn169 O177 1.943 1_554 S
O170 Zn169 1.962 1_556 S
O170 C175 1.254 . S
O171 Zn168 2.031 . S
O171 C175 1.269 . S
O172 Zn169 1.986 . S
O172 C179 1.262 . S
O173 Zn168 2.049 1_554 S
O173 C181 1.260 . S
O174 Zn169 1.996 . S
O174 C181 1.257 . S
C175 O170 1.254 . S
C175 O171 1.269 . S
C176 O177 1.249 . S
C176 O178 1.270 . S
O177 Zn169 1.943 1_556 S
O177 C176 1.249 . S
O178 Zn168 2.067 . S
O178 C176 1.270 . S
C179 O172 1.262 . S
C179 O180 1.232 1_554 S
O180 C179 1.232 1_556 S
C181 O173 1.260 . S
C181 O174 1.257 . S
Zn182 O185 2.031 . S
Zn182 O187 2.049 . S
Zn182 O192 2.067 . S
Zn183 O184 1.962 . S
Zn183 O186 1.986 . S
Zn183 O188 1.996 . S
Zn183 O191 1.943 1_554 S
O184 Zn183 1.962 . S
O184 C189 1.254 1_554 S
O185 Zn182 2.031 . S
O185 C189 1.269 . S
O186 Zn183 1.986 . S
O186 C193 1.262 . S
O187 Zn182 2.049 . S
O187 C195 1.260 1_556 S
O188 Zn183 1.996 . S
O188 C195 1.257 . S
C189 O184 1.254 1_556 S
C189 O185 1.269 . S
C190 O191 1.249 . S
C190 O192 1.270 . S
O191 Zn183 1.943 1_556 S
O191 C190 1.249 . S
O192 Zn182 2.067 . S
O192 C190 1.270 . S
C193 O186 1.262 . S
C193 O194 1.232 . S
O194 C193 1.232 . S
C195 O187 1.260 1_554 S
C195 O188 1.257 . S
Zn196 O199 2.031 . S
Zn196 O201 2.049 . S
Zn196 O206 2.067 . S
Zn197 O198 1.962 . S
Zn197 O200 1.986 . S
Zn197 O202 1.996 . S
Zn197 O205 1.943 . S
O198 Zn197 1.962 . S
O198 C203 1.254 . S
O199 Zn196 2.031 . S
O199 C203 1.269 . S
O200 Zn197 1.986 . S
O200 C207 1.262 . S
O201 Zn196 2.049 . S
O201 C209 1.260 . S
O202 Zn197 1.996 . S
O202 C209 1.257 . S
C203 O198 1.254 . S
C203 O199 1.269 . S
C204 O205 1.249 . S
C204 O206 1.270 . S
O205 Zn197 1.943 . S
O205 C204 1.249 . S
O206 Zn196 2.067 . S
O206 C204 1.270 . S
C207 O200 1.262 . S
C207 O208 1.232 . S
O208 C207 1.232 . S
C209 O201 1.260 . S
C209 O202 1.257 . S
Zn210 O213 2.031 . S
Zn210 O215 2.049 . S
Zn210 O220 2.067 . S
Zn211 O212 1.962 . S
Zn211 O214 1.986 . S
Zn211 O216 1.996 . S
Zn211 O219 1.943 . S
O212 Zn211 1.962 . S
O212 C217 1.254 . S
O213 Zn210 2.031 . S
O213 C217 1.269 . S
O214 Zn211 1.986 . S
O214 C221 1.262 . S
O215 Zn210 2.049 . S
O215 C223 1.260 . S
O216 Zn211 1.996 . S
O216 C223 1.257 . S
C217 O212 1.254 . S
C217 O213 1.269 . S
C218 O219 1.249 . S
C218 O220 1.270 . S
O219 Zn211 1.943 . S
O219 C218 1.249 . S
O220 Zn210 2.067 . S
O220 C218 1.270 . S
C221 O214 1.262 . S
C221 O222 1.232 . S
O222 C221 1.232 . S
C223 O215 1.260 . S
C223 O216 1.257 . S
Zn224 O227 2.031 . S
Zn224 O229 2.049 . S
Zn224 O234 2.067 . S
Zn225 O226 1.962 . S
Zn225 O228 1.986 . S
Zn225 O230 1.996 1_565 S
Zn225 O233 1.943 1_565 S
O226 Zn225 1.962 . S
O226 C231 1.254 . S
O227 Zn224 2.031 . S
O227 C231 1.269 1_545 S
O228 Zn225 1.986 . S
O228 C235 1.262 . S
O229 Zn224 2.049 . S
O229 C237 1.260 . S
O230 Zn225 1.996 1_545 S
O230 C237 1.257 . S
C231 O226 1.254 . S
C231 O227 1.269 1_565 S
C232 O233 1.249 . S
C232 O234 1.270 . S
O233 Zn225 1.943 1_545 S
O233 C232 1.249 . S
O234 Zn224 2.067 . S
O234 C232 1.270 . S
C235 O228 1.262 . S
C235 O236 1.232 . S
O236 C235 1.232 . S
C237 O229 1.260 . S
C237 O230 1.257 . S
Zn238 O241 2.031 . S
Zn238 O243 2.049 . S
Zn238 O248 2.067 . S
Zn239 O240 1.962 . S
Zn239 O242 1.986 . S
Zn239 O244 1.996 . S
Zn239 O247 1.943 . S
O240 Zn239 1.962 . S
O240 C245 1.254 . S
O241 Zn238 2.031 . S
O241 C245 1.269 . S
O242 Zn239 1.986 . S
O242 C249 1.262 . S
O243 Zn238 2.049 . S
O243 C251 1.260 . S
O244 Zn239 1.996 . S
O244 C251 1.257 . S
C245 O240 1.254 . S
C245 O241 1.269 . S
C246 O247 1.249 . S
C246 O248 1.270 . S
O247 Zn239 1.943 . S
O247 C246 1.249 . S
O248 Zn238 2.067 . S
O248 C246 1.270 . S
C249 O242 1.262 . S
C249 O250 1.232 . S
O250 C249 1.232 . S
C251 O243 1.260 . S
C251 O244 1.257 . S
Zn252 O255 2.031 . S
Zn252 O257 2.049 . S
Zn252 O262 2.067 . S
Zn253 O254 1.962 . S
Zn253 O256 1.986 . S
Zn253 O258 1.996 . S
Zn253 O261 1.943 . S
O254 Zn253 1.962 . S
O254 C259 1.254 . S
O255 Zn252 2.031 . S
O255 C259 1.269 . S
O256 Zn253 1.986 . S
O256 C263 1.262 . S
O257 Zn252 2.049 . S
O257 C265 1.260 . S
O258 Zn253 1.996 . S
O258 C265 1.257 . S
C259 O254 1.254 . S
C259 O255 1.269 . S
C260 O261 1.249 . S
C260 O262 1.270 . S
O261 Zn253 1.943 . S
O261 C260 1.249 . S
O262 Zn252 2.067 . S
O262 C260 1.270 . S
C263 O256 1.262 . S
C263 O264 1.232 . S
O264 C263 1.232 . S
C265 O257 1.260 . S
C265 O258 1.257 . S
Zn266 O269 2.031 1_545 S
Zn266 O271 2.049 . S
Zn266 O276 2.067 . S
Zn267 O268 1.962 1_545 S
Zn267 O270 1.986 . S
Zn267 O272 1.996 . S
Zn267 O275 1.943 . S
O268 Zn267 1.962 1_565 S
O268 C273 1.254 . S
O269 Zn266 2.031 1_565 S
O269 C273 1.269 . S
O270 Zn267 1.986 . S
O270 C277 1.262 1_545 S
O271 Zn266 2.049 . S
O271 C279 1.260 . S
O272 Zn267 1.996 . S
O272 C279 1.257 . S
C273 O268 1.254 . S
C273 O269 1.269 . S
C274 O275 1.249 . S
C274 O276 1.270 . S
O275 Zn267 1.943 . S
O275 C274 1.249 . S
O276 Zn266 2.067 . S
O276 C274 1.270 . S
C277 O270 1.262 1_565 S
C277 O278 1.232 . S
O278 C277 1.232 . S
C279 O271 1.260 . S
C279 O272 1.257 . S
Zn280 O283 2.031 1_554 S
Zn280 O285 2.049 . S
Zn280 O290 2.067 . S
Zn281 O282 1.962 1_554 S
Zn281 O284 1.986 . S
Zn281 O286 1.996 . S
Zn281 O289 1.943 . S
O282 Zn281 1.962 1_556 S
O282 C287 1.254 . S
O283 Zn280 2.031 1_556 S
O283 C287 1.269 . S
O284 Zn281 1.986 . S
O284 C291 1.262 1_554 S
O285 Zn280 2.049 . S
O285 C293 1.260 . S
O286 Zn281 1.996 . S
O286 C293 1.257 . S
C287 O282 1.254 . S
C287 O283 1.269 . S
C288 O289 1.249 . S
C288 O290 1.270 . S
O289 Zn281 1.943 . S
O289 C288 1.249 . S
O290 Zn280 2.067 . S
O290 C288 1.270 . S
C291 O284 1.262 1_556 S
C291 O292 1.232 . S
O292 C291 1.232 . S
C293 O285 1.260 . S
C293 O286 1.257 . S
Zn294 O297 2.031 . S
Zn294 O299 2.049 . S
Zn294 O304 2.067 . S
Zn295 O296 1.962 . S
Zn295 O298 1.986 . S
Zn295 O300 1.996 . S
Zn295 O303 1.943 . S
O296 Zn295 1.962 . S
O296 C301 1.254 . S
O297 Zn294 2.031 . S
O297 C301 1.269 . S
O298 Zn295 1.986 . S
O298 C305 1.262 . S
O299 Zn294 2.049 . S
O299 C307 1.260 . S
O300 Zn295 1.996 . S
O300 C307 1.257 . S
C301 O296 1.254 . S
C301 O297 1.269 . S
C302 O303 1.249 . S
C302 O304 1.270 . S
O303 Zn295 1.943 . S
O303 C302 1.249 . S
O304 Zn294 2.067 . S
O304 C302 1.270 . S
C305 O298 1.262 . S
C305 O306 1.232 . S
O306 C305 1.232 . S
C307 O299 1.260 . S
C307 O300 1.257 . S
Zn308 O311 2.031 . S
Zn308 O313 2.049 . S
Zn308 O318 2.067 . S
Zn309 O310 1.962 . S
Zn309 O312 1.986 . S
Zn309 O314 1.996 . S
Zn309 O317 1.943 . S
O310 Zn309 1.962 . S
O310 C315 1.254 . S
O311 Zn308 2.031 . S
O311 C315 1.269 . S
O312 Zn309 1.986 . S
O312 C319 1.262 . S
O313 Zn308 2.049 . S
O313 C321 1.260 . S
O314 Zn309 1.996 . S
O314 C321 1.257 . S
C315 O310 1.254 . S
C315 O311 1.269 . S
C316 O317 1.249 . S
C316 O318 1.270 . S
O317 Zn309 1.943 . S
O317 C316 1.249 . S
O318 Zn308 2.067 . S
O318 C316 1.270 . S
C319 O312 1.262 . S
C319 O320 1.232 . S
O320 C319 1.232 . S
C321 O313 1.260 . S
C321 O314 1.257 . S
Zn322 O325 2.031 . S
Zn322 O327 2.049 . S
Zn322 O332 2.067 . S
Zn323 O324 1.962 . S
Zn323 O326 1.986 . S
Zn323 O328 1.996 . S
Zn323 O331 1.943 . S
O324 Zn323 1.962 . S
O324 C329 1.254 . S
O325 Zn322 2.031 . S
O325 C329 1.269 . S
O326 Zn323 1.986 . S
O326 C333 1.262 . S
O327 Zn322 2.049 . S
O327 C335 1.260 . S
O328 Zn323 1.996 . S
O328 C335 1.257 . S
C329 O324 1.254 . S
C329 O325 1.269 . S
C330 O331 1.249 . S
C330 O332 1.270 . S
O331 Zn323 1.943 . S
O331 C330 1.249 . S
O332 Zn322 2.067 . S
O332 C330 1.270 . S
C333 O326 1.262 . S
C333 O334 1.232 . S
O334 C333 1.232 . S
C335 O327 1.260 . S
C335 O328 1.257 . S
C336 C337 1.387 . S
C336 H340 0.950 . S
C336 C345 1.390 . S
C337 C336 1.387 . S
C337 C339 1.387 . S
H338 C345 0.950 . S
C339 C337 1.387 . S
C339 C341 1.390 . S
C339 H343 0.950 . S
H340 C336 0.950 . S
C341 C339 1.390 . S
C341 C342 1.387 . S
C341 H344 0.950 . S
C342 C341 1.387 . S
C342 C345 1.387 . S
H343 C339 0.950 . S
H344 C341 0.950 . S
C345 C336 1.390 . S
C345 H338 0.950 . S
C345 C342 1.387 . S
C346 C347 1.387 . S
C346 H350 0.950 . S
C346 C355 1.390 . S
C347 C346 1.387 . S
C347 C349 1.387 . S
H348 C355 0.950 . S
C349 C347 1.387 . S
C349 C351 1.390 . S
C349 H353 0.950 . S
H350 C346 0.950 . S
C351 C349 1.390 . S
C351 C352 1.387 . S
C351 H354 0.950 . S
C352 C351 1.387 . S
C352 C355 1.387 . S
H353 C349 0.950 . S
H354 C351 0.950 . S
C355 C346 1.390 . S
C355 H348 0.950 . S
C355 C352 1.387 . S
C356 C357 1.387 . S
C356 H360 0.950 . S
C356 C365 1.390 . S
C357 C356 1.387 . S
C357 C359 1.387 . S
H358 C365 0.950 . S
C359 C357 1.387 . S
C359 C361 1.390 . S
C359 H363 0.950 . S
H360 C356 0.950 . S
C361 C359 1.390 . S
C361 C362 1.387 . S
C361 H364 0.950 . S
C362 C361 1.387 . S
C362 C365 1.387 . S
H363 C359 0.950 . S
H364 C361 0.950 . S
C365 C356 1.390 . S
C365 H358 0.950 . S
C365 C362 1.387 . S
C366 C367 1.387 . S
C366 H370 0.950 . S
C366 C375 1.390 . S
C367 C366 1.387 . S
C367 C369 1.387 . S
H368 C375 0.950 . S
C369 C367 1.387 . S
C369 C371 1.390 . S
C369 H373 0.950 . S
H370 C366 0.950 . S
C371 C369 1.390 . S
C371 C372 1.387 . S
C371 H374 0.950 . S
C372 C371 1.387 . S
C372 C375 1.387 . S
H373 C369 0.950 . S
H374 C371 0.950 . S
C375 C366 1.390 . S
C375 H368 0.950 . S
C375 C372 1.387 . S
C376 C377 1.387 . S
C376 H380 0.950 . S
C376 C385 1.390 . S
C377 C376 1.387 . S
C377 C379 1.387 . S
H378 C385 0.950 . S
C379 C377 1.387 . S
C379 C381 1.390 . S
C379 H383 0.950 . S
H380 C376 0.950 . S
C381 C379 1.390 . S
C381 C382 1.387 . S
C381 H384 0.950 . S
C382 C381 1.387 . S
C382 C385 1.387 . S
H383 C379 0.950 . S
H384 C381 0.950 . S
C385 C376 1.390 . S
C385 H378 0.950 . S
C385 C382 1.387 . S
C386 C387 1.387 . S
C386 H390 0.950 . S
C386 C395 1.390 . S
C387 C386 1.387 . S
C387 C389 1.387 . S
H388 C395 0.950 . S
C389 C387 1.387 . S
C389 C391 1.390 . S
C389 H393 0.950 . S
H390 C386 0.950 . S
C391 C389 1.390 . S
C391 C392 1.387 . S
C391 H394 0.950 . S
C392 C391 1.387 . S
C392 C395 1.387 . S
H393 C389 0.950 . S
H394 C391 0.950 . S
C395 C386 1.390 . S
C395 H388 0.950 . S
C395 C392 1.387 . S
C396 C397 1.387 . S
C396 H400 0.950 . S
C396 C405 1.390 . S
C397 C396 1.387 . S
C397 C399 1.387 . S
H398 C405 0.950 . S
C399 C397 1.387 . S
C399 C401 1.390 . S
C399 H403 0.950 . S
H400 C396 0.950 . S
C401 C399 1.390 . S
C401 C402 1.387 . S
C401 H404 0.950 . S
C402 C401 1.387 . S
C402 C405 1.387 . S
H403 C399 0.950 . S
H404 C401 0.950 . S
C405 C396 1.390 . S
C405 H398 0.950 . S
C405 C402 1.387 . S
C406 C407 1.387 . S
C406 H410 0.950 . S
C406 C415 1.390 . S
C407 C406 1.387 . S
C407 C409 1.387 . S
H408 C415 0.950 . S
C409 C407 1.387 . S
C409 C411 1.390 . S
C409 H413 0.950 . S
H410 C406 0.950 . S
C411 C409 1.390 . S
C411 C412 1.387 . S
C411 H414 0.950 . S
C412 C411 1.387 . S
C412 C415 1.387 . S
H413 C409 0.950 . S
H414 C411 0.950 . S
C415 C406 1.390 . S
C415 H408 0.950 . S
C415 C412 1.387 . S
C416 C417 1.387 . S
C416 H420 0.950 . S
C416 C425 1.390 . S
C417 C416 1.387 . S
C417 C419 1.387 . S
H418 C425 0.950 1_565 S
C419 C417 1.387 . S
C419 C421 1.390 . S
C419 H423 0.950 . S
H420 C416 0.950 . S
C421 C419 1.390 . S
C421 C422 1.387 . S
C421 H424 0.950 . S
C422 C421 1.387 . S
C422 C425 1.387 . S
H423 C419 0.950 . S
H424 C421 0.950 . S
C425 C416 1.390 . S
C425 H418 0.950 1_545 S
C425 C422 1.387 . S
C426 C427 1.387 . S
C426 H430 0.950 1_545 S
C426 C435 1.390 . S
C427 C426 1.387 . S
C427 C429 1.387 . S
H428 C435 0.950 . S
C429 C427 1.387 . S
C429 C431 1.390 . S
C429 H433 0.950 . S
H430 C426 0.950 1_565 S
C431 C429 1.390 . S
C431 C432 1.387 . S
C431 H434 0.950 . S
C432 C431 1.387 . S
C432 C435 1.387 . S
H433 C429 0.950 . S
H434 C431 0.950 . S
C435 C426 1.390 . S
C435 H428 0.950 . S
C435 C432 1.387 . S
C436 C437 1.387 . S
C436 H440 0.950 . S
C436 C445 1.390 . S
C437 C436 1.387 . S
C437 C439 1.387 . S
H438 C445 0.950 . S
C439 C437 1.387 . S
C439 C441 1.390 . S
C439 H443 0.950 1_565 S
H440 C436 0.950 . S
C441 C439 1.390 . S
C441 C442 1.387 . S
C441 H444 0.950 . S
C442 C441 1.387 . S
C442 C445 1.387 . S
H443 C439 0.950 1_545 S
H444 C441 0.950 . S
C445 C436 1.390 . S
C445 H438 0.950 . S
C445 C442 1.387 . S
C446 C447 1.387 . S
C446 H450 0.950 . S
C446 C455 1.390 . S
C447 C446 1.387 . S
C447 C449 1.387 . S
H448 C455 0.950 . S
C449 C447 1.387 . S
C449 C451 1.390 . S
C449 H453 0.950 . S
H450 C446 0.950 . S
C451 C449 1.390 . S
C451 C452 1.387 . S
C451 H454 0.950 1_565 S
C452 C451 1.387 . S
C452 C455 1.387 . S
H453 C449 0.950 . S
H454 C451 0.950 1_545 S
C455 C446 1.390 . S
C455 H448 0.950 . S
C455 C452 1.387 . S
C456 C457 1.387 . S
C456 H460 0.950 . S
C456 C465 1.390 . S
C457 C456 1.387 . S
C457 C459 1.387 . S
H458 C465 0.950 . S
C459 C457 1.387 . S
C459 C461 1.390 . S
C459 H463 0.950 . S
H460 C456 0.950 . S
C461 C459 1.390 . S
C461 C462 1.387 . S
C461 H464 0.950 . S
C462 C461 1.387 . S
C462 C465 1.387 . S
H463 C459 0.950 . S
H464 C461 0.950 . S
C465 C456 1.390 . S
C465 H458 0.950 . S
C465 C462 1.387 . S
C466 C467 1.387 . S
C466 H470 0.950 . S
C466 C475 1.390 . S
C467 C466 1.387 . S
C467 C469 1.387 . S
H468 C475 0.950 . S
C469 C467 1.387 . S
C469 C471 1.390 . S
C469 H473 0.950 . S
H470 C466 0.950 . S
C471 C469 1.390 . S
C471 C472 1.387 . S
C471 H474 0.950 . S
C472 C471 1.387 . S
C472 C475 1.387 . S
H473 C469 0.950 . S
H474 C471 0.950 . S
C475 C466 1.390 . S
C475 H468 0.950 . S
C475 C472 1.387 . S
C476 C477 1.387 . S
C476 H480 0.950 . S
C476 C485 1.390 . S
C477 C476 1.387 . S
C477 C479 1.387 . S
H478 C485 0.950 . S
C479 C477 1.387 . S
C479 C481 1.390 . S
C479 H483 0.950 . S
H480 C476 0.950 . S
C481 C479 1.390 . S
C481 C482 1.387 . S
C481 H484 0.950 . S
C482 C481 1.387 . S
C482 C485 1.387 . S
H483 C479 0.950 . S
H484 C481 0.950 . S
C485 C476 1.390 . S
C485 H478 0.950 . S
C485 C482 1.387 . S
C486 C487 1.387 . S
C486 H490 0.950 1_655 S
C486 C495 1.390 . S
C487 C486 1.387 . S
C487 C489 1.387 . S
H488 C495 0.950 . S
C489 C487 1.387 . S
C489 C491 1.390 . S
C489 H493 0.950 . S
H490 C486 0.950 1_455 S
C491 C489 1.390 . S
C491 C492 1.387 . S
C491 H494 0.950 . S
C492 C491 1.387 . S
C492 C495 1.387 . S
H493 C489 0.950 . S
H494 C491 0.950 . S
C495 C486 1.390 . S
C495 H488 0.950 . S
C495 C492 1.387 . S
C496 C497 1.387 . S
C496 H500 0.950 . S
C496 C505 1.390 . S
C497 C496 1.387 . S
C497 C499 1.387 . S
H498 C505 0.950 . S
C499 C497 1.387 . S
C499 C501 1.390 . S
C499 H503 0.950 . S
H500 C496 0.950 . S
C501 C499 1.390 . S
C501 C502 1.387 . S
C501 H504 0.950 . S
C502 C501 1.387 . S
C502 C505 1.387 . S
H503 C499 0.950 . S
H504 C501 0.950 . S
C505 C496 1.390 . S
C505 H498 0.950 . S
C505 C502 1.387 . S
C506 C507 1.387 . S
C506 H510 0.950 . S
C506 C515 1.390 . S
C507 C506 1.387 . S
C507 C509 1.387 . S
H508 C515 0.950 . S
C509 C507 1.387 . S
C509 C511 1.390 . S
C509 H513 0.950 . S
H510 C506 0.950 . S
C511 C509 1.390 . S
C511 C512 1.387 . S
C511 H514 0.950 . S
C512 C511 1.387 . S
C512 C515 1.387 . S
H513 C509 0.950 . S
H514 C511 0.950 . S
C515 C506 1.390 . S
C515 H508 0.950 . S
C515 C512 1.387 . S
C516 C517 1.368 1_554 S
C516 H520 0.979 . S
C516 C525 1.380 1_554 S
C517 C516 1.368 1_556 S
C517 C519 1.387 . S
H518 C525 0.950 1_554 S
C519 C517 1.387 . S
C519 C521 1.390 . S
C519 H523 0.950 . S
H520 C516 0.979 . S
C521 C519 1.390 . S
C521 C522 1.387 . S
C521 H524 0.950 . S
C522 C521 1.387 . S
C522 C525 1.387 . S
H523 C519 0.950 . S
H524 C521 0.950 . S
C525 C516 1.380 1_556 S
C525 H518 0.950 1_556 S
C525 C522 1.387 . S
C526 C527 1.387 . S
C526 H530 0.950 . S
C526 C535 1.390 . S
C527 C526 1.387 . S
C527 C529 1.387 . S
H528 C535 0.950 . S
C529 C527 1.387 . S
C529 C531 1.390 . S
C529 H533 0.950 . S
H530 C526 0.950 . S
C531 C529 1.390 . S
C531 C532 1.387 . S
C531 H534 0.950 1_655 S
C532 C531 1.387 . S
C532 C535 1.387 . S
H533 C529 0.950 . S
H534 C531 0.950 1_455 S
C535 C526 1.390 . S
C535 H528 0.950 . S
C535 C532 1.387 . S
C536 C537 1.387 . S
C536 H540 0.950 . S
C536 C545 1.390 . S
C537 C536 1.387 . S
C537 C539 1.387 . S
H538 C545 0.950 . S
C539 C537 1.387 . S
C539 C541 1.390 . S
C539 H543 0.950 . S
H540 C536 0.950 . S
C541 C539 1.390 . S
C541 C542 1.387 . S
C541 H544 0.950 . S
C542 C541 1.387 . S
C542 C545 1.387 . S
H543 C539 0.950 . S
H544 C541 0.950 . S
C545 C536 1.390 . S
C545 H538 0.950 . S
C545 C542 1.387 . S
C546 C547 1.387 . S
C546 H550 0.950 . S
C546 C555 1.390 . S
C547 C546 1.387 . S
C547 C549 1.387 . S
H548 C555 0.950 . S
C549 C547 1.387 . S
C549 C551 1.390 . S
C549 H553 0.950 . S
H550 C546 0.950 . S
C551 C549 1.390 . S
C551 C552 1.387 . S
C551 H554 0.950 . S
C552 C551 1.387 . S
C552 C555 1.387 . S
H553 C549 0.950 . S
H554 C551 0.950 . S
C555 C546 1.390 . S
C555 H548 0.950 . S
C555 C552 1.387 . S
C556 C557 1.387 . S
C556 H560 0.950 . S
C556 C565 1.390 . S
C557 C556 1.387 . S
C557 C559 1.387 . S
H558 C565 0.950 . S
C559 C557 1.387 . S
C559 C561 1.390 . S
C559 H563 0.950 . S
H560 C556 0.950 . S
C561 C559 1.390 . S
C561 C562 1.387 . S
C561 H564 0.950 . S
C562 C561 1.387 . S
C562 C565 1.387 . S
H563 C559 0.950 . S
H564 C561 0.950 . S
C565 C556 1.390 . S
C565 H558 0.950 . S
C565 C562 1.387 . S
C566 C567 1.387 . S
C566 H570 0.950 . S
C566 C575 1.390 . S
C567 C566 1.387 . S
C567 C569 1.387 . S
H568 C575 0.950 . S
C569 C567 1.387 . S
C569 C571 1.390 . S
C569 H573 0.950 1_565 S
H570 C566 0.950 . S
C571 C569 1.390 . S
C571 C572 1.387 . S
C571 H574 0.950 1_565 S
C572 C571 1.387 . S
C572 C575 1.387 . S
H573 C569 0.950 1_545 S
H574 C571 0.950 1_545 S
C575 C566 1.390 . S
C575 H568 0.950 . S
C575 C572 1.387 . S
C576 C577 1.387 . S
C576 H580 0.950 . S
C576 C585 1.390 . S
C577 C576 1.387 . S
C577 C579 1.387 . S
H578 C585 0.950 . S
C579 C577 1.387 . S
C579 C581 1.390 . S
C579 H583 0.950 1_565 S
H580 C576 0.950 . S
C581 C579 1.390 . S
C581 C582 1.387 . S
C581 H584 0.950 . S
C582 C581 1.387 . S
C582 C585 1.387 . S
H583 C579 0.950 1_545 S
H584 C581 0.950 . S
C585 C576 1.390 . S
C585 H578 0.950 . S
C585 C582 1.387 . S
C586 C587 1.387 . S
C586 H590 0.950 . S
C586 C595 1.390 . S
C587 C586 1.387 . S
C587 C589 1.387 . S
H588 C595 0.950 . S
C589 C587 1.387 . S
C589 C591 1.390 . S
C589 H593 0.950 . S
H590 C586 0.950 . S
C591 C589 1.390 . S
C591 C592 1.387 . S
C591 H594 0.950 . S
C592 C591 1.387 . S
C592 C595 1.387 . S
H593 C589 0.950 . S
H594 C591 0.950 . S
C595 C586 1.390 . S
C595 H588 0.950 . S
C595 C592 1.387 . S
C596 C597 1.387 . S
C596 H600 0.950 . S
C596 C605 1.390 . S
C597 C596 1.387 . S
C597 C599 1.387 . S
H598 C605 0.950 . S
C599 C597 1.387 . S
C599 C601 1.390 . S
C599 H603 0.950 . S
H600 C596 0.950 . S
C601 C599 1.390 . S
C601 C602 1.387 . S
C601 H604 0.950 . S
C602 C601 1.387 . S
C602 C605 1.387 . S
H603 C599 0.950 . S
H604 C601 0.950 . S
C605 C596 1.390 . S
C605 H598 0.950 . S
C605 C602 1.387 . S
C606 C607 1.387 . S
C606 H610 0.950 . S
C606 C615 1.390 . S
C607 C606 1.387 . S
C607 C609 1.387 . S
H608 C615 0.950 . S
C609 C607 1.387 . S
C609 C611 1.390 . S
C609 H613 0.945 1_556 S
H610 C606 0.950 . S
C611 C609 1.390 . S
C611 C612 1.387 . S
C611 H614 0.950 1_556 S
C612 C611 1.387 . S
C612 C615 1.387 . S
H613 C609 0.945 1_554 S
H614 C611 0.950 1_554 S
C615 C606 1.390 . S
C615 H608 0.950 . S
C615 C612 1.387 . S
C616 C617 1.387 . S
C616 H620 0.950 . S
C616 C625 1.390 . S
C617 C616 1.387 . S
C617 C619 1.387 . S
H618 C625 0.950 . S
C619 C617 1.387 . S
C619 C621 1.390 . S
C619 H623 0.950 . S
H620 C616 0.950 . S
C621 C619 1.390 . S
C621 C622 1.387 . S
C621 H624 0.950 . S
C622 C621 1.387 . S
C622 C625 1.387 . S
H623 C619 0.950 . S
H624 C621 0.950 . S
C625 C616 1.390 . S
C625 H618 0.950 . S
C625 C622 1.387 . S
C626 C627 1.387 . S
C626 H630 0.950 . S
C626 C635 1.390 . S
C627 C626 1.387 . S
C627 C629 1.387 . S
H628 C635 0.950 . S
C629 C627 1.387 . S
C629 C631 1.390 . S
C629 H633 0.950 . S
H630 C626 0.950 . S
C631 C629 1.390 . S
C631 C632 1.387 . S
C631 H634 0.950 . S
C632 C631 1.387 . S
C632 C635 1.387 . S
H633 C629 0.950 . S
H634 C631 0.950 . S
C635 C626 1.390 . S
C635 H628 0.950 . S
C635 C632 1.387 . S
C636 C637 1.387 . S
C636 H640 0.950 . S
C636 C645 1.390 . S
C637 C636 1.387 . S
C637 C639 1.387 . S
H638 C645 0.950 . S
C639 C637 1.387 . S
C639 C641 1.390 . S
C639 H643 0.950 . S
H640 C636 0.950 . S
C641 C639 1.390 . S
C641 C642 1.387 . S
C641 H644 0.950 . S
C642 C641 1.387 . S
C642 C645 1.387 . S
H643 C639 0.950 . S
H644 C641 0.950 . S
C645 C636 1.390 . S
C645 H638 0.950 . S
C645 C642 1.387 . S
C646 C647 1.387 . S
C646 H650 0.950 . S
C646 C655 1.390 . S
C647 C646 1.387 . S
C647 C649 1.387 . S
H648 C655 0.950 . S
C649 C647 1.387 . S
C649 C651 1.390 . S
C649 H653 0.950 . S
H650 C646 0.950 . S
C651 C649 1.390 . S
C651 C652 1.387 . S
C651 H654 0.950 . S
C652 C651 1.387 . S
C652 C655 1.387 . S
H653 C649 0.950 . S
H654 C651 0.950 . S
C655 C646 1.390 . S
C655 H648 0.950 . S
C655 C652 1.387 . S
C656 C657 1.387 . S
C656 H660 0.950 . S
C656 C665 1.390 . S
C657 C656 1.387 . S
C657 C659 1.387 . S
H658 C665 0.950 . S
C659 C657 1.387 . S
C659 C661 1.390 . S
C659 H663 0.950 . S
H660 C656 0.950 . S
C661 C659 1.390 . S
C661 C662 1.387 . S
C661 H664 0.950 . S
C662 C661 1.387 . S
C662 C665 1.387 . S
H663 C659 0.950 . S
H664 C661 0.950 . S
C665 C656 1.390 . S
C665 H658 0.950 . S
C665 C662 1.387 . S
C666 C667 1.387 . S
C666 H670 0.950 . S
C666 C675 1.390 . S
C667 C666 1.387 . S
C667 C669 1.387 . S
H668 C675 0.950 . S
C669 C667 1.387 . S
C669 C671 1.390 . S
C669 H673 0.950 . S
H670 C666 0.950 . S
C671 C669 1.390 . S
C671 C672 1.387 . S
C671 H674 0.950 . S
C672 C671 1.387 . S
C672 C675 1.387 . S
H673 C669 0.950 . S
H674 C671 0.950 . S
C675 C666 1.390 . S
C675 H668 0.950 . S
C675 C672 1.387 . S
C676 C677 1.387 . S
C676 H680 0.950 . S
C676 C685 1.390 . S
C677 C676 1.387 . S
C677 C679 1.387 . S
H678 C685 0.950 . S
C679 C677 1.387 . S
C679 C681 1.390 . S
C679 H683 0.950 . S
H680 C676 0.950 . S
C681 C679 1.390 . S
C681 C682 1.387 . S
C681 H684 0.950 . S
C682 C681 1.387 . S
C682 C685 1.387 . S
H683 C679 0.950 . S
H684 C681 0.950 . S
C685 C676 1.390 . S
C685 H678 0.950 . S
C685 C682 1.387 . S
C686 C687 1.387 . S
C686 H690 0.950 . S
C686 C695 1.390 . S
C687 C686 1.387 . S
C687 C689 1.387 . S
H688 C695 0.950 . S
C689 C687 1.387 . S
C689 C691 1.390 . S
C689 H693 0.950 . S
H690 C686 0.950 . S
C691 C689 1.390 . S
C691 C692 1.387 . S
C691 H694 0.950 . S
C692 C691 1.387 . S
C692 C695 1.387 . S
H693 C689 0.950 . S
H694 C691 0.950 . S
C695 C686 1.390 . S
C695 H688 0.950 . S
C695 C692 1.387 . S
C696 C697 1.387 . S
C696 H700 0.950 . S
C696 C705 1.390 . S
C697 C696 1.387 . S
C697 C699 1.387 . S
H698 C705 0.950 . S
C699 C697 1.387 . S
C699 C701 1.390 . S
C699 H703 0.950 . S
H700 C696 0.950 . S
C701 C699 1.390 . S
C701 C702 1.387 . S
C701 H704 0.950 . S
C702 C701 1.387 . S
C702 C705 1.387 . S
H703 C699 0.950 . S
H704 C701 0.950 . S
C705 C696 1.390 . S
C705 H698 0.950 . S
C705 C702 1.387 . S
C706 C707 1.387 . S
C706 H710 0.950 . S
C706 C715 1.390 . S
C707 C706 1.387 . S
C707 C709 1.387 . S
H708 C715 0.950 . S
C709 C707 1.387 . S
C709 C711 1.390 . S
C709 H713 0.950 . S
H710 C706 0.950 . S
C711 C709 1.390 . S
C711 C712 1.387 . S
C711 H714 0.950 . S
C712 C711 1.387 . S
C712 C715 1.387 . S
H713 C709 0.950 . S
H714 C711 0.950 . S
C715 C706 1.390 . S
C715 H708 0.950 . S
C715 C712 1.387 . S
C716 C717 1.387 . S
C716 H720 0.950 . S
C716 C725 1.390 . S
C717 C716 1.387 . S
C717 C719 1.387 . S
H718 C725 0.950 . S
C719 C717 1.387 . S
C719 C721 1.390 . S
C719 H723 0.950 . S
H720 C716 0.950 . S
C721 C719 1.390 . S
C721 C722 1.387 . S
C721 H724 0.950 . S
C722 C721 1.387 . S
C722 C725 1.387 . S
H723 C719 0.950 . S
H724 C721 0.950 . S
C725 C716 1.390 . S
C725 H718 0.950 . S
C725 C722 1.387 . S
C726 C727 1.387 . S
C726 H730 0.950 . S
C726 C735 1.390 . S
C727 C726 1.387 . S
C727 C729 1.387 . S
H728 C735 0.950 . S
C729 C727 1.387 . S
C729 C731 1.390 . S
C729 H733 0.950 . S
H730 C726 0.950 . S
C731 C729 1.390 . S
C731 C732 1.387 . S
C731 H734 0.950 . S
C732 C731 1.387 . S
C732 C735 1.387 . S
H733 C729 0.950 . S
H734 C731 0.950 . S
C735 C726 1.390 . S
C735 H728 0.950 . S
C735 C732 1.387 . S
C736 C737 1.387 . S
C736 H740 0.950 . S
C736 C745 1.390 . S
C737 C736 1.387 . S
C737 C739 1.387 . S
H738 C745 0.950 . S
C739 C737 1.387 . S
C739 C741 1.390 . S
C739 H743 0.950 . S
H740 C736 0.950 . S
C741 C739 1.390 . S
C741 C742 1.387 . S
C741 H744 0.950 . S
C742 C741 1.387 . S
C742 C745 1.387 . S
H743 C739 0.950 . S
H744 C741 0.950 . S
C745 C736 1.390 . S
C745 H738 0.950 . S
C745 C742 1.387 . S
C746 C747 1.387 . S
C746 H750 0.950 . S
C746 C755 1.390 . S
C747 C746 1.387 . S
C747 C749 1.387 . S
H748 C755 0.950 . S
C749 C747 1.387 . S
C749 C751 1.390 . S
C749 H753 0.950 . S
H750 C746 0.950 . S
C751 C749 1.390 . S
C751 C752 1.387 . S
C751 H754 0.950 . S
C752 C751 1.387 . S
C752 C755 1.387 . S
H753 C749 0.950 . S
H754 C751 0.950 . S
C755 C746 1.390 . S
C755 H748 0.950 . S
C755 C752 1.387 . S
C756 C757 1.387 . S
C756 H760 0.950 . S
C756 C765 1.390 . S
C757 C756 1.387 . S
C757 C759 1.387 . S
H758 C765 0.950 . S
C759 C757 1.387 . S
C759 C761 1.390 . S
C759 H763 0.950 . S
H760 C756 0.950 . S
C761 C759 1.390 . S
C761 C762 1.387 . S
C761 H764 0.950 . S
C762 C761 1.387 . S
C762 C765 1.387 . S
H763 C759 0.950 . S
H764 C761 0.950 . S
C765 C756 1.390 . S
C765 H758 0.950 . S
C765 C762 1.387 . S
C766 C767 1.387 . S
C766 H770 0.950 . S
C766 C775 1.390 . S
C767 C766 1.387 . S
C767 C769 1.387 . S
H768 C775 0.950 . S
C769 C767 1.387 . S
C769 C771 1.390 . S
C769 H773 0.950 . S
H770 C766 0.950 . S
C771 C769 1.390 . S
C771 C772 1.387 . S
C771 H774 0.950 . S
C772 C771 1.387 . S
C772 C775 1.387 . S
H773 C769 0.950 . S
H774 C771 0.950 . S
C775 C766 1.390 . S
C775 H768 0.950 . S
C775 C772 1.387 . S
C776 C777 1.387 . S
C776 H780 0.950 . S
C776 C785 1.390 . S
C777 C776 1.387 . S
C777 C779 1.387 . S
H778 C785 0.950 . S
C779 C777 1.387 . S
C779 C781 1.390 . S
C779 H783 0.950 . S
H780 C776 0.950 . S
C781 C779 1.390 . S
C781 C782 1.387 . S
C781 H784 0.950 . S
C782 C781 1.387 . S
C782 C785 1.387 . S
H783 C779 0.950 . S
H784 C781 0.950 . S
C785 C776 1.390 . S
C785 H778 0.950 . S
C785 C782 1.387 . S
C786 C787 1.387 . S
C786 H790 0.950 . S
C786 C795 1.390 . S
C787 C786 1.387 . S
C787 C789 1.387 . S
H788 C795 0.950 . S
C789 C787 1.387 . S
C789 C791 1.390 . S
C789 H793 0.950 . S
H790 C786 0.950 . S
C791 C789 1.390 . S
C791 C792 1.387 . S
C791 H794 0.950 . S
C792 C791 1.387 . S
C792 C795 1.387 . S
H793 C789 0.950 . S
H794 C791 0.950 . S
C795 C786 1.390 . S
C795 H788 0.950 . S
C795 C792 1.387 . S
C796 C797 1.387 . S
C796 H800 0.950 . S
C796 C805 1.390 . S
C797 C796 1.387 . S
C797 C799 1.387 . S
H798 C805 0.950 . S
C799 C797 1.387 . S
C799 C801 1.390 . S
C799 H803 0.950 . S
H800 C796 0.950 . S
C801 C799 1.390 . S
C801 C802 1.387 . S
C801 H804 0.950 . S
C802 C801 1.387 . S
C802 C805 1.387 . S
H803 C799 0.950 . S
H804 C801 0.950 . S
C805 C796 1.390 . S
C805 H798 0.950 . S
C805 C802 1.387 . S
C806 C807 1.387 . S
C806 H810 0.950 . S
C806 C815 1.390 . S
C807 C806 1.387 . S
C807 C809 1.387 . S
H808 C815 0.950 . S
C809 C807 1.387 . S
C809 C811 1.390 . S
C809 H813 0.950 . S
H810 C806 0.950 . S
C811 C809 1.390 . S
C811 C812 1.387 . S
C811 H814 0.950 . S
C812 C811 1.387 . S
C812 C815 1.387 . S
H813 C809 0.950 . S
H814 C811 0.950 . S
C815 C806 1.390 . S
C815 H808 0.950 . S
C815 C812 1.387 . S
C337 C203 1.503 . S
C342 C11 1.474 . S
C347 C21 1.503 . S
C352 C221 1.474 . S
C357 C260 1.485 . S
C362 C36 1.485 . S
C367 C55 1.333 . S
C372 C195 1.334 . S
C377 C209 1.335 . S
C382 C69 1.332 . S
C387 C78 1.481 . S
C392 C218 1.481 . S
C397 C91 1.503 . S
C402 C263 1.472 . S
C407 C109 1.472 . S
C412 C189 1.503 . S
C417 C133 1.503 . S
C422 C123 1.474 . S
C427 C153 1.334 . S
C432 C139 1.336 . S
C437 C147 1.503 . S
C442 C165 1.472 . S
C447 C162 1.482 . S
C452 C120 1.482 . S
C457 C179 1.472 . S
C462 C49 1.503 . S
C467 C63 1.503 . S
C472 C235 1.472 . S
C477 C251 1.336 . S
C482 C27 1.332 . S
C487 C25 1.352 . S
C492 C307 1.327 . S
C497 C137 1.352 . S
C502 C13 1.328 . S
C507 C330 1.316 . S
C512 C50 1.319 . S
C517 C161 1.357 . S
C522 C35 1.357 . S
C527 C301 1.358 . S
C532 C105 1.357 . S
C537 C134 1.317 . S
C542 C92 1.317 . S
C547 C83 1.328 . S
C552 C333 1.352 . S
C557 C67 1.351 . S
C562 C167 1.328 . S
C567 C223 1.325 . S
C572 C277 1.353 . S
C577 C231 1.357 . S
C582 C217 1.358 . S
C587 C193 1.353 . S
C592 C237 1.325 . S
C597 C274 1.316 . S
C602 C190 1.319 . S
C607 C41 1.325 . S
C612 C291 1.353 . S
C617 C151 1.351 . S
C622 C111 1.328 . S
C627 C7 1.357 . S
C632 C315 1.357 . S
C637 C273 1.503 . S
C642 C39 1.474 . S
C647 C8 1.482 . S
C652 C232 1.483 . S
C657 C279 1.336 . S
C662 C97 1.333 . S
C667 C176 1.485 . S
C672 C106 1.485 . S
C677 C81 1.474 . S
C682 C245 1.503 . S
C687 C305 1.472 . S
C692 C287 1.503 . S
C697 C335 1.334 . S
C702 C293 1.336 . S
C707 C319 1.474 . S
C712 C329 1.503 . S
C717 C302 1.481 . S
C722 C316 1.482 . S
C727 C125 1.327 . S
C732 C53 1.352 . S
C737 C22 1.317 . S
C742 C148 1.317 . S
C747 C77 1.357 . S
C752 C119 1.357 . S
C757 C288 1.317 . S
C762 C64 1.317 . S
C767 C95 1.353 . S
C772 C321 1.326 . S
C777 C181 1.327 . S
C782 C207 1.352 . S
C787 C259 1.358 . S
C792 C175 1.358 . S
C797 C249 1.352 . S
C802 C265 1.326 . S
C807 C204 1.319 . S
C812 C246 1.317 . S
