# Generated by pormake.
# Topology wjz, (5)-cn, num edge types: 1
# Building blocks:
#     Node 0, Type 0, BuildingBlock: BEQFEK_clean_sbu_0, # of connection points: 5
#     Node 1, Type 0, BuildingBlock: BEQFEK_clean_sbu_0, # of connection points: 5
#     Node 2, Type 0, BuildingBlock: BEQFEK_clean_sbu_0, # of connection points: 5
#     Node 3, Type 0, BuildingBlock: BEQFEK_clean_sbu_0, # of connection points: 5
#     Node 4, Type 0, BuildingBlock: BEQFEK_clean_sbu_0, # of connection points: 5
#     Node 5, Type 0, BuildingBlock: BEQFEK_clean_sbu_0, # of connection points: 5
#     Node 6, Type 0, BuildingBlock: BEQFEK_clean_sbu_0, # of connection points: 5
#     Node 7, Type 0, BuildingBlock: BEQFEK_clean_sbu_0, # of connection points: 5
#     Node 8, Type 0, BuildingBlock: BEQFEK_clean_sbu_0, # of connection points: 5
#     Node 9, Type 0, BuildingBlock: BEQFEK_clean_sbu_0, # of connection points: 5
#     Node 10, Type 0, BuildingBlock: BEQFEK_clean_sbu_0, # of connection points: 5
#     Node 11, Type 0, BuildingBlock: BEQFEK_clean_sbu_0, # of connection points: 5
#     Edge 12, Type (0, 0), BuildingBlock: KIFKEQ_clean_linker_1, # of connection points: 2
#     Edge 13, Type (0, 0), BuildingBlock: KIFKEQ_clean_linker_1, # of connection points: 2
#     Edge 14, Type (0, 0), BuildingBlock: KIFKEQ_clean_linker_1, # of connection points: 2
#     Edge 15, Type (0, 0), BuildingBlock: KIFKEQ_clean_linker_1, # of connection points: 2
#     Edge 16, Type (0, 0), BuildingBlock: KIFKEQ_clean_linker_1, # of connection points: 2
#     Edge 17, Type (0, 0), BuildingBlock: KIFKEQ_clean_linker_1, # of connection points: 2
#     Edge 18, Type (0, 0), BuildingBlock: KIFKEQ_clean_linker_1, # of connection points: 2
#     Edge 19, Type (0, 0), BuildingBlock: KIFKEQ_clean_linker_1, # of connection points: 2
#     Edge 20, Type (0, 0), BuildingBlock: KIFKEQ_clean_linker_1, # of connection points: 2
#     Edge 21, Type (0, 0), BuildingBlock: KIFKEQ_clean_linker_1, # of connection points: 2
#     Edge 22, Type (0, 0), BuildingBlock: KIFKEQ_clean_linker_1, # of connection points: 2
#     Edge 23, Type (0, 0), BuildingBlock: KIFKEQ_clean_linker_1, # of connection points: 2
#     Edge 24, Type (0, 0), BuildingBlock: KIFKEQ_clean_linker_1, # of connection points: 2
#     Edge 25, Type (0, 0), BuildingBlock: KIFKEQ_clean_linker_1, # of connection points: 2
#     Edge 26, Type (0, 0), BuildingBlock: KIFKEQ_clean_linker_1, # of connection points: 2
#     Edge 27, Type (0, 0), BuildingBlock: KIFKEQ_clean_linker_1, # of connection points: 2
#     Edge 28, Type (0, 0), BuildingBlock: KIFKEQ_clean_linker_1, # of connection points: 2
#     Edge 29, Type (0, 0), BuildingBlock: KIFKEQ_clean_linker_1, # of connection points: 2
#     Edge 30, Type (0, 0), BuildingBlock: KIFKEQ_clean_linker_1, # of connection points: 2
#     Edge 31, Type (0, 0), BuildingBlock: KIFKEQ_clean_linker_1, # of connection points: 2
#     Edge 32, Type (0, 0), BuildingBlock: KIFKEQ_clean_linker_1, # of connection points: 2
#     Edge 33, Type (0, 0), BuildingBlock: KIFKEQ_clean_linker_1, # of connection points: 2
#     Edge 34, Type (0, 0), BuildingBlock: KIFKEQ_clean_linker_1, # of connection points: 2
#     Edge 35, Type (0, 0), BuildingBlock: KIFKEQ_clean_linker_1, # of connection points: 2
#     Edge 36, Type (0, 0), BuildingBlock: KIFKEQ_clean_linker_1, # of connection points: 2
#     Edge 37, Type (0, 0), BuildingBlock: KIFKEQ_clean_linker_1, # of connection points: 2
#     Edge 38, Type (0, 0), BuildingBlock: KIFKEQ_clean_linker_1, # of connection points: 2
#     Edge 39, Type (0, 0), BuildingBlock: KIFKEQ_clean_linker_1, # of connection points: 2
#     Edge 40, Type (0, 0), BuildingBlock: KIFKEQ_clean_linker_1, # of connection points: 2
#     Edge 41, Type (0, 0), BuildingBlock: KIFKEQ_clean_linker_1, # of connection points: 2
# Relax obj value: 0.218
# Max RMSD: 0.195
# Mean RMSD: 0.195
data_MOF--net-wjz--node1-BEQFEK_clean_sbu_0--edge1-KIFKEQ_clean_linker_1
_symmetry_space_group_name_H-M    P1
_symmetry_Int_Tables_number       1
_symmetry_cell_setting            triclinic
loop_
_symmetry_equiv_pos_as_xyz
'x, y, z'
_cell_length_a     72.828336
_cell_length_b     72.819901
_cell_length_c     18.795284
_cell_angle_alpha  90.033093
_cell_angle_beta   89.978404
_cell_angle_gamma 120.04224
loop_
_atom_site_label
_atom_site_type_symbol
_atom_site_fract_x
_atom_site_fract_y
_atom_site_fract_z
_atom_type_partial_charge
Co0 Co 0.34444 0.4606 0.0608 0.0
Co1 Co 0.36384 0.48349 0.20328 0.0
C2 C 0.36599 0.44489 0.153 0.0
O3 O 0.35378 0.4414 0.10025 0.0
O4 O 0.37142 0.46083 0.19332 0.0
C5 C 0.34452 0.44697 0.92747 0.0
O6 O 0.361 0.44743 0.95781 0.0
C7 C 0.36437 0.47899 0.35422 0.0
C8 C 0.37938 0.51176 0.39555 0.0
C9 C 0.36999 0.49069 0.41659 0.0
N10 N 0.3701 0.49244 0.29915 0.0
N11 N 0.37932 0.51205 0.32382 0.0
C12 C 0.35135 0.45537 0.34619 0.0
H13 H 0.34271 0.45114 0.29478 0.0
H14 H 0.33975 0.44824 0.39029 0.0
H15 H 0.36201 0.44858 0.34683 0.0
C16 C 0.30583 0.45924 0.12073 0.0
N17 N 0.32623 0.46398 0.12433 0.0
N18 N 0.33449 0.47371 0.18484 0.0
C19 C 0.31961 0.47556 0.22176 0.0
C20 C 0.30091 0.46647 0.18241 0.0
C21 C 0.2919 0.44918 0.05742 0.0
H22 H 0.30089 0.45666 0.00802 0.0
H23 H 0.28712 0.43213 0.05579 0.0
H24 H 0.2775 0.45071 0.05929 0.0
O25 O 0.36952 0.48868 0.03856 0.0
O26 O 0.38214 0.50703 0.13825 0.0
H27 H 0.33738 0.50128 0.29391 0.0
H28 H 0.30937 0.48629 0.31417 0.0
C29 C 0.32312 0.48523 0.29445 0.0
H30 H 0.32583 0.47526 0.33256 0.0
H31 H 0.38498 0.52553 0.29189 0.0
O32 O 0.33214 0.45036 0.96579 0.0
C33 C 0.3826 0.50562 0.0708 0.0
Co34 Co 0.88574 0.34251 0.21076 0.0
Co35 Co 0.88384 0.362 0.3561 0.0
C36 C 0.9241 0.36411 0.29923 0.0
O37 O 0.91513 0.35313 0.24396 0.0
O38 O 0.91378 0.3686 0.34403 0.0
C39 C 0.89567 0.33341 0.07366 0.0
O40 O 0.91533 0.34432 0.09641 0.0
C41 C 0.88821 0.36245 0.50843 0.0
C42 C 0.86876 0.37593 0.54684 0.0
C43 C 0.88068 0.36701 0.56933 0.0
N44 N 0.88115 0.36839 0.45205 0.0
N45 N 0.86983 0.37681 0.47517 0.0
C46 C 0.89973 0.35029 0.50351 0.0
H47 H 0.89634 0.34177 0.45197 0.0
H48 H 0.89516 0.33878 0.54797 0.0
H49 H 0.91703 0.36156 0.50718 0.0
C50 C 0.85066 0.30369 0.27682 0.0
N51 N 0.86556 0.32441 0.27837 0.0
N52 N 0.86432 0.33269 0.33912 0.0
C53 C 0.84838 0.31747 0.37803 0.0
C54 C 0.83932 0.29855 0.34017 0.0
C55 C 0.84759 0.28919 0.21596 0.0
H56 H 0.86323 0.29282 0.19434 0.0
H57 H 0.83853 0.27231 0.23251 0.0
H58 H 0.83877 0.29192 0.17302 0.0
O59 O 0.8821 0.36713 0.18981 0.0
O60 O 0.87846 0.3804 0.29141 0.0
H61 H 0.82429 0.30855 0.45939 0.0
H62 H 0.85128 0.32197 0.49072 0.0
C63 C 0.84068 0.32132 0.44725 0.0
H64 H 0.84089 0.33661 0.44521 0.0
H65 H 0.86198 0.38215 0.44204 0.0
O66 O 0.8806 0.32872 0.11708 0.0
C67 C 0.87908 0.38052 0.22367 0.0
Co68 Co 0.54716 0.88697 0.39409 0.0
Co69 Co 0.52497 0.88326 0.53838 0.0
C70 C 0.56412 0.92389 0.48942 0.0
O71 O 0.56639 0.91538 0.43357 0.0
O72 O 0.54866 0.91335 0.53169 0.0
C73 C 0.56215 0.90031 0.25963 0.0
O74 O 0.56341 0.91741 0.28794 0.0
C75 C 0.52863 0.88287 0.69033 0.0
C76 C 0.49658 0.87375 0.72955 0.0
C77 C 0.51679 0.879 0.75162 0.0
N78 N 0.51598 0.87969 0.63431 0.0
N79 N 0.49681 0.87421 0.65781 0.0
C80 C 0.55199 0.89098 0.68488 0.0
H81 H 0.55746 0.89458 0.62899 0.0
H82 H 0.55571 0.87894 0.70518 0.0
H83 H 0.56077 0.90543 0.71813 0.0
C84 C 0.54936 0.85015 0.4526 0.0
N85 N 0.54407 0.8654 0.45691 0.0
N86 N 0.53395 0.86331 0.51701 0.0
C87 C 0.53204 0.84629 0.55219 0.0
C88 C 0.54204 0.83763 0.51324 0.0
C89 C 0.56126 0.84782 0.39173 0.0
H90 H 0.55003 0.83954 0.34743 0.0
H91 H 0.57347 0.8637 0.37239 0.0
H92 H 0.56886 0.83849 0.40736 0.0
O93 O 0.51908 0.8841 0.37299 0.0
O94 O 0.50162 0.87923 0.47421 0.0
H95 H 0.5055 0.8401 0.61887 0.0
H96 H 0.51234 0.81946 0.61921 0.0
C97 C 0.51884 0.83688 0.61757 0.0
H98 H 0.52883 0.84382 0.66548 0.0
H99 H 0.48397 0.871 0.62502 0.0
O100 O 0.55714 0.88439 0.29939 0.0
C101 C 0.50253 0.8808 0.40665 0.0
Co102 Co 0.66295 0.54564 0.55388 0.0
Co103 Co 0.64447 0.52352 0.69826 0.0
C104 C 0.64259 0.56233 0.64839 0.0
O105 O 0.65338 0.56458 0.59262 0.0
O106 O 0.63785 0.54705 0.69122 0.0
C107 C 0.66455 0.56056 0.41945 0.0
O108 O 0.64862 0.56165 0.44767 0.0
C109 C 0.64849 0.52718 0.85023 0.0
C110 C 0.62569 0.49505 0.88928 0.0
C111 C 0.64059 0.51529 0.91145 0.0
N112 N 0.63906 0.51453 0.79415 0.0
N113 N 0.62543 0.49531 0.81754 0.0
C114 C 0.66367 0.55056 0.84491 0.0
H115 H 0.66527 0.55611 0.78921 0.0
H116 H 0.67956 0.5543 0.86409 0.0
H117 H 0.65815 0.55926 0.87916 0.0
C118 C 0.70214 0.54847 0.61335 0.0
N119 N 0.68152 0.54291 0.61723 0.0
N120 N 0.67347 0.5327 0.67716 0.0
C121 C 0.68863 0.53095 0.71256 0.0
C122 C 0.70738 0.5412 0.67403 0.0
C123 C 0.71643 0.56064 0.55291 0.0
H124 H 0.71229 0.57241 0.5326 0.0
H125 H 0.73333 0.56883 0.56947 0.0
H126 H 0.71412 0.54947 0.50905 0.0
O127 O 0.63792 0.51742 0.53285 0.0
O128 O 0.62526 0.50005 0.63417 0.0
H129 H 0.69574 0.5111 0.77878 0.0
H130 H 0.68777 0.52739 0.82575 0.0
C131 C 0.68479 0.51756 0.77747 0.0
H132 H 0.66824 0.50418 0.77835 0.0
H133 H 0.61587 0.48246 0.78468 0.0
O134 O 0.67553 0.55565 0.45925 0.0
C135 C 0.62467 0.50087 0.56657 0.0
Co136 Co 0.122 0.66154 0.72899 0.0
Co137 Co 0.12311 0.64172 0.87458 0.0
C138 C 0.08369 0.64138 0.81947 0.0
O139 O 0.09296 0.65226 0.76433 0.0
O140 O 0.09351 0.63615 0.86375 0.0
C141 C 0.11159 0.66947 0.5918 0.0
O142 O 0.09207 0.65785 0.61515 0.0
C143 C 0.11775 0.63886 0.02761 0.0
C144 C 0.14014 0.62855 0.06264 0.0
C145 C 0.12641 0.63508 0.08737 0.0
N146 N 0.12601 0.63482 0.96986 0.0
N147 N 0.13902 0.62819 0.99102 0.0
C148 C 0.10452 0.6493 0.02518 0.0
H149 H 0.10843 0.65945 0.97718 0.0
H150 H 0.10696 0.65907 0.07338 0.0
H151 H 0.08755 0.63685 0.02261 0.0
C152 C 0.15902 0.69939 0.79228 0.0
N153 N 0.14304 0.67912 0.79539 0.0
N154 N 0.14349 0.67091 0.85724 0.0
C155 C 0.15975 0.68585 0.89592 0.0
C156 C 0.17023 0.70438 0.85598 0.0
C157 C 0.16412 0.71303 0.7275 0.0
H158 H 0.16481 0.7042 0.68044 0.0
H159 H 0.15122 0.71666 0.71827 0.0
H160 H 0.17946 0.72803 0.73272 0.0
O161 O 0.12431 0.63626 0.70715 0.0
O162 O 0.12744 0.6227 0.80875 0.0
H163 H 0.16855 0.67 0.97293 0.0
H164 H 0.17765 0.69743 0.99454 0.0
C165 C 0.1645 0.68278 0.97109 0.0
H166 H 0.1503 0.67807 0.00432 0.0
H167 H 0.14806 0.62462 0.95662 0.0
O168 O 0.12688 0.67519 0.63509 0.0
C169 C 0.12675 0.62252 0.741 0.0
Co170 Co 0.46023 0.11897 0.88917 0.0
Co171 Co 0.48365 0.12359 0.03157 0.0
C172 C 0.44535 0.08209 0.98216 0.0
O173 O 0.44163 0.09035 0.92855 0.0
O174 O 0.46119 0.09307 0.02249 0.0
C175 C 0.44634 0.10562 0.75446 0.0
O176 O 0.44625 0.08913 0.78317 0.0
C177 C 0.47965 0.12342 0.18376 0.0
C178 C 0.51181 0.13314 0.22336 0.0
C179 C 0.49144 0.12741 0.2453 0.0
N180 N 0.49246 0.12699 0.12785 0.0
N181 N 0.5117 0.13281 0.1516 0.0
C182 C 0.45625 0.11497 0.17792 0.0
H183 H 0.4506 0.10972 0.12291 0.0
H184 H 0.45255 0.12753 0.19225 0.0
H185 H 0.44761 0.10158 0.21553 0.0
C186 C 0.45686 0.15499 0.95012 0.0
N187 N 0.46283 0.14022 0.95281 0.0
N188 N 0.47353 0.14269 0.0118 0.0
C189 C 0.47525 0.15954 0.0476 0.0
C190 C 0.46441 0.16765 0.01054 0.0
C191 C 0.4441 0.15676 0.89101 0.0
H192 H 0.43292 0.14079 0.86942 0.0
H193 H 0.43519 0.16455 0.90954 0.0
H194 H 0.45497 0.16642 0.84756 0.0
O195 O 0.48871 0.12267 0.86732 0.0
O196 O 0.50721 0.12896 0.96694 0.0
H197 H 0.49558 0.18688 0.11171 0.0
H198 H 0.47996 0.1628 0.16039 0.0
C199 C 0.48926 0.16949 0.11101 0.0
H200 H 0.50274 0.16648 0.11028 0.0
H201 H 0.52466 0.1364 0.11897 0.0
O202 O 0.4501 0.12125 0.7942 0.0
C203 C 0.50577 0.12692 0.89955 0.0
Co204 Co 0.5445 0.66135 0.79773 0.0
Co205 Co 0.5239 0.64155 0.65151 0.0
C206 C 0.56218 0.64027 0.70952 0.0
O207 O 0.56371 0.65121 0.76441 0.0
O208 O 0.5475 0.63542 0.66392 0.0
C209 C 0.56323 0.66986 0.9347 0.0
O210 O 0.57158 0.65865 0.91135 0.0
C211 C 0.52643 0.63855 0.49841 0.0
C212 C 0.49375 0.62839 0.46342 0.0
C213 C 0.514 0.63482 0.43866 0.0
N214 N 0.51416 0.6346 0.55617 0.0
N215 N 0.49452 0.62804 0.53503 0.0
C216 C 0.55011 0.64891 0.50072 0.0
H217 H 0.55639 0.65836 0.55015 0.0
H218 H 0.55745 0.65936 0.4539 0.0
H219 H 0.55458 0.63642 0.49982 0.0
C220 C 0.54622 0.6994 0.73303 0.0
N221 N 0.54174 0.67907 0.73023 0.0
N222 N 0.53318 0.67087 0.66822 0.0
C223 C 0.53213 0.68588 0.62914 0.0
C224 C 0.54024 0.70443 0.66897 0.0
C225 C 0.55456 0.713 0.79802 0.0
H226 H 0.54464 0.70427 0.84452 0.0
H227 H 0.57093 0.71631 0.8087 0.0
H228 H 0.55459 0.72817 0.79215 0.0
O229 O 0.51656 0.63655 0.81892 0.0
O230 O 0.50021 0.62292 0.71681 0.0
H231 H 0.5075 0.67005 0.55195 0.0
H232 H 0.52594 0.69745 0.53036 0.0
C233 C 0.52435 0.68279 0.55391 0.0
H234 H 0.53381 0.67802 0.52084 0.0
H235 H 0.48194 0.62456 0.56944 0.0
O236 O 0.55324 0.6751 0.8915 0.0
C237 C 0.50042 0.62291 0.78459 0.0
Co238 Co 0.88613 0.54384 0.95924 0.0
Co239 Co 0.88592 0.52403 0.81182 0.0
C240 C 0.92513 0.56262 0.8704 0.0
O241 O 0.91545 0.56333 0.92586 0.0
O242 O 0.91566 0.54823 0.82343 0.0
C243 C 0.89624 0.56182 0.09615 0.0
O244 O 0.91576 0.5691 0.07368 0.0
C245 C 0.89178 0.52448 0.65868 0.0
C246 C 0.86407 0.49423 0.62525 0.0
C247 C 0.88047 0.5132 0.59934 0.0
N248 N 0.88196 0.51324 0.71704 0.0
N249 N 0.8658 0.49484 0.69673 0.0
C250 C 0.91173 0.54552 0.66066 0.0
H251 H 0.92351 0.54382 0.69286 0.0
H252 H 0.90863 0.55739 0.68665 0.0
H253 H 0.91857 0.55106 0.60694 0.0
C254 C 0.84963 0.54524 0.89529 0.0
N255 N 0.86561 0.54097 0.89205 0.0
N256 N 0.86586 0.53336 0.82881 0.0
C257 C 0.85033 0.53317 0.78896 0.0
C258 C 0.83933 0.54038 0.82993 0.0
C259 C 0.84366 0.55246 0.96145 0.0
H260 H 0.84317 0.54256 0.00703 0.0
H261 H 0.85597 0.5691 0.97297 0.0
H262 H 0.82799 0.55141 0.95636 0.0
O263 O 0.88318 0.51611 0.98092 0.0
O264 O 0.88113 0.50047 0.87785 0.0
H265 H 0.83929 0.5103 0.70502 0.0
H266 H 0.8368 0.53322 0.68624 0.0
C267 C 0.84696 0.52773 0.71149 0.0
H268 H 0.8624 0.53547 0.68366 0.0
H269 H 0.85503 0.48337 0.73171 0.0
O270 O 0.88105 0.55271 0.05224 0.0
C271 C 0.88103 0.50027 0.94564 0.0
Co272 Co 0.34573 0.88668 0.1346 0.0
Co273 Co 0.3645 0.88247 0.99157 0.0
C274 C 0.36709 0.92362 0.04131 0.0
O275 O 0.35527 0.91521 0.0952 0.0
O276 O 0.3721 0.91283 0.00061 0.0
C277 C 0.34452 0.90003 0.26925 0.0
O278 O 0.36059 0.9169 0.24075 0.0
C279 C 0.36052 0.88263 0.83955 0.0
C280 C 0.38321 0.87333 0.79935 0.0
C281 C 0.36838 0.87883 0.77783 0.0
N282 N 0.36991 0.87918 0.89521 0.0
N283 N 0.38347 0.8736 0.87111 0.0
C284 C 0.3454 0.89086 0.84578 0.0
H285 H 0.34454 0.89551 0.90127 0.0
H286 H 0.32928 0.87842 0.8295 0.0
H287 H 0.35039 0.90463 0.80972 0.0
C288 C 0.30655 0.85016 0.0749 0.0
N289 N 0.32718 0.86525 0.07136 0.0
N290 N 0.33535 0.86301 0.01178 0.0
C291 C 0.32023 0.84607 0.97622 0.0
C292 C 0.30142 0.83761 0.0143 0.0
C293 C 0.29218 0.84793 0.13519 0.0
H294 H 0.29462 0.83923 0.17924 0.0
H295 H 0.29615 0.86383 0.15528 0.0
H296 H 0.27529 0.839 0.11858 0.0
O297 O 0.37083 0.88351 0.1559 0.0
O298 O 0.38315 0.87759 0.05582 0.0
H299 H 0.34071 0.83961 0.91125 0.0
H300 H 0.3132 0.81901 0.91053 0.0
C301 C 0.32416 0.83643 0.91171 0.0
H302 H 0.32126 0.84321 0.86313 0.0
H303 H 0.393 0.87016 0.9035 0.0
O304 O 0.33322 0.88419 0.22951 0.0
C305 C 0.38384 0.87961 0.12324 0.0
Co306 Co 0.46129 0.34448 0.29462 0.0
Co307 Co 0.48427 0.36352 0.1518 0.0
C308 C 0.44574 0.36605 0.20234 0.0
O309 O 0.44237 0.35414 0.25592 0.0
O310 O 0.46152 0.37115 0.16145 0.0
C311 C 0.44683 0.34324 0.42932 0.0
O312 O 0.44607 0.35932 0.40085 0.0
C313 C 0.48011 0.35968 -0.00027 0.0
C314 C 0.51214 0.38235 0.95969 0.0
C315 C 0.49181 0.36754 0.93807 0.0
N316 N 0.49295 0.36905 0.05546 0.0
N317 N 0.51212 0.38262 0.03144 0.0
C318 C 0.45674 0.34452 0.00585 0.0
H319 H 0.45119 0.3438 0.06118 0.0
H320 H 0.45312 0.32837 0.99024 0.0
H321 H 0.44797 0.34936 0.96925 0.0
C322 C 0.45806 0.30527 0.23288 0.0
N323 N 0.46397 0.326 0.23055 0.0
N324 N 0.47453 0.33433 0.17138 0.0
C325 C 0.47624 0.31927 0.13511 0.0
C326 C 0.46552 0.30026 0.17206 0.0
C327 C 0.44532 0.29063 0.29185 0.0
H328 H 0.43419 0.2954 0.31389 0.0
H329 H 0.43637 0.27396 0.27301 0.0
H330 H 0.45622 0.29176 0.33505 0.0
O331 O 0.48968 0.3695 0.31609 0.0
O332 O 0.50786 0.382 0.21602 0.0
H333 H 0.4965 0.31243 0.07003 0.0
H334 H 0.48062 0.3207 0.02215 0.0
C335 C 0.49008 0.32341 0.07118 0.0
H336 H 0.50348 0.33996 0.0716 0.0
H337 H 0.52509 0.39211 0.0639 0.0
O338 O 0.45131 0.33191 0.38952 0.0
C339 C 0.50659 0.38254 0.28349 0.0
Co340 Co 0.11929 0.45971 0.46476 0.0
Co341 Co 0.12309 0.4823 0.32108 0.0
C342 C 0.08227 0.44339 0.37026 0.0
O343 O 0.09074 0.44086 0.42572 0.0
O344 O 0.09292 0.45885 0.32812 0.0
C345 C 0.10603 0.44533 0.5992 0.0
O346 O 0.08926 0.44471 0.57071 0.0
C347 C 0.1232 0.47873 0.16889 0.0
C348 C 0.13292 0.51098 0.13023 0.0
C349 C 0.1273 0.49069 0.10778 0.0
N350 N 0.12661 0.49138 0.22516 0.0
N351 N 0.13243 0.51067 0.20198 0.0
C352 C 0.11474 0.4553 0.17393 0.0
H353 H 0.11096 0.44975 0.22968 0.0
H354 H 0.12666 0.45136 0.15384 0.0
H355 H 0.10035 0.44675 0.14031 0.0
C356 C 0.15571 0.45704 0.40442 0.0
N357 N 0.14065 0.46262 0.40112 0.0
N358 N 0.14277 0.47289 0.34135 0.0
C359 C 0.15958 0.47458 0.30538 0.0
C360 C 0.16808 0.46428 0.34343 0.0
C361 C 0.15806 0.44503 0.46481 0.0
H362 H 0.14219 0.43289 0.48445 0.0
H363 H 0.16727 0.43734 0.44852 0.0
H364 H 0.1665 0.4562 0.5091 0.0
O365 O 0.12251 0.48785 0.48658 0.0
O366 O 0.12752 0.50568 0.38617 0.0
H367 H 0.18639 0.49411 0.23805 0.0
H368 H 0.16192 0.47794 0.19212 0.0
C369 C 0.16902 0.48783 0.24013 0.0
H370 H 0.16604 0.50133 0.23945 0.0
H371 H 0.13591 0.52354 0.23499 0.0
O372 O 0.12179 0.44962 0.5594 0.0
C373 C 0.12597 0.50456 0.45375 0.0
Co374 Co 0.66272 0.12152 0.63437 0.0
Co375 Co 0.6432 0.12157 0.48677 0.0
C376 C 0.64234 0.08236 0.54656 0.0
O377 O 0.65271 0.09209 0.60198 0.0
O378 O 0.63758 0.09183 0.49914 0.0
C379 C 0.67141 0.11175 0.77109 0.0
O380 O 0.65984 0.09211 0.74875 0.0
C381 C 0.63823 0.11569 0.33363 0.0
C382 C 0.635 0.14295 0.29976 0.0
C383 C 0.63806 0.12683 0.27415 0.0
N384 N 0.63644 0.12535 0.39181 0.0
N385 N 0.63381 0.14124 0.37124 0.0
C386 C 0.63985 0.09604 0.33597 0.0
H387 H 0.62633 0.08402 0.36749 0.0
H388 H 0.6548 0.09947 0.36289 0.0
H389 H 0.63897 0.08933 0.28231 0.0
C390 C 0.70084 0.15765 0.56988 0.0
N391 N 0.68049 0.14183 0.56685 0.0
N392 N 0.6726 0.14168 0.50376 0.0
C393 C 0.68799 0.15719 0.46392 0.0
C394 C 0.7063 0.168 0.50463 0.0
C395 C 0.71413 0.16341 0.63574 0.0
H396 H 0.70513 0.16476 0.6811 0.0
H397 H 0.71756 0.15055 0.64833 0.0
H398 H 0.72924 0.17861 0.62972 0.0
O399 O 0.63793 0.12457 0.65543 0.0
O400 O 0.62432 0.12635 0.55217 0.0
H401 H 0.67568 0.16804 0.38103 0.0
H402 H 0.70142 0.17137 0.36161 0.0
C403 C 0.68584 0.16079 0.38674 0.0
H404 H 0.67848 0.14546 0.35819 0.0
H405 H 0.63275 0.15184 0.40607 0.0
O406 O 0.67671 0.12683 0.72729 0.0
C407 C 0.6242 0.12657 0.61994 0.0
H408 H 0.35858 0.50694 0.52723 0.0
H409 H 0.37102 0.45658 0.47266 0.0
H410 H 0.3494 0.49303 0.64811 0.0
H411 H 0.36054 0.44186 0.59145 0.0
H412 H 0.36937 0.44105 0.83338 0.0
H413 H 0.37416 0.45023 0.70833 0.0
H414 H 0.32289 0.46392 0.71794 0.0
H415 H 0.3186 0.45543 0.84474 0.0
C416 C 0.35917 0.4928 0.54096 0.0
C417 C 0.3651 0.4826 0.4902 0.0
C418 C 0.3536 0.48463 0.60979 0.0
C419 C 0.35391 0.46613 0.62918 0.0
C420 C 0.36011 0.45612 0.57838 0.0
C421 C 0.36585 0.4644 0.5099 0.0
C422 C 0.35884 0.44566 0.8087 0.0
C423 C 0.34379 0.44779 0.84917 0.0
C424 C 0.36153 0.45084 0.73671 0.0
C425 C 0.3491 0.4581 0.70329 0.0
C426 C 0.33303 0.45882 0.74261 0.0
C427 C 0.33039 0.45371 0.81498 0.0
H428 H 0.8599 0.32821 0.00941 0.0
H429 H 0.92184 0.33672 0.96403 0.0
H430 H 0.85582 0.33471 0.886 0.0
H431 H 0.91721 0.3418 0.83851 0.0
H432 H 0.91612 0.38003 0.64831 0.0
H433 H 0.91866 0.36839 0.76769 0.0
H434 H 0.85072 0.32546 0.7682 0.0
H435 H 0.84836 0.33851 0.65097 0.0
C436 C 0.87238 0.33074 0.97246 0.0
C437 C 0.89132 0.3322 -0.00341 0.0
C438 C 0.87001 0.33442 0.90119 0.0
C439 C 0.88633 0.33917 0.85186 0.0
C440 C 0.90457 0.33889 0.8752 0.0
C441 C 0.90714 0.33568 0.94698 0.0
C442 C 0.9018 0.36829 0.67482 0.0
C443 C 0.88204 0.3604 0.64188 0.0
C444 C 0.90321 0.36132 0.74268 0.0
C445 C 0.88489 0.34585 0.77808 0.0
C446 C 0.86513 0.33769 0.74368 0.0
C447 C 0.86371 0.3451 0.67657 0.0
H448 H 0.57051 0.93083 0.16093 0.0
H449 H 0.55071 0.86432 0.18192 0.0
H450 H 0.56093 0.92543 0.03553 0.0
H451 H 0.54099 0.85896 0.05622 0.0
H452 H 0.53936 0.86229 0.81082 0.0
H453 H 0.55417 0.86841 0.93094 0.0
H454 H 0.52494 0.90598 0.97932 0.0
H455 H 0.51064 0.90029 0.85851 0.0
C456 C 0.56449 0.91514 0.13853 0.0
C457 C 0.56104 0.89793 0.18156 0.0
C458 C 0.55885 0.91204 0.06687 0.0
C459 C 0.54978 0.8917 0.03676 0.0
C460 C 0.5479 0.8748 0.07824 0.0
C461 C 0.55349 0.87789 0.15016 0.0
C462 C 0.53642 0.87212 0.84692 0.0
C463 C 0.52434 0.88128 0.82535 0.0
C464 C 0.54468 0.87541 0.91573 0.0
C465 C 0.541 0.88795 0.9639 0.0
C466 C 0.52841 0.89663 0.94267 0.0
C467 C 0.52004 0.89321 0.87404 0.0
H468 H 0.67991 0.53818 0.97034 0.0
H469 H 0.61315 0.50875 0.0187 0.0
H470 H 0.6886 0.55296 0.09055 0.0
H471 H 0.62176 0.52304 0.13956 0.0
H472 H 0.6893 0.54938 0.34175 0.0
H473 H 0.68498 0.53968 0.216 0.0
H474 H 0.63814 0.55917 0.19538 0.0
H475 H 0.64229 0.56876 0.32078 0.0
C476 C 0.66713 0.53508 0.00661 0.0
C477 C 0.64587 0.52281 0.98521 0.0
C478 C 0.67209 0.54332 0.07545 0.0
C479 C 0.65586 0.53944 0.12379 0.0
C480 C 0.63459 0.52666 0.10275 0.0
C481 C 0.62964 0.5183 0.0341 0.0
C482 C 0.67846 0.55208 0.30999 0.0
C483 C 0.66587 0.5595 0.3414 0.0
C484 C 0.67598 0.5465 0.23806 0.0
C485 C 0.66088 0.54825 0.19661 0.0
C486 C 0.64952 0.5572 0.22671 0.0
C487 C 0.65204 0.56284 0.29837 0.0
H488 H 0.09113 0.62066 0.16875 0.0
H489 H 0.15853 0.66426 0.16815 0.0
H490 H 0.08856 0.63222 0.28833 0.0
H491 H 0.15605 0.67711 0.28562 0.0
H492 H 0.1476 0.67537 0.52721 0.0
H493 H 0.15159 0.66831 0.40414 0.0
H494 H 0.08926 0.6589 0.35742 0.0
H495 H 0.08479 0.66461 0.48253 0.0
C496 C 0.10536 0.6328 0.19461 0.0
C497 C 0.12505 0.64137 0.16053 0.0
C498 C 0.10392 0.63972 0.26258 0.0
C499 C 0.12209 0.65576 0.29702 0.0
C500 C 0.14177 0.66447 0.26177 0.0
C501 C 0.14325 0.65715 0.19452 0.0
C502 C 0.1349 0.67222 0.49044 0.0
C503 C 0.11577 0.67033 0.51469 0.0
C504 C 0.1372 0.66819 0.41942 0.0
C505 C 0.12061 0.66263 0.37049 0.0
C506 C 0.10213 0.66243 0.39385 0.0
C507 C 0.09964 0.66601 0.46537 0.0
H508 H 0.43988 0.07545 0.6566 0.0
H509 H 0.4561 0.14107 0.6757 0.0
H510 H 0.44947 0.08097 0.53125 0.0
H511 H 0.46578 0.14653 0.5498 0.0
H512 H 0.46682 0.142 0.30361 0.0
H513 H 0.45234 0.13581 0.42424 0.0
H514 H 0.48543 0.1021 0.47471 0.0
H515 H 0.4995 0.10792 0.35357 0.0
C516 C 0.44511 0.09096 0.63379 0.0
C517 C 0.44753 0.10791 0.6763 0.0
C518 C 0.45075 0.09413 0.56213 0.0
C519 C 0.45879 0.11427 0.53139 0.0
C520 C 0.45967 0.13085 0.57234 0.0
C521 C 0.45409 0.1277 0.64434 0.0
C522 C 0.47071 0.133 0.34026 0.0
C523 C 0.48383 0.12496 0.31914 0.0
C524 C 0.46262 0.12968 0.40939 0.0
C525 C 0.46749 0.11819 0.45832 0.0
C526 C 0.48107 0.11063 0.43752 0.0
C527 C 0.48928 0.11412 0.36863 0.0
H528 H 0.53507 0.62071 0.357 0.0
H529 H 0.51089 0.66395 0.35841 0.0
H530 H 0.54924 0.63248 0.23759 0.0
H531 H 0.52624 0.67701 0.24115 0.0
H532 H 0.53293 0.67543 -0.0005 0.0
H533 H 0.5219 0.66823 0.12252 0.0
H534 H 0.57518 0.65941 0.16893 0.0
H535 H 0.58537 0.66528 0.04385 0.0
C536 C 0.5329 0.63282 0.33136 0.0
C537 C 0.52167 0.64122 0.36561 0.0
C538 C 0.54129 0.63986 0.2635 0.0
C539 C 0.53905 0.65586 0.22935 0.0
C540 C 0.52796 0.6644 0.26477 0.0
C541 C 0.51915 0.65697 0.3319 0.0
C542 C 0.54257 0.67238 0.03618 0.0
C543 C 0.5599 0.67069 0.01183 0.0
C544 C 0.53624 0.66827 0.10717 0.0
C545 C 0.54739 0.66284 0.15598 0.0
C546 C 0.56578 0.66285 0.13256 0.0
C547 C 0.57183 0.66651 0.06107 0.0
H548 H 0.8732 0.49157 0.47468 0.0
H549 H 0.88876 0.55276 0.56027 0.0
H550 H 0.87493 0.50517 0.35392 0.0
H551 H 0.89159 0.56651 0.44017 0.0
H552 H 0.92329 0.58221 0.20632 0.0
H553 H 0.91795 0.5711 0.33108 0.0
H554 H 0.85413 0.52169 0.28311 0.0
H555 H 0.85913 0.53297 0.159 0.0
C556 C 0.87723 0.50793 0.46762 0.0
C557 C 0.88181 0.52136 0.52655 0.0
C558 C 0.87811 0.51566 0.3989 0.0
C559 C 0.88363 0.53692 0.38834 0.0
C560 C 0.88769 0.55018 0.44722 0.0
C561 C 0.88641 0.54237 0.51577 0.0
C562 C 0.90795 0.56935 0.22282 0.0
C563 C 0.89169 0.55841 0.17292 0.0
C564 C 0.90493 0.56299 0.29396 0.0
C565 C 0.88576 0.54538 0.31581 0.0
C566 C 0.86912 0.53516 0.26695 0.0
C567 C 0.87196 0.54178 0.1962 0.0
H568 H 0.36727 0.93052 0.36745 0.0
H569 H 0.31948 0.8643 0.34768 0.0
H570 H 0.37139 0.92521 0.49294 0.0
H571 H 0.32374 0.85905 0.47365 0.0
H572 H 0.3958 0.89926 0.66999 0.0
H573 H 0.38727 0.90497 0.54914 0.0
H574 H 0.32044 0.86934 0.59931 0.0
H575 H 0.32903 0.86328 0.71965 0.0
C576 C 0.35735 0.91492 0.39014 0.0
C577 C 0.34328 0.89775 0.3474 0.0
C578 C 0.35984 0.91187 0.46187 0.0
C579 C 0.34823 0.89164 0.49243 0.0
C580 C 0.33294 0.87481 0.45126 0.0
C581 C 0.33049 0.87783 0.3792 0.0
C582 C 0.37932 0.89262 0.65491 0.0
C583 C 0.36309 0.88125 0.70419 0.0
C584 C 0.37443 0.89605 0.58622 0.0
C585 C 0.35319 0.8879 0.56543 0.0
C586 C 0.33692 0.87593 0.61418 0.0
C587 C 0.34185 0.87267 0.68312 0.0
H588 H 0.46802 0.32813 0.88015 0.0
H589 H 0.49889 0.39486 0.82989 0.0
H590 H 0.45345 0.31941 0.75966 0.0
H591 H 0.48471 0.3862 0.70894 0.0
H592 H 0.45769 0.31837 0.50785 0.0
H593 H 0.46722 0.32273 0.63387 0.0
H594 H 0.44844 0.37014 0.65288 0.0
H595 H 0.43898 0.36591 0.52741 0.0
C596 C 0.47148 0.34091 0.84345 0.0
C597 C 0.48413 0.36217 0.86439 0.0
C598 C 0.46335 0.33592 0.77444 0.0
C599 C 0.46768 0.35214 0.7255 0.0
C600 C 0.48076 0.3734 0.74616 0.0
C601 C 0.48904 0.37836 0.81492 0.0
C602 C 0.45511 0.32934 0.53933 0.0
C603 C 0.4479 0.34204 0.50747 0.0
C604 C 0.46059 0.33185 0.6114 0.0
C605 C 0.45899 0.34711 0.65249 0.0
C606 C 0.45029 0.35862 0.62187 0.0
C607 C 0.44473 0.35606 0.55014 0.0
H608 H 0.14348 0.46761 0.04859 0.0
H609 H 0.10674 0.49764 0.00036 0.0
H610 H 0.13742 0.45299 0.92819 0.0
H611 H 0.10113 0.48354 0.87923 0.0
H612 H 0.07568 0.43789 0.69748 0.0
H613 H 0.08114 0.44765 0.82271 0.0
H614 H 0.14726 0.46609 0.80297 0.0
H615 H 0.14183 0.4562 0.67733 0.0
C616 C 0.13393 0.47088 0.01232 0.0
C617 C 0.12508 0.48325 0.03386 0.0
C618 C 0.13069 0.46274 0.94332 0.0
C619 C 0.11852 0.46684 0.8949 0.0
C620 C 0.11019 0.47974 0.91606 0.0
C621 C 0.11356 0.48798 0.98489 0.0
C622 C 0.0913 0.44363 0.72004 0.0
C623 C 0.1084 0.44657 0.67728 0.0
C624 C 0.09444 0.44937 0.79161 0.0
C625 C 0.11471 0.45806 0.82196 0.0
C626 C 0.13147 0.45948 0.78076 0.0
C627 C 0.12835 0.45378 0.7089 0.0
H628 H 0.67913 0.14867 0.8341 0.0
H629 H 0.66547 0.08491 0.88128 0.0
H630 H 0.6728 0.15351 0.95827 0.0
H631 H 0.65965 0.09011 0.00618 0.0
H632 H 0.66998 0.11949 0.23544 0.0
H633 H 0.68114 0.11686 0.11541 0.0
H634 H 0.63539 0.13191 0.0287 0.0
H635 H 0.6233 0.13342 0.14935 0.0
C636 C 0.67537 0.13589 0.87126 0.0
C637 C 0.67261 0.1163 0.84789 0.0
C638 C 0.67159 0.13865 0.94207 0.0
C639 C 0.66547 0.12207 0.99091 0.0
C640 C 0.6643 0.10308 0.96903 0.0
C641 C 0.66767 0.10014 0.89782 0.0
C642 C 0.66177 0.12152 0.19085 0.0
C643 C 0.64502 0.12561 0.20145 0.0
C644 C 0.66843 0.12036 0.12235 0.0
C645 C 0.65898 0.12403 0.06339 0.0
C646 C 0.64287 0.12903 0.07377 0.0
C647 C 0.63592 0.12979 0.14242 0.0
H648 H 0.4606 0.59402 0.73562 0.0
H649 H 0.49878 0.61468 0.92653 0.0
H650 H 0.43097 0.56681 0.80435 0.0
H651 H 0.46972 0.58718 0.99412 0.0
H652 H 0.40905 0.54669 0.11372 0.0
H653 H 0.43601 0.57588 0.0433 0.0
H654 H 0.42013 0.53408 0.8619 0.0
H655 H 0.39272 0.50528 0.93121 0.0
C656 C 0.4627 0.59273 0.79209 0.0
C657 C 0.48207 0.60653 0.82541 0.0
C658 C 0.44576 0.57706 0.83153 0.0
C659 C 0.44789 0.57473 0.90501 0.0
C660 C 0.46726 0.58869 0.93811 0.0
C661 C 0.48405 0.60442 0.899 0.0
C662 C 0.41126 0.54379 0.05871 0.0
C663 C 0.39876 0.52363 0.02829 0.0
C664 C 0.4268 0.5605 0.01831 0.0
C665 C 0.43038 0.55738 0.94677 0.0
C666 C 0.41766 0.53724 0.9163 0.0
C667 C 0.402 0.52063 0.95639 0.0
H668 H 0.8659 0.40779 0.27065 0.0
H669 H 0.888 0.39027 0.08325 0.0
H670 H 0.86395 0.43528 0.20248 0.0
H671 H 0.887 0.41819 0.01626 0.0
H672 H 0.86891 0.46033 0.89512 0.0
H673 H 0.86589 0.43022 0.96218 0.0
H674 H 0.88636 0.46873 0.1526 0.0
H675 H 0.88844 0.49827 0.08665 0.0
C676 C 0.8704 0.40984 0.21504 0.0
C677 C 0.87715 0.39685 0.18259 0.0
C678 C 0.86941 0.42569 0.17592 0.0
C679 C 0.87542 0.42911 0.10367 0.0
C680 C 0.88189 0.41587 0.07124 0.0
C681 C 0.88262 0.3999 0.11001 0.0
C682 C 0.87265 0.46228 0.95137 0.0
C683 C 0.87893 0.48172 0.98536 0.0
C684 C 0.87103 0.44505 0.98988 0.0
C685 C 0.8759 0.44696 0.06308 0.0
C686 C 0.88206 0.46642 0.09684 0.0
C687 C 0.88343 0.48349 0.05866 0.0
H688 H 0.39353 0.88905 0.26374 0.0
H689 H 0.41144 0.86671 0.07778 0.0
H690 H 0.42142 0.88821 0.33178 0.0
H691 H 0.43896 0.86511 0.14683 0.0
H692 H 0.5016 0.88944 0.26584 0.0
H693 H 0.47248 0.88794 0.19842 0.0
H694 H 0.43276 0.8662 0.38579 0.0
H695 H 0.4623 0.86846 0.4542 0.0
C696 C 0.40327 0.8837 0.23748 0.0
C697 C 0.40028 0.87803 0.16505 0.0
C698 C 0.41922 0.88308 0.27681 0.0
C699 C 0.43253 0.8766 0.24503 0.0
C700 C 0.42927 0.87053 0.17287 0.0
C701 C 0.4134 0.87133 0.13328 0.0
C702 C 0.48665 0.88427 0.29281 0.0
C703 C 0.48434 0.87914 0.36565 0.0
C704 C 0.46984 0.88326 0.25383 0.0
C705 C 0.45017 0.8769 0.28638 0.0
C706 C 0.44776 0.87147 0.3591 0.0
C707 C 0.46467 0.87267 0.39834 0.0
H708 H 0.54717 0.40985 0.23804 0.0
H709 H 0.507 0.39218 0.42415 0.0
H710 H 0.57649 0.43718 0.30708 0.0
H711 H 0.53594 0.41992 0.49222 0.0
H712 H 0.59672 0.46067 0.61435 0.0
H713 H 0.56931 0.43112 0.5461 0.0
H714 H 0.58742 0.47072 0.35848 0.0
H715 H 0.61517 0.49983 0.4257 0.0
C716 C 0.54457 0.41182 0.29358 0.0
C717 C 0.52471 0.39884 0.32538 0.0
C718 C 0.56135 0.42758 0.33317 0.0
C719 C 0.55862 0.43088 0.40536 0.0
C720 C 0.5388 0.41768 0.43722 0.0
C721 C 0.52211 0.40183 0.39787 0.0
C722 C 0.5949 0.463 0.55845 0.0
C723 C 0.60815 0.48264 0.52563 0.0
C724 C 0.5791 0.44609 0.51931 0.0
C725 C 0.57607 0.44848 0.44659 0.0
C726 C 0.58947 0.4681 0.4139 0.0
C727 C 0.60534 0.4849 0.45276 0.0
H728 H 0.11606 0.50456 0.59373 0.0
H729 H 0.13979 0.5454 0.40958 0.0
H730 H 0.11751 0.53339 0.66282 0.0
H731 H 0.14209 0.57468 0.4798 0.0
H732 H 0.1191 0.61391 0.59946 0.0
H733 H 0.12013 0.58621 0.53117 0.0
H734 H 0.13962 0.5662 0.71909 0.0
H735 H 0.13773 0.59357 0.78847 0.0
C736 C 0.12184 0.5198 0.56809 0.0
C737 C 0.12772 0.52262 0.49585 0.0
C738 C 0.12283 0.53644 0.60807 0.0
C739 C 0.12993 0.55646 0.5772 0.0
C740 C 0.13619 0.5594 0.50519 0.0
C741 C 0.13498 0.54264 0.46489 0.0
C742 C 0.12367 0.60366 0.62642 0.0
C743 C 0.12825 0.60594 0.69971 0.0
C744 C 0.12443 0.58782 0.5869 0.0
C745 C 0.13 0.5739 0.61927 0.0
C746 C 0.13493 0.57639 0.69245 0.0
C747 C 0.13396 0.59216 0.73228 0.0
H748 H 0.59496 0.13657 0.56783 0.0
H749 H 0.61572 0.12072 0.7619 0.0
H750 H 0.56739 0.13894 0.63443 0.0
H751 H 0.58788 0.12222 0.82741 0.0
H752 H 0.54692 0.14243 0.94264 0.0
H753 H 0.57628 0.14466 0.87344 0.0
H754 H 0.53463 0.11728 0.69241 0.0
H755 H 0.50562 0.1159 0.76055 0.0
C756 C 0.59362 0.13354 0.62454 0.0
C757 C 0.60758 0.12847 0.65938 0.0
C758 C 0.57774 0.13478 0.66276 0.0
C759 C 0.57535 0.13079 0.73654 0.0
C760 C 0.58943 0.12583 0.77111 0.0
C761 C 0.60536 0.12481 0.73321 0.0
C762 C 0.54408 0.13701 0.88795 0.0
C763 C 0.5239 0.12892 0.85734 0.0
C764 C 0.56089 0.13817 0.84825 0.0
C765 C 0.55787 0.13102 0.77723 0.0
C766 C 0.53772 0.12324 0.74644 0.0
C767 C 0.52099 0.1223 0.78584 0.0
H768 H 0.29495 0.49894 0.22362 0.0
H769 H 0.26122 0.43156 0.18339 0.0
H770 H 0.26217 0.49676 0.26639 0.0
H771 H 0.2281 0.42952 0.22324 0.0
H772 H 0.17299 0.44729 0.22154 0.0
H773 H 0.20469 0.44665 0.18108 0.0
H774 H 0.23658 0.47683 0.37672 0.0
H775 H 0.20465 0.47705 0.41769 0.0
C776 C 0.28049 0.48366 0.22403 0.0
C777 C 0.28064 0.46534 0.20167 0.0
C778 C 0.26179 0.48243 0.24839 0.0
C779 C 0.24273 0.46293 0.249 0.0
C780 C 0.24264 0.44472 0.22356 0.0
C781 C 0.2615 0.4459 0.20052 0.0
C782 C 0.18671 0.45349 0.25613 0.0
C783 C 0.18649 0.46216 0.32267 0.0
C784 C 0.20476 0.45309 0.23313 0.0
C785 C 0.22304 0.46177 0.27571 0.0
C786 C 0.22269 0.47014 0.34284 0.0
C787 C 0.20446 0.47014 0.36644 0.0
H788 H 0.80281 0.2745 0.26607 0.0
H789 H 0.83424 0.27681 0.46307 0.0
H790 H 0.77104 0.24225 0.30627 0.0
H791 H 0.80245 0.24464 0.50381 0.0
H792 H 0.74664 0.17464 0.51696 0.0
H793 H 0.77966 0.20554 0.47583 0.0
H794 H 0.74407 0.23465 0.40188 0.0
H795 H 0.71131 0.20406 0.44411 0.0
C796 C 0.80296 0.2679 0.31756 0.0
C797 C 0.82086 0.27805 0.36161 0.0
C798 C 0.78477 0.2496 0.34087 0.0
C799 C 0.78421 0.24101 0.40842 0.0
C800 C 0.80244 0.25081 0.4514 0.0
C801 C 0.82056 0.26923 0.42831 0.0
C802 C 0.746 0.1878 0.49268 0.0
C803 C 0.72648 0.18699 0.48337 0.0
C804 C 0.76483 0.20541 0.46897 0.0
C805 C 0.76441 0.2224 0.43492 0.0
C806 C 0.74486 0.22163 0.42665 0.0
C807 C 0.72614 0.20418 0.45098 0.0
H808 H 0.55796 0.83164 0.63579 0.0
H809 H 0.52997 0.80168 0.43571 0.0
H810 H 0.55854 0.79974 0.67371 0.0
H811 H 0.53031 0.7696 0.4738 0.0
H812 H 0.50827 0.70954 0.61659 0.0
H813 H 0.51023 0.74231 0.57505 0.0
H814 H 0.57619 0.7776 0.63599 0.0
H815 H 0.57439 0.74458 0.6752 0.0
C816 C 0.5521 0.81824 0.59983 0.0
C817 C 0.54394 0.81901 0.53293 0.0
C818 C 0.55251 0.80008 0.62134 0.0
C819 C 0.5444 0.78222 0.57677 0.0
C820 C 0.53653 0.78313 0.50931 0.0
C821 C 0.53647 0.80146 0.48732 0.0
C822 C 0.52323 0.72429 0.62045 0.0
C823 C 0.54124 0.72455 0.64832 0.0
C824 C 0.52435 0.74299 0.59667 0.0
C825 C 0.54341 0.76242 0.60169 0.0
C826 C 0.5613 0.76281 0.63155 0.0
C827 C 0.56026 0.744 0.65422 0.0
H828 H 0.83181 0.57341 0.84624 0.0
H829 H 0.80383 0.50947 0.76575 0.0
H830 H 0.80054 0.57506 0.80682 0.0
H831 H 0.77296 0.51127 0.7247 0.0
H832 H 0.73237 0.53098 0.59454 0.0
H833 H 0.76503 0.53183 0.63209 0.0
H834 H 0.76104 0.55663 0.83668 0.0
H835 H 0.72846 0.55579 0.7989 0.0
C836 C 0.81891 0.5597 0.82054 0.0
C837 C 0.82022 0.54134 0.80879 0.0
C838 C 0.8011 0.56066 0.79774 0.0
C839 C 0.78443 0.54337 0.76204 0.0
C840 C 0.78573 0.52498 0.75089 0.0
C841 C 0.80336 0.52393 0.77449 0.0
C842 C 0.73869 0.53687 0.64707 0.0
C843 C 0.72799 0.5433 0.69393 0.0
C844 C 0.75723 0.5372 0.66879 0.0
C845 C 0.76551 0.54422 0.73743 0.0
C846 C 0.75511 0.55128 0.78339 0.0
C847 C 0.73645 0.55069 0.76197 0.0
H848 H 0.27718 0.8017 0.09157 0.0
H849 H 0.2799 0.83164 0.89085 0.0
H850 H 0.24486 0.76962 0.0525 0.0
H851 H 0.24749 0.79975 0.85202 0.0
H852 H 0.17623 0.74452 0.84965 0.0
H853 H 0.20742 0.77756 0.88923 0.0
H854 H 0.23811 0.74237 0.95051 0.0
H855 H 0.20736 0.70958 0.90846 0.0
C856 C 0.27063 0.80148 0.03962 0.0
C857 C 0.28089 0.81903 0.99412 0.0
C858 C 0.2523 0.78315 0.01708 0.0
C859 C 0.24375 0.78223 0.94918 0.0
C860 C 0.25368 0.80009 0.90471 0.0
C861 C 0.2722 0.81825 0.92676 0.0
C862 C 0.18978 0.74396 0.87072 0.0
C863 C 0.18937 0.72453 0.8766 0.0
C864 C 0.20753 0.76279 0.89362 0.0
C865 C 0.22502 0.76243 0.92375 0.0
C866 C 0.22468 0.74303 0.92868 0.0
C867 C 0.20713 0.72431 0.90462 0.0
H868 H 0.45191 0.28074 0.04429 0.0
H869 H 0.47364 0.27349 0.25009 0.0
H870 H 0.4496 0.24777 0.00425 0.0
H871 H 0.47198 0.24077 0.20999 0.0
H872 H 0.45096 0.1739 0.13798 0.0
H873 H 0.44925 0.20491 0.17765 0.0
H874 H 0.47165 0.23388 0.97135 0.0
H875 H 0.4727 0.20246 0.9316 0.0
C876 C 0.45622 0.27203 0.08087 0.0
C877 C 0.46295 0.27958 0.15018 0.0
C878 C 0.45502 0.2532 0.0579 0.0
C879 C 0.46072 0.24158 0.10361 0.0
C880 C 0.46714 0.24906 0.17355 0.0
C881 C 0.46814 0.26782 0.19666 0.0
C882 C 0.45538 0.18689 0.10117 0.0
C883 C 0.46196 0.18587 0.03184 0.0
C884 C 0.45453 0.20472 0.12394 0.0
C885 C 0.46046 0.22205 0.07802 0.0
C886 C 0.46666 0.22076 0.00797 0.0
C887 C 0.46731 0.2028 0.98505 0.0
H888 H 0.35219 0.40472 0.10211 0.0
H889 H 0.40165 0.45457 0.22845 0.0
H890 H 0.37004 0.38382 0.11328 0.0
H891 H 0.41958 0.4339 0.23745 0.0
H892 H 0.45545 0.40181 0.12737 0.0
H893 H 0.43453 0.41948 0.11757 0.0
H894 H 0.38427 0.36947 0.2397 0.0
H895 H 0.4054 0.35189 0.25161 0.0
C896 C 0.36674 0.41114 0.13256 0.0
C897 C 0.37552 0.43131 0.16434 0.0
C898 C 0.37688 0.39918 0.13894 0.0
C899 C 0.39616 0.40741 0.17582 0.0
C900 C 0.40474 0.42733 0.20856 0.0
C901 C 0.39442 0.43907 0.20358 0.0
C902 C 0.43985 0.39442 0.15154 0.0
C903 C 0.4321 0.37547 0.19046 0.0
C904 C 0.42797 0.40459 0.14611 0.0
C905 C 0.40791 0.39578 0.17805 0.0
C906 C 0.39971 0.37646 0.21459 0.0
C907 C 0.41181 0.36649 0.22143 0.0
H908 H 0.95318 0.36491 0.20465 0.0
H909 H 0.94734 0.38339 0.41833 0.0
H910 H 0.99158 0.38183 0.22024 0.0
H911 H 0.98559 0.40026 0.43355 0.0
H912 H 0.05962 0.44077 0.2506 0.0
H913 H 0.02136 0.41931 0.23312 0.0
H914 H 0.01474 0.39188 0.44177 0.0
H915 H 0.05296 0.41339 0.45969 0.0
C916 C 0.96003 0.37237 0.25515 0.0
C917 C 0.94716 0.37283 0.31019 0.0
C918 C 0.98203 0.38216 0.26387 0.0
C919 C 0.9916 0.39239 0.32806 0.0
C920 C 0.97867 0.3923 0.38373 0.0
C921 C 0.95674 0.38272 0.37483 0.0
C922 C 0.05005 0.43002 0.29253 0.0
C923 C 0.05936 0.42893 0.35676 0.0
C924 C 0.02813 0.41763 0.2823 0.0
C925 C 0.01504 0.40399 0.33624 0.0
C926 C 0.02441 0.40243 0.39957 0.0
C927 C 0.04633 0.41468 0.40961 0.0
H928 H 0.62851 0.05808 0.42598 0.0
H929 H 0.63827 0.05425 0.65078 0.0
H930 H 0.61207 0.01984 0.41601 0.0
H931 H 0.62219 0.01578 0.6405 0.0
H932 H 0.56457 0.94754 0.6036 0.0
H933 H 0.58623 0.98581 0.61926 0.0
H934 H 0.61885 0.99036 0.42236 0.0
H935 H 0.59697 0.95216 0.40588 0.0
C936 C 0.62728 0.04914 0.47323 0.0
C937 C 0.63446 0.0593 0.53925 0.0
C938 C 0.61805 0.02715 0.46739 0.0
C939 C 0.61573 0.01471 0.52752 0.0
C940 C 0.62352 0.02489 0.59329 0.0
C941 C 0.63288 0.04696 0.59903 0.0
C942 C 0.5765 0.95665 0.56395 0.0
C943 C 0.57885 0.94676 0.50307 0.0
C944 C 0.58903 0.9786 0.57321 0.0
C945 C 0.60417 0.99117 0.52179 0.0
C946 C 0.6071 0.98117 0.46241 0.0
C947 C 0.59462 0.95923 0.45319 0.0
H948 H 0.64354 0.59219 0.55787 0.0
H949 H 0.62234 0.56522 0.76724 0.0
H950 H 0.62662 0.61354 0.57372 0.0
H951 H 0.60533 0.58656 0.78267 0.0
H952 H 0.56686 0.62074 0.59238 0.0
H953 H 0.58879 0.60443 0.57998 0.0
H954 H 0.61256 0.62405 0.79333 0.0
H955 H 0.59056 0.64049 0.80602 0.0
C956 C 0.63548 0.59097 0.60761 0.0
C957 C 0.63416 0.57685 0.66108 0.0
C958 C 0.6257 0.60314 0.61647 0.0
C959 C 0.61453 0.60162 0.67921 0.0
C960 C 0.61395 0.58818 0.73391 0.0
C961 C 0.62359 0.57586 0.72486 0.0
C962 C 0.57693 0.62184 0.63644 0.0
C963 C 0.57691 0.63193 0.70021 0.0
C964 C 0.58958 0.61255 0.62917 0.0
C965 C 0.60239 0.61295 0.6857 0.0
C966 C 0.60272 0.62337 0.74906 0.0
C967 C 0.5902 0.63288 0.75611 0.0
H968 H 0.05897 0.6184 0.93177 0.0
H969 H 0.05629 0.64628 0.73184 0.0
H970 H 0.02081 0.60256 0.94489 0.0
H971 H 0.01798 0.63051 0.74553 0.0
H972 H 0.94945 0.57255 0.74989 0.0
H973 H 0.98773 0.5943 0.74007 0.0
H974 H 0.9916 0.60974 0.96346 0.0
H975 H 0.95315 0.58746 0.97364 0.0
C976 C 0.05032 0.62145 0.89109 0.0
C977 C 0.06075 0.63355 0.83054 0.0
C978 C 0.0284 0.61244 0.89886 0.0
C979 C 0.01632 0.61521 0.84617 0.0
C980 C 0.02681 0.62788 0.7867 0.0
C981 C 0.04879 0.63699 0.77904 0.0
C982 C 0.95837 0.58056 0.79691 0.0
C983 C 0.94817 0.5779 0.86271 0.0
C984 C 0.98037 0.59328 0.7911 0.0
C985 C 0.99277 0.60367 0.85108 0.0
C986 C 0.98252 0.60172 0.91642 0.0
C987 C 0.96046 0.58906 0.92211 0.0
H988 H 0.45588 0.0567 0.05724 0.0
H989 H 0.40491 0.05521 0.93487 0.0
H990 H 0.43543 0.01813 0.06926 0.0
H991 H 0.38423 0.01651 0.94903 0.0
H992 H 0.35314 0.95004 0.08993 0.0
H993 H 0.37068 0.98872 0.07591 0.0
H994 H 0.42033 0.98794 0.95326 0.0
H995 H 0.40269 0.94939 0.96513 0.0
C996 C 0.44019 0.0482 0.03389 0.0
C997 C 0.43203 0.059 0.99492 0.0
C998 C 0.42857 0.02615 0.04058 0.0
C999 C 0.40837 0.01452 0.00988 0.0
C1000 C 0.39979 0.02525 0.97319 0.0
C1001 C 0.41163 0.04732 0.96506 0.0
C1002 C 0.36765 0.95811 0.05924 0.0
C1003 C 0.37654 0.94667 0.02865 0.0
C1004 C 0.37761 0.98016 0.05121 0.0
C1005 C 0.39682 0.99113 0.01387 0.0
C1006 C 0.40553 0.97974 0.98245 0.0
C1007 C 0.39537 0.9577 0.98906 0.0
loop_
_geom_bond_atom_site_label_1
_geom_bond_atom_site_label_2
_geom_bond_distance
_geom_bond_site_symmetry_2
_ccdc_geom_bond_type
Co0 O3 1.970 . S
Co0 N17 1.989 . S
Co0 O25 1.967 . S
Co0 O32 1.920 1_554 S
Co1 O4 1.966 . S
Co1 N10 2.022 . S
Co1 N18 1.993 . S
Co1 O26 1.941 . S
C2 O3 1.258 . S
C2 O4 1.263 . S
O3 Co0 1.970 . S
O3 C2 1.258 . S
O4 Co1 1.966 . S
O4 C2 1.263 . S
C5 O6 1.235 . S
C5 O32 1.289 . S
O6 C5 1.235 . S
C7 C9 1.400 . S
C7 N10 1.351 . S
C7 C12 1.501 . S
C8 C9 1.387 . S
C8 N11 1.341 . S
C9 C7 1.400 . S
C9 C8 1.387 . S
N10 Co1 2.022 . S
N10 C7 1.351 . S
N10 N11 1.365 . S
N11 C8 1.341 . S
N11 N10 1.365 . S
N11 H31 0.862 . S
C12 C7 1.501 . S
C12 H13 0.961 . S
C12 H14 0.961 . S
C12 H15 0.960 . S
H13 C12 0.961 . S
H14 C12 0.961 . S
H15 C12 0.960 . S
C16 N17 1.342 . S
C16 C20 1.401 . S
C16 C21 1.499 . S
N17 Co0 1.989 . S
N17 C16 1.342 . S
N17 N18 1.388 . S
N18 Co1 1.993 . S
N18 N17 1.388 . S
N18 C19 1.346 . S
C19 N18 1.346 . S
C19 C20 1.396 . S
C19 C29 1.510 . S
C20 C16 1.401 . S
C20 C19 1.396 . S
C21 C16 1.499 . S
C21 H22 0.959 1_554 S
C21 H23 0.960 . S
C21 H24 0.961 . S
H22 C21 0.959 1_556 S
H23 C21 0.960 . S
H24 C21 0.961 . S
O25 Co0 1.967 . S
O25 C33 1.258 . S
O26 Co1 1.941 . S
O26 C33 1.266 . S
H27 C29 0.959 . S
H28 C29 0.961 . S
C29 C19 1.510 . S
C29 H27 0.959 . S
C29 H28 0.961 . S
C29 H30 0.960 . S
H30 C29 0.960 . S
H31 N11 0.862 . S
O32 Co0 1.920 1_556 S
O32 C5 1.289 . S
C33 O25 1.258 . S
C33 O26 1.266 . S
Co34 O37 1.970 . S
Co34 N51 1.989 . S
Co34 O59 1.967 . S
Co34 O66 1.920 . S
Co35 O38 1.966 . S
Co35 N44 2.022 . S
Co35 N52 1.993 . S
Co35 O60 1.941 . S
C36 O37 1.258 . S
C36 O38 1.263 . S
O37 Co34 1.970 . S
O37 C36 1.258 . S
O38 Co35 1.966 . S
O38 C36 1.263 . S
C39 O40 1.235 . S
C39 O66 1.289 . S
O40 C39 1.235 . S
C41 C43 1.400 . S
C41 N44 1.351 . S
C41 C46 1.501 . S
C42 C43 1.387 . S
C42 N45 1.341 . S
C43 C41 1.400 . S
C43 C42 1.387 . S
N44 Co35 2.022 . S
N44 C41 1.351 . S
N44 N45 1.365 . S
N45 C42 1.341 . S
N45 N44 1.365 . S
N45 H65 0.862 . S
C46 C41 1.501 . S
C46 H47 0.961 . S
C46 H48 0.961 . S
C46 H49 0.960 . S
H47 C46 0.961 . S
H48 C46 0.961 . S
H49 C46 0.960 . S
C50 N51 1.342 . S
C50 C54 1.401 . S
C50 C55 1.499 . S
N51 Co34 1.989 . S
N51 C50 1.342 . S
N51 N52 1.388 . S
N52 Co35 1.993 . S
N52 N51 1.388 . S
N52 C53 1.346 . S
C53 N52 1.346 . S
C53 C54 1.396 . S
C53 C63 1.510 . S
C54 C50 1.401 . S
C54 C53 1.396 . S
C55 C50 1.499 . S
C55 H56 0.959 . S
C55 H57 0.960 . S
C55 H58 0.961 . S
H56 C55 0.959 . S
H57 C55 0.960 . S
H58 C55 0.961 . S
O59 Co34 1.967 . S
O59 C67 1.258 . S
O60 Co35 1.941 . S
O60 C67 1.266 . S
H61 C63 0.959 . S
H62 C63 0.961 . S
C63 C53 1.510 . S
C63 H61 0.959 . S
C63 H62 0.961 . S
C63 H64 0.960 . S
H64 C63 0.960 . S
H65 N45 0.862 . S
O66 Co34 1.920 . S
O66 C39 1.289 . S
C67 O59 1.258 . S
C67 O60 1.266 . S
Co68 O71 1.970 . S
Co68 N85 1.989 . S
Co68 O93 1.967 . S
Co68 O100 1.920 . S
Co69 O72 1.966 . S
Co69 N78 2.022 . S
Co69 N86 1.993 . S
Co69 O94 1.941 . S
C70 O71 1.258 . S
C70 O72 1.263 . S
O71 Co68 1.970 . S
O71 C70 1.258 . S
O72 Co69 1.966 . S
O72 C70 1.263 . S
C73 O74 1.235 . S
C73 O100 1.289 . S
O74 C73 1.235 . S
C75 C77 1.400 . S
C75 N78 1.351 . S
C75 C80 1.501 . S
C76 C77 1.387 . S
C76 N79 1.341 . S
C77 C75 1.400 . S
C77 C76 1.387 . S
N78 Co69 2.022 . S
N78 C75 1.351 . S
N78 N79 1.365 . S
N79 C76 1.341 . S
N79 N78 1.365 . S
N79 H99 0.862 . S
C80 C75 1.501 . S
C80 H81 0.961 . S
C80 H82 0.961 . S
C80 H83 0.960 . S
H81 C80 0.961 . S
H82 C80 0.961 . S
H83 C80 0.960 . S
C84 N85 1.342 . S
C84 C88 1.401 . S
C84 C89 1.499 . S
N85 Co68 1.989 . S
N85 C84 1.342 . S
N85 N86 1.388 . S
N86 Co69 1.993 . S
N86 N85 1.388 . S
N86 C87 1.346 . S
C87 N86 1.346 . S
C87 C88 1.396 . S
C87 C97 1.510 . S
C88 C84 1.401 . S
C88 C87 1.396 . S
C89 C84 1.499 . S
C89 H90 0.959 . S
C89 H91 0.960 . S
C89 H92 0.961 . S
H90 C89 0.959 . S
H91 C89 0.960 . S
H92 C89 0.961 . S
O93 Co68 1.967 . S
O93 C101 1.258 . S
O94 Co69 1.941 . S
O94 C101 1.266 . S
H95 C97 0.959 . S
H96 C97 0.961 . S
C97 C87 1.510 . S
C97 H95 0.959 . S
C97 H96 0.961 . S
C97 H98 0.960 . S
H98 C97 0.960 . S
H99 N79 0.862 . S
O100 Co68 1.920 . S
O100 C73 1.289 . S
C101 O93 1.258 . S
C101 O94 1.266 . S
Co102 O105 1.970 . S
Co102 N119 1.989 . S
Co102 O127 1.967 . S
Co102 O134 1.920 . S
Co103 O106 1.966 . S
Co103 N112 2.022 . S
Co103 N120 1.993 . S
Co103 O128 1.941 . S
C104 O105 1.258 . S
C104 O106 1.263 . S
O105 Co102 1.970 . S
O105 C104 1.258 . S
O106 Co103 1.966 . S
O106 C104 1.263 . S
C107 O108 1.235 . S
C107 O134 1.289 . S
O108 C107 1.235 . S
C109 C111 1.400 . S
C109 N112 1.351 . S
C109 C114 1.501 . S
C110 C111 1.387 . S
C110 N113 1.341 . S
C111 C109 1.400 . S
C111 C110 1.387 . S
N112 Co103 2.022 . S
N112 C109 1.351 . S
N112 N113 1.365 . S
N113 C110 1.341 . S
N113 N112 1.365 . S
N113 H133 0.862 . S
C114 C109 1.501 . S
C114 H115 0.961 . S
C114 H116 0.961 . S
C114 H117 0.960 . S
H115 C114 0.961 . S
H116 C114 0.961 . S
H117 C114 0.960 . S
C118 N119 1.342 . S
C118 C122 1.401 . S
C118 C123 1.499 . S
N119 Co102 1.989 . S
N119 C118 1.342 . S
N119 N120 1.388 . S
N120 Co103 1.993 . S
N120 N119 1.388 . S
N120 C121 1.346 . S
C121 N120 1.346 . S
C121 C122 1.396 . S
C121 C131 1.510 . S
C122 C118 1.401 . S
C122 C121 1.396 . S
C123 C118 1.499 . S
C123 H124 0.959 . S
C123 H125 0.960 . S
C123 H126 0.961 . S
H124 C123 0.959 . S
H125 C123 0.960 . S
H126 C123 0.961 . S
O127 Co102 1.967 . S
O127 C135 1.258 . S
O128 Co103 1.941 . S
O128 C135 1.266 . S
H129 C131 0.959 . S
H130 C131 0.961 . S
C131 C121 1.510 . S
C131 H129 0.959 . S
C131 H130 0.961 . S
C131 H132 0.960 . S
H132 C131 0.960 . S
H133 N113 0.862 . S
O134 Co102 1.920 . S
O134 C107 1.289 . S
C135 O127 1.258 . S
C135 O128 1.266 . S
Co136 O139 1.970 . S
Co136 N153 1.989 . S
Co136 O161 1.967 . S
Co136 O168 1.920 . S
Co137 O140 1.966 . S
Co137 N146 2.022 . S
Co137 N154 1.993 . S
Co137 O162 1.941 . S
C138 O139 1.258 . S
C138 O140 1.263 . S
O139 Co136 1.970 . S
O139 C138 1.258 . S
O140 Co137 1.966 . S
O140 C138 1.263 . S
C141 O142 1.235 . S
C141 O168 1.289 . S
O142 C141 1.235 . S
C143 C145 1.400 . S
C143 N146 1.351 1_554 S
C143 C148 1.501 . S
C144 C145 1.387 . S
C144 N147 1.341 . S
C145 C143 1.400 . S
C145 C144 1.387 . S
N146 Co137 2.022 . S
N146 C143 1.351 1_556 S
N146 N147 1.365 1_556 S
N147 C144 1.341 . S
N147 N146 1.365 1_554 S
N147 H167 0.862 . S
C148 C143 1.501 . S
C148 H149 0.961 1_554 S
C148 H150 0.961 . S
C148 H151 0.960 . S
H149 C148 0.961 1_556 S
H150 C148 0.961 . S
H151 C148 0.960 . S
C152 N153 1.342 . S
C152 C156 1.401 . S
C152 C157 1.499 . S
N153 Co136 1.989 . S
N153 C152 1.342 . S
N153 N154 1.388 . S
N154 Co137 1.993 . S
N154 N153 1.388 . S
N154 C155 1.346 . S
C155 N154 1.346 . S
C155 C156 1.396 . S
C155 C165 1.510 . S
C156 C152 1.401 . S
C156 C155 1.396 . S
C157 C152 1.499 . S
C157 H158 0.959 . S
C157 H159 0.960 . S
C157 H160 0.961 . S
H158 C157 0.959 . S
H159 C157 0.960 . S
H160 C157 0.961 . S
O161 Co136 1.967 . S
O161 C169 1.258 . S
O162 Co137 1.941 . S
O162 C169 1.266 . S
H163 C165 0.959 . S
H164 C165 0.961 . S
C165 C155 1.510 . S
C165 H163 0.959 . S
C165 H164 0.961 . S
C165 H166 0.960 . S
H166 C165 0.960 . S
H167 N147 0.862 . S
O168 Co136 1.920 . S
O168 C141 1.289 . S
C169 O161 1.258 . S
C169 O162 1.266 . S
Co170 O173 1.970 . S
Co170 N187 1.989 . S
Co170 O195 1.967 . S
Co170 O202 1.920 . S
Co171 O174 1.966 . S
Co171 N180 2.022 . S
Co171 N188 1.993 . S
Co171 O196 1.941 . S
C172 O173 1.258 . S
C172 O174 1.263 1_556 S
O173 Co170 1.970 . S
O173 C172 1.258 . S
O174 Co171 1.966 . S
O174 C172 1.263 1_554 S
C175 O176 1.235 . S
C175 O202 1.289 . S
O176 C175 1.235 . S
C177 C179 1.400 . S
C177 N180 1.351 . S
C177 C182 1.501 . S
C178 C179 1.387 . S
C178 N181 1.341 . S
C179 C177 1.400 . S
C179 C178 1.387 . S
N180 Co171 2.022 . S
N180 C177 1.351 . S
N180 N181 1.365 . S
N181 C178 1.341 . S
N181 N180 1.365 . S
N181 H201 0.862 . S
C182 C177 1.501 . S
C182 H183 0.961 . S
C182 H184 0.961 . S
C182 H185 0.960 . S
H183 C182 0.961 . S
H184 C182 0.961 . S
H185 C182 0.960 . S
C186 N187 1.342 . S
C186 C190 1.401 1_556 S
C186 C191 1.499 . S
N187 Co170 1.989 . S
N187 C186 1.342 . S
N187 N188 1.388 1_556 S
N188 Co171 1.993 . S
N188 N187 1.388 1_554 S
N188 C189 1.346 . S
C189 N188 1.346 . S
C189 C190 1.396 . S
C189 C199 1.510 . S
C190 C186 1.401 1_554 S
C190 C189 1.396 . S
C191 C186 1.499 . S
C191 H192 0.959 . S
C191 H193 0.960 . S
C191 H194 0.961 . S
H192 C191 0.959 . S
H193 C191 0.960 . S
H194 C191 0.961 . S
O195 Co170 1.967 . S
O195 C203 1.258 . S
O196 Co171 1.941 . S
O196 C203 1.266 1_554 S
H197 C199 0.959 . S
H198 C199 0.961 . S
C199 C189 1.510 . S
C199 H197 0.959 . S
C199 H198 0.961 . S
C199 H200 0.960 . S
H200 C199 0.960 . S
H201 N181 0.862 . S
O202 Co170 1.920 . S
O202 C175 1.289 . S
C203 O195 1.258 . S
C203 O196 1.266 1_556 S
Co204 O207 1.970 . S
Co204 N221 1.989 . S
Co204 O229 1.967 . S
Co204 O236 1.920 . S
Co205 O208 1.966 . S
Co205 N214 2.022 . S
Co205 N222 1.993 . S
Co205 O230 1.941 . S
C206 O207 1.258 . S
C206 O208 1.263 . S
O207 Co204 1.970 . S
O207 C206 1.258 . S
O208 Co205 1.966 . S
O208 C206 1.263 . S
C209 O210 1.235 . S
C209 O236 1.289 . S
O210 C209 1.235 . S
C211 C213 1.400 . S
C211 N214 1.351 . S
C211 C216 1.501 . S
C212 C213 1.387 . S
C212 N215 1.341 . S
C213 C211 1.400 . S
C213 C212 1.387 . S
N214 Co205 2.022 . S
N214 C211 1.351 . S
N214 N215 1.365 . S
N215 C212 1.341 . S
N215 N214 1.365 . S
N215 H235 0.862 . S
C216 C211 1.501 . S
C216 H217 0.961 . S
C216 H218 0.961 . S
C216 H219 0.960 . S
H217 C216 0.961 . S
H218 C216 0.961 . S
H219 C216 0.960 . S
C220 N221 1.342 . S
C220 C224 1.401 . S
C220 C225 1.499 . S
N221 Co204 1.989 . S
N221 C220 1.342 . S
N221 N222 1.388 . S
N222 Co205 1.993 . S
N222 N221 1.388 . S
N222 C223 1.346 . S
C223 N222 1.346 . S
C223 C224 1.396 . S
C223 C233 1.510 . S
C224 C220 1.401 . S
C224 C223 1.396 . S
C225 C220 1.499 . S
C225 H226 0.959 . S
C225 H227 0.960 . S
C225 H228 0.961 . S
H226 C225 0.959 . S
H227 C225 0.960 . S
H228 C225 0.961 . S
O229 Co204 1.967 . S
O229 C237 1.258 . S
O230 Co205 1.941 . S
O230 C237 1.266 . S
H231 C233 0.959 . S
H232 C233 0.961 . S
C233 C223 1.510 . S
C233 H231 0.959 . S
C233 H232 0.961 . S
C233 H234 0.960 . S
H234 C233 0.960 . S
H235 N215 0.862 . S
O236 Co204 1.920 . S
O236 C209 1.289 . S
C237 O229 1.258 . S
C237 O230 1.266 . S
Co238 O241 1.970 . S
Co238 N255 1.989 . S
Co238 O263 1.967 . S
Co238 O270 1.920 1_556 S
Co239 O242 1.966 . S
Co239 N248 2.022 . S
Co239 N256 1.993 . S
Co239 O264 1.941 . S
C240 O241 1.258 . S
C240 O242 1.263 . S
O241 Co238 1.970 . S
O241 C240 1.258 . S
O242 Co239 1.966 . S
O242 C240 1.263 . S
C243 O244 1.235 . S
C243 O270 1.289 . S
O244 C243 1.235 . S
C245 C247 1.400 . S
C245 N248 1.351 . S
C245 C250 1.501 . S
C246 C247 1.387 . S
C246 N249 1.341 . S
C247 C245 1.400 . S
C247 C246 1.387 . S
N248 Co239 2.022 . S
N248 C245 1.351 . S
N248 N249 1.365 . S
N249 C246 1.341 . S
N249 N248 1.365 . S
N249 H269 0.862 . S
C250 C245 1.501 . S
C250 H251 0.961 . S
C250 H252 0.961 . S
C250 H253 0.960 . S
H251 C250 0.961 . S
H252 C250 0.961 . S
H253 C250 0.960 . S
C254 N255 1.342 . S
C254 C258 1.401 . S
C254 C259 1.499 . S
N255 Co238 1.989 . S
N255 C254 1.342 . S
N255 N256 1.388 . S
N256 Co239 1.993 . S
N256 N255 1.388 . S
N256 C257 1.346 . S
C257 N256 1.346 . S
C257 C258 1.396 . S
C257 C267 1.510 . S
C258 C254 1.401 . S
C258 C257 1.396 . S
C259 C254 1.499 . S
C259 H260 0.959 1_556 S
C259 H261 0.959 1_556 S
C259 H262 0.961 1_556 S
H260 C259 0.959 1_554 S
H261 C259 0.959 1_554 S
H262 C259 0.961 1_554 S
O263 Co238 1.967 . S
O263 C271 1.258 . S
O264 Co239 1.941 . S
O264 C271 1.266 . S
H265 C267 0.959 . S
H266 C267 0.961 . S
C267 C257 1.510 . S
C267 H265 0.959 . S
C267 H266 0.961 . S
C267 H268 0.960 . S
H268 C267 0.960 . S
H269 N249 0.862 . S
O270 Co238 1.920 1_554 S
O270 C243 1.289 . S
C271 O263 1.258 . S
C271 O264 1.266 . S
Co272 O275 1.970 . S
Co272 N289 1.989 . S
Co272 O297 1.967 . S
Co272 O304 1.920 . S
Co273 O276 1.966 . S
Co273 N282 2.022 . S
Co273 N290 1.993 1_556 S
Co273 O298 1.941 1_556 S
C274 O275 1.258 . S
C274 O276 1.263 1_554 S
O275 Co272 1.970 . S
O275 C274 1.258 . S
O276 Co273 1.966 . S
O276 C274 1.263 1_556 S
C277 O278 1.235 . S
C277 O304 1.289 . S
O278 C277 1.235 . S
C279 C281 1.400 . S
C279 N282 1.351 . S
C279 C284 1.501 . S
C280 C281 1.387 . S
C280 N283 1.341 . S
C281 C279 1.400 . S
C281 C280 1.387 . S
N282 Co273 2.022 . S
N282 C279 1.351 . S
N282 N283 1.365 . S
N283 C280 1.341 . S
N283 N282 1.365 . S
N283 H303 0.862 . S
C284 C279 1.501 . S
C284 H285 0.961 . S
C284 H286 0.961 . S
C284 H287 0.960 . S
H285 C284 0.961 . S
H286 C284 0.961 . S
H287 C284 0.960 . S
C288 N289 1.342 . S
C288 C292 1.401 . S
C288 C293 1.499 . S
N289 Co272 1.989 . S
N289 C288 1.342 . S
N289 N290 1.388 . S
N290 Co273 1.993 1_554 S
N290 N289 1.388 . S
N290 C291 1.346 1_554 S
C291 N290 1.346 1_556 S
C291 C292 1.396 1_556 S
C291 C301 1.510 . S
C292 C288 1.401 . S
C292 C291 1.396 1_554 S
C293 C288 1.499 . S
C293 H294 0.959 . S
C293 H295 0.960 . S
C293 H296 0.961 . S
H294 C293 0.959 . S
H295 C293 0.960 . S
H296 C293 0.961 . S
O297 Co272 1.967 . S
O297 C305 1.258 . S
O298 Co273 1.941 1_554 S
O298 C305 1.266 . S
H299 C301 0.959 . S
H300 C301 0.961 . S
C301 C291 1.510 . S
C301 H299 0.959 . S
C301 H300 0.961 . S
C301 H302 0.960 . S
H302 C301 0.960 . S
H303 N283 0.862 . S
O304 Co272 1.920 . S
O304 C277 1.289 . S
C305 O297 1.258 . S
C305 O298 1.266 . S
Co306 O309 1.970 . S
Co306 N323 1.989 . S
Co306 O331 1.967 . S
Co306 O338 1.920 . S
Co307 O310 1.966 . S
Co307 N316 2.022 . S
Co307 N324 1.993 . S
Co307 O332 1.941 . S
C308 O309 1.258 . S
C308 O310 1.263 . S
O309 Co306 1.970 . S
O309 C308 1.258 . S
O310 Co307 1.966 . S
O310 C308 1.263 . S
C311 O312 1.235 . S
C311 O338 1.289 . S
O312 C311 1.235 . S
C313 C315 1.400 . S
C313 N316 1.351 1_556 S
C313 C318 1.501 . S
C314 C315 1.387 . S
C314 N317 1.341 . S
C315 C313 1.400 . S
C315 C314 1.387 . S
N316 Co307 2.022 . S
N316 C313 1.351 1_554 S
N316 N317 1.365 1_554 S
N317 C314 1.341 . S
N317 N316 1.365 1_556 S
N317 H337 0.862 1_556 S
C318 C313 1.501 . S
C318 H319 0.961 1_556 S
C318 H320 0.961 . S
C318 H321 0.960 . S
H319 C318 0.961 1_554 S
H320 C318 0.961 . S
H321 C318 0.960 . S
C322 N323 1.342 . S
C322 C326 1.401 . S
C322 C327 1.499 . S
N323 Co306 1.989 . S
N323 C322 1.342 . S
N323 N324 1.388 . S
N324 Co307 1.993 . S
N324 N323 1.388 . S
N324 C325 1.346 . S
C325 N324 1.346 . S
C325 C326 1.396 . S
C325 C335 1.510 . S
C326 C322 1.401 . S
C326 C325 1.396 . S
C327 C322 1.499 . S
C327 H328 0.959 . S
C327 H329 0.960 . S
C327 H330 0.961 . S
H328 C327 0.959 . S
H329 C327 0.960 . S
H330 C327 0.961 . S
O331 Co306 1.967 . S
O331 C339 1.258 . S
O332 Co307 1.941 . S
O332 C339 1.266 . S
H333 C335 0.959 . S
H334 C335 0.961 . S
C335 C325 1.510 . S
C335 H333 0.959 . S
C335 H334 0.961 . S
C335 H336 0.960 . S
H336 C335 0.960 . S
H337 N317 0.862 1_554 S
O338 Co306 1.920 . S
O338 C311 1.289 . S
C339 O331 1.258 . S
C339 O332 1.266 . S
Co340 O343 1.970 . S
Co340 N357 1.989 . S
Co340 O365 1.967 . S
Co340 O372 1.920 . S
Co341 O344 1.966 . S
Co341 N350 2.022 . S
Co341 N358 1.993 . S
Co341 O366 1.941 . S
C342 O343 1.258 . S
C342 O344 1.263 . S
O343 Co340 1.970 . S
O343 C342 1.258 . S
O344 Co341 1.966 . S
O344 C342 1.263 . S
C345 O346 1.235 . S
C345 O372 1.289 . S
O346 C345 1.235 . S
C347 C349 1.400 . S
C347 N350 1.351 . S
C347 C352 1.501 . S
C348 C349 1.387 . S
C348 N351 1.341 . S
C349 C347 1.400 . S
C349 C348 1.387 . S
N350 Co341 2.022 . S
N350 C347 1.351 . S
N350 N351 1.365 . S
N351 C348 1.341 . S
N351 N350 1.365 . S
N351 H371 0.862 . S
C352 C347 1.501 . S
C352 H353 0.961 . S
C352 H354 0.961 . S
C352 H355 0.960 . S
H353 C352 0.961 . S
H354 C352 0.961 . S
H355 C352 0.960 . S
C356 N357 1.342 . S
C356 C360 1.401 . S
C356 C361 1.499 . S
N357 Co340 1.989 . S
N357 C356 1.342 . S
N357 N358 1.388 . S
N358 Co341 1.993 . S
N358 N357 1.388 . S
N358 C359 1.346 . S
C359 N358 1.346 . S
C359 C360 1.396 . S
C359 C369 1.510 . S
C360 C356 1.401 . S
C360 C359 1.396 . S
C361 C356 1.499 . S
C361 H362 0.959 . S
C361 H363 0.960 . S
C361 H364 0.961 . S
H362 C361 0.959 . S
H363 C361 0.960 . S
H364 C361 0.961 . S
O365 Co340 1.967 . S
O365 C373 1.258 . S
O366 Co341 1.941 . S
O366 C373 1.266 . S
H367 C369 0.959 . S
H368 C369 0.961 . S
C369 C359 1.510 . S
C369 H367 0.959 . S
C369 H368 0.961 . S
C369 H370 0.960 . S
H370 C369 0.960 . S
H371 N351 0.862 . S
O372 Co340 1.920 . S
O372 C345 1.289 . S
C373 O365 1.258 . S
C373 O366 1.266 . S
Co374 O377 1.970 . S
Co374 N391 1.989 . S
Co374 O399 1.967 . S
Co374 O406 1.920 . S
Co375 O378 1.966 . S
Co375 N384 2.022 . S
Co375 N392 1.993 . S
Co375 O400 1.941 . S
C376 O377 1.258 . S
C376 O378 1.263 . S
O377 Co374 1.970 . S
O377 C376 1.258 . S
O378 Co375 1.966 . S
O378 C376 1.263 . S
C379 O380 1.235 . S
C379 O406 1.289 . S
O380 C379 1.235 . S
C381 C383 1.400 . S
C381 N384 1.351 . S
C381 C386 1.501 . S
C382 C383 1.387 . S
C382 N385 1.341 . S
C383 C381 1.400 . S
C383 C382 1.387 . S
N384 Co375 2.022 . S
N384 C381 1.351 . S
N384 N385 1.365 . S
N385 C382 1.341 . S
N385 N384 1.365 . S
N385 H405 0.862 . S
C386 C381 1.501 . S
C386 H387 0.961 . S
C386 H388 0.961 . S
C386 H389 0.960 . S
H387 C386 0.961 . S
H388 C386 0.961 . S
H389 C386 0.960 . S
C390 N391 1.342 . S
C390 C394 1.401 . S
C390 C395 1.499 . S
N391 Co374 1.989 . S
N391 C390 1.342 . S
N391 N392 1.388 . S
N392 Co375 1.993 . S
N392 N391 1.388 . S
N392 C393 1.346 . S
C393 N392 1.346 . S
C393 C394 1.396 . S
C393 C403 1.510 . S
C394 C390 1.401 . S
C394 C393 1.396 . S
C395 C390 1.499 . S
C395 H396 0.959 . S
C395 H397 0.960 . S
C395 H398 0.961 . S
H396 C395 0.959 . S
H397 C395 0.960 . S
H398 C395 0.961 . S
O399 Co374 1.967 . S
O399 C407 1.258 . S
O400 Co375 1.941 . S
O400 C407 1.266 . S
H401 C403 0.959 . S
H402 C403 0.961 . S
C403 C393 1.510 . S
C403 H401 0.959 . S
C403 H402 0.961 . S
C403 H404 0.960 . S
H404 C403 0.960 . S
H405 N385 0.862 . S
O406 Co374 1.920 . S
O406 C379 1.289 . S
C407 O399 1.258 . S
C407 O400 1.266 . S
H408 C416 0.950 . S
H409 C421 0.950 . S
H410 C418 0.950 . S
H411 C420 0.950 . S
H412 C422 0.950 . S
H413 C424 0.950 . S
H414 C426 0.950 . S
H415 C427 0.950 . S
C416 H408 0.950 . S
C416 C417 1.386 . S
C416 C418 1.391 . S
C417 C416 1.386 . S
C417 C421 1.393 . S
C418 H410 0.950 . S
C418 C416 1.391 . S
C418 C419 1.400 . S
C419 C418 1.400 . S
C419 C420 1.398 . S
C419 C425 1.491 . S
C420 H411 0.950 . S
C420 C419 1.398 . S
C420 C421 1.391 . S
C421 H409 0.950 . S
C421 C417 1.393 . S
C421 C420 1.391 . S
C422 H412 0.950 . S
C422 C423 1.386 . S
C422 C424 1.391 . S
C423 C422 1.386 . S
C423 C427 1.393 . S
C424 H413 0.950 . S
C424 C422 1.391 . S
C424 C425 1.400 . S
C425 C419 1.491 . S
C425 C424 1.400 . S
C425 C426 1.398 . S
C426 H414 0.950 . S
C426 C425 1.398 . S
C426 C427 1.391 . S
C427 H415 0.950 . S
C427 C423 1.393 . S
C427 C426 1.391 . S
H428 C436 0.950 . S
H429 C441 0.950 1_554 S
H430 C438 0.950 . S
H431 C440 0.950 . S
H432 C442 0.950 . S
H433 C444 0.950 . S
H434 C446 0.950 . S
H435 C447 0.950 . S
C436 H428 0.950 . S
C436 C437 1.386 . S
C436 C438 1.391 1_554 S
C437 C436 1.386 . S
C437 C441 1.393 1_554 S
C438 H430 0.950 . S
C438 C436 1.391 1_556 S
C438 C439 1.400 . S
C439 C438 1.400 . S
C439 C440 1.398 . S
C439 C445 1.491 . S
C440 H431 0.950 . S
C440 C439 1.398 . S
C440 C441 1.391 . S
C441 H429 0.950 1_556 S
C441 C437 1.393 1_556 S
C441 C440 1.391 . S
C442 H432 0.950 . S
C442 C443 1.386 . S
C442 C444 1.391 . S
C443 C442 1.386 . S
C443 C447 1.393 . S
C444 H433 0.950 . S
C444 C442 1.391 . S
C444 C445 1.400 . S
C445 C439 1.491 . S
C445 C444 1.400 . S
C445 C446 1.398 . S
C446 H434 0.950 . S
C446 C445 1.398 . S
C446 C447 1.391 . S
C447 H435 0.950 . S
C447 C443 1.393 . S
C447 C446 1.391 . S
H448 C456 0.950 . S
H449 C461 0.950 . S
H450 C458 0.950 . S
H451 C460 0.950 . S
H452 C462 0.950 . S
H453 C464 0.950 . S
H454 C466 0.950 . S
H455 C467 0.950 . S
C456 H448 0.950 . S
C456 C457 1.386 . S
C456 C458 1.391 . S
C457 C456 1.386 . S
C457 C461 1.393 . S
C458 H450 0.950 . S
C458 C456 1.391 . S
C458 C459 1.400 . S
C459 C458 1.400 . S
C459 C460 1.398 . S
C459 C465 1.491 1_554 S
C460 H451 0.950 . S
C460 C459 1.398 . S
C460 C461 1.391 . S
C461 H449 0.950 . S
C461 C457 1.393 . S
C461 C460 1.391 . S
C462 H452 0.950 . S
C462 C463 1.386 . S
C462 C464 1.391 . S
C463 C462 1.386 . S
C463 C467 1.393 . S
C464 H453 0.950 . S
C464 C462 1.391 . S
C464 C465 1.400 . S
C465 C459 1.491 1_556 S
C465 C464 1.400 . S
C465 C466 1.398 . S
C466 H454 0.950 . S
C466 C465 1.398 . S
C466 C467 1.391 . S
C467 H455 0.950 . S
C467 C463 1.393 . S
C467 C466 1.391 . S
H468 C476 0.950 1_556 S
H469 C481 0.950 . S
H470 C478 0.950 . S
H471 C480 0.950 . S
H472 C482 0.950 . S
H473 C484 0.950 . S
H474 C486 0.950 . S
H475 C487 0.950 . S
C476 H468 0.950 1_554 S
C476 C477 1.386 1_554 S
C476 C478 1.391 . S
C477 C476 1.386 1_556 S
C477 C481 1.393 1_556 S
C478 H470 0.950 . S
C478 C476 1.391 . S
C478 C479 1.400 . S
C479 C478 1.400 . S
C479 C480 1.398 . S
C479 C485 1.491 . S
C480 H471 0.950 . S
C480 C479 1.398 . S
C480 C481 1.391 . S
C481 H469 0.950 . S
C481 C477 1.393 1_554 S
C481 C480 1.391 . S
C482 H472 0.950 . S
C482 C483 1.386 . S
C482 C484 1.391 . S
C483 C482 1.386 . S
C483 C487 1.393 . S
C484 H473 0.950 . S
C484 C482 1.391 . S
C484 C485 1.400 . S
C485 C479 1.491 . S
C485 C484 1.400 . S
C485 C486 1.398 . S
C486 H474 0.950 . S
C486 C485 1.398 . S
C486 C487 1.391 . S
C487 H475 0.950 . S
C487 C483 1.393 . S
C487 C486 1.391 . S
H488 C496 0.950 . S
H489 C501 0.950 . S
H490 C498 0.950 . S
H491 C500 0.950 . S
H492 C502 0.950 . S
H493 C504 0.950 . S
H494 C506 0.950 . S
H495 C507 0.950 . S
C496 H488 0.950 . S
C496 C497 1.386 . S
C496 C498 1.391 . S
C497 C496 1.386 . S
C497 C501 1.393 . S
C498 H490 0.950 . S
C498 C496 1.391 . S
C498 C499 1.400 . S
C499 C498 1.400 . S
C499 C500 1.398 . S
C499 C505 1.491 . S
C500 H491 0.950 . S
C500 C499 1.398 . S
C500 C501 1.391 . S
C501 H489 0.950 . S
C501 C497 1.393 . S
C501 C500 1.391 . S
C502 H492 0.950 . S
C502 C503 1.386 . S
C502 C504 1.391 . S
C503 C502 1.386 . S
C503 C507 1.393 . S
C504 H493 0.950 . S
C504 C502 1.391 . S
C504 C505 1.400 . S
C505 C499 1.491 . S
C505 C504 1.400 . S
C505 C506 1.398 . S
C506 H494 0.950 . S
C506 C505 1.398 . S
C506 C507 1.391 . S
C507 H495 0.950 . S
C507 C503 1.393 . S
C507 C506 1.391 . S
H508 C516 0.950 . S
H509 C521 0.950 . S
H510 C518 0.950 . S
H511 C520 0.950 . S
H512 C522 0.950 . S
H513 C524 0.950 . S
H514 C526 0.950 . S
H515 C527 0.950 . S
C516 H508 0.950 . S
C516 C517 1.386 . S
C516 C518 1.391 . S
C517 C516 1.386 . S
C517 C521 1.393 . S
C518 H510 0.950 . S
C518 C516 1.391 . S
C518 C519 1.400 . S
C519 C518 1.400 . S
C519 C520 1.398 . S
C519 C525 1.491 . S
C520 H511 0.950 . S
C520 C519 1.398 . S
C520 C521 1.391 . S
C521 H509 0.950 . S
C521 C517 1.393 . S
C521 C520 1.391 . S
C522 H512 0.950 . S
C522 C523 1.386 . S
C522 C524 1.391 . S
C523 C522 1.386 . S
C523 C527 1.393 . S
C524 H513 0.950 . S
C524 C522 1.391 . S
C524 C525 1.400 . S
C525 C519 1.491 . S
C525 C524 1.400 . S
C525 C526 1.398 . S
C526 H514 0.950 . S
C526 C525 1.398 . S
C526 C527 1.391 . S
C527 H515 0.950 . S
C527 C523 1.393 . S
C527 C526 1.391 . S
H528 C536 0.950 . S
H529 C541 0.950 . S
H530 C538 0.950 . S
H531 C540 0.950 . S
H532 C542 0.950 1_556 S
H533 C544 0.950 . S
H534 C546 0.950 . S
H535 C547 0.950 . S
C536 H528 0.950 . S
C536 C537 1.386 . S
C536 C538 1.391 . S
C537 C536 1.386 . S
C537 C541 1.393 . S
C538 H530 0.950 . S
C538 C536 1.391 . S
C538 C539 1.400 . S
C539 C538 1.400 . S
C539 C540 1.398 . S
C539 C545 1.491 . S
C540 H531 0.950 . S
C540 C539 1.398 . S
C540 C541 1.391 . S
C541 H529 0.950 . S
C541 C537 1.393 . S
C541 C540 1.391 . S
C542 H532 0.950 1_554 S
C542 C543 1.386 1_554 S
C542 C544 1.391 . S
C543 C542 1.386 1_556 S
C543 C547 1.393 1_556 S
C544 H533 0.950 . S
C544 C542 1.391 . S
C544 C545 1.400 . S
C545 C539 1.491 . S
C545 C544 1.400 . S
C545 C546 1.398 . S
C546 H534 0.950 . S
C546 C545 1.398 . S
C546 C547 1.391 . S
C547 H535 0.950 . S
C547 C543 1.393 1_554 S
C547 C546 1.391 . S
H548 C556 0.950 . S
H549 C561 0.950 . S
H550 C558 0.950 . S
H551 C560 0.950 . S
H552 C562 0.950 . S
H553 C564 0.950 . S
H554 C566 0.950 . S
H555 C567 0.950 . S
C556 H548 0.950 . S
C556 C557 1.386 . S
C556 C558 1.391 . S
C557 C556 1.386 . S
C557 C561 1.393 . S
C558 H550 0.950 . S
C558 C556 1.391 . S
C558 C559 1.400 . S
C559 C558 1.400 . S
C559 C560 1.398 . S
C559 C565 1.491 . S
C560 H551 0.950 . S
C560 C559 1.398 . S
C560 C561 1.391 . S
C561 H549 0.950 . S
C561 C557 1.393 . S
C561 C560 1.391 . S
C562 H552 0.950 . S
C562 C563 1.386 . S
C562 C564 1.391 . S
C563 C562 1.386 . S
C563 C567 1.393 . S
C564 H553 0.950 . S
C564 C562 1.391 . S
C564 C565 1.400 . S
C565 C559 1.491 . S
C565 C564 1.400 . S
C565 C566 1.398 . S
C566 H554 0.950 . S
C566 C565 1.398 . S
C566 C567 1.391 . S
C567 H555 0.950 . S
C567 C563 1.393 . S
C567 C566 1.391 . S
H568 C576 0.950 . S
H569 C581 0.950 . S
H570 C578 0.950 . S
H571 C580 0.950 . S
H572 C582 0.950 . S
H573 C584 0.950 . S
H574 C586 0.950 . S
H575 C587 0.950 . S
C576 H568 0.950 . S
C576 C577 1.386 . S
C576 C578 1.391 . S
C577 C576 1.386 . S
C577 C581 1.393 . S
C578 H570 0.950 . S
C578 C576 1.391 . S
C578 C579 1.400 . S
C579 C578 1.400 . S
C579 C580 1.398 . S
C579 C585 1.491 . S
C580 H571 0.950 . S
C580 C579 1.398 . S
C580 C581 1.391 . S
C581 H569 0.950 . S
C581 C577 1.393 . S
C581 C580 1.391 . S
C582 H572 0.950 . S
C582 C583 1.386 . S
C582 C584 1.391 . S
C583 C582 1.386 . S
C583 C587 1.393 . S
C584 H573 0.950 . S
C584 C582 1.391 . S
C584 C585 1.400 . S
C585 C579 1.491 . S
C585 C584 1.400 . S
C585 C586 1.398 . S
C586 H574 0.950 . S
C586 C585 1.398 . S
C586 C587 1.391 . S
C587 H575 0.950 . S
C587 C583 1.393 . S
C587 C586 1.391 . S
H588 C596 0.950 . S
H589 C601 0.950 . S
H590 C598 0.950 . S
H591 C600 0.950 . S
H592 C602 0.950 . S
H593 C604 0.950 . S
H594 C606 0.950 . S
H595 C607 0.950 . S
C596 H588 0.950 . S
C596 C597 1.386 . S
C596 C598 1.391 . S
C597 C596 1.386 . S
C597 C601 1.393 . S
C598 H590 0.950 . S
C598 C596 1.391 . S
C598 C599 1.400 . S
C599 C598 1.400 . S
C599 C600 1.398 . S
C599 C605 1.491 . S
C600 H591 0.950 . S
C600 C599 1.398 . S
C600 C601 1.391 . S
C601 H589 0.950 . S
C601 C597 1.393 . S
C601 C600 1.391 . S
C602 H592 0.950 . S
C602 C603 1.386 . S
C602 C604 1.391 . S
C603 C602 1.386 . S
C603 C607 1.393 . S
C604 H593 0.950 . S
C604 C602 1.391 . S
C604 C605 1.400 . S
C605 C599 1.491 . S
C605 C604 1.400 . S
C605 C606 1.398 . S
C606 H594 0.950 . S
C606 C605 1.398 . S
C606 C607 1.391 . S
C607 H595 0.950 . S
C607 C603 1.393 . S
C607 C606 1.391 . S
H608 C616 0.950 . S
H609 C621 0.950 1_554 S
H610 C618 0.950 . S
H611 C620 0.950 . S
H612 C622 0.950 . S
H613 C624 0.950 . S
H614 C626 0.950 . S
H615 C627 0.950 . S
C616 H608 0.950 . S
C616 C617 1.386 . S
C616 C618 1.391 1_554 S
C617 C616 1.386 . S
C617 C621 1.393 1_554 S
C618 H610 0.950 . S
C618 C616 1.391 1_556 S
C618 C619 1.400 . S
C619 C618 1.400 . S
C619 C620 1.398 . S
C619 C625 1.491 . S
C620 H611 0.950 . S
C620 C619 1.398 . S
C620 C621 1.391 . S
C621 H609 0.950 1_556 S
C621 C617 1.393 1_556 S
C621 C620 1.391 . S
C622 H612 0.950 . S
C622 C623 1.386 . S
C622 C624 1.391 . S
C623 C622 1.386 . S
C623 C627 1.393 . S
C624 H613 0.950 . S
C624 C622 1.391 . S
C624 C625 1.400 . S
C625 C619 1.491 . S
C625 C624 1.400 . S
C625 C626 1.398 . S
C626 H614 0.950 . S
C626 C625 1.398 . S
C626 C627 1.391 . S
C627 H615 0.950 . S
C627 C623 1.393 . S
C627 C626 1.391 . S
H628 C636 0.950 . S
H629 C641 0.950 . S
H630 C638 0.950 . S
H631 C640 0.950 . S
H632 C642 0.950 . S
H633 C644 0.950 . S
H634 C646 0.950 . S
H635 C647 0.950 . S
C636 H628 0.950 . S
C636 C637 1.386 . S
C636 C638 1.391 . S
C637 C636 1.386 . S
C637 C641 1.393 . S
C638 H630 0.950 . S
C638 C636 1.391 . S
C638 C639 1.400 . S
C639 C638 1.400 . S
C639 C640 1.398 . S
C639 C645 1.491 1_556 S
C640 H631 0.950 . S
C640 C639 1.398 . S
C640 C641 1.391 . S
C641 H629 0.950 . S
C641 C637 1.393 . S
C641 C640 1.391 . S
C642 H632 0.950 . S
C642 C643 1.386 . S
C642 C644 1.391 . S
C643 C642 1.386 . S
C643 C647 1.393 . S
C644 H633 0.950 . S
C644 C642 1.391 . S
C644 C645 1.400 . S
C645 C639 1.491 1_554 S
C645 C644 1.400 . S
C645 C646 1.398 . S
C646 H634 0.950 . S
C646 C645 1.398 . S
C646 C647 1.391 . S
C647 H635 0.950 . S
C647 C643 1.393 . S
C647 C646 1.391 . S
H648 C656 0.950 . S
H649 C661 0.950 . S
H650 C658 0.950 . S
H651 C660 0.950 . S
H652 C662 0.950 . S
H653 C664 0.950 . S
H654 C666 0.950 . S
H655 C667 0.951 . S
C656 H648 0.950 . S
C656 C657 1.386 . S
C656 C658 1.391 . S
C657 C656 1.386 . S
C657 C661 1.393 . S
C658 H650 0.950 . S
C658 C656 1.391 . S
C658 C659 1.400 . S
C659 C658 1.400 . S
C659 C660 1.398 . S
C659 C665 1.491 . S
C660 H651 0.950 . S
C660 C659 1.398 . S
C660 C661 1.391 . S
C661 H649 0.950 . S
C661 C657 1.393 . S
C661 C660 1.391 . S
C662 H652 0.950 . S
C662 C663 1.386 . S
C662 C664 1.391 . S
C663 C662 1.386 . S
C663 C667 1.393 . S
C664 H653 0.950 . S
C664 C662 1.391 . S
C664 C665 1.400 1_554 S
C665 C659 1.491 . S
C665 C664 1.400 1_556 S
C665 C666 1.398 . S
C666 H654 0.950 . S
C666 C665 1.398 . S
C666 C667 1.391 1_556 S
C667 H655 0.951 . S
C667 C663 1.393 . S
C667 C666 1.391 1_554 S
H668 C676 0.950 . S
H669 C681 0.950 . S
H670 C678 0.950 . S
H671 C680 0.950 . S
H672 C682 0.950 . S
H673 C684 0.950 1_556 S
H674 C686 0.950 . S
H675 C687 0.950 . S
C676 H668 0.950 . S
C676 C677 1.386 . S
C676 C678 1.391 . S
C677 C676 1.386 . S
C677 C681 1.393 . S
C678 H670 0.950 . S
C678 C676 1.391 . S
C678 C679 1.400 . S
C679 C678 1.400 . S
C679 C680 1.398 . S
C679 C685 1.491 . S
C680 H671 0.950 . S
C680 C679 1.398 . S
C680 C681 1.391 . S
C681 H669 0.950 . S
C681 C677 1.393 . S
C681 C680 1.391 . S
C682 H672 0.950 . S
C682 C683 1.386 . S
C682 C684 1.391 1_556 S
C683 C682 1.386 . S
C683 C687 1.393 1_556 S
C684 H673 0.950 1_554 S
C684 C682 1.391 1_554 S
C684 C685 1.400 . S
C685 C679 1.491 . S
C685 C684 1.400 . S
C685 C686 1.398 . S
C686 H674 0.950 . S
C686 C685 1.398 . S
C686 C687 1.391 . S
C687 H675 0.950 . S
C687 C683 1.393 1_554 S
C687 C686 1.391 . S
H688 C696 0.950 . S
H689 C701 0.950 . S
H690 C698 0.950 . S
H691 C700 0.950 . S
H692 C702 0.950 . S
H693 C704 0.950 . S
H694 C706 0.950 . S
H695 C707 0.950 . S
C696 H688 0.950 . S
C696 C697 1.386 . S
C696 C698 1.391 . S
C697 C696 1.386 . S
C697 C701 1.393 . S
C698 H690 0.950 . S
C698 C696 1.391 . S
C698 C699 1.400 . S
C699 C698 1.400 . S
C699 C700 1.398 . S
C699 C705 1.491 . S
C700 H691 0.950 . S
C700 C699 1.398 . S
C700 C701 1.391 . S
C701 H689 0.950 . S
C701 C697 1.393 . S
C701 C700 1.391 . S
C702 H692 0.950 . S
C702 C703 1.386 . S
C702 C704 1.391 . S
C703 C702 1.386 . S
C703 C707 1.393 . S
C704 H693 0.950 . S
C704 C702 1.391 . S
C704 C705 1.400 . S
C705 C699 1.491 . S
C705 C704 1.400 . S
C705 C706 1.398 . S
C706 H694 0.950 . S
C706 C705 1.398 . S
C706 C707 1.391 . S
C707 H695 0.950 . S
C707 C703 1.393 . S
C707 C706 1.391 . S
H708 C716 0.950 . S
H709 C721 0.950 . S
H710 C718 0.950 . S
H711 C720 0.950 . S
H712 C722 0.950 . S
H713 C724 0.950 . S
H714 C726 0.950 . S
H715 C727 0.950 . S
C716 H708 0.950 . S
C716 C717 1.386 . S
C716 C718 1.391 . S
C717 C716 1.386 . S
C717 C721 1.393 . S
C718 H710 0.950 . S
C718 C716 1.391 . S
C718 C719 1.400 . S
C719 C718 1.400 . S
C719 C720 1.398 . S
C719 C725 1.491 . S
C720 H711 0.950 . S
C720 C719 1.398 . S
C720 C721 1.391 . S
C721 H709 0.950 . S
C721 C717 1.393 . S
C721 C720 1.391 . S
C722 H712 0.950 . S
C722 C723 1.386 . S
C722 C724 1.391 . S
C723 C722 1.386 . S
C723 C727 1.393 . S
C724 H713 0.950 . S
C724 C722 1.391 . S
C724 C725 1.400 . S
C725 C719 1.491 . S
C725 C724 1.400 . S
C725 C726 1.398 . S
C726 H714 0.950 . S
C726 C725 1.398 . S
C726 C727 1.391 . S
C727 H715 0.950 . S
C727 C723 1.393 . S
C727 C726 1.391 . S
H728 C736 0.950 . S
H729 C741 0.950 . S
H730 C738 0.950 . S
H731 C740 0.950 . S
H732 C742 0.950 . S
H733 C744 0.950 . S
H734 C746 0.950 . S
H735 C747 0.950 . S
C736 H728 0.950 . S
C736 C737 1.386 . S
C736 C738 1.391 . S
C737 C736 1.386 . S
C737 C741 1.393 . S
C738 H730 0.950 . S
C738 C736 1.391 . S
C738 C739 1.400 . S
C739 C738 1.400 . S
C739 C740 1.398 . S
C739 C745 1.491 . S
C740 H731 0.950 . S
C740 C739 1.398 . S
C740 C741 1.391 . S
C741 H729 0.950 . S
C741 C737 1.393 . S
C741 C740 1.391 . S
C742 H732 0.950 . S
C742 C743 1.386 . S
C742 C744 1.391 . S
C743 C742 1.386 . S
C743 C747 1.393 . S
C744 H733 0.950 . S
C744 C742 1.391 . S
C744 C745 1.400 . S
C745 C739 1.491 . S
C745 C744 1.400 . S
C745 C746 1.398 . S
C746 H734 0.950 . S
C746 C745 1.398 . S
C746 C747 1.391 . S
C747 H735 0.950 . S
C747 C743 1.393 . S
C747 C746 1.391 . S
H748 C756 0.950 . S
H749 C761 0.950 . S
H750 C758 0.950 . S
H751 C760 0.950 . S
H752 C762 0.950 . S
H753 C764 0.950 . S
H754 C766 0.950 . S
H755 C767 0.950 . S
C756 H748 0.950 . S
C756 C757 1.386 . S
C756 C758 1.391 . S
C757 C756 1.386 . S
C757 C761 1.393 . S
C758 H750 0.950 . S
C758 C756 1.391 . S
C758 C759 1.400 . S
C759 C758 1.400 . S
C759 C760 1.398 . S
C759 C765 1.491 . S
C760 H751 0.950 . S
C760 C759 1.398 . S
C760 C761 1.391 . S
C761 H749 0.950 . S
C761 C757 1.393 . S
C761 C760 1.391 . S
C762 H752 0.950 . S
C762 C763 1.386 . S
C762 C764 1.391 . S
C763 C762 1.386 . S
C763 C767 1.393 . S
C764 H753 0.950 . S
C764 C762 1.391 . S
C764 C765 1.400 . S
C765 C759 1.491 . S
C765 C764 1.400 . S
C765 C766 1.398 . S
C766 H754 0.950 . S
C766 C765 1.398 . S
C766 C767 1.391 . S
C767 H755 0.950 . S
C767 C763 1.393 . S
C767 C766 1.391 . S
H768 C776 0.950 . S
H769 C781 0.950 . S
H770 C778 0.950 . S
H771 C780 0.950 . S
H772 C782 0.950 . S
H773 C784 0.950 . S
H774 C786 0.950 . S
H775 C787 0.950 . S
C776 H768 0.950 . S
C776 C777 1.386 . S
C776 C778 1.391 . S
C777 C776 1.386 . S
C777 C781 1.393 . S
C778 H770 0.950 . S
C778 C776 1.391 . S
C778 C779 1.400 . S
C779 C778 1.400 . S
C779 C780 1.398 . S
C779 C785 1.491 . S
C780 H771 0.950 . S
C780 C779 1.398 . S
C780 C781 1.391 . S
C781 H769 0.950 . S
C781 C777 1.393 . S
C781 C780 1.391 . S
C782 H772 0.950 . S
C782 C783 1.386 . S
C782 C784 1.391 . S
C783 C782 1.386 . S
C783 C787 1.393 . S
C784 H773 0.950 . S
C784 C782 1.391 . S
C784 C785 1.400 . S
C785 C779 1.491 . S
C785 C784 1.400 . S
C785 C786 1.398 . S
C786 H774 0.950 . S
C786 C785 1.398 . S
C786 C787 1.391 . S
C787 H775 0.950 . S
C787 C783 1.393 . S
C787 C786 1.391 . S
H788 C796 0.950 . S
H789 C801 0.950 . S
H790 C798 0.950 . S
H791 C800 0.950 . S
H792 C802 0.950 . S
H793 C804 0.950 . S
H794 C806 0.950 . S
H795 C807 0.950 . S
C796 H788 0.950 . S
C796 C797 1.386 . S
C796 C798 1.391 . S
C797 C796 1.386 . S
C797 C801 1.393 . S
C798 H790 0.950 . S
C798 C796 1.391 . S
C798 C799 1.400 . S
C799 C798 1.400 . S
C799 C800 1.398 . S
C799 C805 1.491 . S
C800 H791 0.950 . S
C800 C799 1.398 . S
C800 C801 1.391 . S
C801 H789 0.950 . S
C801 C797 1.393 . S
C801 C800 1.391 . S
C802 H792 0.950 . S
C802 C803 1.386 . S
C802 C804 1.391 . S
C803 C802 1.386 . S
C803 C807 1.393 . S
C804 H793 0.950 . S
C804 C802 1.391 . S
C804 C805 1.400 . S
C805 C799 1.491 . S
C805 C804 1.400 . S
C805 C806 1.398 . S
C806 H794 0.950 . S
C806 C805 1.398 . S
C806 C807 1.391 . S
C807 H795 0.950 . S
C807 C803 1.393 . S
C807 C806 1.391 . S
H808 C816 0.950 . S
H809 C821 0.950 . S
H810 C818 0.950 . S
H811 C820 0.950 . S
H812 C822 0.950 . S
H813 C824 0.950 . S
H814 C826 0.950 . S
H815 C827 0.950 . S
C816 H808 0.950 . S
C816 C817 1.386 . S
C816 C818 1.391 . S
C817 C816 1.386 . S
C817 C821 1.393 . S
C818 H810 0.950 . S
C818 C816 1.391 . S
C818 C819 1.400 . S
C819 C818 1.400 . S
C819 C820 1.398 . S
C819 C825 1.491 . S
C820 H811 0.950 . S
C820 C819 1.398 . S
C820 C821 1.391 . S
C821 H809 0.950 . S
C821 C817 1.393 . S
C821 C820 1.391 . S
C822 H812 0.950 . S
C822 C823 1.386 . S
C822 C824 1.391 . S
C823 C822 1.386 . S
C823 C827 1.393 . S
C824 H813 0.950 . S
C824 C822 1.391 . S
C824 C825 1.400 . S
C825 C819 1.491 . S
C825 C824 1.400 . S
C825 C826 1.398 . S
C826 H814 0.950 . S
C826 C825 1.398 . S
C826 C827 1.391 . S
C827 H815 0.950 . S
C827 C823 1.393 . S
C827 C826 1.391 . S
H828 C836 0.950 . S
H829 C841 0.950 . S
H830 C838 0.950 . S
H831 C840 0.950 . S
H832 C842 0.950 . S
H833 C844 0.950 . S
H834 C846 0.950 . S
H835 C847 0.950 . S
C836 H828 0.950 . S
C836 C837 1.386 . S
C836 C838 1.391 . S
C837 C836 1.386 . S
C837 C841 1.393 . S
C838 H830 0.950 . S
C838 C836 1.391 . S
C838 C839 1.400 . S
C839 C838 1.400 . S
C839 C840 1.398 . S
C839 C845 1.491 . S
C840 H831 0.950 . S
C840 C839 1.398 . S
C840 C841 1.391 . S
C841 H829 0.950 . S
C841 C837 1.393 . S
C841 C840 1.391 . S
C842 H832 0.950 . S
C842 C843 1.386 . S
C842 C844 1.391 . S
C843 C842 1.386 . S
C843 C847 1.393 . S
C844 H833 0.950 . S
C844 C842 1.391 . S
C844 C845 1.400 . S
C845 C839 1.491 . S
C845 C844 1.400 . S
C845 C846 1.398 . S
C846 H834 0.950 . S
C846 C845 1.398 . S
C846 C847 1.391 . S
C847 H835 0.950 . S
C847 C843 1.393 . S
C847 C846 1.391 . S
H848 C856 0.950 . S
H849 C861 0.950 . S
H850 C858 0.950 1_554 S
H851 C860 0.950 . S
H852 C862 0.950 . S
H853 C864 0.950 . S
H854 C866 0.950 . S
H855 C867 0.950 . S
C856 H848 0.950 . S
C856 C857 1.386 . S
C856 C858 1.391 1_554 S
C857 C856 1.386 . S
C857 C861 1.393 1_554 S
C858 H850 0.950 1_556 S
C858 C856 1.391 1_556 S
C858 C859 1.400 . S
C859 C858 1.400 . S
C859 C860 1.398 . S
C859 C865 1.491 . S
C860 H851 0.950 . S
C860 C859 1.398 . S
C860 C861 1.391 . S
C861 H849 0.950 . S
C861 C857 1.393 1_556 S
C861 C860 1.391 . S
C862 H852 0.950 . S
C862 C863 1.386 . S
C862 C864 1.391 . S
C863 C862 1.386 . S
C863 C867 1.393 . S
C864 H853 0.950 . S
C864 C862 1.391 . S
C864 C865 1.400 . S
C865 C859 1.491 . S
C865 C864 1.400 . S
C865 C866 1.398 . S
C866 H854 0.950 . S
C866 C865 1.398 . S
C866 C867 1.391 . S
C867 H855 0.950 . S
C867 C863 1.393 . S
C867 C866 1.391 . S
H868 C876 0.950 . S
H869 C881 0.950 . S
H870 C878 0.950 . S
H871 C880 0.950 . S
H872 C882 0.950 . S
H873 C884 0.950 . S
H874 C886 0.950 1_556 S
H875 C887 0.950 . S
C876 H868 0.950 . S
C876 C877 1.386 . S
C876 C878 1.391 . S
C877 C876 1.386 . S
C877 C881 1.393 . S
C878 H870 0.950 . S
C878 C876 1.391 . S
C878 C879 1.400 . S
C879 C878 1.400 . S
C879 C880 1.398 . S
C879 C885 1.491 . S
C880 H871 0.950 . S
C880 C879 1.398 . S
C880 C881 1.391 . S
C881 H869 0.950 . S
C881 C877 1.393 . S
C881 C880 1.391 . S
C882 H872 0.950 . S
C882 C883 1.386 . S
C882 C884 1.391 . S
C883 C882 1.386 . S
C883 C887 1.393 1_554 S
C884 H873 0.950 . S
C884 C882 1.391 . S
C884 C885 1.400 . S
C885 C879 1.491 . S
C885 C884 1.400 . S
C885 C886 1.398 . S
C886 H874 0.950 1_554 S
C886 C885 1.398 . S
C886 C887 1.391 1_554 S
C887 H875 0.950 . S
C887 C883 1.393 1_556 S
C887 C886 1.391 1_556 S
H888 C896 0.950 . S
H889 C901 0.950 . S
H890 C898 0.950 . S
H891 C900 0.950 . S
H892 C902 0.950 . S
H893 C904 0.950 . S
H894 C906 0.950 . S
H895 C907 0.950 . S
C896 H888 0.950 . S
C896 C897 1.386 . S
C896 C898 1.391 . S
C897 C896 1.386 . S
C897 C901 1.393 . S
C898 H890 0.950 . S
C898 C896 1.391 . S
C898 C899 1.400 . S
C899 C898 1.400 . S
C899 C900 1.398 . S
C899 C905 1.491 . S
C900 H891 0.950 . S
C900 C899 1.398 . S
C900 C901 1.391 . S
C901 H889 0.950 . S
C901 C897 1.393 . S
C901 C900 1.391 . S
C902 H892 0.950 . S
C902 C903 1.386 . S
C902 C904 1.391 . S
C903 C902 1.386 . S
C903 C907 1.393 . S
C904 H893 0.950 . S
C904 C902 1.391 . S
C904 C905 1.400 . S
C905 C899 1.491 . S
C905 C904 1.400 . S
C905 C906 1.398 . S
C906 H894 0.950 . S
C906 C905 1.398 . S
C906 C907 1.391 . S
C907 H895 0.950 . S
C907 C903 1.393 . S
C907 C906 1.391 . S
H908 C916 0.950 . S
H909 C921 0.950 . S
H910 C918 0.950 . S
H911 C920 0.950 . S
H912 C922 0.950 . S
H913 C924 0.950 . S
H914 C926 0.950 . S
H915 C927 0.950 . S
C916 H908 0.950 . S
C916 C917 1.386 . S
C916 C918 1.391 . S
C917 C916 1.386 . S
C917 C921 1.393 . S
C918 H910 0.950 . S
C918 C916 1.391 . S
C918 C919 1.400 . S
C919 C918 1.400 . S
C919 C920 1.398 . S
C919 C925 1.491 1_655 S
C920 H911 0.950 . S
C920 C919 1.398 . S
C920 C921 1.391 . S
C921 H909 0.950 . S
C921 C917 1.393 . S
C921 C920 1.391 . S
C922 H912 0.950 . S
C922 C923 1.386 . S
C922 C924 1.391 . S
C923 C922 1.386 . S
C923 C927 1.393 . S
C924 H913 0.950 . S
C924 C922 1.391 . S
C924 C925 1.400 . S
C925 C919 1.491 1_455 S
C925 C924 1.400 . S
C925 C926 1.398 . S
C926 H914 0.950 . S
C926 C925 1.398 . S
C926 C927 1.391 . S
C927 H915 0.950 . S
C927 C923 1.393 . S
C927 C926 1.391 . S
H928 C936 0.950 . S
H929 C941 0.950 . S
H930 C938 0.950 . S
H931 C940 0.950 . S
H932 C942 0.950 . S
H933 C944 0.950 . S
H934 C946 0.950 . S
H935 C947 0.950 . S
C936 H928 0.950 . S
C936 C937 1.386 . S
C936 C938 1.391 . S
C937 C936 1.386 . S
C937 C941 1.393 . S
C938 H930 0.950 . S
C938 C936 1.391 . S
C938 C939 1.400 . S
C939 C938 1.400 . S
C939 C940 1.398 . S
C939 C945 1.491 1_545 S
C940 H931 0.950 . S
C940 C939 1.398 . S
C940 C941 1.391 . S
C941 H929 0.950 . S
C941 C937 1.393 . S
C941 C940 1.391 . S
C942 H932 0.950 . S
C942 C943 1.386 . S
C942 C944 1.391 . S
C943 C942 1.386 . S
C943 C947 1.393 . S
C944 H933 0.950 . S
C944 C942 1.391 . S
C944 C945 1.400 . S
C945 C939 1.491 1_565 S
C945 C944 1.400 . S
C945 C946 1.398 . S
C946 H934 0.950 . S
C946 C945 1.398 . S
C946 C947 1.391 . S
C947 H935 0.950 . S
C947 C943 1.393 . S
C947 C946 1.391 . S
H948 C956 0.950 . S
H949 C961 0.950 . S
H950 C958 0.950 . S
H951 C960 0.950 . S
H952 C962 0.950 . S
H953 C964 0.950 . S
H954 C966 0.950 . S
H955 C967 0.950 . S
C956 H948 0.950 . S
C956 C957 1.386 . S
C956 C958 1.391 . S
C957 C956 1.386 . S
C957 C961 1.393 . S
C958 H950 0.950 . S
C958 C956 1.391 . S
C958 C959 1.400 . S
C959 C958 1.400 . S
C959 C960 1.398 . S
C959 C965 1.491 . S
C960 H951 0.950 . S
C960 C959 1.398 . S
C960 C961 1.391 . S
C961 H949 0.950 . S
C961 C957 1.393 . S
C961 C960 1.391 . S
C962 H952 0.950 . S
C962 C963 1.386 . S
C962 C964 1.391 . S
C963 C962 1.386 . S
C963 C967 1.393 . S
C964 H953 0.950 . S
C964 C962 1.391 . S
C964 C965 1.400 . S
C965 C959 1.491 . S
C965 C964 1.400 . S
C965 C966 1.398 . S
C966 H954 0.950 . S
C966 C965 1.398 . S
C966 C967 1.391 . S
C967 H955 0.950 . S
C967 C963 1.393 . S
C967 C966 1.391 . S
H968 C976 0.950 . S
H969 C981 0.950 . S
H970 C978 0.950 . S
H971 C980 0.950 . S
H972 C982 0.950 . S
H973 C984 0.950 . S
H974 C986 0.950 . S
H975 C987 0.950 . S
C976 H968 0.950 . S
C976 C977 1.386 . S
C976 C978 1.391 . S
C977 C976 1.386 . S
C977 C981 1.393 . S
C978 H970 0.950 . S
C978 C976 1.391 . S
C978 C979 1.400 . S
C979 C978 1.400 . S
C979 C980 1.398 . S
C979 C985 1.491 1_455 S
C980 H971 0.950 . S
C980 C979 1.398 . S
C980 C981 1.391 . S
C981 H969 0.950 . S
C981 C977 1.393 . S
C981 C980 1.391 . S
C982 H972 0.950 . S
C982 C983 1.386 . S
C982 C984 1.391 . S
C983 C982 1.386 . S
C983 C987 1.393 . S
C984 H973 0.950 . S
C984 C982 1.391 . S
C984 C985 1.400 . S
C985 C979 1.491 1_655 S
C985 C984 1.400 . S
C985 C986 1.398 . S
C986 H974 0.950 . S
C986 C985 1.398 . S
C986 C987 1.391 . S
C987 H975 0.950 . S
C987 C983 1.393 . S
C987 C986 1.391 . S
H988 C996 0.950 . S
H989 C1001 0.950 . S
H990 C998 0.950 . S
H991 C1000 0.950 . S
H992 C1002 0.950 . S
H993 C1004 0.950 . S
H994 C1006 0.950 . S
H995 C1007 0.950 . S
C996 H988 0.950 . S
C996 C997 1.386 . S
C996 C998 1.390 1_556 S
C997 C996 1.386 . S
C997 C1001 1.393 1_556 S
C998 H990 0.950 . S
C998 C996 1.390 1_554 S
C998 C999 1.402 . S
C999 C998 1.402 . S
C999 C1000 1.398 . S
C999 C1005 1.491 1_545 S
C1000 H991 0.950 . S
C1000 C999 1.398 . S
C1000 C1001 1.391 . S
C1001 H989 0.950 . S
C1001 C997 1.393 1_554 S
C1001 C1000 1.391 . S
C1002 H992 0.950 . S
C1002 C1003 1.386 . S
C1002 C1004 1.391 . S
C1003 C1002 1.386 . S
C1003 C1007 1.393 . S
C1004 H993 0.950 . S
C1004 C1002 1.391 . S
C1004 C1005 1.400 . S
C1005 C999 1.491 1_565 S
C1005 C1004 1.400 . S
C1005 C1006 1.398 . S
C1006 H994 0.950 . S
C1006 C1005 1.398 . S
C1006 C1007 1.391 . S
C1007 H995 0.950 . S
C1007 C1003 1.393 . S
C1007 C1006 1.391 . S
C417 C9 1.073 . S
C423 C5 1.061 . S
C437 C39 1.055 . S
C443 C43 1.062 . S
C457 C73 1.069 . S
C463 C77 1.048 . S
C477 C111 1.070 . S
C483 C107 1.069 . S
C497 C145 1.053 . S
C503 C141 1.075 . S
C517 C175 1.071 . S
C523 C179 1.049 . S
C537 C213 1.057 . S
C543 C209 1.076 . S
C557 C247 1.054 . S
C563 C243 1.059 . S
C577 C277 1.068 . S
C583 C281 1.071 . S
C597 C315 1.068 . S
C603 C311 1.072 . S
C617 C349 1.072 . S
C623 C345 1.059 . S
C637 C379 1.061 . S
C643 C383 1.051 . S
C657 C237 1.610 . S
C663 C33 1.614 . S
C677 C67 1.609 . S
C683 C271 1.613 . S
C697 C305 1.614 . S
C703 C101 1.612 . S
C717 C339 1.597 . S
C723 C135 1.599 . S
C737 C373 1.600 . S
C743 C169 1.598 . S
C757 C407 1.597 . S
C763 C203 1.598 . S
C777 C20 1.574 . S
C783 C360 1.572 . S
C797 C54 1.568 . S
C803 C394 1.571 . S
C817 C88 1.568 . S
C823 C224 1.566 . S
C837 C258 1.567 . S
C843 C122 1.569 . S
C857 C292 1.573 . S
C863 C156 1.575 . S
C877 C326 1.572 . S
C883 C190 1.569 . S
C897 C2 1.561 . S
C903 C308 1.561 . S
C917 C36 1.560 . S
C923 C342 1.561 . S
C937 C376 1.562 . S
C943 C70 1.559 . S
C957 C104 1.560 . S
C963 C206 1.561 . S
C977 C138 1.560 . S
C983 C240 1.557 . S
C997 C172 1.558 . S
C1003 C274 1.558 . S
