# Generated by pormake.
# Topology wlj, (5)-cn, num edge types: 1
# Building blocks:
#     Node 0, Type 0, BuildingBlock: XOMCOT_clean_sbu_1, # of connection points: 5
#     Node 1, Type 0, BuildingBlock: XOMCOT_clean_sbu_1, # of connection points: 5
#     Node 2, Type 0, BuildingBlock: XOMCOT_clean_sbu_1, # of connection points: 5
#     Node 3, Type 0, BuildingBlock: XOMCOT_clean_sbu_1, # of connection points: 5
#     Node 4, Type 0, BuildingBlock: XOMCOT_clean_sbu_1, # of connection points: 5
#     Node 5, Type 0, BuildingBlock: XOMCOT_clean_sbu_1, # of connection points: 5
#     Edge 6, Type (0, 0), BuildingBlock: FUNLAD_clean_linker_0, # of connection points: 2
#     Edge 7, Type (0, 0), BuildingBlock: FUNLAD_clean_linker_0, # of connection points: 2
#     Edge 8, Type (0, 0), BuildingBlock: FUNLAD_clean_linker_0, # of connection points: 2
#     Edge 9, Type (0, 0), BuildingBlock: FUNLAD_clean_linker_0, # of connection points: 2
#     Edge 10, Type (0, 0), BuildingBlock: FUNLAD_clean_linker_0, # of connection points: 2
#     Edge 11, Type (0, 0), BuildingBlock: FUNLAD_clean_linker_0, # of connection points: 2
#     Edge 12, Type (0, 0), BuildingBlock: FUNLAD_clean_linker_0, # of connection points: 2
#     Edge 13, Type (0, 0), BuildingBlock: FUNLAD_clean_linker_0, # of connection points: 2
#     Edge 14, Type (0, 0), BuildingBlock: FUNLAD_clean_linker_0, # of connection points: 2
#     Edge 15, Type (0, 0), BuildingBlock: FUNLAD_clean_linker_0, # of connection points: 2
#     Edge 16, Type (0, 0), BuildingBlock: FUNLAD_clean_linker_0, # of connection points: 2
#     Edge 17, Type (0, 0), BuildingBlock: FUNLAD_clean_linker_0, # of connection points: 2
#     Edge 18, Type (0, 0), BuildingBlock: FUNLAD_clean_linker_0, # of connection points: 2
#     Edge 19, Type (0, 0), BuildingBlock: FUNLAD_clean_linker_0, # of connection points: 2
#     Edge 20, Type (0, 0), BuildingBlock: FUNLAD_clean_linker_0, # of connection points: 2
# Relax obj value: 0.126
# Max RMSD: 0.180
# Mean RMSD: 0.180
data_MOF--net-wlj--node1-XOMCOT_clean_sbu_1--edge1-FUNLAD_clean_linker_0
_symmetry_space_group_name_H-M    P1
_symmetry_Int_Tables_number       1
_symmetry_cell_setting            triclinic
loop_
_symmetry_equiv_pos_as_xyz
'x, y, z'
_cell_length_a     28.963207
_cell_length_b     29.087417
_cell_length_c     62.092821
_cell_angle_alpha  90.070571
_cell_angle_beta   90.046026
_cell_angle_gamma 120.10357
loop_
_atom_site_label
_atom_site_type_symbol
_atom_site_fract_x
_atom_site_fract_y
_atom_site_fract_z
_atom_type_partial_charge
C0 C 0.66805 0.28717 0.30641 0.0
C1 C 0.66606 0.24854 0.31977 0.0
N2 N 0.62017 0.20281 0.31594 0.0
N3 N 0.62368 0.26622 0.29414 0.0
C4 C 0.59508 0.21479 0.30037 0.0
H5 H 0.70011 0.328 0.30557 0.0
Co6 Co 0.61075 0.30362 0.27268 0.0
C7 C 0.51624 0.22106 0.25015 0.0
O8 O 0.49347 0.25005 0.25257 0.0
N9 N 0.59862 0.34141 0.25098 0.0
C10 C 0.5876 0.36637 0.21849 0.0
C11 C 0.60049 0.33374 0.22962 0.0
C12 C 0.5849 0.37951 0.2524 0.0
N13 N 0.57738 0.39499 0.23278 0.0
O14 O 0.55378 0.30147 0.28957 0.0
H15 H 0.60948 0.30525 0.22247 0.0
H16 H 0.57907 0.39452 0.26748 0.0
O17 O 0.56258 0.23708 0.25804 0.0
C18 C 0.57242 0.33576 0.30475 0.0
O19 O 0.62439 0.36324 0.30748 0.0
N20 N 0.6695 0.31097 0.25734 0.0
C21 C 0.76326 0.34174 0.23446 0.0
C22 C 0.71989 0.28963 0.23269 0.0
C23 C 0.67324 0.27466 0.24459 0.0
C24 C 0.71159 0.36112 0.25958 0.0
C25 C 0.75877 0.37732 0.24835 0.0
H26 H 0.64003 0.23459 0.24309 0.0
H27 H 0.70778 0.38913 0.26983 0.0
H28 H 0.55717 0.18639 0.29329 0.0
H29 H 0.69607 0.25397 0.33148 0.0
H30 H 0.58584 0.36867 0.20114 0.0
H31 H 0.72203 0.26094 0.22223 0.0
H32 H 0.79092 0.41803 0.25002 0.0
C33 C 0.74525 0.39163 0.96674 0.0
C34 C 0.78567 0.43291 0.97809 0.0
N35 N 0.8293 0.42756 0.97744 0.0
N36 N 0.76309 0.36028 0.95875 0.0
C37 C 0.81433 0.38306 0.96558 0.0
H38 H 0.70515 0.38462 0.96469 0.0
Co39 Co 0.7233 0.29694 0.9431 0.0
C40 C 0.79113 0.30841 0.90553 0.0
O41 O 0.74771 0.2874 0.89363 0.0
N42 N 0.68377 0.23176 0.92792 0.0
C43 C 0.66545 0.15133 0.91685 0.0
C44 C 0.7036 0.19869 0.92544 0.0
C45 C 0.6328 0.20295 0.92055 0.0
N46 N 0.62111 0.15413 0.91375 0.0
O47 O 0.73945 0.25857 0.96415 0.0
H48 H 0.74317 0.2078 0.93032 0.0
H49 H 0.60368 0.21571 0.92109 0.0
O50 O 0.78759 0.31448 0.92581 0.0
C51 C 0.70824 0.24746 0.98025 0.0
O52 O 0.67981 0.27107 0.98178 0.0
N53 N 0.70147 0.33295 0.92414 0.0
C54 C 0.65615 0.38629 0.90355 0.0
C55 C 0.70943 0.40059 0.89962 0.0
C56 C 0.73192 0.37428 0.91057 0.0
C57 C 0.65028 0.31993 0.9285 0.0
C58 C 0.62661 0.34533 0.9182 0.0
H59 H 0.77406 0.38875 0.90878 0.0
H60 H 0.62823 0.2908 0.94081 0.0
H61 H 0.83959 0.36631 0.96238 0.0
H62 H 0.78289 0.46444 0.98613 0.0
H63 H 0.66944 0.11692 0.91356 0.0
H64 H 0.73409 0.43336 0.88899 0.0
H65 H 0.58567 0.33362 0.92201 0.0
C66 C 0.64175 0.35815 0.63859 0.0
C67 C 0.60108 0.35318 0.6516 0.0
N68 N 0.59878 0.39819 0.65019 0.0
N69 N 0.66533 0.4062 0.62902 0.0
C70 C 0.63811 0.42971 0.63636 0.0
H71 H 0.65456 0.32926 0.63681 0.0
Co72 Co 0.72692 0.4338 0.61198 0.0
C73 C 0.70622 0.4863 0.57557 0.0
O74 O 0.72647 0.4646 0.56294 0.0
N75 N 0.79044 0.46336 0.59538 0.0
C76 C 0.86455 0.52828 0.58049 0.0
C77 C 0.81979 0.51641 0.59209 0.0
C78 C 0.81971 0.44407 0.58606 0.0
N79 N 0.86454 0.48282 0.57667 0.0
O80 O 0.76579 0.48915 0.63284 0.0
H81 H 0.80935 0.54508 0.59791 0.0
H82 H 0.80911 0.40284 0.58605 0.0
O83 O 0.7034 0.47752 0.59591 0.0
C84 C 0.78093 0.47073 0.64825 0.0
O85 O 0.76229 0.41925 0.64904 0.0
N86 N 0.6907 0.37532 0.59314 0.0
C87 C 0.63841 0.27667 0.57233 0.0
C88 C 0.62036 0.31306 0.5699 0.0
C89 C 0.64623 0.36175 0.58097 0.0
C90 C 0.7073 0.33952 0.59617 0.0
C91 C 0.68249 0.29056 0.58569 0.0
H92 H 0.62909 0.38721 0.5804 0.0
H93 H 0.73901 0.34834 0.60753 0.0
H94 H 0.64863 0.4701 0.6325 0.0
H95 H 0.57585 0.31947 0.6617 0.0
H96 H 0.89546 0.56755 0.57564 0.0
H97 H 0.58514 0.3029 0.56039 0.0
H98 H 0.69711 0.2633 0.5884 0.0
C99 C 0.29774 0.66118 0.74436 0.0
C100 C 0.26282 0.66533 0.73053 0.0
N101 N 0.21345 0.62368 0.73387 0.0
N102 N 0.27078 0.61705 0.7564 0.0
C103 C 0.21952 0.59493 0.74961 0.0
H104 H 0.34 0.68915 0.74589 0.0
Co105 Co 0.30089 0.59659 0.77841 0.0
C106 C 0.20745 0.50241 0.79693 0.0
O107 O 0.23242 0.4753 0.79532 0.0
N108 N 0.3312 0.57644 0.80088 0.0
C109 C 0.34763 0.55804 0.8338 0.0
C110 C 0.31805 0.57372 0.82189 0.0
C111 C 0.36953 0.56273 0.80053 0.0
N112 N 0.37997 0.55085 0.82036 0.0
O113 O 0.29807 0.54134 0.76012 0.0
H114 H 0.28854 0.5825 0.82823 0.0
H115 H 0.38911 0.56084 0.78606 0.0
O116 O 0.2301 0.55038 0.79033 0.0
C117 C 0.34163 0.56289 0.74942 0.0
O118 O 0.37454 0.61409 0.75203 0.0
N119 N 0.30978 0.65393 0.79507 0.0
C120 C 0.34198 0.74182 0.82175 0.0
C121 C 0.28744 0.70512 0.8188 0.0
C122 C 0.27197 0.66093 0.80527 0.0
C123 C 0.36244 0.69106 0.79671 0.0
C124 C 0.37946 0.73497 0.8101 0.0
H125 H 0.23009 0.63198 0.80346 0.0
H126 H 0.39163 0.68527 0.78813 0.0
H127 H 0.1872 0.55842 0.75607 0.0
H128 H 0.27293 0.69745 0.71932 0.0
H129 H 0.34577 0.55299 0.8511 0.0
H130 H 0.25742 0.70945 0.82748 0.0
H131 H 0.42181 0.76289 0.81167 0.0
C132 C 0.37084 0.64149 0.4109 0.0
C133 C 0.3738 0.60536 0.39749 0.0
N134 N 0.41974 0.60573 0.40158 0.0
N135 N 0.41461 0.66476 0.42352 0.0
C136 C 0.44381 0.64245 0.41738 0.0
H137 H 0.33819 0.64943 0.41175 0.0
Co138 Co 0.42697 0.71346 0.44574 0.0
C139 C 0.51648 0.71559 0.46965 0.0
O140 O 0.54271 0.7678 0.46959 0.0
N141 N 0.43897 0.76169 0.46824 0.0
C142 C 0.44785 0.7945 0.5013 0.0
C143 C 0.43354 0.74957 0.48941 0.0
C144 C 0.45629 0.81448 0.46771 0.0
N145 N 0.46255 0.83556 0.48769 0.0
O146 O 0.48676 0.7684 0.43014 0.0
H147 H 0.42107 0.71061 0.49591 0.0
H148 H 0.46567 0.83735 0.45302 0.0
O149 O 0.47097 0.69022 0.46049 0.0
C150 C 0.46865 0.78533 0.41524 0.0
O151 O 0.41667 0.76229 0.41277 0.0
N152 N 0.36545 0.66208 0.45958 0.0
C153 C 0.26547 0.59431 0.47723 0.0
C154 C 0.3076 0.58403 0.48003 0.0
C155 C 0.35752 0.61823 0.47073 0.0
C156 C 0.32501 0.67249 0.4568 0.0
C157 C 0.27474 0.63913 0.46541 0.0
H158 H 0.38943 0.60951 0.47257 0.0
H159 H 0.33209 0.70719 0.44775 0.0
H160 H 0.48193 0.65284 0.42448 0.0
H161 H 0.34346 0.57968 0.38609 0.0
H162 H 0.44755 0.79666 0.51869 0.0
H163 H 0.30175 0.54962 0.48901 0.0
H164 H 0.2435 0.6488 0.46309 0.0
C165 C 0.39513 0.73651 0.07997 0.0
C166 C 0.42918 0.77063 0.06462 0.0
N167 N 0.42254 0.81316 0.06359 0.0
N168 N 0.36727 0.75741 0.08897 0.0
C169 C 0.38364 0.80336 0.07801 0.0
H170 H 0.39175 0.69906 0.08433 0.0
Co171 Co 0.3166 0.72704 0.11159 0.0
C172 C 0.3846 0.84176 0.12612 0.0
O173 O 0.4282 0.84619 0.11764 0.0
N174 N 0.26631 0.6968 0.13373 0.0
C175 C 0.22906 0.68485 0.16601 0.0
C176 C 0.27467 0.71412 0.15432 0.0
C177 C 0.21515 0.65611 0.13339 0.0
N178 N 0.1915 0.6485 0.15288 0.0
O179 O 0.26405 0.73154 0.09394 0.0
H180 H 0.31152 0.74639 0.16056 0.0
H181 H 0.19523 0.63353 0.11908 0.0
O182 O 0.34033 0.79782 0.12452 0.0
C183 C 0.24646 0.69446 0.07983 0.0
O184 O 0.26815 0.66421 0.07887 0.0
N185 N 0.36435 0.71516 0.12811 0.0
C186 C 0.42097 0.67419 0.14932 0.0
C187 C 0.42851 0.72424 0.15491 0.0
C188 C 0.39961 0.74411 0.14412 0.0
C189 C 0.3549 0.66545 0.12337 0.0
C190 C 0.38325 0.64458 0.13345 0.0
H191 H 0.40465 0.78157 0.14936 0.0
H192 H 0.325 0.64185 0.11145 0.0
H193 H 0.3685 0.83004 0.08105 0.0
H194 H 0.45823 0.76551 0.05558 0.0
H195 H 0.22389 0.68986 0.18295 0.0
H196 H 0.45652 0.7478 0.16744 0.0
H197 H 0.37506 0.60511 0.12908 0.0
C198 C 0.50368 0.1336 0.23723 0.0
C199 C 0.4928 0.17535 0.23509 0.0
C200 C 0.4847 0.09263 0.2219 0.0
C201 C 0.45574 0.09351 0.20385 0.0
C202 C 0.44486 0.13517 0.20177 0.0
C203 C 0.46239 0.17518 0.2174 0.0
C204 C 0.44041 0.054 0.18617 0.0
C205 C 0.42058 1.00178 0.18974 0.0
C206 C 0.40815 0.96288 0.17198 0.0
C207 C 0.36392 0.9114 0.17372 0.0
C208 C 0.35413 0.87279 0.15806 0.0
C209 C 0.38956 0.88439 0.14075 0.0
H210 H 0.47703 0.01437 0.15247 0.0
C211 C 0.43319 0.93629 0.13878 0.0
C212 C 0.44213 0.97526 0.15411 0.0
H213 H 0.46121 0.9465 0.12563 0.0
H214 H 0.52733 0.13295 0.25063 0.0
H215 H 0.49452 0.06148 0.22371 0.0
H216 H 0.42307 0.13698 0.18791 0.0
H217 H 0.45397 0.20719 0.21515 0.0
H218 H 0.44397 0.06821 0.16973 0.0
H219 H 0.41199 0.98681 0.20614 0.0
H220 H 0.33721 0.90085 0.18737 0.0
H221 H 0.32012 0.83331 0.16007 0.0
C222 C 0.13887 0.43549 0.82218 0.0
C223 C 0.15565 0.47951 0.80845 0.0
C224 C 0.09123 0.41552 0.83386 0.0
C225 C 0.059 0.43884 0.83189 0.0
C226 C 0.07529 0.4821 0.81785 0.0
C227 C 0.12331 0.50261 0.80645 0.0
C228 C 1.00697 0.41746 0.84332 0.0
C229 C 0.99637 0.39295 0.86265 0.0
C230 C 0.9436 0.37126 0.87356 0.0
C231 C 0.94069 0.36936 0.89619 0.0
C232 C 0.89138 0.34904 0.90674 0.0
C233 C 0.84381 0.32921 0.89483 0.0
H234 H 0.89624 0.35006 0.84428 0.0
C235 C 0.8468 0.33009 0.87219 0.0
C236 C 0.89592 0.35086 0.8617 0.0
H237 H 0.81106 0.31495 0.86243 0.0
H238 H 0.16289 0.4168 0.82412 0.0
H239 H 0.07932 0.38129 0.8441 0.0
H240 H 0.051 0.50048 0.81582 0.0
H241 H 0.13494 0.53643 0.79598 0.0
H242 H 0.97709 0.42444 0.83586 0.0
H243 H 0.02786 0.3906 0.8712 0.0
H244 H 0.97673 0.38427 0.90574 0.0
H245 H 0.89055 0.34883 0.92418 0.0
C246 C 0.57924 0.71166 0.49667 0.0
C247 C 0.53784 0.68592 0.48151 0.0
C248 C 0.59819 0.68312 0.50829 0.0
C249 C 0.57636 0.62821 0.50484 0.0
C250 C 0.53555 0.6028 0.48947 0.0
C251 C 0.51615 0.63111 0.4781 0.0
C252 C 0.59708 0.59673 0.51592 0.0
C253 C 0.62068 0.60869 0.53551 0.0
C254 C 0.64228 0.57693 0.54575 0.0
C255 C 0.64416 0.57409 0.56834 0.0
C256 C 0.66462 0.54459 0.57822 0.0
C257 C 0.68448 0.51806 0.56567 0.0
H258 H 0.66377 0.55345 0.51588 0.0
C259 C 0.68346 0.52187 0.5431 0.0
C260 C 0.66275 0.55085 0.53328 0.0
H261 H 0.69873 0.50238 0.53285 0.0
H262 H 0.59684 0.75386 0.49969 0.0
H263 H 0.63062 0.7044 0.51957 0.0
H264 H 0.51838 0.5607 0.48629 0.0
H265 H 0.48442 0.61006 0.46648 0.0
H266 H 0.59062 0.56085 0.50781 0.0
H267 H 0.62258 0.6414 0.54469 0.0
H268 H 0.62924 0.59429 0.57836 0.0
H269 H 0.66502 0.5427 0.59563 0.0
C270 C 0.45373 0.64937 0.18246 0.0
C271 C 0.45119 0.65171 0.15991 0.0
C272 C 0.47664 0.62197 0.19217 0.0
C273 C 0.4979 0.59687 0.1794 0.0
C274 C 0.49756 0.60183 0.1569 0.0
C275 C 0.47436 0.62864 0.14729 0.0
C276 C 0.51782 0.56236 0.18825 0.0
C277 C 0.51674 0.54894 0.20912 0.0
C278 C 0.53077 0.50822 0.2157 0.0
C279 C 0.55568 0.51228 0.23561 0.0
C280 C 0.57036 0.47476 0.24151 0.0
C281 C 0.55988 0.43227 0.22766 0.0
H282 H 0.49674 0.4584 0.18739 0.0
C283 C 0.53268 0.4271 0.20824 0.0
C284 C 0.51824 0.46438 0.20237 0.0
H285 H 0.52214 0.3939 0.19753 0.0
H286 H 0.43598 0.66676 0.19256 0.0
H287 H 0.47626 0.61966 0.20954 0.0
H288 H 0.51384 0.58337 0.14659 0.0
H289 H 0.47354 0.63038 0.12987 0.0
H290 H 0.53264 0.54516 0.1765 0.0
H291 H 0.50558 0.56747 0.22165 0.0
H292 H 0.56491 0.54516 0.24636 0.0
H293 H 0.59102 0.47976 0.25663 0.0
C294 C 0.34574 0.8241 0.83699 0.0
C295 C 0.36127 0.78547 0.83777 0.0
C296 C 0.36991 0.86863 0.85068 0.0
C297 C 0.40967 0.87477 0.86545 0.0
C298 C 0.42272 0.83443 0.86684 0.0
C299 C 0.39916 0.79062 0.85311 0.0
C300 C 0.44004 0.92252 0.8794 0.0
C301 C 0.44562 0.9708 0.87566 0.0
C302 C 0.48495 0.01954 0.88765 0.0
C303 C 0.50552 0.06958 0.87776 0.0
C304 C 0.54818 0.11504 0.88709 0.0
C305 C 0.57098 0.11104 0.9064 0.0
H306 H 0.48892 0.98007 0.91684 0.0
C307 C 0.54819 0.06207 0.91707 0.0
C308 C 0.50509 0.01696 0.90802 0.0
H309 H 0.56502 0.05853 0.93213 0.0
H310 H 0.31643 0.82082 0.82531 0.0
H311 H 0.35767 0.89807 0.84947 0.0
H312 H 0.45267 0.83757 0.87817 0.0
H313 H 0.4114 0.76108 0.8542 0.0
H314 H 0.46348 0.9185 0.89211 0.0
H315 H 0.42554 0.97616 0.86195 0.0
H316 H 0.49045 0.07309 0.86224 0.0
H317 H 0.56548 0.15258 0.87863 0.0
C318 C 0.93091 0.51174 0.54763 0.0
C319 C 0.90534 0.47833 0.56523 0.0
C320 C 0.974 0.51183 0.53761 0.0
C321 C 0.99275 0.47836 0.54494 0.0
C322 C 0.96672 0.44431 0.56238 0.0
C323 C 0.92293 0.4438 0.5723 0.0
C324 C 0.04202 0.48215 0.53573 0.0
C325 C 0.05613 0.49573 0.51501 0.0
C326 C 0.1094 0.51146 0.50564 0.0
C327 C 0.11568 0.51957 0.48329 0.0
C328 C 0.16623 0.54351 0.47393 0.0
C329 C 0.2119 0.55982 0.48668 0.0
H330 H 0.15225 0.51993 0.53558 0.0
C331 C 0.20573 0.54855 0.50883 0.0
C332 C 0.15494 0.52482 0.51829 0.0
H333 H 0.24041 0.5611 0.51902 0.0
H334 H 0.91807 0.53865 0.54184 0.0
H335 H 0.99383 0.53983 0.52467 0.0
H336 H 0.98075 0.41861 0.56852 0.0
H337 H 0.90425 0.41811 0.586 0.0
H338 H 0.06731 0.47492 0.54643 0.0
H339 H 0.0276 0.49794 0.5043 0.0
H340 H 0.08154 0.50966 0.47309 0.0
H341 H 0.16984 0.55131 0.45677 0.0
C342 C 0.6334 0.42418 0.87141 0.0
C343 C 0.63161 0.41551 0.89373 0.0
C344 C 0.60523 0.44698 0.86223 0.0
C345 C 0.57517 0.462 0.87534 0.0
C346 C 0.5757 0.45534 0.89772 0.0
C347 C 0.60332 0.43232 0.90678 0.0
C348 C 0.54077 0.4826 0.86684 0.0
C349 C 0.53075 0.48637 0.84588 0.0
C350 C 0.4912 0.50211 0.83912 0.0
C351 C 0.49822 0.52963 0.81971 0.0
C352 C 0.46168 0.54537 0.81337 0.0
C353 C 0.41702 0.53335 0.82625 0.0
H354 H 0.43732 0.46525 0.86611 0.0
C355 C 0.40918 0.50409 0.84525 0.0
C356 C 0.44558 0.48858 0.85157 0.0
H357 H 0.37446 0.4925 0.85523 0.0
H358 H 0.655 0.41159 0.86099 0.0
H359 H 0.60661 0.45177 0.84495 0.0
H360 H 0.55345 0.46679 0.90832 0.0
H361 H 0.60191 0.42695 0.92408 0.0
H362 H 0.52117 0.4941 0.87885 0.0
H363 H 0.55165 0.47827 0.83331 0.0
H364 H 0.53256 0.53986 0.80964 0.0
H365 H 0.46905 0.56778 0.79863 0.0
C366 C 0.59609 0.21552 0.54047 0.0
C367 C 0.6097 0.22283 0.56245 0.0
C368 C 0.57251 0.16461 0.53117 0.0
C369 C 0.56166 0.12006 0.54383 0.0
C370 C 0.57358 0.12757 0.56592 0.0
C371 C 0.59748 0.17816 0.57509 0.0
C372 C 0.53857 0.06503 0.53511 0.0
C373 C 0.53721 0.05206 0.51413 0.0
C374 C 0.51903 0.99642 0.5071 0.0
C375 C 0.49548 0.97855 0.48672 0.0
C376 C 0.47746 0.92602 0.48011 0.0
C377 C 0.48304 0.89046 0.49373 0.0
H378 H 0.5468 0.97411 0.53562 0.0
C379 C 0.50854 0.90918 0.51372 0.0
C380 C 0.52644 0.96133 0.52028 0.0
H381 H 0.51528 0.88363 0.52433 0.0
H382 H 0.60494 0.24931 0.53038 0.0
H383 H 0.56298 0.16058 0.51419 0.0
H384 H 0.56534 0.09416 0.57617 0.0
H385 H 0.60665 0.18236 0.59214 0.0
H386 H 0.52374 0.03341 0.54699 0.0
H387 H 0.54985 0.0823 0.50177 0.0
H388 H 0.4901 1.00497 0.47607 0.0
H389 H 0.45819 0.91299 0.46458 0.0
C390 C 0.11109 0.55849 0.15174 0.0
C391 C 0.13733 0.61143 0.15901 0.0
C392 C 0.06129 0.52117 0.16038 0.0
C393 C 0.0369 0.53664 0.17625 0.0
C394 C 0.06225 0.59022 0.18251 0.0
C395 C 0.11166 0.62702 0.17404 0.0
C396 C 0.98759 0.49879 0.18808 0.0
C397 C 0.95337 0.44787 0.18256 0.0
C398 C 0.90581 0.41415 0.19613 0.0
C399 C 0.85652 0.37897 0.18651 0.0
C400 C 0.81016 0.35258 0.19909 0.0
C401 C 0.81262 0.36077 0.22149 0.0
H402 H 0.94641 0.44387 0.22674 0.0
C403 C 0.86265 0.3926 0.23121 0.0
C404 C 0.90869 0.4188 0.21872 0.0
H405 H 0.86594 0.39867 0.24849 0.0
H406 H 0.13026 0.54551 0.14023 0.0
H407 H 0.04336 0.48022 0.15522 0.0
H408 H 0.04447 0.60357 0.19454 0.0
H409 H 0.13056 0.66774 0.17965 0.0
H410 H 0.9785 0.51457 0.20233 0.0
H411 H 0.95807 0.43174 0.16749 0.0
H412 H 0.85338 0.37409 0.16918 0.0
H413 H 0.77212 0.32824 0.19116 0.0
C414 C 0.48438 0.83855 0.38203 0.0
C415 C 0.50267 0.83348 0.40236 0.0
C416 C 0.50921 0.88697 0.3711 0.0
C417 C 0.55257 0.9321 0.38042 0.0
C418 C 0.57321 0.92614 0.40012 0.0
C419 C 0.54845 0.87722 0.41104 0.0
C420 C 0.57617 0.98565 0.37012 0.0
C421 C 0.54764 0.99961 0.35713 0.0
C422 C 0.56819 0.0528 0.34681 0.0
C423 C 0.53124 0.06474 0.33739 0.0
C424 C 0.54812 0.11358 0.32724 0.0
C425 C 0.60259 0.15198 0.32618 0.0
H426 H 0.65296 0.08329 0.35202 0.0
C427 C 0.63971 0.13992 0.33543 0.0
C428 C 0.62284 0.09099 0.34556 0.0
H429 H 0.68207 0.16798 0.33457 0.0
H430 H 0.44958 0.80526 0.37479 0.0
H431 H 0.49359 0.88889 0.35551 0.0
H432 H 0.60714 0.95995 0.40753 0.0
H433 H 0.5632 0.87452 0.42675 0.0
H434 H 0.61679 0.01481 0.3745 0.0
H435 H 0.50571 0.97114 0.35446 0.0
H436 H 0.48889 0.03619 0.33795 0.0
H437 H 0.51832 0.12146 0.3205 0.0
C438 C 0.88506 0.495 1.00504 0.0
C439 C 0.88045 0.46159 0.9877 0.0
C440 C 0.93441 0.52767 1.01508 0.0
C441 C 0.9807 0.5279 1.00801 0.0
C442 C 0.97603 0.4945 0.99072 0.0
C443 C 0.9268 0.46201 0.98066 0.0
C444 C 0.03401 0.55995 1.01864 0.0
C445 C 0.04807 0.60174 0.03206 0.0
C446 C 0.1015 0.63133 0.0429 0.0
C447 C 0.10714 0.65977 0.06207 0.0
C448 C 0.15554 0.68394 0.07359 0.0
C449 C 0.1992 0.68007 0.0661 0.0
H450 H 0.14548 0.61224 1.01957 0.0
C451 C 0.1946 0.65465 0.0463 0.0
C452 C 0.14672 0.63111 0.03474 0.0
H453 H 0.22784 0.65163 0.03998 0.0
H454 H 0.85033 0.49527 1.01126 0.0
H455 H 0.93552 0.55151 0.02865 0.0
H456 H 1.01078 0.49351 0.9849 0.0
H457 H 0.92531 0.43753 0.96725 0.0
H458 H 0.06284 0.54753 1.01521 0.0
H459 H 0.01928 0.61393 0.03593 0.0
H460 H 0.07337 0.66148 0.06861 0.0
H461 H 0.15779 0.70293 0.08888 0.0
C462 C 0.41592 0.54902 0.73822 0.0
C463 C 0.36114 0.53195 0.73737 0.0
C464 C 0.43758 0.52477 0.72564 0.0
C465 C 0.40514 0.48294 0.71159 0.0
C466 C 0.3501 0.46535 0.7108 0.0
C467 C 0.32805 0.48914 0.72385 0.0
C468 C 0.42925 0.46012 0.69685 0.0
C469 C 0.47137 0.45515 0.70283 0.0
C470 C 0.50034 0.43748 0.68828 0.0
C471 C 0.52331 0.40922 0.69713 0.0
C472 C 0.55472 0.39571 0.68452 0.0
C473 C 0.56524 0.41142 0.66285 0.0
H474 H 0.49384 0.47543 0.65929 0.0
C475 C 0.54265 0.44008 0.65393 0.0
C476 C 0.50998 0.45254 0.66646 0.0
H477 H 0.55012 0.45257 0.63726 0.0
H478 H 0.44253 0.58196 0.74847 0.0
H479 H 0.48024 0.54033 0.72637 0.0
H480 H 0.32426 0.43345 0.69999 0.0
H481 H 0.2858 0.47556 0.72274 0.0
H482 H 0.41192 0.44702 0.68093 0.0
H483 H 0.48492 0.46337 0.71946 0.0
H484 H 0.5172 0.3978 0.71395 0.0
H485 H 0.57205 0.37413 0.69189 0.0
C486 C 0.11477 0.58363 0.73343 0.0
C487 C 0.1646 0.61341 0.72326 0.0
C488 C 0.06766 0.57436 0.72317 0.0
C489 C 0.06916 0.59476 0.70242 0.0
C490 C 0.11893 0.62407 0.69225 0.0
C491 C 0.16595 0.6335 0.70252 0.0
C492 C 0.01996 0.58383 0.69028 0.0
C493 C 0.97201 0.56786 0.69948 0.0
C494 C 0.92186 0.55029 0.68691 0.0
C495 C 0.87349 0.51109 0.69583 0.0
C496 C 0.82648 0.4882 0.68369 0.0
C497 C 0.8263 0.50498 0.66252 0.0
H498 H 0.95728 0.60089 0.65895 0.0
C499 C 0.87359 0.54725 0.6541 0.0
C500 C 0.92112 0.56959 0.66614 0.0
H501 H 0.87472 0.56049 0.63771 0.0
H502 H 0.11209 0.56775 0.74943 0.0
H503 H 0.0303 0.55026 0.73147 0.0
H504 H 0.12151 0.63973 0.67619 0.0
H505 H 0.20334 0.6559 0.69401 0.0
H506 H 0.02348 0.58792 0.67289 0.0
H507 H 0.96801 0.56343 0.71683 0.0
H508 H 0.8726 0.49585 0.71184 0.0
H509 H 0.79065 0.45541 0.69051 0.0
C510 C 0.55654 0.37407 0.33781 0.0
C511 C 0.53901 0.35136 0.31733 0.0
C512 C 0.53214 0.39853 0.34851 0.0
C513 C 0.4901 0.40204 0.33875 0.0
C514 C 0.47038 0.37631 0.31881 0.0
C515 C 0.49455 0.35114 0.30818 0.0
C516 C 0.46678 0.43289 0.34864 0.0
C517 C 0.49258 0.47164 0.36352 0.0
C518 C 0.47149 0.50459 0.3731 0.0
C519 C 0.49287 0.53054 0.39279 0.0
C520 C 0.47603 0.56348 0.40211 0.0
C521 C 0.43762 0.572 0.39186 0.0
H522 H 0.4168 0.49526 0.34726 0.0
C523 C 0.41652 0.54633 0.37201 0.0
C524 C 0.43315 0.51305 0.36275 0.0
H525 H 0.38767 0.55249 0.36336 0.0
H526 H 0.59034 0.37422 0.34538 0.0
H527 H 0.54715 0.41518 0.36426 0.0
H528 H 0.43753 0.37752 0.31101 0.0
H529 H 0.48041 0.33427 0.29233 0.0
H530 H 0.42788 0.42433 0.34287 0.0
H531 H 0.53161 0.48048 0.36917 0.0
H532 H 0.52269 0.52511 0.40111 0.0
H533 H 0.49286 0.58173 0.41749 0.0
C534 C 0.68625 0.15293 0.98524 0.0
C535 C 0.69278 0.20042 0.99401 0.0
C536 C 0.65768 0.10489 0.99656 0.0
C537 C 0.63561 0.10372 1.01694 0.0
C538 C 0.64614 0.152 0.0263 0.0
C539 C 0.67379 0.19962 1.01489 0.0
C540 C 0.60005 0.05344 0.02876 0.0
C541 C 0.56929 1.00605 1.01903 0.0
C542 C 0.53011 0.95693 0.03072 0.0
C543 C 0.51567 0.90716 1.02174 0.0
C544 C 0.47944 0.86013 0.03223 0.0
C545 C 0.45593 0.8616 0.05184 0.0
H546 H 0.51399 0.99589 0.0572 0.0
C547 C 0.46878 0.91135 0.06048 0.0
C548 C 0.50548 0.95848 0.05008 0.0
H549 H 0.45163 0.91392 0.0756 0.0
H550 H 0.70006 0.15224 0.96911 0.0
H551 H 0.65201 0.06881 0.98908 0.0
H552 H 0.63041 0.15257 0.04206 0.0
H553 H 0.67807 0.23559 1.02201 0.0
H554 H 0.59688 0.0566 0.04606 0.0
H555 H 0.57251 1.00263 1.00175 0.0
H556 H 0.53321 0.90459 1.0067 0.0
H557 H 0.46996 0.82248 1.02503 0.0
loop_
_geom_bond_atom_site_label_1
_geom_bond_atom_site_label_2
_geom_bond_distance
_geom_bond_site_symmetry_2
_ccdc_geom_bond_type
C0 C1 1.351 . S
C0 N3 1.368 . S
C0 H5 0.931 . S
C1 C0 1.351 . S
C1 N2 1.373 . S
C1 H29 0.930 . S
N2 C1 1.373 . S
N2 C4 1.340 . S
N3 C0 1.368 . S
N3 C4 1.321 . S
N3 Co6 2.135 . S
C4 N2 1.340 . S
C4 N3 1.321 . S
C4 H28 0.930 . S
H5 C0 0.931 . S
Co6 N3 2.135 . S
Co6 N9 2.121 . S
Co6 O14 2.055 . S
Co6 O17 2.039 . S
Co6 N20 2.140 . S
C7 O8 1.227 . S
C7 O17 1.265 . S
O8 C7 1.227 . S
N9 Co6 2.121 . S
N9 C11 1.375 . S
N9 C12 1.313 . S
C10 C11 1.338 . S
C10 N13 1.377 . S
C10 H30 0.930 . S
C11 N9 1.375 . S
C11 C10 1.338 . S
C11 H15 0.931 . S
C12 N9 1.313 . S
C12 N13 1.344 . S
C12 H16 0.930 . S
N13 C10 1.377 . S
N13 C12 1.344 . S
O14 Co6 2.055 . S
O14 C18 1.253 . S
H15 C11 0.931 . S
H16 C12 0.930 . S
O17 Co6 2.039 . S
O17 C7 1.265 . S
C18 O14 1.253 . S
C18 O19 1.227 . S
O19 C18 1.227 . S
N20 Co6 2.140 . S
N20 C23 1.346 . S
N20 C24 1.345 . S
C21 C22 1.387 . S
C21 C25 1.391 . S
C22 C21 1.387 . S
C22 C23 1.369 . S
C22 H31 0.929 . S
C23 N20 1.346 . S
C23 C22 1.369 . S
C23 H26 0.928 . S
C24 N20 1.345 . S
C24 C25 1.371 . S
C24 H27 0.931 . S
C25 C21 1.391 . S
C25 C24 1.371 . S
C25 H32 0.930 . S
H26 C23 0.928 . S
H27 C24 0.931 . S
H28 C4 0.930 . S
H29 C1 0.930 . S
H30 C10 0.930 . S
H31 C22 0.929 . S
H32 C25 0.930 . S
C33 C34 1.351 . S
C33 N36 1.368 . S
C33 H38 0.931 . S
C34 C33 1.351 . S
C34 N35 1.373 . S
C34 H62 0.930 . S
N35 C34 1.373 . S
N35 C37 1.340 . S
N36 C33 1.368 . S
N36 C37 1.321 . S
N36 Co39 2.135 . S
C37 N35 1.340 . S
C37 N36 1.321 . S
C37 H61 0.930 . S
H38 C33 0.931 . S
Co39 N36 2.135 . S
Co39 N42 2.121 . S
Co39 O47 2.055 . S
Co39 O50 2.039 . S
Co39 N53 2.140 . S
C40 O41 1.227 . S
C40 O50 1.265 . S
O41 C40 1.227 . S
N42 Co39 2.121 . S
N42 C44 1.375 . S
N42 C45 1.313 . S
C43 C44 1.338 . S
C43 N46 1.377 . S
C43 H63 0.930 . S
C44 N42 1.375 . S
C44 C43 1.338 . S
C44 H48 0.931 . S
C45 N42 1.313 . S
C45 N46 1.344 . S
C45 H49 0.930 . S
N46 C43 1.377 . S
N46 C45 1.344 . S
O47 Co39 2.055 . S
O47 C51 1.253 . S
H48 C44 0.931 . S
H49 C45 0.930 . S
O50 Co39 2.039 . S
O50 C40 1.265 . S
C51 O47 1.253 . S
C51 O52 1.227 . S
O52 C51 1.227 . S
N53 Co39 2.140 . S
N53 C56 1.346 . S
N53 C57 1.345 . S
C54 C55 1.387 . S
C54 C58 1.391 . S
C55 C54 1.387 . S
C55 C56 1.369 . S
C55 H64 0.929 . S
C56 N53 1.346 . S
C56 C55 1.369 . S
C56 H59 0.928 . S
C57 N53 1.345 . S
C57 C58 1.371 . S
C57 H60 0.931 . S
C58 C54 1.391 . S
C58 C57 1.371 . S
C58 H65 0.930 . S
H59 C56 0.928 . S
H60 C57 0.931 . S
H61 C37 0.930 . S
H62 C34 0.930 . S
H63 C43 0.930 . S
H64 C55 0.929 . S
H65 C58 0.930 . S
C66 C67 1.351 . S
C66 N69 1.368 . S
C66 H71 0.931 . S
C67 C66 1.351 . S
C67 N68 1.373 . S
C67 H95 0.930 . S
N68 C67 1.373 . S
N68 C70 1.340 . S
N69 C66 1.368 . S
N69 C70 1.321 . S
N69 Co72 2.135 . S
C70 N68 1.340 . S
C70 N69 1.321 . S
C70 H94 0.930 . S
H71 C66 0.931 . S
Co72 N69 2.135 . S
Co72 N75 2.121 . S
Co72 O80 2.055 . S
Co72 O83 2.039 . S
Co72 N86 2.140 . S
C73 O74 1.227 . S
C73 O83 1.265 . S
O74 C73 1.227 . S
N75 Co72 2.121 . S
N75 C77 1.375 . S
N75 C78 1.313 . S
C76 C77 1.338 . S
C76 N79 1.377 . S
C76 H96 0.930 . S
C77 N75 1.375 . S
C77 C76 1.338 . S
C77 H81 0.931 . S
C78 N75 1.313 . S
C78 N79 1.344 . S
C78 H82 0.930 . S
N79 C76 1.377 . S
N79 C78 1.344 . S
O80 Co72 2.055 . S
O80 C84 1.253 . S
H81 C77 0.931 . S
H82 C78 0.930 . S
O83 Co72 2.039 . S
O83 C73 1.265 . S
C84 O80 1.253 . S
C84 O85 1.227 . S
O85 C84 1.227 . S
N86 Co72 2.140 . S
N86 C89 1.346 . S
N86 C90 1.345 . S
C87 C88 1.387 . S
C87 C91 1.391 . S
C88 C87 1.387 . S
C88 C89 1.369 . S
C88 H97 0.929 . S
C89 N86 1.346 . S
C89 C88 1.369 . S
C89 H92 0.928 . S
C90 N86 1.345 . S
C90 C91 1.371 . S
C90 H93 0.931 . S
C91 C87 1.391 . S
C91 C90 1.371 . S
C91 H98 0.930 . S
H92 C89 0.928 . S
H93 C90 0.931 . S
H94 C70 0.930 . S
H95 C67 0.930 . S
H96 C76 0.930 . S
H97 C88 0.929 . S
H98 C91 0.930 . S
C99 C100 1.351 . S
C99 N102 1.368 . S
C99 H104 0.931 . S
C100 C99 1.351 . S
C100 N101 1.373 . S
C100 H128 0.930 . S
N101 C100 1.373 . S
N101 C103 1.340 . S
N102 C99 1.368 . S
N102 C103 1.321 . S
N102 Co105 2.135 . S
C103 N101 1.340 . S
C103 N102 1.321 . S
C103 H127 0.930 . S
H104 C99 0.931 . S
Co105 N102 2.135 . S
Co105 N108 2.121 . S
Co105 O113 2.055 . S
Co105 O116 2.039 . S
Co105 N119 2.140 . S
C106 O107 1.227 . S
C106 O116 1.265 . S
O107 C106 1.227 . S
N108 Co105 2.121 . S
N108 C110 1.375 . S
N108 C111 1.313 . S
C109 C110 1.338 . S
C109 N112 1.377 . S
C109 H129 0.930 . S
C110 N108 1.375 . S
C110 C109 1.338 . S
C110 H114 0.931 . S
C111 N108 1.313 . S
C111 N112 1.344 . S
C111 H115 0.930 . S
N112 C109 1.377 . S
N112 C111 1.344 . S
O113 Co105 2.055 . S
O113 C117 1.253 . S
H114 C110 0.931 . S
H115 C111 0.930 . S
O116 Co105 2.039 . S
O116 C106 1.265 . S
C117 O113 1.253 . S
C117 O118 1.227 . S
O118 C117 1.227 . S
N119 Co105 2.140 . S
N119 C122 1.346 . S
N119 C123 1.345 . S
C120 C121 1.387 . S
C120 C124 1.391 . S
C121 C120 1.387 . S
C121 C122 1.369 . S
C121 H130 0.929 . S
C122 N119 1.346 . S
C122 C121 1.369 . S
C122 H125 0.928 . S
C123 N119 1.345 . S
C123 C124 1.371 . S
C123 H126 0.931 . S
C124 C120 1.391 . S
C124 C123 1.371 . S
C124 H131 0.930 . S
H125 C122 0.928 . S
H126 C123 0.931 . S
H127 C103 0.930 . S
H128 C100 0.930 . S
H129 C109 0.930 . S
H130 C121 0.929 . S
H131 C124 0.930 . S
C132 C133 1.351 . S
C132 N135 1.368 . S
C132 H137 0.931 . S
C133 C132 1.351 . S
C133 N134 1.373 . S
C133 H161 0.930 . S
N134 C133 1.373 . S
N134 C136 1.340 . S
N135 C132 1.368 . S
N135 C136 1.321 . S
N135 Co138 2.135 . S
C136 N134 1.340 . S
C136 N135 1.321 . S
C136 H160 0.930 . S
H137 C132 0.931 . S
Co138 N135 2.135 . S
Co138 N141 2.121 . S
Co138 O146 2.055 . S
Co138 O149 2.039 . S
Co138 N152 2.140 . S
C139 O140 1.227 . S
C139 O149 1.265 . S
O140 C139 1.227 . S
N141 Co138 2.121 . S
N141 C143 1.375 . S
N141 C144 1.313 . S
C142 C143 1.338 . S
C142 N145 1.377 . S
C142 H162 0.930 . S
C143 N141 1.375 . S
C143 C142 1.338 . S
C143 H147 0.931 . S
C144 N141 1.313 . S
C144 N145 1.344 . S
C144 H148 0.930 . S
N145 C142 1.377 . S
N145 C144 1.344 . S
O146 Co138 2.055 . S
O146 C150 1.253 . S
H147 C143 0.931 . S
H148 C144 0.930 . S
O149 Co138 2.039 . S
O149 C139 1.265 . S
C150 O146 1.253 . S
C150 O151 1.227 . S
O151 C150 1.227 . S
N152 Co138 2.140 . S
N152 C155 1.346 . S
N152 C156 1.345 . S
C153 C154 1.387 . S
C153 C157 1.391 . S
C154 C153 1.387 . S
C154 C155 1.369 . S
C154 H163 0.929 . S
C155 N152 1.346 . S
C155 C154 1.369 . S
C155 H158 0.928 . S
C156 N152 1.345 . S
C156 C157 1.371 . S
C156 H159 0.931 . S
C157 C153 1.391 . S
C157 C156 1.371 . S
C157 H164 0.930 . S
H158 C155 0.928 . S
H159 C156 0.931 . S
H160 C136 0.930 . S
H161 C133 0.930 . S
H162 C142 0.930 . S
H163 C154 0.929 . S
H164 C157 0.930 . S
C165 C166 1.351 . S
C165 N168 1.368 . S
C165 H170 0.931 . S
C166 C165 1.351 . S
C166 N167 1.373 . S
C166 H194 0.930 . S
N167 C166 1.373 . S
N167 C169 1.340 . S
N168 C165 1.368 . S
N168 C169 1.321 . S
N168 Co171 2.135 . S
C169 N167 1.340 . S
C169 N168 1.321 . S
C169 H193 0.930 . S
H170 C165 0.931 . S
Co171 N168 2.135 . S
Co171 N174 2.121 . S
Co171 O179 2.055 . S
Co171 O182 2.039 . S
Co171 N185 2.140 . S
C172 O173 1.227 . S
C172 O182 1.265 . S
O173 C172 1.227 . S
N174 Co171 2.121 . S
N174 C176 1.375 . S
N174 C177 1.313 . S
C175 C176 1.338 . S
C175 N178 1.377 . S
C175 H195 0.930 . S
C176 N174 1.375 . S
C176 C175 1.338 . S
C176 H180 0.931 . S
C177 N174 1.313 . S
C177 N178 1.344 . S
C177 H181 0.930 . S
N178 C175 1.377 . S
N178 C177 1.344 . S
O179 Co171 2.055 . S
O179 C183 1.253 . S
H180 C176 0.931 . S
H181 C177 0.930 . S
O182 Co171 2.039 . S
O182 C172 1.265 . S
C183 O179 1.253 . S
C183 O184 1.227 . S
O184 C183 1.227 . S
N185 Co171 2.140 . S
N185 C188 1.346 . S
N185 C189 1.345 . S
C186 C187 1.387 . S
C186 C190 1.391 . S
C187 C186 1.387 . S
C187 C188 1.369 . S
C187 H196 0.929 . S
C188 N185 1.346 . S
C188 C187 1.369 . S
C188 H191 0.928 . S
C189 N185 1.345 . S
C189 C190 1.371 . S
C189 H192 0.931 . S
C190 C186 1.391 . S
C190 C189 1.371 . S
C190 H197 0.930 . S
H191 C188 0.928 . S
H192 C189 0.931 . S
H193 C169 0.930 . S
H194 C166 0.930 . S
H195 C175 0.930 . S
H196 C187 0.929 . S
H197 C190 0.930 . S
C198 C199 1.386 . S
C198 C200 1.383 . S
C198 H214 0.951 . S
C199 C198 1.386 . S
C199 C203 1.383 . S
C200 C198 1.383 . S
C200 C201 1.402 . S
C200 H215 0.951 . S
C201 C200 1.402 . S
C201 C202 1.375 . S
C201 C204 1.481 . S
C202 C201 1.375 . S
C202 C203 1.367 . S
C202 H216 0.951 . S
C203 C199 1.383 . S
C203 C202 1.367 . S
C203 H217 0.950 . S
C204 C201 1.481 . S
C204 C205 1.297 1_545 S
C204 H218 0.950 . S
C205 C204 1.297 1_565 S
C205 C206 1.479 . S
C205 H219 0.950 . S
C206 C205 1.479 . S
C206 C207 1.375 . S
C206 C212 1.404 . S
C207 C206 1.375 . S
C207 C208 1.369 . S
C207 H220 0.950 . S
C208 C207 1.369 . S
C208 C209 1.392 . S
C208 H221 0.951 . S
C209 C208 1.392 . S
C209 C211 1.384 . S
H210 C212 0.949 . S
C211 C209 1.384 . S
C211 C212 1.385 . S
C211 H213 0.950 . S
C212 C206 1.404 . S
C212 H210 0.949 . S
C212 C211 1.385 . S
H213 C211 0.950 . S
H214 C198 0.951 . S
H215 C200 0.951 . S
H216 C202 0.951 . S
H217 C203 0.950 . S
H218 C204 0.950 . S
H219 C205 0.950 . S
H220 C207 0.950 . S
H221 C208 0.951 . S
C222 C223 1.386 . S
C222 C224 1.383 . S
C222 H238 0.951 . S
C223 C222 1.386 . S
C223 C227 1.383 . S
C224 C222 1.383 . S
C224 C225 1.402 . S
C224 H239 0.951 . S
C225 C224 1.402 . S
C225 C226 1.375 . S
C225 C228 1.481 . S
C226 C225 1.375 . S
C226 C227 1.367 . S
C226 H240 0.951 . S
C227 C223 1.383 . S
C227 C226 1.367 . S
C227 H241 0.950 . S
C228 C225 1.481 . S
C228 C229 1.297 1_455 S
C228 H242 0.950 . S
C229 C228 1.297 1_655 S
C229 C230 1.479 . S
C229 H243 0.950 . S
C230 C229 1.479 . S
C230 C231 1.375 . S
C230 C236 1.404 . S
C231 C230 1.375 . S
C231 C232 1.369 . S
C231 H244 0.950 . S
C232 C231 1.369 . S
C232 C233 1.392 . S
C232 H245 0.951 . S
C233 C232 1.392 . S
C233 C235 1.384 . S
H234 C236 0.949 . S
C235 C233 1.384 . S
C235 C236 1.385 . S
C235 H237 0.950 . S
C236 C230 1.404 . S
C236 H234 0.949 . S
C236 C235 1.385 . S
H237 C235 0.950 . S
H238 C222 0.951 . S
H239 C224 0.951 . S
H240 C226 0.951 . S
H241 C227 0.950 . S
H242 C228 0.950 . S
H243 C229 0.950 . S
H244 C231 0.950 . S
H245 C232 0.951 . S
C246 C247 1.386 . S
C246 C248 1.383 . S
C246 H262 0.951 . S
C247 C246 1.386 . S
C247 C251 1.383 . S
C248 C246 1.383 . S
C248 C249 1.402 . S
C248 H263 0.951 . S
C249 C248 1.402 . S
C249 C250 1.375 . S
C249 C252 1.481 . S
C250 C249 1.375 . S
C250 C251 1.367 . S
C250 H264 0.951 . S
C251 C247 1.383 . S
C251 C250 1.367 . S
C251 H265 0.950 . S
C252 C249 1.481 . S
C252 C253 1.297 . S
C252 H266 0.950 . S
C253 C252 1.297 . S
C253 C254 1.479 . S
C253 H267 0.950 . S
C254 C253 1.479 . S
C254 C255 1.375 . S
C254 C260 1.404 . S
C255 C254 1.375 . S
C255 C256 1.369 . S
C255 H268 0.950 . S
C256 C255 1.369 . S
C256 C257 1.392 . S
C256 H269 0.951 . S
C257 C256 1.392 . S
C257 C259 1.384 . S
H258 C260 0.949 . S
C259 C257 1.384 . S
C259 C260 1.385 . S
C259 H261 0.950 . S
C260 C254 1.404 . S
C260 H258 0.949 . S
C260 C259 1.385 . S
H261 C259 0.950 . S
H262 C246 0.951 . S
H263 C248 0.951 . S
H264 C250 0.951 . S
H265 C251 0.950 . S
H266 C252 0.950 . S
H267 C253 0.950 . S
H268 C255 0.950 . S
H269 C256 0.951 . S
C270 C271 1.386 . S
C270 C272 1.383 . S
C270 H286 0.951 . S
C271 C270 1.386 . S
C271 C275 1.383 . S
C272 C270 1.383 . S
C272 C273 1.402 . S
C272 H287 0.951 . S
C273 C272 1.402 . S
C273 C274 1.375 . S
C273 C276 1.481 . S
C274 C273 1.375 . S
C274 C275 1.367 . S
C274 H288 0.951 . S
C275 C271 1.383 . S
C275 C274 1.367 . S
C275 H289 0.950 . S
C276 C273 1.481 . S
C276 C277 1.297 . S
C276 H290 0.950 . S
C277 C276 1.297 . S
C277 C278 1.479 . S
C277 H291 0.950 . S
C278 C277 1.479 . S
C278 C279 1.375 . S
C278 C284 1.404 . S
C279 C278 1.375 . S
C279 C280 1.369 . S
C279 H292 0.950 . S
C280 C279 1.369 . S
C280 C281 1.392 . S
C280 H293 0.951 . S
C281 C280 1.392 . S
C281 C283 1.384 . S
H282 C284 0.949 . S
C283 C281 1.384 . S
C283 C284 1.385 . S
C283 H285 0.950 . S
C284 C278 1.404 . S
C284 H282 0.949 . S
C284 C283 1.385 . S
H285 C283 0.950 . S
H286 C270 0.951 . S
H287 C272 0.951 . S
H288 C274 0.951 . S
H289 C275 0.950 . S
H290 C276 0.950 . S
H291 C277 0.950 . S
H292 C279 0.950 . S
H293 C280 0.951 . S
C294 C295 1.386 . S
C294 C296 1.383 . S
C294 H310 0.951 . S
C295 C294 1.386 . S
C295 C299 1.383 . S
C296 C294 1.383 . S
C296 C297 1.402 . S
C296 H311 0.951 . S
C297 C296 1.402 . S
C297 C298 1.375 . S
C297 C300 1.481 . S
C298 C297 1.375 . S
C298 C299 1.367 . S
C298 H312 0.951 . S
C299 C295 1.383 . S
C299 C298 1.367 . S
C299 H313 0.950 . S
C300 C297 1.481 . S
C300 C301 1.297 . S
C300 H314 0.950 . S
C301 C300 1.297 . S
C301 C302 1.479 . S
C301 H315 0.950 . S
C302 C301 1.479 . S
C302 C303 1.375 . S
C302 C308 1.404 . S
C303 C302 1.375 . S
C303 C304 1.369 1_565 S
C303 H316 0.950 . S
C304 C303 1.369 1_545 S
C304 C305 1.392 . S
C304 H317 0.951 . S
C305 C304 1.392 . S
C305 C307 1.384 1_545 S
H306 C308 0.949 . S
C307 C305 1.384 1_565 S
C307 C308 1.385 . S
C307 H309 0.950 . S
C308 C302 1.404 . S
C308 H306 0.949 . S
C308 C307 1.385 . S
H309 C307 0.950 . S
H310 C294 0.951 . S
H311 C296 0.951 . S
H312 C298 0.951 . S
H313 C299 0.950 . S
H314 C300 0.950 . S
H315 C301 0.950 . S
H316 C303 0.950 . S
H317 C304 0.951 . S
C318 C319 1.386 . S
C318 C320 1.383 1_655 S
C318 H334 0.951 . S
C319 C318 1.386 . S
C319 C323 1.383 1_655 S
C320 C318 1.383 1_455 S
C320 C321 1.402 . S
C320 H335 0.951 . S
C321 C320 1.402 . S
C321 C322 1.375 . S
C321 C324 1.481 . S
C322 C321 1.375 . S
C322 C323 1.367 . S
C322 H336 0.951 . S
C323 C319 1.383 1_455 S
C323 C322 1.367 . S
C323 H337 0.950 . S
C324 C321 1.481 . S
C324 C325 1.297 . S
C324 H338 0.950 . S
C325 C324 1.297 . S
C325 C326 1.479 . S
C325 H339 0.950 . S
C326 C325 1.479 . S
C326 C327 1.375 . S
C326 C332 1.404 . S
C327 C326 1.375 . S
C327 C328 1.369 . S
C327 H340 0.950 . S
C328 C327 1.369 . S
C328 C329 1.392 . S
C328 H341 0.951 . S
C329 C328 1.392 . S
C329 C331 1.384 . S
H330 C332 0.949 . S
C331 C329 1.384 . S
C331 C332 1.385 . S
C331 H333 0.950 . S
C332 C326 1.404 . S
C332 H330 0.949 . S
C332 C331 1.385 . S
H333 C331 0.950 . S
H334 C318 0.951 . S
H335 C320 0.951 . S
H336 C322 0.951 . S
H337 C323 0.950 . S
H338 C324 0.950 . S
H339 C325 0.950 . S
H340 C327 0.950 . S
H341 C328 0.951 . S
C342 C343 1.386 . S
C342 C344 1.383 . S
C342 H358 0.951 . S
C343 C342 1.386 . S
C343 C347 1.383 . S
C344 C342 1.383 . S
C344 C345 1.402 . S
C344 H359 0.951 . S
C345 C344 1.402 . S
C345 C346 1.375 . S
C345 C348 1.481 . S
C346 C345 1.375 . S
C346 C347 1.367 . S
C346 H360 0.951 . S
C347 C343 1.383 . S
C347 C346 1.367 . S
C347 H361 0.950 . S
C348 C345 1.481 . S
C348 C349 1.297 . S
C348 H362 0.950 . S
C349 C348 1.297 . S
C349 C350 1.479 . S
C349 H363 0.950 . S
C350 C349 1.479 . S
C350 C351 1.375 . S
C350 C356 1.404 . S
C351 C350 1.375 . S
C351 C352 1.369 . S
C351 H364 0.950 . S
C352 C351 1.369 . S
C352 C353 1.392 . S
C352 H365 0.951 . S
C353 C352 1.392 . S
C353 C355 1.384 . S
H354 C356 0.949 . S
C355 C353 1.384 . S
C355 C356 1.385 . S
C355 H357 0.950 . S
C356 C350 1.404 . S
C356 H354 0.949 . S
C356 C355 1.385 . S
H357 C355 0.950 . S
H358 C342 0.951 . S
H359 C344 0.951 . S
H360 C346 0.951 . S
H361 C347 0.950 . S
H362 C348 0.950 . S
H363 C349 0.950 . S
H364 C351 0.950 . S
H365 C352 0.951 . S
C366 C367 1.386 . S
C366 C368 1.383 . S
C366 H382 0.951 . S
C367 C366 1.386 . S
C367 C371 1.383 . S
C368 C366 1.383 . S
C368 C369 1.402 . S
C368 H383 0.951 . S
C369 C368 1.402 . S
C369 C370 1.375 . S
C369 C372 1.481 . S
C370 C369 1.375 . S
C370 C371 1.367 . S
C370 H384 0.951 . S
C371 C367 1.383 . S
C371 C370 1.367 . S
C371 H385 0.950 . S
C372 C369 1.481 . S
C372 C373 1.297 . S
C372 H386 0.950 . S
C373 C372 1.297 . S
C373 C374 1.479 . S
C373 H387 0.950 . S
C374 C373 1.479 . S
C374 C375 1.375 . S
C374 C380 1.404 . S
C375 C374 1.375 . S
C375 C376 1.369 1_545 S
C375 H388 0.950 . S
C376 C375 1.369 1_565 S
C376 C377 1.392 . S
C376 H389 0.951 . S
C377 C376 1.392 . S
C377 C379 1.384 . S
H378 C380 0.949 . S
C379 C377 1.384 . S
C379 C380 1.385 1_565 S
C379 H381 0.950 . S
C380 C374 1.404 . S
C380 H378 0.949 . S
C380 C379 1.385 1_545 S
H381 C379 0.950 . S
H382 C366 0.951 . S
H383 C368 0.951 . S
H384 C370 0.951 . S
H385 C371 0.950 . S
H386 C372 0.950 . S
H387 C373 0.950 . S
H388 C375 0.950 . S
H389 C376 0.951 . S
C390 C391 1.386 1_655 S
C390 C392 1.383 . S
C390 H406 0.951 . S
C391 C390 1.386 1_455 S
C391 C395 1.383 . S
C392 C390 1.383 . S
C392 C393 1.402 . S
C392 H407 0.951 . S
C393 C392 1.402 . S
C393 C394 1.375 . S
C393 C396 1.481 . S
C394 C393 1.375 . S
C394 C395 1.367 1_655 S
C394 H408 0.951 . S
C395 C391 1.383 . S
C395 C394 1.367 1_455 S
C395 H409 0.950 . S
C396 C393 1.481 . S
C396 C397 1.297 . S
C396 H410 0.950 . S
C397 C396 1.297 . S
C397 C398 1.479 . S
C397 H411 0.950 . S
C398 C397 1.479 . S
C398 C399 1.375 . S
C398 C404 1.404 . S
C399 C398 1.375 . S
C399 C400 1.369 . S
C399 H412 0.950 . S
C400 C399 1.369 . S
C400 C401 1.392 . S
C400 H413 0.951 . S
C401 C400 1.392 . S
C401 C403 1.384 . S
H402 C404 0.949 . S
C403 C401 1.384 . S
C403 C404 1.385 . S
C403 H405 0.950 . S
C404 C398 1.404 . S
C404 H402 0.949 . S
C404 C403 1.385 . S
H405 C403 0.950 . S
H406 C390 0.951 . S
H407 C392 0.951 . S
H408 C394 0.951 . S
H409 C395 0.950 . S
H410 C396 0.950 . S
H411 C397 0.950 . S
H412 C399 0.950 . S
H413 C400 0.951 . S
C414 C415 1.386 . S
C414 C416 1.383 . S
C414 H430 0.951 . S
C415 C414 1.386 . S
C415 C419 1.383 . S
C416 C414 1.383 . S
C416 C417 1.402 1_565 S
C416 H431 0.951 . S
C417 C416 1.402 1_545 S
C417 C418 1.375 1_545 S
C417 C420 1.481 . S
C418 C417 1.375 1_565 S
C418 C419 1.367 . S
C418 H432 0.951 1_565 S
C419 C415 1.383 . S
C419 C418 1.367 . S
C419 H433 0.950 . S
C420 C417 1.481 . S
C420 C421 1.297 . S
C420 H434 0.950 . S
C421 C420 1.297 . S
C421 C422 1.479 . S
C421 H435 0.950 . S
C422 C421 1.479 . S
C422 C423 1.375 . S
C422 C428 1.404 . S
C423 C422 1.375 . S
C423 C424 1.369 . S
C423 H436 0.950 . S
C424 C423 1.369 . S
C424 C425 1.392 . S
C424 H437 0.951 . S
C425 C424 1.392 . S
C425 C427 1.384 . S
H426 C428 0.949 . S
C427 C425 1.384 . S
C427 C428 1.385 . S
C427 H429 0.950 . S
C428 C422 1.404 . S
C428 H426 0.949 . S
C428 C427 1.385 . S
H429 C427 0.950 . S
H430 C414 0.951 . S
H431 C416 0.951 . S
H432 C418 0.951 1_545 S
H433 C419 0.950 . S
H434 C420 0.950 . S
H435 C421 0.950 . S
H436 C423 0.950 . S
H437 C424 0.951 . S
C438 C439 1.386 . S
C438 C440 1.383 . S
C438 H454 0.951 . S
C439 C438 1.386 . S
C439 C443 1.383 . S
C440 C438 1.383 . S
C440 C441 1.402 . S
C440 H455 0.951 1_556 S
C441 C440 1.402 . S
C441 C442 1.375 . S
C441 C444 1.481 . S
C442 C441 1.375 . S
C442 C443 1.367 . S
C442 H456 0.951 . S
C443 C439 1.383 . S
C443 C442 1.367 . S
C443 H457 0.950 . S
C444 C441 1.481 . S
C444 C445 1.297 1_556 S
C444 H458 0.951 1_655 S
C445 C444 1.297 1_554 S
C445 C446 1.479 1_655 S
C445 H459 0.950 . S
C446 C445 1.479 1_455 S
C446 C447 1.375 . S
C446 C452 1.404 . S
C447 C446 1.375 . S
C447 C448 1.369 . S
C447 H460 0.950 1_455 S
C448 C447 1.369 . S
C448 C449 1.392 . S
C448 H461 0.951 . S
C449 C448 1.392 . S
C449 C451 1.384 . S
H450 C452 0.949 . S
C451 C449 1.384 . S
C451 C452 1.385 . S
C451 H453 0.950 . S
C452 C446 1.404 . S
C452 H450 0.949 . S
C452 C451 1.385 . S
H453 C451 0.950 . S
H454 C438 0.951 . S
H455 C440 0.951 1_554 S
H456 C442 0.951 . S
H457 C443 0.950 . S
H458 C444 0.951 1_455 S
H459 C445 0.950 . S
H460 C447 0.950 1_655 S
H461 C448 0.951 . S
C462 C463 1.386 . S
C462 C464 1.383 . S
C462 H478 0.951 . S
C463 C462 1.386 . S
C463 C467 1.383 . S
C464 C462 1.383 . S
C464 C465 1.402 . S
C464 H479 0.951 . S
C465 C464 1.402 . S
C465 C466 1.375 . S
C465 C468 1.481 . S
C466 C465 1.375 . S
C466 C467 1.367 . S
C466 H480 0.951 . S
C467 C463 1.383 . S
C467 C466 1.367 . S
C467 H481 0.950 . S
C468 C465 1.481 . S
C468 C469 1.297 . S
C468 H482 0.950 . S
C469 C468 1.297 . S
C469 C470 1.479 . S
C469 H483 0.950 . S
C470 C469 1.479 . S
C470 C471 1.375 . S
C470 C476 1.404 . S
C471 C470 1.375 . S
C471 C472 1.369 . S
C471 H484 0.950 . S
C472 C471 1.369 . S
C472 C473 1.392 . S
C472 H485 0.951 . S
C473 C472 1.392 . S
C473 C475 1.384 . S
H474 C476 0.949 . S
C475 C473 1.384 . S
C475 C476 1.385 . S
C475 H477 0.950 . S
C476 C470 1.404 . S
C476 H474 0.949 . S
C476 C475 1.385 . S
H477 C475 0.950 . S
H478 C462 0.951 . S
H479 C464 0.951 . S
H480 C466 0.951 . S
H481 C467 0.950 . S
H482 C468 0.950 . S
H483 C469 0.950 . S
H484 C471 0.950 . S
H485 C472 0.951 . S
C486 C487 1.386 . S
C486 C488 1.383 . S
C486 H502 0.951 . S
C487 C486 1.386 . S
C487 C491 1.383 . S
C488 C486 1.383 . S
C488 C489 1.402 . S
C488 H503 0.951 . S
C489 C488 1.402 . S
C489 C490 1.375 . S
C489 C492 1.481 . S
C490 C489 1.375 . S
C490 C491 1.367 . S
C490 H504 0.951 . S
C491 C487 1.383 . S
C491 C490 1.367 . S
C491 H505 0.950 . S
C492 C489 1.481 . S
C492 C493 1.297 . S
C492 H506 0.950 . S
C493 C492 1.297 . S
C493 C494 1.479 1_455 S
C493 H507 0.949 1_455 S
C494 C493 1.479 1_655 S
C494 C495 1.375 . S
C494 C500 1.404 . S
C495 C494 1.375 . S
C495 C496 1.369 . S
C495 H508 0.950 . S
C496 C495 1.369 . S
C496 C497 1.392 . S
C496 H509 0.951 . S
C497 C496 1.392 . S
C497 C499 1.384 . S
H498 C500 0.949 1_455 S
C499 C497 1.384 . S
C499 C500 1.385 . S
C499 H501 0.950 . S
C500 C494 1.404 . S
C500 H498 0.949 1_655 S
C500 C499 1.385 . S
H501 C499 0.950 . S
H502 C486 0.951 . S
H503 C488 0.951 . S
H504 C490 0.951 . S
H505 C491 0.950 . S
H506 C492 0.950 . S
H507 C493 0.949 1_655 S
H508 C495 0.950 . S
H509 C496 0.951 . S
C510 C511 1.386 . S
C510 C512 1.383 . S
C510 H526 0.951 . S
C511 C510 1.386 . S
C511 C515 1.383 . S
C512 C510 1.383 . S
C512 C513 1.402 . S
C512 H527 0.951 . S
C513 C512 1.402 . S
C513 C514 1.375 . S
C513 C516 1.481 . S
C514 C513 1.375 . S
C514 C515 1.367 . S
C514 H528 0.951 . S
C515 C511 1.383 . S
C515 C514 1.367 . S
C515 H529 0.950 . S
C516 C513 1.481 . S
C516 C517 1.297 . S
C516 H530 0.950 . S
C517 C516 1.297 . S
C517 C518 1.479 . S
C517 H531 0.950 . S
C518 C517 1.479 . S
C518 C519 1.375 . S
C518 C524 1.404 . S
C519 C518 1.375 . S
C519 C520 1.369 . S
C519 H532 0.950 . S
C520 C519 1.369 . S
C520 C521 1.392 . S
C520 H533 0.951 . S
C521 C520 1.392 . S
C521 C523 1.384 . S
H522 C524 0.949 . S
C523 C521 1.384 . S
C523 C524 1.385 . S
C523 H525 0.950 . S
C524 C518 1.404 . S
C524 H522 0.949 . S
C524 C523 1.385 . S
H525 C523 0.950 . S
H526 C510 0.951 . S
H527 C512 0.951 . S
H528 C514 0.951 . S
H529 C515 0.950 . S
H530 C516 0.950 . S
H531 C517 0.950 . S
H532 C519 0.950 . S
H533 C520 0.951 . S
C534 C535 1.386 . S
C534 C536 1.383 . S
C534 H550 0.951 . S
C535 C534 1.386 . S
C535 C539 1.383 . S
C536 C534 1.383 . S
C536 C537 1.402 . S
C536 H551 0.951 1_545 S
C537 C536 1.402 . S
C537 C538 1.375 . S
C537 C540 1.481 1_546 S
C538 C537 1.375 . S
C538 C539 1.367 . S
C538 H552 0.951 . S
C539 C535 1.383 . S
C539 C538 1.367 . S
C539 H553 0.950 . S
C540 C537 1.481 1_564 S
C540 C541 1.297 . S
C540 H554 0.950 1_565 S
C541 C540 1.297 . S
C541 C542 1.479 . S
C541 H555 0.950 1_554 S
C542 C541 1.479 . S
C542 C543 1.375 . S
C542 C548 1.404 . S
C543 C542 1.375 . S
C543 C544 1.369 . S
C543 H556 0.950 . S
C544 C543 1.369 . S
C544 C545 1.392 . S
C544 H557 0.951 . S
C545 C544 1.392 . S
C545 C547 1.384 . S
H546 C548 0.949 . S
C547 C545 1.384 . S
C547 C548 1.385 . S
C547 H549 0.950 . S
C548 C542 1.404 . S
C548 H546 0.949 . S
C548 C547 1.385 . S
H549 C547 0.950 . S
H550 C534 0.951 . S
H551 C536 0.951 1_565 S
H552 C538 0.951 . S
H553 C539 0.950 . S
H554 C540 0.950 1_545 S
H555 C541 0.950 1_556 S
H556 C543 0.950 . S
H557 C544 0.951 . S
C199 C7 1.471 . S
C209 C172 1.463 . S
C223 C106 1.441 . S
C233 C40 1.475 . S
C247 C139 1.431 . S
C257 C73 1.459 . S
C271 C186 1.089 . S
C281 N13 1.108 . S
C295 C120 1.100 . S
C305 N46 1.118 . S
C319 N79 1.079 . S
C329 C153 1.087 . S
C343 C54 1.092 . S
C353 N112 1.081 . S
C367 C87 1.089 . S
C377 N145 1.108 . S
C391 N178 1.075 . S
C401 C21 1.113 . S
C415 C150 1.644 . S
C425 N2 1.548 . S
C439 N35 1.598 . S
C449 C183 1.607 . S
C463 C117 1.650 . S
C473 N68 1.589 . S
C487 N101 1.601 . S
C497 C84 1.650 . S
C511 C18 1.627 . S
C521 N134 1.550 . S
C535 C51 1.645 . S
C545 N167 1.622 . S
