# Generated by pormake.
# Topology ukc, (4)-cn, num edge types: 1
# Building blocks:
#     Node 0, Type 0, BuildingBlock: QUQFOY_clean_sbu_1, # of connection points: 4
#     Node 1, Type 0, BuildingBlock: QUQFOY_clean_sbu_1, # of connection points: 4
#     Node 2, Type 0, BuildingBlock: QUQFOY_clean_sbu_1, # of connection points: 4
#     Node 3, Type 0, BuildingBlock: QUQFOY_clean_sbu_1, # of connection points: 4
#     Node 4, Type 0, BuildingBlock: QUQFOY_clean_sbu_1, # of connection points: 4
#     Node 5, Type 0, BuildingBlock: QUQFOY_clean_sbu_1, # of connection points: 4
#     Node 6, Type 0, BuildingBlock: QUQFOY_clean_sbu_1, # of connection points: 4
#     Node 7, Type 0, BuildingBlock: QUQFOY_clean_sbu_1, # of connection points: 4
#     Node 8, Type 0, BuildingBlock: QUQFOY_clean_sbu_1, # of connection points: 4
#     Node 9, Type 0, BuildingBlock: QUQFOY_clean_sbu_1, # of connection points: 4
#     Node 10, Type 0, BuildingBlock: QUQFOY_clean_sbu_1, # of connection points: 4
#     Node 11, Type 0, BuildingBlock: QUQFOY_clean_sbu_1, # of connection points: 4
#     Node 12, Type 0, BuildingBlock: QUQFOY_clean_sbu_1, # of connection points: 4
#     Node 13, Type 0, BuildingBlock: QUQFOY_clean_sbu_1, # of connection points: 4
#     Node 14, Type 0, BuildingBlock: QUQFOY_clean_sbu_1, # of connection points: 4
#     Node 15, Type 0, BuildingBlock: QUQFOY_clean_sbu_1, # of connection points: 4
#     Node 16, Type 0, BuildingBlock: QUQFOY_clean_sbu_1, # of connection points: 4
#     Node 17, Type 0, BuildingBlock: QUQFOY_clean_sbu_1, # of connection points: 4
#     Node 18, Type 0, BuildingBlock: QUQFOY_clean_sbu_1, # of connection points: 4
#     Node 19, Type 0, BuildingBlock: QUQFOY_clean_sbu_1, # of connection points: 4
#     Node 20, Type 0, BuildingBlock: QUQFOY_clean_sbu_1, # of connection points: 4
#     Node 21, Type 0, BuildingBlock: QUQFOY_clean_sbu_1, # of connection points: 4
#     Node 22, Type 0, BuildingBlock: QUQFOY_clean_sbu_1, # of connection points: 4
#     Node 23, Type 0, BuildingBlock: QUQFOY_clean_sbu_1, # of connection points: 4
#     Node 24, Type 0, BuildingBlock: QUQFOY_clean_sbu_1, # of connection points: 4
#     Node 25, Type 0, BuildingBlock: QUQFOY_clean_sbu_1, # of connection points: 4
#     Node 26, Type 0, BuildingBlock: QUQFOY_clean_sbu_1, # of connection points: 4
#     Node 27, Type 0, BuildingBlock: QUQFOY_clean_sbu_1, # of connection points: 4
#     Node 28, Type 0, BuildingBlock: QUQFOY_clean_sbu_1, # of connection points: 4
#     Node 29, Type 0, BuildingBlock: QUQFOY_clean_sbu_1, # of connection points: 4
#     Node 30, Type 0, BuildingBlock: QUQFOY_clean_sbu_1, # of connection points: 4
#     Node 31, Type 0, BuildingBlock: QUQFOY_clean_sbu_1, # of connection points: 4
#     Edge 32, Type (0, 0), BuildingBlock: XIVTED_clean_linker_0, # of connection points: 2
#     Edge 33, Type (0, 0), BuildingBlock: XIVTED_clean_linker_0, # of connection points: 2
#     Edge 34, Type (0, 0), BuildingBlock: XIVTED_clean_linker_0, # of connection points: 2
#     Edge 35, Type (0, 0), BuildingBlock: XIVTED_clean_linker_0, # of connection points: 2
#     Edge 36, Type (0, 0), BuildingBlock: XIVTED_clean_linker_0, # of connection points: 2
#     Edge 37, Type (0, 0), BuildingBlock: XIVTED_clean_linker_0, # of connection points: 2
#     Edge 38, Type (0, 0), BuildingBlock: XIVTED_clean_linker_0, # of connection points: 2
#     Edge 39, Type (0, 0), BuildingBlock: XIVTED_clean_linker_0, # of connection points: 2
#     Edge 40, Type (0, 0), BuildingBlock: XIVTED_clean_linker_0, # of connection points: 2
#     Edge 41, Type (0, 0), BuildingBlock: XIVTED_clean_linker_0, # of connection points: 2
#     Edge 42, Type (0, 0), BuildingBlock: XIVTED_clean_linker_0, # of connection points: 2
#     Edge 43, Type (0, 0), BuildingBlock: XIVTED_clean_linker_0, # of connection points: 2
#     Edge 44, Type (0, 0), BuildingBlock: XIVTED_clean_linker_0, # of connection points: 2
#     Edge 45, Type (0, 0), BuildingBlock: XIVTED_clean_linker_0, # of connection points: 2
#     Edge 46, Type (0, 0), BuildingBlock: XIVTED_clean_linker_0, # of connection points: 2
#     Edge 47, Type (0, 0), BuildingBlock: XIVTED_clean_linker_0, # of connection points: 2
#     Edge 48, Type (0, 0), BuildingBlock: XIVTED_clean_linker_0, # of connection points: 2
#     Edge 49, Type (0, 0), BuildingBlock: XIVTED_clean_linker_0, # of connection points: 2
#     Edge 50, Type (0, 0), BuildingBlock: XIVTED_clean_linker_0, # of connection points: 2
#     Edge 51, Type (0, 0), BuildingBlock: XIVTED_clean_linker_0, # of connection points: 2
#     Edge 52, Type (0, 0), BuildingBlock: XIVTED_clean_linker_0, # of connection points: 2
#     Edge 53, Type (0, 0), BuildingBlock: XIVTED_clean_linker_0, # of connection points: 2
#     Edge 54, Type (0, 0), BuildingBlock: XIVTED_clean_linker_0, # of connection points: 2
#     Edge 55, Type (0, 0), BuildingBlock: XIVTED_clean_linker_0, # of connection points: 2
#     Edge 56, Type (0, 0), BuildingBlock: XIVTED_clean_linker_0, # of connection points: 2
#     Edge 57, Type (0, 0), BuildingBlock: XIVTED_clean_linker_0, # of connection points: 2
#     Edge 58, Type (0, 0), BuildingBlock: XIVTED_clean_linker_0, # of connection points: 2
#     Edge 59, Type (0, 0), BuildingBlock: XIVTED_clean_linker_0, # of connection points: 2
#     Edge 60, Type (0, 0), BuildingBlock: XIVTED_clean_linker_0, # of connection points: 2
#     Edge 61, Type (0, 0), BuildingBlock: XIVTED_clean_linker_0, # of connection points: 2
#     Edge 62, Type (0, 0), BuildingBlock: XIVTED_clean_linker_0, # of connection points: 2
#     Edge 63, Type (0, 0), BuildingBlock: XIVTED_clean_linker_0, # of connection points: 2
#     Edge 64, Type (0, 0), BuildingBlock: XIVTED_clean_linker_0, # of connection points: 2
#     Edge 65, Type (0, 0), BuildingBlock: XIVTED_clean_linker_0, # of connection points: 2
#     Edge 66, Type (0, 0), BuildingBlock: XIVTED_clean_linker_0, # of connection points: 2
#     Edge 67, Type (0, 0), BuildingBlock: XIVTED_clean_linker_0, # of connection points: 2
#     Edge 68, Type (0, 0), BuildingBlock: XIVTED_clean_linker_0, # of connection points: 2
#     Edge 69, Type (0, 0), BuildingBlock: XIVTED_clean_linker_0, # of connection points: 2
#     Edge 70, Type (0, 0), BuildingBlock: XIVTED_clean_linker_0, # of connection points: 2
#     Edge 71, Type (0, 0), BuildingBlock: XIVTED_clean_linker_0, # of connection points: 2
#     Edge 72, Type (0, 0), BuildingBlock: XIVTED_clean_linker_0, # of connection points: 2
#     Edge 73, Type (0, 0), BuildingBlock: XIVTED_clean_linker_0, # of connection points: 2
#     Edge 74, Type (0, 0), BuildingBlock: XIVTED_clean_linker_0, # of connection points: 2
#     Edge 75, Type (0, 0), BuildingBlock: XIVTED_clean_linker_0, # of connection points: 2
#     Edge 76, Type (0, 0), BuildingBlock: XIVTED_clean_linker_0, # of connection points: 2
#     Edge 77, Type (0, 0), BuildingBlock: XIVTED_clean_linker_0, # of connection points: 2
#     Edge 78, Type (0, 0), BuildingBlock: XIVTED_clean_linker_0, # of connection points: 2
#     Edge 79, Type (0, 0), BuildingBlock: XIVTED_clean_linker_0, # of connection points: 2
#     Edge 80, Type (0, 0), BuildingBlock: XIVTED_clean_linker_0, # of connection points: 2
#     Edge 81, Type (0, 0), BuildingBlock: XIVTED_clean_linker_0, # of connection points: 2
#     Edge 82, Type (0, 0), BuildingBlock: XIVTED_clean_linker_0, # of connection points: 2
#     Edge 83, Type (0, 0), BuildingBlock: XIVTED_clean_linker_0, # of connection points: 2
#     Edge 84, Type (0, 0), BuildingBlock: XIVTED_clean_linker_0, # of connection points: 2
#     Edge 85, Type (0, 0), BuildingBlock: XIVTED_clean_linker_0, # of connection points: 2
#     Edge 86, Type (0, 0), BuildingBlock: XIVTED_clean_linker_0, # of connection points: 2
#     Edge 87, Type (0, 0), BuildingBlock: XIVTED_clean_linker_0, # of connection points: 2
#     Edge 88, Type (0, 0), BuildingBlock: XIVTED_clean_linker_0, # of connection points: 2
#     Edge 89, Type (0, 0), BuildingBlock: XIVTED_clean_linker_0, # of connection points: 2
#     Edge 90, Type (0, 0), BuildingBlock: XIVTED_clean_linker_0, # of connection points: 2
#     Edge 91, Type (0, 0), BuildingBlock: XIVTED_clean_linker_0, # of connection points: 2
#     Edge 92, Type (0, 0), BuildingBlock: XIVTED_clean_linker_0, # of connection points: 2
#     Edge 93, Type (0, 0), BuildingBlock: XIVTED_clean_linker_0, # of connection points: 2
#     Edge 94, Type (0, 0), BuildingBlock: XIVTED_clean_linker_0, # of connection points: 2
#     Edge 95, Type (0, 0), BuildingBlock: XIVTED_clean_linker_0, # of connection points: 2
# Relax obj value: 0.073
# Max RMSD: 0.149
# Mean RMSD: 0.149
data_MOF--net-ukc--node1-QUQFOY_clean_sbu_1--edge1-XIVTED_clean_linker_0
_symmetry_space_group_name_H-M    P1
_symmetry_Int_Tables_number       1
_symmetry_cell_setting            triclinic
loop_
_symmetry_equiv_pos_as_xyz
'x, y, z'
_cell_length_a     49.621516
_cell_length_b     49.597509
_cell_length_c     84.787339
_cell_angle_alpha  89.97331
_cell_angle_beta   89.987572
_cell_angle_gamma 90.002777
loop_
_atom_site_label
_atom_site_type_symbol
_atom_site_fract_x
_atom_site_fract_y
_atom_site_fract_z
_atom_type_partial_charge
O0 O 0.1163 0.36096 0.0543 0.0
Cd1 Cd 0.11407 0.35588 0.03026 0.0
Cd2 Cd 0.06765 0.38811 0.03524 0.0
O3 O 0.083 0.38982 0.05787 0.0
O4 O 0.1485 0.337 0.0256 0.0
O5 O 0.13922 0.37759 0.01638 0.0
C6 C 0.15595 0.35776 0.01761 0.0
C7 C 0.04877 0.42676 0.02402 0.0
C8 C 0.10254 0.37608 0.06331 0.0
C9 C 0.06021 0.33151 0.02258 0.0
O10 O 0.04957 0.35283 0.02806 0.0
O11 O 0.08567 0.32922 0.02173 0.0
O12 O 0.03698 0.41399 0.0353 0.0
O13 O 0.07203 0.41811 0.0194 0.0
O14 O 0.88695 0.86556 0.30487 0.0
Cd15 Cd 0.89267 0.8632 0.28088 0.0
Cd16 Cd 0.86109 0.8161 0.28589 0.0
O17 O 0.85902 0.83147 0.3085 0.0
O18 O 0.91162 0.89769 0.2764 0.0
O19 O 0.87135 0.88834 0.26678 0.0
C20 C 0.89111 0.9051 0.2682 0.0
C21 C 0.82257 0.79712 0.27458 0.0
C22 C 0.87214 0.85147 0.31389 0.0
C23 C 0.91788 0.80949 0.27341 0.0
O24 O 0.89665 0.79849 0.27877 0.0
O25 O 0.91979 0.835 0.2726 0.0
O26 O 0.83541 0.78524 0.28581 0.0
O27 O 0.83115 0.82047 0.27003 0.0
O28 O 0.38224 0.63929 0.55594 0.0
Cd29 Cd 0.38318 0.64661 0.53209 0.0
Cd30 Cd 0.43083 0.61569 0.53554 0.0
O31 O 0.41774 0.61295 0.55863 0.0
O32 O 0.34629 0.66121 0.52872 0.0
O33 O 0.36102 0.62407 0.5171 0.0
C34 C 0.34165 0.6409 0.51968 0.0
C35 C 0.45033 0.57766 0.52392 0.0
C36 C 0.39752 0.62498 0.56454 0.0
C37 C 0.43514 0.67355 0.52362 0.0
O38 O 0.44663 0.65183 0.52789 0.0
O39 O 0.40961 0.67568 0.52401 0.0
O40 O 0.46261 0.59121 0.5347 0.0
O41 O 0.42639 0.58532 0.51994 0.0
O42 O 0.61301 0.13165 0.80527 0.0
Cd43 Cd 0.60571 0.13327 0.78144 0.0
Cd44 Cd 0.63602 0.18121 0.78556 0.0
O45 O 0.63875 0.16746 0.80853 0.0
O46 O 0.59093 0.09649 0.77793 0.0
O47 O 0.62798 0.11124 0.76623 0.0
C48 C 0.61111 0.09189 0.76878 0.0
C49 C 0.67391 0.20095 0.77393 0.0
C50 C 0.62696 0.14682 0.81413 0.0
C51 C 0.57825 0.18533 0.77362 0.0
O52 O 0.59977 0.19694 0.77809 0.0
O53 O 0.57646 0.15975 0.77366 0.0
O54 O 0.66046 0.21305 0.78482 0.0
O55 O 0.66626 0.17704 0.76986 0.0
O56 O 0.11628 0.63636 0.4386 0.0
Cd57 Cd 0.11457 0.64382 0.46243 0.0
Cd58 Cd 0.0664 0.61427 0.45811 0.0
O59 O 0.0805 0.61062 0.4353 0.0
O60 O 0.15129 0.65886 0.46579 0.0
O61 O 0.13687 0.62192 0.47774 0.0
C62 C 0.15608 0.63887 0.47505 0.0
C63 C 0.04683 0.57678 0.47026 0.0
C64 C 0.10123 0.62228 0.42974 0.0
C65 C 0.06264 0.67217 0.46964 0.0
O66 O 0.05076 0.65095 0.46492 0.0
O67 O 0.08823 0.67328 0.47012 0.0
O68 O 0.0347 0.58969 0.45915 0.0
O69 O 0.07064 0.5848 0.47429 0.0
O70 O 0.61293 0.86647 0.68737 0.0
Cd71 Cd 0.60594 0.86505 0.71124 0.0
Cd72 Cd 0.63683 0.81757 0.70727 0.0
O73 O 0.63932 0.8311 0.68425 0.0
O74 O 0.59099 0.90176 0.71478 0.0
O75 O 0.62834 0.88731 0.72626 0.0
C76 C 0.6113 0.90653 0.72379 0.0
C77 C 0.67501 0.79848 0.71892 0.0
C78 C 0.62714 0.85144 0.67857 0.0
C79 C 0.57923 0.81278 0.71942 0.0
O80 O 0.60084 0.80141 0.71489 0.0
O81 O 0.57712 0.83834 0.7193 0.0
O82 O 0.66171 0.78609 0.70808 0.0
O83 O 0.66704 0.82232 0.72292 0.0
O84 O 0.38412 0.3602 0.93844 0.0
Cd85 Cd 0.38646 0.35519 0.96248 0.0
Cd86 Cd 0.43277 0.3878 0.95737 0.0
O87 O 0.4173 0.38918 0.93475 0.0
O88 O 0.35229 0.33586 0.96717 0.0
O89 O 0.36101 0.37661 0.97632 0.0
C90 C 0.34456 0.35654 0.97513 0.0
C91 C 0.45148 0.42675 0.96831 0.0
C92 C 0.39779 0.37534 0.92938 0.0
C93 C 0.44059 0.33137 0.97025 0.0
O94 O 0.45109 0.35274 0.96472 0.0
O95 O 0.41514 0.32887 0.97106 0.0
O96 O 0.46329 0.41386 0.95708 0.0
O97 O 0.42831 0.41802 0.97304 0.0
O98 O 0.89014 0.13385 0.18947 0.0
Cd99 Cd 0.89502 0.13604 0.21352 0.0
Cd100 Cd 0.86247 0.18236 0.20848 0.0
O101 O 0.86107 0.16696 0.18585 0.0
O102 O 0.91422 0.10177 0.21817 0.0
O103 O 0.87346 0.11055 0.22727 0.0
C104 C 0.89347 0.09403 0.22607 0.0
C105 C 0.82355 0.20118 0.21941 0.0
C106 C 0.87498 0.14753 0.18044 0.0
C107 C 0.91893 0.19011 0.22129 0.0
O108 O 0.89758 0.20064 0.21578 0.0
O109 O 0.92138 0.16465 0.22213 0.0
O110 O 0.8365 0.21297 0.2082 0.0
O111 O 0.8322 0.17797 0.22414 0.0
O112 O 0.88211 0.64334 0.93982 0.0
Cd113 Cd 0.88539 0.64773 0.96385 0.0
Cd114 Cd 0.9308 0.61492 0.95805 0.0
O115 O 0.91425 0.61341 0.9357 0.0
O116 O 0.85143 0.66697 0.96906 0.0
O117 O 0.86035 0.62593 0.97773 0.0
C118 C 0.84386 0.64601 0.97684 0.0
C119 C 0.94934 0.57601 0.96914 0.0
C120 C 0.89493 0.6278 0.93059 0.0
C121 C 0.93984 0.67118 0.97082 0.0
O122 O 0.94986 0.64989 0.96491 0.0
O123 O 0.91448 0.67374 0.97224 0.0
O124 O 0.9609 0.5884 0.95763 0.0
O125 O 0.92645 0.58518 0.97405 0.0
O126 O 0.10464 0.13374 0.69032 0.0
Cd127 Cd 0.10023 0.13685 0.71439 0.0
Cd128 Cd 0.13424 0.18129 0.70906 0.0
O129 O 0.13587 0.16481 0.68671 0.0
O130 O 0.08149 0.1027 0.71995 0.0
O131 O 0.12263 0.11227 0.72818 0.0
C132 C 0.10275 0.09549 0.72756 0.0
C133 C 0.17334 0.19937 0.72016 0.0
C134 C 0.12093 0.14615 0.68132 0.0
C135 C 0.07797 0.19174 0.72144 0.0
O136 O 0.09962 0.20119 0.71566 0.0
O137 O 0.07472 0.16643 0.72283 0.0
O138 O 0.1612 0.21099 0.70859 0.0
O139 O 0.16379 0.17668 0.72515 0.0
O140 O 0.61681 0.36155 0.44035 0.0
Cd141 Cd 0.61416 0.3572 0.46443 0.0
Cd142 Cd 0.56734 0.38815 0.45851 0.0
O143 O 0.58366 0.39032 0.43615 0.0
O144 O 0.64831 0.33781 0.46901 0.0
O145 O 0.63989 0.37864 0.4781 0.0
C146 C 0.65628 0.35853 0.47683 0.0
C147 C 0.54836 0.42665 0.46981 0.0
C148 C 0.60343 0.37654 0.43107 0.0
C149 C 0.56045 0.33181 0.47146 0.0
O150 O 0.54955 0.35242 0.46526 0.0
O151 O 0.58586 0.33059 0.47314 0.0
O152 O 0.53667 0.41404 0.45842 0.0
O153 O 0.57149 0.41782 0.47454 0.0
O154 O 0.39036 0.8658 0.1904 0.0
Cd155 Cd 0.39415 0.86258 0.21453 0.0
Cd156 Cd 0.36166 0.81707 0.20823 0.0
O157 O 0.35988 0.83426 0.18609 0.0
O158 O 0.41357 0.89648 0.21987 0.0
O159 O 0.37226 0.88797 0.22816 0.0
C160 C 0.3925 0.9043 0.22744 0.0
C161 C 0.32292 0.79812 0.21929 0.0
C162 C 0.37464 0.85337 0.18107 0.0
C163 C 0.41761 0.80789 0.22118 0.0
O164 O 0.39684 0.79797 0.21463 0.0
O165 O 0.4196 0.83319 0.22329 0.0
O166 O 0.33518 0.78692 0.20761 0.0
O167 O 0.33216 0.82085 0.22441 0.0
O168 O 0.88462 0.35638 0.55367 0.0
Cd169 Cd 0.888 0.35302 0.52959 0.0
Cd170 Cd 0.93318 0.38551 0.53584 0.0
O171 O 0.91646 0.38646 0.55815 0.0
O172 O 0.8542 0.33371 0.52414 0.0
O173 O 0.86272 0.37518 0.51606 0.0
C174 C 0.84641 0.35492 0.51669 0.0
C175 C 0.95085 0.42494 0.5249 0.0
C176 C 0.89723 0.37176 0.56309 0.0
C177 C 0.94251 0.3298 0.52248 0.0
O178 O 0.95251 0.35077 0.52878 0.0
O179 O 0.91717 0.32748 0.52083 0.0
O180 O 0.96281 0.41257 0.53628 0.0
O181 O 0.92811 0.41537 0.52001 0.0
O182 O 0.38897 0.13288 0.30535 0.0
Cd183 Cd 0.39453 0.13577 0.28136 0.0
Cd184 Cd 0.36114 0.18133 0.28663 0.0
O185 O 0.35907 0.16521 0.30906 0.0
O186 O 0.41426 0.10181 0.27661 0.0
O187 O 0.37359 0.11028 0.2673 0.0
C188 C 0.39373 0.09393 0.26858 0.0
C189 C 0.32258 0.19981 0.27511 0.0
C190 C 0.37324 0.14589 0.31439 0.0
C191 C 0.4178 0.19053 0.27452 0.0
O192 O 0.39622 0.20044 0.2801 0.0
O193 O 0.42062 0.16515 0.27321 0.0
O194 O 0.33464 0.21146 0.2867 0.0
O195 O 0.33186 0.17685 0.27037 0.0
O196 O 0.61477 0.64324 0.05422 0.0
Cd197 Cd 0.61229 0.64834 0.0302 0.0
Cd198 Cd 0.56594 0.61606 0.03537 0.0
O199 O 0.582 0.61378 0.0578 0.0
O200 O 0.64641 0.6678 0.02564 0.0
O201 O 0.63789 0.62708 0.01638 0.0
C202 C 0.65429 0.64717 0.01769 0.0
C203 C 0.54692 0.57754 0.02411 0.0
C204 C 0.60144 0.62769 0.06321 0.0
C205 C 0.55827 0.67272 0.02289 0.0
O206 O 0.54768 0.65153 0.02859 0.0
O207 O 0.5837 0.6748 0.0217 0.0
O208 O 0.53535 0.59009 0.03555 0.0
O209 O 0.57 0.58639 0.01931 0.0
O210 O 0.11156 0.86572 0.805 0.0
Cd211 Cd 0.10626 0.86343 0.78093 0.0
Cd212 Cd 0.13832 0.81642 0.78649 0.0
O213 O 0.14079 0.83279 0.8088 0.0
O214 O 0.08602 0.89732 0.77669 0.0
O215 O 0.12669 0.88985 0.76713 0.0
C216 C 0.1063 0.90581 0.76866 0.0
C217 C 0.17655 0.79676 0.77525 0.0
C218 C 0.12696 0.85238 0.81408 0.0
C219 C 0.08177 0.80909 0.77393 0.0
O220 O 0.10262 0.79846 0.78 0.0
O221 O 0.08011 0.83452 0.77231 0.0
O222 O 0.16396 0.78553 0.7868 0.0
O223 O 0.16792 0.81985 0.77033 0.0
O224 O 0.61635 0.85666 0.5531 0.0
Cd225 Cd 0.6136 0.85249 0.52901 0.0
Cd226 Cd 0.56876 0.88653 0.53465 0.0
O227 O 0.5854 0.88792 0.55697 0.0
O228 O 0.64728 0.83252 0.52397 0.0
O229 O 0.63952 0.87386 0.51544 0.0
C230 C 0.65556 0.85341 0.51639 0.0
C231 C 0.5504 0.92562 0.52365 0.0
C232 C 0.60403 0.87279 0.56223 0.0
C233 C 0.55858 0.83044 0.52188 0.0
O234 O 0.54908 0.85182 0.52796 0.0
O235 O 0.58387 0.82743 0.52029 0.0
O236 O 0.53892 0.91336 0.53523 0.0
O237 O 0.57312 0.91623 0.51861 0.0
O238 O 0.39145 0.36395 0.80408 0.0
Cd239 Cd 0.39626 0.36115 0.78002 0.0
Cd240 Cd 0.36314 0.31552 0.78553 0.0
O241 O 0.36141 0.33178 0.80792 0.0
O242 O 0.41586 0.39513 0.7751 0.0
O243 O 0.37493 0.3867 0.76618 0.0
C244 C 0.39511 0.40303 0.76727 0.0
C245 C 0.32426 0.29709 0.77438 0.0
C246 C 0.37577 0.351 0.81319 0.0
C247 C 0.41945 0.30648 0.77289 0.0
O248 O 0.39813 0.29646 0.77876 0.0
O249 O 0.42205 0.33186 0.77151 0.0
O250 O 0.33661 0.28542 0.78586 0.0
O251 O 0.3335 0.31999 0.76951 0.0
O252 O 0.88551 0.14177 0.05508 0.0
Cd253 Cd 0.8879 0.14672 0.03104 0.0
Cd254 Cd 0.93402 0.11428 0.03616 0.0
O255 O 0.91845 0.11254 0.05874 0.0
O256 O 0.85365 0.16589 0.02637 0.0
O257 O 0.86253 0.12515 0.01724 0.0
C258 C 0.84597 0.14513 0.01846 0.0
C259 C 0.95241 0.0755 0.02488 0.0
C260 C 0.89901 0.12646 0.06412 0.0
C261 C 0.94195 0.1707 0.02336 0.0
O262 O 0.95244 0.14942 0.02901 0.0
O263 O 0.91651 0.17307 0.02241 0.0
O264 O 0.96436 0.08804 0.03619 0.0
O265 O 0.92926 0.08448 0.02027 0.0
O266 O 0.10684 0.63258 0.30437 0.0
Cd267 Cd 0.10205 0.63554 0.28034 0.0
Cd268 Cd 0.13423 0.68187 0.28597 0.0
O269 O 0.1362 0.66531 0.30832 0.0
O270 O 0.0827 0.60148 0.27543 0.0
O271 O 0.12351 0.61026 0.26641 0.0
C272 C 0.10343 0.59381 0.2675 0.0
C273 C 0.17285 0.70109 0.2749 0.0
C274 C 0.12222 0.64575 0.31352 0.0
C275 C 0.07775 0.68975 0.2733 0.0
O276 O 0.09885 0.70024 0.27915 0.0
O277 O 0.0757 0.66432 0.27193 0.0
O278 O 0.16025 0.71245 0.2864 0.0
O279 O 0.16402 0.67808 0.26996 0.0
O280 O 0.61836 0.14437 0.93992 0.0
Cd281 Cd 0.61524 0.14868 0.96397 0.0
Cd282 Cd 0.56976 0.11566 0.9582 0.0
O283 O 0.58637 0.11425 0.93585 0.0
O284 O 0.6491 0.16814 0.96914 0.0
O285 O 0.64051 0.12701 0.97778 0.0
C286 C 0.65684 0.14723 0.97689 0.0
C287 C 0.55098 0.07672 0.96916 0.0
C288 C 0.60558 0.12876 0.93071 0.0
C289 C 0.5607 0.17189 0.97105 0.0
O290 O 0.55071 0.15062 0.96512 0.0
O291 O 0.58606 0.1745 0.97246 0.0
O292 O 0.53956 0.08923 0.95765 0.0
O293 O 0.57386 0.08578 0.97415 0.0
O294 O 0.10816 0.36559 0.18867 0.0
Cd295 Cd 0.10323 0.3631 0.21272 0.0
Cd296 Cd 0.13569 0.31703 0.20758 0.0
O297 O 0.13748 0.33272 0.18502 0.0
O298 O 0.08419 0.39739 0.21749 0.0
O299 O 0.12491 0.3883 0.22655 0.0
C300 C 0.10498 0.40494 0.2254 0.0
C301 C 0.17439 0.29856 0.21892 0.0
C302 C 0.12352 0.35215 0.17964 0.0
C303 C 0.07926 0.309 0.22032 0.0
O304 O 0.10055 0.29855 0.21467 0.0
O305 O 0.07687 0.33445 0.22131 0.0
O306 O 0.16194 0.28668 0.20756 0.0
O307 O 0.1654 0.32171 0.22354 0.0
O308 O 0.88394 0.85791 0.4391 0.0
Cd309 Cd 0.88725 0.85342 0.46315 0.0
Cd310 Cd 0.93109 0.88825 0.45752 0.0
O311 O 0.91424 0.88981 0.43527 0.0
O312 O 0.85359 0.8337 0.46856 0.0
O313 O 0.86199 0.875 0.47698 0.0
C314 C 0.84574 0.85469 0.47622 0.0
C315 C 0.94907 0.92733 0.46873 0.0
C316 C 0.89582 0.87445 0.43001 0.0
C317 C 0.94255 0.83205 0.46985 0.0
O318 O 0.95148 0.85379 0.4639 0.0
O319 O 0.91736 0.82844 0.47154 0.0
O320 O 0.96055 0.91549 0.45701 0.0
O321 O 0.92651 0.91756 0.47377 0.0
O322 O 0.39483 0.6327 0.69016 0.0
Cd323 Cd 0.39938 0.63512 0.71424 0.0
Cd324 Cd 0.36555 0.6804 0.70906 0.0
O325 O 0.36392 0.66414 0.68666 0.0
O326 O 0.41892 0.60112 0.71914 0.0
O327 O 0.37781 0.60943 0.72785 0.0
C328 C 0.39802 0.59312 0.72681 0.0
C329 C 0.32659 0.69929 0.71994 0.0
C330 C 0.37872 0.64542 0.6812 0.0
C331 C 0.42195 0.68985 0.72162 0.0
O332 O 0.40046 0.69964 0.71583 0.0
O333 O 0.42488 0.66448 0.72292 0.0
O334 O 0.3392 0.71067 0.70845 0.0
O335 O 0.3356 0.67643 0.72499 0.0
O336 O 0.38368 0.14267 0.4399 0.0
Cd337 Cd 0.3876 0.14748 0.4639 0.0
Cd338 Cd 0.4326 0.11433 0.45807 0.0
O339 O 0.41567 0.11256 0.43582 0.0
O340 O 0.35362 0.16625 0.46965 0.0
O341 O 0.36354 0.1253 0.47813 0.0
C342 C 0.34675 0.14517 0.47755 0.0
C343 C 0.45114 0.07546 0.46921 0.0
C344 C 0.3963 0.12689 0.43071 0.0
C345 C 0.44226 0.17074 0.47045 0.0
O346 O 0.452 0.14925 0.46465 0.0
O347 O 0.41694 0.17357 0.47195 0.0
O348 O 0.46254 0.08763 0.45756 0.0
O349 O 0.4284 0.08482 0.47423 0.0
O350 O 0.60838 0.6319 0.1883 0.0
Cd351 Cd 0.60102 0.6333 0.21212 0.0
Cd352 Cd 0.63403 0.6797 0.20843 0.0
O353 O 0.63668 0.66585 0.1855 0.0
O354 O 0.58493 0.59702 0.21548 0.0
O355 O 0.62262 0.61022 0.22711 0.0
C356 C 0.60507 0.59152 0.22449 0.0
C357 C 0.6723 0.69885 0.21998 0.0
C358 C 0.62362 0.64619 0.17967 0.0
C359 C 0.57619 0.68643 0.22014 0.0
O360 O 0.59833 0.69688 0.21572 0.0
O361 O 0.57304 0.66098 0.22008 0.0
O362 O 0.65921 0.71096 0.20895 0.0
O363 O 0.6641 0.67522 0.22423 0.0
O364 O 0.1174 0.85977 0.9393 0.0
Cd365 Cd 0.11446 0.85461 0.96331 0.0
Cd366 Cd 0.06865 0.88718 0.95809 0.0
O367 O 0.08454 0.88908 0.93559 0.0
O368 O 0.14868 0.83567 0.9684 0.0
O369 O 0.13919 0.87638 0.97738 0.0
C370 C 0.15591 0.85649 0.9764 0.0
C371 C 0.05024 0.9259 0.96945 0.0
C372 C 0.10404 0.8752 0.93025 0.0
C373 C 0.06026 0.83062 0.97055 0.0
O374 O 0.04995 0.85206 0.96501 0.0
O375 O 0.08568 0.82811 0.9716 0.0
O376 O 0.03841 0.91354 0.95802 0.0
O377 O 0.07329 0.91678 0.97413 0.0
O378 O 0.88673 0.36818 0.68832 0.0
Cd379 Cd 0.89403 0.36675 0.71214 0.0
Cd380 Cd 0.86226 0.31925 0.70799 0.0
O381 O 0.86018 0.33297 0.68499 0.0
O382 O 0.9104 0.403 0.71519 0.0
O383 O 0.87286 0.39026 0.72715 0.0
C384 C 0.89049 0.40879 0.72431 0.0
C385 C 0.8239 0.29991 0.71934 0.0
C386 C 0.87251 0.35332 0.67943 0.0
C387 C 0.91985 0.3139 0.72019 0.0
O388 O 0.89806 0.30284 0.7157 0.0
O389 O 0.92237 0.33941 0.72007 0.0
O390 O 0.83739 0.28772 0.70851 0.0
O391 O 0.83175 0.32371 0.72349 0.0
O392 O 0.38408 0.86427 0.056 0.0
Cd393 Cd 0.3861 0.85871 0.03199 0.0
Cd394 Cd 0.43367 0.8899 0.03706 0.0
O395 O 0.41838 0.8919 0.0597 0.0
O396 O 0.35158 0.83968 0.02776 0.0
O397 O 0.36066 0.87995 0.01803 0.0
C398 C 0.34398 0.86015 0.01956 0.0
C399 C 0.4533 0.92814 0.02578 0.0
C400 C 0.39831 0.87885 0.06506 0.0
C401 C 0.43956 0.83318 0.02428 0.0
O402 O 0.45078 0.85419 0.02978 0.0
O403 O 0.41405 0.83154 0.02348 0.0
O404 O 0.4649 0.91513 0.03704 0.0
O405 O 0.42983 0.91997 0.02122 0.0
O406 O 0.88909 0.63404 0.80532 0.0
Cd407 Cd 0.89638 0.63632 0.78152 0.0
Cd408 Cd 0.86368 0.68261 0.78593 0.0
O409 O 0.86097 0.66798 0.8087 0.0
O410 O 0.91275 0.60025 0.7779 0.0
O411 O 0.87496 0.61335 0.76636 0.0
C412 C 0.89263 0.59473 0.76889 0.0
C413 C 0.82539 0.70145 0.77425 0.0
C414 C 0.87398 0.64801 0.81421 0.0
C415 C 0.9214 0.68974 0.77424 0.0
O416 O 0.89939 0.70012 0.77892 0.0
O417 O 0.92434 0.66427 0.77384 0.0
O418 O 0.83811 0.71356 0.78542 0.0
O419 O 0.83396 0.67799 0.76994 0.0
O420 O 0.11667 0.13875 0.55608 0.0
Cd421 Cd 0.11573 0.14503 0.53211 0.0
Cd422 Cd 0.06787 0.1135 0.53618 0.0
O423 O 0.08214 0.11112 0.55903 0.0
O424 O 0.15036 0.1643 0.5286 0.0
O425 O 0.14188 0.12431 0.51834 0.0
C426 C 0.15841 0.14412 0.52033 0.0
C427 C 0.0485 0.0754 0.52462 0.0
C428 C 0.102 0.12397 0.5648 0.0
C429 C 0.06253 0.17053 0.52371 0.0
O430 O 0.05112 0.14931 0.52879 0.0
O431 O 0.08807 0.17235 0.52342 0.0
O432 O 0.03652 0.08843 0.53572 0.0
O433 O 0.07216 0.08349 0.52036 0.0
O434 O 0.61132 0.36657 0.30619 0.0
Cd435 Cd 0.6035 0.36433 0.28245 0.0
Cd436 Cd 0.63539 0.31708 0.2869 0.0
O437 O 0.6385 0.33189 0.30961 0.0
O438 O 0.58699 0.40043 0.27911 0.0
O439 O 0.62435 0.38744 0.26705 0.0
C440 C 0.60674 0.40602 0.26983 0.0
C441 C 0.67328 0.29729 0.27532 0.0
C442 C 0.6261 0.35226 0.31508 0.0
C443 C 0.57747 0.31119 0.27538 0.0
O444 O 0.5993 0.3003 0.27995 0.0
O445 O 0.57506 0.33671 0.27502 0.0
O446 O 0.66029 0.28559 0.28655 0.0
O447 O 0.66518 0.32086 0.27088 0.0
H448 H 0.9322 0.5468 0.99477 0.0
H449 H 0.06606 0.45627 -0.00146 0.0
H450 H 0.99757 0.55304 0.96136 0.0
H451 H 0.00016 0.44919 0.03153 0.0
H452 H 0.04151 0.4922 0.98492 0.0
H453 H 0.95667 0.51078 0.00834 0.0
C454 C 0.9516 0.54048 0.99023 0.0
C455 C 0.96284 0.55297 0.97692 0.0
C456 C 0.03246 0.48282 0.99517 0.0
C457 C 0.99108 0.51193 0.99246 0.0
C458 C 0.04652 0.46238 0.00298 0.0
C459 C 0.03516 0.44969 0.01619 0.0
C460 C 0.00685 0.49063 0.00061 0.0
C461 C 0.00972 0.45838 0.02139 0.0
C462 C 0.96562 0.51998 -0.00199 0.0
C463 C 0.98811 0.54401 0.97159 0.0
N464 N 0.99642 0.47825 0.01357 0.0
N465 N 0.00139 0.52411 0.97939 0.0
H466 H 0.70279 0.68062 0.24484 0.0
H467 H 0.79223 0.81518 0.24965 0.0
H468 H 0.69378 0.7482 0.21316 0.0
H469 H 0.80073 0.74802 0.28167 0.0
H470 H 0.7559 0.79103 0.23618 0.0
H471 H 0.73906 0.7048 0.25836 0.0
C472 C 0.70853 0.70046 0.24067 0.0
C473 C 0.69522 0.71239 0.22785 0.0
C474 C 0.76568 0.78161 0.24619 0.0
C475 C 0.73656 0.74026 0.24332 0.0
C476 C 0.78637 0.79544 0.2539 0.0
C477 C 0.79955 0.78362 0.2668 0.0
C478 C 0.75813 0.75576 0.25139 0.0
C479 C 0.79115 0.75794 0.27177 0.0
C480 C 0.72917 0.7143 0.24843 0.0
C481 C 0.70345 0.7382 0.223 0.0
N482 N 0.77104 0.74487 0.26405 0.0
N483 N 0.72353 0.75126 0.23075 0.0
H484 H 0.56636 0.45707 0.49472 0.0
H485 H 0.43183 0.54647 0.49945 0.0
H486 H 0.49937 0.4486 0.46263 0.0
H487 H 0.50004 0.55683 0.53046 0.0
H488 H 0.45595 0.51002 0.48605 0.0
H489 H 0.54232 0.49363 0.50805 0.0
C490 C 0.54668 0.46298 0.49043 0.0
C491 C 0.53488 0.44975 0.47754 0.0
C492 C 0.46561 0.52025 0.4958 0.0
C493 C 0.50714 0.49143 0.49279 0.0
C494 C 0.45181 0.54101 0.50349 0.0
C495 C 0.46392 0.55473 0.51609 0.0
C496 C 0.49171 0.51315 0.50077 0.0
C497 C 0.4899 0.54683 0.52079 0.0
C498 C 0.53291 0.48381 0.49806 0.0
C499 C 0.50926 0.45822 0.47252 0.0
N500 N 0.50291 0.52661 0.51313 0.0
N501 N 0.49625 0.47846 0.48017 0.0
H502 H 0.7923 0.31854 0.74361 0.0
H503 H 0.70537 0.18246 0.74957 0.0
H504 H 0.80337 0.25001 0.71291 0.0
H505 H 0.6941 0.25106 0.78018 0.0
H506 H 0.74153 0.20681 0.73605 0.0
H507 H 0.75595 0.2943 0.75704 0.0
C508 C 0.78701 0.29847 0.73964 0.0
C509 C 0.80091 0.2863 0.72712 0.0
C510 C 0.73117 0.21651 0.74575 0.0
C511 C 0.75947 0.25836 0.74249 0.0
C512 C 0.71057 0.20257 0.7535 0.0
C513 C 0.69668 0.21472 0.76603 0.0
C514 C 0.73792 0.24279 0.75056 0.0
C515 C 0.70424 0.24088 0.77058 0.0
C516 C 0.7663 0.2846 0.74734 0.0
C517 C 0.79322 0.2602 0.72251 0.0
N518 N 0.7243 0.25403 0.76284 0.0
N519 N 0.77309 0.24711 0.7302 0.0
H520 H 0.9324 0.45481 0.49985 0.0
H521 H 0.06517 0.54683 0.4953 0.0
H522 H 0.99889 0.44852 0.53247 0.0
H523 H 0.99741 0.55521 0.46375 0.0
H524 H 0.04132 0.5105 0.50898 0.0
H525 H 0.95574 0.49188 0.48654 0.0
C526 C 0.95181 0.46133 0.50428 0.0
C527 C 0.9637 0.44852 0.51728 0.0
C528 C 0.03168 0.52028 0.49905 0.0
C529 C 0.99064 0.49077 0.50205 0.0
C530 C 0.04534 0.54097 0.49121 0.0
C531 C 0.03329 0.55407 0.47836 0.0
C532 C 0.0058 0.51262 0.49399 0.0
C533 C 0.0075 0.54569 0.47361 0.0
C534 C 0.96517 0.48244 0.49665 0.0
C535 C 0.98894 0.45778 0.52248 0.0
N536 N 0.99463 0.52552 0.48142 0.0
N537 N 0.00158 0.47825 0.51483 0.0
H538 H 0.70585 0.81737 0.74343 0.0
H539 H 0.7951 0.68282 0.74943 0.0
H540 H 0.6962 0.74881 0.71259 0.0
H541 H 0.80364 0.75077 0.78083 0.0
H542 H 0.75877 0.70665 0.73575 0.0
H543 H 0.7422 0.79352 0.75708 0.0
C544 C 0.71146 0.79737 0.73948 0.0
C545 C 0.69795 0.78508 0.72685 0.0
C546 C 0.76856 0.71632 0.74566 0.0
C547 C 0.73941 0.75759 0.74247 0.0
C548 C 0.78925 0.70268 0.7535 0.0
C549 C 0.80244 0.7148 0.76629 0.0
C550 C 0.76102 0.74229 0.75064 0.0
C551 C 0.79406 0.74062 0.77102 0.0
C552 C 0.73216 0.78372 0.7473 0.0
C553 C 0.70603 0.75909 0.72227 0.0
N554 N 0.77395 0.7535 0.76319 0.0
N555 N 0.72617 0.74621 0.73008 0.0
H556 H 0.49967 0.44967 0.96036 0.0
H557 H 0.49871 0.55463 0.03201 0.0
H558 H 0.43435 0.45637 0.99377 0.0
H559 H 0.56379 0.54831 -0.00157 0.0
H560 H 0.47506 0.51849 0.01829 0.0
H561 H 0.52322 0.48597 0.97401 0.0
C562 C 0.49018 0.45888 0.97053 0.0
C563 C 0.46496 0.44994 0.97594 0.0
C564 C 0.49453 0.52494 0.01392 0.0
C565 C 0.49202 0.49147 0.99171 0.0
C566 C 0.50812 0.54555 0.02178 0.0
C567 C 0.5333 0.55454 0.01636 0.0
C568 C 0.50615 0.51316 0.0005 0.0
C569 C 0.54445 0.54201 0.00304 0.0
C570 C 0.50371 0.47958 0.97834 0.0
C571 C 0.45372 0.46263 0.98918 0.0
N572 N 0.53077 0.52199 0.99554 0.0
N573 N 0.46736 0.48271 0.99663 0.0
H574 H 0.80108 0.24966 0.21162 0.0
H575 H 0.69483 0.24818 0.28264 0.0
H576 H 0.79348 0.18385 0.24467 0.0
H577 H 0.70323 0.31444 0.24998 0.0
H578 H 0.73076 0.2243 0.26885 0.0
H579 H 0.76478 0.27326 0.22523 0.0
C580 C 0.79167 0.24008 0.2217 0.0
C581 C 0.80037 0.21471 0.22702 0.0
C582 C 0.72481 0.24408 0.2647 0.0
C583 C 0.7588 0.24181 0.24274 0.0
C584 C 0.70431 0.25779 0.2726 0.0
C585 C 0.69599 0.28339 0.26746 0.0
C586 C 0.73713 0.25599 0.25153 0.0
C587 C 0.70902 0.29478 0.25437 0.0
C588 C 0.77096 0.25364 0.22949 0.0
C589 C 0.78741 0.20334 0.24014 0.0
N590 N 0.72891 0.28097 0.24683 0.0
N591 N 0.76732 0.21701 0.24758 0.0
H592 H 0.29538 0.31426 0.74865 0.0
H593 H 0.20202 0.18223 0.74599 0.0
H594 H 0.30072 0.2492 0.78235 0.0
H595 H 0.19728 0.24697 0.71204 0.0
H596 H 0.23846 0.2063 0.75941 0.0
H597 H 0.25902 0.29011 0.73521 0.0
C598 C 0.2888 0.29499 0.75328 0.0
C599 C 0.30112 0.28375 0.76664 0.0
C600 C 0.22949 0.21519 0.74899 0.0
C601 C 0.25968 0.25589 0.75127 0.0
C602 C 0.20875 0.2014 0.7413 0.0
C603 C 0.19658 0.21259 0.72788 0.0
C604 C 0.23809 0.24037 0.74323 0.0
C605 C 0.20606 0.23756 0.72235 0.0
C606 C 0.26811 0.28116 0.74558 0.0
C607 C 0.29182 0.25866 0.77209 0.0
N608 N 0.22619 0.25061 0.73007 0.0
N609 N 0.27172 0.24557 0.76437 0.0
H610 H 0.19601 0.74897 0.28326 0.0
H611 H 0.29932 0.75055 0.21076 0.0
H612 H 0.2018 0.68494 0.24896 0.0
H613 H 0.29432 0.81412 0.2454 0.0
H614 H 0.26327 0.72658 0.2244 0.0
H615 H 0.23204 0.773 0.26963 0.0
C616 C 0.20495 0.73987 0.2729 0.0
C617 C 0.19584 0.71487 0.26724 0.0
C618 C 0.26998 0.7458 0.22901 0.0
C619 C 0.23707 0.74247 0.25148 0.0
C620 C 0.29054 0.75957 0.2212 0.0
C621 C 0.29989 0.78442 0.22695 0.0
C622 C 0.25863 0.75688 0.24272 0.0
C623 C 0.28773 0.79505 0.24054 0.0
C624 C 0.2255 0.75367 0.26509 0.0
C625 C 0.2082 0.70412 0.25375 0.0
N626 N 0.26778 0.78119 0.24798 0.0
N627 N 0.22813 0.71802 0.24631 0.0
H628 H 0.29422 0.18256 0.2492 0.0
H629 H 0.20326 0.31609 0.24457 0.0
H630 H 0.29938 0.24808 0.28256 0.0
H631 H 0.19743 0.25019 0.2115 0.0
H632 H 0.23904 0.29178 0.25844 0.0
H633 H 0.25859 0.20696 0.23523 0.0
C634 C 0.28774 0.20198 0.25365 0.0
C635 C 0.2998 0.21328 0.26707 0.0
C636 C 0.22998 0.28268 0.24812 0.0
C637 C 0.25922 0.24143 0.25109 0.0
C638 C 0.20962 0.29661 0.24016 0.0
C639 C 0.19731 0.28516 0.22686 0.0
C640 C 0.23808 0.25711 0.24274 0.0
C641 C 0.20632 0.2598 0.22171 0.0
C642 C 0.26747 0.21596 0.24564 0.0
C643 C 0.29067 0.23857 0.27226 0.0
N644 N 0.22609 0.24662 0.22967 0.0
N645 N 0.271 0.2518 0.26425 0.0
H646 H 0.19909 0.74849 0.78345 0.0
H647 H 0.30337 0.74706 0.71144 0.0
H648 H 0.20572 0.81282 0.74936 0.0
H649 H 0.29735 0.68303 0.74577 0.0
H650 H 0.26719 0.77103 0.72493 0.0
H651 H 0.23498 0.72427 0.76983 0.0
C652 C 0.20818 0.75761 0.77313 0.0
C653 C 0.19936 0.78277 0.76754 0.0
C654 C 0.2737 0.75171 0.72951 0.0
C655 C 0.24044 0.75496 0.7518 0.0
C656 C 0.29433 0.73794 0.72178 0.0
C657 C 0.30344 0.71297 0.72749 0.0
C658 C 0.26203 0.74051 0.74309 0.0
C659 C 0.29096 0.7022 0.74094 0.0
C660 C 0.22866 0.7437 0.76534 0.0
C661 C 0.2119 0.79353 0.75411 0.0
N662 N 0.27093 0.71607 0.74831 0.0
N663 N 0.23176 0.77953 0.74668 0.0
H664 H 0.56709 0.95431 0.49771 0.0
H665 H 0.43458 0.04695 0.49523 0.0
H666 H 0.50275 0.94934 0.53187 0.0
H667 H 0.49885 0.05182 0.46103 0.0
H668 H 0.4591 0.01089 0.50875 0.0
H669 H 0.54263 0.99047 0.48425 0.0
C670 C 0.54793 0.96094 0.50244 0.0
C671 C 0.53696 0.94877 0.51593 0.0
C672 C 0.4678 0.01981 0.49825 0.0
C673 C 0.50873 0.98996 0.50052 0.0
C674 C 0.45374 0.04032 0.4905 0.0
C675 C 0.46466 0.05242 0.47698 0.0
C676 C 0.49297 0.01135 0.49245 0.0
C677 C 0.48964 0.04308 0.47142 0.0
C678 C 0.53391 0.98151 0.49472 0.0
C679 C 0.51199 0.95812 0.5215 0.0
N680 N 0.50295 0.02317 0.47918 0.0
N681 N 0.49871 0.97808 0.51376 0.0
H682 H 0.06786 0.95489 0.99503 0.0
H683 H 0.93464 0.04628 -0.00058 0.0
H684 H 0.00189 0.94895 0.96202 0.0
H685 H 0.0008 0.05252 0.03227 0.0
H686 H 0.95874 0.01017 0.98571 0.0
H687 H 0.04371 0.99093 0.00877 0.0
C688 C 0.04839 0.96127 0.99061 0.0
C689 C 0.03689 0.94888 0.97736 0.0
C690 C 0.96794 0.0194 0.99595 0.0
C691 C 0.00904 0.98994 0.99309 0.0
C692 C 0.95414 0.03995 0.00381 0.0
C693 C 0.96571 0.05245 0.01701 0.0
C694 C 0.99351 0.01131 0.00132 0.0
C695 C 0.99109 0.04348 0.02215 0.0
C696 C 0.03456 0.98178 -0.00151 0.0
C697 C 0.01155 0.95791 0.97219 0.0
N698 N 0.00414 0.02352 0.01428 0.0
N699 N 0.99847 0.97782 0.98008 0.0
H700 H 0.50295 0.05368 0.96103 0.0
H701 H 0.50212 0.95001 0.03339 0.0
H702 H 0.56747 0.04761 0.99499 0.0
H703 H 0.4367 0.95764 0.00014 0.0
H704 H 0.52641 0.98551 0.01943 0.0
H705 H 0.47891 0.01789 0.97486 0.0
C706 C 0.51217 0.04471 0.97135 0.0
C707 C 0.5373 0.0537 0.97687 0.0
C708 C 0.50672 0.9795 0.0152 0.0
C709 C 0.50967 0.01274 0.99286 0.0
C710 C 0.49277 0.95925 0.02319 0.0
C711 C 0.4673 0.95082 0.01793 0.0
C712 C 0.49518 0.99143 0.00179 0.0
C713 C 0.45625 0.96353 0.00463 0.0
C714 C 0.49835 0.0243 0.97928 0.0
C715 C 0.54818 0.04131 0.99031 0.0
N716 N 0.47029 0.98315 0.997 0.0
N717 N 0.53427 0.02151 -0.00213 0.0
H718 H 0.066 0.0459 0.49921 0.0
H719 H 0.93192 0.95581 0.49464 0.0
H720 H 0.99936 0.05363 0.53163 0.0
H721 H 0.99696 0.95097 0.46093 0.0
H722 H 0.9563 0.99165 0.50843 0.0
H723 H 0.04135 0.01038 0.48532 0.0
C724 C 0.04627 0.04002 0.50347 0.0
C725 C 0.03474 0.05276 0.5166 0.0
C726 C 0.96518 0.9828 0.49798 0.0
C727 C 0.00631 0.01227 0.50071 0.0
C728 C 0.95121 0.96241 0.49007 0.0
C729 C 0.9624 0.95036 0.47662 0.0
C730 C 0.99054 0.99115 0.49241 0.0
C731 C 0.98753 0.95966 0.47126 0.0
C732 C 0.03214 0.01981 0.4955 0.0
C733 C 0.00905 0.04438 0.52156 0.0
N734 N 0.00077 0.97941 0.4792 0.0
N735 N 0.99571 0.02471 0.5136 0.0
H736 H 0.99693 0.1711 0.02069 0.0
H737 H 0.00532 0.33099 0.01942 0.0
H738 H 0.92717 0.22261 0.01631 0.0
H739 H 0.07518 0.27936 0.01636 0.0
H740 H 0.97642 0.29165 0.01596 0.0
H741 H 0.02593 0.21028 0.01681 0.0
C742 C 0.98769 0.19061 0.01875 0.0
C743 C 0.95956 0.19361 0.01903 0.0
C744 C 0.99808 0.28894 0.01585 0.0
C745 C 0.9927 0.23863 0.0147 0.0
C746 C 0.01461 0.31141 0.01785 0.0
C747 C 0.04273 0.30844 0.01839 0.0
C748 C 0.0097 0.26322 0.01455 0.0
C749 C 0.05361 0.2826 0.01613 0.0
C750 C 0.00428 0.21298 0.0165 0.0
C751 C 0.94874 0.21935 0.01629 0.0
N752 N 0.03706 0.26094 0.01452 0.0
N753 N 0.96534 0.24092 0.01445 0.0
H754 H 0.02641 0.67451 0.26531 0.0
H755 H 0.96963 0.82544 0.26688 0.0
H756 H 0.07628 0.74492 0.27208 0.0
H757 H 0.91954 0.75452 0.27062 0.0
H758 H 0.00897 0.79639 0.26332 0.0
H759 H 0.98734 0.70389 0.26179 0.0
C760 C 0.02924 0.69614 0.26586 0.0
C761 C 0.05462 0.70725 0.2692 0.0
C762 C 0.98932 0.78722 0.26477 0.0
C763 C 0.00995 0.74095 0.26521 0.0
C764 C 0.96682 0.80379 0.26675 0.0
C765 C 0.94128 0.7924 0.26926 0.0
C766 C 0.98623 0.75909 0.26523 0.0
C767 C 0.93888 0.76419 0.26892 0.0
C768 C 0.00689 0.71289 0.26389 0.0
C769 C 0.05704 0.73545 0.26971 0.0
N770 N 0.9611 0.74851 0.26707 0.0
N771 N 0.03496 0.75132 0.26786 0.0
H772 H 0.41956 0.72625 0.51951 0.0
H773 H 0.57145 0.7791 0.51248 0.0
H774 H 0.4893 0.67427 0.51774 0.0
H775 H 0.50337 0.83074 0.52219 0.0
H776 H 0.54059 0.74113 0.50924 0.0
H777 H 0.44904 0.76521 0.51542 0.0
C778 C 0.441 0.72297 0.51806 0.0
C779 C 0.45201 0.69698 0.51919 0.0
C780 C 0.53239 0.76084 0.51193 0.0
C781 C 0.48581 0.74143 0.51455 0.0
C782 C 0.55001 0.78256 0.51374 0.0
C783 C 0.54005 0.80809 0.51784 0.0
C784 C 0.50461 0.76466 0.51422 0.0
C785 C 0.51201 0.81135 0.51923 0.0
C786 C 0.45782 0.74523 0.51577 0.0
C787 C 0.47994 0.69396 0.51716 0.0
N788 N 0.49531 0.78984 0.51756 0.0
N789 N 0.49588 0.71592 0.51507 0.0
H790 H 0.52585 0.16914 0.76919 0.0
H791 H 0.47069 0.32048 0.76389 0.0
H792 H 0.57675 0.23975 0.76855 0.0
H793 H 0.42009 0.25124 0.77271 0.0
H794 H 0.50918 0.29033 0.76048 0.0
H795 H 0.4865 0.19819 0.76543 0.0
C796 C 0.52881 0.19069 0.76806 0.0
C797 C 0.55461 0.20205 0.76941 0.0
C798 C 0.48959 0.28174 0.76302 0.0
C799 C 0.5097 0.23536 0.76515 0.0
C800 C 0.46758 0.29894 0.76492 0.0
C801 C 0.44217 0.28842 0.76882 0.0
C802 C 0.4862 0.25381 0.76498 0.0
C803 C 0.43936 0.26029 0.76991 0.0
C804 C 0.50633 0.20726 0.76596 0.0
C805 C 0.55722 0.23012 0.7678 0.0
N806 N 0.46115 0.24399 0.76814 0.0
N807 N 0.53504 0.24581 0.76587 0.0
H808 H 0.99764 0.83397 0.46945 0.0
H809 H 0.08033 0.72236 0.47868 0.0
H810 H 0.93121 0.78001 0.47872 0.0
H811 H 0.0077 0.67696 0.46966 0.0
H812 H 0.05307 0.76275 0.48248 0.0
H813 H 0.02874 0.79653 0.47244 0.0
C814 C 0.98961 0.8143 0.47242 0.0
C815 C 0.96171 0.81013 0.47372 0.0
C816 C 0.04305 0.74407 0.4795 0.0
C817 C 0.99744 0.76692 0.47748 0.0
C818 C 0.05865 0.72088 0.47749 0.0
C819 C 0.04636 0.69629 0.47355 0.0
C820 C 0.01496 0.74272 0.47739 0.0
C821 C 0.01813 0.69552 0.47245 0.0
C822 C 0.0075 0.79285 0.47428 0.0
C823 C 0.95254 0.78417 0.47756 0.0
N824 N 0.00345 0.71841 0.47424 0.0
N825 N 0.97034 0.7635 0.47909 0.0
H826 H 0.52676 0.82838 0.72431 0.0
H827 H 0.47353 0.67643 0.73025 0.0
H828 H 0.57849 0.75837 0.72457 0.0
H829 H 0.42189 0.74508 0.72197 0.0
H830 H 0.51174 0.70703 0.73334 0.0
H831 H 0.48787 0.79891 0.72852 0.0
C832 C 0.53 0.80687 0.72545 0.0
C833 C 0.5559 0.79581 0.72386 0.0
C834 C 0.49199 0.7154 0.731 0.0
C835 C 0.5115 0.762 0.72865 0.0
C836 C 0.47013 0.69794 0.72928 0.0
C837 C 0.4445 0.70815 0.72562 0.0
C838 C 0.48822 0.74328 0.72907 0.0
C839 C 0.44133 0.73625 0.72459 0.0
C840 C 0.50778 0.79005 0.72781 0.0
C841 C 0.55887 0.76778 0.72551 0.0
N842 N 0.46297 0.75281 0.72616 0.0
N843 N 0.53693 0.75185 0.72768 0.0
H844 H 0.50562 0.17169 0.97294 0.0
H845 H 0.49543 0.33142 0.97369 0.0
H846 H 0.57463 0.22392 0.97834 0.0
H847 H 0.42604 0.27911 0.97654 0.0
H848 H 0.52465 0.29241 0.97752 0.0
H849 H 0.47606 0.21056 0.97638 0.0
C850 C 0.51458 0.19129 0.97502 0.0
C851 C 0.54268 0.19459 0.97515 0.0
C852 C 0.50303 0.28949 0.9775 0.0
C853 C 0.5089 0.23926 0.97896 0.0
C854 C 0.48631 0.31177 0.97529 0.0
C855 C 0.45823 0.3085 0.97459 0.0
C856 C 0.49164 0.26367 0.97885 0.0
C857 C 0.44757 0.28257 0.97689 0.0
C858 C 0.49766 0.21349 0.977 0.0
C859 C 0.5531 0.22044 0.97804 0.0
N860 N 0.4643 0.2611 0.9787 0.0
N861 N 0.53621 0.24183 0.97962 0.0
H862 H 0.079 0.25401 0.22306 0.0
H863 H 0.91922 0.24506 0.22433 0.0
H864 H 0.02732 0.32367 0.2273 0.0
H865 H 0.97109 0.17539 0.22762 0.0
H866 H 0.95844 0.27415 0.22772 0.0
H867 H 0.03994 0.2249 0.22699 0.0
C868 C 0.05948 0.26321 0.22498 0.0
C869 C 0.05639 0.29134 0.22464 0.0
C870 C 0.96122 0.2525 0.2279 0.0
C871 C 0.01149 0.25807 0.22903 0.0
C872 C 0.93882 0.23585 0.22594 0.0
C873 C 0.9419 0.20772 0.22548 0.0
C874 C 0.98697 0.24098 0.22924 0.0
C875 C 0.96777 0.19696 0.22779 0.0
C876 C 0.03717 0.24655 0.22725 0.0
C877 C 0.03063 0.3021 0.22735 0.0
N878 N 0.98935 0.21361 0.22935 0.0
N879 N 0.00912 0.28544 0.22922 0.0
H880 H 0.9949 0.67097 0.97282 0.0
H881 H 0.00533 0.8307 0.97346 0.0
H882 H 0.92588 0.72327 0.97792 0.0
H883 H 0.07459 0.77832 0.97687 0.0
H884 H 0.97597 0.79173 0.97706 0.0
H885 H 0.02446 0.70983 0.97627 0.0
C886 C 0.98594 0.69059 0.97483 0.0
C887 C 0.95784 0.69391 0.97489 0.0
C888 C 0.99759 0.78878 0.97721 0.0
C889 C 0.99163 0.73856 0.97871 0.0
C890 C 0.01439 0.81104 0.97513 0.0
C891 C 0.04248 0.80774 0.97467 0.0
C892 C 0.00891 0.76295 0.97867 0.0
C893 C 0.05305 0.7818 0.97704 0.0
C894 C 0.00286 0.71278 0.97683 0.0
C895 C 0.94741 0.71978 0.97769 0.0
N896 N 0.03625 0.76035 0.97873 0.0
N897 N 0.96431 0.74117 0.97928 0.0
H898 H 0.91951 0.25971 0.72608 0.0
H899 H 0.07915 0.24693 0.72223 0.0
H900 H 0.97288 0.32838 0.72402 0.0
H901 H 0.02588 0.17919 0.72947 0.0
H902 H 0.04094 0.27739 0.72544 0.0
H903 H 0.95836 0.23038 0.72993 0.0
C904 C 0.9394 0.26868 0.72658 0.0
C905 C 0.94296 0.29654 0.72452 0.0
C906 C 0.03764 0.25589 0.72651 0.0
C907 C 0.98764 0.26294 0.72881 0.0
C908 C 0.05947 0.23844 0.72466 0.0
C909 C 0.05568 0.2104 0.72537 0.0
C910 C 0.01176 0.24525 0.72896 0.0
C911 C 0.02974 0.20063 0.7287 0.0
C912 C 0.9616 0.25189 0.72881 0.0
C913 C 0.96919 0.30701 0.72546 0.0
N914 N 0.00872 0.21802 0.73018 0.0
N915 N 0.99056 0.29016 0.72734 0.0
H916 H 0.57674 0.28296 0.48331 0.0
H917 H 0.49733 0.17007 0.47159 0.0
H918 H 0.50564 0.32669 0.46888 0.0
H919 H 0.42905 0.22284 0.47817 0.0
H920 H 0.52733 0.20832 0.4751 0.0
H921 H 0.54925 0.24267 0.48687 0.0
C922 C 0.55533 0.28412 0.48092 0.0
C923 C 0.5436 0.30816 0.47549 0.0
C924 C 0.50586 0.21155 0.47624 0.0
C925 C 0.51207 0.2618 0.47906 0.0
C926 C 0.48864 0.18965 0.47406 0.0
C927 C 0.46059 0.19324 0.47449 0.0
C928 C 0.49498 0.23732 0.47885 0.0
C929 C 0.45053 0.21912 0.47772 0.0
C930 C 0.53966 0.26097 0.48278 0.0
C931 C 0.51566 0.30853 0.47285 0.0
N932 N 0.46772 0.24023 0.47955 0.0
N933 N 0.5009 0.28564 0.47455 0.0
H934 H 0.46549 0.8214 0.23534 0.0
H935 H 0.57772 0.74085 0.22491 0.0
H936 H 0.42187 0.75345 0.21633 0.0
H937 H 0.52293 0.67323 0.22471 0.0
H938 H 0.53984 0.7711 0.22853 0.0
H939 H 0.50462 0.79245 0.23917 0.0
C940 C 0.46414 0.80038 0.23196 0.0
C941 C 0.44049 0.79 0.22521 0.0
C942 C 0.53597 0.74965 0.22818 0.0
C943 C 0.48564 0.75682 0.22904 0.0
C944 C 0.55771 0.73229 0.22592 0.0
C945 C 0.55353 0.70442 0.22439 0.0
C946 C 0.50971 0.73913 0.2289 0.0
C947 C 0.52712 0.69457 0.22581 0.0
C948 C 0.48665 0.78386 0.23399 0.0
C949 C 0.43977 0.76246 0.22137 0.0
N950 N 0.50618 0.71195 0.22776 0.0
N951 N 0.46209 0.74691 0.22321 0.0
H952 H 0.92813 0.27885 0.51318 0.0
H953 H 0.07891 0.22248 0.51801 0.0
H954 H 0.99772 0.32874 0.52233 0.0
H955 H 0.00791 0.17216 0.51934 0.0
H956 H 0.0501 0.26188 0.51396 0.0
H957 H 0.95792 0.24008 0.50974 0.0
C958 C 0.94968 0.28176 0.51426 0.0
C959 C 0.9604 0.30703 0.51828 0.0
C960 C 0.04088 0.24216 0.51498 0.0
C961 C 0.99457 0.2627 0.51439 0.0
C962 C 0.05731 0.21964 0.51724 0.0
C963 C 0.04579 0.19401 0.51924 0.0
C964 C 0.01275 0.23901 0.51463 0.0
C965 C 0.01766 0.19157 0.51807 0.0
C966 C 0.96667 0.25958 0.51234 0.0
C967 C 0.98852 0.30958 0.51944 0.0
N968 N 0.00211 0.21381 0.51596 0.0
N969 N 0.00462 0.28763 0.51764 0.0
H970 H 0.41741 0.24567 0.27305 0.0
H971 H 0.57733 0.25657 0.271 0.0
H972 H 0.47005 0.17702 0.26744 0.0
H973 H 0.52466 0.32587 0.27086 0.0
H974 H 0.53827 0.2274 0.26744 0.0
H975 H 0.45613 0.27553 0.26998 0.0
C976 C 0.43707 0.23685 0.27102 0.0
C977 C 0.44051 0.20875 0.2707 0.0
C978 C 0.53524 0.249 0.26802 0.0
C979 C 0.48502 0.2429 0.26729 0.0
C980 C 0.55756 0.2657 0.27008 0.0
C981 C 0.55425 0.29373 0.27142 0.0
C982 C 0.50933 0.26032 0.26744 0.0
C983 C 0.52816 0.30438 0.26998 0.0
C984 C 0.45919 0.25395 0.26925 0.0
C985 C 0.46645 0.19853 0.26787 0.0
N986 N 0.50667 0.28764 0.26826 0.0
N987 N 0.48775 0.2156 0.26647 0.0
H988 H 0.42318 0.78163 0.01753 0.0
H989 H 0.57369 0.72407 0.01497 0.0
H990 H 0.49443 0.83124 0.02116 0.0
H991 H 0.50312 0.67441 0.0217 0.0
H992 H 0.54449 0.76333 0.01167 0.0
H993 H 0.45192 0.74217 0.01354 0.0
C994 C 0.44484 0.78431 0.01729 0.0
C995 C 0.45642 0.80974 0.0199 0.0
C996 C 0.53541 0.74378 0.01372 0.0
C997 C 0.48937 0.76467 0.01536 0.0
C998 C 0.55206 0.72133 0.01555 0.0
C999 C 0.54086 0.69594 0.01884 0.0
C1000 C 0.50736 0.74083 0.01512 0.0
C1001 C 0.51267 0.69363 0.01938 0.0
C1002 C 0.46122 0.76175 0.01506 0.0
C1003 C 0.48462 0.81198 0.01939 0.0
N1004 N 0.4969 0.71583 0.01767 0.0
N1005 N 0.50013 0.78971 0.0173 0.0
H1006 H 0.92046 0.7445 0.77087 0.0
H1007 H 0.03347 0.82424 0.76085 0.0
H1008 H 0.97434 0.67624 0.76881 0.0
H1009 H 0.07685 0.75443 0.77766 0.0
H1010 H 0.99375 0.79614 0.75699 0.0
H1011 H 0.95863 0.77451 0.76756 0.0
C1012 C 0.94032 0.73578 0.76943 0.0
C1013 C 0.94417 0.70777 0.77023 0.0
C1014 C 0.0118 0.78695 0.76169 0.0
C1015 C 0.98831 0.74221 0.76606 0.0
C1016 C 0.03465 0.80299 0.76374 0.0
C1017 C 0.05843 0.79182 0.76989 0.0
C1018 C 0.01262 0.75958 0.76601 0.0
C1019 C 0.05888 0.76404 0.77311 0.0
C1020 C 0.96222 0.75301 0.76735 0.0
C1021 C 0.9704 0.69769 0.76828 0.0
N1022 N 0.03625 0.74895 0.77126 0.0
N1023 N 0.99151 0.71493 0.76651 0.0
H1024 H 0.311 0.31403 0.97993 0.0
H1025 H 0.18372 0.40173 0.00621 0.0
H1026 H 0.31579 0.40031 0.98589 0.0
H1027 H 0.19044 0.31582 0.01333 0.0
H1028 H 0.23023 0.40229 0.99619 0.0
H1029 H 0.26498 0.31494 0.98985 0.0
C1030 C 0.30238 0.3332 0.98339 0.0
C1031 C 0.31727 0.35713 0.98211 0.0
C1032 C 0.22143 0.38337 -5e-05 0.0
C1033 C 0.2643 0.35836 0.99336 0.0
C1034 C 0.19488 0.383 0.00556 0.0
C1035 C 0.18322 0.35869 0.01061 0.0
C1036 C 0.23616 0.3592 -0.00077 0.0
C1037 C 0.19862 0.33504 0.00961 0.0
C1038 C 0.27608 0.3337 0.98908 0.0
C1039 C 0.30504 0.38138 0.98679 0.0
N1040 N 0.22421 0.33589 0.00401 0.0
N1041 N 0.27913 0.38142 0.99213 0.0
H1042 H 0.93578 0.06021 0.23081 0.0
H1043 H 0.84742 0.933 0.25658 0.0
H1044 H 0.84954 0.06533 0.23667 0.0
H1045 H 0.9332 0.93947 0.2641 0.0
H1046 H 0.84716 0.97958 0.24659 0.0
H1047 H 0.9346 0.01407 0.24058 0.0
C1048 C 0.91656 0.05164 0.23422 0.0
C1049 C 0.89272 0.06666 0.23296 0.0
C1050 C 0.86598 0.9707 0.25043 0.0
C1051 C 0.89119 0.01356 0.24403 0.0
C1052 C 0.86618 0.94412 0.25601 0.0
C1053 C 0.89037 0.93238 0.26118 0.0
C1054 C 0.89019 0.98537 0.24983 0.0
C1055 C 0.91407 0.94772 0.26029 0.0
C1056 C 0.91591 0.02527 0.23981 0.0
C1057 C 0.8684 0.05448 0.23756 0.0
N1058 N 0.91339 0.97333 0.25471 0.0
N1059 N 0.86821 0.02852 0.24282 0.0
H1060 H 0.1698 0.62018 0.50441 0.0
H1061 H 0.32802 0.62047 0.49072 0.0
H1062 H 0.20383 0.64949 0.46085 0.0
H1063 H 0.2938 0.65209 0.53366 0.0
H1064 H 0.28221 0.61668 0.47966 0.0
H1065 H 0.21563 0.61746 0.51557 0.0
C1066 C 0.18693 0.62571 0.49718 0.0
C1067 C 0.1832 0.63532 0.48179 0.0
C1068 C 0.28489 0.62419 0.49155 0.0
C1069 C 0.23512 0.63153 0.49419 0.0
C1070 C 0.31086 0.62629 0.49784 0.0
C1071 C 0.31454 0.63685 0.51302 0.0
C1072 C 0.26262 0.63185 0.50074 0.0
C1073 C 0.29173 0.64415 0.52183 0.0
C1074 C 0.21291 0.62422 0.50352 0.0
C1075 C 0.20595 0.64228 0.47285 0.0
N1076 N 0.26667 0.64137 0.5156 0.0
N1077 N 0.23102 0.6401 0.47914 0.0
H1078 H 0.63045 0.0785 0.73952 0.0
H1079 H 0.63135 0.92013 0.75285 0.0
H1080 H 0.60057 0.04394 0.78281 0.0
H1081 H 0.5999 0.95438 0.70986 0.0
H1082 H 0.63461 0.96593 0.76402 0.0
H1083 H 0.63378 0.03274 0.7283 0.0
C1084 C 0.62492 0.06127 0.74668 0.0
C1085 C 0.61498 0.06483 0.76201 0.0
C1086 C 0.62726 0.96326 0.75209 0.0
C1087 C 0.61947 0.01299 0.74954 0.0
C1088 C 0.62546 0.9373 0.74574 0.0
C1089 C 0.6151 0.93364 0.73052 0.0
C1090 C 0.6195 0.98553 0.74293 0.0
C1091 C 0.60769 0.95645 0.72173 0.0
C1092 C 0.62676 0.03533 0.7403 0.0
C1093 C 0.60803 0.04195 0.77086 0.0
N1094 N 0.61018 0.9815 0.72803 0.0
N1095 N 0.61055 0.01693 0.76453 0.0
H1096 H 0.68803 0.68967 0.01338 0.0
H1097 H 0.81557 0.60184 0.98749 0.0
H1098 H 0.68324 0.60348 0.00697 0.0
H1099 H 0.80988 0.68813 0.98179 0.0
H1100 H 0.76884 0.60128 -0.00284 0.0
H1101 H 0.73436 0.68877 0.00401 0.0
C1102 C 0.69671 0.67052 0.00992 0.0
C1103 C 0.68173 0.64661 0.01093 0.0
C1104 C 0.77793 0.62029 0.9938 0.0
C1105 C 0.73507 0.64539 0.00031 0.0
C1106 C 0.8046 0.62065 0.98841 0.0
C1107 C 0.8166 0.64507 0.98383 0.0
C1108 C 0.7634 0.64456 0.99478 0.0
C1109 C 0.80144 0.66883 0.98514 0.0
C1110 C 0.72321 0.67002 0.00456 0.0
C1111 C 0.69406 0.62239 0.00628 0.0
N1112 N 0.77571 0.66797 0.9905 0.0
N1113 N 0.72013 0.62235 0.00125 0.0
H1114 H 0.06309 0.93897 0.76511 0.0
H1115 H 0.14764 0.06801 0.73783 0.0
H1116 H 0.14901 0.93567 0.75742 0.0
H1117 H 0.06135 0.0608 0.73311 0.0
H1118 H 0.1493 0.02138 0.74765 0.0
H1119 H 0.06281 0.98536 0.75573 0.0
C1120 C 0.08193 0.94799 0.76138 0.0
C1121 C 0.10611 0.93339 0.76202 0.0
C1122 C 0.13005 0.0301 0.74448 0.0
C1123 C 0.10597 0.98681 0.75139 0.0
C1124 C 0.12906 0.05673 0.739 0.0
C1125 C 0.10432 0.06828 0.73464 0.0
C1126 C 0.10608 0.01516 0.74578 0.0
C1127 C 0.08088 0.05271 0.73627 0.0
C1128 C 0.08174 0.97452 0.75601 0.0
C1129 C 0.1299 0.94617 0.75703 0.0
N1130 N 0.08234 0.02703 0.74172 0.0
N1131 N 0.12927 0.97226 0.75199 0.0
H1132 H 0.81305 0.31266 0.51085 0.0
H1133 H 0.68489 0.40212 0.48803 0.0
H1134 H 0.81731 0.39936 0.50724 0.0
H1135 H 0.69049 0.31624 0.48051 0.0
H1136 H 0.73187 0.40213 0.49727 0.0
H1137 H 0.76672 0.31417 0.50155 0.0
C1138 C 0.80426 0.33206 0.50801 0.0
C1139 C 0.81907 0.35593 0.50981 0.0
C1140 C 0.72272 0.38334 0.4936 0.0
C1141 C 0.76571 0.35785 0.49928 0.0
C1142 C 0.6959 0.38328 0.48844 0.0
C1143 C 0.68379 0.35914 0.48349 0.0
C1144 C 0.73728 0.35903 0.49394 0.0
C1145 C 0.69901 0.33534 0.48416 0.0
C1146 C 0.77775 0.33291 0.50269 0.0
C1147 C 0.80661 0.38047 0.50592 0.0
N1148 N 0.72487 0.3359 0.48929 0.0
N1149 N 0.78052 0.38084 0.50093 0.0
H1150 H 0.43623 0.06004 0.26445 0.0
H1151 H 0.34835 0.93291 0.23779 0.0
H1152 H 0.35022 0.06513 0.25749 0.0
H1153 H 0.43472 0.93812 0.23264 0.0
H1154 H 0.34789 0.97963 0.24749 0.0
H1155 H 0.43536 0.01375 0.25494 0.0
C1156 C 0.41713 0.05145 0.26084 0.0
C1157 C 0.39326 0.06651 0.26173 0.0
C1158 C 0.36689 0.97045 0.24424 0.0
C1159 C 0.39207 0.01319 0.25097 0.0
C1160 C 0.3672 0.94377 0.23883 0.0
C1161 C 0.39161 0.93162 0.2344 0.0
C1162 C 0.39121 0.98485 0.24539 0.0
C1163 C 0.41542 0.94667 0.23587 0.0
C1164 C 0.41665 0.02497 0.2554 0.0
C1165 C 0.36911 0.05427 0.25689 0.0
N1166 N 0.41462 0.97241 0.24125 0.0
N1167 N 0.36909 0.02821 0.2518 0.0
H1168 H 0.81724 0.89872 0.48685 0.0
H1169 H 0.68905 0.81075 0.51175 0.0
H1170 H 0.81175 0.81244 0.48105 0.0
H1171 H 0.68498 0.89714 0.50616 0.0
H1172 H 0.73551 0.81159 0.50255 0.0
H1173 H 0.77043 0.89917 0.49634 0.0
C1174 C 0.8063 0.87988 0.48771 0.0
C1175 C 0.81839 0.8555 0.48315 0.0
C1176 C 0.72448 0.83039 0.50325 0.0
C1177 C 0.76503 0.8559 0.49389 0.0
C1178 C 0.69791 0.82993 0.5085 0.0
C1179 C 0.68308 0.85391 0.5097 0.0
C1180 C 0.73659 0.85506 0.49928 0.0
C1181 C 0.69566 0.87817 0.50532 0.0
C1182 C 0.77956 0.88018 0.493 0.0
C1183 C 0.80324 0.83171 0.48439 0.0
N1184 N 0.72179 0.87816 0.50039 0.0
N1185 N 0.77743 0.83252 0.48965 0.0
H1186 H 0.44035 0.55924 0.73151 0.0
H1187 H 0.35142 0.43169 0.75631 0.0
H1188 H 0.35403 0.56414 0.73707 0.0
H1189 H 0.4375 0.43698 0.76288 0.0
H1190 H 0.35134 0.47852 0.74677 0.0
H1191 H 0.43909 0.51283 0.74084 0.0
C1192 C 0.4211 0.55057 0.73478 0.0
C1193 C 0.39726 0.56561 0.73354 0.0
C1194 C 0.3702 0.46933 0.75029 0.0
C1195 C 0.39562 0.51218 0.7441 0.0
C1196 C 0.37029 0.4426 0.75562 0.0
C1197 C 0.3945 0.43044 0.7604 0.0
C1198 C 0.39454 0.48378 0.74958 0.0
C1199 C 0.41835 0.44554 0.75937 0.0
C1200 C 0.42039 0.52403 0.74011 0.0
C1201 C 0.3729 0.55329 0.73794 0.0
N1202 N 0.41776 0.47133 0.75405 0.0
N1203 N 0.37267 0.52717 0.74295 0.0
H1204 H 0.81789 0.10132 0.00714 0.0
H1205 H 0.69019 0.1897 0.98223 0.0
H1206 H 0.81158 0.18722 0.01441 0.0
H1207 H 0.68578 0.1032 0.98714 0.0
H1208 H 0.7363 0.18859 0.99196 0.0
H1209 H 0.77119 0.10099 -0.00258 0.0
C1210 C 0.80678 0.1201 0.00658 0.0
C1211 C 0.81861 0.14434 0.01159 0.0
C1212 C 0.72527 0.16982 0.991 0.0
C1213 C 0.76545 0.14408 0.00057 0.0
C1214 C 0.6989 0.17044 0.98544 0.0
C1215 C 0.6841 0.1465 0.9839 0.0
C1216 C 0.73719 0.14504 0.99491 0.0
C1217 C 0.69646 0.12214 0.98825 0.0
C1218 C 0.78013 0.11986 0.00115 0.0
C1219 C 0.80328 0.16805 0.01072 0.0
N1220 N 0.72242 0.12198 0.99347 0.0
N1221 N 0.77758 0.16732 0.0053 0.0
H1222 H 0.06097 0.56029 0.26256 0.0
H1223 H 0.14893 0.43292 0.23661 0.0
H1224 H 0.14726 0.56504 0.25683 0.0
H1225 H 0.06297 0.4393 0.22977 0.0
H1226 H 0.1494 0.47953 0.2465 0.0
H1227 H 0.06197 0.51421 0.25273 0.0
C1228 C 0.08016 0.55165 0.25916 0.0
C1229 C 0.10407 0.56654 0.26049 0.0
C1230 C 0.13049 0.47063 0.24283 0.0
C1231 C 0.1054 0.5135 0.24935 0.0
C1232 C 0.13017 0.44402 0.23731 0.0
C1233 C 0.10587 0.43224 0.23237 0.0
C1234 C 0.10629 0.48529 0.24358 0.0
C1235 C 0.08218 0.44757 0.2334 0.0
C1236 C 0.08071 0.52531 0.25353 0.0
C1237 C 0.12835 0.55429 0.25589 0.0
N1238 N 0.08299 0.47321 0.23892 0.0
N1239 N 0.12844 0.52835 0.25061 0.0
H1240 H 0.19293 0.18647 0.51788 0.0
H1241 H 0.31907 0.10045 0.48792 0.0
H1242 H 0.18698 0.10123 0.50822 0.0
H1243 H 0.31315 0.18701 0.484 0.0
H1244 H 0.27286 0.09933 0.49842 0.0
H1245 H 0.23917 0.18603 0.5083 0.0
C1246 C 0.20134 0.16762 0.51369 0.0
C1247 C 0.18603 0.14385 0.5138 0.0
C1248 C 0.28179 0.11852 0.49528 0.0
C1249 C 0.23925 0.14318 0.50293 0.0
C1250 C 0.30817 0.1192 0.48941 0.0
C1251 C 0.31991 0.14386 0.48506 0.0
C1252 C 0.26734 0.14271 0.49699 0.0
C1253 C 0.30486 0.16754 0.48713 0.0
C1254 C 0.22778 0.1674 0.50821 0.0
C1255 C 0.19805 0.12004 0.50824 0.0
N1256 N 0.27943 0.16637 0.49296 0.0
N1257 N 0.22406 0.12026 0.50308 0.0
H1258 H 0.59449 0.45309 0.28435 0.0
H1259 H 0.5924 0.54439 0.21012 0.0
H1260 H 0.62507 0.42105 0.24058 0.0
H1261 H 0.62487 0.57651 0.25338 0.0
H1262 H 0.59638 0.49871 0.22101 0.0
H1263 H 0.59763 0.49874 0.27336 0.0
C1264 C 0.60186 0.45572 0.27241 0.0
C1265 C 0.60946 0.4334 0.26329 0.0
C1266 C 0.60278 0.51579 0.22804 0.0
C1267 C 0.61258 0.48524 0.25067 0.0
C1268 C 0.60036 0.54177 0.22192 0.0
C1269 C 0.60824 0.56412 0.23094 0.0
C1270 C 0.61233 0.51227 0.24344 0.0
C1271 C 0.61863 0.55972 0.24609 0.0
C1272 C 0.60381 0.4817 0.26624 0.0
C1273 C 0.61907 0.43783 0.24796 0.0
N1274 N 0.61993 0.53424 0.25202 0.0
N1275 N 0.61991 0.4633 0.24199 0.0
H1276 H 0.1895 0.81431 0.98202 0.0
H1277 H 0.31606 0.90356 0.00757 0.0
H1278 H 0.18413 0.90075 0.98693 0.0
H1279 H 0.3095 0.81799 0.01604 0.0
H1280 H 0.26956 0.90353 -0.00249 0.0
H1281 H 0.23529 0.81583 0.99227 0.0
C1282 C 0.19794 0.83365 0.98533 0.0
C1283 C 0.18297 0.85745 0.98364 0.0
C1284 C 0.2784 0.88482 0.00159 0.0
C1285 C 0.23568 0.85937 0.99525 0.0
C1286 C 0.30493 0.88479 0.00721 0.0
C1287 C 0.31665 0.86074 0.01264 0.0
C1288 C 0.26374 0.86058 0.00122 0.0
C1289 C 0.30129 0.83702 0.01202 0.0
C1290 C 0.22412 0.8345 0.9912 0.0
C1291 C 0.19496 0.88192 0.98814 0.0
N1292 N 0.27572 0.83754 0.00638 0.0
N1293 N 0.22075 0.8823 0.99365 0.0
H1294 H 0.9027 0.45562 0.70947 0.0
H1295 H 0.90547 0.54768 0.78328 0.0
H1296 H 0.87209 0.42432 0.75342 0.0
H1297 H 0.87272 0.57963 0.74003 0.0
H1298 H 0.90132 0.50197 0.77251 0.0
H1299 H 0.89969 0.50147 0.7202 0.0
C1300 C 0.89534 0.45846 0.72138 0.0
C1301 C 0.88771 0.43629 0.73064 0.0
C1302 C 0.89491 0.51901 0.76546 0.0
C1303 C 0.88476 0.48832 0.74297 0.0
C1304 C 0.89744 0.54502 0.7715 0.0
C1305 C 0.8895 0.56734 0.76246 0.0
C1306 C 0.88521 0.51543 0.75009 0.0
C1307 C 0.87901 0.56287 0.74733 0.0
C1308 C 0.89347 0.48454 0.72742 0.0
C1309 C 0.87811 0.44097 0.74594 0.0
N1310 N 0.87759 0.53735 0.74147 0.0
N1311 N 0.87736 0.46653 0.75178 0.0
H1312 H 0.07745 0.40526 0.08659 0.0
H1313 H 0.15375 0.32827 0.15638 0.0
H1314 H 0.14107 0.34723 0.07908 0.0
H1315 H 0.09417 0.39042 0.16394 0.0
H1316 H 0.15137 0.33691 0.12804 0.0
H1317 H 0.08525 0.40218 0.11499 0.0
C1318 C 0.09319 0.39203 0.09089 0.0
C1319 C 0.10846 0.37632 0.08042 0.0
C1320 C 0.13896 0.34879 0.13592 0.0
C1321 C 0.11739 0.37257 0.11293 0.0
C1322 C 0.1403 0.34385 0.15211 0.0
C1323 C 0.12398 0.35847 0.16257 0.0
C1324 C 0.12105 0.36839 0.13012 0.0
C1325 C 0.10703 0.37851 0.15634 0.0
C1326 C 0.09764 0.39027 0.10711 0.0
C1327 C 0.12867 0.35961 0.08669 0.0
N1328 N 0.10587 0.38273 0.14053 0.0
N1329 N 0.13239 0.35803 0.10253 0.0
H1330 H 0.91699 0.90646 0.40666 0.0
H1331 H 0.84402 0.82538 0.33727 0.0
H1332 H 0.85924 0.8427 0.41454 0.0
H1333 H 0.89903 0.89157 0.3295 0.0
H1334 H 0.84665 0.83368 0.36563 0.0
H1335 H 0.90804 0.90359 0.37838 0.0
C1336 C 0.90229 0.89199 0.40248 0.0
C1337 C 0.88904 0.87463 0.413 0.0
C1338 C 0.85798 0.84651 0.35771 0.0
C1339 C 0.87879 0.87114 0.38062 0.0
C1340 C 0.85648 0.84178 0.3415 0.0
C1341 C 0.87152 0.85762 0.33097 0.0
C1342 C 0.87473 0.86715 0.36345 0.0
C1343 C 0.88722 0.87869 0.33716 0.0
C1344 C 0.89718 0.89036 0.38631 0.0
C1345 C 0.87008 0.85638 0.40688 0.0
N1346 N 0.88857 0.88269 0.35298 0.0
N1347 N 0.86569 0.85498 0.39109 0.0
H1348 H 0.34601 0.66694 0.65836 0.0
H1349 H 0.42635 0.59802 0.58731 0.0
H1350 H 0.41071 0.60984 0.66508 0.0
H1351 H 0.35702 0.64956 0.58101 0.0
H1352 H 0.41945 0.59997 0.61585 0.0
H1353 H 0.34822 0.65882 0.62999 0.0
C1354 C 0.36056 0.65257 0.65389 0.0
C1355 C 0.37833 0.63922 0.66413 0.0
C1356 C 0.40564 0.61067 0.6082 0.0
C1357 C 0.38108 0.62993 0.63162 0.0
C1358 C 0.40956 0.60956 0.5919 0.0
C1359 C 0.39239 0.62383 0.58173 0.0
C1360 C 0.38448 0.62628 0.61438 0.0
C1361 C 0.3709 0.63837 0.58837 0.0
C1362 C 0.36181 0.64792 0.63768 0.0
C1363 C 0.39669 0.62071 0.65765 0.0
N1364 N 0.3677 0.63938 0.60426 0.0
N1365 N 0.39773 0.61677 0.64181 0.0
H1366 H 0.60323 0.10495 0.82988 0.0
H1367 H 0.64284 0.15997 0.91537 0.0
H1368 H 0.65242 0.17561 0.8375 0.0
H1369 H 0.58386 0.09745 0.90723 0.0
H1370 H 0.65143 0.16199 0.88707 0.0
H1371 H 0.60106 0.09802 0.85829 0.0
C1372 C 0.61378 0.11893 0.83751 0.0
C1373 C 0.62783 0.14109 0.83126 0.0
C1374 C 0.63672 0.14773 0.89148 0.0
C1375 C 0.6253 0.13322 0.8639 0.0
C1376 C 0.63181 0.1465 0.90766 0.0
C1377 C 0.6124 0.12865 0.91371 0.0
C1378 C 0.6222 0.13094 0.88124 0.0
C1379 C 0.59886 0.11165 0.90311 0.0
C1380 C 0.61246 0.11495 0.85376 0.0
C1381 C 0.64121 0.15836 0.84178 0.0
N1382 N 0.60393 0.11331 0.88739 0.0
N1383 N 0.63947 0.15416 0.85759 0.0
H1384 H 0.15381 0.66772 0.33678 0.0
H1385 H 0.07345 0.59532 0.40654 0.0
H1386 H 0.09144 0.60843 0.32907 0.0
H1387 H 0.14232 0.64709 0.41388 0.0
H1388 H 0.08122 0.59784 0.3781 0.0
H1389 H 0.15141 0.65861 0.36505 0.0
C1390 C 0.13974 0.65266 0.341 0.0
C1391 C 0.12265 0.639 0.33052 0.0
C1392 C 0.09477 0.60845 0.38595 0.0
C1393 C 0.11968 0.62856 0.36291 0.0
C1394 C 0.09034 0.607 0.4022 0.0
C1395 C 0.10709 0.62121 0.41263 0.0
C1396 C 0.11597 0.62436 0.38009 0.0
C1397 C 0.12874 0.63594 0.40631 0.0
C1398 C 0.13839 0.64744 0.35716 0.0
C1399 C 0.10492 0.61958 0.3367 0.0
N1400 N 0.13239 0.63732 0.39046 0.0
N1401 N 0.10373 0.61512 0.35249 0.0
H1402 H 0.65362 0.82314 0.65538 0.0
H1403 H 0.58314 0.90514 0.58547 0.0
H1404 H 0.60226 0.89236 0.6626 0.0
H1405 H 0.63988 0.8404 0.57785 0.0
H1406 H 0.59195 0.90234 0.61375 0.0
H1407 H 0.65103 0.8307 0.62691 0.0
C1408 C 0.64199 0.84005 0.65101 0.0
C1409 C 0.62795 0.85698 0.66141 0.0
C1410 C 0.60262 0.88887 0.60588 0.0
C1411 C 0.62477 0.86565 0.62885 0.0
C1412 C 0.59758 0.89045 0.58971 0.0
C1413 C 0.61062 0.87284 0.57925 0.0
C1414 C 0.62071 0.86942 0.61166 0.0
C1415 C 0.62924 0.85431 0.58546 0.0
C1416 C 0.64051 0.84435 0.63475 0.0
C1417 C 0.61328 0.87864 0.65505 0.0
N1418 N 0.63356 0.85295 0.60126 0.0
N1419 N 0.61191 0.88221 0.6392 0.0
H1420 H 0.34515 0.32792 0.83655 0.0
H1421 H 0.42281 0.40437 0.90599 0.0
H1422 H 0.40578 0.38897 0.8287 0.0
H1423 H 0.35901 0.34662 0.91375 0.0
H1424 H 0.41472 0.40132 0.87762 0.0
H1425 H 0.34777 0.33674 0.86485 0.0
C1426 C 0.35888 0.34331 0.84075 0.0
C1427 C 0.37543 0.35755 0.83022 0.0
C1428 C 0.40236 0.38946 0.88554 0.0
C1429 C 0.37863 0.36766 0.86263 0.0
C1430 C 0.40697 0.39121 0.90176 0.0
C1431 C 0.39173 0.37556 0.91228 0.0
C1432 C 0.38247 0.37185 0.8798 0.0
C1433 C 0.37139 0.35894 0.90609 0.0
C1434 C 0.36037 0.34834 0.85692 0.0
C1435 C 0.39274 0.37735 0.83636 0.0
N1436 N 0.3675 0.35738 0.89027 0.0
N1437 N 0.39403 0.38167 0.85216 0.0
H1438 H 0.84566 0.17238 0.15712 0.0
H1439 H 0.92312 0.09644 0.0874 0.0
H1440 H 0.90419 0.10923 0.16469 0.0
H1441 H 0.86062 0.15565 0.0798 0.0
H1442 H 0.91452 0.09885 0.11574 0.0
H1443 H 0.84882 0.16456 0.12874 0.0
C1444 C 0.85902 0.15674 0.15284 0.0
C1445 C 0.87484 0.1416 0.16333 0.0
C1446 C 0.90256 0.11117 0.10786 0.0
C1447 C 0.87868 0.13265 0.13082 0.0
C1448 C 0.90747 0.10981 0.09166 0.0
C1449 C 0.89274 0.12602 0.08119 0.0
C1450 C 0.88286 0.12897 0.11364 0.0
C1451 C 0.87261 0.14288 0.08741 0.0
C1452 C 0.86082 0.15228 0.13662 0.0
C1453 C 0.89172 0.12152 0.15708 0.0
N1454 N 0.86842 0.14405 0.10322 0.0
N1455 N 0.89334 0.11778 0.14124 0.0
H1456 H 0.89922 0.60673 0.82964 0.0
H1457 H 0.85676 0.6581 0.91543 0.0
H1458 H 0.84682 0.67488 0.83771 0.0
H1459 H 0.91742 0.59735 0.90697 0.0
H1460 H 0.84818 0.66038 0.88713 0.0
H1461 H 0.90117 0.59897 0.85798 0.0
C1462 C 0.88793 0.61998 0.83735 0.0
C1463 C 0.87304 0.6417 0.83126 0.0
C1464 C 0.86325 0.64643 0.89148 0.0
C1465 C 0.87531 0.63289 0.86382 0.0
C1466 C 0.86816 0.64507 0.90765 0.0
C1467 C 0.88806 0.62767 0.9136 0.0
C1468 C 0.87829 0.63026 0.88115 0.0
C1469 C 0.90205 0.6112 0.90292 0.0
C1470 C 0.88911 0.61552 0.85356 0.0
C1471 C 0.85869 0.65801 0.84187 0.0
N1472 N 0.89699 0.61302 0.88721 0.0
N1473 N 0.86034 0.65338 0.85765 0.0
H1474 H 0.0742 0.09634 0.58772 0.0
H1475 H 0.15369 0.16738 0.65839 0.0
H1476 H 0.14192 0.14988 0.58108 0.0
H1477 H 0.08911 0.11021 0.66536 0.0
H1478 H 0.15161 0.15882 0.63007 0.0
H1479 H 0.08126 0.09867 0.61622 0.0
C1480 C 0.09068 0.1084 0.59223 0.0
C1481 C 0.10733 0.12312 0.58197 0.0
C1482 C 0.13801 0.14801 0.6378 0.0
C1483 C 0.11543 0.12599 0.61459 0.0
C1484 C 0.13919 0.1529 0.65399 0.0
C1485 C 0.1214 0.13967 0.66428 0.0
C1486 C 0.11881 0.12987 0.63182 0.0
C1487 C 0.10313 0.121 0.65788 0.0
C1488 C 0.09469 0.10974 0.60851 0.0
C1489 C 0.12844 0.13833 0.58851 0.0
N1490 N 0.10217 0.11682 0.64206 0.0
N1491 N 0.13174 0.13952 0.60439 0.0
H1492 H 0.58094 0.40719 0.40754 0.0
H1493 H 0.65393 0.32575 0.33846 0.0
H1494 H 0.64116 0.34591 0.41578 0.0
H1495 H 0.60071 0.39334 0.33058 0.0
H1496 H 0.65167 0.33444 0.36683 0.0
H1497 H 0.5899 0.40407 0.37928 0.0
C1498 C 0.59617 0.39322 0.40344 0.0
C1499 C 0.61013 0.37663 0.41406 0.0
C1500 C 0.64068 0.3475 0.35886 0.0
C1501 C 0.62039 0.37282 0.38169 0.0
C1502 C 0.64197 0.34254 0.34266 0.0
C1503 C 0.62728 0.35865 0.33211 0.0
C1504 C 0.62445 0.3686 0.36455 0.0
C1505 C 0.61221 0.38022 0.33825 0.0
C1506 C 0.60131 0.39146 0.38729 0.0
C1507 C 0.62978 0.359 0.40804 0.0
N1508 N 0.61101 0.3844 0.35405 0.0
N1509 N 0.63414 0.35739 0.39225 0.0
H1510 H 0.42486 0.90609 0.08862 0.0
H1511 H 0.34319 0.83227 0.1575 0.0
H1512 H 0.35787 0.85224 0.08053 0.0
H1513 H 0.40646 0.89031 0.16589 0.0
H1514 H 0.34637 0.84162 0.12928 0.0
H1515 H 0.41656 0.90295 0.11699 0.0
C1516 C 0.40828 0.89379 0.09278 0.0
C1517 C 0.3922 0.87923 0.08216 0.0
C1518 C 0.35943 0.85245 0.13731 0.0
C1519 C 0.38269 0.87542 0.11462 0.0
C1520 C 0.35762 0.84711 0.15343 0.0
C1521 C 0.37473 0.86035 0.16409 0.0
C1522 C 0.37859 0.87105 0.13176 0.0
C1523 C 0.39295 0.8795 0.15812 0.0
C1524 C 0.40356 0.89199 0.10899 0.0
C1525 C 0.37093 0.86369 0.08825 0.0
N1526 N 0.39454 0.88411 0.14236 0.0
N1527 N 0.36694 0.86204 0.10406 0.0
H1528 H 0.89635 0.39533 0.6639 0.0
H1529 H 0.86004 0.3399 0.57801 0.0
H1530 H 0.84783 0.32436 0.65583 0.0
H1531 H 0.91805 0.40304 0.58684 0.0
H1532 H 0.85058 0.3377 0.60623 0.0
H1533 H 0.89939 0.4022 0.63553 0.0
C1534 C 0.88613 0.38127 0.65618 0.0
C1535 C 0.87202 0.35904 0.66229 0.0
C1536 C 0.86527 0.35212 0.60198 0.0
C1537 C 0.87557 0.36682 0.62968 0.0
C1538 C 0.87068 0.35345 0.58585 0.0
C1539 C 0.89006 0.37156 0.58003 0.0
C1540 C 0.87925 0.36908 0.61238 0.0
C1541 C 0.9031 0.38864 0.59079 0.0
C1542 C 0.88794 0.38521 0.63995 0.0
C1543 C 0.85905 0.34167 0.65165 0.0
N1544 N 0.89754 0.3869 0.60644 0.0
N1545 N 0.86129 0.34583 0.63585 0.0
H1546 H 0.40101 0.10606 0.32973 0.0
H1547 H 0.35724 0.1561 0.41559 0.0
H1548 H 0.34474 0.17099 0.33797 0.0
H1549 H 0.41912 0.0966 0.40713 0.0
H1550 H 0.34826 0.15781 0.38732 0.0
H1551 H 0.40356 0.09837 0.35809 0.0
C1552 C 0.389 0.1186 0.33748 0.0
C1553 C 0.37283 0.13942 0.33144 0.0
C1554 C 0.36369 0.14425 0.39166 0.0
C1555 C 0.37578 0.13072 0.36399 0.0
C1556 C 0.36883 0.14323 0.40782 0.0
C1557 C 0.38918 0.12636 0.41376 0.0
C1558 C 0.37898 0.1283 0.38132 0.0
C1559 C 0.40339 0.11005 0.40309 0.0
C1560 C 0.39051 0.11419 0.3537 0.0
C1561 C 0.35761 0.15484 0.34209 0.0
N1562 N 0.39814 0.11156 0.38739 0.0
N1563 N 0.35962 0.1503 0.35785 0.0
H1564 H 0.65199 0.67338 0.15678 0.0
H1565 H 0.57877 0.59591 0.08616 0.0
H1566 H 0.59736 0.60652 0.16341 0.0
H1567 H 0.63873 0.6579 0.07913 0.0
H1568 H 0.58743 0.5977 0.11449 0.0
H1569 H 0.64968 0.66622 0.12828 0.0
C1570 C 0.63971 0.65706 0.15227 0.0
C1571 C 0.62465 0.64071 0.16252 0.0
C1572 C 0.59884 0.61078 0.10673 0.0
C1573 C 0.62177 0.63251 0.12992 0.0
C1574 C 0.59388 0.60977 0.09054 0.0
C1575 C 0.60786 0.62694 0.08024 0.0
C1576 C 0.61779 0.6292 0.1127 0.0
C1577 C 0.62733 0.64439 0.08662 0.0
C1578 C 0.63838 0.65298 0.13599 0.0
C1579 C 0.60916 0.61979 0.15599 0.0
N1580 N 0.63155 0.64522 0.10244 0.0
N1581 N 0.60795 0.61645 0.14012 0.0
H1582 H 0.15702 0.82848 0.83739 0.0
H1583 H 0.07996 0.90518 0.90694 0.0
H1584 H 0.09786 0.89098 0.82966 0.0
H1585 H 0.14265 0.84621 0.91463 0.0
H1586 H 0.0885 0.90262 0.8786 0.0
H1587 H 0.15437 0.83701 0.86572 0.0
C1588 C 0.14363 0.84413 0.84162 0.0
C1589 C 0.12746 0.85885 0.83112 0.0
C1590 C 0.10053 0.89039 0.88651 0.0
C1591 C 0.12422 0.86862 0.86357 0.0
C1592 C 0.09566 0.89185 0.9027 0.0
C1593 C 0.11043 0.87571 0.9132 0.0
C1594 C 0.12022 0.87257 0.88075 0.0
C1595 C 0.13062 0.85891 0.907 0.0
C1596 C 0.14212 0.849 0.85781 0.0
C1597 C 0.11059 0.87899 0.8373 0.0
N1598 N 0.13476 0.85762 0.89119 0.0
N1599 N 0.10925 0.88312 0.85312 0.0
loop_
_geom_bond_atom_site_label_1
_geom_bond_atom_site_label_2
_geom_bond_distance
_geom_bond_site_symmetry_2
_ccdc_geom_bond_type
O0 Cd1 2.223 . S
O0 C8 1.315 . S
Cd1 O0 2.223 . S
Cd1 O4 2.297 . S
Cd1 O5 2.439 . S
Cd1 O11 2.240 . S
Cd2 O3 2.240 . S
Cd2 O10 2.223 . S
Cd2 O12 2.297 . S
Cd2 O13 2.439 . S
O3 Cd2 2.240 . S
O3 C8 1.279 . S
O4 Cd1 2.297 . S
O4 C6 1.247 . S
O5 Cd1 2.439 . S
O5 C6 1.208 . S
C6 O4 1.247 . S
C6 O5 1.208 . S
C7 O12 1.247 . S
C7 O13 1.208 . S
C8 O0 1.315 . S
C8 O3 1.279 . S
C9 O10 1.315 . S
C9 O11 1.279 . S
O10 Cd2 2.223 . S
O10 C9 1.315 . S
O11 Cd1 2.240 . S
O11 C9 1.279 . S
O12 Cd2 2.297 . S
O12 C7 1.247 . S
O13 Cd2 2.439 . S
O13 C7 1.208 . S
O14 Cd15 2.223 . S
O14 C22 1.315 . S
Cd15 O14 2.223 . S
Cd15 O18 2.297 . S
Cd15 O19 2.439 . S
Cd15 O25 2.240 . S
Cd16 O17 2.240 . S
Cd16 O24 2.223 . S
Cd16 O26 2.297 . S
Cd16 O27 2.439 . S
O17 Cd16 2.240 . S
O17 C22 1.279 . S
O18 Cd15 2.297 . S
O18 C20 1.247 . S
O19 Cd15 2.439 . S
O19 C20 1.208 . S
C20 O18 1.247 . S
C20 O19 1.208 . S
C21 O26 1.247 . S
C21 O27 1.208 . S
C22 O14 1.315 . S
C22 O17 1.279 . S
C23 O24 1.315 . S
C23 O25 1.279 . S
O24 Cd16 2.223 . S
O24 C23 1.315 . S
O25 Cd15 2.240 . S
O25 C23 1.279 . S
O26 Cd16 2.297 . S
O26 C21 1.247 . S
O27 Cd16 2.439 . S
O27 C21 1.208 . S
O28 Cd29 2.223 . S
O28 C36 1.315 . S
Cd29 O28 2.223 . S
Cd29 O32 2.297 . S
Cd29 O33 2.439 . S
Cd29 O39 2.240 . S
Cd30 O31 2.240 . S
Cd30 O38 2.223 . S
Cd30 O40 2.297 . S
Cd30 O41 2.439 . S
O31 Cd30 2.240 . S
O31 C36 1.279 . S
O32 Cd29 2.297 . S
O32 C34 1.247 . S
O33 Cd29 2.439 . S
O33 C34 1.208 . S
C34 O32 1.247 . S
C34 O33 1.208 . S
C35 O40 1.247 . S
C35 O41 1.208 . S
C36 O28 1.315 . S
C36 O31 1.279 . S
C37 O38 1.315 . S
C37 O39 1.279 . S
O38 Cd30 2.223 . S
O38 C37 1.315 . S
O39 Cd29 2.240 . S
O39 C37 1.279 . S
O40 Cd30 2.297 . S
O40 C35 1.247 . S
O41 Cd30 2.439 . S
O41 C35 1.208 . S
O42 Cd43 2.223 . S
O42 C50 1.315 . S
Cd43 O42 2.223 . S
Cd43 O46 2.297 . S
Cd43 O47 2.439 . S
Cd43 O53 2.240 . S
Cd44 O45 2.240 . S
Cd44 O52 2.223 . S
Cd44 O54 2.297 . S
Cd44 O55 2.439 . S
O45 Cd44 2.240 . S
O45 C50 1.279 . S
O46 Cd43 2.297 . S
O46 C48 1.247 . S
O47 Cd43 2.439 . S
O47 C48 1.208 . S
C48 O46 1.247 . S
C48 O47 1.208 . S
C49 O54 1.247 . S
C49 O55 1.208 . S
C50 O42 1.315 . S
C50 O45 1.279 . S
C51 O52 1.315 . S
C51 O53 1.279 . S
O52 Cd44 2.223 . S
O52 C51 1.315 . S
O53 Cd43 2.240 . S
O53 C51 1.279 . S
O54 Cd44 2.297 . S
O54 C49 1.247 . S
O55 Cd44 2.439 . S
O55 C49 1.208 . S
O56 Cd57 2.223 . S
O56 C64 1.315 . S
Cd57 O56 2.223 . S
Cd57 O60 2.297 . S
Cd57 O61 2.439 . S
Cd57 O67 2.240 . S
Cd58 O59 2.240 . S
Cd58 O66 2.223 . S
Cd58 O68 2.297 . S
Cd58 O69 2.439 . S
O59 Cd58 2.240 . S
O59 C64 1.279 . S
O60 Cd57 2.297 . S
O60 C62 1.247 . S
O61 Cd57 2.439 . S
O61 C62 1.208 . S
C62 O60 1.247 . S
C62 O61 1.208 . S
C63 O68 1.247 . S
C63 O69 1.208 . S
C64 O56 1.315 . S
C64 O59 1.279 . S
C65 O66 1.315 . S
C65 O67 1.279 . S
O66 Cd58 2.223 . S
O66 C65 1.315 . S
O67 Cd57 2.240 . S
O67 C65 1.279 . S
O68 Cd58 2.297 . S
O68 C63 1.247 . S
O69 Cd58 2.439 . S
O69 C63 1.208 . S
O70 Cd71 2.223 . S
O70 C78 1.315 . S
Cd71 O70 2.223 . S
Cd71 O74 2.297 . S
Cd71 O75 2.439 . S
Cd71 O81 2.240 . S
Cd72 O73 2.240 . S
Cd72 O80 2.223 . S
Cd72 O82 2.297 . S
Cd72 O83 2.439 . S
O73 Cd72 2.240 . S
O73 C78 1.279 . S
O74 Cd71 2.297 . S
O74 C76 1.247 . S
O75 Cd71 2.439 . S
O75 C76 1.208 . S
C76 O74 1.247 . S
C76 O75 1.208 . S
C77 O82 1.247 . S
C77 O83 1.208 . S
C78 O70 1.315 . S
C78 O73 1.279 . S
C79 O80 1.315 . S
C79 O81 1.279 . S
O80 Cd72 2.223 . S
O80 C79 1.315 . S
O81 Cd71 2.240 . S
O81 C79 1.279 . S
O82 Cd72 2.297 . S
O82 C77 1.247 . S
O83 Cd72 2.439 . S
O83 C77 1.208 . S
O84 Cd85 2.223 . S
O84 C92 1.315 . S
Cd85 O84 2.223 . S
Cd85 O88 2.297 . S
Cd85 O89 2.439 . S
Cd85 O95 2.240 . S
Cd86 O87 2.240 . S
Cd86 O94 2.223 . S
Cd86 O96 2.297 . S
Cd86 O97 2.439 . S
O87 Cd86 2.240 . S
O87 C92 1.279 . S
O88 Cd85 2.297 . S
O88 C90 1.247 . S
O89 Cd85 2.439 . S
O89 C90 1.208 . S
C90 O88 1.247 . S
C90 O89 1.208 . S
C91 O96 1.247 . S
C91 O97 1.208 . S
C92 O84 1.315 . S
C92 O87 1.279 . S
C93 O94 1.315 . S
C93 O95 1.279 . S
O94 Cd86 2.223 . S
O94 C93 1.315 . S
O95 Cd85 2.240 . S
O95 C93 1.279 . S
O96 Cd86 2.297 . S
O96 C91 1.247 . S
O97 Cd86 2.439 . S
O97 C91 1.208 . S
O98 Cd99 2.223 . S
O98 C106 1.315 . S
Cd99 O98 2.223 . S
Cd99 O102 2.297 . S
Cd99 O103 2.439 . S
Cd99 O109 2.240 . S
Cd100 O101 2.240 . S
Cd100 O108 2.223 . S
Cd100 O110 2.297 . S
Cd100 O111 2.439 . S
O101 Cd100 2.240 . S
O101 C106 1.279 . S
O102 Cd99 2.297 . S
O102 C104 1.247 . S
O103 Cd99 2.439 . S
O103 C104 1.208 . S
C104 O102 1.247 . S
C104 O103 1.208 . S
C105 O110 1.247 . S
C105 O111 1.208 . S
C106 O98 1.315 . S
C106 O101 1.279 . S
C107 O108 1.315 . S
C107 O109 1.279 . S
O108 Cd100 2.223 . S
O108 C107 1.315 . S
O109 Cd99 2.240 . S
O109 C107 1.279 . S
O110 Cd100 2.297 . S
O110 C105 1.247 . S
O111 Cd100 2.439 . S
O111 C105 1.208 . S
O112 Cd113 2.223 . S
O112 C120 1.315 . S
Cd113 O112 2.223 . S
Cd113 O116 2.297 . S
Cd113 O117 2.439 . S
Cd113 O123 2.240 . S
Cd114 O115 2.240 . S
Cd114 O122 2.223 . S
Cd114 O124 2.297 . S
Cd114 O125 2.439 . S
O115 Cd114 2.240 . S
O115 C120 1.279 . S
O116 Cd113 2.297 . S
O116 C118 1.247 . S
O117 Cd113 2.439 . S
O117 C118 1.208 . S
C118 O116 1.247 . S
C118 O117 1.208 . S
C119 O124 1.247 . S
C119 O125 1.208 . S
C120 O112 1.315 . S
C120 O115 1.279 . S
C121 O122 1.315 . S
C121 O123 1.279 . S
O122 Cd114 2.223 . S
O122 C121 1.315 . S
O123 Cd113 2.240 . S
O123 C121 1.279 . S
O124 Cd114 2.297 . S
O124 C119 1.247 . S
O125 Cd114 2.439 . S
O125 C119 1.208 . S
O126 Cd127 2.223 . S
O126 C134 1.315 . S
Cd127 O126 2.223 . S
Cd127 O130 2.297 . S
Cd127 O131 2.439 . S
Cd127 O137 2.240 . S
Cd128 O129 2.240 . S
Cd128 O136 2.223 . S
Cd128 O138 2.297 . S
Cd128 O139 2.439 . S
O129 Cd128 2.240 . S
O129 C134 1.279 . S
O130 Cd127 2.297 . S
O130 C132 1.247 . S
O131 Cd127 2.439 . S
O131 C132 1.208 . S
C132 O130 1.247 . S
C132 O131 1.208 . S
C133 O138 1.247 . S
C133 O139 1.208 . S
C134 O126 1.315 . S
C134 O129 1.279 . S
C135 O136 1.315 . S
C135 O137 1.279 . S
O136 Cd128 2.223 . S
O136 C135 1.315 . S
O137 Cd127 2.240 . S
O137 C135 1.279 . S
O138 Cd128 2.297 . S
O138 C133 1.247 . S
O139 Cd128 2.439 . S
O139 C133 1.208 . S
O140 Cd141 2.223 . S
O140 C148 1.315 . S
Cd141 O140 2.223 . S
Cd141 O144 2.297 . S
Cd141 O145 2.439 . S
Cd141 O151 2.240 . S
Cd142 O143 2.240 . S
Cd142 O150 2.223 . S
Cd142 O152 2.297 . S
Cd142 O153 2.439 . S
O143 Cd142 2.240 . S
O143 C148 1.279 . S
O144 Cd141 2.297 . S
O144 C146 1.247 . S
O145 Cd141 2.439 . S
O145 C146 1.208 . S
C146 O144 1.247 . S
C146 O145 1.208 . S
C147 O152 1.247 . S
C147 O153 1.208 . S
C148 O140 1.315 . S
C148 O143 1.279 . S
C149 O150 1.315 . S
C149 O151 1.279 . S
O150 Cd142 2.223 . S
O150 C149 1.315 . S
O151 Cd141 2.240 . S
O151 C149 1.279 . S
O152 Cd142 2.297 . S
O152 C147 1.247 . S
O153 Cd142 2.439 . S
O153 C147 1.208 . S
O154 Cd155 2.223 . S
O154 C162 1.315 . S
Cd155 O154 2.223 . S
Cd155 O158 2.297 . S
Cd155 O159 2.439 . S
Cd155 O165 2.240 . S
Cd156 O157 2.240 . S
Cd156 O164 2.223 . S
Cd156 O166 2.297 . S
Cd156 O167 2.439 . S
O157 Cd156 2.240 . S
O157 C162 1.279 . S
O158 Cd155 2.297 . S
O158 C160 1.247 . S
O159 Cd155 2.439 . S
O159 C160 1.208 . S
C160 O158 1.247 . S
C160 O159 1.208 . S
C161 O166 1.247 . S
C161 O167 1.208 . S
C162 O154 1.315 . S
C162 O157 1.279 . S
C163 O164 1.315 . S
C163 O165 1.279 . S
O164 Cd156 2.223 . S
O164 C163 1.315 . S
O165 Cd155 2.240 . S
O165 C163 1.279 . S
O166 Cd156 2.297 . S
O166 C161 1.247 . S
O167 Cd156 2.439 . S
O167 C161 1.208 . S
O168 Cd169 2.223 . S
O168 C176 1.315 . S
Cd169 O168 2.223 . S
Cd169 O172 2.297 . S
Cd169 O173 2.439 . S
Cd169 O179 2.240 . S
Cd170 O171 2.240 . S
Cd170 O178 2.223 . S
Cd170 O180 2.297 . S
Cd170 O181 2.439 . S
O171 Cd170 2.240 . S
O171 C176 1.279 . S
O172 Cd169 2.297 . S
O172 C174 1.247 . S
O173 Cd169 2.439 . S
O173 C174 1.208 . S
C174 O172 1.247 . S
C174 O173 1.208 . S
C175 O180 1.247 . S
C175 O181 1.208 . S
C176 O168 1.315 . S
C176 O171 1.279 . S
C177 O178 1.315 . S
C177 O179 1.279 . S
O178 Cd170 2.223 . S
O178 C177 1.315 . S
O179 Cd169 2.240 . S
O179 C177 1.279 . S
O180 Cd170 2.297 . S
O180 C175 1.247 . S
O181 Cd170 2.439 . S
O181 C175 1.208 . S
O182 Cd183 2.223 . S
O182 C190 1.315 . S
Cd183 O182 2.223 . S
Cd183 O186 2.297 . S
Cd183 O187 2.439 . S
Cd183 O193 2.240 . S
Cd184 O185 2.240 . S
Cd184 O192 2.223 . S
Cd184 O194 2.297 . S
Cd184 O195 2.439 . S
O185 Cd184 2.240 . S
O185 C190 1.279 . S
O186 Cd183 2.297 . S
O186 C188 1.247 . S
O187 Cd183 2.439 . S
O187 C188 1.208 . S
C188 O186 1.247 . S
C188 O187 1.208 . S
C189 O194 1.247 . S
C189 O195 1.208 . S
C190 O182 1.315 . S
C190 O185 1.279 . S
C191 O192 1.315 . S
C191 O193 1.279 . S
O192 Cd184 2.223 . S
O192 C191 1.315 . S
O193 Cd183 2.240 . S
O193 C191 1.279 . S
O194 Cd184 2.297 . S
O194 C189 1.247 . S
O195 Cd184 2.439 . S
O195 C189 1.208 . S
O196 Cd197 2.223 . S
O196 C204 1.315 . S
Cd197 O196 2.223 . S
Cd197 O200 2.297 . S
Cd197 O201 2.439 . S
Cd197 O207 2.240 . S
Cd198 O199 2.240 . S
Cd198 O206 2.223 . S
Cd198 O208 2.297 . S
Cd198 O209 2.439 . S
O199 Cd198 2.240 . S
O199 C204 1.279 . S
O200 Cd197 2.297 . S
O200 C202 1.247 . S
O201 Cd197 2.439 . S
O201 C202 1.208 . S
C202 O200 1.247 . S
C202 O201 1.208 . S
C203 O208 1.247 . S
C203 O209 1.208 . S
C204 O196 1.315 . S
C204 O199 1.279 . S
C205 O206 1.315 . S
C205 O207 1.279 . S
O206 Cd198 2.223 . S
O206 C205 1.315 . S
O207 Cd197 2.240 . S
O207 C205 1.279 . S
O208 Cd198 2.297 . S
O208 C203 1.247 . S
O209 Cd198 2.439 . S
O209 C203 1.208 . S
O210 Cd211 2.223 . S
O210 C218 1.315 . S
Cd211 O210 2.223 . S
Cd211 O214 2.297 . S
Cd211 O215 2.439 . S
Cd211 O221 2.240 . S
Cd212 O213 2.240 . S
Cd212 O220 2.223 . S
Cd212 O222 2.297 . S
Cd212 O223 2.439 . S
O213 Cd212 2.240 . S
O213 C218 1.279 . S
O214 Cd211 2.297 . S
O214 C216 1.247 . S
O215 Cd211 2.439 . S
O215 C216 1.208 . S
C216 O214 1.247 . S
C216 O215 1.208 . S
C217 O222 1.247 . S
C217 O223 1.208 . S
C218 O210 1.315 . S
C218 O213 1.279 . S
C219 O220 1.315 . S
C219 O221 1.279 . S
O220 Cd212 2.223 . S
O220 C219 1.315 . S
O221 Cd211 2.240 . S
O221 C219 1.279 . S
O222 Cd212 2.297 . S
O222 C217 1.247 . S
O223 Cd212 2.439 . S
O223 C217 1.208 . S
O224 Cd225 2.223 . S
O224 C232 1.315 . S
Cd225 O224 2.223 . S
Cd225 O228 2.297 . S
Cd225 O229 2.439 . S
Cd225 O235 2.240 . S
Cd226 O227 2.240 . S
Cd226 O234 2.223 . S
Cd226 O236 2.297 . S
Cd226 O237 2.439 . S
O227 Cd226 2.240 . S
O227 C232 1.279 . S
O228 Cd225 2.297 . S
O228 C230 1.247 . S
O229 Cd225 2.439 . S
O229 C230 1.208 . S
C230 O228 1.247 . S
C230 O229 1.208 . S
C231 O236 1.247 . S
C231 O237 1.208 . S
C232 O224 1.315 . S
C232 O227 1.279 . S
C233 O234 1.315 . S
C233 O235 1.279 . S
O234 Cd226 2.223 . S
O234 C233 1.315 . S
O235 Cd225 2.240 . S
O235 C233 1.279 . S
O236 Cd226 2.297 . S
O236 C231 1.247 . S
O237 Cd226 2.439 . S
O237 C231 1.208 . S
O238 Cd239 2.223 . S
O238 C246 1.315 . S
Cd239 O238 2.223 . S
Cd239 O242 2.297 . S
Cd239 O243 2.439 . S
Cd239 O249 2.240 . S
Cd240 O241 2.240 . S
Cd240 O248 2.223 . S
Cd240 O250 2.297 . S
Cd240 O251 2.439 . S
O241 Cd240 2.240 . S
O241 C246 1.279 . S
O242 Cd239 2.297 . S
O242 C244 1.247 . S
O243 Cd239 2.439 . S
O243 C244 1.208 . S
C244 O242 1.247 . S
C244 O243 1.208 . S
C245 O250 1.247 . S
C245 O251 1.208 . S
C246 O238 1.315 . S
C246 O241 1.279 . S
C247 O248 1.315 . S
C247 O249 1.279 . S
O248 Cd240 2.223 . S
O248 C247 1.315 . S
O249 Cd239 2.240 . S
O249 C247 1.279 . S
O250 Cd240 2.297 . S
O250 C245 1.247 . S
O251 Cd240 2.439 . S
O251 C245 1.208 . S
O252 Cd253 2.223 . S
O252 C260 1.315 . S
Cd253 O252 2.223 . S
Cd253 O256 2.297 . S
Cd253 O257 2.439 . S
Cd253 O263 2.240 . S
Cd254 O255 2.240 . S
Cd254 O262 2.223 . S
Cd254 O264 2.297 . S
Cd254 O265 2.439 . S
O255 Cd254 2.240 . S
O255 C260 1.279 . S
O256 Cd253 2.297 . S
O256 C258 1.247 . S
O257 Cd253 2.439 . S
O257 C258 1.208 . S
C258 O256 1.247 . S
C258 O257 1.208 . S
C259 O264 1.247 . S
C259 O265 1.208 . S
C260 O252 1.315 . S
C260 O255 1.279 . S
C261 O262 1.315 . S
C261 O263 1.279 . S
O262 Cd254 2.223 . S
O262 C261 1.315 . S
O263 Cd253 2.240 . S
O263 C261 1.279 . S
O264 Cd254 2.297 . S
O264 C259 1.247 . S
O265 Cd254 2.439 . S
O265 C259 1.208 . S
O266 Cd267 2.223 . S
O266 C274 1.315 . S
Cd267 O266 2.223 . S
Cd267 O270 2.297 . S
Cd267 O271 2.439 . S
Cd267 O277 2.240 . S
Cd268 O269 2.240 . S
Cd268 O276 2.223 . S
Cd268 O278 2.297 . S
Cd268 O279 2.439 . S
O269 Cd268 2.240 . S
O269 C274 1.279 . S
O270 Cd267 2.297 . S
O270 C272 1.247 . S
O271 Cd267 2.439 . S
O271 C272 1.208 . S
C272 O270 1.247 . S
C272 O271 1.208 . S
C273 O278 1.247 . S
C273 O279 1.208 . S
C274 O266 1.315 . S
C274 O269 1.279 . S
C275 O276 1.315 . S
C275 O277 1.279 . S
O276 Cd268 2.223 . S
O276 C275 1.315 . S
O277 Cd267 2.240 . S
O277 C275 1.279 . S
O278 Cd268 2.297 . S
O278 C273 1.247 . S
O279 Cd268 2.439 . S
O279 C273 1.208 . S
O280 Cd281 2.223 . S
O280 C288 1.315 . S
Cd281 O280 2.223 . S
Cd281 O284 2.297 . S
Cd281 O285 2.439 . S
Cd281 O291 2.240 . S
Cd282 O283 2.240 . S
Cd282 O290 2.223 . S
Cd282 O292 2.297 . S
Cd282 O293 2.439 . S
O283 Cd282 2.240 . S
O283 C288 1.279 . S
O284 Cd281 2.297 . S
O284 C286 1.247 . S
O285 Cd281 2.439 . S
O285 C286 1.208 . S
C286 O284 1.247 . S
C286 O285 1.208 . S
C287 O292 1.247 . S
C287 O293 1.208 . S
C288 O280 1.315 . S
C288 O283 1.279 . S
C289 O290 1.315 . S
C289 O291 1.279 . S
O290 Cd282 2.223 . S
O290 C289 1.315 . S
O291 Cd281 2.240 . S
O291 C289 1.279 . S
O292 Cd282 2.297 . S
O292 C287 1.247 . S
O293 Cd282 2.439 . S
O293 C287 1.208 . S
O294 Cd295 2.223 . S
O294 C302 1.315 . S
Cd295 O294 2.223 . S
Cd295 O298 2.297 . S
Cd295 O299 2.439 . S
Cd295 O305 2.240 . S
Cd296 O297 2.240 . S
Cd296 O304 2.223 . S
Cd296 O306 2.297 . S
Cd296 O307 2.439 . S
O297 Cd296 2.240 . S
O297 C302 1.279 . S
O298 Cd295 2.297 . S
O298 C300 1.247 . S
O299 Cd295 2.439 . S
O299 C300 1.208 . S
C300 O298 1.247 . S
C300 O299 1.208 . S
C301 O306 1.247 . S
C301 O307 1.208 . S
C302 O294 1.315 . S
C302 O297 1.279 . S
C303 O304 1.315 . S
C303 O305 1.279 . S
O304 Cd296 2.223 . S
O304 C303 1.315 . S
O305 Cd295 2.240 . S
O305 C303 1.279 . S
O306 Cd296 2.297 . S
O306 C301 1.247 . S
O307 Cd296 2.439 . S
O307 C301 1.208 . S
O308 Cd309 2.223 . S
O308 C316 1.315 . S
Cd309 O308 2.223 . S
Cd309 O312 2.297 . S
Cd309 O313 2.439 . S
Cd309 O319 2.240 . S
Cd310 O311 2.240 . S
Cd310 O318 2.223 . S
Cd310 O320 2.297 . S
Cd310 O321 2.439 . S
O311 Cd310 2.240 . S
O311 C316 1.279 . S
O312 Cd309 2.297 . S
O312 C314 1.247 . S
O313 Cd309 2.439 . S
O313 C314 1.208 . S
C314 O312 1.247 . S
C314 O313 1.208 . S
C315 O320 1.247 . S
C315 O321 1.208 . S
C316 O308 1.315 . S
C316 O311 1.279 . S
C317 O318 1.315 . S
C317 O319 1.279 . S
O318 Cd310 2.223 . S
O318 C317 1.315 . S
O319 Cd309 2.240 . S
O319 C317 1.279 . S
O320 Cd310 2.297 . S
O320 C315 1.247 . S
O321 Cd310 2.439 . S
O321 C315 1.208 . S
O322 Cd323 2.223 . S
O322 C330 1.315 . S
Cd323 O322 2.223 . S
Cd323 O326 2.297 . S
Cd323 O327 2.439 . S
Cd323 O333 2.240 . S
Cd324 O325 2.240 . S
Cd324 O332 2.223 . S
Cd324 O334 2.297 . S
Cd324 O335 2.439 . S
O325 Cd324 2.240 . S
O325 C330 1.279 . S
O326 Cd323 2.297 . S
O326 C328 1.247 . S
O327 Cd323 2.439 . S
O327 C328 1.208 . S
C328 O326 1.247 . S
C328 O327 1.208 . S
C329 O334 1.247 . S
C329 O335 1.208 . S
C330 O322 1.315 . S
C330 O325 1.279 . S
C331 O332 1.315 . S
C331 O333 1.279 . S
O332 Cd324 2.223 . S
O332 C331 1.315 . S
O333 Cd323 2.240 . S
O333 C331 1.279 . S
O334 Cd324 2.297 . S
O334 C329 1.247 . S
O335 Cd324 2.439 . S
O335 C329 1.208 . S
O336 Cd337 2.223 . S
O336 C344 1.315 . S
Cd337 O336 2.223 . S
Cd337 O340 2.297 . S
Cd337 O341 2.439 . S
Cd337 O347 2.240 . S
Cd338 O339 2.240 . S
Cd338 O346 2.223 . S
Cd338 O348 2.297 . S
Cd338 O349 2.439 . S
O339 Cd338 2.240 . S
O339 C344 1.279 . S
O340 Cd337 2.297 . S
O340 C342 1.247 . S
O341 Cd337 2.439 . S
O341 C342 1.208 . S
C342 O340 1.247 . S
C342 O341 1.208 . S
C343 O348 1.247 . S
C343 O349 1.208 . S
C344 O336 1.315 . S
C344 O339 1.279 . S
C345 O346 1.315 . S
C345 O347 1.279 . S
O346 Cd338 2.223 . S
O346 C345 1.315 . S
O347 Cd337 2.240 . S
O347 C345 1.279 . S
O348 Cd338 2.297 . S
O348 C343 1.247 . S
O349 Cd338 2.439 . S
O349 C343 1.208 . S
O350 Cd351 2.223 . S
O350 C358 1.315 . S
Cd351 O350 2.223 . S
Cd351 O354 2.297 . S
Cd351 O355 2.439 . S
Cd351 O361 2.240 . S
Cd352 O353 2.240 . S
Cd352 O360 2.223 . S
Cd352 O362 2.297 . S
Cd352 O363 2.439 . S
O353 Cd352 2.240 . S
O353 C358 1.279 . S
O354 Cd351 2.297 . S
O354 C356 1.247 . S
O355 Cd351 2.439 . S
O355 C356 1.208 . S
C356 O354 1.247 . S
C356 O355 1.208 . S
C357 O362 1.247 . S
C357 O363 1.208 . S
C358 O350 1.315 . S
C358 O353 1.279 . S
C359 O360 1.315 . S
C359 O361 1.279 . S
O360 Cd352 2.223 . S
O360 C359 1.315 . S
O361 Cd351 2.240 . S
O361 C359 1.279 . S
O362 Cd352 2.297 . S
O362 C357 1.247 . S
O363 Cd352 2.439 . S
O363 C357 1.208 . S
O364 Cd365 2.223 . S
O364 C372 1.315 . S
Cd365 O364 2.223 . S
Cd365 O368 2.297 . S
Cd365 O369 2.439 . S
Cd365 O375 2.240 . S
Cd366 O367 2.240 . S
Cd366 O374 2.223 . S
Cd366 O376 2.297 . S
Cd366 O377 2.439 . S
O367 Cd366 2.240 . S
O367 C372 1.279 . S
O368 Cd365 2.297 . S
O368 C370 1.247 . S
O369 Cd365 2.439 . S
O369 C370 1.208 . S
C370 O368 1.247 . S
C370 O369 1.208 . S
C371 O376 1.247 . S
C371 O377 1.208 . S
C372 O364 1.315 . S
C372 O367 1.279 . S
C373 O374 1.315 . S
C373 O375 1.279 . S
O374 Cd366 2.223 . S
O374 C373 1.315 . S
O375 Cd365 2.240 . S
O375 C373 1.279 . S
O376 Cd366 2.297 . S
O376 C371 1.247 . S
O377 Cd366 2.439 . S
O377 C371 1.208 . S
O378 Cd379 2.223 . S
O378 C386 1.315 . S
Cd379 O378 2.223 . S
Cd379 O382 2.297 . S
Cd379 O383 2.439 . S
Cd379 O389 2.240 . S
Cd380 O381 2.240 . S
Cd380 O388 2.223 . S
Cd380 O390 2.297 . S
Cd380 O391 2.439 . S
O381 Cd380 2.240 . S
O381 C386 1.279 . S
O382 Cd379 2.297 . S
O382 C384 1.247 . S
O383 Cd379 2.439 . S
O383 C384 1.208 . S
C384 O382 1.247 . S
C384 O383 1.208 . S
C385 O390 1.247 . S
C385 O391 1.208 . S
C386 O378 1.315 . S
C386 O381 1.279 . S
C387 O388 1.315 . S
C387 O389 1.279 . S
O388 Cd380 2.223 . S
O388 C387 1.315 . S
O389 Cd379 2.240 . S
O389 C387 1.279 . S
O390 Cd380 2.297 . S
O390 C385 1.247 . S
O391 Cd380 2.439 . S
O391 C385 1.208 . S
O392 Cd393 2.223 . S
O392 C400 1.315 . S
Cd393 O392 2.223 . S
Cd393 O396 2.297 . S
Cd393 O397 2.439 . S
Cd393 O403 2.240 . S
Cd394 O395 2.240 . S
Cd394 O402 2.223 . S
Cd394 O404 2.297 . S
Cd394 O405 2.439 . S
O395 Cd394 2.240 . S
O395 C400 1.279 . S
O396 Cd393 2.297 . S
O396 C398 1.247 . S
O397 Cd393 2.439 . S
O397 C398 1.208 . S
C398 O396 1.247 . S
C398 O397 1.208 . S
C399 O404 1.247 . S
C399 O405 1.208 . S
C400 O392 1.315 . S
C400 O395 1.279 . S
C401 O402 1.315 . S
C401 O403 1.279 . S
O402 Cd394 2.223 . S
O402 C401 1.315 . S
O403 Cd393 2.240 . S
O403 C401 1.279 . S
O404 Cd394 2.297 . S
O404 C399 1.247 . S
O405 Cd394 2.439 . S
O405 C399 1.208 . S
O406 Cd407 2.223 . S
O406 C414 1.315 . S
Cd407 O406 2.223 . S
Cd407 O410 2.297 . S
Cd407 O411 2.439 . S
Cd407 O417 2.240 . S
Cd408 O409 2.240 . S
Cd408 O416 2.223 . S
Cd408 O418 2.297 . S
Cd408 O419 2.439 . S
O409 Cd408 2.240 . S
O409 C414 1.279 . S
O410 Cd407 2.297 . S
O410 C412 1.247 . S
O411 Cd407 2.439 . S
O411 C412 1.208 . S
C412 O410 1.247 . S
C412 O411 1.208 . S
C413 O418 1.247 . S
C413 O419 1.208 . S
C414 O406 1.315 . S
C414 O409 1.279 . S
C415 O416 1.315 . S
C415 O417 1.279 . S
O416 Cd408 2.223 . S
O416 C415 1.315 . S
O417 Cd407 2.240 . S
O417 C415 1.279 . S
O418 Cd408 2.297 . S
O418 C413 1.247 . S
O419 Cd408 2.439 . S
O419 C413 1.208 . S
O420 Cd421 2.223 . S
O420 C428 1.315 . S
Cd421 O420 2.223 . S
Cd421 O424 2.297 . S
Cd421 O425 2.439 . S
Cd421 O431 2.240 . S
Cd422 O423 2.240 . S
Cd422 O430 2.223 . S
Cd422 O432 2.297 . S
Cd422 O433 2.439 . S
O423 Cd422 2.240 . S
O423 C428 1.279 . S
O424 Cd421 2.297 . S
O424 C426 1.247 . S
O425 Cd421 2.439 . S
O425 C426 1.208 . S
C426 O424 1.247 . S
C426 O425 1.208 . S
C427 O432 1.247 . S
C427 O433 1.208 . S
C428 O420 1.315 . S
C428 O423 1.279 . S
C429 O430 1.315 . S
C429 O431 1.279 . S
O430 Cd422 2.223 . S
O430 C429 1.315 . S
O431 Cd421 2.240 . S
O431 C429 1.279 . S
O432 Cd422 2.297 . S
O432 C427 1.247 . S
O433 Cd422 2.439 . S
O433 C427 1.208 . S
O434 Cd435 2.223 . S
O434 C442 1.315 . S
Cd435 O434 2.223 . S
Cd435 O438 2.297 . S
Cd435 O439 2.439 . S
Cd435 O445 2.240 . S
Cd436 O437 2.240 . S
Cd436 O444 2.223 . S
Cd436 O446 2.297 . S
Cd436 O447 2.439 . S
O437 Cd436 2.240 . S
O437 C442 1.279 . S
O438 Cd435 2.297 . S
O438 C440 1.247 . S
O439 Cd435 2.439 . S
O439 C440 1.208 . S
C440 O438 1.247 . S
C440 O439 1.208 . S
C441 O446 1.247 . S
C441 O447 1.208 . S
C442 O434 1.315 . S
C442 O437 1.279 . S
C443 O444 1.315 . S
C443 O445 1.279 . S
O444 Cd436 2.223 . S
O444 C443 1.315 . S
O445 Cd435 2.240 . S
O445 C443 1.279 . S
O446 Cd436 2.297 . S
O446 C441 1.247 . S
O447 Cd436 2.439 . S
O447 C441 1.208 . S
H448 C454 0.930 . S
H449 C458 0.930 . S
H450 C463 0.929 . S
H451 C461 0.929 . S
H452 C456 0.929 . S
H453 C462 0.929 . S
C454 H448 0.930 . S
C454 C455 1.367 1_554 S
C454 C462 1.378 . S
C455 C454 1.367 1_556 S
C455 C463 1.433 . S
C456 H452 0.929 . S
C456 C458 1.378 . S
C456 C460 1.350 1_556 S
C457 C460 1.463 1_656 S
C457 C462 1.350 1_556 S
C457 N465 1.427 . S
C458 H449 0.930 . S
C458 C456 1.378 . S
C458 C459 1.367 1_556 S
C459 C458 1.367 1_554 S
C459 C461 1.433 . S
C460 C456 1.350 1_554 S
C460 C457 1.463 1_454 S
C460 N464 1.427 . S
C461 H451 0.929 . S
C461 C459 1.433 . S
C461 N464 1.384 . S
C462 H453 0.929 . S
C462 C454 1.378 . S
C462 C457 1.350 1_554 S
C463 H450 0.929 . S
C463 C455 1.433 . S
C463 N465 1.384 . S
N464 C460 1.427 . S
N464 C461 1.384 . S
N465 C457 1.427 . S
N465 C463 1.384 . S
H466 C472 0.930 . S
H467 C476 0.930 . S
H468 C481 0.929 . S
H469 C479 0.929 . S
H470 C474 0.929 . S
H471 C480 0.929 . S
C472 H466 0.930 . S
C472 C473 1.367 . S
C472 C480 1.378 . S
C473 C472 1.367 . S
C473 C481 1.433 . S
C474 H470 0.929 . S
C474 C476 1.378 . S
C474 C478 1.350 . S
C475 C478 1.463 . S
C475 C480 1.350 . S
C475 N483 1.427 . S
C476 H467 0.930 . S
C476 C474 1.378 . S
C476 C477 1.367 . S
C477 C476 1.367 . S
C477 C479 1.433 . S
C478 C474 1.350 . S
C478 C475 1.463 . S
C478 N482 1.427 . S
C479 H469 0.929 . S
C479 C477 1.433 . S
C479 N482 1.384 . S
C480 H471 0.929 . S
C480 C472 1.378 . S
C480 C475 1.350 . S
C481 H468 0.929 . S
C481 C473 1.433 . S
C481 N483 1.384 . S
N482 C478 1.427 . S
N482 C479 1.384 . S
N483 C475 1.427 . S
N483 C481 1.384 . S
H484 C490 0.930 . S
H485 C494 0.930 . S
H486 C499 0.929 . S
H487 C497 0.929 . S
H488 C492 0.929 . S
H489 C498 0.929 . S
C490 H484 0.930 . S
C490 C491 1.367 . S
C490 C498 1.378 . S
C491 C490 1.367 . S
C491 C499 1.433 . S
C492 H488 0.929 . S
C492 C494 1.378 . S
C492 C496 1.350 . S
C493 C496 1.463 . S
C493 C498 1.350 . S
C493 N501 1.427 . S
C494 H485 0.930 . S
C494 C492 1.378 . S
C494 C495 1.367 . S
C495 C494 1.367 . S
C495 C497 1.433 . S
C496 C492 1.350 . S
C496 C493 1.463 . S
C496 N500 1.427 . S
C497 H487 0.929 . S
C497 C495 1.433 . S
C497 N500 1.384 . S
C498 H489 0.929 . S
C498 C490 1.378 . S
C498 C493 1.350 . S
C499 H486 0.929 . S
C499 C491 1.433 . S
C499 N501 1.384 . S
N500 C496 1.427 . S
N500 C497 1.384 . S
N501 C493 1.427 . S
N501 C499 1.384 . S
H502 C508 0.930 . S
H503 C512 0.930 . S
H504 C517 0.929 . S
H505 C515 0.929 . S
H506 C510 0.929 . S
H507 C516 0.929 . S
C508 H502 0.930 . S
C508 C509 1.367 . S
C508 C516 1.378 . S
C509 C508 1.367 . S
C509 C517 1.433 . S
C510 H506 0.929 . S
C510 C512 1.378 . S
C510 C514 1.350 . S
C511 C514 1.463 . S
C511 C516 1.350 . S
C511 N519 1.427 . S
C512 H503 0.930 . S
C512 C510 1.378 . S
C512 C513 1.367 . S
C513 C512 1.367 . S
C513 C515 1.433 . S
C514 C510 1.350 . S
C514 C511 1.463 . S
C514 N518 1.427 . S
C515 H505 0.929 . S
C515 C513 1.433 . S
C515 N518 1.384 . S
C516 H507 0.929 . S
C516 C508 1.378 . S
C516 C511 1.350 . S
C517 H504 0.929 . S
C517 C509 1.433 . S
C517 N519 1.384 . S
N518 C514 1.427 . S
N518 C515 1.384 . S
N519 C511 1.427 . S
N519 C517 1.384 . S
H520 C526 0.930 . S
H521 C530 0.930 . S
H522 C535 0.929 . S
H523 C533 0.929 . S
H524 C528 0.929 . S
H525 C534 0.929 . S
C526 H520 0.930 . S
C526 C527 1.367 . S
C526 C534 1.378 . S
C527 C526 1.367 . S
C527 C535 1.433 . S
C528 H524 0.929 . S
C528 C530 1.378 . S
C528 C532 1.350 . S
C529 C532 1.463 1_655 S
C529 C534 1.350 . S
C529 N537 1.427 . S
C530 H521 0.930 . S
C530 C528 1.378 . S
C530 C531 1.367 . S
C531 C530 1.367 . S
C531 C533 1.433 . S
C532 C528 1.350 . S
C532 C529 1.463 1_455 S
C532 N536 1.427 . S
C533 H523 0.929 . S
C533 C531 1.433 . S
C533 N536 1.384 . S
C534 H525 0.929 . S
C534 C526 1.378 . S
C534 C529 1.350 . S
C535 H522 0.929 . S
C535 C527 1.433 . S
C535 N537 1.384 . S
N536 C532 1.427 . S
N536 C533 1.384 . S
N537 C529 1.427 . S
N537 C535 1.384 . S
H538 C544 0.930 . S
H539 C548 0.930 . S
H540 C553 0.929 . S
H541 C551 0.929 . S
H542 C546 0.929 . S
H543 C552 0.929 . S
C544 H538 0.930 . S
C544 C545 1.367 . S
C544 C552 1.378 . S
C545 C544 1.367 . S
C545 C553 1.433 . S
C546 H542 0.929 . S
C546 C548 1.378 . S
C546 C550 1.350 . S
C547 C550 1.463 . S
C547 C552 1.350 . S
C547 N555 1.427 . S
C548 H539 0.930 . S
C548 C546 1.378 . S
C548 C549 1.367 . S
C549 C548 1.367 . S
C549 C551 1.433 . S
C550 C546 1.350 . S
C550 C547 1.463 . S
C550 N554 1.427 . S
C551 H541 0.929 . S
C551 C549 1.433 . S
C551 N554 1.384 . S
C552 H543 0.929 . S
C552 C544 1.378 . S
C552 C547 1.350 . S
C553 H540 0.929 . S
C553 C545 1.433 . S
C553 N555 1.384 . S
N554 C550 1.427 . S
N554 C551 1.384 . S
N555 C547 1.427 . S
N555 C553 1.384 . S
H556 C562 0.930 . S
H557 C566 0.930 . S
H558 C571 0.929 . S
H559 C569 0.929 . S
H560 C564 0.929 . S
H561 C570 0.929 . S
C562 H556 0.930 . S
C562 C563 1.367 . S
C562 C570 1.378 . S
C563 C562 1.367 . S
C563 C571 1.433 1_556 S
C564 H560 0.929 . S
C564 C566 1.378 . S
C564 C568 1.350 . S
C565 C568 1.463 1_556 S
C565 C570 1.350 . S
C565 N573 1.427 1_556 S
C566 H557 0.930 . S
C566 C564 1.378 . S
C566 C567 1.367 . S
C567 C566 1.367 . S
C567 C569 1.433 1_554 S
C568 C564 1.350 . S
C568 C565 1.463 1_554 S
C568 N572 1.427 1_554 S
C569 H559 0.929 . S
C569 C567 1.433 1_556 S
C569 N572 1.384 . S
C570 H561 0.929 . S
C570 C562 1.378 . S
C570 C565 1.350 . S
C571 H558 0.929 . S
C571 C563 1.433 1_554 S
C571 N573 1.384 . S
N572 C568 1.427 1_556 S
N572 C569 1.384 . S
N573 C565 1.427 1_554 S
N573 C571 1.384 . S
H574 C580 0.930 . S
H575 C584 0.930 . S
H576 C589 0.929 . S
H577 C587 0.929 . S
H578 C582 0.929 . S
H579 C588 0.929 . S
C580 H574 0.930 . S
C580 C581 1.367 . S
C580 C588 1.378 . S
C581 C580 1.367 . S
C581 C589 1.433 . S
C582 H578 0.929 . S
C582 C584 1.378 . S
C582 C586 1.350 . S
C583 C586 1.463 . S
C583 C588 1.350 . S
C583 N591 1.427 . S
C584 H575 0.930 . S
C584 C582 1.378 . S
C584 C585 1.367 . S
C585 C584 1.367 . S
C585 C587 1.433 . S
C586 C582 1.350 . S
C586 C583 1.463 . S
C586 N590 1.427 . S
C587 H577 0.929 . S
C587 C585 1.433 . S
C587 N590 1.384 . S
C588 H579 0.929 . S
C588 C580 1.378 . S
C588 C583 1.350 . S
C589 H576 0.929 . S
C589 C581 1.433 . S
C589 N591 1.384 . S
N590 C586 1.427 . S
N590 C587 1.384 . S
N591 C583 1.427 . S
N591 C589 1.384 . S
H592 C598 0.930 . S
H593 C602 0.930 . S
H594 C607 0.929 . S
H595 C605 0.929 . S
H596 C600 0.929 . S
H597 C606 0.929 . S
C598 H592 0.930 . S
C598 C599 1.367 . S
C598 C606 1.378 . S
C599 C598 1.367 . S
C599 C607 1.433 . S
C600 H596 0.929 . S
C600 C602 1.378 . S
C600 C604 1.350 . S
C601 C604 1.463 . S
C601 C606 1.350 . S
C601 N609 1.427 . S
C602 H593 0.930 . S
C602 C600 1.378 . S
C602 C603 1.367 . S
C603 C602 1.367 . S
C603 C605 1.433 . S
C604 C600 1.350 . S
C604 C601 1.463 . S
C604 N608 1.427 . S
C605 H595 0.929 . S
C605 C603 1.433 . S
C605 N608 1.384 . S
C606 H597 0.929 . S
C606 C598 1.378 . S
C606 C601 1.350 . S
C607 H594 0.929 . S
C607 C599 1.433 . S
C607 N609 1.384 . S
N608 C604 1.427 . S
N608 C605 1.384 . S
N609 C601 1.427 . S
N609 C607 1.384 . S
H610 C616 0.930 . S
H611 C620 0.930 . S
H612 C625 0.929 . S
H613 C623 0.929 . S
H614 C618 0.929 . S
H615 C624 0.929 . S
C616 H610 0.930 . S
C616 C617 1.367 . S
C616 C624 1.378 . S
C617 C616 1.367 . S
C617 C625 1.433 . S
C618 H614 0.929 . S
C618 C620 1.378 . S
C618 C622 1.350 . S
C619 C622 1.463 . S
C619 C624 1.350 . S
C619 N627 1.427 . S
C620 H611 0.930 . S
C620 C618 1.378 . S
C620 C621 1.367 . S
C621 C620 1.367 . S
C621 C623 1.433 . S
C622 C618 1.350 . S
C622 C619 1.463 . S
C622 N626 1.427 . S
C623 H613 0.929 . S
C623 C621 1.433 . S
C623 N626 1.384 . S
C624 H615 0.929 . S
C624 C616 1.378 . S
C624 C619 1.350 . S
C625 H612 0.929 . S
C625 C617 1.433 . S
C625 N627 1.384 . S
N626 C622 1.427 . S
N626 C623 1.384 . S
N627 C619 1.427 . S
N627 C625 1.384 . S
H628 C634 0.930 . S
H629 C638 0.930 . S
H630 C643 0.929 . S
H631 C641 0.929 . S
H632 C636 0.929 . S
H633 C642 0.929 . S
C634 H628 0.930 . S
C634 C635 1.367 . S
C634 C642 1.378 . S
C635 C634 1.367 . S
C635 C643 1.433 . S
C636 H632 0.929 . S
C636 C638 1.378 . S
C636 C640 1.350 . S
C637 C640 1.463 . S
C637 C642 1.350 . S
C637 N645 1.427 . S
C638 H629 0.930 . S
C638 C636 1.378 . S
C638 C639 1.367 . S
C639 C638 1.367 . S
C639 C641 1.433 . S
C640 C636 1.350 . S
C640 C637 1.463 . S
C640 N644 1.427 . S
C641 H631 0.929 . S
C641 C639 1.433 . S
C641 N644 1.384 . S
C642 H633 0.929 . S
C642 C634 1.378 . S
C642 C637 1.350 . S
C643 H630 0.929 . S
C643 C635 1.433 . S
C643 N645 1.384 . S
N644 C640 1.427 . S
N644 C641 1.384 . S
N645 C637 1.427 . S
N645 C643 1.384 . S
H646 C652 0.930 . S
H647 C656 0.930 . S
H648 C661 0.929 . S
H649 C659 0.929 . S
H650 C654 0.929 . S
H651 C660 0.929 . S
C652 H646 0.930 . S
C652 C653 1.367 . S
C652 C660 1.378 . S
C653 C652 1.367 . S
C653 C661 1.433 . S
C654 H650 0.929 . S
C654 C656 1.378 . S
C654 C658 1.350 . S
C655 C658 1.463 . S
C655 C660 1.350 . S
C655 N663 1.427 . S
C656 H647 0.930 . S
C656 C654 1.378 . S
C656 C657 1.367 . S
C657 C656 1.367 . S
C657 C659 1.433 . S
C658 C654 1.350 . S
C658 C655 1.463 . S
C658 N662 1.427 . S
C659 H649 0.929 . S
C659 C657 1.433 . S
C659 N662 1.384 . S
C660 H651 0.929 . S
C660 C652 1.378 . S
C660 C655 1.350 . S
C661 H648 0.929 . S
C661 C653 1.433 . S
C661 N663 1.384 . S
N662 C658 1.427 . S
N662 C659 1.384 . S
N663 C655 1.427 . S
N663 C661 1.384 . S
H664 C670 0.930 . S
H665 C674 0.930 . S
H666 C679 0.929 . S
H667 C677 0.929 . S
H668 C672 0.929 . S
H669 C678 0.929 . S
C670 H664 0.930 . S
C670 C671 1.367 . S
C670 C678 1.378 . S
C671 C670 1.367 . S
C671 C679 1.433 . S
C672 H668 0.929 . S
C672 C674 1.378 . S
C672 C676 1.350 . S
C673 C676 1.463 1_565 S
C673 C678 1.350 . S
C673 N681 1.427 . S
C674 H665 0.930 . S
C674 C672 1.378 . S
C674 C675 1.367 . S
C675 C674 1.367 . S
C675 C677 1.433 . S
C676 C672 1.350 . S
C676 C673 1.463 1_545 S
C676 N680 1.427 . S
C677 H667 0.929 . S
C677 C675 1.433 . S
C677 N680 1.384 . S
C678 H669 0.929 . S
C678 C670 1.378 . S
C678 C673 1.350 . S
C679 H666 0.929 . S
C679 C671 1.433 . S
C679 N681 1.384 . S
N680 C676 1.427 . S
N680 C677 1.384 . S
N681 C673 1.427 . S
N681 C679 1.384 . S
H682 C688 0.930 . S
H683 C692 0.930 . S
H684 C697 0.929 1_554 S
H685 C695 0.929 1_556 S
H686 C690 0.929 1_565 S
H687 C696 0.929 1_545 S
C688 H682 0.930 . S
C688 C689 1.367 . S
C688 C696 1.378 . S
C689 C688 1.367 . S
C689 C697 1.433 . S
C690 H686 0.929 1_545 S
C690 C692 1.378 . S
C690 C694 1.350 . S
C691 C694 1.463 1_466 S
C691 C696 1.350 . S
C691 N699 1.420 1_456 S
C692 H683 0.930 . S
C692 C690 1.378 . S
C692 C693 1.367 . S
C693 C692 1.367 . S
C693 C695 1.433 . S
C694 C690 1.350 . S
C694 C691 1.463 1_644 S
C694 N698 1.420 1_654 S
C695 H685 0.929 1_554 S
C695 C693 1.433 . S
C695 N698 1.372 1_654 S
C696 H687 0.929 1_565 S
C696 C688 1.378 . S
C696 C691 1.350 . S
C697 H684 0.929 1_556 S
C697 C689 1.433 . S
C697 N699 1.372 1_456 S
N698 C694 1.420 1_456 S
N698 C695 1.372 1_456 S
N699 C691 1.420 1_654 S
N699 C697 1.372 1_654 S
H700 C706 0.930 . S
H701 C710 0.930 . S
H702 C715 0.929 . S
H703 C713 0.929 . S
H704 C708 0.929 . S
H705 C714 0.929 . S
C706 H700 0.930 . S
C706 C707 1.367 . S
C706 C714 1.378 . S
C707 C706 1.367 . S
C707 C715 1.433 1_556 S
C708 H704 0.929 . S
C708 C710 1.378 . S
C708 C712 1.350 . S
C709 C712 1.463 1_546 S
C709 C714 1.350 . S
C709 N717 1.427 1_556 S
C710 H701 0.930 . S
C710 C708 1.378 . S
C710 C711 1.367 . S
C711 C710 1.367 . S
C711 C713 1.433 1_554 S
C712 C708 1.350 . S
C712 C709 1.463 1_564 S
C712 N716 1.427 1_554 S
C713 H703 0.929 . S
C713 C711 1.433 1_556 S
C713 N716 1.384 . S
C714 H705 0.929 . S
C714 C706 1.378 . S
C714 C709 1.350 . S
C715 H702 0.929 . S
C715 C707 1.433 1_554 S
C715 N717 1.384 . S
N716 C712 1.427 1_556 S
N716 C713 1.384 . S
N717 C709 1.427 1_554 S
N717 C715 1.384 . S
H718 C724 0.930 . S
H719 C728 0.930 . S
H720 C733 0.929 . S
H721 C731 0.929 . S
H722 C726 0.929 . S
H723 C732 0.929 . S
C724 H718 0.930 . S
C724 C725 1.367 . S
C724 C732 1.378 . S
C725 C724 1.367 . S
C725 C733 1.433 . S
C726 H722 0.929 . S
C726 C728 1.378 . S
C726 C730 1.350 . S
C727 C730 1.463 1_445 S
C727 C732 1.350 . S
C727 N735 1.427 1_455 S
C728 H719 0.930 . S
C728 C726 1.378 . S
C728 C729 1.367 . S
C729 C728 1.367 . S
C729 C731 1.433 . S
C730 C726 1.350 . S
C730 C727 1.463 1_665 S
C730 N734 1.427 1_655 S
C731 H721 0.929 . S
C731 C729 1.433 . S
C731 N734 1.384 1_655 S
C732 H723 0.929 . S
C732 C724 1.378 . S
C732 C727 1.350 . S
C733 H720 0.929 . S
C733 C725 1.433 . S
C733 N735 1.384 1_455 S
N734 C730 1.427 1_455 S
N734 C731 1.384 1_455 S
N735 C727 1.427 1_655 S
N735 C733 1.384 1_655 S
H736 C742 0.917 1_455 S
H737 C746 0.917 1_655 S
H738 C751 0.929 . S
H739 C749 0.929 . S
H740 C744 0.929 . S
H741 C750 0.929 . S
C742 H736 0.917 1_655 S
C742 C743 1.367 . S
C742 C750 1.378 1_655 S
C743 C742 1.367 . S
C743 C751 1.433 . S
C744 H740 0.929 . S
C744 C746 1.378 1_655 S
C744 C748 1.350 1_655 S
C745 C748 1.463 1_655 S
C745 C750 1.350 1_655 S
C745 N753 1.427 . S
C746 H737 0.917 1_455 S
C746 C744 1.378 1_455 S
C746 C747 1.367 . S
C747 C746 1.367 . S
C747 C749 1.433 . S
C748 C744 1.350 1_455 S
C748 C745 1.463 1_455 S
C748 N752 1.427 . S
C749 H739 0.929 . S
C749 C747 1.433 . S
C749 N752 1.384 . S
C750 H741 0.929 . S
C750 C742 1.378 1_455 S
C750 C745 1.350 1_455 S
C751 H738 0.929 . S
C751 C743 1.433 . S
C751 N753 1.384 . S
N752 C748 1.427 . S
N752 C749 1.384 . S
N753 C745 1.427 . S
N753 C751 1.384 . S
H754 C760 0.930 . S
H755 C764 0.930 . S
H756 C769 0.929 . S
H757 C767 0.929 . S
H758 C762 0.928 . S
H759 C768 0.928 . S
C760 H754 0.930 . S
C760 C761 1.367 . S
C760 C768 1.378 . S
C761 C760 1.367 . S
C761 C769 1.433 . S
C762 H758 0.928 . S
C762 C764 1.378 . S
C762 C766 1.350 . S
C763 C766 1.463 1_455 S
C763 C768 1.350 . S
C763 N771 1.427 . S
C764 H755 0.930 . S
C764 C762 1.378 . S
C764 C765 1.367 . S
C765 C764 1.367 . S
C765 C767 1.433 . S
C766 C762 1.350 . S
C766 C763 1.463 1_655 S
C766 N770 1.427 . S
C767 H757 0.929 . S
C767 C765 1.433 . S
C767 N770 1.384 . S
C768 H759 0.928 . S
C768 C760 1.378 . S
C768 C763 1.350 . S
C769 H756 0.929 . S
C769 C761 1.433 . S
C769 N771 1.384 . S
N770 C766 1.427 . S
N770 C767 1.384 . S
N771 C763 1.427 . S
N771 C769 1.384 . S
H772 C778 0.930 . S
H773 C782 0.930 . S
H774 C787 0.929 . S
H775 C785 0.929 . S
H776 C780 0.929 . S
H777 C786 0.929 . S
C778 H772 0.930 . S
C778 C779 1.367 . S
C778 C786 1.378 . S
C779 C778 1.367 . S
C779 C787 1.433 . S
C780 H776 0.929 . S
C780 C782 1.378 . S
C780 C784 1.350 . S
C781 C784 1.463 . S
C781 C786 1.350 . S
C781 N789 1.427 . S
C782 H773 0.930 . S
C782 C780 1.378 . S
C782 C783 1.367 . S
C783 C782 1.367 . S
C783 C785 1.433 . S
C784 C780 1.350 . S
C784 C781 1.463 . S
C784 N788 1.427 . S
C785 H775 0.929 . S
C785 C783 1.433 . S
C785 N788 1.384 . S
C786 H777 0.929 . S
C786 C778 1.378 . S
C786 C781 1.350 . S
C787 H774 0.929 . S
C787 C779 1.433 . S
C787 N789 1.384 . S
N788 C784 1.427 . S
N788 C785 1.384 . S
N789 C781 1.427 . S
N789 C787 1.384 . S
H790 C796 0.930 . S
H791 C800 0.930 . S
H792 C805 0.929 . S
H793 C803 0.929 . S
H794 C798 0.929 . S
H795 C804 0.929 . S
C796 H790 0.930 . S
C796 C797 1.367 . S
C796 C804 1.378 . S
C797 C796 1.367 . S
C797 C805 1.433 . S
C798 H794 0.929 . S
C798 C800 1.378 . S
C798 C802 1.350 . S
C799 C802 1.463 . S
C799 C804 1.350 . S
C799 N807 1.427 . S
C800 H791 0.930 . S
C800 C798 1.378 . S
C800 C801 1.367 . S
C801 C800 1.367 . S
C801 C803 1.433 . S
C802 C798 1.350 . S
C802 C799 1.463 . S
C802 N806 1.427 . S
C803 H793 0.929 . S
C803 C801 1.433 . S
C803 N806 1.384 . S
C804 H795 0.929 . S
C804 C796 1.378 . S
C804 C799 1.350 . S
C805 H792 0.929 . S
C805 C797 1.433 . S
C805 N807 1.384 . S
N806 C802 1.427 . S
N806 C803 1.384 . S
N807 C799 1.427 . S
N807 C805 1.384 . S
H808 C814 0.930 . S
H809 C818 0.930 . S
H810 C823 0.929 . S
H811 C821 0.929 . S
H812 C816 0.929 . S
H813 C822 0.929 . S
C814 H808 0.930 . S
C814 C815 1.367 . S
C814 C822 1.378 . S
C815 C814 1.367 . S
C815 C823 1.433 . S
C816 H812 0.929 . S
C816 C818 1.378 . S
C816 C820 1.350 . S
C817 C820 1.463 1_655 S
C817 C822 1.350 . S
C817 N825 1.427 . S
C818 H809 0.930 . S
C818 C816 1.378 . S
C818 C819 1.367 . S
C819 C818 1.367 . S
C819 C821 1.433 . S
C820 C816 1.350 . S
C820 C817 1.463 1_455 S
C820 N824 1.427 . S
C821 H811 0.929 . S
C821 C819 1.433 . S
C821 N824 1.384 . S
C822 H813 0.929 . S
C822 C814 1.378 . S
C822 C817 1.350 . S
C823 H810 0.929 . S
C823 C815 1.433 . S
C823 N825 1.384 . S
N824 C820 1.427 . S
N824 C821 1.384 . S
N825 C817 1.427 . S
N825 C823 1.384 . S
H826 C832 0.930 . S
H827 C836 0.930 . S
H828 C841 0.929 . S
H829 C839 0.929 . S
H830 C834 0.929 . S
H831 C840 0.929 . S
C832 H826 0.930 . S
C832 C833 1.367 . S
C832 C840 1.378 . S
C833 C832 1.367 . S
C833 C841 1.433 . S
C834 H830 0.929 . S
C834 C836 1.378 . S
C834 C838 1.350 . S
C835 C838 1.463 . S
C835 C840 1.350 . S
C835 N843 1.427 . S
C836 H827 0.930 . S
C836 C834 1.378 . S
C836 C837 1.367 . S
C837 C836 1.367 . S
C837 C839 1.433 . S
C838 C834 1.350 . S
C838 C835 1.463 . S
C838 N842 1.427 . S
C839 H829 0.929 . S
C839 C837 1.433 . S
C839 N842 1.384 . S
C840 H831 0.929 . S
C840 C832 1.378 . S
C840 C835 1.350 . S
C841 H828 0.929 . S
C841 C833 1.433 . S
C841 N843 1.384 . S
N842 C838 1.427 . S
N842 C839 1.384 . S
N843 C835 1.427 . S
N843 C841 1.384 . S
H844 C850 0.930 . S
H845 C854 0.930 . S
H846 C859 0.929 . S
H847 C857 0.929 . S
H848 C852 0.929 . S
H849 C858 0.929 . S
C850 H844 0.930 . S
C850 C851 1.367 . S
C850 C858 1.378 . S
C851 C850 1.367 . S
C851 C859 1.433 . S
C852 H848 0.929 . S
C852 C854 1.378 . S
C852 C856 1.350 . S
C853 C856 1.463 . S
C853 C858 1.350 . S
C853 N861 1.427 . S
C854 H845 0.930 . S
C854 C852 1.378 . S
C854 C855 1.367 . S
C855 C854 1.367 . S
C855 C857 1.433 . S
C856 C852 1.350 . S
C856 C853 1.463 . S
C856 N860 1.427 . S
C857 H847 0.929 . S
C857 C855 1.433 . S
C857 N860 1.384 . S
C858 H849 0.929 . S
C858 C850 1.378 . S
C858 C853 1.350 . S
C859 H846 0.929 . S
C859 C851 1.433 . S
C859 N861 1.384 . S
N860 C856 1.427 . S
N860 C857 1.384 . S
N861 C853 1.427 . S
N861 C859 1.384 . S
H862 C868 0.930 . S
H863 C872 0.930 . S
H864 C877 0.929 . S
H865 C875 0.929 . S
H866 C870 0.929 . S
H867 C876 0.929 . S
C868 H862 0.930 . S
C868 C869 1.367 . S
C868 C876 1.378 . S
C869 C868 1.367 . S
C869 C877 1.433 . S
C870 H866 0.929 . S
C870 C872 1.378 . S
C870 C874 1.350 . S
C871 C874 1.463 1_455 S
C871 C876 1.350 . S
C871 N879 1.427 . S
C872 H863 0.930 . S
C872 C870 1.378 . S
C872 C873 1.367 . S
C873 C872 1.367 . S
C873 C875 1.433 . S
C874 C870 1.350 . S
C874 C871 1.463 1_655 S
C874 N878 1.427 . S
C875 H865 0.929 . S
C875 C873 1.433 . S
C875 N878 1.384 . S
C876 H867 0.929 . S
C876 C868 1.378 . S
C876 C871 1.350 . S
C877 H864 0.929 . S
C877 C869 1.433 . S
C877 N879 1.384 . S
N878 C874 1.427 . S
N878 C875 1.384 . S
N879 C871 1.427 . S
N879 C877 1.384 . S
H880 C886 0.930 . S
H881 C890 0.930 . S
H882 C895 0.929 . S
H883 C893 0.929 . S
H884 C888 0.929 1_655 S
H885 C894 0.929 1_455 S
C886 H880 0.930 . S
C886 C887 1.367 . S
C886 C894 1.378 . S
C887 C886 1.367 . S
C887 C895 1.433 . S
C888 H884 0.929 1_455 S
C888 C890 1.378 . S
C888 C892 1.350 . S
C889 C892 1.463 1_655 S
C889 C894 1.350 . S
C889 N897 1.427 . S
C890 H881 0.930 . S
C890 C888 1.378 . S
C890 C891 1.367 . S
C891 C890 1.367 . S
C891 C893 1.433 . S
C892 C888 1.350 . S
C892 C889 1.463 1_455 S
C892 N896 1.427 . S
C893 H883 0.929 . S
C893 C891 1.433 . S
C893 N896 1.384 . S
C894 H885 0.929 1_655 S
C894 C886 1.378 . S
C894 C889 1.350 . S
C895 H882 0.929 . S
C895 C887 1.433 . S
C895 N897 1.384 . S
N896 C892 1.427 . S
N896 C893 1.384 . S
N897 C889 1.427 . S
N897 C895 1.384 . S
H898 C904 0.930 . S
H899 C908 0.930 . S
H900 C913 0.929 . S
H901 C911 0.929 . S
H902 C906 0.929 . S
H903 C912 0.929 . S
C904 H898 0.930 . S
C904 C905 1.367 . S
C904 C912 1.378 . S
C905 C904 1.367 . S
C905 C913 1.433 . S
C906 H902 0.929 . S
C906 C908 1.378 . S
C906 C910 1.350 . S
C907 C910 1.463 1_655 S
C907 C912 1.350 . S
C907 N915 1.427 . S
C908 H899 0.930 . S
C908 C906 1.378 . S
C908 C909 1.367 . S
C909 C908 1.367 . S
C909 C911 1.433 . S
C910 C906 1.350 . S
C910 C907 1.463 1_455 S
C910 N914 1.427 . S
C911 H901 0.929 . S
C911 C909 1.433 . S
C911 N914 1.384 . S
C912 H903 0.929 . S
C912 C904 1.378 . S
C912 C907 1.350 . S
C913 H900 0.929 . S
C913 C905 1.433 . S
C913 N915 1.384 . S
N914 C910 1.427 . S
N914 C911 1.384 . S
N915 C907 1.427 . S
N915 C913 1.384 . S
H916 C922 0.930 . S
H917 C926 0.930 . S
H918 C931 0.929 . S
H919 C929 0.929 . S
H920 C924 0.929 . S
H921 C930 0.929 . S
C922 H916 0.930 . S
C922 C923 1.367 . S
C922 C930 1.378 . S
C923 C922 1.367 . S
C923 C931 1.433 . S
C924 H920 0.929 . S
C924 C926 1.378 . S
C924 C928 1.350 . S
C925 C928 1.463 . S
C925 C930 1.350 . S
C925 N933 1.427 . S
C926 H917 0.930 . S
C926 C924 1.378 . S
C926 C927 1.367 . S
C927 C926 1.367 . S
C927 C929 1.433 . S
C928 C924 1.350 . S
C928 C925 1.463 . S
C928 N932 1.427 . S
C929 H919 0.929 . S
C929 C927 1.433 . S
C929 N932 1.384 . S
C930 H921 0.929 . S
C930 C922 1.378 . S
C930 C925 1.350 . S
C931 H918 0.929 . S
C931 C923 1.433 . S
C931 N933 1.384 . S
N932 C928 1.427 . S
N932 C929 1.384 . S
N933 C925 1.427 . S
N933 C931 1.384 . S
H934 C940 0.930 . S
H935 C944 0.930 . S
H936 C949 0.929 . S
H937 C947 0.929 . S
H938 C942 0.929 . S
H939 C948 0.929 . S
C940 H934 0.930 . S
C940 C941 1.367 . S
C940 C948 1.378 . S
C941 C940 1.367 . S
C941 C949 1.433 . S
C942 H938 0.929 . S
C942 C944 1.378 . S
C942 C946 1.350 . S
C943 C946 1.463 . S
C943 C948 1.350 . S
C943 N951 1.427 . S
C944 H935 0.930 . S
C944 C942 1.378 . S
C944 C945 1.367 . S
C945 C944 1.367 . S
C945 C947 1.433 . S
C946 C942 1.350 . S
C946 C943 1.463 . S
C946 N950 1.427 . S
C947 H937 0.929 . S
C947 C945 1.433 . S
C947 N950 1.384 . S
C948 H939 0.929 . S
C948 C940 1.378 . S
C948 C943 1.350 . S
C949 H936 0.929 . S
C949 C941 1.433 . S
C949 N951 1.384 . S
N950 C946 1.427 . S
N950 C947 1.384 . S
N951 C943 1.427 . S
N951 C949 1.384 . S
H952 C958 0.930 . S
H953 C962 0.930 . S
H954 C967 0.929 . S
H955 C965 0.929 . S
H956 C960 0.929 . S
H957 C966 0.929 . S
C958 H952 0.930 . S
C958 C959 1.367 . S
C958 C966 1.378 . S
C959 C958 1.367 . S
C959 C967 1.433 . S
C960 H956 0.929 . S
C960 C962 1.378 . S
C960 C964 1.350 . S
C961 C964 1.463 1_655 S
C961 C966 1.350 . S
C961 N969 1.427 . S
C962 H953 0.930 . S
C962 C960 1.378 . S
C962 C963 1.367 . S
C963 C962 1.367 . S
C963 C965 1.433 . S
C964 C960 1.350 . S
C964 C961 1.463 1_455 S
C964 N968 1.427 . S
C965 H955 0.929 . S
C965 C963 1.433 . S
C965 N968 1.384 . S
C966 H957 0.929 . S
C966 C958 1.378 . S
C966 C961 1.350 . S
C967 H954 0.929 . S
C967 C959 1.433 . S
C967 N969 1.384 . S
N968 C964 1.427 . S
N968 C965 1.384 . S
N969 C961 1.427 . S
N969 C967 1.384 . S
H970 C976 0.930 . S
H971 C980 0.930 . S
H972 C985 0.929 . S
H973 C983 0.929 . S
H974 C978 0.929 . S
H975 C984 0.929 . S
C976 H970 0.930 . S
C976 C977 1.367 . S
C976 C984 1.378 . S
C977 C976 1.367 . S
C977 C985 1.433 . S
C978 H974 0.929 . S
C978 C980 1.378 . S
C978 C982 1.350 . S
C979 C982 1.463 . S
C979 C984 1.350 . S
C979 N987 1.427 . S
C980 H971 0.930 . S
C980 C978 1.378 . S
C980 C981 1.367 . S
C981 C980 1.367 . S
C981 C983 1.433 . S
C982 C978 1.350 . S
C982 C979 1.463 . S
C982 N986 1.427 . S
C983 H973 0.929 . S
C983 C981 1.433 . S
C983 N986 1.384 . S
C984 H975 0.929 . S
C984 C976 1.378 . S
C984 C979 1.350 . S
C985 H972 0.929 . S
C985 C977 1.433 . S
C985 N987 1.384 . S
N986 C982 1.427 . S
N986 C983 1.384 . S
N987 C979 1.427 . S
N987 C985 1.384 . S
H988 C994 0.930 . S
H989 C998 0.930 . S
H990 C1003 0.929 . S
H991 C1001 0.929 . S
H992 C996 0.929 . S
H993 C1002 0.929 . S
C994 H988 0.930 . S
C994 C995 1.367 . S
C994 C1002 1.378 . S
C995 C994 1.367 . S
C995 C1003 1.433 . S
C996 H992 0.929 . S
C996 C998 1.378 . S
C996 C1000 1.350 . S
C997 C1000 1.463 . S
C997 C1002 1.350 . S
C997 N1005 1.427 . S
C998 H989 0.930 . S
C998 C996 1.378 . S
C998 C999 1.367 . S
C999 C998 1.367 . S
C999 C1001 1.433 . S
C1000 C996 1.350 . S
C1000 C997 1.463 . S
C1000 N1004 1.427 . S
C1001 H991 0.929 . S
C1001 C999 1.433 . S
C1001 N1004 1.384 . S
C1002 H993 0.929 . S
C1002 C994 1.378 . S
C1002 C997 1.350 . S
C1003 H990 0.929 . S
C1003 C995 1.433 . S
C1003 N1005 1.384 . S
N1004 C1000 1.427 . S
N1004 C1001 1.384 . S
N1005 C997 1.427 . S
N1005 C1003 1.384 . S
H1006 C1012 0.930 . S
H1007 C1016 0.930 . S
H1008 C1021 0.929 . S
H1009 C1019 0.929 . S
H1010 C1014 0.929 . S
H1011 C1020 0.929 . S
C1012 H1006 0.930 . S
C1012 C1013 1.367 . S
C1012 C1020 1.378 . S
C1013 C1012 1.367 . S
C1013 C1021 1.433 . S
C1014 H1010 0.929 . S
C1014 C1016 1.378 . S
C1014 C1018 1.350 . S
C1015 C1018 1.463 1_655 S
C1015 C1020 1.350 . S
C1015 N1023 1.427 . S
C1016 H1007 0.930 . S
C1016 C1014 1.378 . S
C1016 C1017 1.367 . S
C1017 C1016 1.367 . S
C1017 C1019 1.433 . S
C1018 C1014 1.350 . S
C1018 C1015 1.463 1_455 S
C1018 N1022 1.427 . S
C1019 H1009 0.929 . S
C1019 C1017 1.433 . S
C1019 N1022 1.384 . S
C1020 H1011 0.929 . S
C1020 C1012 1.378 . S
C1020 C1015 1.350 . S
C1021 H1008 0.929 . S
C1021 C1013 1.433 . S
C1021 N1023 1.384 . S
N1022 C1018 1.427 . S
N1022 C1019 1.384 . S
N1023 C1015 1.427 . S
N1023 C1021 1.384 . S
H1024 C1030 0.930 . S
H1025 C1034 0.930 . S
H1026 C1039 0.929 . S
H1027 C1037 0.929 . S
H1028 C1032 0.929 . S
H1029 C1038 0.929 . S
C1030 H1024 0.930 . S
C1030 C1031 1.367 . S
C1030 C1038 1.378 . S
C1031 C1030 1.367 . S
C1031 C1039 1.433 . S
C1032 H1028 0.929 . S
C1032 C1034 1.378 . S
C1032 C1036 1.350 . S
C1033 C1036 1.463 1_556 S
C1033 C1038 1.350 . S
C1033 N1041 1.427 . S
C1034 H1025 0.930 . S
C1034 C1032 1.378 . S
C1034 C1035 1.367 . S
C1035 C1034 1.367 . S
C1035 C1037 1.433 . S
C1036 C1032 1.350 . S
C1036 C1033 1.463 1_554 S
C1036 N1040 1.427 . S
C1037 H1027 0.929 . S
C1037 C1035 1.433 . S
C1037 N1040 1.384 . S
C1038 H1029 0.929 . S
C1038 C1030 1.378 . S
C1038 C1033 1.350 . S
C1039 H1026 0.929 . S
C1039 C1031 1.433 . S
C1039 N1041 1.384 . S
N1040 C1036 1.427 . S
N1040 C1037 1.384 . S
N1041 C1033 1.427 . S
N1041 C1039 1.384 . S
H1042 C1048 0.930 . S
H1043 C1052 0.930 . S
H1044 C1057 0.929 . S
H1045 C1055 0.929 . S
H1046 C1050 0.929 . S
H1047 C1056 0.929 . S
C1048 H1042 0.930 . S
C1048 C1049 1.367 . S
C1048 C1056 1.378 . S
C1049 C1048 1.367 . S
C1049 C1057 1.433 . S
C1050 H1046 0.929 . S
C1050 C1052 1.378 . S
C1050 C1054 1.350 . S
C1051 C1054 1.463 1_545 S
C1051 C1056 1.350 . S
C1051 N1059 1.427 . S
C1052 H1043 0.930 . S
C1052 C1050 1.378 . S
C1052 C1053 1.367 . S
C1053 C1052 1.367 . S
C1053 C1055 1.433 . S
C1054 C1050 1.350 . S
C1054 C1051 1.463 1_565 S
C1054 N1058 1.427 . S
C1055 H1045 0.929 . S
C1055 C1053 1.433 . S
C1055 N1058 1.384 . S
C1056 H1047 0.929 . S
C1056 C1048 1.378 . S
C1056 C1051 1.350 . S
C1057 H1044 0.929 . S
C1057 C1049 1.433 . S
C1057 N1059 1.384 . S
N1058 C1054 1.427 . S
N1058 C1055 1.384 . S
N1059 C1051 1.427 . S
N1059 C1057 1.384 . S
H1060 C1066 0.930 . S
H1061 C1070 0.930 . S
H1062 C1075 0.929 . S
H1063 C1073 0.929 . S
H1064 C1068 0.929 . S
H1065 C1074 0.929 . S
C1066 H1060 0.930 . S
C1066 C1067 1.367 . S
C1066 C1074 1.378 . S
C1067 C1066 1.367 . S
C1067 C1075 1.433 . S
C1068 H1064 0.929 . S
C1068 C1070 1.378 . S
C1068 C1072 1.350 . S
C1069 C1072 1.463 . S
C1069 C1074 1.350 . S
C1069 N1077 1.427 . S
C1070 H1061 0.930 . S
C1070 C1068 1.378 . S
C1070 C1071 1.367 . S
C1071 C1070 1.367 . S
C1071 C1073 1.433 . S
C1072 C1068 1.350 . S
C1072 C1069 1.463 . S
C1072 N1076 1.427 . S
C1073 H1063 0.929 . S
C1073 C1071 1.433 . S
C1073 N1076 1.384 . S
C1074 H1065 0.929 . S
C1074 C1066 1.378 . S
C1074 C1069 1.350 . S
C1075 H1062 0.929 . S
C1075 C1067 1.433 . S
C1075 N1077 1.384 . S
N1076 C1072 1.427 . S
N1076 C1073 1.384 . S
N1077 C1069 1.427 . S
N1077 C1075 1.384 . S
H1078 C1084 0.930 . S
H1079 C1088 0.930 . S
H1080 C1093 0.929 . S
H1081 C1091 0.929 . S
H1082 C1086 0.929 . S
H1083 C1092 0.929 . S
C1084 H1078 0.930 . S
C1084 C1085 1.367 . S
C1084 C1092 1.378 . S
C1085 C1084 1.367 . S
C1085 C1093 1.433 . S
C1086 H1082 0.929 . S
C1086 C1088 1.378 . S
C1086 C1090 1.350 . S
C1087 C1090 1.463 1_545 S
C1087 C1092 1.350 . S
C1087 N1095 1.427 . S
C1088 H1079 0.930 . S
C1088 C1086 1.378 . S
C1088 C1089 1.367 . S
C1089 C1088 1.367 . S
C1089 C1091 1.433 . S
C1090 C1086 1.350 . S
C1090 C1087 1.463 1_565 S
C1090 N1094 1.427 . S
C1091 H1081 0.929 . S
C1091 C1089 1.433 . S
C1091 N1094 1.384 . S
C1092 H1083 0.929 . S
C1092 C1084 1.378 . S
C1092 C1087 1.350 . S
C1093 H1080 0.929 . S
C1093 C1085 1.433 . S
C1093 N1095 1.384 . S
N1094 C1090 1.427 . S
N1094 C1091 1.384 . S
N1095 C1087 1.427 . S
N1095 C1093 1.384 . S
H1096 C1102 0.930 . S
H1097 C1106 0.930 . S
H1098 C1111 0.929 . S
H1099 C1109 0.929 . S
H1100 C1104 0.929 . S
H1101 C1110 0.929 . S
C1102 H1096 0.930 . S
C1102 C1103 1.367 . S
C1102 C1110 1.378 . S
C1103 C1102 1.367 . S
C1103 C1111 1.433 . S
C1104 H1100 0.929 . S
C1104 C1106 1.378 . S
C1104 C1108 1.350 . S
C1105 C1108 1.463 1_554 S
C1105 C1110 1.350 . S
C1105 N1113 1.427 . S
C1106 H1097 0.930 . S
C1106 C1104 1.378 . S
C1106 C1107 1.367 . S
C1107 C1106 1.367 . S
C1107 C1109 1.433 . S
C1108 C1104 1.350 . S
C1108 C1105 1.463 1_556 S
C1108 N1112 1.427 . S
C1109 H1099 0.929 . S
C1109 C1107 1.433 . S
C1109 N1112 1.384 . S
C1110 H1101 0.929 . S
C1110 C1102 1.378 . S
C1110 C1105 1.350 . S
C1111 H1098 0.929 . S
C1111 C1103 1.433 . S
C1111 N1113 1.384 . S
N1112 C1108 1.427 . S
N1112 C1109 1.384 . S
N1113 C1105 1.427 . S
N1113 C1111 1.384 . S
H1114 C1120 0.930 . S
H1115 C1124 0.930 . S
H1116 C1129 0.929 . S
H1117 C1127 0.929 . S
H1118 C1122 0.915 1_565 S
H1119 C1128 0.915 1_545 S
C1120 H1114 0.930 . S
C1120 C1121 1.367 . S
C1120 C1128 1.378 . S
C1121 C1120 1.367 . S
C1121 C1129 1.433 . S
C1122 H1118 0.915 1_545 S
C1122 C1124 1.378 . S
C1122 C1126 1.350 . S
C1123 C1126 1.463 1_565 S
C1123 C1128 1.350 . S
C1123 N1131 1.427 . S
C1124 H1115 0.930 . S
C1124 C1122 1.378 . S
C1124 C1125 1.367 . S
C1125 C1124 1.367 . S
C1125 C1127 1.433 . S
C1126 C1122 1.350 . S
C1126 C1123 1.463 1_545 S
C1126 N1130 1.427 . S
C1127 H1117 0.929 . S
C1127 C1125 1.433 . S
C1127 N1130 1.384 . S
C1128 H1119 0.915 1_565 S
C1128 C1120 1.378 . S
C1128 C1123 1.350 . S
C1129 H1116 0.929 . S
C1129 C1121 1.433 . S
C1129 N1131 1.384 . S
N1130 C1126 1.427 . S
N1130 C1127 1.384 . S
N1131 C1123 1.427 . S
N1131 C1129 1.384 . S
H1132 C1138 0.930 . S
H1133 C1142 0.930 . S
H1134 C1147 0.929 . S
H1135 C1145 0.929 . S
H1136 C1140 0.929 . S
H1137 C1146 0.929 . S
C1138 H1132 0.930 . S
C1138 C1139 1.367 . S
C1138 C1146 1.378 . S
C1139 C1138 1.367 . S
C1139 C1147 1.433 . S
C1140 H1136 0.929 . S
C1140 C1142 1.378 . S
C1140 C1144 1.350 . S
C1141 C1144 1.463 . S
C1141 C1146 1.350 . S
C1141 N1149 1.427 . S
C1142 H1133 0.930 . S
C1142 C1140 1.378 . S
C1142 C1143 1.367 . S
C1143 C1142 1.367 . S
C1143 C1145 1.433 . S
C1144 C1140 1.350 . S
C1144 C1141 1.463 . S
C1144 N1148 1.427 . S
C1145 H1135 0.929 . S
C1145 C1143 1.433 . S
C1145 N1148 1.384 . S
C1146 H1137 0.929 . S
C1146 C1138 1.378 . S
C1146 C1141 1.350 . S
C1147 H1134 0.929 . S
C1147 C1139 1.433 . S
C1147 N1149 1.384 . S
N1148 C1144 1.427 . S
N1148 C1145 1.384 . S
N1149 C1141 1.427 . S
N1149 C1147 1.384 . S
H1150 C1156 0.930 . S
H1151 C1160 0.930 . S
H1152 C1165 0.929 . S
H1153 C1163 0.929 . S
H1154 C1158 0.929 . S
H1155 C1164 0.929 . S
C1156 H1150 0.930 . S
C1156 C1157 1.367 . S
C1156 C1164 1.378 . S
C1157 C1156 1.367 . S
C1157 C1165 1.433 . S
C1158 H1154 0.929 . S
C1158 C1160 1.378 . S
C1158 C1162 1.350 . S
C1159 C1162 1.463 1_545 S
C1159 C1164 1.350 . S
C1159 N1167 1.427 . S
C1160 H1151 0.930 . S
C1160 C1158 1.378 . S
C1160 C1161 1.367 . S
C1161 C1160 1.367 . S
C1161 C1163 1.433 . S
C1162 C1158 1.350 . S
C1162 C1159 1.463 1_565 S
C1162 N1166 1.427 . S
C1163 H1153 0.929 . S
C1163 C1161 1.433 . S
C1163 N1166 1.384 . S
C1164 H1155 0.929 . S
C1164 C1156 1.378 . S
C1164 C1159 1.350 . S
C1165 H1152 0.929 . S
C1165 C1157 1.433 . S
C1165 N1167 1.384 . S
N1166 C1162 1.427 . S
N1166 C1163 1.384 . S
N1167 C1159 1.427 . S
N1167 C1165 1.384 . S
H1168 C1174 0.930 . S
H1169 C1178 0.930 . S
H1170 C1183 0.929 . S
H1171 C1181 0.929 . S
H1172 C1176 0.929 . S
H1173 C1182 0.929 . S
C1174 H1168 0.930 . S
C1174 C1175 1.367 . S
C1174 C1182 1.378 . S
C1175 C1174 1.367 . S
C1175 C1183 1.433 . S
C1176 H1172 0.929 . S
C1176 C1178 1.378 . S
C1176 C1180 1.350 . S
C1177 C1180 1.463 . S
C1177 C1182 1.350 . S
C1177 N1185 1.427 . S
C1178 H1169 0.930 . S
C1178 C1176 1.378 . S
C1178 C1179 1.367 . S
C1179 C1178 1.367 . S
C1179 C1181 1.433 . S
C1180 C1176 1.350 . S
C1180 C1177 1.463 . S
C1180 N1184 1.427 . S
C1181 H1171 0.929 . S
C1181 C1179 1.433 . S
C1181 N1184 1.384 . S
C1182 H1173 0.929 . S
C1182 C1174 1.378 . S
C1182 C1177 1.350 . S
C1183 H1170 0.929 . S
C1183 C1175 1.433 . S
C1183 N1185 1.384 . S
N1184 C1180 1.427 . S
N1184 C1181 1.384 . S
N1185 C1177 1.427 . S
N1185 C1183 1.384 . S
H1186 C1192 0.930 . S
H1187 C1196 0.930 . S
H1188 C1201 0.929 . S
H1189 C1199 0.929 . S
H1190 C1194 0.929 . S
H1191 C1200 0.929 . S
C1192 H1186 0.930 . S
C1192 C1193 1.367 . S
C1192 C1200 1.378 . S
C1193 C1192 1.367 . S
C1193 C1201 1.433 . S
C1194 H1190 0.929 . S
C1194 C1196 1.378 . S
C1194 C1198 1.350 . S
C1195 C1198 1.463 . S
C1195 C1200 1.350 . S
C1195 N1203 1.427 . S
C1196 H1187 0.930 . S
C1196 C1194 1.378 . S
C1196 C1197 1.367 . S
C1197 C1196 1.367 . S
C1197 C1199 1.433 . S
C1198 C1194 1.350 . S
C1198 C1195 1.463 . S
C1198 N1202 1.427 . S
C1199 H1189 0.929 . S
C1199 C1197 1.433 . S
C1199 N1202 1.384 . S
C1200 H1191 0.929 . S
C1200 C1192 1.378 . S
C1200 C1195 1.350 . S
C1201 H1188 0.929 . S
C1201 C1193 1.433 . S
C1201 N1203 1.384 . S
N1202 C1198 1.427 . S
N1202 C1199 1.384 . S
N1203 C1195 1.427 . S
N1203 C1201 1.384 . S
H1204 C1210 0.930 . S
H1205 C1214 0.930 . S
H1206 C1219 0.929 . S
H1207 C1217 0.929 . S
H1208 C1212 0.929 . S
H1209 C1218 0.929 . S
C1210 H1204 0.930 . S
C1210 C1211 1.367 . S
C1210 C1218 1.378 . S
C1211 C1210 1.367 . S
C1211 C1219 1.433 . S
C1212 H1208 0.929 . S
C1212 C1214 1.378 . S
C1212 C1216 1.350 . S
C1213 C1216 1.463 1_554 S
C1213 C1218 1.350 . S
C1213 N1221 1.419 1_554 S
C1214 H1205 0.930 . S
C1214 C1212 1.378 . S
C1214 C1215 1.367 . S
C1215 C1214 1.367 . S
C1215 C1217 1.433 . S
C1216 C1212 1.350 . S
C1216 C1213 1.463 1_556 S
C1216 N1220 1.419 1_556 S
C1217 H1207 0.929 . S
C1217 C1215 1.433 . S
C1217 N1220 1.369 1_556 S
C1218 H1209 0.929 . S
C1218 C1210 1.378 . S
C1218 C1213 1.350 . S
C1219 H1206 0.929 . S
C1219 C1211 1.433 . S
C1219 N1221 1.369 1_554 S
N1220 C1216 1.419 1_554 S
N1220 C1217 1.369 1_554 S
N1221 C1213 1.419 1_556 S
N1221 C1219 1.369 1_556 S
H1222 C1228 0.930 . S
H1223 C1232 0.930 . S
H1224 C1237 0.929 . S
H1225 C1235 0.929 . S
H1226 C1230 0.929 . S
H1227 C1236 0.929 . S
C1228 H1222 0.930 . S
C1228 C1229 1.367 . S
C1228 C1236 1.378 . S
C1229 C1228 1.367 . S
C1229 C1237 1.433 . S
C1230 H1226 0.929 . S
C1230 C1232 1.378 . S
C1230 C1234 1.350 . S
C1231 C1234 1.463 . S
C1231 C1236 1.350 . S
C1231 N1239 1.427 . S
C1232 H1223 0.930 . S
C1232 C1230 1.378 . S
C1232 C1233 1.367 . S
C1233 C1232 1.367 . S
C1233 C1235 1.433 . S
C1234 C1230 1.350 . S
C1234 C1231 1.463 . S
C1234 N1238 1.427 . S
C1235 H1225 0.929 . S
C1235 C1233 1.433 . S
C1235 N1238 1.384 . S
C1236 H1227 0.929 . S
C1236 C1228 1.378 . S
C1236 C1231 1.350 . S
C1237 H1224 0.929 . S
C1237 C1229 1.433 . S
C1237 N1239 1.384 . S
N1238 C1234 1.427 . S
N1238 C1235 1.384 . S
N1239 C1231 1.427 . S
N1239 C1237 1.384 . S
H1240 C1246 0.930 . S
H1241 C1250 0.930 . S
H1242 C1255 0.929 . S
H1243 C1253 0.929 . S
H1244 C1248 0.929 . S
H1245 C1254 0.929 . S
C1246 H1240 0.930 . S
C1246 C1247 1.367 . S
C1246 C1254 1.378 . S
C1247 C1246 1.367 . S
C1247 C1255 1.433 . S
C1248 H1244 0.929 . S
C1248 C1250 1.378 . S
C1248 C1252 1.350 . S
C1249 C1252 1.463 . S
C1249 C1254 1.350 . S
C1249 N1257 1.427 . S
C1250 H1241 0.930 . S
C1250 C1248 1.378 . S
C1250 C1251 1.367 . S
C1251 C1250 1.367 . S
C1251 C1253 1.433 . S
C1252 C1248 1.350 . S
C1252 C1249 1.463 . S
C1252 N1256 1.427 . S
C1253 H1243 0.929 . S
C1253 C1251 1.433 . S
C1253 N1256 1.384 . S
C1254 H1245 0.929 . S
C1254 C1246 1.378 . S
C1254 C1249 1.350 . S
C1255 H1242 0.929 . S
C1255 C1247 1.433 . S
C1255 N1257 1.384 . S
N1256 C1252 1.427 . S
N1256 C1253 1.384 . S
N1257 C1249 1.427 . S
N1257 C1255 1.384 . S
H1258 C1264 0.930 . S
H1259 C1268 0.930 . S
H1260 C1273 0.929 . S
H1261 C1271 0.929 . S
H1262 C1266 0.929 . S
H1263 C1272 0.929 . S
C1264 H1258 0.930 . S
C1264 C1265 1.367 . S
C1264 C1272 1.378 . S
C1265 C1264 1.367 . S
C1265 C1273 1.433 . S
C1266 H1262 0.929 . S
C1266 C1268 1.378 . S
C1266 C1270 1.350 . S
C1267 C1270 1.463 . S
C1267 C1272 1.350 . S
C1267 N1275 1.427 . S
C1268 H1259 0.930 . S
C1268 C1266 1.378 . S
C1268 C1269 1.367 . S
C1269 C1268 1.367 . S
C1269 C1271 1.433 . S
C1270 C1266 1.350 . S
C1270 C1267 1.463 . S
C1270 N1274 1.427 . S
C1271 H1261 0.929 . S
C1271 C1269 1.433 . S
C1271 N1274 1.384 . S
C1272 H1263 0.929 . S
C1272 C1264 1.378 . S
C1272 C1267 1.350 . S
C1273 H1260 0.929 . S
C1273 C1265 1.433 . S
C1273 N1275 1.384 . S
N1274 C1270 1.427 . S
N1274 C1271 1.384 . S
N1275 C1267 1.427 . S
N1275 C1273 1.384 . S
H1276 C1282 0.930 . S
H1277 C1286 0.930 . S
H1278 C1291 0.929 . S
H1279 C1289 0.929 . S
H1280 C1284 0.933 1_556 S
H1281 C1290 0.933 1_554 S
C1282 H1276 0.930 . S
C1282 C1283 1.367 . S
C1282 C1290 1.375 . S
C1283 C1282 1.367 . S
C1283 C1291 1.433 . S
C1284 H1280 0.933 1_554 S
C1284 C1286 1.375 . S
C1284 C1288 1.348 . S
C1285 C1288 1.463 1_556 S
C1285 C1290 1.348 . S
C1285 N1293 1.427 . S
C1286 H1277 0.930 . S
C1286 C1284 1.375 . S
C1286 C1287 1.367 . S
C1287 C1286 1.367 . S
C1287 C1289 1.433 . S
C1288 C1284 1.348 . S
C1288 C1285 1.463 1_554 S
C1288 N1292 1.427 . S
C1289 H1279 0.929 . S
C1289 C1287 1.433 . S
C1289 N1292 1.384 . S
C1290 H1281 0.933 1_556 S
C1290 C1282 1.375 . S
C1290 C1285 1.348 . S
C1291 H1278 0.929 . S
C1291 C1283 1.433 . S
C1291 N1293 1.384 . S
N1292 C1288 1.427 . S
N1292 C1289 1.384 . S
N1293 C1285 1.427 . S
N1293 C1291 1.384 . S
H1294 C1300 0.930 . S
H1295 C1304 0.930 . S
H1296 C1309 0.929 . S
H1297 C1307 0.929 . S
H1298 C1302 0.929 . S
H1299 C1308 0.929 . S
C1300 H1294 0.930 . S
C1300 C1301 1.367 . S
C1300 C1308 1.378 . S
C1301 C1300 1.367 . S
C1301 C1309 1.433 . S
C1302 H1298 0.929 . S
C1302 C1304 1.378 . S
C1302 C1306 1.350 . S
C1303 C1306 1.463 . S
C1303 C1308 1.350 . S
C1303 N1311 1.427 . S
C1304 H1295 0.930 . S
C1304 C1302 1.378 . S
C1304 C1305 1.367 . S
C1305 C1304 1.367 . S
C1305 C1307 1.433 . S
C1306 C1302 1.350 . S
C1306 C1303 1.463 . S
C1306 N1310 1.427 . S
C1307 H1297 0.929 . S
C1307 C1305 1.433 . S
C1307 N1310 1.384 . S
C1308 H1299 0.929 . S
C1308 C1300 1.378 . S
C1308 C1303 1.350 . S
C1309 H1296 0.929 . S
C1309 C1301 1.433 . S
C1309 N1311 1.384 . S
N1310 C1306 1.427 . S
N1310 C1307 1.384 . S
N1311 C1303 1.427 . S
N1311 C1309 1.384 . S
H1312 C1318 0.930 . S
H1313 C1322 0.930 . S
H1314 C1327 0.929 . S
H1315 C1325 0.929 . S
H1316 C1320 0.929 . S
H1317 C1326 0.929 . S
C1318 H1312 0.930 . S
C1318 C1319 1.367 . S
C1318 C1326 1.378 . S
C1319 C1318 1.367 . S
C1319 C1327 1.433 . S
C1320 H1316 0.929 . S
C1320 C1322 1.378 . S
C1320 C1324 1.350 . S
C1321 C1324 1.463 . S
C1321 C1326 1.350 . S
C1321 N1329 1.427 . S
C1322 H1313 0.930 . S
C1322 C1320 1.378 . S
C1322 C1323 1.367 . S
C1323 C1322 1.367 . S
C1323 C1325 1.433 . S
C1324 C1320 1.350 . S
C1324 C1321 1.463 . S
C1324 N1328 1.427 . S
C1325 H1315 0.929 . S
C1325 C1323 1.433 . S
C1325 N1328 1.384 . S
C1326 H1317 0.929 . S
C1326 C1318 1.378 . S
C1326 C1321 1.350 . S
C1327 H1314 0.929 . S
C1327 C1319 1.433 . S
C1327 N1329 1.384 . S
N1328 C1324 1.427 . S
N1328 C1325 1.384 . S
N1329 C1321 1.427 . S
N1329 C1327 1.384 . S
H1330 C1336 0.930 . S
H1331 C1340 0.930 . S
H1332 C1345 0.929 . S
H1333 C1343 0.929 . S
H1334 C1338 0.929 . S
H1335 C1344 0.929 . S
C1336 H1330 0.930 . S
C1336 C1337 1.367 . S
C1336 C1344 1.378 . S
C1337 C1336 1.367 . S
C1337 C1345 1.433 . S
C1338 H1334 0.929 . S
C1338 C1340 1.378 . S
C1338 C1342 1.350 . S
C1339 C1342 1.463 . S
C1339 C1344 1.350 . S
C1339 N1347 1.427 . S
C1340 H1331 0.930 . S
C1340 C1338 1.378 . S
C1340 C1341 1.367 . S
C1341 C1340 1.367 . S
C1341 C1343 1.433 . S
C1342 C1338 1.350 . S
C1342 C1339 1.463 . S
C1342 N1346 1.427 . S
C1343 H1333 0.929 . S
C1343 C1341 1.433 . S
C1343 N1346 1.384 . S
C1344 H1335 0.929 . S
C1344 C1336 1.378 . S
C1344 C1339 1.350 . S
C1345 H1332 0.929 . S
C1345 C1337 1.433 . S
C1345 N1347 1.384 . S
N1346 C1342 1.427 . S
N1346 C1343 1.384 . S
N1347 C1339 1.427 . S
N1347 C1345 1.384 . S
H1348 C1354 0.930 . S
H1349 C1358 0.930 . S
H1350 C1363 0.929 . S
H1351 C1361 0.929 . S
H1352 C1356 0.929 . S
H1353 C1362 0.929 . S
C1354 H1348 0.930 . S
C1354 C1355 1.367 . S
C1354 C1362 1.378 . S
C1355 C1354 1.367 . S
C1355 C1363 1.433 . S
C1356 H1352 0.929 . S
C1356 C1358 1.378 . S
C1356 C1360 1.350 . S
C1357 C1360 1.463 . S
C1357 C1362 1.350 . S
C1357 N1365 1.427 . S
C1358 H1349 0.930 . S
C1358 C1356 1.378 . S
C1358 C1359 1.367 . S
C1359 C1358 1.367 . S
C1359 C1361 1.433 . S
C1360 C1356 1.350 . S
C1360 C1357 1.463 . S
C1360 N1364 1.427 . S
C1361 H1351 0.929 . S
C1361 C1359 1.433 . S
C1361 N1364 1.384 . S
C1362 H1353 0.929 . S
C1362 C1354 1.378 . S
C1362 C1357 1.350 . S
C1363 H1350 0.929 . S
C1363 C1355 1.433 . S
C1363 N1365 1.384 . S
N1364 C1360 1.427 . S
N1364 C1361 1.384 . S
N1365 C1357 1.427 . S
N1365 C1363 1.384 . S
H1366 C1372 0.930 . S
H1367 C1376 0.930 . S
H1368 C1381 0.929 . S
H1369 C1379 0.929 . S
H1370 C1374 0.929 . S
H1371 C1380 0.929 . S
C1372 H1366 0.930 . S
C1372 C1373 1.367 . S
C1372 C1380 1.378 . S
C1373 C1372 1.367 . S
C1373 C1381 1.433 . S
C1374 H1370 0.929 . S
C1374 C1376 1.378 . S
C1374 C1378 1.350 . S
C1375 C1378 1.463 . S
C1375 C1380 1.350 . S
C1375 N1383 1.427 . S
C1376 H1367 0.930 . S
C1376 C1374 1.378 . S
C1376 C1377 1.367 . S
C1377 C1376 1.367 . S
C1377 C1379 1.433 . S
C1378 C1374 1.350 . S
C1378 C1375 1.463 . S
C1378 N1382 1.427 . S
C1379 H1369 0.929 . S
C1379 C1377 1.433 . S
C1379 N1382 1.384 . S
C1380 H1371 0.929 . S
C1380 C1372 1.378 . S
C1380 C1375 1.350 . S
C1381 H1368 0.929 . S
C1381 C1373 1.433 . S
C1381 N1383 1.384 . S
N1382 C1378 1.427 . S
N1382 C1379 1.384 . S
N1383 C1375 1.427 . S
N1383 C1381 1.384 . S
H1384 C1390 0.930 . S
H1385 C1394 0.930 . S
H1386 C1399 0.929 . S
H1387 C1397 0.929 . S
H1388 C1392 0.929 . S
H1389 C1398 0.929 . S
C1390 H1384 0.930 . S
C1390 C1391 1.367 . S
C1390 C1398 1.378 . S
C1391 C1390 1.367 . S
C1391 C1399 1.433 . S
C1392 H1388 0.929 . S
C1392 C1394 1.378 . S
C1392 C1396 1.350 . S
C1393 C1396 1.463 . S
C1393 C1398 1.350 . S
C1393 N1401 1.427 . S
C1394 H1385 0.930 . S
C1394 C1392 1.378 . S
C1394 C1395 1.367 . S
C1395 C1394 1.367 . S
C1395 C1397 1.433 . S
C1396 C1392 1.350 . S
C1396 C1393 1.463 . S
C1396 N1400 1.427 . S
C1397 H1387 0.929 . S
C1397 C1395 1.433 . S
C1397 N1400 1.384 . S
C1398 H1389 0.929 . S
C1398 C1390 1.378 . S
C1398 C1393 1.350 . S
C1399 H1386 0.929 . S
C1399 C1391 1.433 . S
C1399 N1401 1.384 . S
N1400 C1396 1.427 . S
N1400 C1397 1.384 . S
N1401 C1393 1.427 . S
N1401 C1399 1.384 . S
H1402 C1408 0.930 . S
H1403 C1412 0.930 . S
H1404 C1417 0.929 . S
H1405 C1415 0.929 . S
H1406 C1410 0.929 . S
H1407 C1416 0.929 . S
C1408 H1402 0.930 . S
C1408 C1409 1.367 . S
C1408 C1416 1.378 . S
C1409 C1408 1.367 . S
C1409 C1417 1.433 . S
C1410 H1406 0.929 . S
C1410 C1412 1.378 . S
C1410 C1414 1.350 . S
C1411 C1414 1.463 . S
C1411 C1416 1.350 . S
C1411 N1419 1.427 . S
C1412 H1403 0.930 . S
C1412 C1410 1.378 . S
C1412 C1413 1.367 . S
C1413 C1412 1.367 . S
C1413 C1415 1.433 . S
C1414 C1410 1.350 . S
C1414 C1411 1.463 . S
C1414 N1418 1.427 . S
C1415 H1405 0.929 . S
C1415 C1413 1.433 . S
C1415 N1418 1.384 . S
C1416 H1407 0.929 . S
C1416 C1408 1.378 . S
C1416 C1411 1.350 . S
C1417 H1404 0.929 . S
C1417 C1409 1.433 . S
C1417 N1419 1.384 . S
N1418 C1414 1.427 . S
N1418 C1415 1.384 . S
N1419 C1411 1.427 . S
N1419 C1417 1.384 . S
H1420 C1426 0.930 . S
H1421 C1430 0.930 . S
H1422 C1435 0.929 . S
H1423 C1433 0.929 . S
H1424 C1428 0.929 . S
H1425 C1434 0.929 . S
C1426 H1420 0.930 . S
C1426 C1427 1.367 . S
C1426 C1434 1.378 . S
C1427 C1426 1.367 . S
C1427 C1435 1.433 . S
C1428 H1424 0.929 . S
C1428 C1430 1.378 . S
C1428 C1432 1.350 . S
C1429 C1432 1.463 . S
C1429 C1434 1.350 . S
C1429 N1437 1.427 . S
C1430 H1421 0.930 . S
C1430 C1428 1.378 . S
C1430 C1431 1.367 . S
C1431 C1430 1.367 . S
C1431 C1433 1.433 . S
C1432 C1428 1.350 . S
C1432 C1429 1.463 . S
C1432 N1436 1.427 . S
C1433 H1423 0.929 . S
C1433 C1431 1.433 . S
C1433 N1436 1.384 . S
C1434 H1425 0.929 . S
C1434 C1426 1.378 . S
C1434 C1429 1.350 . S
C1435 H1422 0.929 . S
C1435 C1427 1.433 . S
C1435 N1437 1.384 . S
N1436 C1432 1.427 . S
N1436 C1433 1.384 . S
N1437 C1429 1.427 . S
N1437 C1435 1.384 . S
H1438 C1444 0.930 . S
H1439 C1448 0.930 . S
H1440 C1453 0.929 . S
H1441 C1451 0.929 . S
H1442 C1446 0.929 . S
H1443 C1452 0.929 . S
C1444 H1438 0.930 . S
C1444 C1445 1.367 . S
C1444 C1452 1.378 . S
C1445 C1444 1.367 . S
C1445 C1453 1.433 . S
C1446 H1442 0.929 . S
C1446 C1448 1.378 . S
C1446 C1450 1.350 . S
C1447 C1450 1.463 . S
C1447 C1452 1.350 . S
C1447 N1455 1.427 . S
C1448 H1439 0.930 . S
C1448 C1446 1.378 . S
C1448 C1449 1.367 . S
C1449 C1448 1.367 . S
C1449 C1451 1.433 . S
C1450 C1446 1.350 . S
C1450 C1447 1.463 . S
C1450 N1454 1.427 . S
C1451 H1441 0.929 . S
C1451 C1449 1.433 . S
C1451 N1454 1.384 . S
C1452 H1443 0.929 . S
C1452 C1444 1.378 . S
C1452 C1447 1.350 . S
C1453 H1440 0.929 . S
C1453 C1445 1.433 . S
C1453 N1455 1.384 . S
N1454 C1450 1.427 . S
N1454 C1451 1.384 . S
N1455 C1447 1.427 . S
N1455 C1453 1.384 . S
H1456 C1462 0.930 . S
H1457 C1466 0.930 . S
H1458 C1471 0.929 . S
H1459 C1469 0.929 . S
H1460 C1464 0.929 . S
H1461 C1470 0.929 . S
C1462 H1456 0.930 . S
C1462 C1463 1.367 . S
C1462 C1470 1.378 . S
C1463 C1462 1.367 . S
C1463 C1471 1.433 . S
C1464 H1460 0.929 . S
C1464 C1466 1.378 . S
C1464 C1468 1.350 . S
C1465 C1468 1.463 . S
C1465 C1470 1.350 . S
C1465 N1473 1.427 . S
C1466 H1457 0.930 . S
C1466 C1464 1.378 . S
C1466 C1467 1.367 . S
C1467 C1466 1.367 . S
C1467 C1469 1.433 . S
C1468 C1464 1.350 . S
C1468 C1465 1.463 . S
C1468 N1472 1.427 . S
C1469 H1459 0.929 . S
C1469 C1467 1.433 . S
C1469 N1472 1.384 . S
C1470 H1461 0.929 . S
C1470 C1462 1.378 . S
C1470 C1465 1.350 . S
C1471 H1458 0.929 . S
C1471 C1463 1.433 . S
C1471 N1473 1.384 . S
N1472 C1468 1.427 . S
N1472 C1469 1.384 . S
N1473 C1465 1.427 . S
N1473 C1471 1.384 . S
H1474 C1480 0.930 . S
H1475 C1484 0.930 . S
H1476 C1489 0.929 . S
H1477 C1487 0.929 . S
H1478 C1482 0.929 . S
H1479 C1488 0.929 . S
C1480 H1474 0.930 . S
C1480 C1481 1.367 . S
C1480 C1488 1.378 . S
C1481 C1480 1.367 . S
C1481 C1489 1.433 . S
C1482 H1478 0.929 . S
C1482 C1484 1.378 . S
C1482 C1486 1.350 . S
C1483 C1486 1.463 . S
C1483 C1488 1.350 . S
C1483 N1491 1.427 . S
C1484 H1475 0.930 . S
C1484 C1482 1.378 . S
C1484 C1485 1.367 . S
C1485 C1484 1.367 . S
C1485 C1487 1.433 . S
C1486 C1482 1.350 . S
C1486 C1483 1.463 . S
C1486 N1490 1.427 . S
C1487 H1477 0.929 . S
C1487 C1485 1.433 . S
C1487 N1490 1.384 . S
C1488 H1479 0.929 . S
C1488 C1480 1.378 . S
C1488 C1483 1.350 . S
C1489 H1476 0.929 . S
C1489 C1481 1.433 . S
C1489 N1491 1.384 . S
N1490 C1486 1.427 . S
N1490 C1487 1.384 . S
N1491 C1483 1.427 . S
N1491 C1489 1.384 . S
H1492 C1498 0.930 . S
H1493 C1502 0.930 . S
H1494 C1507 0.929 . S
H1495 C1505 0.929 . S
H1496 C1500 0.929 . S
H1497 C1506 0.929 . S
C1498 H1492 0.930 . S
C1498 C1499 1.367 . S
C1498 C1506 1.378 . S
C1499 C1498 1.367 . S
C1499 C1507 1.433 . S
C1500 H1496 0.929 . S
C1500 C1502 1.378 . S
C1500 C1504 1.350 . S
C1501 C1504 1.463 . S
C1501 C1506 1.350 . S
C1501 N1509 1.427 . S
C1502 H1493 0.930 . S
C1502 C1500 1.378 . S
C1502 C1503 1.367 . S
C1503 C1502 1.367 . S
C1503 C1505 1.433 . S
C1504 C1500 1.350 . S
C1504 C1501 1.463 . S
C1504 N1508 1.427 . S
C1505 H1495 0.929 . S
C1505 C1503 1.433 . S
C1505 N1508 1.384 . S
C1506 H1497 0.929 . S
C1506 C1498 1.378 . S
C1506 C1501 1.350 . S
C1507 H1494 0.929 . S
C1507 C1499 1.433 . S
C1507 N1509 1.384 . S
N1508 C1504 1.427 . S
N1508 C1505 1.384 . S
N1509 C1501 1.427 . S
N1509 C1507 1.384 . S
H1510 C1516 0.930 . S
H1511 C1520 0.930 . S
H1512 C1525 0.929 . S
H1513 C1523 0.929 . S
H1514 C1518 0.929 . S
H1515 C1524 0.929 . S
C1516 H1510 0.930 . S
C1516 C1517 1.367 . S
C1516 C1524 1.378 . S
C1517 C1516 1.367 . S
C1517 C1525 1.433 . S
C1518 H1514 0.929 . S
C1518 C1520 1.378 . S
C1518 C1522 1.350 . S
C1519 C1522 1.463 . S
C1519 C1524 1.350 . S
C1519 N1527 1.427 . S
C1520 H1511 0.930 . S
C1520 C1518 1.378 . S
C1520 C1521 1.367 . S
C1521 C1520 1.367 . S
C1521 C1523 1.433 . S
C1522 C1518 1.350 . S
C1522 C1519 1.463 . S
C1522 N1526 1.427 . S
C1523 H1513 0.929 . S
C1523 C1521 1.433 . S
C1523 N1526 1.384 . S
C1524 H1515 0.929 . S
C1524 C1516 1.378 . S
C1524 C1519 1.350 . S
C1525 H1512 0.929 . S
C1525 C1517 1.433 . S
C1525 N1527 1.384 . S
N1526 C1522 1.427 . S
N1526 C1523 1.384 . S
N1527 C1519 1.427 . S
N1527 C1525 1.384 . S
H1528 C1534 0.930 . S
H1529 C1538 0.930 . S
H1530 C1543 0.929 . S
H1531 C1541 0.929 . S
H1532 C1536 0.929 . S
H1533 C1542 0.929 . S
C1534 H1528 0.930 . S
C1534 C1535 1.367 . S
C1534 C1542 1.378 . S
C1535 C1534 1.367 . S
C1535 C1543 1.433 . S
C1536 H1532 0.929 . S
C1536 C1538 1.378 . S
C1536 C1540 1.350 . S
C1537 C1540 1.463 . S
C1537 C1542 1.350 . S
C1537 N1545 1.427 . S
C1538 H1529 0.930 . S
C1538 C1536 1.378 . S
C1538 C1539 1.367 . S
C1539 C1538 1.367 . S
C1539 C1541 1.433 . S
C1540 C1536 1.350 . S
C1540 C1537 1.463 . S
C1540 N1544 1.427 . S
C1541 H1531 0.929 . S
C1541 C1539 1.433 . S
C1541 N1544 1.384 . S
C1542 H1533 0.929 . S
C1542 C1534 1.378 . S
C1542 C1537 1.350 . S
C1543 H1530 0.929 . S
C1543 C1535 1.433 . S
C1543 N1545 1.384 . S
N1544 C1540 1.427 . S
N1544 C1541 1.384 . S
N1545 C1537 1.427 . S
N1545 C1543 1.384 . S
H1546 C1552 0.930 . S
H1547 C1556 0.930 . S
H1548 C1561 0.929 . S
H1549 C1559 0.929 . S
H1550 C1554 0.929 . S
H1551 C1560 0.929 . S
C1552 H1546 0.930 . S
C1552 C1553 1.367 . S
C1552 C1560 1.378 . S
C1553 C1552 1.367 . S
C1553 C1561 1.433 . S
C1554 H1550 0.929 . S
C1554 C1556 1.378 . S
C1554 C1558 1.350 . S
C1555 C1558 1.463 . S
C1555 C1560 1.350 . S
C1555 N1563 1.427 . S
C1556 H1547 0.930 . S
C1556 C1554 1.378 . S
C1556 C1557 1.367 . S
C1557 C1556 1.367 . S
C1557 C1559 1.433 . S
C1558 C1554 1.350 . S
C1558 C1555 1.463 . S
C1558 N1562 1.427 . S
C1559 H1549 0.929 . S
C1559 C1557 1.433 . S
C1559 N1562 1.384 . S
C1560 H1551 0.929 . S
C1560 C1552 1.378 . S
C1560 C1555 1.350 . S
C1561 H1548 0.929 . S
C1561 C1553 1.433 . S
C1561 N1563 1.384 . S
N1562 C1558 1.427 . S
N1562 C1559 1.384 . S
N1563 C1555 1.427 . S
N1563 C1561 1.384 . S
H1564 C1570 0.930 . S
H1565 C1574 0.930 . S
H1566 C1579 0.929 . S
H1567 C1577 0.929 . S
H1568 C1572 0.929 . S
H1569 C1578 0.929 . S
C1570 H1564 0.930 . S
C1570 C1571 1.367 . S
C1570 C1578 1.378 . S
C1571 C1570 1.367 . S
C1571 C1579 1.433 . S
C1572 H1568 0.929 . S
C1572 C1574 1.378 . S
C1572 C1576 1.350 . S
C1573 C1576 1.463 . S
C1573 C1578 1.350 . S
C1573 N1581 1.427 . S
C1574 H1565 0.930 . S
C1574 C1572 1.378 . S
C1574 C1575 1.367 . S
C1575 C1574 1.367 . S
C1575 C1577 1.433 . S
C1576 C1572 1.350 . S
C1576 C1573 1.463 . S
C1576 N1580 1.427 . S
C1577 H1567 0.929 . S
C1577 C1575 1.433 . S
C1577 N1580 1.384 . S
C1578 H1569 0.929 . S
C1578 C1570 1.378 . S
C1578 C1573 1.350 . S
C1579 H1566 0.929 . S
C1579 C1571 1.433 . S
C1579 N1581 1.384 . S
N1580 C1576 1.427 . S
N1580 C1577 1.384 . S
N1581 C1573 1.427 . S
N1581 C1579 1.384 . S
H1582 C1588 0.930 . S
H1583 C1592 0.930 . S
H1584 C1597 0.929 . S
H1585 C1595 0.929 . S
H1586 C1590 0.929 . S
H1587 C1596 0.929 . S
C1588 H1582 0.930 . S
C1588 C1589 1.367 . S
C1588 C1596 1.378 . S
C1589 C1588 1.367 . S
C1589 C1597 1.433 . S
C1590 H1586 0.929 . S
C1590 C1592 1.378 . S
C1590 C1594 1.350 . S
C1591 C1594 1.463 . S
C1591 C1596 1.350 . S
C1591 N1599 1.427 . S
C1592 H1583 0.930 . S
C1592 C1590 1.378 . S
C1592 C1593 1.367 . S
C1593 C1592 1.367 . S
C1593 C1595 1.433 . S
C1594 C1590 1.350 . S
C1594 C1591 1.463 . S
C1594 N1598 1.427 . S
C1595 H1585 0.929 . S
C1595 C1593 1.433 . S
C1595 N1598 1.384 . S
C1596 H1587 0.929 . S
C1596 C1588 1.378 . S
C1596 C1591 1.350 . S
C1597 H1584 0.929 . S
C1597 C1589 1.433 . S
C1597 N1599 1.384 . S
N1598 C1594 1.427 . S
N1598 C1595 1.384 . S
N1599 C1591 1.427 . S
N1599 C1597 1.384 . S
C455 C119 1.414 . S
C459 C7 1.414 . S
C473 C357 1.402 . S
C477 C21 1.402 . S
C491 C147 1.402 . S
C495 C35 1.402 . S
C509 C385 1.412 . S
C513 C49 1.412 . S
C527 C175 1.415 . S
C531 C63 1.415 . S
C545 C77 1.413 . S
C549 C413 1.413 . S
C563 C91 1.400 . S
C567 C203 1.400 . S
C581 C105 1.402 . S
C585 C441 1.402 . S
C599 C245 1.415 . S
C603 C133 1.415 . S
C617 C273 1.399 . S
C621 C161 1.399 . S
C635 C189 1.412 . S
C639 C301 1.412 . S
C653 C217 1.403 . S
C657 C329 1.403 . S
C671 C231 1.414 . S
C675 C343 1.414 . S
C689 C371 1.402 . S
C693 C259 1.402 . S
C707 C287 1.400 . S
C711 C399 1.400 . S
C725 C427 1.411 . S
C729 C315 1.411 . S
C743 C261 1.999 . S
C747 C9 1.999 . S
C761 C275 2.001 . S
C765 C23 2.001 . S
C779 C37 2.001 . S
C783 C233 2.001 . S
C797 C51 2.001 . S
C801 C247 2.001 . S
C815 C317 1.999 . S
C819 C65 2.000 . S
C833 C79 2.001 . S
C837 C331 2.000 . S
C851 C289 2.000 . S
C855 C93 1.999 . S
C869 C303 1.999 . S
C873 C107 1.999 . S
C887 C121 2.000 . S
C891 C373 1.999 . S
C905 C387 1.999 . S
C909 C135 1.999 . S
C923 C149 2.000 . S
C927 C345 1.999 . S
C941 C163 2.000 . S
C945 C359 1.999 . S
C959 C177 2.001 . S
C963 C429 2.000 . S
C977 C191 2.000 . S
C981 C443 1.999 . S
C995 C401 2.001 . S
C999 C205 2.001 . S
C1013 C415 1.999 . S
C1017 C219 2.000 . S
C1031 C90 1.561 . S
C1035 C6 1.572 . S
C1049 C104 1.563 . S
C1053 C20 1.571 . S
C1067 C62 1.563 . S
C1071 C34 1.565 . S
C1085 C48 1.563 . S
C1089 C76 1.565 . S
C1103 C202 1.562 . S
C1107 C118 1.572 . S
C1121 C216 1.565 . S
C1125 C132 1.570 . S
C1139 C174 1.560 . S
C1143 C146 1.571 . S
C1157 C188 1.562 . S
C1161 C160 1.572 . S
C1175 C314 1.572 . S
C1179 C230 1.562 . S
C1193 C328 1.560 . S
C1197 C244 1.572 . S
C1211 C258 1.572 . S
C1215 C286 1.563 . S
C1229 C272 1.560 . S
C1233 C300 1.571 . S
C1247 C426 1.566 . S
C1251 C342 1.570 . S
C1265 C440 1.568 . S
C1269 C356 1.567 . S
C1283 C370 1.560 . S
C1287 C398 1.569 . S
C1301 C384 1.569 . S
C1305 C412 1.566 . S
C1319 C8 1.568 . S
C1323 C302 1.568 . S
C1337 C316 1.568 . S
C1341 C22 1.568 . S
C1355 C330 1.568 . S
C1359 C36 1.568 . S
C1373 C50 1.566 . S
C1377 C288 1.566 . S
C1391 C274 1.568 . S
C1395 C64 1.567 . S
C1409 C78 1.567 . S
C1413 C232 1.567 . S
C1427 C246 1.567 . S
C1431 C92 1.568 . S
C1445 C106 1.567 . S
C1449 C260 1.567 . S
C1463 C414 1.566 . S
C1467 C120 1.566 . S
C1481 C428 1.567 . S
C1485 C134 1.567 . S
C1499 C148 1.568 . S
C1503 C442 1.568 . S
C1517 C400 1.567 . S
C1521 C162 1.567 . S
C1535 C386 1.566 . S
C1539 C176 1.566 . S
C1553 C190 1.567 . S
C1557 C344 1.567 . S
C1571 C358 1.567 . S
C1575 C204 1.567 . S
C1589 C218 1.568 . S
C1593 C372 1.568 . S
