# Generated by pormake.
# Topology ecs, (8)-cn, num edge types: 1
# Building blocks:
#     Node 0, Type 0, BuildingBlock: TAGTUT_clean_sbu_1, # of connection points: 8
#     Node 1, Type 0, BuildingBlock: TAGTUT_clean_sbu_1, # of connection points: 8
#     Node 2, Type 0, BuildingBlock: TAGTUT_clean_sbu_1, # of connection points: 8
#     Node 3, Type 0, BuildingBlock: TAGTUT_clean_sbu_1, # of connection points: 8
#     Node 4, Type 0, BuildingBlock: TAGTUT_clean_sbu_1, # of connection points: 8
#     Node 5, Type 0, BuildingBlock: TAGTUT_clean_sbu_1, # of connection points: 8
#     Node 6, Type 0, BuildingBlock: TAGTUT_clean_sbu_1, # of connection points: 8
#     Node 7, Type 0, BuildingBlock: TAGTUT_clean_sbu_1, # of connection points: 8
#     Node 8, Type 0, BuildingBlock: TAGTUT_clean_sbu_1, # of connection points: 8
#     Node 9, Type 0, BuildingBlock: TAGTUT_clean_sbu_1, # of connection points: 8
#     Node 10, Type 0, BuildingBlock: TAGTUT_clean_sbu_1, # of connection points: 8
#     Node 11, Type 0, BuildingBlock: TAGTUT_clean_sbu_1, # of connection points: 8
#     Edge 12, Type (0, 0), BuildingBlock: EZIPEK_clean_linker_0, # of connection points: 2
#     Edge 13, Type (0, 0), BuildingBlock: EZIPEK_clean_linker_0, # of connection points: 2
#     Edge 14, Type (0, 0), BuildingBlock: EZIPEK_clean_linker_0, # of connection points: 2
#     Edge 15, Type (0, 0), BuildingBlock: EZIPEK_clean_linker_0, # of connection points: 2
#     Edge 16, Type (0, 0), BuildingBlock: EZIPEK_clean_linker_0, # of connection points: 2
#     Edge 17, Type (0, 0), BuildingBlock: EZIPEK_clean_linker_0, # of connection points: 2
#     Edge 18, Type (0, 0), BuildingBlock: EZIPEK_clean_linker_0, # of connection points: 2
#     Edge 19, Type (0, 0), BuildingBlock: EZIPEK_clean_linker_0, # of connection points: 2
#     Edge 20, Type (0, 0), BuildingBlock: EZIPEK_clean_linker_0, # of connection points: 2
#     Edge 21, Type (0, 0), BuildingBlock: EZIPEK_clean_linker_0, # of connection points: 2
#     Edge 22, Type (0, 0), BuildingBlock: EZIPEK_clean_linker_0, # of connection points: 2
#     Edge 23, Type (0, 0), BuildingBlock: EZIPEK_clean_linker_0, # of connection points: 2
#     Edge 24, Type (0, 0), BuildingBlock: EZIPEK_clean_linker_0, # of connection points: 2
#     Edge 25, Type (0, 0), BuildingBlock: EZIPEK_clean_linker_0, # of connection points: 2
#     Edge 26, Type (0, 0), BuildingBlock: EZIPEK_clean_linker_0, # of connection points: 2
#     Edge 27, Type (0, 0), BuildingBlock: EZIPEK_clean_linker_0, # of connection points: 2
#     Edge 28, Type (0, 0), BuildingBlock: EZIPEK_clean_linker_0, # of connection points: 2
#     Edge 29, Type (0, 0), BuildingBlock: EZIPEK_clean_linker_0, # of connection points: 2
#     Edge 30, Type (0, 0), BuildingBlock: EZIPEK_clean_linker_0, # of connection points: 2
#     Edge 31, Type (0, 0), BuildingBlock: EZIPEK_clean_linker_0, # of connection points: 2
#     Edge 32, Type (0, 0), BuildingBlock: EZIPEK_clean_linker_0, # of connection points: 2
#     Edge 33, Type (0, 0), BuildingBlock: EZIPEK_clean_linker_0, # of connection points: 2
#     Edge 34, Type (0, 0), BuildingBlock: EZIPEK_clean_linker_0, # of connection points: 2
#     Edge 35, Type (0, 0), BuildingBlock: EZIPEK_clean_linker_0, # of connection points: 2
#     Edge 36, Type (0, 0), BuildingBlock: EZIPEK_clean_linker_0, # of connection points: 2
#     Edge 37, Type (0, 0), BuildingBlock: EZIPEK_clean_linker_0, # of connection points: 2
#     Edge 38, Type (0, 0), BuildingBlock: EZIPEK_clean_linker_0, # of connection points: 2
#     Edge 39, Type (0, 0), BuildingBlock: EZIPEK_clean_linker_0, # of connection points: 2
#     Edge 40, Type (0, 0), BuildingBlock: EZIPEK_clean_linker_0, # of connection points: 2
#     Edge 41, Type (0, 0), BuildingBlock: EZIPEK_clean_linker_0, # of connection points: 2
#     Edge 42, Type (0, 0), BuildingBlock: EZIPEK_clean_linker_0, # of connection points: 2
#     Edge 43, Type (0, 0), BuildingBlock: EZIPEK_clean_linker_0, # of connection points: 2
#     Edge 44, Type (0, 0), BuildingBlock: EZIPEK_clean_linker_0, # of connection points: 2
#     Edge 45, Type (0, 0), BuildingBlock: EZIPEK_clean_linker_0, # of connection points: 2
#     Edge 46, Type (0, 0), BuildingBlock: EZIPEK_clean_linker_0, # of connection points: 2
#     Edge 47, Type (0, 0), BuildingBlock: EZIPEK_clean_linker_0, # of connection points: 2
#     Edge 48, Type (0, 0), BuildingBlock: EZIPEK_clean_linker_0, # of connection points: 2
#     Edge 49, Type (0, 0), BuildingBlock: EZIPEK_clean_linker_0, # of connection points: 2
#     Edge 50, Type (0, 0), BuildingBlock: EZIPEK_clean_linker_0, # of connection points: 2
#     Edge 51, Type (0, 0), BuildingBlock: EZIPEK_clean_linker_0, # of connection points: 2
#     Edge 52, Type (0, 0), BuildingBlock: EZIPEK_clean_linker_0, # of connection points: 2
#     Edge 53, Type (0, 0), BuildingBlock: EZIPEK_clean_linker_0, # of connection points: 2
#     Edge 54, Type (0, 0), BuildingBlock: EZIPEK_clean_linker_0, # of connection points: 2
#     Edge 55, Type (0, 0), BuildingBlock: EZIPEK_clean_linker_0, # of connection points: 2
#     Edge 56, Type (0, 0), BuildingBlock: EZIPEK_clean_linker_0, # of connection points: 2
#     Edge 57, Type (0, 0), BuildingBlock: EZIPEK_clean_linker_0, # of connection points: 2
#     Edge 58, Type (0, 0), BuildingBlock: EZIPEK_clean_linker_0, # of connection points: 2
#     Edge 59, Type (0, 0), BuildingBlock: EZIPEK_clean_linker_0, # of connection points: 2
# Relax obj value: 0.349
# Max RMSD: 0.278
# Mean RMSD: 0.278
data_MOF--net-ecs--node1-TAGTUT_clean_sbu_1--edge1-EZIPEK_clean_linker_0
_symmetry_space_group_name_H-M    P1
_symmetry_Int_Tables_number       1
_symmetry_cell_setting            triclinic
loop_
_symmetry_equiv_pos_as_xyz
'x, y, z'
_cell_length_a     41.332822
_cell_length_b     41.25437
_cell_length_c     21.099045
_cell_angle_alpha  89.990781
_cell_angle_beta   90.173253
_cell_angle_gamma 120.06516
loop_
_atom_site_label
_atom_site_type_symbol
_atom_site_fract_x
_atom_site_fract_y
_atom_site_fract_z
_atom_type_partial_charge
C0 C 0.46661 0.44749 0.06518 0.0
C1 C 0.53836 0.41747 0.03703 0.0
C2 C 0.43264 0.27336 0.06581 0.0
Mg3 Mg 0.50781 0.42537 0.16492 0.0
O4 O 0.46614 0.37854 0.15485 0.0
Mg5 Mg 0.44803 0.35927 0.06586 0.0
Mg6 Mg 0.47077 0.33521 0.1844 0.0
O7 O 0.47436 0.29232 0.21298 0.0
Mg8 Mg 0.44604 0.24214 0.19011 0.0
Mg9 Mg 0.50271 0.30725 0.29368 0.0
C10 C 0.51134 0.39144 0.30345 0.0
C11 C 0.56351 0.3667 0.20039 0.0
O12 O 0.44834 0.41324 0.04773 0.0
O13 O 0.48763 0.45769 0.11488 0.0
O14 O 0.50562 0.39148 0.02174 0.0
O15 O 0.54694 0.42977 0.09376 0.0
O16 O 0.51905 0.41964 0.26697 0.0
O17 O 0.48899 0.35732 0.28598 0.0
C18 C 0.38247 0.31626 0.16975 0.0
O19 O 0.40583 0.31201 0.20511 0.0
O20 O 0.39255 0.33177 0.11532 0.0
O21 O 0.52569 0.26698 0.26365 0.0
O22 O 0.49279 0.23526 0.17744 0.0
O23 O 0.45016 0.25927 0.34197 0.0
C24 C 0.52134 0.24733 0.21337 0.0
O25 O 0.41547 0.21323 0.27313 0.0
O26 O 0.42356 0.24463 0.1004 0.0
C27 C 0.42356 0.226 0.3296 0.0
O28 O 0.45182 0.30706 0.08756 0.0
O29 O 0.53831 0.36549 0.16222 0.0
O30 O 0.55363 0.34932 0.25199 0.0
C31 C 0.56446 0.04013 0.03913 0.0
C32 C 0.60173 0.14343 0.0003 0.0
C33 C 0.7423 0.17768 0.0793 0.0
Mg34 Mg 0.58146 0.09714 0.13193 0.0
O35 O 0.62996 0.10855 0.1331 0.0
Mg36 Mg 0.65475 0.11121 0.05098 0.0
Mg37 Mg 0.66985 0.15275 0.1758 0.0
O38 O 0.7106 0.19827 0.21432 0.0
Mg39 Mg 0.76231 0.21932 0.20941 0.0
Mg40 Mg 0.68824 0.21075 0.28553 0.0
C41 C 0.60268 0.13018 0.27952 0.0
C42 C 0.63702 0.21249 0.17122 0.0
O43 O 0.59748 0.06176 0.01751 0.0
O44 O 0.55621 0.04154 0.0969 0.0
O45 O 0.63393 0.14615 -0.00151 0.0
O46 O 0.57913 0.12651 0.04575 0.0
O47 O 0.57985 0.11175 0.23393 0.0
O48 O 0.63847 0.14593 0.27205 0.0
C49 C 0.67865 0.07756 0.17293 0.0
O50 O 0.68594 0.10704 0.206 0.0
O51 O 0.66971 0.07487 0.11389 0.0
O52 O 0.73392 0.27308 0.27196 0.0
O53 O 0.77483 0.27588 0.19874 0.0
O54 O 0.72766 0.20248 0.35299 0.0
C55 C 0.76003 0.29111 0.23133 0.0
O56 O 0.78 0.21486 0.30318 0.0
O57 O 0.7664 0.19215 0.1243 0.0
C58 C 0.76114 0.20811 0.3542 0.0
O59 O 0.70705 0.16438 0.08871 0.0
O60 O 0.64196 0.18847 0.14029 0.0
O61 O 0.65301 0.22478 0.22382 0.0
C62 C 0.94902 0.49842 0.08089 0.0
C63 C 0.84219 0.44234 0.05699 0.0
C64 C 0.8345 0.57182 0.07198 0.0
Mg65 Mg 0.88978 0.47751 0.17733 0.0
O66 O 0.89687 0.52501 0.16066 0.0
Mg67 Mg 0.89347 0.53691 0.06959 0.0
Mg68 Mg 0.85666 0.53296 0.19211 0.0
O69 O 0.81576 0.53964 0.22318 0.0
Mg70 Mg 0.78432 0.55636 0.19402 0.0
Mg71 Mg 0.79796 0.50902 0.30045 0.0
C72 C 0.87021 0.49457 0.31714 0.0
C73 C 0.79258 0.44411 0.21513 0.0
O74 O 0.93608 0.51716 0.05246 0.0
O75 O 0.94171 0.4883 0.13878 0.0
O76 O 0.85269 0.47572 0.03824 0.0
O77 O 0.85134 0.4362 0.11145 0.0
O78 O 0.87858 0.47582 0.27826 0.0
O79 O 0.86108 0.51846 0.29762 0.0
C80 C 0.93576 0.60947 0.16491 0.0
O81 O 0.90757 0.5939 0.20328 0.0
O82 O 0.93439 0.59529 0.10995 0.0
O83 O 0.73438 0.49352 0.28076 0.0
O84 O 0.7351 0.50416 0.17809 0.0
O85 O 0.81251 0.56508 0.34386 0.0
C86 C 0.71776 0.48546 0.22676 0.0
O87 O 0.77486 0.57716 0.2851 0.0
O88 O 0.81345 0.57969 0.10579 0.0
C89 C 0.78901 0.57644 0.33911 0.0
O90 O 0.84682 0.55037 0.09297 0.0
O91 O 0.81681 0.46845 0.17773 0.0
O92 O 0.7798 0.45399 0.2602 0.0
C93 C 0.45039 0.4684 0.33877 0.0
C94 C 0.42193 0.544 0.39181 0.0
C95 C 0.27538 0.42755 0.38489 0.0
Mg96 Mg 0.42067 0.51052 0.2596 0.0
O97 O 0.37497 0.46653 0.27714 0.0
Mg98 Mg 0.36349 0.45055 0.36827 0.0
Mg99 Mg 0.32966 0.47047 0.26465 0.0
O100 O 0.28565 0.47663 0.25345 0.0
Mg101 Mg 0.23616 0.43927 0.26917 0.0
Mg102 Mg 0.29746 0.50859 0.17719 0.0
C103 C 0.37607 0.50845 0.13064 0.0
C104 C 0.36498 0.56263 0.272 0.0
O105 O 0.41855 0.45186 0.36645 0.0
O106 O 0.45674 0.48996 0.29089 0.0
O107 O 0.39833 0.51025 0.40761 0.0
O108 O 0.43233 0.55221 0.33418 0.0
O109 O 0.40698 0.51667 0.15924 0.0
O110 O 0.34431 0.49102 0.15931 0.0
C111 C 0.31248 0.38331 0.27112 0.0
O112 O 0.3043 0.40557 0.2403 0.0
O113 O 0.33231 0.39442 0.32168 0.0
O114 O 0.25352 0.52319 0.21589 0.0
O115 O 0.21769 0.47876 0.28739 0.0
O116 O 0.25098 0.45896 0.12326 0.0
C117 C 0.22829 0.51004 0.25927 0.0
O118 O 0.21142 0.41028 0.1821 0.0
O119 O 0.24814 0.41151 0.34555 0.0
C120 C 0.22205 0.42648 0.12866 0.0
O121 O 0.30852 0.4524 0.36628 0.0
O122 O 0.36362 0.53312 0.29356 0.0
O123 O 0.34245 0.56043 0.229 0.0
C124 C 0.52202 0.96701 0.37862 0.0
C125 C 0.46027 0.86688 0.44422 0.0
C126 C 0.57936 0.84098 0.38799 0.0
Mg127 Mg 0.4845 0.90074 0.30372 0.0
O128 O 0.52562 0.89545 0.31314 0.0
Mg129 Mg 0.54829 0.90147 0.39848 0.0
Mg130 Mg 0.52471 0.85006 0.2859 0.0
O131 O 0.52258 0.80318 0.26046 0.0
Mg132 Mg 0.55774 0.78818 0.27218 0.0
Mg133 Mg 0.48594 0.78216 0.19078 0.0
C134 C 0.47685 0.85871 0.1684 0.0
C135 C 0.43421 0.78729 0.2988 0.0
O136 O 0.53719 0.95128 0.40988 0.0
O137 O 0.5122 0.95886 0.32104 0.0
O138 O 0.49213 0.86928 0.45333 0.0
O139 O 0.45194 0.87659 0.39172 0.0
O140 O 0.47098 0.88039 0.20443 0.0
O141 O 0.49829 0.84598 0.18554 0.0
C142 C 0.60673 0.92778 0.27957 0.0
O143 O 0.58568 0.89587 0.25142 0.0
O144 O 0.59978 0.93397 0.33615 0.0
O145 O 0.47431 0.72341 0.22626 0.0
O146 O 0.51681 0.73217 0.30172 0.0
O147 O 0.53227 0.78748 0.12397 0.0
C148 C 0.48575 0.71158 0.27306 0.0
O149 O 0.57664 0.78366 0.17886 0.0
O150 O 0.59252 0.83117 0.34157 0.0
C151 C 0.56116 0.78372 0.12644 0.0
O152 O 0.55189 0.84725 0.3799 0.0
O153 O 0.46238 0.81568 0.32393 0.0
O154 O 0.43825 0.77125 0.25129 0.0
C155 C 0.01873 0.56075 0.42071 0.0
C156 C 0.11562 0.58743 0.45909 0.0
C157 C 0.16894 0.7286 0.40892 0.0
Mg158 Mg 0.0779 0.57687 0.32648 0.0
O159 O 0.08611 0.62507 0.32547 0.0
Mg160 Mg 0.08973 0.64832 0.4113 0.0
Mg161 Mg 0.1367 0.66254 0.2946 0.0
O162 O 0.18791 0.69843 0.26843 0.0
Mg163 Mg 0.21791 0.74903 0.28805 0.0
Mg164 Mg 0.19649 0.67711 0.19021 0.0
C165 C 0.11137 0.60118 0.18171 0.0
C166 C 0.17975 0.61312 0.29421 0.0
O167 O 0.03455 0.59524 0.43809 0.0
O168 O 0.02299 0.55183 0.36468 0.0
O169 O 0.11508 0.61791 0.46481 0.0
O170 O 0.10591 0.56894 0.4073 0.0
O171 O 0.09293 0.57744 0.22584 0.0
O172 O 0.12956 0.63669 0.1933 0.0
C173 C 0.07456 0.68891 0.28941 0.0
O174 O 0.10493 0.69306 0.26426 0.0
O175 O 0.06425 0.67468 0.34524 0.0
O176 O 0.26093 0.71025 0.21196 0.0
O177 O 0.26984 0.75055 0.29112 0.0
O178 O 0.20255 0.73084 0.1376 0.0
C179 C 0.28127 0.73341 0.25547 0.0
O180 O 0.21487 0.77733 0.20633 0.0
O181 O 0.19661 0.75363 0.37762 0.0
C182 C 0.21012 0.76457 0.15 0.0
O183 O 0.14754 0.69547 0.38667 0.0
O184 O 0.16034 0.62335 0.32722 0.0
O185 O 0.19443 0.62886 0.24203 0.0
C186 C 0.46292 0.75825 0.70753 0.0
C187 C 0.56781 0.77933 0.62583 0.0
C188 C 0.48246 0.6131 0.63241 0.0
Mg189 Mg 0.53291 0.75973 0.75759 0.0
O190 O 0.50663 0.71005 0.73124 0.0
Mg191 Mg 0.48562 0.69802 0.64492 0.0
Mg192 Mg 0.51211 0.66724 0.75748 0.0
O193 O 0.51849 0.62453 0.78642 0.0
Mg194 Mg 0.47948 0.57637 0.77253 0.0
Mg195 Mg 0.53374 0.64141 0.87703 0.0
C196 C 0.54322 0.72505 0.88273 0.0
C197 C 0.59974 0.68933 0.77498 0.0
O198 O 0.46369 0.74038 0.65813 0.0
O199 O 0.48668 0.76757 0.75242 0.0
O200 O 0.54185 0.74688 0.60697 0.0
O201 O 0.571 0.78984 0.68337 0.0
O202 O 0.54904 0.75405 0.85146 0.0
O203 O 0.5267 0.69202 0.8578 0.0
C204 C 0.4215 0.63315 0.72923 0.0
O205 O 0.44535 0.63222 0.76781 0.0
O206 O 0.4324 0.65686 0.68521 0.0
O207 O 0.53793 0.58974 0.89211 0.0
O208 O 0.50265 0.54583 0.82093 0.0
O209 O 0.47359 0.60379 0.91647 0.0
C210 C 0.52345 0.55633 0.87084 0.0
O211 O 0.43555 0.56733 0.83901 0.0
O212 O 0.47523 0.58509 0.66907 0.0
C213 C 0.44153 0.5778 0.89709 0.0
O214 O 0.4996 0.64735 0.65327 0.0
O215 O 0.57612 0.69474 0.74326 0.0
O216 O 0.59089 0.67277 0.82892 0.0
C217 C 0.22302 0.70382 0.75181 0.0
C218 C 0.21107 0.78793 0.64701 0.0
C219 C 0.37487 0.85435 0.6696 0.0
Mg220 Mg 0.22457 0.77702 0.78487 0.0
O221 O 0.27529 0.79915 0.76413 0.0
Mg222 Mg 0.28954 0.78474 0.68484 0.0
Mg223 Mg 0.31967 0.84745 0.78661 0.0
O224 O 0.36413 0.89431 0.8117 0.0
Mg225 Mg 0.40963 0.8968 0.8036 0.0
Mg226 Mg 0.35002 0.90156 0.89952 0.0
C227 C 0.26067 0.8252 0.90995 0.0
C228 C 0.3061 0.92036 0.78958 0.0
O229 O 0.24856 0.72337 0.71158 0.0
O230 O 0.20847 0.71884 0.78534 0.0
O231 O 0.24266 0.79038 0.63505 0.0
O232 O 0.19909 0.78598 0.70341 0.0
O233 O 0.23238 0.80094 0.87796 0.0
O234 O 0.29363 0.84459 0.88515 0.0
C235 C 0.34963 0.78644 0.78198 0.0
O236 O 0.35019 0.8129 0.81511 0.0
O237 O 0.32963 0.7745 0.73292 0.0
O238 O 0.41148 0.95392 0.90123 0.0
O239 O 0.44093 0.95563 0.8108 0.0
O240 O 0.37644 0.87331 0.95571 0.0
C241 C 0.44089 0.96848 0.86566 0.0
O242 O 0.42231 0.8795 0.89289 0.0
O243 O 0.40131 0.86948 0.71115 0.0
C244 C 0.40516 0.87034 0.94574 0.0
O245 O 0.34127 0.84775 0.68165 0.0
O246 O 0.29783 0.88922 0.7611 0.0
O247 O 0.32496 0.92989 0.84137 0.0
C248 C 0.26432 0.51568 0.72616 0.0
C249 C 0.19428 0.42865 0.60695 0.0
C250 C 0.10243 0.49937 0.68243 0.0
Mg251 Mg 0.19958 0.43904 0.75327 0.0
O252 O 0.17033 0.46075 0.73996 0.0
Mg253 Mg 0.17885 0.49339 0.66551 0.0
Mg254 Mg 0.12821 0.45782 0.78611 0.0
O255 O 0.08665 0.45548 0.83152 0.0
Mg256 Mg 0.06591 0.48531 0.82502 0.0
Mg257 Mg 0.08727 0.43208 0.91282 0.0
C258 C 0.15902 0.41648 0.88531 0.0
C259 C 0.05633 0.37099 0.79785 0.0
O260 O 0.24299 0.51762 0.68332 0.0
O261 O 0.25258 0.48812 0.76435 0.0
O262 O 0.1733 0.44342 0.60469 0.0
O263 O 0.20517 0.42189 0.65959 0.0
O264 O 0.17387 0.40796 0.83948 0.0
O265 O 0.14411 0.43729 0.87707 0.0
C266 C 0.1843 0.54916 0.77475 0.0
O267 O 0.16674 0.52238 0.81449 0.0
O268 O 0.18835 0.5421 0.7182 0.0
O269 O 0.03173 0.43061 0.93571 0.0
O270 O 0.01115 0.44196 0.84573 0.0
O271 O 0.11498 0.48949 0.96487 0.0
C272 C 0.00741 0.43497 0.9047 0.0
O273 O 0.08663 0.51686 0.91489 0.0
O274 O 0.08268 0.50351 0.72563 0.0
C275 C 0.10617 0.51523 0.961 0.0
O276 O 0.11636 0.47791 0.69099 0.0
O277 O 0.08272 0.39475 0.76139 0.0
O278 O 0.05555 0.37889 0.85614 0.0
C279 C 0.75087 0.48922 0.72292 0.0
C280 C 0.76452 0.57678 0.85064 0.0
C281 C 0.59851 0.48359 0.79762 0.0
Mg282 Mg 0.75327 0.56251 0.70499 0.0
O283 O 0.70314 0.53488 0.72693 0.0
Mg284 Mg 0.68714 0.5024 0.80296 0.0
Mg285 Mg 0.65803 0.52805 0.68582 0.0
O286 O 0.61255 0.52288 0.64569 0.0
Mg287 Mg 0.56835 0.47794 0.65299 0.0
Mg288 Mg 0.63481 0.54256 0.55999 0.0
C289 C 0.72324 0.57628 0.57928 0.0
C290 C 0.66022 0.60831 0.66532 0.0
O291 O 0.7326 0.4856 0.77439 0.0
O292 O 0.76071 0.51663 0.68522 0.0
O293 O 0.72894 0.55665 0.85769 0.0
O294 O 0.77986 0.58361 0.79593 0.0
O295 O 0.75039 0.58979 0.61917 0.0
O296 O 0.69021 0.55033 0.59464 0.0
C297 C 0.64019 0.43948 0.70103 0.0
O298 O 0.64092 0.46334 0.66081 0.0
O299 O 0.6522 0.45029 0.75617 0.0
O300 O 0.57729 0.53184 0.53173 0.0
O301 O 0.53375 0.49408 0.6013 0.0
O302 O 0.613 0.48331 0.51898 0.0
C303 C 0.54315 0.51316 0.54981 0.0
O304 O 0.57085 0.44073 0.58452 0.0
O305 O 0.57164 0.47031 0.75653 0.0
C306 C 0.58865 0.44928 0.53213 0.0
O307 O 0.63239 0.50801 0.78366 0.0
O308 O 0.66658 0.58817 0.70491 0.0
O309 O 0.65291 0.59876 0.60693 0.0
C310 C 0.53623 0.28156 0.71498 0.0
C311 C 0.43787 0.21168 0.82949 0.0
C312 C 0.50305 0.11277 0.78857 0.0
Mg313 Mg 0.45595 0.21696 0.68911 0.0
O314 O 0.47303 0.18365 0.70961 0.0
Mg315 Mg 0.5085 0.1954 0.78214 0.0
Mg316 Mg 0.46179 0.13394 0.67705 0.0
O317 O 0.45315 0.08658 0.64134 0.0
Mg318 Mg 0.49242 0.07821 0.64445 0.0
Mg319 Mg 0.43377 0.0897 0.55503 0.0
C320 C 0.42741 0.16744 0.56572 0.0
C321 C 0.37512 0.06141 0.67138 0.0
O322 O 0.53943 0.25921 0.75366 0.0
O323 O 0.50618 0.27085 0.68331 0.0
O324 O 0.46325 0.20261 0.83818 0.0
O325 O 0.42823 0.21669 0.77439 0.0
O326 O 0.42954 0.19434 0.59923 0.0
O327 O 0.43843 0.1451 0.5861 0.0
C328 C 0.55467 0.18125 0.67509 0.0
O329 O 0.52501 0.16336 0.64111 0.0
O330 O 0.55351 0.19363 0.72924 0.0
O331 O 0.43883 0.03661 0.53164 0.0
O332 O 0.46131 0.02176 0.6166 0.0
O333 O 0.48943 0.11896 0.50311 0.0
C334 C 0.45233 0.01777 0.55822 0.0
O335 O 0.5265 0.1048 0.55928 0.0
O336 O 0.50822 0.09426 0.74469 0.0
C337 C 0.51944 0.11771 0.50936 0.0
O338 O 0.48391 0.12887 0.77652 0.0
O339 O 0.39877 0.0894 0.70644 0.0
O340 O 0.38004 0.06077 0.61148 0.0
C341 C 0.70919 0.238 0.69842 0.0
C342 C 0.78809 0.23692 0.83226 0.0
C343 C 0.85542 0.39002 0.82294 0.0
Mg344 Mg 0.78853 0.24808 0.69072 0.0
O345 O 0.79897 0.29753 0.70244 0.0
Mg346 Mg 0.77903 0.30977 0.77857 0.0
Mg347 Mg 0.84949 0.34158 0.69208 0.0
O348 O 0.89943 0.38586 0.68134 0.0
Mg349 Mg 0.90725 0.43376 0.69873 0.0
Mg350 Mg 0.90626 0.37344 0.59238 0.0
C351 C 0.84123 0.2855 0.57705 0.0
C352 C 0.91877 0.32237 0.69406 0.0
O353 O 0.72094 0.26372 0.74121 0.0
O354 O 0.73038 0.22796 0.67068 0.0
O355 O 0.78413 0.26563 0.83641 0.0
O356 O 0.79309 0.22534 0.77938 0.0
O357 O 0.83071 0.25987 0.61919 0.0
O358 O 0.8487 0.31896 0.59185 0.0
C359 C 0.79127 0.37609 0.68235 0.0
O360 O 0.82039 0.37636 0.66045 0.0
O361 O 0.7707 0.3518 0.72299 0.0
O362 O 0.96122 0.43044 0.59653 0.0
O363 O 0.96582 0.46594 0.68012 0.0
O364 O 0.88062 0.40482 0.54499 0.0
C365 C 0.97874 0.46124 0.62796 0.0
O366 O 0.88877 0.45048 0.61159 0.0
O367 O 0.88016 0.42096 0.79668 0.0
C368 C 0.88036 0.43502 0.55674 0.0
O369 O 0.8426 0.35825 0.79452 0.0
O370 O 0.88758 0.3148 0.7214 0.0
O371 O 0.92994 0.34305 0.64465 0.0
C372 C 0.54189 0.20082 0.19507 0.0
C373 C 0.55036 0.23833 0.19394 0.0
C374 C 0.61322 0.25748 0.15295 0.0
C375 C 0.60561 0.22005 0.15805 0.0
N376 N 0.55722 0.1554 0.16744 0.0
N377 N 0.58688 0.29817 0.14261 0.0
C378 C 0.56853 0.19188 0.17364 0.0
C379 C 0.584 0.26568 0.16433 0.0
N380 N 0.50765 0.17276 0.21445 0.0
N381 N 0.64849 0.28527 0.13856 0.0
H382 H 0.56512 0.30393 0.147 0.0
H383 H 0.60933 0.31762 0.11562 0.0
H384 H 0.66957 0.27952 0.12643 0.0
H385 H 0.65686 0.31364 0.14133 0.0
H386 H 0.50099 0.14483 0.21776 0.0
H387 H 0.48561 0.17694 0.22594 0.0
H388 H 0.57438 0.14677 0.14764 0.0
H389 H 0.57438 0.14677 0.14764 0.0
C390 C 0.79458 0.39132 0.27256 0.0
C391 C 0.78531 0.40488 0.21662 0.0
C392 C 0.76251 0.34342 0.16622 0.0
C393 C 0.77283 0.33109 0.22168 0.0
N394 N 0.80871 0.3459 0.31763 0.0
N395 N 0.75559 0.39243 0.11437 0.0
C396 C 0.79197 0.3559 0.27158 0.0
C397 C 0.7685 0.38068 0.16394 0.0
N398 N 0.80348 0.41061 0.32863 0.0
N399 N 0.74743 0.31957 0.1158 0.0
H400 H 0.75814 0.41888 0.11307 0.0
H401 H 0.74048 0.37573 0.07618 0.0
H402 H 0.74158 0.29188 0.11688 0.0
H403 H 0.74234 0.32729 0.07163 0.0
H404 H 0.80542 0.3992 0.37156 0.0
H405 H 0.80518 0.4362 0.33567 0.0
H406 H 0.82734 0.36469 0.35094 0.0
H407 H 0.80735 0.31994 0.31826 0.0
C408 C 0.66578 0.41885 0.25205 0.0
C409 C 0.67854 0.45329 0.21873 0.0
C410 C 0.62151 0.42258 0.15344 0.0
C411 C 0.60556 0.39152 0.19391 0.0
N412 N 0.62028 0.35294 0.26086 0.0
N413 N 0.6627 0.48892 0.14593 0.0
C414 C 0.62989 0.38761 0.23771 0.0
C415 C 0.65492 0.45535 0.17139 0.0
N416 N 0.68717 0.41553 0.29831 0.0
N417 N 0.60763 0.41914 0.09413 0.0
H418 H 0.68429 0.51453 0.16237 0.0
H419 H 0.64452 0.49132 0.11434 0.0
H420 H 0.58637 0.39328 0.0783 0.0
H421 H 0.62102 0.43972 0.05963 0.0
H422 H 0.67624 0.3948 0.33297 0.0
H423 H 0.71557 0.43363 0.30438 0.0
H424 H 0.63841 0.34696 0.28586 0.0
H425 H 0.59572 0.3287 0.2487 0.0
C426 C 0.16075 0.54582 0.28287 0.0
C427 C 0.1845 0.58085 0.31174 0.0
C428 C 0.23405 0.56509 0.31969 0.0
C429 C 0.21236 0.53313 0.28075 0.0
N430 N 0.15511 0.49263 0.2246 0.0
N431 N 0.23612 0.61626 0.3807 0.0
C432 C 0.17543 0.52296 0.26302 0.0
C433 C 0.21902 0.58821 0.33725 0.0
N434 N 0.12361 0.53361 0.2784 0.0
N435 N 0.26949 0.57419 0.33724 0.0
H436 H 0.22419 0.63225 0.39469 0.0
H437 H 0.25947 0.6211 0.40701 0.0
H438 H 0.28103 0.55743 0.32646 0.0
H439 H 0.28815 0.59914 0.35978 0.0
H440 H 0.10369 0.50728 0.26175 0.0
H441 H 0.11263 0.54829 0.30075 0.0
H442 H 0.12976 0.48648 0.20389 0.0
H443 H 0.1648 0.47491 0.20967 0.0
C444 C 0.43051 0.61152 0.24311 0.0
C445 C 0.39911 0.5998 0.28366 0.0
C446 C 0.43204 0.66134 0.33562 0.0
C447 C 0.46203 0.67208 0.29252 0.0
N448 N 0.4971 0.65176 0.2312 0.0
N449 N 0.37263 0.61101 0.37669 0.0
C450 C 0.46381 0.64501 0.25564 0.0
C451 C 0.40093 0.62378 0.33351 0.0
N452 N 0.42744 0.59299 0.18839 0.0
N453 N 0.43368 0.68715 0.37782 0.0
H454 H 0.34957 0.58397 0.3745 0.0
H455 H 0.37252 0.6262 0.41592 0.0
H456 H 0.45679 0.71417 0.38031 0.0
H457 H 0.41297 0.68186 0.41074 0.0
H458 H 0.44874 0.60198 0.1549 0.0
H459 H 0.40155 0.57264 0.17264 0.0
H460 H 0.50013 0.63143 0.20687 0.0
H461 H 0.52207 0.67623 0.24201 0.0
C462 C 0.33013 0.72674 0.31596 0.0
C463 C 0.32028 0.74269 0.2649 0.0
C464 C 0.38219 0.79612 0.26711 0.0
C465 C 0.39499 0.77823 0.30903 0.0
N466 N 0.38033 0.72471 0.37318 0.0
N467 N 0.34053 0.78905 0.18269 0.0
C468 C 0.36856 0.74278 0.33352 0.0
C469 C 0.34775 0.77575 0.23673 0.0
N470 N 0.30285 0.69709 0.34825 0.0
N471 N 0.40149 0.83343 0.25831 0.0
H472 H 0.31586 0.77324 0.15699 0.0
H473 H 0.36076 0.81382 0.16138 0.0
H474 H 0.42429 0.85057 0.28666 0.0
H475 H 0.42429 0.85057 0.28666 0.0
H476 H 0.30789 0.68688 0.39004 0.0
H477 H 0.27485 0.68436 0.33455 0.0
H478 H 0.36322 0.69714 0.38789 0.0
H479 H 0.40786 0.73773 0.38976 0.0
C480 C 0.44027 0.79892 0.74919 0.0
C481 C 0.43112 0.76441 0.72022 0.0
C482 C 0.36686 0.73787 0.76057 0.0
C483 C 0.37698 0.77305 0.78813 0.0
N484 N 0.4272 0.823 0.84265 0.0
N485 N 0.38523 0.69894 0.70281 0.0
C486 C 0.41482 0.8001 0.79179 0.0
C487 C 0.39416 0.7331 0.7271 0.0
N488 N 0.47394 0.83026 0.73821 0.0
N489 N 0.3305 0.70977 0.76469 0.0
H490 H 0.40182 0.69528 0.67012 0.0
H491 H 0.3611 0.67407 0.71434 0.0
H492 H 0.31125 0.71245 0.79298 0.0
H493 H 0.31929 0.68475 0.73969 0.0
H494 H 0.48067 0.85635 0.75683 0.0
H495 H 0.49316 0.83048 0.70591 0.0
H496 H 0.45547 0.84169 0.85137 0.0
H497 H 0.40893 0.8173 0.88023 0.0
C498 C 0.1796 0.60431 0.82085 0.0
C499 C 0.19969 0.58998 0.7882 0.0
C500 C 0.22983 0.64726 0.72638 0.0
C501 C 0.21409 0.66423 0.76496 0.0
N502 N 0.18607 0.65976 0.86951 0.0
N503 N 0.25608 0.60659 0.73002 0.0
C504 C 0.19285 0.64337 0.81901 0.0
C505 C 0.22975 0.6151 0.74935 0.0
N506 N 0.14623 0.58105 0.84831 0.0
N507 N 0.24158 0.65885 0.6659 0.0
H508 H 0.25706 0.5836 0.74839 0.0
H509 H 0.27848 0.62432 0.70115 0.0
H510 H 0.23502 0.67664 0.64108 0.0
H511 H 0.25185 0.64554 0.63699 0.0
H512 H 0.12949 0.59069 0.86819 0.0
H513 H 0.13366 0.55231 0.84306 0.0
H514 H 0.17128 0.64429 0.90905 0.0
H515 H 0.19993 0.68848 0.87747 0.0
C516 C 0.3234 0.55987 0.67133 0.0
C517 C 0.30435 0.54596 0.72906 0.0
C518 C 0.36046 0.59253 0.78749 0.0
C519 C 0.3804 0.60457 0.72952 0.0
N520 N 0.37487 0.60768 0.61373 0.0
N521 N 0.30342 0.54999 0.84332 0.0
C522 C 0.35991 0.59136 0.67087 0.0
C523 C 0.32251 0.56247 0.78759 0.0
N524 N 0.30779 0.54049 0.61653 0.0
N525 N 0.37618 0.61307 0.84115 0.0
H526 H 0.2745 0.53293 0.84567 0.0
H527 H 0.31632 0.55592 0.88761 0.0
H528 H 0.40235 0.6373 0.84148 0.0
H529 H 0.36189 0.60906 0.88354 0.0
H530 H 0.31725 0.55048 0.57131 0.0
H531 H 0.28663 0.5125 0.61656 0.0
H532 H 0.35838 0.60577 0.57489 0.0
H533 H 0.40308 0.62266 0.60281 0.0
C534 C 0.79675 0.46723 0.72919 0.0
C535 C 0.76232 0.46158 0.70653 0.0
C536 C 0.75093 0.40395 0.65198 0.0
C537 C 0.78535 0.4092 0.67564 0.0
N538 N 0.84574 0.45279 0.71935 0.0
N539 N 0.71135 0.4309 0.6321 0.0
C540 C 0.80985 0.44337 0.70784 0.0
C541 C 0.74079 0.43186 0.66334 0.0
N542 N 0.81649 0.49459 0.77321 0.0
N543 N 0.72804 0.37221 0.61867 0.0
H544 H 0.70372 0.4512 0.63877 0.0
H545 H 0.69648 0.41198 0.59602 0.0
H546 H 0.73686 0.35369 0.60432 0.0
H547 H 0.70054 0.36403 0.60666 0.0
H548 H 0.83936 0.49678 0.79794 0.0
H549 H 0.80828 0.51332 0.78907 0.0
H550 H 0.86637 0.479 0.73541 0.0
H551 H 0.85498 0.43476 0.70736 0.0
C552 C 0.60311 0.37736 0.63711 0.0
C553 C 0.62293 0.39755 0.69139 0.0
C554 C 0.59352 0.34069 0.75538 0.0
C555 C 0.56862 0.32065 0.70486 0.0
N556 N 0.559 0.31656 0.591 0.0
N557 N 0.65638 0.38912 0.77805 0.0
C558 C 0.57627 0.33796 0.64324 0.0
C559 C 0.62448 0.37625 0.74294 0.0
N560 N 0.61362 0.39454 0.57966 0.0
N561 N 0.58733 0.32759 0.81618 0.0
H562 H 0.68116 0.41312 0.76525 0.0
H563 H 0.65945 0.37313 0.81335 0.0
H564 H 0.5636 0.30341 0.83103 0.0
H565 H 0.60423 0.34356 0.85383 0.0
H566 H 0.60298 0.38127 0.53652 0.0
H567 H 0.63611 0.42175 0.57518 0.0
H568 H 0.56039 0.3272 0.54582 0.0
H569 H 0.54435 0.28738 0.59224 0.0
C570 C 0.607 0.16722 0.67265 0.0
C571 C 0.59271 0.19075 0.65371 0.0
C572 C 0.65718 0.24312 0.64668 0.0
C573 C 0.66986 0.2209 0.67758 0.0
N574 N 0.65742 0.16014 0.71344 0.0
N575 N 0.60446 0.25115 0.6191 0.0
C576 C 0.64508 0.18248 0.68785 0.0
C577 C 0.61808 0.22863 0.6383 0.0
N578 N 0.5846 0.1298 0.6784 0.0
N579 N 0.68259 0.27755 0.62379 0.0
H580 H 0.57612 0.24054 0.60931 0.0
H581 H 0.62076 0.28015 0.61519 0.0
H582 H 0.71136 0.28861 0.62864 0.0
H583 H 0.67531 0.29335 0.59487 0.0
H584 H 0.55676 0.1161 0.66475 0.0
H585 H 0.55676 0.1161 0.66475 0.0
H586 H 0.63977 0.1315 0.72087 0.0
H587 H 0.68495 0.17011 0.72797 0.0
C588 C 0.49495 0.48933 0.90271 0.0
C589 C 0.51894 0.52726 0.91801 0.0
C590 C 0.5005 0.51411 0.02937 0.0
C591 C 0.47533 0.47617 0.01438 0.0
N592 N 0.43918 0.43211 0.93068 0.0
N593 N 0.5578 0.56969 2e-05 0.0
C594 C 0.46992 0.46481 0.94923 0.0
C595 C 0.52584 0.53786 -0.01722 0.0
N596 N 0.49719 0.47666 0.84408 0.0
N597 N 0.49895 0.52788 0.08739 0.0
H598 H 0.57871 0.58549 0.96719 0.0
H599 H 0.56554 0.57724 0.04716 0.0
H600 H 0.51484 0.55619 0.09911 0.0
H601 H 0.47829 0.51163 0.12033 0.0
H602 H 0.48292 0.44842 0.83153 0.0
H603 H 0.51712 0.49424 0.81116 0.0
H604 H 0.43287 0.4241 0.88338 0.0
H605 H 0.41691 0.41601 0.96088 0.0
C606 C 0.53468 -0.00168 0.94539 0.0
C607 C 0.53382 0.02272 -0.0083 0.0
C608 C 0.48125 0.02195 0.93514 0.0
C609 C 0.47749 0.99222 0.89724 0.0
N610 N 0.50009 0.94945 0.86965 0.0
N611 N 0.5034 0.05622 0.03257 0.0
C612 C 0.50454 0.98025 0.90181 0.0
C613 C 0.50643 0.03426 -0.01286 0.0
N614 N 0.56371 0.99131 0.94398 0.0
N615 N 0.46102 0.0389 0.92038 0.0
H616 H 0.52101 0.06754 0.07128 0.0
H617 H 0.48096 0.06101 0.03474 0.0
H618 H 0.44297 0.03069 0.8814 0.0
H619 H 0.46532 0.06353 0.94175 0.0
H620 H 0.56864 0.97842 0.90571 0.0
H621 H 0.58411 6e-05 0.97925 0.0
H622 H 0.48037 0.93524 0.8346 0.0
H623 H 0.51504 0.93602 0.88071 0.0
C624 C 0.95286 0.44198 0.04133 0.0
C625 C 0.9656 0.48133 0.04004 0.0
C626 C -0.00558 0.48585 0.93731 0.0
C627 C 0.98607 0.44795 0.94265 0.0
N628 N 0.95766 0.39 0.00106 0.0
N629 N 0.00825 0.54171 -0.00451 0.0
C630 C 0.96586 0.42636 -0.00454 0.0
C631 C 0.98945 0.50352 -0.0093 0.0
N632 N 0.92755 0.41775 0.08381 0.0
N633 N 0.00574 0.50505 0.88138 0.0
H634 H 0.00629 0.55569 0.03521 0.0
H635 H 0.02913 0.55906 0.96385 0.0
H636 H 0.00594 0.49311 0.83821 0.0
H637 H 0.00943 0.53179 0.87571 0.0
H638 H 0.91377 0.42441 0.11809 0.0
H639 H 0.91377 0.42441 0.11809 0.0
H640 H 0.94382 0.37349 0.04034 0.0
H641 H 0.96415 0.3763 0.96604 0.0
C642 C 0.51312 0.51039 0.38338 0.0
C643 C 0.48207 0.47378 0.37966 0.0
C644 C 0.48463 0.46647 0.49411 0.0
C645 C 0.51485 0.50384 0.49867 0.0
N646 N 0.54933 0.56457 0.45023 0.0
N647 N 0.44845 0.41278 0.42576 0.0
C648 C 0.52646 0.52681 0.44378 0.0
C649 C 0.47211 0.45028 0.43337 0.0
N650 N 0.53058 0.5287 0.32913 0.0
N651 N 0.46564 0.44777 0.5472 0.0
H652 H 0.43931 0.40112 0.38072 0.0
H653 H 0.44077 0.39349 0.46253 0.0
H654 H 0.46972 0.46117 0.59081 0.0
H655 H 0.44208 0.42113 0.54627 0.0
H656 H 0.55503 0.55469 0.32881 0.0
H657 H 0.52304 0.5154 0.28504 0.0
H658 H 0.55683 0.58326 0.41255 0.0
H659 H 0.55731 0.57724 0.49479 0.0
C660 C 0.5264 0.01075 0.46243 0.0
C661 C 0.50392 0.98344 0.41738 0.0
C662 C 0.44714 0.97601 0.46896 0.0
C663 C 0.4698 0.00239 0.51537 0.0
N664 N 0.53149 0.03729 0.56543 0.0
N665 N 0.44212 0.94499 0.36973 0.0
C666 C 0.50952 0.01775 0.51488 0.0
C667 C 0.46408 0.96743 0.41807 0.0
N668 N 0.56419 0.03153 0.4531 0.0
N669 N 0.40915 0.95687 0.47671 0.0
H670 H 0.45116 0.93547 0.3322 0.0
H671 H 0.41433 0.93776 0.36335 0.0
H672 H 0.39597 0.96188 0.51438 0.0
H673 H 0.39082 0.93337 0.45045 0.0
H674 H 0.58175 0.05549 0.47917 0.0
H675 H 0.57737 0.02761 0.41413 0.0
H676 H 0.55936 0.04429 0.56978 0.0
H677 H 0.52226 0.04352 0.60668 0.0
C678 C 0.02049 0.48857 0.5351 0.0
C679 C 0.00393 0.4947 0.58881 0.0
C680 C 0.99303 0.53908 0.52923 0.0
C681 C 0.00855 0.53286 0.47374 0.0
N682 N 0.03893 0.50094 0.42559 0.0
N683 N 0.99373 0.53977 0.64376 0.0
C684 C 0.02311 0.5076 0.47708 0.0
C685 C -0.00351 0.52456 0.5881 0.0
N686 N 0.03117 0.46219 0.53927 0.0
N687 N 0.97367 0.55783 0.52535 0.0
H688 H 5e-05 0.5321 0.68719 0.0
H689 H 0.99065 0.56333 0.64575 0.0
H690 H 0.96856 0.5669 0.48223 0.0
H691 H 0.95913 0.56031 0.56359 0.0
H692 H 0.0385 0.45141 0.5009 0.0
H693 H 0.03179 0.4504 0.58279 0.0
H694 H 0.05652 0.48976 0.42881 0.0
H695 H 0.03443 0.50553 0.37895 0.0
C696 C 0.57868 0.47644 0.97349 0.0
C697 C 0.56428 0.43734 -0.01617 0.0
C698 C 0.57666 0.42983 0.87293 0.0
C699 C 0.59012 0.46846 0.86252 0.0
N700 N 0.60732 0.5297 0.90405 0.0
N701 N 0.56129 0.38051 0.94873 0.0
C702 C 0.59311 0.49215 0.91347 0.0
C703 C 0.56719 0.41534 0.93513 0.0
N704 N 0.5774 0.49965 0.01809 0.0
N705 N 0.57093 0.40636 0.8231 0.0
H706 H 0.55329 0.36871 -0.00649 0.0
H707 H 0.56816 0.36525 0.91776 0.0
H708 H 0.57796 0.41554 0.77661 0.0
H709 H 0.55635 0.3773 0.82709 0.0
H710 H 0.56656 0.49187 0.06356 0.0
H711 H 0.56656 0.49187 0.06356 0.0
H712 H 0.61015 0.54797 0.94064 0.0
H713 H 0.6165 0.54274 0.86022 0.0
C714 C 0.58589 0.12901 0.88689 0.0
C715 C 0.58488 0.14858 0.94094 0.0
C716 C 0.52769 0.14556 0.89758 0.0
C717 C 0.52665 0.12123 0.84816 0.0
N718 N 0.54554 0.07537 0.82456 0.0
N719 N 0.55606 0.17789 -0.00287 0.0
C720 C 0.55303 0.10866 0.85096 0.0
C721 C 0.55628 0.15803 0.9455 0.0
N722 N 0.61755 0.12858 0.87037 0.0
N723 N 0.50037 0.15482 0.9015 0.0
H724 H 0.57831 0.18947 0.0293 0.0
H725 H 0.53425 0.18249 0.00872 0.0
H726 H 0.47456 0.13945 0.87911 0.0
H727 H 0.50256 0.17669 0.92924 0.0
H728 H 0.61875 0.11457 0.8301 0.0
H729 H 0.64351 0.14655 0.89072 0.0
H730 H 0.56363 0.06475 0.82939 0.0
H731 H 0.519 0.05568 0.8082 0.0
C732 C 0.81538 0.4057 0.89381 0.0
C733 C 0.84045 0.39167 0.88709 0.0
C734 C 0.84199 0.38769 0.00302 0.0
C735 C 0.82742 0.41226 0.00757 0.0
N736 N 0.78706 0.43199 0.96285 0.0
N737 N 0.87317 0.36367 0.93644 0.0
C738 C 0.80935 0.41667 0.95446 0.0
C739 C 0.85189 0.38028 0.94215 0.0
N740 N 0.7973 0.40811 0.84199 0.0
N741 N 0.84483 0.37048 0.05619 0.0
H742 H 0.88047 0.35746 0.8927 0.0
H743 H 0.88473 0.35736 0.97499 0.0
H744 H 0.83436 0.37289 0.09973 0.0
H745 H 0.85323 0.35056 0.05582 0.0
H746 H 0.77769 0.41683 0.8415 0.0
H747 H 0.80086 0.39853 0.79916 0.0
H748 H 0.77301 0.43699 0.92679 0.0
H749 H 0.78205 0.43909 0.00777 0.0
C750 C 0.48902 0.61843 0.51175 0.0
C751 C 0.46618 0.60345 0.56662 0.0
C752 C 0.41282 0.56462 0.49686 0.0
C753 C 0.43683 0.57259 0.44453 0.0
N754 N 0.49927 0.60941 0.40144 0.0
N755 N 0.40579 0.55789 0.60989 0.0
C756 C 0.47525 0.60079 0.45116 0.0
C757 C 0.42795 0.57528 0.55867 0.0
N758 N 0.52421 0.64867 0.5174 0.0
N759 N 0.37508 0.54631 0.48701 0.0
H760 H 0.413 0.5674 0.65628 0.0
H761 H 0.38011 0.5332 0.60623 0.0
H762 H 0.36334 0.54119 0.44164 0.0
H763 H 0.35575 0.53887 0.52312 0.0
H764 H 0.54042 0.66363 0.47873 0.0
H765 H 0.5364 0.66075 0.5607 0.0
H766 H 0.5282 0.62536 0.40605 0.0
H767 H 0.49085 0.59999 0.35544 0.0
C768 C 0.42012 0.89143 0.58612 0.0
C769 C 0.38898 0.85649 0.60314 0.0
C770 C 0.40208 0.82797 0.51086 0.0
C771 C 0.43619 0.86181 0.5005 0.0
N772 N 0.48148 0.92328 0.53936 0.0
N773 N 0.35133 0.79033 0.58289 0.0
C774 C 0.44629 0.89286 0.5413 0.0
C775 C 0.37992 0.82441 0.56537 0.0
N776 N 0.42489 0.9234 0.61425 0.0
N777 N 0.39124 0.79903 0.46923 0.0
H778 H 0.3335 0.78755 0.61937 0.0
H779 H 0.34621 0.76511 0.56291 0.0
H780 H 0.40846 0.80001 0.43247 0.0
H781 H 0.36487 0.77511 0.46942 0.0
H782 H 0.44704 0.94992 0.60453 0.0
H783 H 0.40479 0.92357 0.64392 0.0
H784 H 0.49173 0.9446 0.57307 0.0
H785 H 0.50199 0.92534 0.50864 0.0
C786 C 0.11372 0.55923 0.63195 0.0
C787 C 0.11312 0.52468 0.62576 0.0
C788 C 0.12962 0.54087 0.514 0.0
C789 C 0.11918 0.56889 0.51779 0.0
N790 N 0.08844 0.59408 0.58461 0.0
N791 N 0.1165 0.48055 0.55333 0.0
C792 C 0.1079 0.57555 0.57789 0.0
C793 C 0.12038 0.5149 0.56478 0.0
N794 N 0.11995 0.57689 0.68898 0.0
N795 N 0.1488 0.5393 0.46286 0.0
H796 H 0.10692 0.45922 0.58672 0.0
H797 H 0.11861 0.47181 0.50794 0.0
H798 H 0.15843 0.55974 0.42789 0.0
H799 H 0.15927 0.52101 0.46003 0.0
H800 H 0.12274 0.60337 0.69364 0.0
H801 H 0.12738 0.56744 0.72898 0.0
H802 H 0.07883 0.59715 0.62864 0.0
H803 H 0.07619 0.6006 0.54739 0.0
C804 C 0.37972 0.55268 0.04362 0.0
C805 C 0.37872 0.51913 0.06201 0.0
C806 C 0.40421 0.51711 0.95779 0.0
C807 C 0.41337 0.55494 0.94658 0.0
N808 N 0.40874 0.60843 0.97874 0.0
N809 N 0.38464 0.46616 0.03377 0.0
C810 C 0.40035 0.57241 -0.01085 0.0
C811 C 0.38869 0.50006 0.01749 0.0
N812 N 0.36006 0.56513 0.07719 0.0
N813 N 0.411 0.49764 0.91244 0.0
H814 H 0.37127 0.45217 0.07532 0.0
H815 H 0.395 0.45218 0.00735 0.0
H816 H 0.42519 0.50931 0.8705 0.0
H817 H 0.39995 0.4688 0.91405 0.0
H818 H 0.35663 0.58745 0.06329 0.0
H819 H 0.34374 0.55009 0.11522 0.0
H820 H 0.40393 0.6243 0.01176 0.0
H821 H 0.42246 0.62317 0.9381 0.0
C822 C 0.41164 0.82795 0.02573 0.0
C823 C 0.42385 0.86416 0.00057 0.0
C824 C 0.47854 0.89027 0.06938 0.0
C825 C 0.46408 0.85596 0.1017 0.0
N826 N 0.41704 0.79113 0.11072 0.0
N827 N 0.4614 0.93077 0.01641 0.0
C828 C 0.43075 0.82426 0.07946 0.0
C829 C 0.45542 0.89562 0.02686 0.0
N830 N 0.38176 0.79748 -0.00102 0.0
N831 N 0.51432 0.91814 0.08054 0.0
H832 H 0.44328 0.93579 -0.01065 0.0
H833 H 0.48117 0.95387 0.04209 0.0
H834 H 0.53239 0.91373 0.10909 0.0
H835 H 0.52681 0.94333 0.05557 0.0
H836 H 0.37345 0.76995 0.0111 0.0
H837 H 0.3661 0.79985 0.96227 0.0
H838 H 0.39067 0.768 0.10282 0.0
H839 H 0.43267 0.78743 0.1455 0.0
C840 C 0.14078 0.5751 0.02536 0.0
C841 C 0.11027 0.53812 0.01828 0.0
C842 C 0.07766 0.54869 0.10513 0.0
C843 C 0.10929 0.58449 0.11697 0.0
N844 N 0.16416 0.63682 0.07164 0.0
N845 N 0.0545 0.48667 0.06252 0.0
C846 C 0.13927 0.59931 0.07262 0.0
C847 C 0.08011 0.52407 0.06143 0.0
N848 N 0.17181 0.58629 -0.01115 0.0
N849 N 0.04439 0.53909 0.13364 0.0
H850 H 0.05662 0.46742 0.03362 0.0
H851 H 0.03403 0.47411 0.09721 0.0
H852 H 0.04001 0.55859 0.15804 0.0
H853 H 0.02017 0.51342 0.12762 0.0
H854 H 0.19662 0.61156 -0.00509 0.0
H855 H 0.1738 0.56842 0.95608 0.0
H856 H 0.18562 0.64976 0.03876 0.0
H857 H 0.15973 0.65581 0.097 0.0
C858 C 0.51558 0.38127 0.42138 0.0
C859 C 0.53359 0.39859 0.36328 0.0
C860 C 0.59367 0.43217 0.4205 0.0
C861 C 0.57411 0.42176 0.47827 0.0
N862 N 0.5227 0.37094 0.53277 0.0
N863 N 0.59173 0.43851 0.30729 0.0
C864 C 0.53692 0.39124 0.47859 0.0
C865 C 0.57334 0.42294 0.36258 0.0
N866 N 0.47777 0.35747 0.42312 0.0
N867 N 0.63181 0.44973 0.42172 0.0
H868 H 0.57942 0.43082 0.26278 0.0
H869 H 0.61929 0.4604 0.3055 0.0
H870 H 0.64655 0.45476 0.46432 0.0
H871 H 0.64832 0.45526 0.38152 0.0
H872 H 0.46272 0.34701 0.46485 0.0
H873 H 0.46035 0.35048 0.38371 0.0
H874 H 0.497 0.3463 0.5352 0.0
H875 H 0.53888 0.37579 0.57339 0.0
C876 C 0.57784 0.15402 0.44389 0.0
C877 C 0.54181 0.12254 0.45152 0.0
C878 C 0.55163 0.09401 0.35747 0.0
C879 C 0.58509 0.12775 0.3433 0.0
N880 N 0.624 0.19342 0.36806 0.0
N881 N 0.49045 0.06713 0.40359 0.0
C882 C 0.59713 0.15866 0.3858 0.0
C883 C 0.52736 0.09399 0.40452 0.0
N884 N 0.59277 0.18053 0.49036 0.0
N885 N 0.54333 0.06157 0.32684 0.0
H886 H 0.47107 0.06664 0.4352 0.0
H887 H 0.47814 0.04799 0.36664 0.0
H888 H 0.56306 0.059 0.30004 0.0
H889 H 0.51873 0.03631 0.33347 0.0
H890 H 0.62065 0.2019 0.4907 0.0
H891 H 0.57747 0.17979 0.52998 0.0
H892 H 0.63207 0.21755 0.39475 0.0
H893 H 0.63345 0.19838 0.32222 0.0
C894 C 0.85296 0.48695 0.43565 0.0
C895 C 0.87762 0.49093 0.38562 0.0
C896 C 0.90786 0.46551 0.4528 0.0
C897 C 0.88051 0.45713 0.5006 0.0
N898 N 0.82683 0.45939 0.53808 0.0
N899 N 0.93753 0.49944 0.35708 0.0
C900 C 0.85338 0.4684 0.49268 0.0
C901 C 0.90787 0.48497 0.39785 0.0
N902 N 0.83062 0.50233 0.43002 0.0
N903 N 0.93366 0.45427 0.45915 0.0
H904 H 0.94074 0.51834 0.32131 0.0
H905 H 0.96017 0.4952 0.36089 0.0
H906 H 0.93936 0.4457 0.50176 0.0
H907 H 0.94875 0.45219 0.42153 0.0
H908 H 0.81334 0.50235 0.46574 0.0
H909 H 0.83317 0.51968 0.39256 0.0
H910 H 0.80355 0.46263 0.53322 0.0
H911 H 0.82714 0.44635 0.57992 0.0
C912 C 0.31618 0.3247 0.2841 0.0
C913 C 0.30794 0.34733 0.24365 0.0
C914 C 0.32417 0.32076 0.15366 0.0
C915 C 0.34616 0.31206 0.19493 0.0
N916 N 0.35095 0.29201 0.29996 0.0
N917 N 0.29187 0.35579 0.13752 0.0
C918 C 0.33792 0.30913 0.26055 0.0
C919 C 0.30746 0.34139 0.17744 0.0
N920 N 0.30312 0.31856 0.34478 0.0
N921 N 0.31873 0.30833 0.0925 0.0
H922 H 0.27467 0.36573 0.15388 0.0
H923 H 0.29543 0.35712 0.08855 0.0
H924 H 0.32863 0.29097 0.07633 0.0
H925 H 0.30125 0.31157 0.06068 0.0
H926 H 0.30608 0.30084 0.3764 0.0
H927 H 0.2861 0.32884 0.36096 0.0
H928 H 0.35031 0.29333 0.34919 0.0
H929 H 0.36162 0.27558 0.28269 0.0
C930 C 0.60655 0.97988 0.22162 0.0
C931 C 0.62754 0.96298 0.24104 0.0
C932 C 0.68528 0.02269 0.21638 0.0
C933 C 0.66376 0.0404 0.20589 0.0
N934 N 0.60417 0.03695 0.2187 0.0
N935 N 0.68767 0.96974 0.26329 0.0
C936 C 0.62449 0.01924 0.21455 0.0
C937 C 0.66729 0.98487 0.24032 0.0
N938 N 0.56905 0.95835 0.21063 0.0
N939 N 0.72257 0.04181 0.20337 0.0
H940 H 0.67505 0.94193 0.27835 0.0
H941 H 0.71652 0.98513 0.26991 0.0
H942 H 0.73617 0.06965 0.18827 0.0
H943 H 0.73929 0.02954 0.20445 0.0
H944 H 0.553 0.96893 0.19123 0.0
H945 H 0.55499 0.92929 0.21318 0.0
H946 H 0.5757 0.02301 0.22885 0.0
H947 H 0.6167 0.06594 0.22115 0.0
C948 C 0.04211 0.67315 0.18479 0.0
C949 C 0.04454 0.68738 0.2464 0.0
C950 C 0.97688 0.66495 0.23836 0.0
C951 C 0.97355 0.63998 0.18858 0.0
N952 N 0.00764 0.61561 0.12855 0.0
N953 N 0.01402 0.70268 0.32805 0.0
C954 C 0.0074 0.6431 0.16437 0.0
C955 C 0.01177 0.68541 0.27182 0.0
N956 N 0.07295 0.6865 0.14731 0.0
N957 N 0.94741 0.6698 0.2527 0.0
H958 H 0.03972 0.72019 0.34992 0.0
H959 H 0.99066 0.69884 0.35306 0.0
H960 H 0.92273 0.65739 0.22626 0.0
H961 H 0.94908 0.68936 0.28571 0.0
H962 H 0.0716 0.67702 0.10097 0.0
H963 H 0.09811 0.71027 0.15977 0.0
H964 H 0.03248 0.6173 0.11355 0.0
H965 H 0.98474 0.58881 0.12337 0.0
C966 C 0.62444 0.67784 0.67581 0.0
C967 C 0.63107 0.68854 0.73994 0.0
C968 C 0.67199 0.66086 0.74379 0.0
C969 C 0.65387 0.63935 0.6885 0.0
N970 N 0.60249 0.62271 0.61324 0.0
N971 N 0.66835 0.69681 0.83256 0.0
C972 C 0.62777 0.64696 0.65638 0.0
C973 C 0.65761 0.68248 0.77304 0.0
N974 N 0.61229 0.69499 0.6349 0.0
N975 N 0.70298 0.66131 0.76742 0.0
H976 H 0.6603 0.71499 0.85194 0.0
H977 H 0.68413 0.68996 0.86245 0.0
H978 H 0.71541 0.64787 0.74476 0.0
H979 H 0.7186 0.67831 0.80512 0.0
H980 H 0.60824 0.68838 0.5867 0.0
H981 H 0.61114 0.7187 0.64838 0.0
H982 H 0.58241 0.62752 0.59215 0.0
H983 H 0.59677 0.59533 0.60693 0.0
C984 C 0.3096 0.98384 0.7888 0.0
C985 C 0.30385 0.95128 0.75528 0.0
C986 C 0.34048 0.98992 0.66862 0.0
C987 C 0.34752 0.02374 0.70019 0.0
N988 N 0.32862 0.05023 0.78429 0.0
N989 N 0.29475 0.92494 0.6508 0.0
C990 C 0.32869 0.01996 0.7585 0.0
C991 C 0.3118 0.95502 0.6904 0.0
N992 N 0.29738 0.98008 0.84975 0.0
N993 N 0.36431 0.98982 0.62425 0.0
H994 H 0.27231 0.89944 0.66576 0.0
H995 H 0.29983 0.9273 0.60211 0.0
H996 H 0.39104 0.01242 0.61821 0.0
H997 H 0.36043 0.96519 0.60337 0.0
H998 H 0.30417 0.00267 0.87972 0.0
H999 H 0.28088 0.95372 0.87015 0.0
H1000 H 0.31333 0.04868 0.82446 0.0
H1001 H 0.34104 0.07622 0.76183 0.0
C1002 C 0.97635 0.31687 0.68131 0.0
C1003 C 0.94726 0.31342 0.72201 0.0
C1004 C 0.98836 0.32088 0.81171 0.0
C1005 C 0.02008 0.33906 0.77114 0.0
N1006 N 0.04305 0.34194 0.66552 0.0
N1007 N 0.92316 0.30167 0.82875 0.0
C1008 C 0.0137 0.33274 0.70512 0.0
C1009 C 0.95223 0.3116 0.78822 0.0
N1010 N 0.96772 0.30456 0.62022 0.0
N1011 N 0.99272 0.3112 0.87164 0.0
H1012 H 0.89554 0.28898 0.81329 0.0
H1013 H 0.92662 0.30551 0.87765 0.0
H1014 H 0.01822 0.31452 0.88717 0.0
H1015 H 0.97048 0.29581 0.9023 0.0
H1016 H 0.98671 0.304 0.58859 0.0
H1017 H 0.94016 0.29128 0.60369 0.0
H1018 H 0.04121 0.34279 0.61637 0.0
H1019 H 0.0693 0.34829 0.68261 0.0
C1020 C 0.39794 0.21748 0.91547 0.0
C1021 C 0.43206 0.2317 0.88234 0.0
C1022 C 0.46466 0.27874 0.96345 0.0
C1023 C 0.43076 0.26593 -0.0029 0.0
N1024 N 0.36362 0.22838 -0.00145 0.0
N1025 N 0.492 0.28603 0.86075 0.0
C1026 C 0.3967 0.23715 0.9704 0.0
C1027 C 0.46326 0.26586 0.90148 0.0
N1028 N 0.36754 0.18491 0.8959 0.0
N1029 N 0.4987 0.2992 -0.00782 0.0
H1030 H 0.49138 0.2781 0.81371 0.0
H1031 H 0.51382 0.3127 0.87211 0.0
H1032 H 0.50268 0.30843 0.03893 0.0
H1033 H 0.52318 0.30329 0.97066 0.0
H1034 H 0.34274 0.17111 0.92145 0.0
H1035 H 0.36804 0.1708 0.85517 0.0
H1036 H 0.33762 0.20939 0.97951 0.0
H1037 H 0.36248 0.24281 0.03837 0.0
C1038 C 0.78516 0.22748 0.0041 0.0
C1039 C 0.75748 0.18934 0.01443 0.0
C1040 C 0.75434 0.17859 0.89996 0.0
C1041 C 0.78403 0.21616 0.89155 0.0
N1042 N 0.83615 0.27048 0.93803 0.0
N1043 N 0.72281 0.12653 0.97319 0.0
C1044 C 0.80277 0.23812 0.94483 0.0
C1045 C 0.74437 0.16407 0.96264 0.0
N1046 N 0.7918 0.25461 0.04778 0.0
N1047 N 0.73405 0.15761 0.84927 0.0
H1048 H 0.71624 0.11539 0.0188 0.0
H1049 H 0.71487 0.10659 0.9373 0.0
H1050 H 0.7404 0.16663 0.80255 0.0
H1051 H 0.7094 0.13201 0.85411 0.0
H1052 H 0.80974 0.28302 0.03914 0.0
H1053 H 0.77545 0.24967 0.08797 0.0
H1054 H 0.85208 0.28607 0.97678 0.0
H1055 H 0.8493 0.27917 0.89413 0.0
C1056 C 0.83531 0.61485 -0.01238 0.0
C1057 C 0.83619 0.5818 0.00367 0.0
C1058 C 0.7911 0.54751 0.92154 0.0
C1059 C 0.78866 0.57967 0.90523 0.0
N1060 N 0.81535 0.64656 0.91284 0.0
N1061 N 0.83289 0.52695 0.95901 0.0
C1062 C 0.81344 0.61449 0.93453 0.0
C1063 C 0.8203 0.55165 0.96126 0.0
N1064 N 0.85397 0.64567 0.02535 0.0
N1065 N 0.7646 0.51256 0.90252 0.0
H1066 H 0.8567 0.53213 -0.01601 0.0
H1067 H 0.82359 0.50574 0.92508 0.0
H1068 H 0.73981 0.50713 0.8809 0.0
H1069 H 0.76481 0.48854 0.91706 0.0
H1070 H 0.85162 0.66955 0.02119 0.0
H1071 H 0.87122 0.64635 0.06228 0.0
H1072 H 0.83494 0.67316 0.929 0.0
H1073 H 0.79847 0.6465 0.87589 0.0
C1074 C 0.25486 0.46164 0.4574 0.0
C1075 C 0.26215 0.43176 0.44803 0.0
C1076 C 0.21992 0.39743 0.53617 0.0
C1077 C 0.21482 0.42848 0.54869 0.0
N1078 N 0.23541 0.49418 0.52832 0.0
N1079 N 0.25663 0.37404 0.48386 0.0
C1080 C 0.23441 0.46167 0.5113 0.0
C1081 C 0.24633 0.40062 0.48951 0.0
N1082 N 0.26589 0.48944 0.41318 0.0
N1083 N 0.19818 0.36428 0.56681 0.0
H1084 H 0.27596 0.37602 0.45007 0.0
H1085 H 0.24889 0.35219 0.5159 0.0
H1086 H 0.17752 0.36051 0.59912 0.0
H1087 H 0.19799 0.33958 0.55586 0.0
H1088 H 0.2558 0.50806 0.41208 0.0
H1089 H 0.28293 0.49259 0.37477 0.0
H1090 H 0.25296 0.51989 0.50695 0.0
H1091 H 0.22251 0.49732 0.56803 0.0
C1092 C 0.58662 0.83979 0.56754 0.0
C1093 C 0.58962 0.8071 0.576 0.0
C1094 C 0.59171 0.80001 0.4631 0.0
C1095 C 0.58755 0.83211 0.45264 0.0
N1096 N 0.59623 0.88995 0.49603 0.0
N1097 N 0.61469 0.77042 0.53497 0.0
C1098 C 0.58997 0.85455 0.50531 0.0
C1099 C 0.60016 0.79317 0.52452 0.0
N1100 N 0.57884 0.85575 0.61749 0.0
N1101 N 0.58306 0.77322 0.4178 0.0
H1102 H 0.62065 0.76553 0.58088 0.0
H1103 H 0.6246 0.76065 0.49853 0.0
H1104 H 0.56967 0.77203 0.37562 0.0
H1105 H 0.58357 0.74859 0.42648 0.0
H1106 H 0.57089 0.87589 0.61183 0.0
H1107 H 0.5799 0.84871 0.66446 0.0
H1108 H 0.60087 0.90855 0.533 0.0
H1109 H 0.60127 0.90203 0.45111 0.0
C1110 C 0.18152 0.7918 0.54559 0.0
C1111 C 0.18309 0.7703 0.59613 0.0
C1112 C 0.1663 0.71752 0.52615 0.0
C1113 C 0.16478 0.73866 0.47443 0.0
N1114 N 0.15942 0.79132 0.43861 0.0
N1115 N 0.16087 0.70858 0.63938 0.0
C1116 C 0.16809 0.77423 0.48566 0.0
C1117 C 0.16875 0.73141 0.58803 0.0
N1118 N 0.19454 0.82909 0.55423 0.0
N1119 N 0.17087 0.68731 0.51672 0.0
H1120 H 0.16269 0.71828 0.68561 0.0
H1121 H 0.14861 0.67957 0.63527 0.0
H1122 H 0.17469 0.679 0.47212 0.0
H1123 H 0.17555 0.67338 0.55373 0.0
H1124 H 0.19791 0.8473 0.51734 0.0
H1125 H 0.20324 0.84172 0.5987 0.0
H1126 H 0.15919 0.81622 0.44524 0.0
H1127 H 0.14901 0.77846 0.39478 0.0
C1128 C 0.52876 0.71211 -0.00081 0.0
C1129 C 0.5549 0.73165 0.95038 0.0
C1130 C 0.59301 0.78291 0.02464 0.0
C1131 C 0.56574 0.76403 0.07159 0.0
N1132 N 0.5173 0.705 0.11181 0.0
N1133 N 0.61794 0.77824 0.92305 0.0
C1134 C 0.5372 0.72647 0.06159 0.0
C1135 C 0.58932 0.76454 0.96564 0.0
N1136 N 0.4943 0.68231 -0.0141 0.0
N1137 N 0.62122 0.81864 0.03541 0.0
H1138 H 0.61584 0.76448 0.88035 0.0
H1139 H 0.6445 0.80069 0.93273 0.0
H1140 H 0.62475 0.83183 0.07919 0.0
H1141 H 0.63984 0.83544 0.00048 0.0
H1142 H 0.47292 0.6707 0.01921 0.0
H1143 H 0.48568 0.67111 0.9409 0.0
H1144 H 0.49815 0.67644 0.10807 0.0
H1145 H 0.52331 0.7151 0.15808 0.0
C1146 C 0.21796 0.8182 -0.00132 0.0
C1147 C 0.25377 0.82483 0.97907 0.0
C1148 C 0.26395 0.8104 0.08648 0.0
C1149 C 0.22516 0.79237 0.09816 0.0
N1150 N 0.16457 0.78153 0.06726 0.0
N1151 N 0.30684 0.81711 0.00531 0.0
C1152 C 0.20183 0.79733 0.05511 0.0
C1153 C 0.27648 0.81947 0.02355 0.0
N1154 N 0.19927 0.83091 0.96235 0.0
N1155 N 0.2888 0.81745 0.13432 0.0
H1156 H 0.31388 0.81668 0.95821 0.0
H1157 H 0.32193 0.81032 0.03708 0.0
H1158 H 0.28079 0.81051 0.18142 0.0
H1159 H 0.31753 0.83409 0.1271 0.0
H1160 H 0.17409 0.82881 0.97598 0.0
H1161 H 0.21119 0.84686 0.92163 0.0
H1162 H 0.14547 0.78109 0.03443 0.0
H1163 H 0.15283 0.76745 0.10957 0.0
C1164 C 0.14712 0.399 0.00203 0.0
C1165 C 0.17169 0.41272 0.94956 0.0
C1166 C 0.22119 0.41434 0.01533 0.0
C1167 C 0.20006 0.40989 0.07009 0.0
N1168 N 0.14196 0.3996 0.1162 0.0
N1169 N 0.23648 0.4448 0.91454 0.0
C1170 C 0.16241 0.40199 0.06393 0.0
C1171 C 0.20992 0.42306 0.958 0.0
N1172 N 0.1095 0.3828 -0.00714 0.0
N1173 N 0.2535 0.41305 0.01928 0.0
H1174 H 0.23099 0.45729 0.87629 0.0
H1175 H 0.26495 0.45499 0.9218 0.0
H1176 H 0.26234 0.40689 0.06175 0.0
H1177 H 0.26891 0.41422 0.97939 0.0
H1178 H 0.09009 0.36965 0.02897 0.0
H1179 H 0.09781 0.37919 0.94779 0.0
H1180 H 0.1163 0.39862 0.11344 0.0
H1181 H 0.15132 0.4006 0.16236 0.0
C1182 C 0.75349 0.54382 0.43777 0.0
C1183 C 0.76932 0.57633 0.39827 0.0
C1184 C 0.74603 0.60605 0.47232 0.0
C1185 C 0.73474 0.57535 0.514 0.0
N1186 N 0.73367 0.51777 0.54147 0.0
N1187 N 0.78234 0.63939 0.37946 0.0
C1188 C 0.73975 0.54494 0.49785 0.0
C1189 C 0.76567 0.60768 0.41559 0.0
N1190 N 0.75019 0.51084 0.41806 0.0
N1191 N 0.7378 0.63334 0.48717 0.0
H1192 H 0.79705 0.64144 0.33816 0.0
H1193 H 0.78375 0.66442 0.39227 0.0
H1194 H 0.72371 0.63249 0.52868 0.0
H1195 H 0.74233 0.65507 0.45678 0.0
H1196 H 0.73228 0.48515 0.43932 0.0
H1197 H 0.7635 0.5082 0.37924 0.0
H1198 H 0.74313 0.49881 0.53549 0.0
H1199 H 0.72197 0.5155 0.58599 0.0
C1200 C 0.38631 0.18814 0.42401 0.0
C1201 C 0.41577 0.19855 0.38055 0.0
C1202 C 0.44838 0.17897 0.45376 0.0
C1203 C 0.41911 0.16842 0.49811 0.0
N1204 N 0.35629 0.15417 0.52052 0.0
N1205 N 0.46713 0.19127 0.34471 0.0
C1206 C 0.38646 0.16972 0.48111 0.0
C1207 C 0.44367 0.18888 0.39205 0.0
N1208 N 0.35939 0.19724 0.41184 0.0
N1209 N 0.48257 0.1844 0.47201 0.0
H1210 H 0.46513 0.19976 0.29924 0.0
H1211 H 0.48572 0.18126 0.3492 0.0
H1212 H 0.48915 0.18076 0.5181 0.0
H1213 H 0.50593 0.19643 0.44262 0.0
H1214 H 0.33912 0.19388 0.44455 0.0
H1215 H 0.3585 0.20968 0.36925 0.0
H1216 H 0.33074 0.15202 0.5093 0.0
H1217 H 0.35613 0.14045 0.56225 0.0
C1218 C 0.76342 0.2241 0.46891 0.0
C1219 C 0.78156 0.21854 0.41686 0.0
C1220 C 0.84202 0.25842 0.47088 0.0
C1221 C 0.82359 0.26968 0.51484 0.0
N1222 N 0.76664 0.26766 0.54787 0.0
N1223 N 0.83782 0.22212 0.37691 0.0
C1224 C 0.7843 0.25412 0.51092 0.0
C1225 C 0.821 0.23332 0.42034 0.0
N1226 N 0.7266 0.1993 0.48047 0.0
N1227 N 0.87934 0.27117 0.47871 0.0
H1228 H 0.82241 0.1989 0.34774 0.0
H1229 H 0.86659 0.23462 0.37114 0.0
H1230 H 0.89528 0.2909 0.51333 0.0
H1231 H 0.89448 0.26209 0.45224 0.0
H1232 H 0.71273 0.20077 0.52062 0.0
H1233 H 0.7118 0.17444 0.45474 0.0
H1234 H 0.73834 0.25898 0.54261 0.0
H1235 H 0.7809 0.29017 0.57881 0.0
loop_
_geom_bond_atom_site_label_1
_geom_bond_atom_site_label_2
_geom_bond_distance
_geom_bond_site_symmetry_2
_ccdc_geom_bond_type
C0 O12 1.241 . S
C0 O13 1.280 . S
C1 O14 1.277 . S
C1 O15 1.245 1_556 S
C2 O26 1.247 . S
C2 O28 1.289 . S
Mg3 O4 1.926 . S
Mg3 O13 1.984 . S
Mg3 O15 1.988 . S
Mg3 O16 2.061 . S
O4 Mg3 1.926 . S
O4 Mg5 1.986 . S
O4 Mg6 1.917 . S
Mg5 O4 1.986 . S
Mg5 O12 2.042 . S
Mg5 O14 2.041 1_554 S
Mg5 O20 2.038 . S
Mg5 O28 2.238 . S
Mg6 O4 1.917 . S
Mg6 O7 1.917 . S
Mg6 O17 2.106 . S
Mg6 O19 2.079 . S
Mg6 O28 2.106 . S
Mg6 O29 2.079 . S
O7 Mg6 1.917 . S
O7 Mg8 1.926 . S
O7 Mg9 1.986 . S
Mg8 O7 1.926 . S
Mg8 O22 1.984 . S
Mg8 O25 1.988 . S
Mg8 O26 2.061 . S
Mg9 O7 1.986 . S
Mg9 O17 2.238 . S
Mg9 O21 2.042 . S
Mg9 O23 2.041 . S
Mg9 O30 2.038 . S
C10 O16 1.247 . S
C10 O17 1.289 . S
C11 O29 1.245 . S
C11 O30 1.274 . S
O12 C0 1.241 . S
O12 Mg5 2.042 . S
O13 C0 1.280 . S
O13 Mg3 1.984 . S
O14 C1 1.277 . S
O14 Mg5 2.041 1_556 S
O15 C1 1.245 1_554 S
O15 Mg3 1.988 . S
O16 Mg3 2.061 . S
O16 C10 1.247 . S
O17 Mg6 2.106 . S
O17 Mg9 2.238 . S
O17 C10 1.289 . S
C18 O19 1.245 . S
C18 O20 1.274 . S
O19 Mg6 2.079 . S
O19 C18 1.245 . S
O20 Mg5 2.038 . S
O20 C18 1.274 . S
O21 Mg9 2.042 . S
O21 C24 1.241 . S
O22 Mg8 1.984 . S
O22 C24 1.280 . S
O23 Mg9 2.041 . S
O23 C27 1.277 . S
C24 O21 1.241 . S
C24 O22 1.280 . S
O25 Mg8 1.988 . S
O25 C27 1.245 . S
O26 C2 1.247 . S
O26 Mg8 2.061 . S
C27 O23 1.277 . S
C27 O25 1.245 . S
O28 C2 1.289 . S
O28 Mg5 2.238 . S
O28 Mg6 2.106 . S
O29 Mg6 2.079 . S
O29 C11 1.245 . S
O30 Mg9 2.038 . S
O30 C11 1.274 . S
C31 O43 1.241 . S
C31 O44 1.280 . S
C32 O45 1.277 . S
C32 O46 1.245 1_556 S
C33 O57 1.247 . S
C33 O59 1.289 . S
Mg34 O35 1.926 . S
Mg34 O44 1.984 . S
Mg34 O46 1.988 . S
Mg34 O47 2.061 . S
O35 Mg34 1.926 . S
O35 Mg36 1.986 . S
O35 Mg37 1.917 . S
Mg36 O35 1.986 . S
Mg36 O43 2.042 . S
Mg36 O45 2.041 1_554 S
Mg36 O51 2.038 . S
Mg36 O59 2.238 . S
Mg37 O35 1.917 . S
Mg37 O38 1.917 . S
Mg37 O48 2.106 . S
Mg37 O50 2.079 . S
Mg37 O59 2.106 . S
Mg37 O60 2.079 . S
O38 Mg37 1.917 . S
O38 Mg39 1.926 . S
O38 Mg40 1.986 . S
Mg39 O38 1.926 . S
Mg39 O53 1.984 . S
Mg39 O56 1.988 . S
Mg39 O57 2.061 . S
Mg40 O38 1.986 . S
Mg40 O48 2.238 . S
Mg40 O52 2.042 . S
Mg40 O54 2.041 . S
Mg40 O61 2.038 . S
C41 O47 1.247 . S
C41 O48 1.289 . S
C42 O60 1.245 . S
C42 O61 1.274 . S
O43 C31 1.241 . S
O43 Mg36 2.042 . S
O44 C31 1.280 . S
O44 Mg34 1.984 . S
O45 C32 1.277 . S
O45 Mg36 2.041 1_556 S
O46 C32 1.245 1_554 S
O46 Mg34 1.988 . S
O47 Mg34 2.061 . S
O47 C41 1.247 . S
O48 Mg37 2.106 . S
O48 Mg40 2.238 . S
O48 C41 1.289 . S
C49 O50 1.245 . S
C49 O51 1.274 . S
O50 Mg37 2.079 . S
O50 C49 1.245 . S
O51 Mg36 2.038 . S
O51 C49 1.274 . S
O52 Mg40 2.042 . S
O52 C55 1.241 . S
O53 Mg39 1.984 . S
O53 C55 1.280 . S
O54 Mg40 2.041 . S
O54 C58 1.277 . S
C55 O52 1.241 . S
C55 O53 1.280 . S
O56 Mg39 1.988 . S
O56 C58 1.245 . S
O57 C33 1.247 . S
O57 Mg39 2.061 . S
C58 O54 1.277 . S
C58 O56 1.245 . S
O59 C33 1.289 . S
O59 Mg36 2.238 . S
O59 Mg37 2.106 . S
O60 Mg37 2.079 . S
O60 C42 1.245 . S
O61 Mg40 2.038 . S
O61 C42 1.274 . S
C62 O74 1.241 . S
C62 O75 1.280 . S
C63 O76 1.277 . S
C63 O77 1.245 1_556 S
C64 O88 1.247 . S
C64 O90 1.289 . S
Mg65 O66 1.926 . S
Mg65 O75 1.984 . S
Mg65 O77 1.988 . S
Mg65 O78 2.061 . S
O66 Mg65 1.926 . S
O66 Mg67 1.986 . S
O66 Mg68 1.917 . S
Mg67 O66 1.986 . S
Mg67 O74 2.042 . S
Mg67 O76 2.041 1_554 S
Mg67 O82 2.038 . S
Mg67 O90 2.238 . S
Mg68 O66 1.917 . S
Mg68 O69 1.917 . S
Mg68 O79 2.106 . S
Mg68 O81 2.079 . S
Mg68 O90 2.106 . S
Mg68 O91 2.079 . S
O69 Mg68 1.917 . S
O69 Mg70 1.926 . S
O69 Mg71 1.986 . S
Mg70 O69 1.926 . S
Mg70 O84 1.984 . S
Mg70 O87 1.988 . S
Mg70 O88 2.061 . S
Mg71 O69 1.986 . S
Mg71 O79 2.238 . S
Mg71 O83 2.042 . S
Mg71 O85 2.041 . S
Mg71 O92 2.038 . S
C72 O78 1.247 . S
C72 O79 1.289 . S
C73 O91 1.245 . S
C73 O92 1.274 . S
O74 C62 1.241 . S
O74 Mg67 2.042 . S
O75 C62 1.280 . S
O75 Mg65 1.984 . S
O76 C63 1.277 . S
O76 Mg67 2.041 1_556 S
O77 C63 1.245 1_554 S
O77 Mg65 1.988 . S
O78 Mg65 2.061 . S
O78 C72 1.247 . S
O79 Mg68 2.106 . S
O79 Mg71 2.238 . S
O79 C72 1.289 . S
C80 O81 1.245 . S
C80 O82 1.274 . S
O81 Mg68 2.079 . S
O81 C80 1.245 . S
O82 Mg67 2.038 . S
O82 C80 1.274 . S
O83 Mg71 2.042 . S
O83 C86 1.241 . S
O84 Mg70 1.984 . S
O84 C86 1.280 . S
O85 Mg71 2.041 . S
O85 C89 1.277 . S
C86 O83 1.241 . S
C86 O84 1.280 . S
O87 Mg70 1.988 . S
O87 C89 1.245 . S
O88 C64 1.247 . S
O88 Mg70 2.061 . S
C89 O85 1.277 . S
C89 O87 1.245 . S
O90 C64 1.289 . S
O90 Mg67 2.238 . S
O90 Mg68 2.106 . S
O91 Mg68 2.079 . S
O91 C73 1.245 . S
O92 Mg71 2.038 . S
O92 C73 1.274 . S
C93 O105 1.241 . S
C93 O106 1.280 . S
C94 O107 1.277 . S
C94 O108 1.245 . S
C95 O119 1.247 . S
C95 O121 1.289 . S
Mg96 O97 1.926 . S
Mg96 O106 1.984 . S
Mg96 O108 1.988 . S
Mg96 O109 2.061 . S
O97 Mg96 1.926 . S
O97 Mg98 1.986 . S
O97 Mg99 1.917 . S
Mg98 O97 1.986 . S
Mg98 O105 2.042 . S
Mg98 O107 2.041 . S
Mg98 O113 2.038 . S
Mg98 O121 2.238 . S
Mg99 O97 1.917 . S
Mg99 O100 1.917 . S
Mg99 O110 2.106 . S
Mg99 O112 2.079 . S
Mg99 O121 2.106 . S
Mg99 O122 2.079 . S
O100 Mg99 1.917 . S
O100 Mg101 1.926 . S
O100 Mg102 1.986 . S
Mg101 O100 1.926 . S
Mg101 O115 1.984 . S
Mg101 O118 1.988 . S
Mg101 O119 2.061 . S
Mg102 O100 1.986 . S
Mg102 O110 2.238 . S
Mg102 O114 2.042 . S
Mg102 O116 2.041 . S
Mg102 O123 2.038 . S
C103 O109 1.247 . S
C103 O110 1.289 . S
C104 O122 1.245 . S
C104 O123 1.274 . S
O105 C93 1.241 . S
O105 Mg98 2.042 . S
O106 C93 1.280 . S
O106 Mg96 1.984 . S
O107 C94 1.277 . S
O107 Mg98 2.041 . S
O108 C94 1.245 . S
O108 Mg96 1.988 . S
O109 Mg96 2.061 . S
O109 C103 1.247 . S
O110 Mg99 2.106 . S
O110 Mg102 2.238 . S
O110 C103 1.289 . S
C111 O112 1.245 . S
C111 O113 1.274 . S
O112 Mg99 2.079 . S
O112 C111 1.245 . S
O113 Mg98 2.038 . S
O113 C111 1.274 . S
O114 Mg102 2.042 . S
O114 C117 1.241 . S
O115 Mg101 1.984 . S
O115 C117 1.280 . S
O116 Mg102 2.041 . S
O116 C120 1.277 . S
C117 O114 1.241 . S
C117 O115 1.280 . S
O118 Mg101 1.988 . S
O118 C120 1.245 . S
O119 C95 1.247 . S
O119 Mg101 2.061 . S
C120 O116 1.277 . S
C120 O118 1.245 . S
O121 C95 1.289 . S
O121 Mg98 2.238 . S
O121 Mg99 2.106 . S
O122 Mg99 2.079 . S
O122 C104 1.245 . S
O123 Mg102 2.038 . S
O123 C104 1.274 . S
C124 O136 1.241 . S
C124 O137 1.280 . S
C125 O138 1.277 . S
C125 O139 1.245 . S
C126 O150 1.247 . S
C126 O152 1.289 . S
Mg127 O128 1.926 . S
Mg127 O137 1.984 . S
Mg127 O139 1.988 . S
Mg127 O140 2.061 . S
O128 Mg127 1.926 . S
O128 Mg129 1.986 . S
O128 Mg130 1.917 . S
Mg129 O128 1.986 . S
Mg129 O136 2.042 . S
Mg129 O138 2.041 . S
Mg129 O144 2.038 . S
Mg129 O152 2.238 . S
Mg130 O128 1.917 . S
Mg130 O131 1.917 . S
Mg130 O141 2.106 . S
Mg130 O143 2.079 . S
Mg130 O152 2.106 . S
Mg130 O153 2.079 . S
O131 Mg130 1.917 . S
O131 Mg132 1.926 . S
O131 Mg133 1.986 . S
Mg132 O131 1.926 . S
Mg132 O146 1.984 . S
Mg132 O149 1.988 . S
Mg132 O150 2.061 . S
Mg133 O131 1.986 . S
Mg133 O141 2.238 . S
Mg133 O145 2.042 . S
Mg133 O147 2.041 . S
Mg133 O154 2.038 . S
C134 O140 1.247 . S
C134 O141 1.289 . S
C135 O153 1.245 . S
C135 O154 1.274 . S
O136 C124 1.241 . S
O136 Mg129 2.042 . S
O137 C124 1.280 . S
O137 Mg127 1.984 . S
O138 C125 1.277 . S
O138 Mg129 2.041 . S
O139 C125 1.245 . S
O139 Mg127 1.988 . S
O140 Mg127 2.061 . S
O140 C134 1.247 . S
O141 Mg130 2.106 . S
O141 Mg133 2.238 . S
O141 C134 1.289 . S
C142 O143 1.245 . S
C142 O144 1.274 . S
O143 Mg130 2.079 . S
O143 C142 1.245 . S
O144 Mg129 2.038 . S
O144 C142 1.274 . S
O145 Mg133 2.042 . S
O145 C148 1.241 . S
O146 Mg132 1.984 . S
O146 C148 1.280 . S
O147 Mg133 2.041 . S
O147 C151 1.277 . S
C148 O145 1.241 . S
C148 O146 1.280 . S
O149 Mg132 1.988 . S
O149 C151 1.245 . S
O150 C126 1.247 . S
O150 Mg132 2.061 . S
C151 O147 1.277 . S
C151 O149 1.245 . S
O152 C126 1.289 . S
O152 Mg129 2.238 . S
O152 Mg130 2.106 . S
O153 Mg130 2.079 . S
O153 C135 1.245 . S
O154 Mg133 2.038 . S
O154 C135 1.274 . S
C155 O167 1.241 . S
C155 O168 1.280 . S
C156 O169 1.277 . S
C156 O170 1.245 . S
C157 O181 1.247 . S
C157 O183 1.289 . S
Mg158 O159 1.926 . S
Mg158 O168 1.984 . S
Mg158 O170 1.988 . S
Mg158 O171 2.061 . S
O159 Mg158 1.926 . S
O159 Mg160 1.986 . S
O159 Mg161 1.917 . S
Mg160 O159 1.986 . S
Mg160 O167 2.042 . S
Mg160 O169 2.041 . S
Mg160 O175 2.038 . S
Mg160 O183 2.238 . S
Mg161 O159 1.917 . S
Mg161 O162 1.917 . S
Mg161 O172 2.106 . S
Mg161 O174 2.079 . S
Mg161 O183 2.106 . S
Mg161 O184 2.079 . S
O162 Mg161 1.917 . S
O162 Mg163 1.926 . S
O162 Mg164 1.986 . S
Mg163 O162 1.926 . S
Mg163 O177 1.984 . S
Mg163 O180 1.988 . S
Mg163 O181 2.061 . S
Mg164 O162 1.986 . S
Mg164 O172 2.238 . S
Mg164 O176 2.042 . S
Mg164 O178 2.041 . S
Mg164 O185 2.038 . S
C165 O171 1.247 . S
C165 O172 1.289 . S
C166 O184 1.245 . S
C166 O185 1.274 . S
O167 C155 1.241 . S
O167 Mg160 2.042 . S
O168 C155 1.280 . S
O168 Mg158 1.984 . S
O169 C156 1.277 . S
O169 Mg160 2.041 . S
O170 C156 1.245 . S
O170 Mg158 1.988 . S
O171 Mg158 2.061 . S
O171 C165 1.247 . S
O172 Mg161 2.106 . S
O172 Mg164 2.238 . S
O172 C165 1.289 . S
C173 O174 1.245 . S
C173 O175 1.274 . S
O174 Mg161 2.079 . S
O174 C173 1.245 . S
O175 Mg160 2.038 . S
O175 C173 1.274 . S
O176 Mg164 2.042 . S
O176 C179 1.241 . S
O177 Mg163 1.984 . S
O177 C179 1.280 . S
O178 Mg164 2.041 . S
O178 C182 1.277 . S
C179 O176 1.241 . S
C179 O177 1.280 . S
O180 Mg163 1.988 . S
O180 C182 1.245 . S
O181 C157 1.247 . S
O181 Mg163 2.061 . S
C182 O178 1.277 . S
C182 O180 1.245 . S
O183 C157 1.289 . S
O183 Mg160 2.238 . S
O183 Mg161 2.106 . S
O184 Mg161 2.079 . S
O184 C166 1.245 . S
O185 Mg164 2.038 . S
O185 C166 1.274 . S
C186 O198 1.241 . S
C186 O199 1.280 . S
C187 O200 1.277 . S
C187 O201 1.245 . S
C188 O212 1.247 . S
C188 O214 1.289 . S
Mg189 O190 1.926 . S
Mg189 O199 1.984 . S
Mg189 O201 1.988 . S
Mg189 O202 2.061 . S
O190 Mg189 1.926 . S
O190 Mg191 1.986 . S
O190 Mg192 1.917 . S
Mg191 O190 1.986 . S
Mg191 O198 2.042 . S
Mg191 O200 2.041 . S
Mg191 O206 2.038 . S
Mg191 O214 2.238 . S
Mg192 O190 1.917 . S
Mg192 O193 1.917 . S
Mg192 O203 2.106 . S
Mg192 O205 2.079 . S
Mg192 O214 2.106 . S
Mg192 O215 2.079 . S
O193 Mg192 1.917 . S
O193 Mg194 1.926 . S
O193 Mg195 1.986 . S
Mg194 O193 1.926 . S
Mg194 O208 1.984 . S
Mg194 O211 1.988 . S
Mg194 O212 2.061 . S
Mg195 O193 1.986 . S
Mg195 O203 2.238 . S
Mg195 O207 2.042 . S
Mg195 O209 2.041 1_556 S
Mg195 O216 2.038 . S
C196 O202 1.247 . S
C196 O203 1.289 . S
C197 O215 1.245 . S
C197 O216 1.274 . S
O198 C186 1.241 . S
O198 Mg191 2.042 . S
O199 C186 1.280 . S
O199 Mg189 1.984 . S
O200 C187 1.277 . S
O200 Mg191 2.041 . S
O201 C187 1.245 . S
O201 Mg189 1.988 . S
O202 Mg189 2.061 . S
O202 C196 1.247 . S
O203 Mg192 2.106 . S
O203 Mg195 2.238 . S
O203 C196 1.289 . S
C204 O205 1.245 . S
C204 O206 1.274 . S
O205 Mg192 2.079 . S
O205 C204 1.245 . S
O206 Mg191 2.038 . S
O206 C204 1.274 . S
O207 Mg195 2.042 . S
O207 C210 1.241 . S
O208 Mg194 1.984 . S
O208 C210 1.280 . S
O209 Mg195 2.041 1_554 S
O209 C213 1.277 . S
C210 O207 1.241 . S
C210 O208 1.280 . S
O211 Mg194 1.988 . S
O211 C213 1.245 1_556 S
O212 C188 1.247 . S
O212 Mg194 2.061 . S
C213 O209 1.277 . S
C213 O211 1.245 1_554 S
O214 C188 1.289 . S
O214 Mg191 2.238 . S
O214 Mg192 2.106 . S
O215 Mg192 2.079 . S
O215 C197 1.245 . S
O216 Mg195 2.038 . S
O216 C197 1.274 . S
C217 O229 1.241 . S
C217 O230 1.280 . S
C218 O231 1.277 . S
C218 O232 1.245 . S
C219 O243 1.247 . S
C219 O245 1.289 . S
Mg220 O221 1.926 . S
Mg220 O230 1.984 . S
Mg220 O232 1.988 . S
Mg220 O233 2.061 . S
O221 Mg220 1.926 . S
O221 Mg222 1.986 . S
O221 Mg223 1.917 . S
Mg222 O221 1.986 . S
Mg222 O229 2.042 . S
Mg222 O231 2.041 . S
Mg222 O237 2.038 . S
Mg222 O245 2.238 . S
Mg223 O221 1.917 . S
Mg223 O224 1.917 . S
Mg223 O234 2.106 . S
Mg223 O236 2.079 . S
Mg223 O245 2.106 . S
Mg223 O246 2.079 . S
O224 Mg223 1.917 . S
O224 Mg225 1.926 . S
O224 Mg226 1.986 . S
Mg225 O224 1.926 . S
Mg225 O239 1.984 . S
Mg225 O242 1.988 . S
Mg225 O243 2.061 . S
Mg226 O224 1.986 . S
Mg226 O234 2.238 . S
Mg226 O238 2.042 . S
Mg226 O240 2.041 1_556 S
Mg226 O247 2.038 . S
C227 O233 1.247 . S
C227 O234 1.289 . S
C228 O246 1.245 . S
C228 O247 1.274 . S
O229 C217 1.241 . S
O229 Mg222 2.042 . S
O230 C217 1.280 . S
O230 Mg220 1.984 . S
O231 C218 1.277 . S
O231 Mg222 2.041 . S
O232 C218 1.245 . S
O232 Mg220 1.988 . S
O233 Mg220 2.061 . S
O233 C227 1.247 . S
O234 Mg223 2.106 . S
O234 Mg226 2.238 . S
O234 C227 1.289 . S
C235 O236 1.245 . S
C235 O237 1.274 . S
O236 Mg223 2.079 . S
O236 C235 1.245 . S
O237 Mg222 2.038 . S
O237 C235 1.274 . S
O238 Mg226 2.042 . S
O238 C241 1.241 . S
O239 Mg225 1.984 . S
O239 C241 1.280 . S
O240 Mg226 2.041 1_554 S
O240 C244 1.277 . S
C241 O238 1.241 . S
C241 O239 1.280 . S
O242 Mg225 1.988 . S
O242 C244 1.245 1_556 S
O243 C219 1.247 . S
O243 Mg225 2.061 . S
C244 O240 1.277 . S
C244 O242 1.245 1_554 S
O245 C219 1.289 . S
O245 Mg222 2.238 . S
O245 Mg223 2.106 . S
O246 Mg223 2.079 . S
O246 C228 1.245 . S
O247 Mg226 2.038 . S
O247 C228 1.274 . S
C248 O260 1.241 . S
C248 O261 1.280 . S
C249 O262 1.277 . S
C249 O263 1.245 . S
C250 O274 1.247 . S
C250 O276 1.289 . S
Mg251 O252 1.926 . S
Mg251 O261 1.984 . S
Mg251 O263 1.988 . S
Mg251 O264 2.061 . S
O252 Mg251 1.926 . S
O252 Mg253 1.986 . S
O252 Mg254 1.917 . S
Mg253 O252 1.986 . S
Mg253 O260 2.042 . S
Mg253 O262 2.041 . S
Mg253 O268 2.038 . S
Mg253 O276 2.238 . S
Mg254 O252 1.917 . S
Mg254 O255 1.917 . S
Mg254 O265 2.106 . S
Mg254 O267 2.079 . S
Mg254 O276 2.106 . S
Mg254 O277 2.079 . S
O255 Mg254 1.917 . S
O255 Mg256 1.926 . S
O255 Mg257 1.986 . S
Mg256 O255 1.926 . S
Mg256 O270 1.984 . S
Mg256 O273 1.988 . S
Mg256 O274 2.061 . S
Mg257 O255 1.986 . S
Mg257 O265 2.238 . S
Mg257 O269 2.042 . S
Mg257 O271 2.041 1_556 S
Mg257 O278 2.038 . S
C258 O264 1.247 . S
C258 O265 1.289 . S
C259 O277 1.245 . S
C259 O278 1.274 . S
O260 C248 1.241 . S
O260 Mg253 2.042 . S
O261 C248 1.280 . S
O261 Mg251 1.984 . S
O262 C249 1.277 . S
O262 Mg253 2.041 . S
O263 C249 1.245 . S
O263 Mg251 1.988 . S
O264 Mg251 2.061 . S
O264 C258 1.247 . S
O265 Mg254 2.106 . S
O265 Mg257 2.238 . S
O265 C258 1.289 . S
C266 O267 1.245 . S
C266 O268 1.274 . S
O267 Mg254 2.079 . S
O267 C266 1.245 . S
O268 Mg253 2.038 . S
O268 C266 1.274 . S
O269 Mg257 2.042 . S
O269 C272 1.241 . S
O270 Mg256 1.984 . S
O270 C272 1.280 . S
O271 Mg257 2.041 1_554 S
O271 C275 1.277 . S
C272 O269 1.241 . S
C272 O270 1.280 . S
O273 Mg256 1.988 . S
O273 C275 1.245 1_556 S
O274 C250 1.247 . S
O274 Mg256 2.061 . S
C275 O271 1.277 . S
C275 O273 1.245 1_554 S
O276 C250 1.289 . S
O276 Mg253 2.238 . S
O276 Mg254 2.106 . S
O277 Mg254 2.079 . S
O277 C259 1.245 . S
O278 Mg257 2.038 . S
O278 C259 1.274 . S
C279 O291 1.241 . S
C279 O292 1.280 . S
C280 O293 1.277 . S
C280 O294 1.245 . S
C281 O305 1.247 . S
C281 O307 1.289 . S
Mg282 O283 1.926 . S
Mg282 O292 1.984 . S
Mg282 O294 1.988 . S
Mg282 O295 2.061 . S
O283 Mg282 1.926 . S
O283 Mg284 1.986 . S
O283 Mg285 1.917 . S
Mg284 O283 1.986 . S
Mg284 O291 2.042 . S
Mg284 O293 2.041 . S
Mg284 O299 2.038 . S
Mg284 O307 2.238 . S
Mg285 O283 1.917 . S
Mg285 O286 1.917 . S
Mg285 O296 2.106 . S
Mg285 O298 2.079 . S
Mg285 O307 2.106 . S
Mg285 O308 2.079 . S
O286 Mg285 1.917 . S
O286 Mg287 1.926 . S
O286 Mg288 1.986 . S
Mg287 O286 1.926 . S
Mg287 O301 1.984 . S
Mg287 O304 1.988 . S
Mg287 O305 2.061 . S
Mg288 O286 1.986 . S
Mg288 O296 2.238 . S
Mg288 O300 2.042 . S
Mg288 O302 2.041 . S
Mg288 O309 2.038 . S
C289 O295 1.247 . S
C289 O296 1.289 . S
C290 O308 1.245 . S
C290 O309 1.274 . S
O291 C279 1.241 . S
O291 Mg284 2.042 . S
O292 C279 1.280 . S
O292 Mg282 1.984 . S
O293 C280 1.277 . S
O293 Mg284 2.041 . S
O294 C280 1.245 . S
O294 Mg282 1.988 . S
O295 Mg282 2.061 . S
O295 C289 1.247 . S
O296 Mg285 2.106 . S
O296 Mg288 2.238 . S
O296 C289 1.289 . S
C297 O298 1.245 . S
C297 O299 1.274 . S
O298 Mg285 2.079 . S
O298 C297 1.245 . S
O299 Mg284 2.038 . S
O299 C297 1.274 . S
O300 Mg288 2.042 . S
O300 C303 1.241 . S
O301 Mg287 1.984 . S
O301 C303 1.280 . S
O302 Mg288 2.041 . S
O302 C306 1.277 . S
C303 O300 1.241 . S
C303 O301 1.280 . S
O304 Mg287 1.988 . S
O304 C306 1.245 . S
O305 C281 1.247 . S
O305 Mg287 2.061 . S
C306 O302 1.277 . S
C306 O304 1.245 . S
O307 C281 1.289 . S
O307 Mg284 2.238 . S
O307 Mg285 2.106 . S
O308 Mg285 2.079 . S
O308 C290 1.245 . S
O309 Mg288 2.038 . S
O309 C290 1.274 . S
C310 O322 1.241 . S
C310 O323 1.280 . S
C311 O324 1.277 . S
C311 O325 1.245 . S
C312 O336 1.247 . S
C312 O338 1.289 . S
Mg313 O314 1.926 . S
Mg313 O323 1.984 . S
Mg313 O325 1.988 . S
Mg313 O326 2.061 . S
O314 Mg313 1.926 . S
O314 Mg315 1.986 . S
O314 Mg316 1.917 . S
Mg315 O314 1.986 . S
Mg315 O322 2.042 . S
Mg315 O324 2.041 . S
Mg315 O330 2.038 . S
Mg315 O338 2.238 . S
Mg316 O314 1.917 . S
Mg316 O317 1.917 . S
Mg316 O327 2.106 . S
Mg316 O329 2.079 . S
Mg316 O338 2.106 . S
Mg316 O339 2.079 . S
O317 Mg316 1.917 . S
O317 Mg318 1.926 . S
O317 Mg319 1.986 . S
Mg318 O317 1.926 . S
Mg318 O332 1.984 . S
Mg318 O335 1.988 . S
Mg318 O336 2.061 . S
Mg319 O317 1.986 . S
Mg319 O327 2.238 . S
Mg319 O331 2.042 . S
Mg319 O333 2.041 . S
Mg319 O340 2.038 . S
C320 O326 1.247 . S
C320 O327 1.289 . S
C321 O339 1.245 . S
C321 O340 1.274 . S
O322 C310 1.241 . S
O322 Mg315 2.042 . S
O323 C310 1.280 . S
O323 Mg313 1.984 . S
O324 C311 1.277 . S
O324 Mg315 2.041 . S
O325 C311 1.245 . S
O325 Mg313 1.988 . S
O326 Mg313 2.061 . S
O326 C320 1.247 . S
O327 Mg316 2.106 . S
O327 Mg319 2.238 . S
O327 C320 1.289 . S
C328 O329 1.245 . S
C328 O330 1.274 . S
O329 Mg316 2.079 . S
O329 C328 1.245 . S
O330 Mg315 2.038 . S
O330 C328 1.274 . S
O331 Mg319 2.042 . S
O331 C334 1.241 . S
O332 Mg318 1.984 . S
O332 C334 1.280 . S
O333 Mg319 2.041 . S
O333 C337 1.277 . S
C334 O331 1.241 . S
C334 O332 1.280 . S
O335 Mg318 1.988 . S
O335 C337 1.245 . S
O336 C312 1.247 . S
O336 Mg318 2.061 . S
C337 O333 1.277 . S
C337 O335 1.245 . S
O338 C312 1.289 . S
O338 Mg315 2.238 . S
O338 Mg316 2.106 . S
O339 Mg316 2.079 . S
O339 C321 1.245 . S
O340 Mg319 2.038 . S
O340 C321 1.274 . S
C341 O353 1.241 . S
C341 O354 1.280 . S
C342 O355 1.277 . S
C342 O356 1.245 . S
C343 O367 1.247 . S
C343 O369 1.289 . S
Mg344 O345 1.926 . S
Mg344 O354 1.984 . S
Mg344 O356 1.988 . S
Mg344 O357 2.061 . S
O345 Mg344 1.926 . S
O345 Mg346 1.986 . S
O345 Mg347 1.917 . S
Mg346 O345 1.986 . S
Mg346 O353 2.042 . S
Mg346 O355 2.041 . S
Mg346 O361 2.038 . S
Mg346 O369 2.238 . S
Mg347 O345 1.917 . S
Mg347 O348 1.917 . S
Mg347 O358 2.106 . S
Mg347 O360 2.079 . S
Mg347 O369 2.106 . S
Mg347 O370 2.079 . S
O348 Mg347 1.917 . S
O348 Mg349 1.926 . S
O348 Mg350 1.986 . S
Mg349 O348 1.926 . S
Mg349 O363 1.984 . S
Mg349 O366 1.988 . S
Mg349 O367 2.061 . S
Mg350 O348 1.986 . S
Mg350 O358 2.238 . S
Mg350 O362 2.042 . S
Mg350 O364 2.041 . S
Mg350 O371 2.038 . S
C351 O357 1.247 . S
C351 O358 1.289 . S
C352 O370 1.245 . S
C352 O371 1.274 . S
O353 C341 1.241 . S
O353 Mg346 2.042 . S
O354 C341 1.280 . S
O354 Mg344 1.984 . S
O355 C342 1.277 . S
O355 Mg346 2.041 . S
O356 C342 1.245 . S
O356 Mg344 1.988 . S
O357 Mg344 2.061 . S
O357 C351 1.247 . S
O358 Mg347 2.106 . S
O358 Mg350 2.238 . S
O358 C351 1.289 . S
C359 O360 1.245 . S
C359 O361 1.274 . S
O360 Mg347 2.079 . S
O360 C359 1.245 . S
O361 Mg346 2.038 . S
O361 C359 1.274 . S
O362 Mg350 2.042 . S
O362 C365 1.241 . S
O363 Mg349 1.984 . S
O363 C365 1.280 . S
O364 Mg350 2.041 . S
O364 C368 1.277 . S
C365 O362 1.241 . S
C365 O363 1.280 . S
O366 Mg349 1.988 . S
O366 C368 1.245 . S
O367 C343 1.247 . S
O367 Mg349 2.061 . S
C368 O364 1.277 . S
C368 O366 1.245 . S
O369 C343 1.289 . S
O369 Mg346 2.238 . S
O369 Mg347 2.106 . S
O370 Mg347 2.079 . S
O370 C352 1.245 . S
O371 Mg350 2.038 . S
O371 C352 1.274 . S
C372 C373 1.363 . S
C372 C378 1.379 . S
C372 N380 1.356 . S
C373 C372 1.363 . S
C373 C379 1.363 . S
C374 C375 1.363 . S
C374 C379 1.379 . S
C374 N381 1.356 . S
C375 C374 1.363 . S
C375 C378 1.363 . S
N376 C378 1.356 . S
N376 H388 0.984 . S
N376 H389 0.985 . S
N377 C379 1.356 . S
N377 H382 0.984 . S
N377 H383 0.985 . S
C378 C372 1.379 . S
C378 C375 1.363 . S
C378 N376 1.356 . S
C379 C373 1.363 . S
C379 C374 1.379 . S
C379 N377 1.356 . S
N380 C372 1.356 . S
N380 H386 0.984 . S
N380 H387 0.984 . S
N381 C374 1.356 . S
N381 H384 0.984 . S
N381 H385 0.985 . S
H382 N377 0.984 . S
H383 N377 0.985 . S
H384 N381 0.984 . S
H385 N381 0.985 . S
H386 N380 0.984 . S
H387 N380 0.984 . S
H388 N376 0.984 . S
H389 N376 0.985 . S
C390 C391 1.363 . S
C390 C396 1.379 . S
C390 N398 1.356 . S
C391 C390 1.363 . S
C391 C397 1.363 . S
C392 C393 1.363 . S
C392 C397 1.379 . S
C392 N399 1.356 . S
C393 C392 1.363 . S
C393 C396 1.363 . S
N394 C396 1.356 . S
N394 H406 0.984 . S
N394 H407 0.985 . S
N395 C397 1.356 . S
N395 H400 0.984 . S
N395 H401 0.985 . S
C396 C390 1.379 . S
C396 C393 1.363 . S
C396 N394 1.356 . S
C397 C391 1.363 . S
C397 C392 1.379 . S
C397 N395 1.356 . S
N398 C390 1.356 . S
N398 H404 0.984 . S
N398 H405 0.984 . S
N399 C392 1.356 . S
N399 H402 0.984 . S
N399 H403 0.985 . S
H400 N395 0.984 . S
H401 N395 0.985 . S
H402 N399 0.984 . S
H403 N399 0.985 . S
H404 N398 0.984 . S
H405 N398 0.984 . S
H406 N394 0.984 . S
H407 N394 0.985 . S
C408 C409 1.363 . S
C408 C414 1.379 . S
C408 N416 1.356 . S
C409 C408 1.363 . S
C409 C415 1.363 . S
C410 C411 1.363 . S
C410 C415 1.379 . S
C410 N417 1.356 . S
C411 C410 1.363 . S
C411 C414 1.363 . S
N412 C414 1.356 . S
N412 H424 0.984 . S
N412 H425 0.985 . S
N413 C415 1.356 . S
N413 H418 0.984 . S
N413 H419 0.985 . S
C414 C408 1.379 . S
C414 C411 1.363 . S
C414 N412 1.356 . S
C415 C409 1.363 . S
C415 C410 1.379 . S
C415 N413 1.356 . S
N416 C408 1.356 . S
N416 H422 0.984 . S
N416 H423 0.984 . S
N417 C410 1.356 . S
N417 H420 0.984 . S
N417 H421 0.985 . S
H418 N413 0.984 . S
H419 N413 0.985 . S
H420 N417 0.984 . S
H421 N417 0.985 . S
H422 N416 0.984 . S
H423 N416 0.984 . S
H424 N412 0.984 . S
H425 N412 0.985 . S
C426 C427 1.363 . S
C426 C432 1.379 . S
C426 N434 1.356 . S
C427 C426 1.363 . S
C427 C433 1.363 . S
C428 C429 1.363 . S
C428 C433 1.379 . S
C428 N435 1.356 . S
C429 C428 1.363 . S
C429 C432 1.363 . S
N430 C432 1.356 . S
N430 H442 0.984 . S
N430 H443 0.985 . S
N431 C433 1.356 . S
N431 H436 0.984 . S
N431 H437 0.985 . S
C432 C426 1.379 . S
C432 C429 1.363 . S
C432 N430 1.356 . S
C433 C427 1.363 . S
C433 C428 1.379 . S
C433 N431 1.356 . S
N434 C426 1.356 . S
N434 H440 0.984 . S
N434 H441 0.984 . S
N435 C428 1.356 . S
N435 H438 0.984 . S
N435 H439 0.985 . S
H436 N431 0.984 . S
H437 N431 0.985 . S
H438 N435 0.984 . S
H439 N435 0.985 . S
H440 N434 0.984 . S
H441 N434 0.984 . S
H442 N430 0.984 . S
H443 N430 0.985 . S
C444 C445 1.363 . S
C444 C450 1.379 . S
C444 N452 1.356 . S
C445 C444 1.363 . S
C445 C451 1.363 . S
C446 C447 1.363 . S
C446 C451 1.379 . S
C446 N453 1.356 . S
C447 C446 1.363 . S
C447 C450 1.363 . S
N448 C450 1.356 . S
N448 H460 0.984 . S
N448 H461 0.985 . S
N449 C451 1.356 . S
N449 H454 0.984 . S
N449 H455 0.985 . S
C450 C444 1.379 . S
C450 C447 1.363 . S
C450 N448 1.356 . S
C451 C445 1.363 . S
C451 C446 1.379 . S
C451 N449 1.356 . S
N452 C444 1.356 . S
N452 H458 0.984 . S
N452 H459 0.984 . S
N453 C446 1.356 . S
N453 H456 0.984 . S
N453 H457 0.985 . S
H454 N449 0.984 . S
H455 N449 0.985 . S
H456 N453 0.984 . S
H457 N453 0.985 . S
H458 N452 0.984 . S
H459 N452 0.984 . S
H460 N448 0.984 . S
H461 N448 0.985 . S
C462 C463 1.363 . S
C462 C468 1.379 . S
C462 N470 1.356 . S
C463 C462 1.363 . S
C463 C469 1.363 . S
C464 C465 1.363 . S
C464 C469 1.379 . S
C464 N471 1.356 . S
C465 C464 1.363 . S
C465 C468 1.363 . S
N466 C468 1.356 . S
N466 H478 0.984 . S
N466 H479 0.985 . S
N467 C469 1.356 . S
N467 H472 0.984 . S
N467 H473 0.985 . S
C468 C462 1.379 . S
C468 C465 1.363 . S
C468 N466 1.356 . S
C469 C463 1.363 . S
C469 C464 1.379 . S
C469 N467 1.356 . S
N470 C462 1.356 . S
N470 H476 0.984 . S
N470 H477 0.984 . S
N471 C464 1.356 . S
N471 H474 0.984 . S
N471 H475 0.985 . S
H472 N467 0.984 . S
H473 N467 0.985 . S
H474 N471 0.984 . S
H475 N471 0.985 . S
H476 N470 0.984 . S
H477 N470 0.984 . S
H478 N466 0.984 . S
H479 N466 0.985 . S
C480 C481 1.363 . S
C480 C486 1.379 . S
C480 N488 1.356 . S
C481 C480 1.363 . S
C481 C487 1.363 . S
C482 C483 1.363 . S
C482 C487 1.379 . S
C482 N489 1.356 . S
C483 C482 1.363 . S
C483 C486 1.363 . S
N484 C486 1.356 . S
N484 H496 0.984 . S
N484 H497 0.985 . S
N485 C487 1.356 . S
N485 H490 0.984 . S
N485 H491 0.985 . S
C486 C480 1.379 . S
C486 C483 1.363 . S
C486 N484 1.356 . S
C487 C481 1.363 . S
C487 C482 1.379 . S
C487 N485 1.356 . S
N488 C480 1.356 . S
N488 H494 0.984 . S
N488 H495 0.984 . S
N489 C482 1.356 . S
N489 H492 0.984 . S
N489 H493 0.985 . S
H490 N485 0.984 . S
H491 N485 0.985 . S
H492 N489 0.984 . S
H493 N489 0.985 . S
H494 N488 0.984 . S
H495 N488 0.984 . S
H496 N484 0.984 . S
H497 N484 0.985 . S
C498 C499 1.363 . S
C498 C504 1.379 . S
C498 N506 1.356 . S
C499 C498 1.363 . S
C499 C505 1.363 . S
C500 C501 1.363 . S
C500 C505 1.379 . S
C500 N507 1.356 . S
C501 C500 1.363 . S
C501 C504 1.363 . S
N502 C504 1.356 . S
N502 H514 0.984 . S
N502 H515 0.985 . S
N503 C505 1.356 . S
N503 H508 0.984 . S
N503 H509 0.985 . S
C504 C498 1.379 . S
C504 C501 1.363 . S
C504 N502 1.356 . S
C505 C499 1.363 . S
C505 C500 1.379 . S
C505 N503 1.356 . S
N506 C498 1.356 . S
N506 H512 0.984 1_556 S
N506 H513 0.984 . S
N507 C500 1.356 . S
N507 H510 0.984 . S
N507 H511 0.985 . S
H508 N503 0.984 . S
H509 N503 0.985 . S
H510 N507 0.984 . S
H511 N507 0.985 . S
H512 N506 0.984 1_554 S
H513 N506 0.984 . S
H514 N502 0.984 . S
H515 N502 0.985 . S
C516 C517 1.363 . S
C516 C522 1.379 . S
C516 N524 1.356 . S
C517 C516 1.363 . S
C517 C523 1.363 . S
C518 C519 1.363 . S
C518 C523 1.379 . S
C518 N525 1.356 . S
C519 C518 1.363 . S
C519 C522 1.363 . S
N520 C522 1.356 . S
N520 H532 0.984 . S
N520 H533 0.985 . S
N521 C523 1.356 . S
N521 H526 0.984 . S
N521 H527 0.985 . S
C522 C516 1.379 . S
C522 C519 1.363 . S
C522 N520 1.356 . S
C523 C517 1.363 . S
C523 C518 1.379 . S
C523 N521 1.356 . S
N524 C516 1.356 . S
N524 H530 0.984 . S
N524 H531 0.984 . S
N525 C518 1.356 . S
N525 H528 0.984 . S
N525 H529 0.985 1_556 S
H526 N521 0.984 . S
H527 N521 0.985 . S
H528 N525 0.984 . S
H529 N525 0.985 1_554 S
H530 N524 0.984 . S
H531 N524 0.984 . S
H532 N520 0.984 . S
H533 N520 0.985 . S
C534 C535 1.363 . S
C534 C540 1.379 . S
C534 N542 1.356 . S
C535 C534 1.363 . S
C535 C541 1.363 . S
C536 C537 1.363 . S
C536 C541 1.379 . S
C536 N543 1.356 . S
C537 C536 1.363 . S
C537 C540 1.363 . S
N538 C540 1.356 . S
N538 H550 0.984 . S
N538 H551 0.985 . S
N539 C541 1.356 . S
N539 H544 0.984 . S
N539 H545 0.985 . S
C540 C534 1.379 . S
C540 C537 1.363 . S
C540 N538 1.356 . S
C541 C535 1.363 . S
C541 C536 1.379 . S
C541 N539 1.356 . S
N542 C534 1.356 . S
N542 H548 0.984 . S
N542 H549 0.984 . S
N543 C536 1.356 . S
N543 H546 0.984 . S
N543 H547 0.985 . S
H544 N539 0.984 . S
H545 N539 0.985 . S
H546 N543 0.984 . S
H547 N543 0.985 . S
H548 N542 0.984 . S
H549 N542 0.984 . S
H550 N538 0.984 . S
H551 N538 0.985 . S
C552 C553 1.363 . S
C552 C558 1.379 . S
C552 N560 1.356 . S
C553 C552 1.363 . S
C553 C559 1.363 . S
C554 C555 1.363 . S
C554 C559 1.379 . S
C554 N561 1.356 . S
C555 C554 1.363 . S
C555 C558 1.363 . S
N556 C558 1.356 . S
N556 H568 0.984 . S
N556 H569 0.985 . S
N557 C559 1.356 . S
N557 H562 0.984 . S
N557 H563 0.985 . S
C558 C552 1.379 . S
C558 C555 1.363 . S
C558 N556 1.356 . S
C559 C553 1.363 . S
C559 C554 1.379 . S
C559 N557 1.356 . S
N560 C552 1.356 . S
N560 H566 0.984 . S
N560 H567 0.984 . S
N561 C554 1.356 . S
N561 H564 0.984 . S
N561 H565 0.985 . S
H562 N557 0.984 . S
H563 N557 0.985 . S
H564 N561 0.984 . S
H565 N561 0.985 . S
H566 N560 0.984 . S
H567 N560 0.984 . S
H568 N556 0.984 . S
H569 N556 0.985 . S
C570 C571 1.363 . S
C570 C576 1.379 . S
C570 N578 1.356 . S
C571 C570 1.363 . S
C571 C577 1.363 . S
C572 C573 1.363 . S
C572 C577 1.379 . S
C572 N579 1.356 . S
C573 C572 1.363 . S
C573 C576 1.363 . S
N574 C576 1.356 . S
N574 H586 0.984 . S
N574 H587 0.985 . S
N575 C577 1.356 . S
N575 H580 0.984 . S
N575 H581 0.985 . S
C576 C570 1.379 . S
C576 C573 1.363 . S
C576 N574 1.356 . S
C577 C571 1.363 . S
C577 C572 1.379 . S
C577 N575 1.356 . S
N578 C570 1.356 . S
N578 H584 0.984 . S
N578 H585 0.984 . S
N579 C572 1.356 . S
N579 H582 0.984 . S
N579 H583 0.985 . S
H580 N575 0.984 . S
H581 N575 0.985 . S
H582 N579 0.984 . S
H583 N579 0.985 . S
H584 N578 0.984 . S
H585 N578 0.984 . S
H586 N574 0.984 . S
H587 N574 0.985 . S
C588 C589 1.363 . S
C588 C594 1.379 1_556 S
C588 N596 1.356 . S
C589 C588 1.363 . S
C589 C595 1.363 . S
C590 C591 1.363 . S
C590 C595 1.379 1_554 S
C590 N597 1.356 . S
C591 C590 1.363 . S
C591 C594 1.363 . S
N592 C594 1.356 . S
N592 H604 0.984 . S
N592 H605 0.985 . S
N593 C595 1.356 . S
N593 H598 0.984 . S
N593 H599 0.985 . S
C594 C588 1.379 1_554 S
C594 C591 1.363 . S
C594 N592 1.356 . S
C595 C589 1.363 . S
C595 C590 1.379 1_556 S
C595 N593 1.356 . S
N596 C588 1.356 . S
N596 H602 0.984 . S
N596 H603 0.984 . S
N597 C590 1.356 . S
N597 H600 0.984 . S
N597 H601 0.985 . S
H598 N593 0.984 . S
H599 N593 0.985 . S
H600 N597 0.984 . S
H601 N597 0.985 . S
H602 N596 0.984 . S
H603 N596 0.984 . S
H604 N592 0.984 . S
H605 N592 0.985 . S
C606 C607 1.363 1_565 S
C606 C612 1.379 1_554 S
C606 N614 1.356 . S
C607 C606 1.363 1_545 S
C607 C613 1.363 . S
C608 C609 1.363 1_545 S
C608 C613 1.379 1_556 S
C608 N615 1.356 . S
C609 C608 1.363 1_565 S
C609 C612 1.363 . S
N610 C612 1.356 . S
N610 H622 0.984 . S
N610 H623 0.985 . S
N611 C613 1.356 . S
N611 H616 0.984 . S
N611 H617 0.985 . S
C612 C606 1.379 1_556 S
C612 C609 1.363 . S
C612 N610 1.356 . S
C613 C607 1.363 . S
C613 C608 1.379 1_554 S
C613 N611 1.356 . S
N614 C606 1.356 . S
N614 H620 0.984 . S
N614 H621 0.984 . S
N615 C608 1.356 . S
N615 H618 0.984 . S
N615 H619 0.985 . S
H616 N611 0.984 . S
H617 N611 0.985 . S
H618 N615 0.984 . S
H619 N615 0.985 . S
H620 N614 0.984 . S
H621 N614 0.984 . S
H622 N610 0.984 . S
H623 N610 0.985 . S
C624 C625 1.363 . S
C624 C630 1.379 1_554 S
C624 N632 1.356 . S
C625 C624 1.363 . S
C625 C631 1.363 1_655 S
C626 C627 1.363 . S
C626 C631 1.379 1_556 S
C626 N633 1.356 . S
C627 C626 1.363 . S
C627 C630 1.363 1_455 S
N628 C630 1.356 . S
N628 H640 0.984 . S
N628 H641 0.985 . S
N629 C631 1.356 . S
N629 H634 0.984 . S
N629 H635 0.985 . S
C630 C624 1.379 1_556 S
C630 C627 1.363 1_655 S
C630 N628 1.356 . S
C631 C625 1.363 1_455 S
C631 C626 1.379 1_554 S
C631 N629 1.356 . S
N632 C624 1.356 . S
N632 H638 0.984 . S
N632 H639 0.984 . S
N633 C626 1.356 . S
N633 H636 0.984 . S
N633 H637 0.985 . S
H634 N629 0.984 . S
H635 N629 0.985 . S
H636 N633 0.984 . S
H637 N633 0.985 . S
H638 N632 0.984 . S
H639 N632 0.984 . S
H640 N628 0.984 . S
H641 N628 0.985 . S
C642 C643 1.363 . S
C642 C648 1.379 . S
C642 N650 1.356 . S
C643 C642 1.363 . S
C643 C649 1.363 . S
C644 C645 1.363 . S
C644 C649 1.379 . S
C644 N651 1.356 . S
C645 C644 1.363 . S
C645 C648 1.363 . S
N646 C648 1.356 . S
N646 H658 0.984 . S
N646 H659 0.985 . S
N647 C649 1.356 . S
N647 H652 0.984 . S
N647 H653 0.985 . S
C648 C642 1.379 . S
C648 C645 1.363 . S
C648 N646 1.356 . S
C649 C643 1.363 . S
C649 C644 1.379 . S
C649 N647 1.356 . S
N650 C642 1.356 . S
N650 H656 0.984 . S
N650 H657 0.984 . S
N651 C644 1.356 . S
N651 H654 0.984 . S
N651 H655 0.985 . S
H652 N647 0.984 . S
H653 N647 0.985 . S
H654 N651 0.984 . S
H655 N651 0.985 . S
H656 N650 0.984 . S
H657 N650 0.984 . S
H658 N646 0.984 . S
H659 N646 0.985 . S
C660 C661 1.363 1_545 S
C660 C666 1.379 . S
C660 N668 1.356 . S
C661 C660 1.363 1_565 S
C661 C667 1.363 . S
C662 C663 1.363 1_565 S
C662 C667 1.379 . S
C662 N669 1.356 . S
C663 C662 1.363 1_545 S
C663 C666 1.363 . S
N664 C666 1.356 . S
N664 H676 0.984 . S
N664 H677 0.985 . S
N665 C667 1.356 . S
N665 H670 0.984 . S
N665 H671 0.985 . S
C666 C660 1.379 . S
C666 C663 1.363 . S
C666 N664 1.356 . S
C667 C661 1.363 . S
C667 C662 1.379 . S
C667 N665 1.356 . S
N668 C660 1.356 . S
N668 H674 0.984 . S
N668 H675 0.984 . S
N669 C662 1.356 . S
N669 H672 0.984 . S
N669 H673 0.985 . S
H670 N665 0.984 . S
H671 N665 0.985 . S
H672 N669 0.984 . S
H673 N669 0.985 . S
H674 N668 0.984 . S
H675 N668 0.984 . S
H676 N664 0.984 . S
H677 N664 0.985 . S
C678 C679 1.363 . S
C678 C684 1.379 1_655 S
C678 N686 1.356 . S
C679 C678 1.363 . S
C679 C685 1.363 . S
C680 C681 1.363 . S
C680 C685 1.379 1_455 S
C680 N687 1.356 . S
C681 C680 1.363 . S
C681 C684 1.363 . S
N682 C684 1.356 . S
N682 H694 0.984 . S
N682 H695 0.985 . S
N683 C685 1.356 . S
N683 H688 0.984 . S
N683 H689 0.985 . S
C684 C678 1.379 1_455 S
C684 C681 1.363 . S
C684 N682 1.356 . S
C685 C679 1.363 . S
C685 C680 1.379 1_655 S
C685 N683 1.356 . S
N686 C678 1.356 . S
N686 H692 0.984 . S
N686 H693 0.984 . S
N687 C680 1.356 . S
N687 H690 0.984 . S
N687 H691 0.985 . S
H688 N683 0.984 . S
H689 N683 0.985 . S
H690 N687 0.984 . S
H691 N687 0.985 . S
H692 N686 0.984 . S
H693 N686 0.984 . S
H694 N682 0.984 . S
H695 N682 0.985 . S
C696 C697 1.363 . S
C696 C702 1.379 . S
C696 N704 1.356 . S
C697 C696 1.363 . S
C697 C703 1.363 . S
C698 C699 1.363 . S
C698 C703 1.379 . S
C698 N705 1.356 . S
C699 C698 1.363 . S
C699 C702 1.363 . S
N700 C702 1.356 . S
N700 H712 0.984 . S
N700 H713 0.985 . S
N701 C703 1.356 . S
N701 H706 0.984 . S
N701 H707 0.985 . S
C702 C696 1.379 . S
C702 C699 1.363 . S
C702 N700 1.356 . S
C703 C697 1.363 . S
C703 C698 1.379 . S
C703 N701 1.356 . S
N704 C696 1.356 . S
N704 H710 0.984 . S
N704 H711 0.989 . S
N705 C698 1.356 . S
N705 H708 0.984 . S
N705 H709 0.985 . S
H706 N701 0.984 . S
H707 N701 0.985 . S
H708 N705 0.984 . S
H709 N705 0.985 . S
H710 N704 0.984 . S
H711 N704 0.989 . S
H712 N700 0.984 . S
H713 N700 0.985 . S
C714 C715 1.363 . S
C714 C720 1.379 . S
C714 N722 1.356 . S
C715 C714 1.363 . S
C715 C721 1.363 . S
C716 C717 1.363 . S
C716 C721 1.379 . S
C716 N723 1.356 . S
C717 C716 1.363 . S
C717 C720 1.363 . S
N718 C720 1.356 . S
N718 H730 0.984 . S
N718 H731 0.985 . S
N719 C721 1.356 . S
N719 H724 0.984 . S
N719 H725 0.985 . S
C720 C714 1.379 . S
C720 C717 1.363 . S
C720 N718 1.356 . S
C721 C715 1.363 . S
C721 C716 1.379 . S
C721 N719 1.356 . S
N722 C714 1.356 . S
N722 H728 0.984 . S
N722 H729 0.984 . S
N723 C716 1.356 . S
N723 H726 0.984 . S
N723 H727 0.985 . S
H724 N719 0.984 . S
H725 N719 0.985 . S
H726 N723 0.984 . S
H727 N723 0.985 . S
H728 N722 0.984 . S
H729 N722 0.984 . S
H730 N718 0.984 . S
H731 N718 0.985 . S
C732 C733 1.363 . S
C732 C738 1.379 . S
C732 N740 1.356 . S
C733 C732 1.363 . S
C733 C739 1.363 . S
C734 C735 1.363 . S
C734 C739 1.379 . S
C734 N741 1.356 . S
C735 C734 1.363 . S
C735 C738 1.363 . S
N736 C738 1.356 . S
N736 H748 0.984 . S
N736 H749 0.985 . S
N737 C739 1.356 . S
N737 H742 0.984 . S
N737 H743 0.985 . S
C738 C732 1.379 . S
C738 C735 1.363 . S
C738 N736 1.356 . S
C739 C733 1.363 . S
C739 C734 1.379 . S
C739 N737 1.356 . S
N740 C732 1.356 . S
N740 H746 0.984 . S
N740 H747 0.984 . S
N741 C734 1.356 . S
N741 H744 0.984 1_556 S
N741 H745 0.985 . S
H742 N737 0.984 . S
H743 N737 0.985 . S
H744 N741 0.984 1_554 S
H745 N741 0.985 . S
H746 N740 0.984 . S
H747 N740 0.984 . S
H748 N736 0.984 . S
H749 N736 0.985 . S
C750 C751 1.363 . S
C750 C756 1.379 . S
C750 N758 1.356 . S
C751 C750 1.363 . S
C751 C757 1.363 . S
C752 C753 1.363 . S
C752 C757 1.379 . S
C752 N759 1.356 . S
C753 C752 1.363 . S
C753 C756 1.363 . S
N754 C756 1.356 . S
N754 H766 0.984 . S
N754 H767 0.985 . S
N755 C757 1.356 . S
N755 H760 0.984 . S
N755 H761 0.985 . S
C756 C750 1.379 . S
C756 C753 1.363 . S
C756 N754 1.356 . S
C757 C751 1.363 . S
C757 C752 1.379 . S
C757 N755 1.356 . S
N758 C750 1.356 . S
N758 H764 0.984 . S
N758 H765 0.984 . S
N759 C752 1.356 . S
N759 H762 0.984 . S
N759 H763 0.985 . S
H760 N755 0.984 . S
H761 N755 0.985 . S
H762 N759 0.984 . S
H763 N759 0.985 . S
H764 N758 0.984 . S
H765 N758 0.984 . S
H766 N754 0.984 . S
H767 N754 0.985 . S
C768 C769 1.363 . S
C768 C774 1.379 . S
C768 N776 1.356 . S
C769 C768 1.363 . S
C769 C775 1.363 . S
C770 C771 1.363 . S
C770 C775 1.379 . S
C770 N777 1.356 . S
C771 C770 1.363 . S
C771 C774 1.363 . S
N772 C774 1.356 . S
N772 H784 0.984 . S
N772 H785 0.985 . S
N773 C775 1.356 . S
N773 H778 0.984 . S
N773 H779 0.985 . S
C774 C768 1.379 . S
C774 C771 1.363 . S
C774 N772 1.356 . S
C775 C769 1.363 . S
C775 C770 1.379 . S
C775 N773 1.356 . S
N776 C768 1.356 . S
N776 H782 0.984 . S
N776 H783 0.984 . S
N777 C770 1.356 . S
N777 H780 0.984 . S
N777 H781 0.985 . S
H778 N773 0.984 . S
H779 N773 0.985 . S
H780 N777 0.984 . S
H781 N777 0.985 . S
H782 N776 0.984 . S
H783 N776 0.984 . S
H784 N772 0.984 . S
H785 N772 0.985 . S
C786 C787 1.363 . S
C786 C792 1.379 . S
C786 N794 1.356 . S
C787 C786 1.363 . S
C787 C793 1.363 . S
C788 C789 1.363 . S
C788 C793 1.379 . S
C788 N795 1.356 . S
C789 C788 1.363 . S
C789 C792 1.363 . S
N790 C792 1.356 . S
N790 H802 0.984 . S
N790 H803 0.985 . S
N791 C793 1.356 . S
N791 H796 0.984 . S
N791 H797 0.985 . S
C792 C786 1.379 . S
C792 C789 1.363 . S
C792 N790 1.356 . S
C793 C787 1.363 . S
C793 C788 1.379 . S
C793 N791 1.356 . S
N794 C786 1.356 . S
N794 H800 0.984 . S
N794 H801 0.984 . S
N795 C788 1.356 . S
N795 H798 0.984 . S
N795 H799 0.985 . S
H796 N791 0.984 . S
H797 N791 0.985 . S
H798 N795 0.984 . S
H799 N795 0.985 . S
H800 N794 0.984 . S
H801 N794 0.984 . S
H802 N790 0.984 . S
H803 N790 0.985 . S
C804 C805 1.363 . S
C804 C810 1.379 . S
C804 N812 1.356 . S
C805 C804 1.363 . S
C805 C811 1.363 . S
C806 C807 1.363 . S
C806 C811 1.379 . S
C806 N813 1.356 . S
C807 C806 1.363 . S
C807 C810 1.363 . S
N808 C810 1.356 . S
N808 H820 0.984 . S
N808 H821 0.985 . S
N809 C811 1.356 . S
N809 H814 0.984 . S
N809 H815 0.985 . S
C810 C804 1.379 . S
C810 C807 1.363 . S
C810 N808 1.356 . S
C811 C805 1.363 . S
C811 C806 1.379 . S
C811 N809 1.356 . S
N812 C804 1.356 . S
N812 H818 0.984 . S
N812 H819 0.984 . S
N813 C806 1.356 . S
N813 H816 0.984 . S
N813 H817 0.985 . S
H814 N809 0.984 . S
H815 N809 0.985 . S
H816 N813 0.984 . S
H817 N813 0.985 . S
H818 N812 0.984 . S
H819 N812 0.984 . S
H820 N808 0.984 . S
H821 N808 0.985 . S
C822 C823 1.363 . S
C822 C828 1.379 . S
C822 N830 1.356 . S
C823 C822 1.363 . S
C823 C829 1.363 . S
C824 C825 1.363 . S
C824 C829 1.379 . S
C824 N831 1.356 . S
C825 C824 1.363 . S
C825 C828 1.363 . S
N826 C828 1.356 . S
N826 H838 0.984 . S
N826 H839 0.985 . S
N827 C829 1.356 . S
N827 H832 0.984 . S
N827 H833 0.985 . S
C828 C822 1.379 . S
C828 C825 1.363 . S
C828 N826 1.356 . S
C829 C823 1.363 . S
C829 C824 1.379 . S
C829 N827 1.356 . S
N830 C822 1.356 . S
N830 H836 0.984 . S
N830 H837 0.984 . S
N831 C824 1.356 . S
N831 H834 0.984 . S
N831 H835 0.985 . S
H832 N827 0.984 . S
H833 N827 0.985 . S
H834 N831 0.984 . S
H835 N831 0.985 . S
H836 N830 0.984 . S
H837 N830 0.984 . S
H838 N826 0.984 . S
H839 N826 0.985 . S
C840 C841 1.363 . S
C840 C846 1.379 . S
C840 N848 1.356 . S
C841 C840 1.363 . S
C841 C847 1.363 . S
C842 C843 1.363 . S
C842 C847 1.379 . S
C842 N849 1.356 . S
C843 C842 1.363 . S
C843 C846 1.363 . S
N844 C846 1.356 . S
N844 H856 0.984 . S
N844 H857 0.985 . S
N845 C847 1.356 . S
N845 H850 0.984 . S
N845 H851 0.985 . S
C846 C840 1.379 . S
C846 C843 1.363 . S
C846 N844 1.356 . S
C847 C841 1.363 . S
C847 C842 1.379 . S
C847 N845 1.356 . S
N848 C840 1.356 . S
N848 H854 0.984 . S
N848 H855 0.984 . S
N849 C842 1.356 . S
N849 H852 0.984 . S
N849 H853 0.985 . S
H850 N845 0.984 . S
H851 N845 0.985 . S
H852 N849 0.984 . S
H853 N849 0.985 . S
H854 N848 0.984 . S
H855 N848 0.984 . S
H856 N844 0.984 . S
H857 N844 0.985 . S
C858 C859 1.363 . S
C858 C864 1.379 . S
C858 N866 1.356 . S
C859 C858 1.363 . S
C859 C865 1.363 . S
C860 C861 1.363 . S
C860 C865 1.379 . S
C860 N867 1.356 . S
C861 C860 1.363 . S
C861 C864 1.363 . S
N862 C864 1.356 . S
N862 H874 0.984 . S
N862 H875 0.985 . S
N863 C865 1.356 . S
N863 H868 0.984 . S
N863 H869 0.985 . S
C864 C858 1.379 . S
C864 C861 1.363 . S
C864 N862 1.356 . S
C865 C859 1.363 . S
C865 C860 1.379 . S
C865 N863 1.356 . S
N866 C858 1.356 . S
N866 H872 0.984 . S
N866 H873 0.984 . S
N867 C860 1.356 . S
N867 H870 0.984 . S
N867 H871 0.985 . S
H868 N863 0.984 . S
H869 N863 0.985 . S
H870 N867 0.984 . S
H871 N867 0.985 . S
H872 N866 0.984 . S
H873 N866 0.984 . S
H874 N862 0.984 . S
H875 N862 0.985 . S
C876 C877 1.363 . S
C876 C882 1.379 . S
C876 N884 1.356 . S
C877 C876 1.363 . S
C877 C883 1.363 . S
C878 C879 1.363 . S
C878 C883 1.379 . S
C878 N885 1.356 . S
C879 C878 1.363 . S
C879 C882 1.363 . S
N880 C882 1.356 . S
N880 H892 0.984 . S
N880 H893 0.985 . S
N881 C883 1.356 . S
N881 H886 0.984 . S
N881 H887 0.985 . S
C882 C876 1.379 . S
C882 C879 1.363 . S
C882 N880 1.356 . S
C883 C877 1.363 . S
C883 C878 1.379 . S
C883 N881 1.356 . S
N884 C876 1.356 . S
N884 H890 0.984 . S
N884 H891 0.984 . S
N885 C878 1.356 . S
N885 H888 0.984 . S
N885 H889 0.985 . S
H886 N881 0.984 . S
H887 N881 0.985 . S
H888 N885 0.984 . S
H889 N885 0.985 . S
H890 N884 0.984 . S
H891 N884 0.984 . S
H892 N880 0.984 . S
H893 N880 0.985 . S
C894 C895 1.363 . S
C894 C900 1.379 . S
C894 N902 1.356 . S
C895 C894 1.363 . S
C895 C901 1.363 . S
C896 C897 1.363 . S
C896 C901 1.379 . S
C896 N903 1.356 . S
C897 C896 1.363 . S
C897 C900 1.363 . S
N898 C900 1.356 . S
N898 H910 0.984 . S
N898 H911 0.985 . S
N899 C901 1.356 . S
N899 H904 0.984 . S
N899 H905 0.985 . S
C900 C894 1.379 . S
C900 C897 1.363 . S
C900 N898 1.356 . S
C901 C895 1.363 . S
C901 C896 1.379 . S
C901 N899 1.356 . S
N902 C894 1.356 . S
N902 H908 0.984 . S
N902 H909 0.984 . S
N903 C896 1.356 . S
N903 H906 0.984 . S
N903 H907 0.985 . S
H904 N899 0.984 . S
H905 N899 0.985 . S
H906 N903 0.984 . S
H907 N903 0.985 . S
H908 N902 0.984 . S
H909 N902 0.984 . S
H910 N898 0.984 . S
H911 N898 0.985 . S
C912 C913 1.363 . S
C912 C918 1.379 . S
C912 N920 1.356 . S
C913 C912 1.363 . S
C913 C919 1.363 . S
C914 C915 1.363 . S
C914 C919 1.379 . S
C914 N921 1.356 . S
C915 C914 1.363 . S
C915 C918 1.363 . S
N916 C918 1.356 . S
N916 H928 0.984 . S
N916 H929 0.985 . S
N917 C919 1.356 . S
N917 H922 0.984 . S
N917 H923 0.985 . S
C918 C912 1.379 . S
C918 C915 1.363 . S
C918 N916 1.356 . S
C919 C913 1.363 . S
C919 C914 1.379 . S
C919 N917 1.356 . S
N920 C912 1.356 . S
N920 H926 0.984 . S
N920 H927 0.984 . S
N921 C914 1.356 . S
N921 H924 0.984 . S
N921 H925 0.985 . S
H922 N917 0.984 . S
H923 N917 0.985 . S
H924 N921 0.984 . S
H925 N921 0.985 . S
H926 N920 0.984 . S
H927 N920 0.984 . S
H928 N916 0.984 . S
H929 N916 0.985 . S
C930 C931 1.363 . S
C930 C936 1.379 1_565 S
C930 N938 1.356 . S
C931 C930 1.363 . S
C931 C937 1.363 . S
C932 C933 1.363 . S
C932 C937 1.379 1_545 S
C932 N939 1.356 . S
C933 C932 1.363 . S
C933 C936 1.363 . S
N934 C936 1.356 . S
N934 H946 0.984 . S
N934 H947 0.985 . S
N935 C937 1.356 . S
N935 H940 0.984 . S
N935 H941 0.985 . S
C936 C930 1.379 1_545 S
C936 C933 1.363 . S
C936 N934 1.356 . S
C937 C931 1.363 . S
C937 C932 1.379 1_565 S
C937 N935 1.356 . S
N938 C930 1.356 . S
N938 H944 0.984 . S
N938 H945 0.984 . S
N939 C932 1.356 . S
N939 H942 0.984 . S
N939 H943 0.985 . S
H940 N935 0.984 . S
H941 N935 0.985 . S
H942 N939 0.984 . S
H943 N939 0.985 . S
H944 N938 0.984 . S
H945 N938 0.984 . S
H946 N934 0.984 . S
H947 N934 0.985 . S
C948 C949 1.363 . S
C948 C954 1.379 1_455 S
C948 N956 1.356 . S
C949 C948 1.363 . S
C949 C955 1.363 . S
C950 C951 1.363 . S
C950 C955 1.379 1_655 S
C950 N957 1.356 . S
C951 C950 1.363 . S
C951 C954 1.363 . S
N952 C954 1.356 . S
N952 H964 0.984 . S
N952 H965 0.985 . S
N953 C955 1.356 . S
N953 H958 0.984 . S
N953 H959 0.985 . S
C954 C948 1.379 1_655 S
C954 C951 1.363 . S
C954 N952 1.356 . S
C955 C949 1.363 . S
C955 C950 1.379 1_455 S
C955 N953 1.356 . S
N956 C948 1.356 . S
N956 H962 0.984 . S
N956 H963 0.984 . S
N957 C950 1.356 . S
N957 H960 0.984 . S
N957 H961 0.985 . S
H958 N953 0.984 . S
H959 N953 0.985 . S
H960 N957 0.984 . S
H961 N957 0.985 . S
H962 N956 0.984 . S
H963 N956 0.984 . S
H964 N952 0.984 . S
H965 N952 0.985 . S
C966 C967 1.363 . S
C966 C972 1.379 . S
C966 N974 1.356 . S
C967 C966 1.363 . S
C967 C973 1.363 . S
C968 C969 1.363 . S
C968 C973 1.379 . S
C968 N975 1.356 . S
C969 C968 1.363 . S
C969 C972 1.363 . S
N970 C972 1.356 . S
N970 H982 0.984 . S
N970 H983 0.985 . S
N971 C973 1.356 . S
N971 H976 0.984 . S
N971 H977 0.985 . S
C972 C966 1.379 . S
C972 C969 1.363 . S
C972 N970 1.356 . S
C973 C967 1.363 . S
C973 C968 1.379 . S
C973 N971 1.356 . S
N974 C966 1.356 . S
N974 H980 0.984 . S
N974 H981 0.984 . S
N975 C968 1.356 . S
N975 H978 0.984 . S
N975 H979 0.985 . S
H976 N971 0.984 . S
H977 N971 0.985 . S
H978 N975 0.984 . S
H979 N975 0.985 . S
H980 N974 0.984 . S
H981 N974 0.984 . S
H982 N970 0.984 . S
H983 N970 0.985 . S
C984 C985 1.363 . S
C984 C990 1.379 1_565 S
C984 N992 1.356 . S
C985 C984 1.363 . S
C985 C991 1.363 . S
C986 C987 1.363 . S
C986 C991 1.379 1_545 S
C986 N993 1.356 . S
C987 C986 1.363 . S
C987 C990 1.363 . S
N988 C990 1.356 . S
N988 H1000 0.984 . S
N988 H1001 0.985 . S
N989 C991 1.356 . S
N989 H994 0.984 . S
N989 H995 0.985 . S
C990 C984 1.379 1_545 S
C990 C987 1.363 . S
C990 N988 1.356 . S
C991 C985 1.363 . S
C991 C986 1.379 1_565 S
C991 N989 1.356 . S
N992 C984 1.356 . S
N992 H998 0.982 . S
N992 H999 0.984 . S
N993 C986 1.356 . S
N993 H996 0.984 . S
N993 H997 0.983 . S
H994 N989 0.984 . S
H995 N989 0.985 . S
H996 N993 0.984 . S
H997 N993 0.983 . S
H998 N992 0.982 . S
H999 N992 0.984 . S
H1000 N988 0.984 . S
H1001 N988 0.985 . S
C1002 C1003 1.363 . S
C1002 C1008 1.379 1_655 S
C1002 N1010 1.356 . S
C1003 C1002 1.363 . S
C1003 C1009 1.363 . S
C1004 C1005 1.363 . S
C1004 C1009 1.379 1_455 S
C1004 N1011 1.356 . S
C1005 C1004 1.363 . S
C1005 C1008 1.363 . S
N1006 C1008 1.356 . S
N1006 H1018 0.984 . S
N1006 H1019 0.985 . S
N1007 C1009 1.356 . S
N1007 H1012 0.984 . S
N1007 H1013 0.985 . S
C1008 C1002 1.379 1_455 S
C1008 C1005 1.363 . S
C1008 N1006 1.356 . S
C1009 C1003 1.363 . S
C1009 C1004 1.379 1_655 S
C1009 N1007 1.356 . S
N1010 C1002 1.356 . S
N1010 H1016 0.984 1_655 S
N1010 H1017 0.984 . S
N1011 C1004 1.356 . S
N1011 H1014 0.984 . S
N1011 H1015 0.985 1_455 S
H1012 N1007 0.984 . S
H1013 N1007 0.985 . S
H1014 N1011 0.984 . S
H1015 N1011 0.985 1_655 S
H1016 N1010 0.984 1_455 S
H1017 N1010 0.984 . S
H1018 N1006 0.984 . S
H1019 N1006 0.985 . S
C1020 C1021 1.363 . S
C1020 C1026 1.379 . S
C1020 N1028 1.356 . S
C1021 C1020 1.363 . S
C1021 C1027 1.363 . S
C1022 C1023 1.363 . S
C1022 C1027 1.379 . S
C1022 N1029 1.356 . S
C1023 C1022 1.363 . S
C1023 C1026 1.363 . S
N1024 C1026 1.356 1_554 S
N1024 H1036 0.984 . S
N1024 H1037 0.985 . S
N1025 C1027 1.356 . S
N1025 H1030 0.984 . S
N1025 H1031 0.985 . S
C1026 C1020 1.379 . S
C1026 C1023 1.363 . S
C1026 N1024 1.356 1_556 S
C1027 C1021 1.363 . S
C1027 C1022 1.379 . S
C1027 N1025 1.356 . S
N1028 C1020 1.356 . S
N1028 H1034 0.984 . S
N1028 H1035 0.984 . S
N1029 C1022 1.356 . S
N1029 H1032 0.984 . S
N1029 H1033 0.985 . S
H1030 N1025 0.984 . S
H1031 N1025 0.985 . S
H1032 N1029 0.984 . S
H1033 N1029 0.985 . S
H1034 N1028 0.984 . S
H1035 N1028 0.984 . S
H1036 N1024 0.984 . S
H1037 N1024 0.985 . S
C1038 C1039 1.363 . S
C1038 C1044 1.379 . S
C1038 N1046 1.356 . S
C1039 C1038 1.363 . S
C1039 C1045 1.363 . S
C1040 C1041 1.363 . S
C1040 C1045 1.379 . S
C1040 N1047 1.356 . S
C1041 C1040 1.363 . S
C1041 C1044 1.363 . S
N1042 C1044 1.356 . S
N1042 H1054 0.984 . S
N1042 H1055 0.985 . S
N1043 C1045 1.356 . S
N1043 H1048 0.984 . S
N1043 H1049 0.985 . S
C1044 C1038 1.379 . S
C1044 C1041 1.363 . S
C1044 N1042 1.356 . S
C1045 C1039 1.363 . S
C1045 C1040 1.379 . S
C1045 N1043 1.356 . S
N1046 C1038 1.356 . S
N1046 H1052 0.984 . S
N1046 H1053 0.984 1_556 S
N1047 C1040 1.356 . S
N1047 H1050 0.984 . S
N1047 H1051 0.985 . S
H1048 N1043 0.984 . S
H1049 N1043 0.985 . S
H1050 N1047 0.984 . S
H1051 N1047 0.985 . S
H1052 N1046 0.984 . S
H1053 N1046 0.984 1_554 S
H1054 N1042 0.984 . S
H1055 N1042 0.985 . S
C1056 C1057 1.363 . S
C1056 C1062 1.379 . S
C1056 N1064 1.356 . S
C1057 C1056 1.363 . S
C1057 C1063 1.363 . S
C1058 C1059 1.363 . S
C1058 C1063 1.379 . S
C1058 N1065 1.356 . S
C1059 C1058 1.363 . S
C1059 C1062 1.363 . S
N1060 C1062 1.356 . S
N1060 H1072 0.984 . S
N1060 H1073 0.985 . S
N1061 C1063 1.356 . S
N1061 H1066 0.984 . S
N1061 H1067 0.985 . S
C1062 C1056 1.379 . S
C1062 C1059 1.363 . S
C1062 N1060 1.356 . S
C1063 C1057 1.363 . S
C1063 C1058 1.379 . S
C1063 N1061 1.356 . S
N1064 C1056 1.356 . S
N1064 H1070 0.984 . S
N1064 H1071 0.984 1_556 S
N1065 C1058 1.356 . S
N1065 H1068 0.984 . S
N1065 H1069 0.985 . S
H1066 N1061 0.984 . S
H1067 N1061 0.985 . S
H1068 N1065 0.984 . S
H1069 N1065 0.985 . S
H1070 N1064 0.984 . S
H1071 N1064 0.984 1_554 S
H1072 N1060 0.984 . S
H1073 N1060 0.985 . S
C1074 C1075 1.363 . S
C1074 C1080 1.379 . S
C1074 N1082 1.356 . S
C1075 C1074 1.363 . S
C1075 C1081 1.363 . S
C1076 C1077 1.363 . S
C1076 C1081 1.379 . S
C1076 N1083 1.356 . S
C1077 C1076 1.363 . S
C1077 C1080 1.363 . S
N1078 C1080 1.356 . S
N1078 H1090 0.984 . S
N1078 H1091 0.985 . S
N1079 C1081 1.356 . S
N1079 H1084 0.984 . S
N1079 H1085 0.985 . S
C1080 C1074 1.379 . S
C1080 C1077 1.363 . S
C1080 N1078 1.356 . S
C1081 C1075 1.363 . S
C1081 C1076 1.379 . S
C1081 N1079 1.356 . S
N1082 C1074 1.356 . S
N1082 H1088 0.984 . S
N1082 H1089 0.984 . S
N1083 C1076 1.356 . S
N1083 H1086 0.984 . S
N1083 H1087 0.985 . S
H1084 N1079 0.984 . S
H1085 N1079 0.985 . S
H1086 N1083 0.984 . S
H1087 N1083 0.985 . S
H1088 N1082 0.984 . S
H1089 N1082 0.984 . S
H1090 N1078 0.984 . S
H1091 N1078 0.985 . S
C1092 C1093 1.363 . S
C1092 C1098 1.379 . S
C1092 N1100 1.356 . S
C1093 C1092 1.363 . S
C1093 C1099 1.363 . S
C1094 C1095 1.363 . S
C1094 C1099 1.379 . S
C1094 N1101 1.356 . S
C1095 C1094 1.363 . S
C1095 C1098 1.363 . S
N1096 C1098 1.356 . S
N1096 H1108 0.984 . S
N1096 H1109 0.985 . S
N1097 C1099 1.356 . S
N1097 H1102 0.984 . S
N1097 H1103 0.985 . S
C1098 C1092 1.379 . S
C1098 C1095 1.363 . S
C1098 N1096 1.356 . S
C1099 C1093 1.363 . S
C1099 C1094 1.379 . S
C1099 N1097 1.356 . S
N1100 C1092 1.356 . S
N1100 H1106 0.984 . S
N1100 H1107 0.984 . S
N1101 C1094 1.356 . S
N1101 H1104 0.984 . S
N1101 H1105 0.985 . S
H1102 N1097 0.984 . S
H1103 N1097 0.985 . S
H1104 N1101 0.984 . S
H1105 N1101 0.985 . S
H1106 N1100 0.984 . S
H1107 N1100 0.984 . S
H1108 N1096 0.984 . S
H1109 N1096 0.985 . S
C1110 C1111 1.363 . S
C1110 C1116 1.379 . S
C1110 N1118 1.356 . S
C1111 C1110 1.363 . S
C1111 C1117 1.363 . S
C1112 C1113 1.363 . S
C1112 C1117 1.379 . S
C1112 N1119 1.356 . S
C1113 C1112 1.363 . S
C1113 C1116 1.363 . S
N1114 C1116 1.356 . S
N1114 H1126 0.984 . S
N1114 H1127 0.985 . S
N1115 C1117 1.356 . S
N1115 H1120 0.984 . S
N1115 H1121 0.985 . S
C1116 C1110 1.379 . S
C1116 C1113 1.363 . S
C1116 N1114 1.356 . S
C1117 C1111 1.363 . S
C1117 C1112 1.379 . S
C1117 N1115 1.356 . S
N1118 C1110 1.356 . S
N1118 H1124 0.984 . S
N1118 H1125 0.984 . S
N1119 C1112 1.356 . S
N1119 H1122 0.984 . S
N1119 H1123 0.985 . S
H1120 N1115 0.984 . S
H1121 N1115 0.985 . S
H1122 N1119 0.984 . S
H1123 N1119 0.985 . S
H1124 N1118 0.984 . S
H1125 N1118 0.984 . S
H1126 N1114 0.984 . S
H1127 N1114 0.985 . S
C1128 C1129 1.363 . S
C1128 C1134 1.379 . S
C1128 N1136 1.356 . S
C1129 C1128 1.363 . S
C1129 C1135 1.363 . S
C1130 C1131 1.363 . S
C1130 C1135 1.379 . S
C1130 N1137 1.356 . S
C1131 C1130 1.363 . S
C1131 C1134 1.363 . S
N1132 C1134 1.356 . S
N1132 H1144 0.984 . S
N1132 H1145 0.985 . S
N1133 C1135 1.356 1_556 S
N1133 H1138 0.984 . S
N1133 H1139 0.985 . S
C1134 C1128 1.379 . S
C1134 C1131 1.363 . S
C1134 N1132 1.356 . S
C1135 C1129 1.363 . S
C1135 C1130 1.379 . S
C1135 N1133 1.356 1_554 S
N1136 C1128 1.356 . S
N1136 H1142 0.984 . S
N1136 H1143 0.984 . S
N1137 C1130 1.356 . S
N1137 H1140 0.984 . S
N1137 H1141 0.985 . S
H1138 N1133 0.984 . S
H1139 N1133 0.985 . S
H1140 N1137 0.984 . S
H1141 N1137 0.985 . S
H1142 N1136 0.984 . S
H1143 N1136 0.984 . S
H1144 N1132 0.984 . S
H1145 N1132 0.985 . S
C1146 C1147 1.363 . S
C1146 C1152 1.379 . S
C1146 N1154 1.356 1_554 S
C1147 C1146 1.363 . S
C1147 C1153 1.363 . S
C1148 C1149 1.363 . S
C1148 C1153 1.379 . S
C1148 N1155 1.356 . S
C1149 C1148 1.363 . S
C1149 C1152 1.363 . S
N1150 C1152 1.356 . S
N1150 H1162 0.984 . S
N1150 H1163 0.985 . S
N1151 C1153 1.356 . S
N1151 H1156 0.984 . S
N1151 H1157 0.985 . S
C1152 C1146 1.379 . S
C1152 C1149 1.363 . S
C1152 N1150 1.356 . S
C1153 C1147 1.363 . S
C1153 C1148 1.379 . S
C1153 N1151 1.356 . S
N1154 C1146 1.356 1_556 S
N1154 H1160 0.984 . S
N1154 H1161 0.984 . S
N1155 C1148 1.356 . S
N1155 H1158 0.984 . S
N1155 H1159 0.985 . S
H1156 N1151 0.984 . S
H1157 N1151 0.985 . S
H1158 N1155 0.984 . S
H1159 N1155 0.985 . S
H1160 N1154 0.984 . S
H1161 N1154 0.984 . S
H1162 N1150 0.984 . S
H1163 N1150 0.985 . S
C1164 C1165 1.363 . S
C1164 C1170 1.379 . S
C1164 N1172 1.356 . S
C1165 C1164 1.363 . S
C1165 C1171 1.363 . S
C1166 C1167 1.363 . S
C1166 C1171 1.379 . S
C1166 N1173 1.356 . S
C1167 C1166 1.363 . S
C1167 C1170 1.363 . S
N1168 C1170 1.356 . S
N1168 H1180 0.984 . S
N1168 H1181 0.985 . S
N1169 C1171 1.356 . S
N1169 H1174 0.984 1_554 S
N1169 H1175 0.985 . S
C1170 C1164 1.379 . S
C1170 C1167 1.363 . S
C1170 N1168 1.356 . S
C1171 C1165 1.363 . S
C1171 C1166 1.379 . S
C1171 N1169 1.356 . S
N1172 C1164 1.356 . S
N1172 H1178 0.984 . S
N1172 H1179 0.984 . S
N1173 C1166 1.356 . S
N1173 H1176 0.984 . S
N1173 H1177 0.985 . S
H1174 N1169 0.984 1_556 S
H1175 N1169 0.985 . S
H1176 N1173 0.984 . S
H1177 N1173 0.985 . S
H1178 N1172 0.984 . S
H1179 N1172 0.984 . S
H1180 N1168 0.984 . S
H1181 N1168 0.985 . S
C1182 C1183 1.363 . S
C1182 C1188 1.379 . S
C1182 N1190 1.356 . S
C1183 C1182 1.363 . S
C1183 C1189 1.363 . S
C1184 C1185 1.363 . S
C1184 C1189 1.379 . S
C1184 N1191 1.356 . S
C1185 C1184 1.363 . S
C1185 C1188 1.363 . S
N1186 C1188 1.356 . S
N1186 H1198 0.984 . S
N1186 H1199 0.985 . S
N1187 C1189 1.356 . S
N1187 H1192 0.984 . S
N1187 H1193 0.985 . S
C1188 C1182 1.379 . S
C1188 C1185 1.363 . S
C1188 N1186 1.356 . S
C1189 C1183 1.363 . S
C1189 C1184 1.379 . S
C1189 N1187 1.356 . S
N1190 C1182 1.356 . S
N1190 H1196 0.984 . S
N1190 H1197 0.984 . S
N1191 C1184 1.356 . S
N1191 H1194 0.984 . S
N1191 H1195 0.985 . S
H1192 N1187 0.984 . S
H1193 N1187 0.985 . S
H1194 N1191 0.984 . S
H1195 N1191 0.985 . S
H1196 N1190 0.984 . S
H1197 N1190 0.984 . S
H1198 N1186 0.984 . S
H1199 N1186 0.985 . S
C1200 C1201 1.363 . S
C1200 C1206 1.379 . S
C1200 N1208 1.356 . S
C1201 C1200 1.363 . S
C1201 C1207 1.363 . S
C1202 C1203 1.363 . S
C1202 C1207 1.379 . S
C1202 N1209 1.356 . S
C1203 C1202 1.363 . S
C1203 C1206 1.363 . S
N1204 C1206 1.356 . S
N1204 H1216 0.984 . S
N1204 H1217 0.985 . S
N1205 C1207 1.356 . S
N1205 H1210 0.984 . S
N1205 H1211 0.985 . S
C1206 C1200 1.379 . S
C1206 C1203 1.363 . S
C1206 N1204 1.356 . S
C1207 C1201 1.363 . S
C1207 C1202 1.379 . S
C1207 N1205 1.356 . S
N1208 C1200 1.356 . S
N1208 H1214 0.984 . S
N1208 H1215 0.984 . S
N1209 C1202 1.356 . S
N1209 H1212 0.984 . S
N1209 H1213 0.985 . S
H1210 N1205 0.984 . S
H1211 N1205 0.985 . S
H1212 N1209 0.984 . S
H1213 N1209 0.985 . S
H1214 N1208 0.984 . S
H1215 N1208 0.984 . S
H1216 N1204 0.984 . S
H1217 N1204 0.985 . S
C1218 C1219 1.363 . S
C1218 C1224 1.379 . S
C1218 N1226 1.356 . S
C1219 C1218 1.363 . S
C1219 C1225 1.363 . S
C1220 C1221 1.363 . S
C1220 C1225 1.379 . S
C1220 N1227 1.356 . S
C1221 C1220 1.363 . S
C1221 C1224 1.363 . S
N1222 C1224 1.356 . S
N1222 H1234 0.984 . S
N1222 H1235 0.985 . S
N1223 C1225 1.356 . S
N1223 H1228 0.984 . S
N1223 H1229 0.985 . S
C1224 C1218 1.379 . S
C1224 C1221 1.363 . S
C1224 N1222 1.356 . S
C1225 C1219 1.363 . S
C1225 C1220 1.379 . S
C1225 N1223 1.356 . S
N1226 C1218 1.356 . S
N1226 H1232 0.984 . S
N1226 H1233 0.984 . S
N1227 C1220 1.356 . S
N1227 H1230 0.984 . S
N1227 H1231 0.985 . S
H1228 N1223 0.984 . S
H1229 N1223 0.985 . S
H1230 N1227 0.984 . S
H1231 N1227 0.985 . S
H1232 N1226 0.984 . S
H1233 N1226 0.984 . S
H1234 N1222 0.984 . S
H1235 N1222 0.985 . S
C373 C24 1.681 . S
C375 C42 1.391 . S
C391 C73 1.391 . S
C393 C55 1.681 . S
C409 C86 1.681 . S
C411 C11 1.391 . S
C427 C166 1.391 . S
C429 C117 1.681 . S
C445 C104 1.391 . S
C447 C148 1.681 . S
C463 C179 1.681 . S
C465 C135 1.391 . S
C481 C186 1.681 . S
C483 C235 1.391 . S
C499 C266 1.391 . S
C501 C217 1.681 . S
C517 C248 1.681 . S
C519 C204 1.391 . S
C535 C279 1.681 . S
C537 C359 1.391 . S
C553 C297 1.391 . S
C555 C310 1.681 . S
C571 C328 1.391 . S
C573 C341 1.681 . S
C589 C210 1.293 . S
C591 C0 1.293 . S
C607 C31 1.293 . S
C609 C241 1.293 . S
C625 C62 1.293 . S
C627 C272 1.293 . S
C643 C93 1.293 . S
C645 C303 1.293 . S
C661 C124 1.293 . S
C663 C334 1.293 . S
C679 C365 1.293 . S
C681 C155 1.293 . S
C697 C1 1.203 . S
C699 C281 1.181 . S
C715 C32 1.203 . S
C717 C312 1.181 . S
C733 C343 1.181 . S
C735 C63 1.203 . S
C751 C188 1.181 . S
C753 C94 1.203 . S
C769 C219 1.181 . S
C771 C125 1.203 . S
C787 C250 1.181 . S
C789 C156 1.203 . S
C805 C103 1.181 . S
C807 C213 1.203 . S
C823 C244 1.203 . S
C825 C134 1.181 . S
C841 C275 1.203 . S
C843 C165 1.181 . S
C859 C10 1.181 . S
C861 C306 1.203 . S
C877 C337 1.203 . S
C879 C41 1.181 . S
C895 C72 1.181 . S
C897 C368 1.203 . S
C913 C111 2.424 . S
C915 C18 2.424 . S
C931 C142 2.424 . S
C933 C49 2.424 . S
C949 C173 2.424 . S
C951 C80 2.424 . S
C967 C197 2.424 . S
C969 C290 2.424 . S
C985 C228 2.424 . S
C987 C321 2.424 . S
C1003 C352 2.424 . S
C1005 C259 2.424 . S
C1021 C311 1.522 . S
C1023 C2 1.700 1_556 S
C1039 C33 1.700 1_556 S
C1041 C342 1.522 . S
C1057 C64 1.700 1_556 S
C1059 C280 1.522 . S
C1075 C95 1.700 . S
C1077 C249 1.522 . S
C1093 C187 1.522 . S
C1095 C126 1.700 . S
C1111 C218 1.522 . S
C1113 C157 1.700 . S
C1129 C196 1.700 1_554 S
C1131 C151 1.522 . S
C1147 C227 1.700 1_554 S
C1149 C182 1.522 . S
C1165 C258 1.700 1_554 S
C1167 C120 1.522 . S
C1183 C89 1.522 . S
C1185 C289 1.700 . S
C1201 C27 1.522 . S
C1203 C320 1.700 . S
C1219 C58 1.522 . S
C1221 C351 1.700 . S
