# Generated by pormake.
# Topology sxc, (6)-cn, num edge types: 1
# Building blocks:
#     Node 0, Type 0, BuildingBlock: BETDAH_clean_sbu_0, # of connection points: 6
#     Node 1, Type 0, BuildingBlock: BETDAH_clean_sbu_0, # of connection points: 6
#     Node 2, Type 0, BuildingBlock: BETDAH_clean_sbu_0, # of connection points: 6
#     Edge 3, Type (0, 0), BuildingBlock: TEMPAE_clean_linker_10, # of connection points: 2
#     Edge 4, Type (0, 0), BuildingBlock: TEMPAE_clean_linker_10, # of connection points: 2
#     Edge 5, Type (0, 0), BuildingBlock: TEMPAE_clean_linker_10, # of connection points: 2
#     Edge 6, Type (0, 0), BuildingBlock: TEMPAE_clean_linker_10, # of connection points: 2
#     Edge 7, Type (0, 0), BuildingBlock: TEMPAE_clean_linker_10, # of connection points: 2
#     Edge 8, Type (0, 0), BuildingBlock: TEMPAE_clean_linker_10, # of connection points: 2
#     Edge 9, Type (0, 0), BuildingBlock: TEMPAE_clean_linker_10, # of connection points: 2
#     Edge 10, Type (0, 0), BuildingBlock: TEMPAE_clean_linker_10, # of connection points: 2
#     Edge 11, Type (0, 0), BuildingBlock: TEMPAE_clean_linker_10, # of connection points: 2
# Relax obj value: 0.315
# Max RMSD: 0.166
# Mean RMSD: 0.091
data_MOF--net-sxc--node1-BETDAH_clean_sbu_0--edge1-TEMPAE_clean_linker_10
_symmetry_space_group_name_H-M    P1
_symmetry_Int_Tables_number       1
_symmetry_cell_setting            triclinic
loop_
_symmetry_equiv_pos_as_xyz
'x, y, z'
_cell_length_a     16.574916
_cell_length_b     18.727419
_cell_length_c     45.833469
_cell_angle_alpha  94.387224
_cell_angle_beta   91.904885
_cell_angle_gamma 96.124553
loop_
_atom_site_label
_atom_site_type_symbol
_atom_site_fract_x
_atom_site_fract_y
_atom_site_fract_z
_atom_type_partial_charge
Ho0 Ho 0.173 0.0996 0.9712 0.0
Ho1 Ho 1.01994 0.09216 0.97133 0.0
C2 C 0.09483 0.27255 0.97235 0.0
C3 C 0.32385 0.13373 0.96019 0.0
C4 C 0.37812 0.20185 0.96429 0.0
C5 C 0.40446 0.23663 0.93971 0.0
C6 C 0.44885 0.30462 0.9431 0.0
C7 C 0.46844 0.33893 0.97119 0.0
C8 C 0.44468 0.30281 -0.00419 0.0
C9 C 0.3998 0.23507 -0.00758 0.0
C10 C 0.12826 0.09441 0.02771 0.0
C11 C 0.09759 0.91952 0.97046 0.0
C12 C 0.86778 1.05947 0.98098 0.0
C13 C 0.81681 0.98992 0.98192 0.0
C14 C 0.80646 0.95816 0.00855 0.0
C15 C 0.76484 0.88941 0.00907 0.0
C16 C 0.73226 0.85123 0.983 0.0
C17 C 0.73994 0.88412 0.95654 0.0
C18 C 0.78148 0.9528 0.95601 0.0
C19 C 0.06835 0.09722 0.91523 0.0
O20 O 0.16092 0.2334 0.97125 0.0
O21 O 1.02673 0.22513 0.97352 0.0
O22 O 0.30054 0.10411 0.98376 0.0
O23 O 0.2643 0.13235 0.94074 0.0
O24 O 0.17834 1.05472 0.01517 0.0
O25 O 0.10129 0.1344 0.00933 0.0
O26 O 1.03276 0.95936 0.97438 0.0
O27 O 0.16443 0.96636 0.96633 0.0
O28 O 0.89441 1.07474 0.95552 0.0
O29 O 0.92389 0.07537 0.00179 0.0
O30 O 1.02203 0.14062 0.92775 0.0
O31 O 0.09126 1.0556 0.93365 0.0
H32 H 0.38855 0.21214 0.9178 0.0
H33 H 0.46545 0.33126 0.92366 0.0
H34 H 0.46008 0.32723 0.01775 0.0
H35 H 0.38076 0.2096 0.01187 0.0
H36 H 0.832 0.98577 0.02895 0.0
H37 H 0.75861 0.86593 0.02986 0.0
H38 H 0.71599 0.85588 0.93605 0.0
H39 H 0.78767 0.97593 0.93514 0.0
Ho40 Ho 0.1033 0.17576 0.30899 0.0
Ho41 Ho 0.08245 1.03301 0.30359 0.0
C42 C 0.91285 0.10095 0.30607 0.0
C43 C 0.09421 0.31264 0.31151 0.0
C44 C 0.06462 0.35706 0.33564 0.0
C45 C 0.06837 0.43146 0.33447 0.0
C46 C 1.04771 0.47429 0.35868 0.0
C47 C 1.02291 0.44337 0.38454 0.0
C48 C 1.01759 0.36833 0.38539 0.0
C49 C 1.03788 0.32539 0.36098 0.0
C50 C 0.11503 0.12446 0.36358 0.0
C51 C 0.2712 0.10919 0.30533 0.0
C52 C 0.0944 0.89971 0.31192 0.0
C53 C 0.1264 0.87107 0.33819 0.0
C54 C 0.15042 0.91769 0.36322 0.0
C55 C 0.17382 0.8902 0.38933 0.0
C56 C 0.17504 0.81576 0.39046 0.0
C57 C 0.15365 0.76972 0.36487 0.0
C58 C 0.12941 0.7972 0.33899 0.0
C59 C 0.06791 0.08197 0.24892 0.0
O60 O 0.96257 0.1586 0.30079 0.0
O61 O 0.94729 1.04244 0.31141 0.0
O62 O 0.16056 0.28479 0.31786 0.0
O63 O 1.03983 0.26576 0.29762 0.0
O64 O 0.1619 0.17626 0.35431 0.0
O65 O 0.06278 0.10181 0.34344 0.0
O66 O 0.22221 1.0542 0.31369 0.0
O67 O 0.23543 0.16492 0.29726 0.0
O68 O 0.14728 0.93874 0.29787 0.0
O69 O 1.0278 0.92973 0.31541 0.0
O70 O 1.02297 1.02884 0.25851 0.0
O71 O 0.12093 0.10685 0.2687 0.0
H72 H 0.08962 0.45663 0.31521 0.0
H73 H 1.05475 0.53218 0.35755 0.0
H74 H 0.99917 0.34313 0.40496 0.0
H75 H 1.03485 0.26761 0.36214 0.0
H76 H 0.14898 0.97517 0.36268 0.0
H77 H 0.18939 0.92674 0.40862 0.0
H78 H 0.15164 0.71177 0.36517 0.0
H79 H 0.11079 0.76063 0.31992 0.0
Ho80 Ho 0.09016 0.99793 0.6373 0.0
Ho81 Ho 0.0988 0.14618 0.63817 0.0
C82 C 0.91644 1.07073 0.63588 0.0
C83 C 1.05866 0.8645 0.64787 0.0
C84 C 0.99029 0.82441 0.66091 0.0
C85 C 0.94026 0.85994 0.68 0.0
C86 C 0.87002 0.82283 0.68972 0.0
C87 C 0.8488 0.74979 0.68041 0.0
C88 C 0.9009 0.71399 0.66214 0.0
C89 C 0.97111 0.7511 0.65249 0.0
C90 C 0.10615 1.04252 0.58222 0.0
C91 C 0.27508 1.07236 0.63858 0.0
C92 C 0.12877 0.28149 0.63021 0.0
C93 C 0.19375 0.33776 0.64026 0.0
C94 C 0.20662 0.39969 0.62506 0.0
C95 C 0.27073 0.45226 0.63375 0.0
C96 C 0.32241 0.44351 0.65785 0.0
C97 C 0.30832 0.38192 0.67338 0.0
C98 C 0.24459 0.32912 0.66454 0.0
C99 C 0.08296 0.10031 0.69307 0.0
O100 O 0.95507 1.01738 0.64533 0.0
O101 O 0.96221 0.12604 0.62654 0.0
O102 O 1.04199 0.8887 0.62267 0.0
O103 O 0.10278 0.91233 0.66554 0.0
O104 O 0.14493 0.99342 0.59296 0.0
O105 O 1.05966 1.0661 0.60127 0.0
O106 O 0.23804 0.13239 0.63801 0.0
O107 O 0.22896 1.01029 0.63922 0.0
O108 O 0.08265 0.25704 0.65053 0.0
O109 O 0.14995 0.23011 0.61213 0.0
O110 O 1.04308 0.14873 0.68251 0.0
O111 O 0.1303 0.07855 0.67404 0.0
H112 H 0.95429 0.91676 0.68674 0.0
H113 H 0.83137 0.85165 0.70393 0.0
H114 H 0.88549 0.65812 0.65412 0.0
H115 H 1.00892 0.72319 0.63761 0.0
H116 H 0.1678 0.40688 0.60625 0.0
H117 H 0.28044 0.49947 0.6215 0.0
H118 H 0.34812 0.37354 0.69175 0.0
H119 H 0.23567 0.28112 0.67635 0.0
C120 C 0.1632 0.42465 0.98011 0.0
C121 C 0.09601 0.36763 0.97215 0.0
C122 C 0.16377 0.50674 0.98067 0.0
C123 C 0.09613 0.54813 0.97172 0.0
C124 C 1.02856 0.49058 0.96297 0.0
C125 C 1.02905 0.40898 0.96394 0.0
C126 C 0.24156 0.54939 -0.00749 0.0
C127 C 0.95096 0.51392 0.95089 0.0
C128 C 1.03622 0.77233 0.98297 0.0
C129 C 0.09628 0.82446 0.97073 0.0
C130 C 1.03605 0.6906 0.98401 0.0
C131 C 0.09604 0.64401 0.97142 0.0
C132 C 0.15592 0.69631 0.95838 0.0
C133 C 0.15603 0.77827 0.95884 0.0
C134 C 0.96805 0.65476 0.00046 0.0
C135 C 0.22339 0.6661 0.94199 0.0
H136 H 0.21925 0.40494 0.9871 0.0
H137 H 0.97296 0.37603 0.95706 0.0
H138 H 0.28675 0.54996 0.97517 0.0
H139 H 0.23277 0.60563 6e-05 0.0
H140 H 0.26761 0.52348 0.01114 0.0
H141 H 0.90576 0.51339 0.96822 0.0
H142 H 0.96 0.56859 0.94296 0.0
H143 H 0.92482 0.47552 0.93247 0.0
H144 H 0.98628 0.79618 -0.00689 0.0
H145 H 0.20607 0.80706 0.94851 0.0
H146 H 0.98189 0.60201 0.00766 0.0
H147 H 0.91189 0.64671 0.98617 0.0
H148 H 0.95528 0.68978 0.02005 0.0
H149 H 0.27976 0.67423 0.95615 0.0
H150 H 0.2359 0.69528 0.92214 0.0
H151 H 0.20909 0.60788 0.93517 0.0
C152 C 0.40192 1.04456 0.29832 0.0
C153 C 0.36531 0.10821 0.30541 0.0
C154 C 0.48852 1.04301 0.29746 0.0
C155 C 0.5444 0.10592 0.30561 0.0
C156 C 0.5072 0.17003 0.31367 0.0
C157 C 0.4203 0.17071 0.31263 0.0
C158 C 0.51869 0.97254 0.28726 0.0
C159 C 0.5582 0.23944 0.32398 0.0
C160 C 0.76921 1.06427 0.32546 0.0
C161 C 0.81876 0.10215 0.3059 0.0
C162 C 0.68271 1.0667 0.32623 0.0
C163 C 0.6397 0.10467 0.30572 0.0
C164 C 0.68975 0.14135 0.28532 0.0
C165 C 0.77673 0.14136 0.28626 0.0
C166 C 0.63865 1.02836 0.34977 0.0
C167 C 0.65265 0.18087 0.26171 0.0
H168 H 0.3624 0.99525 0.29248 0.0
H169 H 0.39531 0.22081 0.31844 0.0
H170 H 0.581 0.97961 0.27904 0.0
H171 H 0.51819 0.93761 0.30575 0.0
H172 H 0.47752 0.94363 0.26955 0.0
H173 H 0.5279 0.26927 0.3416 0.0
H174 H 0.61966 0.23074 0.33234 0.0
H175 H 0.56437 0.2743 0.3055 0.0
H176 H 0.79856 1.03381 0.3411 0.0
H177 H 0.81189 0.171 0.27071 0.0
H178 H 0.62709 0.97008 0.34269 0.0
H179 H 0.57996 1.04924 0.3546 0.0
H180 H 0.67685 1.03349 0.37036 0.0
H181 H 0.58766 0.16166 0.25673 0.0
H182 H 0.68604 0.17487 0.2412 0.0
H183 H 0.65827 0.23921 0.26883 0.0
C184 C 0.69852 0.74714 0.68396 0.0
C185 C 0.76897 0.7125 0.68699 0.0
C186 C 0.62143 0.7085 0.68424 0.0
C187 C 0.61509 0.63352 0.68725 0.0
C188 C 0.68574 0.59961 0.69278 0.0
C189 C 0.76197 0.63973 0.69276 0.0
C190 C 0.54737 0.74681 0.67874 0.0
C191 C 0.6814 0.5197 0.69614 0.0
C192 C 0.41241 0.52297 0.69462 0.0
C193 C 0.39424 0.49596 0.6655 0.0
C194 C 0.48312 0.56983 0.70209 0.0
C195 C 0.53695 0.58871 0.67993 0.0
C196 C 0.51811 0.56224 0.65045 0.0
C197 C 0.44669 0.51644 0.64359 0.0
C198 C 0.50081 0.59825 0.73361 0.0
C199 C 0.57452 0.58064 0.62622 0.0
H200 H 0.70338 0.80334 0.67937 0.0
H201 H 0.81635 0.61322 0.69577 0.0
H202 H 0.52619 0.73538 0.65546 0.0
H203 H 0.49693 0.72745 0.69245 0.0
H204 H 0.56075 0.8061 0.68323 0.0
H205 H 0.74034 0.50364 0.70412 0.0
H206 H 0.63408 0.5031 0.71156 0.0
H207 H 0.66437 0.48962 0.67463 0.0
H208 H 0.37132 0.50734 0.7115 0.0
H209 H 0.43304 0.49473 0.62114 0.0
H210 H 0.51203 0.65793 0.73524 0.0
H211 H 0.55676 0.57787 0.74209 0.0
H212 H 0.45024 0.58201 0.74787 0.0
H213 H 0.58506 0.63992 0.62535 0.0
H214 H 0.55015 0.55632 0.60441 0.0
H215 H 0.63432 0.56119 0.63067 0.0
C216 C 0.77911 0.11199 0.61818 0.0
C217 C 0.82222 1.06981 0.63628 0.0
C218 C 0.6923 0.11197 0.61803 0.0
C219 C 0.64347 1.07144 0.63759 0.0
C220 C 0.68727 1.02959 0.65636 0.0
C221 C 0.7738 1.02815 0.655 0.0
C222 C 0.65375 0.15591 0.5963 0.0
C223 C 0.64406 0.98561 0.6785 0.0
C224 C 0.4239 0.13431 0.6484 0.0
C225 C 0.36938 1.07344 0.63827 0.0
C226 C 0.51087 0.13398 0.64907 0.0
C227 C 0.54837 1.07221 0.63803 0.0
C228 C 0.49307 1.01122 0.6271 0.0
C229 C 0.40655 1.01212 0.62801 0.0
C230 C 0.56161 0.20106 0.66219 0.0
C231 C 0.52409 0.94354 0.614 0.0
H232 H 0.81337 0.14468 0.60334 0.0
H233 H 0.80391 0.99511 0.66942 0.0
H234 H 0.5902 0.13397 0.58999 0.0
H235 H 0.65395 0.21191 0.60612 0.0
H236 H 0.68899 0.15835 0.57613 0.0
H237 H 0.68213 0.98773 0.69902 0.0
H238 H 0.5845 1.00389 0.68397 0.0
H239 H 0.6344 0.92841 0.66963 0.0
H240 H 0.39858 0.18256 0.65666 0.0
H241 H 0.36749 0.9641 0.61991 0.0
H242 H 0.56667 0.24147 0.64568 0.0
H243 H 0.62352 0.19071 0.66942 0.0
H244 H 0.53163 0.22534 0.68126 0.0
H245 H 0.58482 0.9543 0.60477 0.0
H246 H 0.4814 0.91633 0.59639 0.0
H247 H 0.52825 0.90547 0.63124 0.0
C248 C 0.72757 0.72678 -0.00028 0.0
C249 C 0.6927 0.77643 0.98316 0.0
C250 C 0.69257 0.65513 -0.00079 0.0
C251 C 0.62154 0.63256 0.98148 0.0
C252 C 0.58574 0.68249 0.96486 0.0
C253 C 0.62158 0.75394 0.96602 0.0
C254 C 0.73216 0.60346 0.01736 0.0
C255 C 0.51026 0.66018 0.94553 0.0
C256 C 0.57374 0.43438 0.95657 0.0
C257 C 0.51053 0.41329 0.97474 0.0
C258 C 0.61106 0.50548 0.95874 0.0
C259 C 0.58516 0.55641 0.97984 0.0
C260 C 0.52268 0.53517 -0.0013 0.0
C261 C 0.48568 0.46399 -0.00423 0.0
C262 C 0.67705 0.52644 0.93807 0.0
C263 C 0.494 0.58787 0.02165 0.0
H264 H 0.7833 0.74356 0.01263 0.0
H265 H 0.59391 0.79233 0.95345 0.0
H266 H 0.68696 0.57644 0.03139 0.0
H267 H 0.75521 0.56086 0.00277 0.0
H268 H 0.78371 0.63083 0.03156 0.0
H269 H 0.49029 0.70558 0.9339 0.0
H270 H 0.52176 0.61633 0.92901 0.0
H271 H 0.45981 0.63873 0.9588 0.0
H272 H 0.59394 0.39525 0.94055 0.0
H273 H 0.43594 0.44847 0.00955 0.0
H274 H 0.73382 0.54825 0.95065 0.0
H275 H 0.65869 0.56969 0.92484 0.0
H276 H 0.69025 0.48028 0.92295 0.0
H277 H 0.54634 0.6143 0.03564 0.0
H278 H 0.44869 0.56153 0.03586 0.0
H279 H 0.46599 0.63084 0.01091 0.0
C280 C 0.97724 0.55531 0.40733 0.0
C281 C 1.01175 0.49163 0.41093 0.0
C282 C 1.00146 0.617 0.42592 0.0
C283 C 1.06154 0.61352 0.44862 0.0
C284 C 0.07395 0.54464 0.45754 0.0
C285 C 1.05155 0.48373 0.43784 0.0
C286 C 0.97149 0.68649 0.41782 0.0
C287 C 0.11872 0.53605 0.48598 0.0
C288 C 0.22683 0.7208 0.41797 0.0
C289 C 0.18742 0.78309 0.41846 0.0
C290 C 0.1984 0.66445 0.43452 0.0
C291 C 0.13019 0.67289 0.45209 0.0
C292 C 0.11321 0.74397 0.46027 0.0
C293 C 0.13937 0.7988 0.44228 0.0
C294 C 0.23227 0.59334 0.42862 0.0
C295 C 1.05873 0.75992 0.48505 0.0
H296 H 0.93994 0.55943 0.38775 0.0
H297 H 0.07317 0.43277 0.44211 0.0
H298 H 0.95617 0.71917 0.43758 0.0
H299 H 1.01878 0.71772 0.40602 0.0
H300 H 0.9161 0.67665 0.40312 0.0
H301 H 0.16535 0.49815 0.48256 0.0
H302 H 0.14739 0.58826 0.49663 0.0
H303 H 0.07479 0.51185 0.50117 0.0
H304 H 0.26993 0.71144 0.40116 0.0
H305 H 0.11314 0.84936 0.44442 0.0
H306 H 0.18992 0.5568 0.41356 0.0
H307 H 0.24139 0.56778 0.44928 0.0
H308 H 0.29179 0.59999 0.41812 0.0
H309 H 1.01365 0.79624 0.47856 0.0
H310 H 0.09652 0.78899 0.5036 0.0
H311 H 1.02707 0.71014 0.49289 0.0
C312 C 0.13227 0.14241 0.20614 0.0
C313 C 0.07351 0.09221 0.21676 0.0
C314 C 0.13957 0.14883 0.17567 0.0
C315 C 0.08733 0.10376 0.15504 0.0
C316 C 1.02687 1.05416 0.16578 0.0
C317 C 1.02055 1.04928 0.19625 0.0
C318 C 0.20454 0.2029 0.16551 0.0
C319 C 0.97 1.00447 0.145 0.0
C320 C 0.06614 0.14553 0.07397 0.0
C321 C 0.11752 0.09943 0.06025 0.0
C322 C 1.05653 0.14851 0.1047 0.0
C323 C 0.09921 0.10445 0.12237 0.0
C324 C 0.1515 1.05835 0.10851 0.0
C325 C 0.15979 1.05638 0.07792 0.0
C326 C 1.0 0.19839 0.11826 0.0
C327 C 0.19829 1.01012 0.12602 0.0
H328 H 0.17334 0.17612 0.22164 0.0
H329 H 0.97465 1.01043 0.20403 0.0
H330 H 0.24995 0.17429 0.15338 0.0
H331 H 0.17758 0.23778 0.1502 0.0
H332 H 0.23641 0.23754 0.18405 0.0
H333 H 0.9236 0.97152 0.15665 0.0
H334 H 0.93852 1.03606 0.12953 0.0
H335 H 1.00525 0.96759 0.13177 0.0
H336 H 1.03304 0.17897 0.06066 0.0
H337 H 0.19968 1.02044 0.06775 0.0
H338 H 1.03298 0.23525 0.13586 0.0
H339 H 0.94981 0.16661 0.12852 0.0
H340 H 0.97346 0.2311 0.10193 0.0
H341 H 0.23646 1.04281 0.14357 0.0
H342 H 0.2381 0.97873 0.11223 0.0
H343 H 0.15543 0.97187 0.1368 0.0
C344 C 0.16076 0.15406 0.41653 0.0
C345 C 0.10947 0.11131 0.39547 0.0
C346 C 0.15746 0.14366 0.4467 0.0
C347 C 0.102 0.08844 0.45652 0.0
C348 C 1.05039 1.04457 0.4353 0.0
C349 C 1.05417 1.0569 0.4052 0.0
C350 C 0.21415 0.19168 0.46811 0.0
C351 C 0.99151 0.98407 0.44441 0.0
C352 C 0.15353 1.01918 0.53104 0.0
C353 C 0.10352 1.05483 0.55017 0.0
C354 C 0.15249 1.02852 0.50074 0.0
C355 C 0.10047 1.07531 0.48877 0.0
C356 C 1.04954 0.1114 0.50798 0.0
C357 C 1.05164 0.10081 0.5383 0.0
C358 C 0.209 0.98931 0.48175 0.0
C359 C 0.9932 0.16186 0.49648 0.0
H360 H 0.20384 0.19626 0.40943 0.0
H361 H 1.01446 1.02329 0.38922 0.0
H362 H 0.1789 0.21825 0.48514 0.0
H363 H 0.25538 0.15878 0.47942 0.0
H364 H 0.25157 0.23394 0.45726 0.0
H365 H 0.95953 0.95167 0.42532 0.0
H366 H 1.02394 0.94784 0.45757 0.0
H367 H 0.94568 1.00653 0.45851 0.0
H368 H 0.19421 0.98373 0.53981 0.0
H369 H 1.01269 0.12867 0.55275 0.0
H370 H 0.26254 1.02724 0.4774 0.0
H371 H 0.17893 0.96897 0.46034 0.0
H372 H 0.23083 0.94325 0.49243 0.0
H373 H 1.02895 0.20686 0.4867 0.0
H374 H 0.95614 0.18471 0.5139 0.0
H375 H 0.95179 0.133 0.47889 0.0
C376 C 1.01377 0.08345 0.74031 0.0
C377 C 0.08585 0.08811 0.725 0.0
C378 C 1.01429 0.07823 0.77092 0.0
C379 C 0.0891 0.08084 0.78721 0.0
C380 C 0.16223 0.0848 0.77173 0.0
C381 C 0.15963 0.08703 0.74084 0.0
C382 C 0.93442 1.07149 0.78589 0.0
C383 C 0.24363 0.09023 0.78793 0.0
C384 C 0.08143 0.15431 0.86757 0.0
C385 C 0.08087 0.09212 0.88289 0.0
C386 C 0.08773 0.15163 0.83685 0.0
C387 C 0.09044 0.08456 0.82043 0.0
C388 C 0.09033 1.0214 0.83584 0.0
C389 C 0.08702 1.02609 0.86683 0.0
C390 C 0.09029 0.22089 0.82191 0.0
C391 C 0.09036 0.94839 0.81949 0.0
H392 H 0.95648 0.08404 0.72825 0.0
H393 H 0.21571 0.09153 0.72927 0.0
H394 H 0.93203 1.02674 0.80049 0.0
H395 H 0.92855 0.12171 0.79975 0.0
H396 H 0.88166 1.06157 0.76997 0.0
H397 H 0.29464 0.08945 0.77283 0.0
H398 H 0.25263 0.14111 0.80233 0.0
H399 H 0.24579 1.04527 0.80223 0.0
H400 H 0.07704 0.20563 0.87973 0.0
H401 H 0.08576 0.97761 0.87838 0.0
H402 H 1.03413 0.22088 0.80807 0.0
H403 H 0.14234 0.22544 0.80729 0.0
H404 H 0.09576 0.26911 0.83784 0.0
H405 H 1.03455 0.93646 0.80513 0.0
H406 H 0.09282 0.90474 0.8345 0.0
H407 H 0.14289 0.94809 0.80514 0.0
loop_
_geom_bond_atom_site_label_1
_geom_bond_atom_site_label_2
_geom_bond_distance
_geom_bond_site_symmetry_2
_ccdc_geom_bond_type
Ho0 C3 2.811 . S
Ho0 O20 2.322 . S
Ho0 O22 2.378 . S
Ho0 O23 2.524 1_554 S
Ho0 O24 2.381 . S
Ho0 O25 2.669 1_455 S
Ho0 O27 2.346 1_545 S
Ho0 O31 2.305 1_554 S
Ho1 C12 2.811 1_556 S
Ho1 O21 2.346 1_565 S
Ho1 O25 2.305 1_566 S
Ho1 O26 2.322 . S
Ho1 O28 2.378 . S
Ho1 O29 2.524 1_556 S
Ho1 O30 2.381 . S
Ho1 O31 2.669 1_665 S
C2 O20 1.259 1_655 S
C2 O21 1.268 1_554 S
C3 Ho0 2.811 . S
C3 C4 1.488 . S
C3 O22 1.215 . S
C3 O23 1.289 1_554 S
C4 C3 1.488 . S
C4 C5 1.348 1_554 S
C4 C9 1.413 . S
C5 C4 1.348 1_556 S
C5 C6 1.442 . S
C5 H32 0.930 . S
C6 C5 1.442 . S
C6 C7 1.381 1_556 S
C6 H33 0.931 . S
C7 C6 1.381 1_554 S
C7 C8 1.321 . S
C8 C7 1.321 . S
C8 C9 1.403 . S
C8 H34 0.934 . S
C9 C4 1.413 . S
C9 C8 1.403 . S
C9 H35 0.930 . S
C10 O24 1.275 . S
C10 O25 1.256 1_455 S
C11 O26 1.259 1_455 S
C11 O27 1.268 1_556 S
C12 Ho1 2.811 1_554 S
C12 C13 1.488 . S
C12 O28 1.215 1_554 S
C12 O29 1.289 . S
C13 C12 1.488 . S
C13 C14 1.348 . S
C13 C18 1.413 1_554 S
C14 C13 1.348 . S
C14 C15 1.442 . S
C14 H36 0.930 . S
C15 C14 1.442 . S
C15 C16 1.381 . S
C15 H37 0.931 . S
C16 C15 1.381 . S
C16 C17 1.321 1_554 S
C17 C16 1.321 1_556 S
C17 C18 1.403 . S
C17 H38 0.934 . S
C18 C13 1.413 1_556 S
C18 C17 1.403 . S
C18 H39 0.930 . S
C19 O30 1.275 1_545 S
C19 O31 1.256 1_655 S
O20 Ho0 2.322 . S
O20 C2 1.259 1_455 S
O21 Ho1 2.346 1_545 S
O21 C2 1.268 1_556 S
O22 Ho0 2.378 . S
O22 C3 1.215 . S
O23 Ho0 2.524 1_556 S
O23 C3 1.289 1_556 S
O24 Ho0 2.381 . S
O24 C10 1.275 . S
O25 Ho0 2.669 1_655 S
O25 Ho1 2.305 1_544 S
O25 C10 1.256 1_655 S
O26 Ho1 2.322 . S
O26 C11 1.259 1_655 S
O27 Ho0 2.346 1_565 S
O27 C11 1.268 1_554 S
O28 Ho1 2.378 . S
O28 C12 1.215 1_556 S
O29 Ho1 2.524 1_554 S
O29 C12 1.289 . S
O30 Ho1 2.381 . S
O30 C19 1.275 1_565 S
O31 Ho0 2.305 1_556 S
O31 Ho1 2.669 1_445 S
O31 C19 1.256 1_455 S
H32 C5 0.930 . S
H33 C6 0.931 . S
H34 C8 0.934 . S
H35 C9 0.930 . S
H36 C14 0.930 . S
H37 C15 0.931 . S
H38 C17 0.934 . S
H39 C18 0.930 . S
Ho40 C43 2.811 . S
Ho40 O60 2.322 1_455 S
Ho40 O62 2.378 . S
Ho40 O63 2.524 . S
Ho40 O64 2.381 . S
Ho40 O65 2.669 . S
Ho40 O67 2.346 . S
Ho40 O71 2.305 . S
Ho41 C52 2.811 1_655 S
Ho41 O61 2.346 . S
Ho41 O65 2.305 1_665 S
Ho41 O66 2.322 1_655 S
Ho41 O68 2.378 1_655 S
Ho41 O69 2.524 1_655 S
Ho41 O70 2.381 1_655 S
Ho41 O71 2.669 1_665 S
C42 O60 1.259 . S
C42 O61 1.268 1_545 S
C43 Ho40 2.811 . S
C43 C44 1.488 1_455 S
C43 O62 1.215 . S
C43 O63 1.289 . S
C44 C43 1.488 1_655 S
C44 C45 1.348 . S
C44 C49 1.413 1_655 S
C45 C44 1.348 . S
C45 C46 1.442 . S
C45 H72 0.930 . S
C46 C45 1.442 . S
C46 C47 1.381 . S
C46 H73 0.931 . S
C47 C46 1.381 . S
C47 C48 1.321 . S
C48 C47 1.321 . S
C48 C49 1.403 1_655 S
C48 H74 0.934 . S
C49 C44 1.413 1_455 S
C49 C48 1.403 1_455 S
C49 H75 0.930 . S
C50 O64 1.275 . S
C50 O65 1.256 . S
C51 O66 1.259 1_545 S
C51 O67 1.268 . S
C52 Ho41 2.811 1_455 S
C52 C53 1.488 . S
C52 O68 1.215 . S
C52 O69 1.289 . S
C53 C52 1.488 . S
C53 C54 1.348 . S
C53 C58 1.413 . S
C54 C53 1.348 . S
C54 C55 1.442 . S
C54 H76 0.930 . S
C55 C54 1.442 . S
C55 C56 1.381 . S
C55 H77 0.931 . S
C56 C55 1.381 . S
C56 C57 1.321 . S
C57 C56 1.321 . S
C57 C58 1.403 . S
C57 H78 0.934 . S
C58 C53 1.413 . S
C58 C57 1.403 . S
C58 H79 0.930 . S
C59 O70 1.275 1_545 S
C59 O71 1.256 . S
O60 Ho40 2.322 1_655 S
O60 C42 1.259 . S
O61 Ho41 2.346 . S
O61 C42 1.268 1_565 S
O62 Ho40 2.378 . S
O62 C43 1.215 . S
O63 Ho40 2.524 . S
O63 C43 1.289 . S
O64 Ho40 2.381 . S
O64 C50 1.275 . S
O65 Ho40 2.669 . S
O65 Ho41 2.305 1_445 S
O65 C50 1.256 . S
O66 Ho41 2.322 1_455 S
O66 C51 1.259 1_565 S
O67 Ho40 2.346 . S
O67 C51 1.268 . S
O68 Ho41 2.378 1_455 S
O68 C52 1.215 . S
O69 Ho41 2.524 1_455 S
O69 C52 1.289 . S
O70 Ho41 2.381 1_455 S
O70 C59 1.275 1_565 S
O71 Ho40 2.305 . S
O71 Ho41 2.669 1_445 S
O71 C59 1.256 . S
H72 C45 0.930 . S
H73 C46 0.931 . S
H74 C48 0.934 . S
H75 C49 0.930 . S
H76 C54 0.930 . S
H77 C55 0.931 . S
H78 C57 0.934 . S
H79 C58 0.930 . S
Ho80 C83 2.811 1_455 S
Ho80 O100 2.322 1_455 S
Ho80 O102 2.378 1_455 S
Ho80 O103 2.524 1_455 S
Ho80 O104 2.381 . S
Ho80 O105 2.669 1_565 S
Ho80 O107 2.346 . S
Ho80 O111 2.305 . S
Ho81 C92 2.811 . S
Ho81 O101 2.346 1_455 S
Ho81 O105 2.305 . S
Ho81 O106 2.322 . S
Ho81 O108 2.378 . S
Ho81 O109 2.524 . S
Ho81 O110 2.381 . S
Ho81 O111 2.669 1_545 S
C82 O100 1.259 1_545 S
C82 O101 1.268 . S
C83 Ho80 2.811 1_655 S
C83 C84 1.488 . S
C83 O102 1.215 . S
C83 O103 1.289 . S
C84 C83 1.488 . S
C84 C85 1.348 . S
C84 C89 1.413 . S
C85 C84 1.348 . S
C85 C86 1.442 . S
C85 H112 0.930 . S
C86 C85 1.442 . S
C86 C87 1.381 . S
C86 H113 0.931 . S
C87 C86 1.381 . S
C87 C88 1.321 . S
C88 C87 1.321 . S
C88 C89 1.403 . S
C88 H114 0.934 . S
C89 C84 1.413 . S
C89 C88 1.403 . S
C89 H115 0.930 . S
C90 O104 1.275 . S
C90 O105 1.256 1_565 S
C91 O106 1.259 . S
C91 O107 1.268 1_545 S
C92 Ho81 2.811 . S
C92 C93 1.488 . S
C92 O108 1.215 . S
C92 O109 1.289 . S
C93 C92 1.488 . S
C93 C94 1.348 . S
C93 C98 1.413 . S
C94 C93 1.348 . S
C94 C95 1.442 . S
C94 H116 0.930 . S
C95 C94 1.442 . S
C95 C96 1.381 . S
C95 H117 0.931 . S
C96 C95 1.381 . S
C96 C97 1.321 . S
C97 C96 1.321 . S
C97 C98 1.403 . S
C97 H118 0.934 . S
C98 C93 1.413 . S
C98 C97 1.403 . S
C98 H119 0.930 . S
C99 O110 1.275 . S
C99 O111 1.256 1_545 S
O100 Ho80 2.322 1_655 S
O100 C82 1.259 1_565 S
O101 Ho81 2.346 1_655 S
O101 C82 1.268 . S
O102 Ho80 2.378 1_655 S
O102 C83 1.215 . S
O103 Ho80 2.524 1_655 S
O103 C83 1.289 . S
O104 Ho80 2.381 . S
O104 C90 1.275 . S
O105 Ho80 2.669 1_545 S
O105 Ho81 2.305 . S
O105 C90 1.256 1_545 S
O106 Ho81 2.322 . S
O106 C91 1.259 . S
O107 Ho80 2.346 . S
O107 C91 1.268 1_565 S
O108 Ho81 2.378 . S
O108 C92 1.215 . S
O109 Ho81 2.524 . S
O109 C92 1.289 . S
O110 Ho81 2.381 . S
O110 C99 1.275 . S
O111 Ho80 2.305 . S
O111 Ho81 2.669 1_565 S
O111 C99 1.256 1_565 S
H112 C85 0.930 . S
H113 C86 0.931 . S
H114 C88 0.934 . S
H115 C89 0.930 . S
H116 C94 0.930 . S
H117 C95 0.931 . S
H118 C97 0.934 . S
H119 C98 0.930 . S
C120 C121 1.391 . S
C120 C122 1.394 . S
C120 H136 0.931 . S
C121 C120 1.391 . S
C121 C125 1.376 1_454 S
C122 C120 1.394 . S
C122 C123 1.369 . S
C122 C126 1.531 . S
C123 C122 1.369 . S
C123 C124 1.409 1_454 S
C123 C131 1.503 . S
C124 C123 1.409 1_656 S
C124 C125 1.392 . S
C124 C127 1.512 . S
C125 C121 1.376 1_656 S
C125 C124 1.392 . S
C125 H137 0.929 . S
C126 C122 1.531 . S
C126 H138 0.960 . S
C126 H139 0.962 . S
C126 H140 0.960 . S
C127 C124 1.512 . S
C127 H141 0.961 . S
C127 H142 0.961 . S
C127 H143 0.961 1_655 S
C128 C129 1.370 1_655 S
C128 C130 1.363 . S
C128 H144 0.931 . S
C129 C128 1.370 1_455 S
C129 C133 1.408 1_554 S
C130 C128 1.363 . S
C130 C131 1.370 1_655 S
C130 C134 1.524 . S
C131 C123 1.503 . S
C131 C130 1.370 1_455 S
C131 C132 1.403 1_554 S
C132 C131 1.403 1_556 S
C132 C133 1.404 . S
C132 C135 1.539 . S
C133 C129 1.408 1_556 S
C133 C132 1.404 . S
C133 H145 0.930 . S
C134 C130 1.524 . S
C134 H146 0.956 . S
C134 H147 0.949 1_554 S
C134 H148 0.961 . S
C135 C132 1.539 . S
C135 H149 0.958 1_556 S
C135 H150 0.961 . S
C135 H151 0.960 . S
H136 C120 0.931 . S
H137 C125 0.929 . S
H138 C126 0.960 . S
H139 C126 0.962 . S
H140 C126 0.960 . S
H141 C127 0.961 . S
H142 C127 0.961 . S
H143 C127 0.961 1_455 S
H144 C128 0.931 . S
H145 C133 0.930 . S
H146 C134 0.956 . S
H147 C134 0.949 1_556 S
H148 C134 0.961 . S
H149 C135 0.958 1_554 S
H150 C135 0.961 . S
H151 C135 0.960 . S
C152 C153 1.391 1_565 S
C152 C154 1.394 . S
C152 H168 0.931 . S
C153 C152 1.391 1_545 S
C153 C157 1.376 . S
C154 C152 1.394 . S
C154 C155 1.369 1_565 S
C154 C158 1.531 . S
C155 C154 1.369 1_545 S
C155 C156 1.410 . S
C155 C163 1.503 . S
C156 C155 1.410 . S
C156 C157 1.392 . S
C156 C159 1.511 . S
C157 C153 1.376 . S
C157 C156 1.392 . S
C157 H169 0.929 . S
C158 C154 1.531 . S
C158 H170 0.960 . S
C158 H171 0.962 . S
C158 H172 0.960 . S
C159 C156 1.511 . S
C159 H173 0.961 . S
C159 H174 0.961 . S
C159 H175 0.961 . S
C160 C161 1.370 . S
C160 C162 1.363 . S
C160 H176 0.931 . S
C161 C160 1.370 . S
C161 C165 1.408 . S
C162 C160 1.363 . S
C162 C163 1.370 . S
C162 C166 1.524 1_545 S
C163 C155 1.503 . S
C163 C162 1.370 . S
C163 C164 1.403 . S
C164 C163 1.403 . S
C164 C165 1.404 . S
C164 C167 1.539 . S
C165 C161 1.408 . S
C165 C164 1.404 . S
C165 H177 0.930 . S
C166 C162 1.524 1_565 S
C166 H178 0.956 . S
C166 H179 0.961 1_565 S
C166 H180 0.961 . S
C167 C164 1.539 . S
C167 H181 0.958 . S
C167 H182 0.961 . S
C167 H183 0.960 . S
H168 C152 0.931 . S
H169 C157 0.929 . S
H170 C158 0.960 . S
H171 C158 0.962 . S
H172 C158 0.960 . S
H173 C159 0.961 . S
H174 C159 0.961 . S
H175 C159 0.961 . S
H176 C160 0.931 . S
H177 C165 0.930 . S
H178 C166 0.956 . S
H179 C166 0.961 1_545 S
H180 C166 0.961 . S
H181 C167 0.958 . S
H182 C167 0.961 . S
H183 C167 0.960 . S
C184 C185 1.391 . S
C184 C186 1.394 . S
C184 H200 0.931 . S
C185 C184 1.391 . S
C185 C189 1.376 . S
C186 C184 1.394 . S
C186 C187 1.369 . S
C186 C190 1.531 . S
C187 C186 1.369 . S
C187 C188 1.410 . S
C187 C195 1.503 . S
C188 C187 1.410 . S
C188 C189 1.392 . S
C188 C191 1.511 . S
C189 C185 1.376 . S
C189 C188 1.392 . S
C189 H201 0.929 . S
C190 C186 1.531 . S
C190 H202 0.960 . S
C190 H203 0.962 . S
C190 H204 0.960 . S
C191 C188 1.511 . S
C191 H205 0.961 . S
C191 H206 0.961 . S
C191 H207 0.961 . S
C192 C193 1.370 . S
C192 C194 1.363 . S
C192 H208 0.931 . S
C193 C192 1.370 . S
C193 C197 1.408 . S
C194 C192 1.363 . S
C194 C195 1.370 . S
C194 C198 1.524 . S
C195 C187 1.503 . S
C195 C194 1.370 . S
C195 C196 1.403 . S
C196 C195 1.403 . S
C196 C197 1.404 . S
C196 C199 1.539 . S
C197 C193 1.408 . S
C197 C196 1.404 . S
C197 H209 0.930 . S
C198 C194 1.524 . S
C198 H210 0.956 . S
C198 H211 0.961 . S
C198 H212 0.961 . S
C199 C196 1.539 . S
C199 H213 0.958 . S
C199 H214 0.961 . S
C199 H215 0.960 . S
H200 C184 0.931 . S
H201 C189 0.929 . S
H202 C190 0.960 . S
H203 C190 0.962 . S
H204 C190 0.960 . S
H205 C191 0.961 . S
H206 C191 0.961 . S
H207 C191 0.961 . S
H208 C192 0.931 . S
H209 C197 0.930 . S
H210 C198 0.956 . S
H211 C198 0.961 . S
H212 C198 0.961 . S
H213 C199 0.958 . S
H214 C199 0.961 . S
H215 C199 0.960 . S
C216 C217 1.392 1_565 S
C216 C218 1.394 . S
C216 H232 0.931 . S
C217 C216 1.392 1_545 S
C217 C221 1.376 . S
C218 C216 1.394 . S
C218 C219 1.369 . S
C218 C222 1.531 . S
C219 C218 1.369 . S
C219 C220 1.408 . S
C219 C227 1.503 1_565 S
C220 C219 1.408 . S
C220 C221 1.395 1_565 S
C220 C223 1.510 1_565 S
C221 C217 1.376 . S
C221 C220 1.395 1_545 S
C221 H233 0.929 . S
C222 C218 1.531 . S
C222 H234 0.960 . S
C222 H235 0.962 1_565 S
C222 H236 0.960 . S
C223 C220 1.510 1_545 S
C223 H237 0.961 . S
C223 H238 0.961 . S
C223 H239 0.961 1_545 S
C224 C225 1.370 . S
C224 C226 1.363 . S
C224 H240 0.931 . S
C225 C224 1.370 . S
C225 C229 1.408 1_545 S
C226 C224 1.363 . S
C226 C227 1.370 . S
C226 C230 1.524 . S
C227 C219 1.503 1_545 S
C227 C226 1.370 . S
C227 C228 1.403 1_545 S
C228 C227 1.403 1_565 S
C228 C229 1.404 . S
C228 C231 1.539 . S
C229 C225 1.408 1_565 S
C229 C228 1.404 . S
C229 H241 0.930 . S
C230 C226 1.524 . S
C230 H242 0.956 . S
C230 H243 0.961 . S
C230 H244 0.961 . S
C231 C228 1.539 . S
C231 H245 0.958 . S
C231 H246 0.961 . S
C231 H247 0.960 . S
H232 C216 0.931 . S
H233 C221 0.929 . S
H234 C222 0.960 . S
H235 C222 0.962 1_545 S
H236 C222 0.960 . S
H237 C223 0.961 . S
H238 C223 0.961 . S
H239 C223 0.961 1_565 S
H240 C224 0.931 . S
H241 C229 0.930 . S
H242 C230 0.956 . S
H243 C230 0.961 . S
H244 C230 0.961 . S
H245 C231 0.958 . S
H246 C231 0.961 . S
H247 C231 0.960 . S
C248 C249 1.391 . S
C248 C250 1.394 . S
C248 H264 0.931 . S
C249 C248 1.391 . S
C249 C253 1.376 1_554 S
C250 C248 1.394 . S
C250 C251 1.369 . S
C250 C254 1.531 . S
C251 C250 1.369 . S
C251 C252 1.410 1_554 S
C251 C259 1.503 . S
C252 C251 1.410 1_556 S
C252 C253 1.392 . S
C252 C255 1.511 . S
C253 C249 1.376 1_556 S
C253 C252 1.392 . S
C253 H265 0.929 . S
C254 C250 1.531 . S
C254 H266 0.960 . S
C254 H267 0.962 . S
C254 H268 0.960 . S
C255 C252 1.511 . S
C255 H269 0.961 . S
C255 H270 0.961 . S
C255 H271 0.961 . S
C256 C257 1.370 1_556 S
C256 C258 1.363 . S
C256 H272 0.931 . S
C257 C256 1.370 1_554 S
C257 C261 1.408 . S
C258 C256 1.363 . S
C258 C259 1.370 1_556 S
C258 C262 1.524 . S
C259 C251 1.503 . S
C259 C258 1.370 1_554 S
C259 C260 1.403 . S
C260 C259 1.403 . S
C260 C261 1.404 . S
C260 C263 1.539 . S
C261 C257 1.408 . S
C261 C260 1.404 . S
C261 H273 0.930 . S
C262 C258 1.524 . S
C262 H274 0.956 . S
C262 H275 0.961 . S
C262 H276 0.961 . S
C263 C260 1.539 . S
C263 H277 0.958 . S
C263 H278 0.961 . S
C263 H279 0.960 . S
H264 C248 0.931 . S
H265 C253 0.929 . S
H266 C254 0.960 . S
H267 C254 0.962 . S
H268 C254 0.960 . S
H269 C255 0.961 . S
H270 C255 0.961 . S
H271 C255 0.961 . S
H272 C256 0.931 . S
H273 C261 0.930 . S
H274 C262 0.956 . S
H275 C262 0.961 . S
H276 C262 0.961 . S
H277 C263 0.958 . S
H278 C263 0.961 . S
H279 C263 0.960 . S
C280 C281 1.391 . S
C280 C282 1.394 . S
C280 H296 0.931 . S
C281 C280 1.391 . S
C281 C285 1.376 . S
C282 C280 1.394 . S
C282 C283 1.359 1_655 S
C282 C286 1.531 . S
C283 C282 1.359 1_455 S
C283 C284 1.414 . S
C283 C291 1.510 . S
C284 C283 1.414 . S
C284 C285 1.392 1_455 S
C284 C287 1.511 . S
C285 C281 1.376 . S
C285 C284 1.392 1_655 S
C285 H297 0.929 . S
C286 C282 1.531 . S
C286 H298 0.960 . S
C286 H299 0.962 . S
C286 H300 0.960 . S
C287 C284 1.511 . S
C287 H301 0.961 . S
C287 H302 0.961 . S
C287 H303 0.961 . S
C288 C289 1.370 . S
C288 C290 1.363 . S
C288 H304 0.931 . S
C289 C288 1.370 . S
C289 C293 1.408 . S
C290 C288 1.363 . S
C290 C291 1.370 . S
C290 C294 1.524 . S
C291 C283 1.510 . S
C291 C290 1.370 . S
C291 C292 1.403 . S
C292 C291 1.403 . S
C292 C293 1.404 . S
C292 C295 1.539 . S
C293 C289 1.408 . S
C293 C292 1.404 . S
C293 H305 0.930 . S
C294 C290 1.524 . S
C294 H306 0.956 . S
C294 H307 0.961 . S
C294 H308 0.961 . S
C295 C292 1.539 . S
C295 H309 0.958 1_455 S
C295 H310 0.961 . S
C295 H311 0.960 1_455 S
H296 C280 0.931 . S
H297 C285 0.929 . S
H298 C286 0.960 . S
H299 C286 0.962 . S
H300 C286 0.960 . S
H301 C287 0.961 . S
H302 C287 0.961 . S
H303 C287 0.961 . S
H304 C288 0.931 . S
H305 C293 0.930 . S
H306 C294 0.956 . S
H307 C294 0.961 . S
H308 C294 0.961 . S
H309 C295 0.958 1_655 S
H310 C295 0.961 . S
H311 C295 0.960 1_655 S
C312 C313 1.391 1_655 S
C312 C314 1.394 . S
C312 H328 0.931 . S
C313 C312 1.391 1_455 S
C313 C317 1.376 . S
C314 C312 1.394 . S
C314 C315 1.369 1_655 S
C314 C318 1.531 . S
C315 C314 1.369 1_455 S
C315 C316 1.410 . S
C315 C323 1.503 . S
C316 C315 1.410 . S
C316 C317 1.392 . S
C316 C319 1.511 . S
C317 C313 1.376 . S
C317 C316 1.392 . S
C317 H329 0.929 . S
C318 C314 1.531 . S
C318 H330 0.960 . S
C318 H331 0.962 . S
C318 H332 0.960 . S
C319 C316 1.511 . S
C319 H333 0.961 1_545 S
C319 H334 0.961 1_545 S
C319 H335 0.961 . S
C320 C321 1.370 1_665 S
C320 C322 1.363 . S
C320 H336 0.931 . S
C321 C320 1.370 1_445 S
C321 C325 1.408 . S
C322 C320 1.363 . S
C322 C323 1.370 1_665 S
C322 C326 1.524 . S
C323 C315 1.503 . S
C323 C322 1.370 1_445 S
C323 C324 1.403 . S
C324 C323 1.403 . S
C324 C325 1.404 . S
C324 C327 1.539 . S
C325 C321 1.408 . S
C325 C324 1.404 . S
C325 H337 0.930 . S
C326 C322 1.524 . S
C326 H338 0.956 . S
C326 H339 0.961 . S
C326 H340 0.961 . S
C327 C324 1.539 . S
C327 H341 0.958 . S
C327 H342 0.961 . S
C327 H343 0.960 . S
H328 C312 0.931 . S
H329 C317 0.929 . S
H330 C318 0.960 . S
H331 C318 0.962 . S
H332 C318 0.960 . S
H333 C319 0.961 1_565 S
H334 C319 0.961 1_565 S
H335 C319 0.961 . S
H336 C320 0.931 . S
H337 C325 0.930 . S
H338 C326 0.956 . S
H339 C326 0.961 . S
H340 C326 0.961 . S
H341 C327 0.958 . S
H342 C327 0.961 . S
H343 C327 0.960 . S
C344 C345 1.391 . S
C344 C346 1.394 . S
C344 H360 0.931 . S
C345 C344 1.391 . S
C345 C349 1.376 1_455 S
C346 C344 1.394 . S
C346 C347 1.369 . S
C346 C350 1.531 . S
C347 C346 1.369 . S
C347 C348 1.410 1_455 S
C347 C355 1.503 . S
C348 C347 1.410 1_655 S
C348 C349 1.392 . S
C348 C351 1.511 . S
C349 C345 1.376 1_655 S
C349 C348 1.392 . S
C349 H361 0.929 . S
C350 C346 1.531 . S
C350 H362 0.960 . S
C350 H363 0.962 . S
C350 H364 0.960 . S
C351 C348 1.511 . S
C351 H365 0.961 1_545 S
C351 H366 0.961 1_545 S
C351 H367 0.961 . S
C352 C353 1.370 1_565 S
C352 C354 1.363 . S
C352 H368 0.931 . S
C353 C352 1.370 1_545 S
C353 C357 1.408 . S
C354 C352 1.363 . S
C354 C355 1.370 1_565 S
C354 C358 1.524 . S
C355 C347 1.503 . S
C355 C354 1.370 1_545 S
C355 C356 1.403 . S
C356 C355 1.403 . S
C356 C357 1.404 . S
C356 C359 1.539 . S
C357 C353 1.408 . S
C357 C356 1.404 . S
C357 H369 0.930 . S
C358 C354 1.524 . S
C358 H370 0.956 . S
C358 H371 0.961 . S
C358 H372 0.961 . S
C359 C356 1.539 . S
C359 H373 0.958 . S
C359 H374 0.961 . S
C359 H375 0.960 . S
H360 C344 0.931 . S
H361 C349 0.929 . S
H362 C350 0.960 . S
H363 C350 0.962 . S
H364 C350 0.960 . S
H365 C351 0.961 1_565 S
H366 C351 0.961 1_565 S
H367 C351 0.961 . S
H368 C352 0.931 . S
H369 C357 0.930 . S
H370 C358 0.956 . S
H371 C358 0.961 . S
H372 C358 0.961 . S
H373 C359 0.958 . S
H374 C359 0.961 . S
H375 C359 0.960 . S
C376 C377 1.391 1_665 S
C376 C378 1.394 . S
C376 H392 0.931 . S
C377 C376 1.391 1_445 S
C377 C381 1.376 . S
C378 C376 1.394 . S
C378 C379 1.369 1_665 S
C378 C382 1.531 . S
C379 C378 1.369 1_445 S
C379 C380 1.410 . S
C379 C387 1.503 . S
C380 C379 1.410 . S
C380 C381 1.392 . S
C380 C383 1.511 . S
C381 C377 1.376 . S
C381 C380 1.392 . S
C381 H393 0.929 . S
C382 C378 1.531 . S
C382 H394 0.960 . S
C382 H395 0.962 . S
C382 H396 0.960 . S
C383 C380 1.511 . S
C383 H397 0.961 . S
C383 H398 0.961 . S
C383 H399 0.961 . S
C384 C385 1.370 1_655 S
C384 C386 1.363 . S
C384 H400 0.931 . S
C385 C384 1.370 1_455 S
C385 C389 1.408 1_545 S
C386 C384 1.363 . S
C386 C387 1.370 1_655 S
C386 C390 1.524 . S
C387 C379 1.503 . S
C387 C386 1.370 1_455 S
C387 C388 1.403 1_545 S
C388 C387 1.403 1_565 S
C388 C389 1.404 . S
C388 C391 1.539 . S
C389 C385 1.408 1_565 S
C389 C388 1.404 . S
C389 H401 0.930 . S
C390 C386 1.524 . S
C390 H402 0.956 . S
C390 H403 0.961 . S
C390 H404 0.961 . S
C391 C388 1.539 . S
C391 H405 0.958 . S
C391 H406 0.961 . S
C391 H407 0.960 . S
H392 C376 0.931 . S
H393 C381 0.929 . S
H394 C382 0.960 . S
H395 C382 0.962 . S
H396 C382 0.960 . S
H397 C383 0.961 . S
H398 C383 0.961 . S
H399 C383 0.961 . S
H400 C384 0.931 . S
H401 C389 0.930 . S
H402 C390 0.956 . S
H403 C390 0.961 . S
H404 C390 0.961 . S
H405 C391 0.958 . S
H406 C391 0.961 . S
H407 C391 0.960 . S
C121 C2 4.878 1_455 S
C129 C11 4.883 1_554 S
C153 C51 3.042 . S
C161 C42 3.065 . S
C185 C87 0.564 . S
C193 C96 0.596 . S
C217 C82 2.993 . S
C225 C91 2.993 . S
C249 C16 0.679 . S
C257 C7 0.641 . S
C281 C47 0.860 . S
C289 C56 0.773 . S
C313 C59 1.488 . S
C321 C10 1.446 . S
C345 C50 1.447 . S
C353 C90 1.483 1_545 S
C377 C99 1.479 . S
C385 C19 1.482 1_455 S
