# Generated by pormake.
# Topology lcs, (4)-cn, num edge types: 1
# Building blocks:
#     Node 0, Type 0, BuildingBlock: NAHDIM_clean_sbu_0, # of connection points: 4
#     Node 1, Type 0, BuildingBlock: NAHDIM_clean_sbu_0, # of connection points: 4
#     Node 2, Type 0, BuildingBlock: NAHDIM_clean_sbu_0, # of connection points: 4
#     Node 3, Type 0, BuildingBlock: NAHDIM_clean_sbu_0, # of connection points: 4
#     Node 4, Type 0, BuildingBlock: NAHDIM_clean_sbu_0, # of connection points: 4
#     Node 5, Type 0, BuildingBlock: NAHDIM_clean_sbu_0, # of connection points: 4
#     Node 6, Type 0, BuildingBlock: NAHDIM_clean_sbu_0, # of connection points: 4
#     Node 7, Type 0, BuildingBlock: NAHDIM_clean_sbu_0, # of connection points: 4
#     Node 8, Type 0, BuildingBlock: NAHDIM_clean_sbu_0, # of connection points: 4
#     Node 9, Type 0, BuildingBlock: NAHDIM_clean_sbu_0, # of connection points: 4
#     Node 10, Type 0, BuildingBlock: NAHDIM_clean_sbu_0, # of connection points: 4
#     Node 11, Type 0, BuildingBlock: NAHDIM_clean_sbu_0, # of connection points: 4
#     Node 12, Type 0, BuildingBlock: NAHDIM_clean_sbu_0, # of connection points: 4
#     Node 13, Type 0, BuildingBlock: NAHDIM_clean_sbu_0, # of connection points: 4
#     Node 14, Type 0, BuildingBlock: NAHDIM_clean_sbu_0, # of connection points: 4
#     Node 15, Type 0, BuildingBlock: NAHDIM_clean_sbu_0, # of connection points: 4
#     Node 16, Type 0, BuildingBlock: NAHDIM_clean_sbu_0, # of connection points: 4
#     Node 17, Type 0, BuildingBlock: NAHDIM_clean_sbu_0, # of connection points: 4
#     Node 18, Type 0, BuildingBlock: NAHDIM_clean_sbu_0, # of connection points: 4
#     Node 19, Type 0, BuildingBlock: NAHDIM_clean_sbu_0, # of connection points: 4
#     Node 20, Type 0, BuildingBlock: NAHDIM_clean_sbu_0, # of connection points: 4
#     Node 21, Type 0, BuildingBlock: NAHDIM_clean_sbu_0, # of connection points: 4
#     Node 22, Type 0, BuildingBlock: NAHDIM_clean_sbu_0, # of connection points: 4
#     Node 23, Type 0, BuildingBlock: NAHDIM_clean_sbu_0, # of connection points: 4
#     Edge 24, Type (0, 0), BuildingBlock: XUDNAN_clean_linker_2, # of connection points: 2
#     Edge 25, Type (0, 0), BuildingBlock: XUDNAN_clean_linker_2, # of connection points: 2
#     Edge 26, Type (0, 0), BuildingBlock: XUDNAN_clean_linker_2, # of connection points: 2
#     Edge 27, Type (0, 0), BuildingBlock: XUDNAN_clean_linker_2, # of connection points: 2
#     Edge 28, Type (0, 0), BuildingBlock: XUDNAN_clean_linker_2, # of connection points: 2
#     Edge 29, Type (0, 0), BuildingBlock: XUDNAN_clean_linker_2, # of connection points: 2
#     Edge 30, Type (0, 0), BuildingBlock: XUDNAN_clean_linker_2, # of connection points: 2
#     Edge 31, Type (0, 0), BuildingBlock: XUDNAN_clean_linker_2, # of connection points: 2
#     Edge 32, Type (0, 0), BuildingBlock: XUDNAN_clean_linker_2, # of connection points: 2
#     Edge 33, Type (0, 0), BuildingBlock: XUDNAN_clean_linker_2, # of connection points: 2
#     Edge 34, Type (0, 0), BuildingBlock: XUDNAN_clean_linker_2, # of connection points: 2
#     Edge 35, Type (0, 0), BuildingBlock: XUDNAN_clean_linker_2, # of connection points: 2
#     Edge 36, Type (0, 0), BuildingBlock: XUDNAN_clean_linker_2, # of connection points: 2
#     Edge 37, Type (0, 0), BuildingBlock: XUDNAN_clean_linker_2, # of connection points: 2
#     Edge 38, Type (0, 0), BuildingBlock: XUDNAN_clean_linker_2, # of connection points: 2
#     Edge 39, Type (0, 0), BuildingBlock: XUDNAN_clean_linker_2, # of connection points: 2
#     Edge 40, Type (0, 0), BuildingBlock: XUDNAN_clean_linker_2, # of connection points: 2
#     Edge 41, Type (0, 0), BuildingBlock: XUDNAN_clean_linker_2, # of connection points: 2
#     Edge 42, Type (0, 0), BuildingBlock: XUDNAN_clean_linker_2, # of connection points: 2
#     Edge 43, Type (0, 0), BuildingBlock: XUDNAN_clean_linker_2, # of connection points: 2
#     Edge 44, Type (0, 0), BuildingBlock: XUDNAN_clean_linker_2, # of connection points: 2
#     Edge 45, Type (0, 0), BuildingBlock: XUDNAN_clean_linker_2, # of connection points: 2
#     Edge 46, Type (0, 0), BuildingBlock: XUDNAN_clean_linker_2, # of connection points: 2
#     Edge 47, Type (0, 0), BuildingBlock: XUDNAN_clean_linker_2, # of connection points: 2
#     Edge 48, Type (0, 0), BuildingBlock: XUDNAN_clean_linker_2, # of connection points: 2
#     Edge 49, Type (0, 0), BuildingBlock: XUDNAN_clean_linker_2, # of connection points: 2
#     Edge 50, Type (0, 0), BuildingBlock: XUDNAN_clean_linker_2, # of connection points: 2
#     Edge 51, Type (0, 0), BuildingBlock: XUDNAN_clean_linker_2, # of connection points: 2
#     Edge 52, Type (0, 0), BuildingBlock: XUDNAN_clean_linker_2, # of connection points: 2
#     Edge 53, Type (0, 0), BuildingBlock: XUDNAN_clean_linker_2, # of connection points: 2
#     Edge 54, Type (0, 0), BuildingBlock: XUDNAN_clean_linker_2, # of connection points: 2
#     Edge 55, Type (0, 0), BuildingBlock: XUDNAN_clean_linker_2, # of connection points: 2
#     Edge 56, Type (0, 0), BuildingBlock: XUDNAN_clean_linker_2, # of connection points: 2
#     Edge 57, Type (0, 0), BuildingBlock: XUDNAN_clean_linker_2, # of connection points: 2
#     Edge 58, Type (0, 0), BuildingBlock: XUDNAN_clean_linker_2, # of connection points: 2
#     Edge 59, Type (0, 0), BuildingBlock: XUDNAN_clean_linker_2, # of connection points: 2
#     Edge 60, Type (0, 0), BuildingBlock: XUDNAN_clean_linker_2, # of connection points: 2
#     Edge 61, Type (0, 0), BuildingBlock: XUDNAN_clean_linker_2, # of connection points: 2
#     Edge 62, Type (0, 0), BuildingBlock: XUDNAN_clean_linker_2, # of connection points: 2
#     Edge 63, Type (0, 0), BuildingBlock: XUDNAN_clean_linker_2, # of connection points: 2
#     Edge 64, Type (0, 0), BuildingBlock: XUDNAN_clean_linker_2, # of connection points: 2
#     Edge 65, Type (0, 0), BuildingBlock: XUDNAN_clean_linker_2, # of connection points: 2
#     Edge 66, Type (0, 0), BuildingBlock: XUDNAN_clean_linker_2, # of connection points: 2
#     Edge 67, Type (0, 0), BuildingBlock: XUDNAN_clean_linker_2, # of connection points: 2
#     Edge 68, Type (0, 0), BuildingBlock: XUDNAN_clean_linker_2, # of connection points: 2
#     Edge 69, Type (0, 0), BuildingBlock: XUDNAN_clean_linker_2, # of connection points: 2
#     Edge 70, Type (0, 0), BuildingBlock: XUDNAN_clean_linker_2, # of connection points: 2
#     Edge 71, Type (0, 0), BuildingBlock: XUDNAN_clean_linker_2, # of connection points: 2
# Relax obj value: 0.090
# Max RMSD: 0.162
# Mean RMSD: 0.151
data_MOF--net-lcs--node1-NAHDIM_clean_sbu_0--edge1-XUDNAN_clean_linker_2
_symmetry_space_group_name_H-M    P1
_symmetry_Int_Tables_number       1
_symmetry_cell_setting            triclinic
loop_
_symmetry_equiv_pos_as_xyz
'x, y, z'
_cell_length_a     50.036502
_cell_length_b     48.221806
_cell_length_c     48.216197
_cell_angle_alpha  91.660994
_cell_angle_beta   90.585565
_cell_angle_gamma 91.161361
loop_
_atom_site_label
_atom_site_type_symbol
_atom_site_fract_x
_atom_site_fract_y
_atom_site_fract_z
_atom_type_partial_charge
C0 C 0.95288 0.25731 0.43608 0.0
O1 O 0.95425 0.23109 0.42815 0.0
O2 O 0.9902 0.23074 0.38096 0.0
Zn3 Zn 0.00243 0.26296 0.40566 0.0
O4 O 0.0134 0.29616 0.38378 0.0
C5 C 0.05485 0.24509 0.4143 0.0
O6 O 0.05409 0.24692 0.38717 0.0
O7 O 0.97166 0.27405 0.42983 0.0
C8 C 0.01391 0.31942 0.39689 0.0
O9 O 0.00718 0.32031 0.42316 0.0
C10 C 0.99573 0.22698 0.35549 0.0
O11 O 0.01056 0.24549 0.34296 0.0
O12 O 0.03418 0.2513 0.42809 0.0
C13 C 0.04503 0.75492 0.62278 0.0
O14 O 0.04735 0.76466 0.64843 0.0
O15 O 0.97709 0.72156 0.65197 0.0
Zn16 Zn 0.98855 0.7569 0.63407 0.0
O17 O 0.99665 0.78758 0.66221 0.0
C18 C 0.9357 0.76731 0.61117 0.0
O19 O 0.92683 0.75737 0.6345 0.0
O20 O 0.02191 0.74993 0.61245 0.0
C21 C 0.97958 0.80143 0.67577 0.0
O22 O 0.95403 0.79533 0.67256 0.0
C23 C 0.99209 0.71055 0.6698 0.0
O24 O 0.01463 0.72321 0.67729 0.0
O25 O 0.96069 0.76878 0.60696 0.0
C26 C 0.4479 0.74837 0.92734 0.0
O27 O 0.45596 0.72273 0.92405 0.0
O28 O 0.47772 0.72414 0.8661 0.0
Zn29 Zn 0.48875 0.75933 0.88711 0.0
O30 O 0.49227 0.79182 0.8619 0.0
C31 C 0.53961 0.73549 0.89872 0.0
O32 O 0.53288 0.7201 0.87674 0.0
O33 O 0.45963 0.76757 0.91429 0.0
C34 C 0.51301 0.79602 0.84751 0.0
O35 O 0.53252 0.77822 0.84834 0.0
C36 C 0.47885 0.71964 0.84005 0.0
O37 O 0.4879 0.73925 0.82408 0.0
O38 O 0.52369 0.75396 0.90738 0.0
C39 C 0.57002 0.23222 0.13276 0.0
O40 O 0.56651 0.24077 0.15857 0.0
O41 O 0.50096 0.20856 0.1547 0.0
Zn42 Zn 0.51437 0.24045 0.13242 0.0
O43 O 0.51992 0.27443 0.15703 0.0
C44 C 0.46356 0.2517 0.11033 0.0
O45 O 0.45799 0.24958 0.13677 0.0
O46 O 0.54991 0.23017 0.11644 0.0
C47 C 0.53134 0.29579 0.1474 0.0
O48 O 0.53805 0.29558 0.12112 0.0
C49 C 0.49413 0.2111 0.17995 0.0
O50 O 0.49561 0.23564 0.19248 0.0
O51 O 0.4875 0.2484 0.10256 0.0
C52 C 0.03506 0.77976 0.07109 0.0
O53 O 0.00972 0.78072 0.06384 0.0
O54 O 0.02612 0.717 0.13292 0.0
Zn55 Zn 0.01498 0.75487 0.12161 0.0
O56 O 0.01353 0.78236 0.15387 0.0
C57 C 0.95879 0.75006 0.12288 0.0
O58 O 0.96462 0.7515 0.14952 0.0
O59 O 0.04141 0.76942 0.09412 0.0
C60 C 0.00442 0.80584 0.14769 0.0
O61 O -0.00173 0.81028 0.12166 0.0
C62 C 0.03304 0.71057 0.15727 0.0
O63 O 0.03354 0.7297 0.17724 0.0
O64 O 0.9777 0.75095 0.10549 0.0
C65 C 0.46407 0.74211 0.42146 0.0
O66 O 0.47433 0.76739 0.42119 0.0
O67 O 0.51309 0.69875 0.35812 0.0
Zn68 Zn 0.50462 0.73269 0.38137 0.0
O69 O 0.49336 0.76381 0.35729 0.0
C70 C 0.55917 0.7375 0.40561 0.0
O71 O 0.5659 0.71809 0.38751 0.0
O72 O 0.47389 0.72333 0.40584 0.0
C73 C 0.5097 0.78241 0.34939 0.0
O74 O 0.5351 0.78085 0.35624 0.0
C75 C 0.52991 0.69836 0.33855 0.0
O76 O 0.54318 0.72118 0.33265 0.0
O77 O 0.53524 0.74581 0.40622 0.0
C78 C 0.53986 0.2815 0.58368 0.0
O79 O 0.54842 0.25966 0.5965 0.0
O80 O 0.51187 0.24498 0.63828 0.0
Zn81 Zn 0.49103 0.26959 0.61323 0.0
O82 O 0.47277 0.29835 0.63667 0.0
C83 C 0.47108 0.22684 0.57566 0.0
O84 O 0.4967 0.22172 0.57373 0.0
O85 O 0.51598 0.2892 0.58737 0.0
C86 C 0.45354 0.29185 0.65237 0.0
O87 O 0.44532 0.26582 0.65294 0.0
C88 C 0.50242 0.22229 0.6472 0.0
O89 O 0.47794 0.21436 0.64019 0.0
O90 O 0.46369 0.24687 0.59126 0.0
C91 C 0.94532 0.2328 0.89945 0.0
O92 O 0.94809 0.23573 0.87262 0.0
O93 O 0.01599 0.20649 0.88627 0.0
Zn94 Zn 0.00144 0.24336 0.8981 0.0
O95 O 0.99659 0.26886 0.86623 0.0
C96 C 0.05154 0.26025 0.92247 0.0
O97 O 0.06038 0.24696 0.90034 0.0
O98 O 0.96573 0.23575 0.91525 0.0
C99 C 0.98682 0.29231 0.87249 0.0
O100 O 0.98146 0.29817 0.89861 0.0
C101 C 0.02568 0.20024 0.86273 0.0
O102 O 0.02674 0.219 0.84353 0.0
O103 O 0.02649 0.26155 0.9262 0.0
C104 C 0.40857 0.9352 0.27316 0.0
O105 O 0.38287 0.92904 0.27338 0.0
O106 O 0.37501 0.9817 0.21922 0.0
Zn107 Zn 0.38936 0.98845 0.25793 0.0
O108 O 0.36027 0.9887 0.28641 0.0
C109 C 0.42292 0.03171 0.23862 0.0
O110 O 0.42644 0.01299 0.21871 0.0
O111 O 0.41614 0.95951 0.26693 0.0
C112 C 0.34711 0.01063 0.29082 0.0
O113 O 0.35187 0.03229 0.27557 0.0
C114 C 0.35228 0.97135 0.21235 0.0
O115 O 0.33575 0.96342 0.23171 0.0
O116 O 0.40795 0.02572 0.25879 0.0
C117 C 0.21989 0.15455 0.46902 0.0
O118 O 0.23084 0.14355 0.44674 0.0
O119 O 0.2429 0.09546 0.52948 0.0
Zn120 Zn 0.25603 0.11876 0.49838 0.0
O121 O 0.26039 0.09562 0.46313 0.0
C122 C 0.3128 0.12306 0.50436 0.0
O123 O 0.31075 0.098 0.49303 0.0
O124 O 0.22824 0.14775 0.4928 0.0
C125 C 0.26116 0.06926 0.46232 0.0
O126 O 0.2582 0.0557 0.48535 0.0
C127 C 0.21953 0.08477 0.52721 0.0
O128 O 0.2057 0.08831 0.50431 0.0
O129 O 0.29165 0.13653 0.50903 0.0
C130 C 0.15936 0.01591 0.70597 0.0
O131 O 0.17714 0.02199 0.72556 0.0
O132 O 0.11006 0.02772 0.77029 0.0
Zn133 Zn 0.12654 0.99493 0.75087 0.0
O134 O 0.09943 0.96354 0.74734 0.0
C135 C 0.17012 0.99775 0.79111 0.0
O136 O 0.16319 0.02377 0.79417 0.0
O137 O 0.13716 0.00472 0.71234 0.0
C138 C 0.07435 0.9672 0.74802 0.0
O139 O 0.0653 0.99241 0.75158 0.0
C140 C 0.10149 0.02504 0.7948 0.0
O141 O 0.10369 0.00097 0.80664 0.0
O142 O 0.15798 0.98208 0.77322 0.0
C143 C 0.28215 0.82374 0.00083 0.0
O144 O 0.26196 0.81318 0.01447 0.0
O145 O 0.26333 0.90142 0.02919 0.0
Zn146 Zn 0.2521 0.87613 0.99719 0.0
O147 O 0.25059 0.89627 0.96129 0.0
C148 C 0.19642 0.86028 0.98855 0.0
O149 O 0.19946 0.87438 0.96587 0.0
O150 O 0.28107 0.8484 0.99238 0.0
C151 C 0.24446 0.92139 0.95797 0.0
O152 O 0.23867 0.93712 0.97971 0.0
C153 C 0.28505 0.91531 0.02732 0.0
O154 O 0.29829 0.91405 0.00394 0.0
O155 O 0.21628 0.85781 0.00493 0.0
C156 C 0.30706 0.32436 0.01643 0.0
O157 O 0.30438 0.33501 0.99182 0.0
O158 O 0.25297 0.37368 0.06784 0.0
Zn159 Zn 0.25942 0.35578 0.03041 0.0
O160 O 0.26899 0.38466 0.00264 0.0
C161 C 0.2033 0.34621 0.02502 0.0
O162 O 0.20352 0.36911 0.04045 0.0
O163 O 0.2899 0.32969 0.035 0.0
C164 C 0.26169 0.3812 0.97743 0.0
O165 O 0.24803 0.35864 0.96988 0.0
C166 C 0.25117 0.39967 0.07228 0.0
O167 O 0.25463 0.41655 0.05166 0.0
O168 O 0.2254 0.33567 0.01795 0.0
C169 C 0.72913 0.15132 0.04869 0.0
O170 O 0.75413 0.15123 0.05728 0.0
O171 O 0.76909 0.09195 0.03877 0.0
Zn172 Zn 0.74946 0.11225 0.00931 0.0
O173 O 0.73107 0.08524 0.98267 0.0
C174 C 0.79719 0.14497 0.99723 0.0
O175 O 0.80482 0.1384 0.02231 0.0
O176 O 0.72214 0.13619 0.02775 0.0
C177 C 0.72067 0.09494 0.96095 0.0
O178 O 0.72217 0.12182 0.95728 0.0
C179 C 0.75554 0.07783 0.05567 0.0
O180 O 0.72943 0.07615 0.05257 0.0
O181 O 0.77467 0.13616 0.98787 0.0
C182 C 0.09882 0.53483 0.2265 0.0
O183 O 0.10068 0.51 0.21481 0.0
O184 O 0.15107 0.48751 0.24571 0.0
Zn185 Zn 0.13019 0.51199 0.27142 0.0
O186 O 0.15616 0.53348 0.29598 0.0
C187 C 0.09844 0.46434 0.2873 0.0
O188 O 0.10694 0.4537 0.26368 0.0
O189 O 0.10941 0.5397 0.25023 0.0
C190 C 0.16257 0.52623 0.32023 0.0
O191 O 0.15198 0.50344 0.33008 0.0
C192 C 0.1651 0.49759 0.2265 0.0
O193 O 0.16562 0.52454 0.2232 0.0
O194 O 0.10547 0.48899 0.29454 0.0
C195 C 0.79405 0.85422 0.5044 0.0
O196 O 0.79079 0.85727 0.47761 0.0
O197 O 0.73564 0.91527 0.53544 0.0
Zn198 Zn 0.74555 0.8856 0.50755 0.0
O199 O 0.75333 0.90186 0.47051 0.0
C200 C 0.7131 0.84038 0.48448 0.0
O201 O 0.73384 0.83678 0.46838 0.0
O202 O 0.77721 0.86457 0.5211 0.0
C203 C 0.77325 0.91788 0.46626 0.0
O204 O 0.78921 0.92525 0.48711 0.0
C205 C 0.73642 0.90995 0.5611 0.0
O206 O 0.74512 0.88575 0.56867 0.0
O207 O 0.71389 0.8597 0.50296 0.0
C208 C 0.8711 0.02074 0.20866 0.0
O209 O 0.89604 0.02831 0.20426 0.0
O210 O 0.91606 0.97099 0.24605 0.0
Zn211 Zn 0.89256 0.00129 0.2605 0.0
O212 O 0.91445 0.03614 0.26875 0.0
C213 C 0.85266 0.97234 0.29007 0.0
O214 O 0.84606 0.96469 0.2645 0.0
O215 O 0.86519 0.00913 0.23115 0.0
C216 C 0.91252 0.05005 0.2914 0.0
O217 O 0.89615 0.04122 0.31051 0.0
C218 C 0.92934 0.95569 0.26194 0.0
O219 O 0.92821 0.96001 0.28893 0.0
O220 O 0.87291 0.98832 0.29419 0.0
C221 C 0.21562 0.69121 0.55218 0.0
O222 O 0.23262 0.68902 0.57292 0.0
O223 O 0.25431 0.63089 0.55877 0.0
Zn224 Zn 0.2515 0.65391 0.52491 0.0
O225 O 0.24464 0.6299 0.49079 0.0
C226 C 0.30544 0.66456 0.51015 0.0
O227 O 0.30393 0.63776 0.50451 0.0
O228 O 0.22015 0.67859 0.5293 0.0
C229 C 0.24777 0.64087 0.46736 0.0
O230 O 0.2558 0.66694 0.46654 0.0
C231 C 0.26441 0.60694 0.55851 0.0
O232 O 0.27352 0.59631 0.53515 0.0
O233 O 0.28516 0.67661 0.52005 0.0
C234 C 0.33034 0.50991 0.71891 0.0
O235 O 0.35163 0.49639 0.71108 0.0
O236 O 0.36706 0.46383 0.75963 0.0
Zn237 Zn 0.35339 0.50101 0.77213 0.0
O238 O 0.38271 0.53021 0.77453 0.0
C239 C 0.31941 0.47673 0.81183 0.0
O240 O 0.3125 0.4614 0.78984 0.0
O241 O 0.3262 0.51389 0.74466 0.0
C242 C 0.39202 0.53978 0.79756 0.0
O243 O 0.38345 0.52918 0.82071 0.0
C244 C 0.38886 0.46006 0.74694 0.0
O245 O 0.40428 0.48155 0.74144 0.0
O246 O 0.3365 0.49629 0.80927 0.0
C247 C 0.5942 0.0728 0.7403 0.0
O248 O 0.61961 0.07112 0.74707 0.0
O249 O 0.62163 0.00661 0.71729 0.0
Zn250 Zn 0.59829 0.01593 0.74992 0.0
O251 O 0.62073 0.02379 0.78434 0.0
C252 C 0.57739 0.9597 0.75191 0.0
O253 O 0.59999 0.95415 0.73954 0.0
O254 O 0.57954 0.05096 0.74049 0.0
C255 C 0.62659 0.00539 0.80164 0.0
O256 O 0.61837 0.97964 0.79693 0.0
C257 C 0.64369 0.99409 0.71856 0.0
O258 O 0.65247 0.9856 0.74257 0.0
O259 O 0.57178 0.98485 0.75745 0.0
C260 C 0.71404 0.67549 0.96655 0.0
O261 O 0.71914 0.65147 0.95438 0.0
O262 O 0.75285 0.632 0.0189 0.0
Zn263 Zn 0.7627 0.6627 0.99295 0.0
O264 O 0.77625 0.64725 0.95674 0.0
C265 C 0.78739 0.69653 0.03564 0.0
O266 O 0.76374 0.69303 0.04676 0.0
O267 O 0.73045 0.68554 0.98464 0.0
C268 C 0.78797 0.62428 0.95362 0.0
O269 O 0.79239 0.60911 0.97534 0.0
C270 C 0.73053 0.63159 0.03125 0.0
O271 O 0.7131 0.65084 0.02614 0.0
O272 O 0.79161 0.68604 0.01166 0.0
C273 C 0.91861 0.44158 0.75906 0.0
O274 O 0.91832 0.44517 0.73215 0.0
O275 O 0.86311 0.47978 0.72922 0.0
Zn276 Zn 0.88902 0.49216 0.75966 0.0
O277 O 0.86956 0.51226 0.79034 0.0
C278 C 0.9116 0.53343 0.72403 0.0
O279 O 0.88921 0.52888 0.71001 0.0
O280 O 0.90732 0.45917 0.77492 0.0
C281 C 0.85704 0.53403 0.78446 0.0
O282 O 0.85653 0.54196 0.75863 0.0
C283 C 0.83856 0.47513 0.73418 0.0
O284 O 0.83002 0.47781 0.75977 0.0
O285 O 0.91633 0.51924 0.74527 0.0
C286 C 0.80024 0.36702 0.49615 0.0
O287 O 0.80753 0.39328 0.49905 0.0
O288 O 0.7606 0.40838 0.54454 0.0
Zn289 Zn 0.74921 0.3896 0.50829 0.0
O290 O 0.74803 0.41722 0.47778 0.0
C291 C 0.69142 0.38249 0.50501 0.0
O292 O 0.69259 0.40678 0.49339 0.0
O293 O 0.77578 0.36023 0.49894 0.0
C294 C 0.74312 0.40841 0.45313 0.0
O295 O 0.73951 0.38161 0.44837 0.0
C296 C 0.74371 0.4164 0.56243 0.0
O297 O 0.71807 0.41334 0.5568 0.0
O298 O 0.71296 0.37127 0.51265 0.0
C299 C 0.66376 0.52819 0.18902 0.0
O300 O 0.63784 0.53144 0.19107 0.0
O301 O 0.62992 0.53317 0.25309 0.0
Zn302 Zn 0.65396 0.50239 0.23981 0.0
O303 O 0.63202 0.4691 0.22673 0.0
C304 C 0.68698 0.50844 0.28937 0.0
O305 O 0.68316 0.53502 0.28606 0.0
O306 O 0.67604 0.51583 0.20811 0.0
C307 C 0.62034 0.45398 0.24425 0.0
O308 O 0.62283 0.46045 0.27082 0.0
C309 C 0.60457 0.53166 0.25104 0.0
O310 O 0.59306 0.50942 0.23956 0.0
O311 O 0.67711 0.49098 0.27167 0.0
H312 H 0.08505 0.409 0.28124 0.0
H313 H 0.07542 0.48109 0.33606 0.0
H314 H 0.05046 0.45218 0.36874 0.0
H315 H 0.01977 0.37635 0.29402 0.0
H316 H 0.03285 0.34179 0.29295 0.0
H317 H 0.04831 0.36854 0.27287 0.0
H318 H 0.09393 0.35947 0.2965 0.0
H319 H 0.07862 0.33277 0.31669 0.0
H320 H 0.09661 0.36126 0.33384 0.0
H321 H 0.02902 0.41518 0.39667 0.0
H322 H 0.01233 0.37247 0.41809 0.0
H323 H 0.03588 0.32431 0.34518 0.0
C324 C 0.07739 0.41881 0.29992 0.0
C325 C 0.08213 0.44734 0.30605 0.0
C326 C 0.07201 0.45929 0.3309 0.0
C327 C 0.05776 0.44306 0.34957 0.0
C328 C 0.05375 0.41494 0.34307 0.0
C329 C 0.06318 0.4029 0.31883 0.0
C330 C 0.05719 0.37197 0.31743 0.0
C331 C 0.03841 0.36421 0.29286 0.0
C332 C 0.08313 0.3554 0.31604 0.0
C333 C 0.04328 0.36844 0.34488 0.0
C334 C 0.04138 0.39353 0.35926 0.0
C335 C 0.03019 0.39544 0.38554 0.0
C336 C 0.02083 0.37104 0.39755 0.0
C337 C 0.02275 0.34506 0.3833 0.0
C338 C 0.03393 0.34387 0.3565 0.0
H339 H 0.88422 0.78389 0.61905 0.0
H340 H 0.94524 0.77487 0.55627 0.0
H341 H 0.91477 0.79423 0.52154 0.0
H342 H 0.8265 0.76786 0.57424 0.0
H343 H 0.80602 0.7936 0.59095 0.0
H344 H 0.83192 0.77715 0.61038 0.0
H345 H 0.85266 0.82539 0.62399 0.0
H346 H 0.82689 0.84197 0.60455 0.0
H347 H 0.86156 0.84902 0.59713 0.0
H348 H 0.87818 0.81541 0.49396 0.0
H349 H 0.83858 0.83897 0.47582 0.0
H350 H 0.80218 0.83602 0.55709 0.0
C351 C 0.89101 0.78563 0.5979 0.0
C352 C 0.91698 0.77772 0.59025 0.0
C353 C 0.92538 0.7808 0.56252 0.0
C354 C 0.90821 0.79168 0.54265 0.0
C355 C 0.88282 0.79956 0.55092 0.0
C356 C 0.87426 0.79681 0.57789 0.0
C357 C 0.84657 0.8083 0.58171 0.0
C358 C 0.82657 0.78535 0.58979 0.0
C359 C 0.84696 0.83261 0.60311 0.0
C360 C 0.84098 0.81809 0.55273 0.0
C361 C 0.86202 0.81259 0.53521 0.0
C362 C 0.86154 0.81981 0.50745 0.0
C363 C 0.83897 0.83316 0.49734 0.0
C364 C 0.81736 0.83938 0.51505 0.0
C365 C 0.81844 0.83163 0.54307 0.0
H366 H 0.40952 0.57004 0.84336 0.0
H367 H 0.41394 0.56637 0.75344 0.0
H368 H 0.43946 0.61077 0.7546 0.0
H369 H 0.39806 0.64086 0.85003 0.0
H370 H 0.41778 0.64648 0.88126 0.0
H371 H 0.40257 0.61297 0.87364 0.0
H372 H 0.44884 0.59001 0.87723 0.0
H373 H 0.46419 0.62348 0.88509 0.0
H374 H 0.47605 0.60247 0.85642 0.0
H375 H 0.46111 0.65759 0.76541 0.0
H376 H 0.47793 0.70259 0.78519 0.0
H377 H 0.45888 0.67526 0.86784 0.0
C378 C 0.4163 0.57824 0.82392 0.0
C379 C 0.40979 0.56468 0.79832 0.0
C380 C 0.41875 0.57635 0.77333 0.0
C381 C 0.43328 0.60155 0.77377 0.0
C382 C 0.43879 0.61473 0.79935 0.0
C383 C 0.43073 0.60336 0.82397 0.0
C384 C 0.43778 0.62239 0.84857 0.0
C385 C 0.41255 0.63119 0.86428 0.0
C386 C 0.45792 0.60877 0.86797 0.0
C387 C 0.45048 0.64653 0.83389 0.0
C388 C 0.45111 0.64166 0.80554 0.0
C389 C 0.46099 0.66151 0.78762 0.0
C390 C 0.47043 0.68703 0.79903 0.0
C391 C 0.46976 0.69245 0.82805 0.0
C392 C 0.4598 0.67176 0.84559 0.0
H393 H 0.58316 0.20402 0.08471 0.0
H394 H 0.6176 0.24277 0.1596 0.0
H395 H 0.66247 0.22843 0.14491 0.0
H396 H 0.62404 0.145 0.08404 0.0
H397 H 0.62706 0.14279 0.04682 0.0
H398 H 0.59789 0.15785 0.06217 0.0
H399 H 0.60633 0.20287 0.0352 0.0
H400 H 0.63554 0.18791 0.01973 0.0
H401 H 0.63826 0.22072 0.03853 0.0
H402 H 0.70323 0.20836 0.12313 0.0
H403 H 0.73705 0.1829 0.09624 0.0
H404 H 0.67593 0.15653 0.03595 0.0
C405 C 0.60018 0.20978 0.09785 0.0
C406 C 0.59692 0.22458 0.12325 0.0
C407 C 0.61963 0.23142 0.14005 0.0
C408 C 0.64521 0.22345 0.13185 0.0
C409 C 0.64771 0.20863 0.10683 0.0
C410 C 0.62583 0.20183 0.09008 0.0
C411 C 0.63383 0.1846 0.06487 0.0
C412 C 0.61988 0.15586 0.06447 0.0
C413 C 0.62815 0.19995 0.03799 0.0
C414 C 0.66357 0.18252 0.07027 0.0
C415 C 0.6712 0.19672 0.09445 0.0
C416 C 0.69755 0.19728 0.10407 0.0
C417 C 0.7166 0.18274 0.08865 0.0
C418 C 0.70915 0.16773 0.06399 0.0
C419 C 0.68229 0.16786 0.05467 0.0
H420 H 0.09025 0.58772 0.2461 0.0
H421 H 0.07865 0.53346 0.17332 0.0
H422 H 0.05938 0.57231 0.14802 0.0
H423 H 0.02942 0.62671 0.23778 0.0
H424 H 0.04498 0.65896 0.24977 0.0
H425 H 0.05679 0.62656 0.26237 0.0
H426 H 0.10466 0.63921 0.24625 0.0
H427 H 0.09299 0.67158 0.23351 0.0
H428 H 0.11003 0.6478 0.21057 0.0
H429 H 0.04332 0.61762 0.13012 0.0
H430 H 0.03055 0.66571 0.12115 0.0
H431 H 0.05241 0.69008 0.20593 0.0
C432 C 0.08348 0.58388 0.2249 0.0
C433 C 0.08595 0.55752 0.21168 0.0
C434 C 0.07689 0.55344 0.18391 0.0
C435 C 0.06594 0.57538 0.16936 0.0
C436 C 0.06409 0.60117 0.18296 0.0
C437 C 0.07247 0.60546 0.21015 0.0
C438 C 0.06876 0.63526 0.21986 0.0
C439 C 0.0488 0.63696 0.24386 0.0
C440 C 0.09572 0.64928 0.22802 0.0
C441 C 0.05729 0.64721 0.19374 0.0
C442 C 0.05469 0.6272 0.17272 0.0
C443 C 0.0451 0.63342 0.14647 0.0
C444 C 0.03796 0.66083 0.14158 0.0
C445 C 0.04043 0.68169 0.16286 0.0
C446 C 0.05016 0.67463 0.18927 0.0
H447 H 0.61346 0.73874 0.39892 0.0
H448 H 0.55066 0.76767 0.45334 0.0
H449 H 0.58425 0.79357 0.48224 0.0
H450 H 0.66627 0.73306 0.45265 0.0
H451 H 0.69199 0.74573 0.43007 0.0
H452 H 0.66351 0.72662 0.4157 0.0
H453 H 0.65346 0.76734 0.38352 0.0
H454 H 0.68179 0.78658 0.39782 0.0
H455 H 0.6491 0.80161 0.39853 0.0
H456 H 0.62378 0.81911 0.50297 0.0
H457 H 0.66641 0.84397 0.5133 0.0
H458 H 0.70345 0.79945 0.44468 0.0
C459 C 0.60687 0.75001 0.41728 0.0
C460 C 0.57952 0.75105 0.42406 0.0
C461 C 0.57156 0.76657 0.44784 0.0
C462 C 0.59048 0.78123 0.46444 0.0
C463 C 0.61725 0.7802 0.45692 0.0
C464 C 0.62547 0.76503 0.4339 0.0
C465 C 0.6551 0.76933 0.42902 0.0
C466 C 0.6701 0.74206 0.43205 0.0
C467 C 0.66014 0.78198 0.40054 0.0
C468 C 0.6621 0.78979 0.45251 0.0
C469 C 0.64006 0.79547 0.46858 0.0
C470 C 0.64126 0.81465 0.49072 0.0
C471 C 0.66557 0.8287 0.49638 0.0
C472 C 0.68829 0.82366 0.47981 0.0
C473 C 0.68652 0.80364 0.45785 0.0
H474 H 0.46665 0.34729 0.65661 0.0
H475 H 0.41138 0.28513 0.68753 0.0
H476 H 0.38977 0.32125 0.71634 0.0
H477 H 0.47445 0.38732 0.72086 0.0
H478 H 0.47592 0.42014 0.70392 0.0
H479 H 0.48741 0.38929 0.6862 0.0
H480 H 0.45496 0.39781 0.64521 0.0
H481 H 0.44342 0.4287 0.66276 0.0
H482 H 0.41983 0.4017 0.65187 0.0
H483 H 0.37345 0.36427 0.74071 0.0
H484 H 0.36338 0.4112 0.75888 0.0
H485 H 0.42968 0.44513 0.71231 0.0
C486 C 0.45006 0.34121 0.66949 0.0
C487 C 0.4407 0.31337 0.66982 0.0
C488 C 0.4189 0.30632 0.68695 0.0
C489 C 0.40652 0.32667 0.70341 0.0
C490 C 0.41624 0.35391 0.70255 0.0
C491 C 0.43752 0.36121 0.68606 0.0
C492 C 0.44383 0.39203 0.68855 0.0
C493 C 0.47208 0.3975 0.70061 0.0
C494 C 0.44028 0.40586 0.66043 0.0
C495 C 0.4226 0.40099 0.70886 0.0
C496 C 0.40694 0.37868 0.71672 0.0
C497 C 0.38565 0.38188 0.73481 0.0
C498 C 0.38009 0.40863 0.74499 0.0
C499 C 0.39579 0.43184 0.73707 0.0
C500 C 0.41743 0.42781 0.71892 0.0
H501 H 0.93473 0.21534 0.95192 0.0
H502 H 0.8971 0.22995 0.87226 0.0
H503 H 0.85418 0.21196 0.88987 0.0
H504 H 0.9022 0.15174 0.96325 0.0
H505 H 0.89868 0.15729 0.00015 0.0
H506 H 0.92578 0.1739 0.98234 0.0
H507 H 0.91076 0.22193 0.00119 0.0
H508 H 0.88364 0.20544 0.0192 0.0
H509 H 0.87688 0.2325 0.99524 0.0
H510 H 0.81639 0.18936 0.91481 0.0
H511 H 0.78614 0.16368 0.94542 0.0
H512 H 0.84847 0.16345 0.00878 0.0
C513 C 0.91736 0.21523 0.93833 0.0
C514 C 0.91922 0.22414 0.91074 0.0
C515 C 0.89613 0.22326 0.89348 0.0
C516 C 0.87165 0.21315 0.90331 0.0
C517 C 0.87061 0.20406 0.93044 0.0
C518 C 0.89281 0.20508 0.94775 0.0
C519 C 0.88672 0.19251 0.97546 0.0
C520 C 0.90439 0.16737 0.98058 0.0
C521 C 0.88967 0.21441 -0.00083 0.0
C522 C 0.85776 0.18376 0.97081 0.0
C523 C 0.84881 0.19083 0.9448 0.0
C524 C 0.82308 0.18394 0.93533 0.0
C525 C 0.80608 0.16929 0.95286 0.0
C526 C 0.81492 0.16159 0.97953 0.0
C527 C 0.84105 0.16919 0.98862 0.0
H528 H 0.27428 0.09179 0.41264 0.0
H529 H 0.26503 0.01309 0.45336 0.0
H530 H 0.28157 0.98871 0.4114 0.0
H531 H 0.25639 0.06584 0.34151 0.0
H532 H 0.28106 0.08815 0.32602 0.0
H533 H 0.2652 0.09892 0.35785 0.0
H534 H 0.3117 0.10599 0.38147 0.0
H535 H 0.32767 0.09517 0.34983 0.0
H536 H 0.3346 0.0776 0.38152 0.0
H537 H 0.30388 0.97357 0.3672 0.0
H538 H 0.32996 0.96888 0.32414 0.0
H539 H 0.32423 0.05748 0.31236 0.0
C540 C 0.27515 0.06937 0.41256 0.0
C541 C 0.26828 0.05434 0.43627 0.0
C542 C 0.2701 0.02505 0.43542 0.0
C543 C 0.27941 0.011 0.41164 0.0
C544 C 0.28661 0.02652 0.38886 0.0
C545 C 0.28441 0.05505 0.38906 0.0
C546 C 0.29538 0.06713 0.36278 0.0
C547 C 0.27318 0.08081 0.34605 0.0
C548 C 0.31872 0.08767 0.3693 0.0
C549 C 0.30489 0.04103 0.34812 0.0
C550 C 0.29939 0.01778 0.36334 0.0
C551 C 0.30792 0.99156 0.35488 0.0
C552 C 0.32277 0.98911 0.33044 0.0
C553 C 0.32901 0.01278 0.31481 0.0
C554 C 0.31947 0.03893 0.3236 0.0
H555 H 0.20391 0.04166 0.68475 0.0
H556 H 0.12691 0.00458 0.66093 0.0
H557 H 0.13511 0.016 0.61224 0.0
H558 H 0.20117 0.09831 0.63956 0.0
H559 H 0.23625 0.09811 0.6314 0.0
H560 H 0.22502 0.08572 0.66424 0.0
H561 H 0.24784 0.03876 0.65423 0.0
H562 H 0.25913 0.05101 0.62131 0.0
H563 H 0.23962 0.01926 0.62272 0.0
H564 H 0.15051 0.03326 0.56663 0.0
H565 H 0.17216 0.05552 0.52702 0.0
H566 H 0.23933 0.08101 0.58025 0.0
C567 C 0.18886 0.03574 0.66928 0.0
C568 C 0.16478 0.0222 0.67669 0.0
C569 C 0.14553 0.01496 0.6558 0.0
C570 C 0.15001 0.02129 0.62804 0.0
C571 C 0.17387 0.03478 0.62148 0.0
C572 C 0.19301 0.04189 0.64144 0.0
C573 C 0.21656 0.0571 0.62894 0.0
C574 C 0.21993 0.08655 0.6418 0.0
C575 C 0.24231 0.04053 0.63198 0.0
C576 C 0.20745 0.05775 0.59892 0.0
C577 C 0.18284 0.04464 0.59505 0.0
C578 C 0.16989 0.04341 0.56933 0.0
C579 C 0.18234 0.05615 0.54697 0.0
C580 C 0.20746 0.06992 0.55051 0.0
C581 C 0.22024 0.07042 0.57681 0.0
H582 H 0.18252 0.01684 0.84361 0.0
H583 H 0.19892 0.95064 0.78374 0.0
H584 H 0.22555 0.92709 0.81912 0.0
H585 H 0.24746 0.01514 0.8832 0.0
H586 H 0.23103 0.02129 0.91583 0.0
H587 H 0.21769 0.03555 0.88456 0.0
H588 H 0.17195 0.01151 0.89363 0.0
H589 H 0.18514 0.99706 0.92474 0.0
H590 H 0.17042 0.97451 0.89804 0.0
H591 H 0.24532 0.90803 0.86187 0.0
H592 H 0.25567 0.89378 0.90933 0.0
H593 H 0.22511 0.97159 0.94217 0.0
C594 C 0.19249 0.99787 0.8377 0.0
C595 C 0.18899 0.98569 0.81089 0.0
C596 C 0.20155 0.96038 0.80415 0.0
C597 C 0.21679 0.94694 0.82405 0.0
C598 C 0.2192 0.95907 0.85058 0.0
C599 C 0.20744 0.984 0.85745 0.0
C600 C 0.21034 0.9909 0.88821 0.0
C601 C 0.22767 0.01729 0.89324 0.0
C602 C 0.18283 0.99364 0.90195 0.0
C603 C 0.22464 0.96544 0.89774 0.0
C604 C 0.23005 0.94764 0.8756 0.0
C605 C 0.24156 0.92196 0.87933 0.0
C606 C 0.24727 0.91403 0.90642 0.0
C607 C 0.2412 0.93158 0.92951 0.0
C608 C 0.23024 0.95785 0.92497 0.0
H609 H 0.26753 0.91419 0.08105 0.0
H610 H 0.32962 0.94909 0.02947 0.0
H611 H 0.35193 0.96981 0.07121 0.0
H612 H 0.26602 0.97216 0.13279 0.0
H613 H 0.2608 0.94923 0.16118 0.0
H614 H 0.24822 0.93959 0.12701 0.0
H615 H 0.27407 0.89362 0.12855 0.0
H616 H 0.28688 0.90318 0.16258 0.0
H617 H 0.30964 0.8948 0.13499 0.0
H618 H 0.36945 0.98332 0.11845 0.0
H619 H 0.38069 0.98964 0.16811 0.0
H620 H 0.30733 0.94577 0.18925 0.0
C621 C 0.28552 0.92666 0.07845 0.0
C622 C 0.29679 0.93011 0.05197 0.0
C623 C 0.32058 0.94622 0.04953 0.0
C624 C 0.33339 0.95811 0.07311 0.0
C625 C 0.32209 0.95376 0.09895 0.0
C626 C 0.29861 0.93859 0.10178 0.0
C627 C 0.29152 0.93568 0.13206 0.0
C628 C 0.26507 0.95003 0.13864 0.0
C629 C 0.29048 0.905 0.14 0.0
C630 C 0.31503 0.95105 0.14582 0.0
C631 C 0.33229 0.96149 0.12632 0.0
C632 C 0.35596 0.97549 0.13392 0.0
C633 C 0.36219 0.97888 0.16222 0.0
C634 C 0.34487 0.96823 0.18262 0.0
C635 C 0.32089 0.95431 0.1742 0.0
H636 H 0.31976 0.30264 0.06653 0.0
H637 H 0.34968 0.31218 0.98307 0.0
H638 H 0.39222 0.29115 0.99705 0.0
H639 H 0.37871 0.32167 0.10119 0.0
H640 H 0.37492 0.29728 0.12858 0.0
H641 H 0.34584 0.30994 0.11119 0.0
H642 H 0.33028 0.25948 0.09863 0.0
H643 H 0.35927 0.24661 0.11619 0.0
H644 H 0.35262 0.2366 0.08044 0.0
H645 H 0.43303 0.27306 0.02153 0.0
H646 H 0.46822 0.25868 0.05419 0.0
H647 H 0.41105 0.26138 0.1213 0.0
C648 C 0.33502 0.29984 0.05099 0.0
C649 C 0.33135 0.30901 0.02368 0.0
C650 C 0.35198 0.30521 0.0041 0.0
C651 C 0.37621 0.29327 0.01184 0.0
C652 C 0.37939 0.2851 0.03915 0.0
C653 C 0.35924 0.28804 0.05835 0.0
C654 C 0.36812 0.27922 0.08678 0.0
C655 C 0.36682 0.30347 0.10818 0.0
C656 C 0.35159 0.25397 0.09605 0.0
C657 C 0.39667 0.27154 0.08081 0.0
C658 C 0.40278 0.2748 0.05319 0.0
C659 C 0.42837 0.27013 0.04313 0.0
C660 C 0.44824 0.26203 0.06185 0.0
C661 C 0.44238 0.25886 0.09029 0.0
C662 C 0.41616 0.26345 0.09968 0.0
H663 H 0.97933 0.85489 0.14089 0.0
H664 H 0.01512 0.80424 0.20371 0.0
H665 H 0.00196 0.83852 0.24002 0.0
H666 H 0.99689 0.92233 0.17266 0.0
H667 H 0.96569 0.93728 0.16245 0.0
H668 H 0.97977 0.90979 0.14154 0.0
H669 H 0.93575 0.88095 0.14551 0.0
H670 H 0.92158 0.90827 0.16648 0.0
H671 H 0.92289 0.8736 0.17936 0.0
H672 H 0.98254 0.87748 0.2696 0.0
H673 H 0.9584 0.91736 0.28982 0.0
H674 H 0.93522 0.94146 0.20705 0.0
C675 C 0.98479 0.85112 0.16222 0.0
C676 C -0.00162 0.82695 0.16946 0.0
C677 C 0.0048 0.82269 0.19768 0.0
C678 C 0.99743 0.84204 0.21843 0.0
C679 C 0.98369 0.86548 0.21055 0.0
C680 C 0.9775 0.87006 0.18308 0.0
C681 C 0.96149 0.89608 0.18004 0.0
C682 C 0.97689 0.91764 0.16318 0.0
C683 C 0.93379 0.8893 0.16709 0.0
C684 C 0.95935 0.90534 0.21012 0.0
C685 C 0.97239 0.88758 0.22745 0.0
C686 C 0.97243 0.89161 0.2562 0.0
C687 C 0.95864 0.91431 0.26749 0.0
C688 C 0.94494 0.93256 0.25004 0.0
C689 C 0.94556 0.92799 0.22099 0.0
H690 H 0.19662 0.71486 0.60027 0.0
H691 H 0.17635 0.69876 0.51341 0.0
H692 H 0.13142 0.71726 0.52136 0.0
H693 H 0.13584 0.69355 0.62682 0.0
H694 H 0.1347 0.71967 0.65426 0.0
H695 H 0.16641 0.70859 0.64121 0.0
H696 H 0.17941 0.75941 0.63039 0.0
H697 H 0.14776 0.77072 0.64365 0.0
H698 H 0.15757 0.77926 0.609 0.0
H699 H 0.08735 0.73207 0.53967 0.0
H700 H 0.04754 0.74431 0.56686 0.0
H701 H 0.09662 0.75155 0.64161 0.0
C702 C 0.18297 0.71581 0.58277 0.0
C703 C 0.19001 0.70539 0.55622 0.0
C704 C 0.17142 0.70667 0.53394 0.0
C705 C 0.14586 0.71718 0.53822 0.0
C706 C 0.1393 0.72656 0.56482 0.0
C707 C 0.15738 0.72628 0.58666 0.0
C708 C 0.14473 0.73588 0.61357 0.0
C709 C 0.14546 0.71306 0.63523 0.0
C710 C 0.15817 0.76293 0.62481 0.0
C711 C 0.1165 0.74075 0.60358 0.0
C712 C 0.11384 0.73546 0.57535 0.0
C713 C 0.08925 0.73674 0.5617 0.0
C714 C 0.06675 0.74356 0.57734 0.0
C715 C 0.06904 0.74902 0.6063 0.0
C716 C 0.09432 0.74787 0.61944 0.0
H717 H 0.94821 0.67771 0.65642 0.0
H718 H 0.01975 0.68141 0.70827 0.0
H719 H 0.00814 0.63526 0.72613 0.0
H720 H 0.9057 0.64497 0.7052 0.0
H721 H 0.88795 0.62389 0.6793 0.0
H722 H 0.90232 0.65689 0.67027 0.0
H723 H 0.92876 0.63277 0.63073 0.0
H724 H 0.91459 0.59964 0.63978 0.0
H725 H 0.95037 0.60454 0.63867 0.0
H726 H 0.98811 0.58918 0.73913 0.0
H727 H 0.9605 0.54721 0.74724 0.0
H728 H 0.90255 0.57362 0.68629 0.0
C729 C 0.96147 0.66885 0.67152 0.0
C730 C 0.98489 0.68318 0.68096 0.0
C731 C 0.00169 0.67083 0.70074 0.0
C732 C 0.99531 0.64459 0.71095 0.0
C733 C 0.97214 0.63098 0.70109 0.0
C734 C 0.95547 0.6427 0.68185 0.0
C735 C 0.93151 0.62401 0.675 0.0
C736 C 0.90533 0.63829 0.68293 0.0
C737 C 0.93131 0.61469 0.64422 0.0
C738 C 0.93716 0.60004 0.6936 0.0
C739 C 0.96074 0.60439 0.7084 0.0
C740 C 0.96968 0.58548 0.72755 0.0
C741 C 0.95387 0.5617 0.73199 0.0
C742 C 0.92942 0.55707 0.71733 0.0
C743 C 0.92126 0.57638 0.69763 0.0
H744 H 0.19546 0.17132 0.42136 0.0
H745 H 0.19054 0.17752 0.51119 0.0
H746 H 0.14883 0.20361 0.50709 0.0
H747 H 0.16871 0.24003 0.40778 0.0
H748 H 0.15073 0.22766 0.37713 0.0
H749 H 0.18129 0.2114 0.38726 0.0
H750 H 0.15644 0.16371 0.38746 0.0
H751 H 0.12581 0.17982 0.37752 0.0
H752 H 0.12704 0.15967 0.4084 0.0
H753 H 0.1057 0.22576 0.49314 0.0
H754 H 0.06541 0.24379 0.47025 0.0
H755 H 0.09912 0.22349 0.38975 0.0
C756 C 0.18587 0.17852 0.4402 0.0
C757 C 0.19631 0.17239 0.46659 0.0
C758 C 0.18298 0.18203 0.49072 0.0
C759 C 0.15926 0.19686 0.48861 0.0
C760 C 0.14923 0.20207 0.46226 0.0
C761 C 0.16223 0.19339 0.43848 0.0
C762 C 0.14675 0.20067 0.41267 0.0
C763 C 0.16283 0.22116 0.39518 0.0
C764 C 0.13853 0.1744 0.39551 0.0
C765 C 0.12276 0.21432 0.42564 0.0
C766 C 0.12457 0.21503 0.45426 0.0
C767 C 0.10419 0.2256 0.47073 0.0
C768 C 0.08136 0.23571 0.45756 0.0
C769 C 0.07916 0.23516 0.42823 0.0
C770 C 0.10028 0.22446 0.4122 0.0
H771 H 0.61305 0.43373 0.19097 0.0
H772 H 0.58986 0.41967 0.27604 0.0
H773 H 0.56222 0.37916 0.26011 0.0
H774 H 0.54933 0.41392 0.15865 0.0
H775 H 0.56458 0.39735 0.12897 0.0
H776 H 0.58149 0.42603 0.14693 0.0
H777 H 0.62309 0.39577 0.15419 0.0
H778 H 0.60635 0.36707 0.13618 0.0
H779 H 0.61931 0.36292 0.1708 0.0
H780 H 0.53846 0.33923 0.23508 0.0
H781 H 0.52144 0.30198 0.203 0.0
H782 H 0.56035 0.34233 0.13442 0.0
C783 C 0.60204 0.42227 0.20627 0.0
C784 C 0.60358 0.42989 0.23476 0.0
C785 C 0.58898 0.41422 0.2541 0.0
C786 C 0.57316 0.39124 0.24525 0.0
C787 C 0.57214 0.38426 0.21701 0.0
C788 C 0.58622 0.39929 0.19782 0.0
C789 C 0.58255 0.38687 0.16881 0.0
C790 C 0.56865 0.40726 0.14972 0.0
C791 C 0.60942 0.3776 0.1568 0.0
C792 C 0.56448 0.36227 0.17473 0.0
C793 C 0.55854 0.36124 0.20261 0.0
C794 C 0.54284 0.3399 0.21317 0.0
C795 C 0.53326 0.31885 0.19478 0.0
C796 C 0.53952 0.31927 0.16618 0.0
C797 C 0.55505 0.3415 0.1561 0.0
H798 H 0.32843 0.84209 0.97758 0.0
H799 H 0.2903 0.76844 0.01028 0.0
H800 H 0.33026 0.74133 0.99806 0.0
H801 H 0.35759 0.8097 0.91981 0.0
H802 H 0.38776 0.83078 0.92142 0.0
H803 H 0.35708 0.84443 0.93467 0.0
H804 H 0.38004 0.85485 0.9824 0.0
H805 H 0.41085 0.8412 0.96928 0.0
H806 H 0.39629 0.82731 0.00011 0.0
H807 H 0.37362 0.7219 0.97926 0.0
H808 H 0.41603 0.71184 0.95544 0.0
H809 H 0.42493 0.79882 0.93583 0.0
C810 C 0.32846 0.8203 0.98243 0.0
C811 C 0.30621 0.80736 0.99486 0.0
C812 C 0.30715 0.7788 0.00081 0.0
C813 C 0.32976 0.76327 0.99399 0.0
C814 C 0.35125 0.7767 0.98147 0.0
C815 C 0.35076 0.80463 0.97589 0.0
C816 C 0.3758 0.81409 0.96135 0.0
C817 C 0.36915 0.8254 0.93261 0.0
C818 C 0.39168 0.83564 0.97937 0.0
C819 C 0.39031 0.78699 0.95898 0.0
C820 C 0.37602 0.76566 0.97088 0.0
C821 C 0.38508 0.73851 0.97013 0.0
C822 C 0.40919 0.733 0.95654 0.0
C823 C 0.42385 0.75455 0.94381 0.0
C824 C 0.41434 0.7819 0.94549 0.0
H825 H 0.92302 0.4288 0.81383 0.0
H826 H 0.94353 0.3992 0.731 0.0
H827 H 0.96453 0.35819 0.75095 0.0
H828 H 0.98315 0.40691 0.84819 0.0
H829 H 0.9659 0.3972 0.87919 0.0
H830 H 0.95313 0.42443 0.85831 0.0
H831 H 0.90742 0.39828 0.8539 0.0
H832 H 0.92004 0.37099 0.87477 0.0
H833 H 0.90622 0.36289 0.84076 0.0
H834 H 0.98227 0.31966 0.78023 0.0
H835 H 0.99517 0.28692 0.81636 0.0
H836 H 0.96304 0.34249 0.87956 0.0
C837 C 0.93201 0.41379 0.79983 0.0
C838 C 0.93164 0.41722 0.77084 0.0
C839 C 0.9436 0.39703 0.75329 0.0
C840 C 0.95559 0.37368 0.76443 0.0
C841 C 0.9555 0.37091 0.79312 0.0
C842 C 0.94405 0.39046 0.81056 0.0
C843 C 0.94618 0.38251 0.84059 0.0
C844 C 0.9631 0.40404 0.85757 0.0
C845 C 0.91831 0.37842 0.85323 0.0
C846 C 0.96045 0.35529 0.83736 0.0
C847 C 0.96573 0.34893 0.80986 0.0
C848 C 0.97833 0.3245 0.80184 0.0
C849 C 0.98558 0.30604 0.8225 0.0
C850 C 0.98018 0.31216 0.85078 0.0
C851 C 0.96758 0.33722 0.85816 0.0
H852 H 0.32433 0.17158 0.53377 0.0
H853 H 0.36152 0.10195 0.49132 0.0
H854 H 0.40606 0.12175 0.5036 0.0
H855 H 0.37287 0.22416 0.51458 0.0
H856 H 0.37178 0.24244 0.54768 0.0
H857 H 0.34275 0.22327 0.53477 0.0
H858 H 0.34153 0.19524 0.57982 0.0
H859 H 0.37052 0.21433 0.59287 0.0
H860 H 0.37083 0.17697 0.59043 0.0
H861 H 0.44654 0.14865 0.52108 0.0
H862 H 0.48015 0.18024 0.54362 0.0
H863 H 0.41655 0.23198 0.57517 0.0
C864 C 0.34183 0.16057 0.52692 0.0
C865 C 0.33943 0.13524 0.51153 0.0
C866 C 0.36284 0.12138 0.50314 0.0
C867 C 0.38825 0.13248 0.50996 0.0
C868 C 0.3899 0.15743 0.52521 0.0
C869 C 0.36735 0.17128 0.53366 0.0
C870 C 0.37467 0.19736 0.55052 0.0
C871 C 0.36494 0.22334 0.53601 0.0
C872 C 0.36374 0.19587 0.58017 0.0
C873 C 0.40487 0.1959 0.55036 0.0
C874 C 0.41325 0.17279 0.53552 0.0
C875 C 0.44023 0.16685 0.53271 0.0
C876 C 0.45917 0.18493 0.54558 0.0
C877 C 0.45101 0.20859 0.56115 0.0
C878 C 0.42346 0.21411 0.56337 0.0
H879 H 0.57644 0.6832 0.31353 0.0
H880 H 0.49598 0.65381 0.3309 0.0
H881 H 0.50565 0.60869 0.30793 0.0
H882 H 0.58397 0.64717 0.24644 0.0
H883 H 0.61844 0.6391 0.25295 0.0
H884 H 0.60445 0.66989 0.26852 0.0
H885 H 0.61874 0.65379 0.31721 0.0
H886 H 0.63269 0.62295 0.30181 0.0
H887 H 0.60787 0.6201 0.32846 0.0
H888 H 0.52426 0.56666 0.28396 0.0
H889 H 0.55144 0.52935 0.26334 0.0
H890 H 0.62063 0.58519 0.26417 0.0
C891 C 0.56075 0.6674 0.31207 0.0
C892 C 0.53539 0.67199 0.32368 0.0
C893 C 0.51553 0.65065 0.32202 0.0
C894 C 0.5208 0.62504 0.30895 0.0
C895 C 0.54611 0.62104 0.29796 0.0
C896 C 0.56584 0.64153 0.29955 0.0
C897 C 0.59191 0.63124 0.28781 0.0
C898 C 0.60017 0.64784 0.26242 0.0
C899 C 0.6141 0.63206 0.31016 0.0
C900 C 0.58379 0.6017 0.27955 0.0
C901 C 0.55719 0.59638 0.28522 0.0
C902 C 0.54511 0.57056 0.27941 0.0
C903 C 0.5607 0.54953 0.26768 0.0
C904 C 0.58814 0.55436 0.26227 0.0
C905 C 0.59973 0.58085 0.26822 0.0
H906 H 0.08907 0.78237 0.08122 0.0
H907 H 0.02855 0.80455 0.02104 0.0
H908 H 0.06356 0.82614 0.9925 0.0
H909 H 0.12825 0.84416 0.07781 0.0
H910 H 0.15981 0.82717 0.0813 0.0
H911 H 0.1302 0.81225 0.09624 0.0
H912 H 0.13782 0.76613 0.06878 0.0
H913 H 0.16751 0.78089 0.05378 0.0
H914 H 0.14119 0.76652 0.0316 0.0
H915 H 0.10498 0.84664 0.97136 0.0
H916 H 0.14967 0.86477 0.95923 0.0
H917 H 0.18296 0.82931 0.03348 0.0
C918 C 0.08314 0.79156 0.06193 0.0
C919 C 0.05604 0.79171 0.05333 0.0
C920 C 0.04918 0.80411 0.02802 0.0
C921 C 0.06892 0.81641 0.01166 0.0
C922 C 0.0954 0.81606 0.02087 0.0
C923 C 0.10254 0.80391 0.04539 0.0
C924 C 0.1323 0.80695 0.05101 0.0
C925 C 0.13796 0.82363 0.0782 0.0
C926 C 0.14548 0.77843 0.0513 0.0
C927 C 0.14076 0.82306 0.02599 0.0
C928 C 0.11922 0.82796 0.00878 0.0
C929 C 0.12202 0.84281 0.98461 0.0
C930 C 0.14751 0.85303 0.97791 0.0
C931 C 0.16986 0.84844 0.99538 0.0
C932 C 0.16633 0.83312 0.01965 0.0
H933 H 0.73507 0.90477 0.61753 0.0
H934 H 0.71108 0.95864 0.55148 0.0
H935 H 0.68753 0.98822 0.58551 0.0
H936 H 0.67519 0.90583 0.65347 0.0
H937 H 0.69008 0.90612 0.68767 0.0
H938 H 0.7075 0.89083 0.65877 0.0
H939 H 0.74857 0.92313 0.66945 0.0
H940 H 0.73132 0.93843 0.69856 0.0
H941 H 0.74431 0.96016 0.67183 0.0
H942 H 0.6624 0.00867 0.62548 0.0
H943 H 0.63945 0.0202 0.66929 0.0
H944 H 0.68091 0.95398 0.70966 0.0
C945 C 0.7253 0.92308 0.61027 0.0
C946 C 0.72492 0.92938 0.58183 0.0
C947 C 0.71173 0.95343 0.57317 0.0
C948 C 0.69829 0.97037 0.59234 0.0
C949 C 0.69852 0.96317 0.62011 0.0
C950 C 0.71194 0.9403 0.62914 0.0
C951 C 0.70797 0.93635 0.65989 0.0
C952 C 0.69437 0.90811 0.66525 0.0
C953 C 0.73463 0.93973 0.67587 0.0
C954 C 0.68958 0.96011 0.66657 0.0
C955 C 0.68445 0.97539 0.64336 0.0
C956 C 0.6666 0.99718 0.64391 0.0
C957 C 0.65358 0.00347 0.66884 0.0
C958 C 0.65858 0.98811 0.69288 0.0
C959 C 0.67706 0.96638 0.69173 0.0
H960 H 0.86324 0.97972 0.34594 0.0
H961 H 0.80514 0.9435 0.28718 0.0
H962 H 0.77761 0.92763 0.32598 0.0
H963 H 0.85914 0.92547 0.39473 0.0
H964 H 0.86271 0.94839 0.4248 0.0
H965 H 0.87739 0.95793 0.39241 0.0
H966 H 0.85162 0.00403 0.3941 0.0
H967 H 0.83678 0.99457 0.42648 0.0
H968 H 0.81576 0.00307 0.39748 0.0
H969 H 0.75678 0.91495 0.37078 0.0
H970 H 0.74473 0.90465 0.41888 0.0
H971 H 0.81649 0.94862 0.44879 0.0
C972 C 0.84467 0.96857 0.34123 0.0
C973 C 0.83632 0.9629 0.31351 0.0
C974 C 0.81198 0.94807 0.30823 0.0
C975 C 0.79614 0.93904 0.33013 0.0
C976 C 0.80493 0.94496 0.35718 0.0
C977 C 0.82865 0.95928 0.36285 0.0
C978 C 0.83388 0.9621 0.39383 0.0
C979 C 0.85981 0.94761 0.40191 0.0
C980 C 0.83454 0.99277 0.40354 0.0
C981 C 0.80948 0.94695 0.40464 0.0
C982 C 0.79297 0.9374 0.38313 0.0
C983 C 0.76949 0.92238 0.38782 0.0
C984 C 0.76282 0.91666 0.41524 0.0
C985 C 0.77964 0.92585 0.43764 0.0
C986 C 0.80314 0.94142 0.43217 0.0
H987 H 0.8087 0.08084 0.07032 0.0
H988 H 0.73216 0.04611 0.09522 0.0
H989 H 0.7537 0.02666 0.13641 0.0
H990 H 0.84935 0.02376 0.09283 0.0
H991 H 0.87656 0.04631 0.10466 0.0
H992 H 0.85531 0.05644 0.07649 0.0
H993 H 0.84497 0.10228 0.10328 0.0
H994 H 0.8661 0.09226 0.13157 0.0
H995 H 0.83177 0.10093 0.13788 0.0
H996 H 0.78308 0.01267 0.17577 0.0
H997 H 0.81848 0.00434 0.21033 0.0
H998 H 0.87593 0.04812 0.15972 0.0
C999 C 0.79649 0.06891 0.08427 0.0
C1000 C 0.76873 0.06494 0.07951 0.0
C1001 C 0.75346 0.04938 0.0984 0.0
C1002 C 0.76551 0.03824 0.12185 0.0
C1003 C 0.79284 0.0428 0.12607 0.0
C1004 C 0.80818 0.05766 0.10777 0.0
C1005 C 0.83703 0.06016 0.11749 0.0
C1006 C 0.85566 0.0458 0.09662 0.0
C1007 C 0.84545 0.09072 0.12288 0.0
C1008 C 0.83546 0.04459 0.14426 0.0
C1009 C 0.80981 0.0347 0.14878 0.0
C1010 C 0.80329 0.02017 0.17239 0.0
C1011 C 0.82354 0.01561 0.19193 0.0
C1012 C 0.85001 0.02555 0.18773 0.0
C1013 C 0.85595 0.04016 0.16349 0.0
H1014 H 0.64416 0.05733 0.81876 0.0
H1015 H 0.64324 0.97113 0.8425 0.0
H1016 H 0.66758 0.9845 0.88585 0.0
H1017 H 0.70999 0.07516 0.84564 0.0
H1018 H 0.70075 0.10948 0.85726 0.0
H1019 H 0.68375 0.09291 0.82793 0.0
H1020 H 0.63826 0.09978 0.85216 0.0
H1021 H 0.6551 0.11629 0.8816 0.0
H1022 H 0.63335 0.0866 0.88639 0.0
H1023 H 0.6915 0.00754 0.92697 0.0
H1024 H 0.71337 0.03845 0.96254 0.0
H1025 H 0.69814 0.10936 0.91161 0.0
C1026 C 0.64916 0.0412 0.83297 0.0
C1027 C 0.64182 0.01316 0.82722 0.0
C1028 C 0.64868 0.99274 0.84646 0.0
C1029 C 0.6625 0.00012 0.87113 0.0
C1030 C 0.66928 0.02799 0.87622 0.0
C1031 C 0.66287 0.04818 0.85766 0.0
C1032 C 0.67213 0.07669 0.86814 0.0
C1033 C 0.69289 0.08929 0.84858 0.0
C1034 C 0.64829 0.09597 0.87232 0.0
C1035 C 0.68469 0.0694 0.89557 0.0
C1036 C 0.6829 0.04122 0.89986 0.0
C1037 C 0.69305 0.02964 0.92382 0.0
C1038 C 0.70542 0.04736 0.9439 0.0
C1039 C 0.70746 0.07632 0.93987 0.0
C1040 C 0.6969 0.08734 0.91535 0.0
H1041 H 0.57603 0.69547 0.88714 0.0
H1042 H 0.56193 0.76648 0.94209 0.0
H1043 H 0.60564 0.75963 0.96507 0.0
H1044 H 0.60719 0.65367 0.93766 0.0
H1045 H 0.63074 0.63907 0.91356 0.0
H1046 H 0.59866 0.65006 0.9013 0.0
H1047 H 0.62204 0.68205 0.86625 0.0
H1048 H 0.65421 0.67121 0.87845 0.0
H1049 H 0.64649 0.70757 0.87867 0.0
H1050 H 0.6512 0.74471 0.98198 0.0
H1051 H 0.69403 0.72216 0.99222 0.0
H1052 H 0.67727 0.66091 0.92623 0.0
C1053 C 0.58209 0.70966 0.90397 0.0
C1054 C 0.56559 0.73154 0.91279 0.0
C1055 C 0.57426 0.74955 0.93498 0.0
C1056 C 0.59906 0.74586 0.94813 0.0
C1057 C 0.61485 0.72406 0.93884 0.0
C1058 C 0.60664 0.70624 0.91732 0.0
C1059 C 0.62703 0.68416 0.91148 0.0
C1060 C 0.61519 0.65502 0.9163 0.0
C1061 C 0.6381 0.6864 0.88196 0.0
C1062 C 0.64802 0.69226 0.93314 0.0
C1063 C 0.64076 0.71539 0.94867 0.0
C1064 C 0.65708 0.72659 0.96994 0.0
C1065 C 0.68137 0.71368 0.97557 0.0
C1066 C 0.68898 0.68977 0.96004 0.0
C1067 C 0.67204 0.67912 0.93852 0.0
H1068 H 0.09297 0.07723 0.77574 0.0
H1069 H 0.08238 0.02622 0.84775 0.0
H1070 H 0.06187 0.06557 0.87283 0.0
H1071 H 0.10972 0.14083 0.8133 0.0
H1072 H 0.09199 0.16235 0.78965 0.0
H1073 H 0.10585 0.13016 0.77732 0.0
H1074 H 0.0592 0.11389 0.75862 0.0
H1075 H 0.04518 0.14603 0.77091 0.0
H1076 H 0.03119 0.11343 0.78183 0.0
H1077 H 0.04259 0.11016 0.89002 0.0
H1078 H 0.02566 0.15723 0.8984 0.0
H1079 H 0.04869 0.17936 0.81514 0.0
C1080 C 0.08636 0.07431 0.79679 0.0
C1081 C 0.08927 0.04864 0.8098 0.0
C1082 C 0.08034 0.04568 0.83735 0.0
C1083 C 0.06868 0.06791 0.85178 0.0
C1084 C 0.06609 0.0929 0.83833 0.0
C1085 C 0.07466 0.09625 0.81148 0.0
C1086 C 0.06949 0.12529 0.80181 0.0
C1087 C 0.09583 0.14055 0.79514 0.0
C1088 C 0.05011 0.1246 0.77682 0.0
C1089 C 0.05665 0.13774 0.82746 0.0
C1090 C 0.05491 0.11868 0.84826 0.0
C1091 C 0.04383 0.12528 0.8739 0.0
C1092 C 0.03427 0.15209 0.87844 0.0
C1093 C 0.03583 0.17202 0.85742 0.0
C1094 C 0.04718 0.16463 0.83161 0.0
H1095 H 0.94254 0.31111 0.45149 0.0
H1096 H 0.90761 0.2279 0.44963 0.0
H1097 H 0.8652 0.24668 0.46711 0.0
H1098 H 0.90853 0.33654 0.5141 0.0
H1099 H 0.9044 0.37065 0.50054 0.0
H1100 H 0.93259 0.35025 0.49024 0.0
H1101 H 0.91919 0.35533 0.4386 0.0
H1102 H 0.89086 0.37553 0.44871 0.0
H1103 H 0.88606 0.34469 0.42707 0.0
H1104 H 0.8256 0.27504 0.48124 0.0
H1105 H 0.79228 0.3106 0.49255 0.0
H1106 H 0.85341 0.37509 0.48513 0.0
C1107 C 0.92616 0.29672 0.45519 0.0
C1108 C 0.92843 0.268 0.44924 0.0
C1109 C 0.90638 0.24996 0.45413 0.0
C1110 C 0.88221 0.26044 0.46404 0.0
C1111 C 0.88048 0.28894 0.46908 0.0
C1112 C 0.90194 0.3068 0.46504 0.0
C1113 C 0.89459 0.33669 0.47082 0.0
C1114 C 0.911 0.34927 0.49539 0.0
C1115 C 0.89786 0.35407 0.44475 0.0
C1116 C 0.86547 0.33293 0.47825 0.0
C1117 C 0.85773 0.30524 0.47726 0.0
C1118 C 0.8315 0.29676 0.48235 0.0
C1119 C 0.8127 0.31713 0.48867 0.0
C1120 C 0.82024 0.34564 0.4898 0.0
C1121 C 0.84703 0.35349 0.48461 0.0
H1122 H 0.59083 0.90539 0.75638 0.0
H1123 H 0.5269 0.96276 0.77335 0.0
H1124 H 0.50141 0.92554 0.79623 0.0
H1125 H 0.54864 0.84228 0.74492 0.0
H1126 H 0.57237 0.82079 0.7621 0.0
H1127 H 0.58384 0.8509 0.744 0.0
H1128 H 0.608 0.86951 0.78878 0.0
H1129 H 0.5965 0.83962 0.80705 0.0
H1130 H 0.5892 0.87397 0.82024 0.0
H1131 H 0.4847 0.88312 0.82057 0.0
H1132 H 0.47842 0.83932 0.8452 0.0
H1133 H 0.55406 0.81039 0.81322 0.0
C1134 C 0.57118 0.91 0.76429 0.0
C1135 C 0.56073 0.93692 0.76288 0.0
C1136 C 0.53522 0.94223 0.77408 0.0
C1137 C 0.52059 0.92122 0.78705 0.0
C1138 C 0.53177 0.89505 0.78864 0.0
C1139 C 0.55648 0.88938 0.77751 0.0
C1140 C 0.56506 0.86032 0.78392 0.0
C1141 C 0.56762 0.84252 0.75714 0.0
C1142 C 0.59123 0.86091 0.80101 0.0
C1143 C 0.54159 0.85069 0.80094 0.0
C1144 C 0.52243 0.87086 0.80314 0.0
C1145 C 0.49945 0.86708 0.81877 0.0
C1146 C 0.49609 0.84213 0.83271 0.0
C1147 C 0.51575 0.8214 0.83115 0.0
C1148 C 0.53861 0.82575 0.81476 0.0
H1149 H 0.96276 0.18632 0.37526 0.0
H1150 H 0.00636 0.21001 0.30192 0.0
H1151 H 0.99024 0.16694 0.27751 0.0
H1152 H 0.97504 0.11345 0.36955 0.0
H1153 H 0.94232 0.10344 0.38151 0.0
H1154 H 0.95731 0.13609 0.39305 0.0
H1155 H 0.9159 0.16195 0.37523 0.0
H1156 H 0.90074 0.12939 0.3637 0.0
H1157 H 0.90526 0.15691 0.33957 0.0
H1158 H 0.96948 0.12093 0.26138 0.0
H1159 H 0.94486 0.07632 0.25434 0.0
H1160 H 0.91479 0.08346 0.33836 0.0
C1161 C 0.96897 0.18253 0.35405 0.0
C1162 C 0.98587 0.20154 0.34049 0.0
C1163 C 0.99341 0.19576 0.31272 0.0
C1164 C 0.98439 0.17134 0.29871 0.0
C1165 C 0.96783 0.15301 0.31277 0.0
C1166 C 0.96014 0.15838 0.3398 0.0
C1167 C 0.94208 0.1355 0.35025 0.0
C1168 C 0.95497 0.12128 0.37506 0.0
C1169 C 0.91435 0.14661 0.35761 0.0
C1170 C 0.94074 0.11636 0.32485 0.0
C1171 C 0.95579 0.12675 0.30347 0.0
C1172 C 0.95763 0.11262 0.27797 0.0
C1173 C 0.94359 0.08728 0.27419 0.0
C1174 C 0.92787 0.07639 0.29579 0.0
C1175 C 0.92658 0.0912 0.32142 0.0
H1176 H 0.54431 0.08228 0.71852 0.0
H1177 H 0.62021 0.12314 0.73986 0.0
H1178 H 0.60394 0.16662 0.72072 0.0
H1179 H 0.53533 0.11372 0.6543 0.0
H1180 H 0.49967 0.11713 0.65729 0.0
H1181 H 0.51633 0.08978 0.67475 0.0
H1182 H 0.49673 0.10678 0.72165 0.0
H1183 H 0.47989 0.13415 0.7043 0.0
H1184 H 0.50212 0.14238 0.73315 0.0
H1185 H 0.58084 0.20458 0.69635 0.0
H1186 H 0.55201 0.23483 0.66915 0.0
H1187 H 0.49099 0.16948 0.6639 0.0
C1188 C 0.55737 0.10047 0.71957 0.0
C1189 C 0.58353 0.0993 0.73074 0.0
C1190 C 0.60009 0.12351 0.73142 0.0
C1191 C 0.59102 0.14834 0.72065 0.0
C1192 C 0.56531 0.14867 0.70936 0.0
C1193 C 0.54864 0.12544 0.70887 0.0
C1194 C 0.52236 0.13103 0.69443 0.0
C1195 C 0.51819 0.11177 0.66867 0.0
C1196 C 0.49889 0.12843 0.71459 0.0
C1197 C 0.52707 0.16085 0.68643 0.0
C1198 C 0.55191 0.17067 0.69537 0.0
C1199 C 0.56123 0.19725 0.68948 0.0
C1200 C 0.54472 0.21424 0.67395 0.0
C1201 C 0.5192 0.20458 0.66448 0.0
C1202 C 0.51028 0.17758 0.67104 0.0
H1203 H 0.19491 0.30779 0.98254 0.0
H1204 H 0.15358 0.35739 0.04456 0.0
H1205 H 0.11026 0.33908 0.02637 0.0
H1206 H 0.14903 0.31845 0.92777 0.0
H1207 H 0.15137 0.28394 0.91274 0.0
H1208 H 0.17926 0.29921 0.93194 0.0
H1209 H 0.17939 0.25722 0.96431 0.0
H1210 H 0.15153 0.24176 0.94513 0.0
H1211 H 0.14922 0.24764 0.98211 0.0
H1212 H 0.07147 0.31694 0.00044 0.0
H1213 H 0.03971 0.29298 0.96789 0.0
H1214 H 0.10627 0.25863 0.92211 0.0
C1215 C 0.17676 0.31446 0.99255 0.0
C1216 C 0.17759 0.33388 0.01505 0.0
C1217 C 0.1534 0.3425 0.0273 0.0
C1218 C 0.1287 0.33218 0.01717 0.0
C1219 C 0.12855 0.31334 0.99474 0.0
C1220 C 0.15191 0.30456 0.98255 0.0
C1221 C 0.14611 0.28523 0.95781 0.0
C1222 C 0.15709 0.29745 0.93098 0.0
C1223 C 0.15722 0.25624 0.96264 0.0
C1224 C 0.11585 0.28476 0.95787 0.0
C1225 C 0.10613 0.30093 0.97946 0.0
C1226 C 0.07882 0.3041 0.98351 0.0
C1227 C 0.06095 0.29042 0.96491 0.0
C1228 C 0.07049 0.27394 0.94246 0.0
C1229 C 0.09833 0.27105 0.93906 0.0
H1230 H 0.44001 0.69138 0.42845 0.0
H1231 H 0.43578 0.77817 0.45432 0.0
H1232 H 0.39609 0.76735 0.48243 0.0
H1233 H 0.37071 0.67896 0.42087 0.0
H1234 H 0.37141 0.64426 0.43374 0.0
H1235 H 0.40039 0.65864 0.41717 0.0
H1236 H 0.42919 0.649 0.46072 0.0
H1237 H 0.40026 0.63458 0.47745 0.0
H1238 H 0.4192 0.66266 0.49414 0.0
H1239 H 0.35516 0.74738 0.50533 0.0
H1240 H 0.31643 0.71976 0.52139 0.0
H1241 H 0.34838 0.64617 0.4809 0.0
C1242 C 0.43091 0.70812 0.4402 0.0
C1243 C 0.44099 0.73563 0.43919 0.0
C1244 C 0.42843 0.75692 0.45482 0.0
C1245 C 0.40591 0.75098 0.47087 0.0
C1246 C 0.39637 0.72364 0.4712 0.0
C1247 C 0.40855 0.70255 0.45636 0.0
C1248 C 0.3939 0.6751 0.4594 0.0
C1249 C 0.38348 0.66358 0.43112 0.0
C1250 C 0.4117 0.6541 0.47379 0.0
C1251 C 0.37124 0.6841 0.47786 0.0
C1252 C 0.37305 0.71214 0.48458 0.0
C1253 C 0.35368 0.72535 0.50044 0.0
C1254 C 0.33176 0.70951 0.50943 0.0
C1255 C 0.32946 0.6808 0.50251 0.0
C1256 C 0.34968 0.668 0.48681 0.0
H1257 H 0.85488 0.52413 0.84029 0.0
H1258 H 0.82963 0.58191 0.77819 0.0
H1259 H 0.80892 0.61085 0.81471 0.0
H1260 H 0.7958 0.52906 0.8829 0.0
H1261 H 0.81421 0.52693 0.91507 0.0
H1262 H 0.82661 0.51034 0.88395 0.0
H1263 H 0.87155 0.53757 0.89027 0.0
H1264 H 0.85927 0.5543 0.92135 0.0
H1265 H 0.87147 0.57492 0.89338 0.0
H1266 H 0.79196 0.63409 0.85774 0.0
H1267 H 0.779 0.64987 0.90466 0.0
H1268 H 0.81504 0.57701 0.93904 0.0
C1269 C 0.84488 0.54279 0.83434 0.0
C1270 C 0.84388 0.55075 0.80636 0.0
C1271 C 0.83065 0.57536 0.79947 0.0
C1272 C 0.81882 0.59196 0.82006 0.0
C1273 C 0.82034 0.58363 0.84742 0.0
C1274 C 0.83293 0.55961 0.85463 0.0
C1275 C 0.83193 0.55557 0.88566 0.0
C1276 C 0.81619 0.52889 0.89228 0.0
C1277 C 0.86024 0.5556 0.89841 0.0
C1278 C 0.81695 0.5812 0.89475 0.0
C1279 C 0.81046 0.59706 0.87234 0.0
C1280 C 0.79686 0.62182 0.87546 0.0
C1281 C 0.78962 0.63062 0.90223 0.0
C1282 C 0.79599 0.61468 0.92556 0.0
C1283 C 0.80984 0.58963 0.92166 0.0
H1284 H 0.64478 0.56294 0.15 0.0
H1285 H 0.71569 0.51877 0.17413 0.0
H1286 H 0.73993 0.53815 0.1344 0.0
H1287 H 0.65313 0.55579 0.0754 0.0
H1288 H 0.64131 0.59014 0.06916 0.0
H1289 H 0.6292 0.5714 0.09845 0.0
H1290 H 0.64427 0.61225 0.13151 0.0
H1291 H 0.65635 0.63111 0.10236 0.0
H1292 H 0.67852 0.62457 0.13103 0.0
H1293 H 0.75667 0.56356 0.09258 0.0
H1294 H 0.76523 0.59474 0.05369 0.0
H1295 H 0.68342 0.62273 0.05811 0.0
C1296 C 0.66533 0.55708 0.14681 0.0
C1297 C 0.67832 0.53923 0.16507 0.0
C1298 C 0.70534 0.5324 0.16037 0.0
C1299 C 0.71923 0.54322 0.13781 0.0
C1300 C 0.70582 0.56086 0.12026 0.0
C1301 C 0.6795 0.56782 0.1246 0.0
C1302 C 0.67 0.58826 0.10362 0.0
C1303 C 0.64705 0.57563 0.08559 0.0
C1304 C 0.66181 0.61567 0.11799 0.0
C1305 C 0.69518 0.592 0.08695 0.0
C1306 C 0.71555 0.57582 0.09664 0.0
C1307 C 0.74083 0.57624 0.08476 0.0
C1308 C 0.74549 0.59398 0.06266 0.0
C1309 C 0.72501 0.61119 0.05288 0.0
C1310 C 0.69949 0.60984 0.06507 0.0
H1311 H 0.72638 0.39653 0.39979 0.0
H1312 H 0.75139 0.46485 0.45535 0.0
H1313 H 0.74289 0.49786 0.41816 0.0
H1314 H 0.75357 0.42492 0.33604 0.0
H1315 H 0.72567 0.41202 0.31515 0.0
H1316 H 0.73586 0.39368 0.3454 0.0
H1317 H 0.68787 0.39694 0.36482 0.0
H1318 H 0.67756 0.41528 0.33469 0.0
H1319 H 0.67282 0.43046 0.36885 0.0
H1320 H 0.72884 0.52362 0.37578 0.0
H1321 H 0.7098 0.54007 0.33187 0.0
H1322 H 0.69395 0.4547 0.30443 0.0
C1323 C 0.73047 0.41839 0.40406 0.0
C1324 C 0.73966 0.4281 0.43046 0.0
C1325 C 0.74441 0.45692 0.43526 0.0
C1326 C 0.7397 0.47582 0.41425 0.0
C1327 C 0.73032 0.46556 0.38856 0.0
C1328 C 0.72581 0.43751 0.38339 0.0
C1329 C 0.71432 0.43191 0.35457 0.0
C1330 C 0.73351 0.41461 0.33674 0.0
C1331 C 0.6865 0.41783 0.35582 0.0
C1332 C 0.71262 0.46125 0.34448 0.0
C1333 C 0.72214 0.48036 0.36427 0.0
C1334 C 0.72156 0.50882 0.36003 0.0
C1335 C 0.71069 0.51796 0.33503 0.0
C1336 C 0.70045 0.49869 0.31466 0.0
C1337 C 0.70181 0.46998 0.31944 0.0
H1338 H 0.85047 0.4612 0.68021 0.0
H1339 H 0.78397 0.47177 0.73644 0.0
H1340 H 0.75237 0.45949 0.69816 0.0
H1341 H 0.81864 0.48877 0.61974 0.0
H1342 H 0.83329 0.46396 0.59602 0.0
H1343 H 0.85067 0.47428 0.62768 0.0
H1344 H 0.85315 0.42281 0.64137 0.0
H1345 H 0.83586 0.41233 0.60973 0.0
H1346 H 0.82282 0.40208 0.64269 0.0
H1347 H 0.72805 0.44596 0.65383 0.0
H1348 H 0.71278 0.43001 0.60711 0.0
H1349 H 0.79527 0.42742 0.58013 0.0
C1350 C 0.82926 0.46103 0.68448 0.0
C1351 C 0.81968 0.4675 0.71131 0.0
C1352 C 0.79178 0.46684 0.71606 0.0
C1353 C 0.77367 0.45998 0.69444 0.0
C1354 C 0.78379 0.45374 0.66824 0.0
C1355 C 0.81093 0.45405 0.6632 0.0
C1356 C 0.81664 0.44576 0.63335 0.0
C1357 C 0.83063 0.46962 0.61832 0.0
C1358 C 0.83308 0.41916 0.6317 0.0
C1359 C 0.78846 0.44064 0.62241 0.0
C1360 C 0.7698 0.44554 0.6428 0.0
C1361 C 0.74247 0.44206 0.63768 0.0
C1362 C 0.734 0.43303 0.61105 0.0
C1363 C 0.75282 0.42743 0.58995 0.0
C1364 C 0.78038 0.43152 0.59578 0.0
H1365 H 0.45017 0.05286 0.19488 0.0
H1366 H 0.42147 0.07457 0.27722 0.0
H1367 H 0.43853 0.12259 0.27214 0.0
H1368 H 0.51066 0.09647 0.19782 0.0
H1369 H 0.5077 0.10554 0.16193 0.0
H1370 H 0.49495 0.0725 0.173 0.0
H1371 H 0.44834 0.08352 0.15259 0.0
H1372 H 0.4609 0.11661 0.14158 0.0
H1373 H 0.4321 0.11492 0.16367 0.0
H1374 H 0.45684 0.16883 0.25701 0.0
H1375 H 0.47477 0.20965 0.23293 0.0
H1376 H 0.49069 0.15728 0.16043 0.0
C1377 C 0.44777 0.06757 0.21203 0.0
C1378 C 0.43459 0.05995 0.23649 0.0
C1379 C 0.43158 0.07994 0.2583 0.0
C1380 C 0.44123 0.10725 0.25563 0.0
C1381 C 0.45381 0.11416 0.23105 0.0
C1382 C 0.45714 0.09487 0.20967 0.0
C1383 C 0.47024 0.10781 0.18491 0.0
C1384 C 0.49751 0.0948 0.17908 0.0
C1385 C 0.45179 0.10558 0.15918 0.0
C1386 C 0.47345 0.1375 0.19554 0.0
C1387 C 0.46404 0.14075 0.22226 0.0
C1388 C 0.46441 0.1665 0.23614 0.0
C1389 C 0.4746 0.18956 0.22229 0.0
C1390 C 0.48412 0.18667 0.1948 0.0
C1391 C 0.4836 0.16021 0.18144 0.0
H1392 H 0.03101 0.81808 0.68789 0.0
H1393 H 0.94849 0.84059 0.70144 0.0
H1394 H 0.96393 0.88412 0.72536 0.0
H1395 H 0.05838 0.84835 0.75383 0.0
H1396 H 0.08885 0.85968 0.7376 0.0
H1397 H 0.07121 0.829 0.72449 0.0
H1398 H 0.06918 0.84991 0.67562 0.0
H1399 H 0.08662 0.88066 0.68856 0.0
H1400 H 0.05461 0.88345 0.67149 0.0
H1401 H 0.98841 0.92745 0.74299 0.0
H1402 H 0.01997 0.9663 0.75439 0.0
H1403 H 0.08625 0.91468 0.72979 0.0
C1404 C 0.01614 0.83188 0.69633 0.0
C1405 C 0.98853 0.82593 0.6928 0.0
C1406 C 0.96975 0.84466 0.704 0.0
C1407 C 0.97833 0.86943 0.71762 0.0
C1408 C 0.00572 0.87495 0.72011 0.0
C1409 C 0.02433 0.85655 0.71002 0.0
C1410 C 0.05253 0.86801 0.71381 0.0
C1411 C 0.06869 0.8502 0.73362 0.0
C1412 C 0.06654 0.87067 0.6857 0.0
C1413 C 0.04688 0.89614 0.72686 0.0
C1414 C 0.01979 0.89971 0.73053 0.0
C1415 C 0.00969 0.92473 0.74061 0.0
C1416 C 0.02775 0.9467 0.74693 0.0
C1417 C 0.05557 0.94348 0.74311 0.0
C1418 C 0.06515 0.9177 0.73329 0.0
H1419 H 0.45781 0.79383 0.33593 0.0
H1420 H 0.53918 0.82582 0.32929 0.0
H1421 H 0.52228 0.86749 0.30683 0.0
H1422 H 0.43297 0.81969 0.27022 0.0
H1423 H 0.40073 0.82789 0.28427 0.0
H1424 H 0.41944 0.7998 0.29809 0.0
H1425 H 0.41662 0.82236 0.34739 0.0
H1426 H 0.398 0.85055 0.33374 0.0
H1427 H 0.4284 0.85764 0.35327 0.0
H1428 H 0.49628 0.90684 0.28759 0.0
H1429 H 0.46318 0.94077 0.27262 0.0
H1430 H 0.39892 0.88283 0.29193 0.0
C1431 C 0.47215 0.8094 0.32945 0.0
C1432 C 0.49985 0.80652 0.33431 0.0
C1433 C 0.51788 0.82753 0.32573 0.0
C1434 C 0.50848 0.85126 0.31293 0.0
C1435 C 0.48102 0.8536 0.3088 0.0
C1436 C 0.46313 0.83318 0.3167 0.0
C1437 C 0.43456 0.84119 0.31095 0.0
C1438 C 0.42114 0.82094 0.28961 0.0
C1439 C 0.41846 0.84305 0.33794 0.0
C1440 C 0.43913 0.86952 0.29895 0.0
C1441 C 0.46606 0.87624 0.29774 0.0
C1442 C 0.47514 0.90172 0.28823 0.0
C1443 C 0.45617 0.92086 0.27982 0.0
C1444 C 0.42844 0.91445 0.28104 0.0
C1445 C 0.41995 0.88832 0.29057 0.0
H1446 H 0.8395 0.70425 0.01982 0.0
H1447 H 0.78551 0.71862 0.08848 0.0
H1448 H 0.82328 0.73702 0.11722 0.0
H1449 H 0.8928 0.68035 0.05913 0.0
H1450 H 0.91871 0.69663 0.03919 0.0
H1451 H 0.88713 0.68722 0.02301 0.0
H1452 H 0.88127 0.73793 0.00801 0.0
H1453 H 0.91297 0.7475 0.02403 0.0
H1454 H 0.88326 0.76576 0.03379 0.0
H1455 H 0.8672 0.74964 0.13976 0.0
H1456 H 0.91425 0.75715 0.15424 0.0
H1457 H 0.93974 0.73526 0.07077 0.0
C1458 C 0.8355 0.71172 0.04073 0.0
C1459 C 0.80952 0.71004 0.05189 0.0
C1460 C 0.80522 0.71978 0.07945 0.0
C1461 C 0.82654 0.73029 0.09593 0.0
C1462 C 0.85198 0.73112 0.08448 0.0
C1463 C 0.85654 0.72233 0.05745 0.0
C1464 C 0.886 0.72412 0.05063 0.0
C1465 C 0.89678 0.69537 0.04252 0.0
C1466 C 0.89117 0.74508 0.02776 0.0
C1467 C 0.89737 0.73463 0.07828 0.0
C1468 C 0.87737 0.73868 0.09746 0.0
C1469 C 0.88301 0.74691 0.12484 0.0
C1470 C 0.90981 0.751 0.13288 0.0
C1471 C 0.93064 0.74689 0.11361 0.0
C1472 C 0.92423 0.73888 0.08588 0.0
H1473 H 0.59383 0.27535 0.57798 0.0
H1474 H 0.52769 0.32543 0.55133 0.0
H1475 H 0.55906 0.35491 0.5254 0.0
H1476 H 0.63955 0.3306 0.58994 0.0
H1477 H 0.66828 0.31203 0.57781 0.0
H1478 H 0.64038 0.29336 0.59207 0.0
H1479 H 0.63619 0.2629 0.54698 0.0
H1480 H 0.66417 0.28146 0.53258 0.0
H1481 H 0.63269 0.2793 0.51405 0.0
H1482 H 0.598 0.38073 0.50498 0.0
H1483 H 0.6416 0.40116 0.49196 0.0
H1484 H 0.6821 0.33425 0.53236 0.0
C1485 C 0.58585 0.29224 0.56635 0.0
C1486 C 0.55829 0.29803 0.5666 0.0
C1487 C 0.54873 0.32057 0.5514 0.0
C1488 C 0.56637 0.33739 0.53655 0.0
C1489 C 0.59348 0.33135 0.53708 0.0
C1490 C 0.60317 0.30928 0.55153 0.0
C1491 C 0.63333 0.30815 0.55008 0.0
C1492 C 0.64612 0.31123 0.5792 0.0
C1493 C 0.6421 0.28136 0.53502 0.0
C1494 C 0.63915 0.33334 0.53299 0.0
C1495 C 0.61591 0.34632 0.52548 0.0
C1496 C 0.61633 0.37061 0.51052 0.0
C1497 C 0.64119 0.38208 0.50326 0.0
C1498 C 0.66527 0.3693 0.51109 0.0
C1499 C 0.66408 0.34444 0.52589 0.0
H1500 H 0.23998 0.45343 0.08762 0.0
H1501 H 0.24143 0.36976 0.11855 0.0
H1502 H 0.22216 0.38648 0.16263 0.0
H1503 H 0.25567 0.48963 0.15458 0.0
H1504 H 0.23356 0.51766 0.14749 0.0
H1505 H 0.24984 0.49961 0.11932 0.0
H1506 H 0.20375 0.48885 0.09601 0.0
H1507 H 0.18732 0.50666 0.12414 0.0
H1508 H 0.17818 0.47115 0.11523 0.0
H1509 H 0.19893 0.4111 0.20133 0.0
H1510 H 0.1749 0.44262 0.23314 0.0
H1511 H 0.18913 0.51048 0.17753 0.0
C1512 C 0.23672 0.43871 0.10384 0.0
C1513 C 0.24224 0.41029 0.09963 0.0
C1514 C 0.23741 0.39164 0.12129 0.0
C1515 C 0.22649 0.40093 0.14643 0.0
C1516 C 0.22071 0.42894 0.14967 0.0
C1517 C 0.22587 0.44763 0.1291 0.0
C1518 C 0.21656 0.47637 0.13737 0.0
C1519 C 0.24033 0.49704 0.13984 0.0
C1520 C 0.19518 0.48633 0.11697 0.0
C1521 C 0.20478 0.47073 0.1655 0.0
C1522 C 0.20751 0.44327 0.17224 0.0
C1523 C 0.19698 0.43274 0.19649 0.0
C1524 C 0.18327 0.45078 0.21435 0.0
C1525 C 0.18027 0.47903 0.20787 0.0
C1526 C 0.19137 0.48908 0.1832 0.0
H1527 H 0.2865 0.43311 0.8248 0.0
H1528 H 0.33074 0.50355 0.86163 0.0
H1529 H 0.31787 0.48864 0.90829 0.0
H1530 H 0.23183 0.43217 0.87556 0.0
H1531 H 0.22986 0.39479 0.87495 0.0
H1532 H 0.24022 0.41272 0.84447 0.0
H1533 H 0.28382 0.3846 0.84325 0.0
H1534 H 0.2737 0.36673 0.87377 0.0
H1535 H 0.30541 0.38512 0.87343 0.0
H1536 H 0.30359 0.46368 0.95096 0.0
H1537 H 0.28829 0.43102 0.98632 0.0
H1538 H 0.25347 0.37713 0.92128 0.0
C1539 C 0.29308 0.44573 0.84262 0.0
C1540 C 0.30957 0.46953 0.83956 0.0
C1541 C 0.31801 0.48527 0.86346 0.0
C1542 C 0.31078 0.477 0.89005 0.0
C1543 C 0.29499 0.45306 0.89235 0.0
C1544 C 0.28608 0.43777 0.86926 0.0
C1545 C 0.27068 0.41198 0.87737 0.0
C1546 C 0.24141 0.41299 0.8675 0.0
C1547 C 0.28422 0.38556 0.8663 0.0
C1548 C 0.27289 0.41477 0.90863 0.0
C1549 C 0.28678 0.4387 0.9169 0.0
C1550 C 0.29241 0.44504 0.94475 0.0
C1551 C 0.28371 0.42632 0.96467 0.0
C1552 C 0.26963 0.40156 0.95657 0.0
C1553 C 0.26398 0.39597 0.92818 0.0
H1554 H 0.29627 0.56281 0.56862 0.0
H1555 H 0.2393 0.6179 0.60759 0.0
H1556 H 0.24638 0.5952 0.65224 0.0
H1557 H 0.28043 0.50082 0.60945 0.0
H1558 H 0.31498 0.4911 0.61135 0.0
H1559 H 0.30282 0.50919 0.58171 0.0
H1560 H 0.33957 0.5473 0.58991 0.0
H1561 H 0.35179 0.52939 0.61952 0.0
H1562 H 0.34217 0.56511 0.62325 0.0
H1563 H 0.26245 0.56938 0.69332 0.0
H1564 H 0.28765 0.54362 0.72816 0.0
H1565 H 0.33474 0.50612 0.66243 0.0
C1566 C 0.28485 0.56969 0.5864 0.0
C1567 C 0.26712 0.59198 0.58463 0.0
C1568 C 0.25296 0.6008 0.60849 0.0
C1569 C 0.25674 0.58796 0.6339 0.0
C1570 C 0.27473 0.56635 0.63507 0.0
C1571 C 0.28856 0.55728 0.61196 0.0
C1572 C 0.30847 0.53536 0.61927 0.0
C1573 C 0.30123 0.50746 0.60457 0.0
C1574 C 0.33719 0.54487 0.6126 0.0
C1575 C 0.30419 0.5341 0.65023 0.0
C1576 C 0.28436 0.55179 0.65888 0.0
C1577 C 0.27781 0.55521 0.68677 0.0
C1578 C 0.29226 0.54051 0.7064 0.0
C1579 C 0.31316 0.52285 0.69802 0.0
C1580 C 0.31878 0.5193 0.6695 0.0
H1581 H 0.17314 0.52267 0.37593 0.0
H1582 H 0.19221 0.57095 0.30384 0.0
H1583 H 0.21962 0.60327 0.33334 0.0
H1584 H 0.16483 0.57907 0.42171 0.0
H1585 H 0.17934 0.56305 0.45147 0.0
H1586 H 0.16376 0.54184 0.42433 0.0
H1587 H 0.20742 0.51436 0.4184 0.0
H1588 H 0.22315 0.53548 0.44564 0.0
H1589 H 0.23835 0.53278 0.41197 0.0
H1590 H 0.24152 0.6325 0.37091 0.0
H1591 H 0.25631 0.65689 0.41423 0.0
H1592 H 0.22302 0.5897 0.46195 0.0
C1593 C 0.18349 0.53973 0.36625 0.0
C1594 C 0.18061 0.54425 0.33758 0.0
C1595 C 0.19414 0.56707 0.32578 0.0
C1596 C 0.20985 0.58549 0.34233 0.0
C1597 C 0.21189 0.58074 0.37061 0.0
C1598 C 0.19918 0.55838 0.38249 0.0
C1599 C 0.20312 0.55909 0.41368 0.0
C1600 C 0.17616 0.56088 0.42867 0.0
C1601 C 0.21896 0.53393 0.42296 0.0
C1602 C 0.21943 0.58573 0.41752 0.0
C1603 C 0.22451 0.59772 0.39238 0.0
C1604 C 0.23796 0.62317 0.39071 0.0
C1605 C 0.24621 0.63689 0.41543 0.0
C1606 C 0.24087 0.62517 0.44145 0.0
C1607 C 0.22764 0.59906 0.44238 0.0
loop_
_geom_bond_atom_site_label_1
_geom_bond_atom_site_label_2
_geom_bond_distance
_geom_bond_site_symmetry_2
_ccdc_geom_bond_type
C0 O1 1.160 . S
C0 O7 1.185 . S
O1 C0 1.160 . S
O2 Zn3 1.898 1_655 S
O2 C10 1.284 . S
Zn3 O2 1.898 1_455 S
Zn3 O4 2.032 . S
Zn3 O7 2.085 1_455 S
Zn3 O12 1.979 . S
O4 Zn3 2.032 . S
O4 C8 1.278 . S
C5 O6 1.203 . S
C5 O12 1.267 . S
O6 C5 1.203 . S
O7 C0 1.185 . S
O7 Zn3 2.085 1_655 S
C8 O4 1.278 . S
C8 O9 1.211 . S
O9 C8 1.211 . S
C10 O2 1.284 . S
C10 O11 1.273 1_655 S
O11 C10 1.273 1_455 S
O12 Zn3 1.979 . S
O12 C5 1.267 . S
C13 O14 1.160 . S
C13 O20 1.185 . S
O14 C13 1.160 . S
O15 Zn16 1.899 1_655 S
O15 C23 1.284 . S
Zn16 O15 1.899 1_455 S
Zn16 O17 2.032 . S
Zn16 O20 2.086 . S
Zn16 O25 1.977 1_455 S
O17 Zn16 2.032 . S
O17 C21 1.278 . S
C18 O19 1.203 . S
C18 O25 1.267 . S
O19 C18 1.203 . S
O20 C13 1.185 . S
O20 Zn16 2.086 . S
C21 O17 1.278 . S
C21 O22 1.207 . S
O22 C21 1.207 . S
C23 O15 1.284 . S
C23 O24 1.273 . S
O24 C23 1.273 . S
O25 Zn16 1.977 1_655 S
O25 C18 1.267 . S
C26 O27 1.160 . S
C26 O33 1.185 . S
O27 C26 1.160 . S
O28 Zn29 1.899 . S
O28 C36 1.284 . S
Zn29 O28 1.899 . S
Zn29 O30 2.032 . S
Zn29 O33 2.086 . S
Zn29 O38 1.977 . S
O30 Zn29 2.032 . S
O30 C34 1.278 . S
C31 O32 1.203 . S
C31 O38 1.267 . S
O32 C31 1.203 . S
O33 C26 1.185 . S
O33 Zn29 2.086 . S
C34 O30 1.278 . S
C34 O35 1.211 . S
O35 C34 1.211 . S
C36 O28 1.284 . S
C36 O37 1.273 . S
O37 C36 1.273 . S
O38 Zn29 1.977 . S
O38 C31 1.267 . S
C39 O40 1.160 . S
C39 O46 1.185 . S
O40 C39 1.160 . S
O41 Zn42 1.899 . S
O41 C49 1.284 . S
Zn42 O41 1.899 . S
Zn42 O43 2.032 . S
Zn42 O46 2.086 . S
Zn42 O51 1.977 . S
O43 Zn42 2.032 . S
O43 C47 1.278 . S
C44 O45 1.203 . S
C44 O51 1.267 . S
O45 C44 1.203 . S
O46 C39 1.185 . S
O46 Zn42 2.086 . S
C47 O43 1.278 . S
C47 O48 1.211 . S
O48 C47 1.211 . S
C49 O41 1.284 . S
C49 O50 1.273 . S
O50 C49 1.273 . S
O51 Zn42 1.977 . S
O51 C44 1.267 . S
C52 O53 1.160 . S
C52 O59 1.185 . S
O53 C52 1.160 . S
O54 Zn55 1.899 . S
O54 C62 1.284 . S
Zn55 O54 1.899 . S
Zn55 O56 2.032 . S
Zn55 O59 2.086 . S
Zn55 O64 1.977 1_455 S
O56 Zn55 2.032 . S
O56 C60 1.278 1_455 S
C57 O58 1.203 . S
C57 O64 1.267 . S
O58 C57 1.203 . S
O59 C52 1.185 . S
O59 Zn55 2.086 . S
C60 O56 1.278 1_655 S
C60 O61 1.211 . S
O61 C60 1.211 . S
C62 O54 1.284 . S
C62 O63 1.273 . S
O63 C62 1.273 . S
O64 Zn55 1.977 1_655 S
O64 C57 1.267 . S
C65 O66 1.160 . S
C65 O72 1.185 . S
O66 C65 1.160 . S
O67 Zn68 1.899 . S
O67 C75 1.284 . S
Zn68 O67 1.899 . S
Zn68 O69 2.032 . S
Zn68 O72 2.086 . S
Zn68 O77 1.977 . S
O69 Zn68 2.032 . S
O69 C73 1.278 . S
C70 O71 1.203 . S
C70 O77 1.267 . S
O71 C70 1.203 . S
O72 C65 1.185 . S
O72 Zn68 2.086 . S
C73 O69 1.278 . S
C73 O74 1.211 . S
O74 C73 1.211 . S
C75 O67 1.284 . S
C75 O76 1.273 . S
O76 C75 1.273 . S
O77 Zn68 1.977 . S
O77 C70 1.267 . S
C78 O79 1.160 . S
C78 O85 1.185 . S
O79 C78 1.160 . S
O80 Zn81 1.899 . S
O80 C88 1.284 . S
Zn81 O80 1.899 . S
Zn81 O82 2.032 . S
Zn81 O85 2.086 . S
Zn81 O90 1.977 . S
O82 Zn81 2.032 . S
O82 C86 1.278 . S
C83 O84 1.203 . S
C83 O90 1.267 . S
O84 C83 1.203 . S
O85 C78 1.185 . S
O85 Zn81 2.086 . S
C86 O82 1.278 . S
C86 O87 1.211 . S
O87 C86 1.211 . S
C88 O80 1.284 . S
C88 O89 1.273 . S
O89 C88 1.273 . S
O90 Zn81 1.977 . S
O90 C83 1.267 . S
C91 O92 1.160 . S
C91 O98 1.185 . S
O92 C91 1.160 . S
O93 Zn94 1.899 . S
O93 C101 1.284 . S
Zn94 O93 1.899 . S
Zn94 O95 2.032 1_455 S
Zn94 O98 2.086 1_455 S
Zn94 O103 1.977 . S
O95 Zn94 2.032 1_655 S
O95 C99 1.278 . S
C96 O97 1.203 . S
C96 O103 1.267 . S
O97 C96 1.203 . S
O98 C91 1.185 . S
O98 Zn94 2.086 1_655 S
C99 O95 1.278 . S
C99 O100 1.211 1_655 S
O100 C99 1.211 1_455 S
C101 O93 1.284 . S
C101 O102 1.273 . S
O102 C101 1.273 . S
O103 Zn94 1.977 . S
O103 C96 1.267 . S
C104 O105 1.160 . S
C104 O111 1.185 . S
O105 C104 1.160 . S
O106 Zn107 1.899 1_565 S
O106 C114 1.284 . S
Zn107 O106 1.899 1_545 S
Zn107 O108 2.032 . S
Zn107 O111 2.086 1_545 S
Zn107 O116 1.977 . S
O108 Zn107 2.032 . S
O108 C112 1.278 . S
C109 O110 1.203 . S
C109 O116 1.267 . S
O110 C109 1.203 . S
O111 C104 1.185 . S
O111 Zn107 2.086 1_565 S
C112 O108 1.278 . S
C112 O113 1.211 . S
O113 C112 1.211 . S
C114 O106 1.284 . S
C114 O115 1.273 1_565 S
O115 C114 1.273 1_545 S
O116 Zn107 1.977 . S
O116 C109 1.267 . S
C117 O118 1.160 . S
C117 O124 1.185 . S
O118 C117 1.160 . S
O119 Zn120 1.899 . S
O119 C127 1.284 . S
Zn120 O119 1.899 . S
Zn120 O121 2.032 . S
Zn120 O124 2.086 . S
Zn120 O129 1.977 . S
O121 Zn120 2.032 . S
O121 C125 1.278 . S
C122 O123 1.203 . S
C122 O129 1.267 . S
O123 C122 1.203 . S
O124 C117 1.185 . S
O124 Zn120 2.086 . S
C125 O121 1.278 . S
C125 O126 1.211 . S
O126 C125 1.211 . S
C127 O119 1.284 . S
C127 O128 1.273 . S
O128 C127 1.273 . S
O129 Zn120 1.977 . S
O129 C122 1.267 . S
C130 O131 1.160 . S
C130 O137 1.185 . S
O131 C130 1.160 . S
O132 Zn133 1.899 . S
O132 C140 1.284 . S
Zn133 O132 1.899 . S
Zn133 O134 2.032 1_545 S
Zn133 O137 2.086 . S
Zn133 O142 1.977 1_545 S
O134 Zn133 2.032 1_565 S
O134 C138 1.278 . S
C135 O136 1.203 . S
C135 O142 1.267 . S
O136 C135 1.203 . S
O137 C130 1.185 . S
O137 Zn133 2.086 . S
C138 O134 1.278 . S
C138 O139 1.211 . S
O139 C138 1.211 . S
C140 O132 1.284 . S
C140 O141 1.273 . S
O141 C140 1.273 . S
O142 Zn133 1.977 1_565 S
O142 C135 1.267 . S
C143 O144 1.160 . S
C143 O150 1.185 . S
O144 C143 1.160 . S
O145 Zn146 1.899 . S
O145 C153 1.284 . S
Zn146 O145 1.899 . S
Zn146 O147 2.032 1_554 S
Zn146 O150 2.086 1_554 S
Zn146 O155 1.977 . S
O147 Zn146 2.032 1_556 S
O147 C151 1.278 . S
C148 O149 1.203 . S
C148 O155 1.267 . S
O149 C148 1.203 . S
O150 C143 1.185 . S
O150 Zn146 2.086 1_556 S
C151 O147 1.278 . S
C151 O152 1.211 . S
O152 C151 1.211 . S
C153 O145 1.284 . S
C153 O154 1.273 . S
O154 C153 1.273 . S
O155 Zn146 1.977 . S
O155 C148 1.267 . S
C156 O157 1.160 . S
C156 O163 1.185 . S
O157 C156 1.160 . S
O158 Zn159 1.899 . S
O158 C166 1.284 . S
Zn159 O158 1.899 . S
Zn159 O160 2.032 1_554 S
Zn159 O163 2.086 . S
Zn159 O168 1.977 1_554 S
O160 Zn159 2.032 1_556 S
O160 C164 1.278 . S
C161 O162 1.204 . S
C161 O168 1.267 . S
O162 C161 1.204 . S
O163 C156 1.185 . S
O163 Zn159 2.086 . S
C164 O160 1.278 . S
C164 O165 1.211 . S
O165 C164 1.211 . S
C166 O158 1.284 . S
C166 O167 1.273 . S
O167 C166 1.273 . S
O168 Zn159 1.977 1_556 S
O168 C161 1.267 . S
C169 O170 1.160 . S
C169 O176 1.185 . S
O170 C169 1.160 . S
O171 Zn172 1.899 . S
O171 C179 1.284 . S
Zn172 O171 1.899 . S
Zn172 O173 2.032 1_554 S
Zn172 O176 2.086 . S
Zn172 O181 1.977 1_554 S
O173 Zn172 2.032 1_556 S
O173 C177 1.278 . S
C174 O175 1.203 . S
C174 O181 1.267 . S
O175 C174 1.203 . S
O176 C169 1.185 . S
O176 Zn172 2.086 . S
C177 O173 1.278 . S
C177 O178 1.211 . S
O178 C177 1.211 . S
C179 O171 1.284 . S
C179 O180 1.273 . S
O180 C179 1.273 . S
O181 Zn172 1.977 1_556 S
O181 C174 1.267 . S
C182 O183 1.160 . S
C182 O189 1.185 . S
O183 C182 1.160 . S
O184 Zn185 1.899 . S
O184 C192 1.284 . S
Zn185 O184 1.899 . S
Zn185 O186 2.032 . S
Zn185 O189 2.086 . S
Zn185 O194 1.977 . S
O186 Zn185 2.032 . S
O186 C190 1.278 . S
C187 O188 1.203 . S
C187 O194 1.267 . S
O188 C187 1.203 . S
O189 C182 1.185 . S
O189 Zn185 2.086 . S
C190 O186 1.278 . S
C190 O191 1.211 . S
O191 C190 1.211 . S
C192 O184 1.284 . S
C192 O193 1.273 . S
O193 C192 1.273 . S
O194 Zn185 1.977 . S
O194 C187 1.267 . S
C195 O196 1.160 . S
C195 O202 1.185 . S
O196 C195 1.160 . S
O197 Zn198 1.899 . S
O197 C205 1.284 . S
Zn198 O197 1.899 . S
Zn198 O199 2.032 . S
Zn198 O202 2.086 . S
Zn198 O207 1.977 . S
O199 Zn198 2.032 . S
O199 C203 1.278 . S
C200 O201 1.203 . S
C200 O207 1.267 . S
O201 C200 1.203 . S
O202 C195 1.185 . S
O202 Zn198 2.086 . S
C203 O199 1.278 . S
C203 O204 1.211 . S
O204 C203 1.211 . S
C205 O197 1.284 . S
C205 O206 1.273 . S
O206 C205 1.273 . S
O207 Zn198 1.977 . S
O207 C200 1.267 . S
C208 O209 1.160 . S
C208 O215 1.185 . S
O209 C208 1.160 . S
O210 Zn211 1.899 . S
O210 C218 1.284 . S
Zn211 O210 1.899 . S
Zn211 O212 2.032 1_565 S
Zn211 O215 2.086 1_565 S
Zn211 O220 1.977 . S
O212 Zn211 2.032 1_545 S
O212 C216 1.278 . S
C213 O214 1.203 . S
C213 O220 1.267 . S
O214 C213 1.203 . S
O215 C208 1.185 . S
O215 Zn211 2.086 1_545 S
C216 O212 1.278 . S
C216 O217 1.211 . S
O217 C216 1.211 . S
C218 O210 1.284 . S
C218 O219 1.273 . S
O219 C218 1.273 . S
O220 Zn211 1.977 . S
O220 C213 1.267 . S
C221 O222 1.160 . S
C221 O228 1.185 . S
O222 C221 1.160 . S
O223 Zn224 1.899 . S
O223 C231 1.284 . S
Zn224 O223 1.899 . S
Zn224 O225 2.032 . S
Zn224 O228 2.086 . S
Zn224 O233 1.977 . S
O225 Zn224 2.032 . S
O225 C229 1.278 . S
C226 O227 1.203 . S
C226 O233 1.267 . S
O227 C226 1.203 . S
O228 C221 1.185 . S
O228 Zn224 2.086 . S
C229 O225 1.278 . S
C229 O230 1.211 . S
O230 C229 1.211 . S
C231 O223 1.284 . S
C231 O232 1.273 . S
O232 C231 1.273 . S
O233 Zn224 1.977 . S
O233 C226 1.267 . S
C234 O235 1.160 . S
C234 O241 1.185 . S
O235 C234 1.160 . S
O236 Zn237 1.899 . S
O236 C244 1.284 . S
Zn237 O236 1.899 . S
Zn237 O238 2.032 . S
Zn237 O241 2.086 . S
Zn237 O246 1.977 . S
O238 Zn237 2.032 . S
O238 C242 1.278 . S
C239 O240 1.203 . S
C239 O246 1.267 . S
O240 C239 1.203 . S
O241 C234 1.185 . S
O241 Zn237 2.086 . S
C242 O238 1.278 . S
C242 O243 1.211 . S
O243 C242 1.211 . S
C244 O236 1.284 . S
C244 O245 1.273 . S
O245 C244 1.273 . S
O246 Zn237 1.977 . S
O246 C239 1.267 . S
C247 O248 1.160 . S
C247 O254 1.185 . S
O248 C247 1.160 . S
O249 Zn250 1.899 1_565 S
O249 C257 1.284 . S
Zn250 O249 1.899 1_545 S
Zn250 O251 2.032 . S
Zn250 O254 2.086 . S
Zn250 O259 1.977 1_545 S
O251 Zn250 2.032 . S
O251 C255 1.278 . S
C252 O253 1.203 . S
C252 O259 1.267 . S
O253 C252 1.203 . S
O254 C247 1.185 . S
O254 Zn250 2.086 . S
C255 O251 1.278 . S
C255 O256 1.211 1_545 S
O256 C255 1.211 1_565 S
C257 O249 1.284 . S
C257 O258 1.273 . S
O258 C257 1.273 . S
O259 Zn250 1.977 1_565 S
O259 C252 1.267 . S
C260 O261 1.160 . S
C260 O267 1.185 . S
O261 C260 1.160 . S
O262 Zn263 1.899 . S
O262 C270 1.284 . S
Zn263 O262 1.899 . S
Zn263 O264 2.032 1_554 S
Zn263 O267 2.086 1_554 S
Zn263 O272 1.977 . S
O264 Zn263 2.032 1_556 S
O264 C268 1.278 . S
C265 O266 1.203 . S
C265 O272 1.267 . S
O266 C265 1.203 . S
O267 C260 1.185 . S
O267 Zn263 2.086 1_556 S
C268 O264 1.278 . S
C268 O269 1.211 . S
O269 C268 1.211 . S
C270 O262 1.284 . S
C270 O271 1.273 . S
O271 C270 1.273 . S
O272 Zn263 1.977 . S
O272 C265 1.267 . S
C273 O274 1.160 . S
C273 O280 1.185 . S
O274 C273 1.160 . S
O275 Zn276 1.899 . S
O275 C283 1.284 . S
Zn276 O275 1.899 . S
Zn276 O277 2.032 . S
Zn276 O280 2.086 . S
Zn276 O285 1.977 . S
O277 Zn276 2.032 . S
O277 C281 1.278 . S
C278 O279 1.203 . S
C278 O285 1.267 . S
O279 C278 1.203 . S
O280 C273 1.185 . S
O280 Zn276 2.086 . S
C281 O277 1.278 . S
C281 O282 1.211 . S
O282 C281 1.211 . S
C283 O275 1.284 . S
C283 O284 1.273 . S
O284 C283 1.273 . S
O285 Zn276 1.977 . S
O285 C278 1.267 . S
C286 O287 1.160 . S
C286 O293 1.185 . S
O287 C286 1.160 . S
O288 Zn289 1.899 . S
O288 C296 1.284 . S
Zn289 O288 1.899 . S
Zn289 O290 2.032 . S
Zn289 O293 2.086 . S
Zn289 O298 1.977 . S
O290 Zn289 2.032 . S
O290 C294 1.278 . S
C291 O292 1.203 . S
C291 O298 1.267 . S
O292 C291 1.203 . S
O293 C286 1.185 . S
O293 Zn289 2.086 . S
C294 O290 1.278 . S
C294 O295 1.211 . S
O295 C294 1.211 . S
C296 O288 1.284 . S
C296 O297 1.273 . S
O297 C296 1.273 . S
O298 Zn289 1.977 . S
O298 C291 1.267 . S
C299 O300 1.160 . S
C299 O306 1.185 . S
O300 C299 1.160 . S
O301 Zn302 1.899 . S
O301 C309 1.284 . S
Zn302 O301 1.899 . S
Zn302 O303 2.032 . S
Zn302 O306 2.086 . S
Zn302 O311 1.977 . S
O303 Zn302 2.032 . S
O303 C307 1.278 . S
C304 O305 1.203 . S
C304 O311 1.267 . S
O305 C304 1.203 . S
O306 C299 1.185 . S
O306 Zn302 2.086 . S
C307 O303 1.278 . S
C307 O308 1.211 . S
O308 C307 1.211 . S
C309 O301 1.284 . S
C309 O310 1.273 . S
O310 C309 1.273 . S
O311 Zn302 1.977 . S
O311 C304 1.267 . S
H312 C324 0.930 . S
H313 C326 0.930 . S
H314 C327 0.930 . S
H315 C331 0.959 . S
H316 C331 0.959 1_655 S
H317 C331 0.961 . S
H318 C332 0.960 . S
H319 C332 0.961 . S
H320 C332 0.959 . S
H321 C335 0.929 . S
H322 C336 0.931 . S
H323 C338 0.930 . S
C324 H312 0.930 . S
C324 C325 1.399 . S
C324 C329 1.399 . S
C325 C324 1.399 . S
C325 C326 1.376 . S
C326 H313 0.930 . S
C326 C325 1.376 . S
C326 C327 1.388 . S
C327 H314 0.930 . S
C327 C326 1.388 . S
C327 C328 1.390 . S
C328 C327 1.390 . S
C328 C329 1.394 . S
C328 C334 1.465 . S
C329 C324 1.399 . S
C329 C328 1.394 . S
C329 C330 1.516 . S
C330 C329 1.516 . S
C330 C331 1.502 . S
C330 C332 1.561 . S
C330 C333 1.526 . S
C331 H315 0.959 . S
C331 H316 0.959 1_455 S
C331 H317 0.961 . S
C331 C330 1.502 . S
C332 H318 0.960 . S
C332 H319 0.961 . S
C332 H320 0.959 . S
C332 C330 1.561 . S
C333 C330 1.526 . S
C333 C334 1.396 . S
C333 C338 1.390 . S
C334 C328 1.465 . S
C334 C333 1.396 . S
C334 C335 1.399 . S
C335 H321 0.929 . S
C335 C334 1.399 . S
C335 C336 1.385 . S
C336 H322 0.931 . S
C336 C335 1.385 . S
C336 C337 1.389 . S
C337 C336 1.389 . S
C337 C338 1.387 . S
C338 H323 0.930 . S
C338 C333 1.390 . S
C338 C337 1.387 . S
H339 C351 0.930 . S
H340 C353 0.930 . S
H341 C354 0.930 . S
H342 C358 0.959 . S
H343 C358 0.959 . S
H344 C358 0.961 . S
H345 C359 0.960 . S
H346 C359 0.961 . S
H347 C359 0.959 . S
H348 C362 0.929 . S
H349 C363 0.931 . S
H350 C365 0.930 . S
C351 H339 0.930 . S
C351 C352 1.399 . S
C351 C356 1.399 . S
C352 C351 1.399 . S
C352 C353 1.376 . S
C353 H340 0.930 . S
C353 C352 1.376 . S
C353 C354 1.388 . S
C354 H341 0.930 . S
C354 C353 1.388 . S
C354 C355 1.390 . S
C355 C354 1.390 . S
C355 C356 1.394 . S
C355 C361 1.465 . S
C356 C351 1.399 . S
C356 C355 1.394 . S
C356 C357 1.516 . S
C357 C356 1.516 . S
C357 C358 1.502 . S
C357 C359 1.561 . S
C357 C360 1.526 . S
C358 H342 0.959 . S
C358 H343 0.959 . S
C358 H344 0.961 . S
C358 C357 1.502 . S
C359 H345 0.960 . S
C359 H346 0.961 . S
C359 H347 0.959 . S
C359 C357 1.561 . S
C360 C357 1.526 . S
C360 C361 1.396 . S
C360 C365 1.390 . S
C361 C355 1.465 . S
C361 C360 1.396 . S
C361 C362 1.399 . S
C362 H348 0.929 . S
C362 C361 1.399 . S
C362 C363 1.385 . S
C363 H349 0.931 . S
C363 C362 1.385 . S
C363 C364 1.389 . S
C364 C363 1.389 . S
C364 C365 1.387 . S
C365 H350 0.930 . S
C365 C360 1.390 . S
C365 C364 1.387 . S
H366 C378 0.930 . S
H367 C380 0.930 . S
H368 C381 0.930 . S
H369 C385 0.959 . S
H370 C385 0.959 . S
H371 C385 0.961 . S
H372 C386 0.960 . S
H373 C386 0.961 . S
H374 C386 0.959 . S
H375 C389 0.929 . S
H376 C390 0.931 . S
H377 C392 0.930 . S
C378 H366 0.930 . S
C378 C379 1.399 . S
C378 C383 1.399 . S
C379 C378 1.399 . S
C379 C380 1.376 . S
C380 H367 0.930 . S
C380 C379 1.376 . S
C380 C381 1.388 . S
C381 H368 0.930 . S
C381 C380 1.388 . S
C381 C382 1.390 . S
C382 C381 1.390 . S
C382 C383 1.394 . S
C382 C388 1.465 . S
C383 C378 1.399 . S
C383 C382 1.394 . S
C383 C384 1.516 . S
C384 C383 1.516 . S
C384 C385 1.502 . S
C384 C386 1.561 . S
C384 C387 1.526 . S
C385 H369 0.959 . S
C385 H370 0.959 . S
C385 H371 0.961 . S
C385 C384 1.502 . S
C386 H372 0.960 . S
C386 H373 0.961 . S
C386 H374 0.959 . S
C386 C384 1.561 . S
C387 C384 1.526 . S
C387 C388 1.396 . S
C387 C392 1.390 . S
C388 C382 1.465 . S
C388 C387 1.396 . S
C388 C389 1.399 . S
C389 H375 0.929 . S
C389 C388 1.399 . S
C389 C390 1.385 . S
C390 H376 0.931 . S
C390 C389 1.385 . S
C390 C391 1.389 . S
C391 C390 1.389 . S
C391 C392 1.387 . S
C392 H377 0.930 . S
C392 C387 1.390 . S
C392 C391 1.387 . S
H393 C405 0.930 . S
H394 C407 0.930 . S
H395 C408 0.930 . S
H396 C412 0.959 . S
H397 C412 0.959 1_556 S
H398 C412 0.961 . S
H399 C413 0.960 . S
H400 C413 0.961 . S
H401 C413 0.959 . S
H402 C416 0.929 . S
H403 C417 0.931 . S
H404 C419 0.930 . S
C405 H393 0.930 . S
C405 C406 1.399 . S
C405 C410 1.399 . S
C406 C405 1.399 . S
C406 C407 1.376 . S
C407 H394 0.930 . S
C407 C406 1.376 . S
C407 C408 1.388 . S
C408 H395 0.930 . S
C408 C407 1.388 . S
C408 C409 1.390 . S
C409 C408 1.390 . S
C409 C410 1.394 . S
C409 C415 1.465 . S
C410 C405 1.399 . S
C410 C409 1.394 . S
C410 C411 1.516 . S
C411 C410 1.516 . S
C411 C412 1.502 . S
C411 C413 1.561 . S
C411 C414 1.526 . S
C412 H396 0.959 . S
C412 H397 0.959 1_554 S
C412 H398 0.961 . S
C412 C411 1.502 . S
C413 H399 0.960 . S
C413 H400 0.961 . S
C413 H401 0.959 . S
C413 C411 1.561 . S
C414 C411 1.526 . S
C414 C415 1.396 . S
C414 C419 1.390 . S
C415 C409 1.465 . S
C415 C414 1.396 . S
C415 C416 1.399 . S
C416 H402 0.929 . S
C416 C415 1.399 . S
C416 C417 1.385 . S
C417 H403 0.931 . S
C417 C416 1.385 . S
C417 C418 1.389 . S
C418 C417 1.389 . S
C418 C419 1.387 . S
C419 H404 0.930 . S
C419 C414 1.390 . S
C419 C418 1.387 . S
H420 C432 0.930 . S
H421 C434 0.930 . S
H422 C435 0.930 . S
H423 C439 0.959 . S
H424 C439 0.959 . S
H425 C439 0.961 . S
H426 C440 0.960 . S
H427 C440 0.961 . S
H428 C440 0.959 . S
H429 C443 0.929 . S
H430 C444 0.931 . S
H431 C446 0.930 . S
C432 H420 0.930 . S
C432 C433 1.399 . S
C432 C437 1.399 . S
C433 C432 1.399 . S
C433 C434 1.376 . S
C434 H421 0.930 . S
C434 C433 1.376 . S
C434 C435 1.388 . S
C435 H422 0.930 . S
C435 C434 1.388 . S
C435 C436 1.390 . S
C436 C435 1.390 . S
C436 C437 1.394 . S
C436 C442 1.465 . S
C437 C432 1.399 . S
C437 C436 1.394 . S
C437 C438 1.516 . S
C438 C437 1.516 . S
C438 C439 1.502 . S
C438 C440 1.561 . S
C438 C441 1.526 . S
C439 H423 0.959 . S
C439 H424 0.959 . S
C439 H425 0.961 . S
C439 C438 1.502 . S
C440 H426 0.960 . S
C440 H427 0.961 . S
C440 H428 0.959 . S
C440 C438 1.561 . S
C441 C438 1.526 . S
C441 C442 1.396 . S
C441 C446 1.390 . S
C442 C436 1.465 . S
C442 C441 1.396 . S
C442 C443 1.399 . S
C443 H429 0.929 . S
C443 C442 1.399 . S
C443 C444 1.385 . S
C444 H430 0.931 . S
C444 C443 1.385 . S
C444 C445 1.389 . S
C445 C444 1.389 . S
C445 C446 1.387 . S
C446 H431 0.930 . S
C446 C441 1.390 . S
C446 C445 1.387 . S
H447 C459 0.930 . S
H448 C461 0.930 . S
H449 C462 0.930 . S
H450 C466 0.959 . S
H451 C466 0.959 . S
H452 C466 0.961 . S
H453 C467 0.960 . S
H454 C467 0.961 . S
H455 C467 0.959 . S
H456 C470 0.929 . S
H457 C471 0.931 . S
H458 C473 0.930 . S
C459 H447 0.930 . S
C459 C460 1.399 . S
C459 C464 1.399 . S
C460 C459 1.399 . S
C460 C461 1.376 . S
C461 H448 0.930 . S
C461 C460 1.376 . S
C461 C462 1.388 . S
C462 H449 0.930 . S
C462 C461 1.388 . S
C462 C463 1.390 . S
C463 C462 1.390 . S
C463 C464 1.394 . S
C463 C469 1.465 . S
C464 C459 1.399 . S
C464 C463 1.394 . S
C464 C465 1.516 . S
C465 C464 1.516 . S
C465 C466 1.502 . S
C465 C467 1.561 . S
C465 C468 1.526 . S
C466 H450 0.959 . S
C466 H451 0.959 . S
C466 H452 0.961 . S
C466 C465 1.502 . S
C467 H453 0.960 . S
C467 H454 0.961 . S
C467 H455 0.959 . S
C467 C465 1.561 . S
C468 C465 1.526 . S
C468 C469 1.396 . S
C468 C473 1.390 . S
C469 C463 1.465 . S
C469 C468 1.396 . S
C469 C470 1.399 . S
C470 H456 0.929 . S
C470 C469 1.399 . S
C470 C471 1.385 . S
C471 H457 0.931 . S
C471 C470 1.385 . S
C471 C472 1.389 . S
C472 C471 1.389 . S
C472 C473 1.387 . S
C473 H458 0.930 . S
C473 C468 1.390 . S
C473 C472 1.387 . S
H474 C486 0.930 . S
H475 C488 0.930 . S
H476 C489 0.930 . S
H477 C493 0.959 . S
H478 C493 0.959 . S
H479 C493 0.961 . S
H480 C494 0.960 . S
H481 C494 0.961 . S
H482 C494 0.959 . S
H483 C497 0.929 . S
H484 C498 0.931 . S
H485 C500 0.930 . S
C486 H474 0.930 . S
C486 C487 1.399 . S
C486 C491 1.399 . S
C487 C486 1.399 . S
C487 C488 1.376 . S
C488 H475 0.930 . S
C488 C487 1.376 . S
C488 C489 1.388 . S
C489 H476 0.930 . S
C489 C488 1.388 . S
C489 C490 1.390 . S
C490 C489 1.390 . S
C490 C491 1.394 . S
C490 C496 1.465 . S
C491 C486 1.399 . S
C491 C490 1.394 . S
C491 C492 1.516 . S
C492 C491 1.516 . S
C492 C493 1.502 . S
C492 C494 1.561 . S
C492 C495 1.526 . S
C493 H477 0.959 . S
C493 H478 0.959 . S
C493 H479 0.961 . S
C493 C492 1.502 . S
C494 H480 0.960 . S
C494 H481 0.961 . S
C494 H482 0.959 . S
C494 C492 1.561 . S
C495 C492 1.526 . S
C495 C496 1.396 . S
C495 C500 1.390 . S
C496 C490 1.465 . S
C496 C495 1.396 . S
C496 C497 1.399 . S
C497 H483 0.929 . S
C497 C496 1.399 . S
C497 C498 1.385 . S
C498 H484 0.931 . S
C498 C497 1.385 . S
C498 C499 1.389 . S
C499 C498 1.389 . S
C499 C500 1.387 . S
C500 H485 0.930 . S
C500 C495 1.390 . S
C500 C499 1.387 . S
H501 C513 0.930 . S
H502 C515 0.930 . S
H503 C516 0.930 . S
H504 C520 0.959 1_556 S
H505 C520 0.959 . S
H506 C520 0.961 . S
H507 C521 0.960 . S
H508 C521 0.961 . S
H509 C521 0.959 1_556 S
H510 C524 0.929 . S
H511 C525 0.931 . S
H512 C527 0.930 1_554 S
C513 H501 0.930 . S
C513 C514 1.399 . S
C513 C518 1.399 . S
C514 C513 1.399 . S
C514 C515 1.376 . S
C515 H502 0.930 . S
C515 C514 1.376 . S
C515 C516 1.388 . S
C516 H503 0.930 . S
C516 C515 1.388 . S
C516 C517 1.390 . S
C517 C516 1.390 . S
C517 C518 1.394 . S
C517 C523 1.465 . S
C518 C513 1.399 . S
C518 C517 1.394 . S
C518 C519 1.516 . S
C519 C518 1.516 . S
C519 C520 1.502 1_556 S
C519 C521 1.561 1_556 S
C519 C522 1.526 . S
C520 H504 0.959 1_554 S
C520 H505 0.959 . S
C520 H506 0.961 . S
C520 C519 1.502 1_554 S
C521 H507 0.960 . S
C521 H508 0.961 . S
C521 H509 0.959 1_554 S
C521 C519 1.561 1_554 S
C522 C519 1.526 . S
C522 C523 1.396 . S
C522 C527 1.390 . S
C523 C517 1.465 . S
C523 C522 1.396 . S
C523 C524 1.399 . S
C524 H510 0.929 . S
C524 C523 1.399 . S
C524 C525 1.385 . S
C525 H511 0.931 . S
C525 C524 1.385 . S
C525 C526 1.389 . S
C526 C525 1.389 . S
C526 C527 1.387 . S
C527 H512 0.930 1_556 S
C527 C522 1.390 . S
C527 C526 1.387 . S
H528 C540 0.930 . S
H529 C542 0.930 . S
H530 C543 0.930 . S
H531 C547 0.959 . S
H532 C547 0.959 . S
H533 C547 0.961 . S
H534 C548 0.960 . S
H535 C548 0.961 . S
H536 C548 0.959 . S
H537 C551 0.929 . S
H538 C552 0.931 . S
H539 C554 0.930 . S
C540 H528 0.930 . S
C540 C541 1.399 . S
C540 C545 1.399 . S
C541 C540 1.399 . S
C541 C542 1.376 . S
C542 H529 0.930 . S
C542 C541 1.376 . S
C542 C543 1.388 . S
C543 H530 0.930 . S
C543 C542 1.388 . S
C543 C544 1.390 . S
C544 C543 1.390 . S
C544 C545 1.394 . S
C544 C550 1.465 . S
C545 C540 1.399 . S
C545 C544 1.394 . S
C545 C546 1.516 . S
C546 C545 1.516 . S
C546 C547 1.502 . S
C546 C548 1.561 . S
C546 C549 1.526 . S
C547 H531 0.959 . S
C547 H532 0.959 . S
C547 H533 0.961 . S
C547 C546 1.502 . S
C548 H534 0.960 . S
C548 H535 0.961 . S
C548 H536 0.959 . S
C548 C546 1.561 . S
C549 C546 1.526 . S
C549 C550 1.396 . S
C549 C554 1.390 . S
C550 C544 1.465 . S
C550 C549 1.396 . S
C550 C551 1.399 . S
C551 H537 0.929 . S
C551 C550 1.399 . S
C551 C552 1.385 . S
C552 H538 0.931 . S
C552 C551 1.385 . S
C552 C553 1.389 . S
C553 C552 1.389 . S
C553 C554 1.387 . S
C554 H539 0.930 . S
C554 C549 1.390 . S
C554 C553 1.387 . S
H555 C567 0.930 . S
H556 C569 0.916 1_565 S
H557 C570 0.930 . S
H558 C574 0.959 . S
H559 C574 0.959 . S
H560 C574 0.961 . S
H561 C575 0.960 . S
H562 C575 0.961 . S
H563 C575 0.959 . S
H564 C578 0.929 . S
H565 C579 0.931 . S
H566 C581 0.930 . S
C567 H555 0.930 . S
C567 C568 1.399 . S
C567 C572 1.399 . S
C568 C567 1.399 . S
C568 C569 1.376 . S
C569 H556 0.916 1_545 S
C569 C568 1.376 . S
C569 C570 1.388 . S
C570 H557 0.930 . S
C570 C569 1.388 . S
C570 C571 1.390 . S
C571 C570 1.390 . S
C571 C572 1.394 . S
C571 C577 1.465 . S
C572 C567 1.399 . S
C572 C571 1.394 . S
C572 C573 1.516 . S
C573 C572 1.516 . S
C573 C574 1.502 . S
C573 C575 1.561 . S
C573 C576 1.526 . S
C574 H558 0.959 . S
C574 H559 0.959 . S
C574 H560 0.961 . S
C574 C573 1.502 . S
C575 H561 0.960 . S
C575 H562 0.961 . S
C575 H563 0.959 . S
C575 C573 1.561 . S
C576 C573 1.526 . S
C576 C577 1.396 . S
C576 C581 1.390 . S
C577 C571 1.465 . S
C577 C576 1.396 . S
C577 C578 1.399 . S
C578 H564 0.929 . S
C578 C577 1.399 . S
C578 C579 1.385 . S
C579 H565 0.931 . S
C579 C578 1.385 . S
C579 C580 1.389 . S
C580 C579 1.389 . S
C580 C581 1.387 . S
C581 H566 0.930 . S
C581 C576 1.390 . S
C581 C580 1.387 . S
H582 C594 0.930 1_545 S
H583 C596 0.930 . S
H584 C597 0.930 . S
H585 C601 0.959 . S
H586 C601 0.959 . S
H587 C601 0.961 1_545 S
H588 C602 0.960 . S
H589 C602 0.961 . S
H590 C602 0.959 . S
H591 C605 0.929 . S
H592 C606 0.931 . S
H593 C608 0.930 . S
C594 H582 0.930 1_565 S
C594 C595 1.399 . S
C594 C599 1.399 . S
C595 C594 1.399 . S
C595 C596 1.376 . S
C596 H583 0.930 . S
C596 C595 1.376 . S
C596 C597 1.388 . S
C597 H584 0.930 . S
C597 C596 1.388 . S
C597 C598 1.390 . S
C598 C597 1.390 . S
C598 C599 1.394 . S
C598 C604 1.465 . S
C599 C594 1.399 . S
C599 C598 1.394 . S
C599 C600 1.516 . S
C600 C599 1.516 . S
C600 C601 1.502 . S
C600 C602 1.561 1_565 S
C600 C603 1.526 . S
C601 H585 0.959 . S
C601 H586 0.959 . S
C601 H587 0.961 1_565 S
C601 C600 1.502 . S
C602 H588 0.960 . S
C602 H589 0.961 . S
C602 H590 0.959 . S
C602 C600 1.561 1_545 S
C603 C600 1.526 . S
C603 C604 1.396 . S
C603 C608 1.390 . S
C604 C598 1.465 . S
C604 C603 1.396 . S
C604 C605 1.399 . S
C605 H591 0.929 . S
C605 C604 1.399 . S
C605 C606 1.385 . S
C606 H592 0.931 . S
C606 C605 1.385 . S
C606 C607 1.389 . S
C607 C606 1.389 . S
C607 C608 1.387 . S
C608 H593 0.930 . S
C608 C603 1.390 . S
C608 C607 1.387 . S
H609 C621 0.930 . S
H610 C623 0.930 . S
H611 C624 0.930 . S
H612 C628 0.959 . S
H613 C628 0.959 . S
H614 C628 0.961 . S
H615 C629 0.960 . S
H616 C629 0.961 . S
H617 C629 0.959 . S
H618 C632 0.929 . S
H619 C633 0.931 1_545 S
H620 C635 0.930 . S
C621 H609 0.930 . S
C621 C622 1.399 . S
C621 C626 1.399 . S
C622 C621 1.399 . S
C622 C623 1.376 . S
C623 H610 0.930 . S
C623 C622 1.376 . S
C623 C624 1.388 . S
C624 H611 0.930 . S
C624 C623 1.388 . S
C624 C625 1.390 . S
C625 C624 1.390 . S
C625 C626 1.394 . S
C625 C631 1.465 . S
C626 C621 1.399 . S
C626 C625 1.394 . S
C626 C627 1.516 . S
C627 C626 1.516 . S
C627 C628 1.502 . S
C627 C629 1.561 . S
C627 C630 1.526 . S
C628 H612 0.959 . S
C628 H613 0.959 . S
C628 H614 0.961 . S
C628 C627 1.502 . S
C629 H615 0.960 . S
C629 H616 0.961 . S
C629 H617 0.959 . S
C629 C627 1.561 . S
C630 C627 1.526 . S
C630 C631 1.396 . S
C630 C635 1.390 . S
C631 C625 1.465 . S
C631 C630 1.396 . S
C631 C632 1.399 . S
C632 H618 0.929 . S
C632 C631 1.399 . S
C632 C633 1.385 . S
C633 H619 0.931 1_565 S
C633 C632 1.385 . S
C633 C634 1.389 . S
C634 C633 1.389 . S
C634 C635 1.387 . S
C635 H620 0.930 . S
C635 C630 1.390 . S
C635 C634 1.387 . S
H636 C648 0.930 . S
H637 C650 0.930 . S
H638 C651 0.930 . S
H639 C655 0.959 . S
H640 C655 0.959 . S
H641 C655 0.961 . S
H642 C656 0.960 . S
H643 C656 0.961 . S
H644 C656 0.959 . S
H645 C659 0.929 . S
H646 C660 0.931 . S
H647 C662 0.930 . S
C648 H636 0.930 . S
C648 C649 1.399 . S
C648 C653 1.399 . S
C649 C648 1.399 . S
C649 C650 1.376 . S
C650 H637 0.930 . S
C650 C649 1.376 . S
C650 C651 1.388 . S
C651 H638 0.930 . S
C651 C650 1.388 . S
C651 C652 1.390 . S
C652 C651 1.390 . S
C652 C653 1.394 . S
C652 C658 1.465 . S
C653 C648 1.399 . S
C653 C652 1.394 . S
C653 C654 1.516 . S
C654 C653 1.516 . S
C654 C655 1.502 . S
C654 C656 1.561 . S
C654 C657 1.526 . S
C655 H639 0.959 . S
C655 H640 0.959 . S
C655 H641 0.961 . S
C655 C654 1.502 . S
C656 H642 0.960 . S
C656 H643 0.961 . S
C656 H644 0.959 . S
C656 C654 1.561 . S
C657 C654 1.526 . S
C657 C658 1.396 . S
C657 C662 1.390 . S
C658 C652 1.465 . S
C658 C657 1.396 . S
C658 C659 1.399 . S
C659 H645 0.929 . S
C659 C658 1.399 . S
C659 C660 1.385 . S
C660 H646 0.931 . S
C660 C659 1.385 . S
C660 C661 1.389 . S
C661 C660 1.389 . S
C661 C662 1.387 . S
C662 H647 0.930 . S
C662 C657 1.390 . S
C662 C661 1.387 . S
H663 C675 0.930 . S
H664 C677 0.930 1_455 S
H665 C678 0.953 . S
H666 C682 0.959 . S
H667 C682 0.959 . S
H668 C682 0.961 . S
H669 C683 0.960 . S
H670 C683 0.961 . S
H671 C683 0.959 . S
H672 C686 0.929 . S
H673 C687 0.931 . S
H674 C689 0.930 . S
C675 H663 0.930 . S
C675 C676 1.399 . S
C675 C680 1.399 . S
C676 C675 1.399 . S
C676 C677 1.376 . S
C677 H664 0.930 1_655 S
C677 C676 1.376 . S
C677 C678 1.388 . S
C678 H665 0.953 . S
C678 C677 1.388 . S
C678 C679 1.390 . S
C679 C678 1.390 . S
C679 C680 1.394 . S
C679 C685 1.465 . S
C680 C675 1.399 . S
C680 C679 1.394 . S
C680 C681 1.516 . S
C681 C680 1.516 . S
C681 C682 1.502 . S
C681 C683 1.561 . S
C681 C684 1.526 . S
C682 H666 0.959 . S
C682 H667 0.959 . S
C682 H668 0.961 . S
C682 C681 1.502 . S
C683 H669 0.960 . S
C683 H670 0.961 . S
C683 H671 0.959 . S
C683 C681 1.561 . S
C684 C681 1.526 . S
C684 C685 1.396 . S
C684 C689 1.390 . S
C685 C679 1.465 . S
C685 C684 1.396 . S
C685 C686 1.399 . S
C686 H672 0.929 . S
C686 C685 1.399 . S
C686 C687 1.385 . S
C687 H673 0.931 . S
C687 C686 1.385 . S
C687 C688 1.389 . S
C688 C687 1.389 . S
C688 C689 1.387 . S
C689 H674 0.930 . S
C689 C684 1.390 . S
C689 C688 1.387 . S
H690 C702 0.930 . S
H691 C704 0.930 . S
H692 C705 0.930 . S
H693 C709 0.959 . S
H694 C709 0.959 . S
H695 C709 0.961 . S
H696 C710 0.960 . S
H697 C710 0.961 . S
H698 C710 0.959 . S
H699 C713 0.929 . S
H700 C714 0.931 . S
H701 C716 0.930 . S
C702 H690 0.930 . S
C702 C703 1.399 . S
C702 C707 1.399 . S
C703 C702 1.399 . S
C703 C704 1.376 . S
C704 H691 0.930 . S
C704 C703 1.376 . S
C704 C705 1.388 . S
C705 H692 0.930 . S
C705 C704 1.388 . S
C705 C706 1.390 . S
C706 C705 1.390 . S
C706 C707 1.394 . S
C706 C712 1.465 . S
C707 C702 1.399 . S
C707 C706 1.394 . S
C707 C708 1.516 . S
C708 C707 1.516 . S
C708 C709 1.502 . S
C708 C710 1.561 . S
C708 C711 1.526 . S
C709 H693 0.959 . S
C709 H694 0.959 . S
C709 H695 0.961 . S
C709 C708 1.502 . S
C710 H696 0.960 . S
C710 H697 0.961 . S
C710 H698 0.959 . S
C710 C708 1.561 . S
C711 C708 1.526 . S
C711 C712 1.396 . S
C711 C716 1.390 . S
C712 C706 1.465 . S
C712 C711 1.396 . S
C712 C713 1.399 . S
C713 H699 0.929 . S
C713 C712 1.399 . S
C713 C714 1.385 . S
C714 H700 0.931 . S
C714 C713 1.385 . S
C714 C715 1.389 . S
C715 C714 1.389 . S
C715 C716 1.387 . S
C716 H701 0.930 . S
C716 C711 1.390 . S
C716 C715 1.387 . S
H717 C729 0.930 . S
H718 C731 0.930 . S
H719 C732 0.930 . S
H720 C736 0.959 . S
H721 C736 0.959 . S
H722 C736 0.961 . S
H723 C737 0.960 . S
H724 C737 0.961 . S
H725 C737 0.959 . S
H726 C740 0.929 . S
H727 C741 0.931 . S
H728 C743 0.930 . S
C729 H717 0.930 . S
C729 C730 1.399 . S
C729 C734 1.399 . S
C730 C729 1.399 . S
C730 C731 1.376 . S
C731 H718 0.930 . S
C731 C730 1.376 . S
C731 C732 1.388 . S
C732 H719 0.930 . S
C732 C731 1.388 . S
C732 C733 1.390 . S
C733 C732 1.390 . S
C733 C734 1.394 . S
C733 C739 1.465 . S
C734 C729 1.399 . S
C734 C733 1.394 . S
C734 C735 1.516 . S
C735 C734 1.516 . S
C735 C736 1.502 . S
C735 C737 1.561 . S
C735 C738 1.526 . S
C736 H720 0.959 . S
C736 H721 0.959 . S
C736 H722 0.961 . S
C736 C735 1.502 . S
C737 H723 0.960 . S
C737 H724 0.961 . S
C737 H725 0.959 . S
C737 C735 1.561 . S
C738 C735 1.526 . S
C738 C739 1.396 . S
C738 C743 1.390 . S
C739 C733 1.465 . S
C739 C738 1.396 . S
C739 C740 1.399 . S
C740 H726 0.929 . S
C740 C739 1.399 . S
C740 C741 1.385 . S
C741 H727 0.931 . S
C741 C740 1.385 . S
C741 C742 1.389 . S
C742 C741 1.389 . S
C742 C743 1.387 . S
C743 H728 0.930 . S
C743 C738 1.390 . S
C743 C742 1.387 . S
H744 C756 0.930 . S
H745 C758 0.930 . S
H746 C759 0.930 . S
H747 C763 0.959 . S
H748 C763 0.959 . S
H749 C763 0.961 . S
H750 C764 0.960 . S
H751 C764 0.961 . S
H752 C764 0.959 . S
H753 C767 0.929 . S
H754 C768 0.931 . S
H755 C770 0.930 . S
C756 H744 0.930 . S
C756 C757 1.399 . S
C756 C761 1.399 . S
C757 C756 1.399 . S
C757 C758 1.376 . S
C758 H745 0.930 . S
C758 C757 1.376 . S
C758 C759 1.388 . S
C759 H746 0.930 . S
C759 C758 1.388 . S
C759 C760 1.390 . S
C760 C759 1.390 . S
C760 C761 1.394 . S
C760 C766 1.465 . S
C761 C756 1.399 . S
C761 C760 1.394 . S
C761 C762 1.516 . S
C762 C761 1.516 . S
C762 C763 1.502 . S
C762 C764 1.561 . S
C762 C765 1.526 . S
C763 H747 0.959 . S
C763 H748 0.959 . S
C763 H749 0.961 . S
C763 C762 1.502 . S
C764 H750 0.960 . S
C764 H751 0.961 . S
C764 H752 0.959 . S
C764 C762 1.561 . S
C765 C762 1.526 . S
C765 C766 1.396 . S
C765 C770 1.390 . S
C766 C760 1.465 . S
C766 C765 1.396 . S
C766 C767 1.399 . S
C767 H753 0.929 . S
C767 C766 1.399 . S
C767 C768 1.385 . S
C768 H754 0.931 . S
C768 C767 1.385 . S
C768 C769 1.389 . S
C769 C768 1.389 . S
C769 C770 1.387 . S
C770 H755 0.930 . S
C770 C765 1.390 . S
C770 C769 1.387 . S
H771 C783 0.930 . S
H772 C785 0.930 . S
H773 C786 0.930 . S
H774 C790 0.959 . S
H775 C790 0.959 . S
H776 C790 0.961 . S
H777 C791 0.960 . S
H778 C791 0.961 . S
H779 C791 0.959 . S
H780 C794 0.929 . S
H781 C795 0.931 . S
H782 C797 0.930 . S
C783 H771 0.930 . S
C783 C784 1.399 . S
C783 C788 1.399 . S
C784 C783 1.399 . S
C784 C785 1.376 . S
C785 H772 0.930 . S
C785 C784 1.376 . S
C785 C786 1.388 . S
C786 H773 0.930 . S
C786 C785 1.388 . S
C786 C787 1.390 . S
C787 C786 1.390 . S
C787 C788 1.394 . S
C787 C793 1.465 . S
C788 C783 1.399 . S
C788 C787 1.394 . S
C788 C789 1.516 . S
C789 C788 1.516 . S
C789 C790 1.502 . S
C789 C791 1.561 . S
C789 C792 1.526 . S
C790 H774 0.959 . S
C790 H775 0.959 . S
C790 H776 0.961 . S
C790 C789 1.502 . S
C791 H777 0.960 . S
C791 H778 0.961 . S
C791 H779 0.959 . S
C791 C789 1.561 . S
C792 C789 1.526 . S
C792 C793 1.396 . S
C792 C797 1.390 . S
C793 C787 1.465 . S
C793 C792 1.396 . S
C793 C794 1.399 . S
C794 H780 0.929 . S
C794 C793 1.399 . S
C794 C795 1.385 . S
C795 H781 0.931 . S
C795 C794 1.385 . S
C795 C796 1.389 . S
C796 C795 1.389 . S
C796 C797 1.387 . S
C797 H782 0.930 . S
C797 C792 1.390 . S
C797 C796 1.387 . S
H798 C810 0.959 . S
H799 C812 0.930 . S
H800 C813 0.930 . S
H801 C817 0.959 . S
H802 C817 0.959 1_554 S
H803 C817 0.961 1_554 S
H804 C818 0.960 . S
H805 C818 0.961 . S
H806 C818 0.959 . S
H807 C821 0.929 . S
H808 C822 0.931 . S
H809 C824 0.930 . S
C810 H798 0.959 . S
C810 C811 1.399 . S
C810 C815 1.399 . S
C811 C810 1.399 . S
C811 C812 1.376 . S
C812 H799 0.930 . S
C812 C811 1.376 . S
C812 C813 1.388 . S
C813 H800 0.930 . S
C813 C812 1.388 . S
C813 C814 1.390 . S
C814 C813 1.390 . S
C814 C815 1.394 . S
C814 C820 1.465 . S
C815 C810 1.399 . S
C815 C814 1.394 . S
C815 C816 1.516 . S
C816 C815 1.516 . S
C816 C817 1.502 . S
C816 C818 1.561 . S
C816 C819 1.526 . S
C817 H801 0.959 . S
C817 H802 0.959 1_556 S
C817 H803 0.961 1_556 S
C817 C816 1.502 . S
C818 H804 0.960 . S
C818 H805 0.961 . S
C818 H806 0.959 . S
C818 C816 1.561 . S
C819 C816 1.526 . S
C819 C820 1.396 . S
C819 C824 1.390 . S
C820 C814 1.465 . S
C820 C819 1.396 . S
C820 C821 1.399 . S
C821 H807 0.929 . S
C821 C820 1.399 . S
C821 C822 1.385 . S
C822 H808 0.931 . S
C822 C821 1.385 . S
C822 C823 1.389 . S
C823 C822 1.389 . S
C823 C824 1.387 . S
C824 H809 0.930 . S
C824 C819 1.390 . S
C824 C823 1.387 . S
H825 C837 0.930 . S
H826 C839 0.930 . S
H827 C840 0.930 . S
H828 C844 0.959 . S
H829 C844 0.959 . S
H830 C844 0.961 . S
H831 C845 0.960 . S
H832 C845 0.961 . S
H833 C845 0.959 . S
H834 C848 0.929 . S
H835 C849 0.931 . S
H836 C851 0.930 . S
C837 H825 0.930 . S
C837 C838 1.399 . S
C837 C842 1.399 . S
C838 C837 1.399 . S
C838 C839 1.376 . S
C839 H826 0.930 . S
C839 C838 1.376 . S
C839 C840 1.388 . S
C840 H827 0.930 . S
C840 C839 1.388 . S
C840 C841 1.390 . S
C841 C840 1.390 . S
C841 C842 1.394 . S
C841 C847 1.465 . S
C842 C837 1.399 . S
C842 C841 1.394 . S
C842 C843 1.516 . S
C843 C842 1.516 . S
C843 C844 1.502 . S
C843 C845 1.561 . S
C843 C846 1.526 . S
C844 H828 0.959 . S
C844 H829 0.959 . S
C844 H830 0.961 . S
C844 C843 1.502 . S
C845 H831 0.960 . S
C845 H832 0.961 . S
C845 H833 0.959 . S
C845 C843 1.561 . S
C846 C843 1.526 . S
C846 C847 1.396 . S
C846 C851 1.390 . S
C847 C841 1.465 . S
C847 C846 1.396 . S
C847 C848 1.399 . S
C848 H834 0.929 . S
C848 C847 1.399 . S
C848 C849 1.385 . S
C849 H835 0.931 . S
C849 C848 1.385 . S
C849 C850 1.389 . S
C850 C849 1.389 . S
C850 C851 1.387 . S
C851 H836 0.930 . S
C851 C846 1.390 . S
C851 C850 1.387 . S
H852 C864 0.930 . S
H853 C866 0.930 . S
H854 C867 0.930 . S
H855 C871 0.959 . S
H856 C871 0.959 . S
H857 C871 0.961 . S
H858 C872 0.960 . S
H859 C872 0.961 . S
H860 C872 0.959 . S
H861 C875 0.929 . S
H862 C876 0.931 . S
H863 C878 0.930 . S
C864 H852 0.930 . S
C864 C865 1.399 . S
C864 C869 1.399 . S
C865 C864 1.399 . S
C865 C866 1.376 . S
C866 H853 0.930 . S
C866 C865 1.376 . S
C866 C867 1.388 . S
C867 H854 0.930 . S
C867 C866 1.388 . S
C867 C868 1.390 . S
C868 C867 1.390 . S
C868 C869 1.394 . S
C868 C874 1.465 . S
C869 C864 1.399 . S
C869 C868 1.394 . S
C869 C870 1.516 . S
C870 C869 1.516 . S
C870 C871 1.502 . S
C870 C872 1.561 . S
C870 C873 1.526 . S
C871 H855 0.959 . S
C871 H856 0.959 . S
C871 H857 0.961 . S
C871 C870 1.502 . S
C872 H858 0.960 . S
C872 H859 0.961 . S
C872 H860 0.959 . S
C872 C870 1.561 . S
C873 C870 1.526 . S
C873 C874 1.396 . S
C873 C878 1.390 . S
C874 C868 1.465 . S
C874 C873 1.396 . S
C874 C875 1.399 . S
C875 H861 0.929 . S
C875 C874 1.399 . S
C875 C876 1.385 . S
C876 H862 0.931 . S
C876 C875 1.385 . S
C876 C877 1.389 . S
C877 C876 1.389 . S
C877 C878 1.387 . S
C878 H863 0.930 . S
C878 C873 1.390 . S
C878 C877 1.387 . S
H879 C891 0.930 . S
H880 C893 0.930 . S
H881 C894 0.930 . S
H882 C898 0.959 . S
H883 C898 0.959 . S
H884 C898 0.961 . S
H885 C899 0.960 . S
H886 C899 0.961 . S
H887 C899 0.959 . S
H888 C902 0.929 . S
H889 C903 0.931 . S
H890 C905 0.930 . S
C891 H879 0.930 . S
C891 C892 1.399 . S
C891 C896 1.399 . S
C892 C891 1.399 . S
C892 C893 1.376 . S
C893 H880 0.930 . S
C893 C892 1.376 . S
C893 C894 1.388 . S
C894 H881 0.930 . S
C894 C893 1.388 . S
C894 C895 1.390 . S
C895 C894 1.390 . S
C895 C896 1.394 . S
C895 C901 1.465 . S
C896 C891 1.399 . S
C896 C895 1.394 . S
C896 C897 1.516 . S
C897 C896 1.516 . S
C897 C898 1.502 . S
C897 C899 1.561 . S
C897 C900 1.526 . S
C898 H882 0.959 . S
C898 H883 0.959 . S
C898 H884 0.961 . S
C898 C897 1.502 . S
C899 H885 0.960 . S
C899 H886 0.961 . S
C899 H887 0.959 . S
C899 C897 1.561 . S
C900 C897 1.526 . S
C900 C901 1.396 . S
C900 C905 1.390 . S
C901 C895 1.465 . S
C901 C900 1.396 . S
C901 C902 1.399 . S
C902 H888 0.929 . S
C902 C901 1.399 . S
C902 C903 1.385 . S
C903 H889 0.931 . S
C903 C902 1.385 . S
C903 C904 1.389 . S
C904 C903 1.389 . S
C904 C905 1.387 . S
C905 H890 0.930 . S
C905 C900 1.390 . S
C905 C904 1.387 . S
H906 C918 0.930 . S
H907 C920 0.930 . S
H908 C921 0.930 . S
H909 C925 0.959 . S
H910 C925 0.959 . S
H911 C925 0.961 . S
H912 C926 0.960 . S
H913 C926 0.986 . S
H914 C926 0.959 . S
H915 C929 0.929 . S
H916 C930 0.931 . S
H917 C932 0.930 . S
C918 H906 0.930 . S
C918 C919 1.399 . S
C918 C923 1.399 . S
C919 C918 1.399 . S
C919 C920 1.376 . S
C920 H907 0.930 . S
C920 C919 1.376 . S
C920 C921 1.388 . S
C921 H908 0.930 . S
C921 C920 1.388 . S
C921 C922 1.390 . S
C922 C921 1.390 . S
C922 C923 1.394 . S
C922 C928 1.465 . S
C923 C918 1.399 . S
C923 C922 1.394 . S
C923 C924 1.516 . S
C924 C923 1.516 . S
C924 C925 1.502 . S
C924 C926 1.561 . S
C924 C927 1.526 . S
C925 H909 0.959 . S
C925 H910 0.959 . S
C925 H911 0.961 . S
C925 C924 1.502 . S
C926 H912 0.960 . S
C926 H913 0.986 . S
C926 H914 0.959 . S
C926 C924 1.561 . S
C927 C924 1.526 . S
C927 C928 1.396 . S
C927 C932 1.390 . S
C928 C922 1.465 . S
C928 C927 1.396 . S
C928 C929 1.399 . S
C929 H915 0.929 . S
C929 C928 1.399 . S
C929 C930 1.385 . S
C930 H916 0.931 . S
C930 C929 1.385 . S
C930 C931 1.389 . S
C931 C930 1.389 . S
C931 C932 1.387 . S
C932 H917 0.930 . S
C932 C927 1.390 . S
C932 C931 1.387 . S
H933 C945 0.930 . S
H934 C947 0.930 . S
H935 C948 0.930 . S
H936 C952 0.959 . S
H937 C952 0.989 . S
H938 C952 0.961 . S
H939 C953 0.955 1_545 S
H940 C953 0.937 1_545 S
H941 C953 0.965 . S
H942 C956 0.929 . S
H943 C957 0.931 . S
H944 C959 0.930 . S
C945 H933 0.930 . S
C945 C946 1.399 . S
C945 C950 1.399 . S
C946 C945 1.399 . S
C946 C947 1.376 . S
C947 H934 0.930 . S
C947 C946 1.376 . S
C947 C948 1.388 . S
C948 H935 0.930 . S
C948 C947 1.388 . S
C948 C949 1.390 . S
C949 C948 1.390 . S
C949 C950 1.394 . S
C949 C955 1.465 . S
C950 C945 1.399 . S
C950 C949 1.394 . S
C950 C951 1.516 . S
C951 C950 1.516 . S
C951 C952 1.502 . S
C951 C953 1.585 . S
C951 C954 1.526 . S
C952 H936 0.959 . S
C952 H937 0.989 . S
C952 H938 0.961 . S
C952 C951 1.502 . S
C953 H939 0.955 1_565 S
C953 H940 0.937 1_565 S
C953 H941 0.965 . S
C953 C951 1.585 . S
C954 C951 1.526 . S
C954 C955 1.396 . S
C954 C959 1.390 . S
C955 C949 1.465 . S
C955 C954 1.396 . S
C955 C956 1.399 . S
C956 H942 0.929 . S
C956 C955 1.399 . S
C956 C957 1.385 . S
C957 H943 0.931 . S
C957 C956 1.385 . S
C957 C958 1.389 . S
C958 C957 1.389 . S
C958 C959 1.387 . S
C959 H944 0.930 . S
C959 C954 1.390 . S
C959 C958 1.387 . S
H960 C972 0.930 . S
H961 C974 0.930 . S
H962 C975 0.930 . S
H963 C979 0.959 . S
H964 C979 0.959 . S
H965 C979 0.961 1_545 S
H966 C980 0.960 1_545 S
H967 C980 0.961 . S
H968 C980 0.959 . S
H969 C983 0.929 . S
H970 C984 0.931 . S
H971 C986 0.930 . S
C972 H960 0.930 . S
C972 C973 1.399 . S
C972 C977 1.399 . S
C973 C972 1.399 . S
C973 C974 1.376 . S
C974 H961 0.930 . S
C974 C973 1.376 . S
C974 C975 1.388 . S
C975 H962 0.930 . S
C975 C974 1.388 . S
C975 C976 1.390 . S
C976 C975 1.390 . S
C976 C977 1.394 . S
C976 C982 1.465 . S
C977 C972 1.399 . S
C977 C976 1.394 . S
C977 C978 1.516 . S
C978 C977 1.516 . S
C978 C979 1.502 . S
C978 C980 1.561 . S
C978 C981 1.526 . S
C979 H963 0.959 . S
C979 H964 0.959 . S
C979 H965 0.961 1_565 S
C979 C978 1.502 . S
C980 H966 0.960 1_565 S
C980 H967 0.961 . S
C980 H968 0.959 . S
C980 C978 1.561 . S
C981 C978 1.526 . S
C981 C982 1.396 . S
C981 C986 1.390 . S
C982 C976 1.465 . S
C982 C981 1.396 . S
C982 C983 1.399 . S
C983 H969 0.929 . S
C983 C982 1.399 . S
C983 C984 1.385 . S
C984 H970 0.931 . S
C984 C983 1.385 . S
C984 C985 1.389 . S
C985 C984 1.389 . S
C985 C986 1.387 . S
C986 H971 0.930 . S
C986 C981 1.390 . S
C986 C985 1.387 . S
H987 C999 0.930 . S
H988 C1001 0.930 . S
H989 C1002 0.930 . S
H990 C1006 0.959 . S
H991 C1006 0.959 . S
H992 C1006 0.961 . S
H993 C1007 0.960 . S
H994 C1007 0.961 . S
H995 C1007 0.959 . S
H996 C1010 0.929 . S
H997 C1011 0.931 1_565 S
H998 C1013 0.930 . S
C999 H987 0.930 . S
C999 C1000 1.399 . S
C999 C1004 1.399 . S
C1000 C999 1.399 . S
C1000 C1001 1.376 . S
C1001 H988 0.930 . S
C1001 C1000 1.376 . S
C1001 C1002 1.388 . S
C1002 H989 0.930 . S
C1002 C1001 1.388 . S
C1002 C1003 1.390 . S
C1003 C1002 1.390 . S
C1003 C1004 1.394 . S
C1003 C1009 1.465 . S
C1004 C999 1.399 . S
C1004 C1003 1.394 . S
C1004 C1005 1.516 . S
C1005 C1004 1.516 . S
C1005 C1006 1.502 . S
C1005 C1007 1.561 . S
C1005 C1008 1.526 . S
C1006 H990 0.959 . S
C1006 H991 0.959 . S
C1006 H992 0.961 . S
C1006 C1005 1.502 . S
C1007 H993 0.960 . S
C1007 H994 0.961 . S
C1007 H995 0.959 . S
C1007 C1005 1.561 . S
C1008 C1005 1.526 . S
C1008 C1009 1.396 . S
C1008 C1013 1.390 . S
C1009 C1003 1.465 . S
C1009 C1008 1.396 . S
C1009 C1010 1.399 . S
C1010 H996 0.929 . S
C1010 C1009 1.399 . S
C1010 C1011 1.385 . S
C1011 H997 0.931 1_545 S
C1011 C1010 1.385 . S
C1011 C1012 1.389 . S
C1012 C1011 1.389 . S
C1012 C1013 1.387 . S
C1013 H998 0.930 . S
C1013 C1008 1.390 . S
C1013 C1012 1.387 . S
H1014 C1026 0.930 . S
H1015 C1028 0.937 . S
H1016 C1029 0.930 . S
H1017 C1033 0.959 . S
H1018 C1033 0.959 . S
H1019 C1033 0.961 . S
H1020 C1034 0.960 . S
H1021 C1034 0.961 . S
H1022 C1034 0.959 . S
H1023 C1037 0.929 . S
H1024 C1038 0.931 . S
H1025 C1040 0.930 . S
C1026 H1014 0.930 . S
C1026 C1027 1.399 . S
C1026 C1031 1.399 . S
C1027 C1026 1.399 . S
C1027 C1028 1.376 . S
C1028 H1015 0.937 . S
C1028 C1027 1.376 . S
C1028 C1029 1.388 . S
C1029 H1016 0.930 . S
C1029 C1028 1.388 . S
C1029 C1030 1.390 . S
C1030 C1029 1.390 . S
C1030 C1031 1.394 . S
C1030 C1036 1.465 . S
C1031 C1026 1.399 . S
C1031 C1030 1.394 . S
C1031 C1032 1.516 . S
C1032 C1031 1.516 . S
C1032 C1033 1.502 . S
C1032 C1034 1.561 . S
C1032 C1035 1.526 . S
C1033 H1017 0.959 . S
C1033 H1018 0.959 . S
C1033 H1019 0.961 . S
C1033 C1032 1.502 . S
C1034 H1020 0.960 . S
C1034 H1021 0.961 . S
C1034 H1022 0.959 . S
C1034 C1032 1.561 . S
C1035 C1032 1.526 . S
C1035 C1036 1.396 . S
C1035 C1040 1.390 . S
C1036 C1030 1.465 . S
C1036 C1035 1.396 . S
C1036 C1037 1.399 . S
C1037 H1023 0.929 . S
C1037 C1036 1.399 . S
C1037 C1038 1.385 . S
C1038 H1024 0.931 . S
C1038 C1037 1.385 . S
C1038 C1039 1.389 . S
C1039 C1038 1.389 . S
C1039 C1040 1.387 . S
C1040 H1025 0.930 . S
C1040 C1035 1.390 . S
C1040 C1039 1.387 . S
H1041 C1053 0.930 . S
H1042 C1055 0.930 . S
H1043 C1056 0.930 . S
H1044 C1060 0.959 . S
H1045 C1060 0.959 . S
H1046 C1060 0.961 . S
H1047 C1061 0.960 . S
H1048 C1061 0.961 . S
H1049 C1061 0.959 . S
H1050 C1064 0.929 . S
H1051 C1065 0.898 1_554 S
H1052 C1067 0.930 . S
C1053 H1041 0.930 . S
C1053 C1054 1.399 . S
C1053 C1058 1.399 . S
C1054 C1053 1.399 . S
C1054 C1055 1.376 . S
C1055 H1042 0.930 . S
C1055 C1054 1.376 . S
C1055 C1056 1.388 . S
C1056 H1043 0.930 . S
C1056 C1055 1.388 . S
C1056 C1057 1.390 . S
C1057 C1056 1.390 . S
C1057 C1058 1.394 . S
C1057 C1063 1.465 . S
C1058 C1053 1.399 . S
C1058 C1057 1.394 . S
C1058 C1059 1.516 . S
C1059 C1058 1.516 . S
C1059 C1060 1.502 . S
C1059 C1061 1.561 . S
C1059 C1062 1.526 . S
C1060 H1044 0.959 . S
C1060 H1045 0.959 . S
C1060 H1046 0.961 . S
C1060 C1059 1.502 . S
C1061 H1047 0.960 . S
C1061 H1048 0.961 . S
C1061 H1049 0.959 . S
C1061 C1059 1.561 . S
C1062 C1059 1.526 . S
C1062 C1063 1.396 . S
C1062 C1067 1.390 . S
C1063 C1057 1.465 . S
C1063 C1062 1.396 . S
C1063 C1064 1.399 . S
C1064 H1050 0.929 . S
C1064 C1063 1.399 . S
C1064 C1065 1.385 . S
C1065 H1051 0.898 1_556 S
C1065 C1064 1.385 . S
C1065 C1066 1.389 . S
C1066 C1065 1.389 . S
C1066 C1067 1.387 . S
C1067 H1052 0.930 . S
C1067 C1062 1.390 . S
C1067 C1066 1.387 . S
H1068 C1080 0.930 . S
H1069 C1082 0.930 . S
H1070 C1083 0.930 . S
H1071 C1087 0.959 . S
H1072 C1087 0.959 . S
H1073 C1087 0.961 . S
H1074 C1088 0.960 . S
H1075 C1088 0.961 . S
H1076 C1088 0.959 . S
H1077 C1091 0.929 . S
H1078 C1092 0.931 . S
H1079 C1094 0.930 . S
C1080 H1068 0.930 . S
C1080 C1081 1.399 . S
C1080 C1085 1.399 . S
C1081 C1080 1.399 . S
C1081 C1082 1.376 . S
C1082 H1069 0.930 . S
C1082 C1081 1.376 . S
C1082 C1083 1.388 . S
C1083 H1070 0.930 . S
C1083 C1082 1.388 . S
C1083 C1084 1.390 . S
C1084 C1083 1.390 . S
C1084 C1085 1.394 . S
C1084 C1090 1.465 . S
C1085 C1080 1.399 . S
C1085 C1084 1.394 . S
C1085 C1086 1.516 . S
C1086 C1085 1.516 . S
C1086 C1087 1.502 . S
C1086 C1088 1.561 . S
C1086 C1089 1.526 . S
C1087 H1071 0.959 . S
C1087 H1072 0.959 . S
C1087 H1073 0.961 . S
C1087 C1086 1.502 . S
C1088 H1074 0.960 . S
C1088 H1075 0.961 . S
C1088 H1076 0.959 . S
C1088 C1086 1.561 . S
C1089 C1086 1.526 . S
C1089 C1090 1.396 . S
C1089 C1094 1.390 . S
C1090 C1084 1.465 . S
C1090 C1089 1.396 . S
C1090 C1091 1.399 . S
C1091 H1077 0.929 . S
C1091 C1090 1.399 . S
C1091 C1092 1.385 . S
C1092 H1078 0.931 . S
C1092 C1091 1.385 . S
C1092 C1093 1.389 . S
C1093 C1092 1.389 . S
C1093 C1094 1.387 . S
C1094 H1079 0.930 . S
C1094 C1089 1.390 . S
C1094 C1093 1.387 . S
H1095 C1107 0.930 . S
H1096 C1109 0.930 . S
H1097 C1110 0.930 . S
H1098 C1114 0.959 . S
H1099 C1114 0.959 . S
H1100 C1114 0.961 . S
H1101 C1115 0.960 . S
H1102 C1115 0.961 . S
H1103 C1115 0.959 . S
H1104 C1118 0.929 . S
H1105 C1119 0.931 . S
H1106 C1121 0.930 . S
C1107 H1095 0.930 . S
C1107 C1108 1.399 . S
C1107 C1112 1.399 . S
C1108 C1107 1.399 . S
C1108 C1109 1.376 . S
C1109 H1096 0.930 . S
C1109 C1108 1.376 . S
C1109 C1110 1.388 . S
C1110 H1097 0.930 . S
C1110 C1109 1.388 . S
C1110 C1111 1.390 . S
C1111 C1110 1.390 . S
C1111 C1112 1.394 . S
C1111 C1117 1.465 . S
C1112 C1107 1.399 . S
C1112 C1111 1.394 . S
C1112 C1113 1.516 . S
C1113 C1112 1.516 . S
C1113 C1114 1.502 . S
C1113 C1115 1.561 . S
C1113 C1116 1.526 . S
C1114 H1098 0.959 . S
C1114 H1099 0.959 . S
C1114 H1100 0.961 . S
C1114 C1113 1.502 . S
C1115 H1101 0.960 . S
C1115 H1102 0.961 . S
C1115 H1103 0.959 . S
C1115 C1113 1.561 . S
C1116 C1113 1.526 . S
C1116 C1117 1.396 . S
C1116 C1121 1.390 . S
C1117 C1111 1.465 . S
C1117 C1116 1.396 . S
C1117 C1118 1.399 . S
C1118 H1104 0.929 . S
C1118 C1117 1.399 . S
C1118 C1119 1.385 . S
C1119 H1105 0.931 . S
C1119 C1118 1.385 . S
C1119 C1120 1.389 . S
C1120 C1119 1.389 . S
C1120 C1121 1.387 . S
C1121 H1106 0.930 . S
C1121 C1116 1.390 . S
C1121 C1120 1.387 . S
H1122 C1134 0.930 . S
H1123 C1136 0.930 . S
H1124 C1137 0.930 . S
H1125 C1141 0.959 . S
H1126 C1141 0.959 . S
H1127 C1141 0.961 . S
H1128 C1142 0.960 . S
H1129 C1142 0.961 . S
H1130 C1142 0.959 . S
H1131 C1145 0.929 . S
H1132 C1146 0.931 . S
H1133 C1148 0.930 . S
C1134 H1122 0.930 . S
C1134 C1135 1.399 . S
C1134 C1139 1.399 . S
C1135 C1134 1.399 . S
C1135 C1136 1.376 . S
C1136 H1123 0.930 . S
C1136 C1135 1.376 . S
C1136 C1137 1.388 . S
C1137 H1124 0.930 . S
C1137 C1136 1.388 . S
C1137 C1138 1.390 . S
C1138 C1137 1.390 . S
C1138 C1139 1.394 . S
C1138 C1144 1.465 . S
C1139 C1134 1.399 . S
C1139 C1138 1.394 . S
C1139 C1140 1.516 . S
C1140 C1139 1.516 . S
C1140 C1141 1.502 . S
C1140 C1142 1.561 . S
C1140 C1143 1.526 . S
C1141 H1125 0.959 . S
C1141 H1126 0.959 . S
C1141 H1127 0.961 . S
C1141 C1140 1.502 . S
C1142 H1128 0.960 . S
C1142 H1129 0.961 . S
C1142 H1130 0.959 . S
C1142 C1140 1.561 . S
C1143 C1140 1.526 . S
C1143 C1144 1.396 . S
C1143 C1148 1.390 . S
C1144 C1138 1.465 . S
C1144 C1143 1.396 . S
C1144 C1145 1.399 . S
C1145 H1131 0.929 . S
C1145 C1144 1.399 . S
C1145 C1146 1.385 . S
C1146 H1132 0.931 . S
C1146 C1145 1.385 . S
C1146 C1147 1.389 . S
C1147 C1146 1.389 . S
C1147 C1148 1.387 . S
C1148 H1133 0.930 . S
C1148 C1143 1.390 . S
C1148 C1147 1.387 . S
H1149 C1161 0.930 . S
H1150 C1163 0.930 . S
H1151 C1164 0.930 . S
H1152 C1168 0.959 . S
H1153 C1168 0.959 . S
H1154 C1168 0.961 . S
H1155 C1169 0.960 . S
H1156 C1169 0.961 . S
H1157 C1169 0.959 . S
H1158 C1172 0.929 . S
H1159 C1173 0.931 . S
H1160 C1175 0.930 . S
C1161 H1149 0.930 . S
C1161 C1162 1.399 . S
C1161 C1166 1.399 . S
C1162 C1161 1.399 . S
C1162 C1163 1.376 . S
C1163 H1150 0.930 . S
C1163 C1162 1.376 . S
C1163 C1164 1.388 . S
C1164 H1151 0.930 . S
C1164 C1163 1.388 . S
C1164 C1165 1.390 . S
C1165 C1164 1.390 . S
C1165 C1166 1.394 . S
C1165 C1171 1.465 . S
C1166 C1161 1.399 . S
C1166 C1165 1.394 . S
C1166 C1167 1.516 . S
C1167 C1166 1.516 . S
C1167 C1168 1.502 . S
C1167 C1169 1.561 . S
C1167 C1170 1.526 . S
C1168 H1152 0.959 . S
C1168 H1153 0.959 . S
C1168 H1154 0.961 . S
C1168 C1167 1.502 . S
C1169 H1155 0.960 . S
C1169 H1156 0.961 . S
C1169 H1157 0.959 . S
C1169 C1167 1.561 . S
C1170 C1167 1.526 . S
C1170 C1171 1.396 . S
C1170 C1175 1.390 . S
C1171 C1165 1.465 . S
C1171 C1170 1.396 . S
C1171 C1172 1.399 . S
C1172 H1158 0.929 . S
C1172 C1171 1.399 . S
C1172 C1173 1.385 . S
C1173 H1159 0.931 . S
C1173 C1172 1.385 . S
C1173 C1174 1.389 . S
C1174 C1173 1.389 . S
C1174 C1175 1.387 . S
C1175 H1160 0.930 . S
C1175 C1170 1.390 . S
C1175 C1174 1.387 . S
H1176 C1188 0.930 . S
H1177 C1190 0.930 . S
H1178 C1191 0.930 . S
H1179 C1195 0.959 . S
H1180 C1195 0.959 . S
H1181 C1195 0.961 . S
H1182 C1196 0.960 . S
H1183 C1196 0.961 . S
H1184 C1196 0.959 . S
H1185 C1199 0.929 . S
H1186 C1200 0.931 . S
H1187 C1202 0.930 . S
C1188 H1176 0.930 . S
C1188 C1189 1.399 . S
C1188 C1193 1.399 . S
C1189 C1188 1.399 . S
C1189 C1190 1.376 . S
C1190 H1177 0.930 . S
C1190 C1189 1.376 . S
C1190 C1191 1.388 . S
C1191 H1178 0.930 . S
C1191 C1190 1.388 . S
C1191 C1192 1.390 . S
C1192 C1191 1.390 . S
C1192 C1193 1.394 . S
C1192 C1198 1.465 . S
C1193 C1188 1.399 . S
C1193 C1192 1.394 . S
C1193 C1194 1.516 . S
C1194 C1193 1.516 . S
C1194 C1195 1.502 . S
C1194 C1196 1.561 . S
C1194 C1197 1.526 . S
C1195 H1179 0.959 . S
C1195 H1180 0.959 . S
C1195 H1181 0.961 . S
C1195 C1194 1.502 . S
C1196 H1182 0.960 . S
C1196 H1183 0.961 . S
C1196 H1184 0.959 . S
C1196 C1194 1.561 . S
C1197 C1194 1.526 . S
C1197 C1198 1.396 . S
C1197 C1202 1.390 . S
C1198 C1192 1.465 . S
C1198 C1197 1.396 . S
C1198 C1199 1.399 . S
C1199 H1185 0.929 . S
C1199 C1198 1.399 . S
C1199 C1200 1.385 . S
C1200 H1186 0.931 . S
C1200 C1199 1.385 . S
C1200 C1201 1.389 . S
C1201 C1200 1.389 . S
C1201 C1202 1.387 . S
C1202 H1187 0.930 . S
C1202 C1197 1.390 . S
C1202 C1201 1.387 . S
H1203 C1215 0.930 . S
H1204 C1217 0.930 . S
H1205 C1218 0.916 1_554 S
H1206 C1222 0.959 . S
H1207 C1222 0.959 . S
H1208 C1222 0.961 . S
H1209 C1223 0.960 . S
H1210 C1223 0.961 . S
H1211 C1223 0.959 . S
H1212 C1226 0.929 . S
H1213 C1227 0.931 . S
H1214 C1229 0.930 . S
C1215 H1203 0.930 . S
C1215 C1216 1.399 . S
C1215 C1220 1.399 . S
C1216 C1215 1.399 . S
C1216 C1217 1.376 1_556 S
C1217 H1204 0.930 . S
C1217 C1216 1.376 1_554 S
C1217 C1218 1.386 1_554 S
C1218 H1205 0.916 1_556 S
C1218 C1217 1.386 1_556 S
C1218 C1219 1.407 . S
C1219 C1218 1.407 . S
C1219 C1220 1.394 . S
C1219 C1225 1.465 . S
C1220 C1215 1.399 . S
C1220 C1219 1.394 . S
C1220 C1221 1.516 . S
C1221 C1220 1.516 . S
C1221 C1222 1.502 . S
C1221 C1223 1.561 . S
C1221 C1224 1.526 . S
C1222 H1206 0.959 . S
C1222 H1207 0.959 . S
C1222 H1208 0.961 . S
C1222 C1221 1.502 . S
C1223 H1209 0.960 . S
C1223 H1210 0.961 . S
C1223 H1211 0.959 . S
C1223 C1221 1.561 . S
C1224 C1221 1.526 . S
C1224 C1225 1.396 . S
C1224 C1229 1.390 . S
C1225 C1219 1.465 . S
C1225 C1224 1.396 . S
C1225 C1226 1.399 . S
C1226 H1212 0.929 . S
C1226 C1225 1.399 . S
C1226 C1227 1.385 . S
C1227 H1213 0.931 . S
C1227 C1226 1.385 . S
C1227 C1228 1.389 . S
C1228 C1227 1.389 . S
C1228 C1229 1.387 . S
C1229 H1214 0.930 . S
C1229 C1224 1.390 . S
C1229 C1228 1.387 . S
H1230 C1242 0.930 . S
H1231 C1244 0.930 . S
H1232 C1245 0.930 . S
H1233 C1249 0.959 . S
H1234 C1249 0.959 . S
H1235 C1249 0.961 . S
H1236 C1250 0.960 . S
H1237 C1250 0.961 . S
H1238 C1250 0.959 . S
H1239 C1253 0.929 . S
H1240 C1254 0.931 . S
H1241 C1256 0.930 . S
C1242 H1230 0.930 . S
C1242 C1243 1.399 . S
C1242 C1247 1.399 . S
C1243 C1242 1.399 . S
C1243 C1244 1.376 . S
C1244 H1231 0.930 . S
C1244 C1243 1.376 . S
C1244 C1245 1.388 . S
C1245 H1232 0.930 . S
C1245 C1244 1.388 . S
C1245 C1246 1.390 . S
C1246 C1245 1.390 . S
C1246 C1247 1.394 . S
C1246 C1252 1.465 . S
C1247 C1242 1.399 . S
C1247 C1246 1.394 . S
C1247 C1248 1.516 . S
C1248 C1247 1.516 . S
C1248 C1249 1.502 . S
C1248 C1250 1.561 . S
C1248 C1251 1.526 . S
C1249 H1233 0.959 . S
C1249 H1234 0.959 . S
C1249 H1235 0.961 . S
C1249 C1248 1.502 . S
C1250 H1236 0.960 . S
C1250 H1237 0.961 . S
C1250 H1238 0.959 . S
C1250 C1248 1.561 . S
C1251 C1248 1.526 . S
C1251 C1252 1.396 . S
C1251 C1256 1.390 . S
C1252 C1246 1.465 . S
C1252 C1251 1.396 . S
C1252 C1253 1.399 . S
C1253 H1239 0.929 . S
C1253 C1252 1.399 . S
C1253 C1254 1.385 . S
C1254 H1240 0.931 . S
C1254 C1253 1.385 . S
C1254 C1255 1.389 . S
C1255 C1254 1.389 . S
C1255 C1256 1.387 . S
C1256 H1241 0.930 . S
C1256 C1251 1.390 . S
C1256 C1255 1.387 . S
H1257 C1269 0.930 . S
H1258 C1271 0.930 . S
H1259 C1272 0.930 . S
H1260 C1276 0.959 . S
H1261 C1276 0.959 . S
H1262 C1276 0.961 . S
H1263 C1277 0.960 . S
H1264 C1277 0.961 . S
H1265 C1277 0.959 . S
H1266 C1280 0.929 . S
H1267 C1281 0.931 . S
H1268 C1283 0.930 . S
C1269 H1257 0.930 . S
C1269 C1270 1.399 . S
C1269 C1274 1.399 . S
C1270 C1269 1.399 . S
C1270 C1271 1.376 . S
C1271 H1258 0.930 . S
C1271 C1270 1.376 . S
C1271 C1272 1.388 . S
C1272 H1259 0.930 . S
C1272 C1271 1.388 . S
C1272 C1273 1.390 . S
C1273 C1272 1.390 . S
C1273 C1274 1.394 . S
C1273 C1279 1.465 . S
C1274 C1269 1.399 . S
C1274 C1273 1.394 . S
C1274 C1275 1.516 . S
C1275 C1274 1.516 . S
C1275 C1276 1.502 . S
C1275 C1277 1.561 . S
C1275 C1278 1.526 . S
C1276 H1260 0.959 . S
C1276 H1261 0.959 . S
C1276 H1262 0.961 . S
C1276 C1275 1.502 . S
C1277 H1263 0.960 . S
C1277 H1264 0.961 . S
C1277 H1265 0.959 . S
C1277 C1275 1.561 . S
C1278 C1275 1.526 . S
C1278 C1279 1.396 . S
C1278 C1283 1.390 . S
C1279 C1273 1.465 . S
C1279 C1278 1.396 . S
C1279 C1280 1.399 . S
C1280 H1266 0.929 . S
C1280 C1279 1.399 . S
C1280 C1281 1.385 . S
C1281 H1267 0.931 . S
C1281 C1280 1.385 . S
C1281 C1282 1.389 . S
C1282 C1281 1.389 . S
C1282 C1283 1.387 . S
C1283 H1268 0.930 . S
C1283 C1278 1.390 . S
C1283 C1282 1.387 . S
H1284 C1296 0.930 . S
H1285 C1298 0.930 . S
H1286 C1299 0.930 . S
H1287 C1303 0.959 . S
H1288 C1303 0.959 . S
H1289 C1303 0.961 . S
H1290 C1304 0.960 . S
H1291 C1304 0.961 . S
H1292 C1304 0.959 . S
H1293 C1307 0.929 . S
H1294 C1308 0.931 . S
H1295 C1310 0.930 . S
C1296 H1284 0.930 . S
C1296 C1297 1.399 . S
C1296 C1301 1.399 . S
C1297 C1296 1.399 . S
C1297 C1298 1.376 . S
C1298 H1285 0.930 . S
C1298 C1297 1.376 . S
C1298 C1299 1.388 . S
C1299 H1286 0.930 . S
C1299 C1298 1.388 . S
C1299 C1300 1.390 . S
C1300 C1299 1.390 . S
C1300 C1301 1.394 . S
C1300 C1306 1.465 . S
C1301 C1296 1.399 . S
C1301 C1300 1.394 . S
C1301 C1302 1.516 . S
C1302 C1301 1.516 . S
C1302 C1303 1.502 . S
C1302 C1304 1.561 . S
C1302 C1305 1.526 . S
C1303 H1287 0.959 . S
C1303 H1288 0.959 . S
C1303 H1289 0.961 . S
C1303 C1302 1.502 . S
C1304 H1290 0.960 . S
C1304 H1291 0.961 . S
C1304 H1292 0.959 . S
C1304 C1302 1.561 . S
C1305 C1302 1.526 . S
C1305 C1306 1.396 . S
C1305 C1310 1.390 . S
C1306 C1300 1.465 . S
C1306 C1305 1.396 . S
C1306 C1307 1.399 . S
C1307 H1293 0.929 . S
C1307 C1306 1.399 . S
C1307 C1308 1.385 . S
C1308 H1294 0.931 . S
C1308 C1307 1.385 . S
C1308 C1309 1.389 . S
C1309 C1308 1.389 . S
C1309 C1310 1.387 . S
C1310 H1295 0.930 . S
C1310 C1305 1.390 . S
C1310 C1309 1.387 . S
H1311 C1323 0.930 . S
H1312 C1325 0.930 . S
H1313 C1326 0.930 . S
H1314 C1330 0.959 . S
H1315 C1330 0.959 . S
H1316 C1330 0.961 . S
H1317 C1331 0.960 . S
H1318 C1331 0.961 . S
H1319 C1331 0.959 . S
H1320 C1334 0.929 . S
H1321 C1335 0.931 . S
H1322 C1337 0.930 . S
C1323 H1311 0.930 . S
C1323 C1324 1.399 . S
C1323 C1328 1.399 . S
C1324 C1323 1.399 . S
C1324 C1325 1.376 . S
C1325 H1312 0.930 . S
C1325 C1324 1.376 . S
C1325 C1326 1.388 . S
C1326 H1313 0.930 . S
C1326 C1325 1.388 . S
C1326 C1327 1.390 . S
C1327 C1326 1.390 . S
C1327 C1328 1.394 . S
C1327 C1333 1.465 . S
C1328 C1323 1.399 . S
C1328 C1327 1.394 . S
C1328 C1329 1.516 . S
C1329 C1328 1.516 . S
C1329 C1330 1.502 . S
C1329 C1331 1.561 . S
C1329 C1332 1.526 . S
C1330 H1314 0.959 . S
C1330 H1315 0.959 . S
C1330 H1316 0.961 . S
C1330 C1329 1.502 . S
C1331 H1317 0.960 . S
C1331 H1318 0.961 . S
C1331 H1319 0.959 . S
C1331 C1329 1.561 . S
C1332 C1329 1.526 . S
C1332 C1333 1.396 . S
C1332 C1337 1.390 . S
C1333 C1327 1.465 . S
C1333 C1332 1.396 . S
C1333 C1334 1.399 . S
C1334 H1320 0.929 . S
C1334 C1333 1.399 . S
C1334 C1335 1.385 . S
C1335 H1321 0.931 . S
C1335 C1334 1.385 . S
C1335 C1336 1.389 . S
C1336 C1335 1.389 . S
C1336 C1337 1.387 . S
C1337 H1322 0.930 . S
C1337 C1332 1.390 . S
C1337 C1336 1.387 . S
H1338 C1350 0.930 . S
H1339 C1352 0.930 . S
H1340 C1353 0.930 . S
H1341 C1357 0.959 . S
H1342 C1357 0.959 . S
H1343 C1357 0.961 . S
H1344 C1358 0.960 . S
H1345 C1358 0.961 . S
H1346 C1358 0.959 . S
H1347 C1361 0.929 . S
H1348 C1362 0.931 . S
H1349 C1364 0.930 . S
C1350 H1338 0.930 . S
C1350 C1351 1.399 . S
C1350 C1355 1.399 . S
C1351 C1350 1.399 . S
C1351 C1352 1.376 . S
C1352 H1339 0.930 . S
C1352 C1351 1.376 . S
C1352 C1353 1.388 . S
C1353 H1340 0.930 . S
C1353 C1352 1.388 . S
C1353 C1354 1.390 . S
C1354 C1353 1.390 . S
C1354 C1355 1.394 . S
C1354 C1360 1.465 . S
C1355 C1350 1.399 . S
C1355 C1354 1.394 . S
C1355 C1356 1.516 . S
C1356 C1355 1.516 . S
C1356 C1357 1.502 . S
C1356 C1358 1.561 . S
C1356 C1359 1.526 . S
C1357 H1341 0.959 . S
C1357 H1342 0.959 . S
C1357 H1343 0.961 . S
C1357 C1356 1.502 . S
C1358 H1344 0.960 . S
C1358 H1345 0.961 . S
C1358 H1346 0.959 . S
C1358 C1356 1.561 . S
C1359 C1356 1.526 . S
C1359 C1360 1.396 . S
C1359 C1364 1.390 . S
C1360 C1354 1.465 . S
C1360 C1359 1.396 . S
C1360 C1361 1.399 . S
C1361 H1347 0.929 . S
C1361 C1360 1.399 . S
C1361 C1362 1.385 . S
C1362 H1348 0.931 . S
C1362 C1361 1.385 . S
C1362 C1363 1.389 . S
C1363 C1362 1.389 . S
C1363 C1364 1.387 . S
C1364 H1349 0.930 . S
C1364 C1359 1.390 . S
C1364 C1363 1.387 . S
H1365 C1377 0.930 . S
H1366 C1379 0.930 . S
H1367 C1380 0.930 . S
H1368 C1384 0.959 . S
H1369 C1384 0.959 . S
H1370 C1384 0.961 . S
H1371 C1385 0.960 . S
H1372 C1385 0.961 . S
H1373 C1385 0.959 . S
H1374 C1388 0.929 . S
H1375 C1389 0.931 . S
H1376 C1391 0.930 . S
C1377 H1365 0.930 . S
C1377 C1378 1.399 . S
C1377 C1382 1.399 . S
C1378 C1377 1.399 . S
C1378 C1379 1.376 . S
C1379 H1366 0.930 . S
C1379 C1378 1.376 . S
C1379 C1380 1.388 . S
C1380 H1367 0.930 . S
C1380 C1379 1.388 . S
C1380 C1381 1.390 . S
C1381 C1380 1.390 . S
C1381 C1382 1.394 . S
C1381 C1387 1.465 . S
C1382 C1377 1.399 . S
C1382 C1381 1.394 . S
C1382 C1383 1.516 . S
C1383 C1382 1.516 . S
C1383 C1384 1.502 . S
C1383 C1385 1.561 . S
C1383 C1386 1.526 . S
C1384 H1368 0.959 . S
C1384 H1369 0.959 . S
C1384 H1370 0.961 . S
C1384 C1383 1.502 . S
C1385 H1371 0.960 . S
C1385 H1372 0.961 . S
C1385 H1373 0.959 . S
C1385 C1383 1.561 . S
C1386 C1383 1.526 . S
C1386 C1387 1.396 . S
C1386 C1391 1.390 . S
C1387 C1381 1.465 . S
C1387 C1386 1.396 . S
C1387 C1388 1.399 . S
C1388 H1374 0.929 . S
C1388 C1387 1.399 . S
C1388 C1389 1.385 . S
C1389 H1375 0.931 . S
C1389 C1388 1.385 . S
C1389 C1390 1.389 . S
C1390 C1389 1.389 . S
C1390 C1391 1.387 . S
C1391 H1376 0.930 . S
C1391 C1386 1.390 . S
C1391 C1390 1.387 . S
H1392 C1404 0.930 . S
H1393 C1406 0.930 . S
H1394 C1407 0.930 . S
H1395 C1411 0.959 . S
H1396 C1411 0.959 . S
H1397 C1411 0.961 . S
H1398 C1412 0.960 . S
H1399 C1412 0.961 . S
H1400 C1412 0.959 . S
H1401 C1415 0.929 . S
H1402 C1416 0.931 . S
H1403 C1418 0.930 . S
C1404 H1392 0.930 . S
C1404 C1405 1.399 . S
C1404 C1409 1.399 . S
C1405 C1404 1.399 . S
C1405 C1406 1.376 . S
C1406 H1393 0.930 . S
C1406 C1405 1.376 . S
C1406 C1407 1.388 . S
C1407 H1394 0.930 . S
C1407 C1406 1.388 . S
C1407 C1408 1.390 . S
C1408 C1407 1.390 . S
C1408 C1409 1.394 . S
C1408 C1414 1.465 . S
C1409 C1404 1.399 . S
C1409 C1408 1.394 . S
C1409 C1410 1.516 . S
C1410 C1409 1.516 . S
C1410 C1411 1.502 . S
C1410 C1412 1.561 . S
C1410 C1413 1.526 . S
C1411 H1395 0.959 . S
C1411 H1396 0.959 . S
C1411 H1397 0.961 . S
C1411 C1410 1.502 . S
C1412 H1398 0.960 . S
C1412 H1399 0.961 . S
C1412 H1400 0.959 . S
C1412 C1410 1.561 . S
C1413 C1410 1.526 . S
C1413 C1414 1.396 . S
C1413 C1418 1.390 . S
C1414 C1408 1.465 . S
C1414 C1413 1.396 . S
C1414 C1415 1.399 . S
C1415 H1401 0.929 . S
C1415 C1414 1.399 . S
C1415 C1416 1.385 . S
C1416 H1402 0.931 . S
C1416 C1415 1.385 . S
C1416 C1417 1.389 . S
C1417 C1416 1.389 . S
C1417 C1418 1.387 . S
C1418 H1403 0.930 . S
C1418 C1413 1.390 . S
C1418 C1417 1.387 . S
H1419 C1431 0.930 . S
H1420 C1433 0.930 . S
H1421 C1434 0.930 . S
H1422 C1438 0.959 . S
H1423 C1438 0.959 . S
H1424 C1438 0.961 . S
H1425 C1439 0.960 . S
H1426 C1439 0.961 . S
H1427 C1439 0.959 . S
H1428 C1442 0.929 . S
H1429 C1443 0.931 . S
H1430 C1445 0.930 . S
C1431 H1419 0.930 . S
C1431 C1432 1.399 . S
C1431 C1436 1.399 . S
C1432 C1431 1.399 . S
C1432 C1433 1.376 . S
C1433 H1420 0.930 . S
C1433 C1432 1.376 . S
C1433 C1434 1.388 . S
C1434 H1421 0.930 . S
C1434 C1433 1.388 . S
C1434 C1435 1.390 . S
C1435 C1434 1.390 . S
C1435 C1436 1.394 . S
C1435 C1441 1.465 . S
C1436 C1431 1.399 . S
C1436 C1435 1.394 . S
C1436 C1437 1.516 . S
C1437 C1436 1.516 . S
C1437 C1438 1.502 . S
C1437 C1439 1.561 . S
C1437 C1440 1.526 . S
C1438 H1422 0.959 . S
C1438 H1423 0.959 . S
C1438 H1424 0.961 . S
C1438 C1437 1.502 . S
C1439 H1425 0.960 . S
C1439 H1426 0.961 . S
C1439 H1427 0.959 . S
C1439 C1437 1.561 . S
C1440 C1437 1.526 . S
C1440 C1441 1.396 . S
C1440 C1445 1.390 . S
C1441 C1435 1.465 . S
C1441 C1440 1.396 . S
C1441 C1442 1.399 . S
C1442 H1428 0.929 . S
C1442 C1441 1.399 . S
C1442 C1443 1.385 . S
C1443 H1429 0.931 . S
C1443 C1442 1.385 . S
C1443 C1444 1.389 . S
C1444 C1443 1.389 . S
C1444 C1445 1.387 . S
C1445 H1430 0.930 . S
C1445 C1440 1.390 . S
C1445 C1444 1.387 . S
H1446 C1458 0.930 . S
H1447 C1460 0.930 . S
H1448 C1461 0.930 . S
H1449 C1465 0.959 . S
H1450 C1465 0.959 . S
H1451 C1465 0.961 . S
H1452 C1466 0.960 . S
H1453 C1466 0.961 . S
H1454 C1466 0.959 . S
H1455 C1469 0.929 . S
H1456 C1470 0.931 . S
H1457 C1472 0.930 . S
C1458 H1446 0.930 . S
C1458 C1459 1.399 . S
C1458 C1463 1.399 . S
C1459 C1458 1.399 . S
C1459 C1460 1.376 . S
C1460 H1447 0.930 . S
C1460 C1459 1.376 . S
C1460 C1461 1.388 . S
C1461 H1448 0.930 . S
C1461 C1460 1.388 . S
C1461 C1462 1.390 . S
C1462 C1461 1.390 . S
C1462 C1463 1.394 . S
C1462 C1468 1.465 . S
C1463 C1458 1.399 . S
C1463 C1462 1.394 . S
C1463 C1464 1.516 . S
C1464 C1463 1.516 . S
C1464 C1465 1.502 . S
C1464 C1466 1.561 . S
C1464 C1467 1.526 . S
C1465 H1449 0.959 . S
C1465 H1450 0.959 . S
C1465 H1451 0.961 . S
C1465 C1464 1.502 . S
C1466 H1452 0.960 . S
C1466 H1453 0.961 . S
C1466 H1454 0.959 . S
C1466 C1464 1.561 . S
C1467 C1464 1.526 . S
C1467 C1468 1.396 . S
C1467 C1472 1.390 . S
C1468 C1462 1.465 . S
C1468 C1467 1.396 . S
C1468 C1469 1.399 . S
C1469 H1455 0.929 . S
C1469 C1468 1.399 . S
C1469 C1470 1.385 . S
C1470 H1456 0.931 . S
C1470 C1469 1.385 . S
C1470 C1471 1.389 . S
C1471 C1470 1.389 . S
C1471 C1472 1.387 . S
C1472 H1457 0.930 . S
C1472 C1467 1.390 . S
C1472 C1471 1.387 . S
H1473 C1485 0.930 . S
H1474 C1487 0.930 . S
H1475 C1488 0.930 . S
H1476 C1492 0.959 . S
H1477 C1492 0.959 . S
H1478 C1492 0.961 . S
H1479 C1493 0.960 . S
H1480 C1493 0.961 . S
H1481 C1493 0.959 . S
H1482 C1496 0.929 . S
H1483 C1497 0.931 . S
H1484 C1499 0.930 . S
C1485 H1473 0.930 . S
C1485 C1486 1.399 . S
C1485 C1490 1.399 . S
C1486 C1485 1.399 . S
C1486 C1487 1.376 . S
C1487 H1474 0.930 . S
C1487 C1486 1.376 . S
C1487 C1488 1.388 . S
C1488 H1475 0.930 . S
C1488 C1487 1.388 . S
C1488 C1489 1.390 . S
C1489 C1488 1.390 . S
C1489 C1490 1.394 . S
C1489 C1495 1.465 . S
C1490 C1485 1.399 . S
C1490 C1489 1.394 . S
C1490 C1491 1.516 . S
C1491 C1490 1.516 . S
C1491 C1492 1.502 . S
C1491 C1493 1.561 . S
C1491 C1494 1.526 . S
C1492 H1476 0.959 . S
C1492 H1477 0.959 . S
C1492 H1478 0.961 . S
C1492 C1491 1.502 . S
C1493 H1479 0.960 . S
C1493 H1480 0.961 . S
C1493 H1481 0.959 . S
C1493 C1491 1.561 . S
C1494 C1491 1.526 . S
C1494 C1495 1.396 . S
C1494 C1499 1.390 . S
C1495 C1489 1.465 . S
C1495 C1494 1.396 . S
C1495 C1496 1.399 . S
C1496 H1482 0.929 . S
C1496 C1495 1.399 . S
C1496 C1497 1.385 . S
C1497 H1483 0.931 . S
C1497 C1496 1.385 . S
C1497 C1498 1.389 . S
C1498 C1497 1.389 . S
C1498 C1499 1.387 . S
C1499 H1484 0.930 . S
C1499 C1494 1.390 . S
C1499 C1498 1.387 . S
H1500 C1512 0.930 . S
H1501 C1514 0.930 . S
H1502 C1515 0.930 . S
H1503 C1519 0.959 . S
H1504 C1519 0.959 . S
H1505 C1519 0.961 . S
H1506 C1520 0.960 . S
H1507 C1520 0.961 . S
H1508 C1520 0.959 . S
H1509 C1523 0.929 . S
H1510 C1524 0.931 . S
H1511 C1526 0.930 . S
C1512 H1500 0.930 . S
C1512 C1513 1.399 . S
C1512 C1517 1.399 . S
C1513 C1512 1.399 . S
C1513 C1514 1.376 . S
C1514 H1501 0.930 . S
C1514 C1513 1.376 . S
C1514 C1515 1.388 . S
C1515 H1502 0.930 . S
C1515 C1514 1.388 . S
C1515 C1516 1.390 . S
C1516 C1515 1.390 . S
C1516 C1517 1.394 . S
C1516 C1522 1.465 . S
C1517 C1512 1.399 . S
C1517 C1516 1.394 . S
C1517 C1518 1.516 . S
C1518 C1517 1.516 . S
C1518 C1519 1.502 . S
C1518 C1520 1.561 . S
C1518 C1521 1.526 . S
C1519 H1503 0.959 . S
C1519 H1504 0.959 . S
C1519 H1505 0.961 . S
C1519 C1518 1.502 . S
C1520 H1506 0.960 . S
C1520 H1507 0.961 . S
C1520 H1508 0.959 . S
C1520 C1518 1.561 . S
C1521 C1518 1.526 . S
C1521 C1522 1.396 . S
C1521 C1526 1.390 . S
C1522 C1516 1.465 . S
C1522 C1521 1.396 . S
C1522 C1523 1.399 . S
C1523 H1509 0.929 . S
C1523 C1522 1.399 . S
C1523 C1524 1.385 . S
C1524 H1510 0.931 . S
C1524 C1523 1.385 . S
C1524 C1525 1.389 . S
C1525 C1524 1.389 . S
C1525 C1526 1.387 . S
C1526 H1511 0.930 . S
C1526 C1521 1.390 . S
C1526 C1525 1.387 . S
H1527 C1539 0.930 . S
H1528 C1541 0.930 . S
H1529 C1542 0.930 . S
H1530 C1546 0.959 . S
H1531 C1546 0.959 . S
H1532 C1546 0.961 . S
H1533 C1547 0.960 . S
H1534 C1547 0.961 . S
H1535 C1547 0.959 . S
H1536 C1550 0.929 . S
H1537 C1551 0.931 . S
H1538 C1553 0.930 . S
C1539 H1527 0.930 . S
C1539 C1540 1.399 . S
C1539 C1544 1.399 . S
C1540 C1539 1.399 . S
C1540 C1541 1.376 . S
C1541 H1528 0.930 . S
C1541 C1540 1.376 . S
C1541 C1542 1.388 . S
C1542 H1529 0.930 . S
C1542 C1541 1.388 . S
C1542 C1543 1.390 . S
C1543 C1542 1.390 . S
C1543 C1544 1.394 . S
C1543 C1549 1.465 . S
C1544 C1539 1.399 . S
C1544 C1543 1.394 . S
C1544 C1545 1.516 . S
C1545 C1544 1.516 . S
C1545 C1546 1.502 . S
C1545 C1547 1.561 . S
C1545 C1548 1.526 . S
C1546 H1530 0.959 . S
C1546 H1531 0.959 . S
C1546 H1532 0.961 . S
C1546 C1545 1.502 . S
C1547 H1533 0.960 . S
C1547 H1534 0.961 . S
C1547 H1535 0.959 . S
C1547 C1545 1.561 . S
C1548 C1545 1.526 . S
C1548 C1549 1.396 . S
C1548 C1553 1.390 . S
C1549 C1543 1.465 . S
C1549 C1548 1.396 . S
C1549 C1550 1.399 . S
C1550 H1536 0.929 . S
C1550 C1549 1.399 . S
C1550 C1551 1.385 . S
C1551 H1537 0.931 . S
C1551 C1550 1.385 . S
C1551 C1552 1.389 . S
C1552 C1551 1.389 . S
C1552 C1553 1.387 . S
C1553 H1538 0.930 . S
C1553 C1548 1.390 . S
C1553 C1552 1.387 . S
H1554 C1566 0.930 . S
H1555 C1568 0.930 . S
H1556 C1569 0.930 . S
H1557 C1573 0.959 . S
H1558 C1573 0.959 . S
H1559 C1573 0.961 . S
H1560 C1574 0.960 . S
H1561 C1574 0.961 . S
H1562 C1574 0.959 . S
H1563 C1577 0.929 . S
H1564 C1578 0.931 . S
H1565 C1580 0.930 . S
C1566 H1554 0.930 . S
C1566 C1567 1.399 . S
C1566 C1571 1.399 . S
C1567 C1566 1.399 . S
C1567 C1568 1.376 . S
C1568 H1555 0.930 . S
C1568 C1567 1.376 . S
C1568 C1569 1.388 . S
C1569 H1556 0.930 . S
C1569 C1568 1.388 . S
C1569 C1570 1.390 . S
C1570 C1569 1.390 . S
C1570 C1571 1.394 . S
C1570 C1576 1.465 . S
C1571 C1566 1.399 . S
C1571 C1570 1.394 . S
C1571 C1572 1.516 . S
C1572 C1571 1.516 . S
C1572 C1573 1.502 . S
C1572 C1574 1.561 . S
C1572 C1575 1.526 . S
C1573 H1557 0.959 . S
C1573 H1558 0.959 . S
C1573 H1559 0.961 . S
C1573 C1572 1.502 . S
C1574 H1560 0.960 . S
C1574 H1561 0.961 . S
C1574 H1562 0.959 . S
C1574 C1572 1.561 . S
C1575 C1572 1.526 . S
C1575 C1576 1.396 . S
C1575 C1580 1.390 . S
C1576 C1570 1.465 . S
C1576 C1575 1.396 . S
C1576 C1577 1.399 . S
C1577 H1563 0.929 . S
C1577 C1576 1.399 . S
C1577 C1578 1.385 . S
C1578 H1564 0.931 . S
C1578 C1577 1.385 . S
C1578 C1579 1.389 . S
C1579 C1578 1.389 . S
C1579 C1580 1.387 . S
C1580 H1565 0.930 . S
C1580 C1575 1.390 . S
C1580 C1579 1.387 . S
H1581 C1593 0.930 . S
H1582 C1595 0.930 . S
H1583 C1596 0.930 . S
H1584 C1600 0.959 . S
H1585 C1600 0.959 . S
H1586 C1600 0.961 . S
H1587 C1601 0.960 . S
H1588 C1601 0.961 . S
H1589 C1601 0.959 . S
H1590 C1604 0.929 . S
H1591 C1605 0.931 . S
H1592 C1607 0.930 . S
C1593 H1581 0.930 . S
C1593 C1594 1.399 . S
C1593 C1598 1.399 . S
C1594 C1593 1.399 . S
C1594 C1595 1.376 . S
C1595 H1582 0.930 . S
C1595 C1594 1.376 . S
C1595 C1596 1.388 . S
C1596 H1583 0.930 . S
C1596 C1595 1.388 . S
C1596 C1597 1.390 . S
C1597 C1596 1.390 . S
C1597 C1598 1.394 . S
C1597 C1603 1.465 . S
C1598 C1593 1.399 . S
C1598 C1597 1.394 . S
C1598 C1599 1.516 . S
C1599 C1598 1.516 . S
C1599 C1600 1.502 . S
C1599 C1601 1.561 . S
C1599 C1602 1.526 . S
C1600 H1584 0.959 . S
C1600 H1585 0.959 . S
C1600 H1586 0.961 . S
C1600 C1599 1.502 . S
C1601 H1587 0.960 . S
C1601 H1588 0.961 . S
C1601 H1589 0.959 . S
C1601 C1599 1.561 . S
C1602 C1599 1.526 . S
C1602 C1603 1.396 . S
C1602 C1607 1.390 . S
C1603 C1597 1.465 . S
C1603 C1602 1.396 . S
C1603 C1604 1.399 . S
C1604 H1590 0.929 . S
C1604 C1603 1.399 . S
C1604 C1605 1.385 . S
C1605 H1591 0.931 . S
C1605 C1604 1.385 . S
C1605 C1606 1.389 . S
C1606 C1605 1.389 . S
C1606 C1607 1.387 . S
C1607 H1592 0.930 . S
C1607 C1602 1.390 . S
C1607 C1606 1.387 . S
C325 C187 1.224 . S
C337 C8 1.229 . S
C352 C18 1.203 . S
C364 C195 1.179 . S
C379 C242 1.311 . S
C391 C36 1.305 . S
C406 C39 1.155 . S
C418 C169 1.143 . S
C433 C182 1.251 . S
C445 C62 1.318 . S
C460 C70 1.260 . S
C472 C200 1.201 . S
C487 C86 1.176 . S
C499 C244 1.264 . S
C514 C91 1.180 . S
C526 C174 1.207 . S
C541 C125 1.201 . S
C553 C112 1.236 . S
C568 C130 1.325 . S
C580 C127 1.318 . S
C595 C135 1.224 . S
C607 C151 1.225 . S
C622 C153 1.291 . S
C634 C114 1.285 . S
C649 C156 1.177 . S
C661 C44 1.201 . S
C676 C60 1.248 . S
C688 C218 1.258 . S
C703 C221 1.219 . S
C715 C13 1.210 . S
C730 C23 1.434 . S
C742 C278 1.423 . S
C757 C117 1.309 . S
C769 C5 1.397 . S
C784 C307 1.367 . S
C796 C47 1.442 . S
C811 C143 1.382 . S
C823 C26 1.337 . S
C838 C273 1.415 . S
C850 C99 1.493 . S
C865 C122 1.335 . S
C877 C83 1.333 . S
C892 C75 1.434 . S
C904 C309 1.427 . S
C919 C52 1.347 . S
C931 C148 1.330 . S
C946 C205 1.439 . S
C958 C257 1.444 . S
C973 C213 1.506 . S
C985 C203 1.456 . S
C1000 C179 1.403 . S
C1012 C208 1.348 . S
C1027 C255 1.362 . S
C1039 C177 1.438 . S
C1054 C31 1.389 . S
C1066 C260 1.349 . S
C1081 C140 1.436 . S
C1093 C101 1.436 . S
C1108 C0 1.341 . S
C1120 C286 1.378 . S
C1135 C252 1.232 . S
C1147 C34 1.229 . S
C1162 C10 1.306 . S
C1174 C216 1.288 . S
C1189 C247 1.253 . S
C1201 C88 1.320 . S
C1216 C161 1.194 . S
C1228 C96 1.259 . S
C1243 C65 1.205 . S
C1255 C226 1.225 . S
C1270 C281 1.212 . S
C1282 C268 1.192 . S
C1297 C299 1.259 . S
C1309 C270 1.319 . S
C1324 C294 1.293 . S
C1336 C304 1.256 . S
C1351 C283 1.278 . S
C1363 C296 1.288 . S
C1378 C109 1.375 . S
C1390 C49 1.442 . S
C1405 C21 1.397 . S
C1417 C138 1.394 . S
C1432 C73 1.451 . S
C1444 C104 1.444 . S
C1459 C265 1.334 . S
C1471 C57 1.333 . S
C1486 C78 1.386 . S
C1498 C291 1.336 . S
C1513 C166 1.439 . S
C1525 C192 1.444 . S
C1540 C239 1.483 . S
C1552 C164 1.521 . S
C1567 C231 1.410 . S
C1579 C234 1.375 . S
C1594 C190 1.437 . S
C1606 C229 1.374 . S
