# Generated by pormake.
# Topology rob, (6)-cn, num edge types: 1
# Building blocks:
#     Node 0, Type 0, BuildingBlock: BETGAK_clean_sbu_0, # of connection points: 6
#     Node 1, Type 0, BuildingBlock: BETGAK_clean_sbu_0, # of connection points: 6
#     Node 2, Type 0, BuildingBlock: BETGAK_clean_sbu_0, # of connection points: 6
#     Node 3, Type 0, BuildingBlock: BETGAK_clean_sbu_0, # of connection points: 6
#     Edge 4, Type (0, 0), BuildingBlock: TEMPAE_clean_linker_10, # of connection points: 2
#     Edge 5, Type (0, 0), BuildingBlock: TEMPAE_clean_linker_10, # of connection points: 2
#     Edge 6, Type (0, 0), BuildingBlock: TEMPAE_clean_linker_10, # of connection points: 2
#     Edge 7, Type (0, 0), BuildingBlock: TEMPAE_clean_linker_10, # of connection points: 2
#     Edge 8, Type (0, 0), BuildingBlock: TEMPAE_clean_linker_10, # of connection points: 2
#     Edge 9, Type (0, 0), BuildingBlock: TEMPAE_clean_linker_10, # of connection points: 2
#     Edge 10, Type (0, 0), BuildingBlock: TEMPAE_clean_linker_10, # of connection points: 2
#     Edge 11, Type (0, 0), BuildingBlock: TEMPAE_clean_linker_10, # of connection points: 2
#     Edge 12, Type (0, 0), BuildingBlock: TEMPAE_clean_linker_10, # of connection points: 2
#     Edge 13, Type (0, 0), BuildingBlock: TEMPAE_clean_linker_10, # of connection points: 2
#     Edge 14, Type (0, 0), BuildingBlock: TEMPAE_clean_linker_10, # of connection points: 2
#     Edge 15, Type (0, 0), BuildingBlock: TEMPAE_clean_linker_10, # of connection points: 2
# Relax obj value: 0.161
# Max RMSD: 0.199
# Mean RMSD: 0.199
data_MOF--net-rob--node1-BETGAK_clean_sbu_0--edge1-TEMPAE_clean_linker_10
_symmetry_space_group_name_H-M    P1
_symmetry_Int_Tables_number       1
_symmetry_cell_setting            triclinic
loop_
_symmetry_equiv_pos_as_xyz
'x, y, z'
_cell_length_a     16.668788
_cell_length_b     23.680468
_cell_length_c     37.309944
_cell_angle_alpha  90.034936
_cell_angle_beta   125.04033
_cell_angle_gamma 89.936367
loop_
_atom_site_label
_atom_site_type_symbol
_atom_site_fract_x
_atom_site_fract_y
_atom_site_fract_z
_atom_type_partial_charge
La0 La 0.19747 0.30167 1.00545 0.0
La1 La 0.36934 0.24845 0.01161 0.0
C2 C 0.06673 0.31962 0.01839 0.0
C3 C 0.06153 0.31423 0.05677 0.0
C4 C 0.08661 0.36015 0.08532 0.0
C5 C 0.08242 0.35544 0.12159 0.0
C6 C 0.05214 0.30487 0.13014 0.0
C7 C 1.02607 0.25904 0.1014 0.0
C8 C 0.03075 0.26363 0.06516 0.0
C9 C 0.31075 0.37473 1.00113 0.0
C10 C 0.3946 0.26914 0.0981 0.0
C11 C 0.49671 0.21929 0.99882 0.0
C12 C 0.5027 0.2232 0.9609 0.0
C13 C 0.54459 0.17872 0.95213 0.0
C14 C 0.54572 0.17991 0.91491 0.0
C15 C 0.50552 0.22596 0.8857 0.0
C16 C 0.46405 0.27068 0.89487 0.0
C17 C 0.462 0.2691 0.93183 0.0
C18 C 0.25223 0.17847 0.01596 0.0
C19 C 0.17707 0.2847 0.91896 0.0
O20 O 0.12487 0.3588 0.0207 0.0
O21 O 0.07306 0.27282 1.00139 0.0
O22 O 0.21757 0.38157 0.98256 0.0
O23 O 0.33939 0.33085 0.02482 0.0
O24 O 0.29857 0.27656 0.07417 0.0
O25 O 0.44438 0.26462 0.08072 0.0
O26 O 0.42903 0.18546 0.99372 0.0
O27 O 0.50014 0.26669 0.01775 0.0
O28 O 0.34654 0.17268 0.03856 0.0
O29 O 0.22697 0.22064 0.99114 0.0
O30 O 0.27252 0.27528 0.94352 0.0
O31 O 0.12602 0.29117 0.93571 0.0
H32 H 0.10944 0.39999 0.07964 0.0
H33 H 0.10144 0.39187 0.14259 0.0
H34 H 1.00301 0.21935 0.10717 0.0
H35 H 1.01037 0.22747 0.04378 0.0
H36 H 0.57509 0.14249 0.97375 0.0
H37 H 0.5765 0.14411 0.90867 0.0
H38 H 0.4335 0.30723 0.87365 0.0
H39 H 0.42775 0.3036 0.93735 0.0
La40 La 0.69173 0.80136 1.00218 0.0
La41 La 0.87259 0.75081 0.0143 0.0
C42 C 0.55385 0.8166 0.01077 0.0
C43 C 0.54982 0.81457 0.04934 0.0
C44 C 0.62978 0.83266 0.09063 0.0
C45 C 0.6261 0.83006 0.12711 0.0
C46 C 0.54251 0.80908 0.12329 0.0
C47 C 0.46282 0.79053 0.08189 0.0
C48 C 0.46656 0.79323 0.04533 0.0
C49 C 0.80988 0.87585 1.00303 0.0
C50 C 0.88202 0.77006 0.09763 0.0
C51 C 1.0112 0.72584 0.0078 0.0
C52 C 1.02538 0.72971 0.97227 0.0
C53 C 0.08657 0.69087 0.9705 0.0
C54 C 0.09577 0.69163 0.93546 0.0
C55 C 0.04401 0.73148 0.90146 0.0
C56 C 0.98396 0.77092 0.90388 0.0
C57 C 0.97427 0.76977 0.93868 0.0
C58 C 0.75173 0.67886 0.01395 0.0
C59 C 0.68532 0.7852 0.91894 0.0
O60 O 0.60564 0.85757 0.01012 0.0
O61 O 0.57013 0.76841 0.99878 0.0
O62 O 0.71595 0.88255 0.98212 0.0
O63 O 0.83581 0.83169 0.02621 0.0
O64 O 0.78616 0.77753 0.07137 0.0
O65 O 0.9373 0.76596 0.08291 0.0
O66 O 0.94443 0.68995 1.00117 0.0
O67 O 1.00579 0.77352 0.0241 0.0
O68 O 0.84632 0.6739 0.03879 0.0
O69 O 0.72838 0.72132 0.98952 0.0
O70 O 0.78093 0.77654 0.94558 0.0
O71 O 0.62929 0.79042 0.9333 0.0
H72 H 0.69521 0.84914 0.09478 0.0
H73 H 0.68838 0.84541 0.15819 0.0
H74 H 0.39786 0.77331 0.0778 0.0
H75 H 0.40447 0.77847 0.01392 0.0
H76 H 0.12592 0.6592 0.99584 0.0
H77 H 0.14154 0.66003 0.93453 0.0
H78 H 0.94411 0.80283 0.87883 0.0
H79 H 0.92579 0.79985 0.93889 0.0
La80 La 0.35523 0.80397 0.50792 0.0
La81 La 0.18372 0.75051 0.50311 0.0
C82 C 0.4853 0.82718 0.49526 0.0
C83 C 0.49798 0.81915 0.45949 0.0
C84 C 0.57432 0.84704 0.46128 0.0
C85 C 0.58338 0.8434 0.42626 0.0
C86 C 0.51566 0.81203 0.38848 0.0
C87 C 0.44017 0.78328 0.38725 0.0
C88 C 0.43171 0.78668 0.42241 0.0
C89 C 0.24 0.87495 0.51284 0.0
C90 C 0.15933 0.76744 0.41653 0.0
C91 C 0.05519 0.73177 0.51709 0.0
C92 C 0.05753 0.73047 0.55746 0.0
C93 C 0.10544 0.68675 0.58838 0.0
C94 C 0.10876 0.68672 0.62671 0.0
C95 C 0.06472 0.73047 0.63516 0.0
C96 C 1.01705 0.77423 0.60433 0.0
C97 C 1.01307 0.77405 0.56582 0.0
C98 C 0.29886 0.67871 0.49875 0.0
C99 C 0.38165 0.78311 0.59585 0.0
O100 O 0.41512 0.86175 0.4867 0.0
O101 O 0.48675 0.78178 0.51567 0.0
O102 O 0.33283 0.883 0.53156 0.0
O103 O 0.21337 0.83168 0.48886 0.0
O104 O 0.25542 0.77408 0.4405 0.0
O105 O 0.10914 0.7653 0.43381 0.0
O106 O 0.10286 0.69183 0.5124 0.0
O107 O 0.06858 0.78118 0.50559 0.0
O108 O 0.20599 0.67064 0.48036 0.0
O109 O 0.3256 0.72266 0.52214 0.0
O110 O 0.28756 0.76992 0.57241 0.0
O111 O 0.42928 0.79415 0.578 0.0
H112 H 0.62637 0.87231 0.48958 0.0
H113 H 0.64346 0.86531 0.42881 0.0
H114 H 0.38587 0.75927 0.35864 0.0
H115 H 0.3724 0.76457 0.42013 0.0
H116 H 0.14095 0.65259 0.58319 0.0
H117 H 0.14688 0.65273 0.65003 0.0
H118 H 0.98153 0.80824 0.60968 0.0
H119 H 0.97537 0.80818 0.54257 0.0
La120 La 0.86314 0.30177 0.51211 0.0
La121 La 0.68069 0.25528 0.49978 0.0
C122 C 0.99937 0.31962 0.50292 0.0
C123 C 1.00787 0.31258 0.46577 0.0
C124 C 0.04174 0.35787 0.45365 0.0
C125 C 0.04395 0.35397 0.41681 0.0
C126 C 1.01297 0.30446 0.3914 0.0
C127 C 0.98048 0.25867 0.40393 0.0
C128 C 0.97738 0.26277 0.44061 0.0
C129 C 0.746 0.37736 0.51135 0.0
C130 C 0.67466 0.2698 0.41715 0.0
C131 C 0.54078 0.24164 0.50716 0.0
C132 C 0.53317 0.23964 0.54495 0.0
C133 C 0.54944 0.18899 0.5679 0.0
C134 C 0.54434 0.18758 0.60405 0.0
C135 C 0.52242 0.2367 0.61808 0.0
C136 C 0.5051 0.28723 0.59484 0.0
C137 C 0.51009 0.28864 0.55865 0.0
C138 C 0.79683 0.1789 0.50047 0.0
C139 C 0.87306 0.28365 0.59605 0.0
O140 O 0.93768 0.35852 0.49767 0.0
O141 O 0.99276 0.27364 0.52062 0.0
O142 O 0.84079 0.38113 0.53549 0.0
O143 O 0.72027 0.33431 0.48723 0.0
O144 O 0.77107 0.27345 0.44395 0.0
O145 O 0.6183 0.27057 0.43142 0.0
O146 O 0.58705 0.19992 0.50335 0.0
O147 O 0.56391 0.29047 0.49896 0.0
O148 O 0.70193 0.17498 0.47708 0.0
O149 O 0.82322 0.22237 0.52431 0.0
O150 O 0.77776 0.27351 0.56996 0.0
O151 O 0.92744 0.29119 0.58108 0.0
H152 H 0.06523 0.39672 0.47239 0.0
H153 H 0.0703 0.38972 0.40825 0.0
H154 H 0.95538 0.22016 0.38477 0.0
H155 H 0.94977 0.22732 0.44883 0.0
H156 H 0.56688 0.15035 0.55819 0.0
H157 H 0.55906 0.14808 0.62143 0.0
H158 H 0.48662 0.32567 0.60433 0.0
H159 H 0.49612 0.32827 0.54148 0.0
C160 C 0.71089 0.60802 0.05056 0.0
C161 C 0.68269 0.63852 0.01287 0.0
C162 C 0.64833 0.56755 0.04986 0.0
C163 C 0.55686 0.55568 0.01005 0.0
C164 C 0.52778 0.58689 0.97191 0.0
C165 C 0.59035 0.62873 0.97402 0.0
C166 C 0.68068 0.53712 0.09169 0.0
C167 C 0.43207 0.57488 0.92855 0.0
C168 C 0.45154 0.40903 1.00026 0.0
C169 C 0.37548 0.42055 1.00475 0.0
C170 C 0.50982 0.45263 1.00109 0.0
C171 C 0.49363 0.50918 0.00803 0.0
C172 C 0.41762 0.52094 0.01335 0.0
C173 C 0.3583 0.47659 0.0108 0.0
C174 C 0.58758 0.43821 0.99373 0.0
C175 C 0.39957 0.5802 0.02218 0.0
H176 H 0.78191 0.61609 0.08076 0.0
H177 H 0.56864 0.6523 0.94484 0.0
H178 H 0.62225 0.53915 0.09735 0.0
H179 H 0.69372 0.49188 0.08894 0.0
H180 H 0.74899 0.55523 0.12061 0.0
H181 H 0.4221 0.60125 0.90164 0.0
H182 H 0.42881 0.52971 0.91983 0.0
H183 H 0.36981 0.58288 0.93098 0.0
H184 H 0.46332 0.36617 0.99457 0.0
H185 H 0.29926 0.48564 0.01424 0.0
H186 H 0.661 0.44931 0.02316 0.0
H187 H 0.576 0.46334 0.96601 0.0
H188 H 0.58745 0.39265 0.98652 0.0
H189 H 0.46793 0.59775 0.05136 0.0
H190 H 0.34097 0.58184 0.02779 0.0
H191 H 0.37817 0.60804 0.99412 0.0
C192 C 0.42467 0.646 0.48701 0.0
C193 C 0.36566 0.6349 0.50169 0.0
C194 C 0.48529 0.60381 0.48782 0.0
C195 C 0.48812 0.54941 0.50446 0.0
C196 C 0.42868 0.53825 0.51957 0.0
C197 C 0.36711 0.58092 0.51739 0.0
C198 C 0.54525 0.6173 0.47031 0.0
C199 C 0.43064 0.48135 0.53833 0.0
C200 C 0.58076 0.42337 0.4738 0.0
C201 C 0.67895 0.42008 0.50983 0.0
C202 C 0.51801 0.46544 0.47142 0.0
C203 C 0.55371 0.50437 0.50638 0.0
C204 C 0.65243 0.50029 0.54325 0.0
C205 C 0.71401 0.45865 0.54428 0.0
C206 C 0.41392 0.46875 0.43118 0.0
C207 C 0.69304 0.53989 0.58169 0.0
H208 H 0.42124 0.68719 0.4737 0.0
H209 H 0.32082 0.57232 0.52849 0.0
H210 H 0.62432 0.61167 0.49647 0.0
H211 H 0.52631 0.58761 0.44349 0.0
H212 H 0.53321 0.66119 0.45765 0.0
H213 H 0.38182 0.47985 0.54961 0.0
H214 H 0.40763 0.44792 0.51338 0.0
H215 H 0.50646 0.47118 0.5664 0.0
H216 H 0.55351 0.39376 0.44701 0.0
H217 H 0.78975 0.45598 0.57233 0.0
H218 H 0.40006 0.51103 0.41585 0.0
H219 H 0.3619 0.46337 0.44041 0.0
H220 H 0.39797 0.4361 0.40651 0.0
H221 H 0.68947 0.58405 0.57096 0.0
H222 H 0.77028 0.52995 0.60851 0.0
H223 H 0.64795 0.53761 0.59483 0.0
C224 C 0.21811 0.10407 0.05286 0.0
C225 C 0.18477 0.13812 0.01613 0.0
C226 C 0.15669 0.06346 0.05292 0.0
C227 C 0.06063 0.0554 0.01477 0.0
C228 C 1.02633 0.0903 0.97773 0.0
C229 C 0.08836 0.13189 0.97914 0.0
C230 C 0.19514 0.02868 0.09365 0.0
C231 C 0.92534 0.08246 0.93607 0.0
C232 C 0.94558 0.91034 0.99883 0.0
C233 C 0.87684 0.92101 0.00811 0.0
C234 C 1.00536 0.95367 1.0006 0.0
C235 C 0.99765 1.00896 0.01299 0.0
C236 C 0.92919 1.01972 0.0232 0.0
C237 C 0.86835 0.97578 0.01986 0.0
C238 C 0.07516 0.94046 0.98823 0.0
C239 C 0.92037 0.07756 0.03771 0.0
H240 H 0.29241 0.10929 0.08166 0.0
H241 H 0.0626 0.15816 0.95068 0.0
H242 H 0.1426 0.02978 0.10287 0.0
H243 H 0.20281 0.98396 0.08721 0.0
H244 H 0.26751 0.04389 0.12183 0.0
H245 H 0.90978 0.11298 0.9102 0.0
H246 H 0.91812 0.03898 0.92341 0.0
H247 H 0.86881 0.08756 0.94267 0.0
H248 H 0.95001 0.86857 0.98857 0.0
H249 H 0.81468 0.98407 0.02687 0.0
H250 H 0.15154 0.94942 0.01621 0.0
H251 H 0.05881 0.96796 0.96071 0.0
H252 H 0.07062 0.89565 0.97836 0.0
H253 H 0.99292 0.09169 0.06632 0.0
H254 H 0.8674 0.07824 0.04673 0.0
H255 H 0.8962 0.10867 0.01114 0.0
C256 C 0.82412 0.09128 0.47141 0.0
C257 C 0.86306 0.13556 0.5019 0.0
C258 C 0.88472 0.04881 0.47261 0.0
C259 C 0.98707 0.05044 0.50522 0.0
C260 C 1.0269 0.09539 0.53596 0.0
C261 C 0.96442 0.13741 0.53389 0.0
C262 C 0.83906 1.00205 0.43902 0.0
C263 C 0.13544 0.09875 0.57134 0.0
C264 C 0.1308 0.91263 0.53289 0.0
C265 C 0.17315 0.9187 0.50983 0.0
C266 C 0.07059 0.95525 0.53193 0.0
C267 C 0.05214 1.00505 0.50714 0.0
C268 C 0.09525 1.01118 0.48383 0.0
C269 C 0.1558 0.96805 0.48572 0.0
C270 C 1.02688 0.94697 0.55751 0.0
C271 C 0.07733 0.0633 0.45686 0.0
H272 H 0.74583 0.08974 0.4465 0.0
H273 H 0.99483 0.17131 0.55772 0.0
H274 H 0.87268 1.00072 0.42058 0.0
H275 H 0.85352 0.96067 0.45562 0.0
H276 H 0.75858 1.00733 0.41536 0.0
H277 H 0.155 0.13642 0.59261 0.0
H278 H 0.15964 0.06032 0.59209 0.0
H279 H 0.1769 0.1003 0.55642 0.0
H280 H 0.14628 0.87497 0.55238 0.0
H281 H 0.18958 0.9728 0.46825 0.0
H282 H 0.946 0.94389 0.53458 0.0
H283 H 0.0435 0.98382 0.5791 0.0
H284 H 0.05474 0.90818 0.57795 0.0
H285 H 0.99768 0.06839 0.43139 0.0
H286 H 0.11596 0.06156 0.44058 0.0
H287 H 0.10216 0.10141 0.47795 0.0
C288 C 0.67948 0.23125 0.35685 0.0
C289 C 0.63141 0.26408 0.37034 0.0
C290 C 0.644 0.22803 0.31263 0.0
C291 C 0.56075 0.26022 0.28163 0.0
C292 C 0.51188 0.2935 0.29518 0.0
C293 C 0.5469 0.29413 0.33949 0.0
C294 C 0.69569 0.19036 0.29921 0.0
C295 C 0.42424 0.32946 0.26311 0.0
C296 C 0.52468 0.29715 0.17441 0.0
C297 C 0.44472 0.26294 0.14531 0.0
C298 C 0.56418 0.29643 0.21925 0.0
C299 C 0.52441 0.25911 0.23495 0.0
C300 C 0.44707 0.22224 0.20569 0.0
C301 C 0.40667 0.22552 0.16095 0.0
C302 C 0.64492 0.33744 0.24938 0.0
C303 C 0.40574 0.1801 0.22143 0.0
H304 H 0.74476 0.2078 0.38097 0.0
H305 H 0.51073 0.31993 0.35028 0.0
H306 H 0.64222 0.16174 0.27237 0.0
H307 H 0.72975 0.21633 0.28661 0.0
H308 H 0.75392 0.16439 0.32689 0.0
H309 H 0.40042 0.35672 0.27962 0.0
H310 H 0.44169 0.35677 0.24428 0.0
H311 H 0.36195 0.3021 0.23927 0.0
H312 H 0.55288 0.32637 0.1618 0.0
H313 H 0.34486 0.19895 0.13805 0.0
H314 H 0.70955 0.31455 0.2766 0.0
H315 H 0.61919 0.36646 0.26418 0.0
H316 H 0.66853 0.363 0.23202 0.0
H317 H 0.46584 0.15594 0.24977 0.0
H318 H 0.35468 0.14984 0.19533 0.0
H319 H 0.36544 0.20262 0.23259 0.0
C320 C 0.45201 0.82131 0.15846 0.0
C321 C 0.5385 0.80725 0.16229 0.0
C322 C 0.44819 0.82123 0.19516 0.0
C323 C 0.53309 0.80713 0.23691 0.0
C324 C 0.62048 0.79262 0.24099 0.0
C325 C 0.62191 0.79256 0.20369 0.0
C326 C 0.35342 0.83682 0.1893 0.0
C327 C 0.71287 0.7776 0.28484 0.0
C328 C 0.54837 0.85885 0.33743 0.0
C329 C 0.52229 0.81033 0.35018 0.0
C330 C 0.55311 0.85825 0.301 0.0
C331 C 0.53056 0.80802 0.27631 0.0
C332 C 0.50451 0.75885 0.289 0.0
C333 C 0.50097 0.76054 0.32576 0.0
C334 C 0.58131 0.91161 0.28865 0.0
C335 C 0.47996 0.70444 0.26362 0.0
H336 H 0.3875 0.83348 0.12684 0.0
H337 H 0.68851 0.78062 0.20693 0.0
H338 H 0.33015 0.80219 0.20145 0.0
H339 H 0.36445 0.87495 0.20894 0.0
H340 H 0.29333 0.8454 0.15455 0.0
H341 H 0.77402 0.76588 0.2823 0.0
H342 H 0.73645 0.81398 0.30753 0.0
H343 H 0.69873 0.74181 0.29967 0.0
H344 H 0.56342 0.89783 0.35548 0.0
H345 H 0.48217 0.72256 0.33558 0.0
H346 H 0.52006 0.92542 0.25546 0.0
H347 H 0.64537 0.90351 0.2875 0.0
H348 H 0.59978 0.94664 0.31202 0.0
H349 H 0.4169 0.71116 0.22916 0.0
H350 H 0.46139 0.66986 0.27778 0.0
H351 H 0.54291 0.69079 0.26305 0.0
C352 C 0.55882 0.82019 0.84335 0.0
C353 C 0.6419 0.78736 0.87172 0.0
C354 C 0.51984 0.82311 0.79855 0.0
C355 C 0.56347 0.79101 0.78189 0.0
C356 C 0.64714 0.75761 0.81052 0.0
C357 C 0.68603 0.75679 0.85518 0.0
C358 C 0.43197 0.86032 0.76906 0.0
C359 C 0.69346 0.72103 0.79384 0.0
C360 C 0.39982 0.74854 0.66275 0.0
C361 C 0.43293 0.78397 0.6437 0.0
C362 C 0.44223 0.7502 0.70771 0.0
C363 C 0.51815 0.78929 0.73415 0.0
C364 C 0.55202 0.82533 0.71515 0.0
C365 C 0.50973 0.82168 0.67002 0.0
C366 C 0.40577 0.70996 0.72683 0.0
C367 C 0.63167 0.86822 0.74236 0.0
H368 H 0.52544 0.8443 0.85628 0.0
H369 H 0.74993 0.73095 0.87708 0.0
H370 H 0.44642 0.88854 0.74962 0.0
H371 H 0.36766 0.83393 0.74558 0.0
H372 H 0.41274 0.88664 0.78777 0.0
H373 H 0.76232 0.70074 0.82085 0.0
H374 H 0.64123 0.68742 0.77243 0.0
H375 H 0.7098 0.74624 0.77374 0.0
H376 H 0.34067 0.71907 0.64242 0.0
H377 H 0.53447 0.84947 0.65515 0.0
H378 H 0.37264 0.734 0.74079 0.0
H379 H 0.46789 0.68529 0.75388 0.0
H380 H 0.35003 0.68005 0.70203 0.0
H381 H 0.6107 0.89592 0.75973 0.0
H382 H 0.6462 0.89498 0.72222 0.0
H383 H 0.70063 0.84649 0.76765 0.0
C384 C 0.47309 0.18984 0.66318 0.0
C385 C 0.51787 0.23522 0.65686 0.0
C386 C 0.4692 0.18764 0.69981 0.0
C387 C 0.51076 0.232 0.73091 0.0
C388 C 0.55554 0.27809 0.7246 0.0
C389 C 0.55878 0.27906 0.68778 0.0
C390 C 0.42116 0.13761 0.70536 0.0
C391 C 0.60045 0.32633 0.75687 0.0
C392 C 0.42777 0.25075 0.80645 0.0
C393 C 0.50642 0.22718 0.84583 0.0
C394 C 0.42829 0.25279 0.76892 0.0
C395 C 0.50867 0.22988 0.77038 0.0
C396 C 0.58763 0.20534 0.80973 0.0
C397 C 0.58599 0.20477 0.84698 0.0
C398 C 0.34296 0.27981 0.72777 0.0
C399 C 0.67418 0.17975 0.81258 0.0
H400 H 0.44014 0.15615 0.63919 0.0
H401 H 0.59474 0.31389 0.68353 0.0
H402 H 0.47501 0.11563 0.73655 0.0
H403 H 0.36034 0.15206 0.70723 0.0
H404 H 0.39155 0.10685 0.67805 0.0
H405 H 0.63036 0.35967 0.7467 0.0
H406 H 0.54475 0.34559 0.76049 0.0
H407 H 0.66059 0.31038 0.78955 0.0
H408 H 0.36503 0.2673 0.80473 0.0
H409 H 0.648 0.18729 0.87723 0.0
H410 H 0.30867 0.24897 0.70045 0.0
H411 H 0.36931 0.31571 0.71805 0.0
H412 H 0.28599 0.29558 0.73195 0.0
H413 H 0.64871 0.14677 0.78707 0.0
H414 H 0.72799 0.16049 0.84509 0.0
H415 H 0.71204 0.21261 0.80628 0.0
C416 C 1.01144 0.79323 0.17542 0.0
C417 C 0.92563 0.76431 0.14448 0.0
C418 C 0.04712 0.79223 0.21984 0.0
C419 C 0.99735 0.75981 0.23332 0.0
C420 C 0.91272 0.72875 0.20217 0.0
C421 C 0.87681 0.73226 0.15792 0.0
C422 C 0.13599 0.8272 0.25205 0.0
C423 C 0.86029 0.69183 0.21557 0.0
C424 C 0.14747 0.72334 0.35378 0.0
C425 C 0.1095 0.76111 0.36932 0.0
C426 C 0.10878 0.72081 0.30918 0.0
C427 C 0.03331 0.75875 0.27998 0.0
C428 C 0.99371 0.79649 0.29557 0.0
C429 C 0.03147 0.79653 0.34023 0.0
C430 C 0.15004 0.67835 0.29355 0.0
C431 C 0.91544 0.83886 0.26567 0.0
H432 H 0.04814 0.81842 0.16463 0.0
H433 H 0.81059 0.70963 0.1337 0.0
H434 H 0.11713 0.85751 0.26885 0.0
H435 H 0.19542 0.7997 0.27761 0.0
H436 H 0.16449 0.85118 0.236 0.0
H437 H 0.79546 0.67038 0.18716 0.0
H438 H 0.91145 0.65924 0.23905 0.0
H439 H 0.8358 0.71735 0.23255 0.0
H440 H 0.2081 0.69603 0.3767 0.0
H441 H 1.00369 0.82627 0.35275 0.0
H442 H 0.19217 0.70051 0.28321 0.0
H443 H 0.08984 0.65499 0.2647 0.0
H444 H 0.19947 0.64743 0.31947 0.0
H445 H 0.94736 0.87118 0.25578 0.0
H446 H 0.88472 0.8605 0.28173 0.0
H447 H 0.85472 0.81827 0.23535 0.0
C448 C 0.05548 0.25438 0.34493 0.0
C449 C 1.01417 0.30112 0.35185 0.0
C450 C 0.06126 0.2522 0.30877 0.0
C451 C 1.02372 0.29753 0.27847 0.0
C452 C 0.97968 0.34415 0.28475 0.0
C453 C 0.97592 0.3455 0.32142 0.0
C454 C 0.10925 0.20189 0.30345 0.0
C455 C 0.93761 0.39303 0.25301 0.0
C456 C 0.12148 0.3232 0.20929 0.0
C457 C 0.04669 0.30059 0.16862 0.0
C458 C 0.11559 0.3217 0.24539 0.0
C459 C 0.03275 0.29708 0.24085 0.0
C460 C 0.95761 0.27348 0.20007 0.0
C461 C 0.9656 0.27538 0.16453 0.0
C462 C 0.19773 0.34696 0.28834 0.0
C463 C 0.86782 0.24717 0.19374 0.0
H464 H 0.08565 0.22013 0.36849 0.0
H465 H 0.94266 0.38135 0.32629 0.0
H466 H 0.05813 0.18222 0.27088 0.0
H467 H 0.17473 0.2158 0.305 0.0
H468 H 0.13223 0.1694 0.32911 0.0
H469 H 0.90268 0.42508 0.26167 0.0
H470 H 0.99648 0.41382 0.25244 0.0
H471 H 0.88218 0.37753 0.2194 0.0
H472 H 0.18502 0.34205 0.21294 0.0
H473 H 0.90701 0.25835 0.13314 0.0
H474 H 0.23009 0.31423 0.31432 0.0
H475 H 0.16879 0.38095 0.29846 0.0
H476 H 0.25673 0.36488 0.28644 0.0
H477 H 0.88966 0.21314 0.21814 0.0
H478 H 0.81732 0.22918 0.16042 0.0
H479 H 0.82745 0.27936 0.1992 0.0
C480 C 0.87676 0.2542 0.66074 0.0
C481 C 0.91824 0.28559 0.6434 0.0
C482 C 0.91672 0.25572 0.7055 0.0
C483 C 0.99851 0.29075 0.73333 0.0
C484 C 0.03957 0.3235 0.71586 0.0
C485 C 0.99972 0.31984 0.67103 0.0
C486 C 0.87279 0.21878 0.72308 0.0
C487 C 0.12533 0.36239 0.74449 0.0
C488 C 0.04951 0.3224 0.84449 0.0
C489 C 0.12842 0.28616 0.87137 0.0
C490 C 1.00791 0.32565 0.79943 0.0
C491 C 0.04438 0.2904 0.78109 0.0
C492 C 0.12319 0.25315 0.8082 0.0
C493 C 0.16502 0.25207 0.85311 0.0
C494 C 0.92607 0.36721 0.77159 0.0
C495 C 0.16208 0.21351 0.78975 0.0
H496 H 0.81384 0.22749 0.63936 0.0
H497 H 0.03087 0.34466 0.65745 0.0
H498 H 0.92913 0.18904 0.74774 0.0
H499 H 0.84834 0.24495 0.73978 0.0
H500 H 0.80916 0.19399 0.6969 0.0
H501 H 0.14435 0.38773 0.72531 0.0
H502 H 0.10829 0.39157 0.76257 0.0
H503 H 0.19064 0.33747 0.76922 0.0
H504 H 1.02228 0.34923 0.85885 0.0
H505 H 0.22584 0.22373 0.87397 0.0
H506 H 0.85807 0.34435 0.74682 0.0
H507 H 0.94527 0.39488 0.75357 0.0
H508 H 0.91059 0.3941 0.79137 0.0
H509 H 0.10359 0.18351 0.76674 0.0
H510 H 0.22656 0.18895 0.81568 0.0
H511 H 0.18351 0.23734 0.77091 0.0
C512 C 0.04638 0.68034 0.68933 0.0
C513 C 0.06726 0.73003 0.67571 0.0
C514 C 0.0456 0.67964 0.7268 0.0
C515 C 0.06671 0.72979 0.75143 0.0
C516 C 0.08953 0.77984 0.73826 0.0
C517 C 0.08925 0.7794 0.70051 0.0
C518 C 1.02052 0.62544 0.73958 0.0
C519 C 0.11309 0.83408 0.76376 0.0
C520 C 0.96751 0.74309 0.82091 0.0
C521 C 0.05058 0.73119 0.86315 0.0
C522 C 0.97199 0.74313 0.78447 0.0
C523 C 0.06157 0.73035 0.79008 0.0
C524 C 0.14571 0.71798 0.83249 0.0
C525 C 0.13932 0.71878 0.86848 0.0
C526 C 0.88049 0.75665 0.73987 0.0
C527 C 0.24252 0.70383 0.83986 0.0
H528 H 1.02841 0.64219 0.67007 0.0
H529 H 0.10676 0.81772 0.69048 0.0
H530 H 0.08004 0.61402 0.77376 0.0
H531 H 0.95284 0.63136 0.73827 0.0
H532 H 1.00896 0.58969 0.7178 0.0
H533 H 0.13232 0.86886 0.75 0.0
H534 H 0.04918 0.84744 0.7637 0.0
H535 H 0.17526 0.82735 0.79838 0.0
H536 H 0.89818 0.75176 0.81612 0.0
H537 H 0.20436 0.71027 0.90092 0.0
H538 H 0.86034 0.72009 0.71763 0.0
H539 H 0.89421 0.79295 0.72529 0.0
H540 H 0.81724 0.7671 0.7412 0.0
H541 H 0.23438 0.66572 0.82072 0.0
H542 H 0.30134 0.69585 0.87491 0.0
H543 H 0.26581 0.73892 0.82809 0.0
loop_
_geom_bond_atom_site_label_1
_geom_bond_atom_site_label_2
_geom_bond_distance
_geom_bond_site_symmetry_2
_ccdc_geom_bond_type
La0 C2 2.928 1_556 S
La0 O20 2.521 1_556 S
La0 O21 2.628 1_556 S
La0 O22 2.554 1_556 S
La0 O23 2.757 . S
La0 O24 2.470 1_556 S
La0 O29 2.482 1_556 S
La0 O31 2.503 . S
La1 C11 2.928 1_554 S
La1 O23 2.482 1_554 S
La1 O25 2.503 . S
La1 O26 2.521 1_554 S
La1 O27 2.628 1_554 S
La1 O28 2.554 1_554 S
La1 O29 2.757 . S
La1 O30 2.470 1_554 S
C2 La0 2.928 1_554 S
C2 C3 1.503 . S
C2 O20 1.261 . S
C2 O21 1.243 . S
C3 C2 1.503 . S
C3 C4 1.394 . S
C3 C8 1.373 . S
C4 C3 1.394 . S
C4 C5 1.380 . S
C4 H32 0.930 . S
C5 C4 1.380 . S
C5 C6 1.376 . S
C5 H33 0.930 . S
C6 C5 1.376 . S
C6 C7 1.370 . S
C7 C6 1.370 . S
C7 C8 1.396 . S
C7 H34 0.929 . S
C8 C3 1.373 . S
C8 C7 1.396 . S
C8 H35 0.929 . S
C9 O22 1.240 . S
C9 O23 1.289 1_554 S
C10 O24 1.258 . S
C10 O25 1.256 . S
C11 La1 2.928 1_556 S
C11 C12 1.503 . S
C11 O26 1.261 . S
C11 O27 1.243 . S
C12 C11 1.503 . S
C12 C13 1.394 . S
C12 C17 1.373 . S
C13 C12 1.394 . S
C13 C14 1.380 . S
C13 H36 0.930 . S
C14 C13 1.380 . S
C14 C15 1.376 . S
C14 H37 0.930 . S
C15 C14 1.376 . S
C15 C16 1.370 . S
C16 C15 1.370 . S
C16 C17 1.396 . S
C16 H38 0.929 . S
C17 C12 1.373 . S
C17 C16 1.396 . S
C17 H39 0.929 . S
C18 O28 1.240 . S
C18 O29 1.289 1_556 S
C19 O30 1.258 . S
C19 O31 1.256 . S
O20 La0 2.521 1_554 S
O20 C2 1.261 . S
O21 La0 2.628 1_554 S
O21 C2 1.243 . S
O22 La0 2.554 1_554 S
O22 C9 1.240 . S
O23 La0 2.757 . S
O23 La1 2.482 1_556 S
O23 C9 1.289 1_556 S
O24 La0 2.470 1_554 S
O24 C10 1.258 . S
O25 La1 2.503 . S
O25 C10 1.256 . S
O26 La1 2.521 1_556 S
O26 C11 1.261 . S
O27 La1 2.628 1_556 S
O27 C11 1.243 . S
O28 La1 2.554 1_556 S
O28 C18 1.240 . S
O29 La0 2.482 1_554 S
O29 La1 2.757 . S
O29 C18 1.289 1_554 S
O30 La1 2.470 1_556 S
O30 C19 1.258 . S
O31 La0 2.503 . S
O31 C19 1.256 . S
H32 C4 0.930 . S
H33 C5 0.930 . S
H34 C7 0.929 . S
H35 C8 0.929 . S
H36 C13 0.930 . S
H37 C14 0.930 . S
H38 C16 0.929 . S
H39 C17 0.929 . S
La40 C42 2.928 1_556 S
La40 O60 2.521 1_556 S
La40 O61 2.628 1_556 S
La40 O62 2.554 1_556 S
La40 O63 2.757 . S
La40 O64 2.470 1_556 S
La40 O69 2.482 1_556 S
La40 O71 2.503 . S
La41 C51 2.928 1_554 S
La41 O63 2.482 1_554 S
La41 O65 2.503 . S
La41 O66 2.521 1_554 S
La41 O67 2.628 1_554 S
La41 O68 2.554 1_554 S
La41 O69 2.757 . S
La41 O70 2.470 1_554 S
C42 La40 2.928 1_554 S
C42 C43 1.503 . S
C42 O60 1.261 . S
C42 O61 1.243 . S
C43 C42 1.503 . S
C43 C44 1.394 . S
C43 C48 1.373 . S
C44 C43 1.394 . S
C44 C45 1.380 . S
C44 H72 0.930 . S
C45 C44 1.380 . S
C45 C46 1.376 . S
C45 H73 0.930 . S
C46 C45 1.376 . S
C46 C47 1.370 . S
C47 C46 1.370 . S
C47 C48 1.396 . S
C47 H74 0.929 . S
C48 C43 1.373 . S
C48 C47 1.396 . S
C48 H75 0.929 . S
C49 O62 1.240 . S
C49 O63 1.289 1_554 S
C50 O64 1.258 . S
C50 O65 1.256 . S
C51 La41 2.928 1_556 S
C51 C52 1.503 . S
C51 O66 1.261 . S
C51 O67 1.243 . S
C52 C51 1.503 . S
C52 C53 1.394 . S
C52 C57 1.373 . S
C53 C52 1.394 . S
C53 C54 1.380 . S
C53 H76 0.930 . S
C54 C53 1.380 . S
C54 C55 1.376 . S
C54 H77 0.930 . S
C55 C54 1.376 . S
C55 C56 1.370 . S
C56 C55 1.370 . S
C56 C57 1.396 . S
C56 H78 0.929 . S
C57 C52 1.373 . S
C57 C56 1.396 . S
C57 H79 0.929 . S
C58 O68 1.240 . S
C58 O69 1.289 1_556 S
C59 O70 1.258 . S
C59 O71 1.256 . S
O60 La40 2.521 1_554 S
O60 C42 1.261 . S
O61 La40 2.628 1_554 S
O61 C42 1.243 . S
O62 La40 2.554 1_554 S
O62 C49 1.240 . S
O63 La40 2.757 . S
O63 La41 2.482 1_556 S
O63 C49 1.289 1_556 S
O64 La40 2.470 1_554 S
O64 C50 1.258 . S
O65 La41 2.503 . S
O65 C50 1.256 . S
O66 La41 2.521 1_556 S
O66 C51 1.261 . S
O67 La41 2.628 1_556 S
O67 C51 1.243 . S
O68 La41 2.554 1_556 S
O68 C58 1.240 . S
O69 La40 2.482 1_554 S
O69 La41 2.757 . S
O69 C58 1.289 1_554 S
O70 La41 2.470 1_556 S
O70 C59 1.258 . S
O71 La40 2.503 . S
O71 C59 1.256 . S
H72 C44 0.930 . S
H73 C45 0.930 . S
H74 C47 0.929 . S
H75 C48 0.929 . S
H76 C53 0.930 . S
H77 C54 0.930 . S
H78 C56 0.929 . S
H79 C57 0.929 . S
La80 C82 2.928 . S
La80 O100 2.521 . S
La80 O101 2.628 . S
La80 O102 2.554 . S
La80 O103 2.757 . S
La80 O104 2.470 . S
La80 O109 2.482 . S
La80 O111 2.503 . S
La81 C91 2.928 . S
La81 O103 2.482 . S
La81 O105 2.503 . S
La81 O106 2.521 . S
La81 O107 2.628 . S
La81 O108 2.554 . S
La81 O109 2.757 . S
La81 O110 2.470 . S
C82 La80 2.928 . S
C82 C83 1.503 . S
C82 O100 1.261 . S
C82 O101 1.243 . S
C83 C82 1.503 . S
C83 C84 1.394 . S
C83 C88 1.373 . S
C84 C83 1.394 . S
C84 C85 1.380 . S
C84 H112 0.930 . S
C85 C84 1.380 . S
C85 C86 1.376 . S
C85 H113 0.930 . S
C86 C85 1.376 . S
C86 C87 1.370 . S
C87 C86 1.370 . S
C87 C88 1.396 . S
C87 H114 0.929 . S
C88 C83 1.373 . S
C88 C87 1.396 . S
C88 H115 0.929 . S
C89 O102 1.240 . S
C89 O103 1.289 . S
C90 O104 1.258 . S
C90 O105 1.256 . S
C91 La81 2.928 . S
C91 C92 1.503 . S
C91 O106 1.261 . S
C91 O107 1.243 . S
C92 C91 1.503 . S
C92 C93 1.394 . S
C92 C97 1.373 . S
C93 C92 1.394 . S
C93 C94 1.380 . S
C93 H116 0.930 . S
C94 C93 1.380 . S
C94 C95 1.376 . S
C94 H117 0.930 . S
C95 C94 1.376 . S
C95 C96 1.370 . S
C96 C95 1.370 . S
C96 C97 1.396 . S
C96 H118 0.929 . S
C97 C92 1.373 . S
C97 C96 1.396 . S
C97 H119 0.929 . S
C98 O108 1.240 . S
C98 O109 1.289 . S
C99 O110 1.258 . S
C99 O111 1.256 . S
O100 La80 2.521 . S
O100 C82 1.261 . S
O101 La80 2.628 . S
O101 C82 1.243 . S
O102 La80 2.554 . S
O102 C89 1.240 . S
O103 La80 2.757 . S
O103 La81 2.482 . S
O103 C89 1.289 . S
O104 La80 2.470 . S
O104 C90 1.258 . S
O105 La81 2.503 . S
O105 C90 1.256 . S
O106 La81 2.521 . S
O106 C91 1.261 . S
O107 La81 2.628 . S
O107 C91 1.243 . S
O108 La81 2.554 . S
O108 C98 1.240 . S
O109 La80 2.482 . S
O109 La81 2.757 . S
O109 C98 1.289 . S
O110 La81 2.470 . S
O110 C99 1.258 . S
O111 La80 2.503 . S
O111 C99 1.256 . S
H112 C84 0.930 . S
H113 C85 0.930 . S
H114 C87 0.929 . S
H115 C88 0.929 . S
H116 C93 0.930 . S
H117 C94 0.930 . S
H118 C96 0.929 . S
H119 C97 0.929 . S
La120 C122 2.928 . S
La120 O140 2.521 . S
La120 O141 2.628 . S
La120 O142 2.554 . S
La120 O143 2.757 . S
La120 O144 2.470 . S
La120 O149 2.482 . S
La120 O151 2.503 . S
La121 C131 2.928 . S
La121 O143 2.482 . S
La121 O145 2.503 . S
La121 O146 2.521 . S
La121 O147 2.628 . S
La121 O148 2.554 . S
La121 O149 2.757 . S
La121 O150 2.470 . S
C122 La120 2.928 . S
C122 C123 1.503 . S
C122 O140 1.261 . S
C122 O141 1.243 . S
C123 C122 1.503 . S
C123 C124 1.394 . S
C123 C128 1.373 . S
C124 C123 1.394 . S
C124 C125 1.380 . S
C124 H152 0.930 . S
C125 C124 1.380 . S
C125 C126 1.376 . S
C125 H153 0.930 . S
C126 C125 1.376 . S
C126 C127 1.370 . S
C127 C126 1.370 . S
C127 C128 1.396 . S
C127 H154 0.929 . S
C128 C123 1.373 . S
C128 C127 1.396 . S
C128 H155 0.929 . S
C129 O142 1.240 . S
C129 O143 1.289 . S
C130 O144 1.258 . S
C130 O145 1.256 . S
C131 La121 2.928 . S
C131 C132 1.503 . S
C131 O146 1.261 . S
C131 O147 1.243 . S
C132 C131 1.503 . S
C132 C133 1.394 . S
C132 C137 1.373 . S
C133 C132 1.394 . S
C133 C134 1.380 . S
C133 H156 0.930 . S
C134 C133 1.380 . S
C134 C135 1.376 . S
C134 H157 0.930 . S
C135 C134 1.376 . S
C135 C136 1.370 . S
C136 C135 1.370 . S
C136 C137 1.396 . S
C136 H158 0.929 . S
C137 C132 1.373 . S
C137 C136 1.396 . S
C137 H159 0.929 . S
C138 O148 1.240 . S
C138 O149 1.289 . S
C139 O150 1.258 . S
C139 O151 1.256 . S
O140 La120 2.521 . S
O140 C122 1.261 . S
O141 La120 2.628 . S
O141 C122 1.243 . S
O142 La120 2.554 . S
O142 C129 1.240 . S
O143 La120 2.757 . S
O143 La121 2.482 . S
O143 C129 1.289 . S
O144 La120 2.470 . S
O144 C130 1.258 . S
O145 La121 2.503 . S
O145 C130 1.256 . S
O146 La121 2.521 . S
O146 C131 1.261 . S
O147 La121 2.628 . S
O147 C131 1.243 . S
O148 La121 2.554 . S
O148 C138 1.240 . S
O149 La120 2.482 . S
O149 La121 2.757 . S
O149 C138 1.289 . S
O150 La121 2.470 . S
O150 C139 1.258 . S
O151 La120 2.503 . S
O151 C139 1.256 . S
H152 C124 0.930 . S
H153 C125 0.930 . S
H154 C127 0.929 . S
H155 C128 0.929 . S
H156 C133 0.930 . S
H157 C134 0.930 . S
H158 C136 0.929 . S
H159 C137 0.929 . S
C160 C161 1.391 1_554 S
C160 C162 1.394 . S
C160 H176 0.931 . S
C161 C160 1.391 1_556 S
C161 C165 1.376 . S
C162 C160 1.394 . S
C162 C163 1.369 . S
C162 C166 1.531 . S
C163 C162 1.369 . S
C163 C164 1.410 1_554 S
C163 C171 1.503 . S
C164 C163 1.410 1_556 S
C164 C165 1.392 . S
C164 C167 1.511 . S
C165 C161 1.376 . S
C165 C164 1.392 . S
C165 H177 0.929 . S
C166 C162 1.531 . S
C166 H178 0.960 . S
C166 H179 0.962 . S
C166 H180 0.960 . S
C167 C164 1.511 . S
C167 H181 0.961 . S
C167 H182 0.961 . S
C167 H183 0.961 . S
C168 C169 1.370 1_556 S
C168 C170 1.363 . S
C168 H184 0.931 . S
C169 C168 1.370 1_554 S
C169 C173 1.408 . S
C170 C168 1.363 . S
C170 C171 1.370 1_556 S
C170 C174 1.524 . S
C171 C163 1.503 . S
C171 C170 1.370 1_554 S
C171 C172 1.403 . S
C172 C171 1.403 . S
C172 C173 1.404 . S
C172 C175 1.539 . S
C173 C169 1.408 . S
C173 C172 1.404 . S
C173 H185 0.930 . S
C174 C170 1.524 . S
C174 H186 0.956 1_556 S
C174 H187 0.961 . S
C174 H188 0.961 . S
C175 C172 1.539 . S
C175 H189 0.958 . S
C175 H190 0.961 . S
C175 H191 0.960 . S
H176 C160 0.931 . S
H177 C165 0.929 . S
H178 C166 0.960 . S
H179 C166 0.962 . S
H180 C166 0.960 . S
H181 C167 0.961 . S
H182 C167 0.961 . S
H183 C167 0.961 . S
H184 C168 0.931 . S
H185 C173 0.930 . S
H186 C174 0.956 1_554 S
H187 C174 0.961 . S
H188 C174 0.961 . S
H189 C175 0.958 . S
H190 C175 0.961 . S
H191 C175 0.960 . S
C192 C193 1.391 . S
C192 C194 1.394 . S
C192 H208 0.931 . S
C193 C192 1.391 . S
C193 C197 1.376 . S
C194 C192 1.394 . S
C194 C195 1.369 . S
C194 C198 1.531 . S
C195 C194 1.369 . S
C195 C196 1.410 . S
C195 C203 1.503 . S
C196 C195 1.410 . S
C196 C197 1.392 . S
C196 C199 1.511 . S
C197 C193 1.376 . S
C197 C196 1.392 . S
C197 H209 0.929 . S
C198 C194 1.531 . S
C198 H210 0.960 . S
C198 H211 0.962 . S
C198 H212 0.960 . S
C199 C196 1.511 . S
C199 H213 0.961 . S
C199 H214 0.961 . S
C199 H215 0.961 . S
C200 C201 1.370 . S
C200 C202 1.363 . S
C200 H216 0.931 . S
C201 C200 1.370 . S
C201 C205 1.408 . S
C202 C200 1.363 . S
C202 C203 1.370 . S
C202 C206 1.524 . S
C203 C195 1.503 . S
C203 C202 1.370 . S
C203 C204 1.403 . S
C204 C203 1.403 . S
C204 C205 1.404 . S
C204 C207 1.539 . S
C205 C201 1.408 . S
C205 C204 1.404 . S
C205 H217 0.930 . S
C206 C202 1.524 . S
C206 H218 0.956 . S
C206 H219 0.961 . S
C206 H220 0.961 . S
C207 C204 1.539 . S
C207 H221 0.958 . S
C207 H222 0.961 . S
C207 H223 0.960 . S
H208 C192 0.931 . S
H209 C197 0.929 . S
H210 C198 0.960 . S
H211 C198 0.962 . S
H212 C198 0.960 . S
H213 C199 0.961 . S
H214 C199 0.961 . S
H215 C199 0.961 . S
H216 C200 0.931 . S
H217 C205 0.930 . S
H218 C206 0.956 . S
H219 C206 0.961 . S
H220 C206 0.961 . S
H221 C207 0.958 . S
H222 C207 0.961 . S
H223 C207 0.960 . S
C224 C225 1.391 1_554 S
C224 C226 1.394 . S
C224 H240 0.931 . S
C225 C224 1.391 1_556 S
C225 C229 1.376 . S
C226 C224 1.394 . S
C226 C227 1.369 . S
C226 C230 1.531 . S
C227 C226 1.369 . S
C227 C228 1.410 1_454 S
C227 C235 1.503 1_445 S
C228 C227 1.410 1_656 S
C228 C229 1.392 1_655 S
C228 C231 1.511 . S
C229 C225 1.376 . S
C229 C228 1.392 1_455 S
C229 H241 0.929 . S
C230 C226 1.531 . S
C230 H242 0.956 1_545 S
C230 H243 0.962 1_545 S
C230 H244 0.960 . S
C231 C228 1.511 . S
C231 H245 0.961 . S
C231 H246 0.961 . S
C231 H247 0.961 . S
C232 C233 1.370 1_556 S
C232 C234 1.363 . S
C232 H248 0.931 . S
C233 C232 1.370 1_554 S
C233 C237 1.408 . S
C234 C232 1.363 . S
C234 C235 1.370 1_556 S
C234 C238 1.524 1_655 S
C235 C227 1.503 1_665 S
C235 C234 1.370 1_554 S
C235 C236 1.403 . S
C236 C235 1.403 . S
C236 C237 1.404 . S
C236 C239 1.539 1_565 S
C237 C233 1.408 . S
C237 C236 1.404 . S
C237 H249 0.930 . S
C238 C234 1.524 1_455 S
C238 H250 0.956 . S
C238 H251 0.961 . S
C238 H252 0.961 . S
C239 C236 1.539 1_545 S
C239 H253 0.958 . S
C239 H254 0.961 . S
C239 H255 0.960 . S
H240 C224 0.931 . S
H241 C229 0.929 . S
H242 C230 0.956 1_565 S
H243 C230 0.962 1_565 S
H244 C230 0.960 . S
H245 C231 0.961 . S
H246 C231 0.961 . S
H247 C231 0.961 . S
H248 C232 0.931 . S
H249 C237 0.930 . S
H250 C238 0.956 . S
H251 C238 0.961 . S
H252 C238 0.961 . S
H253 C239 0.958 . S
H254 C239 0.961 . S
H255 C239 0.960 . S
C256 C257 1.391 . S
C256 C258 1.394 . S
C256 H272 0.931 . S
C257 C256 1.391 . S
C257 C261 1.376 . S
C258 C256 1.394 . S
C258 C259 1.369 . S
C258 C262 1.531 1_545 S
C259 C258 1.369 . S
C259 C260 1.410 1_655 S
C259 C267 1.503 1_645 S
C260 C259 1.410 1_455 S
C260 C261 1.392 1_455 S
C260 C263 1.511 . S
C261 C257 1.376 . S
C261 C260 1.392 1_655 S
C261 H273 0.929 . S
C262 C258 1.531 1_565 S
C262 H274 0.960 . S
C262 H275 0.962 . S
C262 H276 0.960 . S
C263 C260 1.511 . S
C263 H277 0.961 . S
C263 H278 0.961 . S
C263 H279 0.961 . S
C264 C265 1.370 . S
C264 C266 1.363 . S
C264 H280 0.931 . S
C265 C264 1.370 . S
C265 C269 1.408 . S
C266 C264 1.363 . S
C266 C267 1.370 . S
C266 C270 1.524 . S
C267 C259 1.503 1_465 S
C267 C266 1.370 . S
C267 C268 1.403 . S
C268 C267 1.403 . S
C268 C269 1.404 . S
C268 C271 1.539 1_465 S
C269 C265 1.408 . S
C269 C268 1.404 . S
C269 H281 0.930 . S
C270 C266 1.524 . S
C270 H282 0.956 . S
C270 H283 0.961 . S
C270 H284 0.961 . S
C271 C268 1.539 1_645 S
C271 H285 0.952 1_545 S
C271 H286 0.961 1_655 S
C271 H287 0.960 . S
H272 C256 0.931 . S
H273 C261 0.929 . S
H274 C262 0.960 . S
H275 C262 0.962 . S
H276 C262 0.960 . S
H277 C263 0.961 . S
H278 C263 0.961 . S
H279 C263 0.961 . S
H280 C264 0.931 . S
H281 C269 0.930 . S
H282 C270 0.956 . S
H283 C270 0.961 . S
H284 C270 0.961 . S
H285 C271 0.952 1_565 S
H286 C271 0.961 1_455 S
H287 C271 0.960 . S
C288 C289 1.391 . S
C288 C290 1.394 . S
C288 H304 0.931 . S
C289 C288 1.391 . S
C289 C293 1.376 . S
C290 C288 1.394 . S
C290 C291 1.369 . S
C290 C294 1.531 . S
C291 C290 1.369 . S
C291 C292 1.410 . S
C291 C299 1.503 . S
C292 C291 1.410 . S
C292 C293 1.392 . S
C292 C295 1.511 . S
C293 C289 1.376 . S
C293 C292 1.392 . S
C293 H305 0.929 . S
C294 C290 1.531 . S
C294 H306 0.960 . S
C294 H307 0.962 . S
C294 H308 0.960 . S
C295 C292 1.511 . S
C295 H309 0.961 . S
C295 H310 0.961 . S
C295 H311 0.961 . S
C296 C297 1.370 . S
C296 C298 1.363 . S
C296 H312 0.931 . S
C297 C296 1.370 . S
C297 C301 1.408 . S
C298 C296 1.363 . S
C298 C299 1.370 . S
C298 C302 1.524 . S
C299 C291 1.503 . S
C299 C298 1.370 . S
C299 C300 1.403 . S
C300 C299 1.403 . S
C300 C301 1.404 . S
C300 C303 1.539 . S
C301 C297 1.408 . S
C301 C300 1.404 . S
C301 H313 0.930 . S
C302 C298 1.524 . S
C302 H314 0.956 . S
C302 H315 0.961 . S
C302 H316 0.961 . S
C303 C300 1.539 . S
C303 H317 0.958 . S
C303 H318 0.961 . S
C303 H319 0.960 . S
H304 C288 0.931 . S
H305 C293 0.929 . S
H306 C294 0.960 . S
H307 C294 0.962 . S
H308 C294 0.960 . S
H309 C295 0.961 . S
H310 C295 0.961 . S
H311 C295 0.961 . S
H312 C296 0.931 . S
H313 C301 0.930 . S
H314 C302 0.956 . S
H315 C302 0.961 . S
H316 C302 0.961 . S
H317 C303 0.958 . S
H318 C303 0.961 . S
H319 C303 0.960 . S
C320 C321 1.391 . S
C320 C322 1.394 . S
C320 H336 0.931 . S
C321 C320 1.391 . S
C321 C325 1.376 . S
C322 C320 1.394 . S
C322 C323 1.369 . S
C322 C326 1.531 . S
C323 C322 1.369 . S
C323 C324 1.410 . S
C323 C331 1.503 . S
C324 C323 1.410 . S
C324 C325 1.392 . S
C324 C327 1.511 . S
C325 C321 1.376 . S
C325 C324 1.392 . S
C325 H337 0.929 . S
C326 C322 1.531 . S
C326 H338 0.960 . S
C326 H339 0.962 . S
C326 H340 0.960 . S
C327 C324 1.511 . S
C327 H341 0.961 . S
C327 H342 0.961 . S
C327 H343 0.961 . S
C328 C329 1.370 . S
C328 C330 1.363 . S
C328 H344 0.931 . S
C329 C328 1.370 . S
C329 C333 1.408 . S
C330 C328 1.363 . S
C330 C331 1.370 . S
C330 C334 1.524 . S
C331 C323 1.503 . S
C331 C330 1.370 . S
C331 C332 1.403 . S
C332 C331 1.403 . S
C332 C333 1.404 . S
C332 C335 1.539 . S
C333 C329 1.408 . S
C333 C332 1.404 . S
C333 H345 0.930 . S
C334 C330 1.524 . S
C334 H346 0.956 . S
C334 H347 0.961 . S
C334 H348 0.961 . S
C335 C332 1.539 . S
C335 H349 0.958 . S
C335 H350 0.961 . S
C335 H351 0.960 . S
H336 C320 0.931 . S
H337 C325 0.929 . S
H338 C326 0.960 . S
H339 C326 0.962 . S
H340 C326 0.960 . S
H341 C327 0.961 . S
H342 C327 0.961 . S
H343 C327 0.961 . S
H344 C328 0.931 . S
H345 C333 0.930 . S
H346 C334 0.956 . S
H347 C334 0.961 . S
H348 C334 0.961 . S
H349 C335 0.958 . S
H350 C335 0.961 . S
H351 C335 0.960 . S
C352 C353 1.391 . S
C352 C354 1.394 . S
C352 H368 0.931 . S
C353 C352 1.391 . S
C353 C357 1.376 . S
C354 C352 1.394 . S
C354 C355 1.369 . S
C354 C358 1.531 . S
C355 C354 1.369 . S
C355 C356 1.410 . S
C355 C363 1.503 . S
C356 C355 1.410 . S
C356 C357 1.392 . S
C356 C359 1.511 . S
C357 C353 1.376 . S
C357 C356 1.392 . S
C357 H369 0.929 . S
C358 C354 1.531 . S
C358 H370 0.960 . S
C358 H371 0.962 . S
C358 H372 0.960 . S
C359 C356 1.511 . S
C359 H373 0.961 . S
C359 H374 0.961 . S
C359 H375 0.961 . S
C360 C361 1.370 . S
C360 C362 1.363 . S
C360 H376 0.931 . S
C361 C360 1.370 . S
C361 C365 1.408 . S
C362 C360 1.363 . S
C362 C363 1.370 . S
C362 C366 1.524 . S
C363 C355 1.503 . S
C363 C362 1.370 . S
C363 C364 1.403 . S
C364 C363 1.403 . S
C364 C365 1.404 . S
C364 C367 1.539 . S
C365 C361 1.408 . S
C365 C364 1.404 . S
C365 H377 0.930 . S
C366 C362 1.524 . S
C366 H378 0.956 . S
C366 H379 0.961 . S
C366 H380 0.961 . S
C367 C364 1.539 . S
C367 H381 0.958 . S
C367 H382 0.961 . S
C367 H383 0.960 . S
H368 C352 0.931 . S
H369 C357 0.929 . S
H370 C358 0.960 . S
H371 C358 0.962 . S
H372 C358 0.960 . S
H373 C359 0.961 . S
H374 C359 0.961 . S
H375 C359 0.961 . S
H376 C360 0.931 . S
H377 C365 0.930 . S
H378 C366 0.956 . S
H379 C366 0.961 . S
H380 C366 0.961 . S
H381 C367 0.958 . S
H382 C367 0.961 . S
H383 C367 0.960 . S
C384 C385 1.391 . S
C384 C386 1.394 . S
C384 H400 0.931 . S
C385 C384 1.391 . S
C385 C389 1.376 . S
C386 C384 1.394 . S
C386 C387 1.369 . S
C386 C390 1.531 . S
C387 C386 1.369 . S
C387 C388 1.410 . S
C387 C395 1.503 . S
C388 C387 1.410 . S
C388 C389 1.392 . S
C388 C391 1.511 . S
C389 C385 1.376 . S
C389 C388 1.392 . S
C389 H401 0.929 . S
C390 C386 1.531 . S
C390 H402 0.960 . S
C390 H403 0.962 . S
C390 H404 0.960 . S
C391 C388 1.511 . S
C391 H405 0.961 . S
C391 H406 0.961 . S
C391 H407 0.961 . S
C392 C393 1.370 . S
C392 C394 1.363 . S
C392 H408 0.931 . S
C393 C392 1.370 . S
C393 C397 1.408 . S
C394 C392 1.363 . S
C394 C395 1.370 . S
C394 C398 1.524 . S
C395 C387 1.503 . S
C395 C394 1.370 . S
C395 C396 1.403 . S
C396 C395 1.403 . S
C396 C397 1.404 . S
C396 C399 1.539 . S
C397 C393 1.408 . S
C397 C396 1.404 . S
C397 H409 0.930 . S
C398 C394 1.524 . S
C398 H410 0.956 . S
C398 H411 0.961 . S
C398 H412 0.961 . S
C399 C396 1.539 . S
C399 H413 0.958 . S
C399 H414 0.961 . S
C399 H415 0.960 . S
H400 C384 0.931 . S
H401 C389 0.929 . S
H402 C390 0.960 . S
H403 C390 0.962 . S
H404 C390 0.960 . S
H405 C391 0.961 . S
H406 C391 0.961 . S
H407 C391 0.961 . S
H408 C392 0.931 . S
H409 C397 0.930 . S
H410 C398 0.956 . S
H411 C398 0.961 . S
H412 C398 0.961 . S
H413 C399 0.958 . S
H414 C399 0.961 . S
H415 C399 0.960 . S
C416 C417 1.391 . S
C416 C418 1.394 . S
C416 H432 0.931 . S
C417 C416 1.391 . S
C417 C421 1.376 . S
C418 C416 1.394 . S
C418 C419 1.369 . S
C418 C422 1.531 1_655 S
C419 C418 1.369 . S
C419 C420 1.410 . S
C419 C427 1.503 1_655 S
C420 C419 1.410 . S
C420 C421 1.392 . S
C420 C423 1.511 . S
C421 C417 1.376 . S
C421 C420 1.392 . S
C421 H433 0.929 . S
C422 C418 1.531 1_455 S
C422 H434 0.960 . S
C422 H435 0.962 . S
C422 H436 0.960 . S
C423 C420 1.511 . S
C423 H437 0.961 . S
C423 H438 0.961 . S
C423 H439 0.961 . S
C424 C425 1.370 . S
C424 C426 1.363 . S
C424 H440 0.931 . S
C425 C424 1.370 . S
C425 C429 1.408 . S
C426 C424 1.363 . S
C426 C427 1.370 . S
C426 C430 1.524 . S
C427 C419 1.503 1_455 S
C427 C426 1.370 . S
C427 C428 1.403 1_455 S
C428 C427 1.403 1_655 S
C428 C429 1.404 1_655 S
C428 C431 1.539 . S
C429 C425 1.408 . S
C429 C428 1.404 1_455 S
C429 H441 0.930 1_455 S
C430 C426 1.524 . S
C430 H442 0.956 . S
C430 H443 0.961 . S
C430 H444 0.961 . S
C431 C428 1.539 . S
C431 H445 0.958 . S
C431 H446 0.961 . S
C431 H447 0.960 . S
H432 C416 0.931 . S
H433 C421 0.929 . S
H434 C422 0.960 . S
H435 C422 0.962 . S
H436 C422 0.960 . S
H437 C423 0.961 . S
H438 C423 0.961 . S
H439 C423 0.961 . S
H440 C424 0.931 . S
H441 C429 0.930 1_655 S
H442 C430 0.956 . S
H443 C430 0.961 . S
H444 C430 0.961 . S
H445 C431 0.958 . S
H446 C431 0.961 . S
H447 C431 0.960 . S
C448 C449 1.391 1_455 S
C448 C450 1.394 . S
C448 H464 0.931 . S
C449 C448 1.391 1_655 S
C449 C453 1.376 . S
C450 C448 1.394 . S
C450 C451 1.369 1_455 S
C450 C454 1.531 . S
C451 C450 1.369 1_655 S
C451 C452 1.410 . S
C451 C459 1.503 . S
C452 C451 1.410 . S
C452 C453 1.392 . S
C452 C455 1.511 . S
C453 C449 1.376 . S
C453 C452 1.392 . S
C453 H465 0.929 . S
C454 C450 1.531 . S
C454 H466 0.960 . S
C454 H467 0.962 . S
C454 H468 0.960 . S
C455 C452 1.511 . S
C455 H469 0.961 . S
C455 H470 0.961 . S
C455 H471 0.961 . S
C456 C457 1.370 . S
C456 C458 1.363 . S
C456 H472 0.931 . S
C457 C456 1.370 . S
C457 C461 1.408 1_455 S
C458 C456 1.363 . S
C458 C459 1.370 1_455 S
C458 C462 1.524 . S
C459 C451 1.503 . S
C459 C458 1.370 1_655 S
C459 C460 1.403 . S
C460 C459 1.403 . S
C460 C461 1.404 . S
C460 C463 1.539 . S
C461 C457 1.408 1_655 S
C461 C460 1.404 . S
C461 H473 0.930 . S
C462 C458 1.524 . S
C462 H474 0.956 . S
C462 H475 0.961 . S
C462 H476 0.961 . S
C463 C460 1.539 . S
C463 H477 0.958 . S
C463 H478 0.961 . S
C463 H479 0.960 . S
H464 C448 0.931 . S
H465 C453 0.929 . S
H466 C454 0.960 . S
H467 C454 0.962 . S
H468 C454 0.960 . S
H469 C455 0.961 . S
H470 C455 0.961 . S
H471 C455 0.961 . S
H472 C456 0.931 . S
H473 C461 0.930 . S
H474 C462 0.956 . S
H475 C462 0.961 . S
H476 C462 0.961 . S
H477 C463 0.958 . S
H478 C463 0.961 . S
H479 C463 0.960 . S
C480 C481 1.391 . S
C480 C482 1.394 . S
C480 H496 0.931 . S
C481 C480 1.391 . S
C481 C485 1.376 1_655 S
C482 C480 1.394 . S
C482 C483 1.369 . S
C482 C486 1.531 . S
C483 C482 1.369 . S
C483 C484 1.410 1_655 S
C483 C491 1.503 1_655 S
C484 C483 1.410 1_455 S
C484 C485 1.392 . S
C484 C487 1.511 . S
C485 C481 1.376 1_455 S
C485 C484 1.392 . S
C485 H497 0.929 . S
C486 C482 1.531 . S
C486 H498 0.960 . S
C486 H499 0.962 . S
C486 H500 0.960 . S
C487 C484 1.511 . S
C487 H501 0.961 . S
C487 H502 0.961 . S
C487 H503 0.961 . S
C488 C489 1.370 . S
C488 C490 1.363 . S
C488 H504 0.931 . S
C489 C488 1.370 . S
C489 C493 1.408 . S
C490 C488 1.363 . S
C490 C491 1.370 . S
C490 C494 1.524 1_455 S
C491 C483 1.503 1_455 S
C491 C490 1.370 . S
C491 C492 1.403 . S
C492 C491 1.403 . S
C492 C493 1.404 . S
C492 C495 1.539 . S
C493 C489 1.408 . S
C493 C492 1.404 . S
C493 H505 0.930 . S
C494 C490 1.524 1_655 S
C494 H506 0.956 . S
C494 H507 0.961 1_655 S
C494 H508 0.961 . S
C495 C492 1.539 . S
C495 H509 0.958 . S
C495 H510 0.961 . S
C495 H511 0.960 . S
H496 C480 0.931 . S
H497 C485 0.929 . S
H498 C486 0.960 . S
H499 C486 0.962 . S
H500 C486 0.960 . S
H501 C487 0.961 . S
H502 C487 0.961 . S
H503 C487 0.961 . S
H504 C488 0.931 . S
H505 C493 0.930 . S
H506 C494 0.956 . S
H507 C494 0.961 1_455 S
H508 C494 0.961 . S
H509 C495 0.958 . S
H510 C495 0.961 . S
H511 C495 0.960 . S
C512 C513 1.391 1_655 S
C512 C514 1.394 . S
C512 H528 0.931 . S
C513 C512 1.391 1_455 S
C513 C517 1.376 . S
C514 C512 1.394 . S
C514 C515 1.369 1_655 S
C514 C518 1.531 . S
C515 C514 1.369 1_455 S
C515 C516 1.410 . S
C515 C523 1.503 . S
C516 C515 1.410 . S
C516 C517 1.392 . S
C516 C519 1.511 . S
C517 C513 1.376 . S
C517 C516 1.392 . S
C517 H529 0.929 . S
C518 C514 1.531 . S
C518 H530 0.960 . S
C518 H531 0.962 . S
C518 H532 0.960 . S
C519 C516 1.511 . S
C519 H533 0.961 . S
C519 H534 0.961 . S
C519 H535 0.961 . S
C520 C521 1.370 . S
C520 C522 1.363 . S
C520 H536 0.931 . S
C521 C520 1.370 . S
C521 C525 1.408 1_655 S
C522 C520 1.363 . S
C522 C523 1.370 1_655 S
C522 C526 1.524 . S
C523 C515 1.503 . S
C523 C522 1.370 1_455 S
C523 C524 1.403 . S
C524 C523 1.403 . S
C524 C525 1.404 . S
C524 C527 1.539 . S
C525 C521 1.408 1_455 S
C525 C524 1.404 . S
C525 H537 0.930 . S
C526 C522 1.524 . S
C526 H538 0.956 . S
C526 H539 0.961 . S
C526 H540 0.961 . S
C527 C524 1.539 . S
C527 H541 0.958 . S
C527 H542 0.961 . S
C527 H543 0.960 . S
H528 C512 0.931 . S
H529 C517 0.929 . S
H530 C518 0.960 . S
H531 C518 0.962 . S
H532 C518 0.960 . S
H533 C519 0.961 . S
H534 C519 0.961 . S
H535 C519 0.961 . S
H536 C520 0.931 . S
H537 C525 0.930 . S
H538 C526 0.956 . S
H539 C526 0.961 . S
H540 C526 0.961 . S
H541 C527 0.958 . S
H542 C527 0.961 . S
H543 C527 0.960 . S
C161 C58 1.592 . S
C169 C9 1.581 . S
C193 C98 1.591 . S
C201 C129 1.582 . S
C225 C18 1.590 . S
C233 C49 1.581 . S
C257 C138 1.580 . S
C265 C89 1.585 . S
C289 C130 1.697 . S
C297 C10 1.694 . S
C321 C46 0.967 . S
C329 C86 0.989 . S
C353 C59 1.701 . S
C361 C99 1.698 . S
C385 C135 0.998 . S
C393 C15 1.007 . S
C417 C50 1.680 . S
C425 C90 1.687 . S
C449 C126 0.965 . S
C457 C6 0.994 . S
C481 C139 1.673 . S
C489 C19 1.689 . S
C513 C95 0.989 . S
C521 C55 1.006 . S
