# Generated by pormake.
# Topology unm, (4)-cn, num edge types: 1
# Building blocks:
#     Node 0, Type 0, BuildingBlock: UXUYUI_clean_sbu_0, # of connection points: 4
#     Node 1, Type 0, BuildingBlock: UXUYUI_clean_sbu_0, # of connection points: 4
#     Node 2, Type 0, BuildingBlock: UXUYUI_clean_sbu_0, # of connection points: 4
#     Node 3, Type 0, BuildingBlock: UXUYUI_clean_sbu_0, # of connection points: 4
#     Node 4, Type 0, BuildingBlock: UXUYUI_clean_sbu_0, # of connection points: 4
#     Node 5, Type 0, BuildingBlock: UXUYUI_clean_sbu_0, # of connection points: 4
#     Node 6, Type 0, BuildingBlock: UXUYUI_clean_sbu_0, # of connection points: 4
#     Node 7, Type 0, BuildingBlock: UXUYUI_clean_sbu_0, # of connection points: 4
#     Edge 8, Type (0, 0), BuildingBlock: MIFKUJ_clean_linker_0, # of connection points: 2
#     Edge 9, Type (0, 0), BuildingBlock: MIFKUJ_clean_linker_0, # of connection points: 2
#     Edge 10, Type (0, 0), BuildingBlock: MIFKUJ_clean_linker_0, # of connection points: 2
#     Edge 11, Type (0, 0), BuildingBlock: MIFKUJ_clean_linker_0, # of connection points: 2
#     Edge 12, Type (0, 0), BuildingBlock: MIFKUJ_clean_linker_0, # of connection points: 2
#     Edge 13, Type (0, 0), BuildingBlock: MIFKUJ_clean_linker_0, # of connection points: 2
#     Edge 14, Type (0, 0), BuildingBlock: MIFKUJ_clean_linker_0, # of connection points: 2
#     Edge 15, Type (0, 0), BuildingBlock: MIFKUJ_clean_linker_0, # of connection points: 2
#     Edge 16, Type (0, 0), BuildingBlock: MIFKUJ_clean_linker_0, # of connection points: 2
#     Edge 17, Type (0, 0), BuildingBlock: MIFKUJ_clean_linker_0, # of connection points: 2
#     Edge 18, Type (0, 0), BuildingBlock: MIFKUJ_clean_linker_0, # of connection points: 2
#     Edge 19, Type (0, 0), BuildingBlock: MIFKUJ_clean_linker_0, # of connection points: 2
#     Edge 20, Type (0, 0), BuildingBlock: MIFKUJ_clean_linker_0, # of connection points: 2
#     Edge 21, Type (0, 0), BuildingBlock: MIFKUJ_clean_linker_0, # of connection points: 2
#     Edge 22, Type (0, 0), BuildingBlock: MIFKUJ_clean_linker_0, # of connection points: 2
#     Edge 23, Type (0, 0), BuildingBlock: MIFKUJ_clean_linker_0, # of connection points: 2
# Relax obj value: 0.260
# Max RMSD: 0.186
# Mean RMSD: 0.185
data_MOF--net-unm--node1-UXUYUI_clean_sbu_0--edge1-MIFKUJ_clean_linker_0
_symmetry_space_group_name_H-M    P1
_symmetry_Int_Tables_number       1
_symmetry_cell_setting            triclinic
loop_
_symmetry_equiv_pos_as_xyz
'x, y, z'
_cell_length_a     45.583676
_cell_length_b     45.430375
_cell_length_c     74.661964
_cell_angle_alpha  90.000397
_cell_angle_beta   90.008782
_cell_angle_gamma 89.994772
loop_
_atom_site_label
_atom_site_type_symbol
_atom_site_fract_x
_atom_site_fract_y
_atom_site_fract_z
_atom_type_partial_charge
Li0 Li 0.0656 0.25752 0.15454 0.0
Li1 Li 0.09656 0.23 0.17395 0.0
Li2 Li 0.07644 0.20735 0.14718 0.0
Li3 Li 0.04437 0.21971 0.17275 0.0
C4 C 0.12538 0.26215 0.14798 0.0
N5 N 0.16844 0.30496 0.14707 0.0
C6 C 0.12329 0.28693 0.15902 0.0
C7 C 0.14935 0.2592 0.13645 0.0
C8 C 0.14528 0.3083 0.15837 0.0
C9 C 0.17089 0.28107 0.13618 0.0
C10 C 0.06124 0.25817 0.19902 0.0
C11 C 0.06334 0.23586 0.22831 0.0
N12 N 0.05533 0.26196 0.23577 0.0
C13 C 0.05296 0.28474 0.20697 0.0
C14 C 0.06642 0.23348 0.20975 0.0
C15 C 0.05012 0.28622 0.22558 0.0
C16 C 0.03429 0.30942 0.15365 0.0
N17 N 0.05621 0.29502 0.14501 0.0
C18 C 0.05996 0.33355 0.12336 0.0
C19 C 0.06914 0.30638 0.13012 0.0
C20 C 0.03708 0.34875 0.13193 0.0
C21 C 0.02428 0.3364 0.14729 0.0
H22 H 0.02439 0.29971 0.1654 0.0
H23 H 0.08625 0.29418 0.12338 0.0
C24 C 0.15211 0.21155 0.18652 0.0
N25 N 0.13113 0.23261 0.18839 0.0
C26 C 0.17889 0.21419 0.19554 0.0
C27 C 0.16167 0.25977 0.20851 0.0
C28 C 0.13545 0.25644 0.19911 0.0
C29 C 0.18392 0.23863 0.20666 0.0
H30 H 0.14826 0.19306 0.1777 0.0
H31 H 0.11895 0.27342 0.19997 0.0
C32 C 0.02381 0.23941 0.13285 0.0
N33 N 0.99661 0.26765 0.10459 0.0
C34 C 0.9952 0.25002 0.13473 0.0
C35 C 0.03855 0.24304 0.11658 0.0
C36 C 0.98185 0.26429 0.12029 0.0
C37 C 0.02442 0.25738 0.10245 0.0
C38 C 0.06714 0.16217 0.17182 0.0
C39 C 0.04126 0.15562 0.16259 0.0
C40 C 0.08233 0.1397 0.18062 0.0
C41 C 0.03101 0.12665 0.16233 0.0
C42 C 0.07135 0.11101 0.18006 0.0
N43 N 0.04613 0.10513 0.171 0.0
C44 C 0.11206 0.17936 0.12191 0.0
C45 C 0.06127 0.1701 0.11802 0.0
C46 C 0.11838 0.16588 0.10556 0.0
N47 N 0.08384 0.18187 0.12754 0.0
C48 C 0.06661 0.15625 0.10163 0.0
C49 C 0.09539 0.15485 0.09496 0.0
H50 H 0.12952 0.1891 0.12973 0.0
H51 H 0.03897 0.17291 0.12265 0.0
C52 C 0.99235 0.2376 0.18614 0.0
N53 N 0.0095 0.21316 0.18627 0.0
C54 C 0.96686 0.23879 0.19634 0.0
C55 C 0.9765 0.18921 0.20652 0.0
C56 C 0.00225 0.18912 0.19622 0.0
C57 C 0.95874 0.21451 0.20681 0.0
H58 H 0.99896 0.25653 0.17837 0.0
H59 H 0.01662 0.17021 0.19652 0.0
O60 O 0.10431 0.24068 0.14844 0.0
O61 O 0.06357 0.2564 0.18078 0.0
O62 O 0.0376 0.22616 0.14699 0.0
O63 O 0.07792 0.19027 0.1722 0.0
H64 H 0.10493 0.28971 0.16801 0.0
H65 H 0.1513 0.2402 0.12779 0.0
H66 H 0.14395 0.32755 0.16686 0.0
H67 H 0.18957 0.27905 0.12733 0.0
H68 H 0.06728 0.21695 0.23677 0.0
H69 H 0.04874 0.30399 0.19883 0.0
H70 H 0.0727 0.21268 0.20387 0.0
H71 H 0.04374 0.30666 0.23192 0.0
H72 H 0.07025 0.34235 0.11143 0.0
H73 H 0.0069 0.34764 0.15444 0.0
H74 H 0.1955 0.1974 0.19379 0.0
H75 H 0.1649 0.27922 0.21667 0.0
H76 H 0.98345 0.24737 0.1472 0.0
H77 H 0.06087 0.23538 0.11497 0.0
H78 H 0.95975 0.27271 0.12157 0.0
H79 H 0.03563 0.26051 0.08982 0.0
H80 H 0.02902 0.17267 0.15583 0.0
H81 H 0.10243 0.14442 0.1878 0.0
H82 H 0.01098 0.12129 0.15527 0.0
H83 H 0.08289 0.0934 0.18681 0.0
H84 H 0.1409 0.16498 0.10096 0.0
H85 H 0.04824 0.14834 0.09378 0.0
H86 H 0.95363 0.2586 0.19608 0.0
H87 H 0.971 0.17015 0.21456 0.0
Li88 Li 0.29172 0.57305 0.64458 0.0
Li89 Li 0.27203 0.59831 0.67338 0.0
Li90 Li 0.27987 0.54497 0.67139 0.0
Li91 Li 0.24137 0.56648 0.65509 0.0
C92 C 0.33229 0.5639 0.67826 0.0
N93 N 0.3754 0.53548 0.69763 0.0
C94 C 0.33236 0.56547 0.69694 0.0
C95 C 0.35419 0.54807 0.66939 0.0
C96 C 0.35433 0.55087 0.70651 0.0
C97 C 0.3758 0.53382 0.67944 0.0
C98 C 0.23771 0.61948 0.6407 0.0
C99 C 0.197 0.65298 0.64395 0.0
N100 N 0.1908 0.64982 0.62624 0.0
C101 C 0.231 0.61665 0.62251 0.0
C102 C 0.22062 0.63783 0.65151 0.0
C103 C 0.20716 0.63212 0.61546 0.0
C104 C 0.29729 0.56947 0.60831 0.0
N105 N 0.31297 0.57766 0.62295 0.0
C106 C 0.3528 0.59352 0.60446 0.0
C107 C 0.34041 0.5892 0.62145 0.0
C108 C 0.33646 0.58629 0.5891 0.0
C109 C 0.30857 0.57375 0.5912 0.0
H110 H 0.27568 0.56004 0.60999 0.0
H111 H 0.35235 0.59556 0.63336 0.0
C112 C 0.26263 0.63114 0.70483 0.0
N113 N 0.27291 0.63278 0.68778 0.0
C114 C 0.25861 0.65675 0.71489 0.0
C115 C 0.27793 0.68502 0.69011 0.0
C116 C 0.28111 0.65889 0.68041 0.0
C117 C 0.26584 0.68414 0.70741 0.0
H118 H 0.2566 0.61002 0.7104 0.0
H119 H 0.28905 0.6595 0.66676 0.0
C120 C 0.2764 0.50849 0.64232 0.0
N121 N 0.29155 0.45105 0.63436 0.0
C122 C 0.25723 0.48544 0.64646 0.0
C123 C 0.30312 0.50233 0.63391 0.0
C124 C 0.26536 0.45655 0.64242 0.0
C125 C 0.31039 0.47314 0.63004 0.0
C126 C 0.21869 0.55917 0.6874 0.0
C127 C 0.20828 0.53045 0.68522 0.0
C128 C 0.20077 0.58031 0.69549 0.0
C129 C 0.18 0.52341 0.691 0.0
C130 C 0.17263 0.57239 0.70114 0.0
N131 N 0.1629 0.54435 0.69877 0.0
C132 C 0.27517 0.50806 0.70149 0.0
C133 C 0.30861 0.48965 0.68001 0.0
C134 C 0.27685 0.48194 0.71126 0.0
N135 N 0.28987 0.51098 0.68575 0.0
C136 C 0.31093 0.46307 0.68934 0.0
C137 C 0.29416 0.4586 0.7049 0.0
H138 H 0.26115 0.5256 0.70617 0.0
H139 H 0.32109 0.49277 0.66789 0.0
C140 C 0.20003 0.53952 0.63285 0.0
N141 N 0.20279 0.56046 0.64574 0.0
C142 C 0.17239 0.53166 0.62646 0.0
C143 C 0.15097 0.56818 0.64602 0.0
C144 C 0.17906 0.57546 0.65194 0.0
C145 C 0.14732 0.54552 0.63341 0.0
H146 H 0.21927 0.52849 0.62774 0.0
H147 H 0.18178 0.59253 0.66184 0.0
O148 O 0.3106 0.57741 0.6687 0.0
O149 O 0.26071 0.60418 0.64792 0.0
O150 O 0.26875 0.53694 0.64612 0.0
O151 O 0.24628 0.56648 0.68166 0.0
H152 H 0.31544 0.57757 0.70397 0.0
H153 H 0.3543 0.54657 0.65492 0.0
H154 H 0.35459 0.55172 0.72099 0.0
H155 H 0.39282 0.52135 0.67278 0.0
H156 H 0.18349 0.66712 0.65219 0.0
H157 H 0.24391 0.60254 0.61394 0.0
H158 H 0.22517 0.63998 0.66566 0.0
H159 H 0.20165 0.63004 0.60143 0.0
H160 H 0.37439 0.60329 0.6033 0.0
H161 H 0.2955 0.56755 0.57968 0.0
H162 H 0.24956 0.65521 0.72827 0.0
H163 H 0.28364 0.70578 0.68389 0.0
H164 H 0.23627 0.4898 0.65269 0.0
H165 H 0.31831 0.51979 0.63066 0.0
H166 H 0.25081 0.4385 0.64564 0.0
H167 H 0.33109 0.46805 0.62366 0.0
H168 H 0.22188 0.5138 0.67908 0.0
H169 H 0.20822 0.60275 0.69709 0.0
H170 H 0.17164 0.5013 0.68931 0.0
H171 H 0.15846 0.58858 0.7073 0.0
H172 H 0.26353 0.47959 0.72318 0.0
H173 H 0.32517 0.44597 0.68419 0.0
H174 H 0.17065 0.51453 0.61643 0.0
H175 H 0.13228 0.57938 0.65183 0.0
Li176 Li 0.90603 0.77119 0.17257 0.0
Li177 Li 0.93514 0.74082 0.15177 0.0
Li178 Li 0.95807 0.77809 0.16952 0.0
Li179 Li 0.927 0.7925 0.14557 0.0
C180 C 0.94923 0.73879 0.19475 0.0
N181 N 0.97575 0.73324 0.22786 0.0
C182 C 0.96869 0.71563 0.19802 0.0
C183 C 0.94313 0.75903 0.20836 0.0
C184 C 0.98193 0.71325 0.21484 0.0
C185 C 0.95675 0.75584 0.22501 0.0
C186 C 0.87409 0.74166 0.14666 0.0
C187 C 0.82694 0.72693 0.13504 0.0
N188 N 0.82719 0.70311 0.14608 0.0
C189 C 0.87389 0.71698 0.15786 0.0
C190 C 0.85044 0.74668 0.13515 0.0
C191 C 0.84998 0.69778 0.15738 0.0
C192 C 0.84941 0.78829 0.18417 0.0
N193 N 0.87197 0.76945 0.18736 0.0
C194 C 0.84307 0.74271 0.20854 0.0
C195 C 0.86934 0.74706 0.19934 0.0
C196 C 0.81903 0.7613 0.20522 0.0
C197 C 0.82261 0.78465 0.19303 0.0
H198 H 0.8519 0.80546 0.17425 0.0
H199 H 0.88728 0.73186 0.20129 0.0
C200 C 0.96637 0.68941 0.14709 0.0
N201 N 0.94149 0.7031 0.14158 0.0
C202 C 0.97338 0.66149 0.14069 0.0
C203 C 0.92961 0.66273 0.1224 0.0
C204 C 0.92345 0.6907 0.12918 0.0
C205 C 0.95474 0.64764 0.12829 0.0
H206 H 0.98075 0.70027 0.1565 0.0
H207 H 0.90433 0.70247 0.1245 0.0
C208 C 0.94031 0.83665 0.16972 0.0
N209 N 0.96629 0.89157 0.16832 0.0
C210 C 0.96649 0.84068 0.16027 0.0
C211 C 0.92739 0.86055 0.17847 0.0
C212 C 0.97927 0.86861 0.15972 0.0
C213 C 0.94085 0.88814 0.1776 0.0
C214 C 0.97145 0.7646 0.12641 0.0
C215 C 0.00073 0.76603 0.12095 0.0
C216 C 0.94968 0.75754 0.11393 0.0
C217 C 0.00776 0.76048 0.10306 0.0
C218 C 0.9576 0.75214 0.09616 0.0
N219 N 0.98623 0.75371 0.09113 0.0
C220 C 0.01541 0.76435 0.17665 0.0
C221 C 0.99846 0.80217 0.19594 0.0
C222 C 0.04171 0.76242 0.18606 0.0
N223 N 0.99428 0.78358 0.18188 0.0
C224 C 0.02466 0.80107 0.20574 0.0
C225 C 0.04639 0.78049 0.20104 0.0
H226 H 0.01129 0.74965 0.16553 0.0
H227 H 0.98106 0.81693 0.19999 0.0
C228 C 0.89124 0.82378 0.12179 0.0
N229 N 0.91972 0.81906 0.12629 0.0
C230 C 0.88422 0.83801 0.10579 0.0
C231 C 0.93601 0.84365 0.0998 0.0
C232 C 0.94201 0.8296 0.11603 0.0
C233 C 0.90676 0.84718 0.09418 0.0
H234 H 0.87397 0.81531 0.13028 0.0
H235 H 0.96451 0.8256 0.1199 0.0
O236 O 0.93686 0.74225 0.17817 0.0
O237 O 0.89697 0.76116 0.1471 0.0
O238 O 0.9272 0.80958 0.17049 0.0
O239 O 0.96443 0.76998 0.14393 0.0
H240 H 0.97363 0.69971 0.1877 0.0
H241 H 0.92839 0.7773 0.20598 0.0
H242 H 0.99716 0.69553 0.21753 0.0
H243 H 0.95237 0.77145 0.23561 0.0
H244 H 0.80849 0.73057 0.1262 0.0
H245 H 0.89199 0.71261 0.16683 0.0
H246 H 0.85022 0.76565 0.12639 0.0
H247 H 0.84954 0.67864 0.16599 0.0
H248 H 0.84151 0.72466 0.21796 0.0
H249 H 0.80459 0.79927 0.18984 0.0
H250 H 0.99284 0.65062 0.14574 0.0
H251 H 0.91494 0.65306 0.11262 0.0
H252 H 0.97695 0.82253 0.15346 0.0
H253 H 0.90712 0.85778 0.18584 0.0
H254 H 0.99951 0.87203 0.15245 0.0
H255 H 0.93107 0.90683 0.18431 0.0
H256 H 0.01784 0.77143 0.13046 0.0
H257 H 0.92689 0.75636 0.11784 0.0
H258 H 0.03034 0.76154 0.09865 0.0
H259 H 0.94097 0.74673 0.08636 0.0
H260 H 0.05803 0.74656 0.18182 0.0
H261 H 0.02736 0.81525 0.21728 0.0
H262 H 0.86135 0.84089 0.10227 0.0
H263 H 0.95416 0.85008 0.09131 0.0
Li264 Li 0.71542 0.45557 0.67139 0.0
Li265 Li 0.75455 0.43262 0.65525 0.0
Li266 Li 0.70471 0.42854 0.64365 0.0
Li267 Li 0.72106 0.40072 0.67152 0.0
C268 C 0.7341 0.49316 0.64432 0.0
N269 N 0.74473 0.55265 0.64023 0.0
C270 C 0.75707 0.50657 0.65364 0.0
C271 C 0.71673 0.50993 0.63275 0.0
C272 C 0.76204 0.53669 0.65144 0.0
C273 C 0.72241 0.54 0.6309 0.0
C274 C 0.77287 0.43094 0.69095 0.0
C275 C 0.81117 0.40458 0.70648 0.0
N276 N 0.82429 0.4306 0.71059 0.0
C277 C 0.78661 0.45742 0.69549 0.0
C278 C 0.78512 0.40429 0.69662 0.0
C279 C 0.81264 0.45678 0.70536 0.0
C280 C 0.71663 0.48976 0.70278 0.0
N281 N 0.70634 0.48936 0.68569 0.0
C282 C 0.69374 0.54036 0.6875 0.0
C283 C 0.69381 0.51364 0.67826 0.0
C284 C 0.70617 0.5419 0.70468 0.0
C285 C 0.71671 0.51594 0.7126 0.0
H286 H 0.72627 0.47011 0.70845 0.0
H287 H 0.68526 0.51276 0.66479 0.0
C288 C 0.79848 0.45564 0.63282 0.0
N289 N 0.79417 0.43755 0.6471 0.0
C290 C 0.8268 0.46184 0.62685 0.0
C291 C 0.84574 0.42904 0.64954 0.0
C292 C 0.81706 0.42359 0.6551 0.0
C293 C 0.8509 0.44887 0.63547 0.0
H294 H 0.77991 0.46551 0.62613 0.0
H295 H 0.81322 0.40821 0.6658 0.0
C296 C 0.65714 0.43793 0.66831 0.0
N297 N 0.60273 0.46456 0.67002 0.0
C298 C 0.63647 0.42846 0.68087 0.0
C299 C 0.65018 0.46095 0.65665 0.0
C300 C 0.60906 0.4422 0.68151 0.0
C301 C 0.62256 0.47413 0.65772 0.0
C302 C 0.75707 0.38319 0.63767 0.0
C303 C 0.76213 0.38909 0.61956 0.0
C304 C 0.77606 0.36446 0.64697 0.0
C305 C 0.78625 0.37625 0.61106 0.0
C306 C 0.7999 0.35201 0.63798 0.0
N307 N 0.80448 0.35814 0.62037 0.0
C308 C 0.69587 0.43948 0.60759 0.0
C309 C 0.65659 0.41294 0.62069 0.0
C310 C 0.68267 0.43791 0.59078 0.0
N311 N 0.68288 0.42687 0.62204 0.0
C312 C 0.64241 0.41106 0.6041 0.0
C313 C 0.65562 0.4234 0.58879 0.0
H314 H 0.71691 0.4502 0.60908 0.0
H315 H 0.64681 0.40303 0.63243 0.0
C316 C 0.71879 0.36622 0.70308 0.0
N317 N 0.718 0.36526 0.6849 0.0
C318 C 0.72173 0.34025 0.71296 0.0
C319 C 0.72125 0.31278 0.68523 0.0
C320 C 0.71835 0.33926 0.67591 0.0
C321 C 0.72373 0.31308 0.704 0.0
H322 H 0.71857 0.38727 0.70986 0.0
H323 H 0.71776 0.33918 0.66142 0.0
O324 O 0.72851 0.46379 0.64652 0.0
O325 O 0.74709 0.4311 0.68152 0.0
O326 O 0.6841 0.4248 0.66758 0.0
O327 O 0.73404 0.39619 0.64635 0.0
H328 H 0.77095 0.49382 0.66242 0.0
H329 H 0.69886 0.49989 0.62541 0.0
H330 H 0.77968 0.54736 0.65864 0.0
H331 H 0.70903 0.55329 0.62208 0.0
H332 H 0.82101 0.38411 0.7108 0.0
H333 H 0.7772 0.47829 0.6916 0.0
H334 H 0.77504 0.38355 0.69313 0.0
H335 H 0.82352 0.47712 0.70892 0.0
H336 H 0.68499 0.55982 0.68105 0.0
H337 H 0.72654 0.51621 0.72581 0.0
H338 H 0.82981 0.47673 0.61567 0.0
H339 H 0.86369 0.41848 0.65654 0.0
H340 H 0.64157 0.41069 0.69001 0.0
H341 H 0.66599 0.46867 0.64693 0.0
H342 H 0.59282 0.4351 0.69115 0.0
H343 H 0.6169 0.492 0.64879 0.0
H344 H 0.74776 0.40363 0.61219 0.0
H345 H 0.77273 0.35998 0.66105 0.0
H346 H 0.79051 0.38074 0.59708 0.0
H347 H 0.81487 0.33763 0.64504 0.0
H348 H 0.69406 0.44722 0.57939 0.0
H349 H 0.62144 0.39995 0.60328 0.0
H350 H 0.72311 0.34148 0.72742 0.0
H351 H 0.72296 0.29244 0.67774 0.0
Li352 Li 0.54516 0.28156 0.3289 0.0
Li353 Li 0.571 0.29799 0.35608 0.0
Li354 Li 0.59766 0.27532 0.32935 0.0
Li355 Li 0.56595 0.24629 0.34842 0.0
C356 C 0.56274 0.33368 0.32032 0.0
N357 N 0.534 0.37341 0.29854 0.0
C358 C 0.5454 0.35579 0.32787 0.0
C359 C 0.56563 0.33181 0.30173 0.0
C360 C 0.53101 0.37568 0.31661 0.0
C361 C 0.55086 0.3521 0.29093 0.0
C362 C 0.51433 0.25774 0.36242 0.0
C363 C 0.49652 0.23323 0.38893 0.0
N364 N 0.47482 0.22061 0.37907 0.0
C365 C 0.49175 0.24464 0.35257 0.0
C366 C 0.51666 0.25213 0.38077 0.0
C367 C 0.47201 0.22591 0.36123 0.0
C368 C 0.51042 0.27477 0.29808 0.0
N369 N 0.51205 0.28903 0.31402 0.0
C370 C 0.46325 0.30736 0.31048 0.0
C371 C 0.48938 0.30557 0.32022 0.0
C372 C 0.46029 0.29159 0.29435 0.0
C373 C 0.48463 0.27564 0.28801 0.0
H374 H 0.52879 0.26179 0.29351 0.0
H375 H 0.49123 0.31649 0.33305 0.0
C376 C 0.59933 0.33708 0.37998 0.0
N377 N 0.57309 0.325 0.3754 0.0
C378 C 0.60238 0.35201 0.39624 0.0
C379 C 0.55108 0.34278 0.40233 0.0
C380 C 0.54896 0.32829 0.3859 0.0
C381 C 0.57825 0.35415 0.40788 0.0
H382 H 0.61824 0.33365 0.37147 0.0
H383 H 0.52842 0.31833 0.38193 0.0
C384 C 0.58153 0.22153 0.31575 0.0
N385 N 0.60978 0.17151 0.30356 0.0
C386 C 0.60572 0.21029 0.325 0.0
C387 C 0.57161 0.20714 0.30034 0.0
C388 C 0.61974 0.18505 0.31862 0.0
C389 C 0.5862 0.18193 0.29438 0.0
C390 C 0.617 0.25762 0.3703 0.0
C391 C 0.64392 0.24316 0.36842 0.0
C392 C 0.60579 0.26281 0.38745 0.0
C393 C 0.65901 0.23394 0.38371 0.0
C394 C 0.62158 0.25331 0.40241 0.0
N395 N 0.64763 0.23917 0.40025 0.0
C396 C 0.65887 0.28059 0.32442 0.0
C397 C 0.6324 0.26665 0.29844 0.0
C398 C 0.68549 0.27682 0.31544 0.0
N399 N 0.63311 0.27495 0.31593 0.0
C400 C 0.65849 0.26244 0.28897 0.0
C401 C 0.68553 0.26708 0.29757 0.0
H402 H 0.65874 0.28721 0.33833 0.0
H403 H 0.61157 0.26249 0.29198 0.0
C404 C 0.53978 0.19145 0.34746 0.0
N405 N 0.55872 0.20748 0.35759 0.0
C406 C 0.53165 0.16318 0.35266 0.0
C407 C 0.56287 0.16802 0.37864 0.0
C408 C 0.57034 0.19633 0.37294 0.0
C409 C 0.54318 0.15115 0.36847 0.0
H410 H 0.53073 0.20079 0.33534 0.0
H411 H 0.58517 0.20924 0.38091 0.0
O412 O 0.57632 0.31355 0.33108 0.0
O413 O 0.53433 0.27555 0.35408 0.0
O414 O 0.56738 0.2463 0.32171 0.0
O415 O 0.60228 0.26743 0.35545 0.0
H416 H 0.54288 0.35738 0.34226 0.0
H417 H 0.57888 0.31468 0.29572 0.0
H418 H 0.5174 0.39284 0.32225 0.0
H419 H 0.55274 0.35084 0.27651 0.0
H420 H 0.49819 0.22854 0.4031 0.0
H421 H 0.48974 0.24846 0.33832 0.0
H422 H 0.53398 0.26202 0.38862 0.0
H423 H 0.45457 0.21546 0.35374 0.0
H424 H 0.44536 0.32039 0.31577 0.0
H425 H 0.48344 0.26278 0.27583 0.0
H426 H 0.62375 0.36024 0.40013 0.0
H427 H 0.53193 0.34422 0.41087 0.0
H428 H 0.61359 0.22085 0.33699 0.0
H429 H 0.5528 0.2153 0.29304 0.0
H430 H 0.63852 0.17621 0.32566 0.0
H431 H 0.57876 0.17064 0.28246 0.0
H432 H 0.65315 0.23911 0.35531 0.0
H433 H 0.58493 0.27361 0.38924 0.0
H434 H 0.67982 0.22268 0.38244 0.0
H435 H 0.61306 0.2571 0.41573 0.0
H436 H 0.70583 0.28047 0.32261 0.0
H437 H 0.65751 0.25537 0.27513 0.0
H438 H 0.51677 0.15076 0.34425 0.0
H439 H 0.57212 0.15958 0.39098 0.0
Li440 Li 0.22759 0.09879 0.82813 0.0
Li441 Li 0.20904 0.07971 0.85551 0.0
Li442 Li 0.25882 0.06909 0.84668 0.0
Li443 Li 0.21685 0.04399 0.83125 0.0
C444 C 0.24451 0.13746 0.85189 0.0
N445 N 0.24884 0.19802 0.84928 0.0
C446 C 0.22173 0.15541 0.85807 0.0
C447 C 0.26954 0.15037 0.84444 0.0
C448 C 0.22436 0.18596 0.85666 0.0
C449 C 0.27127 0.181 0.84318 0.0
C450 C 0.15981 0.07917 0.83563 0.0
C451 C 0.11273 0.05539 0.83834 0.0
N452 N 0.1007 0.08136 0.84366 0.0
C453 C 0.14698 0.10566 0.84105 0.0
C454 C 0.14258 0.05382 0.83421 0.0
C455 C 0.11706 0.10629 0.84509 0.0
C456 C 0.24842 0.13194 0.79855 0.0
N457 N 0.22776 0.1313 0.81168 0.0
C458 C 0.21249 0.18019 0.8043 0.0
C459 C 0.20923 0.15438 0.81427 0.0
C460 C 0.23464 0.182 0.79128 0.0
C461 C 0.25223 0.15717 0.78812 0.0
H462 H 0.26258 0.11321 0.79652 0.0
H463 H 0.19271 0.15326 0.8246 0.0
C464 C 0.20296 0.10171 0.88989 0.0
N465 N 0.18742 0.08672 0.87731 0.0
C466 C 0.19136 0.10648 0.90689 0.0
C467 C 0.14793 0.07976 0.89805 0.0
C468 C 0.1605 0.07538 0.88116 0.0
C469 C 0.16343 0.09556 0.9112 0.0
H470 H 0.22486 0.10933 0.88687 0.0
H471 H 0.14905 0.06222 0.87138 0.0
C472 C 0.27901 0.05587 0.81492 0.0
N473 N 0.33475 0.03781 0.80526 0.0
C474 C 0.28407 0.02671 0.80979 0.0
C475 C 0.30228 0.07592 0.81489 0.0
C476 C 0.31239 0.018 0.805 0.0
C477 C 0.33031 0.06635 0.81005 0.0
C478 C 0.22059 0.02911 0.87176 0.0
C479 C 0.23596 0.03481 0.88757 0.0
C480 C 0.19525 0.01182 0.87223 0.0
C481 C 0.22549 0.02332 0.90371 0.0
C482 C 0.18552 0.00069 0.88863 0.0
N483 N 0.20069 0.00667 0.9039 0.0
C484 C 0.3175 0.08013 0.85922 0.0
C485 C 0.30276 0.03041 0.85564 0.0
C486 C 0.34587 0.07124 0.86383 0.0
N487 N 0.2969 0.05969 0.85494 0.0
C488 C 0.33066 0.02057 0.86026 0.0
C489 C 0.35283 0.04108 0.86412 0.0
H490 H 0.31214 0.10326 0.85864 0.0
H491 H 0.28582 0.01472 0.85223 0.0
C492 C 0.1943 0.00523 0.80402 0.0
N493 N 0.20818 0.00744 0.8201 0.0
C494 C 0.19407 0.97834 0.79483 0.0
C495 C 0.2218 0.95672 0.81911 0.0
C496 C 0.22108 0.98373 0.82793 0.0
C497 C 0.20881 0.95402 0.80218 0.0
H498 H 0.18473 0.02461 0.79797 0.0
H499 H 0.2325 0.98628 0.84053 0.0
O500 O 0.24217 0.10744 0.85291 0.0
O501 O 0.18894 0.07813 0.83136 0.0
O502 O 0.25157 0.06463 0.8202 0.0
O503 O 0.22994 0.04096 0.85594 0.0
H504 H 0.20196 0.1459 0.8636 0.0
H505 H 0.28726 0.13692 0.83943 0.0
H506 H 0.20682 0.20008 0.86129 0.0
H507 H 0.2904 0.19125 0.83731 0.0
H508 H 0.09913 0.03594 0.83735 0.0
H509 H 0.16002 0.12541 0.84233 0.0
H510 H 0.15218 0.03316 0.83003 0.0
H511 H 0.10686 0.12659 0.8494 0.0
H512 H 0.19819 0.19871 0.80697 0.0
H513 H 0.2696 0.15767 0.77822 0.0
H514 H 0.20459 0.11793 0.91672 0.0
H515 H 0.1264 0.07077 0.90079 0.0
H516 H 0.26638 0.01093 0.8095 0.0
H517 H 0.29887 0.09853 0.81888 0.0
H518 H 0.31661 0.99546 0.8011 0.0
H519 H 0.34854 0.08158 0.81016 0.0
H520 H 0.25556 0.04828 0.8874 0.0
H521 H 0.18304 0.00739 0.86009 0.0
H522 H 0.23701 0.02773 0.91609 0.0
H523 H 0.16584 0.98744 0.88924 0.0
H524 H 0.36235 0.0878 0.86658 0.0
H525 H 0.33487 0.99712 0.86064 0.0
H526 H 0.18404 0.977 0.7817 0.0
H527 H 0.23334 0.93839 0.82516 0.0
Li528 Li 0.4587 0.7194 0.32988 0.0
Li529 Li 0.42821 0.70668 0.35442 0.0
Li530 Li 0.40667 0.72649 0.32711 0.0
Li531 Li 0.4366 0.75792 0.34697 0.0
C532 C 0.44052 0.66099 0.33114 0.0
N533 N 0.46601 0.60593 0.33353 0.0
C534 C 0.46696 0.65728 0.34037 0.0
C535 C 0.42709 0.6367 0.32312 0.0
C536 C 0.47948 0.62928 0.34144 0.0
C537 C 0.44031 0.60904 0.32447 0.0
C538 C 0.47326 0.7353 0.37252 0.0
C539 C 0.46024 0.75014 0.40251 0.0
N540 N 0.48892 0.74821 0.4074 0.0
C541 C 0.50259 0.73352 0.37784 0.0
C542 C 0.45188 0.74374 0.38494 0.0
C543 C 0.51007 0.74011 0.39554 0.0
C544 C 0.51636 0.73136 0.32241 0.0
N545 N 0.49459 0.71269 0.3174 0.0
C546 C 0.52401 0.69398 0.29346 0.0
C547 C 0.498 0.69375 0.30345 0.0
C548 C 0.54638 0.71404 0.29788 0.0
C549 C 0.54252 0.73241 0.31281 0.0
H550 H 0.51288 0.74633 0.33346 0.0
H551 H 0.48012 0.67942 0.29961 0.0
C552 C 0.39317 0.67633 0.37913 0.0
N553 N 0.42148 0.68119 0.3743 0.0
C554 C 0.38672 0.66229 0.39529 0.0
C555 C 0.43871 0.65746 0.40088 0.0
C556 C 0.44414 0.6712 0.38448 0.0
C557 C 0.40964 0.65355 0.40675 0.0
H558 H 0.37559 0.68435 0.37071 0.0
H559 H 0.46649 0.67521 0.38033 0.0
C560 C 0.45051 0.75789 0.30422 0.0
N561 N 0.47827 0.76246 0.27143 0.0
C562 C 0.47084 0.78037 0.30117 0.0
C563 C 0.44414 0.73787 0.29054 0.0
C564 C 0.48471 0.78225 0.28453 0.0
C565 C 0.45841 0.74055 0.27406 0.0
C566 C 0.37549 0.75766 0.35276 0.0
C567 C 0.37472 0.78142 0.34085 0.0
C568 C 0.3524 0.75351 0.3648 0.0
C569 C 0.35079 0.80061 0.34119 0.0
C570 C 0.32887 0.77323 0.36474 0.0
N571 N 0.32855 0.79616 0.35303 0.0
C572 C 0.34977 0.70893 0.31618 0.0
C573 C 0.36973 0.74907 0.29999 0.0
C574 C 0.32296 0.712 0.30724 0.0
N575 N 0.37236 0.72749 0.3125 0.0
C576 C 0.34345 0.75285 0.29071 0.0
C577 C 0.31941 0.7345 0.29447 0.0
H578 H 0.35227 0.6924 0.3265 0.0
H579 H 0.38772 0.76405 0.29763 0.0
C580 C 0.47061 0.80719 0.35144 0.0
N581 N 0.44412 0.79606 0.35625 0.0
C582 C 0.47936 0.83483 0.35746 0.0
C583 C 0.43369 0.83884 0.37375 0.0
C584 C 0.42589 0.81094 0.36748 0.0
C585 C 0.46071 0.85114 0.36865 0.0
H586 H 0.48501 0.79441 0.34297 0.0
H587 H 0.40545 0.80116 0.37173 0.0
O588 O 0.42764 0.68813 0.32988 0.0
O589 O 0.46581 0.72897 0.35518 0.0
O590 O 0.43748 0.75494 0.32064 0.0
O591 O 0.39835 0.73812 0.35246 0.0
H592 H 0.47781 0.67575 0.34662 0.0
H593 H 0.40661 0.63921 0.31592 0.0
H594 H 0.49993 0.6261 0.34854 0.0
H595 H 0.43013 0.59005 0.31833 0.0
H596 H 0.44392 0.75664 0.41225 0.0
H597 H 0.5194 0.72707 0.36837 0.0
H598 H 0.42906 0.74526 0.38113 0.0
H599 H 0.53269 0.73879 0.39984 0.0
H600 H 0.52609 0.67959 0.28196 0.0
H601 H 0.55935 0.74787 0.31684 0.0
H602 H 0.36397 0.65909 0.39897 0.0
H603 H 0.45716 0.65138 0.40922 0.0
H604 H 0.47599 0.79612 0.31156 0.0
H605 H 0.42871 0.72012 0.29274 0.0
H606 H 0.50064 0.79942 0.28202 0.0
H607 H 0.45384 0.72508 0.26341 0.0
H608 H 0.3924 0.7851 0.33148 0.0
H609 H 0.35263 0.73523 0.37409 0.0
H610 H 0.34991 0.81906 0.33205 0.0
H611 H 0.31085 0.77027 0.37398 0.0
H612 H 0.30494 0.6976 0.31077 0.0
H613 H 0.3419 0.77024 0.28083 0.0
H614 H 0.5003 0.84356 0.35312 0.0
H615 H 0.41892 0.85053 0.38261 0.0
Li616 Li 0.78656 0.95615 0.82631 0.0
Li617 Li 0.74608 0.93196 0.84088 0.0
Li618 Li 0.79378 0.92754 0.85459 0.0
Li619 Li 0.78166 0.90097 0.82578 0.0
C620 C 0.75393 0.98652 0.8562 0.0
N621 N 0.71806 0.03186 0.86759 0.0
C622 C 0.73409 0.99955 0.84434 0.0
C623 C 0.75575 0.99678 0.87381 0.0
C624 C 0.71608 0.02236 0.85036 0.0
C625 C 0.73738 0.01968 0.87932 0.0
C626 C 0.73541 0.93397 0.80207 0.0
C627 C 0.70066 0.91206 0.78162 0.0
N628 N 0.69332 0.93931 0.77557 0.0
C629 C 0.72756 0.96176 0.79556 0.0
C630 C 0.7219 0.9089 0.79497 0.0
C631 C 0.70623 0.964 0.7822 0.0
C632 C 0.79812 0.98844 0.79475 0.0
N633 N 0.79676 0.99026 0.8129 0.0
C634 C 0.79887 0.04276 0.81165 0.0
C635 C 0.79817 0.01662 0.82147 0.0
C636 C 0.79812 0.04173 0.79284 0.0
C637 C 0.79878 0.01406 0.78439 0.0
H638 H 0.79681 0.96715 0.78831 0.0
H639 H 0.79711 0.01746 0.83592 0.0
C640 C 0.7004 0.94029 0.86547 0.0
N641 N 0.7057 0.93616 0.84772 0.0
C642 C 0.67193 0.94545 0.87159 0.0
C643 C 0.6547 0.94126 0.8411 0.0
C644 C 0.68344 0.93616 0.8356 0.0
C645 C 0.64865 0.94627 0.85929 0.0
H646 H 0.71845 0.94003 0.87487 0.0
H647 H 0.68777 0.93273 0.82163 0.0
C648 C 0.84436 0.93902 0.83359 0.0
N649 N 0.89798 0.96657 0.83766 0.0
C650 C 0.86933 0.92749 0.82531 0.0
C651 C 0.84662 0.9646 0.84391 0.0
C652 C 0.89625 0.94172 0.82755 0.0
C653 C 0.87394 0.97819 0.84581 0.0
C654 C 0.74186 0.87922 0.85572 0.0
C655 C 0.73626 0.87569 0.874 0.0
C656 C 0.72312 0.86627 0.84318 0.0
C657 C 0.71172 0.85957 0.87942 0.0
C658 C 0.69881 0.85032 0.84913 0.0
N659 N 0.69364 0.84735 0.86698 0.0
C660 C 0.79432 0.92888 0.89145 0.0
C661 C 0.84107 0.91674 0.87968 0.0
C662 C 0.80447 0.92512 0.9089 0.0
N663 N 0.81249 0.92446 0.87729 0.0
C664 C 0.8523 0.91304 0.89699 0.0
C665 C 0.83372 0.91681 0.91184 0.0
H666 H 0.77163 0.93469 0.88912 0.0
H667 H 0.85498 0.91281 0.8682 0.0
C668 C 0.78401 0.86553 0.79442 0.0
N669 N 0.78606 0.86549 0.81258 0.0
C670 C 0.78126 0.839 0.78508 0.0
C671 C 0.78515 0.81293 0.8132 0.0
C672 C 0.78749 0.83994 0.82199 0.0
C673 C 0.78096 0.8122 0.79454 0.0
H674 H 0.78281 0.88622 0.78729 0.0
H675 H 0.78916 0.8406 0.83644 0.0
O676 O 0.77137 0.96374 0.85064 0.0
O677 O 0.75649 0.93128 0.81506 0.0
O678 O 0.81786 0.92533 0.83145 0.0
O679 O 0.76536 0.89553 0.8501 0.0
H680 H 0.73235 0.99183 0.83072 0.0
H681 H 0.77126 0.98728 0.88313 0.0
H682 H 0.70047 0.03247 0.84134 0.0
H683 H 0.73851 0.02777 0.89293 0.0
H684 H 0.68999 0.89284 0.77608 0.0
H685 H 0.73779 0.98146 0.8007 0.0
H686 H 0.72751 0.88721 0.79978 0.0
H687 H 0.69996 0.98537 0.77709 0.0
H688 H 0.79814 0.06352 0.81876 0.0
H689 H 0.79865 0.01223 0.76993 0.0
H690 H 0.66822 0.94885 0.88577 0.0
H691 H 0.63752 0.9421 0.8311 0.0
H692 H 0.8679 0.90772 0.81726 0.0
H693 H 0.82759 0.97383 0.85046 0.0
H694 H 0.91577 0.93303 0.82123 0.0
H695 H 0.87602 0.99797 0.85378 0.0
H696 H 0.75062 0.88534 0.88391 0.0
H697 H 0.72718 0.86871 0.82902 0.0
H698 H 0.70704 0.85678 0.89352 0.0
H699 H 0.68403 0.84034 0.83956 0.0
H700 H 0.78951 0.92845 0.91998 0.0
H701 H 0.87492 0.90633 0.89873 0.0
H702 H 0.77785 0.83965 0.77074 0.0
H703 H 0.78576 0.79289 0.82104 0.0
H704 H 0.12969 0.18135 0.0699 0.0
H705 H 0.13644 0.16728 0.03861 0.0
H706 H 0.08015 0.09208 0.04637 0.0
H707 H 0.07331 0.10605 0.07791 0.0
H708 H 0.13353 0.08083 0.02607 0.0
H709 H 0.05104 0.14635 0.02662 0.0
H710 H 0.02451 0.19173 0.03472 0.0
H711 H 0.08865 0.24355 0.00681 0.0
H712 H 0.11584 0.19849 0.99877 0.0
H713 H 0.13171 0.05662 0.93173 0.0
H714 H 0.11459 0.06342 0.96251 0.0
H715 H 0.15186 0.15072 0.96313 0.0
H716 H 0.16751 0.14474 0.93216 0.0
H717 H 0.10159 0.15172 0.97939 0.0
H718 H 0.18707 0.08903 0.98183 0.0
H719 H 0.21646 0.04507 0.97449 0.0
H720 H 0.15 0.9895 0.99725 0.0
H721 H 0.12002 0.03315 0.0045 0.0
C722 C 0.11911 0.16154 0.06506 0.0
C723 C 0.10104 0.14474 0.07638 0.0
C724 C 0.12281 0.15367 0.04714 0.0
C725 C 0.10859 0.12881 0.04018 0.0
C726 C 0.09124 0.11139 0.05152 0.0
C727 C 0.08726 0.11945 0.06947 0.0
C728 C 0.11139 0.12179 0.02088 0.0
C729 C 0.12606 0.09599 0.0158 0.0
C730 C 0.1021 0.1419 0.00759 0.0
C731 C 0.08559 0.16904 0.0122 0.0
C732 C 0.05961 0.16743 0.02231 0.0
C733 C 0.04443 0.1931 0.02688 0.0
C734 C 0.05491 0.22051 0.02131 0.0
C735 C 0.08056 0.2223 0.01112 0.0
C736 C 0.09585 0.1967 0.00654 0.0
C737 C 0.13577 0.07748 0.9383 0.0
C738 C 0.15125 0.10004 0.9295 0.0
C739 C 0.12627 0.0812 0.95599 0.0
C740 C 0.1324 0.10739 0.96528 0.0
C741 C 0.14698 0.13025 0.95631 0.0
C742 C 0.15621 0.12667 0.93863 0.0
C743 C 0.12444 0.11103 0.98447 0.0
C744 C 0.10873 0.13626 0.98957 0.0
C745 C 0.13311 0.09054 0.99778 0.0
C746 C 0.15116 0.06431 0.9935 0.0
C747 C 0.17863 0.06742 0.98514 0.0
C748 C 0.1954 0.04256 0.98102 0.0
C749 C 0.18506 0.0145 0.98535 0.0
C750 C 0.15795 0.01124 0.99386 0.0
C751 C 0.14106 0.03603 0.99799 0.0
H752 H 0.19808 0.99528 0.98215 0.0
H753 H 0.04314 0.24035 0.02486 0.0
H754 H 0.38917 0.57061 0.57422 0.0
H755 H 0.40494 0.57814 0.54309 0.0
H756 H 0.32429 0.62465 0.53214 0.0
H757 H 0.30824 0.61626 0.5629 0.0
H758 H 0.33361 0.58777 0.50669 0.0
H759 H 0.39348 0.65947 0.53733 0.0
H760 H 0.4298 0.67657 0.5595 0.0
H761 H 0.49486 0.61963 0.53647 0.0
H762 H 0.45878 0.60191 0.5143 0.0
H763 H 0.36571 0.67107 0.42941 0.0
H764 H 0.35633 0.65472 0.45992 0.0
H765 H 0.43065 0.59625 0.45718 0.0
H766 H 0.43964 0.61154 0.42619 0.0
H767 H 0.42827 0.63283 0.48875 0.0
H768 H 0.36766 0.56568 0.4559 0.0
H769 H 0.33061 0.55154 0.43343 0.0
H770 H 0.26581 0.60346 0.4607 0.0
H771 H 0.30259 0.61827 0.4832 0.0
C772 C 0.37505 0.58266 0.56515 0.0
C773 C 0.34747 0.59275 0.57087 0.0
C774 C 0.38404 0.58701 0.54739 0.0
C775 C 0.36585 0.60207 0.53523 0.0
C776 C 0.33863 0.61275 0.54117 0.0
C777 C 0.32949 0.60803 0.55876 0.0
C778 C 0.37439 0.60615 0.51616 0.0
C779 C 0.35424 0.59787 0.50283 0.0
C780 C 0.40166 0.61848 0.51099 0.0
C781 C 0.42335 0.62911 0.5243 0.0
C782 C 0.41547 0.65042 0.53709 0.0
C783 C 0.43602 0.66026 0.54964 0.0
C784 C 0.46459 0.64913 0.54943 0.0
C785 C 0.4727 0.62819 0.53664 0.0
C786 C 0.45222 0.61825 0.52408 0.0
C787 C 0.37974 0.65421 0.43503 0.0
C788 C 0.40333 0.64249 0.42516 0.0
C789 C 0.37447 0.6451 0.45258 0.0
C790 C 0.39274 0.62423 0.46075 0.0
C791 C 0.41636 0.61246 0.45109 0.0
C792 C 0.42149 0.62133 0.4334 0.0
C793 C 0.38713 0.61522 0.47951 0.0
C794 C 0.40783 0.62246 0.4927 0.0
C795 C 0.36021 0.60229 0.48461 0.0
C796 C 0.33796 0.59325 0.47117 0.0
C797 C 0.34557 0.57427 0.45703 0.0
C798 C 0.32461 0.5661 0.4443 0.0
C799 C 0.29589 0.57664 0.44562 0.0
C800 C 0.28807 0.59532 0.45969 0.0
C801 C 0.30896 0.60358 0.47245 0.0
H802 H 0.27969 0.57029 0.43575 0.0
H803 H 0.48047 0.65678 0.55915 0.0
H804 H 0.935 0.8901 0.07456 0.0
H805 H 0.92611 0.90381 0.04335 0.0
H806 H 0.8537 0.84277 0.04106 0.0
H807 H 0.86341 0.82779 0.07176 0.0
H808 H 0.88631 0.83631 0.01277 0.0
H809 H 0.84434 0.91927 0.04367 0.0
H810 H 0.84408 0.96144 0.06447 0.0
H811 H 0.91324 0.00248 0.03445 0.0
H812 H 0.91416 0.96035 0.0136 0.0
H813 H 0.80648 0.8842 0.93746 0.0
H814 H 0.82289 0.8746 0.96806 0.0
H815 H 0.90083 0.92614 0.95868 0.0
H816 H 0.88443 0.93589 0.92785 0.0
H817 H 0.87108 0.93882 0.99182 0.0
H818 H 0.90926 0.85627 0.95945 0.0
H819 H 0.90708 0.81432 0.93855 0.0
H820 H 0.84226 0.77254 0.97163 0.0
H821 H 0.84372 0.81447 0.9926 0.0
C822 C 0.91722 0.87953 0.06741 0.0
C823 C 0.89989 0.85786 0.07577 0.0
C824 C 0.91197 0.88763 0.0496 0.0
C825 C 0.88908 0.87448 0.03986 0.0
C826 C 0.87149 0.85324 0.04828 0.0
C827 C 0.87685 0.84498 0.06597 0.0
C828 C 0.8839 0.88187 0.02072 0.0
C829 C 0.88271 0.85873 0.00827 0.0
C830 C 0.88007 0.91118 0.01467 0.0
C831 C 0.87955 0.93651 0.0272 0.0
C832 C 0.85966 0.93717 0.04159 0.0
C833 C 0.85936 0.96109 0.05337 0.0
C834 C 0.87869 0.98458 0.05082 0.0
C835 C 0.89831 0.98424 0.03644 0.0
C836 C 0.89873 0.96036 0.02463 0.0
C837 C 0.82706 0.89361 0.94192 0.0
C838 C 0.84417 0.91085 0.9303 0.0
C839 C 0.83647 0.88798 0.95937 0.0
C840 C 0.86312 0.89956 0.96558 0.0
C841 C 0.88021 0.91701 0.95409 0.0
C842 C 0.87093 0.92239 0.9365 0.0
C843 C 0.87285 0.8932 0.98411 0.0
C844 C 0.87497 0.91648 0.99639 0.0
C845 C 0.87726 0.86399 0.99006 0.0
C846 C 0.87644 0.83864 0.97753 0.0
C847 C 0.89437 0.83825 0.9622 0.0
C848 C 0.89329 0.81445 0.95035 0.0
C849 C 0.8745 0.7908 0.95374 0.0
C850 C 0.85679 0.79088 0.96901 0.0
C851 C 0.85776 0.81465 0.9809 0.0
H852 H 0.8737 0.7724 0.94455 0.0
H853 H 0.87842 0.00308 0.05995 0.0
H854 H 0.55946 0.3291 0.4389 0.0
H855 H 0.56859 0.34559 0.46947 0.0
H856 H 0.61476 0.42161 0.44924 0.0
H857 H 0.60636 0.40456 0.4185 0.0
H858 H 0.64486 0.39869 0.4748 0.0
H859 H 0.54444 0.42599 0.4693 0.0
H860 H 0.49196 0.41965 0.4623 0.0
H861 H 0.48526 0.35203 0.50227 0.0
H862 H 0.53782 0.35768 0.50935 0.0
H863 H 0.65498 0.46348 0.56125 0.0
H864 H 0.63809 0.45577 0.53055 0.0
H865 H 0.60821 0.36877 0.54458 0.0
H866 H 0.62601 0.37574 0.57516 0.0
H867 H 0.5685 0.40183 0.52213 0.0
H868 H 0.67078 0.37336 0.52543 0.0
H869 H 0.72298 0.38164 0.53247 0.0
H870 H 0.72504 0.45496 0.49619 0.0
H871 H 0.67268 0.44737 0.48914 0.0
C872 C 0.57113 0.3496 0.44096 0.0
C873 C 0.58201 0.36569 0.42632 0.0
C874 C 0.57628 0.35907 0.45846 0.0
C875 C 0.59194 0.38516 0.46173 0.0
C876 C 0.60256 0.40146 0.44709 0.0
C877 C 0.59775 0.39174 0.42954 0.0
C878 C 0.59865 0.39436 0.48041 0.0
C879 C 0.628 0.39995 0.48502 0.0
C880 C 0.57681 0.39553 0.49392 0.0
C881 C 0.54515 0.39211 0.48975 0.0
C882 C 0.53183 0.40962 0.47651 0.0
C883 C 0.50206 0.40617 0.47254 0.0
C884 C 0.4853 0.38541 0.48181 0.0
C885 C 0.49827 0.3681 0.4951 0.0
C886 C 0.52805 0.37144 0.49911 0.0
C887 C 0.6449 0.44264 0.55785 0.0
C888 C 0.64222 0.4201 0.57069 0.0
C889 C 0.63507 0.43839 0.54031 0.0
C890 C 0.62214 0.41163 0.5353 0.0
C891 C 0.61808 0.38962 0.54823 0.0
C892 C 0.62817 0.39372 0.56574 0.0
C893 C 0.61453 0.4059 0.51633 0.0
C894 C 0.58513 0.4009 0.51175 0.0
C895 C 0.63622 0.40559 0.50279 0.0
C896 C 0.66774 0.41001 0.50691 0.0
C897 C 0.6823 0.3914 0.51907 0.0
C898 C 0.71192 0.39594 0.52305 0.0
C899 C 0.7273 0.41887 0.51483 0.0
C900 C 0.71309 0.43724 0.50258 0.0
C901 C 0.68345 0.43283 0.49858 0.0
H902 H 0.75023 0.42234 0.51792 0.0
H903 H 0.46225 0.38277 0.47872 0.0
H904 H 0.19369 0.25465 0.2414 0.0
H905 H 0.24079 0.26462 0.25586 0.0
H906 H 0.28586 0.24314 0.20674 0.0
H907 H 0.23876 0.2325 0.19235 0.0
H908 H 0.31473 0.22108 0.23375 0.0
H909 H 0.27439 0.31561 0.22042 0.0
H910 H 0.23698 0.35481 0.22022 0.0
H911 H 0.2388 0.35804 0.27768 0.0
H912 H 0.27593 0.31853 0.27824 0.0
H913 H 0.4501 0.28881 0.25803 0.0
H914 H 0.40327 0.28069 0.24287 0.0
H915 H 0.35835 0.28346 0.29362 0.0
H916 H 0.40506 0.29024 0.30904 0.0
H917 H 0.33034 0.31609 0.26516 0.0
H918 H 0.3708 0.21992 0.27754 0.0
H919 H 0.40935 0.18187 0.2767 0.0
H920 H 0.4085 0.18374 0.2192 0.0
H921 H 0.37024 0.22217 0.21971 0.0
C922 C 0.21367 0.25202 0.23371 0.0
C923 C 0.21256 0.24292 0.21573 0.0
C924 C 0.24057 0.25783 0.24196 0.0
C925 C 0.26689 0.25522 0.2323 0.0
C926 C 0.26587 0.24539 0.21446 0.0
C927 C 0.23896 0.23924 0.20627 0.0
C928 C 0.29543 0.26284 0.24077 0.0
C929 C 0.31821 0.24204 0.24037 0.0
C930 C 0.29999 0.29005 0.24965 0.0
C931 C 0.27774 0.31391 0.24938 0.0
C932 C 0.26666 0.32452 0.23302 0.0
C933 C 0.24552 0.34682 0.23284 0.0
C934 C 0.23547 0.35886 0.24893 0.0
C935 C 0.24658 0.34867 0.26523 0.0
C936 C 0.26769 0.32634 0.26549 0.0
C937 C 0.43034 0.28757 0.26603 0.0
C938 C 0.43155 0.28998 0.28483 0.0
C939 C 0.40356 0.28311 0.2573 0.0
C940 C 0.37744 0.28128 0.26716 0.0
C941 C 0.3783 0.28491 0.28579 0.0
C942 C 0.40509 0.28899 0.29456 0.0
C943 C 0.34934 0.27431 0.25813 0.0
C944 C 0.32674 0.29522 0.25844 0.0
C945 C 0.34506 0.24739 0.24899 0.0
C946 C 0.3679 0.22415 0.24866 0.0
C947 C 0.37902 0.21241 0.26472 0.0
C948 C 0.40079 0.19074 0.26431 0.0
C949 C 0.41143 0.18045 0.24791 0.0
C950 C 0.40027 0.19176 0.23189 0.0
C951 C 0.37854 0.21347 0.23223 0.0
H952 H 0.42828 0.16367 0.24762 0.0
H953 H 0.21911 0.37612 0.24876 0.0
H954 H 0.30275 0.73041 0.71375 0.0
H955 H 0.29155 0.77619 0.72989 0.0
H956 H 0.20304 0.74608 0.73879 0.0
H957 H 0.21425 0.7001 0.72297 0.0
H958 H 0.20994 0.80701 0.72508 0.0
H959 H 0.24325 0.7418 0.77207 0.0
H960 H 0.27813 0.70737 0.78616 0.0
H961 H 0.34477 0.77418 0.7858 0.0
H962 H 0.31038 0.80888 0.77144 0.0
H963 H 0.16708 0.91801 0.78747 0.0
H964 H 0.17521 0.8717 0.77126 0.0
H965 H 0.26885 0.88356 0.77645 0.0
H966 H 0.26059 0.92881 0.79337 0.0
H967 H 0.25794 0.83034 0.783 0.0
H968 H 0.2282 0.8954 0.73582 0.0
H969 H 0.19619 0.93087 0.72021 0.0
H970 H 0.12683 0.86696 0.71882 0.0
H971 H 0.15832 0.83122 0.73463 0.0
C972 C 0.28094 0.73361 0.71917 0.0
C973 C 0.2594 0.71172 0.71724 0.0
C974 C 0.27459 0.75967 0.72838 0.0
C975 C 0.24648 0.76441 0.73551 0.0
C976 C 0.22483 0.74278 0.73336 0.0
C977 C 0.23132 0.71652 0.72445 0.0
C978 C 0.23979 0.79185 0.7454 0.0
C979 C 0.2201 0.81207 0.73786 0.0
C980 C 0.2537 0.79862 0.76179 0.0
C981 C 0.27434 0.77782 0.77051 0.0
C982 C 0.26542 0.74906 0.77484 0.0
C983 C 0.28509 0.72952 0.78291 0.0
C984 C 0.31367 0.73856 0.78683 0.0
C985 C 0.32263 0.76719 0.78273 0.0
C986 C 0.30306 0.78681 0.77464 0.0
C987 C 0.18932 0.91062 0.78505 0.0
C988 C 0.21322 0.92676 0.79168 0.0
C989 C 0.19401 0.88428 0.77572 0.0
C990 C 0.22271 0.87416 0.7724 0.0
C991 C 0.24652 0.89068 0.77887 0.0
C992 C 0.24181 0.91657 0.7885 0.0
C993 C 0.22819 0.84608 0.76264 0.0
C994 C 0.24766 0.82554 0.77022 0.0
C995 C 0.21449 0.83932 0.74609 0.0
C996 C 0.19551 0.86075 0.73658 0.0
C997 C 0.20605 0.88899 0.7323 0.0
C998 C 0.18801 0.90913 0.7234 0.0
C999 C 0.15947 0.90121 0.71857 0.0
C1000 C 0.14893 0.87309 0.72259 0.0
C1001 C 0.16686 0.85288 0.73151 0.0
H1002 H 0.14554 0.91683 0.71168 0.0
H1003 H 0.32887 0.7234 0.79308 0.0
H1004 H 0.57221 0.76476 0.28651 0.0
H1005 H 0.61735 0.77027 0.26928 0.0
H1006 H 0.62595 0.67584 0.26619 0.0
H1007 H 0.58086 0.67015 0.28386 0.0
H1008 H 0.67742 0.70227 0.27555 0.0
H1009 H 0.60543 0.71415 0.22979 0.0
H1010 H 0.5609 0.73431 0.21563 0.0
H1011 H 0.59833 0.82101 0.21672 0.0
H1012 H 0.64295 0.80144 0.23115 0.0
H1013 H 0.79297 0.708 0.21159 0.0
H1014 H 0.74605 0.6984 0.22621 0.0
H1015 H 0.73218 0.79169 0.23264 0.0
H1016 H 0.77946 0.80155 0.2183 0.0
H1017 H 0.6828 0.76308 0.22043 0.0
H1018 H 0.7535 0.75134 0.26769 0.0
H1019 H 0.7979 0.73116 0.28201 0.0
H1020 H 0.76256 0.64381 0.27797 0.0
H1021 H 0.7181 0.66344 0.26337 0.0
C1022 C 0.58376 0.74513 0.28223 0.0
C1023 C 0.57311 0.717 0.28666 0.0
C1024 C 0.60941 0.74833 0.27223 0.0
C1025 C 0.6249 0.72348 0.26632 0.0
C1026 C 0.61427 0.69531 0.27059 0.0
C1027 C 0.58846 0.69208 0.28058 0.0
C1028 C 0.65269 0.72717 0.25619 0.0
C1029 C 0.67852 0.7151 0.26331 0.0
C1030 C 0.65421 0.74448 0.24045 0.0
C1031 C 0.62745 0.75635 0.2317 0.0
C1032 C 0.60409 0.73755 0.22715 0.0
C1033 C 0.57884 0.74887 0.21905 0.0
C1034 C 0.57676 0.77893 0.21532 0.0
C1035 C 0.59996 0.79773 0.21964 0.0
C1036 C 0.62525 0.78653 0.22776 0.0
C1037 C 0.78017 0.72652 0.21631 0.0
C1038 C 0.79019 0.75558 0.21392 0.0
C1039 C 0.75326 0.72096 0.22458 0.0
C1040 C 0.73576 0.74431 0.23067 0.0
C1041 C 0.74536 0.77335 0.22803 0.0
C1042 C 0.77236 0.77894 0.21979 0.0
C1043 C 0.70752 0.73839 0.23988 0.0
C1044 C 0.68164 0.75007 0.23259 0.0
C1045 C 0.70594 0.72068 0.25545 0.0
C1046 C 0.73262 0.70883 0.26426 0.0
C1047 C 0.75531 0.7278 0.26971 0.0
C1048 C 0.78046 0.71647 0.27791 0.0
C1049 C 0.78309 0.68621 0.28085 0.0
C1050 C 0.76052 0.66723 0.27565 0.0
C1051 C 0.73533 0.67845 0.26743 0.0
H1052 H 0.80258 0.67748 0.2872 0.0
H1053 H 0.55719 0.78765 0.20904 0.0
H1054 H 0.70091 0.25794 0.69842 0.0
H1055 H 0.71458 0.21212 0.71343 0.0
H1056 H 0.77477 0.25987 0.74725 0.0
H1057 H 0.76198 0.3056 0.73189 0.0
H1058 H 0.79995 0.21109 0.73442 0.0
H1059 H 0.70927 0.23472 0.76347 0.0
H1060 H 0.65684 0.24777 0.76523 0.0
H1061 H 0.63403 0.1673 0.73847 0.0
H1062 H 0.68638 0.15395 0.73633 0.0
H1063 H 0.82339 0.09596 0.79815 0.0
H1064 H 0.81167 0.14206 0.78279 0.0
H1065 H 0.75136 0.09576 0.74831 0.0
H1066 H 0.76219 0.04987 0.76397 0.0
H1067 H 0.72658 0.14419 0.76179 0.0
H1068 H 0.81766 0.12069 0.7328 0.0
H1069 H 0.87016 0.10783 0.73131 0.0
H1070 H 0.89229 0.18824 0.75836 0.0
H1071 H 0.83987 0.2014 0.76023 0.0
C1072 C 0.71707 0.2587 0.70904 0.0
C1073 C 0.73027 0.28549 0.71398 0.0
C1074 C 0.7247 0.23251 0.71771 0.0
C1075 C 0.74553 0.23258 0.73158 0.0
C1076 C 0.7586 0.25929 0.73662 0.0
C1077 C 0.751 0.28548 0.72795 0.0
C1078 C 0.7542 0.20469 0.74053 0.0
C1079 C 0.78395 0.19665 0.74063 0.0
C1080 C 0.73328 0.18553 0.74829 0.0
C1081 C 0.70177 0.19348 0.74958 0.0
C1082 C 0.69309 0.21992 0.75783 0.0
C1083 C 0.66338 0.22735 0.75892 0.0
C1084 C 0.64212 0.20841 0.75192 0.0
C1085 C 0.65053 0.18196 0.74386 0.0
C1086 C 0.68021 0.17444 0.74272 0.0
C1087 C 0.80773 0.09558 0.78725 0.0
C1088 C 0.79379 0.06918 0.78228 0.0
C1089 C 0.80121 0.12191 0.77839 0.0
C1090 C 0.78074 0.12235 0.76433 0.0
C1091 C 0.76725 0.09595 0.75911 0.0
C1092 C 0.77374 0.06964 0.76795 0.0
C1093 C 0.77231 0.1505 0.75559 0.0
C1094 C 0.74258 0.15861 0.75557 0.0
C1095 C 0.79327 0.16973 0.74794 0.0
C1096 C 0.82481 0.16188 0.74681 0.0
C1097 C 0.8337 0.13552 0.73856 0.0
C1098 C 0.86345 0.1282 0.73762 0.0
C1099 C 0.88454 0.14717 0.74478 0.0
C1100 C 0.87593 0.17354 0.75284 0.0
C1101 C 0.8462 0.18095 0.75383 0.0
H1102 H 0.90756 0.14146 0.74403 0.0
H1103 H 0.61913 0.2142 0.75279 0.0
H1104 H 0.69856 0.22 0.27617 0.0
H1105 H 0.74503 0.20913 0.26117 0.0
H1106 H 0.78256 0.28854 0.28302 0.0
H1107 H 0.73595 0.29986 0.29779 0.0
H1108 H 0.79521 0.28162 0.24743 0.0
H1109 H 0.79908 0.2227 0.30103 0.0
H1110 H 0.78077 0.18585 0.32255 0.0
H1111 H 0.78165 0.1198 0.28142 0.0
H1112 H 0.79958 0.15638 0.25958 0.0
H1113 H 0.94386 0.25832 0.22983 0.0
H1114 H 0.89762 0.26465 0.24589 0.0
H1115 H 0.86672 0.18168 0.225 0.0
H1116 H 0.91349 0.17499 0.20914 0.0
H1117 H 0.84953 0.1889 0.25918 0.0
H1118 H 0.84603 0.24652 0.20566 0.0
H1119 H 0.86373 0.28281 0.18361 0.0
H1120 H 0.86082 0.35064 0.22362 0.0
H1121 H 0.84352 0.31465 0.24599 0.0
C1122 C 0.71662 0.23531 0.27764 0.0
C1123 C 0.71358 0.26082 0.28816 0.0
C1124 C 0.74324 0.22891 0.2692 0.0
C1125 C 0.76734 0.24786 0.27114 0.0
C1126 C 0.76426 0.27356 0.28141 0.0
C1127 C 0.73769 0.2799 0.28993 0.0
C1128 C 0.79574 0.24107 0.26234 0.0
C1129 C 0.80728 0.26153 0.25017 0.0
C1130 C 0.81099 0.21441 0.26549 0.0
C1131 C 0.80039 0.19235 0.27863 0.0
C1132 C 0.79514 0.20038 0.29654 0.0
C1133 C 0.78487 0.17953 0.3088 0.0
C1134 C 0.77998 0.15052 0.30334 0.0
C1135 C 0.78542 0.14229 0.28562 0.0
C1136 C 0.79566 0.16306 0.2733 0.0
C1137 C 0.92728 0.24133 0.22878 0.0
C1138 C 0.93205 0.21634 0.21808 0.0
C1139 C 0.90085 0.24499 0.23791 0.0
C1140 C 0.87841 0.22399 0.23629 0.0
C1141 C 0.88366 0.19826 0.22634 0.0
C1142 C 0.91034 0.19442 0.21732 0.0
C1143 C 0.84921 0.22965 0.24444 0.0
C1144 C 0.83745 0.20897 0.25641 0.0
C1145 C 0.83358 0.25603 0.24101 0.0
C1146 C 0.84371 0.27782 0.22754 0.0
C1147 C 0.84935 0.26913 0.20979 0.0
C1148 C 0.85929 0.28966 0.19723 0.0
C1149 C 0.86346 0.319 0.20222 0.0
C1150 C 0.85761 0.3279 0.21978 0.0
C1151 C 0.84771 0.30745 0.2324 0.0
H1152 H 0.87116 0.33486 0.19248 0.0
H1153 H 0.77202 0.13441 0.31285 0.0
H1154 H 0.292 0.40453 0.68883 0.0
H1155 H 0.28461 0.35673 0.7031 0.0
H1156 H 0.28434 0.39836 0.75502 0.0
H1157 H 0.29279 0.4462 0.74088 0.0
H1158 H 0.31335 0.34679 0.75611 0.0
H1159 H 0.22051 0.38104 0.73429 0.0
H1160 H 0.18577 0.39993 0.71173 0.0
H1161 H 0.19763 0.32172 0.68025 0.0
H1162 H 0.23281 0.30255 0.70251 0.0
H1163 H 0.23815 0.23702 0.8057 0.0
H1164 H 0.2502 0.2831 0.79039 0.0
H1165 H 0.25703 0.23653 0.74023 0.0
H1166 H 0.24479 0.19029 0.75547 0.0
H1167 H 0.22565 0.28955 0.73766 0.0
H1168 H 0.3176 0.25484 0.76076 0.0
H1169 H 0.35123 0.23644 0.78407 0.0
H1170 H 0.33964 0.31626 0.81405 0.0
H1171 H 0.30555 0.33497 0.79103 0.0
C1172 C 0.29105 0.40348 0.70331 0.0
C1173 C 0.29284 0.42926 0.71371 0.0
C1174 C 0.28648 0.37615 0.71144 0.0
C1175 C 0.28338 0.37403 0.7301 0.0
C1176 C 0.28647 0.3995 0.74058 0.0
C1177 C 0.29109 0.42685 0.73247 0.0
C1178 C 0.27577 0.3455 0.73864 0.0
C1179 C 0.29402 0.33443 0.7522 0.0
C1180 C 0.25078 0.32911 0.73334 0.0
C1181 C 0.22953 0.3405 0.71997 0.0
C1182 C 0.21589 0.36797 0.72249 0.0
C1183 C 0.1961 0.37871 0.70976 0.0
C1184 C 0.18956 0.36207 0.69454 0.0
C1185 C 0.20276 0.33461 0.69204 0.0
C1186 C 0.22261 0.32379 0.70471 0.0
C1187 C 0.24187 0.23666 0.79137 0.0
C1188 C 0.24049 0.21007 0.78176 0.0
C1189 C 0.24899 0.26294 0.78268 0.0
C1190 C 0.25477 0.26316 0.76421 0.0
C1191 C 0.25273 0.23679 0.7545 0.0
C1192 C 0.24588 0.21042 0.76322 0.0
C1193 C 0.2632 0.29092 0.75512 0.0
C1194 C 0.24506 0.30186 0.74149 0.0
C1195 C 0.28815 0.30728 0.76045 0.0
C1196 C 0.3088 0.29618 0.77425 0.0
C1197 C 0.32203 0.26838 0.77239 0.0
C1198 C 0.34121 0.25791 0.78554 0.0
C1199 C 0.34751 0.27514 0.80056 0.0
C1200 C 0.33471 0.30292 0.80242 0.0
C1201 C 0.31547 0.31348 0.78932 0.0
H1202 H 0.36237 0.267 0.81072 0.0
H1203 H 0.17422 0.37042 0.68471 0.0
H1204 H 0.28019 0.6932 0.28226 0.0
H1205 H 0.23307 0.70179 0.26751 0.0
H1206 H 0.2467 0.79556 0.27119 0.0
H1207 H 0.29316 0.78719 0.28663 0.0
H1208 H 0.19154 0.78239 0.27926 0.0
H1209 H 0.25817 0.7579 0.23174 0.0
H1210 H 0.295 0.72771 0.21599 0.0
H1211 H 0.234 0.65585 0.21316 0.0
H1212 H 0.19691 0.68549 0.22911 0.0
H1213 H 0.0823 0.82337 0.21484 0.0
H1214 H 0.12801 0.81645 0.23166 0.0
H1215 H 0.11667 0.72227 0.22886 0.0
H1216 H 0.07128 0.72905 0.21201 0.0
H1217 H 0.17103 0.73667 0.22024 0.0
H1218 H 0.10428 0.76149 0.26783 0.0
H1219 H 0.06755 0.79201 0.28343 0.0
H1220 H 0.12879 0.86372 0.28586 0.0
H1221 H 0.16577 0.83374 0.27006 0.0
C1222 C 0.27304 0.71566 0.2801 0.0
C1223 C 0.29064 0.73949 0.2855 0.0
C1224 C 0.24621 0.72054 0.2715 0.0
C1225 C 0.23653 0.74934 0.26798 0.0
C1226 C 0.25377 0.77315 0.27366 0.0
C1227 C 0.28051 0.7683 0.28232 0.0
C1228 C 0.20856 0.75468 0.25827 0.0
C1229 C 0.18719 0.77269 0.26625 0.0
C1230 C 0.20265 0.74164 0.24143 0.0
C1231 C 0.22487 0.72382 0.23177 0.0
C1232 C 0.25268 0.73559 0.22787 0.0
C1233 C 0.27359 0.71859 0.21889 0.0
C1234 C 0.26687 0.68986 0.21362 0.0
C1235 C 0.23919 0.67809 0.21728 0.0
C1236 C 0.21821 0.69499 0.22627 0.0
C1237 C 0.08946 0.80123 0.21799 0.0
C1238 C 0.07334 0.77676 0.21198 0.0
C1239 C 0.11555 0.79728 0.2276 0.0
C1240 C 0.12574 0.76881 0.23159 0.0
C1241 C 0.10938 0.74442 0.22584 0.0
C1242 C 0.08347 0.74834 0.21618 0.0
C1243 C 0.15387 0.76419 0.24127 0.0
C1244 C 0.17534 0.74637 0.23326 0.0
C1245 C 0.15985 0.77745 0.25804 0.0
C1246 C 0.13768 0.79546 0.2676 0.0
C1247 C 0.10984 0.78384 0.27157 0.0
C1248 C 0.08899 0.80103 0.28047 0.0
C1249 C 0.09581 0.82981 0.28559 0.0
C1250 C 0.12352 0.84143 0.28187 0.0
C1251 C 0.14444 0.82434 0.27295 0.0
H1252 H 0.07964 0.84309 0.29248 0.0
H1253 H 0.28309 0.67673 0.20667 0.0
H1254 H 0.7282 0.592 0.6899 0.0
H1255 H 0.73981 0.63836 0.70502 0.0
H1256 H 0.70668 0.60321 0.7547 0.0
H1257 H 0.69503 0.5566 0.73963 0.0
H1258 H 0.68885 0.66295 0.74683 0.0
H1259 H 0.77612 0.60301 0.74971 0.0
H1260 H 0.81533 0.57215 0.73686 0.0
H1261 H 0.84346 0.64431 0.70393 0.0
H1262 H 0.80409 0.67548 0.71638 0.0
H1263 H 0.748 0.7661 0.80698 0.0
H1264 H 0.73529 0.7207 0.79154 0.0
H1265 H 0.78392 0.74928 0.74513 0.0
H1266 H 0.79822 0.79422 0.76092 0.0
H1267 H 0.79335 0.69304 0.75064 0.0
H1268 H 0.70795 0.75349 0.74707 0.0
H1269 H 0.66813 0.78519 0.75836 0.0
H1270 H 0.6356 0.71397 0.79052 0.0
H1271 H 0.6755 0.68194 0.77962 0.0
C1272 C 0.72293 0.59432 0.70398 0.0
C1273 C 0.71064 0.57073 0.7136 0.0
C1274 C 0.72976 0.62071 0.71261 0.0
C1275 C 0.72428 0.62408 0.73098 0.0
C1276 C 0.71109 0.60097 0.74051 0.0
C1277 C 0.70457 0.57439 0.73193 0.0
C1278 C 0.73335 0.65135 0.74035 0.0
C1279 C 0.7117 0.66941 0.7479 0.0
C1280 C 0.7631 0.6601 0.74121 0.0
C1281 C 0.78697 0.64148 0.73384 0.0
C1282 C 0.79051 0.61223 0.73962 0.0
C1283 C 0.81279 0.59469 0.73243 0.0
C1284 C 0.83182 0.60624 0.71956 0.0
C1285 C 0.82867 0.63538 0.71389 0.0
C1286 C 0.80639 0.653 0.72101 0.0
C1287 C 0.75655 0.76259 0.79363 0.0
C1288 C 0.77422 0.78395 0.78524 0.0
C1289 C 0.74884 0.73673 0.78469 0.0
C1290 C 0.75814 0.73178 0.76703 0.0
C1291 C 0.7763 0.75269 0.75871 0.0
C1292 C 0.78426 0.77851 0.76772 0.0
C1293 C 0.74885 0.7048 0.75728 0.0
C1294 C 0.77046 0.68673 0.74961 0.0
C1295 C 0.71899 0.69624 0.75611 0.0
C1296 C 0.69489 0.7154 0.76266 0.0
C1297 C 0.69244 0.74465 0.75666 0.0
C1298 C 0.66983 0.76267 0.76297 0.0
C1299 C 0.64939 0.75163 0.77518 0.0
C1300 C 0.65147 0.72251 0.78108 0.0
C1301 C 0.67406 0.7044 0.77483 0.0
H1302 H 0.6319 0.76561 0.78005 0.0
H1303 H 0.84906 0.59263 0.714 0.0
H1304 H 0.91562 0.60264 0.12371 0.0
H1305 H 0.92665 0.55093 0.11782 0.0
H1306 H 0.01884 0.57155 0.11432 0.0
H1307 H 0.00789 0.62353 0.11949 0.0
H1308 H 0.00346 0.52838 0.09054 0.0
H1309 H 0.99039 0.54961 0.15337 0.0
H1310 H 0.96374 0.56847 0.17973 0.0
H1311 H 0.89331 0.50796 0.16955 0.0
H1312 H 0.91939 0.48904 0.14296 0.0
H1313 H 0.07039 0.39578 0.12163 0.0
H1314 H 0.05324 0.44553 0.11467 0.0
H1315 H 0.96353 0.4167 0.12049 0.0
H1316 H 0.9806 0.36702 0.12758 0.0
H1317 H 0.97418 0.46312 0.14073 0.0
H1318 H 0.99128 0.43755 0.07954 0.0
H1319 H 0.01944 0.41876 0.05377 0.0
H1320 H 0.08379 0.48667 0.06125 0.0
H1321 H 0.05623 0.50564 0.08723 0.0
C1322 C 0.93815 0.59634 0.12119 0.0
C1323 C 0.96094 0.61712 0.12233 0.0
C1324 C 0.94444 0.56674 0.11795 0.0
C1325 C 0.97361 0.55738 0.11596 0.0
C1326 C 0.9962 0.57832 0.11591 0.0
C1327 C 0.98993 0.60794 0.11907 0.0
C1328 C 0.98086 0.52563 0.11581 0.0
C1329 C 0.9972 0.51405 0.10151 0.0
C1330 C 0.97229 0.50694 0.13003 0.0
C1331 C 0.95667 0.51816 0.14607 0.0
C1332 C 0.96912 0.54049 0.15668 0.0
C1333 C 0.95413 0.55117 0.17167 0.0
C1334 C 0.9268 0.53948 0.17628 0.0
C1335 C 0.91445 0.51703 0.16594 0.0
C1336 C 0.92932 0.50632 0.15092 0.0
C1337 C 0.04701 0.39993 0.121 0.0
C1338 C 0.02681 0.37768 0.12531 0.0
C1339 C 0.03722 0.42833 0.11699 0.0
C1340 C 0.00709 0.4348 0.11702 0.0
C1341 C 0.98688 0.4122 0.12046 0.0
C1342 C 0.99664 0.3839 0.12457 0.0
C1343 C 0.99679 0.46562 0.11542 0.0
C1344 C 0.98004 0.47717 0.12953 0.0
C1345 C 0.00518 0.48418 0.10108 0.0
C1346 C 0.02179 0.47288 0.08543 0.0
C1347 C 0.01156 0.44835 0.07578 0.0
C1348 C 0.02739 0.43769 0.06112 0.0
C1349 C 0.05342 0.45147 0.0559 0.0
C1350 C 0.06363 0.476 0.06531 0.0
C1351 C 0.04789 0.48674 0.07999 0.0
H1352 H 0.06564 0.44319 0.04454 0.0
H1353 H 0.91524 0.54776 0.18789 0.0
H1354 H 0.87206 0.50375 0.62828 0.0
H1355 H 0.92296 0.518 0.62304 0.0
H1356 H 0.94944 0.42699 0.62653 0.0
H1357 H 0.89844 0.41256 0.63178 0.0
H1358 H 0.98184 0.46089 0.6478 0.0
H1359 H 0.95136 0.46417 0.58655 0.0
H1360 H 0.91996 0.47831 0.56108 0.0
H1361 H 0.93896 0.56952 0.57069 0.0
H1362 H 0.97016 0.55596 0.5964 0.0
H1363 H 0.12948 0.48866 0.6288 0.0
H1364 H 0.07968 0.47076 0.62409 0.0
H1365 H 0.04763 0.56008 0.62334 0.0
H1366 H 0.09774 0.57834 0.62734 0.0
H1367 H 0.0189 0.52481 0.59888 0.0
H1368 H 0.04549 0.52203 0.66129 0.0
H1369 H 0.07683 0.50866 0.68696 0.0
H1370 H 0.06427 0.41694 0.67535 0.0
H1371 H 0.03323 0.4298 0.64942 0.0
C1372 C 0.88862 0.4867 0.62752 0.0
C1373 C 0.88128 0.45704 0.63048 0.0
C1374 C 0.91771 0.49488 0.62453 0.0
C1375 C 0.93996 0.47353 0.62426 0.0
C1376 C 0.93259 0.4438 0.6267 0.0
C1377 C 0.9035 0.43561 0.62975 0.0
C1378 C 0.97111 0.48251 0.62295 0.0
C1379 C 0.99007 0.47436 0.6369 0.0
C1380 C 0.98159 0.5008 0.609 0.0
C1381 C 0.96293 0.50904 0.5935 0.0
C1382 C 0.94867 0.48726 0.58333 0.0
C1383 C 0.93093 0.49517 0.56883 0.0
C1384 C 0.92742 0.5248 0.56429 0.0
C1385 C 0.94169 0.54658 0.57423 0.0
C1386 C 0.95943 0.53879 0.58875 0.0
C1387 C 0.11202 0.50459 0.62715 0.0
C1388 C 0.11756 0.53496 0.62858 0.0
C1389 C 0.08352 0.49428 0.62461 0.0
C1390 C 0.05998 0.51409 0.62366 0.0
C1391 C 0.06554 0.54445 0.62412 0.0
C1392 C 0.09411 0.55482 0.62659 0.0
C1393 C 0.02945 0.50308 0.62368 0.0
C1394 C 0.01065 0.51101 0.60961 0.0
C1395 C 0.01898 0.48466 0.63756 0.0
C1396 C 0.0373 0.47688 0.6533 0.0
C1397 C 0.04958 0.49902 0.66414 0.0
C1398 C 0.06727 0.49153 0.67874 0.0
C1399 C 0.0726 0.46197 0.68276 0.0
C1400 C 0.06016 0.43983 0.67221 0.0
C1401 C 0.04251 0.4472 0.65756 0.0
H1402 H 0.08631 0.45622 0.69407 0.0
H1403 H 0.91367 0.53088 0.55306 0.0
H1404 H 0.57925 0.10795 0.38138 0.0
H1405 H 0.5665 0.05662 0.38754 0.0
H1406 H 0.47639 0.07449 0.37359 0.0
H1407 H 0.4888 0.126 0.36792 0.0
H1408 H 0.48045 0.03668 0.40203 0.0
H1409 H 0.5222 0.04708 0.34284 0.0
H1410 H 0.56029 0.0617 0.32113 0.0
H1411 H 0.62229 0.00465 0.34703 0.0
H1412 H 0.58464 0.99002 0.36906 0.0
H1413 H 0.42648 0.90043 0.36933 0.0
H1414 H 0.44199 0.9509 0.37546 0.0
H1415 H 0.52963 0.92024 0.38685 0.0
H1416 H 0.51424 0.86967 0.38068 0.0
H1417 H 0.53048 0.96363 0.36321 0.0
H1418 H 0.48573 0.94814 0.42015 0.0
H1419 H 0.44673 0.93338 0.44118 0.0
H1420 H 0.38953 0.99926 0.41926 0.0
H1421 H 0.42804 0.01415 0.3979 0.0
C1422 C 0.55661 0.10109 0.38 0.0
C1423 C 0.53508 0.12088 0.37395 0.0
C1424 C 0.5494 0.07174 0.38343 0.0
C1425 C 0.52059 0.06172 0.38077 0.0
C1426 C 0.49877 0.08179 0.37566 0.0
C1427 C 0.50595 0.1111 0.37225 0.0
C1428 C 0.51355 0.02998 0.38187 0.0
C1429 C 0.49126 0.02065 0.39352 0.0
C1430 C 0.52813 0.00908 0.371 0.0
C1431 C 0.55072 0.01774 0.35771 0.0
C1432 C 0.54402 0.03784 0.34398 0.0
C1433 C 0.56552 0.0461 0.33161 0.0
C1434 C 0.59372 0.03419 0.33274 0.0
C1435 C 0.60046 0.01391 0.3462 0.0
C1436 C 0.57905 0.00562 0.35863 0.0
C1437 C 0.44887 0.90437 0.37354 0.0
C1438 C 0.4692 0.88115 0.37442 0.0
C1439 C 0.45772 0.93322 0.37706 0.0
C1440 C 0.48694 0.93931 0.38172 0.0
C1441 C 0.507 0.91602 0.38325 0.0
C1442 C 0.4982 0.88719 0.37966 0.0
C1443 C 0.49714 0.97017 0.38329 0.0
C1444 C 0.51997 0.97943 0.37202 0.0
C1445 C 0.48295 0.99093 0.39446 0.0
C1446 C 0.45974 0.98212 0.40733 0.0
C1447 C 0.46476 0.95934 0.41972 0.0
C1448 C 0.44275 0.95097 0.43172 0.0
C1449 C 0.41565 0.96534 0.43154 0.0
C1450 C 0.41053 0.98815 0.41938 0.0
C1451 C 0.43246 0.99659 0.40734 0.0
H1452 H 0.39863 0.95883 0.44084 0.0
H1453 H 0.61033 0.0406 0.32314 0.0
H1454 H 0.39212 0.06236 0.88885 0.0
H1455 H 0.44271 0.0459 0.89382 0.0
H1456 H 0.43251 0.98042 0.85246 0.0
H1457 H 0.38243 0.99698 0.84717 0.0
H1458 H 0.45985 0.95837 0.88261 0.0
H1459 H 0.46638 0.04385 0.84352 0.0
H1460 H 0.45824 0.09598 0.83575 0.0
H1461 H 0.50696 0.12282 0.8822 0.0
H1462 H 0.51504 0.07079 0.89037 0.0
H1463 H 0.59739 0.92159 0.84765 0.0
H1464 H 0.54758 0.93731 0.85453 0.0
H1465 H 0.58123 0.0022 0.89141 0.0
H1466 H 0.63137 0.98752 0.88389 0.0
H1467 H 0.54256 0.0263 0.87012 0.0
H1468 H 0.54328 0.94054 0.9064 0.0
H1469 H 0.55181 0.88844 0.91401 0.0
H1470 H 0.48995 0.86183 0.87378 0.0
H1471 H 0.48134 0.91376 0.86573 0.0
C1472 C 0.40073 0.04455 0.88077 0.0
C1473 C 0.38322 0.03093 0.86765 0.0
C1474 C 0.42954 0.03509 0.8837 0.0
C1475 C 0.44127 0.01195 0.8735 0.0
C1476 C 0.42374 0.99812 0.86059 0.0
C1477 C 0.39508 0.00758 0.85762 0.0
C1478 C 0.47217 0.00265 0.87563 0.0
C1479 C 0.478 0.97314 0.87986 0.0
C1480 C 0.49576 0.02224 0.87263 0.0
C1481 C 0.49099 0.05347 0.86767 0.0
C1482 C 0.47514 0.06088 0.85216 0.0
C1483 C 0.47058 0.0904 0.84767 0.0
C1484 C 0.48199 0.1127 0.85851 0.0
C1485 C 0.49807 0.10552 0.87384 0.0
C1486 C 0.50266 0.07602 0.8784 0.0
C1487 C 0.59423 0.93917 0.85726 0.0
C1488 C 0.61837 0.95344 0.86513 0.0
C1489 C 0.56569 0.94787 0.86138 0.0
C1490 C 0.56063 0.9707 0.87367 0.0
C1491 C 0.58463 0.98443 0.88196 0.0
C1492 C 0.61326 0.97585 0.87776 0.0
C1493 C 0.53037 0.98168 0.8766 0.0
C1494 C 0.52458 0.01155 0.87331 0.0
C1495 C 0.50684 0.96241 0.88054 0.0
C1496 C 0.51178 0.93109 0.8854 0.0
C1497 C 0.53162 0.92359 0.89909 0.0
C1498 C 0.53645 0.89407 0.9035 0.0
C1499 C 0.52146 0.87184 0.89437 0.0
C1500 C 0.50154 0.87908 0.88084 0.0
C1501 C 0.49664 0.90856 0.87637 0.0
H1502 H 0.52524 0.849 0.8978 0.0
H1503 H 0.47844 0.13554 0.85501 0.0
loop_
_geom_bond_atom_site_label_1
_geom_bond_atom_site_label_2
_geom_bond_distance
_geom_bond_site_symmetry_2
_ccdc_geom_bond_type
Li0 N17 1.990 . S
Li0 O60 1.956 . S
Li0 O61 1.970 . S
Li0 O62 1.961 . S
Li1 N25 1.990 . S
Li1 O60 1.970 . S
Li1 O61 1.956 . S
Li1 O63 1.961 . S
Li2 N47 1.990 . S
Li2 O60 1.961 . S
Li2 O62 1.956 . S
Li2 O63 1.970 . S
Li3 N53 1.990 . S
Li3 O61 1.961 . S
Li3 O62 1.970 . S
Li3 O63 1.956 . S
C4 C6 1.348 . S
C4 C7 1.356 . S
C4 O60 1.325 . S
N5 C8 1.314 . S
N5 C9 1.279 . S
C6 C4 1.348 . S
C6 C8 1.353 . S
C6 H64 0.929 . S
C7 C4 1.356 . S
C7 C9 1.358 . S
C7 H65 0.930 . S
C8 N5 1.314 . S
C8 C6 1.353 . S
C8 H66 0.930 . S
C9 N5 1.279 . S
C9 C7 1.358 . S
C9 H67 0.930 . S
C10 C13 1.348 . S
C10 C14 1.356 . S
C10 O61 1.325 . S
C11 N12 1.279 . S
C11 C14 1.358 . S
C11 H68 0.930 . S
N12 C11 1.279 . S
N12 C15 1.314 . S
C13 C10 1.348 . S
C13 C15 1.353 . S
C13 H69 0.929 . S
C14 C10 1.356 . S
C14 C11 1.358 . S
C14 H70 0.930 . S
C15 N12 1.314 . S
C15 C13 1.353 . S
C15 H71 0.930 . S
C16 N17 1.314 . S
C16 C21 1.353 . S
C16 H22 0.930 . S
N17 Li0 1.990 . S
N17 C16 1.314 . S
N17 C19 1.279 . S
C18 C19 1.358 . S
C18 C20 1.356 . S
C18 H72 0.930 . S
C19 N17 1.279 . S
C19 C18 1.358 . S
C19 H23 0.930 . S
C20 C18 1.356 . S
C20 C21 1.348 . S
C21 C16 1.353 . S
C21 C20 1.348 . S
C21 H73 0.965 . S
H22 C16 0.930 . S
H23 C19 0.930 . S
C24 N25 1.314 . S
C24 C26 1.353 . S
C24 H30 0.930 . S
N25 Li1 1.990 . S
N25 C24 1.314 . S
N25 C28 1.279 . S
C26 C24 1.353 . S
C26 C29 1.348 . S
C26 H74 0.929 . S
C27 C28 1.358 . S
C27 C29 1.356 . S
C27 H75 0.930 . S
C28 N25 1.279 . S
C28 C27 1.358 . S
C28 H31 0.930 . S
C29 C26 1.348 . S
C29 C27 1.356 . S
H30 C24 0.930 . S
H31 C28 0.930 . S
C32 C34 1.348 1_455 S
C32 C35 1.356 . S
C32 O62 1.325 . S
N33 C36 1.314 . S
N33 C37 1.279 . S
C34 C32 1.348 1_655 S
C34 C36 1.353 . S
C34 H76 0.929 . S
C35 C32 1.356 . S
C35 C37 1.358 1_455 S
C35 H77 0.930 . S
C36 N33 1.314 . S
C36 C34 1.353 . S
C36 H78 0.930 . S
C37 N33 1.279 . S
C37 C35 1.358 1_655 S
C37 H79 0.930 . S
C38 C39 1.348 . S
C38 C40 1.356 . S
C38 O63 1.325 . S
C39 C38 1.348 . S
C39 C41 1.353 . S
C39 H80 0.929 . S
C40 C38 1.356 . S
C40 C42 1.358 . S
C40 H81 0.930 . S
C41 C39 1.353 . S
C41 N43 1.314 . S
C41 H82 0.930 . S
C42 C40 1.358 . S
C42 N43 1.279 . S
C42 H83 0.930 . S
N43 C41 1.314 . S
N43 C42 1.279 . S
C44 C46 1.353 . S
C44 N47 1.314 . S
C44 H50 0.930 . S
C45 N47 1.279 . S
C45 C48 1.358 . S
C45 H51 0.930 . S
C46 C44 1.353 . S
C46 C49 1.348 . S
C46 H84 0.929 . S
N47 Li2 1.990 . S
N47 C44 1.314 . S
N47 C45 1.279 . S
C48 C45 1.358 . S
C48 C49 1.356 . S
C48 H85 0.930 . S
C49 C46 1.348 . S
C49 C48 1.356 . S
H50 C44 0.930 . S
H51 C45 0.930 . S
C52 N53 1.314 1_655 S
C52 C54 1.353 . S
C52 H58 0.930 . S
N53 Li3 1.990 . S
N53 C52 1.314 1_455 S
N53 C56 1.279 1_455 S
C54 C52 1.353 . S
C54 C57 1.348 . S
C54 H86 0.929 . S
C55 C56 1.358 . S
C55 C57 1.356 . S
C55 H87 0.930 . S
C56 N53 1.279 1_655 S
C56 C55 1.358 . S
C56 H59 0.930 1_655 S
C57 C54 1.348 . S
C57 C55 1.356 . S
H58 C52 0.930 . S
H59 C56 0.930 1_455 S
O60 Li0 1.956 . S
O60 Li1 1.970 . S
O60 Li2 1.961 . S
O60 C4 1.325 . S
O61 Li0 1.970 . S
O61 Li1 1.956 . S
O61 Li3 1.961 . S
O61 C10 1.325 . S
O62 Li0 1.961 . S
O62 Li2 1.956 . S
O62 Li3 1.970 . S
O62 C32 1.325 . S
O63 Li1 1.961 . S
O63 Li2 1.970 . S
O63 Li3 1.956 . S
O63 C38 1.325 . S
H64 C6 0.929 . S
H65 C7 0.930 . S
H66 C8 0.930 . S
H67 C9 0.930 . S
H68 C11 0.930 . S
H69 C13 0.929 . S
H70 C14 0.930 . S
H71 C15 0.930 . S
H72 C18 0.930 . S
H73 C21 0.965 . S
H74 C26 0.929 . S
H75 C27 0.930 . S
H76 C34 0.929 . S
H77 C35 0.930 . S
H78 C36 0.930 . S
H79 C37 0.930 . S
H80 C39 0.929 . S
H81 C40 0.930 . S
H82 C41 0.930 . S
H83 C42 0.930 . S
H84 C46 0.929 . S
H85 C48 0.930 . S
H86 C54 0.929 . S
H87 C55 0.930 . S
Li88 N105 1.990 . S
Li88 O148 1.956 . S
Li88 O149 1.970 . S
Li88 O150 1.961 . S
Li89 N113 1.990 . S
Li89 O148 1.970 . S
Li89 O149 1.956 . S
Li89 O151 1.961 . S
Li90 N135 1.990 . S
Li90 O148 1.961 . S
Li90 O150 1.956 . S
Li90 O151 1.970 . S
Li91 N141 1.990 . S
Li91 O149 1.961 . S
Li91 O150 1.970 . S
Li91 O151 1.956 . S
C92 C94 1.348 . S
C92 C95 1.356 . S
C92 O148 1.325 . S
N93 C96 1.314 . S
N93 C97 1.279 . S
C94 C92 1.348 . S
C94 C96 1.353 . S
C94 H152 0.929 . S
C95 C92 1.356 . S
C95 C97 1.358 . S
C95 H153 0.930 . S
C96 N93 1.314 . S
C96 C94 1.353 . S
C96 H154 0.930 . S
C97 N93 1.279 . S
C97 C95 1.358 . S
C97 H155 0.930 . S
C98 C101 1.348 . S
C98 C102 1.356 . S
C98 O149 1.325 . S
C99 N100 1.279 . S
C99 C102 1.358 . S
C99 H156 0.930 . S
N100 C99 1.279 . S
N100 C103 1.314 . S
C101 C98 1.348 . S
C101 C103 1.353 . S
C101 H157 0.929 . S
C102 C98 1.356 . S
C102 C99 1.358 . S
C102 H158 0.930 . S
C103 N100 1.314 . S
C103 C101 1.353 . S
C103 H159 0.930 . S
C104 N105 1.314 . S
C104 C109 1.353 . S
C104 H110 0.930 . S
N105 Li88 1.990 . S
N105 C104 1.314 . S
N105 C107 1.279 . S
C106 C107 1.358 . S
C106 C108 1.356 . S
C106 H160 0.930 . S
C107 N105 1.279 . S
C107 C106 1.358 . S
C107 H111 0.930 . S
C108 C106 1.356 . S
C108 C109 1.348 . S
C109 C104 1.353 . S
C109 C108 1.348 . S
C109 H161 0.929 . S
H110 C104 0.930 . S
H111 C107 0.930 . S
C112 N113 1.314 . S
C112 C114 1.353 . S
C112 H118 0.930 . S
N113 Li89 1.990 . S
N113 C112 1.314 . S
N113 C116 1.279 . S
C114 C112 1.353 . S
C114 C117 1.348 . S
C114 H162 0.929 . S
C115 C116 1.358 . S
C115 C117 1.356 . S
C115 H163 0.930 . S
C116 N113 1.279 . S
C116 C115 1.358 . S
C116 H119 0.930 . S
C117 C114 1.348 . S
C117 C115 1.356 . S
H118 C112 0.930 . S
H119 C116 0.930 . S
C120 C122 1.348 . S
C120 C123 1.356 . S
C120 O150 1.325 . S
N121 C124 1.314 . S
N121 C125 1.279 . S
C122 C120 1.348 . S
C122 C124 1.353 . S
C122 H164 0.929 . S
C123 C120 1.356 . S
C123 C125 1.358 . S
C123 H165 0.930 . S
C124 N121 1.314 . S
C124 C122 1.353 . S
C124 H166 0.930 . S
C125 N121 1.279 . S
C125 C123 1.358 . S
C125 H167 0.930 . S
C126 C127 1.348 . S
C126 C128 1.356 . S
C126 O151 1.325 . S
C127 C126 1.348 . S
C127 C129 1.353 . S
C127 H168 0.929 . S
C128 C126 1.356 . S
C128 C130 1.358 . S
C128 H169 0.930 . S
C129 C127 1.353 . S
C129 N131 1.314 . S
C129 H170 0.930 . S
C130 C128 1.358 . S
C130 N131 1.279 . S
C130 H171 0.930 . S
N131 C129 1.314 . S
N131 C130 1.279 . S
C132 C134 1.353 . S
C132 N135 1.314 . S
C132 H138 0.930 . S
C133 N135 1.279 . S
C133 C136 1.358 . S
C133 H139 0.930 . S
C134 C132 1.353 . S
C134 C137 1.348 . S
C134 H172 0.929 . S
N135 Li90 1.990 . S
N135 C132 1.314 . S
N135 C133 1.279 . S
C136 C133 1.358 . S
C136 C137 1.356 . S
C136 H173 0.930 . S
C137 C134 1.348 . S
C137 C136 1.356 . S
H138 C132 0.930 . S
H139 C133 0.930 . S
C140 N141 1.314 . S
C140 C142 1.353 . S
C140 H146 0.930 . S
N141 Li91 1.990 . S
N141 C140 1.314 . S
N141 C144 1.279 . S
C142 C140 1.353 . S
C142 C145 1.348 . S
C142 H174 0.929 . S
C143 C144 1.358 . S
C143 C145 1.356 . S
C143 H175 0.930 . S
C144 N141 1.279 . S
C144 C143 1.358 . S
C144 H147 0.930 . S
C145 C142 1.348 . S
C145 C143 1.356 . S
H146 C140 0.930 . S
H147 C144 0.930 . S
O148 Li88 1.956 . S
O148 Li89 1.970 . S
O148 Li90 1.961 . S
O148 C92 1.325 . S
O149 Li88 1.970 . S
O149 Li89 1.956 . S
O149 Li91 1.961 . S
O149 C98 1.325 . S
O150 Li88 1.961 . S
O150 Li90 1.956 . S
O150 Li91 1.970 . S
O150 C120 1.325 . S
O151 Li89 1.961 . S
O151 Li90 1.970 . S
O151 Li91 1.956 . S
O151 C126 1.325 . S
H152 C94 0.929 . S
H153 C95 0.930 . S
H154 C96 0.930 . S
H155 C97 0.930 . S
H156 C99 0.930 . S
H157 C101 0.929 . S
H158 C102 0.930 . S
H159 C103 0.930 . S
H160 C106 0.930 . S
H161 C109 0.929 . S
H162 C114 0.929 . S
H163 C115 0.930 . S
H164 C122 0.929 . S
H165 C123 0.930 . S
H166 C124 0.930 . S
H167 C125 0.930 . S
H168 C127 0.929 . S
H169 C128 0.930 . S
H170 C129 0.930 . S
H171 C130 0.930 . S
H172 C134 0.929 . S
H173 C136 0.930 . S
H174 C142 0.929 . S
H175 C143 0.930 . S
Li176 N193 1.990 . S
Li176 O236 1.956 . S
Li176 O237 1.970 . S
Li176 O238 1.961 . S
Li177 N201 1.990 . S
Li177 O236 1.970 . S
Li177 O237 1.956 . S
Li177 O239 1.961 . S
Li178 N223 1.990 . S
Li178 O236 1.961 . S
Li178 O238 1.956 . S
Li178 O239 1.970 . S
Li179 N229 1.990 . S
Li179 O237 1.961 . S
Li179 O238 1.970 . S
Li179 O239 1.956 . S
C180 C182 1.348 . S
C180 C183 1.356 . S
C180 O236 1.325 . S
N181 C184 1.314 . S
N181 C185 1.279 . S
C182 C180 1.348 . S
C182 C184 1.353 . S
C182 H240 0.929 . S
C183 C180 1.356 . S
C183 C185 1.358 . S
C183 H241 0.930 . S
C184 N181 1.314 . S
C184 C182 1.353 . S
C184 H242 0.930 . S
C185 N181 1.279 . S
C185 C183 1.358 . S
C185 H243 0.930 . S
C186 C189 1.348 . S
C186 C190 1.356 . S
C186 O237 1.325 . S
C187 N188 1.279 . S
C187 C190 1.358 . S
C187 H244 0.930 . S
N188 C187 1.279 . S
N188 C191 1.314 . S
C189 C186 1.348 . S
C189 C191 1.353 . S
C189 H245 0.929 . S
C190 C186 1.356 . S
C190 C187 1.358 . S
C190 H246 0.930 . S
C191 N188 1.314 . S
C191 C189 1.353 . S
C191 H247 0.930 . S
C192 N193 1.314 . S
C192 C197 1.353 . S
C192 H198 0.930 . S
N193 Li176 1.990 . S
N193 C192 1.314 . S
N193 C195 1.279 . S
C194 C195 1.358 . S
C194 C196 1.356 . S
C194 H248 0.930 . S
C195 N193 1.279 . S
C195 C194 1.358 . S
C195 H199 0.930 . S
C196 C194 1.356 . S
C196 C197 1.348 . S
C197 C192 1.353 . S
C197 C196 1.348 . S
C197 H249 0.929 . S
H198 C192 0.930 . S
H199 C195 0.930 . S
C200 N201 1.314 . S
C200 C202 1.353 . S
C200 H206 0.930 . S
N201 Li177 1.990 . S
N201 C200 1.314 . S
N201 C204 1.279 . S
C202 C200 1.353 . S
C202 C205 1.348 . S
C202 H250 0.965 . S
C203 C204 1.358 . S
C203 C205 1.356 . S
C203 H251 0.930 . S
C204 N201 1.279 . S
C204 C203 1.358 . S
C204 H207 0.930 . S
C205 C202 1.348 . S
C205 C203 1.356 . S
H206 C200 0.930 . S
H207 C204 0.930 . S
C208 C210 1.348 . S
C208 C211 1.356 . S
C208 O238 1.325 . S
N209 C212 1.314 . S
N209 C213 1.279 . S
C210 C208 1.348 . S
C210 C212 1.353 . S
C210 H252 0.929 . S
C211 C208 1.356 . S
C211 C213 1.358 . S
C211 H253 0.930 . S
C212 N209 1.314 . S
C212 C210 1.353 . S
C212 H254 0.930 . S
C213 N209 1.279 . S
C213 C211 1.358 . S
C213 H255 0.930 . S
C214 C215 1.348 1_655 S
C214 C216 1.356 . S
C214 O239 1.325 . S
C215 C214 1.348 1_455 S
C215 C217 1.353 . S
C215 H256 0.929 . S
C216 C214 1.356 . S
C216 C218 1.358 1_655 S
C216 H257 0.930 . S
C217 C215 1.353 . S
C217 N219 1.314 . S
C217 H258 0.930 . S
C218 C216 1.358 1_455 S
C218 N219 1.279 . S
C218 H259 0.930 . S
N219 C217 1.314 . S
N219 C218 1.279 . S
C220 C222 1.353 . S
C220 N223 1.314 1_455 S
C220 H226 0.930 . S
C221 N223 1.279 1_455 S
C221 C224 1.358 . S
C221 H227 0.930 1_455 S
C222 C220 1.353 . S
C222 C225 1.348 . S
C222 H260 0.929 . S
N223 Li178 1.990 . S
N223 C220 1.314 1_655 S
N223 C221 1.279 1_655 S
C224 C221 1.358 . S
C224 C225 1.356 . S
C224 H261 0.930 . S
C225 C222 1.348 . S
C225 C224 1.356 . S
H226 C220 0.930 . S
H227 C221 0.930 1_655 S
C228 N229 1.314 . S
C228 C230 1.353 . S
C228 H234 0.930 . S
N229 Li179 1.990 . S
N229 C228 1.314 . S
N229 C232 1.279 . S
C230 C228 1.353 . S
C230 C233 1.348 . S
C230 H262 0.929 . S
C231 C232 1.358 . S
C231 C233 1.356 . S
C231 H263 0.930 . S
C232 N229 1.279 . S
C232 C231 1.358 . S
C232 H235 0.930 . S
C233 C230 1.348 . S
C233 C231 1.356 . S
H234 C228 0.930 . S
H235 C232 0.930 . S
O236 Li176 1.956 . S
O236 Li177 1.970 . S
O236 Li178 1.961 . S
O236 C180 1.325 . S
O237 Li176 1.970 . S
O237 Li177 1.956 . S
O237 Li179 1.961 . S
O237 C186 1.325 . S
O238 Li176 1.961 . S
O238 Li178 1.956 . S
O238 Li179 1.970 . S
O238 C208 1.325 . S
O239 Li177 1.961 . S
O239 Li178 1.970 . S
O239 Li179 1.956 . S
O239 C214 1.325 . S
H240 C182 0.929 . S
H241 C183 0.930 . S
H242 C184 0.930 . S
H243 C185 0.930 . S
H244 C187 0.930 . S
H245 C189 0.929 . S
H246 C190 0.930 . S
H247 C191 0.930 . S
H248 C194 0.930 . S
H249 C197 0.929 . S
H250 C202 0.965 . S
H251 C203 0.930 . S
H252 C210 0.929 . S
H253 C211 0.930 . S
H254 C212 0.930 . S
H255 C213 0.930 . S
H256 C215 0.929 . S
H257 C216 0.930 . S
H258 C217 0.930 . S
H259 C218 0.930 . S
H260 C222 0.929 . S
H261 C224 0.930 . S
H262 C230 0.929 . S
H263 C231 0.930 . S
Li264 N281 1.990 . S
Li264 O324 1.956 . S
Li264 O325 1.970 . S
Li264 O326 1.961 . S
Li265 N289 1.990 . S
Li265 O324 1.970 . S
Li265 O325 1.956 . S
Li265 O327 1.961 . S
Li266 N311 1.990 . S
Li266 O324 1.961 . S
Li266 O326 1.956 . S
Li266 O327 1.970 . S
Li267 N317 1.990 . S
Li267 O325 1.961 . S
Li267 O326 1.970 . S
Li267 O327 1.956 . S
C268 C270 1.348 . S
C268 C271 1.356 . S
C268 O324 1.325 . S
N269 C272 1.314 . S
N269 C273 1.279 . S
C270 C268 1.348 . S
C270 C272 1.353 . S
C270 H328 0.929 . S
C271 C268 1.356 . S
C271 C273 1.358 . S
C271 H329 0.930 . S
C272 N269 1.314 . S
C272 C270 1.353 . S
C272 H330 0.930 . S
C273 N269 1.279 . S
C273 C271 1.358 . S
C273 H331 0.930 . S
C274 C277 1.348 . S
C274 C278 1.356 . S
C274 O325 1.325 . S
C275 N276 1.279 . S
C275 C278 1.358 . S
C275 H332 0.930 . S
N276 C275 1.279 . S
N276 C279 1.314 . S
C277 C274 1.348 . S
C277 C279 1.353 . S
C277 H333 0.929 . S
C278 C274 1.356 . S
C278 C275 1.358 . S
C278 H334 0.930 . S
C279 N276 1.314 . S
C279 C277 1.353 . S
C279 H335 0.930 . S
C280 N281 1.314 . S
C280 C285 1.353 . S
C280 H286 0.930 . S
N281 Li264 1.990 . S
N281 C280 1.314 . S
N281 C283 1.279 . S
C282 C283 1.358 . S
C282 C284 1.356 . S
C282 H336 0.930 . S
C283 N281 1.279 . S
C283 C282 1.358 . S
C283 H287 0.930 . S
C284 C282 1.356 . S
C284 C285 1.348 . S
C285 C280 1.353 . S
C285 C284 1.348 . S
C285 H337 0.929 . S
H286 C280 0.930 . S
H287 C283 0.930 . S
C288 N289 1.314 . S
C288 C290 1.353 . S
C288 H294 0.930 . S
N289 Li265 1.990 . S
N289 C288 1.314 . S
N289 C292 1.279 . S
C290 C288 1.353 . S
C290 C293 1.348 . S
C290 H338 0.929 . S
C291 C292 1.358 . S
C291 C293 1.356 . S
C291 H339 0.930 . S
C292 N289 1.279 . S
C292 C291 1.358 . S
C292 H295 0.930 . S
C293 C290 1.348 . S
C293 C291 1.356 . S
H294 C288 0.930 . S
H295 C292 0.930 . S
C296 C298 1.348 . S
C296 C299 1.356 . S
C296 O326 1.325 . S
N297 C300 1.314 . S
N297 C301 1.279 . S
C298 C296 1.348 . S
C298 C300 1.353 . S
C298 H340 0.929 . S
C299 C296 1.356 . S
C299 C301 1.358 . S
C299 H341 0.930 . S
C300 N297 1.314 . S
C300 C298 1.353 . S
C300 H342 0.930 . S
C301 N297 1.279 . S
C301 C299 1.358 . S
C301 H343 0.930 . S
C302 C303 1.348 . S
C302 C304 1.356 . S
C302 O327 1.325 . S
C303 C302 1.348 . S
C303 C305 1.353 . S
C303 H344 0.929 . S
C304 C302 1.356 . S
C304 C306 1.358 . S
C304 H345 0.930 . S
C305 C303 1.353 . S
C305 N307 1.314 . S
C305 H346 0.930 . S
C306 C304 1.358 . S
C306 N307 1.279 . S
C306 H347 0.930 . S
N307 C305 1.314 . S
N307 C306 1.279 . S
C308 C310 1.353 . S
C308 N311 1.314 . S
C308 H314 0.930 . S
C309 N311 1.279 . S
C309 C312 1.358 . S
C309 H315 0.930 . S
C310 C308 1.353 . S
C310 C313 1.348 . S
C310 H348 0.929 . S
N311 Li266 1.990 . S
N311 C308 1.314 . S
N311 C309 1.279 . S
C312 C309 1.358 . S
C312 C313 1.356 . S
C312 H349 0.930 . S
C313 C310 1.348 . S
C313 C312 1.356 . S
H314 C308 0.930 . S
H315 C309 0.930 . S
C316 N317 1.314 . S
C316 C318 1.353 . S
C316 H322 0.930 . S
N317 Li267 1.990 . S
N317 C316 1.314 . S
N317 C320 1.279 . S
C318 C316 1.353 . S
C318 C321 1.348 . S
C318 H350 0.929 . S
C319 C320 1.358 . S
C319 C321 1.356 . S
C319 H351 0.930 . S
C320 N317 1.279 . S
C320 C319 1.358 . S
C320 H323 0.930 . S
C321 C318 1.348 . S
C321 C319 1.356 . S
H322 C316 0.930 . S
H323 C320 0.930 . S
O324 Li264 1.956 . S
O324 Li265 1.970 . S
O324 Li266 1.961 . S
O324 C268 1.325 . S
O325 Li264 1.970 . S
O325 Li265 1.956 . S
O325 Li267 1.961 . S
O325 C274 1.325 . S
O326 Li264 1.961 . S
O326 Li266 1.956 . S
O326 Li267 1.970 . S
O326 C296 1.325 . S
O327 Li265 1.961 . S
O327 Li266 1.970 . S
O327 Li267 1.956 . S
O327 C302 1.325 . S
H328 C270 0.929 . S
H329 C271 0.930 . S
H330 C272 0.930 . S
H331 C273 0.930 . S
H332 C275 0.930 . S
H333 C277 0.929 . S
H334 C278 0.930 . S
H335 C279 0.930 . S
H336 C282 0.930 . S
H337 C285 0.929 . S
H338 C290 0.929 . S
H339 C291 0.930 . S
H340 C298 0.929 . S
H341 C299 0.930 . S
H342 C300 0.930 . S
H343 C301 0.930 . S
H344 C303 0.929 . S
H345 C304 0.930 . S
H346 C305 0.930 . S
H347 C306 0.930 . S
H348 C310 0.929 . S
H349 C312 0.930 . S
H350 C318 0.929 . S
H351 C319 0.930 . S
Li352 N369 1.990 . S
Li352 O412 1.956 . S
Li352 O413 1.970 . S
Li352 O414 1.961 . S
Li353 N377 1.990 . S
Li353 O412 1.970 . S
Li353 O413 1.956 . S
Li353 O415 1.961 . S
Li354 N399 1.990 . S
Li354 O412 1.961 . S
Li354 O414 1.956 . S
Li354 O415 1.970 . S
Li355 N405 1.990 . S
Li355 O413 1.961 . S
Li355 O414 1.970 . S
Li355 O415 1.956 . S
C356 C358 1.348 . S
C356 C359 1.356 . S
C356 O412 1.325 . S
N357 C360 1.314 . S
N357 C361 1.279 . S
C358 C356 1.348 . S
C358 C360 1.353 . S
C358 H416 0.929 . S
C359 C356 1.356 . S
C359 C361 1.358 . S
C359 H417 0.930 . S
C360 N357 1.314 . S
C360 C358 1.353 . S
C360 H418 0.930 . S
C361 N357 1.279 . S
C361 C359 1.358 . S
C361 H419 0.930 . S
C362 C365 1.348 . S
C362 C366 1.356 . S
C362 O413 1.325 . S
C363 N364 1.279 . S
C363 C366 1.358 . S
C363 H420 0.930 . S
N364 C363 1.279 . S
N364 C367 1.314 . S
C365 C362 1.348 . S
C365 C367 1.353 . S
C365 H421 0.929 . S
C366 C362 1.356 . S
C366 C363 1.358 . S
C366 H422 0.930 . S
C367 N364 1.314 . S
C367 C365 1.353 . S
C367 H423 0.930 . S
C368 N369 1.314 . S
C368 C373 1.353 . S
C368 H374 0.930 . S
N369 Li352 1.990 . S
N369 C368 1.314 . S
N369 C371 1.279 . S
C370 C371 1.358 . S
C370 C372 1.356 . S
C370 H424 0.930 . S
C371 N369 1.279 . S
C371 C370 1.358 . S
C371 H375 0.930 . S
C372 C370 1.356 . S
C372 C373 1.348 . S
C373 C368 1.353 . S
C373 C372 1.348 . S
C373 H425 0.929 . S
H374 C368 0.930 . S
H375 C371 0.930 . S
C376 N377 1.314 . S
C376 C378 1.353 . S
C376 H382 0.930 . S
N377 Li353 1.990 . S
N377 C376 1.314 . S
N377 C380 1.279 . S
C378 C376 1.353 . S
C378 C381 1.348 . S
C378 H426 0.929 . S
C379 C380 1.358 . S
C379 C381 1.356 . S
C379 H427 0.930 . S
C380 N377 1.279 . S
C380 C379 1.358 . S
C380 H383 0.930 . S
C381 C378 1.348 . S
C381 C379 1.356 . S
H382 C376 0.930 . S
H383 C380 0.930 . S
C384 C386 1.348 . S
C384 C387 1.356 . S
C384 O414 1.325 . S
N385 C388 1.314 . S
N385 C389 1.279 . S
C386 C384 1.348 . S
C386 C388 1.353 . S
C386 H428 0.929 . S
C387 C384 1.356 . S
C387 C389 1.358 . S
C387 H429 0.930 . S
C388 N385 1.314 . S
C388 C386 1.353 . S
C388 H430 0.930 . S
C389 N385 1.279 . S
C389 C387 1.358 . S
C389 H431 0.930 . S
C390 C391 1.348 . S
C390 C392 1.356 . S
C390 O415 1.325 . S
C391 C390 1.348 . S
C391 C393 1.353 . S
C391 H432 0.929 . S
C392 C390 1.356 . S
C392 C394 1.358 . S
C392 H433 0.930 . S
C393 C391 1.353 . S
C393 N395 1.314 . S
C393 H434 0.930 . S
C394 C392 1.358 . S
C394 N395 1.279 . S
C394 H435 0.930 . S
N395 C393 1.314 . S
N395 C394 1.279 . S
C396 C398 1.353 . S
C396 N399 1.314 . S
C396 H402 0.930 . S
C397 N399 1.279 . S
C397 C400 1.358 . S
C397 H403 0.930 . S
C398 C396 1.353 . S
C398 C401 1.348 . S
C398 H436 0.929 . S
N399 Li354 1.990 . S
N399 C396 1.314 . S
N399 C397 1.279 . S
C400 C397 1.358 . S
C400 C401 1.356 . S
C400 H437 0.930 . S
C401 C398 1.348 . S
C401 C400 1.356 . S
H402 C396 0.930 . S
H403 C397 0.930 . S
C404 N405 1.314 . S
C404 C406 1.353 . S
C404 H410 0.930 . S
N405 Li355 1.990 . S
N405 C404 1.314 . S
N405 C408 1.279 . S
C406 C404 1.353 . S
C406 C409 1.348 . S
C406 H438 0.929 . S
C407 C408 1.358 . S
C407 C409 1.356 . S
C407 H439 0.930 . S
C408 N405 1.279 . S
C408 C407 1.358 . S
C408 H411 0.930 . S
C409 C406 1.348 . S
C409 C407 1.356 . S
H410 C404 0.930 . S
H411 C408 0.930 . S
O412 Li352 1.956 . S
O412 Li353 1.970 . S
O412 Li354 1.961 . S
O412 C356 1.325 . S
O413 Li352 1.970 . S
O413 Li353 1.956 . S
O413 Li355 1.961 . S
O413 C362 1.325 . S
O414 Li352 1.961 . S
O414 Li354 1.956 . S
O414 Li355 1.970 . S
O414 C384 1.325 . S
O415 Li353 1.961 . S
O415 Li354 1.970 . S
O415 Li355 1.956 . S
O415 C390 1.325 . S
H416 C358 0.929 . S
H417 C359 0.930 . S
H418 C360 0.930 . S
H419 C361 0.930 . S
H420 C363 0.930 . S
H421 C365 0.929 . S
H422 C366 0.930 . S
H423 C367 0.930 . S
H424 C370 0.930 . S
H425 C373 0.929 . S
H426 C378 0.929 . S
H427 C379 0.930 . S
H428 C386 0.929 . S
H429 C387 0.930 . S
H430 C388 0.930 . S
H431 C389 0.930 . S
H432 C391 0.929 . S
H433 C392 0.930 . S
H434 C393 0.930 . S
H435 C394 0.930 . S
H436 C398 0.929 . S
H437 C400 0.930 . S
H438 C406 0.929 . S
H439 C407 0.930 . S
Li440 N457 1.990 . S
Li440 O500 1.956 . S
Li440 O501 1.970 . S
Li440 O502 1.961 . S
Li441 N465 1.990 . S
Li441 O500 1.970 . S
Li441 O501 1.956 . S
Li441 O503 1.961 . S
Li442 N487 1.990 . S
Li442 O500 1.961 . S
Li442 O502 1.956 . S
Li442 O503 1.970 . S
Li443 N493 1.990 1_545 S
Li443 O501 1.961 . S
Li443 O502 1.970 . S
Li443 O503 1.956 . S
C444 C446 1.348 . S
C444 C447 1.356 . S
C444 O500 1.325 . S
N445 C448 1.314 . S
N445 C449 1.279 . S
C446 C444 1.348 . S
C446 C448 1.353 . S
C446 H504 0.929 . S
C447 C444 1.356 . S
C447 C449 1.358 . S
C447 H505 0.930 . S
C448 N445 1.314 . S
C448 C446 1.353 . S
C448 H506 0.930 . S
C449 N445 1.279 . S
C449 C447 1.358 . S
C449 H507 0.930 . S
C450 C453 1.348 . S
C450 C454 1.356 . S
C450 O501 1.325 . S
C451 N452 1.279 . S
C451 C454 1.358 . S
C451 H508 0.930 . S
N452 C451 1.279 . S
N452 C455 1.314 . S
C453 C450 1.348 . S
C453 C455 1.353 . S
C453 H509 0.929 . S
C454 C450 1.356 . S
C454 C451 1.358 . S
C454 H510 0.930 . S
C455 N452 1.314 . S
C455 C453 1.353 . S
C455 H511 0.930 . S
C456 N457 1.314 . S
C456 C461 1.353 . S
C456 H462 0.930 . S
N457 Li440 1.990 . S
N457 C456 1.314 . S
N457 C459 1.279 . S
C458 C459 1.358 . S
C458 C460 1.356 . S
C458 H512 0.930 . S
C459 N457 1.279 . S
C459 C458 1.358 . S
C459 H463 0.930 . S
C460 C458 1.356 . S
C460 C461 1.348 . S
C461 C456 1.353 . S
C461 C460 1.348 . S
C461 H513 0.929 . S
H462 C456 0.930 . S
H463 C459 0.930 . S
C464 N465 1.314 . S
C464 C466 1.353 . S
C464 H470 0.930 . S
N465 Li441 1.990 . S
N465 C464 1.314 . S
N465 C468 1.279 . S
C466 C464 1.353 . S
C466 C469 1.348 . S
C466 H514 0.929 . S
C467 C468 1.358 . S
C467 C469 1.356 . S
C467 H515 0.930 . S
C468 N465 1.279 . S
C468 C467 1.358 . S
C468 H471 0.930 . S
C469 C466 1.348 . S
C469 C467 1.356 . S
H470 C464 0.930 . S
H471 C468 0.930 . S
C472 C474 1.348 . S
C472 C475 1.356 . S
C472 O502 1.325 . S
N473 C476 1.314 . S
N473 C477 1.279 . S
C474 C472 1.348 . S
C474 C476 1.353 . S
C474 H516 0.929 . S
C475 C472 1.356 . S
C475 C477 1.358 . S
C475 H517 0.930 . S
C476 N473 1.314 . S
C476 C474 1.353 . S
C476 H518 0.930 . S
C477 N473 1.279 . S
C477 C475 1.358 . S
C477 H519 0.930 . S
C478 C479 1.348 1_545 S
C478 C480 1.356 1_545 S
C478 O503 1.325 . S
C479 C478 1.348 1_565 S
C479 C481 1.353 . S
C479 H520 0.929 . S
C480 C478 1.356 1_565 S
C480 C482 1.358 . S
C480 H521 0.930 1_565 S
C481 C479 1.353 . S
C481 N483 1.314 . S
C481 H522 0.930 . S
C482 C480 1.358 . S
C482 N483 1.279 . S
C482 H523 0.930 . S
N483 C481 1.314 . S
N483 C482 1.279 . S
C484 C486 1.353 . S
C484 N487 1.314 . S
C484 H490 0.930 . S
C485 N487 1.279 . S
C485 C488 1.358 . S
C485 H491 0.930 . S
C486 C484 1.353 . S
C486 C489 1.348 . S
C486 H524 0.929 . S
N487 Li442 1.990 . S
N487 C484 1.314 . S
N487 C485 1.279 . S
C488 C485 1.358 . S
C488 C489 1.356 . S
C488 H525 0.930 . S
C489 C486 1.348 . S
C489 C488 1.356 . S
H490 C484 0.930 . S
H491 C485 0.930 . S
C492 N493 1.314 . S
C492 C494 1.353 . S
C492 H498 0.930 1_565 S
N493 Li443 1.990 1_565 S
N493 C492 1.314 . S
N493 C496 1.279 . S
C494 C492 1.353 . S
C494 C497 1.348 . S
C494 H526 0.929 . S
C495 C496 1.358 . S
C495 C497 1.356 . S
C495 H527 0.930 . S
C496 N493 1.279 . S
C496 C495 1.358 . S
C496 H499 0.930 . S
C497 C494 1.348 . S
C497 C495 1.356 . S
H498 C492 0.930 1_545 S
H499 C496 0.930 . S
O500 Li440 1.956 . S
O500 Li441 1.970 . S
O500 Li442 1.961 . S
O500 C444 1.325 . S
O501 Li440 1.970 . S
O501 Li441 1.956 . S
O501 Li443 1.961 . S
O501 C450 1.325 . S
O502 Li440 1.961 . S
O502 Li442 1.956 . S
O502 Li443 1.970 . S
O502 C472 1.325 . S
O503 Li441 1.961 . S
O503 Li442 1.970 . S
O503 Li443 1.956 . S
O503 C478 1.325 . S
H504 C446 0.929 . S
H505 C447 0.930 . S
H506 C448 0.930 . S
H507 C449 0.930 . S
H508 C451 0.930 . S
H509 C453 0.929 . S
H510 C454 0.930 . S
H511 C455 0.930 . S
H512 C458 0.930 . S
H513 C461 0.929 . S
H514 C466 0.929 . S
H515 C467 0.930 . S
H516 C474 0.929 . S
H517 C475 0.930 . S
H518 C476 0.930 . S
H519 C477 0.930 . S
H520 C479 0.929 . S
H521 C480 0.930 1_545 S
H522 C481 0.930 . S
H523 C482 0.930 . S
H524 C486 0.929 . S
H525 C488 0.930 . S
H526 C494 0.929 . S
H527 C495 0.930 . S
Li528 N545 1.990 . S
Li528 O588 1.956 . S
Li528 O589 1.970 . S
Li528 O590 1.961 . S
Li529 N553 1.990 . S
Li529 O588 1.970 . S
Li529 O589 1.956 . S
Li529 O591 1.961 . S
Li530 N575 1.990 . S
Li530 O588 1.961 . S
Li530 O590 1.956 . S
Li530 O591 1.970 . S
Li531 N581 1.990 . S
Li531 O589 1.961 . S
Li531 O590 1.970 . S
Li531 O591 1.956 . S
C532 C534 1.348 . S
C532 C535 1.356 . S
C532 O588 1.325 . S
N533 C536 1.314 . S
N533 C537 1.279 . S
C534 C532 1.348 . S
C534 C536 1.353 . S
C534 H592 0.929 . S
C535 C532 1.356 . S
C535 C537 1.358 . S
C535 H593 0.930 . S
C536 N533 1.314 . S
C536 C534 1.353 . S
C536 H594 0.930 . S
C537 N533 1.279 . S
C537 C535 1.358 . S
C537 H595 0.930 . S
C538 C541 1.348 . S
C538 C542 1.356 . S
C538 O589 1.325 . S
C539 N540 1.279 . S
C539 C542 1.358 . S
C539 H596 0.930 . S
N540 C539 1.279 . S
N540 C543 1.314 . S
C541 C538 1.348 . S
C541 C543 1.353 . S
C541 H597 0.929 . S
C542 C538 1.356 . S
C542 C539 1.358 . S
C542 H598 0.930 . S
C543 N540 1.314 . S
C543 C541 1.353 . S
C543 H599 0.930 . S
C544 N545 1.314 . S
C544 C549 1.353 . S
C544 H550 0.930 . S
N545 Li528 1.990 . S
N545 C544 1.314 . S
N545 C547 1.279 . S
C546 C547 1.358 . S
C546 C548 1.356 . S
C546 H600 0.930 . S
C547 N545 1.279 . S
C547 C546 1.358 . S
C547 H551 0.930 . S
C548 C546 1.356 . S
C548 C549 1.348 . S
C549 C544 1.353 . S
C549 C548 1.348 . S
C549 H601 0.929 . S
H550 C544 0.930 . S
H551 C547 0.930 . S
C552 N553 1.314 . S
C552 C554 1.353 . S
C552 H558 0.930 . S
N553 Li529 1.990 . S
N553 C552 1.314 . S
N553 C556 1.279 . S
C554 C552 1.353 . S
C554 C557 1.348 . S
C554 H602 0.929 . S
C555 C556 1.358 . S
C555 C557 1.356 . S
C555 H603 0.930 . S
C556 N553 1.279 . S
C556 C555 1.358 . S
C556 H559 0.930 . S
C557 C554 1.348 . S
C557 C555 1.356 . S
H558 C552 0.930 . S
H559 C556 0.930 . S
C560 C562 1.348 . S
C560 C563 1.356 . S
C560 O590 1.325 . S
N561 C564 1.314 . S
N561 C565 1.279 . S
C562 C560 1.348 . S
C562 C564 1.353 . S
C562 H604 0.929 . S
C563 C560 1.356 . S
C563 C565 1.358 . S
C563 H605 0.930 . S
C564 N561 1.314 . S
C564 C562 1.353 . S
C564 H606 0.930 . S
C565 N561 1.279 . S
C565 C563 1.358 . S
C565 H607 0.930 . S
C566 C567 1.348 . S
C566 C568 1.356 . S
C566 O591 1.325 . S
C567 C566 1.348 . S
C567 C569 1.353 . S
C567 H608 0.929 . S
C568 C566 1.356 . S
C568 C570 1.358 . S
C568 H609 0.930 . S
C569 C567 1.353 . S
C569 N571 1.314 . S
C569 H610 0.930 . S
C570 C568 1.358 . S
C570 N571 1.279 . S
C570 H611 0.930 . S
N571 C569 1.314 . S
N571 C570 1.279 . S
C572 C574 1.353 . S
C572 N575 1.314 . S
C572 H578 0.930 . S
C573 N575 1.279 . S
C573 C576 1.358 . S
C573 H579 0.930 . S
C574 C572 1.353 . S
C574 C577 1.348 . S
C574 H612 0.929 . S
N575 Li530 1.990 . S
N575 C572 1.314 . S
N575 C573 1.279 . S
C576 C573 1.358 . S
C576 C577 1.356 . S
C576 H613 0.930 . S
C577 C574 1.348 . S
C577 C576 1.356 . S
H578 C572 0.930 . S
H579 C573 0.930 . S
C580 N581 1.314 . S
C580 C582 1.353 . S
C580 H586 0.930 . S
N581 Li531 1.990 . S
N581 C580 1.314 . S
N581 C584 1.279 . S
C582 C580 1.353 . S
C582 C585 1.348 . S
C582 H614 0.929 . S
C583 C584 1.358 . S
C583 C585 1.356 . S
C583 H615 0.930 . S
C584 N581 1.279 . S
C584 C583 1.358 . S
C584 H587 0.930 . S
C585 C582 1.348 . S
C585 C583 1.356 . S
H586 C580 0.930 . S
H587 C584 0.930 . S
O588 Li528 1.956 . S
O588 Li529 1.970 . S
O588 Li530 1.961 . S
O588 C532 1.325 . S
O589 Li528 1.970 . S
O589 Li529 1.956 . S
O589 Li531 1.961 . S
O589 C538 1.325 . S
O590 Li528 1.961 . S
O590 Li530 1.956 . S
O590 Li531 1.970 . S
O590 C560 1.325 . S
O591 Li529 1.961 . S
O591 Li530 1.970 . S
O591 Li531 1.956 . S
O591 C566 1.325 . S
H592 C534 0.929 . S
H593 C535 0.930 . S
H594 C536 0.930 . S
H595 C537 0.930 . S
H596 C539 0.930 . S
H597 C541 0.929 . S
H598 C542 0.930 . S
H599 C543 0.930 . S
H600 C546 0.930 . S
H601 C549 0.929 . S
H602 C554 0.929 . S
H603 C555 0.930 . S
H604 C562 0.929 . S
H605 C563 0.930 . S
H606 C564 0.930 . S
H607 C565 0.930 . S
H608 C567 0.929 . S
H609 C568 0.930 . S
H610 C569 0.930 . S
H611 C570 0.930 . S
H612 C574 0.929 . S
H613 C576 0.930 . S
H614 C582 0.929 . S
H615 C583 0.930 . S
Li616 N633 1.990 1_565 S
Li616 O676 1.956 . S
Li616 O677 1.970 . S
Li616 O678 1.961 . S
Li617 N641 1.990 . S
Li617 O676 1.970 . S
Li617 O677 1.956 . S
Li617 O679 1.961 . S
Li618 N663 1.990 . S
Li618 O676 1.961 . S
Li618 O678 1.956 . S
Li618 O679 1.970 . S
Li619 N669 1.990 . S
Li619 O677 1.961 . S
Li619 O678 1.970 . S
Li619 O679 1.956 . S
C620 C622 1.348 1_565 S
C620 C623 1.356 1_565 S
C620 O676 1.325 . S
N621 C624 1.314 . S
N621 C625 1.279 . S
C622 C620 1.348 1_545 S
C622 C624 1.353 . S
C622 H680 0.929 . S
C623 C620 1.356 1_545 S
C623 C625 1.358 . S
C623 H681 0.930 1_545 S
C624 N621 1.314 . S
C624 C622 1.353 . S
C624 H682 0.930 . S
C625 N621 1.279 . S
C625 C623 1.358 . S
C625 H683 0.930 . S
C626 C629 1.348 . S
C626 C630 1.356 . S
C626 O677 1.325 . S
C627 N628 1.279 . S
C627 C630 1.358 . S
C627 H684 0.930 . S
N628 C627 1.279 . S
N628 C631 1.314 . S
C629 C626 1.348 . S
C629 C631 1.353 . S
C629 H685 0.929 . S
C630 C626 1.356 . S
C630 C627 1.358 . S
C630 H686 0.930 . S
C631 N628 1.314 . S
C631 C629 1.353 . S
C631 H687 0.930 . S
C632 N633 1.314 . S
C632 C637 1.353 . S
C632 H638 0.930 1_545 S
N633 Li616 1.990 1_545 S
N633 C632 1.314 . S
N633 C635 1.279 . S
C634 C635 1.358 . S
C634 C636 1.356 . S
C634 H688 0.930 . S
C635 N633 1.279 . S
C635 C634 1.358 . S
C635 H639 0.930 . S
C636 C634 1.356 . S
C636 C637 1.348 . S
C637 C632 1.353 . S
C637 C636 1.348 . S
C637 H689 0.929 . S
H638 C632 0.930 1_565 S
H639 C635 0.930 . S
C640 N641 1.314 . S
C640 C642 1.353 . S
C640 H646 0.930 . S
N641 Li617 1.990 . S
N641 C640 1.314 . S
N641 C644 1.279 . S
C642 C640 1.353 . S
C642 C645 1.348 . S
C642 H690 0.929 . S
C643 C644 1.358 . S
C643 C645 1.356 . S
C643 H691 0.930 . S
C644 N641 1.279 . S
C644 C643 1.358 . S
C644 H647 0.930 . S
C645 C642 1.348 . S
C645 C643 1.356 . S
H646 C640 0.930 . S
H647 C644 0.930 . S
C648 C650 1.348 . S
C648 C651 1.356 . S
C648 O678 1.325 . S
N649 C652 1.314 . S
N649 C653 1.279 . S
C650 C648 1.348 . S
C650 C652 1.353 . S
C650 H692 0.929 . S
C651 C648 1.356 . S
C651 C653 1.358 . S
C651 H693 0.930 . S
C652 N649 1.314 . S
C652 C650 1.353 . S
C652 H694 0.930 . S
C653 N649 1.279 . S
C653 C651 1.358 . S
C653 H695 0.930 . S
C654 C655 1.348 . S
C654 C656 1.356 . S
C654 O679 1.325 . S
C655 C654 1.348 . S
C655 C657 1.353 . S
C655 H696 0.929 . S
C656 C654 1.356 . S
C656 C658 1.358 . S
C656 H697 0.930 . S
C657 C655 1.353 . S
C657 N659 1.314 . S
C657 H698 0.930 . S
C658 C656 1.358 . S
C658 N659 1.279 . S
C658 H699 0.930 . S
N659 C657 1.314 . S
N659 C658 1.279 . S
C660 C662 1.353 . S
C660 N663 1.314 . S
C660 H666 0.930 . S
C661 N663 1.279 . S
C661 C664 1.358 . S
C661 H667 0.930 . S
C662 C660 1.353 . S
C662 C665 1.348 . S
C662 H700 0.929 . S
N663 Li618 1.990 . S
N663 C660 1.314 . S
N663 C661 1.279 . S
C664 C661 1.358 . S
C664 C665 1.356 . S
C664 H701 0.930 . S
C665 C662 1.348 . S
C665 C664 1.356 . S
H666 C660 0.930 . S
H667 C661 0.930 . S
C668 N669 1.314 . S
C668 C670 1.353 . S
C668 H674 0.930 . S
N669 Li619 1.990 . S
N669 C668 1.314 . S
N669 C672 1.279 . S
C670 C668 1.353 . S
C670 C673 1.348 . S
C670 H702 0.929 . S
C671 C672 1.358 . S
C671 C673 1.356 . S
C671 H703 0.930 . S
C672 N669 1.279 . S
C672 C671 1.358 . S
C672 H675 0.930 . S
C673 C670 1.348 . S
C673 C671 1.356 . S
H674 C668 0.930 . S
H675 C672 0.930 . S
O676 Li616 1.956 . S
O676 Li617 1.970 . S
O676 Li618 1.961 . S
O676 C620 1.325 . S
O677 Li616 1.970 . S
O677 Li617 1.956 . S
O677 Li619 1.961 . S
O677 C626 1.325 . S
O678 Li616 1.961 . S
O678 Li618 1.956 . S
O678 Li619 1.970 . S
O678 C648 1.325 . S
O679 Li617 1.961 . S
O679 Li618 1.970 . S
O679 Li619 1.956 . S
O679 C654 1.325 . S
H680 C622 0.929 . S
H681 C623 0.930 1_565 S
H682 C624 0.930 . S
H683 C625 0.930 . S
H684 C627 0.930 . S
H685 C629 0.929 . S
H686 C630 0.930 . S
H687 C631 0.930 . S
H688 C634 0.930 . S
H689 C637 0.929 . S
H690 C642 0.929 . S
H691 C643 0.930 . S
H692 C650 0.929 . S
H693 C651 0.930 . S
H694 C652 0.930 . S
H695 C653 0.930 . S
H696 C655 0.929 . S
H697 C656 0.930 . S
H698 C657 0.930 . S
H699 C658 0.930 . S
H700 C662 0.929 . S
H701 C664 0.930 . S
H702 C670 0.929 . S
H703 C671 0.930 . S
H704 C722 0.951 . S
H705 C724 0.951 . S
H706 C726 0.950 . S
H707 C727 0.950 . S
H708 C729 0.950 . S
H709 C732 0.950 . S
H710 C733 0.950 . S
H711 C735 0.950 . S
H712 C736 0.950 . S
H713 C737 0.951 . S
H714 C739 0.951 . S
H715 C741 0.950 . S
H716 C742 0.950 . S
H717 C744 0.950 . S
H718 C747 0.950 . S
H719 C748 0.950 . S
H720 C750 0.950 . S
H721 C751 0.950 . S
C722 H704 0.951 . S
C722 C723 1.366 . S
C722 C724 1.388 . S
C723 C722 1.366 . S
C723 C727 1.385 . S
C724 H705 0.951 . S
C724 C722 1.388 . S
C724 C725 1.366 . S
C725 C724 1.366 . S
C725 C726 1.414 . S
C725 C728 1.499 . S
C726 H706 0.950 . S
C726 C725 1.414 . S
C726 C727 1.374 . S
C727 H707 0.950 . S
C727 C723 1.385 . S
C727 C726 1.374 . S
C728 C725 1.499 . S
C728 C729 1.373 . S
C728 C730 1.389 . S
C729 H708 0.950 . S
C729 C728 1.373 . S
C729 C745 1.345 1_554 S
C730 C728 1.389 . S
C730 C731 1.524 . S
C730 C744 1.377 1_554 S
C731 C730 1.524 . S
C731 C732 1.397 . S
C731 C736 1.363 1_554 S
C732 H709 0.950 . S
C732 C731 1.397 . S
C732 C733 1.334 . S
C733 H710 0.950 . S
C733 C732 1.334 . S
C733 C734 1.289 . S
C734 C733 1.289 . S
C734 C735 1.522 1_554 S
C734 H753 0.913 . S
C735 H711 0.950 . S
C735 C734 1.522 1_556 S
C735 C736 1.415 . S
C736 H712 0.950 . S
C736 C731 1.363 1_556 S
C736 C735 1.415 . S
C737 H713 0.951 . S
C737 C738 1.366 . S
C737 C739 1.388 . S
C738 C737 1.366 . S
C738 C742 1.385 . S
C739 H714 0.951 . S
C739 C737 1.388 . S
C739 C740 1.366 . S
C740 C739 1.366 . S
C740 C741 1.414 . S
C740 C743 1.499 . S
C741 H715 0.950 . S
C741 C740 1.414 . S
C741 C742 1.374 . S
C742 H716 0.950 . S
C742 C738 1.385 . S
C742 C741 1.374 . S
C743 C740 1.499 . S
C743 C744 1.373 . S
C743 C745 1.419 . S
C744 H717 0.950 . S
C744 C730 1.377 1_556 S
C744 C743 1.373 . S
C745 C729 1.345 1_556 S
C745 C743 1.419 . S
C745 C746 1.524 . S
C746 C745 1.524 . S
C746 C747 1.402 . S
C746 C751 1.356 1_556 S
C747 H718 0.950 . S
C747 C746 1.402 . S
C747 C748 1.334 . S
C748 H719 0.950 . S
C748 C747 1.334 . S
C748 C749 1.287 1_556 S
C749 C748 1.287 1_554 S
C749 C750 1.524 . S
C749 H752 0.999 1_545 S
C750 H720 0.950 . S
C750 C749 1.524 . S
C750 C751 1.415 . S
C751 H721 0.950 . S
C751 C746 1.356 1_554 S
C751 C750 1.415 . S
H752 C749 0.999 1_565 S
H753 C734 0.913 . S
H754 C772 0.951 . S
H755 C774 0.951 . S
H756 C776 0.950 . S
H757 C777 0.950 . S
H758 C779 0.950 . S
H759 C782 0.950 . S
H760 C783 0.950 . S
H761 C785 0.950 . S
H762 C786 0.950 . S
H763 C787 0.951 . S
H764 C789 0.951 . S
H765 C791 0.950 . S
H766 C792 0.950 . S
H767 C794 0.950 . S
H768 C797 0.950 . S
H769 C798 0.950 . S
H770 C800 0.950 . S
H771 C801 0.950 . S
C772 H754 0.951 . S
C772 C773 1.366 . S
C772 C774 1.388 . S
C773 C772 1.366 . S
C773 C777 1.385 . S
C774 H755 0.951 . S
C774 C772 1.388 . S
C774 C775 1.366 . S
C775 C774 1.366 . S
C775 C776 1.414 . S
C775 C778 1.499 . S
C776 H756 0.950 . S
C776 C775 1.414 . S
C776 C777 1.374 . S
C777 H757 0.950 . S
C777 C773 1.385 . S
C777 C776 1.374 . S
C778 C775 1.499 . S
C778 C779 1.373 . S
C778 C780 1.389 . S
C779 H758 0.950 . S
C779 C778 1.373 . S
C779 C795 1.377 . S
C780 C778 1.389 . S
C780 C781 1.524 . S
C780 C794 1.377 . S
C781 C780 1.524 . S
C781 C782 1.397 . S
C781 C786 1.363 . S
C782 H759 0.950 . S
C782 C781 1.397 . S
C782 C783 1.334 . S
C783 H760 0.950 . S
C783 C782 1.334 . S
C783 C784 1.287 . S
C784 C783 1.287 . S
C784 C785 1.524 . S
C784 H803 0.913 . S
C785 H761 0.950 . S
C785 C784 1.524 . S
C785 C786 1.415 . S
C786 H762 0.950 . S
C786 C781 1.363 . S
C786 C785 1.415 . S
C787 H763 0.951 . S
C787 C788 1.366 . S
C787 C789 1.388 . S
C788 C787 1.366 . S
C788 C792 1.385 . S
C789 H764 0.951 . S
C789 C787 1.388 . S
C789 C790 1.366 . S
C790 C789 1.366 . S
C790 C791 1.414 . S
C790 C793 1.499 . S
C791 H765 0.950 . S
C791 C790 1.414 . S
C791 C792 1.374 . S
C792 H766 0.950 . S
C792 C788 1.385 . S
C792 C791 1.374 . S
C793 C790 1.499 . S
C793 C794 1.373 . S
C793 C795 1.389 . S
C794 H767 0.950 . S
C794 C780 1.377 . S
C794 C793 1.373 . S
C795 C779 1.377 . S
C795 C793 1.389 . S
C795 C796 1.524 . S
C796 C795 1.524 . S
C796 C797 1.397 . S
C796 C801 1.363 . S
C797 H768 0.950 . S
C797 C796 1.397 . S
C797 C798 1.334 . S
C798 H769 0.950 . S
C798 C797 1.334 . S
C798 C799 1.287 . S
C799 C798 1.287 . S
C799 C800 1.524 . S
C799 H802 0.999 . S
C800 H770 0.950 . S
C800 C799 1.524 . S
C800 C801 1.415 . S
C801 H771 0.950 . S
C801 C796 1.363 . S
C801 C800 1.415 . S
H802 C799 0.999 . S
H803 C784 0.913 . S
H804 C822 0.951 . S
H805 C824 0.951 . S
H806 C826 0.950 . S
H807 C827 0.950 . S
H808 C829 0.950 . S
H809 C832 0.950 . S
H810 C833 0.950 . S
H811 C835 0.950 . S
H812 C836 0.950 . S
H813 C837 0.951 . S
H814 C839 0.951 . S
H815 C841 0.950 . S
H816 C842 0.950 . S
H817 C844 0.950 . S
H818 C847 0.950 . S
H819 C848 0.950 . S
H820 C850 0.950 . S
H821 C851 0.950 . S
C822 H804 0.951 . S
C822 C823 1.366 . S
C822 C824 1.388 . S
C823 C822 1.366 . S
C823 C827 1.385 . S
C824 H805 0.951 . S
C824 C822 1.388 . S
C824 C825 1.366 . S
C825 C824 1.366 . S
C825 C826 1.414 . S
C825 C828 1.499 . S
C826 H806 0.950 . S
C826 C825 1.414 . S
C826 C827 1.374 . S
C827 H807 0.950 . S
C827 C823 1.385 . S
C827 C826 1.374 . S
C828 C825 1.499 . S
C828 C829 1.373 . S
C828 C830 1.389 . S
C829 H808 0.950 . S
C829 C828 1.373 . S
C829 C845 1.377 1_554 S
C830 C828 1.389 . S
C830 C831 1.524 . S
C830 C844 1.377 1_554 S
C831 C830 1.524 . S
C831 C832 1.397 . S
C831 C836 1.363 . S
C832 H809 0.950 . S
C832 C831 1.397 . S
C832 C833 1.334 . S
C833 H810 0.950 . S
C833 C832 1.334 . S
C833 C834 1.287 . S
C834 C833 1.287 . S
C834 C835 1.524 . S
C834 H853 0.913 . S
C835 H811 0.950 . S
C835 C834 1.524 . S
C835 C836 1.415 . S
C836 H812 0.950 . S
C836 C831 1.363 . S
C836 C835 1.415 . S
C837 H813 0.951 . S
C837 C838 1.366 . S
C837 C839 1.388 . S
C838 C837 1.366 . S
C838 C842 1.385 . S
C839 H814 0.951 . S
C839 C837 1.388 . S
C839 C840 1.366 . S
C840 C839 1.366 . S
C840 C841 1.414 . S
C840 C843 1.499 . S
C841 H815 0.950 . S
C841 C840 1.414 . S
C841 C842 1.374 . S
C842 H816 0.950 . S
C842 C838 1.385 . S
C842 C841 1.374 . S
C843 C840 1.499 . S
C843 C844 1.373 . S
C843 C845 1.389 . S
C844 H817 0.950 . S
C844 C830 1.377 1_556 S
C844 C843 1.373 . S
C845 C829 1.377 1_556 S
C845 C843 1.389 . S
C845 C846 1.524 . S
C846 C845 1.524 . S
C846 C847 1.397 . S
C846 C851 1.363 . S
C847 H818 0.950 . S
C847 C846 1.397 . S
C847 C848 1.334 . S
C848 H819 0.950 . S
C848 C847 1.334 . S
C848 C849 1.287 . S
C849 C848 1.287 . S
C849 C850 1.524 . S
C849 H852 0.999 . S
C850 H820 0.950 . S
C850 C849 1.524 . S
C850 C851 1.415 . S
C851 H821 0.950 . S
C851 C846 1.363 . S
C851 C850 1.415 . S
H852 C849 0.999 . S
H853 C834 0.913 . S
H854 C872 0.951 . S
H855 C874 0.951 . S
H856 C876 0.950 . S
H857 C877 0.950 . S
H858 C879 0.950 . S
H859 C882 0.950 . S
H860 C883 0.950 . S
H861 C885 0.950 . S
H862 C886 0.950 . S
H863 C887 0.951 . S
H864 C889 0.951 . S
H865 C891 0.950 . S
H866 C892 0.950 . S
H867 C894 0.950 . S
H868 C897 0.950 . S
H869 C898 0.950 . S
H870 C900 0.950 . S
H871 C901 0.950 . S
C872 H854 0.951 . S
C872 C873 1.366 . S
C872 C874 1.388 . S
C873 C872 1.366 . S
C873 C877 1.385 . S
C874 H855 0.951 . S
C874 C872 1.388 . S
C874 C875 1.366 . S
C875 C874 1.366 . S
C875 C876 1.414 . S
C875 C878 1.499 . S
C876 H856 0.950 . S
C876 C875 1.414 . S
C876 C877 1.374 . S
C877 H857 0.950 . S
C877 C873 1.385 . S
C877 C876 1.374 . S
C878 C875 1.499 . S
C878 C879 1.373 . S
C878 C880 1.389 . S
C879 H858 0.950 . S
C879 C878 1.373 . S
C879 C895 1.377 . S
C880 C878 1.389 . S
C880 C881 1.524 . S
C880 C894 1.377 . S
C881 C880 1.524 . S
C881 C882 1.397 . S
C881 C886 1.363 . S
C882 H859 0.950 . S
C882 C881 1.397 . S
C882 C883 1.334 . S
C883 H860 0.950 . S
C883 C882 1.334 . S
C883 C884 1.287 . S
C884 C883 1.287 . S
C884 C885 1.524 . S
C884 H903 0.913 . S
C885 H861 0.950 . S
C885 C884 1.524 . S
C885 C886 1.415 . S
C886 H862 0.950 . S
C886 C881 1.363 . S
C886 C885 1.415 . S
C887 H863 0.951 . S
C887 C888 1.366 . S
C887 C889 1.388 . S
C888 C887 1.366 . S
C888 C892 1.385 . S
C889 H864 0.951 . S
C889 C887 1.388 . S
C889 C890 1.366 . S
C890 C889 1.366 . S
C890 C891 1.414 . S
C890 C893 1.499 . S
C891 H865 0.950 . S
C891 C890 1.414 . S
C891 C892 1.374 . S
C892 H866 0.950 . S
C892 C888 1.385 . S
C892 C891 1.374 . S
C893 C890 1.499 . S
C893 C894 1.373 . S
C893 C895 1.389 . S
C894 H867 0.950 . S
C894 C880 1.377 . S
C894 C893 1.373 . S
C895 C879 1.377 . S
C895 C893 1.389 . S
C895 C896 1.524 . S
C896 C895 1.524 . S
C896 C897 1.397 . S
C896 C901 1.363 . S
C897 H868 0.950 . S
C897 C896 1.397 . S
C897 C898 1.334 . S
C898 H869 0.950 . S
C898 C897 1.334 . S
C898 C899 1.287 . S
C899 C898 1.287 . S
C899 C900 1.524 . S
C899 H902 0.999 . S
C900 H870 0.950 . S
C900 C899 1.524 . S
C900 C901 1.415 . S
C901 H871 0.950 . S
C901 C896 1.363 . S
C901 C900 1.415 . S
H902 C899 0.999 . S
H903 C884 0.913 . S
H904 C922 0.951 . S
H905 C924 0.951 . S
H906 C926 0.950 . S
H907 C927 0.950 . S
H908 C929 0.950 . S
H909 C932 0.950 . S
H910 C933 0.950 . S
H911 C935 0.950 . S
H912 C936 0.950 . S
H913 C937 0.951 . S
H914 C939 0.951 . S
H915 C941 0.950 . S
H916 C942 0.950 . S
H917 C944 0.950 . S
H918 C947 0.950 . S
H919 C948 0.950 . S
H920 C950 0.950 . S
H921 C951 0.950 . S
C922 H904 0.951 . S
C922 C923 1.366 . S
C922 C924 1.388 . S
C923 C922 1.366 . S
C923 C927 1.385 . S
C924 H905 0.951 . S
C924 C922 1.388 . S
C924 C925 1.366 . S
C925 C924 1.366 . S
C925 C926 1.414 . S
C925 C928 1.499 . S
C926 H906 0.950 . S
C926 C925 1.414 . S
C926 C927 1.374 . S
C927 H907 0.950 . S
C927 C923 1.385 . S
C927 C926 1.374 . S
C928 C925 1.499 . S
C928 C929 1.373 . S
C928 C930 1.389 . S
C929 H908 0.950 . S
C929 C928 1.373 . S
C929 C945 1.377 . S
C930 C928 1.389 . S
C930 C931 1.524 . S
C930 C944 1.377 . S
C931 C930 1.524 . S
C931 C932 1.397 . S
C931 C936 1.363 . S
C932 H909 0.950 . S
C932 C931 1.397 . S
C932 C933 1.334 . S
C933 H910 0.950 . S
C933 C932 1.334 . S
C933 C934 1.287 . S
C934 C933 1.287 . S
C934 C935 1.524 . S
C934 H953 0.913 . S
C935 H911 0.950 . S
C935 C934 1.524 . S
C935 C936 1.415 . S
C936 H912 0.950 . S
C936 C931 1.363 . S
C936 C935 1.415 . S
C937 H913 0.951 . S
C937 C938 1.366 . S
C937 C939 1.388 . S
C938 C937 1.366 . S
C938 C942 1.385 . S
C939 H914 0.951 . S
C939 C937 1.388 . S
C939 C940 1.366 . S
C940 C939 1.366 . S
C940 C941 1.414 . S
C940 C943 1.499 . S
C941 H915 0.950 . S
C941 C940 1.414 . S
C941 C942 1.374 . S
C942 H916 0.950 . S
C942 C938 1.385 . S
C942 C941 1.374 . S
C943 C940 1.499 . S
C943 C944 1.373 . S
C943 C945 1.389 . S
C944 H917 0.950 . S
C944 C930 1.377 . S
C944 C943 1.373 . S
C945 C929 1.377 . S
C945 C943 1.389 . S
C945 C946 1.524 . S
C946 C945 1.524 . S
C946 C947 1.397 . S
C946 C951 1.363 . S
C947 H918 0.950 . S
C947 C946 1.397 . S
C947 C948 1.334 . S
C948 H919 0.950 . S
C948 C947 1.334 . S
C948 C949 1.287 . S
C949 C948 1.287 . S
C949 C950 1.524 . S
C949 H952 0.999 . S
C950 H920 0.950 . S
C950 C949 1.524 . S
C950 C951 1.415 . S
C951 H921 0.950 . S
C951 C946 1.363 . S
C951 C950 1.415 . S
H952 C949 0.999 . S
H953 C934 0.913 . S
H954 C972 0.951 . S
H955 C974 0.951 . S
H956 C976 0.950 . S
H957 C977 0.950 . S
H958 C979 0.950 . S
H959 C982 0.950 . S
H960 C983 0.950 . S
H961 C985 0.950 . S
H962 C986 0.950 . S
H963 C987 0.951 . S
H964 C989 0.951 . S
H965 C991 0.950 . S
H966 C992 0.950 . S
H967 C994 0.950 . S
H968 C997 0.950 . S
H969 C998 0.950 . S
H970 C1000 0.950 . S
H971 C1001 0.950 . S
C972 H954 0.951 . S
C972 C973 1.366 . S
C972 C974 1.388 . S
C973 C972 1.366 . S
C973 C977 1.385 . S
C974 H955 0.951 . S
C974 C972 1.388 . S
C974 C975 1.366 . S
C975 C974 1.366 . S
C975 C976 1.414 . S
C975 C978 1.499 . S
C976 H956 0.950 . S
C976 C975 1.414 . S
C976 C977 1.374 . S
C977 H957 0.950 . S
C977 C973 1.385 . S
C977 C976 1.374 . S
C978 C975 1.499 . S
C978 C979 1.373 . S
C978 C980 1.389 . S
C979 H958 0.950 . S
C979 C978 1.373 . S
C979 C995 1.377 . S
C980 C978 1.389 . S
C980 C981 1.524 . S
C980 C994 1.377 . S
C981 C980 1.524 . S
C981 C982 1.397 . S
C981 C986 1.363 . S
C982 H959 0.950 . S
C982 C981 1.397 . S
C982 C983 1.334 . S
C983 H960 0.950 . S
C983 C982 1.334 . S
C983 C984 1.287 . S
C984 C983 1.287 . S
C984 C985 1.524 . S
C984 H1003 0.913 . S
C985 H961 0.950 . S
C985 C984 1.524 . S
C985 C986 1.415 . S
C986 H962 0.950 . S
C986 C981 1.363 . S
C986 C985 1.415 . S
C987 H963 0.951 . S
C987 C988 1.366 . S
C987 C989 1.388 . S
C988 C987 1.366 . S
C988 C992 1.385 . S
C989 H964 0.951 . S
C989 C987 1.388 . S
C989 C990 1.366 . S
C990 C989 1.366 . S
C990 C991 1.414 . S
C990 C993 1.499 . S
C991 H965 0.950 . S
C991 C990 1.414 . S
C991 C992 1.374 . S
C992 H966 0.950 . S
C992 C988 1.385 . S
C992 C991 1.374 . S
C993 C990 1.499 . S
C993 C994 1.373 . S
C993 C995 1.389 . S
C994 H967 0.950 . S
C994 C980 1.377 . S
C994 C993 1.373 . S
C995 C979 1.377 . S
C995 C993 1.389 . S
C995 C996 1.524 . S
C996 C995 1.524 . S
C996 C997 1.397 . S
C996 C1001 1.363 . S
C997 H968 0.950 . S
C997 C996 1.397 . S
C997 C998 1.334 . S
C998 H969 0.950 . S
C998 C997 1.334 . S
C998 C999 1.287 . S
C999 C998 1.287 . S
C999 C1000 1.524 . S
C999 H1002 0.999 . S
C1000 H970 0.950 . S
C1000 C999 1.524 . S
C1000 C1001 1.415 . S
C1001 H971 0.950 . S
C1001 C996 1.363 . S
C1001 C1000 1.415 . S
H1002 C999 0.999 . S
H1003 C984 0.913 . S
H1004 C1022 0.951 . S
H1005 C1024 0.951 . S
H1006 C1026 0.950 . S
H1007 C1027 0.950 . S
H1008 C1029 0.950 . S
H1009 C1032 0.950 . S
H1010 C1033 0.950 . S
H1011 C1035 0.950 . S
H1012 C1036 0.950 . S
H1013 C1037 0.951 . S
H1014 C1039 0.951 . S
H1015 C1041 0.950 . S
H1016 C1042 0.950 . S
H1017 C1044 0.950 . S
H1018 C1047 0.950 . S
H1019 C1048 0.950 . S
H1020 C1050 0.950 . S
H1021 C1051 0.950 . S
C1022 H1004 0.951 . S
C1022 C1023 1.366 . S
C1022 C1024 1.388 . S
C1023 C1022 1.366 . S
C1023 C1027 1.385 . S
C1024 H1005 0.951 . S
C1024 C1022 1.388 . S
C1024 C1025 1.366 . S
C1025 C1024 1.366 . S
C1025 C1026 1.414 . S
C1025 C1028 1.499 . S
C1026 H1006 0.950 . S
C1026 C1025 1.414 . S
C1026 C1027 1.374 . S
C1027 H1007 0.950 . S
C1027 C1023 1.385 . S
C1027 C1026 1.374 . S
C1028 C1025 1.499 . S
C1028 C1029 1.373 . S
C1028 C1030 1.389 . S
C1029 H1008 0.950 . S
C1029 C1028 1.373 . S
C1029 C1045 1.377 . S
C1030 C1028 1.389 . S
C1030 C1031 1.524 . S
C1030 C1044 1.377 . S
C1031 C1030 1.524 . S
C1031 C1032 1.397 . S
C1031 C1036 1.363 . S
C1032 H1009 0.950 . S
C1032 C1031 1.397 . S
C1032 C1033 1.334 . S
C1033 H1010 0.950 . S
C1033 C1032 1.334 . S
C1033 C1034 1.287 . S
C1034 C1033 1.287 . S
C1034 C1035 1.524 . S
C1034 H1053 0.913 . S
C1035 H1011 0.950 . S
C1035 C1034 1.524 . S
C1035 C1036 1.415 . S
C1036 H1012 0.950 . S
C1036 C1031 1.363 . S
C1036 C1035 1.415 . S
C1037 H1013 0.951 . S
C1037 C1038 1.366 . S
C1037 C1039 1.388 . S
C1038 C1037 1.366 . S
C1038 C1042 1.385 . S
C1039 H1014 0.951 . S
C1039 C1037 1.388 . S
C1039 C1040 1.366 . S
C1040 C1039 1.366 . S
C1040 C1041 1.414 . S
C1040 C1043 1.499 . S
C1041 H1015 0.950 . S
C1041 C1040 1.414 . S
C1041 C1042 1.374 . S
C1042 H1016 0.950 . S
C1042 C1038 1.385 . S
C1042 C1041 1.374 . S
C1043 C1040 1.499 . S
C1043 C1044 1.373 . S
C1043 C1045 1.389 . S
C1044 H1017 0.950 . S
C1044 C1030 1.377 . S
C1044 C1043 1.373 . S
C1045 C1029 1.377 . S
C1045 C1043 1.389 . S
C1045 C1046 1.524 . S
C1046 C1045 1.524 . S
C1046 C1047 1.397 . S
C1046 C1051 1.363 . S
C1047 H1018 0.950 . S
C1047 C1046 1.397 . S
C1047 C1048 1.334 . S
C1048 H1019 0.950 . S
C1048 C1047 1.334 . S
C1048 C1049 1.287 . S
C1049 C1048 1.287 . S
C1049 C1050 1.524 . S
C1049 H1052 0.999 . S
C1050 H1020 0.950 . S
C1050 C1049 1.524 . S
C1050 C1051 1.415 . S
C1051 H1021 0.950 . S
C1051 C1046 1.363 . S
C1051 C1050 1.415 . S
H1052 C1049 0.999 . S
H1053 C1034 0.913 . S
H1054 C1072 0.951 . S
H1055 C1074 0.951 . S
H1056 C1076 0.950 . S
H1057 C1077 0.950 . S
H1058 C1079 0.950 . S
H1059 C1082 0.950 . S
H1060 C1083 0.950 . S
H1061 C1085 0.950 . S
H1062 C1086 0.950 . S
H1063 C1087 0.951 . S
H1064 C1089 0.951 . S
H1065 C1091 0.950 . S
H1066 C1092 0.950 . S
H1067 C1094 0.950 . S
H1068 C1097 0.950 . S
H1069 C1098 0.950 . S
H1070 C1100 0.950 . S
H1071 C1101 0.950 . S
C1072 H1054 0.951 . S
C1072 C1073 1.366 . S
C1072 C1074 1.388 . S
C1073 C1072 1.366 . S
C1073 C1077 1.385 . S
C1074 H1055 0.951 . S
C1074 C1072 1.388 . S
C1074 C1075 1.366 . S
C1075 C1074 1.366 . S
C1075 C1076 1.414 . S
C1075 C1078 1.499 . S
C1076 H1056 0.950 . S
C1076 C1075 1.414 . S
C1076 C1077 1.374 . S
C1077 H1057 0.950 . S
C1077 C1073 1.385 . S
C1077 C1076 1.374 . S
C1078 C1075 1.499 . S
C1078 C1079 1.373 . S
C1078 C1080 1.389 . S
C1079 H1058 0.950 . S
C1079 C1078 1.373 . S
C1079 C1095 1.377 . S
C1080 C1078 1.389 . S
C1080 C1081 1.524 . S
C1080 C1094 1.377 . S
C1081 C1080 1.524 . S
C1081 C1082 1.397 . S
C1081 C1086 1.363 . S
C1082 H1059 0.950 . S
C1082 C1081 1.397 . S
C1082 C1083 1.334 . S
C1083 H1060 0.950 . S
C1083 C1082 1.334 . S
C1083 C1084 1.287 . S
C1084 C1083 1.287 . S
C1084 C1085 1.524 . S
C1084 H1103 0.913 . S
C1085 H1061 0.950 . S
C1085 C1084 1.524 . S
C1085 C1086 1.415 . S
C1086 H1062 0.950 . S
C1086 C1081 1.363 . S
C1086 C1085 1.415 . S
C1087 H1063 0.951 . S
C1087 C1088 1.366 . S
C1087 C1089 1.388 . S
C1088 C1087 1.366 . S
C1088 C1092 1.385 . S
C1089 H1064 0.951 . S
C1089 C1087 1.388 . S
C1089 C1090 1.366 . S
C1090 C1089 1.366 . S
C1090 C1091 1.414 . S
C1090 C1093 1.499 . S
C1091 H1065 0.950 . S
C1091 C1090 1.414 . S
C1091 C1092 1.374 . S
C1092 H1066 0.950 . S
C1092 C1088 1.385 . S
C1092 C1091 1.374 . S
C1093 C1090 1.499 . S
C1093 C1094 1.373 . S
C1093 C1095 1.389 . S
C1094 H1067 0.950 . S
C1094 C1080 1.377 . S
C1094 C1093 1.373 . S
C1095 C1079 1.377 . S
C1095 C1093 1.389 . S
C1095 C1096 1.524 . S
C1096 C1095 1.524 . S
C1096 C1097 1.397 . S
C1096 C1101 1.363 . S
C1097 H1068 0.950 . S
C1097 C1096 1.397 . S
C1097 C1098 1.334 . S
C1098 H1069 0.950 . S
C1098 C1097 1.334 . S
C1098 C1099 1.287 . S
C1099 C1098 1.287 . S
C1099 C1100 1.524 . S
C1099 H1102 0.999 . S
C1100 H1070 0.950 . S
C1100 C1099 1.524 . S
C1100 C1101 1.415 . S
C1101 H1071 0.950 . S
C1101 C1096 1.363 . S
C1101 C1100 1.415 . S
H1102 C1099 0.999 . S
H1103 C1084 0.913 . S
H1104 C1122 0.951 . S
H1105 C1124 0.951 . S
H1106 C1126 0.950 . S
H1107 C1127 0.950 . S
H1108 C1129 0.950 . S
H1109 C1132 0.950 . S
H1110 C1133 0.950 . S
H1111 C1135 0.950 . S
H1112 C1136 0.950 . S
H1113 C1137 0.951 . S
H1114 C1139 0.951 . S
H1115 C1141 0.950 . S
H1116 C1142 0.950 . S
H1117 C1144 0.950 . S
H1118 C1147 0.950 . S
H1119 C1148 0.950 . S
H1120 C1150 0.950 . S
H1121 C1151 0.950 . S
C1122 H1104 0.951 . S
C1122 C1123 1.366 . S
C1122 C1124 1.388 . S
C1123 C1122 1.366 . S
C1123 C1127 1.385 . S
C1124 H1105 0.951 . S
C1124 C1122 1.388 . S
C1124 C1125 1.366 . S
C1125 C1124 1.366 . S
C1125 C1126 1.414 . S
C1125 C1128 1.499 . S
C1126 H1106 0.950 . S
C1126 C1125 1.414 . S
C1126 C1127 1.374 . S
C1127 H1107 0.950 . S
C1127 C1123 1.385 . S
C1127 C1126 1.374 . S
C1128 C1125 1.499 . S
C1128 C1129 1.373 . S
C1128 C1130 1.389 . S
C1129 H1108 0.950 . S
C1129 C1128 1.373 . S
C1129 C1145 1.377 . S
C1130 C1128 1.389 . S
C1130 C1131 1.524 . S
C1130 C1144 1.377 . S
C1131 C1130 1.524 . S
C1131 C1132 1.397 . S
C1131 C1136 1.363 . S
C1132 H1109 0.950 . S
C1132 C1131 1.397 . S
C1132 C1133 1.334 . S
C1133 H1110 0.950 . S
C1133 C1132 1.334 . S
C1133 C1134 1.287 . S
C1134 C1133 1.287 . S
C1134 C1135 1.524 . S
C1134 H1153 0.913 . S
C1135 H1111 0.950 . S
C1135 C1134 1.524 . S
C1135 C1136 1.415 . S
C1136 H1112 0.950 . S
C1136 C1131 1.363 . S
C1136 C1135 1.415 . S
C1137 H1113 0.951 . S
C1137 C1138 1.366 . S
C1137 C1139 1.388 . S
C1138 C1137 1.366 . S
C1138 C1142 1.385 . S
C1139 H1114 0.951 . S
C1139 C1137 1.388 . S
C1139 C1140 1.366 . S
C1140 C1139 1.366 . S
C1140 C1141 1.414 . S
C1140 C1143 1.499 . S
C1141 H1115 0.950 . S
C1141 C1140 1.414 . S
C1141 C1142 1.374 . S
C1142 H1116 0.950 . S
C1142 C1138 1.385 . S
C1142 C1141 1.374 . S
C1143 C1140 1.499 . S
C1143 C1144 1.373 . S
C1143 C1145 1.389 . S
C1144 H1117 0.950 . S
C1144 C1130 1.377 . S
C1144 C1143 1.373 . S
C1145 C1129 1.377 . S
C1145 C1143 1.389 . S
C1145 C1146 1.524 . S
C1146 C1145 1.524 . S
C1146 C1147 1.397 . S
C1146 C1151 1.363 . S
C1147 H1118 0.950 . S
C1147 C1146 1.397 . S
C1147 C1148 1.334 . S
C1148 H1119 0.950 . S
C1148 C1147 1.334 . S
C1148 C1149 1.287 . S
C1149 C1148 1.287 . S
C1149 C1150 1.524 . S
C1149 H1152 0.999 . S
C1150 H1120 0.950 . S
C1150 C1149 1.524 . S
C1150 C1151 1.415 . S
C1151 H1121 0.950 . S
C1151 C1146 1.363 . S
C1151 C1150 1.415 . S
H1152 C1149 0.999 . S
H1153 C1134 0.913 . S
H1154 C1172 0.951 . S
H1155 C1174 0.951 . S
H1156 C1176 0.950 . S
H1157 C1177 0.950 . S
H1158 C1179 0.950 . S
H1159 C1182 0.950 . S
H1160 C1183 0.950 . S
H1161 C1185 0.950 . S
H1162 C1186 0.950 . S
H1163 C1187 0.951 . S
H1164 C1189 0.951 . S
H1165 C1191 0.950 . S
H1166 C1192 0.950 . S
H1167 C1194 0.950 . S
H1168 C1197 0.950 . S
H1169 C1198 0.950 . S
H1170 C1200 0.950 . S
H1171 C1201 0.950 . S
C1172 H1154 0.951 . S
C1172 C1173 1.366 . S
C1172 C1174 1.388 . S
C1173 C1172 1.366 . S
C1173 C1177 1.385 . S
C1174 H1155 0.951 . S
C1174 C1172 1.388 . S
C1174 C1175 1.366 . S
C1175 C1174 1.366 . S
C1175 C1176 1.414 . S
C1175 C1178 1.499 . S
C1176 H1156 0.950 . S
C1176 C1175 1.414 . S
C1176 C1177 1.374 . S
C1177 H1157 0.950 . S
C1177 C1173 1.385 . S
C1177 C1176 1.374 . S
C1178 C1175 1.499 . S
C1178 C1179 1.373 . S
C1178 C1180 1.389 . S
C1179 H1158 0.950 . S
C1179 C1178 1.373 . S
C1179 C1195 1.377 . S
C1180 C1178 1.389 . S
C1180 C1181 1.524 . S
C1180 C1194 1.377 . S
C1181 C1180 1.524 . S
C1181 C1182 1.397 . S
C1181 C1186 1.363 . S
C1182 H1159 0.950 . S
C1182 C1181 1.397 . S
C1182 C1183 1.334 . S
C1183 H1160 0.950 . S
C1183 C1182 1.334 . S
C1183 C1184 1.287 . S
C1184 C1183 1.287 . S
C1184 C1185 1.524 . S
C1184 H1203 0.913 . S
C1185 H1161 0.950 . S
C1185 C1184 1.524 . S
C1185 C1186 1.415 . S
C1186 H1162 0.950 . S
C1186 C1181 1.363 . S
C1186 C1185 1.415 . S
C1187 H1163 0.951 . S
C1187 C1188 1.366 . S
C1187 C1189 1.388 . S
C1188 C1187 1.366 . S
C1188 C1192 1.385 . S
C1189 H1164 0.951 . S
C1189 C1187 1.388 . S
C1189 C1190 1.366 . S
C1190 C1189 1.366 . S
C1190 C1191 1.414 . S
C1190 C1193 1.499 . S
C1191 H1165 0.950 . S
C1191 C1190 1.414 . S
C1191 C1192 1.374 . S
C1192 H1166 0.950 . S
C1192 C1188 1.385 . S
C1192 C1191 1.374 . S
C1193 C1190 1.499 . S
C1193 C1194 1.373 . S
C1193 C1195 1.389 . S
C1194 H1167 0.950 . S
C1194 C1180 1.377 . S
C1194 C1193 1.373 . S
C1195 C1179 1.377 . S
C1195 C1193 1.389 . S
C1195 C1196 1.524 . S
C1196 C1195 1.524 . S
C1196 C1197 1.397 . S
C1196 C1201 1.363 . S
C1197 H1168 0.950 . S
C1197 C1196 1.397 . S
C1197 C1198 1.334 . S
C1198 H1169 0.950 . S
C1198 C1197 1.334 . S
C1198 C1199 1.287 . S
C1199 C1198 1.287 . S
C1199 C1200 1.524 . S
C1199 H1202 0.999 . S
C1200 H1170 0.950 . S
C1200 C1199 1.524 . S
C1200 C1201 1.415 . S
C1201 H1171 0.950 . S
C1201 C1196 1.363 . S
C1201 C1200 1.415 . S
H1202 C1199 0.999 . S
H1203 C1184 0.913 . S
H1204 C1222 0.951 . S
H1205 C1224 0.951 . S
H1206 C1226 0.950 . S
H1207 C1227 0.950 . S
H1208 C1229 0.950 . S
H1209 C1232 0.950 . S
H1210 C1233 0.950 . S
H1211 C1235 0.950 . S
H1212 C1236 0.950 . S
H1213 C1237 0.951 . S
H1214 C1239 0.951 . S
H1215 C1241 0.950 . S
H1216 C1242 0.950 . S
H1217 C1244 0.950 . S
H1218 C1247 0.950 . S
H1219 C1248 0.950 . S
H1220 C1250 0.950 . S
H1221 C1251 0.950 . S
C1222 H1204 0.951 . S
C1222 C1223 1.366 . S
C1222 C1224 1.388 . S
C1223 C1222 1.366 . S
C1223 C1227 1.385 . S
C1224 H1205 0.951 . S
C1224 C1222 1.388 . S
C1224 C1225 1.366 . S
C1225 C1224 1.366 . S
C1225 C1226 1.414 . S
C1225 C1228 1.499 . S
C1226 H1206 0.950 . S
C1226 C1225 1.414 . S
C1226 C1227 1.374 . S
C1227 H1207 0.950 . S
C1227 C1223 1.385 . S
C1227 C1226 1.374 . S
C1228 C1225 1.499 . S
C1228 C1229 1.373 . S
C1228 C1230 1.389 . S
C1229 H1208 0.950 . S
C1229 C1228 1.373 . S
C1229 C1245 1.377 . S
C1230 C1228 1.389 . S
C1230 C1231 1.524 . S
C1230 C1244 1.377 . S
C1231 C1230 1.524 . S
C1231 C1232 1.397 . S
C1231 C1236 1.363 . S
C1232 H1209 0.950 . S
C1232 C1231 1.397 . S
C1232 C1233 1.334 . S
C1233 H1210 0.950 . S
C1233 C1232 1.334 . S
C1233 C1234 1.287 . S
C1234 C1233 1.287 . S
C1234 C1235 1.524 . S
C1234 H1253 0.913 . S
C1235 H1211 0.950 . S
C1235 C1234 1.524 . S
C1235 C1236 1.415 . S
C1236 H1212 0.950 . S
C1236 C1231 1.363 . S
C1236 C1235 1.415 . S
C1237 H1213 0.951 . S
C1237 C1238 1.366 . S
C1237 C1239 1.388 . S
C1238 C1237 1.366 . S
C1238 C1242 1.385 . S
C1239 H1214 0.951 . S
C1239 C1237 1.388 . S
C1239 C1240 1.366 . S
C1240 C1239 1.366 . S
C1240 C1241 1.414 . S
C1240 C1243 1.499 . S
C1241 H1215 0.950 . S
C1241 C1240 1.414 . S
C1241 C1242 1.374 . S
C1242 H1216 0.950 . S
C1242 C1238 1.385 . S
C1242 C1241 1.374 . S
C1243 C1240 1.499 . S
C1243 C1244 1.373 . S
C1243 C1245 1.389 . S
C1244 H1217 0.950 . S
C1244 C1230 1.377 . S
C1244 C1243 1.373 . S
C1245 C1229 1.377 . S
C1245 C1243 1.389 . S
C1245 C1246 1.524 . S
C1246 C1245 1.524 . S
C1246 C1247 1.397 . S
C1246 C1251 1.363 . S
C1247 H1218 0.950 . S
C1247 C1246 1.397 . S
C1247 C1248 1.334 . S
C1248 H1219 0.950 . S
C1248 C1247 1.334 . S
C1248 C1249 1.287 . S
C1249 C1248 1.287 . S
C1249 C1250 1.524 . S
C1249 H1252 0.999 . S
C1250 H1220 0.950 . S
C1250 C1249 1.524 . S
C1250 C1251 1.415 . S
C1251 H1221 0.950 . S
C1251 C1246 1.363 . S
C1251 C1250 1.415 . S
H1252 C1249 0.999 . S
H1253 C1234 0.913 . S
H1254 C1272 0.951 . S
H1255 C1274 0.951 . S
H1256 C1276 0.950 . S
H1257 C1277 0.950 . S
H1258 C1279 0.950 . S
H1259 C1282 0.950 . S
H1260 C1283 0.950 . S
H1261 C1285 0.950 . S
H1262 C1286 0.950 . S
H1263 C1287 0.951 . S
H1264 C1289 0.951 . S
H1265 C1291 0.950 . S
H1266 C1292 0.950 . S
H1267 C1294 0.950 . S
H1268 C1297 0.950 . S
H1269 C1298 0.950 . S
H1270 C1300 0.950 . S
H1271 C1301 0.950 . S
C1272 H1254 0.951 . S
C1272 C1273 1.366 . S
C1272 C1274 1.388 . S
C1273 C1272 1.366 . S
C1273 C1277 1.385 . S
C1274 H1255 0.951 . S
C1274 C1272 1.388 . S
C1274 C1275 1.366 . S
C1275 C1274 1.366 . S
C1275 C1276 1.414 . S
C1275 C1278 1.499 . S
C1276 H1256 0.950 . S
C1276 C1275 1.414 . S
C1276 C1277 1.374 . S
C1277 H1257 0.950 . S
C1277 C1273 1.385 . S
C1277 C1276 1.374 . S
C1278 C1275 1.499 . S
C1278 C1279 1.373 . S
C1278 C1280 1.389 . S
C1279 H1258 0.950 . S
C1279 C1278 1.373 . S
C1279 C1295 1.377 . S
C1280 C1278 1.389 . S
C1280 C1281 1.524 . S
C1280 C1294 1.377 . S
C1281 C1280 1.524 . S
C1281 C1282 1.397 . S
C1281 C1286 1.363 . S
C1282 H1259 0.950 . S
C1282 C1281 1.397 . S
C1282 C1283 1.334 . S
C1283 H1260 0.950 . S
C1283 C1282 1.334 . S
C1283 C1284 1.287 . S
C1284 C1283 1.287 . S
C1284 C1285 1.524 . S
C1284 H1303 0.913 . S
C1285 H1261 0.950 . S
C1285 C1284 1.524 . S
C1285 C1286 1.415 . S
C1286 H1262 0.950 . S
C1286 C1281 1.363 . S
C1286 C1285 1.415 . S
C1287 H1263 0.951 . S
C1287 C1288 1.366 . S
C1287 C1289 1.388 . S
C1288 C1287 1.366 . S
C1288 C1292 1.385 . S
C1289 H1264 0.951 . S
C1289 C1287 1.388 . S
C1289 C1290 1.366 . S
C1290 C1289 1.366 . S
C1290 C1291 1.414 . S
C1290 C1293 1.499 . S
C1291 H1265 0.950 . S
C1291 C1290 1.414 . S
C1291 C1292 1.374 . S
C1292 H1266 0.950 . S
C1292 C1288 1.385 . S
C1292 C1291 1.374 . S
C1293 C1290 1.499 . S
C1293 C1294 1.373 . S
C1293 C1295 1.389 . S
C1294 H1267 0.950 . S
C1294 C1280 1.377 . S
C1294 C1293 1.373 . S
C1295 C1279 1.377 . S
C1295 C1293 1.389 . S
C1295 C1296 1.524 . S
C1296 C1295 1.524 . S
C1296 C1297 1.397 . S
C1296 C1301 1.363 . S
C1297 H1268 0.950 . S
C1297 C1296 1.397 . S
C1297 C1298 1.334 . S
C1298 H1269 0.950 . S
C1298 C1297 1.334 . S
C1298 C1299 1.287 . S
C1299 C1298 1.287 . S
C1299 C1300 1.524 . S
C1299 H1302 0.999 . S
C1300 H1270 0.950 . S
C1300 C1299 1.524 . S
C1300 C1301 1.415 . S
C1301 H1271 0.950 . S
C1301 C1296 1.363 . S
C1301 C1300 1.415 . S
H1302 C1299 0.999 . S
H1303 C1284 0.913 . S
H1304 C1322 0.951 . S
H1305 C1324 0.951 . S
H1306 C1326 0.950 1_455 S
H1307 C1327 0.950 . S
H1308 C1329 0.950 . S
H1309 C1332 0.950 . S
H1310 C1333 0.950 . S
H1311 C1335 0.950 . S
H1312 C1336 0.950 . S
H1313 C1337 0.951 . S
H1314 C1339 0.951 . S
H1315 C1341 0.950 1_655 S
H1316 C1342 0.950 . S
H1317 C1344 0.950 . S
H1318 C1347 0.950 . S
H1319 C1348 0.950 . S
H1320 C1350 0.950 . S
H1321 C1351 0.950 . S
C1322 H1304 0.951 . S
C1322 C1323 1.366 . S
C1322 C1324 1.388 . S
C1323 C1322 1.366 . S
C1323 C1327 1.385 . S
C1324 H1305 0.951 . S
C1324 C1322 1.388 . S
C1324 C1325 1.366 . S
C1325 C1324 1.366 . S
C1325 C1326 1.414 . S
C1325 C1328 1.499 . S
C1326 H1306 0.950 1_655 S
C1326 C1325 1.414 . S
C1326 C1327 1.374 . S
C1327 H1307 0.950 . S
C1327 C1323 1.385 . S
C1327 C1326 1.374 . S
C1328 C1325 1.499 . S
C1328 C1329 1.373 1_655 S
C1328 C1330 1.389 . S
C1329 H1308 0.950 . S
C1329 C1328 1.373 1_455 S
C1329 C1345 1.377 . S
C1330 C1328 1.389 . S
C1330 C1331 1.524 . S
C1330 C1344 1.377 . S
C1331 C1330 1.524 . S
C1331 C1332 1.397 . S
C1331 C1336 1.363 . S
C1332 H1309 0.950 . S
C1332 C1331 1.397 . S
C1332 C1333 1.334 . S
C1333 H1310 0.950 . S
C1333 C1332 1.334 . S
C1333 C1334 1.287 . S
C1334 C1333 1.287 . S
C1334 C1335 1.524 . S
C1334 H1353 0.913 . S
C1335 H1311 0.950 . S
C1335 C1334 1.524 . S
C1335 C1336 1.415 . S
C1336 H1312 0.950 . S
C1336 C1331 1.363 . S
C1336 C1335 1.415 . S
C1337 H1313 0.951 . S
C1337 C1338 1.366 . S
C1337 C1339 1.388 . S
C1338 C1337 1.366 . S
C1338 C1342 1.385 . S
C1339 H1314 0.951 . S
C1339 C1337 1.388 . S
C1339 C1340 1.366 . S
C1340 C1339 1.366 . S
C1340 C1341 1.414 . S
C1340 C1343 1.499 . S
C1341 H1315 0.950 1_455 S
C1341 C1340 1.414 . S
C1341 C1342 1.374 . S
C1342 H1316 0.950 . S
C1342 C1338 1.385 . S
C1342 C1341 1.374 . S
C1343 C1340 1.499 . S
C1343 C1344 1.373 1_455 S
C1343 C1345 1.389 . S
C1344 H1317 0.950 . S
C1344 C1330 1.377 . S
C1344 C1343 1.373 1_655 S
C1345 C1329 1.377 . S
C1345 C1343 1.389 . S
C1345 C1346 1.524 . S
C1346 C1345 1.524 . S
C1346 C1347 1.397 . S
C1346 C1351 1.363 . S
C1347 H1318 0.950 . S
C1347 C1346 1.397 . S
C1347 C1348 1.334 . S
C1348 H1319 0.950 . S
C1348 C1347 1.334 . S
C1348 C1349 1.287 . S
C1349 C1348 1.287 . S
C1349 C1350 1.524 . S
C1349 H1352 0.999 . S
C1350 H1320 0.950 . S
C1350 C1349 1.524 . S
C1350 C1351 1.415 . S
C1351 H1321 0.950 . S
C1351 C1346 1.363 . S
C1351 C1350 1.415 . S
H1352 C1349 0.999 . S
H1353 C1334 0.913 . S
H1354 C1372 0.951 . S
H1355 C1374 0.951 . S
H1356 C1376 0.950 . S
H1357 C1377 0.950 . S
H1358 C1379 0.950 . S
H1359 C1382 0.950 . S
H1360 C1383 0.950 . S
H1361 C1385 0.950 . S
H1362 C1386 0.950 . S
H1363 C1387 0.951 . S
H1364 C1389 0.951 . S
H1365 C1391 0.950 . S
H1366 C1392 0.950 . S
H1367 C1394 0.950 . S
H1368 C1397 0.950 . S
H1369 C1398 0.950 . S
H1370 C1400 0.950 . S
H1371 C1401 0.950 . S
C1372 H1354 0.951 . S
C1372 C1373 1.366 . S
C1372 C1374 1.388 . S
C1373 C1372 1.366 . S
C1373 C1377 1.385 . S
C1374 H1355 0.951 . S
C1374 C1372 1.388 . S
C1374 C1375 1.366 . S
C1375 C1374 1.366 . S
C1375 C1376 1.414 . S
C1375 C1378 1.499 . S
C1376 H1356 0.950 . S
C1376 C1375 1.414 . S
C1376 C1377 1.374 . S
C1377 H1357 0.950 . S
C1377 C1373 1.385 . S
C1377 C1376 1.374 . S
C1378 C1375 1.499 . S
C1378 C1379 1.373 . S
C1378 C1380 1.389 . S
C1379 H1358 0.950 . S
C1379 C1378 1.373 . S
C1379 C1395 1.377 1_655 S
C1380 C1378 1.389 . S
C1380 C1381 1.524 . S
C1380 C1394 1.377 1_655 S
C1381 C1380 1.524 . S
C1381 C1382 1.397 . S
C1381 C1386 1.363 . S
C1382 H1359 0.950 . S
C1382 C1381 1.397 . S
C1382 C1383 1.334 . S
C1383 H1360 0.950 . S
C1383 C1382 1.334 . S
C1383 C1384 1.287 . S
C1384 C1383 1.287 . S
C1384 C1385 1.524 . S
C1384 H1403 0.913 . S
C1385 H1361 0.950 . S
C1385 C1384 1.524 . S
C1385 C1386 1.415 . S
C1386 H1362 0.950 . S
C1386 C1381 1.363 . S
C1386 C1385 1.415 . S
C1387 H1363 0.951 . S
C1387 C1388 1.366 . S
C1387 C1389 1.388 . S
C1388 C1387 1.366 . S
C1388 C1392 1.385 . S
C1389 H1364 0.951 . S
C1389 C1387 1.388 . S
C1389 C1390 1.366 . S
C1390 C1389 1.366 . S
C1390 C1391 1.414 . S
C1390 C1393 1.499 . S
C1391 H1365 0.950 . S
C1391 C1390 1.414 . S
C1391 C1392 1.374 . S
C1392 H1366 0.950 . S
C1392 C1388 1.385 . S
C1392 C1391 1.374 . S
C1393 C1390 1.499 . S
C1393 C1394 1.373 . S
C1393 C1395 1.389 . S
C1394 H1367 0.950 . S
C1394 C1380 1.377 1_455 S
C1394 C1393 1.373 . S
C1395 C1379 1.377 1_455 S
C1395 C1393 1.389 . S
C1395 C1396 1.524 . S
C1396 C1395 1.524 . S
C1396 C1397 1.397 . S
C1396 C1401 1.363 . S
C1397 H1368 0.950 . S
C1397 C1396 1.397 . S
C1397 C1398 1.334 . S
C1398 H1369 0.950 . S
C1398 C1397 1.334 . S
C1398 C1399 1.287 . S
C1399 C1398 1.287 . S
C1399 C1400 1.524 . S
C1399 H1402 0.999 . S
C1400 H1370 0.950 . S
C1400 C1399 1.524 . S
C1400 C1401 1.415 . S
C1401 H1371 0.950 . S
C1401 C1396 1.363 . S
C1401 C1400 1.415 . S
H1402 C1399 0.999 . S
H1403 C1384 0.913 . S
H1404 C1422 0.951 . S
H1405 C1424 0.951 . S
H1406 C1426 0.950 . S
H1407 C1427 0.950 . S
H1408 C1429 0.950 . S
H1409 C1432 0.950 . S
H1410 C1433 0.950 . S
H1411 C1435 0.948 . S
H1412 C1436 0.950 . S
H1413 C1437 0.951 . S
H1414 C1439 0.951 . S
H1415 C1441 0.950 . S
H1416 C1442 0.950 . S
H1417 C1444 0.950 . S
H1418 C1447 0.950 . S
H1419 C1448 0.950 . S
H1420 C1450 0.948 . S
H1421 C1451 0.950 . S
C1422 H1404 0.951 . S
C1422 C1423 1.366 . S
C1422 C1424 1.388 . S
C1423 C1422 1.366 . S
C1423 C1427 1.385 . S
C1424 H1405 0.951 . S
C1424 C1422 1.388 . S
C1424 C1425 1.366 . S
C1425 C1424 1.366 . S
C1425 C1426 1.414 . S
C1425 C1428 1.499 . S
C1426 H1406 0.950 . S
C1426 C1425 1.414 . S
C1426 C1427 1.374 . S
C1427 H1407 0.950 . S
C1427 C1423 1.385 . S
C1427 C1426 1.374 . S
C1428 C1425 1.499 . S
C1428 C1429 1.373 . S
C1428 C1430 1.389 . S
C1429 H1408 0.950 . S
C1429 C1428 1.373 . S
C1429 C1445 1.377 1_545 S
C1430 C1428 1.389 . S
C1430 C1431 1.524 . S
C1430 C1444 1.377 1_545 S
C1431 C1430 1.524 . S
C1431 C1432 1.397 . S
C1431 C1436 1.363 1_545 S
C1432 H1409 0.950 . S
C1432 C1431 1.397 . S
C1432 C1433 1.334 . S
C1433 H1410 0.950 . S
C1433 C1432 1.334 . S
C1433 C1434 1.287 . S
C1434 C1433 1.287 . S
C1434 C1435 1.526 1_545 S
C1434 H1453 0.913 . S
C1435 H1411 0.948 . S
C1435 C1434 1.526 1_565 S
C1435 C1436 1.414 . S
C1436 H1412 0.950 . S
C1436 C1431 1.363 1_565 S
C1436 C1435 1.414 . S
C1437 H1413 0.951 . S
C1437 C1438 1.366 . S
C1437 C1439 1.388 . S
C1438 C1437 1.366 . S
C1438 C1442 1.385 . S
C1439 H1414 0.951 . S
C1439 C1437 1.388 . S
C1439 C1440 1.366 . S
C1440 C1439 1.366 . S
C1440 C1441 1.414 . S
C1440 C1443 1.499 . S
C1441 H1415 0.950 . S
C1441 C1440 1.414 . S
C1441 C1442 1.374 . S
C1442 H1416 0.950 . S
C1442 C1438 1.385 . S
C1442 C1441 1.374 . S
C1443 C1440 1.499 . S
C1443 C1444 1.373 . S
C1443 C1445 1.389 . S
C1444 H1417 0.950 . S
C1444 C1430 1.377 1_565 S
C1444 C1443 1.373 . S
C1445 C1429 1.377 1_565 S
C1445 C1443 1.389 . S
C1445 C1446 1.524 . S
C1446 C1445 1.524 . S
C1446 C1447 1.397 . S
C1446 C1451 1.363 1_565 S
C1447 H1418 0.950 . S
C1447 C1446 1.397 . S
C1447 C1448 1.334 . S
C1448 H1419 0.950 . S
C1448 C1447 1.334 . S
C1448 C1449 1.287 . S
C1449 C1448 1.287 . S
C1449 C1450 1.526 1_565 S
C1449 H1452 0.999 . S
C1450 H1420 0.948 . S
C1450 C1449 1.526 1_545 S
C1450 C1451 1.414 . S
C1451 H1421 0.950 . S
C1451 C1446 1.363 1_545 S
C1451 C1450 1.414 . S
H1452 C1449 0.999 . S
H1453 C1434 0.913 . S
H1454 C1472 0.951 . S
H1455 C1474 0.951 . S
H1456 C1476 0.950 . S
H1457 C1477 0.950 . S
H1458 C1479 0.950 . S
H1459 C1482 0.950 . S
H1460 C1483 0.950 . S
H1461 C1485 0.950 . S
H1462 C1486 0.950 . S
H1463 C1487 0.951 . S
H1464 C1489 0.951 . S
H1465 C1491 0.950 . S
H1466 C1492 0.950 . S
H1467 C1494 0.950 . S
H1468 C1497 0.950 . S
H1469 C1498 0.950 . S
H1470 C1500 0.950 . S
H1471 C1501 0.950 . S
C1472 H1454 0.951 . S
C1472 C1473 1.366 . S
C1472 C1474 1.388 . S
C1473 C1472 1.366 . S
C1473 C1477 1.385 . S
C1474 H1455 0.951 . S
C1474 C1472 1.388 . S
C1474 C1475 1.366 . S
C1475 C1474 1.366 . S
C1475 C1476 1.414 . S
C1475 C1478 1.499 . S
C1476 H1456 0.950 . S
C1476 C1475 1.414 . S
C1476 C1477 1.374 . S
C1477 H1457 0.950 . S
C1477 C1473 1.385 . S
C1477 C1476 1.374 . S
C1478 C1475 1.499 . S
C1478 C1479 1.373 1_545 S
C1478 C1480 1.389 . S
C1479 H1458 0.950 . S
C1479 C1478 1.373 1_565 S
C1479 C1495 1.377 . S
C1480 C1478 1.389 . S
C1480 C1481 1.524 . S
C1480 C1494 1.377 . S
C1481 C1480 1.524 . S
C1481 C1482 1.397 . S
C1481 C1486 1.363 . S
C1482 H1459 0.950 . S
C1482 C1481 1.397 . S
C1482 C1483 1.334 . S
C1483 H1460 0.950 . S
C1483 C1482 1.334 . S
C1483 C1484 1.287 . S
C1484 C1483 1.287 . S
C1484 C1485 1.524 . S
C1484 H1503 0.913 . S
C1485 H1461 0.950 . S
C1485 C1484 1.524 . S
C1485 C1486 1.415 . S
C1486 H1462 0.950 . S
C1486 C1481 1.363 . S
C1486 C1485 1.415 . S
C1487 H1463 0.951 . S
C1487 C1488 1.366 . S
C1487 C1489 1.388 . S
C1488 C1487 1.366 . S
C1488 C1492 1.385 . S
C1489 H1464 0.951 . S
C1489 C1487 1.388 . S
C1489 C1490 1.366 . S
C1490 C1489 1.366 . S
C1490 C1491 1.414 . S
C1490 C1493 1.499 . S
C1491 H1465 0.950 . S
C1491 C1490 1.414 . S
C1491 C1492 1.374 . S
C1492 H1466 0.950 . S
C1492 C1488 1.385 . S
C1492 C1491 1.374 . S
C1493 C1490 1.499 . S
C1493 C1494 1.373 1_565 S
C1493 C1495 1.389 . S
C1494 H1467 0.950 . S
C1494 C1480 1.377 . S
C1494 C1493 1.373 1_545 S
C1495 C1479 1.377 . S
C1495 C1493 1.389 . S
C1495 C1496 1.524 . S
C1496 C1495 1.524 . S
C1496 C1497 1.397 . S
C1496 C1501 1.363 . S
C1497 H1468 0.950 . S
C1497 C1496 1.397 . S
C1497 C1498 1.334 . S
C1498 H1469 0.950 . S
C1498 C1497 1.334 . S
C1498 C1499 1.287 . S
C1499 C1498 1.287 . S
C1499 C1500 1.524 . S
C1499 H1502 0.999 . S
C1500 H1470 0.950 . S
C1500 C1499 1.524 . S
C1500 C1501 1.415 . S
C1501 H1471 0.950 . S
C1501 C1496 1.363 . S
C1501 C1500 1.415 . S
H1502 C1499 0.999 . S
H1503 C1484 0.913 . S
C723 C49 1.234 . S
C738 C469 1.236 . S
C773 C108 1.236 . S
C788 C557 1.234 . S
C823 C233 1.234 . S
C838 C665 1.237 . S
C873 C381 1.233 . S
C888 C313 1.236 . S
C923 C29 1.764 . S
C938 C372 1.707 . S
C973 C117 1.772 . S
C988 C497 1.723 . S
C1023 C548 1.706 . S
C1038 C196 1.764 . S
C1073 C321 1.772 . S
C1088 C636 1.722 . S
C1123 C401 1.764 . S
C1138 C57 1.707 . S
C1173 C137 1.723 . S
C1188 C460 1.773 . S
C1223 C577 1.763 . S
C1238 C225 1.706 . S
C1273 C284 1.723 . S
C1288 C673 1.773 . S
C1323 C205 0.350 . S
C1338 C20 0.349 . S
C1373 C293 0.373 . S
C1388 C145 0.374 . S
C1423 C409 0.350 . S
C1438 C585 0.349 . S
C1473 C489 0.372 . S
C1488 C645 0.372 . S
