# Generated by pormake.
# Topology lta, (4)-cn, num edge types: 1
# Building blocks:
#     Node 0, Type 0, BuildingBlock: NAHDIM_clean_sbu_0, # of connection points: 4
#     Node 1, Type 0, BuildingBlock: NAHDIM_clean_sbu_0, # of connection points: 4
#     Node 2, Type 0, BuildingBlock: NAHDIM_clean_sbu_0, # of connection points: 4
#     Node 3, Type 0, BuildingBlock: NAHDIM_clean_sbu_0, # of connection points: 4
#     Node 4, Type 0, BuildingBlock: NAHDIM_clean_sbu_0, # of connection points: 4
#     Node 5, Type 0, BuildingBlock: NAHDIM_clean_sbu_0, # of connection points: 4
#     Node 6, Type 0, BuildingBlock: NAHDIM_clean_sbu_0, # of connection points: 4
#     Node 7, Type 0, BuildingBlock: NAHDIM_clean_sbu_0, # of connection points: 4
#     Node 8, Type 0, BuildingBlock: NAHDIM_clean_sbu_0, # of connection points: 4
#     Node 9, Type 0, BuildingBlock: NAHDIM_clean_sbu_0, # of connection points: 4
#     Node 10, Type 0, BuildingBlock: NAHDIM_clean_sbu_0, # of connection points: 4
#     Node 11, Type 0, BuildingBlock: NAHDIM_clean_sbu_0, # of connection points: 4
#     Node 12, Type 0, BuildingBlock: NAHDIM_clean_sbu_0, # of connection points: 4
#     Node 13, Type 0, BuildingBlock: NAHDIM_clean_sbu_0, # of connection points: 4
#     Node 14, Type 0, BuildingBlock: NAHDIM_clean_sbu_0, # of connection points: 4
#     Node 15, Type 0, BuildingBlock: NAHDIM_clean_sbu_0, # of connection points: 4
#     Node 16, Type 0, BuildingBlock: NAHDIM_clean_sbu_0, # of connection points: 4
#     Node 17, Type 0, BuildingBlock: NAHDIM_clean_sbu_0, # of connection points: 4
#     Node 18, Type 0, BuildingBlock: NAHDIM_clean_sbu_0, # of connection points: 4
#     Node 19, Type 0, BuildingBlock: NAHDIM_clean_sbu_0, # of connection points: 4
#     Node 20, Type 0, BuildingBlock: NAHDIM_clean_sbu_0, # of connection points: 4
#     Node 21, Type 0, BuildingBlock: NAHDIM_clean_sbu_0, # of connection points: 4
#     Node 22, Type 0, BuildingBlock: NAHDIM_clean_sbu_0, # of connection points: 4
#     Node 23, Type 0, BuildingBlock: NAHDIM_clean_sbu_0, # of connection points: 4
#     Edge 24, Type (0, 0), BuildingBlock: XIVTED_clean_linker_0, # of connection points: 2
#     Edge 25, Type (0, 0), BuildingBlock: XIVTED_clean_linker_0, # of connection points: 2
#     Edge 26, Type (0, 0), BuildingBlock: XIVTED_clean_linker_0, # of connection points: 2
#     Edge 27, Type (0, 0), BuildingBlock: XIVTED_clean_linker_0, # of connection points: 2
#     Edge 28, Type (0, 0), BuildingBlock: XIVTED_clean_linker_0, # of connection points: 2
#     Edge 29, Type (0, 0), BuildingBlock: XIVTED_clean_linker_0, # of connection points: 2
#     Edge 30, Type (0, 0), BuildingBlock: XIVTED_clean_linker_0, # of connection points: 2
#     Edge 31, Type (0, 0), BuildingBlock: XIVTED_clean_linker_0, # of connection points: 2
#     Edge 32, Type (0, 0), BuildingBlock: XIVTED_clean_linker_0, # of connection points: 2
#     Edge 33, Type (0, 0), BuildingBlock: XIVTED_clean_linker_0, # of connection points: 2
#     Edge 34, Type (0, 0), BuildingBlock: XIVTED_clean_linker_0, # of connection points: 2
#     Edge 35, Type (0, 0), BuildingBlock: XIVTED_clean_linker_0, # of connection points: 2
#     Edge 36, Type (0, 0), BuildingBlock: XIVTED_clean_linker_0, # of connection points: 2
#     Edge 37, Type (0, 0), BuildingBlock: XIVTED_clean_linker_0, # of connection points: 2
#     Edge 38, Type (0, 0), BuildingBlock: XIVTED_clean_linker_0, # of connection points: 2
#     Edge 39, Type (0, 0), BuildingBlock: XIVTED_clean_linker_0, # of connection points: 2
#     Edge 40, Type (0, 0), BuildingBlock: XIVTED_clean_linker_0, # of connection points: 2
#     Edge 41, Type (0, 0), BuildingBlock: XIVTED_clean_linker_0, # of connection points: 2
#     Edge 42, Type (0, 0), BuildingBlock: XIVTED_clean_linker_0, # of connection points: 2
#     Edge 43, Type (0, 0), BuildingBlock: XIVTED_clean_linker_0, # of connection points: 2
#     Edge 44, Type (0, 0), BuildingBlock: XIVTED_clean_linker_0, # of connection points: 2
#     Edge 45, Type (0, 0), BuildingBlock: XIVTED_clean_linker_0, # of connection points: 2
#     Edge 46, Type (0, 0), BuildingBlock: XIVTED_clean_linker_0, # of connection points: 2
#     Edge 47, Type (0, 0), BuildingBlock: XIVTED_clean_linker_0, # of connection points: 2
#     Edge 48, Type (0, 0), BuildingBlock: XIVTED_clean_linker_0, # of connection points: 2
#     Edge 49, Type (0, 0), BuildingBlock: XIVTED_clean_linker_0, # of connection points: 2
#     Edge 50, Type (0, 0), BuildingBlock: XIVTED_clean_linker_0, # of connection points: 2
#     Edge 51, Type (0, 0), BuildingBlock: XIVTED_clean_linker_0, # of connection points: 2
#     Edge 52, Type (0, 0), BuildingBlock: XIVTED_clean_linker_0, # of connection points: 2
#     Edge 53, Type (0, 0), BuildingBlock: XIVTED_clean_linker_0, # of connection points: 2
#     Edge 54, Type (0, 0), BuildingBlock: XIVTED_clean_linker_0, # of connection points: 2
#     Edge 55, Type (0, 0), BuildingBlock: XIVTED_clean_linker_0, # of connection points: 2
#     Edge 56, Type (0, 0), BuildingBlock: XIVTED_clean_linker_0, # of connection points: 2
#     Edge 57, Type (0, 0), BuildingBlock: XIVTED_clean_linker_0, # of connection points: 2
#     Edge 58, Type (0, 0), BuildingBlock: XIVTED_clean_linker_0, # of connection points: 2
#     Edge 59, Type (0, 0), BuildingBlock: XIVTED_clean_linker_0, # of connection points: 2
#     Edge 60, Type (0, 0), BuildingBlock: XIVTED_clean_linker_0, # of connection points: 2
#     Edge 61, Type (0, 0), BuildingBlock: XIVTED_clean_linker_0, # of connection points: 2
#     Edge 62, Type (0, 0), BuildingBlock: XIVTED_clean_linker_0, # of connection points: 2
#     Edge 63, Type (0, 0), BuildingBlock: XIVTED_clean_linker_0, # of connection points: 2
#     Edge 64, Type (0, 0), BuildingBlock: XIVTED_clean_linker_0, # of connection points: 2
#     Edge 65, Type (0, 0), BuildingBlock: XIVTED_clean_linker_0, # of connection points: 2
#     Edge 66, Type (0, 0), BuildingBlock: XIVTED_clean_linker_0, # of connection points: 2
#     Edge 67, Type (0, 0), BuildingBlock: XIVTED_clean_linker_0, # of connection points: 2
#     Edge 68, Type (0, 0), BuildingBlock: XIVTED_clean_linker_0, # of connection points: 2
#     Edge 69, Type (0, 0), BuildingBlock: XIVTED_clean_linker_0, # of connection points: 2
#     Edge 70, Type (0, 0), BuildingBlock: XIVTED_clean_linker_0, # of connection points: 2
#     Edge 71, Type (0, 0), BuildingBlock: XIVTED_clean_linker_0, # of connection points: 2
# Relax obj value: 0.180
# Max RMSD: 0.068
# Mean RMSD: 0.068
data_MOF--net-lta--node1-NAHDIM_clean_sbu_0--edge1-XIVTED_clean_linker_0
_symmetry_space_group_name_H-M    P1
_symmetry_Int_Tables_number       1
_symmetry_cell_setting            triclinic
loop_
_symmetry_equiv_pos_as_xyz
'x, y, z'
_cell_length_a     57.230473
_cell_length_b     57.319827
_cell_length_c     57.337974
_cell_angle_alpha  90.097727
_cell_angle_beta   89.96584
_cell_angle_gamma 90.042388
loop_
_atom_site_label
_atom_site_type_symbol
_atom_site_fract_x
_atom_site_fract_y
_atom_site_fract_z
_atom_type_partial_charge
C0 C 0.18237 0.31163 0.49031 0.0
O1 O 0.18897 0.33215 0.48253 0.0
O2 O 0.14377 0.35224 0.53196 0.0
Zn3 Zn 0.13959 0.33577 0.50128 0.0
O4 O 0.144 0.35802 0.47449 0.0
C5 C 0.09838 0.31743 0.47998 0.0
O6 O 0.11112 0.31976 0.46106 0.0
O7 O 0.16208 0.30924 0.49894 0.0
C8 C 0.13964 0.37965 0.47661 0.0
O9 O 0.13264 0.38782 0.49685 0.0
C10 C 0.16169 0.36459 0.53632 0.0
O11 O 0.17824 0.36635 0.52053 0.0
O12 O 0.10704 0.32307 0.49959 0.0
C13 C 0.73238 0.13772 0.53517 0.0
O14 O 0.72508 0.13066 0.5557 0.0
O15 O 0.67614 0.11314 0.54803 0.0
Zn16 Zn 0.693 0.11136 0.51738 0.0
O17 O 0.67093 0.12149 0.49221 0.0
C18 C 0.71096 0.06604 0.52794 0.0
O19 O 0.71327 0.07527 0.54881 0.0
O20 O 0.72124 0.13174 0.51697 0.0
C21 C 0.67432 0.11659 0.47086 0.0
O22 O 0.693 0.10469 0.46488 0.0
C23 C 0.66268 0.1302 0.55241 0.0
O24 O 0.66083 0.14713 0.53711 0.0
O25 O 0.70271 0.07837 0.51152 0.0
C26 C 0.82121 0.68798 0.50162 0.0
O27 O 0.81715 0.66662 0.49436 0.0
O28 O 0.86455 0.65576 0.5472 0.0
Zn29 Zn 0.86672 0.66987 0.51526 0.0
O30 O 0.8649 0.6436 0.49203 0.0
C31 C 0.90114 0.70169 0.49664 0.0
O32 O 0.88396 0.70797 0.48284 0.0
O33 O 0.84082 0.69293 0.51077 0.0
C34 C 0.86264 0.64632 0.47016 0.0
O35 O 0.86105 0.66749 0.46159 0.0
C36 C 0.84649 0.644 0.55252 0.0
O37 O 0.82943 0.64225 0.53732 0.0
O38 O 0.89762 0.68601 0.5119 0.0
C39 C 0.29292 0.83048 0.45315 0.0
O40 O 0.31388 0.82386 0.44659 0.0
O41 O 0.3313 0.87591 0.49199 0.0
Zn42 Zn 0.31522 0.87529 0.46078 0.0
O43 O 0.33917 0.86962 0.43571 0.0
C44 C 0.28879 0.91593 0.47173 0.0
O45 O 0.28454 0.90388 0.49074 0.0
O46 O 0.28969 0.85135 0.45989 0.0
C47 C 0.35738 0.8576 0.43973 0.0
O48 O 0.36009 0.84801 0.46034 0.0
C49 C 0.33153 0.85936 0.5067 0.0
O50 O 0.32036 0.83989 0.50199 0.0
O51 O 0.30129 0.9069 0.45579 0.0
C52 C 0.15823 0.71906 0.45958 0.0
O53 O 0.1619 0.69658 0.45696 0.0
O54 O 0.10963 0.68165 0.44219 0.0
Zn55 Zn 0.11338 0.70193 0.4705 0.0
O56 O 0.12313 0.68115 0.49692 0.0
C57 C 0.06844 0.72407 0.46326 0.0
O58 O 0.07499 0.72461 0.4413 0.0
O59 O 0.13796 0.72608 0.46524 0.0
C60 C 0.11625 0.68464 0.51771 0.0
O61 O 0.10296 0.70276 0.52228 0.0
C62 C 0.09291 0.66706 0.44238 0.0
O63 O 0.07889 0.66646 0.46053 0.0
O64 O 0.08245 0.71619 0.47849 0.0
C65 C 0.29042 0.17437 0.4928 0.0
O66 O 0.31306 0.17772 0.491 0.0
O67 O 0.32911 0.13095 0.47123 0.0
Zn68 Zn 0.30584 0.12774 0.49754 0.0
O69 O 0.32259 0.12901 0.52831 0.0
C70 C 0.28581 0.08773 0.47491 0.0
O71 O 0.29086 0.09966 0.45603 0.0
O72 O 0.28273 0.1538 0.49581 0.0
C73 C 0.3348 0.11158 0.53447 0.0
O74 O 0.33565 0.09318 0.5208 0.0
C75 C 0.34984 0.13819 0.4746 0.0
O76 O 0.35641 0.14402 0.49576 0.0
O77 O 0.28988 0.09671 0.49476 0.0
C78 C 0.85961 0.25523 0.51711 0.0
O79 O 0.86781 0.26726 0.53483 0.0
O80 O 0.86977 0.3054 0.46006 0.0
Zn81 Zn 0.88116 0.29156 0.49005 0.0
O82 O 0.87537 0.31484 0.51552 0.0
C83 C 0.9272 0.28635 0.46963 0.0
O84 O 0.91601 0.28898 0.44981 0.0
O85 O 0.86369 0.26213 0.49647 0.0
C86 C 0.88368 0.33521 0.51282 0.0
O87 O 0.89536 0.34 0.49368 0.0
C88 C 0.85024 0.31589 0.4595 0.0
O89 O 0.83739 0.31674 0.47848 0.0
O90 O 0.91572 0.28605 0.4886 0.0
C91 C 0.6962 0.80996 0.49537 0.0
O92 O 0.6753 0.80582 0.48682 0.0
O93 O 0.66259 0.85881 0.4722 0.0
Zn94 Zn 0.67706 0.85538 0.50387 0.0
O95 O 0.65137 0.84832 0.52665 0.0
C96 C 0.70474 0.89652 0.49754 0.0
O97 O 0.70814 0.88724 0.47684 0.0
O98 O 0.70079 0.82998 0.50369 0.0
C99 C 0.65127 0.85663 0.5472 0.0
O100 O 0.66891 0.86954 0.55418 0.0
C101 C 0.65054 0.87707 0.46867 0.0
O102 O 0.64833 0.8924 0.4856 0.0
O103 O 0.69242 0.88563 0.51239 0.0
C104 C 0.50904 0.1771 0.30463 0.0
O105 O 0.50854 0.1834 0.32666 0.0
O106 O 0.54136 0.13321 0.34187 0.0
Zn107 Zn 0.5113 0.13073 0.32386 0.0
O108 O 0.48475 0.13337 0.34665 0.0
C109 C 0.49319 0.09119 0.29756 0.0
O110 O 0.4741 0.10377 0.29591 0.0
O111 O 0.50989 0.15557 0.29946 0.0
C112 C 0.46407 0.13999 0.34215 0.0
O113 O 0.45842 0.14573 0.32071 0.0
C114 C 0.54234 0.14493 0.36068 0.0
O115 O 0.52371 0.15627 0.3678 0.0
O116 O 0.51073 0.09931 0.30846 0.0
C117 C 0.80865 0.49325 0.2985 0.0
O118 O 0.801 0.49673 0.31984 0.0
O119 O 0.85031 0.5086 0.34325 0.0
Zn120 Zn 0.84975 0.48007 0.32294 0.0
O121 O 0.8379 0.45283 0.34128 0.0
C122 C 0.89258 0.48552 0.2972 0.0
O123 O 0.88144 0.50334 0.2881 0.0
O124 O 0.8293 0.4858 0.29544 0.0
C125 C 0.84142 0.43227 0.33378 0.0
O126 O 0.85178 0.42938 0.31353 0.0
C127 C 0.85735 0.50697 0.36419 0.0
O128 O 0.86411 0.48656 0.37209 0.0
O129 O 0.88236 0.47302 0.31237 0.0
C130 C 0.52466 0.83352 0.27077 0.0
O131 O 0.52861 0.82758 0.29253 0.0
O132 O 0.49188 0.87287 0.31134 0.0
Zn133 Zn 0.52039 0.87846 0.2915 0.0
O134 O 0.5486 0.87628 0.31216 0.0
C135 C 0.49951 0.92065 0.27387 0.0
O136 O 0.48007 0.90859 0.27578 0.0
O137 O 0.52127 0.85484 0.26586 0.0
C138 C 0.55105 0.89282 0.32674 0.0
O139 O 0.53599 0.91012 0.32649 0.0
C140 C 0.49283 0.86019 0.32948 0.0
O141 O 0.5127 0.85027 0.33517 0.0
O142 O 0.51885 0.91089 0.27862 0.0
C143 C 0.14768 0.51804 0.27163 0.0
O144 O 0.14718 0.53476 0.2873 0.0
O145 O 0.11609 0.47892 0.32151 0.0
Zn146 Zn 0.10738 0.50226 0.29684 0.0
O147 O 0.10497 0.53361 0.31239 0.0
C148 C 0.065 0.47598 0.2882 0.0
O149 O 0.07571 0.45976 0.30031 0.0
O150 O 0.13203 0.5023 0.27201 0.0
C151 C 0.08858 0.53652 0.32705 0.0
O152 O 0.07371 0.51942 0.33065 0.0
C153 C 0.12896 0.48507 0.3385 0.0
O154 O 0.13703 0.50651 0.33931 0.0
O155 O 0.07568 0.49488 0.28367 0.0
C156 C 0.46905 0.80944 0.69451 0.0
O157 O 0.46365 0.80521 0.67264 0.0
O158 O 0.50203 0.85638 0.65979 0.0
Zn159 Zn 0.47197 0.8565 0.678 0.0
O160 O 0.44511 0.85306 0.65571 0.0
C161 C 0.48687 0.89723 0.70314 0.0
O162 O 0.50723 0.8867 0.70203 0.0
O163 O 0.47279 0.83032 0.70096 0.0
C164 C 0.44126 0.87016 0.64218 0.0
O165 O 0.45447 0.88884 0.64391 0.0
C166 C 0.50427 0.84424 0.64137 0.0
O167 O 0.48659 0.83156 0.63407 0.0
O168 O 0.46902 0.8872 0.69458 0.0
C169 C 0.16559 0.53614 0.6987 0.0
O170 O 0.17356 0.53831 0.67733 0.0
O171 O 0.12391 0.55669 0.65348 0.0
Zn172 Zn 0.12409 0.52778 0.67348 0.0
O173 O 0.13783 0.50111 0.65525 0.0
C174 C 0.07918 0.50697 0.66878 0.0
O175 O 0.08832 0.50073 0.64869 0.0
O176 O 0.14396 0.53228 0.70181 0.0
C177 C 0.13705 0.4802 0.66251 0.0
O178 O 0.12716 0.4757 0.6827 0.0
C179 C 0.137 0.55797 0.63559 0.0
O180 O 0.15095 0.54047 0.63062 0.0
O181 O 0.09117 0.51939 0.68272 0.0
C182 C 0.49162 0.15665 0.71067 0.0
O183 O 0.49961 0.16241 0.68998 0.0
O184 O 0.46505 0.10983 0.66772 0.0
Zn185 Zn 0.49216 0.11143 0.68998 0.0
O186 O 0.52082 0.11968 0.67145 0.0
C187 C 0.4782 0.06883 0.71163 0.0
O188 O 0.45775 0.07924 0.71129 0.0
O189 O 0.48689 0.13541 0.71488 0.0
C190 C 0.54062 0.11032 0.67489 0.0
O191 O 0.54291 0.09469 0.69146 0.0
C192 C 0.44812 0.12412 0.6668 0.0
O193 O 0.44742 0.14179 0.68139 0.0
O194 O 0.49599 0.07968 0.70404 0.0
C195 C 0.82357 0.45919 0.7046 0.0
O196 O 0.81772 0.45858 0.68245 0.0
O197 O 0.86371 0.45085 0.65843 0.0
Zn198 Zn 0.86536 0.4747 0.68405 0.0
O199 O 0.85472 0.50519 0.67056 0.0
C200 C 0.91307 0.46095 0.69166 0.0
O201 O 0.90516 0.44068 0.68442 0.0
O202 O 0.8441 0.46555 0.71015 0.0
C203 C 0.86477 0.52441 0.67519 0.0
O204 O 0.88212 0.52475 0.69018 0.0
C205 C 0.87327 0.45584 0.63907 0.0
O206 O 0.88354 0.47621 0.63667 0.0
O207 O 0.89887 0.4778 0.69417 0.0
C208 C 0.28061 0.51065 0.15824 0.0
O209 O 0.28962 0.52979 0.14944 0.0
O210 O 0.33012 0.51879 0.12307 0.0
Zn211 Zn 0.31312 0.4884 0.12691 0.0
O212 O 0.33696 0.46411 0.13544 0.0
C213 C 0.28616 0.49692 0.08646 0.0
O214 O 0.28348 0.51698 0.09724 0.0
O215 O 0.28817 0.49094 0.15144 0.0
C216 C 0.33859 0.4445 0.12521 0.0
O217 O 0.32344 0.43903 0.10889 0.0
C218 C 0.34337 0.52713 0.13877 0.0
O219 O 0.34586 0.51579 0.15851 0.0
O220 O 0.29815 0.48102 0.09616 0.0
C221 C 0.27738 0.50605 0.82882 0.0
O222 O 0.29992 0.50622 0.82445 0.0
O223 O 0.30646 0.46 0.86924 0.0
Zn224 Zn 0.29436 0.49268 0.87315 0.0
O225 O 0.322 0.51375 0.86893 0.0
C226 C 0.27101 0.48034 0.91591 0.0
O227 O 0.26754 0.46049 0.90496 0.0
O228 O 0.27033 0.50026 0.849 0.0
C229 C 0.32225 0.53529 0.8741 0.0
O230 O 0.3035 0.54495 0.88313 0.0
C231 C 0.32019 0.45294 0.88513 0.0
O232 O 0.32465 0.46676 0.90289 0.0
O233 O 0.28142 0.49686 0.90542 0.0
C234 C 0.4768 0.27506 0.83842 0.0
O235 O 0.48473 0.29632 0.83509 0.0
O236 O 0.49734 0.31439 0.88046 0.0
Zn237 Zn 0.46993 0.29279 0.88443 0.0
O238 O 0.44075 0.31219 0.88561 0.0
C239 C 0.49333 0.27092 0.92287 0.0
O240 O 0.51167 0.27363 0.90935 0.0
O241 O 0.46911 0.26941 0.85842 0.0
C242 C 0.42847 0.31811 0.86815 0.0
O243 O 0.43428 0.3107 0.84725 0.0
C244 C 0.50025 0.33041 0.89551 0.0
O245 O 0.4852 0.33234 0.91273 0.0
O246 O 0.47334 0.27691 0.91537 0.0
C247 C 0.69868 0.44636 0.82543 0.0
O248 O 0.67695 0.44111 0.82023 0.0
O249 O 0.66477 0.49127 0.86601 0.0
Zn250 Zn 0.67952 0.45974 0.87033 0.0
O251 O 0.65421 0.43544 0.87005 0.0
C252 C 0.70783 0.47668 0.90754 0.0
O253 O 0.71073 0.4941 0.89295 0.0
O254 O 0.70347 0.45419 0.84559 0.0
C255 C 0.63842 0.4378 0.88546 0.0
O256 O 0.63992 0.45527 0.90026 0.0
C257 C 0.6485 0.49445 0.8513 0.0
O258 O 0.6417 0.47692 0.83816 0.0
O259 O 0.69528 0.45943 0.90146 0.0
C260 C 0.49525 0.68058 0.80937 0.0
O261 O 0.48955 0.65898 0.8042 0.0
O262 O 0.4737 0.64386 0.85629 0.0
Zn263 Zn 0.50433 0.66105 0.8546 0.0
O264 O 0.53013 0.63813 0.84802 0.0
C265 C 0.49246 0.68917 0.89344 0.0
O266 O 0.4732 0.69129 0.88116 0.0
O267 O 0.50249 0.68535 0.82975 0.0
C268 C 0.54932 0.63764 0.85914 0.0
O269 O 0.55334 0.65338 0.87533 0.0
C270 C 0.47094 0.62386 0.8471 0.0
O271 O 0.4884 0.61422 0.83576 0.0
O272 O 0.50912 0.67694 0.88538 0.0
C273 C 0.70497 0.52229 0.16104 0.0
O274 O 0.68274 0.5274 0.16356 0.0
O275 O 0.66842 0.49281 0.11497 0.0
Zn276 Zn 0.69124 0.51951 0.11359 0.0
O277 O 0.67253 0.54899 0.11399 0.0
C278 C 0.71691 0.4978 0.07686 0.0
O279 O 0.7154 0.4798 0.09094 0.0
O280 O 0.71297 0.51843 0.14075 0.0
C281 C 0.65657 0.55049 0.09869 0.0
O282 O 0.65409 0.53344 0.08354 0.0
C283 C 0.67076 0.47456 0.1273 0.0
O284 O 0.68931 0.47221 0.14056 0.0
O285 O 0.70862 0.51729 0.08338 0.0
C286 C 0.49419 0.71037 0.15064 0.0
O287 O 0.493 0.68819 0.15626 0.0
O288 O 0.51443 0.67002 0.10425 0.0
Zn289 Zn 0.48656 0.69126 0.10571 0.0
O290 O 0.459 0.67145 0.11468 0.0
C291 C 0.49992 0.71332 0.06335 0.0
O292 O 0.51991 0.71477 0.07451 0.0
O293 O 0.49164 0.71626 0.12946 0.0
C294 C 0.44538 0.66298 0.09936 0.0
O295 O 0.4487 0.66827 0.07733 0.0
C296 C 0.53467 0.67482 0.11203 0.0
O297 O 0.53844 0.69502 0.12218 0.0
O298 O 0.48229 0.70485 0.07381 0.0
C299 C 0.51959 0.29701 0.17809 0.0
O300 O 0.52156 0.31936 0.18277 0.0
O301 O 0.48713 0.33078 0.13123 0.0
Zn302 Zn 0.51775 0.31351 0.13092 0.0
O303 O 0.54431 0.33626 0.13378 0.0
C304 C 0.50365 0.28404 0.09334 0.0
O305 O 0.48533 0.28125 0.10688 0.0
O306 O 0.51813 0.29039 0.157 0.0
C307 C 0.54556 0.35226 0.11852 0.0
O308 O 0.52974 0.353 0.10194 0.0
C309 C 0.48405 0.34932 0.14302 0.0
O310 O 0.50133 0.3576 0.15564 0.0
O311 O 0.52038 0.29684 0.1003 0.0
H312 H 0.12159 0.43789 0.33959 0.0
H313 H 0.14077 0.4273 0.47625 0.0
H314 H 0.14613 0.49534 0.38178 0.0
H315 H 0.14152 0.36741 0.4305 0.0
H316 H 0.14069 0.4528 0.44209 0.0
H317 H 0.12674 0.41182 0.37295 0.0
C318 C 0.12817 0.44499 0.35583 0.0
C319 C 0.13337 0.46882 0.35796 0.0
C320 C 0.14106 0.43408 0.43955 0.0
C321 C 0.13906 0.43919 0.39616 0.0
C322 C 0.14101 0.41952 0.45902 0.0
C323 C 0.14105 0.39522 0.45619 0.0
C324 C 0.14075 0.42425 0.41711 0.0
C325 C 0.14151 0.38607 0.43346 0.0
C326 C 0.13117 0.4301 0.37482 0.0
C327 C 0.14192 0.47708 0.37937 0.0
N328 N 0.14109 0.4006 0.41477 0.0
N329 N 0.14428 0.46232 0.39773 0.0
H330 H 0.67336 0.1052 0.42439 0.0
H331 H 0.54929 0.16588 0.403 0.0
H332 H 0.63521 0.14323 0.47715 0.0
H333 H 0.58346 0.12187 0.3522 0.0
H334 H 0.58289 0.16145 0.42876 0.0
H335 H 0.64275 0.11467 0.39619 0.0
C336 C 0.65863 0.11566 0.43001 0.0
C337 C 0.65675 0.12328 0.45321 0.0
C338 C 0.58311 0.15286 0.41192 0.0
C339 C 0.62171 0.13417 0.42105 0.0
C340 C 0.56393 0.15542 0.39717 0.0
C341 C 0.56346 0.14406 0.37549 0.0
C342 C 0.60199 0.13883 0.40497 0.0
C343 C 0.58301 0.13083 0.36883 0.0
C344 C 0.64116 0.12103 0.41391 0.0
C345 C 0.63732 0.13683 0.4595 0.0
N346 N 0.60142 0.12846 0.38359 0.0
N347 N 0.62052 0.14176 0.44354 0.0
H348 H 0.86792 0.60046 0.4821 0.0
H349 H 0.84741 0.55228 0.35267 0.0
H350 H 0.85528 0.64517 0.42291 0.0
H351 H 0.86859 0.50906 0.41051 0.0
H352 H 0.84853 0.58636 0.37832 0.0
H353 H 0.86652 0.56662 0.45632 0.0
C354 C 0.86483 0.60318 0.46367 0.0
C355 C 0.86173 0.62571 0.45465 0.0
C356 C 0.85295 0.56942 0.38539 0.0
C357 C 0.86008 0.58695 0.425 0.0
C358 C 0.85229 0.54994 0.37076 0.0
C359 C 0.85793 0.52777 0.37946 0.0
C360 C 0.8592 0.5667 0.4089 0.0
C361 C 0.86414 0.5258 0.40304 0.0
C362 C 0.86407 0.58382 0.44895 0.0
C363 C 0.8578 0.62813 0.43061 0.0
N364 N 0.86457 0.54501 0.41694 0.0
N365 N 0.85705 0.60897 0.41662 0.0
H366 H 0.35822 0.87655 0.3959 0.0
H367 H 0.48916 0.83513 0.36987 0.0
H368 H 0.39901 0.8344 0.44309 0.0
H369 H 0.44928 0.87913 0.32359 0.0
H370 H 0.4553 0.83238 0.3956 0.0
H371 H 0.39033 0.8753 0.36787 0.0
C372 C 0.37387 0.86691 0.40032 0.0
C373 C 0.37598 0.85568 0.42195 0.0
C374 C 0.45391 0.84256 0.37977 0.0
C375 C 0.41285 0.85426 0.38996 0.0
C376 C 0.47325 0.84413 0.36505 0.0
C377 C 0.4721 0.85749 0.3446 0.0
C378 C 0.43326 0.85444 0.37404 0.0
C379 C 0.45099 0.86871 0.33923 0.0
C380 C 0.39221 0.86623 0.38431 0.0
C381 C 0.39664 0.8434 0.42668 0.0
N382 N 0.43243 0.86701 0.35391 0.0
N383 N 0.41431 0.84312 0.41087 0.0
H384 H 0.1104 0.59751 0.64041 0.0
H385 H 0.14514 0.64677 0.51475 0.0
H386 H 0.16068 0.56471 0.59477 0.0
H387 H 0.09985 0.68343 0.5626 0.0
H388 H 0.152 0.61723 0.54453 0.0
H389 H 0.10717 0.62983 0.61282 0.0
C390 C 0.12085 0.59715 0.62466 0.0
C391 C 0.13573 0.5783 0.61983 0.0
C392 C 0.14067 0.6318 0.54859 0.0
C393 C 0.13206 0.61517 0.58817 0.0
C394 C 0.13673 0.64868 0.53157 0.0
C395 C 0.12179 0.66754 0.53614 0.0
C396 C 0.12948 0.63367 0.57032 0.0
C397 C 0.11146 0.66916 0.5583 0.0
C398 C 0.11901 0.61562 0.60893 0.0
C399 C 0.14891 0.57881 0.59919 0.0
N400 N 0.11537 0.65235 0.57452 0.0
N401 N 0.14666 0.59687 0.58407 0.0
H402 H 0.33778 0.14716 0.56637 0.0
H403 H 0.44254 0.08764 0.63657 0.0
H404 H 0.36508 0.07864 0.55097 0.0
H405 H 0.41206 0.15376 0.65606 0.0
H406 H 0.4134 0.08368 0.60585 0.0
H407 H 0.36385 0.14952 0.60005 0.0
C408 C 0.34915 0.13255 0.57014 0.0
C409 C 0.34933 0.11271 0.55575 0.0
C410 C 0.41299 0.09902 0.61689 0.0
C411 C 0.37928 0.11535 0.5942 0.0
C412 C 0.42967 0.10132 0.63444 0.0
C413 C 0.42984 0.12114 0.64884 0.0
C414 C 0.39638 0.11672 0.61357 0.0
C415 C 0.41263 0.13822 0.64533 0.0
C416 C 0.36403 0.13392 0.58938 0.0
C417 C 0.36439 0.0943 0.56152 0.0
N418 N 0.39667 0.13568 0.62795 0.0
N419 N 0.37884 0.09613 0.58021 0.0
H420 H 0.8924 0.46096 0.59567 0.0
H421 H 0.86128 0.33098 0.55485 0.0
H422 H 0.85497 0.41165 0.6386 0.0
H423 H 0.89928 0.38031 0.51244 0.0
H424 H 0.85755 0.36069 0.58523 0.0
H425 H 0.89384 0.43202 0.56446 0.0
C426 C 0.88443 0.44406 0.59853 0.0
C427 C 0.87361 0.4387 0.61982 0.0
C428 C 0.86665 0.36503 0.56926 0.0
C429 C 0.87523 0.40543 0.58413 0.0
C430 C 0.86879 0.34807 0.5519 0.0
C431 C 0.88069 0.35314 0.53111 0.0
C432 C 0.87649 0.38721 0.56581 0.0
C433 C 0.89003 0.3756 0.52822 0.0
C434 C 0.88526 0.42753 0.58068 0.0
C435 C 0.86353 0.41653 0.62249 0.0
N436 N 0.88777 0.39178 0.5454 0.0
N437 N 0.86464 0.40069 0.60487 0.0
H438 H 0.5146 0.82126 0.60078 0.0
H439 H 0.6436 0.87456 0.59088 0.0
H440 H 0.54447 0.86809 0.65177 0.0
H441 H 0.612 0.83089 0.53817 0.0
H442 H 0.6084 0.87043 0.61467 0.0
H443 H 0.55107 0.82278 0.57874 0.0
C444 C 0.52884 0.83183 0.60738 0.0
C445 C 0.52643 0.84464 0.62812 0.0
C446 C 0.60921 0.86168 0.59793 0.0
C447 C 0.56828 0.84645 0.60295 0.0
C448 C 0.62933 0.86399 0.58436 0.0
C449 C 0.63072 0.85314 0.56244 0.0
C450 C 0.59035 0.8484 0.58955 0.0
C451 C 0.61168 0.83964 0.55491 0.0
C452 C 0.54967 0.83269 0.59478 0.0
C453 C 0.54551 0.85799 0.63584 0.0
N454 N 0.59227 0.83772 0.5684 0.0
N455 N 0.56561 0.85858 0.62323 0.0
H456 H 0.39676 0.14659 0.47671 0.0
H457 H 0.41643 0.14452 0.33863 0.0
H458 H 0.34091 0.13333 0.42783 0.0
H459 H 0.4721 0.13783 0.38896 0.0
H460 H 0.3881 0.14514 0.37075 0.0
H461 H 0.42429 0.14823 0.44424 0.0
C462 C 0.39026 0.1441 0.45914 0.0
C463 C 0.36651 0.13973 0.45498 0.0
C464 C 0.40653 0.14355 0.37469 0.0
C465 C 0.39796 0.14166 0.41772 0.0
C466 C 0.42269 0.14328 0.35641 0.0
C467 C 0.44664 0.14103 0.36113 0.0
C468 C 0.41444 0.14184 0.39781 0.0
C469 C 0.4538 0.13944 0.38449 0.0
C470 C 0.40601 0.14497 0.44062 0.0
C471 C 0.3591 0.13663 0.43183 0.0
N472 N 0.43778 0.13992 0.40193 0.0
N473 N 0.37478 0.13768 0.41404 0.0
H474 H 0.8156 0.34855 0.45552 0.0
H475 H 0.85555 0.38707 0.32767 0.0
H476 H 0.86976 0.31402 0.416 0.0
H477 H 0.81729 0.43158 0.37499 0.0
H478 H 0.85296 0.35543 0.3561 0.0
H479 H 0.80839 0.37424 0.42228 0.0
C480 C 0.82574 0.34613 0.43975 0.0
C481 C 0.84354 0.32936 0.43863 0.0
C482 C 0.8449 0.37205 0.36011 0.0
C483 C 0.83536 0.35863 0.40063 0.0
C484 C 0.84629 0.3901 0.34387 0.0
C485 C 0.83695 0.41211 0.34914 0.0
C486 C 0.83396 0.37603 0.38167 0.0
C487 C 0.82503 0.41498 0.37035 0.0
C488 C 0.82165 0.36085 0.42083 0.0
C489 C 0.85607 0.32694 0.41772 0.0
N490 N 0.82406 0.39721 0.38595 0.0
N491 N 0.85186 0.34156 0.39959 0.0
H492 H 0.58187 0.8573 0.33579 0.0
H493 H 0.62573 0.91529 0.45491 0.0
H494 H 0.56079 0.92548 0.36002 0.0
H495 H 0.64797 0.84728 0.43125 0.0
H496 H 0.60419 0.92037 0.41864 0.0
H497 H 0.60866 0.85441 0.36891 0.0
C498 C 0.58303 0.87175 0.34794 0.0
C499 C 0.56893 0.89159 0.34525 0.0
C500 C 0.61386 0.90436 0.42129 0.0
C501 C 0.5994 0.88833 0.38319 0.0
C502 C 0.62615 0.90143 0.44204 0.0
C503 C 0.6385 0.88074 0.44621 0.0
C504 C 0.61379 0.88643 0.40458 0.0
C505 C 0.63857 0.86347 0.42881 0.0
C506 C 0.59829 0.87007 0.36686 0.0
C507 C 0.57119 0.90978 0.36149 0.0
N508 N 0.62626 0.86664 0.4088 0.0
N509 N 0.58599 0.90765 0.37983 0.0
H510 H 0.05852 0.63438 0.4372 0.0
H511 H 0.11835 0.57401 0.32643 0.0
H512 H 0.12093 0.66074 0.40406 0.0
H513 H 0.05632 0.54777 0.36038 0.0
H514 H 0.11779 0.60777 0.35254 0.0
H515 H 0.05566 0.60443 0.40708 0.0
C516 C 0.07156 0.63396 0.42351 0.0
C517 C 0.09011 0.64997 0.42327 0.0
C518 C 0.10421 0.5947 0.35416 0.0
C519 C 0.08698 0.61563 0.38872 0.0
C520 C 0.1045 0.57543 0.33925 0.0
C521 C 0.08745 0.55795 0.34135 0.0
C522 C 0.08678 0.59647 0.37133 0.0
C523 C 0.0699 0.56074 0.35822 0.0
C524 C 0.06991 0.61684 0.4063 0.0
C525 C 0.10641 0.64867 0.405 0.0
N526 N 0.07011 0.57955 0.37265 0.0
N527 N 0.10455 0.63168 0.38854 0.0
H528 H 0.35516 0.89779 0.52214 0.0
H529 H 0.41294 0.833 0.63134 0.0
H530 H 0.34003 0.82626 0.54024 0.0
H531 H 0.42819 0.90401 0.61142 0.0
H532 H 0.38436 0.83068 0.59967 0.0
H533 H 0.38009 0.90089 0.5564 0.0
C534 C 0.357 0.88273 0.53338 0.0
C535 C 0.34558 0.86168 0.52821 0.0
C536 C 0.39389 0.84679 0.60232 0.0
C537 C 0.37427 0.8651 0.56755 0.0
C538 C 0.41019 0.84814 0.6204 0.0
C539 C 0.42306 0.86871 0.62396 0.0
C540 C 0.39045 0.86614 0.58772 0.0
C541 C 0.41877 0.88777 0.60927 0.0
C542 C 0.37127 0.88452 0.55297 0.0
C543 C 0.34855 0.84281 0.54351 0.0
N544 N 0.4029 0.88599 0.59177 0.0
N545 N 0.36272 0.84493 0.56244 0.0
H546 H 0.12643 0.43373 0.66563 0.0
H547 H 0.19081 0.40123 0.54605 0.0
H548 H 0.16527 0.48324 0.62424 0.0
H549 H 0.13407 0.36093 0.57508 0.0
H550 H 0.18853 0.42766 0.57952 0.0
H551 H 0.13608 0.40321 0.63727 0.0
C552 C 0.13725 0.43811 0.65076 0.0
C553 C 0.14485 0.46108 0.64712 0.0
C554 C 0.17675 0.41289 0.57863 0.0
C555 C 0.15597 0.42635 0.61477 0.0
C556 C 0.17808 0.39775 0.5596 0.0
C557 C 0.16241 0.37902 0.55765 0.0
C558 C 0.15977 0.40913 0.59591 0.0
C559 C 0.14631 0.37533 0.57576 0.0
C560 C 0.14266 0.42072 0.63456 0.0
C561 C 0.15882 0.4658 0.62756 0.0
N562 N 0.14532 0.39034 0.59409 0.0
N563 N 0.16386 0.44859 0.61205 0.0
H564 H 0.5431 0.14471 0.64198 0.0
H565 H 0.66309 0.09871 0.58828 0.0
H566 H 0.58322 0.08864 0.67223 0.0
H567 H 0.62743 0.16036 0.56388 0.0
H568 H 0.63518 0.09591 0.62038 0.0
H569 H 0.57479 0.15185 0.61442 0.0
C570 C 0.55864 0.13397 0.64292 0.0
C571 C 0.56043 0.11591 0.65931 0.0
C572 C 0.63358 0.11017 0.60814 0.0
C573 C 0.59677 0.12394 0.62771 0.0
C574 C 0.64951 0.11178 0.58978 0.0
C575 C 0.64746 0.12969 0.57323 0.0
C576 C 0.61535 0.12647 0.60987 0.0
C577 C 0.62961 0.1462 0.57615 0.0
C578 C 0.57676 0.1381 0.62719 0.0
C579 C 0.58105 0.10269 0.65982 0.0
N580 N 0.61411 0.14407 0.59397 0.0
N581 N 0.59833 0.10683 0.6441 0.0
H582 H 0.88813 0.56615 0.67397 0.0
H583 H 0.81242 0.61393 0.56716 0.0
H584 H 0.82817 0.53055 0.6452 0.0
H585 H 0.87918 0.64265 0.58744 0.0
H586 H 0.81392 0.58783 0.60071 0.0
H587 H 0.88096 0.59871 0.64741 0.0
C588 C 0.87327 0.5653 0.6623 0.0
C589 C 0.85891 0.54546 0.66157 0.0
C590 C 0.82814 0.6 0.59794 0.0
C591 C 0.85067 0.58259 0.63115 0.0
C592 C 0.82728 0.61494 0.57881 0.0
C593 C 0.84587 0.63026 0.57429 0.0
C594 C 0.84772 0.60037 0.61269 0.0
C595 C 0.86458 0.63093 0.5901 0.0
C596 C 0.86924 0.58386 0.64711 0.0
C597 C 0.83986 0.54537 0.64617 0.0
N598 N 0.86513 0.61602 0.60849 0.0
N599 N 0.83641 0.56356 0.63144 0.0
H600 H 0.37383 0.45137 0.15675 0.0
H601 H 0.4453 0.33797 0.11735 0.0
H602 H 0.34912 0.40239 0.10502 0.0
H603 H 0.47138 0.38918 0.16615 0.0
H604 H 0.40872 0.35973 0.11472 0.0
H605 H 0.40829 0.42708 0.16268 0.0
C606 C 0.37555 0.43542 0.14674 0.0
C607 C 0.3586 0.42899 0.13025 0.0
C608 C 0.42241 0.36617 0.12607 0.0
C609 C 0.39815 0.40112 0.1369 0.0
C610 C 0.44332 0.35374 0.12758 0.0
C611 C 0.4615 0.36183 0.14191 0.0
C612 C 0.41964 0.38683 0.13897 0.0
C613 C 0.45789 0.38234 0.15481 0.0
C614 C 0.39528 0.42157 0.15011 0.0
C615 C 0.36177 0.40809 0.11785 0.0
N616 N 0.43741 0.39416 0.15297 0.0
N617 N 0.38123 0.39496 0.12134 0.0
H618 H 0.45986 0.58013 0.83151 0.0
H619 H 0.33052 0.58124 0.88505 0.0
H620 H 0.43109 0.63884 0.86905 0.0
H621 H 0.36258 0.52097 0.85305 0.0
H622 H 0.36631 0.60348 0.87766 0.0
H623 H 0.4233 0.55906 0.83739 0.0
C624 C 0.44583 0.58863 0.84094 0.0
C625 C 0.44858 0.61125 0.84987 0.0
C626 C 0.36547 0.58539 0.87225 0.0
C627 C 0.40662 0.58718 0.85671 0.0
C628 C 0.34505 0.57269 0.87646 0.0
C629 C 0.34357 0.54919 0.86972 0.0
C630 C 0.38448 0.57451 0.86117 0.0
C631 C 0.36293 0.53902 0.85863 0.0
C632 C 0.42495 0.57656 0.84433 0.0
C633 C 0.42976 0.62139 0.86192 0.0
N634 N 0.38255 0.55173 0.85471 0.0
N635 N 0.40958 0.60926 0.86502 0.0
H636 H 0.413 0.33747 0.90888 0.0
H637 H 0.32254 0.42388 0.84707 0.0
H638 H 0.3999 0.33712 0.83471 0.0
H639 H 0.34577 0.43063 0.91839 0.0
H640 H 0.34606 0.38836 0.84325 0.0
H641 H 0.38357 0.36777 0.91359 0.0
C642 C 0.40381 0.34363 0.89357 0.0
C643 C 0.40912 0.3349 0.87131 0.0
C644 C 0.34584 0.39755 0.85977 0.0
C645 C 0.37538 0.36975 0.87662 0.0
C646 C 0.33238 0.41777 0.86199 0.0
C647 C 0.33239 0.43034 0.88302 0.0
C648 C 0.35924 0.38984 0.87877 0.0
C649 C 0.34543 0.42163 0.90178 0.0
C650 C 0.38701 0.36099 0.89629 0.0
C651 C 0.39649 0.34347 0.85217 0.0
N652 N 0.3584 0.40199 0.89917 0.0
N653 N 0.3803 0.36056 0.85524 0.0
H654 H 0.62864 0.4008 0.8566 0.0
H655 H 0.51131 0.36651 0.9247 0.0
H656 H 0.60255 0.43774 0.9169 0.0
H657 H 0.53538 0.33062 0.86294 0.0
H658 H 0.54501 0.39244 0.92225 0.0
H659 H 0.59502 0.37449 0.8588 0.0
C660 C 0.61587 0.40336 0.87032 0.0
C661 C 0.61842 0.4215 0.88659 0.0
C662 C 0.54294 0.37891 0.9092 0.0
C663 C 0.57992 0.3915 0.8892 0.0
C664 C 0.52367 0.36408 0.9106 0.0
C665 C 0.5205 0.34636 0.894 0.0
C666 C 0.55923 0.37602 0.89109 0.0
C667 C 0.53712 0.34406 0.87611 0.0
C668 C 0.59667 0.38835 0.87155 0.0
C669 C 0.60132 0.42402 0.90397 0.0
N670 N 0.55578 0.35871 0.87514 0.0
N671 N 0.58282 0.4092 0.90481 0.0
H672 H 0.65723 0.53389 0.87694 0.0
H673 H 0.54592 0.60202 0.82748 0.0
H674 H 0.61178 0.5067 0.82329 0.0
H675 H 0.5905 0.62898 0.88197 0.0
H676 H 0.57182 0.56849 0.82344 0.0
H677 H 0.63497 0.57022 0.8768 0.0
C678 C 0.64266 0.5356 0.86502 0.0
C679 C 0.63626 0.51713 0.85022 0.0
C680 C 0.57604 0.5818 0.83618 0.0
C681 C 0.61065 0.5587 0.85002 0.0
C682 C 0.56125 0.60099 0.8385 0.0
C683 C 0.56594 0.61828 0.85523 0.0
C684 C 0.59566 0.57979 0.85074 0.0
C685 C 0.58613 0.61603 0.86893 0.0
C686 C 0.62995 0.55637 0.86496 0.0
C687 C 0.61728 0.5204 0.83509 0.0
N688 N 0.60016 0.59705 0.86648 0.0
N689 N 0.60507 0.54072 0.83548 0.0
H690 H 0.61827 0.55656 0.07102 0.0
H691 H 0.57845 0.67601 0.13147 0.0
H692 H 0.65689 0.58918 0.12696 0.0
H693 H 0.53436 0.63469 0.08635 0.0
H694 H 0.60943 0.64685 0.12705 0.0
H695 H 0.58952 0.58783 0.0732 0.0
C696 C 0.62079 0.57038 0.08368 0.0
C697 C 0.63995 0.57018 0.09893 0.0
C698 C 0.59297 0.64423 0.11811 0.0
C699 C 0.60701 0.60604 0.10155 0.0
C700 C 0.57531 0.66086 0.12059 0.0
C701 C 0.55376 0.65772 0.10935 0.0
C702 C 0.58907 0.62446 0.10414 0.0
C703 C 0.55064 0.63777 0.09546 0.0
C704 C 0.60431 0.5882 0.08497 0.0
C705 C 0.64232 0.58859 0.11495 0.0
N706 N 0.5681 0.62193 0.09325 0.0
N707 N 0.62598 0.60578 0.11589 0.0
H708 H 0.37301 0.55039 0.16834 0.0
H709 H 0.41253 0.64241 0.07144 0.0
H710 H 0.34329 0.55369 0.09921 0.0
H711 H 0.43784 0.64357 0.14236 0.0
H712 H 0.38569 0.61103 0.08193 0.0
H713 H 0.39573 0.5855 0.15979 0.0
C714 C 0.37118 0.55854 0.15141 0.0
C715 C 0.35635 0.54899 0.13441 0.0
C716 C 0.39699 0.61825 0.09525 0.0
C717 C 0.38232 0.58912 0.1245 0.0
C718 C 0.41232 0.63619 0.08927 0.0
C719 C 0.42758 0.64552 0.106 0.0
C720 C 0.397 0.60944 0.1181 0.0
C721 C 0.42645 0.63684 0.12887 0.0
C722 C 0.38413 0.57861 0.14655 0.0
C723 C 0.35459 0.56036 0.11282 0.0
N724 N 0.41157 0.61915 0.1342 0.0
N725 N 0.36753 0.57972 0.10844 0.0
H726 H 0.66826 0.43431 0.15307 0.0
H727 H 0.55148 0.39001 0.09012 0.0
H728 H 0.63217 0.47271 0.09932 0.0
H729 H 0.58219 0.35507 0.14928 0.0
H730 H 0.58215 0.41948 0.09221 0.0
H731 H 0.63805 0.40412 0.15098 0.0
C732 C 0.65401 0.4364 0.14083 0.0
C733 C 0.65274 0.45609 0.12637 0.0
C734 C 0.5822 0.40539 0.10475 0.0
C735 C 0.61818 0.42162 0.12386 0.0
C736 C 0.5647 0.38851 0.10355 0.0
C737 C 0.56425 0.37005 0.11957 0.0
C738 C 0.59948 0.4038 0.12206 0.0
C739 C 0.58184 0.36903 0.1366 0.0
C740 C 0.63676 0.41918 0.13967 0.0
C741 C 0.63386 0.45787 0.11085 0.0
N742 N 0.59877 0.38567 0.13739 0.0
N743 N 0.61737 0.44087 0.10999 0.0
H744 H 0.06846 0.30747 0.5158 0.0
H745 H 0.95767 0.2903 0.4329 0.0
H746 H 0.0725 0.30922 0.44062 0.0
H747 H 0.95555 0.28324 0.50785 0.0
H748 H 0.0001 0.29485 0.435 0.0
H749 H 0.02742 0.29643 0.51294 0.0
C750 C 0.06074 0.30543 0.49867 0.0
C751 C 0.07389 0.30943 0.47841 0.0
C752 C 0.99035 0.29209 0.45096 0.0
C753 C 0.02682 0.29685 0.475 0.0
C754 C 0.96613 0.28946 0.44977 0.0
C755 C 0.95301 0.28658 0.47025 0.0
C756 C 0.0015 0.29194 0.47278 0.0
C757 C 0.96492 0.28558 0.49161 0.0
C758 C 0.03729 0.29908 0.49704 0.0
C759 C 0.06299 0.30638 0.45669 0.0
N760 N 0.98845 0.28844 0.49233 0.0
N761 N 0.04003 0.30044 0.45556 0.0
H762 H 0.71936 0.03228 0.56058 0.0
H763 H 0.72096 0.92906 0.46662 0.0
H764 H 0.71393 0.04303 0.48626 0.0
H765 H 0.70526 0.91904 0.53959 0.0
H766 H 0.72787 0.97047 0.47434 0.0
H767 H 0.72349 0.99035 0.55365 0.0
C768 C 0.71932 0.02587 0.5428 0.0
C769 C 0.71597 0.0411 0.52398 0.0
C770 C 0.72318 0.95912 0.48868 0.0
C771 C 0.72075 0.99329 0.51597 0.0
C772 C 0.71932 0.93549 0.48432 0.0
C773 C 0.71221 0.92067 0.50244 0.0
C774 C 0.72007 0.96792 0.51134 0.0
C775 C 0.71043 0.92993 0.52505 0.0
C776 C 0.72162 0.00195 0.53887 0.0
C777 C 0.71616 0.03185 0.5013 0.0
N778 N 0.71416 0.95302 0.52884 0.0
N779 N 0.71835 0.00851 0.49793 0.0
H780 H 0.91796 0.72655 0.45943 0.0
H781 H 0.04913 0.72275 0.50682 0.0
H782 H 0.93838 0.6984 0.52615 0.0
H783 H 0.03159 0.73483 0.43459 0.0
H784 H 0.00767 0.72297 0.51649 0.0
H785 H 0.95856 0.73824 0.45252 0.0
C786 C 0.9309 0.7231 0.47275 0.0
C787 C 0.92487 0.7112 0.49326 0.0
C788 C 0.01289 0.72585 0.49856 0.0
C789 C 0.97117 0.72459 0.48552 0.0
C790 C 0.03658 0.72579 0.49301 0.0
C791 C 0.04383 0.72836 0.46977 0.0
C792 C -0.00371 0.72846 0.48076 0.0
C793 C 0.02677 0.73251 0.4527 0.0
C794 C 0.95405 0.72974 0.46877 0.0
C795 C 0.94232 0.70725 0.50996 0.0
N796 N 0.00373 0.73215 0.45849 0.0
N797 N 0.9647 0.7138 0.50565 0.0
H798 H 0.27188 0.05874 0.51016 0.0
H799 H 0.29207 0.94489 0.43398 0.0
H800 H 0.28443 0.06013 0.43592 0.0
H801 H 0.26951 0.94332 0.50583 0.0
H802 H 0.28519 0.9869 0.43326 0.0
H803 H 0.26661 0.01654 0.50799 0.0
C804 C 0.27322 0.05021 0.49334 0.0
C805 C 0.27896 0.06293 0.47324 0.0
C806 C 0.28145 0.97734 0.4491 0.0
C807 C 0.27319 0.01458 0.47067 0.0
C808 C 0.28541 0.95334 0.44954 0.0
C809 C 0.28169 0.94064 0.47011 0.0
C810 C 0.27396 0.98876 0.46946 0.0
C811 C 0.27283 0.95246 0.48965 0.0
C812 C 0.27019 0.0261 0.49211 0.0
C813 C 0.28024 0.05099 0.45189 0.0
N814 N 0.26958 0.97592 0.48895 0.0
N815 N 0.27774 0.02743 0.45122 0.0
H816 H 0.53642 0.95065 0.26983 0.0
H817 H 0.4568 0.06454 0.28132 0.0
H818 H 0.46098 0.9488 0.26976 0.0
H819 H 0.53136 0.06312 0.29262 0.0
H820 H 0.45828 0.02345 0.2696 0.0
H821 H 0.53499 0.99312 0.27017 0.0
C822 C 0.51953 0.95917 0.26957 0.0
C823 C 0.49878 0.94613 0.27016 0.0
C824 C 0.47432 0.03224 0.27443 0.0
C825 C 0.49704 -0.00517 0.27077 0.0
C826 C 0.4735 0.05568 0.28109 0.0
C827 C 0.49394 0.06717 0.28826 0.0
C828 C 0.49575 0.02031 0.27484 0.0
C829 C 0.51512 0.05487 0.28753 0.0
C830 C 0.51873 0.98345 0.26983 0.0
C831 C 0.47742 0.95815 0.26955 0.0
N832 N 0.51544 0.03209 0.28111 0.0
N833 N 0.47709 0.98186 0.27019 0.0
H834 H 0.91977 0.44885 0.31104 0.0
H835 H 0.03733 0.50644 0.26399 0.0
H836 H 0.9217 0.51181 0.26984 0.0
H837 H 0.03489 0.44146 0.30189 0.0
H838 H 0.99475 0.50621 0.26179 0.0
H839 H 0.96147 0.44352 0.30406 0.0
C840 C 0.92893 0.46148 0.30037 0.0
C841 C 0.91729 0.48098 0.29126 0.0
C842 C 0.00353 0.49185 0.27034 0.0
C843 C 0.9651 0.47501 0.28326 0.0
C844 C 0.02787 0.49195 0.27158 0.0
C845 C 0.03969 0.4741 0.28344 0.0
C846 C 0.9909 0.47387 0.28119 0.0
C847 C 0.02651 0.45569 0.29276 0.0
C848 C 0.95275 0.45839 0.29635 0.0
C849 C 0.93001 0.49662 0.27737 0.0
N850 N 0.00281 0.4562 0.2917 0.0
N851 N 0.95329 0.49343 0.274 0.0
H852 H 0.44737 0.92321 0.71004 0.0
H853 H 0.51781 0.04243 0.71584 0.0
H854 H 0.52258 0.92694 0.71459 0.0
H855 H 0.44263 0.03813 0.7205 0.0
H856 H 0.52002 0.0001 0.71981 0.0
H857 H 0.44525 0.96493 0.71824 0.0
C858 C 0.46344 0.93275 0.71304 0.0
C859 C 0.48521 0.92163 0.7113 0.0
C860 C 0.50305 0.00843 0.72028 0.0
C861 C 0.48292 0.96948 0.72048 0.0
C862 C 0.50177 0.03262 0.71799 0.0
C863 C 0.47998 0.0438 0.71749 0.0
C864 C 0.48238 -0.00469 0.72182 0.0
C865 C 0.4598 0.03023 0.72058 0.0
C866 C 0.46221 0.95659 0.71775 0.0
C867 C 0.50543 0.93483 0.71557 0.0
N868 N 0.46147 0.00665 0.72228 0.0
N869 N 0.50381 0.95813 0.71964 0.0
H870 H 0.94838 0.4326 0.67664 0.0
H871 H 0.05031 0.5244 0.70281 0.0
H872 H 0.93562 0.49933 0.70927 0.0
H873 H 0.05421 0.47145 0.64932 0.0
H874 H 0.01047 0.51142 0.71199 0.0
H875 H 0.98982 0.44242 0.67381 0.0
C876 C 0.95433 0.44917 0.68354 0.0
C877 C 0.93848 0.46527 0.693 0.0
C878 C 0.02015 0.50264 0.69833 0.0
C879 C 0.98584 0.4766 0.68973 0.0
C880 C 0.04284 0.50998 0.6931 0.0
C881 C 0.05546 0.4991 0.67513 0.0
C882 C 0.01025 0.48406 0.68574 0.0
C883 C 0.04499 0.4805 0.66313 0.0
C884 C 0.97796 0.45481 0.68178 0.0
C885 C 0.94722 0.48649 0.70167 0.0
N886 N 0.02301 0.47355 0.66866 0.0
N887 N 0.97033 0.49161 0.69972 0.0
H888 H 0.26257 0.44517 0.94702 0.0
H889 H 0.26797 0.53013 0.05755 0.0
H890 H 0.26911 0.52005 0.94225 0.0
H891 H 0.28505 0.45683 0.0604 0.0
H892 H 0.25839 0.52575 0.01625 0.0
H893 H 0.26075 0.44859 0.98955 0.0
C894 C 0.2632 0.46235 0.95488 0.0
C895 C 0.26629 0.48235 0.94113 0.0
C896 C 0.264 0.5106 0.026 0.0
C897 C 0.26422 0.48632 0.98962 0.0
C898 C 0.26942 0.51305 0.04958 0.0
C899 C 0.27764 0.49387 0.06234 0.0
C900 C 0.26664 0.48879 0.01517 0.0
C901 C 0.27905 0.47213 0.05113 0.0
C902 C 0.26228 0.46426 0.97913 0.0
C903 C 0.26701 0.50416 0.95224 0.0
N904 N 0.27376 0.4702 0.02811 0.0
N905 N 0.26614 0.50556 0.97586 0.0
H906 H 0.53411 0.26731 0.94757 0.0
H907 H 0.46767 0.2628 0.07005 0.0
H908 H 0.45926 0.26127 0.95493 0.0
H909 H 0.5394 0.28462 0.06161 0.0
H910 H 0.46629 0.25287 0.0286 0.0
H911 H 0.53804 0.26416 0.9899 0.0
C912 C 0.51852 0.26491 0.95803 0.0
C913 C 0.49628 0.26495 0.94775 0.0
C914 C 0.48241 0.25957 0.0359 0.0
C915 C 0.50068 0.26144 -0.00387 0.0
C916 C 0.48323 0.2652 0.05957 0.0
C917 C 0.50357 0.27492 0.06922 0.0
C918 C 0.50208 0.26362 0.02182 0.0
C919 C 0.52325 0.27748 0.05483 0.0
C920 C 0.52079 0.26321 0.9822 0.0
C921 C 0.47672 0.26167 0.96216 0.0
N922 N 0.52195 0.27208 0.0318 0.0
N923 N 0.47936 0.2603 0.98565 0.0
H924 H 0.70965 0.44216 0.94033 0.0
H925 H 0.72518 0.53143 0.04407 0.0
H926 H 0.72584 0.51495 0.92979 0.0
H927 H 0.72458 0.45675 0.0537 0.0
H928 H 0.72981 0.52549 0.00216 0.0
H929 H 0.71911 0.44655 0.98159 0.0
C930 C 0.71547 0.45901 0.94665 0.0
C931 C 0.71661 0.47831 0.93169 0.0
C932 C 0.72906 0.51039 0.01347 0.0
C933 C 0.72725 0.48352 0.97894 0.0
C934 C 0.7264 0.51377 0.03741 0.0
C935 C 0.72408 0.49454 0.05234 0.0
C936 C 0.72905 0.48762 0.00438 0.0
C937 C 0.72604 0.47208 0.04279 0.0
C938 C 0.72094 0.46149 0.97021 0.0
C939 C 0.72451 0.49966 0.94075 0.0
N940 N 0.72799 0.46923 0.01936 0.0
N941 N 0.72917 0.50179 0.96389 0.0
H942 H 0.45713 0.70791 0.91959 0.0
H943 H 0.53645 0.7209 0.03351 0.0
H944 H 0.53099 0.69275 0.92145 0.0
H945 H 0.46128 0.71453 0.03525 0.0
H946 H 0.53503 0.72067 0.99091 0.0
H947 H 0.45904 0.72008 0.96045 0.0
C948 C 0.47381 0.70741 0.92849 0.0
C949 C 0.49388 0.69899 0.91722 0.0
C950 C 0.51884 0.71964 0.00065 0.0
C951 C 0.49616 0.71297 0.96384 0.0
C952 C 0.51961 0.71988 0.02496 0.0
C953 C 0.49897 0.71736 0.03794 0.0
C954 C 0.49728 0.71703 0.98928 0.0
C955 C 0.47764 0.7162 0.02591 0.0
C956 C 0.47486 0.71432 0.95181 0.0
C957 C 0.51503 0.69884 0.92957 0.0
N958 N 0.47737 0.71582 0.00223 0.0
N959 N 0.51559 0.70557 0.95228 0.0
H960 H 0.22839 0.3111 0.47709 0.0
H961 H 0.243 0.17402 0.4989 0.0
H962 H 0.1729 0.26635 0.50169 0.0
H963 H 0.30081 0.22008 0.48385 0.0
H964 H 0.21654 0.20734 0.49732 0.0
H965 H 0.25475 0.27754 0.47679 0.0
C966 C 0.22173 0.29422 0.48237 0.0
C967 C 0.19844 0.29153 0.48949 0.0
C968 C 0.23501 0.21016 0.49436 0.0
C969 C 0.22844 0.25312 0.48916 0.0
C970 C 0.25013 0.19113 0.49522 0.0
C971 C 0.27416 0.19429 0.49157 0.0
C972 C 0.24396 0.23249 0.48971 0.0
C973 C 0.28241 0.21686 0.48686 0.0
C974 C 0.23679 0.27509 0.48223 0.0
C975 C 0.19075 0.26925 0.49614 0.0
N976 N 0.26733 0.23512 0.48606 0.0
N977 N 0.20572 0.25092 0.49582 0.0
H978 H 0.75462 0.15074 0.49522 0.0
H979 H 0.84252 0.23851 0.5586 0.0
H980 H 0.75756 0.1589 0.57005 0.0
H981 H 0.84067 0.22642 0.48426 0.0
H982 H 0.81338 0.20766 0.56378 0.0
H983 H 0.78789 0.17685 0.49145 0.0
C984 C 0.7623 0.158 0.5109 0.0
C985 C 0.75318 0.15278 0.53299 0.0
C986 C 0.81952 0.21166 0.54637 0.0
C987 C 0.79137 0.18282 0.52877 0.0
C988 C 0.83618 0.22923 0.5434 0.0
C989 C 0.84386 0.2352 0.52094 0.0
C990 C 0.81053 0.20006 0.52673 0.0
C991 C 0.8351 0.22256 0.50188 0.0
C992 C 0.78137 0.17289 0.50873 0.0
C993 C 0.764 0.16255 0.55268 0.0
N994 N 0.8188 0.20573 0.50521 0.0
N995 N 0.78246 0.17726 0.5501 0.0
H996 H 0.82441 0.73374 0.51445 0.0
H997 H 0.69266 0.76481 0.47973 0.0
H998 H 0.77665 0.68359 0.48455 0.0
H999 H 0.74107 0.81347 0.51103 0.0
H1000 H 0.72318 0.73492 0.48033 0.0
H1001 H 0.79407 0.76336 0.5122 0.0
C1002 C 0.80753 0.72895 0.50737 0.0
C1003 C 0.80304 0.70612 0.49974 0.0
C1004 C 0.72709 0.75215 0.48704 0.0
C1005 C 0.76812 0.74003 0.49714 0.0
C1006 C 0.70969 0.76921 0.48671 0.0
C1007 C 0.71431 0.79165 0.49538 0.0
C1008 C 0.74923 0.75762 0.4961 0.0
C1009 C 0.73668 0.7964 0.5042 0.0
C1010 C 0.79019 0.7459 0.50609 0.0
C1011 C 0.78085 0.70097 0.49067 0.0
N1012 N 0.75327 0.77953 0.50434 0.0
N1013 N 0.76417 0.7178 0.48966 0.0
H1014 H 0.15693 0.7664 0.46549 0.0
H1015 H 0.29366 0.78402 0.44176 0.0
H1016 H 0.20375 0.70994 0.44807 0.0
H1017 H 0.24724 0.8391 0.46403 0.0
H1018 H 0.26069 0.75688 0.44201 0.0
H1019 H 0.18958 0.79364 0.46287 0.0
C1020 C 0.17407 0.75973 0.46103 0.0
C1021 C 0.17764 0.73584 0.45708 0.0
C1022 C 0.25774 0.77491 0.44681 0.0
C1023 C 0.21513 0.76694 0.45411 0.0
C1024 C 0.27655 0.79042 0.44667 0.0
C1025 C 0.27321 0.81385 0.45294 0.0
C1026 C 0.23544 0.78293 0.45323 0.0
C1027 C 0.25065 0.82118 0.45913 0.0
C1028 C 0.19272 0.7753 0.45957 0.0
C1029 C 0.20022 0.72821 0.45132 0.0
N1030 N 0.23264 0.80577 0.45913 0.0
N1031 N 0.21814 0.74372 0.45006 0.0
H1032 H 0.50888 0.16974 0.25755 0.0
H1033 H 0.52011 0.30504 0.22523 0.0
H1034 H 0.5107 0.22471 0.30912 0.0
H1035 H 0.51581 0.24962 0.17429 0.0
H1036 H 0.51694 0.27606 0.25631 0.0
H1037 H 0.51134 0.19899 0.22688 0.0
C1038 C 0.50974 0.18798 0.26244 0.0
C1039 C 0.50964 0.19479 0.28595 0.0
C1040 C 0.51669 0.27026 0.23833 0.0
C1041 C 0.51254 0.22842 0.25086 0.0
C1042 C 0.51855 0.28679 0.22057 0.0
C1043 C 0.51824 0.27974 0.19713 0.0
C1044 C 0.51453 0.24653 0.23257 0.0
C1045 C 0.51614 0.25586 0.19212 0.0
C1046 C 0.51116 0.20469 0.24489 0.0
C1047 C 0.51074 0.21868 0.29122 0.0
N1048 N 0.51437 0.24013 0.20969 0.0
N1049 N 0.51221 0.23466 0.27379 0.0
H1050 H 0.81983 0.48932 0.25236 0.0
H1051 H 0.69346 0.52791 0.2071 0.0
H1052 H 0.76327 0.5085 0.29844 0.0
H1053 H 0.75119 0.51046 0.16179 0.0
H1054 H 0.71876 0.52164 0.24086 0.0
H1055 H 0.79484 0.49752 0.219 0.0
C1056 C 0.80213 0.49525 0.25547 0.0
C1057 C 0.7936 0.49818 0.27823 0.0
C1058 C 0.72589 0.51927 0.22352 0.0
C1059 C 0.76486 0.50764 0.24005 0.0
C1060 C 0.71147 0.52286 0.20425 0.0
C1061 C 0.72022 0.51964 0.1816 0.0
C1062 C 0.74919 0.51237 0.2201 0.0
C1063 C 0.74369 0.5131 0.17893 0.0
C1064 C 0.78787 0.49997 0.2364 0.0
C1065 C 0.77054 0.50598 0.28119 0.0
N1066 N 0.75732 0.50962 0.19795 0.0
N1067 N 0.75694 0.51041 0.26229 0.0
H1068 H 0.50278 0.70371 0.19712 0.0
H1069 H 0.51735 0.83989 0.22409 0.0
H1070 H 0.49763 0.75758 0.14481 0.0
H1071 H 0.52632 0.78608 0.27595 0.0
H1072 H 0.51083 0.80982 0.19467 0.0
H1073 H 0.51177 0.73353 0.22625 0.0
C1074 C 0.50351 0.7218 0.19176 0.0
C1075 C 0.49939 0.72817 0.16851 0.0
C1076 C 0.51432 0.80457 0.21246 0.0
C1077 C 0.50972 0.76236 0.20172 0.0
C1078 C 0.51807 0.82174 0.22928 0.0
C1079 C 0.52229 0.81548 0.25254 0.0
C1080 C 0.51469 0.78096 0.21895 0.0
C1081 C 0.52309 0.7917 0.25823 0.0
C1082 C 0.5087 0.73881 0.20839 0.0
C1083 C 0.50064 0.75187 0.16254 0.0
N1084 N 0.5192 0.77529 0.24156 0.0
N1085 N 0.50566 0.7681 0.17905 0.0
H1086 H 0.1581 0.4824 0.24157 0.0
H1087 H 0.26436 0.54933 0.181 0.0
H1088 H 0.18079 0.5512 0.26244 0.0
H1089 H 0.2528 0.47519 0.17405 0.0
H1090 H 0.23171 0.55139 0.20841 0.0
H1091 H 0.19056 0.48059 0.21394 0.0
C1092 C 0.16985 0.49717 0.24028 0.0
C1093 C 0.16677 0.51698 0.25435 0.0
C1094 C 0.23637 0.53467 0.20092 0.0
C1095 C 0.2039 0.515 0.22279 0.0
C1096 C 0.25497 0.53348 0.18525 0.0
C1097 C 0.26131 0.51205 0.17525 0.0
C1098 C 0.22388 0.51433 0.20643 0.0
C1099 C 0.24856 0.49207 0.18141 0.0
C1100 C 0.18843 0.49607 0.22458 0.0
C1101 C 0.18256 0.53556 0.25198 0.0
N1102 N 0.23037 0.49371 0.19655 0.0
N1103 N 0.20044 0.53414 0.23646 0.0
H1104 H 0.50359 0.72712 0.81537 0.0
H1105 H 0.46296 0.76262 0.68675 0.0
H1106 H 0.47962 0.67711 0.76429 0.0
H1107 H 0.48227 0.81216 0.74022 0.0
H1108 H 0.46962 0.73088 0.71441 0.0
H1109 H 0.49695 0.75833 0.78739 0.0
C1110 C 0.497 0.72268 0.79823 0.0
C1111 C 0.49212 0.69945 0.79217 0.0
C1112 C 0.47234 0.74871 0.72008 0.0
C1113 C 0.48439 0.73519 0.76002 0.0
C1114 C 0.46851 0.76684 0.70432 0.0
C1115 C 0.47207 0.79008 0.71118 0.0
C1116 C 0.47983 0.75389 0.74283 0.0
C1117 C 0.4793 0.79451 0.73415 0.0
C1118 C 0.49315 0.74054 0.78226 0.0
C1119 C 0.4836 0.69477 0.7697 0.0
N1120 N 0.48298 0.77658 0.74911 0.0
N1121 N 0.47997 0.7125 0.75442 0.0
H1122 H 0.22962 0.50728 0.83177 0.0
H1123 H 0.21292 0.54251 0.69792 0.0
H1124 H 0.28676 0.51993 0.7842 0.0
H1125 H 0.15557 0.52809 0.74472 0.0
H1126 H 0.24011 0.53748 0.73025 0.0
H1127 H 0.20212 0.51757 0.8009 0.0
C1128 C 0.23639 0.51226 0.81485 0.0
C1129 C 0.26052 0.5126 0.8105 0.0
C1130 C 0.22157 0.53555 0.73349 0.0
C1131 C 0.22916 0.52445 0.77513 0.0
C1132 C 0.20602 0.53847 0.71504 0.0
C1133 C 0.18194 0.53552 0.71858 0.0
C1134 C 0.21301 0.52957 0.75565 0.0
C1135 C 0.174 0.53041 0.74117 0.0
C1136 C 0.22068 0.51817 0.79724 0.0
C1137 C 0.2683 0.51929 0.78829 0.0
N1138 N 0.18952 0.52743 0.75882 0.0
N1139 N 0.25266 0.52487 0.77142 0.0
H1140 H 0.50099 0.20338 0.70785 0.0
H1141 H 0.46288 0.22938 0.83968 0.0
H1142 H 0.47465 0.15082 0.75492 0.0
H1143 H 0.49211 0.28135 0.79365 0.0
H1144 H 0.46529 0.20077 0.8082 0.0
H1145 H 0.49615 0.23261 0.73849 0.0
C1146 C 0.49414 0.19798 0.72461 0.0
C1147 C 0.4883 0.1746 0.72886 0.0
C1148 C 0.47113 0.21844 0.80496 0.0
C1149 C 0.48271 0.20797 0.764 0.0
C1150 C 0.46974 0.2348 0.82293 0.0
C1151 C 0.47739 0.25778 0.81931 0.0
C1152 C 0.48023 0.22509 0.78321 0.0
C1153 C 0.48608 0.26382 0.79724 0.0
C1154 C 0.49139 0.21469 0.7421 0.0
C1155 C 0.47946 0.16863 0.75089 0.0
N1156 N 0.48731 0.24755 0.78004 0.0
N1157 N 0.47698 0.18521 0.76765 0.0
H1158 H 0.69447 0.43503 0.77911 0.0
H1159 H 0.82933 0.46026 0.75198 0.0
H1160 H 0.74541 0.45388 0.8314 0.0
H1161 H 0.77794 0.44619 0.69865 0.0
H1162 H 0.79944 0.45403 0.78168 0.0
H1163 H 0.72549 0.4351 0.74972 0.0
C1164 C 0.71219 0.43901 0.78444 0.0
C1165 C 0.71732 0.44464 0.8077 0.0
C1166 C 0.79472 0.45219 0.76348 0.0
C1167 C 0.75283 0.44481 0.77422 0.0
C1168 C 0.81179 0.45573 0.74651 0.0
C1169 C 0.80608 0.45394 0.72279 0.0
C1170 C 0.77174 0.44684 0.75671 0.0
C1171 C 0.78309 0.4479 0.71674 0.0
C1172 C 0.72987 0.43909 0.76766 0.0
C1173 C 0.7406 0.44961 0.81364 0.0
N1174 N 0.76672 0.4447 0.73359 0.0
N1175 N 0.75745 0.44968 0.79699 0.0
loop_
_geom_bond_atom_site_label_1
_geom_bond_atom_site_label_2
_geom_bond_distance
_geom_bond_site_symmetry_2
_ccdc_geom_bond_type
C0 O1 1.160 . S
C0 O7 1.185 . S
O1 C0 1.160 . S
O2 Zn3 1.899 . S
O2 C10 1.284 . S
Zn3 O2 1.899 . S
Zn3 O4 2.032 . S
Zn3 O7 2.086 . S
Zn3 O12 1.977 . S
O4 Zn3 2.032 . S
O4 C8 1.278 . S
C5 O6 1.203 . S
C5 O12 1.267 . S
O6 C5 1.203 . S
O7 C0 1.185 . S
O7 Zn3 2.086 . S
C8 O4 1.278 . S
C8 O9 1.211 . S
O9 C8 1.211 . S
C10 O2 1.284 . S
C10 O11 1.273 . S
O11 C10 1.273 . S
O12 Zn3 1.977 . S
O12 C5 1.267 . S
C13 O14 1.160 . S
C13 O20 1.185 . S
O14 C13 1.160 . S
O15 Zn16 1.899 . S
O15 C23 1.284 . S
Zn16 O15 1.899 . S
Zn16 O17 2.032 . S
Zn16 O20 2.086 . S
Zn16 O25 1.977 . S
O17 Zn16 2.032 . S
O17 C21 1.278 . S
C18 O19 1.203 . S
C18 O25 1.267 . S
O19 C18 1.203 . S
O20 C13 1.185 . S
O20 Zn16 2.086 . S
C21 O17 1.278 . S
C21 O22 1.211 . S
O22 C21 1.211 . S
C23 O15 1.284 . S
C23 O24 1.273 . S
O24 C23 1.273 . S
O25 Zn16 1.977 . S
O25 C18 1.267 . S
C26 O27 1.160 . S
C26 O33 1.185 . S
O27 C26 1.160 . S
O28 Zn29 1.899 . S
O28 C36 1.284 . S
Zn29 O28 1.899 . S
Zn29 O30 2.032 . S
Zn29 O33 2.086 . S
Zn29 O38 1.977 . S
O30 Zn29 2.032 . S
O30 C34 1.278 . S
C31 O32 1.203 . S
C31 O38 1.267 . S
O32 C31 1.203 . S
O33 C26 1.185 . S
O33 Zn29 2.086 . S
C34 O30 1.278 . S
C34 O35 1.211 . S
O35 C34 1.211 . S
C36 O28 1.284 . S
C36 O37 1.273 . S
O37 C36 1.273 . S
O38 Zn29 1.977 . S
O38 C31 1.267 . S
C39 O40 1.160 . S
C39 O46 1.185 . S
O40 C39 1.160 . S
O41 Zn42 1.899 . S
O41 C49 1.284 . S
Zn42 O41 1.899 . S
Zn42 O43 2.032 . S
Zn42 O46 2.086 . S
Zn42 O51 1.977 . S
O43 Zn42 2.032 . S
O43 C47 1.278 . S
C44 O45 1.203 . S
C44 O51 1.267 . S
O45 C44 1.203 . S
O46 C39 1.185 . S
O46 Zn42 2.086 . S
C47 O43 1.278 . S
C47 O48 1.211 . S
O48 C47 1.211 . S
C49 O41 1.284 . S
C49 O50 1.273 . S
O50 C49 1.273 . S
O51 Zn42 1.977 . S
O51 C44 1.267 . S
C52 O53 1.160 . S
C52 O59 1.185 . S
O53 C52 1.160 . S
O54 Zn55 1.899 . S
O54 C62 1.284 . S
Zn55 O54 1.899 . S
Zn55 O56 2.032 . S
Zn55 O59 2.086 . S
Zn55 O64 1.977 . S
O56 Zn55 2.032 . S
O56 C60 1.278 . S
C57 O58 1.203 . S
C57 O64 1.267 . S
O58 C57 1.203 . S
O59 C52 1.185 . S
O59 Zn55 2.086 . S
C60 O56 1.278 . S
C60 O61 1.211 . S
O61 C60 1.211 . S
C62 O54 1.284 . S
C62 O63 1.273 . S
O63 C62 1.273 . S
O64 Zn55 1.977 . S
O64 C57 1.267 . S
C65 O66 1.160 . S
C65 O72 1.185 . S
O66 C65 1.160 . S
O67 Zn68 1.899 . S
O67 C75 1.284 . S
Zn68 O67 1.899 . S
Zn68 O69 2.032 . S
Zn68 O72 2.086 . S
Zn68 O77 1.977 . S
O69 Zn68 2.032 . S
O69 C73 1.278 . S
C70 O71 1.203 . S
C70 O77 1.267 . S
O71 C70 1.203 . S
O72 C65 1.185 . S
O72 Zn68 2.086 . S
C73 O69 1.278 . S
C73 O74 1.211 . S
O74 C73 1.211 . S
C75 O67 1.284 . S
C75 O76 1.273 . S
O76 C75 1.273 . S
O77 Zn68 1.977 . S
O77 C70 1.267 . S
C78 O79 1.160 . S
C78 O85 1.185 . S
O79 C78 1.160 . S
O80 Zn81 1.899 . S
O80 C88 1.284 . S
Zn81 O80 1.899 . S
Zn81 O82 2.032 . S
Zn81 O85 2.086 . S
Zn81 O90 1.977 . S
O82 Zn81 2.032 . S
O82 C86 1.278 . S
C83 O84 1.203 . S
C83 O90 1.267 . S
O84 C83 1.203 . S
O85 C78 1.185 . S
O85 Zn81 2.086 . S
C86 O82 1.278 . S
C86 O87 1.211 . S
O87 C86 1.211 . S
C88 O80 1.284 . S
C88 O89 1.273 . S
O89 C88 1.273 . S
O90 Zn81 1.977 . S
O90 C83 1.267 . S
C91 O92 1.160 . S
C91 O98 1.185 . S
O92 C91 1.160 . S
O93 Zn94 1.899 . S
O93 C101 1.284 . S
Zn94 O93 1.899 . S
Zn94 O95 2.032 . S
Zn94 O98 2.086 . S
Zn94 O103 1.977 . S
O95 Zn94 2.032 . S
O95 C99 1.278 . S
C96 O97 1.203 . S
C96 O103 1.267 . S
O97 C96 1.203 . S
O98 C91 1.185 . S
O98 Zn94 2.086 . S
C99 O95 1.278 . S
C99 O100 1.211 . S
O100 C99 1.211 . S
C101 O93 1.284 . S
C101 O102 1.273 . S
O102 C101 1.273 . S
O103 Zn94 1.977 . S
O103 C96 1.267 . S
C104 O105 1.160 . S
C104 O111 1.185 . S
O105 C104 1.160 . S
O106 Zn107 1.899 . S
O106 C114 1.284 . S
Zn107 O106 1.899 . S
Zn107 O108 2.032 . S
Zn107 O111 2.086 . S
Zn107 O116 1.977 . S
O108 Zn107 2.032 . S
O108 C112 1.278 . S
C109 O110 1.203 . S
C109 O116 1.267 . S
O110 C109 1.203 . S
O111 C104 1.185 . S
O111 Zn107 2.086 . S
C112 O108 1.278 . S
C112 O113 1.211 . S
O113 C112 1.211 . S
C114 O106 1.284 . S
C114 O115 1.273 . S
O115 C114 1.273 . S
O116 Zn107 1.977 . S
O116 C109 1.267 . S
C117 O118 1.160 . S
C117 O124 1.185 . S
O118 C117 1.160 . S
O119 Zn120 1.899 . S
O119 C127 1.284 . S
Zn120 O119 1.899 . S
Zn120 O121 2.032 . S
Zn120 O124 2.086 . S
Zn120 O129 1.977 . S
O121 Zn120 2.032 . S
O121 C125 1.278 . S
C122 O123 1.203 . S
C122 O129 1.267 . S
O123 C122 1.203 . S
O124 C117 1.185 . S
O124 Zn120 2.086 . S
C125 O121 1.278 . S
C125 O126 1.211 . S
O126 C125 1.211 . S
C127 O119 1.284 . S
C127 O128 1.273 . S
O128 C127 1.273 . S
O129 Zn120 1.977 . S
O129 C122 1.267 . S
C130 O131 1.160 . S
C130 O137 1.185 . S
O131 C130 1.160 . S
O132 Zn133 1.899 . S
O132 C140 1.284 . S
Zn133 O132 1.899 . S
Zn133 O134 2.032 . S
Zn133 O137 2.086 . S
Zn133 O142 1.977 . S
O134 Zn133 2.032 . S
O134 C138 1.278 . S
C135 O136 1.203 . S
C135 O142 1.267 . S
O136 C135 1.203 . S
O137 C130 1.185 . S
O137 Zn133 2.086 . S
C138 O134 1.278 . S
C138 O139 1.211 . S
O139 C138 1.211 . S
C140 O132 1.284 . S
C140 O141 1.273 . S
O141 C140 1.273 . S
O142 Zn133 1.977 . S
O142 C135 1.267 . S
C143 O144 1.160 . S
C143 O150 1.185 . S
O144 C143 1.160 . S
O145 Zn146 1.899 . S
O145 C153 1.284 . S
Zn146 O145 1.899 . S
Zn146 O147 2.032 . S
Zn146 O150 2.086 . S
Zn146 O155 1.977 . S
O147 Zn146 2.032 . S
O147 C151 1.278 . S
C148 O149 1.203 . S
C148 O155 1.267 . S
O149 C148 1.203 . S
O150 C143 1.185 . S
O150 Zn146 2.086 . S
C151 O147 1.278 . S
C151 O152 1.211 . S
O152 C151 1.211 . S
C153 O145 1.284 . S
C153 O154 1.273 . S
O154 C153 1.273 . S
O155 Zn146 1.977 . S
O155 C148 1.267 . S
C156 O157 1.160 . S
C156 O163 1.185 . S
O157 C156 1.160 . S
O158 Zn159 1.899 . S
O158 C166 1.284 . S
Zn159 O158 1.899 . S
Zn159 O160 2.032 . S
Zn159 O163 2.086 . S
Zn159 O168 1.977 . S
O160 Zn159 2.032 . S
O160 C164 1.278 . S
C161 O162 1.203 . S
C161 O168 1.267 . S
O162 C161 1.203 . S
O163 C156 1.185 . S
O163 Zn159 2.086 . S
C164 O160 1.278 . S
C164 O165 1.211 . S
O165 C164 1.211 . S
C166 O158 1.284 . S
C166 O167 1.273 . S
O167 C166 1.273 . S
O168 Zn159 1.977 . S
O168 C161 1.267 . S
C169 O170 1.160 . S
C169 O176 1.185 . S
O170 C169 1.160 . S
O171 Zn172 1.899 . S
O171 C179 1.284 . S
Zn172 O171 1.899 . S
Zn172 O173 2.032 . S
Zn172 O176 2.086 . S
Zn172 O181 1.977 . S
O173 Zn172 2.032 . S
O173 C177 1.278 . S
C174 O175 1.203 . S
C174 O181 1.267 . S
O175 C174 1.203 . S
O176 C169 1.185 . S
O176 Zn172 2.086 . S
C177 O173 1.278 . S
C177 O178 1.211 . S
O178 C177 1.211 . S
C179 O171 1.284 . S
C179 O180 1.273 . S
O180 C179 1.273 . S
O181 Zn172 1.977 . S
O181 C174 1.267 . S
C182 O183 1.160 . S
C182 O189 1.185 . S
O183 C182 1.160 . S
O184 Zn185 1.899 . S
O184 C192 1.284 . S
Zn185 O184 1.899 . S
Zn185 O186 2.032 . S
Zn185 O189 2.086 . S
Zn185 O194 1.977 . S
O186 Zn185 2.032 . S
O186 C190 1.278 . S
C187 O188 1.203 . S
C187 O194 1.267 . S
O188 C187 1.203 . S
O189 C182 1.185 . S
O189 Zn185 2.086 . S
C190 O186 1.278 . S
C190 O191 1.211 . S
O191 C190 1.211 . S
C192 O184 1.284 . S
C192 O193 1.273 . S
O193 C192 1.273 . S
O194 Zn185 1.977 . S
O194 C187 1.267 . S
C195 O196 1.160 . S
C195 O202 1.185 . S
O196 C195 1.160 . S
O197 Zn198 1.899 . S
O197 C205 1.284 . S
Zn198 O197 1.899 . S
Zn198 O199 2.032 . S
Zn198 O202 2.086 . S
Zn198 O207 1.977 . S
O199 Zn198 2.032 . S
O199 C203 1.278 . S
C200 O201 1.203 . S
C200 O207 1.267 . S
O201 C200 1.203 . S
O202 C195 1.185 . S
O202 Zn198 2.086 . S
C203 O199 1.278 . S
C203 O204 1.211 . S
O204 C203 1.211 . S
C205 O197 1.284 . S
C205 O206 1.273 . S
O206 C205 1.273 . S
O207 Zn198 1.977 . S
O207 C200 1.267 . S
C208 O209 1.160 . S
C208 O215 1.185 . S
O209 C208 1.160 . S
O210 Zn211 1.899 . S
O210 C218 1.284 . S
Zn211 O210 1.899 . S
Zn211 O212 2.032 . S
Zn211 O215 2.086 . S
Zn211 O220 1.977 . S
O212 Zn211 2.032 . S
O212 C216 1.278 . S
C213 O214 1.203 . S
C213 O220 1.267 . S
O214 C213 1.203 . S
O215 C208 1.185 . S
O215 Zn211 2.086 . S
C216 O212 1.278 . S
C216 O217 1.211 . S
O217 C216 1.211 . S
C218 O210 1.284 . S
C218 O219 1.273 . S
O219 C218 1.273 . S
O220 Zn211 1.977 . S
O220 C213 1.267 . S
C221 O222 1.160 . S
C221 O228 1.185 . S
O222 C221 1.160 . S
O223 Zn224 1.899 . S
O223 C231 1.284 . S
Zn224 O223 1.899 . S
Zn224 O225 2.032 . S
Zn224 O228 2.086 . S
Zn224 O233 1.977 . S
O225 Zn224 2.032 . S
O225 C229 1.278 . S
C226 O227 1.203 . S
C226 O233 1.267 . S
O227 C226 1.203 . S
O228 C221 1.185 . S
O228 Zn224 2.086 . S
C229 O225 1.278 . S
C229 O230 1.211 . S
O230 C229 1.211 . S
C231 O223 1.284 . S
C231 O232 1.273 . S
O232 C231 1.273 . S
O233 Zn224 1.977 . S
O233 C226 1.267 . S
C234 O235 1.160 . S
C234 O241 1.185 . S
O235 C234 1.160 . S
O236 Zn237 1.899 . S
O236 C244 1.284 . S
Zn237 O236 1.899 . S
Zn237 O238 2.032 . S
Zn237 O241 2.086 . S
Zn237 O246 1.977 . S
O238 Zn237 2.032 . S
O238 C242 1.278 . S
C239 O240 1.203 . S
C239 O246 1.267 . S
O240 C239 1.203 . S
O241 C234 1.185 . S
O241 Zn237 2.086 . S
C242 O238 1.278 . S
C242 O243 1.211 . S
O243 C242 1.211 . S
C244 O236 1.284 . S
C244 O245 1.273 . S
O245 C244 1.273 . S
O246 Zn237 1.977 . S
O246 C239 1.267 . S
C247 O248 1.160 . S
C247 O254 1.185 . S
O248 C247 1.160 . S
O249 Zn250 1.899 . S
O249 C257 1.284 . S
Zn250 O249 1.899 . S
Zn250 O251 2.032 . S
Zn250 O254 2.086 . S
Zn250 O259 1.977 . S
O251 Zn250 2.032 . S
O251 C255 1.278 . S
C252 O253 1.203 . S
C252 O259 1.267 . S
O253 C252 1.203 . S
O254 C247 1.185 . S
O254 Zn250 2.086 . S
C255 O251 1.278 . S
C255 O256 1.211 . S
O256 C255 1.211 . S
C257 O249 1.284 . S
C257 O258 1.273 . S
O258 C257 1.273 . S
O259 Zn250 1.977 . S
O259 C252 1.267 . S
C260 O261 1.160 . S
C260 O267 1.185 . S
O261 C260 1.160 . S
O262 Zn263 1.899 . S
O262 C270 1.284 . S
Zn263 O262 1.899 . S
Zn263 O264 2.032 . S
Zn263 O267 2.086 . S
Zn263 O272 1.977 . S
O264 Zn263 2.032 . S
O264 C268 1.278 . S
C265 O266 1.203 . S
C265 O272 1.267 . S
O266 C265 1.203 . S
O267 C260 1.185 . S
O267 Zn263 2.086 . S
C268 O264 1.278 . S
C268 O269 1.211 . S
O269 C268 1.211 . S
C270 O262 1.284 . S
C270 O271 1.273 . S
O271 C270 1.273 . S
O272 Zn263 1.977 . S
O272 C265 1.267 . S
C273 O274 1.160 . S
C273 O280 1.185 . S
O274 C273 1.160 . S
O275 Zn276 1.899 . S
O275 C283 1.284 . S
Zn276 O275 1.899 . S
Zn276 O277 2.032 . S
Zn276 O280 2.086 . S
Zn276 O285 1.977 . S
O277 Zn276 2.032 . S
O277 C281 1.278 . S
C278 O279 1.203 . S
C278 O285 1.267 . S
O279 C278 1.203 . S
O280 C273 1.185 . S
O280 Zn276 2.086 . S
C281 O277 1.278 . S
C281 O282 1.211 . S
O282 C281 1.211 . S
C283 O275 1.284 . S
C283 O284 1.273 . S
O284 C283 1.273 . S
O285 Zn276 1.977 . S
O285 C278 1.267 . S
C286 O287 1.160 . S
C286 O293 1.185 . S
O287 C286 1.160 . S
O288 Zn289 1.899 . S
O288 C296 1.284 . S
Zn289 O288 1.899 . S
Zn289 O290 2.032 . S
Zn289 O293 2.086 . S
Zn289 O298 1.977 . S
O290 Zn289 2.032 . S
O290 C294 1.278 . S
C291 O292 1.203 . S
C291 O298 1.267 . S
O292 C291 1.203 . S
O293 C286 1.185 . S
O293 Zn289 2.086 . S
C294 O290 1.278 . S
C294 O295 1.211 . S
O295 C294 1.211 . S
C296 O288 1.284 . S
C296 O297 1.273 . S
O297 C296 1.273 . S
O298 Zn289 1.977 . S
O298 C291 1.267 . S
C299 O300 1.160 . S
C299 O306 1.185 . S
O300 C299 1.160 . S
O301 Zn302 1.899 . S
O301 C309 1.284 . S
Zn302 O301 1.899 . S
Zn302 O303 2.032 . S
Zn302 O306 2.086 . S
Zn302 O311 1.977 . S
O303 Zn302 2.032 . S
O303 C307 1.278 . S
C304 O305 1.203 . S
C304 O311 1.267 . S
O305 C304 1.203 . S
O306 C299 1.185 . S
O306 Zn302 2.086 . S
C307 O303 1.278 . S
C307 O308 1.211 . S
O308 C307 1.211 . S
C309 O301 1.284 . S
C309 O310 1.273 . S
O310 C309 1.273 . S
O311 Zn302 1.977 . S
O311 C304 1.267 . S
H312 C318 0.930 . S
H313 C322 0.930 . S
H314 C327 0.929 . S
H315 C325 0.929 . S
H316 C320 0.929 . S
H317 C326 0.929 . S
C318 H312 0.930 . S
C318 C319 1.367 . S
C318 C326 1.378 . S
C319 C318 1.367 . S
C319 C327 1.433 . S
C320 H316 0.929 . S
C320 C322 1.378 . S
C320 C324 1.350 . S
C321 C324 1.463 . S
C321 C326 1.350 . S
C321 N329 1.427 . S
C322 H313 0.930 . S
C322 C320 1.378 . S
C322 C323 1.367 . S
C323 C322 1.367 . S
C323 C325 1.433 . S
C324 C320 1.350 . S
C324 C321 1.463 . S
C324 N328 1.427 . S
C325 H315 0.929 . S
C325 C323 1.433 . S
C325 N328 1.384 . S
C326 H317 0.929 . S
C326 C318 1.378 . S
C326 C321 1.350 . S
C327 H314 0.929 . S
C327 C319 1.433 . S
C327 N329 1.384 . S
N328 C324 1.427 . S
N328 C325 1.384 . S
N329 C321 1.427 . S
N329 C327 1.384 . S
H330 C336 0.930 . S
H331 C340 0.930 . S
H332 C345 0.929 . S
H333 C343 0.929 . S
H334 C338 0.929 . S
H335 C344 0.929 . S
C336 H330 0.930 . S
C336 C337 1.367 . S
C336 C344 1.378 . S
C337 C336 1.367 . S
C337 C345 1.433 . S
C338 H334 0.929 . S
C338 C340 1.378 . S
C338 C342 1.350 . S
C339 C342 1.463 . S
C339 C344 1.350 . S
C339 N347 1.427 . S
C340 H331 0.930 . S
C340 C338 1.378 . S
C340 C341 1.367 . S
C341 C340 1.367 . S
C341 C343 1.433 . S
C342 C338 1.350 . S
C342 C339 1.463 . S
C342 N346 1.427 . S
C343 H333 0.929 . S
C343 C341 1.433 . S
C343 N346 1.384 . S
C344 H335 0.929 . S
C344 C336 1.378 . S
C344 C339 1.350 . S
C345 H332 0.929 . S
C345 C337 1.433 . S
C345 N347 1.384 . S
N346 C342 1.427 . S
N346 C343 1.384 . S
N347 C339 1.427 . S
N347 C345 1.384 . S
H348 C354 0.930 . S
H349 C358 0.930 . S
H350 C363 0.929 . S
H351 C361 0.929 . S
H352 C356 0.929 . S
H353 C362 0.929 . S
C354 H348 0.930 . S
C354 C355 1.367 . S
C354 C362 1.378 . S
C355 C354 1.367 . S
C355 C363 1.433 . S
C356 H352 0.929 . S
C356 C358 1.378 . S
C356 C360 1.350 . S
C357 C360 1.463 . S
C357 C362 1.350 . S
C357 N365 1.427 . S
C358 H349 0.930 . S
C358 C356 1.378 . S
C358 C359 1.367 . S
C359 C358 1.367 . S
C359 C361 1.433 . S
C360 C356 1.350 . S
C360 C357 1.463 . S
C360 N364 1.427 . S
C361 H351 0.929 . S
C361 C359 1.433 . S
C361 N364 1.384 . S
C362 H353 0.929 . S
C362 C354 1.378 . S
C362 C357 1.350 . S
C363 H350 0.929 . S
C363 C355 1.433 . S
C363 N365 1.384 . S
N364 C360 1.427 . S
N364 C361 1.384 . S
N365 C357 1.427 . S
N365 C363 1.384 . S
H366 C372 0.930 . S
H367 C376 0.930 . S
H368 C381 0.929 . S
H369 C379 0.929 . S
H370 C374 0.929 . S
H371 C380 0.929 . S
C372 H366 0.930 . S
C372 C373 1.367 . S
C372 C380 1.378 . S
C373 C372 1.367 . S
C373 C381 1.433 . S
C374 H370 0.929 . S
C374 C376 1.378 . S
C374 C378 1.350 . S
C375 C378 1.463 . S
C375 C380 1.350 . S
C375 N383 1.427 . S
C376 H367 0.930 . S
C376 C374 1.378 . S
C376 C377 1.367 . S
C377 C376 1.367 . S
C377 C379 1.433 . S
C378 C374 1.350 . S
C378 C375 1.463 . S
C378 N382 1.427 . S
C379 H369 0.929 . S
C379 C377 1.433 . S
C379 N382 1.384 . S
C380 H371 0.929 . S
C380 C372 1.378 . S
C380 C375 1.350 . S
C381 H368 0.929 . S
C381 C373 1.433 . S
C381 N383 1.384 . S
N382 C378 1.427 . S
N382 C379 1.384 . S
N383 C375 1.427 . S
N383 C381 1.384 . S
H384 C390 0.930 . S
H385 C394 0.930 . S
H386 C399 0.929 . S
H387 C397 0.929 . S
H388 C392 0.929 . S
H389 C398 0.929 . S
C390 H384 0.930 . S
C390 C391 1.367 . S
C390 C398 1.378 . S
C391 C390 1.367 . S
C391 C399 1.433 . S
C392 H388 0.929 . S
C392 C394 1.378 . S
C392 C396 1.350 . S
C393 C396 1.463 . S
C393 C398 1.350 . S
C393 N401 1.427 . S
C394 H385 0.930 . S
C394 C392 1.378 . S
C394 C395 1.367 . S
C395 C394 1.367 . S
C395 C397 1.433 . S
C396 C392 1.350 . S
C396 C393 1.463 . S
C396 N400 1.427 . S
C397 H387 0.929 . S
C397 C395 1.433 . S
C397 N400 1.384 . S
C398 H389 0.929 . S
C398 C390 1.378 . S
C398 C393 1.350 . S
C399 H386 0.929 . S
C399 C391 1.433 . S
C399 N401 1.384 . S
N400 C396 1.427 . S
N400 C397 1.384 . S
N401 C393 1.427 . S
N401 C399 1.384 . S
H402 C408 0.930 . S
H403 C412 0.930 . S
H404 C417 0.929 . S
H405 C415 0.929 . S
H406 C410 0.929 . S
H407 C416 0.929 . S
C408 H402 0.930 . S
C408 C409 1.367 . S
C408 C416 1.378 . S
C409 C408 1.367 . S
C409 C417 1.433 . S
C410 H406 0.929 . S
C410 C412 1.378 . S
C410 C414 1.350 . S
C411 C414 1.463 . S
C411 C416 1.350 . S
C411 N419 1.427 . S
C412 H403 0.930 . S
C412 C410 1.378 . S
C412 C413 1.367 . S
C413 C412 1.367 . S
C413 C415 1.433 . S
C414 C410 1.350 . S
C414 C411 1.463 . S
C414 N418 1.427 . S
C415 H405 0.929 . S
C415 C413 1.433 . S
C415 N418 1.384 . S
C416 H407 0.929 . S
C416 C408 1.378 . S
C416 C411 1.350 . S
C417 H404 0.929 . S
C417 C409 1.433 . S
C417 N419 1.384 . S
N418 C414 1.427 . S
N418 C415 1.384 . S
N419 C411 1.427 . S
N419 C417 1.384 . S
H420 C426 0.930 . S
H421 C430 0.930 . S
H422 C435 0.929 . S
H423 C433 0.929 . S
H424 C428 0.929 . S
H425 C434 0.929 . S
C426 H420 0.930 . S
C426 C427 1.367 . S
C426 C434 1.378 . S
C427 C426 1.367 . S
C427 C435 1.433 . S
C428 H424 0.929 . S
C428 C430 1.378 . S
C428 C432 1.350 . S
C429 C432 1.463 . S
C429 C434 1.350 . S
C429 N437 1.427 . S
C430 H421 0.930 . S
C430 C428 1.378 . S
C430 C431 1.367 . S
C431 C430 1.367 . S
C431 C433 1.433 . S
C432 C428 1.350 . S
C432 C429 1.463 . S
C432 N436 1.427 . S
C433 H423 0.929 . S
C433 C431 1.433 . S
C433 N436 1.384 . S
C434 H425 0.929 . S
C434 C426 1.378 . S
C434 C429 1.350 . S
C435 H422 0.929 . S
C435 C427 1.433 . S
C435 N437 1.384 . S
N436 C432 1.427 . S
N436 C433 1.384 . S
N437 C429 1.427 . S
N437 C435 1.384 . S
H438 C444 0.930 . S
H439 C448 0.930 . S
H440 C453 0.929 . S
H441 C451 0.929 . S
H442 C446 0.929 . S
H443 C452 0.929 . S
C444 H438 0.930 . S
C444 C445 1.367 . S
C444 C452 1.378 . S
C445 C444 1.367 . S
C445 C453 1.433 . S
C446 H442 0.929 . S
C446 C448 1.378 . S
C446 C450 1.350 . S
C447 C450 1.463 . S
C447 C452 1.350 . S
C447 N455 1.427 . S
C448 H439 0.930 . S
C448 C446 1.378 . S
C448 C449 1.367 . S
C449 C448 1.367 . S
C449 C451 1.433 . S
C450 C446 1.350 . S
C450 C447 1.463 . S
C450 N454 1.427 . S
C451 H441 0.929 . S
C451 C449 1.433 . S
C451 N454 1.384 . S
C452 H443 0.929 . S
C452 C444 1.378 . S
C452 C447 1.350 . S
C453 H440 0.929 . S
C453 C445 1.433 . S
C453 N455 1.384 . S
N454 C450 1.427 . S
N454 C451 1.384 . S
N455 C447 1.427 . S
N455 C453 1.384 . S
H456 C462 0.930 . S
H457 C466 0.930 . S
H458 C471 0.929 . S
H459 C469 0.929 . S
H460 C464 0.929 . S
H461 C470 0.929 . S
C462 H456 0.930 . S
C462 C463 1.367 . S
C462 C470 1.378 . S
C463 C462 1.367 . S
C463 C471 1.433 . S
C464 H460 0.929 . S
C464 C466 1.378 . S
C464 C468 1.350 . S
C465 C468 1.463 . S
C465 C470 1.350 . S
C465 N473 1.427 . S
C466 H457 0.930 . S
C466 C464 1.378 . S
C466 C467 1.367 . S
C467 C466 1.367 . S
C467 C469 1.433 . S
C468 C464 1.350 . S
C468 C465 1.463 . S
C468 N472 1.427 . S
C469 H459 0.929 . S
C469 C467 1.433 . S
C469 N472 1.384 . S
C470 H461 0.929 . S
C470 C462 1.378 . S
C470 C465 1.350 . S
C471 H458 0.929 . S
C471 C463 1.433 . S
C471 N473 1.384 . S
N472 C468 1.427 . S
N472 C469 1.384 . S
N473 C465 1.427 . S
N473 C471 1.384 . S
H474 C480 0.930 . S
H475 C484 0.930 . S
H476 C489 0.929 . S
H477 C487 0.929 . S
H478 C482 0.929 . S
H479 C488 0.929 . S
C480 H474 0.930 . S
C480 C481 1.367 . S
C480 C488 1.378 . S
C481 C480 1.367 . S
C481 C489 1.433 . S
C482 H478 0.929 . S
C482 C484 1.378 . S
C482 C486 1.350 . S
C483 C486 1.463 . S
C483 C488 1.350 . S
C483 N491 1.427 . S
C484 H475 0.930 . S
C484 C482 1.378 . S
C484 C485 1.367 . S
C485 C484 1.367 . S
C485 C487 1.433 . S
C486 C482 1.350 . S
C486 C483 1.463 . S
C486 N490 1.427 . S
C487 H477 0.929 . S
C487 C485 1.433 . S
C487 N490 1.384 . S
C488 H479 0.929 . S
C488 C480 1.378 . S
C488 C483 1.350 . S
C489 H476 0.929 . S
C489 C481 1.433 . S
C489 N491 1.384 . S
N490 C486 1.427 . S
N490 C487 1.384 . S
N491 C483 1.427 . S
N491 C489 1.384 . S
H492 C498 0.930 . S
H493 C502 0.930 . S
H494 C507 0.929 . S
H495 C505 0.929 . S
H496 C500 0.929 . S
H497 C506 0.929 . S
C498 H492 0.930 . S
C498 C499 1.367 . S
C498 C506 1.378 . S
C499 C498 1.367 . S
C499 C507 1.433 . S
C500 H496 0.929 . S
C500 C502 1.378 . S
C500 C504 1.350 . S
C501 C504 1.463 . S
C501 C506 1.350 . S
C501 N509 1.427 . S
C502 H493 0.930 . S
C502 C500 1.378 . S
C502 C503 1.367 . S
C503 C502 1.367 . S
C503 C505 1.433 . S
C504 C500 1.350 . S
C504 C501 1.463 . S
C504 N508 1.427 . S
C505 H495 0.929 . S
C505 C503 1.433 . S
C505 N508 1.384 . S
C506 H497 0.929 . S
C506 C498 1.378 . S
C506 C501 1.350 . S
C507 H494 0.929 . S
C507 C499 1.433 . S
C507 N509 1.384 . S
N508 C504 1.427 . S
N508 C505 1.384 . S
N509 C501 1.427 . S
N509 C507 1.384 . S
H510 C516 0.930 . S
H511 C520 0.930 . S
H512 C525 0.929 . S
H513 C523 0.929 . S
H514 C518 0.929 . S
H515 C524 0.929 . S
C516 H510 0.930 . S
C516 C517 1.367 . S
C516 C524 1.378 . S
C517 C516 1.367 . S
C517 C525 1.433 . S
C518 H514 0.929 . S
C518 C520 1.378 . S
C518 C522 1.350 . S
C519 C522 1.463 . S
C519 C524 1.350 . S
C519 N527 1.427 . S
C520 H511 0.930 . S
C520 C518 1.378 . S
C520 C521 1.367 . S
C521 C520 1.367 . S
C521 C523 1.433 . S
C522 C518 1.350 . S
C522 C519 1.463 . S
C522 N526 1.427 . S
C523 H513 0.929 . S
C523 C521 1.433 . S
C523 N526 1.384 . S
C524 H515 0.929 . S
C524 C516 1.378 . S
C524 C519 1.350 . S
C525 H512 0.929 . S
C525 C517 1.433 . S
C525 N527 1.384 . S
N526 C522 1.427 . S
N526 C523 1.384 . S
N527 C519 1.427 . S
N527 C525 1.384 . S
H528 C534 0.930 . S
H529 C538 0.930 . S
H530 C543 0.929 . S
H531 C541 0.929 . S
H532 C536 0.929 . S
H533 C542 0.929 . S
C534 H528 0.930 . S
C534 C535 1.367 . S
C534 C542 1.378 . S
C535 C534 1.367 . S
C535 C543 1.433 . S
C536 H532 0.929 . S
C536 C538 1.378 . S
C536 C540 1.350 . S
C537 C540 1.463 . S
C537 C542 1.350 . S
C537 N545 1.427 . S
C538 H529 0.930 . S
C538 C536 1.378 . S
C538 C539 1.367 . S
C539 C538 1.367 . S
C539 C541 1.433 . S
C540 C536 1.350 . S
C540 C537 1.463 . S
C540 N544 1.427 . S
C541 H531 0.929 . S
C541 C539 1.433 . S
C541 N544 1.384 . S
C542 H533 0.929 . S
C542 C534 1.378 . S
C542 C537 1.350 . S
C543 H530 0.929 . S
C543 C535 1.433 . S
C543 N545 1.384 . S
N544 C540 1.427 . S
N544 C541 1.384 . S
N545 C537 1.427 . S
N545 C543 1.384 . S
H546 C552 0.930 . S
H547 C556 0.930 . S
H548 C561 0.929 . S
H549 C559 0.929 . S
H550 C554 0.929 . S
H551 C560 0.929 . S
C552 H546 0.930 . S
C552 C553 1.367 . S
C552 C560 1.378 . S
C553 C552 1.367 . S
C553 C561 1.433 . S
C554 H550 0.929 . S
C554 C556 1.378 . S
C554 C558 1.350 . S
C555 C558 1.463 . S
C555 C560 1.350 . S
C555 N563 1.427 . S
C556 H547 0.930 . S
C556 C554 1.378 . S
C556 C557 1.367 . S
C557 C556 1.367 . S
C557 C559 1.433 . S
C558 C554 1.350 . S
C558 C555 1.463 . S
C558 N562 1.427 . S
C559 H549 0.929 . S
C559 C557 1.433 . S
C559 N562 1.384 . S
C560 H551 0.929 . S
C560 C552 1.378 . S
C560 C555 1.350 . S
C561 H548 0.929 . S
C561 C553 1.433 . S
C561 N563 1.384 . S
N562 C558 1.427 . S
N562 C559 1.384 . S
N563 C555 1.427 . S
N563 C561 1.384 . S
H564 C570 0.930 . S
H565 C574 0.930 . S
H566 C579 0.929 . S
H567 C577 0.929 . S
H568 C572 0.929 . S
H569 C578 0.929 . S
C570 H564 0.930 . S
C570 C571 1.367 . S
C570 C578 1.378 . S
C571 C570 1.367 . S
C571 C579 1.433 . S
C572 H568 0.929 . S
C572 C574 1.378 . S
C572 C576 1.350 . S
C573 C576 1.463 . S
C573 C578 1.350 . S
C573 N581 1.427 . S
C574 H565 0.930 . S
C574 C572 1.378 . S
C574 C575 1.367 . S
C575 C574 1.367 . S
C575 C577 1.433 . S
C576 C572 1.350 . S
C576 C573 1.463 . S
C576 N580 1.427 . S
C577 H567 0.929 . S
C577 C575 1.433 . S
C577 N580 1.384 . S
C578 H569 0.929 . S
C578 C570 1.378 . S
C578 C573 1.350 . S
C579 H566 0.929 . S
C579 C571 1.433 . S
C579 N581 1.384 . S
N580 C576 1.427 . S
N580 C577 1.384 . S
N581 C573 1.427 . S
N581 C579 1.384 . S
H582 C588 0.930 . S
H583 C592 0.930 . S
H584 C597 0.929 . S
H585 C595 0.929 . S
H586 C590 0.929 . S
H587 C596 0.929 . S
C588 H582 0.930 . S
C588 C589 1.367 . S
C588 C596 1.378 . S
C589 C588 1.367 . S
C589 C597 1.433 . S
C590 H586 0.929 . S
C590 C592 1.378 . S
C590 C594 1.350 . S
C591 C594 1.463 . S
C591 C596 1.350 . S
C591 N599 1.427 . S
C592 H583 0.930 . S
C592 C590 1.378 . S
C592 C593 1.367 . S
C593 C592 1.367 . S
C593 C595 1.433 . S
C594 C590 1.350 . S
C594 C591 1.463 . S
C594 N598 1.427 . S
C595 H585 0.929 . S
C595 C593 1.433 . S
C595 N598 1.384 . S
C596 H587 0.929 . S
C596 C588 1.378 . S
C596 C591 1.350 . S
C597 H584 0.929 . S
C597 C589 1.433 . S
C597 N599 1.384 . S
N598 C594 1.427 . S
N598 C595 1.384 . S
N599 C591 1.427 . S
N599 C597 1.384 . S
H600 C606 0.930 . S
H601 C610 0.930 . S
H602 C615 0.929 . S
H603 C613 0.929 . S
H604 C608 0.929 . S
H605 C614 0.929 . S
C606 H600 0.930 . S
C606 C607 1.367 . S
C606 C614 1.378 . S
C607 C606 1.367 . S
C607 C615 1.433 . S
C608 H604 0.929 . S
C608 C610 1.378 . S
C608 C612 1.350 . S
C609 C612 1.463 . S
C609 C614 1.350 . S
C609 N617 1.427 . S
C610 H601 0.930 . S
C610 C608 1.378 . S
C610 C611 1.367 . S
C611 C610 1.367 . S
C611 C613 1.433 . S
C612 C608 1.350 . S
C612 C609 1.463 . S
C612 N616 1.427 . S
C613 H603 0.929 . S
C613 C611 1.433 . S
C613 N616 1.384 . S
C614 H605 0.929 . S
C614 C606 1.378 . S
C614 C609 1.350 . S
C615 H602 0.929 . S
C615 C607 1.433 . S
C615 N617 1.384 . S
N616 C612 1.427 . S
N616 C613 1.384 . S
N617 C609 1.427 . S
N617 C615 1.384 . S
H618 C624 0.930 . S
H619 C628 0.930 . S
H620 C633 0.929 . S
H621 C631 0.929 . S
H622 C626 0.929 . S
H623 C632 0.929 . S
C624 H618 0.930 . S
C624 C625 1.367 . S
C624 C632 1.378 . S
C625 C624 1.367 . S
C625 C633 1.433 . S
C626 H622 0.929 . S
C626 C628 1.378 . S
C626 C630 1.350 . S
C627 C630 1.463 . S
C627 C632 1.350 . S
C627 N635 1.427 . S
C628 H619 0.930 . S
C628 C626 1.378 . S
C628 C629 1.367 . S
C629 C628 1.367 . S
C629 C631 1.433 . S
C630 C626 1.350 . S
C630 C627 1.463 . S
C630 N634 1.427 . S
C631 H621 0.929 . S
C631 C629 1.433 . S
C631 N634 1.384 . S
C632 H623 0.929 . S
C632 C624 1.378 . S
C632 C627 1.350 . S
C633 H620 0.929 . S
C633 C625 1.433 . S
C633 N635 1.384 . S
N634 C630 1.427 . S
N634 C631 1.384 . S
N635 C627 1.427 . S
N635 C633 1.384 . S
H636 C642 0.930 . S
H637 C646 0.930 . S
H638 C651 0.929 . S
H639 C649 0.929 . S
H640 C644 0.929 . S
H641 C650 0.929 . S
C642 H636 0.930 . S
C642 C643 1.367 . S
C642 C650 1.378 . S
C643 C642 1.367 . S
C643 C651 1.433 . S
C644 H640 0.929 . S
C644 C646 1.378 . S
C644 C648 1.350 . S
C645 C648 1.463 . S
C645 C650 1.350 . S
C645 N653 1.427 . S
C646 H637 0.930 . S
C646 C644 1.378 . S
C646 C647 1.367 . S
C647 C646 1.367 . S
C647 C649 1.433 . S
C648 C644 1.350 . S
C648 C645 1.463 . S
C648 N652 1.427 . S
C649 H639 0.929 . S
C649 C647 1.433 . S
C649 N652 1.384 . S
C650 H641 0.929 . S
C650 C642 1.378 . S
C650 C645 1.350 . S
C651 H638 0.929 . S
C651 C643 1.433 . S
C651 N653 1.384 . S
N652 C648 1.427 . S
N652 C649 1.384 . S
N653 C645 1.427 . S
N653 C651 1.384 . S
H654 C660 0.930 . S
H655 C664 0.930 . S
H656 C669 0.929 . S
H657 C667 0.929 . S
H658 C662 0.929 . S
H659 C668 0.929 . S
C660 H654 0.930 . S
C660 C661 1.367 . S
C660 C668 1.378 . S
C661 C660 1.367 . S
C661 C669 1.433 . S
C662 H658 0.929 . S
C662 C664 1.378 . S
C662 C666 1.350 . S
C663 C666 1.463 . S
C663 C668 1.350 . S
C663 N671 1.427 . S
C664 H655 0.930 . S
C664 C662 1.378 . S
C664 C665 1.367 . S
C665 C664 1.367 . S
C665 C667 1.433 . S
C666 C662 1.350 . S
C666 C663 1.463 . S
C666 N670 1.427 . S
C667 H657 0.929 . S
C667 C665 1.433 . S
C667 N670 1.384 . S
C668 H659 0.929 . S
C668 C660 1.378 . S
C668 C663 1.350 . S
C669 H656 0.929 . S
C669 C661 1.433 . S
C669 N671 1.384 . S
N670 C666 1.427 . S
N670 C667 1.384 . S
N671 C663 1.427 . S
N671 C669 1.384 . S
H672 C678 0.930 . S
H673 C682 0.930 . S
H674 C687 0.929 . S
H675 C685 0.929 . S
H676 C680 0.929 . S
H677 C686 0.929 . S
C678 H672 0.930 . S
C678 C679 1.367 . S
C678 C686 1.378 . S
C679 C678 1.367 . S
C679 C687 1.433 . S
C680 H676 0.929 . S
C680 C682 1.378 . S
C680 C684 1.350 . S
C681 C684 1.463 . S
C681 C686 1.350 . S
C681 N689 1.427 . S
C682 H673 0.930 . S
C682 C680 1.378 . S
C682 C683 1.367 . S
C683 C682 1.367 . S
C683 C685 1.433 . S
C684 C680 1.350 . S
C684 C681 1.463 . S
C684 N688 1.427 . S
C685 H675 0.929 . S
C685 C683 1.433 . S
C685 N688 1.384 . S
C686 H677 0.929 . S
C686 C678 1.378 . S
C686 C681 1.350 . S
C687 H674 0.929 . S
C687 C679 1.433 . S
C687 N689 1.384 . S
N688 C684 1.427 . S
N688 C685 1.384 . S
N689 C681 1.427 . S
N689 C687 1.384 . S
H690 C696 0.930 . S
H691 C700 0.930 . S
H692 C705 0.929 . S
H693 C703 0.929 . S
H694 C698 0.929 . S
H695 C704 0.929 . S
C696 H690 0.930 . S
C696 C697 1.367 . S
C696 C704 1.378 . S
C697 C696 1.367 . S
C697 C705 1.433 . S
C698 H694 0.929 . S
C698 C700 1.378 . S
C698 C702 1.350 . S
C699 C702 1.463 . S
C699 C704 1.350 . S
C699 N707 1.427 . S
C700 H691 0.930 . S
C700 C698 1.378 . S
C700 C701 1.367 . S
C701 C700 1.367 . S
C701 C703 1.433 . S
C702 C698 1.350 . S
C702 C699 1.463 . S
C702 N706 1.427 . S
C703 H693 0.929 . S
C703 C701 1.433 . S
C703 N706 1.384 . S
C704 H695 0.929 . S
C704 C696 1.378 . S
C704 C699 1.350 . S
C705 H692 0.929 . S
C705 C697 1.433 . S
C705 N707 1.384 . S
N706 C702 1.427 . S
N706 C703 1.384 . S
N707 C699 1.427 . S
N707 C705 1.384 . S
H708 C714 0.930 . S
H709 C718 0.930 . S
H710 C723 0.929 . S
H711 C721 0.929 . S
H712 C716 0.929 . S
H713 C722 0.929 . S
C714 H708 0.930 . S
C714 C715 1.367 . S
C714 C722 1.378 . S
C715 C714 1.367 . S
C715 C723 1.433 . S
C716 H712 0.929 . S
C716 C718 1.378 . S
C716 C720 1.350 . S
C717 C720 1.463 . S
C717 C722 1.350 . S
C717 N725 1.427 . S
C718 H709 0.930 . S
C718 C716 1.378 . S
C718 C719 1.367 . S
C719 C718 1.367 . S
C719 C721 1.433 . S
C720 C716 1.350 . S
C720 C717 1.463 . S
C720 N724 1.427 . S
C721 H711 0.929 . S
C721 C719 1.433 . S
C721 N724 1.384 . S
C722 H713 0.929 . S
C722 C714 1.378 . S
C722 C717 1.350 . S
C723 H710 0.929 . S
C723 C715 1.433 . S
C723 N725 1.384 . S
N724 C720 1.427 . S
N724 C721 1.384 . S
N725 C717 1.427 . S
N725 C723 1.384 . S
H726 C732 0.930 . S
H727 C736 0.930 . S
H728 C741 0.929 . S
H729 C739 0.929 . S
H730 C734 0.929 . S
H731 C740 0.929 . S
C732 H726 0.930 . S
C732 C733 1.367 . S
C732 C740 1.378 . S
C733 C732 1.367 . S
C733 C741 1.433 . S
C734 H730 0.929 . S
C734 C736 1.378 . S
C734 C738 1.350 . S
C735 C738 1.463 . S
C735 C740 1.350 . S
C735 N743 1.427 . S
C736 H727 0.930 . S
C736 C734 1.378 . S
C736 C737 1.367 . S
C737 C736 1.367 . S
C737 C739 1.433 . S
C738 C734 1.350 . S
C738 C735 1.463 . S
C738 N742 1.427 . S
C739 H729 0.929 . S
C739 C737 1.433 . S
C739 N742 1.384 . S
C740 H731 0.929 . S
C740 C732 1.378 . S
C740 C735 1.350 . S
C741 H728 0.929 . S
C741 C733 1.433 . S
C741 N743 1.384 . S
N742 C738 1.427 . S
N742 C739 1.384 . S
N743 C735 1.427 . S
N743 C741 1.384 . S
H744 C750 0.930 . S
H745 C754 0.930 . S
H746 C759 0.929 . S
H747 C757 0.929 . S
H748 C752 0.929 . S
H749 C758 0.929 . S
C750 H744 0.930 . S
C750 C751 1.367 . S
C750 C758 1.378 . S
C751 C750 1.367 . S
C751 C759 1.433 . S
C752 H748 0.929 . S
C752 C754 1.378 . S
C752 C756 1.350 . S
C753 C756 1.463 1_455 S
C753 C758 1.350 . S
C753 N761 1.427 . S
C754 H745 0.930 . S
C754 C752 1.378 . S
C754 C755 1.367 . S
C755 C754 1.367 . S
C755 C757 1.433 . S
C756 C752 1.350 . S
C756 C753 1.463 1_655 S
C756 N760 1.427 . S
C757 H747 0.929 . S
C757 C755 1.433 . S
C757 N760 1.384 . S
C758 H749 0.929 . S
C758 C750 1.378 . S
C758 C753 1.350 . S
C759 H746 0.929 . S
C759 C751 1.433 . S
C759 N761 1.384 . S
N760 C756 1.427 . S
N760 C757 1.384 . S
N761 C753 1.427 . S
N761 C759 1.384 . S
H762 C768 0.930 . S
H763 C772 0.930 . S
H764 C777 0.929 . S
H765 C775 0.929 . S
H766 C770 0.929 . S
H767 C776 0.929 . S
C768 H762 0.930 . S
C768 C769 1.367 . S
C768 C776 1.378 . S
C769 C768 1.367 . S
C769 C777 1.433 . S
C770 H766 0.929 . S
C770 C772 1.378 . S
C770 C774 1.350 . S
C771 C774 1.463 1_545 S
C771 C776 1.350 . S
C771 N779 1.427 . S
C772 H763 0.930 . S
C772 C770 1.378 . S
C772 C773 1.367 . S
C773 C772 1.367 . S
C773 C775 1.433 . S
C774 C770 1.350 . S
C774 C771 1.463 1_565 S
C774 N778 1.427 . S
C775 H765 0.929 . S
C775 C773 1.433 . S
C775 N778 1.384 . S
C776 H767 0.929 . S
C776 C768 1.378 . S
C776 C771 1.350 . S
C777 H764 0.929 . S
C777 C769 1.433 . S
C777 N779 1.384 . S
N778 C774 1.427 . S
N778 C775 1.384 . S
N779 C771 1.427 . S
N779 C777 1.384 . S
H780 C786 0.930 . S
H781 C790 0.930 . S
H782 C795 0.929 . S
H783 C793 0.929 . S
H784 C788 0.929 . S
H785 C794 0.929 . S
C786 H780 0.930 . S
C786 C787 1.367 . S
C786 C794 1.378 . S
C787 C786 1.367 . S
C787 C795 1.433 . S
C788 H784 0.929 . S
C788 C790 1.378 . S
C788 C792 1.350 . S
C789 C792 1.463 1_655 S
C789 C794 1.350 . S
C789 N797 1.427 . S
C790 H781 0.930 . S
C790 C788 1.378 . S
C790 C791 1.367 . S
C791 C790 1.367 . S
C791 C793 1.433 . S
C792 C788 1.350 . S
C792 C789 1.463 1_455 S
C792 N796 1.427 . S
C793 H783 0.929 . S
C793 C791 1.433 . S
C793 N796 1.384 . S
C794 H785 0.929 . S
C794 C786 1.378 . S
C794 C789 1.350 . S
C795 H782 0.929 . S
C795 C787 1.433 . S
C795 N797 1.384 . S
N796 C792 1.427 . S
N796 C793 1.384 . S
N797 C789 1.427 . S
N797 C795 1.384 . S
H798 C804 0.930 . S
H799 C808 0.930 . S
H800 C813 0.929 . S
H801 C811 0.929 . S
H802 C806 0.929 . S
H803 C812 0.929 . S
C804 H798 0.930 . S
C804 C805 1.367 . S
C804 C812 1.378 . S
C805 C804 1.367 . S
C805 C813 1.433 . S
C806 H802 0.929 . S
C806 C808 1.378 . S
C806 C810 1.350 . S
C807 C810 1.463 1_545 S
C807 C812 1.350 . S
C807 N815 1.427 . S
C808 H799 0.930 . S
C808 C806 1.378 . S
C808 C809 1.367 . S
C809 C808 1.367 . S
C809 C811 1.433 . S
C810 C806 1.350 . S
C810 C807 1.463 1_565 S
C810 N814 1.427 . S
C811 H801 0.929 . S
C811 C809 1.433 . S
C811 N814 1.384 . S
C812 H803 0.929 . S
C812 C804 1.378 . S
C812 C807 1.350 . S
C813 H800 0.929 . S
C813 C805 1.433 . S
C813 N815 1.384 . S
N814 C810 1.427 . S
N814 C811 1.384 . S
N815 C807 1.427 . S
N815 C813 1.384 . S
H816 C822 0.930 . S
H817 C826 0.930 . S
H818 C831 0.929 . S
H819 C829 0.929 . S
H820 C824 0.929 . S
H821 C830 0.929 . S
C822 H816 0.930 . S
C822 C823 1.367 . S
C822 C830 1.378 . S
C823 C822 1.367 . S
C823 C831 1.433 . S
C824 H820 0.929 . S
C824 C826 1.378 . S
C824 C828 1.350 . S
C825 C828 1.463 1_565 S
C825 C830 1.350 . S
C825 N833 1.427 . S
C826 H817 0.930 . S
C826 C824 1.378 . S
C826 C827 1.367 . S
C827 C826 1.367 . S
C827 C829 1.433 . S
C828 C824 1.350 . S
C828 C825 1.463 1_545 S
C828 N832 1.427 . S
C829 H819 0.929 . S
C829 C827 1.433 . S
C829 N832 1.384 . S
C830 H821 0.929 . S
C830 C822 1.378 . S
C830 C825 1.350 . S
C831 H818 0.929 . S
C831 C823 1.433 . S
C831 N833 1.384 . S
N832 C828 1.427 . S
N832 C829 1.384 . S
N833 C825 1.427 . S
N833 C831 1.384 . S
H834 C840 0.930 . S
H835 C844 0.930 . S
H836 C849 0.929 . S
H837 C847 0.929 . S
H838 C842 0.929 . S
H839 C848 0.929 . S
C840 H834 0.930 . S
C840 C841 1.367 . S
C840 C848 1.378 . S
C841 C840 1.367 . S
C841 C849 1.433 . S
C842 H838 0.929 . S
C842 C844 1.378 . S
C842 C846 1.350 . S
C843 C846 1.463 1_655 S
C843 C848 1.350 . S
C843 N851 1.427 . S
C844 H835 0.930 . S
C844 C842 1.378 . S
C844 C845 1.367 . S
C845 C844 1.367 . S
C845 C847 1.433 . S
C846 C842 1.350 . S
C846 C843 1.463 1_455 S
C846 N850 1.427 . S
C847 H837 0.929 . S
C847 C845 1.433 . S
C847 N850 1.384 . S
C848 H839 0.929 . S
C848 C840 1.378 . S
C848 C843 1.350 . S
C849 H836 0.929 . S
C849 C841 1.433 . S
C849 N851 1.384 . S
N850 C846 1.427 . S
N850 C847 1.384 . S
N851 C843 1.427 . S
N851 C849 1.384 . S
H852 C858 0.930 . S
H853 C862 0.930 . S
H854 C867 0.929 . S
H855 C865 0.929 . S
H856 C860 0.929 . S
H857 C866 0.929 . S
C858 H852 0.930 . S
C858 C859 1.367 . S
C858 C866 1.378 . S
C859 C858 1.367 . S
C859 C867 1.433 . S
C860 H856 0.929 . S
C860 C862 1.378 . S
C860 C864 1.350 . S
C861 C864 1.463 1_565 S
C861 C866 1.350 . S
C861 N869 1.427 . S
C862 H853 0.930 . S
C862 C860 1.378 . S
C862 C863 1.367 . S
C863 C862 1.367 . S
C863 C865 1.433 . S
C864 C860 1.350 . S
C864 C861 1.463 1_545 S
C864 N868 1.427 . S
C865 H855 0.929 . S
C865 C863 1.433 . S
C865 N868 1.384 . S
C866 H857 0.929 . S
C866 C858 1.378 . S
C866 C861 1.350 . S
C867 H854 0.929 . S
C867 C859 1.433 . S
C867 N869 1.384 . S
N868 C864 1.427 . S
N868 C865 1.384 . S
N869 C861 1.427 . S
N869 C867 1.384 . S
H870 C876 0.930 . S
H871 C880 0.930 . S
H872 C885 0.929 . S
H873 C883 0.929 . S
H874 C878 0.929 . S
H875 C884 0.929 . S
C876 H870 0.930 . S
C876 C877 1.367 . S
C876 C884 1.378 . S
C877 C876 1.367 . S
C877 C885 1.433 . S
C878 H874 0.929 . S
C878 C880 1.378 . S
C878 C882 1.350 . S
C879 C882 1.463 1_655 S
C879 C884 1.350 . S
C879 N887 1.427 . S
C880 H871 0.930 . S
C880 C878 1.378 . S
C880 C881 1.367 . S
C881 C880 1.367 . S
C881 C883 1.433 . S
C882 C878 1.350 . S
C882 C879 1.463 1_455 S
C882 N886 1.427 . S
C883 H873 0.929 . S
C883 C881 1.433 . S
C883 N886 1.384 . S
C884 H875 0.929 . S
C884 C876 1.378 . S
C884 C879 1.350 . S
C885 H872 0.929 . S
C885 C877 1.433 . S
C885 N887 1.384 . S
N886 C882 1.427 . S
N886 C883 1.384 . S
N887 C879 1.427 . S
N887 C885 1.384 . S
H888 C894 0.930 . S
H889 C898 0.930 . S
H890 C903 0.929 . S
H891 C901 0.929 . S
H892 C896 0.929 . S
H893 C902 0.929 . S
C894 H888 0.930 . S
C894 C895 1.367 . S
C894 C902 1.378 . S
C895 C894 1.367 . S
C895 C903 1.433 . S
C896 H892 0.929 . S
C896 C898 1.378 . S
C896 C900 1.350 . S
C897 C900 1.463 1_556 S
C897 C902 1.350 . S
C897 N905 1.427 . S
C898 H889 0.930 . S
C898 C896 1.378 . S
C898 C899 1.367 . S
C899 C898 1.367 . S
C899 C901 1.433 . S
C900 C896 1.350 . S
C900 C897 1.463 1_554 S
C900 N904 1.427 . S
C901 H891 0.929 . S
C901 C899 1.433 . S
C901 N904 1.384 . S
C902 H893 0.929 . S
C902 C894 1.378 . S
C902 C897 1.350 . S
C903 H890 0.929 . S
C903 C895 1.433 . S
C903 N905 1.384 . S
N904 C900 1.427 . S
N904 C901 1.384 . S
N905 C897 1.427 . S
N905 C903 1.384 . S
H906 C912 0.930 . S
H907 C916 0.930 . S
H908 C921 0.929 . S
H909 C919 0.929 . S
H910 C914 0.929 . S
H911 C920 0.929 . S
C912 H906 0.930 . S
C912 C913 1.367 . S
C912 C920 1.378 . S
C913 C912 1.367 . S
C913 C921 1.433 . S
C914 H910 0.929 . S
C914 C916 1.378 . S
C914 C918 1.350 . S
C915 C918 1.463 1_556 S
C915 C920 1.350 . S
C915 N923 1.427 . S
C916 H907 0.930 . S
C916 C914 1.378 . S
C916 C917 1.367 . S
C917 C916 1.367 . S
C917 C919 1.433 . S
C918 C914 1.350 . S
C918 C915 1.463 1_554 S
C918 N922 1.427 . S
C919 H909 0.929 . S
C919 C917 1.433 . S
C919 N922 1.384 . S
C920 H911 0.929 . S
C920 C912 1.378 . S
C920 C915 1.350 . S
C921 H908 0.929 . S
C921 C913 1.433 . S
C921 N923 1.384 . S
N922 C918 1.427 . S
N922 C919 1.384 . S
N923 C915 1.427 . S
N923 C921 1.384 . S
H924 C930 0.930 . S
H925 C934 0.930 . S
H926 C939 0.929 . S
H927 C937 0.929 . S
H928 C932 0.929 . S
H929 C938 0.929 . S
C930 H924 0.930 . S
C930 C931 1.367 . S
C930 C938 1.378 . S
C931 C930 1.367 . S
C931 C939 1.433 . S
C932 H928 0.929 . S
C932 C934 1.378 . S
C932 C936 1.350 . S
C933 C936 1.463 1_556 S
C933 C938 1.350 . S
C933 N941 1.427 . S
C934 H925 0.930 . S
C934 C932 1.378 . S
C934 C935 1.367 . S
C935 C934 1.367 . S
C935 C937 1.433 . S
C936 C932 1.350 . S
C936 C933 1.463 1_554 S
C936 N940 1.427 . S
C937 H927 0.929 . S
C937 C935 1.433 . S
C937 N940 1.384 . S
C938 H929 0.929 . S
C938 C930 1.378 . S
C938 C933 1.350 . S
C939 H926 0.929 . S
C939 C931 1.433 . S
C939 N941 1.384 . S
N940 C936 1.427 . S
N940 C937 1.384 . S
N941 C933 1.427 . S
N941 C939 1.384 . S
H942 C948 0.930 . S
H943 C952 0.930 . S
H944 C957 0.929 . S
H945 C955 0.929 . S
H946 C950 0.929 . S
H947 C956 0.929 . S
C948 H942 0.930 . S
C948 C949 1.367 . S
C948 C956 1.378 . S
C949 C948 1.367 . S
C949 C957 1.433 . S
C950 H946 0.929 . S
C950 C952 1.378 . S
C950 C954 1.350 . S
C951 C954 1.463 1_556 S
C951 C956 1.350 . S
C951 N959 1.427 . S
C952 H943 0.930 . S
C952 C950 1.378 . S
C952 C953 1.367 . S
C953 C952 1.367 . S
C953 C955 1.433 . S
C954 C950 1.350 . S
C954 C951 1.463 1_554 S
C954 N958 1.427 . S
C955 H945 0.929 . S
C955 C953 1.433 . S
C955 N958 1.384 . S
C956 H947 0.929 . S
C956 C948 1.378 . S
C956 C951 1.350 . S
C957 H944 0.929 . S
C957 C949 1.433 . S
C957 N959 1.384 . S
N958 C954 1.427 . S
N958 C955 1.384 . S
N959 C951 1.427 . S
N959 C957 1.384 . S
H960 C966 0.930 . S
H961 C970 0.930 . S
H962 C975 0.929 . S
H963 C973 0.929 . S
H964 C968 0.929 . S
H965 C974 0.929 . S
C966 H960 0.930 . S
C966 C967 1.367 . S
C966 C974 1.378 . S
C967 C966 1.367 . S
C967 C975 1.433 . S
C968 H964 0.929 . S
C968 C970 1.378 . S
C968 C972 1.350 . S
C969 C972 1.463 . S
C969 C974 1.350 . S
C969 N977 1.427 . S
C970 H961 0.930 . S
C970 C968 1.378 . S
C970 C971 1.367 . S
C971 C970 1.367 . S
C971 C973 1.433 . S
C972 C968 1.350 . S
C972 C969 1.463 . S
C972 N976 1.427 . S
C973 H963 0.929 . S
C973 C971 1.433 . S
C973 N976 1.384 . S
C974 H965 0.929 . S
C974 C966 1.378 . S
C974 C969 1.350 . S
C975 H962 0.929 . S
C975 C967 1.433 . S
C975 N977 1.384 . S
N976 C972 1.427 . S
N976 C973 1.384 . S
N977 C969 1.427 . S
N977 C975 1.384 . S
H978 C984 0.930 . S
H979 C988 0.930 . S
H980 C993 0.929 . S
H981 C991 0.929 . S
H982 C986 0.929 . S
H983 C992 0.929 . S
C984 H978 0.930 . S
C984 C985 1.367 . S
C984 C992 1.378 . S
C985 C984 1.367 . S
C985 C993 1.433 . S
C986 H982 0.929 . S
C986 C988 1.378 . S
C986 C990 1.350 . S
C987 C990 1.463 . S
C987 C992 1.350 . S
C987 N995 1.427 . S
C988 H979 0.930 . S
C988 C986 1.378 . S
C988 C989 1.367 . S
C989 C988 1.367 . S
C989 C991 1.433 . S
C990 C986 1.350 . S
C990 C987 1.463 . S
C990 N994 1.427 . S
C991 H981 0.929 . S
C991 C989 1.433 . S
C991 N994 1.384 . S
C992 H983 0.929 . S
C992 C984 1.378 . S
C992 C987 1.350 . S
C993 H980 0.929 . S
C993 C985 1.433 . S
C993 N995 1.384 . S
N994 C990 1.427 . S
N994 C991 1.384 . S
N995 C987 1.427 . S
N995 C993 1.384 . S
H996 C1002 0.930 . S
H997 C1006 0.930 . S
H998 C1011 0.929 . S
H999 C1009 0.929 . S
H1000 C1004 0.929 . S
H1001 C1010 0.929 . S
C1002 H996 0.930 . S
C1002 C1003 1.367 . S
C1002 C1010 1.378 . S
C1003 C1002 1.367 . S
C1003 C1011 1.433 . S
C1004 H1000 0.929 . S
C1004 C1006 1.378 . S
C1004 C1008 1.350 . S
C1005 C1008 1.463 . S
C1005 C1010 1.350 . S
C1005 N1013 1.427 . S
C1006 H997 0.930 . S
C1006 C1004 1.378 . S
C1006 C1007 1.367 . S
C1007 C1006 1.367 . S
C1007 C1009 1.433 . S
C1008 C1004 1.350 . S
C1008 C1005 1.463 . S
C1008 N1012 1.427 . S
C1009 H999 0.929 . S
C1009 C1007 1.433 . S
C1009 N1012 1.384 . S
C1010 H1001 0.929 . S
C1010 C1002 1.378 . S
C1010 C1005 1.350 . S
C1011 H998 0.929 . S
C1011 C1003 1.433 . S
C1011 N1013 1.384 . S
N1012 C1008 1.427 . S
N1012 C1009 1.384 . S
N1013 C1005 1.427 . S
N1013 C1011 1.384 . S
H1014 C1020 0.930 . S
H1015 C1024 0.930 . S
H1016 C1029 0.929 . S
H1017 C1027 0.929 . S
H1018 C1022 0.929 . S
H1019 C1028 0.929 . S
C1020 H1014 0.930 . S
C1020 C1021 1.367 . S
C1020 C1028 1.378 . S
C1021 C1020 1.367 . S
C1021 C1029 1.433 . S
C1022 H1018 0.929 . S
C1022 C1024 1.378 . S
C1022 C1026 1.350 . S
C1023 C1026 1.463 . S
C1023 C1028 1.350 . S
C1023 N1031 1.427 . S
C1024 H1015 0.930 . S
C1024 C1022 1.378 . S
C1024 C1025 1.367 . S
C1025 C1024 1.367 . S
C1025 C1027 1.433 . S
C1026 C1022 1.350 . S
C1026 C1023 1.463 . S
C1026 N1030 1.427 . S
C1027 H1017 0.929 . S
C1027 C1025 1.433 . S
C1027 N1030 1.384 . S
C1028 H1019 0.929 . S
C1028 C1020 1.378 . S
C1028 C1023 1.350 . S
C1029 H1016 0.929 . S
C1029 C1021 1.433 . S
C1029 N1031 1.384 . S
N1030 C1026 1.427 . S
N1030 C1027 1.384 . S
N1031 C1023 1.427 . S
N1031 C1029 1.384 . S
H1032 C1038 0.930 . S
H1033 C1042 0.930 . S
H1034 C1047 0.929 . S
H1035 C1045 0.929 . S
H1036 C1040 0.929 . S
H1037 C1046 0.929 . S
C1038 H1032 0.930 . S
C1038 C1039 1.367 . S
C1038 C1046 1.378 . S
C1039 C1038 1.367 . S
C1039 C1047 1.433 . S
C1040 H1036 0.929 . S
C1040 C1042 1.378 . S
C1040 C1044 1.350 . S
C1041 C1044 1.463 . S
C1041 C1046 1.350 . S
C1041 N1049 1.427 . S
C1042 H1033 0.930 . S
C1042 C1040 1.378 . S
C1042 C1043 1.367 . S
C1043 C1042 1.367 . S
C1043 C1045 1.433 . S
C1044 C1040 1.350 . S
C1044 C1041 1.463 . S
C1044 N1048 1.427 . S
C1045 H1035 0.929 . S
C1045 C1043 1.433 . S
C1045 N1048 1.384 . S
C1046 H1037 0.929 . S
C1046 C1038 1.378 . S
C1046 C1041 1.350 . S
C1047 H1034 0.929 . S
C1047 C1039 1.433 . S
C1047 N1049 1.384 . S
N1048 C1044 1.427 . S
N1048 C1045 1.384 . S
N1049 C1041 1.427 . S
N1049 C1047 1.384 . S
H1050 C1056 0.930 . S
H1051 C1060 0.930 . S
H1052 C1065 0.929 . S
H1053 C1063 0.929 . S
H1054 C1058 0.929 . S
H1055 C1064 0.929 . S
C1056 H1050 0.930 . S
C1056 C1057 1.367 . S
C1056 C1064 1.378 . S
C1057 C1056 1.367 . S
C1057 C1065 1.433 . S
C1058 H1054 0.929 . S
C1058 C1060 1.378 . S
C1058 C1062 1.350 . S
C1059 C1062 1.463 . S
C1059 C1064 1.350 . S
C1059 N1067 1.427 . S
C1060 H1051 0.930 . S
C1060 C1058 1.378 . S
C1060 C1061 1.367 . S
C1061 C1060 1.367 . S
C1061 C1063 1.433 . S
C1062 C1058 1.350 . S
C1062 C1059 1.463 . S
C1062 N1066 1.427 . S
C1063 H1053 0.929 . S
C1063 C1061 1.433 . S
C1063 N1066 1.384 . S
C1064 H1055 0.929 . S
C1064 C1056 1.378 . S
C1064 C1059 1.350 . S
C1065 H1052 0.929 . S
C1065 C1057 1.433 . S
C1065 N1067 1.384 . S
N1066 C1062 1.427 . S
N1066 C1063 1.384 . S
N1067 C1059 1.427 . S
N1067 C1065 1.384 . S
H1068 C1074 0.930 . S
H1069 C1078 0.930 . S
H1070 C1083 0.929 . S
H1071 C1081 0.929 . S
H1072 C1076 0.929 . S
H1073 C1082 0.929 . S
C1074 H1068 0.930 . S
C1074 C1075 1.367 . S
C1074 C1082 1.378 . S
C1075 C1074 1.367 . S
C1075 C1083 1.433 . S
C1076 H1072 0.929 . S
C1076 C1078 1.378 . S
C1076 C1080 1.350 . S
C1077 C1080 1.463 . S
C1077 C1082 1.350 . S
C1077 N1085 1.427 . S
C1078 H1069 0.930 . S
C1078 C1076 1.378 . S
C1078 C1079 1.367 . S
C1079 C1078 1.367 . S
C1079 C1081 1.433 . S
C1080 C1076 1.350 . S
C1080 C1077 1.463 . S
C1080 N1084 1.427 . S
C1081 H1071 0.929 . S
C1081 C1079 1.433 . S
C1081 N1084 1.384 . S
C1082 H1073 0.929 . S
C1082 C1074 1.378 . S
C1082 C1077 1.350 . S
C1083 H1070 0.929 . S
C1083 C1075 1.433 . S
C1083 N1085 1.384 . S
N1084 C1080 1.427 . S
N1084 C1081 1.384 . S
N1085 C1077 1.427 . S
N1085 C1083 1.384 . S
H1086 C1092 0.930 . S
H1087 C1096 0.930 . S
H1088 C1101 0.929 . S
H1089 C1099 0.929 . S
H1090 C1094 0.929 . S
H1091 C1100 0.929 . S
C1092 H1086 0.930 . S
C1092 C1093 1.367 . S
C1092 C1100 1.378 . S
C1093 C1092 1.367 . S
C1093 C1101 1.433 . S
C1094 H1090 0.929 . S
C1094 C1096 1.378 . S
C1094 C1098 1.350 . S
C1095 C1098 1.463 . S
C1095 C1100 1.350 . S
C1095 N1103 1.427 . S
C1096 H1087 0.930 . S
C1096 C1094 1.378 . S
C1096 C1097 1.367 . S
C1097 C1096 1.367 . S
C1097 C1099 1.433 . S
C1098 C1094 1.350 . S
C1098 C1095 1.463 . S
C1098 N1102 1.427 . S
C1099 H1089 0.929 . S
C1099 C1097 1.433 . S
C1099 N1102 1.384 . S
C1100 H1091 0.929 . S
C1100 C1092 1.378 . S
C1100 C1095 1.350 . S
C1101 H1088 0.929 . S
C1101 C1093 1.433 . S
C1101 N1103 1.384 . S
N1102 C1098 1.427 . S
N1102 C1099 1.384 . S
N1103 C1095 1.427 . S
N1103 C1101 1.384 . S
H1104 C1110 0.930 . S
H1105 C1114 0.930 . S
H1106 C1119 0.929 . S
H1107 C1117 0.929 . S
H1108 C1112 0.929 . S
H1109 C1118 0.929 . S
C1110 H1104 0.930 . S
C1110 C1111 1.367 . S
C1110 C1118 1.378 . S
C1111 C1110 1.367 . S
C1111 C1119 1.433 . S
C1112 H1108 0.929 . S
C1112 C1114 1.378 . S
C1112 C1116 1.350 . S
C1113 C1116 1.463 . S
C1113 C1118 1.350 . S
C1113 N1121 1.427 . S
C1114 H1105 0.930 . S
C1114 C1112 1.378 . S
C1114 C1115 1.367 . S
C1115 C1114 1.367 . S
C1115 C1117 1.433 . S
C1116 C1112 1.350 . S
C1116 C1113 1.463 . S
C1116 N1120 1.427 . S
C1117 H1107 0.929 . S
C1117 C1115 1.433 . S
C1117 N1120 1.384 . S
C1118 H1109 0.929 . S
C1118 C1110 1.378 . S
C1118 C1113 1.350 . S
C1119 H1106 0.929 . S
C1119 C1111 1.433 . S
C1119 N1121 1.384 . S
N1120 C1116 1.427 . S
N1120 C1117 1.384 . S
N1121 C1113 1.427 . S
N1121 C1119 1.384 . S
H1122 C1128 0.930 . S
H1123 C1132 0.930 . S
H1124 C1137 0.929 . S
H1125 C1135 0.929 . S
H1126 C1130 0.929 . S
H1127 C1136 0.929 . S
C1128 H1122 0.930 . S
C1128 C1129 1.367 . S
C1128 C1136 1.378 . S
C1129 C1128 1.367 . S
C1129 C1137 1.433 . S
C1130 H1126 0.929 . S
C1130 C1132 1.378 . S
C1130 C1134 1.350 . S
C1131 C1134 1.463 . S
C1131 C1136 1.350 . S
C1131 N1139 1.427 . S
C1132 H1123 0.930 . S
C1132 C1130 1.378 . S
C1132 C1133 1.367 . S
C1133 C1132 1.367 . S
C1133 C1135 1.433 . S
C1134 C1130 1.350 . S
C1134 C1131 1.463 . S
C1134 N1138 1.427 . S
C1135 H1125 0.929 . S
C1135 C1133 1.433 . S
C1135 N1138 1.384 . S
C1136 H1127 0.929 . S
C1136 C1128 1.378 . S
C1136 C1131 1.350 . S
C1137 H1124 0.929 . S
C1137 C1129 1.433 . S
C1137 N1139 1.384 . S
N1138 C1134 1.427 . S
N1138 C1135 1.384 . S
N1139 C1131 1.427 . S
N1139 C1137 1.384 . S
H1140 C1146 0.930 . S
H1141 C1150 0.930 . S
H1142 C1155 0.929 . S
H1143 C1153 0.929 . S
H1144 C1148 0.929 . S
H1145 C1154 0.929 . S
C1146 H1140 0.930 . S
C1146 C1147 1.367 . S
C1146 C1154 1.378 . S
C1147 C1146 1.367 . S
C1147 C1155 1.433 . S
C1148 H1144 0.929 . S
C1148 C1150 1.378 . S
C1148 C1152 1.350 . S
C1149 C1152 1.463 . S
C1149 C1154 1.350 . S
C1149 N1157 1.427 . S
C1150 H1141 0.930 . S
C1150 C1148 1.378 . S
C1150 C1151 1.367 . S
C1151 C1150 1.367 . S
C1151 C1153 1.433 . S
C1152 C1148 1.350 . S
C1152 C1149 1.463 . S
C1152 N1156 1.427 . S
C1153 H1143 0.929 . S
C1153 C1151 1.433 . S
C1153 N1156 1.384 . S
C1154 H1145 0.929 . S
C1154 C1146 1.378 . S
C1154 C1149 1.350 . S
C1155 H1142 0.929 . S
C1155 C1147 1.433 . S
C1155 N1157 1.384 . S
N1156 C1152 1.427 . S
N1156 C1153 1.384 . S
N1157 C1149 1.427 . S
N1157 C1155 1.384 . S
H1158 C1164 0.930 . S
H1159 C1168 0.930 . S
H1160 C1173 0.929 . S
H1161 C1171 0.929 . S
H1162 C1166 0.929 . S
H1163 C1172 0.929 . S
C1164 H1158 0.930 . S
C1164 C1165 1.367 . S
C1164 C1172 1.378 . S
C1165 C1164 1.367 . S
C1165 C1173 1.433 . S
C1166 H1162 0.929 . S
C1166 C1168 1.378 . S
C1166 C1170 1.350 . S
C1167 C1170 1.463 . S
C1167 C1172 1.350 . S
C1167 N1175 1.427 . S
C1168 H1159 0.930 . S
C1168 C1166 1.378 . S
C1168 C1169 1.367 . S
C1169 C1168 1.367 . S
C1169 C1171 1.433 . S
C1170 C1166 1.350 . S
C1170 C1167 1.463 . S
C1170 N1174 1.427 . S
C1171 H1161 0.929 . S
C1171 C1169 1.433 . S
C1171 N1174 1.384 . S
C1172 H1163 0.929 . S
C1172 C1164 1.378 . S
C1172 C1167 1.350 . S
C1173 H1160 0.929 . S
C1173 C1165 1.433 . S
C1173 N1175 1.384 . S
N1174 C1170 1.427 . S
N1174 C1171 1.384 . S
N1175 C1167 1.427 . S
N1175 C1173 1.384 . S
C319 C153 1.412 . S
C323 C8 1.375 . S
C337 C21 1.374 . S
C341 C114 1.408 . S
C355 C34 1.385 . S
C359 C127 1.412 . S
C373 C47 1.389 . S
C377 C140 1.401 . S
C391 C179 1.404 . S
C395 C60 1.391 . S
C409 C73 1.391 . S
C413 C192 1.405 . S
C427 C205 1.401 . S
C431 C86 1.390 . S
C445 C166 1.403 . S
C449 C99 1.378 . S
C463 C75 1.400 . S
C467 C112 1.383 . S
C481 C88 1.407 . S
C485 C125 1.374 . S
C499 C138 1.389 . S
C503 C101 1.401 . S
C517 C62 1.400 . S
C521 C151 1.388 . S
C535 C49 1.406 . S
C539 C164 1.391 . S
C553 C177 1.385 . S
C557 C10 1.400 . S
C571 C190 1.391 . S
C575 C23 1.404 . S
C589 C203 1.374 . S
C593 C36 1.409 . S
C607 C216 1.390 . S
C611 C309 1.408 . S
C625 C270 1.400 . S
C629 C229 1.383 . S
C643 C242 1.375 . S
C647 C231 1.412 . S
C661 C255 1.389 . S
C665 C244 1.401 . S
C679 C257 1.413 . S
C683 C268 1.380 . S
C697 C281 1.374 . S
C701 C296 1.409 . S
C715 C218 1.404 . S
C719 C294 1.376 . S
C733 C283 1.410 . S
C737 C307 1.374 . S
C751 C5 1.332 . S
C755 C83 1.317 . S
C769 C18 1.319 . S
C773 C96 1.329 . S
C787 C31 1.318 . S
C791 C57 1.334 . S
C805 C70 1.330 . S
C809 C44 1.324 . S
C823 C135 1.334 . S
C827 C109 1.317 . S
C841 C122 1.320 . S
C845 C148 1.333 . S
C859 C161 1.323 . S
C863 C187 1.331 . S
C877 C200 1.319 . S
C881 C174 1.333 . S
C895 C226 1.320 . S
C899 C213 1.328 . S
C913 C239 1.329 . S
C917 C304 1.319 . S
C931 C252 1.333 . S
C935 C278 1.320 . S
C949 C265 1.323 . S
C953 C291 1.325 . S
C967 C0 0.972 . S
C971 C65 0.981 . S
C985 C13 0.986 . S
C989 C78 0.979 . S
C1003 C26 0.972 . S
C1007 C91 0.970 . S
C1021 C52 0.987 . S
C1025 C39 0.983 . S
C1039 C104 0.986 . S
C1043 C299 0.980 . S
C1057 C117 0.985 . S
C1061 C273 0.985 . S
C1075 C286 0.980 . S
C1079 C130 0.986 . S
C1093 C143 0.975 . S
C1097 C208 0.969 . S
C1111 C260 0.986 . S
C1115 C156 0.978 . S
C1129 C221 0.987 . S
C1133 C169 0.983 . S
C1147 C182 0.971 . S
C1151 C234 0.980 . S
C1165 C247 0.970 . S
C1169 C195 0.971 . S
