# Generated by pormake.
# Topology umd, (4)-cn, num edge types: 1
# Building blocks:
#     Node 0, Type 0, BuildingBlock: ESEHIV_clean_sbu_0, # of connection points: 4
#     Node 1, Type 0, BuildingBlock: ESEHIV_clean_sbu_0, # of connection points: 4
#     Node 2, Type 0, BuildingBlock: ESEHIV_clean_sbu_0, # of connection points: 4
#     Node 3, Type 0, BuildingBlock: ESEHIV_clean_sbu_0, # of connection points: 4
#     Node 4, Type 0, BuildingBlock: ESEHIV_clean_sbu_0, # of connection points: 4
#     Node 5, Type 0, BuildingBlock: ESEHIV_clean_sbu_0, # of connection points: 4
#     Node 6, Type 0, BuildingBlock: ESEHIV_clean_sbu_0, # of connection points: 4
#     Node 7, Type 0, BuildingBlock: ESEHIV_clean_sbu_0, # of connection points: 4
#     Node 8, Type 0, BuildingBlock: ESEHIV_clean_sbu_0, # of connection points: 4
#     Node 9, Type 0, BuildingBlock: ESEHIV_clean_sbu_0, # of connection points: 4
#     Node 10, Type 0, BuildingBlock: ESEHIV_clean_sbu_0, # of connection points: 4
#     Node 11, Type 0, BuildingBlock: ESEHIV_clean_sbu_0, # of connection points: 4
#     Node 12, Type 0, BuildingBlock: ESEHIV_clean_sbu_0, # of connection points: 4
#     Node 13, Type 0, BuildingBlock: ESEHIV_clean_sbu_0, # of connection points: 4
#     Node 14, Type 0, BuildingBlock: ESEHIV_clean_sbu_0, # of connection points: 4
#     Node 15, Type 0, BuildingBlock: ESEHIV_clean_sbu_0, # of connection points: 4
#     Edge 16, Type (0, 0), BuildingBlock: OJICUG_clean_linker_0, # of connection points: 2
#     Edge 17, Type (0, 0), BuildingBlock: OJICUG_clean_linker_0, # of connection points: 2
#     Edge 18, Type (0, 0), BuildingBlock: OJICUG_clean_linker_0, # of connection points: 2
#     Edge 19, Type (0, 0), BuildingBlock: OJICUG_clean_linker_0, # of connection points: 2
#     Edge 20, Type (0, 0), BuildingBlock: OJICUG_clean_linker_0, # of connection points: 2
#     Edge 21, Type (0, 0), BuildingBlock: OJICUG_clean_linker_0, # of connection points: 2
#     Edge 22, Type (0, 0), BuildingBlock: OJICUG_clean_linker_0, # of connection points: 2
#     Edge 23, Type (0, 0), BuildingBlock: OJICUG_clean_linker_0, # of connection points: 2
#     Edge 24, Type (0, 0), BuildingBlock: OJICUG_clean_linker_0, # of connection points: 2
#     Edge 25, Type (0, 0), BuildingBlock: OJICUG_clean_linker_0, # of connection points: 2
#     Edge 26, Type (0, 0), BuildingBlock: OJICUG_clean_linker_0, # of connection points: 2
#     Edge 27, Type (0, 0), BuildingBlock: OJICUG_clean_linker_0, # of connection points: 2
#     Edge 28, Type (0, 0), BuildingBlock: OJICUG_clean_linker_0, # of connection points: 2
#     Edge 29, Type (0, 0), BuildingBlock: OJICUG_clean_linker_0, # of connection points: 2
#     Edge 30, Type (0, 0), BuildingBlock: OJICUG_clean_linker_0, # of connection points: 2
#     Edge 31, Type (0, 0), BuildingBlock: OJICUG_clean_linker_0, # of connection points: 2
#     Edge 32, Type (0, 0), BuildingBlock: OJICUG_clean_linker_0, # of connection points: 2
#     Edge 33, Type (0, 0), BuildingBlock: OJICUG_clean_linker_0, # of connection points: 2
#     Edge 34, Type (0, 0), BuildingBlock: OJICUG_clean_linker_0, # of connection points: 2
#     Edge 35, Type (0, 0), BuildingBlock: OJICUG_clean_linker_0, # of connection points: 2
#     Edge 36, Type (0, 0), BuildingBlock: OJICUG_clean_linker_0, # of connection points: 2
#     Edge 37, Type (0, 0), BuildingBlock: OJICUG_clean_linker_0, # of connection points: 2
#     Edge 38, Type (0, 0), BuildingBlock: OJICUG_clean_linker_0, # of connection points: 2
#     Edge 39, Type (0, 0), BuildingBlock: OJICUG_clean_linker_0, # of connection points: 2
#     Edge 40, Type (0, 0), BuildingBlock: OJICUG_clean_linker_0, # of connection points: 2
#     Edge 41, Type (0, 0), BuildingBlock: OJICUG_clean_linker_0, # of connection points: 2
#     Edge 42, Type (0, 0), BuildingBlock: OJICUG_clean_linker_0, # of connection points: 2
#     Edge 43, Type (0, 0), BuildingBlock: OJICUG_clean_linker_0, # of connection points: 2
#     Edge 44, Type (0, 0), BuildingBlock: OJICUG_clean_linker_0, # of connection points: 2
#     Edge 45, Type (0, 0), BuildingBlock: OJICUG_clean_linker_0, # of connection points: 2
#     Edge 46, Type (0, 0), BuildingBlock: OJICUG_clean_linker_0, # of connection points: 2
#     Edge 47, Type (0, 0), BuildingBlock: OJICUG_clean_linker_0, # of connection points: 2
# Relax obj value: 0.041
# Max RMSD: 0.131
# Mean RMSD: 0.131
data_MOF--net-umd--node1-ESEHIV_clean_sbu_0--edge1-OJICUG_clean_linker_0
_symmetry_space_group_name_H-M    P1
_symmetry_Int_Tables_number       1
_symmetry_cell_setting            triclinic
loop_
_symmetry_equiv_pos_as_xyz
'x, y, z'
_cell_length_a     36.70662
_cell_length_b     36.704504
_cell_length_c     39.025499
_cell_angle_alpha  89.999258
_cell_angle_beta   89.999709
_cell_angle_gamma 90.004733
loop_
_atom_site_label
_atom_site_type_symbol
_atom_site_fract_x
_atom_site_fract_y
_atom_site_fract_z
_atom_type_partial_charge
Cu0 Cu 0.17914 0.43262 0.17908 0.0
N1 N 0.12874 0.4368 0.18332 0.0
N2 N 0.07357 0.46236 0.18725 0.0
C3 C 0.11 0.46793 0.18786 0.0
C4 C 0.0695 0.42616 0.18215 0.0
C5 C 0.1035 0.41058 0.1795 0.0
O6 O 0.20028 0.46906 0.20952 0.0
C7 C 0.21985 0.44396 0.11589 0.0
O8 O 0.25006 0.44221 0.13386 0.0
H9 H 0.12301 0.49426 0.19013 0.0
H10 H 0.10936 0.38226 0.17424 0.0
N11 N 0.19304 0.38543 0.19161 0.0
N12 N 0.22316 0.33276 0.19625 0.0
C13 C 0.22265 0.36629 0.1819 0.0
C14 C 0.17447 0.36335 0.21289 0.0
C15 C 0.19288 0.33093 0.21577 0.0
C16 C 0.2047 0.46226 0.24129 0.0
O17 O 0.19849 0.42914 0.25257 0.0
H18 H 0.24318 0.37656 0.16454 0.0
H19 H 0.14953 0.3706 0.22595 0.0
O20 O 0.18921 0.44119 0.1309 0.0
H21 H 0.04387 0.41182 0.17999 0.0
H22 H 0.18502 0.3081 0.2317 0.0
Cu23 Cu 0.60515 0.17923 0.67901 0.0
N24 N 0.601 0.12883 0.68327 0.0
N25 N 0.57546 0.07365 0.68723 0.0
C26 C 0.56987 0.11007 0.68777 0.0
C27 C 0.61167 0.06959 0.6822 0.0
C28 C 0.62724 0.1036 0.67954 0.0
O29 O 0.56867 0.20035 0.7094 0.0
C30 C 0.59374 0.21996 0.61586 0.0
O31 O 0.59545 0.25016 0.63386 0.0
H32 H 0.54353 0.12307 0.68997 0.0
H33 H 0.65557 0.10947 0.67435 0.0
N34 N 0.65231 0.19317 0.69155 0.0
N35 N 0.70484 0.2235 0.69645 0.0
C36 C 0.67141 0.22283 0.6819 0.0
C37 C 0.67431 0.17472 0.71298 0.0
C38 C 0.70664 0.19326 0.71602 0.0
C39 C 0.57556 0.2054 0.74108 0.0
O40 O 0.60882 0.19995 0.7523 0.0
H41 H 0.66114 0.24332 0.6645 0.0
H42 H 0.66703 0.1498 0.72608 0.0
O43 O 0.59658 0.18931 0.63085 0.0
H44 H 0.62603 0.04396 0.68012 0.0
H45 H 0.72934 0.18553 0.73216 0.0
Cu46 Cu 0.85907 0.6056 0.17866 0.0
N47 N 0.9093 0.5999 0.18304 0.0
N48 N 0.96334 0.57234 0.18742 0.0
C49 C 0.9268 0.56817 0.18828 0.0
C50 C 0.96899 0.6081 0.18139 0.0
C51 C 0.9356 0.62497 0.17842 0.0
O52 O 0.83672 0.57094 0.21005 0.0
C53 C 0.8179 0.59374 0.11583 0.0
O54 O 0.7878 0.59658 0.13382 0.0
H55 H 0.91293 0.54245 0.19196 0.0
H56 H 0.93085 0.65326 0.17209 0.0
N57 N 0.84626 0.6534 0.1901 0.0
N58 N 0.81607 0.70606 0.19478 0.0
C59 C 0.81612 0.67216 0.18122 0.0
C60 C 0.86571 0.67612 0.21003 0.0
C61 C 0.84726 0.70852 0.21294 0.0
C62 C 0.83769 0.57764 0.24209 0.0
O63 O 0.85093 0.60897 0.25248 0.0
H64 H 0.79477 0.66122 0.16515 0.0
H65 H 0.8912 0.6693 0.22233 0.0
O66 O 0.84865 0.59609 0.13072 0.0
H67 H 0.99532 0.62083 0.17779 0.0
H68 H 0.85571 0.7317 0.22812 0.0
Cu69 Cu 0.4323 0.85905 0.67876 0.0
N70 N 0.438 0.90929 0.68311 0.0
N71 N 0.46553 0.96335 0.68744 0.0
C72 C 0.46971 0.92681 0.68834 0.0
C73 C 0.42977 0.96897 0.6814 0.0
C74 C 0.41292 0.93556 0.67845 0.0
O75 O 0.4671 0.83676 0.71008 0.0
C76 C 0.44395 0.81791 0.61585 0.0
O77 O 0.44113 0.78779 0.63383 0.0
H78 H 0.49544 0.91295 0.69203 0.0
H79 H 0.38463 0.9308 0.67212 0.0
N80 N 0.38452 0.84625 0.69033 0.0
N81 N 0.33174 0.81626 0.69488 0.0
C82 C 0.36567 0.81619 0.68139 0.0
C83 C 0.36184 0.86575 0.71025 0.0
C84 C 0.32935 0.84743 0.71306 0.0
C85 C 0.46047 0.83762 0.74215 0.0
O86 O 0.42908 0.85064 0.75264 0.0
H87 H 0.37651 0.79483 0.66526 0.0
H88 H 0.36872 0.89124 0.72254 0.0
O89 O 0.44168 0.84864 0.63078 0.0
H90 H 0.41704 0.99529 0.67777 0.0
H91 H 0.30612 0.85597 0.72814 0.0
Cu92 Cu 0.17909 0.60582 0.40442 0.0
N93 N 0.12885 0.60013 0.40008 0.0
N94 N 0.07479 0.57261 0.39575 0.0
C95 C 0.11132 0.56842 0.39485 0.0
C96 C 0.06917 0.60837 0.40178 0.0
C97 C 0.10258 0.62522 0.40472 0.0
O98 O 0.20136 0.571 0.37312 0.0
C99 C 0.22022 0.59418 0.46734 0.0
O100 O 0.25034 0.59698 0.44937 0.0
H101 H 0.12518 0.54268 0.39116 0.0
H102 H 0.10735 0.6535 0.41104 0.0
N103 N 0.1919 0.65359 0.39284 0.0
N104 N 0.22188 0.70638 0.3883 0.0
C105 C 0.22195 0.67245 0.4018 0.0
C106 C 0.17239 0.67627 0.37291 0.0
C107 C 0.19071 0.70877 0.3701 0.0
C108 C 0.20057 0.57763 0.34105 0.0
O109 O 0.18765 0.60905 0.33055 0.0
H110 H 0.2433 0.66161 0.41793 0.0
H111 H 0.14691 0.66939 0.36062 0.0
O112 O 0.18949 0.59646 0.45241 0.0
H113 H 0.04285 0.62111 0.4054 0.0
H114 H 0.18218 0.73199 0.35502 0.0
Cu115 Cu 0.43255 0.17907 0.90453 0.0
N116 N 0.43825 0.12884 0.90015 0.0
N117 N 0.46579 0.07479 0.89578 0.0
C118 C 0.46997 0.11133 0.89491 0.0
C119 C 0.43004 0.06915 0.90181 0.0
C120 C 0.41317 0.10255 0.90478 0.0
O121 O 0.4672 0.20143 0.87314 0.0
C122 C 0.4444 0.22025 0.96736 0.0
O123 O 0.44155 0.25035 0.94936 0.0
H124 H 0.49569 0.12521 0.89123 0.0
H125 H 0.38489 0.1073 0.91111 0.0
N126 N 0.38475 0.19188 0.89309 0.0
N127 N 0.33208 0.22206 0.88841 0.0
C128 C 0.36599 0.22202 0.90197 0.0
C129 C 0.36203 0.17243 0.87315 0.0
C130 C 0.32962 0.19087 0.87025 0.0
C131 C 0.46051 0.20045 0.84109 0.0
O132 O 0.42918 0.1872 0.8307 0.0
H133 H 0.37692 0.24337 0.91805 0.0
H134 H 0.36886 0.14694 0.86086 0.0
O135 O 0.44206 0.1895 0.95247 0.0
H136 H 0.41731 0.04282 0.90541 0.0
H137 H 0.30644 0.18242 0.85507 0.0
Cu138 Cu 0.85891 0.43299 0.40418 0.0
N139 N 0.9093 0.43714 0.39992 0.0
N140 N 0.96449 0.46268 0.39597 0.0
C141 C 0.92806 0.46827 0.39542 0.0
C142 C 0.96854 0.42647 0.40099 0.0
C143 C 0.93453 0.4109 0.40366 0.0
O144 O 0.83779 0.46947 0.37378 0.0
C145 C 0.81818 0.4444 0.46732 0.0
O146 O 0.78798 0.44269 0.44933 0.0
H147 H 0.91507 0.49461 0.39321 0.0
H148 H 0.92865 0.38256 0.40885 0.0
N149 N 0.84496 0.38583 0.39164 0.0
N150 N 0.81464 0.33329 0.38674 0.0
C151 C 0.8153 0.36673 0.40129 0.0
C152 C 0.86342 0.36383 0.37021 0.0
C153 C 0.84488 0.33149 0.36717 0.0
C154 C 0.83274 0.46258 0.34211 0.0
O155 O 0.8382 0.42931 0.33089 0.0
H156 H 0.79482 0.377 0.41869 0.0
H157 H 0.88833 0.3711 0.35711 0.0
O158 O 0.84883 0.44156 0.45234 0.0
H159 H 0.99417 0.4121 0.40308 0.0
H160 H 0.85261 0.30879 0.35104 0.0
Cu161 Cu 0.60548 0.85897 0.90411 0.0
N162 N 0.60131 0.90937 0.89987 0.0
N163 N 0.57575 0.96455 0.89594 0.0
C164 C 0.57018 0.92812 0.89534 0.0
C165 C 0.61195 0.96861 0.90103 0.0
C166 C 0.62753 0.93461 0.90368 0.0
O167 O 0.56902 0.83784 0.87369 0.0
C168 C 0.59416 0.81825 0.96731 0.0
O169 O 0.59591 0.78804 0.94934 0.0
H170 H 0.54385 0.91511 0.89308 0.0
H171 H 0.65586 0.92874 0.90892 0.0
N172 N 0.65266 0.84507 0.89156 0.0
N173 N 0.70533 0.81496 0.8869 0.0
C174 C 0.67182 0.81547 0.90127 0.0
C175 C 0.67472 0.86362 0.87025 0.0
C176 C 0.70714 0.84522 0.86737 0.0
C177 C 0.57582 0.83331 0.84192 0.0
O178 O 0.60896 0.83938 0.83065 0.0
H179 H 0.66156 0.79494 0.91866 0.0
H180 H 0.66745 0.88856 0.85718 0.0
O181 O 0.59693 0.84889 0.95229 0.0
H182 H 0.6263 0.99424 0.90318 0.0
H183 H 0.72995 0.85308 0.85142 0.0
Cu184 Cu 0.85907 0.60561 0.90453 0.0
N185 N 0.9093 0.5999 0.90015 0.0
N186 N 0.96334 0.57235 0.89577 0.0
C187 C 0.9268 0.56818 0.89491 0.0
C188 C 0.96899 0.60811 0.90179 0.0
C189 C 0.9356 0.62498 0.90477 0.0
O190 O 0.83671 0.57095 0.87314 0.0
C191 C 0.8179 0.59374 0.96736 0.0
O192 O 0.7878 0.59659 0.94936 0.0
H193 H 0.91293 0.54245 0.89123 0.0
H194 H 0.93085 0.65326 0.91109 0.0
N195 N 0.84626 0.65341 0.89309 0.0
N196 N 0.81607 0.70607 0.8884 0.0
C197 C 0.81612 0.67216 0.90197 0.0
C198 C 0.86571 0.67613 0.87315 0.0
C199 C 0.84726 0.70853 0.87025 0.0
C200 C 0.8377 0.57765 0.8411 0.0
O201 O 0.85096 0.60897 0.83071 0.0
H202 H 0.79477 0.66122 0.91804 0.0
H203 H 0.8912 0.66931 0.86086 0.0
O204 O 0.84865 0.59609 0.95247 0.0
H205 H 0.99532 0.62083 0.90539 0.0
H206 H 0.85571 0.73171 0.85506 0.0
Cu207 Cu 0.43231 0.85905 0.40442 0.0
N208 N 0.438 0.90929 0.40008 0.0
N209 N 0.46553 0.96335 0.39575 0.0
C210 C 0.46971 0.92681 0.39485 0.0
C211 C 0.42977 0.96897 0.40179 0.0
C212 C 0.41292 0.93556 0.40474 0.0
O213 O 0.4671 0.83676 0.37311 0.0
C214 C 0.44395 0.81791 0.46734 0.0
O215 O 0.44113 0.78779 0.44937 0.0
H216 H 0.49544 0.91295 0.39115 0.0
H217 H 0.38464 0.9308 0.41106 0.0
N218 N 0.38453 0.84624 0.39286 0.0
N219 N 0.33174 0.81626 0.38831 0.0
C220 C 0.36567 0.81618 0.4018 0.0
C221 C 0.36185 0.86575 0.37293 0.0
C222 C 0.32935 0.84743 0.37012 0.0
C223 C 0.46048 0.83762 0.34105 0.0
O224 O 0.42909 0.85063 0.33055 0.0
H225 H 0.37652 0.79483 0.41793 0.0
H226 H 0.36872 0.89124 0.36065 0.0
O227 O 0.44168 0.84864 0.45241 0.0
H228 H 0.41704 0.99529 0.40541 0.0
H229 H 0.30613 0.85597 0.35504 0.0
Cu230 Cu 0.17913 0.43262 0.90412 0.0
N231 N 0.12874 0.4368 0.89987 0.0
N232 N 0.07357 0.46236 0.89595 0.0
C233 C 0.10999 0.46793 0.89534 0.0
C234 C 0.06949 0.42616 0.90105 0.0
C235 C 0.10349 0.41058 0.90371 0.0
O236 O 0.20028 0.46906 0.87368 0.0
C237 C 0.21985 0.44396 0.96731 0.0
O238 O 0.25006 0.44221 0.94934 0.0
H239 H 0.12301 0.49426 0.89306 0.0
H240 H 0.10935 0.38226 0.90897 0.0
N241 N 0.19303 0.38543 0.89159 0.0
N242 N 0.22315 0.33276 0.88694 0.0
C243 C 0.22264 0.36629 0.90129 0.0
C244 C 0.17446 0.36335 0.87031 0.0
C245 C 0.19287 0.33093 0.86743 0.0
C246 C 0.20469 0.46225 0.8419 0.0
O247 O 0.19847 0.42914 0.83063 0.0
H248 H 0.24318 0.37656 0.91865 0.0
H249 H 0.14952 0.3706 0.85725 0.0
O250 O 0.18921 0.44119 0.9523 0.0
H251 H 0.04386 0.41182 0.90322 0.0
H252 H 0.18501 0.3081 0.85151 0.0
Cu253 Cu 0.60515 0.17923 0.40417 0.0
N254 N 0.601 0.12883 0.39991 0.0
N255 N 0.57546 0.07365 0.39596 0.0
C256 C 0.56987 0.11007 0.39542 0.0
C257 C 0.61167 0.06959 0.40098 0.0
C258 C 0.62724 0.1036 0.40365 0.0
O259 O 0.56867 0.20035 0.37378 0.0
C260 C 0.59374 0.21996 0.46732 0.0
O261 O 0.59545 0.25016 0.44932 0.0
H262 H 0.54353 0.12307 0.39321 0.0
H263 H 0.65557 0.10948 0.40884 0.0
N264 N 0.65231 0.19318 0.39163 0.0
N265 N 0.70484 0.2235 0.38674 0.0
C266 C 0.67141 0.22283 0.40128 0.0
C267 C 0.67431 0.17472 0.3702 0.0
C268 C 0.70664 0.19326 0.36716 0.0
C269 C 0.57556 0.2054 0.3421 0.0
O270 O 0.60882 0.19996 0.33088 0.0
H271 H 0.66114 0.24332 0.41869 0.0
H272 H 0.66703 0.14981 0.3571 0.0
O273 O 0.59658 0.18931 0.45233 0.0
H274 H 0.62603 0.04396 0.40307 0.0
H275 H 0.72934 0.18553 0.35102 0.0
Cu276 Cu 0.8589 0.433 0.67901 0.0
N277 N 0.90929 0.43715 0.68327 0.0
N278 N 0.96448 0.46268 0.68723 0.0
C279 C 0.92806 0.46828 0.68777 0.0
C280 C 0.96853 0.42647 0.68221 0.0
C281 C 0.93452 0.4109 0.67954 0.0
O282 O 0.83778 0.46948 0.70941 0.0
C283 C 0.81817 0.4444 0.61587 0.0
O284 O 0.78798 0.44269 0.63386 0.0
H285 H 0.91506 0.49462 0.68997 0.0
H286 H 0.92865 0.38257 0.67435 0.0
N287 N 0.84495 0.38584 0.69156 0.0
N288 N 0.81463 0.3333 0.69645 0.0
C289 C 0.8153 0.36673 0.68191 0.0
C290 C 0.86341 0.36384 0.71299 0.0
C291 C 0.84487 0.33151 0.71603 0.0
C292 C 0.83272 0.46259 0.74108 0.0
O293 O 0.83814 0.42932 0.7523 0.0
H294 H 0.79481 0.37701 0.66449 0.0
H295 H 0.88832 0.37112 0.72609 0.0
O296 O 0.84882 0.44157 0.63085 0.0
H297 H 0.99416 0.41211 0.68012 0.0
H298 H 0.8526 0.3088 0.73217 0.0
Cu299 Cu 0.60548 0.85897 0.17908 0.0
N300 N 0.60131 0.90937 0.18332 0.0
N301 N 0.57576 0.96454 0.18725 0.0
C302 C 0.57018 0.92812 0.18785 0.0
C303 C 0.61196 0.96861 0.18216 0.0
C304 C 0.62754 0.93461 0.17951 0.0
O305 O 0.56902 0.83784 0.2095 0.0
C306 C 0.59416 0.81825 0.11588 0.0
O307 O 0.59591 0.78804 0.13385 0.0
H308 H 0.54385 0.9151 0.19011 0.0
H309 H 0.65586 0.92874 0.17426 0.0
N310 N 0.65267 0.84506 0.19163 0.0
N311 N 0.70534 0.81496 0.19628 0.0
C312 C 0.67182 0.81546 0.18192 0.0
C313 C 0.67472 0.86362 0.21294 0.0
C314 C 0.70715 0.84522 0.21582 0.0
C315 C 0.57583 0.83332 0.24127 0.0
O316 O 0.60896 0.8394 0.25254 0.0
H317 H 0.66156 0.79494 0.16453 0.0
H318 H 0.66746 0.88856 0.226 0.0
O319 O 0.59693 0.84889 0.1309 0.0
H320 H 0.62631 0.99424 0.18001 0.0
H321 H 0.72996 0.85308 0.23176 0.0
Cu322 Cu 0.17909 0.60582 0.67877 0.0
N323 N 0.12885 0.60013 0.68311 0.0
N324 N 0.07478 0.57261 0.68744 0.0
C325 C 0.11132 0.56842 0.68834 0.0
C326 C 0.06916 0.60837 0.68141 0.0
C327 C 0.10258 0.62522 0.67847 0.0
O328 O 0.20136 0.571 0.71008 0.0
C329 C 0.22021 0.59418 0.61585 0.0
O330 O 0.25034 0.59698 0.63383 0.0
H331 H 0.12517 0.54268 0.69203 0.0
H332 H 0.10735 0.6535 0.67215 0.0
N333 N 0.19189 0.65359 0.69035 0.0
N334 N 0.22188 0.70638 0.69489 0.0
C335 C 0.22195 0.67245 0.6814 0.0
C336 C 0.17239 0.67627 0.71028 0.0
C337 C 0.19071 0.70877 0.71309 0.0
C338 C 0.20057 0.57763 0.74214 0.0
O339 O 0.18766 0.60905 0.75265 0.0
H340 H 0.2433 0.66161 0.66526 0.0
H341 H 0.14691 0.66939 0.72257 0.0
O342 O 0.18949 0.59645 0.63078 0.0
H343 H 0.04285 0.62111 0.67779 0.0
H344 H 0.18218 0.73199 0.72818 0.0
Cu345 Cu 0.43255 0.17907 0.17865 0.0
N346 N 0.43825 0.12884 0.18303 0.0
N347 N 0.46579 0.07479 0.18741 0.0
C348 C 0.46997 0.11133 0.18828 0.0
C349 C 0.43004 0.06914 0.18138 0.0
C350 C 0.41317 0.10254 0.1784 0.0
O351 O 0.4672 0.20143 0.21005 0.0
C352 C 0.4444 0.22025 0.11583 0.0
O353 O 0.44155 0.25035 0.13382 0.0
H354 H 0.49569 0.12521 0.19196 0.0
H355 H 0.38489 0.10729 0.17207 0.0
N356 N 0.38475 0.19188 0.1901 0.0
N357 N 0.33208 0.22206 0.19478 0.0
C358 C 0.36599 0.22201 0.18121 0.0
C359 C 0.36203 0.17242 0.21003 0.0
C360 C 0.32963 0.19087 0.21293 0.0
C361 C 0.46051 0.20045 0.24209 0.0
O362 O 0.42918 0.1872 0.25248 0.0
H363 H 0.37692 0.24337 0.16514 0.0
H364 H 0.36886 0.14693 0.22232 0.0
O365 O 0.44206 0.1895 0.13072 0.0
H366 H 0.41731 0.04281 0.17777 0.0
H367 H 0.30645 0.18241 0.22811 0.0
C368 C 1.00991 0.4821 0.17672 0.0
C369 C 0.0452 0.48966 0.18893 0.0
H370 H 0.9564 0.50242 0.16652 0.0
C371 C 0.0525 0.52472 0.20189 0.0
H372 H 1.00315 0.45575 0.16611 0.0
C373 C 0.02556 0.55166 0.20178 0.0
C374 C 0.99057 0.54413 0.18908 0.0
H375 H 0.07901 0.53151 0.21214 0.0
H376 H 0.03207 0.5784 0.21175 0.0
C377 C 0.98293 0.50894 0.17693 0.0
C378 C 0.48618 0.0256 0.70174 0.0
C379 C 0.49373 0.9906 0.68908 0.0
H380 H 0.50629 0.07907 0.71206 0.0
C381 C 0.52893 0.98296 0.67697 0.0
H382 H 0.45943 0.03211 0.71169 0.0
C383 C 0.55576 1.00995 0.67675 0.0
C384 C 0.54817 0.04526 0.68891 0.0
H385 H 0.53547 0.95642 0.66659 0.0
H386 H 0.58211 1.0032 0.66616 0.0
C387 C 0.5131 0.05256 0.70184 0.0
C388 C 0.05517 0.5092 0.40623 0.0
C389 C 0.04754 0.5444 0.39411 0.0
H390 H 0.03492 0.45602 0.41704 0.0
C391 C 1.01254 0.55196 0.38144 0.0
H392 H 0.08171 0.50266 0.41661 0.0
C393 C 0.98558 0.52503 0.38135 0.0
C394 C 0.99287 0.48996 0.39428 0.0
H395 H 1.00604 0.5787 0.37149 0.0
H396 H 0.95907 0.53185 0.37112 0.0
C397 C 0.02817 0.48238 0.40645 0.0
C398 C 0.5134 0.98562 0.88131 0.0
C399 C 0.54846 0.99292 0.89426 0.0
H400 H 0.45973 1.00606 0.87145 0.0
C401 C 0.55603 0.02822 0.90646 0.0
H402 H 0.5066 0.95911 0.87106 0.0
C403 C 0.52919 0.0552 0.90626 0.0
C404 C 0.494 0.04756 0.89412 0.0
H405 H 0.58238 0.03497 0.91707 0.0
H406 H 0.53572 0.08174 0.91666 0.0
C407 C 0.48647 1.01257 0.88142 0.0
C408 C 0.02556 0.55166 0.88141 0.0
C409 C 0.99057 0.54413 0.89411 0.0
H410 H 0.079 0.53151 0.87105 0.0
C411 C 0.98293 0.50894 0.90627 0.0
H412 H 0.03207 0.57839 0.87143 0.0
C413 C 1.0099 0.4821 0.90647 0.0
C414 C 0.0452 0.48966 0.89427 0.0
H415 H 0.95639 0.50242 0.91667 0.0
H416 H 1.00314 0.45576 0.91709 0.0
C417 C 0.0525 0.52472 0.8813 0.0
C418 C 0.55576 1.00996 0.40643 0.0
C419 C 0.54817 0.04527 0.39427 0.0
H420 H 0.53548 0.95642 0.41659 0.0
C421 C 0.51311 0.05256 0.38135 0.0
H422 H 0.58212 1.0032 0.41702 0.0
C423 C 0.48618 0.0256 0.38144 0.0
C424 C 0.49373 0.9906 0.3941 0.0
H425 H 0.50629 0.07907 0.37113 0.0
H426 H 0.45943 0.03211 0.37149 0.0
C427 C 0.52893 0.98296 0.40622 0.0
C428 C 0.98558 0.52504 0.70184 0.0
C429 C 0.99286 0.48997 0.68891 0.0
H430 H 1.00603 0.57871 0.7117 0.0
C431 C 0.02817 0.48238 0.67675 0.0
H432 H 0.95906 0.53185 0.71206 0.0
C433 C 0.05516 0.50921 0.67696 0.0
C434 C 0.04753 0.54441 0.68909 0.0
H435 H 0.03492 0.45602 0.66616 0.0
H436 H 0.08171 0.50266 0.66659 0.0
C437 C 1.01253 0.55196 0.70175 0.0
C438 C 0.48647 1.01256 0.20177 0.0
C439 C 0.49401 0.04756 0.18907 0.0
H440 H 0.50661 0.95911 0.21213 0.0
C441 C 0.5292 0.05519 0.17693 0.0
H442 H 0.45973 1.00606 0.21174 0.0
C443 C 0.55603 0.02822 0.17673 0.0
C444 C 0.54847 0.99292 0.18892 0.0
H445 H 0.53573 0.08173 0.16652 0.0
H446 H 0.58238 0.03497 0.16612 0.0
C447 C 0.51341 0.98562 0.20188 0.0
C448 C 0.213 0.51232 0.32583 0.0
C449 C 0.20827 0.54868 0.31555 0.0
H450 H 0.21597 0.45648 0.31034 0.0
C451 C 0.20712 0.55668 0.28028 0.0
H452 H 0.21413 0.50521 0.35274 0.0
C453 C 0.20821 0.52875 0.25592 0.0
C454 C 0.21036 0.49217 0.26629 0.0
H455 H 0.20381 0.58445 0.27145 0.0
H456 H 0.20554 0.53577 0.22908 0.0
C457 C 0.21398 0.48436 0.30145 0.0
C458 C 0.5535 0.21482 0.80124 0.0
C459 C 0.54565 0.21088 0.76611 0.0
H460 H 0.53277 0.21501 0.85257 0.0
C461 C 0.50908 0.20819 0.75583 0.0
H462 H 0.58138 0.21722 0.81005 0.0
C463 C 0.48123 0.2069 0.78026 0.0
C464 C 0.4893 0.20836 0.8155 0.0
H465 H 0.50203 0.20527 0.72902 0.0
H466 H 0.45348 0.20318 0.7715 0.0
C467 C 0.52562 0.21362 0.82567 0.0
C468 C 0.83124 0.55691 0.30292 0.0
C469 C 0.82978 0.54884 0.26768 0.0
H470 H 0.83286 0.53611 0.35416 0.0
C471 C 0.82453 0.51252 0.25751 0.0
H472 H 0.83495 0.58466 0.31168 0.0
C473 C 0.82333 0.48464 0.28195 0.0
C474 C 0.82726 0.49249 0.31707 0.0
H475 H 0.82314 0.50537 0.23061 0.0
H476 H 0.82093 0.45676 0.27313 0.0
C477 C 0.82994 0.52906 0.32735 0.0
C478 C 0.50933 0.82998 0.82729 0.0
C479 C 0.54589 0.82769 0.81693 0.0
H480 H 0.45364 0.83453 0.81176 0.0
C481 C 0.5537 0.824 0.78177 0.0
H482 H 0.50232 0.83271 0.85413 0.0
C483 C 0.52575 0.82503 0.7574 0.0
C484 C 0.4894 0.82988 0.76766 0.0
H485 H 0.58157 0.82191 0.77289 0.0
H486 H 0.53285 0.82383 0.73048 0.0
C487 C 0.48141 0.83111 0.80293 0.0
C488 C 0.83126 0.55692 0.78026 0.0
C489 C 0.82978 0.54885 0.8155 0.0
H490 H 0.83288 0.53612 0.72902 0.0
C491 C 0.8245 0.51253 0.82567 0.0
H492 H 0.83499 0.58467 0.7715 0.0
C493 C 0.8233 0.48465 0.80124 0.0
C494 C 0.82725 0.4925 0.76611 0.0
H495 H 0.82311 0.50538 0.85257 0.0
H496 H 0.82088 0.45678 0.81005 0.0
C497 C 0.82995 0.52907 0.75583 0.0
C498 C 0.48141 0.83111 0.28027 0.0
C499 C 0.48941 0.82988 0.31553 0.0
H500 H 0.50232 0.8327 0.22906 0.0
C501 C 0.52576 0.82504 0.3258 0.0
H502 H 0.45364 0.83451 0.27144 0.0
C503 C 0.5537 0.82401 0.30142 0.0
C504 C 0.5459 0.8277 0.26626 0.0
H505 H 0.53286 0.82384 0.35271 0.0
H506 H 0.58158 0.82193 0.3103 0.0
C507 C 0.50933 0.82997 0.2559 0.0
C508 C 0.20821 0.52875 0.82727 0.0
C509 C 0.21036 0.49217 0.8169 0.0
H510 H 0.20381 0.58445 0.81175 0.0
C511 C 0.21396 0.48436 0.78174 0.0
H512 H 0.20554 0.53576 0.85412 0.0
C513 C 0.21299 0.51231 0.75737 0.0
C514 C 0.20827 0.54868 0.76764 0.0
H515 H 0.21596 0.45647 0.77286 0.0
H516 H 0.21412 0.50521 0.73045 0.0
C517 C 0.20712 0.55667 0.80291 0.0
C518 C 0.5535 0.21482 0.28195 0.0
C519 C 0.54565 0.21088 0.31707 0.0
H520 H 0.53277 0.21501 0.23061 0.0
C521 C 0.50908 0.20819 0.32735 0.0
H522 H 0.58138 0.21723 0.27313 0.0
C523 C 0.48123 0.20689 0.30292 0.0
C524 C 0.4893 0.20836 0.26768 0.0
H525 H 0.50203 0.20527 0.35416 0.0
H526 H 0.45348 0.20317 0.31169 0.0
C527 C 0.52562 0.21362 0.25751 0.0
C528 C 0.18808 0.45003 1.02372 0.0
C529 C 0.22082 0.44679 1.00528 0.0
H530 H 0.16217 0.45196 0.07264 0.0
C531 C 0.25378 0.44469 1.0236 0.0
H532 H 0.16217 0.45196 1.01056 0.0
C533 C 0.25378 0.44469 0.05959 0.0
C534 C 0.22082 0.44679 0.07791 0.0
H535 H 0.27949 0.44221 1.0102 0.0
H536 H 0.27949 0.44221 0.07299 0.0
C537 C 0.18808 0.45003 0.05947 0.0
C538 C 0.59303 0.25391 0.5236 0.0
C539 C 0.59089 0.22095 0.50528 0.0
H540 H 0.59554 0.27962 0.57299 0.0
C541 C 0.5876 0.18821 0.52372 0.0
H542 H 0.59554 0.27962 0.51019 0.0
C543 C 0.5876 0.18821 0.55946 0.0
C544 C 0.59089 0.22095 0.5779 0.0
H545 H 0.58563 0.1623 0.51056 0.0
H546 H 0.58563 0.1623 0.57263 0.0
C547 C 0.59303 0.25391 0.55958 0.0
C548 C 0.84935 0.5859 0.05947 0.0
C549 C 0.81677 0.59051 0.0779 0.0
H550 H 0.87517 0.58298 1.01055 0.0
C551 C 0.78391 0.59381 0.05958 0.0
H552 H 0.87517 0.58298 0.07263 0.0
C553 C 0.78391 0.59381 1.0236 0.0
C554 C 0.81677 0.59051 1.00529 0.0
H555 H 0.75832 0.59735 0.07299 0.0
H556 H 0.75832 0.59735 1.0102 0.0
C557 C 0.84935 0.5859 1.02372 0.0
C558 C 0.45158 0.84941 0.55947 0.0
C559 C 0.44711 0.81681 0.57791 0.0
H560 H 0.45441 0.87524 0.51055 0.0
C561 C 0.44391 0.78394 0.55959 0.0
H562 H 0.45441 0.87524 0.57264 0.0
C563 C 0.44391 0.78394 0.5236 0.0
C564 C 0.44711 0.81681 0.50528 0.0
H565 H 0.44047 0.75833 0.57299 0.0
H566 H 0.44047 0.75833 0.51021 0.0
C567 C 0.45158 0.84941 0.52372 0.0
C568 C 0.18871 0.58656 0.52372 0.0
C569 C 0.22131 0.59102 0.50528 0.0
H570 H 0.16288 0.58375 0.57264 0.0
C571 C 0.25418 0.59421 0.52361 0.0
H572 H 0.16288 0.58375 0.51055 0.0
C573 C 0.25418 0.59421 0.55959 0.0
C574 C 0.22131 0.59102 0.57791 0.0
H575 H 0.27979 0.59763 0.51021 0.0
H576 H 0.27979 0.59763 0.57299 0.0
C577 C 0.18871 0.58656 0.55947 0.0
C578 C 0.45225 0.1888 1.02372 0.0
C579 C 0.44764 0.22138 1.00529 0.0
H580 H 0.45518 0.16298 0.07263 0.0
C581 C 0.44433 0.25424 1.0236 0.0
H582 H 0.45518 0.16298 1.01055 0.0
C583 C 0.44433 0.25424 0.05958 0.0
C584 C 0.44764 0.22138 0.0779 0.0
H585 H 0.44078 0.27983 1.0102 0.0
H586 H 0.44078 0.27983 0.07298 0.0
C587 C 0.45226 0.1888 0.05946 0.0
C588 C 0.78423 0.44511 0.5236 0.0
C589 C 0.81719 0.44725 0.50528 0.0
H590 H 0.75852 0.4426 0.57299 0.0
C591 C 0.84993 0.45055 0.52372 0.0
H592 H 0.75852 0.4426 0.5102 0.0
C593 C 0.84993 0.45055 0.55947 0.0
C594 C 0.81719 0.44726 0.57791 0.0
H595 H 0.87584 0.45251 0.51056 0.0
H596 H 0.87583 0.45252 0.57263 0.0
C597 C 0.78423 0.44512 0.55959 0.0
C598 C 0.59343 0.78432 0.05959 0.0
C599 C 0.59134 0.81728 0.07791 0.0
H600 H 0.5959 0.75861 1.0102 0.0
C601 C 0.58811 0.85003 0.05947 0.0
H602 H 0.5959 0.75861 0.07299 0.0
C603 C 0.58811 0.85003 1.02372 0.0
C604 C 0.59134 0.81728 1.00528 0.0
H605 H 0.58619 0.87594 0.07263 0.0
H606 H 0.58619 0.87594 1.01056 0.0
C607 C 0.59343 0.78432 1.0236 0.0
C608 C 0.24097 0.26801 0.19671 0.0
C609 C 0.25051 0.30483 0.1928 0.0
H610 H 0.2592 0.21289 0.19959 0.0
C611 C 0.28724 0.31384 0.18711 0.0
H612 H 0.21283 0.26009 0.2003 0.0
C613 C 0.31402 0.28665 0.18679 0.0
C614 C 0.30453 0.24993 0.1921 0.0
H615 H 0.29547 0.34199 0.1842 0.0
H616 H 0.34222 0.29455 0.18366 0.0
C617 C 0.2676 0.24094 0.19632 0.0
C618 C 0.79628 0.26871 0.69805 0.0
C619 C 0.78709 0.30551 0.69325 0.0
H620 H 0.7775 0.21383 0.7021 0.0
C621 C 0.75049 0.31465 0.68694 0.0
H622 H 0.8243 0.26063 0.7021 0.0
C623 C 0.72349 0.28765 0.68694 0.0
C624 C 0.73263 0.25104 0.69325 0.0
H625 H 0.7425 0.34276 0.68333 0.0
H626 H 0.69538 0.29563 0.68332 0.0
C627 C 0.76943 0.24186 0.69805 0.0
C628 C 0.75148 0.72411 0.1868 0.0
C629 C 0.78819 0.73361 0.19212 0.0
H630 H 0.69614 0.74264 0.1842 0.0
C631 C 0.79717 0.77054 0.19636 0.0
H632 H 0.74359 0.6959 0.18365 0.0
C633 C 0.77009 0.79717 0.19675 0.0
C634 C 0.73327 0.78761 0.19283 0.0
H635 H 0.82521 0.77895 0.19963 0.0
H636 H 0.778 0.82531 0.20036 0.0
C637 C 0.72428 0.75088 0.18711 0.0
C638 C 0.24023 0.77103 0.69546 0.0
C639 C 0.24955 0.73409 0.69199 0.0
H640 H 0.25889 0.82604 0.69838 0.0
C641 C 0.28636 0.72478 0.68714 0.0
H642 H 0.21209 0.77923 0.69839 0.0
C643 C 0.31335 0.75177 0.68714 0.0
C644 C 0.30403 0.78858 0.69198 0.0
H645 H 0.29448 0.69656 0.6846 0.0
H646 H 0.34156 0.74366 0.68459 0.0
C647 C 0.26709 0.79789 0.69546 0.0
C648 C 0.2671 0.79789 0.38773 0.0
C649 C 0.30403 0.78858 0.39121 0.0
H650 H 0.2121 0.77924 0.3848 0.0
C651 C 0.31335 0.75177 0.39605 0.0
H652 H 0.25889 0.82604 0.38481 0.0
C653 C 0.28637 0.72478 0.39605 0.0
C654 C 0.24956 0.73409 0.3912 0.0
H655 H 0.34156 0.74366 0.3986 0.0
H656 H 0.29448 0.69656 0.39859 0.0
C657 C 0.24024 0.77103 0.38773 0.0
C658 C 0.26759 0.24094 0.88687 0.0
C659 C 0.30453 0.24994 0.89109 0.0
H660 H 0.21282 0.26009 0.88289 0.0
C661 C 0.31402 0.28665 0.8964 0.0
H662 H 0.2592 0.21289 0.88361 0.0
C663 C 0.28724 0.31384 0.89609 0.0
C664 C 0.2505 0.30483 0.89039 0.0
H665 H 0.34222 0.29455 0.89953 0.0
H666 H 0.29546 0.34199 0.89899 0.0
C667 C 0.24096 0.26801 0.88649 0.0
C668 C 0.7235 0.28765 0.39624 0.0
C669 C 0.73263 0.25104 0.38994 0.0
H670 H 0.74251 0.34276 0.39986 0.0
C671 C 0.76943 0.24185 0.38514 0.0
H672 H 0.69538 0.29563 0.39986 0.0
C673 C 0.79628 0.2687 0.38514 0.0
C674 C 0.78709 0.3055 0.38994 0.0
H675 H 0.7775 0.21383 0.38109 0.0
H676 H 0.8243 0.26062 0.3811 0.0
C677 C 0.75049 0.31464 0.39625 0.0
C678 C 0.79717 0.77055 0.88683 0.0
C679 C 0.78818 0.73361 0.89107 0.0
H680 H 0.77799 0.82531 0.88283 0.0
C681 C 0.75148 0.72411 0.89639 0.0
H682 H 0.82521 0.77895 0.88356 0.0
C683 C 0.72427 0.75088 0.89607 0.0
C684 C 0.73327 0.78762 0.89036 0.0
H685 H 0.74359 0.6959 0.89954 0.0
H686 H 0.69613 0.74265 0.89899 0.0
C687 C 0.77008 0.79717 0.88644 0.0
loop_
_geom_bond_atom_site_label_1
_geom_bond_atom_site_label_2
_geom_bond_distance
_geom_bond_site_symmetry_2
_ccdc_geom_bond_type
Cu0 N1 1.999 . S
Cu0 O6 1.974 . S
Cu0 N11 1.985 . S
Cu0 O20 1.959 . S
N1 Cu0 1.999 . S
N1 C3 1.263 . S
N1 C5 1.389 . S
N2 C3 1.358 . S
N2 C4 1.400 . S
C3 N1 1.263 . S
C3 N2 1.358 . S
C3 H9 0.930 . S
C4 N2 1.400 . S
C4 C5 1.351 . S
C4 H21 0.930 . S
C5 N1 1.389 . S
C5 C4 1.351 . S
C5 H10 0.930 . S
O6 Cu0 1.974 . S
O6 C16 1.282 . S
C7 O8 1.261 . S
C7 O20 1.251 . S
O8 C7 1.261 . S
H9 C3 0.930 . S
H10 C5 0.930 . S
N11 Cu0 1.985 . S
N11 C13 1.335 . S
N11 C14 1.390 . S
N12 C13 1.345 . S
N12 C15 1.336 . S
C13 N11 1.335 . S
C13 N12 1.345 . S
C13 H18 0.930 . S
C14 N11 1.390 . S
C14 C15 1.346 . S
C14 H19 0.930 . S
C15 N12 1.336 . S
C15 C14 1.346 . S
C15 H22 0.929 . S
C16 O6 1.282 . S
C16 O17 1.216 . S
O17 C16 1.216 . S
H18 C13 0.930 . S
H19 C14 0.930 . S
O20 Cu0 1.959 . S
O20 C7 1.251 . S
H21 C4 0.930 . S
H22 C15 0.929 . S
Cu23 N24 1.999 . S
Cu23 O29 1.974 . S
Cu23 N34 1.985 . S
Cu23 O43 1.959 . S
N24 Cu23 1.999 . S
N24 C26 1.263 . S
N24 C28 1.389 . S
N25 C26 1.358 . S
N25 C27 1.400 . S
C26 N24 1.263 . S
C26 N25 1.358 . S
C26 H32 0.930 . S
C27 N25 1.400 . S
C27 C28 1.351 . S
C27 H44 0.930 . S
C28 N24 1.389 . S
C28 C27 1.351 . S
C28 H33 0.930 . S
O29 Cu23 1.974 . S
O29 C39 1.282 . S
C30 O31 1.261 . S
C30 O43 1.251 . S
O31 C30 1.261 . S
H32 C26 0.930 . S
H33 C28 0.930 . S
N34 Cu23 1.985 . S
N34 C36 1.335 . S
N34 C37 1.390 . S
N35 C36 1.345 . S
N35 C38 1.336 . S
C36 N34 1.335 . S
C36 N35 1.345 . S
C36 H41 0.930 . S
C37 N34 1.390 . S
C37 C38 1.346 . S
C37 H42 0.930 . S
C38 N35 1.336 . S
C38 C37 1.346 . S
C38 H45 0.929 . S
C39 O29 1.282 . S
C39 O40 1.216 . S
O40 C39 1.216 . S
H41 C36 0.930 . S
H42 C37 0.930 . S
O43 Cu23 1.959 . S
O43 C30 1.251 . S
H44 C27 0.930 . S
H45 C38 0.929 . S
Cu46 N47 1.999 . S
Cu46 O52 1.974 . S
Cu46 N57 1.985 . S
Cu46 O66 1.959 . S
N47 Cu46 1.999 . S
N47 C49 1.263 . S
N47 C51 1.389 . S
N48 C49 1.358 . S
N48 C50 1.400 . S
C49 N47 1.263 . S
C49 N48 1.358 . S
C49 H55 0.930 . S
C50 N48 1.400 . S
C50 C51 1.351 . S
C50 H67 0.930 . S
C51 N47 1.389 . S
C51 C50 1.351 . S
C51 H56 0.930 . S
O52 Cu46 1.974 . S
O52 C62 1.282 . S
C53 O54 1.261 . S
C53 O66 1.251 . S
O54 C53 1.261 . S
H55 C49 0.930 . S
H56 C51 0.930 . S
N57 Cu46 1.985 . S
N57 C59 1.335 . S
N57 C60 1.390 . S
N58 C59 1.345 . S
N58 C61 1.336 . S
C59 N57 1.335 . S
C59 N58 1.345 . S
C59 H64 0.930 . S
C60 N57 1.390 . S
C60 C61 1.346 . S
C60 H65 0.930 . S
C61 N58 1.336 . S
C61 C60 1.346 . S
C61 H68 0.929 . S
C62 O52 1.282 . S
C62 O63 1.216 . S
O63 C62 1.216 . S
H64 C59 0.930 . S
H65 C60 0.930 . S
O66 Cu46 1.959 . S
O66 C53 1.251 . S
H67 C50 0.930 . S
H68 C61 0.929 . S
Cu69 N70 1.999 . S
Cu69 O75 1.974 . S
Cu69 N80 1.985 . S
Cu69 O89 1.959 . S
N70 Cu69 1.999 . S
N70 C72 1.263 . S
N70 C74 1.389 . S
N71 C72 1.358 . S
N71 C73 1.400 . S
C72 N70 1.263 . S
C72 N71 1.358 . S
C72 H78 0.930 . S
C73 N71 1.400 . S
C73 C74 1.351 . S
C73 H90 0.930 . S
C74 N70 1.389 . S
C74 C73 1.351 . S
C74 H79 0.930 . S
O75 Cu69 1.974 . S
O75 C85 1.282 . S
C76 O77 1.261 . S
C76 O89 1.251 . S
O77 C76 1.261 . S
H78 C72 0.930 . S
H79 C74 0.930 . S
N80 Cu69 1.985 . S
N80 C82 1.335 . S
N80 C83 1.390 . S
N81 C82 1.345 . S
N81 C84 1.336 . S
C82 N80 1.335 . S
C82 N81 1.345 . S
C82 H87 0.930 . S
C83 N80 1.390 . S
C83 C84 1.346 . S
C83 H88 0.930 . S
C84 N81 1.336 . S
C84 C83 1.346 . S
C84 H91 0.929 . S
C85 O75 1.282 . S
C85 O86 1.216 . S
O86 C85 1.216 . S
H87 C82 0.930 . S
H88 C83 0.930 . S
O89 Cu69 1.959 . S
O89 C76 1.251 . S
H90 C73 0.930 . S
H91 C84 0.929 . S
Cu92 N93 1.999 . S
Cu92 O98 1.974 . S
Cu92 N103 1.985 . S
Cu92 O112 1.959 . S
N93 Cu92 1.999 . S
N93 C95 1.263 . S
N93 C97 1.389 . S
N94 C95 1.358 . S
N94 C96 1.400 . S
C95 N93 1.263 . S
C95 N94 1.358 . S
C95 H101 0.930 . S
C96 N94 1.400 . S
C96 C97 1.351 . S
C96 H113 0.930 . S
C97 N93 1.389 . S
C97 C96 1.351 . S
C97 H102 0.930 . S
O98 Cu92 1.974 . S
O98 C108 1.282 . S
C99 O100 1.261 . S
C99 O112 1.251 . S
O100 C99 1.261 . S
H101 C95 0.930 . S
H102 C97 0.930 . S
N103 Cu92 1.985 . S
N103 C105 1.335 . S
N103 C106 1.390 . S
N104 C105 1.345 . S
N104 C107 1.336 . S
C105 N103 1.335 . S
C105 N104 1.345 . S
C105 H110 0.930 . S
C106 N103 1.390 . S
C106 C107 1.346 . S
C106 H111 0.930 . S
C107 N104 1.336 . S
C107 C106 1.346 . S
C107 H114 0.929 . S
C108 O98 1.282 . S
C108 O109 1.216 . S
O109 C108 1.216 . S
H110 C105 0.930 . S
H111 C106 0.930 . S
O112 Cu92 1.959 . S
O112 C99 1.251 . S
H113 C96 0.930 . S
H114 C107 0.929 . S
Cu115 N116 1.999 . S
Cu115 O121 1.974 . S
Cu115 N126 1.985 . S
Cu115 O135 1.959 . S
N116 Cu115 1.999 . S
N116 C118 1.263 . S
N116 C120 1.389 . S
N117 C118 1.358 . S
N117 C119 1.400 . S
C118 N116 1.263 . S
C118 N117 1.358 . S
C118 H124 0.930 . S
C119 N117 1.400 . S
C119 C120 1.351 . S
C119 H136 0.930 . S
C120 N116 1.389 . S
C120 C119 1.351 . S
C120 H125 0.930 . S
O121 Cu115 1.974 . S
O121 C131 1.282 . S
C122 O123 1.261 . S
C122 O135 1.251 . S
O123 C122 1.261 . S
H124 C118 0.930 . S
H125 C120 0.930 . S
N126 Cu115 1.985 . S
N126 C128 1.335 . S
N126 C129 1.390 . S
N127 C128 1.345 . S
N127 C130 1.336 . S
C128 N126 1.335 . S
C128 N127 1.345 . S
C128 H133 0.930 . S
C129 N126 1.390 . S
C129 C130 1.346 . S
C129 H134 0.930 . S
C130 N127 1.336 . S
C130 C129 1.346 . S
C130 H137 0.929 . S
C131 O121 1.282 . S
C131 O132 1.216 . S
O132 C131 1.216 . S
H133 C128 0.930 . S
H134 C129 0.930 . S
O135 Cu115 1.959 . S
O135 C122 1.251 . S
H136 C119 0.930 . S
H137 C130 0.929 . S
Cu138 N139 1.999 . S
Cu138 O144 1.974 . S
Cu138 N149 1.985 . S
Cu138 O158 1.959 . S
N139 Cu138 1.999 . S
N139 C141 1.263 . S
N139 C143 1.389 . S
N140 C141 1.358 . S
N140 C142 1.400 . S
C141 N139 1.263 . S
C141 N140 1.358 . S
C141 H147 0.930 . S
C142 N140 1.400 . S
C142 C143 1.351 . S
C142 H159 0.930 . S
C143 N139 1.389 . S
C143 C142 1.351 . S
C143 H148 0.930 . S
O144 Cu138 1.974 . S
O144 C154 1.282 . S
C145 O146 1.261 . S
C145 O158 1.251 . S
O146 C145 1.261 . S
H147 C141 0.930 . S
H148 C143 0.930 . S
N149 Cu138 1.985 . S
N149 C151 1.335 . S
N149 C152 1.390 . S
N150 C151 1.345 . S
N150 C153 1.336 . S
C151 N149 1.335 . S
C151 N150 1.345 . S
C151 H156 0.930 . S
C152 N149 1.390 . S
C152 C153 1.346 . S
C152 H157 0.930 . S
C153 N150 1.336 . S
C153 C152 1.346 . S
C153 H160 0.929 . S
C154 O144 1.282 . S
C154 O155 1.216 . S
O155 C154 1.216 . S
H156 C151 0.930 . S
H157 C152 0.930 . S
O158 Cu138 1.959 . S
O158 C145 1.251 . S
H159 C142 0.930 . S
H160 C153 0.929 . S
Cu161 N162 1.999 . S
Cu161 O167 1.974 . S
Cu161 N172 1.985 . S
Cu161 O181 1.959 . S
N162 Cu161 1.999 . S
N162 C164 1.263 . S
N162 C166 1.389 . S
N163 C164 1.358 . S
N163 C165 1.400 . S
C164 N162 1.263 . S
C164 N163 1.358 . S
C164 H170 0.930 . S
C165 N163 1.400 . S
C165 C166 1.351 . S
C165 H182 0.930 . S
C166 N162 1.389 . S
C166 C165 1.351 . S
C166 H171 0.930 . S
O167 Cu161 1.974 . S
O167 C177 1.282 . S
C168 O169 1.261 . S
C168 O181 1.251 . S
O169 C168 1.261 . S
H170 C164 0.930 . S
H171 C166 0.930 . S
N172 Cu161 1.985 . S
N172 C174 1.335 . S
N172 C175 1.390 . S
N173 C174 1.345 . S
N173 C176 1.336 . S
C174 N172 1.335 . S
C174 N173 1.345 . S
C174 H179 0.930 . S
C175 N172 1.390 . S
C175 C176 1.346 . S
C175 H180 0.930 . S
C176 N173 1.336 . S
C176 C175 1.346 . S
C176 H183 0.929 . S
C177 O167 1.282 . S
C177 O178 1.216 . S
O178 C177 1.216 . S
H179 C174 0.930 . S
H180 C175 0.930 . S
O181 Cu161 1.959 . S
O181 C168 1.251 . S
H182 C165 0.930 . S
H183 C176 0.929 . S
Cu184 N185 1.999 . S
Cu184 O190 1.974 . S
Cu184 N195 1.985 . S
Cu184 O204 1.959 . S
N185 Cu184 1.999 . S
N185 C187 1.263 . S
N185 C189 1.389 . S
N186 C187 1.358 . S
N186 C188 1.400 . S
C187 N185 1.263 . S
C187 N186 1.358 . S
C187 H193 0.930 . S
C188 N186 1.400 . S
C188 C189 1.351 . S
C188 H205 0.930 . S
C189 N185 1.389 . S
C189 C188 1.351 . S
C189 H194 0.930 . S
O190 Cu184 1.974 . S
O190 C200 1.282 . S
C191 O192 1.261 . S
C191 O204 1.251 . S
O192 C191 1.261 . S
H193 C187 0.930 . S
H194 C189 0.930 . S
N195 Cu184 1.985 . S
N195 C197 1.335 . S
N195 C198 1.390 . S
N196 C197 1.345 . S
N196 C199 1.336 . S
C197 N195 1.335 . S
C197 N196 1.345 . S
C197 H202 0.930 . S
C198 N195 1.390 . S
C198 C199 1.346 . S
C198 H203 0.930 . S
C199 N196 1.336 . S
C199 C198 1.346 . S
C199 H206 0.929 . S
C200 O190 1.282 . S
C200 O201 1.216 . S
O201 C200 1.216 . S
H202 C197 0.930 . S
H203 C198 0.930 . S
O204 Cu184 1.959 . S
O204 C191 1.251 . S
H205 C188 0.930 . S
H206 C199 0.929 . S
Cu207 N208 1.999 . S
Cu207 O213 1.974 . S
Cu207 N218 1.985 . S
Cu207 O227 1.959 . S
N208 Cu207 1.999 . S
N208 C210 1.263 . S
N208 C212 1.389 . S
N209 C210 1.358 . S
N209 C211 1.400 . S
C210 N208 1.263 . S
C210 N209 1.358 . S
C210 H216 0.930 . S
C211 N209 1.400 . S
C211 C212 1.351 . S
C211 H228 0.930 . S
C212 N208 1.389 . S
C212 C211 1.351 . S
C212 H217 0.930 . S
O213 Cu207 1.974 . S
O213 C223 1.282 . S
C214 O215 1.261 . S
C214 O227 1.251 . S
O215 C214 1.261 . S
H216 C210 0.930 . S
H217 C212 0.930 . S
N218 Cu207 1.985 . S
N218 C220 1.335 . S
N218 C221 1.390 . S
N219 C220 1.345 . S
N219 C222 1.336 . S
C220 N218 1.335 . S
C220 N219 1.345 . S
C220 H225 0.930 . S
C221 N218 1.390 . S
C221 C222 1.346 . S
C221 H226 0.930 . S
C222 N219 1.336 . S
C222 C221 1.346 . S
C222 H229 0.929 . S
C223 O213 1.282 . S
C223 O224 1.216 . S
O224 C223 1.216 . S
H225 C220 0.930 . S
H226 C221 0.930 . S
O227 Cu207 1.959 . S
O227 C214 1.251 . S
H228 C211 0.930 . S
H229 C222 0.929 . S
Cu230 N231 1.999 . S
Cu230 O236 1.974 . S
Cu230 N241 1.985 . S
Cu230 O250 1.959 . S
N231 Cu230 1.999 . S
N231 C233 1.263 . S
N231 C235 1.389 . S
N232 C233 1.358 . S
N232 C234 1.400 . S
C233 N231 1.263 . S
C233 N232 1.358 . S
C233 H239 0.930 . S
C234 N232 1.400 . S
C234 C235 1.351 . S
C234 H251 0.930 . S
C235 N231 1.389 . S
C235 C234 1.351 . S
C235 H240 0.930 . S
O236 Cu230 1.974 . S
O236 C246 1.282 . S
C237 O238 1.261 . S
C237 O250 1.251 . S
O238 C237 1.261 . S
H239 C233 0.930 . S
H240 C235 0.930 . S
N241 Cu230 1.985 . S
N241 C243 1.335 . S
N241 C244 1.390 . S
N242 C243 1.345 . S
N242 C245 1.336 . S
C243 N241 1.335 . S
C243 N242 1.345 . S
C243 H248 0.930 . S
C244 N241 1.390 . S
C244 C245 1.346 . S
C244 H249 0.930 . S
C245 N242 1.336 . S
C245 C244 1.346 . S
C245 H252 0.929 . S
C246 O236 1.282 . S
C246 O247 1.216 . S
O247 C246 1.216 . S
H248 C243 0.930 . S
H249 C244 0.930 . S
O250 Cu230 1.959 . S
O250 C237 1.251 . S
H251 C234 0.930 . S
H252 C245 0.929 . S
Cu253 N254 1.999 . S
Cu253 O259 1.974 . S
Cu253 N264 1.985 . S
Cu253 O273 1.959 . S
N254 Cu253 1.999 . S
N254 C256 1.263 . S
N254 C258 1.389 . S
N255 C256 1.358 . S
N255 C257 1.400 . S
C256 N254 1.263 . S
C256 N255 1.358 . S
C256 H262 0.930 . S
C257 N255 1.400 . S
C257 C258 1.351 . S
C257 H274 0.930 . S
C258 N254 1.389 . S
C258 C257 1.351 . S
C258 H263 0.930 . S
O259 Cu253 1.974 . S
O259 C269 1.282 . S
C260 O261 1.261 . S
C260 O273 1.251 . S
O261 C260 1.261 . S
H262 C256 0.930 . S
H263 C258 0.930 . S
N264 Cu253 1.985 . S
N264 C266 1.335 . S
N264 C267 1.390 . S
N265 C266 1.345 . S
N265 C268 1.336 . S
C266 N264 1.335 . S
C266 N265 1.345 . S
C266 H271 0.930 . S
C267 N264 1.390 . S
C267 C268 1.346 . S
C267 H272 0.930 . S
C268 N265 1.336 . S
C268 C267 1.346 . S
C268 H275 0.929 . S
C269 O259 1.282 . S
C269 O270 1.216 . S
O270 C269 1.216 . S
H271 C266 0.930 . S
H272 C267 0.930 . S
O273 Cu253 1.959 . S
O273 C260 1.251 . S
H274 C257 0.930 . S
H275 C268 0.929 . S
Cu276 N277 1.999 . S
Cu276 O282 1.974 . S
Cu276 N287 1.985 . S
Cu276 O296 1.959 . S
N277 Cu276 1.999 . S
N277 C279 1.263 . S
N277 C281 1.389 . S
N278 C279 1.358 . S
N278 C280 1.400 . S
C279 N277 1.263 . S
C279 N278 1.358 . S
C279 H285 0.930 . S
C280 N278 1.400 . S
C280 C281 1.351 . S
C280 H297 0.930 . S
C281 N277 1.389 . S
C281 C280 1.351 . S
C281 H286 0.930 . S
O282 Cu276 1.974 . S
O282 C292 1.282 . S
C283 O284 1.261 . S
C283 O296 1.251 . S
O284 C283 1.261 . S
H285 C279 0.930 . S
H286 C281 0.930 . S
N287 Cu276 1.985 . S
N287 C289 1.335 . S
N287 C290 1.390 . S
N288 C289 1.345 . S
N288 C291 1.336 . S
C289 N287 1.335 . S
C289 N288 1.345 . S
C289 H294 0.930 . S
C290 N287 1.390 . S
C290 C291 1.346 . S
C290 H295 0.930 . S
C291 N288 1.336 . S
C291 C290 1.346 . S
C291 H298 0.929 . S
C292 O282 1.282 . S
C292 O293 1.216 . S
O293 C292 1.216 . S
H294 C289 0.930 . S
H295 C290 0.930 . S
O296 Cu276 1.959 . S
O296 C283 1.251 . S
H297 C280 0.930 . S
H298 C291 0.929 . S
Cu299 N300 1.999 . S
Cu299 O305 1.974 . S
Cu299 N310 1.985 . S
Cu299 O319 1.959 . S
N300 Cu299 1.999 . S
N300 C302 1.263 . S
N300 C304 1.389 . S
N301 C302 1.358 . S
N301 C303 1.400 . S
C302 N300 1.263 . S
C302 N301 1.358 . S
C302 H308 0.930 . S
C303 N301 1.400 . S
C303 C304 1.351 . S
C303 H320 0.930 . S
C304 N300 1.389 . S
C304 C303 1.351 . S
C304 H309 0.930 . S
O305 Cu299 1.974 . S
O305 C315 1.282 . S
C306 O307 1.261 . S
C306 O319 1.251 . S
O307 C306 1.261 . S
H308 C302 0.930 . S
H309 C304 0.930 . S
N310 Cu299 1.985 . S
N310 C312 1.335 . S
N310 C313 1.390 . S
N311 C312 1.345 . S
N311 C314 1.336 . S
C312 N310 1.335 . S
C312 N311 1.345 . S
C312 H317 0.930 . S
C313 N310 1.390 . S
C313 C314 1.346 . S
C313 H318 0.930 . S
C314 N311 1.336 . S
C314 C313 1.346 . S
C314 H321 0.929 . S
C315 O305 1.282 . S
C315 O316 1.216 . S
O316 C315 1.216 . S
H317 C312 0.930 . S
H318 C313 0.930 . S
O319 Cu299 1.959 . S
O319 C306 1.251 . S
H320 C303 0.930 . S
H321 C314 0.929 . S
Cu322 N323 1.999 . S
Cu322 O328 1.974 . S
Cu322 N333 1.985 . S
Cu322 O342 1.959 . S
N323 Cu322 1.999 . S
N323 C325 1.263 . S
N323 C327 1.389 . S
N324 C325 1.358 . S
N324 C326 1.400 . S
C325 N323 1.263 . S
C325 N324 1.358 . S
C325 H331 0.930 . S
C326 N324 1.400 . S
C326 C327 1.351 . S
C326 H343 0.930 . S
C327 N323 1.389 . S
C327 C326 1.351 . S
C327 H332 0.930 . S
O328 Cu322 1.974 . S
O328 C338 1.282 . S
C329 O330 1.261 . S
C329 O342 1.251 . S
O330 C329 1.261 . S
H331 C325 0.930 . S
H332 C327 0.930 . S
N333 Cu322 1.985 . S
N333 C335 1.335 . S
N333 C336 1.390 . S
N334 C335 1.345 . S
N334 C337 1.336 . S
C335 N333 1.335 . S
C335 N334 1.345 . S
C335 H340 0.930 . S
C336 N333 1.390 . S
C336 C337 1.346 . S
C336 H341 0.930 . S
C337 N334 1.336 . S
C337 C336 1.346 . S
C337 H344 0.929 . S
C338 O328 1.282 . S
C338 O339 1.216 . S
O339 C338 1.216 . S
H340 C335 0.930 . S
H341 C336 0.930 . S
O342 Cu322 1.959 . S
O342 C329 1.251 . S
H343 C326 0.930 . S
H344 C337 0.929 . S
Cu345 N346 1.999 . S
Cu345 O351 1.974 . S
Cu345 N356 1.985 . S
Cu345 O365 1.959 . S
N346 Cu345 1.999 . S
N346 C348 1.263 . S
N346 C350 1.389 . S
N347 C348 1.358 . S
N347 C349 1.400 . S
C348 N346 1.263 . S
C348 N347 1.358 . S
C348 H354 0.930 . S
C349 N347 1.400 . S
C349 C350 1.351 . S
C349 H366 0.930 . S
C350 N346 1.389 . S
C350 C349 1.351 . S
C350 H355 0.930 . S
O351 Cu345 1.974 . S
O351 C361 1.282 . S
C352 O353 1.261 . S
C352 O365 1.251 . S
O353 C352 1.261 . S
H354 C348 0.930 . S
H355 C350 0.930 . S
N356 Cu345 1.985 . S
N356 C358 1.335 . S
N356 C359 1.390 . S
N357 C358 1.345 . S
N357 C360 1.336 . S
C358 N356 1.335 . S
C358 N357 1.345 . S
C358 H363 0.930 . S
C359 N356 1.390 . S
C359 C360 1.346 . S
C359 H364 0.930 . S
C360 N357 1.336 . S
C360 C359 1.346 . S
C360 H367 0.929 . S
C361 O351 1.282 . S
C361 O362 1.216 . S
O362 C361 1.216 . S
H363 C358 0.930 . S
H364 C359 0.930 . S
O365 Cu345 1.959 . S
O365 C352 1.251 . S
H366 C349 0.930 . S
H367 C360 0.929 . S
C368 C369 1.387 . S
C368 H372 0.950 . S
C368 C377 1.390 1_455 S
C369 C368 1.387 . S
C369 C371 1.387 . S
H370 C377 0.950 . S
C371 C369 1.387 . S
C371 C373 1.390 1_455 S
C371 H375 0.950 . S
H372 C368 0.950 . S
C373 C371 1.390 1_655 S
C373 C374 1.387 . S
C373 H376 0.950 . S
C374 C373 1.387 . S
C374 C377 1.387 . S
H375 C371 0.950 . S
H376 C373 0.950 . S
C377 C368 1.390 1_655 S
C377 H370 0.950 . S
C377 C374 1.387 . S
C378 C379 1.387 . S
C378 H382 0.950 . S
C378 C387 1.390 1_565 S
C379 C378 1.387 . S
C379 C381 1.387 . S
H380 C387 0.950 . S
C381 C379 1.387 . S
C381 C383 1.390 1_565 S
C381 H385 0.950 . S
H382 C378 0.950 . S
C383 C381 1.390 1_545 S
C383 C384 1.387 . S
C383 H386 0.950 . S
C384 C383 1.387 . S
C384 C387 1.387 . S
H385 C381 0.950 . S
H386 C383 0.950 . S
C387 C378 1.390 1_545 S
C387 H380 0.950 . S
C387 C384 1.387 . S
C388 C389 1.387 . S
C388 H392 0.950 . S
C388 C397 1.390 1_455 S
C389 C388 1.387 . S
C389 C391 1.387 . S
H390 C397 0.950 . S
C391 C389 1.387 . S
C391 C393 1.390 1_455 S
C391 H395 0.950 . S
H392 C388 0.950 . S
C393 C391 1.390 1_655 S
C393 C394 1.387 . S
C393 H396 0.950 . S
C394 C393 1.387 . S
C394 C397 1.387 . S
H395 C391 0.950 . S
H396 C393 0.950 . S
C397 C388 1.390 1_655 S
C397 H390 0.950 . S
C397 C394 1.387 . S
C398 C399 1.387 . S
C398 H402 0.950 . S
C398 C407 1.390 1_565 S
C399 C398 1.387 . S
C399 C401 1.387 . S
H400 C407 0.950 . S
C401 C399 1.387 . S
C401 C403 1.390 1_565 S
C401 H405 0.950 . S
H402 C398 0.950 . S
C403 C401 1.390 1_545 S
C403 C404 1.387 . S
C403 H406 0.950 . S
C404 C403 1.387 . S
C404 C407 1.387 . S
H405 C401 0.950 . S
H406 C403 0.950 . S
C407 C398 1.390 1_545 S
C407 H400 0.950 . S
C407 C404 1.387 . S
C408 C409 1.387 . S
C408 H412 0.950 . S
C408 C417 1.390 1_655 S
C409 C408 1.387 . S
C409 C411 1.387 . S
H410 C417 0.950 . S
C411 C409 1.387 . S
C411 C413 1.390 1_655 S
C411 H415 0.950 . S
H412 C408 0.950 . S
C413 C411 1.390 1_455 S
C413 C414 1.387 . S
C413 H416 0.950 . S
C414 C413 1.387 . S
C414 C417 1.387 . S
H415 C411 0.950 . S
H416 C413 0.950 . S
C417 C408 1.390 1_455 S
C417 H410 0.950 . S
C417 C414 1.387 . S
C418 C419 1.387 . S
C418 H422 0.950 . S
C418 C427 1.390 1_545 S
C419 C418 1.387 . S
C419 C421 1.387 . S
H420 C427 0.950 . S
C421 C419 1.387 . S
C421 C423 1.390 1_545 S
C421 H425 0.950 . S
H422 C418 0.950 . S
C423 C421 1.390 1_565 S
C423 C424 1.387 . S
C423 H426 0.950 . S
C424 C423 1.387 . S
C424 C427 1.387 . S
H425 C421 0.950 . S
H426 C423 0.950 . S
C427 C418 1.390 1_565 S
C427 H420 0.950 . S
C427 C424 1.387 . S
C428 C429 1.387 . S
C428 H432 0.950 . S
C428 C437 1.390 1_655 S
C429 C428 1.387 . S
C429 C431 1.387 . S
H430 C437 0.950 . S
C431 C429 1.387 . S
C431 C433 1.390 1_655 S
C431 H435 0.950 . S
H432 C428 0.950 . S
C433 C431 1.390 1_455 S
C433 C434 1.387 . S
C433 H436 0.950 . S
C434 C433 1.387 . S
C434 C437 1.387 . S
H435 C431 0.950 . S
H436 C433 0.950 . S
C437 C428 1.390 1_455 S
C437 H430 0.950 . S
C437 C434 1.387 . S
C438 C439 1.387 . S
C438 H442 0.950 . S
C438 C447 1.390 1_545 S
C439 C438 1.387 . S
C439 C441 1.387 . S
H440 C447 0.950 . S
C441 C439 1.387 . S
C441 C443 1.390 1_545 S
C441 H445 0.950 . S
H442 C438 0.950 . S
C443 C441 1.390 1_565 S
C443 C444 1.387 . S
C443 H446 0.950 . S
C444 C443 1.387 . S
C444 C447 1.387 . S
H445 C441 0.950 . S
H446 C443 0.950 . S
C447 C438 1.390 1_565 S
C447 H440 0.950 . S
C447 C444 1.387 . S
C448 C449 1.387 . S
C448 H452 0.950 . S
C448 C457 1.390 . S
C449 C448 1.387 . S
C449 C451 1.387 . S
H450 C457 0.950 . S
C451 C449 1.387 . S
C451 C453 1.390 . S
C451 H455 0.950 . S
H452 C448 0.950 . S
C453 C451 1.390 . S
C453 C454 1.387 . S
C453 H456 0.950 . S
C454 C453 1.387 . S
C454 C457 1.387 . S
H455 C451 0.950 . S
H456 C453 0.950 . S
C457 C448 1.390 . S
C457 H450 0.950 . S
C457 C454 1.387 . S
C458 C459 1.387 . S
C458 H462 0.950 . S
C458 C467 1.390 . S
C459 C458 1.387 . S
C459 C461 1.387 . S
H460 C467 0.950 . S
C461 C459 1.387 . S
C461 C463 1.390 . S
C461 H465 0.950 . S
H462 C458 0.950 . S
C463 C461 1.390 . S
C463 C464 1.387 . S
C463 H466 0.950 . S
C464 C463 1.387 . S
C464 C467 1.387 . S
H465 C461 0.950 . S
H466 C463 0.950 . S
C467 C458 1.390 . S
C467 H460 0.950 . S
C467 C464 1.387 . S
C468 C469 1.387 . S
C468 H472 0.950 . S
C468 C477 1.390 . S
C469 C468 1.387 . S
C469 C471 1.387 . S
H470 C477 0.950 . S
C471 C469 1.387 . S
C471 C473 1.390 . S
C471 H475 0.950 . S
H472 C468 0.950 . S
C473 C471 1.390 . S
C473 C474 1.387 . S
C473 H476 0.950 . S
C474 C473 1.387 . S
C474 C477 1.387 . S
H475 C471 0.950 . S
H476 C473 0.950 . S
C477 C468 1.390 . S
C477 H470 0.950 . S
C477 C474 1.387 . S
C478 C479 1.387 . S
C478 H482 0.950 . S
C478 C487 1.390 . S
C479 C478 1.387 . S
C479 C481 1.387 . S
H480 C487 0.950 . S
C481 C479 1.387 . S
C481 C483 1.390 . S
C481 H485 0.950 . S
H482 C478 0.950 . S
C483 C481 1.390 . S
C483 C484 1.387 . S
C483 H486 0.950 . S
C484 C483 1.387 . S
C484 C487 1.387 . S
H485 C481 0.950 . S
H486 C483 0.950 . S
C487 C478 1.390 . S
C487 H480 0.950 . S
C487 C484 1.387 . S
C488 C489 1.387 . S
C488 H492 0.950 . S
C488 C497 1.390 . S
C489 C488 1.387 . S
C489 C491 1.387 . S
H490 C497 0.950 . S
C491 C489 1.387 . S
C491 C493 1.390 . S
C491 H495 0.950 . S
H492 C488 0.950 . S
C493 C491 1.390 . S
C493 C494 1.387 . S
C493 H496 0.950 . S
C494 C493 1.387 . S
C494 C497 1.387 . S
H495 C491 0.950 . S
H496 C493 0.950 . S
C497 C488 1.390 . S
C497 H490 0.950 . S
C497 C494 1.387 . S
C498 C499 1.387 . S
C498 H502 0.950 . S
C498 C507 1.390 . S
C499 C498 1.387 . S
C499 C501 1.387 . S
H500 C507 0.950 . S
C501 C499 1.387 . S
C501 C503 1.390 . S
C501 H505 0.950 . S
H502 C498 0.950 . S
C503 C501 1.390 . S
C503 C504 1.387 . S
C503 H506 0.950 . S
C504 C503 1.387 . S
C504 C507 1.387 . S
H505 C501 0.950 . S
H506 C503 0.950 . S
C507 C498 1.390 . S
C507 H500 0.950 . S
C507 C504 1.387 . S
C508 C509 1.387 . S
C508 H512 0.950 . S
C508 C517 1.390 . S
C509 C508 1.387 . S
C509 C511 1.387 . S
H510 C517 0.950 . S
C511 C509 1.387 . S
C511 C513 1.390 . S
C511 H515 0.950 . S
H512 C508 0.950 . S
C513 C511 1.390 . S
C513 C514 1.387 . S
C513 H516 0.950 . S
C514 C513 1.387 . S
C514 C517 1.387 . S
H515 C511 0.950 . S
H516 C513 0.950 . S
C517 C508 1.390 . S
C517 H510 0.950 . S
C517 C514 1.387 . S
C518 C519 1.387 . S
C518 H522 0.950 . S
C518 C527 1.390 . S
C519 C518 1.387 . S
C519 C521 1.387 . S
H520 C527 0.950 . S
C521 C519 1.387 . S
C521 C523 1.390 . S
C521 H525 0.950 . S
H522 C518 0.950 . S
C523 C521 1.390 . S
C523 C524 1.387 . S
C523 H526 0.950 . S
C524 C523 1.387 . S
C524 C527 1.387 . S
H525 C521 0.950 . S
H526 C523 0.950 . S
C527 C518 1.390 . S
C527 H520 0.950 . S
C527 C524 1.387 . S
C528 C529 1.387 . S
C528 H532 0.950 . S
C528 C537 1.390 1_556 S
C529 C528 1.387 . S
C529 C531 1.387 . S
H530 C537 0.950 . S
C531 C529 1.387 . S
C531 C533 1.390 1_556 S
C531 H535 0.950 . S
H532 C528 0.950 . S
C533 C531 1.390 1_554 S
C533 C534 1.387 . S
C533 H536 0.950 . S
C534 C533 1.387 . S
C534 C537 1.387 . S
H535 C531 0.950 . S
H536 C533 0.950 . S
C537 C528 1.390 1_554 S
C537 H530 0.950 . S
C537 C534 1.387 . S
C538 C539 1.387 . S
C538 H542 0.950 . S
C538 C547 1.390 . S
C539 C538 1.387 . S
C539 C541 1.387 . S
H540 C547 0.950 . S
C541 C539 1.387 . S
C541 C543 1.390 . S
C541 H545 0.950 . S
H542 C538 0.950 . S
C543 C541 1.390 . S
C543 C544 1.387 . S
C543 H546 0.950 . S
C544 C543 1.387 . S
C544 C547 1.387 . S
H545 C541 0.950 . S
H546 C543 0.950 . S
C547 C538 1.390 . S
C547 H540 0.950 . S
C547 C544 1.387 . S
C548 C549 1.387 . S
C548 H552 0.950 . S
C548 C557 1.390 1_554 S
C549 C548 1.387 . S
C549 C551 1.387 . S
H550 C557 0.950 . S
C551 C549 1.387 . S
C551 C553 1.390 1_554 S
C551 H555 0.950 . S
H552 C548 0.950 . S
C553 C551 1.390 1_556 S
C553 C554 1.387 . S
C553 H556 0.950 . S
C554 C553 1.387 . S
C554 C557 1.387 . S
H555 C551 0.950 . S
H556 C553 0.950 . S
C557 C548 1.390 1_556 S
C557 H550 0.950 . S
C557 C554 1.387 . S
C558 C559 1.387 . S
C558 H562 0.950 . S
C558 C567 1.390 . S
C559 C558 1.387 . S
C559 C561 1.387 . S
H560 C567 0.950 . S
C561 C559 1.387 . S
C561 C563 1.390 . S
C561 H565 0.950 . S
H562 C558 0.950 . S
C563 C561 1.390 . S
C563 C564 1.387 . S
C563 H566 0.950 . S
C564 C563 1.387 . S
C564 C567 1.387 . S
H565 C561 0.950 . S
H566 C563 0.950 . S
C567 C558 1.390 . S
C567 H560 0.950 . S
C567 C564 1.387 . S
C568 C569 1.387 . S
C568 H572 0.950 . S
C568 C577 1.390 . S
C569 C568 1.387 . S
C569 C571 1.387 . S
H570 C577 0.950 . S
C571 C569 1.387 . S
C571 C573 1.390 . S
C571 H575 0.950 . S
H572 C568 0.950 . S
C573 C571 1.390 . S
C573 C574 1.387 . S
C573 H576 0.950 . S
C574 C573 1.387 . S
C574 C577 1.387 . S
H575 C571 0.950 . S
H576 C573 0.950 . S
C577 C568 1.390 . S
C577 H570 0.950 . S
C577 C574 1.387 . S
C578 C579 1.387 . S
C578 H582 0.950 . S
C578 C587 1.390 1_556 S
C579 C578 1.387 . S
C579 C581 1.387 . S
H580 C587 0.950 . S
C581 C579 1.387 . S
C581 C583 1.390 1_556 S
C581 H585 0.950 . S
H582 C578 0.950 . S
C583 C581 1.390 1_554 S
C583 C584 1.387 . S
C583 H586 0.950 . S
C584 C583 1.387 . S
C584 C587 1.387 . S
H585 C581 0.950 . S
H586 C583 0.950 . S
C587 C578 1.390 1_554 S
C587 H580 0.950 . S
C587 C584 1.387 . S
C588 C589 1.387 . S
C588 H592 0.950 . S
C588 C597 1.390 . S
C589 C588 1.387 . S
C589 C591 1.387 . S
H590 C597 0.950 . S
C591 C589 1.387 . S
C591 C593 1.390 . S
C591 H595 0.950 . S
H592 C588 0.950 . S
C593 C591 1.390 . S
C593 C594 1.387 . S
C593 H596 0.950 . S
C594 C593 1.387 . S
C594 C597 1.387 . S
H595 C591 0.950 . S
H596 C593 0.950 . S
C597 C588 1.390 . S
C597 H590 0.950 . S
C597 C594 1.387 . S
C598 C599 1.387 . S
C598 H602 0.950 . S
C598 C607 1.390 1_554 S
C599 C598 1.387 . S
C599 C601 1.387 . S
H600 C607 0.950 . S
C601 C599 1.387 . S
C601 C603 1.390 1_554 S
C601 H605 0.950 . S
H602 C598 0.950 . S
C603 C601 1.390 1_556 S
C603 C604 1.387 . S
C603 H606 0.950 . S
C604 C603 1.387 . S
C604 C607 1.387 . S
H605 C601 0.950 . S
H606 C603 0.950 . S
C607 C598 1.390 1_556 S
C607 H600 0.950 . S
C607 C604 1.387 . S
C608 C609 1.387 . S
C608 H612 0.950 . S
C608 C617 1.390 . S
C609 C608 1.387 . S
C609 C611 1.387 . S
H610 C617 0.950 . S
C611 C609 1.387 . S
C611 C613 1.390 . S
C611 H615 0.950 . S
H612 C608 0.950 . S
C613 C611 1.390 . S
C613 C614 1.387 . S
C613 H616 0.950 . S
C614 C613 1.387 . S
C614 C617 1.387 . S
H615 C611 0.950 . S
H616 C613 0.950 . S
C617 C608 1.390 . S
C617 H610 0.950 . S
C617 C614 1.387 . S
C618 C619 1.387 . S
C618 H622 0.950 . S
C618 C627 1.390 . S
C619 C618 1.387 . S
C619 C621 1.387 . S
H620 C627 0.950 . S
C621 C619 1.387 . S
C621 C623 1.390 . S
C621 H625 0.950 . S
H622 C618 0.950 . S
C623 C621 1.390 . S
C623 C624 1.387 . S
C623 H626 0.950 . S
C624 C623 1.387 . S
C624 C627 1.387 . S
H625 C621 0.950 . S
H626 C623 0.950 . S
C627 C618 1.390 . S
C627 H620 0.950 . S
C627 C624 1.387 . S
C628 C629 1.387 . S
C628 H632 0.950 . S
C628 C637 1.390 . S
C629 C628 1.387 . S
C629 C631 1.387 . S
H630 C637 0.950 . S
C631 C629 1.387 . S
C631 C633 1.390 . S
C631 H635 0.950 . S
H632 C628 0.950 . S
C633 C631 1.390 . S
C633 C634 1.387 . S
C633 H636 0.950 . S
C634 C633 1.387 . S
C634 C637 1.387 . S
H635 C631 0.950 . S
H636 C633 0.950 . S
C637 C628 1.390 . S
C637 H630 0.950 . S
C637 C634 1.387 . S
C638 C639 1.387 . S
C638 H642 0.950 . S
C638 C647 1.390 . S
C639 C638 1.387 . S
C639 C641 1.387 . S
H640 C647 0.950 . S
C641 C639 1.387 . S
C641 C643 1.390 . S
C641 H645 0.950 . S
H642 C638 0.950 . S
C643 C641 1.390 . S
C643 C644 1.387 . S
C643 H646 0.950 . S
C644 C643 1.387 . S
C644 C647 1.387 . S
H645 C641 0.950 . S
H646 C643 0.950 . S
C647 C638 1.390 . S
C647 H640 0.950 . S
C647 C644 1.387 . S
C648 C649 1.387 . S
C648 H652 0.950 . S
C648 C657 1.390 . S
C649 C648 1.387 . S
C649 C651 1.387 . S
H650 C657 0.950 . S
C651 C649 1.387 . S
C651 C653 1.390 . S
C651 H655 0.950 . S
H652 C648 0.950 . S
C653 C651 1.390 . S
C653 C654 1.387 . S
C653 H656 0.950 . S
C654 C653 1.387 . S
C654 C657 1.387 . S
H655 C651 0.950 . S
H656 C653 0.950 . S
C657 C648 1.390 . S
C657 H650 0.950 . S
C657 C654 1.387 . S
C658 C659 1.387 . S
C658 H662 0.950 . S
C658 C667 1.390 . S
C659 C658 1.387 . S
C659 C661 1.387 . S
H660 C667 0.950 . S
C661 C659 1.387 . S
C661 C663 1.390 . S
C661 H665 0.950 . S
H662 C658 0.950 . S
C663 C661 1.390 . S
C663 C664 1.387 . S
C663 H666 0.950 . S
C664 C663 1.387 . S
C664 C667 1.387 . S
H665 C661 0.950 . S
H666 C663 0.950 . S
C667 C658 1.390 . S
C667 H660 0.950 . S
C667 C664 1.387 . S
C668 C669 1.387 . S
C668 H672 0.950 . S
C668 C677 1.390 . S
C669 C668 1.387 . S
C669 C671 1.387 . S
H670 C677 0.950 . S
C671 C669 1.387 . S
C671 C673 1.390 . S
C671 H675 0.950 . S
H672 C668 0.950 . S
C673 C671 1.390 . S
C673 C674 1.387 . S
C673 H676 0.950 . S
C674 C673 1.387 . S
C674 C677 1.387 . S
H675 C671 0.950 . S
H676 C673 0.950 . S
C677 C668 1.390 . S
C677 H670 0.950 . S
C677 C674 1.387 . S
C678 C679 1.387 . S
C678 H682 0.950 . S
C678 C687 1.390 . S
C679 C678 1.387 . S
C679 C681 1.387 . S
H680 C687 0.950 . S
C681 C679 1.387 . S
C681 C683 1.390 . S
C681 H685 0.950 . S
H682 C678 0.950 . S
C683 C681 1.390 . S
C683 C684 1.387 . S
C683 H686 0.950 . S
C684 C683 1.387 . S
C684 C687 1.387 . S
H685 C681 0.950 . S
H686 C683 0.950 . S
C687 C678 1.390 . S
C687 H680 0.950 . S
C687 C684 1.387 . S
C369 N2 1.525 . S
C374 N48 1.525 . S
C379 N71 1.521 . S
C384 N25 1.521 . S
C389 N94 1.525 . S
C394 N140 1.525 . S
C399 N163 1.521 . S
C404 N117 1.521 . S
C409 N186 1.525 . S
C414 N232 1.525 . S
C419 N255 1.521 . S
C424 N209 1.521 . S
C429 N278 1.525 . S
C434 N324 1.525 . S
C439 N347 1.525 . S
C444 N301 1.525 . S
C449 C108 1.600 . S
C454 C16 1.600 . S
C459 C39 1.600 . S
C464 C131 1.600 . S
C469 C62 1.598 . S
C474 C154 1.598 . S
C479 C177 1.598 . S
C484 C85 1.598 . S
C489 C200 1.600 . S
C494 C292 1.600 . S
C499 C223 1.600 . S
C504 C315 1.600 . S
C509 C246 1.600 . S
C514 C338 1.600 . S
C519 C269 1.598 . S
C524 C361 1.598 . S
C529 C237 1.629 . S
C534 C7 1.630 . S
C539 C260 1.630 . S
C544 C30 1.629 . S
C549 C53 1.630 . S
C554 C191 1.629 . S
C559 C76 1.630 . S
C564 C214 1.629 . S
C569 C99 1.630 . S
C574 C329 1.629 . S
C579 C122 1.630 . S
C584 C352 1.629 . S
C589 C145 1.630 . S
C594 C283 1.629 . S
C599 C306 1.630 . S
C604 C168 1.629 . S
C609 N12 1.557 . S
C614 N357 1.557 . S
C619 N288 1.557 . S
C624 N35 1.557 . S
C629 N58 1.557 . S
C634 N311 1.557 . S
C639 N334 1.557 . S
C644 N81 1.557 . S
C649 N219 1.557 . S
C654 N104 1.557 . S
C659 N127 1.557 . S
C664 N242 1.557 . S
C669 N265 1.557 . S
C674 N150 1.557 . S
C679 N196 1.557 . S
C684 N173 1.557 . S
