# Generated by pormake.
# Topology xfc, (7)-cn, num edge types: 1
# Building blocks:
#     Node 0, Type 0, BuildingBlock: NUHQUE_clean_sbu_2, # of connection points: 7
#     Node 1, Type 0, BuildingBlock: NUHQUE_clean_sbu_2, # of connection points: 7
#     Node 2, Type 0, BuildingBlock: NUHQUE_clean_sbu_2, # of connection points: 7
#     Node 3, Type 0, BuildingBlock: NUHQUE_clean_sbu_2, # of connection points: 7
#     Node 4, Type 0, BuildingBlock: NUHQUE_clean_sbu_2, # of connection points: 7
#     Node 5, Type 0, BuildingBlock: NUHQUE_clean_sbu_2, # of connection points: 7
#     Node 6, Type 0, BuildingBlock: NUHQUE_clean_sbu_2, # of connection points: 7
#     Node 7, Type 0, BuildingBlock: NUHQUE_clean_sbu_2, # of connection points: 7
#     Node 8, Type 0, BuildingBlock: NUHQUE_clean_sbu_2, # of connection points: 7
#     Node 9, Type 0, BuildingBlock: NUHQUE_clean_sbu_2, # of connection points: 7
#     Node 10, Type 0, BuildingBlock: NUHQUE_clean_sbu_2, # of connection points: 7
#     Node 11, Type 0, BuildingBlock: NUHQUE_clean_sbu_2, # of connection points: 7
#     Node 12, Type 0, BuildingBlock: NUHQUE_clean_sbu_2, # of connection points: 7
#     Node 13, Type 0, BuildingBlock: NUHQUE_clean_sbu_2, # of connection points: 7
#     Node 14, Type 0, BuildingBlock: NUHQUE_clean_sbu_2, # of connection points: 7
#     Node 15, Type 0, BuildingBlock: NUHQUE_clean_sbu_2, # of connection points: 7
#     Edge 16, Type (0, 0), BuildingBlock: XIVTED_clean_linker_0, # of connection points: 2
#     Edge 17, Type (0, 0), BuildingBlock: XIVTED_clean_linker_0, # of connection points: 2
#     Edge 18, Type (0, 0), BuildingBlock: XIVTED_clean_linker_0, # of connection points: 2
#     Edge 19, Type (0, 0), BuildingBlock: XIVTED_clean_linker_0, # of connection points: 2
#     Edge 20, Type (0, 0), BuildingBlock: XIVTED_clean_linker_0, # of connection points: 2
#     Edge 21, Type (0, 0), BuildingBlock: XIVTED_clean_linker_0, # of connection points: 2
#     Edge 22, Type (0, 0), BuildingBlock: XIVTED_clean_linker_0, # of connection points: 2
#     Edge 23, Type (0, 0), BuildingBlock: XIVTED_clean_linker_0, # of connection points: 2
#     Edge 24, Type (0, 0), BuildingBlock: XIVTED_clean_linker_0, # of connection points: 2
#     Edge 25, Type (0, 0), BuildingBlock: XIVTED_clean_linker_0, # of connection points: 2
#     Edge 26, Type (0, 0), BuildingBlock: XIVTED_clean_linker_0, # of connection points: 2
#     Edge 27, Type (0, 0), BuildingBlock: XIVTED_clean_linker_0, # of connection points: 2
#     Edge 28, Type (0, 0), BuildingBlock: XIVTED_clean_linker_0, # of connection points: 2
#     Edge 29, Type (0, 0), BuildingBlock: XIVTED_clean_linker_0, # of connection points: 2
#     Edge 30, Type (0, 0), BuildingBlock: XIVTED_clean_linker_0, # of connection points: 2
#     Edge 31, Type (0, 0), BuildingBlock: XIVTED_clean_linker_0, # of connection points: 2
#     Edge 32, Type (0, 0), BuildingBlock: XIVTED_clean_linker_0, # of connection points: 2
#     Edge 33, Type (0, 0), BuildingBlock: XIVTED_clean_linker_0, # of connection points: 2
#     Edge 34, Type (0, 0), BuildingBlock: XIVTED_clean_linker_0, # of connection points: 2
#     Edge 35, Type (0, 0), BuildingBlock: XIVTED_clean_linker_0, # of connection points: 2
#     Edge 36, Type (0, 0), BuildingBlock: XIVTED_clean_linker_0, # of connection points: 2
#     Edge 37, Type (0, 0), BuildingBlock: XIVTED_clean_linker_0, # of connection points: 2
#     Edge 38, Type (0, 0), BuildingBlock: XIVTED_clean_linker_0, # of connection points: 2
#     Edge 39, Type (0, 0), BuildingBlock: XIVTED_clean_linker_0, # of connection points: 2
#     Edge 40, Type (0, 0), BuildingBlock: XIVTED_clean_linker_0, # of connection points: 2
#     Edge 41, Type (0, 0), BuildingBlock: XIVTED_clean_linker_0, # of connection points: 2
#     Edge 42, Type (0, 0), BuildingBlock: XIVTED_clean_linker_0, # of connection points: 2
#     Edge 43, Type (0, 0), BuildingBlock: XIVTED_clean_linker_0, # of connection points: 2
#     Edge 44, Type (0, 0), BuildingBlock: XIVTED_clean_linker_0, # of connection points: 2
#     Edge 45, Type (0, 0), BuildingBlock: XIVTED_clean_linker_0, # of connection points: 2
#     Edge 46, Type (0, 0), BuildingBlock: XIVTED_clean_linker_0, # of connection points: 2
#     Edge 47, Type (0, 0), BuildingBlock: XIVTED_clean_linker_0, # of connection points: 2
#     Edge 48, Type (0, 0), BuildingBlock: XIVTED_clean_linker_0, # of connection points: 2
#     Edge 49, Type (0, 0), BuildingBlock: XIVTED_clean_linker_0, # of connection points: 2
#     Edge 50, Type (0, 0), BuildingBlock: XIVTED_clean_linker_0, # of connection points: 2
#     Edge 51, Type (0, 0), BuildingBlock: XIVTED_clean_linker_0, # of connection points: 2
#     Edge 52, Type (0, 0), BuildingBlock: XIVTED_clean_linker_0, # of connection points: 2
#     Edge 53, Type (0, 0), BuildingBlock: XIVTED_clean_linker_0, # of connection points: 2
#     Edge 54, Type (0, 0), BuildingBlock: XIVTED_clean_linker_0, # of connection points: 2
#     Edge 55, Type (0, 0), BuildingBlock: XIVTED_clean_linker_0, # of connection points: 2
#     Edge 56, Type (0, 0), BuildingBlock: XIVTED_clean_linker_0, # of connection points: 2
#     Edge 57, Type (0, 0), BuildingBlock: XIVTED_clean_linker_0, # of connection points: 2
#     Edge 58, Type (0, 0), BuildingBlock: XIVTED_clean_linker_0, # of connection points: 2
#     Edge 59, Type (0, 0), BuildingBlock: XIVTED_clean_linker_0, # of connection points: 2
#     Edge 60, Type (0, 0), BuildingBlock: XIVTED_clean_linker_0, # of connection points: 2
#     Edge 61, Type (0, 0), BuildingBlock: XIVTED_clean_linker_0, # of connection points: 2
#     Edge 62, Type (0, 0), BuildingBlock: XIVTED_clean_linker_0, # of connection points: 2
#     Edge 63, Type (0, 0), BuildingBlock: XIVTED_clean_linker_0, # of connection points: 2
#     Edge 64, Type (0, 0), BuildingBlock: XIVTED_clean_linker_0, # of connection points: 2
#     Edge 65, Type (0, 0), BuildingBlock: XIVTED_clean_linker_0, # of connection points: 2
#     Edge 66, Type (0, 0), BuildingBlock: XIVTED_clean_linker_0, # of connection points: 2
#     Edge 67, Type (0, 0), BuildingBlock: XIVTED_clean_linker_0, # of connection points: 2
#     Edge 68, Type (0, 0), BuildingBlock: XIVTED_clean_linker_0, # of connection points: 2
#     Edge 69, Type (0, 0), BuildingBlock: XIVTED_clean_linker_0, # of connection points: 2
#     Edge 70, Type (0, 0), BuildingBlock: XIVTED_clean_linker_0, # of connection points: 2
#     Edge 71, Type (0, 0), BuildingBlock: XIVTED_clean_linker_0, # of connection points: 2
# Relax obj value: 0.419
# Max RMSD: 0.229
# Mean RMSD: 0.229
data_MOF--net-xfc--node1-NUHQUE_clean_sbu_2--edge1-XIVTED_clean_linker_0
_symmetry_space_group_name_H-M    P1
_symmetry_Int_Tables_number       1
_symmetry_cell_setting            triclinic
loop_
_symmetry_equiv_pos_as_xyz
'x, y, z'
_cell_length_a     37.925852
_cell_length_b     37.869142
_cell_length_c     47.458777
_cell_angle_alpha  90.005853
_cell_angle_beta   90.033699
_cell_angle_gamma 89.945911
loop_
_atom_site_label
_atom_site_type_symbol
_atom_site_fract_x
_atom_site_fract_y
_atom_site_fract_z
_atom_type_partial_charge
O0 O 0.10186 0.94269 0.18453 0.0
Tb1 Tb 0.05578 0.97116 0.17008 0.0
Eu2 Eu 0.98748 0.01443 0.20042 0.0
C3 C 0.13207 0.95802 0.19053 0.0
O4 O 0.13405 0.9926 0.19098 0.0
C5 C 0.05371 0.05071 0.17426 0.0
O6 O 0.93656 0.04522 0.19964 0.0
C7 C 0.01419 0.00124 0.24982 0.0
C8 C 0.91523 0.03977 0.17819 0.0
O9 O 0.92404 0.01606 0.15929 0.0
C10 C 0.98242 0.93595 0.17625 0.0
C11 C 0.01385 0.97604 0.2737 0.0
C12 C 0.04612 0.96155 0.28319 0.0
C13 C 0.04693 0.9394 0.30691 0.0
C14 C 0.01545 0.93105 0.32054 0.0
C15 C 0.98316 0.94444 0.31115 0.0
C16 C 0.98231 0.96742 0.28794 0.0
O17 O 0.06935 0.02334 0.18577 0.0
O18 O 0.01919 0.05181 0.17411 0.0
O19 O 0.07679 0.95979 0.12807 0.0
O20 O 0.03198 0.9933 0.13198 0.0
C21 C 0.05411 0.9791 0.11437 0.0
O22 O 0.96677 0.96669 0.17805 0.0
O23 O 0.01606 0.93221 0.18225 0.0
O24 O 0.98627 0.02137 0.24592 0.0
O25 O 0.02856 0.99025 0.22619 0.0
H26 H 0.07054 0.9681 0.27255 0.0
H27 H 0.01609 0.91366 0.33873 0.0
H28 H 0.95729 0.9781 0.28093 0.0
O29 O 0.25102 0.82899 0.35924 0.0
Tb30 Tb 0.26634 0.77465 0.36609 0.0
Eu31 Eu 0.2574 0.74593 0.45618 0.0
C32 C 0.23891 0.83996 0.33478 0.0
O33 O 0.23533 0.81743 0.31393 0.0
C34 C 0.20933 0.77804 0.40896 0.0
O35 O 0.22509 0.69712 0.44678 0.0
C36 C 0.26647 0.76076 0.50923 0.0
C37 C 0.23275 0.67893 0.42392 0.0
O38 O 0.25982 0.68874 0.40872 0.0
C39 C 0.31814 0.74161 0.4092 0.0
C40 C 0.29125 0.75792 0.53343 0.0
C41 C 0.30541 0.78896 0.54556 0.0
C42 C 0.32736 0.78685 0.56936 0.0
C43 C 0.33447 0.75397 0.58133 0.0
C44 C 0.31999 0.72297 0.57028 0.0
C45 C 0.29882 0.7249 0.54598 0.0
O46 O 0.22713 0.75455 0.39455 0.0
O47 O 0.21753 0.78234 0.43567 0.0
O48 O 0.29757 0.76503 0.32844 0.0
O49 O 0.24848 0.73842 0.33335 0.0
C50 C 0.27507 0.74375 0.31645 0.0
O51 O 0.30832 0.73 0.43424 0.0
O52 O 0.30504 0.77149 0.39974 0.0
O53 O 0.25096 0.73173 0.50025 0.0
O54 O 0.2748 0.78269 0.48874 0.0
H55 H 0.29938 0.81459 0.53659 0.0
H56 H 0.35166 0.75262 0.5996 0.0
H57 H 0.28763 0.70088 0.5374 0.0
O58 O 0.41024 0.03952 0.72557 0.0
Tb59 Tb 0.45663 0.01144 0.71138 0.0
Eu60 Eu 0.52649 0.96613 0.73401 0.0
C61 C 0.38118 0.02396 0.73423 0.0
O62 O 0.38037 0.98951 0.73712 0.0
C63 C 0.45727 0.93166 0.70977 0.0
O64 O 0.57599 0.93531 0.72504 0.0
C65 C 0.50704 0.97541 0.786 0.0
C66 C 0.5892 0.94063 0.69975 0.0
O67 O 0.57273 0.96263 0.68285 0.0
C68 C 0.52847 0.04673 0.71547 0.0
C69 C 0.50776 0.00224 0.80884 0.0
C70 C 0.47701 0.02187 0.81509 0.0
C71 C 0.4773 0.04732 0.83659 0.0
C72 C 0.50795 0.05236 0.8524 0.0
C73 C 0.5384 0.03243 0.84726 0.0
C74 C 0.53836 0.00763 0.82521 0.0
O75 O 0.44232 0.95796 0.72333 0.0
O76 O 0.49181 0.93029 0.70853 0.0
O77 O 0.43866 0.02511 0.66894 0.0
O78 O 0.48393 0.9923 0.67398 0.0
C79 C 0.46298 0.00716 0.65587 0.0
O80 O 0.544 0.01604 0.71293 0.0
O81 O 0.49644 0.04871 0.72584 0.0
O82 O 0.53687 0.9598 0.77892 0.0
O83 O 0.48676 0.98254 0.76424 0.0
H84 H 0.45306 0.01778 0.80304 0.0
H85 H 0.50805 0.07232 0.86881 0.0
H86 H 0.56198 0.99237 0.82109 0.0
O87 O 0.19221 0.15951 0.93858 0.0
Tb88 Tb 0.21489 0.20307 0.9145 0.0
Eu89 Eu 0.26152 0.27291 0.94655 0.0
C90 C 0.19966 0.12538 0.93776 0.0
O91 O 0.1852 0.10536 0.9572 0.0
C92 C 0.29475 0.20173 0.92546 0.0
O93 O 0.30199 0.31583 0.94388 0.0
C94 C 0.24293 0.2554 0.99741 0.0
C95 C 0.29404 0.34649 0.93251 0.0
O96 O 0.2608 0.35432 0.92786 0.0
C97 C 0.18716 0.27963 0.91609 0.0
C98 C 0.21302 0.25522 0.01759 0.0
C99 C 0.19975 0.22247 0.02711 0.0
C100 C 0.17205 0.22133 0.04666 0.0
C101 C 0.15794 0.25285 0.05691 0.0
C102 C 0.17121 0.28565 0.04846 0.0
C103 C 0.19897 0.28686 0.02882 0.0
O104 O 0.2648 0.1887 0.93448 0.0
O105 O 0.29909 0.23601 0.92482 0.0
O106 O 0.19732 0.18835 0.8718 0.0
O107 O 0.24462 0.21819 0.87705 0.0
C108 C 0.22352 0.20375 0.85873 0.0
O109 O 0.21856 0.29357 0.91887 0.0
O110 O 0.18063 0.24747 0.92514 0.0
O111 O 0.25763 0.28591 0.99113 0.0
O112 O 0.24085 0.23373 0.97579 0.0
H113 H 0.21097 0.19796 0.01941 0.0
H114 H 0.13723 0.25171 0.07266 0.0
H115 H 0.20945 0.31224 0.02245 0.0
O116 O 0.0959 0.0665 0.83339 0.0
Tb117 Tb 0.04988 0.04241 0.85255 0.0
Eu118 Eu 0.97988 -0.00099 0.82438 0.0
C119 C 0.10943 0.05554 0.8093 0.0
O120 O 0.09346 0.03093 0.79462 0.0
C121 C 0.04931 0.96221 0.84455 0.0
O122 O 0.92645 0.97401 0.82877 0.0
C123 C -0.00061 0.01793 0.77404 0.0
C124 C 0.92285 0.9396 0.82729 0.0
O125 O 0.94942 0.92048 0.81817 0.0
C126 C 0.97522 0.07422 0.8548 0.0
C127 C 0.99462 0.04288 0.75017 0.0
C128 C 0.02461 0.06038 0.73938 0.0
C129 C 0.02175 0.08297 0.71601 0.0
C130 C 0.9889 0.08734 0.7031 0.0
C131 C 0.95892 0.06932 0.71268 0.0
C132 C 0.96168 0.04756 0.73668 0.0
O133 O 0.06309 0.99129 0.83436 0.0
O134 O 0.01492 0.95934 0.84583 0.0
O135 O 0.07222 0.05496 0.894 0.0
O136 O 0.03323 0.01469 0.89057 0.0
C137 C 0.05386 0.03157 0.90782 0.0
O138 O 0.96101 0.04285 0.85213 0.0
O139 O 0.0074 0.08036 0.8457 0.0
O140 O 0.97486 0.99401 0.77881 0.0
O141 O 0.01406 0.03027 0.79719 0.0
H142 H 0.05015 0.05641 0.74914 0.0
H143 H 0.98681 0.10459 0.68493 0.0
H144 H 0.93863 0.03358 0.74422 0.0
O145 O 0.20575 0.81177 0.02919 0.0
Tb146 Tb 0.23093 0.77332 0.05677 0.0
Eu147 Eu 0.2831 0.71521 0.03343 0.0
C148 C 0.19931 0.84455 0.03641 0.0
O149 O 0.18539 0.86625 0.01792 0.0
C150 C 0.30962 0.78188 0.06769 0.0
O151 O 0.32451 0.67309 0.03737 0.0
C152 C 0.27355 0.74369 0.98411 0.0
C153 C 0.31533 0.64016 0.04222 0.0
O154 O 0.28258 0.63051 0.03757 0.0
C155 C 0.2034 0.69839 0.04482 0.0
C156 C 0.24676 0.74564 0.96119 0.0
C157 C 0.22791 0.77747 0.95657 0.0
C158 C 0.20294 0.77986 0.93471 0.0
C159 C 0.19784 0.75092 0.91695 0.0
C160 C 0.21664 0.71953 0.9207 0.0
C161 C 0.24069 0.7166 0.94308 0.0
O162 O 0.28299 0.79747 0.05512 0.0
O163 O 0.31298 0.74751 0.06549 0.0
O164 O 0.21266 0.78795 0.09875 0.0
O165 O 0.24185 0.73999 0.09303 0.0
C166 C 0.22634 0.76041 0.11132 0.0
O167 O 0.2354 0.68641 0.04875 0.0
O168 O 0.19854 0.73176 0.03829 0.0
O169 O 0.2904 0.71358 0.98791 0.0
O170 O 0.2657 0.75973 1.00787 0.0
H171 H 0.23236 0.80014 0.97006 0.0
H172 H 0.17886 0.75286 0.89988 0.0
H173 H 0.25497 0.69207 0.94596 0.0
O174 O 0.40989 0.98364 0.37857 0.0
Tb175 Tb 0.46348 0.97329 0.39194 0.0
Eu176 Eu 0.50618 0.99266 0.3149 0.0
C177 C 0.40228 0.9844 0.35159 0.0
O178 O 0.42716 0.97714 0.33328 0.0
C179 C 0.47034 0.04037 0.35899 0.0
O180 O 0.55819 0.02082 0.31866 0.0
C181 C 0.48746 0.97025 0.2652 0.0
C182 C 0.55994 0.05539 0.31714 0.0
O183 O 0.53269 0.07303 0.30741 0.0
C184 C 0.52003 0.92859 0.36205 0.0
C185 C 0.49263 0.9452 0.24139 0.0
C186 C 0.46287 0.92815 0.22951 0.0
C187 C 0.46659 0.90601 0.20584 0.0
C188 C 0.49992 0.90173 0.19385 0.0
C189 C 0.52955 0.9193 0.20454 0.0
C190 C 0.52603 0.94046 0.22875 0.0
O191 O 0.4892 0.01829 0.37384 0.0
O192 O 0.47071 0.03599 0.33164 0.0
O193 O 0.45086 0.95224 0.43373 0.0
O194 O 0.48729 0.99468 0.43009 0.0
C195 C 0.47106 0.97395 0.44757 0.0
O196 O 0.53198 0.95106 0.3429 0.0
O197 O 0.48702 0.92848 0.37059 0.0
O198 O 0.51119 0.9952 0.26928 0.0
O199 O 0.47357 0.9581 0.28874 0.0
H200 H 0.43694 0.9322 0.23856 0.0
H201 H 0.5027 0.88484 0.1755 0.0
H202 H 0.54891 0.95406 0.23706 0.0
O203 O 0.30227 0.16068 0.57034 0.0
Tb204 Tb 0.28221 0.20436 0.59569 0.0
Eu205 Eu 0.23571 0.26531 0.56168 0.0
C206 C 0.30551 0.12787 0.57893 0.0
O207 O 0.31529 0.10349 0.56089 0.0
C208 C 0.202 0.20156 0.59391 0.0
O209 O 0.20702 0.31728 0.56376 0.0
C210 C 0.24542 0.23702 0.51239 0.0
C211 C 0.21095 0.33434 0.58773 0.0
O212 O 0.23081 0.31995 0.60731 0.0
C213 C 0.31568 0.27828 0.58096 0.0
C214 C 0.26698 0.24067 0.48635 0.0
C215 C 0.28918 0.21262 0.47764 0.0
C216 C 0.30847 0.2149 0.45226 0.0
C217 C 0.30405 0.24494 0.43537 0.0
C218 C 0.28281 0.27327 0.44376 0.0
C219 C 0.26456 0.27124 0.46943 0.0
O220 O 0.23001 0.18509 0.58443 0.0
O221 O 0.20023 0.23591 0.59137 0.0
O222 O 0.29773 0.18827 0.63818 0.0
O223 O 0.25782 0.2275 0.63311 0.0
C224 C 0.27546 0.20876 0.65133 0.0
O225 O 0.28438 0.29217 0.57732 0.0
O226 O 0.32051 0.24388 0.58186 0.0
O227 O 0.22138 0.26142 0.51747 0.0
O228 O 0.26165 0.22586 0.53529 0.0
H229 H 0.29165 0.18932 0.49074 0.0
H230 H 0.31794 0.24673 0.41548 0.0
H231 H 0.24817 0.29324 0.47591 0.0
O232 O 0.73043 0.30552 0.61818 0.0
Tb233 Tb 0.74851 0.26111 0.64311 0.0
Eu234 Eu 0.73571 0.23934 0.57131 0.0
C235 C 0.74513 0.33692 0.6195 0.0
O236 O 0.76972 0.34333 0.63831 0.0
C237 C 0.80255 0.272 0.60033 0.0
O238 O 0.77138 0.19377 0.58348 0.0
C239 C 0.72167 0.24353 0.51757 0.0
C240 C 0.76107 0.1684 0.60058 0.0
O241 O 0.72776 0.16627 0.60775 0.0
C242 C 0.67989 0.22282 0.62322 0.0
C243 C 0.69488 0.24183 0.49451 0.0
C244 C 0.67482 0.27205 0.48686 0.0
C245 C 0.65231 0.27119 0.46319 0.0
C246 C 0.65077 0.24049 0.44691 0.0
C247 C 0.67122 0.21091 0.45337 0.0
C248 C 0.69279 0.21127 0.47743 0.0
O249 O 0.79387 0.24767 0.61845 0.0
O250 O 0.77917 0.27924 0.58067 0.0
O251 O 0.75097 0.29579 0.67995 0.0
O252 O 0.77479 0.24491 0.68185 0.0
C253 C 0.76873 0.27393 0.69567 0.0
O254 O 0.68463 0.23179 0.59642 0.0
O255 O 0.70437 0.22574 0.64274 0.0
O256 O 0.73154 0.21404 0.53003 0.0
O257 O 0.72104 0.27082 0.53473 0.0
H258 H 0.67699 0.29625 0.49891 0.0
H259 H 0.63432 0.24002 0.42818 0.0
H260 H 0.70906 0.18845 0.48203 0.0
O261 O 0.76285 0.6808 0.11905 0.0
Tb262 Tb 0.73927 0.72633 0.13933 0.0
Eu263 Eu 0.74556 0.73908 0.06723 0.0
C264 C 0.75057 0.64856 0.1221 0.0
O265 O 0.72513 0.64238 0.14019 0.0
C266 C 0.68397 0.70287 0.10052 0.0
O267 O 0.71012 0.78367 0.08141 0.0
C268 C 0.75342 0.73676 0.01273 0.0
C269 C 0.72203 0.81213 0.09416 0.0
O270 O 0.7561 0.81718 0.09659 0.0
C271 C 0.8056 0.76184 0.11306 0.0
C272 C 0.77907 0.74139 0.98926 0.0
C273 C 0.79906 0.71232 0.97932 0.0
C274 C 0.82141 0.71608 0.9559 0.0
C275 C 0.82294 0.74851 0.942 0.0
C276 C 0.80238 0.77718 0.9506 0.0
C277 C 0.78095 0.77389 0.9746 0.0
O278 O 0.69046 0.73002 0.11664 0.0
O279 O 0.70711 0.69601 0.08059 0.0
O280 O 0.737 0.69705 0.17899 0.0
O281 O 0.72116 0.75109 0.17806 0.0
C282 C 0.72487 0.72329 0.19386 0.0
O283 O 0.79912 0.7483 0.08785 0.0
O284 O 0.78192 0.76299 0.13329 0.0
O285 O 0.74262 0.76508 0.02629 0.0
O286 O 0.75732 0.70912 0.02925 0.0
H287 H 0.79709 0.6868 0.98953 0.0
H288 H 0.83968 0.7512 0.92357 0.0
H289 H 0.76488 0.79611 0.98111 0.0
O290 O 0.8131 0.34679 0.97998 0.0
Tb291 Tb 0.78826 0.30378 0.95751 0.0
Eu292 Eu 0.73898 0.23611 0.97637 0.0
C293 C 0.79523 0.37003 0.9949 0.0
O294 O 0.76069 0.36848 0.99601 0.0
C295 C 0.70965 0.30242 0.94512 0.0
O296 O 0.70745 0.18649 0.96909 0.0
C297 C 0.73864 0.26241 0.02696 0.0
C298 C 0.71926 0.164 0.95013 0.0
O299 O 0.74943 0.17062 0.93767 0.0
C300 C 0.82237 0.23057 0.9686 0.0
C301 C 0.76054 0.26293 0.05287 0.0
C302 C 0.7795 0.29369 0.05996 0.0
C303 C 0.80013 0.29487 0.08449 0.0
C304 C 0.80209 0.26506 0.10183 0.0
C305 C 0.7839 0.23391 0.09502 0.0
C306 C 0.76271 0.23326 0.07066 0.0
O307 O 0.73296 0.31842 0.96103 0.0
O308 O 0.70977 0.26787 0.94392 0.0
O309 O 0.8054 0.32697 0.91759 0.0
O310 O 0.78606 0.27398 0.9185 0.0
C311 C 0.79848 0.29896 0.90255 0.0
O312 O 0.79192 0.21503 0.96471 0.0
O313 O 0.82443 0.26442 0.97472 0.0
O314 O 0.72235 0.23285 0.02025 0.0
O315 O 0.75176 0.27896 1.00503 0.0
H316 H 0.7782 0.31676 0.04646 0.0
H317 H 0.81955 0.26567 0.11992 0.0
H318 H 0.74826 0.20949 0.06542 0.0
O319 O 0.70812 0.67457 0.47976 0.0
Tb320 Tb 0.73314 0.717 0.45681 0.0
Eu321 Eu 0.78674 0.78057 0.47426 0.0
C322 C 0.72616 0.64893 0.49174 0.0
O323 O 0.7607 0.65066 0.49278 0.0
C324 C 0.81162 0.71314 0.44086 0.0
O325 O 0.82781 0.82192 0.46599 0.0
C326 C 0.78443 0.75393 0.5247 0.0
C327 C 0.81844 0.85263 0.45538 0.0
O328 O 0.785 0.86168 0.45577 0.0
C329 C 0.70519 0.79243 0.466 0.0
C330 C 0.76019 0.7497 0.54907 0.0
C331 C 0.74369 0.71686 0.55405 0.0
C332 C 0.72214 0.71201 0.57777 0.0
C333 C 0.71683 0.7401 0.59641 0.0
C334 C 0.73256 0.77309 0.5918 0.0
C335 C 0.75444 0.77766 0.56815 0.0
O336 O 0.78716 0.69715 0.45565 0.0
O337 O 0.81364 0.74765 0.44128 0.0
O338 O 0.70778 0.6941 0.41975 0.0
O339 O 0.73446 0.74351 0.41618 0.0
C340 C 0.71658 0.71956 0.4027 0.0
O341 O 0.73638 0.80528 0.46022 0.0
O342 O 0.70212 0.75981 0.47525 0.0
O343 O 0.79687 0.78573 0.51926 0.0
O344 O 0.77673 0.73587 0.50186 0.0
H345 H 0.74792 0.69495 0.53978 0.0
H346 H 0.69898 0.7365 0.61402 0.0
H347 H 0.76699 0.80298 0.5647 0.0
O348 O 0.57149 0.49258 0.59187 0.0
Tb349 Tb 0.52098 0.48717 0.61229 0.0
Eu350 Eu 0.51003 0.50137 0.70298 0.0
C351 C 0.57626 0.48826 0.56469 0.0
O352 O 0.5492 0.48107 0.54839 0.0
C353 C 0.54877 0.54131 0.65271 0.0
O354 O 0.46596 0.53859 0.69071 0.0
C355 C 0.52578 0.49734 0.75616 0.0
C356 C 0.44706 0.53067 0.66828 0.0
O357 O 0.45388 0.50122 0.65485 0.0
C358 C 0.49805 0.43837 0.6614 0.0
C359 C 0.52291 0.4724 0.78013 0.0
C360 C 0.55389 0.45768 0.79188 0.0
C361 C 0.55165 0.43315 0.81397 0.0
C362 C 0.51866 0.42395 0.8246 0.0
C363 C 0.48769 0.43855 0.81358 0.0
C364 C 0.4898 0.46302 0.79145 0.0
O365 O 0.51985 0.53338 0.63887 0.0
O366 O 0.55252 0.53042 0.67892 0.0
O367 O 0.48918 0.45422 0.58439 0.0
O368 O 0.4756 0.50841 0.58982 0.0
C369 C 0.46733 0.47915 0.57695 0.0
O370 O 0.48951 0.44917 0.6868 0.0
O371 O 0.52501 0.45363 0.64913 0.0
O372 O 0.49665 0.51225 0.74675 0.0
O373 O 0.54764 0.48819 0.73592 0.0
H374 H 0.57954 0.46481 0.7836 0.0
H375 H 0.51717 0.40542 0.84202 0.0
H376 H 0.46574 0.4741 0.78285 0.0
O377 O 0.94202 0.50654 0.09471 0.0
Tb378 Tb 0.99506 0.51698 0.10896 0.0
Eu379 Eu 0.01721 0.51251 0.20238 0.0
C380 C 0.93269 0.507 0.06806 0.0
O381 O 0.95635 0.51365 0.04857 0.0
C382 C 0.97901 0.46612 0.15523 0.0
O383 O 0.06146 0.47617 0.18957 0.0
C384 C 0.00399 0.51973 0.25587 0.0
C385 C 0.05609 0.44194 0.18877 0.0
O386 O 0.02768 0.42912 0.20084 0.0
C387 C 0.02347 0.56791 0.15452 0.0
C388 C 0.00611 0.54365 0.28071 0.0
C389 C 0.97545 0.56105 0.29057 0.0
C390 C 0.97679 0.58214 0.31491 0.0
C391 C 0.00844 0.58513 0.32973 0.0
C392 C 0.03884 0.56721 0.32101 0.0
C393 C 0.03772 0.54684 0.29624 0.0
O394 O 0.00576 0.47623 0.13953 0.0
O395 O 0.97609 0.47825 0.18121 0.0
O396 O 0.01824 0.55358 0.07889 0.0
O397 O 0.03718 0.50041 0.08056 0.0
C398 C 0.04038 0.53099 0.06802 0.0
O399 O 0.0346 0.56246 0.18037 0.0
O400 O 0.99581 0.55005 0.14612 0.0
O401 O 0.03337 0.50564 0.2461 0.0
O402 O 0.98124 0.5279 0.23592 0.0
H403 H 0.95066 0.55823 0.27943 0.0
H404 H 0.00929 0.60171 0.34837 0.0
H405 H 0.06121 0.53288 0.28953 0.0
O406 O 0.54654 0.54261 0.37615 0.0
Tb407 Tb 0.50601 0.52206 0.34878 0.0
Eu408 Eu 0.463 0.47437 0.30171 0.0
C409 C 0.57982 0.5333 0.37428 0.0
O410 O 0.59167 0.51794 0.35137 0.0
C411 C 0.52484 0.44498 0.34107 0.0
O412 O 0.4131 0.44353 0.30987 0.0
C413 C 0.48993 0.47233 0.25142 0.0
C414 C 0.39065 0.45609 0.32857 0.0
O415 O 0.39609 0.48768 0.33904 0.0
C416 C 0.4564 0.55857 0.31002 0.0
C417 C 0.49113 0.4932 0.22486 0.0
C418 C 0.52364 0.50712 0.21525 0.0
C419 C 0.52548 0.52566 0.18955 0.0
C420 C 0.49476 0.53037 0.17377 0.0
C421 C 0.46228 0.51797 0.18337 0.0
C422 C 0.46034 0.49915 0.20876 0.0
O423 O 0.53799 0.47665 0.33796 0.0
O424 O 0.49251 0.43875 0.33237 0.0
O425 O 0.47247 0.53909 0.38343 0.0
O426 O 0.46426 0.48826 0.36601 0.0
C427 C 0.45383 0.51045 0.38523 0.0
O428 O 0.43919 0.52847 0.30879 0.0
O429 O 0.49013 0.55816 0.316 0.0
O430 O 0.45992 0.45686 0.25813 0.0
O431 O 0.50676 0.48552 0.27334 0.0
H432 H 0.54737 0.50354 0.22766 0.0
H433 H 0.4957 0.54571 0.15445 0.0
H434 H 0.43493 0.48987 0.21608 0.0
O435 O 0.94923 0.47904 0.89459 0.0
Tb436 Tb 0.97801 0.48755 0.85608 0.0
Eu437 Eu 0.00999 0.51703 0.79329 0.0
C438 C 0.94044 0.50661 0.90996 0.0
O439 O 0.94693 0.53863 0.90079 0.0
C440 C 0.9463 0.54939 0.82746 0.0
O441 O 0.06253 0.54199 0.80247 0.0
C442 C 0.98995 0.51356 0.74101 0.0
C443 C 0.0682 0.57586 0.79883 0.0
O444 O 0.04396 0.59528 0.78651 0.0
C445 C 0.01656 0.43676 0.81863 0.0
C446 C 0.99296 0.49258 0.71463 0.0
C447 C 0.96326 0.47423 0.70424 0.0
C448 C 0.96494 0.45593 0.67848 0.0
C449 C 0.99653 0.45581 0.66333 0.0
C450 C 0.02659 0.47332 0.67336 0.0
C451 C 0.02457 0.49191 0.699 0.0
O452 O 0.93965 0.51609 0.83161 0.0
O453 O 0.97721 0.55764 0.81696 0.0
O454 O 0.03079 0.48203 0.87355 0.0
O455 O 0.01204 0.53323 0.86442 0.0
C456 C 0.03814 0.51544 0.87531 0.0
O457 O 0.03247 0.46393 0.80675 0.0
O458 O 0.98612 0.44084 0.8312 0.0
O459 O 0.01763 0.53181 0.74943 0.0
O460 O 0.97196 0.49944 0.76193 0.0
H461 H 0.93879 0.4744 0.71603 0.0
H462 H -0.0018 0.44005 0.6443 0.0
H463 H 0.04764 0.50571 0.70672 0.0
H464 H 0.07195 0.07733 0.95005 0.0
H465 H 0.07911 0.93632 0.07261 0.0
H466 H 0.04098 0.96953 0.93454 0.0
H467 H 0.03201 0.03837 0.08715 0.0
H468 H 0.08048 0.94921 0.02176 0.0
H469 H 0.07277 0.06472 1.00102 0.0
C470 C 0.06563 0.051 0.9574 0.0
C471 C 0.05616 0.02444 0.93828 0.0
C472 C 0.0699 0.96869 0.03618 0.0
C473 C 0.05787 0.0098 0.99593 0.0
C474 C 0.06915 0.96141 0.06505 0.0
C475 C 0.05506 0.9862 0.08387 0.0
C476 C 0.05759 0.00141 0.02634 0.0
C477 C 0.04264 0.01844 0.07316 0.0
C478 C 0.06595 0.04392 0.98634 0.0
C479 C 0.04812 0.99076 0.94874 0.0
N480 N 0.04451 0.02531 0.04507 0.0
N481 N 0.04946 0.98426 0.9769 0.0
H482 H 0.23531 0.69578 0.28718 0.0
H483 H 0.23004 0.81194 0.15104 0.0
H484 H 0.30773 0.78244 0.27613 0.0
H485 H 0.23249 0.69887 0.14064 0.0
H486 H 0.24458 0.80429 0.20112 0.0
H487 H 0.22234 0.6976 0.23628 0.0
C488 C 0.24902 0.71458 0.27395 0.0
C489 C 0.2728 0.7388 0.28572 0.0
C490 C 0.24157 0.78121 0.18785 0.0
C491 C 0.25686 0.74211 0.2284 0.0
C492 C 0.23286 0.78553 0.15949 0.0
C493 C 0.22991 0.75596 0.14195 0.0
C494 C 0.24646 0.74708 0.19873 0.0
C495 C 0.23451 0.72225 0.15368 0.0
C496 C 0.24145 0.71575 0.2451 0.0
C497 C 0.28951 0.76305 0.26782 0.0
N498 N 0.24234 0.71863 0.18151 0.0
N499 N 0.28067 0.76459 0.24013 0.0
H500 H 0.48736 0.03309 0.47688 0.0
H501 H 0.48861 0.94984 0.62839 0.0
H502 H 0.45597 0.92451 0.48783 0.0
H503 H 0.44147 0.05201 0.61431 0.0
H504 H 0.49081 0.94049 0.57716 0.0
H505 H 0.48516 0.04122 0.52813 0.0
C506 C 0.48039 0.01088 0.49015 0.0
C507 C 0.47183 0.97807 0.47833 0.0
C508 C 0.48007 0.96491 0.58539 0.0
C509 C 0.4698 0.9871 0.53653 0.0
C510 C 0.47899 0.97036 0.61444 0.0
C511 C 0.46493 0.00178 0.62531 0.0
C512 C 0.46802 0.99155 0.56729 0.0
C513 C 0.45246 0.02746 0.60657 0.0
C514 C 0.47891 0.01563 0.51923 0.0
C515 C 0.46266 0.95019 0.49629 0.0
N516 N 0.4547 0.02198 0.57832 0.0
N517 N 0.4622 0.95522 0.52468 0.0
H518 H 0.31968 0.18752 0.69345 0.0
H519 H 0.17549 0.19734 0.81571 0.0
H520 H 0.21509 0.22794 0.67854 0.0
H521 H 0.28664 0.20925 0.83214 0.0
H522 H 0.18798 0.19816 0.76477 0.0
H523 H 0.30664 0.18496 0.74419 0.0
C524 C 0.29399 0.1958 0.70093 0.0
C525 C 0.26851 0.20813 0.68195 0.0
C526 C 0.20957 0.2006 0.77959 0.0
C527 C 0.2532 0.20486 0.73962 0.0
C528 C 0.20248 0.20003 0.80856 0.0
C529 C 0.23008 0.20335 0.82803 0.0
C530 C 0.24457 0.20388 0.77016 0.0
C531 C 0.2646 0.2068 0.81776 0.0
C532 C 0.2866 0.19446 0.72979 0.0
C533 C 0.2356 0.21865 0.69259 0.0
N534 N 0.27091 0.20673 0.78954 0.0
N535 N 0.22877 0.21654 0.72071 0.0
H536 H 0.79985 0.23907 0.87152 0.0
H537 H 0.76235 0.33478 0.72628 0.0
H538 H 0.8024 0.35252 0.86392 0.0
H539 H 0.79779 0.22675 0.73199 0.0
H540 H 0.77556 0.34253 0.77656 0.0
H541 H 0.79794 0.23419 0.82026 0.0
C542 C 0.80035 0.26295 0.85895 0.0
C543 C 0.80118 0.29623 0.87178 0.0
C544 C 0.78078 0.31727 0.7667 0.0
C545 C 0.79843 0.29094 0.81324 0.0
C546 C 0.77313 0.31282 0.73811 0.0
C547 C 0.77874 0.28001 0.72519 0.0
C548 C 0.79361 0.28853 0.78237 0.0
C549 C 0.79292 0.25242 0.74127 0.0
C550 C 0.79934 0.26018 0.82973 0.0
C551 C 0.80185 0.32638 0.85467 0.0
N552 N 0.79951 0.25718 0.76911 0.0
N553 N 0.79997 0.32306 0.82616 0.0
H554 H 0.70866 0.77876 0.22769 0.0
H555 H 0.69759 0.66437 0.36891 0.0
H556 H 0.72495 0.666 0.2289 0.0
H557 H 0.72262 0.77543 0.36732 0.0
H558 H 0.69438 0.66467 0.31719 0.0
H559 H 0.70053 0.77786 0.27879 0.0
C560 C 0.71027 0.75377 0.23875 0.0
C561 C 0.71783 0.72244 0.22427 0.0
C562 C 0.70025 0.68898 0.32825 0.0
C563 C 0.70837 0.7212 0.28247 0.0
C564 C 0.7019 0.68887 0.35765 0.0
C565 C 0.7106 0.71988 0.37216 0.0
C566 C 0.70685 0.72046 0.31354 0.0
C567 C 0.71607 0.75094 0.35678 0.0
C568 C 0.7057 0.7533 0.26785 0.0
C569 C 0.71947 0.69075 0.23945 0.0
N570 N 0.71416 0.75045 0.32824 0.0
N571 N 0.71486 0.69091 0.26786 0.0
H572 H 0.43782 0.44474 0.40546 0.0
H573 H 0.4242 0.53076 0.55657 0.0
H574 H 0.42394 0.55567 0.42257 0.0
H575 H 0.45852 0.42409 0.54041 0.0
H576 H 0.40094 0.53405 0.50861 0.0
H577 H 0.42231 0.43164 0.45452 0.0
C578 C 0.43022 0.46621 0.41928 0.0
C579 C 0.43303 0.50138 0.41035 0.0
C580 C 0.41276 0.50958 0.51574 0.0
C581 C 0.41577 0.48674 0.46624 0.0
C582 C 0.42595 0.50768 0.54315 0.0
C583 C 0.44417 0.47747 0.55207 0.0
C584 C 0.41828 0.48124 0.49712 0.0
C585 C 0.44525 0.44813 0.53406 0.0
C586 C 0.4216 0.45876 0.4473 0.0
C587 C 0.42277 0.52823 0.42892 0.0
N588 N 0.43329 0.45102 0.50715 0.0
N589 N 0.41529 0.52042 0.45617 0.0
H590 H 0.08278 0.48466 0.03973 0.0
H591 H 0.03781 0.58127 0.89918 0.0
H592 H 0.04098 0.59043 0.03554 0.0
H593 H 0.08935 0.47995 0.90381 0.0
H594 H 0.05553 0.59306 0.94777 0.0
H595 H 0.10123 0.48956 0.99057 0.0
C596 C 0.07826 0.50924 0.02862 0.0
C597 C 0.05953 0.53683 0.04139 0.0
C598 C 0.06398 0.56868 0.93793 0.0
C599 C 0.07985 0.54246 0.98498 0.0
C600 C 0.05416 0.56212 0.91001 0.0
C601 C 0.0612 0.52913 0.89783 0.0
C602 C 0.08057 0.54187 0.95364 0.0
C603 C 0.08267 0.50541 0.91273 0.0
C604 C 0.08876 0.51207 1.00051 0.0
C605 C 0.05472 0.56825 0.02622 0.0
N606 N 0.09069 0.51176 0.94016 0.0
N607 N 0.06403 0.56993 0.99859 0.0
H608 H 0.10558 0.19616 0.04132 0.0
H609 H 0.1257 0.05642 0.16708 0.0
H610 H 0.20569 0.17285 0.07998 0.0
H611 H 0.02678 0.09807 0.13663 0.0
H612 H 0.15672 0.09215 0.13177 0.0
H613 H 0.07781 0.1513 0.07086 0.0
C614 C 0.12184 0.18074 0.05551 0.0
C615 C 0.15791 0.18795 0.05819 0.0
C616 C 0.12823 0.09339 0.13289 0.0
C617 C 0.12621 0.13753 0.09292 0.0
C618 C 0.11051 0.07314 0.15313 0.0
C619 C 0.07355 0.07432 0.15501 0.0
C620 C 0.1088 0.1147 0.11426 0.0
C621 C 0.05528 0.09643 0.13625 0.0
C622 C 0.10597 0.15547 0.07265 0.0
C623 C 0.17784 0.16769 0.07715 0.0
N624 N 0.07304 0.11557 0.1167 0.0
N625 N 0.16163 0.14363 0.09412 0.0
H626 H 0.08987 0.89063 0.28188 0.0
H627 H 0.18722 0.84341 0.42737 0.0
H628 H 0.07628 0.9504 0.35833 0.0
H629 H 0.18211 0.77301 0.35599 0.0
H630 H 0.15322 0.88714 0.40065 0.0
H631 H 0.13305 0.85297 0.30621 0.0
C632 C 0.09691 0.89649 0.30351 0.0
C633 C 0.07976 0.92363 0.31815 0.0
C634 C 0.15964 0.86214 0.39083 0.0
C635 C 0.12792 0.88019 0.34636 0.0
C636 C 0.17895 0.83713 0.40611 0.0
C637 C 0.18787 0.80466 0.39378 0.0
C638 C 0.1493 0.85469 0.36299 0.0
C639 C 0.17618 0.79787 0.36621 0.0
C640 C 0.12108 0.87472 0.31753 0.0
C641 C 0.08917 0.92977 0.34634 0.0
N642 N 0.15766 0.82269 0.35172 0.0
N643 N 0.11235 0.90802 0.35961 0.0
H644 H 0.29588 0.83511 0.60403 0.0
H645 H 0.48228 0.88445 0.67117 0.0
H646 H 0.39596 0.80617 0.56801 0.0
H647 H 0.38539 0.93214 0.70008 0.0
H648 H 0.44993 0.85578 0.63339 0.0
H649 H 0.32674 0.87328 0.638 0.0
C650 C 0.32424 0.83796 0.6026 0.0
C651 C 0.34347 0.81801 0.583 0.0
C652 C 0.43561 0.87244 0.64797 0.0
C653 C 0.37897 0.86006 0.62239 0.0
C654 C 0.45407 0.88861 0.66984 0.0
C655 C 0.43658 0.91069 0.68909 0.0
C656 C 0.39914 0.87792 0.64525 0.0
C657 C 0.39998 0.91519 0.68591 0.0
C658 C 0.34189 0.85927 0.62222 0.0
C659 C 0.38023 0.82159 0.58255 0.0
N660 N 0.38244 0.89888 0.66445 0.0
N661 N 0.39679 0.8418 0.60215 0.0
H662 H 0.29833 0.12928 0.92747 0.0
H663 H 0.47188 0.11844 0.83218 0.0
H664 H 0.35133 0.22034 0.89301 0.0
H665 H 0.41358 0.02641 0.85793 0.0
H666 H 0.42609 0.15605 0.85254 0.0
H667 H 0.33919 0.09096 0.90173 0.0
C668 C 0.31858 0.14124 0.91454 0.0
C669 C 0.32127 0.17812 0.91232 0.0
C670 C 0.42291 0.12766 0.85344 0.0
C671 C 0.36826 0.13438 0.88289 0.0
C672 C 0.4489 0.10625 0.84162 0.0
C673 C 0.44623 0.0694 0.84327 0.0
C674 C 0.39423 0.11214 0.86747 0.0
C675 C 0.41628 0.05477 0.856 0.0
C676 C 0.34185 0.11932 0.89979 0.0
C677 C 0.3483 0.19209 0.8955 0.0
N678 N 0.39156 0.0762 0.86793 0.0
N679 N 0.37068 0.17024 0.88147 0.0
H680 H 0.22522 0.84542 0.91766 0.0
H681 H 0.02934 0.90157 0.8716 0.0
H682 H 0.13179 0.78572 0.93719 0.0
H683 H 0.12147 0.96309 0.8508 0.0
H684 H 0.06663 0.86088 0.89809 0.0
H685 H 0.18788 0.89196 0.89703 0.0
C686 C 0.19681 0.84269 0.91838 0.0
C687 C 0.18147 0.81191 0.92927 0.0
C688 C 0.07879 0.88322 0.88772 0.0
C689 C 0.13872 0.8642 0.90501 0.0
C690 C 0.05747 0.9064 0.87238 0.0
C691 C 0.07223 0.93571 0.85869 0.0
C692 C 0.11532 0.88921 0.88948 0.0
C693 C 0.10891 0.9407 0.86079 0.0
C694 C 0.17552 0.86897 0.90629 0.0
C695 C 0.14457 0.8092 0.92913 0.0
N696 N 0.12917 0.91769 0.87584 0.0
N697 N 0.12454 0.83477 0.91698 0.0
H698 H 0.4569 0.83534 0.20046 0.0
H699 H 0.30808 0.8529 0.08085 0.0
H700 H 0.4102 0.935 0.17767 0.0
H701 H 0.36166 0.75594 0.10201 0.0
H702 H 0.34149 0.88325 0.11792 0.0
H703 H 0.41709 0.80537 0.16777 0.0
C704 C 0.43748 0.85078 0.18909 0.0
C705 C 0.43654 0.88763 0.19201 0.0
C706 C 0.34597 0.85535 0.11439 0.0
C707 C 0.39156 0.85364 0.15357 0.0
C708 C 0.32699 0.838 0.0931 0.0
C709 C 0.33205 0.80174 0.08809 0.0
C710 C 0.37023 0.83633 0.13091 0.0
C711 C 0.35691 0.7839 0.10484 0.0
C712 C 0.41502 0.83373 0.17014 0.0
C713 C 0.41135 0.90648 0.17636 0.0
N714 N 0.37492 0.8013 0.1254 0.0
N715 N 0.39009 0.88933 0.15758 0.0
H716 H 0.30265 0.14192 0.45656 0.0
H717 H 0.4428 0.10192 0.33844 0.0
H718 H 0.37208 0.22359 0.42569 0.0
H719 H 0.43934 0.03372 0.41108 0.0
H720 H 0.4033 0.1433 0.363 0.0
H721 H 0.34129 0.09751 0.43431 0.0
C722 C 0.32597 0.15059 0.44539 0.0
C723 C 0.33346 0.18678 0.4425 0.0
C724 C 0.41111 0.11904 0.37336 0.0
C725 C 0.37665 0.13634 0.41626 0.0
C726 C 0.43346 0.09543 0.35937 0.0
C727 C 0.4446 0.06437 0.37277 0.0
C728 C 0.39902 0.11103 0.4006 0.0
C729 C 0.4318 0.05741 0.40004 0.0
C730 C 0.34776 0.12527 0.43254 0.0
C731 C 0.36423 0.19623 0.42765 0.0
N732 N 0.40945 0.08038 0.413 0.0
N733 N 0.38421 0.17133 0.4147 0.0
H734 H 0.0285 0.15319 0.70535 0.0
H735 H 0.20105 0.13147 0.60939 0.0
H736 H 0.08421 0.05451 0.69723 0.0
H737 H 0.14416 0.22917 0.62038 0.0
H738 H 0.16063 0.10282 0.64259 0.0
H739 H 0.07356 0.18193 0.67673 0.0
C740 C 0.05065 0.13772 0.69788 0.0
C741 C 0.05263 0.10144 0.70361 0.0
C742 C 0.157 0.13051 0.63769 0.0
C743 C 0.10412 0.13399 0.67016 0.0
C744 C 0.17998 0.14685 0.61861 0.0
C745 C 0.17602 0.18278 0.61194 0.0
C746 C 0.12975 0.15025 0.65018 0.0
C747 C 0.14824 0.2014 0.62469 0.0
C748 C 0.07629 0.15407 0.68137 0.0
C749 C 0.08187 0.0826 0.69342 0.0
N750 N 0.12628 0.18495 0.64311 0.0
N751 N 0.1063 0.09901 0.6769 0.0
H752 H 0.88015 0.96743 0.86823 0.0
H753 H 0.82092 0.84427 0.96673 0.0
H754 H 0.89863 0.87219 0.82052 0.0
H755 H 0.78931 0.78274 0.89465 0.0
H756 H 0.84082 0.89124 0.9348 0.0
H757 H 0.83921 0.93486 0.89855 0.0
C758 C 0.87506 0.93985 0.86375 0.0
C759 C 0.89315 0.92231 0.842 0.0
C760 C 0.8283 0.86805 0.926 0.0
C761 C 0.84672 0.88504 0.87673 0.0
C762 C 0.81686 0.84133 0.94425 0.0
C763 C 0.80379 0.80962 0.93322 0.0
C764 C 0.82689 0.86255 0.89666 0.0
C765 C 0.79959 0.80677 0.9039 0.0
C766 C 0.85199 0.92126 0.88128 0.0
C767 C 0.88555 0.88661 0.83722 0.0
N768 N 0.81196 0.83244 0.88663 0.0
N769 N 0.863 0.86912 0.85452 0.0
H770 H 0.82879 0.15442 0.58419 0.0
H771 H 0.89197 0.08354 0.73255 0.0
H772 H 0.7541 0.13278 0.6505 0.0
H773 H 0.9501 0.06538 0.65582 0.0
H774 H 0.84069 0.10163 0.70412 0.0
H775 H 0.87408 0.12305 0.61105 0.0
C776 C 0.82183 0.14272 0.60425 0.0
C777 C 0.78762 0.14615 0.61507 0.0
C778 C 0.86456 0.09315 0.69358 0.0
C779 C 0.83951 0.11077 0.64624 0.0
C780 C 0.8937 0.08265 0.70979 0.0
C781 C 0.92552 0.07357 0.69654 0.0
C782 C 0.86755 0.09482 0.66405 0.0
C783 C 0.92635 0.07299 0.66693 0.0
C784 C 0.84766 0.12475 0.61958 0.0
C785 C 0.7801 0.13054 0.64128 0.0
N786 N 0.8981 0.08403 0.65174 0.0
N787 N 0.80596 0.11395 0.65618 0.0
H788 H 0.5824 0.12322 0.30951 0.0
H789 H 0.69311 0.21165 0.39913 0.0
H790 H 0.59949 0.03121 0.36135 0.0
H791 H 0.64554 0.1439 0.46128 0.0
H792 H 0.67559 0.17012 0.36218 0.0
H793 H 0.62042 0.15723 0.341 0.0
C794 C 0.59488 0.10999 0.32713 0.0
C795 C 0.58792 0.07435 0.33272 0.0
C796 C 0.66941 0.16405 0.38392 0.0
C797 C 0.63123 0.11311 0.36909 0.0
C798 C 0.67983 0.18742 0.40501 0.0
C799 C 0.67051 0.18115 0.43317 0.0
C800 C 0.64923 0.13433 0.39103 0.0
C801 C 0.65323 0.14953 0.43978 0.0
C802 C 0.61676 0.12934 0.34505 0.0
C803 C 0.60445 0.05858 0.3561 0.0
N804 N 0.64267 0.1274 0.41875 0.0
N805 N 0.62471 0.07827 0.37381 0.0
H806 H 0.65427 0.82667 0.07927 0.0
H807 H 0.595 0.90131 0.22549 0.0
H808 H 0.73268 0.85044 0.14232 0.0
H809 H 0.54064 0.92734 0.1484 0.0
H810 H 0.64611 0.88183 0.19743 0.0
H811 H 0.61121 0.86123 0.10591 0.0
C812 C 0.66247 0.83951 0.09859 0.0
C813 C 0.69701 0.83587 0.10858 0.0
C814 C 0.6232 0.8925 0.18678 0.0
C815 C 0.64779 0.87478 0.1395 0.0
C816 C 0.59419 0.90376 0.20276 0.0
C817 C 0.5634 0.9153 0.18918 0.0
C818 C 0.62093 0.8925 0.1572 0.0
C819 C 0.56362 0.91786 0.15966 0.0
C820 C 0.63797 0.85931 0.11375 0.0
C821 C 0.7063 0.85293 0.13381 0.0
N822 N 0.59158 0.90589 0.14466 0.0
N823 N 0.68164 0.87122 0.14872 0.0
H824 H 0.79235 0.22763 0.15251 0.0
H825 H 0.86414 0.03055 0.13864 0.0
H826 H 0.79086 0.16586 0.07599 0.0
H827 H 0.89726 0.10223 0.20424 0.0
H828 H 0.82137 0.07417 0.12263 0.0
H829 H 0.81543 0.1763 0.17786 0.0
C830 C 0.79639 0.20321 0.14108 0.0
C831 C 0.79037 0.2014 0.11186 0.0
C832 C 0.83761 0.08017 0.14079 0.0
C833 C 0.81604 0.14251 0.14094 0.0
C834 C 0.86205 0.05529 0.14999 0.0
C835 C 0.88487 0.06313 0.17243 0.0
C836 C 0.83596 0.1132 0.15406 0.0
C837 C 0.88048 0.09532 0.18663 0.0
C838 C 0.80941 0.17393 0.15563 0.0
C839 C 0.79504 0.16869 0.09843 0.0
N840 N 0.85685 0.11951 0.17691 0.0
N841 N 0.808 0.14071 0.11301 0.0
H842 H 0.60652 0.04114 0.82934 0.0
H843 H 0.73779 0.11258 0.91265 0.0
H844 H 0.54241 0.04062 0.90438 0.0
H845 H 0.65041 0.14867 0.96334 0.0
H846 H 0.69887 0.07032 0.88963 0.0
H847 H 0.65546 0.06476 0.85684 0.0
C848 C 0.60312 0.04497 0.85179 0.0
C849 C 0.57026 0.03938 0.86451 0.0
C850 C 0.68811 0.08755 0.90566 0.0
C851 C 0.62611 0.06641 0.8963 0.0
C852 C 0.7104 0.11151 0.91906 0.0
C853 C 0.69712 0.13478 0.93953 0.0
C854 C 0.65218 0.08703 0.91265 0.0
C855 C 0.66165 0.1316 0.9474 0.0
C856 C 0.63113 0.05846 0.86759 0.0
C857 C 0.56715 0.04526 0.89364 0.0
N858 N 0.6403 0.10842 0.93371 0.0
N859 N 0.59448 0.05909 0.90843 0.0
H860 H 0.71821 0.84165 0.57723 0.0
H861 H 0.62091 0.88121 0.72186 0.0
H862 H 0.72533 0.7727 0.64944 0.0
H863 H 0.62684 0.9546 0.65246 0.0
H864 H 0.66555 0.84439 0.69859 0.0
H865 H 0.69217 0.88699 0.60712 0.0
C866 C 0.71505 0.83628 0.5995 0.0
C867 C 0.72338 0.80304 0.61069 0.0
C868 C 0.65743 0.86885 0.6887 0.0
C869 C 0.69255 0.85458 0.64499 0.0
C870 C 0.632 0.88985 0.702 0.0
C871 C 0.6197 0.92061 0.68882 0.0
C872 C 0.67041 0.87878 0.66206 0.0
C873 C 0.63505 0.93071 0.66315 0.0
C874 C 0.69987 0.86213 0.61657 0.0
C875 C 0.71839 0.79762 0.63975 0.0
N876 N 0.65923 0.90967 0.65048 0.0
N877 N 0.70273 0.82287 0.65579 0.0
H878 H 0.95997 0.87779 0.3187 0.0
H879 H 0.81054 0.9181 0.43102 0.0
H880 H 0.93546 0.98578 0.3397 0.0
H881 H 0.88147 0.82897 0.43527 0.0
H882 H 0.84665 0.94292 0.39277 0.0
H883 H 0.91832 0.85785 0.35449 0.0
C884 C 0.945 0.89727 0.33041 0.0
C885 C 0.95115 0.9334 0.32647 0.0
C886 C 0.8543 0.91813 0.40239 0.0
C887 C 0.90412 0.91087 0.36778 0.0
C888 C 0.83393 0.90404 0.42425 0.0
C889 C 0.84295 0.87134 0.43633 0.0
C890 C 0.88325 0.8989 0.39225 0.0
C891 C 0.87345 0.85422 0.42669 0.0
C892 C 0.92164 0.88593 0.35103 0.0
C893 C 0.93121 0.95769 0.34214 0.0
N894 N 0.89216 0.86795 0.40498 0.0
N895 N 0.90866 0.94597 0.36246 0.0
H896 H 0.67086 0.68077 0.54608 0.0
H897 H 0.61538 0.55296 0.67282 0.0
H898 H 0.72956 0.66888 0.62314 0.0
H899 H 0.54982 0.57128 0.5999 0.0
H900 H 0.66217 0.5874 0.65089 0.0
H901 H 0.63148 0.63267 0.5611 0.0
C902 C 0.67604 0.66717 0.56573 0.0
C903 C 0.70349 0.67841 0.58333 0.0
C904 C 0.63768 0.58371 0.63953 0.0
C905 C 0.65837 0.62431 0.60102 0.0
C906 C 0.61086 0.56403 0.65209 0.0
C907 C 0.57838 0.55954 0.63836 0.0
C908 C 0.63206 0.59936 0.61306 0.0
C909 C 0.57431 0.57429 0.61138 0.0
C910 C 0.65342 0.64007 0.57446 0.0
C911 C 0.70871 0.66076 0.60895 0.0
N912 N 0.6007 0.59381 0.59972 0.0
N913 N 0.68621 0.63482 0.61712 0.0
H914 H 0.56989 0.36428 0.81027 0.0
H915 H 0.70547 0.37455 0.93952 0.0
H916 H 0.6017 0.46248 0.84825 0.0
H917 H 0.66438 0.27754 0.90486 0.0
H918 H 0.67227 0.40772 0.90399 0.0
H919 H 0.61091 0.3327 0.84101 0.0
C920 C 0.58643 0.37922 0.82457 0.0
C921 C 0.58285 0.41596 0.8266 0.0
C922 C 0.67052 0.37918 0.90421 0.0
C923 C 0.62884 0.38002 0.86268 0.0
C924 C 0.68928 0.36021 0.9246 0.0
C925 C 0.68754 0.32316 0.92534 0.0
C926 C 0.64998 0.36098 0.8843 0.0
C927 C 0.66638 0.30605 0.90528 0.0
C928 C 0.60949 0.3612 0.84238 0.0
C929 C 0.60421 0.43416 0.84584 0.0
N930 N 0.64851 0.32507 0.88563 0.0
N931 N 0.62608 0.41595 0.86341 0.0
H932 H 0.91435 0.4524 0.17836 0.0
H933 H 0.85145 0.32568 0.05278 0.0
H934 H 0.97637 0.43332 0.10364 0.0
H935 H 0.79904 0.3334 0.13298 0.0
H936 H 0.89285 0.37201 0.0678 0.0
H937 H 0.86753 0.41562 0.15891 0.0
C938 C 0.91808 0.44067 0.15776 0.0
C939 C 0.94946 0.4459 0.14267 0.0
C940 C 0.87195 0.36396 0.08194 0.0
C941 C 0.89581 0.40345 0.12028 0.0
C942 C 0.8482 0.33788 0.07326 0.0
C943 C 0.82177 0.32614 0.09159 0.0
C944 C 0.86909 0.37836 0.10915 0.0
C945 C 0.81909 0.3419 0.11823 0.0
C946 C 0.89128 0.41962 0.14666 0.0
C947 C 0.95265 0.43001 0.11604 0.0
N948 N 0.84251 0.36711 0.12625 0.0
N949 N 0.92623 0.40938 0.10574 0.0
H950 H 0.81187 0.64147 0.43097 0.0
H951 H 0.96658 0.6529 0.31629 0.0
H952 H 0.86324 0.73817 0.40592 0.0
H953 H 0.9189 0.55469 0.34135 0.0
H954 H 0.9242 0.68487 0.34557 0.0
H955 H 0.84756 0.60927 0.39639 0.0
C956 C 0.83079 0.65592 0.41838 0.0
C957 C 0.83468 0.69261 0.42156 0.0
C958 C 0.92246 0.65637 0.34437 0.0
C959 C 0.87523 0.65593 0.38159 0.0
C960 C 0.94638 0.63821 0.32737 0.0
C961 C 0.94579 0.60124 0.32616 0.0
C962 C 0.89803 0.63742 0.36069 0.0
C963 C 0.91972 0.58327 0.34141 0.0
C964 C 0.85099 0.63752 0.39849 0.0
C965 C 0.8594 0.70991 0.4044 0.0
N966 N 0.89706 0.60151 0.35831 0.0
N967 N 0.87865 0.69146 0.38524 0.0
H968 H 0.49982 0.38284 0.36322 0.0
H969 H 0.67688 0.33696 0.44868 0.0
H970 H 0.59253 0.44876 0.36169 0.0
H971 H 0.5819 0.27486 0.45245 0.0
H972 H 0.64547 0.38091 0.4199 0.0
H973 H 0.52917 0.3441 0.39714 0.0
C974 C 0.52647 0.38904 0.36976 0.0
C975 C 0.54367 0.41917 0.35941 0.0
C976 C 0.63132 0.35796 0.42743 0.0
C977 C 0.57743 0.37504 0.39879 0.0
C978 C 0.64914 0.33316 0.4442 0.0
C979 C 0.63194 0.30229 0.453 0.0
C980 C 0.59613 0.35169 0.41932 0.0
C981 C 0.59612 0.29832 0.44609 0.0
C982 C 0.54315 0.36704 0.38938 0.0
C983 C 0.57812 0.42593 0.36904 0.0
N984 N 0.57958 0.32243 0.42946 0.0
N985 N 0.59382 0.4041 0.38811 0.0
H986 H 0.93539 0.45697 0.62591 0.0
H987 H 0.84319 0.27052 0.64767 0.0
H988 H 0.92849 0.40431 0.70621 0.0
H989 H 0.81974 0.33592 0.57549 0.0
H990 H 0.87849 0.31794 0.66732 0.0
H991 H 0.8951 0.41303 0.60576 0.0
C992 C 0.9248 0.4365 0.63941 0.0
C993 C 0.93521 0.43423 0.66778 0.0
C994 C 0.86572 0.322 0.64717 0.0
C995 C 0.88998 0.38343 0.64472 0.0
C996 C 0.84573 0.29474 0.6357 0.0
C997 C 0.82818 0.29917 0.60983 0.0
C998 C 0.86887 0.35403 0.63259 0.0
C999 C 0.8328 0.33127 0.59543 0.0
C1000 C 0.90197 0.41139 0.62788 0.0
C1001 C 0.9209 0.40718 0.68433 0.0
N1002 N 0.85271 0.35752 0.60703 0.0
N1003 N 0.8994 0.38257 0.67247 0.0
H1004 H 0.89187 0.71344 0.94573 0.0
H1005 H 0.879 0.54267 0.84687 0.0
H1006 H 0.79654 0.65279 0.93628 0.0
H1007 H 0.96769 0.61394 0.84757 0.0
H1008 H 0.84946 0.5799 0.88174 0.0
H1009 H 0.92221 0.6726 0.91405 0.0
C1010 C 0.87762 0.69089 0.9375 0.0
C1011 C 0.8417 0.68638 0.94361 0.0
C1012 C 0.87522 0.58759 0.87408 0.0
C1013 C 0.87591 0.64011 0.90664 0.0
C1014 C 0.892 0.56652 0.854 0.0
C1015 C 0.92583 0.57527 0.84419 0.0
C1016 C 0.89246 0.61758 0.88464 0.0
C1017 C 0.94151 0.60633 0.85431 0.0
C1018 C 0.89479 0.66786 0.91914 0.0
C1019 C 0.82433 0.65695 0.93229 0.0
N1020 N 0.92481 0.62619 0.87413 0.0
N1021 N 0.84151 0.63509 0.91407 0.0
H1022 H 0.56382 0.57596 0.217 0.0
H1023 H 0.67079 0.63616 0.07914 0.0
H1024 H 0.5584 0.51875 0.13865 0.0
H1025 H 0.64577 0.7045 0.14919 0.0
H1026 H 0.63803 0.58831 0.10248 0.0
H1027 H 0.60519 0.61752 0.19517 0.0
C1028 C 0.57232 0.57148 0.1955 0.0
C1029 C 0.5578 0.5439 0.17962 0.0
C1030 C 0.63973 0.61388 0.1126 0.0
C1031 C 0.60418 0.59182 0.1542 0.0
C1032 C 0.65813 0.64126 0.09918 0.0
C1033 C 0.66097 0.67455 0.11207 0.0
C1034 C 0.62443 0.61974 0.1392 0.0
C1035 C 0.64432 0.67944 0.13828 0.0
C1036 C 0.59545 0.59549 0.18288 0.0
C1037 C 0.56913 0.5397 0.1516 0.0
N1038 N 0.62705 0.65239 0.15097 0.0
N1039 N 0.59138 0.56358 0.13968 0.0
H1040 H 0.29332 0.34176 0.4603 0.0
H1041 H 0.36764 0.39084 0.31116 0.0
H1042 H 0.27365 0.27786 0.38674 0.0
H1043 H 0.35305 0.46884 0.3765 0.0
H1044 H 0.3296 0.35038 0.33749 0.0
H1045 H 0.31012 0.39084 0.42952 0.0
C1046 C 0.29145 0.33843 0.43767 0.0
C1047 C 0.28274 0.30555 0.42604 0.0
C1048 C 0.33422 0.3766 0.3458 0.0
C1049 C 0.3029 0.36103 0.39076 0.0
C1050 C 0.35602 0.39964 0.33079 0.0
C1051 C 0.36378 0.43312 0.34173 0.0
C1052 C 0.3207 0.38691 0.37215 0.0
C1053 C 0.34791 0.44321 0.36727 0.0
C1054 C 0.30134 0.36634 0.42008 0.0
C1055 C 0.28098 0.30261 0.39655 0.0
N1056 N 0.32763 0.42 0.38184 0.0
N1057 N 0.29177 0.32969 0.37993 0.0
H1058 H 0.42667 0.48174 0.14237 0.0
H1059 H 0.37304 0.66091 0.07215 0.0
H1060 H 0.42998 0.58095 0.18664 0.0
H1061 H 0.30856 0.56951 0.05474 0.0
H1062 H 0.4033 0.62772 0.10887 0.0
H1063 H 0.38846 0.50914 0.10634 0.0
C1064 C 0.41811 0.50884 0.14503 0.0
C1065 C 0.4308 0.52913 0.16757 0.0
C1066 C 0.38265 0.61489 0.09687 0.0
C1067 C 0.38939 0.56077 0.12613 0.0
C1068 C 0.36565 0.63364 0.07563 0.0
C1069 C 0.33806 0.61802 0.06039 0.0
C1070 C 0.37254 0.58003 0.10267 0.0
C1071 C 0.32962 0.58256 0.06607 0.0
C1072 C 0.39681 0.5245 0.1244 0.0
C1073 C 0.42016 0.56443 0.16974 0.0
N1074 N 0.34687 0.56461 0.08681 0.0
N1075 N 0.40063 0.57935 0.14898 0.0
H1076 H 0.0968 0.64051 0.78743 0.0
H1077 H 0.22766 0.71937 0.86428 0.0
H1078 H 0.10894 0.54987 0.84169 0.0
H1079 H 0.18752 0.65494 0.93181 0.0
H1080 H 0.19966 0.67996 0.83013 0.0
H1081 H 0.14278 0.67078 0.81404 0.0
C1082 C 0.10967 0.62674 0.8046 0.0
C1083 C 0.09908 0.59265 0.81231 0.0
C1084 C 0.19719 0.67419 0.85238 0.0
C1085 C 0.15201 0.62699 0.84288 0.0
C1086 C 0.21366 0.69629 0.87181 0.0
C1087 C 0.20957 0.69039 0.9008 0.0
C1088 C 0.17603 0.64632 0.86206 0.0
C1089 C 0.19124 0.66025 0.90959 0.0
C1090 C 0.13622 0.64388 0.81967 0.0
C1091 C 0.11649 0.57609 0.8349 0.0
N1092 N 0.17461 0.63953 0.89026 0.0
N1093 N 0.14165 0.59368 0.84974 0.0
H1094 H 0.15486 0.36375 0.55917 0.0
H1095 H 0.09217 0.46154 0.69584 0.0
H1096 H 0.22072 0.37791 0.63249 0.0
H1097 H 0.03836 0.47307 0.61619 0.0
H1098 H 0.14349 0.43871 0.67098 0.0
H1099 H 0.11552 0.41013 0.5769 0.0
C1100 C 0.16141 0.37707 0.57867 0.0
C1101 C 0.19058 0.36641 0.59471 0.0
C1102 C 0.12072 0.44685 0.65882 0.0
C1103 C 0.14577 0.41907 0.61522 0.0
C1104 C 0.09143 0.46021 0.67306 0.0
C1105 C 0.06053 0.4684 0.65818 0.0
C1106 C 0.11889 0.44109 0.62958 0.0
C1107 C 0.06125 0.46595 0.6286 0.0
C1108 C 0.13898 0.40354 0.58881 0.0
C1109 C 0.19802 0.38472 0.61975 0.0
N1110 N 0.08961 0.45171 0.61532 0.0
N1111 N 0.17546 0.40969 0.62945 0.0
H1112 H 0.3414 0.66018 0.5467 0.0
H1113 H 0.42325 0.59341 0.69034 0.0
H1114 H 0.31782 0.70908 0.62661 0.0
H1115 H 0.41251 0.52501 0.61804 0.0
H1116 H 0.38457 0.63637 0.66719 0.0
H1117 H 0.36644 0.60945 0.57197 0.0
C1118 C 0.34076 0.65987 0.56951 0.0
C1119 C 0.32814 0.68909 0.58459 0.0
C1120 C 0.39042 0.61176 0.65655 0.0
C1121 C 0.35736 0.63186 0.61354 0.0
C1122 C 0.41258 0.58732 0.66974 0.0
C1123 C 0.42142 0.55577 0.65602 0.0
C1124 C 0.37751 0.60479 0.62931 0.0
C1125 C 0.40669 0.54915 0.62933 0.0
C1126 C 0.35525 0.63107 0.58394 0.0
C1127 C 0.32808 0.68741 0.61418 0.0
N1128 N 0.38585 0.57364 0.61669 0.0
N1129 N 0.34305 0.65962 0.62767 0.0
H1130 H 0.24167 0.6398 0.37628 0.0
H1131 H 0.04551 0.56435 0.37833 0.0
H1132 H 0.16881 0.65667 0.44489 0.0
H1133 H 0.10636 0.57929 0.30248 0.0
H1134 H 0.09632 0.58304 0.40625 0.0
H1135 H 0.19801 0.60278 0.35296 0.0
C1136 C 0.21665 0.63532 0.3867 0.0
C1137 C 0.20863 0.65189 0.41242 0.0
C1138 C 0.09869 0.58174 0.38353 0.0
C1139 C 0.1586 0.60937 0.38568 0.0
C1140 C 0.06975 0.57113 0.36756 0.0
C1141 C 0.07149 0.57109 0.33797 0.0
C1142 C 0.12973 0.59211 0.36986 0.0
C1143 C 0.10381 0.57914 0.32519 0.0
C1144 C 0.19175 0.61419 0.37328 0.0
C1145 C 0.17596 0.64472 0.42498 0.0
N1146 N 0.13157 0.58981 0.34121 0.0
N1147 N 0.15194 0.62425 0.41132 0.0
H1148 H 0.03671 0.37861 0.16655 0.0
H1149 H 0.20651 0.33812 0.07692 0.0
H1150 H 0.1202 0.45595 0.16385 0.0
H1151 H 0.1023 0.30432 0.05269 0.0
H1152 H 0.17979 0.37973 0.11073 0.0
H1153 H 0.06546 0.34625 0.12865 0.0
C1154 C 0.06142 0.38854 0.15831 0.0
C1155 C 0.07613 0.42 0.16851 0.0
C1156 C 0.16289 0.36369 0.09752 0.0
C1157 C 0.10908 0.38308 0.12475 0.0
C1158 C 0.17806 0.3403 0.07806 0.0
C1159 C 0.15652 0.31759 0.06223 0.0
C1160 C 0.12614 0.36373 0.10128 0.0
C1161 C 0.11982 0.3211 0.06475 0.0
C1162 C 0.07758 0.37026 0.13639 0.0
C1163 C 0.10803 0.43174 0.15664 0.0
N1164 N 0.10583 0.34312 0.0843 0.0
N1165 N 0.12363 0.41314 0.13542 0.0
H1166 H 0.46523 0.3716 0.82202 0.0
H1167 H 0.28854 0.40949 0.90379 0.0
H1168 H 0.43376 0.48005 0.83395 0.0
H1169 H 0.36336 0.32876 0.9277 0.0
H1170 H 0.33325 0.43498 0.87218 0.0
H1171 H 0.4168 0.35281 0.85223 0.0
C1172 C 0.44766 0.39141 0.83067 0.0
C1173 C 0.45374 0.42741 0.82596 0.0
C1174 C 0.33975 0.41197 0.88471 0.0
C1175 C 0.39851 0.40614 0.86059 0.0
C1176 C 0.31445 0.39751 0.9028 0.0
C1177 C 0.3221 0.36669 0.91819 0.0
C1178 C 0.37236 0.39494 0.88171 0.0
C1179 C 0.35608 0.3523 0.91614 0.0
C1180 C 0.42028 0.38072 0.84804 0.0
C1181 C 0.42989 0.45204 0.83723 0.0
N1182 N 0.3797 0.36619 0.89786 0.0
N1183 N 0.40327 0.44096 0.85437 0.0
H1184 H 0.25373 0.88011 0.06101 0.0
H1185 H 0.14131 0.88788 0.20065 0.0
H1186 H 0.15165 0.83479 0.07729 0.0
H1187 H 0.19493 0.97947 0.16798 0.0
H1188 H 0.17525 0.85078 0.16859 0.0
H1189 H 0.2562 0.90068 0.11049 0.0
C1190 C 0.2323 0.87398 0.07526 0.0
C1191 C 0.20263 0.85559 0.06566 0.0
C1192 C 0.18078 0.87884 0.1694 0.0
C1193 C 0.20564 0.87773 0.12138 0.0
C1194 C 0.16157 0.9 0.18779 0.0
C1195 C 0.16398 0.93683 0.18565 0.0
C1196 C 0.20199 0.89494 0.14891 0.0
C1197 C 0.1913 0.95117 0.16935 0.0
C1198 C 0.23385 0.88536 0.10327 0.0
C1199 C 0.17498 0.84878 0.08424 0.0
N1200 N 0.20838 0.93024 0.15053 0.0
N1201 N 0.17721 0.85977 0.11131 0.0
H1202 H 0.37603 0.97817 0.29801 0.0
H1203 H 0.2245 0.89218 0.37242 0.0
H1204 H 0.34401 0.99779 0.38382 0.0
H1205 H 0.25171 0.87479 0.28538 0.0
H1206 H 0.24697 0.95204 0.369 0.0
H1207 H 0.3152 0.96398 0.28605 0.0
C1208 C 0.35604 0.98032 0.31422 0.0
C1209 C 0.36528 0.98699 0.34234 0.0
C1210 C 0.24707 0.93568 0.35028 0.0
C1211 C 0.2959 0.97028 0.32892 0.0
C1212 C 0.23402 0.90145 0.35225 0.0
C1213 C 0.23785 0.87816 0.32954 0.0
C1214 C 0.26579 0.94564 0.32599 0.0
C1215 C 0.24955 0.89166 0.30372 0.0
C1216 C 0.32119 0.97238 0.30734 0.0
C1217 C 0.33822 0.99093 0.36216 0.0
N1218 N 0.26453 0.9242 0.30292 0.0
N1219 N 0.30483 0.98147 0.35527 0.0
H1220 H 0.2523 0.09355 0.60622 0.0
H1221 H 0.37017 0.09392 0.74318 0.0
H1222 H 0.35497 0.13968 0.61816 0.0
H1223 H 0.31817 -0.00038 0.71397 0.0
H1224 H 0.33445 0.12864 0.71082 0.0
H1225 H 0.25214 0.07541 0.6563 0.0
C1226 C 0.27422 0.10068 0.61968 0.0
C1227 C 0.30325 0.11891 0.60872 0.0
C1228 C 0.32949 0.10059 0.71255 0.0
C1229 C 0.30302 0.09908 0.66508 0.0
C1230 C 0.34977 0.08074 0.73113 0.0
C1231 C 0.34834 0.04382 0.72996 0.0
C1232 C 0.30801 0.08312 0.69296 0.0
C1233 C 0.32094 0.02806 0.7146 0.0
C1234 C 0.27403 0.09056 0.64803 0.0
C1235 C 0.3319 0.12622 0.62622 0.0
N1236 N 0.30266 0.04773 0.69561 0.0
N1237 N 0.33097 0.11647 0.65365 0.0
H1238 H 0.20031 0.05511 0.92499 0.0
H1239 H 0.14331 0.11823 0.80246 0.0
H1240 H 0.24352 0.15336 0.89637 0.0
H1241 H 0.16128 0.00636 0.80943 0.0
H1242 H 0.20033 0.12889 0.82404 0.0
H1243 H 0.2093 0.03051 0.87852 0.0
C1244 C 0.21224 0.07168 0.90903 0.0
C1245 C 0.21755 0.1079 0.91367 0.0
C1246 C 0.19289 0.10191 0.81966 0.0
C1247 C 0.22717 0.07999 0.86008 0.0
C1248 C 0.1602 0.0959 0.80718 0.0
C1249 C 0.14722 0.06147 0.80542 0.0
C1250 C 0.21084 0.07342 0.83223 0.0
C1251 C 0.17015 0.03342 0.81142 0.0
C1252 C 0.21777 0.0574 0.88234 0.0
C1253 C 0.23519 0.12684 0.89276 0.0
N1254 N 0.20036 0.03993 0.82589 0.0
N1255 N 0.23813 0.11329 0.86637 0.0
H1256 H 0.99354 0.14357 0.86733 0.0
H1257 H 0.83373 0.16077 0.97645 0.0
H1258 H 0.91336 0.06494 0.88263 0.0
H1259 H 0.88137 0.25367 0.9404 0.0
H1260 H 0.87542 0.1241 0.95061 0.0
H1261 H 0.96241 0.18372 0.89997 0.0
C1262 C 0.96942 0.13481 0.87731 0.0
C1263 C 0.95606 0.10078 0.87207 0.0
C1264 C 0.87724 0.15254 0.94864 0.0
C1265 C 0.92126 0.14592 0.90987 0.0
C1266 C 0.8537 0.17348 0.96367 0.0
C1267 C 0.85401 0.21025 0.96046 0.0
C1268 C 0.90118 0.16833 0.92993 0.0
C1269 C 0.88044 0.22537 0.94357 0.0
C1270 C 0.95185 0.15762 0.89601 0.0
C1271 C 0.92481 0.09081 0.88578 0.0
N1272 N 0.90272 0.20428 0.92847 0.0
N1273 N 0.90876 0.11308 0.90406 0.0
H1274 H 0.64239 0.17246 0.59461 0.0
H1275 H 0.52519 0.11788 0.72847 0.0
H1276 H 0.6446 0.2308 0.6726 0.0
H1277 H 0.56663 0.04432 0.66746 0.0
H1278 H 0.55435 0.16638 0.70261 0.0
H1279 H 0.59817 0.13268 0.61517 0.0
C1280 C 0.63271 0.17757 0.61569 0.0
C1281 C 0.64724 0.2047 0.63203 0.0
C1282 C 0.55667 0.13957 0.69488 0.0
C1283 C 0.59716 0.15941 0.65568 0.0
C1284 C 0.54017 0.11202 0.70962 0.0
C1285 C 0.54417 0.07706 0.70041 0.0
C1286 C 0.57629 0.13199 0.67044 0.0
C1287 C 0.56354 0.07082 0.67567 0.0
C1288 C 0.60781 0.15471 0.62752 0.0
C1289 C 0.63416 0.20992 0.65942 0.0
N1290 N 0.57882 0.09794 0.66158 0.0
N1291 N 0.61006 0.18731 0.67051 0.0
H1292 H 0.63596 0.77038 0.46002 0.0
H1293 H 0.59185 0.93186 0.35944 0.0
H1294 H 0.70359 0.86102 0.44915 0.0
H1295 H 0.50746 0.87355 0.39898 0.0
H1296 H 0.63431 0.89901 0.38754 0.0
H1297 H 0.58866 0.80236 0.43511 0.0
C1298 C 0.64067 0.79713 0.45296 0.0
C1299 C 0.67396 0.81288 0.45651 0.0
C1300 C 0.60648 0.8933 0.39005 0.0
C1301 C 0.62056 0.84894 0.42744 0.0
C1302 C 0.58217 0.91186 0.37377 0.0
C1303 C 0.54589 0.9056 0.37681 0.0
C1304 C 0.59476 0.86786 0.40938 0.0
C1305 C 0.53518 0.87933 0.39596 0.0
C1306 C 0.61379 0.81524 0.43859 0.0
C1307 C 0.67858 0.84755 0.44669 0.0
N1308 N 0.5595 0.86131 0.41152 0.0
N1309 N 0.65248 0.86413 0.43233 0.0
H1310 H 0.9351 0.93949 0.13384 0.0
H1311 H 0.84414 0.75929 0.16121 0.0
H1312 H 0.98358 0.8654 0.19099 0.0
H1313 H 0.84278 0.80611 0.07844 0.0
H1314 H 0.89369 0.79757 0.17411 0.0
H1315 H 0.89874 0.89197 0.11477 0.0
C1316 C 0.93809 0.9131 0.14235 0.0
C1317 C 0.96208 0.90633 0.16421 0.0
C1318 C 0.88306 0.79891 0.15294 0.0
C1319 C 0.92027 0.85192 0.14261 0.0
C1320 C 0.85482 0.77718 0.14558 0.0
C1321 C 0.83944 0.77966 0.11874 0.0
C1322 C 0.89524 0.82408 0.13361 0.0
C1323 C 0.85408 0.80328 0.09928 0.0
C1324 C 0.91758 0.88597 0.13126 0.0
C1325 C 0.96528 0.87162 0.17419 0.0
N1326 N 0.88071 0.82519 0.10731 0.0
N1327 N 0.94404 0.84571 0.16367 0.0
H1328 H 0.63689 0.51749 0.58443 0.0
H1329 H 0.70913 0.32859 0.57033 0.0
H1330 H 0.59796 0.44092 0.52487 0.0
H1331 H 0.75519 0.40841 0.6237 0.0
H1332 H 0.68161 0.3747 0.54216 0.0
H1333 H 0.69315 0.48643 0.58579 0.0
C1334 C 0.64074 0.49487 0.57075 0.0
C1335 C 0.61245 0.48075 0.55543 0.0
C1336 C 0.69824 0.38231 0.55969 0.0
C1337 C 0.67597 0.44439 0.55772 0.0
C1338 C 0.71374 0.35593 0.57594 0.0
C1339 C 0.73332 0.36475 0.59999 0.0
C1340 C 0.70155 0.41775 0.56803 0.0
C1341 C 0.73943 0.40051 0.60576 0.0
C1342 C 0.67281 0.47697 0.57167 0.0
C1343 C 0.6189 0.45204 0.53758 0.0
N1344 N 0.72281 0.42574 0.59032 0.0
N1345 N 0.64968 0.43394 0.53999 0.0
H1346 H 0.85952 0.37269 0.01936 0.0
H1347 H 0.88368 0.54153 0.93205 0.0
H1348 H 0.77417 0.43885 0.99109 0.0
H1349 H 0.95995 0.46022 0.9501 0.0
H1350 H 0.84889 0.52211 0.97295 0.0
H1351 H 0.89882 0.42328 0.01817 0.0
C1352 C 0.84874 0.3983 0.01407 0.0
C1353 C 0.81397 0.40156 1.00464 0.0
C1354 C 0.87384 0.50933 0.96848 0.0
C1355 C 0.85941 0.45849 1.00029 0.0
C1356 C 0.89351 0.52026 0.94515 0.0
C1357 C 0.9237 0.5013 0.93736 0.0
C1358 C 0.8849 0.47956 0.98385 0.0
C1359 C 0.93598 0.47451 0.95501 0.0
C1360 C 0.87124 0.42719 0.01306 0.0
C1361 C 0.80121 0.43522 0.99784 0.0
N1362 N 0.91626 0.46409 0.97724 0.0
N1363 N 0.82437 0.46228 0.99459 0.0
H1364 H 0.87853 0.47603 0.09603 0.0
H1365 H 0.73748 0.57732 0.12594 0.0
H1366 H 0.90089 0.54684 0.02729 0.0
H1367 H 0.79657 0.65421 0.0783 0.0
H1368 H 0.76845 0.53014 0.10088 0.0
H1369 H 0.82015 0.50148 0.10025 0.0
C1370 C 0.87045 0.49596 0.08097 0.0
C1371 C 0.89483 0.51035 0.06202 0.0
C1372 C 0.7747 0.5573 0.09591 0.0
C1373 C 0.82818 0.54027 0.0669 0.0
C1374 C 0.75694 0.58426 0.11018 0.0
C1375 C 0.76562 0.61969 0.10506 0.0
C1376 C 0.80149 0.56603 0.07664 0.0
C1377 C 0.79001 0.62723 0.08371 0.0
C1378 C 0.8369 0.51063 0.08335 0.0
C1379 C 0.88306 0.53566 0.04269 0.0
N1380 N 0.80745 0.60065 0.07063 0.0
N1381 N 0.85088 0.55076 0.04628 0.0
H1382 H 0.65049 0.51859 0.37937 0.0
H1383 H 0.66001 0.63529 0.51054 0.0
H1384 H 0.56003 0.55407 0.42683 0.0
H1385 H 0.75151 0.58539 0.47437 0.0
H1386 H 0.62331 0.58873 0.49143 0.0
H1387 H 0.68738 0.52817 0.42096 0.0
C1388 C 0.63839 0.52824 0.39855 0.0
C1389 C 0.60247 0.53695 0.39932 0.0
C1390 C 0.65156 0.58708 0.48836 0.0
C1391 C 0.64419 0.54732 0.44703 0.0
C1392 C 0.6726 0.61349 0.49977 0.0
C1393 C 0.70857 0.6146 0.49336 0.0
C1394 C 0.66655 0.56299 0.46927 0.0
C1395 C 0.72361 0.58581 0.47921 0.0
C1396 C 0.65933 0.53325 0.42241 0.0
C1397 C 0.58788 0.54824 0.42494 0.0
N1398 N 0.70229 0.56185 0.46649 0.0
N1399 N 0.60888 0.55363 0.4476 0.0
H1400 H 0.32632 0.67054 0.41482 0.0
H1401 H 0.48057 0.6264 0.31965 0.0
H1402 H 0.35802 0.75791 0.36219 0.0
H1403 H 0.38485 0.5652 0.31304 0.0
H1404 H 0.44585 0.67554 0.3394 0.0
H1405 H 0.35831 0.6304 0.38401 0.0
C1406 C 0.33984 0.68139 0.39671 0.0
C1407 C 0.33874 0.71767 0.39072 0.0
C1408 C 0.43259 0.65157 0.33288 0.0
C1409 C 0.37653 0.67164 0.35596 0.0
C1410 C 0.45227 0.62353 0.32165 0.0
C1411 C 0.43575 0.59131 0.31509 0.0
C1412 C 0.3965 0.64686 0.33804 0.0
C1413 C 0.39894 0.58923 0.3181 0.0
C1414 C 0.35806 0.65836 0.37915 0.0
C1415 C 0.35765 0.73004 0.36722 0.0
N1416 N 0.38075 0.61621 0.33006 0.0
N1417 N 0.37622 0.70704 0.35073 0.0
H1418 H 0.0912 0.54921 0.14419 0.0
H1419 H 0.13329 0.71671 0.04915 0.0
H1420 H 0.01061 0.62286 0.11876 0.0
H1421 H 0.20465 0.62883 0.05988 0.0
H1422 H 0.08666 0.68198 0.07168 0.0
H1423 H 0.13236 0.57741 0.11156 0.0
C1424 C 0.08228 0.57137 0.13161 0.0
C1425 C 0.04772 0.58395 0.13407 0.0
C1426 C 0.11239 0.67015 0.06867 0.0
C1427 C 0.09455 0.61663 0.09693 0.0
C1428 C 0.13901 0.68991 0.05571 0.0
C1429 C 0.17312 0.67588 0.05296 0.0
C1430 C 0.1201 0.63629 0.07915 0.0
C1431 C 0.17892 0.64098 0.06185 0.0
C1432 C 0.10563 0.58734 0.11287 0.0
C1433 C 0.03719 0.61255 0.11733 0.0
N1434 N 0.15288 0.62263 0.07488 0.0
N1435 N 0.06066 0.62823 0.09959 0.0
H1436 H 0.19779 0.33817 0.88416 0.0
H1437 H -0.00206 0.37955 0.85126 0.0
H1438 H 0.1156 0.26667 0.91066 0.0
H1439 H 0.08495 0.42295 0.80393 0.0
H1440 H 0.03851 0.33709 0.87288 0.0
H1441 H 0.15518 0.37026 0.85598 0.0
C1442 C 0.17066 0.32925 0.88422 0.0
C1443 C 0.16026 0.29972 0.90005 0.0
C1444 C 0.0485 0.3555 0.85736 0.0
C1445 C 0.11102 0.33662 0.86736 0.0
C1446 C 0.02536 0.37969 0.84488 0.0
C1447 C 0.03812 0.4054 0.82607 0.0
C1448 C 0.08462 0.3573 0.85118 0.0
C1449 C 0.07389 0.40406 0.81858 0.0
C1450 C 0.14634 0.34748 0.86782 0.0
C1451 C 0.12472 0.28936 0.8989 0.0
N1452 N 0.09593 0.38091 0.83151 0.0
N1453 N 0.10121 0.30802 0.88299 0.0
H1454 H 0.38672 0.26273 0.58619 0.0
H1455 H 0.4269 0.43748 0.66733 0.0
H1456 H 0.3127 0.34945 0.58906 0.0
H1457 H 0.51128 0.38879 0.62033 0.0
H1458 H 0.38466 0.40005 0.64289 0.0
H1459 H 0.43355 0.3034 0.60169 0.0
C1460 C 0.38037 0.29027 0.58969 0.0
C1461 C 0.34558 0.30254 0.58657 0.0
C1462 C 0.41238 0.39773 0.6377 0.0
C1463 C 0.39866 0.34866 0.60461 0.0
C1464 C 0.43655 0.41903 0.65167 0.0
C1465 C 0.47261 0.41651 0.64557 0.0
C1466 C 0.42431 0.37276 0.61808 0.0
C1467 C 0.4836 0.39173 0.62536 0.0
C1468 C 0.40709 0.31339 0.59843 0.0
C1469 C 0.33895 0.33857 0.59132 0.0
N1470 N 0.45951 0.37035 0.6125 0.0
N1471 N 0.36505 0.36013 0.60052 0.0
loop_
_geom_bond_atom_site_label_1
_geom_bond_atom_site_label_2
_geom_bond_distance
_geom_bond_site_symmetry_2
_ccdc_geom_bond_type
O0 Tb1 2.292 1_565 S
O0 C3 1.255 . S
Tb1 O0 2.292 1_545 S
Tb1 O17 2.326 . S
Tb1 O19 2.500 . S
Tb1 O20 2.473 . S
Tb1 O23 2.324 1_455 S
Eu2 O6 2.292 . S
Eu2 C7 2.852 . S
Eu2 O18 2.324 1_655 S
Eu2 O22 2.326 . S
Eu2 O24 2.500 . S
Eu2 O25 2.473 1_655 S
C3 O0 1.255 . S
C3 O4 1.247 1_565 S
O4 C3 1.247 1_545 S
C5 O17 1.242 . S
C5 O18 1.258 . S
O6 Eu2 2.292 . S
O6 C8 1.255 . S
C7 Eu2 2.852 . S
C7 C11 1.503 . S
C7 O24 1.273 . S
C7 O25 1.257 1_655 S
C8 O6 1.255 . S
C8 O9 1.247 . S
O9 C8 1.247 . S
C10 O22 1.242 . S
C10 O23 1.258 . S
C11 C7 1.503 . S
C11 C12 1.379 1_655 S
C11 C16 1.392 . S
C12 C11 1.379 1_455 S
C12 C13 1.404 . S
C12 H26 0.929 . S
C13 C12 1.404 . S
C13 C14 1.389 1_455 S
C14 C13 1.389 1_655 S
C14 C15 1.399 . S
C14 H27 0.931 1_545 S
C15 C14 1.399 . S
C15 C16 1.390 . S
C16 C11 1.392 . S
C16 C15 1.390 . S
C16 H28 0.929 . S
O17 Tb1 2.326 . S
O17 C5 1.242 . S
O18 Eu2 2.324 1_455 S
O18 C5 1.258 . S
O19 Tb1 2.500 . S
O19 C21 1.273 . S
O20 Tb1 2.473 . S
O20 C21 1.257 . S
C21 O19 1.273 . S
C21 O20 1.257 . S
O22 Eu2 2.326 . S
O22 C10 1.242 . S
O23 Tb1 2.324 1_655 S
O23 C10 1.258 . S
O24 Eu2 2.500 . S
O24 C7 1.273 . S
O25 Eu2 2.473 1_455 S
O25 C7 1.257 1_455 S
H26 C12 0.929 . S
H27 C14 0.931 1_565 S
H28 C16 0.929 . S
O29 Tb30 2.292 . S
O29 C32 1.255 . S
Tb30 O29 2.292 . S
Tb30 O46 2.326 . S
Tb30 O48 2.500 . S
Tb30 O49 2.473 . S
Tb30 O52 2.324 . S
Eu31 O35 2.292 . S
Eu31 C36 2.852 . S
Eu31 O47 2.324 . S
Eu31 O51 2.326 . S
Eu31 O53 2.500 . S
Eu31 O54 2.473 . S
C32 O29 1.255 . S
C32 O33 1.247 . S
O33 C32 1.247 . S
C34 O46 1.242 . S
C34 O47 1.258 . S
O35 Eu31 2.292 . S
O35 C37 1.255 . S
C36 Eu31 2.852 . S
C36 C40 1.503 . S
C36 O53 1.273 . S
C36 O54 1.257 . S
C37 O35 1.255 . S
C37 O38 1.247 . S
O38 C37 1.247 . S
C39 O51 1.242 . S
C39 O52 1.258 . S
C40 C36 1.503 . S
C40 C41 1.379 . S
C40 C45 1.392 . S
C41 C40 1.379 . S
C41 C42 1.404 . S
C41 H55 0.929 . S
C42 C41 1.404 . S
C42 C43 1.389 . S
C43 C42 1.389 . S
C43 C44 1.399 . S
C43 H56 0.931 . S
C44 C43 1.399 . S
C44 C45 1.390 . S
C45 C40 1.392 . S
C45 C44 1.390 . S
C45 H57 0.929 . S
O46 Tb30 2.326 . S
O46 C34 1.242 . S
O47 Eu31 2.324 . S
O47 C34 1.258 . S
O48 Tb30 2.500 . S
O48 C50 1.273 . S
O49 Tb30 2.473 . S
O49 C50 1.257 . S
C50 O48 1.273 . S
C50 O49 1.257 . S
O51 Eu31 2.326 . S
O51 C39 1.242 . S
O52 Tb30 2.324 . S
O52 C39 1.258 . S
O53 Eu31 2.500 . S
O53 C36 1.273 . S
O54 Eu31 2.473 . S
O54 C36 1.257 . S
H55 C41 0.929 . S
H56 C43 0.931 . S
H57 C45 0.929 . S
O58 Tb59 2.292 1_545 S
O58 C61 1.255 . S
Tb59 O58 2.292 1_565 S
Tb59 O75 2.326 . S
Tb59 O77 2.500 . S
Tb59 O78 2.473 . S
Tb59 O81 2.324 . S
Eu60 O64 2.292 . S
Eu60 C65 2.852 . S
Eu60 O76 2.324 . S
Eu60 O80 2.326 . S
Eu60 O82 2.500 . S
Eu60 O83 2.473 . S
C61 O58 1.255 . S
C61 O62 1.247 1_545 S
O62 C61 1.247 1_565 S
C63 O75 1.242 . S
C63 O76 1.258 . S
O64 Eu60 2.292 . S
O64 C66 1.255 . S
C65 Eu60 2.852 . S
C65 C69 1.503 . S
C65 O82 1.273 . S
C65 O83 1.257 . S
C66 O64 1.255 . S
C66 O67 1.247 . S
O67 C66 1.247 . S
C68 O80 1.242 . S
C68 O81 1.258 . S
C69 C65 1.503 . S
C69 C70 1.379 . S
C69 C74 1.392 . S
C70 C69 1.379 . S
C70 C71 1.404 . S
C70 H84 0.929 . S
C71 C70 1.404 . S
C71 C72 1.389 . S
C72 C71 1.389 . S
C72 C73 1.399 . S
C72 H85 0.931 1_565 S
C73 C72 1.399 . S
C73 C74 1.390 . S
C74 C69 1.392 . S
C74 C73 1.390 . S
C74 H86 0.929 . S
O75 Tb59 2.326 . S
O75 C63 1.242 . S
O76 Eu60 2.324 . S
O76 C63 1.258 . S
O77 Tb59 2.500 . S
O77 C79 1.273 . S
O78 Tb59 2.473 . S
O78 C79 1.257 . S
C79 O77 1.273 . S
C79 O78 1.257 . S
O80 Eu60 2.326 . S
O80 C68 1.242 . S
O81 Tb59 2.324 . S
O81 C68 1.258 . S
O82 Eu60 2.500 . S
O82 C65 1.273 . S
O83 Eu60 2.473 . S
O83 C65 1.257 . S
H84 C70 0.929 . S
H85 C72 0.931 1_545 S
H86 C74 0.929 . S
O87 Tb88 2.292 . S
O87 C90 1.255 . S
Tb88 O87 2.292 . S
Tb88 O104 2.326 . S
Tb88 O106 2.500 . S
Tb88 O107 2.473 . S
Tb88 O110 2.324 . S
Eu89 O93 2.292 . S
Eu89 C94 2.852 . S
Eu89 O105 2.324 . S
Eu89 O109 2.326 . S
Eu89 O111 2.500 . S
Eu89 O112 2.473 . S
C90 O87 1.255 . S
C90 O91 1.247 . S
O91 C90 1.247 . S
C92 O104 1.242 . S
C92 O105 1.258 . S
O93 Eu89 2.292 . S
O93 C95 1.255 . S
C94 Eu89 2.852 . S
C94 C98 1.503 1_556 S
C94 O111 1.273 . S
C94 O112 1.257 . S
C95 O93 1.255 . S
C95 O96 1.247 . S
O96 C95 1.247 . S
C97 O109 1.242 . S
C97 O110 1.258 . S
C98 C94 1.503 1_554 S
C98 C99 1.379 . S
C98 C103 1.392 . S
C99 C98 1.379 . S
C99 C100 1.404 . S
C99 H113 0.929 . S
C100 C99 1.404 . S
C100 C101 1.389 . S
C101 C100 1.389 . S
C101 C102 1.399 . S
C101 H114 0.931 . S
C102 C101 1.399 . S
C102 C103 1.390 . S
C103 C98 1.392 . S
C103 C102 1.390 . S
C103 H115 0.929 . S
O104 Tb88 2.326 . S
O104 C92 1.242 . S
O105 Eu89 2.324 . S
O105 C92 1.258 . S
O106 Tb88 2.500 . S
O106 C108 1.273 . S
O107 Tb88 2.473 . S
O107 C108 1.257 . S
C108 O106 1.273 . S
C108 O107 1.257 . S
O109 Eu89 2.326 . S
O109 C97 1.242 . S
O110 Tb88 2.324 . S
O110 C97 1.258 . S
O111 Eu89 2.500 . S
O111 C94 1.273 . S
O112 Eu89 2.473 . S
O112 C94 1.257 . S
H113 C99 0.929 . S
H114 C101 0.931 . S
H115 C103 0.929 . S
O116 Tb117 2.292 1_545 S
O116 C119 1.255 . S
Tb117 O116 2.292 1_565 S
Tb117 O133 2.326 . S
Tb117 O135 2.500 . S
Tb117 O136 2.473 . S
Tb117 O139 2.324 1_455 S
Eu118 O122 2.292 . S
Eu118 C123 2.852 . S
Eu118 O134 2.324 1_655 S
Eu118 O138 2.326 . S
Eu118 O140 2.500 . S
Eu118 O141 2.473 1_655 S
C119 O116 1.255 . S
C119 O120 1.247 1_545 S
O120 C119 1.247 1_565 S
C121 O133 1.242 . S
C121 O134 1.258 . S
O122 Eu118 2.292 . S
O122 C124 1.255 . S
C123 Eu118 2.852 . S
C123 C127 1.503 . S
C123 O140 1.273 . S
C123 O141 1.257 1_655 S
C124 O122 1.255 . S
C124 O125 1.247 . S
O125 C124 1.247 . S
C126 O138 1.242 . S
C126 O139 1.258 . S
C127 C123 1.503 . S
C127 C128 1.379 1_655 S
C127 C132 1.392 . S
C128 C127 1.379 1_455 S
C128 C129 1.404 . S
C128 H142 0.929 . S
C129 C128 1.404 . S
C129 C130 1.389 1_455 S
C130 C129 1.389 1_655 S
C130 C131 1.399 . S
C130 H143 0.931 1_565 S
C131 C130 1.399 . S
C131 C132 1.390 . S
C132 C127 1.392 . S
C132 C131 1.390 . S
C132 H144 0.929 . S
O133 Tb117 2.326 . S
O133 C121 1.242 . S
O134 Eu118 2.324 1_455 S
O134 C121 1.258 . S
O135 Tb117 2.500 . S
O135 C137 1.273 . S
O136 Tb117 2.473 . S
O136 C137 1.257 . S
C137 O135 1.273 . S
C137 O136 1.257 . S
O138 Eu118 2.326 . S
O138 C126 1.242 . S
O139 Tb117 2.324 1_655 S
O139 C126 1.258 . S
O140 Eu118 2.500 . S
O140 C123 1.273 . S
O141 Eu118 2.473 1_455 S
O141 C123 1.257 1_455 S
H142 C128 0.929 . S
H143 C130 0.931 1_545 S
H144 C132 0.929 . S
O145 Tb146 2.292 . S
O145 C148 1.255 . S
Tb146 O145 2.292 . S
Tb146 O162 2.326 . S
Tb146 O164 2.500 . S
Tb146 O165 2.473 . S
Tb146 O168 2.324 . S
Eu147 O151 2.292 . S
Eu147 C152 2.852 . S
Eu147 O163 2.324 . S
Eu147 O167 2.326 . S
Eu147 O169 2.500 . S
Eu147 O170 2.473 . S
C148 O145 1.255 . S
C148 O149 1.247 . S
O149 C148 1.247 . S
C150 O162 1.242 . S
C150 O163 1.258 . S
O151 Eu147 2.292 . S
O151 C153 1.255 . S
C152 Eu147 2.852 . S
C152 C156 1.503 1_554 S
C152 O169 1.273 . S
C152 O170 1.257 . S
C153 O151 1.255 . S
C153 O154 1.247 . S
O154 C153 1.247 . S
C155 O167 1.242 . S
C155 O168 1.258 . S
C156 C152 1.503 1_556 S
C156 C157 1.379 . S
C156 C161 1.392 . S
C157 C156 1.379 . S
C157 C158 1.404 . S
C157 H171 0.929 . S
C158 C157 1.404 . S
C158 C159 1.389 . S
C159 C158 1.389 . S
C159 C160 1.399 . S
C159 H172 0.931 . S
C160 C159 1.399 . S
C160 C161 1.390 . S
C161 C156 1.392 . S
C161 C160 1.390 . S
C161 H173 0.929 . S
O162 Tb146 2.326 . S
O162 C150 1.242 . S
O163 Eu147 2.324 . S
O163 C150 1.258 . S
O164 Tb146 2.500 . S
O164 C166 1.273 . S
O165 Tb146 2.473 . S
O165 C166 1.257 . S
C166 O164 1.273 . S
C166 O165 1.257 . S
O167 Eu147 2.326 . S
O167 C155 1.242 . S
O168 Tb146 2.324 . S
O168 C155 1.258 . S
O169 Eu147 2.500 . S
O169 C152 1.273 . S
O170 Eu147 2.473 . S
O170 C152 1.257 . S
H171 C157 0.929 . S
H172 C159 0.931 . S
H173 C161 0.929 . S
O174 Tb175 2.292 1_565 S
O174 C177 1.255 . S
Tb175 O174 2.292 1_545 S
Tb175 O191 2.326 . S
Tb175 O193 2.500 . S
Tb175 O194 2.473 . S
Tb175 O197 2.324 . S
Eu176 O180 2.292 . S
Eu176 C181 2.852 . S
Eu176 O192 2.324 . S
Eu176 O196 2.326 . S
Eu176 O198 2.500 . S
Eu176 O199 2.473 . S
C177 O174 1.255 . S
C177 O178 1.247 1_565 S
O178 C177 1.247 1_545 S
C179 O191 1.242 . S
C179 O192 1.258 . S
O180 Eu176 2.292 . S
O180 C182 1.255 . S
C181 Eu176 2.852 . S
C181 C185 1.503 . S
C181 O198 1.273 . S
C181 O199 1.257 . S
C182 O180 1.255 . S
C182 O183 1.247 . S
O183 C182 1.247 . S
C184 O196 1.242 . S
C184 O197 1.258 . S
C185 C181 1.503 . S
C185 C186 1.379 . S
C185 C190 1.392 . S
C186 C185 1.379 . S
C186 C187 1.404 . S
C186 H200 0.929 . S
C187 C186 1.404 . S
C187 C188 1.389 . S
C188 C187 1.389 . S
C188 C189 1.399 . S
C188 H201 0.931 1_545 S
C189 C188 1.399 . S
C189 C190 1.390 . S
C190 C185 1.392 . S
C190 C189 1.390 . S
C190 H202 0.929 . S
O191 Tb175 2.326 . S
O191 C179 1.242 . S
O192 Eu176 2.324 . S
O192 C179 1.258 . S
O193 Tb175 2.500 . S
O193 C195 1.273 . S
O194 Tb175 2.473 . S
O194 C195 1.257 . S
C195 O193 1.273 . S
C195 O194 1.257 . S
O196 Eu176 2.326 . S
O196 C184 1.242 . S
O197 Tb175 2.324 . S
O197 C184 1.258 . S
O198 Eu176 2.500 . S
O198 C181 1.273 . S
O199 Eu176 2.473 . S
O199 C181 1.257 . S
H200 C186 0.929 . S
H201 C188 0.931 1_565 S
H202 C190 0.929 . S
O203 Tb204 2.292 . S
O203 C206 1.255 . S
Tb204 O203 2.292 . S
Tb204 O220 2.326 . S
Tb204 O222 2.500 . S
Tb204 O223 2.473 . S
Tb204 O226 2.324 . S
Eu205 O209 2.292 . S
Eu205 C210 2.852 . S
Eu205 O221 2.324 . S
Eu205 O225 2.326 . S
Eu205 O227 2.500 . S
Eu205 O228 2.473 . S
C206 O203 1.255 . S
C206 O207 1.247 . S
O207 C206 1.247 . S
C208 O220 1.242 . S
C208 O221 1.258 . S
O209 Eu205 2.292 . S
O209 C211 1.255 . S
C210 Eu205 2.852 . S
C210 C214 1.503 . S
C210 O227 1.273 . S
C210 O228 1.257 . S
C211 O209 1.255 . S
C211 O212 1.247 . S
O212 C211 1.247 . S
C213 O225 1.242 . S
C213 O226 1.258 . S
C214 C210 1.503 . S
C214 C215 1.379 . S
C214 C219 1.392 . S
C215 C214 1.379 . S
C215 C216 1.404 . S
C215 H229 0.929 . S
C216 C215 1.404 . S
C216 C217 1.389 . S
C217 C216 1.389 . S
C217 C218 1.399 . S
C217 H230 0.931 . S
C218 C217 1.399 . S
C218 C219 1.390 . S
C219 C214 1.392 . S
C219 C218 1.390 . S
C219 H231 0.929 . S
O220 Tb204 2.326 . S
O220 C208 1.242 . S
O221 Eu205 2.324 . S
O221 C208 1.258 . S
O222 Tb204 2.500 . S
O222 C224 1.273 . S
O223 Tb204 2.473 . S
O223 C224 1.257 . S
C224 O222 1.273 . S
C224 O223 1.257 . S
O225 Eu205 2.326 . S
O225 C213 1.242 . S
O226 Tb204 2.324 . S
O226 C213 1.258 . S
O227 Eu205 2.500 . S
O227 C210 1.273 . S
O228 Eu205 2.473 . S
O228 C210 1.257 . S
H229 C215 0.929 . S
H230 C217 0.931 . S
H231 C219 0.929 . S
O232 Tb233 2.292 . S
O232 C235 1.255 . S
Tb233 O232 2.292 . S
Tb233 O249 2.326 . S
Tb233 O251 2.500 . S
Tb233 O252 2.473 . S
Tb233 O255 2.324 . S
Eu234 O238 2.292 . S
Eu234 C239 2.852 . S
Eu234 O250 2.324 . S
Eu234 O254 2.326 . S
Eu234 O256 2.500 . S
Eu234 O257 2.473 . S
C235 O232 1.255 . S
C235 O236 1.247 . S
O236 C235 1.247 . S
C237 O249 1.242 . S
C237 O250 1.258 . S
O238 Eu234 2.292 . S
O238 C240 1.255 . S
C239 Eu234 2.852 . S
C239 C243 1.503 . S
C239 O256 1.273 . S
C239 O257 1.257 . S
C240 O238 1.255 . S
C240 O241 1.247 . S
O241 C240 1.247 . S
C242 O254 1.242 . S
C242 O255 1.258 . S
C243 C239 1.503 . S
C243 C244 1.379 . S
C243 C248 1.392 . S
C244 C243 1.379 . S
C244 C245 1.404 . S
C244 H258 0.929 . S
C245 C244 1.404 . S
C245 C246 1.389 . S
C246 C245 1.389 . S
C246 C247 1.399 . S
C246 H259 0.931 . S
C247 C246 1.399 . S
C247 C248 1.390 . S
C248 C243 1.392 . S
C248 C247 1.390 . S
C248 H260 0.929 . S
O249 Tb233 2.326 . S
O249 C237 1.242 . S
O250 Eu234 2.324 . S
O250 C237 1.258 . S
O251 Tb233 2.500 . S
O251 C253 1.273 . S
O252 Tb233 2.473 . S
O252 C253 1.257 . S
C253 O251 1.273 . S
C253 O252 1.257 . S
O254 Eu234 2.326 . S
O254 C242 1.242 . S
O255 Tb233 2.324 . S
O255 C242 1.258 . S
O256 Eu234 2.500 . S
O256 C239 1.273 . S
O257 Eu234 2.473 . S
O257 C239 1.257 . S
H258 C244 0.929 . S
H259 C246 0.931 . S
H260 C248 0.929 . S
O261 Tb262 2.292 . S
O261 C264 1.255 . S
Tb262 O261 2.292 . S
Tb262 O278 2.326 . S
Tb262 O280 2.500 . S
Tb262 O281 2.473 . S
Tb262 O284 2.324 . S
Eu263 O267 2.292 . S
Eu263 C268 2.852 . S
Eu263 O279 2.324 . S
Eu263 O283 2.326 . S
Eu263 O285 2.500 . S
Eu263 O286 2.473 . S
C264 O261 1.255 . S
C264 O265 1.247 . S
O265 C264 1.247 . S
C266 O278 1.242 . S
C266 O279 1.258 . S
O267 Eu263 2.292 . S
O267 C269 1.255 . S
C268 Eu263 2.852 . S
C268 C272 1.503 1_554 S
C268 O285 1.273 . S
C268 O286 1.257 . S
C269 O267 1.255 . S
C269 O270 1.247 . S
O270 C269 1.247 . S
C271 O283 1.242 . S
C271 O284 1.258 . S
C272 C268 1.503 1_556 S
C272 C273 1.379 . S
C272 C277 1.392 . S
C273 C272 1.379 . S
C273 C274 1.404 . S
C273 H287 0.929 . S
C274 C273 1.404 . S
C274 C275 1.389 . S
C275 C274 1.389 . S
C275 C276 1.399 . S
C275 H288 0.931 . S
C276 C275 1.399 . S
C276 C277 1.390 . S
C277 C272 1.392 . S
C277 C276 1.390 . S
C277 H289 0.929 . S
O278 Tb262 2.326 . S
O278 C266 1.242 . S
O279 Eu263 2.324 . S
O279 C266 1.258 . S
O280 Tb262 2.500 . S
O280 C282 1.273 . S
O281 Tb262 2.473 . S
O281 C282 1.257 . S
C282 O280 1.273 . S
C282 O281 1.257 . S
O283 Eu263 2.326 . S
O283 C271 1.242 . S
O284 Tb262 2.324 . S
O284 C271 1.258 . S
O285 Eu263 2.500 . S
O285 C268 1.273 . S
O286 Eu263 2.473 . S
O286 C268 1.257 . S
H287 C273 0.929 . S
H288 C275 0.931 . S
H289 C277 0.929 . S
O290 Tb291 2.292 . S
O290 C293 1.255 . S
Tb291 O290 2.292 . S
Tb291 O307 2.326 . S
Tb291 O309 2.500 . S
Tb291 O310 2.473 . S
Tb291 O313 2.324 . S
Eu292 O296 2.292 . S
Eu292 C297 2.852 . S
Eu292 O308 2.324 . S
Eu292 O312 2.326 . S
Eu292 O314 2.500 . S
Eu292 O315 2.473 . S
C293 O290 1.255 . S
C293 O294 1.247 . S
O294 C293 1.247 . S
C295 O307 1.242 . S
C295 O308 1.258 . S
O296 Eu292 2.292 . S
O296 C298 1.255 . S
C297 Eu292 2.852 . S
C297 C301 1.503 1_556 S
C297 O314 1.273 . S
C297 O315 1.257 . S
C298 O296 1.255 . S
C298 O299 1.247 . S
O299 C298 1.247 . S
C300 O312 1.242 . S
C300 O313 1.258 . S
C301 C297 1.503 1_554 S
C301 C302 1.379 . S
C301 C306 1.392 . S
C302 C301 1.379 . S
C302 C303 1.404 . S
C302 H316 0.929 . S
C303 C302 1.404 . S
C303 C304 1.389 . S
C304 C303 1.389 . S
C304 C305 1.399 . S
C304 H317 0.931 . S
C305 C304 1.399 . S
C305 C306 1.390 . S
C306 C301 1.392 . S
C306 C305 1.390 . S
C306 H318 0.929 . S
O307 Tb291 2.326 . S
O307 C295 1.242 . S
O308 Eu292 2.324 . S
O308 C295 1.258 . S
O309 Tb291 2.500 . S
O309 C311 1.273 . S
O310 Tb291 2.473 . S
O310 C311 1.257 . S
C311 O309 1.273 . S
C311 O310 1.257 . S
O312 Eu292 2.326 . S
O312 C300 1.242 . S
O313 Tb291 2.324 . S
O313 C300 1.258 . S
O314 Eu292 2.500 . S
O314 C297 1.273 . S
O315 Eu292 2.473 . S
O315 C297 1.257 . S
H316 C302 0.929 . S
H317 C304 0.931 . S
H318 C306 0.929 . S
O319 Tb320 2.292 . S
O319 C322 1.255 . S
Tb320 O319 2.292 . S
Tb320 O336 2.326 . S
Tb320 O338 2.500 . S
Tb320 O339 2.473 . S
Tb320 O342 2.324 . S
Eu321 O325 2.292 . S
Eu321 C326 2.852 . S
Eu321 O337 2.324 . S
Eu321 O341 2.326 . S
Eu321 O343 2.500 . S
Eu321 O344 2.473 . S
C322 O319 1.255 . S
C322 O323 1.247 . S
O323 C322 1.247 . S
C324 O336 1.242 . S
C324 O337 1.258 . S
O325 Eu321 2.292 . S
O325 C327 1.255 . S
C326 Eu321 2.852 . S
C326 C330 1.503 . S
C326 O343 1.273 . S
C326 O344 1.257 . S
C327 O325 1.255 . S
C327 O328 1.247 . S
O328 C327 1.247 . S
C329 O341 1.242 . S
C329 O342 1.258 . S
C330 C326 1.503 . S
C330 C331 1.379 . S
C330 C335 1.392 . S
C331 C330 1.379 . S
C331 C332 1.404 . S
C331 H345 0.929 . S
C332 C331 1.404 . S
C332 C333 1.389 . S
C333 C332 1.389 . S
C333 C334 1.399 . S
C333 H346 0.931 . S
C334 C333 1.399 . S
C334 C335 1.390 . S
C335 C330 1.392 . S
C335 C334 1.390 . S
C335 H347 0.929 . S
O336 Tb320 2.326 . S
O336 C324 1.242 . S
O337 Eu321 2.324 . S
O337 C324 1.258 . S
O338 Tb320 2.500 . S
O338 C340 1.273 . S
O339 Tb320 2.473 . S
O339 C340 1.257 . S
C340 O338 1.273 . S
C340 O339 1.257 . S
O341 Eu321 2.326 . S
O341 C329 1.242 . S
O342 Tb320 2.324 . S
O342 C329 1.258 . S
O343 Eu321 2.500 . S
O343 C326 1.273 . S
O344 Eu321 2.473 . S
O344 C326 1.257 . S
H345 C331 0.929 . S
H346 C333 0.931 . S
H347 C335 0.929 . S
O348 Tb349 2.292 . S
O348 C351 1.255 . S
Tb349 O348 2.292 . S
Tb349 O365 2.326 . S
Tb349 O367 2.500 . S
Tb349 O368 2.473 . S
Tb349 O371 2.324 . S
Eu350 O354 2.292 . S
Eu350 C355 2.852 . S
Eu350 O366 2.324 . S
Eu350 O370 2.326 . S
Eu350 O372 2.500 . S
Eu350 O373 2.473 . S
C351 O348 1.255 . S
C351 O352 1.247 . S
O352 C351 1.247 . S
C353 O365 1.242 . S
C353 O366 1.258 . S
O354 Eu350 2.292 . S
O354 C356 1.255 . S
C355 Eu350 2.852 . S
C355 C359 1.503 . S
C355 O372 1.273 . S
C355 O373 1.257 . S
C356 O354 1.255 . S
C356 O357 1.247 . S
O357 C356 1.247 . S
C358 O370 1.242 . S
C358 O371 1.258 . S
C359 C355 1.503 . S
C359 C360 1.379 . S
C359 C364 1.392 . S
C360 C359 1.379 . S
C360 C361 1.404 . S
C360 H374 0.929 . S
C361 C360 1.404 . S
C361 C362 1.389 . S
C362 C361 1.389 . S
C362 C363 1.399 . S
C362 H375 0.931 . S
C363 C362 1.399 . S
C363 C364 1.390 . S
C364 C359 1.392 . S
C364 C363 1.390 . S
C364 H376 0.929 . S
O365 Tb349 2.326 . S
O365 C353 1.242 . S
O366 Eu350 2.324 . S
O366 C353 1.258 . S
O367 Tb349 2.500 . S
O367 C369 1.273 . S
O368 Tb349 2.473 . S
O368 C369 1.257 . S
C369 O367 1.273 . S
C369 O368 1.257 . S
O370 Eu350 2.326 . S
O370 C358 1.242 . S
O371 Tb349 2.324 . S
O371 C358 1.258 . S
O372 Eu350 2.500 . S
O372 C355 1.273 . S
O373 Eu350 2.473 . S
O373 C355 1.257 . S
H374 C360 0.929 . S
H375 C362 0.931 . S
H376 C364 0.929 . S
O377 Tb378 2.292 . S
O377 C380 1.255 . S
Tb378 O377 2.292 . S
Tb378 O394 2.326 . S
Tb378 O396 2.500 . S
Tb378 O397 2.473 1_655 S
Tb378 O400 2.324 1_655 S
Eu379 O383 2.292 . S
Eu379 C384 2.852 . S
Eu379 O395 2.324 1_455 S
Eu379 O399 2.326 . S
Eu379 O401 2.500 . S
Eu379 O402 2.473 1_455 S
C380 O377 1.255 . S
C380 O381 1.247 . S
O381 C380 1.247 . S
C382 O394 1.242 . S
C382 O395 1.258 . S
O383 Eu379 2.292 . S
O383 C385 1.255 . S
C384 Eu379 2.852 . S
C384 C388 1.503 . S
C384 O401 1.273 . S
C384 O402 1.257 1_455 S
C385 O383 1.255 . S
C385 O386 1.247 . S
O386 C385 1.247 . S
C387 O399 1.242 . S
C387 O400 1.258 . S
C388 C384 1.503 . S
C388 C389 1.379 1_455 S
C388 C393 1.392 . S
C389 C388 1.379 1_655 S
C389 C390 1.404 . S
C389 H403 0.929 . S
C390 C389 1.404 . S
C390 C391 1.389 1_655 S
C391 C390 1.389 1_455 S
C391 C392 1.399 . S
C391 H404 0.931 . S
C392 C391 1.399 . S
C392 C393 1.390 . S
C393 C388 1.392 . S
C393 C392 1.390 . S
C393 H405 0.929 . S
O394 Tb378 2.326 . S
O394 C382 1.242 . S
O395 Eu379 2.324 1_655 S
O395 C382 1.258 . S
O396 Tb378 2.500 . S
O396 C398 1.273 . S
O397 Tb378 2.473 1_455 S
O397 C398 1.257 1_455 S
C398 O396 1.273 . S
C398 O397 1.257 1_655 S
O399 Eu379 2.326 . S
O399 C387 1.242 . S
O400 Tb378 2.324 1_455 S
O400 C387 1.258 . S
O401 Eu379 2.500 . S
O401 C384 1.273 . S
O402 Eu379 2.473 1_655 S
O402 C384 1.257 1_655 S
H403 C389 0.929 . S
H404 C391 0.931 . S
H405 C393 0.929 . S
O406 Tb407 2.292 . S
O406 C409 1.255 . S
Tb407 O406 2.292 . S
Tb407 O423 2.326 . S
Tb407 O425 2.500 . S
Tb407 O426 2.473 . S
Tb407 O429 2.324 . S
Eu408 O412 2.292 . S
Eu408 C413 2.852 . S
Eu408 O424 2.324 . S
Eu408 O428 2.326 . S
Eu408 O430 2.500 . S
Eu408 O431 2.473 . S
C409 O406 1.255 . S
C409 O410 1.247 . S
O410 C409 1.247 . S
C411 O423 1.242 . S
C411 O424 1.258 . S
O412 Eu408 2.292 . S
O412 C414 1.255 . S
C413 Eu408 2.852 . S
C413 C417 1.503 . S
C413 O430 1.273 . S
C413 O431 1.257 . S
C414 O412 1.255 . S
C414 O415 1.247 . S
O415 C414 1.247 . S
C416 O428 1.242 . S
C416 O429 1.258 . S
C417 C413 1.503 . S
C417 C418 1.379 . S
C417 C422 1.392 . S
C418 C417 1.379 . S
C418 C419 1.404 . S
C418 H432 0.929 . S
C419 C418 1.404 . S
C419 C420 1.389 . S
C420 C419 1.389 . S
C420 C421 1.399 . S
C420 H433 0.931 . S
C421 C420 1.399 . S
C421 C422 1.390 . S
C422 C417 1.392 . S
C422 C421 1.390 . S
C422 H434 0.929 . S
O423 Tb407 2.326 . S
O423 C411 1.242 . S
O424 Eu408 2.324 . S
O424 C411 1.258 . S
O425 Tb407 2.500 . S
O425 C427 1.273 . S
O426 Tb407 2.473 . S
O426 C427 1.257 . S
C427 O425 1.273 . S
C427 O426 1.257 . S
O428 Eu408 2.326 . S
O428 C416 1.242 . S
O429 Tb407 2.324 . S
O429 C416 1.258 . S
O430 Eu408 2.500 . S
O430 C413 1.273 . S
O431 Eu408 2.473 . S
O431 C413 1.257 . S
H432 C418 0.929 . S
H433 C420 0.931 . S
H434 C422 0.929 . S
O435 Tb436 2.292 . S
O435 C438 1.255 . S
Tb436 O435 2.292 . S
Tb436 O452 2.326 . S
Tb436 O454 2.500 . S
Tb436 O455 2.473 1_655 S
Tb436 O458 2.324 1_655 S
Eu437 O441 2.292 . S
Eu437 C442 2.852 . S
Eu437 O453 2.324 1_455 S
Eu437 O457 2.326 . S
Eu437 O459 2.500 . S
Eu437 O460 2.473 1_455 S
C438 O435 1.255 . S
C438 O439 1.247 . S
O439 C438 1.247 . S
C440 O452 1.242 . S
C440 O453 1.258 . S
O441 Eu437 2.292 . S
O441 C443 1.255 . S
C442 Eu437 2.852 . S
C442 C446 1.503 . S
C442 O459 1.273 . S
C442 O460 1.257 1_455 S
C443 O441 1.255 . S
C443 O444 1.247 . S
O444 C443 1.247 . S
C445 O457 1.242 . S
C445 O458 1.258 . S
C446 C442 1.503 . S
C446 C447 1.379 1_455 S
C446 C451 1.392 . S
C447 C446 1.379 1_655 S
C447 C448 1.404 . S
C447 H461 0.929 . S
C448 C447 1.404 . S
C448 C449 1.389 1_655 S
C449 C448 1.389 1_455 S
C449 C450 1.399 . S
C449 H462 0.931 . S
C450 C449 1.399 . S
C450 C451 1.390 . S
C451 C446 1.392 . S
C451 C450 1.390 . S
C451 H463 0.929 . S
O452 Tb436 2.326 . S
O452 C440 1.242 . S
O453 Eu437 2.324 1_655 S
O453 C440 1.258 . S
O454 Tb436 2.500 . S
O454 C456 1.273 . S
O455 Tb436 2.473 1_455 S
O455 C456 1.257 1_455 S
C456 O454 1.273 . S
C456 O455 1.257 1_655 S
O457 Eu437 2.326 . S
O457 C445 1.242 . S
O458 Tb436 2.324 1_455 S
O458 C445 1.258 . S
O459 Eu437 2.500 . S
O459 C442 1.273 . S
O460 Eu437 2.473 1_655 S
O460 C442 1.257 1_655 S
H461 C447 0.929 . S
H462 C449 0.931 . S
H463 C451 0.929 . S
H464 C470 0.930 1_545 S
H465 C474 0.930 1_565 S
H466 C479 0.929 . S
H467 C477 0.929 . S
H468 C472 0.929 . S
H469 C478 0.929 . S
C470 H464 0.930 1_565 S
C470 C471 1.367 . S
C470 C478 1.378 1_565 S
C471 C470 1.367 . S
C471 C479 1.433 . S
C472 H468 0.929 . S
C472 C474 1.378 1_565 S
C472 C476 1.350 1_565 S
C473 C476 1.463 1_566 S
C473 C478 1.350 1_565 S
C473 N481 1.427 . S
C474 H465 0.930 1_545 S
C474 C472 1.378 1_545 S
C474 C475 1.367 . S
C475 C474 1.367 . S
C475 C477 1.433 . S
C476 C472 1.350 1_545 S
C476 C473 1.463 1_544 S
C476 N480 1.427 . S
C477 H467 0.929 . S
C477 C475 1.433 . S
C477 N480 1.384 . S
C478 H469 0.929 . S
C478 C470 1.378 1_545 S
C478 C473 1.350 1_545 S
C479 H466 0.929 . S
C479 C471 1.433 . S
C479 N481 1.384 . S
N480 C476 1.427 . S
N480 C477 1.384 . S
N481 C473 1.427 . S
N481 C479 1.384 . S
H482 C488 0.930 . S
H483 C492 0.930 . S
H484 C497 0.929 . S
H485 C495 0.929 . S
H486 C490 0.929 . S
H487 C496 0.929 . S
C488 H482 0.930 . S
C488 C489 1.367 . S
C488 C496 1.378 . S
C489 C488 1.367 . S
C489 C497 1.433 . S
C490 H486 0.929 . S
C490 C492 1.378 . S
C490 C494 1.350 . S
C491 C494 1.463 . S
C491 C496 1.350 . S
C491 N499 1.427 . S
C492 H483 0.930 . S
C492 C490 1.378 . S
C492 C493 1.367 . S
C493 C492 1.367 . S
C493 C495 1.433 . S
C494 C490 1.350 . S
C494 C491 1.463 . S
C494 N498 1.427 . S
C495 H485 0.929 . S
C495 C493 1.433 . S
C495 N498 1.384 . S
C496 H487 0.929 . S
C496 C488 1.378 . S
C496 C491 1.350 . S
C497 H484 0.929 . S
C497 C489 1.433 . S
C497 N499 1.384 . S
N498 C494 1.427 . S
N498 C495 1.384 . S
N499 C491 1.427 . S
N499 C497 1.384 . S
H500 C506 0.930 . S
H501 C510 0.930 . S
H502 C515 0.929 1_565 S
H503 C513 0.929 1_545 S
H504 C508 0.929 . S
H505 C514 0.929 . S
C506 H500 0.930 . S
C506 C507 1.367 . S
C506 C514 1.378 . S
C507 C506 1.367 . S
C507 C515 1.433 . S
C508 H504 0.929 . S
C508 C510 1.378 . S
C508 C512 1.350 . S
C509 C512 1.463 1_545 S
C509 C514 1.350 . S
C509 N517 1.427 1_545 S
C510 H501 0.930 . S
C510 C508 1.378 . S
C510 C511 1.367 . S
C511 C510 1.367 . S
C511 C513 1.433 . S
C512 C508 1.350 . S
C512 C509 1.463 1_565 S
C512 N516 1.427 1_565 S
C513 H503 0.929 1_565 S
C513 C511 1.433 . S
C513 N516 1.384 1_565 S
C514 H505 0.929 . S
C514 C506 1.378 . S
C514 C509 1.350 . S
C515 H502 0.929 1_545 S
C515 C507 1.433 . S
C515 N517 1.384 1_545 S
N516 C512 1.427 1_545 S
N516 C513 1.384 1_545 S
N517 C509 1.427 1_565 S
N517 C515 1.384 1_565 S
H518 C524 0.930 . S
H519 C528 0.930 . S
H520 C533 0.929 . S
H521 C531 0.929 . S
H522 C526 0.929 . S
H523 C532 0.929 . S
C524 H518 0.930 . S
C524 C525 1.367 . S
C524 C532 1.378 . S
C525 C524 1.367 . S
C525 C533 1.433 . S
C526 H522 0.929 . S
C526 C528 1.378 . S
C526 C530 1.350 . S
C527 C530 1.463 . S
C527 C532 1.350 . S
C527 N535 1.427 . S
C528 H519 0.930 . S
C528 C526 1.378 . S
C528 C529 1.367 . S
C529 C528 1.367 . S
C529 C531 1.433 . S
C530 C526 1.350 . S
C530 C527 1.463 . S
C530 N534 1.427 . S
C531 H521 0.929 . S
C531 C529 1.433 . S
C531 N534 1.384 . S
C532 H523 0.929 . S
C532 C524 1.378 . S
C532 C527 1.350 . S
C533 H520 0.929 . S
C533 C525 1.433 . S
C533 N535 1.384 . S
N534 C530 1.427 . S
N534 C531 1.384 . S
N535 C527 1.427 . S
N535 C533 1.384 . S
H536 C542 0.930 . S
H537 C546 0.930 . S
H538 C551 0.929 . S
H539 C549 0.929 . S
H540 C544 0.929 . S
H541 C550 0.929 . S
C542 H536 0.930 . S
C542 C543 1.367 . S
C542 C550 1.378 . S
C543 C542 1.367 . S
C543 C551 1.433 . S
C544 H540 0.929 . S
C544 C546 1.378 . S
C544 C548 1.350 . S
C545 C548 1.463 . S
C545 C550 1.350 . S
C545 N553 1.427 . S
C546 H537 0.930 . S
C546 C544 1.378 . S
C546 C547 1.367 . S
C547 C546 1.367 . S
C547 C549 1.433 . S
C548 C544 1.350 . S
C548 C545 1.463 . S
C548 N552 1.427 . S
C549 H539 0.929 . S
C549 C547 1.433 . S
C549 N552 1.384 . S
C550 H541 0.929 . S
C550 C542 1.378 . S
C550 C545 1.350 . S
C551 H538 0.929 . S
C551 C543 1.433 . S
C551 N553 1.384 . S
N552 C548 1.427 . S
N552 C549 1.384 . S
N553 C545 1.427 . S
N553 C551 1.384 . S
H554 C560 0.930 . S
H555 C564 0.930 . S
H556 C569 0.929 . S
H557 C567 0.929 . S
H558 C562 0.929 . S
H559 C568 0.929 . S
C560 H554 0.930 . S
C560 C561 1.367 . S
C560 C568 1.378 . S
C561 C560 1.367 . S
C561 C569 1.433 . S
C562 H558 0.929 . S
C562 C564 1.378 . S
C562 C566 1.350 . S
C563 C566 1.463 . S
C563 C568 1.350 . S
C563 N571 1.427 . S
C564 H555 0.930 . S
C564 C562 1.378 . S
C564 C565 1.367 . S
C565 C564 1.367 . S
C565 C567 1.433 . S
C566 C562 1.350 . S
C566 C563 1.463 . S
C566 N570 1.427 . S
C567 H557 0.929 . S
C567 C565 1.433 . S
C567 N570 1.384 . S
C568 H559 0.929 . S
C568 C560 1.378 . S
C568 C563 1.350 . S
C569 H556 0.929 . S
C569 C561 1.433 . S
C569 N571 1.384 . S
N570 C566 1.427 . S
N570 C567 1.384 . S
N571 C563 1.427 . S
N571 C569 1.384 . S
H572 C578 0.930 . S
H573 C582 0.930 . S
H574 C587 0.929 . S
H575 C585 0.929 . S
H576 C580 0.929 . S
H577 C586 0.929 . S
C578 H572 0.930 . S
C578 C579 1.367 . S
C578 C586 1.378 . S
C579 C578 1.367 . S
C579 C587 1.433 . S
C580 H576 0.929 . S
C580 C582 1.378 . S
C580 C584 1.350 . S
C581 C584 1.463 . S
C581 C586 1.350 . S
C581 N589 1.427 . S
C582 H573 0.930 . S
C582 C580 1.378 . S
C582 C583 1.367 . S
C583 C582 1.367 . S
C583 C585 1.433 . S
C584 C580 1.350 . S
C584 C581 1.463 . S
C584 N588 1.427 . S
C585 H575 0.929 . S
C585 C583 1.433 . S
C585 N588 1.384 . S
C586 H577 0.929 . S
C586 C578 1.378 . S
C586 C581 1.350 . S
C587 H574 0.929 . S
C587 C579 1.433 . S
C587 N589 1.384 . S
N588 C584 1.427 . S
N588 C585 1.384 . S
N589 C581 1.427 . S
N589 C587 1.384 . S
H590 C596 0.930 1_455 S
H591 C600 0.930 . S
H592 C605 0.929 . S
H593 C603 0.929 1_455 S
H594 C598 0.929 1_554 S
H595 C604 0.929 1_456 S
C596 H590 0.930 1_655 S
C596 C597 1.367 . S
C596 C604 1.378 . S
C597 C596 1.367 . S
C597 C605 1.433 . S
C598 H594 0.929 1_556 S
C598 C600 1.378 . S
C598 C602 1.350 . S
C599 C602 1.463 1_554 S
C599 C604 1.350 . S
C599 N607 1.427 . S
C600 H591 0.930 . S
C600 C598 1.378 . S
C600 C601 1.367 . S
C601 C600 1.367 . S
C601 C603 1.433 . S
C602 C598 1.350 . S
C602 C599 1.463 1_556 S
C602 N606 1.427 . S
C603 H593 0.929 1_655 S
C603 C601 1.433 . S
C603 N606 1.384 . S
C604 H595 0.929 1_654 S
C604 C596 1.378 . S
C604 C599 1.350 . S
C605 H592 0.929 . S
C605 C597 1.433 . S
C605 N607 1.384 . S
N606 C602 1.427 . S
N606 C603 1.384 . S
N607 C599 1.427 . S
N607 C605 1.384 . S
H608 C614 0.930 . S
H609 C618 0.930 . S
H610 C623 0.929 . S
H611 C621 0.929 . S
H612 C616 0.929 . S
H613 C622 0.929 . S
C614 H608 0.930 . S
C614 C615 1.367 . S
C614 C622 1.378 . S
C615 C614 1.367 . S
C615 C623 1.433 . S
C616 H612 0.929 . S
C616 C618 1.378 . S
C616 C620 1.350 . S
C617 C620 1.463 . S
C617 C622 1.350 . S
C617 N625 1.427 . S
C618 H609 0.930 . S
C618 C616 1.378 . S
C618 C619 1.367 . S
C619 C618 1.367 . S
C619 C621 1.433 . S
C620 C616 1.350 . S
C620 C617 1.463 . S
C620 N624 1.427 . S
C621 H611 0.929 . S
C621 C619 1.433 . S
C621 N624 1.384 . S
C622 H613 0.929 . S
C622 C614 1.378 . S
C622 C617 1.350 . S
C623 H610 0.929 . S
C623 C615 1.433 . S
C623 N625 1.384 . S
N624 C620 1.427 . S
N624 C621 1.384 . S
N625 C617 1.427 . S
N625 C623 1.384 . S
H626 C632 0.930 . S
H627 C636 0.930 . S
H628 C641 0.929 . S
H629 C639 0.929 . S
H630 C634 0.929 . S
H631 C640 0.929 . S
C632 H626 0.930 . S
C632 C633 1.367 . S
C632 C640 1.378 . S
C633 C632 1.367 . S
C633 C641 1.433 . S
C634 H630 0.929 . S
C634 C636 1.378 . S
C634 C638 1.350 . S
C635 C638 1.463 . S
C635 C640 1.350 . S
C635 N643 1.427 . S
C636 H627 0.930 . S
C636 C634 1.378 . S
C636 C637 1.367 . S
C637 C636 1.367 . S
C637 C639 1.433 . S
C638 C634 1.350 . S
C638 C635 1.463 . S
C638 N642 1.427 . S
C639 H629 0.929 . S
C639 C637 1.433 . S
C639 N642 1.384 . S
C640 H631 0.929 . S
C640 C632 1.378 . S
C640 C635 1.350 . S
C641 H628 0.929 . S
C641 C633 1.433 . S
C641 N643 1.384 . S
N642 C638 1.427 . S
N642 C639 1.384 . S
N643 C635 1.427 . S
N643 C641 1.384 . S
H644 C650 0.930 . S
H645 C654 0.930 . S
H646 C659 0.929 . S
H647 C657 0.929 . S
H648 C652 0.929 . S
H649 C658 0.929 . S
C650 H644 0.930 . S
C650 C651 1.367 . S
C650 C658 1.378 . S
C651 C650 1.367 . S
C651 C659 1.433 . S
C652 H648 0.929 . S
C652 C654 1.378 . S
C652 C656 1.350 . S
C653 C656 1.463 . S
C653 C658 1.350 . S
C653 N661 1.427 . S
C654 H645 0.930 . S
C654 C652 1.378 . S
C654 C655 1.367 . S
C655 C654 1.367 . S
C655 C657 1.433 . S
C656 C652 1.350 . S
C656 C653 1.463 . S
C656 N660 1.427 . S
C657 H647 0.929 . S
C657 C655 1.433 . S
C657 N660 1.384 . S
C658 H649 0.929 . S
C658 C650 1.378 . S
C658 C653 1.350 . S
C659 H646 0.929 . S
C659 C651 1.433 . S
C659 N661 1.384 . S
N660 C656 1.427 . S
N660 C657 1.384 . S
N661 C653 1.427 . S
N661 C659 1.384 . S
H662 C668 0.930 . S
H663 C672 0.930 . S
H664 C677 0.929 . S
H665 C675 0.929 . S
H666 C670 0.929 . S
H667 C676 0.929 . S
C668 H662 0.930 . S
C668 C669 1.367 . S
C668 C676 1.378 . S
C669 C668 1.367 . S
C669 C677 1.433 . S
C670 H666 0.929 . S
C670 C672 1.378 . S
C670 C674 1.350 . S
C671 C674 1.463 . S
C671 C676 1.350 . S
C671 N679 1.427 . S
C672 H663 0.930 . S
C672 C670 1.378 . S
C672 C673 1.367 . S
C673 C672 1.367 . S
C673 C675 1.433 . S
C674 C670 1.350 . S
C674 C671 1.463 . S
C674 N678 1.427 . S
C675 H665 0.929 . S
C675 C673 1.433 . S
C675 N678 1.384 . S
C676 H667 0.929 . S
C676 C668 1.378 . S
C676 C671 1.350 . S
C677 H664 0.929 . S
C677 C669 1.433 . S
C677 N679 1.384 . S
N678 C674 1.427 . S
N678 C675 1.384 . S
N679 C671 1.427 . S
N679 C677 1.384 . S
H680 C686 0.930 . S
H681 C690 0.930 . S
H682 C695 0.929 . S
H683 C693 0.929 . S
H684 C688 0.929 . S
H685 C694 0.929 . S
C686 H680 0.930 . S
C686 C687 1.367 . S
C686 C694 1.378 . S
C687 C686 1.367 . S
C687 C695 1.433 . S
C688 H684 0.929 . S
C688 C690 1.378 . S
C688 C692 1.350 . S
C689 C692 1.463 . S
C689 C694 1.350 . S
C689 N697 1.427 . S
C690 H681 0.930 . S
C690 C688 1.378 . S
C690 C691 1.367 . S
C691 C690 1.367 . S
C691 C693 1.433 . S
C692 C688 1.350 . S
C692 C689 1.463 . S
C692 N696 1.427 . S
C693 H683 0.929 . S
C693 C691 1.433 . S
C693 N696 1.384 . S
C694 H685 0.929 . S
C694 C686 1.378 . S
C694 C689 1.350 . S
C695 H682 0.929 . S
C695 C687 1.433 . S
C695 N697 1.384 . S
N696 C692 1.427 . S
N696 C693 1.384 . S
N697 C689 1.427 . S
N697 C695 1.384 . S
H698 C704 0.930 . S
H699 C708 0.930 . S
H700 C713 0.929 1_545 S
H701 C711 0.929 . S
H702 C706 0.929 . S
H703 C712 0.929 . S
C704 H698 0.930 . S
C704 C705 1.367 . S
C704 C712 1.378 . S
C705 C704 1.367 . S
C705 C713 1.433 . S
C706 H702 0.929 . S
C706 C708 1.378 . S
C706 C710 1.350 . S
C707 C710 1.463 . S
C707 C712 1.350 . S
C707 N715 1.427 . S
C708 H699 0.930 . S
C708 C706 1.378 . S
C708 C709 1.367 . S
C709 C708 1.367 . S
C709 C711 1.433 . S
C710 C706 1.350 . S
C710 C707 1.463 . S
C710 N714 1.427 . S
C711 H701 0.929 . S
C711 C709 1.433 . S
C711 N714 1.384 . S
C712 H703 0.929 . S
C712 C704 1.378 . S
C712 C707 1.350 . S
C713 H700 0.929 1_565 S
C713 C705 1.433 . S
C713 N715 1.384 . S
N714 C710 1.427 . S
N714 C711 1.384 . S
N715 C707 1.427 . S
N715 C713 1.384 . S
H716 C722 0.930 . S
H717 C726 0.930 . S
H718 C731 0.929 . S
H719 C729 0.929 . S
H720 C724 0.929 . S
H721 C730 0.929 . S
C722 H716 0.930 . S
C722 C723 1.367 . S
C722 C730 1.378 . S
C723 C722 1.367 . S
C723 C731 1.433 . S
C724 H720 0.929 . S
C724 C726 1.378 . S
C724 C728 1.350 . S
C725 C728 1.463 . S
C725 C730 1.350 . S
C725 N733 1.427 . S
C726 H717 0.930 . S
C726 C724 1.378 . S
C726 C727 1.367 . S
C727 C726 1.367 . S
C727 C729 1.433 . S
C728 C724 1.350 . S
C728 C725 1.463 . S
C728 N732 1.427 . S
C729 H719 0.929 . S
C729 C727 1.433 . S
C729 N732 1.384 . S
C730 H721 0.929 . S
C730 C722 1.378 . S
C730 C725 1.350 . S
C731 H718 0.929 . S
C731 C723 1.433 . S
C731 N733 1.384 . S
N732 C728 1.427 . S
N732 C729 1.384 . S
N733 C725 1.427 . S
N733 C731 1.384 . S
H734 C740 0.930 . S
H735 C744 0.930 . S
H736 C749 0.929 1_565 S
H737 C747 0.929 . S
H738 C742 0.929 . S
H739 C748 0.929 . S
C740 H734 0.930 . S
C740 C741 1.367 . S
C740 C748 1.378 . S
C741 C740 1.367 . S
C741 C749 1.433 . S
C742 H738 0.929 . S
C742 C744 1.378 . S
C742 C746 1.350 . S
C743 C746 1.463 . S
C743 C748 1.350 . S
C743 N751 1.427 . S
C744 H735 0.930 . S
C744 C742 1.378 . S
C744 C745 1.367 . S
C745 C744 1.367 . S
C745 C747 1.433 . S
C746 C742 1.350 . S
C746 C743 1.463 . S
C746 N750 1.427 . S
C747 H737 0.929 . S
C747 C745 1.433 . S
C747 N750 1.384 . S
C748 H739 0.929 . S
C748 C740 1.378 . S
C748 C743 1.350 . S
C749 H736 0.929 1_545 S
C749 C741 1.433 . S
C749 N751 1.384 . S
N750 C746 1.427 . S
N750 C747 1.384 . S
N751 C743 1.427 . S
N751 C749 1.384 . S
H752 C758 0.930 . S
H753 C762 0.930 . S
H754 C767 0.929 . S
H755 C765 0.929 . S
H756 C760 0.929 . S
H757 C766 0.929 . S
C758 H752 0.930 . S
C758 C759 1.367 . S
C758 C766 1.378 . S
C759 C758 1.367 . S
C759 C767 1.433 . S
C760 H756 0.929 . S
C760 C762 1.378 . S
C760 C764 1.350 . S
C761 C764 1.463 . S
C761 C766 1.350 . S
C761 N769 1.427 . S
C762 H753 0.930 . S
C762 C760 1.378 . S
C762 C763 1.367 . S
C763 C762 1.367 . S
C763 C765 1.433 . S
C764 C760 1.350 . S
C764 C761 1.463 . S
C764 N768 1.427 . S
C765 H755 0.929 . S
C765 C763 1.433 . S
C765 N768 1.384 . S
C766 H757 0.929 . S
C766 C758 1.378 . S
C766 C761 1.350 . S
C767 H754 0.929 . S
C767 C759 1.433 . S
C767 N769 1.384 . S
N768 C764 1.427 . S
N768 C765 1.384 . S
N769 C761 1.427 . S
N769 C767 1.384 . S
H770 C776 0.930 . S
H771 C780 0.930 1_565 S
H772 C785 0.929 . S
H773 C783 0.929 . S
H774 C778 0.929 . S
H775 C784 0.929 . S
C776 H770 0.930 . S
C776 C777 1.367 . S
C776 C784 1.378 . S
C777 C776 1.367 . S
C777 C785 1.433 . S
C778 H774 0.929 . S
C778 C780 1.378 . S
C778 C782 1.350 . S
C779 C782 1.463 . S
C779 C784 1.350 . S
C779 N787 1.427 . S
C780 H771 0.930 1_545 S
C780 C778 1.378 . S
C780 C781 1.367 1_545 S
C781 C780 1.367 1_565 S
C781 C783 1.433 . S
C782 C778 1.350 . S
C782 C779 1.463 . S
C782 N786 1.427 . S
C783 H773 0.929 . S
C783 C781 1.433 . S
C783 N786 1.384 1_565 S
C784 H775 0.929 . S
C784 C776 1.378 . S
C784 C779 1.350 . S
C785 H772 0.929 . S
C785 C777 1.433 . S
C785 N787 1.384 . S
N786 C782 1.427 . S
N786 C783 1.384 1_545 S
N787 C779 1.427 . S
N787 C785 1.384 . S
H788 C794 0.930 . S
H789 C798 0.930 . S
H790 C803 0.929 . S
H791 C801 0.929 . S
H792 C796 0.929 . S
H793 C802 0.929 . S
C794 H788 0.930 . S
C794 C795 1.367 . S
C794 C802 1.378 . S
C795 C794 1.367 . S
C795 C803 1.433 . S
C796 H792 0.929 . S
C796 C798 1.378 . S
C796 C800 1.350 . S
C797 C800 1.463 . S
C797 C802 1.350 . S
C797 N805 1.427 . S
C798 H789 0.930 . S
C798 C796 1.378 . S
C798 C799 1.367 . S
C799 C798 1.367 . S
C799 C801 1.433 . S
C800 C796 1.350 . S
C800 C797 1.463 . S
C800 N804 1.427 . S
C801 H791 0.929 . S
C801 C799 1.433 . S
C801 N804 1.384 . S
C802 H793 0.929 . S
C802 C794 1.378 . S
C802 C797 1.350 . S
C803 H790 0.929 . S
C803 C795 1.433 . S
C803 N805 1.384 . S
N804 C800 1.427 . S
N804 C801 1.384 . S
N805 C797 1.427 . S
N805 C803 1.384 . S
H806 C812 0.930 . S
H807 C816 0.930 . S
H808 C821 0.929 . S
H809 C819 0.929 . S
H810 C814 0.929 . S
H811 C820 0.929 . S
C812 H806 0.930 . S
C812 C813 1.367 . S
C812 C820 1.378 . S
C813 C812 1.367 . S
C813 C821 1.433 . S
C814 H810 0.929 . S
C814 C816 1.378 . S
C814 C818 1.350 . S
C815 C818 1.463 . S
C815 C820 1.350 . S
C815 N823 1.427 . S
C816 H807 0.930 . S
C816 C814 1.378 . S
C816 C817 1.367 1_565 S
C817 C816 1.367 1_545 S
C817 C819 1.433 . S
C818 C814 1.350 . S
C818 C815 1.463 . S
C818 N822 1.427 . S
C819 H809 0.929 . S
C819 C817 1.433 . S
C819 N822 1.384 1_545 S
C820 H811 0.929 . S
C820 C812 1.378 . S
C820 C815 1.350 . S
C821 H808 0.929 . S
C821 C813 1.433 . S
C821 N823 1.384 . S
N822 C818 1.427 . S
N822 C819 1.384 1_565 S
N823 C815 1.427 . S
N823 C821 1.384 . S
H824 C830 0.930 . S
H825 C834 0.930 . S
H826 C839 0.929 . S
H827 C837 0.929 . S
H828 C832 0.929 . S
H829 C838 0.929 . S
C830 H824 0.930 . S
C830 C831 1.367 . S
C830 C838 1.378 . S
C831 C830 1.367 . S
C831 C839 1.433 . S
C832 H828 0.929 . S
C832 C834 1.378 . S
C832 C836 1.350 . S
C833 C836 1.463 . S
C833 C838 1.350 . S
C833 N841 1.427 . S
C834 H825 0.930 . S
C834 C832 1.378 . S
C834 C835 1.367 . S
C835 C834 1.367 . S
C835 C837 1.433 . S
C836 C832 1.350 . S
C836 C833 1.463 . S
C836 N840 1.427 . S
C837 H827 0.929 . S
C837 C835 1.433 . S
C837 N840 1.384 . S
C838 H829 0.929 . S
C838 C830 1.378 . S
C838 C833 1.350 . S
C839 H826 0.929 . S
C839 C831 1.433 . S
C839 N841 1.384 . S
N840 C836 1.427 . S
N840 C837 1.384 . S
N841 C833 1.427 . S
N841 C839 1.384 . S
H842 C848 0.930 . S
H843 C852 0.930 . S
H844 C857 0.929 . S
H845 C855 0.929 . S
H846 C850 0.929 . S
H847 C856 0.929 . S
C848 H842 0.930 . S
C848 C849 1.367 1_545 S
C848 C856 1.378 . S
C849 C848 1.367 1_565 S
C849 C857 1.433 . S
C850 H846 0.929 . S
C850 C852 1.378 . S
C850 C854 1.350 . S
C851 C854 1.463 . S
C851 C856 1.350 . S
C851 N859 1.427 . S
C852 H843 0.930 . S
C852 C850 1.378 . S
C852 C853 1.367 . S
C853 C852 1.367 . S
C853 C855 1.433 . S
C854 C850 1.350 . S
C854 C851 1.463 . S
C854 N858 1.427 . S
C855 H845 0.929 . S
C855 C853 1.433 . S
C855 N858 1.384 . S
C856 H847 0.929 . S
C856 C848 1.378 . S
C856 C851 1.350 . S
C857 H844 0.929 . S
C857 C849 1.433 . S
C857 N859 1.384 1_565 S
N858 C854 1.427 . S
N858 C855 1.384 . S
N859 C851 1.427 . S
N859 C857 1.384 1_545 S
H860 C866 0.930 . S
H861 C870 0.930 . S
H862 C875 0.929 . S
H863 C873 0.929 . S
H864 C868 0.929 . S
H865 C874 0.929 . S
C866 H860 0.930 . S
C866 C867 1.367 . S
C866 C874 1.378 . S
C867 C866 1.367 . S
C867 C875 1.433 . S
C868 H864 0.929 . S
C868 C870 1.378 . S
C868 C872 1.350 . S
C869 C872 1.463 . S
C869 C874 1.350 . S
C869 N877 1.427 . S
C870 H861 0.930 . S
C870 C868 1.378 . S
C870 C871 1.367 . S
C871 C870 1.367 . S
C871 C873 1.433 . S
C872 C868 1.350 . S
C872 C869 1.463 . S
C872 N876 1.427 . S
C873 H863 0.929 . S
C873 C871 1.433 . S
C873 N876 1.384 . S
C874 H865 0.929 . S
C874 C866 1.378 . S
C874 C869 1.350 . S
C875 H862 0.929 . S
C875 C867 1.433 . S
C875 N877 1.384 . S
N876 C872 1.427 . S
N876 C873 1.384 . S
N877 C869 1.427 . S
N877 C875 1.384 . S
H878 C884 0.930 . S
H879 C888 0.930 . S
H880 C893 0.929 . S
H881 C891 0.929 . S
H882 C886 0.929 . S
H883 C892 0.929 . S
C884 H878 0.930 . S
C884 C885 1.367 1_565 S
C884 C892 1.378 . S
C885 C884 1.367 1_545 S
C885 C893 1.433 . S
C886 H882 0.929 . S
C886 C888 1.378 . S
C886 C890 1.350 . S
C887 C890 1.463 . S
C887 C892 1.350 . S
C887 N895 1.427 . S
C888 H879 0.930 . S
C888 C886 1.378 . S
C888 C889 1.367 . S
C889 C888 1.367 . S
C889 C891 1.433 . S
C890 C886 1.350 . S
C890 C887 1.463 . S
C890 N894 1.427 . S
C891 H881 0.929 . S
C891 C889 1.433 . S
C891 N894 1.384 . S
C892 H883 0.929 . S
C892 C884 1.378 . S
C892 C887 1.350 . S
C893 H880 0.929 . S
C893 C885 1.433 . S
C893 N895 1.384 1_545 S
N894 C890 1.427 . S
N894 C891 1.384 . S
N895 C887 1.427 . S
N895 C893 1.384 1_565 S
H896 C902 0.930 . S
H897 C906 0.930 . S
H898 C911 0.929 . S
H899 C909 0.929 . S
H900 C904 0.929 . S
H901 C910 0.929 . S
C902 H896 0.930 . S
C902 C903 1.367 . S
C902 C910 1.378 . S
C903 C902 1.367 . S
C903 C911 1.433 . S
C904 H900 0.929 . S
C904 C906 1.378 . S
C904 C908 1.350 . S
C905 C908 1.463 . S
C905 C910 1.350 . S
C905 N913 1.427 . S
C906 H897 0.930 . S
C906 C904 1.378 . S
C906 C907 1.367 . S
C907 C906 1.367 . S
C907 C909 1.433 . S
C908 C904 1.350 . S
C908 C905 1.463 . S
C908 N912 1.427 . S
C909 H899 0.929 . S
C909 C907 1.433 . S
C909 N912 1.384 . S
C910 H901 0.929 . S
C910 C902 1.378 . S
C910 C905 1.350 . S
C911 H898 0.929 . S
C911 C903 1.433 . S
C911 N913 1.384 . S
N912 C908 1.427 . S
N912 C909 1.384 . S
N913 C905 1.427 . S
N913 C911 1.384 . S
H914 C920 0.930 . S
H915 C924 0.930 . S
H916 C929 0.929 . S
H917 C927 0.929 . S
H918 C922 0.929 . S
H919 C928 0.929 . S
C920 H914 0.930 . S
C920 C921 1.367 . S
C920 C928 1.378 . S
C921 C920 1.367 . S
C921 C929 1.433 . S
C922 H918 0.929 . S
C922 C924 1.378 . S
C922 C926 1.350 . S
C923 C926 1.463 . S
C923 C928 1.350 . S
C923 N931 1.427 . S
C924 H915 0.930 . S
C924 C922 1.378 . S
C924 C925 1.367 . S
C925 C924 1.367 . S
C925 C927 1.433 . S
C926 C922 1.350 . S
C926 C923 1.463 . S
C926 N930 1.427 . S
C927 H917 0.929 . S
C927 C925 1.433 . S
C927 N930 1.384 . S
C928 H919 0.929 . S
C928 C920 1.378 . S
C928 C923 1.350 . S
C929 H916 0.929 . S
C929 C921 1.433 . S
C929 N931 1.384 . S
N930 C926 1.427 . S
N930 C927 1.384 . S
N931 C923 1.427 . S
N931 C929 1.384 . S
H932 C938 0.930 . S
H933 C942 0.930 . S
H934 C947 0.929 . S
H935 C945 0.929 . S
H936 C940 0.929 . S
H937 C946 0.929 . S
C938 H932 0.930 . S
C938 C939 1.367 . S
C938 C946 1.378 . S
C939 C938 1.367 . S
C939 C947 1.433 . S
C940 H936 0.929 . S
C940 C942 1.378 . S
C940 C944 1.350 . S
C941 C944 1.463 . S
C941 C946 1.350 . S
C941 N949 1.427 . S
C942 H933 0.930 . S
C942 C940 1.378 . S
C942 C943 1.367 . S
C943 C942 1.367 . S
C943 C945 1.433 . S
C944 C940 1.350 . S
C944 C941 1.463 . S
C944 N948 1.427 . S
C945 H935 0.929 . S
C945 C943 1.433 . S
C945 N948 1.384 . S
C946 H937 0.929 . S
C946 C938 1.378 . S
C946 C941 1.350 . S
C947 H934 0.929 . S
C947 C939 1.433 . S
C947 N949 1.384 . S
N948 C944 1.427 . S
N948 C945 1.384 . S
N949 C941 1.427 . S
N949 C947 1.384 . S
H950 C956 0.930 . S
H951 C960 0.930 . S
H952 C965 0.929 . S
H953 C963 0.929 . S
H954 C958 0.929 . S
H955 C964 0.929 . S
C956 H950 0.930 . S
C956 C957 1.367 . S
C956 C964 1.378 . S
C957 C956 1.367 . S
C957 C965 1.433 . S
C958 H954 0.929 . S
C958 C960 1.378 . S
C958 C962 1.350 . S
C959 C962 1.463 . S
C959 C964 1.350 . S
C959 N967 1.427 . S
C960 H951 0.930 . S
C960 C958 1.378 . S
C960 C961 1.367 . S
C961 C960 1.367 . S
C961 C963 1.433 . S
C962 C958 1.350 . S
C962 C959 1.463 . S
C962 N966 1.427 . S
C963 H953 0.929 . S
C963 C961 1.433 . S
C963 N966 1.384 . S
C964 H955 0.929 . S
C964 C956 1.378 . S
C964 C959 1.350 . S
C965 H952 0.929 . S
C965 C957 1.433 . S
C965 N967 1.384 . S
N966 C962 1.427 . S
N966 C963 1.384 . S
N967 C959 1.427 . S
N967 C965 1.384 . S
H968 C974 0.930 . S
H969 C978 0.930 . S
H970 C983 0.929 . S
H971 C981 0.929 . S
H972 C976 0.929 . S
H973 C982 0.929 . S
C974 H968 0.930 . S
C974 C975 1.367 . S
C974 C982 1.378 . S
C975 C974 1.367 . S
C975 C983 1.433 . S
C976 H972 0.929 . S
C976 C978 1.378 . S
C976 C980 1.350 . S
C977 C980 1.463 . S
C977 C982 1.350 . S
C977 N985 1.427 . S
C978 H969 0.930 . S
C978 C976 1.378 . S
C978 C979 1.367 . S
C979 C978 1.367 . S
C979 C981 1.433 . S
C980 C976 1.350 . S
C980 C977 1.463 . S
C980 N984 1.427 . S
C981 H971 0.929 . S
C981 C979 1.433 . S
C981 N984 1.384 . S
C982 H973 0.929 . S
C982 C974 1.378 . S
C982 C977 1.350 . S
C983 H970 0.929 . S
C983 C975 1.433 . S
C983 N985 1.384 . S
N984 C980 1.427 . S
N984 C981 1.384 . S
N985 C977 1.427 . S
N985 C983 1.384 . S
H986 C992 0.930 . S
H987 C996 0.930 . S
H988 C1001 0.929 . S
H989 C999 0.929 . S
H990 C994 0.929 . S
H991 C1000 0.929 . S
C992 H986 0.930 . S
C992 C993 1.367 . S
C992 C1000 1.378 . S
C993 C992 1.367 . S
C993 C1001 1.433 . S
C994 H990 0.929 . S
C994 C996 1.378 . S
C994 C998 1.350 . S
C995 C998 1.463 . S
C995 C1000 1.350 . S
C995 N1003 1.427 . S
C996 H987 0.930 . S
C996 C994 1.378 . S
C996 C997 1.367 . S
C997 C996 1.367 . S
C997 C999 1.433 . S
C998 C994 1.350 . S
C998 C995 1.463 . S
C998 N1002 1.427 . S
C999 H989 0.929 . S
C999 C997 1.433 . S
C999 N1002 1.384 . S
C1000 H991 0.929 . S
C1000 C992 1.378 . S
C1000 C995 1.350 . S
C1001 H988 0.929 . S
C1001 C993 1.433 . S
C1001 N1003 1.384 . S
N1002 C998 1.427 . S
N1002 C999 1.384 . S
N1003 C995 1.427 . S
N1003 C1001 1.384 . S
H1004 C1010 0.930 . S
H1005 C1014 0.930 . S
H1006 C1019 0.929 . S
H1007 C1017 0.929 . S
H1008 C1012 0.929 . S
H1009 C1018 0.929 . S
C1010 H1004 0.930 . S
C1010 C1011 1.367 . S
C1010 C1018 1.378 . S
C1011 C1010 1.367 . S
C1011 C1019 1.433 . S
C1012 H1008 0.929 . S
C1012 C1014 1.378 . S
C1012 C1016 1.350 . S
C1013 C1016 1.463 . S
C1013 C1018 1.350 . S
C1013 N1021 1.427 . S
C1014 H1005 0.930 . S
C1014 C1012 1.378 . S
C1014 C1015 1.367 . S
C1015 C1014 1.367 . S
C1015 C1017 1.433 . S
C1016 C1012 1.350 . S
C1016 C1013 1.463 . S
C1016 N1020 1.427 . S
C1017 H1007 0.929 . S
C1017 C1015 1.433 . S
C1017 N1020 1.384 . S
C1018 H1009 0.929 . S
C1018 C1010 1.378 . S
C1018 C1013 1.350 . S
C1019 H1006 0.929 . S
C1019 C1011 1.433 . S
C1019 N1021 1.384 . S
N1020 C1016 1.427 . S
N1020 C1017 1.384 . S
N1021 C1013 1.427 . S
N1021 C1019 1.384 . S
H1022 C1028 0.930 . S
H1023 C1032 0.930 . S
H1024 C1037 0.929 . S
H1025 C1035 0.929 . S
H1026 C1030 0.929 . S
H1027 C1036 0.929 . S
C1028 H1022 0.930 . S
C1028 C1029 1.367 . S
C1028 C1036 1.378 . S
C1029 C1028 1.367 . S
C1029 C1037 1.433 . S
C1030 H1026 0.929 . S
C1030 C1032 1.378 . S
C1030 C1034 1.350 . S
C1031 C1034 1.463 . S
C1031 C1036 1.350 . S
C1031 N1039 1.427 . S
C1032 H1023 0.930 . S
C1032 C1030 1.378 . S
C1032 C1033 1.367 . S
C1033 C1032 1.367 . S
C1033 C1035 1.433 . S
C1034 C1030 1.350 . S
C1034 C1031 1.463 . S
C1034 N1038 1.427 . S
C1035 H1025 0.929 . S
C1035 C1033 1.433 . S
C1035 N1038 1.384 . S
C1036 H1027 0.929 . S
C1036 C1028 1.378 . S
C1036 C1031 1.350 . S
C1037 H1024 0.929 . S
C1037 C1029 1.433 . S
C1037 N1039 1.384 . S
N1038 C1034 1.427 . S
N1038 C1035 1.384 . S
N1039 C1031 1.427 . S
N1039 C1037 1.384 . S
H1040 C1046 0.930 . S
H1041 C1050 0.930 . S
H1042 C1055 0.929 . S
H1043 C1053 0.929 . S
H1044 C1048 0.929 . S
H1045 C1054 0.929 . S
C1046 H1040 0.930 . S
C1046 C1047 1.367 . S
C1046 C1054 1.378 . S
C1047 C1046 1.367 . S
C1047 C1055 1.433 . S
C1048 H1044 0.929 . S
C1048 C1050 1.378 . S
C1048 C1052 1.350 . S
C1049 C1052 1.463 . S
C1049 C1054 1.350 . S
C1049 N1057 1.427 . S
C1050 H1041 0.930 . S
C1050 C1048 1.378 . S
C1050 C1051 1.367 . S
C1051 C1050 1.367 . S
C1051 C1053 1.433 . S
C1052 C1048 1.350 . S
C1052 C1049 1.463 . S
C1052 N1056 1.427 . S
C1053 H1043 0.929 . S
C1053 C1051 1.433 . S
C1053 N1056 1.384 . S
C1054 H1045 0.929 . S
C1054 C1046 1.378 . S
C1054 C1049 1.350 . S
C1055 H1042 0.929 . S
C1055 C1047 1.433 . S
C1055 N1057 1.384 . S
N1056 C1052 1.427 . S
N1056 C1053 1.384 . S
N1057 C1049 1.427 . S
N1057 C1055 1.384 . S
H1058 C1064 0.930 . S
H1059 C1068 0.930 . S
H1060 C1073 0.929 . S
H1061 C1071 0.929 . S
H1062 C1066 0.929 . S
H1063 C1072 0.929 . S
C1064 H1058 0.930 . S
C1064 C1065 1.367 . S
C1064 C1072 1.378 . S
C1065 C1064 1.367 . S
C1065 C1073 1.433 . S
C1066 H1062 0.929 . S
C1066 C1068 1.378 . S
C1066 C1070 1.350 . S
C1067 C1070 1.463 . S
C1067 C1072 1.350 . S
C1067 N1075 1.427 . S
C1068 H1059 0.930 . S
C1068 C1066 1.378 . S
C1068 C1069 1.367 . S
C1069 C1068 1.367 . S
C1069 C1071 1.433 . S
C1070 C1066 1.350 . S
C1070 C1067 1.463 . S
C1070 N1074 1.427 . S
C1071 H1061 0.929 . S
C1071 C1069 1.433 . S
C1071 N1074 1.384 . S
C1072 H1063 0.929 . S
C1072 C1064 1.378 . S
C1072 C1067 1.350 . S
C1073 H1060 0.929 . S
C1073 C1065 1.433 . S
C1073 N1075 1.384 . S
N1074 C1070 1.427 . S
N1074 C1071 1.384 . S
N1075 C1067 1.427 . S
N1075 C1073 1.384 . S
H1076 C1082 0.930 . S
H1077 C1086 0.930 . S
H1078 C1091 0.929 . S
H1079 C1089 0.929 . S
H1080 C1084 0.929 . S
H1081 C1090 0.929 . S
C1082 H1076 0.930 . S
C1082 C1083 1.367 . S
C1082 C1090 1.378 . S
C1083 C1082 1.367 . S
C1083 C1091 1.433 . S
C1084 H1080 0.929 . S
C1084 C1086 1.378 . S
C1084 C1088 1.350 . S
C1085 C1088 1.463 . S
C1085 C1090 1.350 . S
C1085 N1093 1.427 . S
C1086 H1077 0.930 . S
C1086 C1084 1.378 . S
C1086 C1087 1.367 . S
C1087 C1086 1.367 . S
C1087 C1089 1.433 . S
C1088 C1084 1.350 . S
C1088 C1085 1.463 . S
C1088 N1092 1.427 . S
C1089 H1079 0.929 . S
C1089 C1087 1.433 . S
C1089 N1092 1.384 . S
C1090 H1081 0.929 . S
C1090 C1082 1.378 . S
C1090 C1085 1.350 . S
C1091 H1078 0.929 . S
C1091 C1083 1.433 . S
C1091 N1093 1.384 . S
N1092 C1088 1.427 . S
N1092 C1089 1.384 . S
N1093 C1085 1.427 . S
N1093 C1091 1.384 . S
H1094 C1100 0.930 . S
H1095 C1104 0.930 . S
H1096 C1109 0.929 . S
H1097 C1107 0.929 . S
H1098 C1102 0.929 . S
H1099 C1108 0.929 . S
C1100 H1094 0.930 . S
C1100 C1101 1.367 . S
C1100 C1108 1.378 . S
C1101 C1100 1.367 . S
C1101 C1109 1.433 . S
C1102 H1098 0.929 . S
C1102 C1104 1.378 . S
C1102 C1106 1.350 . S
C1103 C1106 1.463 . S
C1103 C1108 1.350 . S
C1103 N1111 1.427 . S
C1104 H1095 0.930 . S
C1104 C1102 1.378 . S
C1104 C1105 1.367 . S
C1105 C1104 1.367 . S
C1105 C1107 1.433 . S
C1106 C1102 1.350 . S
C1106 C1103 1.463 . S
C1106 N1110 1.427 . S
C1107 H1097 0.929 . S
C1107 C1105 1.433 . S
C1107 N1110 1.384 . S
C1108 H1099 0.929 . S
C1108 C1100 1.378 . S
C1108 C1103 1.350 . S
C1109 H1096 0.929 . S
C1109 C1101 1.433 . S
C1109 N1111 1.384 . S
N1110 C1106 1.427 . S
N1110 C1107 1.384 . S
N1111 C1103 1.427 . S
N1111 C1109 1.384 . S
H1112 C1118 0.930 . S
H1113 C1122 0.930 . S
H1114 C1127 0.929 . S
H1115 C1125 0.929 . S
H1116 C1120 0.929 . S
H1117 C1126 0.929 . S
C1118 H1112 0.930 . S
C1118 C1119 1.367 . S
C1118 C1126 1.378 . S
C1119 C1118 1.367 . S
C1119 C1127 1.433 . S
C1120 H1116 0.929 . S
C1120 C1122 1.378 . S
C1120 C1124 1.350 . S
C1121 C1124 1.463 . S
C1121 C1126 1.350 . S
C1121 N1129 1.427 . S
C1122 H1113 0.930 . S
C1122 C1120 1.378 . S
C1122 C1123 1.367 . S
C1123 C1122 1.367 . S
C1123 C1125 1.433 . S
C1124 C1120 1.350 . S
C1124 C1121 1.463 . S
C1124 N1128 1.427 . S
C1125 H1115 0.929 . S
C1125 C1123 1.433 . S
C1125 N1128 1.384 . S
C1126 H1117 0.929 . S
C1126 C1118 1.378 . S
C1126 C1121 1.350 . S
C1127 H1114 0.929 . S
C1127 C1119 1.433 . S
C1127 N1129 1.384 . S
N1128 C1124 1.427 . S
N1128 C1125 1.384 . S
N1129 C1121 1.427 . S
N1129 C1127 1.384 . S
H1130 C1136 0.930 . S
H1131 C1140 0.930 . S
H1132 C1145 0.929 . S
H1133 C1143 0.929 . S
H1134 C1138 0.929 . S
H1135 C1144 0.929 . S
C1136 H1130 0.930 . S
C1136 C1137 1.367 . S
C1136 C1144 1.378 . S
C1137 C1136 1.367 . S
C1137 C1145 1.433 . S
C1138 H1134 0.929 . S
C1138 C1140 1.378 . S
C1138 C1142 1.350 . S
C1139 C1142 1.463 . S
C1139 C1144 1.350 . S
C1139 N1147 1.427 . S
C1140 H1131 0.930 . S
C1140 C1138 1.378 . S
C1140 C1141 1.367 . S
C1141 C1140 1.367 . S
C1141 C1143 1.433 . S
C1142 C1138 1.350 . S
C1142 C1139 1.463 . S
C1142 N1146 1.427 . S
C1143 H1133 0.929 . S
C1143 C1141 1.433 . S
C1143 N1146 1.384 . S
C1144 H1135 0.929 . S
C1144 C1136 1.378 . S
C1144 C1139 1.350 . S
C1145 H1132 0.929 . S
C1145 C1137 1.433 . S
C1145 N1147 1.384 . S
N1146 C1142 1.427 . S
N1146 C1143 1.384 . S
N1147 C1139 1.427 . S
N1147 C1145 1.384 . S
H1148 C1154 0.930 . S
H1149 C1158 0.930 . S
H1150 C1163 0.929 . S
H1151 C1161 0.929 . S
H1152 C1156 0.929 . S
H1153 C1162 0.929 . S
C1154 H1148 0.930 . S
C1154 C1155 1.367 . S
C1154 C1162 1.378 . S
C1155 C1154 1.367 . S
C1155 C1163 1.433 . S
C1156 H1152 0.929 . S
C1156 C1158 1.378 . S
C1156 C1160 1.350 . S
C1157 C1160 1.463 . S
C1157 C1162 1.350 . S
C1157 N1165 1.427 . S
C1158 H1149 0.930 . S
C1158 C1156 1.378 . S
C1158 C1159 1.367 . S
C1159 C1158 1.367 . S
C1159 C1161 1.433 . S
C1160 C1156 1.350 . S
C1160 C1157 1.463 . S
C1160 N1164 1.427 . S
C1161 H1151 0.929 . S
C1161 C1159 1.433 . S
C1161 N1164 1.384 . S
C1162 H1153 0.929 . S
C1162 C1154 1.378 . S
C1162 C1157 1.350 . S
C1163 H1150 0.929 . S
C1163 C1155 1.433 . S
C1163 N1165 1.384 . S
N1164 C1160 1.427 . S
N1164 C1161 1.384 . S
N1165 C1157 1.427 . S
N1165 C1163 1.384 . S
H1166 C1172 0.930 . S
H1167 C1176 0.930 . S
H1168 C1181 0.929 . S
H1169 C1179 0.929 . S
H1170 C1174 0.929 . S
H1171 C1180 0.929 . S
C1172 H1166 0.930 . S
C1172 C1173 1.367 . S
C1172 C1180 1.378 . S
C1173 C1172 1.367 . S
C1173 C1181 1.433 . S
C1174 H1170 0.929 . S
C1174 C1176 1.378 . S
C1174 C1178 1.350 . S
C1175 C1178 1.463 . S
C1175 C1180 1.350 . S
C1175 N1183 1.427 . S
C1176 H1167 0.930 . S
C1176 C1174 1.378 . S
C1176 C1177 1.367 . S
C1177 C1176 1.367 . S
C1177 C1179 1.433 . S
C1178 C1174 1.350 . S
C1178 C1175 1.463 . S
C1178 N1182 1.427 . S
C1179 H1169 0.929 . S
C1179 C1177 1.433 . S
C1179 N1182 1.384 . S
C1180 H1171 0.929 . S
C1180 C1172 1.378 . S
C1180 C1175 1.350 . S
C1181 H1168 0.929 . S
C1181 C1173 1.433 . S
C1181 N1183 1.384 . S
N1182 C1178 1.427 . S
N1182 C1179 1.384 . S
N1183 C1175 1.427 . S
N1183 C1181 1.384 . S
H1184 C1190 0.930 . S
H1185 C1194 0.930 . S
H1186 C1199 0.929 . S
H1187 C1197 0.929 . S
H1188 C1192 0.929 . S
H1189 C1198 0.929 . S
C1190 H1184 0.930 . S
C1190 C1191 1.367 . S
C1190 C1198 1.378 . S
C1191 C1190 1.367 . S
C1191 C1199 1.433 . S
C1192 H1188 0.929 . S
C1192 C1194 1.378 . S
C1192 C1196 1.350 . S
C1193 C1196 1.463 . S
C1193 C1198 1.350 . S
C1193 N1201 1.427 . S
C1194 H1185 0.930 . S
C1194 C1192 1.378 . S
C1194 C1195 1.367 . S
C1195 C1194 1.367 . S
C1195 C1197 1.433 1_565 S
C1196 C1192 1.350 . S
C1196 C1193 1.463 . S
C1196 N1200 1.427 . S
C1197 H1187 0.929 . S
C1197 C1195 1.433 1_545 S
C1197 N1200 1.384 1_545 S
C1198 H1189 0.929 . S
C1198 C1190 1.378 . S
C1198 C1193 1.350 . S
C1199 H1186 0.929 . S
C1199 C1191 1.433 . S
C1199 N1201 1.384 . S
N1200 C1196 1.427 . S
N1200 C1197 1.384 1_565 S
N1201 C1193 1.427 . S
N1201 C1199 1.384 . S
H1202 C1208 0.930 . S
H1203 C1212 0.930 . S
H1204 C1217 0.929 . S
H1205 C1215 0.929 . S
H1206 C1210 0.929 . S
H1207 C1216 0.929 . S
C1208 H1202 0.930 . S
C1208 C1209 1.367 1_545 S
C1208 C1216 1.378 1_545 S
C1209 C1208 1.367 1_565 S
C1209 C1217 1.433 . S
C1210 H1206 0.929 . S
C1210 C1212 1.378 . S
C1210 C1214 1.350 . S
C1211 C1214 1.463 . S
C1211 C1216 1.350 . S
C1211 N1219 1.427 . S
C1212 H1203 0.930 . S
C1212 C1210 1.378 . S
C1212 C1213 1.367 . S
C1213 C1212 1.367 . S
C1213 C1215 1.433 . S
C1214 C1210 1.350 . S
C1214 C1211 1.463 . S
C1214 N1218 1.427 . S
C1215 H1205 0.929 . S
C1215 C1213 1.433 . S
C1215 N1218 1.384 . S
C1216 H1207 0.929 . S
C1216 C1208 1.378 1_565 S
C1216 C1211 1.350 . S
C1217 H1204 0.929 . S
C1217 C1209 1.433 . S
C1217 N1219 1.384 . S
N1218 C1214 1.427 . S
N1218 C1215 1.384 . S
N1219 C1211 1.427 . S
N1219 C1217 1.384 . S
H1220 C1226 0.930 . S
H1221 C1230 0.930 . S
H1222 C1235 0.929 . S
H1223 C1233 0.929 . S
H1224 C1228 0.929 . S
H1225 C1234 0.929 . S
C1226 H1220 0.930 . S
C1226 C1227 1.367 . S
C1226 C1234 1.378 . S
C1227 C1226 1.367 . S
C1227 C1235 1.433 . S
C1228 H1224 0.929 . S
C1228 C1230 1.378 . S
C1228 C1232 1.350 . S
C1229 C1232 1.463 . S
C1229 C1234 1.350 . S
C1229 N1237 1.427 . S
C1230 H1221 0.930 . S
C1230 C1228 1.378 . S
C1230 C1231 1.367 . S
C1231 C1230 1.367 . S
C1231 C1233 1.433 1_545 S
C1232 C1228 1.350 . S
C1232 C1229 1.463 . S
C1232 N1236 1.427 . S
C1233 H1223 0.929 . S
C1233 C1231 1.433 1_565 S
C1233 N1236 1.384 1_565 S
C1234 H1225 0.929 . S
C1234 C1226 1.378 . S
C1234 C1229 1.350 . S
C1235 H1222 0.929 . S
C1235 C1227 1.433 . S
C1235 N1237 1.384 . S
N1236 C1232 1.427 . S
N1236 C1233 1.384 1_545 S
N1237 C1229 1.427 . S
N1237 C1235 1.384 . S
H1238 C1244 0.930 . S
H1239 C1248 0.930 . S
H1240 C1253 0.929 . S
H1241 C1251 0.929 . S
H1242 C1246 0.929 . S
H1243 C1252 0.929 . S
C1244 H1238 0.930 . S
C1244 C1245 1.367 . S
C1244 C1252 1.378 . S
C1245 C1244 1.367 . S
C1245 C1253 1.433 . S
C1246 H1242 0.929 . S
C1246 C1248 1.378 . S
C1246 C1250 1.350 . S
C1247 C1250 1.463 . S
C1247 C1252 1.350 . S
C1247 N1255 1.427 . S
C1248 H1239 0.930 . S
C1248 C1246 1.378 . S
C1248 C1249 1.367 . S
C1249 C1248 1.367 . S
C1249 C1251 1.433 1_545 S
C1250 C1246 1.350 . S
C1250 C1247 1.463 . S
C1250 N1254 1.427 . S
C1251 H1241 0.929 . S
C1251 C1249 1.433 1_565 S
C1251 N1254 1.384 1_565 S
C1252 H1243 0.929 . S
C1252 C1244 1.378 . S
C1252 C1247 1.350 . S
C1253 H1240 0.929 . S
C1253 C1245 1.433 . S
C1253 N1255 1.384 . S
N1254 C1250 1.427 . S
N1254 C1251 1.384 1_545 S
N1255 C1247 1.427 . S
N1255 C1253 1.384 . S
H1256 C1262 0.930 . S
H1257 C1266 0.930 . S
H1258 C1271 0.929 1_565 S
H1259 C1269 0.929 . S
H1260 C1264 0.929 . S
H1261 C1270 0.929 . S
C1262 H1256 0.930 . S
C1262 C1263 1.367 . S
C1262 C1270 1.378 . S
C1263 C1262 1.367 . S
C1263 C1271 1.433 . S
C1264 H1260 0.929 . S
C1264 C1266 1.378 . S
C1264 C1268 1.350 . S
C1265 C1268 1.463 . S
C1265 C1270 1.350 . S
C1265 N1273 1.427 . S
C1266 H1257 0.930 . S
C1266 C1264 1.378 . S
C1266 C1267 1.367 . S
C1267 C1266 1.367 . S
C1267 C1269 1.433 . S
C1268 C1264 1.350 . S
C1268 C1265 1.463 . S
C1268 N1272 1.427 . S
C1269 H1259 0.929 . S
C1269 C1267 1.433 . S
C1269 N1272 1.384 . S
C1270 H1261 0.929 . S
C1270 C1262 1.378 . S
C1270 C1265 1.350 . S
C1271 H1258 0.929 1_545 S
C1271 C1263 1.433 . S
C1271 N1273 1.384 . S
N1272 C1268 1.427 . S
N1272 C1269 1.384 . S
N1273 C1265 1.427 . S
N1273 C1271 1.384 . S
H1274 C1280 0.930 . S
H1275 C1284 0.930 . S
H1276 C1289 0.929 . S
H1277 C1287 0.929 . S
H1278 C1282 0.929 . S
H1279 C1288 0.929 . S
C1280 H1274 0.930 . S
C1280 C1281 1.367 . S
C1280 C1288 1.378 . S
C1281 C1280 1.367 . S
C1281 C1289 1.433 . S
C1282 H1278 0.929 . S
C1282 C1284 1.378 . S
C1282 C1286 1.350 . S
C1283 C1286 1.463 . S
C1283 C1288 1.350 . S
C1283 N1291 1.427 . S
C1284 H1275 0.930 . S
C1284 C1282 1.378 . S
C1284 C1285 1.367 . S
C1285 C1284 1.367 . S
C1285 C1287 1.433 . S
C1286 C1282 1.350 . S
C1286 C1283 1.463 . S
C1286 N1290 1.427 . S
C1287 H1277 0.929 . S
C1287 C1285 1.433 . S
C1287 N1290 1.384 . S
C1288 H1279 0.929 . S
C1288 C1280 1.378 . S
C1288 C1283 1.350 . S
C1289 H1276 0.929 . S
C1289 C1281 1.433 . S
C1289 N1291 1.384 . S
N1290 C1286 1.427 . S
N1290 C1287 1.384 . S
N1291 C1283 1.427 . S
N1291 C1289 1.384 . S
H1292 C1298 0.930 . S
H1293 C1302 0.930 1_545 S
H1294 C1307 0.929 . S
H1295 C1305 0.929 . S
H1296 C1300 0.929 . S
H1297 C1306 0.929 . S
C1298 H1292 0.930 . S
C1298 C1299 1.367 . S
C1298 C1306 1.378 . S
C1299 C1298 1.367 . S
C1299 C1307 1.433 . S
C1300 H1296 0.929 . S
C1300 C1302 1.378 . S
C1300 C1304 1.350 . S
C1301 C1304 1.463 . S
C1301 C1306 1.350 . S
C1301 N1309 1.427 . S
C1302 H1293 0.930 1_565 S
C1302 C1300 1.378 . S
C1302 C1303 1.367 . S
C1303 C1302 1.367 . S
C1303 C1305 1.433 . S
C1304 C1300 1.350 . S
C1304 C1301 1.463 . S
C1304 N1308 1.427 . S
C1305 H1295 0.929 . S
C1305 C1303 1.433 . S
C1305 N1308 1.384 . S
C1306 H1297 0.929 . S
C1306 C1298 1.378 . S
C1306 C1301 1.350 . S
C1307 H1294 0.929 . S
C1307 C1299 1.433 . S
C1307 N1309 1.384 . S
N1308 C1304 1.427 . S
N1308 C1305 1.384 . S
N1309 C1301 1.427 . S
N1309 C1307 1.384 . S
H1310 C1316 0.930 1_545 S
H1311 C1320 0.930 . S
H1312 C1325 0.929 . S
H1313 C1323 0.929 . S
H1314 C1318 0.929 . S
H1315 C1324 0.929 . S
C1316 H1310 0.930 1_565 S
C1316 C1317 1.367 . S
C1316 C1324 1.378 . S
C1317 C1316 1.367 . S
C1317 C1325 1.433 . S
C1318 H1314 0.929 . S
C1318 C1320 1.378 . S
C1318 C1322 1.350 . S
C1319 C1322 1.463 . S
C1319 C1324 1.350 . S
C1319 N1327 1.427 . S
C1320 H1311 0.930 . S
C1320 C1318 1.378 . S
C1320 C1321 1.367 . S
C1321 C1320 1.367 . S
C1321 C1323 1.433 . S
C1322 C1318 1.350 . S
C1322 C1319 1.463 . S
C1322 N1326 1.427 . S
C1323 H1313 0.929 . S
C1323 C1321 1.433 . S
C1323 N1326 1.384 . S
C1324 H1315 0.929 . S
C1324 C1316 1.378 . S
C1324 C1319 1.350 . S
C1325 H1312 0.929 . S
C1325 C1317 1.433 . S
C1325 N1327 1.384 . S
N1326 C1322 1.427 . S
N1326 C1323 1.384 . S
N1327 C1319 1.427 . S
N1327 C1325 1.384 . S
H1328 C1334 0.930 . S
H1329 C1338 0.930 . S
H1330 C1343 0.929 . S
H1331 C1341 0.929 . S
H1332 C1336 0.929 . S
H1333 C1342 0.929 . S
C1334 H1328 0.930 . S
C1334 C1335 1.367 . S
C1334 C1342 1.378 . S
C1335 C1334 1.367 . S
C1335 C1343 1.433 . S
C1336 H1332 0.929 . S
C1336 C1338 1.378 . S
C1336 C1340 1.350 . S
C1337 C1340 1.463 . S
C1337 C1342 1.350 . S
C1337 N1345 1.427 . S
C1338 H1329 0.930 . S
C1338 C1336 1.378 . S
C1338 C1339 1.367 . S
C1339 C1338 1.367 . S
C1339 C1341 1.433 . S
C1340 C1336 1.350 . S
C1340 C1337 1.463 . S
C1340 N1344 1.427 . S
C1341 H1331 0.929 . S
C1341 C1339 1.433 . S
C1341 N1344 1.384 . S
C1342 H1333 0.929 . S
C1342 C1334 1.378 . S
C1342 C1337 1.350 . S
C1343 H1330 0.929 . S
C1343 C1335 1.433 . S
C1343 N1345 1.384 . S
N1344 C1340 1.427 . S
N1344 C1341 1.384 . S
N1345 C1337 1.427 . S
N1345 C1343 1.384 . S
H1346 C1352 0.930 . S
H1347 C1356 0.930 . S
H1348 C1361 0.929 . S
H1349 C1359 0.929 . S
H1350 C1354 0.929 . S
H1351 C1360 0.929 . S
C1352 H1346 0.930 . S
C1352 C1353 1.367 . S
C1352 C1360 1.378 . S
C1353 C1352 1.367 . S
C1353 C1361 1.433 . S
C1354 H1350 0.929 . S
C1354 C1356 1.378 . S
C1354 C1358 1.350 . S
C1355 C1358 1.463 . S
C1355 C1360 1.350 . S
C1355 N1363 1.427 . S
C1356 H1347 0.930 . S
C1356 C1354 1.378 . S
C1356 C1357 1.367 . S
C1357 C1356 1.367 . S
C1357 C1359 1.433 . S
C1358 C1354 1.350 . S
C1358 C1355 1.463 . S
C1358 N1362 1.427 . S
C1359 H1349 0.929 . S
C1359 C1357 1.433 . S
C1359 N1362 1.384 . S
C1360 H1351 0.929 . S
C1360 C1352 1.378 . S
C1360 C1355 1.350 . S
C1361 H1348 0.929 . S
C1361 C1353 1.433 . S
C1361 N1363 1.384 . S
N1362 C1358 1.427 . S
N1362 C1359 1.384 . S
N1363 C1355 1.427 . S
N1363 C1361 1.384 . S
H1364 C1370 0.930 . S
H1365 C1374 0.930 . S
H1366 C1379 0.929 . S
H1367 C1377 0.929 . S
H1368 C1372 0.929 . S
H1369 C1378 0.929 . S
C1370 H1364 0.930 . S
C1370 C1371 1.367 . S
C1370 C1378 1.378 . S
C1371 C1370 1.367 . S
C1371 C1379 1.433 . S
C1372 H1368 0.929 . S
C1372 C1374 1.378 . S
C1372 C1376 1.350 . S
C1373 C1376 1.463 . S
C1373 C1378 1.350 . S
C1373 N1381 1.427 . S
C1374 H1365 0.930 . S
C1374 C1372 1.378 . S
C1374 C1375 1.367 . S
C1375 C1374 1.367 . S
C1375 C1377 1.433 . S
C1376 C1372 1.350 . S
C1376 C1373 1.463 . S
C1376 N1380 1.427 . S
C1377 H1367 0.929 . S
C1377 C1375 1.433 . S
C1377 N1380 1.384 . S
C1378 H1369 0.929 . S
C1378 C1370 1.378 . S
C1378 C1373 1.350 . S
C1379 H1366 0.929 . S
C1379 C1371 1.433 . S
C1379 N1381 1.384 . S
N1380 C1376 1.427 . S
N1380 C1377 1.384 . S
N1381 C1373 1.427 . S
N1381 C1379 1.384 . S
H1382 C1388 0.930 . S
H1383 C1392 0.930 . S
H1384 C1397 0.929 . S
H1385 C1395 0.929 . S
H1386 C1390 0.929 . S
H1387 C1396 0.929 . S
C1388 H1382 0.930 . S
C1388 C1389 1.367 . S
C1388 C1396 1.378 . S
C1389 C1388 1.367 . S
C1389 C1397 1.433 . S
C1390 H1386 0.929 . S
C1390 C1392 1.378 . S
C1390 C1394 1.350 . S
C1391 C1394 1.463 . S
C1391 C1396 1.350 . S
C1391 N1399 1.427 . S
C1392 H1383 0.930 . S
C1392 C1390 1.378 . S
C1392 C1393 1.367 . S
C1393 C1392 1.367 . S
C1393 C1395 1.433 . S
C1394 C1390 1.350 . S
C1394 C1391 1.463 . S
C1394 N1398 1.427 . S
C1395 H1385 0.929 . S
C1395 C1393 1.433 . S
C1395 N1398 1.384 . S
C1396 H1387 0.929 . S
C1396 C1388 1.378 . S
C1396 C1391 1.350 . S
C1397 H1384 0.929 . S
C1397 C1389 1.433 . S
C1397 N1399 1.384 . S
N1398 C1394 1.427 . S
N1398 C1395 1.384 . S
N1399 C1391 1.427 . S
N1399 C1397 1.384 . S
H1400 C1406 0.930 . S
H1401 C1410 0.930 . S
H1402 C1415 0.929 . S
H1403 C1413 0.929 . S
H1404 C1408 0.929 . S
H1405 C1414 0.929 . S
C1406 H1400 0.930 . S
C1406 C1407 1.367 . S
C1406 C1414 1.378 . S
C1407 C1406 1.367 . S
C1407 C1415 1.433 . S
C1408 H1404 0.929 . S
C1408 C1410 1.378 . S
C1408 C1412 1.350 . S
C1409 C1412 1.463 . S
C1409 C1414 1.350 . S
C1409 N1417 1.427 . S
C1410 H1401 0.930 . S
C1410 C1408 1.378 . S
C1410 C1411 1.367 . S
C1411 C1410 1.367 . S
C1411 C1413 1.433 . S
C1412 C1408 1.350 . S
C1412 C1409 1.463 . S
C1412 N1416 1.427 . S
C1413 H1403 0.929 . S
C1413 C1411 1.433 . S
C1413 N1416 1.384 . S
C1414 H1405 0.929 . S
C1414 C1406 1.378 . S
C1414 C1409 1.350 . S
C1415 H1402 0.929 . S
C1415 C1407 1.433 . S
C1415 N1417 1.384 . S
N1416 C1412 1.427 . S
N1416 C1413 1.384 . S
N1417 C1409 1.427 . S
N1417 C1415 1.384 . S
H1418 C1424 0.930 . S
H1419 C1428 0.930 . S
H1420 C1433 0.929 . S
H1421 C1431 0.929 . S
H1422 C1426 0.929 . S
H1423 C1432 0.929 . S
C1424 H1418 0.930 . S
C1424 C1425 1.367 . S
C1424 C1432 1.378 . S
C1425 C1424 1.367 . S
C1425 C1433 1.433 . S
C1426 H1422 0.929 . S
C1426 C1428 1.378 . S
C1426 C1430 1.350 . S
C1427 C1430 1.463 . S
C1427 C1432 1.350 . S
C1427 N1435 1.427 . S
C1428 H1419 0.930 . S
C1428 C1426 1.378 . S
C1428 C1429 1.367 . S
C1429 C1428 1.367 . S
C1429 C1431 1.433 . S
C1430 C1426 1.350 . S
C1430 C1427 1.463 . S
C1430 N1434 1.427 . S
C1431 H1421 0.929 . S
C1431 C1429 1.433 . S
C1431 N1434 1.384 . S
C1432 H1423 0.929 . S
C1432 C1424 1.378 . S
C1432 C1427 1.350 . S
C1433 H1420 0.929 . S
C1433 C1425 1.433 . S
C1433 N1435 1.384 . S
N1434 C1430 1.427 . S
N1434 C1431 1.384 . S
N1435 C1427 1.427 . S
N1435 C1433 1.384 . S
H1436 C1442 0.930 . S
H1437 C1446 0.930 . S
H1438 C1451 0.929 . S
H1439 C1449 0.929 . S
H1440 C1444 0.929 . S
H1441 C1450 0.929 . S
C1442 H1436 0.930 . S
C1442 C1443 1.367 . S
C1442 C1450 1.378 . S
C1443 C1442 1.367 . S
C1443 C1451 1.433 . S
C1444 H1440 0.929 . S
C1444 C1446 1.378 . S
C1444 C1448 1.350 . S
C1445 C1448 1.463 . S
C1445 C1450 1.350 . S
C1445 N1453 1.427 . S
C1446 H1437 0.930 . S
C1446 C1444 1.378 . S
C1446 C1447 1.367 . S
C1447 C1446 1.367 . S
C1447 C1449 1.433 . S
C1448 C1444 1.350 . S
C1448 C1445 1.463 . S
C1448 N1452 1.427 . S
C1449 H1439 0.929 . S
C1449 C1447 1.433 . S
C1449 N1452 1.384 . S
C1450 H1441 0.929 . S
C1450 C1442 1.378 . S
C1450 C1445 1.350 . S
C1451 H1438 0.929 . S
C1451 C1443 1.433 . S
C1451 N1453 1.384 . S
N1452 C1448 1.427 . S
N1452 C1449 1.384 . S
N1453 C1445 1.427 . S
N1453 C1451 1.384 . S
H1454 C1460 0.930 . S
H1455 C1464 0.930 . S
H1456 C1469 0.929 . S
H1457 C1467 0.929 . S
H1458 C1462 0.929 . S
H1459 C1468 0.929 . S
C1460 H1454 0.930 . S
C1460 C1461 1.367 . S
C1460 C1468 1.378 . S
C1461 C1460 1.367 . S
C1461 C1469 1.433 . S
C1462 H1458 0.929 . S
C1462 C1464 1.378 . S
C1462 C1466 1.350 . S
C1463 C1466 1.463 . S
C1463 C1468 1.350 . S
C1463 N1471 1.427 . S
C1464 H1455 0.930 . S
C1464 C1462 1.378 . S
C1464 C1465 1.367 . S
C1465 C1464 1.367 . S
C1465 C1467 1.433 . S
C1466 C1462 1.350 . S
C1466 C1463 1.463 . S
C1466 N1470 1.427 . S
C1467 H1457 0.929 . S
C1467 C1465 1.433 . S
C1467 N1470 1.384 . S
C1468 H1459 0.929 . S
C1468 C1460 1.378 . S
C1468 C1463 1.350 . S
C1469 H1456 0.929 . S
C1469 C1461 1.433 . S
C1469 N1471 1.384 . S
N1470 C1466 1.427 . S
N1470 C1467 1.384 . S
N1471 C1463 1.427 . S
N1471 C1469 1.384 . S
C471 C137 1.499 . S
C475 C21 1.499 . S
C489 C50 1.517 . S
C493 C166 1.516 . S
C507 C195 1.524 . S
C511 C79 1.523 . S
C525 C224 1.501 . S
C529 C108 1.502 . S
C543 C311 1.500 . S
C547 C253 1.500 . S
C561 C282 1.512 . S
C565 C340 1.511 . S
C579 C427 1.524 . S
C583 C369 1.524 . S
C597 C398 1.523 . S
C601 C456 1.523 . S
C615 C100 1.930 . S
C619 C5 1.952 . S
C633 C13 1.938 1_565 S
C637 C34 1.954 . S
C651 C42 1.936 . S
C655 C63 1.946 . S
C669 C92 1.954 . S
C673 C71 1.938 1_545 S
C687 C158 1.934 . S
C691 C121 1.945 . S
C705 C187 1.933 1_565 S
C709 C150 1.954 . S
C723 C216 1.936 . S
C727 C179 1.946 . S
C741 C129 1.936 1_545 S
C745 C208 1.955 . S
C759 C124 1.200 . S
C763 C276 1.259 . S
C777 C240 1.203 . S
C781 C131 1.275 . S
C795 C182 1.186 . S
C799 C247 1.282 . S
C813 C269 1.206 . S
C817 C189 1.271 . S
C831 C305 1.271 . S
C835 C8 1.180 . S
C849 C73 1.259 . S
C853 C298 1.197 . S
C867 C334 1.278 . S
C871 C66 1.198 . S
C885 C15 1.267 . S
C889 C327 1.208 . S
C903 C332 1.939 . S
C907 C353 1.951 . S
C921 C361 1.932 . S
C925 C295 1.954 . S
C939 C382 1.954 . S
C943 C303 1.937 . S
C957 C324 1.954 . S
C961 C390 1.938 . S
C975 C411 1.944 . S
C979 C245 1.931 . S
C993 C448 1.928 . S
C997 C237 1.947 . S
C1011 C274 1.928 . S
C1015 C440 1.947 . S
C1029 C419 1.939 . S
C1033 C266 1.953 . S
C1047 C218 1.278 . S
C1051 C414 1.199 . S
C1065 C421 1.274 . S
C1069 C153 1.178 . S
C1083 C443 1.186 . S
C1087 C160 1.282 . S
C1101 C211 1.198 . S
C1105 C450 1.279 . S
C1119 C44 1.277 . S
C1123 C356 1.200 . S
C1137 C37 1.179 . S
C1141 C392 1.272 . S
C1155 C385 1.183 . S
C1159 C102 1.282 . S
C1173 C363 1.265 . S
C1177 C95 1.209 . S
C1191 C148 0.725 . S
C1195 C3 0.697 . S
C1209 C177 0.725 . S
C1213 C32 0.697 . S
C1227 C206 0.723 . S
C1231 C61 0.702 . S
C1245 C90 0.721 . S
C1249 C119 0.706 . S
C1263 C126 3.081 1_545 S
C1267 C300 3.084 . S
C1281 C242 3.084 . S
C1285 C68 3.082 1_545 S
C1299 C329 3.076 . S
C1303 C184 3.082 1_565 S
C1317 C10 3.079 1_565 S
C1321 C271 3.075 . S
C1335 C351 0.708 . S
C1339 C235 0.719 . S
C1353 C293 0.713 . S
C1357 C438 0.715 . S
C1371 C380 0.696 . S
C1375 C264 0.723 . S
C1389 C409 0.708 . S
C1393 C322 0.719 . S
C1407 C39 3.084 . S
C1411 C416 3.080 . S
C1425 C387 3.082 . S
C1429 C155 3.076 . S
C1443 C97 3.084 . S
C1447 C445 3.079 . S
C1461 C213 3.081 . S
C1465 C358 3.084 . S
