# Generated by pormake.
# Topology uod, (4)-cn, num edge types: 1
# Building blocks:
#     Node 0, Type 0, BuildingBlock: GALJAG_clean_sbu_0, # of connection points: 4
#     Node 1, Type 0, BuildingBlock: GALJAG_clean_sbu_0, # of connection points: 4
#     Node 2, Type 0, BuildingBlock: GALJAG_clean_sbu_0, # of connection points: 4
#     Node 3, Type 0, BuildingBlock: GALJAG_clean_sbu_0, # of connection points: 4
#     Node 4, Type 0, BuildingBlock: GALJAG_clean_sbu_0, # of connection points: 4
#     Node 5, Type 0, BuildingBlock: GALJAG_clean_sbu_0, # of connection points: 4
#     Node 6, Type 0, BuildingBlock: GALJAG_clean_sbu_0, # of connection points: 4
#     Node 7, Type 0, BuildingBlock: GALJAG_clean_sbu_0, # of connection points: 4
#     Node 8, Type 0, BuildingBlock: GALJAG_clean_sbu_0, # of connection points: 4
#     Node 9, Type 0, BuildingBlock: GALJAG_clean_sbu_0, # of connection points: 4
#     Node 10, Type 0, BuildingBlock: GALJAG_clean_sbu_0, # of connection points: 4
#     Node 11, Type 0, BuildingBlock: GALJAG_clean_sbu_0, # of connection points: 4
#     Node 12, Type 0, BuildingBlock: GALJAG_clean_sbu_0, # of connection points: 4
#     Node 13, Type 0, BuildingBlock: GALJAG_clean_sbu_0, # of connection points: 4
#     Node 14, Type 0, BuildingBlock: GALJAG_clean_sbu_0, # of connection points: 4
#     Node 15, Type 0, BuildingBlock: GALJAG_clean_sbu_0, # of connection points: 4
#     Node 16, Type 0, BuildingBlock: GALJAG_clean_sbu_0, # of connection points: 4
#     Node 17, Type 0, BuildingBlock: GALJAG_clean_sbu_0, # of connection points: 4
#     Node 18, Type 0, BuildingBlock: GALJAG_clean_sbu_0, # of connection points: 4
#     Node 19, Type 0, BuildingBlock: GALJAG_clean_sbu_0, # of connection points: 4
#     Node 20, Type 0, BuildingBlock: GALJAG_clean_sbu_0, # of connection points: 4
#     Node 21, Type 0, BuildingBlock: GALJAG_clean_sbu_0, # of connection points: 4
#     Node 22, Type 0, BuildingBlock: GALJAG_clean_sbu_0, # of connection points: 4
#     Node 23, Type 0, BuildingBlock: GALJAG_clean_sbu_0, # of connection points: 4
#     Node 24, Type 0, BuildingBlock: GALJAG_clean_sbu_0, # of connection points: 4
#     Node 25, Type 0, BuildingBlock: GALJAG_clean_sbu_0, # of connection points: 4
#     Node 26, Type 0, BuildingBlock: GALJAG_clean_sbu_0, # of connection points: 4
#     Node 27, Type 0, BuildingBlock: GALJAG_clean_sbu_0, # of connection points: 4
#     Node 28, Type 0, BuildingBlock: GALJAG_clean_sbu_0, # of connection points: 4
#     Node 29, Type 0, BuildingBlock: GALJAG_clean_sbu_0, # of connection points: 4
#     Node 30, Type 0, BuildingBlock: GALJAG_clean_sbu_0, # of connection points: 4
#     Node 31, Type 0, BuildingBlock: GALJAG_clean_sbu_0, # of connection points: 4
#     Edge 32, Type (0, 0), BuildingBlock: CIFDUS_clean_linker_0, # of connection points: 2
#     Edge 33, Type (0, 0), BuildingBlock: CIFDUS_clean_linker_0, # of connection points: 2
#     Edge 34, Type (0, 0), BuildingBlock: CIFDUS_clean_linker_0, # of connection points: 2
#     Edge 35, Type (0, 0), BuildingBlock: CIFDUS_clean_linker_0, # of connection points: 2
#     Edge 36, Type (0, 0), BuildingBlock: CIFDUS_clean_linker_0, # of connection points: 2
#     Edge 37, Type (0, 0), BuildingBlock: CIFDUS_clean_linker_0, # of connection points: 2
#     Edge 38, Type (0, 0), BuildingBlock: CIFDUS_clean_linker_0, # of connection points: 2
#     Edge 39, Type (0, 0), BuildingBlock: CIFDUS_clean_linker_0, # of connection points: 2
#     Edge 40, Type (0, 0), BuildingBlock: CIFDUS_clean_linker_0, # of connection points: 2
#     Edge 41, Type (0, 0), BuildingBlock: CIFDUS_clean_linker_0, # of connection points: 2
#     Edge 42, Type (0, 0), BuildingBlock: CIFDUS_clean_linker_0, # of connection points: 2
#     Edge 43, Type (0, 0), BuildingBlock: CIFDUS_clean_linker_0, # of connection points: 2
#     Edge 44, Type (0, 0), BuildingBlock: CIFDUS_clean_linker_0, # of connection points: 2
#     Edge 45, Type (0, 0), BuildingBlock: CIFDUS_clean_linker_0, # of connection points: 2
#     Edge 46, Type (0, 0), BuildingBlock: CIFDUS_clean_linker_0, # of connection points: 2
#     Edge 47, Type (0, 0), BuildingBlock: CIFDUS_clean_linker_0, # of connection points: 2
#     Edge 48, Type (0, 0), BuildingBlock: CIFDUS_clean_linker_0, # of connection points: 2
#     Edge 49, Type (0, 0), BuildingBlock: CIFDUS_clean_linker_0, # of connection points: 2
#     Edge 50, Type (0, 0), BuildingBlock: CIFDUS_clean_linker_0, # of connection points: 2
#     Edge 51, Type (0, 0), BuildingBlock: CIFDUS_clean_linker_0, # of connection points: 2
#     Edge 52, Type (0, 0), BuildingBlock: CIFDUS_clean_linker_0, # of connection points: 2
#     Edge 53, Type (0, 0), BuildingBlock: CIFDUS_clean_linker_0, # of connection points: 2
#     Edge 54, Type (0, 0), BuildingBlock: CIFDUS_clean_linker_0, # of connection points: 2
#     Edge 55, Type (0, 0), BuildingBlock: CIFDUS_clean_linker_0, # of connection points: 2
#     Edge 56, Type (0, 0), BuildingBlock: CIFDUS_clean_linker_0, # of connection points: 2
#     Edge 57, Type (0, 0), BuildingBlock: CIFDUS_clean_linker_0, # of connection points: 2
#     Edge 58, Type (0, 0), BuildingBlock: CIFDUS_clean_linker_0, # of connection points: 2
#     Edge 59, Type (0, 0), BuildingBlock: CIFDUS_clean_linker_0, # of connection points: 2
#     Edge 60, Type (0, 0), BuildingBlock: CIFDUS_clean_linker_0, # of connection points: 2
#     Edge 61, Type (0, 0), BuildingBlock: CIFDUS_clean_linker_0, # of connection points: 2
#     Edge 62, Type (0, 0), BuildingBlock: CIFDUS_clean_linker_0, # of connection points: 2
#     Edge 63, Type (0, 0), BuildingBlock: CIFDUS_clean_linker_0, # of connection points: 2
#     Edge 64, Type (0, 0), BuildingBlock: CIFDUS_clean_linker_0, # of connection points: 2
#     Edge 65, Type (0, 0), BuildingBlock: CIFDUS_clean_linker_0, # of connection points: 2
#     Edge 66, Type (0, 0), BuildingBlock: CIFDUS_clean_linker_0, # of connection points: 2
#     Edge 67, Type (0, 0), BuildingBlock: CIFDUS_clean_linker_0, # of connection points: 2
#     Edge 68, Type (0, 0), BuildingBlock: CIFDUS_clean_linker_0, # of connection points: 2
#     Edge 69, Type (0, 0), BuildingBlock: CIFDUS_clean_linker_0, # of connection points: 2
#     Edge 70, Type (0, 0), BuildingBlock: CIFDUS_clean_linker_0, # of connection points: 2
#     Edge 71, Type (0, 0), BuildingBlock: CIFDUS_clean_linker_0, # of connection points: 2
#     Edge 72, Type (0, 0), BuildingBlock: CIFDUS_clean_linker_0, # of connection points: 2
#     Edge 73, Type (0, 0), BuildingBlock: CIFDUS_clean_linker_0, # of connection points: 2
#     Edge 74, Type (0, 0), BuildingBlock: CIFDUS_clean_linker_0, # of connection points: 2
#     Edge 75, Type (0, 0), BuildingBlock: CIFDUS_clean_linker_0, # of connection points: 2
#     Edge 76, Type (0, 0), BuildingBlock: CIFDUS_clean_linker_0, # of connection points: 2
#     Edge 77, Type (0, 0), BuildingBlock: CIFDUS_clean_linker_0, # of connection points: 2
#     Edge 78, Type (0, 0), BuildingBlock: CIFDUS_clean_linker_0, # of connection points: 2
#     Edge 79, Type (0, 0), BuildingBlock: CIFDUS_clean_linker_0, # of connection points: 2
#     Edge 80, Type (0, 0), BuildingBlock: CIFDUS_clean_linker_0, # of connection points: 2
#     Edge 81, Type (0, 0), BuildingBlock: CIFDUS_clean_linker_0, # of connection points: 2
#     Edge 82, Type (0, 0), BuildingBlock: CIFDUS_clean_linker_0, # of connection points: 2
#     Edge 83, Type (0, 0), BuildingBlock: CIFDUS_clean_linker_0, # of connection points: 2
#     Edge 84, Type (0, 0), BuildingBlock: CIFDUS_clean_linker_0, # of connection points: 2
#     Edge 85, Type (0, 0), BuildingBlock: CIFDUS_clean_linker_0, # of connection points: 2
#     Edge 86, Type (0, 0), BuildingBlock: CIFDUS_clean_linker_0, # of connection points: 2
#     Edge 87, Type (0, 0), BuildingBlock: CIFDUS_clean_linker_0, # of connection points: 2
#     Edge 88, Type (0, 0), BuildingBlock: CIFDUS_clean_linker_0, # of connection points: 2
#     Edge 89, Type (0, 0), BuildingBlock: CIFDUS_clean_linker_0, # of connection points: 2
#     Edge 90, Type (0, 0), BuildingBlock: CIFDUS_clean_linker_0, # of connection points: 2
#     Edge 91, Type (0, 0), BuildingBlock: CIFDUS_clean_linker_0, # of connection points: 2
#     Edge 92, Type (0, 0), BuildingBlock: CIFDUS_clean_linker_0, # of connection points: 2
#     Edge 93, Type (0, 0), BuildingBlock: CIFDUS_clean_linker_0, # of connection points: 2
#     Edge 94, Type (0, 0), BuildingBlock: CIFDUS_clean_linker_0, # of connection points: 2
#     Edge 95, Type (0, 0), BuildingBlock: CIFDUS_clean_linker_0, # of connection points: 2
# Relax obj value: 0.120
# Max RMSD: 0.152
# Mean RMSD: 0.152
data_MOF--net-uod--node1-GALJAG_clean_sbu_0--edge1-CIFDUS_clean_linker_0
_symmetry_space_group_name_H-M    P1
_symmetry_Int_Tables_number       1
_symmetry_cell_setting            triclinic
loop_
_symmetry_equiv_pos_as_xyz
'x, y, z'
_cell_length_a     83.68078
_cell_length_b     24.86108
_cell_length_c     46.133257
_cell_angle_alpha  89.98969
_cell_angle_beta   89.966919
_cell_angle_gamma 90.085606
loop_
_atom_site_label
_atom_site_type_symbol
_atom_site_fract_x
_atom_site_fract_y
_atom_site_fract_z
_atom_type_partial_charge
In0 In 0.06152 0.35736 0.07424 0.0
O1 O 0.05559 0.37495 0.02683 0.0
O2 O 0.03729 0.38403 0.059 0.0
C3 C 0.09236 0.3375 0.08613 0.0
C4 C 0.062 0.45948 0.09121 0.0
C5 C 0.05005 0.25931 0.08649 0.0
O6 O 0.08725 0.33973 0.0602 0.0
O7 O 0.08187 0.34478 0.10546 0.0
O8 O 0.04917 0.29775 0.10454 0.0
O9 O 0.05622 0.27123 0.06227 0.0
C10 C 0.04144 0.39004 0.03281 0.0
O11 O 0.055 0.42366 0.10634 0.0
O12 O 0.06924 0.44268 0.06895 0.0
In13 In 0.20857 0.8588 0.09212 0.0
O14 O 0.21408 0.80022 0.12841 0.0
O15 O 0.20324 0.77129 0.0893 0.0
C16 C 0.22093 0.95119 0.11049 0.0
C17 C 0.22982 0.82847 0.05163 0.0
C18 C 0.17711 0.8789 0.09896 0.0
O19 O 0.22074 0.90933 0.12607 0.0
O20 O 0.21496 0.94614 0.08541 0.0
O21 O 0.18355 0.87918 0.07401 0.0
O22 O 0.18658 0.86966 0.11957 0.0
C23 C 0.20892 0.76059 0.11395 0.0
O24 O 0.21511 0.83397 0.04557 0.0
O25 O 0.23365 0.84209 0.07704 0.0
In26 In 0.05542 0.8634 0.16337 0.0
O27 O 0.04624 0.84239 0.20855 0.0
O28 O 0.02957 0.84651 0.17325 0.0
C29 C 0.08688 0.87817 0.15535 0.0
C30 C 0.05565 0.76119 0.14704 0.0
C31 C 0.0467 0.96415 0.15098 0.0
O32 O 0.08078 0.87716 0.18064 0.0
O33 O 0.07706 0.87216 0.13477 0.0
O34 O 0.04528 0.9263 0.13262 0.0
O35 O 0.05205 0.95037 0.17557 0.0
C36 C 0.03199 0.83515 0.19966 0.0
O37 O 0.05075 0.79771 0.12983 0.0
O38 O 0.06083 0.77707 0.17129 0.0
In39 In 0.21138 0.34977 0.16294 0.0
O40 O 0.21619 0.36844 0.21084 0.0
O41 O 0.23505 0.37879 0.18013 0.0
C42 C 0.18027 0.32876 0.15262 0.0
C43 C 0.21104 0.44759 0.14074 0.0
C44 C 0.22463 0.25717 0.14694 0.0
O45 O 0.18569 0.33145 0.17828 0.0
O46 O 0.19059 0.33511 0.133 0.0
O47 O 0.22505 0.29859 0.13106 0.0
O48 O 0.21788 0.26315 0.17127 0.0
C49 C 0.23037 0.38439 0.20597 0.0
O50 O 0.21758 0.40903 0.12729 0.0
O51 O 0.20444 0.4359 0.16451 0.0
In52 In 0.96204 0.6223 0.90636 0.0
O53 O 0.96853 0.60381 0.9536 0.0
O54 O 0.98561 0.58725 0.9203 0.0
C55 C 0.93116 0.64915 0.8987 0.0
C56 C 0.95853 0.52379 0.88609 0.0
C57 C 0.9764 0.71281 0.88961 0.0
O58 O 0.93719 0.64548 0.92388 0.0
O59 O 0.94084 0.64122 0.87818 0.0
O60 O 0.97545 0.67211 0.87322 0.0
O61 O 0.97042 0.70703 0.91463 0.0
C62 C 0.98201 0.58389 0.94684 0.0
O63 O 0.96565 0.55954 0.87127 0.0
O64 O 0.95296 0.53874 0.9102 0.0
In65 In 0.80421 0.11209 0.9067 0.0
O66 O 0.79994 0.1356 0.95396 0.0
O67 O 0.78044 0.139 0.92389 0.0
C68 C 0.83455 0.09181 0.89107 0.0
C69 C 0.80379 0.21042 0.88475 0.0
C70 C 0.79246 0.01347 0.89886 0.0
O71 O 0.83061 0.09609 0.91761 0.0
O72 O 0.82321 0.09703 0.87327 0.0
O73 O 0.79064 0.05029 0.88011 0.0
O74 O 0.79976 0.02727 0.92171 0.0
C75 C 0.78545 0.1484 0.94927 0.0
O76 O 0.79683 0.1718 0.87181 0.0
O77 O 0.81118 0.19841 0.90774 0.0
In78 In 0.95855 0.11022 0.84738 0.0
O79 O 0.96341 0.13056 0.79962 0.0
O80 O 0.98154 0.14575 0.83129 0.0
C81 C 0.92838 0.08224 0.86087 0.0
C82 C 0.9559 0.20833 0.86845 0.0
C83 C 0.9739 0.01982 0.86045 0.0
O84 O 0.93272 0.08809 0.83463 0.0
O85 O 0.93934 0.08861 0.87932 0.0
O86 O 0.97385 0.06009 0.87724 0.0
O87 O 0.9664 0.02581 0.83683 0.0
C88 C 0.97712 0.1502 0.80522 0.0
O89 O 0.96345 0.17226 0.88223 0.0
O90 O 0.9494 0.19386 0.84502 0.0
In91 In 0.81022 0.62007 0.83247 0.0
O92 O 0.80549 0.59343 0.7858 0.0
O93 O 0.78627 0.59132 0.81635 0.0
C94 C 0.84145 0.64194 0.84097 0.0
C95 C 0.80941 0.52387 0.85738 0.0
C96 C 0.79743 0.71715 0.84149 0.0
O97 O 0.83566 0.63599 0.81575 0.0
O98 O 0.83145 0.63757 0.86131 0.0
O99 O 0.7972 0.68075 0.8607 0.0
O100 O 0.80389 0.70402 0.81776 0.0
C101 C 0.79108 0.58044 0.79105 0.0
O102 O 0.80341 0.56453 0.86992 0.0
O103 O 0.81632 0.53292 0.83356 0.0
In104 In 0.05641 0.86468 0.58792 0.0
O105 O 0.05073 0.88254 0.54051 0.0
O106 O 0.03207 0.88838 0.57238 0.0
C107 C 0.08649 0.84954 0.60597 0.0
C108 C 0.05612 0.96719 0.60316 0.0
C109 C 0.04585 0.76497 0.59777 0.0
O110 O 0.08304 0.85004 0.57908 0.0
O111 O 0.07478 0.85584 0.62297 0.0
O112 O 0.0434 0.80295 0.61565 0.0
O113 O 0.05319 0.7781 0.57479 0.0
C114 C 0.03637 0.89573 0.54633 0.0
O115 O 0.04927 0.93172 0.6188 0.0
O116 O 0.06352 0.95001 0.58111 0.0
In117 In 0.20638 0.3723 0.58389 0.0
O118 O 0.21114 0.3476 0.53682 0.0
O119 O 0.23037 0.34566 0.56733 0.0
C120 C 0.17515 0.38924 0.59489 0.0
C121 C 0.20814 0.27586 0.6081 0.0
C122 C 0.21833 0.47051 0.59322 0.0
O123 O 0.18036 0.3845 0.56916 0.0
O124 O 0.18571 0.38653 0.61434 0.0
O125 O 0.2192 0.43352 0.61202 0.0
O126 O 0.21164 0.45745 0.56966 0.0
C127 C 0.2256 0.33524 0.54196 0.0
O128 O 0.21401 0.31676 0.62068 0.0
O129 O 0.20097 0.28468 0.58452 0.0
In130 In 0.05615 0.37194 0.67434 0.0
O131 O 0.04948 0.30594 0.64215 0.0
O132 O 0.06258 0.28588 0.68075 0.0
C133 C 0.04515 0.4701 0.66146 0.0
C134 C 0.03596 0.34199 0.71625 0.0
C135 C 0.08721 0.38838 0.66227 0.0
O136 O 0.0441 0.43133 0.64366 0.0
O137 O 0.05132 0.45856 0.68571 0.0
O138 O 0.08208 0.38764 0.68821 0.0
O139 O 0.07665 0.38158 0.64306 0.0
C140 C 0.05569 0.26967 0.65801 0.0
O141 O 0.05023 0.35641 0.7219 0.0
O142 O 0.03177 0.34723 0.69004 0.0
In143 In 0.21021 0.86567 0.65906 0.0
O144 O 0.21823 0.92344 0.62365 0.0
O145 O 0.20369 0.95219 0.65885 0.0
C146 C 0.22174 0.76673 0.65173 0.0
C147 C 0.22885 0.90354 0.70145 0.0
C148 C 0.17983 0.8471 0.6429 0.0
O149 O 0.22378 0.80344 0.63301 0.0
O150 O 0.21433 0.78074 0.67443 0.0
O151 O 0.18353 0.8532 0.66945 0.0
O152 O 0.19143 0.84943 0.62544 0.0
C153 C 0.21141 0.9629 0.63601 0.0
O154 O 0.21442 0.89003 0.7063 0.0
O155 O 0.23389 0.8937 0.67615 0.0
In156 In 0.95456 0.11899 0.42186 0.0
O157 O 0.96126 0.10152 0.46882 0.0
O158 O 0.97905 0.09215 0.43569 0.0
C159 C 0.92378 0.13941 0.41026 0.0
C160 C 0.95316 0.01672 0.40557 0.0
C161 C 0.96556 0.21746 0.40953 0.0
O162 O 0.92891 0.13706 0.43618 0.0
O163 O 0.93421 0.1319 0.39085 0.0
O164 O 0.96657 0.17906 0.39144 0.0
O165 O 0.95961 0.20516 0.43388 0.0
C166 C 0.97531 0.08629 0.46211 0.0
O167 O 0.96009 0.05174 0.38978 0.0
O168 O 0.94653 0.03434 0.42829 0.0
In169 In 0.80063 0.6121 0.40111 0.0
O170 O 0.79381 0.6352 0.44758 0.0
O171 O 0.77533 0.62762 0.41585 0.0
C172 C 0.8321 0.59167 0.39466 0.0
C173 C 0.80105 0.71127 0.38062 0.0
C174 C 0.78862 0.51955 0.38255 0.0
O175 O 0.82556 0.59157 0.41952 0.0
O176 O 0.82271 0.60071 0.37389 0.0
O177 O 0.78864 0.56139 0.36693 0.0
O178 O 0.79452 0.5249 0.40767 0.0
C179 C 0.77909 0.64018 0.44147 0.0
O180 O 0.79571 0.67278 0.36545 0.0
O181 O 0.80631 0.69897 0.40534 0.0
In182 In 0.95411 0.6124 0.33244 0.0
O183 O 0.95885 0.67794 0.36604 0.0
O184 O 0.94841 0.69868 0.32493 0.0
C185 C 0.96367 0.51249 0.34491 0.0
C186 C 0.97736 0.64173 0.29595 0.0
C187 C 0.92267 0.59578 0.34002 0.0
O188 O 0.96469 0.55044 0.36328 0.0
O189 O 0.95816 0.52569 0.32033 0.0
O190 O 0.92889 0.59715 0.31485 0.0
O191 O 0.93236 0.60233 0.36074 0.0
C192 C 0.9538 0.71453 0.34904 0.0
O193 O 0.96311 0.63426 0.28716 0.0
O194 O 0.97987 0.63017 0.3223 0.0
In195 In 0.80505 0.12223 0.33358 0.0
O196 O 0.80008 0.10205 0.28583 0.0
O197 O 0.78148 0.09181 0.31711 0.0
C198 C 0.83595 0.14609 0.34379 0.0
C199 C 0.80577 0.02475 0.35618 0.0
C200 C 0.79074 0.21345 0.34865 0.0
O201 O 0.8306 0.14209 0.31814 0.0
O202 O 0.82566 0.13968 0.36345 0.0
O203 O 0.79086 0.17262 0.36497 0.0
O204 O 0.7977 0.2078 0.32448 0.0
C205 C 0.78597 0.08582 0.29119 0.0
O206 O 0.79926 0.0634 0.36958 0.0
O207 O 0.8123 0.03625 0.3323 0.0
In208 In 0.55852 0.36021 0.5845 0.0
O209 O 0.55607 0.38506 0.53681 0.0
O210 O 0.53505 0.37553 0.56278 0.0
C211 C 0.589 0.35371 0.60312 0.0
C212 C 0.55112 0.45442 0.60726 0.0
C213 C 0.54894 0.2591 0.59194 0.0
O214 O 0.58568 0.35493 0.57626 0.0
O215 O 0.57706 0.35538 0.61976 0.0
O216 O 0.54605 0.29552 0.61036 0.0
O217 O 0.55657 0.27399 0.56965 0.0
C218 C 0.54097 0.38989 0.5388 0.0
O219 O 0.54617 0.41115 0.61876 0.0
O220 O 0.56034 0.4493 0.58577 0.0
In221 In 0.70806 0.85421 0.5887 0.0
O222 O 0.71195 0.82539 0.54195 0.0
O223 O 0.73212 0.84955 0.56729 0.0
C224 C 0.67714 0.85841 0.6053 0.0
C225 C 0.71594 0.75995 0.61104 0.0
C226 C 0.71648 0.95605 0.59764 0.0
O227 O 0.68104 0.85939 0.57867 0.0
O228 O 0.68874 0.85553 0.62268 0.0
O229 O 0.71955 0.91925 0.61578 0.0
O230 O 0.70918 0.94119 0.57497 0.0
C231 C 0.72707 0.82926 0.54393 0.0
O232 O 0.72001 0.80328 0.62355 0.0
O233 O 0.7074 0.76497 0.58867 0.0
In234 In 0.55231 0.85819 0.65634 0.0
O235 O 0.54719 0.83108 0.70285 0.0
O236 O 0.52763 0.85233 0.67516 0.0
C237 C 0.58325 0.86263 0.64021 0.0
C238 C 0.54566 0.76303 0.63406 0.0
C239 C 0.54475 0.96055 0.6481 0.0
O240 O 0.57929 0.86146 0.66683 0.0
O241 O 0.57169 0.8619 0.62265 0.0
O242 O 0.54142 0.92453 0.6296 0.0
O243 O 0.55172 0.94451 0.67087 0.0
C244 C 0.53213 0.83367 0.6993 0.0
O245 O 0.54146 0.80566 0.62099 0.0
O246 O 0.55358 0.76934 0.65709 0.0
In247 In 0.7126 0.35622 0.66173 0.0
O248 O 0.71559 0.38199 0.70909 0.0
O249 O 0.73632 0.37381 0.68223 0.0
C250 C 0.68207 0.34915 0.64356 0.0
C251 C 0.71883 0.45103 0.63849 0.0
C252 C 0.72148 0.25434 0.65463 0.0
O253 O 0.68547 0.35176 0.67037 0.0
O254 O 0.69398 0.34953 0.62678 0.0
O255 O 0.72463 0.29036 0.63606 0.0
O256 O 0.71422 0.27023 0.67711 0.0
C257 C 0.7306 0.38842 0.70634 0.0
O258 O 0.7242 0.40838 0.62693 0.0
O259 O 0.70991 0.44481 0.66032 0.0
In260 In 0.46027 0.60256 0.4052 0.0
O261 O 0.46481 0.57975 0.45245 0.0
O262 O 0.48366 0.57067 0.4213 0.0
C263 C 0.43059 0.62904 0.38892 0.0
C264 C 0.45743 0.50443 0.3843 0.0
C265 C 0.4731 0.69917 0.39691 0.0
O266 O 0.43417 0.62273 0.41554 0.0
O267 O 0.44208 0.62354 0.37132 0.0
O268 O 0.474 0.66255 0.3778 0.0
O269 O 0.46612 0.68607 0.42025 0.0
C270 C 0.47898 0.56391 0.44712 0.0
O271 O 0.46765 0.53687 0.37374 0.0
O272 O 0.44875 0.52208 0.40457 0.0
In273 In 0.30609 0.1062 0.41672 0.0
O274 O 0.29946 0.1628 0.37971 0.0
O275 O 0.31222 0.19347 0.41652 0.0
C276 C 0.29404 0.00835 0.4064 0.0
C277 C 0.28649 0.14369 0.45796 0.0
C278 C 0.33734 0.08605 0.40766 0.0
O279 O 0.2936 0.04551 0.38763 0.0
O280 O 0.30019 0.02125 0.43045 0.0
O281 O 0.33169 0.09115 0.43306 0.0
O282 O 0.32721 0.09048 0.38757 0.0
C283 C 0.3055 0.2031 0.39259 0.0
O284 O 0.30083 0.13056 0.46358 0.0
O285 O 0.28198 0.13396 0.43235 0.0
In286 In 0.45738 0.09558 0.33553 0.0
O287 O 0.46118 0.12536 0.28891 0.0
O288 O 0.48075 0.12696 0.31861 0.0
C289 C 0.42631 0.07502 0.34568 0.0
C290 C 0.45822 0.19 0.36237 0.0
C291 C 0.46958 -0.00277 0.34268 0.0
O292 O 0.43166 0.08199 0.32017 0.0
O293 O 0.43673 0.07675 0.36547 0.0
O294 O 0.46984 0.03214 0.36267 0.0
O295 O 0.46334 0.01247 0.31912 0.0
C296 C 0.47557 0.13903 0.29377 0.0
O297 O 0.46728 0.15186 0.37036 0.0
O298 O 0.44852 0.17877 0.34233 0.0
In299 In 0.30656 0.61356 0.3397 0.0
O300 O 0.3031 0.58908 0.29229 0.0
O301 O 0.28313 0.58569 0.32128 0.0
C302 C 0.33701 0.63244 0.35545 0.0
C303 C 0.305 0.51642 0.3632 0.0
C304 C 0.29464 0.71223 0.34713 0.0
O305 O 0.33315 0.62712 0.32896 0.0
O306 O 0.32554 0.62915 0.37312 0.0
O307 O 0.29268 0.67531 0.36575 0.0
O308 O 0.30223 0.69864 0.32457 0.0
C309 C 0.28858 0.57581 0.29628 0.0
O310 O 0.29826 0.55632 0.37528 0.0
O311 O 0.3128 0.52657 0.34039 0.0
In312 In 0.55286 0.86442 0.08798 0.0
O313 O 0.54609 0.91974 0.12552 0.0
O314 O 0.55733 0.95258 0.08763 0.0
C315 C 0.54281 0.76448 0.09837 0.0
C316 C 0.53168 0.8971 0.04833 0.0
C317 C 0.58442 0.84941 0.0956 0.0
O318 O 0.54164 0.8015 0.11714 0.0
O319 O 0.54879 0.77846 0.07431 0.0
O320 O 0.57834 0.85251 0.07043 0.0
O321 O 0.57455 0.85318 0.11618 0.0
C322 C 0.55112 0.96104 0.11212 0.0
O323 O 0.54646 0.89299 0.0424 0.0
O324 O 0.52769 0.88093 0.07329 0.0
In325 In 0.70591 0.36913 0.08062 0.0
O326 O 0.71371 0.31343 0.11729 0.0
O327 O 0.70065 0.28126 0.08122 0.0
C328 C 0.71704 0.46855 0.0901 0.0
C329 C 0.72495 0.33385 0.03799 0.0
C330 C 0.67465 0.38494 0.09159 0.0
O331 O 0.71843 0.4314 0.10872 0.0
O332 O 0.71041 0.4549 0.06659 0.0
O333 O 0.6799 0.38072 0.06587 0.0
O334 O 0.68517 0.38203 0.11108 0.0
C335 C 0.7078 0.27246 0.10482 0.0
O336 O 0.7104 0.3457 0.03338 0.0
O337 O 0.72991 0.34374 0.06331 0.0
In338 In 0.55514 0.36957 0.16832 0.0
O339 O 0.54721 0.31428 0.13161 0.0
O340 O 0.56023 0.2817 0.16762 0.0
C341 C 0.54401 0.46866 0.15892 0.0
C342 C 0.53577 0.33399 0.21036 0.0
C343 C 0.58642 0.38535 0.1575 0.0
O344 O 0.54275 0.43164 0.1402 0.0
O345 O 0.55058 0.45509 0.18249 0.0
O346 O 0.58114 0.38113 0.18321 0.0
O347 O 0.57591 0.38251 0.13797 0.0
C348 C 0.55299 0.27315 0.14406 0.0
O349 O 0.55034 0.34518 0.21532 0.0
O350 O 0.53098 0.34482 0.18505 0.0
In351 In 0.70592 0.86345 0.16151 0.0
O352 O 0.71319 0.9191 0.12439 0.0
O353 O 0.70081 0.95142 0.16116 0.0
C354 C 0.71704 0.76442 0.15094 0.0
C355 C 0.72548 0.89864 0.2034 0.0
C356 C 0.67438 0.84781 0.1531 0.0
O357 O 0.71787 0.80169 0.13229 0.0
O358 O 0.71094 0.77771 0.17496 0.0
O359 O 0.68029 0.85178 0.17834 0.0
O360 O 0.68441 0.85078 0.13274 0.0
C361 C 0.70758 0.96014 0.13717 0.0
O362 O 0.71106 0.88594 0.20863 0.0
O363 O 0.7301 0.8897 0.17776 0.0
In364 In 0.46089 0.1289 0.90839 0.0
O365 O 0.46714 0.10402 0.95487 0.0
O366 O 0.48581 0.11018 0.92336 0.0
C367 C 0.42976 0.1517 0.90035 0.0
C368 C 0.46028 0.03068 0.8869 0.0
C369 C 0.47364 0.22161 0.89216 0.0
O370 O 0.43575 0.14934 0.92562 0.0
O371 O 0.43953 0.14381 0.87998 0.0
O372 O 0.47377 0.18065 0.87588 0.0
O373 O 0.46721 0.21521 0.9168 0.0
C374 C 0.48183 0.09741 0.94884 0.0
O375 O 0.46612 0.0693 0.87241 0.0
O376 O 0.4545 0.04254 0.91132 0.0
In377 In 0.30406 0.61289 0.91069 0.0
O378 O 0.29568 0.62819 0.95709 0.0
O379 O 0.27848 0.62989 0.92268 0.0
C380 C 0.33539 0.59344 0.90315 0.0
C381 C 0.30545 0.71623 0.89719 0.0
C382 C 0.29324 0.51936 0.89054 0.0
O383 O 0.32898 0.59108 0.92814 0.0
O384 O 0.32595 0.60487 0.88273 0.0
O385 O 0.2928 0.56201 0.87546 0.0
O386 O 0.29875 0.52468 0.91597 0.0
C387 C 0.28136 0.63734 0.94929 0.0
O388 O 0.30027 0.68186 0.87908 0.0
O389 O 0.31025 0.69782 0.92114 0.0
In390 In 0.45699 0.61867 0.84092 0.0
O391 O 0.46242 0.67794 0.87691 0.0
O392 O 0.45164 0.70597 0.83758 0.0
C393 C 0.46976 0.52723 0.85893 0.0
C394 C 0.47837 0.64696 0.80026 0.0
C395 C 0.42565 0.59606 0.84762 0.0
O396 O 0.46941 0.56877 0.87475 0.0
O397 O 0.4636 0.53211 0.83398 0.0
O398 O 0.4321 0.59715 0.82269 0.0
O399 O 0.43506 0.60533 0.86835 0.0
C400 C 0.45727 0.71722 0.86218 0.0
O401 O 0.46356 0.64359 0.79449 0.0
O402 O 0.4822 0.6329 0.82558 0.0
In403 In 0.30982 0.12195 0.83008 0.0
O404 O 0.3031 0.10937 0.78245 0.0
O405 O 0.28554 0.09472 0.81528 0.0
C406 C 0.34066 0.14645 0.83978 0.0
C407 C 0.3119 0.01917 0.84481 0.0
C408 C 0.29674 0.21287 0.84954 0.0
O409 O 0.33484 0.14662 0.81434 0.0
O410 O 0.33087 0.13475 0.85964 0.0
O411 O 0.29706 0.17037 0.8647 0.0
O412 O 0.30264 0.20871 0.82437 0.0
C413 C 0.28917 0.09237 0.78871 0.0
O414 O 0.30505 0.05311 0.86121 0.0
O415 O 0.31816 0.03798 0.82205 0.0
H416 H 0.05995 0.71288 0.09487 0.0
H417 H 0.05009 0.68076 0.18494 0.0
H418 H 0.0505 0.58402 0.17574 0.0
H419 H 0.05467 0.50823 0.14231 0.0
H420 H 0.06659 0.54061 0.05301 0.0
H421 H 0.06445 0.63707 0.06159 0.0
C422 C 0.05775 0.68452 0.11231 0.0
C423 C 0.05497 0.70347 0.14042 0.0
C424 C 0.05853 0.62895 0.10706 0.0
C425 C 0.05234 0.6667 0.16308 0.0
C426 C 0.05257 0.61148 0.15787 0.0
C427 C 0.05678 0.53652 0.12482 0.0
C428 C 0.06084 0.51751 0.0972 0.0
C429 C 0.05585 0.59208 0.13001 0.0
C430 C 0.0636 0.55442 0.07462 0.0
C431 C 0.06231 0.60959 0.07942 0.0
H432 H 0.21108 0.67316 0.0805 0.0
H433 H 0.20959 0.72497 0.16972 0.0
H434 H 0.21028 0.63106 0.18584 0.0
H435 H 0.21042 0.53516 0.17417 0.0
H436 H 0.21339 0.48338 0.08508 0.0
H437 H 0.21309 0.57735 0.06894 0.0
C438 C 0.21088 0.66373 0.10347 0.0
C439 C 0.21004 0.70518 0.12403 0.0
C440 C 0.21154 0.61024 0.1124 0.0
C441 C 0.21015 0.69319 0.15369 0.0
C442 C 0.21052 0.63978 0.16282 0.0
C443 C 0.21097 0.54459 0.15122 0.0
C444 C 0.21167 0.50311 0.13068 0.0
C445 C 0.21105 0.59814 0.14233 0.0
C446 C 0.21277 0.51518 0.10109 0.0
C447 C 0.21256 0.56862 0.09195 0.0
H448 H 0.95566 0.29243 0.83254 0.0
H449 H 0.9569 0.24954 0.92311 0.0
H450 H 0.95726 0.34506 0.93644 0.0
H451 H 0.95743 0.43966 0.92197 0.0
H452 H 0.95847 0.48244 0.83135 0.0
H453 H 0.95704 0.38703 0.81804 0.0
C454 C 0.95588 0.30417 0.8552 0.0
C455 C 0.95603 0.26477 0.87696 0.0
C456 C 0.95655 0.35854 0.86248 0.0
C457 C 0.95672 0.27974 0.90618 0.0
C458 C 0.95691 0.33404 0.91372 0.0
C459 C 0.95724 0.42798 0.8993 0.0
C460 C 0.95783 0.46736 0.87755 0.0
C461 C 0.95684 0.37361 0.89201 0.0
C462 C 0.95796 0.45231 0.8483 0.0
C463 C 0.95713 0.39806 0.84077 0.0
H464 H 0.80573 0.43642 0.82439 0.0
H465 H 0.80813 0.48862 0.91341 0.0
H466 H 0.80618 0.39483 0.92974 0.0
H467 H 0.805 0.29846 0.91821 0.0
H468 H 0.80097 0.2469 0.82924 0.0
H469 H 0.8022 0.34079 0.81305 0.0
C470 C 0.80583 0.42711 0.84737 0.0
C471 C 0.80736 0.46868 0.8678 0.0
C472 C 0.80439 0.37369 0.85641 0.0
C473 C 0.80707 0.45683 0.89747 0.0
C474 C 0.80598 0.40344 0.90671 0.0
C475 C 0.80436 0.30793 0.89528 0.0
C476 C 0.80314 0.26631 0.87479 0.0
C477 C 0.80484 0.36163 0.88633 0.0
C478 C 0.80195 0.27862 0.84524 0.0
C479 C 0.80272 0.33207 0.83606 0.0
H480 H 0.05288 0.01689 0.65515 0.0
H481 H 0.05682 0.04684 0.56337 0.0
H482 H 0.05579 0.14373 0.57178 0.0
H483 H 0.05496 0.22035 0.60554 0.0
H484 H 0.0534 0.19017 0.69752 0.0
H485 H 0.05223 0.09338 0.68888 0.0
C486 C 0.05341 0.04479 0.63709 0.0
C487 C 0.05496 0.02516 0.60879 0.0
C488 C 0.05328 0.10044 0.64213 0.0
C489 C 0.05577 0.06137 0.58543 0.0
C490 C 0.05514 0.1167 0.59018 0.0
C491 C 0.05424 0.1924 0.62355 0.0
C492 C 0.05429 0.21191 0.65201 0.0
C493 C 0.05408 0.13675 0.61847 0.0
C494 C 0.05351 0.17568 0.67536 0.0
C495 C 0.05281 0.12043 0.67047 0.0
H496 H 0.21159 0.05103 0.66924 0.0
H497 H 0.21443 -0.00166 0.58032 0.0
H498 H 0.21414 0.09223 0.56392 0.0
H499 H 0.21143 0.18821 0.57513 0.0
H500 H 0.20999 0.24116 0.66411 0.0
H501 H 0.21149 0.14743 0.68059 0.0
C502 C 0.2122 0.06027 0.64627 0.0
C503 C 0.21275 0.01844 0.62584 0.0
C504 C 0.21223 0.11387 0.63721 0.0
C505 C 0.21392 0.03031 0.59625 0.0
C506 C 0.2137 0.08374 0.58695 0.0
C507 C 0.21147 0.17907 0.59814 0.0
C508 C 0.21031 0.22082 0.61852 0.0
C509 C 0.21257 0.12565 0.60726 0.0
C510 C 0.21078 0.20921 0.64821 0.0
C511 C 0.21159 0.15586 0.65754 0.0
H512 H 0.95732 0.96741 0.35353 0.0
H513 H 0.94987 0.93613 0.4445 0.0
H514 H 0.95035 0.83945 0.4356 0.0
H515 H 0.95224 0.76328 0.40169 0.0
H516 H 0.95767 0.79479 0.31031 0.0
H517 H 0.95871 0.89138 0.31953 0.0
C518 C 0.95585 0.93929 0.37132 0.0
C519 C 0.95353 0.95864 0.39952 0.0
C520 C 0.95577 0.8837 0.36598 0.0
C521 C 0.95153 0.92201 0.42248 0.0
C522 C 0.95186 0.86673 0.41747 0.0
C523 C 0.95374 0.79146 0.38393 0.0
C524 C 0.95486 0.77231 0.35547 0.0
C525 C 0.95388 0.84706 0.38929 0.0
C526 C 0.95665 0.80892 0.33246 0.0
C527 C 0.95728 0.86409 0.33768 0.0
H528 H 0.80069 0.79819 0.41469 0.0
H529 H 0.80128 0.74846 0.32508 0.0
H530 H 0.80312 0.84264 0.30971 0.0
H531 H 0.80526 0.93797 0.32214 0.0
H532 H 0.80312 0.98804 0.4116 0.0
H533 H 0.80123 0.89384 0.427 0.0
C534 C 0.80122 0.80811 0.39179 0.0
C535 C 0.80105 0.76709 0.37093 0.0
C536 C 0.80208 0.86181 0.38329 0.0
C537 C 0.80142 0.77986 0.34137 0.0
C538 C 0.80253 0.83341 0.33266 0.0
C539 C 0.80447 0.9281 0.34502 0.0
C540 C 0.80458 0.96911 0.36588 0.0
C541 C 0.80303 0.87451 0.35348 0.0
C542 C 0.80315 0.95657 0.39535 0.0
C543 C 0.80207 0.90301 0.40408 0.0
H544 H 0.54049 0.67631 0.66688 0.0
H545 H 0.54318 0.72937 0.578 0.0
H546 H 0.54328 0.63557 0.56154 0.0
H547 H 0.54665 0.54007 0.57332 0.0
H548 H 0.5441 0.48702 0.66222 0.0
H549 H 0.53971 0.58 0.67813 0.0
C550 C 0.54082 0.66714 0.64387 0.0
C551 C 0.54217 0.70891 0.62355 0.0
C552 C 0.54109 0.61364 0.63481 0.0
C553 C 0.54222 0.69737 0.59385 0.0
C554 C 0.5424 0.64397 0.58454 0.0
C555 C 0.54497 0.549 0.59615 0.0
C556 C 0.54609 0.50773 0.6168 0.0
C557 C 0.54251 0.60203 0.60494 0.0
C558 C 0.54344 0.51876 0.64617 0.0
C559 C 0.54099 0.57168 0.65518 0.0
H560 H 0.72132 0.67413 0.57759 0.0
H561 H 0.72124 0.72716 0.6666 0.0
H562 H 0.72437 0.6339 0.68297 0.0
H563 H 0.72314 0.53762 0.67168 0.0
H564 H 0.72313 0.48448 0.58272 0.0
H565 H 0.7243 0.57826 0.56623 0.0
C566 C 0.72221 0.66514 0.60057 0.0
C567 C 0.72069 0.70658 0.62104 0.0
C568 C 0.72389 0.6119 0.60961 0.0
C569 C 0.72225 0.69538 0.65065 0.0
C570 C 0.72396 0.64227 0.65992 0.0
C571 C 0.72363 0.54677 0.64868 0.0
C572 C 0.72269 0.50506 0.62827 0.0
C573 C 0.72416 0.60025 0.63959 0.0
C574 C 0.72373 0.51648 0.59862 0.0
C575 C 0.7243 0.56986 0.58928 0.0
H576 H 0.47916 0.42652 0.39261 0.0
H577 H 0.43202 0.45798 0.35923 0.0
H578 H 0.42762 0.36164 0.35171 0.0
H579 H 0.43707 0.26944 0.35517 0.0
H580 H 0.48384 0.23581 0.38994 0.0
H581 H 0.48841 0.33231 0.39747 0.0
C582 C 0.46812 0.41193 0.38307 0.0
C583 C 0.45608 0.44846 0.37549 0.0
C584 C 0.46549 0.35652 0.3799 0.0
C585 C 0.44153 0.42997 0.36434 0.0
C586 C 0.43896 0.37515 0.36042 0.0
C587 C 0.44821 0.28317 0.36467 0.0
C588 C 0.46011 0.24591 0.37201 0.0
C589 C 0.4508 0.33818 0.36836 0.0
C590 C 0.47445 0.26397 0.38445 0.0
C591 C 0.47713 0.31904 0.38837 0.0
H592 H 0.30467 0.4276 0.33041 0.0
H593 H 0.30163 0.48193 0.41902 0.0
H594 H 0.30122 0.3883 0.43586 0.0
H595 H 0.3031 0.29182 0.42515 0.0
H596 H 0.30453 0.23739 0.33643 0.0
H597 H 0.30411 0.33098 0.31952 0.0
C598 C 0.30388 0.41878 0.35342 0.0
C599 C 0.30344 0.46102 0.37362 0.0
C600 C 0.3034 0.36531 0.36272 0.0
C601 C 0.30205 0.44968 0.40325 0.0
C602 C 0.30187 0.39637 0.4128 0.0
C603 C 0.3033 0.3006 0.4021 0.0
C604 C 0.30412 0.25838 0.38193 0.0
C605 C 0.30277 0.35402 0.39272 0.0
C606 C 0.30398 0.26964 0.35218 0.0
C607 C 0.30378 0.32293 0.3426 0.0
H608 H 0.55177 0.18344 0.17615 0.0
H609 H 0.54928 0.2406 0.08798 0.0
H610 H 0.54777 0.14761 0.07043 0.0
H611 H 0.54876 0.05081 0.08035 0.0
H612 H 0.55011 -0.00638 0.16861 0.0
H613 H 0.55032 0.08669 0.18628 0.0
C614 C 0.55087 0.17541 0.15309 0.0
C615 C 0.55091 0.21824 0.13322 0.0
C616 C 0.54982 0.12231 0.14336 0.0
C617 C 0.54936 0.2079 0.10351 0.0
C618 C 0.54854 0.15495 0.09355 0.0
C619 C 0.54904 0.05883 0.10347 0.0
C620 C 0.54967 0.01596 0.12327 0.0
C621 C 0.54901 0.11197 0.11329 0.0
C622 C 0.54967 0.02635 0.15312 0.0
C623 C 0.54986 0.07934 0.16313 0.0
H624 H 0.70951 0.05004 0.16901 0.0
H625 H 0.70959 -0.00734 0.08078 0.0
H626 H 0.71017 0.08566 0.06302 0.0
H627 H 0.70914 0.18256 0.07293 0.0
H628 H 0.71043 0.23993 0.16113 0.0
H629 H 0.71094 0.14692 0.17887 0.0
C630 C 0.70969 0.05803 0.14588 0.0
C631 C 0.70924 0.0151 0.12609 0.0
C632 C 0.71025 0.11115 0.13601 0.0
C633 C 0.70986 0.02541 0.09626 0.0
C634 C 0.71014 0.07838 0.08618 0.0
C635 C 0.70958 0.17456 0.09605 0.0
C636 C 0.70949 0.21749 0.11584 0.0
C637 C 0.71009 0.12143 0.1059 0.0
C638 C 0.71042 0.20717 0.14565 0.0
C639 C 0.71067 0.1542 0.15571 0.0
H640 H 0.45888 0.80396 0.82808 0.0
H641 H 0.45872 0.75404 0.91768 0.0
H642 H 0.45986 0.84825 0.93315 0.0
H643 H 0.46012 0.94378 0.92087 0.0
H644 H 0.46159 -0.00625 0.83132 0.0
H645 H 0.46082 0.89945 0.81581 0.0
C646 C 0.45904 0.81385 0.851 0.0
C647 C 0.45847 0.77285 0.87186 0.0
C648 C 0.45995 0.86751 0.85954 0.0
C649 C 0.45907 0.78546 0.90142 0.0
C650 C 0.4597 0.83904 0.91019 0.0
C651 C 0.46024 0.93392 0.89795 0.0
C652 C 0.46067 0.97497 0.87712 0.0
C653 C 0.46 0.88021 0.8894 0.0
C654 C 0.4612 0.96229 0.84756 0.0
C655 C 0.46071 0.90868 0.83877 0.0
H656 H 0.30999 0.76626 0.84581 0.0
H657 H 0.30146 0.79506 0.93666 0.0
H658 H 0.30248 0.89212 0.92862 0.0
H659 H 0.30614 0.96875 0.89577 0.0
H660 H 0.31657 0.93982 0.80551 0.0
H661 H 0.31461 0.84298 0.81326 0.0
C662 C 0.30826 0.79401 0.86369 0.0
C663 C 0.30559 0.77414 0.89165 0.0
C664 C 0.30934 0.84958 0.85908 0.0
C665 C 0.30359 0.80994 0.91491 0.0
C666 C 0.30416 0.86528 0.91036 0.0
C667 C 0.30801 0.94111 0.87789 0.0
C668 C 0.31149 0.96106 0.85021 0.0
C669 C 0.30713 0.88554 0.88256 0.0
C670 C 0.31399 0.92514 0.82713 0.0
C671 C 0.3128 0.86983 0.83147 0.0
H672 H 0.00879 0.52725 0.9342 0.0
H673 H 0.97729 0.56804 0.00495 0.0
H674 H 0.99242 0.50888 0.03725 0.0
H675 H 0.01442 0.44533 0.04519 0.0
H676 H 0.0461 0.40525 0.97461 0.0
H677 H 0.03082 0.46376 0.94217 0.0
C678 C 1.0053 0.52365 0.95677 0.0
C679 C 0.99197 0.55238 0.96722 0.0
C680 C 0.01392 0.48906 0.97505 0.0
C681 C 0.98755 0.54675 0.99643 0.0
C682 C 0.99614 0.51266 0.01483 0.0
C683 C 0.01789 0.44882 0.02261 0.0
C684 C 0.03131 0.42051 0.01224 0.0
C685 C 0.00926 0.48334 0.00431 0.0
C686 C 0.03576 0.4262 0.98306 0.0
C687 C 0.02709 0.45992 0.96457 0.0
H688 H 0.28733 0.70413 0.99437 0.0
H689 H 0.24897 0.63433 0.94464 0.0
H690 H 0.22954 0.69018 0.97043 0.0
H691 H 0.22351 0.76031 0.00672 0.0
H692 H 0.26214 0.8312 0.05549 0.0
H693 H 0.28139 0.77468 0.03005 0.0
C694 C 0.27468 0.70041 0.98963 0.0
C695 C 0.26954 0.66453 0.96804 0.0
C696 C 0.26365 0.7339 0.00387 0.0
C697 C 0.25317 0.66122 0.96149 0.0
C698 C 0.24208 0.69349 0.97602 0.0
C699 C 0.23617 0.764 0.01137 0.0
C700 C 0.2414 0.80025 0.03276 0.0
C701 C 0.2472 0.73055 0.997 0.0
C702 C 0.25782 0.80386 0.03896 0.0
C703 C 0.26884 0.77123 0.0246 0.0
H704 H 0.03654 0.76909 0.24588 0.0
H705 H 0.99988 0.83484 0.19068 0.0
H706 H 0.97984 0.77776 0.21402 0.0
H707 H 0.97275 0.70797 0.24975 0.0
H708 H 0.00946 0.64216 0.30485 0.0
H709 H 0.02947 0.69933 0.28155 0.0
C710 C 0.02411 0.7716 0.23935 0.0
C711 C 0.01966 0.80666 0.21685 0.0
C712 C 0.01271 0.73765 0.25239 0.0
C713 C 1.00357 0.80854 0.20815 0.0
C714 C 0.99213 0.77558 0.22132 0.0
C715 C 0.98518 0.70548 0.25626 0.0
C716 C 0.98965 0.67038 0.27874 0.0
C717 C 0.99658 0.73945 0.24321 0.0
C718 C 1.00574 0.6685 0.2874 0.0
C719 C 0.01717 0.70151 0.27426 0.0
H720 H 0.25889 0.43323 0.19671 0.0
H721 H 0.22321 0.40583 0.26271 0.0
H722 H 0.23781 0.46489 0.29592 0.0
H723 H 0.26035 0.52548 0.30573 0.0
H724 H 0.29611 0.55261 0.23986 0.0
H725 H 0.28161 0.49305 0.20673 0.0
C726 C 0.25437 0.43965 0.21848 0.0
C727 C 0.24001 0.41486 0.2273 0.0
C728 C 0.26269 0.47428 0.23722 0.0
C729 C 0.23428 0.42406 0.25547 0.0
C730 C 0.24257 0.45813 0.27437 0.0
C731 C 0.26491 0.51885 0.28401 0.0
C732 C 0.27922 0.54392 0.27514 0.0
C733 C 0.25668 0.48387 0.26535 0.0
C734 C 0.28507 0.53421 0.24711 0.0
C735 C 0.27683 0.4999 0.22825 0.0
H736 H 0.75654 0.1937 0.93954 0.0
H737 H 0.79254 0.17366 0.0056 0.0
H738 H 0.77729 0.23178 0.0383 0.0
H739 H 0.75392 0.28883 0.04778 0.0
H740 H 0.71794 0.30876 0.98167 0.0
H741 H 0.73321 0.25074 0.94899 0.0
C742 C 0.761 0.20155 0.9612 0.0
C743 C 0.77561 0.17902 0.97022 0.0
C744 C 0.75231 0.23563 0.97963 0.0
C745 C 0.78128 0.19015 0.99822 0.0
C746 C 0.77261 0.22365 0.01683 0.0
C747 C 0.74948 0.281 0.0261 0.0
C748 C 0.73486 0.30346 0.01706 0.0
C749 C 0.75819 0.24693 0.00766 0.0
C750 C 0.7292 0.29233 0.98905 0.0
C751 C 0.73788 0.25889 0.97045 0.0
H752 H 1.00396 0.20719 0.81642 0.0
H753 H 0.97129 0.16693 0.74738 0.0
H754 H 0.9861 0.22589 0.71428 0.0
H755 H 0.00837 0.28838 0.7051 0.0
H756 H 0.04105 0.32786 0.77429 0.0
H757 H 0.02592 0.27032 0.80749 0.0
C758 C 1.00012 0.21089 0.79405 0.0
C759 C 0.98661 0.18225 0.78429 0.0
C760 C 0.00854 0.24532 0.77537 0.0
C761 C 0.98171 0.18812 0.75536 0.0
C762 C 0.99012 0.22207 0.7365 0.0
C763 C 0.01208 0.285 0.72756 0.0
C764 C 0.02578 0.31273 0.73729 0.0
C765 C 1.00351 0.25103 0.74633 0.0
C766 C 0.03051 0.3073 0.76632 0.0
C767 C 0.02193 0.27412 0.78524 0.0
H768 H 0.76012 0.42894 0.69702 0.0
H769 H 0.72275 0.42083 0.76137 0.0
H770 H 0.73798 0.48176 0.79275 0.0
H771 H 0.76166 0.53839 0.80129 0.0
H772 H 0.79866 0.54757 0.73623 0.0
H773 H 0.78359 0.48579 0.70532 0.0
C774 C 0.75537 0.43986 0.71808 0.0
C775 C 0.74039 0.41985 0.72702 0.0
C776 C 0.76397 0.47584 0.73556 0.0
C777 C 0.73431 0.43523 0.75414 0.0
C778 C 0.74296 0.47035 0.77196 0.0
C779 C 0.76637 0.52733 0.78021 0.0
C780 C 0.78124 0.54787 0.77097 0.0
C781 C 0.75772 0.49133 0.76273 0.0
C782 C 0.78721 0.53272 0.74374 0.0
C783 C 0.77865 0.49709 0.72616 0.0
H784 H 1.00301 0.0349 0.44921 0.0
H785 H 0.97062 0.06743 0.5199 0.0
H786 H 0.98622 0.00857 0.55154 0.0
H787 H 0.00874 0.94713 0.55887 0.0
H788 H 0.04134 0.91493 0.48849 0.0
H789 H 0.02572 0.9737 0.45668 0.0
C790 C 0.99945 0.02966 0.47165 0.0
C791 C 0.98571 0.05591 0.48225 0.0
C792 C 0.00833 -0.00492 0.48955 0.0
C793 C 0.98119 0.04811 0.51127 0.0
C794 C 0.99004 0.01414 0.5293 0.0
C795 C 0.01235 0.95237 0.53646 0.0
C796 C 0.02611 0.92617 0.52596 0.0
C797 C 1.00352 0.98704 0.51858 0.0
C798 C 0.03072 0.93417 0.49701 0.0
C799 C 0.02186 0.96808 0.47891 0.0
H800 H 0.25792 0.19011 0.44627 0.0
H801 H 0.29271 0.16997 0.51443 0.0
H802 H 0.27725 0.2299 0.54578 0.0
H803 H 0.25411 0.28867 0.55349 0.0
H804 H 0.21923 0.30869 0.48549 0.0
H805 H 0.23468 0.24873 0.45407 0.0
C806 C 0.26205 0.19833 0.46811 0.0
C807 C 0.2764 0.17525 0.4781 0.0
C808 C 0.25323 0.23344 0.48579 0.0
C809 C 0.28166 0.18686 0.50631 0.0
C810 C 0.27287 0.22139 0.52415 0.0
C811 C 0.24995 0.28044 0.53168 0.0
C812 C 0.23559 0.30354 0.52173 0.0
C813 C 0.25873 0.24526 0.51401 0.0
C814 C 0.23029 0.29181 0.49356 0.0
C815 C 0.23907 0.25727 0.47569 0.0
H816 H 0.25639 0.95643 0.68988 0.0
H817 H 0.22279 0.92439 0.75875 0.0
H818 H 0.23802 0.98318 0.79124 0.0
H819 H 0.26093 0.04301 0.79995 0.0
H820 H 0.2944 0.07532 0.73086 0.0
H821 H 0.27891 0.0178 0.69823 0.0
C822 C 0.25246 0.96184 0.71209 0.0
C823 C 0.23857 0.9355 0.72202 0.0
C824 C 0.2611 -0.00362 0.73038 0.0
C825 C 0.23351 0.94376 0.75069 0.0
C826 C 0.24216 0.9776 0.76918 0.0
C827 C 0.26475 0.03805 0.77764 0.0
C828 C 0.27879 0.06367 0.7678 0.0
C829 C 0.25593 0.00425 0.7592 0.0
C830 C 0.2836 0.05642 0.73891 0.0
C831 C 0.27481 0.0232 0.72034 0.0
H832 H 0.78503 0.71915 0.48032 0.0
H833 H 0.74699 0.62386 0.44384 0.0
H834 H 0.72719 0.67669 0.47057 0.0
H835 H 0.72071 0.75068 0.50429 0.0
H836 H 0.75891 0.8476 0.53926 0.0
H837 H 0.77854 0.79461 0.51262 0.0
C838 C 0.77242 0.70941 0.47869 0.0
C839 C 0.76746 0.66707 0.46067 0.0
C840 C 0.7611 0.74117 0.49329 0.0
C841 C 0.75107 0.65585 0.45797 0.0
C842 C 0.73975 0.68634 0.47302 0.0
C843 C 0.7333 0.76082 0.50557 0.0
C844 C 0.73832 0.80326 0.52356 0.0
C845 C 0.7446 0.72951 0.49053 0.0
C846 C 0.75471 0.81532 0.52542 0.0
C847 C 0.76598 0.78473 0.5104 0.0
H848 H 0.75384 0.94743 0.19235 0.0
H849 H 0.71944 0.91966 0.2605 0.0
H850 H 0.73485 0.97743 0.2931 0.0
H851 H 0.75778 0.03651 0.30192 0.0
H852 H 0.79225 0.06469 0.23396 0.0
H853 H 0.7769 0.00665 0.20127 0.0
C854 C 0.7498 0.9535 0.21445 0.0
C855 C 0.73556 0.92892 0.22409 0.0
C856 C 0.75857 0.98747 0.23286 0.0
C857 C 0.73039 0.93779 0.25264 0.0
C858 C 0.73915 0.97107 0.2712 0.0
C859 C 0.76189 0.03043 0.27986 0.0
C860 C 0.77609 0.05524 0.27029 0.0
C861 C 0.75316 -0.00355 0.26145 0.0
C862 C 0.78131 0.04643 0.24176 0.0
C863 C 0.77258 0.01298 0.22316 0.0
H864 H 0.50878 0.52426 0.4386 0.0
H865 H 0.47139 0.536 0.5028 0.0
H866 H 0.48704 0.48033 0.536 0.0
H867 H 0.51111 0.42807 0.54651 0.0
H868 H 0.54892 0.41803 0.4831 0.0
H869 H 0.53313 0.47278 0.44946 0.0
C870 C 0.50409 0.515 0.45995 0.0
C871 C 0.48894 0.53442 0.46828 0.0
C872 C 0.5131 0.48272 0.4788 0.0
C873 C 0.48303 0.52186 0.49594 0.0
C874 C 0.49194 0.48977 0.51484 0.0
C875 C 0.51586 0.43726 0.52519 0.0
C876 C 0.53111 0.41845 0.51713 0.0
C877 C 0.50691 0.4697 0.50639 0.0
C878 C 0.53717 0.4316 0.48967 0.0
C879 C 0.52819 0.46314 0.47055 0.0
H880 H 0.53765 0.75514 0.7391 0.0
H881 H 0.50025 0.85281 0.70231 0.0
H882 H 0.48009 0.80069 0.72839 0.0
H883 H 0.47297 0.72589 0.76091 0.0
H884 H 0.51032 0.62912 0.7984 0.0
H885 H 0.53055 0.68122 0.77231 0.0
C886 C 0.52511 0.76563 0.73729 0.0
C887 C 0.52046 0.80809 0.71905 0.0
C888 C 0.51353 0.73468 0.75186 0.0
C889 C 0.50414 0.82053 0.71641 0.0
C890 C 0.49258 0.79044 0.7311 0.0
C891 C 0.48552 0.71566 0.76288 0.0
C892 C 0.49016 0.67322 0.7811 0.0
C893 C 0.49711 0.74688 0.74852 0.0
C894 C 0.50648 0.66127 0.78417 0.0
C895 C 0.51805 0.69134 0.76948 0.0
H896 H 0.50413 0.18539 0.305 0.0
H897 H 0.46823 0.17023 0.23836 0.0
H898 H 0.48332 0.23232 0.20743 0.0
H899 H 0.50668 0.29051 0.19951 0.0
H900 H 0.54256 0.30521 0.26623 0.0
H901 H 0.52725 0.2443 0.29736 0.0
C902 C 0.49965 0.19523 0.28359 0.0
C903 C 0.48514 0.1728 0.27384 0.0
C904 C 0.50824 0.23146 0.26622 0.0
C905 C 0.47942 0.18657 0.24623 0.0
C906 C 0.48799 0.2223 0.22865 0.0
C907 C 0.51107 0.28095 0.22101 0.0
C908 C 0.52571 0.30265 0.23064 0.0
C909 C 0.50237 0.24516 0.23851 0.0
C910 C 0.5313 0.28937 0.25841 0.0
C911 C 0.5226 0.25426 0.27611 0.0
H912 H 0.47484 0.02526 0.99124 0.0
H913 H 0.51418 0.10273 0.9475 0.0
H914 H 0.53314 0.04475 0.97283 0.0
H915 H 0.53853 0.97055 0.00662 0.0
H916 H 0.49924 0.89278 0.05038 0.0
H917 H 0.48027 0.95127 0.02537 0.0
C918 C 0.48758 0.03009 0.98774 0.0
C919 C 0.49313 0.06859 0.96783 0.0
C920 C 0.4984 -0.00439 0.00181 0.0
C921 C 0.50965 0.07363 0.96295 0.0
C922 C 0.52048 0.04019 0.97722 0.0
C923 C 0.5258 0.96583 0.01027 0.0
C924 C 0.52027 0.92698 0.03 0.0
C925 C 0.51499 0.00047 0.99635 0.0
C926 C 0.50376 0.9221 0.03504 0.0
C927 C 0.49292 0.95583 0.02095 0.0
H928 H 0.16723 0.32102 0.0991 0.0
H929 H 0.15472 0.32505 0.18984 0.0
H930 H 0.1263 0.32529 0.17708 0.0
H931 H 0.10516 0.32997 0.14006 0.0
H932 H 0.11784 0.32761 0.04937 0.0
H933 H 0.14613 0.32095 0.06224 0.0
C934 C 0.15829 0.32145 0.11615 0.0
C935 C 0.16309 0.32325 0.14542 0.0
C936 C 0.14204 0.32223 0.10863 0.0
C937 C 0.15135 0.32364 0.16718 0.0
C938 C 0.13511 0.32399 0.15987 0.0
C939 C 0.1141 0.32763 0.12308 0.0
C940 C 0.1094 0.3296 0.09375 0.0
C941 C 0.13034 0.32418 0.13066 0.0
C942 C 0.12113 0.3263 0.07206 0.0
C943 C 0.1373 0.32257 0.07942 0.0
H944 H 0.10167 0.88573 0.10307 0.0
H945 H 0.11115 0.88267 0.19501 0.0
H946 H 0.1399 0.88573 0.18541 0.0
H947 H 0.16224 0.88464 0.15097 0.0
H948 H 0.15293 0.88682 0.05899 0.0
H949 H 0.12412 0.88922 0.06855 0.0
C950 C 0.11002 0.88604 0.12105 0.0
C951 C 0.10426 0.88365 0.14977 0.0
C952 C 0.12652 0.88757 0.11533 0.0
C953 C 0.11524 0.88438 0.17275 0.0
C954 C 0.13168 0.88604 0.16725 0.0
C955 C 0.15393 0.88603 0.13296 0.0
C956 C 0.15973 0.88528 0.10426 0.0
C957 C 0.13744 0.88696 0.13864 0.0
C958 C 0.14879 0.88736 0.08124 0.0
C959 C 0.13232 0.88855 0.08672 0.0
H960 H 0.85583 0.65367 0.89337 0.0
H961 H 0.86584 0.64833 0.80163 0.0
H962 H 0.89449 0.65464 0.81161 0.0
H963 H 0.91664 0.65553 0.84638 0.0
H964 H 0.9068 0.65832 0.93819 0.0
H965 H 0.87805 0.6598 0.92818 0.0
C966 C 0.86427 0.65433 0.87552 0.0
C967 C 0.8587 0.65019 0.84676 0.0
C968 C 0.88072 0.65741 0.88145 0.0
C969 C 0.8698 0.65129 0.82392 0.0
C970 C 0.88618 0.65482 0.82963 0.0
C971 C 0.90823 0.65705 0.86425 0.0
C972 C 0.91386 0.65657 0.89304 0.0
C973 C 0.89177 0.65702 0.85831 0.0
C974 C 0.90278 0.65866 0.91588 0.0
C975 C 0.88635 0.65928 0.91014 0.0
H976 H 0.90138 0.08265 0.82747 0.0
H977 H 0.91768 0.06498 0.91567 0.0
H978 H 0.89018 0.06396 0.93294 0.0
H979 H 0.8614 0.0747 0.92353 0.0
H980 H 0.84506 0.09208 0.83534 0.0
H981 H 0.87246 0.08644 0.81773 0.0
C982 C 0.89889 0.07777 0.8504 0.0
C983 C 0.91159 0.07427 0.8702 0.0
C984 C 0.88297 0.0777 0.86033 0.0
C985 C 0.90814 0.06803 0.89989 0.0
C986 C 0.89239 0.0676 0.90987 0.0
C987 C 0.86384 0.07683 0.90047 0.0
C988 C 0.8512 0.08426 0.88088 0.0
C989 C 0.8797 0.07355 0.89038 0.0
C990 C 0.85457 0.0866 0.85099 0.0
C991 C 0.87026 0.08342 0.84083 0.0
H992 H 0.15202 0.84845 0.67416 0.0
H993 H 0.17037 0.83254 0.58715 0.0
H994 H 0.14328 0.82975 0.56796 0.0
H995 H 0.11422 0.83638 0.57541 0.0
H996 H 0.09583 0.85219 0.66239 0.0
H997 H 0.12289 0.85023 0.68185 0.0
C998 C 0.15007 0.84389 0.65106 0.0
C999 C 0.16323 0.84101 0.63219 0.0
C1000 C 0.13438 0.84257 0.64001 0.0
C1001 C 0.16047 0.83507 0.60224 0.0
C1002 C 0.14496 0.83354 0.59117 0.0
C1003 C 0.11614 0.83902 0.59862 0.0
C1004 C 0.10301 0.84472 0.61732 0.0
C1005 C 0.1318 0.83799 0.60978 0.0
C1006 C 0.10572 0.84794 0.6474 0.0
C1007 C 0.12121 0.84688 0.65862 0.0
H1008 H 0.10004 0.39103 0.60825 0.0
H1009 H 0.11284 0.39818 0.69877 0.0
H1010 H 0.14117 0.40188 0.68563 0.0
H1011 H 0.16224 0.39882 0.64857 0.0
H1012 H 0.14948 0.39019 0.55807 0.0
H1013 H 0.12111 0.39167 0.57108 0.0
C1014 C 0.10901 0.39373 0.62514 0.0
C1015 C 0.10433 0.39411 0.6545 0.0
C1016 C 0.12525 0.39545 0.61741 0.0
C1017 C 0.11612 0.39775 0.67605 0.0
C1018 C 0.13231 0.39978 0.66853 0.0
C1019 C 0.15326 0.39764 0.63163 0.0
C1020 C 0.15798 0.39422 0.60235 0.0
C1021 C 0.13701 0.39803 0.6393 0.0
C1022 C 0.14618 0.39282 0.58073 0.0
C1023 C 0.12996 0.39353 0.58818 0.0
H1024 H 0.84893 0.15537 0.39729 0.0
H1025 H 0.86148 0.15072 0.30658 0.0
H1026 H 0.88989 0.15146 0.31937 0.0
H1027 H 0.91099 0.14716 0.35639 0.0
H1028 H 0.89832 0.14969 0.44708 0.0
H1029 H 0.87002 0.15623 0.43418 0.0
C1030 C 0.85787 0.15506 0.38025 0.0
C1031 C 0.8531 0.15271 0.35098 0.0
C1032 C 0.87412 0.15472 0.38779 0.0
C1033 C 0.86484 0.15251 0.32923 0.0
C1034 C 0.88107 0.15271 0.33656 0.0
C1035 C 0.90206 0.14952 0.37337 0.0
C1036 C 0.90675 0.14756 0.4027 0.0
C1037 C 0.88583 0.15281 0.36577 0.0
C1038 C 0.89502 0.15096 0.42438 0.0
C1039 C 0.87885 0.15461 0.41701 0.0
H1040 H 0.90759 0.58758 0.39204 0.0
H1041 H 0.89866 0.58989 0.29991 0.0
H1042 H 0.86987 0.58554 0.30894 0.0
H1043 H 0.8473 0.58594 0.34292 0.0
H1044 H 0.85607 0.58453 0.43508 0.0
H1045 H 0.88494 0.58317 0.42611 0.0
C1046 C 0.89935 0.58681 0.3739 0.0
C1047 C 0.90528 0.5894 0.34529 0.0
C1048 C 0.88282 0.58454 0.37928 0.0
C1049 C 0.89443 0.58806 0.32209 0.0
C1050 C 0.87797 0.58565 0.32726 0.0
C1051 C 0.85551 0.58491 0.3611 0.0
C1052 C 0.84953 0.58561 0.38968 0.0
C1053 C 0.87204 0.58459 0.35575 0.0
C1054 C 0.86034 0.58401 0.41292 0.0
C1055 C 0.87685 0.58343 0.40777 0.0
H1056 H 0.61719 0.34757 0.57322 0.0
H1057 H 0.5978 0.35511 0.6598 0.0
H1058 H 0.62465 0.35341 0.68017 0.0
H1059 H 0.65386 0.35123 0.6736 0.0
H1060 H 0.67323 0.34342 0.587 0.0
H1061 H 0.64637 0.3436 0.56668 0.0
C1062 C 0.61886 0.34872 0.59652 0.0
C1063 C 0.60549 0.35154 0.61488 0.0
C1064 C 0.6344 0.34768 0.60822 0.0
C1065 C 0.60787 0.35293 0.64508 0.0
C1066 C 0.62325 0.35199 0.65683 0.0
C1067 C 0.65218 0.34935 0.65031 0.0
C1068 C 0.66556 0.34739 0.63193 0.0
C1069 C 0.63663 0.34955 0.63863 0.0
C1070 C 0.66316 0.34501 0.60174 0.0
C1071 C 0.64778 0.34515 0.59002 0.0
H1072 H 0.61093 0.85985 0.67192 0.0
H1073 H 0.5932 0.8678 0.58422 0.0
H1074 H 0.62041 0.86766 0.5655 0.0
H1075 H 0.64948 0.86418 0.57374 0.0
H1076 H 0.66724 0.85599 0.6614 0.0
H1077 H 0.64003 0.85733 0.68017 0.0
C1078 C 0.61304 0.86171 0.64874 0.0
C1079 C 0.60001 0.8638 0.62959 0.0
C1080 C 0.62882 0.86147 0.63797 0.0
C1081 C 0.60298 0.86612 0.59956 0.0
C1082 C 0.61857 0.86602 0.58875 0.0
C1083 C 0.64738 0.86278 0.59692 0.0
C1084 C 0.66042 0.85996 0.61604 0.0
C1085 C 0.63161 0.86352 0.60771 0.0
C1086 C 0.65746 0.85816 0.64609 0.0
C1087 C 0.64186 0.85892 0.65693 0.0
H1088 H 0.40325 0.63822 0.42087 0.0
H1089 H 0.42077 0.63733 0.3329 0.0
H1090 H 0.3935 0.64097 0.31451 0.0
H1091 H 0.36444 0.63853 0.32326 0.0
H1092 H 0.347 0.63987 0.4113 0.0
H1093 H 0.37428 0.64228 0.4296 0.0
C1094 C 0.40109 0.63944 0.3977 0.0
C1095 C 0.41404 0.63717 0.37837 0.0
C1096 C 0.38532 0.64129 0.38717 0.0
C1097 C 0.41103 0.63888 0.34835 0.0
C1098 C 0.39541 0.64082 0.33775 0.0
C1099 C 0.36663 0.63984 0.34642 0.0
C1100 C 0.35368 0.63859 0.36581 0.0
C1101 C 0.38243 0.64111 0.35693 0.0
C1102 C 0.35673 0.64053 0.39581 0.0
C1103 C 0.37235 0.64184 0.40637 0.0
H1104 H 0.41253 0.07002 0.39894 0.0
H1105 H 0.40131 0.07015 0.30764 0.0
H1106 H 0.37276 0.07061 0.31903 0.0
H1107 H 0.35111 0.07622 0.35477 0.0
H1108 H 0.36222 0.07869 0.44609 0.0
H1109 H 0.39076 0.07175 0.43483 0.0
C1110 C 0.40384 0.0696 0.38151 0.0
C1111 C 0.40905 0.07016 0.35244 0.0
C1112 C 0.38746 0.07066 0.38824 0.0
C1113 C 0.39763 0.06974 0.33016 0.0
C1114 C 0.38131 0.07015 0.33667 0.0
C1115 C 0.35975 0.07488 0.37227 0.0
C1116 C 0.35454 0.07821 0.40127 0.0
C1117 C 0.3761 0.07145 0.36561 0.0
C1118 C 0.36591 0.0763 0.42362 0.0
C1119 C 0.38222 0.07241 0.41717 0.0
H1120 H 0.65981 0.8427 0.10064 0.0
H1121 H 0.64997 0.84284 0.19249 0.0
H1122 H 0.62125 0.84085 0.18255 0.0
H1123 H 0.59904 0.84311 0.14786 0.0
H1124 H 0.6088 0.84471 0.05599 0.0
H1125 H 0.63754 0.84175 0.06587 0.0
C1126 C 0.65139 0.84194 0.11852 0.0
C1127 C 0.65702 0.84308 0.14731 0.0
C1128 C 0.63492 0.8413 0.11262 0.0
C1129 C 0.64595 0.84205 0.17017 0.0
C1130 C 0.62954 0.841 0.16449 0.0
C1131 C 0.60744 0.8425 0.12994 0.0
C1132 C 0.60178 0.84432 0.10119 0.0
C1133 C 0.6239 0.84124 0.13581 0.0
C1134 C 0.61284 0.8434 0.07829 0.0
C1135 C 0.62926 0.84179 0.08394 0.0
H1136 H 0.66155 0.39073 0.14527 0.0
H1137 H 0.64917 0.39006 0.05447 0.0
H1138 H 0.62077 0.39282 0.06709 0.0
H1139 H 0.59954 0.39132 0.10387 0.0
H1140 H 0.6119 0.38998 0.19467 0.0
H1141 H 0.64032 0.39238 0.18207 0.0
C1142 C 0.65265 0.39153 0.1282 0.0
C1143 C 0.65748 0.39002 0.09893 0.0
C1144 C 0.63637 0.3926 0.13563 0.0
C1145 C 0.64578 0.39112 0.07712 0.0
C1146 C 0.62955 0.39262 0.08434 0.0
C1147 C 0.60844 0.3919 0.12095 0.0
C1148 C 0.60361 0.39031 0.15021 0.0
C1149 C 0.62472 0.39275 0.11352 0.0
C1150 C 0.6153 0.39112 0.17202 0.0
C1151 C 0.63154 0.3924 0.16481 0.0
H1152 H 0.4157 0.16355 0.84789 0.0
H1153 H 0.40501 0.15481 0.93929 0.0
H1154 H 0.37636 0.15605 0.92843 0.0
H1155 H 0.35452 0.15291 0.89281 0.0
H1156 H 0.3653 0.16017 0.8014 0.0
H1157 H 0.39385 0.16655 0.81246 0.0
C1158 C 0.40712 0.16243 0.8655 0.0
C1159 C 0.41248 0.15871 0.8944 0.0
C1160 C 0.39072 0.16258 0.85906 0.0
C1161 C 0.4012 0.15764 0.91691 0.0
C1162 C 0.38482 0.15814 0.91068 0.0
C1163 C 0.3631 0.15634 0.87528 0.0
C1164 C 0.3578 0.15565 0.84627 0.0
C1165 C 0.37947 0.15955 0.88182 0.0
C1166 C 0.36906 0.1605 0.82386 0.0
C1167 C 0.38538 0.16399 0.83019 0.0
H1168 H 0.41073 0.58484 0.89942 0.0
H1169 H 0.40159 0.59055 0.80742 0.0
H1170 H 0.37278 0.58704 0.81669 0.0
H1171 H 0.3503 0.58836 0.85103 0.0
H1172 H 0.35946 0.58334 0.94304 0.0
H1173 H 0.38825 0.58023 0.93364 0.0
C1174 C 0.40245 0.58486 0.88134 0.0
C1175 C 0.4083 0.58834 0.85272 0.0
C1176 C 0.38594 0.58322 0.88687 0.0
C1177 C 0.39741 0.58795 0.8296 0.0
C1178 C 0.38094 0.58614 0.83492 0.0
C1179 C 0.35858 0.58618 0.86906 0.0
C1180 C 0.35274 0.5865 0.89775 0.0
C1181 C 0.37509 0.5847 0.86348 0.0
C1182 C 0.36363 0.58324 0.92081 0.0
C1183 C 0.38009 0.58162 0.91542 0.0
H1184 H 0.04306 0.00818 0.09741 0.0
H1185 H 0.04441 0.04856 0.1883 0.0
H1186 H 0.04359 0.14423 0.17641 0.0
H1187 H 0.04538 0.21647 0.1401 0.0
H1188 H 0.04573 0.17582 0.04921 0.0
H1189 H 0.04281 0.08061 0.06112 0.0
C1190 C 0.04289 0.03792 0.1146 0.0
C1191 C 0.04388 0.02131 0.14367 0.0
C1192 C 0.04284 0.09298 0.10759 0.0
C1193 C 0.04374 0.06033 0.16573 0.0
C1194 C 0.04331 0.11509 0.15895 0.0
C1195 C 0.04451 0.18683 0.12292 0.0
C1196 C 0.04583 0.20313 0.09384 0.0
C1197 C 0.04328 0.13192 0.12995 0.0
C1198 C 0.04481 0.16424 0.07179 0.0
C1199 C 0.04318 0.10975 0.07858 0.0
H1200 H 0.22795 0.04066 0.07968 0.0
H1201 H 0.22548 0.97851 0.16691 0.0
H1202 H 0.229 0.06902 0.18638 0.0
H1203 H 0.22852 0.16645 0.17834 0.0
H1204 H 0.23086 0.22873 0.09113 0.0
H1205 H 0.23204 0.13738 0.07189 0.0
C1206 C 0.22848 0.04694 0.10294 0.0
C1207 C 0.22612 0.0035 0.12187 0.0
C1208 C 0.2304 0.099 0.11395 0.0
C1209 C 0.22712 0.01164 0.15194 0.0
C1210 C 0.22907 0.06334 0.16309 0.0
C1211 C 0.22965 0.15995 0.15517 0.0
C1212 C 0.22927 0.20389 0.13612 0.0
C1213 C 0.23008 0.10746 0.14427 0.0
C1214 C 0.231 0.1953 0.10619 0.0
C1215 C 0.23156 0.14312 0.09516 0.0
H1216 H 0.98387 0.79999 0.92181 0.0
H1217 H 0.98029 0.74419 0.83351 0.0
H1218 H 0.9819 0.83669 0.81594 0.0
H1219 H 0.97925 0.93308 0.82644 0.0
H1220 H 0.98235 -0.01129 0.91486 0.0
H1221 H 0.9863 0.89659 0.93163 0.0
C1222 C 0.98384 0.80808 0.8987 0.0
C1223 C 0.9816 0.76576 0.87899 0.0
C1224 C 0.98448 0.86128 0.88882 0.0
C1225 C 0.98186 0.77635 0.84909 0.0
C1226 C 0.98267 0.82922 0.83904 0.0
C1227 C 0.98116 0.92507 0.8493 0.0
C1228 C 0.98014 0.96717 0.86948 0.0
C1229 C 0.98318 0.87202 0.85881 0.0
C1230 C 0.98292 0.9567 0.89896 0.0
C1231 C 0.9851 0.90404 0.90858 0.0
H1232 H 0.78787 0.96673 0.84655 0.0
H1233 H 0.78898 0.93293 0.93823 0.0
H1234 H 0.78815 0.83643 0.92835 0.0
H1235 H 0.79108 0.76235 0.89366 0.0
H1236 H 0.79235 0.79662 0.80201 0.0
H1237 H 0.7881 0.89208 0.81178 0.0
C1238 C 0.78752 0.93821 0.86435 0.0
C1239 C 0.78859 0.95669 0.89304 0.0
C1240 C 0.7877 0.88285 0.85847 0.0
C1241 C 0.78826 0.91946 0.91594 0.0
C1242 C 0.78785 0.86433 0.9103 0.0
C1243 C 0.79009 0.7906 0.87583 0.0
C1244 C 0.79218 0.77271 0.84721 0.0
C1245 C 0.78819 0.8456 0.88165 0.0
C1246 C 0.79092 0.80964 0.82427 0.0
C1247 C 0.78852 0.86421 0.82983 0.0
H1248 H 0.03938 0.72107 0.65038 0.0
H1249 H 0.04437 0.6813 0.55983 0.0
H1250 H 0.04236 0.58558 0.57127 0.0
H1251 H 0.04239 0.51307 0.60756 0.0
H1252 H 0.03955 0.55314 0.69837 0.0
H1253 H 0.03731 0.64851 0.68634 0.0
C1254 C 0.03971 0.69146 0.63312 0.0
C1255 C 0.04209 0.70816 0.60434 0.0
C1256 C 0.03906 0.6364 0.63996 0.0
C1257 C 0.04262 0.66937 0.5822 0.0
C1258 C 0.04151 0.61462 0.58872 0.0
C1259 C 0.04094 0.54264 0.62465 0.0
C1260 C 0.04119 0.5262 0.65378 0.0
C1261 C 0.0402 0.5976 0.61761 0.0
C1262 C 0.03946 0.56491 0.67576 0.0
C1263 C 0.03823 0.61946 0.66891 0.0
H1264 H 0.22375 0.51545 0.64574 0.0
H1265 H 0.22331 0.55084 0.5542 0.0
H1266 H 0.22707 0.64643 0.56447 0.0
H1267 H 0.22681 0.72055 0.5995 0.0
H1268 H 0.22467 0.68568 0.69101 0.0
H1269 H 0.22586 0.58928 0.68082 0.0
C1270 C 0.22481 0.54401 0.62805 0.0
C1271 C 0.22314 0.52638 0.59929 0.0
C1272 C 0.22638 0.59903 0.63416 0.0
C1273 C 0.22444 0.56368 0.57654 0.0
C1274 C 0.22656 0.6183 0.5824 0.0
C1275 C 0.22699 0.69184 0.61721 0.0
C1276 C 0.22557 0.70996 0.64592 0.0
C1277 C 0.22701 0.63658 0.61113 0.0
C1278 C 0.22567 0.67248 0.6687 0.0
C1279 C 0.22629 0.61742 0.66289 0.0
H1280 H 0.9689 0.46918 0.39825 0.0
H1281 H 0.96628 0.42832 0.3075 0.0
H1282 H 0.96876 0.33297 0.31931 0.0
H1283 H 0.96877 0.26067 0.35569 0.0
H1284 H 0.96973 0.30143 0.44655 0.0
H1285 H 0.97104 0.39698 0.43448 0.0
C1286 C 0.96914 0.43945 0.38105 0.0
C1287 C 0.9673 0.45578 0.35208 0.0
C1288 C 0.97018 0.3845 0.38804 0.0
C1289 C 0.96757 0.41677 0.33002 0.0
C1290 C 0.96897 0.36219 0.33674 0.0
C1291 C 0.96961 0.29045 0.37281 0.0
C1292 C 0.9691 0.27404 0.40195 0.0
C1293 C 0.96987 0.34547 0.36572 0.0
C1294 C 0.97003 0.31309 0.42392 0.0
C1295 C 0.97073 0.36777 0.41705 0.0
H1296 H 0.78574 0.30223 0.31612 0.0
H1297 H 0.78291 0.24207 0.40373 0.0
H1298 H 0.77942 0.3334 0.42198 0.0
H1299 H 0.78187 0.43037 0.41355 0.0
H1300 H 0.78509 0.49072 0.32605 0.0
H1301 H 0.78343 0.39915 0.30712 0.0
C1302 C 0.78402 0.30912 0.33913 0.0
C1303 C 0.78495 0.26597 0.35864 0.0
C1304 C 0.78225 0.36167 0.34948 0.0
C1305 C 0.7824 0.27495 0.38834 0.0
C1306 C 0.78049 0.32712 0.39881 0.0
C1307 C 0.78188 0.42343 0.39033 0.0
C1308 C 0.78397 0.46671 0.3712 0.0
C1309 C 0.78114 0.37084 0.37967 0.0
C1310 C 0.78364 0.45771 0.34116 0.0
C1311 C 0.78278 0.40542 0.33034 0.0
H1312 H 0.54196 0.00823 0.59589 0.0
H1313 H 0.54211 0.04091 0.68771 0.0
H1314 H 0.54125 0.1376 0.67809 0.0
H1315 H 0.54337 0.21225 0.64364 0.0
H1316 H 0.5461 0.17929 0.55198 0.0
H1317 H 0.54277 0.08309 0.56135 0.0
C1318 C 0.54151 0.03659 0.61375 0.0
C1319 C 0.54211 0.0179 0.64241 0.0
C1320 C 0.54167 0.09189 0.60804 0.0
C1321 C 0.54172 0.05473 0.66545 0.0
C1322 C 0.54126 0.10987 0.65997 0.0
C1323 C 0.54296 0.18401 0.62573 0.0
C1324 C 0.545 0.20242 0.59722 0.0
C1325 C 0.54167 0.12886 0.63136 0.0
C1326 C 0.54462 0.16568 0.57414 0.0
C1327 C 0.54274 0.11082 0.57948 0.0
H1328 H 0.72417 0.20691 0.60238 0.0
H1329 H 0.72413 0.17357 0.69412 0.0
H1330 H 0.72449 0.07686 0.68428 0.0
H1331 H 0.72195 0.00245 0.64962 0.0
H1332 H 0.71916 0.03656 0.55808 0.0
H1333 H 0.72285 0.13247 0.5677 0.0
C1334 C 0.72457 0.1784 0.62017 0.0
C1335 C 0.72415 0.19696 0.64888 0.0
C1336 C 0.72408 0.12315 0.61435 0.0
C1337 C 0.72443 0.15989 0.67183 0.0
C1338 C 0.72458 0.10474 0.66621 0.0
C1339 C 0.72239 0.03089 0.6318 0.0
C1340 C 0.72025 0.01282 0.60324 0.0
C1341 C 0.72396 0.08597 0.63757 0.0
C1342 C 0.72069 0.04984 0.58028 0.0
C1343 C 0.7228 0.10456 0.58575 0.0
H1344 H 0.47685 0.74673 0.34459 0.0
H1345 H 0.47883 0.77769 0.43651 0.0
H1346 H 0.48043 0.87431 0.42736 0.0
H1347 H 0.4771 0.94969 0.39369 0.0
H1348 H 0.47286 0.91867 0.30199 0.0
H1349 H 0.47648 0.82251 0.3105 0.0
C1350 C 0.47806 0.77462 0.36254 0.0
C1351 C 0.4776 0.7554 0.39115 0.0
C1352 C 0.47832 0.83014 0.35716 0.0
C1353 C 0.47905 0.79179 0.41428 0.0
C1354 C 0.47989 0.84699 0.40908 0.0
C1355 C 0.47729 0.92197 0.37553 0.0
C1356 C 0.47452 0.94102 0.34733 0.0
C1357 C 0.47888 0.86665 0.38067 0.0
C1358 C 0.47482 0.90478 0.32397 0.0
C1359 C 0.47686 0.84981 0.32881 0.0
H1360 H 0.28781 0.75772 0.39899 0.0
H1361 H 0.29229 0.79349 0.30785 0.0
H1362 H 0.28996 0.88961 0.31803 0.0
H1363 H 0.29037 0.96341 0.35335 0.0
H1364 H 0.2883 0.92746 0.44474 0.0
H1365 H 0.28574 0.83161 0.43402 0.0
C1366 C 0.28791 0.78652 0.38132 0.0
C1367 C 0.29032 0.76873 0.35276 0.0
C1368 C 0.28717 0.84174 0.38744 0.0
C1369 C 0.29055 0.80639 0.33006 0.0
C1370 C 0.28927 0.86132 0.33586 0.0
C1371 C 0.289 0.93465 0.37086 0.0
C1372 C 0.28963 0.95227 0.39977 0.0
C1373 C 0.28813 0.87951 0.36456 0.0
C1374 C 0.28796 0.91468 0.4223 0.0
C1375 C 0.28654 0.8599 0.41619 0.0
H1376 H 0.53864 0.51326 0.10633 0.0
H1377 H 0.5405 0.55039 0.19761 0.0
H1378 H 0.53797 0.64623 0.18684 0.0
H1379 H 0.53864 0.71958 0.15129 0.0
H1380 H 0.53904 0.68246 0.05995 0.0
H1381 H 0.53709 0.58652 0.07087 0.0
C1382 C 0.53817 0.54229 0.12387 0.0
C1383 C 0.53986 0.52502 0.15267 0.0
C1384 C 0.53728 0.59734 0.11746 0.0
C1385 C 0.53933 0.56293 0.17522 0.0
C1386 C 0.53792 0.61768 0.16908 0.0
C1387 C 0.53799 0.69051 0.1338 0.0
C1388 C 0.5391 0.70784 0.1049 0.0
C1389 C 0.53741 0.63542 0.14025 0.0
C1390 C 0.53832 0.66988 0.0824 0.0
C1391 C 0.53724 0.61507 0.08862 0.0
H1392 H 0.72241 0.51338 0.14273 0.0
H1393 H 0.72016 0.55066 0.0515 0.0
H1394 H 0.72229 0.6466 0.06231 0.0
H1395 H 0.72136 0.7199 0.09791 0.0
H1396 H 0.72143 0.68252 0.18922 0.0
H1397 H 0.72379 0.58674 0.17823 0.0
C1398 C 0.72272 0.54248 0.12521 0.0
C1399 C 0.72103 0.52514 0.0964 0.0
C1400 C 0.7234 0.59761 0.13164 0.0
C1401 C 0.72134 0.56319 0.07389 0.0
C1402 C 0.72252 0.61802 0.08005 0.0
C1403 C 0.72222 0.69083 0.11537 0.0
C1404 C 0.72111 0.70807 0.14429 0.0
C1405 C 0.72304 0.63575 0.10888 0.0
C1406 C 0.72214 0.67006 0.16675 0.0
C1407 C 0.72346 0.61532 0.16049 0.0
H1408 H 0.47823 0.31072 0.92443 0.0
H1409 H 0.47974 0.25157 0.83653 0.0
H1410 H 0.48118 0.34356 0.81823 0.0
H1411 H 0.47714 0.43974 0.82715 0.0
H1412 H 0.47502 0.49878 0.91501 0.0
H1413 H 0.47892 0.40773 0.93351 0.0
C1414 C 0.47922 0.31804 0.90131 0.0
C1415 C 0.47849 0.27491 0.88178 0.0
C1416 C 0.47973 0.37085 0.89097 0.0
C1417 C 0.48011 0.28445 0.85193 0.0
C1418 C 0.48083 0.33696 0.84145 0.0
C1419 C 0.47784 0.43268 0.85032 0.0
C1420 C 0.47541 0.47524 0.86975 0.0
C1421 C 0.47987 0.38036 0.86074 0.0
C1422 C 0.47667 0.46623 0.8997 0.0
C1423 C 0.47884 0.41425 0.91027 0.0
H1424 H 0.29129 0.30487 0.81975 0.0
H1425 H 0.29127 0.23829 0.90613 0.0
H1426 H 0.28817 0.32827 0.92661 0.0
H1427 H 0.28915 0.42622 0.92004 0.0
H1428 H 0.28931 0.49287 0.83368 0.0
H1429 H 0.28842 0.40239 0.81306 0.0
C1430 C 0.29032 0.31002 0.84303 0.0
C1431 C 0.29176 0.26526 0.86144 0.0
C1432 C 0.28869 0.36184 0.85464 0.0
C1433 C 0.29028 0.27225 0.89153 0.0
C1434 C 0.28859 0.32369 0.90326 0.0
C1435 C 0.2887 0.42091 0.89671 0.0
C1436 C 0.28955 0.46596 0.87838 0.0
C1437 C 0.28835 0.36886 0.88505 0.0
C1438 C 0.28875 0.45871 0.84822 0.0
C1439 C 0.28832 0.407 0.83643 0.0
loop_
_geom_bond_atom_site_label_1
_geom_bond_atom_site_label_2
_geom_bond_distance
_geom_bond_site_symmetry_2
_ccdc_geom_bond_type
In0 O1 2.294 . S
In0 O2 2.326 . S
In0 O6 2.266 . S
In0 O7 2.326 . S
In0 O8 2.266 . S
In0 O9 2.326 . S
In0 O11 2.294 . S
In0 O12 2.326 . S
O1 In0 2.294 . S
O1 C10 1.240 . S
O2 In0 2.326 . S
O2 C10 1.252 . S
C3 O6 1.252 . S
C3 O7 1.260 . S
C4 O11 1.240 . S
C4 O12 1.252 . S
C5 O8 1.252 . S
C5 O9 1.260 . S
O6 In0 2.266 . S
O6 C3 1.252 . S
O7 In0 2.326 . S
O7 C3 1.260 . S
O8 In0 2.266 . S
O8 C5 1.252 . S
O9 In0 2.326 . S
O9 C5 1.260 . S
C10 O1 1.240 . S
C10 O2 1.252 . S
O11 In0 2.294 . S
O11 C4 1.240 . S
O12 In0 2.326 . S
O12 C4 1.252 . S
In13 O14 2.294 . S
In13 O15 2.326 . S
In13 O19 2.266 . S
In13 O20 2.326 . S
In13 O21 2.266 . S
In13 O22 2.326 . S
In13 O24 2.294 . S
In13 O25 2.326 . S
O14 In13 2.294 . S
O14 C23 1.240 . S
O15 In13 2.326 . S
O15 C23 1.252 . S
C16 O19 1.252 . S
C16 O20 1.260 . S
C17 O24 1.240 . S
C17 O25 1.252 . S
C18 O21 1.252 . S
C18 O22 1.260 . S
O19 In13 2.266 . S
O19 C16 1.252 . S
O20 In13 2.326 . S
O20 C16 1.260 . S
O21 In13 2.266 . S
O21 C18 1.252 . S
O22 In13 2.326 . S
O22 C18 1.260 . S
C23 O14 1.240 . S
C23 O15 1.252 . S
O24 In13 2.294 . S
O24 C17 1.240 . S
O25 In13 2.326 . S
O25 C17 1.252 . S
In26 O27 2.294 . S
In26 O28 2.326 . S
In26 O32 2.266 . S
In26 O33 2.326 . S
In26 O34 2.266 . S
In26 O35 2.326 . S
In26 O37 2.294 . S
In26 O38 2.326 . S
O27 In26 2.294 . S
O27 C36 1.240 . S
O28 In26 2.326 . S
O28 C36 1.252 . S
C29 O32 1.252 . S
C29 O33 1.260 . S
C30 O37 1.240 . S
C30 O38 1.252 . S
C31 O34 1.252 . S
C31 O35 1.260 . S
O32 In26 2.266 . S
O32 C29 1.252 . S
O33 In26 2.326 . S
O33 C29 1.260 . S
O34 In26 2.266 . S
O34 C31 1.252 . S
O35 In26 2.326 . S
O35 C31 1.260 . S
C36 O27 1.240 . S
C36 O28 1.252 . S
O37 In26 2.294 . S
O37 C30 1.240 . S
O38 In26 2.326 . S
O38 C30 1.252 . S
In39 O40 2.294 . S
In39 O41 2.326 . S
In39 O45 2.266 . S
In39 O46 2.326 . S
In39 O47 2.266 . S
In39 O48 2.326 . S
In39 O50 2.294 . S
In39 O51 2.326 . S
O40 In39 2.294 . S
O40 C49 1.240 . S
O41 In39 2.326 . S
O41 C49 1.252 . S
C42 O45 1.252 . S
C42 O46 1.260 . S
C43 O50 1.240 . S
C43 O51 1.252 . S
C44 O47 1.252 . S
C44 O48 1.260 . S
O45 In39 2.266 . S
O45 C42 1.252 . S
O46 In39 2.326 . S
O46 C42 1.260 . S
O47 In39 2.266 . S
O47 C44 1.252 . S
O48 In39 2.326 . S
O48 C44 1.260 . S
C49 O40 1.240 . S
C49 O41 1.252 . S
O50 In39 2.294 . S
O50 C43 1.240 . S
O51 In39 2.326 . S
O51 C43 1.252 . S
In52 O53 2.294 . S
In52 O54 2.326 . S
In52 O58 2.266 . S
In52 O59 2.326 . S
In52 O60 2.266 . S
In52 O61 2.326 . S
In52 O63 2.294 . S
In52 O64 2.326 . S
O53 In52 2.294 . S
O53 C62 1.240 . S
O54 In52 2.326 . S
O54 C62 1.252 . S
C55 O58 1.252 . S
C55 O59 1.260 . S
C56 O63 1.240 . S
C56 O64 1.252 . S
C57 O60 1.252 . S
C57 O61 1.260 . S
O58 In52 2.266 . S
O58 C55 1.252 . S
O59 In52 2.326 . S
O59 C55 1.260 . S
O60 In52 2.266 . S
O60 C57 1.252 . S
O61 In52 2.326 . S
O61 C57 1.260 . S
C62 O53 1.240 . S
C62 O54 1.252 . S
O63 In52 2.294 . S
O63 C56 1.240 . S
O64 In52 2.326 . S
O64 C56 1.252 . S
In65 O66 2.294 . S
In65 O67 2.326 . S
In65 O71 2.266 . S
In65 O72 2.326 . S
In65 O73 2.266 . S
In65 O74 2.326 . S
In65 O76 2.294 . S
In65 O77 2.326 . S
O66 In65 2.294 . S
O66 C75 1.240 . S
O67 In65 2.326 . S
O67 C75 1.252 . S
C68 O71 1.252 . S
C68 O72 1.260 . S
C69 O76 1.240 . S
C69 O77 1.252 . S
C70 O73 1.252 . S
C70 O74 1.260 . S
O71 In65 2.266 . S
O71 C68 1.252 . S
O72 In65 2.326 . S
O72 C68 1.260 . S
O73 In65 2.266 . S
O73 C70 1.252 . S
O74 In65 2.326 . S
O74 C70 1.260 . S
C75 O66 1.240 . S
C75 O67 1.252 . S
O76 In65 2.294 . S
O76 C69 1.240 . S
O77 In65 2.326 . S
O77 C69 1.252 . S
In78 O79 2.294 . S
In78 O80 2.326 . S
In78 O84 2.266 . S
In78 O85 2.326 . S
In78 O86 2.266 . S
In78 O87 2.326 . S
In78 O89 2.294 . S
In78 O90 2.326 . S
O79 In78 2.294 . S
O79 C88 1.240 . S
O80 In78 2.326 . S
O80 C88 1.252 . S
C81 O84 1.252 . S
C81 O85 1.260 . S
C82 O89 1.240 . S
C82 O90 1.252 . S
C83 O86 1.252 . S
C83 O87 1.260 . S
O84 In78 2.266 . S
O84 C81 1.252 . S
O85 In78 2.326 . S
O85 C81 1.260 . S
O86 In78 2.266 . S
O86 C83 1.252 . S
O87 In78 2.326 . S
O87 C83 1.260 . S
C88 O79 1.240 . S
C88 O80 1.252 . S
O89 In78 2.294 . S
O89 C82 1.240 . S
O90 In78 2.326 . S
O90 C82 1.252 . S
In91 O92 2.294 . S
In91 O93 2.326 . S
In91 O97 2.266 . S
In91 O98 2.326 . S
In91 O99 2.266 . S
In91 O100 2.326 . S
In91 O102 2.294 . S
In91 O103 2.326 . S
O92 In91 2.294 . S
O92 C101 1.240 . S
O93 In91 2.326 . S
O93 C101 1.252 . S
C94 O97 1.252 . S
C94 O98 1.260 . S
C95 O102 1.240 . S
C95 O103 1.252 . S
C96 O99 1.252 . S
C96 O100 1.260 . S
O97 In91 2.266 . S
O97 C94 1.252 . S
O98 In91 2.326 . S
O98 C94 1.260 . S
O99 In91 2.266 . S
O99 C96 1.252 . S
O100 In91 2.326 . S
O100 C96 1.260 . S
C101 O92 1.240 . S
C101 O93 1.252 . S
O102 In91 2.294 . S
O102 C95 1.240 . S
O103 In91 2.326 . S
O103 C95 1.252 . S
In104 O105 2.294 . S
In104 O106 2.326 . S
In104 O110 2.266 . S
In104 O111 2.326 . S
In104 O112 2.266 . S
In104 O113 2.326 . S
In104 O115 2.294 . S
In104 O116 2.326 . S
O105 In104 2.294 . S
O105 C114 1.240 . S
O106 In104 2.326 . S
O106 C114 1.252 . S
C107 O110 1.252 . S
C107 O111 1.260 . S
C108 O115 1.240 . S
C108 O116 1.252 . S
C109 O112 1.252 . S
C109 O113 1.260 . S
O110 In104 2.266 . S
O110 C107 1.252 . S
O111 In104 2.326 . S
O111 C107 1.260 . S
O112 In104 2.266 . S
O112 C109 1.252 . S
O113 In104 2.326 . S
O113 C109 1.260 . S
C114 O105 1.240 . S
C114 O106 1.252 . S
O115 In104 2.294 . S
O115 C108 1.240 . S
O116 In104 2.326 . S
O116 C108 1.252 . S
In117 O118 2.294 . S
In117 O119 2.326 . S
In117 O123 2.266 . S
In117 O124 2.326 . S
In117 O125 2.266 . S
In117 O126 2.326 . S
In117 O128 2.294 . S
In117 O129 2.326 . S
O118 In117 2.294 . S
O118 C127 1.240 . S
O119 In117 2.326 . S
O119 C127 1.252 . S
C120 O123 1.252 . S
C120 O124 1.260 . S
C121 O128 1.240 . S
C121 O129 1.252 . S
C122 O125 1.252 . S
C122 O126 1.260 . S
O123 In117 2.266 . S
O123 C120 1.252 . S
O124 In117 2.326 . S
O124 C120 1.260 . S
O125 In117 2.266 . S
O125 C122 1.252 . S
O126 In117 2.326 . S
O126 C122 1.260 . S
C127 O118 1.240 . S
C127 O119 1.252 . S
O128 In117 2.294 . S
O128 C121 1.240 . S
O129 In117 2.326 . S
O129 C121 1.252 . S
In130 O131 2.294 . S
In130 O132 2.326 . S
In130 O136 2.266 . S
In130 O137 2.326 . S
In130 O138 2.266 . S
In130 O139 2.326 . S
In130 O141 2.294 . S
In130 O142 2.326 . S
O131 In130 2.294 . S
O131 C140 1.240 . S
O132 In130 2.326 . S
O132 C140 1.252 . S
C133 O136 1.252 . S
C133 O137 1.260 . S
C134 O141 1.240 . S
C134 O142 1.252 . S
C135 O138 1.252 . S
C135 O139 1.260 . S
O136 In130 2.266 . S
O136 C133 1.252 . S
O137 In130 2.326 . S
O137 C133 1.260 . S
O138 In130 2.266 . S
O138 C135 1.252 . S
O139 In130 2.326 . S
O139 C135 1.260 . S
C140 O131 1.240 . S
C140 O132 1.252 . S
O141 In130 2.294 . S
O141 C134 1.240 . S
O142 In130 2.326 . S
O142 C134 1.252 . S
In143 O144 2.294 . S
In143 O145 2.326 . S
In143 O149 2.266 . S
In143 O150 2.326 . S
In143 O151 2.266 . S
In143 O152 2.326 . S
In143 O154 2.294 . S
In143 O155 2.326 . S
O144 In143 2.294 . S
O144 C153 1.240 . S
O145 In143 2.326 . S
O145 C153 1.252 . S
C146 O149 1.252 . S
C146 O150 1.260 . S
C147 O154 1.240 . S
C147 O155 1.252 . S
C148 O151 1.252 . S
C148 O152 1.260 . S
O149 In143 2.266 . S
O149 C146 1.252 . S
O150 In143 2.326 . S
O150 C146 1.260 . S
O151 In143 2.266 . S
O151 C148 1.252 . S
O152 In143 2.326 . S
O152 C148 1.260 . S
C153 O144 1.240 . S
C153 O145 1.252 . S
O154 In143 2.294 . S
O154 C147 1.240 . S
O155 In143 2.326 . S
O155 C147 1.252 . S
In156 O157 2.294 . S
In156 O158 2.326 . S
In156 O162 2.266 . S
In156 O163 2.326 . S
In156 O164 2.266 . S
In156 O165 2.326 . S
In156 O167 2.294 . S
In156 O168 2.326 . S
O157 In156 2.294 . S
O157 C166 1.240 . S
O158 In156 2.326 . S
O158 C166 1.252 . S
C159 O162 1.252 . S
C159 O163 1.260 . S
C160 O167 1.240 . S
C160 O168 1.252 . S
C161 O164 1.252 . S
C161 O165 1.260 . S
O162 In156 2.266 . S
O162 C159 1.252 . S
O163 In156 2.326 . S
O163 C159 1.260 . S
O164 In156 2.266 . S
O164 C161 1.252 . S
O165 In156 2.326 . S
O165 C161 1.260 . S
C166 O157 1.240 . S
C166 O158 1.252 . S
O167 In156 2.294 . S
O167 C160 1.240 . S
O168 In156 2.326 . S
O168 C160 1.252 . S
In169 O170 2.294 . S
In169 O171 2.326 . S
In169 O175 2.266 . S
In169 O176 2.326 . S
In169 O177 2.266 . S
In169 O178 2.326 . S
In169 O180 2.294 . S
In169 O181 2.326 . S
O170 In169 2.294 . S
O170 C179 1.240 . S
O171 In169 2.326 . S
O171 C179 1.252 . S
C172 O175 1.252 . S
C172 O176 1.260 . S
C173 O180 1.240 . S
C173 O181 1.252 . S
C174 O177 1.252 . S
C174 O178 1.260 . S
O175 In169 2.266 . S
O175 C172 1.252 . S
O176 In169 2.326 . S
O176 C172 1.260 . S
O177 In169 2.266 . S
O177 C174 1.252 . S
O178 In169 2.326 . S
O178 C174 1.260 . S
C179 O170 1.240 . S
C179 O171 1.252 . S
O180 In169 2.294 . S
O180 C173 1.240 . S
O181 In169 2.326 . S
O181 C173 1.252 . S
In182 O183 2.294 . S
In182 O184 2.326 . S
In182 O188 2.266 . S
In182 O189 2.326 . S
In182 O190 2.266 . S
In182 O191 2.326 . S
In182 O193 2.294 . S
In182 O194 2.326 . S
O183 In182 2.294 . S
O183 C192 1.240 . S
O184 In182 2.326 . S
O184 C192 1.252 . S
C185 O188 1.252 . S
C185 O189 1.260 . S
C186 O193 1.240 . S
C186 O194 1.252 . S
C187 O190 1.252 . S
C187 O191 1.260 . S
O188 In182 2.266 . S
O188 C185 1.252 . S
O189 In182 2.326 . S
O189 C185 1.260 . S
O190 In182 2.266 . S
O190 C187 1.252 . S
O191 In182 2.326 . S
O191 C187 1.260 . S
C192 O183 1.240 . S
C192 O184 1.252 . S
O193 In182 2.294 . S
O193 C186 1.240 . S
O194 In182 2.326 . S
O194 C186 1.252 . S
In195 O196 2.294 . S
In195 O197 2.326 . S
In195 O201 2.266 . S
In195 O202 2.326 . S
In195 O203 2.266 . S
In195 O204 2.326 . S
In195 O206 2.294 . S
In195 O207 2.326 . S
O196 In195 2.294 . S
O196 C205 1.240 . S
O197 In195 2.326 . S
O197 C205 1.252 . S
C198 O201 1.252 . S
C198 O202 1.260 . S
C199 O206 1.240 . S
C199 O207 1.252 . S
C200 O203 1.252 . S
C200 O204 1.260 . S
O201 In195 2.266 . S
O201 C198 1.252 . S
O202 In195 2.326 . S
O202 C198 1.260 . S
O203 In195 2.266 . S
O203 C200 1.252 . S
O204 In195 2.326 . S
O204 C200 1.260 . S
C205 O196 1.240 . S
C205 O197 1.252 . S
O206 In195 2.294 . S
O206 C199 1.240 . S
O207 In195 2.326 . S
O207 C199 1.252 . S
In208 O209 2.294 . S
In208 O210 2.326 . S
In208 O214 2.266 . S
In208 O215 2.326 . S
In208 O216 2.266 . S
In208 O217 2.326 . S
In208 O219 2.294 . S
In208 O220 2.326 . S
O209 In208 2.294 . S
O209 C218 1.240 . S
O210 In208 2.326 . S
O210 C218 1.252 . S
C211 O214 1.252 . S
C211 O215 1.260 . S
C212 O219 1.240 . S
C212 O220 1.252 . S
C213 O216 1.252 . S
C213 O217 1.260 . S
O214 In208 2.266 . S
O214 C211 1.252 . S
O215 In208 2.326 . S
O215 C211 1.260 . S
O216 In208 2.266 . S
O216 C213 1.252 . S
O217 In208 2.326 . S
O217 C213 1.260 . S
C218 O209 1.240 . S
C218 O210 1.252 . S
O219 In208 2.294 . S
O219 C212 1.240 . S
O220 In208 2.326 . S
O220 C212 1.252 . S
In221 O222 2.294 . S
In221 O223 2.326 . S
In221 O227 2.266 . S
In221 O228 2.326 . S
In221 O229 2.266 . S
In221 O230 2.326 . S
In221 O232 2.294 . S
In221 O233 2.326 . S
O222 In221 2.294 . S
O222 C231 1.240 . S
O223 In221 2.326 . S
O223 C231 1.252 . S
C224 O227 1.252 . S
C224 O228 1.260 . S
C225 O232 1.240 . S
C225 O233 1.252 . S
C226 O229 1.252 . S
C226 O230 1.260 . S
O227 In221 2.266 . S
O227 C224 1.252 . S
O228 In221 2.326 . S
O228 C224 1.260 . S
O229 In221 2.266 . S
O229 C226 1.252 . S
O230 In221 2.326 . S
O230 C226 1.260 . S
C231 O222 1.240 . S
C231 O223 1.252 . S
O232 In221 2.294 . S
O232 C225 1.240 . S
O233 In221 2.326 . S
O233 C225 1.252 . S
In234 O235 2.294 . S
In234 O236 2.326 . S
In234 O240 2.266 . S
In234 O241 2.326 . S
In234 O242 2.266 . S
In234 O243 2.326 . S
In234 O245 2.294 . S
In234 O246 2.326 . S
O235 In234 2.294 . S
O235 C244 1.240 . S
O236 In234 2.326 . S
O236 C244 1.252 . S
C237 O240 1.252 . S
C237 O241 1.260 . S
C238 O245 1.240 . S
C238 O246 1.252 . S
C239 O242 1.252 . S
C239 O243 1.260 . S
O240 In234 2.266 . S
O240 C237 1.252 . S
O241 In234 2.326 . S
O241 C237 1.260 . S
O242 In234 2.266 . S
O242 C239 1.252 . S
O243 In234 2.326 . S
O243 C239 1.260 . S
C244 O235 1.240 . S
C244 O236 1.252 . S
O245 In234 2.294 . S
O245 C238 1.240 . S
O246 In234 2.326 . S
O246 C238 1.252 . S
In247 O248 2.294 . S
In247 O249 2.326 . S
In247 O253 2.266 . S
In247 O254 2.326 . S
In247 O255 2.266 . S
In247 O256 2.326 . S
In247 O258 2.294 . S
In247 O259 2.326 . S
O248 In247 2.294 . S
O248 C257 1.240 . S
O249 In247 2.326 . S
O249 C257 1.252 . S
C250 O253 1.252 . S
C250 O254 1.260 . S
C251 O258 1.240 . S
C251 O259 1.252 . S
C252 O255 1.252 . S
C252 O256 1.260 . S
O253 In247 2.266 . S
O253 C250 1.252 . S
O254 In247 2.326 . S
O254 C250 1.260 . S
O255 In247 2.266 . S
O255 C252 1.252 . S
O256 In247 2.326 . S
O256 C252 1.260 . S
C257 O248 1.240 . S
C257 O249 1.252 . S
O258 In247 2.294 . S
O258 C251 1.240 . S
O259 In247 2.326 . S
O259 C251 1.252 . S
In260 O261 2.294 . S
In260 O262 2.326 . S
In260 O266 2.266 . S
In260 O267 2.326 . S
In260 O268 2.266 . S
In260 O269 2.326 . S
In260 O271 2.294 . S
In260 O272 2.326 . S
O261 In260 2.294 . S
O261 C270 1.240 . S
O262 In260 2.326 . S
O262 C270 1.252 . S
C263 O266 1.252 . S
C263 O267 1.260 . S
C264 O271 1.240 . S
C264 O272 1.252 . S
C265 O268 1.252 . S
C265 O269 1.260 . S
O266 In260 2.266 . S
O266 C263 1.252 . S
O267 In260 2.326 . S
O267 C263 1.260 . S
O268 In260 2.266 . S
O268 C265 1.252 . S
O269 In260 2.326 . S
O269 C265 1.260 . S
C270 O261 1.240 . S
C270 O262 1.252 . S
O271 In260 2.294 . S
O271 C264 1.240 . S
O272 In260 2.326 . S
O272 C264 1.252 . S
In273 O274 2.294 . S
In273 O275 2.326 . S
In273 O279 2.266 . S
In273 O280 2.326 . S
In273 O281 2.266 . S
In273 O282 2.326 . S
In273 O284 2.294 . S
In273 O285 2.326 . S
O274 In273 2.294 . S
O274 C283 1.240 . S
O275 In273 2.326 . S
O275 C283 1.252 . S
C276 O279 1.252 . S
C276 O280 1.260 . S
C277 O284 1.240 . S
C277 O285 1.252 . S
C278 O281 1.252 . S
C278 O282 1.260 . S
O279 In273 2.266 . S
O279 C276 1.252 . S
O280 In273 2.326 . S
O280 C276 1.260 . S
O281 In273 2.266 . S
O281 C278 1.252 . S
O282 In273 2.326 . S
O282 C278 1.260 . S
C283 O274 1.240 . S
C283 O275 1.252 . S
O284 In273 2.294 . S
O284 C277 1.240 . S
O285 In273 2.326 . S
O285 C277 1.252 . S
In286 O287 2.294 . S
In286 O288 2.326 . S
In286 O292 2.266 . S
In286 O293 2.326 . S
In286 O294 2.266 . S
In286 O295 2.326 . S
In286 O297 2.294 . S
In286 O298 2.326 . S
O287 In286 2.294 . S
O287 C296 1.240 . S
O288 In286 2.326 . S
O288 C296 1.252 . S
C289 O292 1.252 . S
C289 O293 1.260 . S
C290 O297 1.240 . S
C290 O298 1.252 . S
C291 O294 1.252 . S
C291 O295 1.260 . S
O292 In286 2.266 . S
O292 C289 1.252 . S
O293 In286 2.326 . S
O293 C289 1.260 . S
O294 In286 2.266 . S
O294 C291 1.252 . S
O295 In286 2.326 . S
O295 C291 1.260 . S
C296 O287 1.240 . S
C296 O288 1.252 . S
O297 In286 2.294 . S
O297 C290 1.240 . S
O298 In286 2.326 . S
O298 C290 1.252 . S
In299 O300 2.294 . S
In299 O301 2.326 . S
In299 O305 2.266 . S
In299 O306 2.326 . S
In299 O307 2.266 . S
In299 O308 2.326 . S
In299 O310 2.294 . S
In299 O311 2.326 . S
O300 In299 2.294 . S
O300 C309 1.240 . S
O301 In299 2.326 . S
O301 C309 1.252 . S
C302 O305 1.252 . S
C302 O306 1.260 . S
C303 O310 1.240 . S
C303 O311 1.252 . S
C304 O307 1.252 . S
C304 O308 1.260 . S
O305 In299 2.266 . S
O305 C302 1.252 . S
O306 In299 2.326 . S
O306 C302 1.260 . S
O307 In299 2.266 . S
O307 C304 1.252 . S
O308 In299 2.326 . S
O308 C304 1.260 . S
C309 O300 1.240 . S
C309 O301 1.252 . S
O310 In299 2.294 . S
O310 C303 1.240 . S
O311 In299 2.326 . S
O311 C303 1.252 . S
In312 O313 2.294 . S
In312 O314 2.326 . S
In312 O318 2.266 . S
In312 O319 2.326 . S
In312 O320 2.266 . S
In312 O321 2.326 . S
In312 O323 2.294 . S
In312 O324 2.326 . S
O313 In312 2.294 . S
O313 C322 1.240 . S
O314 In312 2.326 . S
O314 C322 1.252 . S
C315 O318 1.252 . S
C315 O319 1.260 . S
C316 O323 1.240 . S
C316 O324 1.252 . S
C317 O320 1.252 . S
C317 O321 1.260 . S
O318 In312 2.266 . S
O318 C315 1.252 . S
O319 In312 2.326 . S
O319 C315 1.260 . S
O320 In312 2.266 . S
O320 C317 1.252 . S
O321 In312 2.326 . S
O321 C317 1.260 . S
C322 O313 1.240 . S
C322 O314 1.252 . S
O323 In312 2.294 . S
O323 C316 1.240 . S
O324 In312 2.326 . S
O324 C316 1.252 . S
In325 O326 2.294 . S
In325 O327 2.326 . S
In325 O331 2.266 . S
In325 O332 2.326 . S
In325 O333 2.266 . S
In325 O334 2.326 . S
In325 O336 2.294 . S
In325 O337 2.326 . S
O326 In325 2.294 . S
O326 C335 1.240 . S
O327 In325 2.326 . S
O327 C335 1.252 . S
C328 O331 1.252 . S
C328 O332 1.260 . S
C329 O336 1.240 . S
C329 O337 1.252 . S
C330 O333 1.252 . S
C330 O334 1.260 . S
O331 In325 2.266 . S
O331 C328 1.252 . S
O332 In325 2.326 . S
O332 C328 1.260 . S
O333 In325 2.266 . S
O333 C330 1.252 . S
O334 In325 2.326 . S
O334 C330 1.260 . S
C335 O326 1.240 . S
C335 O327 1.252 . S
O336 In325 2.294 . S
O336 C329 1.240 . S
O337 In325 2.326 . S
O337 C329 1.252 . S
In338 O339 2.294 . S
In338 O340 2.326 . S
In338 O344 2.266 . S
In338 O345 2.326 . S
In338 O346 2.266 . S
In338 O347 2.326 . S
In338 O349 2.294 . S
In338 O350 2.326 . S
O339 In338 2.294 . S
O339 C348 1.240 . S
O340 In338 2.326 . S
O340 C348 1.252 . S
C341 O344 1.252 . S
C341 O345 1.260 . S
C342 O349 1.240 . S
C342 O350 1.252 . S
C343 O346 1.252 . S
C343 O347 1.260 . S
O344 In338 2.266 . S
O344 C341 1.252 . S
O345 In338 2.326 . S
O345 C341 1.260 . S
O346 In338 2.266 . S
O346 C343 1.252 . S
O347 In338 2.326 . S
O347 C343 1.260 . S
C348 O339 1.240 . S
C348 O340 1.252 . S
O349 In338 2.294 . S
O349 C342 1.240 . S
O350 In338 2.326 . S
O350 C342 1.252 . S
In351 O352 2.294 . S
In351 O353 2.326 . S
In351 O357 2.266 . S
In351 O358 2.326 . S
In351 O359 2.266 . S
In351 O360 2.326 . S
In351 O362 2.294 . S
In351 O363 2.326 . S
O352 In351 2.294 . S
O352 C361 1.240 . S
O353 In351 2.326 . S
O353 C361 1.252 . S
C354 O357 1.252 . S
C354 O358 1.260 . S
C355 O362 1.240 . S
C355 O363 1.252 . S
C356 O359 1.252 . S
C356 O360 1.260 . S
O357 In351 2.266 . S
O357 C354 1.252 . S
O358 In351 2.326 . S
O358 C354 1.260 . S
O359 In351 2.266 . S
O359 C356 1.252 . S
O360 In351 2.326 . S
O360 C356 1.260 . S
C361 O352 1.240 . S
C361 O353 1.252 . S
O362 In351 2.294 . S
O362 C355 1.240 . S
O363 In351 2.326 . S
O363 C355 1.252 . S
In364 O365 2.294 . S
In364 O366 2.326 . S
In364 O370 2.266 . S
In364 O371 2.326 . S
In364 O372 2.266 . S
In364 O373 2.326 . S
In364 O375 2.294 . S
In364 O376 2.326 . S
O365 In364 2.294 . S
O365 C374 1.240 . S
O366 In364 2.326 . S
O366 C374 1.252 . S
C367 O370 1.252 . S
C367 O371 1.260 . S
C368 O375 1.240 . S
C368 O376 1.252 . S
C369 O372 1.252 . S
C369 O373 1.260 . S
O370 In364 2.266 . S
O370 C367 1.252 . S
O371 In364 2.326 . S
O371 C367 1.260 . S
O372 In364 2.266 . S
O372 C369 1.252 . S
O373 In364 2.326 . S
O373 C369 1.260 . S
C374 O365 1.240 . S
C374 O366 1.252 . S
O375 In364 2.294 . S
O375 C368 1.240 . S
O376 In364 2.326 . S
O376 C368 1.252 . S
In377 O378 2.294 . S
In377 O379 2.326 . S
In377 O383 2.266 . S
In377 O384 2.326 . S
In377 O385 2.266 . S
In377 O386 2.326 . S
In377 O388 2.294 . S
In377 O389 2.326 . S
O378 In377 2.294 . S
O378 C387 1.240 . S
O379 In377 2.326 . S
O379 C387 1.252 . S
C380 O383 1.252 . S
C380 O384 1.260 . S
C381 O388 1.240 . S
C381 O389 1.252 . S
C382 O385 1.252 . S
C382 O386 1.260 . S
O383 In377 2.266 . S
O383 C380 1.252 . S
O384 In377 2.326 . S
O384 C380 1.260 . S
O385 In377 2.266 . S
O385 C382 1.252 . S
O386 In377 2.326 . S
O386 C382 1.260 . S
C387 O378 1.240 . S
C387 O379 1.252 . S
O388 In377 2.294 . S
O388 C381 1.240 . S
O389 In377 2.326 . S
O389 C381 1.252 . S
In390 O391 2.294 . S
In390 O392 2.326 . S
In390 O396 2.266 . S
In390 O397 2.326 . S
In390 O398 2.266 . S
In390 O399 2.326 . S
In390 O401 2.294 . S
In390 O402 2.326 . S
O391 In390 2.294 . S
O391 C400 1.240 . S
O392 In390 2.326 . S
O392 C400 1.252 . S
C393 O396 1.252 . S
C393 O397 1.260 . S
C394 O401 1.240 . S
C394 O402 1.252 . S
C395 O398 1.252 . S
C395 O399 1.260 . S
O396 In390 2.266 . S
O396 C393 1.252 . S
O397 In390 2.326 . S
O397 C393 1.260 . S
O398 In390 2.266 . S
O398 C395 1.252 . S
O399 In390 2.326 . S
O399 C395 1.260 . S
C400 O391 1.240 . S
C400 O392 1.252 . S
O401 In390 2.294 . S
O401 C394 1.240 . S
O402 In390 2.326 . S
O402 C394 1.252 . S
In403 O404 2.294 . S
In403 O405 2.326 . S
In403 O409 2.266 . S
In403 O410 2.326 . S
In403 O411 2.266 . S
In403 O412 2.326 . S
In403 O414 2.294 . S
In403 O415 2.326 . S
O404 In403 2.294 . S
O404 C413 1.240 . S
O405 In403 2.326 . S
O405 C413 1.252 . S
C406 O409 1.252 . S
C406 O410 1.260 . S
C407 O414 1.240 . S
C407 O415 1.252 . S
C408 O411 1.252 . S
C408 O412 1.260 . S
O409 In403 2.266 . S
O409 C406 1.252 . S
O410 In403 2.326 . S
O410 C406 1.260 . S
O411 In403 2.266 . S
O411 C408 1.252 . S
O412 In403 2.326 . S
O412 C408 1.260 . S
C413 O404 1.240 . S
C413 O405 1.252 . S
O414 In403 2.294 . S
O414 C407 1.240 . S
O415 In403 2.326 . S
O415 C407 1.252 . S
H416 C422 0.930 . S
H417 C425 0.930 . S
H418 C426 0.930 . S
H419 C427 0.930 . S
H420 C430 0.930 . S
H421 C431 0.930 . S
C422 H416 0.930 . S
C422 C423 1.355 . S
C422 C424 1.415 . S
C423 C422 1.355 . S
C423 C425 1.419 . S
C424 C422 1.415 . S
C424 C429 1.425 . S
C424 C431 1.409 . S
C425 H417 0.930 . S
C425 C423 1.419 . S
C425 C426 1.362 . S
C426 H418 0.930 . S
C426 C425 1.362 . S
C426 C429 1.409 . S
C427 H419 0.930 . S
C427 C428 1.355 . S
C427 C429 1.415 . S
C428 C427 1.355 . S
C428 C430 1.419 . S
C429 C424 1.425 . S
C429 C426 1.409 . S
C429 C427 1.415 . S
C430 H420 0.930 . S
C430 C428 1.419 . S
C430 C431 1.362 . S
C431 H421 0.930 . S
C431 C424 1.409 . S
C431 C430 1.362 . S
H432 C438 0.930 . S
H433 C441 0.930 . S
H434 C442 0.930 . S
H435 C443 0.930 . S
H436 C446 0.930 . S
H437 C447 0.930 . S
C438 H432 0.930 . S
C438 C439 1.355 . S
C438 C440 1.415 . S
C439 C438 1.355 . S
C439 C441 1.419 . S
C440 C438 1.415 . S
C440 C445 1.425 . S
C440 C447 1.409 . S
C441 H433 0.930 . S
C441 C439 1.419 . S
C441 C442 1.362 . S
C442 H434 0.930 . S
C442 C441 1.362 . S
C442 C445 1.409 . S
C443 H435 0.930 . S
C443 C444 1.355 . S
C443 C445 1.415 . S
C444 C443 1.355 . S
C444 C446 1.419 . S
C445 C440 1.425 . S
C445 C442 1.409 . S
C445 C443 1.415 . S
C446 H436 0.930 . S
C446 C444 1.419 . S
C446 C447 1.362 . S
C447 H437 0.930 . S
C447 C440 1.409 . S
C447 C446 1.362 . S
H448 C454 0.930 . S
H449 C457 0.930 . S
H450 C458 0.930 . S
H451 C459 0.930 . S
H452 C462 0.930 . S
H453 C463 0.930 . S
C454 H448 0.930 . S
C454 C455 1.355 . S
C454 C456 1.415 . S
C455 C454 1.355 . S
C455 C457 1.419 . S
C456 C454 1.415 . S
C456 C461 1.425 . S
C456 C463 1.409 . S
C457 H449 0.930 . S
C457 C455 1.419 . S
C457 C458 1.362 . S
C458 H450 0.930 . S
C458 C457 1.362 . S
C458 C461 1.409 . S
C459 H451 0.930 . S
C459 C460 1.355 . S
C459 C461 1.415 . S
C460 C459 1.355 . S
C460 C462 1.419 . S
C461 C456 1.425 . S
C461 C458 1.409 . S
C461 C459 1.415 . S
C462 H452 0.930 . S
C462 C460 1.419 . S
C462 C463 1.362 . S
C463 H453 0.930 . S
C463 C456 1.409 . S
C463 C462 1.362 . S
H464 C470 0.930 . S
H465 C473 0.930 . S
H466 C474 0.930 . S
H467 C475 0.930 . S
H468 C478 0.930 . S
H469 C479 0.930 . S
C470 H464 0.930 . S
C470 C471 1.355 . S
C470 C472 1.415 . S
C471 C470 1.355 . S
C471 C473 1.419 . S
C472 C470 1.415 . S
C472 C477 1.425 . S
C472 C479 1.409 . S
C473 H465 0.930 . S
C473 C471 1.419 . S
C473 C474 1.362 . S
C474 H466 0.930 . S
C474 C473 1.362 . S
C474 C477 1.409 . S
C475 H467 0.930 . S
C475 C476 1.355 . S
C475 C477 1.415 . S
C476 C475 1.355 . S
C476 C478 1.419 . S
C477 C472 1.425 . S
C477 C474 1.409 . S
C477 C475 1.415 . S
C478 H468 0.930 . S
C478 C476 1.419 . S
C478 C479 1.362 . S
C479 H469 0.930 . S
C479 C472 1.409 . S
C479 C478 1.362 . S
H480 C486 0.930 . S
H481 C489 0.930 . S
H482 C490 0.930 . S
H483 C491 0.930 . S
H484 C494 0.930 . S
H485 C495 0.930 . S
C486 H480 0.930 . S
C486 C487 1.355 . S
C486 C488 1.415 . S
C487 C486 1.355 . S
C487 C489 1.419 . S
C488 C486 1.415 . S
C488 C493 1.425 . S
C488 C495 1.409 . S
C489 H481 0.930 . S
C489 C487 1.419 . S
C489 C490 1.362 . S
C490 H482 0.930 . S
C490 C489 1.362 . S
C490 C493 1.409 . S
C491 H483 0.930 . S
C491 C492 1.355 . S
C491 C493 1.415 . S
C492 C491 1.355 . S
C492 C494 1.419 . S
C493 C488 1.425 . S
C493 C490 1.409 . S
C493 C491 1.415 . S
C494 H484 0.930 . S
C494 C492 1.419 . S
C494 C495 1.362 . S
C495 H485 0.930 . S
C495 C488 1.409 . S
C495 C494 1.362 . S
H496 C502 0.930 . S
H497 C505 0.930 . S
H498 C506 0.930 . S
H499 C507 0.930 . S
H500 C510 0.930 . S
H501 C511 0.930 . S
C502 H496 0.930 . S
C502 C503 1.355 . S
C502 C504 1.415 . S
C503 C502 1.355 . S
C503 C505 1.419 . S
C504 C502 1.415 . S
C504 C509 1.425 . S
C504 C511 1.409 . S
C505 H497 0.930 . S
C505 C503 1.419 . S
C505 C506 1.362 . S
C506 H498 0.930 . S
C506 C505 1.362 . S
C506 C509 1.409 . S
C507 H499 0.930 . S
C507 C508 1.355 . S
C507 C509 1.415 . S
C508 C507 1.355 . S
C508 C510 1.419 . S
C509 C504 1.425 . S
C509 C506 1.409 . S
C509 C507 1.415 . S
C510 H500 0.930 . S
C510 C508 1.419 . S
C510 C511 1.362 . S
C511 H501 0.930 . S
C511 C504 1.409 . S
C511 C510 1.362 . S
H512 C518 0.930 . S
H513 C521 0.930 . S
H514 C522 0.930 . S
H515 C523 0.930 . S
H516 C526 0.930 . S
H517 C527 0.930 . S
C518 H512 0.930 . S
C518 C519 1.355 . S
C518 C520 1.415 . S
C519 C518 1.355 . S
C519 C521 1.419 . S
C520 C518 1.415 . S
C520 C525 1.425 . S
C520 C527 1.409 . S
C521 H513 0.930 . S
C521 C519 1.419 . S
C521 C522 1.362 . S
C522 H514 0.930 . S
C522 C521 1.362 . S
C522 C525 1.409 . S
C523 H515 0.930 . S
C523 C524 1.355 . S
C523 C525 1.415 . S
C524 C523 1.355 . S
C524 C526 1.419 . S
C525 C520 1.425 . S
C525 C522 1.409 . S
C525 C523 1.415 . S
C526 H516 0.930 . S
C526 C524 1.419 . S
C526 C527 1.362 . S
C527 H517 0.930 . S
C527 C520 1.409 . S
C527 C526 1.362 . S
H528 C534 0.930 . S
H529 C537 0.930 . S
H530 C538 0.930 . S
H531 C539 0.930 . S
H532 C542 0.930 . S
H533 C543 0.930 . S
C534 H528 0.930 . S
C534 C535 1.355 . S
C534 C536 1.415 . S
C535 C534 1.355 . S
C535 C537 1.419 . S
C536 C534 1.415 . S
C536 C541 1.425 . S
C536 C543 1.409 . S
C537 H529 0.930 . S
C537 C535 1.419 . S
C537 C538 1.362 . S
C538 H530 0.930 . S
C538 C537 1.362 . S
C538 C541 1.409 . S
C539 H531 0.930 . S
C539 C540 1.355 . S
C539 C541 1.415 . S
C540 C539 1.355 . S
C540 C542 1.419 . S
C541 C536 1.425 . S
C541 C538 1.409 . S
C541 C539 1.415 . S
C542 H532 0.930 . S
C542 C540 1.419 . S
C542 C543 1.362 . S
C543 H533 0.930 . S
C543 C536 1.409 . S
C543 C542 1.362 . S
H544 C550 0.930 . S
H545 C553 0.930 . S
H546 C554 0.930 . S
H547 C555 0.930 . S
H548 C558 0.930 . S
H549 C559 0.930 . S
C550 H544 0.930 . S
C550 C551 1.355 . S
C550 C552 1.415 . S
C551 C550 1.355 . S
C551 C553 1.419 . S
C552 C550 1.415 . S
C552 C557 1.425 . S
C552 C559 1.409 . S
C553 H545 0.930 . S
C553 C551 1.419 . S
C553 C554 1.362 . S
C554 H546 0.930 . S
C554 C553 1.362 . S
C554 C557 1.409 . S
C555 H547 0.930 . S
C555 C556 1.355 . S
C555 C557 1.415 . S
C556 C555 1.355 . S
C556 C558 1.419 . S
C557 C552 1.425 . S
C557 C554 1.409 . S
C557 C555 1.415 . S
C558 H548 0.930 . S
C558 C556 1.419 . S
C558 C559 1.362 . S
C559 H549 0.930 . S
C559 C552 1.409 . S
C559 C558 1.362 . S
H560 C566 0.930 . S
H561 C569 0.930 . S
H562 C570 0.930 . S
H563 C571 0.930 . S
H564 C574 0.930 . S
H565 C575 0.930 . S
C566 H560 0.930 . S
C566 C567 1.355 . S
C566 C568 1.415 . S
C567 C566 1.355 . S
C567 C569 1.419 . S
C568 C566 1.415 . S
C568 C573 1.425 . S
C568 C575 1.409 . S
C569 H561 0.930 . S
C569 C567 1.419 . S
C569 C570 1.362 . S
C570 H562 0.930 . S
C570 C569 1.362 . S
C570 C573 1.409 . S
C571 H563 0.930 . S
C571 C572 1.355 . S
C571 C573 1.415 . S
C572 C571 1.355 . S
C572 C574 1.419 . S
C573 C568 1.425 . S
C573 C570 1.409 . S
C573 C571 1.415 . S
C574 H564 0.930 . S
C574 C572 1.419 . S
C574 C575 1.362 . S
C575 H565 0.930 . S
C575 C568 1.409 . S
C575 C574 1.362 . S
H576 C582 0.930 . S
H577 C585 0.930 . S
H578 C586 0.930 . S
H579 C587 0.930 . S
H580 C590 0.930 . S
H581 C591 0.930 . S
C582 H576 0.930 . S
C582 C583 1.355 . S
C582 C584 1.415 . S
C583 C582 1.355 . S
C583 C585 1.419 . S
C584 C582 1.415 . S
C584 C589 1.425 . S
C584 C591 1.409 . S
C585 H577 0.930 . S
C585 C583 1.419 . S
C585 C586 1.362 . S
C586 H578 0.930 . S
C586 C585 1.362 . S
C586 C589 1.409 . S
C587 H579 0.930 . S
C587 C588 1.355 . S
C587 C589 1.415 . S
C588 C587 1.355 . S
C588 C590 1.419 . S
C589 C584 1.425 . S
C589 C586 1.409 . S
C589 C587 1.415 . S
C590 H580 0.930 . S
C590 C588 1.419 . S
C590 C591 1.362 . S
C591 H581 0.930 . S
C591 C584 1.409 . S
C591 C590 1.362 . S
H592 C598 0.930 . S
H593 C601 0.930 . S
H594 C602 0.930 . S
H595 C603 0.930 . S
H596 C606 0.930 . S
H597 C607 0.930 . S
C598 H592 0.930 . S
C598 C599 1.355 . S
C598 C600 1.415 . S
C599 C598 1.355 . S
C599 C601 1.419 . S
C600 C598 1.415 . S
C600 C605 1.425 . S
C600 C607 1.409 . S
C601 H593 0.930 . S
C601 C599 1.419 . S
C601 C602 1.362 . S
C602 H594 0.930 . S
C602 C601 1.362 . S
C602 C605 1.409 . S
C603 H595 0.930 . S
C603 C604 1.355 . S
C603 C605 1.415 . S
C604 C603 1.355 . S
C604 C606 1.419 . S
C605 C600 1.425 . S
C605 C602 1.409 . S
C605 C603 1.415 . S
C606 H596 0.930 . S
C606 C604 1.419 . S
C606 C607 1.362 . S
C607 H597 0.930 . S
C607 C600 1.409 . S
C607 C606 1.362 . S
H608 C614 0.930 . S
H609 C617 0.930 . S
H610 C618 0.930 . S
H611 C619 0.930 . S
H612 C622 0.930 . S
H613 C623 0.930 . S
C614 H608 0.930 . S
C614 C615 1.355 . S
C614 C616 1.415 . S
C615 C614 1.355 . S
C615 C617 1.419 . S
C616 C614 1.415 . S
C616 C621 1.425 . S
C616 C623 1.409 . S
C617 H609 0.930 . S
C617 C615 1.419 . S
C617 C618 1.362 . S
C618 H610 0.930 . S
C618 C617 1.362 . S
C618 C621 1.409 . S
C619 H611 0.930 . S
C619 C620 1.355 . S
C619 C621 1.415 . S
C620 C619 1.355 . S
C620 C622 1.419 . S
C621 C616 1.425 . S
C621 C618 1.409 . S
C621 C619 1.415 . S
C622 H612 0.930 . S
C622 C620 1.419 . S
C622 C623 1.362 . S
C623 H613 0.930 . S
C623 C616 1.409 . S
C623 C622 1.362 . S
H624 C630 0.930 . S
H625 C633 0.930 . S
H626 C634 0.930 . S
H627 C635 0.930 . S
H628 C638 0.930 . S
H629 C639 0.930 . S
C630 H624 0.930 . S
C630 C631 1.355 . S
C630 C632 1.415 . S
C631 C630 1.355 . S
C631 C633 1.419 . S
C632 C630 1.415 . S
C632 C637 1.425 . S
C632 C639 1.409 . S
C633 H625 0.930 . S
C633 C631 1.419 . S
C633 C634 1.362 . S
C634 H626 0.930 . S
C634 C633 1.362 . S
C634 C637 1.409 . S
C635 H627 0.930 . S
C635 C636 1.355 . S
C635 C637 1.415 . S
C636 C635 1.355 . S
C636 C638 1.419 . S
C637 C632 1.425 . S
C637 C634 1.409 . S
C637 C635 1.415 . S
C638 H628 0.930 . S
C638 C636 1.419 . S
C638 C639 1.362 . S
C639 H629 0.930 . S
C639 C632 1.409 . S
C639 C638 1.362 . S
H640 C646 0.930 . S
H641 C649 0.930 . S
H642 C650 0.930 . S
H643 C651 0.930 . S
H644 C654 0.930 . S
H645 C655 0.930 . S
C646 H640 0.930 . S
C646 C647 1.355 . S
C646 C648 1.415 . S
C647 C646 1.355 . S
C647 C649 1.419 . S
C648 C646 1.415 . S
C648 C653 1.425 . S
C648 C655 1.409 . S
C649 H641 0.930 . S
C649 C647 1.419 . S
C649 C650 1.362 . S
C650 H642 0.930 . S
C650 C649 1.362 . S
C650 C653 1.409 . S
C651 H643 0.930 . S
C651 C652 1.355 . S
C651 C653 1.415 . S
C652 C651 1.355 . S
C652 C654 1.419 . S
C653 C648 1.425 . S
C653 C650 1.409 . S
C653 C651 1.415 . S
C654 H644 0.930 . S
C654 C652 1.419 . S
C654 C655 1.362 . S
C655 H645 0.930 . S
C655 C648 1.409 . S
C655 C654 1.362 . S
H656 C662 0.930 . S
H657 C665 0.930 . S
H658 C666 0.930 . S
H659 C667 0.930 . S
H660 C670 0.930 . S
H661 C671 0.930 . S
C662 H656 0.930 . S
C662 C663 1.355 . S
C662 C664 1.415 . S
C663 C662 1.355 . S
C663 C665 1.419 . S
C664 C662 1.415 . S
C664 C669 1.425 . S
C664 C671 1.409 . S
C665 H657 0.930 . S
C665 C663 1.419 . S
C665 C666 1.362 . S
C666 H658 0.930 . S
C666 C665 1.362 . S
C666 C669 1.409 . S
C667 H659 0.930 . S
C667 C668 1.355 . S
C667 C669 1.415 . S
C668 C667 1.355 . S
C668 C670 1.419 . S
C669 C664 1.425 . S
C669 C666 1.409 . S
C669 C667 1.415 . S
C670 H660 0.930 . S
C670 C668 1.419 . S
C670 C671 1.362 . S
C671 H661 0.930 . S
C671 C664 1.409 . S
C671 C670 1.362 . S
H672 C678 0.930 . S
H673 C681 0.930 1_554 S
H674 C682 0.930 . S
H675 C683 0.930 . S
H676 C686 0.930 1_556 S
H677 C687 0.930 . S
C678 H672 0.930 . S
C678 C679 1.355 . S
C678 C680 1.448 . S
C679 C678 1.355 . S
C679 C681 1.419 . S
C680 C678 1.448 . S
C680 C685 1.419 1_656 S
C680 C687 1.383 1_655 S
C681 H673 0.930 1_556 S
C681 C679 1.419 . S
C681 C682 1.362 1_556 S
C682 H674 0.930 . S
C682 C681 1.362 1_554 S
C682 C685 1.383 1_655 S
C683 H675 0.930 . S
C683 C684 1.355 . S
C683 C685 1.448 . S
C684 C683 1.355 . S
C684 C686 1.419 . S
C685 C680 1.419 1_454 S
C685 C682 1.383 1_455 S
C685 C683 1.448 . S
C686 H676 0.930 1_554 S
C686 C684 1.419 . S
C686 C687 1.362 1_554 S
C687 H677 0.930 . S
C687 C680 1.383 1_455 S
C687 C686 1.362 1_556 S
H688 C694 0.930 1_554 S
H689 C697 0.930 . S
H690 C698 0.930 . S
H691 C699 0.930 1_556 S
H692 C702 0.930 . S
H693 C703 0.930 . S
C694 H688 0.930 1_556 S
C694 C695 1.355 . S
C694 C696 1.415 1_556 S
C695 C694 1.355 . S
C695 C697 1.419 . S
C696 C694 1.415 1_554 S
C696 C701 1.425 1_554 S
C696 C703 1.409 . S
C697 H689 0.930 . S
C697 C695 1.419 . S
C697 C698 1.362 . S
C698 H690 0.930 . S
C698 C697 1.362 . S
C698 C701 1.409 . S
C699 H691 0.930 1_554 S
C699 C700 1.355 . S
C699 C701 1.415 1_554 S
C700 C699 1.355 . S
C700 C702 1.419 . S
C701 C696 1.425 1_556 S
C701 C698 1.409 . S
C701 C699 1.415 1_556 S
C702 H692 0.930 . S
C702 C700 1.419 . S
C702 C703 1.362 . S
C703 H693 0.930 . S
C703 C696 1.409 . S
C703 C702 1.362 . S
H704 C710 0.930 . S
H705 C713 0.931 . S
H706 C714 0.930 . S
H707 C715 0.930 . S
H708 C718 0.931 . S
H709 C719 0.930 . S
C710 H704 0.930 . S
C710 C711 1.355 . S
C710 C712 1.415 . S
C711 C710 1.355 . S
C711 C713 1.416 1_455 S
C712 C710 1.415 . S
C712 C717 1.425 1_455 S
C712 C719 1.409 . S
C713 H705 0.931 . S
C713 C711 1.416 1_655 S
C713 C714 1.365 . S
C714 H706 0.930 . S
C714 C713 1.365 . S
C714 C717 1.409 . S
C715 H707 0.930 . S
C715 C716 1.355 . S
C715 C717 1.415 . S
C716 C715 1.355 . S
C716 C718 1.416 1_655 S
C717 C712 1.425 1_655 S
C717 C714 1.409 . S
C717 C715 1.415 . S
C718 H708 0.931 . S
C718 C716 1.416 1_455 S
C718 C719 1.365 . S
C719 H709 0.930 . S
C719 C712 1.409 . S
C719 C718 1.365 . S
H720 C726 0.930 . S
H721 C729 0.930 . S
H722 C730 0.930 . S
H723 C731 0.930 . S
H724 C734 0.930 . S
H725 C735 0.930 . S
C726 H720 0.930 . S
C726 C727 1.355 . S
C726 C728 1.415 . S
C727 C726 1.355 . S
C727 C729 1.419 . S
C728 C726 1.415 . S
C728 C733 1.425 . S
C728 C735 1.409 . S
C729 H721 0.930 . S
C729 C727 1.419 . S
C729 C730 1.362 . S
C730 H722 0.930 . S
C730 C729 1.362 . S
C730 C733 1.409 . S
C731 H723 0.930 . S
C731 C732 1.355 . S
C731 C733 1.415 . S
C732 C731 1.355 . S
C732 C734 1.419 . S
C733 C728 1.425 . S
C733 C730 1.409 . S
C733 C731 1.415 . S
C734 H724 0.930 . S
C734 C732 1.419 . S
C734 C735 1.362 . S
C735 H725 0.930 . S
C735 C728 1.409 . S
C735 C734 1.362 . S
H736 C742 0.930 . S
H737 C745 0.930 . S
H738 C746 0.930 . S
H739 C747 0.930 . S
H740 C750 0.930 . S
H741 C751 0.930 . S
C742 H736 0.930 . S
C742 C743 1.355 . S
C742 C744 1.415 1_556 S
C743 C742 1.355 . S
C743 C745 1.419 . S
C744 C742 1.415 1_554 S
C744 C749 1.425 1_554 S
C744 C751 1.409 . S
C745 H737 0.930 . S
C745 C743 1.419 . S
C745 C746 1.362 . S
C746 H738 0.930 . S
C746 C745 1.362 . S
C746 C749 1.409 . S
C747 H739 0.930 . S
C747 C748 1.355 . S
C747 C749 1.415 1_554 S
C748 C747 1.355 . S
C748 C750 1.419 . S
C749 C744 1.425 1_556 S
C749 C746 1.409 . S
C749 C747 1.415 1_556 S
C750 H740 0.930 . S
C750 C748 1.419 . S
C750 C751 1.362 . S
C751 H741 0.930 . S
C751 C744 1.409 . S
C751 C750 1.362 . S
H752 C758 0.930 . S
H753 C761 0.930 . S
H754 C762 0.930 . S
H755 C763 0.930 . S
H756 C766 0.930 . S
H757 C767 0.930 . S
C758 H752 0.930 . S
C758 C759 1.355 . S
C758 C760 1.415 1_655 S
C759 C758 1.355 . S
C759 C761 1.419 . S
C760 C758 1.415 1_455 S
C760 C765 1.425 1_455 S
C760 C767 1.409 . S
C761 H753 0.930 . S
C761 C759 1.419 . S
C761 C762 1.362 . S
C762 H754 0.930 . S
C762 C761 1.362 . S
C762 C765 1.409 . S
C763 H755 0.930 . S
C763 C764 1.355 . S
C763 C765 1.415 1_455 S
C764 C763 1.355 . S
C764 C766 1.419 . S
C765 C760 1.425 1_655 S
C765 C762 1.409 . S
C765 C763 1.415 1_655 S
C766 H756 0.930 . S
C766 C764 1.419 . S
C766 C767 1.362 . S
C767 H757 0.930 . S
C767 C760 1.409 . S
C767 C766 1.362 . S
H768 C774 0.930 . S
H769 C777 0.930 . S
H770 C778 0.930 . S
H771 C779 0.930 . S
H772 C782 0.930 . S
H773 C783 0.930 . S
C774 H768 0.930 . S
C774 C775 1.355 . S
C774 C776 1.415 . S
C775 C774 1.355 . S
C775 C777 1.419 . S
C776 C774 1.415 . S
C776 C781 1.425 . S
C776 C783 1.409 . S
C777 H769 0.930 . S
C777 C775 1.419 . S
C777 C778 1.362 . S
C778 H770 0.930 . S
C778 C777 1.362 . S
C778 C781 1.409 . S
C779 H771 0.930 . S
C779 C780 1.355 . S
C779 C781 1.415 . S
C780 C779 1.355 . S
C780 C782 1.419 . S
C781 C776 1.425 . S
C781 C778 1.409 . S
C781 C779 1.415 . S
C782 H772 0.930 . S
C782 C780 1.419 . S
C782 C783 1.362 . S
C783 H773 0.930 . S
C783 C776 1.409 . S
C783 C782 1.362 . S
H784 C790 0.930 . S
H785 C793 0.930 . S
H786 C794 0.930 . S
H787 C795 0.930 . S
H788 C798 0.930 . S
H789 C799 0.930 . S
C790 H784 0.930 . S
C790 C791 1.355 . S
C790 C792 1.379 1_645 S
C791 C790 1.355 . S
C791 C793 1.419 . S
C792 C790 1.379 1_465 S
C792 C797 1.417 1_465 S
C792 C799 1.454 . S
C793 H785 0.930 . S
C793 C791 1.419 . S
C793 C794 1.362 . S
C794 H786 0.930 . S
C794 C793 1.362 . S
C794 C797 1.454 . S
C795 H787 0.930 . S
C795 C796 1.355 . S
C795 C797 1.379 1_465 S
C796 C795 1.355 . S
C796 C798 1.419 . S
C797 C792 1.417 1_645 S
C797 C794 1.454 . S
C797 C795 1.379 1_645 S
C798 H788 0.930 . S
C798 C796 1.419 . S
C798 C799 1.362 . S
C799 H789 0.930 . S
C799 C792 1.454 . S
C799 C798 1.362 . S
H800 C806 0.930 . S
H801 C809 0.930 . S
H802 C810 0.930 . S
H803 C811 0.930 . S
H804 C814 0.930 . S
H805 C815 0.930 . S
C806 H800 0.930 . S
C806 C807 1.355 . S
C806 C808 1.415 . S
C807 C806 1.355 . S
C807 C809 1.419 . S
C808 C806 1.415 . S
C808 C813 1.425 . S
C808 C815 1.409 . S
C809 H801 0.930 . S
C809 C807 1.419 . S
C809 C810 1.362 . S
C810 H802 0.930 . S
C810 C809 1.362 . S
C810 C813 1.409 . S
C811 H803 0.930 . S
C811 C812 1.355 . S
C811 C813 1.415 . S
C812 C811 1.355 . S
C812 C814 1.419 . S
C813 C808 1.425 . S
C813 C810 1.409 . S
C813 C811 1.415 . S
C814 H804 0.930 . S
C814 C812 1.419 . S
C814 C815 1.362 . S
C815 H805 0.930 . S
C815 C808 1.409 . S
C815 C814 1.362 . S
H816 C822 0.930 . S
H817 C825 0.930 . S
H818 C826 0.930 . S
H819 C827 0.930 . S
H820 C830 0.930 . S
H821 C831 0.930 . S
C822 H816 0.930 . S
C822 C823 1.355 . S
C822 C824 1.415 . S
C823 C822 1.355 . S
C823 C825 1.419 . S
C824 C822 1.415 . S
C824 C829 1.425 1_565 S
C824 C831 1.409 1_565 S
C825 H817 0.930 . S
C825 C823 1.419 . S
C825 C826 1.362 . S
C826 H818 0.930 . S
C826 C825 1.362 . S
C826 C829 1.409 1_565 S
C827 H819 0.930 . S
C827 C828 1.355 . S
C827 C829 1.415 . S
C828 C827 1.355 . S
C828 C830 1.419 . S
C829 C824 1.425 1_545 S
C829 C826 1.409 1_545 S
C829 C827 1.415 . S
C830 H820 0.930 . S
C830 C828 1.419 . S
C830 C831 1.362 . S
C831 H821 0.930 . S
C831 C824 1.409 1_545 S
C831 C830 1.362 . S
H832 C838 0.930 . S
H833 C841 0.930 . S
H834 C842 0.930 . S
H835 C843 0.930 . S
H836 C846 0.930 . S
H837 C847 0.930 . S
C838 H832 0.930 . S
C838 C839 1.355 . S
C838 C840 1.415 . S
C839 C838 1.355 . S
C839 C841 1.419 . S
C840 C838 1.415 . S
C840 C845 1.425 . S
C840 C847 1.409 . S
C841 H833 0.930 . S
C841 C839 1.419 . S
C841 C842 1.362 . S
C842 H834 0.930 . S
C842 C841 1.362 . S
C842 C845 1.409 . S
C843 H835 0.930 . S
C843 C844 1.355 . S
C843 C845 1.415 . S
C844 C843 1.355 . S
C844 C846 1.419 . S
C845 C840 1.425 . S
C845 C842 1.409 . S
C845 C843 1.415 . S
C846 H836 0.930 . S
C846 C844 1.419 . S
C846 C847 1.362 . S
C847 H837 0.930 . S
C847 C840 1.409 . S
C847 C846 1.362 . S
H848 C854 0.930 1_545 S
H849 C857 0.930 . S
H850 C858 0.930 . S
H851 C859 0.930 1_565 S
H852 C862 0.930 . S
H853 C863 0.930 . S
C854 H848 0.930 1_565 S
C854 C855 1.355 . S
C854 C856 1.415 1_565 S
C855 C854 1.355 . S
C855 C857 1.419 . S
C856 C854 1.415 1_545 S
C856 C861 1.425 1_545 S
C856 C863 1.409 . S
C857 H849 0.930 . S
C857 C855 1.419 . S
C857 C858 1.362 . S
C858 H850 0.930 . S
C858 C857 1.362 . S
C858 C861 1.409 . S
C859 H851 0.930 1_545 S
C859 C860 1.355 . S
C859 C861 1.415 1_545 S
C860 C859 1.355 . S
C860 C862 1.419 . S
C861 C856 1.425 1_565 S
C861 C858 1.409 . S
C861 C859 1.415 1_565 S
C862 H852 0.930 . S
C862 C860 1.419 . S
C862 C863 1.362 . S
C863 H853 0.930 . S
C863 C856 1.409 . S
C863 C862 1.362 . S
H864 C870 0.930 . S
H865 C873 0.930 . S
H866 C874 0.930 . S
H867 C875 0.930 . S
H868 C878 0.930 . S
H869 C879 0.930 . S
C870 H864 0.930 . S
C870 C871 1.355 . S
C870 C872 1.415 . S
C871 C870 1.355 . S
C871 C873 1.419 . S
C872 C870 1.415 . S
C872 C877 1.425 . S
C872 C879 1.409 . S
C873 H865 0.930 . S
C873 C871 1.419 . S
C873 C874 1.362 . S
C874 H866 0.930 . S
C874 C873 1.362 . S
C874 C877 1.409 . S
C875 H867 0.930 . S
C875 C876 1.355 . S
C875 C877 1.415 . S
C876 C875 1.355 . S
C876 C878 1.419 . S
C877 C872 1.425 . S
C877 C874 1.409 . S
C877 C875 1.415 . S
C878 H868 0.930 . S
C878 C876 1.419 . S
C878 C879 1.362 . S
C879 H869 0.930 . S
C879 C872 1.409 . S
C879 C878 1.362 . S
H880 C886 0.930 . S
H881 C889 0.930 . S
H882 C890 0.930 . S
H883 C891 0.930 . S
H884 C894 0.930 . S
H885 C895 0.930 . S
C886 H880 0.930 . S
C886 C887 1.355 . S
C886 C888 1.415 . S
C887 C886 1.355 . S
C887 C889 1.419 . S
C888 C886 1.415 . S
C888 C893 1.425 . S
C888 C895 1.409 . S
C889 H881 0.930 . S
C889 C887 1.419 . S
C889 C890 1.362 . S
C890 H882 0.930 . S
C890 C889 1.362 . S
C890 C893 1.409 . S
C891 H883 0.930 . S
C891 C892 1.355 . S
C891 C893 1.415 . S
C892 C891 1.355 . S
C892 C894 1.419 . S
C893 C888 1.425 . S
C893 C890 1.409 . S
C893 C891 1.415 . S
C894 H884 0.930 . S
C894 C892 1.419 . S
C894 C895 1.362 . S
C895 H885 0.930 . S
C895 C888 1.409 . S
C895 C894 1.362 . S
H896 C902 0.930 . S
H897 C905 0.930 . S
H898 C906 0.930 . S
H899 C907 0.930 . S
H900 C910 0.930 . S
H901 C911 0.930 . S
C902 H896 0.930 . S
C902 C903 1.355 . S
C902 C904 1.415 . S
C903 C902 1.355 . S
C903 C905 1.419 . S
C904 C902 1.415 . S
C904 C909 1.425 . S
C904 C911 1.409 . S
C905 H897 0.930 . S
C905 C903 1.419 . S
C905 C906 1.362 . S
C906 H898 0.930 . S
C906 C905 1.362 . S
C906 C909 1.409 . S
C907 H899 0.930 . S
C907 C908 1.355 . S
C907 C909 1.415 . S
C908 C907 1.355 . S
C908 C910 1.419 . S
C909 C904 1.425 . S
C909 C906 1.409 . S
C909 C907 1.415 . S
C910 H900 0.930 . S
C910 C908 1.419 . S
C910 C911 1.362 . S
C911 H901 0.930 . S
C911 C904 1.409 . S
C911 C910 1.362 . S
H912 C918 0.930 . S
H913 C921 0.930 . S
H914 C922 0.930 . S
H915 C923 0.930 . S
H916 C926 0.930 . S
H917 C927 0.930 . S
C918 H912 0.930 . S
C918 C919 1.355 . S
C918 C920 1.432 1_545 S
C919 C918 1.355 . S
C919 C921 1.419 . S
C920 C918 1.432 1_565 S
C920 C925 1.423 1_566 S
C920 C927 1.394 1_556 S
C921 H913 0.930 . S
C921 C919 1.419 . S
C921 C922 1.362 . S
C922 H914 0.930 . S
C922 C921 1.362 . S
C922 C925 1.394 1_556 S
C923 H915 0.930 . S
C923 C924 1.355 . S
C923 C925 1.432 1_565 S
C924 C923 1.355 . S
C924 C926 1.419 . S
C925 C920 1.423 1_544 S
C925 C922 1.394 1_554 S
C925 C923 1.432 1_545 S
C926 H916 0.930 . S
C926 C924 1.419 . S
C926 C927 1.362 . S
C927 H917 0.930 . S
C927 C920 1.394 1_554 S
C927 C926 1.362 . S
H928 C934 0.930 . S
H929 C937 0.930 . S
H930 C938 0.930 . S
H931 C939 0.930 . S
H932 C942 0.930 . S
H933 C943 0.930 . S
C934 H928 0.930 . S
C934 C935 1.355 . S
C934 C936 1.415 . S
C935 C934 1.355 . S
C935 C937 1.419 . S
C936 C934 1.415 . S
C936 C941 1.425 . S
C936 C943 1.409 . S
C937 H929 0.930 . S
C937 C935 1.419 . S
C937 C938 1.362 . S
C938 H930 0.930 . S
C938 C937 1.362 . S
C938 C941 1.409 . S
C939 H931 0.930 . S
C939 C940 1.355 . S
C939 C941 1.415 . S
C940 C939 1.355 . S
C940 C942 1.419 . S
C941 C936 1.425 . S
C941 C938 1.409 . S
C941 C939 1.415 . S
C942 H932 0.930 . S
C942 C940 1.419 . S
C942 C943 1.362 . S
C943 H933 0.930 . S
C943 C936 1.409 . S
C943 C942 1.362 . S
H944 C950 0.930 . S
H945 C953 0.930 . S
H946 C954 0.930 . S
H947 C955 0.930 . S
H948 C958 0.930 . S
H949 C959 0.930 . S
C950 H944 0.930 . S
C950 C951 1.355 . S
C950 C952 1.415 . S
C951 C950 1.355 . S
C951 C953 1.419 . S
C952 C950 1.415 . S
C952 C957 1.425 . S
C952 C959 1.409 . S
C953 H945 0.930 . S
C953 C951 1.419 . S
C953 C954 1.362 . S
C954 H946 0.930 . S
C954 C953 1.362 . S
C954 C957 1.409 . S
C955 H947 0.930 . S
C955 C956 1.355 . S
C955 C957 1.415 . S
C956 C955 1.355 . S
C956 C958 1.419 . S
C957 C952 1.425 . S
C957 C954 1.409 . S
C957 C955 1.415 . S
C958 H948 0.930 . S
C958 C956 1.419 . S
C958 C959 1.362 . S
C959 H949 0.930 . S
C959 C952 1.409 . S
C959 C958 1.362 . S
H960 C966 0.930 . S
H961 C969 0.930 . S
H962 C970 0.930 . S
H963 C971 0.930 . S
H964 C974 0.930 . S
H965 C975 0.930 . S
C966 H960 0.930 . S
C966 C967 1.355 . S
C966 C968 1.415 . S
C967 C966 1.355 . S
C967 C969 1.419 . S
C968 C966 1.415 . S
C968 C973 1.425 . S
C968 C975 1.409 . S
C969 H961 0.930 . S
C969 C967 1.419 . S
C969 C970 1.362 . S
C970 H962 0.930 . S
C970 C969 1.362 . S
C970 C973 1.409 . S
C971 H963 0.930 . S
C971 C972 1.355 . S
C971 C973 1.415 . S
C972 C971 1.355 . S
C972 C974 1.419 . S
C973 C968 1.425 . S
C973 C970 1.409 . S
C973 C971 1.415 . S
C974 H964 0.930 . S
C974 C972 1.419 . S
C974 C975 1.362 . S
C975 H965 0.930 . S
C975 C968 1.409 . S
C975 C974 1.362 . S
H976 C982 0.930 . S
H977 C985 0.930 . S
H978 C986 0.930 . S
H979 C987 0.930 . S
H980 C990 0.930 . S
H981 C991 0.930 . S
C982 H976 0.930 . S
C982 C983 1.355 . S
C982 C984 1.415 . S
C983 C982 1.355 . S
C983 C985 1.419 . S
C984 C982 1.415 . S
C984 C989 1.425 . S
C984 C991 1.409 . S
C985 H977 0.930 . S
C985 C983 1.419 . S
C985 C986 1.362 . S
C986 H978 0.930 . S
C986 C985 1.362 . S
C986 C989 1.409 . S
C987 H979 0.930 . S
C987 C988 1.355 . S
C987 C989 1.415 . S
C988 C987 1.355 . S
C988 C990 1.419 . S
C989 C984 1.425 . S
C989 C986 1.409 . S
C989 C987 1.415 . S
C990 H980 0.930 . S
C990 C988 1.419 . S
C990 C991 1.362 . S
C991 H981 0.930 . S
C991 C984 1.409 . S
C991 C990 1.362 . S
H992 C998 0.930 . S
H993 C1001 0.930 . S
H994 C1002 0.930 . S
H995 C1003 0.930 . S
H996 C1006 0.930 . S
H997 C1007 0.930 . S
C998 H992 0.930 . S
C998 C999 1.355 . S
C998 C1000 1.415 . S
C999 C998 1.355 . S
C999 C1001 1.419 . S
C1000 C998 1.415 . S
C1000 C1005 1.425 . S
C1000 C1007 1.409 . S
C1001 H993 0.930 . S
C1001 C999 1.419 . S
C1001 C1002 1.362 . S
C1002 H994 0.930 . S
C1002 C1001 1.362 . S
C1002 C1005 1.409 . S
C1003 H995 0.930 . S
C1003 C1004 1.355 . S
C1003 C1005 1.415 . S
C1004 C1003 1.355 . S
C1004 C1006 1.419 . S
C1005 C1000 1.425 . S
C1005 C1002 1.409 . S
C1005 C1003 1.415 . S
C1006 H996 0.930 . S
C1006 C1004 1.419 . S
C1006 C1007 1.362 . S
C1007 H997 0.930 . S
C1007 C1000 1.409 . S
C1007 C1006 1.362 . S
H1008 C1014 0.930 . S
H1009 C1017 0.930 . S
H1010 C1018 0.930 . S
H1011 C1019 0.930 . S
H1012 C1022 0.930 . S
H1013 C1023 0.930 . S
C1014 H1008 0.930 . S
C1014 C1015 1.355 . S
C1014 C1016 1.415 . S
C1015 C1014 1.355 . S
C1015 C1017 1.419 . S
C1016 C1014 1.415 . S
C1016 C1021 1.425 . S
C1016 C1023 1.409 . S
C1017 H1009 0.930 . S
C1017 C1015 1.419 . S
C1017 C1018 1.362 . S
C1018 H1010 0.930 . S
C1018 C1017 1.362 . S
C1018 C1021 1.409 . S
C1019 H1011 0.930 . S
C1019 C1020 1.355 . S
C1019 C1021 1.415 . S
C1020 C1019 1.355 . S
C1020 C1022 1.419 . S
C1021 C1016 1.425 . S
C1021 C1018 1.409 . S
C1021 C1019 1.415 . S
C1022 H1012 0.930 . S
C1022 C1020 1.419 . S
C1022 C1023 1.362 . S
C1023 H1013 0.930 . S
C1023 C1016 1.409 . S
C1023 C1022 1.362 . S
H1024 C1030 0.930 . S
H1025 C1033 0.930 . S
H1026 C1034 0.930 . S
H1027 C1035 0.930 . S
H1028 C1038 0.930 . S
H1029 C1039 0.930 . S
C1030 H1024 0.930 . S
C1030 C1031 1.355 . S
C1030 C1032 1.415 . S
C1031 C1030 1.355 . S
C1031 C1033 1.419 . S
C1032 C1030 1.415 . S
C1032 C1037 1.425 . S
C1032 C1039 1.409 . S
C1033 H1025 0.930 . S
C1033 C1031 1.419 . S
C1033 C1034 1.362 . S
C1034 H1026 0.930 . S
C1034 C1033 1.362 . S
C1034 C1037 1.409 . S
C1035 H1027 0.930 . S
C1035 C1036 1.355 . S
C1035 C1037 1.415 . S
C1036 C1035 1.355 . S
C1036 C1038 1.419 . S
C1037 C1032 1.425 . S
C1037 C1034 1.409 . S
C1037 C1035 1.415 . S
C1038 H1028 0.930 . S
C1038 C1036 1.419 . S
C1038 C1039 1.362 . S
C1039 H1029 0.930 . S
C1039 C1032 1.409 . S
C1039 C1038 1.362 . S
H1040 C1046 0.930 . S
H1041 C1049 0.930 . S
H1042 C1050 0.930 . S
H1043 C1051 0.930 . S
H1044 C1054 0.930 . S
H1045 C1055 0.930 . S
C1046 H1040 0.930 . S
C1046 C1047 1.355 . S
C1046 C1048 1.415 . S
C1047 C1046 1.355 . S
C1047 C1049 1.419 . S
C1048 C1046 1.415 . S
C1048 C1053 1.425 . S
C1048 C1055 1.409 . S
C1049 H1041 0.930 . S
C1049 C1047 1.419 . S
C1049 C1050 1.362 . S
C1050 H1042 0.930 . S
C1050 C1049 1.362 . S
C1050 C1053 1.409 . S
C1051 H1043 0.930 . S
C1051 C1052 1.355 . S
C1051 C1053 1.415 . S
C1052 C1051 1.355 . S
C1052 C1054 1.419 . S
C1053 C1048 1.425 . S
C1053 C1050 1.409 . S
C1053 C1051 1.415 . S
C1054 H1044 0.930 . S
C1054 C1052 1.419 . S
C1054 C1055 1.362 . S
C1055 H1045 0.930 . S
C1055 C1048 1.409 . S
C1055 C1054 1.362 . S
H1056 C1062 0.930 . S
H1057 C1065 0.930 . S
H1058 C1066 0.930 . S
H1059 C1067 0.930 . S
H1060 C1070 0.930 . S
H1061 C1071 0.930 . S
C1062 H1056 0.930 . S
C1062 C1063 1.355 . S
C1062 C1064 1.415 . S
C1063 C1062 1.355 . S
C1063 C1065 1.419 . S
C1064 C1062 1.415 . S
C1064 C1069 1.425 . S
C1064 C1071 1.409 . S
C1065 H1057 0.930 . S
C1065 C1063 1.419 . S
C1065 C1066 1.362 . S
C1066 H1058 0.930 . S
C1066 C1065 1.362 . S
C1066 C1069 1.409 . S
C1067 H1059 0.930 . S
C1067 C1068 1.355 . S
C1067 C1069 1.415 . S
C1068 C1067 1.355 . S
C1068 C1070 1.419 . S
C1069 C1064 1.425 . S
C1069 C1066 1.409 . S
C1069 C1067 1.415 . S
C1070 H1060 0.930 . S
C1070 C1068 1.419 . S
C1070 C1071 1.362 . S
C1071 H1061 0.930 . S
C1071 C1064 1.409 . S
C1071 C1070 1.362 . S
H1072 C1078 0.930 . S
H1073 C1081 0.930 . S
H1074 C1082 0.930 . S
H1075 C1083 0.930 . S
H1076 C1086 0.930 . S
H1077 C1087 0.930 . S
C1078 H1072 0.930 . S
C1078 C1079 1.355 . S
C1078 C1080 1.415 . S
C1079 C1078 1.355 . S
C1079 C1081 1.419 . S
C1080 C1078 1.415 . S
C1080 C1085 1.425 . S
C1080 C1087 1.409 . S
C1081 H1073 0.930 . S
C1081 C1079 1.419 . S
C1081 C1082 1.362 . S
C1082 H1074 0.930 . S
C1082 C1081 1.362 . S
C1082 C1085 1.409 . S
C1083 H1075 0.930 . S
C1083 C1084 1.355 . S
C1083 C1085 1.415 . S
C1084 C1083 1.355 . S
C1084 C1086 1.419 . S
C1085 C1080 1.425 . S
C1085 C1082 1.409 . S
C1085 C1083 1.415 . S
C1086 H1076 0.930 . S
C1086 C1084 1.419 . S
C1086 C1087 1.362 . S
C1087 H1077 0.930 . S
C1087 C1080 1.409 . S
C1087 C1086 1.362 . S
H1088 C1094 0.930 . S
H1089 C1097 0.930 . S
H1090 C1098 0.930 . S
H1091 C1099 0.930 . S
H1092 C1102 0.930 . S
H1093 C1103 0.930 . S
C1094 H1088 0.930 . S
C1094 C1095 1.355 . S
C1094 C1096 1.415 . S
C1095 C1094 1.355 . S
C1095 C1097 1.419 . S
C1096 C1094 1.415 . S
C1096 C1101 1.425 . S
C1096 C1103 1.409 . S
C1097 H1089 0.930 . S
C1097 C1095 1.419 . S
C1097 C1098 1.362 . S
C1098 H1090 0.930 . S
C1098 C1097 1.362 . S
C1098 C1101 1.409 . S
C1099 H1091 0.930 . S
C1099 C1100 1.355 . S
C1099 C1101 1.415 . S
C1100 C1099 1.355 . S
C1100 C1102 1.419 . S
C1101 C1096 1.425 . S
C1101 C1098 1.409 . S
C1101 C1099 1.415 . S
C1102 H1092 0.930 . S
C1102 C1100 1.419 . S
C1102 C1103 1.362 . S
C1103 H1093 0.930 . S
C1103 C1096 1.409 . S
C1103 C1102 1.362 . S
H1104 C1110 0.930 . S
H1105 C1113 0.930 . S
H1106 C1114 0.930 . S
H1107 C1115 0.930 . S
H1108 C1118 0.930 . S
H1109 C1119 0.930 . S
C1110 H1104 0.930 . S
C1110 C1111 1.355 . S
C1110 C1112 1.415 . S
C1111 C1110 1.355 . S
C1111 C1113 1.419 . S
C1112 C1110 1.415 . S
C1112 C1117 1.425 . S
C1112 C1119 1.409 . S
C1113 H1105 0.930 . S
C1113 C1111 1.419 . S
C1113 C1114 1.362 . S
C1114 H1106 0.930 . S
C1114 C1113 1.362 . S
C1114 C1117 1.409 . S
C1115 H1107 0.930 . S
C1115 C1116 1.355 . S
C1115 C1117 1.415 . S
C1116 C1115 1.355 . S
C1116 C1118 1.419 . S
C1117 C1112 1.425 . S
C1117 C1114 1.409 . S
C1117 C1115 1.415 . S
C1118 H1108 0.930 . S
C1118 C1116 1.419 . S
C1118 C1119 1.362 . S
C1119 H1109 0.930 . S
C1119 C1112 1.409 . S
C1119 C1118 1.362 . S
H1120 C1126 0.930 . S
H1121 C1129 0.930 . S
H1122 C1130 0.930 . S
H1123 C1131 0.930 . S
H1124 C1134 0.930 . S
H1125 C1135 0.930 . S
C1126 H1120 0.930 . S
C1126 C1127 1.355 . S
C1126 C1128 1.415 . S
C1127 C1126 1.355 . S
C1127 C1129 1.419 . S
C1128 C1126 1.415 . S
C1128 C1133 1.425 . S
C1128 C1135 1.409 . S
C1129 H1121 0.930 . S
C1129 C1127 1.419 . S
C1129 C1130 1.362 . S
C1130 H1122 0.930 . S
C1130 C1129 1.362 . S
C1130 C1133 1.409 . S
C1131 H1123 0.930 . S
C1131 C1132 1.355 . S
C1131 C1133 1.415 . S
C1132 C1131 1.355 . S
C1132 C1134 1.419 . S
C1133 C1128 1.425 . S
C1133 C1130 1.409 . S
C1133 C1131 1.415 . S
C1134 H1124 0.930 . S
C1134 C1132 1.419 . S
C1134 C1135 1.362 . S
C1135 H1125 0.930 . S
C1135 C1128 1.409 . S
C1135 C1134 1.362 . S
H1136 C1142 0.930 . S
H1137 C1145 0.930 . S
H1138 C1146 0.930 . S
H1139 C1147 0.930 . S
H1140 C1150 0.930 . S
H1141 C1151 0.930 . S
C1142 H1136 0.930 . S
C1142 C1143 1.355 . S
C1142 C1144 1.415 . S
C1143 C1142 1.355 . S
C1143 C1145 1.419 . S
C1144 C1142 1.415 . S
C1144 C1149 1.425 . S
C1144 C1151 1.409 . S
C1145 H1137 0.930 . S
C1145 C1143 1.419 . S
C1145 C1146 1.362 . S
C1146 H1138 0.930 . S
C1146 C1145 1.362 . S
C1146 C1149 1.409 . S
C1147 H1139 0.930 . S
C1147 C1148 1.355 . S
C1147 C1149 1.415 . S
C1148 C1147 1.355 . S
C1148 C1150 1.419 . S
C1149 C1144 1.425 . S
C1149 C1146 1.409 . S
C1149 C1147 1.415 . S
C1150 H1140 0.930 . S
C1150 C1148 1.419 . S
C1150 C1151 1.362 . S
C1151 H1141 0.930 . S
C1151 C1144 1.409 . S
C1151 C1150 1.362 . S
H1152 C1158 0.930 . S
H1153 C1161 0.930 . S
H1154 C1162 0.930 . S
H1155 C1163 0.930 . S
H1156 C1166 0.930 . S
H1157 C1167 0.930 . S
C1158 H1152 0.930 . S
C1158 C1159 1.355 . S
C1158 C1160 1.415 . S
C1159 C1158 1.355 . S
C1159 C1161 1.419 . S
C1160 C1158 1.415 . S
C1160 C1165 1.425 . S
C1160 C1167 1.409 . S
C1161 H1153 0.930 . S
C1161 C1159 1.419 . S
C1161 C1162 1.362 . S
C1162 H1154 0.930 . S
C1162 C1161 1.362 . S
C1162 C1165 1.409 . S
C1163 H1155 0.930 . S
C1163 C1164 1.355 . S
C1163 C1165 1.415 . S
C1164 C1163 1.355 . S
C1164 C1166 1.419 . S
C1165 C1160 1.425 . S
C1165 C1162 1.409 . S
C1165 C1163 1.415 . S
C1166 H1156 0.930 . S
C1166 C1164 1.419 . S
C1166 C1167 1.362 . S
C1167 H1157 0.930 . S
C1167 C1160 1.409 . S
C1167 C1166 1.362 . S
H1168 C1174 0.930 . S
H1169 C1177 0.930 . S
H1170 C1178 0.930 . S
H1171 C1179 0.930 . S
H1172 C1182 0.930 . S
H1173 C1183 0.930 . S
C1174 H1168 0.930 . S
C1174 C1175 1.355 . S
C1174 C1176 1.415 . S
C1175 C1174 1.355 . S
C1175 C1177 1.419 . S
C1176 C1174 1.415 . S
C1176 C1181 1.425 . S
C1176 C1183 1.409 . S
C1177 H1169 0.930 . S
C1177 C1175 1.419 . S
C1177 C1178 1.362 . S
C1178 H1170 0.930 . S
C1178 C1177 1.362 . S
C1178 C1181 1.409 . S
C1179 H1171 0.930 . S
C1179 C1180 1.355 . S
C1179 C1181 1.415 . S
C1180 C1179 1.355 . S
C1180 C1182 1.419 . S
C1181 C1176 1.425 . S
C1181 C1178 1.409 . S
C1181 C1179 1.415 . S
C1182 H1172 0.930 . S
C1182 C1180 1.419 . S
C1182 C1183 1.362 . S
C1183 H1173 0.930 . S
C1183 C1176 1.409 . S
C1183 C1182 1.362 . S
H1184 C1190 0.930 . S
H1185 C1193 0.930 . S
H1186 C1194 0.930 . S
H1187 C1195 0.930 . S
H1188 C1198 0.930 . S
H1189 C1199 0.930 . S
C1190 H1184 0.930 . S
C1190 C1191 1.355 . S
C1190 C1192 1.415 . S
C1191 C1190 1.355 . S
C1191 C1193 1.419 . S
C1192 C1190 1.415 . S
C1192 C1197 1.425 . S
C1192 C1199 1.409 . S
C1193 H1185 0.930 . S
C1193 C1191 1.419 . S
C1193 C1194 1.362 . S
C1194 H1186 0.930 . S
C1194 C1193 1.362 . S
C1194 C1197 1.409 . S
C1195 H1187 0.930 . S
C1195 C1196 1.355 . S
C1195 C1197 1.415 . S
C1196 C1195 1.355 . S
C1196 C1198 1.419 . S
C1197 C1192 1.425 . S
C1197 C1194 1.409 . S
C1197 C1195 1.415 . S
C1198 H1188 0.930 . S
C1198 C1196 1.419 . S
C1198 C1199 1.362 . S
C1199 H1189 0.930 . S
C1199 C1192 1.409 . S
C1199 C1198 1.362 . S
H1200 C1206 0.930 . S
H1201 C1209 0.930 . S
H1202 C1210 0.930 . S
H1203 C1211 0.930 . S
H1204 C1214 0.930 . S
H1205 C1215 0.930 . S
C1206 H1200 0.930 . S
C1206 C1207 1.355 . S
C1206 C1208 1.415 . S
C1207 C1206 1.355 . S
C1207 C1209 1.419 . S
C1208 C1206 1.415 . S
C1208 C1213 1.425 . S
C1208 C1215 1.409 . S
C1209 H1201 0.930 . S
C1209 C1207 1.419 . S
C1209 C1210 1.362 . S
C1210 H1202 0.930 . S
C1210 C1209 1.362 . S
C1210 C1213 1.409 . S
C1211 H1203 0.930 . S
C1211 C1212 1.355 . S
C1211 C1213 1.415 . S
C1212 C1211 1.355 . S
C1212 C1214 1.419 . S
C1213 C1208 1.425 . S
C1213 C1210 1.409 . S
C1213 C1211 1.415 . S
C1214 H1204 0.930 . S
C1214 C1212 1.419 . S
C1214 C1215 1.362 . S
C1215 H1205 0.930 . S
C1215 C1208 1.409 . S
C1215 C1214 1.362 . S
H1216 C1222 0.930 . S
H1217 C1225 0.930 . S
H1218 C1226 0.930 . S
H1219 C1227 0.930 . S
H1220 C1230 0.930 . S
H1221 C1231 0.930 . S
C1222 H1216 0.930 . S
C1222 C1223 1.355 . S
C1222 C1224 1.415 . S
C1223 C1222 1.355 . S
C1223 C1225 1.419 . S
C1224 C1222 1.415 . S
C1224 C1229 1.425 . S
C1224 C1231 1.409 . S
C1225 H1217 0.930 . S
C1225 C1223 1.419 . S
C1225 C1226 1.362 . S
C1226 H1218 0.930 . S
C1226 C1225 1.362 . S
C1226 C1229 1.409 . S
C1227 H1219 0.930 . S
C1227 C1228 1.355 . S
C1227 C1229 1.415 . S
C1228 C1227 1.355 . S
C1228 C1230 1.419 . S
C1229 C1224 1.425 . S
C1229 C1226 1.409 . S
C1229 C1227 1.415 . S
C1230 H1220 0.930 . S
C1230 C1228 1.419 . S
C1230 C1231 1.362 . S
C1231 H1221 0.930 . S
C1231 C1224 1.409 . S
C1231 C1230 1.362 . S
H1232 C1238 0.930 . S
H1233 C1241 0.930 . S
H1234 C1242 0.930 . S
H1235 C1243 0.930 . S
H1236 C1246 0.930 . S
H1237 C1247 0.930 . S
C1238 H1232 0.930 . S
C1238 C1239 1.355 . S
C1238 C1240 1.415 . S
C1239 C1238 1.355 . S
C1239 C1241 1.419 . S
C1240 C1238 1.415 . S
C1240 C1245 1.425 . S
C1240 C1247 1.409 . S
C1241 H1233 0.930 . S
C1241 C1239 1.419 . S
C1241 C1242 1.362 . S
C1242 H1234 0.930 . S
C1242 C1241 1.362 . S
C1242 C1245 1.409 . S
C1243 H1235 0.930 . S
C1243 C1244 1.355 . S
C1243 C1245 1.415 . S
C1244 C1243 1.355 . S
C1244 C1246 1.419 . S
C1245 C1240 1.425 . S
C1245 C1242 1.409 . S
C1245 C1243 1.415 . S
C1246 H1236 0.930 . S
C1246 C1244 1.419 . S
C1246 C1247 1.362 . S
C1247 H1237 0.930 . S
C1247 C1240 1.409 . S
C1247 C1246 1.362 . S
H1248 C1254 0.930 . S
H1249 C1257 0.930 . S
H1250 C1258 0.930 . S
H1251 C1259 0.930 . S
H1252 C1262 0.930 . S
H1253 C1263 0.930 . S
C1254 H1248 0.930 . S
C1254 C1255 1.355 . S
C1254 C1256 1.415 . S
C1255 C1254 1.355 . S
C1255 C1257 1.419 . S
C1256 C1254 1.415 . S
C1256 C1261 1.425 . S
C1256 C1263 1.409 . S
C1257 H1249 0.930 . S
C1257 C1255 1.419 . S
C1257 C1258 1.362 . S
C1258 H1250 0.930 . S
C1258 C1257 1.362 . S
C1258 C1261 1.409 . S
C1259 H1251 0.930 . S
C1259 C1260 1.355 . S
C1259 C1261 1.415 . S
C1260 C1259 1.355 . S
C1260 C1262 1.419 . S
C1261 C1256 1.425 . S
C1261 C1258 1.409 . S
C1261 C1259 1.415 . S
C1262 H1252 0.930 . S
C1262 C1260 1.419 . S
C1262 C1263 1.362 . S
C1263 H1253 0.930 . S
C1263 C1256 1.409 . S
C1263 C1262 1.362 . S
H1264 C1270 0.930 . S
H1265 C1273 0.930 . S
H1266 C1274 0.930 . S
H1267 C1275 0.930 . S
H1268 C1278 0.930 . S
H1269 C1279 0.930 . S
C1270 H1264 0.930 . S
C1270 C1271 1.355 . S
C1270 C1272 1.415 . S
C1271 C1270 1.355 . S
C1271 C1273 1.419 . S
C1272 C1270 1.415 . S
C1272 C1277 1.425 . S
C1272 C1279 1.409 . S
C1273 H1265 0.930 . S
C1273 C1271 1.419 . S
C1273 C1274 1.362 . S
C1274 H1266 0.930 . S
C1274 C1273 1.362 . S
C1274 C1277 1.409 . S
C1275 H1267 0.930 . S
C1275 C1276 1.355 . S
C1275 C1277 1.415 . S
C1276 C1275 1.355 . S
C1276 C1278 1.419 . S
C1277 C1272 1.425 . S
C1277 C1274 1.409 . S
C1277 C1275 1.415 . S
C1278 H1268 0.930 . S
C1278 C1276 1.419 . S
C1278 C1279 1.362 . S
C1279 H1269 0.930 . S
C1279 C1272 1.409 . S
C1279 C1278 1.362 . S
H1280 C1286 0.930 . S
H1281 C1289 0.930 . S
H1282 C1290 0.930 . S
H1283 C1291 0.930 . S
H1284 C1294 0.930 . S
H1285 C1295 0.930 . S
C1286 H1280 0.930 . S
C1286 C1287 1.355 . S
C1286 C1288 1.415 . S
C1287 C1286 1.355 . S
C1287 C1289 1.419 . S
C1288 C1286 1.415 . S
C1288 C1293 1.425 . S
C1288 C1295 1.409 . S
C1289 H1281 0.930 . S
C1289 C1287 1.419 . S
C1289 C1290 1.362 . S
C1290 H1282 0.930 . S
C1290 C1289 1.362 . S
C1290 C1293 1.409 . S
C1291 H1283 0.930 . S
C1291 C1292 1.355 . S
C1291 C1293 1.415 . S
C1292 C1291 1.355 . S
C1292 C1294 1.419 . S
C1293 C1288 1.425 . S
C1293 C1290 1.409 . S
C1293 C1291 1.415 . S
C1294 H1284 0.930 . S
C1294 C1292 1.419 . S
C1294 C1295 1.362 . S
C1295 H1285 0.930 . S
C1295 C1288 1.409 . S
C1295 C1294 1.362 . S
H1296 C1302 0.930 . S
H1297 C1305 0.930 . S
H1298 C1306 0.930 . S
H1299 C1307 0.930 . S
H1300 C1310 0.930 . S
H1301 C1311 0.930 . S
C1302 H1296 0.930 . S
C1302 C1303 1.355 . S
C1302 C1304 1.415 . S
C1303 C1302 1.355 . S
C1303 C1305 1.419 . S
C1304 C1302 1.415 . S
C1304 C1309 1.425 . S
C1304 C1311 1.409 . S
C1305 H1297 0.930 . S
C1305 C1303 1.419 . S
C1305 C1306 1.362 . S
C1306 H1298 0.930 . S
C1306 C1305 1.362 . S
C1306 C1309 1.409 . S
C1307 H1299 0.930 . S
C1307 C1308 1.355 . S
C1307 C1309 1.415 . S
C1308 C1307 1.355 . S
C1308 C1310 1.419 . S
C1309 C1304 1.425 . S
C1309 C1306 1.409 . S
C1309 C1307 1.415 . S
C1310 H1300 0.930 . S
C1310 C1308 1.419 . S
C1310 C1311 1.362 . S
C1311 H1301 0.930 . S
C1311 C1304 1.409 . S
C1311 C1310 1.362 . S
H1312 C1318 0.930 . S
H1313 C1321 0.930 . S
H1314 C1322 0.930 . S
H1315 C1323 0.930 . S
H1316 C1326 0.930 . S
H1317 C1327 0.930 . S
C1318 H1312 0.930 . S
C1318 C1319 1.355 . S
C1318 C1320 1.415 . S
C1319 C1318 1.355 . S
C1319 C1321 1.419 . S
C1320 C1318 1.415 . S
C1320 C1325 1.425 . S
C1320 C1327 1.409 . S
C1321 H1313 0.930 . S
C1321 C1319 1.419 . S
C1321 C1322 1.362 . S
C1322 H1314 0.930 . S
C1322 C1321 1.362 . S
C1322 C1325 1.409 . S
C1323 H1315 0.930 . S
C1323 C1324 1.355 . S
C1323 C1325 1.415 . S
C1324 C1323 1.355 . S
C1324 C1326 1.419 . S
C1325 C1320 1.425 . S
C1325 C1322 1.409 . S
C1325 C1323 1.415 . S
C1326 H1316 0.930 . S
C1326 C1324 1.419 . S
C1326 C1327 1.362 . S
C1327 H1317 0.930 . S
C1327 C1320 1.409 . S
C1327 C1326 1.362 . S
H1328 C1334 0.930 . S
H1329 C1337 0.930 . S
H1330 C1338 0.930 . S
H1331 C1339 0.930 . S
H1332 C1342 0.930 . S
H1333 C1343 0.930 . S
C1334 H1328 0.930 . S
C1334 C1335 1.355 . S
C1334 C1336 1.415 . S
C1335 C1334 1.355 . S
C1335 C1337 1.419 . S
C1336 C1334 1.415 . S
C1336 C1341 1.425 . S
C1336 C1343 1.409 . S
C1337 H1329 0.930 . S
C1337 C1335 1.419 . S
C1337 C1338 1.362 . S
C1338 H1330 0.930 . S
C1338 C1337 1.362 . S
C1338 C1341 1.409 . S
C1339 H1331 0.930 . S
C1339 C1340 1.355 . S
C1339 C1341 1.415 . S
C1340 C1339 1.355 . S
C1340 C1342 1.419 . S
C1341 C1336 1.425 . S
C1341 C1338 1.409 . S
C1341 C1339 1.415 . S
C1342 H1332 0.930 . S
C1342 C1340 1.419 . S
C1342 C1343 1.362 . S
C1343 H1333 0.930 . S
C1343 C1336 1.409 . S
C1343 C1342 1.362 . S
H1344 C1350 0.930 . S
H1345 C1353 0.930 . S
H1346 C1354 0.930 . S
H1347 C1355 0.930 . S
H1348 C1358 0.930 . S
H1349 C1359 0.930 . S
C1350 H1344 0.930 . S
C1350 C1351 1.355 . S
C1350 C1352 1.415 . S
C1351 C1350 1.355 . S
C1351 C1353 1.419 . S
C1352 C1350 1.415 . S
C1352 C1357 1.425 . S
C1352 C1359 1.409 . S
C1353 H1345 0.930 . S
C1353 C1351 1.419 . S
C1353 C1354 1.362 . S
C1354 H1346 0.930 . S
C1354 C1353 1.362 . S
C1354 C1357 1.409 . S
C1355 H1347 0.930 . S
C1355 C1356 1.355 . S
C1355 C1357 1.415 . S
C1356 C1355 1.355 . S
C1356 C1358 1.419 . S
C1357 C1352 1.425 . S
C1357 C1354 1.409 . S
C1357 C1355 1.415 . S
C1358 H1348 0.930 . S
C1358 C1356 1.419 . S
C1358 C1359 1.362 . S
C1359 H1349 0.930 . S
C1359 C1352 1.409 . S
C1359 C1358 1.362 . S
H1360 C1366 0.930 . S
H1361 C1369 0.930 . S
H1362 C1370 0.930 . S
H1363 C1371 0.930 . S
H1364 C1374 0.930 . S
H1365 C1375 0.930 . S
C1366 H1360 0.930 . S
C1366 C1367 1.355 . S
C1366 C1368 1.415 . S
C1367 C1366 1.355 . S
C1367 C1369 1.419 . S
C1368 C1366 1.415 . S
C1368 C1373 1.425 . S
C1368 C1375 1.409 . S
C1369 H1361 0.930 . S
C1369 C1367 1.419 . S
C1369 C1370 1.362 . S
C1370 H1362 0.930 . S
C1370 C1369 1.362 . S
C1370 C1373 1.409 . S
C1371 H1363 0.930 . S
C1371 C1372 1.355 . S
C1371 C1373 1.415 . S
C1372 C1371 1.355 . S
C1372 C1374 1.419 . S
C1373 C1368 1.425 . S
C1373 C1370 1.409 . S
C1373 C1371 1.415 . S
C1374 H1364 0.930 . S
C1374 C1372 1.419 . S
C1374 C1375 1.362 . S
C1375 H1365 0.930 . S
C1375 C1368 1.409 . S
C1375 C1374 1.362 . S
H1376 C1382 0.930 . S
H1377 C1385 0.930 . S
H1378 C1386 0.930 . S
H1379 C1387 0.930 . S
H1380 C1390 0.930 . S
H1381 C1391 0.930 . S
C1382 H1376 0.930 . S
C1382 C1383 1.355 . S
C1382 C1384 1.415 . S
C1383 C1382 1.355 . S
C1383 C1385 1.419 . S
C1384 C1382 1.415 . S
C1384 C1389 1.425 . S
C1384 C1391 1.409 . S
C1385 H1377 0.930 . S
C1385 C1383 1.419 . S
C1385 C1386 1.362 . S
C1386 H1378 0.930 . S
C1386 C1385 1.362 . S
C1386 C1389 1.409 . S
C1387 H1379 0.930 . S
C1387 C1388 1.355 . S
C1387 C1389 1.415 . S
C1388 C1387 1.355 . S
C1388 C1390 1.419 . S
C1389 C1384 1.425 . S
C1389 C1386 1.409 . S
C1389 C1387 1.415 . S
C1390 H1380 0.930 . S
C1390 C1388 1.419 . S
C1390 C1391 1.362 . S
C1391 H1381 0.930 . S
C1391 C1384 1.409 . S
C1391 C1390 1.362 . S
H1392 C1398 0.930 . S
H1393 C1401 0.930 . S
H1394 C1402 0.930 . S
H1395 C1403 0.930 . S
H1396 C1406 0.930 . S
H1397 C1407 0.930 . S
C1398 H1392 0.930 . S
C1398 C1399 1.355 . S
C1398 C1400 1.415 . S
C1399 C1398 1.355 . S
C1399 C1401 1.419 . S
C1400 C1398 1.415 . S
C1400 C1405 1.425 . S
C1400 C1407 1.409 . S
C1401 H1393 0.930 . S
C1401 C1399 1.419 . S
C1401 C1402 1.362 . S
C1402 H1394 0.930 . S
C1402 C1401 1.362 . S
C1402 C1405 1.409 . S
C1403 H1395 0.930 . S
C1403 C1404 1.355 . S
C1403 C1405 1.415 . S
C1404 C1403 1.355 . S
C1404 C1406 1.419 . S
C1405 C1400 1.425 . S
C1405 C1402 1.409 . S
C1405 C1403 1.415 . S
C1406 H1396 0.930 . S
C1406 C1404 1.419 . S
C1406 C1407 1.362 . S
C1407 H1397 0.930 . S
C1407 C1400 1.409 . S
C1407 C1406 1.362 . S
H1408 C1414 0.930 . S
H1409 C1417 0.930 . S
H1410 C1418 0.930 . S
H1411 C1419 0.930 . S
H1412 C1422 0.930 . S
H1413 C1423 0.930 . S
C1414 H1408 0.930 . S
C1414 C1415 1.355 . S
C1414 C1416 1.415 . S
C1415 C1414 1.355 . S
C1415 C1417 1.419 . S
C1416 C1414 1.415 . S
C1416 C1421 1.425 . S
C1416 C1423 1.409 . S
C1417 H1409 0.930 . S
C1417 C1415 1.419 . S
C1417 C1418 1.362 . S
C1418 H1410 0.930 . S
C1418 C1417 1.362 . S
C1418 C1421 1.409 . S
C1419 H1411 0.930 . S
C1419 C1420 1.355 . S
C1419 C1421 1.415 . S
C1420 C1419 1.355 . S
C1420 C1422 1.419 . S
C1421 C1416 1.425 . S
C1421 C1418 1.409 . S
C1421 C1419 1.415 . S
C1422 H1412 0.930 . S
C1422 C1420 1.419 . S
C1422 C1423 1.362 . S
C1423 H1413 0.930 . S
C1423 C1416 1.409 . S
C1423 C1422 1.362 . S
H1424 C1430 0.930 . S
H1425 C1433 0.930 . S
H1426 C1434 0.930 . S
H1427 C1435 0.930 . S
H1428 C1438 0.930 . S
H1429 C1439 0.930 . S
C1430 H1424 0.930 . S
C1430 C1431 1.355 . S
C1430 C1432 1.415 . S
C1431 C1430 1.355 . S
C1431 C1433 1.419 . S
C1432 C1430 1.415 . S
C1432 C1437 1.425 . S
C1432 C1439 1.409 . S
C1433 H1425 0.930 . S
C1433 C1431 1.419 . S
C1433 C1434 1.362 . S
C1434 H1426 0.930 . S
C1434 C1433 1.362 . S
C1434 C1437 1.409 . S
C1435 H1427 0.930 . S
C1435 C1436 1.355 . S
C1435 C1437 1.415 . S
C1436 C1435 1.355 . S
C1436 C1438 1.419 . S
C1437 C1432 1.425 . S
C1437 C1434 1.409 . S
C1437 C1435 1.415 . S
C1438 H1428 0.930 . S
C1438 C1436 1.419 . S
C1438 C1439 1.362 . S
C1439 H1429 0.930 . S
C1439 C1432 1.409 . S
C1439 C1438 1.362 . S
C423 C30 0.818 . S
C428 C4 0.804 . S
C439 C23 0.887 . S
C444 C43 0.916 . S
C455 C82 0.821 . S
C460 C56 0.857 . S
C471 C95 0.895 . S
C476 C69 0.857 . S
C487 C108 0.816 1_545 S
C492 C140 0.804 . S
C503 C153 0.834 1_545 S
C508 C121 0.873 . S
C519 C160 0.806 1_565 S
C524 C192 0.827 . S
C535 C173 0.924 . S
C540 C199 0.915 1_565 S
C551 C238 0.909 . S
C556 C212 0.924 . S
C567 C225 0.923 . S
C572 C251 0.903 . S
C583 C264 0.809 . S
C588 C290 0.836 . S
C599 C303 0.869 . S
C604 C283 0.831 . S
C615 C348 0.883 . S
C620 C322 0.913 1_545 S
C631 C361 0.858 1_545 S
C636 C335 0.822 . S
C647 C400 0.841 . S
C652 C368 0.812 1_565 S
C663 C381 0.806 . S
C668 C407 0.810 1_565 S
C679 C62 1.600 . S
C684 C10 1.600 . S
C695 C387 1.582 . S
C700 C17 1.582 . S
C711 C36 1.585 . S
C716 C186 1.585 . S
C727 C49 1.605 . S
C732 C309 1.605 . S
C743 C75 1.555 . S
C748 C329 1.555 . S
C759 C88 1.589 . S
C764 C134 1.589 . S
C775 C257 1.607 . S
C780 C101 1.607 . S
C791 C166 1.594 . S
C796 C114 1.594 . S
C807 C277 1.597 . S
C812 C127 1.597 . S
C823 C147 1.593 . S
C828 C413 1.593 . S
C839 C179 1.558 . S
C844 C231 1.558 . S
C855 C355 1.607 . S
C860 C205 1.607 . S
C871 C270 1.558 . S
C876 C218 1.558 . S
C887 C244 1.559 . S
C892 C394 1.559 . S
C903 C296 1.554 . S
C908 C342 1.554 . S
C919 C374 1.603 . S
C924 C316 1.603 . S
C935 C42 1.552 . S
C940 C3 1.567 . S
C951 C29 1.561 . S
C956 C18 1.567 . S
C967 C94 1.566 . S
C972 C55 1.564 . S
C983 C81 1.541 . S
C988 C68 1.537 . S
C999 C148 1.564 . S
C1004 C107 1.545 . S
C1015 C135 1.562 . S
C1020 C120 1.566 . S
C1031 C198 1.562 . S
C1036 C159 1.567 . S
C1047 C187 1.567 . S
C1052 C172 1.562 . S
C1063 C211 1.536 . S
C1068 C250 1.552 . S
C1079 C237 1.560 . S
C1084 C224 1.541 . S
C1095 C263 1.536 . S
C1100 C302 1.552 . S
C1111 C289 1.566 . S
C1116 C278 1.564 . S
C1127 C356 1.563 . S
C1132 C317 1.567 . S
C1143 C330 1.566 . S
C1148 C343 1.563 . S
C1159 C367 1.568 . S
C1164 C406 1.559 . S
C1175 C395 1.568 . S
C1180 C380 1.560 . S
C1191 C31 1.434 1_545 S
C1196 C5 1.458 . S
C1207 C16 1.468 1_545 S
C1212 C44 1.457 . S
C1223 C57 1.439 . S
C1228 C83 1.464 1_565 S
C1239 C70 1.459 1_565 S
C1244 C96 1.435 . S
C1255 C109 1.431 . S
C1260 C133 1.453 . S
C1271 C122 1.439 . S
C1276 C146 1.432 . S
C1287 C185 1.438 . S
C1292 C161 1.433 . S
C1303 C200 1.444 . S
C1308 C174 1.467 . S
C1319 C239 1.431 1_545 S
C1324 C213 1.441 . S
C1335 C252 1.455 . S
C1340 C226 1.432 1_545 S
C1351 C265 1.445 . S
C1356 C291 1.430 1_565 S
C1367 C304 1.430 . S
C1372 C276 1.443 1_565 S
C1383 C341 1.436 . S
C1388 C315 1.433 . S
C1399 C328 1.441 . S
C1404 C354 1.431 . S
C1415 C369 1.468 . S
C1420 C393 1.457 . S
C1431 C408 1.468 . S
C1436 C382 1.448 . S
