# Generated by pormake.
# Topology sou, (8)-cn, num edge types: 1
# Building blocks:
#     Node 0, Type 0, BuildingBlock: EBIMEJ_clean_sbu_0, # of connection points: 8
#     Node 1, Type 0, BuildingBlock: EBIMEJ_clean_sbu_0, # of connection points: 8
#     Node 2, Type 0, BuildingBlock: EBIMEJ_clean_sbu_0, # of connection points: 8
#     Node 3, Type 0, BuildingBlock: EBIMEJ_clean_sbu_0, # of connection points: 8
#     Node 4, Type 0, BuildingBlock: EBIMEJ_clean_sbu_0, # of connection points: 8
#     Node 5, Type 0, BuildingBlock: EBIMEJ_clean_sbu_0, # of connection points: 8
#     Node 6, Type 0, BuildingBlock: EBIMEJ_clean_sbu_0, # of connection points: 8
#     Node 7, Type 0, BuildingBlock: EBIMEJ_clean_sbu_0, # of connection points: 8
#     Node 8, Type 0, BuildingBlock: EBIMEJ_clean_sbu_0, # of connection points: 8
#     Node 9, Type 0, BuildingBlock: EBIMEJ_clean_sbu_0, # of connection points: 8
#     Node 10, Type 0, BuildingBlock: EBIMEJ_clean_sbu_0, # of connection points: 8
#     Node 11, Type 0, BuildingBlock: EBIMEJ_clean_sbu_0, # of connection points: 8
#     Node 12, Type 0, BuildingBlock: EBIMEJ_clean_sbu_0, # of connection points: 8
#     Node 13, Type 0, BuildingBlock: EBIMEJ_clean_sbu_0, # of connection points: 8
#     Node 14, Type 0, BuildingBlock: EBIMEJ_clean_sbu_0, # of connection points: 8
#     Node 15, Type 0, BuildingBlock: EBIMEJ_clean_sbu_0, # of connection points: 8
#     Node 16, Type 0, BuildingBlock: EBIMEJ_clean_sbu_0, # of connection points: 8
#     Node 17, Type 0, BuildingBlock: EBIMEJ_clean_sbu_0, # of connection points: 8
#     Node 18, Type 0, BuildingBlock: EBIMEJ_clean_sbu_0, # of connection points: 8
#     Node 19, Type 0, BuildingBlock: EBIMEJ_clean_sbu_0, # of connection points: 8
#     Node 20, Type 0, BuildingBlock: EBIMEJ_clean_sbu_0, # of connection points: 8
#     Node 21, Type 0, BuildingBlock: EBIMEJ_clean_sbu_0, # of connection points: 8
#     Node 22, Type 0, BuildingBlock: EBIMEJ_clean_sbu_0, # of connection points: 8
#     Node 23, Type 0, BuildingBlock: EBIMEJ_clean_sbu_0, # of connection points: 8
#     Node 24, Type 0, BuildingBlock: EBIMEJ_clean_sbu_0, # of connection points: 8
#     Node 25, Type 0, BuildingBlock: EBIMEJ_clean_sbu_0, # of connection points: 8
#     Node 26, Type 0, BuildingBlock: EBIMEJ_clean_sbu_0, # of connection points: 8
#     Node 27, Type 0, BuildingBlock: EBIMEJ_clean_sbu_0, # of connection points: 8
#     Node 28, Type 0, BuildingBlock: EBIMEJ_clean_sbu_0, # of connection points: 8
#     Node 29, Type 0, BuildingBlock: EBIMEJ_clean_sbu_0, # of connection points: 8
#     Node 30, Type 0, BuildingBlock: EBIMEJ_clean_sbu_0, # of connection points: 8
#     Node 31, Type 0, BuildingBlock: EBIMEJ_clean_sbu_0, # of connection points: 8
#     Edge 32, Type (0, 0), None
#     Edge 33, Type (0, 0), None
#     Edge 34, Type (0, 0), None
#     Edge 35, Type (0, 0), None
#     Edge 36, Type (0, 0), None
#     Edge 37, Type (0, 0), None
#     Edge 38, Type (0, 0), None
#     Edge 39, Type (0, 0), None
#     Edge 40, Type (0, 0), None
#     Edge 41, Type (0, 0), None
#     Edge 42, Type (0, 0), None
#     Edge 43, Type (0, 0), None
#     Edge 44, Type (0, 0), None
#     Edge 45, Type (0, 0), None
#     Edge 46, Type (0, 0), None
#     Edge 47, Type (0, 0), None
#     Edge 48, Type (0, 0), None
#     Edge 49, Type (0, 0), None
#     Edge 50, Type (0, 0), None
#     Edge 51, Type (0, 0), None
#     Edge 52, Type (0, 0), None
#     Edge 53, Type (0, 0), None
#     Edge 54, Type (0, 0), None
#     Edge 55, Type (0, 0), None
#     Edge 56, Type (0, 0), None
#     Edge 57, Type (0, 0), None
#     Edge 58, Type (0, 0), None
#     Edge 59, Type (0, 0), None
#     Edge 60, Type (0, 0), None
#     Edge 61, Type (0, 0), None
#     Edge 62, Type (0, 0), None
#     Edge 63, Type (0, 0), None
#     Edge 64, Type (0, 0), None
#     Edge 65, Type (0, 0), None
#     Edge 66, Type (0, 0), None
#     Edge 67, Type (0, 0), None
#     Edge 68, Type (0, 0), None
#     Edge 69, Type (0, 0), None
#     Edge 70, Type (0, 0), None
#     Edge 71, Type (0, 0), None
#     Edge 72, Type (0, 0), None
#     Edge 73, Type (0, 0), None
#     Edge 74, Type (0, 0), None
#     Edge 75, Type (0, 0), None
#     Edge 76, Type (0, 0), None
#     Edge 77, Type (0, 0), None
#     Edge 78, Type (0, 0), None
#     Edge 79, Type (0, 0), None
#     Edge 80, Type (0, 0), None
#     Edge 81, Type (0, 0), None
#     Edge 82, Type (0, 0), None
#     Edge 83, Type (0, 0), None
#     Edge 84, Type (0, 0), None
#     Edge 85, Type (0, 0), None
#     Edge 86, Type (0, 0), None
#     Edge 87, Type (0, 0), None
#     Edge 88, Type (0, 0), None
#     Edge 89, Type (0, 0), None
#     Edge 90, Type (0, 0), None
#     Edge 91, Type (0, 0), None
#     Edge 92, Type (0, 0), None
#     Edge 93, Type (0, 0), None
#     Edge 94, Type (0, 0), None
#     Edge 95, Type (0, 0), None
#     Edge 96, Type (0, 0), None
#     Edge 97, Type (0, 0), None
#     Edge 98, Type (0, 0), None
#     Edge 99, Type (0, 0), None
#     Edge 100, Type (0, 0), None
#     Edge 101, Type (0, 0), None
#     Edge 102, Type (0, 0), None
#     Edge 103, Type (0, 0), None
#     Edge 104, Type (0, 0), None
#     Edge 105, Type (0, 0), None
#     Edge 106, Type (0, 0), None
#     Edge 107, Type (0, 0), None
#     Edge 108, Type (0, 0), None
#     Edge 109, Type (0, 0), None
#     Edge 110, Type (0, 0), None
#     Edge 111, Type (0, 0), None
#     Edge 112, Type (0, 0), None
#     Edge 113, Type (0, 0), None
#     Edge 114, Type (0, 0), None
#     Edge 115, Type (0, 0), None
#     Edge 116, Type (0, 0), None
#     Edge 117, Type (0, 0), None
#     Edge 118, Type (0, 0), None
#     Edge 119, Type (0, 0), None
#     Edge 120, Type (0, 0), None
#     Edge 121, Type (0, 0), None
#     Edge 122, Type (0, 0), None
#     Edge 123, Type (0, 0), None
#     Edge 124, Type (0, 0), None
#     Edge 125, Type (0, 0), None
#     Edge 126, Type (0, 0), None
#     Edge 127, Type (0, 0), None
#     Edge 128, Type (0, 0), None
#     Edge 129, Type (0, 0), None
#     Edge 130, Type (0, 0), None
#     Edge 131, Type (0, 0), None
#     Edge 132, Type (0, 0), None
#     Edge 133, Type (0, 0), None
#     Edge 134, Type (0, 0), None
#     Edge 135, Type (0, 0), None
#     Edge 136, Type (0, 0), None
#     Edge 137, Type (0, 0), None
#     Edge 138, Type (0, 0), None
#     Edge 139, Type (0, 0), None
#     Edge 140, Type (0, 0), None
#     Edge 141, Type (0, 0), None
#     Edge 142, Type (0, 0), None
#     Edge 143, Type (0, 0), None
#     Edge 144, Type (0, 0), None
#     Edge 145, Type (0, 0), None
#     Edge 146, Type (0, 0), None
#     Edge 147, Type (0, 0), None
#     Edge 148, Type (0, 0), None
#     Edge 149, Type (0, 0), None
#     Edge 150, Type (0, 0), None
#     Edge 151, Type (0, 0), None
#     Edge 152, Type (0, 0), None
#     Edge 153, Type (0, 0), None
#     Edge 154, Type (0, 0), None
#     Edge 155, Type (0, 0), None
#     Edge 156, Type (0, 0), None
#     Edge 157, Type (0, 0), None
#     Edge 158, Type (0, 0), None
#     Edge 159, Type (0, 0), None
# Relax obj value: 0.094
# Max RMSD: 0.257
# Mean RMSD: 0.183
data_MOF--net-sou--node1-EBIMEJ_clean_sbu_0--edge1-none
_symmetry_space_group_name_H-M    P1
_symmetry_Int_Tables_number       1
_symmetry_cell_setting            triclinic
loop_
_symmetry_equiv_pos_as_xyz
'x, y, z'
_cell_length_a     36.612638
_cell_length_b     23.056001
_cell_length_c     22.075464
_cell_angle_alpha  88.732556
_cell_angle_beta   99.1231
_cell_angle_gamma 95.675932
loop_
_atom_site_label
_atom_site_type_symbol
_atom_site_fract_x
_atom_site_fract_y
_atom_site_fract_z
_atom_type_partial_charge
Co0 Co 0.97111 0.22655 0.00032 0.0
Co1 Co 1.00823 0.35735 0.01081 0.0
Co2 Co 0.05685 0.26244 0.05739 0.0
H3 H 1.0127 0.25749 0.03707 0.0
O4 O 1.00344 0.28378 0.05537 0.0
H5 H 0.05219 0.36172 0.01887 0.0
O6 O 0.06056 0.33213 0.00414 0.0
Co7 Co 0.09423 0.40125 0.03592 0.0
O8 O 0.06626 0.47338 0.02091 0.0
O9 O 1.01365 0.4326 0.96743 0.0
O10 O 0.13319 0.34974 0.07897 0.0
O11 O 0.11214 0.25463 0.07357 0.0
O12 O 0.94196 0.17525 0.9283 0.0
O13 O 0.92125 0.18247 0.00965 0.0
O14 O 0.07486 0.43549 0.10805 0.0
O15 O 1.01533 0.39957 0.09372 0.0
C16 C 1.01853 0.1579 0.10006 0.0
C17 C 0.92631 0.3316 -0.00299 0.0
C18 C 0.14697 0.45647 -0.00881 0.0
C19 C 0.0281 0.20042 0.93651 0.0
C20 C 0.03393 0.477 -0.00944 0.0
C21 C 0.13812 0.2957 0.08847 0.0
C22 C 0.91597 0.15945 0.95758 0.0
C23 C 0.04258 0.43115 0.12417 0.0
O24 O 0.98917 0.16659 0.06281 0.0
O25 O 0.04834 0.19246 0.10727 0.0
O26 O 0.95502 0.36822 0.00631 0.0
O27 O 0.92777 0.27681 -0.00603 0.0
O28 O 0.13734 0.46514 0.0421 0.0
O29 O 0.12694 0.41427 0.9644 0.0
O30 O 0.99884 0.22618 0.93026 0.0
O31 O 0.05235 0.20718 0.98488 0.0
Co32 Co 0.33119 0.90041 0.98303 0.0
Co33 Co 0.25135 0.89127 0.03244 0.0
Co34 Co 0.3055 0.99573 0.06425 0.0
H35 H 0.31275 0.93755 0.03387 0.0
O36 O 0.30524 0.90711 0.05348 0.0
H37 H 0.24395 0.9432 0.07296 0.0
O38 O 0.2514 0.9756 0.05711 0.0
Co39 Co 0.22255 0.97201 0.12697 0.0
O40 O 0.17833 0.91082 0.09347 0.0
O41 O 0.19771 0.87903 0.01026 0.0
O42 O 0.24192 0.06034 0.11596 0.0
O43 O 0.29923 0.07342 0.08724 0.0
O44 O 0.38554 0.90532 0.96966 0.0
O45 O 0.36058 0.82785 0.00078 0.0
O46 O 0.25527 0.91648 0.18255 0.0
O47 O 0.25201 0.84863 0.11243 0.0
C48 C 0.37493 0.01533 0.00577 0.0
C49 C 0.27936 0.787 -0.00987 0.0
C50 C 0.16589 1.00229 0.1709 0.0
C51 C 0.29548 0.00859 0.92859 0.0
C52 C 0.1725 0.88312 0.04247 0.0
C53 C 0.27023 0.09269 0.10102 0.0
C54 C 0.39007 0.85454 -0.01187 0.0
C55 C 0.26153 0.86524 0.16758 0.0
O56 O 0.36313 0.97335 0.96921 0.0
O57 O 0.36044 0.02204 0.05489 0.0
O58 O 0.25261 0.81304 0.00162 0.0
O59 O 0.31077 0.8137 0.9828 0.0
O60 O 0.18912 0.9688 0.19608 0.0
O61 O 0.17572 0.01846 0.12072 0.0
O62 O 0.3106 0.96184 0.92088 0.0
O63 O 0.29014 0.02403 0.98046 0.0
Co64 Co 0.96391 0.01603 0.19266 0.0
Co65 Co 0.99701 0.89437 0.19756 0.0
Co66 Co 0.04973 1.00345 0.19035 0.0
H67 H 1.0056 0.99689 0.18041 0.0
O68 O 0.99574 0.96981 0.15465 0.0
H69 H 0.03982 0.90247 0.20537 0.0
O70 O 0.05045 0.92833 0.23186 0.0
Co71 Co 0.07856 0.88252 0.18562 0.0
O72 O 0.05578 0.802 0.20209 0.0
O73 O 1.00392 0.81867 0.23913 0.0
O74 O 0.11038 0.94386 0.14678 0.0
O75 O 0.10674 0.01859 0.20688 0.0
O76 O 0.94615 0.09324 0.21702 0.0
O77 O 0.91352 0.01343 0.21841 0.0
O78 O 0.05496 0.8877 0.09824 0.0
O79 O 1.0007 0.8523 0.11926 0.0
C80 C 1.01686 0.1046 0.13469 0.0
C81 C 0.91458 0.90098 0.16701 0.0
C82 C 0.13316 0.83693 0.23264 0.0
C83 C 1.01479 0.041 0.29904 0.0
C84 C 0.02828 0.7853 0.22886 0.0
C85 C 0.1256 0.98939 0.17524 0.0
C86 C 0.91629 0.06701 0.22839 0.0
C87 C 1.02442 0.8572 0.08286 0.0
O88 O 0.98487 0.08464 0.14627 0.0
O89 O 0.04604 0.07813 0.14732 0.0
O90 O 0.94253 0.87096 0.17538 0.0
O91 O 0.91812 0.95664 0.17061 0.0
O92 O 0.12322 0.8405 0.17584 0.0
O93 O 0.11242 0.85977 0.26338 0.0
O94 O 0.98689 0.00613 0.27934 0.0
O95 O 0.04249 0.04708 0.26907 0.0
Co96 Co 0.33294 0.25003 0.1749 0.0
Co97 Co 0.2973 0.36944 0.1788 0.0
Co98 Co 0.24575 0.25726 0.1492 0.0
H99 H 0.28948 0.26752 0.15255 0.0
O100 O 0.29594 0.29758 0.13081 0.0
H101 H 0.25524 0.35838 0.18285 0.0
O102 O 0.24841 0.32681 0.20158 0.0
Co103 Co 0.21371 0.38474 0.17147 0.0
O104 O 0.23741 0.46062 0.20815 0.0
O105 O 0.29705 0.44146 0.22747 0.0
O106 O 0.20168 0.32644 0.10276 0.0
O107 O 0.18972 0.24183 0.14283 0.0
O108 O 0.36946 0.22842 0.24891 0.0
O109 O 0.37677 0.20661 0.16001 0.0
O110 O 0.22672 0.45045 0.11767 0.0
O111 O 0.27921 0.41647 0.10139 0.0
C112 C 0.27447 0.15503 0.11225 0.0
C113 C 0.37682 0.36946 0.16259 0.0
C114 C 0.16393 0.41852 0.21864 0.0
C115 C 0.28865 0.1921 0.26042 0.0
C116 C 0.2714 0.47525 0.22819 0.0
C117 C 0.17772 0.28435 0.10942 0.0
C118 C 0.38827 0.20326 0.21659 0.0
C119 C 0.25568 0.4551 0.09285 0.0
O120 O 0.30689 0.17488 0.13773 0.0
O121 O 0.24691 0.18571 0.10216 0.0
O122 O 0.34897 0.39817 0.16554 0.0
O123 O 0.37438 0.31386 0.16379 0.0
O124 O 0.1887 0.45091 0.19858 0.0
O125 O 0.16647 0.3652 0.21164 0.0
O126 O 0.31956 0.21875 0.2538 0.0
O127 O 0.2581 0.20306 0.2256 0.0
Co128 Co 0.95853 0.609 0.93975 0.0
Co129 Co 0.99591 0.74782 0.91827 0.0
Co130 Co 0.04453 0.65291 0.96485 0.0
H131 H 1.00057 0.64854 0.95679 0.0
O132 O 0.9922 0.67813 0.97152 0.0
H133 H 0.04006 0.75276 0.93858 0.0
O134 O 0.04931 0.72647 0.92028 0.0
Co135 Co 0.08166 0.7837 0.97532 0.0
O136 O 0.06359 0.84367 0.91283 0.0
O137 O 1.00441 0.81779 0.86839 0.0
O138 O 0.12499 0.73344 0.98162 0.0
O139 O 0.09774 0.64203 0.96934 0.0
O140 O 0.91542 0.54511 0.93357 0.0
O141 O 0.92582 0.59599 0.01126 0.0
O142 O 0.05395 0.78415 0.0454 0.0
O143 O 1.0004 0.80307 -0.00921 0.0
C144 C 1.01883 0.53325 0.98511 0.0
C145 C 0.91463 0.71456 0.88721 0.0
C146 C 0.13682 0.85072 0.0181 0.0
C147 C 1.01018 0.5791 0.85149 0.0
C148 C 0.03423 0.85236 0.87559 0.0
C149 C 0.12644 0.67864 0.9786 0.0
C150 C 0.90579 0.55379 0.98447 0.0
C151 C 1.02467 0.80985 0.03914 0.0
O152 O 0.9865 0.53688 0.95475 0.0
O153 O 0.03911 0.57765 0.00824 0.0
O154 O 0.94062 0.75563 0.90209 0.0
O155 O 0.91957 0.66052 0.8967 0.0
O156 O 0.11077 0.83509 0.0473 0.0
O157 O 0.13156 0.82763 0.96606 0.0
O158 O 0.9779 0.57476 0.86761 0.0
O159 O 0.03743 0.61068 0.88194 0.0
Co160 Co 0.83021 0.03825 0.84868 0.0
Co161 Co 0.74726 0.01453 0.91141 0.0
Co162 Co 0.80141 0.11899 0.94322 0.0
H163 H 0.80881 0.06705 0.9027 0.0
O164 O 0.80136 0.03466 0.91854 0.0
H165 H 0.74002 0.0727 0.94179 0.0
O166 O 0.74752 0.10315 0.92218 0.0
Co167 Co 0.72157 0.10984 -0.00738 0.0
O168 O 0.68963 0.03691 0.00645 0.0
O169 O 0.69232 0.98822 0.92077 0.0
O170 O 0.74199 0.19656 -0.00714 0.0
O171 O 0.80016 0.19721 0.97405 0.0
O172 O 0.86363 0.04144 0.77956 0.0
O173 O 0.87703 0.9918 0.85493 0.0
O174 O 0.74216 0.04842 0.05477 0.0
O175 O 0.76262 0.98623 -0.0048 0.0
C176 C 0.88027 0.12711 0.93319 0.0
C177 C 0.78253 0.91756 0.87465 0.0
C178 C 0.66269 0.15571 0.98749 0.0
C179 C 0.79123 0.14502 0.80808 0.0
C180 C 0.67783 0.99493 0.96989 0.0
C181 C 0.77341 0.22326 0.98553 0.0
C182 C 0.88687 0.00796 0.80474 0.0
C183 C 0.75728 1.00167 0.04707 0.0
O184 O 0.87443 0.09942 0.8822 0.0
O185 O 0.85506 0.13122 0.9654 0.0
O186 O 0.75353 0.93684 0.88842 0.0
O187 O 0.81084 0.94991 0.8597 0.0
O188 O 0.66722 0.10494 0.006 0.0
O189 O 0.69217 0.18239 0.97482 0.0
O190 O 0.79748 0.09378 0.79311 0.0
O191 O 0.80076 0.16162 0.86323 0.0
Co192 Co 0.97419 0.12773 0.79003 0.0
Co193 Co 1.00303 0.00681 0.7853 0.0
Co194 Co 0.05575 0.11589 0.77811 0.0
H195 H 1.01293 0.10779 0.77029 0.0
O196 O 1.00231 0.08193 0.7438 0.0
H197 H 0.04715 0.01337 0.79525 0.0
O198 O 0.05701 0.04044 0.82101 0.0
Co199 Co 0.08884 0.99423 0.78299 0.0
O200 O 0.06788 0.92562 0.82938 0.0
O201 O 1.00672 0.93212 0.82833 0.0
O202 O 0.13463 0.05362 0.80505 0.0
O203 O 0.11023 0.1393 0.8003 0.0
O204 O 0.92952 0.16973 0.7998 0.0
O205 O 0.94034 0.15049 0.71226 0.0
O206 O 0.06586 1.00413 0.69631 0.0
O207 O 1.01027 0.96318 0.70659 0.0
C208 C 1.02447 0.22496 0.74681 0.0
C209 C 0.92715 0.02086 0.80039 0.0
C210 C 0.13645 0.94326 0.74722 0.0
C211 C 0.02832 0.15306 0.89281 0.0
C212 C 0.0359 0.90566 0.84096 0.0
C213 C 0.13817 0.10928 0.80865 0.0
C214 C 0.91959 0.17332 0.743 0.0
C215 C 0.03796 0.96926 0.67661 0.0
O216 O 0.99697 0.20826 0.77357 0.0
O217 O 0.04883 0.19159 0.73654 0.0
O218 O 0.94601 0.99166 0.76876 0.0
O219 O 0.94237 0.06638 0.82887 0.0
O220 O 0.10662 0.91702 0.75866 0.0
O221 O 0.13921 0.99685 0.75715 0.0
O222 O 0.99776 0.12262 0.87743 0.0
O223 O 0.05205 0.15795 0.85642 0.0
Co224 Co 0.83904 0.62551 0.80417 0.0
Co225 Co 0.80701 0.753 0.82647 0.0
Co226 Co 0.75545 0.64082 0.79686 0.0
H227 H 0.79751 0.65188 0.7928 0.0
O228 O 0.80435 0.68345 0.77408 0.0
H229 H 0.76327 0.74273 0.82312 0.0
O230 O 0.75682 0.71268 0.84485 0.0
Co231 Co 0.71981 0.76023 0.80076 0.0
O232 O 0.74587 0.83538 0.83793 0.0
O233 O 0.80584 0.82454 0.87351 0.0
O234 O 0.67838 0.6964 0.81187 0.0
O235 O 0.70378 0.61209 0.81012 0.0
O236 O 0.86403 0.55935 0.77699 0.0
O237 O 0.88629 0.64506 0.76403 0.0
O238 O 0.7332 0.79151 0.72186 0.0
O239 O 0.79466 0.80721 0.75007 0.0
C240 C 0.78135 0.535 0.74746 0.0
C241 C 0.87504 0.72588 0.8662 0.0
C242 C 0.66448 0.80699 0.75906 0.0
C243 C 0.79707 0.55516 0.88281 0.0
C244 C 0.77829 0.85522 0.86341 0.0
C245 C 0.67593 0.6408 0.81308 0.0
C246 C 0.88881 0.59174 0.75697 0.0
C247 C 0.76411 0.81816 0.71524 0.0
O248 O 0.81534 0.54963 0.7675 0.0
O249 O 0.7557 0.56879 0.74818 0.0
O250 O 0.86304 0.76843 0.83284 0.0
O251 O 0.85107 0.68381 0.87288 0.0
O252 O 0.68329 0.78183 0.72674 0.0
O253 O 0.67598 0.80365 0.81564 0.0
O254 O 0.82603 0.55981 0.85798 0.0
O255 O 0.77355 0.59378 0.87427 0.0
Co256 Co 0.9711 0.72655 0.50032 0.0
Co257 Co 1.00823 0.85735 0.5108 0.0
Co258 Co 0.05684 0.76243 0.55739 0.0
H259 H 1.01269 0.75749 0.53707 0.0
O260 O 1.00343 0.78378 0.55537 0.0
H261 H 0.05218 0.86171 0.51886 0.0
O262 O 0.06055 0.83212 0.50413 0.0
Co263 Co 0.09422 0.90125 0.53589 0.0
O264 O 0.06626 0.97338 0.5209 0.0
O265 O 1.01365 0.9326 0.46742 0.0
O266 O 0.13319 0.84972 0.5789 0.0
O267 O 0.11213 0.75461 0.57357 0.0
O268 O 0.94195 0.67525 0.4283 0.0
O269 O 0.92125 0.68247 0.50965 0.0
O270 O 0.07486 0.93549 0.60803 0.0
O271 O 1.01533 0.89957 0.59371 0.0
C272 C 1.01851 0.65788 0.60005 0.0
C273 C 0.92631 0.83161 0.49701 0.0
C274 C 0.14696 0.95647 0.49117 0.0
C275 C 0.02809 0.70042 0.43652 0.0
C276 C 0.03393 0.977 0.49055 0.0
C277 C 0.13812 0.79568 0.58842 0.0
C278 C 0.91596 0.65945 0.45757 0.0
C279 C 0.04258 0.93115 0.62416 0.0
O280 O 0.98915 0.66657 0.5628 0.0
O281 O 0.04832 0.69245 0.60727 0.0
O282 O 0.95501 0.86822 0.50631 0.0
O283 O 0.92776 0.77682 0.49397 0.0
O284 O 0.13732 0.96515 0.54207 0.0
O285 O 0.12693 0.91426 0.46438 0.0
O286 O 0.99884 0.72619 0.43026 0.0
O287 O 0.05234 0.70717 0.48489 0.0
Co288 Co 0.33119 0.4004 0.48305 0.0
Co289 Co 0.25136 0.39127 0.53245 0.0
Co290 Co 0.3055 0.49573 0.56426 0.0
H291 H 0.31275 0.43755 0.53388 0.0
O292 O 0.30525 0.4071 0.55349 0.0
H293 H 0.24395 0.4432 0.57297 0.0
O294 O 0.25141 0.47559 0.55713 0.0
Co295 Co 0.22255 0.472 0.62698 0.0
O296 O 0.17833 0.41081 0.59347 0.0
O297 O 0.19771 0.37904 0.51026 0.0
O298 O 0.24192 0.56034 0.61596 0.0
O299 O 0.29923 0.57342 0.58725 0.0
O300 O 0.38554 0.40532 0.46969 0.0
O301 O 0.36059 0.32784 0.50078 0.0
O302 O 0.25528 0.41648 0.68256 0.0
O303 O 0.25201 0.34863 0.61243 0.0
C304 C 0.37492 0.51533 0.50575 0.0
C305 C 0.27936 0.28699 0.49014 0.0
C306 C 0.16589 0.50229 0.6709 0.0
C307 C 0.29545 0.50855 0.4286 0.0
C308 C 0.17251 0.38312 0.54248 0.0
C309 C 0.27023 0.59269 0.60101 0.0
C310 C 0.39007 0.35454 0.48814 0.0
C311 C 0.26153 0.36524 0.66759 0.0
O312 O 0.36312 0.47335 0.4692 0.0
O313 O 0.36045 0.52203 0.55489 0.0
O314 O 0.25261 0.31304 0.50162 0.0
O315 O 0.31078 0.31369 0.48282 0.0
O316 O 0.18913 0.4688 0.69609 0.0
O317 O 0.17573 0.51846 0.62072 0.0
O318 O 0.31056 0.46179 0.42089 0.0
O319 O 0.29014 0.52402 0.48047 0.0
Co320 Co 0.96392 0.51599 0.6927 0.0
Co321 Co 0.99701 0.39438 0.69754 0.0
Co322 Co 0.04973 0.50345 0.69034 0.0
H323 H 1.0056 0.49688 0.6804 0.0
O324 O 0.99575 0.46982 0.65463 0.0
H325 H 0.03982 0.40248 0.70535 0.0
O326 O 0.05045 0.42834 0.73184 0.0
Co327 Co 0.07857 0.38253 0.68561 0.0
O328 O 0.05579 0.30201 0.70209 0.0
O329 O 1.00392 0.31868 0.73912 0.0
O330 O 0.11038 0.44387 0.64677 0.0
O331 O 0.10674 0.51859 0.70687 0.0
O332 O 0.94591 0.59321 0.71645 0.0
O333 O 0.91392 0.51303 0.71992 0.0
O334 O 0.05496 0.38771 0.59823 0.0
O335 O 1.00071 0.3523 0.61925 0.0
C336 C 1.01684 0.60457 0.63467 0.0
C337 C 0.91458 0.40101 0.66692 0.0
C338 C 0.13317 0.33695 0.73263 0.0
C339 C 1.0148 0.54099 0.79904 0.0
C340 C 0.02829 0.28531 0.72886 0.0
C341 C 0.1256 0.4894 0.67524 0.0
C342 C 0.91642 0.56674 0.72906 0.0
C343 C 1.02442 0.3572 0.58285 0.0
O344 O 0.98486 0.58459 0.64623 0.0
O345 O 0.04603 0.57814 0.64732 0.0
O346 O 0.94252 0.37098 0.67536 0.0
O347 O 0.91811 0.45667 0.67047 0.0
O348 O 0.12323 0.34052 0.67583 0.0
O349 O 0.11243 0.35978 0.76337 0.0
O350 O 0.98692 0.50609 0.77937 0.0
O351 O 0.04249 0.54709 0.76906 0.0
Co352 Co 0.33294 0.75002 0.67492 0.0
Co353 Co 0.2973 0.86942 0.67883 0.0
Co354 Co 0.24574 0.75725 0.64918 0.0
H355 H 0.28948 0.76751 0.65255 0.0
O356 O 0.29594 0.79757 0.63082 0.0
H357 H 0.25523 0.85835 0.68288 0.0
O358 O 0.2484 0.82678 0.70159 0.0
Co359 Co 0.2137 0.88471 0.67155 0.0
O360 O 0.23741 0.96064 0.70811 0.0
O361 O 0.29704 0.94144 0.72752 0.0
O362 O 0.20167 0.82647 0.60278 0.0
O363 O 0.18972 0.74182 0.64279 0.0
O364 O 0.36945 0.72839 0.74893 0.0
O365 O 0.37676 0.70659 0.66003 0.0
O366 O 0.22668 0.95036 0.61765 0.0
O367 O 0.27921 0.91647 0.60143 0.0
C368 C 0.27447 0.65503 0.61224 0.0
C369 C 0.37682 0.86944 0.66267 0.0
C370 C 0.16406 0.91832 0.71926 0.0
C371 C 0.28864 0.6921 0.76043 0.0
C372 C 0.27139 0.97526 0.72819 0.0
C373 C 0.17771 0.78435 0.6094 0.0
C374 C 0.38826 0.70323 0.71661 0.0
C375 C 0.25565 0.95504 0.59284 0.0
O376 O 0.30688 0.67487 0.63774 0.0
O377 O 0.24691 0.68572 0.60213 0.0
O378 O 0.34897 0.89815 0.6656 0.0
O379 O 0.37438 0.81384 0.66386 0.0
O380 O 0.18904 0.95076 0.69982 0.0
O381 O 0.1663 0.86506 0.71132 0.0
O382 O 0.31954 0.71881 0.75384 0.0
O383 O 0.25809 0.70303 0.72557 0.0
Co384 Co 0.95854 0.10901 0.43977 0.0
Co385 Co 0.99592 0.24782 0.41826 0.0
Co386 Co 0.04453 0.15291 0.46486 0.0
H387 H 1.00058 0.14854 0.4568 0.0
O388 O 0.99221 0.17814 0.47152 0.0
H389 H 0.04007 0.25276 0.43858 0.0
O390 O 0.04932 0.22647 0.42028 0.0
Co391 Co 0.08166 0.2837 0.47532 0.0
O392 O 0.06361 0.34368 0.41284 0.0
O393 O 1.00443 0.31781 0.36839 0.0
O394 O 0.12499 0.23343 0.48162 0.0
O395 O 0.09774 0.14202 0.46935 0.0
O396 O 0.91544 0.0451 0.43359 0.0
O397 O 0.92583 0.096 0.51128 0.0
O398 O 0.05395 0.28415 0.54539 0.0
O399 O 1.00041 0.30308 0.49078 0.0
C400 C 1.01883 0.03325 0.48512 0.0
C401 C 0.91464 0.21457 0.38725 0.0
C402 C 0.13683 0.35072 0.51811 0.0
C403 C 1.01018 0.0791 0.3515 0.0
C404 C 0.03425 0.35237 0.3756 0.0
C405 C 0.12645 0.17864 0.47861 0.0
C406 C 0.9058 0.05379 0.48449 0.0
C407 C 1.02467 0.30985 0.53914 0.0
O408 O 0.9865 0.03688 0.45476 0.0
O409 O 0.03911 0.07765 0.50824 0.0
O410 O 0.94063 0.25565 0.40208 0.0
O411 O 0.91958 0.16054 0.39677 0.0
O412 O 0.11078 0.33509 0.54731 0.0
O413 O 0.13157 0.32764 0.46606 0.0
O414 O 0.9779 0.07476 0.36763 0.0
O415 O 0.03743 0.11068 0.38195 0.0
Co416 Co 0.8302 0.53825 0.34867 0.0
Co417 Co 0.74726 0.51453 0.4114 0.0
Co418 Co 0.80141 0.61899 0.44321 0.0
H419 H 0.80881 0.56706 0.40269 0.0
O420 O 0.80135 0.53466 0.41853 0.0
H421 H 0.74001 0.57271 0.44178 0.0
O422 O 0.74752 0.60315 0.42217 0.0
Co423 Co 0.72157 0.60985 0.49261 0.0
O424 O 0.68964 0.53691 0.50647 0.0
O425 O 0.69231 0.48823 0.42077 0.0
O426 O 0.74199 0.69657 0.49284 0.0
O427 O 0.80016 0.69722 0.47404 0.0
O428 O 0.86362 0.54144 0.27956 0.0
O429 O 0.87703 0.4918 0.35493 0.0
O430 O 0.74219 0.54847 0.55476 0.0
O431 O 0.76262 0.48624 0.49519 0.0
C432 C 0.88026 0.62711 0.43319 0.0
C433 C 0.78253 0.41757 0.37466 0.0
C434 C 0.66269 0.65571 0.48748 0.0
C435 C 0.79123 0.64502 0.30808 0.0
C436 C 0.67784 0.49492 0.46991 0.0
C437 C 0.77341 0.72326 0.48552 0.0
C438 C 0.88686 0.50796 0.30474 0.0
C439 C 0.7573 0.50171 0.54706 0.0
O440 O 0.87443 0.59942 0.38219 0.0
O441 O 0.85506 0.63121 0.4654 0.0
O442 O 0.75352 0.43684 0.38841 0.0
O443 O 0.81084 0.44992 0.3597 0.0
O444 O 0.66722 0.60494 0.50598 0.0
O445 O 0.69217 0.6824 0.47482 0.0
O446 O 0.79747 0.59378 0.2931 0.0
O447 O 0.80076 0.66163 0.36323 0.0
Co448 Co 0.97418 0.62772 0.29004 0.0
Co449 Co 1.00302 0.5068 0.28531 0.0
Co450 Co 0.05575 0.61588 0.27813 0.0
H451 H 1.01293 0.60778 0.27031 0.0
O452 O 1.0023 0.58192 0.24382 0.0
H453 H 0.04715 0.51337 0.29526 0.0
O454 O 0.05701 0.54043 0.32103 0.0
Co455 Co 0.08884 0.49427 0.28295 0.0
O456 O 0.0679 0.42567 0.32941 0.0
O457 O 1.00673 0.43212 0.32833 0.0
O458 O 0.13464 0.55359 0.30519 0.0
O459 O 0.11023 0.63928 0.30031 0.0
O460 O 0.92951 0.66971 0.29981 0.0
O461 O 0.94033 0.65048 0.21227 0.0
O462 O 0.06583 0.50418 0.19628 0.0
O463 O 1.01026 0.46316 0.2066 0.0
C464 C 1.02447 0.72495 0.24682 0.0
C465 C 0.92715 0.52085 0.3004 0.0
C466 C 0.13632 0.44353 0.24655 0.0
C467 C 0.02832 0.65306 0.39281 0.0
C468 C 0.03591 0.40568 0.34098 0.0
C469 C 0.13817 0.60926 0.30874 0.0
C470 C 0.91958 0.6733 0.24301 0.0
C471 C 0.03795 0.46926 0.17662 0.0
O472 O 0.99696 0.70825 0.27357 0.0
O473 O 0.04883 0.69158 0.23656 0.0
O474 O 0.94601 0.49165 0.26877 0.0
O475 O 0.94237 0.56637 0.32888 0.0
O476 O 0.10685 0.41705 0.25923 0.0
O477 O 0.13881 0.49724 0.25565 0.0
O478 O 0.99775 0.62262 0.37744 0.0
O479 O 0.05204 0.65795 0.35643 0.0
Co480 Co 0.83905 0.12553 0.30408 0.0
Co481 Co 0.80701 0.25301 0.32648 0.0
Co482 Co 0.75546 0.14084 0.29682 0.0
H483 H 0.79752 0.1519 0.29277 0.0
O484 O 0.80435 0.18348 0.27407 0.0
H485 H 0.76327 0.24274 0.32311 0.0
O486 O 0.75682 0.21268 0.34484 0.0
Co487 Co 0.71982 0.26024 0.30074 0.0
O488 O 0.74587 0.33538 0.33792 0.0
O489 O 0.80584 0.32453 0.37354 0.0
O490 O 0.67837 0.19642 0.3118 0.0
O491 O 0.70378 0.1121 0.31006 0.0
O492 O 0.86369 0.0595 0.27575 0.0
O493 O 0.88646 0.1452 0.26434 0.0
O494 O 0.73322 0.29145 0.22182 0.0
O495 O 0.79467 0.30723 0.2501 0.0
C496 C 0.78135 0.035 0.24747 0.0
C497 C 0.87505 0.22588 0.36623 0.0
C498 C 0.66449 0.30702 0.25904 0.0
C499 C 0.79711 0.05522 0.38281 0.0
C500 C 0.77829 0.35523 0.36342 0.0
C501 C 0.67593 0.14082 0.31299 0.0
C502 C 0.88868 0.09194 0.25635 0.0
C503 C 0.76412 0.31816 0.21524 0.0
O504 O 0.81534 0.0496 0.26755 0.0
O505 O 0.75571 0.06882 0.24813 0.0
O506 O 0.86304 0.26844 0.33288 0.0
O507 O 0.85108 0.18378 0.37286 0.0
O508 O 0.6833 0.28185 0.22672 0.0
O509 O 0.67599 0.30367 0.31562 0.0
O510 O 0.82607 0.05989 0.35799 0.0
O511 O 0.77355 0.09379 0.37423 0.0
Co512 Co 0.47111 0.22654 0.50032 0.0
Co513 Co 0.50823 0.35734 0.51078 0.0
Co514 Co 0.55686 0.26244 0.55735 0.0
H515 H 0.5127 0.25749 0.53705 0.0
O516 O 0.50345 0.28377 0.55535 0.0
H517 H 0.55219 0.36171 0.51883 0.0
O518 O 0.56056 0.33212 0.50409 0.0
Co519 Co 0.59422 0.40125 0.53585 0.0
O520 O 0.56626 0.47338 0.52089 0.0
O521 O 0.51365 0.4326 0.4674 0.0
O522 O 0.63319 0.34974 0.57888 0.0
O523 O 0.61215 0.25463 0.57352 0.0
O524 O 0.44197 0.1752 0.42832 0.0
O525 O 0.42124 0.18251 0.50964 0.0
O526 O 0.57487 0.43547 0.60801 0.0
O527 O 0.51533 0.39956 0.59369 0.0
C528 C 0.51855 0.15792 0.60008 0.0
C529 C 0.42631 0.33158 0.49703 0.0
C530 C 0.64691 0.45656 0.49107 0.0
C531 C 0.52809 0.20036 0.4365 0.0
C532 C 0.53393 0.477 0.49054 0.0
C533 C 0.63813 0.29571 0.58839 0.0
C534 C 0.41596 0.15945 0.45758 0.0
C535 C 0.54258 0.43114 0.62414 0.0
O536 O 0.48918 0.16661 0.56285 0.0
O537 O 0.54837 0.19247 0.60726 0.0
O538 O 0.45502 0.36821 0.50629 0.0
O539 O 0.42778 0.27679 0.49401 0.0
O540 O 0.63718 0.46539 0.54186 0.0
O541 O 0.62702 0.41414 0.46444 0.0
O542 O 0.49882 0.22608 0.43024 0.0
O543 O 0.55236 0.20716 0.48485 0.0
Co544 Co 0.83118 0.90043 0.48297 0.0
Co545 Co 0.75136 0.89127 0.53243 0.0
Co546 Co 0.8055 0.99575 0.5642 0.0
H547 H 0.81275 0.93758 0.53382 0.0
O548 O 0.80525 0.90714 0.55343 0.0
H549 H 0.74395 0.94321 0.57294 0.0
O550 O 0.7514 0.97561 0.55709 0.0
Co551 Co 0.72254 0.97203 0.62695 0.0
O552 O 0.67833 0.91085 0.59345 0.0
O553 O 0.69772 0.87901 0.51027 0.0
O554 O 0.74191 0.06037 0.61592 0.0
O555 O 0.79922 0.07344 0.5872 0.0
O556 O 0.88555 0.90538 0.46971 0.0
O557 O 0.86057 0.82786 0.50067 0.0
O558 O 0.75528 0.91653 0.68254 0.0
O559 O 0.75205 0.84866 0.61243 0.0
C560 C 0.87489 0.01539 0.50566 0.0
C561 C 0.77937 0.78701 0.49009 0.0
C562 C 0.66589 1.0023 0.6709 0.0
C563 C 0.79539 0.00853 0.42852 0.0
C564 C 0.67251 0.88312 0.54247 0.0
C565 C 0.77022 0.09271 0.60098 0.0
C566 C 0.89007 0.85457 0.48813 0.0
C567 C 0.76156 0.86531 0.66757 0.0
O568 O 0.86308 0.97341 0.4691 0.0
O569 O 0.86044 0.02206 0.55482 0.0
O570 O 0.75262 0.81304 0.50161 0.0
O571 O 0.81078 0.81371 0.48274 0.0
O572 O 0.68913 0.96882 0.69607 0.0
O573 O 0.67572 0.01847 0.6207 0.0
O574 O 0.81051 0.96178 0.42081 0.0
O575 O 0.79013 0.02405 0.48041 0.0
Co576 Co 0.4639 0.01608 0.69264 0.0
Co577 Co 0.497 0.89437 0.6976 0.0
Co578 Co 0.54973 1.00345 0.69039 0.0
H579 H 0.50559 0.9969 0.68044 0.0
O580 O 0.49574 0.96982 0.6547 0.0
H581 H 0.53982 0.90248 0.7054 0.0
O582 O 0.55045 0.92834 0.73189 0.0
Co583 Co 0.57855 0.88253 0.68563 0.0
O584 O 0.55577 0.802 0.70208 0.0
O585 O 0.50393 0.81867 0.73916 0.0
O586 O 0.61038 0.94386 0.6468 0.0
O587 O 0.60674 0.01858 0.7069 0.0
O588 O 0.44638 0.09326 0.71764 0.0
O589 O 0.4131 0.01389 0.71676 0.0
O590 O 0.55493 0.88779 0.59826 0.0
O591 O 0.5007 0.85231 0.61929 0.0
C592 C 0.51688 0.10464 0.63473 0.0
C593 C 0.41458 0.90097 0.66713 0.0
C594 C 0.63314 0.83689 0.73264 0.0
C595 C 0.51478 0.04102 0.79906 0.0
C596 C 0.52828 0.7853 0.72886 0.0
C597 C 0.6256 0.9894 0.67526 0.0
C598 C 0.41615 0.06731 0.72765 0.0
C599 C 0.5244 0.85726 0.58287 0.0
O600 O 0.48489 0.08471 0.64632 0.0
O601 O 0.54604 0.07814 0.64734 0.0
O602 O 0.44253 0.87095 0.67542 0.0
O603 O 0.41812 0.95662 0.6708 0.0
O604 O 0.62321 0.84051 0.67584 0.0
O605 O 0.61239 0.85972 0.76339 0.0
O606 O 0.48686 0.00619 0.77934 0.0
O607 O 0.54248 0.04708 0.76911 0.0
Co608 Co 0.83295 0.25005 0.67488 0.0
Co609 Co 0.79732 0.36945 0.67872 0.0
Co610 Co 0.74576 0.25728 0.64916 0.0
H611 H 0.78949 0.26753 0.6525 0.0
O612 O 0.79594 0.29758 0.63075 0.0
H613 H 0.75526 0.35838 0.68286 0.0
O614 O 0.74844 0.32681 0.70158 0.0
Co615 Co 0.71373 0.38473 0.67159 0.0
O616 O 0.73746 0.46068 0.70808 0.0
O617 O 0.7971 0.4415 0.72739 0.0
O618 O 0.70168 0.32652 0.60278 0.0
O619 O 0.68973 0.24187 0.64279 0.0
O620 O 0.86946 0.22844 0.7489 0.0
O621 O 0.87675 0.20656 0.66 0.0
O622 O 0.72667 0.45037 0.61765 0.0
O623 O 0.77917 0.41645 0.60132 0.0
C624 C 0.77447 0.15505 0.61221 0.0
C625 C 0.87682 0.36947 0.66246 0.0
C626 C 0.66412 0.41831 0.71939 0.0
C627 C 0.78866 0.19218 0.76042 0.0
C628 C 0.77145 0.47531 0.72808 0.0
C629 C 0.67773 0.2844 0.60939 0.0
C630 C 0.88825 0.20323 0.71658 0.0
C631 C 0.75562 0.45503 0.59279 0.0
O632 O 0.80688 0.1749 0.63771 0.0
O633 O 0.74691 0.18574 0.6021 0.0
O634 O 0.84897 0.39819 0.66538 0.0
O635 O 0.87438 0.31387 0.66375 0.0
O636 O 0.68916 0.45075 0.70011 0.0
O637 O 0.66629 0.36507 0.71124 0.0
O638 O 0.81955 0.21894 0.75385 0.0
O639 O 0.75811 0.20304 0.72554 0.0
Co640 Co 0.45854 0.609 0.43981 0.0
Co641 Co 0.4959 0.74782 0.4183 0.0
Co642 Co 0.54453 0.65291 0.46488 0.0
H643 H 0.50057 0.64855 0.45683 0.0
O644 O 0.4922 0.67814 0.47157 0.0
H645 H 0.54005 0.75277 0.4386 0.0
O646 O 0.54931 0.72648 0.4203 0.0
Co647 Co 0.58165 0.78372 0.47531 0.0
O648 O 0.56358 0.84365 0.41279 0.0
O649 O 0.50439 0.81778 0.3684 0.0
O650 O 0.62498 0.73346 0.48158 0.0
O651 O 0.59774 0.64204 0.46936 0.0
O652 O 0.41559 0.54487 0.43381 0.0
O653 O 0.42574 0.59612 0.51123 0.0
O654 O 0.55397 0.78426 0.54541 0.0
O655 O 0.5004 0.80309 0.49082 0.0
C656 C 0.51883 0.53325 0.48513 0.0
C657 C 0.41463 0.71454 0.38728 0.0
C658 C 0.63682 0.85072 0.5181 0.0
C659 C 0.51017 0.57911 0.35152 0.0
C660 C 0.53421 0.85234 0.37557 0.0
C661 C 0.62644 0.67866 0.47859 0.0
C662 C 0.40585 0.5537 0.4846 0.0
C663 C 0.52467 0.80992 0.53916 0.0
O664 O 0.4865 0.53688 0.45478 0.0
O665 O 0.53911 0.57765 0.50826 0.0
O666 O 0.44061 0.75563 0.40213 0.0
O667 O 0.41957 0.66051 0.39679 0.0
O668 O 0.61076 0.83514 0.54729 0.0
O669 O 0.63158 0.8276 0.46608 0.0
O670 O 0.47789 0.57478 0.36765 0.0
O671 O 0.53743 0.61069 0.38197 0.0
Co672 Co 0.33021 0.03822 0.34871 0.0
Co673 Co 0.24727 0.0145 0.41146 0.0
Co674 Co 0.30141 0.11898 0.44323 0.0
H675 H 0.30881 0.06704 0.40272 0.0
O676 O 0.30136 0.03465 0.41857 0.0
H677 H 0.24002 0.07268 0.44184 0.0
O678 O 0.24751 0.10312 0.42222 0.0
Co679 Co 0.22158 0.10982 0.49268 0.0
O680 O 0.18968 0.03685 0.50656 0.0
O681 O 0.19233 0.9882 0.42084 0.0
O682 O 0.24199 0.19654 0.49292 0.0
O683 O 0.30014 0.19721 0.47405 0.0
O684 O 0.36362 0.04142 0.27957 0.0
O685 O 0.37704 0.99179 0.35494 0.0
O686 O 0.24224 0.04847 0.55485 0.0
O687 O 0.26264 0.98621 0.49525 0.0
C688 C 0.38026 0.12711 0.43319 0.0
C689 C 0.28254 0.91754 0.3747 0.0
C690 C 0.16269 0.15568 0.48749 0.0
C691 C 0.2912 0.14495 0.3081 0.0
C692 C 0.17787 0.99487 0.47 0.0
C693 C 0.2734 0.22325 0.48557 0.0
C694 C 0.38687 0.00795 0.30475 0.0
C695 C 0.25737 1.00173 0.54713 0.0
O696 O 0.37444 0.09939 0.38221 0.0
O697 O 0.35505 0.13124 0.46539 0.0
O698 O 0.25353 0.93681 0.38847 0.0
O699 O 0.31084 0.94989 0.35974 0.0
O700 O 0.16721 0.10489 0.50595 0.0
O701 O 0.19219 0.18238 0.47493 0.0
O702 O 0.29747 0.09373 0.29312 0.0
O703 O 0.30072 0.1616 0.36324 0.0
Co704 Co 0.47419 0.12772 0.29002 0.0
Co705 Co 0.50303 0.0068 0.28527 0.0
Co706 Co 0.55575 0.11589 0.27807 0.0
H707 H 0.51294 0.10778 0.27026 0.0
O708 O 0.50231 0.08192 0.24377 0.0
H709 H 0.54716 0.01335 0.29521 0.0
O710 O 0.55701 0.04044 0.32096 0.0
Co711 Co 0.58886 0.99418 0.28301 0.0
O712 O 0.56786 0.92555 0.32932 0.0
O713 O 0.50671 0.93211 0.32831 0.0
O714 O 0.63463 0.05364 0.30486 0.0
O715 O 0.61022 0.13931 0.30026 0.0
O716 O 0.42953 0.16972 0.2998 0.0
O717 O 0.44036 0.15053 0.21226 0.0
O718 O 0.56589 1.00407 0.19631 0.0
O719 O 0.51027 0.96318 0.20655 0.0
C720 C 0.52447 0.22496 0.24681 0.0
C721 C 0.42715 0.02086 0.30038 0.0
C722 C 0.6366 0.94295 0.24796 0.0
C723 C 0.52834 0.15301 0.39279 0.0
C724 C 0.53588 0.90562 0.34092 0.0
C725 C 0.63817 0.10929 0.30853 0.0
C726 C 0.41961 0.17335 0.243 0.0
C727 C 0.53798 0.96924 0.17659 0.0
O728 O 0.49698 0.20826 0.27358 0.0
O729 O 0.54883 0.19159 0.23651 0.0
O730 O 0.44601 0.99166 0.26875 0.0
O731 O 0.44237 0.06638 0.32885 0.0
O732 O 0.60638 0.917 0.25803 0.0
O733 O 0.63963 0.99639 0.25882 0.0
O734 O 0.49778 0.12254 0.37741 0.0
O735 O 0.55205 0.15794 0.35638 0.0
Co736 Co 0.33902 0.62552 0.30405 0.0
Co737 Co 0.307 0.75298 0.32651 0.0
Co738 Co 0.25543 0.6408 0.29693 0.0
H739 H 0.29749 0.65187 0.2928 0.0
O740 O 0.30431 0.68345 0.27408 0.0
H741 H 0.26326 0.74272 0.32316 0.0
O742 O 0.25681 0.71268 0.34491 0.0
Co743 Co 0.21981 0.76021 0.30078 0.0
O744 O 0.24587 0.83536 0.33795 0.0
O745 O 0.30584 0.82451 0.37357 0.0
O746 O 0.17837 0.69639 0.31191 0.0
O747 O 0.20378 0.61207 0.31028 0.0
O748 O 0.36358 0.55951 0.27547 0.0
O749 O 0.38647 0.64519 0.26442 0.0
O750 O 0.23321 0.79132 0.22181 0.0
O751 O 0.29465 0.80722 0.25013 0.0
C752 C 0.28129 0.53494 0.24757 0.0
C753 C 0.37503 0.72584 0.36624 0.0
C754 C 0.1645 0.80702 0.25907 0.0
C755 C 0.29714 0.55522 0.38287 0.0
C756 C 0.27829 0.8552 0.36346 0.0
C757 C 0.17594 0.64078 0.31321 0.0
C758 C 0.38863 0.59195 0.25623 0.0
C759 C 0.26409 0.81808 0.21524 0.0
O760 O 0.31529 0.54957 0.26757 0.0
O761 O 0.25565 0.56875 0.24827 0.0
O762 O 0.36303 0.76839 0.33289 0.0
O763 O 0.35107 0.68373 0.37286 0.0
O764 O 0.18329 0.78181 0.22675 0.0
O765 O 0.176 0.8037 0.31564 0.0
O766 O 0.32608 0.55989 0.358 0.0
O767 O 0.27358 0.5938 0.37434 0.0
Co768 Co 0.4711 0.72654 0.00032 0.0
Co769 Co 0.50823 0.85734 0.01077 0.0
Co770 Co 0.55685 0.76243 0.05736 0.0
H771 H 0.51269 0.75749 0.03705 0.0
O772 O 0.50344 0.78378 0.05535 0.0
H773 H 0.55218 0.8617 0.01882 0.0
O774 O 0.56055 0.83211 0.00409 0.0
Co775 Co 0.59421 0.90125 0.03582 0.0
O776 O 0.56626 0.97338 0.02088 0.0
O777 O 0.51365 0.9326 0.9674 0.0
O778 O 0.63318 0.84973 0.0788 0.0
O779 O 0.61214 0.75461 0.07353 0.0
O780 O 0.44196 0.6752 0.92832 0.0
O781 O 0.42123 0.68251 0.00963 0.0
O782 O 0.57487 0.93547 0.10799 0.0
O783 O 0.51533 0.89957 0.09368 0.0
C784 C 0.51853 0.65791 0.10007 0.0
C785 C 0.42631 0.83159 -0.00298 0.0
C786 C 0.6469 0.95656 -0.00896 0.0
C787 C 0.52808 0.70035 0.9365 0.0
C788 C 0.53393 0.977 -0.00946 0.0
C789 C 0.63812 0.7957 0.08834 0.0
C790 C 0.41596 0.65945 0.95758 0.0
C791 C 0.54258 0.93114 0.12412 0.0
O792 O 0.48916 0.66659 0.06284 0.0
O793 O 0.54835 0.69246 0.10726 0.0
O794 O 0.45501 0.86821 0.00629 0.0
O795 O 0.42777 0.7768 -0.00599 0.0
O796 O 0.63716 0.9654 0.04183 0.0
O797 O 0.62701 0.91413 0.96442 0.0
O798 O 0.49881 0.72607 0.93025 0.0
O799 O 0.55235 0.70715 0.98486 0.0
Co800 Co 0.83119 0.40043 0.98299 0.0
Co801 Co 0.75136 0.39127 0.03244 0.0
Co802 Co 0.8055 0.49575 0.06421 0.0
H803 H 0.81275 0.43757 0.03383 0.0
O804 O 0.80525 0.40713 0.05345 0.0
H805 H 0.74395 0.44321 0.07295 0.0
O806 O 0.75141 0.4756 0.0571 0.0
Co807 Co 0.72255 0.47203 0.12696 0.0
O808 O 0.67833 0.41084 0.09345 0.0
O809 O 0.69772 0.37901 0.01027 0.0
O810 O 0.74191 0.56036 0.11592 0.0
O811 O 0.79923 0.57344 0.0872 0.0
O812 O 0.88556 0.40537 0.96973 0.0
O813 O 0.86057 0.32785 0.00068 0.0
O814 O 0.75529 0.41653 0.18255 0.0
O815 O 0.75205 0.34866 0.11243 0.0
C816 C 0.87489 0.51539 0.00565 0.0
C817 C 0.77937 0.287 -0.00989 0.0
C818 C 0.66589 0.50231 0.1709 0.0
C819 C 0.79537 0.50849 0.92853 0.0
C820 C 0.67251 0.38312 0.04248 0.0
C821 C 0.77023 0.59271 0.10097 0.0
C822 C 0.89007 0.35457 -0.01186 0.0
C823 C 0.76157 0.36531 0.16757 0.0
O824 O 0.86307 0.47341 0.96909 0.0
O825 O 0.86044 0.52206 0.05482 0.0
O826 O 0.75263 0.31304 0.00162 0.0
O827 O 0.81078 0.3137 0.98276 0.0
O828 O 0.68913 0.46882 0.19607 0.0
O829 O 0.67572 0.51847 0.12071 0.0
O830 O 0.81048 0.46174 0.92081 0.0
O831 O 0.79013 0.52403 0.98042 0.0
Co832 Co 0.4639 0.51604 0.19267 0.0
Co833 Co 0.497 0.39438 0.19758 0.0
Co834 Co 0.54973 0.50346 0.19037 0.0
H835 H 0.5056 0.4969 0.18043 0.0
O836 O 0.49574 0.46982 0.15468 0.0
H837 H 0.53982 0.40248 0.20538 0.0
O838 O 0.55045 0.42834 0.23187 0.0
Co839 Co 0.57856 0.38254 0.18562 0.0
O840 O 0.55578 0.30201 0.20207 0.0
O841 O 0.50392 0.31868 0.23915 0.0
O842 O 0.61039 0.44387 0.14679 0.0
O843 O 0.60674 0.51859 0.20689 0.0
O844 O 0.44614 0.59325 0.21706 0.0
O845 O 0.41349 0.51345 0.2183 0.0
O846 O 0.55493 0.3878 0.09825 0.0
O847 O 0.5007 0.35232 0.11928 0.0
C848 C 0.51686 0.60461 0.13471 0.0
C849 C 0.41458 0.40099 0.16703 0.0
C850 C 0.63315 0.33691 0.23263 0.0
C851 C 0.51479 0.54102 0.29905 0.0
C852 C 0.52828 0.28531 0.22886 0.0
C853 C 0.6256 0.4894 0.17525 0.0
C854 C 0.41627 0.56702 0.22835 0.0
C855 C 0.52441 0.35727 0.08286 0.0
O856 O 0.48487 0.58466 0.1463 0.0
O857 O 0.54603 0.57814 0.14734 0.0
O858 O 0.44253 0.37096 0.1754 0.0
O859 O 0.41812 0.45665 0.17065 0.0
O860 O 0.62322 0.34053 0.17582 0.0
O861 O 0.6124 0.35974 0.26337 0.0
O862 O 0.48689 0.50615 0.27936 0.0
O863 O 0.54249 0.54709 0.26909 0.0
Co864 Co 0.83294 0.75004 0.1749 0.0
Co865 Co 0.79731 0.86944 0.17876 0.0
Co866 Co 0.74575 0.75727 0.14915 0.0
H867 H 0.78949 0.76753 0.15251 0.0
O868 O 0.79594 0.79758 0.13077 0.0
H869 H 0.75525 0.85836 0.18289 0.0
O870 O 0.74844 0.82678 0.20159 0.0
Co871 Co 0.71371 0.88471 0.17168 0.0
O872 O 0.73746 0.96071 0.20804 0.0
O873 O 0.79709 0.94148 0.22744 0.0
O874 O 0.70166 0.82655 0.1028 0.0
O875 O 0.68972 0.74187 0.14275 0.0
O876 O 0.86944 0.72841 0.24892 0.0
O877 O 0.87673 0.70654 0.16002 0.0
O878 O 0.72663 0.95029 0.11763 0.0
O879 O 0.77917 0.91645 0.10136 0.0
C880 C 0.77447 0.65505 0.1122 0.0
C881 C 0.87682 0.86946 0.16254 0.0
C882 C 0.66425 0.9181 0.22002 0.0
C883 C 0.78865 0.69219 0.26042 0.0
C884 C 0.77145 0.97532 0.22807 0.0
C885 C 0.67772 0.7844 0.10936 0.0
C886 C 0.88824 0.7032 0.2166 0.0
C887 C 0.75558 0.95498 0.09278 0.0
O888 O 0.80688 0.67489 0.13771 0.0
O889 O 0.74691 0.68575 0.10207 0.0
O890 O 0.84897 0.89818 0.16544 0.0
O891 O 0.87438 0.81385 0.16382 0.0
O892 O 0.6895 0.95057 0.20138 0.0
O893 O 0.66612 0.86494 0.21092 0.0
O894 O 0.81953 0.71899 0.25388 0.0
O895 O 0.7581 0.70302 0.22551 0.0
Co896 Co 0.45855 0.10901 0.93984 0.0
Co897 Co 0.49591 0.24783 0.9183 0.0
Co898 Co 0.54453 0.15291 0.96489 0.0
H899 H 0.50058 0.14855 0.95684 0.0
O900 O 0.49221 0.17815 0.97157 0.0
H901 H 0.54007 0.25277 0.9386 0.0
O902 O 0.54932 0.22648 0.92031 0.0
Co903 Co 0.58166 0.28372 0.97531 0.0
O904 O 0.5636 0.34366 0.9128 0.0
O905 O 0.50441 0.31779 0.8684 0.0
O906 O 0.62499 0.23345 0.98158 0.0
O907 O 0.59774 0.14203 0.96937 0.0
O908 O 0.4156 0.04486 0.93384 0.0
O909 O 0.42575 0.09613 0.01125 0.0
O910 O 0.55398 0.28427 0.04541 0.0
O911 O 0.50041 0.3031 -0.00919 0.0
C912 C 0.51883 0.03325 0.98513 0.0
C913 C 0.41463 0.21456 0.88733 0.0
C914 C 0.63683 0.35072 0.0181 0.0
C915 C 0.51017 0.07911 0.85153 0.0
C916 C 0.53423 0.35235 0.87557 0.0
C917 C 0.62645 0.17866 0.97859 0.0
C918 C 0.40586 0.0537 0.98462 0.0
C919 C 0.52468 0.30993 0.03915 0.0
O920 O 0.4865 0.03688 0.95479 0.0
O921 O 0.53911 0.07765 0.00826 0.0
O922 O 0.44062 0.25564 0.90213 0.0
O923 O 0.41958 0.16053 0.89687 0.0
O924 O 0.61076 0.33514 0.04729 0.0
O925 O 0.63159 0.3276 0.96608 0.0
O926 O 0.47789 0.07478 0.86767 0.0
O927 O 0.53743 0.11069 0.88198 0.0
Co928 Co 0.33021 0.53822 0.8487 0.0
Co929 Co 0.24726 0.51451 0.91145 0.0
Co930 Co 0.3014 0.61898 0.94322 0.0
H931 H 0.30881 0.56704 0.90271 0.0
O932 O 0.30136 0.53465 0.91856 0.0
H933 H 0.24001 0.57269 0.94183 0.0
O934 O 0.24751 0.60313 0.92221 0.0
Co935 Co 0.22157 0.60983 -0.00733 0.0
O936 O 0.18969 0.53685 0.00657 0.0
O937 O 0.19232 0.4882 0.92084 0.0
O938 O 0.24198 0.69655 -0.0071 0.0
O939 O 0.30014 0.69721 0.97405 0.0
O940 O 0.36362 0.54142 0.77957 0.0
O941 O 0.37703 0.49179 0.85494 0.0
O942 O 0.24228 0.54852 0.05484 0.0
O943 O 0.26264 0.48623 -0.00476 0.0
C944 C 0.38026 0.62711 0.93319 0.0
C945 C 0.28253 0.41754 0.87471 0.0
C946 C 0.16268 0.65568 0.98748 0.0
C947 C 0.29119 0.64495 0.8081 0.0
C948 C 0.17787 0.49487 0.97001 0.0
C949 C 0.2734 0.72325 0.98555 0.0
C950 C 0.38686 0.50794 0.80475 0.0
C951 C 0.25739 0.50177 0.04713 0.0
O952 O 0.37443 0.59939 0.88221 0.0
O953 O 0.35505 0.63124 0.96539 0.0
O954 O 0.25353 0.43682 0.88846 0.0
O955 O 0.31084 0.44989 0.85974 0.0
O956 O 0.16721 0.60489 0.00593 0.0
O957 O 0.19218 0.68239 0.97492 0.0
O958 O 0.29747 0.59373 0.79311 0.0
O959 O 0.30072 0.6616 0.86323 0.0
Co960 Co 0.47419 0.62771 0.79003 0.0
Co961 Co 0.50303 0.5068 0.78528 0.0
Co962 Co 0.55575 0.61588 0.77809 0.0
H963 H 0.51293 0.60777 0.77028 0.0
O964 O 0.5023 0.58192 0.74379 0.0
H965 H 0.54716 0.51336 0.79522 0.0
O966 O 0.55701 0.54043 0.82098 0.0
Co967 Co 0.58885 0.49422 0.78298 0.0
O968 O 0.56788 0.4256 0.82935 0.0
O969 O 0.50672 0.43211 0.82831 0.0
O970 O 0.63464 0.55362 0.805 0.0
O971 O 0.61023 0.6393 0.80028 0.0
O972 O 0.42952 0.66971 0.79982 0.0
O973 O 0.44035 0.65052 0.71227 0.0
O974 O 0.56586 0.50411 0.69629 0.0
O975 O 0.51027 0.46317 0.70656 0.0
C976 C 0.52447 0.72495 0.74681 0.0
C977 C 0.42715 0.52085 0.80039 0.0
C978 C 0.63647 0.44324 0.74727 0.0
C979 C 0.52833 0.653 0.8928 0.0
C980 C 0.53589 0.40564 0.84093 0.0
C981 C 0.63817 0.60927 0.80863 0.0
C982 C 0.4196 0.67333 0.74302 0.0
C983 C 0.53797 0.46924 0.6766 0.0
O984 O 0.49697 0.70825 0.77359 0.0
O985 O 0.54883 0.69158 0.73653 0.0
O986 O 0.44601 0.49166 0.76876 0.0
O987 O 0.44237 0.56637 0.82886 0.0
O988 O 0.60662 0.41701 0.75861 0.0
O989 O 0.63925 0.49682 0.75729 0.0
O990 O 0.49778 0.62253 0.87742 0.0
O991 O 0.55205 0.65793 0.8564 0.0
Co992 Co 0.33904 0.12554 0.80396 0.0
Co993 Co 0.307 0.25299 0.82652 0.0
Co994 Co 0.25544 0.14082 0.7969 0.0
H995 H 0.2975 0.15189 0.79277 0.0
O996 O 0.30432 0.18348 0.77407 0.0
H997 H 0.26327 0.24273 0.82315 0.0
O998 O 0.25681 0.21268 0.84489 0.0
Co999 Co 0.21982 0.26022 0.80075 0.0
O1000 O 0.24588 0.33537 0.83794 0.0
O1001 O 0.30584 0.3245 0.8736 0.0
O1002 O 0.17837 0.1964 0.81184 0.0
O1003 O 0.20378 0.11208 0.81022 0.0
O1004 O 0.36323 0.05969 0.77419 0.0
O1005 O 0.38664 0.14531 0.76474 0.0
O1006 O 0.23323 0.29126 0.72177 0.0
O1007 O 0.29466 0.30725 0.75016 0.0
C1008 C 0.2813 0.03493 0.74758 0.0
C1009 C 0.37504 0.22583 0.86626 0.0
C1010 C 0.16451 0.30705 0.75905 0.0
C1011 C 0.29717 0.05528 0.88287 0.0
C1012 C 0.27829 0.3552 0.86347 0.0
C1013 C 0.17594 0.1408 0.81313 0.0
C1014 C 0.38849 0.09216 0.75559 0.0
C1015 C 0.26411 0.31807 0.71524 0.0
O1016 O 0.31529 0.04954 0.76762 0.0
O1017 O 0.25566 0.06878 0.74822 0.0
O1018 O 0.36303 0.2684 0.83292 0.0
O1019 O 0.35109 0.18369 0.87283 0.0
O1020 O 0.18331 0.28184 0.72673 0.0
O1021 O 0.17602 0.30372 0.81563 0.0
O1022 O 0.32612 0.05997 0.85802 0.0
O1023 O 0.27358 0.09381 0.87429 0.0
loop_
_geom_bond_atom_site_label_1
_geom_bond_atom_site_label_2
_geom_bond_distance
_geom_bond_site_symmetry_2
_ccdc_geom_bond_type
Co0 H3 2.400 . S
Co0 O4 2.009 . S
Co0 O12 2.115 1_554 S
Co0 O13 2.315 . S
Co0 O24 2.053 . S
Co0 O27 2.094 1_554 S
Co0 O30 2.122 1_554 S
Co1 O4 2.126 . S
Co1 H5 2.388 1_654 S
Co1 O6 2.053 1_655 S
Co1 O9 2.047 1_554 S
Co1 O15 2.113 . S
Co1 O26 2.063 . S
Co2 H3 2.388 1_455 S
Co2 O4 2.053 1_455 S
Co2 O6 2.126 . S
Co2 O11 2.063 . S
Co2 O25 2.047 . S
Co2 O31 2.113 1_554 S
H3 Co0 2.400 . S
H3 Co2 2.388 1_655 S
H3 O4 0.760 . S
O4 Co0 2.009 . S
O4 Co1 2.126 . S
O4 Co2 2.053 1_655 S
O4 H3 0.760 . S
H5 Co1 2.388 1_456 S
H5 O6 0.760 1_556 S
H5 Co7 2.400 1_556 S
O6 Co1 2.053 1_455 S
O6 Co2 2.126 . S
O6 H5 0.760 1_554 S
O6 Co7 2.009 . S
Co7 H5 2.400 1_554 S
Co7 O6 2.009 . S
Co7 O8 2.053 . S
Co7 O10 2.094 . S
Co7 O14 2.122 . S
Co7 O28 2.115 . S
Co7 O29 2.315 1_554 S
O8 Co7 2.053 . S
O8 C20 1.259 1_554 S
O9 Co1 2.047 1_556 S
O9 C20 1.257 1_655 S
O10 Co7 2.094 . S
O10 C21 1.253 . S
O11 Co2 2.063 . S
O11 C21 1.268 . S
O12 Co0 2.115 1_556 S
O12 C22 1.281 1_556 S
O13 Co0 2.315 . S
O13 C22 1.252 . S
O14 Co7 2.122 . S
O14 C23 1.272 . S
O15 Co1 2.113 . S
O15 C23 1.245 1_655 S
C16 O24 1.259 . S
C16 O25 1.257 1_655 S
C17 O26 1.268 1_556 S
C17 O27 1.253 . S
C18 O28 1.281 . S
C18 O29 1.252 1_554 S
C19 O30 1.272 . S
C19 O31 1.245 1_655 S
C20 O8 1.259 1_556 S
C20 O9 1.257 1_455 S
C21 O10 1.253 . S
C21 O11 1.268 . S
C22 O12 1.281 1_554 S
C22 O13 1.252 . S
C23 O14 1.272 . S
C23 O15 1.245 1_455 S
O24 Co0 2.053 . S
O24 C16 1.259 . S
O25 Co2 2.047 . S
O25 C16 1.257 1_455 S
O26 Co1 2.063 . S
O26 C17 1.268 1_554 S
O27 Co0 2.094 1_556 S
O27 C17 1.253 . S
O28 Co7 2.115 . S
O28 C18 1.281 . S
O29 Co7 2.315 1_556 S
O29 C18 1.252 1_556 S
O30 Co0 2.122 1_556 S
O30 C19 1.272 . S
O31 Co2 2.113 1_556 S
O31 C19 1.245 1_455 S
Co32 H35 2.400 1_556 S
Co32 O36 2.009 1_556 S
Co32 O44 2.115 . S
Co32 O45 2.315 1_556 S
Co32 O56 2.053 1_556 S
Co32 O59 2.094 . S
Co32 O62 2.122 . S
Co33 O36 2.126 . S
Co33 H37 2.388 . S
Co33 O38 2.053 . S
Co33 O41 2.047 . S
Co33 O47 2.113 . S
Co33 O58 2.063 . S
Co34 H35 2.388 . S
Co34 O36 2.053 . S
Co34 O38 2.126 . S
Co34 O43 2.063 1_565 S
Co34 O57 2.047 1_565 S
Co34 O63 2.113 1_564 S
H35 Co32 2.400 1_554 S
H35 Co34 2.388 . S
H35 O36 0.760 . S
O36 Co32 2.009 1_554 S
O36 Co33 2.126 . S
O36 Co34 2.053 . S
O36 H35 0.760 . S
H37 Co33 2.388 . S
H37 O38 0.760 . S
H37 Co39 2.400 . S
O38 Co33 2.053 . S
O38 Co34 2.126 . S
O38 H37 0.760 . S
O38 Co39 2.009 . S
Co39 H37 2.400 . S
Co39 O38 2.009 . S
Co39 O40 2.053 . S
Co39 O42 2.094 1_565 S
Co39 O46 2.122 . S
Co39 O60 2.115 . S
Co39 O61 2.319 . S
O40 Co39 2.053 . S
O40 C52 1.259 . S
O41 Co33 2.047 . S
O41 C52 1.257 . S
O42 Co39 2.094 1_545 S
O42 C53 1.253 . S
O43 Co34 2.063 1_545 S
O43 C53 1.268 . S
O44 Co32 2.115 . S
O44 C54 1.281 . S
O45 Co32 2.315 1_554 S
O45 C54 1.252 1_554 S
O46 Co39 2.122 . S
O46 C55 1.272 . S
O47 Co33 2.113 . S
O47 C55 1.245 . S
C48 O56 1.259 1_545 S
C48 O57 1.257 . S
C49 O58 1.268 1_556 S
C49 O59 1.253 . S
C50 O60 1.281 . S
C50 O61 1.252 . S
C51 O62 1.272 1_545 S
C51 O63 1.245 . S
C52 O40 1.259 . S
C52 O41 1.257 . S
C53 O42 1.253 . S
C53 O43 1.268 . S
C54 O44 1.281 . S
C54 O45 1.252 1_556 S
C55 O46 1.272 . S
C55 O47 1.245 . S
O56 Co32 2.053 1_554 S
O56 C48 1.259 1_565 S
O57 Co34 2.047 1_545 S
O57 C48 1.257 . S
O58 Co33 2.063 . S
O58 C49 1.268 1_554 S
O59 Co32 2.094 . S
O59 C49 1.253 . S
O60 Co39 2.115 . S
O60 C50 1.281 . S
O61 Co39 2.319 . S
O61 C50 1.252 . S
O62 Co32 2.122 . S
O62 C51 1.272 1_565 S
O63 Co34 2.113 1_546 S
O63 C51 1.245 . S
Co64 H67 2.400 1_545 S
Co64 O68 2.009 1_545 S
Co64 O76 2.115 . S
Co64 O77 2.315 . S
Co64 O88 2.053 . S
Co64 O91 2.094 1_545 S
Co64 O94 2.122 . S
Co65 O68 2.126 . S
Co65 H69 2.388 1_655 S
Co65 O70 2.053 1_655 S
Co65 O73 2.047 . S
Co65 O79 2.113 . S
Co65 O90 2.063 . S
Co66 H67 2.388 1_455 S
Co66 O68 2.053 1_455 S
Co66 O70 2.126 . S
Co66 O75 2.063 1_565 S
Co66 O89 2.047 1_565 S
Co66 O95 2.113 1_565 S
H67 Co64 2.400 1_565 S
H67 Co66 2.388 1_655 S
H67 O68 0.760 . S
O68 Co64 2.009 1_565 S
O68 Co65 2.126 . S
O68 Co66 2.053 1_655 S
O68 H67 0.760 . S
H69 Co65 2.388 1_455 S
H69 O70 0.760 . S
H69 Co71 2.400 . S
O70 Co65 2.053 1_455 S
O70 Co66 2.126 . S
O70 H69 0.760 . S
O70 Co71 2.009 . S
Co71 H69 2.400 . S
Co71 O70 2.009 . S
Co71 O72 2.053 . S
Co71 O74 2.094 . S
Co71 O78 2.122 . S
Co71 O92 2.115 . S
Co71 O93 2.315 . S
O72 Co71 2.053 . S
O72 C84 1.259 . S
O73 Co65 2.047 . S
O73 C84 1.257 1_655 S
O74 Co71 2.094 . S
O74 C85 1.253 . S
O75 Co66 2.063 1_545 S
O75 C85 1.268 1_545 S
O76 Co64 2.115 . S
O76 C86 1.281 . S
O77 Co64 2.315 . S
O77 C86 1.252 . S
O78 Co71 2.122 . S
O78 C87 1.272 1_455 S
O79 Co65 2.113 . S
O79 C87 1.245 . S
C80 O88 1.259 . S
C80 O89 1.257 1_655 S
C81 O90 1.268 . S
C81 O91 1.253 . S
C82 O92 1.281 . S
C82 O93 1.252 . S
C83 O94 1.272 1_455 S
C83 O95 1.245 . S
C84 O72 1.259 . S
C84 O73 1.257 1_455 S
C85 O74 1.253 . S
C85 O75 1.268 1_565 S
C86 O76 1.281 . S
C86 O77 1.252 . S
C87 O78 1.272 1_655 S
C87 O79 1.245 . S
O88 Co64 2.053 . S
O88 C80 1.259 . S
O89 Co66 2.047 1_545 S
O89 C80 1.257 1_455 S
O90 Co65 2.063 . S
O90 C81 1.268 . S
O91 Co64 2.094 1_565 S
O91 C81 1.253 . S
O92 Co71 2.115 . S
O92 C82 1.281 . S
O93 Co71 2.315 . S
O93 C82 1.252 . S
O94 Co64 2.122 . S
O94 C83 1.272 1_655 S
O95 Co66 2.113 1_545 S
O95 C83 1.245 . S
Co96 H99 2.400 . S
Co96 O100 2.009 . S
Co96 O108 2.115 . S
Co96 O109 2.315 . S
Co96 O120 2.053 . S
Co96 O123 2.094 . S
Co96 O126 2.122 . S
Co97 O100 2.126 . S
Co97 H101 2.388 . S
Co97 O102 2.053 . S
Co97 O105 2.047 . S
Co97 O111 2.113 . S
Co97 O122 2.063 . S
Co98 H99 2.388 . S
Co98 O100 2.053 . S
Co98 O102 2.126 . S
Co98 O107 2.063 . S
Co98 O121 2.047 . S
Co98 O127 2.113 . S
H99 Co96 2.400 . S
H99 Co98 2.388 . S
H99 O100 0.760 . S
O100 Co96 2.009 . S
O100 Co97 2.126 . S
O100 Co98 2.053 . S
O100 H99 0.760 . S
H101 Co97 2.388 . S
H101 O102 0.760 . S
H101 Co103 2.400 . S
O102 Co97 2.053 . S
O102 Co98 2.126 . S
O102 H101 0.760 . S
O102 Co103 2.009 . S
Co103 H101 2.400 . S
Co103 O102 2.009 . S
Co103 O104 2.053 . S
Co103 O106 2.094 . S
Co103 O110 2.122 . S
Co103 O124 2.115 . S
Co103 O125 2.315 . S
O104 Co103 2.053 . S
O104 C116 1.259 . S
O105 Co97 2.047 . S
O105 C116 1.257 . S
O106 Co103 2.094 . S
O106 C117 1.253 . S
O107 Co98 2.063 . S
O107 C117 1.268 . S
O108 Co96 2.115 . S
O108 C118 1.281 . S
O109 Co96 2.315 . S
O109 C118 1.252 . S
O110 Co103 2.122 . S
O110 C119 1.272 . S
O111 Co97 2.113 . S
O111 C119 1.245 . S
C112 O120 1.259 . S
C112 O121 1.257 . S
C113 O122 1.268 . S
C113 O123 1.253 . S
C114 O124 1.281 . S
C114 O125 1.252 . S
C115 O126 1.272 . S
C115 O127 1.245 . S
C116 O104 1.259 . S
C116 O105 1.257 . S
C117 O106 1.253 . S
C117 O107 1.268 . S
C118 O108 1.281 . S
C118 O109 1.252 . S
C119 O110 1.272 . S
C119 O111 1.245 . S
O120 Co96 2.053 . S
O120 C112 1.259 . S
O121 Co98 2.047 . S
O121 C112 1.257 . S
O122 Co97 2.063 . S
O122 C113 1.268 . S
O123 Co96 2.094 . S
O123 C113 1.253 . S
O124 Co103 2.115 . S
O124 C114 1.281 . S
O125 Co103 2.315 . S
O125 C114 1.252 . S
O126 Co96 2.122 . S
O126 C115 1.272 . S
O127 Co98 2.113 . S
O127 C115 1.245 . S
Co128 H131 2.400 1_556 S
Co128 O132 2.009 . S
Co128 O140 2.115 . S
Co128 O141 2.315 1_556 S
Co128 O152 2.053 . S
Co128 O155 2.094 . S
Co128 O158 2.122 . S
Co129 O132 2.126 . S
Co129 H133 2.388 1_655 S
Co129 O134 2.053 1_655 S
Co129 O137 2.047 . S
Co129 O143 2.113 1_556 S
Co129 O154 2.063 . S
Co130 H131 2.388 1_456 S
Co130 O132 2.053 1_455 S
Co130 O134 2.126 . S
Co130 O139 2.063 . S
Co130 O153 2.047 1_556 S
Co130 O159 2.113 . S
H131 Co128 2.400 1_554 S
H131 Co130 2.388 1_654 S
H131 O132 0.760 1_554 S
O132 Co128 2.009 . S
O132 Co129 2.126 . S
O132 Co130 2.053 1_655 S
O132 H131 0.760 1_556 S
H133 Co129 2.388 1_455 S
H133 O134 0.760 . S
H133 Co135 2.400 . S
O134 Co129 2.053 1_455 S
O134 Co130 2.126 . S
O134 H133 0.760 . S
O134 Co135 2.009 . S
Co135 H133 2.400 . S
Co135 O134 2.009 . S
Co135 O136 2.053 . S
Co135 O138 2.094 1_556 S
Co135 O142 2.122 1_556 S
Co135 O156 2.115 1_556 S
Co135 O157 2.315 . S
O136 Co135 2.053 . S
O136 C148 1.259 . S
O137 Co129 2.047 . S
O137 C148 1.257 1_655 S
O138 Co135 2.094 1_554 S
O138 C149 1.253 . S
O139 Co130 2.063 . S
O139 C149 1.268 1_556 S
O140 Co128 2.115 . S
O140 C150 1.281 . S
O141 Co128 2.315 1_554 S
O141 C150 1.252 1_554 S
O142 Co135 2.122 1_554 S
O142 C151 1.272 . S
O143 Co129 2.113 1_554 S
O143 C151 1.245 1_655 S
C144 O152 1.259 1_554 S
C144 O153 1.257 1_655 S
C145 O154 1.268 . S
C145 O155 1.253 . S
C146 O156 1.281 1_556 S
C146 O157 1.252 . S
C147 O158 1.272 . S
C147 O159 1.245 1_655 S
C148 O136 1.259 . S
C148 O137 1.257 1_455 S
C149 O138 1.253 . S
C149 O139 1.268 1_554 S
C150 O140 1.281 . S
C150 O141 1.252 1_556 S
C151 O142 1.272 . S
C151 O143 1.245 1_455 S
O152 Co128 2.053 . S
O152 C144 1.259 1_556 S
O153 Co130 2.047 1_554 S
O153 C144 1.257 1_455 S
O154 Co129 2.063 . S
O154 C145 1.268 . S
O155 Co128 2.094 . S
O155 C145 1.253 . S
O156 Co135 2.115 1_554 S
O156 C146 1.281 1_554 S
O157 Co135 2.315 . S
O157 C146 1.252 . S
O158 Co128 2.122 . S
O158 C147 1.272 . S
O159 Co130 2.113 . S
O159 C147 1.245 1_455 S
Co160 H163 2.400 . S
Co160 O164 2.009 . S
Co160 O172 2.115 . S
Co160 O173 2.319 . S
Co160 O184 2.053 . S
Co160 O187 2.094 1_545 S
Co160 O190 2.122 . S
Co161 O164 2.126 . S
Co161 H165 2.388 . S
Co161 O166 2.053 . S
Co161 O169 2.047 1_545 S
Co161 O175 2.113 1_546 S
Co161 O186 2.063 1_545 S
Co162 H163 2.388 . S
Co162 O164 2.053 . S
Co162 O166 2.126 . S
Co162 O171 2.063 . S
Co162 O185 2.047 . S
Co162 O191 2.113 . S
H163 Co160 2.400 . S
H163 Co162 2.388 . S
H163 O164 0.760 . S
O164 Co160 2.009 . S
O164 Co161 2.126 . S
O164 Co162 2.053 . S
O164 H163 0.760 . S
H165 Co161 2.388 . S
H165 O166 0.760 . S
H165 Co167 2.400 1_556 S
O166 Co161 2.053 . S
O166 Co162 2.126 . S
O166 H165 0.760 . S
O166 Co167 2.009 1_556 S
Co167 H165 2.400 1_554 S
Co167 O166 2.009 1_554 S
Co167 O168 2.053 1_554 S
Co167 O170 2.094 . S
Co167 O174 2.122 . S
Co167 O188 2.115 . S
Co167 O189 2.315 1_554 S
O168 Co167 2.053 1_556 S
O168 C180 1.259 1_545 S
O169 Co161 2.047 1_565 S
O169 C180 1.257 . S
O170 Co167 2.094 . S
O170 C181 1.253 . S
O171 Co162 2.063 . S
O171 C181 1.268 1_556 S
O172 Co160 2.115 . S
O172 C182 1.281 . S
O173 Co160 2.319 . S
O173 C182 1.252 . S
O174 Co167 2.122 . S
O174 C183 1.272 1_545 S
O175 Co161 2.113 1_564 S
O175 C183 1.245 . S
C176 O184 1.259 . S
C176 O185 1.257 . S
C177 O186 1.268 . S
C177 O187 1.253 . S
C178 O188 1.281 . S
C178 O189 1.252 1_554 S
C179 O190 1.272 . S
C179 O191 1.245 . S
C180 O168 1.259 1_565 S
C180 O169 1.257 . S
C181 O170 1.253 . S
C181 O171 1.268 1_554 S
C182 O172 1.281 . S
C182 O173 1.252 . S
C183 O174 1.272 1_565 S
C183 O175 1.245 . S
O184 Co160 2.053 . S
O184 C176 1.259 . S
O185 Co162 2.047 . S
O185 C176 1.257 . S
O186 Co161 2.063 1_565 S
O186 C177 1.268 . S
O187 Co160 2.094 1_565 S
O187 C177 1.253 . S
O188 Co167 2.115 . S
O188 C178 1.281 . S
O189 Co167 2.315 1_556 S
O189 C178 1.252 1_556 S
O190 Co160 2.122 . S
O190 C179 1.272 . S
O191 Co162 2.113 . S
O191 C179 1.245 . S
Co192 H195 2.400 . S
Co192 O196 2.009 . S
Co192 O204 2.115 . S
Co192 O205 2.315 . S
Co192 O216 2.053 . S
Co192 O219 2.094 . S
Co192 O222 2.122 . S
Co193 O196 2.126 . S
Co193 H197 2.388 1_655 S
Co193 O198 2.053 1_655 S
Co193 O201 2.047 1_545 S
Co193 O207 2.113 1_545 S
Co193 O218 2.063 1_545 S
Co194 H195 2.388 1_455 S
Co194 O196 2.053 1_455 S
Co194 O198 2.126 . S
Co194 O203 2.063 . S
Co194 O217 2.047 . S
Co194 O223 2.113 . S
H195 Co192 2.400 . S
H195 Co194 2.388 1_655 S
H195 O196 0.760 . S
O196 Co192 2.009 . S
O196 Co193 2.126 . S
O196 Co194 2.053 1_655 S
O196 H195 0.760 . S
H197 Co193 2.388 1_455 S
H197 O198 0.760 . S
H197 Co199 2.400 1_545 S
O198 Co193 2.053 1_455 S
O198 Co194 2.126 . S
O198 H197 0.760 . S
O198 Co199 2.009 1_545 S
Co199 H197 2.400 1_565 S
Co199 O198 2.009 1_565 S
Co199 O200 2.053 . S
Co199 O202 2.094 1_565 S
Co199 O206 2.122 . S
Co199 O220 2.115 . S
Co199 O221 2.315 . S
O200 Co199 2.053 . S
O200 C212 1.259 . S
O201 Co193 2.047 1_565 S
O201 C212 1.257 1_655 S
O202 Co199 2.094 1_545 S
O202 C213 1.253 . S
O203 Co194 2.063 . S
O203 C213 1.268 . S
O204 Co192 2.115 . S
O204 C214 1.281 . S
O205 Co192 2.315 . S
O205 C214 1.252 . S
O206 Co199 2.122 . S
O206 C215 1.272 1_455 S
O207 Co193 2.113 1_565 S
O207 C215 1.245 . S
C208 O216 1.259 . S
C208 O217 1.257 1_655 S
C209 O218 1.268 1_545 S
C209 O219 1.253 . S
C210 O220 1.281 . S
C210 O221 1.252 . S
C211 O222 1.272 1_455 S
C211 O223 1.245 . S
C212 O200 1.259 . S
C212 O201 1.257 1_455 S
C213 O202 1.253 . S
C213 O203 1.268 . S
C214 O204 1.281 . S
C214 O205 1.252 . S
C215 O206 1.272 1_655 S
C215 O207 1.245 . S
O216 Co192 2.053 . S
O216 C208 1.259 . S
O217 Co194 2.047 . S
O217 C208 1.257 1_455 S
O218 Co193 2.063 1_565 S
O218 C209 1.268 1_565 S
O219 Co192 2.094 . S
O219 C209 1.253 . S
O220 Co199 2.115 . S
O220 C210 1.281 . S
O221 Co199 2.315 . S
O221 C210 1.252 . S
O222 Co192 2.122 . S
O222 C211 1.272 1_655 S
O223 Co194 2.113 . S
O223 C211 1.245 . S
Co224 H227 2.400 . S
Co224 O228 2.009 . S
Co224 O236 2.115 . S
Co224 O237 2.315 . S
Co224 O248 2.053 . S
Co224 O251 2.094 . S
Co224 O254 2.122 . S
Co225 O228 2.126 . S
Co225 H229 2.388 . S
Co225 O230 2.053 . S
Co225 O233 2.047 . S
Co225 O239 2.113 . S
Co225 O250 2.063 . S
Co226 H227 2.388 . S
Co226 O228 2.053 . S
Co226 O230 2.126 . S
Co226 O235 2.063 . S
Co226 O249 2.047 . S
Co226 O255 2.113 . S
H227 Co224 2.400 . S
H227 Co226 2.388 . S
H227 O228 0.760 . S
O228 Co224 2.009 . S
O228 Co225 2.126 . S
O228 Co226 2.053 . S
O228 H227 0.760 . S
H229 Co225 2.388 . S
H229 O230 0.760 . S
H229 Co231 2.400 . S
O230 Co225 2.053 . S
O230 Co226 2.126 . S
O230 H229 0.760 . S
O230 Co231 2.009 . S
Co231 H229 2.400 . S
Co231 O230 2.009 . S
Co231 O232 2.053 . S
Co231 O234 2.094 . S
Co231 O238 2.122 . S
Co231 O252 2.115 . S
Co231 O253 2.315 . S
O232 Co231 2.053 . S
O232 C244 1.259 . S
O233 Co225 2.047 . S
O233 C244 1.257 . S
O234 Co231 2.094 . S
O234 C245 1.253 . S
O235 Co226 2.063 . S
O235 C245 1.268 . S
O236 Co224 2.115 . S
O236 C246 1.281 . S
O237 Co224 2.315 . S
O237 C246 1.252 . S
O238 Co231 2.122 . S
O238 C247 1.272 . S
O239 Co225 2.113 . S
O239 C247 1.245 . S
C240 O248 1.259 . S
C240 O249 1.257 . S
C241 O250 1.268 . S
C241 O251 1.253 . S
C242 O252 1.281 . S
C242 O253 1.252 . S
C243 O254 1.272 . S
C243 O255 1.245 . S
C244 O232 1.259 . S
C244 O233 1.257 . S
C245 O234 1.253 . S
C245 O235 1.268 . S
C246 O236 1.281 . S
C246 O237 1.252 . S
C247 O238 1.272 . S
C247 O239 1.245 . S
O248 Co224 2.053 . S
O248 C240 1.259 . S
O249 Co226 2.047 . S
O249 C240 1.257 . S
O250 Co225 2.063 . S
O250 C241 1.268 . S
O251 Co224 2.094 . S
O251 C241 1.253 . S
O252 Co231 2.115 . S
O252 C242 1.281 . S
O253 Co231 2.315 . S
O253 C242 1.252 . S
O254 Co224 2.122 . S
O254 C243 1.272 . S
O255 Co226 2.113 . S
O255 C243 1.245 . S
Co256 H259 2.400 . S
Co256 O260 2.009 . S
Co256 O268 2.115 . S
Co256 O269 2.315 . S
Co256 O280 2.053 . S
Co256 O283 2.094 . S
Co256 O286 2.122 . S
Co257 O260 2.126 . S
Co257 H261 2.388 1_655 S
Co257 O262 2.053 1_655 S
Co257 O265 2.047 . S
Co257 O271 2.113 . S
Co257 O282 2.063 . S
Co258 H259 2.388 1_455 S
Co258 O260 2.053 1_455 S
Co258 O262 2.126 . S
Co258 O267 2.063 . S
Co258 O281 2.047 . S
Co258 O287 2.113 . S
H259 Co256 2.400 . S
H259 Co258 2.388 1_655 S
H259 O260 0.760 . S
O260 Co256 2.009 . S
O260 Co257 2.126 . S
O260 Co258 2.053 1_655 S
O260 H259 0.760 . S
H261 Co257 2.388 1_455 S
H261 O262 0.760 . S
H261 Co263 2.400 . S
O262 Co257 2.053 1_455 S
O262 Co258 2.126 . S
O262 H261 0.760 . S
O262 Co263 2.009 . S
Co263 H261 2.400 . S
Co263 O262 2.009 . S
Co263 O264 2.053 . S
Co263 O266 2.094 . S
Co263 O270 2.122 . S
Co263 O284 2.115 . S
Co263 O285 2.315 . S
O264 Co263 2.053 . S
O264 C276 1.259 . S
O265 Co257 2.047 . S
O265 C276 1.257 1_655 S
O266 Co263 2.094 . S
O266 C277 1.253 . S
O267 Co258 2.063 . S
O267 C277 1.268 . S
O268 Co256 2.115 . S
O268 C278 1.281 . S
O269 Co256 2.315 . S
O269 C278 1.252 . S
O270 Co263 2.122 . S
O270 C279 1.272 . S
O271 Co257 2.113 . S
O271 C279 1.245 1_655 S
C272 O280 1.259 . S
C272 O281 1.257 1_655 S
C273 O282 1.268 . S
C273 O283 1.253 . S
C274 O284 1.281 . S
C274 O285 1.252 . S
C275 O286 1.272 . S
C275 O287 1.245 1_655 S
C276 O264 1.259 . S
C276 O265 1.257 1_455 S
C277 O266 1.253 . S
C277 O267 1.268 . S
C278 O268 1.281 . S
C278 O269 1.252 . S
C279 O270 1.272 . S
C279 O271 1.245 1_455 S
O280 Co256 2.053 . S
O280 C272 1.259 . S
O281 Co258 2.047 . S
O281 C272 1.257 1_455 S
O282 Co257 2.063 . S
O282 C273 1.268 . S
O283 Co256 2.094 . S
O283 C273 1.253 . S
O284 Co263 2.115 . S
O284 C274 1.281 . S
O285 Co263 2.315 . S
O285 C274 1.252 . S
O286 Co256 2.122 . S
O286 C275 1.272 . S
O287 Co258 2.113 . S
O287 C275 1.245 1_455 S
Co288 H291 2.400 . S
Co288 O292 2.009 . S
Co288 O300 2.115 . S
Co288 O301 2.315 . S
Co288 O312 2.053 . S
Co288 O315 2.094 . S
Co288 O318 2.122 . S
Co289 O292 2.126 . S
Co289 H293 2.388 . S
Co289 O294 2.053 . S
Co289 O297 2.047 . S
Co289 O303 2.113 . S
Co289 O314 2.063 . S
Co290 H291 2.388 . S
Co290 O292 2.053 . S
Co290 O294 2.126 . S
Co290 O299 2.063 . S
Co290 O313 2.047 . S
Co290 O319 2.113 . S
H291 Co288 2.400 . S
H291 Co290 2.388 . S
H291 O292 0.760 . S
O292 Co288 2.009 . S
O292 Co289 2.126 . S
O292 Co290 2.053 . S
O292 H291 0.760 . S
H293 Co289 2.388 . S
H293 O294 0.760 . S
H293 Co295 2.400 . S
O294 Co289 2.053 . S
O294 Co290 2.126 . S
O294 H293 0.760 . S
O294 Co295 2.009 . S
Co295 H293 2.400 . S
Co295 O294 2.009 . S
Co295 O296 2.053 . S
Co295 O298 2.094 . S
Co295 O302 2.122 . S
Co295 O316 2.115 . S
Co295 O317 2.315 . S
O296 Co295 2.053 . S
O296 C308 1.259 . S
O297 Co289 2.047 . S
O297 C308 1.257 . S
O298 Co295 2.094 . S
O298 C309 1.253 . S
O299 Co290 2.063 . S
O299 C309 1.268 . S
O300 Co288 2.115 . S
O300 C310 1.281 . S
O301 Co288 2.315 . S
O301 C310 1.252 . S
O302 Co295 2.122 . S
O302 C311 1.272 . S
O303 Co289 2.113 . S
O303 C311 1.245 . S
C304 O312 1.259 . S
C304 O313 1.257 . S
C305 O314 1.268 . S
C305 O315 1.253 . S
C306 O316 1.281 . S
C306 O317 1.252 . S
C307 O318 1.272 . S
C307 O319 1.245 . S
C308 O296 1.259 . S
C308 O297 1.257 . S
C309 O298 1.253 . S
C309 O299 1.268 . S
C310 O300 1.281 . S
C310 O301 1.252 . S
C311 O302 1.272 . S
C311 O303 1.245 . S
O312 Co288 2.053 . S
O312 C304 1.259 . S
O313 Co290 2.047 . S
O313 C304 1.257 . S
O314 Co289 2.063 . S
O314 C305 1.268 . S
O315 Co288 2.094 . S
O315 C305 1.253 . S
O316 Co295 2.115 . S
O316 C306 1.281 . S
O317 Co295 2.315 . S
O317 C306 1.252 . S
O318 Co288 2.122 . S
O318 C307 1.272 . S
O319 Co290 2.113 . S
O319 C307 1.245 . S
Co320 H323 2.400 . S
Co320 O324 2.009 . S
Co320 O332 2.115 . S
Co320 O333 2.315 . S
Co320 O344 2.053 . S
Co320 O347 2.094 . S
Co320 O350 2.122 . S
Co321 O324 2.126 . S
Co321 H325 2.388 1_655 S
Co321 O326 2.053 1_655 S
Co321 O329 2.047 . S
Co321 O335 2.113 . S
Co321 O346 2.063 . S
Co322 H323 2.388 1_455 S
Co322 O324 2.053 1_455 S
Co322 O326 2.126 . S
Co322 O331 2.063 . S
Co322 O345 2.047 . S
Co322 O351 2.113 . S
H323 Co320 2.400 . S
H323 Co322 2.388 1_655 S
H323 O324 0.760 . S
O324 Co320 2.009 . S
O324 Co321 2.126 . S
O324 Co322 2.053 1_655 S
O324 H323 0.760 . S
H325 Co321 2.388 1_455 S
H325 O326 0.760 . S
H325 Co327 2.400 . S
O326 Co321 2.053 1_455 S
O326 Co322 2.126 . S
O326 H325 0.760 . S
O326 Co327 2.009 . S
Co327 H325 2.400 . S
Co327 O326 2.009 . S
Co327 O328 2.053 . S
Co327 O330 2.094 . S
Co327 O334 2.122 . S
Co327 O348 2.115 . S
Co327 O349 2.315 . S
O328 Co327 2.053 . S
O328 C340 1.259 . S
O329 Co321 2.047 . S
O329 C340 1.257 1_655 S
O330 Co327 2.094 . S
O330 C341 1.253 . S
O331 Co322 2.063 . S
O331 C341 1.268 . S
O332 Co320 2.115 . S
O332 C342 1.281 . S
O333 Co320 2.315 . S
O333 C342 1.252 . S
O334 Co327 2.122 . S
O334 C343 1.272 1_455 S
O335 Co321 2.113 . S
O335 C343 1.245 . S
C336 O344 1.259 . S
C336 O345 1.257 1_655 S
C337 O346 1.268 . S
C337 O347 1.253 . S
C338 O348 1.281 . S
C338 O349 1.252 . S
C339 O350 1.272 1_455 S
C339 O351 1.245 . S
C340 O328 1.259 . S
C340 O329 1.257 1_455 S
C341 O330 1.253 . S
C341 O331 1.268 . S
C342 O332 1.281 . S
C342 O333 1.252 . S
C343 O334 1.272 1_655 S
C343 O335 1.245 . S
O344 Co320 2.053 . S
O344 C336 1.259 . S
O345 Co322 2.047 . S
O345 C336 1.257 1_455 S
O346 Co321 2.063 . S
O346 C337 1.268 . S
O347 Co320 2.094 . S
O347 C337 1.253 . S
O348 Co327 2.115 . S
O348 C338 1.281 . S
O349 Co327 2.315 . S
O349 C338 1.252 . S
O350 Co320 2.122 . S
O350 C339 1.272 1_655 S
O351 Co322 2.113 . S
O351 C339 1.245 . S
Co352 H355 2.400 . S
Co352 O356 2.009 . S
Co352 O364 2.115 . S
Co352 O365 2.315 . S
Co352 O376 2.053 . S
Co352 O379 2.094 . S
Co352 O382 2.122 . S
Co353 O356 2.126 . S
Co353 H357 2.388 . S
Co353 O358 2.053 . S
Co353 O361 2.047 . S
Co353 O367 2.113 . S
Co353 O378 2.063 . S
Co354 H355 2.388 . S
Co354 O356 2.053 . S
Co354 O358 2.126 . S
Co354 O363 2.063 . S
Co354 O377 2.047 . S
Co354 O383 2.113 . S
H355 Co352 2.400 . S
H355 Co354 2.388 . S
H355 O356 0.760 . S
O356 Co352 2.009 . S
O356 Co353 2.126 . S
O356 Co354 2.053 . S
O356 H355 0.760 . S
H357 Co353 2.388 . S
H357 O358 0.760 . S
H357 Co359 2.400 . S
O358 Co353 2.053 . S
O358 Co354 2.126 . S
O358 H357 0.760 . S
O358 Co359 2.009 . S
Co359 H357 2.400 . S
Co359 O358 2.009 . S
Co359 O360 2.053 . S
Co359 O362 2.094 . S
Co359 O366 2.122 . S
Co359 O380 2.115 . S
Co359 O381 2.315 . S
O360 Co359 2.053 . S
O360 C372 1.259 . S
O361 Co353 2.047 . S
O361 C372 1.257 . S
O362 Co359 2.094 . S
O362 C373 1.253 . S
O363 Co354 2.063 . S
O363 C373 1.268 . S
O364 Co352 2.115 . S
O364 C374 1.281 . S
O365 Co352 2.315 . S
O365 C374 1.252 . S
O366 Co359 2.122 . S
O366 C375 1.272 . S
O367 Co353 2.113 . S
O367 C375 1.245 . S
C368 O376 1.259 . S
C368 O377 1.257 . S
C369 O378 1.268 . S
C369 O379 1.253 . S
C370 O380 1.281 . S
C370 O381 1.252 . S
C371 O382 1.272 . S
C371 O383 1.245 . S
C372 O360 1.259 . S
C372 O361 1.257 . S
C373 O362 1.253 . S
C373 O363 1.268 . S
C374 O364 1.281 . S
C374 O365 1.252 . S
C375 O366 1.272 . S
C375 O367 1.245 . S
O376 Co352 2.053 . S
O376 C368 1.259 . S
O377 Co354 2.047 . S
O377 C368 1.257 . S
O378 Co353 2.063 . S
O378 C369 1.268 . S
O379 Co352 2.094 . S
O379 C369 1.253 . S
O380 Co359 2.115 . S
O380 C370 1.281 . S
O381 Co359 2.315 . S
O381 C370 1.252 . S
O382 Co352 2.122 . S
O382 C371 1.272 . S
O383 Co354 2.113 . S
O383 C371 1.245 . S
Co384 H387 2.400 . S
Co384 O388 2.009 . S
Co384 O396 2.115 . S
Co384 O397 2.315 . S
Co384 O408 2.053 . S
Co384 O411 2.094 . S
Co384 O414 2.122 . S
Co385 O388 2.126 . S
Co385 H389 2.388 1_655 S
Co385 O390 2.053 1_655 S
Co385 O393 2.047 . S
Co385 O399 2.113 . S
Co385 O410 2.063 . S
Co386 H387 2.388 1_455 S
Co386 O388 2.053 1_455 S
Co386 O390 2.126 . S
Co386 O395 2.063 . S
Co386 O409 2.047 . S
Co386 O415 2.113 . S
H387 Co384 2.400 . S
H387 Co386 2.388 1_655 S
H387 O388 0.760 . S
O388 Co384 2.009 . S
O388 Co385 2.126 . S
O388 Co386 2.053 1_655 S
O388 H387 0.760 . S
H389 Co385 2.388 1_455 S
H389 O390 0.760 . S
H389 Co391 2.400 . S
O390 Co385 2.053 1_455 S
O390 Co386 2.126 . S
O390 H389 0.760 . S
O390 Co391 2.009 . S
Co391 H389 2.400 . S
Co391 O390 2.009 . S
Co391 O392 2.053 . S
Co391 O394 2.094 . S
Co391 O398 2.122 . S
Co391 O412 2.115 . S
Co391 O413 2.315 . S
O392 Co391 2.053 . S
O392 C404 1.259 . S
O393 Co385 2.047 . S
O393 C404 1.257 1_655 S
O394 Co391 2.094 . S
O394 C405 1.253 . S
O395 Co386 2.063 . S
O395 C405 1.268 . S
O396 Co384 2.115 . S
O396 C406 1.281 . S
O397 Co384 2.315 . S
O397 C406 1.252 . S
O398 Co391 2.122 . S
O398 C407 1.272 . S
O399 Co385 2.113 . S
O399 C407 1.245 1_655 S
C400 O408 1.259 . S
C400 O409 1.257 1_655 S
C401 O410 1.268 . S
C401 O411 1.253 . S
C402 O412 1.281 . S
C402 O413 1.252 . S
C403 O414 1.272 . S
C403 O415 1.245 1_655 S
C404 O392 1.259 . S
C404 O393 1.257 1_455 S
C405 O394 1.253 . S
C405 O395 1.268 . S
C406 O396 1.281 . S
C406 O397 1.252 . S
C407 O398 1.272 . S
C407 O399 1.245 1_455 S
O408 Co384 2.053 . S
O408 C400 1.259 . S
O409 Co386 2.047 . S
O409 C400 1.257 1_455 S
O410 Co385 2.063 . S
O410 C401 1.268 . S
O411 Co384 2.094 . S
O411 C401 1.253 . S
O412 Co391 2.115 . S
O412 C402 1.281 . S
O413 Co391 2.315 . S
O413 C402 1.252 . S
O414 Co384 2.122 . S
O414 C403 1.272 . S
O415 Co386 2.113 . S
O415 C403 1.245 1_455 S
Co416 H419 2.400 . S
Co416 O420 2.009 . S
Co416 O428 2.115 . S
Co416 O429 2.315 . S
Co416 O440 2.053 . S
Co416 O443 2.094 . S
Co416 O446 2.122 . S
Co417 O420 2.126 . S
Co417 H421 2.388 . S
Co417 O422 2.053 . S
Co417 O425 2.047 . S
Co417 O431 2.113 . S
Co417 O442 2.063 . S
Co418 H419 2.388 . S
Co418 O420 2.053 . S
Co418 O422 2.126 . S
Co418 O427 2.063 . S
Co418 O441 2.047 . S
Co418 O447 2.113 . S
H419 Co416 2.400 . S
H419 Co418 2.388 . S
H419 O420 0.760 . S
O420 Co416 2.009 . S
O420 Co417 2.126 . S
O420 Co418 2.053 . S
O420 H419 0.760 . S
H421 Co417 2.388 . S
H421 O422 0.760 . S
H421 Co423 2.400 . S
O422 Co417 2.053 . S
O422 Co418 2.126 . S
O422 H421 0.760 . S
O422 Co423 2.009 . S
Co423 H421 2.400 . S
Co423 O422 2.009 . S
Co423 O424 2.053 . S
Co423 O426 2.094 . S
Co423 O430 2.122 . S
Co423 O444 2.115 . S
Co423 O445 2.315 . S
O424 Co423 2.053 . S
O424 C436 1.259 . S
O425 Co417 2.047 . S
O425 C436 1.257 . S
O426 Co423 2.094 . S
O426 C437 1.253 . S
O427 Co418 2.063 . S
O427 C437 1.268 . S
O428 Co416 2.115 . S
O428 C438 1.281 . S
O429 Co416 2.315 . S
O429 C438 1.252 . S
O430 Co423 2.122 . S
O430 C439 1.272 . S
O431 Co417 2.113 . S
O431 C439 1.245 . S
C432 O440 1.259 . S
C432 O441 1.257 . S
C433 O442 1.268 . S
C433 O443 1.253 . S
C434 O444 1.281 . S
C434 O445 1.252 . S
C435 O446 1.272 . S
C435 O447 1.245 . S
C436 O424 1.259 . S
C436 O425 1.257 . S
C437 O426 1.253 . S
C437 O427 1.268 . S
C438 O428 1.281 . S
C438 O429 1.252 . S
C439 O430 1.272 . S
C439 O431 1.245 . S
O440 Co416 2.053 . S
O440 C432 1.259 . S
O441 Co418 2.047 . S
O441 C432 1.257 . S
O442 Co417 2.063 . S
O442 C433 1.268 . S
O443 Co416 2.094 . S
O443 C433 1.253 . S
O444 Co423 2.115 . S
O444 C434 1.281 . S
O445 Co423 2.315 . S
O445 C434 1.252 . S
O446 Co416 2.122 . S
O446 C435 1.272 . S
O447 Co418 2.113 . S
O447 C435 1.245 . S
Co448 H451 2.400 . S
Co448 O452 2.009 . S
Co448 O460 2.115 . S
Co448 O461 2.315 . S
Co448 O472 2.053 . S
Co448 O475 2.094 . S
Co448 O478 2.122 . S
Co449 O452 2.126 . S
Co449 H453 2.388 1_655 S
Co449 O454 2.053 1_655 S
Co449 O457 2.047 . S
Co449 O463 2.113 . S
Co449 O474 2.063 . S
Co450 H451 2.388 1_455 S
Co450 O452 2.053 1_455 S
Co450 O454 2.126 . S
Co450 O459 2.063 . S
Co450 O473 2.047 . S
Co450 O479 2.113 . S
H451 Co448 2.400 . S
H451 Co450 2.388 1_655 S
H451 O452 0.760 . S
O452 Co448 2.009 . S
O452 Co449 2.126 . S
O452 Co450 2.053 1_655 S
O452 H451 0.760 . S
H453 Co449 2.388 1_455 S
H453 O454 0.760 . S
H453 Co455 2.400 . S
O454 Co449 2.053 1_455 S
O454 Co450 2.126 . S
O454 H453 0.760 . S
O454 Co455 2.009 . S
Co455 H453 2.400 . S
Co455 O454 2.009 . S
Co455 O456 2.053 . S
Co455 O458 2.094 . S
Co455 O462 2.122 . S
Co455 O476 2.115 . S
Co455 O477 2.315 . S
O456 Co455 2.053 . S
O456 C468 1.259 . S
O457 Co449 2.047 . S
O457 C468 1.257 1_655 S
O458 Co455 2.094 . S
O458 C469 1.253 . S
O459 Co450 2.063 . S
O459 C469 1.268 . S
O460 Co448 2.115 . S
O460 C470 1.281 . S
O461 Co448 2.315 . S
O461 C470 1.252 . S
O462 Co455 2.122 . S
O462 C471 1.272 1_455 S
O463 Co449 2.113 . S
O463 C471 1.245 . S
C464 O472 1.259 . S
C464 O473 1.257 1_655 S
C465 O474 1.268 . S
C465 O475 1.253 . S
C466 O476 1.281 . S
C466 O477 1.252 . S
C467 O478 1.272 1_455 S
C467 O479 1.245 . S
C468 O456 1.259 . S
C468 O457 1.257 1_455 S
C469 O458 1.253 . S
C469 O459 1.268 . S
C470 O460 1.281 . S
C470 O461 1.252 . S
C471 O462 1.272 1_655 S
C471 O463 1.245 . S
O472 Co448 2.053 . S
O472 C464 1.259 . S
O473 Co450 2.047 . S
O473 C464 1.257 1_455 S
O474 Co449 2.063 . S
O474 C465 1.268 . S
O475 Co448 2.094 . S
O475 C465 1.253 . S
O476 Co455 2.115 . S
O476 C466 1.281 . S
O477 Co455 2.315 . S
O477 C466 1.252 . S
O478 Co448 2.122 . S
O478 C467 1.272 1_655 S
O479 Co450 2.113 . S
O479 C467 1.245 . S
Co480 H483 2.400 . S
Co480 O484 2.009 . S
Co480 O492 2.115 . S
Co480 O493 2.315 . S
Co480 O504 2.053 . S
Co480 O507 2.094 . S
Co480 O510 2.122 . S
Co481 O484 2.126 . S
Co481 H485 2.388 . S
Co481 O486 2.053 . S
Co481 O489 2.047 . S
Co481 O495 2.113 . S
Co481 O506 2.063 . S
Co482 H483 2.388 . S
Co482 O484 2.053 . S
Co482 O486 2.126 . S
Co482 O491 2.063 . S
Co482 O505 2.047 . S
Co482 O511 2.113 . S
H483 Co480 2.400 . S
H483 Co482 2.388 . S
H483 O484 0.760 . S
O484 Co480 2.009 . S
O484 Co481 2.126 . S
O484 Co482 2.053 . S
O484 H483 0.760 . S
H485 Co481 2.388 . S
H485 O486 0.760 . S
H485 Co487 2.400 . S
O486 Co481 2.053 . S
O486 Co482 2.126 . S
O486 H485 0.760 . S
O486 Co487 2.009 . S
Co487 H485 2.400 . S
Co487 O486 2.009 . S
Co487 O488 2.053 . S
Co487 O490 2.094 . S
Co487 O494 2.122 . S
Co487 O508 2.115 . S
Co487 O509 2.315 . S
O488 Co487 2.053 . S
O488 C500 1.259 . S
O489 Co481 2.047 . S
O489 C500 1.257 . S
O490 Co487 2.094 . S
O490 C501 1.253 . S
O491 Co482 2.063 . S
O491 C501 1.268 . S
O492 Co480 2.115 . S
O492 C502 1.281 . S
O493 Co480 2.315 . S
O493 C502 1.252 . S
O494 Co487 2.122 . S
O494 C503 1.272 . S
O495 Co481 2.113 . S
O495 C503 1.245 . S
C496 O504 1.259 . S
C496 O505 1.257 . S
C497 O506 1.268 . S
C497 O507 1.253 . S
C498 O508 1.281 . S
C498 O509 1.252 . S
C499 O510 1.272 . S
C499 O511 1.245 . S
C500 O488 1.259 . S
C500 O489 1.257 . S
C501 O490 1.253 . S
C501 O491 1.268 . S
C502 O492 1.281 . S
C502 O493 1.252 . S
C503 O494 1.272 . S
C503 O495 1.245 . S
O504 Co480 2.053 . S
O504 C496 1.259 . S
O505 Co482 2.047 . S
O505 C496 1.257 . S
O506 Co481 2.063 . S
O506 C497 1.268 . S
O507 Co480 2.094 . S
O507 C497 1.253 . S
O508 Co487 2.115 . S
O508 C498 1.281 . S
O509 Co487 2.315 . S
O509 C498 1.252 . S
O510 Co480 2.122 . S
O510 C499 1.272 . S
O511 Co482 2.113 . S
O511 C499 1.245 . S
Co512 H515 2.400 . S
Co512 O516 2.009 . S
Co512 O524 2.115 . S
Co512 O525 2.315 . S
Co512 O536 2.053 . S
Co512 O539 2.094 . S
Co512 O542 2.122 . S
Co513 O516 2.126 . S
Co513 H517 2.388 . S
Co513 O518 2.053 . S
Co513 O521 2.047 . S
Co513 O527 2.113 . S
Co513 O538 2.063 . S
Co514 H515 2.388 . S
Co514 O516 2.053 . S
Co514 O518 2.126 . S
Co514 O523 2.063 . S
Co514 O537 2.047 . S
Co514 O543 2.113 . S
H515 Co512 2.400 . S
H515 Co514 2.388 . S
H515 O516 0.760 . S
O516 Co512 2.009 . S
O516 Co513 2.126 . S
O516 Co514 2.053 . S
O516 H515 0.760 . S
H517 Co513 2.388 . S
H517 O518 0.760 . S
H517 Co519 2.400 . S
O518 Co513 2.053 . S
O518 Co514 2.126 . S
O518 H517 0.760 . S
O518 Co519 2.009 . S
Co519 H517 2.400 . S
Co519 O518 2.009 . S
Co519 O520 2.053 . S
Co519 O522 2.094 . S
Co519 O526 2.122 . S
Co519 O540 2.115 . S
Co519 O541 2.315 . S
O520 Co519 2.053 . S
O520 C532 1.259 . S
O521 Co513 2.047 . S
O521 C532 1.257 . S
O522 Co519 2.094 . S
O522 C533 1.253 . S
O523 Co514 2.063 . S
O523 C533 1.268 . S
O524 Co512 2.115 . S
O524 C534 1.281 . S
O525 Co512 2.315 . S
O525 C534 1.252 . S
O526 Co519 2.122 . S
O526 C535 1.272 . S
O527 Co513 2.113 . S
O527 C535 1.245 . S
C528 O536 1.259 . S
C528 O537 1.257 . S
C529 O538 1.268 . S
C529 O539 1.253 . S
C530 O540 1.281 . S
C530 O541 1.252 . S
C531 O542 1.272 . S
C531 O543 1.245 . S
C532 O520 1.259 . S
C532 O521 1.257 . S
C533 O522 1.253 . S
C533 O523 1.268 . S
C534 O524 1.281 . S
C534 O525 1.252 . S
C535 O526 1.272 . S
C535 O527 1.245 . S
O536 Co512 2.053 . S
O536 C528 1.259 . S
O537 Co514 2.047 . S
O537 C528 1.257 . S
O538 Co513 2.063 . S
O538 C529 1.268 . S
O539 Co512 2.094 . S
O539 C529 1.253 . S
O540 Co519 2.115 . S
O540 C530 1.281 . S
O541 Co519 2.315 . S
O541 C530 1.252 . S
O542 Co512 2.122 . S
O542 C531 1.272 . S
O543 Co514 2.113 . S
O543 C531 1.245 . S
Co544 H547 2.400 . S
Co544 O548 2.009 . S
Co544 O556 2.115 . S
Co544 O557 2.315 . S
Co544 O568 2.053 . S
Co544 O571 2.094 . S
Co544 O574 2.122 . S
Co545 O548 2.126 . S
Co545 H549 2.388 . S
Co545 O550 2.053 . S
Co545 O553 2.047 . S
Co545 O559 2.113 . S
Co545 O570 2.063 . S
Co546 H547 2.388 . S
Co546 O548 2.053 . S
Co546 O550 2.126 . S
Co546 O555 2.063 1_565 S
Co546 O569 2.047 1_565 S
Co546 O575 2.113 1_565 S
H547 Co544 2.400 . S
H547 Co546 2.388 . S
H547 O548 0.760 . S
O548 Co544 2.009 . S
O548 Co545 2.126 . S
O548 Co546 2.053 . S
O548 H547 0.760 . S
H549 Co545 2.388 . S
H549 O550 0.760 . S
H549 Co551 2.400 . S
O550 Co545 2.053 . S
O550 Co546 2.126 . S
O550 H549 0.760 . S
O550 Co551 2.009 . S
Co551 H549 2.400 . S
Co551 O550 2.009 . S
Co551 O552 2.053 . S
Co551 O554 2.094 1_565 S
Co551 O558 2.122 . S
Co551 O572 2.115 . S
Co551 O573 2.319 . S
O552 Co551 2.053 . S
O552 C564 1.259 . S
O553 Co545 2.047 . S
O553 C564 1.257 . S
O554 Co551 2.094 1_545 S
O554 C565 1.253 . S
O555 Co546 2.063 1_545 S
O555 C565 1.268 . S
O556 Co544 2.115 . S
O556 C566 1.281 . S
O557 Co544 2.315 . S
O557 C566 1.252 . S
O558 Co551 2.122 . S
O558 C567 1.272 . S
O559 Co545 2.113 . S
O559 C567 1.245 . S
C560 O568 1.259 1_545 S
C560 O569 1.257 . S
C561 O570 1.268 . S
C561 O571 1.253 . S
C562 O572 1.281 . S
C562 O573 1.252 . S
C563 O574 1.272 1_545 S
C563 O575 1.245 . S
C564 O552 1.259 . S
C564 O553 1.257 . S
C565 O554 1.253 . S
C565 O555 1.268 . S
C566 O556 1.281 . S
C566 O557 1.252 . S
C567 O558 1.272 . S
C567 O559 1.245 . S
O568 Co544 2.053 . S
O568 C560 1.259 1_565 S
O569 Co546 2.047 1_545 S
O569 C560 1.257 . S
O570 Co545 2.063 . S
O570 C561 1.268 . S
O571 Co544 2.094 . S
O571 C561 1.253 . S
O572 Co551 2.115 . S
O572 C562 1.281 . S
O573 Co551 2.319 . S
O573 C562 1.252 . S
O574 Co544 2.122 . S
O574 C563 1.272 1_565 S
O575 Co546 2.113 1_545 S
O575 C563 1.245 . S
Co576 H579 2.400 1_545 S
Co576 O580 2.009 1_545 S
Co576 O588 2.115 . S
Co576 O589 2.315 . S
Co576 O600 2.053 . S
Co576 O603 2.094 1_545 S
Co576 O606 2.122 . S
Co577 O580 2.126 . S
Co577 H581 2.388 . S
Co577 O582 2.053 . S
Co577 O585 2.047 . S
Co577 O591 2.113 . S
Co577 O602 2.063 . S
Co578 H579 2.388 . S
Co578 O580 2.053 . S
Co578 O582 2.126 . S
Co578 O587 2.063 1_565 S
Co578 O601 2.047 1_565 S
Co578 O607 2.113 1_565 S
H579 Co576 2.400 1_565 S
H579 Co578 2.388 . S
H579 O580 0.760 . S
O580 Co576 2.009 1_565 S
O580 Co577 2.126 . S
O580 Co578 2.053 . S
O580 H579 0.760 . S
H581 Co577 2.388 . S
H581 O582 0.760 . S
H581 Co583 2.400 . S
O582 Co577 2.053 . S
O582 Co578 2.126 . S
O582 H581 0.760 . S
O582 Co583 2.009 . S
Co583 H581 2.400 . S
Co583 O582 2.009 . S
Co583 O584 2.053 . S
Co583 O586 2.094 . S
Co583 O590 2.122 . S
Co583 O604 2.115 . S
Co583 O605 2.315 . S
O584 Co583 2.053 . S
O584 C596 1.259 . S
O585 Co577 2.047 . S
O585 C596 1.257 . S
O586 Co583 2.094 . S
O586 C597 1.253 . S
O587 Co578 2.063 1_545 S
O587 C597 1.268 1_545 S
O588 Co576 2.115 . S
O588 C598 1.281 . S
O589 Co576 2.315 . S
O589 C598 1.252 . S
O590 Co583 2.122 . S
O590 C599 1.272 . S
O591 Co577 2.113 . S
O591 C599 1.245 . S
C592 O600 1.259 . S
C592 O601 1.257 . S
C593 O602 1.268 . S
C593 O603 1.253 . S
C594 O604 1.281 . S
C594 O605 1.252 . S
C595 O606 1.272 . S
C595 O607 1.245 . S
C596 O584 1.259 . S
C596 O585 1.257 . S
C597 O586 1.253 . S
C597 O587 1.268 1_565 S
C598 O588 1.281 . S
C598 O589 1.252 . S
C599 O590 1.272 . S
C599 O591 1.245 . S
O600 Co576 2.053 . S
O600 C592 1.259 . S
O601 Co578 2.047 1_545 S
O601 C592 1.257 . S
O602 Co577 2.063 . S
O602 C593 1.268 . S
O603 Co576 2.094 1_565 S
O603 C593 1.253 . S
O604 Co583 2.115 . S
O604 C594 1.281 . S
O605 Co583 2.315 . S
O605 C594 1.252 . S
O606 Co576 2.122 . S
O606 C595 1.272 . S
O607 Co578 2.113 1_545 S
O607 C595 1.245 . S
Co608 H611 2.400 . S
Co608 O612 2.009 . S
Co608 O620 2.115 . S
Co608 O621 2.315 . S
Co608 O632 2.053 . S
Co608 O635 2.094 . S
Co608 O638 2.122 . S
Co609 O612 2.126 . S
Co609 H613 2.388 . S
Co609 O614 2.053 . S
Co609 O617 2.047 . S
Co609 O623 2.113 . S
Co609 O634 2.063 . S
Co610 H611 2.388 . S
Co610 O612 2.053 . S
Co610 O614 2.126 . S
Co610 O619 2.063 . S
Co610 O633 2.047 . S
Co610 O639 2.113 . S
H611 Co608 2.400 . S
H611 Co610 2.388 . S
H611 O612 0.760 . S
O612 Co608 2.009 . S
O612 Co609 2.126 . S
O612 Co610 2.053 . S
O612 H611 0.760 . S
H613 Co609 2.388 . S
H613 O614 0.760 . S
H613 Co615 2.400 . S
O614 Co609 2.053 . S
O614 Co610 2.126 . S
O614 H613 0.760 . S
O614 Co615 2.009 . S
Co615 H613 2.400 . S
Co615 O614 2.009 . S
Co615 O616 2.053 . S
Co615 O618 2.094 . S
Co615 O622 2.122 . S
Co615 O636 2.115 . S
Co615 O637 2.315 . S
O616 Co615 2.053 . S
O616 C628 1.259 . S
O617 Co609 2.047 . S
O617 C628 1.257 . S
O618 Co615 2.094 . S
O618 C629 1.253 . S
O619 Co610 2.063 . S
O619 C629 1.268 . S
O620 Co608 2.115 . S
O620 C630 1.281 . S
O621 Co608 2.315 . S
O621 C630 1.252 . S
O622 Co615 2.122 . S
O622 C631 1.272 . S
O623 Co609 2.113 . S
O623 C631 1.245 . S
C624 O632 1.259 . S
C624 O633 1.257 . S
C625 O634 1.268 . S
C625 O635 1.253 . S
C626 O636 1.281 . S
C626 O637 1.252 . S
C627 O638 1.272 . S
C627 O639 1.245 . S
C628 O616 1.259 . S
C628 O617 1.257 . S
C629 O618 1.253 . S
C629 O619 1.268 . S
C630 O620 1.281 . S
C630 O621 1.252 . S
C631 O622 1.272 . S
C631 O623 1.245 . S
O632 Co608 2.053 . S
O632 C624 1.259 . S
O633 Co610 2.047 . S
O633 C624 1.257 . S
O634 Co609 2.063 . S
O634 C625 1.268 . S
O635 Co608 2.094 . S
O635 C625 1.253 . S
O636 Co615 2.115 . S
O636 C626 1.281 . S
O637 Co615 2.315 . S
O637 C626 1.252 . S
O638 Co608 2.122 . S
O638 C627 1.272 . S
O639 Co610 2.113 . S
O639 C627 1.245 . S
Co640 H643 2.400 . S
Co640 O644 2.009 . S
Co640 O652 2.115 . S
Co640 O653 2.315 . S
Co640 O664 2.053 . S
Co640 O667 2.094 . S
Co640 O670 2.122 . S
Co641 O644 2.126 . S
Co641 H645 2.388 . S
Co641 O646 2.053 . S
Co641 O649 2.047 . S
Co641 O655 2.113 . S
Co641 O666 2.063 . S
Co642 H643 2.388 . S
Co642 O644 2.053 . S
Co642 O646 2.126 . S
Co642 O651 2.063 . S
Co642 O665 2.047 . S
Co642 O671 2.113 . S
H643 Co640 2.400 . S
H643 Co642 2.388 . S
H643 O644 0.760 . S
O644 Co640 2.009 . S
O644 Co641 2.126 . S
O644 Co642 2.053 . S
O644 H643 0.760 . S
H645 Co641 2.388 . S
H645 O646 0.760 . S
H645 Co647 2.400 . S
O646 Co641 2.053 . S
O646 Co642 2.126 . S
O646 H645 0.760 . S
O646 Co647 2.009 . S
Co647 H645 2.400 . S
Co647 O646 2.009 . S
Co647 O648 2.053 . S
Co647 O650 2.094 . S
Co647 O654 2.122 . S
Co647 O668 2.115 . S
Co647 O669 2.315 . S
O648 Co647 2.053 . S
O648 C660 1.259 . S
O649 Co641 2.047 . S
O649 C660 1.257 . S
O650 Co647 2.094 . S
O650 C661 1.253 . S
O651 Co642 2.063 . S
O651 C661 1.268 . S
O652 Co640 2.115 . S
O652 C662 1.281 . S
O653 Co640 2.315 . S
O653 C662 1.252 . S
O654 Co647 2.122 . S
O654 C663 1.272 . S
O655 Co641 2.113 . S
O655 C663 1.245 . S
C656 O664 1.259 . S
C656 O665 1.257 . S
C657 O666 1.268 . S
C657 O667 1.253 . S
C658 O668 1.281 . S
C658 O669 1.252 . S
C659 O670 1.272 . S
C659 O671 1.245 . S
C660 O648 1.259 . S
C660 O649 1.257 . S
C661 O650 1.253 . S
C661 O651 1.268 . S
C662 O652 1.281 . S
C662 O653 1.252 . S
C663 O654 1.272 . S
C663 O655 1.245 . S
O664 Co640 2.053 . S
O664 C656 1.259 . S
O665 Co642 2.047 . S
O665 C656 1.257 . S
O666 Co641 2.063 . S
O666 C657 1.268 . S
O667 Co640 2.094 . S
O667 C657 1.253 . S
O668 Co647 2.115 . S
O668 C658 1.281 . S
O669 Co647 2.315 . S
O669 C658 1.252 . S
O670 Co640 2.122 . S
O670 C659 1.272 . S
O671 Co642 2.113 . S
O671 C659 1.245 . S
Co672 H675 2.400 . S
Co672 O676 2.009 . S
Co672 O684 2.115 . S
Co672 O685 2.319 . S
Co672 O696 2.053 . S
Co672 O699 2.094 1_545 S
Co672 O702 2.122 . S
Co673 O676 2.126 . S
Co673 H677 2.388 . S
Co673 O678 2.053 . S
Co673 O681 2.047 1_545 S
Co673 O687 2.113 1_545 S
Co673 O698 2.063 1_545 S
Co674 H675 2.388 . S
Co674 O676 2.053 . S
Co674 O678 2.126 . S
Co674 O683 2.063 . S
Co674 O697 2.047 . S
Co674 O703 2.113 . S
H675 Co672 2.400 . S
H675 Co674 2.388 . S
H675 O676 0.760 . S
O676 Co672 2.009 . S
O676 Co673 2.126 . S
O676 Co674 2.053 . S
O676 H675 0.760 . S
H677 Co673 2.388 . S
H677 O678 0.760 . S
H677 Co679 2.400 . S
O678 Co673 2.053 . S
O678 Co674 2.126 . S
O678 H677 0.760 . S
O678 Co679 2.009 . S
Co679 H677 2.400 . S
Co679 O678 2.009 . S
Co679 O680 2.053 . S
Co679 O682 2.094 . S
Co679 O686 2.122 . S
Co679 O700 2.115 . S
Co679 O701 2.315 . S
O680 Co679 2.053 . S
O680 C692 1.259 1_545 S
O681 Co673 2.047 1_565 S
O681 C692 1.257 . S
O682 Co679 2.094 . S
O682 C693 1.253 . S
O683 Co674 2.063 . S
O683 C693 1.268 . S
O684 Co672 2.115 . S
O684 C694 1.281 . S
O685 Co672 2.319 . S
O685 C694 1.252 . S
O686 Co679 2.122 . S
O686 C695 1.272 1_545 S
O687 Co673 2.113 1_565 S
O687 C695 1.245 . S
C688 O696 1.259 . S
C688 O697 1.257 . S
C689 O698 1.268 . S
C689 O699 1.253 . S
C690 O700 1.281 . S
C690 O701 1.252 . S
C691 O702 1.272 . S
C691 O703 1.245 . S
C692 O680 1.259 1_565 S
C692 O681 1.257 . S
C693 O682 1.253 . S
C693 O683 1.268 . S
C694 O684 1.281 . S
C694 O685 1.252 . S
C695 O686 1.272 1_565 S
C695 O687 1.245 . S
O696 Co672 2.053 . S
O696 C688 1.259 . S
O697 Co674 2.047 . S
O697 C688 1.257 . S
O698 Co673 2.063 1_565 S
O698 C689 1.268 . S
O699 Co672 2.094 1_565 S
O699 C689 1.253 . S
O700 Co679 2.115 . S
O700 C690 1.281 . S
O701 Co679 2.315 . S
O701 C690 1.252 . S
O702 Co672 2.122 . S
O702 C691 1.272 . S
O703 Co674 2.113 . S
O703 C691 1.245 . S
Co704 H707 2.400 . S
Co704 O708 2.009 . S
Co704 O716 2.115 . S
Co704 O717 2.315 . S
Co704 O728 2.053 . S
Co704 O731 2.094 . S
Co704 O734 2.122 . S
Co705 O708 2.126 . S
Co705 H709 2.388 . S
Co705 O710 2.053 . S
Co705 O713 2.047 1_545 S
Co705 O719 2.113 1_545 S
Co705 O730 2.063 1_545 S
Co706 H707 2.388 . S
Co706 O708 2.053 . S
Co706 O710 2.126 . S
Co706 O715 2.063 . S
Co706 O729 2.047 . S
Co706 O735 2.113 . S
H707 Co704 2.400 . S
H707 Co706 2.388 . S
H707 O708 0.760 . S
O708 Co704 2.009 . S
O708 Co705 2.126 . S
O708 Co706 2.053 . S
O708 H707 0.760 . S
H709 Co705 2.388 . S
H709 O710 0.760 . S
H709 Co711 2.400 1_545 S
O710 Co705 2.053 . S
O710 Co706 2.126 . S
O710 H709 0.760 . S
O710 Co711 2.009 1_545 S
Co711 H709 2.400 1_565 S
Co711 O710 2.009 1_565 S
Co711 O712 2.053 . S
Co711 O714 2.094 1_565 S
Co711 O718 2.122 . S
Co711 O732 2.115 . S
Co711 O733 2.315 . S
O712 Co711 2.053 . S
O712 C724 1.259 . S
O713 Co705 2.047 1_565 S
O713 C724 1.257 . S
O714 Co711 2.094 1_545 S
O714 C725 1.253 . S
O715 Co706 2.063 . S
O715 C725 1.268 . S
O716 Co704 2.115 . S
O716 C726 1.281 . S
O717 Co704 2.315 . S
O717 C726 1.252 . S
O718 Co711 2.122 . S
O718 C727 1.272 . S
O719 Co705 2.113 1_565 S
O719 C727 1.245 . S
C720 O728 1.259 . S
C720 O729 1.257 . S
C721 O730 1.268 1_545 S
C721 O731 1.253 . S
C722 O732 1.281 . S
C722 O733 1.252 . S
C723 O734 1.272 . S
C723 O735 1.245 . S
C724 O712 1.259 . S
C724 O713 1.257 . S
C725 O714 1.253 . S
C725 O715 1.268 . S
C726 O716 1.281 . S
C726 O717 1.252 . S
C727 O718 1.272 . S
C727 O719 1.245 . S
O728 Co704 2.053 . S
O728 C720 1.259 . S
O729 Co706 2.047 . S
O729 C720 1.257 . S
O730 Co705 2.063 1_565 S
O730 C721 1.268 1_565 S
O731 Co704 2.094 . S
O731 C721 1.253 . S
O732 Co711 2.115 . S
O732 C722 1.281 . S
O733 Co711 2.315 . S
O733 C722 1.252 . S
O734 Co704 2.122 . S
O734 C723 1.272 . S
O735 Co706 2.113 . S
O735 C723 1.245 . S
Co736 H739 2.400 . S
Co736 O740 2.009 . S
Co736 O748 2.115 . S
Co736 O749 2.315 . S
Co736 O760 2.053 . S
Co736 O763 2.094 . S
Co736 O766 2.122 . S
Co737 O740 2.126 . S
Co737 H741 2.388 . S
Co737 O742 2.053 . S
Co737 O745 2.047 . S
Co737 O751 2.113 . S
Co737 O762 2.063 . S
Co738 H739 2.388 . S
Co738 O740 2.053 . S
Co738 O742 2.126 . S
Co738 O747 2.063 . S
Co738 O761 2.047 . S
Co738 O767 2.113 . S
H739 Co736 2.400 . S
H739 Co738 2.388 . S
H739 O740 0.760 . S
O740 Co736 2.009 . S
O740 Co737 2.126 . S
O740 Co738 2.053 . S
O740 H739 0.760 . S
H741 Co737 2.388 . S
H741 O742 0.760 . S
H741 Co743 2.400 . S
O742 Co737 2.053 . S
O742 Co738 2.126 . S
O742 H741 0.760 . S
O742 Co743 2.009 . S
Co743 H741 2.400 . S
Co743 O742 2.009 . S
Co743 O744 2.053 . S
Co743 O746 2.094 . S
Co743 O750 2.122 . S
Co743 O764 2.115 . S
Co743 O765 2.315 . S
O744 Co743 2.053 . S
O744 C756 1.259 . S
O745 Co737 2.047 . S
O745 C756 1.257 . S
O746 Co743 2.094 . S
O746 C757 1.253 . S
O747 Co738 2.063 . S
O747 C757 1.268 . S
O748 Co736 2.115 . S
O748 C758 1.281 . S
O749 Co736 2.315 . S
O749 C758 1.252 . S
O750 Co743 2.122 . S
O750 C759 1.272 . S
O751 Co737 2.113 . S
O751 C759 1.245 . S
C752 O760 1.259 . S
C752 O761 1.257 . S
C753 O762 1.268 . S
C753 O763 1.253 . S
C754 O764 1.281 . S
C754 O765 1.252 . S
C755 O766 1.272 . S
C755 O767 1.245 . S
C756 O744 1.259 . S
C756 O745 1.257 . S
C757 O746 1.253 . S
C757 O747 1.268 . S
C758 O748 1.281 . S
C758 O749 1.252 . S
C759 O750 1.272 . S
C759 O751 1.245 . S
O760 Co736 2.053 . S
O760 C752 1.259 . S
O761 Co738 2.047 . S
O761 C752 1.257 . S
O762 Co737 2.063 . S
O762 C753 1.268 . S
O763 Co736 2.094 . S
O763 C753 1.253 . S
O764 Co743 2.115 . S
O764 C754 1.281 . S
O765 Co743 2.315 . S
O765 C754 1.252 . S
O766 Co736 2.122 . S
O766 C755 1.272 . S
O767 Co738 2.113 . S
O767 C755 1.245 . S
Co768 H771 2.400 . S
Co768 O772 2.009 . S
Co768 O780 2.115 1_554 S
Co768 O781 2.315 . S
Co768 O792 2.053 . S
Co768 O795 2.094 1_554 S
Co768 O798 2.122 1_554 S
Co769 O772 2.126 . S
Co769 H773 2.388 1_554 S
Co769 O774 2.053 . S
Co769 O777 2.047 1_554 S
Co769 O783 2.113 . S
Co769 O794 2.063 . S
Co770 H771 2.388 . S
Co770 O772 2.053 . S
Co770 O774 2.126 . S
Co770 O779 2.063 . S
Co770 O793 2.047 . S
Co770 O799 2.113 1_554 S
H771 Co768 2.400 . S
H771 Co770 2.388 . S
H771 O772 0.760 . S
O772 Co768 2.009 . S
O772 Co769 2.126 . S
O772 Co770 2.053 . S
O772 H771 0.760 . S
H773 Co769 2.388 1_556 S
H773 O774 0.760 1_556 S
H773 Co775 2.400 1_556 S
O774 Co769 2.053 . S
O774 Co770 2.126 . S
O774 H773 0.760 1_554 S
O774 Co775 2.009 . S
Co775 H773 2.400 1_554 S
Co775 O774 2.009 . S
Co775 O776 2.053 . S
Co775 O778 2.094 . S
Co775 O782 2.122 . S
Co775 O796 2.115 . S
Co775 O797 2.315 1_554 S
O776 Co775 2.053 . S
O776 C788 1.259 1_554 S
O777 Co769 2.047 1_556 S
O777 C788 1.257 . S
O778 Co775 2.094 . S
O778 C789 1.253 . S
O779 Co770 2.063 . S
O779 C789 1.268 . S
O780 Co768 2.115 1_556 S
O780 C790 1.281 1_556 S
O781 Co768 2.315 . S
O781 C790 1.252 . S
O782 Co775 2.122 . S
O782 C791 1.272 . S
O783 Co769 2.113 . S
O783 C791 1.245 . S
C784 O792 1.259 . S
C784 O793 1.257 . S
C785 O794 1.268 1_556 S
C785 O795 1.253 . S
C786 O796 1.281 . S
C786 O797 1.252 1_554 S
C787 O798 1.272 . S
C787 O799 1.245 . S
C788 O776 1.259 1_556 S
C788 O777 1.257 . S
C789 O778 1.253 . S
C789 O779 1.268 . S
C790 O780 1.281 1_554 S
C790 O781 1.252 . S
C791 O782 1.272 . S
C791 O783 1.245 . S
O792 Co768 2.053 . S
O792 C784 1.259 . S
O793 Co770 2.047 . S
O793 C784 1.257 . S
O794 Co769 2.063 . S
O794 C785 1.268 1_554 S
O795 Co768 2.094 1_556 S
O795 C785 1.253 . S
O796 Co775 2.115 . S
O796 C786 1.281 . S
O797 Co775 2.315 1_556 S
O797 C786 1.252 1_556 S
O798 Co768 2.122 1_556 S
O798 C787 1.272 . S
O799 Co770 2.113 1_556 S
O799 C787 1.245 . S
Co800 H803 2.400 1_556 S
Co800 O804 2.009 1_556 S
Co800 O812 2.115 . S
Co800 O813 2.315 1_556 S
Co800 O824 2.053 1_556 S
Co800 O827 2.094 . S
Co800 O830 2.122 . S
Co801 O804 2.126 . S
Co801 H805 2.388 . S
Co801 O806 2.053 . S
Co801 O809 2.047 . S
Co801 O815 2.113 . S
Co801 O826 2.063 . S
Co802 H803 2.388 . S
Co802 O804 2.053 . S
Co802 O806 2.126 . S
Co802 O811 2.063 . S
Co802 O825 2.047 . S
Co802 O831 2.113 1_554 S
H803 Co800 2.400 1_554 S
H803 Co802 2.388 . S
H803 O804 0.760 . S
O804 Co800 2.009 1_554 S
O804 Co801 2.126 . S
O804 Co802 2.053 . S
O804 H803 0.760 . S
H805 Co801 2.388 . S
H805 O806 0.760 . S
H805 Co807 2.400 . S
O806 Co801 2.053 . S
O806 Co802 2.126 . S
O806 H805 0.760 . S
O806 Co807 2.009 . S
Co807 H805 2.400 . S
Co807 O806 2.009 . S
Co807 O808 2.053 . S
Co807 O810 2.094 . S
Co807 O814 2.122 . S
Co807 O828 2.115 . S
Co807 O829 2.315 . S
O808 Co807 2.053 . S
O808 C820 1.259 . S
O809 Co801 2.047 . S
O809 C820 1.257 . S
O810 Co807 2.094 . S
O810 C821 1.253 . S
O811 Co802 2.063 . S
O811 C821 1.268 . S
O812 Co800 2.115 . S
O812 C822 1.281 . S
O813 Co800 2.315 1_554 S
O813 C822 1.252 1_554 S
O814 Co807 2.122 . S
O814 C823 1.272 . S
O815 Co801 2.113 . S
O815 C823 1.245 . S
C816 O824 1.259 . S
C816 O825 1.257 . S
C817 O826 1.268 1_556 S
C817 O827 1.253 . S
C818 O828 1.281 . S
C818 O829 1.252 . S
C819 O830 1.272 . S
C819 O831 1.245 . S
C820 O808 1.259 . S
C820 O809 1.257 . S
C821 O810 1.253 . S
C821 O811 1.268 . S
C822 O812 1.281 . S
C822 O813 1.252 1_556 S
C823 O814 1.272 . S
C823 O815 1.245 . S
O824 Co800 2.053 1_554 S
O824 C816 1.259 . S
O825 Co802 2.047 . S
O825 C816 1.257 . S
O826 Co801 2.063 . S
O826 C817 1.268 1_554 S
O827 Co800 2.094 . S
O827 C817 1.253 . S
O828 Co807 2.115 . S
O828 C818 1.281 . S
O829 Co807 2.315 . S
O829 C818 1.252 . S
O830 Co800 2.122 . S
O830 C819 1.272 . S
O831 Co802 2.113 1_556 S
O831 C819 1.245 . S
Co832 H835 2.400 . S
Co832 O836 2.009 . S
Co832 O844 2.115 . S
Co832 O845 2.315 . S
Co832 O856 2.053 . S
Co832 O859 2.094 . S
Co832 O862 2.122 . S
Co833 O836 2.126 . S
Co833 H837 2.388 . S
Co833 O838 2.053 . S
Co833 O841 2.047 . S
Co833 O847 2.113 . S
Co833 O858 2.063 . S
Co834 H835 2.388 . S
Co834 O836 2.053 . S
Co834 O838 2.126 . S
Co834 O843 2.063 . S
Co834 O857 2.047 . S
Co834 O863 2.113 . S
H835 Co832 2.400 . S
H835 Co834 2.388 . S
H835 O836 0.760 . S
O836 Co832 2.009 . S
O836 Co833 2.126 . S
O836 Co834 2.053 . S
O836 H835 0.760 . S
H837 Co833 2.388 . S
H837 O838 0.760 . S
H837 Co839 2.400 . S
O838 Co833 2.053 . S
O838 Co834 2.126 . S
O838 H837 0.760 . S
O838 Co839 2.009 . S
Co839 H837 2.400 . S
Co839 O838 2.009 . S
Co839 O840 2.053 . S
Co839 O842 2.094 . S
Co839 O846 2.122 . S
Co839 O860 2.115 . S
Co839 O861 2.315 . S
O840 Co839 2.053 . S
O840 C852 1.259 . S
O841 Co833 2.047 . S
O841 C852 1.257 . S
O842 Co839 2.094 . S
O842 C853 1.253 . S
O843 Co834 2.063 . S
O843 C853 1.268 . S
O844 Co832 2.115 . S
O844 C854 1.281 . S
O845 Co832 2.315 . S
O845 C854 1.252 . S
O846 Co839 2.122 . S
O846 C855 1.272 . S
O847 Co833 2.113 . S
O847 C855 1.245 . S
C848 O856 1.259 . S
C848 O857 1.257 . S
C849 O858 1.268 . S
C849 O859 1.253 . S
C850 O860 1.281 . S
C850 O861 1.252 . S
C851 O862 1.272 . S
C851 O863 1.245 . S
C852 O840 1.259 . S
C852 O841 1.257 . S
C853 O842 1.253 . S
C853 O843 1.268 . S
C854 O844 1.281 . S
C854 O845 1.252 . S
C855 O846 1.272 . S
C855 O847 1.245 . S
O856 Co832 2.053 . S
O856 C848 1.259 . S
O857 Co834 2.047 . S
O857 C848 1.257 . S
O858 Co833 2.063 . S
O858 C849 1.268 . S
O859 Co832 2.094 . S
O859 C849 1.253 . S
O860 Co839 2.115 . S
O860 C850 1.281 . S
O861 Co839 2.315 . S
O861 C850 1.252 . S
O862 Co832 2.122 . S
O862 C851 1.272 . S
O863 Co834 2.113 . S
O863 C851 1.245 . S
Co864 H867 2.400 . S
Co864 O868 2.009 . S
Co864 O876 2.115 . S
Co864 O877 2.315 . S
Co864 O888 2.053 . S
Co864 O891 2.094 . S
Co864 O894 2.122 . S
Co865 O868 2.126 . S
Co865 H869 2.388 . S
Co865 O870 2.053 . S
Co865 O873 2.047 . S
Co865 O879 2.113 . S
Co865 O890 2.063 . S
Co866 H867 2.388 . S
Co866 O868 2.053 . S
Co866 O870 2.126 . S
Co866 O875 2.063 . S
Co866 O889 2.047 . S
Co866 O895 2.113 . S
H867 Co864 2.400 . S
H867 Co866 2.388 . S
H867 O868 0.760 . S
O868 Co864 2.009 . S
O868 Co865 2.126 . S
O868 Co866 2.053 . S
O868 H867 0.760 . S
H869 Co865 2.388 . S
H869 O870 0.760 . S
H869 Co871 2.400 . S
O870 Co865 2.053 . S
O870 Co866 2.126 . S
O870 H869 0.760 . S
O870 Co871 2.009 . S
Co871 H869 2.400 . S
Co871 O870 2.009 . S
Co871 O872 2.053 . S
Co871 O874 2.094 . S
Co871 O878 2.122 . S
Co871 O892 2.115 . S
Co871 O893 2.315 . S
O872 Co871 2.053 . S
O872 C884 1.259 . S
O873 Co865 2.047 . S
O873 C884 1.257 . S
O874 Co871 2.094 . S
O874 C885 1.253 . S
O875 Co866 2.063 . S
O875 C885 1.268 . S
O876 Co864 2.115 . S
O876 C886 1.281 . S
O877 Co864 2.315 . S
O877 C886 1.252 . S
O878 Co871 2.122 . S
O878 C887 1.272 . S
O879 Co865 2.113 . S
O879 C887 1.245 . S
C880 O888 1.259 . S
C880 O889 1.257 . S
C881 O890 1.268 . S
C881 O891 1.253 . S
C882 O892 1.281 . S
C882 O893 1.252 . S
C883 O894 1.272 . S
C883 O895 1.245 . S
C884 O872 1.259 . S
C884 O873 1.257 . S
C885 O874 1.253 . S
C885 O875 1.268 . S
C886 O876 1.281 . S
C886 O877 1.252 . S
C887 O878 1.272 . S
C887 O879 1.245 . S
O888 Co864 2.053 . S
O888 C880 1.259 . S
O889 Co866 2.047 . S
O889 C880 1.257 . S
O890 Co865 2.063 . S
O890 C881 1.268 . S
O891 Co864 2.094 . S
O891 C881 1.253 . S
O892 Co871 2.115 . S
O892 C882 1.281 . S
O893 Co871 2.315 . S
O893 C882 1.252 . S
O894 Co864 2.122 . S
O894 C883 1.272 . S
O895 Co866 2.113 . S
O895 C883 1.245 . S
Co896 H899 2.400 1_556 S
Co896 O900 2.009 . S
Co896 O908 2.115 . S
Co896 O909 2.315 1_556 S
Co896 O920 2.053 . S
Co896 O923 2.094 . S
Co896 O926 2.122 . S
Co897 O900 2.126 . S
Co897 H901 2.388 . S
Co897 O902 2.053 . S
Co897 O905 2.047 . S
Co897 O911 2.113 1_556 S
Co897 O922 2.063 . S
Co898 H899 2.388 1_556 S
Co898 O900 2.053 . S
Co898 O902 2.126 . S
Co898 O907 2.063 . S
Co898 O921 2.047 1_556 S
Co898 O927 2.113 . S
H899 Co896 2.400 1_554 S
H899 Co898 2.388 1_554 S
H899 O900 0.760 1_554 S
O900 Co896 2.009 . S
O900 Co897 2.126 . S
O900 Co898 2.053 . S
O900 H899 0.760 1_556 S
H901 Co897 2.388 . S
H901 O902 0.760 . S
H901 Co903 2.400 . S
O902 Co897 2.053 . S
O902 Co898 2.126 . S
O902 H901 0.760 . S
O902 Co903 2.009 . S
Co903 H901 2.400 . S
Co903 O902 2.009 . S
Co903 O904 2.053 . S
Co903 O906 2.094 1_556 S
Co903 O910 2.122 1_556 S
Co903 O924 2.115 1_556 S
Co903 O925 2.315 . S
O904 Co903 2.053 . S
O904 C916 1.259 . S
O905 Co897 2.047 . S
O905 C916 1.257 . S
O906 Co903 2.094 1_554 S
O906 C917 1.253 . S
O907 Co898 2.063 . S
O907 C917 1.268 1_556 S
O908 Co896 2.115 . S
O908 C918 1.281 . S
O909 Co896 2.315 1_554 S
O909 C918 1.252 1_554 S
O910 Co903 2.122 1_554 S
O910 C919 1.272 . S
O911 Co897 2.113 1_554 S
O911 C919 1.245 . S
C912 O920 1.259 1_554 S
C912 O921 1.257 . S
C913 O922 1.268 . S
C913 O923 1.253 . S
C914 O924 1.281 1_556 S
C914 O925 1.252 . S
C915 O926 1.272 . S
C915 O927 1.245 . S
C916 O904 1.259 . S
C916 O905 1.257 . S
C917 O906 1.253 . S
C917 O907 1.268 1_554 S
C918 O908 1.281 . S
C918 O909 1.252 1_556 S
C919 O910 1.272 . S
C919 O911 1.245 . S
O920 Co896 2.053 . S
O920 C912 1.259 1_556 S
O921 Co898 2.047 1_554 S
O921 C912 1.257 . S
O922 Co897 2.063 . S
O922 C913 1.268 . S
O923 Co896 2.094 . S
O923 C913 1.253 . S
O924 Co903 2.115 1_554 S
O924 C914 1.281 1_554 S
O925 Co903 2.315 . S
O925 C914 1.252 . S
O926 Co896 2.122 . S
O926 C915 1.272 . S
O927 Co898 2.113 . S
O927 C915 1.245 . S
Co928 H931 2.400 . S
Co928 O932 2.009 . S
Co928 O940 2.115 . S
Co928 O941 2.315 . S
Co928 O952 2.053 . S
Co928 O955 2.094 . S
Co928 O958 2.122 . S
Co929 O932 2.126 . S
Co929 H933 2.388 . S
Co929 O934 2.053 . S
Co929 O937 2.047 . S
Co929 O943 2.113 1_556 S
Co929 O954 2.063 . S
Co930 H931 2.388 . S
Co930 O932 2.053 . S
Co930 O934 2.126 . S
Co930 O939 2.063 . S
Co930 O953 2.047 . S
Co930 O959 2.113 . S
H931 Co928 2.400 . S
H931 Co930 2.388 . S
H931 O932 0.760 . S
O932 Co928 2.009 . S
O932 Co929 2.126 . S
O932 Co930 2.053 . S
O932 H931 0.760 . S
H933 Co929 2.388 . S
H933 O934 0.760 . S
H933 Co935 2.400 1_556 S
O934 Co929 2.053 . S
O934 Co930 2.126 . S
O934 H933 0.760 . S
O934 Co935 2.009 1_556 S
Co935 H933 2.400 1_554 S
Co935 O934 2.009 1_554 S
Co935 O936 2.053 1_554 S
Co935 O938 2.094 . S
Co935 O942 2.122 . S
Co935 O956 2.115 . S
Co935 O957 2.315 1_554 S
O936 Co935 2.053 1_556 S
O936 C948 1.259 . S
O937 Co929 2.047 . S
O937 C948 1.257 . S
O938 Co935 2.094 . S
O938 C949 1.253 . S
O939 Co930 2.063 . S
O939 C949 1.268 1_556 S
O940 Co928 2.115 . S
O940 C950 1.281 . S
O941 Co928 2.315 . S
O941 C950 1.252 . S
O942 Co935 2.122 . S
O942 C951 1.272 . S
O943 Co929 2.113 1_554 S
O943 C951 1.245 . S
C944 O952 1.259 . S
C944 O953 1.257 . S
C945 O954 1.268 . S
C945 O955 1.253 . S
C946 O956 1.281 . S
C946 O957 1.252 1_554 S
C947 O958 1.272 . S
C947 O959 1.245 . S
C948 O936 1.259 . S
C948 O937 1.257 . S
C949 O938 1.253 . S
C949 O939 1.268 1_554 S
C950 O940 1.281 . S
C950 O941 1.252 . S
C951 O942 1.272 . S
C951 O943 1.245 . S
O952 Co928 2.053 . S
O952 C944 1.259 . S
O953 Co930 2.047 . S
O953 C944 1.257 . S
O954 Co929 2.063 . S
O954 C945 1.268 . S
O955 Co928 2.094 . S
O955 C945 1.253 . S
O956 Co935 2.115 . S
O956 C946 1.281 . S
O957 Co935 2.315 1_556 S
O957 C946 1.252 1_556 S
O958 Co928 2.122 . S
O958 C947 1.272 . S
O959 Co930 2.113 . S
O959 C947 1.245 . S
Co960 H963 2.400 . S
Co960 O964 2.009 . S
Co960 O972 2.115 . S
Co960 O973 2.315 . S
Co960 O984 2.053 . S
Co960 O987 2.094 . S
Co960 O990 2.122 . S
Co961 O964 2.126 . S
Co961 H965 2.388 . S
Co961 O966 2.053 . S
Co961 O969 2.047 . S
Co961 O975 2.113 . S
Co961 O986 2.063 . S
Co962 H963 2.388 . S
Co962 O964 2.053 . S
Co962 O966 2.126 . S
Co962 O971 2.063 . S
Co962 O985 2.047 . S
Co962 O991 2.113 . S
H963 Co960 2.400 . S
H963 Co962 2.388 . S
H963 O964 0.760 . S
O964 Co960 2.009 . S
O964 Co961 2.126 . S
O964 Co962 2.053 . S
O964 H963 0.760 . S
H965 Co961 2.388 . S
H965 O966 0.760 . S
H965 Co967 2.400 . S
O966 Co961 2.053 . S
O966 Co962 2.126 . S
O966 H965 0.760 . S
O966 Co967 2.009 . S
Co967 H965 2.400 . S
Co967 O966 2.009 . S
Co967 O968 2.053 . S
Co967 O970 2.094 . S
Co967 O974 2.122 . S
Co967 O988 2.115 . S
Co967 O989 2.315 . S
O968 Co967 2.053 . S
O968 C980 1.259 . S
O969 Co961 2.047 . S
O969 C980 1.257 . S
O970 Co967 2.094 . S
O970 C981 1.253 . S
O971 Co962 2.063 . S
O971 C981 1.268 . S
O972 Co960 2.115 . S
O972 C982 1.281 . S
O973 Co960 2.315 . S
O973 C982 1.252 . S
O974 Co967 2.122 . S
O974 C983 1.272 . S
O975 Co961 2.113 . S
O975 C983 1.245 . S
C976 O984 1.259 . S
C976 O985 1.257 . S
C977 O986 1.268 . S
C977 O987 1.253 . S
C978 O988 1.281 . S
C978 O989 1.252 . S
C979 O990 1.272 . S
C979 O991 1.245 . S
C980 O968 1.259 . S
C980 O969 1.257 . S
C981 O970 1.253 . S
C981 O971 1.268 . S
C982 O972 1.281 . S
C982 O973 1.252 . S
C983 O974 1.272 . S
C983 O975 1.245 . S
O984 Co960 2.053 . S
O984 C976 1.259 . S
O985 Co962 2.047 . S
O985 C976 1.257 . S
O986 Co961 2.063 . S
O986 C977 1.268 . S
O987 Co960 2.094 . S
O987 C977 1.253 . S
O988 Co967 2.115 . S
O988 C978 1.281 . S
O989 Co967 2.315 . S
O989 C978 1.252 . S
O990 Co960 2.122 . S
O990 C979 1.272 . S
O991 Co962 2.113 . S
O991 C979 1.245 . S
Co992 H995 2.400 . S
Co992 O996 2.009 . S
Co992 O1004 2.115 . S
Co992 O1005 2.315 . S
Co992 O1016 2.053 . S
Co992 O1019 2.094 . S
Co992 O1022 2.122 . S
Co993 O996 2.126 . S
Co993 H997 2.388 . S
Co993 O998 2.053 . S
Co993 O1001 2.047 . S
Co993 O1007 2.113 . S
Co993 O1018 2.063 . S
Co994 H995 2.388 . S
Co994 O996 2.053 . S
Co994 O998 2.126 . S
Co994 O1003 2.063 . S
Co994 O1017 2.047 . S
Co994 O1023 2.113 . S
H995 Co992 2.400 . S
H995 Co994 2.388 . S
H995 O996 0.760 . S
O996 Co992 2.009 . S
O996 Co993 2.126 . S
O996 Co994 2.053 . S
O996 H995 0.760 . S
H997 Co993 2.388 . S
H997 O998 0.760 . S
H997 Co999 2.400 . S
O998 Co993 2.053 . S
O998 Co994 2.126 . S
O998 H997 0.760 . S
O998 Co999 2.009 . S
Co999 H997 2.400 . S
Co999 O998 2.009 . S
Co999 O1000 2.053 . S
Co999 O1002 2.094 . S
Co999 O1006 2.122 . S
Co999 O1020 2.115 . S
Co999 O1021 2.315 . S
O1000 Co999 2.053 . S
O1000 C1012 1.259 . S
O1001 Co993 2.047 . S
O1001 C1012 1.257 . S
O1002 Co999 2.094 . S
O1002 C1013 1.253 . S
O1003 Co994 2.063 . S
O1003 C1013 1.268 . S
O1004 Co992 2.115 . S
O1004 C1014 1.281 . S
O1005 Co992 2.315 . S
O1005 C1014 1.252 . S
O1006 Co999 2.122 . S
O1006 C1015 1.272 . S
O1007 Co993 2.113 . S
O1007 C1015 1.245 . S
C1008 O1016 1.259 . S
C1008 O1017 1.257 . S
C1009 O1018 1.268 . S
C1009 O1019 1.253 . S
C1010 O1020 1.281 . S
C1010 O1021 1.252 . S
C1011 O1022 1.272 . S
C1011 O1023 1.245 . S
C1012 O1000 1.259 . S
C1012 O1001 1.257 . S
C1013 O1002 1.253 . S
C1013 O1003 1.268 . S
C1014 O1004 1.281 . S
C1014 O1005 1.252 . S
C1015 O1006 1.272 . S
C1015 O1007 1.245 . S
O1016 Co992 2.053 . S
O1016 C1008 1.259 . S
O1017 Co994 2.047 . S
O1017 C1008 1.257 . S
O1018 Co993 2.063 . S
O1018 C1009 1.268 . S
O1019 Co992 2.094 . S
O1019 C1009 1.253 . S
O1020 Co999 2.115 . S
O1020 C1010 1.281 . S
O1021 Co999 2.315 . S
O1021 C1010 1.252 . S
O1022 Co992 2.122 . S
O1022 C1011 1.272 . S
O1023 Co994 2.113 . S
O1023 C1011 1.245 . S
C822 C17 2.037 . S
C54 C785 2.037 . S
C881 C81 2.533 . S
C113 C849 2.529 . S
C946 C149 2.037 . S
C178 C917 2.037 . S
C1013 C213 2.533 . S
C245 C981 2.529 . S
C273 C566 2.037 . S
C310 C529 2.037 . S
C625 C337 2.533 . S
C369 C593 2.529 . S
C405 C690 2.037 . S
C661 C434 2.037 . S
C757 C469 2.533 . S
C725 C501 2.529 . S
C948 C18 2.204 1_556 S
C52 C146 2.264 1_554 S
C82 C754 1.456 . S
C114 C466 2.162 . S
C816 C150 2.204 1_554 S
C22 C176 2.264 1_554 S
C630 C214 1.456 . S
C246 C342 2.162 . S
C692 C274 2.204 . S
C402 C308 2.264 . S
C338 C1010 1.456 . S
C210 C370 2.162 . S
C560 C406 2.204 . S
C432 C278 2.264 . S
C470 C886 1.456 . S
C502 C86 2.162 . S
C530 C436 2.204 . S
C658 C564 2.263 . S
C242 C594 1.459 . S
C978 C626 2.161 . S
C662 C304 2.204 . S
C688 C534 2.263 . S
C726 C118 1.459 . S
C758 C854 2.161 . S
C180 C786 2.204 1_556 S
C914 C820 2.263 1_556 S
C498 C850 1.459 . S
C882 C722 2.161 . S
C918 C48 2.204 1_556 S
C944 C790 2.263 1_556 S
C982 C374 1.459 . S
C1014 C598 2.161 . S
C211 C19 1.343 1_455 S
C51 C1011 1.635 . S
C403 C83 1.572 1_655 S
C691 C115 1.667 . S
C87 C151 1.343 1_655 S
C183 C887 1.635 . S
C279 C215 1.572 1_455 S
C247 C567 1.667 . S
C275 C467 1.343 1_655 S
C755 C307 1.635 . S
C339 C147 1.572 1_455 S
C947 C371 1.667 . S
C407 C343 1.343 1_455 S
C631 C439 1.635 . S
C471 C23 1.572 1_655 S
C823 C503 1.667 . S
C531 C723 1.345 . S
C563 C499 1.635 . S
C915 C595 1.570 . S
C627 C179 1.667 . S
C599 C663 1.345 . S
C695 C375 1.635 . S
C791 C727 1.570 . S
C759 C55 1.667 . S
C979 C787 1.345 . S
C819 C243 1.635 . S
C851 C659 1.570 . S
C883 C435 1.667 . S
C855 C919 1.345 . S
C951 C119 1.635 . S
C535 C983 1.570 . S
C1015 C311 1.667 . S
C117 C21 2.182 . S
C85 C50 1.740 . S
C145 C241 2.182 . S
C209 C182 1.740 . S
C373 C277 2.182 . S
C306 C341 1.740 . S
C497 C401 2.182 . S
C465 C438 1.740 . S
C533 C629 2.182 . S
C597 C562 1.743 . S
C657 C753 2.182 . S
C721 C694 1.743 . S
C885 C789 2.182 . S
C818 C853 1.743 . S
C913 C1009 2.182 . S
C950 C977 1.743 . S
C20 C144 1.705 1_456 S
C949 C49 3.030 1_554 S
C464 C84 1.350 1_655 S
C752 C116 1.076 . S
C817 C181 3.030 1_556 S
C340 C208 1.350 1_455 S
C240 C628 1.076 . S
C400 C276 1.705 1_645 S
C305 C693 3.030 . S
C372 C1008 1.076 1_565 S
C437 C561 3.030 . S
C884 C496 1.076 1_565 S
C656 C532 1.705 . S
C976 C596 1.350 . S
C720 C852 1.350 . S
C912 C788 1.705 1_544 S
C80 C16 1.975 . S
C112 C53 1.980 . S
C148 C212 1.975 . S
C177 C244 1.980 . S
C336 C272 1.975 . S
C368 C309 1.980 . S
C404 C468 1.975 . S
C500 C433 1.980 . S
C592 C528 1.975 . S
C565 C624 1.980 . S
C724 C660 1.975 . S
C689 C756 1.980 . S
C784 C848 1.975 . S
C821 C880 1.980 . S
C980 C916 1.975 . S
C1012 C945 1.980 . S
