# Generated by pormake.
# Topology zfo, (5)-cn, num edge types: 1
# Building blocks:
#     Node 0, Type 0, BuildingBlock: XOMCOT_clean_sbu_1, # of connection points: 5
#     Node 1, Type 0, BuildingBlock: XOMCOT_clean_sbu_1, # of connection points: 5
#     Node 2, Type 0, BuildingBlock: XOMCOT_clean_sbu_1, # of connection points: 5
#     Node 3, Type 0, BuildingBlock: XOMCOT_clean_sbu_1, # of connection points: 5
#     Node 4, Type 0, BuildingBlock: XOMCOT_clean_sbu_1, # of connection points: 5
#     Node 5, Type 0, BuildingBlock: XOMCOT_clean_sbu_1, # of connection points: 5
#     Node 6, Type 0, BuildingBlock: XOMCOT_clean_sbu_1, # of connection points: 5
#     Node 7, Type 0, BuildingBlock: XOMCOT_clean_sbu_1, # of connection points: 5
#     Node 8, Type 0, BuildingBlock: XOMCOT_clean_sbu_1, # of connection points: 5
#     Node 9, Type 0, BuildingBlock: XOMCOT_clean_sbu_1, # of connection points: 5
#     Node 10, Type 0, BuildingBlock: XOMCOT_clean_sbu_1, # of connection points: 5
#     Node 11, Type 0, BuildingBlock: XOMCOT_clean_sbu_1, # of connection points: 5
#     Node 12, Type 0, BuildingBlock: XOMCOT_clean_sbu_1, # of connection points: 5
#     Node 13, Type 0, BuildingBlock: XOMCOT_clean_sbu_1, # of connection points: 5
#     Node 14, Type 0, BuildingBlock: XOMCOT_clean_sbu_1, # of connection points: 5
#     Node 15, Type 0, BuildingBlock: XOMCOT_clean_sbu_1, # of connection points: 5
#     Edge 16, Type (0, 0), BuildingBlock: UVAHIK_clean_linker_0, # of connection points: 2
#     Edge 17, Type (0, 0), BuildingBlock: UVAHIK_clean_linker_0, # of connection points: 2
#     Edge 18, Type (0, 0), BuildingBlock: UVAHIK_clean_linker_0, # of connection points: 2
#     Edge 19, Type (0, 0), BuildingBlock: UVAHIK_clean_linker_0, # of connection points: 2
#     Edge 20, Type (0, 0), BuildingBlock: UVAHIK_clean_linker_0, # of connection points: 2
#     Edge 21, Type (0, 0), BuildingBlock: UVAHIK_clean_linker_0, # of connection points: 2
#     Edge 22, Type (0, 0), BuildingBlock: UVAHIK_clean_linker_0, # of connection points: 2
#     Edge 23, Type (0, 0), BuildingBlock: UVAHIK_clean_linker_0, # of connection points: 2
#     Edge 24, Type (0, 0), BuildingBlock: UVAHIK_clean_linker_0, # of connection points: 2
#     Edge 25, Type (0, 0), BuildingBlock: UVAHIK_clean_linker_0, # of connection points: 2
#     Edge 26, Type (0, 0), BuildingBlock: UVAHIK_clean_linker_0, # of connection points: 2
#     Edge 27, Type (0, 0), BuildingBlock: UVAHIK_clean_linker_0, # of connection points: 2
#     Edge 28, Type (0, 0), BuildingBlock: UVAHIK_clean_linker_0, # of connection points: 2
#     Edge 29, Type (0, 0), BuildingBlock: UVAHIK_clean_linker_0, # of connection points: 2
#     Edge 30, Type (0, 0), BuildingBlock: UVAHIK_clean_linker_0, # of connection points: 2
#     Edge 31, Type (0, 0), BuildingBlock: UVAHIK_clean_linker_0, # of connection points: 2
#     Edge 32, Type (0, 0), BuildingBlock: UVAHIK_clean_linker_0, # of connection points: 2
#     Edge 33, Type (0, 0), BuildingBlock: UVAHIK_clean_linker_0, # of connection points: 2
#     Edge 34, Type (0, 0), BuildingBlock: UVAHIK_clean_linker_0, # of connection points: 2
#     Edge 35, Type (0, 0), BuildingBlock: UVAHIK_clean_linker_0, # of connection points: 2
#     Edge 36, Type (0, 0), BuildingBlock: UVAHIK_clean_linker_0, # of connection points: 2
#     Edge 37, Type (0, 0), BuildingBlock: UVAHIK_clean_linker_0, # of connection points: 2
#     Edge 38, Type (0, 0), BuildingBlock: UVAHIK_clean_linker_0, # of connection points: 2
#     Edge 39, Type (0, 0), BuildingBlock: UVAHIK_clean_linker_0, # of connection points: 2
#     Edge 40, Type (0, 0), BuildingBlock: UVAHIK_clean_linker_0, # of connection points: 2
#     Edge 41, Type (0, 0), BuildingBlock: UVAHIK_clean_linker_0, # of connection points: 2
#     Edge 42, Type (0, 0), BuildingBlock: UVAHIK_clean_linker_0, # of connection points: 2
#     Edge 43, Type (0, 0), BuildingBlock: UVAHIK_clean_linker_0, # of connection points: 2
#     Edge 44, Type (0, 0), BuildingBlock: UVAHIK_clean_linker_0, # of connection points: 2
#     Edge 45, Type (0, 0), BuildingBlock: UVAHIK_clean_linker_0, # of connection points: 2
#     Edge 46, Type (0, 0), BuildingBlock: UVAHIK_clean_linker_0, # of connection points: 2
#     Edge 47, Type (0, 0), BuildingBlock: UVAHIK_clean_linker_0, # of connection points: 2
#     Edge 48, Type (0, 0), BuildingBlock: UVAHIK_clean_linker_0, # of connection points: 2
#     Edge 49, Type (0, 0), BuildingBlock: UVAHIK_clean_linker_0, # of connection points: 2
#     Edge 50, Type (0, 0), BuildingBlock: UVAHIK_clean_linker_0, # of connection points: 2
#     Edge 51, Type (0, 0), BuildingBlock: UVAHIK_clean_linker_0, # of connection points: 2
#     Edge 52, Type (0, 0), BuildingBlock: UVAHIK_clean_linker_0, # of connection points: 2
#     Edge 53, Type (0, 0), BuildingBlock: UVAHIK_clean_linker_0, # of connection points: 2
#     Edge 54, Type (0, 0), BuildingBlock: UVAHIK_clean_linker_0, # of connection points: 2
#     Edge 55, Type (0, 0), BuildingBlock: UVAHIK_clean_linker_0, # of connection points: 2
# Relax obj value: 0.173
# Max RMSD: 0.150
# Mean RMSD: 0.150
data_MOF--net-zfo--node1-XOMCOT_clean_sbu_1--edge1-UVAHIK_clean_linker_0
_symmetry_space_group_name_H-M    P1
_symmetry_Int_Tables_number       1
_symmetry_cell_setting            triclinic
loop_
_symmetry_equiv_pos_as_xyz
'x, y, z'
_cell_length_a     43.936607
_cell_length_b     43.955159
_cell_length_c     66.491206
_cell_angle_alpha  89.975819
_cell_angle_beta   90.017285
_cell_angle_gamma 90.172878
loop_
_atom_site_label
_atom_site_type_symbol
_atom_site_fract_x
_atom_site_fract_y
_atom_site_fract_z
_atom_type_partial_charge
C0 C 0.00673 0.2602 0.17651 0.0
C1 C 0.97573 0.26029 0.17932 0.0
N2 N 0.96234 0.26463 0.16132 0.0
N3 N 0.0128 0.26456 0.15687 0.0
C4 C 0.98534 0.26719 0.14796 0.0
H5 H 0.02386 0.25713 0.18801 0.0
Co6 Co 0.05176 0.2667 0.14669 0.0
C7 C 0.04653 0.27659 0.10311 0.0
O8 O 0.0679 0.25601 0.10084 0.0
N9 N 0.0922 0.26976 0.13703 0.0
C10 C 0.13348 0.29101 0.12344 0.0
C11 C 0.10305 0.29457 0.12728 0.0
C12 C 0.11703 0.252 0.13969 0.0
N13 N 0.1422 0.26429 0.13131 0.0
O14 O 0.05528 0.30701 0.15754 0.0
H15 H 0.08971 0.31441 0.12352 0.0
H16 H 0.11721 0.23096 0.14804 0.0
O17 O 0.03659 0.28305 0.12073 0.0
C18 C 0.07247 0.30799 0.17297 0.0
O19 O 0.08647 0.28311 0.17874 0.0
N20 N 0.04781 0.2259 0.13818 0.0
C21 C 0.03753 0.16336 0.13391 0.0
C22 C 0.02291 0.1843 0.1213 0.0
C23 C 0.02777 0.21547 0.12398 0.0
C24 C 0.06144 0.20586 0.15093 0.0
C25 C 0.05714 0.17454 0.14884 0.0
H26 H 0.01402 0.23096 0.11533 0.0
H27 H 0.07462 0.21431 0.16348 0.0
H28 H 0.98218 0.27115 0.13204 0.0
H29 H 0.96396 0.25685 0.19344 0.0
H30 H 0.14839 0.3074 0.11628 0.0
H31 H 0.00651 0.17679 0.11018 0.0
H32 H 0.06847 0.15928 0.15919 0.0
C33 C 0.76242 0.998 0.67721 0.0
C34 C 0.75791 0.96793 0.68221 0.0
N35 N 0.73986 0.95526 0.66813 0.0
N36 N 0.74723 0.00426 0.66008 0.0
C37 C 0.73334 0.97784 0.65508 0.0
H38 H 0.77694 0.01396 0.68507 0.0
Co39 Co 0.74834 0.04148 0.6464 0.0
C40 C 0.73498 0.01159 0.60609 0.0
O41 O 0.76371 0.00945 0.6011 0.0
N42 N 0.7485 0.07926 0.63287 0.0
C43 C 0.7537 0.11515 0.60953 0.0
C44 C 0.75375 0.08444 0.61315 0.0
C45 C 0.74532 0.10737 0.64089 0.0
N46 N 0.74844 0.1297 0.627 0.0
O47 O 0.70971 0.05121 0.65835 0.0
H48 H 0.75884 0.06729 0.60211 0.0
H49 H 0.74133 0.11138 0.6567 0.0
O50 O 0.72708 0.02369 0.62281 0.0
C51 C 0.71466 0.06044 0.67625 0.0
O52 O 0.74305 0.06437 0.68195 0.0
N53 N 0.78869 0.03254 0.63696 0.0
C54 C 0.85092 0.02171 0.63006 0.0
C55 C 0.82974 0.99776 0.62998 0.0
C56 C 0.79899 0.00358 0.6336 0.0
C57 C 0.80935 0.05584 0.6379 0.0
C58 C 0.84013 0.05114 0.63387 0.0
H59 H 0.78354 0.98448 0.63361 0.0
H60 H 0.80248 0.07833 0.64247 0.0
H61 H 0.71976 0.97472 0.64167 0.0
H62 H 0.76856 0.95588 0.69453 0.0
H63 H 0.75856 0.12585 0.59523 0.0
H64 H 0.83683 0.97444 0.62777 0.0
H65 H 0.85532 0.07055 0.63418 0.0
C66 C 0.00931 0.7617 0.17291 0.0
C67 C 0.04024 0.76343 0.17556 0.0
N68 N 0.05376 0.74916 0.16005 0.0
N69 N 0.00319 0.74616 0.15591 0.0
C70 C 0.03081 0.73893 0.14827 0.0
H71 H 0.99227 0.77153 0.18265 0.0
Co72 Co 0.96361 0.73908 0.14699 0.0
C73 C 0.9676 0.72975 0.10344 0.0
O74 O 0.94454 0.74857 0.10191 0.0
N75 N 0.9231 0.73106 0.13856 0.0
C76 C 0.88454 0.7036 0.12645 0.0
C77 C 0.91521 0.70425 0.13006 0.0
C78 C 0.89629 0.74605 0.1404 0.0
N79 N 0.87246 0.72989 0.13303 0.0
O80 O 0.9644 0.69917 0.15894 0.0
H81 H 0.93092 0.68604 0.12672 0.0
H82 H 0.89386 0.76787 0.14756 0.0
O83 O 0.97873 0.72344 0.12079 0.0
C84 C 0.95636 0.70162 0.17731 0.0
O85 O 0.94996 0.72883 0.18427 0.0
N86 N 0.96281 0.77962 0.13765 0.0
C87 C 0.96777 0.84271 0.13281 0.0
C88 C 0.98509 0.82286 0.12095 0.0
C89 C 0.98286 0.79145 0.12395 0.0
C90 C 0.94654 0.79867 0.14967 0.0
C91 C 0.94806 0.83016 0.1472 0.0
H92 H 0.99873 0.77698 0.11615 0.0
H93 H 0.93376 0.78949 0.16217 0.0
H94 H 0.03409 0.72635 0.13446 0.0
H95 H 0.05195 0.77488 0.18774 0.0
H96 H 0.87225 0.68505 0.11947 0.0
H97 H 0.00166 0.83153 0.11032 0.0
H98 H 0.93474 0.84455 0.15703 0.0
C99 C 0.26423 0.0016 0.68015 0.0
C100 C 0.2637 0.0326 0.68282 0.0
N101 N 0.2697 0.04591 0.66501 0.0
N102 N 0.27068 0.99538 0.66079 0.0
C103 C 0.27391 0.02285 0.65189 0.0
H104 H 0.26006 0.98457 0.69158 0.0
Co105 Co 0.27407 0.95608 0.65104 0.0
C106 C 0.2877 0.96036 0.60796 0.0
O107 O 0.26749 0.93862 0.60533 0.0
N108 N 0.27842 0.91538 0.64191 0.0
C109 C 0.30141 0.87449 0.62921 0.0
C110 C 0.30451 0.9048 0.63367 0.0
C111 C 0.26027 0.89045 0.64306 0.0
N112 N 0.27361 0.86554 0.63518 0.0
O113 O 0.31311 0.95307 0.66379 0.0
H114 H 0.32473 0.91836 0.63112 0.0
H115 H 0.23792 0.88999 0.64973 0.0
O116 O 0.29281 0.97093 0.62564 0.0
C117 C 0.31109 0.93759 0.67995 0.0
O118 O 0.28473 0.92557 0.6849 0.0
N119 N 0.23426 0.95938 0.64062 0.0
C120 C 0.17256 0.96687 0.63208 0.0
C121 C 0.19458 0.98349 0.62153 0.0
C122 C 0.22534 0.9797 0.62618 0.0
C123 C 0.21288 0.94455 0.65181 0.0
C124 C 0.18194 0.94716 0.64739 0.0
H125 H 0.24163 0.99416 0.61869 0.0
H126 H 0.21981 0.9315 0.66479 0.0
H127 H 0.27938 0.02598 0.63616 0.0
H128 H 0.25858 0.04444 0.69668 0.0
H129 H 0.31861 0.85987 0.62273 0.0
H130 H 0.18802 0.99975 0.61008 0.0
H131 H 0.16543 0.93504 0.65649 0.0
C132 C 0.49653 0.23203 0.83196 0.0
C133 C 0.46556 0.23142 0.8292 0.0
N134 N 0.45236 0.22541 0.84704 0.0
N135 N 0.5029 0.22613 0.8514 0.0
C136 C 0.47547 0.22237 0.86029 0.0
H137 H 0.51336 0.23676 0.82053 0.0
Co138 Co 0.54235 0.22437 0.86131 0.0
C139 C 0.53739 0.22052 0.90527 0.0
O140 O 0.55886 0.24138 0.90598 0.0
N141 N 0.58294 0.22169 0.87073 0.0
C142 C 0.62355 0.20128 0.88557 0.0
C143 C 0.59326 0.19748 0.88127 0.0
C144 C 0.60795 0.2394 0.86818 0.0
N145 N 0.63275 0.22764 0.8773 0.0
O146 O 0.54528 0.18322 0.85199 0.0
H147 H 0.57952 0.17806 0.88554 0.0
H148 H 0.60845 0.26035 0.85975 0.0
O149 O 0.52756 0.21101 0.8882 0.0
C150 C 0.55718 0.18414 0.83451 0.0
O151 O 0.56578 0.21055 0.82718 0.0
N152 N 0.53931 0.2659 0.86794 0.0
C153 C 0.53244 0.32892 0.87013 0.0
C154 C 0.51641 0.30975 0.88325 0.0
C155 C 0.51938 0.27824 0.88146 0.0
C156 C 0.55374 0.28425 0.85442 0.0
C157 C 0.55109 0.31581 0.85545 0.0
H158 H 0.50466 0.26399 0.89042 0.0
H159 H 0.56657 0.27421 0.84226 0.0
H160 H 0.4724 0.21743 0.87611 0.0
H161 H 0.45362 0.23582 0.81526 0.0
H162 H 0.63797 0.18546 0.8936 0.0
H163 H 0.50061 0.319 0.89414 0.0
H164 H 0.56314 0.3298 0.84463 0.0
C165 C 0.73087 0.49822 0.33166 0.0
C166 C 0.72776 0.46727 0.33062 0.0
N167 N 0.74232 0.4548 0.34644 0.0
N168 N 0.74754 0.50557 0.34794 0.0
C169 C 0.7543 0.47864 0.35672 0.0
H170 H 0.7211 0.51449 0.32133 0.0
Co171 Co 0.75498 0.54595 0.35461 0.0
C172 C 0.76833 0.54845 0.39792 0.0
O173 O 0.75069 0.57253 0.39852 0.0
N174 N 0.76291 0.58741 0.36038 0.0
C175 C 0.7892 0.62866 0.36947 0.0
C176 C 0.7901 0.59763 0.36721 0.0
C177 C 0.74622 0.61305 0.35797 0.0
N178 N 0.7616 0.63828 0.36361 0.0
O179 O 0.79444 0.54373 0.34207 0.0
H180 H 0.80947 0.58331 0.37045 0.0
H181 H 0.7233 0.61366 0.35224 0.0
O182 O 0.7721 0.53415 0.38126 0.0
C183 C 0.79216 0.54861 0.32322 0.0
O184 O 0.76507 0.55363 0.31558 0.0
N185 N 0.715 0.54777 0.3648 0.0
C186 C 0.65225 0.54196 0.37104 0.0
C187 C 0.67305 0.52796 0.38408 0.0
C188 C 0.70429 0.53058 0.38046 0.0
C189 C 0.69503 0.56099 0.35181 0.0
C190 C 0.6637 0.55906 0.3549 0.0
H191 H 0.71947 0.5169 0.38941 0.0
H192 H 0.70343 0.57159 0.33822 0.0
H193 H 0.76699 0.47662 0.37059 0.0
H194 H 0.71572 0.45499 0.31896 0.0
H195 H 0.80765 0.64312 0.37456 0.0
H196 H 0.66528 0.5134 0.39619 0.0
H197 H 0.64858 0.56989 0.34423 0.0
C198 C 0.49432 0.75485 0.83707 0.0
C199 C 0.52438 0.76139 0.83324 0.0
N200 N 0.53695 0.77259 0.85017 0.0
N201 N 0.48786 0.76198 0.8563 0.0
C202 C 0.51423 0.77309 0.86386 0.0
H203 H 0.47846 0.74437 0.82672 0.0
Co204 Co 0.45008 0.75454 0.8682 0.0
C205 C 0.47435 0.75659 0.91126 0.0
O206 O 0.47633 0.72697 0.913 0.0
N207 N 0.41129 0.74758 0.87986 0.0
C208 C 0.3739 0.73223 0.90012 0.0
C209 C 0.40483 0.73478 0.89785 0.0
C210 C 0.38362 0.75248 0.87148 0.0
N211 N 0.36051 0.7433 0.88348 0.0
O212 O 0.43873 0.79551 0.8618 0.0
H213 H 0.42125 0.72656 0.90851 0.0
H214 H 0.38034 0.76149 0.85654 0.0
O215 O 0.46487 0.7687 0.89487 0.0
C216 C 0.42837 0.79716 0.84392 0.0
O217 O 0.42532 0.77207 0.83339 0.0
N218 N 0.46107 0.71308 0.87209 0.0
C219 C 0.47508 0.65106 0.87217 0.0
C220 C 0.49687 0.67266 0.8779 0.0
C221 C 0.48971 0.70357 0.87717 0.0
C222 C 0.4402 0.69225 0.86547 0.0
C223 C 0.44657 0.66117 0.86565 0.0
H224 H 0.50719 0.71974 0.88117 0.0
H225 H 0.41858 0.69964 0.85952 0.0
H226 H 0.51715 0.78017 0.87932 0.0
H227 H 0.53649 0.7566 0.81942 0.0
H228 H 0.36223 0.72268 0.913 0.0
H229 H 0.51951 0.66577 0.88244 0.0
H230 H 0.42933 0.6452 0.86066 0.0
C231 C 0.23028 0.50004 0.33521 0.0
C232 C 0.22934 0.53096 0.3322 0.0
N233 N 0.22717 0.54461 0.35028 0.0
N234 N 0.22855 0.49421 0.35506 0.0
C235 C 0.22673 0.52182 0.36391 0.0
H236 H 0.23208 0.48279 0.32368 0.0
Co237 Co 0.22823 0.45517 0.36539 0.0
C238 C 0.21978 0.46018 0.40904 0.0
O239 O 0.24116 0.43954 0.41101 0.0
N240 N 0.22703 0.41461 0.37522 0.0
C241 C 0.20769 0.37246 0.38889 0.0
C242 C 0.20282 0.40272 0.38507 0.0
C243 C 0.2459 0.39059 0.37263 0.0
N244 N 0.23476 0.36485 0.38099 0.0
O245 O 0.18764 0.45013 0.35519 0.0
H246 H 0.18246 0.41522 0.38891 0.0
H247 H 0.26697 0.39139 0.36434 0.0
O248 O 0.21237 0.4699 0.39153 0.0
C249 C 0.18692 0.43278 0.33985 0.0
O250 O 0.2122 0.41973 0.33385 0.0
N251 N 0.26915 0.46052 0.37313 0.0
C252 C 0.33173 0.47155 0.37624 0.0
C253 C 0.31115 0.48583 0.3893 0.0
C254 C 0.27991 0.48052 0.38723 0.0
C255 C 0.28876 0.44745 0.35987 0.0
C256 C 0.32008 0.45201 0.36143 0.0
H257 H 0.26459 0.49375 0.39634 0.0
H258 H 0.27989 0.43423 0.34747 0.0
H259 H 0.2248 0.5252 0.37997 0.0
H260 H 0.23071 0.54252 0.31785 0.0
H261 H 0.19189 0.35691 0.39604 0.0
H262 H 0.31896 0.50213 0.40038 0.0
H263 H 0.33496 0.44077 0.35081 0.0
C264 C 0.99486 0.76467 0.83137 0.0
C265 C 0.02585 0.76703 0.82935 0.0
N266 N 0.03902 0.75343 0.84529 0.0
N267 N 0.9883 0.7495 0.84843 0.0
C268 C 0.01567 0.74281 0.85661 0.0
H269 H 0.97809 0.77417 0.82128 0.0
Co270 Co 0.94857 0.74404 0.85743 0.0
C271 C 0.95268 0.73212 0.90085 0.0
O272 O 0.93023 0.75151 0.90306 0.0
N273 N 0.90775 0.73798 0.86576 0.0
C274 C 0.86693 0.71326 0.87728 0.0
C275 C 0.89778 0.7118 0.87422 0.0
C276 C 0.88207 0.75461 0.86325 0.0
N277 N 0.85705 0.7402 0.87033 0.0
O278 O 0.94743 0.70464 0.84494 0.0
H279 H 0.91207 0.69247 0.87764 0.0
H280 H 0.88124 0.77658 0.8561 0.0
O281 O 0.96318 0.72651 0.88324 0.0
C282 C 0.93903 0.70781 0.8267 0.0
O283 O 0.93248 0.73528 0.82024 0.0
N284 N 0.95001 0.78414 0.86753 0.0
C285 C 0.95894 0.8465 0.87376 0.0
C286 C 0.97462 0.82501 0.88536 0.0
C287 C 0.97044 0.79401 0.88166 0.0
C288 C 0.93533 0.80479 0.85575 0.0
C289 C 0.93882 0.83599 0.85891 0.0
H290 H 0.98533 0.77827 0.88922 0.0
H291 H 0.92242 0.7971 0.84288 0.0
H292 H 0.01843 0.73148 0.87093 0.0
H293 H 0.03769 0.77813 0.8171 0.0
H294 H 0.8527 0.69539 0.88342 0.0
H295 H 0.99154 0.83204 0.89627 0.0
H296 H 0.92679 0.85171 0.84923 0.0
C297 C 0.23703 0.00622 0.34552 0.0
C298 C 0.23807 0.03732 0.3439 0.0
N299 N 0.25845 0.04782 0.35732 0.0
N300 N 0.2569 0.99711 0.35975 0.0
C301 C 0.26951 0.02308 0.36685 0.0
H302 H 0.22308 0.99107 0.33659 0.0
Co303 Co 0.26477 0.95643 0.3652 0.0
C304 C 0.28311 0.95274 0.40774 0.0
O305 O 0.26689 0.92766 0.40909 0.0
N306 N 0.27335 0.91486 0.36989 0.0
C307 C 0.30102 0.87368 0.37667 0.0
C308 C 0.30142 0.90475 0.37487 0.0
C309 C 0.25646 0.88911 0.36824 0.0
N310 N 0.27272 0.86386 0.37248 0.0
O311 O 0.30287 0.95958 0.35134 0.0
H312 H 0.3211 0.91919 0.37715 0.0
H313 H 0.23276 0.8885 0.36406 0.0
O314 O 0.28406 0.96748 0.39111 0.0
C315 C 0.29897 0.95795 0.33238 0.0
O316 O 0.27108 0.95623 0.32535 0.0
N317 N 0.22591 0.95354 0.37678 0.0
C318 C 0.16374 0.95812 0.3847 0.0
C319 C 0.18512 0.97064 0.398 0.0
C320 C 0.21616 0.96879 0.3935 0.0
C321 C 0.2053 0.9413 0.36376 0.0
C322 C 0.17418 0.94289 0.36756 0.0
H323 H 0.23183 0.98156 0.40271 0.0
H324 H 0.21304 0.93183 0.34966 0.0
H325 H 0.28705 0.02386 0.37827 0.0
H326 H 0.22487 0.05122 0.33369 0.0
H327 H 0.32024 0.85934 0.38031 0.0
H328 H 0.17785 0.98361 0.41097 0.0
H329 H 0.15837 0.93342 0.35672 0.0
C330 C 0.991 0.24343 0.83761 0.0
C331 C 0.95979 0.24369 0.8367 0.0
N332 N 0.9494 0.26083 0.85198 0.0
N333 N 1.00027 0.26046 0.85332 0.0
C334 C 0.97438 0.27069 0.8619 0.0
H335 H 0.00607 0.23158 0.82745 0.0
Co336 Co 0.04096 0.26727 0.85925 0.0
C337 C 0.04483 0.28056 0.90244 0.0
O338 O 0.06907 0.26314 0.903 0.0
N339 N 0.08273 0.27492 0.86449 0.0
C340 C 0.12415 0.30143 0.87296 0.0
C341 C 0.09312 0.30234 0.87075 0.0
C342 C 0.10829 0.25795 0.86253 0.0
N343 N 0.13366 0.27349 0.86777 0.0
O344 O 0.03833 0.30672 0.8472 0.0
H345 H 0.07891 0.32189 0.87369 0.0
H346 H 0.10871 0.23466 0.8575 0.0
O347 O 0.03022 0.28404 0.88592 0.0
C348 C 0.04176 0.30494 0.82821 0.0
O349 O 0.04557 0.27795 0.82012 0.0
N350 N 0.04297 0.22726 0.86913 0.0
C351 C 0.03731 0.16446 0.87484 0.0
C352 C 0.02375 0.18495 0.88829 0.0
C353 C 0.02633 0.21627 0.88495 0.0
C354 C 0.05581 0.20763 0.85579 0.0
C355 C 0.05399 0.17627 0.85862 0.0
H356 H 0.01306 0.23131 0.89427 0.0
H357 H 0.06617 0.21637 0.84221 0.0
H358 H 0.97377 0.28542 0.87493 0.0
H359 H 0.94578 0.23179 0.82584 0.0
H360 H 0.13865 0.32009 0.87762 0.0
H361 H 0.00959 0.17691 0.90052 0.0
H362 H 0.06459 0.16142 0.8477 0.0
C363 C 0.75433 0.99947 0.33778 0.0
C364 C 0.74872 0.96959 0.33296 0.0
N365 N 0.73122 0.95744 0.34752 0.0
N366 N 0.74022 0.00626 0.35521 0.0
C367 C 0.72616 0.98015 0.36076 0.0
H368 H 0.76881 0.01498 0.32951 0.0
Co369 Co 0.74322 0.04405 0.36795 0.0
C370 C 0.73009 0.01909 0.40977 0.0
O371 O 0.75868 0.01968 0.41537 0.0
N372 N 0.74584 0.08272 0.38027 0.0
C373 C 0.75462 0.12074 0.40164 0.0
C374 C 0.75258 0.08978 0.39955 0.0
C375 C 0.74378 0.11007 0.37097 0.0
N376 N 0.74919 0.13352 0.38364 0.0
O377 O 0.7045 0.0549 0.3565 0.0
H378 H 0.75709 0.07383 0.4114 0.0
H379 H 0.73971 0.11274 0.35503 0.0
O380 O 0.72206 0.02817 0.39225 0.0
C381 C 0.70776 0.06236 0.33809 0.0
O382 O 0.73537 0.06397 0.3306 0.0
N383 N 0.783 0.0337 0.37706 0.0
C384 C 0.84413 0.02019 0.38503 0.0
C385 C 0.82141 0.99804 0.38747 0.0
C386 C 0.79119 0.005 0.38294 0.0
C387 C 0.8051 0.055 0.37368 0.0
C388 C 0.8356 0.04894 0.37786 0.0
H389 H 0.7743 0.98733 0.38467 0.0
H390 H 0.79938 0.07672 0.3671 0.0
H391 H 0.71351 0.97737 0.37459 0.0
H392 H 0.75825 0.95723 0.32038 0.0
H393 H 0.76005 0.1329 0.41534 0.0
H394 H 0.82683 0.97543 0.39283 0.0
H395 H 0.85245 0.06637 0.37483 0.0
C396 C 0.515 0.79214 0.16972 0.0
C397 C 0.54502 0.79946 0.16666 0.0
N398 N 0.55437 0.78571 0.1497 0.0
N399 N 0.50512 0.77399 0.15467 0.0
C400 C 0.52975 0.77061 0.14263 0.0
H401 H 0.50183 0.79887 0.18265 0.0
Co402 Co 0.4665 0.75558 0.15266 0.0
C403 C 0.45038 0.79708 0.1184 0.0
O404 O 0.4354 0.81668 0.12951 0.0
N405 N 0.42817 0.73717 0.15115 0.0
C406 C 0.39145 0.70415 0.15842 0.0
C407 C 0.42222 0.70946 0.15895 0.0
C408 C 0.40059 0.74836 0.14593 0.0
N409 N 0.37784 0.72865 0.1503 0.0
O410 O 0.44849 0.78997 0.16573 0.0
H411 H 0.43909 0.69465 0.16557 0.0
H412 H 0.39699 0.77123 0.14044 0.0
O413 O 0.4621 0.77349 0.12636 0.0
C414 C 0.4435 0.78477 0.18431 0.0
O415 O 0.4505 0.75783 0.19152 0.0
N416 N 0.48386 0.72073 0.14121 0.0
C417 C 0.50414 0.6635 0.12922 0.0
C418 C 0.48572 0.68105 0.11649 0.0
C419 C 0.47569 0.70961 0.12279 0.0
C420 C 0.50242 0.70442 0.15355 0.0
C421 C 0.51307 0.67584 0.14778 0.0
H422 H 0.46006 0.72197 0.11329 0.0
H423 H 0.50799 0.71317 0.16831 0.0
H424 H 0.52994 0.7566 0.12925 0.0
H425 H 0.55936 0.81243 0.17678 0.0
H426 H 0.37981 0.68429 0.16427 0.0
H427 H 0.47831 0.67236 0.10205 0.0
H428 H 0.52676 0.66286 0.15824 0.0
C429 C 0.26141 0.50792 0.67226 0.0
C430 C 0.26157 0.53914 0.67284 0.0
N431 N 0.24235 0.54933 0.6586 0.0
N432 N 0.24199 0.49847 0.65784 0.0
C433 C 0.23081 0.52427 0.64965 0.0
H434 H 0.27447 0.49296 0.68184 0.0
Co435 Co 0.23335 0.45785 0.65275 0.0
C436 C 0.21768 0.45339 0.6099 0.0
O437 O 0.23402 0.42842 0.60926 0.0
N438 N 0.22382 0.41628 0.64829 0.0
C439 C 0.19517 0.37597 0.64054 0.0
C440 C 0.19565 0.40699 0.64273 0.0
C441 C 0.23984 0.39004 0.64992 0.0
N442 N 0.22297 0.36536 0.64508 0.0
O443 O 0.1946 0.46234 0.66564 0.0
H444 H 0.17658 0.42197 0.6401 0.0
H445 H 0.26341 0.38864 0.65429 0.0
O446 O 0.2156 0.46843 0.62634 0.0
C447 C 0.19679 0.46226 0.68474 0.0
O448 O 0.22391 0.46024 0.69293 0.0
N449 N 0.27272 0.45403 0.64195 0.0
C450 C 0.33535 0.45784 0.63468 0.0
C451 C 0.31448 0.47201 0.62176 0.0
C452 C 0.28331 0.47029 0.62584 0.0
C453 C 0.29273 0.44052 0.65477 0.0
C454 C 0.32397 0.44138 0.65115 0.0
H455 H 0.26816 0.48405 0.61691 0.0
H456 H 0.2845 0.43047 0.66859 0.0
H457 H 0.21416 0.52476 0.63766 0.0
H458 H 0.27505 0.55332 0.68277 0.0
H459 H 0.17577 0.36222 0.6362 0.0
H460 H 0.32218 0.48604 0.60936 0.0
H461 H 0.3391 0.43029 0.66168 0.0
C462 C 0.50249 0.26701 0.17383 0.0
C463 C 0.47131 0.26698 0.17551 0.0
N464 N 0.45994 0.24825 0.16134 0.0
N465 N 0.5107 0.24826 0.15875 0.0
C466 C 0.48426 0.23718 0.15138 0.0
H467 H 0.51824 0.27993 0.18298 0.0
Co468 Co 0.55055 0.24012 0.15135 0.0
C469 C 0.54864 0.22652 0.108 0.0
O470 O 0.57275 0.24402 0.10606 0.0
N471 N 0.59115 0.23096 0.14438 0.0
C472 C 0.63014 0.20274 0.13399 0.0
C473 C 0.59934 0.20339 0.13719 0.0
C474 C 0.61779 0.24638 0.14598 0.0
N475 N 0.6417 0.22979 0.13955 0.0
O476 O 0.54807 0.20144 0.16467 0.0
H477 H 0.58377 0.18473 0.13447 0.0
H478 H 0.62004 0.26917 0.15176 0.0
O479 O 0.5366 0.2226 0.12538 0.0
C480 C 0.55376 0.20604 0.18325 0.0
O481 O 0.55923 0.23404 0.18918 0.0
N482 N 0.55296 0.27974 0.14062 0.0
C483 C 0.55165 0.3422 0.13291 0.0
C484 C 0.53508 0.32192 0.12086 0.0
C485 C 0.53523 0.29085 0.12538 0.0
C486 C 0.5683 0.29938 0.15284 0.0
C487 C 0.56843 0.33059 0.14908 0.0
H488 H 0.51967 0.27621 0.11737 0.0
H489 H 0.57924 0.29091 0.16628 0.0
H490 H 0.48278 0.22104 0.13914 0.0
H491 H 0.45799 0.28017 0.18604 0.0
H492 H 0.64316 0.18357 0.12854 0.0
H493 H 0.52061 0.33021 0.10886 0.0
H494 H 0.58075 0.3456 0.15913 0.0
C495 C 0.73175 0.49522 0.66825 0.0
C496 C 0.7317 0.46419 0.67012 0.0
N497 N 0.74929 0.45258 0.65547 0.0
N498 N 0.74945 0.50332 0.65258 0.0
C499 C 0.75973 0.47677 0.6449 0.0
H500 H 0.71955 0.51102 0.67773 0.0
Co501 Co 0.75578 0.54395 0.64605 0.0
C502 C 0.76827 0.54689 0.60266 0.0
O503 O 0.74993 0.57045 0.60221 0.0
N504 N 0.76274 0.58566 0.64048 0.0
C505 C 0.78833 0.62752 0.63174 0.0
C506 C 0.78924 0.59637 0.63284 0.0
C507 C 0.74658 0.61112 0.64465 0.0
N508 N 0.76152 0.63673 0.63923 0.0
O509 O 0.79534 0.5426 0.6584 0.0
H510 H 0.80832 0.58232 0.62854 0.0
H511 H 0.72458 0.61136 0.65179 0.0
O512 O 0.77286 0.53275 0.61929 0.0
C513 C 0.79297 0.54593 0.67738 0.0
O514 O 0.76573 0.54889 0.68524 0.0
N515 N 0.71568 0.5449 0.63597 0.0
C516 C 0.65311 0.53671 0.63014 0.0
C517 C 0.67421 0.52312 0.61716 0.0
C518 C 0.70538 0.52694 0.62058 0.0
C519 C 0.69542 0.55793 0.64883 0.0
C520 C 0.66413 0.55483 0.64592 0.0
H521 H 0.72089 0.51342 0.61178 0.0
H522 H 0.70351 0.56881 0.66238 0.0
H523 H 0.77482 0.47516 0.63209 0.0
H524 H 0.71928 0.45108 0.68122 0.0
H525 H 0.80641 0.64234 0.62652 0.0
H526 H 0.66683 0.50783 0.60534 0.0
H527 H 0.64877 0.56533 0.65656 0.0
C528 C 0.02736 0.11588 0.11379 0.0
C529 C 0.0304 0.13032 0.13256 0.0
C530 C 0.01957 0.08502 0.11265 0.0
C531 C 0.98288 0.02383 0.14208 0.0
H532 H 0.02464 0.96952 0.10543 0.0
C533 C 0.97402 0.89377 0.14917 0.0
C534 C 0.97241 0.8762 0.13153 0.0
C535 C 0.97957 0.92501 0.1482 0.0
C536 C 0.01244 0.98446 0.11554 0.0
H537 H 0.02732 0.12366 0.16483 0.0
H538 H 0.01426 0.06991 0.16284 0.0
H539 H 0.03761 0.0236 0.10575 0.0
H540 H 0.97508 0.87789 0.09899 0.0
H541 H 0.98471 0.93266 0.09729 0.0
H542 H 0.95781 0.98482 0.15197 0.0
C543 C 0.0177 0.08244 0.14899 0.0
C544 C 0.01991 0.01544 0.11573 0.0
C545 C 0.02559 0.11318 0.15014 0.0
C546 C 0.97641 0.89073 0.11286 0.0
C547 C 0.98197 0.92209 0.11189 0.0
C548 C 0.97537 0.99293 0.14186 0.0
C549 C 0.01442 0.06802 0.13025 0.0
C550 C 0.0055 0.03539 0.12921 0.0
C551 C 0.98368 0.93958 0.12957 0.0
C552 C 0.99034 0.97278 0.12879 0.0
H553 H 0.03107 0.12842 0.09998 0.0
H554 H 0.01704 0.07461 0.09798 0.0
H555 H 0.9709 0.0387 0.15235 0.0
H556 H 0.97179 0.88325 0.16383 0.0
H557 H 0.98136 0.93764 0.16214 0.0
C558 C 0.12763 0.00124 0.62978 0.0
C559 C 0.13981 0.97188 0.62836 0.0
C560 C 0.09638 0.0059 0.62756 0.0
C561 C 0.02245 0.96396 0.6288 0.0
H562 H 0.99172 0.04101 0.60904 0.0
C563 C 0.89438 0.99189 0.61496 0.0
C564 C 0.88413 0.01587 0.62727 0.0
C565 C 0.92548 0.98576 0.61309 0.0
C566 C 1.00009 0.01936 0.61449 0.0
H567 H 0.1294 0.92448 0.62291 0.0
H568 H 0.07497 0.93261 0.61795 0.0
H569 H 0.04634 0.03128 0.6085 0.0
H570 H 0.89922 0.05197 0.64737 0.0
H571 H 0.95326 0.04217 0.6431 0.0
H572 H 0.97577 0.95202 0.63421 0.0
C573 C 0.08919 0.95203 0.62151 0.0
C574 C 0.03138 0.01381 0.61439 0.0
C575 C 0.12039 0.94731 0.62418 0.0
C576 C 0.90596 0.03384 0.63732 0.0
C577 C 0.937 0.02814 0.63505 0.0
C578 C 0.99111 0.96929 0.62845 0.0
C579 C 0.07664 0.98135 0.62345 0.0
C580 C 0.0431 0.98627 0.62194 0.0
C581 C 0.94697 0.00392 0.62308 0.0
C582 C 0.97978 0.99722 0.62163 0.0
H583 H 0.14218 0.02048 0.63326 0.0
H584 H 0.08772 0.0287 0.62965 0.0
H585 H 0.03042 0.9427 0.63507 0.0
H586 H 0.87846 0.97785 0.60667 0.0
H587 H 0.9328 0.96701 0.60371 0.0
C588 C 0.47592 0.59997 0.85561 0.0
C589 C 0.48237 0.61821 0.87242 0.0
C590 C 0.48288 0.56899 0.85579 0.0
C591 C 0.49346 0.5043 0.88923 0.0
H592 H 0.53678 0.4686 0.8443 0.0
C593 C 0.52977 0.37799 0.88924 0.0
C594 C 0.52815 0.3623 0.87089 0.0
C595 C 0.52559 0.4095 0.88987 0.0
C596 C 0.52429 0.47806 0.85685 0.0
H597 H 0.50082 0.61848 0.90264 0.0
H598 H 0.51256 0.56401 0.90308 0.0
H599 H 0.52634 0.52302 0.84446 0.0
H600 H 0.52016 0.36699 0.83889 0.0
H601 H 0.51196 0.42168 0.83997 0.0
H602 H 0.49042 0.45936 0.90137 0.0
C603 C 0.5023 0.57379 0.88975 0.0
C604 C 0.51847 0.50927 0.85695 0.0
C605 C 0.49577 0.6049 0.88946 0.0
C606 C 0.52203 0.37862 0.8532 0.0
C607 C 0.51746 0.41001 0.85384 0.0
C608 C 0.49891 0.47299 0.88901 0.0
C609 C 0.49601 0.55559 0.87289 0.0
C610 C 0.50291 0.52265 0.8731 0.0
C611 C 0.51928 0.42593 0.87217 0.0
C612 C 0.51427 0.45942 0.87276 0.0
H613 H 0.4658 0.60974 0.84223 0.0
H614 H 0.47761 0.5554 0.84264 0.0
H615 H 0.48116 0.51406 0.90177 0.0
H616 H 0.53468 0.36592 0.90307 0.0
H617 H 0.52765 0.421 0.9042 0.0
C618 C 0.60492 0.53464 0.39195 0.0
C619 C 0.61901 0.53609 0.37298 0.0
C620 C 0.57394 0.52747 0.39361 0.0
C621 C 0.51177 0.48997 0.36533 0.0
H622 H 0.45849 0.53265 0.40219 0.0
C623 C 0.38176 0.48188 0.35933 0.0
C624 C 0.36488 0.47847 0.37716 0.0
C625 C 0.41286 0.48827 0.36001 0.0
C626 C 0.47318 0.52028 0.392 0.0
H627 H 0.61146 0.53091 0.34089 0.0
H628 H 0.5576 0.51937 0.34375 0.0
H629 H 0.5127 0.5454 0.4012 0.0
H630 H 0.3676 0.47935 0.40973 0.0
H631 H 0.4221 0.49081 0.41089 0.0
H632 H 0.47233 0.46515 0.35593 0.0
C633 C 0.57048 0.5234 0.35739 0.0
C634 C 0.50422 0.52757 0.39144 0.0
C635 C 0.60133 0.53052 0.35573 0.0
C636 C 0.37987 0.48205 0.39572 0.0
C637 C 0.41107 0.4886 0.39639 0.0
C638 C 0.48083 0.48278 0.36586 0.0
C639 C 0.55644 0.52146 0.37634 0.0
C640 C 0.52378 0.51278 0.37788 0.0
C641 C 0.42792 0.49158 0.37853 0.0
C642 C 0.4611 0.49812 0.37899 0.0
H643 H 0.61785 0.53898 0.40553 0.0
H644 H 0.56385 0.52601 0.40844 0.0
H645 H 0.52632 0.47761 0.35505 0.0
H646 H 0.37087 0.48008 0.34477 0.0
H647 H 0.42507 0.49106 0.34597 0.0
C648 C 0.03066 0.11659 0.89535 0.0
C649 C 0.03162 0.13118 0.87651 0.0
C650 C 0.02429 0.08541 0.89669 0.0
C651 C 0.02468 0.01498 0.86642 0.0
H652 H 0.96542 0.98534 0.90501 0.0
C653 C 0.96982 0.89735 0.85826 0.0
C654 C 0.96618 0.87944 0.87562 0.0
C655 C 0.97858 0.92779 0.85976 0.0
C656 C 0.98231 0.99321 0.89433 0.0
H657 H 0.02572 0.12443 0.84439 0.0
H658 H 0.01513 0.07035 0.84674 0.0
H659 H 0.98036 0.039 0.90535 0.0
H660 H 0.96829 0.87971 0.9082 0.0
H661 H 0.98397 0.93303 0.9108 0.0
H662 H 0.02652 0.96945 0.85524 0.0
C663 C 0.01984 0.08282 0.86044 0.0
C664 C 0.99088 0.02391 0.89454 0.0
C665 C 0.02603 0.11387 0.85911 0.0
C666 C 0.97107 0.89288 0.89455 0.0
C667 C 0.97982 0.92345 0.89604 0.0
C668 C 0.01617 0.98439 0.86623 0.0
C669 C 0.01889 0.0682 0.87922 0.0
C670 C 0.01174 0.03521 0.88033 0.0
C671 C 0.98404 0.94112 0.87863 0.0
C672 C 0.99447 0.97324 0.87992 0.0
H673 H 0.03502 0.12922 0.90903 0.0
H674 H 0.0239 0.07471 0.91136 0.0
H675 H 0.04128 0.02287 0.85555 0.0
H676 H 0.96672 0.88767 0.84343 0.0
H677 H 0.98116 0.9409 0.84606 0.0
C678 C 0.11647 0.95926 0.406 0.0
C679 C 0.1308 0.96391 0.38736 0.0
C680 C 0.08539 0.96537 0.40828 0.0
C681 C 0.01544 0.96242 0.40259 0.0
H682 H 0.98461 0.03862 0.38142 0.0
C683 C 0.88877 0.98448 0.38404 0.0
C684 C 0.87668 0.01311 0.38903 0.0
C685 C 0.91972 0.97848 0.38672 0.0
C686 C 0.9929 0.01739 0.3876 0.0
H687 H 0.12418 0.97923 0.35667 0.0
H688 H 0.07016 0.99005 0.36068 0.0
H689 H 0.03918 0.02848 0.38062 0.0
H690 H 0.88759 0.05738 0.40162 0.0
H691 H 0.94174 0.04705 0.40584 0.0
H692 H 0.96896 0.95107 0.40912 0.0
C693 C 0.08281 0.98153 0.37348 0.0
C694 C 0.02407 0.0115 0.38699 0.0
C695 C 0.11363 0.97504 0.37113 0.0
C696 C 0.8962 0.03531 0.39723 0.0
C697 C 0.92719 0.02938 0.39974 0.0
C698 C 0.98414 0.96817 0.40298 0.0
C699 C 0.06837 0.9768 0.39206 0.0
C700 C 0.0356 0.98382 0.39425 0.0
C701 C 0.93932 0.00103 0.39429 0.0
C702 C 0.97256 0.9956 0.3953 0.0
H703 H 0.12924 0.9507 0.41873 0.0
H704 H 0.07477 0.96164 0.42278 0.0
H705 H 0.02376 0.94084 0.4082 0.0
H706 H 0.87457 0.96699 0.37741 0.0
H707 H 0.92853 0.95655 0.38215 0.0
C708 C 0.54168 0.39421 0.14643 0.0
C709 C 0.54886 0.3755 0.13 0.0
C710 C 0.53766 0.42542 0.14379 0.0
C711 C 0.50924 0.48492 0.12987 0.0
H712 H 0.57026 0.53582 0.10427 0.0
C713 C 0.4885 0.61206 0.1167 0.0
C714 C 0.51137 0.63139 0.12422 0.0
C715 C 0.49388 0.58097 0.11437 0.0
C716 C 0.55301 0.52181 0.11138 0.0
H717 H 0.55801 0.37474 0.09799 0.0
H718 H 0.55152 0.42984 0.09341 0.0
H719 H 0.57812 0.4806 0.10646 0.0
H720 H 0.55834 0.63353 0.13412 0.0
H721 H 0.56774 0.57902 0.13004 0.0
H722 H 0.48423 0.52582 0.13502 0.0
C723 C 0.54887 0.42013 0.10829 0.0
C724 C 0.55742 0.4903 0.11252 0.0
C725 C 0.55242 0.3887 0.11088 0.0
C726 C 0.54021 0.61915 0.12845 0.0
C727 C 0.54566 0.58803 0.12596 0.0
C728 C 0.50464 0.51623 0.12848 0.0
C729 C 0.54109 0.43867 0.1247 0.0
C730 C 0.53576 0.47168 0.12207 0.0
C731 C 0.52229 0.56852 0.1194 0.0
C732 C 0.52661 0.53507 0.11944 0.0
H733 H 0.53849 0.38459 0.16129 0.0
H734 H 0.53186 0.43925 0.1567 0.0
H735 H 0.49211 0.47102 0.13719 0.0
H736 H 0.46595 0.62068 0.11348 0.0
H737 H 0.47553 0.56649 0.10911 0.0
C738 C 0.38215 0.46444 0.61307 0.0
C739 C 0.36869 0.46282 0.63226 0.0
C740 C 0.41329 0.47062 0.61102 0.0
C741 C 0.48566 0.46828 0.63907 0.0
H742 H 0.51261 0.53086 0.60193 0.0
C743 C 0.60338 0.52309 0.6463 0.0
C744 C 0.62017 0.52905 0.62873 0.0
C745 C 0.57299 0.51404 0.64518 0.0
C746 C 0.50552 0.51302 0.61216 0.0
H747 H 0.37756 0.46718 0.66428 0.0
H748 H 0.43159 0.47722 0.66066 0.0
H749 H 0.45901 0.51564 0.6025 0.0
H750 H 0.61787 0.5306 0.59617 0.0
H751 H 0.56466 0.51427 0.5942 0.0
H752 H 0.53189 0.46568 0.64886 0.0
C753 C 0.4182 0.47328 0.64723 0.0
C754 C 0.47484 0.50431 0.61248 0.0
C755 C 0.38716 0.46736 0.64928 0.0
C756 C 0.60562 0.52604 0.60998 0.0
C757 C 0.5751 0.51691 0.60886 0.0
C758 C 0.51624 0.47687 0.6387 0.0
C759 C 0.43161 0.47508 0.6281 0.0
C760 C 0.46451 0.48228 0.62623 0.0
C761 C 0.55855 0.51047 0.62647 0.0
C762 C 0.52644 0.4998 0.62555 0.0
H763 H 0.36866 0.46084 0.59965 0.0
H764 H 0.42308 0.47168 0.59608 0.0
H765 H 0.47847 0.45082 0.64956 0.0
H766 H 0.61391 0.52464 0.66099 0.0
H767 H 0.5608 0.50976 0.65906 0.0
C768 C 0.00468 0.29192 0.07957 0.0
C769 C 0.03554 0.29235 0.08502 0.0
C770 C 0.99584 0.30115 0.0602 0.0
C771 C 0.02387 0.34043 0.01401 0.0
H772 H 0.98296 0.27564 0.985 0.0
C773 C 0.05638 0.30481 0.93513 0.0
C774 C 0.03447 0.29451 0.92138 0.0
C775 C 0.04795 0.31375 0.95444 0.0
C776 C 0.99365 0.29441 0.99288 0.0
H777 H 0.08105 0.30421 0.07536 0.0
H778 H 0.06581 0.32097 0.04202 0.0
H779 H 0.98309 0.27537 0.02173 0.0
H780 H 0.98639 0.28631 0.91665 0.0
H781 H 0.9715 0.30131 0.95096 0.0
H782 H 0.03627 0.35828 0.98518 0.0
C783 C 0.04828 0.31363 0.05241 0.0
C784 C 0.99372 0.29426 0.01395 0.0
C785 C 0.05708 0.3039 0.07148 0.0
C786 C 0.00364 0.29446 0.92698 0.0
C787 C 0.99519 0.30285 0.94659 0.0
C788 C 0.02384 0.34054 0.993 0.0
C789 C 0.01773 0.31148 0.04627 0.0
C790 C 0.01018 0.31642 0.0247 0.0
C791 C 0.01741 0.31209 0.96061 0.0
C792 C 0.01007 0.31669 0.98222 0.0
H793 H 0.98777 0.28267 0.08976 0.0
H794 H 0.97215 0.29922 0.05587 0.0
H795 H 0.0363 0.3581 0.02189 0.0
H796 H 0.08031 0.30502 0.93115 0.0
H797 H 0.06569 0.3203 0.96491 0.0
C798 C 0.70526 0.98245 0.43271 0.0
C799 C 0.7076 0.01227 0.42544 0.0
C800 C 0.69347 0.97688 0.4519 0.0
C801 C 0.66046 0.01378 0.49796 0.0
H802 H 0.71988 0.96289 0.52468 0.0
C803 C 0.69879 0.03 0.58021 0.0
C804 C 0.71261 0.00554 0.59017 0.0
C805 C 0.6866 0.02605 0.56091 0.0
C806 C 0.70241 0.97654 0.51763 0.0
H807 H 0.69798 0.05951 0.43171 0.0
H808 H 0.67785 0.05009 0.46536 0.0
H809 H 0.71835 0.96431 0.48851 0.0
H810 H 0.72216 0.95739 0.58892 0.0
H811 H 0.69919 0.94987 0.55586 0.0
H812 H 0.64556 0.02697 0.52741 0.0
C813 C 0.68425 0.03076 0.45621 0.0
C814 C 0.70154 0.97737 0.49668 0.0
C815 C 0.69569 0.03623 0.43689 0.0
C816 C 0.71138 0.97652 0.58151 0.0
C817 C 0.69863 0.97239 0.56245 0.0
C818 C 0.66126 0.01287 0.51905 0.0
C819 C 0.68461 0.00119 0.46438 0.0
C820 C 0.68115 0.99658 0.48651 0.0
C821 C 0.68785 0.99746 0.55135 0.0
C822 C 0.68284 0.99483 0.52918 0.0
H823 H 0.71475 0.96371 0.42421 0.0
H824 H 0.69346 0.95376 0.45753 0.0
H825 H 0.64425 0.02861 0.49062 0.0
H826 H 0.70005 0.05272 0.58648 0.0
H827 H 0.6787 0.04596 0.55289 0.0
C828 C 0.9808 0.74468 0.93194 0.0
C829 C 0.96891 0.72233 0.9191 0.0
C830 C 0.99103 0.73706 0.95115 0.0
C831 C 0.9739 0.68378 0.99125 0.0
H832 H 0.03983 0.72648 0.01798 0.0
C833 C 0.97998 0.68986 0.07793 0.0
C834 C 0.98241 0.72 0.0847 0.0
C835 C 0.98694 0.68265 0.05787 0.0
C836 C 0.02143 0.7142 0.01075 0.0
H837 H 0.95884 0.6744 0.91588 0.0
H838 H 0.97643 0.66085 0.94991 0.0
H839 H 0.03651 0.7272 0.98133 0.0
H840 H 0.99511 0.76588 0.07644 0.0
H841 H 0.00779 0.75346 0.04181 0.0
H842 H 0.95779 0.67228 0.0207 0.0
C843 C 0.97821 0.68426 0.94495 0.0
C844 C 0.01955 0.71459 0.98975 0.0
C845 C 0.96841 0.6919 0.92547 0.0
C846 C 0.99359 0.74238 0.07161 0.0
C847 C 0.00087 0.73519 0.05175 0.0
C848 C 0.97574 0.68345 0.01229 0.0
C849 C 0.98905 0.70693 0.95815 0.0
C850 C 0.99505 0.70047 0.97979 0.0
C851 C 0.99665 0.70546 0.0444 0.0
C852 C 0.99881 0.69976 0.02232 0.0
H853 H 0.98098 0.76837 0.92742 0.0
H854 H 0.99873 0.75518 0.96096 0.0
H855 H 0.95463 0.67285 0.98408 0.0
H856 H 0.97083 0.67238 0.08772 0.0
H857 H 0.98356 0.65952 0.05271 0.0
C858 C 0.30975 0.94355 0.44 0.0
C859 C 0.29775 0.96441 0.42616 0.0
C860 C 0.31925 0.9531 0.45898 0.0
C861 C 0.29926 0.00781 0.49698 0.0
H862 H 0.36668 0.97053 0.52534 0.0
C863 C 0.30053 0.0019 0.58361 0.0
C864 C 0.30375 0.97168 0.59006 0.0
C865 C 0.30876 0.0101 0.56391 0.0
C866 C 0.34789 0.9814 0.51765 0.0
H867 H 0.28714 0.01183 0.42095 0.0
H868 H 0.30315 0.02865 0.45468 0.0
H869 H 0.36468 0.96832 0.48868 0.0
H870 H 0.31958 0.92686 0.58183 0.0
H871 H 0.33452 0.94102 0.54792 0.0
H872 H 0.28131 0.01897 0.52599 0.0
C873 C 0.30556 0.00492 0.45062 0.0
C874 C 0.34678 0.98017 0.49665 0.0
C875 C 0.2966 0.99537 0.43133 0.0
C876 C 0.31726 0.9504 0.57721 0.0
C877 C 0.32588 0.9586 0.55777 0.0
C878 C 0.30029 0.00892 0.51803 0.0
C879 C 0.31648 0.98372 0.46475 0.0
C880 C 0.32174 0.99209 0.48615 0.0
C881 C 0.32069 0.98823 0.55058 0.0
C882 C 0.32387 0.99441 0.52864 0.0
H883 H 0.31083 0.91954 0.43636 0.0
H884 H 0.32714 0.93611 0.46956 0.0
H885 H 0.27958 0.01707 0.48934 0.0
H886 H 0.28965 0.01853 0.59322 0.0
H887 H 0.30457 0.03312 0.55884 0.0
C888 C 0.52337 0.23994 0.07604 0.0
C889 C 0.53263 0.21728 0.08954 0.0
C890 C 0.513 0.23229 0.05687 0.0
C891 C 0.52597 0.17629 0.018 0.0
H892 H 0.46415 0.22293 0.99015 0.0
C893 C 0.52184 0.18171 0.93103 0.0
C894 C 0.5226 0.21198 0.92433 0.0
C895 C 0.51405 0.17512 0.95107 0.0
C896 C 0.48133 0.20949 0.9977 0.0
H897 H 0.53792 0.16885 0.09395 0.0
H898 H 0.52022 0.15521 0.05992 0.0
H899 H 0.46675 0.22439 0.0268 0.0
H900 H 0.51427 0.25881 0.93261 0.0
H901 H 0.50012 0.2475 0.96714 0.0
H902 H 0.54175 0.16292 0.98883 0.0
C903 C 0.52055 0.17891 0.06437 0.0
C904 C 0.4828 0.21031 0.0187 0.0
C905 C 0.53044 0.18663 0.08382 0.0
C906 C 0.51361 0.23525 0.93743 0.0
C907 C 0.50539 0.22871 0.95721 0.0
C908 C 0.52454 0.17552 0.99695 0.0
C909 C 0.51223 0.20177 0.05057 0.0
C910 C 0.50598 0.19482 0.02904 0.0
C911 C 0.50643 0.1987 0.96451 0.0
C912 C 0.50307 0.19324 0.98653 0.0
H913 H 0.52527 0.26376 0.08005 0.0
H914 H 0.50729 0.2505 0.04657 0.0
H915 H 0.5442 0.16424 0.0255 0.0
H916 H 0.5291 0.16347 0.92121 0.0
H917 H 0.515 0.15178 0.95624 0.0
C918 C 0.7807 0.50669 0.577 0.0
C919 C 0.78205 0.53709 0.58349 0.0
C920 C 0.78809 0.49925 0.55701 0.0
C921 C 0.82528 0.52977 0.51076 0.0
H922 H 0.76036 0.48904 0.48175 0.0
C923 C 0.79308 0.56029 0.43041 0.0
C924 C 0.78209 0.5382 0.41701 0.0
C925 C 0.80095 0.55253 0.45007 0.0
C926 C 0.77912 0.49978 0.48961 0.0
H927 H 0.79365 0.58311 0.57475 0.0
H928 H 0.80724 0.57021 0.54038 0.0
H929 H 0.76036 0.48882 0.51852 0.0
H930 H 0.77151 0.4904 0.41338 0.0
H931 H 0.78492 0.47667 0.44822 0.0
H932 H 0.84319 0.54212 0.48193 0.0
C933 C 0.80049 0.55203 0.55044 0.0
C934 C 0.77912 0.49965 0.51071 0.0
C935 C 0.79259 0.55948 0.57014 0.0
C936 C 0.78032 0.50777 0.42338 0.0
C937 C 0.78772 0.50001 0.44333 0.0
C938 C 0.8253 0.52987 0.48973 0.0
C939 C 0.79754 0.52201 0.54341 0.0
C940 C 0.80148 0.5158 0.52151 0.0
C941 C 0.79758 0.5225 0.457 0.0
C942 C 0.8015 0.51604 0.47889 0.0
H943 H 0.77223 0.4891 0.58697 0.0
H944 H 0.78561 0.47591 0.55204 0.0
H945 H 0.84313 0.54195 0.51863 0.0
H946 H 0.79449 0.58394 0.42588 0.0
H947 H 0.80801 0.57054 0.46018 0.0
C948 C 0.43706 0.82382 0.08603 0.0
C949 C 0.45457 0.80229 0.09654 0.0
C950 C 0.44092 0.82782 0.06524 0.0
C951 C 0.49549 0.8136 0.02383 0.0
H952 H 0.4242 0.80881 0.9896 0.0
C953 C 0.49851 0.76439 0.94458 0.0
C954 C 0.47836 0.7748 0.92973 0.0
C955 C 0.49812 0.77684 0.96386 0.0
C956 C 0.44435 0.81096 0.99889 0.0
H957 H 0.49032 0.76861 0.09351 0.0
H958 H 0.49702 0.77564 0.05756 0.0
H959 H 0.41799 0.81317 0.02599 0.0
H960 H 0.44306 0.80756 0.92304 0.0
H961 H 0.44226 0.82951 0.957 0.0
H962 H 0.52189 0.81033 0.99688 0.0
C963 C 0.4804 0.78954 0.06529 0.0
C964 C 0.44077 0.81336 0.01976 0.0
C965 C 0.47633 0.7853 0.08591 0.0
C966 C 0.45903 0.7993 0.93417 0.0
C967 C 0.45836 0.8116 0.95365 0.0
C968 C 0.49908 0.81133 1.00301 0.0
C969 C 0.46269 0.81072 0.05467 0.0
C970 C 0.46631 0.81357 0.0325 0.0
C971 C 0.47733 0.79987 0.96886 0.0
C972 C 0.47357 0.80882 0.99033 0.0
H973 H 0.4201 0.83725 0.09379 0.0
H974 H 0.42697 0.84434 0.05746 0.0
H975 H 0.51562 0.81436 0.03323 0.0
H976 H 0.51363 0.7455 0.94155 0.0
H977 H 0.51282 0.76697 0.97517 0.0
C978 C 0.19331 0.44288 0.57704 0.0
C979 C 0.20375 0.46431 0.59107 0.0
C980 C 0.1842 0.45195 0.55789 0.0
C981 C 0.20292 0.5078 0.52021 0.0
H982 H 0.13902 0.46606 0.49079 0.0
C983 C 0.20437 0.5008 0.4334 0.0
C984 C 0.20395 0.47024 0.42731 0.0
C985 C 0.19528 0.50867 0.45297 0.0
C986 C 0.15675 0.47823 0.49879 0.0
H987 H 0.21197 0.51223 0.59644 0.0
H988 H 0.19663 0.52825 0.56242 0.0
H989 H 0.1394 0.46448 0.52749 0.0
H990 H 0.1923 0.42427 0.43604 0.0
H991 H 0.17578 0.43782 0.46975 0.0
H992 H 0.22145 0.51977 0.49145 0.0
C993 C 0.19516 0.50441 0.56645 0.0
C994 C 0.15696 0.47733 0.5198 0.0
C995 C 0.20375 0.49531 0.58589 0.0
C996 C 0.19254 0.44803 0.44042 0.0
C997 C 0.18297 0.45587 0.4597 0.0
C998 C 0.20274 0.50867 0.49914 0.0
C999 C 0.18577 0.48269 0.55215 0.0
C1000 C 0.18089 0.4908 0.53069 0.0
C1001 C 0.18513 0.48609 0.46647 0.0
C1002 C 0.18051 0.49256 0.48822 0.0
H1003 H 0.19308 0.41884 0.58068 0.0
H1004 H 0.17754 0.43458 0.54719 0.0
H1005 H 0.22173 0.51829 0.52816 0.0
H1006 H 0.21353 0.5182 0.42354 0.0
H1007 H 0.1972 0.53213 0.45778 0.0
C1008 C 0.10424 0.34459 0.19194 0.0
C1009 C 0.07524 0.33529 0.18561 0.0
C1010 C 0.10748 0.36541 0.20764 0.0
C1011 C 0.10752 0.41665 0.23863 0.0
H1012 H 0.07139 0.38225 0.2868 0.0
C1013 C 0.14717 0.4542 0.31724 0.0
C1014 C 0.15958 0.4291 0.32736 0.0
C1015 C 0.12747 0.44972 0.3009 0.0
C1016 C 0.08115 0.39254 0.27346 0.0
H1017 H 0.02681 0.3409 0.19009 0.0
H1018 H 0.03245 0.37692 0.21818 0.0
H1019 H 0.05529 0.36387 0.25372 0.0
H1020 H 0.15994 0.38002 0.32944 0.0
H1021 H 0.12465 0.37215 0.30156 0.0
H1022 H 0.13463 0.44407 0.25838 0.0
C1023 C 0.05263 0.3686 0.21065 0.0
C1024 C 0.07183 0.38216 0.25453 0.0
C1025 C 0.0494 0.34825 0.19453 0.0
C1026 C 0.15022 0.39968 0.32202 0.0
C1027 C 0.13004 0.39523 0.30606 0.0
C1028 C 0.1165 0.42736 0.25754 0.0
C1029 C 0.08175 0.37672 0.21768 0.0
C1030 C 0.08588 0.39318 0.23698 0.0
C1031 C 0.11948 0.42011 0.29479 0.0
C1032 C 0.10435 0.41446 0.27516 0.0
H1033 H 0.12445 0.33453 0.18542 0.0
H1034 H 0.13019 0.37091 0.21288 0.0
H1035 H 0.11868 0.42554 0.22534 0.0
H1036 H 0.15464 0.47706 0.32088 0.0
H1037 H 0.1197 0.46927 0.29243 0.0
C1038 C 0.69783 0.0632 0.71183 0.0
C1039 C 0.69016 0.06436 0.69132 0.0
C1040 C 0.67595 0.06805 0.72661 0.0
C1041 C 0.60577 0.10887 0.73574 0.0
H1042 H 0.60799 0.06486 0.78632 0.0
C1043 C 0.54236 0.15556 0.80412 0.0
C1044 C 0.56017 0.15728 0.82158 0.0
C1045 C 0.55091 0.13661 0.78823 0.0
C1046 C 0.60703 0.07738 0.77231 0.0
H1047 H 0.65321 0.07083 0.67021 0.0
H1048 H 0.61457 0.08013 0.69634 0.0
H1049 H 0.63658 0.04587 0.75748 0.0
H1050 H 0.60009 0.14001 0.83667 0.0
H1051 H 0.61536 0.10691 0.80895 0.0
H1052 H 0.57762 0.14126 0.75073 0.0
C1053 C 0.63773 0.07522 0.70083 0.0
C1054 C 0.62333 0.06645 0.75576 0.0
C1055 C 0.65976 0.06986 0.6859 0.0
C1056 C 0.58559 0.13836 0.82352 0.0
C1057 C 0.59434 0.11952 0.80756 0.0
C1058 C 0.58955 0.11987 0.75231 0.0
C1059 C 0.64572 0.07449 0.72136 0.0
C1060 C 0.62371 0.08263 0.73749 0.0
C1061 C 0.57782 0.11942 0.78936 0.0
C1062 C 0.59073 0.10479 0.771 0.0
H1063 H 0.72099 0.05875 0.71657 0.0
H1064 H 0.68303 0.06781 0.74222 0.0
H1065 H 0.60582 0.12203 0.72196 0.0
H1066 H 0.52293 0.17043 0.80221 0.0
H1067 H 0.53734 0.13671 0.77463 0.0
C1068 C 0.84392 0.56926 0.31485 0.0
C1069 C 0.81878 0.55108 0.30977 0.0
C1070 C 0.86523 0.57755 0.30006 0.0
C1071 C 0.8681 0.58667 0.24455 0.0
H1072 H 0.95189 0.60967 0.2547 0.0
C1073 C 0.93876 0.64794 0.18367 0.0
C1074 C 0.95164 0.67519 0.19072 0.0
C1075 C 0.92821 0.62595 0.19736 0.0
C1076 C 0.92856 0.60319 0.2516 0.0
H1077 H 0.79742 0.52517 0.28595 0.0
H1078 H 0.83521 0.53803 0.26056 0.0
H1079 H 0.92286 0.58325 0.2808 0.0
H1080 H 0.96574 0.69986 0.21735 0.0
H1081 H 0.94795 0.66162 0.24104 0.0
H1082 H 0.87352 0.60719 0.21559 0.0
C1083 C 0.83807 0.54709 0.27559 0.0
C1084 C 0.91184 0.58819 0.26661 0.0
C1085 C 0.81658 0.53937 0.2902 0.0
C1086 C 0.95585 0.67905 0.21151 0.0
C1087 C 0.94577 0.65702 0.2251 0.0
C1088 C 0.88485 0.60141 0.22954 0.0
C1089 C 0.86192 0.56744 0.28002 0.0
C1090 C 0.88114 0.58029 0.26346 0.0
C1091 C 0.93083 0.63069 0.21827 0.0
C1092 C 0.91505 0.61052 0.23302 0.0
H1093 H 0.84586 0.5789 0.32979 0.0
H1094 H 0.88312 0.59339 0.3041 0.0
H1095 H 0.8444 0.58164 0.24156 0.0
H1096 H 0.93503 0.64453 0.16772 0.0
H1097 H 0.91699 0.60577 0.19162 0.0
C1098 C 0.44604 0.84264 0.82519 0.0
C1099 C 0.42202 0.8262 0.83392 0.0
C1100 C 0.44015 0.86426 0.8102 0.0
C1101 C 0.42021 0.88145 0.76755 0.0
H1102 H 0.35036 0.93507 0.76571 0.0
C1103 C 0.34919 0.90502 0.69676 0.0
C1104 C 0.33666 0.93399 0.69394 0.0
C1105 C 0.36701 0.89885 0.71368 0.0
C1106 C 0.37031 0.92066 0.76603 0.0
H1107 H 0.37322 0.82005 0.83472 0.0
H1108 H 0.36272 0.85848 0.80909 0.0
H1109 H 0.36646 0.91333 0.79783 0.0
H1110 H 0.3332 0.97947 0.70607 0.0
H1111 H 0.36433 0.9687 0.73592 0.0
H1112 H 0.42301 0.88741 0.73559 0.0
C1113 C 0.38605 0.85498 0.81379 0.0
C1114 C 0.37937 0.90805 0.78441 0.0
C1115 C 0.39199 0.83307 0.82852 0.0
C1116 C 0.34333 0.95717 0.70776 0.0
C1117 C 0.36079 0.95089 0.7249 0.0
C1118 C 0.41091 0.89375 0.74914 0.0
C1119 C 0.41013 0.86987 0.80386 0.0
C1120 C 0.40392 0.88767 0.78528 0.0
C1121 C 0.37202 0.92139 0.72834 0.0
C1122 C 0.38536 0.91283 0.7481 0.0
H1123 H 0.46942 0.83706 0.82879 0.0
H1124 H 0.45914 0.87543 0.80285 0.0
H1125 H 0.43903 0.86559 0.76768 0.0
H1126 H 0.34364 0.88667 0.6865 0.0
H1127 H 0.37497 0.87582 0.71601 0.0
C1128 C 0.93864 0.6873 0.79192 0.0
C1129 C 0.93562 0.68195 0.81266 0.0
C1130 C 0.93121 0.66478 0.77798 0.0
C1131 C 0.8787 0.60161 0.77244 0.0
H1132 H 0.91937 0.59083 0.72117 0.0
C1133 C 0.8187 0.53595 0.70985 0.0
C1134 C 0.81951 0.54947 0.69074 0.0
C1135 C 0.83932 0.54473 0.72475 0.0
C1136 C 0.90765 0.59363 0.73536 0.0
H1137 H 0.92381 0.64833 0.83516 0.0
H1138 H 0.91021 0.6087 0.81061 0.0
H1139 H 0.94442 0.6196 0.74795 0.0
H1140 H 0.84333 0.58163 0.67177 0.0
H1141 H 0.87892 0.59791 0.69797 0.0
H1142 H 0.84127 0.57737 0.75974 0.0
C1143 C 0.91849 0.63046 0.80521 0.0
C1144 C 0.92209 0.60999 0.75075 0.0
C1145 C 0.92642 0.653 0.81925 0.0
C1146 C 0.84257 0.57056 0.68633 0.0
C1147 C 0.86292 0.57988 0.70141 0.0
C1148 C 0.86418 0.58551 0.75705 0.0
C1149 C 0.92019 0.63639 0.78439 0.0
C1150 C 0.90747 0.61476 0.76932 0.0
C1151 C 0.86075 0.56792 0.72107 0.0
C1152 C 0.87814 0.58182 0.73812 0.0
H1153 H 0.94585 0.70937 0.7864 0.0
H1154 H 0.93249 0.67028 0.76212 0.0
H1155 H 0.86657 0.60528 0.78641 0.0
H1156 H 0.80111 0.51955 0.71356 0.0
H1157 H 0.83748 0.53429 0.73945 0.0
C1158 C 0.32214 0.96446 0.29871 0.0
C1159 C 0.32429 0.95287 0.31831 0.0
C1160 C 0.34116 0.95367 0.28352 0.0
C1161 C 0.40704 0.90228 0.27278 0.0
H1162 H 0.36087 0.88516 0.2243 0.0
C1163 C 0.43533 0.8042 0.21908 0.0
C1164 C 0.43336 0.80898 0.19821 0.0
C1165 C 0.4262 0.82665 0.23257 0.0
C1166 C 0.3743 0.89024 0.23756 0.0
H1167 H 0.34909 0.92234 0.33783 0.0
H1168 H 0.38184 0.90263 0.31122 0.0
H1169 H 0.33865 0.91663 0.25044 0.0
H1170 H 0.42035 0.84122 0.17512 0.0
H1171 H 0.40365 0.88054 0.19889 0.0
H1172 H 0.44204 0.87433 0.26012 0.0
C1173 C 0.366 0.92061 0.30754 0.0
C1174 C 0.36162 0.90841 0.25259 0.0
C1175 C 0.34728 0.9319 0.32286 0.0
C1176 C 0.42208 0.83687 0.19111 0.0
C1177 C 0.41253 0.85932 0.20469 0.0
C1178 C 0.4196 0.88384 0.25779 0.0
C1179 C 0.36227 0.93045 0.28749 0.0
C1180 C 0.37757 0.91423 0.27059 0.0
C1181 C 0.41456 0.85439 0.22557 0.0
C1182 C 0.40309 0.87713 0.24021 0.0
H1183 H 0.30462 0.98078 0.29489 0.0
H1184 H 0.33824 0.96249 0.26843 0.0
H1185 H 0.42021 0.90666 0.28625 0.0
H1186 H 0.44402 0.78302 0.2251 0.0
H1187 H 0.42758 0.82196 0.24854 0.0
C1188 C 0.03987 0.32929 0.79452 0.0
C1189 C 0.04472 0.33214 0.81531 0.0
C1190 C 0.04779 0.35281 0.78144 0.0
C1191 C 0.10494 0.41206 0.77803 0.0
H1192 H 0.06559 0.42935 0.72708 0.0
C1193 C 0.1714 0.47412 0.71708 0.0
C1194 C 0.16993 0.46073 0.69796 0.0
C1195 C 0.14954 0.46732 0.73163 0.0
C1196 C 0.0769 0.42477 0.74122 0.0
H1197 H 0.05979 0.36258 0.83893 0.0
H1198 H 0.07397 0.40394 0.81594 0.0
H1199 H 0.03799 0.40129 0.75311 0.0
H1200 H 0.14359 0.43128 0.6785 0.0
H1201 H 0.10584 0.41835 0.70413 0.0
H1202 H 0.14436 0.43369 0.76598 0.0
C1203 C 0.06406 0.38336 0.80979 0.0
C1204 C 0.06103 0.40882 0.75617 0.0
C1205 C 0.05579 0.35981 0.82295 0.0
C1206 C 0.14503 0.44208 0.69312 0.0
C1207 C 0.1234 0.43474 0.70784 0.0
C1208 C 0.12082 0.42779 0.7631 0.0
C1209 C 0.06102 0.37969 0.78883 0.0
C1210 C 0.0752 0.40156 0.77454 0.0
C1211 C 0.12613 0.44631 0.72755 0.0
C1212 C 0.10733 0.43368 0.74429 0.0
H1213 H 0.03116 0.30826 0.78822 0.0
H1214 H 0.04539 0.34906 0.76542 0.0
H1215 H 0.11674 0.40642 0.79184 0.0
H1216 H 0.19028 0.48883 0.72108 0.0
H1217 H 0.15189 0.4774 0.74641 0.0
C1218 C 0.68283 0.05181 0.30552 0.0
C1219 C 0.68184 0.0663 0.3243 0.0
C1220 C 0.66198 0.0592 0.2905 0.0
C1221 C 0.59144 0.10327 0.27901 0.0
H1222 H 0.63095 0.11339 0.22726 0.0
C1223 C 0.5521 0.1877 0.2185 0.0
C1224 C 0.55697 0.18121 0.19807 0.0
C1225 C 0.5608 0.16711 0.23338 0.0
C1226 C 0.61924 0.11006 0.24143 0.0
H1227 H 0.65762 0.09888 0.34257 0.0
H1228 H 0.62141 0.1128 0.31601 0.0
H1229 H 0.65855 0.09017 0.2548 0.0
H1230 H 0.57298 0.14727 0.17705 0.0
H1231 H 0.58841 0.11094 0.20319 0.0
H1232 H 0.55254 0.12464 0.26564 0.0
C1233 C 0.63788 0.09511 0.313 0.0
C1234 C 0.63513 0.09672 0.25733 0.0
C1235 C 0.65857 0.08722 0.32824 0.0
C1236 C 0.56887 0.15276 0.19269 0.0
C1237 C 0.57792 0.13215 0.20766 0.0
C1238 C 0.57555 0.11678 0.26307 0.0
C1239 C 0.64002 0.08189 0.2937 0.0
C1240 C 0.62167 0.09357 0.27645 0.0
C1241 C 0.57486 0.13956 0.2282 0.0
C1242 C 0.5895 0.12087 0.24419 0.0
H1243 H 0.70049 0.03538 0.30222 0.0
H1244 H 0.66382 0.04787 0.2761 0.0
H1245 H 0.58017 0.10083 0.29341 0.0
H1246 H 0.54284 0.20945 0.22308 0.0
H1247 H 0.55831 0.17375 0.24897 0.0
C1248 C 0.40707 0.24163 0.17302 0.0
C1249 C 0.42832 0.24243 0.15725 0.0
C1250 C 0.37608 0.23788 0.16898 0.0
C1251 C 0.3204 0.25527 0.1308 0.0
H1252 H 0.26725 0.20033 0.16007 0.0
C1253 C 0.19213 0.25599 0.11573 0.0
C1254 C 0.17293 0.25349 0.13247 0.0
C1255 C 0.22302 0.24913 0.11736 0.0
C1256 C 0.28169 0.21602 0.15189 0.0
H1257 H 0.434 0.23949 0.12496 0.0
H1258 H 0.37961 0.2335 0.11783 0.0
H1259 H 0.32215 0.19879 0.16589 0.0
H1260 H 0.17041 0.24116 0.1639 0.0
H1261 H 0.22466 0.23033 0.16717 0.0
H1262 H 0.28036 0.27383 0.11759 0.0
C1263 C 0.38705 0.2355 0.13331 0.0
C1264 C 0.31313 0.21498 0.15516 0.0
C1265 C 0.41809 0.23875 0.13738 0.0
C1266 C 0.18483 0.24293 0.15075 0.0
C1267 C 0.21591 0.23666 0.15254 0.0
C1268 C 0.28902 0.25668 0.12777 0.0
C1269 C 0.36575 0.23535 0.14907 0.0
C1270 C 0.33271 0.23474 0.14473 0.0
C1271 C 0.23557 0.24034 0.13596 0.0
C1272 C 0.26916 0.23722 0.13835 0.0
H1273 H 0.41444 0.24413 0.18847 0.0
H1274 H 0.3601 0.23806 0.18139 0.0
H1275 H 0.33498 0.27109 0.1228 0.0
H1276 H 0.18323 0.26379 0.10144 0.0
H1277 H 0.23715 0.25138 0.10411 0.0
C1278 C 0.75404 0.17479 0.64922 0.0
C1279 C 0.7484 0.16227 0.63009 0.0
C1280 C 0.75533 0.20635 0.65189 0.0
C1281 C 0.76926 0.27783 0.62447 0.0
H1282 H 0.72752 0.3152 0.66941 0.0
C1283 C 0.75485 0.40868 0.63253 0.0
C1284 C 0.75467 0.42074 0.65206 0.0
C1285 C 0.75606 0.37712 0.62957 0.0
C1286 C 0.73977 0.30516 0.65695 0.0
H1287 H 0.73865 0.17357 0.59895 0.0
H1288 H 0.7414 0.22836 0.60361 0.0
H1289 H 0.72533 0.26026 0.66513 0.0
H1290 H 0.75778 0.40971 0.68371 0.0
H1291 H 0.76092 0.35498 0.67867 0.0
H1292 H 0.784 0.32269 0.61639 0.0
C1293 C 0.74523 0.21369 0.61645 0.0
C1294 C 0.73839 0.27364 0.65448 0.0
C1295 C 0.74368 0.1822 0.61381 0.0
C1296 C 0.75734 0.40089 0.66851 0.0
C1297 C 0.75893 0.36953 0.66559 0.0
C1298 C 0.77088 0.3094 0.62703 0.0
C1299 C 0.75121 0.22612 0.63549 0.0
C1300 C 0.75305 0.25962 0.63821 0.0
C1301 C 0.75746 0.35712 0.64613 0.0
C1302 C 0.75615 0.32349 0.64332 0.0
H1303 H 0.75816 0.16032 0.66208 0.0
H1304 H 0.76021 0.21529 0.66673 0.0
H1305 H 0.78107 0.26761 0.61189 0.0
H1306 H 0.75259 0.42354 0.61963 0.0
H1307 H 0.75468 0.36842 0.61437 0.0
C1308 C 0.597 0.75631 0.13538 0.0
C1309 C 0.58541 0.78377 0.1429 0.0
C1310 C 0.62818 0.75315 0.13166 0.0
C1311 C 0.70197 0.78687 0.1472 0.0
H1312 H 0.73415 0.73387 0.10582 0.0
C1313 C 0.83149 0.76874 0.13465 0.0
C1314 C 0.84061 0.73819 0.13273 0.0
C1315 C 0.80059 0.77652 0.13427 0.0
C1316 C 0.72546 0.7487 0.11748 0.0
H1317 H 0.59686 0.83002 0.15114 0.0
H1318 H 0.65109 0.82496 0.14409 0.0
H1319 H 0.6796 0.74398 0.10706 0.0
H1320 H 0.82375 0.69192 0.12928 0.0
H1321 H 0.7704 0.7056 0.12822 0.0
H1322 H 0.74792 0.7915 0.15759 0.0
C1323 C 0.6364 0.80548 0.14167 0.0
C1324 C 0.69419 0.75443 0.11824 0.0
C1325 C 0.60531 0.80849 0.1456 0.0
C1326 C 0.81794 0.71573 0.13039 0.0
C1327 C 0.78719 0.72354 0.12979 0.0
C1328 C 0.73326 0.78135 0.14632 0.0
C1329 C 0.6484 0.77752 0.13518 0.0
C1330 C 0.68195 0.77324 0.1333 0.0
C1331 C 0.77814 0.75398 0.13174 0.0
C1332 C 0.74528 0.76183 0.13165 0.0
H1333 H 0.58224 0.73677 0.13341 0.0
H1334 H 0.63655 0.73116 0.1269 0.0
H1335 H 0.69342 0.80103 0.15925 0.0
H1336 H 0.84814 0.78675 0.13623 0.0
H1337 H 0.79427 0.80022 0.13569 0.0
C1338 C 0.23453 0.59036 0.63382 0.0
C1339 C 0.23629 0.58062 0.6539 0.0
C1340 C 0.23218 0.62138 0.62934 0.0
C1341 C 0.2115 0.69612 0.64964 0.0
H1342 H 0.27821 0.7272 0.61745 0.0
C1343 C 0.24721 0.82246 0.65134 0.0
C1344 C 0.26192 0.83502 0.63456 0.0
C1345 C 0.23901 0.79169 0.65153 0.0
C1346 C 0.25891 0.71908 0.62605 0.0
H1347 H 0.23517 0.5951 0.68499 0.0
H1348 H 0.23034 0.64927 0.6772 0.0
H1349 H 0.27152 0.67263 0.62123 0.0
H1350 H 0.27786 0.82621 0.60439 0.0
H1351 H 0.26222 0.77292 0.60415 0.0
H1352 H 0.19864 0.74243 0.65443 0.0
C1353 C 0.23109 0.63304 0.66495 0.0
C1354 C 0.25521 0.6877 0.62825 0.0
C1355 C 0.23408 0.60217 0.6694 0.0
C1356 C 0.26689 0.81679 0.61758 0.0
C1357 C 0.25811 0.78623 0.61756 0.0
C1358 C 0.21482 0.72755 0.64713 0.0
C1359 C 0.23082 0.643 0.64488 0.0
C1360 C 0.23191 0.67596 0.64042 0.0
C1361 C 0.24482 0.77298 0.63475 0.0
C1362 C 0.23903 0.73952 0.63568 0.0
H1363 H 0.23636 0.57411 0.62165 0.0
H1364 H 0.232 0.62855 0.61375 0.0
H1365 H 0.19322 0.68754 0.65901 0.0
H1366 H 0.24342 0.83609 0.66466 0.0
H1367 H 0.2293 0.78239 0.66517 0.0
C1368 C 0.89647 0.2694 0.84126 0.0
C1369 C 0.91798 0.26637 0.85675 0.0
C1370 C 0.86553 0.27187 0.84568 0.0
C1371 C 0.81076 0.24673 0.88266 0.0
H1372 H 0.75551 0.30161 0.85534 0.0
C1373 C 0.68174 0.23609 0.89439 0.0
C1374 C 0.66333 0.23935 0.87728 0.0
C1375 C 0.71231 0.24479 0.89393 0.0
C1376 C 0.77056 0.28593 0.86297 0.0
H1377 H 0.92422 0.26445 0.88902 0.0
H1378 H 0.86977 0.26823 0.89683 0.0
H1379 H 0.81038 0.30742 0.85076 0.0
H1380 H 0.66206 0.25491 0.84644 0.0
H1381 H 0.71577 0.26914 0.84523 0.0
H1382 H 0.77137 0.22408 0.89401 0.0
C1383 C 0.87699 0.26887 0.88126 0.0
C1384 C 0.80198 0.28943 0.86044 0.0
C1385 C 0.90807 0.26689 0.87683 0.0
C1386 C 0.67577 0.25242 0.85987 0.0
C1387 C 0.70655 0.26066 0.85926 0.0
C1388 C 0.77939 0.24296 0.88498 0.0
C1389 C 0.85542 0.27095 0.8657 0.0
C1390 C 0.82236 0.26961 0.87006 0.0
C1391 C 0.72539 0.25644 0.87619 0.0
C1392 C 0.75881 0.26224 0.87496 0.0
H1393 H 0.90361 0.26936 0.82567 0.0
H1394 H 0.84941 0.2732 0.83338 0.0
H1395 H 0.82593 0.23083 0.89001 0.0
H1396 H 0.67247 0.22649 0.90809 0.0
H1397 H 0.72579 0.24194 0.90742 0.0
C1398 C 0.73328 0.67956 0.34679 0.0
C1399 C 0.75133 0.66931 0.36285 0.0
C1400 C 0.72524 0.71026 0.34536 0.0
C1401 C 0.71638 0.78087 0.3741 0.0
H1402 H 0.73964 0.82148 0.32467 0.0
C1403 C 0.72843 0.91144 0.36865 0.0
C1404 C 0.72446 0.92564 0.34994 0.0
C1405 C 0.72636 0.87978 0.37034 0.0
C1406 C 0.73224 0.81057 0.33843 0.0
H1407 H 0.77396 0.68262 0.39041 0.0
H1408 H 0.75944 0.73623 0.38811 0.0
H1409 H 0.74508 0.76663 0.32745 0.0
H1410 H 0.7133 0.91843 0.31865 0.0
H1411 H 0.70808 0.86332 0.32165 0.0
H1412 H 0.70322 0.82461 0.3851 0.0
C1413 C 0.75174 0.7206 0.37658 0.0
C1414 C 0.73555 0.77907 0.34002 0.0
C1415 C 0.76025 0.69005 0.37781 0.0
C1416 C 0.71673 0.90786 0.33318 0.0
C1417 C 0.71404 0.87628 0.33492 0.0
C1418 C 0.71254 0.81236 0.37241 0.0
C1419 C 0.73459 0.73109 0.36017 0.0
C1420 C 0.72817 0.764 0.35797 0.0
C1421 C 0.71976 0.86167 0.3534 0.0
C1422 C 0.72096 0.82776 0.35467 0.0
H1423 H 0.7263 0.66405 0.33501 0.0
H1424 H 0.71194 0.71781 0.33258 0.0
H1425 H 0.71028 0.76969 0.38805 0.0
H1426 H 0.73482 0.92467 0.38173 0.0
H1427 H 0.73138 0.86953 0.38477 0.0
C1428 C 0.0912 0.7739 0.84135 0.0
C1429 C 0.07121 0.75218 0.84964 0.0
C1430 C 0.12243 0.77251 0.84508 0.0
C1431 C 0.17937 0.74154 0.8802 0.0
H1432 H 0.23529 0.75638 0.83611 0.0
C1433 C 0.30865 0.72247 0.88816 0.0
C1434 C 0.32831 0.74385 0.87921 0.0
C1435 C 0.27739 0.72321 0.88442 0.0
C1436 C 0.22001 0.75255 0.84864 0.0
H1437 H 0.06865 0.71203 0.86851 0.0
H1438 H 0.12331 0.70967 0.87512 0.0
H1439 H 0.18059 0.7579 0.83008 0.0
H1440 H 0.33038 0.78281 0.85928 0.0
H1441 H 0.27569 0.78425 0.85279 0.0
H1442 H 0.21878 0.73638 0.8988 0.0
C1443 C 0.11463 0.72791 0.86581 0.0
C1444 C 0.18864 0.75336 0.84518 0.0
C1445 C 0.08329 0.72927 0.86203 0.0
C1446 C 0.31593 0.76583 0.86624 0.0
C1447 C 0.28458 0.76662 0.86252 0.0
C1448 C 0.21076 0.74079 0.88368 0.0
C1449 C 0.13457 0.74942 0.85725 0.0
C1450 C 0.16794 0.74794 0.86092 0.0
C1451 C 0.2649 0.74539 0.87165 0.0
C1452 C 0.23148 0.74631 0.86794 0.0
H1453 H 0.08275 0.79231 0.83213 0.0
H1454 H 0.13705 0.78981 0.83861 0.0
H1455 H 0.16406 0.7377 0.89271 0.0
H1456 H 0.31744 0.70485 0.89791 0.0
H1457 H 0.26303 0.70612 0.89138 0.0
C1458 C 0.26158 0.3246 0.36217 0.0
C1459 C 0.24699 0.33458 0.37975 0.0
C1460 C 0.26992 0.29409 0.36004 0.0
C1461 C 0.28352 0.22221 0.38714 0.0
H1462 H 0.24939 0.18456 0.33948 0.0
C1463 C 0.26664 0.09189 0.3796 0.0
C1464 C 0.26651 0.07915 0.36028 0.0
C1465 C 0.27002 0.12337 0.38208 0.0
C1466 C 0.25981 0.1946 0.35267 0.0
H1467 H 0.23141 0.32109 0.40933 0.0
H1468 H 0.2463 0.26779 0.40573 0.0
H1469 H 0.24626 0.23925 0.34362 0.0
H1470 H 0.2721 0.08841 0.32859 0.0
H1471 H 0.27973 0.14296 0.3328 0.0
H1472 H 0.2972 0.17754 0.3962 0.0
C1473 C 0.25112 0.28348 0.39357 0.0
C1474 C 0.25786 0.22606 0.35504 0.0
C1475 C 0.24239 0.31387 0.39557 0.0
C1476 C 0.27172 0.09795 0.3436 0.0
C1477 C 0.2758 0.12921 0.34606 0.0
C1478 C 0.28593 0.19067 0.38462 0.0
C1479 C 0.26425 0.27313 0.37559 0.0
C1480 C 0.26929 0.24015 0.37241 0.0
C1481 C 0.2739 0.14256 0.36526 0.0
C1482 C 0.27371 0.17636 0.36746 0.0
H1483 H 0.26519 0.34003 0.3497 0.0
H1484 H 0.28013 0.28669 0.34605 0.0
H1485 H 0.29265 0.23257 0.40064 0.0
H1486 H 0.26246 0.0777 0.39264 0.0
H1487 H 0.26813 0.1327 0.39709 0.0
C1488 C 0.58249 0.76962 0.87191 0.0
C1489 C 0.56895 0.77774 0.85354 0.0
C1490 C 0.61412 0.7709 0.87425 0.0
C1491 C 0.68465 0.77019 0.8436 0.0
H1492 H 0.72351 0.78607 0.8949 0.0
C1493 C 0.81542 0.76789 0.85324 0.0
C1494 C 0.82586 0.75019 0.86943 0.0
C1495 C 0.7846 0.77553 0.85165 0.0
C1496 C 0.71294 0.78155 0.88049 0.0
H1497 H 0.57765 0.79527 0.82368 0.0
H1498 H 0.63274 0.79847 0.82788 0.0
H1499 H 0.66858 0.79266 0.89151 0.0
H1500 H 0.81247 0.72779 0.89708 0.0
H1501 H 0.75872 0.74118 0.89438 0.0
H1502 H 0.72904 0.75904 0.83262 0.0
C1503 C 0.61913 0.79016 0.84031 0.0
C1504 C 0.68144 0.78521 0.87854 0.0
C1505 C 0.58756 0.78852 0.8379 0.0
C1506 C 0.80502 0.74119 0.88434 0.0
C1507 C 0.77431 0.7491 0.88288 0.0
C1508 C 0.71614 0.76682 0.8455 0.0
C1509 C 0.63294 0.78064 0.85834 0.0
C1510 C 0.66678 0.77915 0.86014 0.0
C1511 C 0.76366 0.76595 0.86637 0.0
C1512 C 0.73059 0.77204 0.86403 0.0
H1513 H 0.56877 0.76082 0.88413 0.0
H1514 H 0.62383 0.76299 0.88827 0.0
H1515 H 0.67423 0.76471 0.82929 0.0
H1516 H 0.83088 0.77497 0.84145 0.0
H1517 H 0.77709 0.78871 0.83882 0.0
C1518 C 0.2129 0.59664 0.34011 0.0
C1519 C 0.22648 0.57685 0.35404 0.0
C1520 C 0.21371 0.62808 0.34309 0.0
C1521 C 0.23002 0.68779 0.38149 0.0
H1522 H 0.24483 0.73786 0.33444 0.0
C1523 C 0.27539 0.81116 0.3851 0.0
C1524 C 0.26265 0.83266 0.37194 0.0
C1525 C 0.26721 0.7805 0.38383 0.0
C1526 C 0.24026 0.72424 0.34768 0.0
H1527 H 0.25125 0.57443 0.38214 0.0
H1528 H 0.2534 0.62937 0.38719 0.0
H1529 H 0.23798 0.68323 0.33054 0.0
H1530 H 0.23097 0.839 0.34735 0.0
H1531 H 0.21675 0.78521 0.34499 0.0
H1532 H 0.23347 0.72895 0.39865 0.0
C1533 C 0.24147 0.62064 0.37416 0.0
C1534 C 0.23626 0.69288 0.34547 0.0
C1535 C 0.24034 0.58913 0.37127 0.0
C1536 C 0.241 0.82296 0.35775 0.0
C1537 C 0.23307 0.79218 0.35631 0.0
C1538 C 0.23433 0.71916 0.38371 0.0
C1539 C 0.22846 0.64056 0.35998 0.0
C1540 C 0.2313 0.67418 0.36236 0.0
C1541 C 0.24633 0.7706 0.36921 0.0
C1542 C 0.23971 0.73767 0.36684 0.0
H1543 H 0.2016 0.58775 0.32688 0.0
H1544 H 0.20283 0.6426 0.33209 0.0
H1545 H 0.22571 0.67423 0.3948 0.0
H1546 H 0.29188 0.81806 0.39632 0.0
H1547 H 0.27798 0.76438 0.39388 0.0
C1548 C 0.40801 0.23581 0.8688 0.0
C1549 C 0.42017 0.22401 0.85092 0.0
C1550 C 0.37645 0.23709 0.8716 0.0
C1551 C 0.30479 0.23686 0.84196 0.0
H1552 H 0.26695 0.22965 0.89442 0.0
C1553 C 0.17451 0.24257 0.85251 0.0
C1554 C 0.1647 0.26307 0.86734 0.0
C1555 C 0.20517 0.23428 0.85126 0.0
C1556 C 0.27726 0.23175 0.87968 0.0
H1557 H 0.40914 0.20262 0.82252 0.0
H1558 H 0.35426 0.20385 0.82758 0.0
H1559 H 0.3216 0.22102 0.89094 0.0
H1560 H 0.17896 0.28983 0.89303 0.0
H1561 H 0.23247 0.27529 0.89093 0.0
H1562 H 0.26041 0.24749 0.83073 0.0
C1563 C 0.36884 0.21318 0.83918 0.0
C1564 C 0.30859 0.22695 0.87768 0.0
C1565 C 0.4003 0.21232 0.83629 0.0
C1566 C 0.18596 0.27427 0.88131 0.0
C1567 C 0.21651 0.26572 0.88023 0.0
C1568 C 0.27348 0.24133 0.84393 0.0
C1569 C 0.35643 0.22622 0.85666 0.0
C1570 C 0.32283 0.22973 0.85881 0.0
C1571 C 0.22653 0.24602 0.86499 0.0
C1572 C 0.25942 0.23914 0.86283 0.0
H1573 H 0.42286 0.24521 0.88023 0.0
H1574 H 0.36781 0.24762 0.88515 0.0
H1575 H 0.31493 0.23988 0.82725 0.0
H1576 H 0.15867 0.23372 0.84147 0.0
H1577 H 0.21225 0.2189 0.83944 0.0
C1578 C 0.77065 0.18469 0.3895 0.0
C1579 C 0.75053 0.16551 0.379 0.0
C1580 C 0.77124 0.21593 0.38574 0.0
C1581 C 0.74709 0.27446 0.34871 0.0
H1582 H 0.75744 0.32923 0.39397 0.0
C1583 C 0.72218 0.40242 0.34315 0.0
C1584 C 0.74382 0.42274 0.3512 0.0
C1585 C 0.72425 0.37124 0.3467 0.0
C1586 C 0.75487 0.31421 0.38117 0.0
H1587 H 0.71543 0.16399 0.35619 0.0
H1588 H 0.71589 0.21876 0.34982 0.0
H1589 H 0.75828 0.27437 0.39948 0.0
H1590 H 0.78423 0.42587 0.36984 0.0
H1591 H 0.78747 0.37116 0.37638 0.0
H1592 H 0.74292 0.31444 0.33052 0.0
C1593 C 0.73169 0.20959 0.36073 0.0
C1594 C 0.7554 0.28274 0.38428 0.0
C1595 C 0.73133 0.17821 0.36438 0.0
C1596 C 0.7671 0.411 0.36347 0.0
C1597 C 0.769 0.37966 0.36718 0.0
C1598 C 0.74629 0.3059 0.34564 0.0
C1599 C 0.75152 0.22889 0.37148 0.0
C1600 C 0.75141 0.26243 0.3681 0.0
C1601 C 0.7478 0.35945 0.35859 0.0
C1602 C 0.75001 0.32611 0.36184 0.0
H1603 H 0.78616 0.17547 0.40057 0.0
H1604 H 0.78733 0.22988 0.39396 0.0
H1605 H 0.74454 0.2596 0.33583 0.0
H1606 H 0.70341 0.41051 0.33411 0.0
H1607 H 0.70718 0.35631 0.34025 0.0
C1608 C 0.10543 0.74247 0.17357 0.0
C1609 C 0.08608 0.74633 0.15699 0.0
C1610 C 0.13696 0.74211 0.17111 0.0
C1611 C 0.19884 0.73451 0.13315 0.0
H1612 H 0.24664 0.76997 0.17629 0.0
C1613 C 0.33195 0.74787 0.1328 0.0
C1614 C 0.34555 0.73404 0.14959 0.0
C1615 C 0.30025 0.75166 0.13199 0.0
C1616 C 0.23357 0.76008 0.1641 0.0
H1617 H 0.08448 0.7523 0.12471 0.0
H1618 H 0.13989 0.75244 0.12031 0.0
H1619 H 0.19136 0.77201 0.1778 0.0
H1620 H 0.33703 0.71435 0.17891 0.0
H1621 H 0.28202 0.72166 0.17776 0.0
H1622 H 0.24161 0.72303 0.11945 0.0
C1623 C 0.13066 0.74914 0.13525 0.0
C1624 C 0.20185 0.76096 0.16502 0.0
C1625 C 0.09893 0.74907 0.13772 0.0
C1626 C 0.32708 0.72479 0.16572 0.0
C1627 C 0.29566 0.72914 0.16511 0.0
C1628 C 0.23073 0.73404 0.13211 0.0
C1629 C 0.15012 0.74613 0.15199 0.0
C1630 C 0.18397 0.74745 0.14985 0.0
C1631 C 0.28187 0.74241 0.14821 0.0
C1632 C 0.24834 0.74619 0.14783 0.0
H1633 H 0.0961 0.73975 0.18854 0.0
H1634 H 0.151 0.7387 0.18429 0.0
H1635 H 0.18592 0.72375 0.12124 0.0
H1636 H 0.34578 0.75508 0.12018 0.0
H1637 H 0.29012 0.76204 0.11883 0.0
C1638 C 0.2519 0.32258 0.6597 0.0
C1639 C 0.23224 0.33399 0.64488 0.0
C1640 C 0.25887 0.29153 0.66033 0.0
C1641 C 0.22924 0.21702 0.64223 0.0
H1642 H 0.30696 0.18718 0.66142 0.0
C1643 C 0.25919 0.08923 0.64237 0.0
C1644 C 0.26991 0.07806 0.66085 0.0
C1645 C 0.25713 0.12057 0.63901 0.0
C1646 C 0.28515 0.19524 0.65605 0.0
H1647 H 0.20586 0.32242 0.61848 0.0
H1648 H 0.21875 0.26859 0.61905 0.0
H1649 H 0.29897 0.2419 0.65784 0.0
H1650 H 0.28816 0.09084 0.68992 0.0
H1651 H 0.28484 0.14562 0.68399 0.0
H1652 H 0.21561 0.17031 0.64027 0.0
C1653 C 0.22795 0.28318 0.63069 0.0
C1654 C 0.28047 0.22659 0.6541 0.0
C1655 C 0.22064 0.31406 0.63027 0.0
C1656 C 0.27954 0.09884 0.67562 0.0
C1657 C 0.27788 0.13015 0.67216 0.0
C1658 C 0.23407 0.18574 0.64394 0.0
C1659 C 0.24665 0.27132 0.64597 0.0
C1660 C 0.25234 0.23793 0.64731 0.0
C1661 C 0.26618 0.14134 0.65395 0.0
C1662 C 0.26195 0.17452 0.65103 0.0
H1663 H 0.26094 0.33746 0.67122 0.0
H1664 H 0.27303 0.28328 0.67248 0.0
H1665 H 0.20704 0.22475 0.63739 0.0
H1666 H 0.25142 0.07374 0.63079 0.0
H1667 H 0.24819 0.1286 0.62478 0.0
C1668 C 0.69272 0.22722 0.12437 0.0
C1669 C 0.67334 0.23825 0.13945 0.0
C1670 C 0.72387 0.2334 0.12497 0.0
C1671 C 0.78255 0.28201 0.14962 0.0
H1672 H 0.83568 0.21495 0.13563 0.0
C1673 C 0.9097 0.27601 0.17179 0.0
C1674 C 0.93019 0.26532 0.15721 0.0
C1675 C 0.87838 0.27542 0.1682 0.0
C1676 C 0.82116 0.23402 0.13933 0.0
H1677 H 0.67113 0.2649 0.16677 0.0
H1678 H 0.72573 0.27518 0.16819 0.0
H1679 H 0.7809 0.20907 0.13207 0.0
H1680 H 0.93397 0.24593 0.12736 0.0
H1681 H 0.87918 0.24483 0.12107 0.0
H1682 H 0.8231 0.30651 0.15751 0.0
C1683 C 0.71683 0.26227 0.15562 0.0
C1684 C 0.78972 0.23072 0.13725 0.0
C1685 C 0.68556 0.25636 0.15486 0.0
C1686 C 0.91875 0.25452 0.13881 0.0
C1687 C 0.88741 0.25366 0.13528 0.0
C1688 C 0.81404 0.2852 0.15187 0.0
C1689 C 0.73645 0.25045 0.14083 0.0
C1690 C 0.76998 0.25462 0.14242 0.0
C1691 C 0.86691 0.26387 0.15001 0.0
C1692 C 0.83363 0.26119 0.14682 0.0
H1693 H 0.68375 0.21366 0.11212 0.0
H1694 H 0.73813 0.22456 0.11306 0.0
H1695 H 0.76808 0.30104 0.15346 0.0
H1696 H 0.9179 0.28477 0.18602 0.0
H1697 H 0.8631 0.28324 0.17987 0.0
C1698 C 0.72903 0.90455 0.68245 0.0
C1699 C 0.73377 0.92329 0.66564 0.0
C1700 C 0.72589 0.87306 0.68016 0.0
C1701 C 0.71569 0.812 0.64125 0.0
H1702 H 0.75473 0.7618 0.68164 0.0
C1703 C 0.75905 0.68981 0.62748 0.0
C1704 C 0.75204 0.66773 0.64204 0.0
C1705 C 0.75167 0.72032 0.63066 0.0
C1706 C 0.74338 0.77551 0.67038 0.0
H1707 H 0.73879 0.92391 0.63326 0.0
H1708 H 0.73444 0.86913 0.62921 0.0
H1709 H 0.75145 0.81653 0.68673 0.0
H1710 H 0.73165 0.66006 0.67124 0.0
H1711 H 0.71932 0.71379 0.67708 0.0
H1712 H 0.70934 0.7708 0.62444 0.0
C1713 C 0.73206 0.87855 0.64416 0.0
C1714 C 0.74134 0.80693 0.6733 0.0
C1715 C 0.73466 0.91005 0.64645 0.0
C1716 C 0.73705 0.67665 0.65973 0.0
C1717 C 0.7302 0.70731 0.66311 0.0
C1718 C 0.71824 0.78063 0.63819 0.0
C1719 C 0.72802 0.85952 0.66101 0.0
C1720 C 0.72782 0.82572 0.65865 0.0
C1721 C 0.73762 0.72943 0.64863 0.0
C1722 C 0.73241 0.76217 0.65262 0.0
H1723 H 0.728 0.9143 0.69738 0.0
H1724 H 0.72213 0.85934 0.69345 0.0
H1725 H 0.70449 0.82549 0.62983 0.0
H1726 H 0.77045 0.68343 0.61368 0.0
H1727 H 0.75785 0.73695 0.61933 0.0
loop_
_geom_bond_atom_site_label_1
_geom_bond_atom_site_label_2
_geom_bond_distance
_geom_bond_site_symmetry_2
_ccdc_geom_bond_type
C0 C1 1.351 . S
C0 N3 1.368 . S
C0 H5 0.931 . S
C1 C0 1.351 . S
C1 N2 1.373 . S
C1 H29 0.930 . S
N2 C1 1.373 . S
N2 C4 1.340 . S
N3 C0 1.368 . S
N3 C4 1.321 . S
N3 Co6 2.135 1_655 S
C4 N2 1.340 . S
C4 N3 1.321 . S
C4 H28 0.930 . S
H5 C0 0.931 . S
Co6 N3 2.135 1_455 S
Co6 N9 2.121 . S
Co6 O14 2.055 . S
Co6 O17 2.039 . S
Co6 N20 2.140 . S
C7 O8 1.227 . S
C7 O17 1.265 . S
O8 C7 1.227 . S
N9 Co6 2.121 . S
N9 C11 1.375 . S
N9 C12 1.313 . S
C10 C11 1.338 . S
C10 N13 1.377 . S
C10 H30 0.930 . S
C11 N9 1.375 . S
C11 C10 1.338 . S
C11 H15 0.931 . S
C12 N9 1.313 . S
C12 N13 1.344 . S
C12 H16 0.930 . S
N13 C10 1.377 . S
N13 C12 1.344 . S
O14 Co6 2.055 . S
O14 C18 1.253 . S
H15 C11 0.931 . S
H16 C12 0.930 . S
O17 Co6 2.039 . S
O17 C7 1.265 . S
C18 O14 1.253 . S
C18 O19 1.227 . S
O19 C18 1.227 . S
N20 Co6 2.140 . S
N20 C23 1.346 . S
N20 C24 1.345 . S
C21 C22 1.387 . S
C21 C25 1.391 . S
C22 C21 1.387 . S
C22 C23 1.369 . S
C22 H31 0.929 1_455 S
C23 N20 1.346 . S
C23 C22 1.369 . S
C23 H26 0.928 1_455 S
C24 N20 1.345 . S
C24 C25 1.371 . S
C24 H27 0.931 . S
C25 C21 1.391 . S
C25 C24 1.371 . S
C25 H32 0.930 . S
H26 C23 0.928 1_655 S
H27 C24 0.931 . S
H28 C4 0.930 . S
H29 C1 0.930 . S
H30 C10 0.930 . S
H31 C22 0.929 1_655 S
H32 C25 0.930 . S
C33 C34 1.351 . S
C33 N36 1.368 . S
C33 H38 0.931 . S
C34 C33 1.351 . S
C34 N35 1.373 . S
C34 H62 0.930 . S
N35 C34 1.373 . S
N35 C37 1.340 . S
N36 C33 1.368 . S
N36 C37 1.321 . S
N36 Co39 2.135 1_565 S
C37 N35 1.340 . S
C37 N36 1.321 . S
C37 H61 0.930 . S
H38 C33 0.931 . S
Co39 N36 2.135 1_545 S
Co39 N42 2.121 . S
Co39 O47 2.055 . S
Co39 O50 2.039 . S
Co39 N53 2.140 . S
C40 O41 1.227 . S
C40 O50 1.265 . S
O41 C40 1.227 . S
N42 Co39 2.121 . S
N42 C44 1.375 . S
N42 C45 1.313 . S
C43 C44 1.338 . S
C43 N46 1.377 . S
C43 H63 0.930 . S
C44 N42 1.375 . S
C44 C43 1.338 . S
C44 H48 0.931 . S
C45 N42 1.313 . S
C45 N46 1.344 . S
C45 H49 0.930 . S
N46 C43 1.377 . S
N46 C45 1.344 . S
O47 Co39 2.055 . S
O47 C51 1.253 . S
H48 C44 0.931 . S
H49 C45 0.930 . S
O50 Co39 2.039 . S
O50 C40 1.265 . S
C51 O47 1.253 . S
C51 O52 1.227 . S
O52 C51 1.227 . S
N53 Co39 2.140 . S
N53 C56 1.346 . S
N53 C57 1.345 . S
C54 C55 1.387 . S
C54 C58 1.391 . S
C55 C54 1.387 . S
C55 C56 1.369 . S
C55 H64 0.929 1_545 S
C56 N53 1.346 . S
C56 C55 1.369 . S
C56 H59 0.928 1_545 S
C57 N53 1.345 . S
C57 C58 1.371 . S
C57 H60 0.931 . S
C58 C54 1.391 . S
C58 C57 1.371 . S
C58 H65 0.930 . S
H59 C56 0.928 1_565 S
H60 C57 0.931 . S
H61 C37 0.930 . S
H62 C34 0.930 . S
H63 C43 0.930 . S
H64 C55 0.929 1_565 S
H65 C58 0.930 . S
C66 C67 1.351 . S
C66 N69 1.368 . S
C66 H71 0.931 . S
C67 C66 1.351 . S
C67 N68 1.373 . S
C67 H95 0.930 . S
N68 C67 1.373 . S
N68 C70 1.340 . S
N69 C66 1.368 . S
N69 C70 1.321 . S
N69 Co72 2.135 1_455 S
C70 N68 1.340 . S
C70 N69 1.321 . S
C70 H94 0.930 . S
H71 C66 0.931 . S
Co72 N69 2.135 1_655 S
Co72 N75 2.121 . S
Co72 O80 2.055 . S
Co72 O83 2.039 . S
Co72 N86 2.140 . S
C73 O74 1.227 . S
C73 O83 1.265 . S
O74 C73 1.227 . S
N75 Co72 2.121 . S
N75 C77 1.375 . S
N75 C78 1.313 . S
C76 C77 1.338 . S
C76 N79 1.377 . S
C76 H96 0.930 . S
C77 N75 1.375 . S
C77 C76 1.338 . S
C77 H81 0.931 . S
C78 N75 1.313 . S
C78 N79 1.344 . S
C78 H82 0.930 . S
N79 C76 1.377 . S
N79 C78 1.344 . S
O80 Co72 2.055 . S
O80 C84 1.253 . S
H81 C77 0.931 . S
H82 C78 0.930 . S
O83 Co72 2.039 . S
O83 C73 1.265 . S
C84 O80 1.253 . S
C84 O85 1.227 . S
O85 C84 1.227 . S
N86 Co72 2.140 . S
N86 C89 1.346 . S
N86 C90 1.345 . S
C87 C88 1.387 . S
C87 C91 1.391 . S
C88 C87 1.387 . S
C88 C89 1.369 . S
C88 H97 0.929 1_655 S
C89 N86 1.346 . S
C89 C88 1.369 . S
C89 H92 0.928 1_655 S
C90 N86 1.345 . S
C90 C91 1.371 . S
C90 H93 0.931 . S
C91 C87 1.391 . S
C91 C90 1.371 . S
C91 H98 0.930 . S
H92 C89 0.928 1_455 S
H93 C90 0.931 . S
H94 C70 0.930 . S
H95 C67 0.930 . S
H96 C76 0.930 . S
H97 C88 0.929 1_455 S
H98 C91 0.930 . S
C99 C100 1.351 . S
C99 N102 1.368 . S
C99 H104 0.931 . S
C100 C99 1.351 . S
C100 N101 1.373 . S
C100 H128 0.930 . S
N101 C100 1.373 . S
N101 C103 1.340 . S
N102 C99 1.368 . S
N102 C103 1.321 . S
N102 Co105 2.135 1_545 S
C103 N101 1.340 . S
C103 N102 1.321 . S
C103 H127 0.930 . S
H104 C99 0.931 . S
Co105 N102 2.135 1_565 S
Co105 N108 2.121 . S
Co105 O113 2.055 . S
Co105 O116 2.039 . S
Co105 N119 2.140 . S
C106 O107 1.227 . S
C106 O116 1.265 . S
O107 C106 1.227 . S
N108 Co105 2.121 . S
N108 C110 1.375 . S
N108 C111 1.313 . S
C109 C110 1.338 . S
C109 N112 1.377 . S
C109 H129 0.930 . S
C110 N108 1.375 . S
C110 C109 1.338 . S
C110 H114 0.931 . S
C111 N108 1.313 . S
C111 N112 1.344 . S
C111 H115 0.930 . S
N112 C109 1.377 . S
N112 C111 1.344 . S
O113 Co105 2.055 . S
O113 C117 1.253 . S
H114 C110 0.931 . S
H115 C111 0.930 . S
O116 Co105 2.039 . S
O116 C106 1.265 . S
C117 O113 1.253 . S
C117 O118 1.227 . S
O118 C117 1.227 . S
N119 Co105 2.140 . S
N119 C122 1.346 . S
N119 C123 1.345 . S
C120 C121 1.387 . S
C120 C124 1.391 . S
C121 C120 1.387 . S
C121 C122 1.369 . S
C121 H130 0.929 1_565 S
C122 N119 1.346 . S
C122 C121 1.369 . S
C122 H125 0.928 1_565 S
C123 N119 1.345 . S
C123 C124 1.371 . S
C123 H126 0.931 . S
C124 C120 1.391 . S
C124 C123 1.371 . S
C124 H131 0.930 . S
H125 C122 0.928 1_545 S
H126 C123 0.931 . S
H127 C103 0.930 . S
H128 C100 0.930 . S
H129 C109 0.930 . S
H130 C121 0.929 1_545 S
H131 C124 0.930 . S
C132 C133 1.351 . S
C132 N135 1.368 . S
C132 H137 0.931 . S
C133 C132 1.351 . S
C133 N134 1.373 . S
C133 H161 0.930 . S
N134 C133 1.373 . S
N134 C136 1.340 . S
N135 C132 1.368 . S
N135 C136 1.321 . S
N135 Co138 2.135 . S
C136 N134 1.340 . S
C136 N135 1.321 . S
C136 H160 0.930 . S
H137 C132 0.931 . S
Co138 N135 2.135 . S
Co138 N141 2.121 . S
Co138 O146 2.055 . S
Co138 O149 2.039 . S
Co138 N152 2.140 . S
C139 O140 1.227 . S
C139 O149 1.265 . S
O140 C139 1.227 . S
N141 Co138 2.121 . S
N141 C143 1.375 . S
N141 C144 1.313 . S
C142 C143 1.338 . S
C142 N145 1.377 . S
C142 H162 0.930 . S
C143 N141 1.375 . S
C143 C142 1.338 . S
C143 H147 0.931 . S
C144 N141 1.313 . S
C144 N145 1.344 . S
C144 H148 0.930 . S
N145 C142 1.377 . S
N145 C144 1.344 . S
O146 Co138 2.055 . S
O146 C150 1.253 . S
H147 C143 0.931 . S
H148 C144 0.930 . S
O149 Co138 2.039 . S
O149 C139 1.265 . S
C150 O146 1.253 . S
C150 O151 1.227 . S
O151 C150 1.227 . S
N152 Co138 2.140 . S
N152 C155 1.346 . S
N152 C156 1.345 . S
C153 C154 1.387 . S
C153 C157 1.391 . S
C154 C153 1.387 . S
C154 C155 1.369 . S
C154 H163 0.929 . S
C155 N152 1.346 . S
C155 C154 1.369 . S
C155 H158 0.928 . S
C156 N152 1.345 . S
C156 C157 1.371 . S
C156 H159 0.931 . S
C157 C153 1.391 . S
C157 C156 1.371 . S
C157 H164 0.930 . S
H158 C155 0.928 . S
H159 C156 0.931 . S
H160 C136 0.930 . S
H161 C133 0.930 . S
H162 C142 0.930 . S
H163 C154 0.929 . S
H164 C157 0.930 . S
C165 C166 1.351 . S
C165 N168 1.368 . S
C165 H170 0.931 . S
C166 C165 1.351 . S
C166 N167 1.373 . S
C166 H194 0.930 . S
N167 C166 1.373 . S
N167 C169 1.340 . S
N168 C165 1.368 . S
N168 C169 1.321 . S
N168 Co171 2.135 . S
C169 N167 1.340 . S
C169 N168 1.321 . S
C169 H193 0.930 . S
H170 C165 0.931 . S
Co171 N168 2.135 . S
Co171 N174 2.121 . S
Co171 O179 2.055 . S
Co171 O182 2.039 . S
Co171 N185 2.140 . S
C172 O173 1.227 . S
C172 O182 1.265 . S
O173 C172 1.227 . S
N174 Co171 2.121 . S
N174 C176 1.375 . S
N174 C177 1.313 . S
C175 C176 1.338 . S
C175 N178 1.377 . S
C175 H195 0.930 . S
C176 N174 1.375 . S
C176 C175 1.338 . S
C176 H180 0.931 . S
C177 N174 1.313 . S
C177 N178 1.344 . S
C177 H181 0.930 . S
N178 C175 1.377 . S
N178 C177 1.344 . S
O179 Co171 2.055 . S
O179 C183 1.253 . S
H180 C176 0.931 . S
H181 C177 0.930 . S
O182 Co171 2.039 . S
O182 C172 1.265 . S
C183 O179 1.253 . S
C183 O184 1.227 . S
O184 C183 1.227 . S
N185 Co171 2.140 . S
N185 C188 1.346 . S
N185 C189 1.345 . S
C186 C187 1.387 . S
C186 C190 1.391 . S
C187 C186 1.387 . S
C187 C188 1.369 . S
C187 H196 0.929 . S
C188 N185 1.346 . S
C188 C187 1.369 . S
C188 H191 0.928 . S
C189 N185 1.345 . S
C189 C190 1.371 . S
C189 H192 0.931 . S
C190 C186 1.391 . S
C190 C189 1.371 . S
C190 H197 0.930 . S
H191 C188 0.928 . S
H192 C189 0.931 . S
H193 C169 0.930 . S
H194 C166 0.930 . S
H195 C175 0.930 . S
H196 C187 0.929 . S
H197 C190 0.930 . S
C198 C199 1.351 . S
C198 N201 1.368 . S
C198 H203 0.931 . S
C199 C198 1.351 . S
C199 N200 1.373 . S
C199 H227 0.930 . S
N200 C199 1.373 . S
N200 C202 1.340 . S
N201 C198 1.368 . S
N201 C202 1.321 . S
N201 Co204 2.135 . S
C202 N200 1.340 . S
C202 N201 1.321 . S
C202 H226 0.930 . S
H203 C198 0.931 . S
Co204 N201 2.135 . S
Co204 N207 2.121 . S
Co204 O212 2.055 . S
Co204 O215 2.039 . S
Co204 N218 2.140 . S
C205 O206 1.227 . S
C205 O215 1.265 . S
O206 C205 1.227 . S
N207 Co204 2.121 . S
N207 C209 1.375 . S
N207 C210 1.313 . S
C208 C209 1.338 . S
C208 N211 1.377 . S
C208 H228 0.930 . S
C209 N207 1.375 . S
C209 C208 1.338 . S
C209 H213 0.931 . S
C210 N207 1.313 . S
C210 N211 1.344 . S
C210 H214 0.930 . S
N211 C208 1.377 . S
N211 C210 1.344 . S
O212 Co204 2.055 . S
O212 C216 1.253 . S
H213 C209 0.931 . S
H214 C210 0.930 . S
O215 Co204 2.039 . S
O215 C205 1.265 . S
C216 O212 1.253 . S
C216 O217 1.227 . S
O217 C216 1.227 . S
N218 Co204 2.140 . S
N218 C221 1.346 . S
N218 C222 1.345 . S
C219 C220 1.387 . S
C219 C223 1.391 . S
C220 C219 1.387 . S
C220 C221 1.369 . S
C220 H229 0.929 . S
C221 N218 1.346 . S
C221 C220 1.369 . S
C221 H224 0.928 . S
C222 N218 1.345 . S
C222 C223 1.371 . S
C222 H225 0.931 . S
C223 C219 1.391 . S
C223 C222 1.371 . S
C223 H230 0.930 . S
H224 C221 0.928 . S
H225 C222 0.931 . S
H226 C202 0.930 . S
H227 C199 0.930 . S
H228 C208 0.930 . S
H229 C220 0.929 . S
H230 C223 0.930 . S
C231 C232 1.351 . S
C231 N234 1.368 . S
C231 H236 0.931 . S
C232 C231 1.351 . S
C232 N233 1.373 . S
C232 H260 0.930 . S
N233 C232 1.373 . S
N233 C235 1.340 . S
N234 C231 1.368 . S
N234 C235 1.321 . S
N234 Co237 2.135 . S
C235 N233 1.340 . S
C235 N234 1.321 . S
C235 H259 0.930 . S
H236 C231 0.931 . S
Co237 N234 2.135 . S
Co237 N240 2.121 . S
Co237 O245 2.055 . S
Co237 O248 2.039 . S
Co237 N251 2.140 . S
C238 O239 1.227 . S
C238 O248 1.265 . S
O239 C238 1.227 . S
N240 Co237 2.121 . S
N240 C242 1.375 . S
N240 C243 1.313 . S
C241 C242 1.338 . S
C241 N244 1.377 . S
C241 H261 0.930 . S
C242 N240 1.375 . S
C242 C241 1.338 . S
C242 H246 0.931 . S
C243 N240 1.313 . S
C243 N244 1.344 . S
C243 H247 0.930 . S
N244 C241 1.377 . S
N244 C243 1.344 . S
O245 Co237 2.055 . S
O245 C249 1.253 . S
H246 C242 0.931 . S
H247 C243 0.930 . S
O248 Co237 2.039 . S
O248 C238 1.265 . S
C249 O245 1.253 . S
C249 O250 1.227 . S
O250 C249 1.227 . S
N251 Co237 2.140 . S
N251 C254 1.346 . S
N251 C255 1.345 . S
C252 C253 1.387 . S
C252 C256 1.391 . S
C253 C252 1.387 . S
C253 C254 1.369 . S
C253 H262 0.929 . S
C254 N251 1.346 . S
C254 C253 1.369 . S
C254 H257 0.928 . S
C255 N251 1.345 . S
C255 C256 1.371 . S
C255 H258 0.931 . S
C256 C252 1.391 . S
C256 C255 1.371 . S
C256 H263 0.930 . S
H257 C254 0.928 . S
H258 C255 0.931 . S
H259 C235 0.930 . S
H260 C232 0.930 . S
H261 C241 0.930 . S
H262 C253 0.929 . S
H263 C256 0.930 . S
C264 C265 1.351 . S
C264 N267 1.368 . S
C264 H269 0.931 . S
C265 C264 1.351 . S
C265 N266 1.373 . S
C265 H293 0.930 . S
N266 C265 1.373 . S
N266 C268 1.340 . S
N267 C264 1.368 . S
N267 C268 1.321 . S
N267 Co270 2.135 1_455 S
C268 N266 1.340 . S
C268 N267 1.321 . S
C268 H292 0.930 . S
H269 C264 0.931 . S
Co270 N267 2.135 1_655 S
Co270 N273 2.121 . S
Co270 O278 2.055 . S
Co270 O281 2.039 . S
Co270 N284 2.140 . S
C271 O272 1.227 . S
C271 O281 1.265 . S
O272 C271 1.227 . S
N273 Co270 2.121 . S
N273 C275 1.375 . S
N273 C276 1.313 . S
C274 C275 1.338 . S
C274 N277 1.377 . S
C274 H294 0.930 . S
C275 N273 1.375 . S
C275 C274 1.338 . S
C275 H279 0.931 . S
C276 N273 1.313 . S
C276 N277 1.344 . S
C276 H280 0.930 . S
N277 C274 1.377 . S
N277 C276 1.344 . S
O278 Co270 2.055 . S
O278 C282 1.253 . S
H279 C275 0.931 . S
H280 C276 0.930 . S
O281 Co270 2.039 . S
O281 C271 1.265 . S
C282 O278 1.253 . S
C282 O283 1.227 . S
O283 C282 1.227 . S
N284 Co270 2.140 . S
N284 C287 1.346 . S
N284 C288 1.345 . S
C285 C286 1.387 . S
C285 C289 1.391 . S
C286 C285 1.387 . S
C286 C287 1.369 . S
C286 H295 0.929 1_655 S
C287 N284 1.346 . S
C287 C286 1.369 . S
C287 H290 0.928 1_655 S
C288 N284 1.345 . S
C288 C289 1.371 . S
C288 H291 0.931 . S
C289 C285 1.391 . S
C289 C288 1.371 . S
C289 H296 0.930 . S
H290 C287 0.928 1_455 S
H291 C288 0.931 . S
H292 C268 0.930 . S
H293 C265 0.930 . S
H294 C274 0.930 . S
H295 C286 0.929 1_455 S
H296 C289 0.930 . S
C297 C298 1.351 . S
C297 N300 1.368 . S
C297 H302 0.931 . S
C298 C297 1.351 . S
C298 N299 1.373 . S
C298 H326 0.930 . S
N299 C298 1.373 . S
N299 C301 1.340 . S
N300 C297 1.368 . S
N300 C301 1.321 . S
N300 Co303 2.135 1_545 S
C301 N299 1.340 . S
C301 N300 1.321 . S
C301 H325 0.930 . S
H302 C297 0.931 . S
Co303 N300 2.135 1_565 S
Co303 N306 2.121 . S
Co303 O311 2.055 . S
Co303 O314 2.039 . S
Co303 N317 2.140 . S
C304 O305 1.227 . S
C304 O314 1.265 . S
O305 C304 1.227 . S
N306 Co303 2.121 . S
N306 C308 1.375 . S
N306 C309 1.313 . S
C307 C308 1.338 . S
C307 N310 1.377 . S
C307 H327 0.930 . S
C308 N306 1.375 . S
C308 C307 1.338 . S
C308 H312 0.931 . S
C309 N306 1.313 . S
C309 N310 1.344 . S
C309 H313 0.930 . S
N310 C307 1.377 . S
N310 C309 1.344 . S
O311 Co303 2.055 . S
O311 C315 1.253 . S
H312 C308 0.931 . S
H313 C309 0.930 . S
O314 Co303 2.039 . S
O314 C304 1.265 . S
C315 O311 1.253 . S
C315 O316 1.227 . S
O316 C315 1.227 . S
N317 Co303 2.140 . S
N317 C320 1.346 . S
N317 C321 1.345 . S
C318 C319 1.387 . S
C318 C322 1.391 . S
C319 C318 1.387 . S
C319 C320 1.369 . S
C319 H328 0.929 1_565 S
C320 N317 1.346 . S
C320 C319 1.369 . S
C320 H323 0.928 1_565 S
C321 N317 1.345 . S
C321 C322 1.371 . S
C321 H324 0.931 . S
C322 C318 1.391 . S
C322 C321 1.371 . S
C322 H329 0.930 . S
H323 C320 0.928 1_545 S
H324 C321 0.931 . S
H325 C301 0.930 . S
H326 C298 0.930 . S
H327 C307 0.930 . S
H328 C319 0.929 1_545 S
H329 C322 0.930 . S
C330 C331 1.351 . S
C330 N333 1.368 . S
C330 H335 0.931 . S
C331 C330 1.351 . S
C331 N332 1.373 . S
C331 H359 0.930 . S
N332 C331 1.373 . S
N332 C334 1.340 . S
N333 C330 1.368 . S
N333 C334 1.321 . S
N333 Co336 2.135 1_655 S
C334 N332 1.340 . S
C334 N333 1.321 . S
C334 H358 0.930 . S
H335 C330 0.931 . S
Co336 N333 2.135 1_455 S
Co336 N339 2.121 . S
Co336 O344 2.055 . S
Co336 O347 2.039 . S
Co336 N350 2.140 . S
C337 O338 1.227 . S
C337 O347 1.265 . S
O338 C337 1.227 . S
N339 Co336 2.121 . S
N339 C341 1.375 . S
N339 C342 1.313 . S
C340 C341 1.338 . S
C340 N343 1.377 . S
C340 H360 0.930 . S
C341 N339 1.375 . S
C341 C340 1.338 . S
C341 H345 0.931 . S
C342 N339 1.313 . S
C342 N343 1.344 . S
C342 H346 0.930 . S
N343 C340 1.377 . S
N343 C342 1.344 . S
O344 Co336 2.055 . S
O344 C348 1.253 . S
H345 C341 0.931 . S
H346 C342 0.930 . S
O347 Co336 2.039 . S
O347 C337 1.265 . S
C348 O344 1.253 . S
C348 O349 1.227 . S
O349 C348 1.227 . S
N350 Co336 2.140 . S
N350 C353 1.346 . S
N350 C354 1.345 . S
C351 C352 1.387 . S
C351 C355 1.391 . S
C352 C351 1.387 . S
C352 C353 1.369 . S
C352 H361 0.929 1_455 S
C353 N350 1.346 . S
C353 C352 1.369 . S
C353 H356 0.928 1_455 S
C354 N350 1.345 . S
C354 C355 1.371 . S
C354 H357 0.931 . S
C355 C351 1.391 . S
C355 C354 1.371 . S
C355 H362 0.930 . S
H356 C353 0.928 1_655 S
H357 C354 0.931 . S
H358 C334 0.930 . S
H359 C331 0.930 . S
H360 C340 0.930 . S
H361 C352 0.929 1_655 S
H362 C355 0.930 . S
C363 C364 1.351 . S
C363 N366 1.368 . S
C363 H368 0.931 . S
C364 C363 1.351 . S
C364 N365 1.373 . S
C364 H392 0.930 . S
N365 C364 1.373 . S
N365 C367 1.340 . S
N366 C363 1.368 . S
N366 C367 1.321 . S
N366 Co369 2.135 1_565 S
C367 N365 1.340 . S
C367 N366 1.321 . S
C367 H391 0.930 . S
H368 C363 0.931 . S
Co369 N366 2.135 1_545 S
Co369 N372 2.121 . S
Co369 O377 2.055 . S
Co369 O380 2.039 . S
Co369 N383 2.140 . S
C370 O371 1.227 . S
C370 O380 1.265 . S
O371 C370 1.227 . S
N372 Co369 2.121 . S
N372 C374 1.375 . S
N372 C375 1.313 . S
C373 C374 1.338 . S
C373 N376 1.377 . S
C373 H393 0.930 . S
C374 N372 1.375 . S
C374 C373 1.338 . S
C374 H378 0.931 . S
C375 N372 1.313 . S
C375 N376 1.344 . S
C375 H379 0.930 . S
N376 C373 1.377 . S
N376 C375 1.344 . S
O377 Co369 2.055 . S
O377 C381 1.253 . S
H378 C374 0.931 . S
H379 C375 0.930 . S
O380 Co369 2.039 . S
O380 C370 1.265 . S
C381 O377 1.253 . S
C381 O382 1.227 . S
O382 C381 1.227 . S
N383 Co369 2.140 . S
N383 C386 1.346 . S
N383 C387 1.345 . S
C384 C385 1.387 . S
C384 C388 1.391 . S
C385 C384 1.387 . S
C385 C386 1.369 . S
C385 H394 0.929 1_545 S
C386 N383 1.346 . S
C386 C385 1.369 . S
C386 H389 0.928 1_545 S
C387 N383 1.345 . S
C387 C388 1.371 . S
C387 H390 0.931 . S
C388 C384 1.391 . S
C388 C387 1.371 . S
C388 H395 0.930 . S
H389 C386 0.928 1_565 S
H390 C387 0.931 . S
H391 C367 0.930 . S
H392 C364 0.930 . S
H393 C373 0.930 . S
H394 C385 0.929 1_565 S
H395 C388 0.930 . S
C396 C397 1.351 . S
C396 N399 1.368 . S
C396 H401 0.931 . S
C397 C396 1.351 . S
C397 N398 1.373 . S
C397 H425 0.930 . S
N398 C397 1.373 . S
N398 C400 1.340 . S
N399 C396 1.368 . S
N399 C400 1.321 . S
N399 Co402 2.135 . S
C400 N398 1.340 . S
C400 N399 1.321 . S
C400 H424 0.930 . S
H401 C396 0.931 . S
Co402 N399 2.135 . S
Co402 N405 2.121 . S
Co402 O410 2.055 . S
Co402 O413 2.039 . S
Co402 N416 2.140 . S
C403 O404 1.227 . S
C403 O413 1.265 . S
O404 C403 1.227 . S
N405 Co402 2.121 . S
N405 C407 1.375 . S
N405 C408 1.313 . S
C406 C407 1.338 . S
C406 N409 1.377 . S
C406 H426 0.930 . S
C407 N405 1.375 . S
C407 C406 1.338 . S
C407 H411 0.931 . S
C408 N405 1.313 . S
C408 N409 1.344 . S
C408 H412 0.930 . S
N409 C406 1.377 . S
N409 C408 1.344 . S
O410 Co402 2.055 . S
O410 C414 1.253 . S
H411 C407 0.931 . S
H412 C408 0.930 . S
O413 Co402 2.039 . S
O413 C403 1.265 . S
C414 O410 1.253 . S
C414 O415 1.227 . S
O415 C414 1.227 . S
N416 Co402 2.140 . S
N416 C419 1.346 . S
N416 C420 1.345 . S
C417 C418 1.387 . S
C417 C421 1.391 . S
C418 C417 1.387 . S
C418 C419 1.369 . S
C418 H427 0.929 . S
C419 N416 1.346 . S
C419 C418 1.369 . S
C419 H422 0.928 . S
C420 N416 1.345 . S
C420 C421 1.371 . S
C420 H423 0.931 . S
C421 C417 1.391 . S
C421 C420 1.371 . S
C421 H428 0.930 . S
H422 C419 0.928 . S
H423 C420 0.931 . S
H424 C400 0.930 . S
H425 C397 0.930 . S
H426 C406 0.930 . S
H427 C418 0.929 . S
H428 C421 0.930 . S
C429 C430 1.351 . S
C429 N432 1.368 . S
C429 H434 0.931 . S
C430 C429 1.351 . S
C430 N431 1.373 . S
C430 H458 0.930 . S
N431 C430 1.373 . S
N431 C433 1.340 . S
N432 C429 1.368 . S
N432 C433 1.321 . S
N432 Co435 2.135 . S
C433 N431 1.340 . S
C433 N432 1.321 . S
C433 H457 0.930 . S
H434 C429 0.931 . S
Co435 N432 2.135 . S
Co435 N438 2.121 . S
Co435 O443 2.055 . S
Co435 O446 2.039 . S
Co435 N449 2.140 . S
C436 O437 1.227 . S
C436 O446 1.265 . S
O437 C436 1.227 . S
N438 Co435 2.121 . S
N438 C440 1.375 . S
N438 C441 1.313 . S
C439 C440 1.338 . S
C439 N442 1.377 . S
C439 H459 0.930 . S
C440 N438 1.375 . S
C440 C439 1.338 . S
C440 H444 0.931 . S
C441 N438 1.313 . S
C441 N442 1.344 . S
C441 H445 0.930 . S
N442 C439 1.377 . S
N442 C441 1.344 . S
O443 Co435 2.055 . S
O443 C447 1.253 . S
H444 C440 0.931 . S
H445 C441 0.930 . S
O446 Co435 2.039 . S
O446 C436 1.265 . S
C447 O443 1.253 . S
C447 O448 1.227 . S
O448 C447 1.227 . S
N449 Co435 2.140 . S
N449 C452 1.346 . S
N449 C453 1.345 . S
C450 C451 1.387 . S
C450 C454 1.391 . S
C451 C450 1.387 . S
C451 C452 1.369 . S
C451 H460 0.929 . S
C452 N449 1.346 . S
C452 C451 1.369 . S
C452 H455 0.928 . S
C453 N449 1.345 . S
C453 C454 1.371 . S
C453 H456 0.931 . S
C454 C450 1.391 . S
C454 C453 1.371 . S
C454 H461 0.930 . S
H455 C452 0.928 . S
H456 C453 0.931 . S
H457 C433 0.930 . S
H458 C430 0.930 . S
H459 C439 0.930 . S
H460 C451 0.929 . S
H461 C454 0.930 . S
C462 C463 1.351 . S
C462 N465 1.368 . S
C462 H467 0.931 . S
C463 C462 1.351 . S
C463 N464 1.373 . S
C463 H491 0.930 . S
N464 C463 1.373 . S
N464 C466 1.340 . S
N465 C462 1.368 . S
N465 C466 1.321 . S
N465 Co468 2.135 . S
C466 N464 1.340 . S
C466 N465 1.321 . S
C466 H490 0.930 . S
H467 C462 0.931 . S
Co468 N465 2.135 . S
Co468 N471 2.121 . S
Co468 O476 2.055 . S
Co468 O479 2.039 . S
Co468 N482 2.140 . S
C469 O470 1.227 . S
C469 O479 1.265 . S
O470 C469 1.227 . S
N471 Co468 2.121 . S
N471 C473 1.375 . S
N471 C474 1.313 . S
C472 C473 1.338 . S
C472 N475 1.377 . S
C472 H492 0.930 . S
C473 N471 1.375 . S
C473 C472 1.338 . S
C473 H477 0.931 . S
C474 N471 1.313 . S
C474 N475 1.344 . S
C474 H478 0.930 . S
N475 C472 1.377 . S
N475 C474 1.344 . S
O476 Co468 2.055 . S
O476 C480 1.253 . S
H477 C473 0.931 . S
H478 C474 0.930 . S
O479 Co468 2.039 . S
O479 C469 1.265 . S
C480 O476 1.253 . S
C480 O481 1.227 . S
O481 C480 1.227 . S
N482 Co468 2.140 . S
N482 C485 1.346 . S
N482 C486 1.345 . S
C483 C484 1.387 . S
C483 C487 1.391 . S
C484 C483 1.387 . S
C484 C485 1.369 . S
C484 H493 0.929 . S
C485 N482 1.346 . S
C485 C484 1.369 . S
C485 H488 0.928 . S
C486 N482 1.345 . S
C486 C487 1.371 . S
C486 H489 0.931 . S
C487 C483 1.391 . S
C487 C486 1.371 . S
C487 H494 0.930 . S
H488 C485 0.928 . S
H489 C486 0.931 . S
H490 C466 0.930 . S
H491 C463 0.930 . S
H492 C472 0.930 . S
H493 C484 0.929 . S
H494 C487 0.930 . S
C495 C496 1.351 . S
C495 N498 1.368 . S
C495 H500 0.931 . S
C496 C495 1.351 . S
C496 N497 1.373 . S
C496 H524 0.930 . S
N497 C496 1.373 . S
N497 C499 1.340 . S
N498 C495 1.368 . S
N498 C499 1.321 . S
N498 Co501 2.135 . S
C499 N497 1.340 . S
C499 N498 1.321 . S
C499 H523 0.930 . S
H500 C495 0.931 . S
Co501 N498 2.135 . S
Co501 N504 2.121 . S
Co501 O509 2.055 . S
Co501 O512 2.039 . S
Co501 N515 2.140 . S
C502 O503 1.227 . S
C502 O512 1.265 . S
O503 C502 1.227 . S
N504 Co501 2.121 . S
N504 C506 1.375 . S
N504 C507 1.313 . S
C505 C506 1.338 . S
C505 N508 1.377 . S
C505 H525 0.930 . S
C506 N504 1.375 . S
C506 C505 1.338 . S
C506 H510 0.931 . S
C507 N504 1.313 . S
C507 N508 1.344 . S
C507 H511 0.930 . S
N508 C505 1.377 . S
N508 C507 1.344 . S
O509 Co501 2.055 . S
O509 C513 1.253 . S
H510 C506 0.931 . S
H511 C507 0.930 . S
O512 Co501 2.039 . S
O512 C502 1.265 . S
C513 O509 1.253 . S
C513 O514 1.227 . S
O514 C513 1.227 . S
N515 Co501 2.140 . S
N515 C518 1.346 . S
N515 C519 1.345 . S
C516 C517 1.387 . S
C516 C520 1.391 . S
C517 C516 1.387 . S
C517 C518 1.369 . S
C517 H526 0.929 . S
C518 N515 1.346 . S
C518 C517 1.369 . S
C518 H521 0.928 . S
C519 N515 1.345 . S
C519 C520 1.371 . S
C519 H522 0.931 . S
C520 C516 1.391 . S
C520 C519 1.371 . S
C520 H527 0.930 . S
H521 C518 0.928 . S
H522 C519 0.931 . S
H523 C499 0.930 . S
H524 C496 0.930 . S
H525 C505 0.930 . S
H526 C517 0.929 . S
H527 C520 0.930 . S
C528 C529 1.349 . S
C528 C530 1.327 . S
C528 H553 0.950 . S
C529 C528 1.349 . S
C529 C545 1.349 . S
C530 C528 1.327 . S
C530 C549 1.429 . S
C530 H554 0.950 . S
C531 C548 1.574 1_545 S
C531 C550 1.368 1_655 S
C531 H555 0.949 . S
H532 C536 0.949 . S
C533 C534 1.349 . S
C533 C535 1.327 . S
C533 H556 0.950 . S
C534 C533 1.349 . S
C534 C546 1.349 . S
C535 C533 1.327 . S
C535 C551 1.429 . S
C535 H557 0.950 . S
C536 H532 0.949 . S
C536 C544 1.574 1_565 S
C536 C552 1.368 1_455 S
H537 C545 0.950 1_655 S
H538 C543 0.950 . S
H539 C544 0.949 . S
H540 C546 0.950 1_455 S
H541 C547 0.950 . S
H542 C548 0.949 . S
C543 H538 0.950 . S
C543 C545 1.327 1_655 S
C543 C549 1.429 1_655 S
C544 C536 1.574 1_545 S
C544 H539 0.949 . S
C544 C550 1.368 . S
C545 C529 1.349 . S
C545 H537 0.950 1_455 S
C545 C543 1.327 1_455 S
C546 C534 1.349 . S
C546 H540 0.950 1_655 S
C546 C547 1.327 1_655 S
C547 H541 0.950 . S
C547 C546 1.327 1_455 S
C547 C551 1.429 1_455 S
C548 C531 1.574 1_565 S
C548 H542 0.949 . S
C548 C552 1.368 . S
C549 C530 1.429 . S
C549 C543 1.429 1_455 S
C549 C550 1.523 . S
C550 C531 1.368 1_455 S
C550 C544 1.368 . S
C550 C549 1.523 . S
C551 C535 1.429 . S
C551 C547 1.429 1_655 S
C551 C552 1.523 . S
C552 C536 1.368 1_655 S
C552 C548 1.368 . S
C552 C551 1.523 . S
H553 C528 0.950 . S
H554 C530 0.950 . S
H555 C531 0.949 . S
H556 C533 0.950 . S
H557 C535 0.950 . S
C558 C559 1.349 . S
C558 C560 1.327 1_565 S
C558 H583 0.950 1_565 S
C559 C558 1.349 . S
C559 C575 1.349 . S
C560 C558 1.327 1_545 S
C560 C579 1.429 1_545 S
C560 H584 0.950 . S
C561 C578 1.574 1_455 S
C561 C580 1.368 . S
C561 H585 0.949 . S
H562 C566 0.949 . S
C563 C564 1.349 . S
C563 C565 1.327 1_545 S
C563 H586 0.950 1_545 S
C564 C563 1.349 . S
C564 C576 1.349 . S
C565 C563 1.327 1_565 S
C565 C581 1.429 1_565 S
C565 H587 0.950 . S
C566 H562 0.949 . S
C566 C574 1.574 1_655 S
C566 C582 1.368 . S
H567 C575 0.950 . S
H568 C573 0.950 . S
H569 C574 0.949 . S
H570 C576 0.950 . S
H571 C577 0.950 . S
H572 C578 0.949 . S
C573 H568 0.950 . S
C573 C575 1.327 . S
C573 C579 1.429 . S
C574 C566 1.574 1_455 S
C574 H569 0.949 . S
C574 C580 1.368 1_545 S
C575 C559 1.349 . S
C575 H567 0.950 . S
C575 C573 1.327 . S
C576 C564 1.349 . S
C576 H570 0.950 . S
C576 C577 1.327 . S
C577 H571 0.950 . S
C577 C576 1.327 . S
C577 C581 1.429 . S
C578 C561 1.574 1_655 S
C578 H572 0.949 . S
C578 C582 1.368 1_565 S
C579 C560 1.429 1_565 S
C579 C573 1.429 . S
C579 C580 1.523 . S
C580 C561 1.368 . S
C580 C574 1.368 1_565 S
C580 C579 1.523 . S
C581 C565 1.429 1_545 S
C581 C577 1.429 . S
C581 C582 1.523 . S
C582 C566 1.368 . S
C582 C578 1.368 1_545 S
C582 C581 1.523 . S
H583 C558 0.950 1_545 S
H584 C560 0.950 . S
H585 C561 0.949 . S
H586 C563 0.950 1_565 S
H587 C565 0.950 . S
C588 C589 1.349 . S
C588 C590 1.327 . S
C588 H613 0.950 . S
C589 C588 1.349 . S
C589 C605 1.349 . S
C590 C588 1.327 . S
C590 C609 1.429 . S
C590 H614 0.950 . S
C591 C608 1.574 . S
C591 C610 1.368 . S
C591 H615 0.949 . S
H592 C596 0.949 . S
C593 C594 1.349 . S
C593 C595 1.327 . S
C593 H616 0.950 . S
C594 C593 1.349 . S
C594 C606 1.349 . S
C595 C593 1.327 . S
C595 C611 1.429 . S
C595 H617 0.950 . S
C596 H592 0.949 . S
C596 C604 1.574 . S
C596 C612 1.368 . S
H597 C605 0.950 . S
H598 C603 0.950 . S
H599 C604 0.949 . S
H600 C606 0.950 . S
H601 C607 0.950 . S
H602 C608 0.949 . S
C603 H598 0.950 . S
C603 C605 1.327 . S
C603 C609 1.429 . S
C604 C596 1.574 . S
C604 H599 0.949 . S
C604 C610 1.368 . S
C605 C589 1.349 . S
C605 H597 0.950 . S
C605 C603 1.327 . S
C606 C594 1.349 . S
C606 H600 0.950 . S
C606 C607 1.327 . S
C607 H601 0.950 . S
C607 C606 1.327 . S
C607 C611 1.429 . S
C608 C591 1.574 . S
C608 H602 0.949 . S
C608 C612 1.368 . S
C609 C590 1.429 . S
C609 C603 1.429 . S
C609 C610 1.523 . S
C610 C591 1.368 . S
C610 C604 1.368 . S
C610 C609 1.523 . S
C611 C595 1.429 . S
C611 C607 1.429 . S
C611 C612 1.523 . S
C612 C596 1.368 . S
C612 C608 1.368 . S
C612 C611 1.523 . S
H613 C588 0.950 . S
H614 C590 0.950 . S
H615 C591 0.949 . S
H616 C593 0.950 . S
H617 C595 0.950 . S
C618 C619 1.349 . S
C618 C620 1.327 . S
C618 H643 0.950 . S
C619 C618 1.349 . S
C619 C635 1.349 . S
C620 C618 1.327 . S
C620 C639 1.429 . S
C620 H644 0.950 . S
C621 C638 1.574 . S
C621 C640 1.368 . S
C621 H645 0.949 . S
H622 C626 0.949 . S
C623 C624 1.349 . S
C623 C625 1.327 . S
C623 H646 0.950 . S
C624 C623 1.349 . S
C624 C636 1.349 . S
C625 C623 1.327 . S
C625 C641 1.429 . S
C625 H647 0.950 . S
C626 H622 0.949 . S
C626 C634 1.574 . S
C626 C642 1.368 . S
H627 C635 0.950 . S
H628 C633 0.950 . S
H629 C634 0.949 . S
H630 C636 0.950 . S
H631 C637 0.950 . S
H632 C638 0.949 . S
C633 H628 0.950 . S
C633 C635 1.327 . S
C633 C639 1.429 . S
C634 C626 1.574 . S
C634 H629 0.949 . S
C634 C640 1.368 . S
C635 C619 1.349 . S
C635 H627 0.950 . S
C635 C633 1.327 . S
C636 C624 1.349 . S
C636 H630 0.950 . S
C636 C637 1.327 . S
C637 H631 0.950 . S
C637 C636 1.327 . S
C637 C641 1.429 . S
C638 C621 1.574 . S
C638 H632 0.949 . S
C638 C642 1.368 . S
C639 C620 1.429 . S
C639 C633 1.429 . S
C639 C640 1.523 . S
C640 C621 1.368 . S
C640 C634 1.368 . S
C640 C639 1.523 . S
C641 C625 1.429 . S
C641 C637 1.429 . S
C641 C642 1.523 . S
C642 C626 1.368 . S
C642 C638 1.368 . S
C642 C641 1.523 . S
H643 C618 0.950 . S
H644 C620 0.950 . S
H645 C621 0.949 . S
H646 C623 0.950 . S
H647 C625 0.950 . S
C648 C649 1.349 . S
C648 C650 1.327 1_455 S
C648 H673 0.950 1_455 S
C649 C648 1.349 . S
C649 C665 1.349 . S
C650 C648 1.327 1_655 S
C650 C669 1.429 1_655 S
C650 H674 0.950 . S
C651 C668 1.574 1_545 S
C651 C670 1.368 . S
C651 H675 0.949 . S
H652 C656 0.949 . S
C653 C654 1.349 . S
C653 C655 1.327 1_655 S
C653 H676 0.950 1_655 S
C654 C653 1.349 . S
C654 C666 1.349 . S
C655 C653 1.327 1_455 S
C655 C671 1.429 1_455 S
C655 H677 0.950 . S
C656 H652 0.949 . S
C656 C664 1.574 1_565 S
C656 C672 1.368 . S
H657 C665 0.950 . S
H658 C663 0.950 . S
H659 C664 0.949 . S
H660 C666 0.950 . S
H661 C667 0.950 . S
H662 C668 0.949 . S
C663 H658 0.950 . S
C663 C665 1.327 . S
C663 C669 1.429 . S
C664 C656 1.574 1_545 S
C664 H659 0.949 . S
C664 C670 1.368 1_655 S
C665 C649 1.349 . S
C665 H657 0.950 . S
C665 C663 1.327 . S
C666 C654 1.349 . S
C666 H660 0.950 . S
C666 C667 1.327 . S
C667 H661 0.950 . S
C667 C666 1.327 . S
C667 C671 1.429 . S
C668 C651 1.574 1_565 S
C668 H662 0.949 . S
C668 C672 1.368 1_455 S
C669 C650 1.429 1_455 S
C669 C663 1.429 . S
C669 C670 1.523 . S
C670 C651 1.368 . S
C670 C664 1.368 1_455 S
C670 C669 1.523 . S
C671 C655 1.429 1_655 S
C671 C667 1.429 . S
C671 C672 1.523 . S
C672 C656 1.368 . S
C672 C668 1.368 1_655 S
C672 C671 1.523 . S
H673 C648 0.950 1_655 S
H674 C650 0.950 . S
H675 C651 0.949 . S
H676 C653 0.950 1_455 S
H677 C655 0.950 . S
C678 C679 1.349 . S
C678 C680 1.327 1_565 S
C678 H703 0.950 1_565 S
C679 C678 1.349 . S
C679 C695 1.349 . S
C680 C678 1.327 1_545 S
C680 C699 1.429 1_545 S
C680 H704 0.950 . S
C681 C698 1.574 1_455 S
C681 C700 1.368 . S
C681 H705 0.949 . S
H682 C686 0.949 . S
C683 C684 1.349 . S
C683 C685 1.327 1_545 S
C683 H706 0.950 1_545 S
C684 C683 1.349 . S
C684 C696 1.349 . S
C685 C683 1.327 1_565 S
C685 C701 1.429 1_565 S
C685 H707 0.950 . S
C686 H682 0.949 . S
C686 C694 1.574 1_655 S
C686 C702 1.368 . S
H687 C695 0.950 . S
H688 C693 0.950 . S
H689 C694 0.949 . S
H690 C696 0.950 . S
H691 C697 0.950 . S
H692 C698 0.949 . S
C693 H688 0.950 . S
C693 C695 1.327 . S
C693 C699 1.429 . S
C694 C686 1.574 1_455 S
C694 H689 0.949 . S
C694 C700 1.368 1_545 S
C695 C679 1.349 . S
C695 H687 0.950 . S
C695 C693 1.327 . S
C696 C684 1.349 . S
C696 H690 0.950 . S
C696 C697 1.327 . S
C697 H691 0.950 . S
C697 C696 1.327 . S
C697 C701 1.429 . S
C698 C681 1.574 1_655 S
C698 H692 0.949 . S
C698 C702 1.368 1_565 S
C699 C680 1.429 1_565 S
C699 C693 1.429 . S
C699 C700 1.523 . S
C700 C681 1.368 . S
C700 C694 1.368 1_565 S
C700 C699 1.523 . S
C701 C685 1.429 1_545 S
C701 C697 1.429 . S
C701 C702 1.523 . S
C702 C686 1.368 . S
C702 C698 1.368 1_545 S
C702 C701 1.523 . S
H703 C678 0.950 1_545 S
H704 C680 0.950 . S
H705 C681 0.949 . S
H706 C683 0.950 1_565 S
H707 C685 0.950 . S
C708 C709 1.349 . S
C708 C710 1.327 . S
C708 H733 0.950 . S
C709 C708 1.349 . S
C709 C725 1.349 . S
C710 C708 1.327 . S
C710 C729 1.429 . S
C710 H734 0.950 . S
C711 C728 1.574 . S
C711 C730 1.368 . S
C711 H735 0.949 . S
H712 C716 0.949 . S
C713 C714 1.349 . S
C713 C715 1.327 . S
C713 H736 0.950 . S
C714 C713 1.349 . S
C714 C726 1.349 . S
C715 C713 1.327 . S
C715 C731 1.429 . S
C715 H737 0.950 . S
C716 H712 0.949 . S
C716 C724 1.574 . S
C716 C732 1.368 . S
H717 C725 0.950 . S
H718 C723 0.950 . S
H719 C724 0.949 . S
H720 C726 0.950 . S
H721 C727 0.950 . S
H722 C728 0.949 . S
C723 H718 0.950 . S
C723 C725 1.327 . S
C723 C729 1.429 . S
C724 C716 1.574 . S
C724 H719 0.949 . S
C724 C730 1.368 . S
C725 C709 1.349 . S
C725 H717 0.950 . S
C725 C723 1.327 . S
C726 C714 1.349 . S
C726 H720 0.950 . S
C726 C727 1.327 . S
C727 H721 0.950 . S
C727 C726 1.327 . S
C727 C731 1.429 . S
C728 C711 1.574 . S
C728 H722 0.949 . S
C728 C732 1.368 . S
C729 C710 1.429 . S
C729 C723 1.429 . S
C729 C730 1.523 . S
C730 C711 1.368 . S
C730 C724 1.368 . S
C730 C729 1.523 . S
C731 C715 1.429 . S
C731 C727 1.429 . S
C731 C732 1.523 . S
C732 C716 1.368 . S
C732 C728 1.368 . S
C732 C731 1.523 . S
H733 C708 0.950 . S
H734 C710 0.950 . S
H735 C711 0.949 . S
H736 C713 0.950 . S
H737 C715 0.950 . S
C738 C739 1.349 . S
C738 C740 1.327 . S
C738 H763 0.950 . S
C739 C738 1.349 . S
C739 C755 1.349 . S
C740 C738 1.327 . S
C740 C759 1.429 . S
C740 H764 0.950 . S
C741 C758 1.574 . S
C741 C760 1.368 . S
C741 H765 0.949 . S
H742 C746 0.949 . S
C743 C744 1.349 . S
C743 C745 1.327 . S
C743 H766 0.950 . S
C744 C743 1.349 . S
C744 C756 1.349 . S
C745 C743 1.327 . S
C745 C761 1.429 . S
C745 H767 0.950 . S
C746 H742 0.949 . S
C746 C754 1.574 . S
C746 C762 1.368 . S
H747 C755 0.950 . S
H748 C753 0.950 . S
H749 C754 0.949 . S
H750 C756 0.950 . S
H751 C757 0.950 . S
H752 C758 0.949 . S
C753 H748 0.950 . S
C753 C755 1.327 . S
C753 C759 1.429 . S
C754 C746 1.574 . S
C754 H749 0.949 . S
C754 C760 1.368 . S
C755 C739 1.349 . S
C755 H747 0.950 . S
C755 C753 1.327 . S
C756 C744 1.349 . S
C756 H750 0.950 . S
C756 C757 1.327 . S
C757 H751 0.950 . S
C757 C756 1.327 . S
C757 C761 1.429 . S
C758 C741 1.574 . S
C758 H752 0.949 . S
C758 C762 1.368 . S
C759 C740 1.429 . S
C759 C753 1.429 . S
C759 C760 1.523 . S
C760 C741 1.368 . S
C760 C754 1.368 . S
C760 C759 1.523 . S
C761 C745 1.429 . S
C761 C757 1.429 . S
C761 C762 1.523 . S
C762 C746 1.368 . S
C762 C758 1.368 . S
C762 C761 1.523 . S
H763 C738 0.950 . S
H764 C740 0.950 . S
H765 C741 0.949 . S
H766 C743 0.950 . S
H767 C745 0.950 . S
C768 C769 1.349 . S
C768 C770 1.327 . S
C768 H793 0.951 . S
C769 C768 1.349 . S
C769 C785 1.349 . S
C770 C768 1.327 . S
C770 C789 1.429 . S
C770 H794 0.940 1_455 S
C771 C788 1.574 1_554 S
C771 C790 1.368 . S
C771 H795 0.949 . S
H772 C776 0.936 1_655 S
C773 C774 1.349 . S
C773 C775 1.327 . S
C773 H796 0.950 . S
C774 C773 1.349 . S
C774 C786 1.349 . S
C775 C773 1.327 . S
C775 C791 1.429 . S
C775 H797 0.950 . S
C776 H772 0.936 1_455 S
C776 C784 1.574 1_556 S
C776 C792 1.368 . S
H777 C785 0.950 . S
H778 C783 0.950 . S
H779 C784 0.936 1_655 S
H780 C786 0.951 . S
H781 C787 0.940 1_655 S
H782 C788 0.949 . S
C783 H778 0.950 . S
C783 C785 1.327 . S
C783 C789 1.429 . S
C784 C776 1.574 1_554 S
C784 H779 0.936 1_455 S
C784 C790 1.368 . S
C785 C769 1.349 . S
C785 H777 0.950 . S
C785 C783 1.327 . S
C786 C774 1.349 . S
C786 H780 0.951 . S
C786 C787 1.327 . S
C787 H781 0.940 1_455 S
C787 C786 1.327 . S
C787 C791 1.429 . S
C788 C771 1.574 1_556 S
C788 H782 0.949 . S
C788 C792 1.368 . S
C789 C770 1.429 . S
C789 C783 1.429 . S
C789 C790 1.523 . S
C790 C771 1.368 . S
C790 C784 1.368 . S
C790 C789 1.523 . S
C791 C775 1.429 . S
C791 C787 1.429 . S
C791 C792 1.523 . S
C792 C776 1.368 . S
C792 C788 1.368 . S
C792 C791 1.523 . S
H793 C768 0.951 . S
H794 C770 0.940 1_655 S
H795 C771 0.949 . S
H796 C773 0.950 . S
H797 C775 0.950 . S
C798 C799 1.349 . S
C798 C800 1.327 . S
C798 H823 0.950 1_545 S
C799 C798 1.349 . S
C799 C815 1.349 . S
C800 C798 1.327 . S
C800 C819 1.429 . S
C800 H824 0.950 1_545 S
C801 C818 1.574 . S
C801 C820 1.368 . S
C801 H825 0.949 . S
H802 C806 0.949 1_565 S
C803 C804 1.349 . S
C803 C805 1.327 . S
C803 H826 0.950 . S
C804 C803 1.349 . S
C804 C816 1.349 . S
C805 C803 1.327 . S
C805 C821 1.429 . S
C805 H827 0.950 . S
C806 H802 0.949 1_545 S
C806 C814 1.574 . S
C806 C822 1.368 . S
H807 C815 0.950 . S
H808 C813 0.950 . S
H809 C814 0.949 1_565 S
H810 C816 0.950 1_565 S
H811 C817 0.950 1_565 S
H812 C818 0.949 . S
C813 H808 0.950 . S
C813 C815 1.327 . S
C813 C819 1.429 . S
C814 C806 1.574 . S
C814 H809 0.949 1_545 S
C814 C820 1.368 . S
C815 C799 1.349 . S
C815 H807 0.950 . S
C815 C813 1.327 . S
C816 C804 1.349 . S
C816 H810 0.950 1_545 S
C816 C817 1.327 . S
C817 H811 0.950 1_545 S
C817 C816 1.327 . S
C817 C821 1.429 . S
C818 C801 1.574 . S
C818 H812 0.949 . S
C818 C822 1.368 . S
C819 C800 1.429 . S
C819 C813 1.429 . S
C819 C820 1.523 . S
C820 C801 1.368 . S
C820 C814 1.368 . S
C820 C819 1.523 . S
C821 C805 1.429 . S
C821 C817 1.429 . S
C821 C822 1.523 . S
C822 C806 1.368 . S
C822 C818 1.368 . S
C822 C821 1.523 . S
H823 C798 0.950 1_565 S
H824 C800 0.950 1_565 S
H825 C801 0.949 . S
H826 C803 0.950 . S
H827 C805 0.950 . S
C828 C829 1.349 . S
C828 C830 1.327 . S
C828 H853 0.951 . S
C829 C828 1.349 . S
C829 C845 1.349 . S
C830 C828 1.327 . S
C830 C849 1.429 . S
C830 H854 0.940 1_655 S
C831 C848 1.574 1_556 S
C831 C850 1.368 . S
C831 H855 0.949 . S
H832 C836 0.936 1_455 S
C833 C834 1.349 . S
C833 C835 1.327 . S
C833 H856 0.950 . S
C834 C833 1.349 . S
C834 C846 1.349 . S
C835 C833 1.327 . S
C835 C851 1.429 . S
C835 H857 0.950 . S
C836 H832 0.936 1_655 S
C836 C844 1.574 1_554 S
C836 C852 1.368 . S
H837 C845 0.950 . S
H838 C843 0.950 . S
H839 C844 0.936 1_455 S
H840 C846 0.951 . S
H841 C847 0.940 1_455 S
H842 C848 0.949 . S
C843 H838 0.950 . S
C843 C845 1.327 . S
C843 C849 1.429 . S
C844 C836 1.574 1_556 S
C844 H839 0.936 1_655 S
C844 C850 1.368 . S
C845 C829 1.349 . S
C845 H837 0.950 . S
C845 C843 1.327 . S
C846 C834 1.349 . S
C846 H840 0.951 . S
C846 C847 1.327 . S
C847 H841 0.940 1_655 S
C847 C846 1.327 . S
C847 C851 1.429 . S
C848 C831 1.574 1_554 S
C848 H842 0.949 . S
C848 C852 1.368 . S
C849 C830 1.429 . S
C849 C843 1.429 . S
C849 C850 1.523 . S
C850 C831 1.368 . S
C850 C844 1.368 . S
C850 C849 1.523 . S
C851 C835 1.429 . S
C851 C847 1.429 . S
C851 C852 1.523 . S
C852 C836 1.368 . S
C852 C848 1.368 . S
C852 C851 1.523 . S
H853 C828 0.951 . S
H854 C830 0.940 1_455 S
H855 C831 0.949 . S
H856 C833 0.950 . S
H857 C835 0.950 . S
C858 C859 1.349 . S
C858 C860 1.327 . S
C858 H883 0.950 . S
C859 C858 1.349 . S
C859 C875 1.349 . S
C860 C858 1.327 . S
C860 C879 1.429 . S
C860 H884 0.950 . S
C861 C878 1.574 . S
C861 C880 1.368 . S
C861 H885 0.949 1_565 S
H862 C866 0.949 . S
C863 C864 1.349 . S
C863 C865 1.327 . S
C863 H886 0.950 1_565 S
C864 C863 1.349 . S
C864 C876 1.349 . S
C865 C863 1.327 . S
C865 C881 1.429 . S
C865 H887 0.950 1_565 S
C866 H862 0.949 . S
C866 C874 1.574 . S
C866 C882 1.368 . S
H867 C875 0.950 1_545 S
H868 C873 0.950 1_545 S
H869 C874 0.949 . S
H870 C876 0.950 . S
H871 C877 0.950 . S
H872 C878 0.949 1_545 S
C873 H868 0.950 1_565 S
C873 C875 1.327 . S
C873 C879 1.429 . S
C874 C866 1.574 . S
C874 H869 0.949 . S
C874 C880 1.368 . S
C875 C859 1.349 . S
C875 H867 0.950 1_565 S
C875 C873 1.327 . S
C876 C864 1.349 . S
C876 H870 0.950 . S
C876 C877 1.327 . S
C877 H871 0.950 . S
C877 C876 1.327 . S
C877 C881 1.429 . S
C878 C861 1.574 . S
C878 H872 0.949 1_565 S
C878 C882 1.368 . S
C879 C860 1.429 . S
C879 C873 1.429 . S
C879 C880 1.523 . S
C880 C861 1.368 . S
C880 C874 1.368 . S
C880 C879 1.523 . S
C881 C865 1.429 . S
C881 C877 1.429 . S
C881 C882 1.523 . S
C882 C866 1.368 . S
C882 C878 1.368 . S
C882 C881 1.523 . S
H883 C858 0.950 . S
H884 C860 0.950 . S
H885 C861 0.949 1_545 S
H886 C863 0.950 1_545 S
H887 C865 0.950 1_545 S
C888 C889 1.349 . S
C888 C890 1.327 . S
C888 H913 0.950 . S
C889 C888 1.349 . S
C889 C905 1.349 . S
C890 C888 1.327 . S
C890 C909 1.429 . S
C890 H914 0.950 . S
C891 C908 1.574 1_554 S
C891 C910 1.368 . S
C891 H915 0.949 . S
H892 C896 0.949 . S
C893 C894 1.349 . S
C893 C895 1.327 . S
C893 H916 0.950 . S
C894 C893 1.349 . S
C894 C906 1.349 . S
C895 C893 1.327 . S
C895 C911 1.429 . S
C895 H917 0.950 . S
C896 H892 0.949 . S
C896 C904 1.574 1_556 S
C896 C912 1.368 . S
H897 C905 0.950 . S
H898 C903 0.950 . S
H899 C904 0.949 . S
H900 C906 0.950 . S
H901 C907 0.950 . S
H902 C908 0.949 . S
C903 H898 0.950 . S
C903 C905 1.327 . S
C903 C909 1.429 . S
C904 C896 1.574 1_554 S
C904 H899 0.949 . S
C904 C910 1.368 . S
C905 C889 1.349 . S
C905 H897 0.950 . S
C905 C903 1.327 . S
C906 C894 1.349 . S
C906 H900 0.950 . S
C906 C907 1.327 . S
C907 H901 0.950 . S
C907 C906 1.327 . S
C907 C911 1.429 . S
C908 C891 1.574 1_556 S
C908 H902 0.949 . S
C908 C912 1.368 . S
C909 C890 1.429 . S
C909 C903 1.429 . S
C909 C910 1.523 . S
C910 C891 1.368 . S
C910 C904 1.368 . S
C910 C909 1.523 . S
C911 C895 1.429 . S
C911 C907 1.429 . S
C911 C912 1.523 . S
C912 C896 1.368 . S
C912 C908 1.368 . S
C912 C911 1.523 . S
H913 C888 0.950 . S
H914 C890 0.950 . S
H915 C891 0.949 . S
H916 C893 0.950 . S
H917 C895 0.950 . S
C918 C919 1.349 . S
C918 C920 1.327 . S
C918 H943 0.950 . S
C919 C918 1.349 . S
C919 C935 1.349 . S
C920 C918 1.327 . S
C920 C939 1.429 . S
C920 H944 0.950 . S
C921 C938 1.574 . S
C921 C940 1.368 . S
C921 H945 0.949 . S
H922 C926 0.949 . S
C923 C924 1.349 . S
C923 C925 1.327 . S
C923 H946 0.950 . S
C924 C923 1.349 . S
C924 C936 1.349 . S
C925 C923 1.327 . S
C925 C941 1.429 . S
C925 H947 0.950 . S
C926 H922 0.949 . S
C926 C934 1.574 . S
C926 C942 1.368 . S
H927 C935 0.950 . S
H928 C933 0.950 . S
H929 C934 0.949 . S
H930 C936 0.950 . S
H931 C937 0.950 . S
H932 C938 0.949 . S
C933 H928 0.950 . S
C933 C935 1.327 . S
C933 C939 1.429 . S
C934 C926 1.574 . S
C934 H929 0.949 . S
C934 C940 1.368 . S
C935 C919 1.349 . S
C935 H927 0.950 . S
C935 C933 1.327 . S
C936 C924 1.349 . S
C936 H930 0.950 . S
C936 C937 1.327 . S
C937 H931 0.950 . S
C937 C936 1.327 . S
C937 C941 1.429 . S
C938 C921 1.574 . S
C938 H932 0.949 . S
C938 C942 1.368 . S
C939 C920 1.429 . S
C939 C933 1.429 . S
C939 C940 1.523 . S
C940 C921 1.368 . S
C940 C934 1.368 . S
C940 C939 1.523 . S
C941 C925 1.429 . S
C941 C937 1.429 . S
C941 C942 1.523 . S
C942 C926 1.368 . S
C942 C938 1.368 . S
C942 C941 1.523 . S
H943 C918 0.950 . S
H944 C920 0.950 . S
H945 C921 0.949 . S
H946 C923 0.950 . S
H947 C925 0.950 . S
C948 C949 1.349 . S
C948 C950 1.327 . S
C948 H973 0.950 . S
C949 C948 1.349 . S
C949 C965 1.349 . S
C950 C948 1.327 . S
C950 C969 1.429 . S
C950 H974 0.950 . S
C951 C968 1.574 1_554 S
C951 C970 1.368 . S
C951 H975 0.949 . S
H952 C956 0.949 . S
C953 C954 1.349 . S
C953 C955 1.327 . S
C953 H976 0.950 . S
C954 C953 1.349 . S
C954 C966 1.349 . S
C955 C953 1.327 . S
C955 C971 1.429 . S
C955 H977 0.950 . S
C956 H952 0.949 . S
C956 C964 1.574 1_556 S
C956 C972 1.368 . S
H957 C965 0.950 . S
H958 C963 0.950 . S
H959 C964 0.949 . S
H960 C966 0.950 . S
H961 C967 0.950 . S
H962 C968 0.949 . S
C963 H958 0.950 . S
C963 C965 1.327 . S
C963 C969 1.429 . S
C964 C956 1.574 1_554 S
C964 H959 0.949 . S
C964 C970 1.368 . S
C965 C949 1.349 . S
C965 H957 0.950 . S
C965 C963 1.327 . S
C966 C954 1.349 . S
C966 H960 0.950 . S
C966 C967 1.327 . S
C967 H961 0.950 . S
C967 C966 1.327 . S
C967 C971 1.429 . S
C968 C951 1.574 1_556 S
C968 H962 0.949 . S
C968 C972 1.368 . S
C969 C950 1.429 . S
C969 C963 1.429 . S
C969 C970 1.523 . S
C970 C951 1.368 . S
C970 C964 1.368 . S
C970 C969 1.523 . S
C971 C955 1.429 . S
C971 C967 1.429 . S
C971 C972 1.523 . S
C972 C956 1.368 . S
C972 C968 1.368 . S
C972 C971 1.523 . S
H973 C948 0.950 . S
H974 C950 0.950 . S
H975 C951 0.949 . S
H976 C953 0.950 . S
H977 C955 0.950 . S
C978 C979 1.349 . S
C978 C980 1.327 . S
C978 H1003 0.950 . S
C979 C978 1.349 . S
C979 C995 1.349 . S
C980 C978 1.327 . S
C980 C999 1.429 . S
C980 H1004 0.950 . S
C981 C998 1.574 . S
C981 C1000 1.368 . S
C981 H1005 0.949 . S
H982 C986 0.949 . S
C983 C984 1.349 . S
C983 C985 1.327 . S
C983 H1006 0.950 . S
C984 C983 1.349 . S
C984 C996 1.349 . S
C985 C983 1.327 . S
C985 C1001 1.429 . S
C985 H1007 0.950 . S
C986 H982 0.949 . S
C986 C994 1.574 . S
C986 C1002 1.368 . S
H987 C995 0.950 . S
H988 C993 0.950 . S
H989 C994 0.949 . S
H990 C996 0.950 . S
H991 C997 0.950 . S
H992 C998 0.949 . S
C993 H988 0.950 . S
C993 C995 1.327 . S
C993 C999 1.429 . S
C994 C986 1.574 . S
C994 H989 0.949 . S
C994 C1000 1.368 . S
C995 C979 1.349 . S
C995 H987 0.950 . S
C995 C993 1.327 . S
C996 C984 1.349 . S
C996 H990 0.950 . S
C996 C997 1.327 . S
C997 H991 0.950 . S
C997 C996 1.327 . S
C997 C1001 1.429 . S
C998 C981 1.574 . S
C998 H992 0.949 . S
C998 C1002 1.368 . S
C999 C980 1.429 . S
C999 C993 1.429 . S
C999 C1000 1.523 . S
C1000 C981 1.368 . S
C1000 C994 1.368 . S
C1000 C999 1.523 . S
C1001 C985 1.429 . S
C1001 C997 1.429 . S
C1001 C1002 1.523 . S
C1002 C986 1.368 . S
C1002 C998 1.368 . S
C1002 C1001 1.523 . S
H1003 C978 0.950 . S
H1004 C980 0.950 . S
H1005 C981 0.949 . S
H1006 C983 0.950 . S
H1007 C985 0.950 . S
C1008 C1009 1.349 . S
C1008 C1010 1.327 . S
C1008 H1033 0.950 . S
C1009 C1008 1.349 . S
C1009 C1025 1.349 . S
C1010 C1008 1.327 . S
C1010 C1029 1.429 . S
C1010 H1034 0.950 . S
C1011 C1028 1.574 . S
C1011 C1030 1.368 . S
C1011 H1035 0.949 . S
H1012 C1016 0.949 . S
C1013 C1014 1.349 . S
C1013 C1015 1.327 . S
C1013 H1036 0.950 . S
C1014 C1013 1.349 . S
C1014 C1026 1.349 . S
C1015 C1013 1.327 . S
C1015 C1031 1.429 . S
C1015 H1037 0.950 . S
C1016 H1012 0.949 . S
C1016 C1024 1.574 . S
C1016 C1032 1.368 . S
H1017 C1025 0.950 . S
H1018 C1023 0.950 . S
H1019 C1024 0.949 . S
H1020 C1026 0.950 . S
H1021 C1027 0.950 . S
H1022 C1028 0.949 . S
C1023 H1018 0.950 . S
C1023 C1025 1.327 . S
C1023 C1029 1.429 . S
C1024 C1016 1.574 . S
C1024 H1019 0.949 . S
C1024 C1030 1.368 . S
C1025 C1009 1.349 . S
C1025 H1017 0.950 . S
C1025 C1023 1.327 . S
C1026 C1014 1.349 . S
C1026 H1020 0.950 . S
C1026 C1027 1.327 . S
C1027 H1021 0.950 . S
C1027 C1026 1.327 . S
C1027 C1031 1.429 . S
C1028 C1011 1.574 . S
C1028 H1022 0.949 . S
C1028 C1032 1.368 . S
C1029 C1010 1.429 . S
C1029 C1023 1.429 . S
C1029 C1030 1.523 . S
C1030 C1011 1.368 . S
C1030 C1024 1.368 . S
C1030 C1029 1.523 . S
C1031 C1015 1.429 . S
C1031 C1027 1.429 . S
C1031 C1032 1.523 . S
C1032 C1016 1.368 . S
C1032 C1028 1.368 . S
C1032 C1031 1.523 . S
H1033 C1008 0.950 . S
H1034 C1010 0.950 . S
H1035 C1011 0.949 . S
H1036 C1013 0.950 . S
H1037 C1015 0.950 . S
C1038 C1039 1.349 . S
C1038 C1040 1.327 . S
C1038 H1063 0.950 . S
C1039 C1038 1.349 . S
C1039 C1055 1.349 . S
C1040 C1038 1.327 . S
C1040 C1059 1.429 . S
C1040 H1064 0.950 . S
C1041 C1058 1.574 . S
C1041 C1060 1.368 . S
C1041 H1065 0.949 . S
H1042 C1046 0.949 . S
C1043 C1044 1.349 . S
C1043 C1045 1.327 . S
C1043 H1066 0.950 . S
C1044 C1043 1.349 . S
C1044 C1056 1.349 . S
C1045 C1043 1.327 . S
C1045 C1061 1.429 . S
C1045 H1067 0.950 . S
C1046 H1042 0.949 . S
C1046 C1054 1.574 . S
C1046 C1062 1.368 . S
H1047 C1055 0.950 . S
H1048 C1053 0.950 . S
H1049 C1054 0.949 . S
H1050 C1056 0.950 . S
H1051 C1057 0.950 . S
H1052 C1058 0.949 . S
C1053 H1048 0.950 . S
C1053 C1055 1.327 . S
C1053 C1059 1.429 . S
C1054 C1046 1.574 . S
C1054 H1049 0.949 . S
C1054 C1060 1.368 . S
C1055 C1039 1.349 . S
C1055 H1047 0.950 . S
C1055 C1053 1.327 . S
C1056 C1044 1.349 . S
C1056 H1050 0.950 . S
C1056 C1057 1.327 . S
C1057 H1051 0.950 . S
C1057 C1056 1.327 . S
C1057 C1061 1.429 . S
C1058 C1041 1.574 . S
C1058 H1052 0.949 . S
C1058 C1062 1.368 . S
C1059 C1040 1.429 . S
C1059 C1053 1.429 . S
C1059 C1060 1.523 . S
C1060 C1041 1.368 . S
C1060 C1054 1.368 . S
C1060 C1059 1.523 . S
C1061 C1045 1.429 . S
C1061 C1057 1.429 . S
C1061 C1062 1.523 . S
C1062 C1046 1.368 . S
C1062 C1058 1.368 . S
C1062 C1061 1.523 . S
H1063 C1038 0.950 . S
H1064 C1040 0.950 . S
H1065 C1041 0.949 . S
H1066 C1043 0.950 . S
H1067 C1045 0.950 . S
C1068 C1069 1.349 . S
C1068 C1070 1.327 . S
C1068 H1093 0.950 . S
C1069 C1068 1.349 . S
C1069 C1085 1.349 . S
C1070 C1068 1.327 . S
C1070 C1089 1.429 . S
C1070 H1094 0.950 . S
C1071 C1088 1.574 . S
C1071 C1090 1.368 . S
C1071 H1095 0.949 . S
H1072 C1076 0.949 . S
C1073 C1074 1.349 . S
C1073 C1075 1.327 . S
C1073 H1096 0.950 . S
C1074 C1073 1.349 . S
C1074 C1086 1.349 . S
C1075 C1073 1.327 . S
C1075 C1091 1.429 . S
C1075 H1097 0.950 . S
C1076 H1072 0.949 . S
C1076 C1084 1.574 . S
C1076 C1092 1.368 . S
H1077 C1085 0.950 . S
H1078 C1083 0.950 . S
H1079 C1084 0.949 . S
H1080 C1086 0.950 . S
H1081 C1087 0.950 . S
H1082 C1088 0.949 . S
C1083 H1078 0.950 . S
C1083 C1085 1.327 . S
C1083 C1089 1.429 . S
C1084 C1076 1.574 . S
C1084 H1079 0.949 . S
C1084 C1090 1.368 . S
C1085 C1069 1.349 . S
C1085 H1077 0.950 . S
C1085 C1083 1.327 . S
C1086 C1074 1.349 . S
C1086 H1080 0.950 . S
C1086 C1087 1.327 . S
C1087 H1081 0.950 . S
C1087 C1086 1.327 . S
C1087 C1091 1.429 . S
C1088 C1071 1.574 . S
C1088 H1082 0.949 . S
C1088 C1092 1.368 . S
C1089 C1070 1.429 . S
C1089 C1083 1.429 . S
C1089 C1090 1.523 . S
C1090 C1071 1.368 . S
C1090 C1084 1.368 . S
C1090 C1089 1.523 . S
C1091 C1075 1.429 . S
C1091 C1087 1.429 . S
C1091 C1092 1.523 . S
C1092 C1076 1.368 . S
C1092 C1088 1.368 . S
C1092 C1091 1.523 . S
H1093 C1068 0.950 . S
H1094 C1070 0.950 . S
H1095 C1071 0.949 . S
H1096 C1073 0.950 . S
H1097 C1075 0.950 . S
C1098 C1099 1.349 . S
C1098 C1100 1.327 . S
C1098 H1123 0.950 . S
C1099 C1098 1.349 . S
C1099 C1115 1.349 . S
C1100 C1098 1.327 . S
C1100 C1119 1.429 . S
C1100 H1124 0.950 . S
C1101 C1118 1.574 . S
C1101 C1120 1.368 . S
C1101 H1125 0.949 . S
H1102 C1106 0.949 . S
C1103 C1104 1.349 . S
C1103 C1105 1.327 . S
C1103 H1126 0.950 . S
C1104 C1103 1.349 . S
C1104 C1116 1.349 . S
C1105 C1103 1.327 . S
C1105 C1121 1.429 . S
C1105 H1127 0.950 . S
C1106 H1102 0.949 . S
C1106 C1114 1.574 . S
C1106 C1122 1.368 . S
H1107 C1115 0.950 . S
H1108 C1113 0.950 . S
H1109 C1114 0.949 . S
H1110 C1116 0.950 . S
H1111 C1117 0.950 . S
H1112 C1118 0.949 . S
C1113 H1108 0.950 . S
C1113 C1115 1.327 . S
C1113 C1119 1.429 . S
C1114 C1106 1.574 . S
C1114 H1109 0.949 . S
C1114 C1120 1.368 . S
C1115 C1099 1.349 . S
C1115 H1107 0.950 . S
C1115 C1113 1.327 . S
C1116 C1104 1.349 . S
C1116 H1110 0.950 . S
C1116 C1117 1.327 . S
C1117 H1111 0.950 . S
C1117 C1116 1.327 . S
C1117 C1121 1.429 . S
C1118 C1101 1.574 . S
C1118 H1112 0.949 . S
C1118 C1122 1.368 . S
C1119 C1100 1.429 . S
C1119 C1113 1.429 . S
C1119 C1120 1.523 . S
C1120 C1101 1.368 . S
C1120 C1114 1.368 . S
C1120 C1119 1.523 . S
C1121 C1105 1.429 . S
C1121 C1117 1.429 . S
C1121 C1122 1.523 . S
C1122 C1106 1.368 . S
C1122 C1118 1.368 . S
C1122 C1121 1.523 . S
H1123 C1098 0.950 . S
H1124 C1100 0.950 . S
H1125 C1101 0.949 . S
H1126 C1103 0.950 . S
H1127 C1105 0.950 . S
C1128 C1129 1.349 . S
C1128 C1130 1.327 . S
C1128 H1153 0.950 . S
C1129 C1128 1.349 . S
C1129 C1145 1.349 . S
C1130 C1128 1.327 . S
C1130 C1149 1.429 . S
C1130 H1154 0.950 . S
C1131 C1148 1.574 . S
C1131 C1150 1.368 . S
C1131 H1155 0.949 . S
H1132 C1136 0.949 . S
C1133 C1134 1.349 . S
C1133 C1135 1.327 . S
C1133 H1156 0.950 . S
C1134 C1133 1.349 . S
C1134 C1146 1.349 . S
C1135 C1133 1.327 . S
C1135 C1151 1.429 . S
C1135 H1157 0.950 . S
C1136 H1132 0.949 . S
C1136 C1144 1.574 . S
C1136 C1152 1.368 . S
H1137 C1145 0.950 . S
H1138 C1143 0.950 . S
H1139 C1144 0.949 . S
H1140 C1146 0.950 . S
H1141 C1147 0.950 . S
H1142 C1148 0.949 . S
C1143 H1138 0.950 . S
C1143 C1145 1.327 . S
C1143 C1149 1.429 . S
C1144 C1136 1.574 . S
C1144 H1139 0.949 . S
C1144 C1150 1.368 . S
C1145 C1129 1.349 . S
C1145 H1137 0.950 . S
C1145 C1143 1.327 . S
C1146 C1134 1.349 . S
C1146 H1140 0.950 . S
C1146 C1147 1.327 . S
C1147 H1141 0.950 . S
C1147 C1146 1.327 . S
C1147 C1151 1.429 . S
C1148 C1131 1.574 . S
C1148 H1142 0.949 . S
C1148 C1152 1.368 . S
C1149 C1130 1.429 . S
C1149 C1143 1.429 . S
C1149 C1150 1.523 . S
C1150 C1131 1.368 . S
C1150 C1144 1.368 . S
C1150 C1149 1.523 . S
C1151 C1135 1.429 . S
C1151 C1147 1.429 . S
C1151 C1152 1.523 . S
C1152 C1136 1.368 . S
C1152 C1148 1.368 . S
C1152 C1151 1.523 . S
H1153 C1128 0.950 . S
H1154 C1130 0.950 . S
H1155 C1131 0.949 . S
H1156 C1133 0.950 . S
H1157 C1135 0.950 . S
C1158 C1159 1.349 . S
C1158 C1160 1.327 . S
C1158 H1183 0.950 . S
C1159 C1158 1.349 . S
C1159 C1175 1.349 . S
C1160 C1158 1.327 . S
C1160 C1179 1.429 . S
C1160 H1184 0.950 . S
C1161 C1178 1.574 . S
C1161 C1180 1.368 . S
C1161 H1185 0.949 . S
H1162 C1166 0.949 . S
C1163 C1164 1.349 . S
C1163 C1165 1.327 . S
C1163 H1186 0.950 . S
C1164 C1163 1.349 . S
C1164 C1176 1.349 . S
C1165 C1163 1.327 . S
C1165 C1181 1.429 . S
C1165 H1187 0.950 . S
C1166 H1162 0.949 . S
C1166 C1174 1.574 . S
C1166 C1182 1.368 . S
H1167 C1175 0.950 . S
H1168 C1173 0.950 . S
H1169 C1174 0.949 . S
H1170 C1176 0.950 . S
H1171 C1177 0.950 . S
H1172 C1178 0.949 . S
C1173 H1168 0.950 . S
C1173 C1175 1.327 . S
C1173 C1179 1.429 . S
C1174 C1166 1.574 . S
C1174 H1169 0.949 . S
C1174 C1180 1.368 . S
C1175 C1159 1.349 . S
C1175 H1167 0.950 . S
C1175 C1173 1.327 . S
C1176 C1164 1.349 . S
C1176 H1170 0.950 . S
C1176 C1177 1.327 . S
C1177 H1171 0.950 . S
C1177 C1176 1.327 . S
C1177 C1181 1.429 . S
C1178 C1161 1.574 . S
C1178 H1172 0.949 . S
C1178 C1182 1.368 . S
C1179 C1160 1.429 . S
C1179 C1173 1.429 . S
C1179 C1180 1.523 . S
C1180 C1161 1.368 . S
C1180 C1174 1.368 . S
C1180 C1179 1.523 . S
C1181 C1165 1.429 . S
C1181 C1177 1.429 . S
C1181 C1182 1.523 . S
C1182 C1166 1.368 . S
C1182 C1178 1.368 . S
C1182 C1181 1.523 . S
H1183 C1158 0.950 . S
H1184 C1160 0.950 . S
H1185 C1161 0.949 . S
H1186 C1163 0.950 . S
H1187 C1165 0.950 . S
C1188 C1189 1.349 . S
C1188 C1190 1.327 . S
C1188 H1213 0.950 . S
C1189 C1188 1.349 . S
C1189 C1205 1.349 . S
C1190 C1188 1.327 . S
C1190 C1209 1.429 . S
C1190 H1214 0.950 . S
C1191 C1208 1.574 . S
C1191 C1210 1.368 . S
C1191 H1215 0.949 . S
H1192 C1196 0.949 . S
C1193 C1194 1.349 . S
C1193 C1195 1.327 . S
C1193 H1216 0.950 . S
C1194 C1193 1.349 . S
C1194 C1206 1.349 . S
C1195 C1193 1.327 . S
C1195 C1211 1.429 . S
C1195 H1217 0.950 . S
C1196 H1192 0.949 . S
C1196 C1204 1.574 . S
C1196 C1212 1.368 . S
H1197 C1205 0.950 . S
H1198 C1203 0.950 . S
H1199 C1204 0.949 . S
H1200 C1206 0.950 . S
H1201 C1207 0.950 . S
H1202 C1208 0.949 . S
C1203 H1198 0.950 . S
C1203 C1205 1.327 . S
C1203 C1209 1.429 . S
C1204 C1196 1.574 . S
C1204 H1199 0.949 . S
C1204 C1210 1.368 . S
C1205 C1189 1.349 . S
C1205 H1197 0.950 . S
C1205 C1203 1.327 . S
C1206 C1194 1.349 . S
C1206 H1200 0.950 . S
C1206 C1207 1.327 . S
C1207 H1201 0.950 . S
C1207 C1206 1.327 . S
C1207 C1211 1.429 . S
C1208 C1191 1.574 . S
C1208 H1202 0.949 . S
C1208 C1212 1.368 . S
C1209 C1190 1.429 . S
C1209 C1203 1.429 . S
C1209 C1210 1.523 . S
C1210 C1191 1.368 . S
C1210 C1204 1.368 . S
C1210 C1209 1.523 . S
C1211 C1195 1.429 . S
C1211 C1207 1.429 . S
C1211 C1212 1.523 . S
C1212 C1196 1.368 . S
C1212 C1208 1.368 . S
C1212 C1211 1.523 . S
H1213 C1188 0.950 . S
H1214 C1190 0.950 . S
H1215 C1191 0.949 . S
H1216 C1193 0.950 . S
H1217 C1195 0.950 . S
C1218 C1219 1.349 . S
C1218 C1220 1.327 . S
C1218 H1243 0.950 . S
C1219 C1218 1.349 . S
C1219 C1235 1.349 . S
C1220 C1218 1.327 . S
C1220 C1239 1.429 . S
C1220 H1244 0.950 . S
C1221 C1238 1.574 . S
C1221 C1240 1.368 . S
C1221 H1245 0.949 . S
H1222 C1226 0.949 . S
C1223 C1224 1.349 . S
C1223 C1225 1.327 . S
C1223 H1246 0.950 . S
C1224 C1223 1.349 . S
C1224 C1236 1.349 . S
C1225 C1223 1.327 . S
C1225 C1241 1.429 . S
C1225 H1247 0.950 . S
C1226 H1222 0.949 . S
C1226 C1234 1.574 . S
C1226 C1242 1.368 . S
H1227 C1235 0.950 . S
H1228 C1233 0.950 . S
H1229 C1234 0.949 . S
H1230 C1236 0.950 . S
H1231 C1237 0.950 . S
H1232 C1238 0.949 . S
C1233 H1228 0.950 . S
C1233 C1235 1.327 . S
C1233 C1239 1.429 . S
C1234 C1226 1.574 . S
C1234 H1229 0.949 . S
C1234 C1240 1.368 . S
C1235 C1219 1.349 . S
C1235 H1227 0.950 . S
C1235 C1233 1.327 . S
C1236 C1224 1.349 . S
C1236 H1230 0.950 . S
C1236 C1237 1.327 . S
C1237 H1231 0.950 . S
C1237 C1236 1.327 . S
C1237 C1241 1.429 . S
C1238 C1221 1.574 . S
C1238 H1232 0.949 . S
C1238 C1242 1.368 . S
C1239 C1220 1.429 . S
C1239 C1233 1.429 . S
C1239 C1240 1.523 . S
C1240 C1221 1.368 . S
C1240 C1234 1.368 . S
C1240 C1239 1.523 . S
C1241 C1225 1.429 . S
C1241 C1237 1.429 . S
C1241 C1242 1.523 . S
C1242 C1226 1.368 . S
C1242 C1238 1.368 . S
C1242 C1241 1.523 . S
H1243 C1218 0.950 . S
H1244 C1220 0.950 . S
H1245 C1221 0.949 . S
H1246 C1223 0.950 . S
H1247 C1225 0.950 . S
C1248 C1249 1.349 . S
C1248 C1250 1.327 . S
C1248 H1273 0.950 . S
C1249 C1248 1.349 . S
C1249 C1265 1.349 . S
C1250 C1248 1.327 . S
C1250 C1269 1.429 . S
C1250 H1274 0.950 . S
C1251 C1268 1.574 . S
C1251 C1270 1.368 . S
C1251 H1275 0.949 . S
H1252 C1256 0.949 . S
C1253 C1254 1.349 . S
C1253 C1255 1.327 . S
C1253 H1276 0.950 . S
C1254 C1253 1.349 . S
C1254 C1266 1.349 . S
C1255 C1253 1.327 . S
C1255 C1271 1.429 . S
C1255 H1277 0.950 . S
C1256 H1252 0.949 . S
C1256 C1264 1.574 . S
C1256 C1272 1.368 . S
H1257 C1265 0.950 . S
H1258 C1263 0.950 . S
H1259 C1264 0.949 . S
H1260 C1266 0.950 . S
H1261 C1267 0.950 . S
H1262 C1268 0.949 . S
C1263 H1258 0.950 . S
C1263 C1265 1.327 . S
C1263 C1269 1.429 . S
C1264 C1256 1.574 . S
C1264 H1259 0.949 . S
C1264 C1270 1.368 . S
C1265 C1249 1.349 . S
C1265 H1257 0.950 . S
C1265 C1263 1.327 . S
C1266 C1254 1.349 . S
C1266 H1260 0.950 . S
C1266 C1267 1.327 . S
C1267 H1261 0.950 . S
C1267 C1266 1.327 . S
C1267 C1271 1.429 . S
C1268 C1251 1.574 . S
C1268 H1262 0.949 . S
C1268 C1272 1.368 . S
C1269 C1250 1.429 . S
C1269 C1263 1.429 . S
C1269 C1270 1.523 . S
C1270 C1251 1.368 . S
C1270 C1264 1.368 . S
C1270 C1269 1.523 . S
C1271 C1255 1.429 . S
C1271 C1267 1.429 . S
C1271 C1272 1.523 . S
C1272 C1256 1.368 . S
C1272 C1268 1.368 . S
C1272 C1271 1.523 . S
H1273 C1248 0.950 . S
H1274 C1250 0.950 . S
H1275 C1251 0.949 . S
H1276 C1253 0.950 . S
H1277 C1255 0.950 . S
C1278 C1279 1.349 . S
C1278 C1280 1.327 . S
C1278 H1303 0.950 . S
C1279 C1278 1.349 . S
C1279 C1295 1.349 . S
C1280 C1278 1.327 . S
C1280 C1299 1.429 . S
C1280 H1304 0.950 . S
C1281 C1298 1.574 . S
C1281 C1300 1.368 . S
C1281 H1305 0.949 . S
H1282 C1286 0.949 . S
C1283 C1284 1.349 . S
C1283 C1285 1.327 . S
C1283 H1306 0.950 . S
C1284 C1283 1.349 . S
C1284 C1296 1.349 . S
C1285 C1283 1.327 . S
C1285 C1301 1.429 . S
C1285 H1307 0.950 . S
C1286 H1282 0.949 . S
C1286 C1294 1.574 . S
C1286 C1302 1.368 . S
H1287 C1295 0.950 . S
H1288 C1293 0.950 . S
H1289 C1294 0.949 . S
H1290 C1296 0.950 . S
H1291 C1297 0.950 . S
H1292 C1298 0.949 . S
C1293 H1288 0.950 . S
C1293 C1295 1.327 . S
C1293 C1299 1.429 . S
C1294 C1286 1.574 . S
C1294 H1289 0.949 . S
C1294 C1300 1.368 . S
C1295 C1279 1.349 . S
C1295 H1287 0.950 . S
C1295 C1293 1.327 . S
C1296 C1284 1.349 . S
C1296 H1290 0.950 . S
C1296 C1297 1.327 . S
C1297 H1291 0.950 . S
C1297 C1296 1.327 . S
C1297 C1301 1.429 . S
C1298 C1281 1.574 . S
C1298 H1292 0.949 . S
C1298 C1302 1.368 . S
C1299 C1280 1.429 . S
C1299 C1293 1.429 . S
C1299 C1300 1.523 . S
C1300 C1281 1.368 . S
C1300 C1294 1.368 . S
C1300 C1299 1.523 . S
C1301 C1285 1.429 . S
C1301 C1297 1.429 . S
C1301 C1302 1.523 . S
C1302 C1286 1.368 . S
C1302 C1298 1.368 . S
C1302 C1301 1.523 . S
H1303 C1278 0.950 . S
H1304 C1280 0.950 . S
H1305 C1281 0.949 . S
H1306 C1283 0.950 . S
H1307 C1285 0.950 . S
C1308 C1309 1.349 . S
C1308 C1310 1.327 . S
C1308 H1333 0.950 . S
C1309 C1308 1.349 . S
C1309 C1325 1.349 . S
C1310 C1308 1.327 . S
C1310 C1329 1.429 . S
C1310 H1334 0.950 . S
C1311 C1328 1.574 . S
C1311 C1330 1.368 . S
C1311 H1335 0.949 . S
H1312 C1316 0.949 . S
C1313 C1314 1.349 . S
C1313 C1315 1.327 . S
C1313 H1336 0.950 . S
C1314 C1313 1.349 . S
C1314 C1326 1.349 . S
C1315 C1313 1.327 . S
C1315 C1331 1.429 . S
C1315 H1337 0.950 . S
C1316 H1312 0.949 . S
C1316 C1324 1.574 . S
C1316 C1332 1.368 . S
H1317 C1325 0.950 . S
H1318 C1323 0.950 . S
H1319 C1324 0.949 . S
H1320 C1326 0.950 . S
H1321 C1327 0.950 . S
H1322 C1328 0.949 . S
C1323 H1318 0.950 . S
C1323 C1325 1.327 . S
C1323 C1329 1.429 . S
C1324 C1316 1.574 . S
C1324 H1319 0.949 . S
C1324 C1330 1.368 . S
C1325 C1309 1.349 . S
C1325 H1317 0.950 . S
C1325 C1323 1.327 . S
C1326 C1314 1.349 . S
C1326 H1320 0.950 . S
C1326 C1327 1.327 . S
C1327 H1321 0.950 . S
C1327 C1326 1.327 . S
C1327 C1331 1.429 . S
C1328 C1311 1.574 . S
C1328 H1322 0.949 . S
C1328 C1332 1.368 . S
C1329 C1310 1.429 . S
C1329 C1323 1.429 . S
C1329 C1330 1.523 . S
C1330 C1311 1.368 . S
C1330 C1324 1.368 . S
C1330 C1329 1.523 . S
C1331 C1315 1.429 . S
C1331 C1327 1.429 . S
C1331 C1332 1.523 . S
C1332 C1316 1.368 . S
C1332 C1328 1.368 . S
C1332 C1331 1.523 . S
H1333 C1308 0.950 . S
H1334 C1310 0.950 . S
H1335 C1311 0.949 . S
H1336 C1313 0.950 . S
H1337 C1315 0.950 . S
C1338 C1339 1.349 . S
C1338 C1340 1.327 . S
C1338 H1363 0.950 . S
C1339 C1338 1.349 . S
C1339 C1355 1.349 . S
C1340 C1338 1.327 . S
C1340 C1359 1.429 . S
C1340 H1364 0.950 . S
C1341 C1358 1.574 . S
C1341 C1360 1.368 . S
C1341 H1365 0.949 . S
H1342 C1346 0.949 . S
C1343 C1344 1.349 . S
C1343 C1345 1.327 . S
C1343 H1366 0.950 . S
C1344 C1343 1.349 . S
C1344 C1356 1.349 . S
C1345 C1343 1.327 . S
C1345 C1361 1.429 . S
C1345 H1367 0.950 . S
C1346 H1342 0.949 . S
C1346 C1354 1.574 . S
C1346 C1362 1.368 . S
H1347 C1355 0.950 . S
H1348 C1353 0.950 . S
H1349 C1354 0.949 . S
H1350 C1356 0.950 . S
H1351 C1357 0.950 . S
H1352 C1358 0.949 . S
C1353 H1348 0.950 . S
C1353 C1355 1.327 . S
C1353 C1359 1.429 . S
C1354 C1346 1.574 . S
C1354 H1349 0.949 . S
C1354 C1360 1.368 . S
C1355 C1339 1.349 . S
C1355 H1347 0.950 . S
C1355 C1353 1.327 . S
C1356 C1344 1.349 . S
C1356 H1350 0.950 . S
C1356 C1357 1.327 . S
C1357 H1351 0.950 . S
C1357 C1356 1.327 . S
C1357 C1361 1.429 . S
C1358 C1341 1.574 . S
C1358 H1352 0.949 . S
C1358 C1362 1.368 . S
C1359 C1340 1.429 . S
C1359 C1353 1.429 . S
C1359 C1360 1.523 . S
C1360 C1341 1.368 . S
C1360 C1354 1.368 . S
C1360 C1359 1.523 . S
C1361 C1345 1.429 . S
C1361 C1357 1.429 . S
C1361 C1362 1.523 . S
C1362 C1346 1.368 . S
C1362 C1358 1.368 . S
C1362 C1361 1.523 . S
H1363 C1338 0.950 . S
H1364 C1340 0.950 . S
H1365 C1341 0.949 . S
H1366 C1343 0.950 . S
H1367 C1345 0.950 . S
C1368 C1369 1.349 . S
C1368 C1370 1.327 . S
C1368 H1393 0.950 . S
C1369 C1368 1.349 . S
C1369 C1385 1.349 . S
C1370 C1368 1.327 . S
C1370 C1389 1.429 . S
C1370 H1394 0.950 . S
C1371 C1388 1.574 . S
C1371 C1390 1.368 . S
C1371 H1395 0.949 . S
H1372 C1376 0.949 . S
C1373 C1374 1.349 . S
C1373 C1375 1.327 . S
C1373 H1396 0.950 . S
C1374 C1373 1.349 . S
C1374 C1386 1.349 . S
C1375 C1373 1.327 . S
C1375 C1391 1.429 . S
C1375 H1397 0.950 . S
C1376 H1372 0.949 . S
C1376 C1384 1.574 . S
C1376 C1392 1.368 . S
H1377 C1385 0.950 . S
H1378 C1383 0.950 . S
H1379 C1384 0.949 . S
H1380 C1386 0.950 . S
H1381 C1387 0.950 . S
H1382 C1388 0.949 . S
C1383 H1378 0.950 . S
C1383 C1385 1.327 . S
C1383 C1389 1.429 . S
C1384 C1376 1.574 . S
C1384 H1379 0.949 . S
C1384 C1390 1.368 . S
C1385 C1369 1.349 . S
C1385 H1377 0.950 . S
C1385 C1383 1.327 . S
C1386 C1374 1.349 . S
C1386 H1380 0.950 . S
C1386 C1387 1.327 . S
C1387 H1381 0.950 . S
C1387 C1386 1.327 . S
C1387 C1391 1.429 . S
C1388 C1371 1.574 . S
C1388 H1382 0.949 . S
C1388 C1392 1.368 . S
C1389 C1370 1.429 . S
C1389 C1383 1.429 . S
C1389 C1390 1.523 . S
C1390 C1371 1.368 . S
C1390 C1384 1.368 . S
C1390 C1389 1.523 . S
C1391 C1375 1.429 . S
C1391 C1387 1.429 . S
C1391 C1392 1.523 . S
C1392 C1376 1.368 . S
C1392 C1388 1.368 . S
C1392 C1391 1.523 . S
H1393 C1368 0.950 . S
H1394 C1370 0.950 . S
H1395 C1371 0.949 . S
H1396 C1373 0.950 . S
H1397 C1375 0.950 . S
C1398 C1399 1.349 . S
C1398 C1400 1.327 . S
C1398 H1423 0.950 . S
C1399 C1398 1.349 . S
C1399 C1415 1.349 . S
C1400 C1398 1.327 . S
C1400 C1419 1.429 . S
C1400 H1424 0.950 . S
C1401 C1418 1.574 . S
C1401 C1420 1.368 . S
C1401 H1425 0.949 . S
H1402 C1406 0.949 . S
C1403 C1404 1.349 . S
C1403 C1405 1.327 . S
C1403 H1426 0.950 . S
C1404 C1403 1.349 . S
C1404 C1416 1.349 . S
C1405 C1403 1.327 . S
C1405 C1421 1.429 . S
C1405 H1427 0.950 . S
C1406 H1402 0.949 . S
C1406 C1414 1.574 . S
C1406 C1422 1.368 . S
H1407 C1415 0.950 . S
H1408 C1413 0.950 . S
H1409 C1414 0.949 . S
H1410 C1416 0.950 . S
H1411 C1417 0.950 . S
H1412 C1418 0.949 . S
C1413 H1408 0.950 . S
C1413 C1415 1.327 . S
C1413 C1419 1.429 . S
C1414 C1406 1.574 . S
C1414 H1409 0.949 . S
C1414 C1420 1.368 . S
C1415 C1399 1.349 . S
C1415 H1407 0.950 . S
C1415 C1413 1.327 . S
C1416 C1404 1.349 . S
C1416 H1410 0.950 . S
C1416 C1417 1.327 . S
C1417 H1411 0.950 . S
C1417 C1416 1.327 . S
C1417 C1421 1.429 . S
C1418 C1401 1.574 . S
C1418 H1412 0.949 . S
C1418 C1422 1.368 . S
C1419 C1400 1.429 . S
C1419 C1413 1.429 . S
C1419 C1420 1.523 . S
C1420 C1401 1.368 . S
C1420 C1414 1.368 . S
C1420 C1419 1.523 . S
C1421 C1405 1.429 . S
C1421 C1417 1.429 . S
C1421 C1422 1.523 . S
C1422 C1406 1.368 . S
C1422 C1418 1.368 . S
C1422 C1421 1.523 . S
H1423 C1398 0.950 . S
H1424 C1400 0.950 . S
H1425 C1401 0.949 . S
H1426 C1403 0.950 . S
H1427 C1405 0.950 . S
C1428 C1429 1.349 . S
C1428 C1430 1.327 . S
C1428 H1453 0.950 . S
C1429 C1428 1.349 . S
C1429 C1445 1.349 . S
C1430 C1428 1.327 . S
C1430 C1449 1.429 . S
C1430 H1454 0.950 . S
C1431 C1448 1.574 . S
C1431 C1450 1.368 . S
C1431 H1455 0.949 . S
H1432 C1436 0.949 . S
C1433 C1434 1.349 . S
C1433 C1435 1.327 . S
C1433 H1456 0.950 . S
C1434 C1433 1.349 . S
C1434 C1446 1.349 . S
C1435 C1433 1.327 . S
C1435 C1451 1.429 . S
C1435 H1457 0.950 . S
C1436 H1432 0.949 . S
C1436 C1444 1.574 . S
C1436 C1452 1.368 . S
H1437 C1445 0.950 . S
H1438 C1443 0.950 . S
H1439 C1444 0.949 . S
H1440 C1446 0.950 . S
H1441 C1447 0.950 . S
H1442 C1448 0.949 . S
C1443 H1438 0.950 . S
C1443 C1445 1.327 . S
C1443 C1449 1.429 . S
C1444 C1436 1.574 . S
C1444 H1439 0.949 . S
C1444 C1450 1.368 . S
C1445 C1429 1.349 . S
C1445 H1437 0.950 . S
C1445 C1443 1.327 . S
C1446 C1434 1.349 . S
C1446 H1440 0.950 . S
C1446 C1447 1.327 . S
C1447 H1441 0.950 . S
C1447 C1446 1.327 . S
C1447 C1451 1.429 . S
C1448 C1431 1.574 . S
C1448 H1442 0.949 . S
C1448 C1452 1.368 . S
C1449 C1430 1.429 . S
C1449 C1443 1.429 . S
C1449 C1450 1.523 . S
C1450 C1431 1.368 . S
C1450 C1444 1.368 . S
C1450 C1449 1.523 . S
C1451 C1435 1.429 . S
C1451 C1447 1.429 . S
C1451 C1452 1.523 . S
C1452 C1436 1.368 . S
C1452 C1448 1.368 . S
C1452 C1451 1.523 . S
H1453 C1428 0.950 . S
H1454 C1430 0.950 . S
H1455 C1431 0.949 . S
H1456 C1433 0.950 . S
H1457 C1435 0.950 . S
C1458 C1459 1.349 . S
C1458 C1460 1.327 . S
C1458 H1483 0.950 . S
C1459 C1458 1.349 . S
C1459 C1475 1.349 . S
C1460 C1458 1.327 . S
C1460 C1479 1.429 . S
C1460 H1484 0.950 . S
C1461 C1478 1.574 . S
C1461 C1480 1.368 . S
C1461 H1485 0.949 . S
H1462 C1466 0.949 . S
C1463 C1464 1.349 . S
C1463 C1465 1.327 . S
C1463 H1486 0.950 . S
C1464 C1463 1.349 . S
C1464 C1476 1.349 . S
C1465 C1463 1.327 . S
C1465 C1481 1.429 . S
C1465 H1487 0.950 . S
C1466 H1462 0.949 . S
C1466 C1474 1.574 . S
C1466 C1482 1.368 . S
H1467 C1475 0.950 . S
H1468 C1473 0.950 . S
H1469 C1474 0.949 . S
H1470 C1476 0.950 . S
H1471 C1477 0.950 . S
H1472 C1478 0.949 . S
C1473 H1468 0.950 . S
C1473 C1475 1.327 . S
C1473 C1479 1.429 . S
C1474 C1466 1.574 . S
C1474 H1469 0.949 . S
C1474 C1480 1.368 . S
C1475 C1459 1.349 . S
C1475 H1467 0.950 . S
C1475 C1473 1.327 . S
C1476 C1464 1.349 . S
C1476 H1470 0.950 . S
C1476 C1477 1.327 . S
C1477 H1471 0.950 . S
C1477 C1476 1.327 . S
C1477 C1481 1.429 . S
C1478 C1461 1.574 . S
C1478 H1472 0.949 . S
C1478 C1482 1.368 . S
C1479 C1460 1.429 . S
C1479 C1473 1.429 . S
C1479 C1480 1.523 . S
C1480 C1461 1.368 . S
C1480 C1474 1.368 . S
C1480 C1479 1.523 . S
C1481 C1465 1.429 . S
C1481 C1477 1.429 . S
C1481 C1482 1.523 . S
C1482 C1466 1.368 . S
C1482 C1478 1.368 . S
C1482 C1481 1.523 . S
H1483 C1458 0.950 . S
H1484 C1460 0.950 . S
H1485 C1461 0.949 . S
H1486 C1463 0.950 . S
H1487 C1465 0.950 . S
C1488 C1489 1.349 . S
C1488 C1490 1.327 . S
C1488 H1513 0.950 . S
C1489 C1488 1.349 . S
C1489 C1505 1.349 . S
C1490 C1488 1.327 . S
C1490 C1509 1.429 . S
C1490 H1514 0.950 . S
C1491 C1508 1.574 . S
C1491 C1510 1.368 . S
C1491 H1515 0.949 . S
H1492 C1496 0.949 . S
C1493 C1494 1.349 . S
C1493 C1495 1.327 . S
C1493 H1516 0.950 . S
C1494 C1493 1.349 . S
C1494 C1506 1.349 . S
C1495 C1493 1.327 . S
C1495 C1511 1.429 . S
C1495 H1517 0.950 . S
C1496 H1492 0.949 . S
C1496 C1504 1.574 . S
C1496 C1512 1.368 . S
H1497 C1505 0.950 . S
H1498 C1503 0.950 . S
H1499 C1504 0.949 . S
H1500 C1506 0.950 . S
H1501 C1507 0.950 . S
H1502 C1508 0.949 . S
C1503 H1498 0.950 . S
C1503 C1505 1.327 . S
C1503 C1509 1.429 . S
C1504 C1496 1.574 . S
C1504 H1499 0.949 . S
C1504 C1510 1.368 . S
C1505 C1489 1.349 . S
C1505 H1497 0.950 . S
C1505 C1503 1.327 . S
C1506 C1494 1.349 . S
C1506 H1500 0.950 . S
C1506 C1507 1.327 . S
C1507 H1501 0.950 . S
C1507 C1506 1.327 . S
C1507 C1511 1.429 . S
C1508 C1491 1.574 . S
C1508 H1502 0.949 . S
C1508 C1512 1.368 . S
C1509 C1490 1.429 . S
C1509 C1503 1.429 . S
C1509 C1510 1.523 . S
C1510 C1491 1.368 . S
C1510 C1504 1.368 . S
C1510 C1509 1.523 . S
C1511 C1495 1.429 . S
C1511 C1507 1.429 . S
C1511 C1512 1.523 . S
C1512 C1496 1.368 . S
C1512 C1508 1.368 . S
C1512 C1511 1.523 . S
H1513 C1488 0.950 . S
H1514 C1490 0.950 . S
H1515 C1491 0.949 . S
H1516 C1493 0.950 . S
H1517 C1495 0.950 . S
C1518 C1519 1.349 . S
C1518 C1520 1.327 . S
C1518 H1543 0.950 . S
C1519 C1518 1.349 . S
C1519 C1535 1.349 . S
C1520 C1518 1.327 . S
C1520 C1539 1.429 . S
C1520 H1544 0.950 . S
C1521 C1538 1.574 . S
C1521 C1540 1.368 . S
C1521 H1545 0.949 . S
H1522 C1526 0.949 . S
C1523 C1524 1.349 . S
C1523 C1525 1.327 . S
C1523 H1546 0.950 . S
C1524 C1523 1.349 . S
C1524 C1536 1.349 . S
C1525 C1523 1.327 . S
C1525 C1541 1.429 . S
C1525 H1547 0.950 . S
C1526 H1522 0.949 . S
C1526 C1534 1.574 . S
C1526 C1542 1.368 . S
H1527 C1535 0.950 . S
H1528 C1533 0.950 . S
H1529 C1534 0.949 . S
H1530 C1536 0.950 . S
H1531 C1537 0.950 . S
H1532 C1538 0.949 . S
C1533 H1528 0.950 . S
C1533 C1535 1.327 . S
C1533 C1539 1.429 . S
C1534 C1526 1.574 . S
C1534 H1529 0.949 . S
C1534 C1540 1.368 . S
C1535 C1519 1.349 . S
C1535 H1527 0.950 . S
C1535 C1533 1.327 . S
C1536 C1524 1.349 . S
C1536 H1530 0.950 . S
C1536 C1537 1.327 . S
C1537 H1531 0.950 . S
C1537 C1536 1.327 . S
C1537 C1541 1.429 . S
C1538 C1521 1.574 . S
C1538 H1532 0.949 . S
C1538 C1542 1.368 . S
C1539 C1520 1.429 . S
C1539 C1533 1.429 . S
C1539 C1540 1.523 . S
C1540 C1521 1.368 . S
C1540 C1534 1.368 . S
C1540 C1539 1.523 . S
C1541 C1525 1.429 . S
C1541 C1537 1.429 . S
C1541 C1542 1.523 . S
C1542 C1526 1.368 . S
C1542 C1538 1.368 . S
C1542 C1541 1.523 . S
H1543 C1518 0.950 . S
H1544 C1520 0.950 . S
H1545 C1521 0.949 . S
H1546 C1523 0.950 . S
H1547 C1525 0.950 . S
C1548 C1549 1.349 . S
C1548 C1550 1.327 . S
C1548 H1573 0.950 . S
C1549 C1548 1.349 . S
C1549 C1565 1.349 . S
C1550 C1548 1.327 . S
C1550 C1569 1.429 . S
C1550 H1574 0.950 . S
C1551 C1568 1.574 . S
C1551 C1570 1.368 . S
C1551 H1575 0.949 . S
H1552 C1556 0.949 . S
C1553 C1554 1.349 . S
C1553 C1555 1.327 . S
C1553 H1576 0.950 . S
C1554 C1553 1.349 . S
C1554 C1566 1.349 . S
C1555 C1553 1.327 . S
C1555 C1571 1.429 . S
C1555 H1577 0.950 . S
C1556 H1552 0.949 . S
C1556 C1564 1.574 . S
C1556 C1572 1.368 . S
H1557 C1565 0.950 . S
H1558 C1563 0.950 . S
H1559 C1564 0.949 . S
H1560 C1566 0.950 . S
H1561 C1567 0.950 . S
H1562 C1568 0.949 . S
C1563 H1558 0.950 . S
C1563 C1565 1.327 . S
C1563 C1569 1.429 . S
C1564 C1556 1.574 . S
C1564 H1559 0.949 . S
C1564 C1570 1.368 . S
C1565 C1549 1.349 . S
C1565 H1557 0.950 . S
C1565 C1563 1.327 . S
C1566 C1554 1.349 . S
C1566 H1560 0.950 . S
C1566 C1567 1.327 . S
C1567 H1561 0.950 . S
C1567 C1566 1.327 . S
C1567 C1571 1.429 . S
C1568 C1551 1.574 . S
C1568 H1562 0.949 . S
C1568 C1572 1.368 . S
C1569 C1550 1.429 . S
C1569 C1563 1.429 . S
C1569 C1570 1.523 . S
C1570 C1551 1.368 . S
C1570 C1564 1.368 . S
C1570 C1569 1.523 . S
C1571 C1555 1.429 . S
C1571 C1567 1.429 . S
C1571 C1572 1.523 . S
C1572 C1556 1.368 . S
C1572 C1568 1.368 . S
C1572 C1571 1.523 . S
H1573 C1548 0.950 . S
H1574 C1550 0.950 . S
H1575 C1551 0.949 . S
H1576 C1553 0.950 . S
H1577 C1555 0.950 . S
C1578 C1579 1.349 . S
C1578 C1580 1.327 . S
C1578 H1603 0.950 . S
C1579 C1578 1.349 . S
C1579 C1595 1.349 . S
C1580 C1578 1.327 . S
C1580 C1599 1.429 . S
C1580 H1604 0.950 . S
C1581 C1598 1.574 . S
C1581 C1600 1.368 . S
C1581 H1605 0.949 . S
H1582 C1586 0.949 . S
C1583 C1584 1.349 . S
C1583 C1585 1.327 . S
C1583 H1606 0.950 . S
C1584 C1583 1.349 . S
C1584 C1596 1.349 . S
C1585 C1583 1.327 . S
C1585 C1601 1.429 . S
C1585 H1607 0.950 . S
C1586 H1582 0.949 . S
C1586 C1594 1.574 . S
C1586 C1602 1.368 . S
H1587 C1595 0.950 . S
H1588 C1593 0.950 . S
H1589 C1594 0.949 . S
H1590 C1596 0.950 . S
H1591 C1597 0.950 . S
H1592 C1598 0.949 . S
C1593 H1588 0.950 . S
C1593 C1595 1.327 . S
C1593 C1599 1.429 . S
C1594 C1586 1.574 . S
C1594 H1589 0.949 . S
C1594 C1600 1.368 . S
C1595 C1579 1.349 . S
C1595 H1587 0.950 . S
C1595 C1593 1.327 . S
C1596 C1584 1.349 . S
C1596 H1590 0.950 . S
C1596 C1597 1.327 . S
C1597 H1591 0.950 . S
C1597 C1596 1.327 . S
C1597 C1601 1.429 . S
C1598 C1581 1.574 . S
C1598 H1592 0.949 . S
C1598 C1602 1.368 . S
C1599 C1580 1.429 . S
C1599 C1593 1.429 . S
C1599 C1600 1.523 . S
C1600 C1581 1.368 . S
C1600 C1594 1.368 . S
C1600 C1599 1.523 . S
C1601 C1585 1.429 . S
C1601 C1597 1.429 . S
C1601 C1602 1.523 . S
C1602 C1586 1.368 . S
C1602 C1598 1.368 . S
C1602 C1601 1.523 . S
H1603 C1578 0.950 . S
H1604 C1580 0.950 . S
H1605 C1581 0.949 . S
H1606 C1583 0.950 . S
H1607 C1585 0.950 . S
C1608 C1609 1.349 . S
C1608 C1610 1.327 . S
C1608 H1633 0.950 . S
C1609 C1608 1.349 . S
C1609 C1625 1.349 . S
C1610 C1608 1.327 . S
C1610 C1629 1.429 . S
C1610 H1634 0.950 . S
C1611 C1628 1.574 . S
C1611 C1630 1.368 . S
C1611 H1635 0.949 . S
H1612 C1616 0.949 . S
C1613 C1614 1.349 . S
C1613 C1615 1.327 . S
C1613 H1636 0.950 . S
C1614 C1613 1.349 . S
C1614 C1626 1.349 . S
C1615 C1613 1.327 . S
C1615 C1631 1.429 . S
C1615 H1637 0.950 . S
C1616 H1612 0.949 . S
C1616 C1624 1.574 . S
C1616 C1632 1.368 . S
H1617 C1625 0.950 . S
H1618 C1623 0.950 . S
H1619 C1624 0.949 . S
H1620 C1626 0.950 . S
H1621 C1627 0.950 . S
H1622 C1628 0.949 . S
C1623 H1618 0.950 . S
C1623 C1625 1.327 . S
C1623 C1629 1.429 . S
C1624 C1616 1.574 . S
C1624 H1619 0.949 . S
C1624 C1630 1.368 . S
C1625 C1609 1.349 . S
C1625 H1617 0.950 . S
C1625 C1623 1.327 . S
C1626 C1614 1.349 . S
C1626 H1620 0.950 . S
C1626 C1627 1.327 . S
C1627 H1621 0.950 . S
C1627 C1626 1.327 . S
C1627 C1631 1.429 . S
C1628 C1611 1.574 . S
C1628 H1622 0.949 . S
C1628 C1632 1.368 . S
C1629 C1610 1.429 . S
C1629 C1623 1.429 . S
C1629 C1630 1.523 . S
C1630 C1611 1.368 . S
C1630 C1624 1.368 . S
C1630 C1629 1.523 . S
C1631 C1615 1.429 . S
C1631 C1627 1.429 . S
C1631 C1632 1.523 . S
C1632 C1616 1.368 . S
C1632 C1628 1.368 . S
C1632 C1631 1.523 . S
H1633 C1608 0.950 . S
H1634 C1610 0.950 . S
H1635 C1611 0.949 . S
H1636 C1613 0.950 . S
H1637 C1615 0.950 . S
C1638 C1639 1.349 . S
C1638 C1640 1.327 . S
C1638 H1663 0.950 . S
C1639 C1638 1.349 . S
C1639 C1655 1.349 . S
C1640 C1638 1.327 . S
C1640 C1659 1.429 . S
C1640 H1664 0.950 . S
C1641 C1658 1.574 . S
C1641 C1660 1.368 . S
C1641 H1665 0.949 . S
H1642 C1646 0.949 . S
C1643 C1644 1.349 . S
C1643 C1645 1.327 . S
C1643 H1666 0.950 . S
C1644 C1643 1.349 . S
C1644 C1656 1.349 . S
C1645 C1643 1.327 . S
C1645 C1661 1.429 . S
C1645 H1667 0.950 . S
C1646 H1642 0.949 . S
C1646 C1654 1.574 . S
C1646 C1662 1.368 . S
H1647 C1655 0.950 . S
H1648 C1653 0.950 . S
H1649 C1654 0.949 . S
H1650 C1656 0.950 . S
H1651 C1657 0.950 . S
H1652 C1658 0.949 . S
C1653 H1648 0.950 . S
C1653 C1655 1.327 . S
C1653 C1659 1.429 . S
C1654 C1646 1.574 . S
C1654 H1649 0.949 . S
C1654 C1660 1.368 . S
C1655 C1639 1.349 . S
C1655 H1647 0.950 . S
C1655 C1653 1.327 . S
C1656 C1644 1.349 . S
C1656 H1650 0.950 . S
C1656 C1657 1.327 . S
C1657 H1651 0.950 . S
C1657 C1656 1.327 . S
C1657 C1661 1.429 . S
C1658 C1641 1.574 . S
C1658 H1652 0.949 . S
C1658 C1662 1.368 . S
C1659 C1640 1.429 . S
C1659 C1653 1.429 . S
C1659 C1660 1.523 . S
C1660 C1641 1.368 . S
C1660 C1654 1.368 . S
C1660 C1659 1.523 . S
C1661 C1645 1.429 . S
C1661 C1657 1.429 . S
C1661 C1662 1.523 . S
C1662 C1646 1.368 . S
C1662 C1658 1.368 . S
C1662 C1661 1.523 . S
H1663 C1638 0.950 . S
H1664 C1640 0.950 . S
H1665 C1641 0.949 . S
H1666 C1643 0.950 . S
H1667 C1645 0.950 . S
C1668 C1669 1.349 . S
C1668 C1670 1.327 . S
C1668 H1693 0.950 . S
C1669 C1668 1.349 . S
C1669 C1685 1.349 . S
C1670 C1668 1.327 . S
C1670 C1689 1.429 . S
C1670 H1694 0.950 . S
C1671 C1688 1.574 . S
C1671 C1690 1.368 . S
C1671 H1695 0.949 . S
H1672 C1676 0.949 . S
C1673 C1674 1.349 . S
C1673 C1675 1.327 . S
C1673 H1696 0.950 . S
C1674 C1673 1.349 . S
C1674 C1686 1.349 . S
C1675 C1673 1.327 . S
C1675 C1691 1.429 . S
C1675 H1697 0.950 . S
C1676 H1672 0.949 . S
C1676 C1684 1.574 . S
C1676 C1692 1.368 . S
H1677 C1685 0.950 . S
H1678 C1683 0.950 . S
H1679 C1684 0.949 . S
H1680 C1686 0.950 . S
H1681 C1687 0.950 . S
H1682 C1688 0.949 . S
C1683 H1678 0.950 . S
C1683 C1685 1.327 . S
C1683 C1689 1.429 . S
C1684 C1676 1.574 . S
C1684 H1679 0.949 . S
C1684 C1690 1.368 . S
C1685 C1669 1.349 . S
C1685 H1677 0.950 . S
C1685 C1683 1.327 . S
C1686 C1674 1.349 . S
C1686 H1680 0.950 . S
C1686 C1687 1.327 . S
C1687 H1681 0.950 . S
C1687 C1686 1.327 . S
C1687 C1691 1.429 . S
C1688 C1671 1.574 . S
C1688 H1682 0.949 . S
C1688 C1692 1.368 . S
C1689 C1670 1.429 . S
C1689 C1683 1.429 . S
C1689 C1690 1.523 . S
C1690 C1671 1.368 . S
C1690 C1684 1.368 . S
C1690 C1689 1.523 . S
C1691 C1675 1.429 . S
C1691 C1687 1.429 . S
C1691 C1692 1.523 . S
C1692 C1676 1.368 . S
C1692 C1688 1.368 . S
C1692 C1691 1.523 . S
H1693 C1668 0.950 . S
H1694 C1670 0.950 . S
H1695 C1671 0.949 . S
H1696 C1673 0.950 . S
H1697 C1675 0.950 . S
C1698 C1699 1.349 . S
C1698 C1700 1.327 . S
C1698 H1723 0.950 . S
C1699 C1698 1.349 . S
C1699 C1715 1.349 . S
C1700 C1698 1.327 . S
C1700 C1719 1.429 . S
C1700 H1724 0.950 . S
C1701 C1718 1.574 . S
C1701 C1720 1.368 . S
C1701 H1725 0.949 . S
H1702 C1706 0.949 . S
C1703 C1704 1.349 . S
C1703 C1705 1.327 . S
C1703 H1726 0.950 . S
C1704 C1703 1.349 . S
C1704 C1716 1.349 . S
C1705 C1703 1.327 . S
C1705 C1721 1.429 . S
C1705 H1727 0.950 . S
C1706 H1702 0.949 . S
C1706 C1714 1.574 . S
C1706 C1722 1.368 . S
H1707 C1715 0.950 . S
H1708 C1713 0.950 . S
H1709 C1714 0.949 . S
H1710 C1716 0.950 . S
H1711 C1717 0.950 . S
H1712 C1718 0.949 . S
C1713 H1708 0.950 . S
C1713 C1715 1.327 . S
C1713 C1719 1.429 . S
C1714 C1706 1.574 . S
C1714 H1709 0.949 . S
C1714 C1720 1.368 . S
C1715 C1699 1.349 . S
C1715 H1707 0.950 . S
C1715 C1713 1.327 . S
C1716 C1704 1.349 . S
C1716 H1710 0.950 . S
C1716 C1717 1.327 . S
C1717 H1711 0.950 . S
C1717 C1716 1.327 . S
C1717 C1721 1.429 . S
C1718 C1701 1.574 . S
C1718 H1712 0.949 . S
C1718 C1722 1.368 . S
C1719 C1700 1.429 . S
C1719 C1713 1.429 . S
C1719 C1720 1.523 . S
C1720 C1701 1.368 . S
C1720 C1714 1.368 . S
C1720 C1719 1.523 . S
C1721 C1705 1.429 . S
C1721 C1717 1.429 . S
C1721 C1722 1.523 . S
C1722 C1706 1.368 . S
C1722 C1718 1.368 . S
C1722 C1721 1.523 . S
H1723 C1698 0.950 . S
H1724 C1700 0.950 . S
H1725 C1701 0.949 . S
H1726 C1703 0.950 . S
H1727 C1705 0.950 . S
C529 C21 1.252 . S
C534 C87 1.252 . S
C559 C120 1.252 . S
C564 C54 1.252 . S
C589 C219 1.252 . S
C594 C153 1.252 . S
C619 C186 1.252 . S
C624 C252 1.252 . S
C649 C351 1.252 . S
C654 C285 1.252 . S
C679 C318 1.252 . S
C684 C384 1.252 . S
C709 C483 1.252 . S
C714 C417 1.252 . S
C739 C450 1.252 . S
C744 C516 1.252 . S
C769 C7 1.427 . S
C774 C337 1.427 . S
C799 C370 1.427 . S
C804 C40 1.427 . S
C829 C271 1.427 . S
C834 C73 1.427 . S
C859 C304 1.427 . S
C864 C106 1.427 . S
C889 C469 1.427 . S
C894 C139 1.427 . S
C919 C502 1.427 . S
C924 C172 1.427 . S
C949 C403 1.427 . S
C954 C205 1.427 . S
C979 C436 1.427 . S
C984 C238 1.427 . S
C1009 C18 1.169 . S
C1014 C249 1.169 . S
C1039 C51 1.169 . S
C1044 C150 1.169 . S
C1069 C183 1.169 . S
C1074 C84 1.169 . S
C1099 C216 1.169 . S
C1104 C117 1.169 . S
C1129 C282 1.169 . S
C1134 C513 1.169 . S
C1159 C315 1.169 . S
C1164 C414 1.169 . S
C1189 C348 1.169 . S
C1194 C447 1.169 . S
C1219 C381 1.169 . S
C1224 C480 1.169 . S
C1249 N464 1.196 . S
C1254 N13 1.194 . S
C1279 N46 1.194 . S
C1284 N497 1.196 . S
C1309 N398 1.196 . S
C1314 N79 1.194 . S
C1339 N431 1.196 . S
C1344 N112 1.194 . S
C1369 N332 1.196 . S
C1374 N145 1.194 . S
C1399 N178 1.194 . S
C1404 N365 1.196 . S
C1429 N266 1.196 . S
C1434 N211 1.194 . S
C1459 N244 1.194 . S
C1464 N299 1.196 . S
C1489 N200 1.196 . S
C1494 N277 1.194 . S
C1519 N233 1.196 . S
C1524 N310 1.194 . S
C1549 N134 1.196 . S
C1554 N343 1.194 . S
C1579 N376 1.194 . S
C1584 N167 1.196 . S
C1609 N68 1.196 . S
C1614 N409 1.194 . S
C1639 N442 1.194 . S
C1644 N101 1.196 . S
C1669 N475 1.194 . S
C1674 N2 1.196 . S
C1699 N35 1.196 . S
C1704 N508 1.194 . S
