# Generated by pormake.
# Topology upa, (4)-cn, num edge types: 1
# Building blocks:
#     Node 0, Type 0, BuildingBlock: TATPOV_clean_sbu_0, # of connection points: 4
#     Node 1, Type 0, BuildingBlock: TATPOV_clean_sbu_0, # of connection points: 4
#     Node 2, Type 0, BuildingBlock: TATPOV_clean_sbu_0, # of connection points: 4
#     Node 3, Type 0, BuildingBlock: TATPOV_clean_sbu_0, # of connection points: 4
#     Node 4, Type 0, BuildingBlock: TATPOV_clean_sbu_0, # of connection points: 4
#     Node 5, Type 0, BuildingBlock: TATPOV_clean_sbu_0, # of connection points: 4
#     Node 6, Type 0, BuildingBlock: TATPOV_clean_sbu_0, # of connection points: 4
#     Node 7, Type 0, BuildingBlock: TATPOV_clean_sbu_0, # of connection points: 4
#     Edge 8, Type (0, 0), BuildingBlock: KIFKEQ_clean_linker_1, # of connection points: 2
#     Edge 9, Type (0, 0), BuildingBlock: KIFKEQ_clean_linker_1, # of connection points: 2
#     Edge 10, Type (0, 0), BuildingBlock: KIFKEQ_clean_linker_1, # of connection points: 2
#     Edge 11, Type (0, 0), BuildingBlock: KIFKEQ_clean_linker_1, # of connection points: 2
#     Edge 12, Type (0, 0), BuildingBlock: KIFKEQ_clean_linker_1, # of connection points: 2
#     Edge 13, Type (0, 0), BuildingBlock: KIFKEQ_clean_linker_1, # of connection points: 2
#     Edge 14, Type (0, 0), BuildingBlock: KIFKEQ_clean_linker_1, # of connection points: 2
#     Edge 15, Type (0, 0), BuildingBlock: KIFKEQ_clean_linker_1, # of connection points: 2
#     Edge 16, Type (0, 0), BuildingBlock: KIFKEQ_clean_linker_1, # of connection points: 2
#     Edge 17, Type (0, 0), BuildingBlock: KIFKEQ_clean_linker_1, # of connection points: 2
#     Edge 18, Type (0, 0), BuildingBlock: KIFKEQ_clean_linker_1, # of connection points: 2
#     Edge 19, Type (0, 0), BuildingBlock: KIFKEQ_clean_linker_1, # of connection points: 2
#     Edge 20, Type (0, 0), BuildingBlock: KIFKEQ_clean_linker_1, # of connection points: 2
#     Edge 21, Type (0, 0), BuildingBlock: KIFKEQ_clean_linker_1, # of connection points: 2
#     Edge 22, Type (0, 0), BuildingBlock: KIFKEQ_clean_linker_1, # of connection points: 2
#     Edge 23, Type (0, 0), BuildingBlock: KIFKEQ_clean_linker_1, # of connection points: 2
# Relax obj value: 0.172
# Max RMSD: 0.171
# Mean RMSD: 0.171
data_MOF--net-upa--node1-TATPOV_clean_sbu_0--edge1-KIFKEQ_clean_linker_1
_symmetry_space_group_name_H-M    P1
_symmetry_Int_Tables_number       1
_symmetry_cell_setting            triclinic
loop_
_symmetry_equiv_pos_as_xyz
'x, y, z'
_cell_length_a     26.714562
_cell_length_b     26.750474
_cell_length_c     43.905789
_cell_angle_alpha  90.013538
_cell_angle_beta   89.997042
_cell_angle_gamma 89.862317
loop_
_atom_site_label
_atom_site_type_symbol
_atom_site_fract_x
_atom_site_fract_y
_atom_site_fract_z
_atom_type_partial_charge
Zn0 Zn 0.08257 0.27361 0.37282 0.0
Zn1 Zn 0.15067 0.24525 0.33642 0.0
O2 O 0.09592 0.28285 0.30986 0.0
O3 O 0.04211 0.31279 0.34307 0.0
O4 O 0.21335 0.23701 0.3097 0.0
O5 O 0.12346 0.30493 0.40549 0.0
O6 O 0.18215 0.2696 0.37794 0.0
C7 C 0.05514 0.30636 0.31566 0.0
C8 C 0.08606 0.16565 0.36155 0.0
O9 O 0.12148 0.17591 0.34317 0.0
O10 O 0.06547 0.20002 0.37705 0.0
C11 C 0.2428 0.19981 0.31313 0.0
O12 O 0.2309 0.16492 0.33288 0.0
C13 C 0.16866 0.29188 0.4024 0.0
Zn14 Zn 0.23374 0.59386 0.87403 0.0
Zn15 Zn 0.26394 0.66057 0.83765 0.0
O16 O 0.22772 0.60428 0.81148 0.0
O17 O 0.19276 0.55419 0.84495 0.0
O18 O 0.27231 0.72277 0.81045 0.0
O19 O 0.20324 0.6351 0.9067 0.0
O20 O 0.23866 0.69307 0.87883 0.0
C21 C 0.20194 0.56512 0.81752 0.0
C22 C 0.34246 0.59531 0.86323 0.0
O23 O 0.33322 0.63148 0.8452 0.0
O24 O 0.30728 0.57486 0.87808 0.0
C25 C 0.30914 0.75249 0.81417 0.0
O26 O 0.34359 0.74101 0.83436 0.0
C27 C 0.21613 0.68014 0.90331 0.0
Zn28 Zn 0.91609 0.72444 0.3749 0.0
Zn29 Zn 0.84681 0.75514 0.34028 0.0
O30 O 0.90188 0.72007 0.31251 0.0
O31 O 0.95332 0.68321 0.34456 0.0
O32 O 0.78129 0.7631 0.31611 0.0
O33 O 0.87777 0.69481 0.40927 0.0
O34 O 0.81831 0.7302 0.38244 0.0
C35 C 0.94127 0.69379 0.31747 0.0
C36 C 0.91321 0.83336 0.36372 0.0
O37 O 0.87529 0.8244 0.34701 0.0
O38 O 0.93512 0.79806 0.37774 0.0
C39 C 0.7714 0.79515 0.2955 0.0
O40 O 0.80686 0.82557 0.28631 0.0
C41 C 0.83256 0.70809 0.40677 0.0
Zn42 Zn 0.77963 0.41159 0.87494 0.0
Zn43 Zn 0.74725 0.34465 0.83949 0.0
O44 O 0.78371 0.40007 0.81288 0.0
O45 O 0.82182 0.44934 0.8455 0.0
O46 O 0.73784 0.28215 0.81266 0.0
O47 O 0.80866 0.37063 0.90826 0.0
O48 O 0.77194 0.31275 0.88093 0.0
C49 C 0.8109 0.43849 0.81829 0.0
C50 C 0.67062 0.41256 0.86422 0.0
O51 O 0.67866 0.37513 0.84693 0.0
O52 O 0.70654 0.43285 0.8785 0.0
C53 C 0.70019 0.25343 0.81615 0.0
O54 O 0.66545 0.26607 0.8359 0.0
C55 C 0.79469 0.32582 0.90531 0.0
Zn56 Zn 0.5785 0.22657 0.13038 0.0
Zn57 Zn 0.64989 0.2596 0.16366 0.0
O58 O 0.5962 0.22418 0.19186 0.0
O59 O 0.54543 0.18329 0.16139 0.0
O60 O 0.71181 0.27278 0.19046 0.0
O61 O 0.61908 0.19929 0.09612 0.0
O62 O 0.68068 0.23033 0.12315 0.0
C63 C 0.55812 0.19579 0.18806 0.0
C64 C 0.57882 0.33538 0.13994 0.0
O65 O 0.61958 0.32775 0.15432 0.0
O66 O 0.55525 0.29895 0.12832 0.0
C67 C 0.75286 0.28767 0.17868 0.0
O68 O 0.75464 0.29555 0.14917 0.0
C69 C 0.66511 0.2091 0.09884 0.0
Zn70 Zn 0.27963 0.08554 0.63252 0.0
Zn71 Zn 0.24682 0.15777 0.66413 0.0
O72 O 0.28361 0.10599 0.69327 0.0
O73 O 0.32546 0.05512 0.66325 0.0
O74 O 0.23701 0.22416 0.68706 0.0
O75 O 0.30394 0.12178 0.59572 0.0
O76 O 0.27193 0.18421 0.6216 0.0
C77 C 0.31282 0.06829 0.68982 0.0
C78 C 0.17089 0.08492 0.64502 0.0
O79 O 0.17803 0.12704 0.65788 0.0
O80 O 0.20742 0.06137 0.63331 0.0
C81 C 0.21545 0.23155 0.71255 0.0
O82 O 0.19764 0.19306 0.72762 0.0
C83 C 0.29225 0.1675 0.59727 0.0
Zn84 Zn 0.41854 0.78555 0.1325 0.0
Zn85 Zn 0.34695 0.75185 0.16376 0.0
O86 O 0.40057 0.78515 0.19332 0.0
O87 O 0.45022 0.82908 0.16379 0.0
O88 O 0.28083 0.74137 0.18703 0.0
O89 O 0.38241 0.81307 0.09662 0.0
O90 O 0.31998 0.78026 0.12203 0.0
C91 C 0.43822 0.81437 0.19014 0.0
C92 C 0.41801 0.67613 0.14178 0.0
O93 O 0.3763 0.68315 0.15525 0.0
O94 O 0.44198 0.71302 0.131 0.0
C95 C 0.27347 0.71536 0.21092 0.0
O96 O 0.31178 0.69321 0.224 0.0
C97 C 0.33656 0.80195 0.09812 0.0
Zn98 Zn 0.724 0.91809 0.63508 0.0
Zn99 Zn 0.75735 0.84651 0.66736 0.0
O100 O 0.72102 0.89862 0.69644 0.0
O101 O 0.67962 0.94957 0.66624 0.0
O102 O 0.76783 0.78047 0.69047 0.0
O103 O 0.69807 0.88054 0.59913 0.0
O104 O 0.73125 0.81915 0.62537 0.0
C105 C 0.69222 0.93658 0.69285 0.0
C106 C 0.83305 0.91851 0.64653 0.0
O107 O 0.8259 0.87718 0.66029 0.0
O108 O 0.79645 0.94162 0.63458 0.0
C109 C 0.79356 0.77255 0.71441 0.0
O110 O 0.81564 0.81041 0.72788 0.0
C111 C 0.71006 0.83494 0.60109 0.0
H112 H 0.03498 0.12485 0.40882 0.0
H113 H 0.08932 0.09235 0.31822 0.0
H114 H 0.99171 0.04466 0.40993 0.0
H115 H 0.0453 0.01207 0.3193 0.0
H116 H 0.90449 0.90855 0.32194 0.0
H117 H 0.94943 0.98831 0.32182 0.0
H118 H 0.01659 0.95098 0.40832 0.0
H119 H 0.97235 0.87128 0.40839 0.0
C120 C 0.03805 0.10031 0.38927 0.0
C121 C 0.06548 0.11472 0.36342 0.0
C122 C 0.01331 0.05452 0.38994 0.0
C123 C 0.01487 0.02267 0.36459 0.0
C124 C 0.04317 0.03643 0.33897 0.0
C125 C 0.06872 0.08197 0.3385 0.0
C126 C 0.92833 0.91775 0.34108 0.0
C127 C 0.93496 0.88385 0.36518 0.0
C128 C 0.9544 0.96299 0.34084 0.0
C129 C 0.98669 0.97531 0.36493 0.0
C130 C 0.99188 0.94223 0.3895 0.0
C131 C 0.96656 0.89674 0.38951 0.0
H132 H 0.38154 0.54193 0.91021 0.0
H133 H 0.41668 0.59815 0.82047 0.0
H134 H 0.4608 0.49636 0.91119 0.0
H135 H 0.49593 0.55182 0.8214 0.0
H136 H 0.59513 0.40763 0.82237 0.0
H137 H 0.51659 0.45514 0.82276 0.0
H138 H 0.55556 0.51797 0.91014 0.0
H139 H 0.63412 0.47118 0.90969 0.0
C140 C 0.40649 0.54495 0.89084 0.0
C141 C 0.39305 0.57354 0.86526 0.0
C142 C 0.45173 0.51889 0.89143 0.0
C143 C 0.48397 0.52027 0.86624 0.0
C144 C 0.47125 0.54981 0.84094 0.0
C145 C 0.4263 0.57667 0.84056 0.0
C146 C 0.58655 0.43107 0.84182 0.0
C147 C 0.62062 0.43575 0.866 0.0
C148 C 0.54201 0.4586 0.84186 0.0
C149 C 0.53052 0.49045 0.86634 0.0
C150 C 0.56369 0.49366 0.89102 0.0
C151 C 0.60852 0.46688 0.89074 0.0
H152 H 0.48712 0.36108 0.11762 0.0
H153 H 0.61985 0.42402 0.15882 0.0
H154 H 0.44791 0.44325 0.11743 0.0
H155 H 0.58018 0.50648 0.15862 0.0
H156 H 0.37618 0.58647 0.15811 0.0
H157 H 0.41596 0.50404 0.15685 0.0
H158 H 0.55057 0.56981 0.1202 0.0
H159 H 0.51127 0.65187 0.12145 0.0
C160 C 0.50811 0.39248 0.12649 0.0
C161 C 0.5567 0.386 0.13825 0.0
C162 C 0.48539 0.43944 0.12658 0.0
C163 C 0.51088 0.48106 0.13816 0.0
C164 C 0.55981 0.47495 0.14939 0.0
C165 C 0.58246 0.42779 0.14956 0.0
C166 C 0.41414 0.58326 0.14965 0.0
C167 C 0.44049 0.6257 0.13986 0.0
C168 C 0.43684 0.53613 0.14886 0.0
C169 C 0.4864 0.53071 0.13854 0.0
C170 C 0.51255 0.57304 0.12859 0.0
C171 C 0.48981 0.61997 0.12912 0.0
H172 H 0.08101 0.12613 0.66223 0.0
H173 H 0.14785 0.98999 0.62778 0.0
H174 H 0.99924 0.08508 0.6631 0.0
H175 H 0.06654 0.94947 0.62863 0.0
H176 H 0.92202 0.87985 0.66726 0.0
H177 H 0.00374 0.92092 0.66751 0.0
H178 H 0.93864 0.05086 0.6245 0.0
H179 H 0.85731 0.01033 0.62426 0.0
C180 C 0.07827 0.08764 0.65477 0.0
C181 C 0.12087 0.06144 0.64483 0.0
C182 C 0.03153 0.0642 0.65521 0.0
C183 C 0.02672 0.01406 0.64602 0.0
C184 C 0.06929 0.98794 0.63617 0.0
C185 C 0.11578 0.0114 0.63546 0.0
C186 C 0.92523 0.91706 0.65774 0.0
C187 C 0.8832 0.94171 0.64567 0.0
C188 C 0.97195 0.94052 0.65786 0.0
C189 C 0.97734 0.98915 0.64615 0.0
C190 C 0.9354 0.01366 0.63404 0.0
C191 C 0.8889 0.99016 0.63369 0.0
H192 H 0.14689 0.32698 0.45929 0.0
H193 H 0.26552 0.25736 0.40749 0.0
H194 H 0.19007 0.30728 0.50611 0.0
H195 H 0.3106 0.23984 0.45463 0.0
H196 H 0.3185 0.13789 0.53992 0.0
H197 H 0.30084 0.18047 0.49258 0.0
H198 H 0.25228 0.31104 0.54272 0.0
H199 H 0.2676 0.26688 0.59044 0.0
C200 C 0.18316 0.30895 0.45779 0.0
C201 C 0.2021 0.29283 0.42953 0.0
C202 C 0.20833 0.29782 0.48487 0.0
C203 C 0.25363 0.27082 0.48452 0.0
C204 C 0.27509 0.25929 0.456 0.0
C205 C 0.2495 0.26989 0.42884 0.0
C206 C 0.30505 0.17608 0.54097 0.0
C207 C 0.29359 0.19851 0.56912 0.0
C208 C 0.29516 0.20088 0.51359 0.0
C209 C 0.27412 0.24919 0.51348 0.0
C210 C 0.26708 0.27337 0.54173 0.0
C211 C 0.27636 0.24822 0.5692 0.0
H212 H 0.25045 0.7769 0.90812 0.0
H213 H 0.17891 0.65977 0.95981 0.0
H214 H 0.26612 0.82283 0.95516 0.0
H215 H 0.19695 0.70358 0.00653 0.0
H216 H 0.36624 0.83058 0.04128 0.0
H217 H 0.32409 0.81417 0.99371 0.0
H218 H 0.19288 0.76523 0.04302 0.0
H219 H 0.23678 0.77901 0.09099 0.0
C220 C 0.23714 0.76139 0.92941 0.0
C221 C 0.21425 0.71413 0.93013 0.0
C222 C 0.24667 0.78746 0.95653 0.0
C223 C 0.23418 0.76656 0.98504 0.0
C224 C 0.20715 0.72145 0.98532 0.0
C225 C 0.19702 0.69587 0.95828 0.0
C226 C 0.32798 0.81733 0.04212 0.0
C227 C 0.30541 0.80506 0.07008 0.0
C228 C 0.30341 0.80816 0.01458 0.0
C229 C 0.25514 0.78717 0.01415 0.0
C230 C 0.2306 0.77985 0.04226 0.0
C231 C 0.25559 0.78828 0.06988 0.0
H232 H 0.73621 0.73583 0.59516 0.0
H233 H 0.68143 0.86223 0.54372 0.0
H234 H 0.75166 0.69071 0.54778 0.0
H235 H 0.69911 0.81866 0.49669 0.0
H236 H 0.73492 0.74 0.41222 0.0
H237 H 0.69015 0.75763 0.45946 0.0
H238 H 0.81365 0.69573 0.51087 0.0
H239 H 0.85669 0.67597 0.46397 0.0
C240 C 0.72657 0.75369 0.5738 0.0
C241 C 0.70833 0.80303 0.57333 0.0
C242 C 0.73592 0.72798 0.54653 0.0
C243 C 0.72787 0.75123 0.51811 0.0
C244 C 0.70565 0.79901 0.51787 0.0
C245 C 0.69573 0.82437 0.54506 0.0
C246 C 0.75174 0.72875 0.4336 0.0
C247 C 0.79986 0.70733 0.43422 0.0
C248 C 0.72629 0.73937 0.4608 0.0
C249 C 0.74859 0.72939 0.48928 0.0
C250 C 0.79477 0.70392 0.48964 0.0
C251 C 0.81984 0.69277 0.46252 0.0
H252 H 0.82938 0.34778 0.9622 0.0
H253 H 0.7606 0.22903 0.91046 0.0
H254 H 0.80945 0.30509 0.00901 0.0
H255 H 0.74314 0.18419 0.95763 0.0
H256 H 0.63891 0.17817 0.04182 0.0
H257 H 0.68347 0.19338 0.99498 0.0
H258 H 0.81166 0.24474 0.04629 0.0
H259 H 0.76526 0.23216 0.09351 0.0
C260 C 0.81149 0.31156 0.96071 0.0
C261 C 0.79554 0.29252 0.93246 0.0
C262 C 0.80028 0.28662 0.98782 0.0
C263 C 0.77344 0.24139 0.98752 0.0
C264 C 0.76233 0.21971 0.959 0.0
C265 C 0.77289 0.24515 0.93181 0.0
C266 C 0.67702 0.19172 0.04329 0.0
C267 C 0.69795 0.20504 0.07155 0.0
C268 C 0.703 0.20017 0.01616 0.0
C269 C 0.75113 0.22151 0.01644 0.0
C270 C 0.77409 0.22985 0.04494 0.0
C271 C 0.74767 0.22209 0.07216 0.0
H272 H 0.54102 0.25456 0.23803 0.0
H273 H 0.48941 0.12074 0.19309 0.0
H274 H 0.4663 0.25412 0.27031 0.0
H275 H 0.41518 0.11999 0.22558 0.0
H276 H 0.30327 0.118 0.30597 0.0
H277 H 0.38412 0.11288 0.28007 0.0
H278 H 0.37397 0.26948 0.25731 0.0
H279 H 0.29273 0.2746 0.28295 0.0
C280 C 0.51469 0.22406 0.23575 0.0
C281 C 0.52136 0.18757 0.21301 0.0
C282 C 0.47148 0.22425 0.25394 0.0
C283 C 0.43442 0.18744 0.25022 0.0
C284 C 0.44296 0.14886 0.22907 0.0
C285 C 0.48566 0.14917 0.21052 0.0
C286 C 0.31818 0.15138 0.29541 0.0
C287 C 0.29131 0.1967 0.29647 0.0
C288 C 0.36455 0.14838 0.28055 0.0
C289 C 0.38572 0.19083 0.26682 0.0
C290 C 0.35903 0.23624 0.26802 0.0
C291 C 0.31222 0.23906 0.28245 0.0
H292 H 0.23444 0.80229 0.78346 0.0
H293 H 0.39074 0.81308 0.80754 0.0
H294 H 0.23939 0.88367 0.7581 0.0
H295 H 0.39571 0.89404 0.78195 0.0
H296 H 0.38898 1.00056 0.69563 0.0
H297 H 0.38969 0.9261 0.72783 0.0
H298 H 0.25351 0.97573 0.77131 0.0
H299 H 0.2531 0.05067 0.73931 0.0
C300 C 0.26989 0.82184 0.78323 0.0
C301 C 0.3122 0.80095 0.79749 0.0
C302 C 0.27261 0.86875 0.76897 0.0
C303 C 0.31789 0.8956 0.76817 0.0
C304 C 0.3603 0.8744 0.7821 0.0
C305 C 0.35739 0.82794 0.79679 0.0
C306 C 0.3601 0.99647 0.71277 0.0
C307 C 0.32114 0.03183 0.71495 0.0
C308 C 0.36036 0.9536 0.73114 0.0
C309 C 0.3212 0.94451 0.75181 0.0
C310 C 0.28384 0.98127 0.7553 0.0
C311 C 0.28406 0.02466 0.73729 0.0
H312 H 0.6841 0.75668 0.31879 0.0
H313 H 0.74105 0.84514 0.24435 0.0
H314 H 0.59913 0.76738 0.29949 0.0
H315 H 0.65685 0.85387 0.22412 0.0
H316 H 0.50169 0.89268 0.19952 0.0
H317 H 0.57925 0.89129 0.22864 0.0
H318 H 0.54231 0.74392 0.26213 0.0
H319 H 0.46354 0.74696 0.23429 0.0
C320 C 0.67856 0.77803 0.2981 0.0
C321 C 0.71958 0.79999 0.28313 0.0
C322 C 0.62964 0.78411 0.28692 0.0
C323 C 0.62034 0.81184 0.26019 0.0
C324 C 0.66171 0.83338 0.24517 0.0
C325 C 0.71042 0.82789 0.25659 0.0
C326 C 0.50935 0.86081 0.21403 0.0
C327 C 0.47625 0.82006 0.21463 0.0
C328 C 0.55445 0.85947 0.23033 0.0
C329 C 0.5684 0.8168 0.24719 0.0
C330 C 0.53335 0.7776 0.2496 0.0
C331 C 0.48772 0.7794 0.23371 0.0
H332 H 0.77439 0.20168 0.78619 0.0
H333 H 0.61745 0.19446 0.80923 0.0
H334 H 0.7682 0.12015 0.76111 0.0
H335 H 0.61126 0.11331 0.78394 0.0
H336 H 0.61716 0.00565 0.69818 0.0
H337 H 0.61739 0.08037 0.73015 0.0
H338 H 0.75213 0.0287 0.77439 0.0
H339 H 0.75163 0.95353 0.74259 0.0
C340 C 0.73854 0.18287 0.7858 0.0
C341 C 0.69641 0.20481 0.79968 0.0
C342 C 0.7351 0.13587 0.77171 0.0
C343 C 0.68928 0.10996 0.7707 0.0
C344 C 0.64706 0.13221 0.78426 0.0
C345 C 0.65068 0.17877 0.79877 0.0
C346 C 0.64591 0.00937 0.71543 0.0
C347 C 0.68424 0.97337 0.71786 0.0
C348 C 0.64619 0.05239 0.73367 0.0
C349 C 0.68526 0.06096 0.75449 0.0
C350 C 0.72191 0.02356 0.75825 0.0
C351 C 0.72116 0.98006 0.74035 0.0
H352 H 0.96947 0.36175 0.32041 0.0
H353 H 0.05334 0.27174 0.25653 0.0
H354 H 0.89777 0.36098 0.28624 0.0
H355 H 0.98114 0.27093 0.22225 0.0
H356 H 0.84797 0.30795 0.15903 0.0
H357 H 0.92348 0.31963 0.18949 0.0
H358 H 0.83762 0.29586 0.27149 0.0
H359 H 0.76196 0.2844 0.24105 0.0
C360 C 0.9731 0.34266 0.29876 0.0
C361 C 0.01733 0.31652 0.29141 0.0
C362 C 0.93163 0.34178 0.27929 0.0
C363 C 0.93315 0.31498 0.25177 0.0
C364 C 0.97856 0.29192 0.24328 0.0
C365 C 0.02016 0.29261 0.26289 0.0
C366 C 0.84505 0.30535 0.18358 0.0
C367 C 0.79867 0.29525 0.19755 0.0
C368 C 0.88853 0.31185 0.20103 0.0
C369 C 0.88678 0.30893 0.23298 0.0
C370 C 0.84032 0.29912 0.24696 0.0
C371 C 0.7969 0.29219 0.22949 0.0
H372 H 0.18118 0.25969 0.76878 0.0
H373 H 0.23646 0.32092 0.68431 0.0
H374 H 0.17236 0.34355 0.78936 0.0
H375 H 0.22593 0.40537 0.70449 0.0
H376 H 0.25848 0.54295 0.76722 0.0
H377 H 0.25889 0.46397 0.7394 0.0
H378 H 0.1261 0.41787 0.78799 0.0
H379 H 0.12725 0.49585 0.81659 0.0
C380 C 0.19104 0.29109 0.75444 0.0
C381 C 0.20966 0.28328 0.72488 0.0
C382 C 0.18549 0.33953 0.76616 0.0
C383 C 0.19791 0.38187 0.7486 0.0
C384 C 0.21637 0.37399 0.71891 0.0
C385 C 0.22227 0.32541 0.70725 0.0
C386 C 0.22843 0.51663 0.77121 0.0
C387 C 0.1929 0.52576 0.79421 0.0
C388 C 0.22878 0.47098 0.75535 0.0
C389 C 0.19326 0.43352 0.76186 0.0
C390 C 0.15513 0.4448 0.78296 0.0
C391 C 0.15521 0.49002 0.79906 0.0
H392 H 0.18361 0.74139 0.18459 0.0
H393 H 0.24613 0.67442 0.26556 0.0
H394 H 0.09939 0.72913 0.2048 0.0
H395 H 0.16255 0.66405 0.28634 0.0
H396 H 0.01035 0.61879 0.31339 0.0
H397 H 0.08787 0.61986 0.28423 0.0
H398 H 0.04105 0.75728 0.24085 0.0
H399 H 0.96247 0.7545 0.26902 0.0
C400 C 0.17944 0.72432 0.20681 0.0
C401 C 0.22187 0.70891 0.22341 0.0
C402 C 0.13097 0.71741 0.2185 0.0
C403 C 0.12348 0.69521 0.24727 0.0
C404 C 0.16616 0.68008 0.26382 0.0
C405 C 0.21447 0.68653 0.25201 0.0
C406 C 0.0159 0.64826 0.29681 0.0
C407 C 0.98005 0.68645 0.29352 0.0
C408 C 0.0609 0.64947 0.28043 0.0
C409 C 0.07194 0.68949 0.26067 0.0
C410 C 0.03431 0.7257 0.25569 0.0
C411 C 0.98884 0.724 0.27177 0.0
H412 H 0.7511 0.46168 0.76972 0.0
H413 H 0.88677 0.50648 0.81528 0.0
H414 H 0.74958 0.54074 0.74218 0.0
H415 H 0.88695 0.58453 0.78674 0.0
H416 H 0.83366 0.74375 0.76906 0.0
H417 H 0.84323 0.6597 0.78922 0.0
H418 H 0.77911 0.5991 0.70674 0.0
H419 H 0.76764 0.68372 0.68717 0.0
C420 C 0.78186 0.48749 0.77287 0.0
C421 C 0.819 0.47771 0.79478 0.0
C422 C 0.78089 0.53323 0.75714 0.0
C423 C 0.81746 0.57012 0.76265 0.0
C424 C 0.8571 0.55811 0.78256 0.0
C425 C 0.85757 0.51283 0.79859 0.0
C426 C 0.82161 0.71254 0.75518 0.0
C427 C 0.7997 0.72075 0.72651 0.0
C428 C 0.82759 0.66399 0.76663 0.0
C429 C 0.81244 0.6219 0.74962 0.0
C430 C 0.7908 0.63022 0.72078 0.0
C431 C 0.78434 0.67892 0.70946 0.0
loop_
_geom_bond_atom_site_label_1
_geom_bond_atom_site_label_2
_geom_bond_distance
_geom_bond_site_symmetry_2
_ccdc_geom_bond_type
Zn0 O3 2.031 . S
Zn0 O5 2.049 . S
Zn0 O10 2.067 . S
Zn1 O2 1.962 . S
Zn1 O4 1.986 . S
Zn1 O6 1.996 . S
Zn1 O9 1.943 . S
O2 Zn1 1.962 . S
O2 C7 1.254 . S
O3 Zn0 2.031 . S
O3 C7 1.269 . S
O4 Zn1 1.986 . S
O4 C11 1.262 . S
O5 Zn0 2.049 . S
O5 C13 1.260 . S
O6 Zn1 1.996 . S
O6 C13 1.257 . S
C7 O2 1.254 . S
C7 O3 1.269 . S
C8 O9 1.249 . S
C8 O10 1.270 . S
O9 Zn1 1.943 . S
O9 C8 1.249 . S
O10 Zn0 2.067 . S
O10 C8 1.270 . S
C11 O4 1.262 . S
C11 O12 1.232 . S
O12 C11 1.232 . S
C13 O5 1.260 . S
C13 O6 1.257 . S
Zn14 O17 2.031 . S
Zn14 O19 2.049 . S
Zn14 O24 2.067 . S
Zn15 O16 1.962 . S
Zn15 O18 1.986 . S
Zn15 O20 1.996 . S
Zn15 O23 1.943 . S
O16 Zn15 1.962 . S
O16 C21 1.254 . S
O17 Zn14 2.031 . S
O17 C21 1.269 . S
O18 Zn15 1.986 . S
O18 C25 1.262 . S
O19 Zn14 2.049 . S
O19 C27 1.260 . S
O20 Zn15 1.996 . S
O20 C27 1.257 . S
C21 O16 1.254 . S
C21 O17 1.269 . S
C22 O23 1.249 . S
C22 O24 1.270 . S
O23 Zn15 1.943 . S
O23 C22 1.249 . S
O24 Zn14 2.067 . S
O24 C22 1.270 . S
C25 O18 1.262 . S
C25 O26 1.232 . S
O26 C25 1.232 . S
C27 O19 1.260 . S
C27 O20 1.257 . S
Zn28 O31 2.031 . S
Zn28 O33 2.049 . S
Zn28 O38 2.067 . S
Zn29 O30 1.962 . S
Zn29 O32 1.986 . S
Zn29 O34 1.996 . S
Zn29 O37 1.943 . S
O30 Zn29 1.962 . S
O30 C35 1.254 . S
O31 Zn28 2.031 . S
O31 C35 1.269 . S
O32 Zn29 1.986 . S
O32 C39 1.262 . S
O33 Zn28 2.049 . S
O33 C41 1.260 . S
O34 Zn29 1.996 . S
O34 C41 1.257 . S
C35 O30 1.254 . S
C35 O31 1.269 . S
C36 O37 1.249 . S
C36 O38 1.270 . S
O37 Zn29 1.943 . S
O37 C36 1.249 . S
O38 Zn28 2.067 . S
O38 C36 1.270 . S
C39 O32 1.262 . S
C39 O40 1.232 . S
O40 C39 1.232 . S
C41 O33 1.260 . S
C41 O34 1.257 . S
Zn42 O45 2.031 . S
Zn42 O47 2.049 . S
Zn42 O52 2.067 . S
Zn43 O44 1.962 . S
Zn43 O46 1.986 . S
Zn43 O48 1.996 . S
Zn43 O51 1.943 . S
O44 Zn43 1.962 . S
O44 C49 1.254 . S
O45 Zn42 2.031 . S
O45 C49 1.269 . S
O46 Zn43 1.986 . S
O46 C53 1.262 . S
O47 Zn42 2.049 . S
O47 C55 1.260 . S
O48 Zn43 1.996 . S
O48 C55 1.257 . S
C49 O44 1.254 . S
C49 O45 1.269 . S
C50 O51 1.249 . S
C50 O52 1.270 . S
O51 Zn43 1.943 . S
O51 C50 1.249 . S
O52 Zn42 2.067 . S
O52 C50 1.270 . S
C53 O46 1.262 . S
C53 O54 1.232 . S
O54 C53 1.232 . S
C55 O47 1.260 . S
C55 O48 1.257 . S
Zn56 O59 2.031 . S
Zn56 O61 2.049 . S
Zn56 O66 2.067 . S
Zn57 O58 1.962 . S
Zn57 O60 1.986 . S
Zn57 O62 1.996 . S
Zn57 O65 1.943 . S
O58 Zn57 1.962 . S
O58 C63 1.254 . S
O59 Zn56 2.031 . S
O59 C63 1.269 . S
O60 Zn57 1.986 . S
O60 C67 1.262 . S
O61 Zn56 2.049 . S
O61 C69 1.260 . S
O62 Zn57 1.996 . S
O62 C69 1.257 . S
C63 O58 1.254 . S
C63 O59 1.269 . S
C64 O65 1.249 . S
C64 O66 1.270 . S
O65 Zn57 1.943 . S
O65 C64 1.249 . S
O66 Zn56 2.067 . S
O66 C64 1.270 . S
C67 O60 1.262 . S
C67 O68 1.232 . S
O68 C67 1.232 . S
C69 O61 1.260 . S
C69 O62 1.257 . S
Zn70 O73 2.031 . S
Zn70 O75 2.049 . S
Zn70 O80 2.067 . S
Zn71 O72 1.962 . S
Zn71 O74 1.986 . S
Zn71 O76 1.996 . S
Zn71 O79 1.943 . S
O72 Zn71 1.962 . S
O72 C77 1.254 . S
O73 Zn70 2.031 . S
O73 C77 1.269 . S
O74 Zn71 1.986 . S
O74 C81 1.262 . S
O75 Zn70 2.049 . S
O75 C83 1.260 . S
O76 Zn71 1.996 . S
O76 C83 1.257 . S
C77 O72 1.254 . S
C77 O73 1.269 . S
C78 O79 1.249 . S
C78 O80 1.270 . S
O79 Zn71 1.943 . S
O79 C78 1.249 . S
O80 Zn70 2.067 . S
O80 C78 1.270 . S
C81 O74 1.262 . S
C81 O82 1.232 . S
O82 C81 1.232 . S
C83 O75 1.260 . S
C83 O76 1.257 . S
Zn84 O87 2.031 . S
Zn84 O89 2.049 . S
Zn84 O94 2.067 . S
Zn85 O86 1.962 . S
Zn85 O88 1.986 . S
Zn85 O90 1.996 . S
Zn85 O93 1.943 . S
O86 Zn85 1.962 . S
O86 C91 1.254 . S
O87 Zn84 2.031 . S
O87 C91 1.269 . S
O88 Zn85 1.986 . S
O88 C95 1.262 . S
O89 Zn84 2.049 . S
O89 C97 1.260 . S
O90 Zn85 1.996 . S
O90 C97 1.257 . S
C91 O86 1.254 . S
C91 O87 1.269 . S
C92 O93 1.249 . S
C92 O94 1.270 . S
O93 Zn85 1.943 . S
O93 C92 1.249 . S
O94 Zn84 2.067 . S
O94 C92 1.270 . S
C95 O88 1.262 . S
C95 O96 1.232 . S
O96 C95 1.232 . S
C97 O89 1.260 . S
C97 O90 1.257 . S
Zn98 O101 2.031 . S
Zn98 O103 2.049 . S
Zn98 O108 2.067 . S
Zn99 O100 1.962 . S
Zn99 O102 1.986 . S
Zn99 O104 1.996 . S
Zn99 O107 1.943 . S
O100 Zn99 1.962 . S
O100 C105 1.254 . S
O101 Zn98 2.031 . S
O101 C105 1.269 . S
O102 Zn99 1.986 . S
O102 C109 1.262 . S
O103 Zn98 2.049 . S
O103 C111 1.260 . S
O104 Zn99 1.996 . S
O104 C111 1.257 . S
C105 O100 1.254 . S
C105 O101 1.269 . S
C106 O107 1.249 . S
C106 O108 1.270 . S
O107 Zn99 1.943 . S
O107 C106 1.249 . S
O108 Zn98 2.067 . S
O108 C106 1.270 . S
C109 O102 1.262 . S
C109 O110 1.232 . S
O110 C109 1.232 . S
C111 O103 1.260 . S
C111 O104 1.257 . S
H112 C120 0.950 . S
H113 C125 0.950 . S
H114 C122 0.943 1_565 S
H115 C124 0.950 1_655 S
H116 C126 0.950 . S
H117 C128 0.943 1_545 S
H118 C130 0.950 1_455 S
H119 C131 0.950 . S
C120 H112 0.950 . S
C120 C121 1.386 . S
C120 C122 1.391 . S
C121 C120 1.386 . S
C121 C125 1.393 . S
C122 H114 0.943 1_545 S
C122 C120 1.391 . S
C122 C123 1.400 . S
C123 C122 1.400 . S
C123 C124 1.398 . S
C123 C129 1.491 1_445 S
C124 H115 0.950 1_455 S
C124 C123 1.398 . S
C124 C125 1.391 . S
C125 H113 0.950 . S
C125 C121 1.393 . S
C125 C124 1.391 . S
C126 H116 0.950 . S
C126 C127 1.386 . S
C126 C128 1.391 . S
C127 C126 1.386 . S
C127 C131 1.393 . S
C128 H117 0.943 1_565 S
C128 C126 1.391 . S
C128 C129 1.400 . S
C129 C123 1.491 1_665 S
C129 C128 1.400 . S
C129 C130 1.398 . S
C130 H118 0.950 1_655 S
C130 C129 1.398 . S
C130 C131 1.391 . S
C131 H119 0.950 . S
C131 C127 1.393 . S
C131 C130 1.391 . S
H132 C140 0.950 . S
H133 C145 0.950 . S
H134 C142 0.950 . S
H135 C144 0.950 . S
H136 C146 0.950 . S
H137 C148 0.950 . S
H138 C150 0.950 . S
H139 C151 0.950 . S
C140 H132 0.950 . S
C140 C141 1.386 . S
C140 C142 1.391 . S
C141 C140 1.386 . S
C141 C145 1.393 . S
C142 H134 0.950 . S
C142 C140 1.391 . S
C142 C143 1.400 . S
C143 C142 1.400 . S
C143 C144 1.398 . S
C143 C149 1.491 . S
C144 H135 0.950 . S
C144 C143 1.398 . S
C144 C145 1.391 . S
C145 H133 0.950 . S
C145 C141 1.393 . S
C145 C144 1.391 . S
C146 H136 0.950 . S
C146 C147 1.386 . S
C146 C148 1.391 . S
C147 C146 1.386 . S
C147 C151 1.393 . S
C148 H137 0.950 . S
C148 C146 1.391 . S
C148 C149 1.400 . S
C149 C143 1.491 . S
C149 C148 1.400 . S
C149 C150 1.398 . S
C150 H138 0.950 . S
C150 C149 1.398 . S
C150 C151 1.391 . S
C151 H139 0.950 . S
C151 C147 1.393 . S
C151 C150 1.391 . S
H152 C160 0.950 . S
H153 C165 0.950 . S
H154 C162 0.950 . S
H155 C164 0.950 . S
H156 C166 0.950 . S
H157 C168 0.950 . S
H158 C170 0.950 . S
H159 C171 0.950 . S
C160 H152 0.950 . S
C160 C161 1.386 . S
C160 C162 1.391 . S
C161 C160 1.386 . S
C161 C165 1.393 . S
C162 H154 0.950 . S
C162 C160 1.391 . S
C162 C163 1.400 . S
C163 C162 1.400 . S
C163 C164 1.398 . S
C163 C169 1.491 . S
C164 H155 0.950 . S
C164 C163 1.398 . S
C164 C165 1.391 . S
C165 H153 0.950 . S
C165 C161 1.393 . S
C165 C164 1.391 . S
C166 H156 0.950 . S
C166 C167 1.386 . S
C166 C168 1.391 . S
C167 C166 1.386 . S
C167 C171 1.393 . S
C168 H157 0.950 . S
C168 C166 1.391 . S
C168 C169 1.400 . S
C169 C163 1.491 . S
C169 C168 1.400 . S
C169 C170 1.398 . S
C170 H158 0.950 . S
C170 C169 1.398 . S
C170 C171 1.391 . S
C171 H159 0.950 . S
C171 C167 1.393 . S
C171 C170 1.391 . S
H172 C180 0.950 . S
H173 C185 0.950 . S
H174 C182 0.950 . S
H175 C184 0.950 1_565 S
H176 C186 0.950 . S
H177 C188 0.950 . S
H178 C190 0.950 1_545 S
H179 C191 0.950 . S
C180 H172 0.950 . S
C180 C181 1.386 . S
C180 C182 1.391 . S
C181 C180 1.386 . S
C181 C185 1.393 . S
C182 H174 0.950 . S
C182 C180 1.391 . S
C182 C183 1.400 . S
C183 C182 1.400 . S
C183 C184 1.398 . S
C183 C189 1.491 1_445 S
C184 H175 0.950 1_545 S
C184 C183 1.398 . S
C184 C185 1.391 . S
C185 H173 0.950 . S
C185 C181 1.393 . S
C185 C184 1.391 . S
C186 H176 0.950 . S
C186 C187 1.386 . S
C186 C188 1.391 . S
C187 C186 1.386 . S
C187 C191 1.393 . S
C188 H177 0.950 . S
C188 C186 1.391 . S
C188 C189 1.400 . S
C189 C183 1.491 1_665 S
C189 C188 1.400 . S
C189 C190 1.398 . S
C190 H178 0.950 1_565 S
C190 C189 1.398 . S
C190 C191 1.391 . S
C191 H179 0.950 . S
C191 C187 1.393 . S
C191 C190 1.391 . S
H192 C200 0.950 . S
H193 C205 0.950 . S
H194 C202 0.950 . S
H195 C204 0.950 . S
H196 C206 0.950 . S
H197 C208 0.950 . S
H198 C210 0.950 . S
H199 C211 0.950 . S
C200 H192 0.950 . S
C200 C201 1.386 . S
C200 C202 1.391 . S
C201 C200 1.386 . S
C201 C205 1.393 . S
C202 H194 0.950 . S
C202 C200 1.391 . S
C202 C203 1.400 . S
C203 C202 1.400 . S
C203 C204 1.398 . S
C203 C209 1.491 . S
C204 H195 0.950 . S
C204 C203 1.398 . S
C204 C205 1.391 . S
C205 H193 0.950 . S
C205 C201 1.393 . S
C205 C204 1.391 . S
C206 H196 0.950 . S
C206 C207 1.386 . S
C206 C208 1.391 . S
C207 C206 1.386 . S
C207 C211 1.393 . S
C208 H197 0.950 . S
C208 C206 1.391 . S
C208 C209 1.400 . S
C209 C203 1.491 . S
C209 C208 1.400 . S
C209 C210 1.398 . S
C210 H198 0.950 . S
C210 C209 1.398 . S
C210 C211 1.391 . S
C211 H199 0.950 . S
C211 C207 1.393 . S
C211 C210 1.391 . S
H212 C220 0.950 . S
H213 C225 0.950 . S
H214 C222 0.950 . S
H215 C224 0.950 . S
H216 C226 0.950 . S
H217 C228 0.950 . S
H218 C230 0.950 . S
H219 C231 0.950 . S
C220 H212 0.950 . S
C220 C221 1.386 . S
C220 C222 1.391 . S
C221 C220 1.386 . S
C221 C225 1.393 . S
C222 H214 0.950 . S
C222 C220 1.391 . S
C222 C223 1.400 . S
C223 C222 1.400 . S
C223 C224 1.398 . S
C223 C229 1.491 1_556 S
C224 H215 0.950 . S
C224 C223 1.398 . S
C224 C225 1.391 . S
C225 H213 0.950 . S
C225 C221 1.393 . S
C225 C224 1.391 . S
C226 H216 0.950 . S
C226 C227 1.386 . S
C226 C228 1.391 . S
C227 C226 1.386 . S
C227 C231 1.393 . S
C228 H217 0.950 . S
C228 C226 1.391 . S
C228 C229 1.400 . S
C229 C223 1.491 1_554 S
C229 C228 1.400 . S
C229 C230 1.398 . S
C230 H218 0.950 . S
C230 C229 1.398 . S
C230 C231 1.391 . S
C231 H219 0.950 . S
C231 C227 1.393 . S
C231 C230 1.391 . S
H232 C240 0.950 . S
H233 C245 0.950 . S
H234 C242 0.950 . S
H235 C244 0.950 . S
H236 C246 0.950 . S
H237 C248 0.950 . S
H238 C250 0.950 . S
H239 C251 0.950 . S
C240 H232 0.950 . S
C240 C241 1.386 . S
C240 C242 1.391 . S
C241 C240 1.386 . S
C241 C245 1.393 . S
C242 H234 0.950 . S
C242 C240 1.391 . S
C242 C243 1.400 . S
C243 C242 1.400 . S
C243 C244 1.398 . S
C243 C249 1.491 . S
C244 H235 0.950 . S
C244 C243 1.398 . S
C244 C245 1.391 . S
C245 H233 0.950 . S
C245 C241 1.393 . S
C245 C244 1.391 . S
C246 H236 0.950 . S
C246 C247 1.386 . S
C246 C248 1.391 . S
C247 C246 1.386 . S
C247 C251 1.393 . S
C248 H237 0.950 . S
C248 C246 1.391 . S
C248 C249 1.400 . S
C249 C243 1.491 . S
C249 C248 1.400 . S
C249 C250 1.398 . S
C250 H238 0.950 . S
C250 C249 1.398 . S
C250 C251 1.391 . S
C251 H239 0.950 . S
C251 C247 1.393 . S
C251 C250 1.391 . S
H252 C260 0.950 . S
H253 C265 0.950 . S
H254 C262 0.950 . S
H255 C264 0.950 . S
H256 C266 0.950 . S
H257 C268 0.950 . S
H258 C270 0.950 . S
H259 C271 0.950 . S
C260 H252 0.950 . S
C260 C261 1.386 . S
C260 C262 1.391 . S
C261 C260 1.386 . S
C261 C265 1.393 . S
C262 H254 0.950 . S
C262 C260 1.391 . S
C262 C263 1.400 . S
C263 C262 1.400 . S
C263 C264 1.398 . S
C263 C269 1.491 1_556 S
C264 H255 0.950 . S
C264 C263 1.398 . S
C264 C265 1.391 . S
C265 H253 0.950 . S
C265 C261 1.393 . S
C265 C264 1.391 . S
C266 H256 0.950 . S
C266 C267 1.386 . S
C266 C268 1.391 . S
C267 C266 1.386 . S
C267 C271 1.393 . S
C268 H257 0.950 . S
C268 C266 1.391 . S
C268 C269 1.400 . S
C269 C263 1.491 1_554 S
C269 C268 1.400 . S
C269 C270 1.398 . S
C270 H258 0.950 . S
C270 C269 1.398 . S
C270 C271 1.391 . S
C271 H259 0.950 . S
C271 C267 1.393 . S
C271 C270 1.391 . S
H272 C280 0.950 . S
H273 C285 0.950 . S
H274 C282 0.950 . S
H275 C284 0.950 . S
H276 C286 0.950 . S
H277 C288 0.950 . S
H278 C290 0.950 . S
H279 C291 0.950 . S
C280 H272 0.950 . S
C280 C281 1.386 . S
C280 C282 1.391 . S
C281 C280 1.386 . S
C281 C285 1.393 . S
C282 H274 0.950 . S
C282 C280 1.391 . S
C282 C283 1.400 . S
C283 C282 1.400 . S
C283 C284 1.398 . S
C283 C289 1.491 . S
C284 H275 0.950 . S
C284 C283 1.398 . S
C284 C285 1.391 . S
C285 H273 0.950 . S
C285 C281 1.393 . S
C285 C284 1.391 . S
C286 H276 0.950 . S
C286 C287 1.386 . S
C286 C288 1.391 . S
C287 C286 1.386 . S
C287 C291 1.393 . S
C288 H277 0.950 . S
C288 C286 1.391 . S
C288 C289 1.400 . S
C289 C283 1.491 . S
C289 C288 1.400 . S
C289 C290 1.398 . S
C290 H278 0.950 . S
C290 C289 1.398 . S
C290 C291 1.391 . S
C291 H279 0.950 . S
C291 C287 1.393 . S
C291 C290 1.391 . S
H292 C300 0.950 . S
H293 C305 0.950 . S
H294 C302 0.950 . S
H295 C304 0.950 . S
H296 C306 0.950 . S
H297 C308 0.950 . S
H298 C310 0.950 . S
H299 C311 0.950 1_545 S
C300 H292 0.950 . S
C300 C301 1.386 . S
C300 C302 1.391 . S
C301 C300 1.386 . S
C301 C305 1.393 . S
C302 H294 0.950 . S
C302 C300 1.391 . S
C302 C303 1.400 . S
C303 C302 1.400 . S
C303 C304 1.398 . S
C303 C309 1.491 . S
C304 H295 0.950 . S
C304 C303 1.398 . S
C304 C305 1.391 . S
C305 H293 0.950 . S
C305 C301 1.393 . S
C305 C304 1.391 . S
C306 H296 0.950 . S
C306 C307 1.386 . S
C306 C308 1.391 . S
C307 C306 1.386 . S
C307 C311 1.393 . S
C308 H297 0.950 . S
C308 C306 1.391 . S
C308 C309 1.400 . S
C309 C303 1.491 . S
C309 C308 1.400 . S
C309 C310 1.398 . S
C310 H298 0.950 . S
C310 C309 1.398 . S
C310 C311 1.391 . S
C311 H299 0.950 1_565 S
C311 C307 1.393 . S
C311 C310 1.391 . S
H312 C320 0.950 . S
H313 C325 0.950 . S
H314 C322 0.950 . S
H315 C324 0.950 . S
H316 C326 0.950 . S
H317 C328 0.950 . S
H318 C330 0.950 . S
H319 C331 0.950 . S
C320 H312 0.950 . S
C320 C321 1.386 . S
C320 C322 1.391 . S
C321 C320 1.386 . S
C321 C325 1.393 . S
C322 H314 0.950 . S
C322 C320 1.391 . S
C322 C323 1.400 . S
C323 C322 1.400 . S
C323 C324 1.398 . S
C323 C329 1.491 . S
C324 H315 0.950 . S
C324 C323 1.398 . S
C324 C325 1.391 . S
C325 H313 0.950 . S
C325 C321 1.393 . S
C325 C324 1.391 . S
C326 H316 0.950 . S
C326 C327 1.386 . S
C326 C328 1.391 . S
C327 C326 1.386 . S
C327 C331 1.393 . S
C328 H317 0.950 . S
C328 C326 1.391 . S
C328 C329 1.400 . S
C329 C323 1.491 . S
C329 C328 1.400 . S
C329 C330 1.398 . S
C330 H318 0.950 . S
C330 C329 1.398 . S
C330 C331 1.391 . S
C331 H319 0.950 . S
C331 C327 1.393 . S
C331 C330 1.391 . S
H332 C340 0.950 . S
H333 C345 0.950 . S
H334 C342 0.950 . S
H335 C344 0.950 . S
H336 C346 0.950 . S
H337 C348 0.950 . S
H338 C350 0.950 . S
H339 C351 0.950 1_565 S
C340 H332 0.950 . S
C340 C341 1.386 . S
C340 C342 1.391 . S
C341 C340 1.386 . S
C341 C345 1.393 . S
C342 H334 0.950 . S
C342 C340 1.391 . S
C342 C343 1.400 . S
C343 C342 1.400 . S
C343 C344 1.398 . S
C343 C349 1.491 . S
C344 H335 0.950 . S
C344 C343 1.398 . S
C344 C345 1.391 . S
C345 H333 0.950 . S
C345 C341 1.393 . S
C345 C344 1.391 . S
C346 H336 0.950 . S
C346 C347 1.386 . S
C346 C348 1.391 . S
C347 C346 1.386 . S
C347 C351 1.393 . S
C348 H337 0.950 . S
C348 C346 1.391 . S
C348 C349 1.400 . S
C349 C343 1.491 . S
C349 C348 1.400 . S
C349 C350 1.398 . S
C350 H338 0.950 . S
C350 C349 1.398 . S
C350 C351 1.391 . S
C351 H339 0.950 1_545 S
C351 C347 1.393 . S
C351 C350 1.391 . S
H352 C360 0.950 . S
H353 C365 0.950 1_455 S
H354 C362 0.950 . S
H355 C364 0.950 . S
H356 C366 0.950 . S
H357 C368 0.950 . S
H358 C370 0.950 . S
H359 C371 0.950 . S
C360 H352 0.950 . S
C360 C361 1.386 . S
C360 C362 1.391 . S
C361 C360 1.386 . S
C361 C365 1.393 . S
C362 H354 0.950 . S
C362 C360 1.391 . S
C362 C363 1.400 . S
C363 C362 1.400 . S
C363 C364 1.398 . S
C363 C369 1.491 . S
C364 H355 0.950 . S
C364 C363 1.398 . S
C364 C365 1.391 . S
C365 H353 0.950 1_655 S
C365 C361 1.393 . S
C365 C364 1.391 . S
C366 H356 0.950 . S
C366 C367 1.386 . S
C366 C368 1.391 . S
C367 C366 1.386 . S
C367 C371 1.393 . S
C368 H357 0.950 . S
C368 C366 1.391 . S
C368 C369 1.400 . S
C369 C363 1.491 . S
C369 C368 1.400 . S
C369 C370 1.398 . S
C370 H358 0.950 . S
C370 C369 1.398 . S
C370 C371 1.391 . S
C371 H359 0.950 . S
C371 C367 1.393 . S
C371 C370 1.391 . S
H372 C380 0.950 . S
H373 C385 0.950 . S
H374 C382 0.950 . S
H375 C384 0.950 . S
H376 C386 0.950 . S
H377 C388 0.950 . S
H378 C390 0.950 . S
H379 C391 0.950 . S
C380 H372 0.950 . S
C380 C381 1.386 . S
C380 C382 1.391 . S
C381 C380 1.386 . S
C381 C385 1.393 . S
C382 H374 0.950 . S
C382 C380 1.391 . S
C382 C383 1.400 . S
C383 C382 1.400 . S
C383 C384 1.398 . S
C383 C389 1.491 . S
C384 H375 0.950 . S
C384 C383 1.398 . S
C384 C385 1.391 . S
C385 H373 0.950 . S
C385 C381 1.393 . S
C385 C384 1.391 . S
C386 H376 0.950 . S
C386 C387 1.386 . S
C386 C388 1.391 . S
C387 C386 1.386 . S
C387 C391 1.393 . S
C388 H377 0.950 . S
C388 C386 1.391 . S
C388 C389 1.400 . S
C389 C383 1.491 . S
C389 C388 1.400 . S
C389 C390 1.398 . S
C390 H378 0.950 . S
C390 C389 1.398 . S
C390 C391 1.391 . S
C391 H379 0.950 . S
C391 C387 1.393 . S
C391 C390 1.391 . S
H392 C400 0.950 . S
H393 C405 0.950 . S
H394 C402 0.950 . S
H395 C404 0.950 . S
H396 C406 0.950 . S
H397 C408 0.950 . S
H398 C410 0.950 . S
H399 C411 0.950 1_655 S
C400 H392 0.950 . S
C400 C401 1.386 . S
C400 C402 1.391 . S
C401 C400 1.386 . S
C401 C405 1.393 . S
C402 H394 0.950 . S
C402 C400 1.391 . S
C402 C403 1.400 . S
C403 C402 1.400 . S
C403 C404 1.398 . S
C403 C409 1.491 . S
C404 H395 0.950 . S
C404 C403 1.398 . S
C404 C405 1.391 . S
C405 H393 0.950 . S
C405 C401 1.393 . S
C405 C404 1.391 . S
C406 H396 0.950 . S
C406 C407 1.386 . S
C406 C408 1.391 . S
C407 C406 1.386 . S
C407 C411 1.393 . S
C408 H397 0.950 . S
C408 C406 1.391 . S
C408 C409 1.400 . S
C409 C403 1.491 . S
C409 C408 1.400 . S
C409 C410 1.398 . S
C410 H398 0.950 . S
C410 C409 1.398 . S
C410 C411 1.391 . S
C411 H399 0.950 1_455 S
C411 C407 1.393 . S
C411 C410 1.391 . S
H412 C420 0.950 . S
H413 C425 0.950 . S
H414 C422 0.950 . S
H415 C424 0.950 . S
H416 C426 0.950 . S
H417 C428 0.950 . S
H418 C430 0.950 . S
H419 C431 0.950 . S
C420 H412 0.950 . S
C420 C421 1.386 . S
C420 C422 1.391 . S
C421 C420 1.386 . S
C421 C425 1.393 . S
C422 H414 0.950 . S
C422 C420 1.391 . S
C422 C423 1.400 . S
C423 C422 1.400 . S
C423 C424 1.398 . S
C423 C429 1.491 . S
C424 H415 0.950 . S
C424 C423 1.398 . S
C424 C425 1.391 . S
C425 H413 0.950 . S
C425 C421 1.393 . S
C425 C424 1.391 . S
C426 H416 0.950 . S
C426 C427 1.386 . S
C426 C428 1.391 . S
C427 C426 1.386 . S
C427 C431 1.393 . S
C428 H417 0.950 . S
C428 C426 1.391 . S
C428 C429 1.400 . S
C429 C423 1.491 . S
C429 C428 1.400 . S
C429 C430 1.398 . S
C430 H418 0.950 . S
C430 C429 1.398 . S
C430 C431 1.391 . S
C431 H419 0.950 . S
C431 C427 1.393 . S
C431 C430 1.391 . S
C121 C8 0.524 . S
C127 C36 0.561 . S
C141 C22 0.523 . S
C147 C50 0.566 . S
C161 C64 0.521 . S
C167 C92 0.575 . S
C181 C78 0.527 . S
C187 C106 0.554 . S
C201 C13 1.412 . S
C207 C83 1.441 . S
C221 C27 1.425 . S
C227 C97 1.413 . S
C241 C111 1.441 . S
C247 C41 1.407 . S
C261 C55 1.413 . S
C267 C69 1.440 . S
C281 C63 1.448 . S
C287 C11 1.506 . S
C301 C25 1.500 . S
C307 C77 1.451 1_565 S
C321 C39 1.500 . S
C327 C91 1.448 . S
C341 C53 1.500 . S
C347 C105 1.451 1_545 S
C361 C7 1.460 1_655 S
C367 C67 1.507 . S
C381 C81 1.507 . S
C387 C21 1.460 . S
C401 C95 1.501 . S
C407 C35 1.443 1_455 S
C421 C49 1.450 . S
C427 C109 1.500 . S
