# Generated by pormake.
# Topology qtz-x, (6)-cn, num edge types: 1
# Building blocks:
#     Node 0, Type 0, BuildingBlock: KUMJIN_clean_sbu_0, # of connection points: 6
#     Node 1, Type 0, BuildingBlock: KUMJIN_clean_sbu_0, # of connection points: 6
#     Node 2, Type 0, BuildingBlock: KUMJIN_clean_sbu_0, # of connection points: 6
#     Edge 3, Type (0, 0), BuildingBlock: FUNLAD_clean_linker_0, # of connection points: 2
#     Edge 4, Type (0, 0), BuildingBlock: FUNLAD_clean_linker_0, # of connection points: 2
#     Edge 5, Type (0, 0), BuildingBlock: FUNLAD_clean_linker_0, # of connection points: 2
#     Edge 6, Type (0, 0), BuildingBlock: FUNLAD_clean_linker_0, # of connection points: 2
#     Edge 7, Type (0, 0), BuildingBlock: FUNLAD_clean_linker_0, # of connection points: 2
#     Edge 8, Type (0, 0), BuildingBlock: FUNLAD_clean_linker_0, # of connection points: 2
#     Edge 9, Type (0, 0), BuildingBlock: FUNLAD_clean_linker_0, # of connection points: 2
#     Edge 10, Type (0, 0), BuildingBlock: FUNLAD_clean_linker_0, # of connection points: 2
#     Edge 11, Type (0, 0), BuildingBlock: FUNLAD_clean_linker_0, # of connection points: 2
# Relax obj value: 0.166
# Max RMSD: 0.277
# Mean RMSD: 0.277
data_MOF--net-qtz-x--node1-KUMJIN_clean_sbu_0--edge1-FUNLAD_clean_linker_0
_symmetry_space_group_name_H-M    P1
_symmetry_Int_Tables_number       1
_symmetry_cell_setting            triclinic
loop_
_symmetry_equiv_pos_as_xyz
'x, y, z'
_cell_length_a     17.543946
_cell_length_b     17.492192
_cell_length_c     57.442971
_cell_angle_alpha  89.973434
_cell_angle_beta   89.987744
_cell_angle_gamma 119.83321
loop_
_atom_site_label
_atom_site_type_symbol
_atom_site_fract_x
_atom_site_fract_y
_atom_site_fract_z
_atom_type_partial_charge
Eu0 Eu 0.24706 0.48281 0.19238 0.0
C1 C 0.8693 0.42175 0.17719 0.0
C2 C 0.77608 0.30033 0.20268 0.0
C3 C 0.73563 0.41085 0.19302 0.0
C4 C 0.85247 0.34585 0.18894 0.0
C5 C 0.81029 0.45428 0.17877 0.0
C6 C 0.71862 0.33408 0.20498 0.0
C7 C 0.90004 0.56669 0.1508 0.0
N8 N 0.94184 0.46205 0.16352 0.0
C9 C 0.95645 0.53181 0.14975 0.0
C10 C 0.8271 0.52834 0.16555 0.0
Eu11 Eu 0.034 0.39914 0.16274 0.0
N12 N 0.90862 0.31429 0.18611 0.0
C13 C 0.88925 0.23455 0.19522 0.0
C14 C 0.75856 0.22102 0.21319 0.0
C15 C 0.81489 0.18749 0.20921 0.0
H16 H 0.01275 0.56184 0.13833 0.0
H17 H 0.80104 0.12535 0.21688 0.0
H18 H 0.65988 0.3003 0.21556 0.0
H19 H 0.91287 0.62313 0.14024 0.0
H20 H 0.93214 0.20788 0.19217 0.0
H21 H 0.46076 0.77525 0.13936 0.0
H22 H 0.70075 0.1842 0.22394 0.0
H23 H 0.29015 0.32861 0.2135 0.0
H24 H 0.33588 0.68409 0.16431 0.0
H25 H 0.39941 0.28048 0.20805 0.0
H26 H 0.68984 0.43517 0.19458 0.0
H27 H 0.5679 0.72799 0.12941 0.0
H28 H 0.61997 0.6197 0.1344 0.0
H29 H 0.78334 0.55532 0.16628 0.0
H30 H 0.60366 0.48587 0.15297 0.0
N31 N 0.36824 0.58232 0.16885 0.0
C32 C 0.38109 0.66132 0.16062 0.0
C33 C 0.51268 0.68695 0.1406 0.0
C34 C 0.50218 0.60847 0.14991 0.0
C35 C 0.45248 0.71392 0.14622 0.0
C36 C 0.42876 0.55695 0.16431 0.0
H37 H 0.52249 0.35991 0.18049 0.0
N38 N 0.34982 0.4333 0.18894 0.0
C39 C 0.40559 0.33659 0.19847 0.0
C40 C 0.4192 0.48058 0.17458 0.0
C41 C 0.34408 0.36429 0.20159 0.0
C42 C 0.47481 0.38147 0.18285 0.0
C43 C 0.48313 0.45511 0.17095 0.0
O44 O 0.23749 0.54314 0.22499 0.0
O45 O 0.10218 0.41741 0.1968 0.0
O46 O 0.06036 0.51738 0.18411 0.0
O47 O 0.21368 0.59185 0.1858 0.0
O48 O 0.16454 0.3624 0.21472 0.0
O49 O 0.3536 0.53556 0.21798 0.0
O50 O 0.01322 0.39771 0.1253 0.0
O51 O 0.17842 0.45635 0.15848 0.0
O52 O 0.21617 0.35644 0.17416 0.0
O53 O 0.06493 0.28764 0.16726 0.0
O54 O 0.12079 0.50793 0.13735 0.0
O55 O 0.94498 0.27594 0.1449 0.0
C56 C 0.09028 0.35944 0.21166 0.0
C57 C 0.30865 0.52155 0.25721 0.0
C58 C 0.33723 0.54942 0.29889 0.0
C59 C 0.33971 0.58058 0.27608 0.0
C60 C 0.30196 0.45853 0.30257 0.0
C61 C 0.27677 0.43152 0.26133 0.0
C62 C 0.27226 0.4002 0.28388 0.0
C63 C 0.13697 0.58967 0.18721 0.0
C64 C 0.31115 0.5543 0.23335 0.0
C65 C 0.55441 0.50488 0.15608 0.0
C66 C 0.56376 0.58117 0.14554 0.0
C67 C 0.19342 0.50965 0.14209 0.0
C68 C 0.87292 0.29383 0.11177 0.0
C69 C 0.88054 0.31947 0.0883 0.0
C70 C 0.80608 0.30367 0.07532 0.0
C71 C 0.72317 0.26028 0.08613 0.0
C72 C 0.78967 0.25154 0.12232 0.0
C73 C 0.71527 0.23455 0.10947 0.0
C74 C 0.14024 0.28725 0.16836 0.0
C75 C 0.9533 0.31473 0.12485 0.0
H76 H 0.36605 0.65043 0.27301 0.0
H77 H 0.30013 0.4328 0.31985 0.0
H78 H 0.25652 0.38507 0.24725 0.0
H79 H 0.24711 0.33056 0.28682 0.0
H80 H 0.94484 0.35206 0.08015 0.0
H81 H 0.66467 0.24803 0.07672 0.0
H82 H 0.78207 0.23213 0.14046 0.0
H83 H 0.65126 0.20214 0.11769 0.0
Eu84 Eu 0.63527 0.9476 0.52657 0.0
C85 C 0.93809 0.31557 0.50637 0.0
C86 C 0.92789 0.40361 0.53744 0.0
C87 C 0.07063 0.44182 0.52129 0.0
C88 C 0.88781 0.33112 0.52214 0.0
C89 C 0.02981 0.37216 0.50531 0.0
C90 C 0.01975 0.45746 0.53735 0.0
C91 C 0.03258 0.29297 0.47113 0.0
N92 N 0.89656 0.24819 0.49107 0.0
C93 C 0.94141 0.23909 0.47278 0.0
C94 C 0.07722 0.35893 0.48769 0.0
Eu95 Eu 0.74237 0.15883 0.49531 0.0
N96 N 0.7992 0.2787 0.52153 0.0
C97 C 0.74633 0.29869 0.53451 0.0
C98 C 0.87421 0.42157 0.55178 0.0
C99 C 0.78298 0.3698 0.55 0.0
H100 H 0.90682 0.18816 0.45995 0.0
H101 H 0.74083 0.38421 0.56067 0.0
H102 H 0.05182 0.51292 0.54914 0.0
H103 H 0.06828 0.28381 0.45706 0.0
H104 H 0.67579 0.25865 0.53338 0.0
H105 H 0.79378 0.74778 0.53562 0.0
H106 H 0.9024 0.47657 0.56379 0.0
H107 H 0.43892 0.88883 0.50233 0.0
H108 H 0.76491 0.86937 0.54483 0.0
H109 H 0.33018 0.7729 0.47692 0.0
H110 H 0.14115 0.4855 0.52092 0.0
H111 H 0.70611 0.63874 0.50529 0.0
H112 H 0.57897 0.57937 0.47741 0.0
H113 H 0.14779 0.401 0.48629 0.0
H114 H 0.45167 0.58551 0.46168 0.0
N115 N 0.66579 0.83207 0.51901 0.0
C116 C 0.72678 0.82208 0.53147 0.0
C117 C 0.69383 0.69231 0.50913 0.0
C118 C 0.62623 0.69847 0.49792 0.0
C119 C 0.74327 0.75354 0.5263 0.0
C120 C 0.61303 0.76954 0.50354 0.0
H121 H 0.35686 0.65567 0.462 0.0
N122 N 0.52755 0.83882 0.50193 0.0
C123 C 0.3895 0.77224 0.48172 0.0
C124 C 0.54133 0.77274 0.49482 0.0
C125 C 0.45165 0.83811 0.49618 0.0
C126 C 0.40492 0.70637 0.47328 0.0
C127 C 0.48093 0.70524 0.48006 0.0
O128 O 0.51521 0.87644 0.54712 0.0
O129 O 0.70106 0.09453 0.53028 0.0
O130 O 0.84428 0.12272 0.50559 0.0
O131 O 0.76247 0.9697 0.50991 0.0
O132 O 0.74748 0.0286 0.55094 0.0
O133 O 0.63951 0.90777 0.56248 0.0
O134 O 0.7346 0.17898 0.45801 0.0
O135 O 0.64297 0.01488 0.49293 0.0
O136 O 0.54305 0.00259 0.52763 0.0
O137 O 0.60763 0.13283 0.5058 0.0
O138 O 0.74072 0.06714 0.46754 0.0
O139 O 0.71492 0.26061 0.48259 0.0
C140 C 0.75459 0.10397 0.54632 0.0
C141 C 0.51556 0.77617 0.57476 0.0
C142 C 0.48439 0.68028 0.60862 0.0
C143 C 0.52155 0.76521 0.59882 0.0
C144 C 0.4415 0.60651 0.5939 0.0
C145 C 0.47303 0.70165 0.5604 0.0
C146 C 0.43615 0.61734 0.56998 0.0
C147 C 0.83751 0.04427 0.50709 0.0
C148 C 0.55464 0.86563 0.56497 0.0
C149 C 0.49671 0.63728 0.47324 0.0
C150 C 0.56927 0.63387 0.48216 0.0
C151 C 0.67048 -0.00235 0.47439 0.0
C152 C 0.78872 0.32662 0.4471 0.0
C153 C 0.79345 0.31905 0.42281 0.0
C154 C 0.85442 0.39108 0.40937 0.0
C155 C 0.91009 0.47133 0.42064 0.0
C156 C 0.84552 0.40728 0.45795 0.0
C157 C 0.90548 0.47915 0.44472 0.0
C158 C 0.54273 0.07129 0.51821 0.0
C159 C 0.72713 0.24862 0.46082 0.0
H160 H 0.55425 0.82282 0.6099 0.0
H161 H 0.41326 0.54033 0.60084 0.0
H162 H 0.46815 0.70853 0.54181 0.0
H163 H 0.40349 0.56012 0.55881 0.0
H164 H 0.7497 0.25684 0.41441 0.0
H165 H 0.95865 0.52764 0.41091 0.0
H166 H 0.84433 0.41475 0.47664 0.0
H167 H 0.94931 0.54097 0.45321 0.0
Eu168 Eu 0.65173 0.58381 0.85289 0.0
C169 C 0.72093 0.26347 0.84307 0.0
C170 C 0.83412 0.29157 0.87139 0.0
C171 C 0.73093 0.14105 0.85986 0.0
C172 C 0.79158 0.32233 0.85636 0.0
C173 C 0.69078 0.17226 0.84433 0.0
C174 C 0.80235 0.20059 0.8734 0.0
C175 C 0.58767 0.15006 0.81362 0.0
N176 N 0.68396 0.29574 0.82814 0.0
C177 C 0.61992 0.241 0.81298 0.0
C178 C 0.62264 0.11538 0.82953 0.0
Eu179 Eu 0.74272 0.45036 0.82767 0.0
N180 N 0.82167 0.40989 0.85367 0.0
C181 C 0.8978 0.47028 0.86426 0.0
C182 C 0.90897 0.35327 0.8834 0.0
C183 C 0.94155 0.44303 0.87958 0.0
H184 H 0.59252 0.26723 0.80062 0.0
H185 H 0.00049 0.49133 0.88841 0.0
H186 H 0.83388 0.17576 0.88496 0.0
H187 H 0.53589 0.10681 0.80186 0.0
H188 H 0.92413 0.53989 0.86147 0.0
H189 H 0.34917 0.45162 0.79966 0.0
H190 H 0.94334 0.33235 0.89517 0.0
H191 H 0.78972 0.79783 0.86607 0.0
H192 H 0.44661 0.44369 0.82797 0.0
H193 H 0.82819 0.94513 0.85152 0.0
H194 H 0.70842 0.07119 0.86117 0.0
H195 H 0.38696 0.59276 0.78083 0.0
H196 H 0.48855 0.75424 0.77739 0.0
H197 H 0.59778 0.04494 0.82994 0.0
H198 H 0.61927 0.88809 0.79109 0.0
N199 N 0.54481 0.58064 0.82611 0.0
C200 C 0.46667 0.50699 0.82054 0.0
C201 C 0.43123 0.59038 0.79359 0.0
C202 C 0.50849 0.6664 0.79996 0.0
C203 C 0.40969 0.51072 0.80419 0.0
C204 C 0.56441 0.65991 0.81665 0.0
H205 H 0.74503 0.95988 0.8188 0.0
N206 N 0.69019 0.72881 0.84074 0.0
C207 C 0.7758 0.88688 0.84336 0.0
C208 C 0.63923 0.73565 0.82403 0.0
C209 C 0.75428 0.80319 0.85142 0.0
C210 C 0.72872 0.89486 0.82492 0.0
C211 C 0.65832 0.81906 0.81536 0.0
O212 O 0.58072 0.52746 0.88568 0.0
O213 O 0.71197 0.50058 0.85998 0.0
O214 O 0.61956 0.35596 0.84684 0.0
O215 O 0.54802 0.43828 0.85074 0.0
O216 O 0.75763 0.61341 0.87983 0.0
O217 O 0.6068 0.65557 0.87484 0.0
O218 O 0.75516 0.4264 0.79089 0.0
O219 O 0.68893 0.54063 0.82041 0.0
O220 O 0.79336 0.67783 0.8434 0.0
O221 O 0.85435 0.58936 0.83379 0.0
O222 O 0.6395 0.42694 0.8007 0.0
O223 O 0.87183 0.49503 0.81229 0.0
C224 C 0.76152 0.54218 0.87682 0.0
C225 C 0.61729 0.63539 0.91501 0.0
C226 C 0.59962 0.6399 0.95717 0.0
C227 C 0.56439 0.60451 0.93507 0.0
C228 C 0.68855 0.70558 0.95884 0.0
C229 C 0.70541 0.70231 0.91724 0.0
C230 C 0.74083 0.73635 0.939 0.0
C231 C 0.54929 0.36296 0.85133 0.0
C232 C 0.58087 0.59905 0.8918 0.0
C233 C 0.60485 0.82476 0.79811 0.0
C234 C 0.53028 0.7486 0.79038 0.0
C235 C 0.63811 0.49909 0.80381 0.0
C236 C 0.87445 0.40612 0.78146 0.0
C237 C 0.87656 0.40098 0.7571 0.0
C238 C 0.90728 0.3492 0.7463 0.0
C239 C 0.93658 0.30303 0.76036 0.0
C240 C 0.90338 0.35909 0.79518 0.0
C241 C 0.93453 0.30807 0.78461 0.0
C242 C 0.86022 0.66636 0.83797 0.0
C243 C 0.83994 0.45929 0.79208 0.0
H244 H 0.4962 0.55342 0.93346 0.0
H245 H 0.71727 0.73524 0.97544 0.0
H246 H 0.74714 0.72919 0.90216 0.0
H247 H 0.80882 0.7878 0.94046 0.0
H248 H 0.85444 0.43769 0.74658 0.0
H249 H 0.95939 0.26155 0.75264 0.0
H250 H 0.90178 0.36158 0.81399 0.0
H251 H 0.95653 0.27171 0.79526 0.0
C252 C 0.20985 0.75409 0.1849 0.0
C253 C 0.1354 0.67268 0.19001 0.0
C254 C 0.20375 0.83058 0.184 0.0
C255 C 0.12302 0.82688 0.18829 0.0
C256 C 0.05048 0.74682 0.19514 0.0
C257 C 0.05647 0.67034 0.19593 0.0
C258 C 0.11213 0.90497 0.18561 0.0
C259 C 0.15759 0.96834 0.1698 0.0
C260 C 0.14821 0.04734 0.16728 0.0
C261 C 0.2216 0.12655 0.1603 0.0
C262 C 0.21761 0.20408 0.1596 0.0
C263 C 0.13969 0.20347 0.1656 0.0
H264 H 0.00982 0.98487 0.17651 0.0
C265 C 0.06439 0.12323 0.17106 0.0
C266 C 0.0686 0.04563 0.17194 0.0
H267 H 0.00335 0.12088 0.1756 0.0
H268 H 0.27207 0.75863 0.18079 0.0
H269 H 0.26208 0.89218 0.17971 0.0
H270 H 0.98809 0.74271 0.19901 0.0
H271 H -0.00164 0.6089 0.20053 0.0
H272 H 0.06329 0.90848 0.19647 0.0
H273 H 0.20625 0.96453 0.15892 0.0
H274 H 0.2832 0.12917 0.15624 0.0
H275 H 0.27629 0.26495 0.15493 0.0
C276 C 0.43578 0.11133 0.50265 0.0
C277 C 0.46315 0.07741 0.52089 0.0
C278 C 0.35573 0.10939 0.50409 0.0
C279 C 0.30301 0.07505 0.52398 0.0
C280 C 0.33222 0.04517 0.54271 0.0
C281 C 0.41139 0.04494 0.54103 0.0
C282 C 0.21719 0.07 0.52519 0.0
C283 C 0.16053 0.03756 0.50737 0.0
C284 C 0.07732 0.03842 0.50758 0.0
C285 C 0.00102 0.96653 0.4986 0.0
C286 C 0.92191 0.96744 0.49861 0.0
C287 C 0.91935 0.04139 0.50703 0.0
H288 H 0.13316 0.16946 0.52244 0.0
C289 C -0.00376 0.11392 0.51557 0.0
C290 C 0.07454 0.11232 0.51595 0.0
H291 H -0.0042 0.17169 0.52221 0.0
H292 H 0.47469 0.13644 0.48694 0.0
H293 H 0.33477 0.13433 0.48963 0.0
H294 H 0.29245 0.01935 0.55826 0.0
H295 H 0.43191 0.01904 0.55535 0.0
H296 H 0.1993 0.09057 0.54116 0.0
H297 H 0.17496 0.00853 0.49246 0.0
H298 H 0.0025 0.90945 0.49185 0.0
H299 H 0.86335 0.9112 0.49175 0.0
C300 C 0.96575 0.79968 0.85948 0.0
C301 C 0.94833 0.74265 0.84059 0.0
C302 C 0.04936 0.87143 0.86274 0.0
C303 C 0.11714 0.88826 0.84693 0.0
C304 C 0.10043 0.82913 0.82851 0.0
C305 C 0.01653 0.75643 0.8254 0.0
C306 C 0.20553 0.9668 0.8492 0.0
C307 C 0.219 0.04119 0.85978 0.0
C308 C 0.30529 0.12279 0.86002 0.0
C309 C 0.30766 0.20403 0.86079 0.0
C310 C 0.38737 0.28253 0.85892 0.0
C311 C 0.46626 0.28108 0.85628 0.0
H312 H 0.3854 0.05989 0.85968 0.0
C313 C 0.46432 0.19984 0.8574 0.0
C314 C 0.38459 0.12134 0.85915 0.0
H315 H 0.52413 0.19645 0.85656 0.0
H316 H 0.91533 0.78743 0.87217 0.0
H317 H 0.06053 0.91256 0.87785 0.0
H318 H 0.15198 0.83991 0.81631 0.0
H319 H 0.00463 0.71185 0.81101 0.0
H320 H 0.25949 0.96549 0.84029 0.0
H321 H 0.16364 0.04569 0.86659 0.0
H322 H 0.24743 0.20678 0.86202 0.0
H323 H 0.38651 0.34394 0.85902 0.0
C324 C 0.57764 0.60328 0.9998 0.0
C325 C 0.54398 0.61291 0.97846 0.0
C326 C 0.5305 0.58976 0.02046 0.0
C327 C 0.44781 0.58462 0.02025 0.0
C328 C 0.41289 0.59102 0.99878 0.0
C329 C 0.46021 0.60476 0.97811 0.0
C330 C 0.39816 0.57791 0.04194 0.0
C331 C 0.41489 0.5551 0.06298 0.0
C332 C 0.36348 0.54932 0.08414 0.0
C333 C 0.35119 0.48758 0.10146 0.0
C334 C 0.29825 0.47642 0.1208 0.0
C335 C 0.25872 0.52871 0.12353 0.0
H336 H 0.33678 0.65408 0.0747 0.0
C337 C 0.27399 0.59304 0.10674 0.0
C338 C 0.32621 0.60366 0.08728 0.0
H339 H 0.24411 0.63407 0.10846 0.0
H340 H 0.64169 0.60837 1.00062 0.0
H341 H 0.56099 0.58662 0.0365 0.0
H342 H 0.34951 0.58751 0.99803 0.0
H343 H 0.43277 0.61285 0.96203 0.0
H344 H 0.34369 0.59052 0.04029 0.0
H345 H 0.46361 0.53453 0.0647 0.0
H346 H 0.37997 0.44561 0.09962 0.0
H347 H 0.28642 0.42521 0.13324 0.0
C348 C 0.86019 0.30686 0.37452 0.0
C349 C 0.86222 0.38221 0.38381 0.0
C350 C 0.87366 0.30119 0.35069 0.0
C351 C 0.88903 0.37082 0.3355 0.0
C352 C 0.88889 0.44507 0.3448 0.0
C353 C 0.87561 0.45074 0.36859 0.0
C354 C 0.91167 0.3724 0.31036 0.0
C355 C 0.90532 0.30298 0.29841 0.0
C356 C 0.94133 0.31125 0.27447 0.0
C357 C 0.97446 0.25597 0.26796 0.0
C358 C 0.01867 0.26867 0.24682 0.0
C359 C 0.02922 0.33587 0.23154 0.0
H360 H 0.91982 0.41701 0.26253 0.0
C361 C -0.00877 0.38764 0.23731 0.0
C362 C 0.94727 0.3752 0.25852 0.0
H363 H -0.00137 0.44025 0.22594 0.0
H364 H 0.85129 0.25339 0.3858 0.0
H365 H 0.87471 0.24328 0.34464 0.0
H366 H 0.90053 0.49984 0.33366 0.0
H367 H 0.87644 0.50925 0.3751 0.0
H368 H 0.93911 0.43577 0.30165 0.0
H369 H 0.87987 0.23948 0.30684 0.0
H370 H 0.97001 0.20559 0.27977 0.0
H371 H 0.04762 0.22809 0.24279 0.0
C372 C 0.54972 0.48624 0.76878 0.0
C373 C 0.61805 0.53994 0.784 0.0
C374 C 0.53586 0.52078 0.74834 0.0
C375 C 0.59063 0.61026 0.74254 0.0
C376 C 0.65885 0.66403 0.75793 0.0
C377 C 0.67276 0.62919 0.77841 0.0
C378 C 0.58397 0.64716 0.71967 0.0
C379 C 0.51118 0.60955 0.70622 0.0
C380 C 0.50585 0.63574 0.68176 0.0
C381 C 0.42563 0.58758 0.66988 0.0
C382 C 0.41826 0.60327 0.64636 0.0
C383 C 0.49096 0.66802 0.63403 0.0
H384 H 0.64157 0.74143 0.67767 0.0
C385 C 0.57058 0.71846 0.64598 0.0
C386 C 0.57822 0.70244 0.66953 0.0
H387 H 0.62799 0.76847 0.63692 0.0
H388 H 0.50799 0.4167 0.77248 0.0
H389 H 0.48457 0.47577 0.73676 0.0
H390 H 0.70282 0.73281 0.75384 0.0
H391 H 0.72751 0.67145 0.78957 0.0
H392 H 0.64227 0.70602 0.71377 0.0
H393 H 0.45185 0.55414 0.71316 0.0
H394 H 0.36853 0.53599 0.6787 0.0
H395 H 0.35558 0.56412 0.63776 0.0
C396 C 0.84541 0.55502 0.91287 0.0
C397 C 0.78113 0.50126 0.89669 0.0
C398 C 0.85628 0.51954 0.93358 0.0
C399 C 0.80158 0.42944 0.93876 0.0
C400 C 0.74023 0.3751 0.92197 0.0
C401 C 0.72952 0.41067 0.90124 0.0
C402 C 0.80359 0.39017 0.96167 0.0
C403 C 0.83636 0.43785 0.98131 0.0
C404 C 0.83023 0.39877 1.00476 0.0
C405 C 0.89005 0.45131 0.02203 0.0
C406 C 0.88315 0.41984 0.04474 0.0
C407 C 0.81542 0.3352 0.05085 0.0
H408 H 0.7139 0.27176 0.9982 0.0
C409 C 0.7556 0.28226 0.03358 0.0
C410 C 0.76286 0.31356 0.01078 0.0
H411 H 0.70286 0.21664 0.03772 0.0
H412 H 0.88614 0.62509 0.90969 0.0
H413 H 0.90687 0.5635 0.94548 0.0
H414 H 0.69781 0.30539 0.92529 0.0
H415 H 0.67863 0.36774 0.88925 0.0
H416 H 0.77254 0.31887 0.96253 0.0
H417 H 0.86786 0.50911 0.98062 0.0
H418 H 0.94195 0.51752 0.01799 0.0
H419 H 0.92957 0.46285 0.05769 0.0
C420 C 0.33179 0.5914 0.34033 0.0
C421 C 0.3758 0.61082 0.31882 0.0
C422 C 0.37273 0.6427 0.35997 0.0
C423 C 0.4588 0.71466 0.35849 0.0
C424 C 0.50183 0.73527 0.33685 0.0
C425 C 0.46057 0.68435 0.31717 0.0
C426 C 0.50752 0.76594 0.37935 0.0
C427 C 0.46808 0.77457 0.39849 0.0
C428 C 0.51867 0.82753 0.41886 0.0
C429 C 0.48866 0.87704 0.43099 0.0
C430 C 0.53693 0.93053 0.44962 0.0
C431 C 0.61422 0.93274 0.45698 0.0
H432 H 0.62012 0.79092 0.41754 0.0
C433 C 0.64397 0.88258 0.44511 0.0
C434 C 0.59623 0.82974 0.42628 0.0
H435 H 0.70457 0.88505 0.45027 0.0
H436 H 0.26633 0.53509 0.3421 0.0
H437 H 0.33798 0.62347 0.3764 0.0
H438 H 0.56827 0.79008 0.33525 0.0
H439 H 0.49652 0.70018 0.3009 0.0
H440 H 0.57888 0.80078 0.3785 0.0
H441 H 0.39739 0.74769 0.39868 0.0
H442 H 0.42913 0.87635 0.42561 0.0
H443 H 0.51464 0.97128 0.45808 0.0
C444 C 0.83409 0.33166 0.70753 0.0
C445 C 0.90628 0.34122 0.72049 0.0
C446 C 0.83066 0.31942 0.68342 0.0
C447 C 0.89985 0.317 0.67162 0.0
C448 C 0.97252 0.32788 0.68456 0.0
C449 C 0.9759 0.34009 0.70868 0.0
C450 C 0.89525 0.29529 0.64638 0.0
C451 C 0.83991 0.30128 0.63116 0.0
C452 C 0.82412 0.26287 0.60738 0.0
C453 C 0.73944 0.22723 0.5979 0.0
C454 C 0.71806 0.17962 0.57712 0.0
C455 C 0.78184 0.16933 0.56504 0.0
H456 H 0.95564 0.28437 0.60115 0.0
C457 C 0.86767 0.20844 0.5738 0.0
C458 C 0.88904 0.25565 0.59471 0.0
H459 H 0.91734 0.19993 0.56485 0.0
H460 H 0.77857 0.3305 0.71612 0.0
H461 H 0.77196 0.30844 0.67443 0.0
H462 H 0.02652 0.32576 0.67603 0.0
H463 H 0.03295 0.34824 0.7181 0.0
H464 H 0.93628 0.26875 0.64053 0.0
H465 H 0.79831 0.32732 0.63681 0.0
H466 H 0.68831 0.23204 0.60723 0.0
H467 H 0.65081 0.1479 0.57093 0.0
loop_
_geom_bond_atom_site_label_1
_geom_bond_atom_site_label_2
_geom_bond_distance
_geom_bond_site_symmetry_2
_ccdc_geom_bond_type
Eu0 N31 2.657 . S
Eu0 N38 2.609 . S
Eu0 O44 2.558 . S
Eu0 O45 2.612 1_455 S
Eu0 O47 2.339 . S
Eu0 O48 2.564 . S
Eu0 O49 2.419 . S
Eu0 O51 2.380 . S
Eu0 O52 2.432 . S
Eu0 C64 2.848 . S
C1 C4 1.429 . S
C1 C5 1.411 . S
C1 N8 1.377 . S
C2 C4 1.420 . S
C2 C6 1.423 . S
C2 C14 1.392 . S
C3 C5 1.420 . S
C3 C6 1.351 . S
C3 H26 0.931 . S
C4 C1 1.429 . S
C4 C2 1.420 . S
C4 N12 1.362 . S
C5 C1 1.411 . S
C5 C3 1.420 . S
C5 C10 1.395 . S
C6 C2 1.423 . S
C6 C3 1.351 . S
C6 H18 0.930 . S
C7 C9 1.400 . S
C7 C10 1.386 . S
C7 H19 0.930 . S
N8 C1 1.377 . S
N8 C9 1.321 . S
N8 Eu11 2.609 . S
C9 C7 1.400 . S
C9 N8 1.321 . S
C9 H16 0.930 . S
C10 C5 1.395 . S
C10 C7 1.386 . S
C10 H29 0.930 . S
Eu11 N8 2.609 . S
Eu11 N12 2.657 . S
Eu11 O45 2.380 . S
Eu11 O46 2.432 . S
Eu11 O50 2.558 . S
Eu11 O51 2.612 1_655 S
Eu11 O53 2.339 . S
Eu11 O54 2.564 1_655 S
Eu11 O55 2.419 . S
Eu11 C75 2.848 . S
N12 C4 1.362 . S
N12 Eu11 2.657 . S
N12 C13 1.334 . S
C13 N12 1.334 . S
C13 C15 1.413 . S
C13 H20 0.929 . S
C14 C2 1.392 . S
C14 C15 1.367 . S
C14 H22 0.930 . S
C15 C13 1.413 . S
C15 C14 1.367 . S
C15 H17 0.930 . S
H16 C9 0.930 . S
H17 C15 0.930 . S
H18 C6 0.930 . S
H19 C7 0.930 . S
H20 C13 0.929 . S
H21 C35 0.930 . S
H22 C14 0.930 . S
H23 C41 0.930 . S
H24 C32 0.929 . S
H25 C39 0.930 . S
H26 C3 0.931 . S
H27 C33 0.930 . S
H28 C66 0.930 . S
H29 C10 0.930 . S
H30 C65 0.931 . S
N31 Eu0 2.657 . S
N31 C32 1.334 . S
N31 C36 1.362 . S
C32 H24 0.929 . S
C32 N31 1.334 . S
C32 C35 1.413 . S
C33 H27 0.930 . S
C33 C34 1.392 . S
C33 C35 1.367 . S
C34 C33 1.392 . S
C34 C36 1.420 . S
C34 C66 1.423 . S
C35 H21 0.930 . S
C35 C32 1.413 . S
C35 C33 1.367 . S
C36 N31 1.362 . S
C36 C34 1.420 . S
C36 C40 1.429 . S
H37 C42 0.930 . S
N38 Eu0 2.609 . S
N38 C40 1.377 . S
N38 C41 1.321 . S
C39 H25 0.930 . S
C39 C41 1.400 . S
C39 C42 1.386 . S
C40 C36 1.429 . S
C40 N38 1.377 . S
C40 C43 1.411 . S
C41 H23 0.930 . S
C41 N38 1.321 . S
C41 C39 1.400 . S
C42 H37 0.930 . S
C42 C39 1.386 . S
C42 C43 1.395 . S
C43 C40 1.411 . S
C43 C42 1.395 . S
C43 C65 1.420 . S
O44 Eu0 2.558 . S
O44 C64 1.257 . S
O45 Eu0 2.612 1_655 S
O45 Eu11 2.380 . S
O45 C56 1.276 . S
O46 Eu11 2.432 . S
O46 C63 1.264 1_655 S
O47 Eu0 2.339 . S
O47 C63 1.254 . S
O48 Eu0 2.564 . S
O48 C56 1.234 1_455 S
O49 Eu0 2.419 . S
O49 C64 1.249 . S
O50 Eu11 2.558 . S
O50 C75 1.257 . S
O51 Eu0 2.380 . S
O51 Eu11 2.612 1_455 S
O51 C67 1.276 . S
O52 Eu0 2.432 . S
O52 C74 1.264 1_455 S
O53 Eu11 2.339 . S
O53 C74 1.254 . S
O54 Eu11 2.564 1_455 S
O54 C67 1.234 . S
O55 Eu11 2.419 . S
O55 C75 1.249 . S
C56 O45 1.276 . S
C56 O48 1.234 1_655 S
C57 C59 1.393 . S
C57 C61 1.395 . S
C57 C64 1.492 . S
C58 C59 1.392 . S
C58 C60 1.386 . S
C59 C57 1.393 . S
C59 C58 1.392 . S
C59 H76 0.930 . S
C60 C58 1.386 . S
C60 C62 1.395 . S
C60 H77 0.930 . S
C61 C57 1.395 . S
C61 C62 1.379 . S
C61 H78 0.930 . S
C62 C60 1.395 . S
C62 C61 1.379 . S
C62 H79 0.930 . S
C63 O46 1.264 1_455 S
C63 O47 1.254 . S
C64 Eu0 2.848 . S
C64 O44 1.257 . S
C64 O49 1.249 . S
C64 C57 1.492 . S
C65 H30 0.931 . S
C65 C43 1.420 . S
C65 C66 1.351 . S
C66 H28 0.930 . S
C66 C34 1.423 . S
C66 C65 1.351 . S
C67 O51 1.276 . S
C67 O54 1.234 . S
C68 C69 1.393 . S
C68 C72 1.395 . S
C68 C75 1.492 . S
C69 C68 1.393 . S
C69 C70 1.392 . S
C69 H80 0.930 . S
C70 C69 1.392 . S
C70 C71 1.386 . S
C71 C70 1.386 . S
C71 C73 1.395 . S
C71 H81 0.930 . S
C72 C68 1.395 . S
C72 C73 1.379 . S
C72 H82 0.930 . S
C73 C71 1.395 . S
C73 C72 1.379 . S
C73 H83 0.930 . S
C74 O52 1.264 1_655 S
C74 O53 1.254 . S
C75 Eu11 2.848 . S
C75 O50 1.257 . S
C75 O55 1.249 . S
C75 C68 1.492 . S
H76 C59 0.930 . S
H77 C60 0.930 . S
H78 C61 0.930 . S
H79 C62 0.930 . S
H80 C69 0.930 . S
H81 C71 0.930 . S
H82 C72 0.930 . S
H83 C73 0.930 . S
Eu84 N115 2.657 1_545 S
Eu84 N122 2.609 1_545 S
Eu84 O128 2.561 . S
Eu84 O129 2.612 . S
Eu84 O131 2.339 . S
Eu84 O132 2.563 . S
Eu84 O133 2.419 1_545 S
Eu84 O135 2.380 . S
Eu84 O136 2.432 . S
Eu84 C148 2.848 1_545 S
C85 C88 1.429 1_455 S
C85 C89 1.411 . S
C85 N92 1.377 . S
C86 C88 1.420 . S
C86 C90 1.423 1_655 S
C86 C98 1.392 . S
C87 C89 1.420 . S
C87 C90 1.351 . S
C87 H110 0.931 . S
C88 C85 1.429 1_655 S
C88 C86 1.420 . S
C88 N96 1.362 . S
C89 C85 1.411 . S
C89 C87 1.420 . S
C89 C94 1.395 . S
C90 C86 1.423 1_455 S
C90 C87 1.351 . S
C90 H102 0.930 . S
C91 C93 1.400 . S
C91 C94 1.386 . S
C91 H103 0.930 . S
N92 C85 1.377 . S
N92 C93 1.321 . S
N92 Eu95 2.609 1_455 S
C93 C91 1.400 . S
C93 N92 1.321 . S
C93 H100 0.930 . S
C94 C89 1.395 . S
C94 C91 1.386 . S
C94 H113 0.930 . S
Eu95 N92 2.609 1_655 S
Eu95 N96 2.657 . S
Eu95 O129 2.380 . S
Eu95 O130 2.432 . S
Eu95 O134 2.558 . S
Eu95 O135 2.612 . S
Eu95 O137 2.339 . S
Eu95 O138 2.563 . S
Eu95 O139 2.419 . S
Eu95 C159 2.848 . S
N96 C88 1.362 . S
N96 Eu95 2.657 . S
N96 C97 1.334 . S
C97 N96 1.334 . S
C97 C99 1.413 . S
C97 H104 0.929 . S
C98 C86 1.392 . S
C98 C99 1.367 . S
C98 H106 0.930 . S
C99 C97 1.413 . S
C99 C98 1.367 . S
C99 H101 0.930 . S
H100 C93 0.930 . S
H101 C99 0.930 . S
H102 C90 0.930 . S
H103 C91 0.930 . S
H104 C97 0.929 . S
H105 C119 0.930 . S
H106 C98 0.930 . S
H107 C125 0.930 . S
H108 C116 0.929 . S
H109 C123 0.930 . S
H110 C87 0.931 . S
H111 C117 0.930 . S
H112 C150 0.930 . S
H113 C94 0.930 . S
H114 C149 0.931 . S
N115 Eu84 2.657 1_565 S
N115 C116 1.334 . S
N115 C120 1.362 . S
C116 H108 0.929 . S
C116 N115 1.334 . S
C116 C119 1.413 . S
C117 H111 0.930 . S
C117 C118 1.392 . S
C117 C119 1.367 . S
C118 C117 1.392 . S
C118 C120 1.420 . S
C118 C150 1.423 . S
C119 H105 0.930 . S
C119 C116 1.413 . S
C119 C117 1.367 . S
C120 N115 1.362 . S
C120 C118 1.420 . S
C120 C124 1.429 . S
H121 C126 0.930 . S
N122 Eu84 2.609 1_565 S
N122 C124 1.377 . S
N122 C125 1.321 . S
C123 H109 0.930 . S
C123 C125 1.400 . S
C123 C126 1.386 . S
C124 C120 1.429 . S
C124 N122 1.377 . S
C124 C127 1.411 . S
C125 H107 0.930 . S
C125 N122 1.321 . S
C125 C123 1.400 . S
C126 H121 0.930 . S
C126 C123 1.386 . S
C126 C127 1.395 . S
C127 C124 1.411 . S
C127 C126 1.395 . S
C127 C149 1.420 . S
O128 Eu84 2.561 . S
O128 C148 1.246 1_545 S
O129 Eu84 2.612 . S
O129 Eu95 2.380 . S
O129 C140 1.276 . S
O130 Eu95 2.432 . S
O130 C147 1.264 . S
O131 Eu84 2.339 . S
O131 C147 1.254 . S
O132 Eu84 2.563 . S
O132 C140 1.235 . S
O133 Eu84 2.419 1_565 S
O133 C148 1.249 . S
O134 Eu95 2.558 . S
O134 C159 1.257 . S
O135 Eu84 2.380 . S
O135 Eu95 2.612 . S
O135 C151 1.276 . S
O136 Eu84 2.432 . S
O136 C158 1.264 . S
O137 Eu95 2.339 . S
O137 C158 1.254 . S
O138 Eu95 2.563 . S
O138 C151 1.235 . S
O139 Eu95 2.419 . S
O139 C159 1.249 . S
C140 O129 1.276 . S
C140 O132 1.235 . S
C141 C143 1.393 . S
C141 C145 1.395 . S
C141 C148 1.492 . S
C142 C143 1.392 . S
C142 C144 1.386 . S
C143 C141 1.393 . S
C143 C142 1.392 . S
C143 H160 0.930 . S
C144 C142 1.386 . S
C144 C146 1.395 . S
C144 H161 0.930 . S
C145 C141 1.395 . S
C145 C146 1.379 . S
C145 H162 0.930 . S
C146 C144 1.395 . S
C146 C145 1.379 . S
C146 H163 0.930 . S
C147 O130 1.264 . S
C147 O131 1.254 . S
C148 Eu84 2.848 1_565 S
C148 O128 1.246 1_565 S
C148 O133 1.249 . S
C148 C141 1.492 . S
C149 H114 0.931 . S
C149 C127 1.420 . S
C149 C150 1.351 . S
C150 H112 0.930 . S
C150 C118 1.423 . S
C150 C149 1.351 . S
C151 O135 1.276 . S
C151 O138 1.235 . S
C152 C153 1.393 . S
C152 C156 1.395 . S
C152 C159 1.492 . S
C153 C152 1.393 . S
C153 C154 1.392 . S
C153 H164 0.930 . S
C154 C153 1.392 . S
C154 C155 1.386 . S
C155 C154 1.386 . S
C155 C157 1.395 . S
C155 H165 0.930 . S
C156 C152 1.395 . S
C156 C157 1.379 . S
C156 H166 0.930 1_655 S
C157 C155 1.395 . S
C157 C156 1.379 . S
C157 H167 0.930 1_655 S
C158 O136 1.264 . S
C158 O137 1.254 . S
C159 Eu95 2.848 . S
C159 O134 1.257 . S
C159 O139 1.249 . S
C159 C152 1.492 . S
H160 C143 0.930 . S
H161 C144 0.930 . S
H162 C145 0.930 . S
H163 C146 0.930 . S
H164 C153 0.930 . S
H165 C155 0.930 . S
H166 C156 0.930 1_455 S
H167 C157 0.930 1_455 S
Eu168 N199 2.657 . S
Eu168 N206 2.609 . S
Eu168 O212 2.558 . S
Eu168 O213 2.612 . S
Eu168 O215 2.339 . S
Eu168 O216 2.563 . S
Eu168 O217 2.419 . S
Eu168 O219 2.380 . S
Eu168 O220 2.432 . S
Eu168 C232 2.848 . S
C169 C172 1.429 . S
C169 C173 1.411 . S
C169 N176 1.377 . S
C170 C172 1.420 . S
C170 C174 1.423 . S
C170 C182 1.392 1_655 S
C171 C173 1.420 . S
C171 C174 1.351 . S
C171 H194 0.931 . S
C172 C169 1.429 . S
C172 C170 1.420 . S
C172 N180 1.362 . S
C173 C169 1.411 . S
C173 C171 1.420 . S
C173 C178 1.395 . S
C174 C170 1.423 . S
C174 C171 1.351 . S
C174 H186 0.930 1_655 S
C175 C177 1.400 . S
C175 C178 1.386 . S
C175 H187 0.930 1_545 S
N176 C169 1.377 . S
N176 C177 1.321 . S
N176 Eu179 2.609 . S
C177 C175 1.400 . S
C177 N176 1.321 . S
C177 H184 0.930 . S
C178 C173 1.395 . S
C178 C175 1.386 . S
C178 H197 0.930 1_545 S
Eu179 N176 2.609 . S
Eu179 N180 2.657 . S
Eu179 O213 2.380 . S
Eu179 O214 2.432 . S
Eu179 O218 2.558 . S
Eu179 O219 2.612 . S
Eu179 O221 2.339 . S
Eu179 O222 2.563 . S
Eu179 O223 2.419 . S
Eu179 C243 2.848 . S
N180 C172 1.362 . S
N180 Eu179 2.657 . S
N180 C181 1.334 1_655 S
C181 N180 1.334 1_455 S
C181 C183 1.413 . S
C181 H188 0.929 . S
C182 C170 1.392 1_455 S
C182 C183 1.367 . S
C182 H190 0.930 . S
C183 C181 1.413 . S
C183 C182 1.367 . S
C183 H185 0.930 . S
H184 C177 0.930 . S
H185 C183 0.930 . S
H186 C174 0.930 1_455 S
H187 C175 0.930 1_565 S
H188 C181 0.929 . S
H189 C203 0.930 . S
H190 C182 0.930 . S
H191 C209 0.930 . S
H192 C200 0.929 . S
H193 C207 0.930 . S
H194 C171 0.931 . S
H195 C201 0.930 . S
H196 C234 0.930 . S
H197 C178 0.930 1_565 S
H198 C233 0.931 . S
N199 Eu168 2.657 . S
N199 C200 1.334 . S
N199 C204 1.362 . S
C200 H192 0.929 . S
C200 N199 1.334 . S
C200 C203 1.413 . S
C201 H195 0.930 . S
C201 C202 1.392 . S
C201 C203 1.367 . S
C202 C201 1.392 . S
C202 C204 1.420 . S
C202 C234 1.423 . S
C203 H189 0.930 . S
C203 C200 1.413 . S
C203 C201 1.367 . S
C204 N199 1.362 . S
C204 C202 1.420 . S
C204 C208 1.429 . S
H205 C210 0.930 . S
N206 Eu168 2.609 . S
N206 C208 1.377 . S
N206 C209 1.321 . S
C207 H193 0.930 . S
C207 C209 1.400 . S
C207 C210 1.386 . S
C208 C204 1.429 . S
C208 N206 1.377 . S
C208 C211 1.411 . S
C209 H191 0.930 . S
C209 N206 1.321 . S
C209 C207 1.400 . S
C210 H205 0.930 . S
C210 C207 1.386 . S
C210 C211 1.395 . S
C211 C208 1.411 . S
C211 C210 1.395 . S
C211 C233 1.420 . S
O212 Eu168 2.558 . S
O212 C232 1.257 . S
O213 Eu168 2.612 . S
O213 Eu179 2.380 . S
O213 C224 1.276 . S
O214 Eu179 2.432 . S
O214 C231 1.264 . S
O215 Eu168 2.339 . S
O215 C231 1.254 . S
O216 Eu168 2.563 . S
O216 C224 1.235 . S
O217 Eu168 2.419 . S
O217 C232 1.249 . S
O218 Eu179 2.558 . S
O218 C243 1.257 . S
O219 Eu168 2.380 . S
O219 Eu179 2.612 . S
O219 C235 1.276 . S
O220 Eu168 2.432 . S
O220 C242 1.264 . S
O221 Eu179 2.339 . S
O221 C242 1.254 . S
O222 Eu179 2.563 . S
O222 C235 1.235 . S
O223 Eu179 2.419 . S
O223 C243 1.249 . S
C224 O213 1.276 . S
C224 O216 1.235 . S
C225 C227 1.393 . S
C225 C229 1.395 . S
C225 C232 1.492 . S
C226 C227 1.392 . S
C226 C228 1.386 . S
C227 C225 1.393 . S
C227 C226 1.392 . S
C227 H244 0.930 . S
C228 C226 1.386 . S
C228 C230 1.395 . S
C228 H245 0.930 . S
C229 C225 1.395 . S
C229 C230 1.379 . S
C229 H246 0.930 . S
C230 C228 1.395 . S
C230 C229 1.379 . S
C230 H247 0.930 . S
C231 O214 1.264 . S
C231 O215 1.254 . S
C232 Eu168 2.848 . S
C232 O212 1.257 . S
C232 O217 1.249 . S
C232 C225 1.492 . S
C233 H198 0.931 . S
C233 C211 1.420 . S
C233 C234 1.351 . S
C234 H196 0.930 . S
C234 C202 1.423 . S
C234 C233 1.351 . S
C235 O219 1.276 . S
C235 O222 1.235 . S
C236 C237 1.393 . S
C236 C240 1.395 . S
C236 C243 1.492 . S
C237 C236 1.393 . S
C237 C238 1.392 1_655 S
C237 H248 0.930 1_655 S
C238 C237 1.392 1_455 S
C238 C239 1.386 1_455 S
C239 C238 1.386 1_655 S
C239 C241 1.395 . S
C239 H249 0.932 . S
C240 C236 1.395 . S
C240 C241 1.379 . S
C240 H250 0.930 . S
C241 C239 1.395 . S
C241 C240 1.379 . S
C241 H251 0.930 . S
C242 O220 1.264 . S
C242 O221 1.254 . S
C243 Eu179 2.848 . S
C243 O218 1.257 . S
C243 O223 1.249 . S
C243 C236 1.492 . S
H244 C227 0.930 . S
H245 C228 0.930 . S
H246 C229 0.930 . S
H247 C230 0.930 . S
H248 C237 0.930 1_455 S
H249 C239 0.932 . S
H250 C240 0.930 . S
H251 C241 0.930 . S
C252 C253 1.386 . S
C252 C254 1.383 . S
C252 H268 0.951 . S
C253 C252 1.386 . S
C253 C257 1.383 1_455 S
C254 C252 1.383 . S
C254 C255 1.402 1_455 S
C254 H269 0.951 . S
C255 C254 1.402 1_655 S
C255 C256 1.375 . S
C255 C258 1.481 . S
C256 C255 1.375 . S
C256 C257 1.367 . S
C256 H270 0.951 . S
C257 C253 1.383 1_655 S
C257 C256 1.367 . S
C257 H271 0.950 . S
C258 C255 1.481 . S
C258 C259 1.297 1_655 S
C258 H272 0.950 . S
C259 C258 1.297 1_455 S
C259 C260 1.479 1_565 S
C259 H273 0.950 . S
C260 C259 1.479 1_545 S
C260 C261 1.375 . S
C260 C266 1.404 1_455 S
C261 C260 1.375 . S
C261 C262 1.369 . S
C261 H274 0.950 . S
C262 C261 1.369 . S
C262 C263 1.392 1_455 S
C262 H275 0.951 . S
C263 C262 1.392 1_655 S
C263 C265 1.384 . S
H264 C266 0.949 1_565 S
C265 C263 1.384 . S
C265 C266 1.385 . S
C265 H267 0.950 . S
C266 C260 1.404 1_655 S
C266 H264 0.949 1_545 S
C266 C265 1.385 . S
H267 C265 0.950 . S
H268 C252 0.951 . S
H269 C254 0.951 . S
H270 C256 0.951 . S
H271 C257 0.950 . S
H272 C258 0.950 . S
H273 C259 0.950 . S
H274 C261 0.950 . S
H275 C262 0.951 . S
C276 C277 1.386 . S
C276 C278 1.383 . S
C276 H292 0.951 . S
C277 C276 1.386 . S
C277 C281 1.383 . S
C278 C276 1.383 . S
C278 C279 1.402 . S
C278 H293 0.951 . S
C279 C278 1.402 . S
C279 C280 1.375 . S
C279 C282 1.481 . S
C280 C279 1.375 . S
C280 C281 1.367 . S
C280 H294 0.951 . S
C281 C277 1.383 . S
C281 C280 1.367 . S
C281 H295 0.950 . S
C282 C279 1.481 . S
C282 C283 1.297 . S
C282 H296 0.950 . S
C283 C282 1.297 . S
C283 C284 1.479 . S
C283 H297 0.950 . S
C284 C283 1.479 . S
C284 C285 1.375 . S
C284 C290 1.404 . S
C285 C284 1.375 . S
C285 C286 1.369 . S
C285 H298 0.950 . S
C286 C285 1.369 . S
C286 C287 1.392 . S
C286 H299 0.951 1_455 S
C287 C286 1.392 . S
C287 C289 1.384 . S
H288 C290 0.949 . S
C289 C287 1.384 . S
C289 C290 1.385 . S
C289 H291 0.950 . S
C290 C284 1.404 . S
C290 H288 0.949 . S
C290 C289 1.385 . S
H291 C289 0.950 . S
H292 C276 0.951 . S
H293 C278 0.951 . S
H294 C280 0.951 . S
H295 C281 0.950 . S
H296 C282 0.950 . S
H297 C283 0.950 . S
H298 C285 0.950 . S
H299 C286 0.951 1_655 S
C300 C301 1.386 . S
C300 C302 1.383 . S
C300 H316 0.951 . S
C301 C300 1.386 . S
C301 C305 1.383 . S
C302 C300 1.383 . S
C302 C303 1.402 . S
C302 H317 0.951 . S
C303 C302 1.402 . S
C303 C304 1.375 . S
C303 C306 1.481 . S
C304 C303 1.375 . S
C304 C305 1.367 . S
C304 H318 0.951 . S
C305 C301 1.383 . S
C305 C304 1.367 . S
C305 H319 0.950 . S
C306 C303 1.481 . S
C306 C307 1.297 . S
C306 H320 0.950 . S
C307 C306 1.297 . S
C307 C308 1.479 1_565 S
C307 H321 0.950 . S
C308 C307 1.479 1_545 S
C308 C309 1.375 . S
C308 C314 1.404 . S
C309 C308 1.375 . S
C309 C310 1.369 . S
C309 H322 0.950 . S
C310 C309 1.369 . S
C310 C311 1.392 . S
C310 H323 0.951 . S
C311 C310 1.392 . S
C311 C313 1.384 . S
H312 C314 0.949 1_565 S
C313 C311 1.384 . S
C313 C314 1.385 . S
C313 H315 0.950 . S
C314 C308 1.404 . S
C314 H312 0.949 1_545 S
C314 C313 1.385 . S
H315 C313 0.950 . S
H316 C300 0.951 . S
H317 C302 0.951 . S
H318 C304 0.951 . S
H319 C305 0.950 . S
H320 C306 0.950 . S
H321 C307 0.950 . S
H322 C309 0.950 . S
H323 C310 0.951 . S
C324 C325 1.386 . S
C324 C326 1.383 1_556 S
C324 H340 0.951 . S
C325 C324 1.386 . S
C325 C329 1.383 . S
C326 C324 1.383 1_554 S
C326 C327 1.402 . S
C326 H341 0.951 . S
C327 C326 1.402 . S
C327 C328 1.375 1_554 S
C327 C330 1.481 . S
C328 C327 1.375 1_556 S
C328 C329 1.367 . S
C328 H342 0.951 . S
C329 C325 1.383 . S
C329 C328 1.367 . S
C329 H343 0.950 . S
C330 C327 1.481 . S
C330 C331 1.297 . S
C330 H344 0.950 . S
C331 C330 1.297 . S
C331 C332 1.479 . S
C331 H345 0.950 . S
C332 C331 1.479 . S
C332 C333 1.375 . S
C332 C338 1.404 . S
C333 C332 1.375 . S
C333 C334 1.369 . S
C333 H346 0.950 . S
C334 C333 1.369 . S
C334 C335 1.392 . S
C334 H347 0.951 . S
C335 C334 1.392 . S
C335 C337 1.384 . S
H336 C338 0.949 . S
C337 C335 1.384 . S
C337 C338 1.385 . S
C337 H339 0.950 . S
C338 C332 1.404 . S
C338 H336 0.949 . S
C338 C337 1.385 . S
H339 C337 0.950 . S
H340 C324 0.951 . S
H341 C326 0.951 . S
H342 C328 0.951 . S
H343 C329 0.950 . S
H344 C330 0.950 . S
H345 C331 0.950 . S
H346 C333 0.950 . S
H347 C334 0.951 . S
C348 C349 1.386 . S
C348 C350 1.383 . S
C348 H364 0.951 . S
C349 C348 1.386 . S
C349 C353 1.383 . S
C350 C348 1.383 . S
C350 C351 1.402 . S
C350 H365 0.951 . S
C351 C350 1.402 . S
C351 C352 1.375 . S
C351 C354 1.481 . S
C352 C351 1.375 . S
C352 C353 1.367 . S
C352 H366 0.951 . S
C353 C349 1.383 . S
C353 C352 1.367 . S
C353 H367 0.950 . S
C354 C351 1.481 . S
C354 C355 1.297 . S
C354 H368 0.950 . S
C355 C354 1.297 . S
C355 C356 1.479 . S
C355 H369 0.950 . S
C356 C355 1.479 . S
C356 C357 1.375 . S
C356 C362 1.404 . S
C357 C356 1.375 . S
C357 C358 1.369 . S
C357 H370 0.950 . S
C358 C357 1.369 . S
C358 C359 1.392 . S
C358 H371 0.951 . S
C359 C358 1.392 . S
C359 C361 1.384 . S
H360 C362 0.949 . S
C361 C359 1.384 . S
C361 C362 1.385 . S
C361 H363 0.950 1_655 S
C362 C356 1.404 . S
C362 H360 0.949 . S
C362 C361 1.385 . S
H363 C361 0.950 1_455 S
H364 C348 0.951 . S
H365 C350 0.951 . S
H366 C352 0.951 . S
H367 C353 0.950 . S
H368 C354 0.950 . S
H369 C355 0.950 . S
H370 C357 0.950 . S
H371 C358 0.951 . S
C372 C373 1.386 . S
C372 C374 1.383 . S
C372 H388 0.951 . S
C373 C372 1.386 . S
C373 C377 1.383 . S
C374 C372 1.383 . S
C374 C375 1.402 . S
C374 H389 0.951 . S
C375 C374 1.402 . S
C375 C376 1.375 . S
C375 C378 1.481 . S
C376 C375 1.375 . S
C376 C377 1.367 . S
C376 H390 0.951 . S
C377 C373 1.383 . S
C377 C376 1.367 . S
C377 H391 0.950 . S
C378 C375 1.481 . S
C378 C379 1.297 . S
C378 H392 0.950 . S
C379 C378 1.297 . S
C379 C380 1.479 . S
C379 H393 0.950 . S
C380 C379 1.479 . S
C380 C381 1.375 . S
C380 C386 1.404 . S
C381 C380 1.375 . S
C381 C382 1.369 . S
C381 H394 0.950 . S
C382 C381 1.369 . S
C382 C383 1.392 . S
C382 H395 0.951 . S
C383 C382 1.392 . S
C383 C385 1.384 . S
H384 C386 0.949 . S
C385 C383 1.384 . S
C385 C386 1.385 . S
C385 H387 0.950 . S
C386 C380 1.404 . S
C386 H384 0.949 . S
C386 C385 1.385 . S
H387 C385 0.950 . S
H388 C372 0.951 . S
H389 C374 0.951 . S
H390 C376 0.951 . S
H391 C377 0.950 . S
H392 C378 0.950 . S
H393 C379 0.950 . S
H394 C381 0.950 . S
H395 C382 0.951 . S
C396 C397 1.386 . S
C396 C398 1.383 . S
C396 H412 0.951 . S
C397 C396 1.386 . S
C397 C401 1.383 . S
C398 C396 1.383 . S
C398 C399 1.402 . S
C398 H413 0.951 . S
C399 C398 1.402 . S
C399 C400 1.375 . S
C399 C402 1.481 . S
C400 C399 1.375 . S
C400 C401 1.367 . S
C400 H414 0.951 . S
C401 C397 1.383 . S
C401 C400 1.367 . S
C401 H415 0.950 . S
C402 C399 1.481 . S
C402 C403 1.297 . S
C402 H416 0.950 . S
C403 C402 1.297 . S
C403 C404 1.479 . S
C403 H417 0.950 . S
C404 C403 1.479 . S
C404 C405 1.375 1_556 S
C404 C410 1.404 1_556 S
C405 C404 1.375 1_554 S
C405 C406 1.369 . S
C405 H418 0.950 . S
C406 C405 1.369 . S
C406 C407 1.392 . S
C406 H419 0.951 . S
C407 C406 1.392 . S
C407 C409 1.384 . S
H408 C410 0.951 . S
C409 C407 1.384 . S
C409 C410 1.385 . S
C409 H411 0.950 . S
C410 C404 1.404 1_554 S
C410 H408 0.951 . S
C410 C409 1.385 . S
H411 C409 0.950 . S
H412 C396 0.951 . S
H413 C398 0.951 . S
H414 C400 0.951 . S
H415 C401 0.950 . S
H416 C402 0.950 . S
H417 C403 0.950 . S
H418 C405 0.950 . S
H419 C406 0.951 . S
C420 C421 1.386 . S
C420 C422 1.383 . S
C420 H436 0.951 . S
C421 C420 1.386 . S
C421 C425 1.383 . S
C422 C420 1.383 . S
C422 C423 1.402 . S
C422 H437 0.951 . S
C423 C422 1.402 . S
C423 C424 1.375 . S
C423 C426 1.481 . S
C424 C423 1.375 . S
C424 C425 1.367 . S
C424 H438 0.951 . S
C425 C421 1.383 . S
C425 C424 1.367 . S
C425 H439 0.950 . S
C426 C423 1.481 . S
C426 C427 1.297 . S
C426 H440 0.950 . S
C427 C426 1.297 . S
C427 C428 1.479 . S
C427 H441 0.950 . S
C428 C427 1.479 . S
C428 C429 1.375 . S
C428 C434 1.404 . S
C429 C428 1.375 . S
C429 C430 1.369 1_565 S
C429 H442 0.950 . S
C430 C429 1.369 1_545 S
C430 C431 1.392 . S
C430 H443 0.951 . S
C431 C430 1.392 . S
C431 C433 1.384 1_545 S
H432 C434 0.949 . S
C433 C431 1.384 1_565 S
C433 C434 1.385 . S
C433 H435 0.950 . S
C434 C428 1.404 . S
C434 H432 0.949 . S
C434 C433 1.385 . S
H435 C433 0.950 . S
H436 C420 0.951 . S
H437 C422 0.951 . S
H438 C424 0.951 . S
H439 C425 0.950 . S
H440 C426 0.950 . S
H441 C427 0.950 . S
H442 C429 0.950 . S
H443 C430 0.951 . S
C444 C445 1.386 1_655 S
C444 C446 1.383 . S
C444 H460 0.951 . S
C445 C444 1.386 1_455 S
C445 C449 1.383 . S
C446 C444 1.383 . S
C446 C447 1.402 1_655 S
C446 H461 0.951 . S
C447 C446 1.402 1_455 S
C447 C448 1.375 . S
C447 C450 1.483 . S
C448 C447 1.375 . S
C448 C449 1.367 . S
C448 H462 0.951 . S
C449 C445 1.383 . S
C449 C448 1.367 . S
C449 H463 0.950 . S
C450 C447 1.483 . S
C450 C451 1.285 1_455 S
C450 H464 0.961 . S
C451 C450 1.285 1_655 S
C451 C452 1.479 . S
C451 H465 0.950 . S
C452 C451 1.479 . S
C452 C453 1.375 . S
C452 C458 1.404 . S
C453 C452 1.375 . S
C453 C454 1.369 . S
C453 H466 0.950 . S
C454 C453 1.369 . S
C454 C455 1.392 . S
C454 H467 0.951 . S
C455 C454 1.392 . S
C455 C457 1.384 . S
H456 C458 0.949 1_455 S
C457 C455 1.384 . S
C457 C458 1.385 . S
C457 H459 0.950 . S
C458 C452 1.404 . S
C458 H456 0.949 1_655 S
C458 C457 1.385 . S
H459 C457 0.950 . S
H460 C444 0.951 . S
H461 C446 0.951 . S
H462 C448 0.951 . S
H463 C449 0.950 . S
H464 C450 0.961 . S
H465 C451 0.950 . S
H466 C453 0.950 . S
H467 C454 0.951 . S
C253 C63 1.340 . S
C263 C74 1.423 . S
C277 C158 1.333 . S
C287 C147 1.399 1_455 S
C301 C242 1.382 1_455 S
C311 C231 1.405 . S
C325 C226 1.844 . S
C335 C67 2.058 . S
C349 C154 0.929 . S
C359 C56 1.099 . S
C373 C235 2.029 . S
C383 C142 1.906 . S
C397 C224 0.984 . S
C407 C70 0.833 . S
C421 C58 1.845 . S
C431 C151 2.059 . S
C445 C238 1.031 . S
C455 C140 1.118 . S
