# Generated by pormake.
# Topology bcu-g, (3)-cn, num edge types: 1
# Building blocks:
#     Node 0, Type 0, BuildingBlock: WUSLED_clean_sbu_0, # of connection points: 3
#     Node 1, Type 0, BuildingBlock: WUSLED_clean_sbu_0, # of connection points: 3
#     Node 2, Type 0, BuildingBlock: WUSLED_clean_sbu_0, # of connection points: 3
#     Node 3, Type 0, BuildingBlock: WUSLED_clean_sbu_0, # of connection points: 3
#     Node 4, Type 0, BuildingBlock: WUSLED_clean_sbu_0, # of connection points: 3
#     Node 5, Type 0, BuildingBlock: WUSLED_clean_sbu_0, # of connection points: 3
#     Node 6, Type 0, BuildingBlock: WUSLED_clean_sbu_0, # of connection points: 3
#     Node 7, Type 0, BuildingBlock: WUSLED_clean_sbu_0, # of connection points: 3
#     Node 8, Type 0, BuildingBlock: WUSLED_clean_sbu_0, # of connection points: 3
#     Node 9, Type 0, BuildingBlock: WUSLED_clean_sbu_0, # of connection points: 3
#     Node 10, Type 0, BuildingBlock: WUSLED_clean_sbu_0, # of connection points: 3
#     Node 11, Type 0, BuildingBlock: WUSLED_clean_sbu_0, # of connection points: 3
#     Node 12, Type 0, BuildingBlock: WUSLED_clean_sbu_0, # of connection points: 3
#     Node 13, Type 0, BuildingBlock: WUSLED_clean_sbu_0, # of connection points: 3
#     Node 14, Type 0, BuildingBlock: WUSLED_clean_sbu_0, # of connection points: 3
#     Node 15, Type 0, BuildingBlock: WUSLED_clean_sbu_0, # of connection points: 3
#     Edge 16, Type (0, 0), BuildingBlock: CIFDUS_clean_linker_0, # of connection points: 2
#     Edge 17, Type (0, 0), BuildingBlock: CIFDUS_clean_linker_0, # of connection points: 2
#     Edge 18, Type (0, 0), BuildingBlock: CIFDUS_clean_linker_0, # of connection points: 2
#     Edge 19, Type (0, 0), BuildingBlock: CIFDUS_clean_linker_0, # of connection points: 2
#     Edge 20, Type (0, 0), BuildingBlock: CIFDUS_clean_linker_0, # of connection points: 2
#     Edge 21, Type (0, 0), BuildingBlock: CIFDUS_clean_linker_0, # of connection points: 2
#     Edge 22, Type (0, 0), BuildingBlock: CIFDUS_clean_linker_0, # of connection points: 2
#     Edge 23, Type (0, 0), BuildingBlock: CIFDUS_clean_linker_0, # of connection points: 2
#     Edge 24, Type (0, 0), BuildingBlock: CIFDUS_clean_linker_0, # of connection points: 2
#     Edge 25, Type (0, 0), BuildingBlock: CIFDUS_clean_linker_0, # of connection points: 2
#     Edge 26, Type (0, 0), BuildingBlock: CIFDUS_clean_linker_0, # of connection points: 2
#     Edge 27, Type (0, 0), BuildingBlock: CIFDUS_clean_linker_0, # of connection points: 2
#     Edge 28, Type (0, 0), BuildingBlock: CIFDUS_clean_linker_0, # of connection points: 2
#     Edge 29, Type (0, 0), BuildingBlock: CIFDUS_clean_linker_0, # of connection points: 2
#     Edge 30, Type (0, 0), BuildingBlock: CIFDUS_clean_linker_0, # of connection points: 2
#     Edge 31, Type (0, 0), BuildingBlock: CIFDUS_clean_linker_0, # of connection points: 2
#     Edge 32, Type (0, 0), BuildingBlock: CIFDUS_clean_linker_0, # of connection points: 2
#     Edge 33, Type (0, 0), BuildingBlock: CIFDUS_clean_linker_0, # of connection points: 2
#     Edge 34, Type (0, 0), BuildingBlock: CIFDUS_clean_linker_0, # of connection points: 2
#     Edge 35, Type (0, 0), BuildingBlock: CIFDUS_clean_linker_0, # of connection points: 2
#     Edge 36, Type (0, 0), BuildingBlock: CIFDUS_clean_linker_0, # of connection points: 2
#     Edge 37, Type (0, 0), BuildingBlock: CIFDUS_clean_linker_0, # of connection points: 2
#     Edge 38, Type (0, 0), BuildingBlock: CIFDUS_clean_linker_0, # of connection points: 2
#     Edge 39, Type (0, 0), BuildingBlock: CIFDUS_clean_linker_0, # of connection points: 2
# Relax obj value: 0.202
# Max RMSD: 0.161
# Mean RMSD: 0.115
data_MOF--net-bcu-g--node1-WUSLED_clean_sbu_0--edge1-CIFDUS_clean_linker_0
_symmetry_space_group_name_H-M    P1
_symmetry_Int_Tables_number       1
_symmetry_cell_setting            triclinic
loop_
_symmetry_equiv_pos_as_xyz
'x, y, z'
_cell_length_a     50.153023
_cell_length_b     50.124402
_cell_length_c     58.730638
_cell_angle_alpha  89.703286
_cell_angle_beta   90.346552
_cell_angle_gamma 90.287893
loop_
_atom_site_label
_atom_site_type_symbol
_atom_site_fract_x
_atom_site_fract_y
_atom_site_fract_z
_atom_type_partial_charge
C0 C 0.58493 0.18995 0.12168 0.0
C1 C 0.57096 0.16619 0.12654 0.0
C2 C 0.55491 0.16436 0.0873 0.0
C3 C 0.55609 0.1534 0.10937 0.0
C4 C 0.56821 0.18845 0.08277 0.0
C5 C 0.58313 0.20106 0.09979 0.0
U6 U 0.61651 0.20269 0.18146 0.0
O7 O 0.6351 0.23983 0.19476 0.0
O8 O 0.65954 0.20433 0.18811 0.0
C9 C 0.65913 0.22942 0.19449 0.0
C10 C 0.60375 0.20226 0.13798 0.0
C11 C 0.67955 0.23831 0.21109 0.0
C12 C 0.71621 0.2692 0.21887 0.0
C13 C 0.69298 0.26247 0.20679 0.0
C14 C 0.71222 0.22835 0.24066 0.0
C15 C 0.72654 0.25179 0.23546 0.0
C16 C 0.68894 0.22159 0.22857 0.0
C17 C 0.58093 0.16116 0.23037 0.0
C18 C 0.59569 0.14107 0.26578 0.0
C19 C 0.55278 0.12892 0.2496 0.0
C20 C 0.55687 0.14707 0.23196 0.0
C21 C 0.57262 0.12479 0.26624 0.0
C22 C 0.60001 0.15891 0.24775 0.0
C23 C 0.58695 0.17343 0.20839 0.0
O24 O 0.59424 0.21983 0.15231 0.0
O25 O 0.62128 0.18612 0.14727 0.0
O26 O 0.60785 0.16426 0.19761 0.0
O27 O 0.58278 0.19911 0.20542 0.0
H28 H 0.57215 0.15721 0.14334 0.0
H29 H 0.5458 0.13487 0.1132 0.0
H30 H 0.5676 0.19717 0.06586 0.0
H31 H 0.59395 0.21919 0.09565 0.0
H32 H 0.72685 0.2873 0.21435 0.0
H33 H 0.6863 0.27552 0.19316 0.0
H34 H 0.71965 0.21497 0.25368 0.0
H35 H 0.67895 0.20285 0.23212 0.0
H36 H 0.61108 0.13906 0.27867 0.0
H37 H 0.5349 0.11675 0.24905 0.0
H38 H 0.54203 0.14852 0.21851 0.0
H39 H 0.61873 0.16972 0.24673 0.0
C40 C 0.66072 0.52698 0.07973 0.0
C41 C 0.65655 0.49999 0.07471 0.0
C42 C 0.68426 0.50445 0.04058 0.0
C43 C 0.66811 0.48886 0.05523 0.0
C44 C 0.68792 0.5316 0.04573 0.0
C45 C 0.67623 0.54266 0.06501 0.0
U46 U 0.62602 0.54547 0.13943 0.0
O47 O 0.64455 0.57702 0.16019 0.0
O48 O 0.60616 0.58439 0.14324 0.0
C49 C 0.62516 0.594 0.15638 0.0
C50 C 0.64988 0.53987 0.10014 0.0
C51 C 0.6174 0.61132 0.17544 0.0
C52 C 0.61867 0.65584 0.19172 0.0
C53 C 0.62354 0.63853 0.17368 0.0
C54 C 0.60024 0.6191 0.21351 0.0
C55 C 0.60719 0.64646 0.21208 0.0
C56 C 0.60547 0.60164 0.1954 0.0
C57 C 0.59726 0.47797 0.16551 0.0
C58 C 0.57001 0.44542 0.18554 0.0
C59 C 0.60725 0.43072 0.16281 0.0
C60 C 0.6128 0.45727 0.15675 0.0
C61 C 0.58609 0.4245 0.17771 0.0
C62 C 0.57566 0.47179 0.1796 0.0
C63 C 0.60422 0.50632 0.16268 0.0
O64 O 0.62405 0.54369 0.10187 0.0
O65 O 0.6623 0.53695 0.11975 0.0
O66 O 0.59099 0.52036 0.14743 0.0
O67 O 0.62945 0.51323 0.16476 0.0
H68 H 0.64453 0.48758 0.08582 0.0
H69 H 0.6643 0.46802 0.05167 0.0
H70 H 0.70044 0.54428 0.03528 0.0
H71 H 0.67967 0.56359 0.06865 0.0
H72 H 0.62492 0.67642 0.18986 0.0
H73 H 0.63288 0.64636 0.15844 0.0
H74 H 0.59093 0.61104 0.22864 0.0
H75 H 0.60052 0.58067 0.19709 0.0
H76 H 0.55319 0.44156 0.19657 0.0
H77 H 0.62027 0.41525 0.1566 0.0
H78 H 0.62968 0.46167 0.14592 0.0
H79 H 0.56351 0.48754 0.1866 0.0
C80 C 0.92088 0.16974 0.19983 0.0
C81 C 0.92391 0.16676 0.22342 0.0
C82 C 0.87621 0.15544 0.22707 0.0
C83 C 0.9019 0.15942 0.23687 0.0
C84 C 0.87396 0.15817 0.2032 0.0
C85 C 0.89593 0.16488 0.18991 0.0
U86 U 0.98597 0.20404 0.17302 0.0
O87 O 0.98296 0.21906 0.13804 0.0
O88 O 0.01012 0.18598 0.14574 0.0
C89 C 1.00103 0.2027 0.13024 0.0
C90 C 0.94264 0.17771 0.18442 0.0
C91 C 0.02014 0.21425 0.11387 0.0
C92 C 0.03932 0.21181 0.07607 0.0
C93 C 0.02495 0.20013 0.09382 0.0
C94 C 0.04512 0.25195 0.09836 0.0
C95 C 0.04923 0.238 0.07792 0.0
C96 C 0.03072 0.24014 0.11625 0.0
C97 C 0.01836 0.24838 0.22207 0.0
C98 C 0.04588 0.28114 0.24132 0.0
C99 C 1.00347 0.26786 0.25746 0.0
C100 C 0.99932 0.25018 0.23933 0.0
C101 C 0.02633 0.28451 0.25815 0.0
C102 C 0.042 0.26311 0.22369 0.0
C103 C 0.01317 0.23501 0.2004 0.0
O104 O 0.94241 0.20224 0.17647 0.0
O105 O 0.96672 0.16784 0.18728 0.0
O106 O 0.01812 0.20937 0.19854 0.0
O107 O 0.99267 0.24329 0.1883 0.0
H108 H 0.94312 0.17017 0.23144 0.0
H109 H 0.9054 0.15703 0.25491 0.0
H110 H 0.85512 0.1562 0.19438 0.0
H111 H 0.89322 0.16689 0.17165 0.0
H112 H 0.04182 0.20062 0.0605 0.0
H113 H 0.01665 0.18032 0.09152 0.0
H114 H 0.05277 0.27205 0.10037 0.0
H115 H 0.02713 0.25149 0.13156 0.0
H116 H 0.06354 0.29358 0.24069 0.0
H117 H 0.98829 0.26908 0.27042 0.0
H118 H 0.98092 0.23881 0.23832 0.0
H119 H 0.05684 0.26201 0.21037 0.0
C120 C 0.94118 0.88628 0.08002 0.0
C121 C 0.94641 0.91321 0.07494 0.0
C122 C 0.91923 0.90987 0.04024 0.0
C123 C 0.93555 0.9249 0.05513 0.0
C124 C 0.91396 0.88305 0.04568 0.0
C125 C 0.92486 0.87145 0.06528 0.0
U126 U 0.97858 0.87507 0.13902 0.0
O127 O 0.96523 0.84577 0.16468 0.0
O128 O 1.00344 0.83968 0.14698 0.0
C129 C 0.98571 0.83005 0.16128 0.0
C130 C 0.95249 0.87227 0.10003 0.0
C131 C 0.99338 0.81047 0.17905 0.0
C132 C 0.99729 0.76363 0.18987 0.0
C133 C 0.99263 0.78333 0.17338 0.0
C134 C 0.00407 0.7979 0.21818 0.0
C135 C 1.0027 0.77048 0.21266 0.0
C136 C 0.9994 0.8177 0.20155 0.0
C137 C 0.00502 0.94452 0.16637 0.0
C138 C 0.00993 0.96818 0.20211 0.0
C139 C 0.01672 0.9917 0.16644 0.0
C140 C 0.01169 0.96806 0.1546 0.0
C141 C 0.01509 0.99208 0.19025 0.0
C142 C 0.00491 0.9445 0.19024 0.0
C143 C 0.99453 0.92187 0.15317 0.0
O144 O 0.97856 0.87056 0.10168 0.0
O145 O 0.94073 0.87565 0.11971 0.0
O146 O 0.97141 0.9113 0.15877 0.0
O147 O 0.01004 0.90642 0.14105 0.0
H148 H 0.95893 0.92506 0.08612 0.0
H149 H 0.93982 0.94568 0.05149 0.0
H150 H 0.90186 0.87079 0.03449 0.0
H151 H 0.9207 0.85061 0.06884 0.0
H152 H 0.99663 0.74297 0.18461 0.0
H153 H 0.98793 0.77728 0.15612 0.0
H154 H 0.00791 0.80416 0.2355 0.0
H155 H 0.99993 0.83852 0.20635 0.0
H156 H 0.00837 0.9682 0.2205 0.0
H157 H 0.02012 0.01 0.15697 0.0
H158 H 0.01147 0.96852 0.13615 0.0
H159 H 0.99965 0.92659 0.19962 0.0
C160 C 0.5817 0.21304 0.38754 0.0
C161 C 0.57102 0.23883 0.38559 0.0
C162 C 0.55139 0.23469 0.42352 0.0
C163 C 0.55591 0.24953 0.4034 0.0
C164 C 0.56152 0.20858 0.42487 0.0
C165 C 0.57633 0.19792 0.40708 0.0
U166 U 0.61668 0.20412 0.32859 0.0
O167 O 0.63643 0.1681 0.31524 0.0
O168 O 0.66028 0.20353 0.32474 0.0
C169 C 0.66033 0.17864 0.31785 0.0
C170 C 0.60127 0.20242 0.37128 0.0
C171 C 0.68262 0.16958 0.3037 0.0
C172 C 0.72727 0.15097 0.30315 0.0
C173 C 0.70444 0.15816 0.31503 0.0
C174 C 0.7063 0.16511 0.26794 0.0
C175 C 0.72893 0.15505 0.27951 0.0
C176 C 0.68339 0.17268 0.27998 0.0
C177 C 0.58313 0.24767 0.27921 0.0
C178 C 0.59828 0.27531 0.24779 0.0
C179 C 0.55272 0.27861 0.26102 0.0
C180 C 0.55755 0.25842 0.27683 0.0
C181 C 0.5734 0.28818 0.24721 0.0
C182 C 0.60324 0.25523 0.26393 0.0
C183 C 0.58899 0.23395 0.30069 0.0
O184 O 0.59278 0.18533 0.35592 0.0
O185 O 0.61895 0.21945 0.36342 0.0
O186 O 0.60917 0.24296 0.31285 0.0
O187 O 0.58457 0.20816 0.30273 0.0
H188 H 0.57499 0.25096 0.37065 0.0
H189 H 0.54812 0.26953 0.40151 0.0
H190 H 0.55905 0.1966 0.44011 0.0
H191 H 0.58466 0.17812 0.40905 0.0
H192 H 0.74374 0.14238 0.31262 0.0
H193 H 0.70405 0.15524 0.33332 0.0
H194 H 0.70668 0.16812 0.2497 0.0
H195 H 0.66663 0.1813 0.27091 0.0
H196 H 0.61455 0.28244 0.23729 0.0
H197 H 0.53337 0.28816 0.26079 0.0
H198 H 0.54187 0.25292 0.28861 0.0
H199 H 0.62317 0.24719 0.26565 0.0
C200 C 0.94595 0.51937 0.42857 0.0
C201 C 0.93036 0.49608 0.42917 0.0
C202 C 0.91737 0.50523 0.4683 0.0
C203 C 0.91629 0.48905 0.44882 0.0
C204 C 0.93347 0.52829 0.4679 0.0
C205 C 0.94765 0.5353 0.44817 0.0
U206 U 0.98274 0.54008 0.36892 0.0
O207 O 1.00245 0.57966 0.36757 0.0
O208 O 0.96373 0.57353 0.35083 0.0
C209 C 0.98351 0.59016 0.35487 0.0
C210 C 0.95947 0.52737 0.40726 0.0
C211 C 0.99163 0.60801 0.33587 0.0
C212 C 0.9995 0.65364 0.32275 0.0
C213 C 0.99584 0.63517 0.34046 0.0
C214 C 0.99633 0.61785 0.2954 0.0
C215 C 0.99907 0.64541 0.29987 0.0
C216 C 0.99253 0.59937 0.31318 0.0
C217 C 0.00882 0.47476 0.33953 0.0
C218 C 0.02751 0.44062 0.31515 0.0
C219 C 0.99742 0.42807 0.34554 0.0
C220 C 0.99532 0.45491 0.35193 0.0
C221 C 0.01303 0.42078 0.32672 0.0
C222 C 0.02534 0.46733 0.32148 0.0
C223 C 0.00408 0.50343 0.34293 0.0
O224 O 0.98475 0.53444 0.40646 0.0
O225 O 0.94695 0.52681 0.38754 0.0
O226 O 0.01737 0.51558 0.35926 0.0
O227 O 0.97929 0.51148 0.34087 0.0
H228 H 0.9289 0.48338 0.41434 0.0
H229 H 0.9043 0.47101 0.44874 0.0
H230 H 0.93449 0.54124 0.48259 0.0
H231 H 0.95941 0.5535 0.44803 0.0
H232 H 1.00128 0.67457 0.32701 0.0
H233 H 0.99512 0.64233 0.35782 0.0
H234 H 0.99646 0.61058 0.27807 0.0
H235 H 0.98945 0.57851 0.30914 0.0
H236 H 0.03937 0.43569 0.30041 0.0
H237 H 0.98616 0.4131 0.3548 0.0
H238 H 0.98242 0.46024 0.3659 0.0
H239 H 0.03571 0.48241 0.31159 0.0
C240 C 0.92156 0.24172 0.31407 0.0
C241 C 0.92062 0.23135 0.29201 0.0
C242 C 0.87562 0.24943 0.28656 0.0
C243 C 0.89803 0.23551 0.27826 0.0
C244 C 0.87762 0.2613 0.30814 0.0
C245 C 0.90038 0.25751 0.32168 0.0
U246 U 0.98489 0.20671 0.34264 0.0
O247 O 0.98004 0.18969 0.37682 0.0
O248 O 0.00839 0.22262 0.37155 0.0
C249 C 0.99807 0.20537 0.38602 0.0
C250 C 0.94203 0.23367 0.33084 0.0
C251 C 0.01577 0.19256 0.4029 0.0
C252 C 0.02169 0.17861 0.44225 0.0
C253 C 0.00711 0.192 0.42551 0.0
C254 C 0.05466 0.1666 0.41418 0.0
C255 C 0.04548 0.16555 0.4368 0.0
C256 C 0.03975 0.17985 0.39722 0.0
C257 C 0.01834 0.16577 0.29265 0.0
C258 C 0.0472 0.13592 0.27191 0.0
C259 C 1.00247 0.14472 0.25807 0.0
C260 C 0.99828 0.16213 0.27625 0.0
C261 C 0.02651 0.13033 0.25639 0.0
C262 C 0.04314 0.15358 0.28978 0.0
C263 C 0.01302 0.17757 0.31491 0.0
O264 O 0.94162 0.20859 0.33742 0.0
O265 O 0.96623 0.24384 0.32957 0.0
O266 O 0.01798 0.20308 0.3181 0.0
O267 O 0.99216 0.16849 0.32601 0.0
H268 H 0.93675 0.21915 0.28578 0.0
H269 H 0.8977 0.22671 0.26147 0.0
H270 H 0.86094 0.27198 0.31527 0.0
H271 H 0.90073 0.26562 0.33875 0.0
H272 H 0.01431 0.17844 0.45955 0.0
H273 H 0.98866 0.20164 0.43021 0.0
H274 H 0.07294 0.15661 0.40955 0.0
H275 H 0.04668 0.17987 0.37979 0.0
H276 H 0.06587 0.12519 0.27137 0.0
H277 H 0.98635 0.14144 0.24604 0.0
H278 H 0.979 0.17146 0.27821 0.0
H279 H 0.05879 0.15611 0.30242 0.0
C280 C 0.65871 0.89131 0.43269 0.0
C281 C 0.67319 0.91529 0.43285 0.0
C282 C 0.68734 0.90704 0.47198 0.0
C283 C 0.68726 0.92313 0.4523 0.0
C284 C 0.67225 0.88332 0.47206 0.0
C285 C 0.65802 0.87551 0.45252 0.0
U286 U 0.62308 0.86828 0.37316 0.0
O287 O 0.60579 0.82779 0.37177 0.0
O288 O 0.64439 0.83606 0.35575 0.0
C289 C 0.6255 0.81839 0.35957 0.0
C290 C 0.6456 0.88235 0.4115 0.0
C291 C 0.61861 0.80051 0.34048 0.0
C292 C 0.62575 0.75782 0.32207 0.0
C293 C 0.6309 0.77552 0.33985 0.0
C294 C 0.59527 0.78964 0.30518 0.0
C295 C 0.60786 0.76447 0.30439 0.0
C296 C 0.60068 0.80755 0.32302 0.0
C297 C 0.59376 0.93182 0.34304 0.0
C298 C 0.57536 0.96551 0.31768 0.0
C299 C 0.60179 0.97877 0.35047 0.0
C300 C 0.60485 0.95193 0.35673 0.0
C301 C 0.58751 0.98564 0.33063 0.0
C302 C 0.57857 0.9388 0.32383 0.0
C303 C 0.59981 0.90346 0.3465 0.0
O304 O 0.62074 0.87388 0.41062 0.0
O305 O 0.65802 0.88363 0.39188 0.0
O306 O 0.58717 0.89068 0.36282 0.0
O307 O 0.62501 0.89678 0.34476 0.0
H308 H 0.67384 0.92787 0.4178 0.0
H309 H 0.69843 0.94168 0.45189 0.0
H310 H 0.67214 0.87046 0.48695 0.0
H311 H 0.64712 0.85679 0.45268 0.0
H312 H 0.63645 0.73913 0.32201 0.0
H313 H 0.6449 0.76976 0.3531 0.0
H314 H 0.58114 0.79551 0.29211 0.0
H315 H 0.59094 0.82679 0.32316 0.0
H316 H 0.5647 0.97034 0.3021 0.0
H317 H 0.61143 0.99411 0.36056 0.0
H318 H 0.61674 0.94687 0.37157 0.0
H319 H 0.57014 0.92348 0.31296 0.0
C320 C 0.39671 0.01413 0.84097 0.0
C321 C 0.40482 1.00395 0.81989 0.0
C322 C 0.35838 1.00349 0.80637 0.0
C323 C 0.38576 0.99859 0.80273 0.0
C324 C 0.35063 0.01307 0.8278 0.0
C325 C 0.36952 0.01836 0.84475 0.0
U326 U 0.46216 0.02766 0.87924 0.0
O327 O 0.46556 0.06433 0.89962 0.0
O328 O 0.46048 0.02557 0.91676 0.0
C329 C 0.4628 0.05154 0.91905 0.0
C330 C 0.41537 0.02194 0.85936 0.0
C331 C 0.47727 0.06185 0.93912 0.0
C332 C 0.47416 0.0825 0.97639 0.0
C333 C 0.46199 0.07174 0.95706 0.0
C334 C 0.51749 0.07369 0.96021 0.0
C335 C 0.5021 0.0838 0.9783 0.0
C336 C 0.50517 0.06277 0.94077 0.0
C337 C 0.53076 1.00246 0.84989 0.0
C338 C 0.5776 0.99066 0.85277 0.0
C339 C 0.55559 0.99181 0.81592 0.0
C340 C 0.53185 0.99923 0.82629 0.0
C341 C 0.57883 0.9876 0.82897 0.0
C342 C 0.55366 0.99791 0.86317 0.0
C343 C 0.50593 0.01154 0.86027 0.0
O344 O 0.42597 1.00346 0.87248 0.0
O345 O 0.43085 0.04282 0.85619 0.0
O346 O 0.49618 0.03546 0.85634 0.0
O347 O 0.49231 0.99632 0.87436 0.0
H348 H 0.42575 1.00057 0.81659 0.0
H349 H 0.39256 0.99133 0.78645 0.0
H350 H 0.32984 0.01649 0.83162 0.0
H351 H 0.36281 0.02614 0.86091 0.0
H352 H 0.46153 0.08948 0.98999 0.0
H353 H 0.4404 0.07117 0.9561 0.0
H354 H 0.53905 0.07459 0.96087 0.0
H355 H 0.51735 0.05532 0.92705 0.0
H356 H 0.59509 0.9874 0.86331 0.0
H357 H 0.55586 0.99011 0.79755 0.0
H358 H 0.51433 1.00275 0.81584 0.0
H359 H 0.55314 1.00043 0.88148 0.0
C360 C 0.83658 0.32722 0.81317 0.0
C361 C 0.82299 0.32521 0.79232 0.0
C362 C 0.84478 0.28264 0.78469 0.0
C363 C 0.82725 0.30325 0.77819 0.0
C364 C 0.8594 0.28567 0.80507 0.0
C365 C 0.85526 0.30769 0.81915 0.0
U366 U 0.79773 0.38911 0.83211 0.0
O367 O 0.77531 0.39224 0.86402 0.0
O368 O 0.80805 0.42077 0.85689 0.0
C369 C 0.79019 0.41201 0.87151 0.0
C370 C 0.82942 0.34757 0.83002 0.0
C371 C 0.77926 0.42981 0.88893 0.0
C372 C 0.77671 0.44001 0.92925 0.0
C373 C 0.78815 0.42602 0.91136 0.0
C374 C 0.74766 0.46272 0.90246 0.0
C375 C 0.75592 0.45816 0.92518 0.0
C376 C 0.75918 0.44852 0.88444 0.0
C377 C 0.75364 0.41549 0.78012 0.0
C378 C 0.7153 0.44418 0.77551 0.0
C379 C 0.72759 0.41384 0.74537 0.0
C380 C 0.7495 0.40568 0.75815 0.0
C381 C 0.70949 0.43242 0.75422 0.0
C382 C 0.73704 0.43543 0.78859 0.0
C383 C 0.77305 0.40136 0.79423 0.0
O384 O 0.83768 0.37213 0.82622 0.0
O385 O 0.80462 0.34633 0.8369 0.0
O386 O 0.76367 0.384 0.80903 0.0
O387 O 0.79503 0.4136 0.80078 0.0
H388 H 0.80843 0.34008 0.78735 0.0
H389 H 0.81606 0.30196 0.76255 0.0
H390 H 0.87376 0.27083 0.81043 0.0
H391 H 0.86602 0.30897 0.83516 0.0
H392 H 0.78407 0.43635 0.94635 0.0
H393 H 0.80363 0.41163 0.91515 0.0
H394 H 0.73164 0.47647 0.89869 0.0
H395 H 0.75197 0.45162 0.86721 0.0
H396 H 0.70233 0.45916 0.78261 0.0
H397 H 0.72395 0.40393 0.72932 0.0
H398 H 0.76224 0.3902 0.75144 0.0
H399 H 0.74014 0.44327 0.80556 0.0
C400 C 0.12784 0.34167 0.93019 0.0
C401 C 0.10101 0.34726 0.93488 0.0
C402 C 0.1034 0.32014 0.96969 0.0
C403 C 0.08889 0.33657 0.95448 0.0
C404 C 0.13026 0.31482 0.96475 0.0
C405 C 0.14222 0.32539 0.94526 0.0
U406 U 0.13485 0.37893 0.87171 0.0
O407 O 0.16968 0.40293 0.86059 0.0
O408 O 0.15851 0.36585 0.84213 0.0
C409 C 0.1751 0.38608 0.84416 0.0
C410 C 0.14186 0.35212 0.90994 0.0
C411 C 0.19787 0.39012 0.82856 0.0
C412 C 0.24574 0.39418 0.82231 0.0
C413 C 0.22395 0.39231 0.83713 0.0
C414 C 0.21552 0.39307 0.79008 0.0
C415 C 0.24196 0.39448 0.79846 0.0
C416 C 0.19384 0.39054 0.80493 0.0
C417 C 0.06529 0.4084 0.84928 0.0
C418 C 0.04804 0.43177 0.81597 0.0
C419 C 0.01776 0.41598 0.84517 0.0
C420 C 0.03925 0.40591 0.85754 0.0
C421 C 0.02194 0.42884 0.8243 0.0
C422 C 0.06976 0.42158 0.82847 0.0
C423 C 0.08649 0.39579 0.86286 0.0
O424 O 0.13619 0.34074 0.8904 0.0
O425 O 0.14484 0.37812 0.90831 0.0
O426 O 0.10462 0.41079 0.87287 0.0
O427 O 0.09517 0.37231 0.85651 0.0
H428 H 0.08948 0.35975 0.92342 0.0
H429 H 0.06809 0.3409 0.95755 0.0
H430 H 0.14233 0.30279 0.97614 0.0
H431 H 0.16296 0.32091 0.94199 0.0
H432 H 0.26555 0.39469 0.82967 0.0
H433 H 0.22756 0.39175 0.85533 0.0
H434 H 0.21137 0.39397 0.772 0.0
H435 H 0.17386 0.38899 0.79792 0.0
H436 H 0.05148 0.44136 0.79967 0.0
H437 H 0.99774 0.4132 0.85166 0.0
H438 H 0.03545 0.39566 0.8735 0.0
H439 H 0.08976 0.42355 0.82179 0.0
C440 C 0.81849 0.98998 0.89154 0.0
C441 C 0.84358 0.97779 0.89014 0.0
C442 C 0.83996 0.96261 0.92969 0.0
C443 C 0.85421 0.96414 0.90908 0.0
C444 C 0.81462 0.97443 0.93067 0.0
C445 C 0.80406 0.98786 0.91182 0.0
U446 U 0.7999 0.02988 0.83369 0.0
O447 O 0.76097 0.04961 0.82867 0.0
O448 O 0.79667 0.07335 0.83643 0.0
C449 C 0.77121 0.07361 0.83121 0.0
C450 C 0.808 0.008 0.87373 0.0
C451 C 0.76317 0.09437 0.81473 0.0
C452 C 0.74272 0.13769 0.80847 0.0
C453 C 0.74781 0.11568 0.82251 0.0
C454 C 0.76707 0.11669 0.77805 0.0
C455 C 0.75293 0.13891 0.78623 0.0
C456 C 0.77241 0.09471 0.79223 0.0
C457 C 0.83856 0.99543 0.78306 0.0
C458 C 0.85775 0.9867 0.74612 0.0
C459 C 0.87907 0.9695 0.78027 0.0
C460 C 0.85893 0.9807 0.79354 0.0
C461 C 0.87937 0.97345 0.75645 0.0
C462 C 0.83751 0.99739 0.75931 0.0
C463 C 0.82098 0.01305 0.79579 0.0
O464 O 0.82406 0.02595 0.86479 0.0
O465 O 0.78823 1.00055 0.86033 0.0
O466 O 0.83257 0.03058 0.80921 0.0
O467 O 0.7982 1.00367 0.8035 0.0
H468 H 0.85517 0.97938 0.87469 0.0
H469 H 0.87365 0.95501 0.90769 0.0
H470 H 0.80325 0.9741 0.94628 0.0
H471 H 0.78488 0.99755 0.9134 0.0
H472 H 0.73102 0.15389 0.81522 0.0
H473 H 0.74039 0.11569 0.8398 0.0
H474 H 0.77479 0.11663 0.76092 0.0
H475 H 0.78432 0.07843 0.78585 0.0
H476 H 0.85727 0.99058 0.72797 0.0
H477 H 0.89503 0.95884 0.78876 0.0
H478 H 0.86001 0.97905 0.81193 0.0
H479 H 0.82198 0.00892 0.75099 0.0
C480 C 0.39318 0.37517 0.66697 0.0
C481 C 0.39882 0.37257 0.6904 0.0
C482 C 0.35262 0.38362 0.69964 0.0
C483 C 0.37871 0.37689 0.70662 0.0
C484 C 0.34771 0.3876 0.67626 0.0
C485 C 0.36766 0.38337 0.66021 0.0
U486 U 0.46228 0.36854 0.63632 0.0
O487 O 0.47609 0.33357 0.61676 0.0
O488 O 0.47024 0.37277 0.59949 0.0
C489 C 0.4768 0.34751 0.59774 0.0
C490 C 0.412 0.36699 0.64891 0.0
C491 C 0.48547 0.33597 0.57596 0.0
C492 C 0.47812 0.30576 0.54412 0.0
C493 C 0.47016 0.31618 0.56514 0.0
C494 C 0.51723 0.33422 0.54495 0.0
C495 C 0.50179 0.3147 0.53365 0.0
C496 C 0.509 0.34492 0.5657 0.0
C497 C 0.52438 0.40071 0.66758 0.0
C498 C 0.57234 0.39444 0.6658 0.0
C499 C 0.55405 0.42951 0.68917 0.0
C500 C 0.52842 0.42214 0.68239 0.0
C501 C 0.57634 0.41542 0.68139 0.0
C502 C 0.54648 0.38709 0.65894 0.0
C503 C 0.4967 0.39224 0.66338 0.0
O504 O 0.42193 0.38594 0.63588 0.0
O505 O 0.42923 0.34813 0.65385 0.0
O506 O 0.49127 0.36658 0.6645 0.0
O507 O 0.48334 0.40496 0.64741 0.0
H508 H 0.41839 0.36631 0.69612 0.0
H509 H 0.38321 0.37365 0.72448 0.0
H510 H 0.32809 0.39331 0.67024 0.0
H511 H 0.3628 0.38556 0.6423 0.0
H512 H 0.46544 0.29107 0.53596 0.0
H513 H 0.45181 0.3091 0.57277 0.0
H514 H 0.53592 0.34119 0.53791 0.0
H515 H 0.5212 0.36004 0.57386 0.0
H516 H 0.58905 0.38303 0.65961 0.0
H517 H 0.55632 0.44608 0.70079 0.0
H518 H 0.51157 0.43287 0.68923 0.0
H519 H 0.54374 0.37041 0.64749 0.0
C520 C 0.82063 0.4289 0.61955 0.0
C521 C 0.84079 0.44729 0.625 0.0
C522 C 0.84773 0.45681 0.58438 0.0
C523 C 0.854 0.46135 0.60757 0.0
C524 C 0.82685 0.43883 0.57935 0.0
C525 C 0.81343 0.42529 0.5967 0.0
U526 U 0.79984 0.39078 0.67713 0.0
O527 O 0.76019 0.37263 0.68315 0.0
O528 O 0.7944 0.34747 0.67502 0.0
C529 C 0.7692 0.34821 0.68076 0.0
C530 C 0.80822 0.41097 0.63644 0.0
C531 C 0.76117 0.32808 0.6978 0.0
C532 C 0.74018 0.2851 0.70528 0.0
C533 C 0.74491 0.30682 0.6908 0.0
C534 C 0.76648 0.30647 0.73464 0.0
C535 C 0.75172 0.28406 0.72719 0.0
C536 C 0.77151 0.32808 0.72002 0.0
C537 C 0.84262 0.42409 0.7266 0.0
C538 C 0.86447 0.42999 0.76318 0.0
C539 C 0.88747 0.44218 0.72844 0.0
C540 C 0.86493 0.43507 0.71564 0.0
C541 C 0.88783 0.43819 0.75214 0.0
C542 C 0.84194 0.4231 0.75044 0.0
C543 C 0.82324 0.40742 0.71442 0.0
O544 O 0.82309 0.3922 0.64556 0.0
O545 O 0.78959 0.41999 0.65004 0.0
O546 O 0.83308 0.38883 0.70124 0.0
O547 O 0.80092 0.41796 0.70679 0.0
H548 H 0.84667 0.45036 0.64257 0.0
H549 H 0.86942 0.47545 0.61236 0.0
H550 H 0.82147 0.4341 0.56196 0.0
H551 H 0.79804 0.41099 0.59214 0.0
H552 H 0.72773 0.26898 0.69907 0.0
H553 H 0.73657 0.30656 0.67374 0.0
H554 H 0.77481 0.30713 0.75156 0.0
H555 H 0.78405 0.34438 0.72583 0.0
H556 H 0.86455 0.4262 0.78137 0.0
H557 H 0.90552 0.44808 0.71966 0.0
H558 H 0.86586 0.43573 0.69723 0.0
H559 H 0.82498 0.41432 0.75911 0.0
C560 C 0.12387 0.05666 0.58234 0.0
C561 C 0.09631 0.06123 0.5826 0.0
C562 C 0.09843 0.08112 0.54439 0.0
C563 C 0.08375 0.07348 0.56388 0.0
C564 C 0.12601 0.07593 0.54429 0.0
C565 C 0.13851 0.06403 0.56307 0.0
U566 U 0.13203 0.02014 0.641 0.0
O567 O 0.16579 0.99389 0.65158 0.0
O568 O 0.15898 0.0327 0.66847 0.0
C569 C 0.17421 0.01158 0.66649 0.0
C570 C 0.13849 0.04578 0.60217 0.0
C571 C 0.1938 0.0054 0.68469 0.0
C572 C 0.24021 0.99776 0.69564 0.0
C573 C 0.22024 0.9994 0.67884 0.0
C574 C 0.20726 0.00669 0.7245 0.0
C575 C 0.23409 1.00218 0.71865 0.0
C576 C 0.18737 0.00843 0.70771 0.0
C577 C 0.06225 0.99524 0.66645 0.0
C578 C 0.04604 0.97369 0.70084 0.0
C579 C 0.01469 0.99072 0.67286 0.0
C580 C 0.03587 0.99897 0.65928 0.0
C581 C 0.01938 0.97825 0.69399 0.0
C582 C 0.06738 0.98226 0.6872 0.0
C583 C 0.08323 0.00643 0.65187 0.0
O584 O 0.13474 0.05774 0.62172 0.0
O585 O 0.13981 0.01969 0.60405 0.0
O586 O 0.09957 0.99021 0.64138 0.0
O587 O 0.09402 0.02938 0.65767 0.0
H588 H 0.08463 0.05584 0.5974 0.0
H589 H 0.06263 0.07747 0.56504 0.0
H590 H 0.13812 0.08078 0.52965 0.0
H591 H 0.15983 0.06072 0.56258 0.0
H592 H 0.26063 0.99448 0.69048 0.0
H593 H 0.22571 0.99723 0.66112 0.0
H594 H 0.20175 0.00977 0.74209 0.0
H595 H 0.16715 0.01306 0.71265 0.0
H596 H 0.05045 0.96383 0.71686 0.0
H597 H 0.99466 0.99521 0.66711 0.0
H598 H 0.03158 0.00905 0.64331 0.0
H599 H 0.08768 0.97916 0.69297 0.0
C600 C 0.82874 0.08983 0.70541 0.0
C601 C 0.82081 0.09107 0.72822 0.0
C602 C 0.84072 0.1356 0.73145 0.0
C603 C 0.82715 0.11368 0.74125 0.0
C604 C 0.84942 0.13358 0.70885 0.0
C605 C 0.84355 0.11093 0.69605 0.0
U606 U 0.79465 0.02471 0.67865 0.0
O607 O 0.7795 0.0279 0.6437 0.0
O608 O 0.81265 1.00079 0.6513 0.0
C609 C 0.79604 0.01006 0.6358 0.0
C610 C 0.8205 0.06833 0.68995 0.0
C611 C 0.78439 0.99115 0.61942 0.0
C612 C 0.77628 0.98076 0.57967 0.0
C613 C 0.78949 0.99559 0.59633 0.0
C614 C 0.75354 0.95558 0.60907 0.0
C615 C 0.75776 0.96075 0.58569 0.0
C616 C 0.76656 0.97083 0.62582 0.0
C617 C 0.75314 0.99407 0.72923 0.0
C618 C 0.7255 0.96638 0.75351 0.0
C619 C 0.73156 0.01331 0.76204 0.0
C620 C 0.74854 0.01601 0.74334 0.0
C621 C 0.71895 0.98869 0.76671 0.0
C622 C 0.74239 0.96911 0.73492 0.0
C623 C 0.76474 0.99703 0.70657 0.0
O624 O 0.83093 0.04442 0.69228 0.0
O625 O 0.79562 0.06819 0.68285 0.0
O626 O 0.79036 0.99244 0.70416 0.0
O627 O 0.75576 0.01688 0.69402 0.0
H628 H 0.80936 0.07494 0.73576 0.0
H629 H 0.82072 0.11436 0.75876 0.0
H630 H 0.86057 0.14965 0.70091 0.0
H631 H 0.84996 0.11023 0.67847 0.0
H632 H 0.77985 0.98598 0.56205 0.0
H633 H 0.80298 0.0114 0.5911 0.0
H634 H 0.73988 0.94005 0.61449 0.0
H635 H 0.76227 0.9672 0.64363 0.0
H636 H 0.71663 0.94704 0.75692 0.0
H637 H 0.7269 0.03093 0.7718 0.0
H638 H 0.75668 0.03546 0.73911 0.0
H639 H 0.74577 0.95199 0.72413 0.0
H640 H 0.61314 0.09356 0.28143 0.0
H641 H 0.52766 0.10246 0.2857 0.0
H642 H 0.52445 0.06002 0.30604 0.0
H643 H 0.54605 0.01903 0.32107 0.0
H644 H 0.63168 0.01277 0.3189 0.0
H645 H 0.63473 0.05599 0.29974 0.0
C646 C 0.59381 0.08686 0.28738 0.0
C647 C 0.57072 0.10135 0.28183 0.0
C648 C 0.59212 0.06278 0.29944 0.0
C649 C 0.54582 0.09159 0.28928 0.0
C650 C 0.54393 0.06733 0.30103 0.0
C651 C 0.56532 0.02746 0.31666 0.0
C652 C 0.58867 0.01304 0.32145 0.0
C653 C 0.56694 0.05253 0.3059 0.0
C654 C 0.61355 0.02384 0.31561 0.0
C655 C 0.61528 0.04842 0.30457 0.0
H656 H 0.56963 0.40887 0.21991 0.0
H657 H 0.5928 0.37725 0.15471 0.0
H658 H 0.58992 0.33195 0.17003 0.0
H659 H 0.58367 0.30143 0.20291 0.0
H660 H 0.55743 0.3338 0.26683 0.0
H661 H 0.55779 0.37866 0.25073 0.0
C662 C 0.57342 0.39219 0.20873 0.0
C663 C 0.58178 0.39671 0.18619 0.0
C664 C 0.57117 0.36623 0.21745 0.0
C665 C 0.58702 0.37455 0.1723 0.0
C666 C 0.58518 0.34858 0.18099 0.0
C667 C 0.57773 0.31834 0.21311 0.0
C668 C 0.57061 0.31443 0.23596 0.0
C669 C 0.57782 0.3442 0.20369 0.0
C670 C 0.56278 0.33637 0.2491 0.0
C671 C 0.56316 0.36203 0.23997 0.0
H672 H 0.98608 0.31308 0.27758 0.0
H673 H 0.07209 0.30771 0.27597 0.0
H674 H 0.07572 0.34938 0.29675 0.0
H675 H 0.05437 0.38891 0.31377 0.0
H676 H 0.96862 0.39141 0.31829 0.0
H677 H 0.96519 0.34864 0.29889 0.0
C678 C 0.00572 0.32031 0.28227 0.0
C679 C 0.0287 0.30718 0.27454 0.0
C680 C 0.00779 0.3439 0.29493 0.0
C681 C 0.05388 0.31762 0.28079 0.0
C682 C 0.05606 0.34146 0.29292 0.0
C683 C 0.03499 0.37988 0.3107 0.0
C684 C 0.01176 0.39332 0.31743 0.0
C685 C 0.03313 0.35507 0.29969 0.0
C686 C 0.98678 0.38135 0.3135 0.0
C687 C 0.98479 0.35698 0.30226 0.0
H688 H 0.98778 0.09478 0.24562 0.0
H689 H 0.07062 0.11281 0.23291 0.0
H690 H 0.07481 0.07154 0.21118 0.0
H691 H 0.05471 0.02937 0.19643 0.0
H692 H 0.97205 0.01237 0.21033 0.0
H693 H 0.96779 0.05465 0.23031 0.0
C694 C 0.00663 0.09021 0.23762 0.0
C695 C 0.02873 0.10713 0.24078 0.0
C696 C 0.00892 0.0665 0.22534 0.0
C697 C 0.05323 0.10015 0.23087 0.0
C698 C 0.05565 0.07654 0.21839 0.0
C699 C 0.03587 0.03507 0.2039 0.0
C700 C 0.01375 0.01781 0.20228 0.0
C701 C 0.03365 0.05938 0.21569 0.0
C702 C 0.98936 0.02528 0.21179 0.0
C703 C 0.9869 0.04945 0.2231 0.0
H704 H 0.67232 0.96135 0.76221 0.0
H705 H 0.71559 0.01266 0.80844 0.0
H706 H 0.67646 0.0152 0.83292 0.0
H707 H 0.62869 0.00655 0.83891 0.0
H708 H 0.58628 0.95399 0.79312 0.0
H709 H 0.62664 0.94798 0.77088 0.0
C710 C 0.67355 0.97253 0.77795 0.0
C711 C 0.69683 0.98704 0.78336 0.0
C712 C 0.65103 0.97393 0.79187 0.0
C713 C 0.69776 1.00173 0.80366 0.0
C714 C 0.67542 1.00312 0.81769 0.0
C715 C 0.62839 0.99331 0.82437 0.0
C716 C 0.60431 0.98115 0.81747 0.0
C717 C 0.65172 0.9899 0.81163 0.0
C718 C 0.60434 0.96416 0.79848 0.0
C719 C 0.62745 0.9606 0.7858 0.0
H720 H 0.5892 0.42867 0.72488 0.0
H721 H 0.62426 0.41608 0.65887 0.0
H722 H 0.66869 0.42352 0.67509 0.0
H723 H 0.69746 0.43119 0.70842 0.0
H724 H 0.66138 0.44137 0.77453 0.0
H725 H 0.61747 0.43942 0.75733 0.0
C726 C 0.60643 0.42813 0.71383 0.0
C727 C 0.60331 0.42169 0.69066 0.0
C728 C 0.6318 0.43247 0.7232 0.0
C729 C 0.62607 0.42053 0.67683 0.0
C730 C 0.65147 0.42499 0.68606 0.0
C731 C 0.68006 0.43293 0.71916 0.0
C732 C 0.68308 0.43615 0.7429 0.0
C733 C 0.65458 0.43051 0.70933 0.0
C734 C 0.66008 0.43927 0.75624 0.0
C735 C 0.63476 0.43772 0.74646 0.0
H736 H 0.99476 0.3976 0.79569 0.0
H737 H 0.99626 0.47673 0.82366 0.0
H738 H 0.95431 0.48742 0.80372 0.0
H739 H 0.91639 0.47322 0.77875 0.0
H740 H 0.91596 0.39349 0.75165 0.0
H741 H 0.95812 0.38383 0.77082 0.0
C742 C 0.98603 0.4173 0.79705 0.0
C743 C 0.99855 0.43658 0.81057 0.0
C744 C 0.962 0.42302 0.78584 0.0
C745 C 0.98698 0.46185 0.81285 0.0
C746 C 0.96299 0.46784 0.80162 0.0
C747 C 0.92579 0.4539 0.77705 0.0
C748 C 0.91352 0.43407 0.76376 0.0
C749 C 0.9502 0.4485 0.78813 0.0
C750 C 0.92543 0.40898 0.76171 0.0
C751 C 0.94944 0.40346 0.77264 0.0
H752 H 0.93143 0.97674 0.76964 0.0
H753 H 0.88157 0.95629 0.71202 0.0
H754 H 0.92083 0.95407 0.68784 0.0
H755 H 0.96892 0.96124 0.68252 0.0
H756 H 0.0181 0.98243 0.74041 0.0
H757 H 0.9796 0.97922 0.76518 0.0
C758 C 0.92904 0.97095 0.75199 0.0
C759 C 0.90338 0.96703 0.74273 0.0
C760 C 0.95169 0.96962 0.73816 0.0
C761 C 0.90095 0.96003 0.7196 0.0
C762 C 0.92344 0.95863 0.70574 0.0
C763 C 0.9713 0.96519 0.70055 0.0
C764 C 0.99653 0.97241 0.70942 0.0
C765 C 0.94885 0.96409 0.71472 0.0
C766 C 0.99916 0.9766 0.73299 0.0
C767 C 0.97702 0.97507 0.74721 0.0
H768 H 0.48507 0.12601 1.00399 0.0
H769 H 0.54809 0.06784 0.9999 0.0
H770 H 0.56929 0.08685 0.0336 0.0
H771 H 0.57046 0.12049 0.06421 0.0
H772 H 0.50767 0.17849 0.06824 0.0
H773 H 0.48536 0.1585 0.03515 0.0
C774 C 0.50323 0.11715 0.01057 0.0
C775 C 0.51492 0.09546 0.99913 0.0
C776 C 0.51524 0.12801 0.03019 0.0
C777 C 0.5388 0.08479 0.00791 0.0
C778 C 0.55086 0.09551 0.02738 0.0
C779 C 0.55171 0.12844 0.05793 0.0
C780 C 0.54046 0.15068 0.06864 0.0
C781 C 0.53934 0.11716 0.03863 0.0
C782 C 0.51647 0.16123 0.06026 0.0
C783 C 0.50382 0.14987 0.04132 0.0
H784 H 0.74352 0.43604 0.96626 0.0
H785 H 0.73754 0.50969 0.92824 0.0
H786 H 0.7147 0.53047 0.96025 0.0
H787 H 0.69576 0.52736 0.99887 0.0
H788 H 0.70463 0.45404 0.03721 0.0
H789 H 0.72681 0.43363 1.00512 0.0
C790 C 0.73761 0.45678 0.96499 0.0
C791 C 0.74234 0.47122 0.94475 0.0
C792 C 0.72472 0.46865 0.98349 0.0
C793 C 0.73391 0.49792 0.94342 0.0
C794 C 0.72095 0.50987 0.9618 0.0
C795 C 0.70277 0.50701 1.00041 0.0
C796 C 0.69804 0.49228 0.02061 0.0
C797 C 0.71614 0.49538 0.98192 0.0
C798 C 0.70715 0.4658 0.02186 0.0
C799 C 0.72017 0.45411 1.00353 0.0
H800 H 0.04203 0.28807 0.06025 0.0
H801 H 0.08723 0.21598 0.05101 0.0
H802 H 0.10769 0.23481 0.0169 0.0
H803 H 0.11168 0.27098 0.98896 0.0
H804 H 0.06701 0.34351 0.99809 0.0
H805 H 0.04713 0.32507 0.03263 0.0
C806 C 0.05663 0.27665 0.05093 0.0
C807 C 0.06306 0.25062 0.0582 0.0
C808 C 0.06817 0.28752 0.0311 0.0
C809 C 0.08173 0.23595 0.04571 0.0
C810 C 0.09347 0.24671 0.02619 0.0
C811 C 0.09787 0.28299 0.99859 0.0
C812 C 0.09094 0.30871 0.99073 0.0
C813 C 0.08667 0.27238 0.0186 0.0
C814 C 0.07249 0.32355 1.00337 0.0
C815 C 0.06125 0.3131 0.02331 0.0
H816 H 0.89103 0.96599 0.94616 0.0
H817 H 0.81446 0.93008 0.96015 0.0
H818 H 0.83196 0.91087 0.99541 0.0
H819 H 0.86884 0.90474 0.02274 0.0
H820 H 0.94524 0.94117 0.0092 0.0
H821 H 0.92805 0.95953 0.9734 0.0
C822 C 0.87827 0.95366 0.95676 0.0
C823 C 0.85143 0.94952 0.95041 0.0
C824 C 0.88841 0.94283 0.97723 0.0
C825 C 0.8351 0.93384 0.96465 0.0
C826 C 0.84512 0.92277 0.98483 0.0
C827 C 0.88177 0.91662 0.01192 0.0
C828 C 0.90831 0.92165 0.01875 0.0
C829 C 0.8717 0.92725 0.99138 0.0
C830 C 0.92465 0.93731 1.00457 0.0
C831 C 0.91488 0.94766 0.98399 0.0
H832 H 0.49525 0.26396 0.5164 0.0
H833 H 0.52754 0.34157 0.49935 0.0
H834 H 0.54493 0.32408 0.46396 0.0
H835 H 0.55316 0.28641 0.43858 0.0
H836 H 0.51801 0.20962 0.45393 0.0
H837 H 0.49948 0.22733 0.48894 0.0
C838 C 0.50569 0.27726 0.50485 0.0
C839 C 0.51046 0.30404 0.51106 0.0
C840 C 0.51533 0.2672 0.4841 0.0
C841 C 0.52423 0.32068 0.49565 0.0
C842 C 0.53402 0.31076 0.47517 0.0
C843 C 0.54101 0.27359 0.44926 0.0
C844 C 0.53746 0.24651 0.44356 0.0
C845 C 0.53003 0.28397 0.46934 0.0
C846 C 0.5218 0.23034 0.45799 0.0
C847 C 0.51099 0.2405 0.47804 0.0
H848 H 0.83147 0.47012 0.5408 0.0
H849 H 0.90086 0.47134 0.58483 0.0
H850 H 0.92774 0.48853 0.55371 0.0
H851 H 0.93273 0.5003 0.51297 0.0
H852 H 0.86427 0.49487 0.46849 0.0
H853 H 0.8363 0.4815 0.50053 0.0
C854 C 0.85252 0.47374 0.54373 0.0
C855 C 0.86381 0.46918 0.56549 0.0
C856 C 0.86831 0.48264 0.52543 0.0
C857 C 0.89113 0.47499 0.56864 0.0
C858 C 0.90676 0.48458 0.55067 0.0
C859 C 0.91164 0.49639 0.5104 0.0
C860 C 0.90059 0.49847 0.48837 0.0
C861 C 0.8957 0.48811 0.52889 0.0
C862 C 0.87328 0.49316 0.48524 0.0
C863 C 0.85726 0.48557 0.50357 0.0
H864 H 0.11971 0.11747 0.51382 0.0
H865 H 0.04688 0.07446 0.529 0.0
H866 H 0.02449 0.09699 0.49769 0.0
H867 H 0.0251 0.12884 0.46591 0.0
H868 H 0.09838 0.16891 0.44824 0.0
H869 H 0.12131 0.14665 0.48004 0.0
C870 C 0.09909 0.11247 0.51017 0.0
C871 C 0.08512 0.09432 0.52434 0.0
C872 C 0.08639 0.12482 0.49146 0.0
C873 C 0.05819 0.08882 0.51915 0.0
C874 C 0.04532 0.1015 0.50097 0.0
C875 C 0.04613 0.13263 0.46901 0.0
C876 C 0.06002 0.1506 0.45487 0.0
C877 C 0.05915 0.1196 0.4871 0.0
C878 C 0.08731 0.15507 0.45885 0.0
C879 C 0.10035 0.14246 0.47709 0.0
H880 H 0.67329 0.9108 0.51683 0.0
H881 H 0.7397 0.92037 0.47118 0.0
H882 H 0.76788 0.93566 0.50255 0.0
H883 H 0.77333 0.9478 0.54243 0.0
H884 H 0.70598 0.94222 0.58779 0.0
H885 H 0.67905 0.92289 0.5574 0.0
C886 C 0.694 0.916 0.51388 0.0
C887 C 0.70438 0.91462 0.4917 0.0
C888 C 0.71004 0.92533 0.53198 0.0
C889 C 0.7312 0.92156 0.48805 0.0
C890 C 0.74734 0.93024 0.50599 0.0
C891 C 0.75269 0.94271 0.54577 0.0
C892 C 0.7419 0.94678 0.56758 0.0
C893 C 0.73688 0.93258 0.52795 0.0
C894 C 0.71523 0.93907 0.57143 0.0
C895 C 0.69959 0.92824 0.55391 0.0
H896 H 0.83537 0.28759 0.28297 0.0
H897 H 0.85632 0.20821 0.26211 0.0
H898 H 0.81244 0.20177 0.24554 0.0
H899 H 0.7673 0.21704 0.23859 0.0
H900 H 0.74625 0.29795 0.25466 0.0
H901 H 0.79057 0.30524 0.27172 0.0
C902 C 0.8303 0.26881 0.27492 0.0
C903 C 0.84927 0.248 0.27437 0.0
C904 C 0.80474 0.2653 0.26493 0.0
C905 C 0.84227 0.22426 0.26323 0.0
C906 C 0.81701 0.22044 0.25387 0.0
C907 C 0.77231 0.23624 0.24599 0.0
C908 C 0.75331 0.25671 0.24584 0.0
C909 C 0.79794 0.24054 0.255 0.0
C910 C 0.76045 0.28174 0.25482 0.0
C911 C 0.78579 0.2859 0.26457 0.0
H912 H 0.60775 0.70959 0.30528 0.0
H913 H 0.59801 0.77643 0.25926 0.0
H914 H 0.59431 0.74591 0.22727 0.0
H915 H 0.59675 0.70051 0.21186 0.0
H916 H 0.61115 0.63429 0.25769 0.0
H917 H 0.60991 0.66435 0.28997 0.0
C918 C 0.60511 0.71769 0.28827 0.0
C919 C 0.60346 0.74557 0.28494 0.0
C920 C 0.60385 0.70004 0.26972 0.0
C921 C 0.59909 0.75522 0.26267 0.0
C922 C 0.59723 0.73772 0.24421 0.0
C923 C 0.59989 0.69251 0.22884 0.0
C924 C 0.60419 0.66486 0.23201 0.0
C925 C 0.60008 0.71012 0.24747 0.0
C926 C 0.60737 0.65519 0.25442 0.0
C927 C 0.60697 0.6725 0.27301 0.0
H928 H 0.82634 0.13504 0.21418 0.0
H929 H 0.86935 0.1633 0.27365 0.0
H930 H 0.82843 0.16406 0.29472 0.0
H931 H 0.77973 0.16325 0.29527 0.0
H932 H 0.73617 0.13518 0.23636 0.0
H933 H 0.77801 0.12973 0.21589 0.0
C934 C 0.82717 0.14202 0.23155 0.0
C935 C 0.85161 0.15067 0.24141 0.0
C936 C 0.80313 0.14312 0.24377 0.0
C937 C 0.85152 0.15693 0.26482 0.0
C938 C 0.82777 0.15767 0.27713 0.0
C939 C 0.77923 0.15534 0.27813 0.0
C940 C 0.75455 0.14992 0.26739 0.0
C941 C 0.80338 0.1518 0.26654 0.0
C942 C 0.75466 0.14016 0.24497 0.0
C943 C 0.77866 0.13677 0.2333 0.0
H944 H 0.97812 0.72141 0.21523 0.0
H945 H 0.03538 0.77094 0.25067 0.0
H946 H 0.03976 0.73695 0.28034 0.0
H947 H 0.0269 0.69311 0.29668 0.0
H948 H 0.97044 0.64371 0.26017 0.0
H949 H 0.96734 0.67713 0.23017 0.0
C950 C 0.99199 0.72477 0.22915 0.0
C951 C 0.00624 0.74911 0.23052 0.0
C952 C 0.99483 0.70489 0.24603 0.0
C953 C 0.02363 0.75286 0.24918 0.0
C954 C 0.02635 0.73324 0.26615 0.0
C955 C 0.01387 0.68961 0.28219 0.0
C956 C 0.999 0.6656 0.28087 0.0
C957 C 0.01188 0.70922 0.26488 0.0
C958 C 0.98255 0.66155 0.26167 0.0
C959 C 0.98051 0.68087 0.24451 0.0
H960 H 0.2789 0.97101 0.72573 0.0
H961 H 0.23822 0.04055 0.75079 0.0
H962 H 0.27273 0.04704 0.77946 0.0
H963 H 0.31459 0.03391 0.79722 0.0
H964 H 0.3556 0.96377 0.77397 0.0
H965 H 0.32135 0.95706 0.74461 0.0
C966 C 0.27763 0.98756 0.73748 0.0
C967 C 0.25565 0.00507 0.7362 0.0
C968 C 0.29776 0.99126 0.75419 0.0
C969 C 0.25445 0.02641 0.75161 0.0
C970 C 0.27435 0.03029 0.76796 0.0
C971 C 0.316 0.01687 0.786 0.0
C972 C 0.3378 0.99935 0.78803 0.0
C973 C 0.29604 0.01288 0.76945 0.0
C974 C 0.33934 0.97784 0.77276 0.0
C975 C 0.3196 0.97386 0.75602 0.0
H976 H 0.83672 0.18666 0.71539 0.0
H977 H 0.85392 0.1416 0.77653 0.0
H978 H 0.85784 0.18298 0.79807 0.0
H979 H 0.85361 0.23157 0.80001 0.0
H980 H 0.83952 0.27671 0.73819 0.0
H981 H 0.83694 0.23553 0.71663 0.0
C982 C 0.84179 0.1858 0.73335 0.0
C983 C 0.84481 0.16089 0.74432 0.0
C984 C 0.84424 0.20969 0.74562 0.0
C985 C 0.85098 0.16038 0.7677 0.0
C986 C 0.85338 0.18407 0.78002 0.0
C987 C 0.85063 0.23266 0.78174 0.0
C988 C 0.84642 0.25756 0.771 0.0
C989 C 0.84968 0.20883 0.76922 0.0
C990 C 0.84211 0.25805 0.74726 0.0
C991 C 0.84084 0.23443 0.73478 0.0
H992 H 0.24589 0.37302 0.75567 0.0
H993 H 0.2915 0.4183 0.80487 0.0
H994 H 0.32976 0.41824 0.77948 0.0
H995 H 0.35057 0.40558 0.74275 0.0
H996 H 0.30315 0.36248 0.69344 0.0
H997 H 0.26531 0.36261 0.71903 0.0
C998 C 0.26387 0.38345 0.76087 0.0
C999 C 0.26536 0.39554 0.78248 0.0
C1000 C 0.28571 0.38399 0.74594 0.0
C1001 C 0.28951 0.40823 0.7887 0.0
C1002 C 0.31151 0.40845 0.77404 0.0
C1003 C 0.33198 0.39615 0.73767 0.0
C1004 C 0.32985 0.38418 0.71602 0.0
C1005 C 0.30992 0.39629 0.75259 0.0
C1006 C 0.30542 0.37225 0.70975 0.0
C1007 C 0.28371 0.37213 0.72447 0.0
H1008 H 0.75327 0.19089 0.80053 0.0
H1009 H 0.74587 0.14299 0.73984 0.0
H1010 H 0.74453 0.18331 0.71654 0.0
H1011 H 0.74775 0.23189 0.71317 0.0
H1012 H 0.75096 0.27987 0.77413 0.0
H1013 H 0.75176 0.23963 0.79735 0.0
C1014 C 0.7508 0.18911 0.78225 0.0
C1015 C 0.74994 0.16365 0.77208 0.0
C1016 C 0.74958 0.21244 0.76888 0.0
C1017 C 0.74722 0.16211 0.74826 0.0
C1018 C 0.74625 0.18524 0.73486 0.0
C1019 C 0.74794 0.23383 0.73153 0.0
C1020 C 0.74957 0.25933 0.74162 0.0
C1021 C 0.74773 0.21051 0.74497 0.0
C1022 C 0.75042 0.26082 0.76557 0.0
C1023 C 0.75063 0.2377 0.779 0.0
loop_
_geom_bond_atom_site_label_1
_geom_bond_atom_site_label_2
_geom_bond_distance
_geom_bond_site_symmetry_2
_ccdc_geom_bond_type
C0 C1 1.264 . S
C0 C5 1.479 . S
C0 C10 1.465 . S
C1 C0 1.264 . S
C1 C3 1.339 . S
C1 H28 0.931 . S
C2 C3 1.395 . S
C2 C4 1.320 . S
C3 C1 1.339 . S
C3 C2 1.395 . S
C3 H29 0.929 . S
C4 C2 1.320 . S
C4 C5 1.405 . S
C4 H30 0.930 . S
C5 C0 1.479 . S
C5 C4 1.405 . S
C5 H31 0.931 . S
U6 O7 2.454 . S
U6 O8 2.458 . S
U6 C9 2.984 . S
U6 C10 2.847 . S
U6 C23 2.882 . S
U6 O24 2.441 . S
U6 O25 2.420 . S
U6 O26 2.455 . S
U6 O27 2.449 . S
O7 U6 2.454 . S
O7 C9 1.353 . S
O8 U6 2.458 . S
O8 C9 1.286 . S
C9 U6 2.984 . S
C9 O7 1.353 . S
C9 O8 1.286 . S
C9 C11 1.363 . S
C10 C0 1.465 . S
C10 U6 2.847 . S
C10 O24 1.249 . S
C10 O25 1.202 . S
C11 C9 1.363 . S
C11 C13 1.408 . S
C11 C16 1.342 . S
C12 C13 1.310 . S
C12 C15 1.461 . S
C12 H32 0.932 . S
C13 C11 1.408 . S
C13 C12 1.310 . S
C13 H33 0.930 . S
C14 C15 1.474 . S
C14 C16 1.285 . S
C14 H34 0.929 . S
C15 C12 1.461 . S
C15 C14 1.474 . S
C16 C11 1.342 . S
C16 C14 1.285 . S
C16 H35 0.930 . S
C17 C20 1.424 . S
C17 C22 1.245 . S
C17 C23 1.428 . S
C18 C21 1.260 . S
C18 C22 1.477 . S
C18 H36 0.932 . S
C19 C20 1.384 . S
C19 C21 1.479 . S
C19 H37 0.929 . S
C20 C17 1.424 . S
C20 C19 1.384 . S
C20 H38 0.928 . S
C21 C18 1.260 . S
C21 C19 1.479 . S
C22 C17 1.245 . S
C22 C18 1.477 . S
C22 H39 0.932 . S
C23 U6 2.882 . S
C23 C17 1.428 . S
C23 O26 1.301 . S
C23 O27 1.282 . S
O24 U6 2.441 . S
O24 C10 1.249 . S
O25 U6 2.420 . S
O25 C10 1.202 . S
O26 U6 2.455 . S
O26 C23 1.301 . S
O27 U6 2.449 . S
O27 C23 1.282 . S
H28 C1 0.931 . S
H29 C3 0.929 . S
H30 C4 0.930 . S
H31 C5 0.931 . S
H32 C12 0.932 . S
H33 C13 0.930 . S
H34 C14 0.929 . S
H35 C16 0.930 . S
H36 C18 0.932 . S
H37 C19 0.929 . S
H38 C20 0.928 . S
H39 C22 0.932 . S
C40 C41 1.264 . S
C40 C45 1.479 . S
C40 C50 1.465 . S
C41 C40 1.264 . S
C41 C43 1.339 . S
C41 H68 0.931 . S
C42 C43 1.395 . S
C42 C44 1.320 . S
C43 C41 1.339 . S
C43 C42 1.395 . S
C43 H69 0.929 . S
C44 C42 1.320 . S
C44 C45 1.405 . S
C44 H70 0.930 . S
C45 C40 1.479 . S
C45 C44 1.405 . S
C45 H71 0.931 . S
U46 O47 2.454 . S
U46 O48 2.458 . S
U46 C49 2.984 . S
U46 C50 2.847 . S
U46 C63 2.882 . S
U46 O64 2.441 . S
U46 O65 2.420 . S
U46 O66 2.455 . S
U46 O67 2.449 . S
O47 U46 2.454 . S
O47 C49 1.353 . S
O48 U46 2.458 . S
O48 C49 1.286 . S
C49 U46 2.984 . S
C49 O47 1.353 . S
C49 O48 1.286 . S
C49 C51 1.363 . S
C50 C40 1.465 . S
C50 U46 2.847 . S
C50 O64 1.249 . S
C50 O65 1.202 . S
C51 C49 1.363 . S
C51 C53 1.408 . S
C51 C56 1.342 . S
C52 C53 1.310 . S
C52 C55 1.461 . S
C52 H72 0.932 . S
C53 C51 1.408 . S
C53 C52 1.310 . S
C53 H73 0.930 . S
C54 C55 1.474 . S
C54 C56 1.285 . S
C54 H74 0.929 . S
C55 C52 1.461 . S
C55 C54 1.474 . S
C56 C51 1.342 . S
C56 C54 1.285 . S
C56 H75 0.930 . S
C57 C60 1.424 . S
C57 C62 1.245 . S
C57 C63 1.428 . S
C58 C61 1.260 . S
C58 C62 1.477 . S
C58 H76 0.932 . S
C59 C60 1.384 . S
C59 C61 1.479 . S
C59 H77 0.929 . S
C60 C57 1.424 . S
C60 C59 1.384 . S
C60 H78 0.928 . S
C61 C58 1.260 . S
C61 C59 1.479 . S
C62 C57 1.245 . S
C62 C58 1.477 . S
C62 H79 0.932 . S
C63 U46 2.882 . S
C63 C57 1.428 . S
C63 O66 1.301 . S
C63 O67 1.282 . S
O64 U46 2.441 . S
O64 C50 1.249 . S
O65 U46 2.420 . S
O65 C50 1.202 . S
O66 U46 2.455 . S
O66 C63 1.301 . S
O67 U46 2.449 . S
O67 C63 1.282 . S
H68 C41 0.931 . S
H69 C43 0.929 . S
H70 C44 0.930 . S
H71 C45 0.931 . S
H72 C52 0.932 . S
H73 C53 0.930 . S
H74 C54 0.929 . S
H75 C56 0.930 . S
H76 C58 0.932 . S
H77 C59 0.929 . S
H78 C60 0.928 . S
H79 C62 0.932 . S
C80 C81 1.264 . S
C80 C85 1.479 . S
C80 C90 1.465 . S
C81 C80 1.264 . S
C81 C83 1.339 . S
C81 H108 0.931 . S
C82 C83 1.395 . S
C82 C84 1.320 . S
C83 C81 1.339 . S
C83 C82 1.395 . S
C83 H109 0.929 . S
C84 C82 1.320 . S
C84 C85 1.405 . S
C84 H110 0.930 . S
C85 C80 1.479 . S
C85 C84 1.405 . S
C85 H111 0.931 . S
U86 O87 2.454 . S
U86 O88 2.458 . S
U86 C89 2.984 . S
U86 C90 2.847 1_455 S
U86 C103 2.882 . S
U86 O104 2.441 1_455 S
U86 O105 2.420 1_455 S
U86 O106 2.455 . S
U86 O107 2.449 . S
O87 U86 2.454 . S
O87 C89 1.353 . S
O88 U86 2.458 . S
O88 C89 1.286 . S
C89 U86 2.984 . S
C89 O87 1.353 . S
C89 O88 1.286 . S
C89 C91 1.363 . S
C90 C80 1.465 . S
C90 U86 2.847 1_655 S
C90 O104 1.249 . S
C90 O105 1.202 . S
C91 C89 1.363 . S
C91 C93 1.408 . S
C91 C96 1.342 . S
C92 C93 1.310 . S
C92 C95 1.461 . S
C92 H112 0.932 . S
C93 C91 1.408 . S
C93 C92 1.310 . S
C93 H113 0.930 . S
C94 C95 1.474 . S
C94 C96 1.285 . S
C94 H114 0.929 . S
C95 C92 1.461 . S
C95 C94 1.474 . S
C96 C91 1.342 . S
C96 C94 1.285 . S
C96 H115 0.930 . S
C97 C100 1.424 . S
C97 C102 1.245 . S
C97 C103 1.428 . S
C98 C101 1.260 . S
C98 C102 1.477 . S
C98 H116 0.932 . S
C99 C100 1.384 . S
C99 C101 1.479 . S
C99 H117 0.929 . S
C100 C97 1.424 . S
C100 C99 1.384 . S
C100 H118 0.928 . S
C101 C98 1.260 . S
C101 C99 1.479 . S
C102 C97 1.245 . S
C102 C98 1.477 . S
C102 H119 0.932 . S
C103 U86 2.882 . S
C103 C97 1.428 . S
C103 O106 1.301 . S
C103 O107 1.282 . S
O104 U86 2.441 1_655 S
O104 C90 1.249 . S
O105 U86 2.420 1_655 S
O105 C90 1.202 . S
O106 U86 2.455 . S
O106 C103 1.301 . S
O107 U86 2.449 . S
O107 C103 1.282 . S
H108 C81 0.931 . S
H109 C83 0.929 . S
H110 C84 0.930 . S
H111 C85 0.931 . S
H112 C92 0.932 . S
H113 C93 0.930 . S
H114 C94 0.929 . S
H115 C96 0.930 . S
H116 C98 0.932 . S
H117 C99 0.929 . S
H118 C100 0.928 . S
H119 C102 0.932 . S
C120 C121 1.264 . S
C120 C125 1.479 . S
C120 C130 1.465 . S
C121 C120 1.264 . S
C121 C123 1.339 . S
C121 H148 0.931 . S
C122 C123 1.395 . S
C122 C124 1.320 . S
C123 C121 1.339 . S
C123 C122 1.395 . S
C123 H149 0.929 . S
C124 C122 1.320 . S
C124 C125 1.405 . S
C124 H150 0.930 . S
C125 C120 1.479 . S
C125 C124 1.405 . S
C125 H151 0.931 . S
U126 O127 2.454 . S
U126 O128 2.458 1_655 S
U126 C129 2.985 1_655 S
U126 C130 2.847 . S
U126 C143 2.882 . S
U126 O144 2.441 . S
U126 O145 2.420 . S
U126 O146 2.455 . S
U126 O147 2.449 . S
O127 U126 2.454 . S
O127 C129 1.354 1_655 S
O128 U126 2.458 1_455 S
O128 C129 1.285 . S
C129 U126 2.985 1_455 S
C129 O127 1.354 1_455 S
C129 O128 1.285 . S
C129 C131 1.362 . S
C130 C120 1.465 . S
C130 U126 2.847 . S
C130 O144 1.249 . S
C130 O145 1.202 . S
C131 C129 1.362 . S
C131 C133 1.408 . S
C131 C136 1.342 . S
C132 C133 1.310 . S
C132 C135 1.461 . S
C132 H152 0.932 . S
C133 C131 1.408 . S
C133 C132 1.310 . S
C133 H153 0.930 1_455 S
C134 C135 1.474 . S
C134 C136 1.285 . S
C134 H154 0.929 . S
C135 C132 1.461 . S
C135 C134 1.474 . S
C136 C131 1.342 . S
C136 C134 1.285 . S
C136 H155 0.930 . S
C137 C140 1.424 . S
C137 C142 1.245 . S
C137 C143 1.428 1_455 S
C138 C141 1.260 1_565 S
C138 C142 1.477 . S
C138 H156 0.932 . S
C139 C140 1.384 1_545 S
C139 C141 1.479 . S
C139 H157 0.929 . S
C140 C137 1.424 . S
C140 C139 1.384 1_565 S
C140 H158 0.926 1_455 S
C141 C138 1.260 1_545 S
C141 C139 1.479 . S
C142 C137 1.245 . S
C142 C138 1.477 . S
C142 H159 0.932 . S
C143 U126 2.882 . S
C143 C137 1.428 1_655 S
C143 O146 1.301 . S
C143 O147 1.282 . S
O144 U126 2.441 . S
O144 C130 1.249 . S
O145 U126 2.420 . S
O145 C130 1.202 . S
O146 U126 2.455 . S
O146 C143 1.301 . S
O147 U126 2.449 . S
O147 C143 1.282 . S
H148 C121 0.931 . S
H149 C123 0.929 . S
H150 C124 0.930 . S
H151 C125 0.931 . S
H152 C132 0.932 . S
H153 C133 0.930 1_655 S
H154 C134 0.929 . S
H155 C136 0.930 . S
H156 C138 0.932 . S
H157 C139 0.929 . S
H158 C140 0.926 1_655 S
H159 C142 0.932 . S
C160 C161 1.264 . S
C160 C165 1.479 . S
C160 C170 1.465 . S
C161 C160 1.264 . S
C161 C163 1.339 . S
C161 H188 0.931 . S
C162 C163 1.395 . S
C162 C164 1.320 . S
C163 C161 1.339 . S
C163 C162 1.395 . S
C163 H189 0.929 . S
C164 C162 1.320 . S
C164 C165 1.405 . S
C164 H190 0.930 . S
C165 C160 1.479 . S
C165 C164 1.405 . S
C165 H191 0.931 . S
U166 O167 2.454 . S
U166 O168 2.458 . S
U166 C169 2.984 . S
U166 C170 2.847 . S
U166 C183 2.882 . S
U166 O184 2.441 . S
U166 O185 2.420 . S
U166 O186 2.455 . S
U166 O187 2.449 . S
O167 U166 2.454 . S
O167 C169 1.353 . S
O168 U166 2.458 . S
O168 C169 1.286 . S
C169 U166 2.984 . S
C169 O167 1.353 . S
C169 O168 1.286 . S
C169 C171 1.363 . S
C170 C160 1.465 . S
C170 U166 2.847 . S
C170 O184 1.249 . S
C170 O185 1.202 . S
C171 C169 1.363 . S
C171 C173 1.408 . S
C171 C176 1.342 . S
C172 C173 1.310 . S
C172 C175 1.461 . S
C172 H192 0.932 . S
C173 C171 1.408 . S
C173 C172 1.310 . S
C173 H193 0.930 . S
C174 C175 1.474 . S
C174 C176 1.285 . S
C174 H194 0.929 . S
C175 C172 1.461 . S
C175 C174 1.474 . S
C176 C171 1.342 . S
C176 C174 1.285 . S
C176 H195 0.930 . S
C177 C180 1.424 . S
C177 C182 1.245 . S
C177 C183 1.428 . S
C178 C181 1.260 . S
C178 C182 1.477 . S
C178 H196 0.932 . S
C179 C180 1.384 . S
C179 C181 1.479 . S
C179 H197 0.929 . S
C180 C177 1.424 . S
C180 C179 1.384 . S
C180 H198 0.928 . S
C181 C178 1.260 . S
C181 C179 1.479 . S
C182 C177 1.245 . S
C182 C178 1.477 . S
C182 H199 0.932 . S
C183 U166 2.882 . S
C183 C177 1.428 . S
C183 O186 1.301 . S
C183 O187 1.282 . S
O184 U166 2.441 . S
O184 C170 1.249 . S
O185 U166 2.420 . S
O185 C170 1.202 . S
O186 U166 2.455 . S
O186 C183 1.301 . S
O187 U166 2.449 . S
O187 C183 1.282 . S
H188 C161 0.931 . S
H189 C163 0.929 . S
H190 C164 0.930 . S
H191 C165 0.931 . S
H192 C172 0.932 . S
H193 C173 0.930 . S
H194 C174 0.929 . S
H195 C176 0.930 . S
H196 C178 0.932 . S
H197 C179 0.929 . S
H198 C180 0.928 . S
H199 C182 0.932 . S
C200 C201 1.264 . S
C200 C205 1.479 . S
C200 C210 1.465 . S
C201 C200 1.264 . S
C201 C203 1.339 . S
C201 H228 0.931 . S
C202 C203 1.395 . S
C202 C204 1.320 . S
C203 C201 1.339 . S
C203 C202 1.395 . S
C203 H229 0.929 . S
C204 C202 1.320 . S
C204 C205 1.405 . S
C204 H230 0.930 . S
C205 C200 1.479 . S
C205 C204 1.405 . S
C205 H231 0.931 . S
U206 O207 2.454 . S
U206 O208 2.458 1_655 S
U206 C209 2.983 . S
U206 C210 2.847 . S
U206 C223 2.882 . S
U206 O224 2.441 . S
U206 O225 2.420 . S
U206 O226 2.455 . S
U206 O227 2.449 . S
O207 U206 2.454 . S
O207 C209 1.352 . S
O208 U206 2.458 1_455 S
O208 C209 1.286 1_455 S
C209 U206 2.983 . S
C209 O207 1.352 . S
C209 O208 1.286 1_655 S
C209 C211 1.364 1_655 S
C210 C200 1.465 . S
C210 U206 2.847 . S
C210 O224 1.249 . S
C210 O225 1.202 . S
C211 C209 1.364 1_455 S
C211 C213 1.408 . S
C211 C216 1.342 . S
C212 C213 1.310 . S
C212 C215 1.461 . S
C212 H232 0.932 . S
C213 C211 1.408 . S
C213 C212 1.310 . S
C213 H233 0.930 1_455 S
C214 C215 1.474 . S
C214 C216 1.285 . S
C214 H234 0.929 . S
C215 C212 1.461 . S
C215 C214 1.474 . S
C216 C211 1.342 . S
C216 C214 1.285 . S
C216 H235 0.930 . S
C217 C220 1.424 . S
C217 C222 1.245 . S
C217 C223 1.428 1_455 S
C218 C221 1.260 . S
C218 C222 1.477 . S
C218 H236 0.932 . S
C219 C220 1.384 . S
C219 C221 1.479 . S
C219 H237 0.929 . S
C220 C217 1.424 . S
C220 C219 1.384 . S
C220 H238 0.923 1_455 S
C221 C218 1.260 . S
C221 C219 1.479 . S
C222 C217 1.245 . S
C222 C218 1.477 . S
C222 H239 0.932 . S
C223 U206 2.882 . S
C223 C217 1.428 1_655 S
C223 O226 1.301 . S
C223 O227 1.282 . S
O224 U206 2.441 . S
O224 C210 1.249 . S
O225 U206 2.420 . S
O225 C210 1.202 . S
O226 U206 2.455 . S
O226 C223 1.301 . S
O227 U206 2.449 . S
O227 C223 1.282 . S
H228 C201 0.931 . S
H229 C203 0.929 . S
H230 C204 0.930 . S
H231 C205 0.931 . S
H232 C212 0.932 . S
H233 C213 0.930 1_655 S
H234 C214 0.929 . S
H235 C216 0.930 . S
H236 C218 0.932 . S
H237 C219 0.929 . S
H238 C220 0.923 1_655 S
H239 C222 0.932 . S
C240 C241 1.264 . S
C240 C245 1.479 . S
C240 C250 1.465 . S
C241 C240 1.264 . S
C241 C243 1.339 . S
C241 H268 0.931 . S
C242 C243 1.395 . S
C242 C244 1.320 . S
C243 C241 1.339 . S
C243 C242 1.395 . S
C243 H269 0.929 . S
C244 C242 1.320 . S
C244 C245 1.405 . S
C244 H270 0.930 . S
C245 C240 1.479 . S
C245 C244 1.405 . S
C245 H271 0.931 . S
U246 O247 2.454 . S
U246 O248 2.458 . S
U246 C249 2.984 . S
U246 C250 2.847 1_455 S
U246 C263 2.882 . S
U246 O264 2.441 1_455 S
U246 O265 2.420 1_455 S
U246 O266 2.455 . S
U246 O267 2.449 . S
O247 U246 2.454 . S
O247 C249 1.353 . S
O248 U246 2.458 . S
O248 C249 1.286 . S
C249 U246 2.984 . S
C249 O247 1.353 . S
C249 O248 1.286 . S
C249 C251 1.363 . S
C250 C240 1.465 . S
C250 U246 2.847 1_655 S
C250 O264 1.249 . S
C250 O265 1.202 . S
C251 C249 1.363 . S
C251 C253 1.408 . S
C251 C256 1.342 . S
C252 C253 1.310 . S
C252 C255 1.461 . S
C252 H272 0.932 . S
C253 C251 1.408 . S
C253 C252 1.310 . S
C253 H273 0.930 . S
C254 C255 1.474 . S
C254 C256 1.285 . S
C254 H274 0.929 . S
C255 C252 1.461 . S
C255 C254 1.474 . S
C256 C251 1.342 . S
C256 C254 1.285 . S
C256 H275 0.930 . S
C257 C260 1.424 . S
C257 C262 1.245 . S
C257 C263 1.428 . S
C258 C261 1.260 . S
C258 C262 1.477 . S
C258 H276 0.932 . S
C259 C260 1.384 . S
C259 C261 1.479 . S
C259 H277 0.929 . S
C260 C257 1.424 . S
C260 C259 1.384 . S
C260 H278 0.928 . S
C261 C258 1.260 . S
C261 C259 1.479 . S
C262 C257 1.245 . S
C262 C258 1.477 . S
C262 H279 0.932 . S
C263 U246 2.882 . S
C263 C257 1.428 . S
C263 O266 1.301 . S
C263 O267 1.282 . S
O264 U246 2.441 1_655 S
O264 C250 1.249 . S
O265 U246 2.420 1_655 S
O265 C250 1.202 . S
O266 U246 2.455 . S
O266 C263 1.301 . S
O267 U246 2.449 . S
O267 C263 1.282 . S
H268 C241 0.931 . S
H269 C243 0.929 . S
H270 C244 0.930 . S
H271 C245 0.931 . S
H272 C252 0.932 . S
H273 C253 0.930 . S
H274 C254 0.929 . S
H275 C256 0.930 . S
H276 C258 0.932 . S
H277 C259 0.929 . S
H278 C260 0.928 . S
H279 C262 0.932 . S
C280 C281 1.264 . S
C280 C285 1.479 . S
C280 C290 1.465 . S
C281 C280 1.264 . S
C281 C283 1.339 . S
C281 H308 0.931 . S
C282 C283 1.395 . S
C282 C284 1.320 . S
C283 C281 1.339 . S
C283 C282 1.395 . S
C283 H309 0.929 . S
C284 C282 1.320 . S
C284 C285 1.405 . S
C284 H310 0.930 . S
C285 C280 1.479 . S
C285 C284 1.405 . S
C285 H311 0.931 . S
U286 O287 2.454 . S
U286 O288 2.458 . S
U286 C289 2.984 . S
U286 C290 2.847 . S
U286 C303 2.882 . S
U286 O304 2.441 . S
U286 O305 2.420 . S
U286 O306 2.455 . S
U286 O307 2.449 . S
O287 U286 2.454 . S
O287 C289 1.353 . S
O288 U286 2.458 . S
O288 C289 1.286 . S
C289 U286 2.984 . S
C289 O287 1.353 . S
C289 O288 1.286 . S
C289 C291 1.363 . S
C290 C280 1.465 . S
C290 U286 2.847 . S
C290 O304 1.249 . S
C290 O305 1.202 . S
C291 C289 1.363 . S
C291 C293 1.408 . S
C291 C296 1.342 . S
C292 C293 1.310 . S
C292 C295 1.461 . S
C292 H312 0.932 . S
C293 C291 1.408 . S
C293 C292 1.310 . S
C293 H313 0.930 . S
C294 C295 1.474 . S
C294 C296 1.285 . S
C294 H314 0.929 . S
C295 C292 1.461 . S
C295 C294 1.474 . S
C296 C291 1.342 . S
C296 C294 1.285 . S
C296 H315 0.930 . S
C297 C300 1.424 . S
C297 C302 1.245 . S
C297 C303 1.428 . S
C298 C301 1.260 . S
C298 C302 1.477 . S
C298 H316 0.932 . S
C299 C300 1.384 . S
C299 C301 1.479 . S
C299 H317 0.929 1_565 S
C300 C297 1.424 . S
C300 C299 1.384 . S
C300 H318 0.928 . S
C301 C298 1.260 . S
C301 C299 1.479 . S
C302 C297 1.245 . S
C302 C298 1.477 . S
C302 H319 0.932 . S
C303 U286 2.882 . S
C303 C297 1.428 . S
C303 O306 1.301 . S
C303 O307 1.282 . S
O304 U286 2.441 . S
O304 C290 1.249 . S
O305 U286 2.420 . S
O305 C290 1.202 . S
O306 U286 2.455 . S
O306 C303 1.301 . S
O307 U286 2.449 . S
O307 C303 1.282 . S
H308 C281 0.931 . S
H309 C283 0.929 . S
H310 C284 0.930 . S
H311 C285 0.931 . S
H312 C292 0.932 . S
H313 C293 0.930 . S
H314 C294 0.929 . S
H315 C296 0.930 . S
H316 C298 0.932 . S
H317 C299 0.929 1_545 S
H318 C300 0.928 . S
H319 C302 0.932 . S
C320 C321 1.264 1_545 S
C320 C325 1.479 . S
C320 C330 1.465 . S
C321 C320 1.264 1_565 S
C321 C323 1.339 . S
C321 H348 0.931 . S
C322 C323 1.395 . S
C322 C324 1.320 . S
C323 C321 1.339 . S
C323 C322 1.395 . S
C323 H349 0.929 . S
C324 C322 1.320 . S
C324 C325 1.405 1_565 S
C324 H350 0.930 . S
C325 C320 1.479 . S
C325 C324 1.405 1_545 S
C325 H351 0.931 . S
U326 O327 2.454 . S
U326 O328 2.458 . S
U326 C329 2.984 . S
U326 C330 2.847 . S
U326 C343 2.882 . S
U326 O344 2.441 . S
U326 O345 2.420 . S
U326 O346 2.455 . S
U326 O347 2.449 . S
O327 U326 2.454 . S
O327 C329 1.353 . S
O328 U326 2.458 . S
O328 C329 1.286 . S
C329 U326 2.984 . S
C329 O327 1.353 . S
C329 O328 1.286 . S
C329 C331 1.363 . S
C330 C320 1.465 . S
C330 U326 2.847 . S
C330 O344 1.249 . S
C330 O345 1.202 . S
C331 C329 1.363 . S
C331 C333 1.408 . S
C331 C336 1.342 . S
C332 C333 1.310 . S
C332 C335 1.461 . S
C332 H352 0.932 . S
C333 C331 1.408 . S
C333 C332 1.310 . S
C333 H353 0.930 . S
C334 C335 1.474 . S
C334 C336 1.285 . S
C334 H354 0.929 . S
C335 C332 1.461 . S
C335 C334 1.474 . S
C336 C331 1.342 . S
C336 C334 1.285 . S
C336 H355 0.930 . S
C337 C340 1.424 . S
C337 C342 1.245 . S
C337 C343 1.428 1_565 S
C338 C341 1.260 . S
C338 C342 1.477 . S
C338 H356 0.932 . S
C339 C340 1.384 . S
C339 C341 1.479 . S
C339 H357 0.929 . S
C340 C337 1.424 . S
C340 C339 1.384 . S
C340 H358 0.928 . S
C341 C338 1.260 . S
C341 C339 1.479 . S
C342 C337 1.245 . S
C342 C338 1.477 . S
C342 H359 0.932 1_565 S
C343 U326 2.882 . S
C343 C337 1.428 1_545 S
C343 O346 1.301 . S
C343 O347 1.282 . S
O344 U326 2.441 . S
O344 C330 1.249 . S
O345 U326 2.420 . S
O345 C330 1.202 . S
O346 U326 2.455 . S
O346 C343 1.301 . S
O347 U326 2.449 . S
O347 C343 1.282 . S
H348 C321 0.931 . S
H349 C323 0.929 . S
H350 C324 0.930 . S
H351 C325 0.931 . S
H352 C332 0.932 . S
H353 C333 0.930 . S
H354 C334 0.929 . S
H355 C336 0.930 . S
H356 C338 0.932 . S
H357 C339 0.929 . S
H358 C340 0.928 . S
H359 C342 0.932 1_545 S
C360 C361 1.264 . S
C360 C365 1.479 . S
C360 C370 1.465 . S
C361 C360 1.264 . S
C361 C363 1.339 . S
C361 H388 0.931 . S
C362 C363 1.395 . S
C362 C364 1.320 . S
C363 C361 1.339 . S
C363 C362 1.395 . S
C363 H389 0.929 . S
C364 C362 1.320 . S
C364 C365 1.405 . S
C364 H390 0.930 . S
C365 C360 1.479 . S
C365 C364 1.405 . S
C365 H391 0.931 . S
U366 O367 2.454 . S
U366 O368 2.458 . S
U366 C369 2.984 . S
U366 C370 2.847 . S
U366 C383 2.882 . S
U366 O384 2.441 . S
U366 O385 2.420 . S
U366 O386 2.455 . S
U366 O387 2.449 . S
O367 U366 2.454 . S
O367 C369 1.353 . S
O368 U366 2.458 . S
O368 C369 1.286 . S
C369 U366 2.984 . S
C369 O367 1.353 . S
C369 O368 1.286 . S
C369 C371 1.363 . S
C370 C360 1.465 . S
C370 U366 2.847 . S
C370 O384 1.249 . S
C370 O385 1.202 . S
C371 C369 1.363 . S
C371 C373 1.408 . S
C371 C376 1.342 . S
C372 C373 1.310 . S
C372 C375 1.461 . S
C372 H392 0.932 . S
C373 C371 1.408 . S
C373 C372 1.310 . S
C373 H393 0.930 . S
C374 C375 1.474 . S
C374 C376 1.285 . S
C374 H394 0.929 . S
C375 C372 1.461 . S
C375 C374 1.474 . S
C376 C371 1.342 . S
C376 C374 1.285 . S
C376 H395 0.930 . S
C377 C380 1.424 . S
C377 C382 1.245 . S
C377 C383 1.428 . S
C378 C381 1.260 . S
C378 C382 1.477 . S
C378 H396 0.932 . S
C379 C380 1.384 . S
C379 C381 1.479 . S
C379 H397 0.929 . S
C380 C377 1.424 . S
C380 C379 1.384 . S
C380 H398 0.928 . S
C381 C378 1.260 . S
C381 C379 1.479 . S
C382 C377 1.245 . S
C382 C378 1.477 . S
C382 H399 0.932 . S
C383 U366 2.882 . S
C383 C377 1.428 . S
C383 O386 1.301 . S
C383 O387 1.282 . S
O384 U366 2.441 . S
O384 C370 1.249 . S
O385 U366 2.420 . S
O385 C370 1.202 . S
O386 U366 2.455 . S
O386 C383 1.301 . S
O387 U366 2.449 . S
O387 C383 1.282 . S
H388 C361 0.931 . S
H389 C363 0.929 . S
H390 C364 0.930 . S
H391 C365 0.931 . S
H392 C372 0.932 . S
H393 C373 0.930 . S
H394 C374 0.929 . S
H395 C376 0.930 . S
H396 C378 0.932 . S
H397 C379 0.929 . S
H398 C380 0.928 . S
H399 C382 0.932 . S
C400 C401 1.264 . S
C400 C405 1.479 . S
C400 C410 1.465 . S
C401 C400 1.264 . S
C401 C403 1.339 . S
C401 H428 0.931 . S
C402 C403 1.395 . S
C402 C404 1.320 . S
C403 C401 1.339 . S
C403 C402 1.395 . S
C403 H429 0.929 . S
C404 C402 1.320 . S
C404 C405 1.405 . S
C404 H430 0.930 . S
C405 C400 1.479 . S
C405 C404 1.405 . S
C405 H431 0.931 . S
U406 O407 2.454 . S
U406 O408 2.458 . S
U406 C409 2.984 . S
U406 C410 2.847 . S
U406 C423 2.882 . S
U406 O424 2.441 . S
U406 O425 2.420 . S
U406 O426 2.455 . S
U406 O427 2.449 . S
O407 U406 2.454 . S
O407 C409 1.353 . S
O408 U406 2.458 . S
O408 C409 1.286 . S
C409 U406 2.984 . S
C409 O407 1.353 . S
C409 O408 1.286 . S
C409 C411 1.363 . S
C410 C400 1.465 . S
C410 U406 2.847 . S
C410 O424 1.249 . S
C410 O425 1.202 . S
C411 C409 1.363 . S
C411 C413 1.408 . S
C411 C416 1.342 . S
C412 C413 1.310 . S
C412 C415 1.461 . S
C412 H432 0.932 . S
C413 C411 1.408 . S
C413 C412 1.310 . S
C413 H433 0.930 . S
C414 C415 1.474 . S
C414 C416 1.285 . S
C414 H434 0.929 . S
C415 C412 1.461 . S
C415 C414 1.474 . S
C416 C411 1.342 . S
C416 C414 1.285 . S
C416 H435 0.930 . S
C417 C420 1.424 . S
C417 C422 1.245 . S
C417 C423 1.428 . S
C418 C421 1.260 . S
C418 C422 1.477 . S
C418 H436 0.932 . S
C419 C420 1.384 . S
C419 C421 1.479 . S
C419 H437 0.929 1_455 S
C420 C417 1.424 . S
C420 C419 1.384 . S
C420 H438 0.928 . S
C421 C418 1.260 . S
C421 C419 1.479 . S
C422 C417 1.245 . S
C422 C418 1.477 . S
C422 H439 0.932 . S
C423 U406 2.882 . S
C423 C417 1.428 . S
C423 O426 1.301 . S
C423 O427 1.282 . S
O424 U406 2.441 . S
O424 C410 1.249 . S
O425 U406 2.420 . S
O425 C410 1.202 . S
O426 U406 2.455 . S
O426 C423 1.301 . S
O427 U406 2.449 . S
O427 C423 1.282 . S
H428 C401 0.931 . S
H429 C403 0.929 . S
H430 C404 0.930 . S
H431 C405 0.931 . S
H432 C412 0.932 . S
H433 C413 0.930 . S
H434 C414 0.929 . S
H435 C416 0.930 . S
H436 C418 0.932 . S
H437 C419 0.929 1_655 S
H438 C420 0.928 . S
H439 C422 0.932 . S
C440 C441 1.264 . S
C440 C445 1.479 . S
C440 C450 1.465 . S
C441 C440 1.264 . S
C441 C443 1.339 . S
C441 H468 0.931 . S
C442 C443 1.395 . S
C442 C444 1.320 . S
C443 C441 1.339 . S
C443 C442 1.395 . S
C443 H469 0.929 . S
C444 C442 1.320 . S
C444 C445 1.405 . S
C444 H470 0.930 . S
C445 C440 1.479 . S
C445 C444 1.405 . S
C445 H471 0.931 . S
U446 O447 2.454 1_565 S
U446 O448 2.458 1_565 S
U446 C449 2.984 1_565 S
U446 C450 2.847 . S
U446 C463 2.882 . S
U446 O464 2.441 . S
U446 O465 2.420 . S
U446 O466 2.455 . S
U446 O467 2.449 . S
O447 U446 2.454 1_545 S
O447 C449 1.353 . S
O448 U446 2.458 1_545 S
O448 C449 1.286 . S
C449 U446 2.984 1_545 S
C449 O447 1.353 . S
C449 O448 1.286 . S
C449 C451 1.363 . S
C450 C440 1.465 . S
C450 U446 2.847 . S
C450 O464 1.249 . S
C450 O465 1.202 . S
C451 C449 1.363 . S
C451 C453 1.408 . S
C451 C456 1.342 . S
C452 C453 1.310 . S
C452 C455 1.461 . S
C452 H472 0.932 . S
C453 C451 1.408 . S
C453 C452 1.310 . S
C453 H473 0.930 . S
C454 C455 1.474 . S
C454 C456 1.285 . S
C454 H474 0.929 . S
C455 C452 1.461 . S
C455 C454 1.474 . S
C456 C451 1.342 . S
C456 C454 1.285 . S
C456 H475 0.930 . S
C457 C460 1.424 . S
C457 C462 1.245 . S
C457 C463 1.428 . S
C458 C461 1.260 . S
C458 C462 1.477 . S
C458 H476 0.932 . S
C459 C460 1.384 . S
C459 C461 1.479 . S
C459 H477 0.929 . S
C460 C457 1.424 . S
C460 C459 1.384 . S
C460 H478 0.928 . S
C461 C458 1.260 . S
C461 C459 1.479 . S
C462 C457 1.245 . S
C462 C458 1.477 . S
C462 H479 0.932 . S
C463 U446 2.882 . S
C463 C457 1.428 . S
C463 O466 1.301 . S
C463 O467 1.282 . S
O464 U446 2.441 . S
O464 C450 1.249 . S
O465 U446 2.420 . S
O465 C450 1.202 . S
O466 U446 2.455 . S
O466 C463 1.301 . S
O467 U446 2.449 . S
O467 C463 1.282 . S
H468 C441 0.931 . S
H469 C443 0.929 . S
H470 C444 0.930 . S
H471 C445 0.931 . S
H472 C452 0.932 . S
H473 C453 0.930 . S
H474 C454 0.929 . S
H475 C456 0.930 . S
H476 C458 0.932 . S
H477 C459 0.929 . S
H478 C460 0.928 . S
H479 C462 0.932 . S
C480 C481 1.264 . S
C480 C485 1.479 . S
C480 C490 1.465 . S
C481 C480 1.264 . S
C481 C483 1.339 . S
C481 H508 0.931 . S
C482 C483 1.395 . S
C482 C484 1.320 . S
C483 C481 1.339 . S
C483 C482 1.395 . S
C483 H509 0.929 . S
C484 C482 1.320 . S
C484 C485 1.405 . S
C484 H510 0.930 . S
C485 C480 1.479 . S
C485 C484 1.405 . S
C485 H511 0.931 . S
U486 O487 2.454 . S
U486 O488 2.458 . S
U486 C489 2.984 . S
U486 C490 2.847 . S
U486 C503 2.882 . S
U486 O504 2.441 . S
U486 O505 2.420 . S
U486 O506 2.455 . S
U486 O507 2.449 . S
O487 U486 2.454 . S
O487 C489 1.353 . S
O488 U486 2.458 . S
O488 C489 1.286 . S
C489 U486 2.984 . S
C489 O487 1.353 . S
C489 O488 1.286 . S
C489 C491 1.363 . S
C490 C480 1.465 . S
C490 U486 2.847 . S
C490 O504 1.249 . S
C490 O505 1.202 . S
C491 C489 1.363 . S
C491 C493 1.408 . S
C491 C496 1.342 . S
C492 C493 1.310 . S
C492 C495 1.461 . S
C492 H512 0.932 . S
C493 C491 1.408 . S
C493 C492 1.310 . S
C493 H513 0.930 . S
C494 C495 1.474 . S
C494 C496 1.285 . S
C494 H514 0.929 . S
C495 C492 1.461 . S
C495 C494 1.474 . S
C496 C491 1.342 . S
C496 C494 1.285 . S
C496 H515 0.930 . S
C497 C500 1.424 . S
C497 C502 1.245 . S
C497 C503 1.428 . S
C498 C501 1.260 . S
C498 C502 1.477 . S
C498 H516 0.932 . S
C499 C500 1.384 . S
C499 C501 1.479 . S
C499 H517 0.929 . S
C500 C497 1.424 . S
C500 C499 1.384 . S
C500 H518 0.928 . S
C501 C498 1.260 . S
C501 C499 1.479 . S
C502 C497 1.245 . S
C502 C498 1.477 . S
C502 H519 0.932 . S
C503 U486 2.882 . S
C503 C497 1.428 . S
C503 O506 1.301 . S
C503 O507 1.282 . S
O504 U486 2.441 . S
O504 C490 1.249 . S
O505 U486 2.420 . S
O505 C490 1.202 . S
O506 U486 2.455 . S
O506 C503 1.301 . S
O507 U486 2.449 . S
O507 C503 1.282 . S
H508 C481 0.931 . S
H509 C483 0.929 . S
H510 C484 0.930 . S
H511 C485 0.931 . S
H512 C492 0.932 . S
H513 C493 0.930 . S
H514 C494 0.929 . S
H515 C496 0.930 . S
H516 C498 0.932 . S
H517 C499 0.929 . S
H518 C500 0.928 . S
H519 C502 0.932 . S
C520 C521 1.264 . S
C520 C525 1.479 . S
C520 C530 1.465 . S
C521 C520 1.264 . S
C521 C523 1.339 . S
C521 H548 0.931 . S
C522 C523 1.395 . S
C522 C524 1.320 . S
C523 C521 1.339 . S
C523 C522 1.395 . S
C523 H549 0.929 . S
C524 C522 1.320 . S
C524 C525 1.405 . S
C524 H550 0.930 . S
C525 C520 1.479 . S
C525 C524 1.405 . S
C525 H551 0.931 . S
U526 O527 2.454 . S
U526 O528 2.458 . S
U526 C529 2.984 . S
U526 C530 2.847 . S
U526 C543 2.882 . S
U526 O544 2.441 . S
U526 O545 2.420 . S
U526 O546 2.455 . S
U526 O547 2.449 . S
O527 U526 2.454 . S
O527 C529 1.353 . S
O528 U526 2.458 . S
O528 C529 1.286 . S
C529 U526 2.984 . S
C529 O527 1.353 . S
C529 O528 1.286 . S
C529 C531 1.363 . S
C530 C520 1.465 . S
C530 U526 2.847 . S
C530 O544 1.249 . S
C530 O545 1.202 . S
C531 C529 1.363 . S
C531 C533 1.408 . S
C531 C536 1.342 . S
C532 C533 1.310 . S
C532 C535 1.461 . S
C532 H552 0.932 . S
C533 C531 1.408 . S
C533 C532 1.310 . S
C533 H553 0.930 . S
C534 C535 1.474 . S
C534 C536 1.285 . S
C534 H554 0.929 . S
C535 C532 1.461 . S
C535 C534 1.474 . S
C536 C531 1.342 . S
C536 C534 1.285 . S
C536 H555 0.930 . S
C537 C540 1.424 . S
C537 C542 1.245 . S
C537 C543 1.428 . S
C538 C541 1.260 . S
C538 C542 1.477 . S
C538 H556 0.932 . S
C539 C540 1.384 . S
C539 C541 1.479 . S
C539 H557 0.929 . S
C540 C537 1.424 . S
C540 C539 1.384 . S
C540 H558 0.928 . S
C541 C538 1.260 . S
C541 C539 1.479 . S
C542 C537 1.245 . S
C542 C538 1.477 . S
C542 H559 0.932 . S
C543 U526 2.882 . S
C543 C537 1.428 . S
C543 O546 1.301 . S
C543 O547 1.282 . S
O544 U526 2.441 . S
O544 C530 1.249 . S
O545 U526 2.420 . S
O545 C530 1.202 . S
O546 U526 2.455 . S
O546 C543 1.301 . S
O547 U526 2.449 . S
O547 C543 1.282 . S
H548 C521 0.931 . S
H549 C523 0.929 . S
H550 C524 0.930 . S
H551 C525 0.931 . S
H552 C532 0.932 . S
H553 C533 0.930 . S
H554 C534 0.929 . S
H555 C536 0.930 . S
H556 C538 0.932 . S
H557 C539 0.929 . S
H558 C540 0.928 . S
H559 C542 0.932 . S
C560 C561 1.264 . S
C560 C565 1.479 . S
C560 C570 1.465 . S
C561 C560 1.264 . S
C561 C563 1.339 . S
C561 H588 0.931 . S
C562 C563 1.395 . S
C562 C564 1.320 . S
C563 C561 1.339 . S
C563 C562 1.395 . S
C563 H589 0.929 . S
C564 C562 1.320 . S
C564 C565 1.405 . S
C564 H590 0.930 . S
C565 C560 1.479 . S
C565 C564 1.405 . S
C565 H591 0.931 . S
U566 O567 2.454 . S
U566 O568 2.458 . S
U566 C569 2.984 . S
U566 C570 2.847 1_565 S
U566 C583 2.882 . S
U566 O584 2.441 1_565 S
U566 O585 2.420 . S
U566 O586 2.455 . S
U566 O587 2.449 . S
O567 U566 2.454 . S
O567 C569 1.353 . S
O568 U566 2.458 . S
O568 C569 1.286 . S
C569 U566 2.984 . S
C569 O567 1.353 . S
C569 O568 1.286 . S
C569 C571 1.363 . S
C570 C560 1.465 . S
C570 U566 2.847 1_545 S
C570 O584 1.249 . S
C570 O585 1.202 1_545 S
C571 C569 1.363 . S
C571 C573 1.408 . S
C571 C576 1.342 . S
C572 C573 1.310 . S
C572 C575 1.461 . S
C572 H592 0.932 . S
C573 C571 1.408 . S
C573 C572 1.310 . S
C573 H593 0.930 . S
C574 C575 1.474 . S
C574 C576 1.285 . S
C574 H594 0.929 . S
C575 C572 1.461 . S
C575 C574 1.474 . S
C576 C571 1.342 . S
C576 C574 1.285 . S
C576 H595 0.930 . S
C577 C580 1.424 . S
C577 C582 1.245 . S
C577 C583 1.428 . S
C578 C581 1.270 . S
C578 C582 1.477 . S
C578 H596 0.932 . S
C579 C580 1.381 . S
C579 C581 1.479 . S
C579 H597 0.932 1_455 S
C580 C577 1.424 . S
C580 C579 1.381 . S
C580 H598 0.928 . S
C581 C578 1.270 . S
C581 C579 1.479 . S
C582 C577 1.245 . S
C582 C578 1.477 . S
C582 H599 0.932 . S
C583 U566 2.882 . S
C583 C577 1.428 . S
C583 O586 1.301 . S
C583 O587 1.282 . S
O584 U566 2.441 1_545 S
O584 C570 1.249 . S
O585 U566 2.420 . S
O585 C570 1.202 1_565 S
O586 U566 2.455 . S
O586 C583 1.301 . S
O587 U566 2.449 . S
O587 C583 1.282 . S
H588 C561 0.931 . S
H589 C563 0.929 . S
H590 C564 0.930 . S
H591 C565 0.931 . S
H592 C572 0.932 . S
H593 C573 0.930 . S
H594 C574 0.929 . S
H595 C576 0.930 . S
H596 C578 0.932 . S
H597 C579 0.932 1_655 S
H598 C580 0.928 . S
H599 C582 0.932 . S
C600 C601 1.264 . S
C600 C605 1.479 . S
C600 C610 1.465 . S
C601 C600 1.264 . S
C601 C603 1.339 . S
C601 H628 0.931 . S
C602 C603 1.395 . S
C602 C604 1.320 . S
C603 C601 1.339 . S
C603 C602 1.395 . S
C603 H629 0.929 . S
C604 C602 1.320 . S
C604 C605 1.405 . S
C604 H630 0.930 . S
C605 C600 1.479 . S
C605 C604 1.405 . S
C605 H631 0.931 . S
U606 O607 2.454 . S
U606 O608 2.458 1_545 S
U606 C609 2.984 1_545 S
U606 C610 2.847 . S
U606 C623 2.882 1_545 S
U606 O624 2.441 . S
U606 O625 2.420 . S
U606 O626 2.455 1_545 S
U606 O627 2.449 . S
O607 U606 2.454 . S
O607 C609 1.353 1_545 S
O608 U606 2.458 1_565 S
O608 C609 1.286 . S
C609 U606 2.984 1_565 S
C609 O607 1.353 1_565 S
C609 O608 1.286 . S
C609 C611 1.363 . S
C610 C600 1.465 . S
C610 U606 2.847 . S
C610 O624 1.249 . S
C610 O625 1.202 . S
C611 C609 1.363 . S
C611 C613 1.408 . S
C611 C616 1.342 . S
C612 C613 1.310 . S
C612 C615 1.461 . S
C612 H632 0.932 . S
C613 C611 1.408 . S
C613 C612 1.310 . S
C613 H633 0.930 . S
C614 C615 1.474 . S
C614 C616 1.285 . S
C614 H634 0.929 . S
C615 C612 1.461 . S
C615 C614 1.474 . S
C616 C611 1.342 . S
C616 C614 1.285 . S
C616 H635 0.930 . S
C617 C620 1.424 . S
C617 C622 1.245 . S
C617 C623 1.428 . S
C618 C621 1.260 . S
C618 C622 1.477 . S
C618 H636 0.932 . S
C619 C620 1.384 . S
C619 C621 1.479 . S
C619 H637 0.929 . S
C620 C617 1.424 . S
C620 C619 1.384 . S
C620 H638 0.928 . S
C621 C618 1.260 . S
C621 C619 1.479 . S
C622 C617 1.245 . S
C622 C618 1.477 . S
C622 H639 0.932 . S
C623 U606 2.882 1_565 S
C623 C617 1.428 . S
C623 O626 1.301 . S
C623 O627 1.282 1_565 S
O624 U606 2.441 . S
O624 C610 1.249 . S
O625 U606 2.420 . S
O625 C610 1.202 . S
O626 U606 2.455 1_565 S
O626 C623 1.301 . S
O627 U606 2.449 . S
O627 C623 1.282 1_545 S
H628 C601 0.931 . S
H629 C603 0.929 . S
H630 C604 0.930 . S
H631 C605 0.931 . S
H632 C612 0.932 . S
H633 C613 0.930 . S
H634 C614 0.929 . S
H635 C616 0.930 . S
H636 C618 0.932 . S
H637 C619 0.929 . S
H638 C620 0.928 . S
H639 C622 0.932 . S
H640 C646 0.930 . S
H641 C649 0.930 . S
H642 C650 0.930 . S
H643 C651 0.930 . S
H644 C654 0.930 . S
H645 C655 0.930 . S
C646 H640 0.930 . S
C646 C647 1.355 . S
C646 C648 1.415 . S
C647 C646 1.355 . S
C647 C649 1.419 . S
C648 C646 1.415 . S
C648 C653 1.425 . S
C648 C655 1.409 . S
C649 H641 0.930 . S
C649 C647 1.419 . S
C649 C650 1.362 . S
C650 H642 0.930 . S
C650 C649 1.362 . S
C650 C653 1.409 . S
C651 H643 0.930 . S
C651 C652 1.355 . S
C651 C653 1.415 . S
C652 C651 1.355 . S
C652 C654 1.419 . S
C653 C648 1.425 . S
C653 C650 1.409 . S
C653 C651 1.415 . S
C654 H644 0.930 . S
C654 C652 1.419 . S
C654 C655 1.362 . S
C655 H645 0.930 . S
C655 C648 1.409 . S
C655 C654 1.362 . S
H656 C662 0.930 . S
H657 C665 0.930 . S
H658 C666 0.930 . S
H659 C667 0.930 . S
H660 C670 0.930 . S
H661 C671 0.930 . S
C662 H656 0.930 . S
C662 C663 1.355 . S
C662 C664 1.415 . S
C663 C662 1.355 . S
C663 C665 1.419 . S
C664 C662 1.415 . S
C664 C669 1.425 . S
C664 C671 1.409 . S
C665 H657 0.930 . S
C665 C663 1.419 . S
C665 C666 1.362 . S
C666 H658 0.930 . S
C666 C665 1.362 . S
C666 C669 1.409 . S
C667 H659 0.930 . S
C667 C668 1.355 . S
C667 C669 1.415 . S
C668 C667 1.355 . S
C668 C670 1.419 . S
C669 C664 1.425 . S
C669 C666 1.409 . S
C669 C667 1.415 . S
C670 H660 0.930 . S
C670 C668 1.419 . S
C670 C671 1.362 . S
C671 H661 0.930 . S
C671 C664 1.409 . S
C671 C670 1.362 . S
H672 C678 0.930 . S
H673 C681 0.930 . S
H674 C682 0.930 . S
H675 C683 0.930 . S
H676 C686 0.930 1_655 S
H677 C687 0.930 1_655 S
C678 H672 0.930 . S
C678 C679 1.355 . S
C678 C680 1.415 . S
C679 C678 1.355 . S
C679 C681 1.419 . S
C680 C678 1.415 . S
C680 C685 1.425 . S
C680 C687 1.409 . S
C681 H673 0.930 . S
C681 C679 1.419 . S
C681 C682 1.362 . S
C682 H674 0.930 . S
C682 C681 1.362 . S
C682 C685 1.409 . S
C683 H675 0.930 . S
C683 C684 1.355 . S
C683 C685 1.415 . S
C684 C683 1.355 . S
C684 C686 1.419 . S
C685 C680 1.425 . S
C685 C682 1.409 . S
C685 C683 1.415 . S
C686 H676 0.930 1_455 S
C686 C684 1.419 . S
C686 C687 1.362 . S
C687 H677 0.930 1_455 S
C687 C680 1.409 . S
C687 C686 1.362 . S
H688 C694 0.930 . S
H689 C697 0.930 . S
H690 C698 0.930 . S
H691 C699 0.930 . S
H692 C702 0.930 1_655 S
H693 C703 0.930 1_655 S
C694 H688 0.930 . S
C694 C695 1.355 . S
C694 C696 1.415 . S
C695 C694 1.355 . S
C695 C697 1.419 . S
C696 C694 1.415 . S
C696 C701 1.425 . S
C696 C703 1.409 . S
C697 H689 0.930 . S
C697 C695 1.419 . S
C697 C698 1.362 . S
C698 H690 0.930 . S
C698 C697 1.362 . S
C698 C701 1.409 . S
C699 H691 0.930 . S
C699 C700 1.355 . S
C699 C701 1.415 . S
C700 C699 1.355 . S
C700 C702 1.419 . S
C701 C696 1.425 . S
C701 C698 1.409 . S
C701 C699 1.415 . S
C702 H692 0.930 1_455 S
C702 C700 1.419 . S
C702 C703 1.362 . S
C703 H693 0.930 1_455 S
C703 C696 1.409 . S
C703 C702 1.362 . S
H704 C710 0.930 . S
H705 C713 0.930 . S
H706 C714 0.930 . S
H707 C715 0.930 . S
H708 C718 0.930 . S
H709 C719 0.930 . S
C710 H704 0.930 . S
C710 C711 1.355 . S
C710 C712 1.415 . S
C711 C710 1.355 . S
C711 C713 1.419 . S
C712 C710 1.415 . S
C712 C717 1.425 . S
C712 C719 1.409 . S
C713 H705 0.930 . S
C713 C711 1.419 . S
C713 C714 1.362 . S
C714 H706 0.930 . S
C714 C713 1.362 . S
C714 C717 1.409 . S
C715 H707 0.930 . S
C715 C716 1.355 . S
C715 C717 1.415 . S
C716 C715 1.355 . S
C716 C718 1.419 . S
C717 C712 1.425 . S
C717 C714 1.409 . S
C717 C715 1.415 . S
C718 H708 0.930 . S
C718 C716 1.419 . S
C718 C719 1.362 . S
C719 H709 0.930 . S
C719 C712 1.409 . S
C719 C718 1.362 . S
H720 C726 0.930 . S
H721 C729 0.930 . S
H722 C730 0.930 . S
H723 C731 0.930 . S
H724 C734 0.930 . S
H725 C735 0.930 . S
C726 H720 0.930 . S
C726 C727 1.355 . S
C726 C728 1.415 . S
C727 C726 1.355 . S
C727 C729 1.419 . S
C728 C726 1.415 . S
C728 C733 1.425 . S
C728 C735 1.409 . S
C729 H721 0.930 . S
C729 C727 1.419 . S
C729 C730 1.362 . S
C730 H722 0.930 . S
C730 C729 1.362 . S
C730 C733 1.409 . S
C731 H723 0.930 . S
C731 C732 1.355 . S
C731 C733 1.415 . S
C732 C731 1.355 . S
C732 C734 1.419 . S
C733 C728 1.425 . S
C733 C730 1.409 . S
C733 C731 1.415 . S
C734 H724 0.930 . S
C734 C732 1.419 . S
C734 C735 1.362 . S
C735 H725 0.930 . S
C735 C728 1.409 . S
C735 C734 1.362 . S
H736 C742 0.930 . S
H737 C745 0.930 . S
H738 C746 0.930 . S
H739 C747 0.930 . S
H740 C750 0.930 . S
H741 C751 0.930 . S
C742 H736 0.930 . S
C742 C743 1.355 . S
C742 C744 1.415 . S
C743 C742 1.355 . S
C743 C745 1.419 . S
C744 C742 1.415 . S
C744 C749 1.425 . S
C744 C751 1.409 . S
C745 H737 0.930 . S
C745 C743 1.419 . S
C745 C746 1.362 . S
C746 H738 0.930 . S
C746 C745 1.362 . S
C746 C749 1.409 . S
C747 H739 0.930 . S
C747 C748 1.355 . S
C747 C749 1.415 . S
C748 C747 1.355 . S
C748 C750 1.419 . S
C749 C744 1.425 . S
C749 C746 1.409 . S
C749 C747 1.415 . S
C750 H740 0.930 . S
C750 C748 1.419 . S
C750 C751 1.362 . S
C751 H741 0.930 . S
C751 C744 1.409 . S
C751 C750 1.362 . S
H752 C758 0.930 . S
H753 C761 0.930 . S
H754 C762 0.930 . S
H755 C763 0.930 . S
H756 C766 0.930 . S
H757 C767 0.930 . S
C758 H752 0.930 . S
C758 C759 1.355 . S
C758 C760 1.415 . S
C759 C758 1.355 . S
C759 C761 1.419 . S
C760 C758 1.415 . S
C760 C765 1.425 . S
C760 C767 1.409 . S
C761 H753 0.930 . S
C761 C759 1.419 . S
C761 C762 1.362 . S
C762 H754 0.930 . S
C762 C761 1.362 . S
C762 C765 1.409 . S
C763 H755 0.930 . S
C763 C764 1.355 . S
C763 C765 1.415 . S
C764 C763 1.355 . S
C764 C766 1.419 . S
C765 C760 1.425 . S
C765 C762 1.409 . S
C765 C763 1.415 . S
C766 H756 0.930 . S
C766 C764 1.419 . S
C766 C767 1.362 . S
C767 H757 0.930 . S
C767 C760 1.409 . S
C767 C766 1.362 . S
H768 C774 0.930 . S
H769 C777 0.930 . S
H770 C778 0.930 . S
H771 C779 0.930 . S
H772 C782 0.930 . S
H773 C783 0.930 . S
C774 H768 0.930 . S
C774 C775 1.355 . S
C774 C776 1.415 . S
C775 C774 1.355 . S
C775 C777 1.419 . S
C776 C774 1.415 . S
C776 C781 1.425 . S
C776 C783 1.409 . S
C777 H769 0.930 . S
C777 C775 1.419 . S
C777 C778 1.362 . S
C778 H770 0.930 . S
C778 C777 1.362 . S
C778 C781 1.409 . S
C779 H771 0.930 . S
C779 C780 1.355 . S
C779 C781 1.415 . S
C780 C779 1.355 . S
C780 C782 1.419 . S
C781 C776 1.425 . S
C781 C778 1.409 . S
C781 C779 1.415 . S
C782 H772 0.930 . S
C782 C780 1.419 . S
C782 C783 1.362 . S
C783 H773 0.930 . S
C783 C776 1.409 . S
C783 C782 1.362 . S
H784 C790 0.930 . S
H785 C793 0.930 . S
H786 C794 0.930 . S
H787 C795 0.930 . S
H788 C798 0.912 1_554 S
H789 C799 0.930 . S
C790 H784 0.930 . S
C790 C791 1.355 . S
C790 C792 1.415 . S
C791 C790 1.355 . S
C791 C793 1.419 . S
C792 C790 1.415 . S
C792 C797 1.425 . S
C792 C799 1.409 . S
C793 H785 0.930 . S
C793 C791 1.419 . S
C793 C794 1.362 . S
C794 H786 0.930 . S
C794 C793 1.362 . S
C794 C797 1.409 . S
C795 H787 0.930 . S
C795 C796 1.355 . S
C795 C797 1.415 . S
C796 C795 1.355 . S
C796 C798 1.425 . S
C797 C792 1.425 . S
C797 C794 1.409 . S
C797 C795 1.415 . S
C798 H788 0.912 1_556 S
C798 C796 1.425 . S
C798 C799 1.375 . S
C799 H789 0.930 . S
C799 C792 1.409 . S
C799 C798 1.375 . S
H800 C806 0.930 . S
H801 C809 0.930 . S
H802 C810 0.930 . S
H803 C811 0.930 1_556 S
H804 C814 0.930 . S
H805 C815 0.930 . S
C806 H800 0.930 . S
C806 C807 1.355 . S
C806 C808 1.415 . S
C807 C806 1.355 . S
C807 C809 1.419 . S
C808 C806 1.415 . S
C808 C813 1.425 . S
C808 C815 1.409 . S
C809 H801 0.930 . S
C809 C807 1.419 . S
C809 C810 1.362 . S
C810 H802 0.930 . S
C810 C809 1.362 . S
C810 C813 1.409 . S
C811 H803 0.930 1_554 S
C811 C812 1.356 . S
C811 C813 1.415 . S
C812 C811 1.356 . S
C812 C814 1.443 . S
C813 C808 1.425 . S
C813 C810 1.409 . S
C813 C811 1.415 . S
C814 H804 0.930 . S
C814 C812 1.443 . S
C814 C815 1.362 . S
C815 H805 0.930 . S
C815 C808 1.409 . S
C815 C814 1.362 . S
H816 C822 0.930 . S
H817 C825 0.930 . S
H818 C826 0.918 1_554 S
H819 C827 0.930 1_554 S
H820 C830 0.930 . S
H821 C831 0.930 . S
C822 H816 0.930 . S
C822 C823 1.355 . S
C822 C824 1.415 . S
C823 C822 1.355 . S
C823 C825 1.419 . S
C824 C822 1.415 . S
C824 C829 1.425 . S
C824 C831 1.409 . S
C825 H817 0.930 . S
C825 C823 1.419 . S
C825 C826 1.362 . S
C826 H818 0.918 1_556 S
C826 C825 1.362 . S
C826 C829 1.409 . S
C827 H819 0.930 1_556 S
C827 C828 1.355 . S
C827 C829 1.415 . S
C828 C827 1.355 . S
C828 C830 1.419 . S
C829 C824 1.425 . S
C829 C826 1.409 . S
C829 C827 1.415 . S
C830 H820 0.930 . S
C830 C828 1.419 . S
C830 C831 1.362 . S
C831 H821 0.930 . S
C831 C824 1.409 . S
C831 C830 1.362 . S
H832 C838 0.930 . S
H833 C841 0.930 . S
H834 C842 0.930 . S
H835 C843 0.930 . S
H836 C846 0.930 . S
H837 C847 0.930 . S
C838 H832 0.930 . S
C838 C839 1.355 . S
C838 C840 1.415 . S
C839 C838 1.355 . S
C839 C841 1.419 . S
C840 C838 1.415 . S
C840 C845 1.425 . S
C840 C847 1.409 . S
C841 H833 0.930 . S
C841 C839 1.419 . S
C841 C842 1.362 . S
C842 H834 0.930 . S
C842 C841 1.362 . S
C842 C845 1.409 . S
C843 H835 0.930 . S
C843 C844 1.355 . S
C843 C845 1.415 . S
C844 C843 1.355 . S
C844 C846 1.419 . S
C845 C840 1.425 . S
C845 C842 1.409 . S
C845 C843 1.415 . S
C846 H836 0.930 . S
C846 C844 1.419 . S
C846 C847 1.362 . S
C847 H837 0.930 . S
C847 C840 1.409 . S
C847 C846 1.362 . S
H848 C854 0.930 . S
H849 C857 0.930 . S
H850 C858 0.930 . S
H851 C859 0.930 . S
H852 C862 0.930 . S
H853 C863 0.930 . S
C854 H848 0.930 . S
C854 C855 1.355 . S
C854 C856 1.415 . S
C855 C854 1.355 . S
C855 C857 1.419 . S
C856 C854 1.415 . S
C856 C861 1.425 . S
C856 C863 1.409 . S
C857 H849 0.930 . S
C857 C855 1.419 . S
C857 C858 1.362 . S
C858 H850 0.930 . S
C858 C857 1.362 . S
C858 C861 1.409 . S
C859 H851 0.930 . S
C859 C860 1.355 . S
C859 C861 1.415 . S
C860 C859 1.355 . S
C860 C862 1.419 . S
C861 C856 1.425 . S
C861 C858 1.409 . S
C861 C859 1.415 . S
C862 H852 0.930 . S
C862 C860 1.419 . S
C862 C863 1.362 . S
C863 H853 0.930 . S
C863 C856 1.409 . S
C863 C862 1.362 . S
H864 C870 0.930 . S
H865 C873 0.930 . S
H866 C874 0.930 . S
H867 C875 0.930 . S
H868 C878 0.930 . S
H869 C879 0.930 . S
C870 H864 0.930 . S
C870 C871 1.355 . S
C870 C872 1.415 . S
C871 C870 1.355 . S
C871 C873 1.419 . S
C872 C870 1.415 . S
C872 C877 1.425 . S
C872 C879 1.409 . S
C873 H865 0.930 . S
C873 C871 1.419 . S
C873 C874 1.362 . S
C874 H866 0.930 . S
C874 C873 1.362 . S
C874 C877 1.409 . S
C875 H867 0.930 . S
C875 C876 1.355 . S
C875 C877 1.415 . S
C876 C875 1.355 . S
C876 C878 1.419 . S
C877 C872 1.425 . S
C877 C874 1.409 . S
C877 C875 1.415 . S
C878 H868 0.930 . S
C878 C876 1.419 . S
C878 C879 1.362 . S
C879 H869 0.930 . S
C879 C872 1.409 . S
C879 C878 1.362 . S
H880 C886 0.930 . S
H881 C889 0.930 . S
H882 C890 0.930 . S
H883 C891 0.930 . S
H884 C894 0.930 . S
H885 C895 0.930 . S
C886 H880 0.930 . S
C886 C887 1.355 . S
C886 C888 1.415 . S
C887 C886 1.355 . S
C887 C889 1.419 . S
C888 C886 1.415 . S
C888 C893 1.425 . S
C888 C895 1.409 . S
C889 H881 0.930 . S
C889 C887 1.419 . S
C889 C890 1.362 . S
C890 H882 0.930 . S
C890 C889 1.362 . S
C890 C893 1.409 . S
C891 H883 0.930 . S
C891 C892 1.355 . S
C891 C893 1.415 . S
C892 C891 1.355 . S
C892 C894 1.419 . S
C893 C888 1.425 . S
C893 C890 1.409 . S
C893 C891 1.415 . S
C894 H884 0.930 . S
C894 C892 1.419 . S
C894 C895 1.362 . S
C895 H885 0.930 . S
C895 C888 1.409 . S
C895 C894 1.362 . S
H896 C902 0.930 . S
H897 C905 0.930 . S
H898 C906 0.930 . S
H899 C907 0.930 . S
H900 C910 0.930 . S
H901 C911 0.930 . S
C902 H896 0.930 . S
C902 C903 1.355 . S
C902 C904 1.415 . S
C903 C902 1.355 . S
C903 C905 1.419 . S
C904 C902 1.415 . S
C904 C909 1.425 . S
C904 C911 1.409 . S
C905 H897 0.930 . S
C905 C903 1.419 . S
C905 C906 1.362 . S
C906 H898 0.930 . S
C906 C905 1.362 . S
C906 C909 1.409 . S
C907 H899 0.930 . S
C907 C908 1.355 . S
C907 C909 1.415 . S
C908 C907 1.355 . S
C908 C910 1.419 . S
C909 C904 1.425 . S
C909 C906 1.409 . S
C909 C907 1.415 . S
C910 H900 0.930 . S
C910 C908 1.419 . S
C910 C911 1.362 . S
C911 H901 0.930 . S
C911 C904 1.409 . S
C911 C910 1.362 . S
H912 C918 0.930 . S
H913 C921 0.930 . S
H914 C922 0.930 . S
H915 C923 0.930 . S
H916 C926 0.930 . S
H917 C927 0.930 . S
C918 H912 0.930 . S
C918 C919 1.355 . S
C918 C920 1.415 . S
C919 C918 1.355 . S
C919 C921 1.419 . S
C920 C918 1.415 . S
C920 C925 1.425 . S
C920 C927 1.409 . S
C921 H913 0.930 . S
C921 C919 1.419 . S
C921 C922 1.362 . S
C922 H914 0.930 . S
C922 C921 1.362 . S
C922 C925 1.409 . S
C923 H915 0.930 . S
C923 C924 1.355 . S
C923 C925 1.415 . S
C924 C923 1.355 . S
C924 C926 1.419 . S
C925 C920 1.425 . S
C925 C922 1.409 . S
C925 C923 1.415 . S
C926 H916 0.930 . S
C926 C924 1.419 . S
C926 C927 1.362 . S
C927 H917 0.930 . S
C927 C920 1.409 . S
C927 C926 1.362 . S
H928 C934 0.930 . S
H929 C937 0.930 . S
H930 C938 0.930 . S
H931 C939 0.930 . S
H932 C942 0.930 . S
H933 C943 0.930 . S
C934 H928 0.930 . S
C934 C935 1.355 . S
C934 C936 1.415 . S
C935 C934 1.355 . S
C935 C937 1.419 . S
C936 C934 1.415 . S
C936 C941 1.425 . S
C936 C943 1.409 . S
C937 H929 0.930 . S
C937 C935 1.419 . S
C937 C938 1.362 . S
C938 H930 0.930 . S
C938 C937 1.362 . S
C938 C941 1.409 . S
C939 H931 0.930 . S
C939 C940 1.355 . S
C939 C941 1.415 . S
C940 C939 1.355 . S
C940 C942 1.419 . S
C941 C936 1.425 . S
C941 C938 1.409 . S
C941 C939 1.415 . S
C942 H932 0.930 . S
C942 C940 1.419 . S
C942 C943 1.362 . S
C943 H933 0.930 . S
C943 C936 1.409 . S
C943 C942 1.362 . S
H944 C950 0.930 1_655 S
H945 C953 0.930 . S
H946 C954 0.930 . S
H947 C955 0.930 . S
H948 C958 0.944 . S
H949 C959 0.930 . S
C950 H944 0.930 1_455 S
C950 C951 1.355 . S
C950 C952 1.415 . S
C951 C950 1.355 . S
C951 C953 1.419 . S
C952 C950 1.415 . S
C952 C957 1.425 . S
C952 C959 1.409 1_455 S
C953 H945 0.930 . S
C953 C951 1.419 . S
C953 C954 1.362 . S
C954 H946 0.930 . S
C954 C953 1.362 . S
C954 C957 1.409 . S
C955 H947 0.930 . S
C955 C956 1.355 . S
C955 C957 1.415 . S
C956 C955 1.355 . S
C956 C958 1.402 1_455 S
C957 C952 1.425 . S
C957 C954 1.409 . S
C957 C955 1.415 . S
C958 H948 0.944 . S
C958 C956 1.402 1_655 S
C958 C959 1.366 . S
C959 H949 0.930 . S
C959 C952 1.409 1_655 S
C959 C958 1.366 . S
H960 C966 0.930 . S
H961 C969 0.930 . S
H962 C970 0.930 . S
H963 C971 0.930 1_545 S
H964 C974 0.930 . S
H965 C975 0.930 . S
C966 H960 0.930 . S
C966 C967 1.355 . S
C966 C968 1.415 . S
C967 C966 1.355 . S
C967 C969 1.419 1_565 S
C968 C966 1.415 . S
C968 C973 1.425 . S
C968 C975 1.409 . S
C969 H961 0.930 . S
C969 C967 1.419 1_545 S
C969 C970 1.362 . S
C970 H962 0.930 . S
C970 C969 1.362 . S
C970 C973 1.409 1_545 S
C971 H963 0.930 1_565 S
C971 C972 1.355 . S
C971 C973 1.415 . S
C972 C971 1.355 . S
C972 C974 1.419 . S
C973 C968 1.425 . S
C973 C970 1.409 1_565 S
C973 C971 1.415 . S
C974 H964 0.930 . S
C974 C972 1.419 . S
C974 C975 1.362 . S
C975 H965 0.930 . S
C975 C968 1.409 . S
C975 C974 1.362 . S
H976 C982 0.930 . S
H977 C985 0.930 . S
H978 C986 0.930 . S
H979 C987 0.930 . S
H980 C990 0.930 . S
H981 C991 0.930 . S
C982 H976 0.930 . S
C982 C983 1.355 . S
C982 C984 1.415 . S
C983 C982 1.355 . S
C983 C985 1.419 . S
C984 C982 1.415 . S
C984 C989 1.425 . S
C984 C991 1.409 . S
C985 H977 0.930 . S
C985 C983 1.419 . S
C985 C986 1.362 . S
C986 H978 0.930 . S
C986 C985 1.362 . S
C986 C989 1.409 . S
C987 H979 0.930 . S
C987 C988 1.355 . S
C987 C989 1.415 . S
C988 C987 1.355 . S
C988 C990 1.419 . S
C989 C984 1.425 . S
C989 C986 1.409 . S
C989 C987 1.415 . S
C990 H980 0.930 . S
C990 C988 1.419 . S
C990 C991 1.362 . S
C991 H981 0.930 . S
C991 C984 1.409 . S
C991 C990 1.362 . S
H992 C998 0.930 . S
H993 C1001 0.930 . S
H994 C1002 0.930 . S
H995 C1003 0.930 . S
H996 C1006 0.930 . S
H997 C1007 0.930 . S
C998 H992 0.930 . S
C998 C999 1.355 . S
C998 C1000 1.415 . S
C999 C998 1.355 . S
C999 C1001 1.419 . S
C1000 C998 1.415 . S
C1000 C1005 1.425 . S
C1000 C1007 1.409 . S
C1001 H993 0.930 . S
C1001 C999 1.419 . S
C1001 C1002 1.362 . S
C1002 H994 0.930 . S
C1002 C1001 1.362 . S
C1002 C1005 1.409 . S
C1003 H995 0.930 . S
C1003 C1004 1.355 . S
C1003 C1005 1.415 . S
C1004 C1003 1.355 . S
C1004 C1006 1.419 . S
C1005 C1000 1.425 . S
C1005 C1002 1.409 . S
C1005 C1003 1.415 . S
C1006 H996 0.930 . S
C1006 C1004 1.419 . S
C1006 C1007 1.362 . S
C1007 H997 0.930 . S
C1007 C1000 1.409 . S
C1007 C1006 1.362 . S
H1008 C1014 0.930 . S
H1009 C1017 0.930 . S
H1010 C1018 0.930 . S
H1011 C1019 0.930 . S
H1012 C1022 0.930 . S
H1013 C1023 0.930 . S
C1014 H1008 0.930 . S
C1014 C1015 1.355 . S
C1014 C1016 1.415 . S
C1015 C1014 1.355 . S
C1015 C1017 1.419 . S
C1016 C1014 1.415 . S
C1016 C1021 1.425 . S
C1016 C1023 1.409 . S
C1017 H1009 0.930 . S
C1017 C1015 1.419 . S
C1017 C1018 1.362 . S
C1018 H1010 0.930 . S
C1018 C1017 1.362 . S
C1018 C1021 1.409 . S
C1019 H1011 0.930 . S
C1019 C1020 1.355 . S
C1019 C1021 1.415 . S
C1020 C1019 1.355 . S
C1020 C1022 1.419 . S
C1021 C1016 1.425 . S
C1021 C1018 1.409 . S
C1021 C1019 1.415 . S
C1022 H1012 0.930 . S
C1022 C1020 1.419 . S
C1022 C1023 1.362 . S
C1023 H1013 0.930 . S
C1023 C1016 1.409 . S
C1023 C1022 1.362 . S
C647 C21 1.162 . S
C652 C301 1.347 1_545 S
C663 C61 1.390 . S
C668 C181 1.135 . S
C679 C101 1.395 . S
C684 C221 1.418 . S
C695 C261 1.345 . S
C700 C141 1.365 . S
C711 C621 1.151 . S
C716 C341 1.440 . S
C727 C501 1.417 . S
C732 C381 1.085 . S
C743 C421 1.295 1_655 S
C748 C541 1.228 . S
C759 C461 1.320 . S
C764 C581 1.352 1_655 S
C775 C335 2.861 1_554 S
C780 C2 2.685 . S
C791 C375 2.660 . S
C796 C42 2.711 1_556 S
C807 C95 2.735 . S
C812 C402 2.894 1_554 S
C823 C442 2.922 . S
C828 C122 2.852 1_556 S
C839 C495 2.771 . S
C844 C162 2.591 . S
C855 C522 2.868 . S
C860 C202 2.798 . S
C871 C562 2.983 . S
C876 C255 2.788 . S
C887 C282 2.701 . S
C892 C615 2.649 . S
C903 C242 2.727 . S
C908 C15 2.672 . S
C919 C295 1.979 . S
C924 C55 1.983 . S
C935 C82 2.697 . S
C940 C175 2.644 . S
C951 C135 2.061 . S
C956 C215 2.058 . S
C967 C575 2.048 . S
C972 C322 2.052 . S
C983 C602 2.641 . S
C988 C362 2.581 . S
C999 C415 2.010 . S
C1004 C482 1.992 . S
C1015 C455 2.696 . S
C1020 C535 2.657 . S
