# Generated by pormake.
# Topology vbx, (6)-cn, num edge types: 1
# Building blocks:
#     Node 0, Type 0, BuildingBlock: IZENUY_clean_sbu_0, # of connection points: 6
#     Node 1, Type 0, BuildingBlock: IZENUY_clean_sbu_0, # of connection points: 6
#     Node 2, Type 0, BuildingBlock: IZENUY_clean_sbu_0, # of connection points: 6
#     Node 3, Type 0, BuildingBlock: IZENUY_clean_sbu_0, # of connection points: 6
#     Node 4, Type 0, BuildingBlock: IZENUY_clean_sbu_0, # of connection points: 6
#     Node 5, Type 0, BuildingBlock: IZENUY_clean_sbu_0, # of connection points: 6
#     Node 6, Type 0, BuildingBlock: IZENUY_clean_sbu_0, # of connection points: 6
#     Node 7, Type 0, BuildingBlock: IZENUY_clean_sbu_0, # of connection points: 6
#     Node 8, Type 0, BuildingBlock: IZENUY_clean_sbu_0, # of connection points: 6
#     Node 9, Type 0, BuildingBlock: IZENUY_clean_sbu_0, # of connection points: 6
#     Node 10, Type 0, BuildingBlock: IZENUY_clean_sbu_0, # of connection points: 6
#     Node 11, Type 0, BuildingBlock: IZENUY_clean_sbu_0, # of connection points: 6
#     Node 12, Type 0, BuildingBlock: IZENUY_clean_sbu_0, # of connection points: 6
#     Node 13, Type 0, BuildingBlock: IZENUY_clean_sbu_0, # of connection points: 6
#     Node 14, Type 0, BuildingBlock: IZENUY_clean_sbu_0, # of connection points: 6
#     Node 15, Type 0, BuildingBlock: IZENUY_clean_sbu_0, # of connection points: 6
#     Edge 16, Type (0, 0), BuildingBlock: KIFKEQ_clean_linker_1, # of connection points: 2
#     Edge 17, Type (0, 0), BuildingBlock: KIFKEQ_clean_linker_1, # of connection points: 2
#     Edge 18, Type (0, 0), BuildingBlock: KIFKEQ_clean_linker_1, # of connection points: 2
#     Edge 19, Type (0, 0), BuildingBlock: KIFKEQ_clean_linker_1, # of connection points: 2
#     Edge 20, Type (0, 0), BuildingBlock: KIFKEQ_clean_linker_1, # of connection points: 2
#     Edge 21, Type (0, 0), BuildingBlock: KIFKEQ_clean_linker_1, # of connection points: 2
#     Edge 22, Type (0, 0), BuildingBlock: KIFKEQ_clean_linker_1, # of connection points: 2
#     Edge 23, Type (0, 0), BuildingBlock: KIFKEQ_clean_linker_1, # of connection points: 2
#     Edge 24, Type (0, 0), BuildingBlock: KIFKEQ_clean_linker_1, # of connection points: 2
#     Edge 25, Type (0, 0), BuildingBlock: KIFKEQ_clean_linker_1, # of connection points: 2
#     Edge 26, Type (0, 0), BuildingBlock: KIFKEQ_clean_linker_1, # of connection points: 2
#     Edge 27, Type (0, 0), BuildingBlock: KIFKEQ_clean_linker_1, # of connection points: 2
#     Edge 28, Type (0, 0), BuildingBlock: KIFKEQ_clean_linker_1, # of connection points: 2
#     Edge 29, Type (0, 0), BuildingBlock: KIFKEQ_clean_linker_1, # of connection points: 2
#     Edge 30, Type (0, 0), BuildingBlock: KIFKEQ_clean_linker_1, # of connection points: 2
#     Edge 31, Type (0, 0), BuildingBlock: KIFKEQ_clean_linker_1, # of connection points: 2
#     Edge 32, Type (0, 0), BuildingBlock: KIFKEQ_clean_linker_1, # of connection points: 2
#     Edge 33, Type (0, 0), BuildingBlock: KIFKEQ_clean_linker_1, # of connection points: 2
#     Edge 34, Type (0, 0), BuildingBlock: KIFKEQ_clean_linker_1, # of connection points: 2
#     Edge 35, Type (0, 0), BuildingBlock: KIFKEQ_clean_linker_1, # of connection points: 2
#     Edge 36, Type (0, 0), BuildingBlock: KIFKEQ_clean_linker_1, # of connection points: 2
#     Edge 37, Type (0, 0), BuildingBlock: KIFKEQ_clean_linker_1, # of connection points: 2
#     Edge 38, Type (0, 0), BuildingBlock: KIFKEQ_clean_linker_1, # of connection points: 2
#     Edge 39, Type (0, 0), BuildingBlock: KIFKEQ_clean_linker_1, # of connection points: 2
#     Edge 40, Type (0, 0), BuildingBlock: KIFKEQ_clean_linker_1, # of connection points: 2
#     Edge 41, Type (0, 0), BuildingBlock: KIFKEQ_clean_linker_1, # of connection points: 2
#     Edge 42, Type (0, 0), BuildingBlock: KIFKEQ_clean_linker_1, # of connection points: 2
#     Edge 43, Type (0, 0), BuildingBlock: KIFKEQ_clean_linker_1, # of connection points: 2
#     Edge 44, Type (0, 0), BuildingBlock: KIFKEQ_clean_linker_1, # of connection points: 2
#     Edge 45, Type (0, 0), BuildingBlock: KIFKEQ_clean_linker_1, # of connection points: 2
#     Edge 46, Type (0, 0), BuildingBlock: KIFKEQ_clean_linker_1, # of connection points: 2
#     Edge 47, Type (0, 0), BuildingBlock: KIFKEQ_clean_linker_1, # of connection points: 2
#     Edge 48, Type (0, 0), BuildingBlock: KIFKEQ_clean_linker_1, # of connection points: 2
#     Edge 49, Type (0, 0), BuildingBlock: KIFKEQ_clean_linker_1, # of connection points: 2
#     Edge 50, Type (0, 0), BuildingBlock: KIFKEQ_clean_linker_1, # of connection points: 2
#     Edge 51, Type (0, 0), BuildingBlock: KIFKEQ_clean_linker_1, # of connection points: 2
#     Edge 52, Type (0, 0), BuildingBlock: KIFKEQ_clean_linker_1, # of connection points: 2
#     Edge 53, Type (0, 0), BuildingBlock: KIFKEQ_clean_linker_1, # of connection points: 2
#     Edge 54, Type (0, 0), BuildingBlock: KIFKEQ_clean_linker_1, # of connection points: 2
#     Edge 55, Type (0, 0), BuildingBlock: KIFKEQ_clean_linker_1, # of connection points: 2
#     Edge 56, Type (0, 0), BuildingBlock: KIFKEQ_clean_linker_1, # of connection points: 2
#     Edge 57, Type (0, 0), BuildingBlock: KIFKEQ_clean_linker_1, # of connection points: 2
#     Edge 58, Type (0, 0), BuildingBlock: KIFKEQ_clean_linker_1, # of connection points: 2
#     Edge 59, Type (0, 0), BuildingBlock: KIFKEQ_clean_linker_1, # of connection points: 2
#     Edge 60, Type (0, 0), BuildingBlock: KIFKEQ_clean_linker_1, # of connection points: 2
#     Edge 61, Type (0, 0), BuildingBlock: KIFKEQ_clean_linker_1, # of connection points: 2
#     Edge 62, Type (0, 0), BuildingBlock: KIFKEQ_clean_linker_1, # of connection points: 2
#     Edge 63, Type (0, 0), BuildingBlock: KIFKEQ_clean_linker_1, # of connection points: 2
# Relax obj value: 0.242
# Max RMSD: 0.243
# Mean RMSD: 0.243
data_MOF--net-vbx--node1-IZENUY_clean_sbu_0--edge1-KIFKEQ_clean_linker_1
_symmetry_space_group_name_H-M    P1
_symmetry_Int_Tables_number       1
_symmetry_cell_setting            triclinic
loop_
_symmetry_equiv_pos_as_xyz
'x, y, z'
_cell_length_a     46.558662
_cell_length_b     28.021517
_cell_length_c     57.149446
_cell_angle_alpha  89.938458
_cell_angle_beta   89.989491
_cell_angle_gamma 90.267105
loop_
_atom_site_label
_atom_site_type_symbol
_atom_site_fract_x
_atom_site_fract_y
_atom_site_fract_z
_atom_type_partial_charge
Fe0 Fe 0.36377 0.4216 0.12163 0.0
Fe1 Fe 0.36345 0.33818 0.08712 0.0
O2 O 0.34614 0.37175 0.1092 0.0
Fe3 Fe 0.31117 0.35622 0.1186 0.0
O4 O 0.29694 0.41407 0.11025 0.0
O5 O 0.33074 0.45542 0.12775 0.0
O6 O 0.36506 0.45122 0.09339 0.0
C7 C 0.37629 0.43356 0.07526 0.0
C8 C 0.34043 0.38065 0.16045 0.0
O9 O 0.38298 0.38972 0.07467 0.0
C10 C 0.33255 0.26705 0.11329 0.0
O11 O 0.4001 0.39696 0.11816 0.0
O12 O 0.39307 0.3232 0.10635 0.0
O13 O 0.31721 0.37494 0.14911 0.0
O14 O 0.36308 0.39436 0.15028 0.0
C15 C 0.30941 0.34023 0.06952 0.0
O16 O 0.34629 0.28063 0.09523 0.0
O17 O 0.32273 0.29739 0.12742 0.0
C18 C 0.40871 0.35429 0.11606 0.0
O19 O 0.33532 0.35139 0.06645 0.0
O20 O 0.29937 0.33401 0.08991 0.0
C21 C 0.30594 0.4528 0.11872 0.0
Fe22 Fe 0.67176 0.61633 0.61808 0.0
Fe23 Fe 0.66873 0.70563 0.58767 0.0
O24 O 0.68841 0.66841 0.60688 0.0
Fe25 Fe 0.72431 0.68233 0.6148 0.0
O26 O 0.73783 0.62524 0.60447 0.0
O27 O 0.70484 0.58201 0.62167 0.0
O28 O 0.66878 0.59155 0.5889 0.0
C29 C 0.65614 0.61231 0.57221 0.0
C30 C 0.69741 0.65255 0.65709 0.0
O31 O 0.64876 0.65576 0.57408 0.0
C32 C 0.70284 0.77278 0.61368 0.0
O33 O 0.63514 0.63988 0.61702 0.0
O34 O 0.64075 0.71589 0.60945 0.0
O35 O 0.72004 0.66035 0.64515 0.0
O36 O 0.6743 0.6393 0.64745 0.0
C37 C 0.72121 0.70621 0.56622 0.0
O38 O 0.68622 0.76194 0.5969 0.0
O39 O 0.7144 0.74054 0.62576 0.0
C40 C 0.62584 0.68218 0.61783 0.0
O41 O 0.69471 0.69771 0.56481 0.0
O42 O 0.73398 0.70715 0.58587 0.0
C43 C 0.72909 0.58544 0.61191 0.0
Fe44 Fe 0.30911 0.67659 0.87634 0.0
Fe45 Fe 0.36356 0.61497 0.87782 0.0
O46 O 0.34477 0.66723 0.88636 0.0
Fe47 Fe 0.36096 0.71026 0.90514 0.0
O48 O 0.32749 0.72549 0.91971 0.0
O49 O 0.29516 0.67479 0.90616 0.0
O50 O 0.29931 0.61349 0.87319 0.0
C51 C 0.3095 0.57634 0.88239 0.0
C52 C 0.33216 0.77043 0.87607 0.0
O53 O 0.33535 0.57542 0.88877 0.0
C54 C 0.40799 0.68068 0.87688 0.0
O55 O 0.32139 0.67941 0.84637 0.0
O56 O 0.34879 0.61526 0.8478 0.0
O57 O 0.35654 0.75854 0.88385 0.0
O58 O 0.31132 0.74149 0.877 0.0
C59 C 0.37665 0.62531 0.92618 0.0
O60 O 0.39383 0.64893 0.86623 0.0
O61 O 0.39752 0.70188 0.89438 0.0
C62 C 0.33611 0.64779 0.83624 0.0
O63 O 0.38114 0.60636 0.90636 0.0
O64 O 0.36599 0.66641 0.92794 0.0
C65 C 0.30463 0.70164 0.92223 0.0
Fe66 Fe 0.66915 0.43542 0.37186 0.0
Fe67 Fe 0.66714 0.34681 0.40301 0.0
O68 O 0.68612 0.38381 0.38307 0.0
Fe69 Fe 0.72176 0.37012 0.37458 0.0
O70 O 0.73556 0.42781 0.38464 0.0
O71 O 0.70215 0.47035 0.3678 0.0
O72 O 0.66666 0.46073 0.40099 0.0
C73 C 0.65454 0.44015 0.41803 0.0
C74 C 0.69423 0.39957 0.33254 0.0
O75 O 0.64739 0.39647 0.41662 0.0
C76 C 0.69989 0.27945 0.37634 0.0
O77 O 0.63255 0.4109 0.37349 0.0
O78 O 0.63859 0.33537 0.38193 0.0
O79 O 0.71691 0.3917 0.34432 0.0
O80 O 0.67123 0.41246 0.3424 0.0
C81 C 0.7201 0.34645 0.42322 0.0
O82 O 0.68433 0.29061 0.3937 0.0
O83 O 0.7114 0.3115 0.36392 0.0
C84 C 0.62329 0.36834 0.37356 0.0
O85 O 0.69385 0.3559 0.42535 0.0
O86 O 0.73203 0.34524 0.40326 0.0
C87 C 0.72653 0.46758 0.37738 0.0
Fe88 Fe 0.66532 0.69909 0.90252 0.0
Fe89 Fe 0.66771 0.60935 0.87225 0.0
O90 O 0.68482 0.66106 0.88352 0.0
Fe91 Fe 0.72102 0.67363 0.87596 0.0
O92 O 0.73071 0.69803 0.9049 0.0
O93 O 0.691 0.69119 0.92564 0.0
O94 O 0.64492 0.64982 0.91623 0.0
C95 C 0.65173 0.60612 0.91809 0.0
C96 C 0.70006 0.76494 0.87631 0.0
O97 O 0.66413 0.5849 0.90144 0.0
C98 C 0.69444 0.64416 0.83338 0.0
O99 O 0.63757 0.7097 0.88065 0.0
O100 O 0.63129 0.63393 0.87301 0.0
O101 O 0.71216 0.73226 0.8649 0.0
O102 O 0.68313 0.75491 0.893 0.0
C103 C 0.72455 0.57636 0.87883 0.0
O104 O 0.67098 0.63175 0.84278 0.0
O105 O 0.71682 0.65213 0.8456 0.0
C106 C 0.62226 0.67641 0.87244 0.0
O107 O 0.70037 0.57387 0.86893 0.0
O108 O 0.73363 0.61584 0.88642 0.0
C109 C 0.71765 0.69831 0.92441 0.0
Fe110 Fe 0.36255 0.32751 0.40772 0.0
Fe111 Fe 0.36248 0.41809 0.37674 0.0
O112 O 0.34529 0.36558 0.38724 0.0
Fe113 Fe 0.30995 0.35116 0.37747 0.0
O114 O 0.29578 0.35787 0.40704 0.0
O115 O 0.3294 0.31309 0.42297 0.0
O116 O 0.36709 0.37529 0.42864 0.0
C117 C 0.37657 0.41682 0.4251 0.0
C118 C 0.33506 0.25968 0.38189 0.0
O119 O 0.37971 0.43334 0.40463 0.0
C120 C 0.33655 0.37563 0.33662 0.0
O121 O 0.39877 0.33648 0.39626 0.0
O122 O 0.39392 0.38571 0.36655 0.0
O123 O 0.31349 0.2867 0.38133 0.0
O124 O 0.35907 0.27536 0.38878 0.0
C125 C 0.30732 0.45167 0.37936 0.0
O126 O 0.34789 0.41113 0.34702 0.0
O127 O 0.32272 0.34398 0.34778 0.0
C128 C 0.40876 0.35641 0.37814 0.0
O129 O 0.33291 0.4561 0.38615 0.0
O130 O 0.29862 0.41242 0.37125 0.0
C131 C 0.30627 0.33634 0.42453 0.0
Fe132 Fe 0.6682 0.42607 0.11744 0.0
Fe133 Fe 0.7213 0.36229 0.11348 0.0
O134 O 0.68537 0.37541 0.10554 0.0
Fe135 Fe 0.6662 0.33884 0.08559 0.0
O136 O 0.646 0.38877 0.07265 0.0
O137 O 0.66521 0.45275 0.08862 0.0
O138 O 0.70096 0.4615 0.12173 0.0
C139 C 0.72525 0.4598 0.11193 0.0
C140 C 0.6227 0.35854 0.11557 0.0
O141 O 0.73441 0.42075 0.10399 0.0
C142 C 0.69972 0.27117 0.11129 0.0
O143 O 0.67072 0.40131 0.14652 0.0
O144 O 0.71664 0.38231 0.14409 0.0
O145 O 0.63803 0.32604 0.10688 0.0
O146 O 0.63179 0.40116 0.11579 0.0
C147 C 0.71892 0.34119 0.06456 0.0
O148 O 0.71172 0.30287 0.12358 0.0
O149 O 0.68378 0.28266 0.09423 0.0
C150 C 0.69394 0.38868 0.15609 0.0
O151 O 0.73144 0.33947 0.0843 0.0
O152 O 0.69242 0.34916 0.06306 0.0
C153 C 0.65283 0.43265 0.07157 0.0
Fe154 Fe 0.31271 0.67628 0.61826 0.0
Fe155 Fe 0.36501 0.70659 0.58877 0.0
O156 O 0.34848 0.66565 0.60858 0.0
Fe157 Fe 0.36724 0.61412 0.61832 0.0
O158 O 0.33905 0.57365 0.6082 0.0
O159 O 0.30241 0.61336 0.62195 0.0
O160 O 0.29894 0.6734 0.58835 0.0
C161 C 0.30878 0.69865 0.57181 0.0
C162 C 0.33889 0.64894 0.65914 0.0
O163 O 0.33186 0.72186 0.57395 0.0
C164 C 0.4118 0.67946 0.61773 0.0
O165 O 0.31577 0.74134 0.61691 0.0
O166 O 0.3611 0.75661 0.60894 0.0
O167 O 0.35246 0.61671 0.64817 0.0
O168 O 0.32426 0.67995 0.64844 0.0
C169 C 0.38018 0.61973 0.56984 0.0
O170 O 0.40147 0.69832 0.59956 0.0
O171 O 0.39754 0.64908 0.62925 0.0
C172 C 0.337 0.76968 0.61682 0.0
O173 O 0.36956 0.66058 0.56695 0.0
O174 O 0.38488 0.60302 0.59009 0.0
C175 C 0.31297 0.57527 0.61401 0.0
Fe176 Fe 0.86546 0.92863 0.1168 0.0
Fe177 Fe 0.86704 0.83943 0.0862 0.0
O178 O 0.8483 0.8765 0.10611 0.0
Fe179 Fe 0.81284 0.86231 0.1151 0.0
O180 O 0.79875 0.91974 0.1052 0.0
O181 O 0.83263 0.96318 0.12107 0.0
O182 O 0.86742 0.95322 0.0875 0.0
C183 C 0.87938 0.93234 0.07056 0.0
C184 C 0.8412 0.89304 0.1566 0.0
O185 O 0.88675 0.88898 0.07232 0.0
C186 C 0.83472 0.7719 0.11325 0.0
O187 O 0.90194 0.90457 0.11497 0.0
O188 O 0.89575 0.82868 0.10728 0.0
O189 O 0.81834 0.88401 0.14522 0.0
O190 O 0.86392 0.90639 0.14637 0.0
C191 C 0.81361 0.83924 0.06646 0.0
O192 O 0.84996 0.78327 0.09574 0.0
O193 O 0.82331 0.80376 0.1257 0.0
C194 C 0.91096 0.86206 0.11561 0.0
O195 O 0.84002 0.84786 0.06398 0.0
O196 O 0.80205 0.83758 0.08657 0.0
C197 C 0.80796 0.95975 0.11207 0.0
Fe198 Fe 0.17193 0.10761 0.62006 0.0
Fe199 Fe 0.17035 0.19322 0.58704 0.0
O200 O 0.18882 0.15877 0.60813 0.0
Fe201 Fe 0.22399 0.17489 0.61715 0.0
O202 O 0.23869 0.11758 0.60815 0.0
O203 O 0.20526 0.0744 0.62507 0.0
O204 O 0.17008 0.07953 0.59146 0.0
C205 C 0.15839 0.09827 0.57377 0.0
C206 C 0.19579 0.1475 0.65907 0.0
O207 O 0.15122 0.14192 0.57402 0.0
C208 C 0.20165 0.26405 0.61311 0.0
O209 O 0.13528 0.13088 0.61743 0.0
O210 O 0.14109 0.20577 0.60728 0.0
O211 O 0.21877 0.15452 0.64755 0.0
O212 O 0.17311 0.13334 0.64906 0.0
C213 C 0.22376 0.19439 0.56817 0.0
O214 O 0.18712 0.2507 0.59548 0.0
O215 O 0.21237 0.23353 0.62676 0.0
C216 C 0.1259 0.17318 0.61637 0.0
O217 O 0.19789 0.18247 0.56564 0.0
O218 O 0.23476 0.19874 0.58837 0.0
C219 C 0.22985 0.07786 0.61576 0.0
Fe220 Fe 0.86573 0.19812 0.90229 0.0
Fe221 Fe 0.8114 0.17788 0.87315 0.0
O222 O 0.84665 0.16264 0.88185 0.0
Fe223 Fe 0.86305 0.11092 0.87031 0.0
O224 O 0.86472 0.08428 0.89925 0.0
O225 O 0.88467 0.14735 0.91548 0.0
O226 O 0.8385 0.18901 0.92436 0.0
C227 C 0.81236 0.19915 0.92194 0.0
C228 C 0.90977 0.17618 0.87319 0.0
O229 O 0.80101 0.20226 0.90182 0.0
C230 C 0.83911 0.14905 0.8311 0.0
O231 O 0.84941 0.25509 0.8933 0.0
O232 O 0.82279 0.23635 0.86294 0.0
O233 O 0.89989 0.13401 0.87262 0.0
O234 O 0.89476 0.20946 0.88159 0.0
C235 C 0.8052 0.08094 0.875 0.0
O236 O 0.81634 0.15687 0.84278 0.0
O237 O 0.86186 0.13544 0.84109 0.0
C238 C 0.83455 0.26746 0.87574 0.0
O239 O 0.79683 0.1205 0.88288 0.0
O240 O 0.82956 0.07751 0.86542 0.0
C241 C 0.87707 0.10387 0.91647 0.0
Fe242 Fe 0.17378 0.91592 0.37676 0.0
Fe243 Fe 0.1714 0.81882 0.40257 0.0
O244 O 0.19015 0.86113 0.38499 0.0
Fe245 Fe 0.22612 0.84845 0.37639 0.0
O246 O 0.23867 0.91029 0.37453 0.0
O247 O 0.20312 0.9519 0.38856 0.0
O248 O 0.1558 0.92513 0.40517 0.0
C249 C 0.15904 0.90439 0.42475 0.0
C250 C 0.20246 0.88245 0.33555 0.0
O251 O 0.16748 0.86174 0.42598 0.0
C252 C 0.19916 0.75729 0.37385 0.0
O253 O 0.14235 0.88678 0.36428 0.0
O254 O 0.1357 0.83193 0.39119 0.0
O255 O 0.21606 0.84936 0.34577 0.0
O256 O 0.18935 0.91471 0.34702 0.0
C257 C 0.22608 0.82057 0.4223 0.0
O258 O 0.17485 0.77191 0.38062 0.0
O259 O 0.22113 0.78366 0.37586 0.0
C260 C 0.12668 0.85585 0.37403 0.0
O261 O 0.2033 0.79823 0.41753 0.0
O262 O 0.23794 0.84713 0.40709 0.0
C263 C 0.22919 0.94849 0.38307 0.0
Fe264 Fe 0.16803 0.192 0.90864 0.0
Fe265 Fe 0.16966 0.10934 0.87394 0.0
O266 O 0.18647 0.15953 0.8868 0.0
Fe267 Fe 0.22164 0.17637 0.8783 0.0
O268 O 0.23243 0.19679 0.90778 0.0
O269 O 0.19525 0.17823 0.92976 0.0
O270 O 0.14816 0.13993 0.92019 0.0
C271 C 0.15559 0.09645 0.91994 0.0
C272 C 0.19939 0.2649 0.8842 0.0
O273 O 0.1678 0.07932 0.90212 0.0
C274 C 0.19374 0.15118 0.83559 0.0
O275 O 0.13922 0.20721 0.88866 0.0
O276 O 0.13302 0.13334 0.87666 0.0
O277 O 0.21005 0.23567 0.86995 0.0
O278 O 0.18528 0.25001 0.90177 0.0
C279 C 0.22773 0.07964 0.87744 0.0
O280 O 0.17105 0.13658 0.84539 0.0
O281 O 0.21647 0.1592 0.84735 0.0
C282 C 0.12411 0.17594 0.87852 0.0
O283 O 0.20305 0.07633 0.8683 0.0
O284 O 0.23623 0.11843 0.88614 0.0
C285 C 0.22133 0.18938 0.92777 0.0
Fe286 Fe 0.86738 0.85037 0.40503 0.0
Fe287 Fe 0.86709 0.93517 0.37125 0.0
O288 O 0.84941 0.88527 0.38373 0.0
Fe289 Fe 0.81385 0.87105 0.37506 0.0
O290 O 0.80281 0.84849 0.40394 0.0
O291 O 0.84007 0.86252 0.4266 0.0
O292 O 0.88749 0.90105 0.41755 0.0
C293 C 0.88136 0.94511 0.4173 0.0
C294 C 0.83523 0.78075 0.37903 0.0
O295 O 0.86971 0.9637 0.39958 0.0
C296 C 0.84203 0.89587 0.33278 0.0
O297 O 0.8964 0.83602 0.38498 0.0
O298 O 0.90336 0.91003 0.37363 0.0
O299 O 0.82422 0.81166 0.36571 0.0
O300 O 0.84982 0.79348 0.39674 0.0
C301 C 0.80988 0.96853 0.3759 0.0
O302 O 0.86511 0.90883 0.3425 0.0
O303 O 0.8191 0.89044 0.34453 0.0
C304 C 0.91198 0.86737 0.37534 0.0
O305 O 0.83436 0.9703 0.36628 0.0
O306 O 0.80044 0.92946 0.38387 0.0
C307 C 0.81385 0.8527 0.42411 0.0
Fe308 Fe 0.22429 0.8556 0.11639 0.0
Fe309 Fe 0.17071 0.82027 0.09046 0.0
O310 O 0.18776 0.86411 0.1083 0.0
Fe311 Fe 0.16892 0.91593 0.11753 0.0
O312 O 0.19608 0.95667 0.10615 0.0
O313 O 0.23414 0.91864 0.11831 0.0
O314 O 0.23571 0.85681 0.0857 0.0
C315 C 0.22492 0.82953 0.07038 0.0
C316 C 0.1999 0.88467 0.15795 0.0
O317 O 0.20327 0.80413 0.07503 0.0
C318 C 0.12468 0.84999 0.11954 0.0
O319 O 0.22205 0.79061 0.11656 0.0
O320 O 0.17636 0.77311 0.11214 0.0
O321 O 0.18503 0.91557 0.14705 0.0
O322 O 0.21474 0.85401 0.14715 0.0
C323 C 0.15417 0.9049 0.06941 0.0
O324 O 0.13468 0.82877 0.10195 0.0
O325 O 0.13923 0.88154 0.12993 0.0
C326 C 0.20127 0.76184 0.11906 0.0
O327 O 0.16454 0.86354 0.06753 0.0
O328 O 0.15035 0.92419 0.0893 0.0
C329 C 0.22255 0.95593 0.11054 0.0
Fe330 Fe 0.81223 0.18568 0.6132 0.0
Fe331 Fe 0.86581 0.21803 0.58615 0.0
O332 O 0.84845 0.17558 0.60461 0.0
Fe333 Fe 0.8668 0.12346 0.61407 0.0
O334 O 0.83907 0.08344 0.60299 0.0
O335 O 0.8017 0.12276 0.61563 0.0
O336 O 0.80005 0.18426 0.58281 0.0
C337 C 0.81064 0.21071 0.56704 0.0
C338 C 0.83678 0.15632 0.65445 0.0
O339 O 0.8332 0.23461 0.57079 0.0
C340 C 0.91165 0.18806 0.61545 0.0
O341 O 0.81536 0.25081 0.61291 0.0
O342 O 0.86116 0.26612 0.60723 0.0
O343 O 0.85085 0.12465 0.6435 0.0
O344 O 0.82238 0.18765 0.64375 0.0
C345 C 0.88188 0.1329 0.56602 0.0
O346 O 0.90189 0.20874 0.59757 0.0
O347 O 0.89676 0.15743 0.62622 0.0
C348 C 0.83667 0.27882 0.61439 0.0
O349 O 0.87121 0.17388 0.56369 0.0
O350 O 0.8854 0.1141 0.58603 0.0
C351 C 0.81275 0.08484 0.60798 0.0
H352 H 0.34426 0.19093 0.08437 0.0
H353 H 0.29374 0.23098 0.14467 0.0
H354 H 0.31862 0.11439 0.08274 0.0
H355 H 0.26804 0.15531 0.14262 0.0
H356 H 0.20355 0.04837 0.11025 0.0
H357 H 0.23259 0.12131 0.11141 0.0
H358 H 0.30995 0.03736 0.1085 0.0
H359 H 0.28099 0.96423 0.10771 0.0
C360 C 0.32812 0.18321 0.09751 0.0
C361 C 0.32109 0.21739 0.1146 0.0
C362 C 0.31336 0.13946 0.09649 0.0
C363 C 0.29101 0.12931 0.11231 0.0
C364 C 0.28483 0.16252 0.12995 0.0
C365 C 0.29981 0.20577 0.13122 0.0
C366 C 0.22672 0.04542 0.10965 0.0
C367 C 0.23993 1.00044 0.10901 0.0
C368 C 0.24335 0.08717 0.11047 0.0
C369 C 0.27353 0.08495 0.11024 0.0
C370 C 0.28675 0.04013 0.10869 0.0
C371 C 0.27014 0.99832 0.1083 0.0
H372 H 0.68701 0.85288 0.58885 0.0
H373 H 0.74608 0.80488 0.64216 0.0
H374 H 0.71245 0.92951 0.58705 0.0
H375 H 0.77145 0.88088 0.64005 0.0
H376 H 0.83138 0.99219 0.60582 0.0
H377 H 0.80252 0.9193 0.60842 0.0
H378 H 0.72525 1.00342 0.61181 0.0
H379 H 0.75408 0.07652 0.60945 0.0
C380 C 0.70501 0.85886 0.6005 0.0
C381 C 0.71445 0.82237 0.61559 0.0
C382 C 0.71965 0.90276 0.59939 0.0
C383 C 0.74428 0.91094 0.61312 0.0
C384 C 0.75289 0.87537 0.62894 0.0
C385 C 0.73809 0.83188 0.63028 0.0
C386 C 0.80824 0.99524 0.60694 0.0
C387 C 0.79511 0.04033 0.60751 0.0
C388 C 0.79171 0.95345 0.60861 0.0
C389 C 0.7616 0.95559 0.61054 0.0
C390 C 0.74837 1.00056 0.61032 0.0
C391 C 0.76494 0.04243 0.60902 0.0
H392 H 0.35726 0.85357 0.89261 0.0
H393 H 0.28963 0.80055 0.84791 0.0
H394 H 0.33663 0.93385 0.89029 0.0
H395 H 0.26824 0.8785 0.84666 0.0
H396 H 0.23471 0.02319 0.83947 0.0
H397 H 0.26672 0.95564 0.83488 0.0
H398 H 0.29767 0.97652 0.90555 0.0
H399 H 0.26702 0.04681 0.9092 0.0
C400 C 0.33844 0.85928 0.88184 0.0
C401 C 0.325 0.82069 0.87054 0.0
C402 C 0.32627 0.90512 0.88082 0.0
C403 C 0.30039 0.91308 0.86854 0.0
C404 C 0.28828 0.87472 0.85605 0.0
C405 C 0.30051 0.8295 0.85688 0.0
C406 C 0.24854 1.01344 0.85394 0.0
C407 C 0.24808 0.03964 0.87482 0.0
C408 C 0.26688 0.97448 0.8514 0.0
C409 C 0.28455 0.95947 0.87001 0.0
C410 C 0.28471 0.98692 0.8907 0.0
C411 C 0.26691 0.02696 0.89295 0.0
H412 H 0.75378 0.97838 0.3909 0.0
H413 H 0.82412 0.05769 0.36025 0.0
H414 H 0.72383 0.04992 0.38926 0.0
H415 H 0.79464 0.1288 0.35906 0.0
H416 H 0.73083 0.24075 0.34024 0.0
H417 H 0.75481 0.16371 0.33931 0.0
H418 H 0.71786 0.12809 0.40645 0.0
H419 H 0.69327 0.20474 0.40711 0.0
C420 C 0.76292 1.011 0.38388 0.0
C421 C 0.79141 1.01198 0.37562 0.0
C422 C 0.74575 0.05214 0.383 0.0
C423 C 0.75661 0.0953 0.3738 0.0
C424 C 0.78518 0.09616 0.36576 0.0
C425 C 0.80226 0.05524 0.36663 0.0
C426 C 0.72734 0.21618 0.35462 0.0
C427 C 0.71014 0.2293 0.37379 0.0
C428 C 0.74138 0.17205 0.35421 0.0
C429 C 0.7388 0.13975 0.37302 0.0
C430 C 0.72033 0.15176 0.39159 0.0
C431 C 0.70616 0.19589 0.39196 0.0
H432 H 0.79778 0.02072 0.83852 0.0
H433 H 0.76783 0.04779 0.9086 0.0
H434 H 0.76802 0.94956 0.83645 0.0
H435 H 0.73937 0.97409 0.90745 0.0
H436 H 0.67947 0.84787 0.89618 0.0
H437 H 0.70107 0.92749 0.8944 0.0
H438 H 0.76761 0.87294 0.84903 0.0
H439 H 0.74521 0.79529 0.84968 0.0
C440 C 0.78487 1.01109 0.8536 0.0
C441 C 0.78531 0.03953 0.87379 0.0
C442 C 0.76792 0.96987 0.85254 0.0
C443 C 0.75154 0.95481 0.87196 0.0
C444 C 0.75135 0.98431 0.892 0.0
C445 C 0.76781 0.02651 0.89278 0.0
C446 C 0.69836 0.85332 0.88541 0.0
C447 C 0.71044 0.81496 0.873 0.0
C448 C 0.71102 0.89897 0.88461 0.0
C449 C 0.73634 0.90732 0.87163 0.0
C450 C 0.74786 0.86895 0.85883 0.0
C451 C 0.73499 0.82383 0.8593 0.0
H452 H 0.27854 0.96439 0.35837 0.0
H453 H 0.22319 0.02915 0.4099 0.0
H454 H 0.3089 0.0358 0.35825 0.0
H455 H 0.25411 0.10027 0.4101 0.0
H456 H 0.33217 0.2006 0.4192 0.0
H457 H 0.30856 0.12215 0.42056 0.0
H458 H 0.29828 0.12564 0.34554 0.0
H459 H 0.32105 0.20482 0.34437 0.0
C460 C 0.27302 0.99361 0.36989 0.0
C461 C 0.24836 0.99105 0.38414 0.0
C462 C 0.2904 0.03453 0.36973 0.0
C463 C 0.28394 0.07346 0.38421 0.0
C464 C 0.25974 0.07056 0.39891 0.0
C465 C 0.24196 0.02999 0.39871 0.0
C466 C 0.32581 0.18369 0.40295 0.0
C467 C 0.32908 0.208 0.3816 0.0
C468 C 0.31194 0.13923 0.40376 0.0
C469 C 0.30151 0.11792 0.38317 0.0
C470 C 0.3063 0.14107 0.36166 0.0
C471 C 0.31954 0.18608 0.36093 0.0
H472 H 0.82257 0.04987 0.12544 0.0
H473 H 0.75107 0.96801 0.0984 0.0
H474 H 0.79298 0.12055 0.12662 0.0
H475 H 0.72095 0.03964 0.09994 0.0
H476 H 0.69122 0.19621 0.08102 0.0
H477 H 0.71481 0.11858 0.08174 0.0
H478 H 0.75363 0.15405 0.14813 0.0
H479 H 0.73065 0.23188 0.14718 0.0
C480 C 0.80042 0.04676 0.11982 0.0
C481 C 0.78926 1.00287 0.11192 0.0
C482 C 0.7833 0.08748 0.12071 0.0
C483 C 0.75436 0.08588 0.11375 0.0
C484 C 0.74316 0.04223 0.10544 0.0
C485 C 0.7604 1.00113 0.10459 0.0
C486 C 0.70432 0.18712 0.09602 0.0
C487 C 0.70924 0.22071 0.11393 0.0
C488 C 0.71786 0.14246 0.09642 0.0
C489 C 0.73661 0.13024 0.11476 0.0
C490 C 0.73994 0.16263 0.13341 0.0
C491 C 0.72654 0.20723 0.13297 0.0
H492 H 0.21549 0.98661 0.62725 0.0
H493 H 0.28777 0.07286 0.60523 0.0
H494 H 0.24616 0.91732 0.62957 0.0
H495 H 0.319 1.00281 0.6081 0.0
H496 H 0.35223 0.84662 0.58982 0.0
H497 H 0.32904 0.92501 0.59028 0.0
H498 H 0.28336 0.88509 0.6532 0.0
H499 H 0.30559 0.80664 0.65205 0.0
C500 C 0.23804 0.99095 0.62304 0.0
C501 C 0.24911 0.03559 0.61621 0.0
C502 C 0.25578 0.95109 0.62459 0.0
C503 C 0.28529 0.95445 0.61951 0.0
C504 C 0.29641 0.99887 0.61219 0.0
C505 C 0.2785 0.03904 0.61057 0.0
C506 C 0.33799 0.8554 0.60416 0.0
C507 C 0.33066 0.82064 0.62091 0.0
C508 C 0.32455 0.90022 0.60438 0.0
C509 C 0.30371 0.91103 0.62144 0.0
C510 C 0.29858 0.87758 0.63937 0.0
C511 C 0.31163 0.83282 0.63895 0.0
H512 H 0.84313 0.69698 0.08314 0.0
H513 H 0.80277 0.73277 0.14885 0.0
H514 H 0.8189 0.61973 0.08345 0.0
H515 H 0.77917 0.65501 0.14946 0.0
H516 H 0.71052 0.54907 0.12634 0.0
H517 H 0.74016 0.62024 0.12826 0.0
H518 H 0.81215 0.54142 0.10074 0.0
H519 H 0.78201 0.46963 0.09836 0.0
C520 C 0.82968 0.68798 0.09798 0.0
C521 C 0.82475 0.72152 0.11588 0.0
C522 C 0.81576 0.64348 0.09815 0.0
C523 C 0.79661 0.63124 0.11626 0.0
C524 C 0.79317 0.66359 0.1349 0.0
C525 C 0.80696 0.70812 0.13468 0.0
C526 C 0.73267 0.54662 0.12069 0.0
C527 C 0.74382 0.50331 0.11225 0.0
C528 C 0.74983 0.58757 0.122 0.0
C529 C 0.77877 0.58669 0.11499 0.0
C530 C 0.78994 0.54355 0.10625 0.0
C531 C 0.77267 0.50233 0.10491 0.0
H532 H 0.3195 0.49571 0.58648 0.0
H533 H 0.26582 0.55468 0.64076 0.0
H534 H 0.28984 0.42306 0.5863 0.0
H535 H 0.23677 0.48166 0.64094 0.0
H536 H 0.22158 0.31376 0.65125 0.0
H537 H 0.24712 0.39056 0.65127 0.0
H538 H 0.23525 0.40178 0.57663 0.0
H539 H 0.20905 0.32598 0.57663 0.0
C540 C 0.30144 0.49316 0.59839 0.0
C541 C 0.29502 0.5311 0.61359 0.0
C542 C 0.28439 0.45167 0.59821 0.0
C543 C 0.26096 0.44668 0.61362 0.0
C544 C 0.25471 0.4844 0.62894 0.0
C545 C 0.2713 0.5263 0.62873 0.0
C546 C 0.22384 0.33316 0.63494 0.0
C547 C 0.21297 0.31385 0.614 0.0
C548 C 0.23855 0.37704 0.63494 0.0
C549 C 0.24339 0.402 0.61391 0.0
C550 C 0.23202 0.38323 0.59307 0.0
C551 C 0.2167 0.34003 0.59315 0.0
H552 H 0.71031 0.48675 0.86438 0.0
H553 H 0.78114 0.5681 0.89293 0.0
H554 H 0.74046 0.41669 0.86218 0.0
H555 H 0.81175 0.49729 0.89036 0.0
H556 H 0.84248 0.34066 0.90702 0.0
H557 H 0.81824 0.41761 0.90738 0.0
H558 H 0.78039 0.38576 0.84018 0.0
H559 H 0.80408 0.30845 0.84002 0.0
C560 C 0.73241 0.48984 0.87014 0.0
C561 C 0.74326 0.53337 0.87875 0.0
C562 C 0.74984 0.44956 0.86866 0.0
C563 C 0.77874 0.45136 0.87572 0.0
C564 C 0.78958 0.49459 0.88478 0.0
C565 C 0.77204 0.53519 0.88624 0.0
C566 C 0.82951 0.35044 0.89205 0.0
C567 C 0.82504 0.31795 0.87358 0.0
C568 C 0.81557 0.3947 0.89228 0.0
C569 C 0.79689 0.40762 0.87404 0.0
C570 C 0.79404 0.37652 0.85483 0.0
C571 C 0.80786 0.33227 0.85462 0.0
H572 H 0.2633 0.46722 0.34888 0.0
H573 H 0.30786 0.53124 0.4073 0.0
H574 H 0.23198 0.537 0.34629 0.0
H575 H 0.27575 0.60044 0.4051 0.0
H576 H 0.1909 0.68903 0.40675 0.0
H577 H 0.21528 0.6116 0.40834 0.0
H578 H 0.24701 0.63357 0.33824 0.0
H579 H 0.22361 0.71185 0.33705 0.0
C580 C 0.26622 0.49596 0.36132 0.0
C581 C 0.2881 0.49376 0.3783 0.0
C582 C 0.24829 0.53583 0.35979 0.0
C583 C 0.25133 0.57376 0.3756 0.0
C584 C 0.27283 0.57134 0.39284 0.0
C585 C 0.29128 0.53197 0.39401 0.0
C586 C 0.20207 0.67636 0.39135 0.0
C587 C 0.20481 0.7058 0.37154 0.0
C588 C 0.21637 0.63249 0.3924 0.0
C589 C 0.23311 0.61689 0.37346 0.0
C590 C 0.23412 0.64474 0.35302 0.0
C591 C 0.22049 0.68919 0.35222 0.0
H592 H 0.26174 0.55573 0.8565 0.0
H593 H 0.31651 0.4972 0.91025 0.0
H594 H 0.2326 0.48303 0.85705 0.0
H595 H 0.28684 0.42461 0.91105 0.0
H596 H 0.2079 0.32474 0.92131 0.0
H597 H 0.23354 0.40117 0.92141 0.0
H598 H 0.24212 0.39397 0.84633 0.0
H599 H 0.21699 0.31697 0.84622 0.0
C600 C 0.26747 0.5275 0.86857 0.0
C601 C 0.29153 0.53231 0.88333 0.0
C602 C 0.2508 0.48578 0.86879 0.0
C603 C 0.25738 0.44818 0.8841 0.0
C604 C 0.28112 0.45319 0.89917 0.0
C605 C 0.2982 0.4946 0.89862 0.0
C606 C 0.21468 0.33992 0.90475 0.0
C607 C 0.21018 0.3149 0.8837 0.0
C608 C 0.22968 0.38341 0.90487 0.0
C609 C 0.24 0.40339 0.88391 0.0
C610 C 0.23435 0.37952 0.86275 0.0
C611 C 0.2199 0.33551 0.86268 0.0
H612 H 0.80676 0.73912 0.34234 0.0
H613 H 0.84084 0.70776 0.41092 0.0
H614 H 0.78358 0.66109 0.34142 0.0
H615 H 0.81709 0.62985 0.41016 0.0
H616 H 0.78236 0.47763 0.39357 0.0
H617 H 0.81248 0.54977 0.39262 0.0
H618 H 0.74257 0.62793 0.36135 0.0
H619 H 0.71297 0.55671 0.36198 0.0
C620 C 0.80965 0.71538 0.35712 0.0
C621 C 0.82555 0.73012 0.37677 0.0
C622 C 0.79613 0.67065 0.35668 0.0
C623 C 0.79794 0.63935 0.37591 0.0
C624 C 0.81525 0.65286 0.395 0.0
C625 C 0.82889 0.69767 0.39542 0.0
C626 C 0.77349 0.51025 0.38648 0.0
C627 C 0.74522 0.51104 0.37774 0.0
C628 C 0.79073 0.55165 0.38598 0.0
C629 C 0.78015 0.59469 0.37661 0.0
C630 C 0.75179 0.59534 0.36817 0.0
C631 C 0.73465 0.55432 0.36872 0.0
H632 H 0.2652 0.4841 0.08783 0.0
H633 H 0.30115 0.51189 0.15601 0.0
H634 H 0.23473 0.55455 0.09155 0.0
H635 H 0.26941 0.57974 0.16072 0.0
H636 H 0.24535 0.73394 0.14614 0.0
H637 H 0.26703 0.6562 0.14785 0.0
H638 H 0.19643 0.59758 0.10769 0.0
H639 H 0.17545 0.67753 0.10487 0.0
C640 C 0.26619 0.50494 0.10377 0.0
C641 C 0.28595 0.49329 0.1214 0.0
C642 C 0.24849 0.54507 0.10607 0.0
C643 C 0.24969 0.57371 0.12634 0.0
C644 C 0.2684 0.5599 0.1445 0.0
C645 C 0.2866 0.52079 0.14189 0.0
C646 C 0.23408 0.70432 0.13806 0.0
C647 C 0.20883 0.71205 0.12518 0.0
C648 C 0.24647 0.65926 0.13916 0.0
C649 C 0.23379 0.62003 0.12772 0.0
C650 C 0.20723 0.627 0.11631 0.0
C651 C 0.19486 0.67265 0.11502 0.0
H652 H 0.8537 0.35649 0.5888 0.0
H653 H 0.80334 0.31443 0.64876 0.0
H654 H 0.83033 0.43468 0.58881 0.0
H655 H 0.78088 0.39274 0.64951 0.0
H656 H 0.71424 0.49351 0.62114 0.0
H657 H 0.7451 0.4245 0.62413 0.0
H658 H 0.8188 0.51184 0.60674 0.0
H659 H 0.78742 0.58158 0.60319 0.0
C660 C 0.83859 0.36481 0.60261 0.0
C661 C 0.83025 0.32954 0.61877 0.0
C662 C 0.82505 0.40949 0.60255 0.0
C663 C 0.80313 0.41959 0.61878 0.0
C664 C 0.797 0.38571 0.6363 0.0
C665 C 0.81015 0.34107 0.63613 0.0
C666 C 0.73701 0.49824 0.61792 0.0
C667 C 0.74833 0.54328 0.61209 0.0
C668 C 0.75483 0.4586 0.61988 0.0
C669 C 0.78462 0.46266 0.61623 0.0
C670 C 0.79598 0.50744 0.60974 0.0
C671 C 0.77799 0.54738 0.60769 0.0
H672 H 0.35509 0.52258 0.06673 0.0
H673 H 0.40827 0.41307 0.03627 0.0
H674 H 0.35884 0.56904 0.03096 0.0
H675 H 0.41306 0.46053 0.00068 0.0
H676 H 0.38278 0.52873 0.93131 0.0
H677 H 0.38598 0.48381 0.96774 0.0
H678 H 0.38803 0.61599 0.00668 0.0
H679 H 0.38356 0.6606 0.97035 0.0
C680 C 0.36811 0.50885 0.05256 0.0
C681 C 0.38135 0.46404 0.05439 0.0
C682 C 0.3704 0.53568 0.032 0.0
C683 C 0.38626 0.5187 0.01276 0.0
C684 C 0.40026 0.47448 0.01491 0.0
C685 C 0.3977 0.44738 0.03542 0.0
C686 C 0.38435 0.54817 0.94764 0.0
C687 C 0.38278 0.59823 0.94791 0.0
C688 C 0.38628 0.5224 0.96859 0.0
C689 C 0.387 0.54612 0.99032 0.0
C690 C 0.38682 0.59634 0.99041 0.0
C691 C 0.38451 0.62201 0.96951 0.0
H692 H 0.63167 0.40597 0.45891 0.0
H693 H 0.66566 0.53442 0.42715 0.0
H694 H 0.62756 0.44739 0.49624 0.0
H695 H 0.66191 0.57552 0.46456 0.0
H696 H 0.63348 0.64734 0.53148 0.0
H697 H 0.62862 0.60624 0.49407 0.0
H698 H 0.6616 0.47729 0.52539 0.0
H699 H 0.66609 0.51803 0.56283 0.0
C700 C 0.63795 0.44319 0.45978 0.0
C701 C 0.64905 0.46681 0.43999 0.0
C702 C 0.63578 0.46682 0.48125 0.0
C703 C 0.64456 0.51468 0.48344 0.0
C704 C 0.65466 0.53881 0.46345 0.0
C705 C 0.65693 0.51515 0.44199 0.0
C706 C 0.63928 0.61001 0.5305 0.0
C707 C 0.6502 0.58602 0.5502 0.0
C708 C 0.63669 0.58657 0.50899 0.0
C709 C 0.64484 0.53855 0.50669 0.0
C710 C 0.65481 0.51413 0.52659 0.0
C711 C 0.65751 0.53759 0.54807 0.0
H712 H 0.66475 0.52672 0.0625 0.0
H713 H 0.62716 0.40036 0.03153 0.0
H714 H 0.6598 0.56863 0.02534 0.0
H715 H 0.62184 0.44258 0.99452 0.0
H716 H 0.65985 0.5113 0.92722 0.0
H717 H 0.65557 0.4707 0.96472 0.0
H718 H 0.62589 0.60117 -0.00339 0.0
H719 H 0.63055 0.64218 0.9591 0.0
C720 C 0.65496 0.50812 0.04791 0.0
C721 C 0.6465 0.46007 0.05 0.0
C722 C 0.652 0.53225 0.02662 0.0
C723 C 0.64058 0.50884 0.00692 0.0
C724 C 0.63108 0.4614 0.00927 0.0
C725 C 0.63398 0.43731 0.03056 0.0
C726 C 0.65201 0.53124 0.94212 0.0
C727 C 0.64561 0.58006 0.94013 0.0
C728 C 0.64942 0.50786 0.96363 0.0
C729 C 0.64048 0.53275 0.98368 0.0
C730 C 0.63314 0.58116 0.98154 0.0
C731 C 0.63562 0.60454 0.95999 0.0
H732 H 0.37622 0.52319 0.56653 0.0
H733 H 0.39606 0.64924 0.52616 0.0
H734 H 0.37871 0.47489 0.53137 0.0
H735 H 0.40081 0.60073 0.49105 0.0
H736 H 0.36974 0.51288 0.42865 0.0
H737 H 0.37413 0.56172 0.46358 0.0
H738 H 0.40388 0.4386 0.50232 0.0
H739 H 0.39723 0.3894 0.46764 0.0
C740 C 0.38199 0.54031 0.55017 0.0
C741 C 0.38592 0.58993 0.54906 0.0
C742 C 0.38358 0.51256 0.5299 0.0
C743 C 0.38986 0.53358 0.50804 0.0
C744 C 0.39517 0.58313 0.50729 0.0
C745 C 0.39279 0.61103 0.52747 0.0
C746 C 0.37753 0.49653 0.44461 0.0
C747 C 0.38306 0.44739 0.44548 0.0
C748 C 0.38024 0.52459 0.46472 0.0
C749 C 0.38925 0.50441 0.4861 0.0
C750 C 0.39612 0.45547 0.48651 0.0
C751 C 0.39263 0.4272 0.46655 0.0
H752 H 0.90312 0.13559 0.95634 0.0
H753 H 0.86326 1.01055 0.92589 0.0
H754 H 0.90781 0.0938 0.99347 0.0
H755 H 0.86774 0.96896 0.96325 0.0
H756 H 0.89939 0.89591 0.02935 0.0
H757 H 0.90284 0.93628 0.99163 0.0
H758 H 0.87324 0.06686 0.02346 0.0
H759 H 0.87004 0.02679 0.06123 0.0
C760 C 0.89562 0.099 0.95746 0.0
C761 C 0.8827 0.07646 0.93813 0.0
C762 C 0.89818 0.0752 0.97881 0.0
C763 C 0.88796 0.02827 0.98133 0.0
C764 C 0.87605 1.00501 0.96178 0.0
C765 C 0.87339 0.0289 0.9404 0.0
C766 C 0.89402 0.93343 0.0284 0.0
C767 C 0.88444 0.95815 0.04833 0.0
C768 C 0.8958 0.95641 0.00674 0.0
C769 C 0.88821 1.00465 0.00457 0.0
C770 C 0.87954 0.02978 0.02463 0.0
C771 C 0.8776 1.00676 0.04626 0.0
H772 H 0.17862 0.88147 0.46819 0.0
H773 H 0.12956 0.98833 0.43148 0.0
H774 H 0.17547 0.92748 0.50384 0.0
H775 H 0.12491 0.03372 0.46774 0.0
H776 H 0.15296 0.12996 0.52886 0.0
H777 H 0.15018 0.08267 0.49327 0.0
H778 H 0.1484 0.9536 0.53486 0.0
H779 H 0.15295 1.00117 0.57032 0.0
C780 C 0.16654 0.91438 0.46784 0.0
C781 C 0.15431 0.93108 0.4469 0.0
C782 C 0.16455 0.94085 0.48847 0.0
C783 C 0.14983 0.98462 0.48898 0.0
C784 C 0.13687 1.00071 0.4681 0.0
C785 C 0.1393 0.97448 0.44729 0.0
C786 C 0.15165 0.09147 0.53038 0.0
C787 C 0.15328 0.06932 0.55242 0.0
C788 C 0.14991 0.06419 0.5099 0.0
C789 C 0.14925 1.01395 0.51092 0.0
C790 C 0.14962 0.99202 0.53315 0.0
C791 C 0.15196 0.01931 0.55359 0.0
H792 H 0.14678 0.86967 0.02522 0.0
H793 H 0.14823 1.00163 0.06417 0.0
H794 H 0.14281 0.91424 0.98884 0.0
H795 H 0.14535 0.04648 0.02768 0.0
H796 H 0.12357 0.11727 0.9589 0.0
H797 H 0.11854 0.07009 0.99455 0.0
H798 H 0.17237 0.96081 0.96451 0.0
H799 H 0.17645 1.0071 0.92868 0.0
C800 C 0.14606 0.90827 0.02604 0.0
C801 C 0.14789 0.93204 0.04766 0.0
C802 C 0.14403 0.93393 0.0051 0.0
C803 C 0.14414 0.98416 0.00512 0.0
C804 C 0.14486 1.00789 0.02686 0.0
C805 C 0.14657 0.98215 0.04786 0.0
C806 C 0.13401 0.08285 0.9598 0.0
C807 C 0.15036 0.06598 0.94085 0.0
C808 C 0.13132 0.0559 0.98036 0.0
C809 C 0.14512 1.01153 0.98262 0.0
C810 C 0.16097 0.99431 0.96342 0.0
C811 C 0.16344 0.02104 0.9428 0.0
H812 H 0.91292 0.92134 0.45606 0.0
H813 H 0.86313 0.03573 0.42589 0.0
H814 H 0.91897 0.96774 0.49182 0.0
H815 H 0.86821 0.08115 0.46176 0.0
H816 H 0.89347 0.16881 0.52272 0.0
H817 H 0.89915 0.12476 0.48638 0.0
H818 H 0.89086 0.99192 0.52442 0.0
H819 H 0.88643 0.03621 0.56093 0.0
C820 C 0.90343 0.95651 0.45699 0.0
C821 C 0.88754 0.97483 0.43811 0.0
C822 C 0.90673 0.98298 0.47756 0.0
C823 C 0.89401 0.02819 0.47979 0.0
C824 C 0.87879 0.04691 0.46061 0.0
C825 C 0.87572 0.02068 0.44001 0.0
C826 C 0.89335 0.13016 0.52336 0.0
C827 C 0.88932 0.10595 0.54466 0.0
C828 C 0.8964 0.10487 0.50249 0.0
C829 C 0.89499 0.05474 0.50234 0.0
C830 C 0.89233 0.03048 0.52384 0.0
C831 C 0.8897 0.05584 0.5448 0.0
H832 H 0.44187 0.39202 0.15053 0.0
H833 H 0.44435 0.29333 0.0927 0.0
H834 H 0.49356 0.38412 0.15555 0.0
H835 H 0.49638 0.28754 0.09659 0.0
H836 H 0.59115 0.27519 0.11103 0.0
H837 H 0.53919 0.26564 0.11575 0.0
H838 H 0.53296 0.41394 0.13595 0.0
H839 H 0.58427 0.42255 0.13241 0.0
C840 C 0.45354 0.36838 0.13897 0.0
C841 C 0.43918 0.3437 0.12109 0.0
C842 C 0.48324 0.36409 0.14168 0.0
C843 C 0.49949 0.33607 0.12612 0.0
C844 C 0.48476 0.30921 0.10905 0.0
C845 C 0.45488 0.31267 0.10671 0.0
C846 C 0.57866 0.30537 0.11694 0.0
C847 C 0.59194 0.34974 0.12113 0.0
C848 C 0.5488 0.30006 0.11946 0.0
C849 C 0.53159 0.33904 0.12613 0.0
C850 C 0.54524 0.3827 0.13121 0.0
C851 C 0.57489 0.38783 0.12892 0.0
H852 H 0.58879 0.61636 0.63589 0.0
H853 H 0.59329 0.76403 0.61431 0.0
H854 H 0.5373 0.6225 0.64034 0.0
H855 H 0.54139 0.77089 0.61978 0.0
H856 H 0.4491 0.73759 0.59422 0.0
H857 H 0.50052 0.74447 0.59916 0.0
H858 H 0.49615 0.6513 0.6594 0.0
H859 H 0.44436 0.64276 0.6538 0.0
C860 C 0.57886 0.65058 0.63254 0.0
C861 C 0.59523 0.68948 0.62429 0.0
C862 C 0.54917 0.65423 0.63535 0.0
C863 C 0.53489 0.69706 0.63021 0.0
C864 C 0.55151 0.73699 0.62344 0.0
C865 C 0.58134 0.73322 0.62046 0.0
C866 C 0.45893 0.71889 0.60873 0.0
C867 C 0.44251 0.6889 0.62338 0.0
C868 C 0.48859 0.72327 0.61171 0.0
C869 C 0.50278 0.69815 0.62956 0.0
C870 C 0.48611 0.67043 0.64513 0.0
C871 C 0.45634 0.66573 0.64203 0.0
H872 H 0.59069 0.75906 0.87678 0.0
H873 H 0.58383 0.6116 0.85541 0.0
H874 H 0.53868 0.76739 0.87281 0.0
H875 H 0.53224 0.61925 0.85238 0.0
H876 H 0.43929 0.64329 0.8404 0.0
H877 H 0.491 0.64985 0.83404 0.0
H878 H 0.49807 0.74198 0.8944 0.0
H879 H 0.4466 0.73697 0.90014 0.0
C880 C 0.5782 0.72861 0.87097 0.0
C881 C 0.59149 0.68451 0.86673 0.0
C882 C 0.54831 0.73323 0.86887 0.0
C883 C 0.53102 0.69383 0.86256 0.0
C884 C 0.54464 0.6506 0.85704 0.0
C885 C 0.5744 0.64608 0.859 0.0
C886 C 0.45184 0.66559 0.85206 0.0
C887 C 0.43872 0.6891 0.87095 0.0
C888 C 0.48157 0.66915 0.84851 0.0
C889 C 0.49897 0.69599 0.86387 0.0
C890 C 0.48554 0.72141 0.88201 0.0
C891 C 0.45587 0.71818 0.88543 0.0
H892 H 0.59207 0.28496 0.37806 0.0
H893 H 0.58432 0.43258 0.35717 0.0
H894 H 0.5401 0.27514 0.37431 0.0
H895 H 0.5327 0.42334 0.35427 0.0
H896 H 0.43987 0.39494 0.34166 0.0
H897 H 0.4917 0.39082 0.33556 0.0
H898 H 0.49943 0.29948 0.39619 0.0
H899 H 0.44788 0.3022 0.40174 0.0
C900 C 0.57938 0.31516 0.37243 0.0
C901 C 0.59243 0.35971 0.36822 0.0
C902 C 0.54951 0.30966 0.37043 0.0
C903 C 0.53199 0.34858 0.36425 0.0
C904 C 0.54533 0.39234 0.35883 0.0
C905 C 0.57508 0.39776 0.36071 0.0
C906 C 0.45258 0.37333 0.35343 0.0
C907 C 0.43962 0.34938 0.37235 0.0
C908 C 0.48238 0.37119 0.35003 0.0
C909 C 0.49997 0.34524 0.36553 0.0
C910 C 0.48673 0.3194 0.38371 0.0
C911 C 0.45702 0.3213 0.38701 0.0
H912 H 0.94135 0.77769 0.11558 0.0
H913 H 0.94977 0.92812 0.13079 0.0
H914 H 0.99278 0.7676 0.12251 0.0
H915 H 1.00082 0.91861 0.13665 0.0
H916 H 0.09217 0.89424 0.15348 0.0
H917 H 0.04008 0.89014 0.15817 0.0
H918 H 0.03534 0.78631 0.10239 0.0
H919 H 0.08702 0.78878 0.0985 0.0
C920 C 0.95407 0.80851 0.12055 0.0
C921 C 0.94141 0.8538 0.12228 0.0
C922 C 0.98363 0.80284 0.12441 0.0
C923 C 1.00122 0.84238 0.12993 0.0
C924 C 0.98815 0.88712 0.13276 0.0
C925 C 0.95872 0.89268 0.12911 0.0
C926 C 0.08004 0.86979 0.1426 0.0
C927 C 0.09385 0.84242 0.12539 0.0
C928 C 0.05009 0.86768 0.14513 0.0
C929 C 0.03324 0.83847 0.13039 0.0
C930 C 0.04737 0.80894 0.11424 0.0
C931 C 0.0772 0.81071 0.11186 0.0
H932 H 0.95046 0.24568 0.59327 0.0
H933 H 0.94309 0.14578 0.65064 0.0
H934 H 1.00209 0.24733 0.59795 0.0
H935 H 0.99511 0.149 0.65603 0.0
H936 H 0.0864 0.1082 0.63178 0.0
H937 H 0.03508 0.1182 0.63597 0.0
H938 H 0.04387 0.26788 0.61888 0.0
H939 H 0.09553 0.25727 0.6137 0.0
C940 C 0.95978 0.2248 0.60728 0.0
C941 C 0.94252 0.19495 0.62134 0.0
C942 C 0.98957 0.22609 0.6101 0.0
C943 C 1.00304 0.19792 0.62722 0.0
C944 C 0.9856 0.17041 0.6423 0.0
C945 C 0.95571 0.16881 0.63935 0.0
C946 C 0.07754 0.14347 0.62912 0.0
C947 C 0.09516 0.18178 0.62201 0.0
C948 C 0.04795 0.14932 0.63177 0.0
C949 C 0.03505 0.1938 0.62762 0.0
C950 C 0.0529 0.23283 0.62178 0.0
C951 C 0.08259 0.22687 0.61894 0.0
H952 H 0.08786 0.23869 0.90008 0.0
H953 H 0.09183 0.13571 0.84413 0.0
H954 H 0.03603 0.24483 0.89487 0.0
H955 H 0.04037 0.14382 0.83781 0.0
H956 H 0.94826 0.10966 0.85884 0.0
H957 H 0.9998 0.1165 0.85678 0.0
H958 H 0.99433 0.26637 0.87414 0.0
H959 H 0.94211 0.25872 0.87738 0.0
C960 C 0.07772 0.2184 0.88621 0.0
C961 C 0.09378 0.18618 0.87273 0.0
C962 C 0.04795 0.22206 0.88311 0.0
C963 C 0.03368 0.19418 0.86617 0.0
C964 C 0.0503 0.16472 0.85155 0.0
C965 C 0.07989 0.16029 0.85501 0.0
C966 C 0.95787 0.14434 0.862 0.0
C967 C 0.94091 0.18351 0.86855 0.0
C968 C 0.98767 0.14842 0.86058 0.0
C969 C 1.00157 0.19203 0.86531 0.0
C970 C 0.98451 0.23197 0.87076 0.0
C971 C 0.95451 0.22773 0.87242 0.0
H972 H 0.09164 0.92561 0.35692 0.0
H973 H 0.09189 0.77771 0.37792 0.0
H974 H 0.03959 0.9234 0.35395 0.0
H975 H 0.03991 0.77415 0.3735 0.0
H976 H 0.94741 0.80368 0.39709 0.0
H977 H 0.99919 0.7972 0.39293 0.0
H978 H 0.99725 0.90066 0.33667 0.0
H979 H 0.94563 0.90913 0.34209 0.0
C980 C 0.08059 0.89214 0.36017 0.0
C981 C 0.09584 0.85195 0.36782 0.0
C982 C 0.05059 0.8907 0.3584 0.0
C983 C 0.03509 0.84867 0.36375 0.0
C984 C 0.05074 0.80761 0.36989 0.0
C985 C 0.08066 0.80942 0.37218 0.0
C986 C 0.95804 0.82443 0.3836 0.0
C987 C 0.9425 0.85716 0.37004 0.0
C988 C 0.98787 0.82064 0.38108 0.0
C989 C 1.00287 0.84878 0.36457 0.0
C990 C 0.98684 0.87936 0.35004 0.0
C991 C 0.95712 0.8839 0.35295 0.0
H992 H 0.31186 0.37079 0.02438 0.0
H993 H 0.27347 0.2642 0.06933 0.0
H994 H 0.2916 0.33081 0.99019 0.0
H995 H 0.25481 0.22252 0.03538 0.0
H996 H 0.27584 0.22634 0.93189 0.0
H997 H 0.29707 0.26221 0.96677 0.0
H998 H 0.22075 0.22557 0.00622 0.0
H999 H 0.20063 0.18739 0.97221 0.0
C1000 C 0.29883 0.33905 0.02687 0.0
C1001 C 0.29376 0.32094 0.04938 0.0
C1002 C 0.28765 0.31566 0.00733 0.0
C1003 C 0.27179 0.27313 0.00997 0.0
C1004 C 0.26645 0.2556 0.03265 0.0
C1005 C 0.27703 0.27958 0.05216 0.0
C1006 C 0.26397 0.22506 0.94818 0.0
C1007 C 0.2365 0.20433 0.9492 0.0
C1008 C 0.27592 0.24621 0.96809 0.0
C1009 C 0.26043 0.24747 0.98925 0.0
C1010 C 0.2335 0.22491 0.99038 0.0
C1011 C 0.22185 0.20315 0.97072 0.0
H1012 H 0.77094 0.7868 0.42474 0.0
H1013 H 0.82234 0.87657 0.46983 0.0
H1014 H 0.75023 0.74777 0.45873 0.0
H1015 H 0.80046 0.83923 0.50411 0.0
H1016 H 0.77797 0.73146 0.56058 0.0
H1017 H 0.80006 0.76715 0.52591 0.0
H1018 H 0.71867 0.75825 0.48967 0.0
H1019 H 0.69729 0.72057 0.5234 0.0
C1020 C 0.77717 0.79914 0.44198 0.0
C1021 C 0.79806 0.83495 0.44468 0.0
C1022 C 0.76535 0.77668 0.46152 0.0
C1023 C 0.77373 0.79017 0.48424 0.0
C1024 C 0.79397 0.82718 0.4869 0.0
C1025 C 0.8062 0.84907 0.4673 0.0
C1026 C 0.76501 0.73646 0.54504 0.0
C1027 C 0.73589 0.72318 0.54482 0.0
C1028 C 0.77754 0.75745 0.52526 0.0
C1029 C 0.76109 0.76598 0.505 0.0
C1030 C 0.73217 0.75165 0.50474 0.0
C1031 C 0.71983 0.73017 0.52426 0.0
H1032 H 0.19635 0.822 0.03005 0.0
H1033 H 0.28194 0.81832 0.05892 0.0
H1034 H 0.21374 0.78929 0.99356 0.0
H1035 H 0.29998 0.78669 0.02165 0.0
H1036 H 0.31467 0.67311 0.96629 0.0
H1037 H 0.29635 0.71094 0.00176 0.0
H1038 H 0.24142 0.80021 0.95936 0.0
H1039 H 0.25912 0.76071 0.92414 0.0
C1040 C 0.21916 0.81544 0.02824 0.0
C1041 C 0.23785 0.82236 0.04724 0.0
C1042 C 0.22915 0.79672 0.00728 0.0
C1043 C 0.25816 0.78457 0.00477 0.0
C1044 C 0.27734 0.7947 0.02326 0.0
C1045 C 0.26723 0.81357 0.04442 0.0
C1046 C 0.29777 0.69944 0.9648 0.0
C1047 C 0.28744 0.71304 0.94277 0.0
C1048 C 0.28785 0.72199 0.98498 0.0
C1049 C 0.26779 0.75921 0.98339 0.0
C1050 C 0.25668 0.77142 0.96126 0.0
C1051 C 0.26644 0.74846 0.94111 0.0
H1052 H 0.83609 0.23015 0.52603 0.0
H1053 H 0.75255 0.21162 0.5577 0.0
H1054 H 0.81406 0.26044 0.49072 0.0
H1055 H 0.73001 0.24093 0.5216 0.0
H1056 H 0.70668 0.35989 0.46912 0.0
H1057 H 0.72691 0.31889 0.50288 0.0
H1058 H 0.78542 0.24378 0.45732 0.0
H1059 H 0.76577 0.28587 0.42367 0.0
C1060 C 0.81285 0.23169 0.52519 0.0
C1061 C 0.79597 0.21924 0.54466 0.0
C1062 C 0.80021 0.24876 0.50485 0.0
C1063 C 0.7703 0.25364 0.50341 0.0
C1064 C 0.75319 0.23834 0.52239 0.0
C1065 C 0.76597 0.22104 0.5429 0.0
C1066 C 0.72412 0.33504 0.46638 0.0
C1067 C 0.7349 0.32651 0.4438 0.0
C1068 C 0.73539 0.31099 0.48567 0.0
C1069 C 0.75753 0.27765 0.48277 0.0
C1070 C 0.76853 0.26956 0.46019 0.0
C1071 C 0.75743 0.29394 0.44092 0.0
H1072 H 0.76846 0.7773 0.06603 0.0
H1073 H 0.82368 0.86003 0.02059 0.0
H1074 H 0.74664 0.73947 0.03213 0.0
H1075 H 0.80088 0.82395 0.98648 0.0
H1076 H 0.69357 0.71668 0.96683 0.0
H1077 H 0.71591 0.75246 0.00068 0.0
H1078 H 0.79802 0.75143 0.96529 0.0
H1079 H 0.77513 0.71756 0.93059 0.0
C1080 C 0.77539 0.7883 0.04874 0.0
C1081 C 0.79763 0.82177 0.04592 0.0
C1082 C 0.76293 0.76655 0.02926 0.0
C1083 C 0.77207 0.77843 0.00649 0.0
C1084 C 0.79375 0.8131 0.00372 0.0
C1085 C 0.80655 0.83427 0.02324 0.0
C1086 C 0.71646 0.72368 0.9662 0.0
C1087 C 0.73254 0.71443 0.94587 0.0
C1088 C 0.72934 0.74407 0.98578 0.0
C1089 C 0.75878 0.75511 0.98577 0.0
C1090 C 0.77515 0.74432 0.96574 0.0
C1091 C 0.76213 0.72441 0.94593 0.0
H1092 H 0.21643 0.17144 0.52243 0.0
H1093 H 0.26115 0.26909 0.56832 0.0
H1094 H 0.23324 0.21651 0.48857 0.0
H1095 H 0.27684 0.31557 0.53463 0.0
H1096 H 0.32949 0.34061 0.46719 0.0
H1097 H 0.30887 0.30991 0.50304 0.0
H1098 H 0.22726 0.29065 0.46799 0.0
H1099 H 0.24873 0.32002 0.43147 0.0
C1100 C 0.23011 0.20232 0.5252 0.0
C1101 C 0.23793 0.21637 0.54789 0.0
C1102 C 0.23923 0.22872 0.50588 0.0
C1103 C 0.25599 0.2701 0.50891 0.0
C1104 C 0.26415 0.28366 0.53166 0.0
C1105 C 0.25542 0.25678 0.55096 0.0
C1106 C 0.30691 0.33096 0.46734 0.0
C1107 C 0.29069 0.33194 0.44666 0.0
C1108 C 0.29503 0.31353 0.48792 0.0
C1109 C 0.26657 0.29692 0.48828 0.0
C1110 C 0.24949 0.30215 0.46806 0.0
C1111 C 0.26153 0.31962 0.44729 0.0
H1112 H 0.69563 0.32873 0.02133 0.0
H1113 H 0.77582 0.31733 0.05907 0.0
H1114 H 0.71746 0.29299 0.98738 0.0
H1115 H 0.79836 0.28361 0.02424 0.0
H1116 H 0.82096 0.1757 0.9677 0.0
H1117 H 0.79912 0.21254 0.00198 0.0
H1118 H 0.74925 0.30405 0.95665 0.0
H1119 H 0.76995 0.26543 0.92261 0.0
C1120 C 0.71817 0.31947 0.02227 0.0
C1121 C 0.73393 0.32569 0.04306 0.0
C1122 C 0.73078 0.2991 0.00262 0.0
C1123 C 0.75969 0.28511 0.00299 0.0
C1124 C 0.77586 0.29303 0.02348 0.0
C1125 C 0.76306 0.31289 0.04337 0.0
C1126 C 0.80495 0.20317 0.96517 0.0
C1127 C 0.79686 0.21732 0.94254 0.0
C1128 C 0.79273 0.22478 0.98478 0.0
C1129 C 0.77253 0.2616 0.98216 0.0
C1130 C 0.76431 0.27529 0.95942 0.0
C1131 C 0.77613 0.25308 0.93985 0.0
H1132 H 0.28331 0.82042 0.43571 0.0
H1133 H 0.19698 0.79667 0.46101 0.0
H1134 H 0.30219 0.78991 0.473 0.0
H1135 H 0.21539 0.76502 0.49721 0.0
H1136 H 0.25783 0.7446 0.56827 0.0
H1137 H 0.23887 0.78135 0.5327 0.0
H1138 H 0.30564 0.71343 0.49214 0.0
H1139 H 0.325 0.67858 0.52794 0.0
C1140 C 0.26847 0.80946 0.4493 0.0
C1141 C 0.23877 0.81048 0.4454 0.0
C1142 C 0.27916 0.79139 0.47049 0.0
C1143 C 0.26025 0.77435 0.48798 0.0
C1144 C 0.23061 0.77802 0.48434 0.0
C1145 C 0.22006 0.79597 0.46342 0.0
C1146 C 0.26767 0.73633 0.55159 0.0
C1147 C 0.29229 0.70798 0.55057 0.0
C1148 C 0.25715 0.75778 0.53124 0.0
C1149 C 0.27101 0.75088 0.50956 0.0
C1150 C 0.29487 0.72047 0.50857 0.0
C1151 C 0.30553 0.69957 0.52892 0.0
H1152 H 0.38577 0.3919 0.19031 0.0
H1153 H 0.29495 0.35883 0.18893 0.0
H1154 H 0.38533 0.38736 0.23284 0.0
H1155 H 0.29452 0.35509 0.23156 0.0
H1156 H 0.31127 0.30989 0.30755 0.0
H1157 H 0.31286 0.30792 0.26485 0.0
H1158 H 0.3655 0.43529 0.26468 0.0
H1159 H 0.36437 0.43698 0.30717 0.0
C1160 C 0.3657 0.38369 0.19906 0.0
C1161 C 0.34033 0.37614 0.18622 0.0
C1162 C 0.36545 0.38127 0.22343 0.0
C1163 C 0.33985 0.37119 0.23553 0.0
C1164 C 0.31462 0.36253 0.22271 0.0
C1165 C 0.31485 0.36498 0.1983 0.0
C1166 C 0.32323 0.33741 0.2984 0.0
C1167 C 0.33761 0.37369 0.31078 0.0
C1168 C 0.32403 0.33637 0.27395 0.0
C1169 C 0.33933 0.37142 0.26144 0.0
C1170 C 0.35386 0.40741 0.27384 0.0
C1171 C 0.35301 0.40854 0.29821 0.0
H1172 H 0.65704 0.60505 0.80212 0.0
H1173 H 0.7359 0.68656 0.80632 0.0
H1174 H 0.65923 0.60807 0.75976 0.0
H1175 H 0.73754 0.69125 0.76365 0.0
H1176 H 0.74452 0.64751 0.68581 0.0
H1177 H 0.74487 0.64576 0.72858 0.0
H1178 H 0.65264 0.66315 0.72905 0.0
H1179 H 0.65224 0.66292 0.6866 0.0
C1180 C 0.67477 0.62397 0.79398 0.0
C1181 C 0.69625 0.64572 0.80758 0.0
C1182 C 0.67593 0.62598 0.76964 0.0
C1183 C 0.69838 0.65041 0.75824 0.0
C1184 C 0.72009 0.67178 0.77184 0.0
C1185 C 0.71909 0.66928 0.79628 0.0
C1186 C 0.72439 0.65111 0.69513 0.0
C1187 C 0.69833 0.65473 0.68289 0.0
C1188 C 0.72458 0.65032 0.71962 0.0
C1189 C 0.69873 0.65369 0.73228 0.0
C1190 C 0.67286 0.65911 0.71991 0.0
C1191 C 0.67264 0.65927 0.69554 0.0
H1192 H 0.32313 0.7208 0.80659 0.0
H1193 H 0.3514 0.5742 0.80726 0.0
H1194 H 0.32469 0.72115 0.76411 0.0
H1195 H 0.35177 0.57374 0.76458 0.0
H1196 H 0.37589 0.60258 0.68847 0.0
H1197 H 0.37594 0.6025 0.7311 0.0
H1198 H 0.30066 0.69232 0.73101 0.0
H1199 H 0.30145 0.69403 0.68849 0.0
C1200 C 0.32941 0.68842 0.79764 0.0
C1201 C 0.33704 0.64741 0.81032 0.0
C1202 C 0.33014 0.68851 0.77321 0.0
C1203 C 0.33816 0.64737 0.76076 0.0
C1204 C 0.34588 0.60633 0.7735 0.0
C1205 C 0.3455 0.60645 0.798 0.0
C1206 C 0.35936 0.62231 0.69758 0.0
C1207 C 0.33871 0.64838 0.68507 0.0
C1208 C 0.35927 0.62205 0.72207 0.0
C1209 C 0.33831 0.64741 0.73464 0.0
C1210 C 0.31751 0.67312 0.72203 0.0
C1211 C 0.31783 0.67389 0.69758 0.0
H1212 H 0.64899 0.37764 0.18597 0.0
H1213 H 0.74127 0.39416 0.18452 0.0
H1214 H 0.64984 0.37763 0.22846 0.0
H1215 H 0.74209 0.39613 0.22724 0.0
H1216 H 0.73487 0.35707 0.30502 0.0
H1217 H 0.73541 0.35124 0.26241 0.0
H1218 H 0.65672 0.43235 0.25923 0.0
H1219 H 0.65564 0.43649 0.30163 0.0
C1220 C 0.66948 0.38152 0.19477 0.0
C1221 C 0.69504 0.3863 0.1819 0.0
C1222 C 0.66997 0.38182 0.21916 0.0
C1223 C 0.69599 0.3876 0.23134 0.0
C1224 C 0.72168 0.39123 0.21846 0.0
C1225 C 0.72123 0.39031 0.19398 0.0
C1226 C 0.71773 0.37366 0.29517 0.0
C1227 C 0.69517 0.3971 0.30671 0.0
C1228 C 0.71809 0.3705 0.27074 0.0
C1229 C 0.69602 0.39105 0.25733 0.0
C1230 C 0.67373 0.4151 0.26895 0.0
C1231 C 0.67321 0.41779 0.29331 0.0
H1232 H 0.87997 0.93315 0.18646 0.0
H1233 H 0.80151 0.85012 0.18507 0.0
H1234 H 0.87938 0.93195 0.22889 0.0
H1235 H 0.8015 0.84727 0.22775 0.0
H1236 H 0.79501 0.89805 0.30413 0.0
H1237 H 0.7944 0.89601 0.26148 0.0
H1238 H 0.88674 0.8801 0.26092 0.0
H1239 H 0.8874 0.88414 0.3034 0.0
C1240 C 0.86271 0.91423 0.19523 0.0
C1241 C 0.84076 0.89177 0.18241 0.0
C1242 C 0.86247 0.91325 0.2196 0.0
C1243 C 0.8405 0.88921 0.23177 0.0
C1244 C 0.81855 0.86661 0.21894 0.0
C1245 C 0.81861 0.86807 0.19449 0.0
C1246 C 0.81514 0.89397 0.29485 0.0
C1247 C 0.84128 0.89179 0.30706 0.0
C1248 C 0.81479 0.89252 0.27042 0.0
C1249 C 0.84055 0.88829 0.25775 0.0
C1250 C 0.86657 0.88456 0.27008 0.0
C1251 C 0.86695 0.88662 0.29445 0.0
H1252 H 0.15497 0.11314 0.80515 0.0
H1253 H 0.23401 0.19444 0.80752 0.0
H1254 H 0.15624 0.11442 0.76281 0.0
H1255 H 0.23467 0.19759 0.76479 0.0
H1256 H 0.24229 0.14663 0.68837 0.0
H1257 H 0.24214 0.1498 0.73101 0.0
H1258 H 0.1497 0.1642 0.73035 0.0
H1259 H 0.14983 0.15879 0.68791 0.0
C1260 C 0.17248 0.13187 0.79661 0.0
C1261 C 0.19441 0.1537 0.80973 0.0
C1262 C 0.1731 0.1329 0.77224 0.0
C1263 C 0.19544 0.15641 0.76027 0.0
C1264 C 0.21732 0.17862 0.7734 0.0
C1265 C 0.21689 0.17707 0.79789 0.0
C1266 C 0.22197 0.15056 0.69739 0.0
C1267 C 0.19604 0.15187 0.68483 0.0
C1268 C 0.22188 0.15271 0.72184 0.0
C1269 C 0.19589 0.15687 0.73422 0.0
C1270 C 0.17007 0.15977 0.7215 0.0
C1271 C 0.17013 0.1569 0.69713 0.0
H1272 H 0.86291 0.09212 0.68344 0.0
H1273 H 0.80968 0.21818 0.68421 0.0
H1274 H 0.86274 0.0908 0.72599 0.0
H1275 H 0.81002 0.21725 0.72687 0.0
H1276 H 0.79316 0.16911 0.80281 0.0
H1277 H 0.79202 0.17071 0.76013 0.0
H1278 H 0.88244 0.13697 0.75822 0.0
H1279 H 0.88353 0.13447 0.80074 0.0
C1280 C 0.85119 0.11961 0.69265 0.0
C1281 C 0.8363 0.15525 0.68036 0.0
C1282 C 0.85126 0.119 0.71708 0.0
C1283 C 0.83647 0.15403 0.72982 0.0
C1284 C 0.82137 0.18946 0.71756 0.0
C1285 C 0.8213 0.1901 0.6931 0.0
C1286 C 0.8128 0.16205 0.79329 0.0
C1287 C 0.83839 0.15136 0.80522 0.0
C1288 C 0.81217 0.16322 0.76883 0.0
C1289 C 0.8371 0.15374 0.75579 0.0
C1290 C 0.86274 0.14363 0.76774 0.0
C1291 C 0.86338 0.14245 0.79214 0.0
H1292 H 0.24 0.83912 0.30557 0.0
H1293 H 0.16555 0.93036 0.30668 0.0
H1294 H 0.24025 0.84159 0.26304 0.0
H1295 H 0.1648 0.93101 0.26407 0.0
H1296 H 0.18499 0.95782 0.18733 0.0
H1297 H 0.18667 0.95894 0.22994 0.0
H1298 H 0.21683 0.8132 0.22997 0.0
H1299 H 0.21648 0.81312 0.18744 0.0
C1300 C 0.22353 0.85947 0.29671 0.0
C1301 C 0.20278 0.88459 0.30957 0.0
C1302 C 0.22351 0.86063 0.27223 0.0
C1303 C 0.20243 0.88627 0.25986 0.0
C1304 C 0.1817 0.91151 0.27281 0.0
C1305 C 0.18201 0.91094 0.29733 0.0
C1306 C 0.19207 0.92609 0.19647 0.0
C1307 C 0.20072 0.88547 0.18394 0.0
C1308 C 0.19285 0.92657 0.22098 0.0
C1309 C 0.2019 0.88617 0.23365 0.0
C1310 C 0.21033 0.84543 0.221 0.0
C1311 C 0.20996 0.84523 0.19652 0.0
loop_
_geom_bond_atom_site_label_1
_geom_bond_atom_site_label_2
_geom_bond_distance
_geom_bond_site_symmetry_2
_ccdc_geom_bond_type
Fe0 O2 1.918 . S
Fe0 O5 1.997 . S
Fe0 O6 2.002 . S
Fe0 O11 1.976 . S
Fe0 O14 1.996 . S
Fe1 O2 1.918 . S
Fe1 O9 1.997 . S
Fe1 O12 1.996 . S
Fe1 O16 1.976 . S
Fe1 O19 2.002 . S
O2 Fe0 1.918 . S
O2 Fe1 1.918 . S
O2 Fe3 1.918 . S
Fe3 O2 1.918 . S
Fe3 O4 2.002 . S
Fe3 O13 1.976 . S
Fe3 O17 1.996 . S
Fe3 O20 1.997 . S
O4 Fe3 2.002 . S
O4 C21 1.295 . S
O5 Fe0 1.997 . S
O5 C21 1.235 . S
O6 Fe0 2.002 . S
O6 C7 1.295 . S
C7 O6 1.295 . S
C7 O9 1.235 . S
C8 O13 1.287 . S
C8 O14 1.255 . S
O9 Fe1 1.997 . S
O9 C7 1.235 . S
C10 O16 1.287 . S
C10 O17 1.255 . S
O11 Fe0 1.976 . S
O11 C18 1.287 . S
O12 Fe1 1.996 . S
O12 C18 1.255 . S
O13 Fe3 1.976 . S
O13 C8 1.287 . S
O14 Fe0 1.996 . S
O14 C8 1.255 . S
C15 O19 1.295 . S
C15 O20 1.235 . S
O16 Fe1 1.976 . S
O16 C10 1.287 . S
O17 Fe3 1.996 . S
O17 C10 1.255 . S
C18 O11 1.287 . S
C18 O12 1.255 . S
O19 Fe1 2.002 . S
O19 C15 1.295 . S
O20 Fe3 1.997 . S
O20 C15 1.235 . S
C21 O4 1.295 . S
C21 O5 1.235 . S
Fe22 O24 1.918 . S
Fe22 O27 1.997 . S
Fe22 O28 2.002 . S
Fe22 O33 1.976 . S
Fe22 O36 1.996 . S
Fe23 O24 1.918 . S
Fe23 O31 1.997 . S
Fe23 O34 1.996 . S
Fe23 O38 1.976 . S
Fe23 O41 2.002 . S
O24 Fe22 1.918 . S
O24 Fe23 1.918 . S
O24 Fe25 1.918 . S
Fe25 O24 1.918 . S
Fe25 O26 2.002 . S
Fe25 O35 1.976 . S
Fe25 O39 1.996 . S
Fe25 O42 1.997 . S
O26 Fe25 2.002 . S
O26 C43 1.295 . S
O27 Fe22 1.997 . S
O27 C43 1.235 . S
O28 Fe22 2.002 . S
O28 C29 1.295 . S
C29 O28 1.295 . S
C29 O31 1.235 . S
C30 O35 1.287 . S
C30 O36 1.255 . S
O31 Fe23 1.997 . S
O31 C29 1.235 . S
C32 O38 1.287 . S
C32 O39 1.255 . S
O33 Fe22 1.976 . S
O33 C40 1.287 . S
O34 Fe23 1.996 . S
O34 C40 1.255 . S
O35 Fe25 1.976 . S
O35 C30 1.287 . S
O36 Fe22 1.996 . S
O36 C30 1.255 . S
C37 O41 1.295 . S
C37 O42 1.235 . S
O38 Fe23 1.976 . S
O38 C32 1.287 . S
O39 Fe25 1.996 . S
O39 C32 1.255 . S
C40 O33 1.287 . S
C40 O34 1.255 . S
O41 Fe23 2.002 . S
O41 C37 1.295 . S
O42 Fe25 1.997 . S
O42 C37 1.235 . S
C43 O26 1.295 . S
C43 O27 1.235 . S
Fe44 O46 1.918 . S
Fe44 O49 1.997 . S
Fe44 O50 2.002 . S
Fe44 O55 1.976 . S
Fe44 O58 1.996 . S
Fe45 O46 1.918 . S
Fe45 O53 1.997 . S
Fe45 O56 1.996 . S
Fe45 O60 1.976 . S
Fe45 O63 2.002 . S
O46 Fe44 1.918 . S
O46 Fe45 1.918 . S
O46 Fe47 1.918 . S
Fe47 O46 1.918 . S
Fe47 O48 2.002 . S
Fe47 O57 1.976 . S
Fe47 O61 1.996 . S
Fe47 O64 1.997 . S
O48 Fe47 2.002 . S
O48 C65 1.295 . S
O49 Fe44 1.997 . S
O49 C65 1.235 . S
O50 Fe44 2.002 . S
O50 C51 1.295 . S
C51 O50 1.295 . S
C51 O53 1.235 . S
C52 O57 1.287 . S
C52 O58 1.255 . S
O53 Fe45 1.997 . S
O53 C51 1.235 . S
C54 O60 1.287 . S
C54 O61 1.255 . S
O55 Fe44 1.976 . S
O55 C62 1.287 . S
O56 Fe45 1.996 . S
O56 C62 1.255 . S
O57 Fe47 1.976 . S
O57 C52 1.287 . S
O58 Fe44 1.996 . S
O58 C52 1.255 . S
C59 O63 1.295 . S
C59 O64 1.235 . S
O60 Fe45 1.976 . S
O60 C54 1.287 . S
O61 Fe47 1.996 . S
O61 C54 1.255 . S
C62 O55 1.287 . S
C62 O56 1.255 . S
O63 Fe45 2.002 . S
O63 C59 1.295 . S
O64 Fe47 1.997 . S
O64 C59 1.235 . S
C65 O48 1.295 . S
C65 O49 1.235 . S
Fe66 O68 1.918 . S
Fe66 O71 1.997 . S
Fe66 O72 2.002 . S
Fe66 O77 1.976 . S
Fe66 O80 1.996 . S
Fe67 O68 1.918 . S
Fe67 O75 1.997 . S
Fe67 O78 1.996 . S
Fe67 O82 1.976 . S
Fe67 O85 2.002 . S
O68 Fe66 1.918 . S
O68 Fe67 1.918 . S
O68 Fe69 1.918 . S
Fe69 O68 1.918 . S
Fe69 O70 2.002 . S
Fe69 O79 1.976 . S
Fe69 O83 1.996 . S
Fe69 O86 1.997 . S
O70 Fe69 2.002 . S
O70 C87 1.295 . S
O71 Fe66 1.997 . S
O71 C87 1.235 . S
O72 Fe66 2.002 . S
O72 C73 1.295 . S
C73 O72 1.295 . S
C73 O75 1.235 . S
C74 O79 1.287 . S
C74 O80 1.255 . S
O75 Fe67 1.997 . S
O75 C73 1.235 . S
C76 O82 1.287 . S
C76 O83 1.255 . S
O77 Fe66 1.976 . S
O77 C84 1.287 . S
O78 Fe67 1.996 . S
O78 C84 1.255 . S
O79 Fe69 1.976 . S
O79 C74 1.287 . S
O80 Fe66 1.996 . S
O80 C74 1.255 . S
C81 O85 1.295 . S
C81 O86 1.235 . S
O82 Fe67 1.976 . S
O82 C76 1.287 . S
O83 Fe69 1.996 . S
O83 C76 1.255 . S
C84 O77 1.287 . S
C84 O78 1.255 . S
O85 Fe67 2.002 . S
O85 C81 1.295 . S
O86 Fe69 1.997 . S
O86 C81 1.235 . S
C87 O70 1.295 . S
C87 O71 1.235 . S
Fe88 O90 1.918 . S
Fe88 O93 1.997 . S
Fe88 O94 2.002 . S
Fe88 O99 1.976 . S
Fe88 O102 1.996 . S
Fe89 O90 1.918 . S
Fe89 O97 1.997 . S
Fe89 O100 1.996 . S
Fe89 O104 1.976 . S
Fe89 O107 2.002 . S
O90 Fe88 1.918 . S
O90 Fe89 1.918 . S
O90 Fe91 1.918 . S
Fe91 O90 1.918 . S
Fe91 O92 2.002 . S
Fe91 O101 1.976 . S
Fe91 O105 1.996 . S
Fe91 O108 1.997 . S
O92 Fe91 2.002 . S
O92 C109 1.295 . S
O93 Fe88 1.997 . S
O93 C109 1.235 . S
O94 Fe88 2.002 . S
O94 C95 1.295 . S
C95 O94 1.295 . S
C95 O97 1.235 . S
C96 O101 1.287 . S
C96 O102 1.255 . S
O97 Fe89 1.997 . S
O97 C95 1.235 . S
C98 O104 1.287 . S
C98 O105 1.255 . S
O99 Fe88 1.976 . S
O99 C106 1.287 . S
O100 Fe89 1.996 . S
O100 C106 1.255 . S
O101 Fe91 1.976 . S
O101 C96 1.287 . S
O102 Fe88 1.996 . S
O102 C96 1.255 . S
C103 O107 1.295 . S
C103 O108 1.235 . S
O104 Fe89 1.976 . S
O104 C98 1.287 . S
O105 Fe91 1.996 . S
O105 C98 1.255 . S
C106 O99 1.287 . S
C106 O100 1.255 . S
O107 Fe89 2.002 . S
O107 C103 1.295 . S
O108 Fe91 1.997 . S
O108 C103 1.235 . S
C109 O92 1.295 . S
C109 O93 1.235 . S
Fe110 O112 1.918 . S
Fe110 O115 1.997 . S
Fe110 O116 2.002 . S
Fe110 O121 1.976 . S
Fe110 O124 1.996 . S
Fe111 O112 1.918 . S
Fe111 O119 1.997 . S
Fe111 O122 1.996 . S
Fe111 O126 1.976 . S
Fe111 O129 2.002 . S
O112 Fe110 1.918 . S
O112 Fe111 1.918 . S
O112 Fe113 1.918 . S
Fe113 O112 1.918 . S
Fe113 O114 2.002 . S
Fe113 O123 1.976 . S
Fe113 O127 1.996 . S
Fe113 O130 1.997 . S
O114 Fe113 2.002 . S
O114 C131 1.295 . S
O115 Fe110 1.997 . S
O115 C131 1.235 . S
O116 Fe110 2.002 . S
O116 C117 1.295 . S
C117 O116 1.295 . S
C117 O119 1.235 . S
C118 O123 1.287 . S
C118 O124 1.255 . S
O119 Fe111 1.997 . S
O119 C117 1.235 . S
C120 O126 1.287 . S
C120 O127 1.255 . S
O121 Fe110 1.976 . S
O121 C128 1.287 . S
O122 Fe111 1.996 . S
O122 C128 1.255 . S
O123 Fe113 1.976 . S
O123 C118 1.287 . S
O124 Fe110 1.996 . S
O124 C118 1.255 . S
C125 O129 1.295 . S
C125 O130 1.235 . S
O126 Fe111 1.976 . S
O126 C120 1.287 . S
O127 Fe113 1.996 . S
O127 C120 1.255 . S
C128 O121 1.287 . S
C128 O122 1.255 . S
O129 Fe111 2.002 . S
O129 C125 1.295 . S
O130 Fe113 1.997 . S
O130 C125 1.235 . S
C131 O114 1.295 . S
C131 O115 1.235 . S
Fe132 O134 1.918 . S
Fe132 O137 1.997 . S
Fe132 O138 2.002 . S
Fe132 O143 1.976 . S
Fe132 O146 1.996 . S
Fe133 O134 1.918 . S
Fe133 O141 1.997 . S
Fe133 O144 1.996 . S
Fe133 O148 1.976 . S
Fe133 O151 2.002 . S
O134 Fe132 1.918 . S
O134 Fe133 1.918 . S
O134 Fe135 1.918 . S
Fe135 O134 1.918 . S
Fe135 O136 2.002 . S
Fe135 O145 1.976 . S
Fe135 O149 1.996 . S
Fe135 O152 1.997 . S
O136 Fe135 2.002 . S
O136 C153 1.295 . S
O137 Fe132 1.997 . S
O137 C153 1.235 . S
O138 Fe132 2.002 . S
O138 C139 1.295 . S
C139 O138 1.295 . S
C139 O141 1.235 . S
C140 O145 1.287 . S
C140 O146 1.255 . S
O141 Fe133 1.997 . S
O141 C139 1.235 . S
C142 O148 1.287 . S
C142 O149 1.255 . S
O143 Fe132 1.976 . S
O143 C150 1.287 . S
O144 Fe133 1.996 . S
O144 C150 1.255 . S
O145 Fe135 1.976 . S
O145 C140 1.287 . S
O146 Fe132 1.996 . S
O146 C140 1.255 . S
C147 O151 1.295 . S
C147 O152 1.235 . S
O148 Fe133 1.976 . S
O148 C142 1.287 . S
O149 Fe135 1.996 . S
O149 C142 1.255 . S
C150 O143 1.287 . S
C150 O144 1.255 . S
O151 Fe133 2.002 . S
O151 C147 1.295 . S
O152 Fe135 1.997 . S
O152 C147 1.235 . S
C153 O136 1.295 . S
C153 O137 1.235 . S
Fe154 O156 1.918 . S
Fe154 O159 1.997 . S
Fe154 O160 2.002 . S
Fe154 O165 1.976 . S
Fe154 O168 1.996 . S
Fe155 O156 1.918 . S
Fe155 O163 1.997 . S
Fe155 O166 1.996 . S
Fe155 O170 1.976 . S
Fe155 O173 2.002 . S
O156 Fe154 1.918 . S
O156 Fe155 1.918 . S
O156 Fe157 1.918 . S
Fe157 O156 1.918 . S
Fe157 O158 2.002 . S
Fe157 O167 1.976 . S
Fe157 O171 1.996 . S
Fe157 O174 1.997 . S
O158 Fe157 2.002 . S
O158 C175 1.295 . S
O159 Fe154 1.997 . S
O159 C175 1.235 . S
O160 Fe154 2.002 . S
O160 C161 1.295 . S
C161 O160 1.295 . S
C161 O163 1.235 . S
C162 O167 1.287 . S
C162 O168 1.255 . S
O163 Fe155 1.997 . S
O163 C161 1.235 . S
C164 O170 1.287 . S
C164 O171 1.255 . S
O165 Fe154 1.976 . S
O165 C172 1.287 . S
O166 Fe155 1.996 . S
O166 C172 1.255 . S
O167 Fe157 1.976 . S
O167 C162 1.287 . S
O168 Fe154 1.996 . S
O168 C162 1.255 . S
C169 O173 1.295 . S
C169 O174 1.235 . S
O170 Fe155 1.976 . S
O170 C164 1.287 . S
O171 Fe157 1.996 . S
O171 C164 1.255 . S
C172 O165 1.287 . S
C172 O166 1.255 . S
O173 Fe155 2.002 . S
O173 C169 1.295 . S
O174 Fe157 1.997 . S
O174 C169 1.235 . S
C175 O158 1.295 . S
C175 O159 1.235 . S
Fe176 O178 1.918 . S
Fe176 O181 1.997 . S
Fe176 O182 2.002 . S
Fe176 O187 1.976 . S
Fe176 O190 1.996 . S
Fe177 O178 1.918 . S
Fe177 O185 1.997 . S
Fe177 O188 1.996 . S
Fe177 O192 1.976 . S
Fe177 O195 2.002 . S
O178 Fe176 1.918 . S
O178 Fe177 1.918 . S
O178 Fe179 1.918 . S
Fe179 O178 1.918 . S
Fe179 O180 2.002 . S
Fe179 O189 1.976 . S
Fe179 O193 1.996 . S
Fe179 O196 1.997 . S
O180 Fe179 2.002 . S
O180 C197 1.295 . S
O181 Fe176 1.997 . S
O181 C197 1.235 . S
O182 Fe176 2.002 . S
O182 C183 1.295 . S
C183 O182 1.295 . S
C183 O185 1.235 . S
C184 O189 1.287 . S
C184 O190 1.255 . S
O185 Fe177 1.997 . S
O185 C183 1.235 . S
C186 O192 1.287 . S
C186 O193 1.255 . S
O187 Fe176 1.976 . S
O187 C194 1.287 . S
O188 Fe177 1.996 . S
O188 C194 1.255 . S
O189 Fe179 1.976 . S
O189 C184 1.287 . S
O190 Fe176 1.996 . S
O190 C184 1.255 . S
C191 O195 1.295 . S
C191 O196 1.235 . S
O192 Fe177 1.976 . S
O192 C186 1.287 . S
O193 Fe179 1.996 . S
O193 C186 1.255 . S
C194 O187 1.287 . S
C194 O188 1.255 . S
O195 Fe177 2.002 . S
O195 C191 1.295 . S
O196 Fe179 1.997 . S
O196 C191 1.235 . S
C197 O180 1.295 . S
C197 O181 1.235 . S
Fe198 O200 1.918 . S
Fe198 O203 1.997 . S
Fe198 O204 2.002 . S
Fe198 O209 1.976 . S
Fe198 O212 1.996 . S
Fe199 O200 1.918 . S
Fe199 O207 1.997 . S
Fe199 O210 1.996 . S
Fe199 O214 1.976 . S
Fe199 O217 2.002 . S
O200 Fe198 1.918 . S
O200 Fe199 1.918 . S
O200 Fe201 1.918 . S
Fe201 O200 1.918 . S
Fe201 O202 2.002 . S
Fe201 O211 1.976 . S
Fe201 O215 1.996 . S
Fe201 O218 1.997 . S
O202 Fe201 2.002 . S
O202 C219 1.295 . S
O203 Fe198 1.997 . S
O203 C219 1.235 . S
O204 Fe198 2.002 . S
O204 C205 1.295 . S
C205 O204 1.295 . S
C205 O207 1.235 . S
C206 O211 1.287 . S
C206 O212 1.255 . S
O207 Fe199 1.997 . S
O207 C205 1.235 . S
C208 O214 1.287 . S
C208 O215 1.255 . S
O209 Fe198 1.976 . S
O209 C216 1.287 . S
O210 Fe199 1.996 . S
O210 C216 1.255 . S
O211 Fe201 1.976 . S
O211 C206 1.287 . S
O212 Fe198 1.996 . S
O212 C206 1.255 . S
C213 O217 1.295 . S
C213 O218 1.235 . S
O214 Fe199 1.976 . S
O214 C208 1.287 . S
O215 Fe201 1.996 . S
O215 C208 1.255 . S
C216 O209 1.287 . S
C216 O210 1.255 . S
O217 Fe199 2.002 . S
O217 C213 1.295 . S
O218 Fe201 1.997 . S
O218 C213 1.235 . S
C219 O202 1.295 . S
C219 O203 1.235 . S
Fe220 O222 1.918 . S
Fe220 O225 1.997 . S
Fe220 O226 2.002 . S
Fe220 O231 1.976 . S
Fe220 O234 1.996 . S
Fe221 O222 1.918 . S
Fe221 O229 1.997 . S
Fe221 O232 1.996 . S
Fe221 O236 1.976 . S
Fe221 O239 2.002 . S
O222 Fe220 1.918 . S
O222 Fe221 1.918 . S
O222 Fe223 1.918 . S
Fe223 O222 1.918 . S
Fe223 O224 2.002 . S
Fe223 O233 1.976 . S
Fe223 O237 1.996 . S
Fe223 O240 1.997 . S
O224 Fe223 2.002 . S
O224 C241 1.295 . S
O225 Fe220 1.997 . S
O225 C241 1.235 . S
O226 Fe220 2.002 . S
O226 C227 1.295 . S
C227 O226 1.295 . S
C227 O229 1.235 . S
C228 O233 1.287 . S
C228 O234 1.255 . S
O229 Fe221 1.997 . S
O229 C227 1.235 . S
C230 O236 1.287 . S
C230 O237 1.255 . S
O231 Fe220 1.976 . S
O231 C238 1.287 . S
O232 Fe221 1.996 . S
O232 C238 1.255 . S
O233 Fe223 1.976 . S
O233 C228 1.287 . S
O234 Fe220 1.996 . S
O234 C228 1.255 . S
C235 O239 1.295 . S
C235 O240 1.235 . S
O236 Fe221 1.976 . S
O236 C230 1.287 . S
O237 Fe223 1.996 . S
O237 C230 1.255 . S
C238 O231 1.287 . S
C238 O232 1.255 . S
O239 Fe221 2.002 . S
O239 C235 1.295 . S
O240 Fe223 1.997 . S
O240 C235 1.235 . S
C241 O224 1.295 . S
C241 O225 1.235 . S
Fe242 O244 1.918 . S
Fe242 O247 1.997 . S
Fe242 O248 2.002 . S
Fe242 O253 1.976 . S
Fe242 O256 1.996 . S
Fe243 O244 1.918 . S
Fe243 O251 1.997 . S
Fe243 O254 1.996 . S
Fe243 O258 1.976 . S
Fe243 O261 2.002 . S
O244 Fe242 1.918 . S
O244 Fe243 1.918 . S
O244 Fe245 1.918 . S
Fe245 O244 1.918 . S
Fe245 O246 2.002 . S
Fe245 O255 1.976 . S
Fe245 O259 1.996 . S
Fe245 O262 1.997 . S
O246 Fe245 2.002 . S
O246 C263 1.295 . S
O247 Fe242 1.997 . S
O247 C263 1.235 . S
O248 Fe242 2.002 . S
O248 C249 1.295 . S
C249 O248 1.295 . S
C249 O251 1.235 . S
C250 O255 1.287 . S
C250 O256 1.255 . S
O251 Fe243 1.997 . S
O251 C249 1.235 . S
C252 O258 1.287 . S
C252 O259 1.255 . S
O253 Fe242 1.976 . S
O253 C260 1.287 . S
O254 Fe243 1.996 . S
O254 C260 1.255 . S
O255 Fe245 1.976 . S
O255 C250 1.287 . S
O256 Fe242 1.996 . S
O256 C250 1.255 . S
C257 O261 1.295 . S
C257 O262 1.235 . S
O258 Fe243 1.976 . S
O258 C252 1.287 . S
O259 Fe245 1.996 . S
O259 C252 1.255 . S
C260 O253 1.287 . S
C260 O254 1.255 . S
O261 Fe243 2.002 . S
O261 C257 1.295 . S
O262 Fe245 1.997 . S
O262 C257 1.235 . S
C263 O246 1.295 . S
C263 O247 1.235 . S
Fe264 O266 1.918 . S
Fe264 O269 1.997 . S
Fe264 O270 2.002 . S
Fe264 O275 1.976 . S
Fe264 O278 1.996 . S
Fe265 O266 1.918 . S
Fe265 O273 1.997 . S
Fe265 O276 1.996 . S
Fe265 O280 1.976 . S
Fe265 O283 2.002 . S
O266 Fe264 1.918 . S
O266 Fe265 1.918 . S
O266 Fe267 1.918 . S
Fe267 O266 1.918 . S
Fe267 O268 2.002 . S
Fe267 O277 1.976 . S
Fe267 O281 1.996 . S
Fe267 O284 1.997 . S
O268 Fe267 2.002 . S
O268 C285 1.295 . S
O269 Fe264 1.997 . S
O269 C285 1.235 . S
O270 Fe264 2.002 . S
O270 C271 1.295 . S
C271 O270 1.295 . S
C271 O273 1.235 . S
C272 O277 1.287 . S
C272 O278 1.255 . S
O273 Fe265 1.997 . S
O273 C271 1.235 . S
C274 O280 1.287 . S
C274 O281 1.255 . S
O275 Fe264 1.976 . S
O275 C282 1.287 . S
O276 Fe265 1.996 . S
O276 C282 1.255 . S
O277 Fe267 1.976 . S
O277 C272 1.287 . S
O278 Fe264 1.996 . S
O278 C272 1.255 . S
C279 O283 1.295 . S
C279 O284 1.235 . S
O280 Fe265 1.976 . S
O280 C274 1.287 . S
O281 Fe267 1.996 . S
O281 C274 1.255 . S
C282 O275 1.287 . S
C282 O276 1.255 . S
O283 Fe265 2.002 . S
O283 C279 1.295 . S
O284 Fe267 1.997 . S
O284 C279 1.235 . S
C285 O268 1.295 . S
C285 O269 1.235 . S
Fe286 O288 1.918 . S
Fe286 O291 1.997 . S
Fe286 O292 2.002 . S
Fe286 O297 1.976 . S
Fe286 O300 1.996 . S
Fe287 O288 1.918 . S
Fe287 O295 1.997 . S
Fe287 O298 1.996 . S
Fe287 O302 1.976 . S
Fe287 O305 2.002 . S
O288 Fe286 1.918 . S
O288 Fe287 1.918 . S
O288 Fe289 1.918 . S
Fe289 O288 1.918 . S
Fe289 O290 2.002 . S
Fe289 O299 1.976 . S
Fe289 O303 1.996 . S
Fe289 O306 1.997 . S
O290 Fe289 2.002 . S
O290 C307 1.295 . S
O291 Fe286 1.997 . S
O291 C307 1.235 . S
O292 Fe286 2.002 . S
O292 C293 1.295 . S
C293 O292 1.295 . S
C293 O295 1.235 . S
C294 O299 1.287 . S
C294 O300 1.255 . S
O295 Fe287 1.997 . S
O295 C293 1.235 . S
C296 O302 1.287 . S
C296 O303 1.255 . S
O297 Fe286 1.976 . S
O297 C304 1.287 . S
O298 Fe287 1.996 . S
O298 C304 1.255 . S
O299 Fe289 1.976 . S
O299 C294 1.287 . S
O300 Fe286 1.996 . S
O300 C294 1.255 . S
C301 O305 1.295 . S
C301 O306 1.235 . S
O302 Fe287 1.976 . S
O302 C296 1.287 . S
O303 Fe289 1.996 . S
O303 C296 1.255 . S
C304 O297 1.287 . S
C304 O298 1.255 . S
O305 Fe287 2.002 . S
O305 C301 1.295 . S
O306 Fe289 1.997 . S
O306 C301 1.235 . S
C307 O290 1.295 . S
C307 O291 1.235 . S
Fe308 O310 1.918 . S
Fe308 O313 1.997 . S
Fe308 O314 2.002 . S
Fe308 O319 1.976 . S
Fe308 O322 1.996 . S
Fe309 O310 1.918 . S
Fe309 O317 1.997 . S
Fe309 O320 1.996 . S
Fe309 O324 1.976 . S
Fe309 O327 2.002 . S
O310 Fe308 1.918 . S
O310 Fe309 1.918 . S
O310 Fe311 1.918 . S
Fe311 O310 1.918 . S
Fe311 O312 2.002 . S
Fe311 O321 1.976 . S
Fe311 O325 1.996 . S
Fe311 O328 1.997 . S
O312 Fe311 2.002 . S
O312 C329 1.295 . S
O313 Fe308 1.997 . S
O313 C329 1.235 . S
O314 Fe308 2.002 . S
O314 C315 1.295 . S
C315 O314 1.295 . S
C315 O317 1.235 . S
C316 O321 1.287 . S
C316 O322 1.255 . S
O317 Fe309 1.997 . S
O317 C315 1.235 . S
C318 O324 1.287 . S
C318 O325 1.255 . S
O319 Fe308 1.976 . S
O319 C326 1.287 . S
O320 Fe309 1.996 . S
O320 C326 1.255 . S
O321 Fe311 1.976 . S
O321 C316 1.287 . S
O322 Fe308 1.996 . S
O322 C316 1.255 . S
C323 O327 1.295 . S
C323 O328 1.235 . S
O324 Fe309 1.976 . S
O324 C318 1.287 . S
O325 Fe311 1.996 . S
O325 C318 1.255 . S
C326 O319 1.287 . S
C326 O320 1.255 . S
O327 Fe309 2.002 . S
O327 C323 1.295 . S
O328 Fe311 1.997 . S
O328 C323 1.235 . S
C329 O312 1.295 . S
C329 O313 1.235 . S
Fe330 O332 1.918 . S
Fe330 O335 1.997 . S
Fe330 O336 2.002 . S
Fe330 O341 1.976 . S
Fe330 O344 1.996 . S
Fe331 O332 1.918 . S
Fe331 O339 1.997 . S
Fe331 O342 1.996 . S
Fe331 O346 1.976 . S
Fe331 O349 2.002 . S
O332 Fe330 1.918 . S
O332 Fe331 1.918 . S
O332 Fe333 1.918 . S
Fe333 O332 1.918 . S
Fe333 O334 2.002 . S
Fe333 O343 1.976 . S
Fe333 O347 1.996 . S
Fe333 O350 1.997 . S
O334 Fe333 2.002 . S
O334 C351 1.295 . S
O335 Fe330 1.997 . S
O335 C351 1.235 . S
O336 Fe330 2.002 . S
O336 C337 1.295 . S
C337 O336 1.295 . S
C337 O339 1.235 . S
C338 O343 1.287 . S
C338 O344 1.255 . S
O339 Fe331 1.997 . S
O339 C337 1.235 . S
C340 O346 1.287 . S
C340 O347 1.255 . S
O341 Fe330 1.976 . S
O341 C348 1.287 . S
O342 Fe331 1.996 . S
O342 C348 1.255 . S
O343 Fe333 1.976 . S
O343 C338 1.287 . S
O344 Fe330 1.996 . S
O344 C338 1.255 . S
C345 O349 1.295 . S
C345 O350 1.235 . S
O346 Fe331 1.976 . S
O346 C340 1.287 . S
O347 Fe333 1.996 . S
O347 C340 1.255 . S
C348 O341 1.287 . S
C348 O342 1.255 . S
O349 Fe331 2.002 . S
O349 C345 1.295 . S
O350 Fe333 1.997 . S
O350 C345 1.235 . S
C351 O334 1.295 . S
C351 O335 1.235 . S
H352 C360 0.950 . S
H353 C365 0.950 . S
H354 C362 0.950 . S
H355 C364 0.950 . S
H356 C366 0.950 . S
H357 C368 0.950 . S
H358 C370 0.950 . S
H359 C371 0.950 . S
C360 H352 0.950 . S
C360 C361 1.386 . S
C360 C362 1.391 . S
C361 C360 1.386 . S
C361 C365 1.393 . S
C362 H354 0.950 . S
C362 C360 1.391 . S
C362 C363 1.400 . S
C363 C362 1.400 . S
C363 C364 1.398 . S
C363 C369 1.491 . S
C364 H355 0.950 . S
C364 C363 1.398 . S
C364 C365 1.391 . S
C365 H353 0.950 . S
C365 C361 1.393 . S
C365 C364 1.391 . S
C366 H356 0.950 . S
C366 C367 1.386 1_545 S
C366 C368 1.391 . S
C367 C366 1.386 1_565 S
C367 C371 1.393 . S
C368 H357 0.950 . S
C368 C366 1.391 . S
C368 C369 1.400 . S
C369 C363 1.491 . S
C369 C368 1.400 . S
C369 C370 1.398 . S
C370 H358 0.950 . S
C370 C369 1.398 . S
C370 C371 1.391 1_545 S
C371 H359 0.950 . S
C371 C367 1.393 . S
C371 C370 1.391 1_565 S
H372 C380 0.950 . S
H373 C385 0.950 . S
H374 C382 0.950 . S
H375 C384 0.950 . S
H376 C386 0.950 . S
H377 C388 0.950 . S
H378 C390 0.950 . S
H379 C391 0.950 . S
C380 H372 0.950 . S
C380 C381 1.386 . S
C380 C382 1.391 . S
C381 C380 1.386 . S
C381 C385 1.393 . S
C382 H374 0.950 . S
C382 C380 1.391 . S
C382 C383 1.400 . S
C383 C382 1.400 . S
C383 C384 1.398 . S
C383 C389 1.491 . S
C384 H375 0.950 . S
C384 C383 1.398 . S
C384 C385 1.391 . S
C385 H373 0.950 . S
C385 C381 1.393 . S
C385 C384 1.391 . S
C386 H376 0.950 . S
C386 C387 1.386 1_565 S
C386 C388 1.391 . S
C387 C386 1.386 1_545 S
C387 C391 1.393 . S
C388 H377 0.950 . S
C388 C386 1.391 . S
C388 C389 1.400 . S
C389 C383 1.491 . S
C389 C388 1.400 . S
C389 C390 1.398 . S
C390 H378 0.950 . S
C390 C389 1.398 . S
C390 C391 1.391 1_565 S
C391 H379 0.950 . S
C391 C387 1.393 . S
C391 C390 1.391 1_545 S
H392 C400 0.950 . S
H393 C405 0.950 . S
H394 C402 0.950 . S
H395 C404 0.950 . S
H396 C406 0.950 . S
H397 C408 0.950 . S
H398 C410 0.950 . S
H399 C411 0.950 . S
C400 H392 0.950 . S
C400 C401 1.386 . S
C400 C402 1.391 . S
C401 C400 1.386 . S
C401 C405 1.393 . S
C402 H394 0.950 . S
C402 C400 1.391 . S
C402 C403 1.400 . S
C403 C402 1.400 . S
C403 C404 1.398 . S
C403 C409 1.491 . S
C404 H395 0.950 . S
C404 C403 1.398 . S
C404 C405 1.391 . S
C405 H393 0.950 . S
C405 C401 1.393 . S
C405 C404 1.391 . S
C406 H396 0.950 . S
C406 C407 1.386 1_565 S
C406 C408 1.391 . S
C407 C406 1.386 1_545 S
C407 C411 1.393 . S
C408 H397 0.950 . S
C408 C406 1.391 . S
C408 C409 1.400 . S
C409 C403 1.491 . S
C409 C408 1.400 . S
C409 C410 1.398 . S
C410 H398 0.950 . S
C410 C409 1.398 . S
C410 C411 1.391 1_565 S
C411 H399 0.950 . S
C411 C407 1.393 . S
C411 C410 1.391 1_545 S
H412 C420 0.950 . S
H413 C425 0.950 . S
H414 C422 0.950 . S
H415 C424 0.950 . S
H416 C426 0.950 . S
H417 C428 0.950 . S
H418 C430 0.950 . S
H419 C431 0.950 . S
C420 H412 0.950 . S
C420 C421 1.386 . S
C420 C422 1.391 1_565 S
C421 C420 1.386 . S
C421 C425 1.393 . S
C422 H414 0.950 . S
C422 C420 1.391 1_545 S
C422 C423 1.400 . S
C423 C422 1.400 . S
C423 C424 1.398 . S
C423 C429 1.491 . S
C424 H415 0.950 . S
C424 C423 1.398 . S
C424 C425 1.391 1_545 S
C425 H413 0.950 . S
C425 C421 1.393 . S
C425 C424 1.391 1_565 S
C426 H416 0.950 . S
C426 C427 1.386 . S
C426 C428 1.391 . S
C427 C426 1.386 . S
C427 C431 1.393 . S
C428 H417 0.950 . S
C428 C426 1.391 . S
C428 C429 1.400 . S
C429 C423 1.491 . S
C429 C428 1.400 . S
C429 C430 1.398 . S
C430 H418 0.950 . S
C430 C429 1.398 . S
C430 C431 1.391 . S
C431 H419 0.950 . S
C431 C427 1.393 . S
C431 C430 1.391 . S
H432 C440 0.950 . S
H433 C445 0.950 . S
H434 C442 0.950 . S
H435 C444 0.950 . S
H436 C446 0.950 . S
H437 C448 0.950 . S
H438 C450 0.950 . S
H439 C451 0.950 . S
C440 H432 0.950 . S
C440 C441 1.396 . S
C440 C442 1.380 1_545 S
C441 C440 1.396 . S
C441 C445 1.393 . S
C442 H434 0.950 . S
C442 C440 1.380 1_565 S
C442 C443 1.400 . S
C443 C442 1.400 . S
C443 C444 1.398 . S
C443 C449 1.491 . S
C444 H435 0.950 . S
C444 C443 1.398 . S
C444 C445 1.391 1_565 S
C445 H433 0.950 . S
C445 C441 1.393 . S
C445 C444 1.391 1_545 S
C446 H436 0.950 . S
C446 C447 1.386 . S
C446 C448 1.391 . S
C447 C446 1.386 . S
C447 C451 1.393 . S
C448 H437 0.950 . S
C448 C446 1.391 . S
C448 C449 1.400 . S
C449 C443 1.491 . S
C449 C448 1.400 . S
C449 C450 1.398 . S
C450 H438 0.950 . S
C450 C449 1.398 . S
C450 C451 1.391 . S
C451 H439 0.950 . S
C451 C447 1.393 . S
C451 C450 1.391 . S
H452 C460 0.950 . S
H453 C465 0.950 . S
H454 C462 0.950 . S
H455 C464 0.950 . S
H456 C466 0.950 . S
H457 C468 0.950 . S
H458 C470 0.950 . S
H459 C471 0.950 . S
C460 H452 0.950 . S
C460 C461 1.386 . S
C460 C462 1.391 1_565 S
C461 C460 1.386 . S
C461 C465 1.393 . S
C462 H454 0.950 . S
C462 C460 1.391 1_545 S
C462 C463 1.400 . S
C463 C462 1.400 . S
C463 C464 1.398 . S
C463 C469 1.491 . S
C464 H455 0.950 . S
C464 C463 1.398 . S
C464 C465 1.391 1_545 S
C465 H453 0.950 . S
C465 C461 1.393 . S
C465 C464 1.391 1_565 S
C466 H456 0.950 . S
C466 C467 1.386 . S
C466 C468 1.391 . S
C467 C466 1.386 . S
C467 C471 1.393 . S
C468 H457 0.950 . S
C468 C466 1.391 . S
C468 C469 1.400 . S
C469 C463 1.491 . S
C469 C468 1.400 . S
C469 C470 1.398 . S
C470 H458 0.950 . S
C470 C469 1.398 . S
C470 C471 1.391 . S
C471 H459 0.950 . S
C471 C467 1.393 . S
C471 C470 1.391 . S
H472 C480 0.950 . S
H473 C485 0.950 . S
H474 C482 0.950 . S
H475 C484 0.950 . S
H476 C486 0.950 . S
H477 C488 0.950 . S
H478 C490 0.950 . S
H479 C491 0.950 . S
C480 H472 0.950 . S
C480 C481 1.386 1_545 S
C480 C482 1.391 . S
C481 C480 1.386 1_565 S
C481 C485 1.393 . S
C482 H474 0.950 . S
C482 C480 1.391 . S
C482 C483 1.400 . S
C483 C482 1.400 . S
C483 C484 1.398 . S
C483 C489 1.491 . S
C484 H475 0.950 . S
C484 C483 1.398 . S
C484 C485 1.391 1_545 S
C485 H473 0.950 . S
C485 C481 1.393 . S
C485 C484 1.391 1_565 S
C486 H476 0.950 . S
C486 C487 1.386 . S
C486 C488 1.391 . S
C487 C486 1.386 . S
C487 C491 1.393 . S
C488 H477 0.950 . S
C488 C486 1.391 . S
C488 C489 1.400 . S
C489 C483 1.491 . S
C489 C488 1.400 . S
C489 C490 1.398 . S
C490 H478 0.950 . S
C490 C489 1.398 . S
C490 C491 1.391 . S
C491 H479 0.950 . S
C491 C487 1.393 . S
C491 C490 1.391 . S
H492 C500 0.950 . S
H493 C505 0.950 . S
H494 C502 0.950 . S
H495 C504 0.950 . S
H496 C506 0.950 . S
H497 C508 0.950 . S
H498 C510 0.950 . S
H499 C511 0.950 . S
C500 H492 0.950 . S
C500 C501 1.386 1_565 S
C500 C502 1.391 . S
C501 C500 1.386 1_545 S
C501 C505 1.393 . S
C502 H494 0.950 . S
C502 C500 1.391 . S
C502 C503 1.400 . S
C503 C502 1.400 . S
C503 C504 1.398 . S
C503 C509 1.491 . S
C504 H495 0.950 . S
C504 C503 1.398 . S
C504 C505 1.391 1_565 S
C505 H493 0.950 . S
C505 C501 1.393 . S
C505 C504 1.391 1_545 S
C506 H496 0.950 . S
C506 C507 1.386 . S
C506 C508 1.391 . S
C507 C506 1.386 . S
C507 C511 1.393 . S
C508 H497 0.950 . S
C508 C506 1.391 . S
C508 C509 1.400 . S
C509 C503 1.491 . S
C509 C508 1.400 . S
C509 C510 1.398 . S
C510 H498 0.950 . S
C510 C509 1.398 . S
C510 C511 1.391 . S
C511 H499 0.950 . S
C511 C507 1.393 . S
C511 C510 1.391 . S
H512 C520 0.950 . S
H513 C525 0.950 . S
H514 C522 0.950 . S
H515 C524 0.950 . S
H516 C526 0.950 . S
H517 C528 0.950 . S
H518 C530 0.950 . S
H519 C531 0.950 . S
C520 H512 0.950 . S
C520 C521 1.386 . S
C520 C522 1.391 . S
C521 C520 1.386 . S
C521 C525 1.393 . S
C522 H514 0.950 . S
C522 C520 1.391 . S
C522 C523 1.400 . S
C523 C522 1.400 . S
C523 C524 1.398 . S
C523 C529 1.491 . S
C524 H515 0.950 . S
C524 C523 1.398 . S
C524 C525 1.391 . S
C525 H513 0.950 . S
C525 C521 1.393 . S
C525 C524 1.391 . S
C526 H516 0.950 . S
C526 C527 1.386 . S
C526 C528 1.391 . S
C527 C526 1.386 . S
C527 C531 1.393 . S
C528 H517 0.950 . S
C528 C526 1.391 . S
C528 C529 1.400 . S
C529 C523 1.491 . S
C529 C528 1.400 . S
C529 C530 1.398 . S
C530 H518 0.950 . S
C530 C529 1.398 . S
C530 C531 1.391 . S
C531 H519 0.950 . S
C531 C527 1.393 . S
C531 C530 1.391 . S
H532 C540 0.950 . S
H533 C545 0.950 . S
H534 C542 0.950 . S
H535 C544 0.950 . S
H536 C546 0.950 . S
H537 C548 0.950 . S
H538 C550 0.950 . S
H539 C551 0.950 . S
C540 H532 0.950 . S
C540 C541 1.386 . S
C540 C542 1.391 . S
C541 C540 1.386 . S
C541 C545 1.393 . S
C542 H534 0.950 . S
C542 C540 1.391 . S
C542 C543 1.400 . S
C543 C542 1.400 . S
C543 C544 1.398 . S
C543 C549 1.491 . S
C544 H535 0.950 . S
C544 C543 1.398 . S
C544 C545 1.391 . S
C545 H533 0.950 . S
C545 C541 1.393 . S
C545 C544 1.391 . S
C546 H536 0.950 . S
C546 C547 1.386 . S
C546 C548 1.391 . S
C547 C546 1.386 . S
C547 C551 1.393 . S
C548 H537 0.950 . S
C548 C546 1.391 . S
C548 C549 1.400 . S
C549 C543 1.491 . S
C549 C548 1.400 . S
C549 C550 1.398 . S
C550 H538 0.950 . S
C550 C549 1.398 . S
C550 C551 1.391 . S
C551 H539 0.950 . S
C551 C547 1.393 . S
C551 C550 1.391 . S
H552 C560 0.950 . S
H553 C565 0.950 . S
H554 C562 0.950 . S
H555 C564 0.950 . S
H556 C566 0.950 . S
H557 C568 0.950 . S
H558 C570 0.950 . S
H559 C571 0.950 . S
C560 H552 0.950 . S
C560 C561 1.386 . S
C560 C562 1.391 . S
C561 C560 1.386 . S
C561 C565 1.393 . S
C562 H554 0.950 . S
C562 C560 1.391 . S
C562 C563 1.400 . S
C563 C562 1.400 . S
C563 C564 1.398 . S
C563 C569 1.491 . S
C564 H555 0.950 . S
C564 C563 1.398 . S
C564 C565 1.391 . S
C565 H553 0.950 . S
C565 C561 1.393 . S
C565 C564 1.391 . S
C566 H556 0.950 . S
C566 C567 1.386 . S
C566 C568 1.391 . S
C567 C566 1.386 . S
C567 C571 1.393 . S
C568 H557 0.950 . S
C568 C566 1.391 . S
C568 C569 1.400 . S
C569 C563 1.491 . S
C569 C568 1.400 . S
C569 C570 1.398 . S
C570 H558 0.950 . S
C570 C569 1.398 . S
C570 C571 1.391 . S
C571 H559 0.950 . S
C571 C567 1.393 . S
C571 C570 1.391 . S
H572 C580 0.950 . S
H573 C585 0.950 . S
H574 C582 0.950 . S
H575 C584 0.950 . S
H576 C586 0.950 . S
H577 C588 0.950 . S
H578 C590 0.950 . S
H579 C591 0.950 . S
C580 H572 0.950 . S
C580 C581 1.386 . S
C580 C582 1.391 . S
C581 C580 1.386 . S
C581 C585 1.393 . S
C582 H574 0.950 . S
C582 C580 1.391 . S
C582 C583 1.400 . S
C583 C582 1.400 . S
C583 C584 1.398 . S
C583 C589 1.491 . S
C584 H575 0.950 . S
C584 C583 1.398 . S
C584 C585 1.391 . S
C585 H573 0.950 . S
C585 C581 1.393 . S
C585 C584 1.391 . S
C586 H576 0.950 . S
C586 C587 1.386 . S
C586 C588 1.391 . S
C587 C586 1.386 . S
C587 C591 1.393 . S
C588 H577 0.950 . S
C588 C586 1.391 . S
C588 C589 1.400 . S
C589 C583 1.491 . S
C589 C588 1.400 . S
C589 C590 1.398 . S
C590 H578 0.950 . S
C590 C589 1.398 . S
C590 C591 1.391 . S
C591 H579 0.950 . S
C591 C587 1.393 . S
C591 C590 1.391 . S
H592 C600 0.950 . S
H593 C605 0.950 . S
H594 C602 0.950 . S
H595 C604 0.950 . S
H596 C606 0.950 . S
H597 C608 0.950 . S
H598 C610 0.950 . S
H599 C611 0.950 . S
C600 H592 0.950 . S
C600 C601 1.386 . S
C600 C602 1.391 . S
C601 C600 1.386 . S
C601 C605 1.393 . S
C602 H594 0.950 . S
C602 C600 1.391 . S
C602 C603 1.400 . S
C603 C602 1.400 . S
C603 C604 1.398 . S
C603 C609 1.491 . S
C604 H595 0.950 . S
C604 C603 1.398 . S
C604 C605 1.391 . S
C605 H593 0.950 . S
C605 C601 1.393 . S
C605 C604 1.391 . S
C606 H596 0.950 . S
C606 C607 1.386 . S
C606 C608 1.391 . S
C607 C606 1.386 . S
C607 C611 1.393 . S
C608 H597 0.950 . S
C608 C606 1.391 . S
C608 C609 1.400 . S
C609 C603 1.491 . S
C609 C608 1.400 . S
C609 C610 1.398 . S
C610 H598 0.950 . S
C610 C609 1.398 . S
C610 C611 1.391 . S
C611 H599 0.950 . S
C611 C607 1.393 . S
C611 C610 1.391 . S
H612 C620 0.950 . S
H613 C625 0.950 . S
H614 C622 0.950 . S
H615 C624 0.950 . S
H616 C626 0.950 . S
H617 C628 0.950 . S
H618 C630 0.950 . S
H619 C631 0.950 . S
C620 H612 0.950 . S
C620 C621 1.386 . S
C620 C622 1.391 . S
C621 C620 1.386 . S
C621 C625 1.393 . S
C622 H614 0.950 . S
C622 C620 1.391 . S
C622 C623 1.400 . S
C623 C622 1.400 . S
C623 C624 1.398 . S
C623 C629 1.491 . S
C624 H615 0.950 . S
C624 C623 1.398 . S
C624 C625 1.391 . S
C625 H613 0.950 . S
C625 C621 1.393 . S
C625 C624 1.391 . S
C626 H616 0.950 . S
C626 C627 1.386 . S
C626 C628 1.391 . S
C627 C626 1.386 . S
C627 C631 1.393 . S
C628 H617 0.950 . S
C628 C626 1.391 . S
C628 C629 1.400 . S
C629 C623 1.491 . S
C629 C628 1.400 . S
C629 C630 1.398 . S
C630 H618 0.950 . S
C630 C629 1.398 . S
C630 C631 1.391 . S
C631 H619 0.950 . S
C631 C627 1.393 . S
C631 C630 1.391 . S
H632 C640 0.950 . S
H633 C645 0.950 . S
H634 C642 0.950 . S
H635 C644 0.950 . S
H636 C646 0.950 . S
H637 C648 0.950 . S
H638 C650 0.950 . S
H639 C651 0.950 . S
C640 H632 0.950 . S
C640 C641 1.386 . S
C640 C642 1.391 . S
C641 C640 1.386 . S
C641 C645 1.393 . S
C642 H634 0.950 . S
C642 C640 1.391 . S
C642 C643 1.400 . S
C643 C642 1.400 . S
C643 C644 1.398 . S
C643 C649 1.491 . S
C644 H635 0.950 . S
C644 C643 1.398 . S
C644 C645 1.391 . S
C645 H633 0.950 . S
C645 C641 1.393 . S
C645 C644 1.391 . S
C646 H636 0.950 . S
C646 C647 1.386 . S
C646 C648 1.391 . S
C647 C646 1.386 . S
C647 C651 1.393 . S
C648 H637 0.950 . S
C648 C646 1.391 . S
C648 C649 1.400 . S
C649 C643 1.491 . S
C649 C648 1.400 . S
C649 C650 1.398 . S
C650 H638 0.950 . S
C650 C649 1.398 . S
C650 C651 1.391 . S
C651 H639 0.950 . S
C651 C647 1.393 . S
C651 C650 1.391 . S
H652 C660 0.950 . S
H653 C665 0.950 . S
H654 C662 0.950 . S
H655 C664 0.950 . S
H656 C666 0.950 . S
H657 C668 0.950 . S
H658 C670 0.950 . S
H659 C671 0.950 . S
C660 H652 0.950 . S
C660 C661 1.386 . S
C660 C662 1.391 . S
C661 C660 1.386 . S
C661 C665 1.393 . S
C662 H654 0.950 . S
C662 C660 1.391 . S
C662 C663 1.400 . S
C663 C662 1.400 . S
C663 C664 1.398 . S
C663 C669 1.491 . S
C664 H655 0.950 . S
C664 C663 1.398 . S
C664 C665 1.391 . S
C665 H653 0.950 . S
C665 C661 1.393 . S
C665 C664 1.391 . S
C666 H656 0.950 . S
C666 C667 1.386 . S
C666 C668 1.391 . S
C667 C666 1.386 . S
C667 C671 1.393 . S
C668 H657 0.950 . S
C668 C666 1.391 . S
C668 C669 1.400 . S
C669 C663 1.491 . S
C669 C668 1.400 . S
C669 C670 1.398 . S
C670 H658 0.950 . S
C670 C669 1.398 . S
C670 C671 1.391 . S
C671 H659 0.950 . S
C671 C667 1.393 . S
C671 C670 1.391 . S
H672 C680 0.950 . S
H673 C685 0.950 . S
H674 C682 0.950 . S
H675 C684 0.950 . S
H676 C686 0.950 . S
H677 C688 0.950 . S
H678 C690 0.950 . S
H679 C691 0.950 . S
C680 H672 0.950 . S
C680 C681 1.386 . S
C680 C682 1.391 . S
C681 C680 1.386 . S
C681 C685 1.393 . S
C682 H674 0.950 . S
C682 C680 1.391 . S
C682 C683 1.400 . S
C683 C682 1.400 . S
C683 C684 1.398 . S
C683 C689 1.491 1_554 S
C684 H675 0.950 . S
C684 C683 1.398 . S
C684 C685 1.391 . S
C685 H673 0.950 . S
C685 C681 1.393 . S
C685 C684 1.391 . S
C686 H676 0.950 . S
C686 C687 1.386 . S
C686 C688 1.391 . S
C687 C686 1.386 . S
C687 C691 1.393 . S
C688 H677 0.950 . S
C688 C686 1.391 . S
C688 C689 1.400 . S
C689 C683 1.491 1_556 S
C689 C688 1.400 . S
C689 C690 1.398 . S
C690 H678 0.950 . S
C690 C689 1.398 . S
C690 C691 1.391 . S
C691 H679 0.950 . S
C691 C687 1.393 . S
C691 C690 1.391 . S
H692 C700 0.950 . S
H693 C705 0.950 . S
H694 C702 0.950 . S
H695 C704 0.950 . S
H696 C706 0.950 . S
H697 C708 0.950 . S
H698 C710 0.950 . S
H699 C711 0.950 . S
C700 H692 0.950 . S
C700 C701 1.386 . S
C700 C702 1.391 . S
C701 C700 1.386 . S
C701 C705 1.393 . S
C702 H694 0.950 . S
C702 C700 1.391 . S
C702 C703 1.400 . S
C703 C702 1.400 . S
C703 C704 1.398 . S
C703 C709 1.491 . S
C704 H695 0.950 . S
C704 C703 1.398 . S
C704 C705 1.391 . S
C705 H693 0.950 . S
C705 C701 1.393 . S
C705 C704 1.391 . S
C706 H696 0.950 . S
C706 C707 1.386 . S
C706 C708 1.391 . S
C707 C706 1.386 . S
C707 C711 1.393 . S
C708 H697 0.950 . S
C708 C706 1.391 . S
C708 C709 1.400 . S
C709 C703 1.491 . S
C709 C708 1.400 . S
C709 C710 1.398 . S
C710 H698 0.950 . S
C710 C709 1.398 . S
C710 C711 1.391 . S
C711 H699 0.950 . S
C711 C707 1.393 . S
C711 C710 1.391 . S
H712 C720 0.950 . S
H713 C725 0.950 . S
H714 C722 0.950 . S
H715 C724 0.950 . S
H716 C726 0.950 . S
H717 C728 0.950 . S
H718 C730 0.950 . S
H719 C731 0.950 . S
C720 H712 0.950 . S
C720 C721 1.386 . S
C720 C722 1.391 . S
C721 C720 1.386 . S
C721 C725 1.393 . S
C722 H714 0.950 . S
C722 C720 1.391 . S
C722 C723 1.400 . S
C723 C722 1.400 . S
C723 C724 1.398 . S
C723 C729 1.491 1_554 S
C724 H715 0.950 . S
C724 C723 1.398 . S
C724 C725 1.391 . S
C725 H713 0.950 . S
C725 C721 1.393 . S
C725 C724 1.391 . S
C726 H716 0.950 . S
C726 C727 1.386 . S
C726 C728 1.391 . S
C727 C726 1.386 . S
C727 C731 1.393 . S
C728 H717 0.950 . S
C728 C726 1.391 . S
C728 C729 1.400 . S
C729 C723 1.491 1_556 S
C729 C728 1.400 . S
C729 C730 1.398 . S
C730 H718 0.950 . S
C730 C729 1.398 . S
C730 C731 1.391 . S
C731 H719 0.950 . S
C731 C727 1.393 . S
C731 C730 1.391 . S
H732 C740 0.950 . S
H733 C745 0.950 . S
H734 C742 0.950 . S
H735 C744 0.950 . S
H736 C746 0.950 . S
H737 C748 0.950 . S
H738 C750 0.950 . S
H739 C751 0.950 . S
C740 H732 0.950 . S
C740 C741 1.386 . S
C740 C742 1.391 . S
C741 C740 1.386 . S
C741 C745 1.393 . S
C742 H734 0.950 . S
C742 C740 1.391 . S
C742 C743 1.400 . S
C743 C742 1.400 . S
C743 C744 1.398 . S
C743 C749 1.491 . S
C744 H735 0.950 . S
C744 C743 1.398 . S
C744 C745 1.391 . S
C745 H733 0.950 . S
C745 C741 1.393 . S
C745 C744 1.391 . S
C746 H736 0.950 . S
C746 C747 1.386 . S
C746 C748 1.391 . S
C747 C746 1.386 . S
C747 C751 1.393 . S
C748 H737 0.950 . S
C748 C746 1.391 . S
C748 C749 1.400 . S
C749 C743 1.491 . S
C749 C748 1.400 . S
C749 C750 1.398 . S
C750 H738 0.950 . S
C750 C749 1.398 . S
C750 C751 1.391 . S
C751 H739 0.950 . S
C751 C747 1.393 . S
C751 C750 1.391 . S
H752 C760 0.950 . S
H753 C765 0.950 . S
H754 C762 0.950 . S
H755 C764 0.950 1_565 S
H756 C766 0.950 . S
H757 C768 0.950 . S
H758 C770 0.950 1_545 S
H759 C771 0.950 . S
C760 H752 0.950 . S
C760 C761 1.386 . S
C760 C762 1.391 . S
C761 C760 1.386 . S
C761 C765 1.393 . S
C762 H754 0.950 . S
C762 C760 1.391 . S
C762 C763 1.400 . S
C763 C762 1.400 . S
C763 C764 1.398 . S
C763 C769 1.491 1_546 S
C764 H755 0.950 1_545 S
C764 C763 1.398 . S
C764 C765 1.391 . S
C765 H753 0.950 . S
C765 C761 1.393 . S
C765 C764 1.391 . S
C766 H756 0.950 . S
C766 C767 1.386 . S
C766 C768 1.391 . S
C767 C766 1.386 . S
C767 C771 1.393 . S
C768 H757 0.950 . S
C768 C766 1.391 . S
C768 C769 1.400 . S
C769 C763 1.491 1_564 S
C769 C768 1.400 . S
C769 C770 1.398 . S
C770 H758 0.950 1_565 S
C770 C769 1.398 . S
C770 C771 1.391 . S
C771 H759 0.950 . S
C771 C767 1.393 . S
C771 C770 1.391 . S
H772 C780 0.950 . S
H773 C785 0.950 . S
H774 C782 0.950 . S
H775 C784 0.950 1_545 S
H776 C786 0.950 . S
H777 C788 0.950 . S
H778 C790 0.950 1_565 S
H779 C791 0.950 . S
C780 H772 0.950 . S
C780 C781 1.386 . S
C780 C782 1.391 . S
C781 C780 1.386 . S
C781 C785 1.393 . S
C782 H774 0.950 . S
C782 C780 1.391 . S
C782 C783 1.400 . S
C783 C782 1.400 . S
C783 C784 1.398 . S
C783 C789 1.491 1_565 S
C784 H775 0.950 1_565 S
C784 C783 1.398 . S
C784 C785 1.391 . S
C785 H773 0.950 . S
C785 C781 1.393 . S
C785 C784 1.391 . S
C786 H776 0.950 . S
C786 C787 1.386 . S
C786 C788 1.391 . S
C787 C786 1.386 . S
C787 C791 1.393 . S
C788 H777 0.950 . S
C788 C786 1.391 . S
C788 C789 1.400 . S
C789 C783 1.491 1_545 S
C789 C788 1.400 . S
C789 C790 1.398 . S
C790 H778 0.950 1_545 S
C790 C789 1.398 . S
C790 C791 1.391 . S
C791 H779 0.950 . S
C791 C787 1.393 . S
C791 C790 1.391 . S
H792 C800 0.950 . S
H793 C805 0.950 . S
H794 C802 0.950 . S
H795 C804 0.950 . S
H796 C806 0.950 . S
H797 C808 0.950 . S
H798 C810 0.950 . S
H799 C811 0.950 . S
C800 H792 0.950 . S
C800 C801 1.386 . S
C800 C802 1.391 . S
C801 C800 1.386 . S
C801 C805 1.393 . S
C802 H794 0.950 . S
C802 C800 1.391 . S
C802 C803 1.400 . S
C803 C802 1.400 . S
C803 C804 1.398 . S
C803 C809 1.491 1_564 S
C804 H795 0.950 . S
C804 C803 1.398 . S
C804 C805 1.391 . S
C805 H793 0.950 . S
C805 C801 1.393 . S
C805 C804 1.391 . S
C806 H796 0.950 . S
C806 C807 1.386 . S
C806 C808 1.391 . S
C807 C806 1.386 . S
C807 C811 1.393 . S
C808 H797 0.950 . S
C808 C806 1.391 . S
C808 C809 1.400 . S
C809 C803 1.491 1_546 S
C809 C808 1.400 . S
C809 C810 1.398 . S
C810 H798 0.950 . S
C810 C809 1.398 . S
C810 C811 1.391 . S
C811 H799 0.950 . S
C811 C807 1.393 . S
C811 C810 1.391 . S
H812 C820 0.950 . S
H813 C825 0.950 . S
H814 C822 0.950 . S
H815 C824 0.950 1_545 S
H816 C826 0.950 . S
H817 C828 0.950 . S
H818 C830 0.950 1_565 S
H819 C831 0.950 . S
C820 H812 0.950 . S
C820 C821 1.386 . S
C820 C822 1.391 . S
C821 C820 1.386 . S
C821 C825 1.393 . S
C822 H814 0.950 . S
C822 C820 1.391 . S
C822 C823 1.400 . S
C823 C822 1.400 . S
C823 C824 1.398 . S
C823 C829 1.491 1_565 S
C824 H815 0.950 1_565 S
C824 C823 1.398 . S
C824 C825 1.391 . S
C825 H813 0.950 . S
C825 C821 1.393 . S
C825 C824 1.391 . S
C826 H816 0.950 . S
C826 C827 1.386 . S
C826 C828 1.391 . S
C827 C826 1.386 . S
C827 C831 1.393 . S
C828 H817 0.950 . S
C828 C826 1.391 . S
C828 C829 1.400 . S
C829 C823 1.491 1_545 S
C829 C828 1.400 . S
C829 C830 1.398 . S
C830 H818 0.950 1_545 S
C830 C829 1.398 . S
C830 C831 1.391 . S
C831 H819 0.950 . S
C831 C827 1.393 . S
C831 C830 1.391 . S
H832 C840 0.950 . S
H833 C845 0.950 . S
H834 C842 0.950 . S
H835 C844 0.950 . S
H836 C846 0.950 . S
H837 C848 0.950 . S
H838 C850 0.950 . S
H839 C851 0.950 . S
C840 H832 0.950 . S
C840 C841 1.386 . S
C840 C842 1.391 . S
C841 C840 1.386 . S
C841 C845 1.393 . S
C842 H834 0.950 . S
C842 C840 1.391 . S
C842 C843 1.400 . S
C843 C842 1.400 . S
C843 C844 1.398 . S
C843 C849 1.491 . S
C844 H835 0.950 . S
C844 C843 1.398 . S
C844 C845 1.391 . S
C845 H833 0.950 . S
C845 C841 1.393 . S
C845 C844 1.391 . S
C846 H836 0.950 . S
C846 C847 1.386 . S
C846 C848 1.391 . S
C847 C846 1.386 . S
C847 C851 1.393 . S
C848 H837 0.950 . S
C848 C846 1.391 . S
C848 C849 1.400 . S
C849 C843 1.491 . S
C849 C848 1.400 . S
C849 C850 1.398 . S
C850 H838 0.950 . S
C850 C849 1.398 . S
C850 C851 1.391 . S
C851 H839 0.950 . S
C851 C847 1.393 . S
C851 C850 1.391 . S
H852 C860 0.950 . S
H853 C865 0.950 . S
H854 C862 0.950 . S
H855 C864 0.950 . S
H856 C866 0.950 . S
H857 C868 0.950 . S
H858 C870 0.950 . S
H859 C871 0.950 . S
C860 H852 0.950 . S
C860 C861 1.386 . S
C860 C862 1.391 . S
C861 C860 1.386 . S
C861 C865 1.393 . S
C862 H854 0.950 . S
C862 C860 1.391 . S
C862 C863 1.400 . S
C863 C862 1.400 . S
C863 C864 1.398 . S
C863 C869 1.491 . S
C864 H855 0.950 . S
C864 C863 1.398 . S
C864 C865 1.391 . S
C865 H853 0.950 . S
C865 C861 1.393 . S
C865 C864 1.391 . S
C866 H856 0.950 . S
C866 C867 1.386 . S
C866 C868 1.391 . S
C867 C866 1.386 . S
C867 C871 1.393 . S
C868 H857 0.950 . S
C868 C866 1.391 . S
C868 C869 1.400 . S
C869 C863 1.491 . S
C869 C868 1.400 . S
C869 C870 1.398 . S
C870 H858 0.950 . S
C870 C869 1.398 . S
C870 C871 1.391 . S
C871 H859 0.950 . S
C871 C867 1.393 . S
C871 C870 1.391 . S
H872 C880 0.950 . S
H873 C885 0.950 . S
H874 C882 0.950 . S
H875 C884 0.950 . S
H876 C886 0.950 . S
H877 C888 0.950 . S
H878 C890 0.950 . S
H879 C891 0.950 . S
C880 H872 0.950 . S
C880 C881 1.386 . S
C880 C882 1.391 . S
C881 C880 1.386 . S
C881 C885 1.393 . S
C882 H874 0.950 . S
C882 C880 1.391 . S
C882 C883 1.400 . S
C883 C882 1.400 . S
C883 C884 1.398 . S
C883 C889 1.491 . S
C884 H875 0.950 . S
C884 C883 1.398 . S
C884 C885 1.391 . S
C885 H873 0.950 . S
C885 C881 1.393 . S
C885 C884 1.391 . S
C886 H876 0.950 . S
C886 C887 1.386 . S
C886 C888 1.391 . S
C887 C886 1.386 . S
C887 C891 1.393 . S
C888 H877 0.950 . S
C888 C886 1.391 . S
C888 C889 1.400 . S
C889 C883 1.491 . S
C889 C888 1.400 . S
C889 C890 1.398 . S
C890 H878 0.950 . S
C890 C889 1.398 . S
C890 C891 1.391 . S
C891 H879 0.950 . S
C891 C887 1.393 . S
C891 C890 1.391 . S
H892 C900 0.950 . S
H893 C905 0.950 . S
H894 C902 0.950 . S
H895 C904 0.950 . S
H896 C906 0.950 . S
H897 C908 0.950 . S
H898 C910 0.950 . S
H899 C911 0.950 . S
C900 H892 0.950 . S
C900 C901 1.386 . S
C900 C902 1.391 . S
C901 C900 1.386 . S
C901 C905 1.393 . S
C902 H894 0.950 . S
C902 C900 1.391 . S
C902 C903 1.400 . S
C903 C902 1.400 . S
C903 C904 1.398 . S
C903 C909 1.491 . S
C904 H895 0.950 . S
C904 C903 1.398 . S
C904 C905 1.391 . S
C905 H893 0.950 . S
C905 C901 1.393 . S
C905 C904 1.391 . S
C906 H896 0.950 . S
C906 C907 1.386 . S
C906 C908 1.391 . S
C907 C906 1.386 . S
C907 C911 1.393 . S
C908 H897 0.950 . S
C908 C906 1.391 . S
C908 C909 1.400 . S
C909 C903 1.491 . S
C909 C908 1.400 . S
C909 C910 1.398 . S
C910 H898 0.950 . S
C910 C909 1.398 . S
C910 C911 1.391 . S
C911 H899 0.950 . S
C911 C907 1.393 . S
C911 C910 1.391 . S
H912 C920 0.950 . S
H913 C925 0.950 . S
H914 C922 0.950 . S
H915 C924 0.950 . S
H916 C926 0.950 . S
H917 C928 0.950 . S
H918 C930 0.950 . S
H919 C931 0.950 . S
C920 H912 0.950 . S
C920 C921 1.386 . S
C920 C922 1.391 . S
C921 C920 1.386 . S
C921 C925 1.393 . S
C922 H914 0.950 . S
C922 C920 1.391 . S
C922 C923 1.400 . S
C923 C922 1.400 . S
C923 C924 1.398 . S
C923 C929 1.491 1_655 S
C924 H915 0.950 . S
C924 C923 1.398 . S
C924 C925 1.391 . S
C925 H913 0.950 . S
C925 C921 1.393 . S
C925 C924 1.391 . S
C926 H916 0.950 . S
C926 C927 1.386 . S
C926 C928 1.391 . S
C927 C926 1.386 . S
C927 C931 1.393 . S
C928 H917 0.950 . S
C928 C926 1.391 . S
C928 C929 1.400 . S
C929 C923 1.491 1_455 S
C929 C928 1.400 . S
C929 C930 1.398 . S
C930 H918 0.950 . S
C930 C929 1.398 . S
C930 C931 1.391 . S
C931 H919 0.950 . S
C931 C927 1.393 . S
C931 C930 1.391 . S
H932 C940 0.950 . S
H933 C945 0.950 . S
H934 C942 0.950 . S
H935 C944 0.950 . S
H936 C946 0.950 . S
H937 C948 0.950 . S
H938 C950 0.950 . S
H939 C951 0.950 . S
C940 H932 0.950 . S
C940 C941 1.386 . S
C940 C942 1.391 . S
C941 C940 1.386 . S
C941 C945 1.393 . S
C942 H934 0.950 . S
C942 C940 1.391 . S
C942 C943 1.400 . S
C943 C942 1.400 . S
C943 C944 1.398 . S
C943 C949 1.491 1_655 S
C944 H935 0.950 . S
C944 C943 1.398 . S
C944 C945 1.391 . S
C945 H933 0.950 . S
C945 C941 1.393 . S
C945 C944 1.391 . S
C946 H936 0.950 . S
C946 C947 1.386 . S
C946 C948 1.391 . S
C947 C946 1.386 . S
C947 C951 1.393 . S
C948 H937 0.950 . S
C948 C946 1.391 . S
C948 C949 1.400 . S
C949 C943 1.491 1_455 S
C949 C948 1.400 . S
C949 C950 1.398 . S
C950 H938 0.950 . S
C950 C949 1.398 . S
C950 C951 1.391 . S
C951 H939 0.950 . S
C951 C947 1.393 . S
C951 C950 1.391 . S
H952 C960 0.950 . S
H953 C965 0.950 . S
H954 C962 0.950 . S
H955 C964 0.950 . S
H956 C966 0.950 . S
H957 C968 0.950 . S
H958 C970 0.950 . S
H959 C971 0.950 . S
C960 H952 0.950 . S
C960 C961 1.386 . S
C960 C962 1.391 . S
C961 C960 1.386 . S
C961 C965 1.393 . S
C962 H954 0.950 . S
C962 C960 1.391 . S
C962 C963 1.400 . S
C963 C962 1.400 . S
C963 C964 1.398 . S
C963 C969 1.491 1_455 S
C964 H955 0.950 . S
C964 C963 1.398 . S
C964 C965 1.391 . S
C965 H953 0.950 . S
C965 C961 1.393 . S
C965 C964 1.391 . S
C966 H956 0.950 . S
C966 C967 1.386 . S
C966 C968 1.391 . S
C967 C966 1.386 . S
C967 C971 1.393 . S
C968 H957 0.950 . S
C968 C966 1.391 . S
C968 C969 1.400 . S
C969 C963 1.491 1_655 S
C969 C968 1.400 . S
C969 C970 1.398 . S
C970 H958 0.950 . S
C970 C969 1.398 . S
C970 C971 1.391 . S
C971 H959 0.950 . S
C971 C967 1.393 . S
C971 C970 1.391 . S
H972 C980 0.950 . S
H973 C985 0.950 . S
H974 C982 0.950 . S
H975 C984 0.950 . S
H976 C986 0.950 . S
H977 C988 0.950 . S
H978 C990 0.950 . S
H979 C991 0.950 . S
C980 H972 0.950 . S
C980 C981 1.386 . S
C980 C982 1.391 . S
C981 C980 1.386 . S
C981 C985 1.393 . S
C982 H974 0.950 . S
C982 C980 1.391 . S
C982 C983 1.400 . S
C983 C982 1.400 . S
C983 C984 1.398 . S
C983 C989 1.491 1_455 S
C984 H975 0.950 . S
C984 C983 1.398 . S
C984 C985 1.391 . S
C985 H973 0.950 . S
C985 C981 1.393 . S
C985 C984 1.391 . S
C986 H976 0.950 . S
C986 C987 1.386 . S
C986 C988 1.391 . S
C987 C986 1.386 . S
C987 C991 1.393 . S
C988 H977 0.950 . S
C988 C986 1.391 . S
C988 C989 1.400 . S
C989 C983 1.491 1_655 S
C989 C988 1.400 . S
C989 C990 1.398 . S
C990 H978 0.950 . S
C990 C989 1.398 . S
C990 C991 1.391 . S
C991 H979 0.950 . S
C991 C987 1.393 . S
C991 C990 1.391 . S
H992 C1000 0.950 . S
H993 C1005 0.950 . S
H994 C1002 0.950 . S
H995 C1004 0.950 . S
H996 C1006 0.950 . S
H997 C1008 0.950 . S
H998 C1010 0.950 . S
H999 C1011 0.950 . S
C1000 H992 0.950 . S
C1000 C1001 1.386 . S
C1000 C1002 1.391 . S
C1001 C1000 1.386 . S
C1001 C1005 1.393 . S
C1002 H994 0.950 . S
C1002 C1000 1.391 . S
C1002 C1003 1.400 . S
C1003 C1002 1.400 . S
C1003 C1004 1.398 . S
C1003 C1009 1.491 1_554 S
C1004 H995 0.950 . S
C1004 C1003 1.398 . S
C1004 C1005 1.391 . S
C1005 H993 0.950 . S
C1005 C1001 1.393 . S
C1005 C1004 1.391 . S
C1006 H996 0.950 . S
C1006 C1007 1.386 . S
C1006 C1008 1.391 . S
C1007 C1006 1.386 . S
C1007 C1011 1.393 . S
C1008 H997 0.950 . S
C1008 C1006 1.391 . S
C1008 C1009 1.400 . S
C1009 C1003 1.491 1_556 S
C1009 C1008 1.400 . S
C1009 C1010 1.398 . S
C1010 H998 0.950 . S
C1010 C1009 1.398 . S
C1010 C1011 1.391 . S
C1011 H999 0.950 . S
C1011 C1007 1.393 . S
C1011 C1010 1.391 . S
H1012 C1020 0.950 . S
H1013 C1025 0.950 . S
H1014 C1022 0.950 . S
H1015 C1024 0.950 . S
H1016 C1026 0.950 . S
H1017 C1028 0.950 . S
H1018 C1030 0.950 . S
H1019 C1031 0.950 . S
C1020 H1012 0.950 . S
C1020 C1021 1.386 . S
C1020 C1022 1.391 . S
C1021 C1020 1.386 . S
C1021 C1025 1.393 . S
C1022 H1014 0.950 . S
C1022 C1020 1.391 . S
C1022 C1023 1.400 . S
C1023 C1022 1.400 . S
C1023 C1024 1.398 . S
C1023 C1029 1.491 . S
C1024 H1015 0.950 . S
C1024 C1023 1.398 . S
C1024 C1025 1.391 . S
C1025 H1013 0.950 . S
C1025 C1021 1.393 . S
C1025 C1024 1.391 . S
C1026 H1016 0.950 . S
C1026 C1027 1.386 . S
C1026 C1028 1.391 . S
C1027 C1026 1.386 . S
C1027 C1031 1.393 . S
C1028 H1017 0.950 . S
C1028 C1026 1.391 . S
C1028 C1029 1.400 . S
C1029 C1023 1.491 . S
C1029 C1028 1.400 . S
C1029 C1030 1.398 . S
C1030 H1018 0.950 . S
C1030 C1029 1.398 . S
C1030 C1031 1.391 . S
C1031 H1019 0.950 . S
C1031 C1027 1.393 . S
C1031 C1030 1.391 . S
H1032 C1040 0.950 . S
H1033 C1045 0.950 . S
H1034 C1042 0.950 . S
H1035 C1044 0.950 . S
H1036 C1046 0.950 . S
H1037 C1048 0.950 . S
H1038 C1050 0.950 . S
H1039 C1051 0.950 . S
C1040 H1032 0.950 . S
C1040 C1041 1.386 . S
C1040 C1042 1.391 . S
C1041 C1040 1.386 . S
C1041 C1045 1.393 . S
C1042 H1034 0.950 . S
C1042 C1040 1.391 . S
C1042 C1043 1.400 . S
C1043 C1042 1.400 . S
C1043 C1044 1.398 . S
C1043 C1049 1.491 1_554 S
C1044 H1035 0.950 . S
C1044 C1043 1.398 . S
C1044 C1045 1.391 . S
C1045 H1033 0.950 . S
C1045 C1041 1.393 . S
C1045 C1044 1.391 . S
C1046 H1036 0.950 . S
C1046 C1047 1.386 . S
C1046 C1048 1.391 . S
C1047 C1046 1.386 . S
C1047 C1051 1.393 . S
C1048 H1037 0.950 . S
C1048 C1046 1.391 . S
C1048 C1049 1.400 . S
C1049 C1043 1.491 1_556 S
C1049 C1048 1.400 . S
C1049 C1050 1.398 . S
C1050 H1038 0.950 . S
C1050 C1049 1.398 . S
C1050 C1051 1.391 . S
C1051 H1039 0.950 . S
C1051 C1047 1.393 . S
C1051 C1050 1.391 . S
H1052 C1060 0.950 . S
H1053 C1065 0.950 . S
H1054 C1062 0.950 . S
H1055 C1064 0.950 . S
H1056 C1066 0.950 . S
H1057 C1068 0.950 . S
H1058 C1070 0.950 . S
H1059 C1071 0.950 . S
C1060 H1052 0.950 . S
C1060 C1061 1.386 . S
C1060 C1062 1.391 . S
C1061 C1060 1.386 . S
C1061 C1065 1.393 . S
C1062 H1054 0.950 . S
C1062 C1060 1.391 . S
C1062 C1063 1.400 . S
C1063 C1062 1.400 . S
C1063 C1064 1.398 . S
C1063 C1069 1.491 . S
C1064 H1055 0.950 . S
C1064 C1063 1.398 . S
C1064 C1065 1.391 . S
C1065 H1053 0.950 . S
C1065 C1061 1.393 . S
C1065 C1064 1.391 . S
C1066 H1056 0.950 . S
C1066 C1067 1.386 . S
C1066 C1068 1.391 . S
C1067 C1066 1.386 . S
C1067 C1071 1.393 . S
C1068 H1057 0.950 . S
C1068 C1066 1.391 . S
C1068 C1069 1.400 . S
C1069 C1063 1.491 . S
C1069 C1068 1.400 . S
C1069 C1070 1.398 . S
C1070 H1058 0.950 . S
C1070 C1069 1.398 . S
C1070 C1071 1.391 . S
C1071 H1059 0.950 . S
C1071 C1067 1.393 . S
C1071 C1070 1.391 . S
H1072 C1080 0.950 . S
H1073 C1085 0.950 . S
H1074 C1082 0.950 . S
H1075 C1084 0.950 . S
H1076 C1086 0.950 . S
H1077 C1088 0.950 . S
H1078 C1090 0.950 . S
H1079 C1091 0.950 . S
C1080 H1072 0.950 . S
C1080 C1081 1.386 . S
C1080 C1082 1.391 . S
C1081 C1080 1.386 . S
C1081 C1085 1.393 . S
C1082 H1074 0.950 . S
C1082 C1080 1.391 . S
C1082 C1083 1.400 . S
C1083 C1082 1.400 . S
C1083 C1084 1.398 . S
C1083 C1089 1.491 1_554 S
C1084 H1075 0.950 . S
C1084 C1083 1.398 . S
C1084 C1085 1.391 . S
C1085 H1073 0.950 . S
C1085 C1081 1.393 . S
C1085 C1084 1.391 . S
C1086 H1076 0.950 . S
C1086 C1087 1.386 . S
C1086 C1088 1.391 . S
C1087 C1086 1.386 . S
C1087 C1091 1.393 . S
C1088 H1077 0.950 . S
C1088 C1086 1.391 . S
C1088 C1089 1.400 . S
C1089 C1083 1.491 1_556 S
C1089 C1088 1.400 . S
C1089 C1090 1.398 . S
C1090 H1078 0.950 . S
C1090 C1089 1.398 . S
C1090 C1091 1.391 . S
C1091 H1079 0.950 . S
C1091 C1087 1.393 . S
C1091 C1090 1.391 . S
H1092 C1100 0.950 . S
H1093 C1105 0.950 . S
H1094 C1102 0.950 . S
H1095 C1104 0.950 . S
H1096 C1106 0.950 . S
H1097 C1108 0.950 . S
H1098 C1110 0.950 . S
H1099 C1111 0.950 . S
C1100 H1092 0.950 . S
C1100 C1101 1.386 . S
C1100 C1102 1.391 . S
C1101 C1100 1.386 . S
C1101 C1105 1.393 . S
C1102 H1094 0.950 . S
C1102 C1100 1.391 . S
C1102 C1103 1.400 . S
C1103 C1102 1.400 . S
C1103 C1104 1.398 . S
C1103 C1109 1.491 . S
C1104 H1095 0.950 . S
C1104 C1103 1.398 . S
C1104 C1105 1.391 . S
C1105 H1093 0.950 . S
C1105 C1101 1.393 . S
C1105 C1104 1.391 . S
C1106 H1096 0.950 . S
C1106 C1107 1.386 . S
C1106 C1108 1.391 . S
C1107 C1106 1.386 . S
C1107 C1111 1.393 . S
C1108 H1097 0.950 . S
C1108 C1106 1.391 . S
C1108 C1109 1.400 . S
C1109 C1103 1.491 . S
C1109 C1108 1.400 . S
C1109 C1110 1.398 . S
C1110 H1098 0.950 . S
C1110 C1109 1.398 . S
C1110 C1111 1.391 . S
C1111 H1099 0.950 . S
C1111 C1107 1.393 . S
C1111 C1110 1.391 . S
H1112 C1120 0.950 . S
H1113 C1125 0.950 . S
H1114 C1122 0.937 1_556 S
H1115 C1124 0.950 . S
H1116 C1126 0.950 . S
H1117 C1128 0.914 1_554 S
H1118 C1130 0.950 . S
H1119 C1131 0.950 . S
C1120 H1112 0.950 . S
C1120 C1121 1.386 . S
C1120 C1122 1.391 . S
C1121 C1120 1.386 . S
C1121 C1125 1.393 . S
C1122 H1114 0.937 1_554 S
C1122 C1120 1.391 . S
C1122 C1123 1.400 . S
C1123 C1122 1.400 . S
C1123 C1124 1.398 . S
C1123 C1129 1.491 1_554 S
C1124 H1115 0.950 . S
C1124 C1123 1.398 . S
C1124 C1125 1.391 . S
C1125 H1113 0.950 . S
C1125 C1121 1.393 . S
C1125 C1124 1.391 . S
C1126 H1116 0.950 . S
C1126 C1127 1.386 . S
C1126 C1128 1.391 . S
C1127 C1126 1.386 . S
C1127 C1131 1.393 . S
C1128 H1117 0.914 1_556 S
C1128 C1126 1.391 . S
C1128 C1129 1.400 . S
C1129 C1123 1.491 1_556 S
C1129 C1128 1.400 . S
C1129 C1130 1.398 . S
C1130 H1118 0.950 . S
C1130 C1129 1.398 . S
C1130 C1131 1.391 . S
C1131 H1119 0.950 . S
C1131 C1127 1.393 . S
C1131 C1130 1.391 . S
H1132 C1140 0.950 . S
H1133 C1145 0.950 . S
H1134 C1142 0.950 . S
H1135 C1144 0.950 . S
H1136 C1146 0.950 . S
H1137 C1148 0.950 . S
H1138 C1150 0.950 . S
H1139 C1151 0.950 . S
C1140 H1132 0.950 . S
C1140 C1141 1.386 . S
C1140 C1142 1.391 . S
C1141 C1140 1.386 . S
C1141 C1145 1.393 . S
C1142 H1134 0.950 . S
C1142 C1140 1.391 . S
C1142 C1143 1.400 . S
C1143 C1142 1.400 . S
C1143 C1144 1.398 . S
C1143 C1149 1.491 . S
C1144 H1135 0.950 . S
C1144 C1143 1.398 . S
C1144 C1145 1.391 . S
C1145 H1133 0.950 . S
C1145 C1141 1.393 . S
C1145 C1144 1.391 . S
C1146 H1136 0.950 . S
C1146 C1147 1.386 . S
C1146 C1148 1.391 . S
C1147 C1146 1.386 . S
C1147 C1151 1.393 . S
C1148 H1137 0.950 . S
C1148 C1146 1.391 . S
C1148 C1149 1.400 . S
C1149 C1143 1.491 . S
C1149 C1148 1.400 . S
C1149 C1150 1.398 . S
C1150 H1138 0.950 . S
C1150 C1149 1.398 . S
C1150 C1151 1.391 . S
C1151 H1139 0.950 . S
C1151 C1147 1.393 . S
C1151 C1150 1.391 . S
H1152 C1160 0.950 . S
H1153 C1165 0.950 . S
H1154 C1162 0.950 . S
H1155 C1164 0.950 . S
H1156 C1166 0.950 . S
H1157 C1168 0.950 . S
H1158 C1170 0.950 . S
H1159 C1171 0.950 . S
C1160 H1152 0.950 . S
C1160 C1161 1.386 . S
C1160 C1162 1.391 . S
C1161 C1160 1.386 . S
C1161 C1165 1.393 . S
C1162 H1154 0.950 . S
C1162 C1160 1.391 . S
C1162 C1163 1.400 . S
C1163 C1162 1.400 . S
C1163 C1164 1.398 . S
C1163 C1169 1.491 . S
C1164 H1155 0.950 . S
C1164 C1163 1.398 . S
C1164 C1165 1.391 . S
C1165 H1153 0.950 . S
C1165 C1161 1.393 . S
C1165 C1164 1.391 . S
C1166 H1156 0.950 . S
C1166 C1167 1.386 . S
C1166 C1168 1.391 . S
C1167 C1166 1.386 . S
C1167 C1171 1.393 . S
C1168 H1157 0.950 . S
C1168 C1166 1.391 . S
C1168 C1169 1.400 . S
C1169 C1163 1.491 . S
C1169 C1168 1.400 . S
C1169 C1170 1.398 . S
C1170 H1158 0.950 . S
C1170 C1169 1.398 . S
C1170 C1171 1.391 . S
C1171 H1159 0.950 . S
C1171 C1167 1.393 . S
C1171 C1170 1.391 . S
H1172 C1180 0.950 . S
H1173 C1185 0.950 . S
H1174 C1182 0.950 . S
H1175 C1184 0.950 . S
H1176 C1186 0.950 . S
H1177 C1188 0.950 . S
H1178 C1190 0.950 . S
H1179 C1191 0.950 . S
C1180 H1172 0.950 . S
C1180 C1181 1.386 . S
C1180 C1182 1.391 . S
C1181 C1180 1.386 . S
C1181 C1185 1.393 . S
C1182 H1174 0.950 . S
C1182 C1180 1.391 . S
C1182 C1183 1.400 . S
C1183 C1182 1.400 . S
C1183 C1184 1.398 . S
C1183 C1189 1.491 . S
C1184 H1175 0.950 . S
C1184 C1183 1.398 . S
C1184 C1185 1.391 . S
C1185 H1173 0.950 . S
C1185 C1181 1.393 . S
C1185 C1184 1.391 . S
C1186 H1176 0.950 . S
C1186 C1187 1.386 . S
C1186 C1188 1.391 . S
C1187 C1186 1.386 . S
C1187 C1191 1.393 . S
C1188 H1177 0.950 . S
C1188 C1186 1.391 . S
C1188 C1189 1.400 . S
C1189 C1183 1.491 . S
C1189 C1188 1.400 . S
C1189 C1190 1.398 . S
C1190 H1178 0.950 . S
C1190 C1189 1.398 . S
C1190 C1191 1.391 . S
C1191 H1179 0.950 . S
C1191 C1187 1.393 . S
C1191 C1190 1.391 . S
H1192 C1200 0.950 . S
H1193 C1205 0.950 . S
H1194 C1202 0.950 . S
H1195 C1204 0.950 . S
H1196 C1206 0.950 . S
H1197 C1208 0.950 . S
H1198 C1210 0.950 . S
H1199 C1211 0.950 . S
C1200 H1192 0.950 . S
C1200 C1201 1.386 . S
C1200 C1202 1.391 . S
C1201 C1200 1.386 . S
C1201 C1205 1.393 . S
C1202 H1194 0.950 . S
C1202 C1200 1.391 . S
C1202 C1203 1.400 . S
C1203 C1202 1.400 . S
C1203 C1204 1.398 . S
C1203 C1209 1.491 . S
C1204 H1195 0.950 . S
C1204 C1203 1.398 . S
C1204 C1205 1.391 . S
C1205 H1193 0.950 . S
C1205 C1201 1.393 . S
C1205 C1204 1.391 . S
C1206 H1196 0.950 . S
C1206 C1207 1.386 . S
C1206 C1208 1.391 . S
C1207 C1206 1.386 . S
C1207 C1211 1.393 . S
C1208 H1197 0.950 . S
C1208 C1206 1.391 . S
C1208 C1209 1.400 . S
C1209 C1203 1.491 . S
C1209 C1208 1.400 . S
C1209 C1210 1.398 . S
C1210 H1198 0.950 . S
C1210 C1209 1.398 . S
C1210 C1211 1.391 . S
C1211 H1199 0.950 . S
C1211 C1207 1.393 . S
C1211 C1210 1.391 . S
H1212 C1220 0.950 . S
H1213 C1225 0.950 . S
H1214 C1222 0.950 . S
H1215 C1224 0.950 . S
H1216 C1226 0.950 . S
H1217 C1228 0.950 . S
H1218 C1230 0.950 . S
H1219 C1231 0.950 . S
C1220 H1212 0.950 . S
C1220 C1221 1.386 . S
C1220 C1222 1.391 . S
C1221 C1220 1.386 . S
C1221 C1225 1.393 . S
C1222 H1214 0.950 . S
C1222 C1220 1.391 . S
C1222 C1223 1.400 . S
C1223 C1222 1.400 . S
C1223 C1224 1.398 . S
C1223 C1229 1.491 . S
C1224 H1215 0.950 . S
C1224 C1223 1.398 . S
C1224 C1225 1.391 . S
C1225 H1213 0.950 . S
C1225 C1221 1.393 . S
C1225 C1224 1.391 . S
C1226 H1216 0.950 . S
C1226 C1227 1.386 . S
C1226 C1228 1.391 . S
C1227 C1226 1.386 . S
C1227 C1231 1.393 . S
C1228 H1217 0.950 . S
C1228 C1226 1.391 . S
C1228 C1229 1.400 . S
C1229 C1223 1.491 . S
C1229 C1228 1.400 . S
C1229 C1230 1.398 . S
C1230 H1218 0.950 . S
C1230 C1229 1.398 . S
C1230 C1231 1.391 . S
C1231 H1219 0.950 . S
C1231 C1227 1.393 . S
C1231 C1230 1.391 . S
H1232 C1240 0.950 . S
H1233 C1245 0.950 . S
H1234 C1242 0.950 . S
H1235 C1244 0.950 . S
H1236 C1246 0.950 . S
H1237 C1248 0.950 . S
H1238 C1250 0.950 . S
H1239 C1251 0.950 . S
C1240 H1232 0.950 . S
C1240 C1241 1.386 . S
C1240 C1242 1.391 . S
C1241 C1240 1.386 . S
C1241 C1245 1.393 . S
C1242 H1234 0.950 . S
C1242 C1240 1.391 . S
C1242 C1243 1.400 . S
C1243 C1242 1.400 . S
C1243 C1244 1.398 . S
C1243 C1249 1.491 . S
C1244 H1235 0.950 . S
C1244 C1243 1.398 . S
C1244 C1245 1.391 . S
C1245 H1233 0.950 . S
C1245 C1241 1.393 . S
C1245 C1244 1.391 . S
C1246 H1236 0.950 . S
C1246 C1247 1.386 . S
C1246 C1248 1.391 . S
C1247 C1246 1.386 . S
C1247 C1251 1.393 . S
C1248 H1237 0.950 . S
C1248 C1246 1.391 . S
C1248 C1249 1.400 . S
C1249 C1243 1.491 . S
C1249 C1248 1.400 . S
C1249 C1250 1.398 . S
C1250 H1238 0.950 . S
C1250 C1249 1.398 . S
C1250 C1251 1.391 . S
C1251 H1239 0.950 . S
C1251 C1247 1.393 . S
C1251 C1250 1.391 . S
H1252 C1260 0.950 . S
H1253 C1265 0.950 . S
H1254 C1262 0.950 . S
H1255 C1264 0.950 . S
H1256 C1266 0.950 . S
H1257 C1268 0.950 . S
H1258 C1270 0.950 . S
H1259 C1271 0.950 . S
C1260 H1252 0.950 . S
C1260 C1261 1.386 . S
C1260 C1262 1.391 . S
C1261 C1260 1.386 . S
C1261 C1265 1.393 . S
C1262 H1254 0.950 . S
C1262 C1260 1.391 . S
C1262 C1263 1.400 . S
C1263 C1262 1.400 . S
C1263 C1264 1.398 . S
C1263 C1269 1.491 . S
C1264 H1255 0.950 . S
C1264 C1263 1.398 . S
C1264 C1265 1.391 . S
C1265 H1253 0.950 . S
C1265 C1261 1.393 . S
C1265 C1264 1.391 . S
C1266 H1256 0.950 . S
C1266 C1267 1.386 . S
C1266 C1268 1.391 . S
C1267 C1266 1.386 . S
C1267 C1271 1.393 . S
C1268 H1257 0.950 . S
C1268 C1266 1.391 . S
C1268 C1269 1.400 . S
C1269 C1263 1.491 . S
C1269 C1268 1.400 . S
C1269 C1270 1.398 . S
C1270 H1258 0.950 . S
C1270 C1269 1.398 . S
C1270 C1271 1.391 . S
C1271 H1259 0.950 . S
C1271 C1267 1.393 . S
C1271 C1270 1.391 . S
H1272 C1280 0.950 . S
H1273 C1285 0.950 . S
H1274 C1282 0.950 . S
H1275 C1284 0.950 . S
H1276 C1286 0.950 . S
H1277 C1288 0.950 . S
H1278 C1290 0.950 . S
H1279 C1291 0.950 . S
C1280 H1272 0.950 . S
C1280 C1281 1.386 . S
C1280 C1282 1.391 . S
C1281 C1280 1.386 . S
C1281 C1285 1.393 . S
C1282 H1274 0.950 . S
C1282 C1280 1.391 . S
C1282 C1283 1.400 . S
C1283 C1282 1.400 . S
C1283 C1284 1.398 . S
C1283 C1289 1.491 . S
C1284 H1275 0.950 . S
C1284 C1283 1.398 . S
C1284 C1285 1.391 . S
C1285 H1273 0.950 . S
C1285 C1281 1.393 . S
C1285 C1284 1.391 . S
C1286 H1276 0.950 . S
C1286 C1287 1.386 . S
C1286 C1288 1.391 . S
C1287 C1286 1.386 . S
C1287 C1291 1.393 . S
C1288 H1277 0.950 . S
C1288 C1286 1.391 . S
C1288 C1289 1.400 . S
C1289 C1283 1.491 . S
C1289 C1288 1.400 . S
C1289 C1290 1.398 . S
C1290 H1278 0.950 . S
C1290 C1289 1.398 . S
C1290 C1291 1.391 . S
C1291 H1279 0.950 . S
C1291 C1287 1.393 . S
C1291 C1290 1.391 . S
H1292 C1300 0.950 . S
H1293 C1305 0.950 . S
H1294 C1302 0.950 . S
H1295 C1304 0.950 . S
H1296 C1306 0.950 . S
H1297 C1308 0.950 . S
H1298 C1310 0.950 . S
H1299 C1311 0.950 . S
C1300 H1292 0.950 . S
C1300 C1301 1.386 . S
C1300 C1302 1.391 . S
C1301 C1300 1.386 . S
C1301 C1305 1.393 . S
C1302 H1294 0.950 . S
C1302 C1300 1.391 . S
C1302 C1303 1.400 . S
C1303 C1302 1.400 . S
C1303 C1304 1.398 . S
C1303 C1309 1.491 . S
C1304 H1295 0.950 . S
C1304 C1303 1.398 . S
C1304 C1305 1.391 . S
C1305 H1293 0.950 . S
C1305 C1301 1.393 . S
C1305 C1304 1.391 . S
C1306 H1296 0.950 . S
C1306 C1307 1.386 . S
C1306 C1308 1.391 . S
C1307 C1306 1.386 . S
C1307 C1311 1.393 . S
C1308 H1297 0.950 . S
C1308 C1306 1.391 . S
C1308 C1309 1.400 . S
C1309 C1303 1.491 . S
C1309 C1308 1.400 . S
C1309 C1310 1.398 . S
C1310 H1298 0.950 . S
C1310 C1309 1.398 . S
C1310 C1311 1.391 . S
C1311 H1299 0.950 . S
C1311 C1307 1.393 . S
C1311 C1310 1.391 . S
C361 C10 1.560 . S
C367 C329 1.625 . S
C381 C32 1.560 . S
C387 C351 1.625 . S
C401 C52 1.561 . S
C407 C279 1.625 . S
C421 C301 1.621 . S
C427 C76 1.575 . S
C441 C235 1.632 . S
C447 C96 1.571 . S
C461 C263 1.629 . S
C467 C118 1.583 . S
C481 C197 1.630 . S
C487 C142 1.583 . S
C501 C219 1.631 . S
C507 C172 1.578 . S
C521 C186 1.574 . S
C527 C139 1.622 . S
C541 C175 1.621 . S
C547 C208 1.573 . S
C561 C103 1.626 . S
C567 C238 1.551 . S
C581 C125 1.624 . S
C587 C252 1.563 . S
C601 C51 1.629 . S
C607 C272 1.580 . S
C621 C294 1.580 . S
C627 C87 1.631 . S
C641 C21 1.629 . S
C647 C326 1.583 . S
C661 C348 1.564 . S
C667 C43 1.632 . S
C681 C7 1.267 . S
C687 C59 1.268 . S
C701 C73 1.266 . S
C707 C29 1.269 . S
C721 C153 1.274 . S
C727 C95 1.277 . S
C741 C169 1.274 . S
C747 C117 1.277 . S
C761 C241 1.266 . S
C767 C183 1.269 . S
C781 C249 1.264 . S
C787 C205 1.273 . S
C801 C323 1.276 . S
C807 C271 1.275 . S
C821 C293 1.278 . S
C827 C345 1.272 . S
C841 C18 1.520 . S
C847 C140 1.506 . S
C861 C40 1.517 . S
C867 C164 1.510 . S
C881 C106 1.519 . S
C887 C54 1.508 . S
C901 C84 1.510 . S
C907 C128 1.518 . S
C921 C194 1.508 . S
C927 C318 1.518 . S
C941 C340 1.518 . S
C947 C216 1.508 . S
C961 C282 1.516 . S
C967 C228 1.510 . S
C981 C260 1.518 . S
C987 C304 1.507 . S
C1001 C15 0.882 . S
C1007 C285 0.888 . S
C1021 C307 0.876 . S
C1027 C37 0.870 . S
C1041 C315 0.913 . S
C1047 C65 0.909 . S
C1061 C337 0.917 . S
C1067 C81 0.915 . S
C1081 C191 0.905 . S
C1087 C109 0.907 . S
C1101 C213 0.870 . S
C1107 C131 0.876 . S
C1121 C147 0.918 . S
C1127 C227 0.916 . S
C1141 C257 0.913 . S
C1147 C161 0.915 . S
C1161 C8 1.425 . S
C1167 C120 1.426 . S
C1181 C98 1.423 . S
C1187 C30 1.427 . S
C1201 C62 1.427 . S
C1207 C162 1.425 . S
C1221 C150 1.426 . S
C1227 C74 1.425 . S
C1241 C184 1.427 . S
C1247 C296 1.423 . S
C1261 C274 1.426 . S
C1267 C206 1.425 . S
C1281 C338 1.426 . S
C1287 C230 1.425 . S
C1301 C250 1.427 . S
C1307 C316 1.423 . S
