# Generated by pormake.
# Topology rhr, (4)-cn, num edge types: 1
# Building blocks:
#     Node 0, Type 0, BuildingBlock: NAWXER_clean_sbu_0, # of connection points: 4
#     Node 1, Type 0, BuildingBlock: NAWXER_clean_sbu_0, # of connection points: 4
#     Node 2, Type 0, BuildingBlock: NAWXER_clean_sbu_0, # of connection points: 4
#     Node 3, Type 0, BuildingBlock: NAWXER_clean_sbu_0, # of connection points: 4
#     Node 4, Type 0, BuildingBlock: NAWXER_clean_sbu_0, # of connection points: 4
#     Node 5, Type 0, BuildingBlock: NAWXER_clean_sbu_0, # of connection points: 4
#     Node 6, Type 0, BuildingBlock: NAWXER_clean_sbu_0, # of connection points: 4
#     Node 7, Type 0, BuildingBlock: NAWXER_clean_sbu_0, # of connection points: 4
#     Node 8, Type 0, BuildingBlock: NAWXER_clean_sbu_0, # of connection points: 4
#     Node 9, Type 0, BuildingBlock: NAWXER_clean_sbu_0, # of connection points: 4
#     Node 10, Type 0, BuildingBlock: NAWXER_clean_sbu_0, # of connection points: 4
#     Node 11, Type 0, BuildingBlock: NAWXER_clean_sbu_0, # of connection points: 4
#     Node 12, Type 0, BuildingBlock: NAWXER_clean_sbu_0, # of connection points: 4
#     Node 13, Type 0, BuildingBlock: NAWXER_clean_sbu_0, # of connection points: 4
#     Node 14, Type 0, BuildingBlock: NAWXER_clean_sbu_0, # of connection points: 4
#     Node 15, Type 0, BuildingBlock: NAWXER_clean_sbu_0, # of connection points: 4
#     Node 16, Type 0, BuildingBlock: NAWXER_clean_sbu_0, # of connection points: 4
#     Node 17, Type 0, BuildingBlock: NAWXER_clean_sbu_0, # of connection points: 4
#     Node 18, Type 0, BuildingBlock: NAWXER_clean_sbu_0, # of connection points: 4
#     Node 19, Type 0, BuildingBlock: NAWXER_clean_sbu_0, # of connection points: 4
#     Node 20, Type 0, BuildingBlock: NAWXER_clean_sbu_0, # of connection points: 4
#     Node 21, Type 0, BuildingBlock: NAWXER_clean_sbu_0, # of connection points: 4
#     Node 22, Type 0, BuildingBlock: NAWXER_clean_sbu_0, # of connection points: 4
#     Node 23, Type 0, BuildingBlock: NAWXER_clean_sbu_0, # of connection points: 4
#     Edge 24, Type (0, 0), BuildingBlock: MIFKUJ_clean_linker_0, # of connection points: 2
#     Edge 25, Type (0, 0), BuildingBlock: MIFKUJ_clean_linker_0, # of connection points: 2
#     Edge 26, Type (0, 0), BuildingBlock: MIFKUJ_clean_linker_0, # of connection points: 2
#     Edge 27, Type (0, 0), BuildingBlock: MIFKUJ_clean_linker_0, # of connection points: 2
#     Edge 28, Type (0, 0), BuildingBlock: MIFKUJ_clean_linker_0, # of connection points: 2
#     Edge 29, Type (0, 0), BuildingBlock: MIFKUJ_clean_linker_0, # of connection points: 2
#     Edge 30, Type (0, 0), BuildingBlock: MIFKUJ_clean_linker_0, # of connection points: 2
#     Edge 31, Type (0, 0), BuildingBlock: MIFKUJ_clean_linker_0, # of connection points: 2
#     Edge 32, Type (0, 0), BuildingBlock: MIFKUJ_clean_linker_0, # of connection points: 2
#     Edge 33, Type (0, 0), BuildingBlock: MIFKUJ_clean_linker_0, # of connection points: 2
#     Edge 34, Type (0, 0), BuildingBlock: MIFKUJ_clean_linker_0, # of connection points: 2
#     Edge 35, Type (0, 0), BuildingBlock: MIFKUJ_clean_linker_0, # of connection points: 2
#     Edge 36, Type (0, 0), BuildingBlock: MIFKUJ_clean_linker_0, # of connection points: 2
#     Edge 37, Type (0, 0), BuildingBlock: MIFKUJ_clean_linker_0, # of connection points: 2
#     Edge 38, Type (0, 0), BuildingBlock: MIFKUJ_clean_linker_0, # of connection points: 2
#     Edge 39, Type (0, 0), BuildingBlock: MIFKUJ_clean_linker_0, # of connection points: 2
#     Edge 40, Type (0, 0), BuildingBlock: MIFKUJ_clean_linker_0, # of connection points: 2
#     Edge 41, Type (0, 0), BuildingBlock: MIFKUJ_clean_linker_0, # of connection points: 2
#     Edge 42, Type (0, 0), BuildingBlock: MIFKUJ_clean_linker_0, # of connection points: 2
#     Edge 43, Type (0, 0), BuildingBlock: MIFKUJ_clean_linker_0, # of connection points: 2
#     Edge 44, Type (0, 0), BuildingBlock: MIFKUJ_clean_linker_0, # of connection points: 2
#     Edge 45, Type (0, 0), BuildingBlock: MIFKUJ_clean_linker_0, # of connection points: 2
#     Edge 46, Type (0, 0), BuildingBlock: MIFKUJ_clean_linker_0, # of connection points: 2
#     Edge 47, Type (0, 0), BuildingBlock: MIFKUJ_clean_linker_0, # of connection points: 2
#     Edge 48, Type (0, 0), BuildingBlock: MIFKUJ_clean_linker_0, # of connection points: 2
#     Edge 49, Type (0, 0), BuildingBlock: MIFKUJ_clean_linker_0, # of connection points: 2
#     Edge 50, Type (0, 0), BuildingBlock: MIFKUJ_clean_linker_0, # of connection points: 2
#     Edge 51, Type (0, 0), BuildingBlock: MIFKUJ_clean_linker_0, # of connection points: 2
#     Edge 52, Type (0, 0), BuildingBlock: MIFKUJ_clean_linker_0, # of connection points: 2
#     Edge 53, Type (0, 0), BuildingBlock: MIFKUJ_clean_linker_0, # of connection points: 2
#     Edge 54, Type (0, 0), BuildingBlock: MIFKUJ_clean_linker_0, # of connection points: 2
#     Edge 55, Type (0, 0), BuildingBlock: MIFKUJ_clean_linker_0, # of connection points: 2
#     Edge 56, Type (0, 0), BuildingBlock: MIFKUJ_clean_linker_0, # of connection points: 2
#     Edge 57, Type (0, 0), BuildingBlock: MIFKUJ_clean_linker_0, # of connection points: 2
#     Edge 58, Type (0, 0), BuildingBlock: MIFKUJ_clean_linker_0, # of connection points: 2
#     Edge 59, Type (0, 0), BuildingBlock: MIFKUJ_clean_linker_0, # of connection points: 2
#     Edge 60, Type (0, 0), BuildingBlock: MIFKUJ_clean_linker_0, # of connection points: 2
#     Edge 61, Type (0, 0), BuildingBlock: MIFKUJ_clean_linker_0, # of connection points: 2
#     Edge 62, Type (0, 0), BuildingBlock: MIFKUJ_clean_linker_0, # of connection points: 2
#     Edge 63, Type (0, 0), BuildingBlock: MIFKUJ_clean_linker_0, # of connection points: 2
#     Edge 64, Type (0, 0), BuildingBlock: MIFKUJ_clean_linker_0, # of connection points: 2
#     Edge 65, Type (0, 0), BuildingBlock: MIFKUJ_clean_linker_0, # of connection points: 2
#     Edge 66, Type (0, 0), BuildingBlock: MIFKUJ_clean_linker_0, # of connection points: 2
#     Edge 67, Type (0, 0), BuildingBlock: MIFKUJ_clean_linker_0, # of connection points: 2
#     Edge 68, Type (0, 0), BuildingBlock: MIFKUJ_clean_linker_0, # of connection points: 2
#     Edge 69, Type (0, 0), BuildingBlock: MIFKUJ_clean_linker_0, # of connection points: 2
#     Edge 70, Type (0, 0), BuildingBlock: MIFKUJ_clean_linker_0, # of connection points: 2
#     Edge 71, Type (0, 0), BuildingBlock: MIFKUJ_clean_linker_0, # of connection points: 2
# Relax obj value: 0.003
# Max RMSD: 0.009
# Mean RMSD: 0.009
data_MOF--net-rhr--node1-NAWXER_clean_sbu_0--edge1-MIFKUJ_clean_linker_0
_symmetry_space_group_name_H-M    P1
_symmetry_Int_Tables_number       1
_symmetry_cell_setting            triclinic
loop_
_symmetry_equiv_pos_as_xyz
'x, y, z'
_cell_length_a     65.920266
_cell_length_b     65.966355
_cell_length_c     65.908306
_cell_angle_alpha  89.977351
_cell_angle_beta   89.984501
_cell_angle_gamma 89.780435
loop_
_atom_site_label
_atom_site_type_symbol
_atom_site_fract_x
_atom_site_fract_y
_atom_site_fract_z
_atom_type_partial_charge
C0 C 0.30967 0.03698 0.34947 0.0
C1 C 0.34447 0.98117 0.31403 0.0
O2 O 0.30407 0.02863 0.33299 0.0
Zn3 Zn 0.32624 0.00898 0.33119 0.0
O4 O 0.32564 0.03052 0.35852 0.0
Zn5 Zn 0.34841 0.00756 0.35497 0.0
O6 O 0.37307 0.02363 0.35299 0.0
O7 O 0.35204 0.02818 0.32731 0.0
O8 O 0.35266 0.98598 0.331 0.0
O9 O 0.32877 0.99074 0.30803 0.0
O10 O 0.31896 0.98901 0.35564 0.0
O11 O 0.34322 0.99072 0.37867 0.0
C12 C 0.3687 0.03242 0.33636 0.0
C13 C 0.32632 0.98355 0.37279 0.0
C14 C 0.03564 0.34613 0.30626 0.0
C15 C 0.9799 0.30719 0.33681 0.0
O16 O 0.02951 0.32868 0.30083 0.0
Zn17 Zn 0.00809 0.32567 0.32107 0.0
O18 O 0.02725 0.35487 0.3215 0.0
Zn19 Zn 1.00346 0.3494 0.34287 0.0
O20 O 0.01699 0.34771 0.36907 0.0
O21 O 0.02478 0.32233 0.3486 0.0
O22 O 0.98311 0.32443 0.3451 0.0
O23 O 0.99107 0.3014 0.32213 0.0
O24 O 0.98673 0.34887 0.31239 0.0
O25 O 0.98517 0.37167 0.33692 0.0
C26 C 0.02666 0.33134 0.36569 0.0
C27 C 0.97945 0.36546 0.31957 0.0
C28 C 0.65292 0.97515 0.32347 0.0
C29 C 0.68943 0.02473 0.36465 0.0
O30 O 0.64765 0.98156 0.34093 0.0
Zn31 Zn 0.6705 0.99959 0.34474 0.0
O32 O 0.66961 0.98123 0.31557 0.0
Zn33 Zn 0.69407 1.00148 0.32226 0.0
O34 O 0.71753 0.98341 0.32459 0.0
O35 O 0.69468 0.97856 0.34856 0.0
O36 O 0.69814 0.0207 0.34776 0.0
O37 O 0.67287 0.01603 0.36921 0.0
O38 O 0.66504 0.0206 0.32045 0.0
O39 O 0.69142 0.02049 0.29977 0.0
C40 C 0.71163 0.97388 0.34029 0.0
C41 C 0.67372 0.0269 0.30422 0.0
C42 C 0.03298 0.67131 0.29773 0.0
C43 C 0.99405 0.71418 0.34419 0.0
O44 O 0.02927 0.66266 0.31475 0.0
Zn45 Zn 0.01409 0.66956 0.3427 0.0
O46 O 0.02711 0.68948 0.2949 0.0
Zn47 Zn 0.01357 0.69317 0.32078 0.0
O48 O 0.03811 0.69476 0.34238 0.0
O49 O 0.03541 0.66854 0.36296 0.0
O50 O 0.99941 0.71841 0.32615 0.0
O51 O 0.9984 0.69674 0.35167 0.0
O52 O 0.99295 0.64911 0.34286 0.0
O53 O 0.989 0.67183 0.31861 0.0
C54 C 0.04454 0.68468 0.35777 0.0
C55 C 0.98298 0.65574 0.32772 0.0
C56 C 0.32497 0.02585 0.63759 0.0
C57 C 0.37424 0.98352 0.67413 0.0
O58 O 0.34256 0.02061 0.63161 0.0
Zn59 Zn 0.35129 0.00641 0.6561 0.0
O60 O 0.31955 0.02181 0.65583 0.0
Zn61 Zn 0.33168 0.00662 0.68187 0.0
O62 O 0.33562 0.02732 0.70243 0.0
O63 O 0.35797 0.02985 0.67772 0.0
O64 O 0.35873 0.98868 0.6847 0.0
O65 O 0.37626 0.99042 0.65619 0.0
O66 O 0.3296 0.98215 0.65786 0.0
O67 O 0.31118 0.98582 0.68567 0.0
C68 C 0.35101 0.03604 0.69482 0.0
C69 C 0.31545 0.97591 0.66964 0.0
C70 C 0.02578 0.36657 0.68886 0.0
C71 C 0.97989 0.32121 0.65203 0.0
O72 O 0.01609 0.371 0.67275 0.0
Zn73 Zn 1.00219 0.34491 0.66996 0.0
O74 O 0.02348 0.34915 0.69705 0.0
Zn75 Zn 0.00678 0.32208 0.69285 0.0
O76 O 0.02867 0.30241 0.69001 0.0
O77 O 0.02665 0.32391 0.66437 0.0
O78 O 0.98717 0.31357 0.6684 0.0
O79 O 0.98427 0.33937 0.64721 0.0
O80 O 0.98152 0.34642 0.6947 0.0
O81 O 0.9893 0.32251 0.71682 0.0
C82 C 0.03517 0.30859 0.6729 0.0
C83 C 0.97823 0.33747 0.71161 0.0
C84 C 0.67326 0.03444 0.71126 0.0
C85 C 0.71309 0.99165 0.66537 0.0
O86 O 0.66429 0.0308 0.69439 0.0
Zn87 Zn 0.66953 0.01392 0.66704 0.0
O88 O 0.69091 0.02725 0.71439 0.0
Zn89 Zn 0.69333 0.01278 0.6888 0.0
O90 O 0.69555 0.03673 0.6665 0.0
O91 O 0.66878 0.03488 0.64648 0.0
O92 O 0.7175 0.99686 0.6834 0.0
O93 O 0.69589 0.99686 0.65783 0.0
O94 O 0.64762 0.99423 0.66847 0.0
O95 O 0.67023 0.9904 0.69279 0.0
C96 C 0.68539 0.0434 0.65125 0.0
C97 C 0.65353 0.98509 0.68441 0.0
C98 C 0.98959 0.66576 0.71968 0.0
C99 C 0.02828 0.71114 0.67604 0.0
O100 O 0.99335 0.65798 0.70221 0.0
Zn101 Zn 0.00866 0.6666 0.67457 0.0
O102 O 0.99546 0.68368 0.72352 0.0
Zn103 Zn 0.00906 0.68853 0.69808 0.0
O104 O 0.98444 0.69147 0.67666 0.0
O105 O 0.98732 0.6666 0.65445 0.0
O106 O 0.02348 0.71383 0.69452 0.0
O107 O 0.02373 0.69446 0.66721 0.0
O108 O 0.0302 0.64645 0.67272 0.0
O109 O 0.03307 0.66647 0.69933 0.0
C110 C 0.97804 0.68233 0.66072 0.0
C111 C 0.03944 0.65131 0.68892 0.0
C112 C 0.29226 0.33027 0.02977 0.0
C113 C 0.33327 0.28702 0.98561 0.0
O114 O 0.30934 0.33832 0.02513 0.0
Zn115 Zn 0.3354 0.3309 0.00684 0.0
O116 O 0.28788 0.31275 0.0231 0.0
Zn117 Zn 0.31244 0.30843 0.00771 0.0
O118 O 0.33575 0.30545 0.03061 0.0
O119 O 0.35757 0.33034 0.02608 0.0
O120 O 0.31573 0.28326 0.99266 0.0
O121 O 0.34167 0.30404 0.98968 0.0
O122 O 0.33473 0.3519 0.98618 0.0
O123 O 0.30884 0.33094 0.98428 0.0
C124 C 0.35216 0.31456 0.03571 0.0
C125 C 0.3182 0.34667 0.97777 0.0
C126 C 0.67963 0.37373 0.03853 0.0
C127 C 0.65084 0.33085 0.98476 0.0
O128 O 0.6893 0.35706 0.03578 0.0
Zn129 Zn 0.68794 0.33071 0.01674 0.0
O130 O 0.66427 0.37769 0.0275 0.0
Zn131 Zn 0.66523 0.35298 0.01118 0.0
O132 O 0.6576 0.33039 0.03329 0.0
O133 O 0.68381 0.30973 0.03684 0.0
O134 O 0.64484 0.34827 0.99051 0.0
O135 O 0.66661 0.32292 0.99308 0.0
O136 O 0.7138 0.33209 1.00312 0.0
O137 O 0.69301 0.35693 0.99444 0.0
C138 C 0.66592 0.31499 0.0418 0.0
C139 C 0.71036 0.34813 0.99299 0.0
C140 C 0.65522 0.69478 0.03344 0.0
C141 C 0.69776 0.66577 0.97919 0.0
O142 O 0.67174 0.70198 0.02655 0.0
Zn143 Zn 0.67695 0.68127 1.0062 0.0
O144 O 0.64813 0.67835 0.02582 0.0
Zn145 Zn 0.65589 0.65683 1.00241 0.0
O146 O 0.66006 0.63157 0.01723 0.0
O147 O 0.68267 0.65516 0.02447 0.0
O148 O 0.68142 0.65595 0.98268 0.0
O149 O 0.70156 0.68169 0.98939 0.0
O150 O 0.65291 0.68691 0.98504 0.0
O151 O 0.63364 0.65967 0.98324 0.0
C152 C 0.67558 0.63732 0.02712 0.0
C153 C 0.6375 0.6777 0.97763 0.0
C154 C 0.32574 0.6563 0.97799 0.0
C155 C 0.36991 0.68838 0.02783 0.0
O156 O 0.34365 0.65103 0.98287 0.0
Zn157 Zn 0.34874 0.67236 1.0025 0.0
O158 O 0.31805 0.67244 0.98565 0.0
Zn159 Zn 0.32629 0.69546 1.00673 0.0
O160 O 0.32806 0.72033 0.99052 0.0
O161 O 0.35315 0.699 0.98463 0.0
O162 O 0.35298 0.69769 0.02527 0.0
O163 O 0.37393 0.67251 0.01759 0.0
O164 O 0.32657 0.66634 0.02575 0.0
O165 O 0.30504 0.6921 0.0268 0.0
C166 C 0.34466 0.71623 0.98155 0.0
C167 C 0.31075 0.67483 0.03335 0.0
C168 C 0.88776 0.5294 0.8519 0.0
C169 C 0.84496 0.48126 0.88868 0.0
O170 O 0.89098 0.52243 0.86962 0.0
Zn171 Zn 0.86672 0.50582 0.87119 0.0
O172 O 0.87158 0.52452 0.84233 0.0
Zn173 Zn 0.8451 0.50639 0.8469 0.0
O174 O 0.82308 0.52624 0.84777 0.0
O175 O 0.84351 0.52844 0.87414 0.0
O176 O 0.8376 0.48697 0.87161 0.0
O177 O 0.86191 0.48831 0.89456 0.0
O178 O 0.87178 0.484 0.84743 0.0
O179 O 0.84749 0.48712 0.8246 0.0
C180 C 0.82786 0.53472 0.86442 0.0
C181 C 0.86359 0.47832 0.83073 0.0
C182 C 0.47524 0.82902 0.85175 0.0
C183 C 0.5315 0.86101 0.81535 0.0
O184 O 0.48132 0.81852 0.83649 0.0
Zn185 Zn 0.50461 0.82036 0.81341 0.0
O186 O 0.48409 0.84561 0.85587 0.0
Zn187 Zn 0.50402 0.84473 0.83435 0.0
O188 O 0.48567 0.84866 0.80771 0.0
O189 O 0.48929 0.82159 0.78831 0.0
O190 O 0.5227 0.8672 0.83136 0.0
O191 O 0.52647 0.84386 0.80771 0.0
O192 O 0.5208 0.7965 0.81898 0.0
O193 O 0.5227 0.81941 0.84324 0.0
C194 C 0.48163 0.83905 0.7913 0.0
C195 C 0.52759 0.80194 0.83616 0.0
C196 C 0.18279 0.52916 0.79549 0.0
C197 C 0.21378 0.47381 0.83469 0.0
O198 O 0.1983 0.51879 0.79043 0.0
Zn199 Zn 0.1989 0.50135 0.8145 0.0
O200 O 0.17396 0.52552 0.8124 0.0
Zn201 Zn 0.17621 0.50519 0.8374 0.0
O202 O 0.18093 0.52346 0.85997 0.0
O203 O 0.20676 0.52152 0.83872 0.0
O204 O 0.19787 0.48131 0.8431 0.0
O205 O 0.21977 0.48078 0.81772 0.0
O206 O 0.17178 0.48409 0.8101 0.0
O207 O 0.15044 0.49131 0.83496 0.0
C208 C 0.19887 0.52855 0.85506 0.0
C209 C 0.15442 0.48193 0.81857 0.0
C210 C 0.48204 0.15924 0.81739 0.0
C211 C 0.53049 0.19757 0.85914 0.0
O212 O 0.49022 0.17613 0.81304 0.0
Zn213 Zn 0.50717 0.17822 0.83721 0.0
O214 O 0.48703 0.15015 0.83387 0.0
Zn215 Zn 0.50679 0.15484 0.85948 0.0
O216 O 0.487 0.15467 0.88116 0.0
O217 O 0.48484 0.1814 0.86095 0.0
O218 O 0.52509 0.18074 0.86727 0.0
O219 O 0.52421 0.20194 0.84142 0.0
O220 O 0.52851 0.15432 0.83208 0.0
O221 O 0.52625 0.13267 0.85745 0.0
C222 C 0.47865 0.17144 0.87648 0.0
C223 C 0.53435 0.13793 0.84077 0.0
C224 C 0.79306 0.49752 0.17246 0.0
C225 C 0.83945 0.54199 0.21023 0.0
O226 O 0.78957 0.50602 0.18945 0.0
Zn227 Zn 0.81579 0.51967 0.19209 0.0
O228 O 0.81058 0.49946 0.16425 0.0
Zn229 Zn 0.83865 0.51484 0.16965 0.0
O230 O 0.8582 0.49323 0.17278 0.0
O231 O 0.83663 0.49519 0.19836 0.0
O232 O 0.84734 0.53437 0.19416 0.0
O233 O 0.82103 0.53825 0.21454 0.0
O234 O 0.81455 0.53958 0.16642 0.0
O235 O 0.83967 0.53181 0.14562 0.0
C236 C 0.85215 0.4869 0.18996 0.0
C237 C 0.8241 0.54248 0.14973 0.0
C238 C 0.52387 0.86655 0.18637 0.0
C239 C 0.4797 0.83325 0.13726 0.0
O240 O 0.52023 0.87248 0.16836 0.0
Zn241 Zn 0.50225 0.85036 0.16104 0.0
O242 O 0.51625 0.8499 0.19279 0.0
Zn243 Zn 0.49684 0.82633 0.18229 0.0
O244 O 0.51436 0.80227 0.1813 0.0
O245 O 0.52281 0.82545 0.15878 0.0
O246 O 0.48097 0.8239 0.15424 0.0
O247 O 0.48972 0.84943 0.13435 0.0
O248 O 0.47701 0.85511 0.18142 0.0
O249 O 0.47498 0.82867 0.20192 0.0
C250 C 0.52584 0.80808 0.16692 0.0
C251 C 0.46844 0.84597 0.19633 0.0
C252 C 0.19335 0.53341 0.14971 0.0
C253 C 0.15753 0.48068 0.18832 0.0
O254 O 0.19919 0.52509 0.16614 0.0
Zn255 Zn 0.17618 0.50698 0.16954 0.0
O256 O 0.17659 0.52785 0.14159 0.0
Zn257 Zn 0.1525 0.5067 0.14721 0.0
O258 O 0.12926 0.52475 0.15016 0.0
O259 O 0.15167 0.52774 0.17485 0.0
O260 O 0.14829 0.48628 0.17213 0.0
O261 O 0.17451 0.48866 0.19276 0.0
O262 O 0.18067 0.48636 0.14512 0.0
O263 O 0.15465 0.4881 0.12417 0.0
C264 C 0.13487 0.53316 0.1666 0.0
C265 C 0.17174 0.48042 0.12894 0.0
C266 C 0.53509 0.20938 0.17546 0.0
C267 C 0.48962 0.16437 0.21256 0.0
O268 O 0.52995 0.19362 0.16536 0.0
Zn269 Zn 0.51149 0.16723 0.16905 0.0
O270 O 0.5282 0.21215 0.19328 0.0
Zn271 Zn 0.51152 0.18795 0.19391 0.0
O272 O 0.53476 0.16497 0.19451 0.0
O273 O 0.5315 0.14551 0.16745 0.0
O274 O 0.49578 0.18177 0.218 0.0
O275 O 0.49421 0.15767 0.19487 0.0
O276 O 0.49212 0.17104 0.1472 0.0
O277 O 0.48915 0.19444 0.17099 0.0
C278 C 0.54079 0.14989 0.18378 0.0
C279 C 0.48357 0.18697 0.15393 0.0
C280 C 0.85861 0.81249 0.53343 0.0
C281 C 0.82302 0.8542 0.48312 0.0
O282 O 0.84114 0.80923 0.52596 0.0
Zn283 Zn 0.83946 0.8336 0.50933 0.0
O284 O 0.86799 0.82887 0.52892 0.0
Zn285 Zn 0.8635 0.85529 0.51055 0.0
O286 O 0.86127 0.87772 0.52974 0.0
O287 O 0.83508 0.85712 0.53105 0.0
O288 O 0.83984 0.86181 0.48916 0.0
O289 O 0.81659 0.83788 0.49115 0.0
O290 O 0.8638 0.82927 0.48794 0.0
O291 O 0.88676 0.85319 0.49257 0.0
C292 C 0.84421 0.87303 0.53736 0.0
C293 C 0.88069 0.83756 0.48304 0.0
C294 C 0.19977 0.84662 0.54384 0.0
C295 C 0.1647 0.80745 0.491 0.0
O296 O 0.20538 0.82961 0.53657 0.0
Zn297 Zn 0.18336 0.82688 0.51711 0.0
O298 O 0.18393 0.85545 0.5367 0.0
Zn299 Zn 0.16132 0.85049 0.51367 0.0
O300 O 0.13658 0.85034 0.5297 0.0
O301 O 0.15767 0.82523 0.53709 0.0
O302 O 0.15657 0.82479 0.49447 0.0
O303 O 0.18067 0.80243 0.50062 0.0
O304 O 0.19141 0.84997 0.4959 0.0
O305 O 0.16682 0.87269 0.49499 0.0
C306 C 0.14106 0.83486 0.54033 0.0
C307 C 0.18416 0.86665 0.489 0.0
C308 C 0.16521 0.20253 0.53695 0.0
C309 C 0.19808 0.17204 0.47719 0.0
O310 O 0.18183 0.20823 0.52895 0.0
Zn311 Zn 0.18273 0.18788 0.50737 0.0
O312 O 0.1559 0.18718 0.52958 0.0
Zn313 Zn 0.15879 0.16584 0.5054 0.0
O314 O 0.16236 0.13979 0.51913 0.0
O315 O 0.188 0.16068 0.52399 0.0
O316 O 0.18134 0.16368 0.48231 0.0
O317 O 0.2049 0.18675 0.48764 0.0
O318 O 0.15717 0.19649 0.48904 0.0
O319 O 0.13431 0.17206 0.49003 0.0
C320 C 0.1795 0.14356 0.52712 0.0
C321 C 0.13982 0.18948 0.48383 0.0
C322 C 0.86172 0.18902 0.5245 0.0
C323 C 0.82939 0.14064 0.47856 0.0
O324 O 0.86723 0.17085 0.52102 0.0
Zn325 Zn 0.84604 0.16413 0.50172 0.0
O326 O 0.84581 0.19609 0.51577 0.0
Zn327 Zn 0.82329 0.18628 0.49457 0.0
O328 O 0.79791 0.18643 0.51007 0.0
O329 O 0.81963 0.16306 0.52028 0.0
O330 O 0.82068 0.15802 0.47898 0.0
O331 O 0.84487 0.13727 0.4896 0.0
O332 O 0.85295 0.18348 0.47634 0.0
O333 O 0.82766 0.20522 0.47246 0.0
C334 C 0.80235 0.17184 0.52191 0.0
C335 C 0.84492 0.1985 0.46689 0.0
H336 H 0.23924 0.17275 0.47034 0.0
H337 H 0.258 0.15294 0.44495 0.0
H338 H 0.20147 0.13168 0.41991 0.0
H339 H 0.18282 0.15087 0.44546 0.0
H340 H 0.22494 0.10102 0.4268 0.0
H341 H 0.23381 0.16527 0.39409 0.0
H342 H 0.24354 0.20124 0.39153 0.0
H343 H 0.30512 0.1858 0.40633 0.0
H344 H 0.29571 0.14976 0.40925 0.0
H345 H 0.26946 0.04692 0.34393 0.0
H346 H 0.24989 0.07284 0.36236 0.0
H347 H 0.30389 0.0906 0.3946 0.0
H348 H 0.32338 0.0648 0.3765 0.0
H349 H 0.28107 0.1237 0.38226 0.0
H350 H 0.27167 0.06011 0.41683 0.0
H351 H 0.26171 0.02438 0.42128 0.0
H352 H 0.20072 0.03901 0.40358 0.0
H353 H 0.21039 0.07478 0.39868 0.0
C354 C 0.23086 0.1642 0.45912 0.0
C355 C 0.20958 0.16327 0.45996 0.0
C356 C 0.24158 0.15288 0.44459 0.0
C357 C 0.23117 0.14075 0.43045 0.0
C358 C 0.20988 0.14075 0.4307 0.0
C359 C 0.19923 0.1518 0.4453 0.0
C360 C 0.24224 0.12673 0.41654 0.0
C361 C 0.23693 0.10612 0.41675 0.0
C362 C 0.25829 0.13317 0.40383 0.0
C363 C 0.26401 0.15483 0.40207 0.0
C364 C 0.24939 0.16957 0.39696 0.0
C365 C 0.25486 0.18996 0.39541 0.0
C366 C 0.27492 0.19581 0.39881 0.0
C367 C 0.28958 0.18125 0.40372 0.0
C368 C 0.28419 0.16083 0.4053 0.0
C369 C 0.27717 0.05654 0.35476 0.0
C370 C 0.29793 0.05375 0.35884 0.0
C371 C 0.26598 0.07127 0.36533 0.0
C372 C 0.27543 0.08356 0.37996 0.0
C373 C 0.29629 0.08131 0.3834 0.0
C374 C 0.30738 0.06648 0.37309 0.0
C375 C 0.26356 0.09815 0.39243 0.0
C376 C 0.26883 0.11877 0.39208 0.0
C377 C 0.24742 0.09175 0.40502 0.0
C378 C 0.24182 0.07009 0.40716 0.0
C379 C 0.2562 0.05567 0.41361 0.0
C380 C 0.25059 0.03542 0.4163 0.0
C381 C 0.23059 0.02946 0.41277 0.0
C382 C 0.2162 0.04367 0.40634 0.0
C383 C 0.22174 0.06392 0.40358 0.0
H384 H 0.22621 0.01383 0.41506 0.0
H385 H 0.27912 0.21161 0.39761 0.0
H386 H 0.94677 0.3196 0.35767 0.0
H387 H 0.92287 0.29891 0.37664 0.0
H388 H 0.9528 0.24466 0.35545 0.0
H389 H 0.97687 0.2655 0.33599 0.0
H390 H 0.91057 0.24032 0.35765 0.0
H391 H 0.96423 0.26095 0.4004 0.0
H392 H 0.98873 0.28467 0.41562 0.0
H393 H 0.93979 0.31832 0.44257 0.0
H394 H 0.91498 0.29503 0.42714 0.0
H395 H 0.87446 0.18167 0.44332 0.0
H396 H 0.89574 0.19854 0.41801 0.0
H397 H 0.86343 0.25456 0.4282 0.0
H398 H 0.84171 0.23764 0.45326 0.0
H399 H 0.90824 0.25581 0.43133 0.0
H400 H 0.85467 0.23343 0.3866 0.0
H401 H 0.832 0.20796 0.37143 0.0
H402 H 0.88357 0.17466 0.34938 0.0
H403 H 0.90658 0.19979 0.36469 0.0
C404 C 0.94815 0.30325 0.35677 0.0
C405 C 0.96382 0.29417 0.34547 0.0
C406 C 0.93447 0.29145 0.36767 0.0
C407 C 0.93627 0.27026 0.36779 0.0
C408 C 0.95118 0.261 0.3556 0.0
C409 C 0.96488 0.2729 0.34448 0.0
C410 C 0.92334 0.25821 0.38176 0.0
C411 C 0.91026 0.24349 0.37379 0.0
C412 C 0.9229 0.26239 0.40285 0.0
C413 C 0.93774 0.27633 0.41244 0.0
C414 C 0.9587 0.2735 0.40944 0.0
C415 C 0.97264 0.28685 0.41811 0.0
C416 C 0.96582 0.303 0.43002 0.0
C417 C 0.94505 0.3058 0.43332 0.0
C418 C 0.93104 0.29252 0.42461 0.0
C419 C 0.87171 0.19753 0.43999 0.0
C420 C 0.85641 0.20834 0.45028 0.0
C421 C 0.88386 0.20712 0.42551 0.0
C422 C 0.88115 0.22778 0.42126 0.0
C423 C 0.86572 0.23858 0.43127 0.0
C424 C 0.85327 0.22888 0.44549 0.0
C425 C 0.89514 0.23831 0.40715 0.0
C426 C 0.90856 0.25266 0.41518 0.0
C427 C 0.89616 0.23345 0.38625 0.0
C428 C 0.88235 0.21838 0.37699 0.0
C429 C 0.86119 0.22057 0.37869 0.0
C430 C 0.84827 0.20622 0.37003 0.0
C431 C 0.85634 0.18967 0.3595 0.0
C432 C 0.87734 0.18747 0.35757 0.0
C433 C 0.89032 0.20178 0.36622 0.0
H434 H 0.84631 0.17858 0.3528 0.0
H435 H 0.97663 0.31333 0.43673 0.0
H436 H 0.83759 0.88235 0.45688 0.0
H437 H 0.81948 0.90021 0.43011 0.0
H438 H 0.76481 0.86769 0.44505 0.0
H439 H 0.78318 0.84912 0.47169 0.0
H440 H 0.76839 0.87101 0.40509 0.0
H441 H 0.77232 0.91706 0.46071 0.0
H442 H 0.78878 0.93652 0.48802 0.0
H443 H 0.8254 0.96757 0.44409 0.0
H444 H 0.80935 0.94808 0.41651 0.0
H445 H 0.69863 0.94227 0.36301 0.0
H446 H 0.71901 0.91947 0.38392 0.0
H447 H 0.77364 0.94768 0.3618 0.0
H448 H 0.75317 0.97064 0.3406 0.0
H449 H 0.77075 0.94619 0.40422 0.0
H450 H 0.7637 0.9002 0.34824 0.0
H451 H 0.74492 0.88114 0.32218 0.0
H452 H 0.71107 0.8506 0.36863 0.0
H453 H 0.72944 0.86969 0.39498 0.0
C454 C 0.8217 0.87894 0.45453 0.0
C455 C 0.81175 0.86446 0.46659 0.0
C456 C 0.81134 0.88924 0.43921 0.0
C457 C 0.79066 0.88564 0.43581 0.0
C458 C 0.78075 0.87079 0.44746 0.0
C459 C 0.79123 0.86024 0.4627 0.0
C460 C 0.77948 0.89766 0.42029 0.0
C461 C 0.76871 0.88745 0.40505 0.0
C462 C 0.78014 0.91914 0.42 0.0
C463 C 0.78977 0.93096 0.43655 0.0
C464 C 0.78399 0.92792 0.45688 0.0
C465 C 0.79323 0.93897 0.47241 0.0
C466 C 0.80816 0.95322 0.4678 0.0
C467 C 0.81385 0.9565 0.44764 0.0
C468 C 0.80468 0.94547 0.43205 0.0
C469 C 0.71501 0.94338 0.36228 0.0
C470 C 0.72434 0.95822 0.35017 0.0
C471 C 0.72663 0.93028 0.37419 0.0
C472 C 0.74784 0.93182 0.37436 0.0
C473 C 0.75728 0.94621 0.3618 0.0
C474 C 0.74561 0.9592 0.34961 0.0
C475 C 0.75981 0.91954 0.38898 0.0
C476 C 0.77061 0.92974 0.40417 0.0
C477 C 0.75884 0.89811 0.3894 0.0
C478 C 0.74786 0.8865 0.37358 0.0
C479 C 0.75214 0.88954 0.3529 0.0
C480 C 0.74159 0.8787 0.33807 0.0
C481 C 0.72678 0.8647 0.34374 0.0
C482 C 0.72253 0.86146 0.36426 0.0
C483 C 0.73304 0.87227 0.37914 0.0
H484 H 0.71862 0.85633 0.33224 0.0
H485 H 0.8153 0.96177 0.47984 0.0
H486 H 0.17552 0.76819 0.48129 0.0
H487 H 0.15761 0.74483 0.45859 0.0
H488 H 0.11355 0.79146 0.44527 0.0
H489 H 0.13108 0.81466 0.46795 0.0
H490 H 0.09476 0.75711 0.45248 0.0
H491 H 0.15098 0.77829 0.41127 0.0
H492 H 0.18704 0.78354 0.40285 0.0
H493 H 0.19804 0.7195 0.40756 0.0
H494 H 0.16208 0.71392 0.41628 0.0
H495 H 0.07124 0.71461 0.34768 0.0
H496 H 0.09462 0.73244 0.37019 0.0
H497 H 0.07814 0.69262 0.41934 0.0
H498 H 0.05474 0.67458 0.39686 0.0
H499 H 0.12783 0.72217 0.39452 0.0
H500 H 0.07108 0.72391 0.46117 0.0
H501 H 0.03415 0.72146 0.46684 0.0
H502 H 0.02299 0.74484 0.40705 0.0
H503 H 0.05982 0.74776 0.40118 0.0
C504 C 0.16209 0.77349 0.47343 0.0
C505 C 0.15478 0.79334 0.47648 0.0
C506 C 0.15187 0.76012 0.46043 0.0
C507 C 0.13421 0.76636 0.45015 0.0
C508 C 0.12704 0.7862 0.45308 0.0
C509 C 0.13719 0.79952 0.46603 0.0
C510 C 0.12292 0.75234 0.43649 0.0
C511 C 0.10209 0.74938 0.43992 0.0
C512 C 0.13229 0.74239 0.41987 0.0
C513 C 0.1539 0.74572 0.41466 0.0
C514 C 0.16113 0.76535 0.41068 0.0
C515 C 0.18154 0.76838 0.40582 0.0
C516 C 0.19484 0.75187 0.40473 0.0
C517 C 0.18773 0.73228 0.40845 0.0
C518 C 0.16734 0.72918 0.41334 0.0
C519 C 0.07285 0.70937 0.36318 0.0
C520 C 0.06101 0.69323 0.3705 0.0
C521 C 0.0863 0.71955 0.37601 0.0
C522 C 0.088 0.714 0.39649 0.0
C523 C 0.07698 0.69724 0.40361 0.0
C524 C 0.06366 0.6869 0.39071 0.0
C525 C 0.09984 0.72688 0.4107 0.0
C526 C 0.12068 0.72966 0.40732 0.0
C527 C 0.0904 0.73705 0.42711 0.0
C528 C 0.06821 0.73579 0.43067 0.0
C529 C 0.06074 0.7286 0.44928 0.0
C530 C 0.03982 0.72713 0.45252 0.0
C531 C 0.02624 0.73292 0.43729 0.0
C532 C 0.03353 0.74029 0.41881 0.0
C533 C 0.05442 0.74184 0.41552 0.0
H534 H 0.01006 0.73173 0.43981 0.0
H535 H 0.21063 0.75425 0.40096 0.0
H536 H 0.24031 0.8434 0.55271 0.0
H537 H 0.2592 0.86241 0.57841 0.0
H538 H 0.20358 0.89096 0.59825 0.0
H539 H 0.18495 0.87281 0.57198 0.0
H540 H 0.23024 0.91823 0.59666 0.0
H541 H 0.22968 0.85208 0.62623 0.0
H542 H 0.2347 0.81504 0.62778 0.0
H543 H 0.29851 0.82266 0.61728 0.0
H544 H 0.29384 0.85973 0.61541 0.0
H545 H 0.27664 0.96535 0.68044 0.0
H546 H 0.25596 0.93862 0.66491 0.0
H547 H 0.30748 0.91904 0.62957 0.0
H548 H 0.32811 0.94555 0.64489 0.0
H549 H 0.28103 0.8865 0.64245 0.0
H550 H 0.27918 0.95317 0.60974 0.0
H551 H 0.27473 0.99002 0.61445 0.0
H552 H 0.21355 0.98057 0.63462 0.0
H553 H 0.21788 0.94358 0.63062 0.0
C554 C 0.23214 0.85359 0.56271 0.0
C555 C 0.21118 0.85661 0.56036 0.0
C556 C 0.24291 0.86441 0.57747 0.0
C557 C 0.23282 0.878 0.59055 0.0
C558 C 0.21179 0.88068 0.58837 0.0
C559 C 0.20113 0.87023 0.57338 0.0
C560 C 0.24418 0.89 0.60599 0.0
C561 C 0.24106 0.91112 0.60685 0.0
C562 C 0.25848 0.88097 0.61935 0.0
C563 C 0.26137 0.85868 0.62051 0.0
C564 C 0.24476 0.84585 0.62412 0.0
C565 C 0.24755 0.82485 0.62507 0.0
C566 C 0.26691 0.8165 0.62259 0.0
C567 C 0.28352 0.82914 0.61919 0.0
C568 C 0.28082 0.85015 0.6182 0.0
C569 C 0.28366 0.95498 0.66979 0.0
C570 C 0.30386 0.95774 0.6636 0.0
C571 C 0.27187 0.93972 0.66096 0.0
C572 C 0.28018 0.927 0.64595 0.0
C573 C 0.30079 0.92866 0.64111 0.0
C574 C 0.31249 0.94396 0.64975 0.0
C575 C 0.26698 0.91437 0.63291 0.0
C576 C 0.26992 0.89333 0.63238 0.0
C577 C 0.25233 0.92337 0.62005 0.0
C578 C 0.24891 0.94562 0.62006 0.0
C579 C 0.26477 0.95897 0.61514 0.0
C580 C 0.26235 0.97985 0.61788 0.0
C581 C 0.24396 0.9876 0.6251 0.0
C582 C 0.22785 0.97451 0.62922 0.0
C583 C 0.23028 0.95358 0.62673 0.0
H584 H 0.24212 1.00377 0.62722 0.0
H585 H 0.26903 0.80024 0.62333 0.0
H586 H 0.0626 0.28096 0.68831 0.0
H587 H 0.09038 0.26405 0.67005 0.0
H588 H 0.07283 0.29499 0.61505 0.0
H589 H 0.04583 0.31236 0.63323 0.0
H590 H 0.09149 0.2385 0.6412 0.0
H591 H 0.11058 0.3033 0.58359 0.0
H592 H 0.11262 0.34062 0.58339 0.0
H593 H 0.12152 0.34078 0.64792 0.0
H594 H 0.11984 0.30346 0.64849 0.0
H595 H 0.12651 0.19904 0.55051 0.0
H596 H 0.10999 0.21736 0.57781 0.0
H597 H 0.16549 0.24958 0.59008 0.0
H598 H 0.18213 0.23158 0.5619 0.0
H599 H 0.13557 0.27481 0.59227 0.0
H600 H 0.14761 0.2113 0.62263 0.0
H601 H 0.14873 0.17406 0.6257 0.0
H602 H 0.0838 0.17165 0.62143 0.0
H603 H 0.08229 0.20885 0.61803 0.0
C604 C 0.06482 0.28425 0.67236 0.0
C605 C 0.05209 0.29813 0.66228 0.0
C606 C 0.08069 0.27458 0.66193 0.0
C607 C 0.08405 0.27851 0.64121 0.0
C608 C 0.07108 0.29213 0.63114 0.0
C609 C 0.05548 0.30197 0.64157 0.0
C610 C 0.1003 0.26772 0.62966 0.0
C611 C 0.10125 0.24648 0.63065 0.0
C612 C 0.11365 0.27808 0.61636 0.0
C613 C 0.11497 0.30055 0.61608 0.0
C614 C 0.11311 0.31128 0.59772 0.0
C615 C 0.11417 0.33244 0.59755 0.0
C616 C 0.11716 0.34307 0.61563 0.0
C617 C 0.11915 0.33254 0.63393 0.0
C618 C 0.11812 0.31138 0.63419 0.0
C619 C 0.13536 0.2099 0.55905 0.0
C620 C 0.15575 0.2137 0.55409 0.0
C621 C 0.12586 0.22031 0.57482 0.0
C622 C 0.13656 0.23453 0.58644 0.0
C623 C 0.15693 0.23855 0.58146 0.0
C624 C 0.16644 0.22826 0.56539 0.0
C625 C 0.12595 0.24559 0.60311 0.0
C626 C 0.12608 0.26687 0.60309 0.0
C627 C 0.11409 0.2353 0.61779 0.0
C628 C 0.11486 0.21289 0.61999 0.0
C629 C 0.13357 0.20283 0.62223 0.0
C630 C 0.13428 0.18172 0.62404 0.0
C631 C 0.11635 0.1705 0.62374 0.0
C632 C 0.09767 0.18037 0.62167 0.0
C633 C 0.09688 0.20147 0.61984 0.0
H634 H 0.11693 0.15416 0.62514 0.0
H635 H 0.11795 0.35945 0.61547 0.0
H636 H 0.76071 0.17154 0.51924 0.0
H637 H 0.73726 0.15199 0.54052 0.0
H638 H 0.78731 0.13331 0.57847 0.0
H639 H 0.81066 0.15223 0.55704 0.0
H640 H 0.76664 0.10172 0.56857 0.0
H641 H 0.74937 0.16835 0.59377 0.0
H642 H 0.73786 0.20386 0.59101 0.0
H643 H 0.68132 0.18413 0.56557 0.0
H644 H 0.69261 0.14849 0.56796 0.0
H645 H 0.72195 0.06206 0.65579 0.0
H646 H 0.73796 0.08632 0.63303 0.0
H647 H 0.68483 0.08639 0.59493 0.0
H648 H 0.66854 0.06185 0.61771 0.0
H649 H 0.70351 0.12627 0.60157 0.0
H650 H 0.72081 0.05894 0.57953 0.0
H651 H 0.73242 0.02378 0.58508 0.0
H652 H 0.78983 0.04554 0.60654 0.0
H653 H 0.77844 0.08087 0.60145 0.0
C654 C 0.76657 0.16364 0.53241 0.0
C655 C 0.78751 0.16341 0.53649 0.0
C656 C 0.75318 0.15241 0.54455 0.0
C657 C 0.76049 0.14106 0.56113 0.0
C658 C 0.78128 0.14171 0.56568 0.0
C659 C 0.79462 0.15265 0.55348 0.0
C660 C 0.74698 0.12754 0.5732 0.0
C661 C 0.75294 0.10722 0.57589 0.0
C662 C 0.72871 0.13439 0.58229 0.0
C663 C 0.72193 0.15579 0.58082 0.0
C664 C 0.73455 0.1716 0.58743 0.0
C665 C 0.72805 0.19174 0.58596 0.0
C666 C 0.70889 0.19625 0.57805 0.0
C667 C 0.69617 0.18062 0.57165 0.0
C668 C 0.7026 0.16044 0.57307 0.0
C669 C 0.71348 0.06736 0.64274 0.0
C670 C 0.69398 0.05985 0.63852 0.0
C671 C 0.7227 0.08124 0.62972 0.0
C672 C 0.71266 0.08799 0.6122 0.0
C673 C 0.69282 0.08134 0.60838 0.0
C674 C 0.68358 0.06728 0.62138 0.0
C675 C 0.72363 0.10085 0.59735 0.0
C676 C 0.71713 0.12087 0.59405 0.0
C677 C 0.74154 0.09382 0.58781 0.0
C678 C 0.7487 0.07257 0.59023 0.0
C679 C 0.73588 0.05624 0.58552 0.0
C680 C 0.74242 0.03628 0.58858 0.0
C681 C 0.76183 0.03243 0.59619 0.0
C682 C 0.77479 0.04855 0.60065 0.0
C683 C 0.7683 0.06854 0.59766 0.0
H684 H 0.76684 0.01697 0.5986 0.0
H685 H 0.70389 0.21186 0.57694 0.0
H686 H 0.96688 0.67373 0.62154 0.0
H687 H 0.94372 0.69339 0.60005 0.0
H688 H 0.92852 0.73149 0.65105 0.0
H689 H 0.95188 0.71226 0.67245 0.0
H690 H 0.90441 0.70428 0.59832 0.0
H691 H 0.92813 0.7801 0.63637 0.0
H692 H 0.9577 0.79433 0.65431 0.0
H693 H 0.99698 0.75193 0.62412 0.0
H694 H 0.96772 0.73762 0.60586 0.0
H695 H 0.84146 0.78314 0.55761 0.0
H696 H 0.85924 0.75887 0.57964 0.0
H697 H 0.91674 0.78259 0.55931 0.0
H698 H 0.8991 0.80738 0.53836 0.0
H699 H 0.91979 0.77782 0.59637 0.0
H700 H 0.89552 0.73482 0.54338 0.0
H701 H 0.87027 0.71926 0.52066 0.0
H702 H 0.83913 0.69423 0.57207 0.0
H703 H 0.86407 0.70986 0.59512 0.0
C704 C 0.9583 0.68605 0.62827 0.0
C705 C 0.96144 0.6916 0.64864 0.0
C706 C 0.94504 0.69726 0.61597 0.0
C707 C 0.93468 0.71416 0.62384 0.0
C708 C 0.93666 0.71875 0.64454 0.0
C709 C 0.95 0.7077 0.65677 0.0
C710 C 0.92327 0.72807 0.61017 0.0
C711 C 0.90768 0.72038 0.59791 0.0
C712 C 0.92797 0.74897 0.60913 0.0
C713 C 0.94568 0.75765 0.61993 0.0
C714 C 0.94309 0.77386 0.63353 0.0
C715 C 0.9598 0.78193 0.64377 0.0
C716 C 0.9792 0.77398 0.64043 0.0
C717 C 0.98195 0.758 0.62679 0.0
C718 C 0.9653 0.74989 0.61651 0.0
C719 C 0.85789 0.78311 0.55791 0.0
C720 C 0.86888 0.79724 0.54638 0.0
C721 C 0.86807 0.76915 0.57039 0.0
C722 C 0.88943 0.76869 0.57109 0.0
C723 C 0.9003 0.78265 0.55927 0.0
C724 C 0.89018 0.79684 0.54724 0.0
C725 C 0.90066 0.75418 0.58443 0.0
C726 C 0.9163 0.76177 0.59675 0.0
C727 C 0.89656 0.73309 0.58478 0.0
C728 C 0.88153 0.72369 0.57098 0.0
C729 C 0.8832 0.72613 0.54985 0.0
C730 C 0.86896 0.71727 0.53691 0.0
C731 C 0.85307 0.70581 0.54492 0.0
C732 C 0.85143 0.70314 0.56589 0.0
C733 C 0.86561 0.71198 0.5789 0.0
H734 H 0.84207 0.69896 0.53488 0.0
H735 H 0.99211 0.78023 0.64837 0.0
H736 H 0.39312 0.31948 0.04036 0.0
H737 H 0.41583 0.29962 0.06221 0.0
H738 H 0.36432 0.26879 0.08789 0.0
H739 H 0.34156 0.28824 0.06584 0.0
H740 H 0.39813 0.28063 0.11654 0.0
H741 H 0.38492 0.24915 0.05067 0.0
H742 H 0.38532 0.25185 0.01342 0.0
H743 H 0.45012 0.25807 0.01421 0.0
H744 H 0.44997 0.25682 0.05161 0.0
H745 H 0.44405 0.19592 0.16218 0.0
H746 H 0.42139 0.2181 0.14267 0.0
H747 H 0.46923 0.22818 0.09902 0.0
H748 H 0.49111 0.2046 0.11767 0.0
H749 H 0.43798 0.22873 0.07915 0.0
H750 H 0.45483 0.26322 0.13994 0.0
H751 H 0.45883 0.26877 0.17672 0.0
H752 H 0.3945 0.26298 0.185 0.0
H753 H 0.39014 0.25712 0.14829 0.0
C754 C 0.38659 0.3088 0.05099 0.0
C755 C 0.36555 0.30532 0.05127 0.0
C756 C 0.39959 0.29746 0.06343 0.0
C757 C 0.39174 0.28265 0.07656 0.0
C758 C 0.37067 0.28015 0.07788 0.0
C759 C 0.3577 0.29121 0.0652 0.0
C760 C 0.40544 0.26829 0.08727 0.0
C761 C 0.40673 0.26912 0.10847 0.0
C762 C 0.41725 0.25386 0.07656 0.0
C763 C 0.4174 0.25317 0.05402 0.0
C764 C 0.39925 0.25132 0.04296 0.0
C765 C 0.39942 0.25267 0.02179 0.0
C766 C 0.41774 0.25506 0.01144 0.0
C767 C 0.43593 0.25622 0.02225 0.0
C768 C 0.43579 0.25535 0.04345 0.0
C769 C 0.44946 0.2026 0.14818 0.0
C770 C 0.46916 0.19848 0.14126 0.0
C771 C 0.43665 0.21553 0.13716 0.0
C772 C 0.44366 0.22545 0.11956 0.0
C773 C 0.4633 0.22085 0.11247 0.0
C774 C 0.47583 0.20736 0.12311 0.0
C775 C 0.43075 0.24078 0.10876 0.0
C776 C 0.42952 0.24017 0.08744 0.0
C777 C 0.41967 0.25602 0.1193 0.0
C778 C 0.42219 0.25952 0.14139 0.0
C779 C 0.44155 0.26299 0.14963 0.0
C780 C 0.44389 0.26621 0.17046 0.0
C781 C 0.42694 0.26618 0.1832 0.0
C782 C 0.40762 0.26297 0.17512 0.0
C783 C 0.4052 0.25971 0.1543 0.0
H784 H 0.42878 0.26868 0.19932 0.0
H785 H 0.41785 0.25602 0.99504 0.0
H786 H 0.79356 0.4871 0.1326 0.0
H787 H 0.76751 0.46997 0.11305 0.0
H788 H 0.7295 0.46666 0.16619 0.0
H789 H 0.75577 0.48412 0.1861 0.0
H790 H 0.73182 0.43042 0.14699 0.0
H791 H 0.71016 0.49646 0.12587 0.0
H792 H 0.71202 0.53163 0.11325 0.0
H793 H 0.74552 0.51147 0.06111 0.0
H794 H 0.74322 0.47607 0.07308 0.0
H795 H 0.66251 0.40999 0.05071 0.0
H796 H 0.67514 0.43318 0.07695 0.0
H797 H 0.72581 0.39308 0.08792 0.0
H798 H 0.71319 0.36986 0.06231 0.0
H799 H 0.70848 0.45437 0.0795 0.0
H800 H 0.74132 0.39426 0.13581 0.0
H801 H 0.73274 0.36009 0.14826 0.0
H802 H 0.67011 0.37022 0.13335 0.0
H803 H 0.67825 0.40455 0.12109 0.0
C804 C 0.7797 0.48277 0.14025 0.0
C805 C 0.77689 0.4868 0.16104 0.0
C806 C 0.76465 0.47319 0.12892 0.0
C807 C 0.74638 0.46725 0.13802 0.0
C808 C 0.74342 0.47123 0.15879 0.0
C809 C 0.75846 0.48112 0.17017 0.0
C810 C 0.73143 0.45542 0.12598 0.0
C811 C 0.72652 0.43572 0.13233 0.0
C812 C 0.72402 0.46243 0.10708 0.0
C813 C 0.72665 0.4837 0.10044 0.0
C814 C 0.71804 0.49957 0.11179 0.0
C815 C 0.719 0.5195 0.10464 0.0
C816 C 0.72895 0.52379 0.08643 0.0
C817 C 0.73783 0.50813 0.07522 0.0
C818 C 0.73655 0.48811 0.08208 0.0
C819 C 0.67626 0.40608 0.05884 0.0
C820 C 0.68677 0.388 0.05442 0.0
C821 C 0.68347 0.41935 0.07382 0.0
C822 C 0.70126 0.41475 0.08471 0.0
C823 C 0.71178 0.39678 0.08017 0.0
C824 C 0.70458 0.38354 0.06534 0.0
C825 C 0.7096 0.42903 0.1001 0.0
C826 C 0.7134 0.44913 0.09432 0.0
C827 C 0.71551 0.4225 0.11974 0.0
C828 C 0.71044 0.40196 0.12742 0.0
C829 C 0.7257 0.38926 0.13531 0.0
C830 C 0.72091 0.36984 0.14231 0.0
C831 C 0.7009 0.36297 0.14156 0.0
C832 C 0.68562 0.37553 0.13387 0.0
C833 C 0.69031 0.39497 0.12687 0.0
H834 H 0.69724 0.34793 0.14696 0.0
H835 H 0.72977 0.53924 0.08098 0.0
H836 H 0.62321 0.68024 0.05527 0.0
H837 H 0.60306 0.6978 0.08087 0.0
H838 H 0.6404 0.75093 0.07399 0.0
H839 H 0.66107 0.73315 0.04865 0.0
H840 H 0.63194 0.74584 0.11254 0.0
H841 H 0.59276 0.74646 0.05162 0.0
H842 H 0.57511 0.73263 0.02173 0.0
H843 H 0.53616 0.69788 0.06057 0.0
H844 H 0.55382 0.71122 0.0907 0.0
H845 H 0.55992 0.8197 0.14697 0.0
H846 H 0.58373 0.79835 0.12815 0.0
H847 H 0.55133 0.74505 0.14736 0.0
H848 H 0.5274 0.76643 0.16649 0.0
H849 H 0.55724 0.74905 0.10415 0.0
H850 H 0.5963 0.75124 0.16555 0.0
H851 H 0.61324 0.76794 0.19436 0.0
H852 H 0.65157 0.80058 0.15314 0.0
H853 H 0.63466 0.7843 0.12405 0.0
C854 C 0.62723 0.69564 0.05922 0.0
C855 C 0.64371 0.70533 0.04975 0.0
C856 C 0.6156 0.70572 0.07385 0.0
C857 C 0.6199 0.72587 0.07915 0.0
C858 C 0.63669 0.73542 0.07014 0.0
C859 C 0.64849 0.72525 0.05561 0.0
C860 C 0.60668 0.73703 0.09381 0.0
C861 C 0.61562 0.74665 0.11059 0.0
C862 C 0.58528 0.7379 0.09154 0.0
C863 C 0.57482 0.72962 0.07342 0.0
C864 C 0.58059 0.73569 0.05379 0.0
C865 C 0.57055 0.72797 0.0368 0.0
C866 C 0.55457 0.71432 0.03925 0.0
C867 C 0.54858 0.70839 0.05869 0.0
C868 C 0.55862 0.71601 0.07573 0.0
C869 C 0.55805 0.8034 0.14751 0.0
C870 C 0.54178 0.79474 0.15824 0.0
C871 C 0.57172 0.79122 0.13677 0.0
C872 C 0.56932 0.77012 0.13634 0.0
C873 C 0.55346 0.76132 0.14754 0.0
C874 C 0.5399 0.77352 0.15856 0.0
C875 C 0.58246 0.75759 0.12291 0.0
C876 C 0.57351 0.74789 0.10626 0.0
C877 C 0.6038 0.75693 0.12514 0.0
C878 C 0.61408 0.76667 0.14261 0.0
C879 C 0.60822 0.76211 0.16261 0.0
C880 C 0.61785 0.77148 0.179 0.0
C881 C 0.63344 0.78535 0.17558 0.0
C882 C 0.63948 0.78985 0.15577 0.0
C883 C 0.62989 0.78053 0.13932 0.0
H884 H 0.64087 0.79259 0.18829 0.0
H885 H 0.5468 0.7084 0.02607 0.0
H886 H 0.1808 0.56008 0.12074 0.0
H887 H 0.20074 0.58555 0.10301 0.0
H888 H 0.25368 0.56811 0.13743 0.0
H889 H 0.23348 0.54294 0.15584 0.0
H890 H 0.2534 0.60706 0.13394 0.0
H891 H 0.24531 0.55315 0.087 0.0
H892 H 0.22817 0.52761 0.06585 0.0
H893 H 0.19661 0.57477 0.03373 0.0
H894 H 0.21322 0.6006 0.05498 0.0
H895 H 0.32434 0.64636 0.06001 0.0
H896 H 0.30405 0.62474 0.08232 0.0
H897 H 0.24964 0.65541 0.06267 0.0
H898 H 0.26995 0.67752 0.04065 0.0
H899 H 0.25128 0.6103 0.05876 0.0
H900 H 0.26161 0.6641 0.10726 0.0
H901 H 0.28239 0.68795 0.12709 0.0
H902 H 0.31412 0.63807 0.15462 0.0
H903 H 0.29372 0.61391 0.13471 0.0
C904 C 0.19669 0.56164 0.12459 0.0
C905 C 0.20559 0.54934 0.13962 0.0
C906 C 0.20813 0.57618 0.11433 0.0
C907 C 0.22888 0.57852 0.11849 0.0
C908 C 0.23773 0.56657 0.13384 0.0
C909 C 0.22618 0.55216 0.14435 0.0
C910 C 0.24121 0.59345 0.10682 0.0
C911 C 0.25307 0.60756 0.11749 0.0
C912 C 0.24074 0.59435 0.0853 0.0
C913 C 0.23032 0.57882 0.07281 0.0
C914 C 0.23451 0.55808 0.07561 0.0
C915 C 0.22492 0.54354 0.06357 0.0
C916 C 0.21125 0.54956 0.04851 0.0
C917 C 0.20715 0.57013 0.04546 0.0
C918 C 0.21663 0.58472 0.05751 0.0
C919 C 0.30809 0.64874 0.06071 0.0
C920 C 0.29871 0.66364 0.04861 0.0
C921 C 0.29654 0.6364 0.07348 0.0
C922 C 0.27538 0.6385 0.07413 0.0
C923 C 0.26599 0.65363 0.06241 0.0
C924 C 0.27759 0.6663 0.04993 0.0
C925 C 0.26305 0.62389 0.08592 0.0
C926 C 0.25137 0.60978 0.07522 0.0
C927 C 0.26406 0.6227 0.1073 0.0
C928 C 0.27627 0.6372 0.11934 0.0
C929 C 0.27315 0.65822 0.11739 0.0
C930 C 0.28483 0.67179 0.12868 0.0
C931 C 0.2996 0.66453 0.14206 0.0
C932 C 0.30269 0.64368 0.14423 0.0
C933 C 0.29106 0.63003 0.13296 0.0
H934 H 0.30863 0.67507 0.15079 0.0
H935 H 0.20388 0.53828 0.03917 0.0
H936 H 0.38402 0.71512 0.96944 0.0
H937 H 0.40243 0.73978 0.94919 0.0
H938 H 0.34854 0.77673 0.94455 0.0
H939 H 0.32981 0.75195 0.96525 0.0
H940 H 0.36822 0.77104 0.90723 0.0
H941 H 0.386 0.79709 0.97242 0.0
H942 H 0.39756 0.7971 0.00801 0.0
H943 H 0.45307 0.76772 0.9904 0.0
H944 H 0.44204 0.76803 0.95459 0.0
H945 H 0.45874 0.84671 0.88572 0.0
H946 H 0.43261 0.83284 0.90813 0.0
H947 H 0.42848 0.77973 0.87021 0.0
H948 H 0.45423 0.7936 0.84762 0.0
H949 H 0.43337 0.80027 0.93074 0.0
H950 H 0.38159 0.75966 0.8719 0.0
H951 H 0.36947 0.76492 0.83688 0.0
H952 H 0.37866 0.82904 0.84288 0.0
H953 H 0.39055 0.82421 0.87802 0.0
C954 C 0.37596 0.72844 0.96414 0.0
C955 C 0.35533 0.73145 0.96885 0.0
C956 C 0.38661 0.74265 0.95268 0.0
C957 C 0.37695 0.7602 0.9455 0.0
C958 C 0.35632 0.76331 0.95002 0.0
C959 C 0.34564 0.74914 0.96181 0.0
C960 C 0.3885 0.7746 0.93256 0.0
C961 C 0.38237 0.77761 0.91238 0.0
C962 C 0.40675 0.78351 0.93936 0.0
C963 C 0.41314 0.78246 0.96089 0.0
C964 C 0.40061 0.79051 0.97617 0.0
C965 C 0.40713 0.79058 0.99635 0.0
C966 C 0.426 0.78232 1.00148 0.0
C967 C 0.43846 0.7741 0.98641 0.0
C968 C 0.43215 0.77428 0.96615 0.0
C969 C 0.45211 0.83218 0.88202 0.0
C970 C 0.4586 0.8213 0.86483 0.0
C971 C 0.43719 0.82424 0.89488 0.0
C972 C 0.42837 0.80532 0.89078 0.0
C973 C 0.4347 0.79454 0.87352 0.0
C974 C 0.44957 0.80246 0.86065 0.0
C975 C 0.41348 0.7962 0.90513 0.0
C976 C 0.41907 0.79403 0.92557 0.0
C977 C 0.39454 0.78845 0.89861 0.0
C978 C 0.38711 0.79153 0.87757 0.0
C979 C 0.38092 0.77489 0.86579 0.0
C980 C 0.37411 0.7778 0.84591 0.0
C981 C 0.37335 0.7973 0.83764 0.0
C982 C 0.37933 0.81394 0.84927 0.0
C983 C 0.38612 0.81112 0.86917 0.0
H984 H 0.3681 0.79952 0.82224 0.0
H985 H 0.43096 0.7823 0.01714 0.0
H986 H 0.33605 0.37672 0.95509 0.0
H987 H 0.32038 0.39723 0.9283 0.0
H988 H 0.26389 0.36553 0.93693 0.0
H989 H 0.27961 0.34459 0.96307 0.0
H990 H 0.2693 0.37016 0.89871 0.0
H991 H 0.27271 0.41469 0.95584 0.0
H992 H 0.28878 0.43325 0.98402 0.0
H993 H 0.32745 0.46421 0.94182 0.0
H994 H 0.31175 0.44568 0.91339 0.0
H995 H 0.19997 0.44651 0.86239 0.0
H996 H 0.22007 0.42353 0.88365 0.0
H997 H 0.2748 0.44394 0.85439 0.0
H998 H 0.25468 0.46662 0.83259 0.0
H999 H 0.27242 0.44526 0.90071 0.0
H1000 H 0.26436 0.40079 0.84311 0.0
H1001 H 0.2446 0.38302 0.81686 0.0
H1002 H 0.21024 0.35263 0.86303 0.0
H1003 H 0.2296 0.37046 0.88957 0.0
C1004 C 0.32032 0.37409 0.9512 0.0
C1005 C 0.30911 0.35899 0.96122 0.0
C1006 C 0.31132 0.3859 0.93595 0.0
C1007 C 0.29083 0.38315 0.93068 0.0
C1008 C 0.27972 0.36795 0.94059 0.0
C1009 C 0.28875 0.35598 0.9556 0.0
C1010 C 0.28082 0.39605 0.91497 0.0
C1011 C 0.26991 0.38658 0.8993 0.0
C1012 C 0.2817 0.41752 0.91545 0.0
C1013 C 0.29123 0.42862 0.93251 0.0
C1014 C 0.28476 0.42533 0.95259 0.0
C1015 C 0.29377 0.43587 0.9686 0.0
C1016 C 0.30917 0.44984 0.96472 0.0
C1017 C 0.31555 0.45335 0.94481 0.0
C1018 C 0.30659 0.44285 0.92873 0.0
C1019 C 0.21626 0.44587 0.86025 0.0
C1020 C 0.22575 0.45831 0.84578 0.0
C1021 C 0.2277 0.43276 0.87241 0.0
C1022 C 0.2489 0.4321 0.87061 0.0
C1023 C 0.25844 0.44425 0.85598 0.0
C1024 C 0.24693 0.45707 0.84346 0.0
C1025 C 0.26098 0.41931 0.88468 0.0
C1026 C 0.27213 0.42883 0.90008 0.0
C1027 C 0.25989 0.39793 0.88426 0.0
C1028 C 0.24831 0.38711 0.86832 0.0
C1029 C 0.25247 0.39046 0.84767 0.0
C1030 C 0.24137 0.38034 0.83273 0.0
C1031 C 0.22614 0.36674 0.83827 0.0
C1032 C 0.22202 0.36318 0.85876 0.0
C1033 C 0.23307 0.37328 0.87375 0.0
H1034 H 0.21757 0.35892 0.82668 0.0
H1035 H 0.31613 0.45799 0.97714 0.0
H1036 H 0.53652 0.19826 0.90003 0.0
H1037 H 0.55657 0.2221 0.91981 0.0
H1038 H 0.57426 0.2528 0.86476 0.0
H1039 H 0.55329 0.22945 0.84495 0.0
H1040 H 0.59337 0.22969 0.92328 0.0
H1041 H 0.58557 0.30202 0.87359 0.0
H1042 H 0.56077 0.318 0.85049 0.0
H1043 H 0.51226 0.28643 0.88019 0.0
H1044 H 0.53673 0.27047 0.90362 0.0
H1045 H 0.66416 0.29928 0.96138 0.0
H1046 H 0.64437 0.27824 0.93824 0.0
H1047 H 0.59099 0.31398 0.95134 0.0
H1048 H 0.61102 0.3357 0.97373 0.0
H1049 H 0.58924 0.30421 0.9141 0.0
H1050 H 0.60136 0.26613 0.9744 0.0
H1051 H 0.62163 0.25053 1.00175 0.0
H1052 H 0.65329 0.21397 0.95803 0.0
H1053 H 0.63339 0.22956 0.93037 0.0
C1054 C 0.54465 0.2101 0.8921 0.0
C1055 C 0.54325 0.21195 0.87088 0.0
C1056 C 0.55619 0.22375 0.90346 0.0
C1057 C 0.5669 0.2395 0.89393 0.0
C1058 C 0.56583 0.24114 0.87264 0.0
C1059 C 0.55393 0.22768 0.86127 0.0
C1060 C 0.57924 0.25391 0.90638 0.0
C1061 C 0.59243 0.24598 0.92118 0.0
C1062 C 0.57787 0.27526 0.90413 0.0
C1063 C 0.56302 0.28488 0.8902 0.0
C1064 C 0.56961 0.29854 0.87522 0.0
C1065 C 0.55561 0.30758 0.86207 0.0
C1066 C 0.53496 0.30317 0.86382 0.0
C1067 C 0.52826 0.28977 0.87879 0.0
C1068 C 0.5422 0.2807 0.892 0.0
C1069 C 0.64825 0.30278 0.95918 0.0
C1070 C 0.63915 0.3191 0.96951 0.0
C1071 C 0.63688 0.29064 0.94602 0.0
C1072 C 0.61598 0.29411 0.94333 0.0
C1073 C 0.60703 0.31086 0.95312 0.0
C1074 C 0.61851 0.32328 0.96597 0.0
C1075 C 0.60336 0.27995 0.93089 0.0
C1076 C 0.59019 0.28792 0.9161 0.0
C1077 C 0.60408 0.25865 0.93372 0.0
C1078 C 0.61603 0.24916 0.9503 0.0
C1079 C 0.61274 0.25486 0.97061 0.0
C1080 C 0.62415 0.24601 0.98617 0.0
C1081 C 0.63877 0.23131 0.98163 0.0
C1082 C 0.64198 0.22538 0.96152 0.0
C1083 C 0.63063 0.23421 0.9459 0.0
H1084 H 0.64759 0.22447 0.99369 0.0
H1085 H 0.52415 0.31018 0.85362 0.0
H1086 H 0.68881 0.64271 0.94646 0.0
H1087 H 0.71219 0.62372 0.92498 0.0
H1088 H 0.76297 0.64953 0.95699 0.0
H1089 H 0.73941 0.66906 0.97846 0.0
H1090 H 0.77173 0.64504 0.91702 0.0
H1091 H 0.74681 0.60328 0.96942 0.0
H1092 H 0.72147 0.58764 0.99197 0.0
H1093 H 0.6941 0.55814 0.9408 0.0
H1094 H 0.7192 0.57386 0.91795 0.0
H1095 H 0.83919 0.56229 0.893 0.0
H1096 H 0.81807 0.58777 0.90983 0.0
H1097 H 0.76695 0.56985 0.87329 0.0
H1098 H 0.78814 0.5444 0.85612 0.0
H1099 H 0.7595 0.57084 0.91603 0.0
H1100 H 0.78829 0.61379 0.86403 0.0
H1101 H 0.816 0.62962 0.8446 0.0
H1102 H 0.83954 0.65597 0.89926 0.0
H1103 H 0.81212 0.64007 0.91907 0.0
C1104 C 0.70496 0.64464 0.94874 0.0
C1105 C 0.71227 0.65729 0.96424 0.0
C1106 C 0.71832 0.63369 0.93648 0.0
C1107 C 0.73934 0.6348 0.93965 0.0
C1108 C 0.7468 0.64835 0.95432 0.0
C1109 C 0.73335 0.65955 0.96654 0.0
C1110 C 0.75316 0.62081 0.92844 0.0
C1111 C 0.76921 0.6288 0.91699 0.0
C1112 C 0.74989 0.59957 0.92835 0.0
C1113 C 0.73478 0.58992 0.94197 0.0
C1114 C 0.73531 0.59357 0.96299 0.0
C1115 C 0.721 0.58468 0.97582 0.0
C1116 C 0.70613 0.57194 0.96782 0.0
C1117 C 0.70561 0.56803 0.94698 0.0
C1118 C 0.7199 0.57692 0.93408 0.0
C1119 C 0.82351 0.5639 0.88836 0.0
C1120 C 0.81533 0.55127 0.87324 0.0
C1121 C 0.81148 0.57854 0.89796 0.0
C1122 C 0.79095 0.58077 0.89278 0.0
C1123 C 0.78278 0.56841 0.87748 0.0
C1124 C 0.79491 0.55394 0.86763 0.0
C1125 C 0.77779 0.5951 0.90425 0.0
C1126 C 0.76193 0.5871 0.91593 0.0
C1127 C 0.78163 0.61621 0.90496 0.0
C1128 C 0.79824 0.62558 0.89306 0.0
C1129 C 0.79948 0.62279 0.87195 0.0
C1130 C 0.81512 0.63182 0.86085 0.0
C1131 C 0.82953 0.64378 0.8707 0.0
C1132 C 0.82837 0.64671 0.89166 0.0
C1133 C 0.81277 0.6377 0.90282 0.0
H1134 H 0.84157 0.65085 0.8621 0.0
H1135 H 0.69505 0.56507 0.97776 0.0
H1136 H 0.06213 0.33112 0.27749 0.0
H1137 H 0.08801 0.35003 0.25858 0.0
H1138 H 0.07013 0.40492 0.28949 0.0
H1139 H 0.04509 0.38614 0.30882 0.0
H1140 H 0.08642 0.37834 0.2324 0.0
H1141 H 0.10692 0.43797 0.29481 0.0
H1142 H 0.11113 0.43911 0.33197 0.0
H1143 H 0.12273 0.37503 0.33305 0.0
H1144 H 0.11888 0.37353 0.29587 0.0
H1145 H 0.11834 0.46805 0.18772 0.0
H1146 H 0.10253 0.44182 0.20818 0.0
H1147 H 0.15943 0.43079 0.23866 0.0
H1148 H 0.17531 0.45776 0.21851 0.0
H1149 H 0.13075 0.42937 0.26517 0.0
H1150 H 0.14043 0.3972 0.2021 0.0
H1151 H 0.1398 0.39294 0.16494 0.0
H1152 H 0.07475 0.39619 0.16535 0.0
H1153 H 0.07497 0.40075 0.20248 0.0
C1154 C 0.06391 0.34718 0.28037 0.0
C1155 C 0.05164 0.35705 0.2948 0.0
C1156 C 0.07868 0.35799 0.26953 0.0
C1157 C 0.08139 0.3789 0.27283 0.0
C1158 C 0.0689 0.38873 0.28705 0.0
C1159 C 0.05442 0.37794 0.29804 0.0
C1160 C 0.09645 0.39082 0.26086 0.0
C1161 C 0.09621 0.38937 0.23961 0.0
C1162 C 0.10986 0.40479 0.27017 0.0
C1163 C 0.11248 0.40563 0.29254 0.0
C1164 C 0.11049 0.42414 0.30295 0.0
C1165 C 0.11279 0.42484 0.32403 0.0
C1166 C 0.11715 0.40715 0.33487 0.0
C1167 C 0.11929 0.38871 0.32464 0.0
C1168 C 0.11703 0.38793 0.30357 0.0
C1169 C 0.12757 0.46006 0.19874 0.0
C1170 C 0.14815 0.46494 0.20138 0.0
C1171 C 0.11851 0.44491 0.21037 0.0
C1172 C 0.12985 0.43389 0.22467 0.0
C1173 C 0.15036 0.43895 0.22764 0.0
C1174 C 0.15943 0.45437 0.21612 0.0
C1175 C 0.11993 0.41754 0.23674 0.0
C1176 C 0.12117 0.41813 0.258 0.0
C1177 C 0.108 0.40229 0.22745 0.0
C1178 C 0.10773 0.39943 0.20509 0.0
C1179 C 0.12599 0.39713 0.19426 0.0
C1180 C 0.12571 0.39465 0.1732 0.0
C1181 C 0.10725 0.39433 0.16279 0.0
C1182 C 0.08903 0.39644 0.17343 0.0
C1183 C 0.08923 0.39894 0.1945 0.0
H1184 H 0.10707 0.39242 0.14648 0.0
H1185 H 0.1189 0.40772 0.35118 0.0
H1186 H 0.15862 0.56077 0.80589 0.0
H1187 H 0.1372 0.58108 0.78361 0.0
H1188 H 0.16296 0.55126 0.73135 0.0
H1189 H 0.18482 0.53083 0.75377 0.0
H1190 H 0.15454 0.59263 0.72439 0.0
H1191 H 0.12176 0.53472 0.74945 0.0
H1192 H 0.10932 0.50934 0.77377 0.0
H1193 H 0.07166 0.55448 0.80201 0.0
H1194 H 0.08415 0.58023 0.778 0.0
H1195 H 0.06332 0.62376 0.66837 0.0
H1196 H 0.09061 0.60248 0.68256 0.0
H1197 H 0.08067 0.62912 0.74146 0.0
H1198 H 0.0539 0.65055 0.72749 0.0
H1199 H 0.08129 0.58522 0.74015 0.0
H1200 H 0.11939 0.64394 0.71721 0.0
H1201 H 0.131 0.66805 0.69111 0.0
H1202 H 0.15741 0.6191 0.65711 0.0
H1203 H 0.14564 0.59465 0.68287 0.0
C1204 C 0.16008 0.55879 0.78964 0.0
C1205 C 0.17327 0.54406 0.78159 0.0
C1206 C 0.14777 0.57039 0.77692 0.0
C1207 C 0.14817 0.56739 0.75586 0.0
C1208 C 0.16237 0.55375 0.74758 0.0
C1209 C 0.17487 0.54213 0.76039 0.0
C1210 C 0.1325 0.57734 0.74301 0.0
C1211 C 0.13851 0.59075 0.7276 0.0
C1212 C 0.11154 0.57483 0.74717 0.0
C1213 C 0.10405 0.55947 0.76192 0.0
C1214 C 0.11095 0.53929 0.76092 0.0
C1215 C 0.10388 0.52482 0.77467 0.0
C1216 C 0.08973 0.53029 0.78948 0.0
C1217 C 0.08264 0.55026 0.79054 0.0
C1218 C 0.08972 0.5648 0.77684 0.0
C1219 C 0.06709 0.62515 0.6843 0.0
C1220 C 0.0565 0.63889 0.69678 0.0
C1221 C 0.08267 0.61303 0.69236 0.0
C1222 C 0.08762 0.61427 0.71305 0.0
C1223 C 0.07707 0.62796 0.72546 0.0
C1224 C 0.06183 0.64026 0.7174 0.0
C1225 C 0.10339 0.60104 0.72219 0.0
C1226 C 0.09733 0.5869 0.73685 0.0
C1227 C 0.12418 0.60272 0.71719 0.0
C1228 C 0.13141 0.61744 0.70182 0.0
C1229 C 0.12749 0.63829 0.70407 0.0
C1230 C 0.13414 0.65203 0.68936 0.0
C1231 C 0.14488 0.64511 0.67243 0.0
C1232 C 0.14905 0.62444 0.67021 0.0
C1233 C 0.1424 0.61064 0.68486 0.0
H1234 H 0.15 0.65577 0.66105 0.0
H1235 H 0.08424 0.51906 0.8001 0.0
H1236 H 0.34837 0.04505 0.73532 0.0
H1237 H 0.36909 0.06886 0.75458 0.0
H1238 H 0.39902 0.08742 0.6994 0.0
H1239 H 0.37893 0.06294 0.68022 0.0
H1240 H 0.42616 0.08276 0.72632 0.0
H1241 H 0.3631 0.11831 0.72636 0.0
H1242 H 0.32632 0.12333 0.73113 0.0
H1243 H 0.33246 0.11025 0.79466 0.0
H1244 H 0.36925 0.10489 0.79023 0.0
H1245 H 0.47602 0.1657 0.77657 0.0
H1246 H 0.45208 0.14798 0.75418 0.0
H1247 H 0.42961 0.11397 0.80527 0.0
H1248 H 0.45359 0.13123 0.82755 0.0
H1249 H 0.39852 0.12935 0.77862 0.0
H1250 H 0.46228 0.09274 0.77678 0.0
H1251 H 0.49918 0.09051 0.77129 0.0
H1252 H 0.49129 0.10795 0.70901 0.0
H1253 H 0.45434 0.11097 0.71433 0.0
C1254 C 0.35917 0.05439 0.72724 0.0
C1255 C 0.36193 0.05211 0.7062 0.0
C1256 C 0.371 0.06811 0.73828 0.0
C1257 C 0.38555 0.08025 0.72849 0.0
C1258 C 0.38798 0.07827 0.70739 0.0
C1259 C 0.37639 0.06432 0.6964 0.0
C1260 C 0.39886 0.09424 0.74036 0.0
C1261 C 0.41999 0.0932 0.73745 0.0
C1262 C 0.39104 0.10779 0.75516 0.0
C1263 C 0.36891 0.11103 0.75792 0.0
C1264 C 0.35659 0.11636 0.74132 0.0
C1265 C 0.33574 0.11929 0.74397 0.0
C1266 C 0.32705 0.11707 0.76318 0.0
C1267 C 0.33921 0.11195 0.77979 0.0
C1268 C 0.36006 0.10899 0.77722 0.0
C1269 C 0.46585 0.15457 0.78303 0.0
C1270 C 0.4668 0.14977 0.80381 0.0
C1271 C 0.45221 0.14445 0.77024 0.0
C1272 C 0.43909 0.12961 0.77807 0.0
C1273 C 0.43954 0.12537 0.79891 0.0
C1274 C 0.45337 0.13518 0.8116 0.0
C1275 C 0.42558 0.11768 0.76455 0.0
C1276 C 0.40451 0.11906 0.76724 0.0
C1277 C 0.43342 0.10468 0.74936 0.0
C1278 C 0.45556 0.10234 0.74602 0.0
C1279 C 0.46842 0.09628 0.76196 0.0
C1280 C 0.48935 0.09485 0.75888 0.0
C1281 C 0.49759 0.09908 0.73981 0.0
C1282 C 0.48489 0.10471 0.72378 0.0
C1283 C 0.46396 0.10633 0.72683 0.0
H1284 H 0.51381 0.09799 0.73746 0.0
H1285 H 0.31091 0.11934 0.7652 0.0
H1286 H 0.85081 0.46106 0.79483 0.0
H1287 H 0.86798 0.43443 0.77519 0.0
H1288 H 0.91554 0.43174 0.82004 0.0
H1289 H 0.89871 0.45824 0.83955 0.0
H1290 H 0.931 0.43335 0.7824 0.0
H1291 H 0.8795 0.39483 0.81699 0.0
H1292 H 0.84452 0.38638 0.82711 0.0
H1293 H 0.82829 0.37762 0.76464 0.0
H1294 H 0.86312 0.38628 0.75413 0.0
H1295 H 0.9812 0.34303 0.75254 0.0
H1296 H 0.95919 0.36456 0.77363 0.0
H1297 H 0.91914 0.37385 0.72273 0.0
H1298 H 0.94142 0.35294 0.70146 0.0
H1299 H 0.89908 0.36824 0.76275 0.0
H1300 H 0.94854 0.40791 0.72769 0.0
H1301 H 0.9826 0.4179 0.71603 0.0
H1302 H 1.00169 0.42581 0.77778 0.0
H1303 H 0.96782 0.41542 0.78985 0.0
C1304 C 0.86488 0.45473 0.80053 0.0
C1305 C 0.87335 0.46183 0.81878 0.0
C1306 C 0.87464 0.43945 0.78934 0.0
C1307 C 0.89302 0.43097 0.7962 0.0
C1308 C 0.90141 0.43803 0.81441 0.0
C1309 C 0.8917 0.45319 0.82559 0.0
C1310 C 0.90396 0.41519 0.78426 0.0
C1311 C 0.92407 0.419 0.7784 0.0
C1312 C 0.89478 0.39668 0.77847 0.0
C1313 C 0.87386 0.39141 0.78476 0.0
C1314 C 0.86843 0.39126 0.8054 0.0
C1315 C 0.84863 0.3864 0.81121 0.0
C1316 C 0.83417 0.38152 0.79652 0.0
C1317 C 0.83949 0.38143 0.776 0.0
C1318 C 0.85926 0.3863 0.77011 0.0
C1319 C 0.96739 0.34917 0.74606 0.0
C1320 C 0.96293 0.34628 0.72543 0.0
C1321 C 0.9549 0.36155 0.75805 0.0
C1322 C 0.93758 0.37083 0.74969 0.0
C1323 C 0.93238 0.36677 0.72948 0.0
C1324 C 0.9451 0.35484 0.71737 0.0
C1325 C 0.92612 0.38636 0.76132 0.0
C1326 C 0.90596 0.38254 0.76696 0.0
C1327 C 0.93515 0.40498 0.76679 0.0
C1328 C 0.95572 0.41063 0.75968 0.0
C1329 C 0.96009 0.41147 0.7388 0.0
C1330 C 0.97933 0.41727 0.73211 0.0
C1331 C 0.99427 0.42252 0.74615 0.0
C1332 C 0.99007 0.42177 0.76693 0.0
C1333 C 0.97087 0.41589 0.7737 0.0
H1334 H 0.00906 0.42726 0.7409 0.0
H1335 H 0.81886 0.37776 0.80105 0.0
H1336 H 0.61291 0.9777 0.67848 0.0
H1337 H 0.59053 0.95754 0.7003 0.0
H1338 H 0.64209 0.93899 0.73615 0.0
H1339 H 0.66435 0.95922 0.71476 0.0
H1340 H 0.58618 0.91919 0.71165 0.0
H1341 H 0.63069 0.94035 0.78568 0.0
H1342 H 0.6505 0.96927 0.7986 0.0
H1343 H 0.61962 0.0093 0.75744 0.0
H1344 H 0.59939 0.98071 0.74451 0.0
H1345 H 0.55865 0.84985 0.78616 0.0
H1346 H 0.57826 0.87194 0.76394 0.0
H1347 H 0.55505 0.9244 0.79554 0.0
H1348 H 0.5359 0.90224 0.81835 0.0
H1349 H 0.592 0.93164 0.78571 0.0
H1350 H 0.53495 0.90936 0.74939 0.0
H1351 H 0.50983 0.8853 0.73582 0.0
H1352 H 0.55636 0.85604 0.70073 0.0
H1353 H 0.58183 0.87975 0.71431 0.0
C1354 C 0.61951 0.96902 0.69079 0.0
C1355 C 0.6404 0.97022 0.69499 0.0
C1356 C 0.60669 0.95754 0.70328 0.0
C1357 C 0.61455 0.94712 0.72016 0.0
C1358 C 0.63558 0.94728 0.72353 0.0
C1359 C 0.64833 0.95878 0.71118 0.0
C1360 C 0.60093 0.93672 0.73486 0.0
C1361 C 0.58745 0.92189 0.72783 0.0
C1362 C 0.6018 0.94095 0.75593 0.0
C1363 C 0.61366 0.9583 0.76399 0.0
C1364 C 0.62804 0.95533 0.77946 0.0
C1365 C 0.63935 0.97167 0.78677 0.0
C1366 C 0.63636 0.99109 0.77879 0.0
C1367 C 0.62197 0.99424 0.76355 0.0
C1368 C 0.6106 0.97796 0.75622 0.0
C1369 C 0.55795 0.86608 0.7886 0.0
C1370 C 0.54562 0.87428 0.80397 0.0
C1371 C 0.56904 0.87873 0.77575 0.0
C1372 C 0.56774 0.89991 0.77765 0.0
C1373 C 0.55624 0.90813 0.79364 0.0
C1374 C 0.54532 0.89543 0.80672 0.0
C1375 C 0.57799 0.91332 0.7626 0.0
C1376 C 0.59071 0.92888 0.76955 0.0
C1377 C 0.5756 0.91049 0.74139 0.0
C1378 C 0.56034 0.89625 0.733 0.0
C1379 C 0.53986 0.89771 0.73888 0.0
C1380 C 0.52555 0.88415 0.73117 0.0
C1381 C 0.53151 0.86913 0.71746 0.0
C1382 C 0.55178 0.86768 0.71137 0.0
C1383 C 0.56615 0.88119 0.71905 0.0
H1384 H 0.52042 0.85863 0.71152 0.0
H1385 H 0.64516 1.00371 0.78444 0.0
H1386 H 0.95327 0.66997 0.30261 0.0
H1387 H 0.92669 0.6505 0.28561 0.0
H1388 H 0.94702 0.59625 0.31596 0.0
H1389 H 0.97339 0.61572 0.3335 0.0
H1390 H 0.94119 0.60834 0.26244 0.0
H1391 H 0.91267 0.59215 0.33145 0.0
H1392 H 0.90065 0.60419 0.36482 0.0
H1393 H 0.85963 0.64559 0.3355 0.0
H1394 H 0.87167 0.63395 0.30196 0.0
H1395 H 0.8788 0.53453 0.21906 0.0
H1396 H 0.90117 0.55344 0.24149 0.0
H1397 H 0.85252 0.59546 0.25462 0.0
H1398 H 0.82958 0.57546 0.23315 0.0
H1399 H 0.87219 0.59115 0.28697 0.0
H1400 H 0.89434 0.60517 0.21942 0.0
H1401 H 0.90599 0.59809 0.18456 0.0
H1402 H 0.95847 0.5672 0.20793 0.0
H1403 H 0.94692 0.57374 0.24292 0.0
C1404 C 0.95186 0.65397 0.30599 0.0
C1405 C 0.96544 0.64439 0.31944 0.0
C1406 C 0.93664 0.64289 0.29628 0.0
C1407 C 0.93477 0.62202 0.29972 0.0
C1408 C 0.948 0.61244 0.31342 0.0
C1409 C 0.96306 0.62358 0.3234 0.0
C1410 C 0.92032 0.61002 0.28742 0.0
C1411 C 0.92619 0.60425 0.26784 0.0
C1412 C 0.90054 0.60556 0.2942 0.0
C1413 C 0.89325 0.61239 0.31428 0.0
C1414 C 0.90126 0.60397 0.33215 0.0
C1415 C 0.8944 0.61068 0.35108 0.0
C1416 C 0.87944 0.6257 0.35228 0.0
C1417 C 0.87125 0.63399 0.33455 0.0
C1418 C 0.87808 0.62734 0.31559 0.0
C1419 C 0.87287 0.54781 0.22675 0.0
C1420 C 0.85253 0.55369 0.22418 0.0
C1421 C 0.88573 0.55873 0.23949 0.0
C1422 C 0.87886 0.57637 0.24934 0.0
C1423 C 0.85833 0.58203 0.24713 0.0
C1424 C 0.84522 0.57066 0.23482 0.0
C1425 C 0.89313 0.58875 0.26185 0.0
C1426 C 0.8872 0.59492 0.28143 0.0
C1427 C 0.91283 0.59397 0.25485 0.0
C1428 C 0.91968 0.58982 0.23379 0.0
C1429 C 0.90828 0.59672 0.21712 0.0
C1430 C 0.91486 0.59281 0.19733 0.0
C1431 C 0.93293 0.58216 0.19403 0.0
C1432 C 0.94446 0.57541 0.2105 0.0
C1433 C 0.93791 0.57923 0.23031 0.0
H1434 H 0.93802 0.57917 0.1787 0.0
H1435 H 0.87414 0.63087 0.36695 0.0
H1436 H 0.37131 0.9523 0.32644 0.0
H1437 H 0.3895 0.9276 0.30579 0.0
H1438 H 0.35828 0.9491 0.25239 0.0
H1439 H 0.33944 0.97362 0.27324 0.0
H1440 H 0.36252 0.90921 0.25031 0.0
H1441 H 0.40704 0.96408 0.26303 0.0
H1442 H 0.42526 0.98963 0.28325 0.0
H1443 H 0.45623 0.94237 0.31579 0.0
H1444 H 0.43796 0.9165 0.29597 0.0
H1445 H 0.44234 0.87485 0.18217 0.0
H1446 H 0.41828 0.89538 0.2018 0.0
H1447 H 0.43449 0.86258 0.25602 0.0
H1448 H 0.45822 0.84155 0.23636 0.0
H1449 H 0.43756 0.9083 0.25649 0.0
H1450 H 0.39152 0.85351 0.24098 0.0
H1451 H 0.37379 0.83006 0.21796 0.0
H1452 H 0.34669 0.88049 0.18677 0.0
H1453 H 0.36452 0.90427 0.20943 0.0
C1454 C 0.36816 0.95172 0.31032 0.0
C1455 C 0.35404 0.96509 0.30146 0.0
C1456 C 0.37866 0.93761 0.29849 0.0
C1457 C 0.37566 0.93675 0.27742 0.0
C1458 C 0.36097 0.94952 0.2686 0.0
C1459 C 0.35021 0.96354 0.28052 0.0
C1460 C 0.38839 0.92297 0.26471 0.0
C1461 C 0.37893 0.9092 0.25151 0.0
C1462 C 0.40986 0.92284 0.26622 0.0
C1463 C 0.42097 0.93834 0.27814 0.0
C1464 C 0.41762 0.95912 0.2746 0.0
C1465 C 0.42797 0.97367 0.28598 0.0
C1466 C 0.44185 0.96763 0.30083 0.0
C1467 C 0.44545 0.94702 0.3043 0.0
C1468 C 0.43511 0.93241 0.29298 0.0
C1469 C 0.44052 0.87177 0.19821 0.0
C1470 C 0.45215 0.85656 0.20772 0.0
C1471 C 0.42677 0.8835 0.20939 0.0
C1472 C 0.42464 0.88051 0.23035 0.0
C1473 C 0.4359 0.86508 0.23984 0.0
C1474 C 0.44935 0.85302 0.22857 0.0
C1475 C 0.41165 0.89437 0.2425 0.0
C1476 C 0.42113 0.90829 0.25543 0.0
C1477 C 0.39031 0.89495 0.24034 0.0
C1478 C 0.37953 0.88068 0.22676 0.0
C1479 C 0.38195 0.85961 0.22908 0.0
C1480 C 0.37184 0.84625 0.21613 0.0
C1481 C 0.35917 0.85378 0.20088 0.0
C1482 C 0.35653 0.87468 0.19858 0.0
C1483 C 0.36662 0.88811 0.21148 0.0
H1484 H 0.35135 0.84341 0.19087 0.0
H1485 H 0.44985 0.97891 0.30962 0.0
H1486 H 0.63291 0.03195 0.30333 0.0
H1487 H 0.61273 0.05173 0.27965 0.0
H1488 H 0.66726 0.07122 0.24921 0.0
H1489 H 0.68771 0.05055 0.27263 0.0
H1490 H 0.6101 0.08965 0.27393 0.0
H1491 H 0.6556 0.08273 0.1989 0.0
H1492 H 0.67846 0.05855 0.18168 0.0
H1493 H 0.65198 0.00932 0.21497 0.0
H1494 H 0.6289 0.03319 0.23223 0.0
H1495 H 0.57138 0.16207 0.20835 0.0
H1496 H 0.59684 0.14099 0.22506 0.0
H1497 H 0.57405 0.08833 0.19382 0.0
H1498 H 0.54881 0.10964 0.17642 0.0
H1499 H 0.61511 0.08579 0.19891 0.0
H1500 H 0.55707 0.09925 0.24091 0.0
H1501 H 0.53155 0.12137 0.25718 0.0
H1502 H 0.57865 0.15205 0.2899 0.0
H1503 H 0.60446 0.13029 0.27362 0.0
C1504 C 0.64071 0.0405 0.29168 0.0
C1505 C 0.66198 0.03983 0.29001 0.0
C1506 C 0.62909 0.05181 0.27809 0.0
C1507 C 0.63838 0.06299 0.26257 0.0
C1508 C 0.65967 0.06249 0.26086 0.0
C1509 C 0.67137 0.05082 0.27434 0.0
C1510 C 0.62556 0.07554 0.24876 0.0
C1511 C 0.6113 0.08876 0.25753 0.0
C1512 C 0.62681 0.07429 0.22731 0.0
C1513 C 0.64063 0.05979 0.217 0.0
C1514 C 0.65463 0.06674 0.2025 0.0
C1515 C 0.66764 0.05309 0.19274 0.0
C1516 C 0.66672 0.03242 0.19727 0.0
C1517 C 0.65275 0.02534 0.21153 0.0
C1518 C 0.63971 0.03893 0.22132 0.0
C1519 C 0.57199 0.14606 0.20476 0.0
C1520 C 0.55792 0.13744 0.1913 0.0
C1521 C 0.58656 0.13402 0.21433 0.0
C1522 C 0.58706 0.113 0.21107 0.0
C1523 C 0.57389 0.10451 0.19663 0.0
C1524 C 0.55945 0.11667 0.18674 0.0
C1525 C 0.59992 0.09986 0.22419 0.0
C1526 C 0.61409 0.08662 0.21531 0.0
C1527 C 0.59827 0.10061 0.2456 0.0
C1528 C 0.58271 0.11327 0.25591 0.0
C1529 C 0.56198 0.11076 0.25153 0.0
C1530 C 0.54746 0.12323 0.26074 0.0
C1531 C 0.55349 0.13816 0.27449 0.0
C1532 C 0.57401 0.14051 0.27921 0.0
C1533 C 0.58859 0.1281 0.27001 0.0
H1534 H 0.54228 0.14792 0.28149 0.0
H1535 H 0.67681 0.02188 0.1897 0.0
H1536 H 0.74452 0.96712 0.6775 0.0
H1537 H 0.7688 0.94905 0.65585 0.0
H1538 H 0.74033 0.97473 0.60269 0.0
H1539 H 0.71551 0.99188 0.62419 0.0
H1540 H 0.74718 0.9383 0.59502 0.0
H1541 H 0.78834 0.99074 0.62153 0.0
H1542 H 0.80386 0.01252 0.64761 0.0
H1543 H 0.83359 0.9607 0.67376 0.0
H1544 H 0.81804 0.93856 0.64797 0.0
H1545 H 0.85231 0.91282 0.5469 0.0
H1546 H 0.83213 0.93523 0.56887 0.0
H1547 H 0.79312 0.88513 0.58415 0.0
H1548 H 0.81277 0.86295 0.56204 0.0
H1549 H 0.82132 0.93734 0.60803 0.0
H1550 H 0.7447 0.89986 0.58491 0.0
H1551 H 0.72999 0.88254 0.55521 0.0
H1552 H 0.77228 0.9127 0.51602 0.0
H1553 H 0.78702 0.93045 0.54542 0.0
C1554 C 0.74347 0.96885 0.66119 0.0
C1555 C 0.72801 0.98076 0.65254 0.0
C1556 C 0.75746 0.95866 0.6488 0.0
C1557 C 0.75662 0.96065 0.62755 0.0
C1558 C 0.74129 0.97278 0.61898 0.0
C1559 C 0.72708 0.98258 0.63131 0.0
C1560 C 0.77116 0.94952 0.61417 0.0
C1561 C 0.76338 0.93818 0.59792 0.0
C1562 C 0.79243 0.94973 0.61741 0.0
C1563 C 0.80188 0.96297 0.63292 0.0
C1564 C 0.79808 0.98397 0.63292 0.0
C1565 C 0.8069 0.99638 0.64764 0.0
C1566 C 0.81967 0.98799 0.66236 0.0
C1567 C 0.82369 0.96717 0.66236 0.0
C1568 C 0.81489 0.95469 0.64768 0.0
C1569 C 0.83958 0.90656 0.55516 0.0
C1570 C 0.83399 0.88617 0.55252 0.0
C1571 C 0.82806 0.91937 0.56771 0.0
C1572 C 0.81084 0.91197 0.57784 0.0
C1573 C 0.80604 0.89133 0.57614 0.0
C1574 C 0.81736 0.87863 0.56351 0.0
C1575 C 0.79717 0.92579 0.58939 0.0
C1576 C 0.80511 0.93759 0.6052 0.0
C1577 C 0.77611 0.92671 0.58525 0.0
C1578 C 0.76708 0.91633 0.56742 0.0
C1579 C 0.75079 0.90287 0.56995 0.0
C1580 C 0.74246 0.89297 0.55316 0.0
C1581 C 0.75024 0.89648 0.53375 0.0
C1582 C 0.76631 0.90996 0.53107 0.0
C1583 C 0.77467 0.91992 0.54779 0.0
H1584 H 0.74378 0.88878 0.52079 0.0
H1585 H 0.82648 0.99762 0.67375 0.0
H1586 H 0.10034 0.82768 0.53847 0.0
H1587 H 0.07971 0.81044 0.56411 0.0
H1588 H 0.13112 0.8094 0.60477 0.0
H1589 H 0.15196 0.8252 0.57856 0.0
H1590 H 0.11661 0.77514 0.6056 0.0
H1591 H 0.08533 0.84008 0.6116 0.0
H1592 H 0.06841 0.87153 0.60035 0.0
H1593 H 0.01839 0.83698 0.57732 0.0
H1594 H 0.03512 0.80528 0.58818 0.0
H1595 H 0.05562 0.73934 0.68933 0.0
H1596 H 0.07353 0.76464 0.66858 0.0
H1597 H 0.04046 0.74504 0.61573 0.0
H1598 H 0.02312 0.71937 0.63611 0.0
H1599 H 0.04541 0.79138 0.62401 0.0
H1600 H 0.08102 0.72635 0.61603 0.0
H1601 H 0.0982 0.69615 0.63003 0.0
H1602 H 0.14106 0.73423 0.6607 0.0
H1603 H 0.1239 0.76468 0.64711 0.0
C1604 C 0.10702 0.82405 0.55304 0.0
C1605 C 0.12764 0.82771 0.55665 0.0
C1606 C 0.09523 0.81429 0.56777 0.0
C1607 C 0.10372 0.8087 0.58659 0.0
C1608 C 0.12416 0.81335 0.59041 0.0
C1609 C 0.13605 0.82249 0.57549 0.0
C1610 C 0.09199 0.79652 0.60161 0.0
C1611 C 0.10119 0.77908 0.60985 0.0
C1612 C 0.0717 0.80125 0.60714 0.0
C1613 C 0.06158 0.82028 0.60055 0.0
C1614 C 0.07079 0.83917 0.604 0.0
C1615 C 0.06122 0.85705 0.59771 0.0
C1616 C 0.04236 0.85625 0.58808 0.0
C1617 C 0.03301 0.83757 0.58476 0.0
C1618 C 0.04252 0.81965 0.591 0.0
C1619 C 0.05212 0.74058 0.67332 0.0
C1620 C 0.0382 0.72731 0.66424 0.0
C1621 C 0.06228 0.755 0.66154 0.0
C1622 C 0.05823 0.75665 0.64068 0.0
C1623 C 0.04371 0.744 0.63181 0.0
C1624 C 0.03397 0.72927 0.64343 0.0
C1625 C 0.07019 0.77043 0.6277 0.0
C1626 C 0.06097 0.78792 0.61984 0.0
C1627 C 0.09059 0.76606 0.62284 0.0
C1628 C 0.10103 0.74777 0.63078 0.0
C1629 C 0.09399 0.72828 0.62592 0.0
C1630 C 0.10374 0.71112 0.63374 0.0
C1631 C 0.12067 0.71327 0.64631 0.0
C1632 C 0.12792 0.73259 0.65101 0.0
C1633 C 0.11819 0.7498 0.64324 0.0
H1634 H 0.1282 0.69997 0.65236 0.0
H1635 H 0.03498 0.87011 0.58323 0.0
H1636 H 0.19774 0.14855 0.56351 0.0
H1637 H 0.22166 0.1255 0.58007 0.0
H1638 H 0.21269 0.0818 0.53217 0.0
H1639 H 0.18758 0.10441 0.5164 0.0
H1640 H 0.2192 0.06191 0.56359 0.0
H1641 H 0.25462 0.11609 0.53372 0.0
H1642 H 0.26318 0.15152 0.52555 0.0
H1643 H 0.27751 0.16273 0.58809 0.0
H1644 H 0.26874 0.12743 0.5967 0.0
H1645 H 0.33234 0.04491 0.60121 0.0
H1646 H 0.30748 0.06118 0.5787 0.0
H1647 H 0.25928 0.04424 0.61952 0.0
H1648 H 0.28391 0.02815 0.64202 0.0
H1649 H 0.28412 0.09255 0.58571 0.0
H1650 H 0.21458 0.03596 0.59074 0.0
H1651 H 0.208 0.99929 0.58842 0.0
H1652 H 0.26731 0.98963 0.56326 0.0
H1653 H 0.27406 0.02628 0.5648 0.0
C1654 C 0.20051 0.13378 0.55685 0.0
C1655 C 0.1908 0.12816 0.53879 0.0
C1656 C 0.21441 0.12071 0.56614 0.0
C1657 C 0.21962 0.10212 0.55705 0.0
C1658 C 0.20911 0.09607 0.53948 0.0
C1659 C 0.19469 0.10893 0.5305 0.0
C1660 C 0.23644 0.08946 0.56555 0.0
C1661 C 0.23335 0.06861 0.56852 0.0
C1662 C 0.25544 0.09792 0.57096 0.0
C1663 C 0.26087 0.11915 0.56588 0.0
C1664 C 0.25948 0.12614 0.54575 0.0
C1665 C 0.26438 0.1462 0.54104 0.0
C1666 C 0.27085 0.15938 0.5563 0.0
C1667 C 0.27248 0.15251 0.57629 0.0
C1668 C 0.26756 0.13247 0.58109 0.0
C1669 C 0.31644 0.04461 0.60533 0.0
C1670 C 0.31017 0.03547 0.62355 0.0
C1671 C 0.30224 0.05388 0.59244 0.0
C1672 C 0.28145 0.05385 0.59733 0.0
C1673 C 0.27515 0.04429 0.61527 0.0
C1674 C 0.28933 0.03529 0.62825 0.0
C1675 C 0.26648 0.06516 0.58466 0.0
C1676 C 0.26995 0.0858 0.58085 0.0
C1677 C 0.24828 0.05624 0.57758 0.0
C1678 C 0.24491 0.03396 0.57811 0.0
C1679 C 0.22625 0.02604 0.58471 0.0
C1680 C 0.22241 1.00526 0.58337 0.0
C1681 C 0.23717 0.99216 0.57557 0.0
C1682 C 0.25586 0.99981 0.56924 0.0
C1683 C 0.25972 0.0206 0.57041 0.0
H1684 H 0.2342 0.97606 0.57462 0.0
H1685 H 0.27464 0.1749 0.55262 0.0
H1686 H 0.892 0.17851 0.55125 0.0
H1687 H 0.91182 0.20133 0.57292 0.0
H1688 H 0.87876 0.25264 0.54923 0.0
H1689 H 0.85883 0.23009 0.52777 0.0
H1690 H 0.92116 0.25834 0.55024 0.0
H1691 H 0.86692 0.23648 0.59424 0.0
H1692 H 0.84573 0.21112 0.61163 0.0
H1693 H 0.89838 0.18714 0.64172 0.0
H1694 H 0.91994 0.2122 0.62427 0.0
H1695 H 0.95469 0.33293 0.62082 0.0
H1696 H 0.9341 0.31095 0.59907 0.0
H1697 H 0.95693 0.25836 0.63082 0.0
H1698 H 0.97672 0.28016 0.65296 0.0
H1699 H 0.91912 0.25341 0.6253 0.0
H1700 H 0.97384 0.27356 0.58183 0.0
H1701 H 0.99636 0.29741 0.56398 0.0
H1702 H 0.94522 0.32272 0.53242 0.0
H1703 H 0.92234 0.29917 0.55029 0.0
C1704 C 0.88894 0.19465 0.5507 0.0
C1705 C 0.87377 0.20246 0.53786 0.0
C1706 C 0.90024 0.20765 0.56309 0.0
C1707 C 0.89669 0.22867 0.5627 0.0
C1708 C 0.88174 0.23649 0.54974 0.0
C1709 C 0.8703 0.22353 0.53757 0.0
C1710 C 0.90846 0.24259 0.57584 0.0
C1711 C 0.92058 0.25745 0.56667 0.0
C1712 C 0.90803 0.24108 0.59722 0.0
C1713 C 0.89507 0.22608 0.60779 0.0
C1714 C 0.87401 0.22569 0.60443 0.0
C1715 C 0.86192 0.21139 0.61432 0.0
C1716 C 0.87071 0.19749 0.62773 0.0
C1717 C 0.8916 0.1979 0.63131 0.0
C1718 C 0.90375 0.21215 0.62144 0.0
C1719 C 0.95526 0.31669 0.62314 0.0
C1720 C 0.96731 0.30832 0.63864 0.0
C1721 C 0.94358 0.30411 0.61063 0.0
C1722 C 0.94412 0.2829 0.61309 0.0
C1723 C 0.95615 0.27462 0.6286 0.0
C1724 C 0.96751 0.28715 0.64126 0.0
C1725 C 0.93209 0.26921 0.59977 0.0
C1726 C 0.91982 0.25438 0.60889 0.0
C1727 C 0.93264 0.27056 0.57831 0.0
C1728 C 0.94635 0.28475 0.56756 0.0
C1729 C 0.96738 0.28432 0.5712 0.0
C1730 C 0.98021 0.29776 0.56106 0.0
C1731 C 0.97222 0.31161 0.54712 0.0
C1732 C 0.95138 0.31201 0.54325 0.0
C1733 C 0.93848 0.29861 0.55337 0.0
H1734 H 0.98218 0.32201 0.53928 0.0
H1735 H 0.86133 0.18643 0.63537 0.0
H1736 H 0.71154 0.05806 0.35603 0.0
H1737 H 0.73558 0.07517 0.37828 0.0
H1738 H 0.7173 0.0368 0.42803 0.0
H1739 H 0.69243 0.02018 0.40584 0.0
H1740 H 0.72716 0.07316 0.44215 0.0
H1741 H 0.75914 0.02482 0.40018 0.0
H1742 H 0.7674 0.00664 0.36855 0.0
H1743 H 0.79369 0.06076 0.34384 0.0
H1744 H 0.78526 0.07938 0.3752 0.0
H1745 H 0.82143 0.10177 0.49021 0.0
H1746 H 0.79835 0.07804 0.47306 0.0
H1747 H 0.79226 0.11991 0.42315 0.0
H1748 H 0.81468 0.14381 0.44046 0.0
H1749 H 0.79654 0.07577 0.41289 0.0
H1750 H 0.75933 0.12362 0.45695 0.0
H1751 H 0.7525 0.13851 0.49062 0.0
H1752 H 0.73827 0.07956 0.51419 0.0
H1753 H 0.74539 0.06428 0.48073 0.0
C1754 C 0.71226 0.05366 0.37185 0.0
C1755 C 0.70023 0.03777 0.37922 0.0
C1756 C 0.72613 0.0633 0.38452 0.0
C1757 C 0.72875 0.05681 0.40466 0.0
C1758 C 0.71569 0.04193 0.4125 0.0
C1759 C 0.70143 0.03252 0.39985 0.0
C1760 C 0.74604 0.0647 0.41678 0.0
C1761 C 0.74237 0.07341 0.43588 0.0
C1762 C 0.76605 0.06471 0.40886 0.0
C1763 C 0.77144 0.05354 0.39002 0.0
C1764 C 0.76658 0.03289 0.38796 0.0
C1765 C 0.77129 0.0225 0.37008 0.0
C1766 C 0.78104 0.03255 0.35419 0.0
C1767 C 0.78613 0.053 0.35617 0.0
C1768 C 0.7814 0.06348 0.37401 0.0
C1769 C 0.81562 0.10556 0.47531 0.0
C1770 C 0.81985 0.1245 0.46654 0.0
C1771 C 0.80236 0.09211 0.46563 0.0
C1772 C 0.79356 0.09734 0.44693 0.0
C1773 C 0.79894 0.11563 0.43756 0.0
C1774 C 0.81175 0.12922 0.44741 0.0
C1775 C 0.77742 0.08483 0.43773 0.0
C1776 C 0.78136 0.07519 0.41921 0.0
C1777 C 0.75787 0.08345 0.44649 0.0
C1778 C 0.75311 0.09278 0.46641 0.0
C1779 C 0.7549 0.11382 0.46935 0.0
C1780 C 0.75096 0.12233 0.48839 0.0
C1781 C 0.74501 0.10998 0.50455 0.0
C1782 C 0.74292 0.0891 0.50167 0.0
C1783 C 0.7469 0.08051 0.48268 0.0
H1784 H 0.74196 0.11656 0.51928 0.0
H1785 H 0.78468 0.02448 0.34035 0.0
H1786 H 0.99113 0.71411 0.3853 0.0
H1787 H 0.973 0.73804 0.40689 0.0
H1788 H 0.95483 0.77232 0.35414 0.0
H1789 H 0.97358 0.74858 0.33232 0.0
H1790 H 0.96408 0.79734 0.38516 0.0
H1791 H 0.9221 0.73917 0.37575 0.0
H1792 H 0.91387 0.70273 0.37532 0.0
H1793 H 0.92623 0.69878 0.43917 0.0
H1794 H 0.93482 0.73515 0.43992 0.0
H1795 H 0.86688 0.81349 0.45277 0.0
H1796 H 0.88649 0.79601 0.42679 0.0
H1797 H 0.94146 0.82276 0.44997 0.0
H1798 H 0.92163 0.84096 0.47577 0.0
H1799 H 0.9127 0.76802 0.43158 0.0
H1800 H 0.9775 0.82408 0.41232 0.0
H1801 H 0.98306 0.86098 0.41002 0.0
H1802 H 0.91958 0.87041 0.39868 0.0
H1803 H 0.91369 0.83356 0.40064 0.0
C1804 C 0.98329 0.72673 0.37824 0.0
C1805 C 0.98349 0.72927 0.35705 0.0
C1806 C 0.97295 0.74043 0.39063 0.0
C1807 C 0.96222 0.75675 0.38211 0.0
C1808 C 0.96295 0.75978 0.36102 0.0
C1809 C 0.97357 0.74617 0.34857 0.0
C1810 C 0.94952 0.76996 0.39526 0.0
C1811 C 0.95282 0.79098 0.39531 0.0
C1812 C 0.93454 0.7617 0.40821 0.0
C1813 C 0.92926 0.73985 0.40785 0.0
C1814 C 0.9232 0.7305 0.38967 0.0
C1815 C 0.91845 0.70986 0.38938 0.0
C1816 C 0.91957 0.69844 0.4072 0.0
C1817 C 0.92539 0.70764 0.42537 0.0
C1818 C 0.93018 0.72827 0.42575 0.0
C1819 C 0.88313 0.81585 0.45224 0.0
C1820 C 0.89275 0.8285 0.4664 0.0
C1821 C 0.89433 0.80581 0.43736 0.0
C1822 C 0.91547 0.80799 0.43638 0.0
C1823 C 0.92513 0.82103 0.45021 0.0
C1824 C 0.91382 0.83137 0.465 0.0
C1825 C 0.9273 0.79551 0.42173 0.0
C1826 C 0.92391 0.77451 0.42144 0.0
C1827 C 0.94174 0.80391 0.40823 0.0
C1828 C 0.94514 0.82608 0.40685 0.0
C1829 C 0.96475 0.83402 0.40927 0.0
C1830 C 0.96796 0.85493 0.40804 0.0
C1831 C 0.95168 0.86803 0.40428 0.0
C1832 C 0.93217 0.86025 0.40168 0.0
C1833 C 0.92888 0.83936 0.40288 0.0
H1834 H 0.95419 0.88421 0.40334 0.0
H1835 H 0.91589 0.68247 0.40694 0.0
H1836 H 0.30007 0.95443 0.36067 0.0
H1837 H 0.27634 0.93532 0.38161 0.0
H1838 H 0.30022 0.96405 0.43531 0.0
H1839 H 0.32475 0.98256 0.41434 0.0
H1840 H 0.29113 0.92686 0.44397 0.0
H1841 H 0.2566 0.98072 0.41066 0.0
H1842 H 0.24618 1.00151 0.38133 0.0
H1843 H 0.21445 0.95076 0.35607 0.0
H1844 H 0.22536 0.92938 0.38478 0.0
H1845 H 0.1795 0.90696 0.47923 0.0
H1846 H 0.2036 0.92838 0.46069 0.0
H1847 H 0.24173 0.87621 0.44982 0.0
H1848 H 0.2181 0.85494 0.46854 0.0
H1849 H 0.21875 0.9298 0.42336 0.0
H1850 H 0.2908 0.88836 0.45387 0.0
H1851 H 0.30143 0.86976 0.48458 0.0
H1852 H 0.25655 0.9015 0.51967 0.0
H1853 H 0.24588 0.92053 0.48926 0.0
C1854 C 0.30048 0.95643 0.37698 0.0
C1855 C 0.31415 0.97007 0.38589 0.0
C1856 C 0.28679 0.94562 0.38893 0.0
C1857 C 0.28602 0.94868 0.41 0.0
C1858 C 0.30038 0.96154 0.41907 0.0
C1859 C 0.31443 0.97208 0.4071 0.0
C1860 C 0.2698 0.93896 0.42234 0.0
C1861 C 0.27532 0.92755 0.43946 0.0
C1862 C 0.249 0.94036 0.41689 0.0
C1863 C 0.24193 0.95338 0.39986 0.0
C1864 C 0.24751 0.97393 0.39879 0.0
C1865 C 0.24154 0.98582 0.38226 0.0
C1866 C 0.22961 0.97748 0.3669 0.0
C1867 C 0.22368 0.9572 0.36799 0.0
C1868 C 0.2298 0.94517 0.38437 0.0
C1869 C 0.1929 0.90004 0.47267 0.0
C1870 C 0.19697 0.87929 0.47554 0.0
C1871 C 0.20668 0.9123 0.46211 0.0
C1872 C 0.22472 0.904 0.45426 0.0
C1873 C 0.2282 0.88308 0.45618 0.0
C1874 C 0.21458 0.8709 0.46681 0.0
C1875 C 0.24024 0.91708 0.44443 0.0
C1876 C 0.23456 0.92921 0.42788 0.0
C1877 C 0.2608 0.91682 0.45073 0.0
C1878 C 0.26744 0.90575 0.46922 0.0
C1879 C 0.28329 0.89146 0.46816 0.0
C1880 C 0.2893 0.88083 0.48552 0.0
C1881 C 0.27964 0.88441 0.50405 0.0
C1882 C 0.26399 0.8987 0.50529 0.0
C1883 C 0.25794 0.9094 0.48799 0.0
H1884 H 0.28429 0.87613 0.51746 0.0
H1885 H 0.22496 0.98674 0.35414 0.0
H1886 H 0.15091 0.21568 0.45428 0.0
H1887 H 0.12968 0.24039 0.43668 0.0
H1888 H 0.0771 0.21842 0.46882 0.0
H1889 H 0.09834 0.19277 0.48573 0.0
H1890 H 0.06587 0.22864 0.43267 0.0
H1891 H 0.10306 0.26262 0.48368 0.0
H1892 H 0.13296 0.27263 0.50372 0.0
H1893 H 0.15952 0.29987 0.45088 0.0
H1894 H 0.12991 0.28975 0.43044 0.0
H1895 H 0.01482 0.32197 0.40416 0.0
H1896 H 0.03232 0.2988 0.42771 0.0
H1897 H 0.08269 0.29448 0.38616 0.0
H1898 H 0.06493 0.3169 0.36232 0.0
H1899 H 0.09154 0.29931 0.43188 0.0
H1900 H 0.05355 0.26016 0.38117 0.0
H1901 H 0.02169 0.25173 0.36352 0.0
H1902 H 0.994 0.23627 0.42041 0.0
H1903 H 0.02561 0.24503 0.43844 0.0
C1904 C 0.13477 0.21593 0.45738 0.0
C1905 C 0.12628 0.20242 0.47145 0.0
C1906 C 0.12265 0.23019 0.44745 0.0
C1907 C 0.10185 0.23181 0.4519 0.0
C1908 C 0.09312 0.21765 0.46525 0.0
C1909 C 0.10524 0.20297 0.47487 0.0
C1910 C 0.08959 0.24863 0.44293 0.0
C1911 C 0.07136 0.24412 0.43285 0.0
C1912 C 0.09651 0.26899 0.44323 0.0
C1913 C 0.1143 0.2753 0.45549 0.0
C1914 C 0.11532 0.27064 0.4763 0.0
C1915 C 0.13222 0.27635 0.48774 0.0
C1916 C 0.14814 0.28686 0.47857 0.0
C1917 C 0.14718 0.29173 0.45796 0.0
C1918 C 0.13033 0.28603 0.44644 0.0
C1919 C 0.02988 0.31651 0.40039 0.0
C1920 C 0.03872 0.32133 0.38161 0.0
C1921 C 0.03977 0.3032 0.41374 0.0
C1922 C 0.05877 0.29497 0.40861 0.0
C1923 C 0.06808 0.30077 0.39039 0.0
C1924 C 0.05799 0.31358 0.37684 0.0
C1925 C 0.06839 0.27908 0.42128 0.0
C1926 C 0.08604 0.28383 0.43205 0.0
C1927 C 0.06068 0.25912 0.42204 0.0
C1928 C 0.04186 0.25345 0.41116 0.0
C1929 C 0.04061 0.25513 0.38993 0.0
C1930 C 0.02261 0.25027 0.37985 0.0
C1931 C 1.00583 0.24348 0.39083 0.0
C1932 C 0.00702 0.24151 0.41192 0.0
C1933 C 0.02497 0.24644 0.42207 0.0
H1934 H 0.99192 0.23971 0.383 0.0
H1935 H 0.16121 0.29125 0.48745 0.0
H1936 H 0.61214 0.66143 0.94881 0.0
H1937 H 0.5919 0.68001 0.92347 0.0
H1938 H 0.61294 0.73669 0.9481 0.0
H1939 H 0.63338 0.71839 0.97303 0.0
H1940 H 0.56972 0.73445 0.94086 0.0
H1941 H 0.63442 0.72122 0.90775 0.0
H1942 H 0.66167 0.69886 0.89508 0.0
H1943 H 0.61898 0.66793 0.85697 0.0
H1944 H 0.5914 0.68994 0.86967 0.0
H1945 H 0.54876 0.81068 0.8706 0.0
H1946 H 0.56603 0.78706 0.89329 0.0
H1947 H 0.55066 0.73741 0.85365 0.0
H1948 H 0.53375 0.76114 0.8305 0.0
H1949 H 0.58782 0.73221 0.86779 0.0
H1950 H 0.52371 0.7463 0.89741 0.0
H1951 H 0.49526 0.7672 0.90994 0.0
H1952 H 0.53424 0.79408 0.95455 0.0
H1953 H 0.56302 0.77358 0.94208 0.0
C1954 C 0.61234 0.67785 0.94884 0.0
C1955 C 0.62441 0.68845 0.96284 0.0
C1956 C 0.60084 0.68841 0.93436 0.0
C1957 C 0.601 0.70971 0.93392 0.0
C1958 C 0.61262 0.72027 0.9482 0.0
C1959 C 0.62435 0.70977 0.96237 0.0
C1960 C 0.58942 0.72124 0.91842 0.0
C1961 C 0.5737 0.73407 0.92489 0.0
C1962 C 0.59422 0.72018 0.89753 0.0
C1963 C 0.61081 0.70704 0.88984 0.0
C1964 C 0.63081 0.70952 0.89682 0.0
C1965 C 0.64632 0.69694 0.8896 0.0
C1966 C 0.64205 0.68194 0.87528 0.0
C1967 C 0.62226 0.67953 0.8681 0.0
C1968 C 0.60668 0.69205 0.87529 0.0
C1969 C 0.54918 0.79476 0.86658 0.0
C1970 C 0.53973 0.78779 0.8488 0.0
C1971 C 0.55896 0.78123 0.87966 0.0
C1972 C 0.55924 0.76036 0.87546 0.0
C1973 C 0.55053 0.75342 0.8573 0.0
C1974 C 0.54088 0.76701 0.84407 0.0
C1975 C 0.56834 0.7459 0.89026 0.0
C1976 C 0.58358 0.73247 0.88369 0.0
C1977 C 0.56287 0.74616 0.91107 0.0
C1978 C 0.54558 0.75851 0.91869 0.0
C1979 C 0.52626 0.75678 0.9098 0.0
C1980 C 0.51006 0.76854 0.9169 0.0
C1981 C 0.51294 0.78199 0.93301 0.0
C1982 C 0.53203 0.78367 0.94207 0.0
C1983 C 0.54829 0.77197 0.935 0.0
H1984 H 0.50038 0.79107 0.93849 0.0
H1985 H 0.65408 0.67221 0.86971 0.0
H1986 H 0.2848 0.65842 0.97304 0.0
H1987 H 0.26318 0.63619 0.95296 0.0
H1988 H 0.31577 0.6025 0.93324 0.0
H1989 H 0.33767 0.62461 0.95363 0.0
H1990 H 0.28789 0.61419 0.90163 0.0
H1991 H 0.28764 0.58218 0.96738 0.0
H1992 H 0.28297 0.58077 1.00447 0.0
H1993 H 0.22038 0.59762 0.99761 0.0
H1994 H 0.22476 0.5995 0.96047 0.0
H1995 H 0.23988 0.53195 0.85534 0.0
H1996 H 0.26076 0.55338 0.87682 0.0
H1997 H 0.207 0.57692 0.90601 0.0
H1998 H 0.18591 0.55467 0.88496 0.0
H1999 H 0.23502 0.57112 0.93326 0.0
H2000 H 0.23389 0.60446 0.86914 0.0
H2001 H 0.2371 0.60779 0.83202 0.0
H2002 H 0.30009 0.59138 0.83566 0.0
H2003 H 0.29719 0.58768 0.8728 0.0
C2004 C 0.29185 0.64635 0.96437 0.0
C2005 C 0.313 0.6433 0.96489 0.0
C2006 C 0.27942 0.63359 0.95302 0.0
C2007 C 0.28787 0.61762 0.9418 0.0
C2008 C 0.30899 0.61472 0.9419 0.0
C2009 C 0.32146 0.62734 0.95353 0.0
C2010 C 0.27458 0.60421 0.92969 0.0
C2011 C 0.27652 0.60452 0.90852 0.0
C2012 C 0.25924 0.59228 0.93875 0.0
C2013 C 0.2566 0.5912 0.96111 0.0
C2014 C 0.27293 0.5858 0.97377 0.0
C2015 C 0.27033 0.58488 0.99481 0.0
C2016 C 0.25141 0.58917 1.0034 0.0
C2017 C 0.23504 0.59435 0.99094 0.0
C2018 C 0.23758 0.59534 0.96989 0.0
C2019 C 0.23244 0.54173 0.86627 0.0
C2020 C 0.21121 0.54179 0.86829 0.0
C2021 C 0.24443 0.55405 0.87852 0.0
C2022 C 0.23548 0.56716 0.89274 0.0
C2023 C 0.21427 0.56702 0.89507 0.0
C2024 C 0.20222 0.55436 0.88301 0.0
C2025 C 0.2484 0.58091 0.90508 0.0
C2026 C 0.24636 0.58076 0.92631 0.0
C2027 C 0.26343 0.59333 0.89608 0.0
C2028 C 0.26527 0.59562 0.87374 0.0
C2029 C 0.24839 0.60143 0.86201 0.0
C2030 C 0.25016 0.6034 0.84097 0.0
C2031 C 0.26878 0.59975 0.83148 0.0
C2032 C 0.28568 0.59418 0.84303 0.0
C2033 C 0.28399 0.59216 0.86408 0.0
H2034 H 0.27012 0.60129 0.81519 0.0
H2035 H 0.24941 0.58842 0.01969 0.0
H2036 H 0.32218 0.24797 0.97551 0.0
H2037 H 0.3421 0.22322 0.95582 0.0
H2038 H 0.38994 0.26712 0.94907 0.0
H2039 H 0.37036 0.29171 0.96832 0.0
H2040 H 0.37939 0.24878 0.91291 0.0
H2041 H 0.39259 0.2274 0.98424 0.0
H2042 H 0.38136 0.21333 0.01721 0.0
H2043 H 0.35672 0.16145 0.98688 0.0
H2044 H 0.36773 0.1752 0.95384 0.0
H2045 H 0.47236 0.21074 0.88596 0.0
H2046 H 0.44345 0.22557 0.90363 0.0
H2047 H 0.41722 0.1661 0.91076 0.0
H2048 H 0.44709 0.15105 0.89411 0.0
H2049 H 0.40886 0.18613 0.94256 0.0
H2050 H 0.39976 0.2011 0.87356 0.0
H2051 H 0.40843 0.21212 0.8389 0.0
H2052 H 0.41958 0.27243 0.86055 0.0
H2053 H 0.41128 0.26173 0.89541 0.0
C2054 C 0.33691 0.25232 0.96973 0.0
C2055 C 0.34461 0.27187 0.9734 0.0
C2056 C 0.3483 0.23814 0.9586 0.0
C2057 C 0.36752 0.24334 0.95102 0.0
C2058 C 0.37512 0.26281 0.95469 0.0
C2059 C 0.36386 0.27687 0.96574 0.0
C2060 C 0.37997 0.22902 0.93888 0.0
C2061 C 0.38588 0.23508 0.91937 0.0
C2062 C 0.38743 0.2105 0.94678 0.0
C2063 C 0.38074 0.20245 0.96664 0.0
C2064 C 0.38462 0.21309 0.98466 0.0
C2065 C 0.37835 0.20517 1.00332 0.0
C2066 C 0.36826 0.1866 1.00411 0.0
C2067 C 0.36449 0.17586 0.98625 0.0
C2068 C 0.37076 0.18369 0.96757 0.0
C2069 C 0.46049 0.20083 0.89145 0.0
C2070 C 0.46181 0.17981 0.88858 0.0
C2071 C 0.44385 0.20931 0.90137 0.0
C2072 C 0.42771 0.19706 0.90791 0.0
C2073 C 0.42933 0.17591 0.90568 0.0
C2074 C 0.44637 0.16732 0.89621 0.0
C2075 C 0.40937 0.20664 0.91705 0.0
C2076 C 0.40217 0.1996 0.93584 0.0
C2077 C 0.40012 0.22392 0.90815 0.0
C2078 C 0.40496 0.23057 0.88715 0.0
C2079 C 0.40416 0.21669 0.87096 0.0
C2080 C 0.409 0.22289 0.85127 0.0
C2081 C 0.41456 0.24296 0.84752 0.0
C2082 C 0.41525 0.25689 0.86347 0.0
C2083 C 0.41044 0.25078 0.8832 0.0
H2084 H 0.41832 0.24772 0.83227 0.0
H2085 H 0.36342 0.18051 0.01856 0.0
H2086 H 0.706 0.37585 0.96265 0.0
H2087 H 0.73274 0.39449 0.9451 0.0
H2088 H 0.77819 0.36163 0.97892 0.0
H2089 H 0.75143 0.34261 0.99642 0.0
H2090 H 0.78253 0.40513 0.97926 0.0
H2091 H 0.77508 0.35081 0.93185 0.0
H2092 H 0.75629 0.32726 0.9098 0.0
H2093 H 0.73332 0.37741 0.87507 0.0
H2094 H 0.75173 0.4013 0.8971 0.0
H2095 H 0.85853 0.45745 0.92032 0.0
H2096 H 0.83929 0.43132 0.93857 0.0
H2097 H 0.78623 0.44581 0.90299 0.0
H2098 H 0.80533 0.47127 0.88452 0.0
H2099 H 0.79044 0.40682 0.90444 0.0
H2100 H 0.79266 0.46106 0.95369 0.0
H2101 H 0.80926 0.48588 0.97614 0.0
H2102 H 0.83985 0.43759 0.00752 0.0
H2103 H 0.8236 0.41249 0.98507 0.0
C2104 C 0.72168 0.37237 0.96617 0.0
C2105 C 0.72661 0.35773 0.98089 0.0
C2106 C 0.73694 0.38302 0.95612 0.0
C2107 C 0.75742 0.37941 0.96071 0.0
C2108 C 0.76246 0.3646 0.97517 0.0
C2109 C 0.74717 0.35368 0.98503 0.0
C2110 C 0.77335 0.39182 0.9509 0.0
C2111 C 0.78463 0.40524 0.96293 0.0
C2112 C 0.77571 0.39219 0.9296 0.0
C2113 C 0.76469 0.37786 0.91623 0.0
C2114 C 0.7659 0.35684 0.91961 0.0
C2115 C 0.75533 0.34342 0.90709 0.0
C2116 C 0.74359 0.35084 0.89106 0.0
C2117 C 0.74242 0.37169 0.88749 0.0
C2118 C 0.75294 0.38517 0.89998 0.0
C2119 C 0.84273 0.4551 0.91653 0.0
C2120 C 0.83349 0.46637 0.90093 0.0
C2121 C 0.83174 0.44019 0.92697 0.0
C2122 C 0.81126 0.43658 0.92217 0.0
C2123 C 0.80202 0.44813 0.90686 0.0
C2124 C 0.81299 0.46277 0.89634 0.0
C2125 C 0.79923 0.42069 0.93271 0.0
C2126 C 0.78867 0.40655 0.9208 0.0
C2127 C 0.79732 0.41988 0.9541 0.0
C2128 C 0.80713 0.43494 0.96754 0.0
C2129 C 0.80306 0.45576 0.96526 0.0
C2130 C 0.81238 0.46987 0.97801 0.0
C2131 C 0.82566 0.46332 0.9932 0.0
C2132 C 0.8296 0.44264 0.99572 0.0
C2133 C 0.82034 0.42847 0.98299 0.0
H2134 H 0.83285 0.47427 1.00306 0.0
H2135 H 0.73542 0.34043 0.88139 0.0
H2136 H 0.68099 0.29525 0.07513 0.0
H2137 H 0.66144 0.27984 0.10276 0.0
H2138 H 0.60582 0.29411 0.07111 0.0
H2139 H 0.62522 0.31041 0.04423 0.0
H2140 H 0.60045 0.30277 0.10795 0.0
H2141 H 0.62856 0.24447 0.07363 0.0
H2142 H 0.65578 0.22273 0.05982 0.0
H2143 H 0.68178 0.21686 0.11928 0.0
H2144 H 0.65482 0.23877 0.13339 0.0
H2145 H 0.53589 0.22005 0.13598 0.0
H2146 H 0.56091 0.24117 0.1187 0.0
H2147 H 0.59144 0.2517 0.17555 0.0
H2148 H 0.56585 0.23094 0.1932 0.0
H2149 H 0.613 0.23284 0.13273 0.0
H2150 H 0.57915 0.28943 0.16621 0.0
H2151 H 0.54864 0.30838 0.17687 0.0
H2152 H 0.53017 0.31435 0.11467 0.0
H2153 H 0.56043 0.29514 0.10368 0.0
C2154 C 0.6646 0.2949 0.07408 0.0
C2155 C 0.65458 0.30397 0.05759 0.0
C2156 C 0.65343 0.28609 0.08984 0.0
C2157 C 0.6321 0.28568 0.08903 0.0
C2158 C 0.62221 0.29438 0.07226 0.0
C2159 C 0.63331 0.30359 0.05682 0.0
C2160 C 0.61983 0.27641 0.10554 0.0
C2161 C 0.6033 0.28748 0.11334 0.0
C2162 C 0.62363 0.25659 0.11297 0.0
C2163 C 0.63984 0.24346 0.10451 0.0
C2164 C 0.64018 0.23867 0.08372 0.0
C2165 C 0.65554 0.22629 0.07585 0.0
C2166 C 0.67054 0.21848 0.08865 0.0
C2167 C 0.67018 0.22297 0.10937 0.0
C2168 C 0.65486 0.23535 0.11732 0.0
C2169 C 0.54776 0.22711 0.14486 0.0
C2170 C 0.549 0.22393 0.16589 0.0
C2171 C 0.562 0.23912 0.13499 0.0
C2172 C 0.57794 0.24788 0.14589 0.0
C2173 C 0.57913 0.24506 0.16697 0.0
C2174 C 0.56452 0.23335 0.177 0.0
C2175 C 0.59366 0.2591 0.13465 0.0
C2176 C 0.61067 0.24834 0.12771 0.0
C2177 C 0.59004 0.27897 0.1276 0.0
C2178 C 0.57196 0.2907 0.13415 0.0
C2179 C 0.56849 0.29461 0.15483 0.0
C2180 C 0.55126 0.30544 0.16092 0.0
C2181 C 0.53745 0.31253 0.14646 0.0
C2182 C 0.54087 0.30884 0.12586 0.0
C2183 C 0.55807 0.29801 0.11969 0.0
H2184 H 0.52412 0.3209 0.15121 0.0
H2185 H 0.68242 0.2089 0.08253 0.0
H2186 H 0.80254 0.577 0.15608 0.0
H2187 H 0.77828 0.59236 0.13262 0.0
H2188 H 0.79793 0.55141 0.08547 0.0
H2189 H 0.82283 0.53646 0.10878 0.0
H2190 H 0.7855 0.58743 0.06946 0.0
H2191 H 0.76111 0.53909 0.1163 0.0
H2192 H 0.75462 0.52288 0.14923 0.0
H2193 H 0.71897 0.57413 0.16796 0.0
H2194 H 0.72549 0.59091 0.13519 0.0
H2195 H 0.69004 0.59959 0.01822 0.0
H2196 H 0.71587 0.58071 0.03759 0.0
H2197 H 0.7129 0.62562 0.08505 0.0
H2198 H 0.68773 0.64478 0.06548 0.0
H2199 H 0.71613 0.58289 0.09847 0.0
H2200 H 0.74652 0.6327 0.05296 0.0
H2201 H 0.75239 0.6478 0.01924 0.0
H2202 H 0.77581 0.591 0.9975 0.0
H2203 H 0.76969 0.57544 0.03103 0.0
C2204 C 0.80222 0.57181 0.14049 0.0
C2205 C 0.81444 0.55547 0.13427 0.0
C2206 C 0.78827 0.58049 0.12713 0.0
C2207 C 0.78587 0.5726 0.10749 0.0
C2208 C 0.79943 0.55763 0.1006 0.0
C2209 C 0.81371 0.54916 0.11391 0.0
C2210 C 0.76774 0.57823 0.0953 0.0
C2211 C 0.77034 0.58616 0.07571 0.0
C2212 C 0.74787 0.57642 0.10339 0.0
C2213 C 0.74394 0.56638 0.12324 0.0
C2214 C 0.7521 0.54708 0.1275 0.0
C2215 C 0.74838 0.53774 0.14615 0.0
C2216 C 0.73646 0.54748 0.16072 0.0
C2217 C 0.72821 0.56659 0.15665 0.0
C2218 C 0.73188 0.57602 0.138 0.0
C2219 C 0.69446 0.605 0.03309 0.0
C2220 C 0.68684 0.62347 0.04054 0.0
C2221 C 0.70928 0.59433 0.04404 0.0
C2222 C 0.7163 0.60186 0.0627 0.0
C2223 C 0.70761 0.61955 0.07073 0.0
C2224 C 0.69323 0.63043 0.0596 0.0
C2225 C 0.73403 0.59265 0.07304 0.0
C2226 C 0.73132 0.58395 0.09225 0.0
C2227 C 0.75371 0.59351 0.06453 0.0
C2228 C 0.75746 0.60286 0.04442 0.0
C2229 C 0.75274 0.62338 0.04093 0.0
C2230 C 0.75614 0.63203 0.02187 0.0
C2231 C 0.76449 0.62037 1.00626 0.0
C2232 C 0.76938 0.60001 0.00964 0.0
C2233 C 0.76592 0.59126 0.02865 0.0
H2234 H 0.76721 0.62713 0.99155 0.0
H2235 H 0.73358 0.54019 0.17515 0.0
H2236 H 0.36352 0.70778 0.06334 0.0
H2237 H 0.38615 0.73232 0.07918 0.0
H2238 H 0.43305 0.71705 0.03609 0.0
H2239 H 0.41051 0.69189 0.02051 0.0
H2240 H 0.44871 0.72838 0.07382 0.0
H2241 H 0.40195 0.75235 0.02529 0.0
H2242 H 0.36883 0.75684 0.00867 0.0
H2243 H 0.34663 0.78926 0.06066 0.0
H2244 H 0.3795 0.78453 0.07786 0.0
H2245 H 0.49232 0.82483 0.09882 0.0
H2246 H 0.47627 0.80074 0.07531 0.0
H2247 H 0.42533 0.79531 0.11601 0.0
H2248 H 0.44158 0.81873 0.1397 0.0
H2249 H 0.41556 0.79612 0.07228 0.0
H2250 H 0.46045 0.76392 0.12237 0.0
H2251 H 0.49366 0.75841 0.13875 0.0
H2252 H 0.51971 0.742 0.08131 0.0
H2253 H 0.4867 0.74777 0.06452 0.0
C2254 C 0.37892 0.70912 0.05774 0.0
C2255 C 0.38528 0.69812 0.04066 0.0
C2256 C 0.39179 0.72319 0.06672 0.0
C2257 C 0.41103 0.72688 0.05841 0.0
C2258 C 0.41819 0.7145 0.04261 0.0
C2259 C 0.40536 0.7001 0.03379 0.0
C2260 C 0.42226 0.74528 0.0646 0.0
C2261 C 0.44164 0.74324 0.07312 0.0
C2262 C 0.41307 0.76473 0.06342 0.0
C2263 C 0.39329 0.768 0.05295 0.0
C2264 C 0.38999 0.76029 0.03331 0.0
C2265 C 0.37122 0.76286 0.02376 0.0
C2266 C 0.35562 0.77331 0.03361 0.0
C2267 C 0.35875 0.78119 0.05303 0.0
C2268 C 0.37748 0.77857 0.06269 0.0
C2269 C 0.47737 0.81901 0.10232 0.0
C2270 C 0.46804 0.82365 0.12091 0.0
C2271 C 0.46832 0.80519 0.089 0.0
C2272 C 0.44969 0.79622 0.09403 0.0
C2273 C 0.43967 0.80214 0.11185 0.0
C2274 C 0.44891 0.81552 0.12533 0.0
C2275 C 0.44155 0.77901 0.08223 0.0
C2276 C 0.42276 0.7813 0.07254 0.0
C2277 C 0.45136 0.75988 0.08208 0.0
C2278 C 0.47119 0.75655 0.09215 0.0
C2279 C 0.47331 0.75937 0.11319 0.0
C2280 C 0.49208 0.75616 0.12256 0.0
C2281 C 0.50876 0.74988 0.11107 0.0
C2282 C 0.50676 0.74687 0.09018 0.0
C2283 C 0.48803 0.75013 0.08073 0.0
H2284 H 0.5232 0.74723 0.11838 0.0
H2285 H 0.34111 0.77532 0.02619 0.0
H2286 H 0.25089 0.32866 0.02742 0.0
H2287 H 0.22646 0.35187 0.0435 0.0
H2288 H 0.27548 0.38208 0.07429 0.0
H2289 H 0.29997 0.35941 0.05785 0.0
H2290 H 0.23858 0.3721 0.0988 0.0
H2291 H 0.26123 0.40379 0.03621 0.0
H2292 H 0.26669 0.40437 0.9992 0.0
H2293 H 0.20278 0.39689 0.98934 0.0
H2294 H 0.19699 0.3958 0.02634 0.0
H2295 H 0.21073 0.46749 0.13155 0.0
H2296 H 0.2269 0.43966 0.1136 0.0
H2297 H 0.17168 0.42877 0.08033 0.0
H2298 H 0.15522 0.45716 0.09827 0.0
H2299 H 0.20622 0.42518 0.05612 0.0
H2300 H 0.18283 0.39831 0.1188 0.0
H2301 H 0.17736 0.39745 0.15579 0.0
H2302 H 0.2417 0.39495 0.1656 0.0
H2303 H 0.2476 0.39617 0.12867 0.0
C2304 C 0.25639 0.34005 0.03788 0.0
C2305 C 0.2773 0.34226 0.04143 0.0
C2306 C 0.24246 0.35333 0.04694 0.0
C2307 C 0.24923 0.36868 0.05998 0.0
C2308 C 0.27 0.37029 0.06426 0.0
C2309 C 0.28394 0.35737 0.05486 0.0
C2310 C 0.23492 0.38375 0.06855 0.0
C2311 C 0.2315 0.38373 0.08952 0.0
C2312 C 0.22528 0.39852 0.05626 0.0
C2313 C 0.22871 0.39942 0.03404 0.0
C2314 C 0.24836 0.40204 0.02615 0.0
C2315 C 0.25152 0.40251 1.00518 0.0
C2316 C 0.23511 0.40062 0.99192 0.0
C2317 C 0.21549 0.39831 0.99962 0.0
C2318 C 0.21226 0.39775 0.0206 0.0
C2319 C 0.20194 0.45929 0.12039 0.0
C2320 C 0.18157 0.46441 0.11654 0.0
C2321 C 0.21124 0.44331 0.11015 0.0
C2322 C 0.20038 0.43184 0.09596 0.0
C2323 C 0.18028 0.43735 0.09136 0.0
C2324 C 0.17091 0.45354 0.10161 0.0
C2325 C 0.21025 0.41387 0.08654 0.0
C2326 C 0.21289 0.41332 0.0654 0.0
C2327 C 0.21911 0.39845 0.09867 0.0
C2328 C 0.21565 0.39744 0.12093 0.0
C2329 C 0.19582 0.3977 0.12884 0.0
C2330 C 0.19264 0.39714 0.1498 0.0
C2331 C 0.20917 0.39616 0.16304 0.0
C2332 C 0.22891 0.39571 0.15533 0.0
C2333 C 0.23218 0.3963 0.13437 0.0
H2334 H 0.20667 0.39574 0.17926 0.0
H2335 H 0.23758 0.40099 0.97569 0.0
H2336 H 0.90968 0.56053 0.86844 0.0
H2337 H 0.93069 0.58523 0.8499 0.0
H2338 H 0.91995 0.55275 0.79419 0.0
H2339 H 0.89847 0.52865 0.81238 0.0
H2340 H 0.96302 0.56699 0.80276 0.0
H2341 H 0.89203 0.58822 0.79799 0.0
H2342 H 0.85902 0.59727 0.81316 0.0
H2343 H 0.88721 0.64508 0.84704 0.0
H2344 H 0.9205 0.63608 0.83225 0.0
H2345 H 0.97693 0.62657 0.7165 0.0
H2346 H 0.96322 0.60497 0.74311 0.0
H2347 H 0.9667 0.65447 0.78568 0.0
H2348 H 0.98039 0.6764 0.75896 0.0
H2349 H 0.93116 0.63398 0.78929 0.0
H2350 H 1.00111 0.61729 0.78823 0.0
H2351 H 0.03426 0.60801 0.77351 0.0
H2352 H 0.00951 0.55192 0.7519 0.0
H2353 H 0.9761 0.561 0.76619 0.0
C2354 C 0.91211 0.55857 0.85231 0.0
C2355 C 0.90245 0.54281 0.84177 0.0
C2356 C 0.92404 0.57263 0.84176 0.0
C2357 C 0.92684 0.57072 0.82071 0.0
C2358 C 0.91803 0.55439 0.81044 0.0
C2359 C 0.90571 0.54072 0.82082 0.0
C2360 C 0.93753 0.58648 0.80889 0.0
C2361 C 0.95614 0.58166 0.79978 0.0
C2362 C 0.92871 0.60574 0.8055 0.0
C2363 C 0.90876 0.61131 0.81425 0.0
C2364 C 0.89122 0.60053 0.80883 0.0
C2365 C 0.87247 0.60567 0.81732 0.0
C2366 C 0.87104 0.62169 0.83111 0.0
C2367 C 0.88836 0.63264 0.83639 0.0
C2368 C 0.90717 0.62753 0.82796 0.0
C2369 C 0.97471 0.63297 0.73147 0.0
C2370 C 0.97984 0.65323 0.73559 0.0
C2371 C 0.96699 0.62053 0.74673 0.0
C2372 C 0.9643 0.62799 0.76649 0.0
C2373 C 0.96881 0.64837 0.77057 0.0
C2374 C 0.9766 0.66087 0.75527 0.0
C2375 C 0.95656 0.61438 0.78266 0.0
C2376 C 0.93841 0.61955 0.79257 0.0
C2377 C 0.96594 0.59547 0.78688 0.0
C2378 C 0.98602 0.58991 0.77819 0.0
C2379 C 1.00267 0.60305 0.7802 0.0
C2380 C 0.02153 0.59781 0.77195 0.0
C2381 C 0.02399 0.5794 0.76176 0.0
C2382 C 0.00759 0.56618 0.7598 0.0
C2383 C 0.98869 0.57136 0.76799 0.0
H2384 H 0.03861 0.57536 0.75542 0.0
H2385 H 0.85651 0.62563 0.83763 0.0
H2386 H 0.89216 0.4769 0.18534 0.0
H2387 H 0.9126 0.45502 0.20725 0.0
H2388 H 0.85927 0.44019 0.24218 0.0
H2389 H 0.83899 0.46282 0.22088 0.0
H2390 H 0.88753 0.44747 0.26695 0.0
H2391 H 0.88353 0.40576 0.20799 0.0
H2392 H 0.88627 0.39711 0.1717 0.0
H2393 H 0.95017 0.40939 0.17314 0.0
H2394 H 0.94777 0.41837 0.2094 0.0
H2395 H 0.95472 0.3512 0.28989 0.0
H2396 H 0.93148 0.37038 0.26837 0.0
H2397 H 0.94864 0.42561 0.29892 0.0
H2398 H 0.97123 0.4062 0.32122 0.0
H2399 H 0.93703 0.39674 0.24149 0.0
H2400 H 0.91165 0.4608 0.29639 0.0
H2401 H 0.90538 0.46588 0.33295 0.0
H2402 H 0.89365 0.4023 0.34013 0.0
H2403 H 0.8996 0.39688 0.30359 0.0
C2404 C 0.88474 0.46871 0.19749 0.0
C2405 C 0.86395 0.47153 0.20135 0.0
C2406 C 0.89645 0.45616 0.21002 0.0
C2407 C 0.88751 0.44574 0.22634 0.0
C2408 C 0.86659 0.4481 0.22979 0.0
C2409 C 0.85497 0.46095 0.21752 0.0
C2410 C 0.90004 0.43311 0.24033 0.0
C2411 C 0.8983 0.43633 0.26135 0.0
C2412 C 0.91392 0.41831 0.23318 0.0
C2413 C 0.91543 0.41291 0.21137 0.0
C2414 C 0.89814 0.40676 0.20053 0.0
C2415 C 0.89963 0.40177 0.17997 0.0
C2416 C 0.91837 0.40275 0.17011 0.0
C2417 C 0.93566 0.40867 0.1808 0.0
C2418 C 0.93425 0.41368 0.20136 0.0
C2419 C 0.95339 0.36741 0.29216 0.0
C2420 C 0.96474 0.3772 0.30729 0.0
C2421 C 0.94014 0.3784 0.27977 0.0
C2422 C 0.93813 0.39948 0.28201 0.0
C2423 C 0.94953 0.40931 0.29712 0.0
C2424 C 0.9625 0.39823 0.30983 0.0
C2425 C 0.92453 0.41109 0.26812 0.0
C2426 C 0.92618 0.4078 0.2471 0.0
C2427 C 0.91006 0.42529 0.27532 0.0
C2428 C 0.90629 0.42842 0.29729 0.0
C2429 C 0.90767 0.44792 0.30577 0.0
C2430 C 0.90418 0.45085 0.32649 0.0
C2431 C 0.89919 0.43441 0.33887 0.0
C2432 C 0.8976 0.41501 0.33054 0.0
C2433 C 0.90105 0.41199 0.30983 0.0
H2434 H 0.8965 0.43672 0.35491 0.0
H2435 H 0.91949 0.39888 0.15419 0.0
H2436 H 0.65739 0.96546 0.28367 0.0
H2437 H 0.63384 0.94729 0.26196 0.0
H2438 H 0.59397 0.93762 0.31287 0.0
H2439 H 0.61749 0.95627 0.33497 0.0
H2440 H 0.60248 0.90219 0.28567 0.0
H2441 H 0.57936 0.97133 0.28411 0.0
H2442 H 0.58395 0.00826 0.28077 0.0
H2443 H 0.60611 1.00032 0.22002 0.0
H2444 H 0.60197 0.96327 0.22311 0.0
H2445 H 0.52108 0.86702 0.22732 0.0
H2446 H 0.54155 0.88605 0.25135 0.0
H2447 H 0.57509 0.91253 0.20178 0.0
H2448 H 0.55381 0.89405 0.17745 0.0
H2449 H 0.56895 0.93998 0.22971 0.0
H2450 H 0.59388 0.87166 0.23081 0.0
H2451 H 0.59161 0.83446 0.23372 0.0
H2452 H 0.56869 0.84032 0.29444 0.0
H2453 H 0.57058 0.87758 0.29179 0.0
C2454 C 0.64373 0.95935 0.29042 0.0
C2455 C 0.63929 0.96237 0.3111 0.0
C2456 C 0.63026 0.94903 0.27792 0.0
C2457 C 0.61215 0.94134 0.2858 0.0
C2458 C 0.60791 0.94357 0.30656 0.0
C2459 C 0.62132 0.95419 0.31913 0.0
C2460 C 0.59761 0.93139 0.272 0.0
C2461 C 0.5948 0.91044 0.27366 0.0
C2462 C 0.58826 0.94219 0.25597 0.0
C2463 C 0.59048 0.9645 0.2539 0.0
C2464 C 0.58536 0.97744 0.27009 0.0
C2465 C 0.58785 0.99839 0.26823 0.0
C2466 C 0.59531 0.00663 0.2502 0.0
C2467 C 0.60031 0.99391 0.23398 0.0
C2468 C 0.59787 0.97293 0.23577 0.0
C2469 C 0.53281 0.87691 0.2215 0.0
C2470 C 0.53606 0.87886 0.20051 0.0
C2471 C 0.54455 0.88774 0.23528 0.0
C2472 C 0.56024 0.90032 0.22844 0.0
C2473 C 0.56316 0.90279 0.20743 0.0
C2474 C 0.55106 0.89222 0.19355 0.0
C2475 C 0.5737 0.9106 0.24329 0.0
C2476 C 0.57644 0.93165 0.24178 0.0
C2477 C 0.58322 0.89983 0.25934 0.0
C2478 C 0.5822 0.87741 0.26103 0.0
C2479 C 0.58823 0.86502 0.24473 0.0
C2480 C 0.58703 0.84392 0.24634 0.0
C2481 C 0.57996 0.83504 0.26423 0.0
C2482 C 0.57414 0.84723 0.28058 0.0
C2483 C 0.57529 0.86833 0.27904 0.0
H2484 H 0.57904 0.8187 0.26545 0.0
H2485 H 0.59714 0.02286 0.2488 0.0
H2486 H 0.09786 0.5488 0.15467 0.0
H2487 H 0.07806 0.57554 0.1716 0.0
H2488 H 0.12409 0.58012 0.21785 0.0
H2489 H 0.14387 0.55387 0.20112 0.0
H2490 H 0.06139 0.57744 0.2091 0.0
H2491 H 0.12985 0.62783 0.23294 0.0
H2492 H 0.16324 0.63771 0.21934 0.0
H2493 H 0.14259 0.62581 0.15874 0.0
H2494 H 0.10899 0.61615 0.17193 0.0
H2495 H 0.04381 0.63142 0.29843 0.0
H2496 H 0.05804 0.61116 0.271 0.0
H2497 H 0.05834 0.66366 0.232 0.0
H2498 H 0.04401 0.68425 0.25957 0.0
H2499 H 0.09362 0.64225 0.22935 0.0
H2500 H 0.02355 0.6282 0.22389 0.0
H2501 H 0.98921 0.61938 0.23573 0.0
H2502 H 0.01081 0.56116 0.25549 0.0
H2503 H 0.04536 0.56972 0.24403 0.0
C2504 C 0.10376 0.55558 0.1684 0.0
C2505 C 0.1225 0.54923 0.17646 0.0
C2506 C 0.09243 0.57083 0.17807 0.0
C2507 C 0.09974 0.58007 0.19582 0.0
C2508 C 0.11831 0.57355 0.20394 0.0
C2509 C 0.12958 0.5584 0.19437 0.0
C2510 C 0.08796 0.59614 0.20643 0.0
C2511 C 0.06835 0.59169 0.21337 0.0
C2512 C 0.09682 0.615 0.21155 0.0
C2513 C 0.11691 0.62116 0.20346 0.0
C2514 C 0.13238 0.62745 0.2167 0.0
C2515 C 0.15136 0.63298 0.20907 0.0
C2516 C 0.15505 0.63235 0.1882 0.0
C2517 C 0.13974 0.62624 0.17491 0.0
C2518 C 0.12072 0.62071 0.18246 0.0
C2519 C 0.04694 0.63877 0.28407 0.0
C2520 C 0.04274 0.6595 0.28122 0.0
C2521 C 0.05494 0.62708 0.26833 0.0
C2522 C 0.05893 0.6358 0.24934 0.0
C2523 C 0.05523 0.6566 0.24651 0.0
C2524 C 0.04708 0.66834 0.26228 0.0
C2525 C 0.06749 0.62309 0.2328 0.0
C2526 C 0.0865 0.62817 0.22478 0.0
C2527 C 0.05791 0.605 0.22639 0.0
C2528 C 0.03711 0.59967 0.23319 0.0
C2529 C 0.02102 0.61357 0.23088 0.0
C2530 C 1.00151 0.6086 0.2375 0.0
C2531 C 0.99784 0.58974 0.24639 0.0
C2532 C 0.01367 0.57577 0.2486 0.0
C2533 C 0.03322 0.58066 0.24201 0.0
H2534 H 0.98274 0.58596 0.25156 0.0
H2535 H 0.16976 0.63661 0.18233 0.0
H2536 H 0.46752 0.17529 0.24623 0.0
H2537 H 0.44913 0.15278 0.26937 0.0
H2538 H 0.46947 0.10094 0.23484 0.0
H2539 H 0.48689 0.12334 0.21127 0.0
H2540 H 0.43307 0.09535 0.24251 0.0
H2541 H 0.48907 0.11378 0.28413 0.0
H2542 H 0.51308 0.13637 0.30163 0.0
H2543 H 0.46402 0.16329 0.33508 0.0
H2544 H 0.43967 0.14084 0.31777 0.0
H2545 H 0.40959 0.03781 0.34309 0.0
H2546 H 0.43254 0.06025 0.32416 0.0
H2547 H 0.38175 0.08323 0.28977 0.0
H2548 H 0.35903 0.06072 0.30808 0.0
H2549 H 0.43648 0.10049 0.31754 0.0
H2550 H 0.3939 0.08798 0.24111 0.0
H2551 H 0.37394 0.06119 0.22439 0.0
H2552 H 0.40384 0.01591 0.26053 0.0
H2553 H 0.42419 0.04236 0.27725 0.0
C2554 C 0.468 0.15909 0.24361 0.0
C2555 C 0.47848 0.15111 0.22682 0.0
C2556 C 0.45765 0.14619 0.25694 0.0
C2557 C 0.45804 0.12505 0.25406 0.0
C2558 C 0.46876 0.11714 0.23741 0.0
C2559 C 0.47872 0.13 0.22389 0.0
C2560 C 0.44663 0.11113 0.26773 0.0
C2561 C 0.43393 0.09652 0.25891 0.0
C2562 C 0.448 0.11214 0.28918 0.0
C2563 C 0.46254 0.12576 0.29952 0.0
C2564 C 0.48338 0.12462 0.29511 0.0
C2565 C 0.49706 0.13738 0.30501 0.0
C2566 C 0.49008 0.15134 0.31937 0.0
C2567 C 0.4694 0.1525 0.32393 0.0
C2568 C 0.45566 0.13972 0.31412 0.0
C2569 C 0.40335 0.04781 0.33162 0.0
C2570 C 0.38256 0.04728 0.32686 0.0
C2571 C 0.41645 0.06063 0.32085 0.0
C2572 C 0.40891 0.07313 0.30527 0.0
C2573 C 0.388 0.0734 0.30139 0.0
C2574 C 0.37501 0.06051 0.31191 0.0
C2575 C 0.42277 0.08517 0.29222 0.0
C2576 C 0.43581 0.09937 0.30114 0.0
C2577 C 0.42237 0.08327 0.27082 0.0
C2578 C 0.41044 0.0672 0.26055 0.0
C2579 C 0.39629 0.0723 0.24541 0.0
C2580 C 0.38489 0.05717 0.23595 0.0
C2581 C 0.38758 0.03687 0.24144 0.0
C2582 C 0.40173 0.03164 0.25635 0.0
C2583 C 0.41318 0.0467 0.26583 0.0
H2584 H 0.37872 0.02519 0.23412 0.0
H2585 H 0.5007 0.16121 0.32701 0.0
H2586 H 0.06001 0.35787 0.70948 0.0
H2587 H 0.07932 0.38019 0.73159 0.0
H2588 H 0.04066 0.43041 0.71486 0.0
H2589 H 0.0214 0.40797 0.69211 0.0
H2590 H 0.07964 0.44248 0.71916 0.0
H2591 H 0.03282 0.40576 0.75903 0.0
H2592 H 0.01418 0.37591 0.77148 0.0
H2593 H 0.06979 0.35023 0.79392 0.0
H2594 H 0.08873 0.37985 0.78129 0.0
H2595 H 0.11404 0.4906 0.81489 0.0
H2596 H 0.08954 0.47363 0.79247 0.0
H2597 H 0.13522 0.42975 0.77584 0.0
H2598 H 0.15993 0.44708 0.79748 0.0
H2599 H 0.08795 0.41833 0.79005 0.0
H2600 H 0.1345 0.45349 0.74321 0.0
H2601 H 0.15177 0.48364 0.72957 0.0
H2602 H 0.09425 0.51311 0.7208 0.0
H2603 H 0.07667 0.48329 0.73495 0.0
C2604 C 0.0558 0.37375 0.71025 0.0
C2605 C 0.03917 0.38119 0.69918 0.0
C2606 C 0.06676 0.38646 0.723 0.0
C2607 C 0.06107 0.40684 0.72536 0.0
C2608 C 0.04518 0.41468 0.71342 0.0
C2609 C 0.03428 0.40191 0.70036 0.0
C2610 C 0.07148 0.41946 0.74084 0.0
C2611 C 0.08112 0.43738 0.73474 0.0
C2612 C 0.07345 0.41283 0.76123 0.0
C2613 C 0.06217 0.395 0.76908 0.0
C2614 C 0.04105 0.3937 0.76651 0.0
C2615 C 0.03044 0.37682 0.77361 0.0
C2616 C 0.04081 0.36115 0.78347 0.0
C2617 C 0.06178 0.36238 0.78627 0.0
C2618 C 0.07245 0.37923 0.77916 0.0
C2619 C 0.1187 0.47712 0.80671 0.0
C2620 C 0.1388 0.47003 0.80795 0.0
C2621 C 0.10478 0.46758 0.79382 0.0
C2622 C 0.11072 0.45063 0.7824 0.0
C2623 C 0.13047 0.44295 0.78443 0.0
C2624 C 0.1445 0.45277 0.79683 0.0
C2625 C 0.09653 0.44084 0.76812 0.0
C2626 C 0.08614 0.42352 0.77453 0.0
C2627 C 0.09372 0.4481 0.74812 0.0
C2628 C 0.10431 0.46633 0.7405 0.0
C2629 C 0.12556 0.46656 0.73878 0.0
C2630 C 0.1354 0.48354 0.73084 0.0
C2631 C 0.12411 0.50026 0.72429 0.0
C2632 C 0.10297 0.50011 0.72583 0.0
C2633 C 0.09307 0.48322 0.73389 0.0
H2634 H 0.13175 0.51335 0.71804 0.0
H2635 H 0.03259 0.34808 0.78895 0.0
H2636 H 0.54351 0.13703 0.80067 0.0
H2637 H 0.56864 0.11596 0.78343 0.0
H2638 H 0.58565 0.08886 0.8405 0.0
H2639 H 0.55995 0.10971 0.85799 0.0
H2640 H 0.61932 0.10436 0.81267 0.0
H2641 H 0.56253 0.05986 0.81481 0.0
H2642 H 0.52687 0.04943 0.81104 0.0
H2643 H 0.5294 0.06241 0.74726 0.0
H2644 H 0.56493 0.07344 0.75072 0.0
H2645 H 0.68049 0.03484 0.75239 0.0
H2646 H 0.65872 0.04966 0.77881 0.0
H2647 H 0.61879 0.07339 0.73262 0.0
H2648 H 0.64009 0.05844 0.70639 0.0
H2649 H 0.59774 0.05426 0.76097 0.0
H2650 H 0.65189 0.10377 0.75954 0.0
H2651 H 0.68738 0.11511 0.76248 0.0
H2652 H 0.68966 0.09339 0.82387 0.0
H2653 H 0.65424 0.08169 0.8212 0.0
C2654 C 0.55258 0.12662 0.80962 0.0
C2655 C 0.54978 0.12505 0.83071 0.0
C2656 C 0.56689 0.11455 0.79972 0.0
C2657 C 0.57894 0.10086 0.81069 0.0
C2658 C 0.57645 0.09936 0.8318 0.0
C2659 C 0.56176 0.1112 0.84173 0.0
C2660 C 0.59406 0.08833 0.79973 0.0
C2661 C 0.61471 0.09304 0.80168 0.0
C2662 C 0.58792 0.07386 0.78518 0.0
C2663 C 0.56639 0.06765 0.78308 0.0
C2664 C 0.55542 0.06077 0.80003 0.0
C2665 C 0.53523 0.0547 0.79794 0.0
C2666 C 0.52587 0.05528 0.77893 0.0
C2667 C 0.53667 0.06199 0.76198 0.0
C2668 C 0.55683 0.06817 0.764 0.0
C2669 C 0.66725 0.04351 0.74791 0.0
C2670 C 0.66201 0.04547 0.7273 0.0
C2671 C 0.6548 0.05193 0.76301 0.0
C2672 C 0.63708 0.06261 0.7577 0.0
C2673 C 0.63227 0.06507 0.73711 0.0
C2674 C 0.64454 0.05659 0.72211 0.0
C2675 C 0.62299 0.07082 0.77331 0.0
C2676 C 0.60247 0.06527 0.77222 0.0
C2677 C 0.62925 0.08463 0.78849 0.0
C2678 C 0.65053 0.09162 0.79008 0.0
C2679 C 0.66003 0.10125 0.7736 0.0
C2680 C 0.68011 0.10778 0.77523 0.0
C2681 C 0.69079 0.10491 0.79332 0.0
C2682 C 0.68139 0.09556 0.80985 0.0
C2683 C 0.66131 0.08898 0.80829 0.0
H2684 H 0.70634 0.10998 0.79456 0.0
H2685 H 0.51026 0.05053 0.77733 0.0
H2686 H 0.45295 0.86792 0.79726 0.0
H2687 H 0.43551 0.88819 0.77167 0.0
H2688 H 0.46572 0.85466 0.72422 0.0
H2689 H 0.48323 0.834 0.74999 0.0
H2690 H 0.46776 0.89778 0.71992 0.0
H2691 H 0.41759 0.84692 0.72892 0.0
H2692 H 0.39555 0.82379 0.74825 0.0
H2693 H 0.36579 0.87466 0.77609 0.0
H2694 H 0.38784 0.89812 0.75716 0.0
H2695 H 0.40223 0.95944 0.65424 0.0
H2696 H 0.42196 0.93129 0.66895 0.0
H2697 H 0.39791 0.94557 0.72814 0.0
H2698 H 0.37828 0.97329 0.71372 0.0
H2699 H 0.39295 0.90612 0.71914 0.0
H2700 H 0.4466 0.95617 0.71513 0.0
H2701 H 0.46955 0.97985 0.69759 0.0
H2702 H 0.49311 0.93097 0.66147 0.0
H2703 H 0.47007 0.90704 0.67863 0.0
C2704 C 0.45566 0.86462 0.78138 0.0
C2705 C 0.46933 0.8493 0.77561 0.0
C2706 C 0.44567 0.87621 0.76677 0.0
C2707 C 0.44924 0.87285 0.74606 0.0
C2708 C 0.46271 0.8574 0.74015 0.0
C2709 C 0.47254 0.84553 0.75484 0.0
C2710 C 0.4393 0.88624 0.73095 0.0
C2711 C 0.45138 0.8993 0.71929 0.0
C2712 C 0.41796 0.88833 0.73039 0.0
C2713 C 0.40445 0.87429 0.74165 0.0
C2714 C 0.40643 0.85319 0.73925 0.0
C2715 C 0.39392 0.84001 0.75013 0.0
C2716 C 0.37929 0.84775 0.76341 0.0
C2717 C 0.37711 0.86869 0.76579 0.0
C2718 C 0.3896 0.88194 0.75496 0.0
C2719 C 0.40147 0.95674 0.67043 0.0
C2720 C 0.38856 0.96848 0.68278 0.0
C2721 C 0.41269 0.94065 0.6788 0.0
C2722 C 0.41123 0.93621 0.69962 0.0
C2723 C 0.39907 0.94853 0.712 0.0
C2724 C 0.3879 0.96445 0.70371 0.0
C2725 C 0.42142 0.91829 0.70877 0.0
C2726 C 0.40932 0.90431 0.7193 0.0
C2727 C 0.44271 0.91547 0.70835 0.0
C2728 C 0.45639 0.92988 0.69793 0.0
C2729 C 0.45651 0.95052 0.70328 0.0
C2730 C 0.46957 0.96397 0.69345 0.0
C2731 C 0.48272 0.95694 0.67836 0.0
C2732 C 0.48287 0.93641 0.67311 0.0
C2733 C 0.46981 0.9229 0.68288 0.0
H2734 H 0.49283 0.96738 0.67078 0.0
H2735 H 0.36963 0.83752 0.77183 0.0
loop_
_geom_bond_atom_site_label_1
_geom_bond_atom_site_label_2
_geom_bond_distance
_geom_bond_site_symmetry_2
_ccdc_geom_bond_type
C0 O2 1.247 . S
C0 O4 1.258 . S
C1 O8 1.247 . S
C1 O9 1.258 . S
O2 C0 1.247 . S
O2 Zn3 2.028 . S
Zn3 O2 2.028 . S
Zn3 O7 2.035 . S
Zn3 O9 2.035 1_545 S
Zn3 O10 2.028 1_545 S
O4 C0 1.258 . S
O4 Zn5 2.035 . S
Zn5 O4 2.035 . S
Zn5 O6 2.028 . S
Zn5 O8 2.028 1_545 S
Zn5 O11 2.035 1_545 S
O6 Zn5 2.028 . S
O6 C12 1.247 . S
O7 Zn3 2.035 . S
O7 C12 1.258 . S
O8 C1 1.247 . S
O8 Zn5 2.028 1_565 S
O9 C1 1.258 . S
O9 Zn3 2.035 1_565 S
O10 Zn3 2.028 1_565 S
O10 C13 1.247 . S
O11 Zn5 2.035 1_565 S
O11 C13 1.258 . S
C12 O6 1.247 . S
C12 O7 1.258 . S
C13 O10 1.247 . S
C13 O11 1.258 . S
C14 O16 1.247 . S
C14 O18 1.258 . S
C15 O22 1.247 . S
C15 O23 1.258 . S
O16 C14 1.247 . S
O16 Zn17 2.028 . S
Zn17 O16 2.028 . S
Zn17 O21 2.035 . S
Zn17 O23 2.035 1_455 S
Zn17 O24 2.028 1_455 S
O18 C14 1.258 . S
O18 Zn19 2.035 . S
Zn19 O18 2.035 . S
Zn19 O20 2.028 . S
Zn19 O22 2.028 1_455 S
Zn19 O25 2.035 1_455 S
O20 Zn19 2.028 . S
O20 C26 1.247 . S
O21 Zn17 2.035 . S
O21 C26 1.258 . S
O22 C15 1.247 . S
O22 Zn19 2.028 1_655 S
O23 C15 1.258 . S
O23 Zn17 2.035 1_655 S
O24 Zn17 2.028 1_655 S
O24 C27 1.247 . S
O25 Zn19 2.035 1_655 S
O25 C27 1.258 . S
C26 O20 1.247 . S
C26 O21 1.258 . S
C27 O24 1.247 . S
C27 O25 1.258 . S
C28 O30 1.247 . S
C28 O32 1.258 . S
C29 O36 1.247 . S
C29 O37 1.258 . S
O30 C28 1.247 . S
O30 Zn31 2.028 1_565 S
Zn31 O30 2.028 1_545 S
Zn31 O35 2.035 1_545 S
Zn31 O37 2.035 . S
Zn31 O38 2.028 . S
O32 C28 1.258 . S
O32 Zn33 2.035 1_565 S
Zn33 O32 2.035 1_545 S
Zn33 O34 2.028 1_545 S
Zn33 O36 2.028 . S
Zn33 O39 2.035 . S
O34 Zn33 2.028 1_565 S
O34 C40 1.247 . S
O35 Zn31 2.035 1_565 S
O35 C40 1.258 . S
O36 C29 1.247 . S
O36 Zn33 2.028 . S
O37 C29 1.258 . S
O37 Zn31 2.035 . S
O38 Zn31 2.028 . S
O38 C41 1.247 . S
O39 Zn33 2.035 . S
O39 C41 1.258 . S
C40 O34 1.247 . S
C40 O35 1.258 . S
C41 O38 1.247 . S
C41 O39 1.258 . S
C42 O44 1.247 . S
C42 O46 1.258 . S
C43 O50 1.247 . S
C43 O51 1.258 . S
O44 C42 1.247 . S
O44 Zn45 2.028 . S
Zn45 O44 2.028 . S
Zn45 O49 2.035 . S
Zn45 O51 2.035 1_455 S
Zn45 O52 2.028 1_455 S
O46 C42 1.258 . S
O46 Zn47 2.035 . S
Zn47 O46 2.035 . S
Zn47 O48 2.028 . S
Zn47 O50 2.028 1_455 S
Zn47 O53 2.035 1_455 S
O48 Zn47 2.028 . S
O48 C54 1.247 . S
O49 Zn45 2.035 . S
O49 C54 1.258 . S
O50 C43 1.247 . S
O50 Zn47 2.028 1_655 S
O51 C43 1.258 . S
O51 Zn45 2.035 1_655 S
O52 Zn45 2.028 1_655 S
O52 C55 1.247 . S
O53 Zn47 2.035 1_655 S
O53 C55 1.258 . S
C54 O48 1.247 . S
C54 O49 1.258 . S
C55 O52 1.247 . S
C55 O53 1.258 . S
C56 O58 1.247 . S
C56 O60 1.258 . S
C57 O64 1.247 . S
C57 O65 1.258 . S
O58 C56 1.247 . S
O58 Zn59 2.028 . S
Zn59 O58 2.028 . S
Zn59 O63 2.035 . S
Zn59 O65 2.035 1_545 S
Zn59 O66 2.028 1_545 S
O60 C56 1.258 . S
O60 Zn61 2.035 . S
Zn61 O60 2.035 . S
Zn61 O62 2.028 . S
Zn61 O64 2.028 1_545 S
Zn61 O67 2.035 1_545 S
O62 Zn61 2.028 . S
O62 C68 1.247 . S
O63 Zn59 2.035 . S
O63 C68 1.258 . S
O64 C57 1.247 . S
O64 Zn61 2.028 1_565 S
O65 C57 1.258 . S
O65 Zn59 2.035 1_565 S
O66 Zn59 2.028 1_565 S
O66 C69 1.247 . S
O67 Zn61 2.035 1_565 S
O67 C69 1.258 . S
C68 O62 1.247 . S
C68 O63 1.258 . S
C69 O66 1.247 . S
C69 O67 1.258 . S
C70 O72 1.247 . S
C70 O74 1.258 . S
C71 O78 1.247 . S
C71 O79 1.258 . S
O72 C70 1.247 . S
O72 Zn73 2.028 . S
Zn73 O72 2.028 . S
Zn73 O77 2.035 . S
Zn73 O79 2.035 1_455 S
Zn73 O80 2.028 1_455 S
O74 C70 1.258 . S
O74 Zn75 2.035 . S
Zn75 O74 2.035 . S
Zn75 O76 2.028 . S
Zn75 O78 2.028 1_455 S
Zn75 O81 2.035 1_455 S
O76 Zn75 2.028 . S
O76 C82 1.247 . S
O77 Zn73 2.035 . S
O77 C82 1.258 . S
O78 C71 1.247 . S
O78 Zn75 2.028 1_655 S
O79 C71 1.258 . S
O79 Zn73 2.035 1_655 S
O80 Zn73 2.028 1_655 S
O80 C83 1.247 . S
O81 Zn75 2.035 1_655 S
O81 C83 1.258 . S
C82 O76 1.247 . S
C82 O77 1.258 . S
C83 O80 1.247 . S
C83 O81 1.258 . S
C84 O86 1.247 . S
C84 O88 1.258 . S
C85 O92 1.247 . S
C85 O93 1.258 . S
O86 C84 1.247 . S
O86 Zn87 2.028 . S
Zn87 O86 2.028 . S
Zn87 O91 2.035 . S
Zn87 O93 2.035 1_545 S
Zn87 O94 2.028 1_545 S
O88 C84 1.258 . S
O88 Zn89 2.035 . S
Zn89 O88 2.035 . S
Zn89 O90 2.028 . S
Zn89 O92 2.028 1_545 S
Zn89 O95 2.035 1_545 S
O90 Zn89 2.028 . S
O90 C96 1.247 . S
O91 Zn87 2.035 . S
O91 C96 1.258 . S
O92 C85 1.247 . S
O92 Zn89 2.028 1_565 S
O93 C85 1.258 . S
O93 Zn87 2.035 1_565 S
O94 Zn87 2.028 1_565 S
O94 C97 1.247 . S
O95 Zn89 2.035 1_565 S
O95 C97 1.258 . S
C96 O90 1.247 . S
C96 O91 1.258 . S
C97 O94 1.247 . S
C97 O95 1.258 . S
C98 O100 1.247 . S
C98 O102 1.258 . S
C99 O106 1.247 . S
C99 O107 1.258 . S
O100 C98 1.247 . S
O100 Zn101 2.028 1_655 S
Zn101 O100 2.028 1_455 S
Zn101 O105 2.035 1_455 S
Zn101 O107 2.035 . S
Zn101 O108 2.028 . S
O102 C98 1.258 . S
O102 Zn103 2.035 1_655 S
Zn103 O102 2.035 1_455 S
Zn103 O104 2.028 1_455 S
Zn103 O106 2.028 . S
Zn103 O109 2.035 . S
O104 Zn103 2.028 1_655 S
O104 C110 1.247 . S
O105 Zn101 2.035 1_655 S
O105 C110 1.258 . S
O106 C99 1.247 . S
O106 Zn103 2.028 . S
O107 C99 1.258 . S
O107 Zn101 2.035 . S
O108 Zn101 2.028 . S
O108 C111 1.247 . S
O109 Zn103 2.035 . S
O109 C111 1.258 . S
C110 O104 1.247 . S
C110 O105 1.258 . S
C111 O108 1.247 . S
C111 O109 1.258 . S
C112 O114 1.247 . S
C112 O116 1.258 . S
C113 O120 1.247 . S
C113 O121 1.258 . S
O114 C112 1.247 . S
O114 Zn115 2.028 . S
Zn115 O114 2.028 . S
Zn115 O119 2.035 . S
Zn115 O121 2.035 1_554 S
Zn115 O122 2.028 1_554 S
O116 C112 1.258 . S
O116 Zn117 2.035 . S
Zn117 O116 2.035 . S
Zn117 O118 2.028 . S
Zn117 O120 2.028 1_554 S
Zn117 O123 2.035 1_554 S
O118 Zn117 2.028 . S
O118 C124 1.247 . S
O119 Zn115 2.035 . S
O119 C124 1.258 . S
O120 C113 1.247 . S
O120 Zn117 2.028 1_556 S
O121 C113 1.258 . S
O121 Zn115 2.035 1_556 S
O122 Zn115 2.028 1_556 S
O122 C125 1.247 . S
O123 Zn117 2.035 1_556 S
O123 C125 1.258 . S
C124 O118 1.247 . S
C124 O119 1.258 . S
C125 O122 1.247 . S
C125 O123 1.258 . S
C126 O128 1.247 . S
C126 O130 1.258 . S
C127 O134 1.247 . S
C127 O135 1.258 . S
O128 C126 1.247 . S
O128 Zn129 2.028 . S
Zn129 O128 2.028 . S
Zn129 O133 2.035 . S
Zn129 O135 2.035 1_554 S
Zn129 O136 2.028 1_554 S
O130 C126 1.258 . S
O130 Zn131 2.035 . S
Zn131 O130 2.035 . S
Zn131 O132 2.028 . S
Zn131 O134 2.028 1_554 S
Zn131 O137 2.035 1_554 S
O132 Zn131 2.028 . S
O132 C138 1.247 . S
O133 Zn129 2.035 . S
O133 C138 1.258 . S
O134 C127 1.247 . S
O134 Zn131 2.028 1_556 S
O135 C127 1.258 . S
O135 Zn129 2.035 1_556 S
O136 Zn129 2.028 1_556 S
O136 C139 1.247 . S
O137 Zn131 2.035 1_556 S
O137 C139 1.258 . S
C138 O132 1.247 . S
C138 O133 1.258 . S
C139 O136 1.247 . S
C139 O137 1.258 . S
C140 O142 1.247 . S
C140 O144 1.258 . S
C141 O148 1.247 . S
C141 O149 1.258 . S
O142 C140 1.247 . S
O142 Zn143 2.028 . S
Zn143 O142 2.028 . S
Zn143 O147 2.035 . S
Zn143 O149 2.035 1_554 S
Zn143 O150 2.028 1_554 S
O144 C140 1.258 . S
O144 Zn145 2.035 . S
Zn145 O144 2.035 . S
Zn145 O146 2.028 . S
Zn145 O148 2.028 1_554 S
Zn145 O151 2.035 1_554 S
O146 Zn145 2.028 . S
O146 C152 1.247 . S
O147 Zn143 2.035 . S
O147 C152 1.258 . S
O148 C141 1.247 . S
O148 Zn145 2.028 1_556 S
O149 C141 1.258 . S
O149 Zn143 2.035 1_556 S
O150 Zn143 2.028 1_556 S
O150 C153 1.247 . S
O151 Zn145 2.035 1_556 S
O151 C153 1.258 . S
C152 O146 1.247 . S
C152 O147 1.258 . S
C153 O150 1.247 . S
C153 O151 1.258 . S
C154 O156 1.247 . S
C154 O158 1.258 . S
C155 O162 1.247 . S
C155 O163 1.258 . S
O156 C154 1.247 . S
O156 Zn157 2.028 1_556 S
Zn157 O156 2.028 1_554 S
Zn157 O161 2.035 1_554 S
Zn157 O163 2.035 . S
Zn157 O164 2.028 . S
O158 C154 1.258 . S
O158 Zn159 2.035 1_556 S
Zn159 O158 2.035 1_554 S
Zn159 O160 2.028 1_554 S
Zn159 O162 2.028 . S
Zn159 O165 2.035 . S
O160 Zn159 2.028 1_556 S
O160 C166 1.247 . S
O161 Zn157 2.035 1_556 S
O161 C166 1.258 . S
O162 C155 1.247 . S
O162 Zn159 2.028 . S
O163 C155 1.258 . S
O163 Zn157 2.035 . S
O164 Zn157 2.028 . S
O164 C167 1.247 . S
O165 Zn159 2.035 . S
O165 C167 1.258 . S
C166 O160 1.247 . S
C166 O161 1.258 . S
C167 O164 1.247 . S
C167 O165 1.258 . S
C168 O170 1.247 . S
C168 O172 1.258 . S
C169 O176 1.247 . S
C169 O177 1.258 . S
O170 C168 1.247 . S
O170 Zn171 2.028 . S
Zn171 O170 2.028 . S
Zn171 O175 2.035 . S
Zn171 O177 2.035 . S
Zn171 O178 2.028 . S
O172 C168 1.258 . S
O172 Zn173 2.035 . S
Zn173 O172 2.035 . S
Zn173 O174 2.028 . S
Zn173 O176 2.028 . S
Zn173 O179 2.035 . S
O174 Zn173 2.028 . S
O174 C180 1.247 . S
O175 Zn171 2.035 . S
O175 C180 1.258 . S
O176 C169 1.247 . S
O176 Zn173 2.028 . S
O177 C169 1.258 . S
O177 Zn171 2.035 . S
O178 Zn171 2.028 . S
O178 C181 1.247 . S
O179 Zn173 2.035 . S
O179 C181 1.258 . S
C180 O174 1.247 . S
C180 O175 1.258 . S
C181 O178 1.247 . S
C181 O179 1.258 . S
C182 O184 1.247 . S
C182 O186 1.258 . S
C183 O190 1.247 . S
C183 O191 1.258 . S
O184 C182 1.247 . S
O184 Zn185 2.028 . S
Zn185 O184 2.028 . S
Zn185 O189 2.035 . S
Zn185 O191 2.035 . S
Zn185 O192 2.028 . S
O186 C182 1.258 . S
O186 Zn187 2.035 . S
Zn187 O186 2.035 . S
Zn187 O188 2.028 . S
Zn187 O190 2.028 . S
Zn187 O193 2.035 . S
O188 Zn187 2.028 . S
O188 C194 1.247 . S
O189 Zn185 2.035 . S
O189 C194 1.258 . S
O190 C183 1.247 . S
O190 Zn187 2.028 . S
O191 C183 1.258 . S
O191 Zn185 2.035 . S
O192 Zn185 2.028 . S
O192 C195 1.247 . S
O193 Zn187 2.035 . S
O193 C195 1.258 . S
C194 O188 1.247 . S
C194 O189 1.258 . S
C195 O192 1.247 . S
C195 O193 1.258 . S
C196 O198 1.247 . S
C196 O200 1.258 . S
C197 O204 1.247 . S
C197 O205 1.258 . S
O198 C196 1.247 . S
O198 Zn199 2.028 . S
Zn199 O198 2.028 . S
Zn199 O203 2.035 . S
Zn199 O205 2.035 . S
Zn199 O206 2.028 . S
O200 C196 1.258 . S
O200 Zn201 2.035 . S
Zn201 O200 2.035 . S
Zn201 O202 2.028 . S
Zn201 O204 2.028 . S
Zn201 O207 2.035 . S
O202 Zn201 2.028 . S
O202 C208 1.247 . S
O203 Zn199 2.035 . S
O203 C208 1.258 . S
O204 C197 1.247 . S
O204 Zn201 2.028 . S
O205 C197 1.258 . S
O205 Zn199 2.035 . S
O206 Zn199 2.028 . S
O206 C209 1.247 . S
O207 Zn201 2.035 . S
O207 C209 1.258 . S
C208 O202 1.247 . S
C208 O203 1.258 . S
C209 O206 1.247 . S
C209 O207 1.258 . S
C210 O212 1.247 . S
C210 O214 1.258 . S
C211 O218 1.247 . S
C211 O219 1.258 . S
O212 C210 1.247 . S
O212 Zn213 2.028 . S
Zn213 O212 2.028 . S
Zn213 O217 2.035 . S
Zn213 O219 2.035 . S
Zn213 O220 2.028 . S
O214 C210 1.258 . S
O214 Zn215 2.035 . S
Zn215 O214 2.035 . S
Zn215 O216 2.028 . S
Zn215 O218 2.028 . S
Zn215 O221 2.035 . S
O216 Zn215 2.028 . S
O216 C222 1.247 . S
O217 Zn213 2.035 . S
O217 C222 1.258 . S
O218 C211 1.247 . S
O218 Zn215 2.028 . S
O219 C211 1.258 . S
O219 Zn213 2.035 . S
O220 Zn213 2.028 . S
O220 C223 1.247 . S
O221 Zn215 2.035 . S
O221 C223 1.258 . S
C222 O216 1.247 . S
C222 O217 1.258 . S
C223 O220 1.247 . S
C223 O221 1.258 . S
C224 O226 1.247 . S
C224 O228 1.258 . S
C225 O232 1.247 . S
C225 O233 1.258 . S
O226 C224 1.247 . S
O226 Zn227 2.028 . S
Zn227 O226 2.028 . S
Zn227 O231 2.035 . S
Zn227 O233 2.035 . S
Zn227 O234 2.028 . S
O228 C224 1.258 . S
O228 Zn229 2.035 . S
Zn229 O228 2.035 . S
Zn229 O230 2.028 . S
Zn229 O232 2.028 . S
Zn229 O235 2.035 . S
O230 Zn229 2.028 . S
O230 C236 1.247 . S
O231 Zn227 2.035 . S
O231 C236 1.258 . S
O232 C225 1.247 . S
O232 Zn229 2.028 . S
O233 C225 1.258 . S
O233 Zn227 2.035 . S
O234 Zn227 2.028 . S
O234 C237 1.247 . S
O235 Zn229 2.035 . S
O235 C237 1.258 . S
C236 O230 1.247 . S
C236 O231 1.258 . S
C237 O234 1.247 . S
C237 O235 1.258 . S
C238 O240 1.247 . S
C238 O242 1.258 . S
C239 O246 1.247 . S
C239 O247 1.258 . S
O240 C238 1.247 . S
O240 Zn241 2.028 . S
Zn241 O240 2.028 . S
Zn241 O245 2.035 . S
Zn241 O247 2.035 . S
Zn241 O248 2.028 . S
O242 C238 1.258 . S
O242 Zn243 2.035 . S
Zn243 O242 2.035 . S
Zn243 O244 2.028 . S
Zn243 O246 2.028 . S
Zn243 O249 2.035 . S
O244 Zn243 2.028 . S
O244 C250 1.247 . S
O245 Zn241 2.035 . S
O245 C250 1.258 . S
O246 C239 1.247 . S
O246 Zn243 2.028 . S
O247 C239 1.258 . S
O247 Zn241 2.035 . S
O248 Zn241 2.028 . S
O248 C251 1.247 . S
O249 Zn243 2.035 . S
O249 C251 1.258 . S
C250 O244 1.247 . S
C250 O245 1.258 . S
C251 O248 1.247 . S
C251 O249 1.258 . S
C252 O254 1.247 . S
C252 O256 1.258 . S
C253 O260 1.247 . S
C253 O261 1.258 . S
O254 C252 1.247 . S
O254 Zn255 2.028 . S
Zn255 O254 2.028 . S
Zn255 O259 2.035 . S
Zn255 O261 2.035 . S
Zn255 O262 2.028 . S
O256 C252 1.258 . S
O256 Zn257 2.035 . S
Zn257 O256 2.035 . S
Zn257 O258 2.028 . S
Zn257 O260 2.028 . S
Zn257 O263 2.035 . S
O258 Zn257 2.028 . S
O258 C264 1.247 . S
O259 Zn255 2.035 . S
O259 C264 1.258 . S
O260 C253 1.247 . S
O260 Zn257 2.028 . S
O261 C253 1.258 . S
O261 Zn255 2.035 . S
O262 Zn255 2.028 . S
O262 C265 1.247 . S
O263 Zn257 2.035 . S
O263 C265 1.258 . S
C264 O258 1.247 . S
C264 O259 1.258 . S
C265 O262 1.247 . S
C265 O263 1.258 . S
C266 O268 1.247 . S
C266 O270 1.258 . S
C267 O274 1.247 . S
C267 O275 1.258 . S
O268 C266 1.247 . S
O268 Zn269 2.028 . S
Zn269 O268 2.028 . S
Zn269 O273 2.035 . S
Zn269 O275 2.035 . S
Zn269 O276 2.028 . S
O270 C266 1.258 . S
O270 Zn271 2.035 . S
Zn271 O270 2.035 . S
Zn271 O272 2.028 . S
Zn271 O274 2.028 . S
Zn271 O277 2.035 . S
O272 Zn271 2.028 . S
O272 C278 1.247 . S
O273 Zn269 2.035 . S
O273 C278 1.258 . S
O274 C267 1.247 . S
O274 Zn271 2.028 . S
O275 C267 1.258 . S
O275 Zn269 2.035 . S
O276 Zn269 2.028 . S
O276 C279 1.247 . S
O277 Zn271 2.035 . S
O277 C279 1.258 . S
C278 O272 1.247 . S
C278 O273 1.258 . S
C279 O276 1.247 . S
C279 O277 1.258 . S
C280 O282 1.247 . S
C280 O284 1.258 . S
C281 O288 1.247 . S
C281 O289 1.258 . S
O282 C280 1.247 . S
O282 Zn283 2.028 . S
Zn283 O282 2.028 . S
Zn283 O287 2.035 . S
Zn283 O289 2.035 . S
Zn283 O290 2.028 . S
O284 C280 1.258 . S
O284 Zn285 2.035 . S
Zn285 O284 2.035 . S
Zn285 O286 2.028 . S
Zn285 O288 2.028 . S
Zn285 O291 2.035 . S
O286 Zn285 2.028 . S
O286 C292 1.247 . S
O287 Zn283 2.035 . S
O287 C292 1.258 . S
O288 C281 1.247 . S
O288 Zn285 2.028 . S
O289 C281 1.258 . S
O289 Zn283 2.035 . S
O290 Zn283 2.028 . S
O290 C293 1.247 . S
O291 Zn285 2.035 . S
O291 C293 1.258 . S
C292 O286 1.247 . S
C292 O287 1.258 . S
C293 O290 1.247 . S
C293 O291 1.258 . S
C294 O296 1.247 . S
C294 O298 1.258 . S
C295 O302 1.247 . S
C295 O303 1.258 . S
O296 C294 1.247 . S
O296 Zn297 2.028 . S
Zn297 O296 2.028 . S
Zn297 O301 2.035 . S
Zn297 O303 2.035 . S
Zn297 O304 2.028 . S
O298 C294 1.258 . S
O298 Zn299 2.035 . S
Zn299 O298 2.035 . S
Zn299 O300 2.028 . S
Zn299 O302 2.028 . S
Zn299 O305 2.035 . S
O300 Zn299 2.028 . S
O300 C306 1.247 . S
O301 Zn297 2.035 . S
O301 C306 1.258 . S
O302 C295 1.247 . S
O302 Zn299 2.028 . S
O303 C295 1.258 . S
O303 Zn297 2.035 . S
O304 Zn297 2.028 . S
O304 C307 1.247 . S
O305 Zn299 2.035 . S
O305 C307 1.258 . S
C306 O300 1.247 . S
C306 O301 1.258 . S
C307 O304 1.247 . S
C307 O305 1.258 . S
C308 O310 1.247 . S
C308 O312 1.258 . S
C309 O316 1.247 . S
C309 O317 1.258 . S
O310 C308 1.247 . S
O310 Zn311 2.028 . S
Zn311 O310 2.028 . S
Zn311 O315 2.035 . S
Zn311 O317 2.035 . S
Zn311 O318 2.028 . S
O312 C308 1.258 . S
O312 Zn313 2.035 . S
Zn313 O312 2.035 . S
Zn313 O314 2.028 . S
Zn313 O316 2.028 . S
Zn313 O319 2.035 . S
O314 Zn313 2.028 . S
O314 C320 1.247 . S
O315 Zn311 2.035 . S
O315 C320 1.258 . S
O316 C309 1.247 . S
O316 Zn313 2.028 . S
O317 C309 1.258 . S
O317 Zn311 2.035 . S
O318 Zn311 2.028 . S
O318 C321 1.247 . S
O319 Zn313 2.035 . S
O319 C321 1.258 . S
C320 O314 1.247 . S
C320 O315 1.258 . S
C321 O318 1.247 . S
C321 O319 1.258 . S
C322 O324 1.247 . S
C322 O326 1.258 . S
C323 O330 1.247 . S
C323 O331 1.258 . S
O324 C322 1.247 . S
O324 Zn325 2.028 . S
Zn325 O324 2.028 . S
Zn325 O329 2.035 . S
Zn325 O331 2.035 . S
Zn325 O332 2.028 . S
O326 C322 1.258 . S
O326 Zn327 2.035 . S
Zn327 O326 2.035 . S
Zn327 O328 2.028 . S
Zn327 O330 2.028 . S
Zn327 O333 2.035 . S
O328 Zn327 2.028 . S
O328 C334 1.247 . S
O329 Zn325 2.035 . S
O329 C334 1.258 . S
O330 C323 1.247 . S
O330 Zn327 2.028 . S
O331 C323 1.258 . S
O331 Zn325 2.035 . S
O332 Zn325 2.028 . S
O332 C335 1.247 . S
O333 Zn327 2.035 . S
O333 C335 1.258 . S
C334 O328 1.247 . S
C334 O329 1.258 . S
C335 O332 1.247 . S
C335 O333 1.258 . S
H336 C354 0.951 . S
H337 C356 0.951 . S
H338 C358 0.950 . S
H339 C359 0.950 . S
H340 C361 0.950 . S
H341 C364 0.950 . S
H342 C365 0.950 . S
H343 C367 0.950 . S
H344 C368 0.950 . S
H345 C369 0.951 . S
H346 C371 0.951 . S
H347 C373 0.950 . S
H348 C374 0.950 . S
H349 C376 0.950 . S
H350 C379 0.950 . S
H351 C380 0.950 . S
H352 C382 0.950 . S
H353 C383 0.950 . S
C354 H336 0.951 . S
C354 C355 1.366 . S
C354 C356 1.388 . S
C355 C354 1.366 . S
C355 C359 1.385 . S
C356 H337 0.951 . S
C356 C354 1.388 . S
C356 C357 1.366 . S
C357 C356 1.366 . S
C357 C358 1.414 . S
C357 C360 1.499 . S
C358 H338 0.950 . S
C358 C357 1.414 . S
C358 C359 1.374 . S
C359 H339 0.950 . S
C359 C355 1.385 . S
C359 C358 1.374 . S
C360 C357 1.499 . S
C360 C361 1.373 . S
C360 C362 1.389 . S
C361 H340 0.950 . S
C361 C360 1.373 . S
C361 C377 1.377 . S
C362 C360 1.389 . S
C362 C363 1.524 . S
C362 C376 1.377 . S
C363 C362 1.524 . S
C363 C364 1.397 . S
C363 C368 1.363 . S
C364 H341 0.950 . S
C364 C363 1.397 . S
C364 C365 1.334 . S
C365 H342 0.950 . S
C365 C364 1.334 . S
C365 C366 1.287 . S
C366 C365 1.287 . S
C366 C367 1.524 . S
C366 H385 0.913 . S
C367 H343 0.950 . S
C367 C366 1.524 . S
C367 C368 1.415 . S
C368 H344 0.950 . S
C368 C363 1.363 . S
C368 C367 1.415 . S
C369 H345 0.951 . S
C369 C370 1.366 . S
C369 C371 1.388 . S
C370 C369 1.366 . S
C370 C374 1.385 . S
C371 H346 0.951 . S
C371 C369 1.388 . S
C371 C372 1.366 . S
C372 C371 1.366 . S
C372 C373 1.414 . S
C372 C375 1.499 . S
C373 H347 0.950 . S
C373 C372 1.414 . S
C373 C374 1.374 . S
C374 H348 0.950 . S
C374 C370 1.385 . S
C374 C373 1.374 . S
C375 C372 1.499 . S
C375 C376 1.373 . S
C375 C377 1.389 . S
C376 H349 0.950 . S
C376 C362 1.377 . S
C376 C375 1.373 . S
C377 C361 1.377 . S
C377 C375 1.389 . S
C377 C378 1.524 . S
C378 C377 1.524 . S
C378 C379 1.397 . S
C378 C383 1.363 . S
C379 H350 0.950 . S
C379 C378 1.397 . S
C379 C380 1.334 . S
C380 H351 0.950 . S
C380 C379 1.334 . S
C380 C381 1.287 . S
C381 C380 1.287 . S
C381 C382 1.524 . S
C381 H384 0.999 . S
C382 H352 0.950 . S
C382 C381 1.524 . S
C382 C383 1.415 . S
C383 H353 0.950 . S
C383 C378 1.363 . S
C383 C382 1.415 . S
H384 C381 0.999 . S
H385 C366 0.913 . S
H386 C404 0.951 . S
H387 C406 0.951 . S
H388 C408 0.950 . S
H389 C409 0.950 . S
H390 C411 0.950 . S
H391 C414 0.950 . S
H392 C415 0.950 . S
H393 C417 0.950 . S
H394 C418 0.950 . S
H395 C419 0.951 . S
H396 C421 0.951 . S
H397 C423 0.950 . S
H398 C424 0.950 . S
H399 C426 0.950 . S
H400 C429 0.950 . S
H401 C430 0.950 . S
H402 C432 0.950 . S
H403 C433 0.950 . S
C404 H386 0.951 . S
C404 C405 1.366 . S
C404 C406 1.388 . S
C405 C404 1.366 . S
C405 C409 1.385 . S
C406 H387 0.951 . S
C406 C404 1.388 . S
C406 C407 1.366 . S
C407 C406 1.366 . S
C407 C408 1.414 . S
C407 C410 1.499 . S
C408 H388 0.950 . S
C408 C407 1.414 . S
C408 C409 1.374 . S
C409 H389 0.950 . S
C409 C405 1.385 . S
C409 C408 1.374 . S
C410 C407 1.499 . S
C410 C411 1.373 . S
C410 C412 1.389 . S
C411 H390 0.950 . S
C411 C410 1.373 . S
C411 C427 1.377 . S
C412 C410 1.389 . S
C412 C413 1.524 . S
C412 C426 1.377 . S
C413 C412 1.524 . S
C413 C414 1.397 . S
C413 C418 1.363 . S
C414 H391 0.950 . S
C414 C413 1.397 . S
C414 C415 1.334 . S
C415 H392 0.950 . S
C415 C414 1.334 . S
C415 C416 1.287 . S
C416 C415 1.287 . S
C416 C417 1.524 . S
C416 H435 0.913 . S
C417 H393 0.950 . S
C417 C416 1.524 . S
C417 C418 1.415 . S
C418 H394 0.950 . S
C418 C413 1.363 . S
C418 C417 1.415 . S
C419 H395 0.951 . S
C419 C420 1.366 . S
C419 C421 1.388 . S
C420 C419 1.366 . S
C420 C424 1.385 . S
C421 H396 0.951 . S
C421 C419 1.388 . S
C421 C422 1.366 . S
C422 C421 1.366 . S
C422 C423 1.414 . S
C422 C425 1.499 . S
C423 H397 0.950 . S
C423 C422 1.414 . S
C423 C424 1.374 . S
C424 H398 0.950 . S
C424 C420 1.385 . S
C424 C423 1.374 . S
C425 C422 1.499 . S
C425 C426 1.373 . S
C425 C427 1.389 . S
C426 H399 0.950 . S
C426 C412 1.377 . S
C426 C425 1.373 . S
C427 C411 1.377 . S
C427 C425 1.389 . S
C427 C428 1.524 . S
C428 C427 1.524 . S
C428 C429 1.397 . S
C428 C433 1.363 . S
C429 H400 0.950 . S
C429 C428 1.397 . S
C429 C430 1.334 . S
C430 H401 0.950 . S
C430 C429 1.334 . S
C430 C431 1.287 . S
C431 C430 1.287 . S
C431 C432 1.524 . S
C431 H434 0.999 . S
C432 H402 0.950 . S
C432 C431 1.524 . S
C432 C433 1.415 . S
C433 H403 0.950 . S
C433 C428 1.363 . S
C433 C432 1.415 . S
H434 C431 0.999 . S
H435 C416 0.913 . S
H436 C454 0.951 . S
H437 C456 0.951 . S
H438 C458 0.950 . S
H439 C459 0.950 . S
H440 C461 0.950 . S
H441 C464 0.950 . S
H442 C465 0.950 . S
H443 C467 0.950 . S
H444 C468 0.950 . S
H445 C469 0.951 . S
H446 C471 0.951 . S
H447 C473 0.950 . S
H448 C474 0.950 . S
H449 C476 0.950 . S
H450 C479 0.950 . S
H451 C480 0.950 . S
H452 C482 0.950 . S
H453 C483 0.950 . S
C454 H436 0.951 . S
C454 C455 1.366 . S
C454 C456 1.388 . S
C455 C454 1.366 . S
C455 C459 1.385 . S
C456 H437 0.951 . S
C456 C454 1.388 . S
C456 C457 1.366 . S
C457 C456 1.366 . S
C457 C458 1.414 . S
C457 C460 1.499 . S
C458 H438 0.950 . S
C458 C457 1.414 . S
C458 C459 1.374 . S
C459 H439 0.950 . S
C459 C455 1.385 . S
C459 C458 1.374 . S
C460 C457 1.499 . S
C460 C461 1.373 . S
C460 C462 1.389 . S
C461 H440 0.950 . S
C461 C460 1.373 . S
C461 C477 1.377 . S
C462 C460 1.389 . S
C462 C463 1.524 . S
C462 C476 1.377 . S
C463 C462 1.524 . S
C463 C464 1.397 . S
C463 C468 1.363 . S
C464 H441 0.950 . S
C464 C463 1.397 . S
C464 C465 1.334 . S
C465 H442 0.950 . S
C465 C464 1.334 . S
C465 C466 1.287 . S
C466 C465 1.287 . S
C466 C467 1.524 . S
C466 H485 0.913 . S
C467 H443 0.950 . S
C467 C466 1.524 . S
C467 C468 1.415 . S
C468 H444 0.950 . S
C468 C463 1.363 . S
C468 C467 1.415 . S
C469 H445 0.951 . S
C469 C470 1.366 . S
C469 C471 1.388 . S
C470 C469 1.366 . S
C470 C474 1.385 . S
C471 H446 0.951 . S
C471 C469 1.388 . S
C471 C472 1.366 . S
C472 C471 1.366 . S
C472 C473 1.414 . S
C472 C475 1.499 . S
C473 H447 0.950 . S
C473 C472 1.414 . S
C473 C474 1.374 . S
C474 H448 0.950 . S
C474 C470 1.385 . S
C474 C473 1.374 . S
C475 C472 1.499 . S
C475 C476 1.373 . S
C475 C477 1.389 . S
C476 H449 0.950 . S
C476 C462 1.377 . S
C476 C475 1.373 . S
C477 C461 1.377 . S
C477 C475 1.389 . S
C477 C478 1.524 . S
C478 C477 1.524 . S
C478 C479 1.397 . S
C478 C483 1.363 . S
C479 H450 0.950 . S
C479 C478 1.397 . S
C479 C480 1.334 . S
C480 H451 0.950 . S
C480 C479 1.334 . S
C480 C481 1.287 . S
C481 C480 1.287 . S
C481 C482 1.524 . S
C481 H484 0.999 . S
C482 H452 0.950 . S
C482 C481 1.524 . S
C482 C483 1.415 . S
C483 H453 0.950 . S
C483 C478 1.363 . S
C483 C482 1.415 . S
H484 C481 0.999 . S
H485 C466 0.913 . S
H486 C504 0.951 . S
H487 C506 0.951 . S
H488 C508 0.950 . S
H489 C509 0.950 . S
H490 C511 0.950 . S
H491 C514 0.950 . S
H492 C515 0.950 . S
H493 C517 0.950 . S
H494 C518 0.950 . S
H495 C519 0.951 . S
H496 C521 0.951 . S
H497 C523 0.950 . S
H498 C524 0.950 . S
H499 C526 0.950 . S
H500 C529 0.950 . S
H501 C530 0.950 . S
H502 C532 0.950 . S
H503 C533 0.950 . S
C504 H486 0.951 . S
C504 C505 1.366 . S
C504 C506 1.388 . S
C505 C504 1.366 . S
C505 C509 1.385 . S
C506 H487 0.951 . S
C506 C504 1.388 . S
C506 C507 1.366 . S
C507 C506 1.366 . S
C507 C508 1.414 . S
C507 C510 1.499 . S
C508 H488 0.950 . S
C508 C507 1.414 . S
C508 C509 1.374 . S
C509 H489 0.950 . S
C509 C505 1.385 . S
C509 C508 1.374 . S
C510 C507 1.499 . S
C510 C511 1.373 . S
C510 C512 1.389 . S
C511 H490 0.950 . S
C511 C510 1.373 . S
C511 C527 1.377 . S
C512 C510 1.389 . S
C512 C513 1.524 . S
C512 C526 1.377 . S
C513 C512 1.524 . S
C513 C514 1.397 . S
C513 C518 1.363 . S
C514 H491 0.950 . S
C514 C513 1.397 . S
C514 C515 1.334 . S
C515 H492 0.950 . S
C515 C514 1.334 . S
C515 C516 1.287 . S
C516 C515 1.287 . S
C516 C517 1.524 . S
C516 H535 0.913 . S
C517 H493 0.950 . S
C517 C516 1.524 . S
C517 C518 1.415 . S
C518 H494 0.950 . S
C518 C513 1.363 . S
C518 C517 1.415 . S
C519 H495 0.951 . S
C519 C520 1.366 . S
C519 C521 1.388 . S
C520 C519 1.366 . S
C520 C524 1.385 . S
C521 H496 0.951 . S
C521 C519 1.388 . S
C521 C522 1.366 . S
C522 C521 1.366 . S
C522 C523 1.414 . S
C522 C525 1.499 . S
C523 H497 0.950 . S
C523 C522 1.414 . S
C523 C524 1.374 . S
C524 H498 0.950 . S
C524 C520 1.385 . S
C524 C523 1.374 . S
C525 C522 1.499 . S
C525 C526 1.373 . S
C525 C527 1.389 . S
C526 H499 0.950 . S
C526 C512 1.377 . S
C526 C525 1.373 . S
C527 C511 1.377 . S
C527 C525 1.389 . S
C527 C528 1.524 . S
C528 C527 1.524 . S
C528 C529 1.397 . S
C528 C533 1.363 . S
C529 H500 0.950 . S
C529 C528 1.397 . S
C529 C530 1.334 . S
C530 H501 0.950 . S
C530 C529 1.334 . S
C530 C531 1.287 . S
C531 C530 1.287 . S
C531 C532 1.524 . S
C531 H534 0.999 . S
C532 H502 0.950 . S
C532 C531 1.524 . S
C532 C533 1.415 . S
C533 H503 0.950 . S
C533 C528 1.363 . S
C533 C532 1.415 . S
H534 C531 0.999 . S
H535 C516 0.913 . S
H536 C554 0.951 . S
H537 C556 0.951 . S
H538 C558 0.950 . S
H539 C559 0.950 . S
H540 C561 0.950 . S
H541 C564 0.950 . S
H542 C565 0.950 . S
H543 C567 0.950 . S
H544 C568 0.950 . S
H545 C569 0.951 . S
H546 C571 0.951 . S
H547 C573 0.950 . S
H548 C574 0.950 . S
H549 C576 0.950 . S
H550 C579 0.950 . S
H551 C580 0.950 . S
H552 C582 0.950 . S
H553 C583 0.950 . S
C554 H536 0.951 . S
C554 C555 1.366 . S
C554 C556 1.388 . S
C555 C554 1.366 . S
C555 C559 1.385 . S
C556 H537 0.951 . S
C556 C554 1.388 . S
C556 C557 1.366 . S
C557 C556 1.366 . S
C557 C558 1.414 . S
C557 C560 1.499 . S
C558 H538 0.950 . S
C558 C557 1.414 . S
C558 C559 1.374 . S
C559 H539 0.950 . S
C559 C555 1.385 . S
C559 C558 1.374 . S
C560 C557 1.499 . S
C560 C561 1.373 . S
C560 C562 1.389 . S
C561 H540 0.950 . S
C561 C560 1.373 . S
C561 C577 1.377 . S
C562 C560 1.389 . S
C562 C563 1.524 . S
C562 C576 1.377 . S
C563 C562 1.524 . S
C563 C564 1.397 . S
C563 C568 1.363 . S
C564 H541 0.950 . S
C564 C563 1.397 . S
C564 C565 1.334 . S
C565 H542 0.950 . S
C565 C564 1.334 . S
C565 C566 1.287 . S
C566 C565 1.287 . S
C566 C567 1.524 . S
C566 H585 0.913 . S
C567 H543 0.950 . S
C567 C566 1.524 . S
C567 C568 1.415 . S
C568 H544 0.950 . S
C568 C563 1.363 . S
C568 C567 1.415 . S
C569 H545 0.951 . S
C569 C570 1.366 . S
C569 C571 1.388 . S
C570 C569 1.366 . S
C570 C574 1.385 . S
C571 H546 0.951 . S
C571 C569 1.388 . S
C571 C572 1.366 . S
C572 C571 1.366 . S
C572 C573 1.414 . S
C572 C575 1.499 . S
C573 H547 0.950 . S
C573 C572 1.414 . S
C573 C574 1.374 . S
C574 H548 0.950 . S
C574 C570 1.385 . S
C574 C573 1.374 . S
C575 C572 1.499 . S
C575 C576 1.373 . S
C575 C577 1.389 . S
C576 H549 0.950 . S
C576 C562 1.377 . S
C576 C575 1.373 . S
C577 C561 1.377 . S
C577 C575 1.389 . S
C577 C578 1.524 . S
C578 C577 1.524 . S
C578 C579 1.397 . S
C578 C583 1.363 . S
C579 H550 0.950 . S
C579 C578 1.397 . S
C579 C580 1.334 . S
C580 H551 0.950 . S
C580 C579 1.334 . S
C580 C581 1.287 . S
C581 C580 1.287 . S
C581 C582 1.524 . S
C581 H584 0.999 . S
C582 H552 0.950 . S
C582 C581 1.524 . S
C582 C583 1.415 . S
C583 H553 0.950 . S
C583 C578 1.363 . S
C583 C582 1.415 . S
H584 C581 0.999 . S
H585 C566 0.913 . S
H586 C604 0.951 . S
H587 C606 0.951 . S
H588 C608 0.950 . S
H589 C609 0.950 . S
H590 C611 0.950 . S
H591 C614 0.950 . S
H592 C615 0.950 . S
H593 C617 0.950 . S
H594 C618 0.950 . S
H595 C619 0.951 . S
H596 C621 0.951 . S
H597 C623 0.950 . S
H598 C624 0.950 . S
H599 C626 0.950 . S
H600 C629 0.950 . S
H601 C630 0.950 . S
H602 C632 0.950 . S
H603 C633 0.950 . S
C604 H586 0.951 . S
C604 C605 1.366 . S
C604 C606 1.388 . S
C605 C604 1.366 . S
C605 C609 1.385 . S
C606 H587 0.951 . S
C606 C604 1.388 . S
C606 C607 1.366 . S
C607 C606 1.366 . S
C607 C608 1.414 . S
C607 C610 1.499 . S
C608 H588 0.950 . S
C608 C607 1.414 . S
C608 C609 1.374 . S
C609 H589 0.950 . S
C609 C605 1.385 . S
C609 C608 1.374 . S
C610 C607 1.499 . S
C610 C611 1.373 . S
C610 C612 1.389 . S
C611 H590 0.950 . S
C611 C610 1.373 . S
C611 C627 1.377 . S
C612 C610 1.389 . S
C612 C613 1.524 . S
C612 C626 1.377 . S
C613 C612 1.524 . S
C613 C614 1.397 . S
C613 C618 1.363 . S
C614 H591 0.950 . S
C614 C613 1.397 . S
C614 C615 1.334 . S
C615 H592 0.950 . S
C615 C614 1.334 . S
C615 C616 1.287 . S
C616 C615 1.287 . S
C616 C617 1.524 . S
C616 H635 0.913 . S
C617 H593 0.950 . S
C617 C616 1.524 . S
C617 C618 1.415 . S
C618 H594 0.950 . S
C618 C613 1.363 . S
C618 C617 1.415 . S
C619 H595 0.951 . S
C619 C620 1.366 . S
C619 C621 1.388 . S
C620 C619 1.366 . S
C620 C624 1.385 . S
C621 H596 0.951 . S
C621 C619 1.388 . S
C621 C622 1.366 . S
C622 C621 1.366 . S
C622 C623 1.414 . S
C622 C625 1.499 . S
C623 H597 0.950 . S
C623 C622 1.414 . S
C623 C624 1.374 . S
C624 H598 0.950 . S
C624 C620 1.385 . S
C624 C623 1.374 . S
C625 C622 1.499 . S
C625 C626 1.373 . S
C625 C627 1.389 . S
C626 H599 0.950 . S
C626 C612 1.377 . S
C626 C625 1.373 . S
C627 C611 1.377 . S
C627 C625 1.389 . S
C627 C628 1.524 . S
C628 C627 1.524 . S
C628 C629 1.397 . S
C628 C633 1.363 . S
C629 H600 0.950 . S
C629 C628 1.397 . S
C629 C630 1.334 . S
C630 H601 0.950 . S
C630 C629 1.334 . S
C630 C631 1.287 . S
C631 C630 1.287 . S
C631 C632 1.524 . S
C631 H634 0.999 . S
C632 H602 0.950 . S
C632 C631 1.524 . S
C632 C633 1.415 . S
C633 H603 0.950 . S
C633 C628 1.363 . S
C633 C632 1.415 . S
H634 C631 0.999 . S
H635 C616 0.913 . S
H636 C654 0.951 . S
H637 C656 0.951 . S
H638 C658 0.950 . S
H639 C659 0.950 . S
H640 C661 0.950 . S
H641 C664 0.950 . S
H642 C665 0.950 . S
H643 C667 0.950 . S
H644 C668 0.950 . S
H645 C669 0.951 . S
H646 C671 0.951 . S
H647 C673 0.950 . S
H648 C674 0.950 . S
H649 C676 0.950 . S
H650 C679 0.950 . S
H651 C680 0.950 . S
H652 C682 0.950 . S
H653 C683 0.950 . S
C654 H636 0.951 . S
C654 C655 1.366 . S
C654 C656 1.388 . S
C655 C654 1.366 . S
C655 C659 1.385 . S
C656 H637 0.951 . S
C656 C654 1.388 . S
C656 C657 1.366 . S
C657 C656 1.366 . S
C657 C658 1.414 . S
C657 C660 1.499 . S
C658 H638 0.950 . S
C658 C657 1.414 . S
C658 C659 1.374 . S
C659 H639 0.950 . S
C659 C655 1.385 . S
C659 C658 1.374 . S
C660 C657 1.499 . S
C660 C661 1.373 . S
C660 C662 1.389 . S
C661 H640 0.950 . S
C661 C660 1.373 . S
C661 C677 1.377 . S
C662 C660 1.389 . S
C662 C663 1.524 . S
C662 C676 1.377 . S
C663 C662 1.524 . S
C663 C664 1.397 . S
C663 C668 1.363 . S
C664 H641 0.950 . S
C664 C663 1.397 . S
C664 C665 1.334 . S
C665 H642 0.950 . S
C665 C664 1.334 . S
C665 C666 1.287 . S
C666 C665 1.287 . S
C666 C667 1.524 . S
C666 H685 0.913 . S
C667 H643 0.950 . S
C667 C666 1.524 . S
C667 C668 1.415 . S
C668 H644 0.950 . S
C668 C663 1.363 . S
C668 C667 1.415 . S
C669 H645 0.951 . S
C669 C670 1.366 . S
C669 C671 1.388 . S
C670 C669 1.366 . S
C670 C674 1.385 . S
C671 H646 0.951 . S
C671 C669 1.388 . S
C671 C672 1.366 . S
C672 C671 1.366 . S
C672 C673 1.414 . S
C672 C675 1.499 . S
C673 H647 0.950 . S
C673 C672 1.414 . S
C673 C674 1.374 . S
C674 H648 0.950 . S
C674 C670 1.385 . S
C674 C673 1.374 . S
C675 C672 1.499 . S
C675 C676 1.373 . S
C675 C677 1.389 . S
C676 H649 0.950 . S
C676 C662 1.377 . S
C676 C675 1.373 . S
C677 C661 1.377 . S
C677 C675 1.389 . S
C677 C678 1.524 . S
C678 C677 1.524 . S
C678 C679 1.397 . S
C678 C683 1.363 . S
C679 H650 0.950 . S
C679 C678 1.397 . S
C679 C680 1.334 . S
C680 H651 0.950 . S
C680 C679 1.334 . S
C680 C681 1.287 . S
C681 C680 1.287 . S
C681 C682 1.524 . S
C681 H684 0.999 . S
C682 H652 0.950 . S
C682 C681 1.524 . S
C682 C683 1.415 . S
C683 H653 0.950 . S
C683 C678 1.363 . S
C683 C682 1.415 . S
H684 C681 0.999 . S
H685 C666 0.913 . S
H686 C704 0.951 . S
H687 C706 0.951 . S
H688 C708 0.950 . S
H689 C709 0.950 . S
H690 C711 0.950 . S
H691 C714 0.950 . S
H692 C715 0.950 . S
H693 C717 0.950 . S
H694 C718 0.950 . S
H695 C719 0.951 . S
H696 C721 0.951 . S
H697 C723 0.950 . S
H698 C724 0.950 . S
H699 C726 0.950 . S
H700 C729 0.950 . S
H701 C730 0.950 . S
H702 C732 0.950 . S
H703 C733 0.950 . S
C704 H686 0.951 . S
C704 C705 1.366 . S
C704 C706 1.388 . S
C705 C704 1.366 . S
C705 C709 1.385 . S
C706 H687 0.951 . S
C706 C704 1.388 . S
C706 C707 1.366 . S
C707 C706 1.366 . S
C707 C708 1.414 . S
C707 C710 1.499 . S
C708 H688 0.950 . S
C708 C707 1.414 . S
C708 C709 1.374 . S
C709 H689 0.950 . S
C709 C705 1.385 . S
C709 C708 1.374 . S
C710 C707 1.499 . S
C710 C711 1.373 . S
C710 C712 1.389 . S
C711 H690 0.950 . S
C711 C710 1.373 . S
C711 C727 1.377 . S
C712 C710 1.389 . S
C712 C713 1.524 . S
C712 C726 1.377 . S
C713 C712 1.524 . S
C713 C714 1.397 . S
C713 C718 1.363 . S
C714 H691 0.950 . S
C714 C713 1.397 . S
C714 C715 1.334 . S
C715 H692 0.950 . S
C715 C714 1.334 . S
C715 C716 1.287 . S
C716 C715 1.287 . S
C716 C717 1.524 . S
C716 H735 0.913 . S
C717 H693 0.950 . S
C717 C716 1.524 . S
C717 C718 1.415 . S
C718 H694 0.950 . S
C718 C713 1.363 . S
C718 C717 1.415 . S
C719 H695 0.951 . S
C719 C720 1.366 . S
C719 C721 1.388 . S
C720 C719 1.366 . S
C720 C724 1.385 . S
C721 H696 0.951 . S
C721 C719 1.388 . S
C721 C722 1.366 . S
C722 C721 1.366 . S
C722 C723 1.414 . S
C722 C725 1.499 . S
C723 H697 0.950 . S
C723 C722 1.414 . S
C723 C724 1.374 . S
C724 H698 0.950 . S
C724 C720 1.385 . S
C724 C723 1.374 . S
C725 C722 1.499 . S
C725 C726 1.373 . S
C725 C727 1.389 . S
C726 H699 0.950 . S
C726 C712 1.377 . S
C726 C725 1.373 . S
C727 C711 1.377 . S
C727 C725 1.389 . S
C727 C728 1.524 . S
C728 C727 1.524 . S
C728 C729 1.397 . S
C728 C733 1.363 . S
C729 H700 0.950 . S
C729 C728 1.397 . S
C729 C730 1.334 . S
C730 H701 0.950 . S
C730 C729 1.334 . S
C730 C731 1.287 . S
C731 C730 1.287 . S
C731 C732 1.524 . S
C731 H734 0.999 . S
C732 H702 0.950 . S
C732 C731 1.524 . S
C732 C733 1.415 . S
C733 H703 0.950 . S
C733 C728 1.363 . S
C733 C732 1.415 . S
H734 C731 0.999 . S
H735 C716 0.913 . S
H736 C754 0.951 . S
H737 C756 0.951 . S
H738 C758 0.950 . S
H739 C759 0.950 . S
H740 C761 0.950 . S
H741 C764 0.950 . S
H742 C765 0.950 . S
H743 C767 0.950 . S
H744 C768 0.950 . S
H745 C769 0.951 . S
H746 C771 0.951 . S
H747 C773 0.950 . S
H748 C774 0.950 . S
H749 C776 0.950 . S
H750 C779 0.950 . S
H751 C780 0.950 . S
H752 C782 0.950 . S
H753 C783 0.950 . S
C754 H736 0.951 . S
C754 C755 1.366 . S
C754 C756 1.388 . S
C755 C754 1.366 . S
C755 C759 1.385 . S
C756 H737 0.951 . S
C756 C754 1.388 . S
C756 C757 1.366 . S
C757 C756 1.366 . S
C757 C758 1.414 . S
C757 C760 1.499 . S
C758 H738 0.950 . S
C758 C757 1.414 . S
C758 C759 1.374 . S
C759 H739 0.950 . S
C759 C755 1.385 . S
C759 C758 1.374 . S
C760 C757 1.499 . S
C760 C761 1.373 . S
C760 C762 1.389 . S
C761 H740 0.950 . S
C761 C760 1.373 . S
C761 C777 1.377 . S
C762 C760 1.389 . S
C762 C763 1.524 . S
C762 C776 1.377 . S
C763 C762 1.524 . S
C763 C764 1.397 . S
C763 C768 1.363 . S
C764 H741 0.950 . S
C764 C763 1.397 . S
C764 C765 1.334 . S
C765 H742 0.950 . S
C765 C764 1.334 . S
C765 C766 1.287 . S
C766 C765 1.287 . S
C766 C767 1.524 . S
C766 H785 0.913 . S
C767 H743 0.950 . S
C767 C766 1.524 . S
C767 C768 1.415 . S
C768 H744 0.950 . S
C768 C763 1.363 . S
C768 C767 1.415 . S
C769 H745 0.951 . S
C769 C770 1.366 . S
C769 C771 1.388 . S
C770 C769 1.366 . S
C770 C774 1.385 . S
C771 H746 0.951 . S
C771 C769 1.388 . S
C771 C772 1.366 . S
C772 C771 1.366 . S
C772 C773 1.414 . S
C772 C775 1.499 . S
C773 H747 0.950 . S
C773 C772 1.414 . S
C773 C774 1.374 . S
C774 H748 0.950 . S
C774 C770 1.385 . S
C774 C773 1.374 . S
C775 C772 1.499 . S
C775 C776 1.373 . S
C775 C777 1.389 . S
C776 H749 0.950 . S
C776 C762 1.377 . S
C776 C775 1.373 . S
C777 C761 1.377 . S
C777 C775 1.389 . S
C777 C778 1.524 . S
C778 C777 1.524 . S
C778 C779 1.397 . S
C778 C783 1.363 . S
C779 H750 0.950 . S
C779 C778 1.397 . S
C779 C780 1.334 . S
C780 H751 0.950 . S
C780 C779 1.334 . S
C780 C781 1.287 . S
C781 C780 1.287 . S
C781 C782 1.524 . S
C781 H784 0.999 . S
C782 H752 0.950 . S
C782 C781 1.524 . S
C782 C783 1.415 . S
C783 H753 0.950 . S
C783 C778 1.363 . S
C783 C782 1.415 . S
H784 C781 0.999 . S
H785 C766 0.913 . S
H786 C804 0.951 . S
H787 C806 0.951 . S
H788 C808 0.950 . S
H789 C809 0.950 . S
H790 C811 0.950 . S
H791 C814 0.950 . S
H792 C815 0.950 . S
H793 C817 0.950 . S
H794 C818 0.950 . S
H795 C819 0.951 . S
H796 C821 0.951 . S
H797 C823 0.950 . S
H798 C824 0.950 . S
H799 C826 0.950 . S
H800 C829 0.950 . S
H801 C830 0.950 . S
H802 C832 0.950 . S
H803 C833 0.950 . S
C804 H786 0.951 . S
C804 C805 1.366 . S
C804 C806 1.388 . S
C805 C804 1.366 . S
C805 C809 1.385 . S
C806 H787 0.951 . S
C806 C804 1.388 . S
C806 C807 1.366 . S
C807 C806 1.366 . S
C807 C808 1.414 . S
C807 C810 1.499 . S
C808 H788 0.950 . S
C808 C807 1.414 . S
C808 C809 1.374 . S
C809 H789 0.950 . S
C809 C805 1.385 . S
C809 C808 1.374 . S
C810 C807 1.499 . S
C810 C811 1.373 . S
C810 C812 1.389 . S
C811 H790 0.950 . S
C811 C810 1.373 . S
C811 C827 1.377 . S
C812 C810 1.389 . S
C812 C813 1.524 . S
C812 C826 1.377 . S
C813 C812 1.524 . S
C813 C814 1.397 . S
C813 C818 1.363 . S
C814 H791 0.950 . S
C814 C813 1.397 . S
C814 C815 1.334 . S
C815 H792 0.950 . S
C815 C814 1.334 . S
C815 C816 1.287 . S
C816 C815 1.287 . S
C816 C817 1.524 . S
C816 H835 0.913 . S
C817 H793 0.950 . S
C817 C816 1.524 . S
C817 C818 1.415 . S
C818 H794 0.950 . S
C818 C813 1.363 . S
C818 C817 1.415 . S
C819 H795 0.951 . S
C819 C820 1.366 . S
C819 C821 1.388 . S
C820 C819 1.366 . S
C820 C824 1.385 . S
C821 H796 0.951 . S
C821 C819 1.388 . S
C821 C822 1.366 . S
C822 C821 1.366 . S
C822 C823 1.414 . S
C822 C825 1.499 . S
C823 H797 0.950 . S
C823 C822 1.414 . S
C823 C824 1.374 . S
C824 H798 0.950 . S
C824 C820 1.385 . S
C824 C823 1.374 . S
C825 C822 1.499 . S
C825 C826 1.373 . S
C825 C827 1.389 . S
C826 H799 0.950 . S
C826 C812 1.377 . S
C826 C825 1.373 . S
C827 C811 1.377 . S
C827 C825 1.389 . S
C827 C828 1.524 . S
C828 C827 1.524 . S
C828 C829 1.397 . S
C828 C833 1.363 . S
C829 H800 0.950 . S
C829 C828 1.397 . S
C829 C830 1.334 . S
C830 H801 0.950 . S
C830 C829 1.334 . S
C830 C831 1.287 . S
C831 C830 1.287 . S
C831 C832 1.524 . S
C831 H834 0.999 . S
C832 H802 0.950 . S
C832 C831 1.524 . S
C832 C833 1.415 . S
C833 H803 0.950 . S
C833 C828 1.363 . S
C833 C832 1.415 . S
H834 C831 0.999 . S
H835 C816 0.913 . S
H836 C854 0.951 . S
H837 C856 0.951 . S
H838 C858 0.950 . S
H839 C859 0.950 . S
H840 C861 0.950 . S
H841 C864 0.950 . S
H842 C865 0.950 . S
H843 C867 0.950 . S
H844 C868 0.950 . S
H845 C869 0.951 . S
H846 C871 0.951 . S
H847 C873 0.950 . S
H848 C874 0.950 . S
H849 C876 0.950 . S
H850 C879 0.950 . S
H851 C880 0.950 . S
H852 C882 0.950 . S
H853 C883 0.950 . S
C854 H836 0.951 . S
C854 C855 1.366 . S
C854 C856 1.388 . S
C855 C854 1.366 . S
C855 C859 1.385 . S
C856 H837 0.951 . S
C856 C854 1.388 . S
C856 C857 1.366 . S
C857 C856 1.366 . S
C857 C858 1.414 . S
C857 C860 1.499 . S
C858 H838 0.950 . S
C858 C857 1.414 . S
C858 C859 1.374 . S
C859 H839 0.950 . S
C859 C855 1.385 . S
C859 C858 1.374 . S
C860 C857 1.499 . S
C860 C861 1.373 . S
C860 C862 1.389 . S
C861 H840 0.950 . S
C861 C860 1.373 . S
C861 C877 1.377 . S
C862 C860 1.389 . S
C862 C863 1.524 . S
C862 C876 1.377 . S
C863 C862 1.524 . S
C863 C864 1.397 . S
C863 C868 1.363 . S
C864 H841 0.950 . S
C864 C863 1.397 . S
C864 C865 1.334 . S
C865 H842 0.950 . S
C865 C864 1.334 . S
C865 C866 1.287 . S
C866 C865 1.287 . S
C866 C867 1.524 . S
C866 H885 0.913 . S
C867 H843 0.950 . S
C867 C866 1.524 . S
C867 C868 1.415 . S
C868 H844 0.950 . S
C868 C863 1.363 . S
C868 C867 1.415 . S
C869 H845 0.951 . S
C869 C870 1.366 . S
C869 C871 1.388 . S
C870 C869 1.366 . S
C870 C874 1.385 . S
C871 H846 0.951 . S
C871 C869 1.388 . S
C871 C872 1.366 . S
C872 C871 1.366 . S
C872 C873 1.414 . S
C872 C875 1.499 . S
C873 H847 0.950 . S
C873 C872 1.414 . S
C873 C874 1.374 . S
C874 H848 0.950 . S
C874 C870 1.385 . S
C874 C873 1.374 . S
C875 C872 1.499 . S
C875 C876 1.373 . S
C875 C877 1.389 . S
C876 H849 0.950 . S
C876 C862 1.377 . S
C876 C875 1.373 . S
C877 C861 1.377 . S
C877 C875 1.389 . S
C877 C878 1.524 . S
C878 C877 1.524 . S
C878 C879 1.397 . S
C878 C883 1.363 . S
C879 H850 0.950 . S
C879 C878 1.397 . S
C879 C880 1.334 . S
C880 H851 0.950 . S
C880 C879 1.334 . S
C880 C881 1.287 . S
C881 C880 1.287 . S
C881 C882 1.524 . S
C881 H884 0.999 . S
C882 H852 0.950 . S
C882 C881 1.524 . S
C882 C883 1.415 . S
C883 H853 0.950 . S
C883 C878 1.363 . S
C883 C882 1.415 . S
H884 C881 0.999 . S
H885 C866 0.913 . S
H886 C904 0.951 . S
H887 C906 0.951 . S
H888 C908 0.950 . S
H889 C909 0.950 . S
H890 C911 0.950 . S
H891 C914 0.950 . S
H892 C915 0.950 . S
H893 C917 0.950 . S
H894 C918 0.950 . S
H895 C919 0.951 . S
H896 C921 0.951 . S
H897 C923 0.950 . S
H898 C924 0.950 . S
H899 C926 0.950 . S
H900 C929 0.950 . S
H901 C930 0.950 . S
H902 C932 0.950 . S
H903 C933 0.950 . S
C904 H886 0.951 . S
C904 C905 1.366 . S
C904 C906 1.388 . S
C905 C904 1.366 . S
C905 C909 1.385 . S
C906 H887 0.951 . S
C906 C904 1.388 . S
C906 C907 1.366 . S
C907 C906 1.366 . S
C907 C908 1.414 . S
C907 C910 1.499 . S
C908 H888 0.950 . S
C908 C907 1.414 . S
C908 C909 1.374 . S
C909 H889 0.950 . S
C909 C905 1.385 . S
C909 C908 1.374 . S
C910 C907 1.499 . S
C910 C911 1.373 . S
C910 C912 1.389 . S
C911 H890 0.950 . S
C911 C910 1.373 . S
C911 C927 1.377 . S
C912 C910 1.389 . S
C912 C913 1.524 . S
C912 C926 1.377 . S
C913 C912 1.524 . S
C913 C914 1.397 . S
C913 C918 1.363 . S
C914 H891 0.950 . S
C914 C913 1.397 . S
C914 C915 1.334 . S
C915 H892 0.950 . S
C915 C914 1.334 . S
C915 C916 1.287 . S
C916 C915 1.287 . S
C916 C917 1.524 . S
C916 H935 0.913 . S
C917 H893 0.950 . S
C917 C916 1.524 . S
C917 C918 1.415 . S
C918 H894 0.950 . S
C918 C913 1.363 . S
C918 C917 1.415 . S
C919 H895 0.951 . S
C919 C920 1.366 . S
C919 C921 1.388 . S
C920 C919 1.366 . S
C920 C924 1.385 . S
C921 H896 0.951 . S
C921 C919 1.388 . S
C921 C922 1.366 . S
C922 C921 1.366 . S
C922 C923 1.414 . S
C922 C925 1.499 . S
C923 H897 0.950 . S
C923 C922 1.414 . S
C923 C924 1.374 . S
C924 H898 0.950 . S
C924 C920 1.385 . S
C924 C923 1.374 . S
C925 C922 1.499 . S
C925 C926 1.373 . S
C925 C927 1.389 . S
C926 H899 0.950 . S
C926 C912 1.377 . S
C926 C925 1.373 . S
C927 C911 1.377 . S
C927 C925 1.389 . S
C927 C928 1.524 . S
C928 C927 1.524 . S
C928 C929 1.397 . S
C928 C933 1.363 . S
C929 H900 0.950 . S
C929 C928 1.397 . S
C929 C930 1.334 . S
C930 H901 0.950 . S
C930 C929 1.334 . S
C930 C931 1.287 . S
C931 C930 1.287 . S
C931 C932 1.524 . S
C931 H934 0.999 . S
C932 H902 0.950 . S
C932 C931 1.524 . S
C932 C933 1.415 . S
C933 H903 0.950 . S
C933 C928 1.363 . S
C933 C932 1.415 . S
H934 C931 0.999 . S
H935 C916 0.913 . S
H936 C954 0.951 . S
H937 C956 0.951 . S
H938 C958 0.950 . S
H939 C959 0.950 . S
H940 C961 0.950 . S
H941 C964 0.950 . S
H942 C965 0.950 . S
H943 C967 0.950 . S
H944 C968 0.950 . S
H945 C969 0.951 . S
H946 C971 0.951 . S
H947 C973 0.950 . S
H948 C974 0.950 . S
H949 C976 0.950 . S
H950 C979 0.950 . S
H951 C980 0.950 . S
H952 C982 0.950 . S
H953 C983 0.950 . S
C954 H936 0.951 . S
C954 C955 1.366 . S
C954 C956 1.388 . S
C955 C954 1.366 . S
C955 C959 1.385 . S
C956 H937 0.951 . S
C956 C954 1.388 . S
C956 C957 1.366 . S
C957 C956 1.366 . S
C957 C958 1.414 . S
C957 C960 1.499 . S
C958 H938 0.950 . S
C958 C957 1.414 . S
C958 C959 1.374 . S
C959 H939 0.950 . S
C959 C955 1.385 . S
C959 C958 1.374 . S
C960 C957 1.499 . S
C960 C961 1.373 . S
C960 C962 1.389 . S
C961 H940 0.950 . S
C961 C960 1.373 . S
C961 C977 1.377 . S
C962 C960 1.389 . S
C962 C963 1.524 . S
C962 C976 1.377 . S
C963 C962 1.524 . S
C963 C964 1.397 . S
C963 C968 1.363 . S
C964 H941 0.950 . S
C964 C963 1.397 . S
C964 C965 1.334 . S
C965 H942 0.950 . S
C965 C964 1.334 . S
C965 C966 1.287 . S
C966 C965 1.287 . S
C966 C967 1.524 . S
C966 H985 0.913 . S
C967 H943 0.950 . S
C967 C966 1.524 . S
C967 C968 1.415 . S
C968 H944 0.950 . S
C968 C963 1.363 . S
C968 C967 1.415 . S
C969 H945 0.951 . S
C969 C970 1.366 . S
C969 C971 1.388 . S
C970 C969 1.366 . S
C970 C974 1.385 . S
C971 H946 0.951 . S
C971 C969 1.388 . S
C971 C972 1.366 . S
C972 C971 1.366 . S
C972 C973 1.414 . S
C972 C975 1.499 . S
C973 H947 0.950 . S
C973 C972 1.414 . S
C973 C974 1.374 . S
C974 H948 0.950 . S
C974 C970 1.385 . S
C974 C973 1.374 . S
C975 C972 1.499 . S
C975 C976 1.373 . S
C975 C977 1.389 . S
C976 H949 0.950 . S
C976 C962 1.377 . S
C976 C975 1.373 . S
C977 C961 1.377 . S
C977 C975 1.389 . S
C977 C978 1.524 . S
C978 C977 1.524 . S
C978 C979 1.397 . S
C978 C983 1.363 . S
C979 H950 0.950 . S
C979 C978 1.397 . S
C979 C980 1.334 . S
C980 H951 0.950 . S
C980 C979 1.334 . S
C980 C981 1.287 . S
C981 C980 1.287 . S
C981 C982 1.524 . S
C981 H984 0.999 . S
C982 H952 0.950 . S
C982 C981 1.524 . S
C982 C983 1.415 . S
C983 H953 0.950 . S
C983 C978 1.363 . S
C983 C982 1.415 . S
H984 C981 0.999 . S
H985 C966 0.913 . S
H986 C1004 0.951 . S
H987 C1006 0.951 . S
H988 C1008 0.950 . S
H989 C1009 0.950 . S
H990 C1011 0.950 . S
H991 C1014 0.950 . S
H992 C1015 0.950 . S
H993 C1017 0.950 . S
H994 C1018 0.950 . S
H995 C1019 0.951 . S
H996 C1021 0.951 . S
H997 C1023 0.950 . S
H998 C1024 0.950 . S
H999 C1026 0.950 . S
H1000 C1029 0.950 . S
H1001 C1030 0.950 . S
H1002 C1032 0.950 . S
H1003 C1033 0.950 . S
C1004 H986 0.951 . S
C1004 C1005 1.366 . S
C1004 C1006 1.388 . S
C1005 C1004 1.366 . S
C1005 C1009 1.385 . S
C1006 H987 0.951 . S
C1006 C1004 1.388 . S
C1006 C1007 1.366 . S
C1007 C1006 1.366 . S
C1007 C1008 1.414 . S
C1007 C1010 1.499 . S
C1008 H988 0.950 . S
C1008 C1007 1.414 . S
C1008 C1009 1.374 . S
C1009 H989 0.950 . S
C1009 C1005 1.385 . S
C1009 C1008 1.374 . S
C1010 C1007 1.499 . S
C1010 C1011 1.373 . S
C1010 C1012 1.389 . S
C1011 H990 0.950 . S
C1011 C1010 1.373 . S
C1011 C1027 1.377 . S
C1012 C1010 1.389 . S
C1012 C1013 1.524 . S
C1012 C1026 1.377 . S
C1013 C1012 1.524 . S
C1013 C1014 1.397 . S
C1013 C1018 1.363 . S
C1014 H991 0.950 . S
C1014 C1013 1.397 . S
C1014 C1015 1.334 . S
C1015 H992 0.950 . S
C1015 C1014 1.334 . S
C1015 C1016 1.287 . S
C1016 C1015 1.287 . S
C1016 C1017 1.524 . S
C1016 H1035 0.913 . S
C1017 H993 0.950 . S
C1017 C1016 1.524 . S
C1017 C1018 1.415 . S
C1018 H994 0.950 . S
C1018 C1013 1.363 . S
C1018 C1017 1.415 . S
C1019 H995 0.951 . S
C1019 C1020 1.366 . S
C1019 C1021 1.388 . S
C1020 C1019 1.366 . S
C1020 C1024 1.385 . S
C1021 H996 0.951 . S
C1021 C1019 1.388 . S
C1021 C1022 1.366 . S
C1022 C1021 1.366 . S
C1022 C1023 1.414 . S
C1022 C1025 1.499 . S
C1023 H997 0.950 . S
C1023 C1022 1.414 . S
C1023 C1024 1.374 . S
C1024 H998 0.950 . S
C1024 C1020 1.385 . S
C1024 C1023 1.374 . S
C1025 C1022 1.499 . S
C1025 C1026 1.373 . S
C1025 C1027 1.389 . S
C1026 H999 0.950 . S
C1026 C1012 1.377 . S
C1026 C1025 1.373 . S
C1027 C1011 1.377 . S
C1027 C1025 1.389 . S
C1027 C1028 1.524 . S
C1028 C1027 1.524 . S
C1028 C1029 1.397 . S
C1028 C1033 1.363 . S
C1029 H1000 0.950 . S
C1029 C1028 1.397 . S
C1029 C1030 1.334 . S
C1030 H1001 0.950 . S
C1030 C1029 1.334 . S
C1030 C1031 1.287 . S
C1031 C1030 1.287 . S
C1031 C1032 1.524 . S
C1031 H1034 0.999 . S
C1032 H1002 0.950 . S
C1032 C1031 1.524 . S
C1032 C1033 1.415 . S
C1033 H1003 0.950 . S
C1033 C1028 1.363 . S
C1033 C1032 1.415 . S
H1034 C1031 0.999 . S
H1035 C1016 0.913 . S
H1036 C1054 0.951 . S
H1037 C1056 0.951 . S
H1038 C1058 0.950 . S
H1039 C1059 0.950 . S
H1040 C1061 0.950 . S
H1041 C1064 0.950 . S
H1042 C1065 0.950 . S
H1043 C1067 0.950 . S
H1044 C1068 0.950 . S
H1045 C1069 0.951 . S
H1046 C1071 0.951 . S
H1047 C1073 0.950 . S
H1048 C1074 0.950 . S
H1049 C1076 0.950 . S
H1050 C1079 0.950 . S
H1051 C1080 0.950 . S
H1052 C1082 0.950 . S
H1053 C1083 0.950 . S
C1054 H1036 0.951 . S
C1054 C1055 1.366 . S
C1054 C1056 1.388 . S
C1055 C1054 1.366 . S
C1055 C1059 1.385 . S
C1056 H1037 0.951 . S
C1056 C1054 1.388 . S
C1056 C1057 1.366 . S
C1057 C1056 1.366 . S
C1057 C1058 1.414 . S
C1057 C1060 1.499 . S
C1058 H1038 0.950 . S
C1058 C1057 1.414 . S
C1058 C1059 1.374 . S
C1059 H1039 0.950 . S
C1059 C1055 1.385 . S
C1059 C1058 1.374 . S
C1060 C1057 1.499 . S
C1060 C1061 1.373 . S
C1060 C1062 1.389 . S
C1061 H1040 0.950 . S
C1061 C1060 1.373 . S
C1061 C1077 1.377 . S
C1062 C1060 1.389 . S
C1062 C1063 1.524 . S
C1062 C1076 1.377 . S
C1063 C1062 1.524 . S
C1063 C1064 1.397 . S
C1063 C1068 1.363 . S
C1064 H1041 0.950 . S
C1064 C1063 1.397 . S
C1064 C1065 1.334 . S
C1065 H1042 0.950 . S
C1065 C1064 1.334 . S
C1065 C1066 1.287 . S
C1066 C1065 1.287 . S
C1066 C1067 1.524 . S
C1066 H1085 0.913 . S
C1067 H1043 0.950 . S
C1067 C1066 1.524 . S
C1067 C1068 1.415 . S
C1068 H1044 0.950 . S
C1068 C1063 1.363 . S
C1068 C1067 1.415 . S
C1069 H1045 0.951 . S
C1069 C1070 1.366 . S
C1069 C1071 1.388 . S
C1070 C1069 1.366 . S
C1070 C1074 1.385 . S
C1071 H1046 0.951 . S
C1071 C1069 1.388 . S
C1071 C1072 1.366 . S
C1072 C1071 1.366 . S
C1072 C1073 1.414 . S
C1072 C1075 1.499 . S
C1073 H1047 0.950 . S
C1073 C1072 1.414 . S
C1073 C1074 1.374 . S
C1074 H1048 0.950 . S
C1074 C1070 1.385 . S
C1074 C1073 1.374 . S
C1075 C1072 1.499 . S
C1075 C1076 1.373 . S
C1075 C1077 1.389 . S
C1076 H1049 0.950 . S
C1076 C1062 1.377 . S
C1076 C1075 1.373 . S
C1077 C1061 1.377 . S
C1077 C1075 1.389 . S
C1077 C1078 1.524 . S
C1078 C1077 1.524 . S
C1078 C1079 1.397 . S
C1078 C1083 1.363 . S
C1079 H1050 0.950 . S
C1079 C1078 1.397 . S
C1079 C1080 1.334 . S
C1080 H1051 0.950 . S
C1080 C1079 1.334 . S
C1080 C1081 1.287 . S
C1081 C1080 1.287 . S
C1081 C1082 1.524 . S
C1081 H1084 0.999 . S
C1082 H1052 0.950 . S
C1082 C1081 1.524 . S
C1082 C1083 1.415 . S
C1083 H1053 0.950 . S
C1083 C1078 1.363 . S
C1083 C1082 1.415 . S
H1084 C1081 0.999 . S
H1085 C1066 0.913 . S
H1086 C1104 0.951 . S
H1087 C1106 0.951 . S
H1088 C1108 0.950 . S
H1089 C1109 0.950 . S
H1090 C1111 0.950 . S
H1091 C1114 0.950 . S
H1092 C1115 0.950 . S
H1093 C1117 0.950 . S
H1094 C1118 0.950 . S
H1095 C1119 0.951 . S
H1096 C1121 0.951 . S
H1097 C1123 0.950 . S
H1098 C1124 0.950 . S
H1099 C1126 0.950 . S
H1100 C1129 0.950 . S
H1101 C1130 0.950 . S
H1102 C1132 0.950 . S
H1103 C1133 0.950 . S
C1104 H1086 0.951 . S
C1104 C1105 1.366 . S
C1104 C1106 1.388 . S
C1105 C1104 1.366 . S
C1105 C1109 1.385 . S
C1106 H1087 0.951 . S
C1106 C1104 1.388 . S
C1106 C1107 1.366 . S
C1107 C1106 1.366 . S
C1107 C1108 1.414 . S
C1107 C1110 1.499 . S
C1108 H1088 0.950 . S
C1108 C1107 1.414 . S
C1108 C1109 1.374 . S
C1109 H1089 0.950 . S
C1109 C1105 1.385 . S
C1109 C1108 1.374 . S
C1110 C1107 1.499 . S
C1110 C1111 1.373 . S
C1110 C1112 1.389 . S
C1111 H1090 0.950 . S
C1111 C1110 1.373 . S
C1111 C1127 1.377 . S
C1112 C1110 1.389 . S
C1112 C1113 1.524 . S
C1112 C1126 1.377 . S
C1113 C1112 1.524 . S
C1113 C1114 1.397 . S
C1113 C1118 1.363 . S
C1114 H1091 0.950 . S
C1114 C1113 1.397 . S
C1114 C1115 1.334 . S
C1115 H1092 0.950 . S
C1115 C1114 1.334 . S
C1115 C1116 1.287 . S
C1116 C1115 1.287 . S
C1116 C1117 1.524 . S
C1116 H1135 0.913 . S
C1117 H1093 0.950 . S
C1117 C1116 1.524 . S
C1117 C1118 1.415 . S
C1118 H1094 0.950 . S
C1118 C1113 1.363 . S
C1118 C1117 1.415 . S
C1119 H1095 0.951 . S
C1119 C1120 1.366 . S
C1119 C1121 1.388 . S
C1120 C1119 1.366 . S
C1120 C1124 1.385 . S
C1121 H1096 0.951 . S
C1121 C1119 1.388 . S
C1121 C1122 1.366 . S
C1122 C1121 1.366 . S
C1122 C1123 1.414 . S
C1122 C1125 1.499 . S
C1123 H1097 0.950 . S
C1123 C1122 1.414 . S
C1123 C1124 1.374 . S
C1124 H1098 0.950 . S
C1124 C1120 1.385 . S
C1124 C1123 1.374 . S
C1125 C1122 1.499 . S
C1125 C1126 1.373 . S
C1125 C1127 1.389 . S
C1126 H1099 0.950 . S
C1126 C1112 1.377 . S
C1126 C1125 1.373 . S
C1127 C1111 1.377 . S
C1127 C1125 1.389 . S
C1127 C1128 1.524 . S
C1128 C1127 1.524 . S
C1128 C1129 1.397 . S
C1128 C1133 1.363 . S
C1129 H1100 0.950 . S
C1129 C1128 1.397 . S
C1129 C1130 1.334 . S
C1130 H1101 0.950 . S
C1130 C1129 1.334 . S
C1130 C1131 1.287 . S
C1131 C1130 1.287 . S
C1131 C1132 1.524 . S
C1131 H1134 0.999 . S
C1132 H1102 0.950 . S
C1132 C1131 1.524 . S
C1132 C1133 1.415 . S
C1133 H1103 0.950 . S
C1133 C1128 1.363 . S
C1133 C1132 1.415 . S
H1134 C1131 0.999 . S
H1135 C1116 0.913 . S
H1136 C1154 0.951 . S
H1137 C1156 0.951 . S
H1138 C1158 0.950 . S
H1139 C1159 0.950 . S
H1140 C1161 0.950 . S
H1141 C1164 0.950 . S
H1142 C1165 0.950 . S
H1143 C1167 0.950 . S
H1144 C1168 0.950 . S
H1145 C1169 0.951 . S
H1146 C1171 0.951 . S
H1147 C1173 0.950 . S
H1148 C1174 0.950 . S
H1149 C1176 0.950 . S
H1150 C1179 0.950 . S
H1151 C1180 0.950 . S
H1152 C1182 0.950 . S
H1153 C1183 0.950 . S
C1154 H1136 0.951 . S
C1154 C1155 1.366 . S
C1154 C1156 1.388 . S
C1155 C1154 1.366 . S
C1155 C1159 1.385 . S
C1156 H1137 0.951 . S
C1156 C1154 1.388 . S
C1156 C1157 1.366 . S
C1157 C1156 1.366 . S
C1157 C1158 1.414 . S
C1157 C1160 1.499 . S
C1158 H1138 0.950 . S
C1158 C1157 1.414 . S
C1158 C1159 1.374 . S
C1159 H1139 0.950 . S
C1159 C1155 1.385 . S
C1159 C1158 1.374 . S
C1160 C1157 1.499 . S
C1160 C1161 1.373 . S
C1160 C1162 1.389 . S
C1161 H1140 0.950 . S
C1161 C1160 1.373 . S
C1161 C1177 1.377 . S
C1162 C1160 1.389 . S
C1162 C1163 1.524 . S
C1162 C1176 1.377 . S
C1163 C1162 1.524 . S
C1163 C1164 1.397 . S
C1163 C1168 1.363 . S
C1164 H1141 0.950 . S
C1164 C1163 1.397 . S
C1164 C1165 1.334 . S
C1165 H1142 0.950 . S
C1165 C1164 1.334 . S
C1165 C1166 1.287 . S
C1166 C1165 1.287 . S
C1166 C1167 1.524 . S
C1166 H1185 0.913 . S
C1167 H1143 0.950 . S
C1167 C1166 1.524 . S
C1167 C1168 1.415 . S
C1168 H1144 0.950 . S
C1168 C1163 1.363 . S
C1168 C1167 1.415 . S
C1169 H1145 0.951 . S
C1169 C1170 1.366 . S
C1169 C1171 1.388 . S
C1170 C1169 1.366 . S
C1170 C1174 1.385 . S
C1171 H1146 0.951 . S
C1171 C1169 1.388 . S
C1171 C1172 1.366 . S
C1172 C1171 1.366 . S
C1172 C1173 1.414 . S
C1172 C1175 1.499 . S
C1173 H1147 0.950 . S
C1173 C1172 1.414 . S
C1173 C1174 1.374 . S
C1174 H1148 0.950 . S
C1174 C1170 1.385 . S
C1174 C1173 1.374 . S
C1175 C1172 1.499 . S
C1175 C1176 1.373 . S
C1175 C1177 1.389 . S
C1176 H1149 0.950 . S
C1176 C1162 1.377 . S
C1176 C1175 1.373 . S
C1177 C1161 1.377 . S
C1177 C1175 1.389 . S
C1177 C1178 1.524 . S
C1178 C1177 1.524 . S
C1178 C1179 1.397 . S
C1178 C1183 1.363 . S
C1179 H1150 0.950 . S
C1179 C1178 1.397 . S
C1179 C1180 1.334 . S
C1180 H1151 0.950 . S
C1180 C1179 1.334 . S
C1180 C1181 1.287 . S
C1181 C1180 1.287 . S
C1181 C1182 1.524 . S
C1181 H1184 0.999 . S
C1182 H1152 0.950 . S
C1182 C1181 1.524 . S
C1182 C1183 1.415 . S
C1183 H1153 0.950 . S
C1183 C1178 1.363 . S
C1183 C1182 1.415 . S
H1184 C1181 0.999 . S
H1185 C1166 0.913 . S
H1186 C1204 0.951 . S
H1187 C1206 0.951 . S
H1188 C1208 0.950 . S
H1189 C1209 0.950 . S
H1190 C1211 0.950 . S
H1191 C1214 0.950 . S
H1192 C1215 0.950 . S
H1193 C1217 0.950 . S
H1194 C1218 0.950 . S
H1195 C1219 0.951 . S
H1196 C1221 0.951 . S
H1197 C1223 0.950 . S
H1198 C1224 0.950 . S
H1199 C1226 0.950 . S
H1200 C1229 0.950 . S
H1201 C1230 0.950 . S
H1202 C1232 0.950 . S
H1203 C1233 0.950 . S
C1204 H1186 0.951 . S
C1204 C1205 1.366 . S
C1204 C1206 1.388 . S
C1205 C1204 1.366 . S
C1205 C1209 1.385 . S
C1206 H1187 0.951 . S
C1206 C1204 1.388 . S
C1206 C1207 1.366 . S
C1207 C1206 1.366 . S
C1207 C1208 1.414 . S
C1207 C1210 1.499 . S
C1208 H1188 0.950 . S
C1208 C1207 1.414 . S
C1208 C1209 1.374 . S
C1209 H1189 0.950 . S
C1209 C1205 1.385 . S
C1209 C1208 1.374 . S
C1210 C1207 1.499 . S
C1210 C1211 1.373 . S
C1210 C1212 1.389 . S
C1211 H1190 0.950 . S
C1211 C1210 1.373 . S
C1211 C1227 1.377 . S
C1212 C1210 1.389 . S
C1212 C1213 1.524 . S
C1212 C1226 1.377 . S
C1213 C1212 1.524 . S
C1213 C1214 1.397 . S
C1213 C1218 1.363 . S
C1214 H1191 0.950 . S
C1214 C1213 1.397 . S
C1214 C1215 1.334 . S
C1215 H1192 0.950 . S
C1215 C1214 1.334 . S
C1215 C1216 1.287 . S
C1216 C1215 1.287 . S
C1216 C1217 1.524 . S
C1216 H1235 0.913 . S
C1217 H1193 0.950 . S
C1217 C1216 1.524 . S
C1217 C1218 1.415 . S
C1218 H1194 0.950 . S
C1218 C1213 1.363 . S
C1218 C1217 1.415 . S
C1219 H1195 0.951 . S
C1219 C1220 1.366 . S
C1219 C1221 1.388 . S
C1220 C1219 1.366 . S
C1220 C1224 1.385 . S
C1221 H1196 0.951 . S
C1221 C1219 1.388 . S
C1221 C1222 1.366 . S
C1222 C1221 1.366 . S
C1222 C1223 1.414 . S
C1222 C1225 1.499 . S
C1223 H1197 0.950 . S
C1223 C1222 1.414 . S
C1223 C1224 1.374 . S
C1224 H1198 0.950 . S
C1224 C1220 1.385 . S
C1224 C1223 1.374 . S
C1225 C1222 1.499 . S
C1225 C1226 1.373 . S
C1225 C1227 1.389 . S
C1226 H1199 0.950 . S
C1226 C1212 1.377 . S
C1226 C1225 1.373 . S
C1227 C1211 1.377 . S
C1227 C1225 1.389 . S
C1227 C1228 1.524 . S
C1228 C1227 1.524 . S
C1228 C1229 1.397 . S
C1228 C1233 1.363 . S
C1229 H1200 0.950 . S
C1229 C1228 1.397 . S
C1229 C1230 1.334 . S
C1230 H1201 0.950 . S
C1230 C1229 1.334 . S
C1230 C1231 1.287 . S
C1231 C1230 1.287 . S
C1231 C1232 1.524 . S
C1231 H1234 0.999 . S
C1232 H1202 0.950 . S
C1232 C1231 1.524 . S
C1232 C1233 1.415 . S
C1233 H1203 0.950 . S
C1233 C1228 1.363 . S
C1233 C1232 1.415 . S
H1234 C1231 0.999 . S
H1235 C1216 0.913 . S
H1236 C1254 0.951 . S
H1237 C1256 0.951 . S
H1238 C1258 0.950 . S
H1239 C1259 0.950 . S
H1240 C1261 0.950 . S
H1241 C1264 0.950 . S
H1242 C1265 0.950 . S
H1243 C1267 0.950 . S
H1244 C1268 0.950 . S
H1245 C1269 0.951 . S
H1246 C1271 0.951 . S
H1247 C1273 0.950 . S
H1248 C1274 0.950 . S
H1249 C1276 0.950 . S
H1250 C1279 0.950 . S
H1251 C1280 0.950 . S
H1252 C1282 0.950 . S
H1253 C1283 0.950 . S
C1254 H1236 0.951 . S
C1254 C1255 1.366 . S
C1254 C1256 1.388 . S
C1255 C1254 1.366 . S
C1255 C1259 1.385 . S
C1256 H1237 0.951 . S
C1256 C1254 1.388 . S
C1256 C1257 1.366 . S
C1257 C1256 1.366 . S
C1257 C1258 1.414 . S
C1257 C1260 1.499 . S
C1258 H1238 0.950 . S
C1258 C1257 1.414 . S
C1258 C1259 1.374 . S
C1259 H1239 0.950 . S
C1259 C1255 1.385 . S
C1259 C1258 1.374 . S
C1260 C1257 1.499 . S
C1260 C1261 1.373 . S
C1260 C1262 1.389 . S
C1261 H1240 0.950 . S
C1261 C1260 1.373 . S
C1261 C1277 1.377 . S
C1262 C1260 1.389 . S
C1262 C1263 1.524 . S
C1262 C1276 1.377 . S
C1263 C1262 1.524 . S
C1263 C1264 1.397 . S
C1263 C1268 1.363 . S
C1264 H1241 0.950 . S
C1264 C1263 1.397 . S
C1264 C1265 1.334 . S
C1265 H1242 0.950 . S
C1265 C1264 1.334 . S
C1265 C1266 1.287 . S
C1266 C1265 1.287 . S
C1266 C1267 1.524 . S
C1266 H1285 0.913 . S
C1267 H1243 0.950 . S
C1267 C1266 1.524 . S
C1267 C1268 1.415 . S
C1268 H1244 0.950 . S
C1268 C1263 1.363 . S
C1268 C1267 1.415 . S
C1269 H1245 0.951 . S
C1269 C1270 1.366 . S
C1269 C1271 1.388 . S
C1270 C1269 1.366 . S
C1270 C1274 1.385 . S
C1271 H1246 0.951 . S
C1271 C1269 1.388 . S
C1271 C1272 1.366 . S
C1272 C1271 1.366 . S
C1272 C1273 1.414 . S
C1272 C1275 1.499 . S
C1273 H1247 0.950 . S
C1273 C1272 1.414 . S
C1273 C1274 1.374 . S
C1274 H1248 0.950 . S
C1274 C1270 1.385 . S
C1274 C1273 1.374 . S
C1275 C1272 1.499 . S
C1275 C1276 1.373 . S
C1275 C1277 1.389 . S
C1276 H1249 0.950 . S
C1276 C1262 1.377 . S
C1276 C1275 1.373 . S
C1277 C1261 1.377 . S
C1277 C1275 1.389 . S
C1277 C1278 1.524 . S
C1278 C1277 1.524 . S
C1278 C1279 1.397 . S
C1278 C1283 1.363 . S
C1279 H1250 0.950 . S
C1279 C1278 1.397 . S
C1279 C1280 1.334 . S
C1280 H1251 0.950 . S
C1280 C1279 1.334 . S
C1280 C1281 1.287 . S
C1281 C1280 1.287 . S
C1281 C1282 1.524 . S
C1281 H1284 0.999 . S
C1282 H1252 0.950 . S
C1282 C1281 1.524 . S
C1282 C1283 1.415 . S
C1283 H1253 0.950 . S
C1283 C1278 1.363 . S
C1283 C1282 1.415 . S
H1284 C1281 0.999 . S
H1285 C1266 0.913 . S
H1286 C1304 0.951 . S
H1287 C1306 0.951 . S
H1288 C1308 0.950 . S
H1289 C1309 0.950 . S
H1290 C1311 0.950 . S
H1291 C1314 0.950 . S
H1292 C1315 0.950 . S
H1293 C1317 0.950 . S
H1294 C1318 0.950 . S
H1295 C1319 0.951 . S
H1296 C1321 0.951 . S
H1297 C1323 0.950 . S
H1298 C1324 0.950 . S
H1299 C1326 0.950 . S
H1300 C1329 0.950 . S
H1301 C1330 0.950 . S
H1302 C1332 0.950 . S
H1303 C1333 0.950 . S
C1304 H1286 0.951 . S
C1304 C1305 1.366 . S
C1304 C1306 1.388 . S
C1305 C1304 1.366 . S
C1305 C1309 1.385 . S
C1306 H1287 0.951 . S
C1306 C1304 1.388 . S
C1306 C1307 1.366 . S
C1307 C1306 1.366 . S
C1307 C1308 1.414 . S
C1307 C1310 1.499 . S
C1308 H1288 0.950 . S
C1308 C1307 1.414 . S
C1308 C1309 1.374 . S
C1309 H1289 0.950 . S
C1309 C1305 1.385 . S
C1309 C1308 1.374 . S
C1310 C1307 1.499 . S
C1310 C1311 1.373 . S
C1310 C1312 1.389 . S
C1311 H1290 0.950 . S
C1311 C1310 1.373 . S
C1311 C1327 1.377 . S
C1312 C1310 1.389 . S
C1312 C1313 1.524 . S
C1312 C1326 1.377 . S
C1313 C1312 1.524 . S
C1313 C1314 1.397 . S
C1313 C1318 1.363 . S
C1314 H1291 0.950 . S
C1314 C1313 1.397 . S
C1314 C1315 1.334 . S
C1315 H1292 0.950 . S
C1315 C1314 1.334 . S
C1315 C1316 1.287 . S
C1316 C1315 1.287 . S
C1316 C1317 1.524 . S
C1316 H1335 0.913 . S
C1317 H1293 0.950 . S
C1317 C1316 1.524 . S
C1317 C1318 1.415 . S
C1318 H1294 0.950 . S
C1318 C1313 1.363 . S
C1318 C1317 1.415 . S
C1319 H1295 0.951 . S
C1319 C1320 1.366 . S
C1319 C1321 1.388 . S
C1320 C1319 1.366 . S
C1320 C1324 1.385 . S
C1321 H1296 0.951 . S
C1321 C1319 1.388 . S
C1321 C1322 1.366 . S
C1322 C1321 1.366 . S
C1322 C1323 1.414 . S
C1322 C1325 1.499 . S
C1323 H1297 0.950 . S
C1323 C1322 1.414 . S
C1323 C1324 1.374 . S
C1324 H1298 0.950 . S
C1324 C1320 1.385 . S
C1324 C1323 1.374 . S
C1325 C1322 1.499 . S
C1325 C1326 1.373 . S
C1325 C1327 1.389 . S
C1326 H1299 0.950 . S
C1326 C1312 1.377 . S
C1326 C1325 1.373 . S
C1327 C1311 1.377 . S
C1327 C1325 1.389 . S
C1327 C1328 1.524 . S
C1328 C1327 1.524 . S
C1328 C1329 1.397 . S
C1328 C1333 1.363 . S
C1329 H1300 0.950 . S
C1329 C1328 1.397 . S
C1329 C1330 1.334 . S
C1330 H1301 0.950 . S
C1330 C1329 1.334 . S
C1330 C1331 1.287 . S
C1331 C1330 1.287 . S
C1331 C1332 1.524 . S
C1331 H1334 0.999 . S
C1332 H1302 0.950 . S
C1332 C1331 1.524 . S
C1332 C1333 1.415 . S
C1333 H1303 0.950 . S
C1333 C1328 1.363 . S
C1333 C1332 1.415 . S
H1334 C1331 0.999 . S
H1335 C1316 0.913 . S
H1336 C1354 0.951 . S
H1337 C1356 0.951 . S
H1338 C1358 0.950 . S
H1339 C1359 0.950 . S
H1340 C1361 0.950 . S
H1341 C1364 0.950 . S
H1342 C1365 0.950 . S
H1343 C1367 0.950 . S
H1344 C1368 0.950 . S
H1345 C1369 0.951 . S
H1346 C1371 0.951 . S
H1347 C1373 0.950 . S
H1348 C1374 0.950 . S
H1349 C1376 0.950 . S
H1350 C1379 0.950 . S
H1351 C1380 0.950 . S
H1352 C1382 0.950 . S
H1353 C1383 0.950 . S
C1354 H1336 0.951 . S
C1354 C1355 1.366 . S
C1354 C1356 1.388 . S
C1355 C1354 1.366 . S
C1355 C1359 1.385 . S
C1356 H1337 0.951 . S
C1356 C1354 1.388 . S
C1356 C1357 1.366 . S
C1357 C1356 1.366 . S
C1357 C1358 1.414 . S
C1357 C1360 1.499 . S
C1358 H1338 0.950 . S
C1358 C1357 1.414 . S
C1358 C1359 1.374 . S
C1359 H1339 0.950 . S
C1359 C1355 1.385 . S
C1359 C1358 1.374 . S
C1360 C1357 1.499 . S
C1360 C1361 1.373 . S
C1360 C1362 1.389 . S
C1361 H1340 0.950 . S
C1361 C1360 1.373 . S
C1361 C1377 1.377 . S
C1362 C1360 1.389 . S
C1362 C1363 1.524 . S
C1362 C1376 1.377 . S
C1363 C1362 1.524 . S
C1363 C1364 1.397 . S
C1363 C1368 1.363 . S
C1364 H1341 0.950 . S
C1364 C1363 1.397 . S
C1364 C1365 1.334 . S
C1365 H1342 0.950 . S
C1365 C1364 1.334 . S
C1365 C1366 1.287 . S
C1366 C1365 1.287 . S
C1366 C1367 1.524 . S
C1366 H1385 0.913 . S
C1367 H1343 0.950 . S
C1367 C1366 1.524 . S
C1367 C1368 1.415 . S
C1368 H1344 0.950 . S
C1368 C1363 1.363 . S
C1368 C1367 1.415 . S
C1369 H1345 0.951 . S
C1369 C1370 1.366 . S
C1369 C1371 1.388 . S
C1370 C1369 1.366 . S
C1370 C1374 1.385 . S
C1371 H1346 0.951 . S
C1371 C1369 1.388 . S
C1371 C1372 1.366 . S
C1372 C1371 1.366 . S
C1372 C1373 1.414 . S
C1372 C1375 1.499 . S
C1373 H1347 0.950 . S
C1373 C1372 1.414 . S
C1373 C1374 1.374 . S
C1374 H1348 0.950 . S
C1374 C1370 1.385 . S
C1374 C1373 1.374 . S
C1375 C1372 1.499 . S
C1375 C1376 1.373 . S
C1375 C1377 1.389 . S
C1376 H1349 0.950 . S
C1376 C1362 1.377 . S
C1376 C1375 1.373 . S
C1377 C1361 1.377 . S
C1377 C1375 1.389 . S
C1377 C1378 1.524 . S
C1378 C1377 1.524 . S
C1378 C1379 1.397 . S
C1378 C1383 1.363 . S
C1379 H1350 0.950 . S
C1379 C1378 1.397 . S
C1379 C1380 1.334 . S
C1380 H1351 0.950 . S
C1380 C1379 1.334 . S
C1380 C1381 1.287 . S
C1381 C1380 1.287 . S
C1381 C1382 1.524 . S
C1381 H1384 0.999 . S
C1382 H1352 0.950 . S
C1382 C1381 1.524 . S
C1382 C1383 1.415 . S
C1383 H1353 0.950 . S
C1383 C1378 1.363 . S
C1383 C1382 1.415 . S
H1384 C1381 0.999 . S
H1385 C1366 0.913 . S
H1386 C1404 0.951 . S
H1387 C1406 0.951 . S
H1388 C1408 0.950 . S
H1389 C1409 0.950 . S
H1390 C1411 0.950 . S
H1391 C1414 0.950 . S
H1392 C1415 0.950 . S
H1393 C1417 0.950 . S
H1394 C1418 0.950 . S
H1395 C1419 0.951 . S
H1396 C1421 0.951 . S
H1397 C1423 0.950 . S
H1398 C1424 0.950 . S
H1399 C1426 0.950 . S
H1400 C1429 0.950 . S
H1401 C1430 0.950 . S
H1402 C1432 0.950 . S
H1403 C1433 0.950 . S
C1404 H1386 0.951 . S
C1404 C1405 1.366 . S
C1404 C1406 1.388 . S
C1405 C1404 1.366 . S
C1405 C1409 1.385 . S
C1406 H1387 0.951 . S
C1406 C1404 1.388 . S
C1406 C1407 1.366 . S
C1407 C1406 1.366 . S
C1407 C1408 1.414 . S
C1407 C1410 1.499 . S
C1408 H1388 0.950 . S
C1408 C1407 1.414 . S
C1408 C1409 1.374 . S
C1409 H1389 0.950 . S
C1409 C1405 1.385 . S
C1409 C1408 1.374 . S
C1410 C1407 1.499 . S
C1410 C1411 1.373 . S
C1410 C1412 1.389 . S
C1411 H1390 0.950 . S
C1411 C1410 1.373 . S
C1411 C1427 1.377 . S
C1412 C1410 1.389 . S
C1412 C1413 1.524 . S
C1412 C1426 1.377 . S
C1413 C1412 1.524 . S
C1413 C1414 1.397 . S
C1413 C1418 1.363 . S
C1414 H1391 0.950 . S
C1414 C1413 1.397 . S
C1414 C1415 1.334 . S
C1415 H1392 0.950 . S
C1415 C1414 1.334 . S
C1415 C1416 1.287 . S
C1416 C1415 1.287 . S
C1416 C1417 1.524 . S
C1416 H1435 0.913 . S
C1417 H1393 0.950 . S
C1417 C1416 1.524 . S
C1417 C1418 1.415 . S
C1418 H1394 0.950 . S
C1418 C1413 1.363 . S
C1418 C1417 1.415 . S
C1419 H1395 0.951 . S
C1419 C1420 1.366 . S
C1419 C1421 1.388 . S
C1420 C1419 1.366 . S
C1420 C1424 1.385 . S
C1421 H1396 0.951 . S
C1421 C1419 1.388 . S
C1421 C1422 1.366 . S
C1422 C1421 1.366 . S
C1422 C1423 1.414 . S
C1422 C1425 1.499 . S
C1423 H1397 0.950 . S
C1423 C1422 1.414 . S
C1423 C1424 1.374 . S
C1424 H1398 0.950 . S
C1424 C1420 1.385 . S
C1424 C1423 1.374 . S
C1425 C1422 1.499 . S
C1425 C1426 1.373 . S
C1425 C1427 1.389 . S
C1426 H1399 0.950 . S
C1426 C1412 1.377 . S
C1426 C1425 1.373 . S
C1427 C1411 1.377 . S
C1427 C1425 1.389 . S
C1427 C1428 1.524 . S
C1428 C1427 1.524 . S
C1428 C1429 1.397 . S
C1428 C1433 1.363 . S
C1429 H1400 0.950 . S
C1429 C1428 1.397 . S
C1429 C1430 1.334 . S
C1430 H1401 0.950 . S
C1430 C1429 1.334 . S
C1430 C1431 1.287 . S
C1431 C1430 1.287 . S
C1431 C1432 1.524 . S
C1431 H1434 0.999 . S
C1432 H1402 0.950 . S
C1432 C1431 1.524 . S
C1432 C1433 1.415 . S
C1433 H1403 0.950 . S
C1433 C1428 1.363 . S
C1433 C1432 1.415 . S
H1434 C1431 0.999 . S
H1435 C1416 0.913 . S
H1436 C1454 0.951 . S
H1437 C1456 0.951 . S
H1438 C1458 0.950 . S
H1439 C1459 0.950 . S
H1440 C1461 0.950 . S
H1441 C1464 0.950 . S
H1442 C1465 0.950 . S
H1443 C1467 0.950 . S
H1444 C1468 0.950 . S
H1445 C1469 0.951 . S
H1446 C1471 0.951 . S
H1447 C1473 0.950 . S
H1448 C1474 0.950 . S
H1449 C1476 0.950 . S
H1450 C1479 0.950 . S
H1451 C1480 0.950 . S
H1452 C1482 0.950 . S
H1453 C1483 0.950 . S
C1454 H1436 0.951 . S
C1454 C1455 1.366 . S
C1454 C1456 1.388 . S
C1455 C1454 1.366 . S
C1455 C1459 1.385 . S
C1456 H1437 0.951 . S
C1456 C1454 1.388 . S
C1456 C1457 1.366 . S
C1457 C1456 1.366 . S
C1457 C1458 1.414 . S
C1457 C1460 1.499 . S
C1458 H1438 0.950 . S
C1458 C1457 1.414 . S
C1458 C1459 1.374 . S
C1459 H1439 0.950 . S
C1459 C1455 1.385 . S
C1459 C1458 1.374 . S
C1460 C1457 1.499 . S
C1460 C1461 1.373 . S
C1460 C1462 1.389 . S
C1461 H1440 0.950 . S
C1461 C1460 1.373 . S
C1461 C1477 1.377 . S
C1462 C1460 1.389 . S
C1462 C1463 1.524 . S
C1462 C1476 1.377 . S
C1463 C1462 1.524 . S
C1463 C1464 1.397 . S
C1463 C1468 1.363 . S
C1464 H1441 0.950 . S
C1464 C1463 1.397 . S
C1464 C1465 1.334 . S
C1465 H1442 0.950 . S
C1465 C1464 1.334 . S
C1465 C1466 1.287 . S
C1466 C1465 1.287 . S
C1466 C1467 1.524 . S
C1466 H1485 0.913 . S
C1467 H1443 0.950 . S
C1467 C1466 1.524 . S
C1467 C1468 1.415 . S
C1468 H1444 0.950 . S
C1468 C1463 1.363 . S
C1468 C1467 1.415 . S
C1469 H1445 0.951 . S
C1469 C1470 1.366 . S
C1469 C1471 1.388 . S
C1470 C1469 1.366 . S
C1470 C1474 1.385 . S
C1471 H1446 0.951 . S
C1471 C1469 1.388 . S
C1471 C1472 1.366 . S
C1472 C1471 1.366 . S
C1472 C1473 1.414 . S
C1472 C1475 1.499 . S
C1473 H1447 0.950 . S
C1473 C1472 1.414 . S
C1473 C1474 1.374 . S
C1474 H1448 0.950 . S
C1474 C1470 1.385 . S
C1474 C1473 1.374 . S
C1475 C1472 1.499 . S
C1475 C1476 1.373 . S
C1475 C1477 1.389 . S
C1476 H1449 0.950 . S
C1476 C1462 1.377 . S
C1476 C1475 1.373 . S
C1477 C1461 1.377 . S
C1477 C1475 1.389 . S
C1477 C1478 1.524 . S
C1478 C1477 1.524 . S
C1478 C1479 1.397 . S
C1478 C1483 1.363 . S
C1479 H1450 0.950 . S
C1479 C1478 1.397 . S
C1479 C1480 1.334 . S
C1480 H1451 0.950 . S
C1480 C1479 1.334 . S
C1480 C1481 1.287 . S
C1481 C1480 1.287 . S
C1481 C1482 1.524 . S
C1481 H1484 0.999 . S
C1482 H1452 0.950 . S
C1482 C1481 1.524 . S
C1482 C1483 1.415 . S
C1483 H1453 0.950 . S
C1483 C1478 1.363 . S
C1483 C1482 1.415 . S
H1484 C1481 0.999 . S
H1485 C1466 0.913 . S
H1486 C1504 0.951 . S
H1487 C1506 0.951 . S
H1488 C1508 0.950 . S
H1489 C1509 0.950 . S
H1490 C1511 0.950 . S
H1491 C1514 0.950 . S
H1492 C1515 0.950 . S
H1493 C1517 0.950 . S
H1494 C1518 0.950 . S
H1495 C1519 0.951 . S
H1496 C1521 0.951 . S
H1497 C1523 0.950 . S
H1498 C1524 0.950 . S
H1499 C1526 0.950 . S
H1500 C1529 0.950 . S
H1501 C1530 0.950 . S
H1502 C1532 0.950 . S
H1503 C1533 0.950 . S
C1504 H1486 0.951 . S
C1504 C1505 1.366 . S
C1504 C1506 1.388 . S
C1505 C1504 1.366 . S
C1505 C1509 1.385 . S
C1506 H1487 0.951 . S
C1506 C1504 1.388 . S
C1506 C1507 1.366 . S
C1507 C1506 1.366 . S
C1507 C1508 1.414 . S
C1507 C1510 1.499 . S
C1508 H1488 0.950 . S
C1508 C1507 1.414 . S
C1508 C1509 1.374 . S
C1509 H1489 0.950 . S
C1509 C1505 1.385 . S
C1509 C1508 1.374 . S
C1510 C1507 1.499 . S
C1510 C1511 1.373 . S
C1510 C1512 1.389 . S
C1511 H1490 0.950 . S
C1511 C1510 1.373 . S
C1511 C1527 1.377 . S
C1512 C1510 1.389 . S
C1512 C1513 1.524 . S
C1512 C1526 1.377 . S
C1513 C1512 1.524 . S
C1513 C1514 1.397 . S
C1513 C1518 1.363 . S
C1514 H1491 0.950 . S
C1514 C1513 1.397 . S
C1514 C1515 1.334 . S
C1515 H1492 0.950 . S
C1515 C1514 1.334 . S
C1515 C1516 1.287 . S
C1516 C1515 1.287 . S
C1516 C1517 1.524 . S
C1516 H1535 0.913 . S
C1517 H1493 0.950 . S
C1517 C1516 1.524 . S
C1517 C1518 1.415 . S
C1518 H1494 0.950 . S
C1518 C1513 1.363 . S
C1518 C1517 1.415 . S
C1519 H1495 0.951 . S
C1519 C1520 1.366 . S
C1519 C1521 1.388 . S
C1520 C1519 1.366 . S
C1520 C1524 1.385 . S
C1521 H1496 0.951 . S
C1521 C1519 1.388 . S
C1521 C1522 1.366 . S
C1522 C1521 1.366 . S
C1522 C1523 1.414 . S
C1522 C1525 1.499 . S
C1523 H1497 0.950 . S
C1523 C1522 1.414 . S
C1523 C1524 1.374 . S
C1524 H1498 0.950 . S
C1524 C1520 1.385 . S
C1524 C1523 1.374 . S
C1525 C1522 1.499 . S
C1525 C1526 1.373 . S
C1525 C1527 1.389 . S
C1526 H1499 0.950 . S
C1526 C1512 1.377 . S
C1526 C1525 1.373 . S
C1527 C1511 1.377 . S
C1527 C1525 1.389 . S
C1527 C1528 1.524 . S
C1528 C1527 1.524 . S
C1528 C1529 1.397 . S
C1528 C1533 1.363 . S
C1529 H1500 0.950 . S
C1529 C1528 1.397 . S
C1529 C1530 1.334 . S
C1530 H1501 0.950 . S
C1530 C1529 1.334 . S
C1530 C1531 1.287 . S
C1531 C1530 1.287 . S
C1531 C1532 1.524 . S
C1531 H1534 0.999 . S
C1532 H1502 0.950 . S
C1532 C1531 1.524 . S
C1532 C1533 1.415 . S
C1533 H1503 0.950 . S
C1533 C1528 1.363 . S
C1533 C1532 1.415 . S
H1534 C1531 0.999 . S
H1535 C1516 0.913 . S
H1536 C1554 0.951 . S
H1537 C1556 0.951 . S
H1538 C1558 0.950 . S
H1539 C1559 0.950 . S
H1540 C1561 0.950 . S
H1541 C1564 0.950 . S
H1542 C1565 0.950 . S
H1543 C1567 0.950 . S
H1544 C1568 0.950 . S
H1545 C1569 0.951 . S
H1546 C1571 0.951 . S
H1547 C1573 0.950 . S
H1548 C1574 0.950 . S
H1549 C1576 0.950 . S
H1550 C1579 0.950 . S
H1551 C1580 0.950 . S
H1552 C1582 0.950 . S
H1553 C1583 0.950 . S
C1554 H1536 0.951 . S
C1554 C1555 1.366 . S
C1554 C1556 1.388 . S
C1555 C1554 1.366 . S
C1555 C1559 1.385 . S
C1556 H1537 0.951 . S
C1556 C1554 1.388 . S
C1556 C1557 1.366 . S
C1557 C1556 1.366 . S
C1557 C1558 1.414 . S
C1557 C1560 1.499 . S
C1558 H1538 0.950 . S
C1558 C1557 1.414 . S
C1558 C1559 1.374 . S
C1559 H1539 0.950 . S
C1559 C1555 1.385 . S
C1559 C1558 1.374 . S
C1560 C1557 1.499 . S
C1560 C1561 1.373 . S
C1560 C1562 1.389 . S
C1561 H1540 0.950 . S
C1561 C1560 1.373 . S
C1561 C1577 1.377 . S
C1562 C1560 1.389 . S
C1562 C1563 1.524 . S
C1562 C1576 1.377 . S
C1563 C1562 1.524 . S
C1563 C1564 1.397 . S
C1563 C1568 1.363 . S
C1564 H1541 0.950 . S
C1564 C1563 1.397 . S
C1564 C1565 1.334 . S
C1565 H1542 0.950 . S
C1565 C1564 1.334 . S
C1565 C1566 1.287 . S
C1566 C1565 1.287 . S
C1566 C1567 1.524 . S
C1566 H1585 0.913 . S
C1567 H1543 0.950 . S
C1567 C1566 1.524 . S
C1567 C1568 1.415 . S
C1568 H1544 0.950 . S
C1568 C1563 1.363 . S
C1568 C1567 1.415 . S
C1569 H1545 0.951 . S
C1569 C1570 1.366 . S
C1569 C1571 1.388 . S
C1570 C1569 1.366 . S
C1570 C1574 1.385 . S
C1571 H1546 0.951 . S
C1571 C1569 1.388 . S
C1571 C1572 1.366 . S
C1572 C1571 1.366 . S
C1572 C1573 1.414 . S
C1572 C1575 1.499 . S
C1573 H1547 0.950 . S
C1573 C1572 1.414 . S
C1573 C1574 1.374 . S
C1574 H1548 0.950 . S
C1574 C1570 1.385 . S
C1574 C1573 1.374 . S
C1575 C1572 1.499 . S
C1575 C1576 1.373 . S
C1575 C1577 1.389 . S
C1576 H1549 0.950 . S
C1576 C1562 1.377 . S
C1576 C1575 1.373 . S
C1577 C1561 1.377 . S
C1577 C1575 1.389 . S
C1577 C1578 1.524 . S
C1578 C1577 1.524 . S
C1578 C1579 1.397 . S
C1578 C1583 1.363 . S
C1579 H1550 0.950 . S
C1579 C1578 1.397 . S
C1579 C1580 1.334 . S
C1580 H1551 0.950 . S
C1580 C1579 1.334 . S
C1580 C1581 1.287 . S
C1581 C1580 1.287 . S
C1581 C1582 1.524 . S
C1581 H1584 0.999 . S
C1582 H1552 0.950 . S
C1582 C1581 1.524 . S
C1582 C1583 1.415 . S
C1583 H1553 0.950 . S
C1583 C1578 1.363 . S
C1583 C1582 1.415 . S
H1584 C1581 0.999 . S
H1585 C1566 0.913 . S
H1586 C1604 0.951 . S
H1587 C1606 0.951 . S
H1588 C1608 0.950 . S
H1589 C1609 0.950 . S
H1590 C1611 0.950 . S
H1591 C1614 0.950 . S
H1592 C1615 0.950 . S
H1593 C1617 0.950 . S
H1594 C1618 0.950 . S
H1595 C1619 0.951 . S
H1596 C1621 0.951 . S
H1597 C1623 0.950 . S
H1598 C1624 0.950 . S
H1599 C1626 0.950 . S
H1600 C1629 0.950 . S
H1601 C1630 0.950 . S
H1602 C1632 0.950 . S
H1603 C1633 0.950 . S
C1604 H1586 0.951 . S
C1604 C1605 1.366 . S
C1604 C1606 1.388 . S
C1605 C1604 1.366 . S
C1605 C1609 1.385 . S
C1606 H1587 0.951 . S
C1606 C1604 1.388 . S
C1606 C1607 1.366 . S
C1607 C1606 1.366 . S
C1607 C1608 1.414 . S
C1607 C1610 1.499 . S
C1608 H1588 0.950 . S
C1608 C1607 1.414 . S
C1608 C1609 1.374 . S
C1609 H1589 0.950 . S
C1609 C1605 1.385 . S
C1609 C1608 1.374 . S
C1610 C1607 1.499 . S
C1610 C1611 1.373 . S
C1610 C1612 1.389 . S
C1611 H1590 0.950 . S
C1611 C1610 1.373 . S
C1611 C1627 1.377 . S
C1612 C1610 1.389 . S
C1612 C1613 1.524 . S
C1612 C1626 1.377 . S
C1613 C1612 1.524 . S
C1613 C1614 1.397 . S
C1613 C1618 1.363 . S
C1614 H1591 0.950 . S
C1614 C1613 1.397 . S
C1614 C1615 1.334 . S
C1615 H1592 0.950 . S
C1615 C1614 1.334 . S
C1615 C1616 1.287 . S
C1616 C1615 1.287 . S
C1616 C1617 1.524 . S
C1616 H1635 0.913 . S
C1617 H1593 0.950 . S
C1617 C1616 1.524 . S
C1617 C1618 1.415 . S
C1618 H1594 0.950 . S
C1618 C1613 1.363 . S
C1618 C1617 1.415 . S
C1619 H1595 0.951 . S
C1619 C1620 1.366 . S
C1619 C1621 1.388 . S
C1620 C1619 1.366 . S
C1620 C1624 1.385 . S
C1621 H1596 0.951 . S
C1621 C1619 1.388 . S
C1621 C1622 1.366 . S
C1622 C1621 1.366 . S
C1622 C1623 1.414 . S
C1622 C1625 1.499 . S
C1623 H1597 0.950 . S
C1623 C1622 1.414 . S
C1623 C1624 1.374 . S
C1624 H1598 0.950 . S
C1624 C1620 1.385 . S
C1624 C1623 1.374 . S
C1625 C1622 1.499 . S
C1625 C1626 1.373 . S
C1625 C1627 1.389 . S
C1626 H1599 0.950 . S
C1626 C1612 1.377 . S
C1626 C1625 1.373 . S
C1627 C1611 1.377 . S
C1627 C1625 1.389 . S
C1627 C1628 1.524 . S
C1628 C1627 1.524 . S
C1628 C1629 1.397 . S
C1628 C1633 1.363 . S
C1629 H1600 0.950 . S
C1629 C1628 1.397 . S
C1629 C1630 1.334 . S
C1630 H1601 0.950 . S
C1630 C1629 1.334 . S
C1630 C1631 1.287 . S
C1631 C1630 1.287 . S
C1631 C1632 1.524 . S
C1631 H1634 0.999 . S
C1632 H1602 0.950 . S
C1632 C1631 1.524 . S
C1632 C1633 1.415 . S
C1633 H1603 0.950 . S
C1633 C1628 1.363 . S
C1633 C1632 1.415 . S
H1634 C1631 0.999 . S
H1635 C1616 0.913 . S
H1636 C1654 0.951 . S
H1637 C1656 0.951 . S
H1638 C1658 0.950 . S
H1639 C1659 0.950 . S
H1640 C1661 0.950 . S
H1641 C1664 0.950 . S
H1642 C1665 0.950 . S
H1643 C1667 0.950 . S
H1644 C1668 0.950 . S
H1645 C1669 0.951 . S
H1646 C1671 0.951 . S
H1647 C1673 0.950 . S
H1648 C1674 0.950 . S
H1649 C1676 0.950 . S
H1650 C1679 0.950 . S
H1651 C1680 0.950 . S
H1652 C1682 0.950 . S
H1653 C1683 0.950 . S
C1654 H1636 0.951 . S
C1654 C1655 1.366 . S
C1654 C1656 1.388 . S
C1655 C1654 1.366 . S
C1655 C1659 1.385 . S
C1656 H1637 0.951 . S
C1656 C1654 1.388 . S
C1656 C1657 1.366 . S
C1657 C1656 1.366 . S
C1657 C1658 1.414 . S
C1657 C1660 1.499 . S
C1658 H1638 0.950 . S
C1658 C1657 1.414 . S
C1658 C1659 1.374 . S
C1659 H1639 0.950 . S
C1659 C1655 1.385 . S
C1659 C1658 1.374 . S
C1660 C1657 1.499 . S
C1660 C1661 1.373 . S
C1660 C1662 1.389 . S
C1661 H1640 0.950 . S
C1661 C1660 1.373 . S
C1661 C1677 1.377 . S
C1662 C1660 1.389 . S
C1662 C1663 1.524 . S
C1662 C1676 1.377 . S
C1663 C1662 1.524 . S
C1663 C1664 1.397 . S
C1663 C1668 1.363 . S
C1664 H1641 0.950 . S
C1664 C1663 1.397 . S
C1664 C1665 1.334 . S
C1665 H1642 0.950 . S
C1665 C1664 1.334 . S
C1665 C1666 1.287 . S
C1666 C1665 1.287 . S
C1666 C1667 1.524 . S
C1666 H1685 0.913 . S
C1667 H1643 0.950 . S
C1667 C1666 1.524 . S
C1667 C1668 1.415 . S
C1668 H1644 0.950 . S
C1668 C1663 1.363 . S
C1668 C1667 1.415 . S
C1669 H1645 0.951 . S
C1669 C1670 1.366 . S
C1669 C1671 1.388 . S
C1670 C1669 1.366 . S
C1670 C1674 1.385 . S
C1671 H1646 0.951 . S
C1671 C1669 1.388 . S
C1671 C1672 1.366 . S
C1672 C1671 1.366 . S
C1672 C1673 1.414 . S
C1672 C1675 1.499 . S
C1673 H1647 0.950 . S
C1673 C1672 1.414 . S
C1673 C1674 1.374 . S
C1674 H1648 0.950 . S
C1674 C1670 1.385 . S
C1674 C1673 1.374 . S
C1675 C1672 1.499 . S
C1675 C1676 1.373 . S
C1675 C1677 1.389 . S
C1676 H1649 0.950 . S
C1676 C1662 1.377 . S
C1676 C1675 1.373 . S
C1677 C1661 1.377 . S
C1677 C1675 1.389 . S
C1677 C1678 1.524 . S
C1678 C1677 1.524 . S
C1678 C1679 1.397 . S
C1678 C1683 1.363 . S
C1679 H1650 0.950 . S
C1679 C1678 1.397 . S
C1679 C1680 1.334 . S
C1680 H1651 0.950 . S
C1680 C1679 1.334 . S
C1680 C1681 1.287 . S
C1681 C1680 1.287 . S
C1681 C1682 1.524 . S
C1681 H1684 0.999 . S
C1682 H1652 0.950 . S
C1682 C1681 1.524 . S
C1682 C1683 1.415 . S
C1683 H1653 0.950 . S
C1683 C1678 1.363 . S
C1683 C1682 1.415 . S
H1684 C1681 0.999 . S
H1685 C1666 0.913 . S
H1686 C1704 0.951 . S
H1687 C1706 0.951 . S
H1688 C1708 0.950 . S
H1689 C1709 0.950 . S
H1690 C1711 0.950 . S
H1691 C1714 0.950 . S
H1692 C1715 0.950 . S
H1693 C1717 0.950 . S
H1694 C1718 0.950 . S
H1695 C1719 0.951 . S
H1696 C1721 0.951 . S
H1697 C1723 0.950 . S
H1698 C1724 0.950 . S
H1699 C1726 0.950 . S
H1700 C1729 0.950 . S
H1701 C1730 0.950 . S
H1702 C1732 0.950 . S
H1703 C1733 0.950 . S
C1704 H1686 0.951 . S
C1704 C1705 1.366 . S
C1704 C1706 1.388 . S
C1705 C1704 1.366 . S
C1705 C1709 1.385 . S
C1706 H1687 0.951 . S
C1706 C1704 1.388 . S
C1706 C1707 1.366 . S
C1707 C1706 1.366 . S
C1707 C1708 1.414 . S
C1707 C1710 1.499 . S
C1708 H1688 0.950 . S
C1708 C1707 1.414 . S
C1708 C1709 1.374 . S
C1709 H1689 0.950 . S
C1709 C1705 1.385 . S
C1709 C1708 1.374 . S
C1710 C1707 1.499 . S
C1710 C1711 1.373 . S
C1710 C1712 1.389 . S
C1711 H1690 0.950 . S
C1711 C1710 1.373 . S
C1711 C1727 1.377 . S
C1712 C1710 1.389 . S
C1712 C1713 1.524 . S
C1712 C1726 1.377 . S
C1713 C1712 1.524 . S
C1713 C1714 1.397 . S
C1713 C1718 1.363 . S
C1714 H1691 0.950 . S
C1714 C1713 1.397 . S
C1714 C1715 1.334 . S
C1715 H1692 0.950 . S
C1715 C1714 1.334 . S
C1715 C1716 1.287 . S
C1716 C1715 1.287 . S
C1716 C1717 1.524 . S
C1716 H1735 0.913 . S
C1717 H1693 0.950 . S
C1717 C1716 1.524 . S
C1717 C1718 1.415 . S
C1718 H1694 0.950 . S
C1718 C1713 1.363 . S
C1718 C1717 1.415 . S
C1719 H1695 0.951 . S
C1719 C1720 1.366 . S
C1719 C1721 1.388 . S
C1720 C1719 1.366 . S
C1720 C1724 1.385 . S
C1721 H1696 0.951 . S
C1721 C1719 1.388 . S
C1721 C1722 1.366 . S
C1722 C1721 1.366 . S
C1722 C1723 1.414 . S
C1722 C1725 1.499 . S
C1723 H1697 0.950 . S
C1723 C1722 1.414 . S
C1723 C1724 1.374 . S
C1724 H1698 0.950 . S
C1724 C1720 1.385 . S
C1724 C1723 1.374 . S
C1725 C1722 1.499 . S
C1725 C1726 1.373 . S
C1725 C1727 1.389 . S
C1726 H1699 0.950 . S
C1726 C1712 1.377 . S
C1726 C1725 1.373 . S
C1727 C1711 1.377 . S
C1727 C1725 1.389 . S
C1727 C1728 1.524 . S
C1728 C1727 1.524 . S
C1728 C1729 1.397 . S
C1728 C1733 1.363 . S
C1729 H1700 0.950 . S
C1729 C1728 1.397 . S
C1729 C1730 1.334 . S
C1730 H1701 0.950 . S
C1730 C1729 1.334 . S
C1730 C1731 1.287 . S
C1731 C1730 1.287 . S
C1731 C1732 1.524 . S
C1731 H1734 0.999 . S
C1732 H1702 0.950 . S
C1732 C1731 1.524 . S
C1732 C1733 1.415 . S
C1733 H1703 0.950 . S
C1733 C1728 1.363 . S
C1733 C1732 1.415 . S
H1734 C1731 0.999 . S
H1735 C1716 0.913 . S
H1736 C1754 0.951 . S
H1737 C1756 0.951 . S
H1738 C1758 0.950 . S
H1739 C1759 0.950 . S
H1740 C1761 0.950 . S
H1741 C1764 0.950 . S
H1742 C1765 0.950 . S
H1743 C1767 0.950 . S
H1744 C1768 0.950 . S
H1745 C1769 0.951 . S
H1746 C1771 0.951 . S
H1747 C1773 0.950 . S
H1748 C1774 0.950 . S
H1749 C1776 0.950 . S
H1750 C1779 0.950 . S
H1751 C1780 0.950 . S
H1752 C1782 0.950 . S
H1753 C1783 0.950 . S
C1754 H1736 0.951 . S
C1754 C1755 1.366 . S
C1754 C1756 1.388 . S
C1755 C1754 1.366 . S
C1755 C1759 1.385 . S
C1756 H1737 0.951 . S
C1756 C1754 1.388 . S
C1756 C1757 1.366 . S
C1757 C1756 1.366 . S
C1757 C1758 1.414 . S
C1757 C1760 1.499 . S
C1758 H1738 0.950 . S
C1758 C1757 1.414 . S
C1758 C1759 1.374 . S
C1759 H1739 0.950 . S
C1759 C1755 1.385 . S
C1759 C1758 1.374 . S
C1760 C1757 1.499 . S
C1760 C1761 1.373 . S
C1760 C1762 1.389 . S
C1761 H1740 0.950 . S
C1761 C1760 1.373 . S
C1761 C1777 1.377 . S
C1762 C1760 1.389 . S
C1762 C1763 1.524 . S
C1762 C1776 1.377 . S
C1763 C1762 1.524 . S
C1763 C1764 1.397 . S
C1763 C1768 1.363 . S
C1764 H1741 0.950 . S
C1764 C1763 1.397 . S
C1764 C1765 1.334 . S
C1765 H1742 0.950 . S
C1765 C1764 1.334 . S
C1765 C1766 1.287 . S
C1766 C1765 1.287 . S
C1766 C1767 1.524 . S
C1766 H1785 0.913 . S
C1767 H1743 0.950 . S
C1767 C1766 1.524 . S
C1767 C1768 1.415 . S
C1768 H1744 0.950 . S
C1768 C1763 1.363 . S
C1768 C1767 1.415 . S
C1769 H1745 0.951 . S
C1769 C1770 1.366 . S
C1769 C1771 1.388 . S
C1770 C1769 1.366 . S
C1770 C1774 1.385 . S
C1771 H1746 0.951 . S
C1771 C1769 1.388 . S
C1771 C1772 1.366 . S
C1772 C1771 1.366 . S
C1772 C1773 1.414 . S
C1772 C1775 1.499 . S
C1773 H1747 0.950 . S
C1773 C1772 1.414 . S
C1773 C1774 1.374 . S
C1774 H1748 0.950 . S
C1774 C1770 1.385 . S
C1774 C1773 1.374 . S
C1775 C1772 1.499 . S
C1775 C1776 1.373 . S
C1775 C1777 1.389 . S
C1776 H1749 0.950 . S
C1776 C1762 1.377 . S
C1776 C1775 1.373 . S
C1777 C1761 1.377 . S
C1777 C1775 1.389 . S
C1777 C1778 1.524 . S
C1778 C1777 1.524 . S
C1778 C1779 1.397 . S
C1778 C1783 1.363 . S
C1779 H1750 0.950 . S
C1779 C1778 1.397 . S
C1779 C1780 1.334 . S
C1780 H1751 0.950 . S
C1780 C1779 1.334 . S
C1780 C1781 1.287 . S
C1781 C1780 1.287 . S
C1781 C1782 1.524 . S
C1781 H1784 0.999 . S
C1782 H1752 0.950 . S
C1782 C1781 1.524 . S
C1782 C1783 1.415 . S
C1783 H1753 0.950 . S
C1783 C1778 1.363 . S
C1783 C1782 1.415 . S
H1784 C1781 0.999 . S
H1785 C1766 0.913 . S
H1786 C1804 0.951 . S
H1787 C1806 0.951 . S
H1788 C1808 0.950 . S
H1789 C1809 0.950 . S
H1790 C1811 0.950 . S
H1791 C1814 0.950 . S
H1792 C1815 0.950 . S
H1793 C1817 0.950 . S
H1794 C1818 0.950 . S
H1795 C1819 0.951 . S
H1796 C1821 0.951 . S
H1797 C1823 0.950 . S
H1798 C1824 0.950 . S
H1799 C1826 0.950 . S
H1800 C1829 0.950 . S
H1801 C1830 0.950 . S
H1802 C1832 0.950 . S
H1803 C1833 0.950 . S
C1804 H1786 0.951 . S
C1804 C1805 1.366 . S
C1804 C1806 1.388 . S
C1805 C1804 1.366 . S
C1805 C1809 1.385 . S
C1806 H1787 0.951 . S
C1806 C1804 1.388 . S
C1806 C1807 1.366 . S
C1807 C1806 1.366 . S
C1807 C1808 1.414 . S
C1807 C1810 1.499 . S
C1808 H1788 0.950 . S
C1808 C1807 1.414 . S
C1808 C1809 1.374 . S
C1809 H1789 0.950 . S
C1809 C1805 1.385 . S
C1809 C1808 1.374 . S
C1810 C1807 1.499 . S
C1810 C1811 1.373 . S
C1810 C1812 1.389 . S
C1811 H1790 0.950 . S
C1811 C1810 1.373 . S
C1811 C1827 1.377 . S
C1812 C1810 1.389 . S
C1812 C1813 1.524 . S
C1812 C1826 1.377 . S
C1813 C1812 1.524 . S
C1813 C1814 1.397 . S
C1813 C1818 1.363 . S
C1814 H1791 0.950 . S
C1814 C1813 1.397 . S
C1814 C1815 1.334 . S
C1815 H1792 0.950 . S
C1815 C1814 1.334 . S
C1815 C1816 1.287 . S
C1816 C1815 1.287 . S
C1816 C1817 1.524 . S
C1816 H1835 0.913 . S
C1817 H1793 0.950 . S
C1817 C1816 1.524 . S
C1817 C1818 1.415 . S
C1818 H1794 0.950 . S
C1818 C1813 1.363 . S
C1818 C1817 1.415 . S
C1819 H1795 0.951 . S
C1819 C1820 1.366 . S
C1819 C1821 1.388 . S
C1820 C1819 1.366 . S
C1820 C1824 1.385 . S
C1821 H1796 0.951 . S
C1821 C1819 1.388 . S
C1821 C1822 1.366 . S
C1822 C1821 1.366 . S
C1822 C1823 1.414 . S
C1822 C1825 1.499 . S
C1823 H1797 0.950 . S
C1823 C1822 1.414 . S
C1823 C1824 1.374 . S
C1824 H1798 0.950 . S
C1824 C1820 1.385 . S
C1824 C1823 1.374 . S
C1825 C1822 1.499 . S
C1825 C1826 1.373 . S
C1825 C1827 1.389 . S
C1826 H1799 0.950 . S
C1826 C1812 1.377 . S
C1826 C1825 1.373 . S
C1827 C1811 1.377 . S
C1827 C1825 1.389 . S
C1827 C1828 1.524 . S
C1828 C1827 1.524 . S
C1828 C1829 1.397 . S
C1828 C1833 1.363 . S
C1829 H1800 0.950 . S
C1829 C1828 1.397 . S
C1829 C1830 1.334 . S
C1830 H1801 0.950 . S
C1830 C1829 1.334 . S
C1830 C1831 1.287 . S
C1831 C1830 1.287 . S
C1831 C1832 1.524 . S
C1831 H1834 0.999 . S
C1832 H1802 0.950 . S
C1832 C1831 1.524 . S
C1832 C1833 1.415 . S
C1833 H1803 0.950 . S
C1833 C1828 1.363 . S
C1833 C1832 1.415 . S
H1834 C1831 0.999 . S
H1835 C1816 0.913 . S
H1836 C1854 0.951 . S
H1837 C1856 0.951 . S
H1838 C1858 0.950 . S
H1839 C1859 0.950 . S
H1840 C1861 0.950 . S
H1841 C1864 0.950 . S
H1842 C1865 0.950 . S
H1843 C1867 0.950 . S
H1844 C1868 0.950 . S
H1845 C1869 0.951 . S
H1846 C1871 0.951 . S
H1847 C1873 0.950 . S
H1848 C1874 0.950 . S
H1849 C1876 0.950 . S
H1850 C1879 0.950 . S
H1851 C1880 0.950 . S
H1852 C1882 0.950 . S
H1853 C1883 0.950 . S
C1854 H1836 0.951 . S
C1854 C1855 1.366 . S
C1854 C1856 1.388 . S
C1855 C1854 1.366 . S
C1855 C1859 1.385 . S
C1856 H1837 0.951 . S
C1856 C1854 1.388 . S
C1856 C1857 1.366 . S
C1857 C1856 1.366 . S
C1857 C1858 1.414 . S
C1857 C1860 1.499 . S
C1858 H1838 0.950 . S
C1858 C1857 1.414 . S
C1858 C1859 1.374 . S
C1859 H1839 0.950 . S
C1859 C1855 1.385 . S
C1859 C1858 1.374 . S
C1860 C1857 1.499 . S
C1860 C1861 1.373 . S
C1860 C1862 1.389 . S
C1861 H1840 0.950 . S
C1861 C1860 1.373 . S
C1861 C1877 1.377 . S
C1862 C1860 1.389 . S
C1862 C1863 1.524 . S
C1862 C1876 1.377 . S
C1863 C1862 1.524 . S
C1863 C1864 1.397 . S
C1863 C1868 1.363 . S
C1864 H1841 0.950 . S
C1864 C1863 1.397 . S
C1864 C1865 1.334 . S
C1865 H1842 0.950 . S
C1865 C1864 1.334 . S
C1865 C1866 1.287 . S
C1866 C1865 1.287 . S
C1866 C1867 1.524 . S
C1866 H1885 0.913 . S
C1867 H1843 0.950 . S
C1867 C1866 1.524 . S
C1867 C1868 1.415 . S
C1868 H1844 0.950 . S
C1868 C1863 1.363 . S
C1868 C1867 1.415 . S
C1869 H1845 0.951 . S
C1869 C1870 1.366 . S
C1869 C1871 1.388 . S
C1870 C1869 1.366 . S
C1870 C1874 1.385 . S
C1871 H1846 0.951 . S
C1871 C1869 1.388 . S
C1871 C1872 1.366 . S
C1872 C1871 1.366 . S
C1872 C1873 1.414 . S
C1872 C1875 1.499 . S
C1873 H1847 0.950 . S
C1873 C1872 1.414 . S
C1873 C1874 1.374 . S
C1874 H1848 0.950 . S
C1874 C1870 1.385 . S
C1874 C1873 1.374 . S
C1875 C1872 1.499 . S
C1875 C1876 1.373 . S
C1875 C1877 1.389 . S
C1876 H1849 0.950 . S
C1876 C1862 1.377 . S
C1876 C1875 1.373 . S
C1877 C1861 1.377 . S
C1877 C1875 1.389 . S
C1877 C1878 1.524 . S
C1878 C1877 1.524 . S
C1878 C1879 1.397 . S
C1878 C1883 1.363 . S
C1879 H1850 0.950 . S
C1879 C1878 1.397 . S
C1879 C1880 1.334 . S
C1880 H1851 0.950 . S
C1880 C1879 1.334 . S
C1880 C1881 1.287 . S
C1881 C1880 1.287 . S
C1881 C1882 1.524 . S
C1881 H1884 0.999 . S
C1882 H1852 0.950 . S
C1882 C1881 1.524 . S
C1882 C1883 1.415 . S
C1883 H1853 0.950 . S
C1883 C1878 1.363 . S
C1883 C1882 1.415 . S
H1884 C1881 0.999 . S
H1885 C1866 0.913 . S
H1886 C1904 0.951 . S
H1887 C1906 0.951 . S
H1888 C1908 0.950 . S
H1889 C1909 0.950 . S
H1890 C1911 0.950 . S
H1891 C1914 0.950 . S
H1892 C1915 0.950 . S
H1893 C1917 0.950 . S
H1894 C1918 0.950 . S
H1895 C1919 0.951 . S
H1896 C1921 0.951 . S
H1897 C1923 0.950 . S
H1898 C1924 0.950 . S
H1899 C1926 0.950 . S
H1900 C1929 0.950 . S
H1901 C1930 0.950 . S
H1902 C1932 0.950 . S
H1903 C1933 0.950 . S
C1904 H1886 0.951 . S
C1904 C1905 1.366 . S
C1904 C1906 1.388 . S
C1905 C1904 1.366 . S
C1905 C1909 1.385 . S
C1906 H1887 0.951 . S
C1906 C1904 1.388 . S
C1906 C1907 1.366 . S
C1907 C1906 1.366 . S
C1907 C1908 1.414 . S
C1907 C1910 1.499 . S
C1908 H1888 0.950 . S
C1908 C1907 1.414 . S
C1908 C1909 1.374 . S
C1909 H1889 0.950 . S
C1909 C1905 1.385 . S
C1909 C1908 1.374 . S
C1910 C1907 1.499 . S
C1910 C1911 1.373 . S
C1910 C1912 1.389 . S
C1911 H1890 0.950 . S
C1911 C1910 1.373 . S
C1911 C1927 1.377 . S
C1912 C1910 1.389 . S
C1912 C1913 1.524 . S
C1912 C1926 1.377 . S
C1913 C1912 1.524 . S
C1913 C1914 1.397 . S
C1913 C1918 1.363 . S
C1914 H1891 0.950 . S
C1914 C1913 1.397 . S
C1914 C1915 1.334 . S
C1915 H1892 0.950 . S
C1915 C1914 1.334 . S
C1915 C1916 1.287 . S
C1916 C1915 1.287 . S
C1916 C1917 1.524 . S
C1916 H1935 0.913 . S
C1917 H1893 0.950 . S
C1917 C1916 1.524 . S
C1917 C1918 1.415 . S
C1918 H1894 0.950 . S
C1918 C1913 1.363 . S
C1918 C1917 1.415 . S
C1919 H1895 0.951 . S
C1919 C1920 1.366 . S
C1919 C1921 1.388 . S
C1920 C1919 1.366 . S
C1920 C1924 1.385 . S
C1921 H1896 0.951 . S
C1921 C1919 1.388 . S
C1921 C1922 1.366 . S
C1922 C1921 1.366 . S
C1922 C1923 1.414 . S
C1922 C1925 1.499 . S
C1923 H1897 0.950 . S
C1923 C1922 1.414 . S
C1923 C1924 1.374 . S
C1924 H1898 0.950 . S
C1924 C1920 1.385 . S
C1924 C1923 1.374 . S
C1925 C1922 1.499 . S
C1925 C1926 1.373 . S
C1925 C1927 1.389 . S
C1926 H1899 0.950 . S
C1926 C1912 1.377 . S
C1926 C1925 1.373 . S
C1927 C1911 1.377 . S
C1927 C1925 1.389 . S
C1927 C1928 1.524 . S
C1928 C1927 1.524 . S
C1928 C1929 1.397 . S
C1928 C1933 1.363 . S
C1929 H1900 0.950 . S
C1929 C1928 1.397 . S
C1929 C1930 1.334 . S
C1930 H1901 0.950 . S
C1930 C1929 1.334 . S
C1930 C1931 1.287 . S
C1931 C1930 1.287 . S
C1931 C1932 1.524 . S
C1931 H1934 0.999 . S
C1932 H1902 0.950 . S
C1932 C1931 1.524 . S
C1932 C1933 1.415 . S
C1933 H1903 0.950 . S
C1933 C1928 1.363 . S
C1933 C1932 1.415 . S
H1934 C1931 0.999 . S
H1935 C1916 0.913 . S
H1936 C1954 0.951 . S
H1937 C1956 0.951 . S
H1938 C1958 0.950 . S
H1939 C1959 0.950 . S
H1940 C1961 0.950 . S
H1941 C1964 0.950 . S
H1942 C1965 0.950 . S
H1943 C1967 0.950 . S
H1944 C1968 0.950 . S
H1945 C1969 0.951 . S
H1946 C1971 0.951 . S
H1947 C1973 0.950 . S
H1948 C1974 0.950 . S
H1949 C1976 0.950 . S
H1950 C1979 0.950 . S
H1951 C1980 0.950 . S
H1952 C1982 0.950 . S
H1953 C1983 0.950 . S
C1954 H1936 0.951 . S
C1954 C1955 1.366 . S
C1954 C1956 1.388 . S
C1955 C1954 1.366 . S
C1955 C1959 1.385 . S
C1956 H1937 0.951 . S
C1956 C1954 1.388 . S
C1956 C1957 1.366 . S
C1957 C1956 1.366 . S
C1957 C1958 1.414 . S
C1957 C1960 1.499 . S
C1958 H1938 0.950 . S
C1958 C1957 1.414 . S
C1958 C1959 1.374 . S
C1959 H1939 0.950 . S
C1959 C1955 1.385 . S
C1959 C1958 1.374 . S
C1960 C1957 1.499 . S
C1960 C1961 1.373 . S
C1960 C1962 1.389 . S
C1961 H1940 0.950 . S
C1961 C1960 1.373 . S
C1961 C1977 1.377 . S
C1962 C1960 1.389 . S
C1962 C1963 1.524 . S
C1962 C1976 1.377 . S
C1963 C1962 1.524 . S
C1963 C1964 1.397 . S
C1963 C1968 1.363 . S
C1964 H1941 0.950 . S
C1964 C1963 1.397 . S
C1964 C1965 1.334 . S
C1965 H1942 0.950 . S
C1965 C1964 1.334 . S
C1965 C1966 1.287 . S
C1966 C1965 1.287 . S
C1966 C1967 1.524 . S
C1966 H1985 0.913 . S
C1967 H1943 0.950 . S
C1967 C1966 1.524 . S
C1967 C1968 1.415 . S
C1968 H1944 0.950 . S
C1968 C1963 1.363 . S
C1968 C1967 1.415 . S
C1969 H1945 0.951 . S
C1969 C1970 1.366 . S
C1969 C1971 1.388 . S
C1970 C1969 1.366 . S
C1970 C1974 1.385 . S
C1971 H1946 0.951 . S
C1971 C1969 1.388 . S
C1971 C1972 1.366 . S
C1972 C1971 1.366 . S
C1972 C1973 1.414 . S
C1972 C1975 1.499 . S
C1973 H1947 0.950 . S
C1973 C1972 1.414 . S
C1973 C1974 1.374 . S
C1974 H1948 0.950 . S
C1974 C1970 1.385 . S
C1974 C1973 1.374 . S
C1975 C1972 1.499 . S
C1975 C1976 1.373 . S
C1975 C1977 1.389 . S
C1976 H1949 0.950 . S
C1976 C1962 1.377 . S
C1976 C1975 1.373 . S
C1977 C1961 1.377 . S
C1977 C1975 1.389 . S
C1977 C1978 1.524 . S
C1978 C1977 1.524 . S
C1978 C1979 1.397 . S
C1978 C1983 1.363 . S
C1979 H1950 0.950 . S
C1979 C1978 1.397 . S
C1979 C1980 1.334 . S
C1980 H1951 0.950 . S
C1980 C1979 1.334 . S
C1980 C1981 1.287 . S
C1981 C1980 1.287 . S
C1981 C1982 1.524 . S
C1981 H1984 0.999 . S
C1982 H1952 0.950 . S
C1982 C1981 1.524 . S
C1982 C1983 1.415 . S
C1983 H1953 0.950 . S
C1983 C1978 1.363 . S
C1983 C1982 1.415 . S
H1984 C1981 0.999 . S
H1985 C1966 0.913 . S
H1986 C2004 0.951 . S
H1987 C2006 0.951 . S
H1988 C2008 0.950 . S
H1989 C2009 0.950 . S
H1990 C2011 0.950 . S
H1991 C2014 0.950 . S
H1992 C2015 0.950 . S
H1993 C2017 0.950 . S
H1994 C2018 0.950 . S
H1995 C2019 0.951 . S
H1996 C2021 0.951 . S
H1997 C2023 0.950 . S
H1998 C2024 0.950 . S
H1999 C2026 0.950 . S
H2000 C2029 0.950 . S
H2001 C2030 0.950 . S
H2002 C2032 0.950 . S
H2003 C2033 0.950 . S
C2004 H1986 0.951 . S
C2004 C2005 1.366 . S
C2004 C2006 1.388 . S
C2005 C2004 1.366 . S
C2005 C2009 1.385 . S
C2006 H1987 0.951 . S
C2006 C2004 1.388 . S
C2006 C2007 1.366 . S
C2007 C2006 1.366 . S
C2007 C2008 1.414 . S
C2007 C2010 1.499 . S
C2008 H1988 0.950 . S
C2008 C2007 1.414 . S
C2008 C2009 1.374 . S
C2009 H1989 0.950 . S
C2009 C2005 1.385 . S
C2009 C2008 1.374 . S
C2010 C2007 1.499 . S
C2010 C2011 1.373 . S
C2010 C2012 1.389 . S
C2011 H1990 0.950 . S
C2011 C2010 1.373 . S
C2011 C2027 1.377 . S
C2012 C2010 1.389 . S
C2012 C2013 1.524 . S
C2012 C2026 1.377 . S
C2013 C2012 1.524 . S
C2013 C2014 1.397 . S
C2013 C2018 1.363 . S
C2014 H1991 0.950 . S
C2014 C2013 1.397 . S
C2014 C2015 1.334 . S
C2015 H1992 0.950 . S
C2015 C2014 1.334 . S
C2015 C2016 1.287 . S
C2016 C2015 1.287 . S
C2016 C2017 1.524 . S
C2016 H2035 0.913 . S
C2017 H1993 0.950 . S
C2017 C2016 1.524 . S
C2017 C2018 1.415 . S
C2018 H1994 0.950 . S
C2018 C2013 1.363 . S
C2018 C2017 1.415 . S
C2019 H1995 0.951 . S
C2019 C2020 1.366 . S
C2019 C2021 1.388 . S
C2020 C2019 1.366 . S
C2020 C2024 1.385 . S
C2021 H1996 0.951 . S
C2021 C2019 1.388 . S
C2021 C2022 1.366 . S
C2022 C2021 1.366 . S
C2022 C2023 1.414 . S
C2022 C2025 1.499 . S
C2023 H1997 0.950 . S
C2023 C2022 1.414 . S
C2023 C2024 1.374 . S
C2024 H1998 0.950 . S
C2024 C2020 1.385 . S
C2024 C2023 1.374 . S
C2025 C2022 1.499 . S
C2025 C2026 1.373 . S
C2025 C2027 1.389 . S
C2026 H1999 0.950 . S
C2026 C2012 1.377 . S
C2026 C2025 1.373 . S
C2027 C2011 1.377 . S
C2027 C2025 1.389 . S
C2027 C2028 1.524 . S
C2028 C2027 1.524 . S
C2028 C2029 1.397 . S
C2028 C2033 1.363 . S
C2029 H2000 0.950 . S
C2029 C2028 1.397 . S
C2029 C2030 1.334 . S
C2030 H2001 0.950 . S
C2030 C2029 1.334 . S
C2030 C2031 1.287 . S
C2031 C2030 1.287 . S
C2031 C2032 1.524 . S
C2031 H2034 0.999 . S
C2032 H2002 0.950 . S
C2032 C2031 1.524 . S
C2032 C2033 1.415 . S
C2033 H2003 0.950 . S
C2033 C2028 1.363 . S
C2033 C2032 1.415 . S
H2034 C2031 0.999 . S
H2035 C2016 0.913 . S
H2036 C2054 0.951 . S
H2037 C2056 0.951 . S
H2038 C2058 0.950 . S
H2039 C2059 0.950 . S
H2040 C2061 0.950 . S
H2041 C2064 0.950 . S
H2042 C2065 0.950 . S
H2043 C2067 0.950 . S
H2044 C2068 0.950 . S
H2045 C2069 0.951 . S
H2046 C2071 0.951 . S
H2047 C2073 0.950 . S
H2048 C2074 0.950 . S
H2049 C2076 0.950 . S
H2050 C2079 0.950 . S
H2051 C2080 0.950 . S
H2052 C2082 0.950 . S
H2053 C2083 0.950 . S
C2054 H2036 0.951 . S
C2054 C2055 1.366 . S
C2054 C2056 1.388 . S
C2055 C2054 1.366 . S
C2055 C2059 1.385 . S
C2056 H2037 0.951 . S
C2056 C2054 1.388 . S
C2056 C2057 1.366 . S
C2057 C2056 1.366 . S
C2057 C2058 1.414 . S
C2057 C2060 1.499 . S
C2058 H2038 0.950 . S
C2058 C2057 1.414 . S
C2058 C2059 1.374 . S
C2059 H2039 0.950 . S
C2059 C2055 1.385 . S
C2059 C2058 1.374 . S
C2060 C2057 1.499 . S
C2060 C2061 1.373 . S
C2060 C2062 1.389 . S
C2061 H2040 0.950 . S
C2061 C2060 1.373 . S
C2061 C2077 1.377 . S
C2062 C2060 1.389 . S
C2062 C2063 1.524 . S
C2062 C2076 1.377 . S
C2063 C2062 1.524 . S
C2063 C2064 1.397 . S
C2063 C2068 1.363 . S
C2064 H2041 0.950 . S
C2064 C2063 1.397 . S
C2064 C2065 1.334 . S
C2065 H2042 0.950 . S
C2065 C2064 1.334 . S
C2065 C2066 1.287 . S
C2066 C2065 1.287 . S
C2066 C2067 1.524 . S
C2066 H2085 0.913 . S
C2067 H2043 0.950 . S
C2067 C2066 1.524 . S
C2067 C2068 1.415 . S
C2068 H2044 0.950 . S
C2068 C2063 1.363 . S
C2068 C2067 1.415 . S
C2069 H2045 0.951 . S
C2069 C2070 1.366 . S
C2069 C2071 1.388 . S
C2070 C2069 1.366 . S
C2070 C2074 1.385 . S
C2071 H2046 0.951 . S
C2071 C2069 1.388 . S
C2071 C2072 1.366 . S
C2072 C2071 1.366 . S
C2072 C2073 1.414 . S
C2072 C2075 1.499 . S
C2073 H2047 0.950 . S
C2073 C2072 1.414 . S
C2073 C2074 1.374 . S
C2074 H2048 0.950 . S
C2074 C2070 1.385 . S
C2074 C2073 1.374 . S
C2075 C2072 1.499 . S
C2075 C2076 1.373 . S
C2075 C2077 1.389 . S
C2076 H2049 0.950 . S
C2076 C2062 1.377 . S
C2076 C2075 1.373 . S
C2077 C2061 1.377 . S
C2077 C2075 1.389 . S
C2077 C2078 1.524 . S
C2078 C2077 1.524 . S
C2078 C2079 1.397 . S
C2078 C2083 1.363 . S
C2079 H2050 0.950 . S
C2079 C2078 1.397 . S
C2079 C2080 1.334 . S
C2080 H2051 0.950 . S
C2080 C2079 1.334 . S
C2080 C2081 1.287 . S
C2081 C2080 1.287 . S
C2081 C2082 1.524 . S
C2081 H2084 0.999 . S
C2082 H2052 0.950 . S
C2082 C2081 1.524 . S
C2082 C2083 1.415 . S
C2083 H2053 0.950 . S
C2083 C2078 1.363 . S
C2083 C2082 1.415 . S
H2084 C2081 0.999 . S
H2085 C2066 0.913 . S
H2086 C2104 0.951 . S
H2087 C2106 0.951 . S
H2088 C2108 0.950 . S
H2089 C2109 0.950 . S
H2090 C2111 0.950 . S
H2091 C2114 0.950 . S
H2092 C2115 0.950 . S
H2093 C2117 0.950 . S
H2094 C2118 0.950 . S
H2095 C2119 0.951 . S
H2096 C2121 0.951 . S
H2097 C2123 0.950 . S
H2098 C2124 0.950 . S
H2099 C2126 0.950 . S
H2100 C2129 0.950 . S
H2101 C2130 0.950 . S
H2102 C2132 0.950 . S
H2103 C2133 0.950 . S
C2104 H2086 0.951 . S
C2104 C2105 1.366 . S
C2104 C2106 1.388 . S
C2105 C2104 1.366 . S
C2105 C2109 1.385 . S
C2106 H2087 0.951 . S
C2106 C2104 1.388 . S
C2106 C2107 1.366 . S
C2107 C2106 1.366 . S
C2107 C2108 1.414 . S
C2107 C2110 1.499 . S
C2108 H2088 0.950 . S
C2108 C2107 1.414 . S
C2108 C2109 1.374 . S
C2109 H2089 0.950 . S
C2109 C2105 1.385 . S
C2109 C2108 1.374 . S
C2110 C2107 1.499 . S
C2110 C2111 1.373 . S
C2110 C2112 1.389 . S
C2111 H2090 0.950 . S
C2111 C2110 1.373 . S
C2111 C2127 1.377 . S
C2112 C2110 1.389 . S
C2112 C2113 1.524 . S
C2112 C2126 1.377 . S
C2113 C2112 1.524 . S
C2113 C2114 1.397 . S
C2113 C2118 1.363 . S
C2114 H2091 0.950 . S
C2114 C2113 1.397 . S
C2114 C2115 1.334 . S
C2115 H2092 0.950 . S
C2115 C2114 1.334 . S
C2115 C2116 1.287 . S
C2116 C2115 1.287 . S
C2116 C2117 1.524 . S
C2116 H2135 0.913 . S
C2117 H2093 0.950 . S
C2117 C2116 1.524 . S
C2117 C2118 1.415 . S
C2118 H2094 0.950 . S
C2118 C2113 1.363 . S
C2118 C2117 1.415 . S
C2119 H2095 0.951 . S
C2119 C2120 1.366 . S
C2119 C2121 1.388 . S
C2120 C2119 1.366 . S
C2120 C2124 1.385 . S
C2121 H2096 0.951 . S
C2121 C2119 1.388 . S
C2121 C2122 1.366 . S
C2122 C2121 1.366 . S
C2122 C2123 1.414 . S
C2122 C2125 1.499 . S
C2123 H2097 0.950 . S
C2123 C2122 1.414 . S
C2123 C2124 1.374 . S
C2124 H2098 0.950 . S
C2124 C2120 1.385 . S
C2124 C2123 1.374 . S
C2125 C2122 1.499 . S
C2125 C2126 1.373 . S
C2125 C2127 1.389 . S
C2126 H2099 0.950 . S
C2126 C2112 1.377 . S
C2126 C2125 1.373 . S
C2127 C2111 1.377 . S
C2127 C2125 1.389 . S
C2127 C2128 1.524 . S
C2128 C2127 1.524 . S
C2128 C2129 1.397 . S
C2128 C2133 1.363 . S
C2129 H2100 0.950 . S
C2129 C2128 1.397 . S
C2129 C2130 1.334 . S
C2130 H2101 0.950 . S
C2130 C2129 1.334 . S
C2130 C2131 1.287 . S
C2131 C2130 1.287 . S
C2131 C2132 1.524 . S
C2131 H2134 0.999 . S
C2132 H2102 0.950 . S
C2132 C2131 1.524 . S
C2132 C2133 1.415 . S
C2133 H2103 0.950 . S
C2133 C2128 1.363 . S
C2133 C2132 1.415 . S
H2134 C2131 0.999 . S
H2135 C2116 0.913 . S
H2136 C2154 0.951 . S
H2137 C2156 0.951 . S
H2138 C2158 0.950 . S
H2139 C2159 0.950 . S
H2140 C2161 0.950 . S
H2141 C2164 0.950 . S
H2142 C2165 0.950 . S
H2143 C2167 0.950 . S
H2144 C2168 0.950 . S
H2145 C2169 0.951 . S
H2146 C2171 0.951 . S
H2147 C2173 0.950 . S
H2148 C2174 0.950 . S
H2149 C2176 0.950 . S
H2150 C2179 0.950 . S
H2151 C2180 0.950 . S
H2152 C2182 0.950 . S
H2153 C2183 0.950 . S
C2154 H2136 0.951 . S
C2154 C2155 1.366 . S
C2154 C2156 1.388 . S
C2155 C2154 1.366 . S
C2155 C2159 1.385 . S
C2156 H2137 0.951 . S
C2156 C2154 1.388 . S
C2156 C2157 1.366 . S
C2157 C2156 1.366 . S
C2157 C2158 1.414 . S
C2157 C2160 1.499 . S
C2158 H2138 0.950 . S
C2158 C2157 1.414 . S
C2158 C2159 1.374 . S
C2159 H2139 0.950 . S
C2159 C2155 1.385 . S
C2159 C2158 1.374 . S
C2160 C2157 1.499 . S
C2160 C2161 1.373 . S
C2160 C2162 1.389 . S
C2161 H2140 0.950 . S
C2161 C2160 1.373 . S
C2161 C2177 1.377 . S
C2162 C2160 1.389 . S
C2162 C2163 1.524 . S
C2162 C2176 1.377 . S
C2163 C2162 1.524 . S
C2163 C2164 1.397 . S
C2163 C2168 1.363 . S
C2164 H2141 0.950 . S
C2164 C2163 1.397 . S
C2164 C2165 1.334 . S
C2165 H2142 0.950 . S
C2165 C2164 1.334 . S
C2165 C2166 1.287 . S
C2166 C2165 1.287 . S
C2166 C2167 1.524 . S
C2166 H2185 0.913 . S
C2167 H2143 0.950 . S
C2167 C2166 1.524 . S
C2167 C2168 1.415 . S
C2168 H2144 0.950 . S
C2168 C2163 1.363 . S
C2168 C2167 1.415 . S
C2169 H2145 0.951 . S
C2169 C2170 1.366 . S
C2169 C2171 1.388 . S
C2170 C2169 1.366 . S
C2170 C2174 1.385 . S
C2171 H2146 0.951 . S
C2171 C2169 1.388 . S
C2171 C2172 1.366 . S
C2172 C2171 1.366 . S
C2172 C2173 1.414 . S
C2172 C2175 1.499 . S
C2173 H2147 0.950 . S
C2173 C2172 1.414 . S
C2173 C2174 1.374 . S
C2174 H2148 0.950 . S
C2174 C2170 1.385 . S
C2174 C2173 1.374 . S
C2175 C2172 1.499 . S
C2175 C2176 1.373 . S
C2175 C2177 1.389 . S
C2176 H2149 0.950 . S
C2176 C2162 1.377 . S
C2176 C2175 1.373 . S
C2177 C2161 1.377 . S
C2177 C2175 1.389 . S
C2177 C2178 1.524 . S
C2178 C2177 1.524 . S
C2178 C2179 1.397 . S
C2178 C2183 1.363 . S
C2179 H2150 0.950 . S
C2179 C2178 1.397 . S
C2179 C2180 1.334 . S
C2180 H2151 0.950 . S
C2180 C2179 1.334 . S
C2180 C2181 1.287 . S
C2181 C2180 1.287 . S
C2181 C2182 1.524 . S
C2181 H2184 0.999 . S
C2182 H2152 0.950 . S
C2182 C2181 1.524 . S
C2182 C2183 1.415 . S
C2183 H2153 0.950 . S
C2183 C2178 1.363 . S
C2183 C2182 1.415 . S
H2184 C2181 0.999 . S
H2185 C2166 0.913 . S
H2186 C2204 0.951 . S
H2187 C2206 0.951 . S
H2188 C2208 0.950 . S
H2189 C2209 0.950 . S
H2190 C2211 0.950 . S
H2191 C2214 0.950 . S
H2192 C2215 0.950 . S
H2193 C2217 0.950 . S
H2194 C2218 0.950 . S
H2195 C2219 0.951 . S
H2196 C2221 0.951 . S
H2197 C2223 0.950 . S
H2198 C2224 0.950 . S
H2199 C2226 0.950 . S
H2200 C2229 0.950 . S
H2201 C2230 0.950 . S
H2202 C2232 0.950 . S
H2203 C2233 0.950 . S
C2204 H2186 0.951 . S
C2204 C2205 1.366 . S
C2204 C2206 1.388 . S
C2205 C2204 1.366 . S
C2205 C2209 1.385 . S
C2206 H2187 0.951 . S
C2206 C2204 1.388 . S
C2206 C2207 1.366 . S
C2207 C2206 1.366 . S
C2207 C2208 1.414 . S
C2207 C2210 1.499 . S
C2208 H2188 0.950 . S
C2208 C2207 1.414 . S
C2208 C2209 1.374 . S
C2209 H2189 0.950 . S
C2209 C2205 1.385 . S
C2209 C2208 1.374 . S
C2210 C2207 1.499 . S
C2210 C2211 1.373 . S
C2210 C2212 1.389 . S
C2211 H2190 0.950 . S
C2211 C2210 1.373 . S
C2211 C2227 1.377 . S
C2212 C2210 1.389 . S
C2212 C2213 1.524 . S
C2212 C2226 1.377 . S
C2213 C2212 1.524 . S
C2213 C2214 1.397 . S
C2213 C2218 1.363 . S
C2214 H2191 0.950 . S
C2214 C2213 1.397 . S
C2214 C2215 1.334 . S
C2215 H2192 0.950 . S
C2215 C2214 1.334 . S
C2215 C2216 1.287 . S
C2216 C2215 1.287 . S
C2216 C2217 1.524 . S
C2216 H2235 0.913 . S
C2217 H2193 0.950 . S
C2217 C2216 1.524 . S
C2217 C2218 1.415 . S
C2218 H2194 0.950 . S
C2218 C2213 1.363 . S
C2218 C2217 1.415 . S
C2219 H2195 0.951 . S
C2219 C2220 1.366 . S
C2219 C2221 1.388 . S
C2220 C2219 1.366 . S
C2220 C2224 1.385 . S
C2221 H2196 0.951 . S
C2221 C2219 1.388 . S
C2221 C2222 1.366 . S
C2222 C2221 1.366 . S
C2222 C2223 1.414 . S
C2222 C2225 1.499 . S
C2223 H2197 0.950 . S
C2223 C2222 1.414 . S
C2223 C2224 1.374 . S
C2224 H2198 0.950 . S
C2224 C2220 1.385 . S
C2224 C2223 1.374 . S
C2225 C2222 1.499 . S
C2225 C2226 1.373 . S
C2225 C2227 1.389 . S
C2226 H2199 0.950 . S
C2226 C2212 1.377 . S
C2226 C2225 1.373 . S
C2227 C2211 1.377 . S
C2227 C2225 1.389 . S
C2227 C2228 1.524 . S
C2228 C2227 1.524 . S
C2228 C2229 1.397 . S
C2228 C2233 1.363 . S
C2229 H2200 0.950 . S
C2229 C2228 1.397 . S
C2229 C2230 1.334 . S
C2230 H2201 0.950 . S
C2230 C2229 1.334 . S
C2230 C2231 1.287 . S
C2231 C2230 1.287 . S
C2231 C2232 1.524 . S
C2231 H2234 0.999 . S
C2232 H2202 0.950 . S
C2232 C2231 1.524 . S
C2232 C2233 1.415 . S
C2233 H2203 0.950 . S
C2233 C2228 1.363 . S
C2233 C2232 1.415 . S
H2234 C2231 0.999 . S
H2235 C2216 0.913 . S
H2236 C2254 0.951 . S
H2237 C2256 0.951 . S
H2238 C2258 0.950 . S
H2239 C2259 0.950 . S
H2240 C2261 0.950 . S
H2241 C2264 0.950 . S
H2242 C2265 0.950 . S
H2243 C2267 0.950 . S
H2244 C2268 0.950 . S
H2245 C2269 0.951 . S
H2246 C2271 0.951 . S
H2247 C2273 0.950 . S
H2248 C2274 0.950 . S
H2249 C2276 0.950 . S
H2250 C2279 0.950 . S
H2251 C2280 0.950 . S
H2252 C2282 0.950 . S
H2253 C2283 0.950 . S
C2254 H2236 0.951 . S
C2254 C2255 1.366 . S
C2254 C2256 1.388 . S
C2255 C2254 1.366 . S
C2255 C2259 1.385 . S
C2256 H2237 0.951 . S
C2256 C2254 1.388 . S
C2256 C2257 1.366 . S
C2257 C2256 1.366 . S
C2257 C2258 1.414 . S
C2257 C2260 1.499 . S
C2258 H2238 0.950 . S
C2258 C2257 1.414 . S
C2258 C2259 1.374 . S
C2259 H2239 0.950 . S
C2259 C2255 1.385 . S
C2259 C2258 1.374 . S
C2260 C2257 1.499 . S
C2260 C2261 1.373 . S
C2260 C2262 1.389 . S
C2261 H2240 0.950 . S
C2261 C2260 1.373 . S
C2261 C2277 1.377 . S
C2262 C2260 1.389 . S
C2262 C2263 1.524 . S
C2262 C2276 1.377 . S
C2263 C2262 1.524 . S
C2263 C2264 1.397 . S
C2263 C2268 1.363 . S
C2264 H2241 0.950 . S
C2264 C2263 1.397 . S
C2264 C2265 1.334 . S
C2265 H2242 0.950 . S
C2265 C2264 1.334 . S
C2265 C2266 1.287 . S
C2266 C2265 1.287 . S
C2266 C2267 1.524 . S
C2266 H2285 0.913 . S
C2267 H2243 0.950 . S
C2267 C2266 1.524 . S
C2267 C2268 1.415 . S
C2268 H2244 0.950 . S
C2268 C2263 1.363 . S
C2268 C2267 1.415 . S
C2269 H2245 0.951 . S
C2269 C2270 1.366 . S
C2269 C2271 1.388 . S
C2270 C2269 1.366 . S
C2270 C2274 1.385 . S
C2271 H2246 0.951 . S
C2271 C2269 1.388 . S
C2271 C2272 1.366 . S
C2272 C2271 1.366 . S
C2272 C2273 1.414 . S
C2272 C2275 1.499 . S
C2273 H2247 0.950 . S
C2273 C2272 1.414 . S
C2273 C2274 1.374 . S
C2274 H2248 0.950 . S
C2274 C2270 1.385 . S
C2274 C2273 1.374 . S
C2275 C2272 1.499 . S
C2275 C2276 1.373 . S
C2275 C2277 1.389 . S
C2276 H2249 0.950 . S
C2276 C2262 1.377 . S
C2276 C2275 1.373 . S
C2277 C2261 1.377 . S
C2277 C2275 1.389 . S
C2277 C2278 1.524 . S
C2278 C2277 1.524 . S
C2278 C2279 1.397 . S
C2278 C2283 1.363 . S
C2279 H2250 0.950 . S
C2279 C2278 1.397 . S
C2279 C2280 1.334 . S
C2280 H2251 0.950 . S
C2280 C2279 1.334 . S
C2280 C2281 1.287 . S
C2281 C2280 1.287 . S
C2281 C2282 1.524 . S
C2281 H2284 0.999 . S
C2282 H2252 0.950 . S
C2282 C2281 1.524 . S
C2282 C2283 1.415 . S
C2283 H2253 0.950 . S
C2283 C2278 1.363 . S
C2283 C2282 1.415 . S
H2284 C2281 0.999 . S
H2285 C2266 0.913 . S
H2286 C2304 0.951 . S
H2287 C2306 0.951 . S
H2288 C2308 0.950 . S
H2289 C2309 0.950 . S
H2290 C2311 0.950 . S
H2291 C2314 0.950 . S
H2292 C2315 0.950 . S
H2293 C2317 0.950 . S
H2294 C2318 0.950 . S
H2295 C2319 0.951 . S
H2296 C2321 0.951 . S
H2297 C2323 0.950 . S
H2298 C2324 0.950 . S
H2299 C2326 0.950 . S
H2300 C2329 0.950 . S
H2301 C2330 0.950 . S
H2302 C2332 0.950 . S
H2303 C2333 0.950 . S
C2304 H2286 0.951 . S
C2304 C2305 1.366 . S
C2304 C2306 1.388 . S
C2305 C2304 1.366 . S
C2305 C2309 1.385 . S
C2306 H2287 0.951 . S
C2306 C2304 1.388 . S
C2306 C2307 1.366 . S
C2307 C2306 1.366 . S
C2307 C2308 1.414 . S
C2307 C2310 1.499 . S
C2308 H2288 0.950 . S
C2308 C2307 1.414 . S
C2308 C2309 1.374 . S
C2309 H2289 0.950 . S
C2309 C2305 1.385 . S
C2309 C2308 1.374 . S
C2310 C2307 1.499 . S
C2310 C2311 1.373 . S
C2310 C2312 1.389 . S
C2311 H2290 0.950 . S
C2311 C2310 1.373 . S
C2311 C2327 1.377 . S
C2312 C2310 1.389 . S
C2312 C2313 1.524 . S
C2312 C2326 1.377 . S
C2313 C2312 1.524 . S
C2313 C2314 1.397 . S
C2313 C2318 1.363 . S
C2314 H2291 0.950 . S
C2314 C2313 1.397 . S
C2314 C2315 1.334 . S
C2315 H2292 0.950 . S
C2315 C2314 1.334 . S
C2315 C2316 1.287 . S
C2316 C2315 1.287 . S
C2316 C2317 1.524 . S
C2316 H2335 0.913 . S
C2317 H2293 0.950 . S
C2317 C2316 1.524 . S
C2317 C2318 1.415 . S
C2318 H2294 0.950 . S
C2318 C2313 1.363 . S
C2318 C2317 1.415 . S
C2319 H2295 0.951 . S
C2319 C2320 1.366 . S
C2319 C2321 1.388 . S
C2320 C2319 1.366 . S
C2320 C2324 1.385 . S
C2321 H2296 0.951 . S
C2321 C2319 1.388 . S
C2321 C2322 1.366 . S
C2322 C2321 1.366 . S
C2322 C2323 1.414 . S
C2322 C2325 1.499 . S
C2323 H2297 0.950 . S
C2323 C2322 1.414 . S
C2323 C2324 1.374 . S
C2324 H2298 0.950 . S
C2324 C2320 1.385 . S
C2324 C2323 1.374 . S
C2325 C2322 1.499 . S
C2325 C2326 1.373 . S
C2325 C2327 1.389 . S
C2326 H2299 0.950 . S
C2326 C2312 1.377 . S
C2326 C2325 1.373 . S
C2327 C2311 1.377 . S
C2327 C2325 1.389 . S
C2327 C2328 1.524 . S
C2328 C2327 1.524 . S
C2328 C2329 1.397 . S
C2328 C2333 1.363 . S
C2329 H2300 0.950 . S
C2329 C2328 1.397 . S
C2329 C2330 1.334 . S
C2330 H2301 0.950 . S
C2330 C2329 1.334 . S
C2330 C2331 1.287 . S
C2331 C2330 1.287 . S
C2331 C2332 1.524 . S
C2331 H2334 0.999 . S
C2332 H2302 0.950 . S
C2332 C2331 1.524 . S
C2332 C2333 1.415 . S
C2333 H2303 0.950 . S
C2333 C2328 1.363 . S
C2333 C2332 1.415 . S
H2334 C2331 0.999 . S
H2335 C2316 0.913 . S
H2336 C2354 0.951 . S
H2337 C2356 0.951 . S
H2338 C2358 0.950 . S
H2339 C2359 0.950 . S
H2340 C2361 0.950 . S
H2341 C2364 0.950 . S
H2342 C2365 0.950 . S
H2343 C2367 0.950 . S
H2344 C2368 0.950 . S
H2345 C2369 0.951 . S
H2346 C2371 0.951 . S
H2347 C2373 0.950 . S
H2348 C2374 0.950 . S
H2349 C2376 0.950 . S
H2350 C2379 0.950 . S
H2351 C2380 0.950 . S
H2352 C2382 0.950 . S
H2353 C2383 0.950 . S
C2354 H2336 0.951 . S
C2354 C2355 1.366 . S
C2354 C2356 1.388 . S
C2355 C2354 1.366 . S
C2355 C2359 1.385 . S
C2356 H2337 0.951 . S
C2356 C2354 1.388 . S
C2356 C2357 1.366 . S
C2357 C2356 1.366 . S
C2357 C2358 1.414 . S
C2357 C2360 1.499 . S
C2358 H2338 0.950 . S
C2358 C2357 1.414 . S
C2358 C2359 1.374 . S
C2359 H2339 0.950 . S
C2359 C2355 1.385 . S
C2359 C2358 1.374 . S
C2360 C2357 1.499 . S
C2360 C2361 1.373 . S
C2360 C2362 1.389 . S
C2361 H2340 0.950 . S
C2361 C2360 1.373 . S
C2361 C2377 1.377 . S
C2362 C2360 1.389 . S
C2362 C2363 1.524 . S
C2362 C2376 1.377 . S
C2363 C2362 1.524 . S
C2363 C2364 1.397 . S
C2363 C2368 1.363 . S
C2364 H2341 0.950 . S
C2364 C2363 1.397 . S
C2364 C2365 1.334 . S
C2365 H2342 0.950 . S
C2365 C2364 1.334 . S
C2365 C2366 1.287 . S
C2366 C2365 1.287 . S
C2366 C2367 1.524 . S
C2366 H2385 0.913 . S
C2367 H2343 0.950 . S
C2367 C2366 1.524 . S
C2367 C2368 1.415 . S
C2368 H2344 0.950 . S
C2368 C2363 1.363 . S
C2368 C2367 1.415 . S
C2369 H2345 0.951 . S
C2369 C2370 1.366 . S
C2369 C2371 1.388 . S
C2370 C2369 1.366 . S
C2370 C2374 1.385 . S
C2371 H2346 0.951 . S
C2371 C2369 1.388 . S
C2371 C2372 1.366 . S
C2372 C2371 1.366 . S
C2372 C2373 1.414 . S
C2372 C2375 1.499 . S
C2373 H2347 0.950 . S
C2373 C2372 1.414 . S
C2373 C2374 1.374 . S
C2374 H2348 0.950 . S
C2374 C2370 1.385 . S
C2374 C2373 1.374 . S
C2375 C2372 1.499 . S
C2375 C2376 1.373 . S
C2375 C2377 1.389 . S
C2376 H2349 0.950 . S
C2376 C2362 1.377 . S
C2376 C2375 1.373 . S
C2377 C2361 1.377 . S
C2377 C2375 1.389 . S
C2377 C2378 1.524 . S
C2378 C2377 1.524 . S
C2378 C2379 1.397 . S
C2378 C2383 1.363 . S
C2379 H2350 0.950 . S
C2379 C2378 1.397 . S
C2379 C2380 1.334 . S
C2380 H2351 0.950 . S
C2380 C2379 1.334 . S
C2380 C2381 1.287 . S
C2381 C2380 1.287 . S
C2381 C2382 1.524 . S
C2381 H2384 0.999 . S
C2382 H2352 0.950 . S
C2382 C2381 1.524 . S
C2382 C2383 1.415 . S
C2383 H2353 0.950 . S
C2383 C2378 1.363 . S
C2383 C2382 1.415 . S
H2384 C2381 0.999 . S
H2385 C2366 0.913 . S
H2386 C2404 0.951 . S
H2387 C2406 0.951 . S
H2388 C2408 0.950 . S
H2389 C2409 0.950 . S
H2390 C2411 0.950 . S
H2391 C2414 0.950 . S
H2392 C2415 0.950 . S
H2393 C2417 0.950 . S
H2394 C2418 0.950 . S
H2395 C2419 0.951 . S
H2396 C2421 0.951 . S
H2397 C2423 0.950 . S
H2398 C2424 0.950 . S
H2399 C2426 0.950 . S
H2400 C2429 0.950 . S
H2401 C2430 0.950 . S
H2402 C2432 0.950 . S
H2403 C2433 0.950 . S
C2404 H2386 0.951 . S
C2404 C2405 1.366 . S
C2404 C2406 1.388 . S
C2405 C2404 1.366 . S
C2405 C2409 1.385 . S
C2406 H2387 0.951 . S
C2406 C2404 1.388 . S
C2406 C2407 1.366 . S
C2407 C2406 1.366 . S
C2407 C2408 1.414 . S
C2407 C2410 1.499 . S
C2408 H2388 0.950 . S
C2408 C2407 1.414 . S
C2408 C2409 1.374 . S
C2409 H2389 0.950 . S
C2409 C2405 1.385 . S
C2409 C2408 1.374 . S
C2410 C2407 1.499 . S
C2410 C2411 1.373 . S
C2410 C2412 1.389 . S
C2411 H2390 0.950 . S
C2411 C2410 1.373 . S
C2411 C2427 1.377 . S
C2412 C2410 1.389 . S
C2412 C2413 1.524 . S
C2412 C2426 1.377 . S
C2413 C2412 1.524 . S
C2413 C2414 1.397 . S
C2413 C2418 1.363 . S
C2414 H2391 0.950 . S
C2414 C2413 1.397 . S
C2414 C2415 1.334 . S
C2415 H2392 0.950 . S
C2415 C2414 1.334 . S
C2415 C2416 1.287 . S
C2416 C2415 1.287 . S
C2416 C2417 1.524 . S
C2416 H2435 0.913 . S
C2417 H2393 0.950 . S
C2417 C2416 1.524 . S
C2417 C2418 1.415 . S
C2418 H2394 0.950 . S
C2418 C2413 1.363 . S
C2418 C2417 1.415 . S
C2419 H2395 0.951 . S
C2419 C2420 1.366 . S
C2419 C2421 1.388 . S
C2420 C2419 1.366 . S
C2420 C2424 1.385 . S
C2421 H2396 0.951 . S
C2421 C2419 1.388 . S
C2421 C2422 1.366 . S
C2422 C2421 1.366 . S
C2422 C2423 1.414 . S
C2422 C2425 1.499 . S
C2423 H2397 0.950 . S
C2423 C2422 1.414 . S
C2423 C2424 1.374 . S
C2424 H2398 0.950 . S
C2424 C2420 1.385 . S
C2424 C2423 1.374 . S
C2425 C2422 1.499 . S
C2425 C2426 1.373 . S
C2425 C2427 1.389 . S
C2426 H2399 0.950 . S
C2426 C2412 1.377 . S
C2426 C2425 1.373 . S
C2427 C2411 1.377 . S
C2427 C2425 1.389 . S
C2427 C2428 1.524 . S
C2428 C2427 1.524 . S
C2428 C2429 1.397 . S
C2428 C2433 1.363 . S
C2429 H2400 0.950 . S
C2429 C2428 1.397 . S
C2429 C2430 1.334 . S
C2430 H2401 0.950 . S
C2430 C2429 1.334 . S
C2430 C2431 1.287 . S
C2431 C2430 1.287 . S
C2431 C2432 1.524 . S
C2431 H2434 0.999 . S
C2432 H2402 0.950 . S
C2432 C2431 1.524 . S
C2432 C2433 1.415 . S
C2433 H2403 0.950 . S
C2433 C2428 1.363 . S
C2433 C2432 1.415 . S
H2434 C2431 0.999 . S
H2435 C2416 0.913 . S
H2436 C2454 0.951 . S
H2437 C2456 0.951 . S
H2438 C2458 0.950 . S
H2439 C2459 0.950 . S
H2440 C2461 0.950 . S
H2441 C2464 0.950 . S
H2442 C2465 0.950 . S
H2443 C2467 0.950 . S
H2444 C2468 0.950 . S
H2445 C2469 0.951 . S
H2446 C2471 0.951 . S
H2447 C2473 0.950 . S
H2448 C2474 0.950 . S
H2449 C2476 0.950 . S
H2450 C2479 0.950 . S
H2451 C2480 0.950 . S
H2452 C2482 0.950 . S
H2453 C2483 0.950 . S
C2454 H2436 0.951 . S
C2454 C2455 1.366 . S
C2454 C2456 1.388 . S
C2455 C2454 1.366 . S
C2455 C2459 1.385 . S
C2456 H2437 0.951 . S
C2456 C2454 1.388 . S
C2456 C2457 1.366 . S
C2457 C2456 1.366 . S
C2457 C2458 1.414 . S
C2457 C2460 1.499 . S
C2458 H2438 0.950 . S
C2458 C2457 1.414 . S
C2458 C2459 1.374 . S
C2459 H2439 0.950 . S
C2459 C2455 1.385 . S
C2459 C2458 1.374 . S
C2460 C2457 1.499 . S
C2460 C2461 1.373 . S
C2460 C2462 1.389 . S
C2461 H2440 0.950 . S
C2461 C2460 1.373 . S
C2461 C2477 1.377 . S
C2462 C2460 1.389 . S
C2462 C2463 1.524 . S
C2462 C2476 1.377 . S
C2463 C2462 1.524 . S
C2463 C2464 1.397 . S
C2463 C2468 1.363 . S
C2464 H2441 0.950 . S
C2464 C2463 1.397 . S
C2464 C2465 1.334 . S
C2465 H2442 0.950 . S
C2465 C2464 1.334 . S
C2465 C2466 1.287 . S
C2466 C2465 1.287 . S
C2466 C2467 1.524 . S
C2466 H2485 0.913 . S
C2467 H2443 0.950 . S
C2467 C2466 1.524 . S
C2467 C2468 1.415 . S
C2468 H2444 0.950 . S
C2468 C2463 1.363 . S
C2468 C2467 1.415 . S
C2469 H2445 0.951 . S
C2469 C2470 1.366 . S
C2469 C2471 1.388 . S
C2470 C2469 1.366 . S
C2470 C2474 1.385 . S
C2471 H2446 0.951 . S
C2471 C2469 1.388 . S
C2471 C2472 1.366 . S
C2472 C2471 1.366 . S
C2472 C2473 1.414 . S
C2472 C2475 1.499 . S
C2473 H2447 0.950 . S
C2473 C2472 1.414 . S
C2473 C2474 1.374 . S
C2474 H2448 0.950 . S
C2474 C2470 1.385 . S
C2474 C2473 1.374 . S
C2475 C2472 1.499 . S
C2475 C2476 1.373 . S
C2475 C2477 1.389 . S
C2476 H2449 0.950 . S
C2476 C2462 1.377 . S
C2476 C2475 1.373 . S
C2477 C2461 1.377 . S
C2477 C2475 1.389 . S
C2477 C2478 1.524 . S
C2478 C2477 1.524 . S
C2478 C2479 1.397 . S
C2478 C2483 1.363 . S
C2479 H2450 0.950 . S
C2479 C2478 1.397 . S
C2479 C2480 1.334 . S
C2480 H2451 0.950 . S
C2480 C2479 1.334 . S
C2480 C2481 1.287 . S
C2481 C2480 1.287 . S
C2481 C2482 1.524 . S
C2481 H2484 0.999 . S
C2482 H2452 0.950 . S
C2482 C2481 1.524 . S
C2482 C2483 1.415 . S
C2483 H2453 0.950 . S
C2483 C2478 1.363 . S
C2483 C2482 1.415 . S
H2484 C2481 0.999 . S
H2485 C2466 0.913 . S
H2486 C2504 0.951 . S
H2487 C2506 0.951 . S
H2488 C2508 0.950 . S
H2489 C2509 0.950 . S
H2490 C2511 0.950 . S
H2491 C2514 0.950 . S
H2492 C2515 0.950 . S
H2493 C2517 0.950 . S
H2494 C2518 0.950 . S
H2495 C2519 0.951 . S
H2496 C2521 0.951 . S
H2497 C2523 0.950 . S
H2498 C2524 0.950 . S
H2499 C2526 0.950 . S
H2500 C2529 0.950 . S
H2501 C2530 0.950 . S
H2502 C2532 0.950 . S
H2503 C2533 0.950 . S
C2504 H2486 0.951 . S
C2504 C2505 1.366 . S
C2504 C2506 1.388 . S
C2505 C2504 1.366 . S
C2505 C2509 1.385 . S
C2506 H2487 0.951 . S
C2506 C2504 1.388 . S
C2506 C2507 1.366 . S
C2507 C2506 1.366 . S
C2507 C2508 1.414 . S
C2507 C2510 1.499 . S
C2508 H2488 0.950 . S
C2508 C2507 1.414 . S
C2508 C2509 1.374 . S
C2509 H2489 0.950 . S
C2509 C2505 1.385 . S
C2509 C2508 1.374 . S
C2510 C2507 1.499 . S
C2510 C2511 1.373 . S
C2510 C2512 1.389 . S
C2511 H2490 0.950 . S
C2511 C2510 1.373 . S
C2511 C2527 1.377 . S
C2512 C2510 1.389 . S
C2512 C2513 1.524 . S
C2512 C2526 1.377 . S
C2513 C2512 1.524 . S
C2513 C2514 1.397 . S
C2513 C2518 1.363 . S
C2514 H2491 0.950 . S
C2514 C2513 1.397 . S
C2514 C2515 1.334 . S
C2515 H2492 0.950 . S
C2515 C2514 1.334 . S
C2515 C2516 1.287 . S
C2516 C2515 1.287 . S
C2516 C2517 1.524 . S
C2516 H2535 0.913 . S
C2517 H2493 0.950 . S
C2517 C2516 1.524 . S
C2517 C2518 1.415 . S
C2518 H2494 0.950 . S
C2518 C2513 1.363 . S
C2518 C2517 1.415 . S
C2519 H2495 0.951 . S
C2519 C2520 1.366 . S
C2519 C2521 1.388 . S
C2520 C2519 1.366 . S
C2520 C2524 1.385 . S
C2521 H2496 0.951 . S
C2521 C2519 1.388 . S
C2521 C2522 1.366 . S
C2522 C2521 1.366 . S
C2522 C2523 1.414 . S
C2522 C2525 1.499 . S
C2523 H2497 0.950 . S
C2523 C2522 1.414 . S
C2523 C2524 1.374 . S
C2524 H2498 0.950 . S
C2524 C2520 1.385 . S
C2524 C2523 1.374 . S
C2525 C2522 1.499 . S
C2525 C2526 1.373 . S
C2525 C2527 1.389 . S
C2526 H2499 0.950 . S
C2526 C2512 1.377 . S
C2526 C2525 1.373 . S
C2527 C2511 1.377 . S
C2527 C2525 1.389 . S
C2527 C2528 1.524 . S
C2528 C2527 1.524 . S
C2528 C2529 1.397 . S
C2528 C2533 1.363 . S
C2529 H2500 0.950 . S
C2529 C2528 1.397 . S
C2529 C2530 1.334 . S
C2530 H2501 0.950 . S
C2530 C2529 1.334 . S
C2530 C2531 1.287 . S
C2531 C2530 1.287 . S
C2531 C2532 1.524 . S
C2531 H2534 0.999 . S
C2532 H2502 0.950 . S
C2532 C2531 1.524 . S
C2532 C2533 1.415 . S
C2533 H2503 0.950 . S
C2533 C2528 1.363 . S
C2533 C2532 1.415 . S
H2534 C2531 0.999 . S
H2535 C2516 0.913 . S
H2536 C2554 0.951 . S
H2537 C2556 0.951 . S
H2538 C2558 0.950 . S
H2539 C2559 0.950 . S
H2540 C2561 0.950 . S
H2541 C2564 0.950 . S
H2542 C2565 0.950 . S
H2543 C2567 0.950 . S
H2544 C2568 0.950 . S
H2545 C2569 0.951 . S
H2546 C2571 0.951 . S
H2547 C2573 0.950 . S
H2548 C2574 0.950 . S
H2549 C2576 0.950 . S
H2550 C2579 0.950 . S
H2551 C2580 0.950 . S
H2552 C2582 0.950 . S
H2553 C2583 0.950 . S
C2554 H2536 0.951 . S
C2554 C2555 1.366 . S
C2554 C2556 1.388 . S
C2555 C2554 1.366 . S
C2555 C2559 1.385 . S
C2556 H2537 0.951 . S
C2556 C2554 1.388 . S
C2556 C2557 1.366 . S
C2557 C2556 1.366 . S
C2557 C2558 1.414 . S
C2557 C2560 1.499 . S
C2558 H2538 0.950 . S
C2558 C2557 1.414 . S
C2558 C2559 1.374 . S
C2559 H2539 0.950 . S
C2559 C2555 1.385 . S
C2559 C2558 1.374 . S
C2560 C2557 1.499 . S
C2560 C2561 1.373 . S
C2560 C2562 1.389 . S
C2561 H2540 0.950 . S
C2561 C2560 1.373 . S
C2561 C2577 1.377 . S
C2562 C2560 1.389 . S
C2562 C2563 1.524 . S
C2562 C2576 1.377 . S
C2563 C2562 1.524 . S
C2563 C2564 1.397 . S
C2563 C2568 1.363 . S
C2564 H2541 0.950 . S
C2564 C2563 1.397 . S
C2564 C2565 1.334 . S
C2565 H2542 0.950 . S
C2565 C2564 1.334 . S
C2565 C2566 1.287 . S
C2566 C2565 1.287 . S
C2566 C2567 1.524 . S
C2566 H2585 0.913 . S
C2567 H2543 0.950 . S
C2567 C2566 1.524 . S
C2567 C2568 1.415 . S
C2568 H2544 0.950 . S
C2568 C2563 1.363 . S
C2568 C2567 1.415 . S
C2569 H2545 0.951 . S
C2569 C2570 1.366 . S
C2569 C2571 1.388 . S
C2570 C2569 1.366 . S
C2570 C2574 1.385 . S
C2571 H2546 0.951 . S
C2571 C2569 1.388 . S
C2571 C2572 1.366 . S
C2572 C2571 1.366 . S
C2572 C2573 1.414 . S
C2572 C2575 1.499 . S
C2573 H2547 0.950 . S
C2573 C2572 1.414 . S
C2573 C2574 1.374 . S
C2574 H2548 0.950 . S
C2574 C2570 1.385 . S
C2574 C2573 1.374 . S
C2575 C2572 1.499 . S
C2575 C2576 1.373 . S
C2575 C2577 1.389 . S
C2576 H2549 0.950 . S
C2576 C2562 1.377 . S
C2576 C2575 1.373 . S
C2577 C2561 1.377 . S
C2577 C2575 1.389 . S
C2577 C2578 1.524 . S
C2578 C2577 1.524 . S
C2578 C2579 1.397 . S
C2578 C2583 1.363 . S
C2579 H2550 0.950 . S
C2579 C2578 1.397 . S
C2579 C2580 1.334 . S
C2580 H2551 0.950 . S
C2580 C2579 1.334 . S
C2580 C2581 1.287 . S
C2581 C2580 1.287 . S
C2581 C2582 1.524 . S
C2581 H2584 0.999 . S
C2582 H2552 0.950 . S
C2582 C2581 1.524 . S
C2582 C2583 1.415 . S
C2583 H2553 0.950 . S
C2583 C2578 1.363 . S
C2583 C2582 1.415 . S
H2584 C2581 0.999 . S
H2585 C2566 0.913 . S
H2586 C2604 0.951 . S
H2587 C2606 0.951 . S
H2588 C2608 0.950 . S
H2589 C2609 0.950 . S
H2590 C2611 0.950 . S
H2591 C2614 0.950 . S
H2592 C2615 0.950 . S
H2593 C2617 0.950 . S
H2594 C2618 0.950 . S
H2595 C2619 0.951 . S
H2596 C2621 0.951 . S
H2597 C2623 0.950 . S
H2598 C2624 0.950 . S
H2599 C2626 0.950 . S
H2600 C2629 0.950 . S
H2601 C2630 0.950 . S
H2602 C2632 0.950 . S
H2603 C2633 0.950 . S
C2604 H2586 0.951 . S
C2604 C2605 1.366 . S
C2604 C2606 1.388 . S
C2605 C2604 1.366 . S
C2605 C2609 1.385 . S
C2606 H2587 0.951 . S
C2606 C2604 1.388 . S
C2606 C2607 1.366 . S
C2607 C2606 1.366 . S
C2607 C2608 1.414 . S
C2607 C2610 1.499 . S
C2608 H2588 0.950 . S
C2608 C2607 1.414 . S
C2608 C2609 1.374 . S
C2609 H2589 0.950 . S
C2609 C2605 1.385 . S
C2609 C2608 1.374 . S
C2610 C2607 1.499 . S
C2610 C2611 1.373 . S
C2610 C2612 1.389 . S
C2611 H2590 0.950 . S
C2611 C2610 1.373 . S
C2611 C2627 1.377 . S
C2612 C2610 1.389 . S
C2612 C2613 1.524 . S
C2612 C2626 1.377 . S
C2613 C2612 1.524 . S
C2613 C2614 1.397 . S
C2613 C2618 1.363 . S
C2614 H2591 0.950 . S
C2614 C2613 1.397 . S
C2614 C2615 1.334 . S
C2615 H2592 0.950 . S
C2615 C2614 1.334 . S
C2615 C2616 1.287 . S
C2616 C2615 1.287 . S
C2616 C2617 1.524 . S
C2616 H2635 0.913 . S
C2617 H2593 0.950 . S
C2617 C2616 1.524 . S
C2617 C2618 1.415 . S
C2618 H2594 0.950 . S
C2618 C2613 1.363 . S
C2618 C2617 1.415 . S
C2619 H2595 0.951 . S
C2619 C2620 1.366 . S
C2619 C2621 1.388 . S
C2620 C2619 1.366 . S
C2620 C2624 1.385 . S
C2621 H2596 0.951 . S
C2621 C2619 1.388 . S
C2621 C2622 1.366 . S
C2622 C2621 1.366 . S
C2622 C2623 1.414 . S
C2622 C2625 1.499 . S
C2623 H2597 0.950 . S
C2623 C2622 1.414 . S
C2623 C2624 1.374 . S
C2624 H2598 0.950 . S
C2624 C2620 1.385 . S
C2624 C2623 1.374 . S
C2625 C2622 1.499 . S
C2625 C2626 1.373 . S
C2625 C2627 1.389 . S
C2626 H2599 0.950 . S
C2626 C2612 1.377 . S
C2626 C2625 1.373 . S
C2627 C2611 1.377 . S
C2627 C2625 1.389 . S
C2627 C2628 1.524 . S
C2628 C2627 1.524 . S
C2628 C2629 1.397 . S
C2628 C2633 1.363 . S
C2629 H2600 0.950 . S
C2629 C2628 1.397 . S
C2629 C2630 1.334 . S
C2630 H2601 0.950 . S
C2630 C2629 1.334 . S
C2630 C2631 1.287 . S
C2631 C2630 1.287 . S
C2631 C2632 1.524 . S
C2631 H2634 0.999 . S
C2632 H2602 0.950 . S
C2632 C2631 1.524 . S
C2632 C2633 1.415 . S
C2633 H2603 0.950 . S
C2633 C2628 1.363 . S
C2633 C2632 1.415 . S
H2634 C2631 0.999 . S
H2635 C2616 0.913 . S
H2636 C2654 0.951 . S
H2637 C2656 0.951 . S
H2638 C2658 0.950 . S
H2639 C2659 0.950 . S
H2640 C2661 0.950 . S
H2641 C2664 0.950 . S
H2642 C2665 0.950 . S
H2643 C2667 0.950 . S
H2644 C2668 0.950 . S
H2645 C2669 0.951 . S
H2646 C2671 0.951 . S
H2647 C2673 0.950 . S
H2648 C2674 0.950 . S
H2649 C2676 0.950 . S
H2650 C2679 0.950 . S
H2651 C2680 0.950 . S
H2652 C2682 0.950 . S
H2653 C2683 0.950 . S
C2654 H2636 0.951 . S
C2654 C2655 1.366 . S
C2654 C2656 1.388 . S
C2655 C2654 1.366 . S
C2655 C2659 1.385 . S
C2656 H2637 0.951 . S
C2656 C2654 1.388 . S
C2656 C2657 1.366 . S
C2657 C2656 1.366 . S
C2657 C2658 1.414 . S
C2657 C2660 1.499 . S
C2658 H2638 0.950 . S
C2658 C2657 1.414 . S
C2658 C2659 1.374 . S
C2659 H2639 0.950 . S
C2659 C2655 1.385 . S
C2659 C2658 1.374 . S
C2660 C2657 1.499 . S
C2660 C2661 1.373 . S
C2660 C2662 1.389 . S
C2661 H2640 0.950 . S
C2661 C2660 1.373 . S
C2661 C2677 1.377 . S
C2662 C2660 1.389 . S
C2662 C2663 1.524 . S
C2662 C2676 1.377 . S
C2663 C2662 1.524 . S
C2663 C2664 1.397 . S
C2663 C2668 1.363 . S
C2664 H2641 0.950 . S
C2664 C2663 1.397 . S
C2664 C2665 1.334 . S
C2665 H2642 0.950 . S
C2665 C2664 1.334 . S
C2665 C2666 1.287 . S
C2666 C2665 1.287 . S
C2666 C2667 1.524 . S
C2666 H2685 0.913 . S
C2667 H2643 0.950 . S
C2667 C2666 1.524 . S
C2667 C2668 1.415 . S
C2668 H2644 0.950 . S
C2668 C2663 1.363 . S
C2668 C2667 1.415 . S
C2669 H2645 0.951 . S
C2669 C2670 1.366 . S
C2669 C2671 1.388 . S
C2670 C2669 1.366 . S
C2670 C2674 1.385 . S
C2671 H2646 0.951 . S
C2671 C2669 1.388 . S
C2671 C2672 1.366 . S
C2672 C2671 1.366 . S
C2672 C2673 1.414 . S
C2672 C2675 1.499 . S
C2673 H2647 0.950 . S
C2673 C2672 1.414 . S
C2673 C2674 1.374 . S
C2674 H2648 0.950 . S
C2674 C2670 1.385 . S
C2674 C2673 1.374 . S
C2675 C2672 1.499 . S
C2675 C2676 1.373 . S
C2675 C2677 1.389 . S
C2676 H2649 0.950 . S
C2676 C2662 1.377 . S
C2676 C2675 1.373 . S
C2677 C2661 1.377 . S
C2677 C2675 1.389 . S
C2677 C2678 1.524 . S
C2678 C2677 1.524 . S
C2678 C2679 1.397 . S
C2678 C2683 1.363 . S
C2679 H2650 0.950 . S
C2679 C2678 1.397 . S
C2679 C2680 1.334 . S
C2680 H2651 0.950 . S
C2680 C2679 1.334 . S
C2680 C2681 1.287 . S
C2681 C2680 1.287 . S
C2681 C2682 1.524 . S
C2681 H2684 0.999 . S
C2682 H2652 0.950 . S
C2682 C2681 1.524 . S
C2682 C2683 1.415 . S
C2683 H2653 0.950 . S
C2683 C2678 1.363 . S
C2683 C2682 1.415 . S
H2684 C2681 0.999 . S
H2685 C2666 0.913 . S
H2686 C2704 0.951 . S
H2687 C2706 0.951 . S
H2688 C2708 0.950 . S
H2689 C2709 0.950 . S
H2690 C2711 0.950 . S
H2691 C2714 0.950 . S
H2692 C2715 0.950 . S
H2693 C2717 0.950 . S
H2694 C2718 0.950 . S
H2695 C2719 0.951 . S
H2696 C2721 0.951 . S
H2697 C2723 0.950 . S
H2698 C2724 0.950 . S
H2699 C2726 0.950 . S
H2700 C2729 0.950 . S
H2701 C2730 0.950 . S
H2702 C2732 0.950 . S
H2703 C2733 0.950 . S
C2704 H2686 0.951 . S
C2704 C2705 1.366 . S
C2704 C2706 1.388 . S
C2705 C2704 1.366 . S
C2705 C2709 1.385 . S
C2706 H2687 0.951 . S
C2706 C2704 1.388 . S
C2706 C2707 1.366 . S
C2707 C2706 1.366 . S
C2707 C2708 1.414 . S
C2707 C2710 1.499 . S
C2708 H2688 0.950 . S
C2708 C2707 1.414 . S
C2708 C2709 1.374 . S
C2709 H2689 0.950 . S
C2709 C2705 1.385 . S
C2709 C2708 1.374 . S
C2710 C2707 1.499 . S
C2710 C2711 1.373 . S
C2710 C2712 1.389 . S
C2711 H2690 0.950 . S
C2711 C2710 1.373 . S
C2711 C2727 1.377 . S
C2712 C2710 1.389 . S
C2712 C2713 1.524 . S
C2712 C2726 1.377 . S
C2713 C2712 1.524 . S
C2713 C2714 1.397 . S
C2713 C2718 1.363 . S
C2714 H2691 0.950 . S
C2714 C2713 1.397 . S
C2714 C2715 1.334 . S
C2715 H2692 0.950 . S
C2715 C2714 1.334 . S
C2715 C2716 1.287 . S
C2716 C2715 1.287 . S
C2716 C2717 1.524 . S
C2716 H2735 0.913 . S
C2717 H2693 0.950 . S
C2717 C2716 1.524 . S
C2717 C2718 1.415 . S
C2718 H2694 0.950 . S
C2718 C2713 1.363 . S
C2718 C2717 1.415 . S
C2719 H2695 0.951 . S
C2719 C2720 1.366 . S
C2719 C2721 1.388 . S
C2720 C2719 1.366 . S
C2720 C2724 1.385 . S
C2721 H2696 0.951 . S
C2721 C2719 1.388 . S
C2721 C2722 1.366 . S
C2722 C2721 1.366 . S
C2722 C2723 1.414 . S
C2722 C2725 1.499 . S
C2723 H2697 0.950 . S
C2723 C2722 1.414 . S
C2723 C2724 1.374 . S
C2724 H2698 0.950 . S
C2724 C2720 1.385 . S
C2724 C2723 1.374 . S
C2725 C2722 1.499 . S
C2725 C2726 1.373 . S
C2725 C2727 1.389 . S
C2726 H2699 0.950 . S
C2726 C2712 1.377 . S
C2726 C2725 1.373 . S
C2727 C2711 1.377 . S
C2727 C2725 1.389 . S
C2727 C2728 1.524 . S
C2728 C2727 1.524 . S
C2728 C2729 1.397 . S
C2728 C2733 1.363 . S
C2729 H2700 0.950 . S
C2729 C2728 1.397 . S
C2729 C2730 1.334 . S
C2730 H2701 0.950 . S
C2730 C2729 1.334 . S
C2730 C2731 1.287 . S
C2731 C2730 1.287 . S
C2731 C2732 1.524 . S
C2731 H2734 0.999 . S
C2732 H2702 0.950 . S
C2732 C2731 1.524 . S
C2732 C2733 1.415 . S
C2733 H2703 0.950 . S
C2733 C2728 1.363 . S
C2733 C2732 1.415 . S
H2734 C2731 0.999 . S
H2735 C2716 0.913 . S
C355 C309 1.616 . S
C370 C0 1.613 . S
C405 C15 1.616 . S
C420 C335 1.620 . S
C455 C281 1.616 . S
C470 C40 1.621 . S
C505 C295 1.616 . S
C520 C54 1.613 . S
C555 C294 1.617 . S
C570 C69 1.620 . S
C605 C82 1.617 . S
C620 C308 1.613 . S
C655 C334 1.617 . S
C670 C96 1.613 . S
C705 C110 1.617 . S
C720 C280 1.621 . S
C755 C124 1.617 . S
C770 C279 1.611 . S
C805 C224 1.617 . S
C820 C126 1.613 . S
C855 C140 1.617 . S
C870 C250 1.613 . S
C905 C252 1.617 . S
C920 C167 1.612 . S
C955 C166 1.617 . S
C970 C182 1.621 . S
C1005 C125 1.616 . S
C1020 C197 1.620 . S
C1055 C211 1.616 . S
C1070 C127 1.620 . S
C1105 C141 1.616 . S
C1120 C180 1.621 . S
C1155 C14 1.617 . S
C1170 C253 1.612 . S
C1205 C196 1.617 . S
C1220 C111 1.611 . S
C1255 C68 1.617 . S
C1270 C210 1.613 . S
C1305 C181 1.616 . S
C1320 C83 1.620 . S
C1355 C97 1.616 . S
C1370 C183 1.620 . S
C1405 C55 1.616 . S
C1420 C225 1.620 . S
C1455 C1 1.616 . S
C1470 C251 1.620 . S
C1505 C41 1.616 . S
C1520 C278 1.613 . S
C1555 C85 1.617 . S
C1570 C292 1.620 . S
C1605 C306 1.616 . S
C1620 C99 1.613 . S
C1655 C320 1.616 . S
C1670 C56 1.611 . S
C1705 C322 1.616 . S
C1720 C71 1.621 . S
C1755 C29 1.617 . S
C1770 C323 1.612 . S
C1805 C43 1.617 . S
C1820 C293 1.621 . S
C1855 C13 1.617 . S
C1870 C307 1.621 . S
C1905 C321 1.617 . S
C1920 C26 1.611 . S
C1955 C153 1.617 . S
C1970 C195 1.621 . S
C2005 C154 1.616 . S
C2020 C208 1.620 . S
C2055 C113 1.617 . S
C2070 C222 1.620 . S
C2105 C139 1.617 . S
C2120 C169 1.621 . S
C2155 C138 1.616 . S
C2170 C266 1.611 . S
C2205 C237 1.617 . S
C2220 C152 1.611 . S
C2255 C155 1.617 . S
C2270 C239 1.613 . S
C2305 C112 1.616 . S
C2320 C265 1.612 . S
C2355 C168 1.616 . S
C2370 C98 1.620 . S
C2405 C236 1.616 . S
C2420 C27 1.621 . S
C2455 C28 1.616 . S
C2470 C238 1.620 . S
C2505 C264 1.616 . S
C2520 C42 1.611 . S
C2555 C267 1.617 . S
C2570 C12 1.611 . S
C2605 C70 1.616 . S
C2620 C209 1.613 . S
C2655 C223 1.617 . S
C2670 C84 1.612 . S
C2705 C194 1.616 . S
C2720 C57 1.621 . S
