# Generated by pormake.
# Topology fnh, (5)-cn, num edge types: 1
# Building blocks:
#     Node 0, Type 0, BuildingBlock: XOMCOT_clean_sbu_0, # of connection points: 5
#     Node 1, Type 0, BuildingBlock: XOMCOT_clean_sbu_0, # of connection points: 5
#     Node 2, Type 0, BuildingBlock: XOMCOT_clean_sbu_0, # of connection points: 5
#     Node 3, Type 0, BuildingBlock: XOMCOT_clean_sbu_0, # of connection points: 5
#     Node 4, Type 0, BuildingBlock: XOMCOT_clean_sbu_0, # of connection points: 5
#     Node 5, Type 0, BuildingBlock: XOMCOT_clean_sbu_0, # of connection points: 5
#     Node 6, Type 0, BuildingBlock: XOMCOT_clean_sbu_0, # of connection points: 5
#     Node 7, Type 0, BuildingBlock: XOMCOT_clean_sbu_0, # of connection points: 5
#     Node 8, Type 0, BuildingBlock: XOMCOT_clean_sbu_0, # of connection points: 5
#     Node 9, Type 0, BuildingBlock: XOMCOT_clean_sbu_0, # of connection points: 5
#     Node 10, Type 0, BuildingBlock: XOMCOT_clean_sbu_0, # of connection points: 5
#     Node 11, Type 0, BuildingBlock: XOMCOT_clean_sbu_0, # of connection points: 5
#     Node 12, Type 0, BuildingBlock: XOMCOT_clean_sbu_0, # of connection points: 5
#     Node 13, Type 0, BuildingBlock: XOMCOT_clean_sbu_0, # of connection points: 5
#     Node 14, Type 0, BuildingBlock: XOMCOT_clean_sbu_0, # of connection points: 5
#     Node 15, Type 0, BuildingBlock: XOMCOT_clean_sbu_0, # of connection points: 5
#     Node 16, Type 0, BuildingBlock: XOMCOT_clean_sbu_0, # of connection points: 5
#     Node 17, Type 0, BuildingBlock: XOMCOT_clean_sbu_0, # of connection points: 5
#     Edge 18, Type (0, 0), BuildingBlock: KIFKEQ_clean_linker_1, # of connection points: 2
#     Edge 19, Type (0, 0), BuildingBlock: KIFKEQ_clean_linker_1, # of connection points: 2
#     Edge 20, Type (0, 0), BuildingBlock: KIFKEQ_clean_linker_1, # of connection points: 2
#     Edge 21, Type (0, 0), BuildingBlock: KIFKEQ_clean_linker_1, # of connection points: 2
#     Edge 22, Type (0, 0), BuildingBlock: KIFKEQ_clean_linker_1, # of connection points: 2
#     Edge 23, Type (0, 0), BuildingBlock: KIFKEQ_clean_linker_1, # of connection points: 2
#     Edge 24, Type (0, 0), BuildingBlock: KIFKEQ_clean_linker_1, # of connection points: 2
#     Edge 25, Type (0, 0), BuildingBlock: KIFKEQ_clean_linker_1, # of connection points: 2
#     Edge 26, Type (0, 0), BuildingBlock: KIFKEQ_clean_linker_1, # of connection points: 2
#     Edge 27, Type (0, 0), BuildingBlock: KIFKEQ_clean_linker_1, # of connection points: 2
#     Edge 28, Type (0, 0), BuildingBlock: KIFKEQ_clean_linker_1, # of connection points: 2
#     Edge 29, Type (0, 0), BuildingBlock: KIFKEQ_clean_linker_1, # of connection points: 2
#     Edge 30, Type (0, 0), BuildingBlock: KIFKEQ_clean_linker_1, # of connection points: 2
#     Edge 31, Type (0, 0), BuildingBlock: KIFKEQ_clean_linker_1, # of connection points: 2
#     Edge 32, Type (0, 0), BuildingBlock: KIFKEQ_clean_linker_1, # of connection points: 2
#     Edge 33, Type (0, 0), BuildingBlock: KIFKEQ_clean_linker_1, # of connection points: 2
#     Edge 34, Type (0, 0), BuildingBlock: KIFKEQ_clean_linker_1, # of connection points: 2
#     Edge 35, Type (0, 0), BuildingBlock: KIFKEQ_clean_linker_1, # of connection points: 2
#     Edge 36, Type (0, 0), BuildingBlock: KIFKEQ_clean_linker_1, # of connection points: 2
#     Edge 37, Type (0, 0), BuildingBlock: KIFKEQ_clean_linker_1, # of connection points: 2
#     Edge 38, Type (0, 0), BuildingBlock: KIFKEQ_clean_linker_1, # of connection points: 2
#     Edge 39, Type (0, 0), BuildingBlock: KIFKEQ_clean_linker_1, # of connection points: 2
#     Edge 40, Type (0, 0), BuildingBlock: KIFKEQ_clean_linker_1, # of connection points: 2
#     Edge 41, Type (0, 0), BuildingBlock: KIFKEQ_clean_linker_1, # of connection points: 2
#     Edge 42, Type (0, 0), BuildingBlock: KIFKEQ_clean_linker_1, # of connection points: 2
#     Edge 43, Type (0, 0), BuildingBlock: KIFKEQ_clean_linker_1, # of connection points: 2
#     Edge 44, Type (0, 0), BuildingBlock: KIFKEQ_clean_linker_1, # of connection points: 2
#     Edge 45, Type (0, 0), BuildingBlock: KIFKEQ_clean_linker_1, # of connection points: 2
#     Edge 46, Type (0, 0), BuildingBlock: KIFKEQ_clean_linker_1, # of connection points: 2
#     Edge 47, Type (0, 0), BuildingBlock: KIFKEQ_clean_linker_1, # of connection points: 2
#     Edge 48, Type (0, 0), BuildingBlock: KIFKEQ_clean_linker_1, # of connection points: 2
#     Edge 49, Type (0, 0), BuildingBlock: KIFKEQ_clean_linker_1, # of connection points: 2
#     Edge 50, Type (0, 0), BuildingBlock: KIFKEQ_clean_linker_1, # of connection points: 2
#     Edge 51, Type (0, 0), BuildingBlock: KIFKEQ_clean_linker_1, # of connection points: 2
#     Edge 52, Type (0, 0), BuildingBlock: KIFKEQ_clean_linker_1, # of connection points: 2
#     Edge 53, Type (0, 0), BuildingBlock: KIFKEQ_clean_linker_1, # of connection points: 2
#     Edge 54, Type (0, 0), BuildingBlock: KIFKEQ_clean_linker_1, # of connection points: 2
#     Edge 55, Type (0, 0), BuildingBlock: KIFKEQ_clean_linker_1, # of connection points: 2
#     Edge 56, Type (0, 0), BuildingBlock: KIFKEQ_clean_linker_1, # of connection points: 2
#     Edge 57, Type (0, 0), BuildingBlock: KIFKEQ_clean_linker_1, # of connection points: 2
#     Edge 58, Type (0, 0), BuildingBlock: KIFKEQ_clean_linker_1, # of connection points: 2
#     Edge 59, Type (0, 0), BuildingBlock: KIFKEQ_clean_linker_1, # of connection points: 2
#     Edge 60, Type (0, 0), BuildingBlock: KIFKEQ_clean_linker_1, # of connection points: 2
#     Edge 61, Type (0, 0), BuildingBlock: KIFKEQ_clean_linker_1, # of connection points: 2
#     Edge 62, Type (0, 0), BuildingBlock: KIFKEQ_clean_linker_1, # of connection points: 2
# Relax obj value: 0.207
# Max RMSD: 0.209
# Mean RMSD: 0.209
data_MOF--net-fnh--node1-XOMCOT_clean_sbu_0--edge1-KIFKEQ_clean_linker_1
_symmetry_space_group_name_H-M    P1
_symmetry_Int_Tables_number       1
_symmetry_cell_setting            triclinic
loop_
_symmetry_equiv_pos_as_xyz
'x, y, z'
_cell_length_a     69.276184
_cell_length_b     69.323092
_cell_length_c     23.626529
_cell_angle_alpha  89.85422
_cell_angle_beta   90.059389
_cell_angle_gamma 120.00376
loop_
_atom_site_label
_atom_site_type_symbol
_atom_site_fract_x
_atom_site_fract_y
_atom_site_fract_z
_atom_type_partial_charge
Co0 Co 0.11002 0.1922 0.30502 0.0
C1 C 0.0727 0.1977 0.34544 0.0
C2 C 0.06694 0.16505 0.36445 0.0
C3 C 0.04931 0.16692 0.38473 0.0
N4 N 0.08193 0.18464 0.34087 0.0
N5 N 0.05314 0.18759 0.37286 0.0
H6 H 0.08017 0.21463 0.33047 0.0
H7 H 0.06882 0.15054 0.36834 0.0
C8 C 0.08148 0.19202 0.20361 0.0
O9 O 0.08174 0.20918 0.22752 0.0
N10 N 0.13753 0.19949 0.26854 0.0
C11 C 0.15823 0.21534 0.28375 0.0
C12 C 0.17309 0.21591 0.24418 0.0
C13 C 0.13995 0.19039 0.22099 0.0
N14 N 0.16149 0.20015 0.20508 0.0
C15 C 0.12155 0.23348 0.35697 0.0
C16 C 0.13935 0.26174 0.26544 0.0
C17 C 0.14183 0.27119 0.31977 0.0
C18 C 0.13212 0.25645 0.36525 0.0
C19 C 0.12833 0.23825 0.25874 0.0
N20 N 0.11942 0.22431 0.30444 0.0
H21 H 0.11515 0.22286 0.3938 0.0
H22 H 0.1279 0.23136 0.21742 0.0
H23 H 0.16214 0.22602 0.32032 0.0
H24 H 0.12618 0.17733 0.19767 0.0
O25 O 0.12384 0.19315 0.37827 0.0
O26 O 0.10665 0.16276 0.32837 0.0
O27 O 0.09309 0.18411 0.2267 0.0
C28 C 0.11803 0.17237 0.37419 0.0
H29 H 0.03556 0.15459 0.40977 0.0
H30 H 0.19096 0.227 0.24405 0.0
H31 H 0.14677 0.27236 0.22887 0.0
H32 H 0.13305 0.2626 0.40785 0.0
Co33 Co 0.86031 0.93454 0.30025 0.0
C34 C 0.85953 0.8936 0.33896 0.0
C35 C 0.89256 0.92146 0.33191 0.0
C36 C 0.89396 0.90245 0.3367 0.0
N37 N 0.87091 0.91598 0.33304 0.0
N38 N 0.87311 0.88497 0.34002 0.0
H39 H 0.84167 0.88331 0.33674 0.0
H40 H 0.90642 0.9379 0.32327 0.0
C41 C 0.86135 0.90646 0.20036 0.0
O42 O 0.84542 0.8893 0.22716 0.0
N43 N 0.85068 0.95327 0.26562 0.0
C44 C 0.83327 0.95591 0.27952 0.0
C45 C 0.83276 0.97109 0.24256 0.0
C46 C 0.86075 0.96699 0.22182 0.0
N47 N 0.85017 0.97805 0.20685 0.0
C48 C 0.8201 0.90341 0.35559 0.0
C49 C 0.7912 0.8897 0.26501 0.0
C50 C 0.78203 0.8826 0.31981 0.0
C51 C 0.79723 0.88986 0.36502 0.0
C52 C 0.81449 0.90374 0.25739 0.0
N53 N 0.82881 0.91018 0.3025 0.0
H54 H 0.83098 0.9088 0.39201 0.0
H55 H 0.82089 0.91002 0.21553 0.0
H56 H 0.82173 0.94732 0.31375 0.0
H57 H 0.87536 0.96858 0.2008 0.0
O58 O 0.85957 0.94693 0.37428 0.0
O59 O 0.88919 0.96191 0.32107 0.0
O60 O 0.86797 0.92621 0.22057 0.0
C61 C 0.87991 0.96282 0.36841 0.0
H62 H 0.9091 0.90154 0.33657 0.0
H63 H 0.82074 0.97673 0.24219 0.0
H64 H 0.78055 0.88483 0.22812 0.0
H65 H 0.79166 0.88593 0.40841 0.0
Co66 Co 0.12207 0.93979 0.312 0.0
C67 C 0.14142 0.96579 0.41518 0.0
C68 C 0.16176 0.98252 0.34348 0.0
C69 C 0.17414 0.99166 0.39153 0.0
N70 N 0.14141 0.96558 0.35808 0.0
N71 N 0.16143 0.98063 0.43632 0.0
H72 H 0.12846 0.95304 0.44101 0.0
H73 H 0.16835 0.9868 0.30143 0.0
C74 C 0.14981 0.96842 0.20696 0.0
O75 O 0.16555 0.96389 0.21972 0.0
N76 N 0.10302 0.91425 0.26738 0.0
C77 C 0.09691 0.89296 0.27967 0.0
C78 C 0.08284 0.87952 0.23792 0.0
C79 C 0.09262 0.91363 0.21892 0.0
N80 N 0.08023 0.89258 0.19989 0.0
C81 C 0.15368 0.92964 0.36099 0.0
C82 C 0.16327 0.9117 0.26881 0.0
C83 C 0.17225 0.91075 0.32184 0.0
C84 C 0.16706 0.92001 0.36788 0.0
C85 C 0.14968 0.9216 0.26371 0.0
N86 N 0.14542 0.93107 0.30947 0.0
H87 H 0.1487 0.9344 0.39895 0.0
H88 H 0.14208 0.921 0.22326 0.0
H89 H 0.10243 0.88763 0.31629 0.0
H90 H 0.09374 0.92818 0.19871 0.0
O91 O 0.10692 0.9221 0.37958 0.0
O92 O 0.09574 0.94245 0.33523 0.0
O93 O 0.13214 0.96019 0.23863 0.0
C94 C 0.09246 0.92872 0.37701 0.0
H95 H 0.19167 1.00409 0.39313 0.0
H96 H 0.07534 0.8616 0.2354 0.0
H97 H 0.16634 0.90456 0.23161 0.0
H98 H 0.17219 0.9188 0.4104 0.0
Co99 Co 0.19781 0.10399 0.75904 0.0
C100 C 0.19923 0.06364 0.72565 0.0
C101 C 0.16612 0.05851 0.72661 0.0
C102 C 0.16481 0.03811 0.72349 0.0
N103 N 0.18777 0.07468 0.72806 0.0
N104 N 0.18568 0.04146 0.72387 0.0
H105 H 0.21702 0.07117 0.73023 0.0
H106 H 0.15208 0.06107 0.73193 0.0
C107 C 0.19795 0.07639 0.86154 0.0
O108 O 0.21482 0.07638 0.83652 0.0
N109 N 0.20681 0.13247 0.79187 0.0
C110 C 0.22351 0.15266 0.77586 0.0
C111 C 0.22398 0.16841 0.81232 0.0
C112 C 0.19707 0.13607 0.83636 0.0
N113 N 0.20722 0.15782 0.84979 0.0
C114 C 0.23829 0.1123 0.70601 0.0
C115 C 0.26708 0.13193 0.79566 0.0
C116 C 0.27624 0.13229 0.74205 0.0
C117 C 0.26127 0.1219 0.69737 0.0
C118 C 0.24371 0.12161 0.80288 0.0
N119 N 0.22947 0.11174 0.75827 0.0
H120 H 0.22741 0.10552 0.66979 0.0
H121 H 0.23713 0.1225 0.84368 0.0
H122 H 0.23466 0.15565 0.74069 0.0
H123 H 0.18306 0.12297 0.85906 0.0
O124 O 0.1986 0.11657 0.68402 0.0
O125 O 0.16882 0.10191 0.73679 0.0
O126 O 0.19025 0.08839 0.83946 0.0
C127 C 0.17817 0.11197 0.68928 0.0
H128 H 0.14968 0.02206 0.72181 0.0
H129 H 0.23555 0.18616 0.81126 0.0
H130 H 0.27789 0.13989 0.83155 0.0
H131 H 0.26729 0.12209 0.65496 0.0
Co132 Co 0.94798 0.11127 0.75065 0.0
C133 C 0.98445 0.15395 0.70644 0.0
C134 C 0.99047 0.1272 0.68824 0.0
C135 C 1.00737 0.14652 0.66486 0.0
N136 N 0.97573 0.1318 0.71321 0.0
N137 N 1.00333 0.16324 0.67615 0.0
H138 H 0.97697 0.1634 0.72139 0.0
H139 H 0.98877 0.11088 0.68499 0.0
C140 C 0.97747 0.14008 0.85001 0.0
O141 O 0.97752 0.15701 0.82502 0.0
N142 N 0.92078 0.09109 0.78855 0.0
C143 C 0.89996 0.08601 0.77387 0.0
C144 C 0.88539 0.07189 0.81425 0.0
C145 C 0.91872 0.07992 0.8367 0.0
N146 N 0.89728 0.06812 0.85345 0.0
C147 C 0.93548 0.1403 0.69839 0.0
C148 C 0.91911 0.15189 0.79059 0.0
C149 C 0.91592 0.15832 0.73612 0.0
C150 C 0.9249 0.15271 0.69026 0.0
C151 C 0.93013 0.13937 0.79711 0.0
N152 N 0.93836 0.13381 0.75105 0.0
H153 H 0.9414 0.13575 0.66132 0.0
H154 H 0.93116 0.13337 0.83867 0.0
H155 H 0.89576 0.09247 0.73704 0.0
H156 H 0.93268 0.08089 0.85979 0.0
O157 O 0.93373 0.09803 0.67816 0.0
O158 O 0.95146 0.08526 0.7277 0.0
O159 O 0.96537 0.12045 0.82825 0.0
C160 C 0.93978 0.08324 0.68224 0.0
H161 H 1.02057 0.1478 0.63783 0.0
H162 H 0.86749 0.06496 0.81479 0.0
H163 H 0.91227 0.15556 0.82747 0.0
H164 H 0.92342 0.1575 0.64752 0.0
Co165 Co 0.93971 0.84926 0.74999 0.0
C166 C 0.91973 0.85678 0.6489 0.0
C167 C 0.89953 0.85189 0.72179 0.0
C168 C 0.8869 0.84902 0.67442 0.0
N169 N 0.91994 0.85583 0.70592 0.0
N170 N 0.8995 0.85144 0.62882 0.0
H171 H 0.93265 0.8574 0.62217 0.0
H172 H 0.89301 0.84869 0.76403 0.0
C173 C 0.91269 0.8493 0.85689 0.0
O174 O 0.89758 0.8287 0.84501 0.0
N175 N 0.95934 0.84291 0.79285 0.0
C176 C 0.9658 0.82812 0.7792 0.0
C177 C 0.98069 0.82922 0.81925 0.0
C178 C 0.97046 0.85301 0.84022 0.0
N179 N 0.98359 0.84489 0.85741 0.0
C180 C 0.90676 0.80764 0.70259 0.0
C181 C 0.90144 0.77966 0.79152 0.0
C182 C 0.89185 0.77005 0.73889 0.0
C183 C 0.89421 0.78464 0.69502 0.0
C184 C 0.91387 0.80317 0.79763 0.0
N185 N 0.91647 0.81712 0.75324 0.0
H186 H 0.90996 0.81757 0.66527 0.0
H187 H 0.92223 0.81003 0.83739 0.0
H188 H 0.96013 0.81738 0.74252 0.0
H189 H 0.96894 0.86597 0.86157 0.0
O190 O 0.95411 0.84668 0.68121 0.0
O191 O 0.96585 0.87822 0.72562 0.0
O192 O 0.93003 0.85933 0.82427 0.0
C193 C 0.96875 0.86771 0.68348 0.0
H194 H 0.86924 0.84341 0.67372 0.0
H195 H 0.98909 0.8196 0.81955 0.0
H196 H 0.90035 0.7692 0.82687 0.0
H197 H 0.88713 0.77838 0.65364 0.0
Co198 Co 0.77719 0.52408 0.63517 0.0
C199 C 0.74885 0.51655 0.73447 0.0
C200 C 0.73451 0.52194 0.66021 0.0
C201 C 0.72422 0.52462 0.70669 0.0
N202 N 0.75061 0.51768 0.67757 0.0
N203 N 0.73376 0.52184 0.75319 0.0
H204 H 0.76079 0.5157 0.7622 0.0
H205 H 0.73192 0.52558 0.61764 0.0
C206 C 0.75108 0.52373 0.52549 0.0
O207 O 0.75707 0.54462 0.5348 0.0
N208 N 0.80351 0.53041 0.5936 0.0
C209 C 0.82465 0.54505 0.60874 0.0
C210 C 0.83876 0.54528 0.56765 0.0
C211 C 0.80494 0.52172 0.54409 0.0
N212 N 0.82633 0.53062 0.52714 0.0
C213 C 0.78536 0.56581 0.68094 0.0
C214 C 0.8084 0.59351 0.59195 0.0
C215 C 0.80722 0.60329 0.64317 0.0
C216 C 0.79517 0.58884 0.68743 0.0
C217 C 0.79784 0.57003 0.58679 0.0
N218 N 0.78611 0.55619 0.63099 0.0
H219 H 0.77864 0.556 0.71847 0.0
H220 H 0.79986 0.5631 0.54778 0.0
H221 H 0.82944 0.55508 0.64672 0.0
H222 H 0.79065 0.50941 0.52069 0.0
O223 O 0.7937 0.52669 0.70507 0.0
O224 O 0.77408 0.49512 0.66058 0.0
O225 O 0.75771 0.51376 0.56045 0.0
C226 C 0.78721 0.50563 0.70324 0.0
H227 H 0.71224 0.53032 0.70627 0.0
H228 H 0.85677 0.55521 0.56795 0.0
H229 H 0.81771 0.60387 0.55642 0.0
H230 H 0.79445 0.59527 0.72863 0.0
Co231 Co 0.52313 0.26326 0.63478 0.0
C232 C 0.51737 0.22028 0.67499 0.0
C233 C 0.5497 0.24716 0.69663 0.0
C234 C 0.54754 0.22761 0.71759 0.0
N235 N 0.53046 0.2426 0.67106 0.0
N236 N 0.52706 0.2108 0.70417 0.0
H237 H 0.50058 0.21087 0.65907 0.0
H238 H 0.56408 0.26355 0.7018 0.0
C239 C 0.52304 0.23484 0.53357 0.0
O240 O 0.50531 0.21816 0.55648 0.0
N241 N 0.516 0.28358 0.59765 0.0
C242 C 0.50259 0.29098 0.61715 0.0
C243 C 0.50024 0.30357 0.57545 0.0
C244 C 0.52162 0.29163 0.5448 0.0
N245 N 0.51208 0.30375 0.53 0.0
C246 C 0.48173 0.23329 0.68652 0.0
C247 C 0.45352 0.22426 0.59562 0.0
C248 C 0.44396 0.21657 0.64972 0.0
C249 C 0.45872 0.22086 0.69481 0.0
C250 C 0.47703 0.23649 0.58882 0.0
N251 N 0.49095 0.24077 0.63416 0.0
H252 H 0.49233 0.2371 0.72322 0.0
H253 H 0.48396 0.24329 0.54768 0.0
H254 H 0.49451 0.28691 0.65809 0.0
H255 H 0.53235 0.28861 0.51753 0.0
O256 O 0.52211 0.27602 0.70789 0.0
O257 O 0.55261 0.2892 0.65817 0.0
O258 O 0.53134 0.25427 0.55701 0.0
C259 C 0.54293 0.29092 0.70393 0.0
H260 H 0.55941 0.22616 0.74449 0.0
H261 H 0.49008 0.31137 0.57767 0.0
H262 H 0.44302 0.22173 0.55924 0.0
H263 H 0.45265 0.21501 0.73718 0.0
Co264 Co 0.78194 0.27036 0.63636 0.0
C265 C 0.82024 0.29124 0.71263 0.0
C266 C 0.8083 0.31368 0.69238 0.0
C267 C 0.8264 0.32438 0.72783 0.0
N268 N 0.80504 0.29321 0.68146 0.0
N269 N 0.83388 0.31021 0.74002 0.0
H270 H 0.82098 0.27609 0.71656 0.0
H271 H 0.79829 0.32033 0.6755 0.0
C272 C 0.81096 0.30931 0.5504 0.0
O273 O 0.82721 0.31833 0.58739 0.0
N274 N 0.7584 0.24692 0.59219 0.0
C275 C 0.74126 0.22742 0.61118 0.0
C276 C 0.72943 0.21473 0.56565 0.0
C277 C 0.75653 0.24586 0.53537 0.0
N278 N 0.7391 0.22644 0.51844 0.0
C279 C 0.79202 0.23543 0.64525 0.0
C280 C 0.83583 0.25758 0.61012 0.0
C281 C 0.8274 0.23637 0.63528 0.0
C282 C 0.80493 0.22524 0.6514 0.0
C283 C 0.82205 0.26718 0.60376 0.0
N284 N 0.80052 0.25641 0.62328 0.0
H285 H 0.7753 0.22667 0.66177 0.0
H286 H 0.82925 0.28373 0.58657 0.0
H287 H 0.73765 0.22236 0.65497 0.0
H288 H 0.76776 0.25871 0.50653 0.0
O289 O 0.76793 0.25437 0.70665 0.0
O290 O 0.75985 0.2781 0.66807 0.0
O291 O 0.7931 0.29058 0.56267 0.0
C292 C 0.75601 0.26394 0.70918 0.0
H293 H 0.83292 0.3409 0.74537 0.0
H294 H 0.71466 0.19838 0.56697 0.0
H295 H 0.85302 0.26685 0.59632 0.0
H296 H 0.79748 0.20905 0.67164 0.0
Co297 Co 0.86633 0.43415 0.08229 0.0
C298 C 0.86833 0.3952 0.03871 0.0
C299 C 0.83523 0.3901 0.03558 0.0
C300 C 0.83446 0.3705 1.02135 0.0
N301 N 0.85656 0.4057 0.04619 0.0
N302 N 0.85532 0.37372 1.02408 0.0
H303 H 0.88584 0.40246 0.04767 0.0
H304 H 0.82097 0.39237 0.04003 0.0
C305 C 0.86271 0.40291 0.18158 0.0
O306 O 0.87699 0.39911 0.15464 0.0
N307 N 0.87554 0.4619 0.1194 0.0
C308 C 0.89124 0.48252 0.1032 0.0
C309 C 0.89247 0.49745 0.14358 0.0
C310 C 0.86741 0.46439 0.16853 0.0
N311 N 0.87756 0.48586 0.18462 0.0
C312 C 0.9072 0.44466 1.02902 0.0
C313 C 0.9349 0.45716 0.12194 0.0
C314 C 0.94476 0.4607 0.06754 0.0
C315 C 0.93015 0.45411 1.02116 0.0
C316 C 0.91149 0.44779 0.12804 0.0
N317 N 0.89783 0.44142 0.08165 0.0
H318 H 0.89682 0.44014 0.99176 0.0
H319 H 0.90452 0.4464 0.16979 0.0
H320 H 0.90117 0.48636 0.06512 0.0
H321 H 0.85408 0.45076 0.19168 0.0
O322 O 0.86756 0.44834 1.00932 0.0
O323 O 0.83755 0.43275 0.06123 0.0
O324 O 0.85799 0.41742 0.16087 0.0
C325 C 0.84713 0.44369 1.01483 0.0
H326 H 0.81963 0.35513 1.00991 0.0
H327 H 0.90364 0.51529 0.1433 0.0
H328 H 0.9451 0.46186 0.15965 0.0
H329 H 0.93625 0.45689 0.97812 0.0
Co330 Co 0.61071 0.43795 0.08925 0.0
C331 C 0.65094 0.4795 0.05376 0.0
C332 C 0.65634 0.45173 0.05835 0.0
C333 C 0.67666 0.47085 0.05325 0.0
N334 N 0.6401 0.45709 0.05856 0.0
N335 N 0.67315 0.48826 0.05127 0.0
H336 H 0.64325 0.48966 0.05673 0.0
H337 H 0.65388 0.43524 0.06543 0.0
C338 C 0.63833 0.46507 0.19244 0.0
O339 O 0.63982 0.48259 0.16695 0.0
N340 N 0.58205 0.41869 0.12183 0.0
C341 C 0.56202 0.41523 0.10457 0.0
C342 C 0.54592 0.39975 0.14012 0.0
C343 C 0.57803 0.40526 0.16652 0.0
N344 N 0.55611 0.39349 0.17867 0.0
C345 C 0.60161 0.46928 0.03494 0.0
C346 C 0.58465 0.48103 0.12569 0.0
C347 C 0.58259 0.48809 0.07111 0.0
C348 C 0.59153 0.48218 1.02581 0.0
C349 C 0.59459 0.4676 0.13301 0.0
N350 N 0.60322 0.46204 0.08783 0.0
H351 H 0.60784 0.46469 0.99855 0.0
H352 H 0.59443 0.46089 0.17449 0.0
H353 H 0.55934 0.42337 0.06877 0.0
H354 H 0.59097 0.40429 0.18992 0.0
O355 O 0.5983 0.42621 1.01421 0.0
O356 O 0.61266 0.41095 0.06757 0.0
O357 O 0.62601 0.44564 0.16965 0.0
C358 C 0.60278 0.41034 1.01984 0.0
H359 H 0.69275 0.47186 0.05143 0.0
H360 H 0.52814 0.39335 0.13736 0.0
H361 H 0.57768 0.48492 0.16194 0.0
H362 H 0.59043 0.48723 0.98304 0.0
Co363 Co 0.60334 0.1821 0.08074 0.0
C364 C 0.5607 0.17665 0.03856 0.0
C365 C 0.58756 0.2096 1.02217 0.0
C366 C 0.56826 0.20751 0.9995 0.0
N367 N 0.58287 0.18996 0.04561 0.0
N368 N 0.55146 0.18664 1.00966 0.0
H369 H 0.55121 0.15959 0.05257 0.0
H370 H 0.60393 0.22421 1.01943 0.0
C371 C 0.57513 0.18258 0.18148 0.0
O372 O 0.55801 0.16623 0.15582 0.0
N373 N 0.62355 0.17441 0.11564 0.0
C374 C 0.62649 0.15714 0.10215 0.0
C375 C 0.643 0.1579 0.13606 0.0
C376 C 0.63859 0.18581 0.15604 0.0
N377 N 0.65059 0.17602 0.16917 0.0
C378 C 0.57381 0.1408 1.02803 0.0
C379 C 0.56203 0.11267 0.12025 0.0
C380 C 0.55558 0.10314 0.06583 0.0
C381 C 0.56128 0.11781 1.01992 0.0
C382 C 0.57468 0.13616 0.12673 0.0
N383 N 0.58041 0.15003 0.08068 0.0
H384 H 0.57843 0.15136 0.99102 0.0
H385 H 0.58078 0.14307 0.16825 0.0
H386 H 0.61731 0.1449 0.06985 0.0
H387 H 0.64059 0.20079 0.17571 0.0
O388 O 0.61621 0.18169 1.00717 0.0
O389 O 0.6295 0.21164 0.05893 0.0
O390 O 0.59477 0.18981 0.15979 0.0
C391 C 0.63135 0.20238 1.01261 0.0
H392 H 0.56705 0.2198 0.97373 0.0
H393 H 0.64914 0.14628 0.13615 0.0
H394 H 0.5583 0.10209 0.15715 0.0
H395 H 0.55647 0.11159 0.97722 0.0
Co396 Co 0.44553 0.85671 0.9749 0.0
C397 C 0.4227 0.87281 0.04834 0.0
C398 C 0.40149 0.83819 1.02856 0.0
C399 C 0.38994 0.84499 0.06279 0.0
N400 N 0.42175 0.85591 1.01822 0.0
N401 N 0.40334 0.86679 0.07472 0.0
H402 H 0.43743 0.88904 0.05239 0.0
H403 H 0.39557 0.82161 1.01218 0.0
C404 C 0.40721 0.84655 0.8872 0.0
O405 O 0.39791 0.85362 0.9237 0.0
N406 N 0.46988 0.8577 0.93262 0.0
C407 C 0.48953 0.8609 0.95299 0.0
C408 C 0.50277 0.86204 0.9084 0.0
C409 C 0.47141 0.8567 0.87601 0.0
N410 N 0.49125 0.85934 0.86043 0.0
C411 C 0.47947 0.90195 0.98795 0.0
C412 C 0.45787 0.92322 0.94586 0.0
C413 C 0.47856 0.93619 0.97324 0.0
C414 C 0.48941 0.92505 0.99311 0.0
C415 C 0.44855 0.89984 0.94053 0.0
N416 N 0.45904 0.88929 0.96324 0.0
H417 H 0.48801 0.89416 1.00684 0.0
H418 H 0.43247 0.89036 0.92094 0.0
H419 H 0.49422 0.86259 0.99709 0.0
H420 H 0.45855 0.85441 0.84634 0.0
O421 O 0.46047 0.85817 0.04694 0.0
O422 O 0.43807 0.82678 1.00463 0.0
O423 O 0.4261 0.84783 0.89989 0.0
C424 C 0.45125 0.83668 0.04759 0.0
H425 H 0.37338 0.83447 0.07978 0.0
H426 H 0.51934 0.86419 0.91093 0.0
H427 H 0.44885 0.93101 0.92922 0.0
H428 H 0.50519 0.93399 1.01513 0.0
Co429 Co 0.19185 0.59705 0.97131 0.0
C430 C 0.18988 0.55579 1.01343 0.0
C431 C 0.22304 0.58367 1.01548 0.0
C432 C 0.22383 0.56477 1.0289 0.0
N433 N 0.20167 0.57808 1.00604 0.0
N434 N 0.20293 0.54718 1.02683 0.0
H435 H 0.17231 0.54566 1.00519 0.0
H436 H 0.23731 0.60018 1.01072 0.0
C437 C 0.1953 0.57004 0.87107 0.0
O438 O 0.18104 0.55189 0.89799 0.0
N439 N 0.18267 0.61598 0.93567 0.0
C440 C 0.16519 0.61864 0.94861 0.0
C441 C 0.16471 0.63357 0.91072 0.0
C442 C 0.19277 0.6294 0.89135 0.0
N443 N 0.18216 0.64031 0.87518 0.0
C444 C 0.15098 0.56641 1.02437 0.0
C445 C 0.12325 0.55162 0.93149 0.0
C446 C 0.11341 0.54507 0.98586 0.0
C447 C 0.12804 0.55287 0.03223 0.0
C448 C 0.14666 0.56567 0.92538 0.0
N449 N 0.16034 0.57279 0.97176 0.0
H450 H 0.16137 0.57208 0.06162 0.0
H451 H 0.1536 0.57144 0.88367 0.0
H452 H 0.15354 0.61017 0.9827 0.0
H453 H 0.20734 0.63078 0.87064 0.0
O454 O 0.19076 0.60951 0.045 0.0
O455 O 0.2207 0.62419 0.99287 0.0
O456 O 0.20002 0.58921 0.89195 0.0
C457 C 0.21121 0.62524 0.03968 0.0
H458 H 0.23873 0.56416 0.03926 0.0
H459 H 0.15262 0.6391 0.9095 0.0
H460 H 0.11304 0.54628 0.89378 0.0
H461 H 0.12195 0.54935 0.07527 0.0
Co462 Co 0.45021 0.60273 0.9668 0.0
C463 C 0.49229 0.63778 1.01652 0.0
C464 C 0.46733 0.64734 1.01765 0.0
C465 C 0.48653 0.66408 0.04195 0.0
N466 N 0.4709 0.63064 1.00255 0.0
N467 N 0.50213 0.65786 0.04103 0.0
H468 H 0.5011 0.629 1.00776 0.0
H469 H 0.45179 0.64729 1.01256 0.0
C470 C 0.47858 0.63454 0.87003 0.0
O471 O 0.49626 0.63902 0.89999 0.0
N472 N 0.42976 0.57502 0.9319 0.0
C473 C 0.42517 0.55465 0.94941 0.0
C474 C 0.40773 0.53895 0.9179 0.0
C475 C 0.41507 0.5716 0.89065 0.0
N476 N 0.40135 0.54965 0.88121 0.0
C477 C 0.47706 0.58734 1.01925 0.0
C478 C 0.49501 0.57863 0.92546 0.0
C479 C 0.49992 0.57321 0.97947 0.0
C480 C 0.49036 0.57769 1.0262 0.0
C481 C 0.48119 0.5883 0.92014 0.0
N482 N 0.47268 0.59296 0.96709 0.0
H483 H 0.47057 0.59071 0.05705 0.0
H484 H 0.47701 0.59156 0.87846 0.0
H485 H 0.43343 0.55143 0.98394 0.0
H486 H 0.41436 0.58494 0.86863 0.0
O487 O 0.43681 0.58958 0.04023 0.0
O488 O 0.42441 0.6069 0.98778 0.0
O489 O 0.45919 0.61902 0.88762 0.0
C490 C 0.42214 0.59572 0.03434 0.0
H491 H 0.48844 0.67904 0.06149 0.0
H492 H 0.39992 0.52107 0.92286 0.0
H493 H 0.50168 0.57538 0.88758 0.0
H494 H 0.49262 0.57332 0.06873 0.0
Co495 Co 0.53487 0.76914 0.4203 0.0
C496 C 0.54042 0.73316 0.3711 0.0
C497 C 0.50613 0.72449 0.37054 0.0
C498 C 0.50794 0.70732 0.34663 0.0
N499 N 0.52667 0.74088 0.38509 0.0
N500 N 0.52962 0.71297 0.34722 0.0
H501 H 0.55803 0.74158 0.37959 0.0
H502 H 0.49091 0.72503 0.37581 0.0
C503 C 0.53101 0.73727 0.51749 0.0
O504 O 0.54372 0.73221 0.48736 0.0
N505 N 0.54306 0.79713 0.455 0.0
C506 C 0.56097 0.81712 0.44289 0.0
C507 C 0.56059 0.83291 0.47727 0.0
C508 C 0.53172 0.80095 0.49516 0.0
N509 N 0.5421 0.82263 0.50938 0.0
C510 C 0.57668 0.78342 0.36649 0.0
C511 C 0.60367 0.792 0.45972 0.0
C512 C 0.61385 0.79749 0.40558 0.0
C513 C 0.59963 0.79299 0.35909 0.0
C514 C 0.58022 0.78249 0.4655 0.0
N515 N 0.5669 0.77802 0.41887 0.0
H516 H 0.56667 0.78017 0.32896 0.0
H517 H 0.57296 0.77935 0.50735 0.0
H518 H 0.57346 0.82008 0.41137 0.0
H519 H 0.51641 0.78813 0.51417 0.0
O520 O 0.53429 0.78194 0.3463 0.0
O521 O 0.50515 0.76573 0.40122 0.0
O522 O 0.52769 0.75314 0.4999 0.0
C523 C 0.51362 0.77619 0.35361 0.0
H524 H 0.49453 0.69243 0.32769 0.0
H525 H 0.57277 0.85051 0.47853 0.0
H526 H 0.61366 0.79513 0.49746 0.0
H527 H 0.60607 0.79736 0.31646 0.0
Co528 Co 0.2811 0.7736 0.42239 0.0
C529 C 0.31906 0.81512 0.37677 0.0
C530 C 0.32569 0.78811 0.37679 0.0
C531 C 0.34481 0.80726 0.36124 0.0
N532 N 0.30943 0.793 0.38624 0.0
N533 N 0.34062 0.82428 0.36197 0.0
H534 H 0.31117 0.82484 0.38468 0.0
H535 H 0.32416 0.77194 0.38285 0.0
C536 C 0.31253 0.80116 0.52061 0.0
O537 O 0.31629 0.8191 0.49283 0.0
N538 N 0.25336 0.75432 0.45923 0.0
C539 C 0.23297 0.75084 0.44558 0.0
C540 C 0.21791 0.73651 0.48492 0.0
C541 C 0.25055 0.74201 0.50564 0.0
N542 N 0.22908 0.731 0.52234 0.0
C543 C 0.26899 0.80329 0.37147 0.0
C544 C 0.25746 0.81807 0.46691 0.0
C545 C 0.25274 0.82375 0.41333 0.0
C546 C 0.25894 0.81632 0.36559 0.0
C547 C 0.26739 0.8045 0.4711 0.0
N548 N 0.2732 0.79735 0.42346 0.0
H549 H 0.27331 0.79776 0.33334 0.0
H550 H 0.26948 0.79901 0.51234 0.0
H551 H 0.22939 0.75845 0.4101 0.0
H552 H 0.26407 0.74158 0.52754 0.0
O553 O 0.26703 0.76097 0.34925 0.0
O554 O 0.28324 0.74681 0.39977 0.0
O555 O 0.29784 0.78184 0.50091 0.0
C556 C 0.27217 0.74552 0.35369 0.0
H557 H 0.36053 0.80844 0.35026 0.0
H558 H 0.2002 0.7306 0.48592 0.0
H559 H 0.25267 0.82326 0.50504 0.0
H560 H 0.25572 0.82032 0.32352 0.0
Co561 Co 0.27369 0.51689 0.41545 0.0
C562 C 0.2353 0.49838 0.33936 0.0
C563 C 0.24589 0.5324 0.36002 0.0
C564 C 0.22785 0.52452 0.32419 0.0
N565 N 0.24993 0.51567 0.37101 0.0
N566 N 0.22121 0.50309 0.31169 0.0
H567 H 0.23538 0.48289 0.33515 0.0
H568 H 0.25542 0.54909 0.37684 0.0
C569 C 0.24531 0.52712 0.50241 0.0
O570 O 0.22861 0.51931 0.46668 0.0
N571 N 0.29776 0.51795 0.45918 0.0
C572 C 0.31791 0.52185 0.44124 0.0
C573 C 0.32915 0.51964 0.4863 0.0
C574 C 0.29699 0.51322 0.5147 0.0
N575 N 0.31597 0.5142 0.53236 0.0
C576 C 0.26509 0.47234 0.41347 0.0
C577 C 0.22054 0.4502 0.44238 0.0
C578 C 0.22972 0.43763 0.42032 0.0
C579 C 0.25256 0.44918 0.40768 0.0
C580 C 0.23389 0.47359 0.44844 0.0
N581 N 0.25574 0.48457 0.43154 0.0
H582 H 0.28224 0.48064 0.39967 0.0
H583 H 0.2261 0.48279 0.46262 0.0
H584 H 0.3242 0.52577 0.39853 0.0
H585 H 0.28268 0.50876 0.54142 0.0
O586 O 0.28709 0.51415 0.3451 0.0
O587 O 0.29497 0.54636 0.38042 0.0
O588 O 0.26324 0.52655 0.48911 0.0
C589 C 0.29844 0.53562 0.33986 0.0
H590 H 0.22091 0.53413 0.30634 0.0
H591 H 0.34595 0.52236 0.4854 0.0
H592 H 0.20307 0.44213 0.45365 0.0
H593 H 0.26062 0.44058 0.39019 0.0
H594 H 0.23564 0.19031 0.92014 0.0
H595 H 0.16599 0.14614 0.88456 0.0
H596 H 0.22568 0.20212 1.00773 0.0
H597 H 0.15588 0.15823 0.97061 0.0
H598 H 0.14626 0.15991 0.15791 0.0
H599 H 0.15843 0.15162 0.06937 0.0
H600 H 0.20764 0.2213 0.04949 0.0
H601 H 0.1956 0.22942 0.13931 0.0
C602 C 0.21822 0.18356 0.9306 0.0
C603 C 0.20154 0.16715 0.89645 0.0
C604 C 0.2125 0.19026 0.98055 0.0
C605 C 0.19001 0.18076 0.99655 0.0
C606 C 0.17337 0.16536 0.9603 0.0
C607 C 0.1791 0.15852 0.91098 0.0
C608 C 0.15966 0.17341 0.13454 0.0
C609 C 0.16988 0.19529 0.15497 0.0
C610 C 0.16658 0.16873 0.08377 0.0
C611 C 0.18372 0.18589 0.05194 0.0
C612 C 0.19444 0.20773 0.0732 0.0
C613 C 0.1876 0.21238 0.12449 0.0
H614 H 0.86267 0.06247 0.91835 0.0
H615 H 0.91357 0.04424 0.9028 0.0
H616 H 0.85049 0.042 1.00783 0.0
H617 H 0.90128 0.02351 0.99112 0.0
H618 H 0.89161 1.00849 0.17521 0.0
H619 H 0.90234 0.03146 0.09018 0.0
H620 H 0.8328 1.00454 0.04774 0.0
H621 H 0.82221 0.98198 0.13423 0.0
C622 C 0.87103 0.05384 0.93379 0.0
C623 C 0.88916 0.05504 0.9041 0.0
C624 C 0.8641 0.04217 0.98492 0.0
C625 C 0.87513 0.03142 1.00689 0.0
C626 C 0.89283 0.03214 0.97614 0.0
C627 C 0.89983 0.04391 0.92547 0.0
C628 C 0.87869 1.00768 0.14783 0.0
C629 C 0.85614 0.99337 0.16058 0.0
C630 C 0.88477 0.02071 0.09909 0.0
C631 C 0.86841 0.01945 0.06167 0.0
C632 C 0.84579 1.00591 0.07586 0.0
C633 C 0.8397 0.99302 0.12519 0.0
H634 H 0.04254 0.85324 0.18346 0.0
H635 H 0.08762 0.91595 0.10295 0.0
H636 H 1.01935 0.84149 0.09883 0.0
H637 H 0.06446 0.90421 1.0182 0.0
H638 H 1.00345 0.88542 0.90705 0.0
H639 H 1.02718 0.89679 0.99056 0.0
H640 H 1.02079 0.83158 0.99972 0.0
H641 H 0.99629 0.8199 0.91752 0.0
C642 C 0.0476 0.86439 0.14744 0.0
C643 C 0.06681 0.88552 0.14974 0.0
C644 C 0.03435 0.85768 0.09906 0.0
C645 C 0.04013 0.87197 0.05212 0.0
C646 C 0.05946 0.89301 0.05419 0.0
C647 C 0.07268 0.89974 0.10262 0.0
C648 C 1.00692 0.87345 0.92721 0.0
C649 C 0.99795 0.85174 0.90591 0.0
C650 C 1.02073 0.88005 0.97456 0.0
C651 C 1.02582 0.86506 1.00143 0.0
C652 C 1.01695 0.84339 0.98003 0.0
C653 C 1.00314 0.83679 0.93267 0.0
H654 H 0.85656 0.8663 0.17176 0.0
H655 H 0.89023 0.93425 0.11235 0.0
H656 H 0.87057 0.85528 0.09256 0.0
H657 H 0.90421 0.92279 0.02986 0.0
H658 H 0.9382 0.89238 0.90597 0.0
H659 H 0.92786 0.90824 0.98642 0.0
H660 H 0.86432 0.84765 0.99726 0.0
H661 H 0.87461 0.83202 0.92013 0.0
C662 C 0.86682 0.87909 0.14142 0.0
C663 C 0.87169 0.9013 0.14931 0.0
C664 C 0.87492 0.87258 0.0949 0.0
C665 C 0.8883 0.88778 0.05253 0.0
C666 C 0.89394 0.91032 0.06082 0.0
C667 C 0.8858 0.91696 0.10835 0.0
C668 C 0.92207 0.88243 0.92574 0.0
C669 C 0.90753 0.86057 0.90581 0.0
C670 C 0.91601 0.89163 0.97206 0.0
C671 C 0.89522 0.87931 1.00035 0.0
C672 C 0.88072 0.85778 0.97901 0.0
C673 C 0.88671 0.8487 0.93358 0.0
H674 H 0.167 0.07301 0.94654 0.0
H675 H 0.20562 0.0431 0.89362 0.0
H676 H 0.15372 0.04764 0.02952 0.0
H677 H 0.19233 1.01815 0.97328 0.0
H678 H 0.18853 0.99191 0.14721 0.0
H679 H 0.19792 1.01759 0.06945 0.0
H680 H 0.13187 1.00905 0.07314 0.0
H681 H 0.1224 0.98308 0.15412 0.0
C682 C 0.17267 0.06113 0.95205 0.0
C683 C 0.18794 0.06081 0.91276 0.0
C684 C 0.16495 0.04639 0.99988 0.0
C685 C 0.17217 0.03076 1.01015 0.0
C686 C 0.18672 0.03013 0.96941 0.0
C687 C 0.1944 0.04469 0.92261 0.0
C688 C 0.1757 0.99521 0.13204 0.0
C689 C 0.15446 0.98477 0.15794 0.0
C690 C 0.18118 1.01014 0.08627 0.0
C691 C 0.16572 1.01554 0.06274 0.0
C692 C 0.14446 1.00558 0.08922 0.0
C693 C 0.13892 0.99047 0.13587 0.0
H694 H 0.98404 0.11151 0.92465 0.0
H695 H 1.00623 0.18089 0.89465 0.0
H696 H 1.00901 0.12215 1.00795 0.0
H697 H 0.03094 0.19127 0.9747 0.0
H698 H 0.05585 0.20669 0.15225 0.0
H699 H 0.03122 0.19249 0.07212 0.0
H700 H 0.04742 0.14044 0.05122 0.0
H701 H 0.07231 0.15469 0.13466 0.0
C702 C 0.99411 0.12897 0.93537 0.0
C703 C 0.99249 0.14515 0.90214 0.0
C704 C 1.00867 0.13516 0.98331 0.0
C705 C 1.02214 0.15776 1.0 0.0
C706 C 1.02069 0.17369 0.96565 0.0
C707 C 1.00632 0.16759 0.91858 0.0
C708 C 0.05451 0.19224 0.13106 0.0
C709 C 0.06671 0.18223 0.15103 0.0
C710 C 0.04019 0.18403 0.08391 0.0
C711 C 0.03715 0.1653 0.05302 0.0
C712 C 0.04903 0.15486 0.07313 0.0
C713 C 0.06356 0.16319 0.12111 0.0
H714 H 0.86388 0.5579 0.46872 0.0
H715 H 0.80686 0.49135 0.47178 0.0
H716 H 0.87825 0.54825 0.38561 0.0
H717 H 0.82083 0.48195 0.38798 0.0
H718 H 0.86464 0.46463 0.28481 0.0
H719 H 0.853 0.47667 0.36816 0.0
H720 H 0.86852 0.53803 0.28321 0.0
H721 H 0.88019 0.52584 0.19919 0.0
C722 C 0.85444 0.54124 0.45163 0.0
C723 C 0.83432 0.52531 0.47689 0.0
C724 C 0.86254 0.53582 0.40383 0.0
C725 C 0.85072 0.51434 0.38078 0.0
C726 C 0.83043 0.49856 0.40546 0.0
C727 C 0.82231 0.504 0.45302 0.0
C728 C 0.86552 0.48066 0.28386 0.0
C729 C 0.87295 0.49417 0.23531 0.0
C730 C 0.85887 0.48754 0.33152 0.0
C731 C 0.85952 0.50809 0.33165 0.0
C732 C 0.8679 0.52211 0.28411 0.0
C733 C 0.87459 0.51519 0.2362 0.0
H734 H 0.57016 0.36656 0.22099 0.0
H735 H 0.51948 0.385 0.23902 0.0
H736 H 0.55572 0.34264 0.30371 0.0
H737 H 0.50448 0.36042 0.32157 0.0
H738 H 0.51124 0.34173 0.51003 0.0
H739 H 0.51815 0.36127 0.41955 0.0
H740 H 0.52344 0.3084 0.33781 0.0
H741 H 0.5167 0.28906 0.42813 0.0
C742 C 0.5558 0.36533 0.24251 0.0
C743 C 0.54608 0.37779 0.22408 0.0
C744 C 0.54735 0.35143 0.28945 0.0
C745 C 0.52896 0.34966 0.31904 0.0
C746 C 0.51877 0.3616 0.29969 0.0
C747 C 0.5272 0.37549 0.25232 0.0
C748 C 0.51351 0.33417 0.47249 0.0
C749 C 0.51388 0.31414 0.47616 0.0
C750 C 0.51737 0.34527 0.42072 0.0
C751 C 0.52157 0.33644 0.37184 0.0
C752 C 0.5207 0.3158 0.37506 0.0
C753 C 0.51694 0.30478 0.42673 0.0
H754 H 0.73254 0.25126 0.44253 0.0
H755 H 0.72781 0.18753 0.4683 0.0
H756 H 0.71415 0.23899 0.35135 0.0
H757 H 0.71096 0.17543 0.37484 0.0
H758 H 0.65149 0.1509 0.25394 0.0
H759 H 0.67678 0.16362 0.33443 0.0
H760 H 0.71332 0.22928 0.2585 0.0
H761 H 0.68658 0.21653 0.18056 0.0
C762 C 0.72808 0.2348 0.42745 0.0
C763 C 0.73121 0.22016 0.46192 0.0
C764 C 0.71771 0.22775 0.37504 0.0
C765 C 0.71083 0.20607 0.35556 0.0
C766 C 0.71541 0.19199 0.38899 0.0
C767 C 0.72518 0.19887 0.44217 0.0
C768 C 0.66515 0.16794 0.25469 0.0
C769 C 0.66718 0.1829 0.21214 0.0
C770 C 0.6798 0.17527 0.30039 0.0
C771 C 0.69713 0.19761 0.30346 0.0
C772 C 0.69986 0.21216 0.25853 0.0
C773 C 0.68475 0.20493 0.21375 0.0
H774 H 0.5345 0.16968 0.22864 0.0
H775 H 0.60381 0.21816 0.25464 0.0
H776 H 0.52419 0.184 0.30856 0.0
H777 H 0.59325 0.23249 0.33797 0.0
H778 H 0.56005 0.26298 0.46342 0.0
H779 H 0.57446 0.25221 0.38065 0.0
H780 H 0.52361 0.18368 0.40599 0.0
H781 H 0.50924 0.19423 0.48545 0.0
C782 C 0.54782 0.18335 0.25168 0.0
C783 C 0.57022 0.19234 0.23412 0.0
C784 C 0.54176 0.19162 0.2987 0.0
C785 C 0.55769 0.20937 0.3319 0.0
C786 C 0.58024 0.21883 0.31422 0.0
C787 C 0.5864 0.21046 0.26631 0.0
C788 C 0.55188 0.24564 0.45104 0.0
C789 C 0.53307 0.22969 0.48186 0.0
C790 C 0.56029 0.23936 0.40343 0.0
C791 C 0.55018 0.21692 0.38471 0.0
C792 C 0.53176 0.20119 0.41667 0.0
C793 C 0.52345 0.20737 0.4634 0.0
H794 H 0.85462 0.36086 0.20519 0.0
H795 H 0.84587 0.41269 0.27932 0.0
H796 H 0.83961 0.33821 0.29029 0.0
H797 H 0.83108 0.38996 0.36595 0.0
H798 H 0.83435 0.3544 0.5343 0.0
H799 H 0.84399 0.37616 0.44708 0.0
H800 H 0.80624 0.3158 0.35123 0.0
H801 H 0.79614 0.29385 0.43966 0.0
C802 C 0.8494 0.36751 0.23959 0.0
C803 C 0.85167 0.38891 0.23441 0.0
C804 C 0.84056 0.35427 0.28879 0.0
C805 C 0.83394 0.3619 0.33615 0.0
C806 C 0.836 0.38328 0.33102 0.0
C807 C 0.84442 0.3964 0.28091 0.0
C808 C 0.82775 0.34561 0.49484 0.0
C809 C 0.81431 0.3221 0.49507 0.0
C810 C 0.83328 0.35827 0.44431 0.0
C811 C 0.8261 0.34808 0.39094 0.0
C812 C 0.81235 0.32452 0.39096 0.0
C813 C 0.80634 0.3118 0.44203 0.0
H814 H 0.657 0.44094 0.24298 0.0
H815 H 0.65197 0.49992 0.26512 0.0
H816 H 0.68386 0.45288 0.32234 0.0
H817 H 0.67784 0.51142 0.34345 0.0
H818 H 0.74266 0.54339 0.43597 0.0
H819 H 0.71569 0.52737 0.3605 0.0
H820 H 0.69461 0.46144 0.42435 0.0
H821 H 0.72257 0.47788 0.50096 0.0
C822 C 0.66118 0.45618 0.26517 0.0
C823 C 0.65207 0.46938 0.2465 0.0
C824 C 0.67677 0.46316 0.31094 0.0
C825 C 0.68389 0.48361 0.33967 0.0
C826 C 0.6738 0.49602 0.32226 0.0
C827 C 0.65851 0.48919 0.27699 0.0
C828 C 0.73244 0.52542 0.43453 0.0
C829 C 0.73509 0.5122 0.47601 0.0
C830 C 0.71655 0.51608 0.39075 0.0
C831 C 0.70208 0.49286 0.38575 0.0
C832 C 0.70516 0.47936 0.42597 0.0
C833 C 0.72132 0.48884 0.47029 0.0
H834 H 0.50205 0.81918 0.52095 0.0
H835 H 0.56736 0.84753 0.59527 0.0
H836 H 0.48955 0.83278 0.60012 0.0
H837 H 0.55483 0.8597 0.67688 0.0
H838 H 0.53088 0.88661 0.8122 0.0
H839 H 0.54342 0.88221 0.71899 0.0
H840 H 0.47949 0.82263 0.6926 0.0
H841 H 0.46684 0.8283 0.78362 0.0
C842 C 0.51365 0.82841 0.55457 0.0
C843 C 0.53551 0.83235 0.5529 0.0
C844 C 0.50655 0.83605 0.60006 0.0
C845 C 0.52104 0.84708 0.64558 0.0
C846 C 0.54324 0.85164 0.64243 0.0
C847 C 0.55046 0.84456 0.59606 0.0
C848 C 0.51958 0.87285 0.7856 0.0
C849 C 0.49804 0.85771 0.80446 0.0
C850 C 0.52671 0.87019 0.73252 0.0
C851 C 0.51259 0.85192 0.69821 0.0
C852 C 0.49075 0.83717 0.71697 0.0
C853 C 0.48348 0.84023 0.7693 0.0
H854 H 0.15397 0.64474 0.80413 0.0
H855 H 0.22355 0.66937 0.83948 0.0
H856 H 0.16415 0.66691 0.71701 0.0
H857 H 0.23382 0.69177 0.75355 0.0
H858 H 0.24331 0.7045 0.56639 0.0
H859 H 0.23084 0.68312 0.65376 0.0
H860 H 0.18289 0.70495 0.6779 0.0
H861 H 0.1953 0.72618 0.58947 0.0
C862 C 0.17143 0.65523 0.7937 0.0
C863 C 0.188 0.65518 0.82785 0.0
C864 C 0.17726 0.66788 0.74397 0.0
C865 C 0.19976 0.68075 0.728 0.0
C866 C 0.21631 0.68152 0.76391 0.0
C867 C 0.21047 0.6688 0.81314 0.0
C868 C 0.23013 0.70473 0.59042 0.0
C869 C 0.22042 0.71713 0.57161 0.0
C870 C 0.22303 0.69257 0.6405 0.0
C871 C 0.20615 0.69269 0.67318 0.0
C872 C 0.19588 0.70451 0.65348 0.0
C873 C 0.20294 0.71661 0.60295 0.0
H874 H 0.34514 0.50122 0.56459 0.0
H875 H 0.30044 0.52247 0.62915 0.0
H876 H 0.36092 0.50496 0.65837 0.0
H877 H 0.31551 0.52519 0.72386 0.0
H878 H 0.37776 0.56763 0.83751 0.0
H879 H 0.35147 0.55311 0.75971 0.0
H880 H 0.35737 0.49392 0.75644 0.0
H881 H 0.38465 0.50904 0.83259 0.0
C882 C 0.3384 0.50628 0.59909 0.0
C883 C 0.322 0.51213 0.58925 0.0
C884 C 0.34719 0.50808 0.65307 0.0
C885 C 0.33964 0.51566 0.69835 0.0
C886 C 0.32188 0.51966 0.68949 0.0
C887 C 0.31314 0.51793 0.63534 0.0
C888 C 0.37346 0.55152 0.82028 0.0
C889 C 0.38369 0.53974 0.84032 0.0
C890 C 0.35804 0.54298 0.77636 0.0
C891 C 0.35244 0.5224 0.75176 0.0
C892 C 0.36158 0.50994 0.7742 0.0
C893 C 0.3771 0.51855 0.81804 0.0
H894 H 0.21158 0.59643 0.77249 0.0
H895 H 0.20382 0.53638 0.84827 0.0
H896 H 0.22607 0.58835 0.68573 0.0
H897 H 0.21854 0.5286 0.76306 0.0
H898 H 0.26112 0.52729 0.61251 0.0
H899 H 0.25156 0.53952 0.70092 0.0
H900 H 0.2128 0.56128 0.60567 0.0
H901 H 0.22191 0.54878 0.51851 0.0
C902 C 0.2132 0.58169 0.77124 0.0
C903 C 0.2063 0.56712 0.81823 0.0
C904 C 0.22144 0.57691 0.72106 0.0
C905 C 0.22367 0.55768 0.71635 0.0
C906 C 0.21744 0.54364 0.76421 0.0
C907 C 0.20877 0.54811 0.81348 0.0
C908 C 0.25083 0.53495 0.61027 0.0
C909 C 0.24241 0.53693 0.55745 0.0
C910 C 0.24512 0.54187 0.66132 0.0
C911 C 0.23124 0.55155 0.6615 0.0
C912 C 0.22363 0.55422 0.60829 0.0
C913 C 0.22886 0.54687 0.55781 0.0
H914 H 0.51519 0.69266 0.52841 0.0
H915 H 0.52119 0.74802 0.6249 0.0
H916 H 0.50001 0.66835 0.61083 0.0
H917 H 0.50635 0.72356 0.7088 0.0
H918 H 0.5085 0.6789 0.85911 0.0
H919 H 0.51821 0.70333 0.77676 0.0
H920 H 0.46793 0.64898 0.67904 0.0
H921 H 0.45774 0.62442 0.76287 0.0
C922 C 0.51313 0.69973 0.56722 0.0
C923 C 0.51955 0.72258 0.56903 0.0
C924 C 0.50423 0.68557 0.61488 0.0
C925 C 0.50177 0.69362 0.66755 0.0
C926 C 0.50796 0.71649 0.6695 0.0
C927 C 0.51639 0.73062 0.62102 0.0
C928 C 0.49918 0.67205 0.82038 0.0
C929 C 0.48219 0.6494 0.8186 0.0
C930 C 0.50478 0.68628 0.77275 0.0
C931 C 0.49405 0.6785 0.72016 0.0
C932 C 0.4768 0.65584 0.71828 0.0
C933 C 0.47077 0.64165 0.76672 0.0
H934 H 0.3621 0.82407 0.87193 0.0
H935 H 0.42265 0.84681 0.77649 0.0
H936 H 0.34017 0.81107 0.78534 0.0
H937 H 0.40049 0.83402 0.6886 0.0
H938 H 0.35466 0.83532 0.54196 0.0
H939 H 0.37764 0.8438 0.62657 0.0
H940 H 0.32635 0.78401 0.70601 0.0
H941 H 0.30326 0.77525 0.6199 0.0
C942 C 0.37086 0.82617 0.83242 0.0
C943 C 0.39442 0.83663 0.83224 0.0
C944 C 0.35809 0.81852 0.78225 0.0
C945 C 0.3682 0.82134 0.72879 0.0
C946 C 0.39182 0.83153 0.72841 0.0
C947 C 0.40466 0.83879 0.77916 0.0
C948 C 0.34818 0.82373 0.5771 0.0
C949 C 0.32678 0.80451 0.57313 0.0
C950 C 0.36161 0.82861 0.62603 0.0
C951 C 0.35421 0.81478 0.6743 0.0
C952 C 0.33286 0.79533 0.67035 0.0
C953 C 0.31953 0.79014 0.62054 0.0
H954 H 0.18701 0.41385 0.3759 0.0
H955 H 0.24115 0.4052 0.43513 0.0
H956 H 0.16609 0.37438 0.34956 0.0
H957 H 0.2208 0.36632 0.40719 0.0
H958 H 0.17081 0.29232 0.40713 0.0
H959 H 0.19039 0.33146 0.43198 0.0
H960 H 0.16401 0.34635 0.28309 0.0
H961 H 0.14354 0.30652 0.25904 0.0
C962 C 0.19443 0.40357 0.38381 0.0
C963 C 0.2159 0.41298 0.4079 0.0
C964 C 0.18252 0.3809 0.36784 0.0
C965 C 0.1916 0.36684 0.37588 0.0
C966 C 0.21295 0.37628 0.40066 0.0
C967 C 0.22481 0.39883 0.41637 0.0
C968 C 0.16897 0.30381 0.37959 0.0
C969 C 0.15526 0.29594 0.33118 0.0
C970 C 0.18051 0.3265 0.39365 0.0
C971 C 0.17898 0.34244 0.3598 0.0
C972 C 0.1655 0.3347 0.31079 0.0
C973 C 0.15393 0.31182 0.29652 0.0
H974 H 0.76003 0.85359 0.40943 0.0
H975 H 0.74634 0.87912 0.25652 0.0
H976 H 0.72056 0.834 0.43242 0.0
H977 H 0.70654 0.85791 0.27827 0.0
H978 H 0.63636 0.79386 0.31277 0.0
H979 H 0.67596 0.81447 0.29168 0.0
H980 H 0.68912 0.84533 0.45584 0.0
H981 H 0.64903 0.82589 0.4762 0.0
C982 C 0.74887 0.85534 0.38058 0.0
C983 C 0.75709 0.86865 0.33116 0.0
C984 C 0.72601 0.84381 0.39392 0.0
C985 C 0.7103 0.84447 0.35761 0.0
C986 C 0.71817 0.85701 0.30731 0.0
C987 C 0.74116 0.86907 0.29458 0.0
C988 C 0.64738 0.80536 0.3444 0.0
C989 C 0.63886 0.80838 0.39602 0.0
C990 C 0.6703 0.8171 0.33213 0.0
C991 C 0.6858 0.83181 0.3716 0.0
C992 C 0.67764 0.83417 0.42429 0.0
C993 C 0.65455 0.82281 0.43614 0.0
H994 H 0.21143 0.8087 0.36818 0.0
H995 H 0.26713 0.8677 0.43714 0.0
H996 H 0.19278 0.82967 0.34536 0.0
H997 H 0.24939 0.88934 0.41135 0.0
H998 H 0.20577 0.92085 0.3999 0.0
H999 H 0.22374 0.89987 0.42492 0.0
H1000 H 0.18944 0.85419 0.28779 0.0
H1001 H 0.16975 0.87418 0.26617 0.0
C1002 C 0.21964 0.82625 0.37872 0.0
C1003 C 0.2406 0.83643 0.40535 0.0
C1004 C 0.2091 0.83849 0.36474 0.0
C1005 C 0.21938 0.86157 0.37565 0.0
C1006 C 0.24043 0.87166 0.40282 0.0
C1007 C 0.25077 0.85925 0.41777 0.0
C1008 C 0.20165 0.90613 0.37533 0.0
C1009 C 0.1857 0.89919 0.33145 0.0
C1010 C 0.21243 0.89414 0.38927 0.0
C1011 C 0.2082 0.87489 0.35914 0.0
C1012 C 0.19296 0.86847 0.31351 0.0
C1013 C 0.18185 0.8803 0.30015 0.0
H1014 H 0.42218 0.21954 0.7441 0.0
H1015 H 0.40866 0.18726 0.58121 0.0
H1016 H 0.38299 0.19895 0.76714 0.0
H1017 H 0.36881 0.16763 0.60278 0.0
H1018 H 0.30024 0.11871 0.67695 0.0
H1019 H 0.33981 0.13899 0.65361 0.0
H1020 H 0.34803 0.19419 0.75593 0.0
H1021 H 0.3086 0.17345 0.78061 0.0
C1022 C 0.4109 0.20801 0.71286 0.0
C1023 C 0.41908 0.20493 0.66092 0.0
C1024 C 0.38806 0.19636 0.72589 0.0
C1025 C 0.3722 0.18132 0.68725 0.0
C1026 C 0.38026 0.17864 0.63453 0.0
C1027 C 0.40327 0.19022 0.62162 0.0
C1028 C 0.31052 0.13516 0.6947 0.0
C1029 C 0.30103 0.1443 0.73101 0.0
C1030 C 0.33335 0.14697 0.68085 0.0
C1031 C 0.3476 0.16852 0.70231 0.0
C1032 C 0.33804 0.17757 0.73901 0.0
C1033 C 0.31524 0.16562 0.75336 0.0
H1034 H 0.88558 0.14939 0.65159 0.0
H1035 H 0.91557 0.19307 0.79432 0.0
H1036 H 0.86607 0.16899 0.62616 0.0
H1037 H 0.89513 0.2125 0.76982 0.0
H1038 H 0.87092 0.25592 0.67486 0.0
H1039 H 0.89213 0.23758 0.70144 0.0
H1040 H 0.83636 0.17416 0.65223 0.0
H1041 H 0.81578 0.19243 0.624 0.0
C1042 C 0.88802 0.16321 0.67787 0.0
C1043 C 0.90247 0.16966 0.72489 0.0
C1044 C 0.87653 0.1744 0.66349 0.0
C1045 C 0.87882 0.1925 0.69568 0.0
C1046 C 0.89303 0.19886 0.74338 0.0
C1047 C 0.90458 0.18752 0.75796 0.0
C1048 C 0.86335 0.23811 0.66882 0.0
C1049 C 0.84151 0.22578 0.64708 0.0
C1050 C 0.87542 0.22749 0.68493 0.0
C1051 C 0.86611 0.20422 0.67935 0.0
C1052 C 0.84441 0.19206 0.65679 0.0
C1053 C 0.83241 0.20261 0.64091 0.0
H1054 H 0.89507 0.74922 0.64358 0.0
H1055 H 0.86311 0.73447 0.80716 0.0
H1056 H 0.87474 0.71 0.61934 0.0
H1057 H 0.84328 0.69471 0.78375 0.0
H1058 H 0.79304 0.62808 0.70251 0.0
H1059 H 0.81385 0.66741 0.72725 0.0
H1060 H 0.87047 0.67449 0.63325 0.0
H1061 H 0.84946 0.63508 0.60806 0.0
C1062 C 0.88369 0.73761 0.67467 0.0
C1063 C 0.88058 0.74534 0.72721 0.0
C1064 C 0.87215 0.71487 0.66088 0.0
C1065 C 0.85708 0.69882 0.69915 0.0
C1066 C 0.85439 0.70644 0.75246 0.0
C1067 C 0.866 0.72931 0.76633 0.0
C1068 C 0.80994 0.63798 0.68698 0.0
C1069 C 0.81946 0.62813 0.65317 0.0
C1070 C 0.822 0.66066 0.7016 0.0
C1071 C 0.8441 0.67444 0.68301 0.0
C1072 C 0.85347 0.6647 0.64814 0.0
C1073 C 0.84135 0.64197 0.63338 0.0
H1074 H 0.07826 0.54079 0.91858 0.0
H1075 H 0.09062 0.51681 0.07597 0.0
H1076 H 0.03823 0.51991 0.93863 0.0
H1077 H 0.05103 0.49764 0.09714 0.0
H1078 H 0.97992 0.49122 0.13519 0.0
H1079 H 1.01995 0.51039 0.11515 0.0
H1080 H 1.00714 0.47604 0.95597 0.0
H1081 H 0.96754 0.45558 0.97708 0.0
C1082 C 0.07273 0.53117 0.95727 0.0
C1083 C 0.08836 0.53113 0.9957 0.0
C1084 C 0.04963 0.5193 0.969 0.0
C1085 C 0.04137 0.50737 1.02004 0.0
C1086 C 0.05678 0.50701 0.05802 0.0
C1087 C 0.07972 0.51831 0.04572 0.0
C1088 C 0.98544 0.48728 0.09634 0.0
C1089 C 0.96981 0.47181 0.05771 0.0
C1090 C 1.00854 0.49853 0.08463 0.0
C1091 C 1.0168 0.49508 0.03341 0.0
C1092 C 1.00139 0.4795 0.99524 0.0
C1093 C 0.97844 0.46783 1.0075 0.0
H1094 H 0.50552 0.54368 0.91077 0.0
H1095 H 0.52739 0.57838 0.07005 0.0
H1096 H 0.52613 0.5245 0.9312 0.0
H1097 H 0.5458 0.55776 0.09309 0.0
H1098 H 0.59095 0.52843 0.11424 0.0
H1099 H 0.57343 0.55018 0.08833 0.0
H1100 H 0.52835 0.4971 0.97716 0.0
H1101 H 0.54716 0.47641 1.00052 0.0
C1102 C 0.51464 0.54728 0.9502 0.0
C1103 C 0.51417 0.56249 0.98888 0.0
C1104 C 0.52626 0.53585 0.96268 0.0
C1105 C 0.53766 0.53894 1.01469 0.0
C1106 C 0.53765 0.55468 0.05239 0.0
C1107 C 0.52649 0.56637 0.03944 0.0
C1108 C 0.5772 0.52144 0.08452 0.0
C1109 C 0.57045 0.50062 0.05973 0.0
C1110 C 0.56693 0.5339 0.06953 0.0
C1111 C 0.54912 0.52575 0.03013 0.0
C1112 C 0.5422 0.50458 1.0064 0.0
C1113 C 0.55283 0.49242 1.02042 0.0
H1114 H 0.5208 0.06816 0.12461 0.0
H1115 H 0.5644 0.08162 0.98153 0.0
H1116 H 0.50153 0.02823 0.10151 0.0
H1117 H 0.54503 0.04235 0.95775 0.0
H1118 H 0.5225 0.96853 0.96253 0.0
H1119 H 0.54042 1.00768 0.98788 0.0
H1120 H 0.4765 0.99992 0.03239 0.0
H1121 H 0.45849 0.96019 1.00817 0.0
C1122 C 0.52637 0.06267 0.08845 0.0
C1123 C 0.54417 0.07836 0.05491 0.0
C1124 C 0.51513 0.03974 0.07471 0.0
C1125 C 0.52156 0.03178 1.02748 0.0
C1126 C 0.53957 0.04752 0.99471 0.0
C1127 C 0.55063 0.07027 1.00816 0.0
C1128 C 0.51214 0.97506 0.97766 0.0
C1129 C 0.48893 0.96094 0.98321 0.0
C1130 C 0.52248 0.99773 0.99194 0.0
C1131 C 0.51006 1.00729 1.01244 0.0
C1132 C 0.48676 0.99326 1.01741 0.0
C1133 C 0.47634 0.97048 1.00271 0.0
H1134 H 0.15171 0.19316 0.45068 0.0
H1135 H 0.10104 0.12708 0.40192 0.0
H1136 H 0.16435 0.17769 0.52492 0.0
H1137 H 0.11361 0.11138 0.47822 0.0
H1138 H 0.13295 0.09772 0.66754 0.0
H1139 H 0.11729 0.11026 0.59111 0.0
H1140 H 0.18373 0.15547 0.53141 0.0
H1141 H 0.19912 0.14282 0.60586 0.0
C1142 C 0.14312 0.17522 0.45568 0.0
C1143 C 0.12528 0.16153 0.41929 0.0
C1144 C 0.1505 0.16627 0.49866 0.0
C1145 C 0.14018 0.14314 0.50842 0.0
C1146 C 0.12203 0.12927 0.4727 0.0
C1147 C 0.11488 0.13829 0.42845 0.0
C1148 C 0.14421 0.11031 0.63806 0.0
C1149 C 0.16746 0.11917 0.64371 0.0
C1150 C 0.13519 0.11744 0.59377 0.0
C1151 C 0.14913 0.13407 0.5544 0.0
C1152 C 0.17229 0.14284 0.56054 0.0
C1153 C 0.18118 0.13544 0.60365 0.0
H1154 H 0.90584 0.07005 0.60642 0.0
H1155 H 0.95716 0.05533 0.65425 0.0
H1156 H 0.89333 0.04208 0.53227 0.0
H1157 H 0.94468 0.02714 0.57808 0.0
H1158 H 0.92512 0.99401 0.38948 0.0
H1159 H 0.94075 0.02221 0.46561 0.0
H1160 H 0.8743 1.0007 0.52563 0.0
H1161 H 0.85896 0.97272 0.45146 0.0
C1162 C 0.91459 0.06087 0.60126 0.0
C1163 C 0.93257 0.06517 0.63736 0.0
C1164 C 0.90728 0.04461 0.55832 0.0
C1165 C 0.91781 0.03202 0.54833 0.0
C1166 C 0.9361 0.03645 0.58378 0.0
C1167 C 0.9432 0.05256 0.62797 0.0
C1168 C 0.91386 0.99531 0.41892 0.0
C1169 C 0.89062 0.98087 0.41344 0.0
C1170 C 0.92286 1.01145 0.46306 0.0
C1171 C 0.90891 1.01406 0.50245 0.0
C1172 C 0.88576 0.9996 0.49646 0.0
C1173 C 0.87689 0.98335 0.45349 0.0
H1174 H 0.06377 0.94521 0.40267 0.0
H1175 H 0.07907 0.89454 0.45287 0.0
H1176 H 0.0347 0.9321 0.47658 0.0
H1177 H 0.0503 0.88149 0.52537 0.0
H1178 H 0.98116 0.84649 0.60687 0.0
H1179 H 1.00991 0.86176 0.53429 0.0
H1180 H 1.02732 0.92833 0.58389 0.0
H1181 H 0.99825 0.91279 0.65792 0.0
C1182 C 0.06095 0.93125 0.42908 0.0
C1183 C 0.07395 0.92097 0.4209 0.0
C1184 C 0.04431 0.92378 0.47199 0.0
C1185 C 0.03976 0.9055 0.50759 0.0
C1186 C 0.05282 0.89535 0.49899 0.0
C1187 C 0.06955 0.90298 0.45706 0.0
C1188 C 0.99106 0.86443 0.60282 0.0
C1189 C 0.98716 0.87824 0.63925 0.0
C1190 C 1.00779 0.87328 0.56086 0.0
C1191 C 1.02136 0.89645 0.55248 0.0
C1192 C 1.01731 0.91042 0.58831 0.0
C1193 C 1.00065 0.90148 0.63127 0.0
H1194 H 0.92266 0.86661 0.53261 0.0
H1195 H 0.8597 0.81577 0.60005 0.0
H1196 H 0.90971 0.85424 0.43804 0.0
H1197 H 0.84616 0.80301 0.5042 0.0
H1198 H 0.89473 0.86369 0.30267 0.0
H1199 H 0.89345 0.83249 0.35366 0.0
H1200 H 0.83499 0.8226 0.44316 0.0
H1201 H 0.83593 0.85308 0.3923 0.0
C1202 C 0.90607 0.8525 0.52691 0.0
C1203 C 0.8918 0.84294 0.57313 0.0
C1204 C 0.89863 0.84494 0.4725 0.0
C1205 C 0.87648 0.82781 0.46288 0.0
C1206 C 0.86309 0.81654 0.50991 0.0
C1207 C 0.87062 0.8242 0.56462 0.0
C1208 C 0.88111 0.85423 0.33174 0.0
C1209 C 0.8667 0.86201 0.34782 0.0
C1210 C 0.88003 0.83602 0.36006 0.0
C1211 C 0.86604 0.82741 0.40762 0.0
C1212 C 0.8474 0.83039 0.4102 0.0
C1213 C 0.84809 0.84825 0.3814 0.0
H1214 H 0.13724 0.97119 0.53117 0.0
H1215 H 0.20159 0.98615 0.46748 0.0
H1216 H 0.14973 0.97229 0.62649 0.0
H1217 H 0.21463 0.98732 0.56417 0.0
H1218 H 0.16382 0.99859 0.76145 0.0
H1219 H 0.16568 0.96871 0.71227 0.0
H1220 H 0.22469 1.01746 0.62454 0.0
H1221 H 0.22328 0.04688 0.67423 0.0
C1222 C 0.15405 0.97436 0.53786 0.0
C1223 C 0.1688 0.97977 0.49244 0.0
C1224 C 0.16126 0.97458 0.59278 0.0
C1225 C 0.18363 0.98063 0.60374 0.0
C1226 C 0.19754 0.98327 0.55751 0.0
C1227 C 0.19026 0.98311 0.50228 0.0
C1228 C 0.17769 1.00276 0.7333 0.0
C1229 C 0.19222 0.02496 0.71743 0.0
C1230 C 0.17905 0.98567 0.70586 0.0
C1231 C 0.19345 0.99108 0.65914 0.0
C1232 C 0.21201 1.01275 0.65678 0.0
C1233 C 0.21108 0.02987 0.68494 0.0
H1234 H 0.98031 0.18238 0.63542 0.0
H1235 H 0.04618 0.1906 0.64717 0.0
H1236 H 0.99172 0.20678 0.5535 0.0
H1237 H 0.05778 0.21539 0.56605 0.0
H1238 H 1.00959 0.17012 0.39811 0.0
H1239 H 0.99614 0.18275 0.47628 0.0
H1240 H 0.06016 0.24289 0.48786 0.0
H1241 H 0.07349 0.23043 0.40919 0.0
C1242 C 0.99763 0.19045 0.62267 0.0
C1243 C 1.01222 0.18386 0.64572 0.0
C1244 C 1.00418 0.20466 0.57596 0.0
C1245 C 1.02527 0.21219 0.55203 0.0
C1246 C 0.0412 0.20948 0.58283 0.0
C1247 C 0.03455 0.19499 0.62888 0.0
C1248 C 1.02036 0.18654 0.41547 0.0
C1249 C 0.04283 0.19867 0.3998 0.0
C1250 C 1.01261 0.19405 0.45976 0.0
C1251 C 1.02759 0.21334 0.48987 0.0
C1252 C 0.04848 0.22775 0.46605 0.0
C1253 C 0.05617 0.22038 0.42121 0.0
H1254 H 0.82145 0.52658 0.77866 0.0
H1255 H 0.76988 0.46059 0.73229 0.0
H1256 H 0.83413 0.51105 0.85279 0.0
H1257 H 0.78252 0.44485 0.80808 0.0
H1258 H 0.80201 0.42963 0.99308 0.0
H1259 H 0.78653 0.44294 0.91809 0.0
H1260 H 0.85313 0.48906 0.86097 0.0
H1261 H 0.86834 0.47572 0.93416 0.0
C1262 C 0.81271 0.50867 0.78413 0.0
C1263 C 0.7946 0.495 0.74847 0.0
C1264 C 0.8201 0.49968 0.827 0.0
C1265 C 0.80955 0.47653 0.83721 0.0
C1266 C 0.79113 0.46274 0.80223 0.0
C1267 C 0.78393 0.47178 0.75826 0.0
C1268 C 0.81333 0.44262 0.96455 0.0
C1269 C 0.83657 0.45152 0.97049 0.0
C1270 C 0.80443 0.4502 0.92107 0.0
C1271 C 0.81845 0.46729 0.88282 0.0
C1272 C 0.84161 0.47612 0.88933 0.0
C1273 C 0.8504 0.46831 0.93167 0.0
H1274 H 0.61694 0.3793 0.99859 0.0
H1275 H 0.57223 0.40076 0.93606 0.0
H1276 H 0.60456 0.35132 0.92196 0.0
H1277 H 0.55977 0.37298 0.86142 0.0
H1278 H 0.52205 0.30365 0.78027 0.0
H1279 H 0.53741 0.33143 0.85491 0.0
H1280 H 0.60382 0.34693 0.80884 0.0
H1281 H 0.58821 0.31894 0.73215 0.0
C1282 C 0.60447 0.37809 0.9689 0.0
C1283 C 0.59566 0.39251 0.97435 0.0
C1284 C 0.59744 0.36209 0.92449 0.0
C1285 C 0.58098 0.35959 0.88483 0.0
C1286 C 0.57227 0.37402 0.89079 0.0
C1287 C 0.57955 0.39015 0.93401 0.0
C1288 C 0.53998 0.31291 0.78549 0.0
C1289 C 0.55373 0.30883 0.74917 0.0
C1290 C 0.54887 0.32905 0.8287 0.0
C1291 C 0.572 0.34174 0.83872 0.0
C1292 C 0.58592 0.33753 0.80309 0.0
C1293 C 0.57697 0.32153 0.75862 0.0
H1294 H 0.66329 0.24766 0.99614 0.0
H1295 H 0.64172 0.18235 0.92813 0.0
H1296 H 0.693 0.26399 0.92363 0.0
H1297 H 0.67109 0.19838 0.85738 0.0
H1298 H 0.74091 0.22879 0.7823 0.0
H1299 H 0.71199 0.21599 0.85414 0.0
H1300 H 0.70092 0.27038 0.81406 0.0
H1301 H 0.73016 0.28325 0.74043 0.0
C1302 C 0.66479 0.23674 0.966 0.0
C1303 C 0.64985 0.21353 0.96878 0.0
C1304 C 0.68183 0.24615 0.924 0.0
C1305 C 0.68482 0.23263 0.88411 0.0
C1306 C 0.66977 0.20951 0.88719 0.0
C1307 C 0.65268 0.20024 0.92811 0.0
C1308 C 0.73247 0.23822 0.7884 0.0
C1309 C 0.73815 0.25716 0.75461 0.0
C1310 C 0.71562 0.23072 0.82993 0.0
C1311 C 0.7037 0.24191 0.84055 0.0
C1312 C 0.70964 0.26123 0.80776 0.0
C1313 C 0.72641 0.2686 0.76512 0.0
H1314 H 0.52515 0.20335 0.97971 0.0
H1315 H 0.53064 0.14406 0.97123 0.0
H1316 H 0.50001 0.19031 0.89941 0.0
H1317 H 0.50579 0.13119 0.89051 0.0
H1318 H 0.5433 0.18387 0.73136 0.0
H1319 H 0.53031 0.15865 0.81161 0.0
H1320 H 0.47159 0.16512 0.82282 0.0
H1321 H 0.48437 0.18996 0.74179 0.0
C1322 C 0.52013 0.18706 0.96235 0.0
C1323 C 0.53066 0.17532 0.97978 0.0
C1324 C 0.5054 0.17931 0.91683 0.0
C1325 C 0.50177 0.16014 0.88725 0.0
C1326 C 0.50865 0.14619 0.91201 0.0
C1327 C 0.52314 0.15379 0.95807 0.0
C1328 C 0.52704 0.17889 0.74904 0.0
C1329 C 0.51544 0.18966 0.73241 0.0
C1330 C 0.51933 0.16415 0.79461 0.0
C1331 C 0.50042 0.16086 0.82504 0.0
C1332 C 0.48643 0.16779 0.80072 0.0
C1333 C 0.49397 0.18226 0.7545 0.0
H1334 H 0.89758 0.38304 0.99776 0.0
H1335 H 0.83021 0.32861 1.02009 0.0
H1336 H 0.90641 0.35924 0.94228 0.0
H1337 H 0.8387 0.30527 0.96229 0.0
H1338 H 0.87199 0.34823 0.76121 0.0
H1339 H 0.8915 0.35724 0.85039 0.0
H1340 H 0.8532 0.28814 0.90161 0.0
H1341 H 0.83342 0.27934 0.81178 0.0
C1342 C 0.88475 0.36584 0.99254 0.0
C1343 C 0.86258 0.35819 1.00946 0.0
C1344 C 0.88996 0.35208 0.96098 0.0
C1345 C 0.87285 0.33101 0.94386 0.0
C1346 C 0.85219 0.32183 0.97207 0.0
C1347 C 0.84703 0.33544 1.00428 0.0
C1348 C 0.86834 0.33488 0.79082 0.0
C1349 C 0.85036 0.31348 0.78146 0.0
C1350 C 0.8798 0.33987 0.84192 0.0
C1351 C 0.87277 0.32358 0.88493 0.0
C1352 C 0.85826 0.30122 0.87024 0.0
C1353 C 0.84681 0.2962 0.81884 0.0
H1354 H 0.71656 0.51026 0.0843 0.0
H1355 H 0.66684 0.51894 0.9961 0.0
H1356 H 0.74558 0.54016 1.02801 0.0
H1357 H 0.69543 0.54799 0.93954 0.0
H1358 H 0.74065 0.5059 0.84967 0.0
H1359 H 0.73895 0.51746 0.94445 0.0
H1360 H 0.72644 0.56859 0.87864 0.0
H1361 H 0.72839 0.55672 0.78254 0.0
C1362 C 0.71193 0.51914 0.05452 0.0
C1363 C 0.68947 0.5111 0.04071 0.0
C1364 C 0.72855 0.53656 1.02297 0.0
C1365 C 0.72237 0.54429 0.97503 0.0
C1366 C 0.70065 0.54108 0.97343 0.0
C1367 C 0.68403 0.52404 1.0056 0.0
C1368 C 0.73793 0.51985 0.85547 0.0
C1369 C 0.73364 0.52971 0.80912 0.0
C1370 C 0.7374 0.52692 0.91 0.0
C1371 C 0.73222 0.54391 0.91964 0.0
C1372 C 0.73013 0.55527 0.87278 0.0
C1373 C 0.73069 0.54813 0.81791 0.0
H1374 H 0.47896 0.78532 0.36734 0.0
H1375 H 0.5208 0.78104 0.23915 0.0
H1376 H 0.4622 0.79829 0.29529 0.0
H1377 H 0.50362 0.79315 0.16724 0.0
H1378 H 0.45274 0.79728 0.0429 0.0
H1379 H 0.46589 0.78117 0.11614 0.0
H1380 H 0.47584 0.83355 0.23094 0.0
H1381 H 0.46351 0.84999 0.1574 0.0
C1382 C 0.48434 0.78672 0.32376 0.0
C1383 C 0.50129 0.78196 0.30956 0.0
C1384 C 0.4748 0.79433 0.28226 0.0
C1385 C 0.48139 0.79682 0.22474 0.0
C1386 C 0.49784 0.79135 0.21054 0.0
C1387 C 0.50779 0.78441 0.25213 0.0
C1388 C 0.45748 0.80523 0.08393 0.0
C1389 C 0.45687 0.82499 0.09377 0.0
C1390 C 0.4652 0.79605 0.12606 0.0
C1391 C 0.472 0.80591 0.18018 0.0
C1392 C 0.47066 0.82524 0.19041 0.0
C1393 C 0.46357 0.83475 0.14789 0.0
H1394 H 0.28794 0.71615 0.32778 0.0
H1395 H 0.23918 0.73385 0.27555 0.0
H1396 H 0.27511 0.68799 0.25158 0.0
H1397 H 0.22626 0.70583 0.20133 0.0
H1398 H 0.19026 0.63623 0.12042 0.0
H1399 H 0.20577 0.66425 0.19462 0.0
H1400 H 0.27222 0.68342 0.13908 0.0
H1401 H 0.25646 0.65526 0.06294 0.0
C1402 C 0.27446 0.71405 0.30049 0.0
C1403 C 0.26466 0.72748 0.30865 0.0
C1404 C 0.26716 0.69794 0.25631 0.0
C1405 C 0.24946 0.69433 0.21963 0.0
C1406 C 0.23974 0.70774 0.22837 0.0
C1407 C 0.24727 0.72401 0.27132 0.0
C1408 C 0.20823 0.64636 0.12348 0.0
C1409 C 0.22194 0.64326 0.0847 0.0
C1410 C 0.21719 0.66263 0.16642 0.0
C1411 C 0.24039 0.67641 0.17368 0.0
C1412 C 0.25429 0.67317 0.13553 0.0
C1413 C 0.24522 0.65707 0.09139 0.0
H1414 H 0.32483 0.58061 0.30728 0.0
H1415 H 0.31202 0.51475 0.26539 0.0
H1416 H 0.35378 0.59631 0.2328 0.0
H1417 H 0.34063 0.53021 0.19272 0.0
H1418 H 0.41088 0.5651 0.11886 0.0
H1419 H 0.38161 0.5525 0.18961 0.0
H1420 H 0.36147 0.59766 0.12288 0.0
H1421 H 0.39111 0.6103 0.05032 0.0
C1422 C 0.32802 0.56942 0.28231 0.0
C1423 C 0.31583 0.54626 0.29317 0.0
C1424 C 0.34464 0.57845 0.23923 0.0
C1425 C 0.34995 0.56467 0.20629 0.0
C1426 C 0.3375 0.54158 0.21707 0.0
C1427 C 0.32082 0.53262 0.25907 0.0
C1428 C 0.40033 0.57251 0.11875 0.0
C1429 C 0.40364 0.5888 0.07794 0.0
C1430 C 0.38329 0.56511 0.15968 0.0
C1431 C 0.36877 0.57381 0.16263 0.0
C1432 C 0.37223 0.5905 0.12258 0.0
C1433 C 0.38923 0.59771 0.08056 0.0
H1434 H 0.22353 0.47381 0.23977 0.0
H1435 H 0.18257 0.50167 0.2882 0.0
H1436 H 0.20499 0.46338 0.14833 0.0
H1437 H 0.16435 0.4918 0.19733 0.0
H1438 H 0.22832 0.52742 0.03231 0.0
H1439 H 0.2195 0.49521 0.08909 0.0
H1440 H 0.15132 0.48058 0.10405 0.0
H1441 H 0.16046 0.51362 0.0498 0.0
C1442 C 0.20989 0.47685 0.23183 0.0
C1443 C 0.20533 0.48981 0.26922 0.0
C1444 C 0.19916 0.47075 0.17944 0.0
C1445 C 0.18443 0.47825 0.16375 0.0
C1446 C 0.17632 0.48652 0.20651 0.0
C1447 C 0.18702 0.49261 0.25865 0.0
C1448 C 0.21135 0.51721 0.0469 0.0
C1449 C 0.19571 0.5243 0.04077 0.0
C1450 C 0.20601 0.49821 0.07851 0.0
C1451 C 0.18503 0.48629 0.10505 0.0
C1452 C 0.168 0.49021 0.08682 0.0
C1453 C 0.17339 0.50944 0.05595 0.0
H1454 H 0.51181 0.66922 0.32326 0.0
H1455 H 0.57135 0.73335 0.30201 0.0
H1456 H 0.52313 0.65498 0.24414 0.0
H1457 H 0.58257 0.71908 0.22316 0.0
H1458 H 0.52165 0.636 0.08793 0.0
H1459 H 0.54662 0.64937 0.16815 0.0
H1460 H 0.55451 0.71475 0.14533 0.0
H1461 H 0.5294 0.70137 0.06502 0.0
C1462 C 0.52772 0.67997 0.30325 0.0
C1463 C 0.53995 0.70263 0.31671 0.0
C1464 C 0.53453 0.67174 0.25853 0.0
C1465 C 0.55329 0.68634 0.22602 0.0
C1466 C 0.56784 0.70767 0.24694 0.0
C1467 C 0.56114 0.71587 0.29195 0.0
C1468 C 0.52955 0.65354 0.09795 0.0
C1469 C 0.52264 0.66747 0.07226 0.0
C1470 C 0.54414 0.66121 0.14375 0.0
C1471 C 0.55165 0.68271 0.16439 0.0
C1472 C 0.54856 0.69785 0.13111 0.0
C1473 C 0.5338 0.69015 0.08568 0.0
H1474 H 0.38583 0.84596 0.35617 0.0
H1475 H 0.32932 0.85562 0.33304 0.0
H1476 H 0.4079 0.87758 0.29612 0.0
H1477 H 0.35182 0.88802 0.27519 0.0
H1478 H 0.43332 0.89855 0.14527 0.0
H1479 H 0.42367 0.90914 0.23425 0.0
H1480 H 0.35434 0.87471 0.18405 0.0
H1481 H 0.36416 0.86461 0.09548 0.0
C1482 C 0.37826 0.85519 0.3397 0.0
C1483 C 0.35533 0.84709 0.34549 0.0
C1484 C 0.39113 0.87385 0.30617 0.0
C1485 C 0.38103 0.88433 0.27729 0.0
C1486 C 0.3597 0.87953 0.29457 0.0
C1487 C 0.34669 0.86067 0.3275 0.0
C1488 C 0.41616 0.89416 0.15224 0.0
C1489 C 0.39917 0.87957 0.11541 0.0
C1490 C 0.41066 0.90039 0.20318 0.0
C1491 C 0.38814 0.89148 0.21802 0.0
C1492 C 0.37187 0.88123 0.1754 0.0
C1493 C 0.37735 0.87499 0.12471 0.0
loop_
_geom_bond_atom_site_label_1
_geom_bond_atom_site_label_2
_geom_bond_distance
_geom_bond_site_symmetry_2
_ccdc_geom_bond_type
Co0 N4 2.148 . S
Co0 N10 2.128 . S
Co0 N20 2.194 . S
Co0 O25 2.351 . S
Co0 O26 2.155 . S
Co0 O27 2.096 . S
C1 N4 1.301 . S
C1 N5 1.328 . S
C1 H6 0.930 . S
C2 C3 1.333 . S
C2 N4 1.317 . S
C2 H7 0.930 . S
C3 C2 1.333 . S
C3 N5 1.350 . S
C3 H29 0.931 . S
N4 Co0 2.148 . S
N4 C1 1.301 . S
N4 C2 1.317 . S
N5 C1 1.328 . S
N5 C3 1.350 . S
H6 C1 0.930 . S
H7 C2 0.930 . S
C8 O9 1.224 . S
C8 O27 1.247 . S
O9 C8 1.224 . S
N10 Co0 2.128 . S
N10 C11 1.355 . S
N10 C13 1.311 . S
C11 N10 1.355 . S
C11 C12 1.363 . S
C11 H23 0.929 . S
C12 C11 1.363 . S
C12 N14 1.375 . S
C12 H30 0.931 . S
C13 N10 1.311 . S
C13 N14 1.347 . S
C13 H24 0.929 . S
N14 C12 1.375 . S
N14 C13 1.347 . S
C15 C18 1.365 . S
C15 N20 1.328 . S
C15 H21 0.929 . S
C16 C17 1.362 . S
C16 C19 1.378 . S
C16 H31 0.929 . S
C17 C16 1.362 . S
C17 C18 1.366 . S
C18 C15 1.365 . S
C18 C17 1.366 . S
C18 H32 0.930 . S
C19 C16 1.378 . S
C19 N20 1.315 . S
C19 H22 0.930 . S
N20 Co0 2.194 . S
N20 C15 1.328 . S
N20 C19 1.315 . S
H21 C15 0.929 . S
H22 C19 0.930 . S
H23 C11 0.929 . S
H24 C13 0.929 . S
O25 Co0 2.351 . S
O25 C28 1.244 . S
O26 Co0 2.155 . S
O26 C28 1.240 . S
O27 Co0 2.096 . S
O27 C8 1.247 . S
C28 O25 1.244 . S
C28 O26 1.240 . S
H29 C3 0.931 . S
H30 C12 0.931 . S
H31 C16 0.929 . S
H32 C18 0.930 . S
Co33 N37 2.148 . S
Co33 N43 2.128 . S
Co33 N53 2.194 . S
Co33 O58 2.351 . S
Co33 O59 2.155 . S
Co33 O60 2.096 . S
C34 N37 1.301 . S
C34 N38 1.328 . S
C34 H39 0.930 . S
C35 C36 1.333 . S
C35 N37 1.317 . S
C35 H40 0.930 . S
C36 C35 1.333 . S
C36 N38 1.350 . S
C36 H62 0.931 . S
N37 Co33 2.148 . S
N37 C34 1.301 . S
N37 C35 1.317 . S
N38 C34 1.328 . S
N38 C36 1.350 . S
H39 C34 0.930 . S
H40 C35 0.930 . S
C41 O42 1.224 . S
C41 O60 1.247 . S
O42 C41 1.224 . S
N43 Co33 2.128 . S
N43 C44 1.355 . S
N43 C46 1.311 . S
C44 N43 1.355 . S
C44 C45 1.363 . S
C44 H56 0.929 . S
C45 C44 1.363 . S
C45 N47 1.375 . S
C45 H63 0.931 . S
C46 N43 1.311 . S
C46 N47 1.347 . S
C46 H57 0.929 . S
N47 C45 1.375 . S
N47 C46 1.347 . S
C48 C51 1.365 . S
C48 N53 1.328 . S
C48 H54 0.929 . S
C49 C50 1.362 . S
C49 C52 1.378 . S
C49 H64 0.929 . S
C50 C49 1.362 . S
C50 C51 1.366 . S
C51 C48 1.365 . S
C51 C50 1.366 . S
C51 H65 0.930 . S
C52 C49 1.378 . S
C52 N53 1.315 . S
C52 H55 0.930 . S
N53 Co33 2.194 . S
N53 C48 1.328 . S
N53 C52 1.315 . S
H54 C48 0.929 . S
H55 C52 0.930 . S
H56 C44 0.929 . S
H57 C46 0.929 . S
O58 Co33 2.351 . S
O58 C61 1.244 . S
O59 Co33 2.155 . S
O59 C61 1.240 . S
O60 Co33 2.096 . S
O60 C41 1.247 . S
C61 O58 1.244 . S
C61 O59 1.240 . S
H62 C36 0.931 . S
H63 C45 0.931 . S
H64 C49 0.929 . S
H65 C51 0.930 . S
Co66 N70 2.148 . S
Co66 N76 2.128 . S
Co66 N86 2.194 . S
Co66 O91 2.351 . S
Co66 O92 2.155 . S
Co66 O93 2.096 . S
C67 N70 1.301 . S
C67 N71 1.328 . S
C67 H72 0.930 . S
C68 C69 1.333 . S
C68 N70 1.317 . S
C68 H73 0.930 . S
C69 C68 1.333 . S
C69 N71 1.350 . S
C69 H95 0.931 . S
N70 Co66 2.148 . S
N70 C67 1.301 . S
N70 C68 1.317 . S
N71 C67 1.328 . S
N71 C69 1.350 . S
H72 C67 0.930 . S
H73 C68 0.930 . S
C74 O75 1.224 . S
C74 O93 1.247 . S
O75 C74 1.224 . S
N76 Co66 2.128 . S
N76 C77 1.355 . S
N76 C79 1.311 . S
C77 N76 1.355 . S
C77 C78 1.363 . S
C77 H89 0.929 . S
C78 C77 1.363 . S
C78 N80 1.375 . S
C78 H96 0.931 . S
C79 N76 1.311 . S
C79 N80 1.347 . S
C79 H90 0.929 . S
N80 C78 1.375 . S
N80 C79 1.347 . S
C81 C84 1.365 . S
C81 N86 1.328 . S
C81 H87 0.929 . S
C82 C83 1.362 . S
C82 C85 1.378 . S
C82 H97 0.929 . S
C83 C82 1.362 . S
C83 C84 1.366 . S
C84 C81 1.365 . S
C84 C83 1.366 . S
C84 H98 0.930 . S
C85 C82 1.378 . S
C85 N86 1.315 . S
C85 H88 0.930 . S
N86 Co66 2.194 . S
N86 C81 1.328 . S
N86 C85 1.315 . S
H87 C81 0.929 . S
H88 C85 0.930 . S
H89 C77 0.929 . S
H90 C79 0.929 . S
O91 Co66 2.351 . S
O91 C94 1.244 . S
O92 Co66 2.155 . S
O92 C94 1.240 . S
O93 Co66 2.096 . S
O93 C74 1.247 . S
C94 O91 1.244 . S
C94 O92 1.240 . S
H95 C69 0.931 . S
H96 C78 0.931 . S
H97 C82 0.929 . S
H98 C84 0.930 . S
Co99 N103 2.148 . S
Co99 N109 2.128 . S
Co99 N119 2.194 . S
Co99 O124 2.351 . S
Co99 O125 2.155 . S
Co99 O126 2.096 . S
C100 N103 1.301 . S
C100 N104 1.328 . S
C100 H105 0.930 . S
C101 C102 1.333 . S
C101 N103 1.317 . S
C101 H106 0.930 . S
C102 C101 1.333 . S
C102 N104 1.350 . S
C102 H128 0.931 . S
N103 Co99 2.148 . S
N103 C100 1.301 . S
N103 C101 1.317 . S
N104 C100 1.328 . S
N104 C102 1.350 . S
H105 C100 0.930 . S
H106 C101 0.930 . S
C107 O108 1.224 . S
C107 O126 1.247 . S
O108 C107 1.224 . S
N109 Co99 2.128 . S
N109 C110 1.355 . S
N109 C112 1.311 . S
C110 N109 1.355 . S
C110 C111 1.363 . S
C110 H122 0.929 . S
C111 C110 1.363 . S
C111 N113 1.375 . S
C111 H129 0.931 . S
C112 N109 1.311 . S
C112 N113 1.347 . S
C112 H123 0.929 . S
N113 C111 1.375 . S
N113 C112 1.347 . S
C114 C117 1.365 . S
C114 N119 1.328 . S
C114 H120 0.929 . S
C115 C116 1.362 . S
C115 C118 1.378 . S
C115 H130 0.929 . S
C116 C115 1.362 . S
C116 C117 1.366 . S
C117 C114 1.365 . S
C117 C116 1.366 . S
C117 H131 0.930 . S
C118 C115 1.378 . S
C118 N119 1.315 . S
C118 H121 0.930 . S
N119 Co99 2.194 . S
N119 C114 1.328 . S
N119 C118 1.315 . S
H120 C114 0.929 . S
H121 C118 0.930 . S
H122 C110 0.929 . S
H123 C112 0.929 . S
O124 Co99 2.351 . S
O124 C127 1.244 . S
O125 Co99 2.155 . S
O125 C127 1.240 . S
O126 Co99 2.096 . S
O126 C107 1.247 . S
C127 O124 1.244 . S
C127 O125 1.240 . S
H128 C102 0.931 . S
H129 C111 0.931 . S
H130 C115 0.929 . S
H131 C117 0.930 . S
Co132 N136 2.148 . S
Co132 N142 2.128 . S
Co132 N152 2.194 . S
Co132 O157 2.351 . S
Co132 O158 2.155 . S
Co132 O159 2.096 . S
C133 N136 1.301 . S
C133 N137 1.328 . S
C133 H138 0.930 . S
C134 C135 1.333 . S
C134 N136 1.317 . S
C134 H139 0.930 . S
C135 C134 1.333 . S
C135 N137 1.350 . S
C135 H161 0.931 . S
N136 Co132 2.148 . S
N136 C133 1.301 . S
N136 C134 1.317 . S
N137 C133 1.328 . S
N137 C135 1.350 . S
H138 C133 0.930 . S
H139 C134 0.930 . S
C140 O141 1.224 . S
C140 O159 1.247 . S
O141 C140 1.224 . S
N142 Co132 2.128 . S
N142 C143 1.355 . S
N142 C145 1.311 . S
C143 N142 1.355 . S
C143 C144 1.363 . S
C143 H155 0.929 . S
C144 C143 1.363 . S
C144 N146 1.375 . S
C144 H162 0.931 . S
C145 N142 1.311 . S
C145 N146 1.347 . S
C145 H156 0.929 . S
N146 C144 1.375 . S
N146 C145 1.347 . S
C147 C150 1.365 . S
C147 N152 1.328 . S
C147 H153 0.929 . S
C148 C149 1.362 . S
C148 C151 1.378 . S
C148 H163 0.929 . S
C149 C148 1.362 . S
C149 C150 1.366 . S
C150 C147 1.365 . S
C150 C149 1.366 . S
C150 H164 0.930 . S
C151 C148 1.378 . S
C151 N152 1.315 . S
C151 H154 0.930 . S
N152 Co132 2.194 . S
N152 C147 1.328 . S
N152 C151 1.315 . S
H153 C147 0.929 . S
H154 C151 0.930 . S
H155 C143 0.929 . S
H156 C145 0.929 . S
O157 Co132 2.351 . S
O157 C160 1.244 . S
O158 Co132 2.155 . S
O158 C160 1.240 . S
O159 Co132 2.096 . S
O159 C140 1.247 . S
C160 O157 1.244 . S
C160 O158 1.240 . S
H161 C135 0.931 . S
H162 C144 0.931 . S
H163 C148 0.929 . S
H164 C150 0.930 . S
Co165 N169 2.148 . S
Co165 N175 2.128 . S
Co165 N185 2.194 . S
Co165 O190 2.351 . S
Co165 O191 2.155 . S
Co165 O192 2.096 . S
C166 N169 1.301 . S
C166 N170 1.328 . S
C166 H171 0.930 . S
C167 C168 1.333 . S
C167 N169 1.317 . S
C167 H172 0.930 . S
C168 C167 1.333 . S
C168 N170 1.350 . S
C168 H194 0.931 . S
N169 Co165 2.148 . S
N169 C166 1.301 . S
N169 C167 1.317 . S
N170 C166 1.328 . S
N170 C168 1.350 . S
H171 C166 0.930 . S
H172 C167 0.930 . S
C173 O174 1.224 . S
C173 O192 1.247 . S
O174 C173 1.224 . S
N175 Co165 2.128 . S
N175 C176 1.355 . S
N175 C178 1.311 . S
C176 N175 1.355 . S
C176 C177 1.363 . S
C176 H188 0.929 . S
C177 C176 1.363 . S
C177 N179 1.375 . S
C177 H195 0.931 . S
C178 N175 1.311 . S
C178 N179 1.347 . S
C178 H189 0.929 . S
N179 C177 1.375 . S
N179 C178 1.347 . S
C180 C183 1.365 . S
C180 N185 1.328 . S
C180 H186 0.929 . S
C181 C182 1.362 . S
C181 C184 1.378 . S
C181 H196 0.929 . S
C182 C181 1.362 . S
C182 C183 1.366 . S
C183 C180 1.365 . S
C183 C182 1.366 . S
C183 H197 0.930 . S
C184 C181 1.378 . S
C184 N185 1.315 . S
C184 H187 0.930 . S
N185 Co165 2.194 . S
N185 C180 1.328 . S
N185 C184 1.315 . S
H186 C180 0.929 . S
H187 C184 0.930 . S
H188 C176 0.929 . S
H189 C178 0.929 . S
O190 Co165 2.351 . S
O190 C193 1.244 . S
O191 Co165 2.155 . S
O191 C193 1.240 . S
O192 Co165 2.096 . S
O192 C173 1.247 . S
C193 O190 1.244 . S
C193 O191 1.240 . S
H194 C168 0.931 . S
H195 C177 0.931 . S
H196 C181 0.929 . S
H197 C183 0.930 . S
Co198 N202 2.148 . S
Co198 N208 2.128 . S
Co198 N218 2.194 . S
Co198 O223 2.351 . S
Co198 O224 2.155 . S
Co198 O225 2.096 . S
C199 N202 1.301 . S
C199 N203 1.328 . S
C199 H204 0.930 . S
C200 C201 1.333 . S
C200 N202 1.317 . S
C200 H205 0.930 . S
C201 C200 1.333 . S
C201 N203 1.350 . S
C201 H227 0.931 . S
N202 Co198 2.148 . S
N202 C199 1.301 . S
N202 C200 1.317 . S
N203 C199 1.328 . S
N203 C201 1.350 . S
H204 C199 0.930 . S
H205 C200 0.930 . S
C206 O207 1.224 . S
C206 O225 1.247 . S
O207 C206 1.224 . S
N208 Co198 2.128 . S
N208 C209 1.355 . S
N208 C211 1.311 . S
C209 N208 1.355 . S
C209 C210 1.363 . S
C209 H221 0.929 . S
C210 C209 1.363 . S
C210 N212 1.375 . S
C210 H228 0.931 . S
C211 N208 1.311 . S
C211 N212 1.347 . S
C211 H222 0.929 . S
N212 C210 1.375 . S
N212 C211 1.347 . S
C213 C216 1.365 . S
C213 N218 1.328 . S
C213 H219 0.929 . S
C214 C215 1.362 . S
C214 C217 1.378 . S
C214 H229 0.929 . S
C215 C214 1.362 . S
C215 C216 1.366 . S
C216 C213 1.365 . S
C216 C215 1.366 . S
C216 H230 0.930 . S
C217 C214 1.378 . S
C217 N218 1.315 . S
C217 H220 0.930 . S
N218 Co198 2.194 . S
N218 C213 1.328 . S
N218 C217 1.315 . S
H219 C213 0.929 . S
H220 C217 0.930 . S
H221 C209 0.929 . S
H222 C211 0.929 . S
O223 Co198 2.351 . S
O223 C226 1.244 . S
O224 Co198 2.155 . S
O224 C226 1.240 . S
O225 Co198 2.096 . S
O225 C206 1.247 . S
C226 O223 1.244 . S
C226 O224 1.240 . S
H227 C201 0.931 . S
H228 C210 0.931 . S
H229 C214 0.929 . S
H230 C216 0.930 . S
Co231 N235 2.148 . S
Co231 N241 2.128 . S
Co231 N251 2.194 . S
Co231 O256 2.351 . S
Co231 O257 2.155 . S
Co231 O258 2.096 . S
C232 N235 1.301 . S
C232 N236 1.328 . S
C232 H237 0.930 . S
C233 C234 1.333 . S
C233 N235 1.317 . S
C233 H238 0.930 . S
C234 C233 1.333 . S
C234 N236 1.350 . S
C234 H260 0.931 . S
N235 Co231 2.148 . S
N235 C232 1.301 . S
N235 C233 1.317 . S
N236 C232 1.328 . S
N236 C234 1.350 . S
H237 C232 0.930 . S
H238 C233 0.930 . S
C239 O240 1.224 . S
C239 O258 1.247 . S
O240 C239 1.224 . S
N241 Co231 2.128 . S
N241 C242 1.355 . S
N241 C244 1.311 . S
C242 N241 1.355 . S
C242 C243 1.363 . S
C242 H254 0.929 . S
C243 C242 1.363 . S
C243 N245 1.375 . S
C243 H261 0.931 . S
C244 N241 1.311 . S
C244 N245 1.347 . S
C244 H255 0.929 . S
N245 C243 1.375 . S
N245 C244 1.347 . S
C246 C249 1.365 . S
C246 N251 1.328 . S
C246 H252 0.929 . S
C247 C248 1.362 . S
C247 C250 1.378 . S
C247 H262 0.929 . S
C248 C247 1.362 . S
C248 C249 1.366 . S
C249 C246 1.365 . S
C249 C248 1.366 . S
C249 H263 0.930 . S
C250 C247 1.378 . S
C250 N251 1.315 . S
C250 H253 0.930 . S
N251 Co231 2.194 . S
N251 C246 1.328 . S
N251 C250 1.315 . S
H252 C246 0.929 . S
H253 C250 0.930 . S
H254 C242 0.929 . S
H255 C244 0.929 . S
O256 Co231 2.351 . S
O256 C259 1.244 . S
O257 Co231 2.155 . S
O257 C259 1.240 . S
O258 Co231 2.096 . S
O258 C239 1.247 . S
C259 O256 1.244 . S
C259 O257 1.240 . S
H260 C234 0.931 . S
H261 C243 0.931 . S
H262 C247 0.929 . S
H263 C249 0.930 . S
Co264 N268 2.148 . S
Co264 N274 2.128 . S
Co264 N284 2.194 . S
Co264 O289 2.351 . S
Co264 O290 2.155 . S
Co264 O291 2.096 . S
C265 N268 1.301 . S
C265 N269 1.328 . S
C265 H270 0.930 . S
C266 C267 1.333 . S
C266 N268 1.317 . S
C266 H271 0.930 . S
C267 C266 1.333 . S
C267 N269 1.350 . S
C267 H293 0.931 . S
N268 Co264 2.148 . S
N268 C265 1.301 . S
N268 C266 1.317 . S
N269 C265 1.328 . S
N269 C267 1.350 . S
H270 C265 0.930 . S
H271 C266 0.930 . S
C272 O273 1.224 . S
C272 O291 1.247 . S
O273 C272 1.224 . S
N274 Co264 2.128 . S
N274 C275 1.355 . S
N274 C277 1.311 . S
C275 N274 1.355 . S
C275 C276 1.363 . S
C275 H287 0.929 . S
C276 C275 1.363 . S
C276 N278 1.375 . S
C276 H294 0.931 . S
C277 N274 1.311 . S
C277 N278 1.347 . S
C277 H288 0.929 . S
N278 C276 1.375 . S
N278 C277 1.347 . S
C279 C282 1.365 . S
C279 N284 1.328 . S
C279 H285 0.929 . S
C280 C281 1.362 . S
C280 C283 1.378 . S
C280 H295 0.929 . S
C281 C280 1.362 . S
C281 C282 1.366 . S
C282 C279 1.365 . S
C282 C281 1.366 . S
C282 H296 0.930 . S
C283 C280 1.378 . S
C283 N284 1.315 . S
C283 H286 0.930 . S
N284 Co264 2.194 . S
N284 C279 1.328 . S
N284 C283 1.315 . S
H285 C279 0.929 . S
H286 C283 0.930 . S
H287 C275 0.929 . S
H288 C277 0.929 . S
O289 Co264 2.351 . S
O289 C292 1.244 . S
O290 Co264 2.155 . S
O290 C292 1.240 . S
O291 Co264 2.096 . S
O291 C272 1.247 . S
C292 O289 1.244 . S
C292 O290 1.240 . S
H293 C267 0.931 . S
H294 C276 0.931 . S
H295 C280 0.929 . S
H296 C282 0.930 . S
Co297 N301 2.148 . S
Co297 N307 2.128 . S
Co297 N317 2.194 . S
Co297 O322 2.351 1_554 S
Co297 O323 2.155 . S
Co297 O324 2.096 . S
C298 N301 1.301 1_556 S
C298 N302 1.328 . S
C298 H303 0.930 . S
C299 C300 1.333 1_554 S
C299 N301 1.317 . S
C299 H304 0.930 . S
C300 C299 1.333 1_556 S
C300 N302 1.350 . S
C300 H326 0.931 . S
N301 Co297 2.148 . S
N301 C298 1.301 1_554 S
N301 C299 1.317 . S
N302 C298 1.328 . S
N302 C300 1.350 . S
H303 C298 0.930 . S
H304 C299 0.930 . S
C305 O306 1.224 . S
C305 O324 1.247 . S
O306 C305 1.224 . S
N307 Co297 2.128 . S
N307 C308 1.355 . S
N307 C310 1.311 . S
C308 N307 1.355 . S
C308 C309 1.363 . S
C308 H320 0.929 . S
C309 C308 1.363 . S
C309 N311 1.375 . S
C309 H327 0.931 . S
C310 N307 1.311 . S
C310 N311 1.347 . S
C310 H321 0.929 . S
N311 C309 1.375 . S
N311 C310 1.347 . S
C312 C315 1.365 . S
C312 N317 1.328 . S
C312 H318 0.929 1_554 S
C313 C314 1.362 . S
C313 C316 1.378 . S
C313 H328 0.929 . S
C314 C313 1.362 . S
C314 C315 1.366 . S
C315 C312 1.365 . S
C315 C314 1.366 . S
C315 H329 0.930 1_554 S
C316 C313 1.378 . S
C316 N317 1.315 . S
C316 H319 0.930 . S
N317 Co297 2.194 . S
N317 C312 1.328 . S
N317 C316 1.315 . S
H318 C312 0.929 1_556 S
H319 C316 0.930 . S
H320 C308 0.929 . S
H321 C310 0.929 . S
O322 Co297 2.351 1_556 S
O322 C325 1.244 1_556 S
O323 Co297 2.155 . S
O323 C325 1.240 . S
O324 Co297 2.096 . S
O324 C305 1.247 . S
C325 O322 1.244 1_554 S
C325 O323 1.240 . S
H326 C300 0.931 . S
H327 C309 0.931 . S
H328 C313 0.929 . S
H329 C315 0.930 1_556 S
Co330 N334 2.148 . S
Co330 N340 2.128 . S
Co330 N350 2.194 . S
Co330 O355 2.351 1_554 S
Co330 O356 2.155 . S
Co330 O357 2.096 . S
C331 N334 1.301 1_556 S
C331 N335 1.328 . S
C331 H336 0.930 . S
C332 C333 1.333 1_554 S
C332 N334 1.317 . S
C332 H337 0.930 . S
C333 C332 1.333 1_556 S
C333 N335 1.350 . S
C333 H359 0.931 . S
N334 Co330 2.148 . S
N334 C331 1.301 1_554 S
N334 C332 1.317 . S
N335 C331 1.328 . S
N335 C333 1.350 . S
H336 C331 0.930 . S
H337 C332 0.930 . S
C338 O339 1.224 . S
C338 O357 1.247 . S
O339 C338 1.224 . S
N340 Co330 2.128 . S
N340 C341 1.355 . S
N340 C343 1.311 . S
C341 N340 1.355 . S
C341 C342 1.363 . S
C341 H353 0.929 . S
C342 C341 1.363 . S
C342 N344 1.375 . S
C342 H360 0.931 . S
C343 N340 1.311 . S
C343 N344 1.347 . S
C343 H354 0.929 . S
N344 C342 1.375 . S
N344 C343 1.347 . S
C345 C348 1.365 . S
C345 N350 1.328 . S
C345 H351 0.929 1_554 S
C346 C347 1.362 . S
C346 C349 1.378 . S
C346 H361 0.929 . S
C347 C346 1.362 . S
C347 C348 1.366 . S
C348 C345 1.365 . S
C348 C347 1.366 . S
C348 H362 0.930 1_554 S
C349 C346 1.378 . S
C349 N350 1.315 . S
C349 H352 0.930 . S
N350 Co330 2.194 . S
N350 C345 1.328 . S
N350 C349 1.315 . S
H351 C345 0.929 1_556 S
H352 C349 0.930 . S
H353 C341 0.929 . S
H354 C343 0.929 . S
O355 Co330 2.351 1_556 S
O355 C358 1.244 1_556 S
O356 Co330 2.155 . S
O356 C358 1.240 . S
O357 Co330 2.096 . S
O357 C338 1.247 . S
C358 O355 1.244 1_554 S
C358 O356 1.240 . S
H359 C333 0.931 . S
H360 C342 0.931 . S
H361 C346 0.929 . S
H362 C348 0.930 1_556 S
Co363 N367 2.148 . S
Co363 N373 2.128 . S
Co363 N383 2.194 . S
Co363 O388 2.351 1_554 S
Co363 O389 2.155 . S
Co363 O390 2.096 . S
C364 N367 1.301 1_556 S
C364 N368 1.328 . S
C364 H369 0.930 . S
C365 C366 1.333 1_554 S
C365 N367 1.317 . S
C365 H370 0.930 . S
C366 C365 1.333 1_556 S
C366 N368 1.350 . S
C366 H392 0.931 . S
N367 Co363 2.148 . S
N367 C364 1.301 1_554 S
N367 C365 1.317 . S
N368 C364 1.328 . S
N368 C366 1.350 . S
H369 C364 0.930 . S
H370 C365 0.930 . S
C371 O372 1.224 . S
C371 O390 1.247 . S
O372 C371 1.224 . S
N373 Co363 2.128 . S
N373 C374 1.355 . S
N373 C376 1.311 . S
C374 N373 1.355 . S
C374 C375 1.363 . S
C374 H386 0.929 . S
C375 C374 1.363 . S
C375 N377 1.375 . S
C375 H393 0.931 . S
C376 N373 1.311 . S
C376 N377 1.347 . S
C376 H387 0.929 . S
N377 C375 1.375 . S
N377 C376 1.347 . S
C378 C381 1.365 . S
C378 N383 1.328 . S
C378 H384 0.929 1_554 S
C379 C380 1.362 . S
C379 C382 1.378 . S
C379 H394 0.929 . S
C380 C379 1.362 . S
C380 C381 1.366 . S
C381 C378 1.365 . S
C381 C380 1.366 . S
C381 H395 0.930 1_554 S
C382 C379 1.378 . S
C382 N383 1.315 . S
C382 H385 0.930 . S
N383 Co363 2.194 . S
N383 C378 1.328 . S
N383 C382 1.315 . S
H384 C378 0.929 1_556 S
H385 C382 0.930 . S
H386 C374 0.929 . S
H387 C376 0.929 . S
O388 Co363 2.351 1_556 S
O388 C391 1.244 1_556 S
O389 Co363 2.155 . S
O389 C391 1.240 . S
O390 Co363 2.096 . S
O390 C371 1.247 . S
C391 O388 1.244 1_554 S
C391 O389 1.240 . S
H392 C366 0.931 . S
H393 C375 0.931 . S
H394 C379 0.929 . S
H395 C381 0.930 1_556 S
Co396 N400 2.148 . S
Co396 N406 2.128 . S
Co396 N416 2.194 . S
Co396 O421 2.351 1_556 S
Co396 O422 2.155 . S
Co396 O423 2.096 . S
C397 N400 1.301 1_554 S
C397 N401 1.328 . S
C397 H402 0.930 . S
C398 C399 1.333 1_556 S
C398 N400 1.317 . S
C398 H403 0.930 . S
C399 C398 1.333 1_554 S
C399 N401 1.350 . S
C399 H425 0.931 . S
N400 Co396 2.148 . S
N400 C397 1.301 1_556 S
N400 C398 1.317 . S
N401 C397 1.328 . S
N401 C399 1.350 . S
H402 C397 0.930 . S
H403 C398 0.930 . S
C404 O405 1.224 . S
C404 O423 1.247 . S
O405 C404 1.224 . S
N406 Co396 2.128 . S
N406 C407 1.355 . S
N406 C409 1.311 . S
C407 N406 1.355 . S
C407 C408 1.363 . S
C407 H419 0.929 . S
C408 C407 1.363 . S
C408 N410 1.375 . S
C408 H426 0.931 . S
C409 N406 1.311 . S
C409 N410 1.347 . S
C409 H420 0.929 . S
N410 C408 1.375 . S
N410 C409 1.347 . S
C411 C414 1.365 . S
C411 N416 1.328 . S
C411 H417 0.929 1_556 S
C412 C413 1.362 . S
C412 C415 1.378 . S
C412 H427 0.929 . S
C413 C412 1.362 . S
C413 C414 1.366 . S
C414 C411 1.365 . S
C414 C413 1.366 . S
C414 H428 0.930 1_556 S
C415 C412 1.378 . S
C415 N416 1.315 . S
C415 H418 0.930 . S
N416 Co396 2.194 . S
N416 C411 1.328 . S
N416 C415 1.315 . S
H417 C411 0.929 1_554 S
H418 C415 0.930 . S
H419 C407 0.929 . S
H420 C409 0.929 . S
O421 Co396 2.351 1_554 S
O421 C424 1.244 1_554 S
O422 Co396 2.155 . S
O422 C424 1.240 . S
O423 Co396 2.096 . S
O423 C404 1.247 . S
C424 O421 1.244 1_556 S
C424 O422 1.240 . S
H425 C399 0.931 . S
H426 C408 0.931 . S
H427 C412 0.929 . S
H428 C414 0.930 1_554 S
Co429 N433 2.148 . S
Co429 N439 2.128 . S
Co429 N449 2.194 . S
Co429 O454 2.351 1_556 S
Co429 O455 2.155 . S
Co429 O456 2.096 . S
C430 N433 1.301 1_554 S
C430 N434 1.328 . S
C430 H435 0.930 . S
C431 C432 1.333 1_556 S
C431 N433 1.317 . S
C431 H436 0.930 . S
C432 C431 1.333 1_554 S
C432 N434 1.350 . S
C432 H458 0.931 . S
N433 Co429 2.148 . S
N433 C430 1.301 1_556 S
N433 C431 1.317 . S
N434 C430 1.328 . S
N434 C432 1.350 . S
H435 C430 0.930 . S
H436 C431 0.930 . S
C437 O438 1.224 . S
C437 O456 1.247 . S
O438 C437 1.224 . S
N439 Co429 2.128 . S
N439 C440 1.355 . S
N439 C442 1.311 . S
C440 N439 1.355 . S
C440 C441 1.363 . S
C440 H452 0.929 . S
C441 C440 1.363 . S
C441 N443 1.375 . S
C441 H459 0.931 . S
C442 N439 1.311 . S
C442 N443 1.347 . S
C442 H453 0.929 . S
N443 C441 1.375 . S
N443 C442 1.347 . S
C444 C447 1.365 . S
C444 N449 1.328 . S
C444 H450 0.929 1_556 S
C445 C446 1.362 . S
C445 C448 1.378 . S
C445 H460 0.929 . S
C446 C445 1.362 . S
C446 C447 1.366 . S
C447 C444 1.365 . S
C447 C446 1.366 . S
C447 H461 0.930 1_556 S
C448 C445 1.378 . S
C448 N449 1.315 . S
C448 H451 0.930 . S
N449 Co429 2.194 . S
N449 C444 1.328 . S
N449 C448 1.315 . S
H450 C444 0.929 1_554 S
H451 C448 0.930 . S
H452 C440 0.929 . S
H453 C442 0.929 . S
O454 Co429 2.351 1_554 S
O454 C457 1.244 1_554 S
O455 Co429 2.155 . S
O455 C457 1.240 . S
O456 Co429 2.096 . S
O456 C437 1.247 . S
C457 O454 1.244 1_556 S
C457 O455 1.240 . S
H458 C432 0.931 . S
H459 C441 0.931 . S
H460 C445 0.929 . S
H461 C447 0.930 1_554 S
Co462 N466 2.148 . S
Co462 N472 2.128 . S
Co462 N482 2.194 . S
Co462 O487 2.351 1_556 S
Co462 O488 2.155 . S
Co462 O489 2.096 . S
C463 N466 1.301 1_554 S
C463 N467 1.328 . S
C463 H468 0.930 . S
C464 C465 1.333 1_556 S
C464 N466 1.317 . S
C464 H469 0.930 . S
C465 C464 1.333 1_554 S
C465 N467 1.350 . S
C465 H491 0.931 . S
N466 Co462 2.148 . S
N466 C463 1.301 1_556 S
N466 C464 1.317 . S
N467 C463 1.328 . S
N467 C465 1.350 . S
H468 C463 0.930 . S
H469 C464 0.930 . S
C470 O471 1.224 . S
C470 O489 1.247 . S
O471 C470 1.224 . S
N472 Co462 2.128 . S
N472 C473 1.355 . S
N472 C475 1.311 . S
C473 N472 1.355 . S
C473 C474 1.363 . S
C473 H485 0.929 . S
C474 C473 1.363 . S
C474 N476 1.375 . S
C474 H492 0.931 . S
C475 N472 1.311 . S
C475 N476 1.347 . S
C475 H486 0.929 . S
N476 C474 1.375 . S
N476 C475 1.347 . S
C477 C480 1.365 . S
C477 N482 1.328 . S
C477 H483 0.929 1_556 S
C478 C479 1.362 . S
C478 C481 1.378 . S
C478 H493 0.929 . S
C479 C478 1.362 . S
C479 C480 1.366 . S
C480 C477 1.365 . S
C480 C479 1.366 . S
C480 H494 0.930 1_556 S
C481 C478 1.378 . S
C481 N482 1.315 . S
C481 H484 0.930 . S
N482 Co462 2.194 . S
N482 C477 1.328 . S
N482 C481 1.315 . S
H483 C477 0.929 1_554 S
H484 C481 0.930 . S
H485 C473 0.929 . S
H486 C475 0.929 . S
O487 Co462 2.351 1_554 S
O487 C490 1.244 1_554 S
O488 Co462 2.155 . S
O488 C490 1.240 . S
O489 Co462 2.096 . S
O489 C470 1.247 . S
C490 O487 1.244 1_556 S
C490 O488 1.240 . S
H491 C465 0.931 . S
H492 C474 0.931 . S
H493 C478 0.929 . S
H494 C480 0.930 1_554 S
Co495 N499 2.148 . S
Co495 N505 2.128 . S
Co495 N515 2.194 . S
Co495 O520 2.351 . S
Co495 O521 2.155 . S
Co495 O522 2.096 . S
C496 N499 1.301 . S
C496 N500 1.328 . S
C496 H501 0.930 . S
C497 C498 1.333 . S
C497 N499 1.317 . S
C497 H502 0.930 . S
C498 C497 1.333 . S
C498 N500 1.350 . S
C498 H524 0.931 . S
N499 Co495 2.148 . S
N499 C496 1.301 . S
N499 C497 1.317 . S
N500 C496 1.328 . S
N500 C498 1.350 . S
H501 C496 0.930 . S
H502 C497 0.930 . S
C503 O504 1.224 . S
C503 O522 1.247 . S
O504 C503 1.224 . S
N505 Co495 2.128 . S
N505 C506 1.355 . S
N505 C508 1.311 . S
C506 N505 1.355 . S
C506 C507 1.363 . S
C506 H518 0.929 . S
C507 C506 1.363 . S
C507 N509 1.375 . S
C507 H525 0.931 . S
C508 N505 1.311 . S
C508 N509 1.347 . S
C508 H519 0.929 . S
N509 C507 1.375 . S
N509 C508 1.347 . S
C510 C513 1.365 . S
C510 N515 1.328 . S
C510 H516 0.929 . S
C511 C512 1.362 . S
C511 C514 1.378 . S
C511 H526 0.929 . S
C512 C511 1.362 . S
C512 C513 1.366 . S
C513 C510 1.365 . S
C513 C512 1.366 . S
C513 H527 0.930 . S
C514 C511 1.378 . S
C514 N515 1.315 . S
C514 H517 0.930 . S
N515 Co495 2.194 . S
N515 C510 1.328 . S
N515 C514 1.315 . S
H516 C510 0.929 . S
H517 C514 0.930 . S
H518 C506 0.929 . S
H519 C508 0.929 . S
O520 Co495 2.351 . S
O520 C523 1.244 . S
O521 Co495 2.155 . S
O521 C523 1.240 . S
O522 Co495 2.096 . S
O522 C503 1.247 . S
C523 O520 1.244 . S
C523 O521 1.240 . S
H524 C498 0.931 . S
H525 C507 0.931 . S
H526 C511 0.929 . S
H527 C513 0.930 . S
Co528 N532 2.148 . S
Co528 N538 2.128 . S
Co528 N548 2.194 . S
Co528 O553 2.351 . S
Co528 O554 2.155 . S
Co528 O555 2.096 . S
C529 N532 1.301 . S
C529 N533 1.328 . S
C529 H534 0.930 . S
C530 C531 1.333 . S
C530 N532 1.317 . S
C530 H535 0.930 . S
C531 C530 1.333 . S
C531 N533 1.350 . S
C531 H557 0.931 . S
N532 Co528 2.148 . S
N532 C529 1.301 . S
N532 C530 1.317 . S
N533 C529 1.328 . S
N533 C531 1.350 . S
H534 C529 0.930 . S
H535 C530 0.930 . S
C536 O537 1.224 . S
C536 O555 1.247 . S
O537 C536 1.224 . S
N538 Co528 2.128 . S
N538 C539 1.355 . S
N538 C541 1.311 . S
C539 N538 1.355 . S
C539 C540 1.363 . S
C539 H551 0.929 . S
C540 C539 1.363 . S
C540 N542 1.375 . S
C540 H558 0.931 . S
C541 N538 1.311 . S
C541 N542 1.347 . S
C541 H552 0.929 . S
N542 C540 1.375 . S
N542 C541 1.347 . S
C543 C546 1.365 . S
C543 N548 1.328 . S
C543 H549 0.929 . S
C544 C545 1.362 . S
C544 C547 1.378 . S
C544 H559 0.929 . S
C545 C544 1.362 . S
C545 C546 1.366 . S
C546 C543 1.365 . S
C546 C545 1.366 . S
C546 H560 0.930 . S
C547 C544 1.378 . S
C547 N548 1.315 . S
C547 H550 0.930 . S
N548 Co528 2.194 . S
N548 C543 1.328 . S
N548 C547 1.315 . S
H549 C543 0.929 . S
H550 C547 0.930 . S
H551 C539 0.929 . S
H552 C541 0.929 . S
O553 Co528 2.351 . S
O553 C556 1.244 . S
O554 Co528 2.155 . S
O554 C556 1.240 . S
O555 Co528 2.096 . S
O555 C536 1.247 . S
C556 O553 1.244 . S
C556 O554 1.240 . S
H557 C531 0.931 . S
H558 C540 0.931 . S
H559 C544 0.929 . S
H560 C546 0.930 . S
Co561 N565 2.148 . S
Co561 N571 2.128 . S
Co561 N581 2.194 . S
Co561 O586 2.351 . S
Co561 O587 2.155 . S
Co561 O588 2.096 . S
C562 N565 1.301 . S
C562 N566 1.328 . S
C562 H567 0.930 . S
C563 C564 1.333 . S
C563 N565 1.317 . S
C563 H568 0.930 . S
C564 C563 1.333 . S
C564 N566 1.350 . S
C564 H590 0.931 . S
N565 Co561 2.148 . S
N565 C562 1.301 . S
N565 C563 1.317 . S
N566 C562 1.328 . S
N566 C564 1.350 . S
H567 C562 0.930 . S
H568 C563 0.930 . S
C569 O570 1.224 . S
C569 O588 1.247 . S
O570 C569 1.224 . S
N571 Co561 2.128 . S
N571 C572 1.355 . S
N571 C574 1.311 . S
C572 N571 1.355 . S
C572 C573 1.363 . S
C572 H584 0.929 . S
C573 C572 1.363 . S
C573 N575 1.375 . S
C573 H591 0.931 . S
C574 N571 1.311 . S
C574 N575 1.347 . S
C574 H585 0.929 . S
N575 C573 1.375 . S
N575 C574 1.347 . S
C576 C579 1.365 . S
C576 N581 1.328 . S
C576 H582 0.929 . S
C577 C578 1.362 . S
C577 C580 1.378 . S
C577 H592 0.929 . S
C578 C577 1.362 . S
C578 C579 1.366 . S
C579 C576 1.365 . S
C579 C578 1.366 . S
C579 H593 0.930 . S
C580 C577 1.378 . S
C580 N581 1.315 . S
C580 H583 0.930 . S
N581 Co561 2.194 . S
N581 C576 1.328 . S
N581 C580 1.315 . S
H582 C576 0.929 . S
H583 C580 0.930 . S
H584 C572 0.929 . S
H585 C574 0.929 . S
O586 Co561 2.351 . S
O586 C589 1.244 . S
O587 Co561 2.155 . S
O587 C589 1.240 . S
O588 Co561 2.096 . S
O588 C569 1.247 . S
C589 O586 1.244 . S
C589 O587 1.240 . S
H590 C564 0.931 . S
H591 C573 0.931 . S
H592 C577 0.929 . S
H593 C579 0.930 . S
H594 C602 0.950 . S
H595 C607 0.950 . S
H596 C604 0.950 . S
H597 C606 0.950 . S
H598 C608 0.950 . S
H599 C610 0.950 . S
H600 C612 0.950 . S
H601 C613 0.950 . S
C602 H594 0.950 . S
C602 C603 1.386 . S
C602 C604 1.391 . S
C603 C602 1.386 . S
C603 C607 1.393 . S
C604 H596 0.950 . S
C604 C602 1.391 . S
C604 C605 1.400 . S
C605 C604 1.400 . S
C605 C606 1.398 . S
C605 C611 1.491 1_556 S
C606 H597 0.950 . S
C606 C605 1.398 . S
C606 C607 1.391 . S
C607 H595 0.950 . S
C607 C603 1.393 . S
C607 C606 1.391 . S
C608 H598 0.950 . S
C608 C609 1.386 . S
C608 C610 1.391 . S
C609 C608 1.386 . S
C609 C613 1.393 . S
C610 H599 0.950 . S
C610 C608 1.391 . S
C610 C611 1.400 . S
C611 C605 1.491 1_554 S
C611 C610 1.400 . S
C611 C612 1.398 . S
C612 H600 0.950 . S
C612 C611 1.398 . S
C612 C613 1.391 . S
C613 H601 0.950 . S
C613 C609 1.393 . S
C613 C612 1.391 . S
H614 C622 0.950 . S
H615 C627 0.950 . S
H616 C624 0.950 . S
H617 C626 0.950 . S
H618 C628 0.950 . S
H619 C630 0.950 . S
H620 C632 0.950 . S
H621 C633 0.950 . S
C622 H614 0.950 . S
C622 C623 1.386 . S
C622 C624 1.391 . S
C623 C622 1.386 . S
C623 C627 1.393 . S
C624 H616 0.950 . S
C624 C622 1.391 . S
C624 C625 1.400 . S
C625 C624 1.400 . S
C625 C626 1.398 . S
C625 C631 1.491 1_546 S
C626 H617 0.950 . S
C626 C625 1.398 . S
C626 C627 1.391 . S
C627 H615 0.950 . S
C627 C623 1.393 . S
C627 C626 1.391 . S
C628 H618 0.950 . S
C628 C629 1.386 . S
C628 C630 1.391 . S
C629 C628 1.386 . S
C629 C633 1.393 . S
C630 H619 0.950 . S
C630 C628 1.391 . S
C630 C631 1.400 . S
C631 C625 1.491 1_564 S
C631 C630 1.400 . S
C631 C632 1.398 . S
C632 H620 0.950 . S
C632 C631 1.398 . S
C632 C633 1.391 . S
C633 H621 0.950 . S
C633 C629 1.393 . S
C633 C632 1.391 . S
H634 C642 0.950 . S
H635 C647 0.950 . S
H636 C644 0.950 1_655 S
H637 C646 0.950 1_556 S
H638 C648 0.950 . S
H639 C650 0.950 1_455 S
H640 C652 0.950 1_554 S
H641 C653 0.950 . S
C642 H634 0.950 . S
C642 C643 1.386 . S
C642 C644 1.391 . S
C643 C642 1.386 . S
C643 C647 1.393 . S
C644 H636 0.950 1_455 S
C644 C642 1.391 . S
C644 C645 1.400 . S
C645 C644 1.400 . S
C645 C646 1.398 . S
C645 C651 1.491 1_454 S
C646 H637 0.950 1_554 S
C646 C645 1.398 . S
C646 C647 1.391 . S
C647 H635 0.950 . S
C647 C643 1.393 . S
C647 C646 1.391 . S
C648 H638 0.950 . S
C648 C649 1.386 . S
C648 C650 1.391 . S
C649 C648 1.386 . S
C649 C653 1.393 . S
C650 H639 0.950 1_655 S
C650 C648 1.391 . S
C650 C651 1.400 . S
C651 C645 1.491 1_656 S
C651 C650 1.400 . S
C651 C652 1.398 . S
C652 H640 0.950 1_556 S
C652 C651 1.398 . S
C652 C653 1.391 . S
C653 H641 0.950 . S
C653 C649 1.393 . S
C653 C652 1.391 . S
H654 C662 0.950 . S
H655 C667 0.950 . S
H656 C664 0.950 . S
H657 C666 0.950 1_556 S
H658 C668 0.950 . S
H659 C670 0.950 . S
H660 C672 0.950 1_554 S
H661 C673 0.950 . S
C662 H654 0.950 . S
C662 C663 1.386 . S
C662 C664 1.391 . S
C663 C662 1.386 . S
C663 C667 1.393 . S
C664 H656 0.950 . S
C664 C662 1.391 . S
C664 C665 1.400 . S
C665 C664 1.400 . S
C665 C666 1.398 . S
C665 C671 1.491 1_554 S
C666 H657 0.950 1_554 S
C666 C665 1.398 . S
C666 C667 1.391 . S
C667 H655 0.950 . S
C667 C663 1.393 . S
C667 C666 1.391 . S
C668 H658 0.950 . S
C668 C669 1.386 . S
C668 C670 1.391 . S
C669 C668 1.386 . S
C669 C673 1.393 . S
C670 H659 0.950 . S
C670 C668 1.391 . S
C670 C671 1.400 . S
C671 C665 1.491 1_556 S
C671 C670 1.400 . S
C671 C672 1.398 . S
C672 H660 0.950 1_556 S
C672 C671 1.398 . S
C672 C673 1.391 . S
C673 H661 0.950 . S
C673 C669 1.393 . S
C673 C672 1.391 . S
H674 C682 0.950 . S
H675 C687 0.950 . S
H676 C684 0.950 . S
H677 C686 0.950 . S
H678 C688 0.950 . S
H679 C690 0.950 . S
H680 C692 0.950 . S
H681 C693 0.950 . S
C682 H674 0.950 . S
C682 C683 1.386 . S
C682 C684 1.391 . S
C683 C682 1.386 . S
C683 C687 1.393 . S
C684 H676 0.950 . S
C684 C682 1.391 . S
C684 C685 1.400 . S
C685 C684 1.400 . S
C685 C686 1.398 . S
C685 C691 1.491 1_546 S
C686 H677 0.950 . S
C686 C685 1.398 . S
C686 C687 1.391 . S
C687 H675 0.950 . S
C687 C683 1.393 . S
C687 C686 1.391 . S
C688 H678 0.950 . S
C688 C689 1.386 . S
C688 C690 1.391 . S
C689 C688 1.386 . S
C689 C693 1.393 . S
C690 H679 0.950 . S
C690 C688 1.391 . S
C690 C691 1.400 . S
C691 C685 1.491 1_564 S
C691 C690 1.400 . S
C691 C692 1.398 . S
C692 H680 0.950 . S
C692 C691 1.398 . S
C692 C693 1.391 . S
C693 H681 0.950 . S
C693 C689 1.393 . S
C693 C692 1.391 . S
H694 C702 0.950 . S
H695 C707 0.950 . S
H696 C704 0.950 1_455 S
H697 C706 0.960 . S
H698 C708 0.950 . S
H699 C710 0.950 1_655 S
H700 C712 0.960 . S
H701 C713 0.950 . S
C702 H694 0.950 . S
C702 C703 1.386 . S
C702 C704 1.391 . S
C703 C702 1.386 . S
C703 C707 1.393 . S
C704 H696 0.950 1_655 S
C704 C702 1.391 . S
C704 C705 1.400 . S
C705 C704 1.400 . S
C705 C706 1.398 . S
C705 C711 1.491 1_656 S
C706 H697 0.960 . S
C706 C705 1.398 . S
C706 C707 1.391 . S
C707 H695 0.950 . S
C707 C703 1.393 . S
C707 C706 1.391 . S
C708 H698 0.950 . S
C708 C709 1.386 . S
C708 C710 1.391 . S
C709 C708 1.386 . S
C709 C713 1.393 . S
C710 H699 0.950 1_455 S
C710 C708 1.391 . S
C710 C711 1.400 . S
C711 C705 1.491 1_454 S
C711 C710 1.400 . S
C711 C712 1.398 . S
C712 H700 0.960 . S
C712 C711 1.398 . S
C712 C713 1.391 . S
C713 H701 0.950 . S
C713 C709 1.393 . S
C713 C712 1.391 . S
H714 C722 0.950 . S
H715 C727 0.950 . S
H716 C724 0.950 . S
H717 C726 0.950 . S
H718 C728 0.950 . S
H719 C730 0.950 . S
H720 C732 0.950 . S
H721 C733 0.950 . S
C722 H714 0.950 . S
C722 C723 1.386 . S
C722 C724 1.391 . S
C723 C722 1.386 . S
C723 C727 1.393 . S
C724 H716 0.950 . S
C724 C722 1.391 . S
C724 C725 1.400 . S
C725 C724 1.400 . S
C725 C726 1.398 . S
C725 C731 1.491 . S
C726 H717 0.950 . S
C726 C725 1.398 . S
C726 C727 1.391 . S
C727 H715 0.950 . S
C727 C723 1.393 . S
C727 C726 1.391 . S
C728 H718 0.950 . S
C728 C729 1.386 . S
C728 C730 1.391 . S
C729 C728 1.386 . S
C729 C733 1.393 . S
C730 H719 0.950 . S
C730 C728 1.391 . S
C730 C731 1.400 . S
C731 C725 1.491 . S
C731 C730 1.400 . S
C731 C732 1.398 . S
C732 H720 0.950 . S
C732 C731 1.398 . S
C732 C733 1.391 . S
C733 H721 0.950 . S
C733 C729 1.393 . S
C733 C732 1.391 . S
H734 C742 0.950 . S
H735 C747 0.950 . S
H736 C744 0.950 . S
H737 C746 0.950 . S
H738 C748 0.950 . S
H739 C750 0.950 . S
H740 C752 0.950 . S
H741 C753 0.950 . S
C742 H734 0.950 . S
C742 C743 1.386 . S
C742 C744 1.391 . S
C743 C742 1.386 . S
C743 C747 1.393 . S
C744 H736 0.950 . S
C744 C742 1.391 . S
C744 C745 1.400 . S
C745 C744 1.400 . S
C745 C746 1.398 . S
C745 C751 1.491 . S
C746 H737 0.950 . S
C746 C745 1.398 . S
C746 C747 1.391 . S
C747 H735 0.950 . S
C747 C743 1.393 . S
C747 C746 1.391 . S
C748 H738 0.950 . S
C748 C749 1.386 . S
C748 C750 1.391 . S
C749 C748 1.386 . S
C749 C753 1.393 . S
C750 H739 0.950 . S
C750 C748 1.391 . S
C750 C751 1.400 . S
C751 C745 1.491 . S
C751 C750 1.400 . S
C751 C752 1.398 . S
C752 H740 0.950 . S
C752 C751 1.398 . S
C752 C753 1.391 . S
C753 H741 0.950 . S
C753 C749 1.393 . S
C753 C752 1.391 . S
H754 C762 0.950 . S
H755 C767 0.950 . S
H756 C764 0.950 . S
H757 C766 0.950 . S
H758 C768 0.950 . S
H759 C770 0.950 . S
H760 C772 0.950 . S
H761 C773 0.950 . S
C762 H754 0.950 . S
C762 C763 1.386 . S
C762 C764 1.391 . S
C763 C762 1.386 . S
C763 C767 1.393 . S
C764 H756 0.950 . S
C764 C762 1.391 . S
C764 C765 1.400 . S
C765 C764 1.400 . S
C765 C766 1.398 . S
C765 C771 1.491 . S
C766 H757 0.950 . S
C766 C765 1.398 . S
C766 C767 1.391 . S
C767 H755 0.950 . S
C767 C763 1.393 . S
C767 C766 1.391 . S
C768 H758 0.950 . S
C768 C769 1.386 . S
C768 C770 1.391 . S
C769 C768 1.386 . S
C769 C773 1.393 . S
C770 H759 0.950 . S
C770 C768 1.391 . S
C770 C771 1.400 . S
C771 C765 1.491 . S
C771 C770 1.400 . S
C771 C772 1.398 . S
C772 H760 0.950 . S
C772 C771 1.398 . S
C772 C773 1.391 . S
C773 H761 0.950 . S
C773 C769 1.393 . S
C773 C772 1.391 . S
H774 C782 0.950 . S
H775 C787 0.950 . S
H776 C784 0.950 . S
H777 C786 0.950 . S
H778 C788 0.950 . S
H779 C790 0.950 . S
H780 C792 0.950 . S
H781 C793 0.950 . S
C782 H774 0.950 . S
C782 C783 1.386 . S
C782 C784 1.391 . S
C783 C782 1.386 . S
C783 C787 1.393 . S
C784 H776 0.950 . S
C784 C782 1.391 . S
C784 C785 1.400 . S
C785 C784 1.400 . S
C785 C786 1.398 . S
C785 C791 1.491 . S
C786 H777 0.950 . S
C786 C785 1.398 . S
C786 C787 1.391 . S
C787 H775 0.950 . S
C787 C783 1.393 . S
C787 C786 1.391 . S
C788 H778 0.950 . S
C788 C789 1.386 . S
C788 C790 1.391 . S
C789 C788 1.386 . S
C789 C793 1.393 . S
C790 H779 0.950 . S
C790 C788 1.391 . S
C790 C791 1.400 . S
C791 C785 1.491 . S
C791 C790 1.400 . S
C791 C792 1.398 . S
C792 H780 0.950 . S
C792 C791 1.398 . S
C792 C793 1.391 . S
C793 H781 0.950 . S
C793 C789 1.393 . S
C793 C792 1.391 . S
H794 C802 0.950 . S
H795 C807 0.950 . S
H796 C804 0.950 . S
H797 C806 0.950 . S
H798 C808 0.950 . S
H799 C810 0.950 . S
H800 C812 0.950 . S
H801 C813 0.950 . S
C802 H794 0.950 . S
C802 C803 1.386 . S
C802 C804 1.391 . S
C803 C802 1.386 . S
C803 C807 1.393 . S
C804 H796 0.950 . S
C804 C802 1.391 . S
C804 C805 1.400 . S
C805 C804 1.400 . S
C805 C806 1.398 . S
C805 C811 1.491 . S
C806 H797 0.950 . S
C806 C805 1.398 . S
C806 C807 1.391 . S
C807 H795 0.950 . S
C807 C803 1.393 . S
C807 C806 1.391 . S
C808 H798 0.950 . S
C808 C809 1.386 . S
C808 C810 1.391 . S
C809 C808 1.386 . S
C809 C813 1.393 . S
C810 H799 0.950 . S
C810 C808 1.391 . S
C810 C811 1.400 . S
C811 C805 1.491 . S
C811 C810 1.400 . S
C811 C812 1.398 . S
C812 H800 0.950 . S
C812 C811 1.398 . S
C812 C813 1.391 . S
C813 H801 0.950 . S
C813 C809 1.393 . S
C813 C812 1.391 . S
H814 C822 0.950 . S
H815 C827 0.950 . S
H816 C824 0.950 . S
H817 C826 0.950 . S
H818 C828 0.950 . S
H819 C830 0.950 . S
H820 C832 0.950 . S
H821 C833 0.950 . S
C822 H814 0.950 . S
C822 C823 1.386 . S
C822 C824 1.391 . S
C823 C822 1.386 . S
C823 C827 1.393 . S
C824 H816 0.950 . S
C824 C822 1.391 . S
C824 C825 1.400 . S
C825 C824 1.400 . S
C825 C826 1.398 . S
C825 C831 1.491 . S
C826 H817 0.950 . S
C826 C825 1.398 . S
C826 C827 1.391 . S
C827 H815 0.950 . S
C827 C823 1.393 . S
C827 C826 1.391 . S
C828 H818 0.950 . S
C828 C829 1.386 . S
C828 C830 1.391 . S
C829 C828 1.386 . S
C829 C833 1.393 . S
C830 H819 0.950 . S
C830 C828 1.391 . S
C830 C831 1.400 . S
C831 C825 1.491 . S
C831 C830 1.400 . S
C831 C832 1.398 . S
C832 H820 0.950 . S
C832 C831 1.398 . S
C832 C833 1.391 . S
C833 H821 0.950 . S
C833 C829 1.393 . S
C833 C832 1.391 . S
H834 C842 0.950 . S
H835 C847 0.950 . S
H836 C844 0.950 . S
H837 C846 0.950 . S
H838 C848 0.950 . S
H839 C850 0.950 . S
H840 C852 0.950 . S
H841 C853 0.950 . S
C842 H834 0.950 . S
C842 C843 1.386 . S
C842 C844 1.391 . S
C843 C842 1.386 . S
C843 C847 1.393 . S
C844 H836 0.950 . S
C844 C842 1.391 . S
C844 C845 1.400 . S
C845 C844 1.400 . S
C845 C846 1.398 . S
C845 C851 1.491 . S
C846 H837 0.950 . S
C846 C845 1.398 . S
C846 C847 1.391 . S
C847 H835 0.950 . S
C847 C843 1.393 . S
C847 C846 1.391 . S
C848 H838 0.950 . S
C848 C849 1.386 . S
C848 C850 1.391 . S
C849 C848 1.386 . S
C849 C853 1.393 . S
C850 H839 0.950 . S
C850 C848 1.391 . S
C850 C851 1.400 . S
C851 C845 1.491 . S
C851 C850 1.400 . S
C851 C852 1.398 . S
C852 H840 0.950 . S
C852 C851 1.398 . S
C852 C853 1.391 . S
C853 H841 0.950 . S
C853 C849 1.393 . S
C853 C852 1.391 . S
H854 C862 0.950 . S
H855 C867 0.950 . S
H856 C864 0.950 . S
H857 C866 0.950 . S
H858 C868 0.950 . S
H859 C870 0.950 . S
H860 C872 0.950 . S
H861 C873 0.950 . S
C862 H854 0.950 . S
C862 C863 1.386 . S
C862 C864 1.391 . S
C863 C862 1.386 . S
C863 C867 1.393 . S
C864 H856 0.950 . S
C864 C862 1.391 . S
C864 C865 1.400 . S
C865 C864 1.400 . S
C865 C866 1.398 . S
C865 C871 1.491 . S
C866 H857 0.950 . S
C866 C865 1.398 . S
C866 C867 1.391 . S
C867 H855 0.950 . S
C867 C863 1.393 . S
C867 C866 1.391 . S
C868 H858 0.950 . S
C868 C869 1.386 . S
C868 C870 1.391 . S
C869 C868 1.386 . S
C869 C873 1.393 . S
C870 H859 0.950 . S
C870 C868 1.391 . S
C870 C871 1.400 . S
C871 C865 1.491 . S
C871 C870 1.400 . S
C871 C872 1.398 . S
C872 H860 0.950 . S
C872 C871 1.398 . S
C872 C873 1.391 . S
C873 H861 0.950 . S
C873 C869 1.393 . S
C873 C872 1.391 . S
H874 C882 0.950 . S
H875 C887 0.950 . S
H876 C884 0.950 . S
H877 C886 0.950 . S
H878 C888 0.950 . S
H879 C890 0.950 . S
H880 C892 0.950 . S
H881 C893 0.950 . S
C882 H874 0.950 . S
C882 C883 1.386 . S
C882 C884 1.391 . S
C883 C882 1.386 . S
C883 C887 1.393 . S
C884 H876 0.950 . S
C884 C882 1.391 . S
C884 C885 1.400 . S
C885 C884 1.400 . S
C885 C886 1.398 . S
C885 C891 1.491 . S
C886 H877 0.950 . S
C886 C885 1.398 . S
C886 C887 1.391 . S
C887 H875 0.950 . S
C887 C883 1.393 . S
C887 C886 1.391 . S
C888 H878 0.950 . S
C888 C889 1.386 . S
C888 C890 1.391 . S
C889 C888 1.386 . S
C889 C893 1.393 . S
C890 H879 0.950 . S
C890 C888 1.391 . S
C890 C891 1.400 . S
C891 C885 1.491 . S
C891 C890 1.400 . S
C891 C892 1.398 . S
C892 H880 0.950 . S
C892 C891 1.398 . S
C892 C893 1.391 . S
C893 H881 0.950 . S
C893 C889 1.393 . S
C893 C892 1.391 . S
H894 C902 0.950 . S
H895 C907 0.950 . S
H896 C904 0.950 . S
H897 C906 0.950 . S
H898 C908 0.950 . S
H899 C910 0.950 . S
H900 C912 0.950 . S
H901 C913 0.950 . S
C902 H894 0.950 . S
C902 C903 1.386 . S
C902 C904 1.391 . S
C903 C902 1.386 . S
C903 C907 1.393 . S
C904 H896 0.950 . S
C904 C902 1.391 . S
C904 C905 1.400 . S
C905 C904 1.400 . S
C905 C906 1.398 . S
C905 C911 1.491 . S
C906 H897 0.950 . S
C906 C905 1.398 . S
C906 C907 1.391 . S
C907 H895 0.950 . S
C907 C903 1.393 . S
C907 C906 1.391 . S
C908 H898 0.950 . S
C908 C909 1.386 . S
C908 C910 1.391 . S
C909 C908 1.386 . S
C909 C913 1.393 . S
C910 H899 0.950 . S
C910 C908 1.391 . S
C910 C911 1.400 . S
C911 C905 1.491 . S
C911 C910 1.400 . S
C911 C912 1.398 . S
C912 H900 0.950 . S
C912 C911 1.398 . S
C912 C913 1.391 . S
C913 H901 0.950 . S
C913 C909 1.393 . S
C913 C912 1.391 . S
H914 C922 0.950 . S
H915 C927 0.950 . S
H916 C924 0.950 . S
H917 C926 0.950 . S
H918 C928 0.950 . S
H919 C930 0.950 . S
H920 C932 0.950 . S
H921 C933 0.950 . S
C922 H914 0.950 . S
C922 C923 1.386 . S
C922 C924 1.391 . S
C923 C922 1.386 . S
C923 C927 1.393 . S
C924 H916 0.950 . S
C924 C922 1.391 . S
C924 C925 1.400 . S
C925 C924 1.400 . S
C925 C926 1.398 . S
C925 C931 1.491 . S
C926 H917 0.950 . S
C926 C925 1.398 . S
C926 C927 1.391 . S
C927 H915 0.950 . S
C927 C923 1.393 . S
C927 C926 1.391 . S
C928 H918 0.950 . S
C928 C929 1.386 . S
C928 C930 1.391 . S
C929 C928 1.386 . S
C929 C933 1.393 . S
C930 H919 0.950 . S
C930 C928 1.391 . S
C930 C931 1.400 . S
C931 C925 1.491 . S
C931 C930 1.400 . S
C931 C932 1.398 . S
C932 H920 0.950 . S
C932 C931 1.398 . S
C932 C933 1.391 . S
C933 H921 0.950 . S
C933 C929 1.393 . S
C933 C932 1.391 . S
H934 C942 0.950 . S
H935 C947 0.950 . S
H936 C944 0.950 . S
H937 C946 0.950 . S
H938 C948 0.950 . S
H939 C950 0.950 . S
H940 C952 0.950 . S
H941 C953 0.950 . S
C942 H934 0.950 . S
C942 C943 1.386 . S
C942 C944 1.391 . S
C943 C942 1.386 . S
C943 C947 1.393 . S
C944 H936 0.950 . S
C944 C942 1.391 . S
C944 C945 1.400 . S
C945 C944 1.400 . S
C945 C946 1.398 . S
C945 C951 1.491 . S
C946 H937 0.950 . S
C946 C945 1.398 . S
C946 C947 1.391 . S
C947 H935 0.950 . S
C947 C943 1.393 . S
C947 C946 1.391 . S
C948 H938 0.950 . S
C948 C949 1.386 . S
C948 C950 1.391 . S
C949 C948 1.386 . S
C949 C953 1.393 . S
C950 H939 0.950 . S
C950 C948 1.391 . S
C950 C951 1.400 . S
C951 C945 1.491 . S
C951 C950 1.400 . S
C951 C952 1.398 . S
C952 H940 0.950 . S
C952 C951 1.398 . S
C952 C953 1.391 . S
C953 H941 0.950 . S
C953 C949 1.393 . S
C953 C952 1.391 . S
H954 C962 0.950 . S
H955 C967 0.950 . S
H956 C964 0.950 . S
H957 C966 0.950 . S
H958 C968 0.950 . S
H959 C970 0.950 . S
H960 C972 0.950 . S
H961 C973 0.950 . S
C962 H954 0.950 . S
C962 C963 1.386 . S
C962 C964 1.391 . S
C963 C962 1.386 . S
C963 C967 1.393 . S
C964 H956 0.950 . S
C964 C962 1.391 . S
C964 C965 1.400 . S
C965 C964 1.400 . S
C965 C966 1.398 . S
C965 C971 1.491 . S
C966 H957 0.950 . S
C966 C965 1.398 . S
C966 C967 1.391 . S
C967 H955 0.950 . S
C967 C963 1.393 . S
C967 C966 1.391 . S
C968 H958 0.950 . S
C968 C969 1.386 . S
C968 C970 1.391 . S
C969 C968 1.386 . S
C969 C973 1.393 . S
C970 H959 0.950 . S
C970 C968 1.391 . S
C970 C971 1.400 . S
C971 C965 1.491 . S
C971 C970 1.400 . S
C971 C972 1.398 . S
C972 H960 0.950 . S
C972 C971 1.398 . S
C972 C973 1.391 . S
C973 H961 0.950 . S
C973 C969 1.393 . S
C973 C972 1.391 . S
H974 C982 0.950 . S
H975 C987 0.950 . S
H976 C984 0.950 . S
H977 C986 0.950 . S
H978 C988 0.950 . S
H979 C990 0.950 . S
H980 C992 0.950 . S
H981 C993 0.950 . S
C982 H974 0.950 . S
C982 C983 1.386 . S
C982 C984 1.391 . S
C983 C982 1.386 . S
C983 C987 1.393 . S
C984 H976 0.950 . S
C984 C982 1.391 . S
C984 C985 1.400 . S
C985 C984 1.400 . S
C985 C986 1.398 . S
C985 C991 1.491 . S
C986 H977 0.950 . S
C986 C985 1.398 . S
C986 C987 1.391 . S
C987 H975 0.950 . S
C987 C983 1.393 . S
C987 C986 1.391 . S
C988 H978 0.950 . S
C988 C989 1.386 . S
C988 C990 1.391 . S
C989 C988 1.386 . S
C989 C993 1.393 . S
C990 H979 0.950 . S
C990 C988 1.391 . S
C990 C991 1.400 . S
C991 C985 1.491 . S
C991 C990 1.400 . S
C991 C992 1.398 . S
C992 H980 0.950 . S
C992 C991 1.398 . S
C992 C993 1.391 . S
C993 H981 0.950 . S
C993 C989 1.393 . S
C993 C992 1.391 . S
H994 C1002 0.950 . S
H995 C1007 0.950 . S
H996 C1004 0.950 . S
H997 C1006 0.950 . S
H998 C1008 0.950 . S
H999 C1010 0.950 . S
H1000 C1012 0.950 . S
H1001 C1013 0.950 . S
C1002 H994 0.950 . S
C1002 C1003 1.386 . S
C1002 C1004 1.391 . S
C1003 C1002 1.386 . S
C1003 C1007 1.393 . S
C1004 H996 0.950 . S
C1004 C1002 1.391 . S
C1004 C1005 1.400 . S
C1005 C1004 1.400 . S
C1005 C1006 1.398 . S
C1005 C1011 1.491 . S
C1006 H997 0.950 . S
C1006 C1005 1.398 . S
C1006 C1007 1.391 . S
C1007 H995 0.950 . S
C1007 C1003 1.393 . S
C1007 C1006 1.391 . S
C1008 H998 0.950 . S
C1008 C1009 1.386 . S
C1008 C1010 1.391 . S
C1009 C1008 1.386 . S
C1009 C1013 1.393 . S
C1010 H999 0.950 . S
C1010 C1008 1.391 . S
C1010 C1011 1.400 . S
C1011 C1005 1.491 . S
C1011 C1010 1.400 . S
C1011 C1012 1.398 . S
C1012 H1000 0.950 . S
C1012 C1011 1.398 . S
C1012 C1013 1.391 . S
C1013 H1001 0.950 . S
C1013 C1009 1.393 . S
C1013 C1012 1.391 . S
H1014 C1022 0.950 . S
H1015 C1027 0.950 . S
H1016 C1024 0.950 . S
H1017 C1026 0.950 . S
H1018 C1028 0.950 . S
H1019 C1030 0.950 . S
H1020 C1032 0.950 . S
H1021 C1033 0.950 . S
C1022 H1014 0.950 . S
C1022 C1023 1.386 . S
C1022 C1024 1.391 . S
C1023 C1022 1.386 . S
C1023 C1027 1.393 . S
C1024 H1016 0.950 . S
C1024 C1022 1.391 . S
C1024 C1025 1.400 . S
C1025 C1024 1.400 . S
C1025 C1026 1.398 . S
C1025 C1031 1.491 . S
C1026 H1017 0.950 . S
C1026 C1025 1.398 . S
C1026 C1027 1.391 . S
C1027 H1015 0.950 . S
C1027 C1023 1.393 . S
C1027 C1026 1.391 . S
C1028 H1018 0.950 . S
C1028 C1029 1.386 . S
C1028 C1030 1.391 . S
C1029 C1028 1.386 . S
C1029 C1033 1.393 . S
C1030 H1019 0.950 . S
C1030 C1028 1.391 . S
C1030 C1031 1.400 . S
C1031 C1025 1.491 . S
C1031 C1030 1.400 . S
C1031 C1032 1.398 . S
C1032 H1020 0.950 . S
C1032 C1031 1.398 . S
C1032 C1033 1.391 . S
C1033 H1021 0.950 . S
C1033 C1029 1.393 . S
C1033 C1032 1.391 . S
H1034 C1042 0.950 . S
H1035 C1047 0.950 . S
H1036 C1044 0.950 . S
H1037 C1046 0.950 . S
H1038 C1048 0.950 . S
H1039 C1050 0.950 . S
H1040 C1052 0.950 . S
H1041 C1053 0.950 . S
C1042 H1034 0.950 . S
C1042 C1043 1.386 . S
C1042 C1044 1.391 . S
C1043 C1042 1.386 . S
C1043 C1047 1.393 . S
C1044 H1036 0.950 . S
C1044 C1042 1.391 . S
C1044 C1045 1.400 . S
C1045 C1044 1.400 . S
C1045 C1046 1.398 . S
C1045 C1051 1.491 . S
C1046 H1037 0.950 . S
C1046 C1045 1.398 . S
C1046 C1047 1.391 . S
C1047 H1035 0.950 . S
C1047 C1043 1.393 . S
C1047 C1046 1.391 . S
C1048 H1038 0.950 . S
C1048 C1049 1.386 . S
C1048 C1050 1.391 . S
C1049 C1048 1.386 . S
C1049 C1053 1.393 . S
C1050 H1039 0.950 . S
C1050 C1048 1.391 . S
C1050 C1051 1.400 . S
C1051 C1045 1.491 . S
C1051 C1050 1.400 . S
C1051 C1052 1.398 . S
C1052 H1040 0.950 . S
C1052 C1051 1.398 . S
C1052 C1053 1.391 . S
C1053 H1041 0.950 . S
C1053 C1049 1.393 . S
C1053 C1052 1.391 . S
H1054 C1062 0.950 . S
H1055 C1067 0.950 . S
H1056 C1064 0.950 . S
H1057 C1066 0.950 . S
H1058 C1068 0.950 . S
H1059 C1070 0.950 . S
H1060 C1072 0.950 . S
H1061 C1073 0.950 . S
C1062 H1054 0.950 . S
C1062 C1063 1.386 . S
C1062 C1064 1.391 . S
C1063 C1062 1.386 . S
C1063 C1067 1.393 . S
C1064 H1056 0.950 . S
C1064 C1062 1.391 . S
C1064 C1065 1.400 . S
C1065 C1064 1.400 . S
C1065 C1066 1.398 . S
C1065 C1071 1.491 . S
C1066 H1057 0.950 . S
C1066 C1065 1.398 . S
C1066 C1067 1.391 . S
C1067 H1055 0.950 . S
C1067 C1063 1.393 . S
C1067 C1066 1.391 . S
C1068 H1058 0.950 . S
C1068 C1069 1.386 . S
C1068 C1070 1.391 . S
C1069 C1068 1.386 . S
C1069 C1073 1.393 . S
C1070 H1059 0.950 . S
C1070 C1068 1.391 . S
C1070 C1071 1.400 . S
C1071 C1065 1.491 . S
C1071 C1070 1.400 . S
C1071 C1072 1.398 . S
C1072 H1060 0.950 . S
C1072 C1071 1.398 . S
C1072 C1073 1.391 . S
C1073 H1061 0.950 . S
C1073 C1069 1.393 . S
C1073 C1072 1.391 . S
H1074 C1082 0.950 . S
H1075 C1087 0.950 . S
H1076 C1084 0.950 . S
H1077 C1086 0.950 . S
H1078 C1088 0.950 . S
H1079 C1090 0.950 . S
H1080 C1092 0.950 . S
H1081 C1093 0.950 . S
C1082 H1074 0.950 . S
C1082 C1083 1.386 . S
C1082 C1084 1.391 . S
C1083 C1082 1.386 . S
C1083 C1087 1.393 1_556 S
C1084 H1076 0.950 . S
C1084 C1082 1.391 . S
C1084 C1085 1.400 . S
C1085 C1084 1.400 . S
C1085 C1086 1.398 1_556 S
C1085 C1091 1.491 1_456 S
C1086 H1077 0.950 . S
C1086 C1085 1.398 1_554 S
C1086 C1087 1.391 . S
C1087 H1075 0.950 . S
C1087 C1083 1.393 1_554 S
C1087 C1086 1.391 . S
C1088 H1078 0.950 . S
C1088 C1089 1.386 . S
C1088 C1090 1.391 . S
C1089 C1088 1.386 . S
C1089 C1093 1.393 1_554 S
C1090 H1079 0.950 . S
C1090 C1088 1.391 . S
C1090 C1091 1.400 . S
C1091 C1085 1.491 1_654 S
C1091 C1090 1.400 . S
C1091 C1092 1.398 1_554 S
C1092 H1080 0.950 . S
C1092 C1091 1.398 1_556 S
C1092 C1093 1.391 . S
C1093 H1081 0.950 . S
C1093 C1089 1.393 1_556 S
C1093 C1092 1.391 . S
H1094 C1102 0.950 . S
H1095 C1107 0.950 1_554 S
H1096 C1104 0.950 . S
H1097 C1106 0.950 . S
H1098 C1108 0.950 . S
H1099 C1110 0.950 . S
H1100 C1112 0.950 . S
H1101 C1113 0.950 1_556 S
C1102 H1094 0.950 . S
C1102 C1103 1.386 . S
C1102 C1104 1.391 . S
C1103 C1102 1.386 . S
C1103 C1107 1.393 . S
C1104 H1096 0.950 . S
C1104 C1102 1.391 . S
C1104 C1105 1.400 . S
C1105 C1104 1.400 . S
C1105 C1106 1.398 1_556 S
C1105 C1111 1.491 1_556 S
C1106 H1097 0.950 . S
C1106 C1105 1.398 1_554 S
C1106 C1107 1.391 1_554 S
C1107 H1095 0.950 1_556 S
C1107 C1103 1.393 . S
C1107 C1106 1.391 1_556 S
C1108 H1098 0.950 . S
C1108 C1109 1.386 . S
C1108 C1110 1.391 . S
C1109 C1108 1.386 . S
C1109 C1113 1.393 . S
C1110 H1099 0.950 . S
C1110 C1108 1.391 . S
C1110 C1111 1.400 . S
C1111 C1105 1.491 1_554 S
C1111 C1110 1.400 . S
C1111 C1112 1.398 1_554 S
C1112 H1100 0.950 . S
C1112 C1111 1.398 1_556 S
C1112 C1113 1.391 1_556 S
C1113 H1101 0.950 1_554 S
C1113 C1109 1.393 . S
C1113 C1112 1.391 1_554 S
H1114 C1122 0.950 . S
H1115 C1127 0.950 . S
H1116 C1124 0.950 . S
H1117 C1126 0.950 . S
H1118 C1128 0.950 . S
H1119 C1130 0.950 . S
H1120 C1132 0.950 . S
H1121 C1133 0.950 . S
C1122 H1114 0.950 . S
C1122 C1123 1.386 . S
C1122 C1124 1.391 . S
C1123 C1122 1.386 . S
C1123 C1127 1.393 . S
C1124 H1116 0.950 . S
C1124 C1122 1.391 . S
C1124 C1125 1.400 . S
C1125 C1124 1.400 . S
C1125 C1126 1.398 . S
C1125 C1131 1.491 1_544 S
C1126 H1117 0.950 . S
C1126 C1125 1.398 . S
C1126 C1127 1.391 . S
C1127 H1115 0.950 . S
C1127 C1123 1.393 . S
C1127 C1126 1.391 . S
C1128 H1118 0.950 . S
C1128 C1129 1.386 . S
C1128 C1130 1.391 . S
C1129 C1128 1.386 . S
C1129 C1133 1.393 . S
C1130 H1119 0.950 . S
C1130 C1128 1.391 . S
C1130 C1131 1.400 . S
C1131 C1125 1.491 1_566 S
C1131 C1130 1.400 . S
C1131 C1132 1.398 . S
C1132 H1120 0.950 . S
C1132 C1131 1.398 . S
C1132 C1133 1.391 . S
C1133 H1121 0.950 . S
C1133 C1129 1.393 . S
C1133 C1132 1.391 . S
H1134 C1142 0.950 . S
H1135 C1147 0.950 . S
H1136 C1144 0.950 . S
H1137 C1146 0.950 . S
H1138 C1148 0.950 . S
H1139 C1150 0.950 . S
H1140 C1152 0.950 . S
H1141 C1153 0.950 . S
C1142 H1134 0.950 . S
C1142 C1143 1.386 . S
C1142 C1144 1.391 . S
C1143 C1142 1.386 . S
C1143 C1147 1.393 . S
C1144 H1136 0.950 . S
C1144 C1142 1.391 . S
C1144 C1145 1.400 . S
C1145 C1144 1.400 . S
C1145 C1146 1.398 . S
C1145 C1151 1.491 . S
C1146 H1137 0.950 . S
C1146 C1145 1.398 . S
C1146 C1147 1.391 . S
C1147 H1135 0.950 . S
C1147 C1143 1.393 . S
C1147 C1146 1.391 . S
C1148 H1138 0.950 . S
C1148 C1149 1.386 . S
C1148 C1150 1.391 . S
C1149 C1148 1.386 . S
C1149 C1153 1.393 . S
C1150 H1139 0.950 . S
C1150 C1148 1.391 . S
C1150 C1151 1.400 . S
C1151 C1145 1.491 . S
C1151 C1150 1.400 . S
C1151 C1152 1.398 . S
C1152 H1140 0.950 . S
C1152 C1151 1.398 . S
C1152 C1153 1.391 . S
C1153 H1141 0.950 . S
C1153 C1149 1.393 . S
C1153 C1152 1.391 . S
H1154 C1162 0.950 . S
H1155 C1167 0.950 . S
H1156 C1164 0.950 . S
H1157 C1166 0.950 . S
H1158 C1168 0.950 . S
H1159 C1170 0.950 . S
H1160 C1172 0.950 . S
H1161 C1173 0.950 . S
C1162 H1154 0.950 . S
C1162 C1163 1.386 . S
C1162 C1164 1.391 . S
C1163 C1162 1.386 . S
C1163 C1167 1.393 . S
C1164 H1156 0.950 . S
C1164 C1162 1.391 . S
C1164 C1165 1.400 . S
C1165 C1164 1.400 . S
C1165 C1166 1.398 . S
C1165 C1171 1.491 1_545 S
C1166 H1157 0.950 . S
C1166 C1165 1.398 . S
C1166 C1167 1.391 . S
C1167 H1155 0.950 . S
C1167 C1163 1.393 . S
C1167 C1166 1.391 . S
C1168 H1158 0.950 . S
C1168 C1169 1.386 . S
C1168 C1170 1.391 . S
C1169 C1168 1.386 . S
C1169 C1173 1.393 . S
C1170 H1159 0.950 . S
C1170 C1168 1.391 . S
C1170 C1171 1.400 . S
C1171 C1165 1.491 1_565 S
C1171 C1170 1.400 . S
C1171 C1172 1.398 . S
C1172 H1160 0.950 . S
C1172 C1171 1.398 . S
C1172 C1173 1.391 . S
C1173 H1161 0.950 . S
C1173 C1169 1.393 . S
C1173 C1172 1.391 . S
H1174 C1182 0.950 . S
H1175 C1187 0.950 . S
H1176 C1184 0.950 . S
H1177 C1186 0.950 1_655 S
H1178 C1188 0.950 . S
H1179 C1190 0.950 . S
H1180 C1192 0.950 1_455 S
H1181 C1193 0.950 . S
C1182 H1174 0.950 . S
C1182 C1183 1.386 . S
C1182 C1184 1.391 . S
C1183 C1182 1.386 . S
C1183 C1187 1.393 . S
C1184 H1176 0.950 . S
C1184 C1182 1.391 . S
C1184 C1185 1.400 . S
C1185 C1184 1.400 . S
C1185 C1186 1.398 . S
C1185 C1191 1.491 1_455 S
C1186 H1177 0.950 1_455 S
C1186 C1185 1.398 . S
C1186 C1187 1.391 . S
C1187 H1175 0.950 . S
C1187 C1183 1.393 . S
C1187 C1186 1.391 . S
C1188 H1178 0.950 . S
C1188 C1189 1.386 . S
C1188 C1190 1.391 . S
C1189 C1188 1.386 . S
C1189 C1193 1.393 . S
C1190 H1179 0.950 . S
C1190 C1188 1.391 . S
C1190 C1191 1.400 . S
C1191 C1185 1.491 1_655 S
C1191 C1190 1.400 . S
C1191 C1192 1.398 . S
C1192 H1180 0.950 1_655 S
C1192 C1191 1.398 . S
C1192 C1193 1.391 . S
C1193 H1181 0.950 . S
C1193 C1189 1.393 . S
C1193 C1192 1.391 . S
H1194 C1202 0.950 . S
H1195 C1207 0.950 . S
H1196 C1204 0.950 . S
H1197 C1206 0.950 . S
H1198 C1208 0.950 . S
H1199 C1210 0.950 . S
H1200 C1212 0.950 . S
H1201 C1213 0.950 . S
C1202 H1194 0.950 . S
C1202 C1203 1.386 . S
C1202 C1204 1.391 . S
C1203 C1202 1.386 . S
C1203 C1207 1.393 . S
C1204 H1196 0.950 . S
C1204 C1202 1.391 . S
C1204 C1205 1.400 . S
C1205 C1204 1.400 . S
C1205 C1206 1.398 . S
C1205 C1211 1.491 . S
C1206 H1197 0.950 . S
C1206 C1205 1.398 . S
C1206 C1207 1.391 . S
C1207 H1195 0.950 . S
C1207 C1203 1.393 . S
C1207 C1206 1.391 . S
C1208 H1198 0.950 . S
C1208 C1209 1.386 . S
C1208 C1210 1.391 . S
C1209 C1208 1.386 . S
C1209 C1213 1.393 . S
C1210 H1199 0.950 . S
C1210 C1208 1.391 . S
C1210 C1211 1.400 . S
C1211 C1205 1.491 . S
C1211 C1210 1.400 . S
C1211 C1212 1.398 . S
C1212 H1200 0.950 . S
C1212 C1211 1.398 . S
C1212 C1213 1.391 . S
C1213 H1201 0.950 . S
C1213 C1209 1.393 . S
C1213 C1212 1.391 . S
H1214 C1222 0.950 . S
H1215 C1227 0.950 . S
H1216 C1224 0.950 1_545 S
H1217 C1226 0.950 . S
H1218 C1228 0.950 . S
H1219 C1230 0.950 1_565 S
H1220 C1232 0.950 . S
H1221 C1233 0.950 . S
C1222 H1214 0.950 . S
C1222 C1223 1.386 . S
C1222 C1224 1.391 . S
C1223 C1222 1.386 . S
C1223 C1227 1.393 . S
C1224 H1216 0.950 1_565 S
C1224 C1222 1.391 . S
C1224 C1225 1.400 . S
C1225 C1224 1.400 . S
C1225 C1226 1.398 . S
C1225 C1231 1.491 1_565 S
C1226 H1217 0.950 . S
C1226 C1225 1.398 . S
C1226 C1227 1.391 . S
C1227 H1215 0.950 . S
C1227 C1223 1.393 . S
C1227 C1226 1.391 . S
C1228 H1218 0.950 . S
C1228 C1229 1.386 . S
C1228 C1230 1.391 . S
C1229 C1228 1.386 . S
C1229 C1233 1.393 . S
C1230 H1219 0.950 1_545 S
C1230 C1228 1.391 . S
C1230 C1231 1.400 . S
C1231 C1225 1.491 1_545 S
C1231 C1230 1.400 . S
C1231 C1232 1.398 . S
C1232 H1220 0.950 . S
C1232 C1231 1.398 . S
C1232 C1233 1.391 . S
C1233 H1221 0.950 . S
C1233 C1229 1.393 . S
C1233 C1232 1.391 . S
H1234 C1242 0.950 . S
H1235 C1247 0.950 . S
H1236 C1244 0.950 . S
H1237 C1246 0.950 . S
H1238 C1248 0.950 . S
H1239 C1250 0.950 . S
H1240 C1252 0.950 . S
H1241 C1253 0.950 . S
C1242 H1234 0.950 . S
C1242 C1243 1.386 . S
C1242 C1244 1.391 . S
C1243 C1242 1.386 . S
C1243 C1247 1.393 . S
C1244 H1236 0.950 . S
C1244 C1242 1.391 . S
C1244 C1245 1.400 . S
C1245 C1244 1.400 . S
C1245 C1246 1.398 . S
C1245 C1251 1.491 1_655 S
C1246 H1237 0.950 . S
C1246 C1245 1.398 . S
C1246 C1247 1.391 . S
C1247 H1235 0.950 . S
C1247 C1243 1.393 . S
C1247 C1246 1.391 . S
C1248 H1238 0.950 . S
C1248 C1249 1.386 . S
C1248 C1250 1.391 . S
C1249 C1248 1.386 . S
C1249 C1253 1.393 . S
C1250 H1239 0.950 . S
C1250 C1248 1.391 . S
C1250 C1251 1.400 . S
C1251 C1245 1.491 1_455 S
C1251 C1250 1.400 . S
C1251 C1252 1.398 . S
C1252 H1240 0.950 . S
C1252 C1251 1.398 . S
C1252 C1253 1.391 . S
C1253 H1241 0.950 . S
C1253 C1249 1.393 . S
C1253 C1252 1.391 . S
H1254 C1262 0.950 . S
H1255 C1267 0.950 . S
H1256 C1264 0.950 . S
H1257 C1266 0.950 . S
H1258 C1268 0.950 . S
H1259 C1270 0.950 . S
H1260 C1272 0.950 . S
H1261 C1273 0.950 . S
C1262 H1254 0.950 . S
C1262 C1263 1.386 . S
C1262 C1264 1.391 . S
C1263 C1262 1.386 . S
C1263 C1267 1.393 . S
C1264 H1256 0.950 . S
C1264 C1262 1.391 . S
C1264 C1265 1.400 . S
C1265 C1264 1.400 . S
C1265 C1266 1.398 . S
C1265 C1271 1.491 . S
C1266 H1257 0.950 . S
C1266 C1265 1.398 . S
C1266 C1267 1.391 . S
C1267 H1255 0.950 . S
C1267 C1263 1.393 . S
C1267 C1266 1.391 . S
C1268 H1258 0.950 . S
C1268 C1269 1.386 . S
C1268 C1270 1.391 . S
C1269 C1268 1.386 . S
C1269 C1273 1.393 . S
C1270 H1259 0.950 . S
C1270 C1268 1.391 . S
C1270 C1271 1.400 . S
C1271 C1265 1.491 . S
C1271 C1270 1.400 . S
C1271 C1272 1.398 . S
C1272 H1260 0.950 . S
C1272 C1271 1.398 . S
C1272 C1273 1.391 . S
C1273 H1261 0.950 . S
C1273 C1269 1.393 . S
C1273 C1272 1.391 . S
H1274 C1282 0.950 . S
H1275 C1287 0.950 . S
H1276 C1284 0.950 . S
H1277 C1286 0.950 . S
H1278 C1288 0.950 . S
H1279 C1290 0.950 . S
H1280 C1292 0.950 . S
H1281 C1293 0.950 . S
C1282 H1274 0.950 . S
C1282 C1283 1.386 . S
C1282 C1284 1.391 . S
C1283 C1282 1.386 . S
C1283 C1287 1.393 . S
C1284 H1276 0.950 . S
C1284 C1282 1.391 . S
C1284 C1285 1.400 . S
C1285 C1284 1.400 . S
C1285 C1286 1.398 . S
C1285 C1291 1.491 . S
C1286 H1277 0.950 . S
C1286 C1285 1.398 . S
C1286 C1287 1.391 . S
C1287 H1275 0.950 . S
C1287 C1283 1.393 . S
C1287 C1286 1.391 . S
C1288 H1278 0.950 . S
C1288 C1289 1.386 . S
C1288 C1290 1.391 . S
C1289 C1288 1.386 . S
C1289 C1293 1.393 . S
C1290 H1279 0.950 . S
C1290 C1288 1.391 . S
C1290 C1291 1.400 . S
C1291 C1285 1.491 . S
C1291 C1290 1.400 . S
C1291 C1292 1.398 . S
C1292 H1280 0.950 . S
C1292 C1291 1.398 . S
C1292 C1293 1.391 . S
C1293 H1281 0.950 . S
C1293 C1289 1.393 . S
C1293 C1292 1.391 . S
H1294 C1302 0.950 . S
H1295 C1307 0.950 . S
H1296 C1304 0.950 . S
H1297 C1306 0.950 . S
H1298 C1308 0.950 . S
H1299 C1310 0.950 . S
H1300 C1312 0.950 . S
H1301 C1313 0.950 . S
C1302 H1294 0.950 . S
C1302 C1303 1.386 . S
C1302 C1304 1.391 . S
C1303 C1302 1.386 . S
C1303 C1307 1.393 . S
C1304 H1296 0.950 . S
C1304 C1302 1.391 . S
C1304 C1305 1.400 . S
C1305 C1304 1.400 . S
C1305 C1306 1.398 . S
C1305 C1311 1.491 . S
C1306 H1297 0.950 . S
C1306 C1305 1.398 . S
C1306 C1307 1.391 . S
C1307 H1295 0.950 . S
C1307 C1303 1.393 . S
C1307 C1306 1.391 . S
C1308 H1298 0.950 . S
C1308 C1309 1.386 . S
C1308 C1310 1.391 . S
C1309 C1308 1.386 . S
C1309 C1313 1.393 . S
C1310 H1299 0.950 . S
C1310 C1308 1.391 . S
C1310 C1311 1.400 . S
C1311 C1305 1.491 . S
C1311 C1310 1.400 . S
C1311 C1312 1.398 . S
C1312 H1300 0.950 . S
C1312 C1311 1.398 . S
C1312 C1313 1.391 . S
C1313 H1301 0.950 . S
C1313 C1309 1.393 . S
C1313 C1312 1.391 . S
H1314 C1322 0.950 . S
H1315 C1327 0.950 . S
H1316 C1324 0.950 . S
H1317 C1326 0.950 . S
H1318 C1328 0.950 . S
H1319 C1330 0.950 . S
H1320 C1332 0.950 . S
H1321 C1333 0.950 . S
C1322 H1314 0.950 . S
C1322 C1323 1.386 . S
C1322 C1324 1.391 . S
C1323 C1322 1.386 . S
C1323 C1327 1.393 . S
C1324 H1316 0.950 . S
C1324 C1322 1.391 . S
C1324 C1325 1.400 . S
C1325 C1324 1.400 . S
C1325 C1326 1.398 . S
C1325 C1331 1.491 . S
C1326 H1317 0.950 . S
C1326 C1325 1.398 . S
C1326 C1327 1.391 . S
C1327 H1315 0.950 . S
C1327 C1323 1.393 . S
C1327 C1326 1.391 . S
C1328 H1318 0.950 . S
C1328 C1329 1.386 . S
C1328 C1330 1.391 . S
C1329 C1328 1.386 . S
C1329 C1333 1.393 . S
C1330 H1319 0.950 . S
C1330 C1328 1.391 . S
C1330 C1331 1.400 . S
C1331 C1325 1.491 . S
C1331 C1330 1.400 . S
C1331 C1332 1.398 . S
C1332 H1320 0.950 . S
C1332 C1331 1.398 . S
C1332 C1333 1.391 . S
C1333 H1321 0.950 . S
C1333 C1329 1.393 . S
C1333 C1332 1.391 . S
H1334 C1342 0.950 . S
H1335 C1347 0.950 . S
H1336 C1344 0.950 . S
H1337 C1346 0.950 . S
H1338 C1348 0.950 . S
H1339 C1350 0.950 . S
H1340 C1352 0.950 . S
H1341 C1353 0.950 . S
C1342 H1334 0.950 . S
C1342 C1343 1.386 . S
C1342 C1344 1.391 . S
C1343 C1342 1.386 . S
C1343 C1347 1.393 . S
C1344 H1336 0.950 . S
C1344 C1342 1.391 . S
C1344 C1345 1.400 . S
C1345 C1344 1.400 . S
C1345 C1346 1.398 . S
C1345 C1351 1.491 . S
C1346 H1337 0.950 . S
C1346 C1345 1.398 . S
C1346 C1347 1.391 . S
C1347 H1335 0.950 . S
C1347 C1343 1.393 . S
C1347 C1346 1.391 . S
C1348 H1338 0.950 . S
C1348 C1349 1.386 . S
C1348 C1350 1.391 . S
C1349 C1348 1.386 . S
C1349 C1353 1.393 . S
C1350 H1339 0.950 . S
C1350 C1348 1.391 . S
C1350 C1351 1.400 . S
C1351 C1345 1.491 . S
C1351 C1350 1.400 . S
C1351 C1352 1.398 . S
C1352 H1340 0.950 . S
C1352 C1351 1.398 . S
C1352 C1353 1.391 . S
C1353 H1341 0.950 . S
C1353 C1349 1.393 . S
C1353 C1352 1.391 . S
H1354 C1362 0.950 . S
H1355 C1367 0.950 . S
H1356 C1364 0.950 . S
H1357 C1366 0.950 . S
H1358 C1368 0.950 . S
H1359 C1370 0.950 . S
H1360 C1372 0.950 . S
H1361 C1373 0.950 . S
C1362 H1354 0.950 . S
C1362 C1363 1.386 . S
C1362 C1364 1.391 . S
C1363 C1362 1.386 . S
C1363 C1367 1.393 . S
C1364 H1356 0.950 . S
C1364 C1362 1.391 . S
C1364 C1365 1.400 . S
C1365 C1364 1.400 . S
C1365 C1366 1.398 . S
C1365 C1371 1.491 . S
C1366 H1357 0.950 . S
C1366 C1365 1.398 . S
C1366 C1367 1.391 . S
C1367 H1355 0.950 . S
C1367 C1363 1.393 . S
C1367 C1366 1.391 . S
C1368 H1358 0.950 . S
C1368 C1369 1.386 . S
C1368 C1370 1.391 . S
C1369 C1368 1.386 . S
C1369 C1373 1.393 . S
C1370 H1359 0.950 . S
C1370 C1368 1.391 . S
C1370 C1371 1.400 . S
C1371 C1365 1.491 . S
C1371 C1370 1.400 . S
C1371 C1372 1.398 . S
C1372 H1360 0.950 . S
C1372 C1371 1.398 . S
C1372 C1373 1.391 . S
C1373 H1361 0.950 . S
C1373 C1369 1.393 . S
C1373 C1372 1.391 . S
H1374 C1382 0.950 . S
H1375 C1387 0.950 . S
H1376 C1384 0.950 . S
H1377 C1386 0.950 . S
H1378 C1388 0.950 . S
H1379 C1390 0.950 . S
H1380 C1392 0.950 . S
H1381 C1393 0.950 . S
C1382 H1374 0.950 . S
C1382 C1383 1.386 . S
C1382 C1384 1.391 . S
C1383 C1382 1.386 . S
C1383 C1387 1.393 . S
C1384 H1376 0.950 . S
C1384 C1382 1.391 . S
C1384 C1385 1.400 . S
C1385 C1384 1.400 . S
C1385 C1386 1.398 . S
C1385 C1391 1.491 . S
C1386 H1377 0.950 . S
C1386 C1385 1.398 . S
C1386 C1387 1.391 . S
C1387 H1375 0.950 . S
C1387 C1383 1.393 . S
C1387 C1386 1.391 . S
C1388 H1378 0.950 . S
C1388 C1389 1.386 . S
C1388 C1390 1.391 . S
C1389 C1388 1.386 . S
C1389 C1393 1.393 . S
C1390 H1379 0.950 . S
C1390 C1388 1.391 . S
C1390 C1391 1.400 . S
C1391 C1385 1.491 . S
C1391 C1390 1.400 . S
C1391 C1392 1.398 . S
C1392 H1380 0.950 . S
C1392 C1391 1.398 . S
C1392 C1393 1.391 . S
C1393 H1381 0.950 . S
C1393 C1389 1.393 . S
C1393 C1392 1.391 . S
H1394 C1402 0.950 . S
H1395 C1407 0.950 . S
H1396 C1404 0.950 . S
H1397 C1406 0.950 . S
H1398 C1408 0.950 . S
H1399 C1410 0.950 . S
H1400 C1412 0.950 . S
H1401 C1413 0.950 . S
C1402 H1394 0.950 . S
C1402 C1403 1.386 . S
C1402 C1404 1.391 . S
C1403 C1402 1.386 . S
C1403 C1407 1.393 . S
C1404 H1396 0.950 . S
C1404 C1402 1.391 . S
C1404 C1405 1.400 . S
C1405 C1404 1.400 . S
C1405 C1406 1.398 . S
C1405 C1411 1.491 . S
C1406 H1397 0.950 . S
C1406 C1405 1.398 . S
C1406 C1407 1.391 . S
C1407 H1395 0.950 . S
C1407 C1403 1.393 . S
C1407 C1406 1.391 . S
C1408 H1398 0.950 . S
C1408 C1409 1.386 . S
C1408 C1410 1.391 . S
C1409 C1408 1.386 . S
C1409 C1413 1.393 . S
C1410 H1399 0.950 . S
C1410 C1408 1.391 . S
C1410 C1411 1.400 . S
C1411 C1405 1.491 . S
C1411 C1410 1.400 . S
C1411 C1412 1.398 . S
C1412 H1400 0.950 . S
C1412 C1411 1.398 . S
C1412 C1413 1.391 . S
C1413 H1401 0.950 . S
C1413 C1409 1.393 . S
C1413 C1412 1.391 . S
H1414 C1422 0.950 . S
H1415 C1427 0.950 . S
H1416 C1424 0.950 . S
H1417 C1426 0.950 . S
H1418 C1428 0.950 . S
H1419 C1430 0.950 . S
H1420 C1432 0.950 . S
H1421 C1433 0.950 . S
C1422 H1414 0.950 . S
C1422 C1423 1.386 . S
C1422 C1424 1.391 . S
C1423 C1422 1.386 . S
C1423 C1427 1.393 . S
C1424 H1416 0.950 . S
C1424 C1422 1.391 . S
C1424 C1425 1.400 . S
C1425 C1424 1.400 . S
C1425 C1426 1.398 . S
C1425 C1431 1.491 . S
C1426 H1417 0.950 . S
C1426 C1425 1.398 . S
C1426 C1427 1.391 . S
C1427 H1415 0.950 . S
C1427 C1423 1.393 . S
C1427 C1426 1.391 . S
C1428 H1418 0.950 . S
C1428 C1429 1.386 . S
C1428 C1430 1.391 . S
C1429 C1428 1.386 . S
C1429 C1433 1.393 . S
C1430 H1419 0.950 . S
C1430 C1428 1.391 . S
C1430 C1431 1.400 . S
C1431 C1425 1.491 . S
C1431 C1430 1.400 . S
C1431 C1432 1.398 . S
C1432 H1420 0.950 . S
C1432 C1431 1.398 . S
C1432 C1433 1.391 . S
C1433 H1421 0.950 . S
C1433 C1429 1.393 . S
C1433 C1432 1.391 . S
H1434 C1442 0.950 . S
H1435 C1447 0.950 . S
H1436 C1444 0.950 . S
H1437 C1446 0.950 . S
H1438 C1448 0.950 . S
H1439 C1450 0.950 . S
H1440 C1452 0.950 . S
H1441 C1453 0.950 . S
C1442 H1434 0.950 . S
C1442 C1443 1.386 . S
C1442 C1444 1.391 . S
C1443 C1442 1.386 . S
C1443 C1447 1.393 . S
C1444 H1436 0.950 . S
C1444 C1442 1.391 . S
C1444 C1445 1.400 . S
C1445 C1444 1.400 . S
C1445 C1446 1.398 . S
C1445 C1451 1.491 . S
C1446 H1437 0.950 . S
C1446 C1445 1.398 . S
C1446 C1447 1.391 . S
C1447 H1435 0.950 . S
C1447 C1443 1.393 . S
C1447 C1446 1.391 . S
C1448 H1438 0.950 . S
C1448 C1449 1.386 . S
C1448 C1450 1.391 . S
C1449 C1448 1.386 . S
C1449 C1453 1.393 . S
C1450 H1439 0.950 . S
C1450 C1448 1.391 . S
C1450 C1451 1.400 . S
C1451 C1445 1.491 . S
C1451 C1450 1.400 . S
C1451 C1452 1.398 . S
C1452 H1440 0.950 . S
C1452 C1451 1.398 . S
C1452 C1453 1.391 . S
C1453 H1441 0.950 . S
C1453 C1449 1.393 . S
C1453 C1452 1.391 . S
H1454 C1462 0.950 . S
H1455 C1467 0.950 . S
H1456 C1464 0.950 . S
H1457 C1466 0.950 . S
H1458 C1468 0.950 . S
H1459 C1470 0.950 . S
H1460 C1472 0.950 . S
H1461 C1473 0.950 . S
C1462 H1454 0.950 . S
C1462 C1463 1.386 . S
C1462 C1464 1.391 . S
C1463 C1462 1.386 . S
C1463 C1467 1.393 . S
C1464 H1456 0.950 . S
C1464 C1462 1.391 . S
C1464 C1465 1.400 . S
C1465 C1464 1.400 . S
C1465 C1466 1.398 . S
C1465 C1471 1.491 . S
C1466 H1457 0.950 . S
C1466 C1465 1.398 . S
C1466 C1467 1.391 . S
C1467 H1455 0.950 . S
C1467 C1463 1.393 . S
C1467 C1466 1.391 . S
C1468 H1458 0.950 . S
C1468 C1469 1.386 . S
C1468 C1470 1.391 . S
C1469 C1468 1.386 . S
C1469 C1473 1.393 . S
C1470 H1459 0.950 . S
C1470 C1468 1.391 . S
C1470 C1471 1.400 . S
C1471 C1465 1.491 . S
C1471 C1470 1.400 . S
C1471 C1472 1.398 . S
C1472 H1460 0.950 . S
C1472 C1471 1.398 . S
C1472 C1473 1.391 . S
C1473 H1461 0.950 . S
C1473 C1469 1.393 . S
C1473 C1472 1.391 . S
H1474 C1482 0.950 . S
H1475 C1487 0.950 . S
H1476 C1484 0.950 . S
H1477 C1486 0.950 . S
H1478 C1488 0.950 . S
H1479 C1490 0.950 . S
H1480 C1492 0.950 . S
H1481 C1493 0.950 . S
C1482 H1474 0.950 . S
C1482 C1483 1.386 . S
C1482 C1484 1.391 . S
C1483 C1482 1.386 . S
C1483 C1487 1.393 . S
C1484 H1476 0.950 . S
C1484 C1482 1.391 . S
C1484 C1485 1.400 . S
C1485 C1484 1.400 . S
C1485 C1486 1.398 . S
C1485 C1491 1.491 . S
C1486 H1477 0.950 . S
C1486 C1485 1.398 . S
C1486 C1487 1.391 . S
C1487 H1475 0.950 . S
C1487 C1483 1.393 . S
C1487 C1486 1.391 . S
C1488 H1478 0.950 . S
C1488 C1489 1.386 . S
C1488 C1490 1.391 . S
C1489 C1488 1.386 . S
C1489 C1493 1.393 . S
C1490 H1479 0.950 . S
C1490 C1488 1.391 . S
C1490 C1491 1.400 . S
C1491 C1485 1.491 . S
C1491 C1490 1.400 . S
C1491 C1492 1.398 . S
C1492 H1480 0.950 . S
C1492 C1491 1.398 . S
C1492 C1493 1.391 . S
C1493 H1481 0.950 . S
C1493 C1489 1.393 . S
C1493 C1492 1.391 . S
C603 N113 1.193 . S
C609 N14 1.193 . S
C623 N146 1.192 . S
C629 N47 1.192 . S
C643 N80 1.204 . S
C649 N179 1.205 . S
C663 C41 2.228 . S
C669 C173 2.232 . S
C683 C107 2.232 . S
C689 C74 2.234 . S
C703 C140 2.231 . S
C709 C8 2.234 . S
C723 N212 1.195 . S
C729 N311 1.195 . S
C743 N344 1.216 . S
C749 N245 1.216 . S
C763 N278 1.222 . S
C769 N377 1.222 . S
C783 C371 2.228 . S
C789 C239 2.231 . S
C803 C305 2.229 . S
C809 C272 2.234 . S
C823 C338 2.234 . S
C829 C206 2.231 . S
C843 N509 1.221 . S
C849 N410 1.221 . S
C863 N443 1.192 . S
C869 N542 1.192 . S
C883 N575 1.203 . S
C889 N476 1.203 . S
C903 C437 2.234 . S
C909 C569 2.230 . S
C923 C503 2.228 . S
C929 C470 2.233 . S
C943 C404 2.228 . S
C949 C536 2.233 . S
C963 C578 1.474 . S
C969 C17 1.473 . S
C983 C50 1.482 . S
C989 C512 1.480 . S
C1003 C545 1.490 . S
C1009 C83 1.489 . S
C1023 C248 1.490 . S
C1029 C116 1.489 . S
C1043 C149 1.489 . S
C1049 C281 1.490 . S
C1063 C182 1.490 . S
C1069 C215 1.489 . S
C1083 C446 1.479 . S
C1089 C314 1.481 . S
C1103 C479 1.486 . S
C1109 C347 1.487 . S
C1123 C380 1.472 . S
C1129 C413 1.472 . S
C1143 C28 1.952 . S
C1149 C127 1.954 . S
C1163 C160 1.953 . S
C1169 C61 1.953 . S
C1183 C94 1.958 . S
C1189 C193 1.954 . S
C1203 N170 0.664 . S
C1209 N38 0.680 . S
C1223 N71 0.661 . S
C1229 N104 0.679 . S
C1243 N137 0.681 . S
C1249 N5 0.672 . S
C1263 C226 1.952 . S
C1269 C325 1.954 1_556 S
C1283 C358 1.957 1_556 S
C1289 C259 1.955 . S
C1303 C391 1.957 1_556 S
C1309 C292 1.955 . S
C1323 N368 0.642 . S
C1329 N236 0.669 . S
C1343 N302 0.680 . S
C1349 N269 0.675 . S
C1363 N335 0.614 . S
C1369 N203 0.640 . S
C1383 C523 1.952 . S
C1389 C424 1.957 1_554 S
C1403 C556 1.958 . S
C1409 C457 1.954 1_554 S
C1423 C589 1.956 . S
C1429 C490 1.956 1_554 S
C1443 N566 0.680 . S
C1449 N434 0.675 . S
C1463 N500 0.609 . S
C1469 N467 0.608 . S
C1483 N533 0.617 . S
C1489 N401 0.606 . S
