# Generated by pormake.
# Topology vmm, (7)-cn, num edge types: 1
# Building blocks:
#     Node 0, Type 0, BuildingBlock: HICVOG_clean_sbu_0, # of connection points: 7
#     Node 1, Type 0, BuildingBlock: HICVOG_clean_sbu_0, # of connection points: 7
#     Node 2, Type 0, BuildingBlock: HICVOG_clean_sbu_0, # of connection points: 7
#     Node 3, Type 0, BuildingBlock: HICVOG_clean_sbu_0, # of connection points: 7
#     Edge 4, Type (0, 0), BuildingBlock: FUNLAD_clean_linker_0, # of connection points: 2
#     Edge 5, Type (0, 0), BuildingBlock: FUNLAD_clean_linker_0, # of connection points: 2
#     Edge 6, Type (0, 0), BuildingBlock: FUNLAD_clean_linker_0, # of connection points: 2
#     Edge 7, Type (0, 0), BuildingBlock: FUNLAD_clean_linker_0, # of connection points: 2
#     Edge 8, Type (0, 0), BuildingBlock: FUNLAD_clean_linker_0, # of connection points: 2
#     Edge 9, Type (0, 0), BuildingBlock: FUNLAD_clean_linker_0, # of connection points: 2
#     Edge 10, Type (0, 0), BuildingBlock: FUNLAD_clean_linker_0, # of connection points: 2
#     Edge 11, Type (0, 0), BuildingBlock: FUNLAD_clean_linker_0, # of connection points: 2
#     Edge 12, Type (0, 0), BuildingBlock: FUNLAD_clean_linker_0, # of connection points: 2
#     Edge 13, Type (0, 0), BuildingBlock: FUNLAD_clean_linker_0, # of connection points: 2
#     Edge 14, Type (0, 0), BuildingBlock: FUNLAD_clean_linker_0, # of connection points: 2
#     Edge 15, Type (0, 0), BuildingBlock: FUNLAD_clean_linker_0, # of connection points: 2
#     Edge 16, Type (0, 0), BuildingBlock: FUNLAD_clean_linker_0, # of connection points: 2
#     Edge 17, Type (0, 0), BuildingBlock: FUNLAD_clean_linker_0, # of connection points: 2
# Relax obj value: 0.084
# Max RMSD: 0.163
# Mean RMSD: 0.163
data_MOF--net-vmm--node1-HICVOG_clean_sbu_0--edge1-FUNLAD_clean_linker_0
_symmetry_space_group_name_H-M    P1
_symmetry_Int_Tables_number       1
_symmetry_cell_setting            triclinic
loop_
_symmetry_equiv_pos_as_xyz
'x, y, z'
_cell_length_a     20.500092
_cell_length_b     51.704825
_cell_length_c     24.634348
_cell_angle_alpha  89.740425
_cell_angle_beta   81.074727
_cell_angle_gamma 90.425553
loop_
_atom_site_label
_atom_site_type_symbol
_atom_site_fract_x
_atom_site_fract_y
_atom_site_fract_z
_atom_type_partial_charge
Zn0 Zn 0.25892 0.10273 0.2534 0.0
C1 C 0.13473 0.0716 0.16595 0.0
N2 N 0.17705 0.05179 0.16415 0.0
C3 C 0.22913 0.06232 0.18292 0.0
N4 N 0.2182 0.08725 0.19663 0.0
N5 N 0.16004 0.09359 0.18407 0.0
C6 C -6e-05 0.12181 0.19926 0.0
O7 O 0.0193 0.11197 0.24334 0.0
O8 O 0.35743 0.10079 0.23716 0.0
Zn9 Zn 0.1382 0.12927 0.16952 0.0
N10 N 0.23038 0.08248 0.31885 0.0
C11 C 0.14174 0.06391 0.3807 0.0
C12 C 0.16444 0.07884 0.33431 0.0
C13 C 0.27484 0.0719 0.34797 0.0
N14 N 0.18596 0.05334 0.40988 0.0
C15 C 0.25228 0.05695 0.39519 0.0
O16 O 0.15435 0.15551 0.22814 0.0
C17 C 0.19337 0.15738 0.26357 0.0
O18 O 0.23175 0.13907 0.27181 0.0
H19 H 0.12995 0.08737 0.31047 0.0
H20 H 0.32696 0.07478 0.33367 0.0
C21 C 0.18582 0.16381 0.07854 0.0
C22 C 0.22662 0.17089 1.02916 0.0
C23 C 0.27503 0.12922 1.02553 0.0
C24 C 0.23467 0.12233 0.0742 0.0
N25 N 0.19118 0.13971 0.10012 0.0
N26 N 0.2703 0.15325 1.00438 0.0
H27 H 0.15132 0.17735 0.10027 0.0
C28 C 0.39406 0.1197 0.2184 0.0
O29 O 0.3669 0.14174 0.20796 0.0
O30 O 0.04293 0.13085 0.16112 0.0
H31 H 0.23829 0.1032 0.09101 0.0
H32 H 0.08938 0.06071 0.39346 0.0
H33 H 0.31006 0.11561 1.00473 0.0
Zn34 Zn 0.80716 0.62748 0.40503 0.0
C35 C 0.71347 0.56128 0.38434 0.0
N36 N 0.76131 0.55101 0.40892 0.0
C37 C 0.80333 0.57094 0.41011 0.0
N38 N 0.78184 0.59268 0.38856 0.0
N39 N 0.72606 0.58636 0.37116 0.0
C40 C 0.5525 0.61839 0.35526 0.0
O41 O 0.57983 0.63867 0.37487 0.0
O42 O 0.9032 0.62794 0.41176 0.0
Zn43 Zn 0.68782 0.6037 0.3148 0.0
N44 N 0.75831 0.63697 0.47593 0.0
C45 C 0.6749 0.62696 0.55158 0.0
C46 C 0.71024 0.62066 0.50056 0.0
C47 C 0.77273 0.65941 0.5005 0.0
N48 N 0.68907 0.64931 0.57605 0.0
C49 C 0.73725 0.6659 0.55231 0.0
O50 O 0.71698 0.64076 0.29913 0.0
C51 C 0.75609 0.65822 0.31168 0.0
O52 O 0.79179 0.65465 0.34899 0.0
H53 H 0.69933 0.60288 0.48088 0.0
H54 H 0.8106 0.67208 0.47925 0.0
C55 C 0.67395 0.57398 0.21822 0.0
C56 C 0.69796 0.56019 0.17013 0.0
C57 C 0.80771 0.56909 0.18512 0.0
C58 C 0.7836 0.58285 0.23236 0.0
N59 N 0.71739 0.58498 0.24799 0.0
N60 N 0.76456 0.55811 0.15529 0.0
H61 H 0.6216 0.57563 0.23264 0.0
C62 C 0.9464 0.62395 0.36992 0.0
O63 O 0.92716 0.61964 0.32228 0.0
O64 O 0.58908 0.60131 0.32956 0.0
H65 H 0.81723 0.59167 0.25676 0.0
H66 H 0.63641 0.6142 0.57163 0.0
H67 H 0.86032 0.56711 0.17222 0.0
Zn68 Zn 0.66067 0.92479 0.81896 0.0
C69 C 0.78111 0.96128 0.90137 0.0
N70 N 0.734 0.97937 0.90445 0.0
C71 C 0.68331 0.96661 0.88816 0.0
N72 N 0.69934 0.94201 0.87485 0.0
N73 N 0.75999 0.93819 0.88486 0.0
C74 C 0.92909 0.88853 0.89091 0.0
O75 O 0.90611 0.86591 0.87838 0.0
O76 O 0.56243 0.92164 0.83795 0.0
Zn77 Zn 0.79313 0.90393 0.89747 0.0
N78 N 0.68208 0.94582 0.7537 0.0
C79 C 0.76656 0.96535 0.68927 0.0
C80 C 0.74732 0.94982 0.73534 0.0
C81 C 0.63488 0.95663 0.7278 0.0
N82 N 0.71969 0.97618 0.66332 0.0
C83 C 0.65399 0.97226 0.68093 0.0
O84 O 0.77993 0.87653 0.84031 0.0
C85 C 0.73986 0.873 0.80625 0.0
O86 O 0.6969 0.88977 0.79932 0.0
H87 H 0.78397 0.94111 0.75673 0.0
H88 H 0.58343 0.95344 0.74433 0.0
C89 C 0.76329 0.8684 0.9895 0.0
C90 C 0.73094 0.86038 0.0417 0.0
C91 C 0.67097 0.8997 0.04927 0.0
C92 C 0.70292 0.90745 0.99775 0.0
N93 N 0.74865 0.8918 0.96886 0.0
N94 N 0.68573 0.87651 0.06996 0.0
H95 H 0.80042 0.85652 0.96584 0.0
C96 C 0.53626 0.90178 0.86325 0.0
O97 O 0.57447 0.88372 0.87851 0.0
O98 O 0.88973 0.90736 0.90057 0.0
H99 H 0.69165 0.92599 0.98138 0.0
H100 H 0.81833 0.96884 0.67424 0.0
H101 H 0.63476 0.91204 0.07276 0.0
Zn102 Zn 0.28731 0.42461 0.74662 0.0
C103 C 0.16603 0.46062 0.66189 0.0
N104 N 0.21181 0.47944 0.65956 0.0
C105 C 0.26113 0.4678 0.67989 0.0
N106 N 0.24594 0.44301 0.69378 0.0
N107 N 0.18658 0.43821 0.68141 0.0
C108 C 0.01668 0.38836 0.66985 0.0
O109 O 0.03807 0.36563 0.68298 0.0
O110 O 0.38526 0.42177 0.72343 0.0
Zn111 Zn 0.15349 0.40409 0.66746 0.0
N112 N 0.27008 0.44487 0.81283 0.0
C113 C 0.18732 0.46252 0.88046 0.0
C114 C 0.20524 0.44759 0.83378 0.0
C115 C 0.31827 0.45641 0.83679 0.0
N116 N 0.23508 0.47409 0.90441 0.0
C117 C 0.30044 0.47149 0.88426 0.0
O118 O 0.16443 0.37711 0.72569 0.0
C119 C 0.20325 0.37319 0.76058 0.0
O120 O 0.24807 0.38946 0.76758 0.0
H121 H 0.16782 0.43834 0.81388 0.0
H122 H 0.36934 0.45424 0.81836 0.0
C123 C 0.18347 0.36984 0.57408 0.0
C124 C 0.21756 0.36235 0.52237 0.0
C125 C 0.28174 0.40098 0.51905 0.0
C126 C 0.24771 0.4083 0.56983 0.0
N127 N 0.19947 0.39264 0.59659 0.0
N128 N 0.266 0.37831 0.49669 0.0
H129 H 0.14546 0.35767 0.5967 0.0
C130 C 0.41029 0.4031 0.69417 0.0
O131 O 0.37099 0.38574 0.6772 0.0
O132 O 0.05702 0.40726 0.6617 0.0
H133 H 0.25982 0.4264 0.58756 0.0
H134 H 0.13586 0.46497 0.89751 0.0
H135 H 0.32038 0.41323 0.49745 0.0
C136 C 0.50806 0.13852 0.19688 0.0
C137 C 0.46656 0.117 0.21072 0.0
C138 C 0.57647 0.13623 0.19337 0.0
C139 C 0.60473 0.11224 0.20318 0.0
C140 C 0.56318 0.09067 0.21596 0.0
C141 C 0.49489 0.09296 0.21949 0.0
C142 C 0.67646 0.10931 0.20445 0.0
C143 C 0.72295 0.12567 0.17914 0.0
C144 C 0.79389 0.1235 0.18424 0.0
C145 C 0.8414 0.13389 0.14258 0.0
C146 C 0.90844 0.13309 0.1471 0.0
C147 C 0.92923 0.12215 0.19382 0.0
H148 H 0.77957 0.10507 0.26486 0.0
C149 C 0.88173 0.11178 0.23559 0.0
C150 C 0.81475 0.11252 0.23101 0.0
H151 H 0.89612 0.10334 0.27223 0.0
H152 H 0.48768 0.15733 0.19018 0.0
H153 H 0.60645 0.1535 0.18491 0.0
H154 H 0.58354 0.072 0.22396 0.0
H155 H 0.46428 0.07595 0.23001 0.0
H156 H 0.69133 0.09267 0.22653 0.0
H157 H 0.70931 0.14084 0.15255 0.0
H158 H 0.82662 0.14266 0.10639 0.0
H159 H 0.94386 0.14126 0.11416 0.0
C160 C 0.43853 0.63574 0.38385 0.0
C161 C 0.4799 0.61593 0.3602 0.0
C162 C 0.37022 0.6341 0.38494 0.0
C163 C 0.34187 0.61246 0.36269 0.0
C164 C 0.38326 0.5925 0.33997 0.0
C165 C 0.45142 0.59413 0.33894 0.0
C166 C 0.27032 0.61074 0.35898 0.0
C167 C 0.22346 0.62397 0.39162 0.0
C168 C 0.15259 0.62304 0.38532 0.0
C169 C 0.10467 0.62822 0.43103 0.0
C170 C 0.03767 0.62831 0.42618 0.0
C171 C 0.01723 0.62352 0.37522 0.0
H172 H 0.16761 0.61502 0.29766 0.0
C173 C 0.06515 0.61845 0.32937 0.0
C174 C 0.13213 0.61828 0.33427 0.0
H175 H 0.05106 0.61482 0.28949 0.0
H176 H 0.45899 0.65285 0.40032 0.0
H177 H 0.34039 0.65023 0.40153 0.0
H178 H 0.36286 0.57568 0.32233 0.0
H179 H 0.48186 0.57847 0.32052 0.0
H180 H 0.25583 0.59751 0.32879 0.0
H181 H 0.23667 0.63527 0.42539 0.0
H182 H 0.11909 0.63217 0.47069 0.0
H183 H 0.00196 0.63228 0.46235 0.0
C184 C 0.04515 0.87236 0.87702 0.0
C185 C 0.0002 0.89233 0.89269 0.0
C186 C 0.11262 0.8762 0.87724 0.0
C187 C 0.13647 0.90006 0.89378 0.0
C188 C 0.09141 0.91998 0.90943 0.0
C189 C 0.02399 0.91617 0.90905 0.0
C190 C 0.20802 0.90539 0.89229 0.0
C191 C 0.25322 0.88671 0.89362 0.0
C192 C 0.32531 0.89189 0.88846 0.0
C193 C 0.36588 0.87282 0.90601 0.0
C194 C 0.43434 0.87622 0.89892 0.0
C195 C 0.46371 0.89875 0.87371 0.0
H196 H 0.32584 0.92945 0.84793 0.0
C197 C 0.42319 0.918 0.85665 0.0
C198 C 0.3548 0.91458 0.86365 0.0
H199 H 0.44434 0.93554 0.83683 0.0
H200 H 0.02843 0.85386 0.86368 0.0
H201 H 0.14572 0.86062 0.86302 0.0
H202 H 0.10841 0.93861 0.92184 0.0
H203 H -0.00935 0.93199 0.92127 0.0
H204 H 0.22328 0.92555 0.89142 0.0
H205 H 0.23713 0.86672 0.8998 0.0
H206 H 0.3446 0.85507 0.92483 0.0
H207 H 0.46422 0.861 0.91242 0.0
C208 C 0.89956 0.37238 0.68161 0.0
C209 C 0.94605 0.39219 0.666 0.0
C210 C 0.8325 0.37639 0.68 0.0
C211 C 0.81056 0.40029 0.66228 0.0
C212 C 0.8572 0.41998 0.64632 0.0
C213 C 0.92419 0.41594 0.64783 0.0
C214 C 0.73937 0.40595 0.66318 0.0
C215 C 0.69292 0.38752 0.66139 0.0
C216 C 0.6211 0.39303 0.66651 0.0
C217 C 0.57937 0.37462 0.64755 0.0
C218 C 0.51103 0.3782 0.65511 0.0
C219 C 0.48285 0.4002 0.68235 0.0
H220 H 0.62282 0.42962 0.7097 0.0
C221 C 0.5246 0.41885 0.7006 0.0
C222 C 0.59289 0.41529 0.693 0.0
H223 H 0.50445 0.43598 0.72193 0.0
H224 H 0.91473 0.3539 0.69613 0.0
H225 H 0.79811 0.36095 0.69426 0.0
H226 H 0.84176 0.43862 0.63281 0.0
H227 H 0.95877 0.43151 0.63502 0.0
H228 H 0.72537 0.42617 0.66422 0.0
H229 H 0.70776 0.36752 0.65501 0.0
H230 H 0.59963 0.35723 0.62737 0.0
H231 H 0.48025 0.36344 0.64062 0.0
C232 C 0.3603 0.05585 0.4326 0.0
C233 C 0.29818 0.04483 0.42888 0.0
C234 C 0.40204 0.04445 0.46557 0.0
C235 C 0.38241 0.02183 0.49605 0.0
C236 C 0.32078 1.0107 0.4918 0.0
C237 C 0.279 0.02213 0.45901 0.0
C238 C 0.42523 1.00885 0.53139 0.0
C239 C 0.47325 0.02116 0.55316 0.0
C240 C 0.5173 1.00816 0.58738 0.0
C241 C 0.57882 0.01957 0.59079 0.0
C242 C 0.62248 1.00796 0.62155 0.0
C243 C 0.60538 0.98477 0.65048 0.0
H244 H 0.45187 0.97604 0.61682 0.0
C245 C 0.54315 0.97355 0.64806 0.0
C246 C 0.4995 0.98513 0.61699 0.0
H247 H 0.52842 0.95554 0.66914 0.0
H248 H 0.3766 0.07354 0.41082 0.0
H249 H 0.44984 0.05331 0.46629 0.0
H250 H 0.30456 0.99317 0.51435 0.0
H251 H 0.23169 0.01301 0.45699 0.0
H252 H 0.41598 0.98844 0.53989 0.0
H253 H 0.48228 0.0416 0.54475 0.0
H254 H 0.59369 0.0374 0.56888 0.0
H255 H 0.66979 0.01724 0.6227 0.0
C256 C 0.41294 0.47455 0.91403 0.0
C257 C 0.3498 0.48483 0.91285 0.0
C258 C 0.45674 0.48665 0.94447 0.0
C259 C 0.4382 0.50927 0.97449 0.0
C260 C 0.37595 0.51985 0.97189 0.0
C261 C 0.33215 0.50772 0.94188 0.0
C262 C 0.48187 0.52263 1.00871 0.0
C263 C 0.53053 0.51085 1.03026 0.0
C264 C 0.57196 0.52412 0.06649 0.0
C265 C 0.63453 0.51413 0.07038 0.0
C266 C 0.67493 0.52585 0.10411 0.0
C267 C 0.65338 0.54767 0.13559 0.0
H268 H 0.50134 0.55375 0.09793 0.0
C269 C 0.59028 0.55751 0.13228 0.0
C270 C 0.54995 0.54584 0.09834 0.0
H271 H 0.57214 0.5745 0.15514 0.0
H272 H 0.4281 0.45683 0.89267 0.0
H273 H 0.50494 0.47823 0.94404 0.0
H274 H 0.3605 0.53737 0.99408 0.0
H275 H 0.28416 0.5163 0.94159 0.0
H276 H 0.47166 0.54286 1.01773 0.0
H277 H 0.54119 0.49067 1.02108 0.0
H278 H 0.65256 0.49729 0.04682 0.0
H279 H 0.72305 0.51764 0.10577 0.0
C280 C 0.87826 0.98875 0.90527 0.0
C281 C 0.84168 0.96659 0.92433 0.0
C282 C 0.91903 1.00093 0.93788 0.0
C283 C 0.92325 0.99129 0.99064 0.0
C284 C 0.89201 0.9676 1.00723 0.0
C285 C 0.85093 0.95543 0.97449 0.0
C286 C 0.95683 1.00603 1.03017 0.0
C287 C 0.96189 0.03214 1.02985 0.0
C288 C -0.00537 0.04646 0.0704 0.0
C289 C 0.03248 0.06872 0.05376 0.0
C290 C 0.07315 0.07973 0.08839 0.0
C291 C 0.07516 0.06886 0.14034 0.0
H292 H 0.96067 0.02107 0.13959 0.0
C293 C 0.03167 0.04855 0.15916 0.0
C294 C -0.00847 0.03747 0.12464 0.0
H295 H 0.03295 0.03975 0.19901 0.0
H296 H 0.8713 0.99782 0.86685 0.0
H297 H 0.94474 0.01847 0.92255 0.0
H298 H 0.89548 0.95949 0.0473 0.0
H299 H 0.82221 0.93868 0.99057 0.0
H300 H 0.97528 0.99498 0.06211 0.0
H301 H 0.94401 0.0434 0.99799 0.0
H302 H 0.03463 0.07631 1.01245 0.0
H303 H 0.10722 0.09506 0.07263 0.0
C304 C 0.11758 0.46792 0.57822 0.0
C305 C 0.10784 0.46411 0.63526 0.0
C306 C 0.07114 0.48139 0.55361 0.0
C307 C 0.01452 0.49141 0.58594 0.0
C308 C 0.00171 0.48527 0.64219 0.0
C309 C 0.04857 0.47192 0.6669 0.0
C310 C 0.97014 0.50935 0.56249 0.0
C311 C -0.00688 0.52705 0.52361 0.0
C312 C 0.94916 0.54433 0.49788 0.0
C313 C 0.96675 0.5511 0.44221 0.0
C314 C 0.92098 0.56304 0.41395 0.0
C315 C 0.85797 0.56903 0.44151 0.0
H316 H 0.87422 0.54866 0.56991 0.0
C317 C 0.84292 0.56483 0.49834 0.0
C318 C 0.88827 0.55265 0.52648 0.0
H319 H 0.79403 0.56899 0.52006 0.0
H320 H 0.16362 0.46235 0.55336 0.0
H321 H 0.08115 0.48497 0.50976 0.0
H322 H 0.95778 0.49242 0.66769 0.0
H323 H 0.04095 0.4696 0.71117 0.0
H324 H 0.9179 0.50842 0.57906 0.0
H325 H 0.04553 0.52785 0.50748 0.0
H326 H 0.01384 0.54526 0.41951 0.0
H327 H 0.9328 0.56552 0.36981 0.0
C328 C 0.16591 0.21064 1.00439 0.0
C329 C 0.22508 0.19692 1.00362 0.0
C330 C 0.16562 0.23432 0.97632 0.0
C331 C 0.22466 0.24476 0.94728 0.0
C332 C 0.28373 0.23133 0.94797 0.0
C333 C 0.28388 0.20764 0.97526 0.0
C334 C 0.2277 0.26976 0.91676 0.0
C335 C 0.17699 0.2798 0.89485 0.0
C336 C 0.18347 0.30409 0.86145 0.0
C337 C 0.14244 0.30789 0.82143 0.0
C338 C 0.14862 0.33023 0.78849 0.0
C339 C 0.19575 0.3494 0.7952 0.0
H340 H 0.26037 0.32195 0.90066 0.0
C341 C 0.23572 0.34582 0.83616 0.0
C342 C 0.22947 0.32357 0.869 0.0
H343 H 0.27192 0.36029 0.8432 0.0
H344 H 0.11963 0.20281 1.02543 0.0
H345 H 0.11934 0.24442 0.97781 0.0
H346 H 0.33002 0.23899 0.92647 0.0
H347 H 0.33037 0.19767 0.97411 0.0
H348 H 0.27566 0.27927 0.9087 0.0
H349 H 0.13072 0.26911 0.89823 0.0
H350 H 0.10609 0.29335 0.81506 0.0
H351 H 0.11667 0.3324 0.75767 0.0
C352 C 0.69796 0.70063 0.61956 0.0
C353 C 0.74919 0.69028 0.58144 0.0
C354 C 0.70761 0.72321 0.64823 0.0
C355 C 0.76887 0.73624 0.63946 0.0
C356 C 0.8207 0.72565 0.60244 0.0
C357 C 0.811 0.703 0.5735 0.0
C358 C 0.77987 0.76057 0.66918 0.0
C359 C 0.73074 0.77741 0.68492 0.0
C360 C 0.73799 0.80207 0.71443 0.0
C361 C 0.69052 0.82123 0.71189 0.0
C362 C 0.69217 0.84421 0.74098 0.0
C363 C 0.74109 0.84867 0.77416 0.0
H364 H 0.82433 0.79191 0.75102 0.0
C365 C 0.7891 0.82956 0.77673 0.0
C366 C 0.78767 0.80646 0.74707 0.0
H367 H 0.82731 0.83232 0.80204 0.0
H368 H 0.64988 0.69132 0.62729 0.0
H369 H 0.66705 0.73016 0.67785 0.0
H370 H 0.86872 0.73505 0.59552 0.0
H371 H 0.85236 0.69531 0.54579 0.0
H372 H 0.82986 0.76522 0.67554 0.0
H373 H 0.6825 0.77359 0.67347 0.0
H374 H 0.65147 0.81837 0.68741 0.0
H375 H 0.65416 0.85834 0.7379 0.0
C376 C 0.73369 0.83273 0.12484 0.0
C377 C 0.74406 0.83517 0.06724 0.0
C378 C 0.74061 0.80888 0.15014 0.0
C379 C 0.75824 0.78672 0.11844 0.0
C380 C 0.7691 0.78915 0.06087 0.0
C381 C 0.76245 0.8131 0.03547 0.0
C382 C 0.76091 0.76062 0.144 0.0
C383 C 0.77129 0.75685 0.19625 0.0
C384 C 0.76888 0.731 0.22351 0.0
C385 C 0.80162 0.72761 0.26905 0.0
C386 C 0.79799 0.70399 0.29742 0.0
C387 C 0.76068 0.68325 0.28134 0.0
H388 H 0.70391 0.71226 0.17357 0.0
C389 C 0.72756 0.68669 0.23589 0.0
C390 C 0.73155 0.71025 0.20733 0.0
H391 H 0.69813 0.6712 0.2224 0.0
H392 H 0.7192 0.84926 0.15066 0.0
H393 H 0.72977 0.80784 0.19449 0.0
H394 H 0.78189 0.77236 0.03536 0.0
H395 H 0.76945 0.81401 0.99105 0.0
H396 H 0.75502 0.74401 0.11835 0.0
H397 H 0.78353 0.77329 0.22014 0.0
H398 H 0.83014 0.74332 0.28284 0.0
H399 H 0.82397 0.70212 0.3323 0.0
C400 C 0.25381 0.32658 0.45699 0.0
C401 C 0.20367 0.33771 0.49498 0.0
C402 C 0.24201 0.30412 0.4287 0.0
C403 C 0.17963 0.29197 0.43773 0.0
C404 C 0.12906 0.30319 0.47508 0.0
C405 C 0.14094 0.32574 0.50367 0.0
C406 C 0.16599 0.2681 0.40742 0.0
C407 C 0.21348 0.25076 0.39023 0.0
C408 C 0.20373 0.22678 0.35912 0.0
C409 C 0.24933 0.20677 0.3601 0.0
C410 C 0.24519 0.18436 0.32955 0.0
C411 C 0.19561 0.18135 0.2964 0.0
H412 H 0.1184 0.23913 0.32354 0.0
C413 C 0.14969 0.20137 0.29518 0.0
C414 C 0.15358 0.22388 0.32635 0.0
H415 H 0.11101 0.19973 0.27001 0.0
H416 H 0.30259 0.33528 0.44878 0.0
H417 H 0.28175 0.2967 0.39891 0.0
H418 H 0.08025 0.29446 0.48227 0.0
H419 H 0.10048 0.33402 0.53144 0.0
H420 H 0.11548 0.2643 0.40132 0.0
H421 H 0.26225 0.25363 0.40137 0.0
H422 H 0.28875 0.20849 0.38456 0.0
H423 H 0.2817 0.16949 0.33154 0.0
C424 C 0.30381 0.02504 0.15986 0.0
C425 C 0.29548 0.05189 0.16469 0.0
C426 C 0.35852 0.01495 0.12583 0.0
C427 C 0.40568 0.03166 0.0961 0.0
C428 C 0.40044 0.05836 0.10502 0.0
C429 C 0.34525 0.06842 0.1382 0.0
C430 C 0.45856 0.02214 0.05316 0.0
C431 C 0.45057 1.00151 1.02155 0.0
C432 C 0.50346 0.99272 0.97785 0.0
C433 C 0.51378 0.96614 0.97028 0.0
C434 C 0.5699 0.95734 0.93615 0.0
C435 C 0.6153 0.97499 0.90753 0.0
H436 H 0.53795 0.03099 0.94959 0.0
C437 C 0.6015 1.00153 0.91105 0.0
C438 C 0.54599 1.01036 0.94595 0.0
H439 H 0.63617 0.01552 0.8899 0.0
H440 H 0.26569 1.0119 0.1793 0.0
H441 H 0.36242 0.99418 0.12131 0.0
H442 H 0.43642 0.07161 0.08289 0.0
H443 H 0.3388 0.08918 0.13877 0.0
H444 H 0.50399 0.03344 0.04525 0.0
H445 H 0.4055 0.99001 1.02926 0.0
H446 H 0.48136 0.9522 0.99415 0.0
H447 H 0.58081 0.93691 0.93653 0.0
C448 C 0.37402 0.4632 0.62906 0.0
C449 C 0.32873 0.47781 0.66481 0.0
C450 C 0.42628 0.47542 0.59513 0.0
C451 C 0.43391 0.50246 0.59661 0.0
C452 C 0.39323 0.51654 0.63689 0.0
C453 C 0.34047 0.50436 0.6703 0.0
C454 C 0.48077 0.51672 0.55488 0.0
C455 C 0.49556 0.50898 0.50218 0.0
C456 C 0.54197 0.52366 0.46089 0.0
C457 C 0.58665 0.51009 0.42263 0.0
C458 C 0.63927 0.52311 0.39078 0.0
C459 C 0.64683 0.54996 0.39585 0.0
H460 H 0.51021 0.56191 0.4892 0.0
C461 C 0.59753 0.56387 0.42915 0.0
C462 C 0.54544 0.55083 0.46149 0.0
H463 H 0.60301 0.58447 0.43495 0.0
H464 H 0.36518 0.44282 0.623 0.0
H465 H 0.45841 0.46385 0.56593 0.0
H466 H 0.39891 0.53733 0.63951 0.0
H467 H 0.30555 0.51606 0.69698 0.0
H468 H 0.50074 0.5349 0.56734 0.0
H469 H 0.47604 0.49079 0.48943 0.0
H470 H 0.5842 0.48917 0.42075 0.0
H471 H 0.6773 0.51195 0.36606 0.0
loop_
_geom_bond_atom_site_label_1
_geom_bond_atom_site_label_2
_geom_bond_distance
_geom_bond_site_symmetry_2
_ccdc_geom_bond_type
Zn0 N4 2.020 . S
Zn0 O8 2.019 . S
Zn0 N10 2.119 . S
Zn0 O18 1.975 . S
C1 N2 1.334 . S
C1 N5 1.336 . S
N2 C1 1.334 . S
N2 C3 1.334 . S
C3 N2 1.334 . S
C3 N4 1.336 . S
N4 Zn0 2.020 . S
N4 C3 1.336 . S
N4 N5 1.354 . S
N5 C1 1.336 . S
N5 N4 1.354 . S
N5 Zn9 2.020 . S
C6 O7 1.244 . S
C6 O30 1.257 . S
O7 C6 1.244 . S
O8 Zn0 2.019 . S
O8 C28 1.257 . S
Zn9 N5 2.020 . S
Zn9 O16 1.975 . S
Zn9 N25 2.119 . S
Zn9 O30 2.019 . S
N10 Zn0 2.119 . S
N10 C12 1.334 . S
N10 C13 1.328 . S
C11 C12 1.391 . S
C11 N14 1.329 . S
C11 H32 0.930 . S
C12 N10 1.334 . S
C12 C11 1.391 . S
C12 H19 0.930 . S
C13 N10 1.328 . S
C13 C15 1.392 . S
C13 H20 0.930 . S
N14 C11 1.329 . S
N14 C15 1.331 . S
C15 C13 1.392 . S
C15 N14 1.331 . S
O16 Zn9 1.975 . S
O16 C17 1.252 . S
C17 O16 1.252 . S
C17 O18 1.252 . S
O18 Zn0 1.975 . S
O18 C17 1.252 . S
H19 C12 0.930 . S
H20 C13 0.930 . S
C21 C22 1.392 . S
C21 N25 1.328 . S
C21 H27 0.930 . S
C22 C21 1.392 . S
C22 N26 1.331 . S
C23 C24 1.391 . S
C23 N26 1.329 . S
C23 H33 0.930 . S
C24 C23 1.391 . S
C24 N25 1.334 . S
C24 H31 0.930 . S
N25 Zn9 2.119 . S
N25 C21 1.328 . S
N25 C24 1.334 . S
N26 C22 1.331 . S
N26 C23 1.329 . S
H27 C21 0.930 . S
C28 O8 1.257 . S
C28 O29 1.244 . S
O29 C28 1.244 . S
O30 C6 1.257 . S
O30 Zn9 2.019 . S
H31 C24 0.930 . S
H32 C11 0.930 . S
H33 C23 0.930 . S
Zn34 N38 2.020 . S
Zn34 O42 2.019 . S
Zn34 N44 2.119 . S
Zn34 O52 1.975 . S
C35 N36 1.334 . S
C35 N39 1.336 . S
N36 C35 1.334 . S
N36 C37 1.334 . S
C37 N36 1.334 . S
C37 N38 1.336 . S
N38 Zn34 2.020 . S
N38 C37 1.336 . S
N38 N39 1.354 . S
N39 C35 1.336 . S
N39 N38 1.354 . S
N39 Zn43 2.020 . S
C40 O41 1.244 . S
C40 O64 1.257 . S
O41 C40 1.244 . S
O42 Zn34 2.019 . S
O42 C62 1.257 . S
Zn43 N39 2.020 . S
Zn43 O50 1.975 . S
Zn43 N59 2.119 . S
Zn43 O64 2.019 . S
N44 Zn34 2.119 . S
N44 C46 1.334 . S
N44 C47 1.328 . S
C45 C46 1.391 . S
C45 N48 1.329 . S
C45 H66 0.930 . S
C46 N44 1.334 . S
C46 C45 1.391 . S
C46 H53 0.930 . S
C47 N44 1.328 . S
C47 C49 1.392 . S
C47 H54 0.930 . S
N48 C45 1.329 . S
N48 C49 1.331 . S
C49 C47 1.392 . S
C49 N48 1.331 . S
O50 Zn43 1.975 . S
O50 C51 1.252 . S
C51 O50 1.252 . S
C51 O52 1.252 . S
O52 Zn34 1.975 . S
O52 C51 1.252 . S
H53 C46 0.930 . S
H54 C47 0.930 . S
C55 C56 1.392 . S
C55 N59 1.328 . S
C55 H61 0.930 . S
C56 C55 1.392 . S
C56 N60 1.331 . S
C57 C58 1.391 . S
C57 N60 1.329 . S
C57 H67 0.930 . S
C58 C57 1.391 . S
C58 N59 1.334 . S
C58 H65 0.930 . S
N59 Zn43 2.119 . S
N59 C55 1.328 . S
N59 C58 1.334 . S
N60 C56 1.331 . S
N60 C57 1.329 . S
H61 C55 0.930 . S
C62 O42 1.257 . S
C62 O63 1.244 . S
O63 C62 1.244 . S
O64 C40 1.257 . S
O64 Zn43 2.019 . S
H65 C58 0.930 . S
H66 C45 0.930 . S
H67 C57 0.930 . S
Zn68 N72 2.020 . S
Zn68 O76 2.019 . S
Zn68 N78 2.119 . S
Zn68 O86 1.975 . S
C69 N70 1.334 . S
C69 N73 1.336 . S
N70 C69 1.334 . S
N70 C71 1.334 . S
C71 N70 1.334 . S
C71 N72 1.336 . S
N72 Zn68 2.020 . S
N72 C71 1.336 . S
N72 N73 1.354 . S
N73 C69 1.336 . S
N73 N72 1.354 . S
N73 Zn77 2.020 . S
C74 O75 1.244 . S
C74 O98 1.257 . S
O75 C74 1.244 . S
O76 Zn68 2.019 . S
O76 C96 1.257 . S
Zn77 N73 2.020 . S
Zn77 O84 1.975 . S
Zn77 N93 2.119 . S
Zn77 O98 2.019 . S
N78 Zn68 2.119 . S
N78 C80 1.334 . S
N78 C81 1.328 . S
C79 C80 1.391 . S
C79 N82 1.329 . S
C79 H100 0.930 . S
C80 N78 1.334 . S
C80 C79 1.391 . S
C80 H87 0.930 . S
C81 N78 1.328 . S
C81 C83 1.392 . S
C81 H88 0.930 . S
N82 C79 1.329 . S
N82 C83 1.331 . S
C83 C81 1.392 . S
C83 N82 1.331 . S
O84 Zn77 1.975 . S
O84 C85 1.252 . S
C85 O84 1.252 . S
C85 O86 1.252 . S
O86 Zn68 1.975 . S
O86 C85 1.252 . S
H87 C80 0.930 . S
H88 C81 0.930 . S
C89 C90 1.392 . S
C89 N93 1.328 . S
C89 H95 0.930 . S
C90 C89 1.392 . S
C90 N94 1.331 . S
C91 C92 1.391 . S
C91 N94 1.329 . S
C91 H101 0.930 . S
C92 C91 1.391 . S
C92 N93 1.334 . S
C92 H99 0.930 . S
N93 Zn77 2.119 . S
N93 C89 1.328 . S
N93 C92 1.334 . S
N94 C90 1.331 . S
N94 C91 1.329 . S
H95 C89 0.930 . S
C96 O76 1.257 . S
C96 O97 1.244 . S
O97 C96 1.244 . S
O98 C74 1.257 . S
O98 Zn77 2.019 . S
H99 C92 0.930 . S
H100 C79 0.930 . S
H101 C91 0.930 . S
Zn102 N106 2.020 . S
Zn102 O110 2.019 . S
Zn102 N112 2.119 . S
Zn102 O120 1.975 . S
C103 N104 1.334 . S
C103 N107 1.336 . S
N104 C103 1.334 . S
N104 C105 1.334 . S
C105 N104 1.334 . S
C105 N106 1.336 . S
N106 Zn102 2.020 . S
N106 C105 1.336 . S
N106 N107 1.354 . S
N107 C103 1.336 . S
N107 N106 1.354 . S
N107 Zn111 2.020 . S
C108 O109 1.244 . S
C108 O132 1.257 . S
O109 C108 1.244 . S
O110 Zn102 2.019 . S
O110 C130 1.257 . S
Zn111 N107 2.020 . S
Zn111 O118 1.975 . S
Zn111 N127 2.119 . S
Zn111 O132 2.019 . S
N112 Zn102 2.119 . S
N112 C114 1.334 . S
N112 C115 1.328 . S
C113 C114 1.391 . S
C113 N116 1.329 . S
C113 H134 0.930 . S
C114 N112 1.334 . S
C114 C113 1.391 . S
C114 H121 0.930 . S
C115 N112 1.328 . S
C115 C117 1.392 . S
C115 H122 0.930 . S
N116 C113 1.329 . S
N116 C117 1.331 . S
C117 C115 1.392 . S
C117 N116 1.331 . S
O118 Zn111 1.975 . S
O118 C119 1.252 . S
C119 O118 1.252 . S
C119 O120 1.252 . S
O120 Zn102 1.975 . S
O120 C119 1.252 . S
H121 C114 0.930 . S
H122 C115 0.930 . S
C123 C124 1.392 . S
C123 N127 1.328 . S
C123 H129 0.930 . S
C124 C123 1.392 . S
C124 N128 1.331 . S
C125 C126 1.391 . S
C125 N128 1.329 . S
C125 H135 0.930 . S
C126 C125 1.391 . S
C126 N127 1.334 . S
C126 H133 0.930 . S
N127 Zn111 2.119 . S
N127 C123 1.328 . S
N127 C126 1.334 . S
N128 C124 1.331 . S
N128 C125 1.329 . S
H129 C123 0.930 . S
C130 O110 1.257 . S
C130 O131 1.244 . S
O131 C130 1.244 . S
O132 C108 1.257 . S
O132 Zn111 2.019 . S
H133 C126 0.930 . S
H134 C113 0.930 . S
H135 C125 0.930 . S
C136 C137 1.386 . S
C136 C138 1.383 . S
C136 H152 0.951 . S
C137 C136 1.386 . S
C137 C141 1.383 . S
C138 C136 1.383 . S
C138 C139 1.402 . S
C138 H153 0.951 . S
C139 C138 1.402 . S
C139 C140 1.375 . S
C139 C142 1.481 . S
C140 C139 1.375 . S
C140 C141 1.367 . S
C140 H154 0.951 . S
C141 C137 1.383 . S
C141 C140 1.367 . S
C141 H155 0.950 . S
C142 C139 1.481 . S
C142 C143 1.297 . S
C142 H156 0.950 . S
C143 C142 1.297 . S
C143 C144 1.479 . S
C143 H157 0.950 . S
C144 C143 1.479 . S
C144 C145 1.375 . S
C144 C150 1.404 . S
C145 C144 1.375 . S
C145 C146 1.369 . S
C145 H158 0.950 . S
C146 C145 1.369 . S
C146 C147 1.392 . S
C146 H159 0.951 . S
C147 C146 1.392 . S
C147 C149 1.384 . S
H148 C150 0.949 . S
C149 C147 1.384 . S
C149 C150 1.385 . S
C149 H151 0.950 . S
C150 C144 1.404 . S
C150 H148 0.949 . S
C150 C149 1.385 . S
H151 C149 0.950 . S
H152 C136 0.951 . S
H153 C138 0.951 . S
H154 C140 0.951 . S
H155 C141 0.950 . S
H156 C142 0.950 . S
H157 C143 0.950 . S
H158 C145 0.950 . S
H159 C146 0.951 . S
C160 C161 1.386 . S
C160 C162 1.383 . S
C160 H176 0.951 . S
C161 C160 1.386 . S
C161 C165 1.383 . S
C162 C160 1.383 . S
C162 C163 1.402 . S
C162 H177 0.951 . S
C163 C162 1.402 . S
C163 C164 1.375 . S
C163 C166 1.481 . S
C164 C163 1.375 . S
C164 C165 1.367 . S
C164 H178 0.951 . S
C165 C161 1.383 . S
C165 C164 1.367 . S
C165 H179 0.950 . S
C166 C163 1.481 . S
C166 C167 1.297 . S
C166 H180 0.950 . S
C167 C166 1.297 . S
C167 C168 1.479 . S
C167 H181 0.950 . S
C168 C167 1.479 . S
C168 C169 1.375 . S
C168 C174 1.404 . S
C169 C168 1.375 . S
C169 C170 1.369 . S
C169 H182 0.950 . S
C170 C169 1.369 . S
C170 C171 1.392 . S
C170 H183 0.951 . S
C171 C170 1.392 . S
C171 C173 1.384 . S
H172 C174 0.949 . S
C173 C171 1.384 . S
C173 C174 1.385 . S
C173 H175 0.950 . S
C174 C168 1.404 . S
C174 H172 0.949 . S
C174 C173 1.385 . S
H175 C173 0.950 . S
H176 C160 0.951 . S
H177 C162 0.951 . S
H178 C164 0.951 . S
H179 C165 0.950 . S
H180 C166 0.950 . S
H181 C167 0.950 . S
H182 C169 0.950 . S
H183 C170 0.951 . S
C184 C185 1.386 . S
C184 C186 1.383 . S
C184 H200 0.951 . S
C185 C184 1.386 . S
C185 C189 1.383 . S
C186 C184 1.383 . S
C186 C187 1.402 . S
C186 H201 0.951 . S
C187 C186 1.402 . S
C187 C188 1.375 . S
C187 C190 1.481 . S
C188 C187 1.375 . S
C188 C189 1.367 . S
C188 H202 0.951 . S
C189 C185 1.383 . S
C189 C188 1.367 . S
C189 H203 0.950 . S
C190 C187 1.481 . S
C190 C191 1.297 . S
C190 H204 0.950 . S
C191 C190 1.297 . S
C191 C192 1.479 . S
C191 H205 0.950 . S
C192 C191 1.479 . S
C192 C193 1.375 . S
C192 C198 1.404 . S
C193 C192 1.375 . S
C193 C194 1.369 . S
C193 H206 0.950 . S
C194 C193 1.369 . S
C194 C195 1.392 . S
C194 H207 0.951 . S
C195 C194 1.392 . S
C195 C197 1.384 . S
H196 C198 0.949 . S
C197 C195 1.384 . S
C197 C198 1.385 . S
C197 H199 0.950 . S
C198 C192 1.404 . S
C198 H196 0.949 . S
C198 C197 1.385 . S
H199 C197 0.950 . S
H200 C184 0.951 . S
H201 C186 0.951 . S
H202 C188 0.951 . S
H203 C189 0.950 . S
H204 C190 0.950 . S
H205 C191 0.950 . S
H206 C193 0.950 . S
H207 C194 0.951 . S
C208 C209 1.386 . S
C208 C210 1.383 . S
C208 H224 0.951 . S
C209 C208 1.386 . S
C209 C213 1.383 . S
C210 C208 1.383 . S
C210 C211 1.402 . S
C210 H225 0.951 . S
C211 C210 1.402 . S
C211 C212 1.375 . S
C211 C214 1.481 . S
C212 C211 1.375 . S
C212 C213 1.367 . S
C212 H226 0.951 . S
C213 C209 1.383 . S
C213 C212 1.367 . S
C213 H227 0.950 . S
C214 C211 1.481 . S
C214 C215 1.297 . S
C214 H228 0.950 . S
C215 C214 1.297 . S
C215 C216 1.479 . S
C215 H229 0.950 . S
C216 C215 1.479 . S
C216 C217 1.375 . S
C216 C222 1.404 . S
C217 C216 1.375 . S
C217 C218 1.369 . S
C217 H230 0.950 . S
C218 C217 1.369 . S
C218 C219 1.392 . S
C218 H231 0.951 . S
C219 C218 1.392 . S
C219 C221 1.384 . S
H220 C222 0.949 . S
C221 C219 1.384 . S
C221 C222 1.385 . S
C221 H223 0.950 . S
C222 C216 1.404 . S
C222 H220 0.949 . S
C222 C221 1.385 . S
H223 C221 0.950 . S
H224 C208 0.951 . S
H225 C210 0.951 . S
H226 C212 0.951 . S
H227 C213 0.950 . S
H228 C214 0.950 . S
H229 C215 0.950 . S
H230 C217 0.950 . S
H231 C218 0.951 . S
C232 C233 1.386 . S
C232 C234 1.383 . S
C232 H248 0.951 . S
C233 C232 1.386 . S
C233 C237 1.383 . S
C234 C232 1.383 . S
C234 C235 1.402 . S
C234 H249 0.951 . S
C235 C234 1.402 . S
C235 C236 1.375 . S
C235 C238 1.481 1_545 S
C236 C235 1.375 . S
C236 C237 1.367 . S
C236 H250 0.951 1_545 S
C237 C233 1.383 . S
C237 C236 1.367 . S
C237 H251 0.950 . S
C238 C235 1.481 1_565 S
C238 C239 1.297 1_565 S
C238 H252 0.950 . S
C239 C238 1.297 1_545 S
C239 C240 1.479 1_545 S
C239 H253 0.950 . S
C240 C239 1.479 1_565 S
C240 C241 1.375 1_565 S
C240 C246 1.404 . S
C241 C240 1.375 1_545 S
C241 C242 1.369 1_545 S
C241 H254 0.950 . S
C242 C241 1.369 1_565 S
C242 C243 1.392 . S
C242 H255 0.951 . S
C243 C242 1.392 . S
C243 C245 1.384 . S
H244 C246 0.949 . S
C245 C243 1.384 . S
C245 C246 1.385 . S
C245 H247 0.950 . S
C246 C240 1.404 . S
C246 H244 0.949 . S
C246 C245 1.385 . S
H247 C245 0.950 . S
H248 C232 0.951 . S
H249 C234 0.951 . S
H250 C236 0.951 1_565 S
H251 C237 0.950 . S
H252 C238 0.950 . S
H253 C239 0.950 . S
H254 C241 0.950 . S
H255 C242 0.951 . S
C256 C257 1.386 . S
C256 C258 1.383 . S
C256 H272 0.951 . S
C257 C256 1.386 . S
C257 C261 1.383 . S
C258 C256 1.383 . S
C258 C259 1.402 . S
C258 H273 0.951 . S
C259 C258 1.402 . S
C259 C260 1.375 . S
C259 C262 1.481 . S
C260 C259 1.375 . S
C260 C261 1.367 . S
C260 H274 0.951 . S
C261 C257 1.383 . S
C261 C260 1.367 . S
C261 H275 0.950 . S
C262 C259 1.481 . S
C262 C263 1.297 . S
C262 H276 0.950 . S
C263 C262 1.297 . S
C263 C264 1.479 1_556 S
C263 H277 0.950 . S
C264 C263 1.479 1_554 S
C264 C265 1.375 . S
C264 C270 1.404 . S
C265 C264 1.375 . S
C265 C266 1.369 . S
C265 H278 0.950 . S
C266 C265 1.369 . S
C266 C267 1.392 . S
C266 H279 0.951 . S
C267 C266 1.392 . S
C267 C269 1.384 . S
H268 C270 0.949 . S
C269 C267 1.384 . S
C269 C270 1.385 . S
C269 H271 0.950 . S
C270 C264 1.404 . S
C270 H268 0.949 . S
C270 C269 1.385 . S
H271 C269 0.950 . S
H272 C256 0.951 . S
H273 C258 0.951 . S
H274 C260 0.951 . S
H275 C261 0.950 . S
H276 C262 0.950 . S
H277 C263 0.950 . S
H278 C265 0.950 . S
H279 C266 0.951 . S
C280 C281 1.386 . S
C280 C282 1.383 . S
C280 H296 0.951 . S
C281 C280 1.386 . S
C281 C285 1.383 . S
C282 C280 1.383 . S
C282 C283 1.402 . S
C282 H297 0.951 . S
C283 C282 1.402 . S
C283 C284 1.375 1_556 S
C283 C286 1.481 1_556 S
C284 C283 1.375 1_554 S
C284 C285 1.367 1_554 S
C284 H298 0.951 . S
C285 C281 1.383 . S
C285 C284 1.367 1_556 S
C285 H299 0.950 . S
C286 C283 1.481 1_554 S
C286 C287 1.297 1_664 S
C286 H300 0.950 . S
C287 C286 1.297 1_446 S
C287 C288 1.479 1_556 S
C287 H301 0.950 . S
C288 C287 1.479 1_554 S
C288 C289 1.375 1_554 S
C288 C294 1.404 . S
C289 C288 1.375 1_556 S
C289 C290 1.369 1_556 S
C289 H302 0.950 . S
C290 C289 1.369 1_554 S
C290 C291 1.392 . S
C290 H303 0.951 . S
C291 C290 1.392 . S
C291 C293 1.384 . S
H292 C294 0.949 1_655 S
C293 C291 1.384 . S
C293 C294 1.385 . S
C293 H295 0.950 . S
C294 C288 1.404 . S
C294 H292 0.949 1_455 S
C294 C293 1.385 . S
H295 C293 0.950 . S
H296 C280 0.951 . S
H297 C282 0.951 . S
H298 C284 0.951 . S
H299 C285 0.950 . S
H300 C286 0.950 . S
H301 C287 0.950 . S
H302 C289 0.950 . S
H303 C290 0.951 . S
C304 C305 1.386 . S
C304 C306 1.383 . S
C304 H320 0.951 . S
C305 C304 1.386 . S
C305 C309 1.383 . S
C306 C304 1.383 . S
C306 C307 1.402 . S
C306 H321 0.951 . S
C307 C306 1.402 . S
C307 C308 1.375 . S
C307 C310 1.481 1_455 S
C308 C307 1.375 . S
C308 C309 1.367 . S
C308 H322 0.951 . S
C309 C305 1.383 . S
C309 C308 1.367 . S
C309 H323 0.950 . S
C310 C307 1.481 1_655 S
C310 C311 1.297 . S
C310 H324 0.950 . S
C311 C310 1.297 . S
C311 C312 1.479 . S
C311 H325 0.950 . S
C312 C311 1.479 . S
C312 C313 1.375 . S
C312 C318 1.404 . S
C313 C312 1.375 . S
C313 C314 1.369 . S
C313 H326 0.950 . S
C314 C313 1.369 . S
C314 C315 1.392 . S
C314 H327 0.951 . S
C315 C314 1.392 . S
C315 C317 1.384 . S
H316 C318 0.949 . S
C317 C315 1.384 . S
C317 C318 1.385 . S
C317 H319 0.950 . S
C318 C312 1.404 . S
C318 H316 0.949 . S
C318 C317 1.385 . S
H319 C317 0.950 . S
H320 C304 0.951 . S
H321 C306 0.951 . S
H322 C308 0.951 . S
H323 C309 0.950 . S
H324 C310 0.950 . S
H325 C311 0.950 . S
H326 C313 0.950 . S
H327 C314 0.951 . S
C328 C329 1.386 . S
C328 C330 1.383 1_554 S
C328 H344 0.951 . S
C329 C328 1.386 . S
C329 C333 1.383 . S
C330 C328 1.383 1_556 S
C330 C331 1.402 . S
C330 H345 0.951 . S
C331 C330 1.402 . S
C331 C332 1.375 . S
C331 C334 1.481 . S
C332 C331 1.375 . S
C332 C333 1.367 1_556 S
C332 H346 0.951 . S
C333 C329 1.383 . S
C333 C332 1.367 1_554 S
C333 H347 0.950 . S
C334 C331 1.481 . S
C334 C335 1.297 . S
C334 H348 0.950 . S
C335 C334 1.297 . S
C335 C336 1.479 . S
C335 H349 0.950 . S
C336 C335 1.479 . S
C336 C337 1.375 . S
C336 C342 1.404 . S
C337 C336 1.375 . S
C337 C338 1.369 . S
C337 H350 0.950 . S
C338 C337 1.369 . S
C338 C339 1.392 . S
C338 H351 0.951 . S
C339 C338 1.392 . S
C339 C341 1.384 . S
H340 C342 0.949 . S
C341 C339 1.384 . S
C341 C342 1.385 . S
C341 H343 0.950 . S
C342 C336 1.404 . S
C342 H340 0.949 . S
C342 C341 1.385 . S
H343 C341 0.950 . S
H344 C328 0.951 . S
H345 C330 0.951 . S
H346 C332 0.951 . S
H347 C333 0.950 . S
H348 C334 0.950 . S
H349 C335 0.950 . S
H350 C337 0.950 . S
H351 C338 0.951 . S
C352 C353 1.386 . S
C352 C354 1.383 . S
C352 H368 0.951 . S
C353 C352 1.386 . S
C353 C357 1.383 . S
C354 C352 1.383 . S
C354 C355 1.402 . S
C354 H369 0.951 . S
C355 C354 1.402 . S
C355 C356 1.375 . S
C355 C358 1.481 . S
C356 C355 1.375 . S
C356 C357 1.367 . S
C356 H370 0.951 . S
C357 C353 1.383 . S
C357 C356 1.367 . S
C357 H371 0.950 . S
C358 C355 1.481 . S
C358 C359 1.297 . S
C358 H372 0.950 . S
C359 C358 1.297 . S
C359 C360 1.479 . S
C359 H373 0.950 . S
C360 C359 1.479 . S
C360 C361 1.375 . S
C360 C366 1.404 . S
C361 C360 1.375 . S
C361 C362 1.369 . S
C361 H374 0.950 . S
C362 C361 1.369 . S
C362 C363 1.392 . S
C362 H375 0.951 . S
C363 C362 1.392 . S
C363 C365 1.384 . S
H364 C366 0.949 . S
C365 C363 1.384 . S
C365 C366 1.385 . S
C365 H367 0.950 . S
C366 C360 1.404 . S
C366 H364 0.949 . S
C366 C365 1.385 . S
H367 C365 0.950 . S
H368 C352 0.951 . S
H369 C354 0.951 . S
H370 C356 0.951 . S
H371 C357 0.950 . S
H372 C358 0.950 . S
H373 C359 0.950 . S
H374 C361 0.950 . S
H375 C362 0.951 . S
C376 C377 1.386 1_554 S
C376 C378 1.383 . S
C376 H392 0.951 . S
C377 C376 1.386 1_556 S
C377 C381 1.383 . S
C378 C376 1.383 . S
C378 C379 1.402 . S
C378 H393 0.951 . S
C379 C378 1.402 . S
C379 C380 1.375 1_554 S
C379 C382 1.481 . S
C380 C379 1.375 1_556 S
C380 C381 1.367 . S
C380 H394 0.951 . S
C381 C377 1.383 . S
C381 C380 1.367 . S
C381 H395 0.950 . S
C382 C379 1.481 . S
C382 C383 1.297 . S
C382 H396 0.950 . S
C383 C382 1.297 . S
C383 C384 1.479 . S
C383 H397 0.950 . S
C384 C383 1.479 . S
C384 C385 1.375 . S
C384 C390 1.404 . S
C385 C384 1.375 . S
C385 C386 1.369 . S
C385 H398 0.950 . S
C386 C385 1.369 . S
C386 C387 1.392 . S
C386 H399 0.951 . S
C387 C386 1.392 . S
C387 C389 1.384 . S
H388 C390 0.949 . S
C389 C387 1.384 . S
C389 C390 1.385 . S
C389 H391 0.950 . S
C390 C384 1.404 . S
C390 H388 0.949 . S
C390 C389 1.385 . S
H391 C389 0.950 . S
H392 C376 0.951 . S
H393 C378 0.951 . S
H394 C380 0.951 . S
H395 C381 0.950 . S
H396 C382 0.950 . S
H397 C383 0.950 . S
H398 C385 0.950 . S
H399 C386 0.951 . S
C400 C401 1.386 . S
C400 C402 1.383 . S
C400 H416 0.951 . S
C401 C400 1.386 . S
C401 C405 1.383 . S
C402 C400 1.383 . S
C402 C403 1.402 . S
C402 H417 0.951 . S
C403 C402 1.402 . S
C403 C404 1.375 . S
C403 C406 1.481 . S
C404 C403 1.375 . S
C404 C405 1.367 . S
C404 H418 0.951 . S
C405 C401 1.383 . S
C405 C404 1.367 . S
C405 H419 0.950 . S
C406 C403 1.481 . S
C406 C407 1.297 . S
C406 H420 0.950 . S
C407 C406 1.297 . S
C407 C408 1.479 . S
C407 H421 0.950 . S
C408 C407 1.479 . S
C408 C409 1.375 . S
C408 C414 1.404 . S
C409 C408 1.375 . S
C409 C410 1.369 . S
C409 H422 0.950 . S
C410 C409 1.369 . S
C410 C411 1.392 . S
C410 H423 0.951 . S
C411 C410 1.392 . S
C411 C413 1.384 . S
H412 C414 0.949 . S
C413 C411 1.384 . S
C413 C414 1.385 . S
C413 H415 0.950 . S
C414 C408 1.404 . S
C414 H412 0.949 . S
C414 C413 1.385 . S
H415 C413 0.950 . S
H416 C400 0.951 . S
H417 C402 0.951 . S
H418 C404 0.951 . S
H419 C405 0.950 . S
H420 C406 0.950 . S
H421 C407 0.950 . S
H422 C409 0.950 . S
H423 C410 0.951 . S
C424 C425 1.386 . S
C424 C426 1.383 . S
C424 H440 0.951 . S
C425 C424 1.386 . S
C425 C429 1.383 . S
C426 C424 1.383 . S
C426 C427 1.402 . S
C426 H441 0.947 . S
C427 C426 1.402 . S
C427 C428 1.375 . S
C427 C430 1.481 1_554 S
C428 C427 1.375 . S
C428 C429 1.367 . S
C428 H442 0.951 . S
C429 C425 1.383 . S
C429 C428 1.367 . S
C429 H443 0.950 . S
C430 C427 1.481 1_556 S
C430 C431 1.297 1_545 S
C430 H444 0.950 . S
C431 C430 1.297 1_565 S
C431 C432 1.479 . S
C431 H445 0.950 . S
C432 C431 1.479 . S
C432 C433 1.375 . S
C432 C438 1.404 . S
C433 C432 1.375 . S
C433 C434 1.369 . S
C433 H446 0.950 . S
C434 C433 1.369 . S
C434 C435 1.392 . S
C434 H447 0.951 . S
C435 C434 1.392 . S
C435 C437 1.384 . S
H436 C438 0.949 1_545 S
C437 C435 1.384 . S
C437 C438 1.385 . S
C437 H439 0.950 . S
C438 C432 1.404 . S
C438 H436 0.949 1_565 S
C438 C437 1.385 . S
H439 C437 0.950 . S
H440 C424 0.951 . S
H441 C426 0.947 . S
H442 C428 0.951 . S
H443 C429 0.950 . S
H444 C430 0.950 . S
H445 C431 0.950 . S
H446 C433 0.950 . S
H447 C434 0.951 . S
C448 C449 1.386 . S
C448 C450 1.383 . S
C448 H464 0.951 . S
C449 C448 1.386 . S
C449 C453 1.383 . S
C450 C448 1.383 . S
C450 C451 1.402 . S
C450 H465 0.951 . S
C451 C450 1.402 . S
C451 C452 1.375 . S
C451 C454 1.481 . S
C452 C451 1.375 . S
C452 C453 1.367 . S
C452 H466 0.951 . S
C453 C449 1.383 . S
C453 C452 1.367 . S
C453 H467 0.950 . S
C454 C451 1.481 . S
C454 C455 1.297 . S
C454 H468 0.950 . S
C455 C454 1.297 . S
C455 C456 1.479 . S
C455 H469 0.950 . S
C456 C455 1.479 . S
C456 C457 1.375 . S
C456 C462 1.404 . S
C457 C456 1.375 . S
C457 C458 1.369 . S
C457 H470 0.950 . S
C458 C457 1.369 . S
C458 C459 1.392 . S
C458 H471 0.951 . S
C459 C458 1.392 . S
C459 C461 1.384 . S
H460 C462 0.949 . S
C461 C459 1.384 . S
C461 C462 1.385 . S
C461 H463 0.950 . S
C462 C456 1.404 . S
C462 H460 0.949 . S
C462 C461 1.385 . S
H463 C461 0.950 . S
H464 C448 0.951 . S
H465 C450 0.951 . S
H466 C452 0.951 . S
H467 C453 0.950 . S
H468 C454 0.950 . S
H469 C455 0.950 . S
H470 C457 0.950 . S
H471 C458 0.951 . S
C137 C28 1.025 . S
C147 C6 1.053 1_655 S
C161 C40 1.025 . S
C171 C62 1.057 1_455 S
C185 C74 1.020 1_455 S
C195 C96 1.010 . S
C209 C108 1.023 1_655 S
C219 C130 1.010 . S
C233 C15 1.858 . S
C243 C83 1.865 . S
C257 C117 1.869 . S
C267 C56 1.843 . S
C281 C69 1.938 . S
C291 C1 1.999 . S
C305 C103 1.951 . S
C315 C37 1.912 . S
C329 C22 1.538 . S
C339 C119 1.744 . S
C353 C49 1.604 . S
C363 C85 1.743 . S
C377 C90 1.539 . S
C387 C51 1.749 . S
C401 C124 1.590 . S
C411 C17 1.748 . S
C425 C3 1.400 . S
C435 C71 1.471 . S
C449 C105 1.434 . S
C459 C35 1.434 . S
