# Generated by pormake.
# Topology umw, (4)-cn, num edge types: 1
# Building blocks:
#     Node 0, Type 0, BuildingBlock: QUQFOY_clean_sbu_1, # of connection points: 4
#     Node 1, Type 0, BuildingBlock: QUQFOY_clean_sbu_1, # of connection points: 4
#     Node 2, Type 0, BuildingBlock: QUQFOY_clean_sbu_1, # of connection points: 4
#     Node 3, Type 0, BuildingBlock: QUQFOY_clean_sbu_1, # of connection points: 4
#     Node 4, Type 0, BuildingBlock: QUQFOY_clean_sbu_1, # of connection points: 4
#     Node 5, Type 0, BuildingBlock: QUQFOY_clean_sbu_1, # of connection points: 4
#     Node 6, Type 0, BuildingBlock: QUQFOY_clean_sbu_1, # of connection points: 4
#     Node 7, Type 0, BuildingBlock: QUQFOY_clean_sbu_1, # of connection points: 4
#     Edge 8, Type (0, 0), BuildingBlock: FUNLAD_clean_linker_1, # of connection points: 2
#     Edge 9, Type (0, 0), BuildingBlock: FUNLAD_clean_linker_1, # of connection points: 2
#     Edge 10, Type (0, 0), BuildingBlock: FUNLAD_clean_linker_1, # of connection points: 2
#     Edge 11, Type (0, 0), BuildingBlock: FUNLAD_clean_linker_1, # of connection points: 2
#     Edge 12, Type (0, 0), BuildingBlock: FUNLAD_clean_linker_1, # of connection points: 2
#     Edge 13, Type (0, 0), BuildingBlock: FUNLAD_clean_linker_1, # of connection points: 2
#     Edge 14, Type (0, 0), BuildingBlock: FUNLAD_clean_linker_1, # of connection points: 2
#     Edge 15, Type (0, 0), BuildingBlock: FUNLAD_clean_linker_1, # of connection points: 2
#     Edge 16, Type (0, 0), BuildingBlock: FUNLAD_clean_linker_1, # of connection points: 2
#     Edge 17, Type (0, 0), BuildingBlock: FUNLAD_clean_linker_1, # of connection points: 2
#     Edge 18, Type (0, 0), BuildingBlock: FUNLAD_clean_linker_1, # of connection points: 2
#     Edge 19, Type (0, 0), BuildingBlock: FUNLAD_clean_linker_1, # of connection points: 2
#     Edge 20, Type (0, 0), BuildingBlock: FUNLAD_clean_linker_1, # of connection points: 2
#     Edge 21, Type (0, 0), BuildingBlock: FUNLAD_clean_linker_1, # of connection points: 2
#     Edge 22, Type (0, 0), BuildingBlock: FUNLAD_clean_linker_1, # of connection points: 2
#     Edge 23, Type (0, 0), BuildingBlock: FUNLAD_clean_linker_1, # of connection points: 2
# Relax obj value: 0.049
# Max RMSD: 0.094
# Mean RMSD: 0.094
data_MOF--net-umw--node1-QUQFOY_clean_sbu_1--edge1-FUNLAD_clean_linker_1
_symmetry_space_group_name_H-M    P1
_symmetry_Int_Tables_number       1
_symmetry_cell_setting            triclinic
loop_
_symmetry_equiv_pos_as_xyz
'x, y, z'
_cell_length_a     44.813175
_cell_length_b     44.599131
_cell_length_c     28.643916
_cell_angle_alpha  90.169353
_cell_angle_beta   90.334077
_cell_angle_gamma 90.602821
loop_
_atom_site_label
_atom_site_type_symbol
_atom_site_fract_x
_atom_site_fract_y
_atom_site_fract_z
_atom_type_partial_charge
O0 O 0.40424 0.16706 0.40092 0.0
Cd1 Cd 0.37926 0.16675 0.34057 0.0
Cd2 Cd 0.43731 0.16155 0.30514 0.0
O3 O 0.44888 0.17633 0.37164 0.0
O4 O 0.33847 0.17321 0.36562 0.0
O5 O 0.36219 0.20685 0.32259 0.0
C6 C 0.33935 0.19951 0.34751 0.0
C7 C 0.46156 0.17944 0.23842 0.0
C8 C 0.43158 0.17383 0.40651 0.0
C9 C 0.3949 0.10877 0.29707 0.0
O10 O 0.42189 0.11782 0.29898 0.0
O11 O 0.37372 0.12644 0.30631 0.0
O12 O 0.4748 0.16218 0.26775 0.0
O13 O 0.43478 0.18793 0.24791 0.0
O14 O 0.83198 0.41654 0.67775 0.0
Cd15 Cd 0.83155 0.38437 0.62706 0.0
Cd16 Cd 0.83519 0.43668 0.57118 0.0
O17 O 0.81982 0.45502 0.63343 0.0
O18 O 0.81839 0.34822 0.66215 0.0
O19 O 0.7917 0.36827 0.60519 0.0
C20 C 0.79408 0.34858 0.63792 0.0
C21 C 0.82074 0.46045 0.50183 0.0
C22 C 0.82362 0.44341 0.67348 0.0
C23 C 0.88848 0.39368 0.57947 0.0
O24 O 0.87815 0.4192 0.5683 0.0
O25 O 0.87234 0.37441 0.60015 0.0
O26 O 0.83935 0.47274 0.53051 0.0
O27 O 0.8094 0.43469 0.51277 0.0
O28 O 0.58672 0.81196 0.90436 0.0
Cd29 Cd 0.61416 0.82176 0.84916 0.0
Cd30 Cd 0.55681 0.82937 0.81066 0.0
O31 O 0.54155 0.81198 0.87314 0.0
O32 O 0.65272 0.8148 0.88165 0.0
O33 O 0.63752 0.78749 0.82147 0.0
C34 C 0.65673 0.79225 0.85446 0.0
C35 C 0.54339 0.81009 0.73759 0.0
C36 C 0.55879 0.80803 0.90796 0.0
C37 C 0.59744 0.88343 0.81774 0.0
O38 O 0.57096 0.87355 0.81175 0.0
O39 O 0.61848 0.8659 0.82867 0.0
O40 O 0.52503 0.82593 0.76165 0.0
O41 O 0.56903 0.80402 0.75597 0.0
O42 O 0.16017 0.59269 0.16708 0.0
Cd43 Cd 0.15936 0.61363 0.10292 0.0
Cd44 Cd 0.1629 0.55611 0.07841 0.0
O45 O 0.17858 0.54914 0.14537 0.0
O46 O 0.16246 0.65664 0.12124 0.0
O47 O 0.19854 0.63262 0.08476 0.0
C48 C 0.18928 0.65649 0.10558 0.0
C49 C 0.18645 0.54181 1.00971 0.0
C50 C 0.17146 0.56755 0.17736 0.0
C51 C 0.10545 0.58702 0.06232 0.0
O52 O 0.11758 0.56236 0.07286 0.0
O53 O 0.12041 0.61133 0.06382 0.0
O54 O 0.17191 0.52253 0.0346 0.0
O55 O 0.18924 0.56892 0.02536 0.0
O56 O 0.42401 0.80558 0.22242 0.0
Cd57 Cd 0.39451 0.81818 0.27291 0.0
Cd58 Cd 0.4506 0.82276 0.32088 0.0
O59 O 0.46756 0.80561 0.25914 0.0
O60 O 0.3567 0.81213 0.23721 0.0
O61 O 0.36835 0.78512 0.29905 0.0
C62 C 0.35058 0.79002 0.26436 0.0
C63 C 0.4628 0.80426 0.39477 0.0
C64 C 0.45189 0.80123 0.22251 0.0
C65 C 0.4143 0.87901 0.30747 0.0
O66 O 0.43867 0.86722 0.32029 0.0
O67 O 0.39315 0.86316 0.2903 0.0
O68 O 0.48171 0.81983 0.3709 0.0
O69 O 0.43737 0.79773 0.37561 0.0
O70 O 0.19553 0.43892 0.49169 0.0
Cd71 Cd 0.18337 0.40221 0.53017 0.0
Cd72 Cd 0.16486 0.45418 0.5901 0.0
O73 O 0.17928 0.4779 0.53196 0.0
O74 O 0.19407 0.37056 0.48419 0.0
O75 O 0.21644 0.37496 0.55263 0.0
C76 C 0.21434 0.36169 0.51269 0.0
C77 C 0.17427 0.47353 0.66521 0.0
C78 C 0.19165 0.46688 0.49599 0.0
C79 C 0.11861 0.40716 0.55978 0.0
O80 O 0.12519 0.43069 0.58298 0.0
O81 O 0.13829 0.39308 0.53704 0.0
O82 O 0.15455 0.48503 0.638 0.0
O83 O 0.18956 0.4513 0.64958 0.0
O84 O 0.57107 0.17977 0.72449 0.0
Cd85 Cd 0.597 0.17146 0.78227 0.0
Cd86 Cd 0.53763 0.17097 0.8212 0.0
O87 O 0.52674 0.18745 0.75574 0.0
O88 O 0.63772 0.173 0.7547 0.0
O89 O 0.62191 0.20666 0.80538 0.0
C90 C 0.64238 0.1975 0.77736 0.0
C91 C 0.51532 0.18861 0.88963 0.0
C92 C 0.54389 0.18702 0.72048 0.0
C93 C 0.57304 0.11361 0.82087 0.0
O94 O 0.54785 0.12611 0.82453 0.0
O95 O 0.5961 0.1285 0.80896 0.0
O96 O 0.50033 0.17368 0.85877 0.0
O97 O 0.54284 0.19522 0.88066 0.0
O98 O 0.81334 0.56861 0.98716 0.0
Cd99 Cd 0.81843 0.59791 0.04246 0.0
Cd100 Cd 0.81669 0.54229 0.08471 0.0
O101 O 0.79142 0.53221 0.02612 0.0
O102 O 0.81611 0.63643 1.00804 0.0
O103 O 0.78287 0.62255 0.06073 0.0
C104 C 0.79143 0.64141 0.02932 0.0
C105 C 0.80413 0.52042 0.15609 0.0
C106 C 0.79794 0.54459 0.98769 0.0
C107 C 0.87439 0.57648 0.07972 0.0
O108 O 0.86213 0.55071 0.07657 0.0
O109 O 0.85896 0.60001 0.0761 0.0
O110 O 0.81524 0.50489 0.12263 0.0
O111 O 0.79909 0.5485 0.14878 0.0
H112 H 0.42667 0.17438 0.4827 0.0
C113 C 0.44262 0.17781 0.45466 0.0
H114 H 0.48744 0.18871 0.43851 0.0
H115 H 0.50733 0.24803 0.63977 0.0
H116 H 0.5087 0.29218 0.5903 0.0
H117 H 0.49709 0.28832 0.50617 0.0
H118 H 0.48413 0.24031 0.47089 0.0
C119 C 0.47111 0.1843 0.46559 0.0
C120 C 0.4805 0.18624 0.51547 0.0
C121 C 0.48832 0.2144 0.53535 0.0
C122 C 0.49512 0.21662 0.58384 0.0
C123 C 0.50237 0.24507 0.60301 0.0
C124 C 0.5031 0.27059 0.57507 0.0
C125 C 0.49654 0.26842 0.52769 0.0
C126 C 0.48915 0.24073 0.50789 0.0
H127 H 0.5488 0.19497 0.64527 0.0
C128 C 0.5325 0.193 0.67314 0.0
H129 H 0.48671 0.18823 0.68883 0.0
H130 H 0.47026 0.12816 0.48737 0.0
H131 H 0.469 0.08417 0.53679 0.0
H132 H 0.47886 0.08835 0.62138 0.0
H133 H 0.49027 0.13656 0.65695 0.0
C134 C 0.5034 0.19221 0.66212 0.0
C135 C 0.49419 0.19065 0.61221 0.0
C136 C 0.48658 0.16245 0.59228 0.0
C137 C 0.48022 0.16014 0.54372 0.0
C138 C 0.47423 0.13142 0.52432 0.0
C139 C 0.47369 0.1059 0.55224 0.0
C140 C 0.4793 0.10825 0.59983 0.0
C141 C 0.48579 0.13609 0.61979 0.0
H142 H 0.83291 0.45491 0.74625 0.0
C143 C 0.81912 0.46075 0.71631 0.0
H144 H 0.78259 0.48611 0.69237 0.0
H145 H 0.8021 0.47597 0.92655 0.0
H146 H 0.79101 0.42324 0.9164 0.0
H147 H 0.77736 0.40278 0.83893 0.0
H148 H 0.77634 0.43513 0.77076 0.0
C149 C 0.79694 0.48043 0.72167 0.0
C150 C 0.79204 0.49448 0.76829 0.0
C151 C 0.78904 0.47611 0.80839 0.0
C152 C 0.79387 0.48849 0.85359 0.0
C153 C 0.79578 0.46857 0.89197 0.0
C154 C 0.78989 0.43801 0.88652 0.0
C155 C 0.78241 0.42645 0.8429 0.0
C156 C 0.78211 0.44516 0.80411 0.0
H157 H 0.76884 0.51628 0.94272 0.0
C158 C 0.7887 0.53047 0.94336 0.0
H159 H 0.82531 0.54795 0.90634 0.0
H160 H 0.79338 0.53652 0.6989 0.0
H161 H 0.79683 0.59046 0.70911 0.0
H162 H 0.79936 0.61289 0.78789 0.0
H163 H 0.79904 0.58151 0.85688 0.0
C164 C 0.80547 0.53371 0.90493 0.0
C165 C 0.79773 0.52001 0.85887 0.0
C166 C 0.7965 0.5388 0.81892 0.0
C167 C 0.79418 0.52597 0.77351 0.0
C168 C 0.79474 0.54512 0.73419 0.0
C169 C 0.79665 0.57614 0.73955 0.0
C170 C 0.79812 0.58876 0.7839 0.0
C171 C 0.79806 0.57045 0.82322 0.0
H172 H 0.4506 0.78365 0.15105 0.0
C173 C 0.46542 0.79301 0.17771 0.0
H174 H 0.50723 0.81369 0.1903 0.0
H175 H 0.51922 0.74662 0.98126 0.0
H176 H 0.52124 0.70006 0.02488 0.0
H177 H 0.51446 0.69979 0.11032 0.0
H178 H 0.50546 0.74609 0.15264 0.0
C179 C 0.49293 0.80183 0.16547 0.0
C180 C 0.50092 0.80214 0.11513 0.0
C181 C 0.50674 0.77502 0.0911 0.0
C182 C 0.51136 0.77528 0.04201 0.0
C183 C 0.51632 0.74777 0.01869 0.0
C184 C 0.51736 0.72088 0.04327 0.0
C185 C 0.51347 0.72072 0.09136 0.0
C186 C 0.5082 0.74741 0.11519 0.0
H187 H 0.56356 0.79466 0.98118 0.0
C188 C 0.54724 0.80042 0.95447 0.0
H189 H 0.50227 0.81152 0.94167 0.0
H190 H 0.48996 0.8581 0.15052 0.0
H191 H 0.48838 0.90462 0.10708 0.0
H192 H 0.49727 0.9052 0.02218 0.0
H193 H 0.50752 0.85923 0.98015 0.0
C194 C 0.51869 0.80382 0.96687 0.0
C195 C 0.5107 0.80276 0.01722 0.0
C196 C 0.50478 0.82987 0.04125 0.0
C197 C 0.49999 0.82957 0.09027 0.0
C198 C 0.49396 0.85699 0.11335 0.0
C199 C 0.493 0.88389 0.08884 0.0
C200 C 0.49798 0.88422 0.04105 0.0
C201 C 0.50385 0.85763 0.01735 0.0
H202 H 0.21527 0.47661 0.431 0.0
C203 C 0.19896 0.48548 0.45528 0.0
H204 H 0.16306 0.51514 0.46315 0.0
H205 H 0.23342 0.55883 0.26784 0.0
H206 H 0.27202 0.57858 0.31965 0.0
H207 H 0.2693 0.57045 0.40471 0.0
H208 H 0.22796 0.54244 0.43851 0.0
C209 C 0.18139 0.50789 0.44128 0.0
C210 C 0.18131 0.51648 0.39111 0.0
C211 C 0.20529 0.53329 0.37206 0.0
C212 C 0.20656 0.53842 0.32311 0.0
C213 C 0.23109 0.55475 0.30486 0.0
C214 C 0.25344 0.5661 0.33418 0.0
C215 C 0.25194 0.56147 0.38207 0.0
C216 C 0.22819 0.54527 0.401 0.0
H217 H 0.16968 0.5776 0.25244 0.0
C218 C 0.17534 0.56035 0.22715 0.0
H219 H 0.1885 0.51533 0.21826 0.0
H220 H 0.13194 0.48354 0.41633 0.0
H221 H 0.09324 0.46428 0.36463 0.0
H222 H 0.09531 0.47355 0.27984 0.0
H223 H 0.13623 0.50204 0.24624 0.0
C224 C 0.18397 0.53345 0.24256 0.0
C225 C 0.18367 0.52697 0.29345 0.0
C226 C 0.15957 0.51037 0.31254 0.0
C227 C 0.15829 0.50523 0.36144 0.0
C228 C 0.13402 0.48833 0.37949 0.0
C229 C 0.11161 0.47711 0.35019 0.0
C230 C 0.11278 0.48231 0.30246 0.0
C231 C 0.13641 0.49872 0.28365 0.0
H232 H 0.29403 0.21224 0.36792 0.0
C233 C 0.31609 0.22105 0.35975 0.0
H234 H 0.34525 0.25844 0.36416 0.0
H235 H 0.24471 0.35596 0.38572 0.0
H236 H 0.26573 0.36935 0.31085 0.0
H237 H 0.30278 0.337 0.27285 0.0
H238 H 0.31926 0.29119 0.30987 0.0
C239 C 0.32297 0.2496 0.37064 0.0
C240 C 0.30101 0.26933 0.39427 0.0
C241 C 0.29129 0.29578 0.37192 0.0
C242 C 0.26942 0.31405 0.39339 0.0
C243 C 0.26071 0.34079 0.37066 0.0
C244 C 0.27271 0.34886 0.32768 0.0
C245 C 0.2936 0.33068 0.30633 0.0
C246 C 0.30287 0.30444 0.328 0.0
H247 H 0.25556 0.33516 0.51988 0.0
C248 C 0.23592 0.33873 0.49825 0.0
H249 H 0.21339 0.32837 0.43534 0.0
H250 H 0.31963 0.22404 0.45203 0.0
H251 H 0.2974 0.20942 0.5255 0.0
H252 H 0.25502 0.23736 0.5579 0.0
H253 H 0.23534 0.28065 0.51775 0.0
C254 C 0.23275 0.32414 0.45727 0.0
C255 C 0.25683 0.3055 0.43685 0.0
C256 C 0.26674 0.27912 0.45944 0.0
C257 C 0.2897 0.26171 0.43903 0.0
C258 C 0.30099 0.237 0.46435 0.0
C259 C 0.28862 0.22851 0.50686 0.0
C260 C 0.26488 0.24434 0.52522 0.0
C261 C 0.25395 0.26934 0.50194 0.0
H262 H 0.74761 0.33186 0.63179 0.0
C263 C 0.76868 0.32883 0.65007 0.0
H264 H 0.79121 0.30714 0.70506 0.0
H265 H 0.68397 0.27805 0.83492 0.0
H266 H 0.7118 0.31483 0.88061 0.0
H267 H 0.75394 0.3429 0.84618 0.0
H268 H 0.76878 0.3341 0.76618 0.0
C269 C 0.7704 0.30934 0.68575 0.0
C270 C 0.74359 0.29367 0.7048 0.0
C271 C 0.73483 0.29951 0.75151 0.0
C272 C 0.71009 0.28385 0.7711 0.0
C273 C 0.70234 0.28959 0.81813 0.0
C274 C 0.71813 0.31064 0.84478 0.0
C275 C 0.74188 0.3264 0.82542 0.0
C276 C 0.75024 0.32101 0.77942 0.0
H277 H 0.68862 0.2036 0.75395 0.0
C278 C 0.66932 0.21537 0.7673 0.0
H279 H 0.64922 0.25752 0.77699 0.0
H280 H 0.75582 0.27476 0.61569 0.0
H281 H 0.72528 0.24153 0.56792 0.0
H282 H 0.6788 0.2193 0.59876 0.0
H283 H 0.66318 0.22941 0.67799 0.0
C284 C 0.6687 0.24542 0.76507 0.0
C285 C 0.69375 0.2628 0.74375 0.0
C286 C 0.70143 0.25827 0.69616 0.0
C287 C 0.72706 0.2728 0.67725 0.0
C288 C 0.73569 0.26571 0.63105 0.0
C289 C 0.71847 0.24646 0.6033 0.0
C290 C 0.69241 0.23382 0.62073 0.0
C291 C 0.68386 0.23959 0.66653 0.0
H292 H 0.75261 0.67133 0.03576 0.0
C293 C 0.77223 0.66642 1.01507 0.0
H294 H 0.79633 0.67594 0.95353 0.0
H295 H 0.65884 0.72447 0.9089 0.0
H296 H 0.64339 0.67258 0.91588 0.0
H297 H 0.67946 0.63372 0.93831 0.0
H298 H 0.73095 0.64679 0.95532 0.0
C299 C 0.77678 0.68077 0.97441 0.0
C300 C 0.75567 0.70343 0.95598 0.0
C301 C 0.72608 0.69502 0.9432 0.0
C302 C 0.7058 0.71709 0.92711 0.0
C303 C 0.6757 0.7085 0.91865 0.0
C304 C 0.66641 0.67874 0.9229 0.0
C305 C 0.68667 0.6569 0.93576 0.0
C306 C 0.71616 0.66479 0.94582 0.0
H307 H 0.68498 0.753 0.83907 0.0
C308 C 0.68075 0.77077 0.86414 0.0
H309 H 0.69035 0.78852 0.93111 0.0
H310 H 0.81108 0.7268 0.97583 0.0
H311 H 0.82754 0.77818 0.96403 0.0
H312 H 0.79328 0.81581 0.93155 0.0
H313 H 0.7423 0.80232 0.91093 0.0
C314 C 0.69461 0.77079 0.90597 0.0
C315 C 0.7158 0.74712 0.92061 0.0
C316 C 0.74569 0.75522 0.93169 0.0
C317 C 0.76558 0.73342 0.94966 0.0
C318 C 0.79513 0.74234 0.96143 0.0
C319 C 0.80486 0.77179 0.95494 0.0
C320 C 0.78557 0.79298 0.93672 0.0
C321 C 0.75632 0.78494 0.92516 0.0
H322 H 0.19935 0.70331 0.12479 0.0
C323 C 0.20936 0.68179 0.11687 0.0
H324 H 0.24844 0.65583 0.12077 0.0
H325 H 0.33821 0.76593 0.13846 0.0
H326 H 0.35008 0.74771 0.06114 0.0
H327 H 0.31922 0.70838 0.02329 0.0
H328 H 0.2764 0.68683 0.06288 0.0
C329 C 0.23827 0.67747 0.12709 0.0
C330 C 0.25668 0.70134 0.15015 0.0
C331 C 0.28133 0.71401 0.12635 0.0
C332 C 0.29871 0.73713 0.14786 0.0
C333 C 0.32373 0.74882 0.12357 0.0
C334 C 0.33092 0.73846 0.07915 0.0
C335 C 0.31358 0.71629 0.05787 0.0
C336 C 0.28907 0.70411 0.08101 0.0
H337 H 0.32465 0.7479 0.27192 0.0
C338 C 0.3263 0.76869 0.25237 0.0
H339 H 0.31163 0.79312 0.19382 0.0
H340 H 0.21442 0.67808 0.20941 0.0
H341 H 0.2015 0.69719 0.28581 0.0
H342 H 0.22831 0.74075 0.31968 0.0
H343 H 0.26874 0.76491 0.27779 0.0
C344 C 0.3092 0.7727 0.21413 0.0
C345 C 0.29113 0.74788 0.19298 0.0
C346 C 0.2665 0.73511 0.21691 0.0
C347 C 0.24986 0.71116 0.19611 0.0
C348 C 0.22681 0.69734 0.22231 0.0
C349 C 0.21931 0.70793 0.26646 0.0
C350 C 0.23449 0.73236 0.28561 0.0
C351 C 0.2578 0.74589 0.26129 0.0
H352 H 0.42906 0.92405 0.32973 0.0
C353 C 0.4117 0.91183 0.3107 0.0
H354 H 0.37408 0.91557 0.26627 0.0
H355 H 0.39244 0.04899 0.37203 0.0
H356 H 0.3746 0.02368 0.44134 0.0
H357 H 0.36359 0.96937 0.44024 0.0
H358 H 0.37077 0.93999 0.36978 0.0
C359 C 0.39059 0.92718 0.28781 0.0
C360 C 0.39209 0.9605 0.28636 0.0
C361 C 0.38664 0.97753 0.32721 0.0
C362 C 0.392 0.00901 0.32732 0.0
C363 C 0.38788 0.0252 0.3694 0.0
C364 C 0.37777 0.01091 0.40959 0.0
C365 C 0.37165 0.98032 0.40901 0.0
C366 C 0.37601 0.96371 0.36842 0.0
H367 H 0.36457 0.06981 0.28818 0.0
C368 C 0.38788 0.07683 0.28869 0.0
H369 H 0.43272 0.06252 0.28696 0.0
H370 H 0.40291 0.93462 0.20136 0.0
H371 H 0.41915 0.96015 0.13111 0.0
H372 H 0.42733 0.01495 0.1308 0.0
H373 H 0.41944 0.04456 0.20087 0.0
C374 C 0.40928 0.05603 0.28671 0.0
C375 C 0.40188 0.02348 0.28603 0.0
C376 C 0.40614 0.00661 0.24469 0.0
C377 C 0.40118 0.97507 0.2448 0.0
C378 C 0.40616 0.95867 0.20319 0.0
C379 C 0.41549 0.97304 0.16261 0.0
C380 C 0.42012 0.00389 0.16244 0.0
C381 C 0.41554 0.0206 0.20289 0.0
H382 H 0.93069 0.3727 0.59989 0.0
C383 C 0.92065 0.388 0.57502 0.0
H384 H 0.92768 0.4185 0.52037 0.0
H385 H 0.05516 0.46401 0.57752 0.0
H386 H 0.02646 0.50952 0.57382 0.0
H387 H 0.97199 0.5076 0.5614 0.0
H388 H 0.94608 0.46029 0.55158 0.0
C389 C 0.93801 0.40336 0.54517 0.0
C390 C 0.97119 0.40416 0.55065 0.0
C391 C 0.98587 0.43219 0.55793 0.0
C392 C 0.01709 0.43325 0.56717 0.0
C393 C 0.03135 0.46165 0.57208 0.0
C394 C 0.01516 0.48808 0.5698 0.0
C395 C 0.98454 0.487 0.56267 0.0
C396 C 0.96995 0.45952 0.55687 0.0
H397 H 0.08076 0.38484 0.52392 0.0
C398 C 0.08703 0.3981 0.5544 0.0
H399 H 0.07235 0.42163 0.61351 0.0
H400 H 0.952 0.34755 0.52704 0.0
H401 H 0.98003 0.30157 0.53527 0.0
H402 H 0.03213 0.3028 0.56362 0.0
H403 H 0.05682 0.35 0.58208 0.0
C404 C 0.06585 0.40816 0.58336 0.0
C405 C 0.03344 0.40627 0.57132 0.0
C406 C 0.01878 0.37825 0.56403 0.0
C407 C 0.988 0.37733 0.55144 0.0
C408 C 0.97472 0.34933 0.53978 0.0
C409 C 0.99064 0.32281 0.5439 0.0
C410 C 0.02002 0.32352 0.5596 0.0
C411 C 0.03403 0.35083 0.56966 0.0
H412 H 0.62701 0.92336 0.8166 0.0
C413 C 0.60388 0.91582 0.81446 0.0
H414 H 0.55875 0.92915 0.81224 0.0
H415 H 0.59345 0.05394 0.9079 0.0
H416 H 0.57956 0.02594 0.97711 0.0
H417 H 0.56951 0.9715 0.97275 0.0
H418 H 0.5736 0.94469 0.89923 0.0
C419 C 0.58205 0.93614 0.81222 0.0
C420 C 0.58883 0.96874 0.81475 0.0
C421 C 0.58578 0.98412 0.85778 0.0
C422 C 0.59087 0.01559 0.86008 0.0
C423 C 0.58881 0.03022 0.90388 0.0
C424 C 0.5811 0.01437 0.94395 0.0
C425 C 0.5755 0.98371 0.94151 0.0
C426 C 0.57787 0.96862 0.89907 0.0
H427 H 0.55399 0.06916 0.83663 0.0
C428 C 0.57453 0.08093 0.82759 0.0
H429 H 0.61973 0.07634 0.80858 0.0
H430 H 0.59764 0.94566 0.72738 0.0
H431 H 0.61192 0.97349 0.6582 0.0
H432 H 0.61998 0.02826 0.6617 0.0
H433 H 0.61389 0.05551 0.73429 0.0
C434 C 0.59933 0.0651 0.81953 0.0
C435 C 0.59809 0.03173 0.81899 0.0
C436 C 0.60226 0.01613 0.7763 0.0
C437 C 0.59758 0.98457 0.7742 0.0
C438 C 0.60114 0.96959 0.73095 0.0
C439 C 0.60926 0.9853 0.69096 0.0
C440 C 0.61379 0.01614 0.69294 0.0
C441 C 0.61026 0.03151 0.73493 0.0
H442 H 0.91577 0.59581 0.10949 0.0
C443 C 0.90688 0.57932 0.08497 0.0
H444 H 0.91593 0.54813 0.03187 0.0
H445 H 0.03965 0.63071 0.08181 0.0
H446 H 0.01047 0.67448 0.06328 0.0
H447 H 0.95783 0.66933 0.03852 0.0
H448 H 0.9338 0.62045 0.03463 0.0
C449 C 0.92528 0.56395 0.05709 0.0
C450 C 0.95842 0.5668 0.0608 0.0
C451 C 0.97285 0.59526 0.05791 0.0
C452 C 0.004 0.59793 0.06714 0.0
C453 C 0.01681 0.62703 0.07084 0.0
C454 C 0.00017 0.65245 0.0609 0.0
C455 C 0.97049 0.64958 0.04733 0.0
C456 C 0.95688 0.62139 0.04579 0.0
H457 H 0.06517 0.60035 0.02285 0.0
C458 C 0.07328 0.58761 0.0525 0.0
H459 H 0.0631 0.56163 0.11142 0.0
H460 H 0.93813 0.50868 0.06831 0.0
H461 H 0.96827 0.46442 0.07761 0.0
H462 H 0.02311 0.46838 0.08275 0.0
H463 H 0.04804 0.51668 0.07966 0.0
C464 C 0.05422 0.57363 0.08148 0.0
C465 C 0.02137 0.57174 0.07312 0.0
C466 C 0.0072 0.54309 0.07277 0.0
C467 C 0.97566 0.54069 0.06782 0.0
C468 C 0.96204 0.5119 0.07043 0.0
C469 C 0.97908 0.48621 0.07594 0.0
C470 C 0.00993 0.48845 0.07897 0.0
C471 C 0.02394 0.51643 0.07739 0.0
H472 H 0.47789 0.18985 0.9389 0.0
C473 C 0.50152 0.19506 0.93523 0.0
H474 H 0.54115 0.20769 0.97096 0.0
H475 H 0.47121 0.25575 0.14956 0.0
H476 H 0.48752 0.30299 0.11568 0.0
H477 H 0.51115 0.3044 0.03811 0.0
H478 H 0.51876 0.25857 0.99391 0.0
C479 C 0.51746 0.20258 0.9735 0.0
C480 C 0.50359 0.20176 0.02084 0.0
C481 C 0.49922 0.22868 0.0462 0.0
C482 C 0.48539 0.22789 0.09088 0.0
C483 C 0.48146 0.25512 0.11545 0.0
C484 C 0.49072 0.28237 0.09641 0.0
C485 C 0.50404 0.28316 0.05273 0.0
C486 C 0.50828 0.25671 0.02774 0.0
H487 H 0.49891 0.17866 0.18891 0.0
C488 C 0.47631 0.1867 0.19379 0.0
H489 H 0.43941 0.20742 0.16128 0.0
H490 H 0.51231 0.14539 0.98498 0.0
H491 H 0.49458 0.0985 0.01755 0.0
H492 H 0.46688 0.09757 0.09169 0.0
H493 H 0.45737 0.14347 0.13416 0.0
C494 C 0.46199 0.19919 0.15746 0.0
C495 C 0.47597 0.20017 0.11023 0.0
C496 C 0.48007 0.17322 0.08462 0.0
C497 C 0.49463 0.17392 0.04059 0.0
C498 C 0.50016 0.14642 0.01743 0.0
C499 C 0.4903 0.11925 0.03592 0.0
C500 C 0.47482 0.11871 0.07774 0.0
C501 C 0.4697 0.14527 0.10194 0.0
H502 H 0.80224 0.48206 0.20402 0.0
C503 C 0.79941 0.50621 0.2019 0.0
H504 H 0.79257 0.5461 0.24023 0.0
H505 H 0.74395 0.48032 0.42134 0.0
H506 H 0.69921 0.50532 0.39413 0.0
H507 H 0.69829 0.53094 0.31793 0.0
H508 H 0.74213 0.53193 0.2685 0.0
C509 C 0.79551 0.52196 0.24142 0.0
C510 C 0.79622 0.50689 0.2879 0.0
C511 C 0.77036 0.5063 0.31619 0.0
C512 C 0.77079 0.49128 0.36001 0.0
C513 C 0.74475 0.49129 0.38772 0.0
C514 C 0.71894 0.50553 0.37251 0.0
C515 C 0.71843 0.51997 0.32959 0.0
C516 C 0.74374 0.52039 0.30158 0.0
H517 H 0.82596 0.49647 0.45029 0.0
C518 C 0.81463 0.47521 0.45683 0.0
H519 H 0.78632 0.44159 0.42803 0.0
H520 H 0.85139 0.50773 0.2464 0.0
H521 H 0.89535 0.48134 0.27237 0.0
H522 H 0.89456 0.45136 0.34458 0.0
H523 H 0.84994 0.44825 0.39178 0.0
C524 C 0.79818 0.46264 0.42252 0.0
C525 C 0.79705 0.47683 0.37546 0.0
C526 C 0.82282 0.47706 0.34689 0.0
C527 C 0.82273 0.49289 0.30385 0.0
C528 C 0.84957 0.49469 0.27802 0.0
C529 C 0.87514 0.47988 0.29278 0.0
C530 C 0.87473 0.46312 0.33353 0.0
C531 C 0.84899 0.46168 0.36043 0.0
H532 H 0.5541 0.7915 0.66804 0.0
C533 C 0.53648 0.80139 0.68874 0.0
H534 H 0.49302 0.81897 0.68863 0.0
H535 H 0.4899 0.86148 0.48097 0.0
H536 H 0.49184 0.90866 0.52296 0.0
H537 H 0.50072 0.90996 0.60799 0.0
H538 H 0.50749 0.86411 0.65156 0.0
C539 C 0.51029 0.80819 0.66829 0.0
C540 C 0.50594 0.80677 0.61657 0.0
C541 C 0.50239 0.83388 0.5914 0.0
C542 C 0.49791 0.83318 0.54218 0.0
C543 C 0.49393 0.86064 0.51821 0.0
C544 C 0.49489 0.88794 0.5419 0.0
C545 C 0.49983 0.88867 0.58977 0.0
C546 C 0.50358 0.86208 0.61438 0.0
H547 H 0.4511 0.78602 0.4642 0.0
C548 C 0.46883 0.79661 0.4442 0.0
H549 H 0.51138 0.81719 0.44636 0.0
H550 H 0.50917 0.7506 0.6543 0.0
H551 H 0.50841 0.70339 0.61195 0.0
H552 H 0.50335 0.70235 0.52615 0.0
H553 H 0.49857 0.7485 0.48217 0.0
C554 C 0.49415 0.80549 0.46595 0.0
C555 C 0.49727 0.8054 0.51789 0.0
C556 C 0.50077 0.77827 0.54299 0.0
C557 C 0.5047 0.77893 0.59245 0.0
C558 C 0.50703 0.75145 0.6167 0.0
C559 C 0.50648 0.72419 0.59283 0.0
C560 C 0.50355 0.7236 0.54452 0.0
C561 C 0.50073 0.75025 0.5197 0.0
H562 H 0.21594 0.54684 0.94831 0.0
C563 C 0.1977 0.53374 0.96293 0.0
H564 H 0.16511 0.50018 0.95155 0.0
H565 H 0.20582 0.53638 0.73445 0.0
H566 H 0.19523 0.58815 0.75397 0.0
H567 H 0.18036 0.60221 0.8338 0.0
H568 H 0.1773 0.56505 0.89477 0.0
C569 C 0.18354 0.51287 0.93658 0.0
C570 C 0.19197 0.50528 0.88742 0.0
C571 C 0.19138 0.52718 0.85141 0.0
C572 C 0.19722 0.51868 0.80433 0.0
C573 C 0.19945 0.54135 0.76998 0.0
C574 C 0.1937 0.57117 0.7808 0.0
C575 C 0.18553 0.57911 0.8258 0.0
C576 C 0.18423 0.55749 0.86075 0.0
H577 H 0.15964 0.4991 0.72639 0.0
C578 C 0.17735 0.48485 0.71356 0.0
H579 H 0.21786 0.46363 0.7297 0.0
H580 H 0.19829 0.45826 0.94772 0.0
H581 H 0.20646 0.40627 0.92713 0.0
H582 H 0.21133 0.39087 0.84481 0.0
H583 H 0.20856 0.42735 0.78266 0.0
C584 C 0.20023 0.47809 0.74215 0.0
C585 C 0.20044 0.48795 0.79231 0.0
C586 C 0.20179 0.46622 0.82833 0.0
C587 C 0.19805 0.47497 0.87583 0.0
C588 C 0.20016 0.45281 0.91103 0.0
C589 C 0.20499 0.42287 0.89974 0.0
C590 C 0.20779 0.41422 0.8534 0.0
C591 C 0.20619 0.43549 0.818 0.0
loop_
_geom_bond_atom_site_label_1
_geom_bond_atom_site_label_2
_geom_bond_distance
_geom_bond_site_symmetry_2
_ccdc_geom_bond_type
O0 Cd1 2.223 . S
O0 C8 1.315 . S
Cd1 O0 2.223 . S
Cd1 O4 2.297 . S
Cd1 O5 2.439 . S
Cd1 O11 2.240 . S
Cd2 O3 2.240 . S
Cd2 O10 2.223 . S
Cd2 O12 2.297 . S
Cd2 O13 2.439 . S
O3 Cd2 2.240 . S
O3 C8 1.279 . S
O4 Cd1 2.297 . S
O4 C6 1.247 . S
O5 Cd1 2.439 . S
O5 C6 1.208 . S
C6 O4 1.247 . S
C6 O5 1.208 . S
C7 O12 1.247 . S
C7 O13 1.208 . S
C8 O0 1.315 . S
C8 O3 1.279 . S
C9 O10 1.315 . S
C9 O11 1.279 . S
O10 Cd2 2.223 . S
O10 C9 1.315 . S
O11 Cd1 2.240 . S
O11 C9 1.279 . S
O12 Cd2 2.297 . S
O12 C7 1.247 . S
O13 Cd2 2.439 . S
O13 C7 1.208 . S
O14 Cd15 2.223 . S
O14 C22 1.315 . S
Cd15 O14 2.223 . S
Cd15 O18 2.297 . S
Cd15 O19 2.439 . S
Cd15 O25 2.240 . S
Cd16 O17 2.240 . S
Cd16 O24 2.223 . S
Cd16 O26 2.297 . S
Cd16 O27 2.439 . S
O17 Cd16 2.240 . S
O17 C22 1.279 . S
O18 Cd15 2.297 . S
O18 C20 1.247 . S
O19 Cd15 2.439 . S
O19 C20 1.208 . S
C20 O18 1.247 . S
C20 O19 1.208 . S
C21 O26 1.247 . S
C21 O27 1.208 . S
C22 O14 1.315 . S
C22 O17 1.279 . S
C23 O24 1.315 . S
C23 O25 1.279 . S
O24 Cd16 2.223 . S
O24 C23 1.315 . S
O25 Cd15 2.240 . S
O25 C23 1.279 . S
O26 Cd16 2.297 . S
O26 C21 1.247 . S
O27 Cd16 2.439 . S
O27 C21 1.208 . S
O28 Cd29 2.223 . S
O28 C36 1.315 . S
Cd29 O28 2.223 . S
Cd29 O32 2.297 . S
Cd29 O33 2.439 . S
Cd29 O39 2.240 . S
Cd30 O31 2.240 . S
Cd30 O38 2.223 . S
Cd30 O40 2.297 . S
Cd30 O41 2.439 . S
O31 Cd30 2.240 . S
O31 C36 1.279 . S
O32 Cd29 2.297 . S
O32 C34 1.247 . S
O33 Cd29 2.439 . S
O33 C34 1.208 . S
C34 O32 1.247 . S
C34 O33 1.208 . S
C35 O40 1.247 . S
C35 O41 1.208 . S
C36 O28 1.315 . S
C36 O31 1.279 . S
C37 O38 1.315 . S
C37 O39 1.279 . S
O38 Cd30 2.223 . S
O38 C37 1.315 . S
O39 Cd29 2.240 . S
O39 C37 1.279 . S
O40 Cd30 2.297 . S
O40 C35 1.247 . S
O41 Cd30 2.439 . S
O41 C35 1.208 . S
O42 Cd43 2.223 . S
O42 C50 1.315 . S
Cd43 O42 2.223 . S
Cd43 O46 2.297 . S
Cd43 O47 2.439 . S
Cd43 O53 2.240 . S
Cd44 O45 2.240 . S
Cd44 O52 2.223 . S
Cd44 O54 2.297 1_554 S
Cd44 O55 2.439 1_554 S
O45 Cd44 2.240 . S
O45 C50 1.279 . S
O46 Cd43 2.297 . S
O46 C48 1.247 . S
O47 Cd43 2.439 . S
O47 C48 1.208 . S
C48 O46 1.247 . S
C48 O47 1.208 . S
C49 O54 1.247 . S
C49 O55 1.208 . S
C50 O42 1.315 . S
C50 O45 1.279 . S
C51 O52 1.315 . S
C51 O53 1.279 . S
O52 Cd44 2.223 . S
O52 C51 1.315 . S
O53 Cd43 2.240 . S
O53 C51 1.279 . S
O54 Cd44 2.297 1_556 S
O54 C49 1.247 . S
O55 Cd44 2.439 1_556 S
O55 C49 1.208 . S
O56 Cd57 2.223 . S
O56 C64 1.315 . S
Cd57 O56 2.223 . S
Cd57 O60 2.297 . S
Cd57 O61 2.439 . S
Cd57 O67 2.240 . S
Cd58 O59 2.240 . S
Cd58 O66 2.223 . S
Cd58 O68 2.297 . S
Cd58 O69 2.439 . S
O59 Cd58 2.240 . S
O59 C64 1.279 . S
O60 Cd57 2.297 . S
O60 C62 1.247 . S
O61 Cd57 2.439 . S
O61 C62 1.208 . S
C62 O60 1.247 . S
C62 O61 1.208 . S
C63 O68 1.247 . S
C63 O69 1.208 . S
C64 O56 1.315 . S
C64 O59 1.279 . S
C65 O66 1.315 . S
C65 O67 1.279 . S
O66 Cd58 2.223 . S
O66 C65 1.315 . S
O67 Cd57 2.240 . S
O67 C65 1.279 . S
O68 Cd58 2.297 . S
O68 C63 1.247 . S
O69 Cd58 2.439 . S
O69 C63 1.208 . S
O70 Cd71 2.223 . S
O70 C78 1.315 . S
Cd71 O70 2.223 . S
Cd71 O74 2.297 . S
Cd71 O75 2.439 . S
Cd71 O81 2.240 . S
Cd72 O73 2.240 . S
Cd72 O80 2.223 . S
Cd72 O82 2.297 . S
Cd72 O83 2.439 . S
O73 Cd72 2.240 . S
O73 C78 1.279 . S
O74 Cd71 2.297 . S
O74 C76 1.247 . S
O75 Cd71 2.439 . S
O75 C76 1.208 . S
C76 O74 1.247 . S
C76 O75 1.208 . S
C77 O82 1.247 . S
C77 O83 1.208 . S
C78 O70 1.315 . S
C78 O73 1.279 . S
C79 O80 1.315 . S
C79 O81 1.279 . S
O80 Cd72 2.223 . S
O80 C79 1.315 . S
O81 Cd71 2.240 . S
O81 C79 1.279 . S
O82 Cd72 2.297 . S
O82 C77 1.247 . S
O83 Cd72 2.439 . S
O83 C77 1.208 . S
O84 Cd85 2.223 . S
O84 C92 1.315 . S
Cd85 O84 2.223 . S
Cd85 O88 2.297 . S
Cd85 O89 2.439 . S
Cd85 O95 2.240 . S
Cd86 O87 2.240 . S
Cd86 O94 2.223 . S
Cd86 O96 2.297 . S
Cd86 O97 2.439 . S
O87 Cd86 2.240 . S
O87 C92 1.279 . S
O88 Cd85 2.297 . S
O88 C90 1.247 . S
O89 Cd85 2.439 . S
O89 C90 1.208 . S
C90 O88 1.247 . S
C90 O89 1.208 . S
C91 O96 1.247 . S
C91 O97 1.208 . S
C92 O84 1.315 . S
C92 O87 1.279 . S
C93 O94 1.315 . S
C93 O95 1.279 . S
O94 Cd86 2.223 . S
O94 C93 1.315 . S
O95 Cd85 2.240 . S
O95 C93 1.279 . S
O96 Cd86 2.297 . S
O96 C91 1.247 . S
O97 Cd86 2.439 . S
O97 C91 1.208 . S
O98 Cd99 2.223 . S
O98 C106 1.315 . S
Cd99 O98 2.223 . S
Cd99 O102 2.297 . S
Cd99 O103 2.439 1_556 S
Cd99 O109 2.240 1_556 S
Cd100 O101 2.240 1_554 S
Cd100 O108 2.223 . S
Cd100 O110 2.297 . S
Cd100 O111 2.439 . S
O101 Cd100 2.240 1_556 S
O101 C106 1.279 . S
O102 Cd99 2.297 . S
O102 C104 1.247 . S
O103 Cd99 2.439 1_554 S
O103 C104 1.208 1_554 S
C104 O102 1.247 . S
C104 O103 1.208 1_556 S
C105 O110 1.247 . S
C105 O111 1.208 . S
C106 O98 1.315 . S
C106 O101 1.279 . S
C107 O108 1.315 . S
C107 O109 1.279 . S
O108 Cd100 2.223 . S
O108 C107 1.315 . S
O109 Cd99 2.240 1_554 S
O109 C107 1.279 . S
O110 Cd100 2.297 . S
O110 C105 1.247 . S
O111 Cd100 2.439 . S
O111 C105 1.208 . S
H112 C113 0.951 . S
C113 H112 0.951 . S
C113 C119 1.265 . S
H114 C119 0.950 . S
H115 C123 0.949 . S
H116 C124 0.950 . S
H117 C125 0.951 . S
H118 C126 0.951 . S
C119 C113 1.265 . S
C119 H114 0.950 . S
C119 C120 1.478 . S
C120 C119 1.478 . S
C120 C121 1.397 . S
C120 C137 1.394 . S
C121 C120 1.397 . S
C121 C122 1.438 . S
C121 C126 1.429 . S
C122 C121 1.438 . S
C122 C123 1.428 . S
C122 C135 1.394 . S
C123 H115 0.949 . S
C123 C122 1.428 . S
C123 C124 1.345 . S
C124 H116 0.950 . S
C124 C123 1.345 . S
C124 C125 1.424 . S
C125 H117 0.951 . S
C125 C124 1.424 . S
C125 C126 1.347 . S
C126 H118 0.951 . S
C126 C121 1.429 . S
C126 C125 1.347 . S
H127 C128 0.951 . S
C128 H127 0.951 . S
C128 C134 1.265 . S
H129 C134 0.950 . S
H130 C138 0.949 . S
H131 C139 0.950 . S
H132 C140 0.951 . S
H133 C141 0.951 . S
C134 C128 1.265 . S
C134 H129 0.950 . S
C134 C135 1.478 . S
C135 C122 1.394 . S
C135 C134 1.478 . S
C135 C136 1.397 . S
C136 C135 1.397 . S
C136 C137 1.438 . S
C136 C141 1.429 . S
C137 C120 1.394 . S
C137 C136 1.438 . S
C137 C138 1.428 . S
C138 H130 0.949 . S
C138 C137 1.428 . S
C138 C139 1.345 . S
C139 H131 0.950 . S
C139 C138 1.345 . S
C139 C140 1.424 . S
C140 H132 0.951 . S
C140 C139 1.424 . S
C140 C141 1.347 . S
C141 H133 0.951 . S
C141 C136 1.429 . S
C141 C140 1.347 . S
H142 C143 0.951 . S
C143 H142 0.951 . S
C143 C149 1.265 . S
H144 C149 0.950 . S
H145 C153 0.949 . S
H146 C154 0.950 . S
H147 C155 0.951 . S
H148 C156 0.951 . S
C149 C143 1.265 . S
C149 H144 0.950 . S
C149 C150 1.478 . S
C150 C149 1.478 . S
C150 C151 1.397 . S
C150 C167 1.394 . S
C151 C150 1.397 . S
C151 C152 1.438 . S
C151 C156 1.429 . S
C152 C151 1.438 . S
C152 C153 1.428 . S
C152 C165 1.394 . S
C153 H145 0.949 . S
C153 C152 1.428 . S
C153 C154 1.345 . S
C154 H146 0.950 . S
C154 C153 1.345 . S
C154 C155 1.424 . S
C155 H147 0.951 . S
C155 C154 1.424 . S
C155 C156 1.347 . S
C156 H148 0.951 . S
C156 C151 1.429 . S
C156 C155 1.347 . S
H157 C158 0.951 . S
C158 H157 0.951 . S
C158 C164 1.265 . S
H159 C164 0.950 . S
H160 C168 0.949 . S
H161 C169 0.950 . S
H162 C170 0.951 . S
H163 C171 0.951 . S
C164 C158 1.265 . S
C164 H159 0.950 . S
C164 C165 1.478 . S
C165 C152 1.394 . S
C165 C164 1.478 . S
C165 C166 1.397 . S
C166 C165 1.397 . S
C166 C167 1.438 . S
C166 C171 1.429 . S
C167 C150 1.394 . S
C167 C166 1.438 . S
C167 C168 1.428 . S
C168 H160 0.949 . S
C168 C167 1.428 . S
C168 C169 1.345 . S
C169 H161 0.950 . S
C169 C168 1.345 . S
C169 C170 1.424 . S
C170 H162 0.951 . S
C170 C169 1.424 . S
C170 C171 1.347 . S
C171 H163 0.951 . S
C171 C166 1.429 . S
C171 C170 1.347 . S
H172 C173 0.951 . S
C173 H172 0.951 . S
C173 C179 1.265 . S
H174 C179 0.950 . S
H175 C183 0.949 1_556 S
H176 C184 0.950 . S
H177 C185 0.951 . S
H178 C186 0.951 . S
C179 C173 1.265 . S
C179 H174 0.950 . S
C179 C180 1.478 . S
C180 C179 1.478 . S
C180 C181 1.397 . S
C180 C197 1.394 . S
C181 C180 1.397 . S
C181 C182 1.438 . S
C181 C186 1.429 . S
C182 C181 1.438 . S
C182 C183 1.428 . S
C182 C195 1.394 . S
C183 H175 0.949 1_554 S
C183 C182 1.428 . S
C183 C184 1.345 . S
C184 H176 0.950 . S
C184 C183 1.345 . S
C184 C185 1.424 . S
C185 H177 0.951 . S
C185 C184 1.424 . S
C185 C186 1.347 . S
C186 H178 0.951 . S
C186 C181 1.429 . S
C186 C185 1.347 . S
H187 C188 0.951 . S
C188 H187 0.951 . S
C188 C194 1.265 . S
H189 C194 0.950 . S
H190 C198 0.949 . S
H191 C199 0.950 . S
H192 C200 0.951 . S
H193 C201 0.931 1_556 S
C194 C188 1.265 . S
C194 H189 0.950 . S
C194 C195 1.478 1_556 S
C195 C182 1.394 . S
C195 C194 1.478 1_554 S
C195 C196 1.397 . S
C196 C195 1.397 . S
C196 C197 1.438 . S
C196 C201 1.439 . S
C197 C180 1.394 . S
C197 C196 1.438 . S
C197 C198 1.428 . S
C198 H190 0.949 . S
C198 C197 1.428 . S
C198 C199 1.345 . S
C199 H191 0.950 . S
C199 C198 1.345 . S
C199 C200 1.424 . S
C200 H192 0.951 . S
C200 C199 1.424 . S
C200 C201 1.356 . S
C201 H193 0.931 1_554 S
C201 C196 1.439 . S
C201 C200 1.356 . S
H202 C203 0.951 . S
C203 H202 0.951 . S
C203 C209 1.265 . S
H204 C209 0.950 . S
H205 C213 0.949 . S
H206 C214 0.950 . S
H207 C215 0.951 . S
H208 C216 0.951 . S
C209 C203 1.265 . S
C209 H204 0.950 . S
C209 C210 1.478 . S
C210 C209 1.478 . S
C210 C211 1.397 . S
C210 C227 1.394 . S
C211 C210 1.397 . S
C211 C212 1.438 . S
C211 C216 1.429 . S
C212 C211 1.438 . S
C212 C213 1.428 . S
C212 C225 1.394 . S
C213 H205 0.949 . S
C213 C212 1.428 . S
C213 C214 1.345 . S
C214 H206 0.950 . S
C214 C213 1.345 . S
C214 C215 1.424 . S
C215 H207 0.951 . S
C215 C214 1.424 . S
C215 C216 1.347 . S
C216 H208 0.951 . S
C216 C211 1.429 . S
C216 C215 1.347 . S
H217 C218 0.951 . S
C218 H217 0.951 . S
C218 C224 1.265 . S
H219 C224 0.950 . S
H220 C228 0.949 . S
H221 C229 0.950 . S
H222 C230 0.951 . S
H223 C231 0.951 . S
C224 C218 1.265 . S
C224 H219 0.950 . S
C224 C225 1.478 . S
C225 C212 1.394 . S
C225 C224 1.478 . S
C225 C226 1.397 . S
C226 C225 1.397 . S
C226 C227 1.438 . S
C226 C231 1.429 . S
C227 C210 1.394 . S
C227 C226 1.438 . S
C227 C228 1.428 . S
C228 H220 0.949 . S
C228 C227 1.428 . S
C228 C229 1.345 . S
C229 H221 0.950 . S
C229 C228 1.345 . S
C229 C230 1.424 . S
C230 H222 0.951 . S
C230 C229 1.424 . S
C230 C231 1.347 . S
C231 H223 0.951 . S
C231 C226 1.429 . S
C231 C230 1.347 . S
H232 C233 0.951 . S
C233 H232 0.951 . S
C233 C239 1.265 . S
H234 C239 0.950 . S
H235 C243 0.949 . S
H236 C244 0.950 . S
H237 C245 0.951 . S
H238 C246 0.951 . S
C239 C233 1.265 . S
C239 H234 0.950 . S
C239 C240 1.478 . S
C240 C239 1.478 . S
C240 C241 1.397 . S
C240 C257 1.394 . S
C241 C240 1.397 . S
C241 C242 1.438 . S
C241 C246 1.429 . S
C242 C241 1.438 . S
C242 C243 1.428 . S
C242 C255 1.394 . S
C243 H235 0.949 . S
C243 C242 1.428 . S
C243 C244 1.345 . S
C244 H236 0.950 . S
C244 C243 1.345 . S
C244 C245 1.424 . S
C245 H237 0.951 . S
C245 C244 1.424 . S
C245 C246 1.347 . S
C246 H238 0.951 . S
C246 C241 1.429 . S
C246 C245 1.347 . S
H247 C248 0.951 . S
C248 H247 0.951 . S
C248 C254 1.265 . S
H249 C254 0.950 . S
H250 C258 0.949 . S
H251 C259 0.950 . S
H252 C260 0.951 . S
H253 C261 0.951 . S
C254 C248 1.265 . S
C254 H249 0.950 . S
C254 C255 1.478 . S
C255 C242 1.394 . S
C255 C254 1.478 . S
C255 C256 1.397 . S
C256 C255 1.397 . S
C256 C257 1.438 . S
C256 C261 1.429 . S
C257 C240 1.394 . S
C257 C256 1.438 . S
C257 C258 1.428 . S
C258 H250 0.949 . S
C258 C257 1.428 . S
C258 C259 1.345 . S
C259 H251 0.950 . S
C259 C258 1.345 . S
C259 C260 1.424 . S
C260 H252 0.951 . S
C260 C259 1.424 . S
C260 C261 1.347 . S
C261 H253 0.951 . S
C261 C256 1.429 . S
C261 C260 1.347 . S
H262 C263 0.951 . S
C263 H262 0.951 . S
C263 C269 1.265 . S
H264 C269 0.950 . S
H265 C273 0.949 . S
H266 C274 0.950 . S
H267 C275 0.951 . S
H268 C276 0.951 . S
C269 C263 1.265 . S
C269 H264 0.950 . S
C269 C270 1.478 . S
C270 C269 1.478 . S
C270 C271 1.397 . S
C270 C287 1.394 . S
C271 C270 1.397 . S
C271 C272 1.438 . S
C271 C276 1.429 . S
C272 C271 1.438 . S
C272 C273 1.428 . S
C272 C285 1.394 . S
C273 H265 0.949 . S
C273 C272 1.428 . S
C273 C274 1.345 . S
C274 H266 0.950 . S
C274 C273 1.345 . S
C274 C275 1.424 . S
C275 H267 0.951 . S
C275 C274 1.424 . S
C275 C276 1.347 . S
C276 H268 0.951 . S
C276 C271 1.429 . S
C276 C275 1.347 . S
H277 C278 0.951 . S
C278 H277 0.951 . S
C278 C284 1.265 . S
H279 C284 0.950 . S
H280 C288 0.949 . S
H281 C289 0.950 . S
H282 C290 0.951 . S
H283 C291 0.951 . S
C284 C278 1.265 . S
C284 H279 0.950 . S
C284 C285 1.478 . S
C285 C272 1.394 . S
C285 C284 1.478 . S
C285 C286 1.397 . S
C286 C285 1.397 . S
C286 C287 1.438 . S
C286 C291 1.429 . S
C287 C270 1.394 . S
C287 C286 1.438 . S
C287 C288 1.428 . S
C288 H280 0.949 . S
C288 C287 1.428 . S
C288 C289 1.345 . S
C289 H281 0.950 . S
C289 C288 1.345 . S
C289 C290 1.424 . S
C290 H282 0.951 . S
C290 C289 1.424 . S
C290 C291 1.347 . S
C291 H283 0.951 . S
C291 C286 1.429 . S
C291 C290 1.347 . S
H292 C293 0.951 1_554 S
C293 H292 0.951 1_556 S
C293 C299 1.265 . S
H294 C299 0.950 . S
H295 C303 0.949 . S
H296 C304 0.950 . S
H297 C305 0.951 . S
H298 C306 0.951 . S
C299 C293 1.265 . S
C299 H294 0.950 . S
C299 C300 1.478 . S
C300 C299 1.478 . S
C300 C301 1.397 . S
C300 C317 1.394 . S
C301 C300 1.397 . S
C301 C302 1.438 . S
C301 C306 1.429 . S
C302 C301 1.438 . S
C302 C303 1.428 . S
C302 C315 1.394 . S
C303 H295 0.949 . S
C303 C302 1.428 . S
C303 C304 1.345 . S
C304 H296 0.950 . S
C304 C303 1.345 . S
C304 C305 1.424 . S
C305 H297 0.951 . S
C305 C304 1.424 . S
C305 C306 1.347 . S
C306 H298 0.951 . S
C306 C301 1.429 . S
C306 C305 1.347 . S
H307 C308 0.951 . S
C308 H307 0.951 . S
C308 C314 1.265 . S
H309 C314 0.950 . S
H310 C318 0.949 . S
H311 C319 0.950 . S
H312 C320 0.951 . S
H313 C321 0.951 . S
C314 C308 1.265 . S
C314 H309 0.950 . S
C314 C315 1.478 . S
C315 C302 1.394 . S
C315 C314 1.478 . S
C315 C316 1.397 . S
C316 C315 1.397 . S
C316 C317 1.438 . S
C316 C321 1.429 . S
C317 C300 1.394 . S
C317 C316 1.438 . S
C317 C318 1.428 . S
C318 H310 0.949 . S
C318 C317 1.428 . S
C318 C319 1.345 . S
C319 H311 0.950 . S
C319 C318 1.345 . S
C319 C320 1.424 . S
C320 H312 0.951 . S
C320 C319 1.424 . S
C320 C321 1.347 . S
C321 H313 0.951 . S
C321 C316 1.429 . S
C321 C320 1.347 . S
H322 C323 0.951 . S
C323 H322 0.951 . S
C323 C329 1.265 . S
H324 C329 0.950 . S
H325 C333 0.949 . S
H326 C334 0.950 . S
H327 C335 0.951 . S
H328 C336 0.951 . S
C329 C323 1.265 . S
C329 H324 0.950 . S
C329 C330 1.478 . S
C330 C329 1.478 . S
C330 C331 1.397 . S
C330 C347 1.394 . S
C331 C330 1.397 . S
C331 C332 1.438 . S
C331 C336 1.429 . S
C332 C331 1.438 . S
C332 C333 1.428 . S
C332 C345 1.394 . S
C333 H325 0.949 . S
C333 C332 1.428 . S
C333 C334 1.345 . S
C334 H326 0.950 . S
C334 C333 1.345 . S
C334 C335 1.424 . S
C335 H327 0.951 . S
C335 C334 1.424 . S
C335 C336 1.347 . S
C336 H328 0.951 . S
C336 C331 1.429 . S
C336 C335 1.347 . S
H337 C338 0.951 . S
C338 H337 0.951 . S
C338 C344 1.265 . S
H339 C344 0.950 . S
H340 C348 0.949 . S
H341 C349 0.950 . S
H342 C350 0.951 . S
H343 C351 0.951 . S
C344 C338 1.265 . S
C344 H339 0.950 . S
C344 C345 1.478 . S
C345 C332 1.394 . S
C345 C344 1.478 . S
C345 C346 1.397 . S
C346 C345 1.397 . S
C346 C347 1.438 . S
C346 C351 1.429 . S
C347 C330 1.394 . S
C347 C346 1.438 . S
C347 C348 1.428 . S
C348 H340 0.949 . S
C348 C347 1.428 . S
C348 C349 1.345 . S
C349 H341 0.950 . S
C349 C348 1.345 . S
C349 C350 1.424 . S
C350 H342 0.951 . S
C350 C349 1.424 . S
C350 C351 1.347 . S
C351 H343 0.951 . S
C351 C346 1.429 . S
C351 C350 1.347 . S
H352 C353 0.951 . S
C353 H352 0.951 . S
C353 C359 1.265 . S
H354 C359 0.950 . S
H355 C363 0.949 . S
H356 C364 0.950 . S
H357 C365 0.951 . S
H358 C366 0.951 . S
C359 C353 1.265 . S
C359 H354 0.950 . S
C359 C360 1.478 . S
C360 C359 1.478 . S
C360 C361 1.397 . S
C360 C377 1.394 . S
C361 C360 1.397 . S
C361 C362 1.438 1_565 S
C361 C366 1.429 . S
C362 C361 1.438 1_545 S
C362 C363 1.428 . S
C362 C375 1.394 . S
C363 H355 0.949 . S
C363 C362 1.428 . S
C363 C364 1.345 . S
C364 H356 0.950 . S
C364 C363 1.345 . S
C364 C365 1.424 1_545 S
C365 H357 0.951 . S
C365 C364 1.424 1_565 S
C365 C366 1.347 . S
C366 H358 0.951 . S
C366 C361 1.429 . S
C366 C365 1.347 . S
H367 C368 0.951 . S
C368 H367 0.951 . S
C368 C374 1.265 . S
H369 C374 0.950 . S
H370 C378 0.949 . S
H371 C379 0.950 . S
H372 C380 0.951 . S
H373 C381 0.951 . S
C374 C368 1.265 . S
C374 H369 0.950 . S
C374 C375 1.478 . S
C375 C362 1.394 . S
C375 C374 1.478 . S
C375 C376 1.397 . S
C376 C375 1.397 . S
C376 C377 1.438 1_545 S
C376 C381 1.429 . S
C377 C360 1.394 . S
C377 C376 1.438 1_565 S
C377 C378 1.428 . S
C378 H370 0.949 . S
C378 C377 1.428 . S
C378 C379 1.345 . S
C379 H371 0.950 . S
C379 C378 1.345 . S
C379 C380 1.424 1_565 S
C380 H372 0.951 . S
C380 C379 1.424 1_545 S
C380 C381 1.347 . S
C381 H373 0.951 . S
C381 C376 1.429 . S
C381 C380 1.347 . S
H382 C383 0.951 . S
C383 H382 0.951 . S
C383 C389 1.265 . S
H384 C389 0.950 . S
H385 C393 0.949 . S
H386 C394 0.950 . S
H387 C395 0.951 . S
H388 C396 0.951 . S
C389 C383 1.265 . S
C389 H384 0.950 . S
C389 C390 1.478 . S
C390 C389 1.478 . S
C390 C391 1.397 . S
C390 C407 1.394 . S
C391 C390 1.397 . S
C391 C392 1.438 1_655 S
C391 C396 1.429 . S
C392 C391 1.438 1_455 S
C392 C393 1.428 . S
C392 C405 1.394 . S
C393 H385 0.949 . S
C393 C392 1.428 . S
C393 C394 1.345 . S
C394 H386 0.950 . S
C394 C393 1.345 . S
C394 C395 1.424 1_455 S
C395 H387 0.951 . S
C395 C394 1.424 1_655 S
C395 C396 1.347 . S
C396 H388 0.951 . S
C396 C391 1.429 . S
C396 C395 1.347 . S
H397 C398 0.951 . S
C398 H397 0.951 . S
C398 C404 1.265 . S
H399 C404 0.950 . S
H400 C408 0.949 . S
H401 C409 0.950 . S
H402 C410 0.951 . S
H403 C411 0.951 . S
C404 C398 1.265 . S
C404 H399 0.950 . S
C404 C405 1.478 . S
C405 C392 1.394 . S
C405 C404 1.478 . S
C405 C406 1.397 . S
C406 C405 1.397 . S
C406 C407 1.438 1_455 S
C406 C411 1.429 . S
C407 C390 1.394 . S
C407 C406 1.438 1_655 S
C407 C408 1.428 . S
C408 H400 0.949 . S
C408 C407 1.428 . S
C408 C409 1.345 . S
C409 H401 0.950 . S
C409 C408 1.345 . S
C409 C410 1.424 1_655 S
C410 H402 0.951 . S
C410 C409 1.424 1_455 S
C410 C411 1.347 . S
C411 H403 0.951 . S
C411 C406 1.429 . S
C411 C410 1.347 . S
H412 C413 0.951 . S
C413 H412 0.951 . S
C413 C419 1.265 . S
H414 C419 0.950 . S
H415 C423 0.949 . S
H416 C424 0.950 . S
H417 C425 0.951 1_565 S
H418 C426 0.951 . S
C419 C413 1.265 . S
C419 H414 0.950 . S
C419 C420 1.478 . S
C420 C419 1.478 . S
C420 C421 1.397 . S
C420 C437 1.394 . S
C421 C420 1.397 . S
C421 C422 1.438 1_565 S
C421 C426 1.429 . S
C422 C421 1.438 1_545 S
C422 C423 1.428 . S
C422 C435 1.394 . S
C423 H415 0.949 . S
C423 C422 1.428 . S
C423 C424 1.345 . S
C424 H416 0.950 . S
C424 C423 1.345 . S
C424 C425 1.424 . S
C425 H417 0.951 1_545 S
C425 C424 1.424 . S
C425 C426 1.347 1_545 S
C426 H418 0.951 . S
C426 C421 1.429 . S
C426 C425 1.347 1_565 S
H427 C428 0.951 . S
C428 H427 0.951 . S
C428 C434 1.265 . S
H429 C434 0.950 . S
H430 C438 0.949 . S
H431 C439 0.950 . S
H432 C440 0.951 1_545 S
H433 C441 0.951 . S
C434 C428 1.265 . S
C434 H429 0.950 . S
C434 C435 1.478 . S
C435 C422 1.394 . S
C435 C434 1.478 . S
C435 C436 1.397 . S
C436 C435 1.397 . S
C436 C437 1.438 1_545 S
C436 C441 1.429 . S
C437 C420 1.394 . S
C437 C436 1.438 1_565 S
C437 C438 1.428 . S
C438 H430 0.949 . S
C438 C437 1.428 . S
C438 C439 1.345 . S
C439 H431 0.950 . S
C439 C438 1.345 . S
C439 C440 1.424 . S
C440 H432 0.951 1_565 S
C440 C439 1.424 . S
C440 C441 1.347 1_565 S
C441 H433 0.951 . S
C441 C436 1.429 . S
C441 C440 1.347 1_545 S
H442 C443 0.951 . S
C443 H442 0.951 . S
C443 C449 1.265 . S
H444 C449 0.950 1_556 S
H445 C453 0.949 . S
H446 C454 0.950 . S
H447 C455 0.951 . S
H448 C456 0.951 . S
C449 C443 1.265 . S
C449 H444 0.950 1_554 S
C449 C450 1.478 . S
C450 C449 1.478 . S
C450 C451 1.397 . S
C450 C467 1.394 . S
C451 C450 1.397 . S
C451 C452 1.438 1_655 S
C451 C456 1.429 . S
C452 C451 1.438 1_455 S
C452 C453 1.428 . S
C452 C465 1.394 . S
C453 H445 0.949 . S
C453 C452 1.428 . S
C453 C454 1.345 . S
C454 H446 0.950 . S
C454 C453 1.345 . S
C454 C455 1.424 1_455 S
C455 H447 0.951 . S
C455 C454 1.424 1_655 S
C455 C456 1.347 . S
C456 H448 0.951 . S
C456 C451 1.429 . S
C456 C455 1.347 . S
H457 C458 0.951 . S
C458 H457 0.951 . S
C458 C464 1.265 . S
H459 C464 0.950 . S
H460 C468 0.949 . S
H461 C469 0.950 . S
H462 C470 0.951 . S
H463 C471 0.951 . S
C464 C458 1.265 . S
C464 H459 0.950 . S
C464 C465 1.478 . S
C465 C452 1.394 . S
C465 C464 1.478 . S
C465 C466 1.397 . S
C466 C465 1.397 . S
C466 C467 1.438 1_455 S
C466 C471 1.429 . S
C467 C450 1.394 . S
C467 C466 1.438 1_655 S
C467 C468 1.428 . S
C468 H460 0.949 . S
C468 C467 1.428 . S
C468 C469 1.345 . S
C469 H461 0.950 . S
C469 C468 1.345 . S
C469 C470 1.424 1_655 S
C470 H462 0.951 . S
C470 C469 1.424 1_455 S
C470 C471 1.347 . S
C471 H463 0.951 . S
C471 C466 1.429 . S
C471 C470 1.347 . S
H472 C473 0.951 . S
C473 H472 0.951 . S
C473 C479 1.265 . S
H474 C479 0.950 . S
H475 C483 0.949 . S
H476 C484 0.950 . S
H477 C485 0.951 . S
H478 C486 0.951 . S
C479 C473 1.265 . S
C479 H474 0.950 . S
C479 C480 1.478 1_556 S
C480 C479 1.478 1_554 S
C480 C481 1.397 . S
C480 C497 1.394 . S
C481 C480 1.397 . S
C481 C482 1.438 . S
C481 C486 1.429 . S
C482 C481 1.438 . S
C482 C483 1.428 . S
C482 C495 1.394 . S
C483 H475 0.949 . S
C483 C482 1.428 . S
C483 C484 1.345 . S
C484 H476 0.950 . S
C484 C483 1.345 . S
C484 C485 1.424 . S
C485 H477 0.951 . S
C485 C484 1.424 . S
C485 C486 1.347 . S
C486 H478 0.951 . S
C486 C481 1.429 . S
C486 C485 1.347 . S
H487 C488 0.951 . S
C488 H487 0.951 . S
C488 C494 1.265 . S
H489 C494 0.950 . S
H490 C498 0.949 . S
H491 C499 0.950 1_556 S
H492 C500 0.951 . S
H493 C501 0.951 . S
C494 C488 1.265 . S
C494 H489 0.950 . S
C494 C495 1.478 . S
C495 C482 1.394 . S
C495 C494 1.478 . S
C495 C496 1.397 . S
C496 C495 1.397 . S
C496 C497 1.438 . S
C496 C501 1.429 . S
C497 C480 1.394 . S
C497 C496 1.438 . S
C497 C498 1.428 1_554 S
C498 H490 0.949 . S
C498 C497 1.428 1_556 S
C498 C499 1.345 1_556 S
C499 H491 0.950 1_554 S
C499 C498 1.345 1_554 S
C499 C500 1.424 . S
C500 H492 0.951 . S
C500 C499 1.424 . S
C500 C501 1.347 . S
C501 H493 0.951 . S
C501 C496 1.429 . S
C501 C500 1.347 . S
H502 C503 0.951 . S
C503 H502 0.951 . S
C503 C509 1.265 . S
H504 C509 0.950 . S
H505 C513 0.949 . S
H506 C514 0.950 . S
H507 C515 0.951 . S
H508 C516 0.951 . S
C509 C503 1.265 . S
C509 H504 0.950 . S
C509 C510 1.478 . S
C510 C509 1.478 . S
C510 C511 1.397 . S
C510 C527 1.394 . S
C511 C510 1.397 . S
C511 C512 1.438 . S
C511 C516 1.429 . S
C512 C511 1.438 . S
C512 C513 1.428 . S
C512 C525 1.394 . S
C513 H505 0.949 . S
C513 C512 1.428 . S
C513 C514 1.345 . S
C514 H506 0.950 . S
C514 C513 1.345 . S
C514 C515 1.424 . S
C515 H507 0.951 . S
C515 C514 1.424 . S
C515 C516 1.347 . S
C516 H508 0.951 . S
C516 C511 1.429 . S
C516 C515 1.347 . S
H517 C518 0.951 . S
C518 H517 0.951 . S
C518 C524 1.265 . S
H519 C524 0.950 . S
H520 C528 0.949 . S
H521 C529 0.950 . S
H522 C530 0.951 . S
H523 C531 0.951 . S
C524 C518 1.265 . S
C524 H519 0.950 . S
C524 C525 1.478 . S
C525 C512 1.394 . S
C525 C524 1.478 . S
C525 C526 1.397 . S
C526 C525 1.397 . S
C526 C527 1.438 . S
C526 C531 1.429 . S
C527 C510 1.394 . S
C527 C526 1.438 . S
C527 C528 1.428 . S
C528 H520 0.949 . S
C528 C527 1.428 . S
C528 C529 1.345 . S
C529 H521 0.950 . S
C529 C528 1.345 . S
C529 C530 1.424 . S
C530 H522 0.951 . S
C530 C529 1.424 . S
C530 C531 1.347 . S
C531 H523 0.951 . S
C531 C526 1.429 . S
C531 C530 1.347 . S
H532 C533 0.951 . S
C533 H532 0.951 . S
C533 C539 1.265 . S
H534 C539 0.950 . S
H535 C543 0.949 . S
H536 C544 0.950 . S
H537 C545 0.951 . S
H538 C546 0.951 . S
C539 C533 1.265 . S
C539 H534 0.950 . S
C539 C540 1.478 . S
C540 C539 1.478 . S
C540 C541 1.397 . S
C540 C557 1.394 . S
C541 C540 1.397 . S
C541 C542 1.438 . S
C541 C546 1.429 . S
C542 C541 1.438 . S
C542 C543 1.428 . S
C542 C555 1.394 . S
C543 H535 0.949 . S
C543 C542 1.428 . S
C543 C544 1.345 . S
C544 H536 0.950 . S
C544 C543 1.345 . S
C544 C545 1.424 . S
C545 H537 0.951 . S
C545 C544 1.424 . S
C545 C546 1.347 . S
C546 H538 0.951 . S
C546 C541 1.429 . S
C546 C545 1.347 . S
H547 C548 0.951 . S
C548 H547 0.951 . S
C548 C554 1.265 . S
H549 C554 0.950 . S
H550 C558 0.949 . S
H551 C559 0.950 . S
H552 C560 0.951 . S
H553 C561 0.951 . S
C554 C548 1.265 . S
C554 H549 0.950 . S
C554 C555 1.478 . S
C555 C542 1.394 . S
C555 C554 1.478 . S
C555 C556 1.397 . S
C556 C555 1.397 . S
C556 C557 1.438 . S
C556 C561 1.429 . S
C557 C540 1.394 . S
C557 C556 1.438 . S
C557 C558 1.428 . S
C558 H550 0.949 . S
C558 C557 1.428 . S
C558 C559 1.345 . S
C559 H551 0.950 . S
C559 C558 1.345 . S
C559 C560 1.424 . S
C560 H552 0.951 . S
C560 C559 1.424 . S
C560 C561 1.347 . S
C561 H553 0.951 . S
C561 C556 1.429 . S
C561 C560 1.347 . S
H562 C563 0.951 . S
C563 H562 0.951 . S
C563 C569 1.265 . S
H564 C569 0.950 . S
H565 C573 0.949 . S
H566 C574 0.950 . S
H567 C575 0.951 . S
H568 C576 0.951 . S
C569 C563 1.265 . S
C569 H564 0.950 . S
C569 C570 1.478 . S
C570 C569 1.478 . S
C570 C571 1.397 . S
C570 C587 1.394 . S
C571 C570 1.397 . S
C571 C572 1.438 . S
C571 C576 1.429 . S
C572 C571 1.438 . S
C572 C573 1.428 . S
C572 C585 1.394 . S
C573 H565 0.949 . S
C573 C572 1.428 . S
C573 C574 1.345 . S
C574 H566 0.950 . S
C574 C573 1.345 . S
C574 C575 1.424 . S
C575 H567 0.951 . S
C575 C574 1.424 . S
C575 C576 1.347 . S
C576 H568 0.951 . S
C576 C571 1.429 . S
C576 C575 1.347 . S
H577 C578 0.951 . S
C578 H577 0.951 . S
C578 C584 1.265 . S
H579 C584 0.950 . S
H580 C588 0.949 . S
H581 C589 0.950 . S
H582 C590 0.951 . S
H583 C591 0.951 . S
C584 C578 1.265 . S
C584 H579 0.950 . S
C584 C585 1.478 . S
C585 C572 1.394 . S
C585 C584 1.478 . S
C585 C586 1.397 . S
C586 C585 1.397 . S
C586 C587 1.438 . S
C586 C591 1.429 . S
C587 C570 1.394 . S
C587 C586 1.438 . S
C587 C588 1.428 . S
C588 H580 0.949 . S
C588 C587 1.428 . S
C588 C589 1.345 . S
C589 H581 0.950 . S
C589 C588 1.345 . S
C589 C590 1.424 . S
C590 H582 0.951 . S
C590 C589 1.424 . S
C590 C591 1.347 . S
C591 H583 0.951 . S
C591 C586 1.429 . S
C591 C590 1.347 . S
C113 C8 1.124 . S
C128 C92 1.121 . S
C143 C22 1.159 . S
C158 C106 1.147 . S
C173 C64 1.121 . S
C188 C36 1.121 . S
C203 C78 1.120 . S
C218 C50 1.121 . S
C233 C6 1.474 . S
C248 C76 1.532 . S
C263 C20 1.527 . S
C278 C90 1.467 . S
C293 C104 1.522 . S
C308 C34 1.529 . S
C323 C48 1.456 . S
C338 C62 1.516 . S
C353 C65 1.503 . S
C368 C9 1.553 . S
C383 C23 1.552 . S
C398 C79 1.557 . S
C413 C37 1.554 . S
C428 C93 1.504 . S
C443 C107 1.503 . S
C458 C51 1.512 . S
C473 C91 1.273 . S
C488 C7 1.274 . S
C503 C105 1.295 . S
C518 C21 1.270 . S
C533 C35 1.353 . S
C548 C63 1.363 . S
C563 C49 1.332 . S
C578 C77 1.292 . S
