# Generated by pormake.
# Topology unw, (4)-cn, num edge types: 1
# Building blocks:
#     Node 0, Type 0, BuildingBlock: ICAMEG_clean_sbu_1, # of connection points: 4
#     Node 1, Type 0, BuildingBlock: ICAMEG_clean_sbu_1, # of connection points: 4
#     Node 2, Type 0, BuildingBlock: ICAMEG_clean_sbu_1, # of connection points: 4
#     Node 3, Type 0, BuildingBlock: ICAMEG_clean_sbu_1, # of connection points: 4
#     Node 4, Type 0, BuildingBlock: ICAMEG_clean_sbu_1, # of connection points: 4
#     Node 5, Type 0, BuildingBlock: ICAMEG_clean_sbu_1, # of connection points: 4
#     Node 6, Type 0, BuildingBlock: ICAMEG_clean_sbu_1, # of connection points: 4
#     Node 7, Type 0, BuildingBlock: ICAMEG_clean_sbu_1, # of connection points: 4
#     Node 8, Type 0, BuildingBlock: ICAMEG_clean_sbu_1, # of connection points: 4
#     Node 9, Type 0, BuildingBlock: ICAMEG_clean_sbu_1, # of connection points: 4
#     Node 10, Type 0, BuildingBlock: ICAMEG_clean_sbu_1, # of connection points: 4
#     Node 11, Type 0, BuildingBlock: ICAMEG_clean_sbu_1, # of connection points: 4
#     Node 12, Type 0, BuildingBlock: ICAMEG_clean_sbu_1, # of connection points: 4
#     Node 13, Type 0, BuildingBlock: ICAMEG_clean_sbu_1, # of connection points: 4
#     Node 14, Type 0, BuildingBlock: ICAMEG_clean_sbu_1, # of connection points: 4
#     Node 15, Type 0, BuildingBlock: ICAMEG_clean_sbu_1, # of connection points: 4
#     Node 16, Type 0, BuildingBlock: ICAMEG_clean_sbu_1, # of connection points: 4
#     Node 17, Type 0, BuildingBlock: ICAMEG_clean_sbu_1, # of connection points: 4
#     Node 18, Type 0, BuildingBlock: ICAMEG_clean_sbu_1, # of connection points: 4
#     Node 19, Type 0, BuildingBlock: ICAMEG_clean_sbu_1, # of connection points: 4
#     Node 20, Type 0, BuildingBlock: ICAMEG_clean_sbu_1, # of connection points: 4
#     Node 21, Type 0, BuildingBlock: ICAMEG_clean_sbu_1, # of connection points: 4
#     Node 22, Type 0, BuildingBlock: ICAMEG_clean_sbu_1, # of connection points: 4
#     Node 23, Type 0, BuildingBlock: ICAMEG_clean_sbu_1, # of connection points: 4
#     Edge 24, Type (0, 0), BuildingBlock: AJUNOK_clean_linker_0, # of connection points: 2
#     Edge 25, Type (0, 0), BuildingBlock: AJUNOK_clean_linker_0, # of connection points: 2
#     Edge 26, Type (0, 0), BuildingBlock: AJUNOK_clean_linker_0, # of connection points: 2
#     Edge 27, Type (0, 0), BuildingBlock: AJUNOK_clean_linker_0, # of connection points: 2
#     Edge 28, Type (0, 0), BuildingBlock: AJUNOK_clean_linker_0, # of connection points: 2
#     Edge 29, Type (0, 0), BuildingBlock: AJUNOK_clean_linker_0, # of connection points: 2
#     Edge 30, Type (0, 0), BuildingBlock: AJUNOK_clean_linker_0, # of connection points: 2
#     Edge 31, Type (0, 0), BuildingBlock: AJUNOK_clean_linker_0, # of connection points: 2
#     Edge 32, Type (0, 0), BuildingBlock: AJUNOK_clean_linker_0, # of connection points: 2
#     Edge 33, Type (0, 0), BuildingBlock: AJUNOK_clean_linker_0, # of connection points: 2
#     Edge 34, Type (0, 0), BuildingBlock: AJUNOK_clean_linker_0, # of connection points: 2
#     Edge 35, Type (0, 0), BuildingBlock: AJUNOK_clean_linker_0, # of connection points: 2
#     Edge 36, Type (0, 0), BuildingBlock: AJUNOK_clean_linker_0, # of connection points: 2
#     Edge 37, Type (0, 0), BuildingBlock: AJUNOK_clean_linker_0, # of connection points: 2
#     Edge 38, Type (0, 0), BuildingBlock: AJUNOK_clean_linker_0, # of connection points: 2
#     Edge 39, Type (0, 0), BuildingBlock: AJUNOK_clean_linker_0, # of connection points: 2
#     Edge 40, Type (0, 0), BuildingBlock: AJUNOK_clean_linker_0, # of connection points: 2
#     Edge 41, Type (0, 0), BuildingBlock: AJUNOK_clean_linker_0, # of connection points: 2
#     Edge 42, Type (0, 0), BuildingBlock: AJUNOK_clean_linker_0, # of connection points: 2
#     Edge 43, Type (0, 0), BuildingBlock: AJUNOK_clean_linker_0, # of connection points: 2
#     Edge 44, Type (0, 0), BuildingBlock: AJUNOK_clean_linker_0, # of connection points: 2
#     Edge 45, Type (0, 0), BuildingBlock: AJUNOK_clean_linker_0, # of connection points: 2
#     Edge 46, Type (0, 0), BuildingBlock: AJUNOK_clean_linker_0, # of connection points: 2
#     Edge 47, Type (0, 0), BuildingBlock: AJUNOK_clean_linker_0, # of connection points: 2
#     Edge 48, Type (0, 0), BuildingBlock: AJUNOK_clean_linker_0, # of connection points: 2
#     Edge 49, Type (0, 0), BuildingBlock: AJUNOK_clean_linker_0, # of connection points: 2
#     Edge 50, Type (0, 0), BuildingBlock: AJUNOK_clean_linker_0, # of connection points: 2
#     Edge 51, Type (0, 0), BuildingBlock: AJUNOK_clean_linker_0, # of connection points: 2
#     Edge 52, Type (0, 0), BuildingBlock: AJUNOK_clean_linker_0, # of connection points: 2
#     Edge 53, Type (0, 0), BuildingBlock: AJUNOK_clean_linker_0, # of connection points: 2
#     Edge 54, Type (0, 0), BuildingBlock: AJUNOK_clean_linker_0, # of connection points: 2
#     Edge 55, Type (0, 0), BuildingBlock: AJUNOK_clean_linker_0, # of connection points: 2
#     Edge 56, Type (0, 0), BuildingBlock: AJUNOK_clean_linker_0, # of connection points: 2
#     Edge 57, Type (0, 0), BuildingBlock: AJUNOK_clean_linker_0, # of connection points: 2
#     Edge 58, Type (0, 0), BuildingBlock: AJUNOK_clean_linker_0, # of connection points: 2
#     Edge 59, Type (0, 0), BuildingBlock: AJUNOK_clean_linker_0, # of connection points: 2
#     Edge 60, Type (0, 0), BuildingBlock: AJUNOK_clean_linker_0, # of connection points: 2
#     Edge 61, Type (0, 0), BuildingBlock: AJUNOK_clean_linker_0, # of connection points: 2
#     Edge 62, Type (0, 0), BuildingBlock: AJUNOK_clean_linker_0, # of connection points: 2
#     Edge 63, Type (0, 0), BuildingBlock: AJUNOK_clean_linker_0, # of connection points: 2
#     Edge 64, Type (0, 0), BuildingBlock: AJUNOK_clean_linker_0, # of connection points: 2
#     Edge 65, Type (0, 0), BuildingBlock: AJUNOK_clean_linker_0, # of connection points: 2
#     Edge 66, Type (0, 0), BuildingBlock: AJUNOK_clean_linker_0, # of connection points: 2
#     Edge 67, Type (0, 0), BuildingBlock: AJUNOK_clean_linker_0, # of connection points: 2
#     Edge 68, Type (0, 0), BuildingBlock: AJUNOK_clean_linker_0, # of connection points: 2
#     Edge 69, Type (0, 0), BuildingBlock: AJUNOK_clean_linker_0, # of connection points: 2
#     Edge 70, Type (0, 0), BuildingBlock: AJUNOK_clean_linker_0, # of connection points: 2
#     Edge 71, Type (0, 0), BuildingBlock: AJUNOK_clean_linker_0, # of connection points: 2
# Relax obj value: 0.223
# Max RMSD: 0.173
# Mean RMSD: 0.173
data_MOF--net-unw--node1-ICAMEG_clean_sbu_1--edge1-AJUNOK_clean_linker_0
_symmetry_space_group_name_H-M    P1
_symmetry_Int_Tables_number       1
_symmetry_cell_setting            triclinic
loop_
_symmetry_equiv_pos_as_xyz
'x, y, z'
_cell_length_a     39.089881
_cell_length_b     39.085754
_cell_length_c     39.090977
_cell_angle_alpha  89.985271
_cell_angle_beta   90.027956
_cell_angle_gamma 90.043601
loop_
_atom_site_label
_atom_site_type_symbol
_atom_site_fract_x
_atom_site_fract_y
_atom_site_fract_z
_atom_type_partial_charge
Co0 Co 0.16666 0.38441 0.2716 0.0
Co1 Co 0.11543 0.3336 0.22052 0.0
O2 O 0.12458 0.37575 0.24592 0.0
C3 C 0.1671 0.43772 0.21805 0.0
O4 O 0.15362 0.41524 0.19708 0.0
C5 C 0.06318 0.33436 0.27469 0.0
O6 O 0.08636 0.34772 0.29494 0.0
O7 O 0.13572 0.30466 0.25717 0.0
O8 O 0.16354 0.33881 0.29389 0.0
H9 H 0.14472 0.21818 0.17218 0.0
H10 H 0.11083 0.43552 0.27351 0.0
O11 O 0.17175 0.43024 0.24944 0.0
H12 H 0.12549 0.39755 0.39293 0.0
H13 H 0.24726 0.45614 0.34211 0.0
H14 H 0.22894 0.34403 0.28722 0.0
H15 H 0.16247 0.37468 0.34724 0.0
H16 H 0.19397 0.44421 0.31041 0.0
O17 O 0.06997 0.32863 0.24335 0.0
H18 H 0.15593 0.27181 0.20344 0.0
H19 H 0.05447 0.3055 0.18413 0.0
H20 H 0.28249 0.35475 0.31885 0.0
H21 H 0.07344 0.45928 0.31846 0.0
H22 H 0.29193 0.41118 0.34654 0.0
H23 H 0.08056 0.44013 0.37864 0.0
O24 O 0.1954 0.36438 0.23455 0.0
H25 H 0.0395 0.42639 0.1744 0.0
H26 H 0.12346 0.33714 0.14471 0.0
H27 H 0.0992 0.37333 0.09907 0.0
H28 H 0.05684 0.41832 0.11382 0.0
H29 H 0.06469 0.38978 0.21927 0.0
H30 H 0.04205 0.25208 0.15285 0.0
H31 H 0.08741 0.20804 0.14662 0.0
O32 O 0.16085 0.33682 0.19787 0.0
C33 C 0.15258 0.30956 0.28463 0.0
C34 C 0.12479 0.23724 0.17457 0.0
C35 C 0.06716 0.25627 0.16375 0.0
N36 N 0.10604 0.29197 0.19517 0.0
C37 C 0.13103 0.26773 0.19212 0.0
C38 C 0.07434 0.28645 0.18148 0.0
C39 C 0.09262 0.23156 0.16027 0.0
C40 C 0.11432 0.4274 0.29971 0.0
N41 N 0.1389 0.40391 0.30778 0.0
C42 C 0.09299 0.44081 0.32502 0.0
C43 C 0.09697 0.43002 0.35878 0.0
C44 C 0.12216 0.40611 0.36681 0.0
C45 C 0.14299 0.39322 0.34082 0.0
C46 C 0.2434 0.43141 0.33025 0.0
C47 C 0.23275 0.36856 0.29941 0.0
C48 C 0.21329 0.42452 0.31227 0.0
N49 N 0.20824 0.39337 0.29723 0.0
C50 C 0.26317 0.37451 0.31721 0.0
C51 C 0.26846 0.40618 0.33272 0.0
C52 C 0.19025 0.34751 0.20706 0.0
C53 C 0.05789 0.40683 0.16765 0.0
C54 C 0.10517 0.35674 0.15132 0.0
C55 C 0.09144 0.3771 0.12537 0.0
C56 C 0.06765 0.40232 0.13366 0.0
N57 N 0.09541 0.3613 0.18458 0.0
C58 C 0.07213 0.38596 0.19292 0.0
Co59 Co 0.61592 0.1686 0.28016 0.0
Co60 Co 0.66384 0.11286 0.23122 0.0
O61 O 0.62274 0.12493 0.25694 0.0
C62 C 0.56185 0.16681 0.22786 0.0
O63 O 0.58417 0.15219 0.20753 0.0
C64 C 0.66282 0.06375 0.28799 0.0
O65 O 0.6557 0.08959 0.3081 0.0
O66 O 0.69433 0.13305 0.26667 0.0
O67 O 0.6622 0.16581 0.3011 0.0
H68 H 0.78047 0.13327 0.18122 0.0
H69 H 0.56357 0.11427 0.28722 0.0
O70 O 0.56963 0.1732 0.25888 0.0
H71 H 0.60481 0.13645 0.40439 0.0
H72 H 0.54806 0.2555 0.34668 0.0
H73 H 0.65839 0.23057 0.29092 0.0
H74 H 0.62793 0.16905 0.35553 0.0
H75 H 0.55784 0.19991 0.31843 0.0
O76 O 0.66587 0.06797 0.25582 0.0
H77 H 0.72792 0.14887 0.21235 0.0
H78 H 0.68767 0.04912 0.19681 0.0
H79 H 0.64983 0.28636 0.31909 0.0
H80 H 0.53951 0.08126 0.33538 0.0
H81 H 0.59431 0.29914 0.34719 0.0
H82 H 0.56021 0.09225 0.39445 0.0
O83 O 0.63529 0.19443 0.24097 0.0
H84 H 0.56646 0.04051 0.1886 0.0
H85 H 0.65972 0.11875 0.1553 0.0
H86 H 0.62167 0.09504 0.11085 0.0
H87 H 0.57467 0.05558 0.12742 0.0
H88 H 0.60493 0.06507 0.23225 0.0
H89 H 0.73992 0.03233 0.16564 0.0
H90 H 0.78672 0.0746 0.15758 0.0
O91 O 0.6631 0.15772 0.20675 0.0
C92 C 0.69072 0.15257 0.29251 0.0
C93 C 0.76018 0.11467 0.18437 0.0
C94 C 0.73743 0.05801 0.17566 0.0
N95 N 0.70453 0.1001 0.20589 0.0
C96 C 0.73029 0.1234 0.20185 0.0
C97 C 0.70791 0.06766 0.19331 0.0
C98 C 0.76368 0.08174 0.17116 0.0
C99 C 0.57247 0.11936 0.3129 0.0
N100 N 0.59694 0.14367 0.3186 0.0
C101 C 0.55886 0.10052 0.34004 0.0
C102 C 0.57052 0.10667 0.37318 0.0
C103 C 0.59556 0.13146 0.37877 0.0
C104 C 0.6086 0.14978 0.351 0.0
C105 C 0.5724 0.2502 0.33462 0.0
C106 C 0.63425 0.23583 0.30333 0.0
C107 C 0.57807 0.21878 0.31857 0.0
N108 N 0.60874 0.21191 0.30329 0.0
C109 C 0.62952 0.26751 0.31915 0.0
C110 C 0.59836 0.27468 0.33488 0.0
C111 C 0.65239 0.18765 0.21406 0.0
C112 C 0.5869 0.05762 0.18106 0.0
C113 C 0.63925 0.10168 0.1627 0.0
C114 C 0.61785 0.08828 0.13742 0.0
C115 C 0.59149 0.06612 0.14673 0.0
N116 N 0.6346 0.09318 0.1963 0.0
C117 C 0.60883 0.07149 0.20564 0.0
Co118 Co 0.88456 0.66362 0.21829 0.0
Co119 Co 0.83626 0.61518 0.27401 0.0
O120 O 0.87699 0.62257 0.24597 0.0
C121 C 0.93892 0.66638 0.27057 0.0
O122 O 0.91715 0.65257 0.29206 0.0
C123 C 0.83249 0.56077 0.2217 0.0
O124 O 0.84695 0.5819 0.20001 0.0
O125 O 0.80583 0.63515 0.23838 0.0
O126 O 0.83847 0.65861 0.19739 0.0
H127 H 0.72493 0.64942 0.32827 0.0
H128 H 0.93664 0.60863 0.21791 0.0
O129 O 0.93076 0.67043 0.23928 0.0
H130 H 0.89642 0.61749 0.09864 0.0
H131 H 0.9538 0.74162 0.14262 0.0
H132 H 0.84297 0.72449 0.20036 0.0
H133 H 0.87319 0.65558 0.14325 0.0
H134 H 0.94324 0.68985 0.17717 0.0
O135 O 0.82859 0.56919 0.25293 0.0
H136 H 0.77686 0.65805 0.29355 0.0
H137 H 0.80871 0.55621 0.31401 0.0
H138 H 0.85226 0.77645 0.16579 0.0
H139 H 0.9608 0.57021 0.17405 0.0
H140 H 0.90805 0.78531 0.13666 0.0
H141 H 0.9406 0.57447 0.11395 0.0
O142 O 0.86495 0.69414 0.25426 0.0
H143 H 0.9297 0.53806 0.31663 0.0
H144 H 0.84428 0.62479 0.34935 0.0
H145 H 0.8825 0.60075 0.39342 0.0
H146 H 0.92556 0.55698 0.37715 0.0
H147 H 0.89116 0.56311 0.27334 0.0
H148 H 0.75689 0.54633 0.34866 0.0
H149 H 0.71464 0.59319 0.35606 0.0
O150 O 0.84201 0.66106 0.2951 0.0
C151 C 0.80956 0.64936 0.20926 0.0
C152 C 0.74321 0.62883 0.32534 0.0
C153 C 0.76115 0.57098 0.33678 0.0
N154 N 0.79597 0.60777 0.30205 0.0
C155 C 0.77273 0.6336 0.30581 0.0
C156 C 0.79043 0.57671 0.31711 0.0
C157 C 0.73744 0.59727 0.34091 0.0
C158 C 0.92797 0.61082 0.19174 0.0
N159 N 0.90372 0.63443 0.18309 0.0
C160 C 0.94163 0.58892 0.16705 0.0
C161 C 0.93025 0.59129 0.13334 0.0
C162 C 0.90545 0.61541 0.12474 0.0
C163 C 0.89234 0.63686 0.15011 0.0
C164 C 0.92934 0.738 0.15508 0.0
C165 C 0.86719 0.72801 0.18751 0.0
C166 C 0.92323 0.70876 0.17469 0.0
N167 N 0.89241 0.704 0.19049 0.0
C168 C 0.87235 0.75755 0.16807 0.0
C169 C 0.90367 0.76251 0.15176 0.0
C170 C 0.85069 0.6902 0.28335 0.0
C171 C 0.91102 0.55708 0.32405 0.0
C172 C 0.86307 0.60594 0.34206 0.0
C173 C 0.88457 0.59231 0.36714 0.0
C174 C 0.90871 0.56773 0.35799 0.0
N175 N 0.86549 0.59535 0.30884 0.0
C176 C 0.88907 0.57126 0.29968 0.0
Co177 Co 0.33828 0.88554 0.22361 0.0
Co178 Co 0.38478 0.83592 0.27942 0.0
O179 O 0.37919 0.87654 0.25077 0.0
C180 C 0.33874 0.94005 0.2758 0.0
O181 O 0.35396 0.91868 0.2967 0.0
C182 C 0.43622 0.82887 0.22466 0.0
O183 O 0.41459 0.84417 0.2041 0.0
O184 O 0.3606 0.80617 0.24581 0.0
O185 O 0.34122 0.8392 0.20287 0.0
H186 H 0.34642 0.72778 0.33759 0.0
H187 H 0.39518 0.93556 0.22221 0.0
O188 O 0.3333 0.93185 0.24472 0.0
H189 H 0.3824 0.89594 0.10312 0.0
H190 H 0.26035 0.95805 0.15105 0.0
H191 H 0.27611 0.84565 0.20602 0.0
H192 H 0.34435 0.87405 0.14848 0.0
H193 H 0.31286 0.94544 0.18374 0.0
O194 O 0.42908 0.82494 0.25623 0.0
H195 H 0.33942 0.77921 0.30172 0.0
H196 H 0.44351 0.80597 0.31775 0.0
H197 H 0.2233 0.85707 0.17353 0.0
H198 H 0.43364 0.95837 0.17761 0.0
H199 H 0.21512 0.91368 0.1458 0.0
H200 H 0.4274 0.93845 0.11759 0.0
O201 O 0.30796 0.86709 0.26006 0.0
H202 H 0.47062 0.92405 0.31685 0.0
H203 H 0.37814 0.84689 0.35455 0.0
H204 H 0.40672 0.88413 0.39678 0.0
H205 H 0.45337 0.92301 0.37799 0.0
H206 H 0.44111 0.8866 0.27544 0.0
H207 H 0.4518 0.75457 0.35344 0.0
H208 H 0.40298 0.71515 0.3637 0.0
O209 O 0.34022 0.84528 0.30223 0.0
C210 C 0.34695 0.8102 0.21651 0.0
C211 C 0.36785 0.74486 0.33347 0.0
C212 C 0.42699 0.75988 0.34235 0.0
N213 N 0.39087 0.79585 0.30809 0.0
C214 C 0.36399 0.77412 0.31333 0.0
C215 C 0.42215 0.78893 0.32211 0.0
C216 C 0.3996 0.73777 0.34808 0.0
C217 C 0.39215 0.92704 0.19608 0.0
N218 N 0.36746 0.9037 0.18788 0.0
C219 C 0.41406 0.93993 0.17097 0.0
C220 C 0.41058 0.92871 0.13731 0.0
C221 C 0.38535 0.90484 0.12917 0.0
C222 C 0.36392 0.8925 0.15495 0.0
C223 C 0.26367 0.93324 0.16289 0.0
C224 C 0.27292 0.87019 0.19375 0.0
C225 C 0.29336 0.92595 0.18141 0.0
N226 N 0.2977 0.89472 0.19651 0.0
C227 C 0.24289 0.87657 0.17548 0.0
C228 C 0.2383 0.90834 0.15997 0.0
C229 C 0.31143 0.85445 0.28992 0.0
C230 C 0.4504 0.90714 0.32536 0.0
C231 C 0.39836 0.86381 0.34619 0.0
C232 C 0.4145 0.88478 0.37022 0.0
C233 C 0.44068 0.90657 0.35966 0.0
N234 N 0.40813 0.86444 0.31263 0.0
C235 C 0.43372 0.88579 0.30206 0.0
Co236 Co 0.11171 0.66754 0.77873 0.0
Co237 Co 0.16267 0.61609 0.72848 0.0
O238 O 0.12042 0.62497 0.75386 0.0
C239 C 0.05972 0.66718 0.72382 0.0
O240 O 0.08117 0.6503 0.70435 0.0
C241 C 0.16262 0.56446 0.78389 0.0
O242 O 0.14583 0.58589 0.80346 0.0
O243 O 0.19119 0.63819 0.76441 0.0
O244 O 0.15663 0.66366 0.80238 0.0
H245 H 0.27798 0.64635 0.68049 0.0
H246 H 0.05933 0.61283 0.77981 0.0
O247 O 0.06684 0.67347 0.75498 0.0
H248 H 0.09258 0.62975 0.90035 0.0
H249 H 0.03875 0.75168 0.84338 0.0
H250 H 0.15291 0.72918 0.7948 0.0
H251 H 0.11878 0.66454 0.85464 0.0
H252 H 0.05094 0.69707 0.81419 0.0
O253 O 0.16904 0.57164 0.75277 0.0
H254 H 0.22352 0.65754 0.71023 0.0
H255 H 0.19219 0.55474 0.694 0.0
H256 H 0.14193 0.78402 0.82394 0.0
H257 H 0.03223 0.57766 0.82474 0.0
H258 H 0.08446 0.79559 0.84842 0.0
H259 H 0.04892 0.58599 0.88549 0.0
O260 O 0.13308 0.69548 0.74202 0.0
H261 H 0.0722 0.53578 0.68508 0.0
H262 H 0.15865 0.62178 0.65251 0.0
H263 H 0.12325 0.59478 0.60774 0.0
H264 H 0.0797 0.55139 0.62394 0.0
H265 H 0.10798 0.56364 0.72904 0.0
H266 H 0.24644 0.54235 0.66427 0.0
H267 H 0.28976 0.58836 0.65733 0.0
O268 O 0.15819 0.66058 0.70414 0.0
C269 C 0.18609 0.65387 0.79249 0.0
C270 C 0.25922 0.62614 0.68315 0.0
C271 C 0.24153 0.56776 0.67408 0.0
N272 N 0.20448 0.60697 0.70338 0.0
C273 C 0.22825 0.63237 0.6998 0.0
C274 C 0.21084 0.57494 0.69089 0.0
C275 C 0.26583 0.59359 0.67021 0.0
C276 C 0.06648 0.61675 0.80623 0.0
N277 N 0.09044 0.64078 0.81464 0.0
C278 C 0.05117 0.5967 0.83154 0.0
C279 C 0.06057 0.60136 0.86562 0.0
C280 C 0.08509 0.62589 0.87397 0.0
C281 C 0.09989 0.64545 0.84798 0.0
C282 C 0.06396 0.74686 0.83301 0.0
C283 C 0.128 0.73381 0.80583 0.0
C284 C 0.07102 0.71596 0.81652 0.0
N285 N 0.10278 0.70971 0.80334 0.0
C286 C 0.12187 0.765 0.82213 0.0
C287 C 0.08961 0.77149 0.83581 0.0
C288 C 0.14823 0.69007 0.71372 0.0
C289 C 0.09114 0.55458 0.67769 0.0
C290 C 0.13967 0.60299 0.65975 0.0
C291 C 0.11976 0.58774 0.63429 0.0
C292 C 0.09534 0.56339 0.6434 0.0
N293 N 0.13545 0.59414 0.69331 0.0
C294 C 0.11155 0.57033 0.70245 0.0
Co295 Co 0.3874 0.16284 0.71842 0.0
Co296 Co 0.33482 0.11741 0.7727 0.0
O297 O 0.37671 0.12245 0.74597 0.0
C298 C 0.43914 0.16219 0.77323 0.0
O299 O 0.41547 0.14956 0.79334 0.0
C300 C 0.33062 0.06257 0.72093 0.0
O301 O 0.34621 0.08308 0.69942 0.0
O302 O 0.30679 0.13832 0.73565 0.0
O303 O 0.34188 0.15983 0.69558 0.0
H304 H 0.22299 0.15699 0.82211 0.0
H305 H 0.43662 0.10529 0.72073 0.0
O306 O 0.43285 0.16762 0.74169 0.0
H307 H 0.40279 0.11567 0.59962 0.0
H308 H 0.46416 0.23759 0.64687 0.0
H309 H 0.34918 0.22484 0.69711 0.0
H310 H 0.37936 0.15506 0.64299 0.0
H311 H 0.44966 0.18674 0.68139 0.0
O312 O 0.32605 0.0715 0.75194 0.0
H313 H 0.27644 0.16292 0.78914 0.0
H314 H 0.30367 0.06046 0.81288 0.0
H315 H 0.36243 0.27589 0.6625 0.0
H316 H 0.46094 0.06552 0.67818 0.0
H317 H 0.42031 0.28252 0.63711 0.0
H318 H 0.44394 0.07055 0.61714 0.0
O319 O 0.36774 0.19447 0.75308 0.0
H320 H 0.42351 0.03744 0.82005 0.0
H321 H 0.34109 0.12873 0.84794 0.0
H322 H 0.37721 0.10446 0.89366 0.0
H323 H 0.41881 0.0585 0.87981 0.0
H324 H 0.38707 0.06265 0.77506 0.0
H325 H 0.25034 0.05328 0.84587 0.0
H326 H 0.20963 0.10181 0.85072 0.0
O327 O 0.34172 0.1633 0.79348 0.0
C328 C 0.3121 0.15237 0.70665 0.0
C329 C 0.24058 0.13568 0.82029 0.0
C330 C 0.25593 0.07748 0.83361 0.0
N331 N 0.29329 0.11216 0.79935 0.0
C332 C 0.27094 0.13893 0.80175 0.0
C333 C 0.28606 0.08168 0.81489 0.0
C334 C 0.23309 0.10471 0.83631 0.0
C335 C 0.42936 0.10779 0.69417 0.0
N336 N 0.40676 0.13254 0.6843 0.0
C337 C 0.4431 0.08514 0.67021 0.0
C338 C 0.43352 0.08794 0.63598 0.0
C339 C 0.41041 0.11324 0.62613 0.0
C340 C 0.39717 0.13542 0.6508 0.0
C341 C 0.43881 0.23492 0.65768 0.0
C342 C 0.3743 0.22735 0.68584 0.0
C343 C 0.43046 0.2062 0.67725 0.0
N344 N 0.39844 0.20259 0.69082 0.0
C345 C 0.38171 0.25641 0.6664 0.0
C346 C 0.4142 0.26013 0.65221 0.0
C347 C 0.35231 0.19174 0.78164 0.0
C348 C 0.40541 0.05738 0.82642 0.0
C349 C 0.35911 0.10871 0.84173 0.0
C350 C 0.37947 0.09504 0.86773 0.0
C351 C 0.40279 0.06924 0.85994 0.0
N352 N 0.36187 0.09696 0.80891 0.0
C353 C 0.38461 0.07163 0.80109 0.0
Co354 Co 0.83268 0.38416 0.72431 0.0
Co355 Co 0.88495 0.33542 0.77616 0.0
O356 O 0.87516 0.3766 0.74959 0.0
C357 C 0.83329 0.43755 0.77736 0.0
O358 O 0.84693 0.4149 0.798 0.0
C359 C 0.93758 0.33522 0.72211 0.0
O360 O 0.91483 0.34827 0.70118 0.0
O361 O 0.86524 0.30536 0.74001 0.0
O362 O 0.83675 0.33835 0.7026 0.0
H363 H 0.8582 0.22012 0.82636 0.0
H364 H 0.88759 0.43639 0.72141 0.0
O365 O 0.8271 0.42996 0.74627 0.0
H366 H 0.87135 0.39811 0.6023 0.0
H367 H 0.74944 0.45437 0.65551 0.0
H368 H 0.77168 0.34194 0.70824 0.0
H369 H 0.83608 0.37408 0.6488 0.0
H370 H 0.80314 0.44377 0.68697 0.0
O371 O 0.93054 0.33085 0.75363 0.0
H372 H 0.84596 0.27277 0.79385 0.0
H373 H 0.94588 0.31016 0.81457 0.0
H374 H 0.71778 0.35131 0.67679 0.0
H375 H 0.92325 0.46133 0.67566 0.0
H376 H 0.70639 0.40789 0.65015 0.0
H377 H 0.91527 0.4421 0.61562 0.0
O378 O 0.80441 0.36389 0.76155 0.0
H379 H 0.9581 0.43165 0.81985 0.0
H380 H 0.87649 0.34091 0.85188 0.0
H381 H 0.89907 0.3795 0.89641 0.0
H382 H 0.94017 0.42531 0.88047 0.0
H383 H 0.9346 0.39265 0.77609 0.0
H384 H 0.95931 0.25779 0.84718 0.0
H385 H 0.91525 0.21236 0.85329 0.0
O386 O 0.83949 0.33803 0.79876 0.0
C387 C 0.84831 0.30948 0.71242 0.0
C388 C 0.87758 0.23978 0.82399 0.0
C389 C 0.93431 0.26093 0.83568 0.0
N390 N 0.89506 0.29466 0.80262 0.0
C391 C 0.87076 0.2697 0.80569 0.0
C392 C 0.92656 0.29053 0.81721 0.0
C393 C 0.90959 0.23544 0.83908 0.0
C394 C 0.88379 0.42815 0.6953 0.0
N395 N 0.85968 0.40398 0.68774 0.0
C396 C 0.90413 0.44225 0.66952 0.0
C397 C 0.89967 0.43142 0.63585 0.0
C398 C 0.87504 0.40672 0.62835 0.0
C399 C 0.8552 0.39316 0.65479 0.0
C400 C 0.75417 0.42957 0.66688 0.0
C401 C 0.76705 0.36651 0.69643 0.0
C402 C 0.78452 0.42343 0.68473 0.0
N403 N 0.79073 0.39212 0.69901 0.0
C404 C 0.73642 0.37172 0.67878 0.0
C405 C 0.73003 0.40348 0.66388 0.0
C406 C 0.80986 0.34765 0.7893 0.0
C407 C 0.94027 0.41175 0.82712 0.0
C408 C 0.89431 0.36079 0.84475 0.0
C409 C 0.90708 0.38253 0.87008 0.0
C410 C 0.93017 0.4082 0.86113 0.0
N411 N 0.90429 0.36448 0.81145 0.0
C412 C 0.927 0.38951 0.80249 0.0
Co413 Co 0.66135 0.88602 0.77659 0.0
Co414 Co 0.61181 0.83484 0.72433 0.0
O415 O 0.61994 0.87706 0.74996 0.0
C416 C 0.6629 0.9383 0.72214 0.0
O417 O 0.64821 0.91611 0.70169 0.0
C418 C 0.55867 0.8356 0.77781 0.0
O419 O 0.58139 0.84957 0.79816 0.0
O420 O 0.6321 0.8063 0.76112 0.0
O421 O 0.65767 0.84054 0.79939 0.0
H422 H 0.64319 0.71962 0.67686 0.0
H423 H 0.60561 0.93724 0.77642 0.0
O424 O 0.66724 0.93143 0.75372 0.0
H425 H 0.61749 0.90111 0.89672 0.0
H426 H 0.74092 0.95938 0.84651 0.0
H427 H 0.72321 0.84589 0.79435 0.0
H428 H 0.65542 0.87742 0.8522 0.0
H429 H 0.68803 0.94666 0.81445 0.0
O430 O 0.56607 0.82919 0.74671 0.0
H431 H 0.65338 0.77362 0.70786 0.0
H432 H 0.55174 0.80588 0.68721 0.0
H433 H 0.77636 0.85741 0.82636 0.0
H434 H 0.56728 0.96179 0.82015 0.0
H435 H 0.78551 0.91454 0.85267 0.0
H436 H 0.57301 0.94357 0.88076 0.0
O437 O 0.69087 0.86569 0.7406 0.0
H438 H 0.5347 0.92607 0.67703 0.0
H439 H 0.62121 0.83876 0.64877 0.0
H440 H 0.59688 0.87444 0.60271 0.0
H441 H 0.55325 0.91843 0.61675 0.0
H442 H 0.55993 0.89001 0.72231 0.0
H443 H 0.54034 0.75212 0.65612 0.0
H444 H 0.5863 0.70859 0.65073 0.0
O445 O 0.65759 0.83885 0.70221 0.0
C446 C 0.64776 0.81117 0.78927 0.0
C447 C 0.62302 0.73848 0.67883 0.0
C448 C 0.56528 0.7567 0.66724 0.0
N449 N 0.60336 0.7931 0.69886 0.0
C450 C 0.6287 0.76918 0.6962 0.0
C451 C 0.57188 0.7871 0.68485 0.0
C452 C 0.59108 0.73229 0.66423 0.0
C453 C 0.60848 0.92951 0.80281 0.0
N454 N 0.63279 0.90609 0.8118 0.0
C455 C 0.58663 0.94337 0.82743 0.0
C456 C 0.58983 0.93311 0.86143 0.0
C457 C 0.61476 0.90926 0.8704 0.0
C458 C 0.63613 0.89591 0.84508 0.0
C459 C 0.73715 0.93433 0.83533 0.0
C460 C 0.72682 0.87067 0.80608 0.0
C461 C 0.70724 0.92696 0.8172 0.0
N462 N 0.70233 0.8954 0.80299 0.0
C463 C 0.75704 0.8771 0.82403 0.0
C464 C 0.76217 0.90917 0.83875 0.0
C465 C 0.6866 0.84969 0.71253 0.0
C466 C 0.55362 0.90693 0.67058 0.0
C467 C 0.60229 0.85791 0.65506 0.0
C468 C 0.58856 0.87799 0.62888 0.0
C469 C 0.56407 0.90266 0.63677 0.0
N470 N 0.59183 0.86221 0.68813 0.0
C471 C 0.56788 0.88636 0.69609 0.0
Co472 Co 0.27721 0.16616 0.38329 0.0
Co473 Co 0.22437 0.1148 0.33475 0.0
O474 O 0.25119 0.12408 0.37593 0.0
C475 C 0.22424 0.16743 0.4369 0.0
O476 O 0.20335 0.15322 0.4148 0.0
C477 C 0.27897 0.06298 0.33314 0.0
O478 O 0.29937 0.08571 0.34705 0.0
O479 O 0.25993 0.13532 0.30461 0.0
O480 O 0.29888 0.16158 0.33759 0.0
H481 H 0.17271 0.14336 0.22054 0.0
H482 H 0.27923 0.11171 0.43598 0.0
O483 O 0.25547 0.17248 0.42911 0.0
H484 H 0.39852 0.12519 0.39721 0.0
H485 H 0.34895 0.24799 0.45236 0.0
H486 H 0.29318 0.22719 0.34111 0.0
H487 H 0.35267 0.16116 0.373 0.0
H488 H 0.31665 0.19471 0.44209 0.0
O489 O 0.24733 0.06953 0.32893 0.0
H490 H 0.20565 0.15487 0.27309 0.0
H491 H 0.18634 0.05399 0.30858 0.0
H492 H 0.32548 0.28066 0.35012 0.0
H493 H 0.32434 0.0754 0.46113 0.0
H494 H 0.35362 0.29135 0.40611 0.0
H495 H 0.38446 0.08199 0.44165 0.0
O496 O 0.24028 0.19483 0.36284 0.0
H497 H 0.18205 0.03835 0.42895 0.0
H498 H 0.14872 0.12271 0.34127 0.0
H499 H 0.10459 0.09823 0.37916 0.0
H500 H 0.12118 0.05567 0.42336 0.0
H501 H 0.22539 0.06377 0.3907 0.0
H502 H 0.15337 0.04126 0.25627 0.0
H503 H 0.14631 0.08617 0.21184 0.0
O504 O 0.20158 0.16008 0.3386 0.0
C505 C 0.28814 0.15118 0.30863 0.0
C506 C 0.17548 0.12361 0.23976 0.0
C507 C 0.16462 0.06632 0.25982 0.0
N508 N 0.19757 0.10526 0.29406 0.0
C509 C 0.19401 0.13002 0.26963 0.0
C510 C 0.18329 0.07368 0.28939 0.0
C511 C 0.16069 0.09152 0.23489 0.0
C512 C 0.30539 0.11492 0.42763 0.0
N513 N 0.31336 0.13865 0.40323 0.0
C514 C 0.3308 0.09421 0.44185 0.0
C515 C 0.36452 0.09788 0.43088 0.0
C516 C 0.37243 0.12211 0.40593 0.0
C517 C 0.34635 0.14235 0.39226 0.0
C518 C 0.33689 0.24359 0.42781 0.0
C519 C 0.30557 0.23154 0.36545 0.0
C520 C 0.31854 0.21349 0.42188 0.0
N521 N 0.30327 0.20774 0.39095 0.0
C522 C 0.32374 0.26192 0.37043 0.0
C523 C 0.33949 0.26791 0.40186 0.0
C524 C 0.21191 0.18968 0.34749 0.0
C525 C 0.1745 0.05682 0.40974 0.0
C526 C 0.15613 0.10432 0.36052 0.0
C527 C 0.13103 0.09047 0.38185 0.0
C528 C 0.14035 0.06658 0.40662 0.0
N529 N 0.18955 0.09458 0.36372 0.0
C530 C 0.19889 0.07119 0.38795 0.0
Co531 Co 0.88695 0.22272 0.33499 0.0
Co532 Co 0.83781 0.27761 0.38292 0.0
O533 O 0.87943 0.25116 0.37541 0.0
C534 C 0.93764 0.27862 0.33032 0.0
O535 O 0.91495 0.29863 0.34472 0.0
C536 C 0.83749 0.22559 0.43788 0.0
O537 O 0.8533 0.20482 0.41683 0.0
O538 O 0.80875 0.24051 0.36348 0.0
O539 O 0.84264 0.1989 0.34315 0.0
H540 H 0.72369 0.3266 0.34979 0.0
H541 H 0.94149 0.22818 0.38746 0.0
O542 O 0.93106 0.24706 0.32527 0.0
H543 H 0.91052 0.10591 0.38372 0.0
H544 H 0.9581 0.15064 0.25551 0.0
H545 H 0.84351 0.19832 0.27763 0.0
H546 H 0.88203 0.14742 0.34565 0.0
H547 H 0.94766 0.18667 0.30626 0.0
O548 O 0.83159 0.25649 0.42924 0.0
H549 H 0.77697 0.29412 0.34068 0.0
H550 H 0.8097 0.31728 0.44168 0.0
H551 H 0.85268 0.16218 0.22682 0.0
H552 H 0.97088 0.18752 0.42578 0.0
H553 H 0.91035 0.13802 0.21548 0.0
H554 H 0.95536 0.12591 0.4241 0.0
O555 O 0.86279 0.25559 0.30447 0.0
H556 H 0.93071 0.32505 0.45799 0.0
H557 H 0.84319 0.35287 0.37145 0.0
H558 H 0.88049 0.39868 0.3938 0.0
H559 H 0.92465 0.38485 0.43736 0.0
H560 H 0.89304 0.27999 0.43473 0.0
H561 H 0.75663 0.34983 0.45199 0.0
H562 H 0.71323 0.35471 0.4058 0.0
O563 O 0.84207 0.29846 0.33663 0.0
C564 C 0.81324 0.21071 0.3509 0.0
C565 C 0.74247 0.32478 0.37007 0.0
C566 C 0.76095 0.3378 0.42744 0.0
N567 N 0.79654 0.30406 0.39053 0.0
C568 C 0.77274 0.30652 0.36503 0.0
C569 C 0.79093 0.31933 0.42147 0.0
C570 C 0.7366 0.34051 0.40152 0.0
C571 C 0.93485 0.20136 0.38637 0.0
N572 N 0.91026 0.19013 0.36421 0.0
C573 C 0.95146 0.17848 0.40822 0.0
C574 C 0.94271 0.14392 0.4073 0.0
C575 C 0.91754 0.13268 0.38466 0.0
C576 C 0.90145 0.1563 0.36322 0.0
C577 C 0.93283 0.1609 0.26024 0.0
C578 C 0.8686 0.18771 0.27304 0.0
C579 C 0.92678 0.18134 0.28891 0.0
N580 N 0.89488 0.19419 0.29516 0.0
C581 C 0.87367 0.16735 0.24414 0.0
C582 C 0.90603 0.15383 0.23779 0.0
C583 C 0.84852 0.28466 0.30787 0.0
C584 C 0.91149 0.33141 0.43909 0.0
C585 C 0.86233 0.34669 0.39044 0.0
C586 C 0.88334 0.37272 0.40302 0.0
C587 C 0.9081 0.36495 0.42748 0.0
N588 N 0.86583 0.31385 0.40196 0.0
C589 C 0.89 0.30604 0.42596 0.0
Co590 Co 0.72339 0.82857 0.38167 0.0
Co591 Co 0.77051 0.88439 0.33192 0.0
O592 O 0.74593 0.87238 0.37372 0.0
C593 C 0.77725 0.83216 0.4339 0.0
O594 O 0.79676 0.84631 0.41056 0.0
C595 C 0.71383 0.93375 0.33432 0.0
O596 O 0.69356 0.90788 0.34111 0.0
O597 O 0.73415 0.86388 0.30266 0.0
O598 O 0.701 0.83089 0.33606 0.0
H599 H 0.8174 0.86436 0.21395 0.0
H600 H 0.71751 0.88344 0.43356 0.0
O601 O 0.74625 0.82461 0.4272 0.0
H602 H 0.59925 0.85904 0.39688 0.0
H603 H 0.6617 0.74083 0.45305 0.0
H604 H 0.711 0.7665 0.33982 0.0
H605 H 0.64771 0.82688 0.37242 0.0
H606 H 0.68881 0.79675 0.44176 0.0
O607 O 0.74589 0.92924 0.33069 0.0
H608 H 0.78788 0.84847 0.26739 0.0
H609 H 0.80386 0.94834 0.30712 0.0
H610 H 0.684 0.71036 0.34991 0.0
H611 H 0.66979 0.91606 0.4589 0.0
H612 H 0.65911 0.69722 0.40689 0.0
H613 H 0.61017 0.90395 0.4405 0.0
O614 O 0.76205 0.80301 0.36122 0.0
H615 H 0.81571 0.95641 0.42834 0.0
H616 H 0.84655 0.87864 0.33395 0.0
H617 H 0.89196 0.90205 0.37106 0.0
H618 H 0.87662 0.94121 0.41867 0.0
H619 H 0.7711 0.93216 0.39083 0.0
H620 H 0.83341 0.9654 0.25401 0.0
H621 H 0.84041 0.92322 0.20701 0.0
O622 O 0.79515 0.83961 0.33186 0.0
C623 C 0.70863 0.84403 0.3072 0.0
C624 C 0.81471 0.88291 0.23433 0.0
C625 C 0.82364 0.93963 0.2568 0.0
N626 N 0.79463 0.89728 0.29054 0.0
C627 C 0.79818 0.874 0.26472 0.0
C628 C 0.8069 0.92982 0.2868 0.0
C629 C 0.82756 0.91595 0.23043 0.0
C630 C 0.6916 0.87787 0.42565 0.0
N631 N 0.68535 0.85318 0.40173 0.0
C632 C 0.6647 0.89649 0.43999 0.0
C633 C 0.63126 0.88971 0.42962 0.0
C634 C 0.62511 0.86452 0.40513 0.0
C635 C 0.65265 0.84644 0.39133 0.0
C636 C 0.67232 0.74631 0.42807 0.0
C637 C 0.69991 0.76111 0.36457 0.0
C638 C 0.68769 0.77792 0.42154 0.0
N639 N 0.70104 0.78504 0.39003 0.0
C640 C 0.68479 0.72921 0.37018 0.0
C641 C 0.67088 0.72185 0.40216 0.0
C642 C 0.78832 0.80978 0.34323 0.0
C643 C 0.82272 0.93945 0.40762 0.0
C644 C 0.83969 0.89567 0.35462 0.0
C645 C 0.86551 0.90888 0.37551 0.0
C646 C 0.85689 0.93088 0.4022 0.0
N647 N 0.80624 0.90418 0.36013 0.0
C648 C 0.79759 0.92577 0.38621 0.0
Co649 Co 0.11398 0.78172 0.32709 0.0
Co650 Co 0.16205 0.73425 0.38397 0.0
O651 O 0.12034 0.75865 0.37095 0.0
C652 C 0.06213 0.72701 0.32688 0.0
O653 O 0.08385 0.70781 0.34377 0.0
C654 C 0.15776 0.79163 0.43234 0.0
O655 O 0.14841 0.81083 0.40651 0.0
O656 O 0.19186 0.77017 0.36351 0.0
O657 O 0.159 0.80496 0.33191 0.0
H658 H 0.27982 0.68627 0.36552 0.0
H659 H 0.0596 0.78567 0.37955 0.0
O660 O 0.06909 0.75819 0.32036 0.0
H661 H 0.09449 0.90511 0.35852 0.0
H662 H 0.04624 0.84408 0.23694 0.0
H663 H 0.15847 0.79511 0.26718 0.0
H664 H 0.12143 0.85773 0.32679 0.0
H665 H 0.05514 0.81646 0.29302 0.0
O666 O 0.16336 0.75978 0.42836 0.0
H667 H 0.2268 0.71615 0.34891 0.0
H668 H 0.18613 0.70161 0.44857 0.0
H669 H 0.15082 0.82277 0.21102 0.0
H670 H 0.0317 0.83229 0.41169 0.0
H671 H 0.09433 0.84742 0.19554 0.0
H672 H 0.04921 0.8925 0.40129 0.0
O673 O 0.13604 0.74363 0.30199 0.0
H674 H 0.06525 0.69064 0.45639 0.0
H675 H 0.15965 0.65815 0.37933 0.0
H676 H 0.1225 0.61324 0.40361 0.0
H677 H 0.07493 0.6294 0.44248 0.0
H678 H 0.10286 0.73473 0.43131 0.0
H679 H 0.23882 0.67174 0.46638 0.0
H680 H 0.28606 0.6638 0.42465 0.0
O681 O 0.1622 0.70892 0.33958 0.0
C682 C 0.18771 0.79661 0.34486 0.0
C683 C 0.25933 0.68935 0.38387 0.0
C684 C 0.23633 0.68126 0.44049 0.0
N685 N 0.20319 0.7101 0.39757 0.0
C686 C 0.22918 0.7061 0.37456 0.0
C687 C 0.20657 0.69818 0.43027 0.0
C688 C 0.26283 0.67681 0.41707 0.0
C689 C 0.06714 0.81184 0.37474 0.0
N690 N 0.09202 0.81901 0.35127 0.0
C691 C 0.05135 0.83811 0.39307 0.0
C692 C 0.06122 0.87189 0.38725 0.0
C693 C 0.08664 0.87898 0.36328 0.0
C694 C 0.10188 0.85205 0.34546 0.0
C695 C 0.07101 0.83356 0.24344 0.0
C696 C 0.1339 0.80608 0.26079 0.0
C697 C 0.0762 0.81792 0.27516 0.0
N698 N 0.1074 0.80458 0.28353 0.0
C699 C 0.12969 0.82159 0.22888 0.0
C700 C 0.098 0.8354 0.22021 0.0
C701 C 0.15244 0.71648 0.30937 0.0
C702 C 0.08595 0.68327 0.43956 0.0
C703 C 0.13895 0.66537 0.39616 0.0
C704 C 0.11804 0.63983 0.40988 0.0
C705 C 0.09137 0.64892 0.43171 0.0
N706 N 0.1335 0.69899 0.40405 0.0
C707 C 0.10739 0.70811 0.42539 0.0
Co708 Co 0.21676 0.88458 0.66736 0.0
Co709 Co 0.26541 0.83689 0.611 0.0
O710 O 0.24112 0.87843 0.62434 0.0
C711 C 0.2711 0.93665 0.66946 0.0
O712 O 0.29125 0.91408 0.65499 0.0
C713 C 0.21025 0.84239 0.56021 0.0
O714 O 0.18981 0.84973 0.58577 0.0
O715 O 0.22834 0.80679 0.62903 0.0
O716 O 0.1943 0.83926 0.66196 0.0
H717 H 0.31238 0.71803 0.62602 0.0
H718 H 0.21411 0.93881 0.61456 0.0
O719 O 0.23964 0.92976 0.67455 0.0
H720 H 0.09434 0.90301 0.63165 0.0
H721 H 0.14984 0.95162 0.75462 0.0
H722 H 0.20118 0.83987 0.72668 0.0
H723 H 0.14084 0.87666 0.66516 0.0
H724 H 0.18037 0.94314 0.70004 0.0
O725 O 0.2421 0.83788 0.56544 0.0
H726 H 0.28213 0.77037 0.6438 0.0
H727 H 0.30022 0.81543 0.54675 0.0
H728 H 0.17053 0.84708 0.78131 0.0
H729 H 0.16839 0.96618 0.58069 0.0
H730 H 0.14463 0.90331 0.79561 0.0
H731 H 0.10801 0.94821 0.58909 0.0
O732 O 0.25409 0.86246 0.69374 0.0
H733 H 0.31384 0.93547 0.54418 0.0
H734 H 0.34109 0.83826 0.61987 0.0
H735 H 0.38765 0.8756 0.59924 0.0
H736 H 0.37413 0.92457 0.56106 0.0
H737 H 0.26806 0.89768 0.56568 0.0
H738 H 0.33046 0.76348 0.52766 0.0
H739 H 0.33683 0.71434 0.56748 0.0
O740 O 0.28815 0.83426 0.65668 0.0
C741 C 0.20236 0.81073 0.64841 0.0
C742 C 0.30995 0.73932 0.60848 0.0
C743 C 0.32004 0.76481 0.55328 0.0
N744 N 0.28976 0.79609 0.59659 0.0
C745 C 0.29297 0.76909 0.61852 0.0
C746 C 0.30286 0.79415 0.56423 0.0
C747 C 0.32361 0.73726 0.57563 0.0
C748 C 0.18786 0.93106 0.61851 0.0
N749 N 0.18012 0.90621 0.64185 0.0
C750 C 0.1621 0.94656 0.5992 0.0
C751 C 0.12823 0.93643 0.60389 0.0
C752 C 0.12055 0.91106 0.62774 0.0
C753 C 0.14698 0.89612 0.64656 0.0
C754 C 0.16093 0.92698 0.74864 0.0
C755 C 0.18979 0.86436 0.7326 0.0
C756 C 0.1783 0.92205 0.71781 0.0
N757 N 0.19232 0.89099 0.71007 0.0
C758 C 0.17254 0.86831 0.76363 0.0
C759 C 0.15803 0.89986 0.77163 0.0
C760 C 0.28011 0.8442 0.68672 0.0
C761 C 0.32007 0.91416 0.56073 0.0
C762 C 0.33502 0.85959 0.60335 0.0
C763 C 0.36149 0.88059 0.59169 0.0
C764 C 0.35388 0.90806 0.57025 0.0
N765 N 0.30194 0.86572 0.59384 0.0
C766 C 0.29427 0.89261 0.57287 0.0
Co767 Co 0.1661 0.27901 0.6126 0.0
Co768 Co 0.11704 0.22735 0.66462 0.0
O769 O 0.12445 0.25304 0.62235 0.0
C770 C 0.16612 0.22421 0.56083 0.0
O771 O 0.15126 0.20407 0.58317 0.0
C772 C 0.06388 0.28102 0.66628 0.0
O773 O 0.08552 0.3018 0.65123 0.0
O774 O 0.13832 0.26415 0.69289 0.0
O775 O 0.16289 0.30221 0.65769 0.0
H776 H 0.15051 0.17947 0.77916 0.0
H777 H 0.10972 0.27866 0.56203 0.0
O778 O 0.17124 0.25568 0.56752 0.0
H779 H 0.12424 0.39956 0.5951 0.0
H780 H 0.24579 0.34727 0.53781 0.0
H781 H 0.22823 0.29713 0.65223 0.0
H782 H 0.16125 0.35485 0.61985 0.0
H783 H 0.19281 0.31564 0.55118 0.0
O784 O 0.07168 0.2498 0.67136 0.0
H785 H 0.15957 0.21108 0.72531 0.0
H786 H 0.0578 0.18924 0.69409 0.0
H787 H 0.28146 0.32874 0.64005 0.0
H788 H 0.07231 0.32257 0.53636 0.0
H789 H 0.29053 0.35405 0.58246 0.0
H790 H 0.07942 0.38351 0.55297 0.0
O791 O 0.19582 0.24301 0.63307 0.0
H792 H 0.0375 0.18111 0.57488 0.0
H793 H 0.12588 0.15166 0.65999 0.0
H794 H 0.10043 0.10604 0.62454 0.0
H795 H 0.05586 0.12066 0.58166 0.0
H796 H 0.06385 0.22597 0.61067 0.0
H797 H 0.04751 0.1576 0.74773 0.0
H798 H 0.09411 0.15248 0.79066 0.0
O799 O 0.16229 0.20483 0.65967 0.0
C800 C 0.15394 0.2923 0.6874 0.0
C801 C 0.13005 0.18138 0.76059 0.0
C802 C 0.07224 0.16911 0.74295 0.0
N803 N 0.10937 0.20167 0.70642 0.0
C804 C 0.13506 0.19914 0.72999 0.0
C805 C 0.07821 0.18705 0.71263 0.0
C806 C 0.09839 0.16627 0.76704 0.0
C807 C 0.1131 0.30517 0.56916 0.0
N808 N 0.13768 0.31422 0.59231 0.0
C809 C 0.09179 0.3299 0.55465 0.0
C810 C 0.09576 0.36408 0.564 0.0
C811 C 0.12089 0.3731 0.58766 0.0
C812 C 0.1417 0.34767 0.60167 0.0
C813 C 0.24207 0.33651 0.56305 0.0
C814 C 0.23184 0.30835 0.62721 0.0
C815 C 0.21211 0.31861 0.57078 0.0
N816 N 0.20724 0.30495 0.60259 0.0
C817 C 0.26209 0.32611 0.62042 0.0
C818 C 0.26717 0.34028 0.5881 0.0
C819 C 0.19136 0.2149 0.64897 0.0
C820 C 0.05683 0.17441 0.59354 0.0
C821 C 0.10656 0.15822 0.64132 0.0
C822 C 0.0922 0.13228 0.62137 0.0
C823 C 0.06717 0.1405 0.59733 0.0
N824 N 0.0962 0.1914 0.63751 0.0
C825 C 0.07173 0.19967 0.61397 0.0
Co826 Co 0.77888 0.11286 0.66309 0.0
Co827 Co 0.72589 0.16387 0.61457 0.0
O828 O 0.75243 0.12209 0.62162 0.0
C829 C 0.72448 0.06032 0.66393 0.0
O830 O 0.70419 0.08274 0.64942 0.0
C831 C 0.78017 0.16761 0.56211 0.0
O832 O 0.80063 0.15204 0.58367 0.0
O833 O 0.76171 0.19269 0.63667 0.0
O834 O 0.80162 0.15827 0.65927 0.0
H835 H 0.67338 0.27562 0.65023 0.0
H836 H 0.77837 0.06165 0.6073 0.0
O837 O 0.75594 0.06738 0.66886 0.0
H838 H 0.89897 0.09674 0.61945 0.0
H839 H 0.85011 0.03975 0.7417 0.0
H840 H 0.79719 0.15299 0.72485 0.0
H841 H 0.85452 0.12119 0.65693 0.0
H842 H 0.81698 0.05222 0.68944 0.0
O843 O 0.74876 0.17216 0.56951 0.0
H844 H 0.70678 0.22276 0.6584 0.0
H845 H 0.68836 0.19393 0.55527 0.0
H846 H 0.8304 0.14177 0.7773 0.0
H847 H 0.82203 0.03626 0.56947 0.0
H848 H 0.85712 0.08478 0.78601 0.0
H849 H 0.88282 0.05388 0.57539 0.0
O850 O 0.74306 0.1334 0.69302 0.0
H851 H 0.68293 0.07426 0.53312 0.0
H852 H 0.65017 0.15747 0.622 0.0
H853 H 0.60576 0.12134 0.59541 0.0
H854 H 0.62206 0.07941 0.55055 0.0
H855 H 0.72655 0.1107 0.56068 0.0
H856 H 0.65508 0.24671 0.54583 0.0
H857 H 0.64729 0.28791 0.59358 0.0
O858 O 0.70318 0.15749 0.65962 0.0
C859 C 0.79046 0.18784 0.65134 0.0
C860 C 0.6765 0.25783 0.62924 0.0
C861 C 0.66623 0.2416 0.57066 0.0
N862 N 0.69924 0.20513 0.60743 0.0
C863 C 0.6953 0.22779 0.63375 0.0
C864 C 0.68513 0.21178 0.57614 0.0
C865 C 0.66188 0.26471 0.59746 0.0
C866 C 0.80481 0.06919 0.6102 0.0
N867 N 0.81393 0.09272 0.63438 0.0
C868 C 0.8294 0.05484 0.58863 0.0
C869 C 0.8635 0.06478 0.59194 0.0
C870 C 0.87257 0.08884 0.61664 0.0
C871 C 0.84729 0.10267 0.63773 0.0
C872 C 0.83871 0.06473 0.73815 0.0
C873 C 0.80894 0.12821 0.72833 0.0
C874 C 0.8199 0.07192 0.70862 0.0
N875 N 0.80546 0.10341 0.70394 0.0
C876 C 0.82764 0.12197 0.75814 0.0
C877 C 0.84261 0.08999 0.76301 0.0
C878 C 0.71434 0.14828 0.68882 0.0
C879 C 0.67551 0.09248 0.55258 0.0
C880 C 0.65746 0.13917 0.60264 0.0
C881 C 0.6322 0.11885 0.58759 0.0
C882 C 0.64136 0.09535 0.56241 0.0
N883 N 0.69088 0.13624 0.59282 0.0
C884 C 0.70006 0.11325 0.56818 0.0
Co885 Co 0.83574 0.7315 0.61576 0.0
Co886 Co 0.88608 0.78447 0.66599 0.0
O887 O 0.87712 0.75845 0.62407 0.0
C888 C 0.83417 0.78369 0.56164 0.0
O889 O 0.84544 0.80541 0.58446 0.0
C890 C 0.93836 0.72977 0.66595 0.0
O891 O 0.91507 0.70932 0.65309 0.0
O892 O 0.86584 0.74806 0.69586 0.0
O893 O 0.83933 0.71025 0.66173 0.0
H894 H 0.88646 0.88893 0.74296 0.0
H895 H 0.89173 0.72973 0.56481 0.0
O896 O 0.83023 0.75235 0.56943 0.0
H897 H 0.87824 0.6105 0.60391 0.0
H898 H 0.75614 0.65888 0.54497 0.0
H899 H 0.77402 0.71485 0.65659 0.0
H900 H 0.8411 0.65613 0.62668 0.0
H901 H 0.80871 0.69198 0.55624 0.0
O902 O 0.93153 0.76126 0.6709 0.0
H903 H 0.87408 0.85741 0.69044 0.0
H904 H 0.91974 0.76809 0.7317 0.0
H905 H 0.72123 0.68177 0.64655 0.0
H906 H 0.92925 0.68484 0.54112 0.0
H907 H 0.71202 0.65349 0.59038 0.0
H908 H 0.92267 0.62475 0.56077 0.0
O909 O 0.80641 0.76823 0.63515 0.0
H910 H 0.97914 0.83847 0.59322 0.0
H911 H 0.86122 0.85194 0.6346 0.0
H912 H 0.88572 0.89536 0.5977 0.0
H913 H 0.94518 0.88936 0.57656 0.0
H914 H 0.95435 0.79506 0.62977 0.0
H915 H 0.93284 0.79876 0.7849 0.0
H916 H 0.91615 0.85976 0.79096 0.0
O917 O 0.83944 0.80559 0.66397 0.0
C918 C 0.8495 0.72016 0.69105 0.0
C919 C 0.89396 0.86237 0.74066 0.0
C920 C 0.91993 0.81185 0.76419 0.0
N921 N 0.89615 0.81063 0.70737 0.0
C922 C 0.88698 0.84422 0.71067 0.0
C923 C 0.91243 0.79456 0.73384 0.0
C924 C 0.91057 0.84602 0.76757 0.0
C925 C 0.88854 0.70357 0.57322 0.0
N926 N 0.86416 0.69551 0.59691 0.0
C927 C 0.90993 0.6783 0.55983 0.0
C928 C 0.90625 0.6446 0.5709 0.0
C929 C 0.88133 0.63658 0.59512 0.0
C930 C 0.86042 0.66253 0.60796 0.0
C931 C 0.75993 0.67095 0.56961 0.0
C932 C 0.77037 0.70232 0.63222 0.0
C933 C 0.78965 0.68972 0.57613 0.0
N934 N 0.79468 0.70488 0.60724 0.0
C935 C 0.74035 0.68375 0.62662 0.0
C936 C 0.73518 0.66793 0.59509 0.0
C937 C 0.8104 0.79551 0.65267 0.0
C938 C 0.95334 0.84169 0.60274 0.0
C939 C 0.88733 0.84846 0.62668 0.0
C940 C 0.90103 0.87355 0.60523 0.0
C941 C 0.93431 0.87017 0.59331 0.0
N942 N 0.9062 0.82056 0.6367 0.0
C943 C 0.93884 0.81704 0.6242 0.0
Co944 Co 0.33585 0.22207 0.11211 0.0
Co945 Co 0.38518 0.27431 0.16333 0.0
O946 O 0.37772 0.24779 0.1216 0.0
C947 C 0.33739 0.27627 0.05988 0.0
O948 O 0.35116 0.29628 0.083 0.0
C949 C 0.43771 0.22021 0.16663 0.0
O950 O 0.41619 0.19941 0.15143 0.0
O951 O 0.36366 0.23812 0.19209 0.0
O952 O 0.33898 0.19943 0.15756 0.0
H953 H 0.35196 0.32443 0.27691 0.0
H954 H 0.39233 0.22131 0.06164 0.0
O955 O 0.33107 0.24502 0.06667 0.0
H956 H 0.37656 0.10096 0.09617 0.0
H957 H 0.2555 0.15378 0.03802 0.0
H958 H 0.27383 0.20444 0.15208 0.0
H959 H 0.33999 0.14633 0.12031 0.0
H960 H 0.30856 0.18553 0.05091 0.0
O961 O 0.43033 0.25167 0.17075 0.0
H962 H 0.34272 0.2919 0.22365 0.0
H963 H 0.44464 0.31252 0.19219 0.0
H964 H 0.22056 0.17272 0.1404 0.0
H965 H 0.42931 0.17672 0.03659 0.0
H966 H 0.21112 0.14711 0.083 0.0
H967 H 0.42157 0.11606 0.05393 0.0
O968 O 0.30644 0.25841 0.13222 0.0
H969 H 0.4642 0.31812 0.07201 0.0
H970 H 0.3768 0.34996 0.15716 0.0
H971 H 0.40177 0.39455 0.12009 0.0
H972 H 0.44577 0.3787 0.07711 0.0
H973 H 0.43834 0.2743 0.10943 0.0
H974 H 0.45509 0.3451 0.24523 0.0
H975 H 0.40851 0.35129 0.28799 0.0
O976 O 0.34005 0.29704 0.15797 0.0
C977 C 0.34806 0.20986 0.18709 0.0
C978 C 0.37241 0.32207 0.2584 0.0
C979 C 0.43029 0.33366 0.24062 0.0
N980 N 0.39296 0.3007 0.20464 0.0
C981 C 0.36729 0.30379 0.22814 0.0
C982 C 0.42422 0.31522 0.21063 0.0
C983 C 0.40415 0.3371 0.26461 0.0
C984 C 0.38866 0.19492 0.06908 0.0
N985 N 0.36396 0.18639 0.09227 0.0
C986 C 0.40974 0.16981 0.05491 0.0
C987 C 0.40541 0.13579 0.06468 0.0
C988 C 0.38018 0.1273 0.0884 0.0
C989 C 0.3596 0.1531 0.10205 0.0
C990 C 0.25939 0.16469 0.06318 0.0
C991 C 0.27006 0.19309 0.12714 0.0
C992 C 0.28937 0.18268 0.07062 0.0
N993 N 0.2945 0.19637 0.10237 0.0
C994 C 0.23978 0.17528 0.12064 0.0
C995 C 0.23449 0.16096 0.08842 0.0
C996 C 0.31091 0.28672 0.14771 0.0
C997 C 0.44512 0.32535 0.0907 0.0
C998 C 0.39595 0.34288 0.13853 0.0
C999 C 0.41003 0.36824 0.11765 0.0
C1000 C 0.43474 0.35934 0.09355 0.0
N1001 N 0.40626 0.30961 0.13555 0.0
C1002 C 0.43052 0.30069 0.11205 0.0
Co1003 Co 0.38088 0.72689 0.83839 0.0
Co1004 Co 0.32924 0.78312 0.88224 0.0
O1005 O 0.37149 0.75709 0.87712 0.0
C1006 C 0.43148 0.78288 0.83281 0.0
O1007 O 0.40818 0.80357 0.84514 0.0
C1008 C 0.32839 0.73372 0.93937 0.0
O1009 O 0.34448 0.71232 0.91919 0.0
O1010 O 0.30124 0.74468 0.86384 0.0
O1011 O 0.33633 0.70306 0.8456 0.0
H1012 H 0.21562 0.82904 0.84344 0.0
H1013 H 0.4331 0.73507 0.89283 0.0
O1014 O 0.42524 0.75104 0.82947 0.0
H1015 H 0.40279 0.61258 0.89342 0.0
H1016 H 0.45644 0.65222 0.76565 0.0
H1017 H 0.34048 0.69932 0.78023 0.0
H1018 H 0.37583 0.65212 0.85226 0.0
H1019 H 0.44316 0.69018 0.81426 0.0
O1020 O 0.32212 0.76414 0.92941 0.0
H1021 H 0.26954 0.79687 0.83746 0.0
H1022 H 0.29875 0.82484 0.93833 0.0
H1023 H 0.35245 0.66134 0.7314 0.0
H1024 H 0.46094 0.6964 0.93425 0.0
H1025 H 0.41085 0.63743 0.72388 0.0
H1026 H 0.44572 0.63468 0.93476 0.0
O1027 O 0.35782 0.75827 0.80551 0.0
H1028 H 0.41933 0.8357 0.95731 0.0
H1029 H 0.33376 0.8578 0.86724 0.0
H1030 H 0.36971 0.90526 0.88829 0.0
H1031 H 0.4129 0.89432 0.93361 0.0
H1032 H 0.38301 0.78893 0.93531 0.0
H1033 H 0.24498 0.85708 0.94553 0.0
H1034 H 0.20304 0.8594 0.89782 0.0
O1035 O 0.33454 0.80174 0.83512 0.0
C1036 C 0.30653 0.7146 0.85228 0.0
C1037 C 0.23375 0.82833 0.86437 0.0
C1038 C 0.25022 0.84404 0.92168 0.0
N1039 N 0.28738 0.80922 0.88743 0.0
C1040 C 0.26438 0.81025 0.8611 0.0
C1041 C 0.28059 0.82572 0.91748 0.0
C1042 C 0.22669 0.84532 0.8949 0.0
C1043 C 0.42662 0.70819 0.8927 0.0
N1044 N 0.40307 0.6958 0.87003 0.0
C1045 C 0.44234 0.68644 0.91629 0.0
C1046 C 0.43376 0.65182 0.9166 0.0
C1047 C 0.40966 0.6394 0.89342 0.0
C1048 C 0.39444 0.66191 0.87022 0.0
C1049 C 0.43087 0.66237 0.7687 0.0
C1050 C 0.36585 0.68895 0.77722 0.0
C1051 C 0.42321 0.68391 0.79616 0.0
N1052 N 0.39092 0.69667 0.8003 0.0
C1053 C 0.37253 0.66749 0.74947 0.0
C1054 C 0.40529 0.6541 0.74527 0.0
C1055 C 0.34256 0.78702 0.80721 0.0
C1056 C 0.40053 0.84081 0.93763 0.0
C1057 C 0.35246 0.85287 0.88701 0.0
C1058 C 0.37272 0.87984 0.89884 0.0
C1059 C 0.39694 0.87369 0.92429 0.0
N1060 N 0.35617 0.8207 0.90022 0.0
C1061 C 0.3798 0.81447 0.9252 0.0
Co1062 Co 0.23027 0.33467 0.88111 0.0
Co1063 Co 0.28052 0.38982 0.83327 0.0
O1064 O 0.25539 0.37752 0.87482 0.0
C1065 C 0.28358 0.3325 0.93395 0.0
O1066 O 0.30418 0.34565 0.9111 0.0
C1067 C 0.22488 0.44108 0.83718 0.0
O1068 O 0.20457 0.41677 0.84829 0.0
O1069 O 0.2441 0.37049 0.80276 0.0
O1070 O 0.20819 0.34012 0.83572 0.0
H1071 H 0.38317 0.39848 0.7541 0.0
H1072 H 0.22718 0.38756 0.93525 0.0
O1073 O 0.25225 0.32745 0.92672 0.0
H1074 H 0.10793 0.37145 0.89723 0.0
H1075 H 0.16227 0.24812 0.94819 0.0
H1076 H 0.2151 0.27495 0.83685 0.0
H1077 H 0.15461 0.33764 0.87159 0.0
H1078 H 0.19307 0.30257 0.93957 0.0
O1079 O 0.25639 0.43488 0.8318 0.0
H1080 H 0.35326 0.38092 0.80599 0.0
H1081 H 0.26168 0.42701 0.77029 0.0
H1082 H 0.18435 0.22034 0.84425 0.0
H1083 H 0.18124 0.42173 0.96181 0.0
H1084 H 0.15765 0.20663 0.90027 0.0
H1085 H 0.12114 0.41381 0.94273 0.0
O1086 O 0.2677 0.30789 0.85954 0.0
H1087 H 0.33124 0.47757 0.91432 0.0
H1088 H 0.3503 0.36576 0.86016 0.0
H1089 H 0.39364 0.38914 0.89792 0.0
H1090 H 0.38482 0.44555 0.92546 0.0
H1091 H 0.28801 0.45386 0.87674 0.0
H1092 H 0.29077 0.44506 0.71769 0.0
H1093 H 0.35209 0.43089 0.70919 0.0
O1094 O 0.30299 0.34394 0.83188 0.0
C1095 C 0.21705 0.3526 0.80696 0.0
C1096 C 0.35651 0.40509 0.7576 0.0
C1097 C 0.30473 0.43114 0.73714 0.0
N1098 N 0.30557 0.40334 0.79213 0.0
C1099 C 0.33928 0.39532 0.78736 0.0
C1100 C 0.28838 0.42087 0.76719 0.0
C1101 C 0.33908 0.42319 0.73238 0.0
C1102 C 0.20104 0.38379 0.92705 0.0
N1103 N 0.19354 0.36053 0.90208 0.0
C1104 C 0.17516 0.40329 0.94208 0.0
C1105 C 0.14144 0.39886 0.93132 0.0
C1106 C 0.13402 0.37511 0.90578 0.0
C1107 C 0.16056 0.35609 0.89132 0.0
C1108 C 0.17366 0.25387 0.92362 0.0
C1109 C 0.20327 0.26932 0.8612 0.0
C1110 C 0.19113 0.28466 0.91859 0.0
N1111 N 0.20543 0.29216 0.88758 0.0
C1112 C 0.18602 0.23829 0.86528 0.0
C1113 C 0.17108 0.2306 0.89672 0.0
C1114 C 0.29431 0.31397 0.84165 0.0
C1115 C 0.33578 0.45329 0.90182 0.0
C1116 C 0.34575 0.39081 0.87059 0.0
C1117 C 0.37073 0.40377 0.89263 0.0
C1118 C 0.36576 0.43532 0.90817 0.0
N1119 N 0.31649 0.40889 0.86336 0.0
C1120 C 0.3113 0.43958 0.87964 0.0
Co1121 Co 0.61603 0.27079 0.83386 0.0
Co1122 Co 0.66613 0.21951 0.88591 0.0
O1123 O 0.62403 0.24477 0.87594 0.0
C1124 C 0.56361 0.21686 0.83217 0.0
O1125 O 0.58657 0.1964 0.84543 0.0
C1126 C 0.6642 0.27403 0.93846 0.0
O1127 O 0.65216 0.29457 0.91481 0.0
O1128 O 0.69559 0.25639 0.86627 0.0
O1129 O 0.66149 0.2932 0.8383 0.0
H1130 H 0.74885 0.11943 0.88122 0.0
H1131 H 0.56361 0.27201 0.88848 0.0
O1132 O 0.57046 0.24836 0.82746 0.0
H1133 H 0.60013 0.39199 0.87436 0.0
H1134 H 0.54511 0.33969 0.75124 0.0
H1135 H 0.65792 0.28764 0.77291 0.0
H1136 H 0.62501 0.34643 0.83848 0.0
H1137 H 0.55614 0.30815 0.80481 0.0
O1138 O 0.66941 0.24259 0.93162 0.0
H1139 H 0.69633 0.14984 0.86705 0.0
H1140 H 0.72943 0.2359 0.92464 0.0
H1141 H 0.64808 0.3191 0.71912 0.0
H1142 H 0.53782 0.3168 0.92473 0.0
H1143 H 0.59132 0.3454 0.708 0.0
H1144 H 0.55617 0.37727 0.91781 0.0
O1145 O 0.63683 0.2343 0.80533 0.0
H1146 H 0.58542 0.16915 0.97365 0.0
H1147 H 0.64155 0.14835 0.86319 0.0
H1148 H 0.60546 0.10423 0.88778 0.0
H1149 H 0.57693 0.11397 0.94355 0.0
H1150 H 0.62168 0.21303 0.94865 0.0
H1151 H 0.78247 0.20613 0.93939 0.0
H1152 H 0.79263 0.14727 0.91783 0.0
O1153 O 0.66519 0.19804 0.83968 0.0
C1154 C 0.6907 0.28398 0.84948 0.0
C1155 C 0.74442 0.14478 0.89142 0.0
C1156 C 0.76329 0.19337 0.924 0.0
N1157 N 0.70807 0.19425 0.89659 0.0
C1158 C 0.71415 0.16221 0.88383 0.0
C1159 C 0.73275 0.20999 0.91585 0.0
C1160 C 0.76902 0.16043 0.91184 0.0
C1161 C 0.57147 0.29832 0.88516 0.0
N1162 N 0.59561 0.30665 0.86132 0.0
C1163 C 0.5569 0.32354 0.90582 0.0
C1164 C 0.56723 0.35746 0.90196 0.0
C1165 C 0.59191 0.36574 0.87759 0.0
C1166 C 0.60595 0.33983 0.85741 0.0
C1167 C 0.57 0.3285 0.75587 0.0
C1168 C 0.63327 0.29934 0.76843 0.0
C1169 C 0.5764 0.31064 0.78615 0.0
N1170 N 0.60782 0.29655 0.79222 0.0
C1171 C 0.6278 0.31698 0.73785 0.0
C1172 C 0.59594 0.33168 0.73161 0.0
C1173 C 0.65435 0.2073 0.81033 0.0
C1174 C 0.59856 0.16415 0.9498 0.0
C1175 C 0.63114 0.15307 0.88817 0.0
C1176 C 0.60982 0.12777 0.90172 0.0
C1177 C 0.59368 0.13327 0.93289 0.0
N1178 N 0.6371 0.1831 0.9054 0.0
C1179 C 0.62002 0.18892 0.93551 0.0
Co1180 Co 0.77346 0.6656 0.88409 0.0
Co1181 Co 0.72379 0.61617 0.83049 0.0
O1182 O 0.7487 0.62365 0.87311 0.0
C1183 C 0.71868 0.66152 0.93558 0.0
O1184 O 0.69895 0.64843 0.91181 0.0
C1185 C 0.77879 0.56471 0.83012 0.0
O1186 O 0.79859 0.58765 0.84453 0.0
O1187 O 0.76033 0.63863 0.80295 0.0
O1188 O 0.7968 0.66445 0.83896 0.0
H1189 H 0.67432 0.65049 0.7169 0.0
H1190 H 0.77464 0.60735 0.93258 0.0
O1191 O 0.74991 0.66839 0.92928 0.0
H1192 H 0.89501 0.62596 0.89975 0.0
H1193 H 0.8398 0.74449 0.96142 0.0
H1194 H 0.79073 0.72906 0.84621 0.0
H1195 H 0.84943 0.66321 0.87704 0.0
H1196 H 0.80861 0.6916 0.94663 0.0
O1197 O 0.74753 0.57143 0.8238 0.0
H1198 H 0.70579 0.65947 0.77084 0.0
H1199 H 0.68902 0.55589 0.79915 0.0
H1200 H 0.82197 0.78219 0.85978 0.0
H1201 H 0.81943 0.56964 0.95616 0.0
H1202 H 0.84679 0.79015 0.91775 0.0
H1203 H 0.88009 0.57873 0.93958 0.0
O1204 O 0.73668 0.69486 0.86426 0.0
H1205 H 0.67864 0.53592 0.92016 0.0
H1206 H 0.64777 0.62241 0.83368 0.0
H1207 H 0.60248 0.59631 0.86903 0.0
H1208 H 0.61783 0.55275 0.91268 0.0
H1209 H 0.72314 0.56294 0.88444 0.0
H1210 H 0.65765 0.54565 0.74531 0.0
H1211 H 0.64998 0.59322 0.70385 0.0
O1212 O 0.70025 0.66096 0.83567 0.0
C1213 C 0.7877 0.65536 0.80902 0.0
C1214 C 0.67736 0.62958 0.73482 0.0
C1215 C 0.66803 0.57075 0.75076 0.0
N1216 N 0.69886 0.60834 0.7883 0.0
C1217 C 0.69505 0.63455 0.76547 0.0
C1218 C 0.68585 0.57667 0.78118 0.0
C1219 C 0.66374 0.59745 0.7275 0.0
C1220 C 0.80103 0.61169 0.92557 0.0
N1221 N 0.80943 0.63751 0.90356 0.0
C1222 C 0.82626 0.59017 0.93888 0.0
C1223 C 0.86029 0.59527 0.92954 0.0
C1224 C 0.86867 0.62174 0.90717 0.0
C1225 C 0.84275 0.64272 0.89433 0.0
C1226 C 0.82921 0.74127 0.93603 0.0
C1227 C 0.80167 0.73223 0.87142 0.0
C1228 C 0.81151 0.7114 0.92753 0.0
N1229 N 0.79826 0.70708 0.89546 0.0
C1230 C 0.81924 0.76242 0.87898 0.0
C1231 C 0.83312 0.76688 0.91152 0.0
C1232 C 0.70923 0.69009 0.84724 0.0
C1233 C 0.67162 0.55483 0.90118 0.0
C1234 C 0.65464 0.60353 0.85264 0.0
C1235 C 0.62888 0.58877 0.87253 0.0
C1236 C 0.63751 0.56431 0.897 0.0
N1237 N 0.68804 0.59415 0.85695 0.0
C1238 C 0.69668 0.5701 0.88079 0.0
Co1239 Co 0.66095 0.76915 0.11295 0.0
Co1240 Co 0.61193 0.71695 0.16434 0.0
O1241 O 0.61949 0.74279 0.12221 0.0
C1242 C 0.66099 0.71435 0.06113 0.0
O1243 O 0.64699 0.69411 0.08393 0.0
C1244 C 0.55912 0.77065 0.16579 0.0
O1245 O 0.58072 0.79101 0.15014 0.0
O1246 O 0.633 0.75367 0.19281 0.0
O1247 O 0.65675 0.79249 0.15787 0.0
H1248 H 0.64489 0.66848 0.27876 0.0
H1249 H 0.60509 0.76802 0.06173 0.0
O1250 O 0.66676 0.74567 0.06801 0.0
H1251 H 0.61852 0.88927 0.09397 0.0
H1252 H 0.74099 0.83806 0.0391 0.0
H1253 H 0.72182 0.78897 0.15372 0.0
H1254 H 0.65547 0.84498 0.11954 0.0
H1255 H 0.6886 0.80505 0.05151 0.0
O1256 O 0.56658 0.73939 0.17106 0.0
H1257 H 0.65419 0.70041 0.22515 0.0
H1258 H 0.55249 0.67894 0.19344 0.0
H1259 H 0.77435 0.82208 0.14255 0.0
H1260 H 0.56776 0.81151 0.03524 0.0
H1261 H 0.78421 0.8469 0.08487 0.0
H1262 H 0.57433 0.87261 0.05142 0.0
O1263 O 0.69072 0.7336 0.13415 0.0
H1264 H 0.53393 0.67135 0.07295 0.0
H1265 H 0.62061 0.64123 0.15954 0.0
H1266 H 0.59619 0.59595 0.12297 0.0
H1267 H 0.55254 0.61093 0.07926 0.0
H1268 H 0.55928 0.71586 0.1099 0.0
H1269 H 0.54195 0.64701 0.24686 0.0
H1270 H 0.58841 0.64152 0.28991 0.0
O1271 O 0.6573 0.69456 0.15957 0.0
C1272 C 0.64797 0.78221 0.1875 0.0
C1273 C 0.62448 0.67056 0.26015 0.0
C1274 C 0.56672 0.65849 0.24223 0.0
N1275 N 0.60406 0.69113 0.20599 0.0
C1276 C 0.62963 0.6885 0.22968 0.0
C1277 C 0.57284 0.67658 0.21203 0.0
C1278 C 0.59279 0.65545 0.26639 0.0
C1279 C 0.60825 0.7946 0.06868 0.0
N1280 N 0.63249 0.80398 0.09204 0.0
C1281 C 0.58697 0.81909 0.0537 0.0
C1282 C 0.59064 0.85337 0.06282 0.0
C1283 C 0.61542 0.86273 0.08671 0.0
C1284 C 0.6362 0.83753 0.10118 0.0
C1285 C 0.73692 0.82749 0.06437 0.0
C1286 C 0.72578 0.79993 0.12864 0.0
C1287 C 0.70733 0.80875 0.07153 0.0
N1288 N 0.70195 0.79549 0.10344 0.0
C1289 C 0.75565 0.81854 0.12243 0.0
C1290 C 0.76117 0.83243 0.09006 0.0
C1291 C 0.68648 0.70534 0.14991 0.0
C1292 C 0.55288 0.66449 0.09195 0.0
C1293 C 0.60165 0.64793 0.14057 0.0
C1294 C 0.58786 0.62218 0.11998 0.0
C1295 C 0.56336 0.6306 0.09548 0.0
N1296 N 0.59127 0.68111 0.13692 0.0
C1297 C 0.56719 0.68955 0.11303 0.0
Co1298 Co 0.27369 0.61887 0.16206 0.0
Co1299 Co 0.21804 0.66954 0.11707 0.0
O1300 O 0.24619 0.62847 0.12143 0.0
C1301 C 0.22054 0.56458 0.16195 0.0
O1302 O 0.19978 0.58553 0.14597 0.0
C1303 C 0.27279 0.67801 0.06539 0.0
O1304 O 0.29309 0.66071 0.08572 0.0
O1305 O 0.25174 0.69812 0.14261 0.0
O1306 O 0.29572 0.66455 0.15809 0.0
H1307 H 0.1588 0.77498 0.16063 0.0
H1308 H 0.27241 0.56849 0.1055 0.0
O1309 O 0.25145 0.5731 0.16788 0.0
H1310 H 0.39292 0.60454 0.11564 0.0
H1311 H 0.34618 0.54508 0.23882 0.0
H1312 H 0.29419 0.65893 0.22321 0.0
H1313 H 0.34902 0.62808 0.15437 0.0
H1314 H 0.31207 0.55796 0.1873 0.0
O1315 O 0.24145 0.68247 0.07324 0.0
H1316 H 0.19473 0.72342 0.16521 0.0
H1317 H 0.18085 0.70299 0.05941 0.0
H1318 H 0.32834 0.64725 0.27495 0.0
H1319 H 0.31551 0.54406 0.0664 0.0
H1320 H 0.35457 0.58994 0.28304 0.0
H1321 H 0.37624 0.56216 0.07131 0.0
O1322 O 0.23832 0.63869 0.19322 0.0
H1323 H 0.18071 0.58538 0.02739 0.0
H1324 H 0.14268 0.65915 0.12233 0.0
H1325 H 0.10038 0.62367 0.0917 0.0
H1326 H 0.11933 0.58651 0.04378 0.0
H1327 H 0.22217 0.62105 0.05898 0.0
H1328 H 0.14515 0.7547 0.05353 0.0
H1329 H 0.13376 0.79098 0.10444 0.0
O1330 O 0.19511 0.6582 0.16099 0.0
C1331 C 0.28172 0.69371 0.15459 0.0
C1332 C 0.16348 0.75934 0.13827 0.0
C1333 C 0.15583 0.74795 0.07817 0.0
N1334 N 0.1896 0.70999 0.11269 0.0
C1335 C 0.18372 0.73001 0.14073 0.0
C1336 C 0.17611 0.71874 0.08163 0.0
C1337 C 0.14946 0.7683 0.10674 0.0
C1338 C 0.29885 0.57623 0.10796 0.0
N1339 N 0.30825 0.59947 0.1323 0.0
C1340 C 0.32311 0.56242 0.08568 0.0
C1341 C 0.35717 0.57263 0.08842 0.0
C1342 C 0.36655 0.59641 0.11328 0.0
C1343 C 0.34158 0.6097 0.13509 0.0
C1344 C 0.33498 0.57018 0.23553 0.0
C1345 C 0.30577 0.63403 0.22638 0.0
C1346 C 0.31563 0.57762 0.20643 0.0
N1347 N 0.30138 0.60925 0.20212 0.0
C1348 C 0.32498 0.62753 0.2558 0.0
C1349 C 0.33966 0.59536 0.26034 0.0
C1350 C 0.20814 0.65073 0.18994 0.0
C1351 C 0.17212 0.60153 0.04817 0.0
C1352 C 0.15111 0.64293 0.10161 0.0
C1353 C 0.12705 0.62297 0.0843 0.0
C1354 C 0.13769 0.60214 0.0574 0.0
N1355 N 0.1848 0.64227 0.09232 0.0
C1356 C 0.19546 0.62186 0.06605 0.0
Co1357 Co 0.72003 0.38149 0.16644 0.0
Co1358 Co 0.77335 0.33439 0.1147 0.0
O1359 O 0.74674 0.37552 0.12462 0.0
C1360 C 0.77455 0.4339 0.17053 0.0
O1361 O 0.79479 0.41237 0.15468 0.0
C1362 C 0.71874 0.33516 0.0621 0.0
O1363 O 0.69894 0.3518 0.08342 0.0
O1364 O 0.73807 0.30404 0.1354 0.0
O1365 O 0.69704 0.33673 0.15849 0.0
H1366 H 0.82617 0.22033 0.14178 0.0
H1367 H 0.72123 0.43731 0.11513 0.0
O1368 O 0.74332 0.42621 0.17595 0.0
H1369 H 0.60028 0.40248 0.12401 0.0
H1370 H 0.64959 0.44845 0.25093 0.0
H1371 H 0.70059 0.33626 0.22421 0.0
H1372 H 0.64446 0.37429 0.1592 0.0
H1373 H 0.6828 0.44016 0.19791 0.0
O1374 O 0.74978 0.32865 0.06963 0.0
H1375 H 0.79422 0.27314 0.15447 0.0
H1376 H 0.8089 0.30796 0.05265 0.0
H1377 H 0.66723 0.34326 0.27726 0.0
H1378 H 0.67785 0.46642 0.07968 0.0
H1379 H 0.64149 0.39972 0.29094 0.0
H1380 H 0.61689 0.44896 0.08397 0.0
O1381 O 0.75526 0.35794 0.19475 0.0
H1382 H 0.81517 0.42894 0.03838 0.0
H1383 H 0.84897 0.34071 0.12201 0.0
H1384 H 0.89304 0.37853 0.0972 0.0
H1385 H 0.87621 0.423 0.05503 0.0
H1386 H 0.77192 0.39072 0.06404 0.0
H1387 H 0.84084 0.25537 0.03871 0.0
H1388 H 0.84968 0.21112 0.08347 0.0
O1389 O 0.7965 0.33801 0.15995 0.0
C1390 C 0.70886 0.30773 0.14938 0.0
C1391 C 0.82265 0.23949 0.1221 0.0
C1392 C 0.83083 0.25914 0.06424 0.0
N1393 N 0.79999 0.29378 0.10447 0.0
C1394 C 0.80471 0.26954 0.1292 0.0
C1395 C 0.81272 0.28886 0.07229 0.0
C1396 C 0.83578 0.23432 0.08937 0.0
C1397 C 0.69471 0.42981 0.11734 0.0
N1398 N 0.68533 0.40433 0.13935 0.0
C1399 C 0.67028 0.44627 0.09711 0.0
C1400 C 0.63608 0.43643 0.0995 0.0
C1401 C 0.62675 0.41034 0.12195 0.0
C1402 C 0.65188 0.39443 0.14175 0.0
C1403 C 0.66056 0.42369 0.24519 0.0
C1404 C 0.68918 0.3608 0.2298 0.0
C1405 C 0.67941 0.41886 0.21523 0.0
N1406 N 0.69327 0.38765 0.20778 0.0
C1407 C 0.67043 0.36465 0.25996 0.0
C1408 C 0.65603 0.39634 0.26763 0.0
C1409 C 0.78436 0.34432 0.18951 0.0
C1410 C 0.82283 0.4096 0.05666 0.0
C1411 C 0.84147 0.36005 0.10371 0.0
C1412 C 0.86653 0.38135 0.08972 0.0
C1413 C 0.85707 0.40628 0.06604 0.0
N1414 N 0.80797 0.36343 0.0943 0.0
C1415 C 0.79848 0.38782 0.07116 0.0
C1416 C 0.17985 0.51506 0.1605 0.0
C1417 C 0.20723 0.53226 0.17631 0.0
C1418 C 0.16683 0.4845 0.1742 0.0
C1419 C 0.18024 0.47057 0.20458 0.0
H1420 H 0.1687 0.52505 0.13717 0.0
H1421 H 0.14601 0.47181 0.16099 0.0
S1422 S 0.25138 0.50658 0.25642 0.0
N1423 N 0.24679 0.53362 0.22436 0.0
N1424 N 0.22241 0.47654 0.25006 0.0
C1425 C 0.20734 0.48787 0.22083 0.0
C1426 C 0.22083 0.51861 0.20669 0.0
C1427 C 0.516 0.16541 0.18319 0.0
C1428 C 0.5292 0.17947 0.21363 0.0
C1429 C 0.48614 0.17847 0.16815 0.0
C1430 C 0.46898 0.20651 0.18264 0.0
H1431 H 0.52885 0.14418 0.17085 0.0
H1432 H 0.47679 0.16695 0.14473 0.0
S1433 S 0.4923 0.25197 0.26272 0.0
N1434 N 0.52215 0.22254 0.25807 0.0
N1435 N 0.46637 0.24702 0.22979 0.0
C1436 C 0.48166 0.22054 0.21324 0.0
C1437 C 0.51168 0.20701 0.22876 0.0
C1438 C 0.81847 0.48046 0.16914 0.0
C1439 C 0.78854 0.46655 0.18358 0.0
C1440 C 0.83258 0.51105 0.18153 0.0
C1441 C 0.81767 0.52836 0.20926 0.0
H1442 H 0.83098 0.46777 0.14792 0.0
H1443 H 0.85551 0.52101 0.16955 0.0
S1444 S 0.73888 0.50305 0.25586 0.0
N1445 N 0.74428 0.47279 0.22693 0.0
N1446 N 0.77089 0.53001 0.25024 0.0
C1447 C 0.78775 0.51478 0.22392 0.0
C1448 C 0.77313 0.48396 0.21105 0.0
C1449 C 0.51115 0.81274 0.1653 0.0
C1450 C 0.52765 0.78486 0.18083 0.0
C1451 C 0.48157 0.82694 0.17972 0.0
C1452 C 0.46799 0.8142 0.21055 0.0
H1453 H 0.52093 0.82343 0.14167 0.0
H1454 H 0.4694 0.84818 0.16672 0.0
S1455 S 0.50271 0.74227 0.262 0.0
N1456 N 0.52893 0.74555 0.2291 0.0
N1457 N 0.47361 0.77229 0.25629 0.0
C1458 C 0.48462 0.78662 0.22657 0.0
C1459 C 0.51438 0.77189 0.21165 0.0
C1460 C 0.17642 0.48305 0.83469 0.0
C1461 C 0.21041 0.47439 0.82632 0.0
C1462 C 0.16111 0.5128 0.82161 0.0
C1463 C 0.17899 0.5342 0.799 0.0
H1464 H 0.16135 0.46653 0.85107 0.0
H1465 H 0.13484 0.5185 0.82835 0.0
S1466 S 0.26919 0.52507 0.77118 0.0
N1467 N 0.26229 0.49188 0.79631 0.0
N1468 N 0.23277 0.54631 0.77039 0.0
C1469 C 0.21312 0.52645 0.79114 0.0
C1470 C 0.22906 0.49693 0.8052 0.0
C1471 C 0.51694 0.21738 0.78896 0.0
C1472 C 0.53161 0.20258 0.81829 0.0
C1473 C 0.48761 0.20341 0.77395 0.0
C1474 C 0.47149 0.17455 0.78815 0.0
H1475 H 0.52851 0.23963 0.77712 0.0
H1476 H 0.47709 0.2158 0.75149 0.0
S1477 S 0.49969 0.1263 0.86485 0.0
N1478 N 0.52818 0.15727 0.86079 0.0
N1479 N 0.47229 0.1315 0.83308 0.0
C1480 C 0.48577 0.15956 0.81756 0.0
C1481 C 0.51606 0.17343 0.83248 0.0
C1482 C 0.77888 0.51643 0.78889 0.0
C1483 C 0.79339 0.53228 0.81773 0.0
C1484 C 0.79262 0.48627 0.77559 0.0
C1485 C 0.82098 0.47044 0.79101 0.0
H1486 H 0.75696 0.52763 0.77613 0.0
H1487 H 0.78042 0.47495 0.7534 0.0
S1488 S 0.86833 0.50154 0.86718 0.0
N1489 N 0.83787 0.53021 0.86123 0.0
N1490 N 0.86329 0.47279 0.83661 0.0
C1491 C 0.83572 0.48588 0.81997 0.0
C1492 C 0.82205 0.51703 0.8332 0.0
C1493 C 0.51052 0.79399 0.77822 0.0
C1494 C 0.52582 0.82355 0.79188 0.0
C1495 C 0.48036 0.78069 0.79215 0.0
C1496 C 0.464 0.79687 0.81978 0.0
H1497 H 0.52227 0.78059 0.75699 0.0
H1498 H 0.46954 0.75781 0.78082 0.0
S1499 S 0.49343 0.87526 0.86449 0.0
N1500 N 0.52255 0.86863 0.83461 0.0
N1501 N 0.46516 0.84411 0.86027 0.0
C1502 C 0.4788 0.82667 0.83347 0.0
C1503 C 0.50993 0.83986 0.81968 0.0
C1504 C 0.16485 0.18286 0.51213 0.0
C1505 C 0.18128 0.20956 0.52969 0.0
C1506 C 0.17912 0.169 0.48227 0.0
C1507 C 0.21067 0.18088 0.46952 0.0
H1508 H 0.14053 0.17307 0.52116 0.0
H1509 H 0.16531 0.1489 0.46909 0.0
S1510 S 0.265 0.24879 0.5081 0.0
N1511 N 0.23142 0.24619 0.5335 0.0
N1512 N 0.25838 0.22021 0.47776 0.0
C1513 C 0.22776 0.20696 0.48759 0.0
C1514 C 0.21301 0.22131 0.51758 0.0
C1515 C 0.8237 0.16854 0.51525 0.0
C1516 C 0.79427 0.1826 0.5304 0.0
C1517 C 0.83775 0.18278 0.48545 0.0
C1518 C 0.82332 0.21204 0.47022 0.0
H1519 H 0.83573 0.14612 0.52623 0.0
H1520 H 0.86015 0.17085 0.47435 0.0
S1521 S 0.74666 0.25921 0.50056 0.0
N1522 N 0.75154 0.22781 0.52834 0.0
N1523 N 0.77797 0.25461 0.47265 0.0
C1524 C 0.79415 0.2266 0.48543 0.0
C1525 C 0.77959 0.21185 0.51542 0.0
C1526 C 0.77973 0.7911 0.48224 0.0
C1527 C 0.79225 0.82093 0.46653 0.0
C1528 C 0.79421 0.77878 0.51248 0.0
C1529 C 0.82131 0.79621 0.52851 0.0
H1530 H 0.75886 0.77683 0.47082 0.0
H1531 H 0.78356 0.75578 0.52374 0.0
S1532 S 0.8633 0.87557 0.49771 0.0
N1533 N 0.83352 0.86746 0.46882 0.0
N1534 N 0.86027 0.84473 0.52645 0.0
C1535 C 0.83404 0.82615 0.51317 0.0
C1536 C 0.81966 0.83838 0.48193 0.0
C1537 C 0.14976 0.80684 0.49352 0.0
C1538 C 0.16967 0.80799 0.46376 0.0
C1539 C 0.16245 0.81987 0.52443 0.0
C1540 C 0.1957 0.83368 0.52651 0.0
H1541 H 0.12459 0.7952 0.49302 0.0
H1542 H 0.14669 0.81766 0.54712 0.0
S1543 S 0.25697 0.84357 0.45471 0.0
N1544 N 0.22312 0.82517 0.43733 0.0
N1545 N 0.2475 0.84903 0.49554 0.0
C1546 C 0.21541 0.83567 0.49649 0.0
C1547 C 0.20223 0.82291 0.46503 0.0
C1548 C 0.66361 0.98617 0.67969 0.0
C1549 C 0.67869 0.96937 0.70767 0.0
C1550 C 0.67875 0.01544 0.66541 0.0
C1551 C 0.70993 0.02834 0.67808 0.0
H1552 H 0.63971 0.97693 0.66909 0.0
H1553 H 0.66598 0.02798 0.64425 0.0
S1554 S 0.76066 0.99215 0.74989 0.0
N1555 N 0.72704 0.96681 0.74674 0.0
N1556 N 0.75563 0.02141 0.71989 0.0
C1557 C 0.72558 0.01121 0.70562 0.0
C1558 C 0.70991 0.98183 0.72044 0.0
C1559 C 0.9806 0.68174 0.66972 0.0
C1560 C 0.971 0.71532 0.67871 0.0
C1561 C 0.0097 0.66631 0.68399 0.0
C1562 C 0.02954 0.68358 0.70845 0.0
H1563 H 0.96538 0.66711 0.65174 0.0
H1564 H 0.01622 0.64043 0.6765 0.0
S1565 S 0.01734 0.77259 0.73895 0.0
N1566 N 0.98575 0.76618 0.7117 0.0
N1567 N 0.03909 0.73646 0.73968 0.0
C1568 C 0.02075 0.71729 0.71715 0.0
C1569 C 0.99184 0.73337 0.70194 0.0
C1570 C 0.32962 0.01339 0.68003 0.0
C1571 C 0.31549 0.03027 0.70847 0.0
C1572 C 0.31512 0.98305 0.66749 0.0
C1573 C 0.28556 0.96902 0.6825 0.0
H1574 H 0.35223 0.02351 0.66757 0.0
H1575 H 0.32697 0.97067 0.64571 0.0
S1576 S 0.23835 0.00379 0.75719 0.0
N1577 N 0.27007 0.03095 0.75103 0.0
N1578 N 0.24282 0.97421 0.72743 0.0
C1579 C 0.27106 0.98583 0.71078 0.0
C1580 C 0.28605 0.01638 0.72381 0.0
C1581 C 0.01566 0.32316 0.66569 0.0
C1582 C 0.03158 0.29446 0.68045 0.0
C1583 C 0.98514 0.33634 0.67926 0.0
C1584 C 0.97007 0.32173 0.70848 0.0
H1585 H 0.02663 0.33528 0.6433 0.0
H1586 H 0.97344 0.35827 0.66697 0.0
S1587 S 0.00192 0.24646 0.75693 0.0
N1588 N 0.03014 0.2521 0.72608 0.0
N1589 N 0.97309 0.27674 0.75142 0.0
C1590 C 0.9859 0.29316 0.72355 0.0
C1591 C 0.01658 0.27954 0.70956 0.0
C1592 C 0.66945 0.96914 0.30568 0.0
C1593 C 0.69908 0.96729 0.32604 0.0
C1594 C 0.65728 0.0007 0.2938 0.0
C1595 C 0.67372 0.03125 0.30299 0.0
H1596 H 0.65652 0.94598 0.29759 0.0
H1597 H 0.6352 0.00121 0.27704 0.0
S1598 S 0.75117 0.04031 0.35685 0.0
N1599 N 0.74419 0.99864 0.35523 0.0
N1600 N 0.72026 0.05813 0.33419 0.0
C1601 C 0.70253 0.02987 0.32434 0.0
C1602 C 0.71551 0.99777 0.33557 0.0
C1603 C 0.98454 0.66999 0.31535 0.0
C1604 C 0.97144 0.68076 0.28356 0.0
C1605 C 0.01413 0.68486 0.3292 0.0
C1606 C 0.03113 0.71151 0.31207 0.0
H1607 H 0.97181 0.64999 0.32972 0.0
H1608 H 0.02339 0.67587 0.35373 0.0
S1609 S 0.00835 0.74818 0.22752 0.0
N1610 N 0.97868 0.71906 0.23489 0.0
N1611 N 0.03392 0.74701 0.26108 0.0
C1612 C 0.01865 0.72221 0.28012 0.0
C1613 C 0.98891 0.7068 0.26579 0.0
C1614 C 0.33854 0.98798 0.31806 0.0
C1615 C 0.32382 0.97186 0.28946 0.0
C1616 C 0.32383 0.01747 0.3322 0.0
C1617 C 0.29348 0.0313 0.31869 0.0
H1618 H 0.36169 0.97787 0.32946 0.0
H1619 H 0.33614 0.02934 0.35403 0.0
S1620 S 0.24453 0.99821 0.24424 0.0
N1621 N 0.27701 0.97161 0.24839 0.0
N1622 N 0.24941 0.0268 0.2749 0.0
C1623 C 0.27842 0.01525 0.29021 0.0
C1624 C 0.29361 0.98559 0.27558 0.0
C1625 C 0.0152 0.29261 0.27439 0.0
C1626 C 0.03076 0.32156 0.28906 0.0
C1627 C 0.98547 0.27852 0.28842 0.0
C1628 C 0.96981 0.29328 0.3172 0.0
H1629 H 0.02641 0.28028 0.25225 0.0
H1630 H 0.97441 0.25619 0.27626 0.0
S1631 S 0.00023 0.36948 0.36499 0.0
N1632 N 0.02854 0.36446 0.33403 0.0
N1633 N 0.97195 0.33845 0.35997 0.0
C1634 C 0.9849 0.32243 0.33198 0.0
C1635 C 0.0156 0.33642 0.31804 0.0
C1636 C 0.71818 0.70175 0.98458 0.0
C1637 C 0.70373 0.67325 0.96808 0.0
C1638 C 0.70366 0.71511 0.01428 0.0
C1639 C 0.67449 0.7001 0.02902 0.0
H1640 H 0.74056 0.71436 0.97412 0.0
H1641 H 0.71574 0.73714 0.02603 0.0
S1642 S 0.62725 0.62462 0.99623 0.0
N1643 N 0.65869 0.63027 0.96855 0.0
N1644 N 0.63177 0.65499 0.02528 0.0
C1645 C 0.65998 0.67129 0.01314 0.0
C1646 C 0.67447 0.658 0.98239 0.0
C1647 C 0.31599 0.67886 0.01837 0.0
C1648 C 0.28669 0.69309 0.03362 0.0
C1649 C 0.32961 0.69251 0.98816 0.0
C1650 C 0.31482 0.72131 0.97243 0.0
H1651 H 0.32823 0.65663 0.02953 0.0
H1652 H 0.35187 0.68034 0.97702 0.0
S1653 S 0.23849 0.76892 0.00286 0.0
N1654 N 0.24378 0.73809 0.03123 0.0
N1655 N 0.26948 0.7639 0.97465 0.0
C1656 C 0.28589 0.73621 0.98779 0.0
C1657 C 0.27176 0.72202 0.0183 0.0
C1658 C 0.28201 0.29113 0.98217 0.0
C1659 C 0.29749 0.31955 0.96647 0.0
C1660 C 0.29569 0.27685 0.01195 0.0
C1661 C 0.32494 0.2909 0.02749 0.0
H1662 H 0.25949 0.27937 0.97105 0.0
H1663 H 0.28284 0.25499 0.02318 0.0
S1664 S 0.37467 0.36571 0.99688 0.0
N1665 N 0.34359 0.36134 0.96857 0.0
N1666 N 0.36887 0.33493 0.02526 0.0
C1667 C 0.34048 0.31955 0.01232 0.0
C1668 C 0.32688 0.33375 0.98159 0.0
C1669 C 0.682 0.33764 0.00986 0.0
C1670 C 0.7038 0.31914 0.03154 0.0
C1671 C 0.66855 0.32257 0.98016 0.0
C1672 C 0.67577 0.28825 0.9717 0.0
H1673 H 0.67607 0.36414 0.01539 0.0
H1674 H 0.65274 0.33812 0.96353 0.0
S1675 S 0.7281 0.22786 0.02342 0.0
N1676 N 0.73011 0.2644 0.04443 0.0
N1677 N 0.70377 0.23545 0.98976 0.0
C1678 C 0.69615 0.26905 0.99446 0.0
C1679 C 0.71049 0.28469 0.02408 0.0
C1680 C 0.18977 0.2821 0.32879 0.0
C1681 C 0.16265 0.27935 0.30525 0.0
C1682 C 0.20411 0.25308 0.344 0.0
C1683 C 0.19179 0.22003 0.33656 0.0
H1684 H 0.20133 0.30668 0.33429 0.0
H1685 H 0.2261 0.25664 0.36051 0.0
S1686 S 0.11641 0.1996 0.28213 0.0
N1687 N 0.12066 0.24148 0.2791 0.0
N1688 N 0.14722 0.18692 0.30805 0.0
C1689 C 0.16259 0.21721 0.31552 0.0
C1690 C 0.14815 0.24684 0.29977 0.0
C1691 C 0.74974 0.20473 0.34857 0.0
C1692 C 0.78222 0.19083 0.34155 0.0
C1693 C 0.7201 0.1908 0.33431 0.0
C1694 C 0.72159 0.16246 0.3122 0.0
H1695 H 0.74712 0.22765 0.36394 0.0
H1696 H 0.69607 0.2036 0.33938 0.0
S1697 S 0.79929 0.11201 0.2912 0.0
N1698 N 0.81338 0.14357 0.31546 0.0
N1699 N 0.7576 0.11777 0.28803 0.0
C1700 C 0.75347 0.14644 0.30728 0.0
C1701 C 0.78376 0.16048 0.32215 0.0
C1702 C 0.84478 0.75389 0.28798 0.0
C1703 C 0.8407 0.72128 0.30287 0.0
C1704 C 0.82983 0.78299 0.30256 0.0
C1705 C 0.81005 0.78065 0.33251 0.0
H1706 H 0.85813 0.75686 0.26388 0.0
H1707 H 0.83222 0.80708 0.28908 0.0
S1708 S 0.79731 0.7028 0.38551 0.0
N1709 N 0.81975 0.68956 0.35234 0.0
N1710 N 0.79161 0.74416 0.37949 0.0
C1711 C 0.80832 0.74884 0.34933 0.0
C1712 C 0.82365 0.71922 0.33459 0.0
C1713 C 0.28088 0.82136 0.3353 0.0
C1714 C 0.27991 0.84614 0.30922 0.0
C1715 C 0.25077 0.80699 0.34823 0.0
C1716 C 0.21845 0.81705 0.33585 0.0
H1717 H 0.30504 0.81141 0.34448 0.0
H1718 H 0.2531 0.78662 0.36689 0.0
S1719 S 0.20193 0.88713 0.27363 0.0
N1720 N 0.24399 0.88454 0.27585 0.0
N1721 N 0.18737 0.85777 0.30023 0.0
C1722 C 0.21708 0.84442 0.31239 0.0
C1723 C 0.2478 0.85892 0.2991 0.0
C1724 C 0.18346 0.71779 0.66801 0.0
C1725 C 0.15697 0.72007 0.69226 0.0
C1726 C 0.19634 0.74707 0.65188 0.0
C1727 C 0.18311 0.77979 0.65921 0.0
H1728 H 0.19571 0.69352 0.66276 0.0
H1729 H 0.21811 0.74408 0.63503 0.0
S1730 S 0.10875 0.79856 0.71541 0.0
N1731 N 0.1145 0.75692 0.71895 0.0
N1732 N 0.13832 0.8118 0.6884 0.0
C1733 C 0.15445 0.78193 0.68097 0.0
C1734 C 0.14151 0.75214 0.69757 0.0
C1735 C 0.24875 0.15526 0.69896 0.0
C1736 C 0.28165 0.16328 0.68663 0.0
C1737 C 0.21951 0.17036 0.68503 0.0
C1738 C 0.22187 0.19444 0.65838 0.0
H1739 H 0.24544 0.1383 0.72064 0.0
H1740 H 0.19508 0.16434 0.69661 0.0
S1741 S 0.30101 0.21879 0.61182 0.0
N1742 N 0.31419 0.19255 0.64217 0.0
N1743 N 0.25915 0.22151 0.61649 0.0
C1744 C 0.25421 0.20044 0.64373 0.0
C1745 C 0.28409 0.1847 0.65769 0.0
C1746 C 0.79778 0.2513 0.65387 0.0
C1747 C 0.8102 0.21851 0.66216 0.0
C1748 C 0.81182 0.28074 0.66852 0.0
C1749 C 0.83871 0.27871 0.69239 0.0
H1750 H 0.776 0.25437 0.63699 0.0
H1751 H 0.8002 0.30509 0.66229 0.0
S1752 S 0.88516 0.19979 0.7177 0.0
N1753 N 0.85465 0.18631 0.6918 0.0
N1754 N 0.88065 0.2417 0.71978 0.0
C1755 C 0.85333 0.24641 0.69876 0.0
C1756 C 0.8392 0.21634 0.68354 0.0
C1757 C 0.74657 0.80015 0.65507 0.0
C1758 C 0.77887 0.81428 0.6629 0.0
C1759 C 0.71653 0.81318 0.66947 0.0
C1760 C 0.71747 0.84082 0.69245 0.0
H1761 H 0.74437 0.77773 0.63894 0.0
H1762 H 0.69268 0.80025 0.66385 0.0
S1763 S 0.79411 0.89206 0.7155 0.0
N1764 N 0.80889 0.86124 0.69076 0.0
N1765 N 0.75249 0.88553 0.718 0.0
C1766 C 0.74905 0.85718 0.69811 0.0
C1767 C 0.77969 0.84398 0.6833 0.0
C1768 C 0.33231 0.18725 0.27987 0.0
C1769 C 0.30788 0.16087 0.27778 0.0
C1770 C 0.34669 0.20151 0.25042 0.0
C1771 C 0.33751 0.18982 0.2176 0.0
H1772 H 0.33918 0.19833 0.30431 0.0
H1773 H 0.36403 0.22293 0.25354 0.0
S1774 S 0.28028 0.11614 0.19862 0.0
N1775 N 0.27909 0.11999 0.24063 0.0
N1776 N 0.30646 0.14643 0.18519 0.0
C1777 C 0.31557 0.16123 0.21531 0.0
C1778 C 0.30067 0.14687 0.24539 0.0
C1779 C 0.84402 0.33185 0.26483 0.0
C1780 C 0.83318 0.29991 0.27732 0.0
C1781 C 0.82859 0.34625 0.23568 0.0
C1782 C 0.80163 0.32926 0.21905 0.0
H1783 H 0.86456 0.34552 0.27748 0.0
H1784 H 0.83742 0.37084 0.22639 0.0
S1785 S 0.76258 0.24637 0.24344 0.0
N1786 N 0.79344 0.2524 0.27169 0.0
N1787 N 0.76379 0.27996 0.21781 0.0
C1788 C 0.79025 0.29773 0.23179 0.0
C1789 C 0.80625 0.28288 0.2608 0.0
C1790 C 0.6511 0.79046 0.25079 0.0
C1791 C 0.65835 0.80277 0.21772 0.0
C1792 C 0.6657 0.80546 0.27976 0.0
C1793 C 0.68836 0.83334 0.27696 0.0
H1794 H 0.63525 0.768 0.25443 0.0
H1795 H 0.66044 0.79384 0.30435 0.0
S1796 S 0.7104 0.87972 0.19698 0.0
N1797 N 0.68561 0.84794 0.18441 0.0
N1798 N 0.71327 0.87594 0.23891 0.0
C1799 C 0.69349 0.84783 0.24438 0.0
C1800 C 0.67844 0.83262 0.21478 0.0
C1801 C 0.20606 0.65867 0.25346 0.0
C1802 C 0.18952 0.66098 0.22146 0.0
C1803 C 0.19268 0.67474 0.28251 0.0
C1804 C 0.1624 0.69398 0.28066 0.0
H1805 H 0.23055 0.64593 0.25586 0.0
H1806 H 0.2073 0.67372 0.30602 0.0
S1807 S 0.1053 0.70206 0.20518 0.0
N1808 N 0.13808 0.67938 0.19134 0.0
N1809 N 0.1134 0.71006 0.24582 0.0
C1810 C 0.14401 0.69399 0.24971 0.0
C1811 C 0.15742 0.67734 0.22018 0.0
C1812 C 0.33488 0.83546 0.76605 0.0
C1813 C 0.3288 0.80125 0.77535 0.0
C1814 C 0.31991 0.84932 0.73643 0.0
C1815 C 0.29846 0.82925 0.71569 0.0
H1816 H 0.35107 0.85153 0.78182 0.0
H1817 H 0.32468 0.87586 0.72997 0.0
S1818 S 0.27029 0.74024 0.73222 0.0
N1819 N 0.29742 0.7489 0.76344 0.0
N1820 N 0.26897 0.77507 0.70835 0.0
C1821 C 0.2915 0.79543 0.72534 0.0
C1822 C 0.30682 0.78134 0.7551 0.0
C1823 C 0.1724 0.31583 0.77952 0.0
C1824 C 0.19647 0.34254 0.77655 0.0
C1825 C 0.1572 0.30114 0.75067 0.0
C1826 C 0.16506 0.31272 0.71749 0.0
H1827 H 0.16636 0.30482 0.80421 0.0
H1828 H 0.1403 0.27949 0.75449 0.0
S1829 S 0.22051 0.38704 0.69609 0.0
N1830 N 0.22327 0.3834 0.73803 0.0
N1831 N 0.19429 0.35633 0.68381 0.0
C1832 C 0.18649 0.34158 0.71433 0.0
C1833 C 0.20229 0.35632 0.74381 0.0
C1834 C 0.70887 0.15224 0.75244 0.0
C1835 C 0.6947 0.1582 0.71982 0.0
C1836 C 0.69443 0.16654 0.78186 0.0
C1837 C 0.66519 0.18739 0.77998 0.0
H1838 H 0.73232 0.13778 0.75529 0.0
H1839 H 0.70754 0.16272 0.80595 0.0
S1840 S 0.6145 0.20607 0.70181 0.0
N1841 N 0.64692 0.1828 0.68814 0.0
N1842 N 0.61988 0.20964 0.74351 0.0
C1843 C 0.64917 0.19141 0.74797 0.0
C1844 C 0.66385 0.17679 0.71792 0.0
C1845 C 0.81225 0.67533 0.71747 0.0
C1846 C 0.83874 0.69953 0.72114 0.0
C1847 C 0.79721 0.65975 0.74593 0.0
C1848 C 0.80824 0.66732 0.77936 0.0
H1849 H 0.80177 0.66941 0.69253 0.0
H1850 H 0.77579 0.6427 0.74156 0.0
S1851 S 0.88181 0.72304 0.80252 0.0
N1852 N 0.87882 0.72616 0.76055 0.0
N1853 N 0.85103 0.69658 0.81405 0.0
C1854 C 0.8368 0.68902 0.78323 0.0
C1855 C 0.8519 0.70517 0.75416 0.0
C1856 C 0.25354 0.34629 0.19783 0.0
C1857 C 0.22055 0.33704 0.18665 0.0
C1858 C 0.2828 0.33168 0.18337 0.0
C1859 C 0.28033 0.30696 0.15732 0.0
H1860 H 0.25695 0.36376 0.21907 0.0
H1861 H 0.30739 0.33856 0.19411 0.0
S1862 S 0.20054 0.27911 0.11383 0.0
N1863 N 0.18757 0.30563 0.14397 0.0
N1864 N 0.24259 0.27788 0.11719 0.0
C1865 C 0.24775 0.29975 0.14376 0.0
C1866 C 0.21789 0.31485 0.15831 0.0
C1867 C 0.24313 0.70663 0.85014 0.0
C1868 C 0.27606 0.69386 0.84292 0.0
C1869 C 0.21389 0.69196 0.83565 0.0
C1870 C 0.21634 0.66421 0.81289 0.0
H1871 H 0.23984 0.72921 0.86587 0.0
H1872 H 0.18943 0.70381 0.8409 0.0
S1873 S 0.29554 0.6165 0.79127 0.0
N1874 N 0.3086 0.64787 0.81632 0.0
N1875 N 0.25373 0.6212 0.78795 0.0
C1876 C 0.24871 0.64929 0.8078 0.0
C1877 C 0.2785 0.66385 0.82312 0.0
C1878 C 0.30691 0.25127 0.84303 0.0
C1879 C 0.31447 0.28397 0.82985 0.0
C1880 C 0.32099 0.2217 0.82867 0.0
C1881 C 0.34327 0.22347 0.80045 0.0
H1882 H 0.28882 0.2482 0.86379 0.0
H1883 H 0.31297 0.19722 0.83891 0.0
S1884 S 0.37565 0.30299 0.75957 0.0
N1885 N 0.34871 0.31635 0.78912 0.0
N1886 N 0.37579 0.26093 0.76271 0.0
C1887 C 0.35324 0.25608 0.78875 0.0
C1888 C 0.3387 0.28625 0.80328 0.0
C1889 C 0.71774 0.3287 0.81254 0.0
C1890 C 0.72083 0.30487 0.83939 0.0
C1891 C 0.74656 0.34405 0.79791 0.0
C1892 C 0.77975 0.33652 0.8097 0.0
H1893 H 0.69304 0.33435 0.80137 0.0
H1894 H 0.74269 0.36073 0.77611 0.0
S1895 S 0.80121 0.28182 0.88452 0.0
N1896 N 0.75929 0.27875 0.88074 0.0
N1897 N 0.81346 0.30783 0.85364 0.0
C1898 C 0.78296 0.3153 0.8387 0.0
C1899 C 0.75353 0.29943 0.85342 0.0
C1900 C 0.70019 0.75351 0.84667 0.0
C1901 C 0.68854 0.72057 0.83773 0.0
C1902 C 0.68516 0.78292 0.83285 0.0
C1903 C 0.65802 0.78063 0.8093 0.0
H1904 H 0.72222 0.75676 0.86318 0.0
H1905 H 0.69627 0.80748 0.83926 0.0
S1906 S 0.61322 0.70104 0.78291 0.0
N1907 N 0.64452 0.68786 0.80797 0.0
N1908 N 0.61655 0.74309 0.78186 0.0
C1909 C 0.64409 0.74809 0.80255 0.0
C1910 C 0.65927 0.7181 0.81677 0.0
C1911 C 0.75001 0.69816 0.15073 0.0
C1912 C 0.71747 0.6859 0.16022 0.0
C1913 C 0.77984 0.68457 0.165 0.0
C1914 C 0.77841 0.6584 0.18968 0.0
H1915 H 0.75258 0.71951 0.13324 0.0
H1916 H 0.80404 0.69601 0.15787 0.0
S1917 S 0.70035 0.61232 0.21814 0.0
N1918 N 0.68615 0.64208 0.19178 0.0
N1919 N 0.74228 0.61708 0.21908 0.0
C1920 C 0.74635 0.64386 0.19724 0.0
C1921 C 0.7159 0.65745 0.18238 0.0
C1922 C 0.34643 0.76341 0.17304 0.0
C1923 C 0.33106 0.7803 0.20075 0.0
C1924 C 0.33056 0.73482 0.15808 0.0
C1925 C 0.29866 0.72329 0.17002 0.0
H1926 H 0.37077 0.77221 0.16313 0.0
H1927 H 0.34294 0.72201 0.13686 0.0
S1928 S 0.24886 0.75847 0.24258 0.0
N1929 N 0.28325 0.78296 0.24033 0.0
N1930 N 0.25286 0.73015 0.21148 0.0
C1931 C 0.28325 0.74005 0.19772 0.0
C1932 C 0.29965 0.76844 0.21332 0.0
C1933 C 0.66321 0.27897 0.18364 0.0
C1934 C 0.68986 0.27648 0.1596 0.0
C1935 C 0.64986 0.24986 0.19955 0.0
C1936 C 0.66231 0.21691 0.19189 0.0
H1937 H 0.65374 0.30369 0.19178 0.0
H1938 H 0.63064 0.25355 0.21917 0.0
S1939 S 0.72656 0.19589 0.12508 0.0
N1940 N 0.7244 0.23804 0.12484 0.0
N1941 N 0.69899 0.18325 0.15444 0.0
C1942 C 0.68653 0.21379 0.1654 0.0
C1943 C 0.70036 0.24356 0.14934 0.0
loop_
_geom_bond_atom_site_label_1
_geom_bond_atom_site_label_2
_geom_bond_distance
_geom_bond_site_symmetry_2
_ccdc_geom_bond_type
Co0 O2 2.143 . S
Co0 O8 2.074 . S
Co0 O11 2.093 . S
Co0 O24 2.097 . S
Co0 N41 2.151 . S
Co0 N49 2.214 . S
Co1 O2 2.160 . S
Co1 O7 2.058 . S
Co1 O17 2.057 . S
Co1 O32 2.037 . S
Co1 N36 2.145 . S
Co1 N57 2.257 . S
O2 Co0 2.143 . S
O2 Co1 2.160 . S
C3 O4 1.278 . S
C3 O11 1.224 . S
O4 C3 1.278 . S
C5 O6 1.245 . S
C5 O17 1.232 . S
O6 C5 1.245 . S
O7 Co1 2.058 . S
O7 C33 1.269 . S
O8 Co0 2.074 . S
O8 C33 1.257 . S
H9 C34 0.930 . S
H10 C40 0.930 . S
O11 Co0 2.093 . S
O11 C3 1.224 . S
H12 C44 0.929 . S
H13 C46 0.930 . S
H14 C47 0.930 . S
H15 C45 0.929 . S
H16 C48 0.928 . S
O17 Co1 2.057 . S
O17 C5 1.232 . S
H18 C37 0.929 . S
H19 C38 0.929 . S
H20 C50 0.931 . S
H21 C42 0.929 . S
H22 C51 0.930 . S
H23 C43 0.931 . S
O24 Co0 2.097 . S
O24 C52 1.214 . S
H25 C53 0.929 . S
H26 C54 0.929 . S
H27 C55 0.930 . S
H28 C56 0.929 . S
H29 C58 0.930 . S
H30 C35 0.930 . S
H31 C39 0.930 . S
O32 Co1 2.037 . S
O32 C52 1.234 . S
C33 O7 1.269 . S
C33 O8 1.257 . S
C34 H9 0.930 . S
C34 C37 1.388 . S
C34 C39 1.418 . S
C35 H30 0.930 . S
C35 C38 1.404 . S
C35 C39 1.353 . S
N36 Co1 2.145 . S
N36 C37 1.397 . S
N36 C38 1.334 . S
C37 H18 0.929 . S
C37 C34 1.388 . S
C37 N36 1.397 . S
C38 H19 0.929 . S
C38 C35 1.404 . S
C38 N36 1.334 . S
C39 H31 0.930 . S
C39 C34 1.418 . S
C39 C35 1.353 . S
C40 H10 0.930 . S
C40 N41 1.330 . S
C40 C42 1.446 . S
N41 Co0 2.151 . S
N41 C40 1.330 . S
N41 C45 1.418 . S
C42 H21 0.929 . S
C42 C40 1.446 . S
C42 C43 1.332 . S
C43 H23 0.931 . S
C43 C42 1.332 . S
C43 C44 1.267 . S
C44 H12 0.929 . S
C44 C43 1.267 . S
C44 C45 1.251 . S
C45 H15 0.929 . S
C45 N41 1.418 . S
C45 C44 1.251 . S
C46 H13 0.930 . S
C46 C48 1.406 . S
C46 C51 1.261 . S
C47 H14 0.930 . S
C47 N49 1.325 . S
C47 C50 1.357 . S
C48 H16 0.928 . S
C48 C46 1.406 . S
C48 N49 1.261 . S
N49 Co0 2.214 . S
N49 C47 1.325 . S
N49 C48 1.261 . S
C50 H20 0.931 . S
C50 C47 1.357 . S
C50 C51 1.312 . S
C51 H22 0.930 . S
C51 C46 1.261 . S
C51 C50 1.312 . S
C52 O24 1.214 . S
C52 O32 1.234 . S
C53 H25 0.929 . S
C53 C56 1.391 . S
C53 C58 1.391 . S
C54 H26 0.929 . S
C54 C55 1.390 . S
C54 N57 1.391 . S
C55 H27 0.930 . S
C55 C54 1.390 . S
C55 C56 1.392 . S
C56 H28 0.929 . S
C56 C53 1.391 . S
C56 C55 1.392 . S
N57 Co1 2.257 . S
N57 C54 1.391 . S
N57 C58 1.388 . S
C58 H29 0.930 . S
C58 C53 1.391 . S
C58 N57 1.388 . S
Co59 O61 2.143 . S
Co59 O67 2.074 . S
Co59 O70 2.093 . S
Co59 O83 2.097 . S
Co59 N100 2.151 . S
Co59 N108 2.214 . S
Co60 O61 2.160 . S
Co60 O66 2.058 . S
Co60 O76 2.057 . S
Co60 O91 2.037 . S
Co60 N95 2.145 . S
Co60 N116 2.257 . S
O61 Co59 2.143 . S
O61 Co60 2.160 . S
C62 O63 1.278 . S
C62 O70 1.224 . S
O63 C62 1.278 . S
C64 O65 1.245 . S
C64 O76 1.232 . S
O65 C64 1.245 . S
O66 Co60 2.058 . S
O66 C92 1.269 . S
O67 Co59 2.074 . S
O67 C92 1.257 . S
H68 C93 0.930 . S
H69 C99 0.930 . S
O70 Co59 2.093 . S
O70 C62 1.224 . S
H71 C103 0.929 . S
H72 C105 0.930 . S
H73 C106 0.930 . S
H74 C104 0.929 . S
H75 C107 0.928 . S
O76 Co60 2.057 . S
O76 C64 1.232 . S
H77 C96 0.929 . S
H78 C97 0.929 . S
H79 C109 0.931 . S
H80 C101 0.929 . S
H81 C110 0.930 . S
H82 C102 0.931 . S
O83 Co59 2.097 . S
O83 C111 1.214 . S
H84 C112 0.929 . S
H85 C113 0.929 . S
H86 C114 0.930 . S
H87 C115 0.929 . S
H88 C117 0.930 . S
H89 C94 0.930 . S
H90 C98 0.930 . S
O91 Co60 2.037 . S
O91 C111 1.234 . S
C92 O66 1.269 . S
C92 O67 1.257 . S
C93 H68 0.930 . S
C93 C96 1.388 . S
C93 C98 1.418 . S
C94 H89 0.930 . S
C94 C97 1.404 . S
C94 C98 1.353 . S
N95 Co60 2.145 . S
N95 C96 1.397 . S
N95 C97 1.334 . S
C96 H77 0.929 . S
C96 C93 1.388 . S
C96 N95 1.397 . S
C97 H78 0.929 . S
C97 C94 1.404 . S
C97 N95 1.334 . S
C98 H90 0.930 . S
C98 C93 1.418 . S
C98 C94 1.353 . S
C99 H69 0.930 . S
C99 N100 1.330 . S
C99 C101 1.446 . S
N100 Co59 2.151 . S
N100 C99 1.330 . S
N100 C104 1.418 . S
C101 H80 0.929 . S
C101 C99 1.446 . S
C101 C102 1.332 . S
C102 H82 0.931 . S
C102 C101 1.332 . S
C102 C103 1.267 . S
C103 H71 0.929 . S
C103 C102 1.267 . S
C103 C104 1.251 . S
C104 H74 0.929 . S
C104 N100 1.418 . S
C104 C103 1.251 . S
C105 H72 0.930 . S
C105 C107 1.406 . S
C105 C110 1.261 . S
C106 H73 0.930 . S
C106 N108 1.325 . S
C106 C109 1.357 . S
C107 H75 0.928 . S
C107 C105 1.406 . S
C107 N108 1.261 . S
N108 Co59 2.214 . S
N108 C106 1.325 . S
N108 C107 1.261 . S
C109 H79 0.931 . S
C109 C106 1.357 . S
C109 C110 1.312 . S
C110 H81 0.930 . S
C110 C105 1.261 . S
C110 C109 1.312 . S
C111 O83 1.214 . S
C111 O91 1.234 . S
C112 H84 0.929 . S
C112 C115 1.391 . S
C112 C117 1.391 . S
C113 H85 0.929 . S
C113 C114 1.390 . S
C113 N116 1.391 . S
C114 H86 0.930 . S
C114 C113 1.390 . S
C114 C115 1.392 . S
C115 H87 0.929 . S
C115 C112 1.391 . S
C115 C114 1.392 . S
N116 Co60 2.257 . S
N116 C113 1.391 . S
N116 C117 1.388 . S
C117 H88 0.930 . S
C117 C112 1.391 . S
C117 N116 1.388 . S
Co118 O120 2.143 . S
Co118 O126 2.074 . S
Co118 O129 2.093 . S
Co118 O142 2.097 . S
Co118 N159 2.151 . S
Co118 N167 2.214 . S
Co119 O120 2.160 . S
Co119 O125 2.058 . S
Co119 O135 2.057 . S
Co119 O150 2.037 . S
Co119 N154 2.145 . S
Co119 N175 2.257 . S
O120 Co118 2.143 . S
O120 Co119 2.160 . S
C121 O122 1.278 . S
C121 O129 1.224 . S
O122 C121 1.278 . S
C123 O124 1.245 . S
C123 O135 1.232 . S
O124 C123 1.245 . S
O125 Co119 2.058 . S
O125 C151 1.269 . S
O126 Co118 2.074 . S
O126 C151 1.257 . S
H127 C152 0.930 . S
H128 C158 0.930 . S
O129 Co118 2.093 . S
O129 C121 1.224 . S
H130 C162 0.929 . S
H131 C164 0.930 . S
H132 C165 0.930 . S
H133 C163 0.929 . S
H134 C166 0.928 . S
O135 Co119 2.057 . S
O135 C123 1.232 . S
H136 C155 0.929 . S
H137 C156 0.929 . S
H138 C168 0.931 . S
H139 C160 0.929 . S
H140 C169 0.930 . S
H141 C161 0.931 . S
O142 Co118 2.097 . S
O142 C170 1.214 . S
H143 C171 0.929 . S
H144 C172 0.929 . S
H145 C173 0.930 . S
H146 C174 0.929 . S
H147 C176 0.930 . S
H148 C153 0.930 . S
H149 C157 0.930 . S
O150 Co119 2.037 . S
O150 C170 1.234 . S
C151 O125 1.269 . S
C151 O126 1.257 . S
C152 H127 0.930 . S
C152 C155 1.388 . S
C152 C157 1.418 . S
C153 H148 0.930 . S
C153 C156 1.404 . S
C153 C157 1.353 . S
N154 Co119 2.145 . S
N154 C155 1.397 . S
N154 C156 1.334 . S
C155 H136 0.929 . S
C155 C152 1.388 . S
C155 N154 1.397 . S
C156 H137 0.929 . S
C156 C153 1.404 . S
C156 N154 1.334 . S
C157 H149 0.930 . S
C157 C152 1.418 . S
C157 C153 1.353 . S
C158 H128 0.930 . S
C158 N159 1.330 . S
C158 C160 1.446 . S
N159 Co118 2.151 . S
N159 C158 1.330 . S
N159 C163 1.418 . S
C160 H139 0.929 . S
C160 C158 1.446 . S
C160 C161 1.332 . S
C161 H141 0.931 . S
C161 C160 1.332 . S
C161 C162 1.267 . S
C162 H130 0.929 . S
C162 C161 1.267 . S
C162 C163 1.251 . S
C163 H133 0.929 . S
C163 N159 1.418 . S
C163 C162 1.251 . S
C164 H131 0.930 . S
C164 C166 1.406 . S
C164 C169 1.261 . S
C165 H132 0.930 . S
C165 N167 1.325 . S
C165 C168 1.357 . S
C166 H134 0.928 . S
C166 C164 1.406 . S
C166 N167 1.261 . S
N167 Co118 2.214 . S
N167 C165 1.325 . S
N167 C166 1.261 . S
C168 H138 0.931 . S
C168 C165 1.357 . S
C168 C169 1.312 . S
C169 H140 0.930 . S
C169 C164 1.261 . S
C169 C168 1.312 . S
C170 O142 1.214 . S
C170 O150 1.234 . S
C171 H143 0.929 . S
C171 C174 1.391 . S
C171 C176 1.391 . S
C172 H144 0.929 . S
C172 C173 1.390 . S
C172 N175 1.391 . S
C173 H145 0.930 . S
C173 C172 1.390 . S
C173 C174 1.392 . S
C174 H146 0.929 . S
C174 C171 1.391 . S
C174 C173 1.392 . S
N175 Co119 2.257 . S
N175 C172 1.391 . S
N175 C176 1.388 . S
C176 H147 0.930 . S
C176 C171 1.391 . S
C176 N175 1.388 . S
Co177 O179 2.143 . S
Co177 O185 2.074 . S
Co177 O188 2.093 . S
Co177 O201 2.097 . S
Co177 N218 2.151 . S
Co177 N226 2.214 . S
Co178 O179 2.160 . S
Co178 O184 2.058 . S
Co178 O194 2.057 . S
Co178 O209 2.037 . S
Co178 N213 2.145 . S
Co178 N234 2.257 . S
O179 Co177 2.143 . S
O179 Co178 2.160 . S
C180 O181 1.278 . S
C180 O188 1.224 . S
O181 C180 1.278 . S
C182 O183 1.245 . S
C182 O194 1.232 . S
O183 C182 1.245 . S
O184 Co178 2.058 . S
O184 C210 1.269 . S
O185 Co177 2.074 . S
O185 C210 1.257 . S
H186 C211 0.930 . S
H187 C217 0.930 . S
O188 Co177 2.093 . S
O188 C180 1.224 . S
H189 C221 0.929 . S
H190 C223 0.930 . S
H191 C224 0.930 . S
H192 C222 0.929 . S
H193 C225 0.928 . S
O194 Co178 2.057 . S
O194 C182 1.232 . S
H195 C214 0.929 . S
H196 C215 0.929 . S
H197 C227 0.931 . S
H198 C219 0.929 . S
H199 C228 0.930 . S
H200 C220 0.931 . S
O201 Co177 2.097 . S
O201 C229 1.214 . S
H202 C230 0.929 . S
H203 C231 0.929 . S
H204 C232 0.930 . S
H205 C233 0.929 . S
H206 C235 0.930 . S
H207 C212 0.930 . S
H208 C216 0.930 . S
O209 Co178 2.037 . S
O209 C229 1.234 . S
C210 O184 1.269 . S
C210 O185 1.257 . S
C211 H186 0.930 . S
C211 C214 1.388 . S
C211 C216 1.418 . S
C212 H207 0.930 . S
C212 C215 1.404 . S
C212 C216 1.353 . S
N213 Co178 2.145 . S
N213 C214 1.397 . S
N213 C215 1.334 . S
C214 H195 0.929 . S
C214 C211 1.388 . S
C214 N213 1.397 . S
C215 H196 0.929 . S
C215 C212 1.404 . S
C215 N213 1.334 . S
C216 H208 0.930 . S
C216 C211 1.418 . S
C216 C212 1.353 . S
C217 H187 0.930 . S
C217 N218 1.330 . S
C217 C219 1.446 . S
N218 Co177 2.151 . S
N218 C217 1.330 . S
N218 C222 1.418 . S
C219 H198 0.929 . S
C219 C217 1.446 . S
C219 C220 1.332 . S
C220 H200 0.931 . S
C220 C219 1.332 . S
C220 C221 1.267 . S
C221 H189 0.929 . S
C221 C220 1.267 . S
C221 C222 1.251 . S
C222 H192 0.929 . S
C222 N218 1.418 . S
C222 C221 1.251 . S
C223 H190 0.930 . S
C223 C225 1.406 . S
C223 C228 1.261 . S
C224 H191 0.930 . S
C224 N226 1.325 . S
C224 C227 1.357 . S
C225 H193 0.928 . S
C225 C223 1.406 . S
C225 N226 1.261 . S
N226 Co177 2.214 . S
N226 C224 1.325 . S
N226 C225 1.261 . S
C227 H197 0.931 . S
C227 C224 1.357 . S
C227 C228 1.312 . S
C228 H199 0.930 . S
C228 C223 1.261 . S
C228 C227 1.312 . S
C229 O201 1.214 . S
C229 O209 1.234 . S
C230 H202 0.929 . S
C230 C233 1.391 . S
C230 C235 1.391 . S
C231 H203 0.929 . S
C231 C232 1.390 . S
C231 N234 1.391 . S
C232 H204 0.930 . S
C232 C231 1.390 . S
C232 C233 1.392 . S
C233 H205 0.929 . S
C233 C230 1.391 . S
C233 C232 1.392 . S
N234 Co178 2.257 . S
N234 C231 1.391 . S
N234 C235 1.388 . S
C235 H206 0.930 . S
C235 C230 1.391 . S
C235 N234 1.388 . S
Co236 O238 2.143 . S
Co236 O244 2.074 . S
Co236 O247 2.093 . S
Co236 O260 2.097 . S
Co236 N277 2.151 . S
Co236 N285 2.214 . S
Co237 O238 2.160 . S
Co237 O243 2.058 . S
Co237 O253 2.057 . S
Co237 O268 2.037 . S
Co237 N272 2.145 . S
Co237 N293 2.257 . S
O238 Co236 2.143 . S
O238 Co237 2.160 . S
C239 O240 1.278 . S
C239 O247 1.224 . S
O240 C239 1.278 . S
C241 O242 1.245 . S
C241 O253 1.232 . S
O242 C241 1.245 . S
O243 Co237 2.058 . S
O243 C269 1.269 . S
O244 Co236 2.074 . S
O244 C269 1.257 . S
H245 C270 0.930 . S
H246 C276 0.930 . S
O247 Co236 2.093 . S
O247 C239 1.224 . S
H248 C280 0.929 . S
H249 C282 0.930 . S
H250 C283 0.930 . S
H251 C281 0.929 . S
H252 C284 0.928 . S
O253 Co237 2.057 . S
O253 C241 1.232 . S
H254 C273 0.929 . S
H255 C274 0.929 . S
H256 C286 0.931 . S
H257 C278 0.929 . S
H258 C287 0.930 . S
H259 C279 0.931 . S
O260 Co236 2.097 . S
O260 C288 1.214 . S
H261 C289 0.929 . S
H262 C290 0.929 . S
H263 C291 0.930 . S
H264 C292 0.929 . S
H265 C294 0.930 . S
H266 C271 0.930 . S
H267 C275 0.930 . S
O268 Co237 2.037 . S
O268 C288 1.234 . S
C269 O243 1.269 . S
C269 O244 1.257 . S
C270 H245 0.930 . S
C270 C273 1.388 . S
C270 C275 1.418 . S
C271 H266 0.930 . S
C271 C274 1.404 . S
C271 C275 1.353 . S
N272 Co237 2.145 . S
N272 C273 1.397 . S
N272 C274 1.334 . S
C273 H254 0.929 . S
C273 C270 1.388 . S
C273 N272 1.397 . S
C274 H255 0.929 . S
C274 C271 1.404 . S
C274 N272 1.334 . S
C275 H267 0.930 . S
C275 C270 1.418 . S
C275 C271 1.353 . S
C276 H246 0.930 . S
C276 N277 1.330 . S
C276 C278 1.446 . S
N277 Co236 2.151 . S
N277 C276 1.330 . S
N277 C281 1.418 . S
C278 H257 0.929 . S
C278 C276 1.446 . S
C278 C279 1.332 . S
C279 H259 0.931 . S
C279 C278 1.332 . S
C279 C280 1.267 . S
C280 H248 0.929 . S
C280 C279 1.267 . S
C280 C281 1.251 . S
C281 H251 0.929 . S
C281 N277 1.418 . S
C281 C280 1.251 . S
C282 H249 0.930 . S
C282 C284 1.406 . S
C282 C287 1.261 . S
C283 H250 0.930 . S
C283 N285 1.325 . S
C283 C286 1.357 . S
C284 H252 0.928 . S
C284 C282 1.406 . S
C284 N285 1.261 . S
N285 Co236 2.214 . S
N285 C283 1.325 . S
N285 C284 1.261 . S
C286 H256 0.931 . S
C286 C283 1.357 . S
C286 C287 1.312 . S
C287 H258 0.930 . S
C287 C282 1.261 . S
C287 C286 1.312 . S
C288 O260 1.214 . S
C288 O268 1.234 . S
C289 H261 0.929 . S
C289 C292 1.391 . S
C289 C294 1.391 . S
C290 H262 0.929 . S
C290 C291 1.390 . S
C290 N293 1.391 . S
C291 H263 0.930 . S
C291 C290 1.390 . S
C291 C292 1.392 . S
C292 H264 0.929 . S
C292 C289 1.391 . S
C292 C291 1.392 . S
N293 Co237 2.257 . S
N293 C290 1.391 . S
N293 C294 1.388 . S
C294 H265 0.930 . S
C294 C289 1.391 . S
C294 N293 1.388 . S
Co295 O297 2.143 . S
Co295 O303 2.074 . S
Co295 O306 2.093 . S
Co295 O319 2.097 . S
Co295 N336 2.151 . S
Co295 N344 2.214 . S
Co296 O297 2.160 . S
Co296 O302 2.058 . S
Co296 O312 2.057 . S
Co296 O327 2.037 . S
Co296 N331 2.145 . S
Co296 N352 2.257 . S
O297 Co295 2.143 . S
O297 Co296 2.160 . S
C298 O299 1.278 . S
C298 O306 1.224 . S
O299 C298 1.278 . S
C300 O301 1.245 . S
C300 O312 1.232 . S
O301 C300 1.245 . S
O302 Co296 2.058 . S
O302 C328 1.269 . S
O303 Co295 2.074 . S
O303 C328 1.257 . S
H304 C329 0.930 . S
H305 C335 0.930 . S
O306 Co295 2.093 . S
O306 C298 1.224 . S
H307 C339 0.929 . S
H308 C341 0.930 . S
H309 C342 0.930 . S
H310 C340 0.929 . S
H311 C343 0.928 . S
O312 Co296 2.057 . S
O312 C300 1.232 . S
H313 C332 0.929 . S
H314 C333 0.929 . S
H315 C345 0.931 . S
H316 C337 0.929 . S
H317 C346 0.930 . S
H318 C338 0.931 . S
O319 Co295 2.097 . S
O319 C347 1.214 . S
H320 C348 0.929 . S
H321 C349 0.929 . S
H322 C350 0.930 . S
H323 C351 0.929 . S
H324 C353 0.930 . S
H325 C330 0.930 . S
H326 C334 0.930 . S
O327 Co296 2.037 . S
O327 C347 1.234 . S
C328 O302 1.269 . S
C328 O303 1.257 . S
C329 H304 0.930 . S
C329 C332 1.388 . S
C329 C334 1.418 . S
C330 H325 0.930 . S
C330 C333 1.404 . S
C330 C334 1.353 . S
N331 Co296 2.145 . S
N331 C332 1.397 . S
N331 C333 1.334 . S
C332 H313 0.929 . S
C332 C329 1.388 . S
C332 N331 1.397 . S
C333 H314 0.929 . S
C333 C330 1.404 . S
C333 N331 1.334 . S
C334 H326 0.930 . S
C334 C329 1.418 . S
C334 C330 1.353 . S
C335 H305 0.930 . S
C335 N336 1.330 . S
C335 C337 1.446 . S
N336 Co295 2.151 . S
N336 C335 1.330 . S
N336 C340 1.418 . S
C337 H316 0.929 . S
C337 C335 1.446 . S
C337 C338 1.332 . S
C338 H318 0.931 . S
C338 C337 1.332 . S
C338 C339 1.267 . S
C339 H307 0.929 . S
C339 C338 1.267 . S
C339 C340 1.251 . S
C340 H310 0.929 . S
C340 N336 1.418 . S
C340 C339 1.251 . S
C341 H308 0.930 . S
C341 C343 1.406 . S
C341 C346 1.261 . S
C342 H309 0.930 . S
C342 N344 1.325 . S
C342 C345 1.357 . S
C343 H311 0.928 . S
C343 C341 1.406 . S
C343 N344 1.261 . S
N344 Co295 2.214 . S
N344 C342 1.325 . S
N344 C343 1.261 . S
C345 H315 0.931 . S
C345 C342 1.357 . S
C345 C346 1.312 . S
C346 H317 0.930 . S
C346 C341 1.261 . S
C346 C345 1.312 . S
C347 O319 1.214 . S
C347 O327 1.234 . S
C348 H320 0.929 . S
C348 C351 1.391 . S
C348 C353 1.391 . S
C349 H321 0.929 . S
C349 C350 1.390 . S
C349 N352 1.391 . S
C350 H322 0.930 . S
C350 C349 1.390 . S
C350 C351 1.392 . S
C351 H323 0.929 . S
C351 C348 1.391 . S
C351 C350 1.392 . S
N352 Co296 2.257 . S
N352 C349 1.391 . S
N352 C353 1.388 . S
C353 H324 0.930 . S
C353 C348 1.391 . S
C353 N352 1.388 . S
Co354 O356 2.143 . S
Co354 O362 2.074 . S
Co354 O365 2.093 . S
Co354 O378 2.097 . S
Co354 N395 2.151 . S
Co354 N403 2.214 . S
Co355 O356 2.160 . S
Co355 O361 2.058 . S
Co355 O371 2.057 . S
Co355 O386 2.037 . S
Co355 N390 2.145 . S
Co355 N411 2.257 . S
O356 Co354 2.143 . S
O356 Co355 2.160 . S
C357 O358 1.278 . S
C357 O365 1.224 . S
O358 C357 1.278 . S
C359 O360 1.245 . S
C359 O371 1.232 . S
O360 C359 1.245 . S
O361 Co355 2.058 . S
O361 C387 1.269 . S
O362 Co354 2.074 . S
O362 C387 1.257 . S
H363 C388 0.930 . S
H364 C394 0.930 . S
O365 Co354 2.093 . S
O365 C357 1.224 . S
H366 C398 0.929 . S
H367 C400 0.930 . S
H368 C401 0.930 . S
H369 C399 0.929 . S
H370 C402 0.928 . S
O371 Co355 2.057 . S
O371 C359 1.232 . S
H372 C391 0.929 . S
H373 C392 0.929 . S
H374 C404 0.931 . S
H375 C396 0.929 . S
H376 C405 0.930 . S
H377 C397 0.931 . S
O378 Co354 2.097 . S
O378 C406 1.214 . S
H379 C407 0.929 . S
H380 C408 0.929 . S
H381 C409 0.930 . S
H382 C410 0.929 . S
H383 C412 0.930 . S
H384 C389 0.930 . S
H385 C393 0.930 . S
O386 Co355 2.037 . S
O386 C406 1.234 . S
C387 O361 1.269 . S
C387 O362 1.257 . S
C388 H363 0.930 . S
C388 C391 1.388 . S
C388 C393 1.418 . S
C389 H384 0.930 . S
C389 C392 1.404 . S
C389 C393 1.353 . S
N390 Co355 2.145 . S
N390 C391 1.397 . S
N390 C392 1.334 . S
C391 H372 0.929 . S
C391 C388 1.388 . S
C391 N390 1.397 . S
C392 H373 0.929 . S
C392 C389 1.404 . S
C392 N390 1.334 . S
C393 H385 0.930 . S
C393 C388 1.418 . S
C393 C389 1.353 . S
C394 H364 0.930 . S
C394 N395 1.330 . S
C394 C396 1.446 . S
N395 Co354 2.151 . S
N395 C394 1.330 . S
N395 C399 1.418 . S
C396 H375 0.929 . S
C396 C394 1.446 . S
C396 C397 1.332 . S
C397 H377 0.931 . S
C397 C396 1.332 . S
C397 C398 1.267 . S
C398 H366 0.929 . S
C398 C397 1.267 . S
C398 C399 1.251 . S
C399 H369 0.929 . S
C399 N395 1.418 . S
C399 C398 1.251 . S
C400 H367 0.930 . S
C400 C402 1.406 . S
C400 C405 1.261 . S
C401 H368 0.930 . S
C401 N403 1.325 . S
C401 C404 1.357 . S
C402 H370 0.928 . S
C402 C400 1.406 . S
C402 N403 1.261 . S
N403 Co354 2.214 . S
N403 C401 1.325 . S
N403 C402 1.261 . S
C404 H374 0.931 . S
C404 C401 1.357 . S
C404 C405 1.312 . S
C405 H376 0.930 . S
C405 C400 1.261 . S
C405 C404 1.312 . S
C406 O378 1.214 . S
C406 O386 1.234 . S
C407 H379 0.929 . S
C407 C410 1.391 . S
C407 C412 1.391 . S
C408 H380 0.929 . S
C408 C409 1.390 . S
C408 N411 1.391 . S
C409 H381 0.930 . S
C409 C408 1.390 . S
C409 C410 1.392 . S
C410 H382 0.929 . S
C410 C407 1.391 . S
C410 C409 1.392 . S
N411 Co355 2.257 . S
N411 C408 1.391 . S
N411 C412 1.388 . S
C412 H383 0.930 . S
C412 C407 1.391 . S
C412 N411 1.388 . S
Co413 O415 2.143 . S
Co413 O421 2.074 . S
Co413 O424 2.093 . S
Co413 O437 2.097 . S
Co413 N454 2.151 . S
Co413 N462 2.214 . S
Co414 O415 2.160 . S
Co414 O420 2.058 . S
Co414 O430 2.057 . S
Co414 O445 2.037 . S
Co414 N449 2.145 . S
Co414 N470 2.257 . S
O415 Co413 2.143 . S
O415 Co414 2.160 . S
C416 O417 1.278 . S
C416 O424 1.224 . S
O417 C416 1.278 . S
C418 O419 1.245 . S
C418 O430 1.232 . S
O419 C418 1.245 . S
O420 Co414 2.058 . S
O420 C446 1.269 . S
O421 Co413 2.074 . S
O421 C446 1.257 . S
H422 C447 0.930 . S
H423 C453 0.930 . S
O424 Co413 2.093 . S
O424 C416 1.224 . S
H425 C457 0.929 . S
H426 C459 0.930 . S
H427 C460 0.930 . S
H428 C458 0.929 . S
H429 C461 0.928 . S
O430 Co414 2.057 . S
O430 C418 1.232 . S
H431 C450 0.929 . S
H432 C451 0.929 . S
H433 C463 0.931 . S
H434 C455 0.929 . S
H435 C464 0.930 . S
H436 C456 0.931 . S
O437 Co413 2.097 . S
O437 C465 1.214 . S
H438 C466 0.929 . S
H439 C467 0.929 . S
H440 C468 0.930 . S
H441 C469 0.929 . S
H442 C471 0.930 . S
H443 C448 0.930 . S
H444 C452 0.930 . S
O445 Co414 2.037 . S
O445 C465 1.234 . S
C446 O420 1.269 . S
C446 O421 1.257 . S
C447 H422 0.930 . S
C447 C450 1.388 . S
C447 C452 1.418 . S
C448 H443 0.930 . S
C448 C451 1.404 . S
C448 C452 1.353 . S
N449 Co414 2.145 . S
N449 C450 1.397 . S
N449 C451 1.334 . S
C450 H431 0.929 . S
C450 C447 1.388 . S
C450 N449 1.397 . S
C451 H432 0.929 . S
C451 C448 1.404 . S
C451 N449 1.334 . S
C452 H444 0.930 . S
C452 C447 1.418 . S
C452 C448 1.353 . S
C453 H423 0.930 . S
C453 N454 1.330 . S
C453 C455 1.446 . S
N454 Co413 2.151 . S
N454 C453 1.330 . S
N454 C458 1.418 . S
C455 H434 0.929 . S
C455 C453 1.446 . S
C455 C456 1.332 . S
C456 H436 0.931 . S
C456 C455 1.332 . S
C456 C457 1.267 . S
C457 H425 0.929 . S
C457 C456 1.267 . S
C457 C458 1.251 . S
C458 H428 0.929 . S
C458 N454 1.418 . S
C458 C457 1.251 . S
C459 H426 0.930 . S
C459 C461 1.406 . S
C459 C464 1.261 . S
C460 H427 0.930 . S
C460 N462 1.325 . S
C460 C463 1.357 . S
C461 H429 0.928 . S
C461 C459 1.406 . S
C461 N462 1.261 . S
N462 Co413 2.214 . S
N462 C460 1.325 . S
N462 C461 1.261 . S
C463 H433 0.931 . S
C463 C460 1.357 . S
C463 C464 1.312 . S
C464 H435 0.930 . S
C464 C459 1.261 . S
C464 C463 1.312 . S
C465 O437 1.214 . S
C465 O445 1.234 . S
C466 H438 0.929 . S
C466 C469 1.391 . S
C466 C471 1.391 . S
C467 H439 0.929 . S
C467 C468 1.390 . S
C467 N470 1.391 . S
C468 H440 0.930 . S
C468 C467 1.390 . S
C468 C469 1.392 . S
C469 H441 0.929 . S
C469 C466 1.391 . S
C469 C468 1.392 . S
N470 Co414 2.257 . S
N470 C467 1.391 . S
N470 C471 1.388 . S
C471 H442 0.930 . S
C471 C466 1.391 . S
C471 N470 1.388 . S
Co472 O474 2.143 . S
Co472 O480 2.074 . S
Co472 O483 2.093 . S
Co472 O496 2.097 . S
Co472 N513 2.151 . S
Co472 N521 2.214 . S
Co473 O474 2.160 . S
Co473 O479 2.058 . S
Co473 O489 2.057 . S
Co473 O504 2.037 . S
Co473 N508 2.145 . S
Co473 N529 2.257 . S
O474 Co472 2.143 . S
O474 Co473 2.160 . S
C475 O476 1.278 . S
C475 O483 1.224 . S
O476 C475 1.278 . S
C477 O478 1.245 . S
C477 O489 1.232 . S
O478 C477 1.245 . S
O479 Co473 2.058 . S
O479 C505 1.269 . S
O480 Co472 2.074 . S
O480 C505 1.257 . S
H481 C506 0.930 . S
H482 C512 0.930 . S
O483 Co472 2.093 . S
O483 C475 1.224 . S
H484 C516 0.929 . S
H485 C518 0.930 . S
H486 C519 0.930 . S
H487 C517 0.929 . S
H488 C520 0.928 . S
O489 Co473 2.057 . S
O489 C477 1.232 . S
H490 C509 0.929 . S
H491 C510 0.929 . S
H492 C522 0.931 . S
H493 C514 0.929 . S
H494 C523 0.930 . S
H495 C515 0.931 . S
O496 Co472 2.097 . S
O496 C524 1.214 . S
H497 C525 0.929 . S
H498 C526 0.929 . S
H499 C527 0.930 . S
H500 C528 0.929 . S
H501 C530 0.930 . S
H502 C507 0.930 . S
H503 C511 0.930 . S
O504 Co473 2.037 . S
O504 C524 1.234 . S
C505 O479 1.269 . S
C505 O480 1.257 . S
C506 H481 0.930 . S
C506 C509 1.388 . S
C506 C511 1.418 . S
C507 H502 0.930 . S
C507 C510 1.404 . S
C507 C511 1.353 . S
N508 Co473 2.145 . S
N508 C509 1.397 . S
N508 C510 1.334 . S
C509 H490 0.929 . S
C509 C506 1.388 . S
C509 N508 1.397 . S
C510 H491 0.929 . S
C510 C507 1.404 . S
C510 N508 1.334 . S
C511 H503 0.930 . S
C511 C506 1.418 . S
C511 C507 1.353 . S
C512 H482 0.930 . S
C512 N513 1.330 . S
C512 C514 1.446 . S
N513 Co472 2.151 . S
N513 C512 1.330 . S
N513 C517 1.418 . S
C514 H493 0.929 . S
C514 C512 1.446 . S
C514 C515 1.332 . S
C515 H495 0.931 . S
C515 C514 1.332 . S
C515 C516 1.267 . S
C516 H484 0.929 . S
C516 C515 1.267 . S
C516 C517 1.251 . S
C517 H487 0.929 . S
C517 N513 1.418 . S
C517 C516 1.251 . S
C518 H485 0.930 . S
C518 C520 1.406 . S
C518 C523 1.261 . S
C519 H486 0.930 . S
C519 N521 1.325 . S
C519 C522 1.357 . S
C520 H488 0.928 . S
C520 C518 1.406 . S
C520 N521 1.261 . S
N521 Co472 2.214 . S
N521 C519 1.325 . S
N521 C520 1.261 . S
C522 H492 0.931 . S
C522 C519 1.357 . S
C522 C523 1.312 . S
C523 H494 0.930 . S
C523 C518 1.261 . S
C523 C522 1.312 . S
C524 O496 1.214 . S
C524 O504 1.234 . S
C525 H497 0.929 . S
C525 C528 1.391 . S
C525 C530 1.391 . S
C526 H498 0.929 . S
C526 C527 1.390 . S
C526 N529 1.391 . S
C527 H499 0.930 . S
C527 C526 1.390 . S
C527 C528 1.392 . S
C528 H500 0.929 . S
C528 C525 1.391 . S
C528 C527 1.392 . S
N529 Co473 2.257 . S
N529 C526 1.391 . S
N529 C530 1.388 . S
C530 H501 0.930 . S
C530 C525 1.391 . S
C530 N529 1.388 . S
Co531 O533 2.143 . S
Co531 O539 2.074 . S
Co531 O542 2.093 . S
Co531 O555 2.097 . S
Co531 N572 2.151 . S
Co531 N580 2.214 . S
Co532 O533 2.160 . S
Co532 O538 2.058 . S
Co532 O548 2.057 . S
Co532 O563 2.037 . S
Co532 N567 2.145 . S
Co532 N588 2.257 . S
O533 Co531 2.143 . S
O533 Co532 2.160 . S
C534 O535 1.278 . S
C534 O542 1.224 . S
O535 C534 1.278 . S
C536 O537 1.245 . S
C536 O548 1.232 . S
O537 C536 1.245 . S
O538 Co532 2.058 . S
O538 C564 1.269 . S
O539 Co531 2.074 . S
O539 C564 1.257 . S
H540 C565 0.930 . S
H541 C571 0.930 . S
O542 Co531 2.093 . S
O542 C534 1.224 . S
H543 C575 0.929 . S
H544 C577 0.930 . S
H545 C578 0.930 . S
H546 C576 0.929 . S
H547 C579 0.928 . S
O548 Co532 2.057 . S
O548 C536 1.232 . S
H549 C568 0.929 . S
H550 C569 0.929 . S
H551 C581 0.931 . S
H552 C573 0.929 . S
H553 C582 0.930 . S
H554 C574 0.931 . S
O555 Co531 2.097 . S
O555 C583 1.214 . S
H556 C584 0.929 . S
H557 C585 0.929 . S
H558 C586 0.930 . S
H559 C587 0.929 . S
H560 C589 0.930 . S
H561 C566 0.930 . S
H562 C570 0.930 . S
O563 Co532 2.037 . S
O563 C583 1.234 . S
C564 O538 1.269 . S
C564 O539 1.257 . S
C565 H540 0.930 . S
C565 C568 1.388 . S
C565 C570 1.418 . S
C566 H561 0.930 . S
C566 C569 1.404 . S
C566 C570 1.353 . S
N567 Co532 2.145 . S
N567 C568 1.397 . S
N567 C569 1.334 . S
C568 H549 0.929 . S
C568 C565 1.388 . S
C568 N567 1.397 . S
C569 H550 0.929 . S
C569 C566 1.404 . S
C569 N567 1.334 . S
C570 H562 0.930 . S
C570 C565 1.418 . S
C570 C566 1.353 . S
C571 H541 0.930 . S
C571 N572 1.330 . S
C571 C573 1.446 . S
N572 Co531 2.151 . S
N572 C571 1.330 . S
N572 C576 1.418 . S
C573 H552 0.929 . S
C573 C571 1.446 . S
C573 C574 1.332 . S
C574 H554 0.931 . S
C574 C573 1.332 . S
C574 C575 1.267 . S
C575 H543 0.929 . S
C575 C574 1.267 . S
C575 C576 1.251 . S
C576 H546 0.929 . S
C576 N572 1.418 . S
C576 C575 1.251 . S
C577 H544 0.930 . S
C577 C579 1.406 . S
C577 C582 1.261 . S
C578 H545 0.930 . S
C578 N580 1.325 . S
C578 C581 1.357 . S
C579 H547 0.928 . S
C579 C577 1.406 . S
C579 N580 1.261 . S
N580 Co531 2.214 . S
N580 C578 1.325 . S
N580 C579 1.261 . S
C581 H551 0.931 . S
C581 C578 1.357 . S
C581 C582 1.312 . S
C582 H553 0.930 . S
C582 C577 1.261 . S
C582 C581 1.312 . S
C583 O555 1.214 . S
C583 O563 1.234 . S
C584 H556 0.929 . S
C584 C587 1.391 . S
C584 C589 1.391 . S
C585 H557 0.929 . S
C585 C586 1.390 . S
C585 N588 1.391 . S
C586 H558 0.930 . S
C586 C585 1.390 . S
C586 C587 1.392 . S
C587 H559 0.929 . S
C587 C584 1.391 . S
C587 C586 1.392 . S
N588 Co532 2.257 . S
N588 C585 1.391 . S
N588 C589 1.388 . S
C589 H560 0.930 . S
C589 C584 1.391 . S
C589 N588 1.388 . S
Co590 O592 2.143 . S
Co590 O598 2.074 . S
Co590 O601 2.093 . S
Co590 O614 2.097 . S
Co590 N631 2.151 . S
Co590 N639 2.214 . S
Co591 O592 2.160 . S
Co591 O597 2.058 . S
Co591 O607 2.057 . S
Co591 O622 2.037 . S
Co591 N626 2.145 . S
Co591 N647 2.257 . S
O592 Co590 2.143 . S
O592 Co591 2.160 . S
C593 O594 1.278 . S
C593 O601 1.224 . S
O594 C593 1.278 . S
C595 O596 1.245 . S
C595 O607 1.232 . S
O596 C595 1.245 . S
O597 Co591 2.058 . S
O597 C623 1.269 . S
O598 Co590 2.074 . S
O598 C623 1.257 . S
H599 C624 0.930 . S
H600 C630 0.930 . S
O601 Co590 2.093 . S
O601 C593 1.224 . S
H602 C634 0.929 . S
H603 C636 0.930 . S
H604 C637 0.930 . S
H605 C635 0.929 . S
H606 C638 0.928 . S
O607 Co591 2.057 . S
O607 C595 1.232 . S
H608 C627 0.929 . S
H609 C628 0.929 . S
H610 C640 0.931 . S
H611 C632 0.929 . S
H612 C641 0.930 . S
H613 C633 0.931 . S
O614 Co590 2.097 . S
O614 C642 1.214 . S
H615 C643 0.929 . S
H616 C644 0.929 . S
H617 C645 0.930 . S
H618 C646 0.929 . S
H619 C648 0.930 . S
H620 C625 0.930 . S
H621 C629 0.930 . S
O622 Co591 2.037 . S
O622 C642 1.234 . S
C623 O597 1.269 . S
C623 O598 1.257 . S
C624 H599 0.930 . S
C624 C627 1.388 . S
C624 C629 1.418 . S
C625 H620 0.930 . S
C625 C628 1.404 . S
C625 C629 1.353 . S
N626 Co591 2.145 . S
N626 C627 1.397 . S
N626 C628 1.334 . S
C627 H608 0.929 . S
C627 C624 1.388 . S
C627 N626 1.397 . S
C628 H609 0.929 . S
C628 C625 1.404 . S
C628 N626 1.334 . S
C629 H621 0.930 . S
C629 C624 1.418 . S
C629 C625 1.353 . S
C630 H600 0.930 . S
C630 N631 1.330 . S
C630 C632 1.446 . S
N631 Co590 2.151 . S
N631 C630 1.330 . S
N631 C635 1.418 . S
C632 H611 0.929 . S
C632 C630 1.446 . S
C632 C633 1.332 . S
C633 H613 0.931 . S
C633 C632 1.332 . S
C633 C634 1.267 . S
C634 H602 0.929 . S
C634 C633 1.267 . S
C634 C635 1.251 . S
C635 H605 0.929 . S
C635 N631 1.418 . S
C635 C634 1.251 . S
C636 H603 0.930 . S
C636 C638 1.406 . S
C636 C641 1.261 . S
C637 H604 0.930 . S
C637 N639 1.325 . S
C637 C640 1.357 . S
C638 H606 0.928 . S
C638 C636 1.406 . S
C638 N639 1.261 . S
N639 Co590 2.214 . S
N639 C637 1.325 . S
N639 C638 1.261 . S
C640 H610 0.931 . S
C640 C637 1.357 . S
C640 C641 1.312 . S
C641 H612 0.930 . S
C641 C636 1.261 . S
C641 C640 1.312 . S
C642 O614 1.214 . S
C642 O622 1.234 . S
C643 H615 0.929 . S
C643 C646 1.391 . S
C643 C648 1.391 . S
C644 H616 0.929 . S
C644 C645 1.390 . S
C644 N647 1.391 . S
C645 H617 0.930 . S
C645 C644 1.390 . S
C645 C646 1.392 . S
C646 H618 0.929 . S
C646 C643 1.391 . S
C646 C645 1.392 . S
N647 Co591 2.257 . S
N647 C644 1.391 . S
N647 C648 1.388 . S
C648 H619 0.930 . S
C648 C643 1.391 . S
C648 N647 1.388 . S
Co649 O651 2.143 . S
Co649 O657 2.074 . S
Co649 O660 2.093 . S
Co649 O673 2.097 . S
Co649 N690 2.151 . S
Co649 N698 2.214 . S
Co650 O651 2.160 . S
Co650 O656 2.058 . S
Co650 O666 2.057 . S
Co650 O681 2.037 . S
Co650 N685 2.145 . S
Co650 N706 2.257 . S
O651 Co649 2.143 . S
O651 Co650 2.160 . S
C652 O653 1.278 . S
C652 O660 1.224 . S
O653 C652 1.278 . S
C654 O655 1.245 . S
C654 O666 1.232 . S
O655 C654 1.245 . S
O656 Co650 2.058 . S
O656 C682 1.269 . S
O657 Co649 2.074 . S
O657 C682 1.257 . S
H658 C683 0.930 . S
H659 C689 0.930 . S
O660 Co649 2.093 . S
O660 C652 1.224 . S
H661 C693 0.929 . S
H662 C695 0.930 . S
H663 C696 0.930 . S
H664 C694 0.929 . S
H665 C697 0.928 . S
O666 Co650 2.057 . S
O666 C654 1.232 . S
H667 C686 0.929 . S
H668 C687 0.929 . S
H669 C699 0.931 . S
H670 C691 0.929 . S
H671 C700 0.930 . S
H672 C692 0.931 . S
O673 Co649 2.097 . S
O673 C701 1.214 . S
H674 C702 0.929 . S
H675 C703 0.929 . S
H676 C704 0.930 . S
H677 C705 0.929 . S
H678 C707 0.930 . S
H679 C684 0.930 . S
H680 C688 0.930 . S
O681 Co650 2.037 . S
O681 C701 1.234 . S
C682 O656 1.269 . S
C682 O657 1.257 . S
C683 H658 0.930 . S
C683 C686 1.388 . S
C683 C688 1.418 . S
C684 H679 0.930 . S
C684 C687 1.404 . S
C684 C688 1.353 . S
N685 Co650 2.145 . S
N685 C686 1.397 . S
N685 C687 1.334 . S
C686 H667 0.929 . S
C686 C683 1.388 . S
C686 N685 1.397 . S
C687 H668 0.929 . S
C687 C684 1.404 . S
C687 N685 1.334 . S
C688 H680 0.930 . S
C688 C683 1.418 . S
C688 C684 1.353 . S
C689 H659 0.930 . S
C689 N690 1.330 . S
C689 C691 1.446 . S
N690 Co649 2.151 . S
N690 C689 1.330 . S
N690 C694 1.418 . S
C691 H670 0.929 . S
C691 C689 1.446 . S
C691 C692 1.332 . S
C692 H672 0.931 . S
C692 C691 1.332 . S
C692 C693 1.267 . S
C693 H661 0.929 . S
C693 C692 1.267 . S
C693 C694 1.251 . S
C694 H664 0.929 . S
C694 N690 1.418 . S
C694 C693 1.251 . S
C695 H662 0.930 . S
C695 C697 1.406 . S
C695 C700 1.261 . S
C696 H663 0.930 . S
C696 N698 1.325 . S
C696 C699 1.357 . S
C697 H665 0.928 . S
C697 C695 1.406 . S
C697 N698 1.261 . S
N698 Co649 2.214 . S
N698 C696 1.325 . S
N698 C697 1.261 . S
C699 H669 0.931 . S
C699 C696 1.357 . S
C699 C700 1.312 . S
C700 H671 0.930 . S
C700 C695 1.261 . S
C700 C699 1.312 . S
C701 O673 1.214 . S
C701 O681 1.234 . S
C702 H674 0.929 . S
C702 C705 1.391 . S
C702 C707 1.391 . S
C703 H675 0.929 . S
C703 C704 1.390 . S
C703 N706 1.391 . S
C704 H676 0.930 . S
C704 C703 1.390 . S
C704 C705 1.392 . S
C705 H677 0.929 . S
C705 C702 1.391 . S
C705 C704 1.392 . S
N706 Co650 2.257 . S
N706 C703 1.391 . S
N706 C707 1.388 . S
C707 H678 0.930 . S
C707 C702 1.391 . S
C707 N706 1.388 . S
Co708 O710 2.143 . S
Co708 O716 2.074 . S
Co708 O719 2.093 . S
Co708 O732 2.097 . S
Co708 N749 2.151 . S
Co708 N757 2.214 . S
Co709 O710 2.160 . S
Co709 O715 2.058 . S
Co709 O725 2.057 . S
Co709 O740 2.037 . S
Co709 N744 2.145 . S
Co709 N765 2.257 . S
O710 Co708 2.143 . S
O710 Co709 2.160 . S
C711 O712 1.278 . S
C711 O719 1.224 . S
O712 C711 1.278 . S
C713 O714 1.245 . S
C713 O725 1.232 . S
O714 C713 1.245 . S
O715 Co709 2.058 . S
O715 C741 1.269 . S
O716 Co708 2.074 . S
O716 C741 1.257 . S
H717 C742 0.930 . S
H718 C748 0.930 . S
O719 Co708 2.093 . S
O719 C711 1.224 . S
H720 C752 0.929 . S
H721 C754 0.930 . S
H722 C755 0.930 . S
H723 C753 0.929 . S
H724 C756 0.928 . S
O725 Co709 2.057 . S
O725 C713 1.232 . S
H726 C745 0.929 . S
H727 C746 0.929 . S
H728 C758 0.931 . S
H729 C750 0.929 . S
H730 C759 0.930 . S
H731 C751 0.931 . S
O732 Co708 2.097 . S
O732 C760 1.214 . S
H733 C761 0.929 . S
H734 C762 0.929 . S
H735 C763 0.930 . S
H736 C764 0.929 . S
H737 C766 0.930 . S
H738 C743 0.930 . S
H739 C747 0.930 . S
O740 Co709 2.037 . S
O740 C760 1.234 . S
C741 O715 1.269 . S
C741 O716 1.257 . S
C742 H717 0.930 . S
C742 C745 1.388 . S
C742 C747 1.418 . S
C743 H738 0.930 . S
C743 C746 1.404 . S
C743 C747 1.353 . S
N744 Co709 2.145 . S
N744 C745 1.397 . S
N744 C746 1.334 . S
C745 H726 0.929 . S
C745 C742 1.388 . S
C745 N744 1.397 . S
C746 H727 0.929 . S
C746 C743 1.404 . S
C746 N744 1.334 . S
C747 H739 0.930 . S
C747 C742 1.418 . S
C747 C743 1.353 . S
C748 H718 0.930 . S
C748 N749 1.330 . S
C748 C750 1.446 . S
N749 Co708 2.151 . S
N749 C748 1.330 . S
N749 C753 1.418 . S
C750 H729 0.929 . S
C750 C748 1.446 . S
C750 C751 1.332 . S
C751 H731 0.931 . S
C751 C750 1.332 . S
C751 C752 1.267 . S
C752 H720 0.929 . S
C752 C751 1.267 . S
C752 C753 1.251 . S
C753 H723 0.929 . S
C753 N749 1.418 . S
C753 C752 1.251 . S
C754 H721 0.930 . S
C754 C756 1.406 . S
C754 C759 1.261 . S
C755 H722 0.930 . S
C755 N757 1.325 . S
C755 C758 1.357 . S
C756 H724 0.928 . S
C756 C754 1.406 . S
C756 N757 1.261 . S
N757 Co708 2.214 . S
N757 C755 1.325 . S
N757 C756 1.261 . S
C758 H728 0.931 . S
C758 C755 1.357 . S
C758 C759 1.312 . S
C759 H730 0.930 . S
C759 C754 1.261 . S
C759 C758 1.312 . S
C760 O732 1.214 . S
C760 O740 1.234 . S
C761 H733 0.929 . S
C761 C764 1.391 . S
C761 C766 1.391 . S
C762 H734 0.929 . S
C762 C763 1.390 . S
C762 N765 1.391 . S
C763 H735 0.930 . S
C763 C762 1.390 . S
C763 C764 1.392 . S
C764 H736 0.929 . S
C764 C761 1.391 . S
C764 C763 1.392 . S
N765 Co709 2.257 . S
N765 C762 1.391 . S
N765 C766 1.388 . S
C766 H737 0.930 . S
C766 C761 1.391 . S
C766 N765 1.388 . S
Co767 O769 2.143 . S
Co767 O775 2.074 . S
Co767 O778 2.093 . S
Co767 O791 2.097 . S
Co767 N808 2.151 . S
Co767 N816 2.214 . S
Co768 O769 2.160 . S
Co768 O774 2.058 . S
Co768 O784 2.057 . S
Co768 O799 2.037 . S
Co768 N803 2.145 . S
Co768 N824 2.257 . S
O769 Co767 2.143 . S
O769 Co768 2.160 . S
C770 O771 1.278 . S
C770 O778 1.224 . S
O771 C770 1.278 . S
C772 O773 1.245 . S
C772 O784 1.232 . S
O773 C772 1.245 . S
O774 Co768 2.058 . S
O774 C800 1.269 . S
O775 Co767 2.074 . S
O775 C800 1.257 . S
H776 C801 0.930 . S
H777 C807 0.930 . S
O778 Co767 2.093 . S
O778 C770 1.224 . S
H779 C811 0.929 . S
H780 C813 0.930 . S
H781 C814 0.930 . S
H782 C812 0.929 . S
H783 C815 0.928 . S
O784 Co768 2.057 . S
O784 C772 1.232 . S
H785 C804 0.929 . S
H786 C805 0.929 . S
H787 C817 0.931 . S
H788 C809 0.929 . S
H789 C818 0.930 . S
H790 C810 0.931 . S
O791 Co767 2.097 . S
O791 C819 1.214 . S
H792 C820 0.929 . S
H793 C821 0.929 . S
H794 C822 0.930 . S
H795 C823 0.929 . S
H796 C825 0.930 . S
H797 C802 0.930 . S
H798 C806 0.930 . S
O799 Co768 2.037 . S
O799 C819 1.234 . S
C800 O774 1.269 . S
C800 O775 1.257 . S
C801 H776 0.930 . S
C801 C804 1.388 . S
C801 C806 1.418 . S
C802 H797 0.930 . S
C802 C805 1.404 . S
C802 C806 1.353 . S
N803 Co768 2.145 . S
N803 C804 1.397 . S
N803 C805 1.334 . S
C804 H785 0.929 . S
C804 C801 1.388 . S
C804 N803 1.397 . S
C805 H786 0.929 . S
C805 C802 1.404 . S
C805 N803 1.334 . S
C806 H798 0.930 . S
C806 C801 1.418 . S
C806 C802 1.353 . S
C807 H777 0.930 . S
C807 N808 1.330 . S
C807 C809 1.446 . S
N808 Co767 2.151 . S
N808 C807 1.330 . S
N808 C812 1.418 . S
C809 H788 0.929 . S
C809 C807 1.446 . S
C809 C810 1.332 . S
C810 H790 0.931 . S
C810 C809 1.332 . S
C810 C811 1.267 . S
C811 H779 0.929 . S
C811 C810 1.267 . S
C811 C812 1.251 . S
C812 H782 0.929 . S
C812 N808 1.418 . S
C812 C811 1.251 . S
C813 H780 0.930 . S
C813 C815 1.406 . S
C813 C818 1.261 . S
C814 H781 0.930 . S
C814 N816 1.325 . S
C814 C817 1.357 . S
C815 H783 0.928 . S
C815 C813 1.406 . S
C815 N816 1.261 . S
N816 Co767 2.214 . S
N816 C814 1.325 . S
N816 C815 1.261 . S
C817 H787 0.931 . S
C817 C814 1.357 . S
C817 C818 1.312 . S
C818 H789 0.930 . S
C818 C813 1.261 . S
C818 C817 1.312 . S
C819 O791 1.214 . S
C819 O799 1.234 . S
C820 H792 0.929 . S
C820 C823 1.391 . S
C820 C825 1.391 . S
C821 H793 0.929 . S
C821 C822 1.390 . S
C821 N824 1.391 . S
C822 H794 0.930 . S
C822 C821 1.390 . S
C822 C823 1.392 . S
C823 H795 0.929 . S
C823 C820 1.391 . S
C823 C822 1.392 . S
N824 Co768 2.257 . S
N824 C821 1.391 . S
N824 C825 1.388 . S
C825 H796 0.930 . S
C825 C820 1.391 . S
C825 N824 1.388 . S
Co826 O828 2.143 . S
Co826 O834 2.074 . S
Co826 O837 2.093 . S
Co826 O850 2.097 . S
Co826 N867 2.151 . S
Co826 N875 2.214 . S
Co827 O828 2.160 . S
Co827 O833 2.058 . S
Co827 O843 2.057 . S
Co827 O858 2.037 . S
Co827 N862 2.145 . S
Co827 N883 2.257 . S
O828 Co826 2.143 . S
O828 Co827 2.160 . S
C829 O830 1.278 . S
C829 O837 1.224 . S
O830 C829 1.278 . S
C831 O832 1.245 . S
C831 O843 1.232 . S
O832 C831 1.245 . S
O833 Co827 2.058 . S
O833 C859 1.269 . S
O834 Co826 2.074 . S
O834 C859 1.257 . S
H835 C860 0.930 . S
H836 C866 0.930 . S
O837 Co826 2.093 . S
O837 C829 1.224 . S
H838 C870 0.929 . S
H839 C872 0.930 . S
H840 C873 0.930 . S
H841 C871 0.929 . S
H842 C874 0.928 . S
O843 Co827 2.057 . S
O843 C831 1.232 . S
H844 C863 0.929 . S
H845 C864 0.929 . S
H846 C876 0.931 . S
H847 C868 0.929 . S
H848 C877 0.930 . S
H849 C869 0.931 . S
O850 Co826 2.097 . S
O850 C878 1.214 . S
H851 C879 0.929 . S
H852 C880 0.929 . S
H853 C881 0.930 . S
H854 C882 0.929 . S
H855 C884 0.930 . S
H856 C861 0.930 . S
H857 C865 0.930 . S
O858 Co827 2.037 . S
O858 C878 1.234 . S
C859 O833 1.269 . S
C859 O834 1.257 . S
C860 H835 0.930 . S
C860 C863 1.388 . S
C860 C865 1.418 . S
C861 H856 0.930 . S
C861 C864 1.404 . S
C861 C865 1.353 . S
N862 Co827 2.145 . S
N862 C863 1.397 . S
N862 C864 1.334 . S
C863 H844 0.929 . S
C863 C860 1.388 . S
C863 N862 1.397 . S
C864 H845 0.929 . S
C864 C861 1.404 . S
C864 N862 1.334 . S
C865 H857 0.930 . S
C865 C860 1.418 . S
C865 C861 1.353 . S
C866 H836 0.930 . S
C866 N867 1.330 . S
C866 C868 1.446 . S
N867 Co826 2.151 . S
N867 C866 1.330 . S
N867 C871 1.418 . S
C868 H847 0.929 . S
C868 C866 1.446 . S
C868 C869 1.332 . S
C869 H849 0.931 . S
C869 C868 1.332 . S
C869 C870 1.267 . S
C870 H838 0.929 . S
C870 C869 1.267 . S
C870 C871 1.251 . S
C871 H841 0.929 . S
C871 N867 1.418 . S
C871 C870 1.251 . S
C872 H839 0.930 . S
C872 C874 1.406 . S
C872 C877 1.261 . S
C873 H840 0.930 . S
C873 N875 1.325 . S
C873 C876 1.357 . S
C874 H842 0.928 . S
C874 C872 1.406 . S
C874 N875 1.261 . S
N875 Co826 2.214 . S
N875 C873 1.325 . S
N875 C874 1.261 . S
C876 H846 0.931 . S
C876 C873 1.357 . S
C876 C877 1.312 . S
C877 H848 0.930 . S
C877 C872 1.261 . S
C877 C876 1.312 . S
C878 O850 1.214 . S
C878 O858 1.234 . S
C879 H851 0.929 . S
C879 C882 1.391 . S
C879 C884 1.391 . S
C880 H852 0.929 . S
C880 C881 1.390 . S
C880 N883 1.391 . S
C881 H853 0.930 . S
C881 C880 1.390 . S
C881 C882 1.392 . S
C882 H854 0.929 . S
C882 C879 1.391 . S
C882 C881 1.392 . S
N883 Co827 2.257 . S
N883 C880 1.391 . S
N883 C884 1.388 . S
C884 H855 0.930 . S
C884 C879 1.391 . S
C884 N883 1.388 . S
Co885 O887 2.143 . S
Co885 O893 2.074 . S
Co885 O896 2.093 . S
Co885 O909 2.097 . S
Co885 N926 2.151 . S
Co885 N934 2.214 . S
Co886 O887 2.160 . S
Co886 O892 2.058 . S
Co886 O902 2.057 . S
Co886 O917 2.037 . S
Co886 N921 2.145 . S
Co886 N942 2.257 . S
O887 Co885 2.143 . S
O887 Co886 2.160 . S
C888 O889 1.278 . S
C888 O896 1.224 . S
O889 C888 1.278 . S
C890 O891 1.245 . S
C890 O902 1.232 . S
O891 C890 1.245 . S
O892 Co886 2.058 . S
O892 C918 1.269 . S
O893 Co885 2.074 . S
O893 C918 1.257 . S
H894 C919 0.930 . S
H895 C925 0.930 . S
O896 Co885 2.093 . S
O896 C888 1.224 . S
H897 C929 0.929 . S
H898 C931 0.930 . S
H899 C932 0.930 . S
H900 C930 0.929 . S
H901 C933 0.928 . S
O902 Co886 2.057 . S
O902 C890 1.232 . S
H903 C922 0.929 . S
H904 C923 0.929 . S
H905 C935 0.931 . S
H906 C927 0.929 . S
H907 C936 0.930 . S
H908 C928 0.931 . S
O909 Co885 2.097 . S
O909 C937 1.214 . S
H910 C938 0.929 . S
H911 C939 0.929 . S
H912 C940 0.930 . S
H913 C941 0.929 . S
H914 C943 0.930 . S
H915 C920 0.930 . S
H916 C924 0.930 . S
O917 Co886 2.037 . S
O917 C937 1.234 . S
C918 O892 1.269 . S
C918 O893 1.257 . S
C919 H894 0.930 . S
C919 C922 1.388 . S
C919 C924 1.418 . S
C920 H915 0.930 . S
C920 C923 1.404 . S
C920 C924 1.353 . S
N921 Co886 2.145 . S
N921 C922 1.397 . S
N921 C923 1.334 . S
C922 H903 0.929 . S
C922 C919 1.388 . S
C922 N921 1.397 . S
C923 H904 0.929 . S
C923 C920 1.404 . S
C923 N921 1.334 . S
C924 H916 0.930 . S
C924 C919 1.418 . S
C924 C920 1.353 . S
C925 H895 0.930 . S
C925 N926 1.330 . S
C925 C927 1.446 . S
N926 Co885 2.151 . S
N926 C925 1.330 . S
N926 C930 1.418 . S
C927 H906 0.929 . S
C927 C925 1.446 . S
C927 C928 1.332 . S
C928 H908 0.931 . S
C928 C927 1.332 . S
C928 C929 1.267 . S
C929 H897 0.929 . S
C929 C928 1.267 . S
C929 C930 1.251 . S
C930 H900 0.929 . S
C930 N926 1.418 . S
C930 C929 1.251 . S
C931 H898 0.930 . S
C931 C933 1.406 . S
C931 C936 1.261 . S
C932 H899 0.930 . S
C932 N934 1.325 . S
C932 C935 1.357 . S
C933 H901 0.928 . S
C933 C931 1.406 . S
C933 N934 1.261 . S
N934 Co885 2.214 . S
N934 C932 1.325 . S
N934 C933 1.261 . S
C935 H905 0.931 . S
C935 C932 1.357 . S
C935 C936 1.312 . S
C936 H907 0.930 . S
C936 C931 1.261 . S
C936 C935 1.312 . S
C937 O909 1.214 . S
C937 O917 1.234 . S
C938 H910 0.929 . S
C938 C941 1.391 . S
C938 C943 1.391 . S
C939 H911 0.929 . S
C939 C940 1.390 . S
C939 N942 1.391 . S
C940 H912 0.930 . S
C940 C939 1.390 . S
C940 C941 1.392 . S
C941 H913 0.929 . S
C941 C938 1.391 . S
C941 C940 1.392 . S
N942 Co886 2.257 . S
N942 C939 1.391 . S
N942 C943 1.388 . S
C943 H914 0.930 . S
C943 C938 1.391 . S
C943 N942 1.388 . S
Co944 O946 2.143 . S
Co944 O952 2.074 . S
Co944 O955 2.093 . S
Co944 O968 2.097 . S
Co944 N985 2.151 . S
Co944 N993 2.214 . S
Co945 O946 2.160 . S
Co945 O951 2.058 . S
Co945 O961 2.057 . S
Co945 O976 2.037 . S
Co945 N980 2.145 . S
Co945 N1001 2.257 . S
O946 Co944 2.143 . S
O946 Co945 2.160 . S
C947 O948 1.278 . S
C947 O955 1.224 . S
O948 C947 1.278 . S
C949 O950 1.245 . S
C949 O961 1.232 . S
O950 C949 1.245 . S
O951 Co945 2.058 . S
O951 C977 1.269 . S
O952 Co944 2.074 . S
O952 C977 1.257 . S
H953 C978 0.930 . S
H954 C984 0.930 . S
O955 Co944 2.093 . S
O955 C947 1.224 . S
H956 C988 0.929 . S
H957 C990 0.930 . S
H958 C991 0.930 . S
H959 C989 0.929 . S
H960 C992 0.928 . S
O961 Co945 2.057 . S
O961 C949 1.232 . S
H962 C981 0.929 . S
H963 C982 0.929 . S
H964 C994 0.931 . S
H965 C986 0.929 . S
H966 C995 0.930 . S
H967 C987 0.931 . S
O968 Co944 2.097 . S
O968 C996 1.214 . S
H969 C997 0.929 . S
H970 C998 0.929 . S
H971 C999 0.930 . S
H972 C1000 0.929 . S
H973 C1002 0.930 . S
H974 C979 0.930 . S
H975 C983 0.930 . S
O976 Co945 2.037 . S
O976 C996 1.234 . S
C977 O951 1.269 . S
C977 O952 1.257 . S
C978 H953 0.930 . S
C978 C981 1.388 . S
C978 C983 1.418 . S
C979 H974 0.930 . S
C979 C982 1.404 . S
C979 C983 1.353 . S
N980 Co945 2.145 . S
N980 C981 1.397 . S
N980 C982 1.334 . S
C981 H962 0.929 . S
C981 C978 1.388 . S
C981 N980 1.397 . S
C982 H963 0.929 . S
C982 C979 1.404 . S
C982 N980 1.334 . S
C983 H975 0.930 . S
C983 C978 1.418 . S
C983 C979 1.353 . S
C984 H954 0.930 . S
C984 N985 1.330 . S
C984 C986 1.446 . S
N985 Co944 2.151 . S
N985 C984 1.330 . S
N985 C989 1.418 . S
C986 H965 0.929 . S
C986 C984 1.446 . S
C986 C987 1.332 . S
C987 H967 0.931 . S
C987 C986 1.332 . S
C987 C988 1.267 . S
C988 H956 0.929 . S
C988 C987 1.267 . S
C988 C989 1.251 . S
C989 H959 0.929 . S
C989 N985 1.418 . S
C989 C988 1.251 . S
C990 H957 0.930 . S
C990 C992 1.406 . S
C990 C995 1.261 . S
C991 H958 0.930 . S
C991 N993 1.325 . S
C991 C994 1.357 . S
C992 H960 0.928 . S
C992 C990 1.406 . S
C992 N993 1.261 . S
N993 Co944 2.214 . S
N993 C991 1.325 . S
N993 C992 1.261 . S
C994 H964 0.931 . S
C994 C991 1.357 . S
C994 C995 1.312 . S
C995 H966 0.930 . S
C995 C990 1.261 . S
C995 C994 1.312 . S
C996 O968 1.214 . S
C996 O976 1.234 . S
C997 H969 0.929 . S
C997 C1000 1.391 . S
C997 C1002 1.391 . S
C998 H970 0.929 . S
C998 C999 1.390 . S
C998 N1001 1.391 . S
C999 H971 0.930 . S
C999 C998 1.390 . S
C999 C1000 1.392 . S
C1000 H972 0.929 . S
C1000 C997 1.391 . S
C1000 C999 1.392 . S
N1001 Co945 2.257 . S
N1001 C998 1.391 . S
N1001 C1002 1.388 . S
C1002 H973 0.930 . S
C1002 C997 1.391 . S
C1002 N1001 1.388 . S
Co1003 O1005 2.143 . S
Co1003 O1011 2.074 . S
Co1003 O1014 2.093 . S
Co1003 O1027 2.097 . S
Co1003 N1044 2.151 . S
Co1003 N1052 2.214 . S
Co1004 O1005 2.160 . S
Co1004 O1010 2.058 . S
Co1004 O1020 2.057 . S
Co1004 O1035 2.037 . S
Co1004 N1039 2.145 . S
Co1004 N1060 2.257 . S
O1005 Co1003 2.143 . S
O1005 Co1004 2.160 . S
C1006 O1007 1.278 . S
C1006 O1014 1.224 . S
O1007 C1006 1.278 . S
C1008 O1009 1.245 . S
C1008 O1020 1.232 . S
O1009 C1008 1.245 . S
O1010 Co1004 2.058 . S
O1010 C1036 1.269 . S
O1011 Co1003 2.074 . S
O1011 C1036 1.257 . S
H1012 C1037 0.930 . S
H1013 C1043 0.930 . S
O1014 Co1003 2.093 . S
O1014 C1006 1.224 . S
H1015 C1047 0.929 . S
H1016 C1049 0.930 . S
H1017 C1050 0.930 . S
H1018 C1048 0.929 . S
H1019 C1051 0.928 . S
O1020 Co1004 2.057 . S
O1020 C1008 1.232 . S
H1021 C1040 0.929 . S
H1022 C1041 0.929 . S
H1023 C1053 0.931 . S
H1024 C1045 0.929 . S
H1025 C1054 0.930 . S
H1026 C1046 0.931 . S
O1027 Co1003 2.097 . S
O1027 C1055 1.214 . S
H1028 C1056 0.929 . S
H1029 C1057 0.929 . S
H1030 C1058 0.930 . S
H1031 C1059 0.929 . S
H1032 C1061 0.930 . S
H1033 C1038 0.930 . S
H1034 C1042 0.930 . S
O1035 Co1004 2.037 . S
O1035 C1055 1.234 . S
C1036 O1010 1.269 . S
C1036 O1011 1.257 . S
C1037 H1012 0.930 . S
C1037 C1040 1.388 . S
C1037 C1042 1.418 . S
C1038 H1033 0.930 . S
C1038 C1041 1.404 . S
C1038 C1042 1.353 . S
N1039 Co1004 2.145 . S
N1039 C1040 1.397 . S
N1039 C1041 1.334 . S
C1040 H1021 0.929 . S
C1040 C1037 1.388 . S
C1040 N1039 1.397 . S
C1041 H1022 0.929 . S
C1041 C1038 1.404 . S
C1041 N1039 1.334 . S
C1042 H1034 0.930 . S
C1042 C1037 1.418 . S
C1042 C1038 1.353 . S
C1043 H1013 0.930 . S
C1043 N1044 1.330 . S
C1043 C1045 1.446 . S
N1044 Co1003 2.151 . S
N1044 C1043 1.330 . S
N1044 C1048 1.418 . S
C1045 H1024 0.929 . S
C1045 C1043 1.446 . S
C1045 C1046 1.332 . S
C1046 H1026 0.931 . S
C1046 C1045 1.332 . S
C1046 C1047 1.267 . S
C1047 H1015 0.929 . S
C1047 C1046 1.267 . S
C1047 C1048 1.251 . S
C1048 H1018 0.929 . S
C1048 N1044 1.418 . S
C1048 C1047 1.251 . S
C1049 H1016 0.930 . S
C1049 C1051 1.406 . S
C1049 C1054 1.261 . S
C1050 H1017 0.930 . S
C1050 N1052 1.325 . S
C1050 C1053 1.357 . S
C1051 H1019 0.928 . S
C1051 C1049 1.406 . S
C1051 N1052 1.261 . S
N1052 Co1003 2.214 . S
N1052 C1050 1.325 . S
N1052 C1051 1.261 . S
C1053 H1023 0.931 . S
C1053 C1050 1.357 . S
C1053 C1054 1.312 . S
C1054 H1025 0.930 . S
C1054 C1049 1.261 . S
C1054 C1053 1.312 . S
C1055 O1027 1.214 . S
C1055 O1035 1.234 . S
C1056 H1028 0.929 . S
C1056 C1059 1.391 . S
C1056 C1061 1.391 . S
C1057 H1029 0.929 . S
C1057 C1058 1.390 . S
C1057 N1060 1.391 . S
C1058 H1030 0.930 . S
C1058 C1057 1.390 . S
C1058 C1059 1.392 . S
C1059 H1031 0.929 . S
C1059 C1056 1.391 . S
C1059 C1058 1.392 . S
N1060 Co1004 2.257 . S
N1060 C1057 1.391 . S
N1060 C1061 1.388 . S
C1061 H1032 0.930 . S
C1061 C1056 1.391 . S
C1061 N1060 1.388 . S
Co1062 O1064 2.143 . S
Co1062 O1070 2.074 . S
Co1062 O1073 2.093 . S
Co1062 O1086 2.097 . S
Co1062 N1103 2.151 . S
Co1062 N1111 2.214 . S
Co1063 O1064 2.160 . S
Co1063 O1069 2.058 . S
Co1063 O1079 2.057 . S
Co1063 O1094 2.037 . S
Co1063 N1098 2.145 . S
Co1063 N1119 2.257 . S
O1064 Co1062 2.143 . S
O1064 Co1063 2.160 . S
C1065 O1066 1.278 . S
C1065 O1073 1.224 . S
O1066 C1065 1.278 . S
C1067 O1068 1.245 . S
C1067 O1079 1.232 . S
O1068 C1067 1.245 . S
O1069 Co1063 2.058 . S
O1069 C1095 1.269 . S
O1070 Co1062 2.074 . S
O1070 C1095 1.257 . S
H1071 C1096 0.930 . S
H1072 C1102 0.930 . S
O1073 Co1062 2.093 . S
O1073 C1065 1.224 . S
H1074 C1106 0.929 . S
H1075 C1108 0.930 . S
H1076 C1109 0.930 . S
H1077 C1107 0.929 . S
H1078 C1110 0.928 . S
O1079 Co1063 2.057 . S
O1079 C1067 1.232 . S
H1080 C1099 0.929 . S
H1081 C1100 0.929 . S
H1082 C1112 0.931 . S
H1083 C1104 0.929 . S
H1084 C1113 0.930 . S
H1085 C1105 0.931 . S
O1086 Co1062 2.097 . S
O1086 C1114 1.214 . S
H1087 C1115 0.929 . S
H1088 C1116 0.929 . S
H1089 C1117 0.930 . S
H1090 C1118 0.929 . S
H1091 C1120 0.930 . S
H1092 C1097 0.930 . S
H1093 C1101 0.930 . S
O1094 Co1063 2.037 . S
O1094 C1114 1.234 . S
C1095 O1069 1.269 . S
C1095 O1070 1.257 . S
C1096 H1071 0.930 . S
C1096 C1099 1.388 . S
C1096 C1101 1.418 . S
C1097 H1092 0.930 . S
C1097 C1100 1.404 . S
C1097 C1101 1.353 . S
N1098 Co1063 2.145 . S
N1098 C1099 1.397 . S
N1098 C1100 1.334 . S
C1099 H1080 0.929 . S
C1099 C1096 1.388 . S
C1099 N1098 1.397 . S
C1100 H1081 0.929 . S
C1100 C1097 1.404 . S
C1100 N1098 1.334 . S
C1101 H1093 0.930 . S
C1101 C1096 1.418 . S
C1101 C1097 1.353 . S
C1102 H1072 0.930 . S
C1102 N1103 1.330 . S
C1102 C1104 1.446 . S
N1103 Co1062 2.151 . S
N1103 C1102 1.330 . S
N1103 C1107 1.418 . S
C1104 H1083 0.929 . S
C1104 C1102 1.446 . S
C1104 C1105 1.332 . S
C1105 H1085 0.931 . S
C1105 C1104 1.332 . S
C1105 C1106 1.267 . S
C1106 H1074 0.929 . S
C1106 C1105 1.267 . S
C1106 C1107 1.251 . S
C1107 H1077 0.929 . S
C1107 N1103 1.418 . S
C1107 C1106 1.251 . S
C1108 H1075 0.930 . S
C1108 C1110 1.406 . S
C1108 C1113 1.261 . S
C1109 H1076 0.930 . S
C1109 N1111 1.325 . S
C1109 C1112 1.357 . S
C1110 H1078 0.928 . S
C1110 C1108 1.406 . S
C1110 N1111 1.261 . S
N1111 Co1062 2.214 . S
N1111 C1109 1.325 . S
N1111 C1110 1.261 . S
C1112 H1082 0.931 . S
C1112 C1109 1.357 . S
C1112 C1113 1.312 . S
C1113 H1084 0.930 . S
C1113 C1108 1.261 . S
C1113 C1112 1.312 . S
C1114 O1086 1.214 . S
C1114 O1094 1.234 . S
C1115 H1087 0.929 . S
C1115 C1118 1.391 . S
C1115 C1120 1.391 . S
C1116 H1088 0.929 . S
C1116 C1117 1.390 . S
C1116 N1119 1.391 . S
C1117 H1089 0.930 . S
C1117 C1116 1.390 . S
C1117 C1118 1.392 . S
C1118 H1090 0.929 . S
C1118 C1115 1.391 . S
C1118 C1117 1.392 . S
N1119 Co1063 2.257 . S
N1119 C1116 1.391 . S
N1119 C1120 1.388 . S
C1120 H1091 0.930 . S
C1120 C1115 1.391 . S
C1120 N1119 1.388 . S
Co1121 O1123 2.143 . S
Co1121 O1129 2.074 . S
Co1121 O1132 2.093 . S
Co1121 O1145 2.097 . S
Co1121 N1162 2.151 . S
Co1121 N1170 2.214 . S
Co1122 O1123 2.160 . S
Co1122 O1128 2.058 . S
Co1122 O1138 2.057 . S
Co1122 O1153 2.037 . S
Co1122 N1157 2.145 . S
Co1122 N1178 2.257 . S
O1123 Co1121 2.143 . S
O1123 Co1122 2.160 . S
C1124 O1125 1.278 . S
C1124 O1132 1.224 . S
O1125 C1124 1.278 . S
C1126 O1127 1.245 . S
C1126 O1138 1.232 . S
O1127 C1126 1.245 . S
O1128 Co1122 2.058 . S
O1128 C1154 1.269 . S
O1129 Co1121 2.074 . S
O1129 C1154 1.257 . S
H1130 C1155 0.930 . S
H1131 C1161 0.930 . S
O1132 Co1121 2.093 . S
O1132 C1124 1.224 . S
H1133 C1165 0.929 . S
H1134 C1167 0.930 . S
H1135 C1168 0.930 . S
H1136 C1166 0.929 . S
H1137 C1169 0.928 . S
O1138 Co1122 2.057 . S
O1138 C1126 1.232 . S
H1139 C1158 0.929 . S
H1140 C1159 0.929 . S
H1141 C1171 0.931 . S
H1142 C1163 0.929 . S
H1143 C1172 0.930 . S
H1144 C1164 0.931 . S
O1145 Co1121 2.097 . S
O1145 C1173 1.214 . S
H1146 C1174 0.929 . S
H1147 C1175 0.929 . S
H1148 C1176 0.930 . S
H1149 C1177 0.929 . S
H1150 C1179 0.930 . S
H1151 C1156 0.930 . S
H1152 C1160 0.930 . S
O1153 Co1122 2.037 . S
O1153 C1173 1.234 . S
C1154 O1128 1.269 . S
C1154 O1129 1.257 . S
C1155 H1130 0.930 . S
C1155 C1158 1.388 . S
C1155 C1160 1.418 . S
C1156 H1151 0.930 . S
C1156 C1159 1.404 . S
C1156 C1160 1.353 . S
N1157 Co1122 2.145 . S
N1157 C1158 1.397 . S
N1157 C1159 1.334 . S
C1158 H1139 0.929 . S
C1158 C1155 1.388 . S
C1158 N1157 1.397 . S
C1159 H1140 0.929 . S
C1159 C1156 1.404 . S
C1159 N1157 1.334 . S
C1160 H1152 0.930 . S
C1160 C1155 1.418 . S
C1160 C1156 1.353 . S
C1161 H1131 0.930 . S
C1161 N1162 1.330 . S
C1161 C1163 1.446 . S
N1162 Co1121 2.151 . S
N1162 C1161 1.330 . S
N1162 C1166 1.418 . S
C1163 H1142 0.929 . S
C1163 C1161 1.446 . S
C1163 C1164 1.332 . S
C1164 H1144 0.931 . S
C1164 C1163 1.332 . S
C1164 C1165 1.267 . S
C1165 H1133 0.929 . S
C1165 C1164 1.267 . S
C1165 C1166 1.251 . S
C1166 H1136 0.929 . S
C1166 N1162 1.418 . S
C1166 C1165 1.251 . S
C1167 H1134 0.930 . S
C1167 C1169 1.406 . S
C1167 C1172 1.261 . S
C1168 H1135 0.930 . S
C1168 N1170 1.325 . S
C1168 C1171 1.357 . S
C1169 H1137 0.928 . S
C1169 C1167 1.406 . S
C1169 N1170 1.261 . S
N1170 Co1121 2.214 . S
N1170 C1168 1.325 . S
N1170 C1169 1.261 . S
C1171 H1141 0.931 . S
C1171 C1168 1.357 . S
C1171 C1172 1.312 . S
C1172 H1143 0.930 . S
C1172 C1167 1.261 . S
C1172 C1171 1.312 . S
C1173 O1145 1.214 . S
C1173 O1153 1.234 . S
C1174 H1146 0.929 . S
C1174 C1177 1.391 . S
C1174 C1179 1.391 . S
C1175 H1147 0.929 . S
C1175 C1176 1.390 . S
C1175 N1178 1.391 . S
C1176 H1148 0.930 . S
C1176 C1175 1.390 . S
C1176 C1177 1.392 . S
C1177 H1149 0.929 . S
C1177 C1174 1.391 . S
C1177 C1176 1.392 . S
N1178 Co1122 2.257 . S
N1178 C1175 1.391 . S
N1178 C1179 1.388 . S
C1179 H1150 0.930 . S
C1179 C1174 1.391 . S
C1179 N1178 1.388 . S
Co1180 O1182 2.143 . S
Co1180 O1188 2.074 . S
Co1180 O1191 2.093 . S
Co1180 O1204 2.097 . S
Co1180 N1221 2.151 . S
Co1180 N1229 2.214 . S
Co1181 O1182 2.160 . S
Co1181 O1187 2.058 . S
Co1181 O1197 2.057 . S
Co1181 O1212 2.037 . S
Co1181 N1216 2.145 . S
Co1181 N1237 2.257 . S
O1182 Co1180 2.143 . S
O1182 Co1181 2.160 . S
C1183 O1184 1.278 . S
C1183 O1191 1.224 . S
O1184 C1183 1.278 . S
C1185 O1186 1.245 . S
C1185 O1197 1.232 . S
O1186 C1185 1.245 . S
O1187 Co1181 2.058 . S
O1187 C1213 1.269 . S
O1188 Co1180 2.074 . S
O1188 C1213 1.257 . S
H1189 C1214 0.930 . S
H1190 C1220 0.930 . S
O1191 Co1180 2.093 . S
O1191 C1183 1.224 . S
H1192 C1224 0.929 . S
H1193 C1226 0.930 . S
H1194 C1227 0.930 . S
H1195 C1225 0.929 . S
H1196 C1228 0.928 . S
O1197 Co1181 2.057 . S
O1197 C1185 1.232 . S
H1198 C1217 0.929 . S
H1199 C1218 0.929 . S
H1200 C1230 0.931 . S
H1201 C1222 0.929 . S
H1202 C1231 0.930 . S
H1203 C1223 0.931 . S
O1204 Co1180 2.097 . S
O1204 C1232 1.214 . S
H1205 C1233 0.929 . S
H1206 C1234 0.929 . S
H1207 C1235 0.930 . S
H1208 C1236 0.929 . S
H1209 C1238 0.930 . S
H1210 C1215 0.930 . S
H1211 C1219 0.930 . S
O1212 Co1181 2.037 . S
O1212 C1232 1.234 . S
C1213 O1187 1.269 . S
C1213 O1188 1.257 . S
C1214 H1189 0.930 . S
C1214 C1217 1.388 . S
C1214 C1219 1.418 . S
C1215 H1210 0.930 . S
C1215 C1218 1.404 . S
C1215 C1219 1.353 . S
N1216 Co1181 2.145 . S
N1216 C1217 1.397 . S
N1216 C1218 1.334 . S
C1217 H1198 0.929 . S
C1217 C1214 1.388 . S
C1217 N1216 1.397 . S
C1218 H1199 0.929 . S
C1218 C1215 1.404 . S
C1218 N1216 1.334 . S
C1219 H1211 0.930 . S
C1219 C1214 1.418 . S
C1219 C1215 1.353 . S
C1220 H1190 0.930 . S
C1220 N1221 1.330 . S
C1220 C1222 1.446 . S
N1221 Co1180 2.151 . S
N1221 C1220 1.330 . S
N1221 C1225 1.418 . S
C1222 H1201 0.929 . S
C1222 C1220 1.446 . S
C1222 C1223 1.332 . S
C1223 H1203 0.931 . S
C1223 C1222 1.332 . S
C1223 C1224 1.267 . S
C1224 H1192 0.929 . S
C1224 C1223 1.267 . S
C1224 C1225 1.251 . S
C1225 H1195 0.929 . S
C1225 N1221 1.418 . S
C1225 C1224 1.251 . S
C1226 H1193 0.930 . S
C1226 C1228 1.406 . S
C1226 C1231 1.261 . S
C1227 H1194 0.930 . S
C1227 N1229 1.325 . S
C1227 C1230 1.357 . S
C1228 H1196 0.928 . S
C1228 C1226 1.406 . S
C1228 N1229 1.261 . S
N1229 Co1180 2.214 . S
N1229 C1227 1.325 . S
N1229 C1228 1.261 . S
C1230 H1200 0.931 . S
C1230 C1227 1.357 . S
C1230 C1231 1.312 . S
C1231 H1202 0.930 . S
C1231 C1226 1.261 . S
C1231 C1230 1.312 . S
C1232 O1204 1.214 . S
C1232 O1212 1.234 . S
C1233 H1205 0.929 . S
C1233 C1236 1.391 . S
C1233 C1238 1.391 . S
C1234 H1206 0.929 . S
C1234 C1235 1.390 . S
C1234 N1237 1.391 . S
C1235 H1207 0.930 . S
C1235 C1234 1.390 . S
C1235 C1236 1.392 . S
C1236 H1208 0.929 . S
C1236 C1233 1.391 . S
C1236 C1235 1.392 . S
N1237 Co1181 2.257 . S
N1237 C1234 1.391 . S
N1237 C1238 1.388 . S
C1238 H1209 0.930 . S
C1238 C1233 1.391 . S
C1238 N1237 1.388 . S
Co1239 O1241 2.143 . S
Co1239 O1247 2.074 . S
Co1239 O1250 2.093 . S
Co1239 O1263 2.097 . S
Co1239 N1280 2.151 . S
Co1239 N1288 2.214 . S
Co1240 O1241 2.160 . S
Co1240 O1246 2.058 . S
Co1240 O1256 2.057 . S
Co1240 O1271 2.037 . S
Co1240 N1275 2.145 . S
Co1240 N1296 2.257 . S
O1241 Co1239 2.143 . S
O1241 Co1240 2.160 . S
C1242 O1243 1.278 . S
C1242 O1250 1.224 . S
O1243 C1242 1.278 . S
C1244 O1245 1.245 . S
C1244 O1256 1.232 . S
O1245 C1244 1.245 . S
O1246 Co1240 2.058 . S
O1246 C1272 1.269 . S
O1247 Co1239 2.074 . S
O1247 C1272 1.257 . S
H1248 C1273 0.930 . S
H1249 C1279 0.930 . S
O1250 Co1239 2.093 . S
O1250 C1242 1.224 . S
H1251 C1283 0.929 . S
H1252 C1285 0.930 . S
H1253 C1286 0.930 . S
H1254 C1284 0.929 . S
H1255 C1287 0.928 . S
O1256 Co1240 2.057 . S
O1256 C1244 1.232 . S
H1257 C1276 0.929 . S
H1258 C1277 0.929 . S
H1259 C1289 0.931 . S
H1260 C1281 0.929 . S
H1261 C1290 0.930 . S
H1262 C1282 0.931 . S
O1263 Co1239 2.097 . S
O1263 C1291 1.214 . S
H1264 C1292 0.929 . S
H1265 C1293 0.929 . S
H1266 C1294 0.930 . S
H1267 C1295 0.929 . S
H1268 C1297 0.930 . S
H1269 C1274 0.930 . S
H1270 C1278 0.930 . S
O1271 Co1240 2.037 . S
O1271 C1291 1.234 . S
C1272 O1246 1.269 . S
C1272 O1247 1.257 . S
C1273 H1248 0.930 . S
C1273 C1276 1.388 . S
C1273 C1278 1.418 . S
C1274 H1269 0.930 . S
C1274 C1277 1.404 . S
C1274 C1278 1.353 . S
N1275 Co1240 2.145 . S
N1275 C1276 1.397 . S
N1275 C1277 1.334 . S
C1276 H1257 0.929 . S
C1276 C1273 1.388 . S
C1276 N1275 1.397 . S
C1277 H1258 0.929 . S
C1277 C1274 1.404 . S
C1277 N1275 1.334 . S
C1278 H1270 0.930 . S
C1278 C1273 1.418 . S
C1278 C1274 1.353 . S
C1279 H1249 0.930 . S
C1279 N1280 1.330 . S
C1279 C1281 1.446 . S
N1280 Co1239 2.151 . S
N1280 C1279 1.330 . S
N1280 C1284 1.418 . S
C1281 H1260 0.929 . S
C1281 C1279 1.446 . S
C1281 C1282 1.332 . S
C1282 H1262 0.931 . S
C1282 C1281 1.332 . S
C1282 C1283 1.267 . S
C1283 H1251 0.929 . S
C1283 C1282 1.267 . S
C1283 C1284 1.251 . S
C1284 H1254 0.929 . S
C1284 N1280 1.418 . S
C1284 C1283 1.251 . S
C1285 H1252 0.930 . S
C1285 C1287 1.406 . S
C1285 C1290 1.261 . S
C1286 H1253 0.930 . S
C1286 N1288 1.325 . S
C1286 C1289 1.357 . S
C1287 H1255 0.928 . S
C1287 C1285 1.406 . S
C1287 N1288 1.261 . S
N1288 Co1239 2.214 . S
N1288 C1286 1.325 . S
N1288 C1287 1.261 . S
C1289 H1259 0.931 . S
C1289 C1286 1.357 . S
C1289 C1290 1.312 . S
C1290 H1261 0.930 . S
C1290 C1285 1.261 . S
C1290 C1289 1.312 . S
C1291 O1263 1.214 . S
C1291 O1271 1.234 . S
C1292 H1264 0.929 . S
C1292 C1295 1.391 . S
C1292 C1297 1.391 . S
C1293 H1265 0.929 . S
C1293 C1294 1.390 . S
C1293 N1296 1.391 . S
C1294 H1266 0.930 . S
C1294 C1293 1.390 . S
C1294 C1295 1.392 . S
C1295 H1267 0.929 . S
C1295 C1292 1.391 . S
C1295 C1294 1.392 . S
N1296 Co1240 2.257 . S
N1296 C1293 1.391 . S
N1296 C1297 1.388 . S
C1297 H1268 0.930 . S
C1297 C1292 1.391 . S
C1297 N1296 1.388 . S
Co1298 O1300 2.143 . S
Co1298 O1306 2.074 . S
Co1298 O1309 2.093 . S
Co1298 O1322 2.097 . S
Co1298 N1339 2.151 . S
Co1298 N1347 2.214 . S
Co1299 O1300 2.160 . S
Co1299 O1305 2.058 . S
Co1299 O1315 2.057 . S
Co1299 O1330 2.037 . S
Co1299 N1334 2.145 . S
Co1299 N1355 2.257 . S
O1300 Co1298 2.143 . S
O1300 Co1299 2.160 . S
C1301 O1302 1.278 . S
C1301 O1309 1.224 . S
O1302 C1301 1.278 . S
C1303 O1304 1.245 . S
C1303 O1315 1.232 . S
O1304 C1303 1.245 . S
O1305 Co1299 2.058 . S
O1305 C1331 1.269 . S
O1306 Co1298 2.074 . S
O1306 C1331 1.257 . S
H1307 C1332 0.930 . S
H1308 C1338 0.930 . S
O1309 Co1298 2.093 . S
O1309 C1301 1.224 . S
H1310 C1342 0.929 . S
H1311 C1344 0.930 . S
H1312 C1345 0.930 . S
H1313 C1343 0.929 . S
H1314 C1346 0.928 . S
O1315 Co1299 2.057 . S
O1315 C1303 1.232 . S
H1316 C1335 0.929 . S
H1317 C1336 0.929 . S
H1318 C1348 0.931 . S
H1319 C1340 0.929 . S
H1320 C1349 0.930 . S
H1321 C1341 0.931 . S
O1322 Co1298 2.097 . S
O1322 C1350 1.214 . S
H1323 C1351 0.929 . S
H1324 C1352 0.929 . S
H1325 C1353 0.930 . S
H1326 C1354 0.929 . S
H1327 C1356 0.930 . S
H1328 C1333 0.930 . S
H1329 C1337 0.930 . S
O1330 Co1299 2.037 . S
O1330 C1350 1.234 . S
C1331 O1305 1.269 . S
C1331 O1306 1.257 . S
C1332 H1307 0.930 . S
C1332 C1335 1.388 . S
C1332 C1337 1.418 . S
C1333 H1328 0.930 . S
C1333 C1336 1.404 . S
C1333 C1337 1.353 . S
N1334 Co1299 2.145 . S
N1334 C1335 1.397 . S
N1334 C1336 1.334 . S
C1335 H1316 0.929 . S
C1335 C1332 1.388 . S
C1335 N1334 1.397 . S
C1336 H1317 0.929 . S
C1336 C1333 1.404 . S
C1336 N1334 1.334 . S
C1337 H1329 0.930 . S
C1337 C1332 1.418 . S
C1337 C1333 1.353 . S
C1338 H1308 0.930 . S
C1338 N1339 1.330 . S
C1338 C1340 1.446 . S
N1339 Co1298 2.151 . S
N1339 C1338 1.330 . S
N1339 C1343 1.418 . S
C1340 H1319 0.929 . S
C1340 C1338 1.446 . S
C1340 C1341 1.332 . S
C1341 H1321 0.931 . S
C1341 C1340 1.332 . S
C1341 C1342 1.267 . S
C1342 H1310 0.929 . S
C1342 C1341 1.267 . S
C1342 C1343 1.251 . S
C1343 H1313 0.929 . S
C1343 N1339 1.418 . S
C1343 C1342 1.251 . S
C1344 H1311 0.930 . S
C1344 C1346 1.406 . S
C1344 C1349 1.261 . S
C1345 H1312 0.930 . S
C1345 N1347 1.325 . S
C1345 C1348 1.357 . S
C1346 H1314 0.928 . S
C1346 C1344 1.406 . S
C1346 N1347 1.261 . S
N1347 Co1298 2.214 . S
N1347 C1345 1.325 . S
N1347 C1346 1.261 . S
C1348 H1318 0.931 . S
C1348 C1345 1.357 . S
C1348 C1349 1.312 . S
C1349 H1320 0.930 . S
C1349 C1344 1.261 . S
C1349 C1348 1.312 . S
C1350 O1322 1.214 . S
C1350 O1330 1.234 . S
C1351 H1323 0.929 . S
C1351 C1354 1.391 . S
C1351 C1356 1.391 . S
C1352 H1324 0.929 . S
C1352 C1353 1.390 . S
C1352 N1355 1.391 . S
C1353 H1325 0.930 . S
C1353 C1352 1.390 . S
C1353 C1354 1.392 . S
C1354 H1326 0.929 . S
C1354 C1351 1.391 . S
C1354 C1353 1.392 . S
N1355 Co1299 2.257 . S
N1355 C1352 1.391 . S
N1355 C1356 1.388 . S
C1356 H1327 0.930 . S
C1356 C1351 1.391 . S
C1356 N1355 1.388 . S
Co1357 O1359 2.143 . S
Co1357 O1365 2.074 . S
Co1357 O1368 2.093 . S
Co1357 O1381 2.097 . S
Co1357 N1398 2.151 . S
Co1357 N1406 2.214 . S
Co1358 O1359 2.160 . S
Co1358 O1364 2.058 . S
Co1358 O1374 2.057 . S
Co1358 O1389 2.037 . S
Co1358 N1393 2.145 . S
Co1358 N1414 2.257 . S
O1359 Co1357 2.143 . S
O1359 Co1358 2.160 . S
C1360 O1361 1.278 . S
C1360 O1368 1.224 . S
O1361 C1360 1.278 . S
C1362 O1363 1.245 . S
C1362 O1374 1.232 . S
O1363 C1362 1.245 . S
O1364 Co1358 2.058 . S
O1364 C1390 1.269 . S
O1365 Co1357 2.074 . S
O1365 C1390 1.257 . S
H1366 C1391 0.930 . S
H1367 C1397 0.930 . S
O1368 Co1357 2.093 . S
O1368 C1360 1.224 . S
H1369 C1401 0.929 . S
H1370 C1403 0.930 . S
H1371 C1404 0.930 . S
H1372 C1402 0.929 . S
H1373 C1405 0.928 . S
O1374 Co1358 2.057 . S
O1374 C1362 1.232 . S
H1375 C1394 0.929 . S
H1376 C1395 0.929 . S
H1377 C1407 0.931 . S
H1378 C1399 0.929 . S
H1379 C1408 0.930 . S
H1380 C1400 0.931 . S
O1381 Co1357 2.097 . S
O1381 C1409 1.214 . S
H1382 C1410 0.929 . S
H1383 C1411 0.929 . S
H1384 C1412 0.930 . S
H1385 C1413 0.929 . S
H1386 C1415 0.930 . S
H1387 C1392 0.930 . S
H1388 C1396 0.930 . S
O1389 Co1358 2.037 . S
O1389 C1409 1.234 . S
C1390 O1364 1.269 . S
C1390 O1365 1.257 . S
C1391 H1366 0.930 . S
C1391 C1394 1.388 . S
C1391 C1396 1.418 . S
C1392 H1387 0.930 . S
C1392 C1395 1.404 . S
C1392 C1396 1.353 . S
N1393 Co1358 2.145 . S
N1393 C1394 1.397 . S
N1393 C1395 1.334 . S
C1394 H1375 0.929 . S
C1394 C1391 1.388 . S
C1394 N1393 1.397 . S
C1395 H1376 0.929 . S
C1395 C1392 1.404 . S
C1395 N1393 1.334 . S
C1396 H1388 0.930 . S
C1396 C1391 1.418 . S
C1396 C1392 1.353 . S
C1397 H1367 0.930 . S
C1397 N1398 1.330 . S
C1397 C1399 1.446 . S
N1398 Co1357 2.151 . S
N1398 C1397 1.330 . S
N1398 C1402 1.418 . S
C1399 H1378 0.929 . S
C1399 C1397 1.446 . S
C1399 C1400 1.332 . S
C1400 H1380 0.931 . S
C1400 C1399 1.332 . S
C1400 C1401 1.267 . S
C1401 H1369 0.929 . S
C1401 C1400 1.267 . S
C1401 C1402 1.251 . S
C1402 H1372 0.929 . S
C1402 N1398 1.418 . S
C1402 C1401 1.251 . S
C1403 H1370 0.930 . S
C1403 C1405 1.406 . S
C1403 C1408 1.261 . S
C1404 H1371 0.930 . S
C1404 N1406 1.325 . S
C1404 C1407 1.357 . S
C1405 H1373 0.928 . S
C1405 C1403 1.406 . S
C1405 N1406 1.261 . S
N1406 Co1357 2.214 . S
N1406 C1404 1.325 . S
N1406 C1405 1.261 . S
C1407 H1377 0.931 . S
C1407 C1404 1.357 . S
C1407 C1408 1.312 . S
C1408 H1379 0.930 . S
C1408 C1403 1.261 . S
C1408 C1407 1.312 . S
C1409 O1381 1.214 . S
C1409 O1389 1.234 . S
C1410 H1382 0.929 . S
C1410 C1413 1.391 . S
C1410 C1415 1.391 . S
C1411 H1383 0.929 . S
C1411 C1412 1.390 . S
C1411 N1414 1.391 . S
C1412 H1384 0.930 . S
C1412 C1411 1.390 . S
C1412 C1413 1.392 . S
C1413 H1385 0.929 . S
C1413 C1410 1.391 . S
C1413 C1412 1.392 . S
N1414 Co1358 2.257 . S
N1414 C1411 1.391 . S
N1414 C1415 1.388 . S
C1415 H1386 0.930 . S
C1415 C1410 1.391 . S
C1415 N1414 1.388 . S
C1416 C1417 1.369 . S
C1416 C1418 1.419 . S
C1416 H1420 0.930 . S
C1417 C1416 1.369 . S
C1417 C1426 1.429 . S
C1418 C1416 1.419 . S
C1418 C1419 1.363 . S
C1418 H1421 0.929 . S
C1419 C1418 1.363 . S
C1419 C1425 1.428 . S
H1420 C1416 0.930 . S
H1421 C1418 0.929 . S
S1422 N1423 1.613 . S
S1422 N1424 1.610 . S
N1423 S1422 1.613 . S
N1423 C1426 1.350 . S
N1424 S1422 1.610 . S
N1424 C1425 1.351 . S
C1425 C1419 1.428 . S
C1425 N1424 1.351 . S
C1425 C1426 1.434 . S
C1426 C1417 1.429 . S
C1426 N1423 1.350 . S
C1426 C1425 1.434 . S
C1427 C1428 1.369 . S
C1427 C1429 1.419 . S
C1427 H1431 0.930 . S
C1428 C1427 1.369 . S
C1428 C1437 1.429 . S
C1429 C1427 1.419 . S
C1429 C1430 1.363 . S
C1429 H1432 0.929 . S
C1430 C1429 1.363 . S
C1430 C1436 1.428 . S
H1431 C1427 0.930 . S
H1432 C1429 0.929 . S
S1433 N1434 1.613 . S
S1433 N1435 1.610 . S
N1434 S1433 1.613 . S
N1434 C1437 1.350 . S
N1435 S1433 1.610 . S
N1435 C1436 1.351 . S
C1436 C1430 1.428 . S
C1436 N1435 1.351 . S
C1436 C1437 1.434 . S
C1437 C1428 1.429 . S
C1437 N1434 1.350 . S
C1437 C1436 1.434 . S
C1438 C1439 1.369 . S
C1438 C1440 1.419 . S
C1438 H1442 0.930 . S
C1439 C1438 1.369 . S
C1439 C1448 1.429 . S
C1440 C1438 1.419 . S
C1440 C1441 1.363 . S
C1440 H1443 0.929 . S
C1441 C1440 1.363 . S
C1441 C1447 1.428 . S
H1442 C1438 0.930 . S
H1443 C1440 0.929 . S
S1444 N1445 1.613 . S
S1444 N1446 1.610 . S
N1445 S1444 1.613 . S
N1445 C1448 1.350 . S
N1446 S1444 1.610 . S
N1446 C1447 1.351 . S
C1447 C1441 1.428 . S
C1447 N1446 1.351 . S
C1447 C1448 1.434 . S
C1448 C1439 1.429 . S
C1448 N1445 1.350 . S
C1448 C1447 1.434 . S
C1449 C1450 1.369 . S
C1449 C1451 1.419 . S
C1449 H1453 0.930 . S
C1450 C1449 1.369 . S
C1450 C1459 1.429 . S
C1451 C1449 1.419 . S
C1451 C1452 1.363 . S
C1451 H1454 0.929 . S
C1452 C1451 1.363 . S
C1452 C1458 1.428 . S
H1453 C1449 0.930 . S
H1454 C1451 0.929 . S
S1455 N1456 1.613 . S
S1455 N1457 1.610 . S
N1456 S1455 1.613 . S
N1456 C1459 1.350 . S
N1457 S1455 1.610 . S
N1457 C1458 1.351 . S
C1458 C1452 1.428 . S
C1458 N1457 1.351 . S
C1458 C1459 1.434 . S
C1459 C1450 1.429 . S
C1459 N1456 1.350 . S
C1459 C1458 1.434 . S
C1460 C1461 1.369 . S
C1460 C1462 1.419 . S
C1460 H1464 0.930 . S
C1461 C1460 1.369 . S
C1461 C1470 1.429 . S
C1462 C1460 1.419 . S
C1462 C1463 1.363 . S
C1462 H1465 0.929 . S
C1463 C1462 1.363 . S
C1463 C1469 1.428 . S
H1464 C1460 0.930 . S
H1465 C1462 0.929 . S
S1466 N1467 1.613 . S
S1466 N1468 1.610 . S
N1467 S1466 1.613 . S
N1467 C1470 1.350 . S
N1468 S1466 1.610 . S
N1468 C1469 1.351 . S
C1469 C1463 1.428 . S
C1469 N1468 1.351 . S
C1469 C1470 1.434 . S
C1470 C1461 1.429 . S
C1470 N1467 1.350 . S
C1470 C1469 1.434 . S
C1471 C1472 1.369 . S
C1471 C1473 1.419 . S
C1471 H1475 0.930 . S
C1472 C1471 1.369 . S
C1472 C1481 1.429 . S
C1473 C1471 1.419 . S
C1473 C1474 1.363 . S
C1473 H1476 0.929 . S
C1474 C1473 1.363 . S
C1474 C1480 1.428 . S
H1475 C1471 0.930 . S
H1476 C1473 0.929 . S
S1477 N1478 1.613 . S
S1477 N1479 1.610 . S
N1478 S1477 1.613 . S
N1478 C1481 1.350 . S
N1479 S1477 1.610 . S
N1479 C1480 1.351 . S
C1480 C1474 1.428 . S
C1480 N1479 1.351 . S
C1480 C1481 1.434 . S
C1481 C1472 1.429 . S
C1481 N1478 1.350 . S
C1481 C1480 1.434 . S
C1482 C1483 1.369 . S
C1482 C1484 1.419 . S
C1482 H1486 0.930 . S
C1483 C1482 1.369 . S
C1483 C1492 1.429 . S
C1484 C1482 1.419 . S
C1484 C1485 1.363 . S
C1484 H1487 0.929 . S
C1485 C1484 1.363 . S
C1485 C1491 1.428 . S
H1486 C1482 0.930 . S
H1487 C1484 0.929 . S
S1488 N1489 1.613 . S
S1488 N1490 1.610 . S
N1489 S1488 1.613 . S
N1489 C1492 1.350 . S
N1490 S1488 1.610 . S
N1490 C1491 1.351 . S
C1491 C1485 1.428 . S
C1491 N1490 1.351 . S
C1491 C1492 1.434 . S
C1492 C1483 1.429 . S
C1492 N1489 1.350 . S
C1492 C1491 1.434 . S
C1493 C1494 1.369 . S
C1493 C1495 1.419 . S
C1493 H1497 0.930 . S
C1494 C1493 1.369 . S
C1494 C1503 1.429 . S
C1495 C1493 1.419 . S
C1495 C1496 1.363 . S
C1495 H1498 0.929 . S
C1496 C1495 1.363 . S
C1496 C1502 1.428 . S
H1497 C1493 0.930 . S
H1498 C1495 0.929 . S
S1499 N1500 1.613 . S
S1499 N1501 1.610 . S
N1500 S1499 1.613 . S
N1500 C1503 1.350 . S
N1501 S1499 1.610 . S
N1501 C1502 1.351 . S
C1502 C1496 1.428 . S
C1502 N1501 1.351 . S
C1502 C1503 1.434 . S
C1503 C1494 1.429 . S
C1503 N1500 1.350 . S
C1503 C1502 1.434 . S
C1504 C1505 1.369 . S
C1504 C1506 1.419 . S
C1504 H1508 0.930 . S
C1505 C1504 1.369 . S
C1505 C1514 1.429 . S
C1506 C1504 1.419 . S
C1506 C1507 1.363 . S
C1506 H1509 0.929 . S
C1507 C1506 1.363 . S
C1507 C1513 1.428 . S
H1508 C1504 0.930 . S
H1509 C1506 0.929 . S
S1510 N1511 1.613 . S
S1510 N1512 1.610 . S
N1511 S1510 1.613 . S
N1511 C1514 1.350 . S
N1512 S1510 1.610 . S
N1512 C1513 1.351 . S
C1513 C1507 1.428 . S
C1513 N1512 1.351 . S
C1513 C1514 1.434 . S
C1514 C1505 1.429 . S
C1514 N1511 1.350 . S
C1514 C1513 1.434 . S
C1515 C1516 1.369 . S
C1515 C1517 1.419 . S
C1515 H1519 0.930 . S
C1516 C1515 1.369 . S
C1516 C1525 1.429 . S
C1517 C1515 1.419 . S
C1517 C1518 1.363 . S
C1517 H1520 0.929 . S
C1518 C1517 1.363 . S
C1518 C1524 1.428 . S
H1519 C1515 0.930 . S
H1520 C1517 0.929 . S
S1521 N1522 1.613 . S
S1521 N1523 1.610 . S
N1522 S1521 1.613 . S
N1522 C1525 1.350 . S
N1523 S1521 1.610 . S
N1523 C1524 1.351 . S
C1524 C1518 1.428 . S
C1524 N1523 1.351 . S
C1524 C1525 1.434 . S
C1525 C1516 1.429 . S
C1525 N1522 1.350 . S
C1525 C1524 1.434 . S
C1526 C1527 1.369 . S
C1526 C1528 1.419 . S
C1526 H1530 0.930 . S
C1527 C1526 1.369 . S
C1527 C1536 1.429 . S
C1528 C1526 1.419 . S
C1528 C1529 1.363 . S
C1528 H1531 0.929 . S
C1529 C1528 1.363 . S
C1529 C1535 1.428 . S
H1530 C1526 0.930 . S
H1531 C1528 0.929 . S
S1532 N1533 1.613 . S
S1532 N1534 1.610 . S
N1533 S1532 1.613 . S
N1533 C1536 1.350 . S
N1534 S1532 1.610 . S
N1534 C1535 1.351 . S
C1535 C1529 1.428 . S
C1535 N1534 1.351 . S
C1535 C1536 1.434 . S
C1536 C1527 1.429 . S
C1536 N1533 1.350 . S
C1536 C1535 1.434 . S
C1537 C1538 1.369 . S
C1537 C1539 1.419 . S
C1537 H1541 0.930 . S
C1538 C1537 1.369 . S
C1538 C1547 1.429 . S
C1539 C1537 1.419 . S
C1539 C1540 1.363 . S
C1539 H1542 0.929 . S
C1540 C1539 1.363 . S
C1540 C1546 1.428 . S
H1541 C1537 0.930 . S
H1542 C1539 0.929 . S
S1543 N1544 1.613 . S
S1543 N1545 1.610 . S
N1544 S1543 1.613 . S
N1544 C1547 1.350 . S
N1545 S1543 1.610 . S
N1545 C1546 1.351 . S
C1546 C1540 1.428 . S
C1546 N1545 1.351 . S
C1546 C1547 1.434 . S
C1547 C1538 1.429 . S
C1547 N1544 1.350 . S
C1547 C1546 1.434 . S
C1548 C1549 1.369 . S
C1548 C1550 1.419 . S
C1548 H1552 0.930 . S
C1549 C1548 1.369 . S
C1549 C1558 1.429 1_565 S
C1550 C1548 1.419 . S
C1550 C1551 1.363 1_565 S
C1550 H1553 0.929 . S
C1551 C1550 1.363 1_545 S
C1551 C1557 1.428 . S
H1552 C1548 0.930 . S
H1553 C1550 0.929 . S
S1554 N1555 1.613 . S
S1554 N1556 1.610 . S
N1555 S1554 1.613 . S
N1555 C1558 1.350 . S
N1556 S1554 1.610 . S
N1556 C1557 1.351 . S
C1557 C1551 1.428 . S
C1557 N1556 1.351 . S
C1557 C1558 1.434 . S
C1558 C1549 1.429 1_545 S
C1558 N1555 1.350 . S
C1558 C1557 1.434 . S
C1559 C1560 1.369 . S
C1559 C1561 1.437 . S
C1559 H1563 0.930 . S
C1560 C1559 1.369 . S
C1560 C1569 1.429 1_655 S
C1561 C1559 1.437 . S
C1561 C1562 1.343 1_655 S
C1561 H1564 0.932 . S
C1562 C1561 1.343 1_455 S
C1562 C1568 1.428 . S
H1563 C1559 0.930 . S
H1564 C1561 0.932 . S
S1565 N1566 1.613 . S
S1565 N1567 1.610 . S
N1566 S1565 1.613 . S
N1566 C1569 1.350 . S
N1567 S1565 1.610 . S
N1567 C1568 1.351 . S
C1568 C1562 1.428 . S
C1568 N1567 1.351 . S
C1568 C1569 1.434 . S
C1569 C1560 1.429 1_455 S
C1569 N1566 1.350 . S
C1569 C1568 1.434 . S
C1570 C1571 1.369 1_565 S
C1570 C1572 1.419 . S
C1570 H1574 0.930 . S
C1571 C1570 1.369 1_545 S
C1571 C1580 1.429 . S
C1572 C1570 1.419 . S
C1572 C1573 1.363 . S
C1572 H1575 0.929 . S
C1573 C1572 1.363 . S
C1573 C1579 1.428 1_565 S
H1574 C1570 0.930 . S
H1575 C1572 0.929 . S
S1576 N1577 1.613 . S
S1576 N1578 1.610 . S
N1577 S1576 1.613 . S
N1577 C1580 1.350 . S
N1578 S1576 1.610 . S
N1578 C1579 1.351 . S
C1579 C1573 1.428 1_545 S
C1579 N1578 1.351 . S
C1579 C1580 1.434 . S
C1580 C1571 1.429 . S
C1580 N1577 1.350 . S
C1580 C1579 1.434 . S
C1581 C1582 1.369 1_655 S
C1581 C1583 1.419 . S
C1581 H1585 0.930 . S
C1582 C1581 1.369 1_455 S
C1582 C1591 1.429 . S
C1583 C1581 1.419 . S
C1583 C1584 1.363 . S
C1583 H1586 0.929 . S
C1584 C1583 1.363 . S
C1584 C1590 1.428 1_655 S
H1585 C1581 0.930 . S
H1586 C1583 0.929 . S
S1587 N1588 1.613 . S
S1587 N1589 1.610 . S
N1588 S1587 1.613 . S
N1588 C1591 1.350 . S
N1589 S1587 1.610 . S
N1589 C1590 1.351 . S
C1590 C1584 1.428 1_455 S
C1590 N1589 1.351 . S
C1590 C1591 1.434 . S
C1591 C1582 1.429 . S
C1591 N1588 1.350 . S
C1591 C1590 1.434 . S
C1592 C1593 1.369 . S
C1592 C1594 1.419 . S
C1592 H1596 0.930 . S
C1593 C1592 1.369 . S
C1593 C1602 1.429 1_565 S
C1594 C1592 1.419 . S
C1594 C1595 1.363 1_565 S
C1594 H1597 0.929 . S
C1595 C1594 1.363 1_545 S
C1595 C1601 1.428 . S
H1596 C1592 0.930 . S
H1597 C1594 0.929 . S
S1598 N1599 1.613 . S
S1598 N1600 1.610 . S
N1599 S1598 1.613 . S
N1599 C1602 1.350 . S
N1600 S1598 1.610 . S
N1600 C1601 1.351 . S
C1601 C1595 1.428 . S
C1601 N1600 1.351 . S
C1601 C1602 1.434 . S
C1602 C1593 1.429 1_545 S
C1602 N1599 1.350 . S
C1602 C1601 1.434 . S
C1603 C1604 1.369 . S
C1603 C1605 1.419 1_655 S
C1603 H1607 0.930 . S
C1604 C1603 1.369 . S
C1604 C1613 1.429 . S
C1605 C1603 1.419 1_455 S
C1605 C1606 1.363 . S
C1605 H1608 0.929 . S
C1606 C1605 1.363 . S
C1606 C1612 1.428 . S
H1607 C1603 0.930 . S
H1608 C1605 0.929 . S
S1609 N1610 1.613 1_455 S
S1609 N1611 1.610 . S
N1610 S1609 1.613 1_655 S
N1610 C1613 1.350 . S
N1611 S1609 1.610 . S
N1611 C1612 1.351 . S
C1612 C1606 1.428 . S
C1612 N1611 1.351 . S
C1612 C1613 1.434 1_455 S
C1613 C1604 1.429 . S
C1613 N1610 1.350 . S
C1613 C1612 1.434 1_655 S
C1614 C1615 1.369 1_545 S
C1614 C1616 1.419 . S
C1614 H1618 0.930 . S
C1615 C1614 1.369 1_565 S
C1615 C1624 1.429 . S
C1616 C1614 1.419 . S
C1616 C1617 1.363 . S
C1616 H1619 0.929 . S
C1617 C1616 1.363 . S
C1617 C1623 1.428 1_545 S
H1618 C1614 0.930 . S
H1619 C1616 0.929 . S
S1620 N1621 1.613 . S
S1620 N1622 1.610 . S
N1621 S1620 1.613 . S
N1621 C1624 1.350 . S
N1622 S1620 1.610 . S
N1622 C1623 1.351 . S
C1623 C1617 1.428 1_565 S
C1623 N1622 1.351 . S
C1623 C1624 1.434 . S
C1624 C1615 1.429 . S
C1624 N1621 1.350 . S
C1624 C1623 1.434 . S
C1625 C1626 1.369 . S
C1625 C1627 1.419 . S
C1625 H1629 0.930 . S
C1626 C1625 1.369 . S
C1626 C1635 1.429 1_455 S
C1627 C1625 1.419 . S
C1627 C1628 1.363 1_455 S
C1627 H1630 0.929 . S
C1628 C1627 1.363 1_655 S
C1628 C1634 1.428 . S
H1629 C1625 0.930 . S
H1630 C1627 0.929 . S
S1631 N1632 1.613 . S
S1631 N1633 1.610 . S
N1632 S1631 1.613 . S
N1632 C1635 1.350 . S
N1633 S1631 1.610 . S
N1633 C1634 1.351 . S
C1634 C1628 1.428 . S
C1634 N1633 1.351 . S
C1634 C1635 1.434 . S
C1635 C1626 1.429 1_655 S
C1635 N1632 1.350 . S
C1635 C1634 1.434 . S
C1636 C1637 1.369 1_554 S
C1636 C1638 1.419 . S
C1636 H1640 0.930 . S
C1637 C1636 1.369 1_556 S
C1637 C1646 1.429 . S
C1638 C1636 1.419 . S
C1638 C1639 1.363 . S
C1638 H1641 0.929 . S
C1639 C1638 1.363 . S
C1639 C1645 1.428 1_554 S
H1640 C1636 0.930 . S
H1641 C1638 0.929 . S
S1642 N1643 1.613 . S
S1642 N1644 1.610 . S
N1643 S1642 1.613 . S
N1643 C1646 1.350 . S
N1644 S1642 1.610 . S
N1644 C1645 1.351 . S
C1645 C1639 1.428 1_556 S
C1645 N1644 1.351 . S
C1645 C1646 1.434 . S
C1646 C1637 1.429 . S
C1646 N1643 1.350 . S
C1646 C1645 1.434 . S
C1647 C1648 1.369 1_556 S
C1647 C1649 1.419 . S
C1647 H1651 0.930 . S
C1648 C1647 1.369 1_554 S
C1648 C1657 1.429 . S
C1649 C1647 1.419 . S
C1649 C1650 1.363 . S
C1649 H1652 0.929 . S
C1650 C1649 1.363 . S
C1650 C1656 1.428 1_556 S
H1651 C1647 0.930 . S
H1652 C1649 0.929 . S
S1653 N1654 1.613 . S
S1653 N1655 1.610 . S
N1654 S1653 1.613 . S
N1654 C1657 1.350 . S
N1655 S1653 1.610 . S
N1655 C1656 1.351 . S
C1656 C1650 1.428 1_554 S
C1656 N1655 1.351 . S
C1656 C1657 1.434 . S
C1657 C1648 1.429 . S
C1657 N1654 1.350 . S
C1657 C1656 1.434 . S
C1658 C1659 1.369 . S
C1658 C1660 1.419 1_556 S
C1658 H1662 0.930 . S
C1659 C1658 1.369 . S
C1659 C1668 1.429 . S
C1660 C1658 1.419 1_554 S
C1660 C1661 1.363 . S
C1660 H1663 0.929 . S
C1661 C1660 1.363 . S
C1661 C1667 1.428 . S
H1662 C1658 0.930 . S
H1663 C1660 0.929 . S
S1664 N1665 1.613 . S
S1664 N1666 1.610 1_556 S
N1665 S1664 1.613 . S
N1665 C1668 1.350 . S
N1666 S1664 1.610 1_554 S
N1666 C1667 1.351 . S
C1667 C1661 1.428 . S
C1667 N1666 1.351 . S
C1667 C1668 1.434 1_554 S
C1668 C1659 1.429 . S
C1668 N1665 1.350 . S
C1668 C1667 1.434 1_556 S
C1669 C1670 1.369 . S
C1669 C1671 1.419 1_554 S
C1669 H1673 0.930 . S
C1670 C1669 1.369 . S
C1670 C1679 1.429 . S
C1671 C1669 1.419 1_556 S
C1671 C1672 1.363 . S
C1671 H1674 0.929 . S
C1672 C1671 1.363 . S
C1672 C1678 1.428 . S
H1673 C1669 0.930 . S
H1674 C1671 0.929 . S
S1675 N1676 1.613 . S
S1675 N1677 1.610 1_554 S
N1676 S1675 1.613 . S
N1676 C1679 1.350 . S
N1677 S1675 1.610 1_556 S
N1677 C1678 1.351 . S
C1678 C1672 1.428 . S
C1678 N1677 1.351 . S
C1678 C1679 1.434 1_556 S
C1679 C1670 1.429 . S
C1679 N1676 1.350 . S
C1679 C1678 1.434 1_554 S
C1680 C1681 1.369 . S
C1680 C1682 1.419 . S
C1680 H1684 0.930 . S
C1681 C1680 1.369 . S
C1681 C1690 1.429 . S
C1682 C1680 1.419 . S
C1682 C1683 1.363 . S
C1682 H1685 0.929 . S
C1683 C1682 1.363 . S
C1683 C1689 1.428 . S
H1684 C1680 0.930 . S
H1685 C1682 0.929 . S
S1686 N1687 1.613 . S
S1686 N1688 1.610 . S
N1687 S1686 1.613 . S
N1687 C1690 1.350 . S
N1688 S1686 1.610 . S
N1688 C1689 1.351 . S
C1689 C1683 1.428 . S
C1689 N1688 1.351 . S
C1689 C1690 1.434 . S
C1690 C1681 1.429 . S
C1690 N1687 1.350 . S
C1690 C1689 1.434 . S
C1691 C1692 1.369 . S
C1691 C1693 1.419 . S
C1691 H1695 0.930 . S
C1692 C1691 1.369 . S
C1692 C1701 1.429 . S
C1693 C1691 1.419 . S
C1693 C1694 1.363 . S
C1693 H1696 0.929 . S
C1694 C1693 1.363 . S
C1694 C1700 1.428 . S
H1695 C1691 0.930 . S
H1696 C1693 0.929 . S
S1697 N1698 1.613 . S
S1697 N1699 1.610 . S
N1698 S1697 1.613 . S
N1698 C1701 1.350 . S
N1699 S1697 1.610 . S
N1699 C1700 1.351 . S
C1700 C1694 1.428 . S
C1700 N1699 1.351 . S
C1700 C1701 1.434 . S
C1701 C1692 1.429 . S
C1701 N1698 1.350 . S
C1701 C1700 1.434 . S
C1702 C1703 1.369 . S
C1702 C1704 1.419 . S
C1702 H1706 0.930 . S
C1703 C1702 1.369 . S
C1703 C1712 1.429 . S
C1704 C1702 1.419 . S
C1704 C1705 1.363 . S
C1704 H1707 0.929 . S
C1705 C1704 1.363 . S
C1705 C1711 1.428 . S
H1706 C1702 0.930 . S
H1707 C1704 0.929 . S
S1708 N1709 1.613 . S
S1708 N1710 1.610 . S
N1709 S1708 1.613 . S
N1709 C1712 1.350 . S
N1710 S1708 1.610 . S
N1710 C1711 1.351 . S
C1711 C1705 1.428 . S
C1711 N1710 1.351 . S
C1711 C1712 1.434 . S
C1712 C1703 1.429 . S
C1712 N1709 1.350 . S
C1712 C1711 1.434 . S
C1713 C1714 1.369 . S
C1713 C1715 1.419 . S
C1713 H1717 0.930 . S
C1714 C1713 1.369 . S
C1714 C1723 1.429 . S
C1715 C1713 1.419 . S
C1715 C1716 1.363 . S
C1715 H1718 0.929 . S
C1716 C1715 1.363 . S
C1716 C1722 1.428 . S
H1717 C1713 0.930 . S
H1718 C1715 0.929 . S
S1719 N1720 1.613 . S
S1719 N1721 1.610 . S
N1720 S1719 1.613 . S
N1720 C1723 1.350 . S
N1721 S1719 1.610 . S
N1721 C1722 1.351 . S
C1722 C1716 1.428 . S
C1722 N1721 1.351 . S
C1722 C1723 1.434 . S
C1723 C1714 1.429 . S
C1723 N1720 1.350 . S
C1723 C1722 1.434 . S
C1724 C1725 1.369 . S
C1724 C1726 1.419 . S
C1724 H1728 0.930 . S
C1725 C1724 1.369 . S
C1725 C1734 1.429 . S
C1726 C1724 1.419 . S
C1726 C1727 1.363 . S
C1726 H1729 0.929 . S
C1727 C1726 1.363 . S
C1727 C1733 1.428 . S
H1728 C1724 0.930 . S
H1729 C1726 0.929 . S
S1730 N1731 1.613 . S
S1730 N1732 1.610 . S
N1731 S1730 1.613 . S
N1731 C1734 1.350 . S
N1732 S1730 1.610 . S
N1732 C1733 1.351 . S
C1733 C1727 1.428 . S
C1733 N1732 1.351 . S
C1733 C1734 1.434 . S
C1734 C1725 1.429 . S
C1734 N1731 1.350 . S
C1734 C1733 1.434 . S
C1735 C1736 1.369 . S
C1735 C1737 1.419 . S
C1735 H1739 0.930 . S
C1736 C1735 1.369 . S
C1736 C1745 1.429 . S
C1737 C1735 1.419 . S
C1737 C1738 1.363 . S
C1737 H1740 0.929 . S
C1738 C1737 1.363 . S
C1738 C1744 1.428 . S
H1739 C1735 0.930 . S
H1740 C1737 0.929 . S
S1741 N1742 1.613 . S
S1741 N1743 1.610 . S
N1742 S1741 1.613 . S
N1742 C1745 1.350 . S
N1743 S1741 1.610 . S
N1743 C1744 1.351 . S
C1744 C1738 1.428 . S
C1744 N1743 1.351 . S
C1744 C1745 1.434 . S
C1745 C1736 1.429 . S
C1745 N1742 1.350 . S
C1745 C1744 1.434 . S
C1746 C1747 1.369 . S
C1746 C1748 1.419 . S
C1746 H1750 0.930 . S
C1747 C1746 1.369 . S
C1747 C1756 1.429 . S
C1748 C1746 1.419 . S
C1748 C1749 1.363 . S
C1748 H1751 0.929 . S
C1749 C1748 1.363 . S
C1749 C1755 1.428 . S
H1750 C1746 0.930 . S
H1751 C1748 0.929 . S
S1752 N1753 1.613 . S
S1752 N1754 1.610 . S
N1753 S1752 1.613 . S
N1753 C1756 1.350 . S
N1754 S1752 1.610 . S
N1754 C1755 1.351 . S
C1755 C1749 1.428 . S
C1755 N1754 1.351 . S
C1755 C1756 1.434 . S
C1756 C1747 1.429 . S
C1756 N1753 1.350 . S
C1756 C1755 1.434 . S
C1757 C1758 1.369 . S
C1757 C1759 1.419 . S
C1757 H1761 0.930 . S
C1758 C1757 1.369 . S
C1758 C1767 1.429 . S
C1759 C1757 1.419 . S
C1759 C1760 1.363 . S
C1759 H1762 0.929 . S
C1760 C1759 1.363 . S
C1760 C1766 1.428 . S
H1761 C1757 0.930 . S
H1762 C1759 0.929 . S
S1763 N1764 1.613 . S
S1763 N1765 1.610 . S
N1764 S1763 1.613 . S
N1764 C1767 1.350 . S
N1765 S1763 1.610 . S
N1765 C1766 1.351 . S
C1766 C1760 1.428 . S
C1766 N1765 1.351 . S
C1766 C1767 1.434 . S
C1767 C1758 1.429 . S
C1767 N1764 1.350 . S
C1767 C1766 1.434 . S
C1768 C1769 1.369 . S
C1768 C1770 1.419 . S
C1768 H1772 0.930 . S
C1769 C1768 1.369 . S
C1769 C1778 1.429 . S
C1770 C1768 1.419 . S
C1770 C1771 1.363 . S
C1770 H1773 0.929 . S
C1771 C1770 1.363 . S
C1771 C1777 1.428 . S
H1772 C1768 0.930 . S
H1773 C1770 0.929 . S
S1774 N1775 1.613 . S
S1774 N1776 1.610 . S
N1775 S1774 1.613 . S
N1775 C1778 1.350 . S
N1776 S1774 1.610 . S
N1776 C1777 1.351 . S
C1777 C1771 1.428 . S
C1777 N1776 1.351 . S
C1777 C1778 1.434 . S
C1778 C1769 1.429 . S
C1778 N1775 1.350 . S
C1778 C1777 1.434 . S
C1779 C1780 1.369 . S
C1779 C1781 1.419 . S
C1779 H1783 0.930 . S
C1780 C1779 1.369 . S
C1780 C1789 1.429 . S
C1781 C1779 1.419 . S
C1781 C1782 1.363 . S
C1781 H1784 0.929 . S
C1782 C1781 1.363 . S
C1782 C1788 1.428 . S
H1783 C1779 0.930 . S
H1784 C1781 0.929 . S
S1785 N1786 1.613 . S
S1785 N1787 1.610 . S
N1786 S1785 1.613 . S
N1786 C1789 1.350 . S
N1787 S1785 1.610 . S
N1787 C1788 1.351 . S
C1788 C1782 1.428 . S
C1788 N1787 1.351 . S
C1788 C1789 1.434 . S
C1789 C1780 1.429 . S
C1789 N1786 1.350 . S
C1789 C1788 1.434 . S
C1790 C1791 1.369 . S
C1790 C1792 1.419 . S
C1790 H1794 0.930 . S
C1791 C1790 1.369 . S
C1791 C1800 1.429 . S
C1792 C1790 1.419 . S
C1792 C1793 1.363 . S
C1792 H1795 0.929 . S
C1793 C1792 1.363 . S
C1793 C1799 1.428 . S
H1794 C1790 0.930 . S
H1795 C1792 0.929 . S
S1796 N1797 1.613 . S
S1796 N1798 1.610 . S
N1797 S1796 1.613 . S
N1797 C1800 1.350 . S
N1798 S1796 1.610 . S
N1798 C1799 1.351 . S
C1799 C1793 1.428 . S
C1799 N1798 1.351 . S
C1799 C1800 1.434 . S
C1800 C1791 1.429 . S
C1800 N1797 1.350 . S
C1800 C1799 1.434 . S
C1801 C1802 1.369 . S
C1801 C1803 1.419 . S
C1801 H1805 0.930 . S
C1802 C1801 1.369 . S
C1802 C1811 1.429 . S
C1803 C1801 1.419 . S
C1803 C1804 1.363 . S
C1803 H1806 0.929 . S
C1804 C1803 1.363 . S
C1804 C1810 1.428 . S
H1805 C1801 0.930 . S
H1806 C1803 0.929 . S
S1807 N1808 1.613 . S
S1807 N1809 1.610 . S
N1808 S1807 1.613 . S
N1808 C1811 1.350 . S
N1809 S1807 1.610 . S
N1809 C1810 1.351 . S
C1810 C1804 1.428 . S
C1810 N1809 1.351 . S
C1810 C1811 1.434 . S
C1811 C1802 1.429 . S
C1811 N1808 1.350 . S
C1811 C1810 1.434 . S
C1812 C1813 1.369 . S
C1812 C1814 1.419 . S
C1812 H1816 0.930 . S
C1813 C1812 1.369 . S
C1813 C1822 1.429 . S
C1814 C1812 1.419 . S
C1814 C1815 1.363 . S
C1814 H1817 0.929 . S
C1815 C1814 1.363 . S
C1815 C1821 1.428 . S
H1816 C1812 0.930 . S
H1817 C1814 0.929 . S
S1818 N1819 1.613 . S
S1818 N1820 1.610 . S
N1819 S1818 1.613 . S
N1819 C1822 1.350 . S
N1820 S1818 1.610 . S
N1820 C1821 1.351 . S
C1821 C1815 1.428 . S
C1821 N1820 1.351 . S
C1821 C1822 1.434 . S
C1822 C1813 1.429 . S
C1822 N1819 1.350 . S
C1822 C1821 1.434 . S
C1823 C1824 1.369 . S
C1823 C1825 1.419 . S
C1823 H1827 0.930 . S
C1824 C1823 1.369 . S
C1824 C1833 1.429 . S
C1825 C1823 1.419 . S
C1825 C1826 1.363 . S
C1825 H1828 0.929 . S
C1826 C1825 1.363 . S
C1826 C1832 1.428 . S
H1827 C1823 0.930 . S
H1828 C1825 0.929 . S
S1829 N1830 1.613 . S
S1829 N1831 1.610 . S
N1830 S1829 1.613 . S
N1830 C1833 1.350 . S
N1831 S1829 1.610 . S
N1831 C1832 1.351 . S
C1832 C1826 1.428 . S
C1832 N1831 1.351 . S
C1832 C1833 1.434 . S
C1833 C1824 1.429 . S
C1833 N1830 1.350 . S
C1833 C1832 1.434 . S
C1834 C1835 1.369 . S
C1834 C1836 1.419 . S
C1834 H1838 0.930 . S
C1835 C1834 1.369 . S
C1835 C1844 1.429 . S
C1836 C1834 1.419 . S
C1836 C1837 1.363 . S
C1836 H1839 0.929 . S
C1837 C1836 1.363 . S
C1837 C1843 1.428 . S
H1838 C1834 0.930 . S
H1839 C1836 0.929 . S
S1840 N1841 1.613 . S
S1840 N1842 1.610 . S
N1841 S1840 1.613 . S
N1841 C1844 1.350 . S
N1842 S1840 1.610 . S
N1842 C1843 1.351 . S
C1843 C1837 1.428 . S
C1843 N1842 1.351 . S
C1843 C1844 1.434 . S
C1844 C1835 1.429 . S
C1844 N1841 1.350 . S
C1844 C1843 1.434 . S
C1845 C1846 1.369 . S
C1845 C1847 1.419 . S
C1845 H1849 0.930 . S
C1846 C1845 1.369 . S
C1846 C1855 1.429 . S
C1847 C1845 1.419 . S
C1847 C1848 1.363 . S
C1847 H1850 0.929 . S
C1848 C1847 1.363 . S
C1848 C1854 1.428 . S
H1849 C1845 0.930 . S
H1850 C1847 0.929 . S
S1851 N1852 1.613 . S
S1851 N1853 1.610 . S
N1852 S1851 1.613 . S
N1852 C1855 1.350 . S
N1853 S1851 1.610 . S
N1853 C1854 1.351 . S
C1854 C1848 1.428 . S
C1854 N1853 1.351 . S
C1854 C1855 1.434 . S
C1855 C1846 1.429 . S
C1855 N1852 1.350 . S
C1855 C1854 1.434 . S
C1856 C1857 1.369 . S
C1856 C1858 1.419 . S
C1856 H1860 0.930 . S
C1857 C1856 1.369 . S
C1857 C1866 1.429 . S
C1858 C1856 1.419 . S
C1858 C1859 1.363 . S
C1858 H1861 0.929 . S
C1859 C1858 1.363 . S
C1859 C1865 1.428 . S
H1860 C1856 0.930 . S
H1861 C1858 0.929 . S
S1862 N1863 1.613 . S
S1862 N1864 1.610 . S
N1863 S1862 1.613 . S
N1863 C1866 1.350 . S
N1864 S1862 1.610 . S
N1864 C1865 1.351 . S
C1865 C1859 1.428 . S
C1865 N1864 1.351 . S
C1865 C1866 1.434 . S
C1866 C1857 1.429 . S
C1866 N1863 1.350 . S
C1866 C1865 1.434 . S
C1867 C1868 1.369 . S
C1867 C1869 1.419 . S
C1867 H1871 0.930 . S
C1868 C1867 1.369 . S
C1868 C1877 1.429 . S
C1869 C1867 1.419 . S
C1869 C1870 1.363 . S
C1869 H1872 0.929 . S
C1870 C1869 1.363 . S
C1870 C1876 1.428 . S
H1871 C1867 0.930 . S
H1872 C1869 0.929 . S
S1873 N1874 1.613 . S
S1873 N1875 1.610 . S
N1874 S1873 1.613 . S
N1874 C1877 1.350 . S
N1875 S1873 1.610 . S
N1875 C1876 1.351 . S
C1876 C1870 1.428 . S
C1876 N1875 1.351 . S
C1876 C1877 1.434 . S
C1877 C1868 1.429 . S
C1877 N1874 1.350 . S
C1877 C1876 1.434 . S
C1878 C1879 1.369 . S
C1878 C1880 1.419 . S
C1878 H1882 0.930 . S
C1879 C1878 1.369 . S
C1879 C1888 1.429 . S
C1880 C1878 1.419 . S
C1880 C1881 1.363 . S
C1880 H1883 0.929 . S
C1881 C1880 1.363 . S
C1881 C1887 1.428 . S
H1882 C1878 0.930 . S
H1883 C1880 0.929 . S
S1884 N1885 1.613 . S
S1884 N1886 1.610 . S
N1885 S1884 1.613 . S
N1885 C1888 1.350 . S
N1886 S1884 1.610 . S
N1886 C1887 1.351 . S
C1887 C1881 1.428 . S
C1887 N1886 1.351 . S
C1887 C1888 1.434 . S
C1888 C1879 1.429 . S
C1888 N1885 1.350 . S
C1888 C1887 1.434 . S
C1889 C1890 1.369 . S
C1889 C1891 1.419 . S
C1889 H1893 0.930 . S
C1890 C1889 1.369 . S
C1890 C1899 1.429 . S
C1891 C1889 1.419 . S
C1891 C1892 1.363 . S
C1891 H1894 0.929 . S
C1892 C1891 1.363 . S
C1892 C1898 1.428 . S
H1893 C1889 0.930 . S
H1894 C1891 0.929 . S
S1895 N1896 1.613 . S
S1895 N1897 1.610 . S
N1896 S1895 1.613 . S
N1896 C1899 1.350 . S
N1897 S1895 1.610 . S
N1897 C1898 1.351 . S
C1898 C1892 1.428 . S
C1898 N1897 1.351 . S
C1898 C1899 1.434 . S
C1899 C1890 1.429 . S
C1899 N1896 1.350 . S
C1899 C1898 1.434 . S
C1900 C1901 1.369 . S
C1900 C1902 1.419 . S
C1900 H1904 0.930 . S
C1901 C1900 1.369 . S
C1901 C1910 1.429 . S
C1902 C1900 1.419 . S
C1902 C1903 1.363 . S
C1902 H1905 0.929 . S
C1903 C1902 1.363 . S
C1903 C1909 1.428 . S
H1904 C1900 0.930 . S
H1905 C1902 0.929 . S
S1906 N1907 1.613 . S
S1906 N1908 1.610 . S
N1907 S1906 1.613 . S
N1907 C1910 1.350 . S
N1908 S1906 1.610 . S
N1908 C1909 1.351 . S
C1909 C1903 1.428 . S
C1909 N1908 1.351 . S
C1909 C1910 1.434 . S
C1910 C1901 1.429 . S
C1910 N1907 1.350 . S
C1910 C1909 1.434 . S
C1911 C1912 1.369 . S
C1911 C1913 1.419 . S
C1911 H1915 0.930 . S
C1912 C1911 1.369 . S
C1912 C1921 1.429 . S
C1913 C1911 1.419 . S
C1913 C1914 1.363 . S
C1913 H1916 0.929 . S
C1914 C1913 1.363 . S
C1914 C1920 1.428 . S
H1915 C1911 0.930 . S
H1916 C1913 0.929 . S
S1917 N1918 1.613 . S
S1917 N1919 1.610 . S
N1918 S1917 1.613 . S
N1918 C1921 1.350 . S
N1919 S1917 1.610 . S
N1919 C1920 1.351 . S
C1920 C1914 1.428 . S
C1920 N1919 1.351 . S
C1920 C1921 1.434 . S
C1921 C1912 1.429 . S
C1921 N1918 1.350 . S
C1921 C1920 1.434 . S
C1922 C1923 1.369 . S
C1922 C1924 1.419 . S
C1922 H1926 0.930 . S
C1923 C1922 1.369 . S
C1923 C1932 1.429 . S
C1924 C1922 1.419 . S
C1924 C1925 1.363 . S
C1924 H1927 0.929 . S
C1925 C1924 1.363 . S
C1925 C1931 1.428 . S
H1926 C1922 0.930 . S
H1927 C1924 0.929 . S
S1928 N1929 1.613 . S
S1928 N1930 1.610 . S
N1929 S1928 1.613 . S
N1929 C1932 1.350 . S
N1930 S1928 1.610 . S
N1930 C1931 1.351 . S
C1931 C1925 1.428 . S
C1931 N1930 1.351 . S
C1931 C1932 1.434 . S
C1932 C1923 1.429 . S
C1932 N1929 1.350 . S
C1932 C1931 1.434 . S
C1933 C1934 1.369 . S
C1933 C1935 1.419 . S
C1933 H1937 0.930 . S
C1934 C1933 1.369 . S
C1934 C1943 1.429 . S
C1935 C1933 1.419 . S
C1935 C1936 1.363 . S
C1935 H1938 0.929 . S
C1936 C1935 1.363 . S
C1936 C1942 1.428 . S
H1937 C1933 0.930 . S
H1938 C1935 0.929 . S
S1939 N1940 1.613 . S
S1939 N1941 1.610 . S
N1940 S1939 1.613 . S
N1940 C1943 1.350 . S
N1941 S1939 1.610 . S
N1941 C1942 1.351 . S
C1942 C1936 1.428 . S
C1942 N1941 1.351 . S
C1942 C1943 1.434 . S
C1943 C1934 1.429 . S
C1943 N1940 1.350 . S
C1943 C1942 1.434 . S
C1417 C1301 1.676 . S
C1419 C3 1.686 . S
C1428 C62 1.686 . S
C1430 C949 1.736 . S
C1439 C1360 1.682 . S
C1441 C123 1.734 . S
C1450 C1244 1.735 . S
C1452 C182 1.742 . S
C1461 C1067 1.743 . S
C1463 C241 1.734 . S
C1472 C1124 1.674 . S
C1474 C298 1.685 . S
C1483 C1185 1.736 . S
C1485 C357 1.688 . S
C1494 C418 1.741 . S
C1496 C1006 1.678 . S
C1505 C770 1.685 . S
C1507 C475 1.683 . S
C1516 C831 1.741 . S
C1518 C536 1.734 . S
C1527 C593 1.679 . S
C1529 C888 1.687 . S
C1538 C654 1.730 . S
C1540 C713 1.740 . S
C1549 C416 1.687 . S
C1551 C829 1.677 . S
C1560 C890 1.743 . S
C1562 C239 1.678 . S
C1571 C300 1.732 . S
C1573 C711 1.683 . S
C1582 C772 1.735 . S
C1584 C359 1.742 . S
C1593 C595 1.743 . S
C1595 C64 1.734 . S
C1604 C121 1.683 . S
C1606 C652 1.678 . S
C1615 C180 1.679 . S
C1617 C477 1.743 . S
C1626 C5 1.740 . S
C1628 C534 1.679 . S
C1637 C1183 1.678 . S
C1639 C1242 1.690 . S
C1648 C1303 1.733 . S
C1650 C1008 1.740 . S
C1659 C1065 1.680 . S
C1661 C947 1.686 . S
C1670 C1362 1.736 . S
C1672 C1126 1.735 . S
C1681 C33 0.977 . S
C1683 C524 0.986 . S
C1692 C564 0.975 . S
C1694 C92 0.965 . S
C1703 C170 0.984 . S
C1705 C642 0.979 . S
C1714 C229 0.984 . S
C1716 C682 0.975 . S
C1725 C288 0.972 . S
C1727 C741 0.975 . S
C1736 C328 0.979 . S
C1738 C819 0.975 . S
C1747 C859 0.980 . S
C1749 C387 0.972 . S
C1758 C937 0.989 . S
C1760 C465 0.979 . S
C1769 C505 0.971 . S
C1771 C977 0.981 . S
C1780 C583 0.971 . S
C1782 C1409 0.979 . S
C1791 C1272 0.983 . S
C1793 C623 0.973 . S
C1802 C1350 0.983 . S
C1804 C701 0.973 . S
C1813 C1055 0.971 . S
C1815 C760 0.980 . S
C1824 C1095 0.969 . S
C1826 C800 0.979 . S
C1835 C878 0.981 . S
C1837 C1173 0.972 . S
C1846 C918 0.968 . S
C1848 C1213 0.979 . S
C1857 C52 0.989 . S
C1859 C996 0.979 . S
C1868 C1036 0.977 . S
C1870 C269 0.968 . S
C1879 C1114 0.973 . S
C1881 C347 0.984 . S
C1890 C1154 0.966 . S
C1892 C406 0.985 . S
C1901 C1232 0.989 . S
C1903 C446 0.971 . S
C1912 C1291 0.983 . S
C1914 C151 0.967 . S
C1923 C210 0.973 . S
C1925 C1331 0.968 . S
C1934 C1390 0.963 . S
C1936 C111 0.981 . S
