# Generated by pormake.
# Topology fnh, (5)-cn, num edge types: 1
# Building blocks:
#     Node 0, Type 0, BuildingBlock: BEQFEK_clean_sbu_0, # of connection points: 5
#     Node 1, Type 0, BuildingBlock: BEQFEK_clean_sbu_0, # of connection points: 5
#     Node 2, Type 0, BuildingBlock: BEQFEK_clean_sbu_0, # of connection points: 5
#     Node 3, Type 0, BuildingBlock: BEQFEK_clean_sbu_0, # of connection points: 5
#     Node 4, Type 0, BuildingBlock: BEQFEK_clean_sbu_0, # of connection points: 5
#     Node 5, Type 0, BuildingBlock: BEQFEK_clean_sbu_0, # of connection points: 5
#     Node 6, Type 0, BuildingBlock: BEQFEK_clean_sbu_0, # of connection points: 5
#     Node 7, Type 0, BuildingBlock: BEQFEK_clean_sbu_0, # of connection points: 5
#     Node 8, Type 0, BuildingBlock: BEQFEK_clean_sbu_0, # of connection points: 5
#     Node 9, Type 0, BuildingBlock: BEQFEK_clean_sbu_0, # of connection points: 5
#     Node 10, Type 0, BuildingBlock: BEQFEK_clean_sbu_0, # of connection points: 5
#     Node 11, Type 0, BuildingBlock: BEQFEK_clean_sbu_0, # of connection points: 5
#     Node 12, Type 0, BuildingBlock: BEQFEK_clean_sbu_0, # of connection points: 5
#     Node 13, Type 0, BuildingBlock: BEQFEK_clean_sbu_0, # of connection points: 5
#     Node 14, Type 0, BuildingBlock: BEQFEK_clean_sbu_0, # of connection points: 5
#     Node 15, Type 0, BuildingBlock: BEQFEK_clean_sbu_0, # of connection points: 5
#     Node 16, Type 0, BuildingBlock: BEQFEK_clean_sbu_0, # of connection points: 5
#     Node 17, Type 0, BuildingBlock: BEQFEK_clean_sbu_0, # of connection points: 5
#     Edge 18, Type (0, 0), BuildingBlock: AJUNOK_clean_linker_0, # of connection points: 2
#     Edge 19, Type (0, 0), BuildingBlock: AJUNOK_clean_linker_0, # of connection points: 2
#     Edge 20, Type (0, 0), BuildingBlock: AJUNOK_clean_linker_0, # of connection points: 2
#     Edge 21, Type (0, 0), BuildingBlock: AJUNOK_clean_linker_0, # of connection points: 2
#     Edge 22, Type (0, 0), BuildingBlock: AJUNOK_clean_linker_0, # of connection points: 2
#     Edge 23, Type (0, 0), BuildingBlock: AJUNOK_clean_linker_0, # of connection points: 2
#     Edge 24, Type (0, 0), BuildingBlock: AJUNOK_clean_linker_0, # of connection points: 2
#     Edge 25, Type (0, 0), BuildingBlock: AJUNOK_clean_linker_0, # of connection points: 2
#     Edge 26, Type (0, 0), BuildingBlock: AJUNOK_clean_linker_0, # of connection points: 2
#     Edge 27, Type (0, 0), BuildingBlock: AJUNOK_clean_linker_0, # of connection points: 2
#     Edge 28, Type (0, 0), BuildingBlock: AJUNOK_clean_linker_0, # of connection points: 2
#     Edge 29, Type (0, 0), BuildingBlock: AJUNOK_clean_linker_0, # of connection points: 2
#     Edge 30, Type (0, 0), BuildingBlock: AJUNOK_clean_linker_0, # of connection points: 2
#     Edge 31, Type (0, 0), BuildingBlock: AJUNOK_clean_linker_0, # of connection points: 2
#     Edge 32, Type (0, 0), BuildingBlock: AJUNOK_clean_linker_0, # of connection points: 2
#     Edge 33, Type (0, 0), BuildingBlock: AJUNOK_clean_linker_0, # of connection points: 2
#     Edge 34, Type (0, 0), BuildingBlock: AJUNOK_clean_linker_0, # of connection points: 2
#     Edge 35, Type (0, 0), BuildingBlock: AJUNOK_clean_linker_0, # of connection points: 2
#     Edge 36, Type (0, 0), BuildingBlock: AJUNOK_clean_linker_0, # of connection points: 2
#     Edge 37, Type (0, 0), BuildingBlock: AJUNOK_clean_linker_0, # of connection points: 2
#     Edge 38, Type (0, 0), BuildingBlock: AJUNOK_clean_linker_0, # of connection points: 2
#     Edge 39, Type (0, 0), BuildingBlock: AJUNOK_clean_linker_0, # of connection points: 2
#     Edge 40, Type (0, 0), BuildingBlock: AJUNOK_clean_linker_0, # of connection points: 2
#     Edge 41, Type (0, 0), BuildingBlock: AJUNOK_clean_linker_0, # of connection points: 2
#     Edge 42, Type (0, 0), BuildingBlock: AJUNOK_clean_linker_0, # of connection points: 2
#     Edge 43, Type (0, 0), BuildingBlock: AJUNOK_clean_linker_0, # of connection points: 2
#     Edge 44, Type (0, 0), BuildingBlock: AJUNOK_clean_linker_0, # of connection points: 2
#     Edge 45, Type (0, 0), BuildingBlock: AJUNOK_clean_linker_0, # of connection points: 2
#     Edge 46, Type (0, 0), BuildingBlock: AJUNOK_clean_linker_0, # of connection points: 2
#     Edge 47, Type (0, 0), BuildingBlock: AJUNOK_clean_linker_0, # of connection points: 2
#     Edge 48, Type (0, 0), BuildingBlock: AJUNOK_clean_linker_0, # of connection points: 2
#     Edge 49, Type (0, 0), BuildingBlock: AJUNOK_clean_linker_0, # of connection points: 2
#     Edge 50, Type (0, 0), BuildingBlock: AJUNOK_clean_linker_0, # of connection points: 2
#     Edge 51, Type (0, 0), BuildingBlock: AJUNOK_clean_linker_0, # of connection points: 2
#     Edge 52, Type (0, 0), BuildingBlock: AJUNOK_clean_linker_0, # of connection points: 2
#     Edge 53, Type (0, 0), BuildingBlock: AJUNOK_clean_linker_0, # of connection points: 2
#     Edge 54, Type (0, 0), BuildingBlock: AJUNOK_clean_linker_0, # of connection points: 2
#     Edge 55, Type (0, 0), BuildingBlock: AJUNOK_clean_linker_0, # of connection points: 2
#     Edge 56, Type (0, 0), BuildingBlock: AJUNOK_clean_linker_0, # of connection points: 2
#     Edge 57, Type (0, 0), BuildingBlock: AJUNOK_clean_linker_0, # of connection points: 2
#     Edge 58, Type (0, 0), BuildingBlock: AJUNOK_clean_linker_0, # of connection points: 2
#     Edge 59, Type (0, 0), BuildingBlock: AJUNOK_clean_linker_0, # of connection points: 2
#     Edge 60, Type (0, 0), BuildingBlock: AJUNOK_clean_linker_0, # of connection points: 2
#     Edge 61, Type (0, 0), BuildingBlock: AJUNOK_clean_linker_0, # of connection points: 2
#     Edge 62, Type (0, 0), BuildingBlock: AJUNOK_clean_linker_0, # of connection points: 2
# Relax obj value: 0.333
# Max RMSD: 0.096
# Mean RMSD: 0.096
data_MOF--net-fnh--node1-BEQFEK_clean_sbu_0--edge1-AJUNOK_clean_linker_0
_symmetry_space_group_name_H-M    P1
_symmetry_Int_Tables_number       1
_symmetry_cell_setting            triclinic
loop_
_symmetry_equiv_pos_as_xyz
'x, y, z'
_cell_length_a     50.522038
_cell_length_b     50.508796
_cell_length_c     17.791894
_cell_angle_alpha  89.758939
_cell_angle_beta   90.174566
_cell_angle_gamma 120.08123
loop_
_atom_site_label
_atom_site_type_symbol
_atom_site_fract_x
_atom_site_fract_y
_atom_site_fract_z
_atom_type_partial_charge
Co0 Co 0.16212 0.23473 0.37524 0.0
Co1 Co 0.12377 0.2476 0.27977 0.0
C2 C 0.09339 0.21517 0.4194 0.0
O3 O 0.12048 0.2201 0.43227 0.0
O4 O 0.08793 0.2224 0.35431 0.0
C5 C 0.15483 0.18131 0.41588 0.0
O6 O 0.12891 0.17298 0.38092 0.0
C7 C 0.09295 0.27045 0.17816 0.0
C8 C 0.13341 0.31381 0.14186 0.0
C9 C 0.10202 0.29672 0.13523 0.0
N10 N 0.11783 0.2723 0.20977 0.0
N11 N 0.14187 0.29847 0.18857 0.0
C12 C 0.06181 0.24262 0.18216 0.0
H13 H 1.0455 0.24882 0.20682 0.0
H14 H 0.06221 0.22451 0.21682 0.0
H15 H 0.05369 0.23378 0.12462 0.0
C16 C 0.17793 0.21433 0.2291 0.0
N17 N 0.16197 0.22434 0.26985 0.0
N18 N 0.14163 0.22555 0.22729 0.0
C19 C 0.14237 0.21411 0.15828 0.0
C20 C 0.16617 0.20637 0.15489 0.0
C21 C 0.20611 0.21558 0.25995 0.0
H22 H 0.21535 0.23187 0.3076 0.0
H23 H 0.20028 0.19265 0.28124 0.0
H24 H 0.22396 0.22285 0.21594 0.0
O25 O 0.19114 0.27932 0.39417 0.0
O26 O 0.1558 0.28456 0.33627 0.0
H27 H 0.12849 0.2286 0.06012 0.0
H28 H 0.11165 0.18732 0.0694 0.0
C29 C 0.11894 0.20902 0.09993 0.0
H30 H 0.09862 0.20798 0.12674 0.0
H31 H 0.16435 0.30562 0.20433 0.0
O32 O 0.17486 0.20941 0.42254 0.0
C33 C 0.18054 0.29631 0.37378 0.0
Co34 Co 0.84202 0.93849 0.37423 0.0
Co35 Co 0.83645 0.89044 0.27848 0.0
C36 C 0.8646 0.89387 0.43026 0.0
O37 O 0.85882 0.91556 0.44111 0.0
O38 O 0.85961 0.88199 0.3645 0.0
C39 C 0.87997 0.99683 0.4212 0.0
O40 O 0.90103 0.99298 0.38823 0.0
C41 C 0.81253 0.8308 0.21422 0.0
C42 C 0.79896 0.83783 0.10127 0.0
C43 C 0.79733 0.81537 0.14937 0.0
N44 N 0.82302 0.86073 0.20376 0.0
N45 N 0.81394 0.86467 0.13715 0.0
C46 C 0.81255 0.81722 0.28919 0.0
H47 H 0.80833 0.82976 0.33427 0.0
H48 H 0.83538 0.81974 0.29941 0.0
H49 H 0.7947 0.79266 0.29199 0.0
C50 C 0.86604 0.97807 0.22832 0.0
N51 N 0.85699 0.95221 0.27056 0.0
N52 N 0.85834 0.9316 0.22898 0.0
C53 C 0.87074 0.94478 0.16081 0.0
C54 C 0.87586 0.97494 0.15681 0.0
C55 C 0.86409 1.00525 0.25384 0.0
H56 H 0.88674 1.0229 0.27544 0.0
H57 H 0.85827 1.01572 0.20646 0.0
H58 H 0.84658 0.99862 0.29844 0.0
O59 O 0.79682 0.91693 0.37818 0.0
O60 O 0.79352 0.87823 0.31543 0.0
H61 H 0.86135 0.92441 0.05183 0.0
H62 H 0.9009 0.94433 0.07729 0.0
C63 C 0.87747 0.92905 0.0991 0.0
H64 H 0.87551 0.90734 0.1194 0.0
H65 H 0.81643 0.88529 0.11778 0.0
O66 O 0.85299 0.97468 0.42647 0.0
C67 C 0.78059 0.89035 0.35148 0.0
Co68 Co 0.13472 0.91408 0.38859 0.0
Co69 Co 0.17911 0.95366 0.2814 0.0
C70 C 0.18229 0.98242 0.42963 0.0
O71 O 0.1626 0.95481 0.44612 0.0
O72 O 0.19049 0.98836 0.36078 0.0
C73 C 0.09316 0.91876 0.46135 0.0
O74 O 0.10394 0.94229 0.41532 0.0
C75 C 0.23704 0.98856 0.20987 0.0
C76 C 0.22853 0.96893 0.09601 0.0
C77 C 0.25149 0.99009 0.14246 0.0
N78 N 0.20715 0.96839 0.20238 0.0
N79 N 0.20235 0.95578 0.13528 0.0
C80 C 0.25171 1.00206 0.2839 0.0
H81 H 0.24033 0.98492 0.32933 0.0
H82 H 0.24871 1.0219 0.29647 0.0
H83 H 0.27645 1.00951 0.28343 0.0
C84 C 0.08925 0.89782 0.25778 0.0
N85 N 0.11746 0.91419 0.28983 0.0
N86 N 0.13664 0.93364 0.24069 0.0
C87 C 0.12063 0.93102 0.1761 0.0
C88 C 0.08975 0.90756 0.18338 0.0
C89 C 0.06191 0.87378 0.29906 0.0
H90 H 0.05346 0.88512 0.3376 0.0
H91 H 1.04303 0.85902 0.26034 0.0
H92 H 0.0685 0.85966 0.33366 0.0
O93 O 0.15381 0.88776 0.39011 0.0
O94 O 0.19074 0.92279 0.32083 0.0
H95 H 0.13653 0.93607 0.06299 0.0
H96 H 0.119 0.95824 0.08536 0.0
C97 C 0.13432 0.95019 0.10742 0.0
H98 H 0.15706 0.97023 0.12017 0.0
H99 H 0.18158 0.9375 0.11719 0.0
O100 O 0.10138 0.89888 0.45502 0.0
C101 C 0.17976 0.89808 0.35891 0.0
Co102 Co 0.25185 0.14923 0.70467 0.0
Co103 Co 0.26112 0.11232 0.81302 0.0
C104 C 0.23274 0.08043 0.67006 0.0
O105 O 0.23857 0.10736 0.65203 0.0
O106 O 0.23795 0.07593 0.73818 0.0
C107 C 0.20267 0.14249 0.6386 0.0
O108 O 0.19105 0.11974 0.68698 0.0
C109 C 0.28011 0.07905 0.91501 0.0
C110 C 0.31724 0.11855 0.97539 0.0
C111 C 0.30394 0.08729 0.96599 0.0
N112 N 0.28015 0.10449 0.89373 0.0
N113 N 0.30246 0.128 0.92957 0.0
C114 C 0.25632 0.04764 0.89052 0.0
H115 H 0.23593 0.0479 0.86812 0.0
H116 H 0.24934 1.03122 0.93811 0.0
H117 H 0.26587 0.03979 0.8454 0.0
C118 C 0.2255 0.16639 0.8383 0.0
N119 N 0.23665 0.14984 0.80485 0.0
N120 N 0.2376 0.13098 0.85345 0.0
C121 C 0.22516 0.13354 0.91928 0.0
C122 C 0.21634 0.15634 0.91348 0.0
C123 C 0.22866 0.1945 0.80125 0.0
H124 H 0.24837 0.2042 0.76195 0.0
H125 H 0.20792 0.18832 0.76723 0.0
H126 H 0.23229 0.21216 0.84335 0.0
O127 O 0.29693 0.1772 0.69677 0.0
O128 O 0.30171 0.14354 0.76486 0.0
H129 H 0.2411 0.12769 1.02588 0.0
H130 H 0.19997 0.1071 1.01555 0.0
C131 C 0.22195 0.11427 0.98643 0.0
H132 H 0.22304 0.09372 0.96933 0.0
H133 H 0.30794 0.15068 0.92165 0.0
O134 O 0.23096 0.16227 0.64012 0.0
C135 C 0.3139 0.16796 0.72559 0.0
Co136 Co 0.92741 0.11779 0.70705 0.0
Co137 Co 0.969 0.16132 0.81242 0.0
C138 C 0.99603 0.16191 0.66172 0.0
O139 O 0.96843 0.14198 0.64537 0.0
O140 O 1.00175 0.17119 0.72971 0.0
C141 C 0.9021 0.1003 0.57409 0.0
O142 O 0.91659 0.1302 0.56695 0.0
C143 C 1.00847 0.21833 0.88021 0.0
C144 C 0.99178 0.21153 0.99718 0.0
C145 C 1.0122 0.23343 0.94743 0.0
N146 N 0.98759 0.18878 0.89066 0.0
N147 N 0.97685 0.18502 0.95976 0.0
C148 C 1.019 0.2325 0.80401 0.0
H149 H 0.99964 0.22213 0.76371 0.0
H150 H 1.03684 0.22769 0.78313 0.0
H151 H 1.02825 0.2576 0.80558 0.0
C152 C 0.91236 0.07065 0.83666 0.0
N153 N 0.92823 0.09878 0.80346 0.0
N154 N 0.94821 0.11814 0.85156 0.0
C155 C 0.94669 0.10229 0.91574 0.0
C156 C 0.92312 0.07136 0.91045 0.0
C157 C 0.88727 0.04335 0.79792 0.0
H158 H 0.86623 0.04508 0.79832 0.0
H159 H 0.89356 0.04301 0.73838 0.0
H160 H 0.8825 1.02179 0.82634 0.0
O161 O 0.90447 0.14004 0.7157 0.0
O162 O 0.94017 0.17724 0.78135 0.0
H163 H 0.9545 0.11892 1.02858 0.0
H164 H 0.97571 0.10082 1.0022 0.0
C165 C 0.96741 0.11614 0.98189 0.0
H166 H 0.98745 0.13854 0.96677 0.0
H167 H 0.95814 0.16502 0.98004 0.0
O168 O 0.9026 0.08802 0.63614 0.0
C169 C 0.91494 0.16596 0.74588 0.0
Co170 Co 0.95807 0.82661 0.72859 0.0
Co171 Co 0.90623 0.81064 0.82567 0.0
C172 C 0.90742 0.84276 0.68205 0.0
O173 O 0.93044 0.83935 0.66904 0.0
O174 O 0.89469 0.83466 0.74704 0.0
C175 C 1.00423 0.879 0.68065 0.0
O176 O 0.98714 0.88867 0.71202 0.0
C177 C 0.8507 0.78657 0.92084 0.0
C178 C 0.85234 0.74732 0.97174 0.0
C179 C 0.83463 0.76102 0.96707 0.0
N180 N 0.87622 0.78723 0.89787 0.0
N181 N 0.87687 0.76358 0.92796 0.0
C182 C 0.84361 0.81142 0.9041 0.0
H183 H 0.82435 0.80285 0.86356 0.0
H184 H 0.86379 0.8316 0.87918 0.0
H185 H 0.83665 0.81834 0.95618 0.0
C186 C 0.99545 0.85208 0.87291 0.0
N187 N 0.9689 0.83947 0.83275 0.0
N188 N 0.94627 0.83419 0.87754 0.0
C189 C 0.95808 0.84399 0.94801 0.0
C190 C 0.99015 0.85612 0.94799 0.0
C191 C 1.02566 0.85911 0.84119 0.0
H192 H 1.02241 0.84354 0.79386 0.0
H193 H 1.03774 0.88309 0.82068 0.0
H194 H 1.04021 0.85696 0.88483 0.0
O195 O 0.94353 0.78163 0.71582 0.0
O196 O 0.90197 0.77308 0.77468 0.0
H197 H 0.93304 0.81772 1.04307 0.0
H198 H 0.95168 0.85844 0.05656 0.0
C199 C 0.93887 0.83975 1.01557 0.0
H200 H 0.91728 0.83892 0.99885 0.0
H201 H 0.89432 0.75858 0.91891 0.0
O202 O 0.99558 0.85069 0.6789 0.0
C203 C 0.91666 0.7629 0.73863 0.0
Co204 Co 0.82967 0.56541 0.7024 0.0
Co205 Co 0.79346 0.58236 0.60617 0.0
C206 C 0.76246 0.5496 0.74818 0.0
O207 O 0.78886 0.55263 0.76033 0.0
O208 O 0.75761 0.55785 0.6835 0.0
C209 C 0.82227 0.51135 0.74328 0.0
O210 O 0.79596 0.50303 0.71042 0.0
C211 C 0.7631 0.60636 0.50523 0.0
C212 C 0.8044 0.6482 0.46524 0.0
C213 C 0.77291 0.63238 0.46078 0.0
N214 N 0.78773 0.60718 0.53573 0.0
N215 N 0.81227 0.63243 0.51213 0.0
C216 C 0.73131 0.57975 0.51231 0.0
H217 H 0.7312 0.56101 0.54538 0.0
H218 H 0.7216 0.57124 0.45557 0.0
H219 H 0.71662 0.58726 0.54045 0.0
C220 C 0.84247 0.54275 0.55532 0.0
N221 N 0.8281 0.55444 0.59674 0.0
N222 N 0.81036 0.55957 0.55261 0.0
C223 C 0.81254 0.55044 0.48148 0.0
C224 C 0.83284 0.53873 0.48063 0.0
C225 C 0.86815 0.53882 0.58298 0.0
H226 H 0.876 0.54909 0.63926 0.0
H227 H 0.86049 0.51408 0.5833 0.0
H228 H 0.88766 0.54988 0.54319 0.0
O229 O 0.85996 0.61034 0.71891 0.0
O230 O 0.82646 0.61874 0.66131 0.0
H231 H 0.81224 0.57669 0.38787 0.0
H232 H 0.79152 0.536 0.37278 0.0
C233 C 0.7968 0.55424 0.41464 0.0
H234 H 0.77557 0.55394 0.43209 0.0
H235 H 0.83467 0.63865 0.52664 0.0
O236 O 0.84213 0.53951 0.75011 0.0
C237 C 0.85123 0.62889 0.69812 0.0
Co238 Co 0.5111 0.27341 0.70854 0.0
Co239 Co 0.49891 0.2263 0.60406 0.0
C240 C 0.5268 0.22243 0.74963 0.0
O241 O 0.52141 0.24379 0.76629 0.0
O242 O 0.52208 0.21301 0.68135 0.0
C243 C 0.5573 0.31181 0.7918 0.0
O244 O 0.57124 0.30016 0.75356 0.0
C245 C 0.48259 0.17418 0.50656 0.0
C246 C 0.44042 0.16931 0.45475 0.0
C247 C 0.45768 0.15514 0.46137 0.0
N248 N 0.47949 0.19786 0.52711 0.0
N249 N 0.45436 0.19493 0.49596 0.0
C250 C 0.50988 0.17141 0.52704 0.0
H251 H 0.52898 0.19383 0.54588 0.0
H252 H 0.51756 0.16337 0.47827 0.0
H253 H 0.50379 0.15473 0.57375 0.0
C254 C 0.54223 0.31724 0.57629 0.0
N255 N 0.52812 0.28909 0.60945 0.0
N256 N 0.52278 0.26818 0.55916 0.0
C257 C 0.53358 0.28267 0.49146 0.0
C258 C 0.54629 0.31474 0.49894 0.0
C259 C 0.55227 0.34626 0.61888 0.0
H260 H 0.56708 0.34756 0.66638 0.0
H261 H 0.56544 0.36684 0.58324 0.0
H262 H 0.53193 0.34615 0.64261 0.0
O263 O 0.46616 0.25854 0.71328 0.0
O264 O 0.45885 0.218 0.65169 0.0
H265 H 0.5226 0.27594 0.37398 0.0
H266 H 0.55306 0.26968 0.40296 0.0
C267 C 0.53037 0.26626 0.41936 0.0
H268 H 0.51413 0.2414 0.42551 0.0
H269 H 0.44625 0.21004 0.50455 0.0
O270 O 0.53092 0.30658 0.77286 0.0
C271 C 0.44797 0.23201 0.68801 0.0
Co272 Co 0.79987 0.24597 0.7175 0.0
Co273 Co 0.84628 0.28554 0.61469 0.0
C274 C 0.84766 0.31399 0.76182 0.0
O275 O 0.82722 0.28646 0.7767 0.0
O276 O 0.85687 0.32017 0.69368 0.0
C277 C 0.7567 0.25124 0.7795 0.0
O278 O 0.76852 0.27429 0.73198 0.0
C279 C 0.90494 0.32117 0.54525 0.0
C280 C 0.8972 0.30117 0.43188 0.0
C281 C 0.91972 0.32296 0.47815 0.0
N282 N 0.87528 0.30024 0.53765 0.0
N283 N 0.87097 0.28748 0.47087 0.0
C284 C 0.91917 0.33558 0.61895 0.0
H285 H 0.90819 0.31867 0.66503 0.0
H286 H 0.91518 0.35492 0.62996 0.0
H287 H 0.94412 0.34398 0.61906 0.0
C288 C 0.75665 0.22968 0.58143 0.0
N289 N 0.78434 0.24589 0.61624 0.0
N290 N 0.80431 0.26564 0.56894 0.0
C291 C 0.78923 0.26339 0.50276 0.0
C292 C 0.75816 0.23999 0.50721 0.0
C293 C 0.72877 0.20488 0.61927 0.0
H294 H 0.73535 0.19305 0.6617 0.0
H295 H 0.71684 0.21526 0.64856 0.0
H296 H 0.71269 0.18814 0.57789 0.0
O297 O 0.81898 0.21979 0.72476 0.0
O298 O 0.85762 0.25504 0.65973 0.0
H299 H 0.80725 0.26932 0.39168 0.0
H300 H 0.78855 0.29067 0.41104 0.0
C301 C 0.80388 0.283 0.43527 0.0
H302 H 0.82621 0.30321 0.45018 0.0
H303 H 0.8504 0.26892 0.4526 0.0
O304 O 0.76523 0.23148 0.77932 0.0
C305 C 0.84583 0.23044 0.69854 0.0
Co306 Co 0.91574 0.47873 1.03808 0.0
Co307 Co 0.92823 0.4442 0.14673 0.0
C308 C 0.89861 0.41073 1.00549 0.0
O309 O 0.90397 0.43738 0.98709 0.0
O310 O 0.9041 0.40663 0.07377 0.0
C311 C 0.86652 0.46821 0.96389 0.0
O312 O 0.85445 0.44536 1.01198 0.0
C313 C 0.94815 0.41164 0.24924 0.0
C314 C 0.98721 0.45147 0.30375 0.0
C315 C 0.97256 0.41999 0.29829 0.0
N316 N 0.94901 0.43718 0.22518 0.0
N317 N 0.97256 0.46088 0.25728 0.0
C318 C 0.92321 0.3801 0.22932 0.0
H319 H 0.903 0.38073 0.20702 0.0
H320 H 0.91638 0.3648 0.27918 0.0
H321 H 0.93163 0.37058 0.18546 0.0
C322 C 0.88697 0.49417 0.1716 0.0
N323 N 0.90025 0.4794 0.13835 0.0
N324 N 0.90525 0.46357 0.1891 0.0
C325 C 0.89512 0.46783 0.25691 0.0
C326 C 0.88279 0.48757 0.24906 0.0
C327 C 0.87896 0.51515 0.13049 0.0
H328 H 0.87263 0.50795 0.07166 0.0
H329 H 0.85965 0.51582 0.15812 0.0
H330 H 0.89917 0.53858 0.13017 0.0
O331 O 0.9611 0.50772 1.02833 0.0
O332 O 0.96748 0.47456 0.09408 0.0
H333 H 0.92087 0.45432 0.32771 0.0
H334 H 0.90012 0.46938 0.37767 0.0
C335 C 0.89946 0.45527 0.32925 0.0
H336 H 0.88019 0.43156 0.33691 0.0
H337 H 0.97877 0.48365 0.24707 0.0
O338 O 0.89409 0.48959 0.9708 0.0
C339 C 0.97874 0.49866 0.054 0.0
Co340 Co 0.60014 0.45233 0.0505 0.0
Co341 Co 0.641 0.50074 0.1474 0.0
C342 C 0.66721 0.49939 0.99697 0.0
O343 O 0.63979 0.47803 0.98373 0.0
O344 O 0.67338 0.51012 0.06376 0.0
C345 C 0.60015 0.40373 1.00424 0.0
O346 O 0.62741 0.41998 1.03443 0.0
C347 C 0.6778 0.56092 0.20658 0.0
C348 C 0.66205 0.55523 0.32414 0.0
C349 C 0.68157 0.57696 0.27259 0.0
N350 N 0.65798 0.53128 0.21984 0.0
N351 N 0.64775 0.52813 0.28926 0.0
C352 C 0.68755 0.57374 0.12898 0.0
H353 H 0.66799 0.56186 0.08962 0.0
H354 H 0.70579 0.56934 0.10918 0.0
H355 H 0.69584 0.59867 0.12751 0.0
C356 C 0.58609 0.41298 0.19364 0.0
N357 N 0.60217 0.43958 0.15414 0.0
N358 N 0.62336 0.46015 0.19757 0.0
C359 C 0.62254 0.44631 0.26486 0.0
C360 C 0.59857 0.41552 0.26515 0.0
C361 C 0.55739 0.38586 0.16681 0.0
H362 H 0.54797 0.39196 0.11769 0.0
H363 H 0.56247 0.36753 0.15259 0.0
H364 H 0.54007 0.37692 0.2124 0.0
O365 O 0.57315 0.47056 1.04501 0.0
O366 O 0.6079 0.50967 0.10951 0.0
H367 H 0.63179 0.46604 0.37444 0.0
H368 H 0.65197 0.44647 0.35184 0.0
C369 C 0.64405 0.46176 0.3287 0.0
H370 H 0.66401 0.48367 0.31014 0.0
H371 H 0.63025 0.50783 0.31193 0.0
O372 O 0.58212 0.41434 1.00056 0.0
C373 C 0.58269 0.49688 0.07327 0.0
Co374 Co 0.62584 0.1597 1.0477 0.0
Co375 Co 0.57496 0.14589 0.14424 0.0
C376 C 0.57532 0.17587 0.99904 0.0
O377 O 0.59786 0.17166 0.98677 0.0
O378 O 0.56373 0.16987 0.06528 0.0
C379 C 0.67018 0.21258 1.00078 0.0
O380 O 0.6524 0.22067 1.03527 0.0
C381 C 0.52054 0.12844 0.2333 0.0
C382 C 0.5119 0.08393 0.27916 0.0
C383 C 0.49945 0.10276 0.27338 0.0
N384 N 0.54368 0.12428 0.21405 0.0
N385 N 0.53844 0.09766 0.24124 0.0
C386 C 0.52048 0.15761 0.2183 0.0
H387 H 0.54403 0.17642 0.20602 0.0
H388 H 0.51131 0.164 0.26722 0.0
H389 H 0.50595 0.1546 0.16855 0.0
C390 C 0.66394 0.18436 0.19236 0.0
N391 N 0.63727 0.17239 0.15255 0.0
N392 N 0.61508 0.16828 0.19748 0.0
C393 C 0.62735 0.17828 0.26765 0.0
C394 C 0.65926 0.18913 0.26763 0.0
C395 C 0.69396 0.19154 0.15905 0.0
H396 H 0.70652 0.21607 0.14306 0.0
H397 H 0.70824 0.18786 0.20045 0.0
H398 H 0.69052 0.17733 0.10867 0.0
O399 O 0.61012 0.11462 1.03325 0.0
O400 O 0.56914 0.1079 0.09215 0.0
H401 H 0.60655 0.15666 0.37131 0.0
H402 H 0.62049 0.19703 0.36861 0.0
C403 C 0.60873 0.17564 0.33524 0.0
H404 H 0.58557 0.17088 0.31852 0.0
H405 H 0.55281 0.08865 0.23306 0.0
O406 O 0.66299 0.18465 0.99698 0.0
C407 C 0.58271 0.0969 0.05453 0.0
Co408 Co 0.49743 0.90189 1.03888 0.0
Co409 Co 0.45485 0.90645 0.9442 0.0
C410 C 0.43013 0.88084 0.09571 0.0
O411 O 0.45796 0.88791 0.10783 0.0
O412 O 0.42306 0.88409 1.02865 0.0
C413 C 0.49805 0.85392 0.08707 0.0
O414 O 0.47059 0.84259 0.05779 0.0
C415 C 0.42002 0.93165 0.88443 0.0
C416 C 0.4339 0.93879 0.76521 0.0
C417 C 0.4169 0.94417 0.81787 0.0
N418 N 0.43741 0.91907 0.87083 0.0
N419 N 0.44638 0.92414 0.80015 0.0
C420 C 0.41178 0.93633 0.96211 0.0
H421 H 0.43117 0.94228 1.00094 0.0
H422 H 0.39216 0.91462 0.98293 0.0
H423 H 0.40594 0.95479 0.96316 0.0
C424 C 0.51174 0.87711 0.8956 0.0
N425 N 0.49524 0.88673 0.93577 0.0
N426 N 0.47223 0.88332 0.89537 0.0
C427 C 0.47158 0.86851 0.83038 0.0
C428 C 0.49749 0.86423 0.8261 0.0
C429 C 0.54255 0.88325 0.9203 0.0
H430 H 0.55175 0.90075 0.96536 0.0
H431 H 0.54041 0.86177 0.94204 0.0
H432 H 0.55865 0.89116 0.8721 0.0
O433 O 0.52417 0.94687 1.0422 0.0
O434 O 0.48828 0.94953 0.97846 0.0
H435 H 0.44867 0.8714 0.73151 0.0
H436 H 0.44017 0.83319 0.75568 0.0
C437 C 0.44454 0.85542 0.7787 0.0
H438 H 0.42397 0.85213 0.80926 0.0
H439 H 0.46229 0.91917 0.77682 0.0
O440 O 0.5161 0.88261 0.08886 0.0
C441 C 0.51393 0.96293 1.01304 0.0
Co442 Co 0.17334 0.61117 0.05968 0.0
Co443 Co 0.17167 0.56868 0.95511 0.0
C444 C 0.19403 0.56367 0.10656 0.0
O445 O 0.18545 0.58292 0.12217 0.0
O446 O 0.19313 0.5564 1.03742 0.0
C447 C 0.2178 0.65225 0.13686 0.0
O448 O 0.23167 0.64198 0.09351 0.0
C449 C 0.14687 0.51132 0.88194 0.0
C450 C 0.13956 0.52225 0.76628 0.0
C451 C 0.13375 0.49803 0.81369 0.0
N452 N 0.16002 0.54174 0.87459 0.0
N453 N 0.15485 0.54814 0.80604 0.0
C454 C 0.14293 0.49558 0.95606 0.0
H455 H 0.13899 0.50835 1.00103 0.0
H456 H 0.16423 0.49536 0.97014 0.0
H457 H 0.1234 0.47175 0.95458 0.0
C458 C 0.20335 0.65767 0.93121 0.0
N459 N 0.1923 0.62953 0.96309 0.0
N460 N 0.19541 0.61147 0.91648 0.0
C461 C 0.21097 0.62839 0.85477 0.0
C462 C 0.21673 0.65907 0.86012 0.0
C463 C 0.19703 0.681 0.9651 0.0
H464 H 0.17595 0.66948 0.99978 0.0
H465 H 0.21614 0.69607 1.00302 0.0
H466 H 0.19404 0.69487 0.92093 0.0
O467 O 0.12833 0.5928 0.05614 0.0
O468 O 0.1277 0.5564 0.98802 0.0
H469 H 0.20649 0.60963 0.74457 0.0
H470 H 0.24528 0.63339 0.77573 0.0
C471 C 0.22192 0.61589 0.79386 0.0
H472 H 0.22201 0.59507 0.81379 0.0
H473 H 0.16 0.56983 0.78768 0.0
O474 O 0.19006 0.64441 0.12517 0.0
C475 C 0.11324 0.56718 1.02347 0.0
Co476 Co 0.46895 0.57909 0.05324 0.0
Co477 Co 0.51433 0.61507 0.94545 0.0
C478 C 0.5187 0.64676 0.09027 0.0
O479 O 0.49792 0.61976 0.10815 0.0
O480 O 0.52753 0.65161 1.02146 0.0
C481 C 0.42869 0.58579 0.1281 0.0
O482 O 0.43985 0.61024 0.08507 0.0
C483 C 0.56708 0.65012 0.85024 0.0
C484 C 0.56995 0.61222 0.79593 0.0
C485 C 0.58594 0.64354 0.80665 0.0
N486 N 0.54188 0.62373 0.86672 0.0
N487 N 0.54363 0.60119 0.83418 0.0
C488 C 0.57133 0.68058 0.87251 0.0
H489 H 0.54888 0.67847 0.88559 0.0
H490 H 0.58246 0.69766 0.82688 0.0
H491 H 0.58575 0.68877 0.92376 0.0
C492 C 0.4233 0.56535 0.92456 0.0
N493 N 0.45185 0.57955 0.95546 0.0
N494 N 0.47202 0.5956 0.9039 0.0
C495 C 0.45669 0.59172 0.83754 0.0
C496 C 0.42477 0.57243 0.84787 0.0
C497 C 0.39494 0.54384 0.96678 0.0
H498 H 0.39996 0.53032 1.00774 0.0
H499 H 0.3868 0.55731 0.99832 0.0
H500 H 0.37648 0.5282 0.92798 0.0
O501 O 0.4857 0.5505 0.05926 0.0
O502 O 0.52452 0.58503 0.99456 0.0
H503 H 0.47614 0.58836 0.73457 0.0
H504 H 0.45756 0.61075 0.72868 0.0
C505 C 0.47222 0.6053 0.76462 0.0
H506 H 0.4947 0.62617 0.77461 0.0
H507 H 0.52735 0.57805 0.84067 0.0
O508 O 0.43598 0.56547 0.11765 0.0
C509 C 0.51243 0.56054 1.03318 0.0
Co510 Co 0.58658 0.80973 0.383 0.0
Co511 Co 0.59307 0.77012 0.4849 0.0
C512 C 0.56671 0.7417 0.33804 0.0
O513 O 0.57365 0.76928 0.32403 0.0
O514 O 0.56991 0.73515 0.40597 0.0
C515 C 0.54135 0.80624 0.30509 0.0
O516 O 0.52665 0.7809 0.34455 0.0
C517 C 0.60836 0.73301 0.58056 0.0
C518 C 0.64975 0.76971 0.63635 0.0
C519 C 0.63312 0.73839 0.62601 0.0
N520 N 0.61106 0.75999 0.56335 0.0
N521 N 0.6357 0.78183 0.5969 0.0
C522 C 0.5816 0.70318 0.5563 0.0
H523 H 0.5626 0.70658 0.53702 0.0
H524 H 0.57334 0.68647 0.60336 0.0
H525 H 0.58852 0.69373 0.50899 0.0
C526 C 0.55832 0.82484 0.51525 0.0
N527 N 0.56984 0.80872 0.48138 0.0
N528 N 0.5702 0.78915 0.52866 0.0
C529 C 0.55728 0.79112 0.59441 0.0
C530 C 0.54857 0.81398 0.58937 0.0
C531 C 0.56134 0.8532 0.48001 0.0
H532 H 0.58193 0.86412 0.44357 0.0
H533 H 0.54123 0.84699 0.4435 0.0
H534 H 0.56331 0.86986 0.52325 0.0
O535 O 0.63143 0.83701 0.37807 0.0
O536 O 0.6343 0.80055 0.43759 0.0
H537 H 0.57287 0.7845 0.70058 0.0
H538 H 0.53182 0.76486 0.69058 0.0
C539 C 0.55361 0.77149 0.6611 0.0
H540 H 0.55413 0.75069 0.64347 0.0
H541 H 0.64361 0.80515 0.5904 0.0
O542 O 0.56875 0.82591 0.32068 0.0
C543 C 0.64738 0.82575 0.40156 0.0
Co544 Co 0.26842 0.79088 0.39959 0.0
Co545 Co 0.30782 0.84358 0.48987 0.0
C546 C 0.33661 0.83917 0.34837 0.0
O547 O 0.30951 0.81638 0.33854 0.0
O548 O 0.34263 0.85316 0.41179 0.0
C549 C 0.26836 0.73998 0.36012 0.0
O550 O 0.29597 0.75555 0.38882 0.0
C551 C 0.33905 0.89865 0.58837 0.0
C552 C 0.29797 0.89991 0.62606 0.0
C553 C 0.32944 0.91543 0.63082 0.0
N554 N 0.31431 0.87468 0.55882 0.0
N555 N 0.28991 0.8758 0.58118 0.0
C556 C 0.37067 0.9034 0.58245 0.0
H557 H 0.37057 0.88463 0.54995 0.0
H558 H 0.38001 0.90432 0.63956 0.0
H559 H 0.38578 0.9256 0.55426 0.0
C560 C 0.25462 0.75624 0.54825 0.0
N561 N 0.2701 0.7818 0.50529 0.0
N562 N 0.29056 0.80399 0.54621 0.0
C563 C 0.29022 0.79241 0.61633 0.0
C564 C 0.26696 0.76074 0.62149 0.0
C565 C 0.22584 0.72898 0.52185 0.0
H566 H 0.21574 0.73521 0.47431 0.0
H567 H 0.23144 0.71157 0.50288 0.0
H568 H 0.20889 0.71913 0.56811 0.0
O569 O 0.23981 0.80672 0.38229 0.0
O570 O 0.27545 0.84881 0.43396 0.0
H571 H 0.30236 0.82114 0.71296 0.0
H572 H 0.31991 0.79743 0.70887 0.0
C573 C 0.31281 0.81142 0.67541 0.0
H574 H 0.33326 0.83086 0.64905 0.0
H575 H 0.26747 0.85962 0.56725 0.0
O576 O 0.25145 0.75181 0.35549 0.0
C577 C 0.25012 0.83455 0.39911 0.0
Co578 Co 0.28672 0.4937 0.4023 0.0
Co579 Co 0.23586 0.4795 0.50138 0.0
C580 C 0.23716 0.51112 0.3555 0.0
O581 O 0.25966 0.50692 0.34259 0.0
O582 O 0.22497 0.50397 0.42122 0.0
C583 C 0.33309 0.5422 0.33522 0.0
O584 O 0.31728 0.55484 0.35797 0.0
C585 C 0.18068 0.45965 0.5936 0.0
C586 C 0.17656 0.41745 0.64311 0.0
C587 C 0.16184 0.43421 0.63771 0.0
N588 N 0.20482 0.45741 0.57239 0.0
N589 N 0.20205 0.43199 0.60148 0.0
C590 C 0.17748 0.48703 0.57732 0.0
H591 H 0.19913 0.50601 0.55429 0.0
H592 H 0.17131 0.49481 0.62923 0.0
H593 H 0.15898 0.48081 0.53546 0.0
C594 C 0.32569 0.52035 0.54435 0.0
N595 N 0.29868 0.50773 0.50616 0.0
N596 N 0.2765 0.5018 0.55321 0.0
C597 C 0.28912 0.51054 0.62364 0.0
C598 C 0.32133 0.52279 0.62124 0.0
C599 C 0.35565 0.53065 0.50708 0.0
H600 H 0.35985 0.54913 0.46708 0.0
H601 H 0.37526 0.54028 0.54625 0.0
H602 H 0.35443 0.51095 0.47671 0.0
O603 O 0.27058 0.44832 0.39211 0.0
O604 O 0.22979 0.44112 0.45198 0.0
H605 H 0.28263 0.50359 0.74338 0.0
H606 H 0.26646 0.52475 0.70053 0.0
C607 C 0.2705 0.50526 0.69304 0.0
H608 H 0.24793 0.48414 0.68732 0.0
H609 H 0.21773 0.42457 0.59318 0.0
O610 O 0.32368 0.51419 0.34795 0.0
C611 C 0.24367 0.43022 0.41549 0.0
C612 C 0.20611 0.16625 0.05192 0.0
C613 C 0.20201 0.16816 0.9736 0.0
C614 C 0.19352 0.17709 0.10766 0.0
C615 C 0.1775 0.19295 0.0908 0.0
H616 H 0.21947 0.15641 0.07184 0.0
H617 H 0.1965 0.17242 0.16517 0.0
S618 S 0.15767 0.20276 0.89423 0.0
N619 N 0.17558 0.18328 0.88385 0.0
N620 N 0.15856 0.20936 0.98508 0.0
C621 C 0.17328 0.19515 1.01235 0.0
C622 C 0.18397 0.18178 0.95552 0.0
C623 C 0.92963 0.03688 1.00991 0.0
C624 C 0.91065 0.04586 0.97155 0.0
C625 C 0.91835 1.01379 0.06737 0.0
C626 C 0.88735 0.99819 0.09082 0.0
H627 H 0.95355 0.04756 0.99495 0.0
H628 H 0.9343 1.00842 0.09457 0.0
S629 S 0.82736 1.01175 1.00874 0.0
N630 N 0.85858 0.03608 0.96253 0.0
N631 N 0.83778 0.99332 0.06783 0.0
C632 C 0.86809 1.0066 0.05223 0.0
C633 C 0.87952 1.02999 0.99372 0.0
C634 C 0.05252 0.9119 0.08969 0.0
C635 C 0.06384 0.89417 0.12419 0.0
C636 C 1.02825 0.89942 1.03554 0.0
C637 C 1.01381 0.86844 1.01229 0.0
H638 H 0.06239 0.93573 0.10497 0.0
H639 H 1.02105 0.9144 1.01068 0.0
S640 S 1.03515 0.81215 0.08153 0.0
N641 N 0.05853 0.84369 0.1278 0.0
N642 N 1.01375 0.82075 1.02787 0.0
C643 C 1.02502 0.8506 1.04596 0.0
C644 C 0.04958 0.86321 0.10108 0.0
C645 C 0.81 0.774 0.14846 0.0
C646 C 0.79088 0.78503 0.12309 0.0
C647 C 0.8202 0.75993 0.09843 0.0
C648 C 0.81157 0.7569 1.0226 0.0
H649 H 0.82148 0.78061 0.20206 0.0
H650 H 0.83869 0.75633 0.11639 0.0
S651 S 0.74955 0.76653 0.94136 0.0
N652 N 0.75396 0.78003 1.02776 0.0
N653 N 0.7742 0.7543 0.9325 0.0
C654 C 0.78677 0.76045 1.00235 0.0
C655 C 0.77591 0.77426 0.05371 0.0
C656 C 0.30419 0.07056 0.09497 0.0
C657 C 0.30739 0.06677 1.01824 0.0
C658 C 0.29078 0.04521 0.1424 0.0
C659 C 0.28052 1.01566 0.11376 0.0
H660 H 0.30741 0.09208 0.1161 0.0
H661 H 0.28429 0.04883 0.19736 0.0
S662 S 0.29919 0.99752 0.92664 0.0
N663 N 0.31075 0.03445 0.92264 0.0
N664 N 0.28577 0.98631 1.01257 0.0
C665 C 0.29096 1.01323 1.04235 0.0
C666 C 0.30434 0.03908 0.99382 0.0
C667 C 1.03168 0.27684 1.03463 0.0
C668 C 1.03696 0.26368 0.97099 0.0
C669 C 0.05533 0.29379 0.08525 0.0
C670 C 0.08463 0.29842 0.0717 0.0
H671 H 1.00853 0.2701 0.05134 0.0
H672 H 0.04971 0.29916 0.13972 0.0
S673 S 0.11258 0.27923 0.90034 0.0
N674 N 0.07537 0.26371 0.88805 0.0
N675 N 0.11991 0.29736 0.98127 0.0
C676 C 0.09151 0.29173 1.00059 0.0
C677 C 0.06739 0.27364 0.95013 0.0
C678 C 0.86399 0.54332 0.36075 0.0
C679 C 0.84332 0.52508 0.41775 0.0
C680 C 0.87667 0.53132 0.30817 0.0
C681 C 0.86937 0.50018 0.30837 0.0
H682 H 0.87118 0.56742 0.35794 0.0
H683 H 0.89293 0.54699 0.2676 0.0
S684 S 0.81531 0.44213 0.44434 0.0
N685 N 0.81616 0.47391 0.47028 0.0
N686 N 0.8384 0.45137 0.37122 0.0
C687 C 0.84838 0.48173 0.36479 0.0
C688 C 0.83586 0.49406 0.41892 0.0
C689 C 0.5957 0.36882 0.33392 0.0
C690 C 0.58643 0.391 0.32772 0.0
C691 C 0.58264 0.34435 0.3877 0.0
C692 C 0.55938 0.34042 0.43864 0.0
H693 H 0.61317 0.37022 0.2963 0.0
H694 H 0.59117 0.32852 0.38981 0.0
S695 S 0.5244 0.39012 0.44111 0.0
N696 N 0.5509 0.40581 0.37531 0.0
N697 N 0.52628 0.36041 0.47353 0.0
C698 C 0.54944 0.36208 0.43138 0.0
C699 C 0.56284 0.38698 0.37705 0.0
C700 C 0.71854 0.24324 0.41901 0.0
C701 C 0.73286 0.22699 0.44603 0.0
C702 C 0.69442 0.23076 0.36413 0.0
C703 C 0.68322 0.20134 0.33203 0.0
H704 H 0.72593 0.26587 0.44085 0.0
H705 H 0.68481 0.24462 0.34565 0.0
S706 S 0.71248 0.14904 0.38198 0.0
N707 N 0.73325 0.17939 0.43487 0.0
N708 N 0.68904 0.15652 0.33342 0.0
C709 C 0.69737 0.18497 0.35873 0.0
C710 C 0.72166 0.19752 0.41483 0.0
C711 C 0.47542 0.09638 0.3967 0.0
C712 C 0.47426 0.10029 0.31889 0.0
C713 C 0.46462 0.11023 0.44587 0.0
C714 C 0.45346 0.12874 0.41748 0.0
H715 H 0.48849 0.08657 0.41973 0.0
H716 H 0.46872 0.1097 0.50545 0.0
S717 S 0.43148 0.13155 0.2199 0.0
N718 N 0.44974 0.11209 0.21706 0.0
N719 N 0.43096 0.14002 0.30928 0.0
C720 C 0.44551 0.12628 0.34107 0.0
C721 C 0.45574 0.11144 0.29133 0.0
C722 C 0.97135 0.40372 0.42836 0.0
C723 C 0.97552 0.39975 0.35235 0.0
C724 C 0.95778 0.37852 0.47635 0.0
C725 C 0.94839 0.34895 0.4491 0.0
H726 H 0.97405 0.42521 0.4481 0.0
H727 H 0.95059 0.38217 0.53039 0.0
S728 S 0.96844 0.3304 0.26416 0.0
N729 N 0.97959 0.3672 0.25875 0.0
N730 N 0.95471 0.31948 0.34996 0.0
C731 C 0.95939 0.34641 0.37852 0.0
C732 C 0.97278 0.37205 0.32934 0.0
C733 C 0.703 0.61904 0.36351 0.0
C734 C 0.70709 0.60699 0.29609 0.0
C735 C 0.72672 0.63245 0.41593 0.0
C736 C 0.75521 0.63547 0.3998 0.0
H737 H 0.68025 0.61329 0.38148 0.0
H738 H 0.7216 0.6366 0.4723 0.0
S739 S 0.78134 0.62124 0.21847 0.0
N740 N 0.74448 0.60844 0.20705 0.0
N741 N 0.78934 0.63552 0.30409 0.0
C742 C 0.76151 0.63077 0.3261 0.0
C743 C 0.7372 0.61615 0.27368 0.0
C744 C 0.53909 0.82504 0.72719 0.0
C745 C 0.53379 0.82534 0.64899 0.0
C746 C 0.52651 0.8362 0.78221 0.0
C747 C 0.50875 0.85011 0.76404 0.0
H748 H 0.55353 0.81638 0.74714 0.0
H749 H 0.53087 0.83345 0.84017 0.0
S750 S 0.48533 0.85487 0.56773 0.0
N751 N 0.50506 0.83717 0.55833 0.0
N752 N 0.48654 0.8626 0.65803 0.0
C753 C 0.50305 0.85034 0.68584 0.0
C754 C 0.51433 0.83722 0.63002 0.0
C755 C 0.23045 0.68052 0.72335 0.0
C756 C 0.23161 0.68601 0.80166 0.0
C757 C 0.24309 0.70437 0.66839 0.0
C758 C 0.25635 0.73601 0.68568 0.0
H759 H 0.21926 0.65736 0.70279 0.0
H760 H 0.24238 0.69735 0.61101 0.0
S761 S 0.26869 0.76472 0.88273 0.0
N762 N 0.25239 0.72731 0.89314 0.0
N763 N 0.27055 0.77089 0.79129 0.0
C764 C 0.25811 0.74206 0.76405 0.0
C765 C 0.247 0.71769 0.82075 0.0
C766 C 0.36821 0.52471 0.68683 0.0
C767 C 0.34615 0.53433 0.68383 0.0
C768 C 0.39354 0.53743 0.73765 0.0
C769 C 0.39814 0.56006 0.79085 0.0
H770 H 0.36611 0.50714 0.64857 0.0
H771 H 0.40953 0.52909 0.7358 0.0
S772 S 0.34661 0.59224 0.81315 0.0
N773 N 0.331 0.56794 0.74279 0.0
N774 N 0.37694 0.59023 0.83973 0.0
C775 C 0.37566 0.569 0.79106 0.0
C776 C 0.35021 0.55655 0.73799 0.0
C777 C 0.14018 0.45259 0.81503 0.0
C778 C 0.12445 0.46698 0.78706 0.0
C779 C 0.14723 0.43516 0.76753 0.0
C780 C 0.13915 0.43245 0.69136 0.0
H781 H 0.15164 0.45864 0.86875 0.0
H782 H 0.16355 0.42872 0.78728 0.0
S783 S 0.08492 0.4521 0.60339 0.0
N784 N 0.09083 0.4669 0.68865 0.0
N785 N 0.10514 0.43466 0.59829 0.0
C786 C 0.1172 0.43994 0.66866 0.0
C787 C 0.10957 0.4573 0.7173 0.0
C788 C 0.62548 0.68609 0.63773 0.0
C789 C 0.63749 0.71562 0.66742 0.0
C790 C 0.61264 0.66084 0.6858 0.0
C791 C 0.61294 0.66527 0.76369 0.0
H792 H 0.6219 0.68221 0.57786 0.0
H793 H 0.59863 0.63837 0.66146 0.0
S794 S 0.66001 0.73767 0.86586 0.0
N795 N 0.66147 0.74789 0.77693 0.0
N796 N 0.63935 0.69992 0.86714 0.0
C797 C 0.6332 0.69426 0.79267 0.0
C798 C 0.64529 0.71999 0.74402 0.0
C799 C 0.39968 0.96949 0.72894 0.0
C800 C 0.39402 0.95278 0.79635 0.0
C801 C 0.37641 0.96079 0.67577 0.0
C802 C 0.34703 0.93647 0.69137 0.0
H803 H 0.42298 0.98505 0.71125 0.0
H804 H 0.38241 0.96988 0.6192 0.0
S805 S 0.31766 0.8976 0.874 0.0
N806 N 0.3549 0.91933 0.88597 0.0
N807 N 0.31095 0.90455 0.78749 0.0
C808 C 0.33962 0.92598 0.76556 0.0
C809 C 0.36341 0.93404 0.81876 0.0
C810 C 0.24432 0.38042 0.39677 0.0
C811 C 0.22789 0.39614 0.4035 0.0
C812 C 0.22914 0.34809 0.39016 0.0
C813 C 0.1969 0.33018 0.38852 0.0
H814 H 0.26909 0.39312 0.39769 0.0
H815 H 0.24277 0.33714 0.38451 0.0
S816 S 0.14313 0.35995 0.40381 0.0
N817 N 0.17733 0.3908 0.40841 0.0
N818 N 0.14926 0.33096 0.39476 0.0
C819 C 0.18035 0.34572 0.39501 0.0
C820 C 0.19567 0.37834 0.4028 0.0
C821 C 0.73048 0.88937 0.37056 0.0
C822 C 0.74656 0.87337 0.36284 0.0
C823 C 0.6985 0.87391 0.38159 0.0
C824 C 0.68123 0.84176 0.38763 0.0
H825 H 0.74267 0.91413 0.36727 0.0
H826 H 0.6873 0.88733 0.38682 0.0
S827 S 0.71215 0.78897 0.37211 0.0
N828 N 0.74243 0.82333 0.36133 0.0
N829 N 0.6829 0.79449 0.38462 0.0
C830 C 0.69707 0.8255 0.38054 0.0
C831 C 0.72949 0.8412 0.36744 0.0
C832 C 0.19998 0.83455 0.3864 0.0
C833 C 0.23224 0.85048 0.38374 0.0
C834 C 0.18315 0.84994 0.37913 0.0
C835 C 0.19778 0.88185 0.36694 0.0
H836 H 0.18762 0.81009 0.39638 0.0
H837 H 0.15844 0.83668 0.38265 0.0
S838 S 0.2818 0.93412 0.35285 0.0
N839 N 0.27803 0.90008 0.36723 0.0
N840 N 0.24672 0.9286 0.35129 0.0
C841 C 0.23 0.89786 0.3625 0.0
C842 C 0.24709 0.88234 0.3715 0.0
C843 C 0.39632 0.1846 0.70444 0.0
C844 C 0.41394 0.21677 0.69933 0.0
C845 C 0.36428 0.16928 0.71324 0.0
C846 C 0.34803 0.18524 0.71494 0.0
H847 H 0.40745 0.17103 0.70242 0.0
H848 H 0.35206 0.14456 0.71777 0.0
S849 S 0.38293 0.26965 0.70263 0.0
N850 N 0.41244 0.2641 0.69715 0.0
N851 N 0.35229 0.23533 0.71075 0.0
C852 C 0.36526 0.21741 0.70903 0.0
C853 C 0.39809 0.23312 0.70211 0.0
C854 C 0.86563 0.16706 0.73094 0.0
C855 C 0.89783 0.18309 0.73762 0.0
C856 C 0.84898 0.18242 0.72015 0.0
C857 C 0.8638 0.21453 0.71308 0.0
H858 H 0.85307 0.14231 0.73439 0.0
H859 H 0.82431 0.16894 0.71553 0.0
S860 S 0.94774 0.26746 0.72619 0.0
N861 N 0.94375 0.23317 0.73761 0.0
N862 N 0.91284 0.26183 0.71455 0.0
C863 C 0.896 0.23084 0.71952 0.0
C864 C 0.91287 0.21524 0.73254 0.0
C865 C 0.86933 0.71128 0.72607 0.0
C866 C 0.90155 0.72887 0.72654 0.0
C867 C 0.85375 0.67926 0.71841 0.0
C868 C 0.8694 0.66279 0.71259 0.0
H869 H 0.85582 0.72239 0.731 0.0
H870 H 0.82897 0.66725 0.71713 0.0
S871 S 0.95385 0.69737 0.71235 0.0
N872 N 0.94868 0.72706 0.72084 0.0
N873 N 0.91933 0.66678 0.70816 0.0
C874 C 0.90165 0.6799 0.71403 0.0
C875 C 0.91767 0.71284 0.72035 0.0
C876 C 0.06185 0.56465 1.03591 0.0
C877 C 0.0788 0.54951 1.02747 0.0
C878 C 1.02951 0.54832 1.04117 0.0
C879 C 1.01271 0.51606 1.0404 0.0
H880 H 0.07366 0.5894 1.03831 0.0
H881 H 1.01769 0.56106 0.04836 0.0
S882 S 1.04571 0.46526 1.01888 0.0
N883 N 0.07575 0.50011 1.01676 0.0
N884 N 1.0157 0.46969 1.02943 0.0
C885 C 1.02937 0.5007 1.03172 0.0
C886 C 0.06211 0.51729 1.02449 0.0
C887 C 0.5156 0.51214 0.05042 0.0
C888 C 0.53017 0.54433 1.04645 0.0
C889 C 0.53258 0.49689 0.05796 0.0
C890 C 0.56481 0.51319 0.064 0.0
H891 H 0.49093 0.49856 1.04589 0.0
H892 H 0.52031 0.47212 0.05989 0.0
S893 S 0.61401 0.59782 0.05898 0.0
N894 N 0.57893 0.59189 0.04969 0.0
N895 N 0.61039 0.56356 0.06624 0.0
C896 C 0.57951 0.54538 0.06149 0.0
C897 C 0.56236 0.56081 0.05209 0.0
C898 C 0.58036 0.04565 1.03878 0.0
C899 C 0.5657 0.06317 1.03788 0.0
C900 C 0.5636 1.0134 1.03091 0.0
C901 C 0.53155 0.9973 1.01989 0.0
H902 H 0.60481 0.0568 1.04808 0.0
H903 H 0.57592 1.00099 1.03345 0.0
S904 S 0.48242 0.03259 1.0095 0.0
N905 N 0.51717 0.06181 1.0234 0.0
N906 N 0.4862 1.002 1.00651 0.0
C907 C 0.51686 1.01475 1.01674 0.0
C908 C 0.53375 0.04736 1.0263 0.0
C909 C 0.18566 0.15849 0.44689 0.0
C910 C 0.15889 0.15952 0.45925 0.0
C911 C 0.19842 0.1501 0.5047 0.0
C912 C 0.18463 0.14271 0.57577 0.0
H913 H 0.19844 0.16722 0.39519 0.0
H914 H 0.22041 0.15175 0.4955 0.0
S915 S 0.11128 0.13656 0.63089 0.0
N916 N 0.11644 0.14827 0.54249 0.0
N917 N 0.14068 0.13214 0.65255 0.0
C918 C 0.15588 0.13986 0.58598 0.0
C919 C 0.14282 0.14841 0.52679 0.0
C920 C 0.86555 0.05635 0.50395 0.0
C921 C 0.89506 0.08141 0.50865 0.0
C922 C 0.86076 1.02948 0.47105 0.0
C923 C 0.8855 1.02702 0.44296 0.0
H924 H 0.84674 0.05641 0.53296 0.0
H925 H 0.83776 1.00998 0.47273 0.0
S926 S 0.9661 0.08947 0.42775 0.0
N927 N 0.94837 0.10483 0.47189 0.0
N928 N 0.93954 0.05382 0.40943 0.0
C929 C 0.91452 0.05331 0.43897 0.0
C930 C 0.91923 0.08085 0.47182 0.0
C931 C 0.07845 0.9048 0.59222 0.0
C932 C 0.07463 0.91699 0.52492 0.0
C933 C 0.05698 0.89612 0.64893 0.0
C934 C 1.0314 0.89962 0.6395 0.0
H935 H 0.09694 0.89994 0.59899 0.0
H936 H 0.05888 0.88392 0.69693 0.0
S937 S 1.01454 0.93601 0.47996 0.0
N938 N 1.04651 0.93678 0.45613 0.0
N939 N 1.00553 0.92014 0.56434 0.0
C940 C 1.02934 0.91532 0.5768 0.0
C941 C 0.05128 0.92414 0.51856 0.0
C942 C 0.90241 0.85424 0.54244 0.0
C943 C 0.8959 0.85594 0.6194 0.0
C944 C 0.89229 0.86611 0.48275 0.0
C945 C 0.87573 0.88148 0.49565 0.0
H946 H 0.91528 0.84315 0.52764 0.0
H947 H 0.89789 0.86346 0.42561 0.0
S948 S 0.85257 0.89299 0.68601 0.0
N949 N 0.8711 0.87442 0.70365 0.0
N950 N 0.85339 0.89745 0.59383 0.0
C951 C 0.86935 0.88368 0.57243 0.0
C952 C 0.87898 0.87086 0.63311 0.0
C953 C 0.21098 0.03889 0.47489 0.0
C954 C 0.19536 1.00718 0.49171 0.0
C955 C 0.22257 0.06187 0.532 0.0
C956 C 0.22001 0.05486 0.61008 0.0
H957 H 0.21404 0.04619 0.4167 0.0
H958 H 0.23395 0.08559 0.51433 0.0
S959 S 0.18166 0.97558 0.68665 0.0
N960 N 0.17815 0.97046 0.59474 0.0
N961 N 0.20038 1.01298 0.69976 0.0
C962 C 0.20478 1.02327 0.62769 0.0
C963 C 0.19245 0.99984 0.56964 0.0
C964 C 1.01406 0.17525 0.5233 0.0
C965 C 1.02117 0.17506 0.60057 0.0
C966 C 1.03699 0.18817 0.46599 0.0
C967 C 0.06867 0.20133 0.48166 0.0
H968 H 0.9904 0.16581 0.50674 0.0
H969 H 1.02966 0.18763 0.40848 0.0
S970 S 0.10033 0.20672 0.67425 0.0
N971 N 0.06306 0.18978 0.68836 0.0
N972 N 0.10535 0.21285 0.58279 0.0
C973 C 0.07603 0.20099 0.55872 0.0
C974 C 0.05272 0.18835 0.61709 0.0
C975 C 0.80933 0.47562 0.84846 0.0
C976 C 0.82698 0.48926 0.78397 0.0
C977 C 0.82074 0.46515 0.90578 0.0
C978 C 0.84974 0.46822 0.89825 0.0
H979 H 0.78853 0.47632 0.85837 0.0
H980 H 0.80851 0.45781 0.95862 0.0
S981 S 0.90018 0.4942 0.73165 0.0
N982 N 0.87145 0.49957 0.70991 0.0
N983 N 0.89241 0.4789 0.81652 0.0
C984 C 0.86517 0.47742 0.82964 0.0
C985 C 0.85386 0.48836 0.77231 0.0
C986 C 0.61237 0.37434 0.91552 0.0
C987 C 0.59179 0.3754 0.96655 0.0
C988 C 0.60174 0.35136 0.86139 0.0
C989 C 0.57064 0.32922 0.85919 0.0
H990 H 0.63587 0.39289 0.91246 0.0
H991 H 0.61713 0.35261 0.81742 0.0
S992 S 0.51011 0.3176 0.9942 0.0
N993 N 0.54063 0.34977 1.01995 0.0
N994 N 0.52123 0.30522 0.92202 0.0
C995 C 0.55113 0.32756 0.91698 0.0
C996 C 0.5616 0.35125 0.97 0.0
C997 C 0.72396 0.2367 0.97047 0.0
C998 C 0.69562 0.23436 0.95659 0.0
C999 C 0.74517 0.24513 0.91315 0.0
C1000 C 0.73822 0.25113 0.84106 0.0
H1001 H 0.7285 0.22891 1.0231 0.0
H1002 H 0.76601 0.24451 0.92363 0.0
S1003 S 0.66931 0.25343 0.78113 0.0
N1004 N 0.66318 0.24287 0.87038 0.0
N1005 N 0.70367 0.25899 0.76106 0.0
C1006 C 0.71167 0.25265 0.82891 0.0
C1007 C 0.69002 0.24413 0.88765 0.0
C1008 C 0.54419 0.20046 0.9482 0.0
C1009 C 0.5627 0.18723 0.93459 0.0
C1010 C 0.533 0.21151 0.88896 0.0
C1011 C 0.53871 0.20937 0.81158 0.0
H1012 H 0.5386 0.2028 1.00559 0.0
H1013 H 0.51941 0.22176 0.90432 0.0
S1014 S 0.58555 0.17651 0.74288 0.0
N1015 N 0.58619 0.17307 0.83515 0.0
N1016 N 0.56452 0.19251 0.72611 0.0
C1017 C 0.55679 0.19581 0.79706 0.0
C1018 C 0.56883 0.18521 0.8574 0.0
C1019 C 0.88899 0.3927 0.86727 0.0
C1020 C 0.88595 0.38526 0.94518 0.0
C1021 C 0.87719 0.37008 0.80936 0.0
C1022 C 0.86076 0.33829 0.82502 0.0
H1023 H 0.9009 0.41652 0.85033 0.0
H1024 H 0.88069 0.37775 0.75144 0.0
S1025 S 0.84554 0.30556 1.01894 0.0
N1026 N 0.86504 0.34287 1.03342 0.0
N1027 N 0.84232 0.30098 0.92684 0.0
C1028 C 0.85737 0.33049 0.90276 0.0
C1029 C 0.86999 0.35358 0.96171 0.0
C1030 C 0.68377 0.50889 0.85628 0.0
C1031 C 0.69172 0.51214 0.93386 0.0
C1032 C 0.70613 0.52125 0.79731 0.0
C1033 C 0.73808 0.53701 0.81161 0.0
H1034 H 0.65983 0.49695 0.84061 0.0
H1035 H 0.69819 0.51794 0.73968 0.0
S1036 S 0.77197 0.55221 1.00399 0.0
N1037 N 0.73477 0.53327 1.01999 0.0
N1038 N 0.77594 0.55501 0.91172 0.0
C1039 C 0.74627 0.54017 0.88892 0.0
C1040 C 0.72356 0.52827 0.94878 0.0
C1041 C 0.49696 0.8021 0.23646 0.0
C1042 C 0.528 0.81083 0.2381 0.0
C1043 C 0.48612 0.81373 0.18072 0.0
C1044 C 0.50641 0.83441 0.12733 0.0
H1045 H 0.48177 0.78852 0.28153 0.0
H1046 H 0.46272 0.80897 0.18392 0.0
S1047 S 0.58766 0.85736 0.09795 0.0
N1048 N 0.57696 0.83502 0.17279 0.0
N1049 N 0.55714 0.85892 0.07176 0.0
C1050 C 0.53651 0.84032 0.12384 0.0
C1051 C 0.54722 0.82784 0.17863 0.0
C1052 C 0.27723 0.71166 0.26164 0.0
C1053 C 0.25874 0.71184 0.32004 0.0
C1054 C 0.26421 0.69054 0.20342 0.0
C1055 C 0.23273 0.66946 0.20373 0.0
H1056 H 0.30086 0.72975 0.25674 0.0
H1057 H 0.2782 0.69236 0.15545 0.0
S1058 S 0.17702 0.65585 0.35485 0.0
N1059 N 0.20918 0.68615 0.38167 0.0
N1060 N 0.18507 0.64538 0.27443 0.0
C1061 C 0.21517 0.66687 0.26699 0.0
C1062 C 0.2282 0.68848 0.32507 0.0
C1063 C 0.36305 0.57975 0.23686 0.0
C1064 C 0.36132 0.55982 0.29427 0.0
C1065 C 0.38682 0.59069 0.18472 0.0
C1066 C 0.40918 0.58213 0.19084 0.0
H1067 H 0.3447 0.58468 0.22839 0.0
H1068 H 0.38635 0.60371 0.13669 0.0
S1069 S 0.41867 0.53698 0.34194 0.0
N1070 N 0.3861 0.53571 0.36013 0.0
N1071 N 0.43213 0.55862 0.26636 0.0
C1072 C 0.40979 0.56571 0.25359 0.0
C1073 C 0.38529 0.55376 0.30447 0.0
C1074 C 0.20828 0.5386 0.30585 0.0
C1075 C 0.22561 0.52406 0.29194 0.0
C1076 C 0.1986 0.55136 0.24688 0.0
C1077 C 0.20492 0.5499 0.16954 0.0
H1078 H 0.20244 0.54061 0.36323 0.0
H1079 H 0.18572 0.56235 0.26238 0.0
S1080 S 0.24878 0.51377 0.10022 0.0
N1081 N 0.24832 0.50918 0.19224 0.0
N1082 N 0.22971 0.53186 0.08401 0.0
C1083 C 0.22182 0.53504 0.15491 0.0
C1084 C 0.23217 0.52261 0.21483 0.0
C1085 C 0.53972 0.68592 0.28822 0.0
C1086 C 0.5551 0.7178 0.27394 0.0
C1087 C 0.52829 0.66373 0.22932 0.0
C1088 C 0.53199 0.67173 0.15173 0.0
H1089 H 0.53601 0.67785 0.34581 0.0
H1090 H 0.51646 0.63979 0.2452 0.0
S1091 S 0.57097 0.75193 0.08142 0.0
N1092 N 0.57321 0.75585 0.17374 0.0
N1093 N 0.55285 0.71474 0.06531 0.0
C1094 C 0.54771 0.70352 0.13656 0.0
C1095 C 0.55884 0.72616 0.19652 0.0
C1096 C 0.39257 0.86661 0.29666 0.0
C1097 C 0.36051 0.84955 0.28388 0.0
C1098 C 0.41457 0.87591 0.23699 0.0
C1099 C 0.40613 0.86955 0.16001 0.0
H1100 H 0.40091 0.87265 0.35371 0.0
H1101 H 0.4386 0.88875 0.25156 0.0
S1102 S 0.3254 0.82615 0.09355 0.0
N1103 N 0.32203 0.82682 0.18571 0.0
N1104 N 0.36248 0.84487 0.07604 0.0
C1105 C 0.37417 0.8528 0.14654 0.0
C1106 C 0.35183 0.84274 0.20721 0.0
loop_
_geom_bond_atom_site_label_1
_geom_bond_atom_site_label_2
_geom_bond_distance
_geom_bond_site_symmetry_2
_ccdc_geom_bond_type
Co0 O3 1.970 . S
Co0 N17 1.989 . S
Co0 O25 1.967 . S
Co0 O32 1.920 . S
Co1 O4 1.966 . S
Co1 N10 2.022 . S
Co1 N18 1.993 . S
Co1 O26 1.941 . S
C2 O3 1.258 . S
C2 O4 1.263 . S
O3 Co0 1.970 . S
O3 C2 1.258 . S
O4 Co1 1.966 . S
O4 C2 1.263 . S
C5 O6 1.235 . S
C5 O32 1.289 . S
O6 C5 1.235 . S
C7 C9 1.400 . S
C7 N10 1.351 . S
C7 C12 1.501 . S
C8 C9 1.387 . S
C8 N11 1.341 . S
C9 C7 1.400 . S
C9 C8 1.387 . S
N10 Co1 2.022 . S
N10 C7 1.351 . S
N10 N11 1.365 . S
N11 C8 1.341 . S
N11 N10 1.365 . S
N11 H31 0.862 . S
C12 C7 1.501 . S
C12 H13 0.961 . S
C12 H14 0.961 . S
C12 H15 0.960 . S
H13 C12 0.961 . S
H14 C12 0.961 . S
H15 C12 0.960 . S
C16 N17 1.342 . S
C16 C20 1.401 . S
C16 C21 1.499 . S
N17 Co0 1.989 . S
N17 C16 1.342 . S
N17 N18 1.388 . S
N18 Co1 1.993 . S
N18 N17 1.388 . S
N18 C19 1.346 . S
C19 N18 1.346 . S
C19 C20 1.396 . S
C19 C29 1.510 . S
C20 C16 1.401 . S
C20 C19 1.396 . S
C21 C16 1.499 . S
C21 H22 0.959 . S
C21 H23 0.960 . S
C21 H24 0.961 . S
H22 C21 0.959 . S
H23 C21 0.960 . S
H24 C21 0.961 . S
O25 Co0 1.967 . S
O25 C33 1.258 . S
O26 Co1 1.941 . S
O26 C33 1.266 . S
H27 C29 0.959 . S
H28 C29 0.961 . S
C29 C19 1.510 . S
C29 H27 0.959 . S
C29 H28 0.961 . S
C29 H30 0.960 . S
H30 C29 0.960 . S
H31 N11 0.862 . S
O32 Co0 1.920 . S
O32 C5 1.289 . S
C33 O25 1.258 . S
C33 O26 1.266 . S
Co34 O37 1.970 . S
Co34 N51 1.989 . S
Co34 O59 1.967 . S
Co34 O66 1.920 . S
Co35 O38 1.966 . S
Co35 N44 2.022 . S
Co35 N52 1.993 . S
Co35 O60 1.941 . S
C36 O37 1.258 . S
C36 O38 1.263 . S
O37 Co34 1.970 . S
O37 C36 1.258 . S
O38 Co35 1.966 . S
O38 C36 1.263 . S
C39 O40 1.235 . S
C39 O66 1.289 . S
O40 C39 1.235 . S
C41 C43 1.400 . S
C41 N44 1.351 . S
C41 C46 1.501 . S
C42 C43 1.387 . S
C42 N45 1.341 . S
C43 C41 1.400 . S
C43 C42 1.387 . S
N44 Co35 2.022 . S
N44 C41 1.351 . S
N44 N45 1.365 . S
N45 C42 1.341 . S
N45 N44 1.365 . S
N45 H65 0.862 . S
C46 C41 1.501 . S
C46 H47 0.961 . S
C46 H48 0.961 . S
C46 H49 0.960 . S
H47 C46 0.961 . S
H48 C46 0.961 . S
H49 C46 0.960 . S
C50 N51 1.342 . S
C50 C54 1.401 . S
C50 C55 1.499 . S
N51 Co34 1.989 . S
N51 C50 1.342 . S
N51 N52 1.388 . S
N52 Co35 1.993 . S
N52 N51 1.388 . S
N52 C53 1.346 . S
C53 N52 1.346 . S
C53 C54 1.396 . S
C53 C63 1.510 . S
C54 C50 1.401 . S
C54 C53 1.396 . S
C55 C50 1.499 . S
C55 H56 0.959 . S
C55 H57 0.960 . S
C55 H58 0.961 . S
H56 C55 0.959 . S
H57 C55 0.960 . S
H58 C55 0.961 . S
O59 Co34 1.967 . S
O59 C67 1.258 . S
O60 Co35 1.941 . S
O60 C67 1.266 . S
H61 C63 0.959 . S
H62 C63 0.961 . S
C63 C53 1.510 . S
C63 H61 0.959 . S
C63 H62 0.961 . S
C63 H64 0.960 . S
H64 C63 0.960 . S
H65 N45 0.862 . S
O66 Co34 1.920 . S
O66 C39 1.289 . S
C67 O59 1.258 . S
C67 O60 1.266 . S
Co68 O71 1.970 . S
Co68 N85 1.989 . S
Co68 O93 1.967 . S
Co68 O100 1.920 . S
Co69 O72 1.966 . S
Co69 N78 2.022 . S
Co69 N86 1.993 . S
Co69 O94 1.941 . S
C70 O71 1.258 . S
C70 O72 1.263 . S
O71 Co68 1.970 . S
O71 C70 1.258 . S
O72 Co69 1.966 . S
O72 C70 1.263 . S
C73 O74 1.235 . S
C73 O100 1.289 . S
O74 C73 1.235 . S
C75 C77 1.400 . S
C75 N78 1.351 . S
C75 C80 1.501 . S
C76 C77 1.387 . S
C76 N79 1.341 . S
C77 C75 1.400 . S
C77 C76 1.387 . S
N78 Co69 2.022 . S
N78 C75 1.351 . S
N78 N79 1.365 . S
N79 C76 1.341 . S
N79 N78 1.365 . S
N79 H99 0.862 . S
C80 C75 1.501 . S
C80 H81 0.961 . S
C80 H82 0.961 . S
C80 H83 0.960 . S
H81 C80 0.961 . S
H82 C80 0.961 . S
H83 C80 0.960 . S
C84 N85 1.342 . S
C84 C88 1.401 . S
C84 C89 1.499 . S
N85 Co68 1.989 . S
N85 C84 1.342 . S
N85 N86 1.388 . S
N86 Co69 1.993 . S
N86 N85 1.388 . S
N86 C87 1.346 . S
C87 N86 1.346 . S
C87 C88 1.396 . S
C87 C97 1.510 . S
C88 C84 1.401 . S
C88 C87 1.396 . S
C89 C84 1.499 . S
C89 H90 0.959 . S
C89 H91 0.960 . S
C89 H92 0.961 . S
H90 C89 0.959 . S
H91 C89 0.960 . S
H92 C89 0.961 . S
O93 Co68 1.967 . S
O93 C101 1.258 . S
O94 Co69 1.941 . S
O94 C101 1.266 . S
H95 C97 0.959 . S
H96 C97 0.961 . S
C97 C87 1.510 . S
C97 H95 0.959 . S
C97 H96 0.961 . S
C97 H98 0.960 . S
H98 C97 0.960 . S
H99 N79 0.862 . S
O100 Co68 1.920 . S
O100 C73 1.289 . S
C101 O93 1.258 . S
C101 O94 1.266 . S
Co102 O105 1.970 . S
Co102 N119 1.989 . S
Co102 O127 1.967 . S
Co102 O134 1.920 . S
Co103 O106 1.966 . S
Co103 N112 2.022 . S
Co103 N120 1.993 . S
Co103 O128 1.941 . S
C104 O105 1.258 . S
C104 O106 1.263 . S
O105 Co102 1.970 . S
O105 C104 1.258 . S
O106 Co103 1.966 . S
O106 C104 1.263 . S
C107 O108 1.235 . S
C107 O134 1.289 . S
O108 C107 1.235 . S
C109 C111 1.400 . S
C109 N112 1.351 . S
C109 C114 1.501 . S
C110 C111 1.387 . S
C110 N113 1.341 . S
C111 C109 1.400 . S
C111 C110 1.387 . S
N112 Co103 2.022 . S
N112 C109 1.351 . S
N112 N113 1.365 . S
N113 C110 1.341 . S
N113 N112 1.365 . S
N113 H133 0.862 . S
C114 C109 1.501 . S
C114 H115 0.961 . S
C114 H116 0.961 . S
C114 H117 0.960 . S
H115 C114 0.961 . S
H116 C114 0.961 . S
H117 C114 0.960 . S
C118 N119 1.342 . S
C118 C122 1.401 . S
C118 C123 1.499 . S
N119 Co102 1.989 . S
N119 C118 1.342 . S
N119 N120 1.388 . S
N120 Co103 1.993 . S
N120 N119 1.388 . S
N120 C121 1.346 . S
C121 N120 1.346 . S
C121 C122 1.396 . S
C121 C131 1.510 . S
C122 C118 1.401 . S
C122 C121 1.396 . S
C123 C118 1.499 . S
C123 H124 0.959 . S
C123 H125 0.960 . S
C123 H126 0.961 . S
H124 C123 0.959 . S
H125 C123 0.960 . S
H126 C123 0.961 . S
O127 Co102 1.967 . S
O127 C135 1.258 . S
O128 Co103 1.941 . S
O128 C135 1.266 . S
H129 C131 0.959 . S
H130 C131 0.961 . S
C131 C121 1.510 . S
C131 H129 0.959 . S
C131 H130 0.961 . S
C131 H132 0.960 . S
H132 C131 0.960 . S
H133 N113 0.862 . S
O134 Co102 1.920 . S
O134 C107 1.289 . S
C135 O127 1.258 . S
C135 O128 1.266 . S
Co136 O139 1.970 . S
Co136 N153 1.989 . S
Co136 O161 1.967 . S
Co136 O168 1.920 . S
Co137 O140 1.966 . S
Co137 N146 2.022 . S
Co137 N154 1.993 . S
Co137 O162 1.941 . S
C138 O139 1.258 . S
C138 O140 1.263 . S
O139 Co136 1.970 . S
O139 C138 1.258 . S
O140 Co137 1.966 . S
O140 C138 1.263 . S
C141 O142 1.235 . S
C141 O168 1.289 . S
O142 C141 1.235 . S
C143 C145 1.400 . S
C143 N146 1.351 . S
C143 C148 1.501 . S
C144 C145 1.387 . S
C144 N147 1.341 . S
C145 C143 1.400 . S
C145 C144 1.387 . S
N146 Co137 2.022 . S
N146 C143 1.351 . S
N146 N147 1.365 . S
N147 C144 1.341 . S
N147 N146 1.365 . S
N147 H167 0.862 . S
C148 C143 1.501 . S
C148 H149 0.961 . S
C148 H150 0.961 . S
C148 H151 0.960 . S
H149 C148 0.961 . S
H150 C148 0.961 . S
H151 C148 0.960 . S
C152 N153 1.342 . S
C152 C156 1.401 . S
C152 C157 1.499 . S
N153 Co136 1.989 . S
N153 C152 1.342 . S
N153 N154 1.388 . S
N154 Co137 1.993 . S
N154 N153 1.388 . S
N154 C155 1.346 . S
C155 N154 1.346 . S
C155 C156 1.396 . S
C155 C165 1.510 . S
C156 C152 1.401 . S
C156 C155 1.396 . S
C157 C152 1.499 . S
C157 H158 0.959 . S
C157 H159 0.960 . S
C157 H160 0.961 . S
H158 C157 0.959 . S
H159 C157 0.960 . S
H160 C157 0.961 . S
O161 Co136 1.967 . S
O161 C169 1.258 . S
O162 Co137 1.941 . S
O162 C169 1.266 . S
H163 C165 0.959 . S
H164 C165 0.961 . S
C165 C155 1.510 . S
C165 H163 0.959 . S
C165 H164 0.961 . S
C165 H166 0.960 . S
H166 C165 0.960 . S
H167 N147 0.862 . S
O168 Co136 1.920 . S
O168 C141 1.289 . S
C169 O161 1.258 . S
C169 O162 1.266 . S
Co170 O173 1.970 . S
Co170 N187 1.989 . S
Co170 O195 1.967 . S
Co170 O202 1.920 . S
Co171 O174 1.966 . S
Co171 N180 2.022 . S
Co171 N188 1.993 . S
Co171 O196 1.941 . S
C172 O173 1.258 . S
C172 O174 1.263 . S
O173 Co170 1.970 . S
O173 C172 1.258 . S
O174 Co171 1.966 . S
O174 C172 1.263 . S
C175 O176 1.235 . S
C175 O202 1.289 . S
O176 C175 1.235 . S
C177 C179 1.400 . S
C177 N180 1.351 . S
C177 C182 1.501 . S
C178 C179 1.387 . S
C178 N181 1.341 . S
C179 C177 1.400 . S
C179 C178 1.387 . S
N180 Co171 2.022 . S
N180 C177 1.351 . S
N180 N181 1.365 . S
N181 C178 1.341 . S
N181 N180 1.365 . S
N181 H201 0.862 . S
C182 C177 1.501 . S
C182 H183 0.961 . S
C182 H184 0.961 . S
C182 H185 0.960 . S
H183 C182 0.961 . S
H184 C182 0.961 . S
H185 C182 0.960 . S
C186 N187 1.342 . S
C186 C190 1.401 . S
C186 C191 1.499 . S
N187 Co170 1.989 . S
N187 C186 1.342 . S
N187 N188 1.388 . S
N188 Co171 1.993 . S
N188 N187 1.388 . S
N188 C189 1.346 . S
C189 N188 1.346 . S
C189 C190 1.396 . S
C189 C199 1.510 . S
C190 C186 1.401 . S
C190 C189 1.396 . S
C191 C186 1.499 . S
C191 H192 0.959 . S
C191 H193 0.960 . S
C191 H194 0.961 . S
H192 C191 0.959 . S
H193 C191 0.960 . S
H194 C191 0.961 . S
O195 Co170 1.967 . S
O195 C203 1.258 . S
O196 Co171 1.941 . S
O196 C203 1.266 . S
H197 C199 0.959 . S
H198 C199 0.961 . S
C199 C189 1.510 . S
C199 H197 0.959 . S
C199 H198 0.961 . S
C199 H200 0.960 . S
H200 C199 0.960 . S
H201 N181 0.862 . S
O202 Co170 1.920 . S
O202 C175 1.289 . S
C203 O195 1.258 . S
C203 O196 1.266 . S
Co204 O207 1.970 . S
Co204 N221 1.989 . S
Co204 O229 1.967 . S
Co204 O236 1.920 . S
Co205 O208 1.966 . S
Co205 N214 2.022 . S
Co205 N222 1.993 . S
Co205 O230 1.941 . S
C206 O207 1.258 . S
C206 O208 1.263 . S
O207 Co204 1.970 . S
O207 C206 1.258 . S
O208 Co205 1.966 . S
O208 C206 1.263 . S
C209 O210 1.235 . S
C209 O236 1.289 . S
O210 C209 1.235 . S
C211 C213 1.400 . S
C211 N214 1.351 . S
C211 C216 1.501 . S
C212 C213 1.387 . S
C212 N215 1.341 . S
C213 C211 1.400 . S
C213 C212 1.387 . S
N214 Co205 2.022 . S
N214 C211 1.351 . S
N214 N215 1.365 . S
N215 C212 1.341 . S
N215 N214 1.365 . S
N215 H235 0.862 . S
C216 C211 1.501 . S
C216 H217 0.961 . S
C216 H218 0.961 . S
C216 H219 0.960 . S
H217 C216 0.961 . S
H218 C216 0.961 . S
H219 C216 0.960 . S
C220 N221 1.342 . S
C220 C224 1.401 . S
C220 C225 1.499 . S
N221 Co204 1.989 . S
N221 C220 1.342 . S
N221 N222 1.388 . S
N222 Co205 1.993 . S
N222 N221 1.388 . S
N222 C223 1.346 . S
C223 N222 1.346 . S
C223 C224 1.396 . S
C223 C233 1.510 . S
C224 C220 1.401 . S
C224 C223 1.396 . S
C225 C220 1.499 . S
C225 H226 0.959 . S
C225 H227 0.960 . S
C225 H228 0.961 . S
H226 C225 0.959 . S
H227 C225 0.960 . S
H228 C225 0.961 . S
O229 Co204 1.967 . S
O229 C237 1.258 . S
O230 Co205 1.941 . S
O230 C237 1.266 . S
H231 C233 0.959 . S
H232 C233 0.961 . S
C233 C223 1.510 . S
C233 H231 0.959 . S
C233 H232 0.961 . S
C233 H234 0.960 . S
H234 C233 0.960 . S
H235 N215 0.862 . S
O236 Co204 1.920 . S
O236 C209 1.289 . S
C237 O229 1.258 . S
C237 O230 1.266 . S
Co238 O241 1.970 . S
Co238 N255 1.989 . S
Co238 O263 1.967 . S
Co238 O270 1.920 . S
Co239 O242 1.966 . S
Co239 N248 2.022 . S
Co239 N256 1.993 . S
Co239 O264 1.941 . S
C240 O241 1.258 . S
C240 O242 1.263 . S
O241 Co238 1.970 . S
O241 C240 1.258 . S
O242 Co239 1.966 . S
O242 C240 1.263 . S
C243 O244 1.235 . S
C243 O270 1.289 . S
O244 C243 1.235 . S
C245 C247 1.400 . S
C245 N248 1.351 . S
C245 C250 1.501 . S
C246 C247 1.387 . S
C246 N249 1.341 . S
C247 C245 1.400 . S
C247 C246 1.387 . S
N248 Co239 2.022 . S
N248 C245 1.351 . S
N248 N249 1.365 . S
N249 C246 1.341 . S
N249 N248 1.365 . S
N249 H269 0.862 . S
C250 C245 1.501 . S
C250 H251 0.961 . S
C250 H252 0.961 . S
C250 H253 0.960 . S
H251 C250 0.961 . S
H252 C250 0.961 . S
H253 C250 0.960 . S
C254 N255 1.342 . S
C254 C258 1.401 . S
C254 C259 1.499 . S
N255 Co238 1.989 . S
N255 C254 1.342 . S
N255 N256 1.388 . S
N256 Co239 1.993 . S
N256 N255 1.388 . S
N256 C257 1.346 . S
C257 N256 1.346 . S
C257 C258 1.396 . S
C257 C267 1.510 . S
C258 C254 1.401 . S
C258 C257 1.396 . S
C259 C254 1.499 . S
C259 H260 0.959 . S
C259 H261 0.960 . S
C259 H262 0.961 . S
H260 C259 0.959 . S
H261 C259 0.960 . S
H262 C259 0.961 . S
O263 Co238 1.967 . S
O263 C271 1.258 . S
O264 Co239 1.941 . S
O264 C271 1.266 . S
H265 C267 0.959 . S
H266 C267 0.961 . S
C267 C257 1.510 . S
C267 H265 0.959 . S
C267 H266 0.961 . S
C267 H268 0.960 . S
H268 C267 0.960 . S
H269 N249 0.862 . S
O270 Co238 1.920 . S
O270 C243 1.289 . S
C271 O263 1.258 . S
C271 O264 1.266 . S
Co272 O275 1.970 . S
Co272 N289 1.989 . S
Co272 O297 1.967 . S
Co272 O304 1.920 . S
Co273 O276 1.966 . S
Co273 N282 2.022 . S
Co273 N290 1.993 . S
Co273 O298 1.941 . S
C274 O275 1.258 . S
C274 O276 1.263 . S
O275 Co272 1.970 . S
O275 C274 1.258 . S
O276 Co273 1.966 . S
O276 C274 1.263 . S
C277 O278 1.235 . S
C277 O304 1.289 . S
O278 C277 1.235 . S
C279 C281 1.400 . S
C279 N282 1.351 . S
C279 C284 1.501 . S
C280 C281 1.387 . S
C280 N283 1.341 . S
C281 C279 1.400 . S
C281 C280 1.387 . S
N282 Co273 2.022 . S
N282 C279 1.351 . S
N282 N283 1.365 . S
N283 C280 1.341 . S
N283 N282 1.365 . S
N283 H303 0.862 . S
C284 C279 1.501 . S
C284 H285 0.961 . S
C284 H286 0.961 . S
C284 H287 0.960 . S
H285 C284 0.961 . S
H286 C284 0.961 . S
H287 C284 0.960 . S
C288 N289 1.342 . S
C288 C292 1.401 . S
C288 C293 1.499 . S
N289 Co272 1.989 . S
N289 C288 1.342 . S
N289 N290 1.388 . S
N290 Co273 1.993 . S
N290 N289 1.388 . S
N290 C291 1.346 . S
C291 N290 1.346 . S
C291 C292 1.396 . S
C291 C301 1.510 . S
C292 C288 1.401 . S
C292 C291 1.396 . S
C293 C288 1.499 . S
C293 H294 0.959 . S
C293 H295 0.960 . S
C293 H296 0.961 . S
H294 C293 0.959 . S
H295 C293 0.960 . S
H296 C293 0.961 . S
O297 Co272 1.967 . S
O297 C305 1.258 . S
O298 Co273 1.941 . S
O298 C305 1.266 . S
H299 C301 0.959 . S
H300 C301 0.961 . S
C301 C291 1.510 . S
C301 H299 0.959 . S
C301 H300 0.961 . S
C301 H302 0.960 . S
H302 C301 0.960 . S
H303 N283 0.862 . S
O304 Co272 1.920 . S
O304 C277 1.289 . S
C305 O297 1.258 . S
C305 O298 1.266 . S
Co306 O309 1.970 . S
Co306 N323 1.989 1_556 S
Co306 O331 1.967 . S
Co306 O338 1.920 . S
Co307 O310 1.966 . S
Co307 N316 2.022 . S
Co307 N324 1.993 . S
Co307 O332 1.941 . S
C308 O309 1.258 . S
C308 O310 1.263 1_556 S
O309 Co306 1.970 . S
O309 C308 1.258 . S
O310 Co307 1.966 . S
O310 C308 1.263 1_554 S
C311 O312 1.235 . S
C311 O338 1.289 . S
O312 C311 1.235 . S
C313 C315 1.400 . S
C313 N316 1.351 . S
C313 C318 1.501 . S
C314 C315 1.387 . S
C314 N317 1.341 . S
C315 C313 1.400 . S
C315 C314 1.387 . S
N316 Co307 2.022 . S
N316 C313 1.351 . S
N316 N317 1.365 . S
N317 C314 1.341 . S
N317 N316 1.365 . S
N317 H337 0.862 . S
C318 C313 1.501 . S
C318 H319 0.961 . S
C318 H320 0.961 . S
C318 H321 0.960 . S
H319 C318 0.961 . S
H320 C318 0.961 . S
H321 C318 0.960 . S
C322 N323 1.342 . S
C322 C326 1.401 . S
C322 C327 1.499 . S
N323 Co306 1.989 1_554 S
N323 C322 1.342 . S
N323 N324 1.388 . S
N324 Co307 1.993 . S
N324 N323 1.388 . S
N324 C325 1.346 . S
C325 N324 1.346 . S
C325 C326 1.396 . S
C325 C335 1.510 . S
C326 C322 1.401 . S
C326 C325 1.396 . S
C327 C322 1.499 . S
C327 H328 0.959 . S
C327 H329 0.960 . S
C327 H330 0.961 . S
H328 C327 0.959 . S
H329 C327 0.960 . S
H330 C327 0.961 . S
O331 Co306 1.967 . S
O331 C339 1.258 1_556 S
O332 Co307 1.941 . S
O332 C339 1.266 . S
H333 C335 0.959 . S
H334 C335 0.961 . S
C335 C325 1.510 . S
C335 H333 0.959 . S
C335 H334 0.961 . S
C335 H336 0.960 . S
H336 C335 0.960 . S
H337 N317 0.862 . S
O338 Co306 1.920 . S
O338 C311 1.289 . S
C339 O331 1.258 1_554 S
C339 O332 1.266 . S
Co340 O343 1.970 . S
Co340 N357 1.989 1_556 S
Co340 O365 1.967 . S
Co340 O372 1.920 . S
Co341 O344 1.966 . S
Co341 N350 2.022 . S
Co341 N358 1.993 . S
Co341 O366 1.941 . S
C342 O343 1.258 . S
C342 O344 1.263 1_556 S
O343 Co340 1.970 . S
O343 C342 1.258 . S
O344 Co341 1.966 . S
O344 C342 1.263 1_554 S
C345 O346 1.235 . S
C345 O372 1.289 . S
O346 C345 1.235 . S
C347 C349 1.400 . S
C347 N350 1.351 . S
C347 C352 1.501 . S
C348 C349 1.387 . S
C348 N351 1.341 . S
C349 C347 1.400 . S
C349 C348 1.387 . S
N350 Co341 2.022 . S
N350 C347 1.351 . S
N350 N351 1.365 . S
N351 C348 1.341 . S
N351 N350 1.365 . S
N351 H371 0.862 . S
C352 C347 1.501 . S
C352 H353 0.961 . S
C352 H354 0.961 . S
C352 H355 0.960 . S
H353 C352 0.961 . S
H354 C352 0.961 . S
H355 C352 0.960 . S
C356 N357 1.342 . S
C356 C360 1.401 . S
C356 C361 1.499 . S
N357 Co340 1.989 1_554 S
N357 C356 1.342 . S
N357 N358 1.388 . S
N358 Co341 1.993 . S
N358 N357 1.388 . S
N358 C359 1.346 . S
C359 N358 1.346 . S
C359 C360 1.396 . S
C359 C369 1.510 . S
C360 C356 1.401 . S
C360 C359 1.396 . S
C361 C356 1.499 . S
C361 H362 0.959 . S
C361 H363 0.960 . S
C361 H364 0.961 . S
H362 C361 0.959 . S
H363 C361 0.960 . S
H364 C361 0.961 . S
O365 Co340 1.967 . S
O365 C373 1.258 1_556 S
O366 Co341 1.941 . S
O366 C373 1.266 . S
H367 C369 0.959 . S
H368 C369 0.961 . S
C369 C359 1.510 . S
C369 H367 0.959 . S
C369 H368 0.961 . S
C369 H370 0.960 . S
H370 C369 0.960 . S
H371 N351 0.862 . S
O372 Co340 1.920 . S
O372 C345 1.289 . S
C373 O365 1.258 1_554 S
C373 O366 1.266 . S
Co374 O377 1.970 . S
Co374 N391 1.989 1_556 S
Co374 O399 1.967 . S
Co374 O406 1.920 . S
Co375 O378 1.966 . S
Co375 N384 2.022 . S
Co375 N392 1.993 . S
Co375 O400 1.941 . S
C376 O377 1.258 . S
C376 O378 1.263 1_556 S
O377 Co374 1.970 . S
O377 C376 1.258 . S
O378 Co375 1.966 . S
O378 C376 1.263 1_554 S
C379 O380 1.235 . S
C379 O406 1.289 . S
O380 C379 1.235 . S
C381 C383 1.400 . S
C381 N384 1.351 . S
C381 C386 1.501 . S
C382 C383 1.387 . S
C382 N385 1.341 . S
C383 C381 1.400 . S
C383 C382 1.387 . S
N384 Co375 2.022 . S
N384 C381 1.351 . S
N384 N385 1.365 . S
N385 C382 1.341 . S
N385 N384 1.365 . S
N385 H405 0.862 . S
C386 C381 1.501 . S
C386 H387 0.961 . S
C386 H388 0.961 . S
C386 H389 0.960 . S
H387 C386 0.961 . S
H388 C386 0.961 . S
H389 C386 0.960 . S
C390 N391 1.342 . S
C390 C394 1.401 . S
C390 C395 1.499 . S
N391 Co374 1.989 1_554 S
N391 C390 1.342 . S
N391 N392 1.388 . S
N392 Co375 1.993 . S
N392 N391 1.388 . S
N392 C393 1.346 . S
C393 N392 1.346 . S
C393 C394 1.396 . S
C393 C403 1.510 . S
C394 C390 1.401 . S
C394 C393 1.396 . S
C395 C390 1.499 . S
C395 H396 0.959 . S
C395 H397 0.960 . S
C395 H398 0.961 . S
H396 C395 0.959 . S
H397 C395 0.960 . S
H398 C395 0.961 . S
O399 Co374 1.967 . S
O399 C407 1.258 1_556 S
O400 Co375 1.941 . S
O400 C407 1.266 . S
H401 C403 0.959 . S
H402 C403 0.961 . S
C403 C393 1.510 . S
C403 H401 0.959 . S
C403 H402 0.961 . S
C403 H404 0.960 . S
H404 C403 0.960 . S
H405 N385 0.862 . S
O406 Co374 1.920 . S
O406 C379 1.289 . S
C407 O399 1.258 1_554 S
C407 O400 1.266 . S
Co408 O411 1.970 . S
Co408 N425 1.989 1_554 S
Co408 O433 1.967 . S
Co408 O440 1.920 . S
Co409 O412 1.966 . S
Co409 N418 2.022 . S
Co409 N426 1.993 . S
Co409 O434 1.941 . S
C410 O411 1.258 . S
C410 O412 1.263 1_554 S
O411 Co408 1.970 . S
O411 C410 1.258 . S
O412 Co409 1.966 . S
O412 C410 1.263 1_556 S
C413 O414 1.235 . S
C413 O440 1.289 . S
O414 C413 1.235 . S
C415 C417 1.400 . S
C415 N418 1.351 . S
C415 C420 1.501 . S
C416 C417 1.387 . S
C416 N419 1.341 . S
C417 C415 1.400 . S
C417 C416 1.387 . S
N418 Co409 2.022 . S
N418 C415 1.351 . S
N418 N419 1.365 . S
N419 C416 1.341 . S
N419 N418 1.365 . S
N419 H439 0.862 . S
C420 C415 1.501 . S
C420 H421 0.961 . S
C420 H422 0.961 . S
C420 H423 0.960 . S
H421 C420 0.961 . S
H422 C420 0.961 . S
H423 C420 0.960 . S
C424 N425 1.342 . S
C424 C428 1.401 . S
C424 C429 1.499 . S
N425 Co408 1.989 1_556 S
N425 C424 1.342 . S
N425 N426 1.388 . S
N426 Co409 1.993 . S
N426 N425 1.388 . S
N426 C427 1.346 . S
C427 N426 1.346 . S
C427 C428 1.396 . S
C427 C437 1.510 . S
C428 C424 1.401 . S
C428 C427 1.396 . S
C429 C424 1.499 . S
C429 H430 0.959 . S
C429 H431 0.960 . S
C429 H432 0.961 . S
H430 C429 0.959 . S
H431 C429 0.960 . S
H432 C429 0.961 . S
O433 Co408 1.967 . S
O433 C441 1.258 1_554 S
O434 Co409 1.941 . S
O434 C441 1.266 . S
H435 C437 0.959 . S
H436 C437 0.961 . S
C437 C427 1.510 . S
C437 H435 0.959 . S
C437 H436 0.961 . S
C437 H438 0.960 . S
H438 C437 0.960 . S
H439 N419 0.862 . S
O440 Co408 1.920 . S
O440 C413 1.289 . S
C441 O433 1.258 1_556 S
C441 O434 1.266 . S
Co442 O445 1.970 . S
Co442 N459 1.989 1_554 S
Co442 O467 1.967 . S
Co442 O474 1.920 . S
Co443 O446 1.966 . S
Co443 N452 2.022 . S
Co443 N460 1.993 . S
Co443 O468 1.941 . S
C444 O445 1.258 . S
C444 O446 1.263 1_554 S
O445 Co442 1.970 . S
O445 C444 1.258 . S
O446 Co443 1.966 . S
O446 C444 1.263 1_556 S
C447 O448 1.235 . S
C447 O474 1.289 . S
O448 C447 1.235 . S
C449 C451 1.400 . S
C449 N452 1.351 . S
C449 C454 1.501 . S
C450 C451 1.387 . S
C450 N453 1.341 . S
C451 C449 1.400 . S
C451 C450 1.387 . S
N452 Co443 2.022 . S
N452 C449 1.351 . S
N452 N453 1.365 . S
N453 C450 1.341 . S
N453 N452 1.365 . S
N453 H473 0.862 . S
C454 C449 1.501 . S
C454 H455 0.961 . S
C454 H456 0.961 . S
C454 H457 0.960 . S
H455 C454 0.961 . S
H456 C454 0.961 . S
H457 C454 0.960 . S
C458 N459 1.342 . S
C458 C462 1.401 . S
C458 C463 1.499 . S
N459 Co442 1.989 1_556 S
N459 C458 1.342 . S
N459 N460 1.388 . S
N460 Co443 1.993 . S
N460 N459 1.388 . S
N460 C461 1.346 . S
C461 N460 1.346 . S
C461 C462 1.396 . S
C461 C471 1.510 . S
C462 C458 1.401 . S
C462 C461 1.396 . S
C463 C458 1.499 . S
C463 H464 0.959 . S
C463 H465 0.960 . S
C463 H466 0.961 . S
H464 C463 0.959 . S
H465 C463 0.960 . S
H466 C463 0.961 . S
O467 Co442 1.967 . S
O467 C475 1.258 1_554 S
O468 Co443 1.941 . S
O468 C475 1.266 . S
H469 C471 0.959 . S
H470 C471 0.961 . S
C471 C461 1.510 . S
C471 H469 0.959 . S
C471 H470 0.961 . S
C471 H472 0.960 . S
H472 C471 0.960 . S
H473 N453 0.862 . S
O474 Co442 1.920 . S
O474 C447 1.289 . S
C475 O467 1.258 1_556 S
C475 O468 1.266 . S
Co476 O479 1.970 . S
Co476 N493 1.989 1_554 S
Co476 O501 1.967 . S
Co476 O508 1.920 . S
Co477 O480 1.966 . S
Co477 N486 2.022 . S
Co477 N494 1.993 . S
Co477 O502 1.941 . S
C478 O479 1.258 . S
C478 O480 1.263 1_554 S
O479 Co476 1.970 . S
O479 C478 1.258 . S
O480 Co477 1.966 . S
O480 C478 1.263 1_556 S
C481 O482 1.235 . S
C481 O508 1.289 . S
O482 C481 1.235 . S
C483 C485 1.400 . S
C483 N486 1.351 . S
C483 C488 1.501 . S
C484 C485 1.387 . S
C484 N487 1.341 . S
C485 C483 1.400 . S
C485 C484 1.387 . S
N486 Co477 2.022 . S
N486 C483 1.351 . S
N486 N487 1.365 . S
N487 C484 1.341 . S
N487 N486 1.365 . S
N487 H507 0.862 . S
C488 C483 1.501 . S
C488 H489 0.961 . S
C488 H490 0.961 . S
C488 H491 0.960 . S
H489 C488 0.961 . S
H490 C488 0.961 . S
H491 C488 0.960 . S
C492 N493 1.342 . S
C492 C496 1.401 . S
C492 C497 1.499 . S
N493 Co476 1.989 1_556 S
N493 C492 1.342 . S
N493 N494 1.388 . S
N494 Co477 1.993 . S
N494 N493 1.388 . S
N494 C495 1.346 . S
C495 N494 1.346 . S
C495 C496 1.396 . S
C495 C505 1.510 . S
C496 C492 1.401 . S
C496 C495 1.396 . S
C497 C492 1.499 . S
C497 H498 0.959 . S
C497 H499 0.960 . S
C497 H500 0.961 . S
H498 C497 0.959 . S
H499 C497 0.960 . S
H500 C497 0.961 . S
O501 Co476 1.967 . S
O501 C509 1.258 1_554 S
O502 Co477 1.941 . S
O502 C509 1.266 . S
H503 C505 0.959 . S
H504 C505 0.961 . S
C505 C495 1.510 . S
C505 H503 0.959 . S
C505 H504 0.961 . S
C505 H506 0.960 . S
H506 C505 0.960 . S
H507 N487 0.862 . S
O508 Co476 1.920 . S
O508 C481 1.289 . S
C509 O501 1.258 1_556 S
C509 O502 1.266 . S
Co510 O513 1.970 . S
Co510 N527 1.989 . S
Co510 O535 1.967 . S
Co510 O542 1.920 . S
Co511 O514 1.966 . S
Co511 N520 2.022 . S
Co511 N528 1.993 . S
Co511 O536 1.941 . S
C512 O513 1.258 . S
C512 O514 1.263 . S
O513 Co510 1.970 . S
O513 C512 1.258 . S
O514 Co511 1.966 . S
O514 C512 1.263 . S
C515 O516 1.235 . S
C515 O542 1.289 . S
O516 C515 1.235 . S
C517 C519 1.400 . S
C517 N520 1.351 . S
C517 C522 1.501 . S
C518 C519 1.387 . S
C518 N521 1.341 . S
C519 C517 1.400 . S
C519 C518 1.387 . S
N520 Co511 2.022 . S
N520 C517 1.351 . S
N520 N521 1.365 . S
N521 C518 1.341 . S
N521 N520 1.365 . S
N521 H541 0.862 . S
C522 C517 1.501 . S
C522 H523 0.961 . S
C522 H524 0.961 . S
C522 H525 0.960 . S
H523 C522 0.961 . S
H524 C522 0.961 . S
H525 C522 0.960 . S
C526 N527 1.342 . S
C526 C530 1.401 . S
C526 C531 1.499 . S
N527 Co510 1.989 . S
N527 C526 1.342 . S
N527 N528 1.388 . S
N528 Co511 1.993 . S
N528 N527 1.388 . S
N528 C529 1.346 . S
C529 N528 1.346 . S
C529 C530 1.396 . S
C529 C539 1.510 . S
C530 C526 1.401 . S
C530 C529 1.396 . S
C531 C526 1.499 . S
C531 H532 0.959 . S
C531 H533 0.960 . S
C531 H534 0.961 . S
H532 C531 0.959 . S
H533 C531 0.960 . S
H534 C531 0.961 . S
O535 Co510 1.967 . S
O535 C543 1.258 . S
O536 Co511 1.941 . S
O536 C543 1.266 . S
H537 C539 0.959 . S
H538 C539 0.961 . S
C539 C529 1.510 . S
C539 H537 0.959 . S
C539 H538 0.961 . S
C539 H540 0.960 . S
H540 C539 0.960 . S
H541 N521 0.862 . S
O542 Co510 1.920 . S
O542 C515 1.289 . S
C543 O535 1.258 . S
C543 O536 1.266 . S
Co544 O547 1.970 . S
Co544 N561 1.989 . S
Co544 O569 1.967 . S
Co544 O576 1.920 . S
Co545 O548 1.966 . S
Co545 N554 2.022 . S
Co545 N562 1.993 . S
Co545 O570 1.941 . S
C546 O547 1.258 . S
C546 O548 1.263 . S
O547 Co544 1.970 . S
O547 C546 1.258 . S
O548 Co545 1.966 . S
O548 C546 1.263 . S
C549 O550 1.235 . S
C549 O576 1.289 . S
O550 C549 1.235 . S
C551 C553 1.400 . S
C551 N554 1.351 . S
C551 C556 1.501 . S
C552 C553 1.387 . S
C552 N555 1.341 . S
C553 C551 1.400 . S
C553 C552 1.387 . S
N554 Co545 2.022 . S
N554 C551 1.351 . S
N554 N555 1.365 . S
N555 C552 1.341 . S
N555 N554 1.365 . S
N555 H575 0.862 . S
C556 C551 1.501 . S
C556 H557 0.961 . S
C556 H558 0.961 . S
C556 H559 0.960 . S
H557 C556 0.961 . S
H558 C556 0.961 . S
H559 C556 0.960 . S
C560 N561 1.342 . S
C560 C564 1.401 . S
C560 C565 1.499 . S
N561 Co544 1.989 . S
N561 C560 1.342 . S
N561 N562 1.388 . S
N562 Co545 1.993 . S
N562 N561 1.388 . S
N562 C563 1.346 . S
C563 N562 1.346 . S
C563 C564 1.396 . S
C563 C573 1.510 . S
C564 C560 1.401 . S
C564 C563 1.396 . S
C565 C560 1.499 . S
C565 H566 0.959 . S
C565 H567 0.960 . S
C565 H568 0.961 . S
H566 C565 0.959 . S
H567 C565 0.960 . S
H568 C565 0.961 . S
O569 Co544 1.967 . S
O569 C577 1.258 . S
O570 Co545 1.941 . S
O570 C577 1.266 . S
H571 C573 0.959 . S
H572 C573 0.961 . S
C573 C563 1.510 . S
C573 H571 0.959 . S
C573 H572 0.961 . S
C573 H574 0.960 . S
H574 C573 0.960 . S
H575 N555 0.862 . S
O576 Co544 1.920 . S
O576 C549 1.289 . S
C577 O569 1.258 . S
C577 O570 1.266 . S
Co578 O581 1.970 . S
Co578 N595 1.989 . S
Co578 O603 1.967 . S
Co578 O610 1.920 . S
Co579 O582 1.966 . S
Co579 N588 2.022 . S
Co579 N596 1.993 . S
Co579 O604 1.941 . S
C580 O581 1.258 . S
C580 O582 1.263 . S
O581 Co578 1.970 . S
O581 C580 1.258 . S
O582 Co579 1.966 . S
O582 C580 1.263 . S
C583 O584 1.235 . S
C583 O610 1.289 . S
O584 C583 1.235 . S
C585 C587 1.400 . S
C585 N588 1.351 . S
C585 C590 1.501 . S
C586 C587 1.387 . S
C586 N589 1.341 . S
C587 C585 1.400 . S
C587 C586 1.387 . S
N588 Co579 2.022 . S
N588 C585 1.351 . S
N588 N589 1.365 . S
N589 C586 1.341 . S
N589 N588 1.365 . S
N589 H609 0.862 . S
C590 C585 1.501 . S
C590 H591 0.961 . S
C590 H592 0.961 . S
C590 H593 0.960 . S
H591 C590 0.961 . S
H592 C590 0.961 . S
H593 C590 0.960 . S
C594 N595 1.342 . S
C594 C598 1.401 . S
C594 C599 1.499 . S
N595 Co578 1.989 . S
N595 C594 1.342 . S
N595 N596 1.388 . S
N596 Co579 1.993 . S
N596 N595 1.388 . S
N596 C597 1.346 . S
C597 N596 1.346 . S
C597 C598 1.396 . S
C597 C607 1.510 . S
C598 C594 1.401 . S
C598 C597 1.396 . S
C599 C594 1.499 . S
C599 H600 0.959 . S
C599 H601 0.960 . S
C599 H602 0.961 . S
H600 C599 0.959 . S
H601 C599 0.960 . S
H602 C599 0.961 . S
O603 Co578 1.967 . S
O603 C611 1.258 . S
O604 Co579 1.941 . S
O604 C611 1.266 . S
H605 C607 0.959 . S
H606 C607 0.961 . S
C607 C597 1.510 . S
C607 H605 0.959 . S
C607 H606 0.961 . S
C607 H608 0.960 . S
H608 C607 0.960 . S
H609 N589 0.862 . S
O610 Co578 1.920 . S
O610 C583 1.289 . S
C611 O603 1.258 . S
C611 O604 1.266 . S
C612 C613 1.369 1_554 S
C612 C614 1.419 . S
C612 H616 0.930 . S
C613 C612 1.369 1_556 S
C613 C622 1.429 . S
C614 C612 1.419 . S
C614 C615 1.363 . S
C614 H617 0.929 . S
C615 C614 1.363 . S
C615 C621 1.428 1_554 S
H616 C612 0.930 . S
H617 C614 0.929 . S
S618 N619 1.613 . S
S618 N620 1.610 . S
N619 S618 1.613 . S
N619 C622 1.350 . S
N620 S618 1.610 . S
N620 C621 1.351 . S
C621 C615 1.428 1_556 S
C621 N620 1.351 . S
C621 C622 1.434 . S
C622 C613 1.429 . S
C622 N619 1.350 . S
C622 C621 1.434 . S
C623 C624 1.369 1_565 S
C623 C625 1.419 . S
C623 H627 0.930 . S
C624 C623 1.369 1_545 S
C624 C633 1.429 1_556 S
C625 C623 1.419 . S
C625 C626 1.363 1_556 S
C625 H628 0.929 . S
C626 C625 1.363 1_554 S
C626 C632 1.428 1_565 S
H627 C623 0.930 . S
H628 C625 0.929 . S
S629 N630 1.613 . S
S629 N631 1.610 . S
N630 S629 1.613 . S
N630 C633 1.350 . S
N631 S629 1.610 . S
N631 C632 1.351 . S
C632 C626 1.428 1_545 S
C632 N631 1.351 . S
C632 C633 1.434 . S
C633 C624 1.429 1_554 S
C633 N630 1.350 . S
C633 C632 1.434 . S
C634 C635 1.369 . S
C634 C636 1.419 1_454 S
C634 H638 0.930 . S
C635 C634 1.369 . S
C635 C644 1.429 . S
C636 C634 1.419 1_656 S
C636 C637 1.363 . S
C636 H639 0.929 . S
C637 C636 1.363 . S
C637 C643 1.428 . S
H638 C634 0.930 . S
H639 C636 0.929 . S
S640 N641 1.613 1_655 S
S640 N642 1.610 1_554 S
N641 S640 1.613 1_455 S
N641 C644 1.350 . S
N642 S640 1.610 1_556 S
N642 C643 1.351 . S
C643 C637 1.428 . S
C643 N642 1.351 . S
C643 C644 1.434 1_656 S
C644 C635 1.429 . S
C644 N641 1.350 . S
C644 C643 1.434 1_454 S
C645 C646 1.369 . S
C645 C647 1.419 1_554 S
C645 H649 0.930 . S
C646 C645 1.369 . S
C646 C655 1.429 . S
C647 C645 1.419 1_556 S
C647 C648 1.363 . S
C647 H650 0.929 . S
C648 C647 1.363 . S
C648 C654 1.428 . S
H649 C645 0.930 . S
H650 C647 0.929 . S
S651 N652 1.614 . S
S651 N653 1.609 1_554 S
N652 S651 1.614 . S
N652 C655 1.350 . S
N653 S651 1.609 1_556 S
N653 C654 1.351 . S
C654 C648 1.428 . S
C654 N653 1.351 . S
C654 C655 1.434 1_556 S
C655 C646 1.429 . S
C655 N652 1.350 . S
C655 C654 1.434 1_554 S
C656 C657 1.369 1_554 S
C656 C658 1.419 1_545 S
C656 H660 0.930 . S
C657 C656 1.369 1_556 S
C657 C666 1.429 1_545 S
C658 C656 1.419 1_565 S
C658 C659 1.363 . S
C658 H661 0.929 . S
C659 C658 1.363 . S
C659 C665 1.428 1_554 S
H660 C656 0.930 . S
H661 C658 0.929 . S
S662 N663 1.613 . S
S662 N664 1.610 . S
N663 S662 1.613 . S
N663 C666 1.350 . S
N664 S662 1.610 . S
N664 C665 1.351 . S
C665 C659 1.428 1_556 S
C665 N664 1.351 . S
C665 C666 1.434 . S
C666 C657 1.429 1_565 S
C666 N663 1.350 . S
C666 C665 1.434 . S
C667 C668 1.369 . S
C667 C669 1.419 1_656 S
C667 H671 0.930 . S
C668 C667 1.369 . S
C668 C677 1.429 . S
C669 C667 1.419 1_454 S
C669 C670 1.363 . S
C669 H672 0.929 . S
C670 C669 1.363 . S
C670 C676 1.438 . S
H671 C667 0.930 . S
H672 C669 0.929 . S
S673 N674 1.613 1_455 S
S673 N675 1.610 . S
N674 S673 1.613 1_655 S
N674 C677 1.350 . S
N675 S673 1.610 . S
N675 C676 1.350 1_556 S
C676 C670 1.438 . S
C676 N675 1.350 1_554 S
C676 C677 1.424 1_454 S
C677 C668 1.429 . S
C677 N674 1.350 . S
C677 C676 1.424 1_656 S
C678 C679 1.369 . S
C678 C680 1.419 . S
C678 H682 0.930 . S
C679 C678 1.369 . S
C679 C688 1.429 . S
C680 C678 1.419 . S
C680 C681 1.363 . S
C680 H683 0.929 . S
C681 C680 1.363 . S
C681 C687 1.428 . S
H682 C678 0.930 . S
H683 C680 0.929 . S
S684 N685 1.613 . S
S684 N686 1.610 . S
N685 S684 1.613 . S
N685 C688 1.350 . S
N686 S684 1.610 . S
N686 C687 1.351 . S
C687 C681 1.428 . S
C687 N686 1.351 . S
C687 C688 1.434 . S
C688 C679 1.429 . S
C688 N685 1.350 . S
C688 C687 1.434 . S
C689 C690 1.369 . S
C689 C691 1.419 . S
C689 H693 0.930 . S
C690 C689 1.369 . S
C690 C699 1.429 . S
C691 C689 1.419 . S
C691 C692 1.363 . S
C691 H694 0.929 . S
C692 C691 1.363 . S
C692 C698 1.428 . S
H693 C689 0.930 . S
H694 C691 0.929 . S
S695 N696 1.613 . S
S695 N697 1.610 . S
N696 S695 1.613 . S
N696 C699 1.350 . S
N697 S695 1.610 . S
N697 C698 1.351 . S
C698 C692 1.428 . S
C698 N697 1.351 . S
C698 C699 1.434 . S
C699 C690 1.429 . S
C699 N696 1.350 . S
C699 C698 1.434 . S
C700 C701 1.369 . S
C700 C702 1.419 . S
C700 H704 0.930 . S
C701 C700 1.369 . S
C701 C710 1.429 . S
C702 C700 1.419 . S
C702 C703 1.363 . S
C702 H705 0.929 . S
C703 C702 1.363 . S
C703 C709 1.428 . S
H704 C700 0.930 . S
H705 C702 0.929 . S
S706 N707 1.613 . S
S706 N708 1.610 . S
N707 S706 1.613 . S
N707 C710 1.350 . S
N708 S706 1.610 . S
N708 C709 1.351 . S
C709 C703 1.428 . S
C709 N708 1.351 . S
C709 C710 1.434 . S
C710 C701 1.429 . S
C710 N707 1.350 . S
C710 C709 1.434 . S
C711 C712 1.369 . S
C711 C713 1.419 . S
C711 H715 0.930 . S
C712 C711 1.369 . S
C712 C721 1.429 . S
C713 C711 1.419 . S
C713 C714 1.363 . S
C713 H716 0.929 . S
C714 C713 1.363 . S
C714 C720 1.428 . S
H715 C711 0.930 . S
H716 C713 0.929 . S
S717 N718 1.613 . S
S717 N719 1.610 . S
N718 S717 1.613 . S
N718 C721 1.350 . S
N719 S717 1.610 . S
N719 C720 1.351 . S
C720 C714 1.428 . S
C720 N719 1.351 . S
C720 C721 1.434 . S
C721 C712 1.429 . S
C721 N718 1.350 . S
C721 C720 1.434 . S
C722 C723 1.369 . S
C722 C724 1.419 . S
C722 H726 0.930 . S
C723 C722 1.369 . S
C723 C732 1.429 . S
C724 C722 1.419 . S
C724 C725 1.363 . S
C724 H727 0.929 . S
C725 C724 1.363 . S
C725 C731 1.428 . S
H726 C722 0.930 . S
H727 C724 0.929 . S
S728 N729 1.613 . S
S728 N730 1.610 . S
N729 S728 1.613 . S
N729 C732 1.350 . S
N730 S728 1.610 . S
N730 C731 1.351 . S
C731 C725 1.428 . S
C731 N730 1.351 . S
C731 C732 1.434 . S
C732 C723 1.429 . S
C732 N729 1.350 . S
C732 C731 1.434 . S
C733 C734 1.369 . S
C733 C735 1.419 . S
C733 H737 0.930 . S
C734 C733 1.369 . S
C734 C743 1.429 . S
C735 C733 1.419 . S
C735 C736 1.363 . S
C735 H738 0.929 . S
C736 C735 1.363 . S
C736 C742 1.428 . S
H737 C733 0.930 . S
H738 C735 0.929 . S
S739 N740 1.613 . S
S739 N741 1.610 . S
N740 S739 1.613 . S
N740 C743 1.350 . S
N741 S739 1.610 . S
N741 C742 1.351 . S
C742 C736 1.428 . S
C742 N741 1.351 . S
C742 C743 1.434 . S
C743 C734 1.429 . S
C743 N740 1.350 . S
C743 C742 1.434 . S
C744 C745 1.369 . S
C744 C746 1.419 . S
C744 H748 0.930 . S
C745 C744 1.369 . S
C745 C754 1.429 . S
C746 C744 1.419 . S
C746 C747 1.363 . S
C746 H749 0.929 . S
C747 C746 1.363 . S
C747 C753 1.428 . S
H748 C744 0.930 . S
H749 C746 0.929 . S
S750 N751 1.613 . S
S750 N752 1.610 . S
N751 S750 1.613 . S
N751 C754 1.350 . S
N752 S750 1.610 . S
N752 C753 1.351 . S
C753 C747 1.428 . S
C753 N752 1.351 . S
C753 C754 1.434 . S
C754 C745 1.429 . S
C754 N751 1.350 . S
C754 C753 1.434 . S
C755 C756 1.369 . S
C755 C757 1.419 . S
C755 H759 0.930 . S
C756 C755 1.369 . S
C756 C765 1.429 . S
C757 C755 1.419 . S
C757 C758 1.363 . S
C757 H760 0.929 . S
C758 C757 1.363 . S
C758 C764 1.428 . S
H759 C755 0.930 . S
H760 C757 0.929 . S
S761 N762 1.613 . S
S761 N763 1.610 . S
N762 S761 1.613 . S
N762 C765 1.350 . S
N763 S761 1.610 . S
N763 C764 1.351 . S
C764 C758 1.428 . S
C764 N763 1.351 . S
C764 C765 1.434 . S
C765 C756 1.429 . S
C765 N762 1.350 . S
C765 C764 1.434 . S
C766 C767 1.369 . S
C766 C768 1.419 . S
C766 H770 0.930 . S
C767 C766 1.369 . S
C767 C776 1.429 . S
C768 C766 1.419 . S
C768 C769 1.363 . S
C768 H771 0.929 . S
C769 C768 1.363 . S
C769 C775 1.428 . S
H770 C766 0.930 . S
H771 C768 0.929 . S
S772 N773 1.613 . S
S772 N774 1.610 . S
N773 S772 1.613 . S
N773 C776 1.350 . S
N774 S772 1.610 . S
N774 C775 1.351 . S
C775 C769 1.428 . S
C775 N774 1.351 . S
C775 C776 1.434 . S
C776 C767 1.429 . S
C776 N773 1.350 . S
C776 C775 1.434 . S
C777 C778 1.369 . S
C777 C779 1.419 . S
C777 H781 0.930 . S
C778 C777 1.369 . S
C778 C787 1.429 . S
C779 C777 1.419 . S
C779 C780 1.363 . S
C779 H782 0.929 . S
C780 C779 1.363 . S
C780 C786 1.428 . S
H781 C777 0.930 . S
H782 C779 0.929 . S
S783 N784 1.613 . S
S783 N785 1.610 . S
N784 S783 1.613 . S
N784 C787 1.350 . S
N785 S783 1.610 . S
N785 C786 1.351 . S
C786 C780 1.428 . S
C786 N785 1.351 . S
C786 C787 1.434 . S
C787 C778 1.429 . S
C787 N784 1.350 . S
C787 C786 1.434 . S
C788 C789 1.369 . S
C788 C790 1.419 . S
C788 H792 0.930 . S
C789 C788 1.369 . S
C789 C798 1.429 . S
C790 C788 1.419 . S
C790 C791 1.363 . S
C790 H793 0.929 . S
C791 C790 1.363 . S
C791 C797 1.428 . S
H792 C788 0.930 . S
H793 C790 0.929 . S
S794 N795 1.613 . S
S794 N796 1.610 . S
N795 S794 1.613 . S
N795 C798 1.350 . S
N796 S794 1.610 . S
N796 C797 1.351 . S
C797 C791 1.428 . S
C797 N796 1.351 . S
C797 C798 1.434 . S
C798 C789 1.429 . S
C798 N795 1.350 . S
C798 C797 1.434 . S
C799 C800 1.369 . S
C799 C801 1.419 . S
C799 H803 0.930 . S
C800 C799 1.369 . S
C800 C809 1.429 . S
C801 C799 1.419 . S
C801 C802 1.363 . S
C801 H804 0.929 . S
C802 C801 1.363 . S
C802 C808 1.428 . S
H803 C799 0.930 . S
H804 C801 0.929 . S
S805 N806 1.613 . S
S805 N807 1.610 . S
N806 S805 1.613 . S
N806 C809 1.350 . S
N807 S805 1.610 . S
N807 C808 1.351 . S
C808 C802 1.428 . S
C808 N807 1.351 . S
C808 C809 1.434 . S
C809 C800 1.429 . S
C809 N806 1.350 . S
C809 C808 1.434 . S
C810 C811 1.369 . S
C810 C812 1.419 . S
C810 H814 0.930 . S
C811 C810 1.369 . S
C811 C820 1.429 . S
C812 C810 1.419 . S
C812 C813 1.363 . S
C812 H815 0.929 . S
C813 C812 1.363 . S
C813 C819 1.428 . S
H814 C810 0.930 . S
H815 C812 0.929 . S
S816 N817 1.613 . S
S816 N818 1.610 . S
N817 S816 1.613 . S
N817 C820 1.350 . S
N818 S816 1.610 . S
N818 C819 1.351 . S
C819 C813 1.428 . S
C819 N818 1.351 . S
C819 C820 1.434 . S
C820 C811 1.429 . S
C820 N817 1.350 . S
C820 C819 1.434 . S
C821 C822 1.369 . S
C821 C823 1.419 . S
C821 H825 0.930 . S
C822 C821 1.369 . S
C822 C831 1.429 . S
C823 C821 1.419 . S
C823 C824 1.363 . S
C823 H826 0.929 . S
C824 C823 1.363 . S
C824 C830 1.428 . S
H825 C821 0.930 . S
H826 C823 0.929 . S
S827 N828 1.613 . S
S827 N829 1.610 . S
N828 S827 1.613 . S
N828 C831 1.350 . S
N829 S827 1.610 . S
N829 C830 1.351 . S
C830 C824 1.428 . S
C830 N829 1.351 . S
C830 C831 1.434 . S
C831 C822 1.429 . S
C831 N828 1.350 . S
C831 C830 1.434 . S
C832 C833 1.369 . S
C832 C834 1.419 . S
C832 H836 0.930 . S
C833 C832 1.369 . S
C833 C842 1.429 . S
C834 C832 1.419 . S
C834 C835 1.363 . S
C834 H837 0.929 . S
C835 C834 1.363 . S
C835 C841 1.428 . S
H836 C832 0.930 . S
H837 C834 0.929 . S
S838 N839 1.613 . S
S838 N840 1.610 . S
N839 S838 1.613 . S
N839 C842 1.350 . S
N840 S838 1.610 . S
N840 C841 1.351 . S
C841 C835 1.428 . S
C841 N840 1.351 . S
C841 C842 1.434 . S
C842 C833 1.429 . S
C842 N839 1.350 . S
C842 C841 1.434 . S
C843 C844 1.369 . S
C843 C845 1.419 . S
C843 H847 0.930 . S
C844 C843 1.369 . S
C844 C853 1.429 . S
C845 C843 1.419 . S
C845 C846 1.363 . S
C845 H848 0.929 . S
C846 C845 1.363 . S
C846 C852 1.428 . S
H847 C843 0.930 . S
H848 C845 0.929 . S
S849 N850 1.613 . S
S849 N851 1.610 . S
N850 S849 1.613 . S
N850 C853 1.350 . S
N851 S849 1.610 . S
N851 C852 1.351 . S
C852 C846 1.428 . S
C852 N851 1.351 . S
C852 C853 1.434 . S
C853 C844 1.429 . S
C853 N850 1.350 . S
C853 C852 1.434 . S
C854 C855 1.369 . S
C854 C856 1.419 . S
C854 H858 0.930 . S
C855 C854 1.369 . S
C855 C864 1.429 . S
C856 C854 1.419 . S
C856 C857 1.363 . S
C856 H859 0.929 . S
C857 C856 1.363 . S
C857 C863 1.428 . S
H858 C854 0.930 . S
H859 C856 0.929 . S
S860 N861 1.613 . S
S860 N862 1.610 . S
N861 S860 1.613 . S
N861 C864 1.350 . S
N862 S860 1.610 . S
N862 C863 1.351 . S
C863 C857 1.428 . S
C863 N862 1.351 . S
C863 C864 1.434 . S
C864 C855 1.429 . S
C864 N861 1.350 . S
C864 C863 1.434 . S
C865 C866 1.369 . S
C865 C867 1.419 . S
C865 H869 0.930 . S
C866 C865 1.369 . S
C866 C875 1.429 . S
C867 C865 1.419 . S
C867 C868 1.363 . S
C867 H870 0.929 . S
C868 C867 1.363 . S
C868 C874 1.428 . S
H869 C865 0.930 . S
H870 C867 0.929 . S
S871 N872 1.613 . S
S871 N873 1.610 . S
N872 S871 1.613 . S
N872 C875 1.350 . S
N873 S871 1.610 . S
N873 C874 1.351 . S
C874 C868 1.428 . S
C874 N873 1.351 . S
C874 C875 1.434 . S
C875 C866 1.429 . S
C875 N872 1.350 . S
C875 C874 1.434 . S
C876 C877 1.369 . S
C876 C878 1.419 1_455 S
C876 H880 0.930 . S
C877 C876 1.369 . S
C877 C886 1.429 1_556 S
C878 C876 1.419 1_655 S
C878 C879 1.363 1_556 S
C878 H881 0.929 . S
C879 C878 1.363 1_554 S
C879 C885 1.428 . S
H880 C876 0.930 . S
H881 C878 0.929 . S
S882 N883 1.613 . S
S882 N884 1.610 1_455 S
N883 S882 1.613 . S
N883 C886 1.350 . S
N884 S882 1.610 1_655 S
N884 C885 1.351 . S
C885 C879 1.428 . S
C885 N884 1.351 . S
C885 C886 1.434 1_655 S
C886 C877 1.429 1_554 S
C886 N883 1.350 . S
C886 C885 1.434 1_455 S
C887 C888 1.369 . S
C887 C889 1.419 . S
C887 H891 0.930 . S
C888 C887 1.369 . S
C888 C897 1.429 1_556 S
C889 C887 1.419 . S
C889 C890 1.363 1_556 S
C889 H892 0.929 . S
C890 C889 1.363 1_554 S
C890 C896 1.428 . S
H891 C887 0.930 . S
H892 C889 0.929 . S
S893 N894 1.613 . S
S893 N895 1.610 . S
N894 S893 1.613 . S
N894 C897 1.350 . S
N895 S893 1.610 . S
N895 C896 1.351 . S
C896 C890 1.428 . S
C896 N895 1.351 . S
C896 C897 1.434 . S
C897 C888 1.429 1_554 S
C897 N894 1.350 . S
C897 C896 1.434 . S
C898 C899 1.369 . S
C898 C900 1.419 1_545 S
C898 H902 0.930 . S
C899 C898 1.369 . S
C899 C908 1.429 1_554 S
C900 C898 1.419 1_565 S
C900 C901 1.363 1_554 S
C900 H903 0.929 . S
C901 C900 1.363 1_556 S
C901 C907 1.428 . S
H902 C898 0.930 . S
H903 C900 0.929 . S
S904 N905 1.613 . S
S904 N906 1.610 1_545 S
N905 S904 1.613 . S
N905 C908 1.350 . S
N906 S904 1.610 1_565 S
N906 C907 1.351 . S
C907 C901 1.428 . S
C907 N906 1.351 . S
C907 C908 1.434 1_565 S
C908 C899 1.429 1_556 S
C908 N905 1.350 . S
C908 C907 1.434 1_545 S
C909 C910 1.369 . S
C909 C911 1.419 . S
C909 H913 0.930 . S
C910 C909 1.369 . S
C910 C919 1.429 . S
C911 C909 1.419 . S
C911 C912 1.363 . S
C911 H914 0.929 . S
C912 C911 1.363 . S
C912 C918 1.428 . S
H913 C909 0.930 . S
H914 C911 0.929 . S
S915 N916 1.613 . S
S915 N917 1.610 . S
N916 S915 1.613 . S
N916 C919 1.350 . S
N917 S915 1.610 . S
N917 C918 1.351 . S
C918 C912 1.428 . S
C918 N917 1.351 . S
C918 C919 1.434 . S
C919 C910 1.429 . S
C919 N916 1.350 . S
C919 C918 1.434 . S
C920 C921 1.369 . S
C920 C922 1.419 1_545 S
C920 H924 0.930 . S
C921 C920 1.369 . S
C921 C930 1.429 . S
C922 C920 1.419 1_565 S
C922 C923 1.363 . S
C922 H925 0.929 . S
C923 C922 1.363 . S
C923 C929 1.428 . S
H924 C920 0.930 . S
H925 C922 0.929 . S
S926 N927 1.613 1_565 S
S926 N928 1.610 . S
N927 S926 1.613 1_545 S
N927 C930 1.350 . S
N928 S926 1.610 . S
N928 C929 1.351 . S
C929 C923 1.428 . S
C929 N928 1.351 . S
C929 C930 1.434 1_565 S
C930 C921 1.429 . S
C930 N927 1.350 . S
C930 C929 1.434 1_545 S
C931 C932 1.369 . S
C931 C933 1.419 1_455 S
C931 H935 0.930 . S
C932 C931 1.369 . S
C932 C941 1.417 1_455 S
C933 C931 1.419 1_655 S
C933 C934 1.363 . S
C933 H936 0.929 . S
C934 C933 1.363 . S
C934 C940 1.428 . S
H935 C931 0.930 . S
H936 C933 0.929 . S
S937 N938 1.613 . S
S937 N939 1.610 . S
N938 S937 1.613 . S
N938 C941 1.352 . S
N939 S937 1.610 . S
N939 C940 1.351 . S
C940 C934 1.428 . S
C940 N939 1.351 . S
C940 C941 1.446 . S
C941 C932 1.417 1_655 S
C941 N938 1.352 . S
C941 C940 1.446 . S
C942 C943 1.369 . S
C942 C944 1.419 . S
C942 H946 0.930 . S
C943 C942 1.369 . S
C943 C952 1.429 . S
C944 C942 1.419 . S
C944 C945 1.363 . S
C944 H947 0.929 . S
C945 C944 1.363 . S
C945 C951 1.428 . S
H946 C942 0.930 . S
H947 C944 0.929 . S
S948 N949 1.613 . S
S948 N950 1.610 . S
N949 S948 1.613 . S
N949 C952 1.350 . S
N950 S948 1.610 . S
N950 C951 1.351 . S
C951 C945 1.428 . S
C951 N950 1.351 . S
C951 C952 1.434 . S
C952 C943 1.429 . S
C952 N949 1.350 . S
C952 C951 1.434 . S
C953 C954 1.369 . S
C953 C955 1.419 1_565 S
C953 H957 0.930 . S
C954 C953 1.369 . S
C954 C963 1.429 . S
C955 C953 1.419 1_545 S
C955 C956 1.363 . S
C955 H958 0.929 . S
C956 C955 1.363 . S
C956 C962 1.454 . S
H957 C953 0.930 . S
H958 C955 0.929 . S
S959 N960 1.613 . S
S959 N961 1.610 . S
N960 S959 1.613 . S
N960 C963 1.350 . S
N961 S959 1.610 . S
N961 C962 1.340 1_565 S
C962 C956 1.454 . S
C962 N961 1.340 1_545 S
C962 C963 1.416 1_545 S
C963 C954 1.429 . S
C963 N960 1.350 . S
C963 C962 1.416 1_565 S
C964 C965 1.369 . S
C964 C966 1.440 . S
C964 H968 0.930 . S
C965 C964 1.369 . S
C965 C974 1.439 . S
C966 C964 1.440 . S
C966 C967 1.350 1_655 S
C966 H969 0.922 . S
C967 C966 1.350 1_455 S
C967 C973 1.428 . S
H968 C964 0.930 . S
H969 C966 0.922 . S
S970 N971 1.613 . S
S970 N972 1.610 . S
N971 S970 1.613 . S
N971 C974 1.356 1_455 S
N972 S970 1.610 . S
N972 C973 1.351 . S
C973 C967 1.428 . S
C973 N972 1.351 . S
C973 C974 1.417 1_455 S
C974 C965 1.439 . S
C974 N971 1.356 1_655 S
C974 C973 1.417 1_655 S
C975 C976 1.369 . S
C975 C977 1.419 . S
C975 H979 0.930 . S
C976 C975 1.369 . S
C976 C985 1.429 . S
C977 C975 1.419 . S
C977 C978 1.363 . S
C977 H980 0.929 . S
C978 C977 1.363 . S
C978 C984 1.428 . S
H979 C975 0.930 . S
H980 C977 0.929 . S
S981 N982 1.613 . S
S981 N983 1.610 . S
N982 S981 1.613 . S
N982 C985 1.350 . S
N983 S981 1.610 . S
N983 C984 1.351 . S
C984 C978 1.428 . S
C984 N983 1.351 . S
C984 C985 1.434 . S
C985 C976 1.429 . S
C985 N982 1.350 . S
C985 C984 1.434 . S
C986 C987 1.369 . S
C986 C988 1.419 . S
C986 H990 0.930 . S
C987 C986 1.369 . S
C987 C996 1.429 . S
C988 C986 1.419 . S
C988 C989 1.363 . S
C988 H991 0.929 . S
C989 C988 1.363 . S
C989 C995 1.428 . S
H990 C986 0.930 . S
H991 C988 0.929 . S
S992 N993 1.613 . S
S992 N994 1.610 . S
N993 S992 1.613 . S
N993 C996 1.350 . S
N994 S992 1.610 . S
N994 C995 1.351 . S
C995 C989 1.428 . S
C995 N994 1.351 . S
C995 C996 1.434 . S
C996 C987 1.429 . S
C996 N993 1.350 . S
C996 C995 1.434 . S
C997 C998 1.369 . S
C997 C999 1.419 . S
C997 H1001 0.930 . S
C998 C997 1.369 . S
C998 C1007 1.429 . S
C999 C997 1.419 . S
C999 C1000 1.363 . S
C999 H1002 0.929 . S
C1000 C999 1.363 . S
C1000 C1006 1.428 . S
H1001 C997 0.930 . S
H1002 C999 0.929 . S
S1003 N1004 1.613 . S
S1003 N1005 1.610 . S
N1004 S1003 1.613 . S
N1004 C1007 1.350 . S
N1005 S1003 1.610 . S
N1005 C1006 1.351 . S
C1006 C1000 1.428 . S
C1006 N1005 1.351 . S
C1006 C1007 1.434 . S
C1007 C998 1.429 . S
C1007 N1004 1.350 . S
C1007 C1006 1.434 . S
C1008 C1009 1.369 . S
C1008 C1010 1.419 . S
C1008 H1012 0.930 . S
C1009 C1008 1.369 . S
C1009 C1018 1.429 . S
C1010 C1008 1.419 . S
C1010 C1011 1.363 . S
C1010 H1013 0.929 . S
C1011 C1010 1.363 . S
C1011 C1017 1.428 . S
H1012 C1008 0.930 . S
H1013 C1010 0.929 . S
S1014 N1015 1.613 . S
S1014 N1016 1.610 . S
N1015 S1014 1.613 . S
N1015 C1018 1.350 . S
N1016 S1014 1.610 . S
N1016 C1017 1.351 . S
C1017 C1011 1.428 . S
C1017 N1016 1.351 . S
C1017 C1018 1.434 . S
C1018 C1009 1.429 . S
C1018 N1015 1.350 . S
C1018 C1017 1.434 . S
C1019 C1020 1.369 . S
C1019 C1021 1.419 . S
C1019 H1023 0.930 . S
C1020 C1019 1.369 . S
C1020 C1029 1.429 . S
C1021 C1019 1.419 . S
C1021 C1022 1.363 . S
C1021 H1024 0.929 . S
C1022 C1021 1.363 . S
C1022 C1028 1.428 . S
H1023 C1019 0.930 . S
H1024 C1021 0.929 . S
S1025 N1026 1.613 . S
S1025 N1027 1.610 . S
N1026 S1025 1.613 . S
N1026 C1029 1.350 . S
N1027 S1025 1.610 . S
N1027 C1028 1.351 . S
C1028 C1022 1.428 . S
C1028 N1027 1.351 . S
C1028 C1029 1.434 . S
C1029 C1020 1.429 . S
C1029 N1026 1.350 . S
C1029 C1028 1.434 . S
C1030 C1031 1.369 . S
C1030 C1032 1.419 . S
C1030 H1034 0.930 . S
C1031 C1030 1.369 . S
C1031 C1040 1.429 . S
C1032 C1030 1.419 . S
C1032 C1033 1.363 . S
C1032 H1035 0.929 . S
C1033 C1032 1.363 . S
C1033 C1039 1.428 . S
H1034 C1030 0.930 . S
H1035 C1032 0.929 . S
S1036 N1037 1.613 . S
S1036 N1038 1.610 . S
N1037 S1036 1.613 . S
N1037 C1040 1.350 . S
N1038 S1036 1.610 . S
N1038 C1039 1.351 . S
C1039 C1033 1.428 . S
C1039 N1038 1.351 . S
C1039 C1040 1.434 . S
C1040 C1031 1.429 . S
C1040 N1037 1.350 . S
C1040 C1039 1.434 . S
C1041 C1042 1.369 . S
C1041 C1043 1.419 . S
C1041 H1045 0.930 . S
C1042 C1041 1.369 . S
C1042 C1051 1.429 . S
C1043 C1041 1.419 . S
C1043 C1044 1.363 . S
C1043 H1046 0.929 . S
C1044 C1043 1.363 . S
C1044 C1050 1.428 . S
H1045 C1041 0.930 . S
H1046 C1043 0.929 . S
S1047 N1048 1.613 . S
S1047 N1049 1.610 . S
N1048 S1047 1.613 . S
N1048 C1051 1.350 . S
N1049 S1047 1.610 . S
N1049 C1050 1.351 . S
C1050 C1044 1.428 . S
C1050 N1049 1.351 . S
C1050 C1051 1.434 . S
C1051 C1042 1.429 . S
C1051 N1048 1.350 . S
C1051 C1050 1.434 . S
C1052 C1053 1.369 . S
C1052 C1054 1.419 . S
C1052 H1056 0.930 . S
C1053 C1052 1.369 . S
C1053 C1062 1.429 . S
C1054 C1052 1.419 . S
C1054 C1055 1.363 . S
C1054 H1057 0.929 . S
C1055 C1054 1.363 . S
C1055 C1061 1.428 . S
H1056 C1052 0.930 . S
H1057 C1054 0.929 . S
S1058 N1059 1.613 . S
S1058 N1060 1.610 . S
N1059 S1058 1.613 . S
N1059 C1062 1.350 . S
N1060 S1058 1.610 . S
N1060 C1061 1.351 . S
C1061 C1055 1.428 . S
C1061 N1060 1.351 . S
C1061 C1062 1.434 . S
C1062 C1053 1.429 . S
C1062 N1059 1.350 . S
C1062 C1061 1.434 . S
C1063 C1064 1.369 . S
C1063 C1065 1.419 . S
C1063 H1067 0.930 . S
C1064 C1063 1.369 . S
C1064 C1073 1.429 . S
C1065 C1063 1.419 . S
C1065 C1066 1.363 . S
C1065 H1068 0.929 . S
C1066 C1065 1.363 . S
C1066 C1072 1.428 . S
H1067 C1063 0.930 . S
H1068 C1065 0.929 . S
S1069 N1070 1.613 . S
S1069 N1071 1.610 . S
N1070 S1069 1.613 . S
N1070 C1073 1.350 . S
N1071 S1069 1.610 . S
N1071 C1072 1.351 . S
C1072 C1066 1.428 . S
C1072 N1071 1.351 . S
C1072 C1073 1.434 . S
C1073 C1064 1.429 . S
C1073 N1070 1.350 . S
C1073 C1072 1.434 . S
C1074 C1075 1.369 . S
C1074 C1076 1.419 . S
C1074 H1078 0.930 . S
C1075 C1074 1.369 . S
C1075 C1084 1.429 . S
C1076 C1074 1.419 . S
C1076 C1077 1.363 . S
C1076 H1079 0.929 . S
C1077 C1076 1.363 . S
C1077 C1083 1.428 . S
H1078 C1074 0.930 . S
H1079 C1076 0.929 . S
S1080 N1081 1.613 . S
S1080 N1082 1.610 . S
N1081 S1080 1.613 . S
N1081 C1084 1.350 . S
N1082 S1080 1.610 . S
N1082 C1083 1.351 . S
C1083 C1077 1.428 . S
C1083 N1082 1.351 . S
C1083 C1084 1.434 . S
C1084 C1075 1.429 . S
C1084 N1081 1.350 . S
C1084 C1083 1.434 . S
C1085 C1086 1.369 . S
C1085 C1087 1.419 . S
C1085 H1089 0.930 . S
C1086 C1085 1.369 . S
C1086 C1095 1.429 . S
C1087 C1085 1.419 . S
C1087 C1088 1.363 . S
C1087 H1090 0.929 . S
C1088 C1087 1.363 . S
C1088 C1094 1.428 . S
H1089 C1085 0.930 . S
H1090 C1087 0.929 . S
S1091 N1092 1.613 . S
S1091 N1093 1.610 . S
N1092 S1091 1.613 . S
N1092 C1095 1.350 . S
N1093 S1091 1.610 . S
N1093 C1094 1.351 . S
C1094 C1088 1.428 . S
C1094 N1093 1.351 . S
C1094 C1095 1.434 . S
C1095 C1086 1.429 . S
C1095 N1092 1.350 . S
C1095 C1094 1.434 . S
C1096 C1097 1.369 . S
C1096 C1098 1.419 . S
C1096 H1100 0.930 . S
C1097 C1096 1.369 . S
C1097 C1106 1.429 . S
C1098 C1096 1.419 . S
C1098 C1099 1.363 . S
C1098 H1101 0.929 . S
C1099 C1098 1.363 . S
C1099 C1105 1.428 . S
H1100 C1096 0.930 . S
H1101 C1098 0.929 . S
S1102 N1103 1.613 . S
S1102 N1104 1.610 . S
N1103 S1102 1.613 . S
N1103 C1106 1.350 . S
N1104 S1102 1.610 . S
N1104 C1105 1.351 . S
C1105 C1099 1.428 . S
C1105 N1104 1.351 . S
C1105 C1106 1.434 . S
C1106 C1097 1.429 . S
C1106 N1103 1.350 . S
C1106 C1105 1.434 . S
C613 C122 2.345 . S
C615 C20 2.345 . S
C624 C156 2.344 . S
C626 C54 2.345 . S
C635 C88 2.345 . S
C637 C190 2.345 . S
C646 C43 0.694 . S
C648 C179 0.693 . S
C657 C111 0.697 . S
C659 C77 0.692 . S
C668 C145 0.699 . S
C670 C9 0.698 . S
C679 C224 2.344 . S
C681 C326 2.344 . S
C690 C360 2.344 . S
C692 C258 2.345 . S
C701 C292 2.345 . S
C703 C394 2.345 . S
C712 C383 0.700 . S
C714 C247 0.695 . S
C723 C315 0.698 . S
C725 C281 0.693 . S
C734 C349 0.699 . S
C736 C213 0.697 . S
C745 C530 2.345 . S
C747 C428 2.345 . S
C756 C462 2.345 . S
C758 C564 2.344 . S
C767 C598 2.344 . S
C769 C496 2.344 . S
C778 C451 0.691 . S
C780 C587 0.696 . S
C789 C519 0.691 . S
C791 C485 0.696 . S
C800 C417 0.698 . S
C802 C553 0.698 . S
C811 C611 0.999 . S
C813 C33 1.000 . S
C822 C67 1.000 . S
C824 C543 1.001 . S
C833 C577 1.001 . S
C835 C101 1.001 . S
C844 C271 0.999 . S
C846 C135 1.000 . S
C855 C169 1.001 . S
C857 C305 1.001 . S
C866 C203 1.000 . S
C868 C237 1.001 . S
C877 C475 1.000 . S
C879 C339 1.000 . S
C888 C509 1.001 . S
C890 C373 1.001 . S
C899 C407 0.999 . S
C901 C441 1.000 . S
C910 C5 1.152 . S
C912 C107 1.150 . S
C921 C141 1.148 . S
C923 C39 1.152 . S
C932 C73 1.149 . S
C934 C175 1.156 . S
C943 C172 2.906 . S
C945 C36 2.907 . S
C954 C70 2.907 . S
C956 C104 2.907 . S
C965 C138 2.907 . S
C967 C2 2.907 . S
C976 C209 1.154 . S
C978 C311 1.159 . S
C987 C345 1.152 . S
C989 C243 1.158 . S
C998 C379 1.153 . S
C1000 C277 1.150 . S
C1009 C376 2.907 . S
C1011 C240 2.907 . S
C1020 C308 2.907 . S
C1022 C274 2.907 . S
C1031 C342 2.907 . S
C1033 C206 2.907 . S
C1042 C515 1.160 . S
C1044 C413 1.158 . S
C1053 C549 1.155 . S
C1055 C447 1.159 . S
C1064 C583 1.152 . S
C1066 C481 1.158 . S
C1075 C580 2.907 . S
C1077 C444 2.907 . S
C1086 C512 2.906 . S
C1088 C478 2.907 . S
C1097 C546 2.907 . S
C1099 C410 2.907 . S
