# Generated by pormake.
# Topology lcy, (6)-cn, num edge types: 1
# Building blocks:
#     Node 0, Type 0, BuildingBlock: FUNLAD_clean_sbu_0, # of connection points: 6
#     Node 1, Type 0, BuildingBlock: FUNLAD_clean_sbu_0, # of connection points: 6
#     Node 2, Type 0, BuildingBlock: FUNLAD_clean_sbu_0, # of connection points: 6
#     Node 3, Type 0, BuildingBlock: FUNLAD_clean_sbu_0, # of connection points: 6
#     Edge 4, Type (0, 0), BuildingBlock: FUNLAD_clean_linker_1, # of connection points: 2
#     Edge 5, Type (0, 0), BuildingBlock: FUNLAD_clean_linker_1, # of connection points: 2
#     Edge 6, Type (0, 0), BuildingBlock: FUNLAD_clean_linker_1, # of connection points: 2
#     Edge 7, Type (0, 0), BuildingBlock: FUNLAD_clean_linker_1, # of connection points: 2
#     Edge 8, Type (0, 0), BuildingBlock: FUNLAD_clean_linker_1, # of connection points: 2
#     Edge 9, Type (0, 0), BuildingBlock: FUNLAD_clean_linker_1, # of connection points: 2
#     Edge 10, Type (0, 0), BuildingBlock: FUNLAD_clean_linker_1, # of connection points: 2
#     Edge 11, Type (0, 0), BuildingBlock: FUNLAD_clean_linker_1, # of connection points: 2
#     Edge 12, Type (0, 0), BuildingBlock: FUNLAD_clean_linker_1, # of connection points: 2
#     Edge 13, Type (0, 0), BuildingBlock: FUNLAD_clean_linker_1, # of connection points: 2
#     Edge 14, Type (0, 0), BuildingBlock: FUNLAD_clean_linker_1, # of connection points: 2
#     Edge 15, Type (0, 0), BuildingBlock: FUNLAD_clean_linker_1, # of connection points: 2
# Relax obj value: 0.635
# Max RMSD: 0.349
# Mean RMSD: 0.317
data_MOF--net-lcy--node1-FUNLAD_clean_sbu_0--edge1-FUNLAD_clean_linker_1
_symmetry_space_group_name_H-M    P1
_symmetry_Int_Tables_number       1
_symmetry_cell_setting            triclinic
loop_
_symmetry_equiv_pos_as_xyz
'x, y, z'
_cell_length_a     28.764531
_cell_length_b     28.715609
_cell_length_c     27.776892
_cell_angle_alpha  80.599655
_cell_angle_beta   80.034361
_cell_angle_gamma 71.380404
loop_
_atom_site_label
_atom_site_type_symbol
_atom_site_fract_x
_atom_site_fract_y
_atom_site_fract_z
_atom_type_partial_charge
C0 C 0.3133 0.48176 0.34288 0.0
N1 N 0.44818 0.48738 0.37561 0.0
C2 C 0.45609 0.5047 0.32729 0.0
C3 C 0.48213 0.53936 0.31273 0.0
C4 C 0.50031 0.55646 0.34804 0.0
C5 C 0.49366 0.53597 0.39742 0.0
C6 C 0.4674 0.50143 0.41034 0.0
Zn7 Zn 0.4003 0.44586 0.39863 0.0
C8 C 0.32988 0.48533 0.48826 0.0
N9 N 0.29683 0.36395 0.45062 0.0
C10 C 0.27398 0.35557 0.41529 0.0
C11 C 0.28337 0.35106 0.4992 0.0
C12 C 0.24438 0.33037 0.51376 0.0
C13 C 0.2187 0.3239 0.47789 0.0
C14 C 0.23419 0.3363 0.42823 0.0
Zn15 Zn 0.34701 0.40302 0.42784 0.0
O16 O 0.35169 0.49204 0.34835 0.0
C17 C 0.42055 0.35872 0.34432 0.0
O18 O 0.30062 0.44781 0.37251 0.0
H19 H 0.3017 0.35839 0.52673 0.0
H20 H 0.44055 0.49312 0.30021 0.0
H21 H 0.28544 0.36545 0.37685 0.0
O22 O 0.43557 0.39618 0.34333 0.0
O23 O 0.38428 0.35342 0.3757 0.0
H24 H 0.46066 0.48738 0.44861 0.0
O25 O 0.39707 0.35755 0.47971 0.0
O26 O 0.4485 0.39983 0.44637 0.0
O27 O 0.3105 0.45269 0.4829 0.0
O28 O 0.3661 0.4916 0.45722 0.0
C29 C 0.43866 0.36553 0.47737 0.0
H30 H 0.48652 0.55397 0.27427 0.0
H31 H 0.50661 0.54737 0.42647 0.0
H32 H 0.2329 0.3219 0.55258 0.0
H33 H 0.21519 0.33175 0.39967 0.0
C34 C 0.77847 0.21082 0.61852 0.0
N35 N 0.86593 0.06772 0.58998 0.0
C36 C 0.82706 0.06018 0.57422 0.0
C37 C 0.83555 0.02735 0.53951 0.0
C38 C 0.88434 1.00218 0.52112 0.0
C39 C 0.92359 0.00925 0.53976 0.0
C40 C 0.91345 0.04264 0.57389 0.0
Zn41 Zn 0.85684 0.11662 0.63804 0.0
C42 C 0.92625 0.17782 0.60431 0.0
N43 N 0.84835 0.21581 0.73905 0.0
C44 C 0.80459 0.24517 0.75966 0.0
C45 C 0.89232 0.21747 0.74919 0.0
C46 C 0.89364 0.25036 0.78003 0.0
C47 C 0.84921 0.28258 0.80033 0.0
C48 C 0.80421 0.27894 0.79093 0.0
Zn49 Zn 0.85239 0.16836 0.6906 0.0
O50 O 0.80003 0.16922 0.60247 0.0
C51 C 0.78523 0.10731 0.72619 0.0
O52 O 0.79415 0.2221 0.65389 0.0
H53 H 0.92668 0.19354 0.73282 0.0
H54 H 0.78962 0.0803 0.58785 0.0
H55 H 0.77007 0.24289 0.75132 0.0
O56 O 0.80251 0.08895 0.68578 0.0
O57 O 0.79983 0.14141 0.73639 0.0
H58 H 0.94392 0.04899 0.58696 0.0
O59 O 0.90914 0.11176 0.7282 0.0
O60 O 0.91066 0.06373 0.67428 0.0
O61 O 0.90593 0.19571 0.6442 0.0
O62 O 0.91267 0.14416 0.59162 0.0
C63 C 0.92596 0.06982 0.71202 0.0
H64 H 0.80425 0.02278 0.52611 0.0
H65 H 0.96185 0.99037 0.52792 0.0
H66 H 0.92925 0.2504 0.78774 0.0
H67 H 0.76928 0.30279 0.80652 0.0
C68 C 0.18635 0.56369 0.99577 0.0
N69 N 0.18862 0.70706 0.94074 0.0
C70 C 0.18768 0.7147 0.98799 0.0
C71 C 0.20474 0.75191 0.99783 0.0
C72 C 0.22406 0.78068 0.95882 0.0
C73 C 0.22546 0.77173 0.91033 0.0
C74 C 0.20701 0.73464 0.90206 0.0
Zn75 Zn 0.15578 0.65746 0.92951 0.0
C76 C 0.20941 0.59837 0.84385 0.0
N77 N 0.08327 0.55798 0.90502 0.0
C78 C 0.06044 0.53517 0.94446 0.0
C79 C 0.07938 0.55292 0.85818 0.0
C80 C 0.05056 0.52502 0.8496 0.0
C81 C 0.02486 0.50289 0.88951 0.0
C82 C 0.03083 0.50729 0.93755 0.0
Zn83 Zn 0.11921 0.60501 0.91593 0.0
O84 O 0.1965 0.60398 0.98081 0.0
C85 C 0.06033 0.66657 0.99439 0.0
O86 O 0.15642 0.55244 0.97401 0.0
H87 H 0.09768 0.57155 0.82739 0.0
H88 H 0.17296 0.69236 0.01819 0.0
H89 H 0.06432 0.5395 0.98137 0.0
O90 O 0.09751 0.68271 0.98819 0.0
O91 O 0.06058 0.63388 0.96877 0.0
H92 H 0.20657 0.72848 0.86478 0.0
O93 O 0.08091 0.66095 0.8607 0.0
O94 O 0.11492 0.71119 0.88242 0.0
O95 O 0.17714 0.57624 0.86039 0.0
O96 O 0.21089 0.63326 0.86625 0.0
C97 C 0.08546 0.7041 0.85756 0.0
H98 H 0.20359 0.75767 0.03568 0.0
H99 H 0.2397 0.79366 0.87929 0.0
H100 H 0.04727 0.52191 0.81206 0.0
H101 H 0.01309 0.48951 0.9695 0.0
C102 C 0.56748 0.01615 0.20176 0.0
N103 N 0.71911 0.94113 0.20529 0.0
C104 C 0.73182 0.98331 0.20253 0.0
C105 C 0.77694 0.98111 0.21651 0.0
C106 C 0.80914 0.93492 0.23239 0.0
C107 C 0.79525 0.89226 0.23439 0.0
C108 C 0.74954 0.89627 0.22149 0.0
Zn109 Zn 0.65975 0.93923 0.1765 0.0
C110 C 0.60924 0.86938 0.23859 0.0
N111 N 0.54592 0.92136 0.10947 0.0
C112 C 0.51379 0.96074 0.08614 0.0
C113 C 0.54479 0.87439 0.10956 0.0
C114 C 0.5113 0.86535 0.08458 0.0
C115 C 0.47801 0.90496 0.05989 0.0
C116 C 0.47902 0.95337 0.06103 0.0
Zn117 Zn 0.60117 0.92883 0.14121 0.0
O118 O 0.61218 1.00004 0.21044 0.0
C119 C 0.65208 0.99469 0.07704 0.0
O120 O 0.55211 0.99324 0.17515 0.0
H121 H 0.57061 0.8436 0.12831 0.0
H122 H 0.7074 0.01839 0.18874 0.0
H123 H 0.51582 0.99771 0.08617 0.0
O124 O 0.67578 0.98773 0.11348 0.0
O125 O 0.61827 0.97459 0.07959 0.0
H126 H 0.739 0.86306 0.22326 0.0
O127 O 0.6524 0.86545 0.10705 0.0
O128 O 0.70746 0.88084 0.14164 0.0
O129 O 0.5844 0.88174 0.2026 0.0
O130 O 0.64332 0.88864 0.23887 0.0
C131 C 0.69704 0.8555 0.11445 0.0
H132 H 0.78672 0.01485 0.21464 0.0
H133 H 0.81895 0.85621 0.24717 0.0
H134 H 0.51136 0.82757 0.08466 0.0
H135 H 0.45437 0.98492 0.04182 0.0
H136 H 0.19297 0.50074 0.05548 0.0
C137 C 0.20319 0.53438 0.04259 0.0
H138 H 0.2324 0.58724 0.06011 0.0
H139 H 0.19407 0.56305 0.28846 0.0
H140 H 0.13236 0.641 0.26816 0.0
H141 H 0.11513 0.66936 0.18256 0.0
H142 H 0.15927 0.61994 0.11669 0.0
C143 C 0.22478 0.55214 0.0722 0.0
C144 C 0.23171 0.53111 0.12476 0.0
C145 C 0.2059 0.56046 0.16327 0.0
C146 C 0.21613 0.54427 0.21287 0.0
C147 C 0.18872 0.57404 0.25019 0.0
C148 C 0.15292 0.61875 0.2391 0.0
C149 C 0.14321 0.63471 0.19089 0.0
C150 C 0.16909 0.60604 0.15335 0.0
H151 H 0.29622 0.53826 0.27877 0.0
C152 C 0.28865 0.50487 0.29816 0.0
H153 H 0.26082 0.44641 0.29354 0.0
H154 H 0.28872 0.4656 0.06104 0.0
H155 H 0.34878 0.38667 0.08174 0.0
H156 H 0.3652 0.35799 0.16748 0.0
H157 H 0.32255 0.40819 0.233 0.0
C158 C 0.26513 0.48182 0.2762 0.0
C159 C 0.25255 0.49872 0.22439 0.0
C160 C 0.27711 0.46852 0.1862 0.0
C161 C 0.26703 0.48483 0.1365 0.0
C162 C 0.29394 0.45468 0.09931 0.0
C163 C 0.32876 0.40935 0.11065 0.0
C164 C 0.3381 0.39321 0.15893 0.0
C165 C 0.31304 0.42238 0.1963 0.0
H166 H 0.88558 0.89642 0.24825 0.0
C167 C 0.85487 0.93012 0.25222 0.0
H168 H 0.82238 0.99145 0.29225 0.0
H169 H 0.92923 0.86321 0.47321 0.0
H170 H 0.88274 0.80564 0.4719 0.0
H171 H 0.83818 0.81218 0.4015 0.0
H172 H 0.84041 0.87481 0.33226 0.0
C173 C 0.85387 0.95901 0.2857 0.0
C174 C 0.89082 0.94441 0.32054 0.0
C175 C 0.88877 0.90679 0.36033 0.0
C176 C 0.91281 0.90385 0.4016 0.0
C177 C 0.91052 0.86685 0.44152 0.0
C178 C 0.88419 0.83382 0.4411 0.0
C179 C 0.8592 0.83747 0.40142 0.0
C180 C 0.86101 0.87365 0.3616 0.0
H181 H 0.85907 0.97014 0.46791 0.0
C182 C 0.89222 0.97256 0.47994 0.0
H183 H 0.97019 0.95761 0.46119 0.0
H184 H 0.91245 0.01073 0.2447 0.0
H185 H 0.96354 0.06395 0.24527 0.0
H186 H 0.00316 0.06005 0.31854 0.0
H187 H 0.99217 1.00286 0.39147 0.0
C188 C 0.9361 0.9546 0.45253 0.0
C189 C 0.93584 0.93993 0.40394 0.0
C190 C 0.94486 0.9717 0.36124 0.0
C191 C 0.92191 0.97414 0.3193 0.0
C192 C 0.92899 0.00793 0.27764 0.0
C193 C 0.95823 0.03844 0.27751 0.0
C194 C 0.98054 0.03624 0.31878 0.0
C195 C 0.97383 1.00347 0.36042 0.0
H196 H 0.24023 0.62454 0.76982 0.0
C197 C 0.23573 0.5916 0.79308 0.0
H198 H 0.23989 0.51709 0.79803 0.0
H199 H 0.21357 0.47216 0.59825 0.0
H200 H 0.15144 0.44505 0.65503 0.0
H201 H 0.13117 0.46656 0.74008 0.0
H202 H 0.17454 0.51341 0.76932 0.0
C203 C 0.24475 0.54906 0.77316 0.0
C204 C 0.25213 0.54484 0.71842 0.0
C205 C 0.22346 0.5208 0.70023 0.0
C206 C 0.23231 0.51189 0.64975 0.0
C207 C 0.20664 0.48295 0.6349 0.0
C208 C 0.17092 0.46662 0.66735 0.0
C209 C 0.15972 0.47846 0.71527 0.0
C210 C 0.18548 0.5051 0.7317 0.0
H211 H 0.35244 0.50416 0.55228 0.0
C212 C 0.32004 0.50593 0.53615 0.0
H213 H 0.24315 0.52317 0.54458 0.0
H214 H 0.32176 0.58288 0.73915 0.0
H215 H 0.37317 0.62347 0.68014 0.0
H216 H 0.37104 0.62845 0.591 0.0
H217 H 0.31995 0.58999 0.56043 0.0
C218 C 0.27472 0.52155 0.562 0.0
C219 C 0.26614 0.5316 0.61542 0.0
C220 C 0.29108 0.56001 0.63282 0.0
C221 C 0.2872 0.56302 0.68446 0.0
C222 C 0.31924 0.58404 0.70061 0.0
C223 C 0.34951 0.60686 0.66707 0.0
C224 C 0.34867 0.60926 0.61689 0.0
C225 C 0.31979 0.58629 0.59979 0.0
H226 H 0.69767 0.03644 0.02787 0.0
C227 C 0.66727 0.02105 0.03013 0.0
H228 H 0.61759 0.0062 0.9908 0.0
H229 H 0.65016 0.16285 0.80849 0.0
H230 H 0.56616 0.20456 0.84264 0.0
H231 H 0.52852 0.17106 0.92191 0.0
H232 H 0.57458 0.09558 0.96738 0.0
C233 C 0.64818 0.02114 0.9892 0.0
C234 C 0.6695 0.03937 0.9402 0.0
C235 C 0.64183 0.08316 0.91415 0.0
C236 C 0.66364 0.10269 0.86884 0.0
C237 C 0.63546 0.14674 0.84345 0.0
C238 C 0.58719 0.17094 0.86255 0.0
C239 C 0.56599 0.15205 0.90715 0.0
C240 C 0.59282 0.10871 0.93285 0.0
H241 H 0.74362 0.05386 0.75699 0.0
C242 C 0.75235 0.08622 0.76359 0.0
H243 H 0.74581 0.13634 0.81423 0.0
H244 H 0.72841 0.94887 0.97603 0.0
H245 H 0.8128 0.90785 0.94298 0.0
H246 H 0.85358 0.94552 0.86836 0.0
H247 H 0.8096 0.02303 0.82504 0.0
C248 C 0.738 0.10345 0.80765 0.0
C249 C 0.713 0.07839 0.85003 0.0
C250 C 0.74011 0.03343 0.8752 0.0
C251 C 0.71771 0.01318 0.91977 0.0
C252 C 0.74443 0.96703 0.94316 0.0
C253 C 0.7928 0.94288 0.92442 0.0
C254 C 0.81565 0.96393 0.88222 0.0
C255 C 0.78981 0.00856 0.85766 0.0
H256 H 0.99692 0.16453 0.55501 0.0
C257 C 0.96951 0.19148 0.57667 0.0
H258 H 0.95002 0.26001 0.60422 0.0
H259 H 0.15417 0.28217 0.61818 0.0
H260 H 0.11461 0.28306 0.7024 0.0
H261 H 0.03597 0.26299 0.72658 0.0
H262 H 0.996 0.24292 0.66658 0.0
C263 C 0.97795 0.23362 0.58233 0.0
C264 C 0.02733 0.24207 0.56722 0.0
C265 C 0.05148 0.2516 0.60343 0.0
C266 C 0.0979 0.26118 0.58992 0.0
C267 C 0.11967 0.27321 0.62642 0.0
C268 C 0.09728 0.27401 0.67504 0.0
C269 C 0.05297 0.26284 0.68862 0.0
C270 C 0.03024 0.25166 0.65353 0.0
H271 H 0.14272 0.32729 0.46991 0.0
C272 C 0.17324 0.30851 0.49116 0.0
H273 H 0.19956 0.25225 0.54744 0.0
H274 H 0.9886 0.23329 0.4866 0.0
H275 H 0.03188 0.22396 0.40413 0.0
H276 H 0.1182 0.22613 0.38416 0.0
H277 H 0.16086 0.23977 0.44609 0.0
C278 C 0.16892 0.27165 0.52658 0.0
C279 C 0.12139 0.25904 0.54067 0.0
C280 C 0.09862 0.24653 0.50512 0.0
C281 C 0.05048 0.24073 0.51776 0.0
C282 C 0.02642 0.23431 0.48004 0.0
C283 C 0.05067 0.22943 0.43234 0.0
C284 C 0.09913 0.23097 0.42102 0.0
C285 C 0.12301 0.23938 0.45682 0.0
H286 H 0.04249 0.7417 0.7951 0.0
C287 C 0.05642 0.74712 0.82703 0.0
H288 H 0.06299 0.79736 0.87121 0.0
H289 H 0.06002 0.98339 0.72407 0.0
H290 H 0.14597 0.95379 0.73855 0.0
H291 H 0.17971 0.87154 0.78377 0.0
H292 H 0.12795 0.81835 0.81451 0.0
C293 C 0.04915 0.79303 0.83867 0.0
C294 C 0.02929 0.83963 0.80656 0.0
C295 C 0.06026 0.87031 0.78858 0.0
C296 C 0.04094 0.91773 0.76246 0.0
C297 C 0.07276 0.94725 0.74449 0.0
C298 C 0.1222 0.93067 0.75244 0.0
C299 C 0.14119 0.88438 0.77792 0.0
C300 C 0.11088 0.85433 0.79565 0.0
H301 H 0.96606 0.02954 0.77531 0.0
C302 C 0.95783 0.02624 0.73951 0.0
H303 H 0.9614 0.97812 0.68793 0.0
H304 H 0.95853 0.79232 0.83936 0.0
H305 H 0.87282 0.82219 0.82385 0.0
H306 H 0.84024 0.90323 0.77657 0.0
H307 H 0.89278 0.95544 0.74463 0.0
C308 C 0.97114 0.98154 0.72302 0.0
C309 C 0.99081 0.93431 0.75417 0.0
C310 C 0.95985 0.90369 0.77189 0.0
C311 C 0.97892 0.85648 0.79859 0.0
C312 C 0.94648 0.82782 0.81769 0.0
C313 C 0.8971 0.84461 0.80937 0.0
C314 C 0.87871 0.89026 0.78261 0.0
C315 C 0.90941 0.91976 0.76429 0.0
H316 H 0.2268 0.83605 1.00365 0.0
C317 C 0.24378 0.81842 0.97044 0.0
H318 H 0.30581 0.8058 0.91542 0.0
H319 H 0.37943 0.98215 0.94711 0.0
H320 H 0.3544 0.00952 0.86534 0.0
H321 H 0.30913 0.96555 0.83076 0.0
H322 H 0.28912 0.89359 0.87736 0.0
C323 C 0.28709 0.82408 0.94779 0.0
C324 C 0.31288 0.8516 0.96916 0.0
C325 C 0.32323 0.89415 0.94179 0.0
C326 C 0.34875 0.91991 0.96191 0.0
C327 C 0.35996 0.96144 0.93344 0.0
C328 C 0.34571 0.97756 0.88659 0.0
C329 C 0.32021 0.95279 0.86712 0.0
C330 C 0.30898 0.91154 0.89423 0.0
H331 H 0.45387 0.85594 0.02352 0.0
C332 C 0.44351 0.89342 0.03344 0.0
H333 H 0.38508 0.96094 0.03699 0.0
H334 H 0.30734 0.76611 0.02896 0.0
H335 H 0.32648 0.74321 0.11257 0.0
H336 H 0.3591 0.79544 0.15164 0.0
H337 H 0.37444 0.86994 0.10618 0.0
C338 C 0.39798 0.92351 0.02696 0.0
C339 C 0.36315 0.90336 1.00946 0.0
C340 C 0.34983 0.86285 0.0381 0.0
C341 C 0.32721 0.83523 0.01703 0.0
C342 C 0.32072 0.79092 0.04425 0.0
C343 C 0.33223 0.77687 0.09223 0.0
C344 C 0.35085 0.80607 0.11411 0.0
C345 C 0.35978 0.84851 0.0875 0.0
H346 H 0.48222 0.32088 0.29056 0.0
C347 C 0.44782 0.31884 0.31292 0.0
H348 H 0.39977 0.27541 0.33943 0.0
H349 H 0.53078 0.14691 0.15805 0.0
H350 H 0.49551 0.21935 0.10258 0.0
H351 H 0.44545 0.29785 0.13443 0.0
H352 H 0.4306 0.3046 0.22219 0.0
C353 C 0.43333 0.27805 0.31571 0.0
C354 C 0.46557 0.23178 0.29511 0.0
C355 C 0.47291 0.22808 0.24389 0.0
C356 C 0.50081 0.18226 0.22558 0.0
C357 C 0.50891 0.18024 0.17412 0.0
C358 C 0.48903 0.22164 0.14181 0.0
C359 C 0.46086 0.26589 0.15977 0.0
C360 C 0.45271 0.26928 0.21018 0.0
H361 H 0.49547 0.07403 0.21567 0.0
C362 C 0.53444 0.06277 0.22019 0.0
H363 H 0.59113 0.08104 0.24502 0.0
H364 H 0.46069 0.2265 0.39514 0.0
H365 H 0.49562 0.15404 0.45066 0.0
H366 H 0.54184 0.07427 0.41924 0.0
H367 H 0.55352 0.0665 0.33203 0.0
C368 C 0.55227 0.09241 0.24003 0.0
C369 C 0.5205 0.1399 0.25864 0.0
C370 C 0.51345 0.14382 0.3098 0.0
C371 C 0.48612 0.18969 0.328 0.0
C372 C 0.48037 0.19246 0.37928 0.0
C373 C 0.50041 0.15117 0.41162 0.0
C374 C 0.5265 0.10629 0.39392 0.0
C375 C 0.53304 0.10241 0.3437 0.0
H376 H 0.71784 0.2812 0.60906 0.0
C377 C 0.73234 0.24343 0.59982 0.0
H378 H 0.72009 0.18772 0.567 0.0
H379 H 0.49126 0.33929 0.60151 0.0
H380 H 0.49772 0.3179 0.68883 0.0
H381 H 0.57663 0.26644 0.71783 0.0
H382 H 0.64978 0.23688 0.65985 0.0
C383 C 0.70581 0.2256 0.57595 0.0
C384 C 0.6574 0.256 0.55927 0.0
C385 C 0.6145 0.27176 0.59376 0.0
C386 C 0.56839 0.29998 0.57702 0.0
C387 C 0.52679 0.31689 0.6122 0.0
C388 C 0.53002 0.30493 0.66242 0.0
C389 C 0.57448 0.27605 0.67876 0.0
C390 C 0.61632 0.25952 0.64503 0.0
H391 H 0.47351 0.29879 0.527 0.0
C392 C 0.47744 0.3336 0.50747 0.0
H393 H 0.52301 0.3803 0.48673 0.0
H394 H 0.73152 0.22981 0.48333 0.0
H395 H 0.72378 0.24712 0.39621 0.0
H396 H 0.64335 0.29316 0.36738 0.0
H397 H 0.5702 0.3223 0.42548 0.0
C398 C 0.51916 0.34577 0.50716 0.0
C399 C 0.56488 0.31106 0.5259 0.0
C400 C 0.60728 0.29348 0.49154 0.0
C401 C 0.65351 0.26618 0.50818 0.0
C402 C 0.69531 0.25005 0.47283 0.0
C403 C 0.69145 0.25985 0.42265 0.0
C404 C 0.6462 0.28585 0.40642 0.0
C405 C 0.60453 0.30256 0.44023 0.0
H406 H 0.00012 0.46211 0.84345 0.0
C407 C 0.99278 0.47531 0.87941 0.0
H408 H 0.94442 0.48094 0.94684 0.0
H409 H 0.84096 0.42314 0.77523 0.0
H410 H 0.82538 0.51001 0.74277 0.0
H411 H 0.85373 0.56575 0.78167 0.0
H412 H 0.89812 0.53485 0.85306 0.0
C413 C 0.95398 0.46786 0.91086 0.0
C414 C 0.92445 0.43945 0.8969 0.0
C415 C 0.89706 0.45857 0.85657 0.0
C416 C 0.88031 0.42669 0.83457 0.0
C417 C 0.85462 0.44601 0.79313 0.0
C418 C 0.8453 0.49572 0.77434 0.0
C419 C 0.86128 0.52711 0.79623 0.0
C420 C 0.8869 0.50893 0.83692 0.0
H421 H 0.81939 0.3314 0.86005 0.0
C422 C 0.84973 0.32002 0.83095 0.0
H423 H 0.91503 0.33271 0.79119 0.0
H424 H 0.96632 0.39478 0.98032 0.0
H425 H 0.97749 0.30931 0.01579 0.0
H426 H 0.94875 0.25358 0.97737 0.0
H427 H 0.90853 0.28294 0.90347 0.0
C428 C 0.8866 0.34066 0.82257 0.0
C429 C 0.89036 0.3762 0.85355 0.0
C430 C 0.9125 0.35857 0.89742 0.0
C431 C 0.92934 0.39052 0.91938 0.0
C432 C 0.95294 0.37187 0.96221 0.0
C433 C 0.95953 0.32298 0.98291 0.0
C434 C 0.94333 0.2916 0.96128 0.0
C435 C 0.92028 0.30891 0.91888 0.0
H436 H 0.01255 0.72239 0.04251 0.0
C437 C 0.01441 0.69017 0.0256 0.0
H438 H 0.97462 0.64557 1.00903 0.0
H439 H 0.81197 0.7745 0.17654 0.0
H440 H 0.868 0.72767 0.23531 0.0
H441 H 0.94959 0.67096 0.2078 0.0
H442 H 0.97569 0.66096 0.12122 0.0
C443 C 0.97326 0.67673 0.02739 0.0
C444 C 0.92342 0.70899 0.04491 0.0
C445 C 0.90861 0.71397 0.09557 0.0
C446 C 0.86153 0.74654 0.11133 0.0
C447 C 0.84759 0.75078 0.16232 0.0
C448 C 0.87928 0.7239 0.19653 0.0
C449 C 0.92521 0.69198 0.18104 0.0
C450 C 0.93983 0.68676 0.13122 0.0
H451 H 0.72956 0.78826 0.07513 0.0
C452 C 0.73775 0.81589 0.09188 0.0
H453 H 0.79246 0.84233 0.11001 0.0
H454 H 0.93917 0.70506 0.94521 0.0
H455 H 0.88377 0.75205 0.88639 0.0
H456 H 0.80397 0.8122 0.91299 0.0
H457 H 0.77832 0.82372 0.99905 0.0
C458 C 0.78497 0.81445 0.0929 0.0
C459 C 0.82941 0.77425 0.07636 0.0
C460 C 0.84381 0.76843 0.0257 0.0
C461 C 0.89056 0.73507 0.01011 0.0
C462 C 0.90416 0.72986 0.95928 0.0
C463 C 0.87281 0.75696 0.92494 0.0
C464 C 0.82782 0.79057 0.93998 0.0
C465 C 0.8134 0.79659 0.98966 0.0
H466 H 0.62597 0.81597 0.3054 0.0
C467 C 0.60246 0.82848 0.27626 0.0
H468 H 0.54937 0.81453 0.24122 0.0
H469 H 0.62175 0.58454 0.30145 0.0
H470 H 0.68444 0.58754 0.2311 0.0
H471 H 0.69601 0.66724 0.19167 0.0
H472 H 0.64543 0.74434 0.2227 0.0
C473 C 0.57191 0.80305 0.27115 0.0
C474 C 0.57177 0.75507 0.30065 0.0
C475 C 0.60146 0.71042 0.28192 0.0
C476 C 0.594 0.66461 0.30388 0.0
C477 C 0.62488 0.62047 0.28512 0.0
C478 C 0.66121 0.62165 0.24501 0.0
C479 C 0.66777 0.66652 0.22285 0.0
C480 C 0.63839 0.71051 0.24094 0.0
H481 H 0.52046 0.61481 0.29414 0.0
C482 C 0.52238 0.59787 0.33206 0.0
H483 H 0.54428 0.60294 0.39982 0.0
H484 H 0.51359 0.83315 0.34892 0.0
H485 H 0.45229 0.83023 0.42069 0.0
H486 H 0.43791 0.75112 0.45802 0.0
H487 H 0.48455 0.67454 0.42405 0.0
C488 C 0.54194 0.61755 0.36154 0.0
C489 C 0.55596 0.66375 0.34373 0.0
C490 C 0.52893 0.70799 0.3648 0.0
C491 C 0.5369 0.75372 0.34314 0.0
C492 C 0.50865 0.79757 0.36395 0.0
C493 C 0.47348 0.79637 0.40511 0.0
C494 C 0.46542 0.75181 0.42616 0.0
C495 C 0.49255 0.70806 0.4063 0.0
loop_
_geom_bond_atom_site_label_1
_geom_bond_atom_site_label_2
_geom_bond_distance
_geom_bond_site_symmetry_2
_ccdc_geom_bond_type
C0 O16 1.251 . S
C0 O18 1.254 . S
N1 C2 1.333 . S
N1 C6 1.307 . S
N1 Zn7 2.020 . S
C2 N1 1.333 . S
C2 C3 1.379 . S
C2 H20 0.952 . S
C3 C2 1.379 . S
C3 C4 1.390 . S
C3 H30 0.949 . S
C4 C3 1.390 . S
C4 C5 1.357 . S
C5 C4 1.357 . S
C5 C6 1.370 . S
C5 H31 0.950 . S
C6 N1 1.307 . S
C6 C5 1.370 . S
C6 H24 0.948 . S
Zn7 N1 2.020 . S
Zn7 O16 2.039 . S
Zn7 O22 2.034 . S
Zn7 O26 2.025 . S
Zn7 O28 2.024 . S
C8 O27 1.246 . S
C8 O28 1.249 . S
N9 C10 1.307 . S
N9 C11 1.333 . S
N9 Zn15 2.020 . S
C10 N9 1.307 . S
C10 C14 1.370 . S
C10 H21 0.948 . S
C11 N9 1.333 . S
C11 C12 1.379 . S
C11 H19 0.952 . S
C12 C11 1.379 . S
C12 C13 1.390 . S
C12 H32 0.949 . S
C13 C12 1.390 . S
C13 C14 1.357 . S
C14 C10 1.370 . S
C14 C13 1.357 . S
C14 H33 0.950 . S
Zn15 N9 2.020 . S
Zn15 O18 2.025 . S
Zn15 O23 2.024 . S
Zn15 O25 2.039 . S
Zn15 O27 2.034 . S
O16 C0 1.251 . S
O16 Zn7 2.039 . S
C17 O22 1.246 . S
C17 O23 1.249 . S
O18 C0 1.254 . S
O18 Zn15 2.025 . S
H19 C11 0.952 . S
H20 C2 0.952 . S
H21 C10 0.948 . S
O22 Zn7 2.034 . S
O22 C17 1.246 . S
O23 Zn15 2.024 . S
O23 C17 1.249 . S
H24 C6 0.948 . S
O25 Zn15 2.039 . S
O25 C29 1.251 . S
O26 Zn7 2.025 . S
O26 C29 1.254 . S
O27 C8 1.246 . S
O27 Zn15 2.034 . S
O28 Zn7 2.024 . S
O28 C8 1.249 . S
C29 O25 1.251 . S
C29 O26 1.254 . S
H30 C3 0.949 . S
H31 C5 0.950 . S
H32 C12 0.949 . S
H33 C14 0.950 . S
C34 O50 1.251 . S
C34 O52 1.254 . S
N35 C36 1.333 . S
N35 C40 1.307 . S
N35 Zn41 2.020 . S
C36 N35 1.333 . S
C36 C37 1.379 . S
C36 H54 0.952 . S
C37 C36 1.379 . S
C37 C38 1.390 . S
C37 H64 0.949 . S
C38 C37 1.390 . S
C38 C39 1.357 1_545 S
C39 C38 1.357 1_565 S
C39 C40 1.370 1_565 S
C39 H65 0.950 . S
C40 N35 1.307 . S
C40 C39 1.370 1_545 S
C40 H58 0.948 . S
Zn41 N35 2.020 . S
Zn41 O50 2.039 . S
Zn41 O56 2.034 . S
Zn41 O60 2.025 . S
Zn41 O62 2.024 . S
C42 O61 1.246 . S
C42 O62 1.249 . S
N43 C44 1.307 . S
N43 C45 1.333 . S
N43 Zn49 2.020 . S
C44 N43 1.307 . S
C44 C48 1.370 . S
C44 H55 0.948 . S
C45 N43 1.333 . S
C45 C46 1.379 . S
C45 H53 0.952 . S
C46 C45 1.379 . S
C46 C47 1.390 . S
C46 H66 0.949 . S
C47 C46 1.390 . S
C47 C48 1.357 . S
C48 C44 1.370 . S
C48 C47 1.357 . S
C48 H67 0.950 . S
Zn49 N43 2.020 . S
Zn49 O52 2.025 . S
Zn49 O57 2.024 . S
Zn49 O59 2.039 . S
Zn49 O61 2.034 . S
O50 C34 1.251 . S
O50 Zn41 2.039 . S
C51 O56 1.246 . S
C51 O57 1.249 . S
O52 C34 1.254 . S
O52 Zn49 2.025 . S
H53 C45 0.952 . S
H54 C36 0.952 . S
H55 C44 0.948 . S
O56 Zn41 2.034 . S
O56 C51 1.246 . S
O57 Zn49 2.024 . S
O57 C51 1.249 . S
H58 C40 0.948 . S
O59 Zn49 2.039 . S
O59 C63 1.251 . S
O60 Zn41 2.025 . S
O60 C63 1.254 . S
O61 C42 1.246 . S
O61 Zn49 2.034 . S
O62 Zn41 2.024 . S
O62 C42 1.249 . S
C63 O59 1.251 . S
C63 O60 1.254 . S
H64 C37 0.949 . S
H65 C39 0.950 . S
H66 C46 0.949 . S
H67 C48 0.950 . S
C68 O84 1.251 . S
C68 O86 1.254 . S
N69 C70 1.333 . S
N69 C74 1.307 . S
N69 Zn75 2.020 . S
C70 N69 1.333 . S
C70 C71 1.379 . S
C70 H88 0.952 . S
C71 C70 1.379 . S
C71 C72 1.390 . S
C71 H98 0.949 1_556 S
C72 C71 1.390 . S
C72 C73 1.357 . S
C73 C72 1.357 . S
C73 C74 1.370 . S
C73 H99 0.950 . S
C74 N69 1.307 . S
C74 C73 1.370 . S
C74 H92 0.948 . S
Zn75 N69 2.020 . S
Zn75 O84 2.039 . S
Zn75 O90 2.034 . S
Zn75 O94 2.025 . S
Zn75 O96 2.024 . S
C76 O95 1.246 . S
C76 O96 1.249 . S
N77 C78 1.307 . S
N77 C79 1.333 . S
N77 Zn83 2.020 . S
C78 N77 1.307 . S
C78 C82 1.370 . S
C78 H89 0.948 . S
C79 N77 1.333 . S
C79 C80 1.379 . S
C79 H87 0.952 . S
C80 C79 1.379 . S
C80 C81 1.390 1_455 S
C80 H100 0.949 1_455 S
C81 C80 1.390 1_655 S
C81 C82 1.357 1_655 S
C82 C78 1.370 . S
C82 C81 1.357 1_455 S
C82 H101 0.950 1_455 S
Zn83 N77 2.020 . S
Zn83 O86 2.025 . S
Zn83 O91 2.024 . S
Zn83 O93 2.039 . S
Zn83 O95 2.034 . S
O84 C68 1.251 . S
O84 Zn75 2.039 . S
C85 O90 1.246 . S
C85 O91 1.249 . S
O86 C68 1.254 . S
O86 Zn83 2.025 . S
H87 C79 0.952 . S
H88 C70 0.952 . S
H89 C78 0.948 . S
O90 Zn75 2.034 . S
O90 C85 1.246 . S
O91 Zn83 2.024 . S
O91 C85 1.249 . S
H92 C74 0.948 . S
O93 Zn83 2.039 . S
O93 C97 1.251 . S
O94 Zn75 2.025 . S
O94 C97 1.254 . S
O95 C76 1.246 . S
O95 Zn83 2.034 . S
O96 Zn75 2.024 . S
O96 C76 1.249 . S
C97 O93 1.251 . S
C97 O94 1.254 . S
H98 C71 0.949 1_554 S
H99 C73 0.950 . S
H100 C80 0.949 1_655 S
H101 C82 0.950 1_655 S
C102 O118 1.251 . S
C102 O120 1.254 . S
N103 C104 1.333 . S
N103 C108 1.307 . S
N103 Zn109 2.020 . S
C104 N103 1.333 . S
C104 C105 1.379 . S
C104 H122 0.952 1_565 S
C105 C104 1.379 . S
C105 C106 1.390 . S
C105 H132 0.949 1_565 S
C106 C105 1.390 . S
C106 C107 1.357 . S
C107 C106 1.357 . S
C107 C108 1.370 . S
C107 H133 0.950 . S
C108 N103 1.307 . S
C108 C107 1.370 . S
C108 H126 0.948 . S
Zn109 N103 2.020 . S
Zn109 O118 2.039 . S
Zn109 O124 2.034 . S
Zn109 O128 2.025 . S
Zn109 O130 2.024 . S
C110 O129 1.246 . S
C110 O130 1.249 . S
N111 C112 1.307 . S
N111 C113 1.333 . S
N111 Zn117 2.020 . S
C112 N111 1.307 . S
C112 C116 1.368 1_554 S
C112 H123 0.948 . S
C113 N111 1.333 . S
C113 C114 1.379 . S
C113 H121 0.952 . S
C114 C113 1.379 . S
C114 C115 1.390 1_554 S
C114 H134 0.949 1_554 S
C115 C114 1.390 1_556 S
C115 C116 1.358 . S
C116 C112 1.368 1_556 S
C116 C115 1.358 . S
C116 H135 0.951 . S
Zn117 N111 2.020 . S
Zn117 O120 2.025 . S
Zn117 O125 2.024 . S
Zn117 O127 2.039 . S
Zn117 O129 2.034 . S
O118 C102 1.251 . S
O118 Zn109 2.039 . S
C119 O124 1.246 . S
C119 O125 1.249 . S
O120 C102 1.254 . S
O120 Zn117 2.025 . S
H121 C113 0.952 . S
H122 C104 0.952 1_545 S
H123 C112 0.948 . S
O124 Zn109 2.034 . S
O124 C119 1.246 . S
O125 Zn117 2.024 . S
O125 C119 1.249 . S
H126 C108 0.948 . S
O127 Zn117 2.039 . S
O127 C131 1.251 . S
O128 Zn109 2.025 . S
O128 C131 1.254 . S
O129 C110 1.246 . S
O129 Zn117 2.034 . S
O130 Zn109 2.024 . S
O130 C110 1.249 . S
C131 O127 1.251 . S
C131 O128 1.254 . S
H132 C105 0.949 1_545 S
H133 C107 0.950 . S
H134 C114 0.949 1_556 S
H135 C116 0.951 . S
H136 C137 0.951 . S
C137 H136 0.951 . S
C137 C143 1.265 . S
H138 C143 0.950 . S
H139 C147 0.949 . S
H140 C148 0.950 . S
H141 C149 0.951 . S
H142 C150 0.951 . S
C143 C137 1.265 . S
C143 H138 0.950 . S
C143 C144 1.478 . S
C144 C143 1.478 . S
C144 C145 1.397 . S
C144 C161 1.394 . S
C145 C144 1.397 . S
C145 C146 1.438 . S
C145 C150 1.429 . S
C146 C145 1.438 . S
C146 C147 1.428 . S
C146 C159 1.394 . S
C147 H139 0.949 . S
C147 C146 1.428 . S
C147 C148 1.345 . S
C148 H140 0.950 . S
C148 C147 1.345 . S
C148 C149 1.424 . S
C149 H141 0.951 . S
C149 C148 1.424 . S
C149 C150 1.347 . S
C150 H142 0.951 . S
C150 C145 1.429 . S
C150 C149 1.347 . S
H151 C152 0.951 . S
C152 H151 0.951 . S
C152 C158 1.265 . S
H153 C158 0.950 . S
H154 C162 0.949 . S
H155 C163 0.950 . S
H156 C164 0.951 . S
H157 C165 0.951 . S
C158 C152 1.265 . S
C158 H153 0.950 . S
C158 C159 1.478 . S
C159 C146 1.394 . S
C159 C158 1.478 . S
C159 C160 1.397 . S
C160 C159 1.397 . S
C160 C161 1.438 . S
C160 C165 1.429 . S
C161 C144 1.394 . S
C161 C160 1.438 . S
C161 C162 1.428 . S
C162 H154 0.949 . S
C162 C161 1.428 . S
C162 C163 1.345 . S
C163 H155 0.950 . S
C163 C162 1.345 . S
C163 C164 1.424 . S
C164 H156 0.951 . S
C164 C163 1.424 . S
C164 C165 1.347 . S
C165 H157 0.951 . S
C165 C160 1.429 . S
C165 C164 1.347 . S
H166 C167 0.951 . S
C167 H166 0.951 . S
C167 C173 1.265 . S
H168 C173 0.950 . S
H169 C177 0.949 . S
H170 C178 0.950 . S
H171 C179 0.951 . S
H172 C180 0.951 . S
C173 C167 1.265 . S
C173 H168 0.950 . S
C173 C174 1.478 . S
C174 C173 1.478 . S
C174 C175 1.397 . S
C174 C191 1.394 1_565 S
C175 C174 1.397 . S
C175 C176 1.438 . S
C175 C180 1.429 . S
C176 C175 1.438 . S
C176 C177 1.428 . S
C176 C189 1.394 . S
C177 H169 0.949 . S
C177 C176 1.428 . S
C177 C178 1.345 . S
C178 H170 0.950 . S
C178 C177 1.345 . S
C178 C179 1.424 . S
C179 H171 0.951 . S
C179 C178 1.424 . S
C179 C180 1.347 . S
C180 H172 0.951 . S
C180 C175 1.429 . S
C180 C179 1.347 . S
H181 C182 0.951 . S
C182 H181 0.951 . S
C182 C188 1.265 . S
H183 C188 0.950 . S
H184 C192 0.949 . S
H185 C193 0.950 . S
H186 C194 0.951 . S
H187 C195 0.951 . S
C188 C182 1.265 . S
C188 H183 0.950 . S
C188 C189 1.478 . S
C189 C176 1.394 . S
C189 C188 1.478 . S
C189 C190 1.397 1_565 S
C190 C189 1.397 1_545 S
C190 C191 1.438 . S
C190 C195 1.429 . S
C191 C174 1.394 1_545 S
C191 C190 1.438 . S
C191 C192 1.428 . S
C192 H184 0.949 . S
C192 C191 1.428 . S
C192 C193 1.345 . S
C193 H185 0.950 . S
C193 C192 1.345 . S
C193 C194 1.424 . S
C194 H186 0.951 . S
C194 C193 1.424 . S
C194 C195 1.347 . S
C195 H187 0.951 . S
C195 C190 1.429 . S
C195 C194 1.347 . S
H196 C197 0.951 . S
C197 H196 0.951 . S
C197 C203 1.265 . S
H198 C203 0.950 . S
H199 C207 0.949 . S
H200 C208 0.950 . S
H201 C209 0.951 . S
H202 C210 0.951 . S
C203 C197 1.265 . S
C203 H198 0.950 . S
C203 C204 1.478 . S
C204 C203 1.478 . S
C204 C205 1.397 . S
C204 C221 1.394 . S
C205 C204 1.397 . S
C205 C206 1.438 . S
C205 C210 1.429 . S
C206 C205 1.438 . S
C206 C207 1.428 . S
C206 C219 1.394 . S
C207 H199 0.949 . S
C207 C206 1.428 . S
C207 C208 1.345 . S
C208 H200 0.950 . S
C208 C207 1.345 . S
C208 C209 1.424 . S
C209 H201 0.951 . S
C209 C208 1.424 . S
C209 C210 1.347 . S
C210 H202 0.951 . S
C210 C205 1.429 . S
C210 C209 1.347 . S
H211 C212 0.951 . S
C212 H211 0.951 . S
C212 C218 1.265 . S
H213 C218 0.950 . S
H214 C222 0.949 . S
H215 C223 0.950 . S
H216 C224 0.951 . S
H217 C225 0.951 . S
C218 C212 1.265 . S
C218 H213 0.950 . S
C218 C219 1.478 . S
C219 C206 1.394 . S
C219 C218 1.478 . S
C219 C220 1.397 . S
C220 C219 1.397 . S
C220 C221 1.438 . S
C220 C225 1.429 . S
C221 C204 1.394 . S
C221 C220 1.438 . S
C221 C222 1.428 . S
C222 H214 0.949 . S
C222 C221 1.428 . S
C222 C223 1.345 . S
C223 H215 0.950 . S
C223 C222 1.345 . S
C223 C224 1.424 . S
C224 H216 0.951 . S
C224 C223 1.424 . S
C224 C225 1.347 . S
C225 H217 0.951 . S
C225 C220 1.429 . S
C225 C224 1.347 . S
H226 C227 0.951 . S
C227 H226 0.951 . S
C227 C233 1.265 1_564 S
H228 C233 0.950 . S
H229 C237 0.949 . S
H230 C238 0.950 . S
H231 C239 0.951 . S
H232 C240 0.951 . S
C233 C227 1.265 1_546 S
C233 H228 0.950 . S
C233 C234 1.478 . S
C234 C233 1.478 . S
C234 C235 1.397 . S
C234 C251 1.394 1_545 S
C235 C234 1.397 . S
C235 C236 1.438 . S
C235 C240 1.429 . S
C236 C235 1.438 . S
C236 C237 1.428 . S
C236 C249 1.394 . S
C237 H229 0.949 . S
C237 C236 1.428 . S
C237 C238 1.345 . S
C238 H230 0.950 . S
C238 C237 1.345 . S
C238 C239 1.424 . S
C239 H231 0.951 . S
C239 C238 1.424 . S
C239 C240 1.347 . S
C240 H232 0.951 . S
C240 C235 1.429 . S
C240 C239 1.347 . S
H241 C242 0.951 . S
C242 H241 0.951 . S
C242 C248 1.265 . S
H243 C248 0.950 . S
H244 C252 0.949 . S
H245 C253 0.950 . S
H246 C254 0.951 . S
H247 C255 0.951 . S
C248 C242 1.265 . S
C248 H243 0.950 . S
C248 C249 1.478 . S
C249 C236 1.394 . S
C249 C248 1.478 . S
C249 C250 1.397 . S
C250 C249 1.397 . S
C250 C251 1.438 1_545 S
C250 C255 1.429 1_545 S
C251 C234 1.394 1_565 S
C251 C250 1.438 1_565 S
C251 C252 1.428 . S
C252 H244 0.949 . S
C252 C251 1.428 . S
C252 C253 1.345 . S
C253 H245 0.950 . S
C253 C252 1.345 . S
C253 C254 1.424 . S
C254 H246 0.951 . S
C254 C253 1.424 . S
C254 C255 1.347 . S
C255 H247 0.951 . S
C255 C250 1.429 1_565 S
C255 C254 1.347 . S
H256 C257 0.951 . S
C257 H256 0.951 . S
C257 C263 1.265 . S
H258 C263 0.950 . S
H259 C267 0.949 . S
H260 C268 0.950 . S
H261 C269 0.951 1_655 S
H262 C270 0.951 1_655 S
C263 C257 1.265 . S
C263 H258 0.950 . S
C263 C264 1.478 1_655 S
C264 C263 1.478 1_455 S
C264 C265 1.397 . S
C264 C281 1.394 . S
C265 C264 1.397 . S
C265 C266 1.438 . S
C265 C270 1.429 . S
C266 C265 1.438 . S
C266 C267 1.428 . S
C266 C279 1.394 . S
C267 H259 0.949 . S
C267 C266 1.428 . S
C267 C268 1.345 . S
C268 H260 0.950 . S
C268 C267 1.345 . S
C268 C269 1.424 . S
C269 H261 0.951 1_455 S
C269 C268 1.424 . S
C269 C270 1.347 . S
C270 H262 0.951 1_455 S
C270 C265 1.429 . S
C270 C269 1.347 . S
H271 C272 0.951 . S
C272 H271 0.951 . S
C272 C278 1.265 . S
H273 C278 0.950 . S
H274 C282 0.949 . S
H275 C283 0.950 . S
H276 C284 0.951 . S
H277 C285 0.951 . S
C278 C272 1.265 . S
C278 H273 0.950 . S
C278 C279 1.478 . S
C279 C266 1.394 . S
C279 C278 1.478 . S
C279 C280 1.397 . S
C280 C279 1.397 . S
C280 C281 1.438 . S
C280 C285 1.429 . S
C281 C264 1.394 . S
C281 C280 1.438 . S
C281 C282 1.428 . S
C282 H274 0.949 . S
C282 C281 1.428 . S
C282 C283 1.345 . S
C283 H275 0.950 . S
C283 C282 1.345 . S
C283 C284 1.424 . S
C284 H276 0.951 . S
C284 C283 1.424 . S
C284 C285 1.347 . S
C285 H277 0.951 . S
C285 C280 1.429 . S
C285 C284 1.347 . S
H286 C287 0.951 . S
C287 H286 0.951 . S
C287 C293 1.265 . S
H288 C293 0.950 1_655 S
H289 C297 0.949 . S
H290 C298 0.950 . S
H291 C299 0.951 . S
H292 C300 0.951 . S
C293 C287 1.265 . S
C293 H288 0.950 1_455 S
C293 C294 1.478 . S
C294 C293 1.478 . S
C294 C295 1.397 1_455 S
C294 C311 1.394 . S
C295 C294 1.397 1_655 S
C295 C296 1.438 . S
C295 C300 1.429 . S
C296 C295 1.438 . S
C296 C297 1.428 . S
C296 C309 1.394 . S
C297 H289 0.949 . S
C297 C296 1.428 . S
C297 C298 1.345 . S
C298 H290 0.950 . S
C298 C297 1.345 . S
C298 C299 1.424 . S
C299 H291 0.951 . S
C299 C298 1.424 . S
C299 C300 1.347 . S
C300 H292 0.951 . S
C300 C295 1.429 . S
C300 C299 1.347 . S
H301 C302 0.951 . S
C302 H301 0.951 . S
C302 C308 1.265 1_545 S
H303 C308 0.950 1_445 S
H304 C312 0.949 . S
H305 C313 0.950 . S
H306 C314 0.951 . S
H307 C315 0.951 . S
C308 C302 1.265 1_565 S
C308 H303 0.950 1_665 S
C308 C309 1.478 . S
C309 C296 1.394 . S
C309 C308 1.478 . S
C309 C310 1.397 1_655 S
C310 C309 1.397 1_455 S
C310 C311 1.438 . S
C310 C315 1.429 . S
C311 C294 1.394 . S
C311 C310 1.438 . S
C311 C312 1.428 . S
C312 H304 0.949 . S
C312 C311 1.428 . S
C312 C313 1.345 . S
C313 H305 0.950 . S
C313 C312 1.345 . S
C313 C314 1.424 . S
C314 H306 0.951 . S
C314 C313 1.424 . S
C314 C315 1.347 . S
C315 H307 0.951 . S
C315 C310 1.429 . S
C315 C314 1.347 . S
H316 C317 0.951 . S
C317 H316 0.951 . S
C317 C323 1.265 . S
H318 C323 0.950 . S
H319 C327 0.949 . S
H320 C328 0.950 . S
H321 C329 0.951 . S
H322 C330 0.951 . S
C323 C317 1.265 . S
C323 H318 0.950 . S
C323 C324 1.478 . S
C324 C323 1.478 . S
C324 C325 1.397 . S
C324 C341 1.394 1_556 S
C325 C324 1.397 . S
C325 C326 1.438 . S
C325 C330 1.429 . S
C326 C325 1.438 . S
C326 C327 1.428 . S
C326 C339 1.394 . S
C327 H319 0.949 . S
C327 C326 1.428 . S
C327 C328 1.345 . S
C328 H320 0.950 . S
C328 C327 1.345 . S
C328 C329 1.424 . S
C329 H321 0.951 . S
C329 C328 1.424 . S
C329 C330 1.347 . S
C330 H322 0.951 . S
C330 C325 1.429 . S
C330 C329 1.347 . S
H331 C332 0.951 . S
C332 H331 0.951 . S
C332 C338 1.265 . S
H333 C338 0.950 . S
H334 C342 0.949 . S
H335 C343 0.950 . S
H336 C344 0.951 . S
H337 C345 0.951 . S
C338 C332 1.265 . S
C338 H333 0.950 . S
C338 C339 1.478 . S
C339 C326 1.394 . S
C339 C338 1.478 . S
C339 C340 1.397 1_556 S
C340 C339 1.397 1_554 S
C340 C341 1.438 . S
C340 C345 1.429 . S
C341 C324 1.394 1_554 S
C341 C340 1.438 . S
C341 C342 1.428 . S
C342 H334 0.949 . S
C342 C341 1.428 . S
C342 C343 1.345 . S
C343 H335 0.950 . S
C343 C342 1.345 . S
C343 C344 1.424 . S
C344 H336 0.951 . S
C344 C343 1.424 . S
C344 C345 1.347 . S
C345 H337 0.951 . S
C345 C340 1.429 . S
C345 C344 1.347 . S
H346 C347 0.951 . S
C347 H346 0.951 . S
C347 C353 1.265 . S
H348 C353 0.950 . S
H349 C357 0.949 . S
H350 C358 0.950 . S
H351 C359 0.951 . S
H352 C360 0.951 . S
C353 C347 1.265 . S
C353 H348 0.950 . S
C353 C354 1.478 . S
C354 C353 1.478 . S
C354 C355 1.397 . S
C354 C371 1.394 . S
C355 C354 1.397 . S
C355 C356 1.438 . S
C355 C360 1.429 . S
C356 C355 1.438 . S
C356 C357 1.428 . S
C356 C369 1.394 . S
C357 H349 0.949 . S
C357 C356 1.428 . S
C357 C358 1.345 . S
C358 H350 0.950 . S
C358 C357 1.345 . S
C358 C359 1.424 . S
C359 H351 0.951 . S
C359 C358 1.424 . S
C359 C360 1.347 . S
C360 H352 0.951 . S
C360 C355 1.429 . S
C360 C359 1.347 . S
H361 C362 0.951 . S
C362 H361 0.951 . S
C362 C368 1.265 . S
H363 C368 0.950 . S
H364 C372 0.949 . S
H365 C373 0.950 . S
H366 C374 0.951 . S
H367 C375 0.951 . S
C368 C362 1.265 . S
C368 H363 0.950 . S
C368 C369 1.478 . S
C369 C356 1.394 . S
C369 C368 1.478 . S
C369 C370 1.397 . S
C370 C369 1.397 . S
C370 C371 1.438 . S
C370 C375 1.429 . S
C371 C354 1.394 . S
C371 C370 1.438 . S
C371 C372 1.428 . S
C372 H364 0.949 . S
C372 C371 1.428 . S
C372 C373 1.345 . S
C373 H365 0.950 . S
C373 C372 1.345 . S
C373 C374 1.424 . S
C374 H366 0.951 . S
C374 C373 1.424 . S
C374 C375 1.347 . S
C375 H367 0.951 . S
C375 C370 1.429 . S
C375 C374 1.347 . S
H376 C377 0.951 . S
C377 H376 0.951 . S
C377 C383 1.265 . S
H378 C383 0.950 . S
H379 C387 0.949 . S
H380 C388 0.950 . S
H381 C389 0.951 . S
H382 C390 0.951 . S
C383 C377 1.265 . S
C383 H378 0.950 . S
C383 C384 1.478 . S
C384 C383 1.478 . S
C384 C385 1.397 . S
C384 C401 1.394 . S
C385 C384 1.397 . S
C385 C386 1.438 . S
C385 C390 1.429 . S
C386 C385 1.438 . S
C386 C387 1.428 . S
C386 C399 1.394 . S
C387 H379 0.949 . S
C387 C386 1.428 . S
C387 C388 1.345 . S
C388 H380 0.950 . S
C388 C387 1.345 . S
C388 C389 1.424 . S
C389 H381 0.951 . S
C389 C388 1.424 . S
C389 C390 1.347 . S
C390 H382 0.951 . S
C390 C385 1.429 . S
C390 C389 1.347 . S
H391 C392 0.951 . S
C392 H391 0.951 . S
C392 C398 1.265 . S
H393 C398 0.950 . S
H394 C402 0.949 . S
H395 C403 0.950 . S
H396 C404 0.951 . S
H397 C405 0.951 . S
C398 C392 1.265 . S
C398 H393 0.950 . S
C398 C399 1.478 . S
C399 C386 1.394 . S
C399 C398 1.478 . S
C399 C400 1.397 . S
C400 C399 1.397 . S
C400 C401 1.438 . S
C400 C405 1.429 . S
C401 C384 1.394 . S
C401 C400 1.438 . S
C401 C402 1.428 . S
C402 H394 0.949 . S
C402 C401 1.428 . S
C402 C403 1.345 . S
C403 H395 0.950 . S
C403 C402 1.345 . S
C403 C404 1.424 . S
C404 H396 0.951 . S
C404 C403 1.424 . S
C404 C405 1.347 . S
C405 H397 0.951 . S
C405 C400 1.429 . S
C405 C404 1.347 . S
H406 C407 0.951 1_455 S
C407 H406 0.951 1_655 S
C407 C413 1.265 . S
H408 C413 0.950 . S
H409 C417 0.949 . S
H410 C418 0.950 . S
H411 C419 0.951 . S
H412 C420 0.951 . S
C413 C407 1.265 . S
C413 H408 0.950 . S
C413 C414 1.478 . S
C414 C413 1.478 . S
C414 C415 1.397 . S
C414 C431 1.394 . S
C415 C414 1.397 . S
C415 C416 1.438 . S
C415 C420 1.429 . S
C416 C415 1.438 . S
C416 C417 1.428 . S
C416 C429 1.394 . S
C417 H409 0.949 . S
C417 C416 1.428 . S
C417 C418 1.345 . S
C418 H410 0.950 . S
C418 C417 1.345 . S
C418 C419 1.424 . S
C419 H411 0.951 . S
C419 C418 1.424 . S
C419 C420 1.347 . S
C420 H412 0.951 . S
C420 C415 1.429 . S
C420 C419 1.347 . S
H421 C422 0.951 . S
C422 H421 0.951 . S
C422 C428 1.265 . S
H423 C428 0.950 . S
H424 C432 0.949 . S
H425 C433 0.950 1_455 S
H426 C434 0.954 . S
H427 C435 0.951 . S
C428 C422 1.265 . S
C428 H423 0.950 . S
C428 C429 1.478 . S
C429 C416 1.394 . S
C429 C428 1.478 . S
C429 C430 1.397 . S
C430 C429 1.397 . S
C430 C431 1.438 . S
C430 C435 1.429 . S
C431 C414 1.394 . S
C431 C430 1.438 . S
C431 C432 1.428 . S
C432 H424 0.949 . S
C432 C431 1.428 . S
C432 C433 1.345 . S
C433 H425 0.950 1_655 S
C433 C432 1.345 . S
C433 C434 1.424 . S
C434 H426 0.954 . S
C434 C433 1.424 . S
C434 C435 1.347 . S
C435 H427 0.951 . S
C435 C430 1.429 . S
C435 C434 1.347 . S
H436 C437 0.951 . S
C437 H436 0.951 . S
C437 C443 1.265 1_456 S
H438 C443 0.950 . S
H439 C447 0.949 . S
H440 C448 0.950 . S
H441 C449 0.951 . S
H442 C450 0.951 . S
C443 C437 1.265 1_654 S
C443 H438 0.950 . S
C443 C444 1.478 . S
C444 C443 1.478 . S
C444 C445 1.397 . S
C444 C461 1.394 1_554 S
C445 C444 1.397 . S
C445 C446 1.438 . S
C445 C450 1.429 . S
C446 C445 1.438 . S
C446 C447 1.428 . S
C446 C459 1.394 . S
C447 H439 0.949 . S
C447 C446 1.428 . S
C447 C448 1.345 . S
C448 H440 0.950 . S
C448 C447 1.345 . S
C448 C449 1.424 . S
C449 H441 0.951 . S
C449 C448 1.424 . S
C449 C450 1.347 . S
C450 H442 0.951 . S
C450 C445 1.429 . S
C450 C449 1.347 . S
H451 C452 0.951 . S
C452 H451 0.951 . S
C452 C458 1.265 . S
H453 C458 0.950 . S
H454 C462 0.949 . S
H455 C463 0.950 . S
H456 C464 0.951 . S
H457 C465 0.951 . S
C458 C452 1.265 . S
C458 H453 0.950 . S
C458 C459 1.478 . S
C459 C446 1.394 . S
C459 C458 1.478 . S
C459 C460 1.397 1_554 S
C460 C459 1.397 1_556 S
C460 C461 1.438 . S
C460 C465 1.429 . S
C461 C444 1.394 1_556 S
C461 C460 1.438 . S
C461 C462 1.428 . S
C462 H454 0.949 . S
C462 C461 1.428 . S
C462 C463 1.345 . S
C463 H455 0.950 . S
C463 C462 1.345 . S
C463 C464 1.424 . S
C464 H456 0.951 . S
C464 C463 1.424 . S
C464 C465 1.347 . S
C465 H457 0.951 . S
C465 C460 1.429 . S
C465 C464 1.347 . S
H466 C467 0.951 . S
C467 H466 0.951 . S
C467 C473 1.265 . S
H468 C473 0.950 . S
H469 C477 0.949 . S
H470 C478 0.950 . S
H471 C479 0.951 . S
H472 C480 0.951 . S
C473 C467 1.265 . S
C473 H468 0.950 . S
C473 C474 1.478 . S
C474 C473 1.478 . S
C474 C475 1.397 . S
C474 C491 1.394 . S
C475 C474 1.397 . S
C475 C476 1.438 . S
C475 C480 1.429 . S
C476 C475 1.438 . S
C476 C477 1.428 . S
C476 C489 1.394 . S
C477 H469 0.949 . S
C477 C476 1.428 . S
C477 C478 1.345 . S
C478 H470 0.950 . S
C478 C477 1.345 . S
C478 C479 1.424 . S
C479 H471 0.951 . S
C479 C478 1.424 . S
C479 C480 1.347 . S
C480 H472 0.951 . S
C480 C475 1.429 . S
C480 C479 1.347 . S
H481 C482 0.951 . S
C482 H481 0.951 . S
C482 C488 1.265 . S
H483 C488 0.950 . S
H484 C492 0.949 . S
H485 C493 0.950 . S
H486 C494 0.951 . S
H487 C495 0.951 . S
C488 C482 1.265 . S
C488 H483 0.950 . S
C488 C489 1.478 . S
C489 C476 1.394 . S
C489 C488 1.478 . S
C489 C490 1.397 . S
C490 C489 1.397 . S
C490 C491 1.438 . S
C490 C495 1.429 . S
C491 C474 1.394 . S
C491 C490 1.438 . S
C491 C492 1.428 . S
C492 H484 0.949 . S
C492 C491 1.428 . S
C492 C493 1.345 . S
C493 H485 0.950 . S
C493 C492 1.345 . S
C493 C494 1.424 . S
C494 H486 0.951 . S
C494 C493 1.424 . S
C494 C495 1.347 . S
C495 H487 0.951 . S
C495 C490 1.429 . S
C495 C494 1.347 . S
C137 C68 2.314 1_554 S
C152 C0 2.315 . S
C167 C106 0.831 . S
C182 C38 0.797 1_565 S
C197 C76 2.197 . S
C212 C8 2.215 . S
C227 C119 0.923 . S
C242 C51 0.936 . S
C257 C42 1.560 . S
C272 C13 1.580 . S
C287 C97 1.039 . S
C302 C63 1.023 . S
C317 C72 1.011 . S
C332 C115 0.983 . S
C347 C17 2.029 . S
C362 C102 2.001 1_545 S
C377 C34 1.969 . S
C392 C29 2.000 . S
C407 C81 0.968 . S
C422 C47 0.991 . S
C437 C85 1.091 . S
C452 C131 1.108 . S
C467 C110 1.512 . S
C482 C4 1.548 . S
