# Generated by pormake.
# Topology smu, (6)-cn, num edge types: 1
# Building blocks:
#     Node 0, Type 0, BuildingBlock: PAMTUU_clean_sbu_0, # of connection points: 6
#     Node 1, Type 0, BuildingBlock: PAMTUU_clean_sbu_0, # of connection points: 6
#     Node 2, Type 0, BuildingBlock: PAMTUU_clean_sbu_0, # of connection points: 6
#     Node 3, Type 0, BuildingBlock: PAMTUU_clean_sbu_0, # of connection points: 6
#     Node 4, Type 0, BuildingBlock: PAMTUU_clean_sbu_0, # of connection points: 6
#     Node 5, Type 0, BuildingBlock: PAMTUU_clean_sbu_0, # of connection points: 6
#     Edge 6, Type (0, 0), BuildingBlock: AJUNOK_clean_linker_0, # of connection points: 2
#     Edge 7, Type (0, 0), BuildingBlock: AJUNOK_clean_linker_0, # of connection points: 2
#     Edge 8, Type (0, 0), BuildingBlock: AJUNOK_clean_linker_0, # of connection points: 2
#     Edge 9, Type (0, 0), BuildingBlock: AJUNOK_clean_linker_0, # of connection points: 2
#     Edge 10, Type (0, 0), BuildingBlock: AJUNOK_clean_linker_0, # of connection points: 2
#     Edge 11, Type (0, 0), BuildingBlock: AJUNOK_clean_linker_0, # of connection points: 2
#     Edge 12, Type (0, 0), BuildingBlock: AJUNOK_clean_linker_0, # of connection points: 2
#     Edge 13, Type (0, 0), BuildingBlock: AJUNOK_clean_linker_0, # of connection points: 2
#     Edge 14, Type (0, 0), BuildingBlock: AJUNOK_clean_linker_0, # of connection points: 2
#     Edge 15, Type (0, 0), BuildingBlock: AJUNOK_clean_linker_0, # of connection points: 2
#     Edge 16, Type (0, 0), BuildingBlock: AJUNOK_clean_linker_0, # of connection points: 2
#     Edge 17, Type (0, 0), BuildingBlock: AJUNOK_clean_linker_0, # of connection points: 2
#     Edge 18, Type (0, 0), BuildingBlock: AJUNOK_clean_linker_0, # of connection points: 2
#     Edge 19, Type (0, 0), BuildingBlock: AJUNOK_clean_linker_0, # of connection points: 2
#     Edge 20, Type (0, 0), BuildingBlock: AJUNOK_clean_linker_0, # of connection points: 2
#     Edge 21, Type (0, 0), BuildingBlock: AJUNOK_clean_linker_0, # of connection points: 2
#     Edge 22, Type (0, 0), BuildingBlock: AJUNOK_clean_linker_0, # of connection points: 2
#     Edge 23, Type (0, 0), BuildingBlock: AJUNOK_clean_linker_0, # of connection points: 2
# Relax obj value: 0.227
# Max RMSD: 0.333
# Mean RMSD: 0.333
data_MOF--net-smu--node1-PAMTUU_clean_sbu_0--edge1-AJUNOK_clean_linker_0
_symmetry_space_group_name_H-M    P1
_symmetry_Int_Tables_number       1
_symmetry_cell_setting            triclinic
loop_
_symmetry_equiv_pos_as_xyz
'x, y, z'
_cell_length_a     31.454215
_cell_length_b     31.51632
_cell_length_c     19.628884
_cell_angle_alpha  89.734689
_cell_angle_beta   90.776151
_cell_angle_gamma 120.20503
loop_
_atom_site_label
_atom_site_type_symbol
_atom_site_fract_x
_atom_site_fract_y
_atom_site_fract_z
_atom_type_partial_charge
Tb0 Tb 0.32018 0.12903 0.2654 0.0
Tb1 Tb 0.4031 0.09555 0.29309 0.0
C2 C 0.35509 0.08203 0.14688 0.0
C3 C 0.24796 0.1979 0.25824 0.0
C4 C 0.19565 0.24716 0.28599 0.0
C5 C 0.21333 0.24806 0.2203 0.0
C6 C 0.23927 0.22376 0.2067 0.0
C7 C 0.23368 0.20003 0.32506 0.0
C8 C 0.20793 0.22457 0.33879 0.0
C9 C 0.2643 0.16314 0.23842 0.0
O10 O 0.28316 0.05225 0.24304 0.0
O11 O 0.33 0.02723 0.30411 0.0
O12 O 0.37844 0.10716 0.39059 0.0
O13 O 0.30169 0.09477 0.36627 0.0
O14 O 0.44545 0.063 0.26864 0.0
O15 O 0.45935 0.10424 0.36108 0.0
O16 O 0.43944 0.17183 0.25714 0.0
O17 O 0.3866 0.18877 0.31062 0.0
O18 O 0.33465 0.10837 0.16409 0.0
O19 O 0.38161 0.07255 0.18949 0.0
C20 C 0.288 1.01781 0.27364 0.0
O21 O 0.25239 0.12536 0.27775 0.0
O22 O 0.30819 0.18084 0.21302 0.0
C23 C 0.33265 0.09093 0.40804 0.0
C24 C 0.52853 0.10753 0.30952 0.0
C25 C 0.63228 0.15785 0.29308 0.0
C26 C 0.60992 0.12438 0.34676 0.0
C27 C 0.55874 0.09958 0.35481 0.0
C28 C 0.55054 0.14058 0.25534 0.0
C29 C 0.60188 0.16522 0.24694 0.0
C30 C 0.47466 0.08198 0.32126 0.0
C31 C 0.43008 0.20384 0.28539 0.0
H32 H 0.20377 0.26408 0.17813 0.0
H33 H 0.24961 0.22235 0.15467 0.0
H34 H 0.2399 0.18045 0.36588 0.0
H35 H 0.19497 0.22333 0.39003 0.0
H36 H 0.63206 0.11707 0.38236 0.0
H37 H 0.54269 0.07422 0.39687 0.0
H38 H 0.52811 0.14758 0.21985 0.0
H39 H 0.61793 0.19068 0.20504 0.0
Tb40 Tb 0.84825 0.73143 0.26697 0.0
Tb41 Tb 0.73264 0.64629 0.29121 0.0
C42 C 0.76677 0.69462 0.14535 0.0
C43 C 0.98886 0.80285 0.27473 0.0
C44 C 0.09133 0.84941 0.30119 0.0
C45 C 0.06939 0.81319 0.2505 0.0
C46 C 1.01871 0.79018 0.23734 0.0
C47 C 1.01018 0.8357 0.32984 0.0
C48 C 0.06097 0.85876 0.34288 0.0
C49 C 0.93902 0.78904 0.24802 0.0
O50 O 0.80445 0.76372 0.24115 0.0
O51 O 0.7382 0.71894 0.31014 0.0
O52 O 0.76967 0.66943 0.39 0.0
O53 O 0.83177 0.74758 0.36868 0.0
O54 O 0.65725 0.60408 0.26402 0.0
O55 O 0.68501 0.58948 0.35628 0.0
O56 O 0.77334 0.61072 0.2562 0.0
O57 O 0.84343 0.6659 0.3097 0.0
O58 O 0.81378 0.71418 0.16375 0.0
O59 O 0.73103 0.6693 0.18808 0.0
C60 C 0.76965 0.7609 0.2799 0.0
O61 O 0.91148 0.80003 0.28453 0.0
O62 O 0.91339 0.74644 0.21788 0.0
C63 C 0.79906 0.7149 0.41015 0.0
C64 C 0.61746 0.52113 0.303 0.0
C65 C 0.56061 0.41712 0.29318 0.0
C66 C 0.53914 0.44491 0.31328 0.0
C67 C 0.56725 0.49616 0.31838 0.0
C68 C 0.63883 0.4939 0.28013 0.0
C69 C 0.61059 0.44237 0.27497 0.0
C70 C 0.64703 0.57478 0.3159 0.0
C71 C 0.81697 0.62292 0.28129 0.0
H72 H 0.09214 0.80631 0.21653 0.0
H73 H 1.00364 0.7654 0.19422 0.0
H74 H 0.98846 0.84659 0.35954 0.0
H75 H 0.07714 0.88749 0.38111 0.0
H76 H 0.50051 0.4269 0.32595 0.0
H77 H 0.54988 0.51628 0.33586 0.0
H78 H 0.67754 0.51236 0.26787 0.0
H79 H 0.62822 0.42217 0.25896 0.0
Tb80 Tb 0.91009 0.20398 0.26677 0.0
Tb81 Tb 0.95669 0.32186 0.27451 0.0
C82 C 0.97012 0.27135 0.14465 0.0
C83 C 0.84478 0.0611 0.2777 0.0
C84 C 0.81054 0.96032 0.29975 0.0
C85 C 0.83263 0.98284 0.23803 0.0
C86 C 0.84937 0.03244 0.2271 0.0
C87 C 0.82227 0.03863 0.3396 0.0
C88 C 0.80542 0.98853 0.35065 0.0
C89 C 0.85676 0.1116 0.25988 0.0
O90 O 0.98534 0.22775 0.29317 0.0
O91 O 1.02232 0.31226 0.27554 0.0
O92 O 0.97457 0.30769 0.37434 0.0
O93 O 0.92713 0.22269 0.37654 0.0
O94 O 0.9691 0.38368 0.21769 0.0
O95 O 0.98055 0.38903 0.32612 0.0
O96 O 0.87883 0.28384 0.30182 0.0
O97 O 0.86114 0.22696 0.22309 0.0
O98 O 0.95623 0.22982 0.17678 0.0
O99 O 0.95875 0.30349 0.16773 0.0
C100 C 1.02472 0.27181 0.28841 0.0
O101 O 0.85077 0.13857 0.30475 0.0
O102 O 0.89406 0.13761 0.2203 0.0
C103 C 0.95691 0.26568 0.40606 0.0
C104 C 0.94846 0.43671 0.27692 0.0
C105 C 0.90068 0.493 0.28156 0.0
C106 C 0.93888 0.5018 0.32795 0.0
C107 C 0.96264 0.47428 0.32531 0.0
C108 C 0.90865 0.42616 0.23264 0.0
C109 C 0.88506 0.45397 0.235 0.0
C110 C 0.97685 0.41065 0.27159 0.0
C111 C 0.84598 0.24946 0.26252 0.0
H112 H 0.83702 0.96185 0.19796 0.0
H113 H 0.86512 0.04819 0.17818 0.0
H114 H 0.8172 0.05953 0.37905 0.0
H115 H 0.7891 0.97206 0.39897 0.0
H116 H 0.95099 0.53059 0.36586 0.0
H117 H 0.99279 0.48297 0.3605 0.0
H118 H 0.89634 0.39712 0.1951 0.0
H119 H 0.85569 0.44599 0.19876 0.0
Tb120 Tb 0.10526 0.39484 0.78581 0.0
Tb121 Tb 0.13303 0.30685 0.77152 0.0
C122 C 0.10281 0.33278 0.9118 0.0
C123 C 0.1268 0.52401 0.7994 0.0
C124 C 0.17681 0.62816 0.79779 0.0
C125 C 0.14074 0.60139 0.84675 0.0
C126 C 0.11594 0.54996 0.84734 0.0
C127 C 0.1647 0.55075 0.75257 0.0
C128 C 0.18951 0.6023 0.75193 0.0
C129 C 0.09535 0.46968 0.79537 0.0
O130 O 0.18113 0.42653 0.75162 0.0
O131 O 0.19715 0.37342 0.80807 0.0
O132 O 0.10736 0.31561 0.66935 0.0
O133 O 0.06809 0.35855 0.6932 0.0
O134 O 0.13623 0.24403 0.80015 0.0
O135 O 0.17344 0.28538 0.71012 0.0
O136 O 0.05404 0.26653 0.76724 0.0
O137 O 0.0342 0.32569 0.79996 0.0
O138 O 0.11912 0.37734 0.88799 0.0
O139 O 0.10385 0.29847 0.87475 0.0
C140 C 0.21277 0.41655 0.78079 0.0
O141 O 0.09546 0.44902 0.73816 0.0
O142 O 0.09534 0.44398 0.84762 0.0
C143 C 0.07556 0.33002 0.65309 0.0
C144 C 0.20205 0.23401 0.75743 0.0
C145 C 0.25906 0.18782 0.77406 0.0
C146 C 0.24136 0.19127 0.70937 0.0
C147 C 0.21329 0.21415 0.70124 0.0
C148 C 0.22309 0.23445 0.82118 0.0
C149 C 0.25189 0.21214 0.82918 0.0
C150 C 0.1636 0.2477 0.74848 0.0
C151 C 1.02226 0.27977 0.78532 0.0
H152 H 0.13073 0.62028 0.88353 0.0
H153 H 0.08707 0.53038 0.88404 0.0
H154 H 0.1741 0.53187 0.71497 0.0
H155 H 0.21709 0.62186 0.71361 0.0
H156 H 0.24603 0.17313 0.66577 0.0
H157 H 0.19769 0.21356 0.65144 0.0
H158 H 0.21549 0.24998 0.86529 0.0
H159 H 0.26629 0.21161 0.8794 0.0
Tb160 Tb 0.33481 0.94918 0.75979 0.0
Tb161 Tb 0.21803 0.90834 0.77698 0.0
C162 C 0.29589 0.9585 0.90268 0.0
C163 C 0.44517 0.93368 0.74499 0.0
C164 C 0.49617 0.8804 0.7581 0.0
C165 C 0.49329 0.90726 0.81331 0.0
C166 C 0.4682 0.9335 0.8069 0.0
C167 C 0.44763 0.9064 0.68999 0.0
C168 C 0.47262 0.88007 0.69648 0.0
C169 C 0.4203 0.96338 0.73649 0.0
O170 O 0.29889 0.87315 0.79582 0.0
O171 O 0.23362 0.85551 0.73118 0.0
O172 O 0.23492 0.95024 0.68255 0.0
O173 O 0.30257 0.94428 0.65893 0.0
O174 O 0.15616 0.85625 0.83236 0.0
O175 O 0.14822 0.88999 0.73982 0.0
O176 O 0.24737 0.985 0.79591 0.0
O177 O 0.32852 1.01707 0.76052 0.0
O178 O 0.33321 0.96991 0.86288 0.0
O179 O 0.24942 0.9312 0.88159 0.0
C180 C 0.25865 0.8401 0.76566 0.0
O181 O 0.385 0.94789 0.69119 0.0
O182 O 0.40901 0.97877 0.79111 0.0
C183 C 0.271 0.95836 0.64182 0.0
C184 C 0.07501 0.844 0.80597 0.0
C185 C 0.97295 0.80525 0.82317 0.0
C186 C 0.99984 0.84477 0.77871 0.0
C187 C 0.05019 0.86384 0.77003 0.0
C188 C 0.04829 0.80487 0.85126 0.0
C189 C 0.99762 0.78564 0.85988 0.0
C190 C 0.12578 0.85762 0.78758 0.0
C191 C 0.29128 0.02243 0.78231 0.0
H192 H 0.51095 0.9084 0.86157 0.0
H193 H 0.46742 0.95416 0.85034 0.0
H194 H 0.43089 0.90605 0.64125 0.0
H195 H 0.47494 0.86084 0.65239 0.0
H196 H 0.98158 0.86041 0.74953 0.0
H197 H 0.06926 0.89312 0.73353 0.0
H198 H 0.0663 0.78815 0.87849 0.0
H199 H 0.97778 0.75556 0.89497 0.0
Tb200 Tb 0.6561 0.71672 0.78238 0.0
Tb201 Tb 0.73703 0.83359 0.77353 0.0
C202 C 0.71105 0.77462 0.91137 0.0
C203 C 0.5305 0.60428 0.78927 0.0
C204 C 0.42594 0.55154 0.78905 0.0
C205 C 0.45299 0.56284 0.85062 0.0
C206 C 0.5046 0.58886 0.85074 0.0
C207 C 0.50336 0.59347 0.72776 0.0
C208 C 0.45181 0.56754 0.72769 0.0
C209 C 0.58526 0.62901 0.78894 0.0
O210 O 0.6187 0.75611 0.74667 0.0
O211 O 0.66764 0.82305 0.80933 0.0
O212 O 0.73172 0.80495 0.66844 0.0
O213 O 0.69461 0.72225 0.69046 0.0
O214 O 0.79999 0.89862 0.80617 0.0
O215 O 0.74914 0.89992 0.72953 0.0
O216 O 0.78087 0.79994 0.76167 0.0
O217 O 0.72882 0.72332 0.80816 0.0
O218 O 0.66713 0.74802 0.88382 0.0
O219 O 0.74575 0.81108 0.87647 0.0
C220 C 0.62642 0.7967 0.77614 0.0
O221 O 0.60689 0.65081 0.73274 0.0
O222 O 0.60936 0.6551 0.84213 0.0
C223 C 0.7205 0.75982 0.65073 0.0
C224 C 0.81925 0.97924 0.76362 0.0
C225 C 0.87194 0.08269 0.77334 0.0
C226 C 0.82768 0.05855 0.73576 0.0
C227 C 0.80143 1.0072 0.73115 0.0
C228 C 0.86457 1.00355 0.79853 0.0
C229 C 0.89073 0.0547 0.80306 0.0
C230 C 0.78864 0.92522 0.76718 0.0
C231 C 0.77354 0.75947 0.7914 0.0
H232 H 0.43415 0.55097 0.89877 0.0
H233 H 0.52422 0.59618 0.89898 0.0
H234 H 0.52189 0.60412 0.67929 0.0
H235 H 0.43223 0.55849 0.67929 0.0
H236 H 0.81279 0.07931 0.71152 0.0
H237 H 0.76648 0.98938 0.704 0.0
H238 H 0.8794 0.98303 0.82365 0.0
H239 H 0.92568 0.07241 0.8302 0.0
C240 C 0.27637 0.99713 1.0017 0.0
C241 C 0.30875 0.98504 0.96967 0.0
C242 C 0.29234 0.0312 0.05613 0.0
C243 C 0.34104 0.05362 0.08177 0.0
H244 H 0.23874 0.98111 0.98361 0.0
H245 H 0.26594 0.03886 0.07958 0.0
S246 S 0.43881 0.03014 1.02187 0.0
N247 N 0.39095 0.9955 0.97232 0.0
N248 N 0.42039 0.05861 0.07362 0.0
C249 C 0.37308 0.04032 0.05191 0.0
C250 C 0.35705 1.00612 0.99662 0.0
C251 C 0.76703 0.78525 0.53852 0.0
C252 C 0.74364 0.75029 0.59048 0.0
C253 C 0.78832 0.77529 0.48216 0.0
C254 C 0.78714 0.73006 0.47572 0.0
H255 H 0.76796 0.82004 0.54052 0.0
H256 H 0.80385 0.80234 0.44203 0.0
S257 S 0.73667 0.62855 0.60101 0.0
N258 N 0.72546 0.66996 0.63368 0.0
N259 N 0.76474 0.65216 0.52863 0.0
C260 C 0.7661 0.696 0.52861 0.0
C261 C 0.74456 0.70582 0.58558 0.0
C262 C 1.00646 0.32037 0.03808 0.0
C263 C 1.00354 0.28506 0.08488 0.0
C264 C 0.04006 0.33671 0.98424 0.0
C265 C 0.07233 0.31849 0.97445 0.0
H266 H 0.98234 0.33542 0.04277 0.0
H267 H 0.03964 0.36289 0.94867 0.0
S268 S 0.08427 0.23033 0.08718 0.0
N269 N 0.03947 0.23577 0.12117 0.0
N270 N 0.10157 0.26571 1.01891 0.0
C271 C 0.07068 0.284 1.02151 0.0
C272 C 0.03666 0.26755 0.0769 0.0
C273 C 0.33244 0.02523 0.47892 0.0
C274 C 0.31406 0.05724 0.46757 0.0
C275 C 0.31607 0.99173 0.53288 0.0
C276 C 0.28087 0.98884 0.57905 0.0
H277 H 0.35973 0.02571 0.44532 0.0
H278 H 0.33215 0.96855 0.5391 0.0
S279 S 0.2214 0.06524 0.57271 0.0
N280 N 0.25807 0.08363 0.5062 0.0
N281 N 0.22821 0.02176 0.60966 0.0
C282 C 0.26149 0.02023 0.56787 0.0
C283 C 0.27782 0.05409 0.51175 0.0
C284 C 0.7743 0.77409 0.99235 0.0
C285 C 0.72454 0.75516 0.97297 0.0
C286 C 0.78816 0.75267 0.0451 0.0
C287 C 0.75292 0.71118 0.08103 0.0
H288 H 0.80304 0.80571 0.96642 0.0
H289 H 0.82676 0.76972 0.05895 0.0
S290 S 0.61755 0.64611 0.04915 0.0
N291 N 0.63999 0.69181 0.99425 0.0
N292 N 0.66565 0.65101 0.09096 0.0
C293 C 0.70307 0.69132 0.06109 0.0
C294 C 0.68902 0.71345 1.00809 0.0
C295 C 1.01582 0.25976 0.48699 0.0
C296 C 0.9771 0.26933 0.47563 0.0
C297 C 0.04748 0.27903 0.54437 0.0
C298 C 0.04194 0.30916 0.5921 0.0
H299 H 1.02347 0.23968 0.44932 0.0
H300 H 0.07729 0.27142 0.55013 0.0
S301 S 0.9423 0.34066 0.5876 0.0
N302 N 0.93271 0.30752 0.51827 0.0
N303 N 0.99075 0.34354 0.6257 0.0
C304 C 1.0015 0.31681 0.58232 0.0
C305 C 0.96951 0.29695 0.52437 0.0
C306 C 0.70796 0.18309 0.22268 0.0
C307 C 0.68707 0.1844 0.2851 0.0
C308 C 0.7593 0.20501 0.21552 0.0
C309 C 0.79206 0.23021 0.26997 0.0
H310 H 0.68437 0.16367 0.17954 0.0
H311 H 0.77344 0.20184 0.16696 0.0
S312 S 0.75631 0.24613 0.44334 0.0
N313 N 0.70343 0.21414 0.40192 0.0
N314 N 0.7995 0.25592 0.3882 0.0
C315 C 0.77168 0.23301 0.33207 0.0
C316 C 0.71941 0.20994 0.3397 0.0
C317 C 0.52989 0.33396 0.23716 0.0
C318 C 0.53091 0.36205 0.29367 0.0
C319 C 0.49892 0.28237 0.23555 0.0
C320 C 0.46768 0.25708 0.29023 0.0
H321 H 0.55192 0.35213 0.19297 0.0
H322 H 0.49795 0.26248 0.19015 0.0
S323 S 0.46234 0.31215 0.45428 0.0
N324 N 0.50228 0.35937 0.40885 0.0
N325 N 0.44375 0.26344 0.40511 0.0
C326 C 0.47025 0.28446 0.3481 0.0
C327 C 0.50189 0.33658 0.35002 0.0
C328 C 0.82783 0.50698 0.27565 0.0
C329 C 0.87919 0.52607 0.27959 0.0
C330 C 0.80756 0.53812 0.27479 0.0
C331 C 0.83788 0.58956 0.27807 0.0
H332 H 0.80306 0.46763 0.27443 0.0
H333 H 0.76793 0.52175 0.27307 0.0
S334 S 0.97474 0.65826 0.2801 0.0
N335 N 0.95967 0.59999 0.28017 0.0
N336 N 0.92217 0.658 0.2798 0.0
C337 C 0.88927 0.60897 0.27991 0.0
C338 C 0.90973 0.57745 0.28039 0.0
C339 C 0.24922 0.71492 0.78942 0.0
C340 C 0.19794 0.68237 0.79113 0.0
C341 C 0.26903 0.76609 0.78262 0.0
C342 C 0.23821 0.78634 0.77533 0.0
H343 H 0.27417 0.70075 0.79395 0.0
H344 H 0.30862 0.7898 0.78169 0.0
S345 S 0.10148 0.71688 0.77573 0.0
N346 N 0.11706 0.67438 0.78494 0.0
N347 N 0.15378 0.76945 0.77072 0.0
C348 C 0.18696 0.754 0.77654 0.0
C349 C 0.16697 0.70237 0.78478 0.0
C350 C 0.57474 0.88288 0.79188 0.0
C351 C 0.52708 0.85645 0.76343 0.0
C352 C 0.60572 0.86286 0.79581 0.0
C353 C 0.59081 0.81519 0.77156 0.0
H354 H 0.5888 0.92002 0.81021 0.0
H355 H 0.64216 0.88561 0.81754 0.0
S356 S 0.46808 0.72882 0.6966 0.0
N357 N 0.46535 0.77873 0.71338 0.0
N358 N 0.52375 0.74115 0.72049 0.0
C359 C 0.54289 0.78784 0.74382 0.0
C360 C 0.51112 0.80841 0.73976 0.0
C361 C 0.29822 0.44314 0.82297 0.0
C362 C 0.26659 0.45333 0.78354 0.0
C363 C 0.34919 0.4756 0.82557 0.0
C364 C 0.37116 0.51972 0.78854 0.0
H365 H 0.28366 0.40946 0.85198 0.0
H366 H 0.37176 0.46535 0.85563 0.0
S367 S 0.30527 0.56598 0.68079 0.0
N368 N 0.26128 0.51242 0.70886 0.0
N369 N 0.35716 0.57333 0.71379 0.0
C370 C 0.34012 0.53109 0.74993 0.0
C371 C 0.28793 0.49806 0.74756 0.0
C372 C 0.11321 0.22653 0.3282 0.0
C373 C 0.1569 0.2606 0.29615 0.0
C374 C 0.07217 0.2325 0.32837 0.0
C375 C 0.0725 0.27299 0.29678 0.0
H376 H 0.10946 0.19318 0.35 0.0
H377 H 0.03904 0.20356 0.3513 0.0
S378 S 0.17995 0.3763 0.21324 0.0
N379 N 0.2 0.3391 0.23763 0.0
N380 N 0.12213 0.35023 0.23777 0.0
C381 C 0.11691 0.30914 0.26824 0.0
C382 C 0.15911 0.30288 0.26774 0.0
C383 C 0.15339 0.92499 0.24629 0.0
C384 C 0.14355 0.88804 0.29363 0.0
C385 C 0.20084 0.96421 0.23752 0.0
C386 C 0.24122 0.96947 0.27696 0.0
H387 H 0.12369 0.92405 0.21635 0.0
H388 H 0.20509 0.99167 0.20056 0.0
S389 S 0.23541 0.87905 0.40367 0.0
N390 N 0.17783 0.8557 0.37674 0.0
N391 N 0.26807 0.93116 0.36194 0.0
C392 C 0.2323 0.93142 0.32284 0.0
C393 C 0.18323 0.89048 0.33109 0.0
C394 C 0.83573 0.89797 0.30339 0.0
C395 C 0.79806 0.90877 0.31107 0.0
C396 C 0.82541 0.84974 0.29819 0.0
C397 C 0.77674 0.8096 0.29959 0.0
H398 H 0.87352 0.9273 0.29796 0.0
H399 H 0.85629 0.84426 0.29011 0.0
S400 S 0.66567 0.818 0.33303 0.0
N401 N 0.71077 0.87585 0.33048 0.0
N402 N 0.69115 0.78388 0.3202 0.0
C403 C 0.73895 0.81946 0.31395 0.0
C404 C 0.74966 0.8694 0.31961 0.0
C405 C 0.3085 0.14806 0.73808 0.0
C406 C 0.27708 0.15232 0.78508 0.0
C407 C 0.31744 0.10832 0.7406 0.0
C408 C 0.29502 0.07132 0.79003 0.0
H409 H 0.32445 0.17438 0.69711 0.0
H410 H 0.33897 0.10475 0.70082 0.0
S411 S 0.21184 0.06625 0.92679 0.0
N412 N 0.22527 0.11643 0.88385 0.0
N413 N 0.24282 0.04359 0.88966 0.0
C414 C 0.26618 0.07705 0.83962 0.0
C415 C 0.25697 0.11696 0.83691 0.0
C416 C 0.90525 0.82094 0.84809 0.0
C417 C 0.91965 0.78687 0.83169 0.0
C418 C 0.85635 0.80902 0.8414 0.0
C419 C 0.81957 0.76269 0.81707 0.0
H420 H 0.93253 0.85817 0.8624 0.0
H421 H 0.84794 0.83784 0.85098 0.0
S422 S 0.83655 0.65722 0.78013 0.0
N423 N 0.89241 0.70224 0.80046 0.0
N424 N 0.79959 0.68011 0.78651 0.0
C425 C 0.83233 0.72651 0.80708 0.0
C426 C 0.88271 0.73862 0.81459 0.0
C427 C 0.94814 0.21686 0.72539 0.0
C428 C 0.97127 0.239 0.78759 0.0
C429 C 0.91272 0.16673 0.72172 0.0
C430 C 0.89982 0.13703 0.78016 0.0
H431 H 0.96102 0.23711 0.6783 0.0
H432 H 0.89867 0.15041 0.67207 0.0
S433 S 0.94406 0.17915 0.95665 0.0
N434 N 0.97452 0.22889 0.90959 0.0
N435 N 0.9076 0.13487 0.90337 0.0
C436 C 0.91915 0.15983 0.84349 0.0
C437 C 0.95493 0.21084 0.84706 0.0
loop_
_geom_bond_atom_site_label_1
_geom_bond_atom_site_label_2
_geom_bond_distance
_geom_bond_site_symmetry_2
_ccdc_geom_bond_type
Tb0 C9 2.764 . S
Tb0 O10 2.325 . S
Tb0 O13 2.303 . S
Tb0 O17 2.322 . S
Tb0 O18 2.349 . S
Tb0 O21 2.415 . S
Tb0 O22 2.399 . S
Tb1 O11 2.322 . S
Tb1 O12 2.349 . S
Tb1 O14 2.415 . S
Tb1 O15 2.399 . S
Tb1 O16 2.325 . S
Tb1 O19 2.303 . S
Tb1 C30 2.764 . S
C2 O18 1.261 . S
C2 O19 1.257 . S
C3 C6 1.358 . S
C3 C7 1.332 . S
C3 C9 1.504 . S
C4 C5 1.373 . S
C4 C8 1.308 . S
C5 C4 1.373 . S
C5 C6 1.429 . S
C5 H32 0.932 . S
C6 C3 1.358 . S
C6 C5 1.429 . S
C6 H33 0.930 . S
C7 C3 1.332 . S
C7 C8 1.394 . S
C7 H34 0.932 . S
C8 C4 1.308 . S
C8 C7 1.394 . S
C8 H35 0.929 . S
C9 Tb0 2.764 . S
C9 C3 1.504 . S
C9 O21 1.239 . S
C9 O22 1.263 . S
O10 Tb0 2.325 . S
O10 C20 1.236 . S
O11 Tb1 2.322 . S
O11 C20 1.257 . S
O12 Tb1 2.349 . S
O12 C23 1.261 . S
O13 Tb0 2.303 . S
O13 C23 1.257 . S
O14 Tb1 2.415 . S
O14 C30 1.239 . S
O15 Tb1 2.399 . S
O15 C30 1.263 . S
O16 Tb1 2.325 . S
O16 C31 1.236 . S
O17 Tb0 2.322 . S
O17 C31 1.257 . S
O18 Tb0 2.349 . S
O18 C2 1.261 . S
O19 Tb1 2.303 . S
O19 C2 1.257 . S
C20 O10 1.236 . S
C20 O11 1.257 . S
O21 Tb0 2.415 . S
O21 C9 1.239 . S
O22 Tb0 2.399 . S
O22 C9 1.263 . S
C23 O12 1.261 . S
C23 O13 1.257 . S
C24 C27 1.358 . S
C24 C28 1.332 . S
C24 C30 1.504 . S
C25 C26 1.373 . S
C25 C29 1.308 . S
C26 C25 1.373 . S
C26 C27 1.429 . S
C26 H36 0.932 . S
C27 C24 1.358 . S
C27 C26 1.429 . S
C27 H37 0.930 . S
C28 C24 1.332 . S
C28 C29 1.394 . S
C28 H38 0.932 . S
C29 C25 1.308 . S
C29 C28 1.394 . S
C29 H39 0.929 . S
C30 Tb1 2.764 . S
C30 O14 1.239 . S
C30 O15 1.263 . S
C30 C24 1.504 . S
C31 O16 1.236 . S
C31 O17 1.257 . S
H32 C5 0.932 . S
H33 C6 0.930 . S
H34 C7 0.932 . S
H35 C8 0.929 . S
H36 C26 0.932 . S
H37 C27 0.930 . S
H38 C28 0.932 . S
H39 C29 0.929 . S
Tb40 C49 2.764 . S
Tb40 O50 2.325 . S
Tb40 O53 2.303 . S
Tb40 O57 2.322 . S
Tb40 O58 2.349 . S
Tb40 O61 2.415 . S
Tb40 O62 2.399 . S
Tb41 O51 2.322 . S
Tb41 O52 2.349 . S
Tb41 O54 2.415 . S
Tb41 O55 2.399 . S
Tb41 O56 2.325 . S
Tb41 O59 2.303 . S
Tb41 C70 2.764 . S
C42 O58 1.261 . S
C42 O59 1.257 . S
C43 C46 1.358 1_655 S
C43 C47 1.332 . S
C43 C49 1.504 . S
C44 C45 1.373 . S
C44 C48 1.308 . S
C45 C44 1.373 . S
C45 C46 1.429 . S
C45 H72 0.932 . S
C46 C43 1.358 1_455 S
C46 C45 1.429 . S
C46 H73 0.930 1_455 S
C47 C43 1.332 . S
C47 C48 1.394 1_655 S
C47 H74 0.932 . S
C48 C44 1.308 . S
C48 C47 1.394 1_455 S
C48 H75 0.929 . S
C49 Tb40 2.764 . S
C49 C43 1.504 . S
C49 O61 1.239 . S
C49 O62 1.263 . S
O50 Tb40 2.325 . S
O50 C60 1.236 . S
O51 Tb41 2.322 . S
O51 C60 1.257 . S
O52 Tb41 2.349 . S
O52 C63 1.261 . S
O53 Tb40 2.303 . S
O53 C63 1.257 . S
O54 Tb41 2.415 . S
O54 C70 1.239 . S
O55 Tb41 2.399 . S
O55 C70 1.263 . S
O56 Tb41 2.325 . S
O56 C71 1.236 . S
O57 Tb40 2.322 . S
O57 C71 1.257 . S
O58 Tb40 2.349 . S
O58 C42 1.261 . S
O59 Tb41 2.303 . S
O59 C42 1.257 . S
C60 O50 1.236 . S
C60 O51 1.257 . S
O61 Tb40 2.415 . S
O61 C49 1.239 . S
O62 Tb40 2.399 . S
O62 C49 1.263 . S
C63 O52 1.261 . S
C63 O53 1.257 . S
C64 C67 1.358 . S
C64 C68 1.332 . S
C64 C70 1.504 . S
C65 C66 1.373 . S
C65 C69 1.308 . S
C66 C65 1.373 . S
C66 C67 1.429 . S
C66 H76 0.932 . S
C67 C64 1.358 . S
C67 C66 1.429 . S
C67 H77 0.930 . S
C68 C64 1.332 . S
C68 C69 1.394 . S
C68 H78 0.932 . S
C69 C65 1.308 . S
C69 C68 1.394 . S
C69 H79 0.929 . S
C70 Tb41 2.764 . S
C70 O54 1.239 . S
C70 O55 1.263 . S
C70 C64 1.504 . S
C71 O56 1.236 . S
C71 O57 1.257 . S
H72 C45 0.932 . S
H73 C46 0.930 1_655 S
H74 C47 0.932 . S
H75 C48 0.929 . S
H76 C66 0.932 . S
H77 C67 0.930 . S
H78 C68 0.932 . S
H79 C69 0.929 . S
Tb80 C89 2.764 . S
Tb80 O90 2.325 . S
Tb80 O93 2.303 . S
Tb80 O97 2.322 . S
Tb80 O98 2.349 . S
Tb80 O101 2.415 . S
Tb80 O102 2.399 . S
Tb81 O91 2.322 . S
Tb81 O92 2.349 . S
Tb81 O94 2.415 . S
Tb81 O95 2.399 . S
Tb81 O96 2.325 . S
Tb81 O99 2.303 . S
Tb81 C110 2.764 . S
C82 O98 1.261 . S
C82 O99 1.257 . S
C83 C86 1.358 1_545 S
C83 C87 1.332 . S
C83 C89 1.504 . S
C84 C85 1.373 . S
C84 C88 1.308 . S
C85 C84 1.373 . S
C85 C86 1.429 . S
C85 H112 0.932 . S
C86 C83 1.358 1_565 S
C86 C85 1.429 . S
C86 H113 0.930 1_565 S
C87 C83 1.332 . S
C87 C88 1.394 1_545 S
C87 H114 0.932 . S
C88 C84 1.308 . S
C88 C87 1.394 1_565 S
C88 H115 0.929 . S
C89 Tb80 2.764 . S
C89 C83 1.504 . S
C89 O101 1.239 . S
C89 O102 1.263 . S
O90 Tb80 2.325 . S
O90 C100 1.236 . S
O91 Tb81 2.322 . S
O91 C100 1.257 . S
O92 Tb81 2.349 . S
O92 C103 1.261 . S
O93 Tb80 2.303 . S
O93 C103 1.257 . S
O94 Tb81 2.415 . S
O94 C110 1.239 . S
O95 Tb81 2.399 . S
O95 C110 1.263 . S
O96 Tb81 2.325 . S
O96 C111 1.236 . S
O97 Tb80 2.322 . S
O97 C111 1.257 . S
O98 Tb80 2.349 . S
O98 C82 1.261 . S
O99 Tb81 2.303 . S
O99 C82 1.257 . S
C100 O90 1.236 . S
C100 O91 1.257 . S
O101 Tb80 2.415 . S
O101 C89 1.239 . S
O102 Tb80 2.399 . S
O102 C89 1.263 . S
C103 O92 1.261 . S
C103 O93 1.257 . S
C104 C107 1.358 . S
C104 C108 1.332 . S
C104 C110 1.504 . S
C105 C106 1.373 . S
C105 C109 1.308 . S
C106 C105 1.373 . S
C106 C107 1.429 . S
C106 H116 0.932 . S
C107 C104 1.358 . S
C107 C106 1.429 . S
C107 H117 0.930 . S
C108 C104 1.332 . S
C108 C109 1.394 . S
C108 H118 0.932 . S
C109 C105 1.308 . S
C109 C108 1.394 . S
C109 H119 0.929 . S
C110 Tb81 2.764 . S
C110 O94 1.239 . S
C110 O95 1.263 . S
C110 C104 1.504 . S
C111 O96 1.236 . S
C111 O97 1.257 . S
H112 C85 0.932 . S
H113 C86 0.930 1_545 S
H114 C87 0.932 . S
H115 C88 0.929 . S
H116 C106 0.932 . S
H117 C107 0.930 . S
H118 C108 0.932 . S
H119 C109 0.929 . S
Tb120 C129 2.764 . S
Tb120 O130 2.325 . S
Tb120 O133 2.303 . S
Tb120 O137 2.322 . S
Tb120 O138 2.349 . S
Tb120 O141 2.415 . S
Tb120 O142 2.399 . S
Tb121 O131 2.322 . S
Tb121 O132 2.349 . S
Tb121 O134 2.415 . S
Tb121 O135 2.399 . S
Tb121 O136 2.325 . S
Tb121 O139 2.303 . S
Tb121 C150 2.764 . S
C122 O138 1.261 . S
C122 O139 1.257 . S
C123 C126 1.358 . S
C123 C127 1.332 . S
C123 C129 1.504 . S
C124 C125 1.373 . S
C124 C128 1.308 . S
C125 C124 1.373 . S
C125 C126 1.429 . S
C125 H152 0.932 . S
C126 C123 1.358 . S
C126 C125 1.429 . S
C126 H153 0.930 . S
C127 C123 1.332 . S
C127 C128 1.394 . S
C127 H154 0.932 . S
C128 C124 1.308 . S
C128 C127 1.394 . S
C128 H155 0.929 . S
C129 Tb120 2.764 . S
C129 C123 1.504 . S
C129 O141 1.239 . S
C129 O142 1.263 . S
O130 Tb120 2.325 . S
O130 C140 1.236 . S
O131 Tb121 2.322 . S
O131 C140 1.257 . S
O132 Tb121 2.349 . S
O132 C143 1.261 . S
O133 Tb120 2.303 . S
O133 C143 1.257 . S
O134 Tb121 2.415 . S
O134 C150 1.239 . S
O135 Tb121 2.399 . S
O135 C150 1.263 . S
O136 Tb121 2.325 . S
O136 C151 1.236 . S
O137 Tb120 2.322 . S
O137 C151 1.257 . S
O138 Tb120 2.349 . S
O138 C122 1.261 . S
O139 Tb121 2.303 . S
O139 C122 1.257 . S
C140 O130 1.236 . S
C140 O131 1.257 . S
O141 Tb120 2.415 . S
O141 C129 1.239 . S
O142 Tb120 2.399 . S
O142 C129 1.263 . S
C143 O132 1.261 . S
C143 O133 1.257 . S
C144 C147 1.358 . S
C144 C148 1.332 . S
C144 C150 1.504 . S
C145 C146 1.373 . S
C145 C149 1.308 . S
C146 C145 1.373 . S
C146 C147 1.429 . S
C146 H156 0.932 . S
C147 C144 1.358 . S
C147 C146 1.429 . S
C147 H157 0.930 . S
C148 C144 1.332 . S
C148 C149 1.394 . S
C148 H158 0.932 . S
C149 C145 1.308 . S
C149 C148 1.394 . S
C149 H159 0.929 . S
C150 Tb121 2.764 . S
C150 O134 1.239 . S
C150 O135 1.263 . S
C150 C144 1.504 . S
C151 O136 1.236 . S
C151 O137 1.257 . S
H152 C125 0.932 . S
H153 C126 0.930 . S
H154 C127 0.932 . S
H155 C128 0.929 . S
H156 C146 0.932 . S
H157 C147 0.930 . S
H158 C148 0.932 . S
H159 C149 0.929 . S
Tb160 C169 2.764 . S
Tb160 O170 2.325 . S
Tb160 O173 2.303 . S
Tb160 O177 2.322 . S
Tb160 O178 2.349 . S
Tb160 O181 2.415 . S
Tb160 O182 2.399 . S
Tb161 O171 2.322 . S
Tb161 O172 2.349 . S
Tb161 O174 2.415 . S
Tb161 O175 2.399 . S
Tb161 O176 2.325 . S
Tb161 O179 2.303 . S
Tb161 C190 2.764 . S
C162 O178 1.261 . S
C162 O179 1.257 . S
C163 C166 1.358 . S
C163 C167 1.332 . S
C163 C169 1.504 . S
C164 C165 1.373 . S
C164 C168 1.308 . S
C165 C164 1.373 . S
C165 C166 1.429 . S
C165 H192 0.932 . S
C166 C163 1.358 . S
C166 C165 1.429 . S
C166 H193 0.930 . S
C167 C163 1.332 . S
C167 C168 1.394 . S
C167 H194 0.932 . S
C168 C164 1.308 . S
C168 C167 1.394 . S
C168 H195 0.929 . S
C169 Tb160 2.764 . S
C169 C163 1.504 . S
C169 O181 1.239 . S
C169 O182 1.263 . S
O170 Tb160 2.325 . S
O170 C180 1.236 . S
O171 Tb161 2.322 . S
O171 C180 1.257 . S
O172 Tb161 2.349 . S
O172 C183 1.261 . S
O173 Tb160 2.303 . S
O173 C183 1.257 . S
O174 Tb161 2.415 . S
O174 C190 1.239 . S
O175 Tb161 2.399 . S
O175 C190 1.263 . S
O176 Tb161 2.325 . S
O176 C191 1.236 . S
O177 Tb160 2.322 . S
O177 C191 1.257 . S
O178 Tb160 2.349 . S
O178 C162 1.261 . S
O179 Tb161 2.303 . S
O179 C162 1.257 . S
C180 O170 1.236 . S
C180 O171 1.257 . S
O181 Tb160 2.415 . S
O181 C169 1.239 . S
O182 Tb160 2.399 . S
O182 C169 1.263 . S
C183 O172 1.261 . S
C183 O173 1.257 . S
C184 C187 1.358 1_455 S
C184 C188 1.332 . S
C184 C190 1.504 . S
C185 C186 1.373 . S
C185 C189 1.308 . S
C186 C185 1.373 . S
C186 C187 1.429 . S
C186 H196 0.932 . S
C187 C184 1.358 1_655 S
C187 C186 1.429 . S
C187 H197 0.930 1_655 S
C188 C184 1.332 . S
C188 C189 1.394 1_455 S
C188 H198 0.932 . S
C189 C185 1.308 . S
C189 C188 1.394 1_655 S
C189 H199 0.929 . S
C190 Tb161 2.764 . S
C190 O174 1.239 . S
C190 O175 1.263 . S
C190 C184 1.504 . S
C191 O176 1.236 . S
C191 O177 1.257 . S
H192 C165 0.932 . S
H193 C166 0.930 . S
H194 C167 0.932 . S
H195 C168 0.929 . S
H196 C186 0.932 . S
H197 C187 0.930 1_455 S
H198 C188 0.932 . S
H199 C189 0.929 . S
Tb200 C209 2.764 . S
Tb200 O210 2.325 . S
Tb200 O213 2.303 . S
Tb200 O217 2.322 . S
Tb200 O218 2.349 . S
Tb200 O221 2.415 . S
Tb200 O222 2.399 . S
Tb201 O211 2.322 . S
Tb201 O212 2.349 . S
Tb201 O214 2.415 . S
Tb201 O215 2.399 . S
Tb201 O216 2.325 . S
Tb201 O219 2.303 . S
Tb201 C230 2.764 . S
C202 O218 1.261 . S
C202 O219 1.257 . S
C203 C206 1.358 . S
C203 C207 1.332 . S
C203 C209 1.504 . S
C204 C205 1.373 . S
C204 C208 1.308 . S
C205 C204 1.373 . S
C205 C206 1.429 . S
C205 H232 0.932 . S
C206 C203 1.358 . S
C206 C205 1.429 . S
C206 H233 0.930 . S
C207 C203 1.332 . S
C207 C208 1.394 . S
C207 H234 0.932 . S
C208 C204 1.308 . S
C208 C207 1.394 . S
C208 H235 0.929 . S
C209 Tb200 2.764 . S
C209 C203 1.504 . S
C209 O221 1.239 . S
C209 O222 1.263 . S
O210 Tb200 2.325 . S
O210 C220 1.236 . S
O211 Tb201 2.322 . S
O211 C220 1.257 . S
O212 Tb201 2.349 . S
O212 C223 1.261 . S
O213 Tb200 2.303 . S
O213 C223 1.257 . S
O214 Tb201 2.415 . S
O214 C230 1.239 . S
O215 Tb201 2.399 . S
O215 C230 1.263 . S
O216 Tb201 2.325 . S
O216 C231 1.236 . S
O217 Tb200 2.322 . S
O217 C231 1.257 . S
O218 Tb200 2.349 . S
O218 C202 1.261 . S
O219 Tb201 2.303 . S
O219 C202 1.257 . S
C220 O210 1.236 . S
C220 O211 1.257 . S
O221 Tb200 2.415 . S
O221 C209 1.239 . S
O222 Tb200 2.399 . S
O222 C209 1.263 . S
C223 O212 1.261 . S
C223 O213 1.257 . S
C224 C227 1.358 1_565 S
C224 C228 1.332 . S
C224 C230 1.504 . S
C225 C226 1.373 . S
C225 C229 1.308 . S
C226 C225 1.373 . S
C226 C227 1.429 . S
C226 H236 0.932 . S
C227 C224 1.358 1_545 S
C227 C226 1.429 . S
C227 H237 0.930 1_545 S
C228 C224 1.332 . S
C228 C229 1.394 1_565 S
C228 H238 0.932 . S
C229 C225 1.308 . S
C229 C228 1.394 1_545 S
C229 H239 0.929 . S
C230 Tb201 2.764 . S
C230 O214 1.239 . S
C230 O215 1.263 . S
C230 C224 1.504 . S
C231 O216 1.236 . S
C231 O217 1.257 . S
H232 C205 0.932 . S
H233 C206 0.930 . S
H234 C207 0.932 . S
H235 C208 0.929 . S
H236 C226 0.932 . S
H237 C227 0.930 1_565 S
H238 C228 0.932 . S
H239 C229 0.929 . S
C240 C241 1.369 . S
C240 C242 1.419 1_566 S
C240 H244 0.930 . S
C241 C240 1.369 . S
C241 C250 1.429 . S
C242 C240 1.419 1_544 S
C242 C243 1.363 . S
C242 H245 0.929 . S
C243 C242 1.363 . S
C243 C249 1.428 . S
H244 C240 0.930 . S
H245 C242 0.929 . S
S246 N247 1.613 1_554 S
S246 N248 1.610 1_565 S
N247 S246 1.613 1_556 S
N247 C250 1.350 . S
N248 S246 1.610 1_545 S
N248 C249 1.351 . S
C249 C243 1.428 . S
C249 N248 1.351 . S
C249 C250 1.434 1_544 S
C250 C241 1.429 . S
C250 N247 1.350 . S
C250 C249 1.434 1_566 S
C251 C252 1.369 . S
C251 C253 1.419 . S
C251 H255 0.930 . S
C252 C251 1.369 . S
C252 C261 1.429 . S
C253 C251 1.419 . S
C253 C254 1.363 . S
C253 H256 0.929 . S
C254 C253 1.363 . S
C254 C260 1.428 . S
H255 C251 0.930 . S
H256 C253 0.929 . S
S257 N258 1.613 . S
S257 N259 1.610 . S
N258 S257 1.613 . S
N258 C261 1.350 . S
N259 S257 1.610 . S
N259 C260 1.351 . S
C260 C254 1.428 . S
C260 N259 1.351 . S
C260 C261 1.434 . S
C261 C252 1.429 . S
C261 N258 1.350 . S
C261 C260 1.434 . S
C262 C263 1.369 1_556 S
C262 C264 1.419 . S
C262 H266 0.930 . S
C263 C262 1.369 1_554 S
C263 C272 1.429 . S
C264 C262 1.419 . S
C264 C265 1.363 1_655 S
C264 H267 0.929 . S
C265 C264 1.363 1_455 S
C265 C271 1.428 1_556 S
H266 C262 0.930 . S
H267 C264 0.929 . S
S268 N269 1.613 . S
S268 N270 1.610 . S
N269 S268 1.613 . S
N269 C272 1.350 1_455 S
N270 S268 1.610 . S
N270 C271 1.351 . S
C271 C265 1.428 1_554 S
C271 N270 1.351 . S
C271 C272 1.434 1_455 S
C272 C263 1.429 . S
C272 N269 1.350 1_655 S
C272 C271 1.434 1_655 S
C273 C274 1.369 1_565 S
C273 C275 1.419 . S
C273 H277 0.930 . S
C274 C273 1.369 1_545 S
C274 C283 1.429 . S
C275 C273 1.419 . S
C275 C276 1.363 . S
C275 H278 0.929 . S
C276 C275 1.363 . S
C276 C282 1.428 . S
H277 C273 0.930 . S
H278 C275 0.929 . S
S279 N280 1.613 . S
S279 N281 1.610 . S
N280 S279 1.613 . S
N280 C283 1.350 . S
N281 S279 1.610 . S
N281 C282 1.351 1_545 S
C282 C276 1.428 . S
C282 N281 1.351 1_565 S
C282 C283 1.434 1_565 S
C283 C274 1.429 . S
C283 N280 1.350 . S
C283 C282 1.434 1_545 S
C284 C285 1.369 . S
C284 C286 1.419 . S
C284 H288 0.930 . S
C285 C284 1.369 . S
C285 C294 1.429 1_556 S
C286 C284 1.419 . S
C286 C287 1.363 1_556 S
C286 H289 0.929 . S
C287 C286 1.363 1_554 S
C287 C293 1.428 . S
H288 C284 0.930 . S
H289 C286 0.929 . S
S290 N291 1.613 . S
S290 N292 1.610 . S
N291 S290 1.613 . S
N291 C294 1.350 . S
N292 S290 1.610 . S
N292 C293 1.351 . S
C293 C287 1.428 . S
C293 N292 1.351 . S
C293 C294 1.434 . S
C294 C285 1.429 1_554 S
C294 N291 1.350 . S
C294 C293 1.434 . S
C295 C296 1.369 1_455 S
C295 C297 1.419 . S
C295 H299 0.930 . S
C296 C295 1.369 1_655 S
C296 C305 1.429 . S
C297 C295 1.419 . S
C297 C298 1.363 . S
C297 H300 0.929 . S
C298 C297 1.363 . S
C298 C304 1.428 . S
H299 C295 0.930 . S
H300 C297 0.929 . S
S301 N302 1.613 . S
S301 N303 1.610 . S
N302 S301 1.613 . S
N302 C305 1.350 . S
N303 S301 1.610 . S
N303 C304 1.351 1_655 S
C304 C298 1.428 . S
C304 N303 1.351 1_455 S
C304 C305 1.434 1_455 S
C305 C296 1.429 . S
C305 N302 1.350 . S
C305 C304 1.434 1_655 S
C306 C307 1.369 . S
C306 C308 1.419 . S
C306 H310 0.930 . S
C307 C306 1.369 . S
C307 C316 1.429 . S
C308 C306 1.419 . S
C308 C309 1.363 . S
C308 H311 0.929 . S
C309 C308 1.363 . S
C309 C315 1.428 . S
H310 C306 0.930 . S
H311 C308 0.929 . S
S312 N313 1.613 . S
S312 N314 1.610 . S
N313 S312 1.613 . S
N313 C316 1.350 . S
N314 S312 1.610 . S
N314 C315 1.351 . S
C315 C309 1.428 . S
C315 N314 1.351 . S
C315 C316 1.434 . S
C316 C307 1.429 . S
C316 N313 1.350 . S
C316 C315 1.434 . S
C317 C318 1.369 . S
C317 C319 1.419 . S
C317 H321 0.930 . S
C318 C317 1.369 . S
C318 C327 1.429 . S
C319 C317 1.419 . S
C319 C320 1.363 . S
C319 H322 0.929 . S
C320 C319 1.363 . S
C320 C326 1.428 . S
H321 C317 0.930 . S
H322 C319 0.929 . S
S323 N324 1.613 . S
S323 N325 1.610 . S
N324 S323 1.613 . S
N324 C327 1.350 . S
N325 S323 1.610 . S
N325 C326 1.351 . S
C326 C320 1.428 . S
C326 N325 1.351 . S
C326 C327 1.434 . S
C327 C318 1.429 . S
C327 N324 1.350 . S
C327 C326 1.434 . S
C328 C329 1.369 . S
C328 C330 1.419 . S
C328 H332 0.930 . S
C329 C328 1.369 . S
C329 C338 1.429 . S
C330 C328 1.419 . S
C330 C331 1.363 . S
C330 H333 0.929 . S
C331 C330 1.363 . S
C331 C337 1.428 . S
H332 C328 0.930 . S
H333 C330 0.929 . S
S334 N335 1.613 . S
S334 N336 1.610 . S
N335 S334 1.613 . S
N335 C338 1.350 . S
N336 S334 1.610 . S
N336 C337 1.351 . S
C337 C331 1.428 . S
C337 N336 1.351 . S
C337 C338 1.434 . S
C338 C329 1.429 . S
C338 N335 1.350 . S
C338 C337 1.434 . S
C339 C340 1.369 . S
C339 C341 1.419 . S
C339 H343 0.930 . S
C340 C339 1.369 . S
C340 C349 1.429 . S
C341 C339 1.419 . S
C341 C342 1.363 . S
C341 H344 0.929 . S
C342 C341 1.363 . S
C342 C348 1.428 . S
H343 C339 0.930 . S
H344 C341 0.929 . S
S345 N346 1.613 . S
S345 N347 1.610 . S
N346 S345 1.613 . S
N346 C349 1.350 . S
N347 S345 1.610 . S
N347 C348 1.351 . S
C348 C342 1.428 . S
C348 N347 1.351 . S
C348 C349 1.434 . S
C349 C340 1.429 . S
C349 N346 1.350 . S
C349 C348 1.434 . S
C350 C351 1.369 . S
C350 C352 1.419 . S
C350 H354 0.930 . S
C351 C350 1.369 . S
C351 C360 1.429 . S
C352 C350 1.419 . S
C352 C353 1.363 . S
C352 H355 0.929 . S
C353 C352 1.363 . S
C353 C359 1.428 . S
H354 C350 0.930 . S
H355 C352 0.929 . S
S356 N357 1.613 . S
S356 N358 1.610 . S
N357 S356 1.613 . S
N357 C360 1.350 . S
N358 S356 1.610 . S
N358 C359 1.351 . S
C359 C353 1.428 . S
C359 N358 1.351 . S
C359 C360 1.434 . S
C360 C351 1.429 . S
C360 N357 1.350 . S
C360 C359 1.434 . S
C361 C362 1.369 . S
C361 C363 1.419 . S
C361 H365 0.930 . S
C362 C361 1.369 . S
C362 C371 1.429 . S
C363 C361 1.419 . S
C363 C364 1.363 . S
C363 H366 0.929 . S
C364 C363 1.363 . S
C364 C370 1.428 . S
H365 C361 0.930 . S
H366 C363 0.929 . S
S367 N368 1.613 . S
S367 N369 1.610 . S
N368 S367 1.613 . S
N368 C371 1.350 . S
N369 S367 1.610 . S
N369 C370 1.351 . S
C370 C364 1.428 . S
C370 N369 1.351 . S
C370 C371 1.434 . S
C371 C362 1.429 . S
C371 N368 1.350 . S
C371 C370 1.434 . S
C372 C373 1.369 1_655 S
C372 C374 1.419 . S
C372 H376 0.930 . S
C373 C372 1.369 1_455 S
C373 C382 1.429 . S
C374 C372 1.419 . S
C374 C375 1.363 1_655 S
C374 H377 0.929 . S
C375 C374 1.363 1_455 S
C375 C381 1.428 . S
H376 C372 0.930 . S
H377 C374 0.929 . S
S378 N379 1.613 . S
S378 N380 1.610 . S
N379 S378 1.613 . S
N379 C382 1.350 . S
N380 S378 1.610 . S
N380 C381 1.351 . S
C381 C375 1.428 . S
C381 N380 1.351 . S
C381 C382 1.434 . S
C382 C373 1.429 . S
C382 N379 1.350 . S
C382 C381 1.434 . S
C383 C384 1.369 1_545 S
C383 C385 1.419 . S
C383 H387 0.930 . S
C384 C383 1.369 1_565 S
C384 C393 1.429 . S
C385 C383 1.419 . S
C385 C386 1.363 1_545 S
C385 H388 0.929 . S
C386 C385 1.363 1_565 S
C386 C392 1.428 . S
H387 C383 0.930 . S
H388 C385 0.929 . S
S389 N390 1.613 . S
S389 N391 1.610 . S
N390 S389 1.613 . S
N390 C393 1.350 . S
N391 S389 1.610 . S
N391 C392 1.351 . S
C392 C386 1.428 . S
C392 N391 1.351 . S
C392 C393 1.434 . S
C393 C384 1.429 . S
C393 N390 1.350 . S
C393 C392 1.434 . S
C394 C395 1.369 . S
C394 C396 1.419 . S
C394 H398 0.930 . S
C395 C394 1.369 . S
C395 C404 1.429 . S
C396 C394 1.419 . S
C396 C397 1.363 . S
C396 H399 0.929 . S
C397 C396 1.363 . S
C397 C403 1.428 . S
H398 C394 0.930 . S
H399 C396 0.929 . S
S400 N401 1.613 . S
S400 N402 1.610 . S
N401 S400 1.613 . S
N401 C404 1.350 . S
N402 S400 1.610 . S
N402 C403 1.351 . S
C403 C397 1.428 . S
C403 N402 1.351 . S
C403 C404 1.434 . S
C404 C395 1.429 . S
C404 N401 1.350 . S
C404 C403 1.434 . S
C405 C406 1.369 . S
C405 C407 1.419 . S
C405 H409 0.930 . S
C406 C405 1.369 . S
C406 C415 1.429 1_545 S
C407 C405 1.419 . S
C407 C408 1.363 . S
C407 H410 0.929 . S
C408 C407 1.363 . S
C408 C414 1.428 1_545 S
H409 C405 0.930 . S
H410 C407 0.929 . S
S411 N412 1.613 . S
S411 N413 1.610 . S
N412 S411 1.613 . S
N412 C415 1.350 . S
N413 S411 1.610 . S
N413 C414 1.351 . S
C414 C408 1.428 1_565 S
C414 N413 1.351 . S
C414 C415 1.434 . S
C415 C406 1.429 1_565 S
C415 N412 1.350 . S
C415 C414 1.434 . S
C416 C417 1.369 . S
C416 C418 1.419 . S
C416 H420 0.930 . S
C417 C416 1.369 . S
C417 C426 1.429 . S
C418 C416 1.419 . S
C418 C419 1.363 . S
C418 H421 0.929 . S
C419 C418 1.363 . S
C419 C425 1.428 . S
H420 C416 0.930 . S
H421 C418 0.929 . S
S422 N423 1.613 . S
S422 N424 1.610 . S
N423 S422 1.613 . S
N423 C426 1.350 . S
N424 S422 1.610 . S
N424 C425 1.351 . S
C425 C419 1.428 . S
C425 N424 1.351 . S
C425 C426 1.434 . S
C426 C417 1.429 . S
C426 N423 1.350 . S
C426 C425 1.434 . S
C427 C428 1.369 . S
C427 C429 1.419 . S
C427 H431 0.930 1_655 S
C428 C427 1.369 . S
C428 C437 1.429 . S
C429 C427 1.419 . S
C429 C430 1.363 . S
C429 H432 0.929 . S
C430 C429 1.363 . S
C430 C436 1.428 . S
H431 C427 0.930 1_455 S
H432 C429 0.929 . S
S433 N434 1.613 . S
S433 N435 1.610 . S
N434 S433 1.613 . S
N434 C437 1.350 . S
N435 S433 1.610 . S
N435 C436 1.351 . S
C436 C430 1.428 . S
C436 N435 1.351 . S
C436 C437 1.434 . S
C437 C428 1.429 . S
C437 N434 1.350 . S
C437 C436 1.434 . S
C241 C162 2.430 . S
C243 C2 2.510 . S
C252 C223 2.506 . S
C254 C63 2.433 . S
C263 C82 2.509 . S
C265 C122 2.431 . S
C274 C23 2.434 . S
C276 C183 2.506 . S
C285 C202 2.432 . S
C287 C42 2.508 . S
C296 C103 2.429 . S
C298 C143 2.509 . S
C307 C25 1.886 . S
C309 C111 1.902 . S
C318 C65 1.887 . S
C320 C31 1.901 . S
C329 C105 1.893 . S
C331 C71 1.898 . S
C340 C124 1.894 . S
C342 C180 1.898 . S
C351 C164 1.884 . S
C353 C220 1.905 . S
C362 C140 1.902 . S
C364 C204 1.889 . S
C373 C4 1.298 . S
C375 C100 1.308 1_455 S
C384 C44 1.300 . S
C386 C20 1.307 1_565 S
C395 C84 1.304 . S
C397 C60 1.304 . S
C406 C145 1.311 . S
C408 C191 1.298 1_545 S
C417 C185 1.297 . S
C419 C231 1.307 . S
C428 C151 1.302 1_655 S
C430 C225 1.306 . S
