# Generated by pormake.
# Topology zfx, (5)-cn, num edge types: 1
# Building blocks:
#     Node 0, Type 0, BuildingBlock: BEQFEK_clean_sbu_0, # of connection points: 5
#     Node 1, Type 0, BuildingBlock: BEQFEK_clean_sbu_0, # of connection points: 5
#     Node 2, Type 0, BuildingBlock: BEQFEK_clean_sbu_0, # of connection points: 5
#     Node 3, Type 0, BuildingBlock: BEQFEK_clean_sbu_0, # of connection points: 5
#     Node 4, Type 0, BuildingBlock: BEQFEK_clean_sbu_0, # of connection points: 5
#     Node 5, Type 0, BuildingBlock: BEQFEK_clean_sbu_0, # of connection points: 5
#     Node 6, Type 0, BuildingBlock: BEQFEK_clean_sbu_0, # of connection points: 5
#     Node 7, Type 0, BuildingBlock: BEQFEK_clean_sbu_0, # of connection points: 5
#     Node 8, Type 0, BuildingBlock: BEQFEK_clean_sbu_0, # of connection points: 5
#     Node 9, Type 0, BuildingBlock: BEQFEK_clean_sbu_0, # of connection points: 5
#     Node 10, Type 0, BuildingBlock: BEQFEK_clean_sbu_0, # of connection points: 5
#     Node 11, Type 0, BuildingBlock: BEQFEK_clean_sbu_0, # of connection points: 5
#     Node 12, Type 0, BuildingBlock: BEQFEK_clean_sbu_0, # of connection points: 5
#     Node 13, Type 0, BuildingBlock: BEQFEK_clean_sbu_0, # of connection points: 5
#     Node 14, Type 0, BuildingBlock: BEQFEK_clean_sbu_0, # of connection points: 5
#     Node 15, Type 0, BuildingBlock: BEQFEK_clean_sbu_0, # of connection points: 5
#     Edge 16, Type (0, 0), BuildingBlock: OJICUG_clean_linker_0, # of connection points: 2
#     Edge 17, Type (0, 0), BuildingBlock: OJICUG_clean_linker_0, # of connection points: 2
#     Edge 18, Type (0, 0), BuildingBlock: OJICUG_clean_linker_0, # of connection points: 2
#     Edge 19, Type (0, 0), BuildingBlock: OJICUG_clean_linker_0, # of connection points: 2
#     Edge 20, Type (0, 0), BuildingBlock: OJICUG_clean_linker_0, # of connection points: 2
#     Edge 21, Type (0, 0), BuildingBlock: OJICUG_clean_linker_0, # of connection points: 2
#     Edge 22, Type (0, 0), BuildingBlock: OJICUG_clean_linker_0, # of connection points: 2
#     Edge 23, Type (0, 0), BuildingBlock: OJICUG_clean_linker_0, # of connection points: 2
#     Edge 24, Type (0, 0), BuildingBlock: OJICUG_clean_linker_0, # of connection points: 2
#     Edge 25, Type (0, 0), BuildingBlock: OJICUG_clean_linker_0, # of connection points: 2
#     Edge 26, Type (0, 0), BuildingBlock: OJICUG_clean_linker_0, # of connection points: 2
#     Edge 27, Type (0, 0), BuildingBlock: OJICUG_clean_linker_0, # of connection points: 2
#     Edge 28, Type (0, 0), BuildingBlock: OJICUG_clean_linker_0, # of connection points: 2
#     Edge 29, Type (0, 0), BuildingBlock: OJICUG_clean_linker_0, # of connection points: 2
#     Edge 30, Type (0, 0), BuildingBlock: OJICUG_clean_linker_0, # of connection points: 2
#     Edge 31, Type (0, 0), BuildingBlock: OJICUG_clean_linker_0, # of connection points: 2
#     Edge 32, Type (0, 0), BuildingBlock: OJICUG_clean_linker_0, # of connection points: 2
#     Edge 33, Type (0, 0), BuildingBlock: OJICUG_clean_linker_0, # of connection points: 2
#     Edge 34, Type (0, 0), BuildingBlock: OJICUG_clean_linker_0, # of connection points: 2
#     Edge 35, Type (0, 0), BuildingBlock: OJICUG_clean_linker_0, # of connection points: 2
#     Edge 36, Type (0, 0), BuildingBlock: OJICUG_clean_linker_0, # of connection points: 2
#     Edge 37, Type (0, 0), BuildingBlock: OJICUG_clean_linker_0, # of connection points: 2
#     Edge 38, Type (0, 0), BuildingBlock: OJICUG_clean_linker_0, # of connection points: 2
#     Edge 39, Type (0, 0), BuildingBlock: OJICUG_clean_linker_0, # of connection points: 2
#     Edge 40, Type (0, 0), BuildingBlock: OJICUG_clean_linker_0, # of connection points: 2
#     Edge 41, Type (0, 0), BuildingBlock: OJICUG_clean_linker_0, # of connection points: 2
#     Edge 42, Type (0, 0), BuildingBlock: OJICUG_clean_linker_0, # of connection points: 2
#     Edge 43, Type (0, 0), BuildingBlock: OJICUG_clean_linker_0, # of connection points: 2
#     Edge 44, Type (0, 0), BuildingBlock: OJICUG_clean_linker_0, # of connection points: 2
#     Edge 45, Type (0, 0), BuildingBlock: OJICUG_clean_linker_0, # of connection points: 2
#     Edge 46, Type (0, 0), BuildingBlock: OJICUG_clean_linker_0, # of connection points: 2
#     Edge 47, Type (0, 0), BuildingBlock: OJICUG_clean_linker_0, # of connection points: 2
#     Edge 48, Type (0, 0), BuildingBlock: OJICUG_clean_linker_0, # of connection points: 2
#     Edge 49, Type (0, 0), BuildingBlock: OJICUG_clean_linker_0, # of connection points: 2
#     Edge 50, Type (0, 0), BuildingBlock: OJICUG_clean_linker_0, # of connection points: 2
#     Edge 51, Type (0, 0), BuildingBlock: OJICUG_clean_linker_0, # of connection points: 2
#     Edge 52, Type (0, 0), BuildingBlock: OJICUG_clean_linker_0, # of connection points: 2
#     Edge 53, Type (0, 0), BuildingBlock: OJICUG_clean_linker_0, # of connection points: 2
#     Edge 54, Type (0, 0), BuildingBlock: OJICUG_clean_linker_0, # of connection points: 2
#     Edge 55, Type (0, 0), BuildingBlock: OJICUG_clean_linker_0, # of connection points: 2
# Relax obj value: 0.696
# Max RMSD: 0.171
# Mean RMSD: 0.171
data_MOF--net-zfx--node1-BEQFEK_clean_sbu_0--edge1-OJICUG_clean_linker_0
_symmetry_space_group_name_H-M    P1
_symmetry_Int_Tables_number       1
_symmetry_cell_setting            triclinic
loop_
_symmetry_equiv_pos_as_xyz
'x, y, z'
_cell_length_a     43.386174
_cell_length_b     43.317913
_cell_length_c     18.696736
_cell_angle_alpha  90.114847
_cell_angle_beta   89.777475
_cell_angle_gamma 90.156859
loop_
_atom_site_label
_atom_site_type_symbol
_atom_site_fract_x
_atom_site_fract_y
_atom_site_fract_z
_atom_type_partial_charge
Co0 Co 0.49306 0.1348 0.47336 0.0
Co1 Co 0.55411 0.13039 0.39614 0.0
C2 C 0.55364 0.16219 0.53522 0.0
O3 O 0.52508 0.15472 0.53997 0.0
O4 O 0.56907 0.15624 0.47843 0.0
C5 C 0.4322 0.11977 0.5207 0.0
O6 O 0.43808 0.09127 0.50133 0.0
C7 C 0.61423 0.12443 0.32154 0.0
C8 C 0.59858 0.09496 0.23191 0.0
C9 C 0.62449 0.10906 0.26034 0.0
N10 N 0.58375 0.11973 0.32749 0.0
N11 N 0.57472 0.10169 0.27459 0.0
C12 C 0.63286 0.14127 0.37639 0.0
H13 H 0.62303 0.13726 0.43042 0.0
H14 H 0.63183 0.16643 0.36553 0.0
H15 H 0.65724 0.13356 0.37544 0.0
C16 C 0.47253 0.16349 0.33486 0.0
N17 N 0.4938 0.15058 0.37822 0.0
N18 N 0.52054 0.15018 0.34554 0.0
C19 C 0.51749 0.16411 0.28099 0.0
C20 C 0.48668 0.17306 0.2711 0.0
C21 C 0.43884 0.16426 0.35242 0.0
H22 H 0.43219 0.14298 0.3814 0.0
H23 H 0.43404 0.18434 0.38764 0.0
H24 H 0.42456 0.16589 0.30353 0.0
O25 O 0.4981 0.09014 0.47607 0.0
O26 O 0.54531 0.08788 0.43399 0.0
H27 H 0.54673 0.15125 0.19374 0.0
H28 H 0.5402 0.1922 0.20137 0.0
C29 C 0.5441 0.17066 0.23205 0.0
H30 H 0.56573 0.17288 0.26311 0.0
H31 H 0.55208 0.09412 0.26755 0.0
O32 O 0.45228 0.141 0.51335 0.0
C33 C 0.522 0.07476 0.46173 0.0
Co34 Co 0.13723 0.23395 0.72304 0.0
Co35 Co 0.15376 0.29181 0.64212 0.0
C36 C 0.11529 0.29951 0.76859 0.0
O37 O 0.1188 0.2705 0.77568 0.0
O38 O 0.12682 0.31358 0.71472 0.0
C39 C 0.09101 0.20884 0.78672 0.0
O40 O 0.07488 0.22652 0.74384 0.0
C41 C 0.16558 0.34291 0.5413 0.0
C42 C 0.2136 0.33234 0.51015 0.0
C43 C 0.1896 0.35237 0.49723 0.0
N44 N 0.17508 0.31857 0.57911 0.0
N45 N 0.2041 0.31289 0.56158 0.0
C46 C 0.13302 0.35417 0.54008 0.0
H47 H 0.11829 0.3404 0.57684 0.0
H48 H 0.12381 0.35269 0.48486 0.0
H49 H 0.13252 0.37883 0.55624 0.0
C50 C 0.11298 0.21262 0.58524 0.0
N51 N 0.12757 0.23386 0.6256 0.0
N52 N 0.13203 0.25929 0.58895 0.0
C53 C 0.11948 0.25506 0.52308 0.0
C54 C 0.10685 0.22523 0.51864 0.0
C55 C 0.10323 0.18151 0.61253 0.0
H56 H 0.08214 0.18408 0.64553 0.0
H57 H 0.09773 0.16499 0.56933 0.0
H58 H 0.12171 0.17162 0.64622 0.0
O59 O 0.1816 0.23062 0.74334 0.0
O60 O 0.18984 0.27646 0.69679 0.0
H61 H 0.11411 0.26843 0.41258 0.0
H62 H 0.10245 0.29679 0.47812 0.0
C63 C 0.11977 0.27882 0.46525 0.0
H64 H 0.14274 0.29004 0.46252 0.0
H65 H 0.21696 0.29457 0.58165 0.0
O66 O 0.11705 0.19938 0.76569 0.0
C67 C 0.19941 0.25327 0.73145 0.0
Co68 Co 0.05276 0.88616 0.96943 0.0
Co69 Co 0.99175 0.89346 0.89534 0.0
C70 C 0.99361 0.85613 0.029 0.0
O71 O 0.0223 0.86285 0.03463 0.0
O72 O 0.97816 0.86531 0.97507 0.0
C73 C 0.11488 0.90187 1.00096 0.0
O74 O 0.10908 0.92879 0.97203 0.0
C75 C 0.93171 0.89225 0.82377 0.0
C76 C 0.94052 0.92772 0.74129 0.0
C77 C 0.91869 0.90652 0.76447 0.0
N78 N 0.9601 0.90378 0.8326 0.0
N79 N 0.96486 0.92562 0.78474 0.0
C80 C 0.91732 0.86948 0.87403 0.0
H81 H 0.92337 0.87557 0.92987 0.0
H82 H 0.92664 0.84612 0.86285 0.0
H83 H 0.89183 0.86931 0.86913 0.0
C84 C 0.07207 0.85973 0.82688 0.0
N85 N 0.05139 0.87279 0.87202 0.0
N86 N 0.02474 0.87514 0.83964 0.0
C87 C 0.02744 0.86291 0.773 0.0
C88 C 0.05775 0.8529 0.76205 0.0
C89 C 0.10468 0.85269 0.84673 0.0
H90 H 0.11759 0.87467 0.8529 0.0
H91 H 0.1051 0.84056 0.89892 0.0
H92 H 0.11623 0.83823 0.80562 0.0
O93 O 0.04713 0.93103 0.98078 0.0
O94 O 1.00097 0.9353 0.93464 0.0
H95 H 0.99783 0.88445 0.69735 0.0
H96 H 0.00677 0.84491 0.67621 0.0
C97 C 1.00158 0.86121 0.72044 0.0
H98 H 0.98005 0.85403 0.74804 0.0
H99 H 0.98531 0.93822 0.78007 0.0
O100 O 0.09433 0.88087 1.00371 0.0
C101 C 0.02401 0.94736 0.96553 0.0
Co102 Co 0.39442 0.78662 0.21202 0.0
Co103 Co 0.38733 0.72638 0.13535 0.0
C104 C 0.42199 0.72484 0.26795 0.0
O105 O 0.41396 0.75313 0.27561 0.0
O106 O 0.41534 0.7101 0.21081 0.0
C107 C 0.38209 0.82808 0.31481 0.0
O108 O 0.36564 0.80398 0.33417 0.0
C109 C 0.38424 0.67 0.04615 0.0
C110 C 0.33783 0.67649 0.99978 0.0
C111 C 0.36284 0.65678 0.99971 0.0
N112 N 0.37225 0.69629 0.0716 0.0
N113 N 0.34433 0.69969 0.04478 0.0
C114 C 0.41642 0.65963 0.06189 0.0
H115 H 0.42912 0.67757 0.09238 0.0
H116 H 0.42896 0.65458 1.01137 0.0
H117 H 0.41558 0.63825 0.09438 0.0
C118 C 0.42398 0.80742 0.07425 0.0
N119 N 0.41015 0.78642 0.11714 0.0
N120 N 0.40697 0.76023 0.08254 0.0
C121 C 0.41983 0.76343 1.01669 0.0
C122 C 0.43112 0.79369 1.00832 0.0
C123 C 0.42819 0.84055 0.09499 0.0
H124 H 0.41004 0.84761 0.13353 0.0
H125 H 0.45091 0.84341 0.12125 0.0
H126 H 0.42725 0.85579 0.04742 0.0
O127 O 0.34934 0.7846 0.20857 0.0
O128 O 0.347 0.73543 0.18358 0.0
H129 H 0.40186 0.73523 0.93271 0.0
H130 H 0.4432 0.74081 0.92875 0.0
C131 C 0.42319 0.73727 0.96495 0.0
H132 H 0.42643 0.71545 0.99433 0.0
H133 H 0.32998 0.71844 0.05553 0.0
O134 O 0.39979 0.82597 0.2606 0.0
C135 C 0.334 0.75998 0.20431 0.0
Co136 Co 0.49538 0.885 0.55064 0.0
Co137 Co 0.55602 0.89523 0.62707 0.0
C138 C 0.5555 0.85704 0.4935 0.0
O139 O 0.52621 0.86048 0.49033 0.0
O140 O 0.57103 0.8691 0.54455 0.0
C141 C 0.43397 0.89976 0.51182 0.0
O142 O 0.44005 0.92768 0.5352 0.0
C143 C 0.6155 0.89826 0.70316 0.0
C144 C 0.60169 0.9301 0.79007 0.0
C145 C 0.62612 0.91235 0.76567 0.0
N146 N 0.58611 0.90667 0.69361 0.0
N147 N 0.57831 0.92633 0.74446 0.0
C148 C 0.63279 0.87862 0.6508 0.0
H149 H 0.62462 0.88329 0.59577 0.0
H150 H 0.62827 0.85391 0.66253 0.0
H151 H 0.65792 0.88337 0.65326 0.0
C152 C 0.47533 0.86058 0.69368 0.0
N153 N 0.4962 0.87343 0.64871 0.0
N154 N 0.52292 0.87546 0.68073 0.0
C155 C 0.52026 0.86263 0.74669 0.0
C156 C 0.48976 0.85268 0.75793 0.0
C157 C 0.44173 0.85798 0.67659 0.0
H158 H 0.43406 0.87914 0.64891 0.0
H159 H 0.43797 0.83802 0.64033 0.0
H160 H 0.42745 0.85524 0.72544 0.0
O161 O 0.50181 0.92945 0.53462 0.0
O162 O 0.5462 0.93673 0.58794 0.0
H163 H 0.54957 0.87805 0.83114 0.0
H164 H 0.54351 0.83686 0.82905 0.0
C165 C 0.54705 0.85769 0.79552 0.0
H166 H 0.56859 0.85501 0.76406 0.0
H167 H 0.55652 0.93631 0.7493 0.0
O168 O 0.45413 0.87851 0.51451 0.0
C169 C 0.52383 0.94706 0.55199 0.0
Co170 Co 0.38706 0.23372 0.82088 0.0
Co171 Co 0.37775 0.29417 0.89548 0.0
C172 C 0.41107 0.2966 0.76048 0.0
O173 O 0.40416 0.2679 0.75487 0.0
O174 O 0.40452 0.31153 0.81759 0.0
C175 C 0.37773 0.19187 0.71839 0.0
O176 O 0.36013 0.21505 0.69935 0.0
C177 C 0.37023 0.35069 0.98505 0.0
C178 C 0.32444 0.34016 0.03153 0.0
C179 C 0.3478 0.3619 0.03179 0.0
N180 N 0.36044 0.32356 0.95887 0.0
N181 N 0.33276 0.31785 0.98568 0.0
C182 C 0.40161 0.36386 0.9711 0.0
H183 H 0.41537 0.34815 0.93667 0.0
H184 H 0.41377 0.36775 0.02248 0.0
H185 H 0.3993 0.38651 0.94409 0.0
C186 C 0.41841 0.21552 0.95771 0.0
N187 N 0.40345 0.23556 0.91486 0.0
N188 N 0.39935 0.2618 0.94875 0.0
C189 C 0.41262 0.25957 1.01418 0.0
C190 C 0.42527 0.22994 0.02291 0.0
C191 C 0.42392 0.1825 0.93779 0.0
H192 H 0.40582 0.17431 0.90056 0.0
H193 H 0.44654 0.1806 0.91027 0.0
H194 H 0.42401 0.16753 0.98587 0.0
O195 O 0.3419 0.2326 0.8264 0.0
O196 O 0.33799 0.28189 0.84893 0.0
H197 H 0.39358 0.28705 0.09829 0.0
H198 H 0.43513 0.28372 0.10085 0.0
C199 C 0.41487 0.28608 0.06526 0.0
H200 H 0.41687 0.30796 0.03527 0.0
H201 H 0.31995 0.29796 0.97497 0.0
O202 O 0.3949 0.19473 0.77302 0.0
C203 C 0.32571 0.25661 0.8302 0.0
Co204 Co 0.03568 0.13676 0.08433 0.0
Co205 Co 0.97709 0.11623 0.15689 0.0
C206 C 0.97073 0.15752 0.03514 0.0
O207 O 0.99999 0.15582 0.03135 0.0
O208 O 0.95608 0.14365 0.08497 0.0
C209 C 0.06438 0.19127 0.0642 0.0
O210 O 0.04058 0.20016 0.10267 0.0
C211 C 0.92455 0.10384 0.25183 0.0
C212 C 0.93463 0.05592 0.28429 0.0
C213 C 0.91473 0.08024 0.29663 0.0
N214 N 0.94907 0.09393 0.21492 0.0
N215 N 0.95438 0.06492 0.23282 0.0
C216 C 0.91383 0.13666 0.25245 0.0
H217 H 0.9289 0.1513 0.21837 0.0
H218 H 0.9136 0.14576 0.30799 0.0
H219 H 0.88984 0.13761 0.23223 0.0
C220 C 0.05507 0.15317 0.22933 0.0
N221 N 0.03406 0.14142 0.18385 0.0
N222 N 0.00757 0.13751 0.21655 0.0
C223 C 0.01061 0.14864 0.28433 0.0
C224 C 0.04092 0.15918 0.29433 0.0
C225 C 0.08809 0.1595 0.20995 0.0
H226 H 0.095 0.14612 0.16201 0.0
H227 H 0.09125 0.18457 0.20024 0.0
H228 H 0.1038 0.153 0.25378 0.0
O229 O 0.04117 0.09329 0.05504 0.0
O230 O 0.99569 0.08152 0.1009 0.0
H231 H 0.97392 0.12587 0.34011 0.0
H232 H 0.99441 0.15439 0.39294 0.0
C233 C 0.9854 0.14876 0.33896 0.0
H234 H 0.96803 0.16628 0.32384 0.0
H235 H 0.97286 0.0519 0.21359 0.0
O236 O 0.06872 0.16262 0.05317 0.0
C237 C 0.01958 0.07392 0.06549 0.0
Co238 Co 0.14521 0.78844 0.30062 0.0
Co239 Co 0.15581 0.72797 0.37759 0.0
C240 C 0.11539 0.72869 0.24834 0.0
O241 O 0.12022 0.75769 0.24177 0.0
O242 O 0.12748 0.71365 0.29971 0.0
C243 C 0.15719 0.82909 0.1983 0.0
O244 O 0.16826 0.80288 0.17394 0.0
C245 C 0.14965 0.67283 0.46508 0.0
C246 C 0.19684 0.66891 0.50809 0.0
C247 C 0.1676 0.65634 0.51294 0.0
N248 N 0.16721 0.69479 0.43583 0.0
N249 N 0.19568 0.69164 0.45957 0.0
C250 C 0.11586 0.66938 0.45078 0.0
H251 H 0.11234 0.66586 0.39258 0.0
H252 H 0.10373 0.69097 0.46564 0.0
H253 H 0.10581 0.64954 0.48032 0.0
C254 C 0.11946 0.80895 0.44194 0.0
N255 N 0.13308 0.78804 0.39842 0.0
N256 N 0.13805 0.7623 0.43381 0.0
C257 C 0.12759 0.76638 0.50183 0.0
C258 C 0.11527 0.79605 0.50954 0.0
C259 C 0.10937 0.84022 0.41784 0.0
H260 H 0.10134 0.83913 0.36163 0.0
H261 H 0.09068 0.84937 0.45253 0.0
H262 H 0.12934 0.85626 0.42016 0.0
O263 O 0.19048 0.78274 0.29158 0.0
O264 O 0.19646 0.73629 0.33428 0.0
H265 H 0.13241 0.7542 0.61271 0.0
H266 H 0.10836 0.72907 0.56068 0.0
C267 C 0.12991 0.74286 0.55974 0.0
H268 H 0.14981 0.72745 0.55016 0.0
H269 H 0.21399 0.70621 0.44607 0.0
O270 O 0.1418 0.82903 0.25639 0.0
C271 C 0.20747 0.75976 0.30357 0.0
Co272 Co 0.89625 0.72943 0.30869 0.0
Co273 Co 0.88943 0.78908 0.38552 0.0
C274 C 0.92625 0.79122 0.25633 0.0
O275 O 0.91702 0.76332 0.24704 0.0
O276 O 0.91972 0.8057 0.31411 0.0
C277 C 0.88239 0.69062 0.20384 0.0
O278 O 0.86881 0.71656 0.18613 0.0
C279 C 0.88356 0.84197 0.48605 0.0
C280 C 0.83476 0.83572 0.51737 0.0
C281 C 0.86043 0.85371 0.52973 0.0
N282 N 0.87191 0.81823 0.44899 0.0
N283 N 0.8425 0.81517 0.46679 0.0
C284 C 0.91695 0.85065 0.4867 0.0
H285 H 0.93041 0.83547 0.45035 0.0
H286 H 0.92609 0.84895 0.54192 0.0
H287 H 0.91946 0.87505 0.46962 0.0
C288 C 0.92486 0.70737 0.44547 0.0
N289 N 0.91148 0.72871 0.4032 0.0
N290 N 0.90751 0.75447 0.43927 0.0
C291 C 0.91895 0.75032 0.50614 0.0
C292 C 0.93036 0.72021 0.51267 0.0
C293 C 0.93255 0.67536 0.42137 0.0
H294 H 0.93919 0.67545 0.36401 0.0
H295 H 0.95149 0.6655 0.45379 0.0
H296 H 0.91182 0.66053 0.42755 0.0
O297 O 0.851 0.7316 0.31426 0.0
O298 O 0.85066 0.78137 0.33003 0.0
H299 H 0.92237 0.76417 0.61701 0.0
H300 H 0.93684 0.79157 0.55251 0.0
C301 C 0.91842 0.77441 0.56347 0.0
H302 H 0.89595 0.78648 0.56335 0.0
H303 H 0.82801 0.79781 0.44769 0.0
O304 O 0.89998 0.69025 0.25819 0.0
C305 C 0.8367 0.75679 0.31319 0.0
Co306 Co 0.64574 0.27594 0.84545 0.0
Co307 Co 0.65836 0.21349 0.90446 0.0
C308 C 0.61934 0.21454 0.78048 0.0
O309 O 0.62584 0.24335 0.78063 0.0
O310 O 0.62842 0.19731 0.83158 0.0
C311 C 0.59631 0.30939 0.81857 0.0
O312 O 0.5841 0.2857 0.85231 0.0
C313 C 0.66997 0.15786 0.99218 0.0
C314 C 0.71851 0.16656 0.02118 0.0
C315 C 0.69396 0.14697 0.03419 0.0
N316 N 0.67981 0.18292 0.95697 0.0
N317 N 0.70921 0.18728 0.97263 0.0
C318 C 0.6372 0.147 0.99302 0.0
H319 H 0.62272 0.16155 0.95782 0.0
H320 H 0.62801 0.14742 0.04851 0.0
H321 H 0.63626 0.1227 0.97427 0.0
C322 C 0.62527 0.29067 0.99051 0.0
N323 N 0.63823 0.27103 0.94346 0.0
N324 N 0.6389 0.2431 0.96995 0.0
C325 C 0.6245 0.24392 0.03483 0.0
C326 C 0.61485 0.27432 0.04959 0.0
C327 C 0.6245 0.32501 0.98071 0.0
H328 H 0.64349 0.33252 0.94477 0.0
H329 H 0.60226 0.33196 0.95679 0.0
H330 H 0.62674 0.33692 0.03308 0.0
O331 O 0.68908 0.27986 0.82199 0.0
O332 O 0.69461 0.23072 0.84837 0.0
H333 H 0.63924 0.20371 0.09094 0.0
H334 H 0.60483 0.22133 0.12798 0.0
C335 C 0.61744 0.21576 0.07798 0.0
H336 H 0.60303 0.19992 0.04553 0.0
H337 H 0.72241 0.20585 0.95439 0.0
O338 O 0.6253 0.31286 0.81911 0.0
C339 C 0.70526 0.25561 0.82174 0.0
Co340 Co 0.64815 0.73339 0.20552 0.0
Co341 Co 0.66185 0.79457 0.13171 0.0
C342 C 0.62063 0.79464 0.25986 0.0
O343 O 0.62371 0.76525 0.26294 0.0
O344 O 0.63388 0.81033 0.21041 0.0
C345 C 0.65852 0.67102 0.24336 0.0
O346 O 0.68705 0.67587 0.22272 0.0
C347 C 0.66857 0.85057 0.04039 0.0
C348 C 0.71536 0.84159 0.99829 0.0
C349 C 0.69083 0.86167 0.99328 0.0
N350 N 0.67945 0.82493 0.07121 0.0
N351 N 0.70781 0.82032 0.04728 0.0
C352 C 0.63639 0.86228 0.04974 0.0
H353 H 0.62305 0.84721 0.08658 0.0
H354 H 0.62474 0.8635 0.99706 0.0
H355 H 0.63723 0.88608 0.07176 0.0
C356 C 0.62605 0.71478 0.06078 0.0
N357 N 0.63911 0.73528 0.10614 0.0
N358 N 0.64256 0.76196 0.07403 0.0
C359 C 0.63058 0.7595 1.00711 0.0
C360 C 0.61938 0.72931 0.99599 0.0
C361 C 0.62204 0.68127 0.0782 0.0
H362 H 0.6432 0.67262 0.1041 0.0
H363 H 0.6025 0.67842 0.1161 0.0
H364 H 0.61805 0.66705 0.02979 0.0
O365 O 0.69232 0.73699 0.22781 0.0
O366 O 0.7007 0.78223 0.17966 0.0
H367 H 0.6504 0.79152 0.93325 0.0
H368 H 0.61056 0.78179 0.91459 0.0
C369 C 0.62758 0.78631 0.95744 0.0
H370 H 0.62008 0.8068 0.98814 0.0
H371 H 0.72144 0.80144 0.06093 0.0
O372 O 0.63843 0.69231 0.23959 0.0
C373 C 0.71027 0.75925 0.21461 0.0
Co374 Co 0.89156 0.28358 0.7325 0.0
Co375 Co 0.88488 0.22283 0.65254 0.0
C376 C 0.91482 0.22215 0.7949 0.0
O377 O 0.91022 0.25127 0.79843 0.0
O378 O 0.90705 0.20691 0.73922 0.0
C379 C 0.87766 0.32419 0.83569 0.0
O380 O 0.86151 0.29955 0.85252 0.0
C381 C 0.88362 0.16232 0.5789 0.0
C382 C 0.8533 0.17472 0.48867 0.0
C383 C 0.86984 0.15046 0.5175 0.0
N384 N 0.87592 0.19222 0.58445 0.0
N385 N 0.85728 0.19924 0.53136 0.0
C386 C 0.90168 0.14542 0.63441 0.0
H387 H 0.895 0.15361 0.68846 0.0
H388 H 0.92659 0.15031 0.62677 0.0
H389 H 0.8975 0.12016 0.63131 0.0
C390 C 0.92478 0.30346 0.59842 0.0
N391 N 0.90963 0.28273 0.63966 0.0
N392 N 0.90729 0.25641 0.60498 0.0
C393 C 0.92164 0.25947 0.54068 0.0
C394 C 0.9331 0.2896 0.53371 0.0
C395 C 0.93141 0.33591 0.6212 0.0
H396 H 0.93706 0.33653 0.679 0.0
H397 H 0.95072 0.34596 0.58976 0.0
H398 H 0.91049 0.35011 0.61289 0.0
O399 O 0.84639 0.27964 0.72663 0.0
O400 O 0.84215 0.23265 0.68426 0.0
H401 H 0.94143 0.23861 0.44556 0.0
H402 H 0.92676 0.21179 0.51165 0.0
C403 C 0.92298 0.23442 0.4855 0.0
H404 H 0.90066 0.2335 0.45687 0.0
H405 H 0.84762 0.22103 0.52382 0.0
O406 O 0.8954 0.32326 0.7813 0.0
C407 C 0.82991 0.25658 0.71083 0.0
Co408 Co 0.98682 0.63295 0.974 0.0
Co409 Co 0.04813 0.61931 0.90378 0.0
C410 C 0.0454 0.66162 0.03152 0.0
O411 O 0.01599 0.65934 0.03399 0.0
O412 O 0.06091 0.64724 0.98394 0.0
C413 C 0.92403 0.61893 1.00074 0.0
O414 O 0.93038 0.59139 0.97539 0.0
C415 C 0.10588 0.62493 0.82755 0.0
C416 C 0.10843 0.57958 0.77372 0.0
C417 C 0.12234 0.60836 0.77654 0.0
N418 N 0.08253 0.60737 0.85019 0.0
N419 N 0.08487 0.57981 0.8204 0.0
C420 C 0.11058 0.6577 0.85096 0.0
H421 H 0.1125 0.65847 0.91007 0.0
H422 H 0.09016 0.67165 0.83616 0.0
H423 H 0.13179 0.66782 0.82716 0.0
C424 C 0.97012 0.65587 0.82861 0.0
N425 N 0.98987 0.64238 0.87477 0.0
N426 N 0.0164 0.63745 0.84271 0.0
C427 C 0.01418 0.64797 0.7744 0.0
C428 C 0.98471 0.66001 0.76295 0.0
C429 C 0.9385 0.66666 0.84873 0.0
H430 H 0.92331 0.6463 0.85659 0.0
H431 H 0.93949 0.6796 0.89993 0.0
H432 H 0.92843 0.68168 0.80695 0.0
O433 O 0.99219 0.58846 0.99753 0.0
O434 O 0.0367 0.57943 0.9456 0.0
H435 H 0.05478 0.62702 0.72996 0.0
H436 H 0.03038 0.64622 0.6655 0.0
C437 C 0.03968 0.64716 0.7207 0.0
H438 H 0.05338 0.66866 0.72612 0.0
H439 H 0.06906 0.56186 0.82805 0.0
O440 O 0.94471 0.63979 1.00342 0.0
C441 C 0.01399 0.57021 0.98233 0.0
Co442 Co 0.53806 0.38209 0.46854 0.0
Co443 Co 0.48046 0.39061 0.38728 0.0
C444 C 0.47397 0.3586 0.52236 0.0
O445 O 0.50241 0.36553 0.52991 0.0
O446 O 0.46022 0.36485 0.46391 0.0
C447 C 0.5683 0.34013 0.53579 0.0
O448 O 0.54871 0.32331 0.49891 0.0
C449 C 0.42307 0.40294 0.30996 0.0
C450 C 0.4425 0.42457 0.21277 0.0
C451 C 0.41488 0.41555 0.24417 0.0
N452 N 0.45385 0.40383 0.31518 0.0
N453 N 0.46526 0.41754 0.25796 0.0
C454 C 0.40254 0.39231 0.36956 0.0
H455 H 0.41281 0.39877 0.42176 0.0
H456 H 0.40062 0.36676 0.36793 0.0
H457 H 0.3793 0.40278 0.36543 0.0
C458 C 0.56016 0.35048 0.33701 0.0
N459 N 0.53901 0.36637 0.37506 0.0
N460 N 0.51305 0.36746 0.34004 0.0
C461 C 0.51637 0.35087 0.27886 0.0
C462 C 0.5466 0.33925 0.27454 0.0
C463 C 0.59329 0.34805 0.35843 0.0
H464 H 0.60001 0.36824 0.39152 0.0
H465 H 0.5966 0.32682 0.39055 0.0
H466 H 0.60853 0.34697 0.31069 0.0
O467 O 0.53966 0.42679 0.47331 0.0
O468 O 0.49277 0.43193 0.43065 0.0
H469 H 0.49062 0.36182 0.18523 0.0
H470 H 0.49279 0.32112 0.2043 0.0
C471 C 0.49037 0.34439 0.22862 0.0
H472 H 0.46795 0.34599 0.25716 0.0
H473 H 0.48873 0.42142 0.24917 0.0
O474 O 0.5735 0.36755 0.51627 0.0
C475 C 0.51661 0.44358 0.45983 0.0
Co476 Co 0.99127 0.38065 0.07579 0.0
Co477 Co 0.053 0.39274 0.14702 0.0
C478 C 0.0509 0.35755 1.00824 0.0
O479 O 0.02148 0.35944 1.00843 0.0
O480 O 0.06665 0.36906 0.05943 0.0
C481 C 0.92836 0.39257 0.04394 0.0
O482 O 0.93333 0.42042 0.06907 0.0
C483 C 0.11463 0.39237 0.21227 0.0
C484 C 0.10694 0.42679 0.2978 0.0
C485 C 0.12864 0.40631 0.27104 0.0
N486 N 0.08588 0.40339 0.20709 0.0
N487 N 0.08178 0.42463 0.25684 0.0
C488 C 0.12843 0.37053 0.15898 0.0
H489 H 0.12102 0.3769 0.10434 0.0
H490 H 0.12002 0.34677 0.16992 0.0
H491 H 0.15399 0.37119 0.16068 0.0
C492 C 0.97556 0.35268 0.21769 0.0
N493 N 0.99511 0.36701 0.17203 0.0
N494 N 0.02182 0.37121 0.20333 0.0
C495 C 0.02016 0.3592 0.27034 0.0
C496 C 0.99054 0.34718 0.28226 0.0
C497 C 0.94339 0.34334 0.19851 0.0
H498 H 0.92887 0.36431 0.19445 0.0
H499 H 0.94344 0.33177 0.14554 0.0
H500 H 0.93322 0.3275 0.23878 0.0
O501 O 0.99502 0.42594 0.06498 0.0
O502 O 0.04015 0.43413 0.11461 0.0
H503 H 0.04824 0.38442 0.34345 0.0
H504 H 0.04194 0.34489 0.36896 0.0
C505 C 0.04603 0.36048 0.32295 0.0
H506 H 0.06799 0.35426 0.29603 0.0
H507 H 0.06126 0.43674 0.26454 0.0
O508 O 0.9497 0.3725 0.0435 0.0
C509 C 0.01654 0.44416 0.08262 0.0
Co510 Co 0.54767 0.63062 0.55012 0.0
Co511 Co 0.48839 0.62508 0.62985 0.0
C512 C 0.48598 0.65976 0.49783 0.0
O513 O 0.51394 0.65097 0.48897 0.0
O514 O 0.47154 0.65353 0.55574 0.0
C515 C 0.58678 0.61841 0.44318 0.0
O516 O 0.56197 0.60271 0.4257 0.0
C517 C 0.43315 0.6217 0.72319 0.0
C518 C 0.44128 0.5757 0.77098 0.0
C519 C 0.42095 0.60023 0.77116 0.0
N520 N 0.45942 0.61016 0.6966 0.0
N521 N 0.46382 0.58251 0.72441 0.0
C522 C 0.42179 0.65352 0.70678 0.0
H523 H 0.43911 0.66654 0.67504 0.0
H524 H 0.41675 0.66623 0.75707 0.0
H525 H 0.40026 0.6519 0.67521 0.0
C526 C 0.57057 0.66071 0.68543 0.0
N527 N 0.54904 0.64667 0.6445 0.0
N528 N 0.52306 0.64453 0.68023 0.0
C529 C 0.5269 0.65843 0.74472 0.0
C530 C 0.55743 0.66925 0.75121 0.0
C531 C 0.60354 0.66398 0.66282 0.0
H532 H 0.60977 0.6455 0.62433 0.0
H533 H 0.60676 0.68657 0.63591 0.0
H534 H 0.61913 0.66277 0.70963 0.0
O535 O 0.54477 0.58548 0.55328 0.0
O536 O 0.4958 0.58441 0.58 0.0
H537 H 0.49911 0.64332 0.83255 0.0
H538 H 0.50471 0.68471 0.82866 0.0
C539 C 0.50098 0.66352 0.79637 0.0
H540 H 0.47904 0.66576 0.76712 0.0
H541 H 0.48275 0.56852 0.71298 0.0
O542 O 0.58623 0.6355 0.49857 0.0
C543 C 0.51978 0.57077 0.5578 0.0
C544 C 0.49535 0.02479 0.48785 0.0
C545 C 0.52292 0.04168 0.48128 0.0
H546 H 0.47408 0.98172 0.51466 0.0
C547 C 0.55093 0.02716 0.49775 0.0
H548 H 0.4734 0.03533 0.4755 0.0
C549 C 0.55125 0.99655 0.52184 0.0
C550 C 0.52363 0.97968 0.52834 0.0
H551 H 0.57251 0.03969 0.49374 0.0
H552 H 0.57314 0.98601 0.53475 0.0
C553 C 0.49574 0.99406 0.51034 0.0
C554 C 0.27739 0.2829 0.79111 0.0
C555 C 0.29291 0.25554 0.80849 0.0
H556 H 0.23601 0.30349 0.75237 0.0
C557 C 0.27718 0.22721 0.80186 0.0
H558 H 0.28884 0.30508 0.79531 0.0
C559 C 0.24659 0.2263 0.77804 0.0
C560 C 0.23139 0.25366 0.75901 0.0
H561 H 0.28853 0.20571 0.81488 0.0
H562 H 0.23508 0.20418 0.77319 0.0
C563 C 0.24713 0.28194 0.76608 0.0
C564 C 0.99401 0.02582 0.02148 0.0
C565 C 0.02135 0.04216 0.03608 0.0
H566 H 0.97346 0.98347 0.98646 0.0
C567 C 0.04977 0.02749 0.02444 0.0
H568 H 0.97173 0.03656 0.02949 0.0
C569 C 0.05073 0.99672 1.00099 0.0
C570 C 0.02331 0.98034 0.98703 0.0
H571 H 0.07118 0.03948 0.03537 0.0
H572 H 0.07293 0.98573 0.99397 0.0
C573 C 0.99498 0.99543 0.99649 0.0
C574 C 0.28657 0.73191 0.24571 0.0
C575 C 0.30133 0.75973 0.22752 0.0
H576 H 0.24556 0.71015 0.2854 0.0
C577 C 0.285 0.78757 0.2348 0.0
H578 H 0.29859 0.71011 0.24114 0.0
C579 C 0.25453 0.78758 0.25941 0.0
C580 C 0.2399 0.75981 0.27858 0.0
H581 H 0.29574 0.80941 0.2213 0.0
H582 H 0.24254 0.8094 0.264 0.0
C583 C 0.25627 0.73197 0.27158 0.0
C584 C 0.78661 0.73025 0.28621 0.0
C585 C 0.80411 0.75759 0.28974 0.0
H586 H 0.74323 0.70936 0.26056 0.0
C587 C 0.7904 0.7855 0.26891 0.0
H588 H 0.79649 0.70836 0.30196 0.0
C589 C 0.76003 0.78598 0.244 0.0
C590 C 0.74251 0.75865 0.24061 0.0
H591 H 0.80328 0.80694 0.27075 0.0
H592 H 0.75021 0.80784 0.22783 0.0
C593 C 0.75607 0.73082 0.26254 0.0
C594 C 0.78109 0.22849 0.74196 0.0
C595 C 0.79695 0.2565 0.73194 0.0
H596 H 0.73996 0.20623 0.7794 0.0
C597 C 0.78195 0.28429 0.74927 0.0
H598 H 0.79206 0.20667 0.72973 0.0
C599 C 0.75199 0.28406 0.77722 0.0
C600 C 0.73657 0.256 0.78969 0.0
H601 H 0.79357 0.30626 0.74235 0.0
H602 H 0.74123 0.30585 0.79071 0.0
C603 C 0.75133 0.22823 0.7711 0.0
C604 C 0.9864 0.52231 0.02374 0.0
C605 C 0.01403 0.53829 1.01013 0.0
H606 H 0.96548 0.4796 0.05644 0.0
C607 C 0.04222 0.52348 0.02313 0.0
H608 H 0.96436 0.53321 1.0142 0.0
C609 C 0.04286 0.4933 0.04896 0.0
C610 C 0.01534 0.47692 0.06068 0.0
H611 H 0.06389 0.53532 1.0137 0.0
H612 H 0.06501 0.48249 0.05788 0.0
C613 C 0.98706 0.49169 0.04782 0.0
C614 C 0.48961 0.49315 0.49213 0.0
C615 C 0.5171 0.47649 0.48228 0.0
H616 H 0.46877 0.53577 0.52527 0.0
C617 C 0.54527 0.49107 0.49803 0.0
H618 H 0.46751 0.4825 0.48107 0.0
C619 C 0.546 0.52152 0.52278 0.0
C620 C 0.51856 0.53811 0.53357 0.0
H621 H 0.56688 0.47893 0.49115 0.0
H622 H 0.56817 0.53202 0.53389 0.0
C623 C 0.49031 0.52356 0.51809 0.0
C624 C 0.44823 0.21061 0.21649 0.0
C625 C 0.47201 0.18878 0.20745 0.0
H626 H 0.41417 0.23937 0.16733 0.0
C627 C 0.48105 0.18171 0.13684 0.0
H628 H 0.44099 0.2175 0.2696 0.0
C629 C 0.4666 0.1956 0.0777 0.0
C630 C 0.44197 0.21648 0.08669 0.0
H631 H 0.49897 0.16492 0.12682 0.0
H632 H 0.47482 0.1898 0.02469 0.0
C633 C 0.43316 0.2238 0.15733 0.0
C634 C 0.04565 0.2047 0.37906 0.0
C635 C 0.05563 0.17536 0.35619 0.0
H636 H 0.05425 0.24388 0.44781 0.0
C637 C 0.08273 0.16333 0.38587 0.0
H638 H 0.02509 0.2148 0.35634 0.0
C639 C 0.10002 0.18041 0.43511 0.0
C640 C 0.09008 0.20954 0.45886 0.0
H641 H 0.09091 0.14072 0.37001 0.0
H642 H 0.12112 0.17055 0.45565 0.0
C643 C 0.06267 0.22161 0.43016 0.0
C644 C 0.07639 0.79548 0.61158 0.0
C645 C 0.10044 0.8105 0.57443 0.0
H646 H 0.04372 0.79722 0.69873 0.0
C647 C 0.11001 0.83968 0.59937 0.0
H648 H 0.06828 0.77311 0.59372 0.0
C649 C 0.09621 0.85329 0.66002 0.0
C650 C 0.07195 0.83845 0.69661 0.0
H651 H 0.12853 0.85185 0.57241 0.0
H652 H 0.10441 0.87559 0.67822 0.0
C653 C 0.06216 0.80939 0.67146 0.0
C654 C 0.47053 0.83035 0.95231 0.0
C655 C 0.44695 0.80812 0.94416 0.0
H656 H 0.50145 0.86248 0.9018 0.0
C657 C 0.43849 0.80008 0.87385 0.0
H658 H 0.47849 0.83678 1.00502 0.0
C659 C 0.45307 0.81361 0.81422 0.0
C660 C 0.47575 0.83673 0.82233 0.0
H661 H 0.42021 0.78357 0.86442 0.0
H662 H 0.44633 0.80592 0.76144 0.0
C663 C 0.48433 0.84473 0.89259 0.0
C664 C 0.65793 0.92193 0.87374 0.0
C665 C 0.65218 0.90388 0.8123 0.0
H666 H 0.67445 0.92214 0.98182 0.0
C667 C 0.66598 0.87467 0.8067 0.0
H668 H 0.64797 0.9447 0.87956 0.0
C669 C 0.68207 0.86251 0.86403 0.0
C670 C 0.68388 0.87891 0.92845 0.0
H671 H 0.66188 0.85947 0.76217 0.0
H672 H 0.69006 0.83886 0.86055 0.0
C673 C 0.67312 0.90922 0.93224 0.0
C674 C 0.88397 0.91413 0.66096 0.0
C675 C 0.89397 0.89516 0.71742 0.0
H676 H 0.86588 0.91538 0.55425 0.0
C677 C 0.88647 0.86358 0.71623 0.0
H678 H 0.88932 0.93858 0.66045 0.0
C679 C 0.8722 0.85081 0.65694 0.0
C680 C 0.86604 0.86918 0.59737 0.0
H681 H 0.89444 0.84775 0.75641 0.0
H682 H 0.86893 0.826 0.65468 0.0
C683 C 0.87061 0.90105 0.60033 0.0
C684 C 0.86822 0.09577 0.36395 0.0
C685 C 0.89882 0.08581 0.36427 0.0
H686 H 0.83415 0.12308 0.4167 0.0
C687 C 0.91694 0.0902 0.42528 0.0
H688 H 0.85407 0.09268 0.31683 0.0
C689 C 0.90623 0.10866 0.4809 0.0
C690 C 0.87684 0.12207 0.47696 0.0
H691 H 0.94085 0.083 0.42571 0.0
H692 H 0.92259 0.11523 0.52153 0.0
C693 C 0.85706 0.11336 0.42084 0.0
C694 C 0.66984 0.14059 0.22207 0.0
C695 C 0.65331 0.11272 0.21911 0.0
H696 H 0.69741 0.17282 0.16411 0.0
C697 C 0.65911 0.09207 0.16233 0.0
H698 H 0.66593 0.1574 0.26372 0.0
C699 C 0.67637 0.10162 0.10337 0.0
C700 C 0.68893 0.13134 0.10236 0.0
H701 H 0.64712 0.07014 0.15921 0.0
H702 H 0.67702 0.08724 0.05591 0.0
C703 C 0.68794 0.14963 0.16425 0.0
C704 C 0.98464 0.7022 0.6688 0.0
C705 C 0.97171 0.67497 0.69715 0.0
H706 H 0.98139 0.73821 0.58966 0.0
C707 C 0.9452 0.66282 0.66416 0.0
H708 H 1.00491 0.71228 0.69322 0.0
C709 C 0.93208 0.67732 0.60423 0.0
C710 C 0.94461 0.70485 0.57661 0.0
H711 H 0.93461 0.64197 0.6848 0.0
H712 H 0.91176 0.66723 0.58004 0.0
C713 C 0.97104 0.71715 0.60982 0.0
C714 C 0.57797 0.69461 0.94275 0.0
C715 C 0.60253 0.71557 0.93252 0.0
H716 H 0.5464 0.66234 0.89631 0.0
C717 C 0.61121 0.72216 0.86149 0.0
H718 H 0.56976 0.68944 0.99614 0.0
C719 C 0.59611 0.70802 0.80315 0.0
C720 C 0.57254 0.68586 0.81359 0.0
H721 H 0.63006 0.73791 0.85072 0.0
H722 H 0.60309 0.71459 0.74976 0.0
C723 C 0.56384 0.6795 0.88475 0.0
C724 C 0.57077 0.30784 0.09121 0.0
C725 C 0.59474 0.2872 0.10819 0.0
H726 H 0.53793 0.34105 0.12857 0.0
C727 C 0.60067 0.28163 0.18081 0.0
H728 H 0.56479 0.31211 0.03598 0.0
C729 C 0.58399 0.29726 0.23456 0.0
C730 C 0.56156 0.31965 0.21736 0.0
H731 H 0.61893 0.26605 0.19624 0.0
H732 H 0.5892 0.29214 0.28976 0.0
C733 C 0.55479 0.32412 0.14469 0.0
C734 C 0.93601 0.33127 0.43942 0.0
C735 C 0.94851 0.30447 0.47019 0.0
H736 H 0.93935 0.36551 0.35654 0.0
C737 C 0.97576 0.29238 0.44004 0.0
H738 H 0.91512 0.34124 0.46122 0.0
C739 C 0.98984 0.30648 0.38022 0.0
C740 C 0.97697 0.33299 0.34877 0.0
H741 H 0.9863 0.27205 0.46293 0.0
H742 H 0.01049 0.29629 0.3577 0.0
C743 C 0.94989 0.34516 0.37936 0.0
C744 C 0.16361 0.36412 0.31194 0.0
C745 C 0.15478 0.39532 0.31438 0.0
H746 H 0.18302 0.32634 0.36904 0.0
C747 C 0.16511 0.41386 0.37154 0.0
H748 H 0.15562 0.34856 0.271 0.0
C749 C 0.17964 0.40042 0.43006 0.0
C750 C 0.18521 0.36869 0.43013 0.0
H751 H 0.15892 0.43803 0.3748 0.0
H752 H 0.18413 0.41421 0.47732 0.0
C753 C 0.17916 0.35106 0.36905 0.0
C754 C 0.35056 0.37185 0.16097 0.0
C755 C 0.35338 0.38325 0.09116 0.0
H756 H 0.36808 0.3729 0.26576 0.0
C757 C 0.36806 0.41158 0.07949 0.0
H758 H 0.3389 0.35016 0.17142 0.0
C759 C 0.38421 0.42559 0.13514 0.0
C760 C 0.3866 0.4107 0.20183 0.0
H761 H 0.36966 0.42119 0.02616 0.0
H762 H 0.39806 0.4458 0.12312 0.0
C763 C 0.36736 0.38528 0.21594 0.0
C764 C 0.38947 0.60953 0.95534 0.0
C765 C 0.36894 0.63384 0.94354 0.0
H766 H 0.42254 0.57943 0.90807 0.0
C767 C 0.35863 0.6397 0.8737 0.0
H768 H 0.39623 0.60315 1.00891 0.0
C769 C 0.37303 0.62551 0.81582 0.0
C770 C 0.398 0.60581 0.82761 0.0
H771 H 0.34181 0.65752 0.86308 0.0
H772 H 0.3664 0.63205 0.76227 0.0
C773 C 0.40417 0.59566 0.89745 0.0
C774 C 0.1603 0.60569 0.67589 0.0
C775 C 0.13726 0.62173 0.71353 0.0
H776 H 0.18837 0.60435 0.58073 0.0
C777 C 0.12425 0.64822 0.68352 0.0
H778 H 0.17015 0.58476 0.69759 0.0
C779 C 0.13366 0.65848 0.61743 0.0
C780 C 0.15631 0.64257 0.57913 0.0
H781 H 0.1058 0.66063 0.70935 0.0
H782 H 0.12321 0.67919 0.5968 0.0
C783 C 0.17024 0.61645 0.60912 0.0
C784 C 0.37318 0.16887 0.59774 0.0
C785 C 0.38164 0.16571 0.66978 0.0
H786 H 0.38304 0.15485 0.49045 0.0
C787 C 0.39828 0.13969 0.6916 0.0
H788 H 0.35978 0.18842 0.57976 0.0
C789 C 0.4105 0.11982 0.64039 0.0
C790 C 0.40659 0.12647 0.56775 0.0
H791 H 0.40439 0.13644 0.74721 0.0
H792 H 0.42661 0.10219 0.6572 0.0
C793 C 0.386 0.14942 0.54658 0.0
C794 C 0.05504 0.22569 0.96511 0.0
C795 C 0.07668 0.2116 1.00983 0.0
H796 H 0.04159 0.23334 0.85684 0.0
C797 C 0.106 0.20449 0.9835 0.0
H798 H 0.0325 0.23209 0.98517 0.0
C799 C 0.11106 0.20462 0.91036 0.0
C800 C 0.08708 0.21285 0.86374 0.0
H801 H 0.12313 0.1941 1.01793 0.0
H802 H 0.13297 0.19618 0.89054 0.0
C803 C 0.05991 0.22559 0.89162 0.0
C804 C 0.13501 0.90485 0.12055 0.0
C805 C 0.14081 0.89801 0.04843 0.0
H806 H 0.13492 0.88685 0.22693 0.0
C807 C 0.1615 0.87455 0.03056 0.0
H808 H 0.11921 0.9232 0.135 0.0
C809 C 0.17048 0.85372 0.08283 0.0
C810 C 0.15852 0.85645 0.15254 0.0
H811 H 0.16638 0.86921 0.97498 0.0
H812 H 0.18335 0.8335 0.06637 0.0
C813 C 0.14341 0.88367 0.17285 0.0
C814 C 0.37518 0.85127 0.43478 0.0
C815 C 0.38436 0.85457 0.36306 0.0
H816 H 0.38408 0.86528 0.54236 0.0
C817 C 0.40045 0.88113 0.3417 0.0
H818 H 0.36205 0.83136 0.45237 0.0
C819 C 0.41191 0.90123 0.39334 0.0
C820 C 0.40787 0.89417 0.46583 0.0
H821 H 0.407 0.88457 0.28629 0.0
H822 H 0.42792 0.91916 0.37698 0.0
C823 C 0.38725 0.87096 0.48636 0.0
C824 C 0.60004 0.8524 0.40704 0.0
C825 C 0.57205 0.84065 0.43409 0.0
H826 H 0.63654 0.84787 0.32955 0.0
C827 C 0.55976 0.81386 0.40212 0.0
H828 H 0.61005 0.87311 0.42992 0.0
C829 C 0.57549 0.79882 0.3459 0.0
C830 C 0.60322 0.81093 0.31807 0.0
H831 H 0.53823 0.80422 0.42147 0.0
H832 H 0.56577 0.77788 0.32354 0.0
C833 C 0.61511 0.83808 0.34905 0.0
C834 C 0.96817 0.82805 0.21451 0.0
C835 C 0.94428 0.80711 0.19827 0.0
H836 H 1.00309 0.85899 0.17431 0.0
C837 C 0.93746 0.80181 0.12565 0.0
H838 H 0.97414 0.83266 0.26972 0.0
C839 C 0.9534 0.81765 0.07103 0.0
C840 C 0.97747 0.8384 0.08718 0.0
H841 H 0.91917 0.78596 0.11104 0.0
H842 H 0.94696 0.81352 1.0159 0.0
C843 C 0.9849 0.84304 0.15974 0.0
C844 C 0.94945 0.22088 0.90332 0.0
C845 C 0.92851 0.20576 0.85768 0.0
H846 H 0.97916 0.21742 0.99481 0.0
C847 C 0.92029 0.17502 0.87371 0.0
H848 H 0.9563 0.24451 0.89282 0.0
C849 C 0.93268 0.15987 0.93367 0.0
C850 C 0.95423 0.17478 0.97795 0.0
H851 H 0.90407 0.16272 0.84013 0.0
H852 H 0.92622 0.13611 0.94396 0.0
C853 C 0.96252 0.20541 0.96188 0.0
C854 C 0.564 0.16537 0.66815 0.0
C855 C 0.56959 0.17635 0.59832 0.0
H856 H 0.57587 0.16794 0.77987 0.0
C857 C 0.59145 0.20009 0.5894 0.0
H858 H 0.5475 0.14694 0.67693 0.0
C859 C 0.60693 0.21279 0.64865 0.0
C860 C 0.60198 0.20128 0.71828 0.0
H861 H 0.59636 0.20907 0.53652 0.0
H862 H 0.62339 0.23125 0.6397 0.0
C863 C 0.58039 0.17726 0.72714 0.0
C864 C 0.90249 0.61532 0.1192 0.0
C865 C 0.89782 0.62351 0.04756 0.0
H866 H 0.90223 0.63171 0.22717 0.0
C867 C 0.87854 0.64828 0.03111 0.0
H868 H 0.91719 0.59599 0.13257 0.0
C869 C 0.86994 0.66872 0.08494 0.0
C870 C 0.88089 0.66428 0.15481 0.0
H871 H 0.87459 0.6547 0.97589 0.0
H872 H 0.85828 0.68979 0.06991 0.0
C873 C 0.8946 0.63613 0.17304 0.0
C874 C 0.65955 0.64677 0.36001 0.0
C875 C 0.65095 0.6449 0.28803 0.0
H876 H 0.64483 0.63982 0.46802 0.0
C877 C 0.62605 0.6264 0.26759 0.0
H878 H 0.67875 0.6612 0.37625 0.0
C879 C 0.60682 0.61398 0.31972 0.0
C880 C 0.61219 0.62085 0.39205 0.0
H881 H 0.61919 0.625 0.21199 0.0
H882 H 0.58587 0.60247 0.30284 0.0
C883 C 0.63992 0.63502 0.41231 0.0
C884 C 0.55951 0.30701 0.6419 0.0
C885 C 0.57328 0.33311 0.61095 0.0
H886 H 0.55455 0.27977 0.736 0.0
C887 C 0.58893 0.35452 0.6542 0.0
H888 H 0.54654 0.29063 0.61005 0.0
C889 C 0.59249 0.3489 0.72645 0.0
C890 C 0.58108 0.32149 0.75595 0.0
H891 H 0.59909 0.37531 0.6321 0.0
H892 H 0.60648 0.36459 0.75794 0.0
C893 C 0.56323 0.30131 0.71436 0.0
C894 C 0.90734 0.39542 0.92424 0.0
C895 C 0.90296 0.38681 0.99579 0.0
H896 H 0.90285 0.38129 0.81512 0.0
C897 C 0.88268 0.36282 1.01293 0.0
H898 H 0.9232 0.41388 0.91048 0.0
C899 C 0.87081 0.34437 0.95866 0.0
C900 C 0.88 0.34948 0.88746 0.0
H901 H 0.87936 0.35585 0.06808 0.0
H902 H 0.85773 0.32402 0.97354 0.0
C903 C 0.89616 0.37651 0.86989 0.0
C904 C 0.11173 0.34039 0.86463 0.0
C905 C 0.09792 0.31633 0.82556 0.0
H906 H 0.10818 0.37158 0.95395 0.0
C907 C 0.06849 0.30604 0.84678 0.0
H908 H 0.13458 0.34848 0.85037 0.0
C909 C 0.05309 0.31956 0.90526 0.0
C910 C 0.06716 0.34311 0.94569 0.0
H911 H 0.05736 0.28742 0.81793 0.0
H912 H 0.0304 0.3111 0.91979 0.0
C913 C 0.09672 0.35334 0.92451 0.0
C914 C 0.41908 0.30595 0.62789 0.0
C915 C 0.42686 0.31269 0.69941 0.0
H916 H 0.42692 0.31572 0.51629 0.0
C917 C 0.44997 0.33491 0.71182 0.0
H918 H 0.40136 0.28903 0.61629 0.0
C919 C 0.4653 0.34945 0.65447 0.0
C920 C 0.45721 0.34311 0.58294 0.0
H921 H 0.45666 0.3406 0.76603 0.0
H922 H 0.48335 0.36601 0.66623 0.0
C923 C 0.43364 0.32136 0.57051 0.0
C924 C 0.47661 0.67052 0.36682 0.0
C925 C 0.46999 0.67692 0.43916 0.0
H926 H 0.46624 0.67989 0.25654 0.0
C927 C 0.4477 0.69959 0.45456 0.0
H928 H 0.49352 0.65314 0.35289 0.0
C929 C 0.43276 0.71565 0.39921 0.0
C930 C 0.43887 0.70873 0.32687 0.0
H931 H 0.44205 0.70519 0.50956 0.0
H932 H 0.41586 0.73305 0.41308 0.0
C933 C 0.46089 0.6858 0.31152 0.0
C934 C 0.07186 0.72593 0.15809 0.0
C935 C 0.09666 0.71177 0.19374 0.0
H936 H 0.03548 0.72095 0.08047 0.0
C937 C 0.10388 0.68104 0.17595 0.0
H938 H 0.06563 0.74953 0.17056 0.0
C939 C 0.08735 0.66516 0.12293 0.0
C940 C 0.06239 0.6791 0.08789 0.0
H941 H 0.12285 0.66943 0.20197 0.0
H942 H 0.09391 0.6417 0.10983 0.0
C943 C 0.05453 0.70956 0.10669 0.0
loop_
_geom_bond_atom_site_label_1
_geom_bond_atom_site_label_2
_geom_bond_distance
_geom_bond_site_symmetry_2
_ccdc_geom_bond_type
Co0 O3 1.970 . S
Co0 N17 1.989 . S
Co0 O25 1.967 . S
Co0 O32 1.920 . S
Co1 O4 1.966 . S
Co1 N10 2.022 . S
Co1 N18 1.993 . S
Co1 O26 1.941 . S
C2 O3 1.258 . S
C2 O4 1.263 . S
O3 Co0 1.970 . S
O3 C2 1.258 . S
O4 Co1 1.966 . S
O4 C2 1.263 . S
C5 O6 1.235 . S
C5 O32 1.289 . S
O6 C5 1.235 . S
C7 C9 1.400 . S
C7 N10 1.351 . S
C7 C12 1.501 . S
C8 C9 1.387 . S
C8 N11 1.341 . S
C9 C7 1.400 . S
C9 C8 1.387 . S
N10 Co1 2.022 . S
N10 C7 1.351 . S
N10 N11 1.365 . S
N11 C8 1.341 . S
N11 N10 1.365 . S
N11 H31 0.862 . S
C12 C7 1.501 . S
C12 H13 0.961 . S
C12 H14 0.961 . S
C12 H15 0.960 . S
H13 C12 0.961 . S
H14 C12 0.961 . S
H15 C12 0.960 . S
C16 N17 1.342 . S
C16 C20 1.401 . S
C16 C21 1.499 . S
N17 Co0 1.989 . S
N17 C16 1.342 . S
N17 N18 1.388 . S
N18 Co1 1.993 . S
N18 N17 1.388 . S
N18 C19 1.346 . S
C19 N18 1.346 . S
C19 C20 1.396 . S
C19 C29 1.510 . S
C20 C16 1.401 . S
C20 C19 1.396 . S
C21 C16 1.499 . S
C21 H22 0.959 . S
C21 H23 0.960 . S
C21 H24 0.961 . S
H22 C21 0.959 . S
H23 C21 0.960 . S
H24 C21 0.961 . S
O25 Co0 1.967 . S
O25 C33 1.258 . S
O26 Co1 1.941 . S
O26 C33 1.266 . S
H27 C29 0.959 . S
H28 C29 0.961 . S
C29 C19 1.510 . S
C29 H27 0.959 . S
C29 H28 0.961 . S
C29 H30 0.960 . S
H30 C29 0.960 . S
H31 N11 0.862 . S
O32 Co0 1.920 . S
O32 C5 1.289 . S
C33 O25 1.258 . S
C33 O26 1.266 . S
Co34 O37 1.970 . S
Co34 N51 1.989 . S
Co34 O59 1.967 . S
Co34 O66 1.920 . S
Co35 O38 1.966 . S
Co35 N44 2.022 . S
Co35 N52 1.993 . S
Co35 O60 1.941 . S
C36 O37 1.258 . S
C36 O38 1.263 . S
O37 Co34 1.970 . S
O37 C36 1.258 . S
O38 Co35 1.966 . S
O38 C36 1.263 . S
C39 O40 1.235 . S
C39 O66 1.289 . S
O40 C39 1.235 . S
C41 C43 1.400 . S
C41 N44 1.351 . S
C41 C46 1.501 . S
C42 C43 1.387 . S
C42 N45 1.341 . S
C43 C41 1.400 . S
C43 C42 1.387 . S
N44 Co35 2.022 . S
N44 C41 1.351 . S
N44 N45 1.365 . S
N45 C42 1.341 . S
N45 N44 1.365 . S
N45 H65 0.862 . S
C46 C41 1.501 . S
C46 H47 0.961 . S
C46 H48 0.961 . S
C46 H49 0.960 . S
H47 C46 0.961 . S
H48 C46 0.961 . S
H49 C46 0.960 . S
C50 N51 1.342 . S
C50 C54 1.401 . S
C50 C55 1.499 . S
N51 Co34 1.989 . S
N51 C50 1.342 . S
N51 N52 1.388 . S
N52 Co35 1.993 . S
N52 N51 1.388 . S
N52 C53 1.346 . S
C53 N52 1.346 . S
C53 C54 1.396 . S
C53 C63 1.510 . S
C54 C50 1.401 . S
C54 C53 1.396 . S
C55 C50 1.499 . S
C55 H56 0.959 . S
C55 H57 0.960 . S
C55 H58 0.961 . S
H56 C55 0.959 . S
H57 C55 0.960 . S
H58 C55 0.961 . S
O59 Co34 1.967 . S
O59 C67 1.258 . S
O60 Co35 1.941 . S
O60 C67 1.266 . S
H61 C63 0.959 . S
H62 C63 0.961 . S
C63 C53 1.510 . S
C63 H61 0.959 . S
C63 H62 0.961 . S
C63 H64 0.960 . S
H64 C63 0.960 . S
H65 N45 0.862 . S
O66 Co34 1.920 . S
O66 C39 1.289 . S
C67 O59 1.258 . S
C67 O60 1.266 . S
Co68 O71 1.945 1_456 S
Co68 N85 1.989 . S
Co68 O93 1.967 . S
Co68 O100 1.920 1_556 S
Co69 O72 1.966 . S
Co69 N78 2.022 . S
Co69 N86 1.993 1_655 S
Co69 O94 1.941 . S
C70 O71 1.289 1_556 S
C70 O72 1.263 . S
O71 Co68 1.945 1_654 S
O71 C70 1.289 1_554 S
O72 Co69 1.966 . S
O72 C70 1.263 . S
C73 O74 1.235 . S
C73 O100 1.289 . S
O74 C73 1.235 . S
C75 C77 1.400 . S
C75 N78 1.351 . S
C75 C80 1.501 . S
C76 C77 1.387 . S
C76 N79 1.341 . S
C77 C75 1.400 . S
C77 C76 1.387 . S
N78 Co69 2.022 . S
N78 C75 1.351 . S
N78 N79 1.365 . S
N79 C76 1.341 . S
N79 N78 1.365 . S
N79 H99 0.862 . S
C80 C75 1.501 . S
C80 H81 0.961 . S
C80 H82 0.961 . S
C80 H83 0.960 . S
H81 C80 0.961 . S
H82 C80 0.961 . S
H83 C80 0.960 . S
C84 N85 1.342 . S
C84 C88 1.401 . S
C84 C89 1.499 . S
N85 Co68 1.989 . S
N85 C84 1.342 . S
N85 N86 1.388 . S
N86 Co69 1.993 1_455 S
N86 N85 1.388 . S
N86 C87 1.346 . S
C87 N86 1.346 . S
C87 C88 1.396 . S
C87 C97 1.510 . S
C88 C84 1.401 . S
C88 C87 1.396 . S
C89 C84 1.499 . S
C89 H90 0.959 . S
C89 H91 0.960 . S
C89 H92 0.961 . S
H90 C89 0.959 . S
H91 C89 0.960 . S
H92 C89 0.961 . S
O93 Co68 1.967 . S
O93 C101 1.258 . S
O94 Co69 1.941 . S
O94 C101 1.266 1_655 S
H95 C97 0.959 . S
H96 C97 0.961 . S
C97 C87 1.510 . S
C97 H95 0.959 . S
C97 H96 0.961 . S
C97 H98 0.960 1_455 S
H98 C97 0.960 1_655 S
H99 N79 0.862 . S
O100 Co68 1.920 1_554 S
O100 C73 1.289 . S
C101 O93 1.258 . S
C101 O94 1.266 1_455 S
Co102 O105 1.970 . S
Co102 N119 1.989 . S
Co102 O127 1.967 . S
Co102 O134 1.920 . S
Co103 O106 1.966 . S
Co103 N112 2.022 . S
Co103 N120 1.993 . S
Co103 O128 1.941 . S
C104 O105 1.258 . S
C104 O106 1.263 . S
O105 Co102 1.970 . S
O105 C104 1.258 . S
O106 Co103 1.966 . S
O106 C104 1.263 . S
C107 O108 1.235 . S
C107 O134 1.289 . S
O108 C107 1.235 . S
C109 C111 1.400 1_554 S
C109 N112 1.351 . S
C109 C114 1.501 . S
C110 C111 1.387 . S
C110 N113 1.341 . S
C111 C109 1.400 1_556 S
C111 C110 1.387 . S
N112 Co103 2.022 . S
N112 C109 1.351 . S
N112 N113 1.365 1_554 S
N113 C110 1.341 . S
N113 N112 1.365 1_556 S
N113 H133 0.862 . S
C114 C109 1.501 . S
C114 H115 0.961 . S
C114 H116 0.961 . S
C114 H117 0.960 . S
H115 C114 0.961 . S
H116 C114 0.961 . S
H117 C114 0.960 . S
C118 N119 1.342 . S
C118 C122 1.401 . S
C118 C123 1.499 . S
N119 Co102 1.989 . S
N119 C118 1.342 . S
N119 N120 1.388 . S
N120 Co103 1.993 . S
N120 N119 1.388 . S
N120 C121 1.346 . S
C121 N120 1.346 . S
C121 C122 1.396 . S
C121 C131 1.510 1_554 S
C122 C118 1.401 . S
C122 C121 1.396 . S
C123 C118 1.499 . S
C123 H124 0.959 . S
C123 H125 0.960 . S
C123 H126 0.961 . S
H124 C123 0.959 . S
H125 C123 0.960 . S
H126 C123 0.961 . S
O127 Co102 1.967 . S
O127 C135 1.258 . S
O128 Co103 1.941 . S
O128 C135 1.266 . S
H129 C131 0.959 . S
H130 C131 0.961 . S
C131 C121 1.510 1_556 S
C131 H129 0.959 . S
C131 H130 0.961 . S
C131 H132 0.960 . S
H132 C131 0.960 . S
H133 N113 0.862 . S
O134 Co102 1.920 . S
O134 C107 1.289 . S
C135 O127 1.258 . S
C135 O128 1.266 . S
Co136 O139 1.970 . S
Co136 N153 1.989 . S
Co136 O161 1.967 . S
Co136 O168 1.920 . S
Co137 O140 1.966 . S
Co137 N146 2.022 . S
Co137 N154 1.993 . S
Co137 O162 1.941 . S
C138 O139 1.258 . S
C138 O140 1.263 . S
O139 Co136 1.970 . S
O139 C138 1.258 . S
O140 Co137 1.966 . S
O140 C138 1.263 . S
C141 O142 1.235 . S
C141 O168 1.289 . S
O142 C141 1.235 . S
C143 C145 1.400 . S
C143 N146 1.351 . S
C143 C148 1.501 . S
C144 C145 1.387 . S
C144 N147 1.341 . S
C145 C143 1.400 . S
C145 C144 1.387 . S
N146 Co137 2.022 . S
N146 C143 1.351 . S
N146 N147 1.365 . S
N147 C144 1.341 . S
N147 N146 1.365 . S
N147 H167 0.862 . S
C148 C143 1.501 . S
C148 H149 0.961 . S
C148 H150 0.961 . S
C148 H151 0.960 . S
H149 C148 0.961 . S
H150 C148 0.961 . S
H151 C148 0.960 . S
C152 N153 1.342 . S
C152 C156 1.401 . S
C152 C157 1.499 . S
N153 Co136 1.989 . S
N153 C152 1.342 . S
N153 N154 1.388 . S
N154 Co137 1.993 . S
N154 N153 1.388 . S
N154 C155 1.346 . S
C155 N154 1.346 . S
C155 C156 1.396 . S
C155 C165 1.510 . S
C156 C152 1.401 . S
C156 C155 1.396 . S
C157 C152 1.499 . S
C157 H158 0.959 . S
C157 H159 0.960 . S
C157 H160 0.961 . S
H158 C157 0.959 . S
H159 C157 0.960 . S
H160 C157 0.961 . S
O161 Co136 1.967 . S
O161 C169 1.258 . S
O162 Co137 1.941 . S
O162 C169 1.266 . S
H163 C165 0.959 . S
H164 C165 0.961 . S
C165 C155 1.510 . S
C165 H163 0.959 . S
C165 H164 0.961 . S
C165 H166 0.960 . S
H166 C165 0.960 . S
H167 N147 0.862 . S
O168 Co136 1.920 . S
O168 C141 1.289 . S
C169 O161 1.258 . S
C169 O162 1.266 . S
Co170 O173 1.970 . S
Co170 N187 1.989 . S
Co170 O195 1.967 . S
Co170 O202 1.920 . S
Co171 O174 1.966 . S
Co171 N180 2.022 . S
Co171 N188 1.993 . S
Co171 O196 1.941 . S
C172 O173 1.258 . S
C172 O174 1.263 . S
O173 Co170 1.970 . S
O173 C172 1.258 . S
O174 Co171 1.966 . S
O174 C172 1.263 . S
C175 O176 1.235 . S
C175 O202 1.289 . S
O176 C175 1.235 . S
C177 C179 1.400 1_556 S
C177 N180 1.351 . S
C177 C182 1.501 . S
C178 C179 1.387 . S
C178 N181 1.341 . S
C179 C177 1.400 1_554 S
C179 C178 1.387 . S
N180 Co171 2.022 . S
N180 C177 1.351 . S
N180 N181 1.365 1_556 S
N181 C178 1.341 . S
N181 N180 1.365 1_554 S
N181 H201 0.862 . S
C182 C177 1.501 . S
C182 H183 0.961 . S
C182 H184 0.961 . S
C182 H185 0.960 . S
H183 C182 0.961 . S
H184 C182 0.961 . S
H185 C182 0.960 . S
C186 N187 1.342 . S
C186 C190 1.401 . S
C186 C191 1.499 . S
N187 Co170 1.989 . S
N187 C186 1.342 . S
N187 N188 1.388 . S
N188 Co171 1.993 . S
N188 N187 1.388 . S
N188 C189 1.346 . S
C189 N188 1.346 . S
C189 C190 1.396 . S
C189 C199 1.510 1_556 S
C190 C186 1.401 . S
C190 C189 1.396 . S
C191 C186 1.499 . S
C191 H192 0.959 . S
C191 H193 0.960 . S
C191 H194 0.961 . S
H192 C191 0.959 . S
H193 C191 0.960 . S
H194 C191 0.961 . S
O195 Co170 1.967 . S
O195 C203 1.258 . S
O196 Co171 1.941 . S
O196 C203 1.266 . S
H197 C199 0.959 . S
H198 C199 0.961 . S
C199 C189 1.510 1_554 S
C199 H197 0.959 . S
C199 H198 0.961 . S
C199 H200 0.960 . S
H200 C199 0.960 . S
H201 N181 0.862 . S
O202 Co170 1.920 . S
O202 C175 1.289 . S
C203 O195 1.258 . S
C203 O196 1.266 . S
Co204 O207 1.945 1_454 S
Co204 N221 1.989 . S
Co204 O229 1.967 . S
Co204 O236 1.920 1_554 S
Co205 O208 1.966 . S
Co205 N214 2.022 . S
Co205 N222 1.993 1_655 S
Co205 O230 1.941 . S
C206 O207 1.289 1_554 S
C206 O208 1.263 . S
O207 Co204 1.945 1_656 S
O207 C206 1.289 1_556 S
O208 Co205 1.966 . S
O208 C206 1.263 . S
C209 O210 1.235 . S
C209 O236 1.289 . S
O210 C209 1.235 . S
C211 C213 1.400 . S
C211 N214 1.351 . S
C211 C216 1.501 . S
C212 C213 1.387 . S
C212 N215 1.341 . S
C213 C211 1.400 . S
C213 C212 1.387 . S
N214 Co205 2.022 . S
N214 C211 1.351 . S
N214 N215 1.365 . S
N215 C212 1.341 . S
N215 N214 1.365 . S
N215 H235 0.862 . S
C216 C211 1.501 . S
C216 H217 0.961 . S
C216 H218 0.961 . S
C216 H219 0.960 . S
H217 C216 0.961 . S
H218 C216 0.961 . S
H219 C216 0.960 . S
C220 N221 1.342 . S
C220 C224 1.401 . S
C220 C225 1.499 . S
N221 Co204 1.989 . S
N221 C220 1.342 . S
N221 N222 1.388 . S
N222 Co205 1.993 1_455 S
N222 N221 1.388 . S
N222 C223 1.346 . S
C223 N222 1.346 . S
C223 C224 1.396 . S
C223 C233 1.510 . S
C224 C220 1.401 . S
C224 C223 1.396 . S
C225 C220 1.499 . S
C225 H226 0.959 . S
C225 H227 0.960 . S
C225 H228 0.961 . S
H226 C225 0.959 . S
H227 C225 0.960 . S
H228 C225 0.961 . S
O229 Co204 1.967 . S
O229 C237 1.258 . S
O230 Co205 1.941 . S
O230 C237 1.266 1_655 S
H231 C233 0.959 . S
H232 C233 0.961 . S
C233 C223 1.510 . S
C233 H231 0.959 . S
C233 H232 0.961 . S
C233 H234 0.960 1_455 S
H234 C233 0.960 1_655 S
H235 N215 0.862 . S
O236 Co204 1.920 1_556 S
O236 C209 1.289 . S
C237 O229 1.258 . S
C237 O230 1.266 1_455 S
Co238 O241 1.970 . S
Co238 N255 1.989 . S
Co238 O263 1.967 . S
Co238 O270 1.920 . S
Co239 O242 1.966 . S
Co239 N248 2.022 . S
Co239 N256 1.993 . S
Co239 O264 1.941 . S
C240 O241 1.258 . S
C240 O242 1.263 . S
O241 Co238 1.970 . S
O241 C240 1.258 . S
O242 Co239 1.966 . S
O242 C240 1.263 . S
C243 O244 1.235 . S
C243 O270 1.289 . S
O244 C243 1.235 . S
C245 C247 1.400 . S
C245 N248 1.351 . S
C245 C250 1.501 . S
C246 C247 1.387 . S
C246 N249 1.341 . S
C247 C245 1.400 . S
C247 C246 1.387 . S
N248 Co239 2.022 . S
N248 C245 1.351 . S
N248 N249 1.365 . S
N249 C246 1.341 . S
N249 N248 1.365 . S
N249 H269 0.862 . S
C250 C245 1.501 . S
C250 H251 0.961 . S
C250 H252 0.961 . S
C250 H253 0.960 . S
H251 C250 0.961 . S
H252 C250 0.961 . S
H253 C250 0.960 . S
C254 N255 1.342 . S
C254 C258 1.401 . S
C254 C259 1.499 . S
N255 Co238 1.989 . S
N255 C254 1.342 . S
N255 N256 1.388 . S
N256 Co239 1.993 . S
N256 N255 1.388 . S
N256 C257 1.346 . S
C257 N256 1.346 . S
C257 C258 1.396 . S
C257 C267 1.510 . S
C258 C254 1.401 . S
C258 C257 1.396 . S
C259 C254 1.499 . S
C259 H260 0.959 . S
C259 H261 0.960 . S
C259 H262 0.961 . S
H260 C259 0.959 . S
H261 C259 0.960 . S
H262 C259 0.961 . S
O263 Co238 1.967 . S
O263 C271 1.258 . S
O264 Co239 1.941 . S
O264 C271 1.266 . S
H265 C267 0.959 . S
H266 C267 0.961 . S
C267 C257 1.510 . S
C267 H265 0.959 . S
C267 H266 0.961 . S
C267 H268 0.960 . S
H268 C267 0.960 . S
H269 N249 0.862 . S
O270 Co238 1.920 . S
O270 C243 1.289 . S
C271 O263 1.258 . S
C271 O264 1.266 . S
Co272 O275 1.970 . S
Co272 N289 1.989 . S
Co272 O297 1.967 . S
Co272 O304 1.920 . S
Co273 O276 1.966 . S
Co273 N282 2.022 . S
Co273 N290 1.993 . S
Co273 O298 1.941 . S
C274 O275 1.258 . S
C274 O276 1.263 . S
O275 Co272 1.970 . S
O275 C274 1.258 . S
O276 Co273 1.966 . S
O276 C274 1.263 . S
C277 O278 1.235 . S
C277 O304 1.289 . S
O278 C277 1.235 . S
C279 C281 1.400 . S
C279 N282 1.351 . S
C279 C284 1.501 . S
C280 C281 1.387 . S
C280 N283 1.341 . S
C281 C279 1.400 . S
C281 C280 1.387 . S
N282 Co273 2.022 . S
N282 C279 1.351 . S
N282 N283 1.365 . S
N283 C280 1.341 . S
N283 N282 1.365 . S
N283 H303 0.862 . S
C284 C279 1.501 . S
C284 H285 0.961 . S
C284 H286 0.961 . S
C284 H287 0.960 . S
H285 C284 0.961 . S
H286 C284 0.961 . S
H287 C284 0.960 . S
C288 N289 1.342 . S
C288 C292 1.401 . S
C288 C293 1.499 . S
N289 Co272 1.989 . S
N289 C288 1.342 . S
N289 N290 1.388 . S
N290 Co273 1.993 . S
N290 N289 1.388 . S
N290 C291 1.346 . S
C291 N290 1.346 . S
C291 C292 1.396 . S
C291 C301 1.510 . S
C292 C288 1.401 . S
C292 C291 1.396 . S
C293 C288 1.499 . S
C293 H294 0.959 . S
C293 H295 0.960 . S
C293 H296 0.961 . S
H294 C293 0.959 . S
H295 C293 0.960 . S
H296 C293 0.961 . S
O297 Co272 1.967 . S
O297 C305 1.258 . S
O298 Co273 1.941 . S
O298 C305 1.266 . S
H299 C301 0.959 . S
H300 C301 0.961 . S
C301 C291 1.510 . S
C301 H299 0.959 . S
C301 H300 0.961 . S
C301 H302 0.960 . S
H302 C301 0.960 . S
H303 N283 0.862 . S
O304 Co272 1.920 . S
O304 C277 1.289 . S
C305 O297 1.258 . S
C305 O298 1.266 . S
Co306 O309 1.970 . S
Co306 N323 1.989 . S
Co306 O331 1.967 . S
Co306 O338 1.920 . S
Co307 O310 1.966 . S
Co307 N316 2.022 . S
Co307 N324 1.993 . S
Co307 O332 1.941 . S
C308 O309 1.258 . S
C308 O310 1.263 . S
O309 Co306 1.970 . S
O309 C308 1.258 . S
O310 Co307 1.966 . S
O310 C308 1.263 . S
C311 O312 1.235 . S
C311 O338 1.289 . S
O312 C311 1.235 . S
C313 C315 1.400 1_556 S
C313 N316 1.351 . S
C313 C318 1.501 . S
C314 C315 1.387 . S
C314 N317 1.341 . S
C315 C313 1.400 1_554 S
C315 C314 1.387 . S
N316 Co307 2.022 . S
N316 C313 1.351 . S
N316 N317 1.365 1_556 S
N317 C314 1.341 . S
N317 N316 1.365 1_554 S
N317 H337 0.862 . S
C318 C313 1.501 . S
C318 H319 0.961 . S
C318 H320 0.961 . S
C318 H321 0.960 . S
H319 C318 0.961 . S
H320 C318 0.961 . S
H321 C318 0.960 . S
C322 N323 1.342 . S
C322 C326 1.401 . S
C322 C327 1.499 . S
N323 Co306 1.989 . S
N323 C322 1.342 . S
N323 N324 1.388 . S
N324 Co307 1.993 . S
N324 N323 1.388 . S
N324 C325 1.346 . S
C325 N324 1.346 . S
C325 C326 1.396 . S
C325 C335 1.510 1_556 S
C326 C322 1.401 . S
C326 C325 1.396 . S
C327 C322 1.499 . S
C327 H328 0.959 . S
C327 H329 0.960 . S
C327 H330 0.961 . S
H328 C327 0.959 . S
H329 C327 0.960 . S
H330 C327 0.961 . S
O331 Co306 1.967 . S
O331 C339 1.258 . S
O332 Co307 1.941 . S
O332 C339 1.266 . S
H333 C335 0.959 . S
H334 C335 0.961 . S
C335 C325 1.510 1_554 S
C335 H333 0.959 . S
C335 H334 0.961 . S
C335 H336 0.960 . S
H336 C335 0.960 . S
H337 N317 0.862 . S
O338 Co306 1.920 . S
O338 C311 1.289 . S
C339 O331 1.258 . S
C339 O332 1.266 . S
Co340 O343 1.970 . S
Co340 N357 1.989 . S
Co340 O365 1.967 . S
Co340 O372 1.920 . S
Co341 O344 1.966 . S
Co341 N350 2.022 . S
Co341 N358 1.993 . S
Co341 O366 1.941 . S
C342 O343 1.258 . S
C342 O344 1.263 . S
O343 Co340 1.970 . S
O343 C342 1.258 . S
O344 Co341 1.966 . S
O344 C342 1.263 . S
C345 O346 1.235 . S
C345 O372 1.289 . S
O346 C345 1.235 . S
C347 C349 1.400 1_554 S
C347 N350 1.351 . S
C347 C352 1.501 . S
C348 C349 1.387 . S
C348 N351 1.341 . S
C349 C347 1.400 1_556 S
C349 C348 1.387 . S
N350 Co341 2.022 . S
N350 C347 1.351 . S
N350 N351 1.365 1_554 S
N351 C348 1.341 . S
N351 N350 1.365 1_556 S
N351 H371 0.862 . S
C352 C347 1.501 . S
C352 H353 0.961 . S
C352 H354 0.961 . S
C352 H355 0.960 . S
H353 C352 0.961 . S
H354 C352 0.961 . S
H355 C352 0.960 . S
C356 N357 1.342 . S
C356 C360 1.401 . S
C356 C361 1.499 . S
N357 Co340 1.989 . S
N357 C356 1.342 . S
N357 N358 1.388 . S
N358 Co341 1.993 . S
N358 N357 1.388 . S
N358 C359 1.346 . S
C359 N358 1.346 . S
C359 C360 1.396 . S
C359 C369 1.510 1_554 S
C360 C356 1.401 . S
C360 C359 1.396 . S
C361 C356 1.499 . S
C361 H362 0.959 . S
C361 H363 0.960 . S
C361 H364 0.961 . S
H362 C361 0.959 . S
H363 C361 0.960 . S
H364 C361 0.961 . S
O365 Co340 1.967 . S
O365 C373 1.258 . S
O366 Co341 1.941 . S
O366 C373 1.266 . S
H367 C369 0.959 . S
H368 C369 0.961 . S
C369 C359 1.510 1_556 S
C369 H367 0.959 . S
C369 H368 0.961 . S
C369 H370 0.960 . S
H370 C369 0.960 . S
H371 N351 0.862 . S
O372 Co340 1.920 . S
O372 C345 1.289 . S
C373 O365 1.258 . S
C373 O366 1.266 . S
Co374 O377 1.970 . S
Co374 N391 1.989 . S
Co374 O399 1.967 . S
Co374 O406 1.920 . S
Co375 O378 1.966 . S
Co375 N384 2.022 . S
Co375 N392 1.993 . S
Co375 O400 1.941 . S
C376 O377 1.258 . S
C376 O378 1.263 . S
O377 Co374 1.970 . S
O377 C376 1.258 . S
O378 Co375 1.966 . S
O378 C376 1.263 . S
C379 O380 1.235 . S
C379 O406 1.289 . S
O380 C379 1.235 . S
C381 C383 1.400 . S
C381 N384 1.351 . S
C381 C386 1.501 . S
C382 C383 1.387 . S
C382 N385 1.341 . S
C383 C381 1.400 . S
C383 C382 1.387 . S
N384 Co375 2.022 . S
N384 C381 1.351 . S
N384 N385 1.365 . S
N385 C382 1.341 . S
N385 N384 1.365 . S
N385 H405 0.862 . S
C386 C381 1.501 . S
C386 H387 0.961 . S
C386 H388 0.961 . S
C386 H389 0.960 . S
H387 C386 0.961 . S
H388 C386 0.961 . S
H389 C386 0.960 . S
C390 N391 1.342 . S
C390 C394 1.401 . S
C390 C395 1.499 . S
N391 Co374 1.989 . S
N391 C390 1.342 . S
N391 N392 1.388 . S
N392 Co375 1.993 . S
N392 N391 1.388 . S
N392 C393 1.346 . S
C393 N392 1.346 . S
C393 C394 1.396 . S
C393 C403 1.510 . S
C394 C390 1.401 . S
C394 C393 1.396 . S
C395 C390 1.499 . S
C395 H396 0.959 . S
C395 H397 0.960 . S
C395 H398 0.961 . S
H396 C395 0.959 . S
H397 C395 0.960 . S
H398 C395 0.961 . S
O399 Co374 1.967 . S
O399 C407 1.258 . S
O400 Co375 1.941 . S
O400 C407 1.266 . S
H401 C403 0.959 . S
H402 C403 0.961 . S
C403 C393 1.510 . S
C403 H401 0.959 . S
C403 H402 0.961 . S
C403 H404 0.960 . S
H404 C403 0.960 . S
H405 N385 0.862 . S
O406 Co374 1.920 . S
O406 C379 1.289 . S
C407 O399 1.258 . S
C407 O400 1.266 . S
Co408 O411 1.970 1_656 S
Co408 N425 1.989 . S
Co408 O433 1.968 . S
Co408 O440 1.920 1_556 S
Co409 O412 1.966 . S
Co409 N418 2.022 . S
Co409 N426 1.982 1_455 S
Co409 O434 1.941 . S
C410 O411 1.258 1_556 S
C410 O412 1.263 . S
O411 Co408 1.970 1_454 S
O411 C410 1.258 1_554 S
O412 Co409 1.966 . S
O412 C410 1.263 . S
C413 O414 1.235 . S
C413 O440 1.289 . S
O414 C413 1.235 . S
C415 C417 1.400 . S
C415 N418 1.351 . S
C415 C420 1.501 . S
C416 C417 1.387 . S
C416 N419 1.341 . S
C417 C415 1.400 . S
C417 C416 1.387 . S
N418 Co409 2.022 . S
N418 C415 1.351 . S
N418 N419 1.365 . S
N419 C416 1.341 . S
N419 N418 1.365 . S
N419 H439 0.862 . S
C420 C415 1.501 . S
C420 H421 0.961 . S
C420 H422 0.961 . S
C420 H423 0.960 . S
H421 C420 0.961 . S
H422 C420 0.961 . S
H423 C420 0.960 . S
C424 N425 1.342 . S
C424 C428 1.401 . S
C424 C429 1.499 . S
N425 Co408 1.989 . S
N425 C424 1.342 . S
N425 N426 1.398 . S
N426 Co409 1.982 1_655 S
N426 N425 1.398 . S
N426 C427 1.351 . S
C427 N426 1.351 . S
C427 C428 1.396 . S
C427 C437 1.510 1_655 S
C428 C424 1.401 . S
C428 C427 1.396 . S
C429 C424 1.499 . S
C429 H430 0.959 . S
C429 H431 0.960 . S
C429 H432 0.961 . S
H430 C429 0.959 . S
H431 C429 0.960 . S
H432 C429 0.961 . S
O433 Co408 1.968 . S
O433 C441 1.256 1_655 S
O434 Co409 1.941 . S
O434 C441 1.266 . S
H435 C437 0.959 1_655 S
H436 C437 0.961 . S
C437 C427 1.510 1_455 S
C437 H435 0.959 1_455 S
C437 H436 0.961 . S
C437 H438 0.960 . S
H438 C437 0.960 . S
H439 N419 0.862 . S
O440 Co408 1.920 1_554 S
O440 C413 1.289 . S
C441 O433 1.256 1_455 S
C441 O434 1.266 . S
Co442 O445 1.970 . S
Co442 N459 1.989 . S
Co442 O467 1.967 . S
Co442 O474 1.920 . S
Co443 O446 1.966 . S
Co443 N452 2.022 . S
Co443 N460 1.993 . S
Co443 O468 1.941 . S
C444 O445 1.258 . S
C444 O446 1.263 . S
O445 Co442 1.970 . S
O445 C444 1.258 . S
O446 Co443 1.966 . S
O446 C444 1.263 . S
C447 O448 1.235 . S
C447 O474 1.289 . S
O448 C447 1.235 . S
C449 C451 1.400 . S
C449 N452 1.351 . S
C449 C454 1.501 . S
C450 C451 1.387 . S
C450 N453 1.341 . S
C451 C449 1.400 . S
C451 C450 1.387 . S
N452 Co443 2.022 . S
N452 C449 1.351 . S
N452 N453 1.365 . S
N453 C450 1.341 . S
N453 N452 1.365 . S
N453 H473 0.862 . S
C454 C449 1.501 . S
C454 H455 0.961 . S
C454 H456 0.961 . S
C454 H457 0.960 . S
H455 C454 0.961 . S
H456 C454 0.961 . S
H457 C454 0.960 . S
C458 N459 1.342 . S
C458 C462 1.401 . S
C458 C463 1.499 . S
N459 Co442 1.989 . S
N459 C458 1.342 . S
N459 N460 1.388 . S
N460 Co443 1.993 . S
N460 N459 1.388 . S
N460 C461 1.346 . S
C461 N460 1.346 . S
C461 C462 1.396 . S
C461 C471 1.510 . S
C462 C458 1.401 . S
C462 C461 1.396 . S
C463 C458 1.499 . S
C463 H464 0.959 . S
C463 H465 0.960 . S
C463 H466 0.961 . S
H464 C463 0.959 . S
H465 C463 0.960 . S
H466 C463 0.961 . S
O467 Co442 1.967 . S
O467 C475 1.258 . S
O468 Co443 1.941 . S
O468 C475 1.266 . S
H469 C471 0.959 . S
H470 C471 0.961 . S
C471 C461 1.510 . S
C471 H469 0.959 . S
C471 H470 0.961 . S
C471 H472 0.960 . S
H472 C471 0.960 . S
H473 N453 0.862 . S
O474 Co442 1.920 . S
O474 C447 1.289 . S
C475 O467 1.258 . S
C475 O468 1.266 . S
Co476 O479 1.970 1_654 S
Co476 N493 1.989 . S
Co476 O501 1.968 . S
Co476 O508 1.920 1_554 S
Co477 O480 1.966 . S
Co477 N486 2.022 . S
Co477 N494 1.982 1_455 S
Co477 O502 1.941 . S
C478 O479 1.258 1_554 S
C478 O480 1.263 . S
O479 Co476 1.970 1_456 S
O479 C478 1.258 1_556 S
O480 Co477 1.966 . S
O480 C478 1.263 . S
C481 O482 1.235 . S
C481 O508 1.289 . S
O482 C481 1.235 . S
C483 C485 1.400 . S
C483 N486 1.351 . S
C483 C488 1.501 . S
C484 C485 1.387 . S
C484 N487 1.341 . S
C485 C483 1.400 . S
C485 C484 1.387 . S
N486 Co477 2.022 . S
N486 C483 1.351 . S
N486 N487 1.365 . S
N487 C484 1.341 . S
N487 N486 1.365 . S
N487 H507 0.862 . S
C488 C483 1.501 . S
C488 H489 0.961 . S
C488 H490 0.961 . S
C488 H491 0.960 . S
H489 C488 0.961 . S
H490 C488 0.961 . S
H491 C488 0.960 . S
C492 N493 1.342 . S
C492 C496 1.401 . S
C492 C497 1.499 . S
N493 Co476 1.989 . S
N493 C492 1.342 . S
N493 N494 1.398 . S
N494 Co477 1.982 1_655 S
N494 N493 1.398 . S
N494 C495 1.351 . S
C495 N494 1.351 . S
C495 C496 1.396 . S
C495 C505 1.510 1_655 S
C496 C492 1.401 . S
C496 C495 1.396 . S
C497 C492 1.499 . S
C497 H498 0.959 . S
C497 H499 0.960 . S
C497 H500 0.961 . S
H498 C497 0.959 . S
H499 C497 0.960 . S
H500 C497 0.961 . S
O501 Co476 1.968 . S
O501 C509 1.256 1_655 S
O502 Co477 1.941 . S
O502 C509 1.266 . S
H503 C505 0.959 1_655 S
H504 C505 0.961 . S
C505 C495 1.510 1_455 S
C505 H503 0.959 1_455 S
C505 H504 0.961 . S
C505 H506 0.960 . S
H506 C505 0.960 . S
H507 N487 0.862 . S
O508 Co476 1.920 1_556 S
O508 C481 1.289 . S
C509 O501 1.256 1_455 S
C509 O502 1.266 . S
Co510 O513 1.970 . S
Co510 N527 1.989 . S
Co510 O535 1.967 . S
Co510 O542 1.920 . S
Co511 O514 1.966 . S
Co511 N520 2.022 . S
Co511 N528 1.993 . S
Co511 O536 1.941 . S
C512 O513 1.258 . S
C512 O514 1.263 . S
O513 Co510 1.970 . S
O513 C512 1.258 . S
O514 Co511 1.966 . S
O514 C512 1.263 . S
C515 O516 1.235 . S
C515 O542 1.289 . S
O516 C515 1.235 . S
C517 C519 1.400 . S
C517 N520 1.351 . S
C517 C522 1.501 . S
C518 C519 1.387 . S
C518 N521 1.341 . S
C519 C517 1.400 . S
C519 C518 1.387 . S
N520 Co511 2.022 . S
N520 C517 1.351 . S
N520 N521 1.365 . S
N521 C518 1.341 . S
N521 N520 1.365 . S
N521 H541 0.862 . S
C522 C517 1.501 . S
C522 H523 0.961 . S
C522 H524 0.961 . S
C522 H525 0.960 . S
H523 C522 0.961 . S
H524 C522 0.961 . S
H525 C522 0.960 . S
C526 N527 1.342 . S
C526 C530 1.401 . S
C526 C531 1.499 . S
N527 Co510 1.989 . S
N527 C526 1.342 . S
N527 N528 1.388 . S
N528 Co511 1.993 . S
N528 N527 1.388 . S
N528 C529 1.346 . S
C529 N528 1.346 . S
C529 C530 1.396 . S
C529 C539 1.510 . S
C530 C526 1.401 . S
C530 C529 1.396 . S
C531 C526 1.499 . S
C531 H532 0.959 . S
C531 H533 0.960 . S
C531 H534 0.961 . S
H532 C531 0.959 . S
H533 C531 0.960 . S
H534 C531 0.961 . S
O535 Co510 1.967 . S
O535 C543 1.258 . S
O536 Co511 1.941 . S
O536 C543 1.266 . S
H537 C539 0.959 . S
H538 C539 0.961 . S
C539 C529 1.510 . S
C539 H537 0.959 . S
C539 H538 0.961 . S
C539 H540 0.960 . S
H540 C539 0.960 . S
H541 N521 0.862 . S
O542 Co510 1.920 . S
O542 C515 1.289 . S
C543 O535 1.258 . S
C543 O536 1.266 . S
C544 C545 1.387 . S
C544 H548 0.950 . S
C544 C553 1.390 1_545 S
C545 C544 1.387 . S
C545 C547 1.387 . S
H546 C553 0.950 . S
C547 C545 1.387 . S
C547 C549 1.390 1_545 S
C547 H551 0.950 . S
H548 C544 0.950 . S
C549 C547 1.390 1_565 S
C549 C550 1.387 . S
C549 H552 0.950 . S
C550 C549 1.387 . S
C550 C553 1.387 . S
H551 C547 0.950 . S
H552 C549 0.950 . S
C553 C544 1.390 1_565 S
C553 H546 0.950 . S
C553 C550 1.387 . S
C554 C555 1.387 . S
C554 H558 0.950 . S
C554 C563 1.390 . S
C555 C554 1.387 . S
C555 C557 1.387 . S
H556 C563 0.950 . S
C557 C555 1.387 . S
C557 C559 1.390 . S
C557 H561 0.950 . S
H558 C554 0.950 . S
C559 C557 1.390 . S
C559 C560 1.387 . S
C559 H562 0.950 . S
C560 C559 1.387 . S
C560 C563 1.387 . S
H561 C557 0.950 . S
H562 C559 0.950 . S
C563 C554 1.390 . S
C563 H556 0.950 . S
C563 C560 1.387 . S
C564 C565 1.387 1_655 S
C564 H568 0.950 . S
C564 C573 1.390 1_544 S
C565 C564 1.387 1_455 S
C565 C567 1.387 . S
H566 C573 0.950 . S
C567 C565 1.387 . S
C567 C569 1.390 1_544 S
C567 H571 0.950 . S
H568 C564 0.950 . S
C569 C567 1.390 1_566 S
C569 C570 1.387 . S
C569 H572 0.950 . S
C570 C569 1.387 . S
C570 C573 1.387 1_455 S
H571 C567 0.950 . S
H572 C569 0.950 . S
C573 C564 1.390 1_566 S
C573 H566 0.950 . S
C573 C570 1.387 1_655 S
C574 C575 1.387 . S
C574 H578 0.950 . S
C574 C583 1.390 . S
C575 C574 1.387 . S
C575 C577 1.387 . S
H576 C583 0.950 . S
C577 C575 1.387 . S
C577 C579 1.390 . S
C577 H581 0.950 . S
H578 C574 0.950 . S
C579 C577 1.390 . S
C579 C580 1.387 . S
C579 H582 0.950 . S
C580 C579 1.387 . S
C580 C583 1.387 . S
H581 C577 0.950 . S
H582 C579 0.950 . S
C583 C574 1.390 . S
C583 H576 0.950 . S
C583 C580 1.387 . S
C584 C585 1.387 . S
C584 H588 0.950 . S
C584 C593 1.390 . S
C585 C584 1.387 . S
C585 C587 1.387 . S
H586 C593 0.950 . S
C587 C585 1.387 . S
C587 C589 1.390 . S
C587 H591 0.950 . S
H588 C584 0.950 . S
C589 C587 1.390 . S
C589 C590 1.387 . S
C589 H592 0.950 . S
C590 C589 1.387 . S
C590 C593 1.387 . S
H591 C587 0.950 . S
H592 C589 0.950 . S
C593 C584 1.390 . S
C593 H586 0.950 . S
C593 C590 1.387 . S
C594 C595 1.387 . S
C594 H598 0.950 . S
C594 C603 1.390 . S
C595 C594 1.387 . S
C595 C597 1.387 . S
H596 C603 0.950 . S
C597 C595 1.387 . S
C597 C599 1.390 . S
C597 H601 0.950 . S
H598 C594 0.950 . S
C599 C597 1.390 . S
C599 C600 1.387 . S
C599 H602 0.950 . S
C600 C599 1.387 . S
C600 C603 1.387 . S
H601 C597 0.950 . S
H602 C599 0.950 . S
C603 C594 1.390 . S
C603 H596 0.950 . S
C603 C600 1.387 . S
C604 C605 1.387 1_655 S
C604 H608 0.950 . S
C604 C613 1.390 1_556 S
C605 C604 1.387 1_455 S
C605 C607 1.387 . S
H606 C613 0.950 . S
C607 C605 1.387 . S
C607 C609 1.390 1_556 S
C607 H611 0.950 . S
H608 C604 0.950 . S
C609 C607 1.390 1_554 S
C609 C610 1.387 . S
C609 H612 0.950 . S
C610 C609 1.387 . S
C610 C613 1.387 1_455 S
H611 C607 0.950 . S
H612 C609 0.950 . S
C613 C604 1.390 1_554 S
C613 H606 0.950 . S
C613 C610 1.387 1_655 S
C614 C615 1.387 . S
C614 H618 0.950 . S
C614 C623 1.390 . S
C615 C614 1.387 . S
C615 C617 1.387 . S
H616 C623 0.950 . S
C617 C615 1.387 . S
C617 C619 1.390 . S
C617 H621 0.950 . S
H618 C614 0.950 . S
C619 C617 1.390 . S
C619 C620 1.387 . S
C619 H622 0.950 . S
C620 C619 1.387 . S
C620 C623 1.387 . S
H621 C617 0.950 . S
H622 C619 0.950 . S
C623 C614 1.390 . S
C623 H616 0.950 . S
C623 C620 1.387 . S
C624 C625 1.387 . S
C624 H628 0.950 . S
C624 C633 1.390 . S
C625 C624 1.387 . S
C625 C627 1.387 . S
H626 C633 0.950 . S
C627 C625 1.387 . S
C627 C629 1.390 . S
C627 H631 0.950 . S
H628 C624 0.950 . S
C629 C627 1.390 . S
C629 C630 1.387 . S
C629 H632 0.950 . S
C630 C629 1.387 . S
C630 C633 1.387 . S
H631 C627 0.950 . S
H632 C629 0.950 . S
C633 C624 1.390 . S
C633 H626 0.950 . S
C633 C630 1.387 . S
C634 C635 1.387 . S
C634 H638 0.950 . S
C634 C643 1.390 . S
C635 C634 1.387 . S
C635 C637 1.387 . S
H636 C643 0.950 . S
C637 C635 1.387 . S
C637 C639 1.390 . S
C637 H641 0.950 . S
H638 C634 0.950 . S
C639 C637 1.390 . S
C639 C640 1.387 . S
C639 H642 0.950 . S
C640 C639 1.387 . S
C640 C643 1.387 . S
H641 C637 0.950 . S
H642 C639 0.950 . S
C643 C634 1.390 . S
C643 H636 0.950 . S
C643 C640 1.387 . S
C644 C645 1.387 . S
C644 H648 0.950 . S
C644 C653 1.390 . S
C645 C644 1.387 . S
C645 C647 1.387 . S
H646 C653 0.950 . S
C647 C645 1.387 . S
C647 C649 1.390 . S
C647 H651 0.950 . S
H648 C644 0.950 . S
C649 C647 1.390 . S
C649 C650 1.387 . S
C649 H652 0.950 . S
C650 C649 1.387 . S
C650 C653 1.387 . S
H651 C647 0.950 . S
H652 C649 0.950 . S
C653 C644 1.390 . S
C653 H646 0.950 . S
C653 C650 1.387 . S
C654 C655 1.387 . S
C654 H658 0.950 . S
C654 C663 1.390 . S
C655 C654 1.387 . S
C655 C657 1.387 . S
H656 C663 0.950 . S
C657 C655 1.387 . S
C657 C659 1.390 . S
C657 H661 0.950 . S
H658 C654 0.950 . S
C659 C657 1.390 . S
C659 C660 1.387 . S
C659 H662 0.950 . S
C660 C659 1.387 . S
C660 C663 1.387 . S
H661 C657 0.950 . S
H662 C659 0.950 . S
C663 C654 1.390 . S
C663 H656 0.950 . S
C663 C660 1.387 . S
C664 C665 1.387 . S
C664 H668 0.950 . S
C664 C673 1.390 . S
C665 C664 1.387 . S
C665 C667 1.387 . S
H666 C673 0.950 . S
C667 C665 1.387 . S
C667 C669 1.390 . S
C667 H671 0.950 . S
H668 C664 0.950 . S
C669 C667 1.390 . S
C669 C670 1.387 . S
C669 H672 0.950 . S
C670 C669 1.387 . S
C670 C673 1.387 . S
H671 C667 0.950 . S
H672 C669 0.950 . S
C673 C664 1.390 . S
C673 H666 0.950 . S
C673 C670 1.387 . S
C674 C675 1.387 . S
C674 H678 0.950 . S
C674 C683 1.390 . S
C675 C674 1.387 . S
C675 C677 1.387 . S
H676 C683 0.950 . S
C677 C675 1.387 . S
C677 C679 1.390 . S
C677 H681 0.950 . S
H678 C674 0.950 . S
C679 C677 1.390 . S
C679 C680 1.387 . S
C679 H682 0.950 . S
C680 C679 1.387 . S
C680 C683 1.387 . S
H681 C677 0.950 . S
H682 C679 0.950 . S
C683 C674 1.390 . S
C683 H676 0.950 . S
C683 C680 1.387 . S
C684 C685 1.387 . S
C684 H688 0.950 . S
C684 C693 1.390 . S
C685 C684 1.387 . S
C685 C687 1.387 . S
H686 C693 0.950 . S
C687 C685 1.387 . S
C687 C689 1.390 . S
C687 H691 0.950 . S
H688 C684 0.950 . S
C689 C687 1.390 . S
C689 C690 1.387 . S
C689 H692 0.950 . S
C690 C689 1.387 . S
C690 C693 1.387 . S
H691 C687 0.950 . S
H692 C689 0.950 . S
C693 C684 1.390 . S
C693 H686 0.950 . S
C693 C690 1.387 . S
C694 C695 1.387 . S
C694 H698 0.950 . S
C694 C703 1.390 . S
C695 C694 1.387 . S
C695 C697 1.387 . S
H696 C703 0.950 . S
C697 C695 1.387 . S
C697 C699 1.390 . S
C697 H701 0.950 . S
H698 C694 0.950 . S
C699 C697 1.390 . S
C699 C700 1.387 . S
C699 H702 0.950 . S
C700 C699 1.387 . S
C700 C703 1.387 . S
H701 C697 0.950 . S
H702 C699 0.950 . S
C703 C694 1.390 . S
C703 H696 0.950 . S
C703 C700 1.387 . S
C704 C705 1.387 . S
C704 H708 0.950 . S
C704 C713 1.390 . S
C705 C704 1.387 . S
C705 C707 1.387 . S
H706 C713 0.950 . S
C707 C705 1.387 . S
C707 C709 1.390 . S
C707 H711 0.950 . S
H708 C704 0.950 . S
C709 C707 1.390 . S
C709 C710 1.387 . S
C709 H712 0.950 . S
C710 C709 1.387 . S
C710 C713 1.387 . S
H711 C707 0.950 . S
H712 C709 0.950 . S
C713 C704 1.390 . S
C713 H706 0.950 . S
C713 C710 1.387 . S
C714 C715 1.387 . S
C714 H718 0.950 . S
C714 C723 1.390 . S
C715 C714 1.387 . S
C715 C717 1.387 . S
H716 C723 0.950 . S
C717 C715 1.387 . S
C717 C719 1.390 . S
C717 H721 0.950 . S
H718 C714 0.950 . S
C719 C717 1.390 . S
C719 C720 1.387 . S
C719 H722 0.950 . S
C720 C719 1.387 . S
C720 C723 1.387 . S
H721 C717 0.950 . S
H722 C719 0.950 . S
C723 C714 1.390 . S
C723 H716 0.950 . S
C723 C720 1.387 . S
C724 C725 1.387 . S
C724 H728 0.950 . S
C724 C733 1.390 . S
C725 C724 1.387 . S
C725 C727 1.387 . S
H726 C733 0.950 . S
C727 C725 1.387 . S
C727 C729 1.390 . S
C727 H731 0.950 . S
H728 C724 0.950 . S
C729 C727 1.390 . S
C729 C730 1.387 . S
C729 H732 0.950 . S
C730 C729 1.387 . S
C730 C733 1.387 . S
H731 C727 0.950 . S
H732 C729 0.950 . S
C733 C724 1.390 . S
C733 H726 0.950 . S
C733 C730 1.387 . S
C734 C735 1.387 . S
C734 H738 0.950 . S
C734 C743 1.390 . S
C735 C734 1.387 . S
C735 C737 1.387 . S
H736 C743 0.950 . S
C737 C735 1.387 . S
C737 C739 1.390 . S
C737 H741 0.950 . S
H738 C734 0.950 . S
C739 C737 1.390 . S
C739 C740 1.387 . S
C739 H742 0.950 . S
C740 C739 1.387 . S
C740 C743 1.387 . S
H741 C737 0.950 . S
H742 C739 0.950 . S
C743 C734 1.390 . S
C743 H736 0.950 . S
C743 C740 1.387 . S
C744 C745 1.387 . S
C744 H748 0.950 . S
C744 C753 1.390 . S
C745 C744 1.387 . S
C745 C747 1.387 . S
H746 C753 0.950 . S
C747 C745 1.387 . S
C747 C749 1.390 . S
C747 H751 0.950 . S
H748 C744 0.950 . S
C749 C747 1.390 . S
C749 C750 1.387 . S
C749 H752 0.950 . S
C750 C749 1.387 . S
C750 C753 1.387 . S
H751 C747 0.950 . S
H752 C749 0.950 . S
C753 C744 1.390 . S
C753 H746 0.950 . S
C753 C750 1.387 . S
C754 C755 1.387 . S
C754 H758 0.950 . S
C754 C763 1.390 . S
C755 C754 1.387 . S
C755 C757 1.387 . S
H756 C763 0.950 . S
C757 C755 1.387 . S
C757 C759 1.390 . S
C757 H761 0.950 . S
H758 C754 0.950 . S
C759 C757 1.390 . S
C759 C760 1.387 . S
C759 H762 0.950 . S
C760 C759 1.387 . S
C760 C763 1.387 . S
H761 C757 0.950 . S
H762 C759 0.950 . S
C763 C754 1.390 . S
C763 H756 0.950 . S
C763 C760 1.387 . S
C764 C765 1.387 . S
C764 H768 0.950 . S
C764 C773 1.390 . S
C765 C764 1.387 . S
C765 C767 1.387 . S
H766 C773 0.950 . S
C767 C765 1.387 . S
C767 C769 1.390 . S
C767 H771 0.950 . S
H768 C764 0.950 . S
C769 C767 1.390 . S
C769 C770 1.387 . S
C769 H772 0.950 . S
C770 C769 1.387 . S
C770 C773 1.387 . S
H771 C767 0.950 . S
H772 C769 0.950 . S
C773 C764 1.390 . S
C773 H766 0.950 . S
C773 C770 1.387 . S
C774 C775 1.387 . S
C774 H778 0.950 . S
C774 C783 1.390 . S
C775 C774 1.387 . S
C775 C777 1.387 . S
H776 C783 0.950 . S
C777 C775 1.387 . S
C777 C779 1.390 . S
C777 H781 0.950 . S
H778 C774 0.950 . S
C779 C777 1.390 . S
C779 C780 1.387 . S
C779 H782 0.950 . S
C780 C779 1.387 . S
C780 C783 1.387 . S
H781 C777 0.950 . S
H782 C779 0.950 . S
C783 C774 1.390 . S
C783 H776 0.950 . S
C783 C780 1.387 . S
C784 C785 1.387 . S
C784 H788 0.950 . S
C784 C793 1.390 . S
C785 C784 1.387 . S
C785 C787 1.387 . S
H786 C793 0.950 . S
C787 C785 1.387 . S
C787 C789 1.390 . S
C787 H791 0.950 . S
H788 C784 0.950 . S
C789 C787 1.390 . S
C789 C790 1.387 . S
C789 H792 0.950 . S
C790 C789 1.387 . S
C790 C793 1.387 . S
H791 C787 0.950 . S
H792 C789 0.950 . S
C793 C784 1.390 . S
C793 H786 0.950 . S
C793 C790 1.387 . S
C794 C795 1.387 . S
C794 H798 0.950 . S
C794 C803 1.390 . S
C795 C794 1.387 . S
C795 C797 1.387 . S
H796 C803 0.950 . S
C797 C795 1.387 . S
C797 C799 1.390 . S
C797 H801 0.950 . S
H798 C794 0.950 . S
C799 C797 1.390 . S
C799 C800 1.387 . S
C799 H802 0.950 . S
C800 C799 1.387 . S
C800 C803 1.387 . S
H801 C797 0.950 . S
H802 C799 0.950 . S
C803 C794 1.390 . S
C803 H796 0.950 . S
C803 C800 1.387 . S
C804 C805 1.387 . S
C804 H808 0.950 . S
C804 C813 1.390 . S
C805 C804 1.387 . S
C805 C807 1.387 . S
H806 C813 0.950 . S
C807 C805 1.387 . S
C807 C809 1.390 . S
C807 H811 0.950 . S
H808 C804 0.950 . S
C809 C807 1.390 . S
C809 C810 1.387 . S
C809 H812 0.950 . S
C810 C809 1.387 . S
C810 C813 1.387 . S
H811 C807 0.950 . S
H812 C809 0.950 . S
C813 C804 1.390 . S
C813 H806 0.950 . S
C813 C810 1.387 . S
C814 C815 1.387 . S
C814 H818 0.950 . S
C814 C823 1.390 . S
C815 C814 1.387 . S
C815 C817 1.387 . S
H816 C823 0.950 . S
C817 C815 1.387 . S
C817 C819 1.390 . S
C817 H821 0.950 . S
H818 C814 0.950 . S
C819 C817 1.390 . S
C819 C820 1.387 . S
C819 H822 0.950 . S
C820 C819 1.387 . S
C820 C823 1.387 . S
H821 C817 0.950 . S
H822 C819 0.950 . S
C823 C814 1.390 . S
C823 H816 0.950 . S
C823 C820 1.387 . S
C824 C825 1.387 . S
C824 H828 0.950 . S
C824 C833 1.390 . S
C825 C824 1.387 . S
C825 C827 1.387 . S
H826 C833 0.950 . S
C827 C825 1.387 . S
C827 C829 1.390 . S
C827 H831 0.950 . S
H828 C824 0.950 . S
C829 C827 1.390 . S
C829 C830 1.387 . S
C829 H832 0.950 . S
C830 C829 1.387 . S
C830 C833 1.387 . S
H831 C827 0.950 . S
H832 C829 0.950 . S
C833 C824 1.390 . S
C833 H826 0.950 . S
C833 C830 1.387 . S
C834 C835 1.387 . S
C834 H838 0.950 . S
C834 C843 1.390 . S
C835 C834 1.387 . S
C835 C837 1.387 . S
H836 C843 0.950 . S
C837 C835 1.387 . S
C837 C839 1.390 . S
C837 H841 0.950 . S
H838 C834 0.950 . S
C839 C837 1.390 . S
C839 C840 1.387 . S
C839 H842 0.950 . S
C840 C839 1.387 . S
C840 C843 1.387 . S
H841 C837 0.950 . S
H842 C839 0.950 . S
C843 C834 1.390 . S
C843 H836 0.950 . S
C843 C840 1.387 . S
C844 C845 1.387 . S
C844 H848 0.950 . S
C844 C853 1.390 . S
C845 C844 1.387 . S
C845 C847 1.387 . S
H846 C853 0.950 . S
C847 C845 1.387 . S
C847 C849 1.390 . S
C847 H851 0.950 . S
H848 C844 0.950 . S
C849 C847 1.390 . S
C849 C850 1.387 . S
C849 H852 0.950 . S
C850 C849 1.387 . S
C850 C853 1.387 . S
H851 C847 0.950 . S
H852 C849 0.950 . S
C853 C844 1.390 . S
C853 H846 0.950 . S
C853 C850 1.387 . S
C854 C855 1.387 . S
C854 H858 0.950 . S
C854 C863 1.390 . S
C855 C854 1.387 . S
C855 C857 1.387 . S
H856 C863 0.950 . S
C857 C855 1.387 . S
C857 C859 1.390 . S
C857 H861 0.950 . S
H858 C854 0.950 . S
C859 C857 1.390 . S
C859 C860 1.387 . S
C859 H862 0.950 . S
C860 C859 1.387 . S
C860 C863 1.387 . S
H861 C857 0.950 . S
H862 C859 0.950 . S
C863 C854 1.390 . S
C863 H856 0.950 . S
C863 C860 1.387 . S
C864 C865 1.387 . S
C864 H868 0.950 . S
C864 C873 1.390 . S
C865 C864 1.387 . S
C865 C867 1.387 . S
H866 C873 0.950 . S
C867 C865 1.387 . S
C867 C869 1.390 . S
C867 H871 0.950 . S
H868 C864 0.950 . S
C869 C867 1.390 . S
C869 C870 1.387 . S
C869 H872 0.950 . S
C870 C869 1.387 . S
C870 C873 1.387 . S
H871 C867 0.950 . S
H872 C869 0.950 . S
C873 C864 1.390 . S
C873 H866 0.950 . S
C873 C870 1.387 . S
C874 C875 1.387 . S
C874 H878 0.950 . S
C874 C883 1.390 . S
C875 C874 1.387 . S
C875 C877 1.387 . S
H876 C883 0.950 . S
C877 C875 1.387 . S
C877 C879 1.390 . S
C877 H881 0.950 . S
H878 C874 0.950 . S
C879 C877 1.390 . S
C879 C880 1.387 . S
C879 H882 0.950 . S
C880 C879 1.387 . S
C880 C883 1.387 . S
H881 C877 0.950 . S
H882 C879 0.950 . S
C883 C874 1.390 . S
C883 H876 0.950 . S
C883 C880 1.387 . S
C884 C885 1.387 . S
C884 H888 0.950 . S
C884 C893 1.390 . S
C885 C884 1.387 . S
C885 C887 1.387 . S
H886 C893 0.950 . S
C887 C885 1.387 . S
C887 C889 1.390 . S
C887 H891 0.950 . S
H888 C884 0.950 . S
C889 C887 1.390 . S
C889 C890 1.387 . S
C889 H892 0.950 . S
C890 C889 1.387 . S
C890 C893 1.387 . S
H891 C887 0.950 . S
H892 C889 0.950 . S
C893 C884 1.390 . S
C893 H886 0.950 . S
C893 C890 1.387 . S
C894 C895 1.387 . S
C894 H898 0.950 . S
C894 C903 1.390 . S
C895 C894 1.387 . S
C895 C897 1.387 . S
H896 C903 0.950 . S
C897 C895 1.387 . S
C897 C899 1.390 . S
C897 H901 0.950 . S
H898 C894 0.950 . S
C899 C897 1.390 . S
C899 C900 1.387 . S
C899 H902 0.950 . S
C900 C899 1.387 . S
C900 C903 1.387 . S
H901 C897 0.950 . S
H902 C899 0.950 . S
C903 C894 1.390 . S
C903 H896 0.950 . S
C903 C900 1.387 . S
C904 C905 1.387 . S
C904 H908 0.950 . S
C904 C913 1.390 . S
C905 C904 1.387 . S
C905 C907 1.387 . S
H906 C913 0.950 . S
C907 C905 1.387 . S
C907 C909 1.390 . S
C907 H911 0.950 . S
H908 C904 0.950 . S
C909 C907 1.390 . S
C909 C910 1.387 . S
C909 H912 0.950 . S
C910 C909 1.387 . S
C910 C913 1.387 . S
H911 C907 0.950 . S
H912 C909 0.950 . S
C913 C904 1.390 . S
C913 H906 0.950 . S
C913 C910 1.387 . S
C914 C915 1.387 . S
C914 H918 0.950 . S
C914 C923 1.390 . S
C915 C914 1.387 . S
C915 C917 1.387 . S
H916 C923 0.950 . S
C917 C915 1.387 . S
C917 C919 1.390 . S
C917 H921 0.950 . S
H918 C914 0.950 . S
C919 C917 1.390 . S
C919 C920 1.387 . S
C919 H922 0.950 . S
C920 C919 1.387 . S
C920 C923 1.387 . S
H921 C917 0.950 . S
H922 C919 0.950 . S
C923 C914 1.390 . S
C923 H916 0.950 . S
C923 C920 1.387 . S
C924 C925 1.387 . S
C924 H928 0.950 . S
C924 C933 1.390 . S
C925 C924 1.387 . S
C925 C927 1.387 . S
H926 C933 0.950 . S
C927 C925 1.387 . S
C927 C929 1.390 . S
C927 H931 0.950 . S
H928 C924 0.950 . S
C929 C927 1.390 . S
C929 C930 1.387 . S
C929 H932 0.950 . S
C930 C929 1.387 . S
C930 C933 1.387 . S
H931 C927 0.950 . S
H932 C929 0.950 . S
C933 C924 1.390 . S
C933 H926 0.950 . S
C933 C930 1.387 . S
C934 C935 1.387 . S
C934 H938 0.950 . S
C934 C943 1.390 . S
C935 C934 1.387 . S
C935 C937 1.387 . S
H936 C943 0.950 . S
C937 C935 1.387 . S
C937 C939 1.390 . S
C937 H941 0.950 . S
H938 C934 0.950 . S
C939 C937 1.390 . S
C939 C940 1.387 . S
C939 H942 0.950 . S
C940 C939 1.387 . S
C940 C943 1.387 . S
H941 C937 0.950 . S
H942 C939 0.950 . S
C943 C934 1.390 . S
C943 H936 0.950 . S
C943 C940 1.387 . S
C545 C33 0.701 . S
C550 C169 0.701 . S
C555 C203 0.709 . S
C560 C67 0.709 . S
C565 C237 0.709 . S
C570 C101 0.709 . S
C575 C135 0.709 . S
C580 C271 0.709 . S
C585 C305 0.701 . S
C590 C373 0.701 . S
C595 C407 0.709 . S
C600 C339 0.709 . S
C605 C441 0.701 . S
C610 C509 0.701 . S
C615 C475 0.709 . S
C620 C543 0.709 . S
C625 C20 2.274 . S
C630 C190 2.273 1_554 S
C635 C224 2.274 . S
C640 C54 2.273 . S
C645 C258 2.273 . S
C650 C88 2.274 . S
C655 C122 2.274 1_556 S
C660 C156 2.273 . S
C665 C145 0.978 . S
C670 C349 0.977 . S
C675 C77 0.978 . S
C680 C281 0.978 . S
C685 C213 0.977 . S
C690 C383 0.978 . S
C695 C9 0.978 . S
C700 C315 0.978 . S
C705 C428 2.274 . S
C710 C292 2.273 . S
C715 C360 2.274 1_556 S
C720 C530 2.273 . S
C725 C326 2.274 1_554 S
C730 C462 2.273 . S
C735 C394 2.274 . S
C740 C496 2.273 . S
C745 C485 0.978 . S
C750 C43 0.978 . S
C755 C179 0.978 . S
C760 C451 0.978 . S
C765 C111 0.977 . S
C770 C519 0.978 . S
C775 C417 0.978 . S
C780 C247 0.978 . S
C785 C175 1.143 . S
C790 C5 1.139 . S
C795 C209 1.141 . S
C800 C39 1.143 . S
C805 C73 1.142 . S
C810 C243 1.138 . S
C815 C107 1.144 . S
C820 C141 1.140 . S
C825 C138 2.753 . S
C830 C342 2.753 . S
C835 C274 2.753 . S
C840 C70 2.753 1_554 S
C845 C376 2.753 . S
C850 C206 2.753 1_556 S
C855 C2 2.753 . S
C860 C308 2.753 . S
C865 C413 1.143 . S
C870 C277 1.138 . S
C875 C345 1.143 . S
C880 C515 1.138 . S
C885 C447 1.141 . S
C890 C311 1.144 . S
C895 C481 1.142 . S
C900 C379 1.138 . S
C905 C36 2.753 . S
C910 C478 2.753 1_556 S
C915 C172 2.753 . S
C920 C444 2.753 . S
C925 C512 2.753 . S
C930 C104 2.753 . S
C935 C240 2.753 . S
C940 C410 2.753 1_554 S
