# Generated by pormake.
# Topology wfu, (7)-cn, num edge types: 1
# Building blocks:
#     Node 0, Type 0, BuildingBlock: HICVOG_clean_sbu_0, # of connection points: 7
#     Node 1, Type 0, BuildingBlock: HICVOG_clean_sbu_0, # of connection points: 7
#     Node 2, Type 0, BuildingBlock: HICVOG_clean_sbu_0, # of connection points: 7
#     Node 3, Type 0, BuildingBlock: HICVOG_clean_sbu_0, # of connection points: 7
#     Node 4, Type 0, BuildingBlock: HICVOG_clean_sbu_0, # of connection points: 7
#     Node 5, Type 0, BuildingBlock: HICVOG_clean_sbu_0, # of connection points: 7
#     Node 6, Type 0, BuildingBlock: HICVOG_clean_sbu_0, # of connection points: 7
#     Node 7, Type 0, BuildingBlock: HICVOG_clean_sbu_0, # of connection points: 7
#     Edge 8, Type (0, 0), BuildingBlock: XIVTED_clean_linker_0, # of connection points: 2
#     Edge 9, Type (0, 0), BuildingBlock: XIVTED_clean_linker_0, # of connection points: 2
#     Edge 10, Type (0, 0), BuildingBlock: XIVTED_clean_linker_0, # of connection points: 2
#     Edge 11, Type (0, 0), BuildingBlock: XIVTED_clean_linker_0, # of connection points: 2
#     Edge 12, Type (0, 0), BuildingBlock: XIVTED_clean_linker_0, # of connection points: 2
#     Edge 13, Type (0, 0), BuildingBlock: XIVTED_clean_linker_0, # of connection points: 2
#     Edge 14, Type (0, 0), BuildingBlock: XIVTED_clean_linker_0, # of connection points: 2
#     Edge 15, Type (0, 0), BuildingBlock: XIVTED_clean_linker_0, # of connection points: 2
#     Edge 16, Type (0, 0), BuildingBlock: XIVTED_clean_linker_0, # of connection points: 2
#     Edge 17, Type (0, 0), BuildingBlock: XIVTED_clean_linker_0, # of connection points: 2
#     Edge 18, Type (0, 0), BuildingBlock: XIVTED_clean_linker_0, # of connection points: 2
#     Edge 19, Type (0, 0), BuildingBlock: XIVTED_clean_linker_0, # of connection points: 2
#     Edge 20, Type (0, 0), BuildingBlock: XIVTED_clean_linker_0, # of connection points: 2
#     Edge 21, Type (0, 0), BuildingBlock: XIVTED_clean_linker_0, # of connection points: 2
#     Edge 22, Type (0, 0), BuildingBlock: XIVTED_clean_linker_0, # of connection points: 2
#     Edge 23, Type (0, 0), BuildingBlock: XIVTED_clean_linker_0, # of connection points: 2
#     Edge 24, Type (0, 0), BuildingBlock: XIVTED_clean_linker_0, # of connection points: 2
#     Edge 25, Type (0, 0), BuildingBlock: XIVTED_clean_linker_0, # of connection points: 2
#     Edge 26, Type (0, 0), BuildingBlock: XIVTED_clean_linker_0, # of connection points: 2
#     Edge 27, Type (0, 0), BuildingBlock: XIVTED_clean_linker_0, # of connection points: 2
#     Edge 28, Type (0, 0), BuildingBlock: XIVTED_clean_linker_0, # of connection points: 2
#     Edge 29, Type (0, 0), BuildingBlock: XIVTED_clean_linker_0, # of connection points: 2
#     Edge 30, Type (0, 0), BuildingBlock: XIVTED_clean_linker_0, # of connection points: 2
#     Edge 31, Type (0, 0), BuildingBlock: XIVTED_clean_linker_0, # of connection points: 2
#     Edge 32, Type (0, 0), BuildingBlock: XIVTED_clean_linker_0, # of connection points: 2
#     Edge 33, Type (0, 0), BuildingBlock: XIVTED_clean_linker_0, # of connection points: 2
#     Edge 34, Type (0, 0), BuildingBlock: XIVTED_clean_linker_0, # of connection points: 2
#     Edge 35, Type (0, 0), BuildingBlock: XIVTED_clean_linker_0, # of connection points: 2
# Relax obj value: 0.435
# Max RMSD: 0.288
# Mean RMSD: 0.288
data_MOF--net-wfu--node1-HICVOG_clean_sbu_0--edge1-XIVTED_clean_linker_0
_symmetry_space_group_name_H-M    P1
_symmetry_Int_Tables_number       1
_symmetry_cell_setting            triclinic
loop_
_symmetry_equiv_pos_as_xyz
'x, y, z'
_cell_length_a     31.387898
_cell_length_b     31.440477
_cell_length_c     31.317664
_cell_angle_alpha  89.97288
_cell_angle_beta   90.039938
_cell_angle_gamma 90.095496
loop_
_atom_site_label
_atom_site_type_symbol
_atom_site_fract_x
_atom_site_fract_y
_atom_site_fract_z
_atom_type_partial_charge
Zn0 Zn 0.25893 0.3467 0.12098 0.0
C1 C 0.26664 0.35223 0.24996 0.0
N2 N 0.2653 0.30965 0.24727 0.0
C3 C 0.26304 0.30297 0.20505 0.0
N4 N 0.26369 0.34003 0.18277 0.0
N5 N 0.2656 0.37113 0.21142 0.0
C6 C 0.24263 0.49865 0.24496 0.0
O7 O 0.21427 0.49221 0.21475 0.0
O8 O 0.30395 0.31262 0.08873 0.0
Zn9 Zn 0.28673 0.4284 0.2024 0.0
N10 N 0.20268 0.32715 0.10524 0.0
C11 C 0.13255 0.30385 0.12269 0.0
C12 C 0.17309 0.31716 0.13534 0.0
C13 C 0.19262 0.32661 0.06313 0.0
N14 N 0.12261 0.30282 0.08048 0.0
C15 C 0.15147 0.3146 0.05031 0.0
O16 O 0.27246 0.45619 0.14659 0.0
C17 C 0.26582 0.446 0.10794 0.0
O18 O 0.26242 0.40721 0.09667 0.0
H19 H 0.1807 0.31971 0.16887 0.0
H20 H 0.21655 0.3357 0.03995 0.0
C21 C 0.36782 0.43023 0.24035 0.0
C22 C 0.41214 0.42541 0.24199 0.0
C23 C 0.41124 0.40036 0.17032 0.0
C24 C 0.36751 0.40737 0.16829 0.0
N25 N 0.34685 0.42171 0.20345 0.0
N26 N 0.43253 0.41005 0.20679 0.0
H27 H 0.34997 0.44121 0.26769 0.0
C28 C 0.34144 0.30555 0.10257 0.0
O29 O 0.35139 0.31741 0.14147 0.0
O30 O 0.27367 0.47286 0.24839 0.0
H31 H 0.34998 0.40102 0.13925 0.0
H32 H 0.10895 0.29506 0.14627 0.0
H33 H 0.4283 0.3883 0.14288 0.0
Zn34 Zn 0.41887 0.73256 0.78835 0.0
C35 C 0.30155 0.78089 0.79494 0.0
N36 N 0.30763 0.78537 0.75275 0.0
C37 C 0.34923 0.77646 0.74816 0.0
N38 N 0.36782 0.7665 0.78553 0.0
N39 N 0.33771 0.76881 0.81511 0.0
C40 C 0.32181 0.68135 0.89989 0.0
O41 O 0.35363 0.67376 0.87379 0.0
O42 O 0.46659 0.74941 0.74687 0.0
Zn43 Zn 0.34537 0.76615 0.87641 0.0
N44 N 0.40072 0.67723 0.76983 0.0
C45 C 0.34555 0.62832 0.7525 0.0
C46 C 0.35913 0.66543 0.77261 0.0
C47 C 0.42927 0.65359 0.74779 0.0
N48 N 0.37409 0.60469 0.7303 0.0
C49 C 0.41579 0.61635 0.72698 0.0
O50 O 0.40609 0.75634 0.89712 0.0
C51 C 0.442 0.74229 0.88456 0.0
O52 O 0.4481 0.7314 0.84591 0.0
H53 H 0.33643 0.6852 0.78919 0.0
H54 H 0.46202 0.6641 0.74694 0.0
C55 C 0.31036 0.82927 0.93385 0.0
C56 C 0.30226 0.8713 0.947 0.0
C57 C 0.33298 0.89691 0.8828 0.0
C58 C 0.34137 0.85531 0.87013 0.0
N59 N 0.32997 0.82234 0.89586 0.0
N60 N 0.31404 0.90399 0.92105 0.0
H61 H 0.30271 0.80242 0.95409 0.0
C62 C 0.49449 0.77758 0.7555 0.0
O63 O 0.48905 0.80168 0.78932 0.0
O64 O 0.30981 0.7197 0.90513 0.0
H65 H 0.35742 0.84934 0.8402 0.0
H66 H 0.31254 0.61851 0.75423 0.0
H67 H 0.34204 0.92342 0.86272 0.0
Zn68 Zn 0.74364 0.59111 0.19931 0.0
C69 C 0.77502 0.71474 0.19946 0.0
N70 N 0.78459 0.70689 0.24055 0.0
C71 C 0.78003 0.66448 0.24312 0.0
N72 N 0.76784 0.64711 0.20589 0.0
N73 N 0.76482 0.67871 0.17799 0.0
C74 C 0.68282 0.713 0.09588 0.0
O75 O 0.67459 0.71096 0.1369 0.0
O76 O 0.7569 0.54756 0.24604 0.0
Zn77 Zn 0.76695 0.67215 0.11607 0.0
N78 N 0.68374 0.60003 0.20153 0.0
C79 C 0.62028 0.62786 0.17142 0.0
C80 C 0.66363 0.61902 0.16829 0.0
C81 C 0.6625 0.58857 0.23743 0.0
N82 N 0.59876 0.61577 0.20704 0.0
C83 C 0.61859 0.59587 0.24025 0.0
O84 O 0.76687 0.61098 0.09362 0.0
C85 C 0.76364 0.57228 0.10531 0.0
O86 O 0.75645 0.56241 0.14395 0.0
H87 H 0.68134 0.62746 0.13993 0.0
H88 H 0.67982 0.57373 0.26324 0.0
C89 C 0.82935 0.71367 0.06241 0.0
C90 C 0.87109 0.72558 0.05115 0.0
C91 C 0.89619 0.69903 0.11735 0.0
C92 C 0.85493 0.68663 0.12808 0.0
N93 N 0.82233 0.69418 0.10046 0.0
N94 N 0.90344 0.71772 0.07898 0.0
H95 H 0.80301 0.71801 0.04052 0.0
C96 C 0.78728 0.52097 0.24294 0.0
O97 O 0.81553 0.5261 0.21244 0.0
O98 O 0.7193 0.70147 0.08244 0.0
H99 H 0.84905 0.67038 0.15793 0.0
H100 H 0.60368 0.64347 0.14551 0.0
H101 H 0.92241 0.69306 0.13896 0.0
Zn102 Zn 0.5931 0.27593 0.80101 0.0
C103 C 0.71628 0.24495 0.79487 0.0
N104 N 0.7071 0.23573 0.75398 0.0
C105 C 0.66447 0.23955 0.75288 0.0
N106 N 0.64823 0.25127 0.79076 0.0
N107 N 0.68079 0.25426 0.81754 0.0
C108 C 0.71933 0.33477 0.89663 0.0
O109 O 0.71225 0.34367 0.85633 0.0
O110 O 0.54798 0.26849 0.7542 0.0
Zn111 Zn 0.67628 0.25171 0.87952 0.0
N112 N 0.60354 0.33551 0.8057 0.0
C113 C 0.62698 0.39581 0.84482 0.0
C114 C 0.61853 0.35236 0.84267 0.0
C115 C 0.59605 0.36008 0.77095 0.0
N116 N 0.61856 0.42064 0.81036 0.0
C117 C 0.60283 0.40409 0.77332 0.0
O118 O 0.61571 0.25151 0.90469 0.0
C119 C 0.57651 0.25231 0.89389 0.0
O120 O 0.56531 0.25825 0.85539 0.0
H121 H 0.62439 0.33212 0.86994 0.0
H122 H 0.58436 0.34517 0.74219 0.0
C123 C 0.71869 0.19003 0.93238 0.0
C124 C 0.7311 0.14864 0.94394 0.0
C125 C 0.70464 0.12279 0.87799 0.0
C126 C 0.69177 0.16377 0.86694 0.0
N127 N 0.69899 0.19655 0.89435 0.0
N128 N 0.72348 0.11604 0.91641 0.0
H129 H 0.7228 0.2165 0.9541 0.0
C130 C 0.52192 0.23741 0.75462 0.0
O131 O 0.52851 0.20612 0.78164 0.0
O132 O 0.70883 0.29837 0.91102 0.0
H133 H 0.67538 0.16924 0.83707 0.0
H134 H 0.63944 0.40983 0.8738 0.0
H135 H 0.69888 0.0964 0.85659 0.0
Zn136 Zn 0.75803 0.17431 0.37553 0.0
C137 C 0.76692 0.16819 0.24645 0.0
N138 N 0.76513 0.21075 0.24915 0.0
C139 C 0.76256 0.2174 0.29135 0.0
N140 N 0.76339 0.18037 0.31364 0.0
N141 N 0.76592 0.14927 0.285 0.0
C142 C 0.74583 0.01748 0.25615 0.0
O143 O 0.72138 0.02064 0.29003 0.0
O144 O 0.80439 0.20622 0.40807 0.0
Zn145 Zn 0.78763 0.09209 0.29389 0.0
N146 N 0.70282 0.19637 0.39163 0.0
C147 C 0.63404 0.22334 0.37442 0.0
C148 C 0.67362 0.20771 0.36163 0.0
C149 C 0.69319 0.19795 0.43384 0.0
N150 N 0.62458 0.22543 0.41668 0.0
C151 C 0.65295 0.21246 0.44683 0.0
O152 O 0.77482 0.06563 0.35057 0.0
C153 C 0.76529 0.07543 0.38868 0.0
O154 O 0.75942 0.11397 0.39966 0.0
H155 H 0.68081 0.20446 0.32809 0.0
H156 H 0.71679 0.1879 0.45696 0.0
C157 C 0.86675 0.09101 0.25217 0.0
C158 C 0.91086 0.09623 0.24822 0.0
C159 C 0.91399 0.11928 0.32046 0.0
C160 C 0.87043 0.11191 0.32471 0.0
N161 N 0.84778 0.09865 0.29031 0.0
N162 N 0.93323 0.11079 0.28259 0.0
H163 H 0.84759 0.0803 0.22554 0.0
C164 C 0.84227 0.21133 0.39452 0.0
O165 O 0.85174 0.19906 0.35567 0.0
O166 O 0.77308 0.04669 0.24897 0.0
H167 H 0.85459 0.11711 0.35491 0.0
H168 H 0.61078 0.23317 0.35091 0.0
H169 H 0.93256 0.13061 0.34727 0.0
Zn170 Zn 0.09355 0.24368 0.70374 0.0
C171 C 0.21745 0.27686 0.70206 0.0
N172 N 0.20916 0.29068 0.74177 0.0
C173 C 0.16679 0.28527 0.74479 0.0
N174 N 0.14984 0.26849 0.70915 0.0
N175 N 0.18171 0.26349 0.68178 0.0
C176 C 0.2201 0.1806 0.60203 0.0
O177 O 0.21503 0.17174 0.64262 0.0
O178 O 0.04861 0.25984 0.74832 0.0
Zn179 Zn 0.17572 0.26341 0.61973 0.0
N180 N 0.1018 0.18402 0.7102 0.0
C181 C 0.13245 0.11943 0.68611 0.0
C182 C 0.12449 0.16263 0.68035 0.0
C183 C 0.08536 0.16404 0.74488 0.0
N184 N 0.11552 0.09921 0.72049 0.0
C185 C 0.09161 0.12025 0.75001 0.0
O186 O 0.11482 0.26011 0.59649 0.0
C187 C 0.07601 0.25724 0.60811 0.0
O188 O 0.0659 0.25262 0.64707 0.0
H189 H 0.13606 0.17923 0.65247 0.0
H190 H 0.06719 0.18214 0.76782 0.0
C191 C 0.21399 0.32634 0.56415 0.0
C192 C 0.22399 0.36824 0.5518 0.0
C193 C 0.1972 0.39355 0.61778 0.0
C194 C 0.18665 0.35213 0.62956 0.0
N195 N 0.1953 0.31932 0.60263 0.0
N196 N 0.21513 0.40073 0.57905 0.0
H197 H 0.21916 0.29979 0.54279 0.0
C198 C 0.02019 0.28775 0.74094 0.0
O199 O 0.02442 0.3124 0.70732 0.0
O200 O 0.20858 0.21684 0.58801 0.0
H201 H 0.17088 0.34631 0.65967 0.0
H202 H 0.15097 0.10187 0.66295 0.0
H203 H 0.19035 0.41991 0.63886 0.0
Zn204 Zn 0.25917 0.84574 0.37634 0.0
C205 C 0.25267 0.8514 0.24738 0.0
N206 N 0.25463 0.80886 0.25044 0.0
C207 C 0.25626 0.80261 0.29278 0.0
N208 N 0.25441 0.83972 0.31467 0.0
N209 N 0.25265 0.87057 0.28575 0.0
C210 C 0.27845 0.99837 0.25458 0.0
O211 O 0.30527 0.99139 0.28603 0.0
O212 O 0.21307 0.81323 0.40892 0.0
Zn213 Zn 0.231 0.92761 0.29365 0.0
N214 N 0.31464 0.82369 0.39079 0.0
C215 C 0.38812 0.8159 0.37368 0.0
C216 C 0.34703 0.82851 0.36238 0.0
C217 C 0.32154 0.8065 0.42992 0.0
N218 N 0.39528 0.79957 0.41319 0.0
C219 C 0.36295 0.79424 0.44163 0.0
O220 O 0.24307 0.95397 0.35038 0.0
C221 C 0.25238 0.94477 0.38872 0.0
O222 O 0.25814 0.90637 0.40042 0.0
H223 H 0.34113 0.84273 0.3315 0.0
H224 H 0.29532 0.80421 0.45225 0.0
C225 C 0.15255 0.93088 0.2505 0.0
C226 C 0.10858 0.92527 0.24536 0.0
C227 C 0.10467 0.89725 0.3158 0.0
C228 C 0.14803 0.90495 0.32136 0.0
N229 N 0.17098 0.92106 0.28842 0.0
N230 N 0.08591 0.90806 0.27825 0.0
H231 H 0.17201 0.94346 0.22496 0.0
C232 C 0.17561 0.80583 0.39516 0.0
O233 O 0.16591 0.81633 0.3558 0.0
O234 O 0.24736 0.97284 0.24933 0.0
H235 H 0.16351 0.89787 0.35137 0.0
H236 H 0.41426 0.8198 0.35153 0.0
H237 H 0.08586 0.88379 0.34142 0.0
Zn238 Zn 0.92552 0.78619 0.70196 0.0
C239 C 0.80022 0.76086 0.70622 0.0
N240 N 0.80748 0.76354 0.74835 0.0
C241 C 0.85014 0.7653 0.75054 0.0
N242 N 0.86855 0.76424 0.7118 0.0
N243 N 0.83708 0.76169 0.68348 0.0
C244 C 0.8046 0.84024 0.60139 0.0
O245 O 0.81345 0.85018 0.64108 0.0
O246 O 0.97103 0.7766 0.74833 0.0
Zn247 Zn 0.8434 0.75631 0.62151 0.0
N248 N 0.91749 0.84606 0.70016 0.0
C249 C 0.89569 0.90891 0.66442 0.0
C250 C 0.90389 0.86538 0.6639 0.0
C251 C 0.9242 0.86823 0.73667 0.0
N252 N 0.90337 0.93138 0.70066 0.0
C253 C 0.91796 0.91229 0.73692 0.0
O254 O 0.90417 0.75636 0.59767 0.0
C255 C 0.94298 0.76038 0.60894 0.0
O256 O 0.95302 0.7696 0.64707 0.0
H257 H 0.89881 0.84693 0.6352 0.0
H258 H 0.93485 0.85157 0.76494 0.0
C259 C 0.81793 0.69224 0.56321 0.0
C260 C 0.80322 0.65208 0.55019 0.0
C261 C 0.79432 0.63243 0.62267 0.0
C262 C 0.81023 0.67191 0.63544 0.0
N263 N 0.82064 0.70143 0.60545 0.0
N264 N 0.79113 0.62338 0.58039 0.0
H265 H 0.82734 0.71607 0.54008 0.0
C266 C 0.99836 0.74669 0.74679 0.0
O267 O 0.99338 0.71639 0.71834 0.0
O268 O 0.81243 0.80276 0.58822 0.0
H269 H 0.8144 0.6788 0.66896 0.0
H270 H 0.88415 0.92488 0.63608 0.0
H271 H 0.78519 0.60892 0.64619 0.0
H272 H 0.16644 0.37745 0.99255 0.0
H273 H 0.12557 0.22823 0.79554 0.0
H274 H 0.10835 0.25374 0.00541 0.0
H275 H 0.16041 0.36025 0.78532 0.0
H276 H 0.10654 0.23956 0.87063 0.0
H277 H 0.15351 0.37503 0.91593 0.0
C278 C 0.15077 0.3498 0.97908 0.0
C279 C 0.13938 0.31525 0.0049 0.0
C280 C 0.11702 0.2664 0.85165 0.0
C281 C 0.1246 0.31201 0.9172 0.0
C282 C 0.12734 0.25996 0.80875 0.0
C283 C 0.14398 0.29351 0.78458 0.0
C284 C 0.12446 0.30644 0.87026 0.0
C285 C 0.14745 0.33373 0.80321 0.0
C286 C 0.14306 0.34851 0.93538 0.0
C287 C 0.11808 0.28073 0.98624 0.0
N288 N 0.13836 0.33899 0.84515 0.0
N289 N 0.11213 0.27953 0.94323 0.0
H290 H 0.32442 0.93566 0.0008 0.0
H291 H 0.18978 0.83541 0.19109 0.0
H292 H 0.23874 0.82877 0.98945 0.0
H293 H 0.30181 0.9124 0.21007 0.0
H294 H 0.19104 0.85306 0.11506 0.0
H295 H 0.30089 0.94562 0.07474 0.0
C296 C 0.30018 0.91471 0.01369 0.0
C297 C 0.28429 0.88063 0.98949 0.0
C298 C 0.2147 0.86706 0.13598 0.0
C299 C 0.25701 0.89218 0.07342 0.0
C300 C 0.21382 0.85722 0.17927 0.0
C301 C 0.24581 0.87251 0.20636 0.0
C302 C 0.24837 0.89162 0.11976 0.0
C303 C 0.27645 0.9004 0.18993 0.0
C304 C 0.28683 0.92043 0.05578 0.0
C305 C 0.25273 0.85464 0.00747 0.0
N306 N 0.27751 0.90851 0.14729 0.0
N307 N 0.24041 0.86073 0.04852 0.0
H308 H 0.83522 0.83052 0.80407 0.0
H309 H 0.93758 0.70504 -0.00061 0.0
H310 H 0.91188 0.71804 0.78911 0.0
H311 H 0.82682 0.78577 0.00631 0.0
H312 H 0.94763 0.72655 0.92471 0.0
H313 H 0.85353 0.83231 0.87994 0.0
C314 C 0.85713 0.80704 0.81669 0.0
C315 C 0.87203 0.77397 0.79085 0.0
C316 C 0.92163 0.74007 0.9429 0.0
C317 C 0.89192 0.77495 0.8773 0.0
C318 C 0.91588 0.7279 0.98538 0.0
C319 C 0.88073 0.74295 0.00851 0.0
C320 C 0.89238 0.76797 0.92391 0.0
C321 C 0.85367 0.77262 0.98915 0.0
C322 C 0.86734 0.8079 0.85989 0.0
C323 C 0.90008 0.74413 0.80829 0.0
N324 N 0.85986 0.7839 0.94781 0.0
N325 N 0.90857 0.74479 0.85088 0.0
H326 H 0.72043 0.10541 0.20834 0.0
H327 H 0.79249 0.193 0.98692 0.0
H328 H 0.83055 0.18555 0.19158 0.0
H329 H 0.70961 0.084 0.99768 0.0
H330 H 0.81344 0.18359 0.06134 0.0
H331 H 0.72268 0.08776 0.13203 0.0
C332 C 0.74607 0.11784 0.18882 0.0
C333 C 0.77528 0.14693 0.20575 0.0
C334 C 0.79119 0.16121 0.04738 0.0
C335 C 0.77716 0.12859 0.11886 0.0
C336 C 0.77905 0.16682 0.00499 0.0
C337 C 0.74869 0.13976 0.98664 0.0
C338 C 0.77205 0.12892 0.07186 0.0
C339 C 0.73287 0.10576 0.01098 0.0
C340 C 0.7472 0.10813 0.14527 0.0
C341 C 0.80733 0.16316 0.17929 0.0
N342 N 0.744 0.10183 0.05276 0.0
N343 N 0.80698 0.15438 0.13695 0.0
H344 H 0.6656 0.1503 0.50606 0.0
H345 H 0.6333 0.30163 0.70119 0.0
H346 H 0.61265 0.27584 0.49061 0.0
H347 H 0.64624 0.16594 0.7134 0.0
H348 H 0.61598 0.29261 0.62533 0.0
H349 H 0.6515 0.15424 0.58246 0.0
C350 C 0.65089 0.1787 0.5189 0.0
C351 C 0.64113 0.21322 0.49237 0.0
C352 C 0.6211 0.26467 0.64488 0.0
C353 C 0.62485 0.21807 0.57979 0.0
C354 C 0.63043 0.26985 0.68821 0.0
C355 C 0.64052 0.23438 0.71321 0.0
C356 C 0.62316 0.22383 0.62669 0.0
C357 C 0.63822 0.19393 0.6949 0.0
C358 C 0.64242 0.18082 0.56244 0.0
C359 C 0.62105 0.2488 0.51029 0.0
N360 N 0.63049 0.18975 0.65251 0.0
N361 N 0.61431 0.25072 0.55316 0.0
H362 H 0.20159 0.43399 0.49986 0.0
H363 H 0.33146 0.33768 0.30429 0.0
H364 H 0.28443 0.3248 0.50627 0.0
H365 H 0.2174 0.41209 0.28888 0.0
H366 H 0.33136 0.35395 0.38062 0.0
H367 H 0.22295 0.44491 0.4253 0.0
C368 C 0.22478 0.41275 0.48575 0.0
C369 C 0.24058 0.37786 0.50879 0.0
C370 C 0.307 0.36773 0.3604 0.0
C371 C 0.26548 0.39057 0.42424 0.0
C372 C 0.30724 0.35874 0.31693 0.0
C373 C 0.27432 0.37358 0.29074 0.0
C374 C 0.27315 0.3911 0.37772 0.0
C375 C 0.24346 0.40044 0.30828 0.0
C376 C 0.23688 0.41901 0.44332 0.0
C377 C 0.27067 0.35142 0.48923 0.0
N378 N 0.2431 0.40778 0.35108 0.0
N379 N 0.28192 0.35816 0.44795 0.0
H380 H 0.31836 0.73586 0.48813 0.0
H381 H 0.41411 0.81629 0.70577 0.0
H382 H 0.42813 0.8183 0.49388 0.0
H383 H 0.32234 0.71486 0.6952 0.0
H384 H 0.42907 0.80961 0.629 0.0
H385 H 0.32741 0.71967 0.56372 0.0
C386 C 0.34465 0.7502 0.50538 0.0
C387 C 0.37202 0.77909 0.48521 0.0
C388 C 0.40652 0.78801 0.64369 0.0
C389 C 0.3824 0.76126 0.57182 0.0
C390 C 0.39823 0.79173 0.68742 0.0
C391 C 0.36692 0.76619 0.70622 0.0
C392 C 0.38266 0.75905 0.61906 0.0
C393 C 0.34659 0.73522 0.68144 0.0
C394 C 0.35001 0.74084 0.54848 0.0
C395 C 0.40614 0.79614 0.50858 0.0
N396 N 0.35435 0.73291 0.63898 0.0
N397 N 0.40987 0.7877 0.55101 0.0
H398 H 0.73924 0.61113 0.50752 0.0
H399 H 0.8537 0.64558 0.2825 0.0
H400 H 0.86398 0.66604 0.48969 0.0
H401 H 0.71758 0.63635 0.29616 0.0
H402 H 0.86189 0.62847 0.35833 0.0
H403 H 0.735 0.598 0.43016 0.0
C404 C 0.76585 0.61993 0.48734 0.0
C405 C 0.80154 0.64061 0.50459 0.0
C406 C 0.83024 0.62895 0.34453 0.0
C407 C 0.79736 0.62496 0.41701 0.0
C408 C 0.82566 0.63829 0.30132 0.0
C409 C 0.78499 0.64173 0.28347 0.0
C410 C 0.79378 0.62386 0.36999 0.0
C411 C 0.74943 0.63301 0.30894 0.0
C412 C 0.76343 0.61243 0.44341 0.0
C413 C 0.83541 0.65106 0.47739 0.0
N414 N 0.75456 0.62502 0.35131 0.0
N415 N 0.83239 0.64332 0.43492 0.0
H416 H 0.58476 0.2559 0.98157 0.0
H417 H 0.33319 0.27986 0.01916 0.0
H418 H 0.49036 0.24562 0.88174 0.0
H419 H 0.42645 0.29408 0.11952 0.0
H420 H 0.39015 0.25973 0.97005 0.0
H421 H 0.52723 0.26215 0.0341 0.0
C422 C 0.55203 0.25436 0.9707 0.0
C423 C 0.54255 0.25057 0.92701 0.0
C424 C 0.39817 0.26691 0.0029 0.0
C425 C 0.47645 0.25806 0.98702 0.0
C426 C 0.36557 0.27835 0.03103 0.0
C427 C 0.37496 0.28896 0.07355 0.0
C428 C 0.44065 0.26616 0.01722 0.0
C429 C 0.41763 0.28631 0.08702 0.0
C430 C 0.51916 0.25813 0.00072 0.0
C431 C 0.49939 0.24887 0.91495 0.0
N432 N 0.44888 0.27552 0.05891 0.0
N433 N 0.46811 0.25291 0.94466 0.0
H434 H 0.2559 0.5317 0.12061 0.0
H435 H 0.32882 0.59585 0.886 0.0
H436 H 0.27512 0.43921 0.0207 0.0
H437 H 0.27644 0.68641 0.97498 0.0
H438 H 0.30853 0.53812 0.93426 0.0
H439 H 0.26245 0.58858 0.06781 0.0
C440 C 0.26115 0.52326 0.08749 0.0
C441 C 0.26521 0.48043 0.07523 0.0
C442 C 0.301 0.57054 0.94307 0.0
C443 C 0.27323 0.54583 0.01445 0.0
C444 C 0.31262 0.60359 0.91551 0.0
C445 C 0.30452 0.64614 0.9265 0.0
C446 C 0.28169 0.57997 0.98238 0.0
C447 C 0.28328 0.65414 0.96513 0.0
C448 C 0.2648 0.55586 0.05731 0.0
C449 C 0.27178 0.47166 0.03172 0.0
N450 N 0.27312 0.62144 0.9919 0.0
N451 N 0.2761 0.50403 0.00306 0.0
H452 H 0.52549 0.72171 0.8683 0.0
H453 H 0.59992 0.73501 0.11299 0.0
H454 H 0.44122 0.75658 0.97136 0.0
H455 H 0.68593 0.71169 0.00816 0.0
H456 H 0.54165 0.74381 0.06184 0.0
H457 H 0.58439 0.71777 0.91915 0.0
C458 C 0.51925 0.72846 0.90163 0.0
C459 C 0.47807 0.73939 0.91543 0.0
C460 C 0.57331 0.73705 0.04999 0.0
C461 C 0.54586 0.73501 0.9741 0.0
C462 C 0.60672 0.73215 0.07922 0.0
C463 C 0.64805 0.72256 0.06499 0.0
C464 C 0.58108 0.73214 0.00607 0.0
C465 C 0.6547 0.71908 0.02073 0.0
C466 C 0.55305 0.72634 0.93068 0.0
C467 C 0.47228 0.748 0.95911 0.0
N468 N 0.6216 0.72361 0.99296 0.0
N469 N 0.50568 0.74551 0.98682 0.0
H470 H 0.73702 0.32777 0.98212 0.0
H471 H 0.76607 0.5788 0.01749 0.0
H472 H 0.73439 0.41912 0.87922 0.0
H473 H 0.76403 0.48629 0.11942 0.0
H474 H 0.76144 0.52064 0.9656 0.0
H475 H 0.75393 0.38512 0.03189 0.0
C476 C 0.74038 0.35983 0.96987 0.0
C477 C 0.73402 0.36857 0.92636 0.0
C478 C 0.76233 0.5131 -0.00067 0.0
C479 C 0.75313 0.43473 0.98347 0.0
C480 C 0.7651 0.54632 0.02901 0.0
C481 C 0.76513 0.5376 0.07302 0.0
C482 C 0.75962 0.47079 0.01369 0.0
C483 C 0.76377 0.49476 0.08591 0.0
C484 C 0.74998 0.39265 -0.00162 0.0
C485 C 0.73894 0.41082 0.91246 0.0
N486 N 0.76084 0.46313 0.05648 0.0
N487 N 0.74787 0.44233 0.94094 0.0
H488 H 0.92737 0.22129 0.37723 0.0
H489 H 0.98993 0.26028 0.62184 0.0
H490 H 0.83559 0.23346 0.47907 0.0
H491 H 0.08272 0.25386 0.52033 0.0
H492 H 0.93311 0.25492 0.5691 0.0
H493 H 0.98436 0.23776 0.42791 0.0
C494 C 0.91909 0.22787 0.41014 0.0
C495 C 0.87653 0.22576 0.42389 0.0
C496 C 0.96585 0.25493 0.55823 0.0
C497 C 0.94187 0.24434 0.48226 0.0
C498 C 0.99846 0.25796 0.58841 0.0
C499 C 0.04138 0.25723 0.57565 0.0
C500 C 0.97596 0.25088 0.51476 0.0
C501 C 0.05018 0.25446 0.53174 0.0
C502 C 0.95173 0.23719 0.43911 0.0
C503 C 0.86787 0.23458 0.46697 0.0
N504 N 0.01779 0.25106 0.50294 0.0
N505 N 0.90023 0.24317 0.4946 0.0
H506 H 0.23871 0.09711 0.61976 0.0
H507 H 0.25007 0.03042 0.37331 0.0
H508 H 0.23012 0.18603 0.51506 0.0
H509 H 0.25922 0.93985 0.47657 0.0
H510 H 0.2482 0.08799 0.42523 0.0
H511 H 0.25196 0.03987 0.56858 0.0
C512 C 0.2401 0.10476 0.58606 0.0
C513 C 0.23306 0.14656 0.57177 0.0
C514 C 0.25085 0.05559 0.43665 0.0
C515 C 0.24791 0.08086 0.51286 0.0
C516 C 0.25189 0.02254 0.40694 0.0
C517 C 0.25449 0.97997 0.42046 0.0
C518 C 0.25221 0.04634 0.48049 0.0
C519 C 0.25709 0.97207 0.46457 0.0
C520 C 0.24754 0.07195 0.55682 0.0
C521 C 0.2352 0.15437 0.52765 0.0
N522 N 0.25558 1.00489 0.49298 0.0
N523 N 0.24213 0.12185 0.49985 0.0
H524 H 0.09108 0.79163 0.37764 0.0
H525 H 0.029 0.75769 0.623 0.0
H526 H 0.18275 0.78587 0.48026 0.0
H527 H 0.93632 0.7583 0.52107 0.0
H528 H 0.08584 0.76208 0.57024 0.0
H529 H 0.03459 0.77375 0.42838 0.0
C530 C 0.09947 0.78616 0.41074 0.0
C531 C 0.14182 0.79055 0.42468 0.0
C532 C 0.05313 0.76091 0.55928 0.0
C533 C 0.07703 0.77031 0.48312 0.0
C534 C 0.02052 0.75838 0.58947 0.0
C535 C 0.9776 0.75798 0.57659 0.0
C536 C 0.04303 0.76338 0.51566 0.0
C537 C 0.96885 0.75864 0.53257 0.0
C538 C 0.0671 0.77601 0.43974 0.0
C539 C 0.15062 0.78304 0.46801 0.0
N540 N 1.00124 0.76172 0.50374 0.0
N541 N 0.11852 0.77364 0.49565 0.0
H542 H 0.75871 0.0826 0.47623 0.0
H543 H 0.78775 0.83207 0.51579 0.0
H544 H 0.76852 0.98938 0.37553 0.0
H545 H 0.79092 0.92507 0.61709 0.0
H546 H 0.7724 0.88885 0.46483 0.0
H547 H 0.76236 0.02501 0.52892 0.0
C548 C 0.76124 0.05008 0.46513 0.0
C549 C 0.76365 0.04099 0.42126 0.0
C550 C 0.77615 0.89686 0.49825 0.0
C551 C 0.7679 0.97486 0.48151 0.0
C552 C 0.78482 0.86437 0.52744 0.0
C553 C 0.79089 0.87374 0.57086 0.0
C554 C 0.77353 0.93921 0.51239 0.0
C555 C 0.78661 0.91629 0.58395 0.0
C556 C 0.76344 0.0172 0.49527 0.0
C557 C 0.76689 0.99812 0.40892 0.0
N558 N 0.77846 0.94744 0.55484 0.0
N559 N 0.76909 0.96682 0.4388 0.0
H560 H 0.39235 0.49071 0.29825 0.0
H561 H 0.54259 0.62479 0.27054 0.0
H562 H 0.49129 0.4004 0.26761 0.0
H563 H 0.63444 0.52441 0.28933 0.0
H564 H 0.4896 0.58203 0.30662 0.0
H565 H 0.44456 0.53447 0.33453 0.0
C566 C 0.42475 0.47919 0.30008 0.0
C567 C 0.43791 0.44275 0.27761 0.0
C568 C 0.52168 0.56974 0.30474 0.0
C569 C 0.49823 0.49453 0.31679 0.0
C570 C 0.55203 0.59431 0.28359 0.0
C571 C 0.59249 0.57757 0.27511 0.0
C572 C 0.53171 0.52766 0.31639 0.0
C573 C 0.60339 0.53848 0.29394 0.0
C574 C 0.45485 0.50482 0.32042 0.0
C575 C 0.48017 0.42937 0.28257 0.0
N576 N 0.57273 0.51428 0.31247 0.0
N577 N 0.50915 0.45593 0.30048 0.0
H578 H 0.49562 0.63456 0.69204 0.0
H579 H 0.63106 0.48452 0.75669 0.0
H580 H 0.40568 0.53192 0.71031 0.0
H581 H 0.53975 0.39121 0.71275 0.0
H582 H 0.59191 0.53906 0.71851 0.0
H583 H 0.55094 0.58248 0.67711 0.0
C584 C 0.48733 0.60117 0.6931 0.0
C585 C 0.44654 0.58748 0.70582 0.0
C586 C 0.58142 0.50641 0.71547 0.0
C587 C 0.50968 0.52797 0.6881 0.0
C588 C 0.60366 0.47518 0.73781 0.0
C589 C 0.58809 0.43336 0.7393 0.0
C590 C 0.54296 0.49569 0.69507 0.0
C591 C 0.55297 0.42295 0.71341 0.0
C592 C 0.51904 0.57144 0.6842 0.0
C593 C 0.43708 0.544 0.7027 0.0
N594 N 0.53091 0.45417 0.69343 0.0
N595 N 0.4687 0.51573 0.6952 0.0
H596 H 0.98512 0.12629 0.21431 0.0
H597 H 0.03467 0.89708 0.20901 0.0
H598 H 0.89101 0.02749 0.19744 0.0
H599 H 0.12887 0.99669 0.19843 0.0
H600 H 0.98396 0.94218 0.1716 0.0
H601 H 0.03628 0.08311 0.17538 0.0
C602 C 0.97478 0.09611 0.20116 0.0
C603 C 0.93445 0.07966 0.21095 0.0
C604 C 0.01616 0.95377 0.17608 0.0
C605 C 0.99322 0.02922 0.16812 0.0
C606 C 0.04514 0.9279 0.19757 0.0
C607 C 0.08534 0.94385 0.20875 0.0
C608 C 0.02707 0.99637 0.1676 0.0
C609 C 0.09776 0.98337 0.19184 0.0
C610 C 1.00402 0.07134 0.17882 0.0
C611 C 0.92222 0.04106 0.19193 0.0
N612 N 0.0682 1.00892 0.17344 0.0
N613 N 0.95201 0.01641 0.17273 0.0
H614 H 0.11567 0.04629 0.78869 0.0
H615 H 0.88568 0.98824 0.76369 0.0
H616 H 0.01276 0.13718 0.7849 0.0
H617 H 0.98555 0.89803 0.79116 0.0
H618 H 0.92585 0.04258 0.80181 0.0
H619 H 0.06729 0.99445 0.82018 0.0
C620 C 0.08325 0.05578 0.79567 0.0
C621 C 0.06792 0.0955 0.78243 0.0
C622 C 0.93844 1.01055 0.80079 0.0
C623 C 0.01196 0.03602 0.81706 0.0
C624 C 0.91542 0.97951 0.77891 0.0
C625 C 0.93306 0.9391 0.77261 0.0
C626 C 0.98002 1.00136 0.81478 0.0
C627 C 0.97105 0.92907 0.79411 0.0
C628 C 0.05554 0.02619 0.81381 0.0
C629 C 0.026 0.10663 0.79348 0.0
N630 N 0.99399 0.96043 0.81301 0.0
N631 N 0.9991 0.07653 0.80887 0.0
H632 H 0.34523 0.05413 0.24821 0.0
H633 H 0.1986 0.24775 0.18494 0.0
H634 H 0.21446 0.03762 0.20908 0.0
H635 H 0.33495 0.25702 0.19555 0.0
H636 H 0.20445 0.17028 0.18393 0.0
H637 H 0.34351 0.12686 0.22079 0.0
C638 C 0.31632 0.06556 0.23323 0.0
C639 C 0.27987 0.0397 0.23132 0.0
C640 C 0.2333 0.18919 0.1847 0.0
C641 C 0.27735 0.12368 0.20039 0.0
C642 C 0.22998 0.23367 0.18434 0.0
C643 C 0.26651 0.25923 0.188 0.0
C644 C 0.27337 0.17003 0.19037 0.0
C645 C 0.30614 0.23874 0.19057 0.0
C646 C 0.31533 0.10721 0.21752 0.0
C647 C 0.24335 0.05636 0.21135 0.0
N648 N 0.30847 0.19554 0.19231 0.0
N649 N 0.24278 0.09746 0.19737 0.0
H650 H 0.24444 0.84535 0.79998 0.0
H651 H 0.0571 0.68411 0.76232 0.0
H652 H 0.25854 0.71125 0.82335 0.0
H653 H 0.03415 0.81756 0.78407 0.0
H654 H 0.12951 0.69294 0.79004 0.0
H655 H 0.16683 0.83676 0.80121 0.0
C656 C 0.23107 0.8144 0.80728 0.0
C657 C 0.25787 0.77912 0.81241 0.0
C658 C 0.10844 0.72017 0.78951 0.0
C659 C 0.16902 0.76842 0.81131 0.0
C660 C 0.06702 0.71515 0.7736 0.0
C661 C 0.03943 0.75017 0.77052 0.0
C662 C 0.12294 0.76073 0.80168 0.0
C663 C 0.05419 0.78962 0.78576 0.0
C664 C 0.18673 0.80935 0.80747 0.0
C665 C 0.23896 0.73942 0.82027 0.0
N666 N 0.0951 0.79398 0.79988 0.0
N667 N 0.19575 0.73494 0.81852 0.0
H668 H 0.83615 0.7712 0.17421 0.0
H669 H 0.8059 0.98985 0.1981 0.0
H670 H 0.70182 0.75939 0.19832 0.0
H671 H 0.68912 0.95137 0.25966 0.0
H672 H 0.81295 0.91814 0.16853 0.0
H673 H 0.8291 0.84866 0.17577 0.0
C674 C 0.80473 0.78505 0.17746 0.0
C675 C 0.7692 0.75885 0.18436 0.0
C676 C 0.78578 0.92522 0.1885 0.0
C677 C 0.76074 0.8478 0.18799 0.0
C678 C 0.78145 0.96649 0.20502 0.0
C679 C 0.74715 0.97665 0.23201 0.0
C680 C 0.75557 0.89375 0.19908 0.0
C681 C 0.7164 0.94501 0.23953 0.0
C682 C 0.80064 0.82948 0.17871 0.0
C683 C 0.72961 0.77837 0.19082 0.0
N684 N 0.72152 0.90513 0.22349 0.0
N685 N 0.72657 0.82148 0.19311 0.0
H686 H 0.95829 0.34876 0.74282 0.0
H687 H 0.77779 0.18932 0.82207 0.0
H688 H 0.98666 0.22307 0.79006 0.0
H689 H 0.75604 0.32057 0.79009 0.0
H690 H 0.8551 0.2027 0.82039 0.0
H691 H 0.88558 0.34142 0.76938 0.0
C692 C 0.94942 0.31984 0.75941 0.0
C693 C 0.97867 0.28643 0.76389 0.0
C694 C 0.83341 0.22895 0.81519 0.0
C695 C 0.89467 0.27728 0.79381 0.0
C696 C 0.78931 0.22137 0.81665 0.0
C697 C 0.76055 0.25431 0.80785 0.0
C698 C 0.84869 0.26954 0.80373 0.0
C699 C 0.77708 0.2948 0.79898 0.0
C700 C 0.90775 0.31558 0.77457 0.0
C701 C 0.96524 0.2497 0.78585 0.0
N702 N 0.81987 0.30116 0.79673 0.0
N703 N 0.92407 0.24582 0.79933 0.0
H704 H 0.83557 0.26041 0.306 0.0
H705 H 0.71977 0.48582 0.28666 0.0
H706 H 0.69937 0.2753 0.30629 0.0
H707 H 0.85079 0.46209 0.25273 0.0
H708 H 0.71434 0.41282 0.31384 0.0
H709 H 0.84367 0.33752 0.30811 0.0
C710 C 0.80732 0.27977 0.30936 0.0
C711 C 0.76673 0.26103 0.30849 0.0
C712 C 0.74446 0.42387 0.30111 0.0
C713 C 0.77566 0.35 0.30747 0.0
C714 C 0.7477 0.46565 0.28577 0.0
C715 C 0.78573 0.48008 0.26691 0.0
C716 C 0.77961 0.39639 0.29804 0.0
C717 C 0.82074 0.45231 0.26657 0.0
C718 C 0.81195 0.324 0.30941 0.0
C719 C 0.73121 0.28814 0.3091 0.0
N720 N 0.81673 0.41183 0.28153 0.0
N721 N 0.73647 0.3312 0.30818 0.0
H722 H 0.46301 0.17433 0.74241 0.0
H723 H 0.27742 0.33514 0.67776 0.0
H724 H 0.48553 0.307 0.71524 0.0
H725 H 0.25899 0.20194 0.70298 0.0
H726 H 0.35498 0.32393 0.67889 0.0
H727 H 0.39034 0.18185 0.71577 0.0
C728 C 0.4529 0.20496 0.73025 0.0
C729 C 0.48046 0.24015 0.73155 0.0
C730 C 0.33398 0.29682 0.68264 0.0
C731 C 0.39649 0.24926 0.70141 0.0
C732 C 0.28974 0.30318 0.68145 0.0
C733 C 0.26176 0.26902 0.68833 0.0
C734 C 0.35029 0.25614 0.69184 0.0
C735 C 0.27931 0.22861 0.69507 0.0
C736 C 0.41123 0.20928 0.71505 0.0
C737 C 0.46544 0.27898 0.71503 0.0
N738 N 0.32228 0.22337 0.69705 0.0
N739 N 0.42433 0.28265 0.70128 0.0
H740 H 0.18403 0.75733 0.30193 0.0
H741 H 0.30875 0.53659 0.28881 0.0
H742 H 0.32005 0.74792 0.31574 0.0
H743 H 0.17699 0.555 0.25428 0.0
H744 H 0.31106 0.60978 0.31612 0.0
H745 H 0.17861 0.68007 0.30424 0.0
C746 C 0.21259 0.73901 0.30792 0.0
C747 C 0.25236 0.75921 0.31039 0.0
C748 C 0.28147 0.59751 0.30323 0.0
C749 C 0.24689 0.67006 0.3096 0.0
C750 C 0.28003 0.55563 0.28778 0.0
C751 C 0.24268 0.53966 0.26874 0.0
C752 C 0.2452 0.62352 0.29998 0.0
C753 C 0.20659 0.56597 0.26823 0.0
C754 C 0.20963 0.6947 0.30818 0.0
C755 C 0.28866 0.73361 0.31508 0.0
N756 N 0.20886 0.60653 0.28322 0.0
N757 N 0.28517 0.69033 0.31395 0.0
H758 H 0.53052 0.71449 0.7065 0.0
H759 H 0.75594 0.83355 0.69625 0.0
H760 H 0.5543 0.84108 0.754 0.0
H761 H 0.74279 0.69759 0.68824 0.0
H762 H 0.67851 0.84036 0.69586 0.0
H763 H 0.60411 0.7117 0.68001 0.0
C764 C 0.55086 0.74207 0.71056 0.0
C765 C 0.5362 0.77802 0.73285 0.0
C766 C 0.69248 0.80907 0.69249 0.0
C767 C 0.62047 0.77499 0.70241 0.0
C768 C 0.73685 0.80524 0.69158 0.0
C769 C 0.75621 0.76508 0.68974 0.0
C770 C 0.66694 0.77236 0.69251 0.0
C771 C 0.7295 0.72925 0.68741 0.0
C772 C 0.59294 0.74032 0.69561 0.0
C773 C 0.56422 0.81261 0.73734 0.0
N774 N 0.68629 0.73368 0.68918 0.0
N775 N 0.60492 0.81016 0.72251 0.0
loop_
_geom_bond_atom_site_label_1
_geom_bond_atom_site_label_2
_geom_bond_distance
_geom_bond_site_symmetry_2
_ccdc_geom_bond_type
Zn0 N4 2.020 . S
Zn0 O8 2.019 . S
Zn0 N10 2.119 . S
Zn0 O18 1.975 . S
C1 N2 1.334 . S
C1 N5 1.336 . S
N2 C1 1.334 . S
N2 C3 1.334 . S
C3 N2 1.334 . S
C3 N4 1.336 . S
N4 Zn0 2.020 . S
N4 C3 1.336 . S
N4 N5 1.354 . S
N5 C1 1.336 . S
N5 N4 1.354 . S
N5 Zn9 2.020 . S
C6 O7 1.244 . S
C6 O30 1.257 . S
O7 C6 1.244 . S
O8 Zn0 2.019 . S
O8 C28 1.257 . S
Zn9 N5 2.020 . S
Zn9 O16 1.975 . S
Zn9 N25 2.119 . S
Zn9 O30 2.019 . S
N10 Zn0 2.119 . S
N10 C12 1.334 . S
N10 C13 1.328 . S
C11 C12 1.391 . S
C11 N14 1.329 . S
C11 H32 0.930 . S
C12 N10 1.334 . S
C12 C11 1.391 . S
C12 H19 0.930 . S
C13 N10 1.328 . S
C13 C15 1.392 . S
C13 H20 0.930 . S
N14 C11 1.329 . S
N14 C15 1.331 . S
C15 C13 1.392 . S
C15 N14 1.331 . S
O16 Zn9 1.975 . S
O16 C17 1.252 . S
C17 O16 1.252 . S
C17 O18 1.252 . S
O18 Zn0 1.975 . S
O18 C17 1.252 . S
H19 C12 0.930 . S
H20 C13 0.930 . S
C21 C22 1.392 . S
C21 N25 1.328 . S
C21 H27 0.930 . S
C22 C21 1.392 . S
C22 N26 1.331 . S
C23 C24 1.391 . S
C23 N26 1.329 . S
C23 H33 0.930 . S
C24 C23 1.391 . S
C24 N25 1.334 . S
C24 H31 0.930 . S
N25 Zn9 2.119 . S
N25 C21 1.328 . S
N25 C24 1.334 . S
N26 C22 1.331 . S
N26 C23 1.329 . S
H27 C21 0.930 . S
C28 O8 1.257 . S
C28 O29 1.244 . S
O29 C28 1.244 . S
O30 C6 1.257 . S
O30 Zn9 2.019 . S
H31 C24 0.930 . S
H32 C11 0.930 . S
H33 C23 0.930 . S
Zn34 N38 2.020 . S
Zn34 O42 2.019 . S
Zn34 N44 2.119 . S
Zn34 O52 1.975 . S
C35 N36 1.334 . S
C35 N39 1.336 . S
N36 C35 1.334 . S
N36 C37 1.334 . S
C37 N36 1.334 . S
C37 N38 1.336 . S
N38 Zn34 2.020 . S
N38 C37 1.336 . S
N38 N39 1.354 . S
N39 C35 1.336 . S
N39 N38 1.354 . S
N39 Zn43 2.020 . S
C40 O41 1.244 . S
C40 O64 1.257 . S
O41 C40 1.244 . S
O42 Zn34 2.019 . S
O42 C62 1.257 . S
Zn43 N39 2.020 . S
Zn43 O50 1.975 . S
Zn43 N59 2.119 . S
Zn43 O64 2.019 . S
N44 Zn34 2.119 . S
N44 C46 1.334 . S
N44 C47 1.328 . S
C45 C46 1.391 . S
C45 N48 1.329 . S
C45 H66 0.930 . S
C46 N44 1.334 . S
C46 C45 1.391 . S
C46 H53 0.930 . S
C47 N44 1.328 . S
C47 C49 1.392 . S
C47 H54 0.930 . S
N48 C45 1.329 . S
N48 C49 1.331 . S
C49 C47 1.392 . S
C49 N48 1.331 . S
O50 Zn43 1.975 . S
O50 C51 1.252 . S
C51 O50 1.252 . S
C51 O52 1.252 . S
O52 Zn34 1.975 . S
O52 C51 1.252 . S
H53 C46 0.930 . S
H54 C47 0.930 . S
C55 C56 1.392 . S
C55 N59 1.328 . S
C55 H61 0.930 . S
C56 C55 1.392 . S
C56 N60 1.331 . S
C57 C58 1.391 . S
C57 N60 1.329 . S
C57 H67 0.930 . S
C58 C57 1.391 . S
C58 N59 1.334 . S
C58 H65 0.930 . S
N59 Zn43 2.119 . S
N59 C55 1.328 . S
N59 C58 1.334 . S
N60 C56 1.331 . S
N60 C57 1.329 . S
H61 C55 0.930 . S
C62 O42 1.257 . S
C62 O63 1.244 . S
O63 C62 1.244 . S
O64 C40 1.257 . S
O64 Zn43 2.019 . S
H65 C58 0.930 . S
H66 C45 0.930 . S
H67 C57 0.930 . S
Zn68 N72 2.020 . S
Zn68 O76 2.019 . S
Zn68 N78 2.119 . S
Zn68 O86 1.975 . S
C69 N70 1.334 . S
C69 N73 1.336 . S
N70 C69 1.334 . S
N70 C71 1.334 . S
C71 N70 1.334 . S
C71 N72 1.336 . S
N72 Zn68 2.020 . S
N72 C71 1.336 . S
N72 N73 1.354 . S
N73 C69 1.336 . S
N73 N72 1.354 . S
N73 Zn77 2.020 . S
C74 O75 1.244 . S
C74 O98 1.257 . S
O75 C74 1.244 . S
O76 Zn68 2.019 . S
O76 C96 1.257 . S
Zn77 N73 2.020 . S
Zn77 O84 1.975 . S
Zn77 N93 2.119 . S
Zn77 O98 2.019 . S
N78 Zn68 2.119 . S
N78 C80 1.334 . S
N78 C81 1.328 . S
C79 C80 1.391 . S
C79 N82 1.329 . S
C79 H100 0.930 . S
C80 N78 1.334 . S
C80 C79 1.391 . S
C80 H87 0.930 . S
C81 N78 1.328 . S
C81 C83 1.392 . S
C81 H88 0.930 . S
N82 C79 1.329 . S
N82 C83 1.331 . S
C83 C81 1.392 . S
C83 N82 1.331 . S
O84 Zn77 1.975 . S
O84 C85 1.252 . S
C85 O84 1.252 . S
C85 O86 1.252 . S
O86 Zn68 1.975 . S
O86 C85 1.252 . S
H87 C80 0.930 . S
H88 C81 0.930 . S
C89 C90 1.392 . S
C89 N93 1.328 . S
C89 H95 0.930 . S
C90 C89 1.392 . S
C90 N94 1.331 . S
C91 C92 1.391 . S
C91 N94 1.329 . S
C91 H101 0.930 . S
C92 C91 1.391 . S
C92 N93 1.334 . S
C92 H99 0.930 . S
N93 Zn77 2.119 . S
N93 C89 1.328 . S
N93 C92 1.334 . S
N94 C90 1.331 . S
N94 C91 1.329 . S
H95 C89 0.930 . S
C96 O76 1.257 . S
C96 O97 1.244 . S
O97 C96 1.244 . S
O98 C74 1.257 . S
O98 Zn77 2.019 . S
H99 C92 0.930 . S
H100 C79 0.930 . S
H101 C91 0.930 . S
Zn102 N106 2.020 . S
Zn102 O110 2.019 . S
Zn102 N112 2.119 . S
Zn102 O120 1.975 . S
C103 N104 1.334 . S
C103 N107 1.336 . S
N104 C103 1.334 . S
N104 C105 1.334 . S
C105 N104 1.334 . S
C105 N106 1.336 . S
N106 Zn102 2.020 . S
N106 C105 1.336 . S
N106 N107 1.354 . S
N107 C103 1.336 . S
N107 N106 1.354 . S
N107 Zn111 2.020 . S
C108 O109 1.244 . S
C108 O132 1.257 . S
O109 C108 1.244 . S
O110 Zn102 2.019 . S
O110 C130 1.257 . S
Zn111 N107 2.020 . S
Zn111 O118 1.975 . S
Zn111 N127 2.119 . S
Zn111 O132 2.019 . S
N112 Zn102 2.119 . S
N112 C114 1.334 . S
N112 C115 1.328 . S
C113 C114 1.391 . S
C113 N116 1.329 . S
C113 H134 0.930 . S
C114 N112 1.334 . S
C114 C113 1.391 . S
C114 H121 0.930 . S
C115 N112 1.328 . S
C115 C117 1.392 . S
C115 H122 0.930 . S
N116 C113 1.329 . S
N116 C117 1.331 . S
C117 C115 1.392 . S
C117 N116 1.331 . S
O118 Zn111 1.975 . S
O118 C119 1.252 . S
C119 O118 1.252 . S
C119 O120 1.252 . S
O120 Zn102 1.975 . S
O120 C119 1.252 . S
H121 C114 0.930 . S
H122 C115 0.930 . S
C123 C124 1.392 . S
C123 N127 1.328 . S
C123 H129 0.930 . S
C124 C123 1.392 . S
C124 N128 1.331 . S
C125 C126 1.391 . S
C125 N128 1.329 . S
C125 H135 0.930 . S
C126 C125 1.391 . S
C126 N127 1.334 . S
C126 H133 0.930 . S
N127 Zn111 2.119 . S
N127 C123 1.328 . S
N127 C126 1.334 . S
N128 C124 1.331 . S
N128 C125 1.329 . S
H129 C123 0.930 . S
C130 O110 1.257 . S
C130 O131 1.244 . S
O131 C130 1.244 . S
O132 C108 1.257 . S
O132 Zn111 2.019 . S
H133 C126 0.930 . S
H134 C113 0.930 . S
H135 C125 0.930 . S
Zn136 N140 2.020 . S
Zn136 O144 2.019 . S
Zn136 N146 2.119 . S
Zn136 O154 1.975 . S
C137 N138 1.334 . S
C137 N141 1.336 . S
N138 C137 1.334 . S
N138 C139 1.334 . S
C139 N138 1.334 . S
C139 N140 1.336 . S
N140 Zn136 2.020 . S
N140 C139 1.336 . S
N140 N141 1.354 . S
N141 C137 1.336 . S
N141 N140 1.354 . S
N141 Zn145 2.020 . S
C142 O143 1.244 1_565 S
C142 O166 1.257 . S
O143 C142 1.244 1_545 S
O144 Zn136 2.019 . S
O144 C164 1.257 . S
Zn145 N141 2.020 . S
Zn145 O152 1.975 . S
Zn145 N161 2.119 . S
Zn145 O166 2.019 1_545 S
N146 Zn136 2.119 . S
N146 C148 1.334 . S
N146 C149 1.328 . S
C147 C148 1.391 . S
C147 N150 1.329 . S
C147 H168 0.930 . S
C148 N146 1.334 . S
C148 C147 1.391 . S
C148 H155 0.930 . S
C149 N146 1.328 . S
C149 C151 1.392 . S
C149 H156 0.930 . S
N150 C147 1.329 . S
N150 C151 1.331 . S
C151 C149 1.392 . S
C151 N150 1.331 . S
O152 Zn145 1.975 . S
O152 C153 1.252 . S
C153 O152 1.252 . S
C153 O154 1.252 . S
O154 Zn136 1.975 . S
O154 C153 1.252 . S
H155 C148 0.930 . S
H156 C149 0.930 . S
C157 C158 1.392 . S
C157 N161 1.328 . S
C157 H163 0.930 1_545 S
C158 C157 1.392 . S
C158 N162 1.331 . S
C159 C160 1.391 . S
C159 N162 1.329 . S
C159 H169 0.930 . S
C160 C159 1.391 . S
C160 N161 1.334 . S
C160 H167 0.930 . S
N161 Zn145 2.119 . S
N161 C157 1.328 . S
N161 C160 1.334 . S
N162 C158 1.331 . S
N162 C159 1.329 . S
H163 C157 0.930 1_565 S
C164 O144 1.257 . S
C164 O165 1.244 . S
O165 C164 1.244 . S
O166 C142 1.257 . S
O166 Zn145 2.019 1_565 S
H167 C160 0.930 . S
H168 C147 0.930 . S
H169 C159 0.930 . S
Zn170 N174 2.020 . S
Zn170 O178 2.019 1_455 S
Zn170 N180 2.119 . S
Zn170 O188 1.975 . S
C171 N172 1.334 . S
C171 N175 1.336 . S
N172 C171 1.334 . S
N172 C173 1.334 . S
C173 N172 1.334 . S
C173 N174 1.336 . S
N174 Zn170 2.020 . S
N174 C173 1.336 . S
N174 N175 1.354 . S
N175 C171 1.336 . S
N175 N174 1.354 . S
N175 Zn179 2.020 . S
C176 O177 1.244 . S
C176 O200 1.257 . S
O177 C176 1.244 . S
O178 Zn170 2.019 1_655 S
O178 C198 1.257 . S
Zn179 N175 2.020 . S
Zn179 O186 1.975 . S
Zn179 N195 2.119 . S
Zn179 O200 2.019 . S
N180 Zn170 2.119 . S
N180 C182 1.334 . S
N180 C183 1.328 . S
C181 C182 1.391 . S
C181 N184 1.329 . S
C181 H202 0.930 . S
C182 N180 1.334 . S
C182 C181 1.391 . S
C182 H189 0.930 . S
C183 N180 1.328 . S
C183 C185 1.392 . S
C183 H190 0.930 1_455 S
N184 C181 1.329 . S
N184 C185 1.331 . S
C185 C183 1.392 . S
C185 N184 1.331 . S
O186 Zn179 1.975 . S
O186 C187 1.252 . S
C187 O186 1.252 . S
C187 O188 1.252 . S
O188 Zn170 1.975 . S
O188 C187 1.252 . S
H189 C182 0.930 . S
H190 C183 0.930 1_655 S
C191 C192 1.392 . S
C191 N195 1.328 . S
C191 H197 0.930 . S
C192 C191 1.392 . S
C192 N196 1.331 . S
C193 C194 1.391 . S
C193 N196 1.329 . S
C193 H203 0.930 . S
C194 C193 1.391 . S
C194 N195 1.334 . S
C194 H201 0.930 . S
N195 Zn179 2.119 . S
N195 C191 1.328 . S
N195 C194 1.334 . S
N196 C192 1.331 . S
N196 C193 1.329 . S
H197 C191 0.930 . S
C198 O178 1.257 . S
C198 O199 1.244 1_655 S
O199 C198 1.244 1_455 S
O200 C176 1.257 . S
O200 Zn179 2.019 . S
H201 C194 0.930 . S
H202 C181 0.930 . S
H203 C193 0.930 . S
Zn204 N208 2.020 . S
Zn204 O212 2.019 . S
Zn204 N214 2.119 . S
Zn204 O222 1.975 . S
C205 N206 1.334 . S
C205 N209 1.336 . S
N206 C205 1.334 . S
N206 C207 1.334 . S
C207 N206 1.334 . S
C207 N208 1.336 . S
N208 Zn204 2.020 . S
N208 C207 1.336 . S
N208 N209 1.354 . S
N209 C205 1.336 . S
N209 N208 1.354 . S
N209 Zn213 2.020 . S
C210 O211 1.244 1_545 S
C210 O234 1.257 . S
O211 C210 1.244 1_565 S
O212 Zn204 2.019 . S
O212 C232 1.257 . S
Zn213 N209 2.020 . S
Zn213 O220 1.975 . S
Zn213 N229 2.119 . S
Zn213 O234 2.019 1_565 S
N214 Zn204 2.119 . S
N214 C216 1.334 . S
N214 C217 1.328 . S
C215 C216 1.391 . S
C215 N218 1.329 . S
C215 H236 0.930 . S
C216 N214 1.334 . S
C216 C215 1.391 . S
C216 H223 0.930 . S
C217 N214 1.328 . S
C217 C219 1.392 . S
C217 H224 0.930 . S
N218 C215 1.329 . S
N218 C219 1.331 . S
C219 C217 1.392 . S
C219 N218 1.331 . S
O220 Zn213 1.975 . S
O220 C221 1.252 . S
C221 O220 1.252 . S
C221 O222 1.252 . S
O222 Zn204 1.975 . S
O222 C221 1.252 . S
H223 C216 0.930 . S
H224 C217 0.930 . S
C225 C226 1.392 . S
C225 N229 1.328 . S
C225 H231 0.930 1_565 S
C226 C225 1.392 . S
C226 N230 1.331 . S
C227 C228 1.391 . S
C227 N230 1.329 . S
C227 H237 0.930 . S
C228 C227 1.391 . S
C228 N229 1.334 . S
C228 H235 0.930 . S
N229 Zn213 2.119 . S
N229 C225 1.328 . S
N229 C228 1.334 . S
N230 C226 1.331 . S
N230 C227 1.329 . S
H231 C225 0.930 1_545 S
C232 O212 1.257 . S
C232 O233 1.244 . S
O233 C232 1.244 . S
O234 C210 1.257 . S
O234 Zn213 2.019 1_545 S
H235 C228 0.930 . S
H236 C215 0.930 . S
H237 C227 0.930 . S
Zn238 N242 2.020 . S
Zn238 O246 2.019 1_655 S
Zn238 N248 2.119 . S
Zn238 O256 1.975 . S
C239 N240 1.334 . S
C239 N243 1.336 . S
N240 C239 1.334 . S
N240 C241 1.334 . S
C241 N240 1.334 . S
C241 N242 1.336 . S
N242 Zn238 2.020 . S
N242 C241 1.336 . S
N242 N243 1.354 . S
N243 C239 1.336 . S
N243 N242 1.354 . S
N243 Zn247 2.020 . S
C244 O245 1.244 . S
C244 O268 1.257 . S
O245 C244 1.244 . S
O246 Zn238 2.019 1_455 S
O246 C266 1.257 . S
Zn247 N243 2.020 . S
Zn247 O254 1.975 . S
Zn247 N263 2.119 . S
Zn247 O268 2.019 . S
N248 Zn238 2.119 . S
N248 C250 1.334 . S
N248 C251 1.328 . S
C249 C250 1.391 . S
C249 N252 1.329 . S
C249 H270 0.930 . S
C250 N248 1.334 . S
C250 C249 1.391 . S
C250 H257 0.930 . S
C251 N248 1.328 . S
C251 C253 1.392 . S
C251 H258 0.930 1_655 S
N252 C249 1.329 . S
N252 C253 1.331 . S
C253 C251 1.392 . S
C253 N252 1.331 . S
O254 Zn247 1.975 . S
O254 C255 1.252 . S
C255 O254 1.252 . S
C255 O256 1.252 . S
O256 Zn238 1.975 . S
O256 C255 1.252 . S
H257 C250 0.930 . S
H258 C251 0.930 1_455 S
C259 C260 1.392 . S
C259 N263 1.328 . S
C259 H265 0.930 . S
C260 C259 1.392 . S
C260 N264 1.331 . S
C261 C262 1.391 . S
C261 N264 1.329 . S
C261 H271 0.930 . S
C262 C261 1.391 . S
C262 N263 1.334 . S
C262 H269 0.930 . S
N263 Zn247 2.119 . S
N263 C259 1.328 . S
N263 C262 1.334 . S
N264 C260 1.331 . S
N264 C261 1.329 . S
H265 C259 0.930 . S
C266 O246 1.257 . S
C266 O267 1.244 1_455 S
O267 C266 1.244 1_655 S
O268 C244 1.257 . S
O268 Zn247 2.019 . S
H269 C262 0.930 . S
H270 C249 0.930 . S
H271 C261 0.930 . S
H272 C278 0.930 . S
H273 C282 0.930 . S
H274 C287 0.929 1_554 S
H275 C285 0.929 . S
H276 C280 0.929 . S
H277 C286 0.929 . S
C278 H272 0.930 . S
C278 C279 1.367 . S
C278 C286 1.378 . S
C279 C278 1.367 . S
C279 C287 1.433 . S
C280 H276 0.929 . S
C280 C282 1.378 . S
C280 C284 1.350 . S
C281 C284 1.463 . S
C281 C286 1.350 . S
C281 N289 1.427 . S
C282 H273 0.930 . S
C282 C280 1.378 . S
C282 C283 1.367 . S
C283 C282 1.367 . S
C283 C285 1.433 . S
C284 C280 1.350 . S
C284 C281 1.463 . S
C284 N288 1.427 . S
C285 H275 0.929 . S
C285 C283 1.433 . S
C285 N288 1.384 . S
C286 H277 0.929 . S
C286 C278 1.378 . S
C286 C281 1.350 . S
C287 H274 0.929 1_556 S
C287 C279 1.433 . S
C287 N289 1.384 . S
N288 C284 1.427 . S
N288 C285 1.384 . S
N289 C281 1.427 . S
N289 C287 1.384 . S
H290 C296 0.930 . S
H291 C300 0.930 . S
H292 C305 0.929 1_556 S
H293 C303 0.929 . S
H294 C298 0.929 . S
H295 C304 0.929 . S
C296 H290 0.930 . S
C296 C297 1.367 . S
C296 C304 1.378 . S
C297 C296 1.367 . S
C297 C305 1.433 . S
C298 H294 0.929 . S
C298 C300 1.378 . S
C298 C302 1.350 . S
C299 C302 1.463 . S
C299 C304 1.350 . S
C299 N307 1.427 . S
C300 H291 0.930 . S
C300 C298 1.378 . S
C300 C301 1.367 . S
C301 C300 1.367 . S
C301 C303 1.433 . S
C302 C298 1.350 . S
C302 C299 1.463 . S
C302 N306 1.427 . S
C303 H293 0.929 . S
C303 C301 1.433 . S
C303 N306 1.384 . S
C304 H295 0.929 . S
C304 C296 1.378 . S
C304 C299 1.350 . S
C305 H292 0.929 1_554 S
C305 C297 1.433 . S
C305 N307 1.384 . S
N306 C302 1.427 . S
N306 C303 1.384 . S
N307 C299 1.427 . S
N307 C305 1.384 . S
H308 C314 0.930 . S
H309 C318 0.930 . S
H310 C323 0.929 . S
H311 C321 0.929 1_554 S
H312 C316 0.929 . S
H313 C322 0.929 . S
C314 H308 0.930 . S
C314 C315 1.367 . S
C314 C322 1.378 . S
C315 C314 1.367 . S
C315 C323 1.433 . S
C316 H312 0.929 . S
C316 C318 1.378 . S
C316 C320 1.350 . S
C317 C320 1.463 . S
C317 C322 1.350 . S
C317 N325 1.427 . S
C318 H309 0.930 . S
C318 C316 1.378 . S
C318 C319 1.367 . S
C319 C318 1.367 . S
C319 C321 1.433 . S
C320 C316 1.350 . S
C320 C317 1.463 . S
C320 N324 1.427 . S
C321 H311 0.929 1_556 S
C321 C319 1.433 . S
C321 N324 1.384 . S
C322 H313 0.929 . S
C322 C314 1.378 . S
C322 C317 1.350 . S
C323 H310 0.929 . S
C323 C315 1.433 . S
C323 N325 1.384 . S
N324 C320 1.427 . S
N324 C321 1.384 . S
N325 C317 1.427 . S
N325 C323 1.384 . S
H326 C332 0.930 . S
H327 C336 0.930 . S
H328 C341 0.929 . S
H329 C339 0.929 . S
H330 C334 0.929 . S
H331 C340 0.929 . S
C332 H326 0.930 . S
C332 C333 1.367 . S
C332 C340 1.378 . S
C333 C332 1.367 . S
C333 C341 1.433 . S
C334 H330 0.929 . S
C334 C336 1.378 . S
C334 C338 1.350 . S
C335 C338 1.463 . S
C335 C340 1.350 . S
C335 N343 1.427 . S
C336 H327 0.930 . S
C336 C334 1.378 . S
C336 C337 1.367 . S
C337 C336 1.367 . S
C337 C339 1.433 . S
C338 C334 1.350 . S
C338 C335 1.463 . S
C338 N342 1.427 . S
C339 H329 0.929 . S
C339 C337 1.433 . S
C339 N342 1.384 . S
C340 H331 0.929 . S
C340 C332 1.378 . S
C340 C335 1.350 . S
C341 H328 0.929 . S
C341 C333 1.433 . S
C341 N343 1.384 . S
N342 C338 1.427 . S
N342 C339 1.384 . S
N343 C335 1.427 . S
N343 C341 1.384 . S
H344 C350 0.930 . S
H345 C354 0.930 . S
H346 C359 0.929 . S
H347 C357 0.929 . S
H348 C352 0.929 . S
H349 C358 0.929 . S
C350 H344 0.930 . S
C350 C351 1.367 . S
C350 C358 1.378 . S
C351 C350 1.367 . S
C351 C359 1.433 . S
C352 H348 0.929 . S
C352 C354 1.378 . S
C352 C356 1.350 . S
C353 C356 1.463 . S
C353 C358 1.350 . S
C353 N361 1.427 . S
C354 H345 0.930 . S
C354 C352 1.378 . S
C354 C355 1.367 . S
C355 C354 1.367 . S
C355 C357 1.433 . S
C356 C352 1.350 . S
C356 C353 1.463 . S
C356 N360 1.427 . S
C357 H347 0.929 . S
C357 C355 1.433 . S
C357 N360 1.384 . S
C358 H349 0.929 . S
C358 C350 1.378 . S
C358 C353 1.350 . S
C359 H346 0.929 . S
C359 C351 1.433 . S
C359 N361 1.384 . S
N360 C356 1.427 . S
N360 C357 1.384 . S
N361 C353 1.427 . S
N361 C359 1.384 . S
H362 C368 0.930 . S
H363 C372 0.930 . S
H364 C377 0.929 . S
H365 C375 0.929 . S
H366 C370 0.929 . S
H367 C376 0.929 . S
C368 H362 0.930 . S
C368 C369 1.367 . S
C368 C376 1.378 . S
C369 C368 1.367 . S
C369 C377 1.433 . S
C370 H366 0.929 . S
C370 C372 1.378 . S
C370 C374 1.350 . S
C371 C374 1.463 . S
C371 C376 1.350 . S
C371 N379 1.427 . S
C372 H363 0.930 . S
C372 C370 1.378 . S
C372 C373 1.367 . S
C373 C372 1.367 . S
C373 C375 1.433 . S
C374 C370 1.350 . S
C374 C371 1.463 . S
C374 N378 1.427 . S
C375 H365 0.929 . S
C375 C373 1.433 . S
C375 N378 1.384 . S
C376 H367 0.929 . S
C376 C368 1.378 . S
C376 C371 1.350 . S
C377 H364 0.929 . S
C377 C369 1.433 . S
C377 N379 1.384 . S
N378 C374 1.427 . S
N378 C375 1.384 . S
N379 C371 1.427 . S
N379 C377 1.384 . S
H380 C386 0.930 . S
H381 C390 0.930 . S
H382 C395 0.929 . S
H383 C393 0.929 . S
H384 C388 0.929 . S
H385 C394 0.929 . S
C386 H380 0.930 . S
C386 C387 1.367 . S
C386 C394 1.378 . S
C387 C386 1.367 . S
C387 C395 1.433 . S
C388 H384 0.929 . S
C388 C390 1.378 . S
C388 C392 1.350 . S
C389 C392 1.463 . S
C389 C394 1.350 . S
C389 N397 1.427 . S
C390 H381 0.930 . S
C390 C388 1.378 . S
C390 C391 1.367 . S
C391 C390 1.367 . S
C391 C393 1.433 . S
C392 C388 1.350 . S
C392 C389 1.463 . S
C392 N396 1.427 . S
C393 H383 0.929 . S
C393 C391 1.433 . S
C393 N396 1.384 . S
C394 H385 0.929 . S
C394 C386 1.378 . S
C394 C389 1.350 . S
C395 H382 0.929 . S
C395 C387 1.433 . S
C395 N397 1.384 . S
N396 C392 1.427 . S
N396 C393 1.384 . S
N397 C389 1.427 . S
N397 C395 1.384 . S
H398 C404 0.930 . S
H399 C408 0.930 . S
H400 C413 0.929 . S
H401 C411 0.929 . S
H402 C406 0.929 . S
H403 C412 0.929 . S
C404 H398 0.930 . S
C404 C405 1.367 . S
C404 C412 1.378 . S
C405 C404 1.367 . S
C405 C413 1.433 . S
C406 H402 0.929 . S
C406 C408 1.378 . S
C406 C410 1.350 . S
C407 C410 1.463 . S
C407 C412 1.350 . S
C407 N415 1.427 . S
C408 H399 0.930 . S
C408 C406 1.378 . S
C408 C409 1.367 . S
C409 C408 1.367 . S
C409 C411 1.433 . S
C410 C406 1.350 . S
C410 C407 1.463 . S
C410 N414 1.427 . S
C411 H401 0.929 . S
C411 C409 1.433 . S
C411 N414 1.384 . S
C412 H403 0.929 . S
C412 C404 1.378 . S
C412 C407 1.350 . S
C413 H400 0.929 . S
C413 C405 1.433 . S
C413 N415 1.384 . S
N414 C410 1.427 . S
N414 C411 1.384 . S
N415 C407 1.427 . S
N415 C413 1.384 . S
H416 C422 0.930 . S
H417 C426 0.930 . S
H418 C431 0.929 . S
H419 C429 0.929 . S
H420 C424 0.929 . S
H421 C430 0.929 1_554 S
C422 H416 0.930 . S
C422 C423 1.367 . S
C422 C430 1.378 . S
C423 C422 1.367 . S
C423 C431 1.433 . S
C424 H420 0.929 . S
C424 C426 1.378 1_556 S
C424 C428 1.350 . S
C425 C428 1.463 . S
C425 C430 1.350 . S
C425 N433 1.427 . S
C426 H417 0.930 . S
C426 C424 1.378 1_554 S
C426 C427 1.367 . S
C427 C426 1.367 . S
C427 C429 1.433 . S
C428 C424 1.350 . S
C428 C425 1.463 . S
C428 N432 1.427 1_556 S
C429 H419 0.929 . S
C429 C427 1.433 . S
C429 N432 1.384 . S
C430 H421 0.929 1_556 S
C430 C422 1.378 . S
C430 C425 1.350 . S
C431 H418 0.929 . S
C431 C423 1.433 . S
C431 N433 1.384 . S
N432 C428 1.427 1_554 S
N432 C429 1.384 . S
N433 C425 1.427 . S
N433 C431 1.384 . S
H434 C440 0.930 . S
H435 C444 0.930 . S
H436 C449 0.929 . S
H437 C447 0.929 . S
H438 C442 0.918 1_554 S
H439 C448 0.929 . S
C440 H434 0.930 . S
C440 C441 1.367 . S
C440 C448 1.378 . S
C441 C440 1.367 . S
C441 C449 1.433 . S
C442 H438 0.918 1_556 S
C442 C444 1.391 . S
C442 C446 1.348 1_556 S
C443 C446 1.463 . S
C443 C448 1.350 . S
C443 N451 1.427 . S
C444 H435 0.930 . S
C444 C442 1.391 . S
C444 C445 1.367 . S
C445 C444 1.367 . S
C445 C447 1.433 . S
C446 C442 1.348 1_554 S
C446 C443 1.463 . S
C446 N450 1.427 1_554 S
C447 H437 0.929 . S
C447 C445 1.433 . S
C447 N450 1.384 . S
C448 H439 0.929 . S
C448 C440 1.378 . S
C448 C443 1.350 . S
C449 H436 0.929 . S
C449 C441 1.433 . S
C449 N451 1.384 . S
N450 C446 1.427 1_556 S
N450 C447 1.384 . S
N451 C443 1.427 . S
N451 C449 1.384 . S
H452 C458 0.930 . S
H453 C462 0.930 . S
H454 C467 0.929 . S
H455 C465 0.923 1_556 S
H456 C460 0.929 . S
H457 C466 0.929 . S
C458 H452 0.930 . S
C458 C459 1.367 . S
C458 C466 1.378 . S
C459 C458 1.367 . S
C459 C467 1.433 . S
C460 H456 0.929 . S
C460 C462 1.378 . S
C460 C464 1.350 1_554 S
C461 C464 1.463 . S
C461 C466 1.350 . S
C461 N469 1.427 . S
C462 H453 0.930 . S
C462 C460 1.378 . S
C462 C463 1.367 . S
C463 C462 1.367 . S
C463 C465 1.449 . S
C464 C460 1.350 1_556 S
C464 C461 1.463 . S
C464 N468 1.427 . S
C465 H455 0.923 1_554 S
C465 C463 1.449 . S
C465 N468 1.375 1_554 S
C466 H457 0.929 . S
C466 C458 1.378 . S
C466 C461 1.350 . S
C467 H454 0.929 . S
C467 C459 1.433 . S
C467 N469 1.384 . S
N468 C464 1.427 . S
N468 C465 1.375 1_556 S
N469 C461 1.427 . S
N469 C467 1.384 . S
H470 C476 0.930 1_554 S
H471 C480 0.930 . S
H472 C485 0.929 . S
H473 C483 0.929 . S
H474 C478 0.929 1_556 S
H475 C484 0.929 . S
C476 H470 0.930 1_556 S
C476 C477 1.367 . S
C476 C484 1.378 1_556 S
C477 C476 1.367 . S
C477 C485 1.433 . S
C478 H474 0.929 1_554 S
C478 C480 1.378 . S
C478 C482 1.350 . S
C479 C482 1.463 . S
C479 C484 1.350 . S
C479 N487 1.427 1_554 S
C480 H471 0.930 . S
C480 C478 1.378 . S
C480 C481 1.367 . S
C481 C480 1.367 . S
C481 C483 1.433 . S
C482 C478 1.350 . S
C482 C479 1.463 . S
C482 N486 1.427 . S
C483 H473 0.929 . S
C483 C481 1.433 . S
C483 N486 1.384 . S
C484 H475 0.929 . S
C484 C476 1.378 1_554 S
C484 C479 1.350 . S
C485 H472 0.929 . S
C485 C477 1.433 . S
C485 N487 1.384 . S
N486 C482 1.427 . S
N486 C483 1.384 . S
N487 C479 1.427 1_556 S
N487 C485 1.384 . S
H488 C494 0.930 . S
H489 C498 0.939 . S
H490 C503 0.929 . S
H491 C501 0.929 1_455 S
H492 C496 0.929 . S
H493 C502 0.929 . S
C494 H488 0.930 . S
C494 C495 1.367 . S
C494 C502 1.378 . S
C495 C494 1.367 . S
C495 C503 1.433 . S
C496 H492 0.929 . S
C496 C498 1.378 . S
C496 C500 1.350 . S
C497 C500 1.463 . S
C497 C502 1.350 . S
C497 N505 1.427 . S
C498 H489 0.939 . S
C498 C496 1.378 . S
C498 C499 1.367 1_655 S
C499 C498 1.367 1_455 S
C499 C501 1.433 1_455 S
C500 C496 1.350 . S
C500 C497 1.463 . S
C500 N504 1.427 . S
C501 H491 0.929 1_655 S
C501 C499 1.433 1_655 S
C501 N504 1.384 . S
C502 H493 0.929 . S
C502 C494 1.378 . S
C502 C497 1.350 . S
C503 H490 0.929 . S
C503 C495 1.433 . S
C503 N505 1.384 . S
N504 C500 1.427 . S
N504 C501 1.384 . S
N505 C497 1.427 . S
N505 C503 1.384 . S
H506 C512 0.930 . S
H507 C516 0.930 . S
H508 C521 0.929 . S
H509 C519 0.929 . S
H510 C514 0.929 . S
H511 C520 0.929 . S
C512 H506 0.930 . S
C512 C513 1.367 . S
C512 C520 1.378 . S
C513 C512 1.367 . S
C513 C521 1.433 . S
C514 H510 0.929 . S
C514 C516 1.378 . S
C514 C518 1.350 . S
C515 C518 1.463 . S
C515 C520 1.350 . S
C515 N523 1.427 . S
C516 H507 0.930 . S
C516 C514 1.378 . S
C516 C517 1.367 1_545 S
C517 C516 1.367 1_565 S
C517 C519 1.433 . S
C518 C514 1.350 . S
C518 C515 1.463 . S
C518 N522 1.427 . S
C519 H509 0.929 . S
C519 C517 1.433 . S
C519 N522 1.384 1_565 S
C520 H511 0.929 . S
C520 C512 1.378 . S
C520 C515 1.350 . S
C521 H508 0.929 . S
C521 C513 1.433 . S
C521 N523 1.384 . S
N522 C518 1.427 . S
N522 C519 1.384 1_545 S
N523 C515 1.427 . S
N523 C521 1.384 . S
H524 C530 0.930 . S
H525 C534 0.930 . S
H526 C539 0.929 . S
H527 C537 0.929 1_655 S
H528 C532 0.929 . S
H529 C538 0.929 . S
C530 H524 0.930 . S
C530 C531 1.367 . S
C530 C538 1.378 . S
C531 C530 1.367 . S
C531 C539 1.433 . S
C532 H528 0.929 . S
C532 C534 1.378 . S
C532 C536 1.350 . S
C533 C536 1.463 . S
C533 C538 1.350 . S
C533 N541 1.427 . S
C534 H525 0.930 . S
C534 C532 1.378 . S
C534 C535 1.367 1_455 S
C535 C534 1.367 1_655 S
C535 C537 1.433 1_655 S
C536 C532 1.350 . S
C536 C533 1.463 . S
C536 N540 1.427 . S
C537 H527 0.929 1_455 S
C537 C535 1.433 1_455 S
C537 N540 1.384 . S
C538 H529 0.929 . S
C538 C530 1.378 . S
C538 C533 1.350 . S
C539 H526 0.929 . S
C539 C531 1.433 . S
C539 N541 1.384 . S
N540 C536 1.427 . S
N540 C537 1.384 . S
N541 C533 1.427 . S
N541 C539 1.384 . S
H542 C548 0.930 . S
H543 C552 0.930 . S
H544 C557 0.929 . S
H545 C555 0.929 . S
H546 C550 0.929 . S
H547 C556 0.929 . S
C548 H542 0.930 . S
C548 C549 1.367 . S
C548 C556 1.378 1_545 S
C549 C548 1.367 . S
C549 C557 1.433 1_545 S
C550 H546 0.929 . S
C550 C552 1.378 . S
C550 C554 1.350 . S
C551 C554 1.463 . S
C551 C556 1.350 . S
C551 N559 1.427 . S
C552 H543 0.930 . S
C552 C550 1.378 . S
C552 C553 1.367 . S
C553 C552 1.367 . S
C553 C555 1.433 . S
C554 C550 1.350 . S
C554 C551 1.463 . S
C554 N558 1.427 . S
C555 H545 0.929 . S
C555 C553 1.433 . S
C555 N558 1.384 . S
C556 H547 0.929 . S
C556 C548 1.378 1_565 S
C556 C551 1.350 . S
C557 H544 0.929 . S
C557 C549 1.433 1_565 S
C557 N559 1.384 . S
N558 C554 1.427 . S
N558 C555 1.384 . S
N559 C551 1.427 . S
N559 C557 1.384 . S
H560 C566 0.930 . S
H561 C570 0.930 . S
H562 C575 0.929 . S
H563 C573 0.929 . S
H564 C568 0.929 . S
H565 C574 0.929 . S
C566 H560 0.930 . S
C566 C567 1.367 . S
C566 C574 1.378 . S
C567 C566 1.367 . S
C567 C575 1.433 . S
C568 H564 0.929 . S
C568 C570 1.378 . S
C568 C572 1.350 . S
C569 C572 1.463 . S
C569 C574 1.350 . S
C569 N577 1.427 . S
C570 H561 0.930 . S
C570 C568 1.378 . S
C570 C571 1.367 . S
C571 C570 1.367 . S
C571 C573 1.433 . S
C572 C568 1.350 . S
C572 C569 1.463 . S
C572 N576 1.427 . S
C573 H563 0.929 . S
C573 C571 1.433 . S
C573 N576 1.384 . S
C574 H565 0.929 . S
C574 C566 1.378 . S
C574 C569 1.350 . S
C575 H562 0.929 . S
C575 C567 1.433 . S
C575 N577 1.384 . S
N576 C572 1.427 . S
N576 C573 1.384 . S
N577 C569 1.427 . S
N577 C575 1.384 . S
H578 C584 0.930 . S
H579 C588 0.930 . S
H580 C593 0.929 . S
H581 C591 0.929 . S
H582 C586 0.929 . S
H583 C592 0.929 . S
C584 H578 0.930 . S
C584 C585 1.367 . S
C584 C592 1.378 . S
C585 C584 1.367 . S
C585 C593 1.433 . S
C586 H582 0.929 . S
C586 C588 1.378 . S
C586 C590 1.350 . S
C587 C590 1.463 . S
C587 C592 1.350 . S
C587 N595 1.427 . S
C588 H579 0.930 . S
C588 C586 1.378 . S
C588 C589 1.367 . S
C589 C588 1.367 . S
C589 C591 1.433 . S
C590 C586 1.350 . S
C590 C587 1.463 . S
C590 N594 1.427 . S
C591 H581 0.929 . S
C591 C589 1.433 . S
C591 N594 1.384 . S
C592 H583 0.929 . S
C592 C584 1.378 . S
C592 C587 1.350 . S
C593 H580 0.929 . S
C593 C585 1.433 . S
C593 N595 1.384 . S
N594 C590 1.427 . S
N594 C591 1.384 . S
N595 C587 1.427 . S
N595 C593 1.384 . S
H596 C602 0.930 . S
H597 C606 0.930 . S
H598 C611 0.929 . S
H599 C609 0.929 . S
H600 C604 0.929 . S
H601 C610 0.929 . S
C602 H596 0.930 . S
C602 C603 1.367 1_545 S
C602 C610 1.378 . S
C603 C602 1.367 1_565 S
C603 C611 1.433 . S
C604 H600 0.929 . S
C604 C606 1.378 . S
C604 C608 1.334 1_565 S
C605 C608 1.461 1_665 S
C605 C610 1.334 1_565 S
C605 N613 1.446 . S
C606 H597 0.930 . S
C606 C604 1.378 . S
C606 C607 1.367 1_565 S
C607 C606 1.367 1_545 S
C607 C609 1.433 . S
C608 C604 1.334 1_545 S
C608 C605 1.461 1_445 S
C608 N612 1.446 . S
C609 H599 0.929 . S
C609 C607 1.433 . S
C609 N612 1.384 . S
C610 H601 0.929 . S
C610 C602 1.378 . S
C610 C605 1.334 1_545 S
C611 H598 0.929 . S
C611 C603 1.433 . S
C611 N613 1.384 . S
N612 C608 1.446 . S
N612 C609 1.384 . S
N613 C605 1.446 . S
N613 C611 1.384 . S
H614 C620 0.930 . S
H615 C624 0.930 . S
H616 C629 0.929 . S
H617 C627 0.929 . S
H618 C622 0.929 . S
H619 C628 0.929 . S
C620 H614 0.930 . S
C620 C621 1.367 1_455 S
C620 C628 1.378 . S
C621 C620 1.367 1_655 S
C621 C629 1.433 . S
C622 H618 0.929 . S
C622 C624 1.378 . S
C622 C626 1.335 1_655 S
C623 C626 1.462 1_645 S
C623 C628 1.335 1_655 S
C623 N631 1.444 . S
C624 H615 0.930 . S
C624 C622 1.378 . S
C624 C625 1.367 1_655 S
C625 C624 1.367 1_455 S
C625 C627 1.433 . S
C626 C622 1.335 1_455 S
C626 C623 1.462 1_465 S
C626 N630 1.444 . S
C627 H617 0.929 . S
C627 C625 1.433 . S
C627 N630 1.384 . S
C628 H619 0.929 . S
C628 C620 1.378 . S
C628 C623 1.335 1_455 S
C629 H616 0.929 . S
C629 C621 1.433 . S
C629 N631 1.384 . S
N630 C626 1.444 . S
N630 C627 1.384 . S
N631 C623 1.444 . S
N631 C629 1.384 . S
H632 C638 0.930 . S
H633 C642 0.930 . S
H634 C647 0.929 . S
H635 C645 0.929 . S
H636 C640 0.929 . S
H637 C646 0.929 . S
C638 H632 0.930 . S
C638 C639 1.367 . S
C638 C646 1.378 . S
C639 C638 1.367 . S
C639 C647 1.433 . S
C640 H636 0.929 . S
C640 C642 1.378 . S
C640 C644 1.350 . S
C641 C644 1.463 . S
C641 C646 1.350 . S
C641 N649 1.427 . S
C642 H633 0.930 . S
C642 C640 1.378 . S
C642 C643 1.367 . S
C643 C642 1.367 . S
C643 C645 1.433 . S
C644 C640 1.350 . S
C644 C641 1.463 . S
C644 N648 1.427 . S
C645 H635 0.929 . S
C645 C643 1.433 . S
C645 N648 1.384 . S
C646 H637 0.929 . S
C646 C638 1.378 . S
C646 C641 1.350 . S
C647 H634 0.929 . S
C647 C639 1.433 . S
C647 N649 1.384 . S
N648 C644 1.427 . S
N648 C645 1.384 . S
N649 C641 1.427 . S
N649 C647 1.384 . S
H650 C656 0.930 . S
H651 C660 0.930 . S
H652 C665 0.929 . S
H653 C663 0.929 . S
H654 C658 0.929 . S
H655 C664 0.929 . S
C656 H650 0.930 . S
C656 C657 1.367 . S
C656 C664 1.378 . S
C657 C656 1.367 . S
C657 C665 1.433 . S
C658 H654 0.929 . S
C658 C660 1.378 . S
C658 C662 1.350 . S
C659 C662 1.463 . S
C659 C664 1.350 . S
C659 N667 1.427 . S
C660 H651 0.930 . S
C660 C658 1.378 . S
C660 C661 1.367 . S
C661 C660 1.367 . S
C661 C663 1.433 . S
C662 C658 1.350 . S
C662 C659 1.463 . S
C662 N666 1.427 . S
C663 H653 0.929 . S
C663 C661 1.433 . S
C663 N666 1.384 . S
C664 H655 0.929 . S
C664 C656 1.378 . S
C664 C659 1.350 . S
C665 H652 0.929 . S
C665 C657 1.433 . S
C665 N667 1.384 . S
N666 C662 1.427 . S
N666 C663 1.384 . S
N667 C659 1.427 . S
N667 C665 1.384 . S
H668 C674 0.930 . S
H669 C678 0.930 . S
H670 C683 0.929 . S
H671 C681 0.929 . S
H672 C676 0.929 . S
H673 C682 0.929 . S
C674 H668 0.930 . S
C674 C675 1.367 . S
C674 C682 1.378 . S
C675 C674 1.367 . S
C675 C683 1.433 . S
C676 H672 0.929 . S
C676 C678 1.378 . S
C676 C680 1.350 . S
C677 C680 1.463 . S
C677 C682 1.350 . S
C677 N685 1.427 . S
C678 H669 0.930 . S
C678 C676 1.378 . S
C678 C679 1.367 . S
C679 C678 1.367 . S
C679 C681 1.433 . S
C680 C676 1.350 . S
C680 C677 1.463 . S
C680 N684 1.427 . S
C681 H671 0.929 . S
C681 C679 1.433 . S
C681 N684 1.384 . S
C682 H673 0.929 . S
C682 C674 1.378 . S
C682 C677 1.350 . S
C683 H670 0.929 . S
C683 C675 1.433 . S
C683 N685 1.384 . S
N684 C680 1.427 . S
N684 C681 1.384 . S
N685 C677 1.427 . S
N685 C683 1.384 . S
H686 C692 0.930 . S
H687 C696 0.930 . S
H688 C701 0.929 . S
H689 C699 0.929 . S
H690 C694 0.929 . S
H691 C700 0.929 . S
C692 H686 0.930 . S
C692 C693 1.367 . S
C692 C700 1.378 . S
C693 C692 1.367 . S
C693 C701 1.433 . S
C694 H690 0.929 . S
C694 C696 1.378 . S
C694 C698 1.350 . S
C695 C698 1.463 . S
C695 C700 1.350 . S
C695 N703 1.427 . S
C696 H687 0.930 . S
C696 C694 1.378 . S
C696 C697 1.367 . S
C697 C696 1.367 . S
C697 C699 1.433 . S
C698 C694 1.350 . S
C698 C695 1.463 . S
C698 N702 1.427 . S
C699 H689 0.929 . S
C699 C697 1.433 . S
C699 N702 1.384 . S
C700 H691 0.929 . S
C700 C692 1.378 . S
C700 C695 1.350 . S
C701 H688 0.929 . S
C701 C693 1.433 . S
C701 N703 1.384 . S
N702 C698 1.427 . S
N702 C699 1.384 . S
N703 C695 1.427 . S
N703 C701 1.384 . S
H704 C710 0.930 . S
H705 C714 0.930 . S
H706 C719 0.929 . S
H707 C717 0.929 . S
H708 C712 0.929 . S
H709 C718 0.929 . S
C710 H704 0.930 . S
C710 C711 1.367 . S
C710 C718 1.378 . S
C711 C710 1.367 . S
C711 C719 1.433 . S
C712 H708 0.929 . S
C712 C714 1.378 . S
C712 C716 1.350 . S
C713 C716 1.463 . S
C713 C718 1.350 . S
C713 N721 1.427 . S
C714 H705 0.930 . S
C714 C712 1.378 . S
C714 C715 1.367 . S
C715 C714 1.367 . S
C715 C717 1.433 . S
C716 C712 1.350 . S
C716 C713 1.463 . S
C716 N720 1.427 . S
C717 H707 0.929 . S
C717 C715 1.433 . S
C717 N720 1.384 . S
C718 H709 0.929 . S
C718 C710 1.378 . S
C718 C713 1.350 . S
C719 H706 0.929 . S
C719 C711 1.433 . S
C719 N721 1.384 . S
N720 C716 1.427 . S
N720 C717 1.384 . S
N721 C713 1.427 . S
N721 C719 1.384 . S
H722 C728 0.930 . S
H723 C732 0.930 . S
H724 C737 0.929 . S
H725 C735 0.929 . S
H726 C730 0.929 . S
H727 C736 0.929 . S
C728 H722 0.930 . S
C728 C729 1.367 . S
C728 C736 1.378 . S
C729 C728 1.367 . S
C729 C737 1.433 . S
C730 H726 0.929 . S
C730 C732 1.378 . S
C730 C734 1.350 . S
C731 C734 1.463 . S
C731 C736 1.350 . S
C731 N739 1.427 . S
C732 H723 0.930 . S
C732 C730 1.378 . S
C732 C733 1.367 . S
C733 C732 1.367 . S
C733 C735 1.433 . S
C734 C730 1.350 . S
C734 C731 1.463 . S
C734 N738 1.427 . S
C735 H725 0.929 . S
C735 C733 1.433 . S
C735 N738 1.384 . S
C736 H727 0.929 . S
C736 C728 1.378 . S
C736 C731 1.350 . S
C737 H724 0.929 . S
C737 C729 1.433 . S
C737 N739 1.384 . S
N738 C734 1.427 . S
N738 C735 1.384 . S
N739 C731 1.427 . S
N739 C737 1.384 . S
H740 C746 0.930 . S
H741 C750 0.930 . S
H742 C755 0.929 . S
H743 C753 0.929 . S
H744 C748 0.929 . S
H745 C754 0.929 . S
C746 H740 0.930 . S
C746 C747 1.367 . S
C746 C754 1.378 . S
C747 C746 1.367 . S
C747 C755 1.433 . S
C748 H744 0.929 . S
C748 C750 1.378 . S
C748 C752 1.350 . S
C749 C752 1.463 . S
C749 C754 1.350 . S
C749 N757 1.427 . S
C750 H741 0.930 . S
C750 C748 1.378 . S
C750 C751 1.367 . S
C751 C750 1.367 . S
C751 C753 1.433 . S
C752 C748 1.350 . S
C752 C749 1.463 . S
C752 N756 1.427 . S
C753 H743 0.929 . S
C753 C751 1.433 . S
C753 N756 1.384 . S
C754 H745 0.929 . S
C754 C746 1.378 . S
C754 C749 1.350 . S
C755 H742 0.929 . S
C755 C747 1.433 . S
C755 N757 1.384 . S
N756 C752 1.427 . S
N756 C753 1.384 . S
N757 C749 1.427 . S
N757 C755 1.384 . S
H758 C764 0.930 . S
H759 C768 0.930 . S
H760 C773 0.929 . S
H761 C771 0.929 . S
H762 C766 0.929 . S
H763 C772 0.929 . S
C764 H758 0.930 . S
C764 C765 1.367 . S
C764 C772 1.378 . S
C765 C764 1.367 . S
C765 C773 1.433 . S
C766 H762 0.929 . S
C766 C768 1.378 . S
C766 C770 1.350 . S
C767 C770 1.463 . S
C767 C772 1.350 . S
C767 N775 1.427 . S
C768 H759 0.930 . S
C768 C766 1.378 . S
C768 C769 1.367 . S
C769 C768 1.367 . S
C769 C771 1.433 . S
C770 C766 1.350 . S
C770 C767 1.463 . S
C770 N774 1.427 . S
C771 H761 0.929 . S
C771 C769 1.433 . S
C771 N774 1.384 . S
C772 H763 0.929 . S
C772 C764 1.378 . S
C772 C767 1.350 . S
C773 H760 0.929 . S
C773 C765 1.433 . S
C773 N775 1.384 . S
N774 C770 1.427 . S
N774 C771 1.384 . S
N775 C767 1.427 . S
N775 C773 1.384 . S
C279 C15 1.566 1_556 S
C283 C173 1.515 . S
C297 C56 1.565 1_554 S
C301 C205 1.512 . S
C315 C241 1.512 . S
C319 C90 1.565 1_556 S
C333 C137 1.513 . S
C337 C124 1.568 1_554 S
C351 C151 1.565 . S
C355 C105 1.513 . S
C369 C192 1.567 . S
C373 C1 1.505 . S
C387 C219 1.567 . S
C391 C37 1.514 . S
C405 C260 1.574 . S
C409 C71 1.497 . S
C423 C119 1.207 . S
C427 C28 1.165 . S
C441 C17 1.202 . S
C445 C40 1.146 . S
C459 C51 1.200 . S
C463 C74 1.153 . S
C477 C108 1.161 . S
C481 C85 1.207 . S
C495 C164 1.146 . S
C499 C187 1.201 . S
C513 C176 1.146 . S
C517 C221 1.199 . S
C531 C232 1.163 . S
C535 C255 1.204 . S
C549 C153 1.206 . S
C553 C244 1.157 . S
C567 C22 0.762 . S
C571 C83 0.795 . S
C585 C49 0.757 . S
C589 C117 0.793 . S
C603 C158 0.743 1_565 S
C607 C226 0.769 1_545 S
C621 C185 0.745 1_655 S
C625 C253 0.760 1_455 S
C639 C210 1.899 . S
C643 C3 1.856 . S
C657 C35 1.847 . S
C661 C266 1.898 . S
C675 C69 1.846 . S
C679 C142 1.897 . S
C693 C198 1.897 . S
C697 C103 1.846 . S
C711 C139 1.854 . S
C715 C96 1.886 . S
C729 C130 1.899 . S
C733 C171 1.856 . S
C747 C207 1.856 . S
C751 C6 1.886 . S
C765 C62 1.887 . S
C769 C239 1.857 . S
